# Generated by pormake.
# Topology zzz, (3,6)-cn, num edge types: 1
# Building blocks:
#     Node 0, Type 0, BuildingBlock: QEWDON_clean_linker_0, # of connection points: 3
#     Node 1, Type 0, BuildingBlock: QEWDON_clean_linker_0, # of connection points: 3
#     Node 2, Type 0, BuildingBlock: QEWDON_clean_linker_0, # of connection points: 3
#     Node 3, Type 0, BuildingBlock: QEWDON_clean_linker_0, # of connection points: 3
#     Node 4, Type 0, BuildingBlock: QEWDON_clean_linker_0, # of connection points: 3
#     Node 5, Type 0, BuildingBlock: QEWDON_clean_linker_0, # of connection points: 3
#     Node 6, Type 0, BuildingBlock: QEWDON_clean_linker_0, # of connection points: 3
#     Node 7, Type 0, BuildingBlock: QEWDON_clean_linker_0, # of connection points: 3
#     Node 8, Type 1, BuildingBlock: HISSIN_clean_sbu_0, # of connection points: 6
#     Node 9, Type 1, BuildingBlock: HISSIN_clean_sbu_0, # of connection points: 6
#     Node 10, Type 1, BuildingBlock: HISSIN_clean_sbu_0, # of connection points: 6
#     Node 11, Type 1, BuildingBlock: HISSIN_clean_sbu_0, # of connection points: 6
#     Edge 12, Type (0, 1), BuildingBlock: XUDNAN_clean_linker_2, # of connection points: 2
#     Edge 13, Type (0, 1), BuildingBlock: XUDNAN_clean_linker_2, # of connection points: 2
#     Edge 14, Type (0, 1), BuildingBlock: XUDNAN_clean_linker_2, # of connection points: 2
#     Edge 15, Type (0, 1), BuildingBlock: XUDNAN_clean_linker_2, # of connection points: 2
#     Edge 16, Type (0, 1), BuildingBlock: XUDNAN_clean_linker_2, # of connection points: 2
#     Edge 17, Type (0, 1), BuildingBlock: XUDNAN_clean_linker_2, # of connection points: 2
#     Edge 18, Type (0, 1), BuildingBlock: XUDNAN_clean_linker_2, # of connection points: 2
#     Edge 19, Type (0, 1), BuildingBlock: XUDNAN_clean_linker_2, # of connection points: 2
#     Edge 20, Type (0, 1), BuildingBlock: XUDNAN_clean_linker_2, # of connection points: 2
#     Edge 21, Type (0, 1), BuildingBlock: XUDNAN_clean_linker_2, # of connection points: 2
#     Edge 22, Type (0, 1), BuildingBlock: XUDNAN_clean_linker_2, # of connection points: 2
#     Edge 23, Type (0, 1), BuildingBlock: XUDNAN_clean_linker_2, # of connection points: 2
#     Edge 24, Type (0, 1), BuildingBlock: XUDNAN_clean_linker_2, # of connection points: 2
#     Edge 25, Type (0, 1), BuildingBlock: XUDNAN_clean_linker_2, # of connection points: 2
#     Edge 26, Type (0, 1), BuildingBlock: XUDNAN_clean_linker_2, # of connection points: 2
#     Edge 27, Type (0, 1), BuildingBlock: XUDNAN_clean_linker_2, # of connection points: 2
#     Edge 28, Type (0, 1), BuildingBlock: XUDNAN_clean_linker_2, # of connection points: 2
#     Edge 29, Type (0, 1), BuildingBlock: XUDNAN_clean_linker_2, # of connection points: 2
#     Edge 30, Type (0, 1), BuildingBlock: XUDNAN_clean_linker_2, # of connection points: 2
#     Edge 31, Type (0, 1), BuildingBlock: XUDNAN_clean_linker_2, # of connection points: 2
#     Edge 32, Type (0, 1), BuildingBlock: XUDNAN_clean_linker_2, # of connection points: 2
#     Edge 33, Type (0, 1), BuildingBlock: XUDNAN_clean_linker_2, # of connection points: 2
#     Edge 34, Type (0, 1), BuildingBlock: XUDNAN_clean_linker_2, # of connection points: 2
#     Edge 35, Type (0, 1), BuildingBlock: XUDNAN_clean_linker_2, # of connection points: 2
# Relax obj value: 0.190
# Max RMSD: 0.194
# Mean RMSD: 0.065
data_MOF--net-zzz--node1-HISSIN_clean_sbu_0--node2-QEWDON_clean_linker_0--edge1-XUDNAN_clean_linker_2
_symmetry_space_group_name_H-M    P1
_symmetry_Int_Tables_number       1
_symmetry_cell_setting            triclinic
loop_
_symmetry_equiv_pos_as_xyz
'x, y, z'
_cell_length_a     53.347612
_cell_length_b     53.157246
_cell_length_c     15.855981
_cell_angle_alpha  90.487192
_cell_angle_beta   90.889083
_cell_angle_gamma 90.482634
loop_
_atom_site_label
_atom_site_type_symbol
_atom_site_fract_x
_atom_site_fract_y
_atom_site_fract_z
_atom_type_partial_charge
H0 H 0.77422 0.51476 0.1945 0.0
C1 C 0.78662 0.51958 0.24652 0.0
C2 C 0.81069 0.50907 0.24715 0.0
C3 C 0.77898 0.53648 0.31055 0.0
H4 H 0.84686 0.50962 0.30962 0.0
C5 C 0.8278 0.51646 0.31073 0.0
C6 C 0.82107 0.53291 0.37555 0.0
C7 C 0.79643 0.54224 0.37697 0.0
C8 C 0.75371 0.54918 0.30408 0.0
H9 H 0.79139 0.55438 0.4289 0.0
C10 C 0.73413 0.53951 0.2509 0.0
C11 C 0.71202 0.55325 0.23495 0.0
C12 C 0.74947 0.57229 0.34576 0.0
H13 H 0.76368 0.58121 0.38523 0.0
C14 C 0.72694 0.58512 0.33462 0.0
H15 H 0.73586 0.5214 0.22034 0.0
C16 C 0.70849 0.57592 0.27903 0.0
H17 H 0.69192 0.58713 0.26811 0.0
H18 H 0.72418 0.60289 0.36686 0.0
H19 H 1.00292 0.7625 0.20646 0.0
C20 C 1.00708 0.77634 0.25527 0.0
C21 C 1.00348 0.80168 0.2368 0.0
C22 C 1.01559 0.7689 0.33557 0.0
H23 H 1.00697 0.83969 0.28187 0.0
C24 C 1.00815 0.82006 0.29915 0.0
C25 C 1.01558 0.81387 0.3814 0.0
C26 C 1.01979 0.78799 0.39892 0.0
C27 C 1.01872 0.74115 0.35244 0.0
H28 H 0.02627 0.78283 0.46134 0.0
C29 C 0.02503 0.7235 0.2875 0.0
C30 C 0.02626 0.69732 0.30379 0.0
C31 C 1.01385 0.7318 0.43328 0.0
H32 H 1.00829 0.74421 0.48398 0.0
C33 C 1.01512 0.70612 0.4496 0.0
H34 H 0.02947 0.72998 0.22493 0.0
C35 C 1.02114 0.68909 0.38589 0.0
H36 H 1.02154 0.66926 0.40095 0.0
H37 H 1.01109 0.6993 0.51212 0.0
H38 H 0.79897 0.06436 0.18669 0.0
C39 C 0.78522 0.05709 0.22993 0.0
C40 C 0.7621 0.0691 0.23407 0.0
C41 C 0.7909 0.03669 0.28288 0.0
H42 H 0.72619 0.07043 0.29258 0.0
C43 C 0.74403 0.0608 0.29054 0.0
C44 C 0.74849 0.04041 0.3439 0.0
C45 C 0.77221 0.02848 0.34053 0.0
C46 C 0.81686 0.02553 0.2804 0.0
H47 H 0.77581 1.01271 0.38156 0.0
C48 C 0.83146 0.02585 0.20578 0.0
C49 C 0.8572 1.01896 0.20654 0.0
C50 C 0.82816 1.01656 0.35475 0.0
H51 H 0.81811 1.01633 0.41349 0.0
C52 C 0.8531 1.00888 0.35567 0.0
H53 H 0.82276 0.03155 0.14707 0.0
C54 C 0.86757 1.01041 0.28323 0.0
H55 H 0.88715 1.00552 0.28879 0.0
H56 H 0.86158 1.00244 0.414 0.0
H57 H 0.49615 0.80285 0.20831 0.0
C58 C 0.50343 0.78925 0.25263 0.0
C59 C 0.4925 0.76527 0.25328 0.0
C60 C 0.523 0.79575 0.30978 0.0
H61 H 0.49223 0.72883 0.3101 0.0
C62 C 0.50096 0.74735 0.31077 0.0
C63 C 0.52061 0.7527 0.36781 0.0
C64 C 0.5315 0.77711 0.36763 0.0
C65 C 0.53367 0.82213 0.31011 0.0
H66 H 0.54687 0.78124 0.41105 0.0
C67 C 0.53418 0.83699 0.23581 0.0
C68 C 0.54248 0.86242 0.23813 0.0
C69 C 0.54224 0.8332 0.38623 0.0
H70 H 0.54168 0.82297 0.44488 0.0
C71 C 0.55102 0.858 0.38861 0.0
H72 H 0.52786 0.82896 0.17622 0.0
C73 C 0.55111 0.87249 0.31568 0.0
H74 H 0.55823 0.89159 0.32013 0.0
H75 H 0.55758 0.86616 0.44779 0.0
H76 H 0.29102 0.5548 0.21649 0.0
C77 C 0.28043 0.5514 0.1588 0.0
C78 C 0.25855 0.56529 0.14577 0.0
C79 C 0.28791 0.53298 0.09974 0.0
H80 H 0.22529 0.56972 0.07012 0.0
C81 C 0.24305 0.56005 0.07591 0.0
C82 C 0.2489 0.54093 0.01852 0.0
C83 C 0.27172 0.528 0.02922 0.0
C84 C 0.3119 0.5185 0.11364 0.0
H85 H 0.27646 0.51407 0.98223 0.0
C86 C 0.33173 0.52802 0.1661 0.0
C87 C 0.35398 0.5142 0.18057 0.0
C88 C 0.31508 0.49466 0.07583 0.0
H89 H 0.3004 0.48575 0.03831 0.0
C90 C 0.33732 0.48144 0.08673 0.0
H91 H 0.32988 0.54609 0.19658 0.0
C92 C 0.35662 0.4911 0.13781 0.0
H93 H 0.37364 0.48028 0.14345 0.0
H94 H 0.33951 0.46336 0.05586 0.0
H95 H 0.06732 0.30021 0.21172 0.0
C96 C 0.06619 0.28836 0.15595 0.0
C97 C 0.07691 0.26455 0.16045 0.0
C98 C 0.0521 0.29575 0.08479 0.0
H99 H 0.08015 0.22851 0.10237 0.0
C100 C 0.07375 0.24756 0.09312 0.0
C101 C 0.06004 0.2536 0.01987 0.0
C102 C 0.04942 0.27815 0.01595 0.0
C103 C 0.03784 0.32031 0.08943 0.0
H104 H 0.03883 0.28333 0.96019 0.0
C105 C 0.04577 0.34075 0.14323 0.0
C106 C 0.03007 0.36171 0.15837 0.0
C107 C 1.01453 0.32245 0.04741 0.0
H108 H 1.00721 0.30744 1.00743 0.0
C109 C 0.99951 0.34352 0.05941 0.0
H110 H 0.06376 0.34018 0.17553 0.0
C111 C 1.00698 0.36276 0.11494 0.0
H112 H 0.99465 0.37864 0.12359 0.0
H113 H 0.98157 0.34467 0.02684 0.0
H114 H 0.27413 1.00008 0.18603 0.0
C115 C 0.28798 1.00792 0.14436 0.0
C116 C 0.31015 0.99452 0.13234 0.0
C117 C 0.28375 0.03094 0.10319 0.0
H118 H 0.34573 0.99367 0.07104 0.0
C119 C 0.32819 1.00366 0.07684 0.0
C120 C 0.32505 0.02646 0.03459 0.0
C121 C 0.30286 0.04028 0.04916 0.0
C122 C 0.25923 0.04457 0.11516 0.0
H123 H 0.30068 0.05826 0.01862 0.0
C124 C 0.24464 0.04199 0.18949 0.0
C125 C 0.22078 0.05347 0.19657 0.0
C126 C 0.24947 0.05939 0.04947 0.0
H127 H 0.25926 0.06143 0.99067 0.0
C128 C 0.22647 0.07137 0.05717 0.0
H129 H 0.25156 0.03087 0.24152 0.0
C130 C 0.21227 0.06847 0.12954 0.0
H131 H 0.19458 0.07823 0.13299 0.0
H132 H 0.21941 0.08279 1.00599 0.0
H133 H 0.56944 0.27832 0.20632 0.0
C134 C 0.56127 0.2916 0.16265 0.0
C135 C 0.57091 0.31613 0.16231 0.0
C136 C 0.54208 0.28411 0.10524 0.0
H137 H 0.5692 0.35264 0.10589 0.0
C138 C 0.56144 0.3337 0.10535 0.0
C139 C 0.54248 0.3272 0.04716 0.0
C140 C 0.53286 0.30228 0.04688 0.0
C141 C 0.53302 0.2571 0.10416 0.0
H142 H 0.51807 0.29736 1.00212 0.0
C143 C 0.53397 0.24191 0.17769 0.0
C144 C 0.52809 0.2158 0.17443 0.0
C145 C 0.52489 0.24573 0.02801 0.0
H146 H 0.52436 0.25618 0.96978 0.0
C147 C 0.51824 0.22029 0.02476 0.0
H148 H 0.53928 0.25034 0.23772 0.0
C149 C 0.52005 0.20541 0.09664 0.0
H150 H 0.51584 0.18553 0.09018 0.0
H151 H 0.51232 0.21184 0.9653 0.0
Eu152 Eu 1.02255 0.04091 0.61283 0.0
Eu153 Eu 0.05417 0.02734 0.78115 0.0
C154 C 0.04282 0.08624 0.74066 0.0
C155 C 1.00735 0.08324 0.4464 0.0
C156 C 1.00344 0.10397 0.50037 0.0
C157 C 0.03696 0.10843 0.36785 0.0
C158 C 1.01729 0.12607 0.49132 0.0
C159 C 1.0232 0.0862 0.37726 0.0
C160 C 0.03504 0.1281 0.42729 0.0
C161 C 1.00168 0.05767 0.47652 0.0
O162 O 1.01351 1.01852 0.81286 0.0
O163 O 0.99404 0.04339 0.71609 0.0
C164 C 0.9935 0.03047 0.78609 0.0
O165 O 1.01703 0.9985 0.61973 0.0
O166 O 0.05989 0.02884 0.91789 0.0
O167 O 0.08418 1.00597 0.84132 0.0
O168 O 0.05151 0.99119 0.70294 0.0
C169 C 0.03355 0.98285 0.65176 0.0
O170 O 0.06288 0.03639 0.57154 0.0
O171 O 0.08431 0.04245 0.69602 0.0
O172 O 0.05013 0.06961 0.79671 0.0
O173 O 1.02071 0.04246 0.47526 0.0
O174 O 0.98972 0.05622 0.54742 0.0
O175 O 0.03438 0.07935 0.66528 0.0
C176 C 0.06507 0.98629 0.95438 0.0
C177 C 0.03907 0.9837 0.9654 0.0
C178 C 0.06892 0.94092 0.96151 0.0
C179 C 0.02794 0.96 0.96841 0.0
C180 C 0.08002 0.96475 0.95624 0.0
C181 C 0.04262 0.93824 0.96355 0.0
C182 C 0.07476 1.00944 0.91593 0.0
C183 C 0.08395 0.04083 0.61329 0.0
H184 H 0.99136 0.10245 0.5544 0.0
H185 H 0.04984 0.10981 0.31592 0.0
H186 H 1.01519 0.14093 0.53777 0.0
H187 H 0.0266 0.07056 0.33478 0.0
H188 H 0.02692 0.9999 0.96457 0.0
H189 H 0.08094 0.92461 0.96112 0.0
H190 H 1.00768 0.95891 0.96992 0.0
H191 H 0.10008 0.96623 0.94737 0.0
Eu192 Eu 0.54813 0.05562 0.78098 0.0
Eu193 Eu 0.52851 1.0204 0.62678 0.0
C194 C 0.54197 0.9969 0.80685 0.0
C195 C 0.587 0.10206 0.90742 0.0
C196 C 0.59349 0.11288 0.98544 0.0
C197 C 0.62633 0.11675 0.84997 0.0
C198 C 0.61671 0.12483 0.99666 0.0
C199 C 0.6031 0.10478 0.83888 0.0
C200 C 0.63379 0.12601 0.92989 0.0
C201 C 0.56472 0.08593 0.8997 0.0
O202 O 0.49423 1.0247 0.70962 0.0
O203 O 0.50608 0.06108 0.77745 0.0
C204 C 0.48878 0.04428 0.75702 0.0
O205 O 0.55415 0.07798 0.66283 0.0
O206 O 0.52141 0.98214 0.5807 0.0
O207 O 0.51357 1.01365 0.49962 0.0
O208 O 0.52271 0.06068 0.58216 0.0
C209 C 0.53859 0.07927 0.59819 0.0
O210 O 0.58379 0.03931 0.72596 0.0
O211 O 0.56921 0.02788 0.59402 0.0
O212 O 0.54634 0.99542 0.72572 0.0
O213 O 0.5483 0.09246 0.84238 0.0
O214 O 0.56913 0.06181 0.89833 0.0
O215 O 0.53677 1.01877 0.84089 0.0
C216 C 0.48616 0.97835 0.49107 0.0
C217 C 0.46459 0.99325 0.48977 0.0
C218 C 0.46042 0.94152 0.45783 0.0
C219 C 0.44125 0.9825 0.47073 0.0
C220 C 0.48389 0.95239 0.47594 0.0
C221 C 0.43882 0.9565 0.45396 0.0
C222 C 0.51093 0.98949 0.51067 0.0
C223 C 0.58795 0.03258 0.64712 0.0
H224 H 0.58122 0.11089 0.03885 0.0
H225 H 0.63903 0.11747 0.79738 0.0
H226 H 0.62199 0.13137 0.05938 0.0
H227 H 0.59824 0.09652 0.77799 0.0
H228 H 0.46576 1.0133 0.50226 0.0
H229 H 0.45925 0.92145 0.44598 0.0
H230 H 0.42528 0.99487 0.4663 0.0
H231 H 0.5003 0.94052 0.4778 0.0
Eu232 Eu 0.51563 0.54782 0.78295 0.0
Eu233 Eu 0.55029 0.5314 0.62332 0.0
C234 C 0.5747 0.53843 0.81298 0.0
C235 C 0.4689 0.58491 0.90667 0.0
C236 C 0.45728 0.5901 0.98325 0.0
C237 C 0.45619 0.62568 0.85409 0.0
C238 C 0.44585 0.61331 0.99632 0.0
C239 C 0.46762 0.60245 0.84113 0.0
C240 C 0.44601 0.63172 0.93292 0.0
C241 C 0.48466 0.56264 0.89849 0.0
O242 O 0.54722 0.49528 0.69644 0.0
O243 O 0.51496 0.505 0.78581 0.0
C244 C 0.53058 0.48869 0.75267 0.0
O245 O 0.49312 0.55414 0.66282 0.0
O246 O 0.58545 0.53543 0.55569 0.0
O247 O 0.55584 0.51161 0.50438 0.0
O248 O 0.51025 0.52312 0.58344 0.0
C249 C 0.49187 0.5386 0.59829 0.0
O250 O 0.53281 0.58429 0.73627 0.0
O251 O 0.54015 0.57214 0.6001 0.0
O252 O 0.57758 0.53919 0.73084 0.0
O253 O 0.47841 0.54687 0.83808 0.0
O254 O 0.50873 0.56721 0.90163 0.0
O255 O 0.55245 0.53872 0.84721 0.0
C256 C 0.59679 0.49758 0.48953 0.0
C257 C 0.60142 0.48137 0.55731 0.0
C258 C 0.61873 0.46919 0.39672 0.0
C259 C 0.61374 0.45865 0.54405 0.0
C260 C 0.6063 0.49187 0.40998 0.0
C261 C 0.62157 0.45187 0.46283 0.0
C262 C 0.57928 0.51841 0.49936 0.0
C263 C 0.53722 0.58995 0.65715 0.0
H264 H 0.45822 0.57675 0.03448 0.0
H265 H 0.45649 0.63941 0.80401 0.0
H266 H 0.43856 0.61747 0.05822 0.0
H267 H 0.47656 0.59868 0.78149 0.0
H268 H 0.59419 0.48558 0.61928 0.0
H269 H 0.62423 0.46435 0.33317 0.0
H270 H 0.61574 0.44568 0.59604 0.0
H271 H 0.60277 0.50418 0.35706 0.0
Eu272 Eu 0.04082 0.55817 0.6528 0.0
Eu273 Eu 0.02552 0.51174 0.7719 0.0
C274 C 0.08387 0.52689 0.75188 0.0
C275 C 0.07974 0.60584 0.53759 0.0
C276 C 0.10043 0.60287 0.59234 0.0
C277 C 0.1073 0.62298 0.43196 0.0
C278 C 0.12445 0.60951 0.56653 0.0
C279 C 0.08322 0.61645 0.45807 0.0
C280 C 0.12825 0.61896 0.48518 0.0
C281 C 0.05498 0.59609 0.56059 0.0
O282 O 0.03908 0.5433 0.85923 0.0
O283 O 0.02644 0.57526 0.77498 0.0
C284 C 0.03322 0.56711 0.84986 0.0
O285 O 1.0003 0.54994 0.61863 0.0
O286 O 1.01095 0.49734 0.88979 0.0
O287 O 1.02074 0.47128 0.79059 0.0
O288 O 0.98939 0.53226 0.74363 0.0
C289 C 0.98307 0.54234 0.67113 0.0
O290 O 0.05198 0.5222 0.58357 0.0
O291 O 1.02092 0.49791 0.63678 0.0
O292 O 0.06764 0.50848 0.7631 0.0
O293 O 0.04896 0.57407 0.52932 0.0
O294 O 0.04935 0.59808 0.63996 0.0
O295 O 0.07686 0.54883 0.7223 0.0
C296 C 0.98412 0.46308 0.86619 0.0
C297 C 0.97909 0.44287 0.91953 0.0
C298 C 0.93967 0.46731 0.83666 0.0
C299 C 0.95427 0.43527 0.933 0.0
C300 C 0.96437 0.4744 0.82193 0.0
C301 C 0.93413 0.44826 0.89496 0.0
C302 C 1.0093 0.47422 0.86198 0.0
C303 C 0.03777 0.50184 0.57886 0.0
H304 H 0.09817 0.59465 0.65407 0.0
H305 H 0.1096 0.62984 0.3684 0.0
H306 H 0.14016 0.60642 0.60914 0.0
H307 H 0.06747 0.61872 0.41494 0.0
H308 H 0.99421 0.43369 0.95335 0.0
H309 H 0.92506 0.47817 0.80654 0.0
H310 H 0.95091 0.42004 0.97637 0.0
H311 H 0.96796 0.4898 0.77951 0.0
H312 H 0.1691 0.04855 0.20081 0.0
H313 H 0.23488 0.05086 0.36536 0.0
H314 H 0.20744 0.04774 0.48941 0.0
H315 H 0.13019 0.08696 0.33191 0.0
H316 H 0.1019 0.0695 0.30691 0.0
H317 H 0.12676 0.07105 0.23148 0.0
H318 H 0.12824 1.02236 0.22524 0.0
H319 H 0.10334 1.02068 0.30042 0.0
H320 H 0.13257 1.00498 0.32144 0.0
H321 H 0.17188 0.0459 0.59731 0.0
H322 H 0.13236 0.04357 0.67666 0.0
H323 H 0.09006 0.04304 0.44067 0.0
C324 C 0.17789 0.04857 0.2628 0.0
C325 C 0.2044 0.05008 0.27249 0.0
C326 C 0.21479 0.04946 0.35537 0.0
C327 C 0.19927 0.04789 0.42652 0.0
C328 C 0.17326 0.04689 0.41437 0.0
C329 C 0.1627 0.0471 0.33431 0.0
C330 C 0.13425 0.04597 0.33783 0.0
C331 C 0.1226 0.06979 0.29977 0.0
C332 C 0.124 1.02207 0.29362 0.0
C333 C 0.13035 0.04501 0.43239 0.0
C334 C 0.15305 0.04567 0.47566 0.0
C335 C 0.15406 0.0453 0.56373 0.0
C336 C 0.13143 0.04403 0.60843 0.0
C337 C 0.1079 0.04304 0.56544 0.0
C338 C 0.10759 0.04364 0.47598 0.0
H339 H 0.501 0.17286 0.21924 0.0
H340 H 0.56418 0.21975 0.30044 0.0
H341 H 0.57235 0.19088 0.418 0.0
H342 H 0.48071 0.15402 0.42742 0.0
H343 H 0.47304 0.12226 0.39491 0.0
H344 H 0.47088 0.14751 0.32009 0.0
H345 H 0.50069 0.12371 0.2205 0.0
H346 H 0.50302 0.09844 0.29508 0.0
H347 H 0.53101 0.11406 0.25952 0.0
H348 H 0.57503 0.15614 0.52385 0.0
H349 H 0.57195 0.11837 0.61135 0.0
H350 H 0.50821 0.09211 0.46005 0.0
C351 C 0.51662 0.17718 0.26142 0.0
C352 C 0.53179 0.19901 0.24978 0.0
C353 C 0.5518 0.20372 0.30802 0.0
C354 C 0.55679 0.18721 0.37494 0.0
C355 C 0.54175 0.16581 0.38337 0.0
C356 C 0.52204 0.16073 0.32832 0.0
C357 C 0.50927 0.13593 0.3502 0.0
C358 C 0.48185 0.14019 0.37461 0.0
C359 C 0.51111 0.11691 0.27697 0.0
C360 C 0.525 0.12778 0.42591 0.0
C361 C 0.54354 0.14544 0.44391 0.0
C362 C 0.56054 0.14225 0.51037 0.0
C363 C 0.55859 0.12058 0.55987 0.0
C364 C 0.53981 0.10202 0.54318 0.0
C365 C 0.52279 0.10581 0.47483 0.0
H366 H 0.38694 0.48584 0.27729 0.0
H367 H 0.36753 0.56346 0.2232 0.0
H368 H 0.39931 0.57782 0.32732 0.0
H369 H 0.40078 0.49239 0.49536 0.0
H370 H 0.42741 0.47175 0.4938 0.0
H371 H 0.40219 0.46736 0.41818 0.0
H372 H 0.43359 0.47074 0.29569 0.0
H373 H 0.45896 0.47495 0.37092 0.0
H374 H 0.45388 0.49794 0.28967 0.0
H375 H 0.43239 0.58372 0.44338 0.0
H376 H 0.46705 0.58071 0.54845 0.0
H377 H 0.46849 0.49983 0.51183 0.0
C378 C 0.38945 0.50593 0.28541 0.0
C379 C 0.37412 0.52334 0.24139 0.0
C380 C 0.3782 0.54944 0.25696 0.0
C381 C 0.39648 0.55789 0.31576 0.0
C382 C 0.41105 0.54014 0.35767 0.0
C383 C 0.40804 0.51472 0.34196 0.0
C384 C 0.42686 0.49948 0.39243 0.0
C385 C 0.4135 0.4817 0.45356 0.0
C386 C 0.44436 0.48492 0.33367 0.0
C387 C 0.44084 0.52031 0.43964 0.0
C388 C 0.43118 0.54362 0.41976 0.0
C389 C 0.44026 0.56559 0.45855 0.0
C390 C 0.45986 0.56369 0.51841 0.0
C391 C 0.47053 0.54008 0.53767 0.0
C392 C 0.46088 0.51815 0.49749 0.0
H393 H 1.00092 0.38283 0.28235 0.0
H394 H 0.07479 0.38801 0.17353 0.0
H395 H 0.0848 0.42448 0.2672 0.0
H396 H 0.99001 0.44872 0.30592 0.0
H397 H 0.97442 0.44596 0.40551 0.0
H398 H 0.97331 0.42019 0.33101 0.0
H399 H 0.99161 0.39041 0.44429 0.0
H400 H 0.99261 0.41605 0.51934 0.0
H401 H 1.02068 0.3987 0.49741 0.0
H402 H 0.08553 0.46266 0.36885 0.0
H403 H 0.07867 0.49561 0.47722 0.0
H404 H 1.00505 0.46408 0.52487 0.0
C405 C 1.01927 0.39157 0.27831 0.0
C406 C 0.03705 0.38248 0.21987 0.0
C407 C 0.0609 0.3944 0.21777 0.0
C408 C 0.06667 0.41528 0.27052 0.0
C409 C 0.04855 0.42397 0.32635 0.0
C410 C 0.02544 0.41218 0.33137 0.0
C411 C 1.00938 0.4248 0.39772 0.0
C412 C 0.98536 0.43555 0.35762 0.0
C413 C 1.00321 0.40639 0.46891 0.0
C414 C 0.02689 0.44572 0.42893 0.0
C415 C 0.04933 0.4451 0.38646 0.0
C416 C 0.06809 0.46308 0.40279 0.0
C417 C 0.06397 0.48186 0.46441 0.0
C418 C 0.04138 0.48255 0.51035 0.0
C419 C 1.02264 0.46411 0.49169 0.0
H420 H 0.90079 0.99285 0.16279 0.0
H421 H 0.85218 0.05295 0.07568 0.0
H422 H 0.88004 0.05996 0.9563 0.0
H423 H 0.95798 0.02574 0.11952 0.0
H424 H 0.97474 0.99797 0.08809 0.0
H425 H 0.9497 0.99556 0.16255 0.0
H426 H 0.92743 0.96232 0.06683 0.0
H427 H 0.95246 0.96466 0.99226 0.0
H428 H 0.92051 0.96971 0.95821 0.0
H429 H 0.91406 0.06197 0.84797 0.0
H430 H 0.95223 0.05992 0.76302 0.0
H431 H 0.98113 1.00101 0.9247 0.0
C432 C 0.89582 1.00763 0.11935 0.0
C433 C 0.87367 1.02211 0.13008 0.0
C434 C 0.8683 0.04092 0.06936 0.0
C435 C 0.88428 0.04529 1.00111 0.0
C436 C 0.90596 0.031 0.99381 0.0
C437 C 0.91186 1.01262 0.05153 0.0
C438 C 0.93714 1.00093 0.03171 0.0
C439 C 0.956 1.00532 0.10482 0.0
C440 C 0.9342 0.97273 1.01101 0.0
C441 C 0.94456 1.01574 0.95407 0.0
C442 C 0.92612 0.03279 0.93296 0.0
C443 C 0.92858 0.04867 0.86405 0.0
C444 C 0.95044 0.04731 0.81591 0.0
C445 C 0.96996 0.03036 0.8367 0.0
C446 C 0.96676 1.01427 0.90689 0.0
H447 H 0.53154 0.91319 0.22564 0.0
H448 H 0.55344 0.84878 0.07433 0.0
H449 H 0.5549 0.87583 0.9486 0.0
H450 H 0.49293 0.94318 0.06694 0.0
H451 H 0.5027 0.97457 0.09706 0.0
H452 H 0.5024 0.94995 0.17445 0.0
H453 H 0.5492 0.95884 0.20969 0.0
H454 H 0.54969 0.98345 0.13234 0.0
H455 H 0.5718 0.95807 0.12635 0.0
H456 H 0.55521 0.9104 0.8392 0.0
H457 H 0.55369 0.94917 0.75505 0.0
H458 H 0.53265 0.99162 0.97773 0.0
C459 C 0.53679 0.90468 0.16629 0.0
C460 C 0.54238 0.87861 0.16067 0.0
C461 C 0.5487 0.86845 0.08084 0.0
C462 C 0.54977 0.88377 1.00891 0.0
C463 C 0.54446 0.90934 0.0172 0.0
C464 C 0.53803 0.91971 0.09391 0.0
C465 C 0.53351 0.94782 0.08611 0.0
C466 C 0.50626 0.95425 0.1074 0.0
C467 C 0.55216 0.96293 0.14194 0.0
C468 C 0.53856 0.95173 0.99304 0.0
C469 C 0.54479 0.92925 0.95448 0.0
C470 C 0.55032 0.92806 0.8689 0.0
C471 C 0.54943 0.95029 0.82152 0.0
C472 C 0.54311 0.97364 0.85933 0.0
C473 C 0.53761 0.9742 0.94658 0.0
H474 H 0.66002 0.55643 0.23166 0.0
H475 H 0.72315 0.53342 0.08032 0.0
H476 H 0.69449 0.52485 0.96023 0.0
H477 H 0.61425 0.51081 0.14051 0.0
H478 H 0.58879 0.53287 0.14353 0.0
H479 H 0.61389 0.53504 0.22072 0.0
H480 H 0.62184 0.5814 0.17935 0.0
H481 H 0.59689 0.57937 0.10176 0.0
H482 H 0.62791 0.58889 0.07083 0.0
H483 H 0.66006 0.52266 0.8523 0.0
H484 H 0.62155 0.52466 0.76518 0.0
H485 H 0.57987 0.54877 0.98427 0.0
C486 C 0.66781 0.54932 0.17359 0.0
C487 C 0.69397 0.54543 0.16617 0.0
C488 C 0.70324 0.53607 0.08874 0.0
C489 C 0.68709 0.53131 0.01969 0.0
C490 C 0.66159 0.53583 0.02867 0.0
C491 C 0.65189 0.54437 0.10381 0.0
C492 C 0.6238 0.54853 0.09529 0.0
C493 C 0.60933 0.53075 0.15346 0.0
C494 C 0.61724 0.57619 0.11284 0.0
C495 C 0.61939 0.54162 1.003 0.0
C496 C 0.64149 0.53428 0.96608 0.0
C497 C 0.64259 0.52811 0.88071 0.0
C498 C 0.62057 0.52945 0.83158 0.0
C499 C 0.59758 0.53685 0.86761 0.0
C500 C 0.59705 0.54282 0.95487 0.0
H501 H 1.0084 0.69134 0.1374 0.0
H502 H 0.0594 0.6589 0.32163 0.0
H503 H 0.06685 0.62322 0.22561 0.0
H504 H 0.98075 0.63393 0.06502 0.0
H505 H 0.97874 0.64237 0.95527 0.0
H506 H 0.97825 0.66652 0.03562 0.0
H507 H 1.01609 0.68881 0.96753 0.0
H508 H 1.01655 0.66484 0.88643 0.0
H509 H 0.04437 0.67139 0.94904 0.0
H510 H 0.06621 0.58901 0.11614 0.0
H511 H 0.06064 0.56031 0.99436 0.0
H512 H 1.01176 0.61448 0.87331 0.0
C513 C 1.02155 0.67701 0.15662 0.0
C514 C 0.03314 0.678 0.23803 0.0
C515 C 0.04999 0.65856 0.2606 0.0
C516 C 0.05441 0.63815 0.2062 0.0
C517 C 0.04213 0.63727 0.12802 0.0
C518 C 0.02634 0.65632 0.10233 0.0
C519 C 1.01529 0.65025 0.01499 0.0
C520 C 0.98655 0.64815 0.01794 0.0
C521 C 1.02357 0.67 0.95068 0.0
C522 C 0.02704 0.62472 0.99654 0.0
C523 C 0.04237 0.61765 0.06309 0.0
C524 C 0.05448 0.5945 0.06326 0.0
C525 C 0.05107 0.5782 0.99367 0.0
C526 C 0.03582 0.58496 0.92354 0.0
C527 C 1.02372 0.60872 0.92531 0.0
H528 H 0.05159 0.26447 0.30493 0.0
H529 H 0.1207 0.23989 0.19407 0.0
H530 H 0.12394 0.20614 0.2984 0.0
H531 H 0.06503 0.23412 0.53639 0.0
H532 H 0.03213 0.2263 0.53978 0.0
H533 H 0.0422 0.25563 0.49432 0.0
H534 H 1.01734 0.24414 0.35817 0.0
H535 H 1.0079 0.21473 0.401 0.0
H536 H 1.0244 0.21533 0.30257 0.0
H537 H 0.11069 0.1671 0.36135 0.0
H538 H 0.08502 0.12951 0.38921 0.0
H539 H 1.02258 0.17705 0.45479 0.0
C540 C 0.06836 0.25316 0.30755 0.0
C541 C 0.08581 0.25451 0.24205 0.0
C542 C 0.10724 0.23912 0.2445 0.0
C543 C 0.10915 0.21985 0.30368 0.0
C544 C 0.08961 0.21651 0.3602 0.0
C545 C 0.06997 0.23342 0.36497 0.0
C546 C 0.04837 0.22257 0.41446 0.0
C547 C 0.04686 0.23541 0.50141 0.0
C548 C 1.02308 0.22426 0.36599 0.0
C549 C 0.05703 0.19573 0.42325 0.0
C550 C 0.08143 0.19294 0.39637 0.0
C551 C 0.09194 0.16922 0.38535 0.0
C552 C 0.07704 0.14793 0.39968 0.0
C553 C 0.05171 0.15046 0.42327 0.0
C554 C 0.04203 0.17464 0.4384 0.0
H555 H 0.31108 0.99412 0.30221 0.0
H556 H 0.32681 0.9483 0.08336 0.0
H557 H 0.35415 0.92146 0.16972 0.0
H558 H 0.36497 1.00297 0.36491 0.0
H559 H 0.36238 1.00098 0.47794 0.0
H560 H 0.33537 1.00835 0.41544 0.0
H561 H 0.31108 0.97065 0.47705 0.0
H562 H 0.33809 0.96331 0.54191 0.0
H563 H 0.32436 0.9396 0.47319 0.0
H564 H 0.39084 0.91252 0.25478 0.0
H565 H 0.43035 0.92055 0.33127 0.0
H566 H 0.39187 0.96966 0.50527 0.0
C567 C 0.31888 0.97729 0.27452 0.0
C568 C 0.31692 0.97311 0.18681 0.0
C569 C 0.32801 0.95159 0.15084 0.0
C570 C 0.34355 0.93622 0.1997 0.0
C571 C 0.3475 0.94244 0.2846 0.0
C572 C 0.33476 0.96203 0.32278 0.0
C573 C 0.34626 0.96852 0.4084 0.0
C574 C 0.35265 0.99684 0.41693 0.0
C575 C 0.32892 0.96 0.47933 0.0
C576 C 0.36958 0.9525 0.4061 0.0
C577 C 0.36934 0.93667 0.33631 0.0
C578 C 0.39084 0.92396 0.31155 0.0
C579 C 0.41337 0.92866 0.35569 0.0
C580 C 0.41429 0.94597 0.42402 0.0
C581 C 0.39173 0.95652 0.45277 0.0
H582 H 0.56462 0.3265 0.32692 0.0
H583 H 0.61943 0.32736 0.12942 0.0
H584 H 0.64693 0.355 0.21642 0.0
H585 H 0.56395 0.38531 0.3599 0.0
H586 H 0.56048 0.38632 0.47285 0.0
H587 H 0.55053 0.35897 0.41486 0.0
H588 H 0.57934 0.33113 0.5073 0.0
H589 H 0.58932 0.35865 0.56657 0.0
H590 H 0.61224 0.3387 0.51802 0.0
H591 H 0.66065 0.39203 0.29683 0.0
H592 H 0.65934 0.43413 0.36317 0.0
H593 H 0.59598 0.41052 0.51123 0.0
C594 C 0.58321 0.33123 0.3052 0.0
C595 C 0.59038 0.32451 0.22314 0.0
C596 C 0.61409 0.33193 0.19336 0.0
C597 C 0.62979 0.3476 0.24252 0.0
C598 C 0.62146 0.35562 0.32122 0.0
C599 C 0.59885 0.34725 0.35332 0.0
C600 C 0.5915 0.36266 0.42969 0.0
C601 C 0.5651 0.37399 0.41848 0.0
C602 C 0.59322 0.34684 0.51017 0.0
C603 C 0.61183 0.3827 0.42939 0.0
C604 C 0.62955 0.37773 0.36875 0.0
C605 C 0.64749 0.39569 0.34662 0.0
C606 C 0.64656 0.41962 0.38422 0.0
C607 C 0.62773 0.4254 0.44288 0.0
C608 C 0.6111 0.40628 0.46877 0.0
H609 H 0.24624 0.5546 0.30624 0.0
H610 H 0.24812 0.61487 0.125 0.0
H611 H 0.22159 0.64076 0.21721 0.0
H612 H 0.18631 0.55627 0.33727 0.0
H613 H 0.18596 0.54945 0.44845 0.0
H614 H 0.21181 0.53943 0.38618 0.0
H615 H 0.2428 0.5634 0.48597 0.0
H616 H 0.21689 0.57338 0.54954 0.0
H617 H 0.23821 0.59638 0.50743 0.0
H618 H 0.18682 0.65488 0.30599 0.0
H619 H 0.14722 0.65619 0.38433 0.0
H620 H 0.16668 0.5862 0.5065 0.0
C621 C 0.24227 0.57384 0.28898 0.0
C622 C 0.24953 0.5831 0.21004 0.0
C623 C 0.24305 0.60781 0.18637 0.0
C624 C 0.22804 0.6226 0.23845 0.0
C625 C 0.21977 0.61239 0.31393 0.0
C626 C 0.22697 0.58864 0.33988 0.0
C627 C 0.21179 0.58001 0.41437 0.0
C628 C 0.19816 0.55484 0.39531 0.0
C629 C 0.22842 0.5782 0.49406 0.0
C630 C 0.19359 0.60156 0.42153 0.0
C631 C 0.199 0.62045 0.36506 0.0
C632 C 0.18282 0.6406 0.35222 0.0
C633 C 0.16026 0.64108 0.39637 0.0
C634 C 0.15397 0.62139 0.4519 0.0
C635 C 0.17132 0.60193 0.46654 0.0
H636 H 0.96931 0.83621 0.19043 0.0
H637 H 0.02591 0.78704 0.09093 0.0
H638 H 0.03041 0.8144 0.96819 0.0
H639 H 0.9506 0.87069 0.97347 0.0
H640 H 0.94936 0.89981 0.03233 0.0
H641 H 0.93873 0.87089 0.07928 0.0
H642 H 0.96892 0.87917 0.20603 0.0
H643 H 0.97992 0.90747 0.15931 0.0
H644 H 1.00198 0.88329 0.18735 0.0
H645 H 0.04195 0.85265 0.8954 0.0
H646 H 0.05813 0.89572 0.87901 0.0
H647 H 0.99976 0.92338 0.04224 0.0
C648 C 0.98145 0.83062 0.13961 0.0
C649 C 0.99753 0.80999 0.15012 0.0
C650 C 1.01333 0.8028 0.08373 0.0
C651 C 1.01603 0.81839 0.01369 0.0
C652 C 1.00293 0.84103 1.01176 0.0
C653 C 0.98538 0.84693 0.07252 0.0
C654 C 0.9795 0.87477 0.07282 0.0
C655 C 0.95298 0.8793 0.03731 0.0
C656 C 0.98285 0.88683 0.1615 0.0
C657 C 0.99905 0.88403 1.01232 0.0
C658 C 1.01114 0.86427 0.9734 0.0
C659 C 0.03219 0.86823 0.92398 0.0
C660 C 0.04161 0.89276 0.91661 0.0
C661 C 0.03052 0.91297 0.96082 0.0
C662 C 1.00842 0.90851 1.00634 0.0
H663 H 0.75381 0.06443 0.06718 0.0
H664 H 0.75302 0.11804 0.27315 0.0
H665 H 0.72907 0.14761 0.18485 0.0
H666 H 0.74715 0.11399 0.88138 0.0
H667 H 0.72663 0.09215 0.82599 0.0
H668 H 0.75273 0.08066 0.88787 0.0
H669 H 0.72235 0.05227 0.97116 0.0
H670 H 0.69648 0.06361 0.91021 0.0
H671 H 0.69612 0.06638 0.02366 0.0
H672 H 0.69489 0.16393 0.09914 0.0
H673 H 0.65329 0.16418 0.02973 0.0
H674 H 0.67404 0.09975 0.87812 0.0
C675 C 0.74991 0.08312 0.09095 0.0
C676 C 0.75553 0.0894 0.17548 0.0
C677 C 0.74923 0.11332 0.20755 0.0
C678 C 0.73572 0.13022 0.15757 0.0
C679 C 0.72861 0.12281 0.07589 0.0
C680 C 0.73586 0.09987 0.04213 0.0
C681 C 0.72106 0.09357 0.96232 0.0
C682 C 0.7379 0.09521 0.8848 0.0
C683 C 0.70823 0.06747 0.96735 0.0
C684 C 0.70227 0.11476 0.9627 0.0
C685 C 0.70777 0.13219 0.02584 0.0
C686 C 0.69081 0.15091 0.04783 0.0
C687 C 0.66712 0.15084 1.00845 0.0
C688 C 0.6605 0.13195 0.94865 0.0
C689 C 0.67887 0.11482 0.92186 0.0
H690 H 0.50088 0.75648 0.08929 0.0
H691 H 0.44349 0.75348 0.27806 0.0
H692 H 0.41731 0.7265 0.18425 0.0
H693 H 0.45639 0.74525 0.88993 0.0
H694 H 0.48015 0.72574 0.84413 0.0
H695 H 0.48906 0.75291 0.907 0.0
H696 H 0.51656 0.72459 1.00225 0.0
H697 H 0.50764 0.69756 0.94077 0.0
H698 H 0.50241 0.69784 0.05288 0.0
H699 H 0.40447 0.6905 0.09664 0.0
H700 H 0.40658 0.64907 0.0262 0.0
H701 H 0.47289 0.67347 0.89444 0.0
C702 C 0.48204 0.75146 0.1077 0.0
C703 C 0.47374 0.7574 0.18917 0.0
C704 C 0.4497 0.74955 0.2146 0.0
C705 C 0.43476 0.73424 0.16156 0.0
C706 C 0.44421 0.72695 0.08354 0.0
C707 C 0.46723 0.73568 0.05593 0.0
C708 C 0.47586 0.7208 0.97997 0.0
C709 C 0.47532 0.73715 0.90054 0.0
C710 C 0.50212 0.70953 0.99503 0.0
C711 C 0.45564 0.70067 0.9752 0.0
C712 C 0.43694 0.70518 0.03279 0.0
C713 C 0.41852 0.68716 0.04945 0.0
C714 C 0.41995 0.66359 1.00962 0.0
C715 C 0.43986 0.65813 0.95465 0.0
C716 C 0.45704 0.67738 0.9341 0.0
H717 H 0.84307 0.46958 0.26226 0.0
H718 H 0.79814 0.50948 0.07699 0.0
H719 H 0.81834 0.48571 0.96358 0.0
H720 H 0.89611 0.48103 0.16372 0.0
H721 H 0.91175 0.45223 0.19119 0.0
H722 H 0.88749 0.46405 0.257 0.0
H723 H 0.86344 0.4216 0.24059 0.0
H724 H 0.88773 0.40977 0.17346 0.0
H725 H 0.85559 0.40962 0.13671 0.0
H726 H 0.84882 0.46459 0.8697 0.0
H727 H 0.88942 0.45485 0.80657 0.0
H728 H 0.91914 0.43595 0.0544 0.0
C729 C 0.83703 0.47304 0.19796 0.0
C730 C 0.81897 0.49155 0.17919 0.0
C731 C 0.81149 0.4951 0.09397 0.0
C732 C 0.82293 0.48162 0.02872 0.0
C733 C 0.84197 0.46481 0.04941 0.0
C734 C 0.84908 0.46067 0.13233 0.0
C735 C 0.87371 0.44683 0.13819 0.0
C736 C 0.8934 0.46195 0.19047 0.0
C737 C 0.86987 0.42038 0.17436 0.0
C738 C 0.88032 0.44549 0.04586 0.0
C739 C 0.86116 0.45464 0.99538 0.0
C740 C 0.86387 0.45728 0.90868 0.0
C741 C 0.8872 0.45198 0.87354 0.0
C742 C 0.90794 0.4453 0.92562 0.0
C743 C 0.90384 0.44064 1.01203 0.0
H744 H 0.08981 0.21215 0.98039 0.0
H745 H 1.01888 0.24647 0.9106 0.0
H746 H 1.0086 0.20919 0.82195 0.0
H747 H 0.10142 0.17683 0.78825 0.0
H748 H 0.11303 0.14987 0.8444 0.0
H749 H 0.11666 0.18091 0.8898 0.0
H750 H 0.09405 0.16616 0.02422 0.0
H751 H 0.09031 0.13512 0.97929 0.0
H752 H 0.06326 0.15209 0.01468 0.0
H753 H 1.00537 0.16592 0.74425 0.0
H754 H 1.00777 0.12141 0.69774 0.0
H755 H 0.0774 0.11327 0.83867 0.0
C756 C 0.07191 0.21213 0.94749 0.0
C757 C 0.05513 0.23281 0.95461 0.0
C758 C 0.03244 0.23151 0.90653 0.0
C759 C 0.02629 0.21012 0.8562 0.0
C760 C 0.04275 0.18974 0.85478 0.0
C761 C 0.06504 0.1906 0.9 0.0
C762 C 0.07851 0.1655 0.89532 0.0
C763 C 0.10391 0.16846 0.85185 0.0
C764 C 0.08171 0.15405 0.98361 0.0
C765 C 0.06026 0.15009 0.84101 0.0
C766 C 0.04004 0.16458 0.81628 0.0
C767 C 1.02109 0.15453 0.76394 0.0
C768 C 1.02267 0.12917 0.73742 0.0
C769 C 0.04269 0.11365 0.7646 0.0
C770 C 0.06173 0.12447 0.81714 0.0
H771 H 0.35414 0.99944 0.92361 0.0
H772 H 0.34503 0.07448 0.02763 0.0
H773 H 0.38426 0.08794 0.95909 0.0
H774 H 0.41888 0.9958 0.95751 0.0
H775 H 0.42537 0.97864 0.86189 0.0
H776 H 0.39513 0.97574 0.90975 0.0
H777 H 0.37355 0.98929 0.77015 0.0
H778 H 0.40376 0.99208 0.72154 0.0
H779 H 0.38274 1.01844 0.72176 0.0
H780 H 0.42729 0.09181 0.89244 0.0
H781 H 0.4687 0.08666 0.8277 0.0
H782 H 0.45017 1.00894 0.76623 0.0
C783 C 0.36012 1.01886 0.93092 0.0
C784 C 0.34624 0.03591 0.98129 0.0
C785 C 0.3549 0.06112 0.98866 0.0
C786 C 0.37735 0.06888 0.95033 0.0
C787 C 0.39096 0.05133 0.90385 0.0
C788 C 0.38246 0.02689 0.89308 0.0
C789 C 0.40117 1.01132 0.84375 0.0
C790 C 0.4107 0.98907 0.89638 0.0
C791 C 0.38961 1.00225 0.75929 0.0
C792 C 0.42188 0.03061 0.83004 0.0
C793 C 0.41555 0.0536 0.86493 0.0
C794 C 0.4322 0.07397 0.86407 0.0
C795 C 0.45581 0.0708 0.82717 0.0
C796 C 0.46287 0.04743 0.791 0.0
C797 C 0.44538 0.02717 0.79202 0.0
H798 H 0.52601 0.37498 0.0811 0.0
H799 H 0.54282 0.3244 0.87439 0.0
H800 H 0.53913 0.35985 0.77432 0.0
H801 H 0.48062 0.41504 0.96174 0.0
H802 H 0.49116 0.44323 0.01597 0.0
H803 H 0.49238 0.41335 0.06874 0.0
H804 H 0.53974 0.42034 0.0994 0.0
H805 H 0.53879 0.45002 0.0458 0.0
H806 H 0.56053 0.42621 1.01306 0.0
H807 H 0.54012 0.40239 0.70075 0.0
H808 H 0.54014 0.44695 0.65685 0.0
H809 H 0.51991 0.46967 0.90984 0.0
C810 C 0.5281 0.37122 0.01434 0.0
C811 C 0.53442 0.34679 0.98536 0.0
C812 C 0.53748 0.34276 0.89779 0.0
C813 C 0.53564 0.36288 0.84067 0.0
C814 C 0.5303 0.38691 0.87179 0.0
C815 C 0.52598 0.39102 0.95648 0.0
C816 C 0.52147 0.41875 0.97452 0.0
C817 C 0.49482 0.42283 1.00716 0.0
C818 C 0.54131 0.42945 0.03687 0.0
C819 C 0.52451 0.42979 0.8872 0.0
C820 C 0.52978 0.41113 0.82887 0.0
C821 C 0.53542 0.417 0.74559 0.0
C822 C 0.53549 0.44242 0.72126 0.0
C823 C 0.5296 0.46183 0.77937 0.0
C824 C 0.52387 0.45526 0.86335 0.0
H825 H 0.21902 0.5708 0.91832 0.0
H826 H 0.23331 0.4929 0.98048 0.0
H827 H 0.19457 0.48012 0.90365 0.0
H828 H 0.15642 0.56971 0.95555 0.0
H829 H 0.14691 0.59001 0.8706 0.0
H830 H 0.17805 0.59268 0.91486 0.0
H831 H 0.19702 0.58563 0.76707 0.0
H832 H 0.16584 0.58332 0.72211 0.0
H833 H 0.18783 0.55828 0.70572 0.0
H834 H 0.15071 0.47674 0.84246 0.0
H835 H 0.10712 0.48261 0.79233 0.0
H836 H 0.12118 0.56279 0.76953 0.0
C837 C 0.21441 0.55096 0.91345 0.0
C838 C 0.22936 0.53283 0.95518 0.0
C839 C 0.22251 0.50709 0.94787 0.0
C840 C 0.20039 0.49967 0.90479 0.0
C841 C 0.18543 0.51817 0.86818 0.0
C842 C 0.19242 0.54326 0.87059 0.0
C843 C 0.17206 0.55967 0.83268 0.0
C844 C 0.16282 0.57915 0.89729 0.0
C845 C 0.18124 0.57247 0.7521 0.0
C846 C 0.15202 0.54005 0.81235 0.0
C847 C 0.1602 0.51619 0.83233 0.0
C848 C 0.14432 0.49528 0.82503 0.0
C849 C 0.11949 0.49883 0.79688 0.0
C850 C 0.11064 0.52314 0.77643 0.0
C851 C 0.12737 0.5439 0.78339 0.0
H852 H 0.989 0.85837 0.3953 0.0
H853 H 0.05155 0.81889 0.51008 0.0
H854 H 0.06118 0.85667 0.59787 0.0
H855 H 1.02087 0.91629 0.37389 0.0
H856 H 0.99385 0.93544 0.39397 0.0
H857 H 0.98984 0.90443 0.3491 0.0
H858 H 0.96032 0.89213 0.46998 0.0
H859 H 0.96399 0.92318 0.51524 0.0
H860 H 0.9709 0.89589 0.57793 0.0
H861 H 0.06557 0.90075 0.66708 0.0
H862 H 0.06476 0.94553 0.70885 0.0
H863 H 1.00106 0.95714 0.54049 0.0
C864 C 1.00479 0.85742 0.43881 0.0
C865 C 1.0196 0.83525 0.44449 0.0
C866 C 0.03964 0.83519 0.50436 0.0
C867 C 0.04538 0.85677 0.55423 0.0
C868 C 0.03099 0.8785 0.54396 0.0
C869 C 1.01103 0.87886 0.48765 0.0
C870 C 0.99932 0.90489 0.48416 0.0
C871 C 1.00109 0.91591 0.395 0.0
C872 C 0.97201 0.90396 0.5136 0.0
C873 C 1.01594 0.9194 0.54672 0.0
C874 C 0.03393 0.90377 0.5813 0.0
C875 C 0.05153 0.913 0.64009 0.0
C876 C 0.05091 0.93865 0.66342 0.0
C877 C 0.03293 0.95528 0.62801 0.0
C878 C 1.0151 0.9452 0.56912 0.0
H879 H 0.69827 0.03339 0.30758 0.0
H880 H 0.75199 0.03196 0.51524 0.0
H881 H 0.71699 0.0278 0.61569 0.0
H882 H 0.65365 0.07088 0.40645 0.0
H883 H 0.62666 0.05481 0.36147 0.0
H884 H 0.65585 0.05494 0.30606 0.0
H885 H 0.65538 1.00625 0.30071 0.0
H886 H 0.62601 1.00595 0.35536 0.0
H887 H 0.65238 0.98884 0.39718 0.0
H888 H 0.67512 0.02879 0.69462 0.0
H889 H 0.63134 0.03086 0.74314 0.0
H890 H 0.60498 0.03077 0.48295 0.0
C891 C 0.70275 0.03168 0.37413 0.0
C892 C 0.72806 0.03291 0.40331 0.0
C893 C 0.73293 0.03069 0.491 0.0
C894 C 0.71308 0.02854 0.54859 0.0
C895 C 0.68834 0.02833 0.51771 0.0
C896 C 0.6832 0.02942 0.43218 0.0
C897 C 0.65507 0.02974 0.41484 0.0
C898 C 0.64737 0.05404 0.36954 0.0
C899 C 0.64672 1.0063 0.36402 0.0
C900 C 0.64505 0.0291 0.50397 0.0
C901 C 0.66451 0.02835 0.56256 0.0
C902 C 0.65983 0.02898 0.64898 0.0
C903 C 0.6348 0.03024 0.67603 0.0
C904 C 0.61446 0.03071 0.61723 0.0
C905 C 0.6199 0.03004 0.52991 0.0
H906 H 0.53 0.70331 0.32845 0.0
H907 H 0.52877 0.75539 0.54009 0.0
H908 H 0.5351 0.71976 0.63821 0.0
H909 H 0.49511 0.6553 0.42161 0.0
H910 H 0.51236 0.6298 0.37528 0.0
H911 H 0.51054 0.65955 0.32231 0.0
H912 H 0.55901 0.66247 0.31954 0.0
H913 H 0.561 0.63258 0.37182 0.0
H914 H 0.57678 0.65979 0.41665 0.0
H915 H 0.53696 0.67699 0.71375 0.0
H916 H 0.53736 0.63247 0.75816 0.0
H917 H 0.53764 0.60881 0.49561 0.0
C918 C 0.5315 0.70733 0.39543 0.0
C919 C 0.52891 0.73227 0.42648 0.0
C920 C 0.53102 0.7366 0.5146 0.0
C921 C 0.53441 0.71639 0.57081 0.0
C922 C 0.53595 0.69193 0.538 0.0
C923 C 0.53491 0.68746 0.45205 0.0
C924 C 0.536 0.65949 0.4323 0.0
C925 C 0.51208 0.65052 0.3851 0.0
C926 C 0.5596 0.65322 0.38212 0.0
C927 C 0.53743 0.64874 0.52052 0.0
C928 C 0.53738 0.66769 0.58083 0.0
C929 C 0.53738 0.66211 0.66678 0.0
C930 C 0.53755 0.63668 0.69147 0.0
C931 C 0.53781 0.61693 0.63068 0.0
C932 C 0.53782 0.62329 0.54405 0.0
H933 H 0.86815 0.55072 0.3462 0.0
H934 H 0.81875 0.52971 0.54858 0.0
H935 H 0.85445 0.53331 0.65052 0.0
H936 H 0.91856 0.51513 0.41108 0.0
H937 H 0.94244 0.53726 0.38024 0.0
H938 H 0.91248 0.53683 0.3266 0.0
H939 H 0.90658 0.58411 0.36144 0.0
H940 H 0.93671 0.5848 0.41444 0.0
H941 H 0.90916 0.59485 0.46941 0.0
H942 H 0.89726 0.53362 0.72603 0.0
H943 H 0.94195 0.53341 0.76965 0.0
H944 H 0.96291 0.55426 0.51611 0.0
C945 C 0.8647 0.54754 0.41243 0.0
C946 C 0.84065 0.54006 0.43971 0.0
C947 C 0.83691 0.53582 0.52662 0.0
C948 C 0.85714 0.53766 0.58472 0.0
C949 C 0.88089 0.54403 0.55491 0.0
C950 C 0.8846 0.54927 0.47078 0.0
C951 C 0.91207 0.55397 0.45302 0.0
C952 C 0.92196 0.53465 0.38898 0.0
C953 C 0.91638 0.58105 0.42281 0.0
C954 C 0.92347 0.55005 0.53989 0.0
C955 C 0.90524 0.54441 0.59804 0.0
C956 C 0.91157 0.53847 0.6812 0.0
C957 C 0.93707 0.53833 0.70536 0.0
C958 C 0.95606 0.54407 0.64666 0.0
C959 C 0.94895 0.55019 0.56307 0.0
loop_
_geom_bond_atom_site_label_1
_geom_bond_atom_site_label_2
_geom_bond_distance
_geom_bond_site_symmetry_2
_ccdc_geom_bond_type
H0 C1 0.949 . S
C1 H0 0.949 . S
C1 C2 1.395 . S
C1 C3 1.391 . S
C2 C1 1.395 . S
C2 C5 1.390 . S
C3 C1 1.391 . S
C3 C7 1.387 . S
C3 C8 1.491 . S
H4 C5 0.950 . S
C5 C2 1.390 . S
C5 H4 0.950 . S
C5 C6 1.378 . S
C6 C5 1.378 . S
C6 C7 1.409 . S
C7 C3 1.387 . S
C7 C6 1.409 . S
C7 H9 0.951 . S
C8 C3 1.491 . S
C8 C10 1.382 . S
C8 C12 1.404 . S
H9 C7 0.951 . S
C10 C8 1.382 . S
C10 C11 1.390 . S
C10 H15 0.949 . S
C11 C10 1.390 . S
C11 C16 1.399 . S
C12 C8 1.404 . S
C12 H13 0.950 . S
C12 C14 1.375 . S
H13 C12 0.950 . S
C14 C12 1.375 . S
C14 C16 1.382 . S
C14 H18 0.950 . S
H15 C10 0.949 . S
C16 C11 1.399 . S
C16 C14 1.382 . S
C16 H17 0.952 . S
H17 C16 0.952 . S
H18 C14 0.950 . S
H19 C20 0.949 . S
C20 H19 0.949 . S
C20 C21 1.395 . S
C20 C22 1.391 . S
C21 C20 1.395 . S
C21 C24 1.390 . S
C22 C20 1.391 . S
C22 C26 1.387 . S
C22 C27 1.491 . S
H23 C24 0.950 . S
C24 C21 1.390 . S
C24 H23 0.950 . S
C24 C25 1.378 . S
C25 C24 1.378 . S
C25 C26 1.409 . S
C26 C22 1.387 . S
C26 C25 1.409 . S
C26 H28 0.951 . S
C27 C22 1.491 . S
C27 C29 1.382 . S
C27 C31 1.404 . S
H28 C26 0.951 . S
C29 C27 1.382 . S
C29 C30 1.390 . S
C29 H34 0.949 . S
C30 C29 1.390 . S
C30 C35 1.399 . S
C31 C27 1.404 . S
C31 H32 0.950 . S
C31 C33 1.375 . S
H32 C31 0.950 . S
C33 C31 1.375 . S
C33 C35 1.382 . S
C33 H37 0.950 . S
H34 C29 0.949 . S
C35 C30 1.399 . S
C35 C33 1.382 . S
C35 H36 0.952 . S
H36 C35 0.952 . S
H37 C33 0.950 . S
H38 C39 0.949 . S
C39 H38 0.949 . S
C39 C40 1.395 . S
C39 C41 1.391 . S
C40 C39 1.395 . S
C40 C43 1.390 . S
C41 C39 1.391 . S
C41 C45 1.387 . S
C41 C46 1.491 . S
H42 C43 0.950 . S
C43 C40 1.390 . S
C43 H42 0.950 . S
C43 C44 1.378 . S
C44 C43 1.378 . S
C44 C45 1.409 . S
C45 C41 1.387 . S
C45 C44 1.409 . S
C45 H47 0.951 . S
C46 C41 1.491 . S
C46 C48 1.382 . S
C46 C50 1.404 . S
H47 C45 0.951 . S
C48 C46 1.382 . S
C48 C49 1.390 . S
C48 H53 0.949 . S
C49 C48 1.390 . S
C49 C54 1.399 . S
C50 C46 1.404 . S
C50 H51 0.950 . S
C50 C52 1.375 . S
H51 C50 0.950 . S
C52 C50 1.375 . S
C52 C54 1.382 . S
C52 H56 0.950 . S
H53 C48 0.949 . S
C54 C49 1.399 . S
C54 C52 1.382 . S
C54 H55 0.952 . S
H55 C54 0.952 . S
H56 C52 0.950 . S
H57 C58 0.949 . S
C58 H57 0.949 . S
C58 C59 1.395 . S
C58 C60 1.391 . S
C59 C58 1.395 . S
C59 C62 1.390 . S
C60 C58 1.391 . S
C60 C64 1.387 . S
C60 C65 1.491 . S
H61 C62 0.950 . S
C62 C59 1.390 . S
C62 H61 0.950 . S
C62 C63 1.378 . S
C63 C62 1.378 . S
C63 C64 1.409 . S
C64 C60 1.387 . S
C64 C63 1.409 . S
C64 H66 0.951 . S
C65 C60 1.491 . S
C65 C67 1.382 . S
C65 C69 1.404 . S
H66 C64 0.951 . S
C67 C65 1.382 . S
C67 C68 1.390 . S
C67 H72 0.949 . S
C68 C67 1.390 . S
C68 C73 1.399 . S
C69 C65 1.404 . S
C69 H70 0.950 . S
C69 C71 1.375 . S
H70 C69 0.950 . S
C71 C69 1.375 . S
C71 C73 1.382 . S
C71 H75 0.950 . S
H72 C67 0.949 . S
C73 C68 1.399 . S
C73 C71 1.382 . S
C73 H74 0.952 . S
H74 C73 0.952 . S
H75 C71 0.950 . S
H76 C77 0.949 . S
C77 H76 0.949 . S
C77 C78 1.395 . S
C77 C79 1.391 . S
C78 C77 1.395 . S
C78 C81 1.390 . S
C79 C77 1.391 . S
C79 C83 1.387 1_554 S
C79 C84 1.491 . S
H80 C81 0.950 . S
C81 C78 1.390 . S
C81 H80 0.950 . S
C81 C82 1.378 1_554 S
C82 C81 1.378 1_556 S
C82 C83 1.409 . S
C83 C79 1.387 1_556 S
C83 C82 1.409 . S
C83 H85 0.951 . S
C84 C79 1.491 . S
C84 C86 1.382 . S
C84 C88 1.404 . S
H85 C83 0.951 . S
C86 C84 1.382 . S
C86 C87 1.390 . S
C86 H91 0.949 . S
C87 C86 1.390 . S
C87 C92 1.399 . S
C88 C84 1.404 . S
C88 H89 0.950 1_554 S
C88 C90 1.375 . S
H89 C88 0.950 1_556 S
C90 C88 1.375 . S
C90 C92 1.382 . S
C90 H94 0.950 1_554 S
H91 C86 0.949 . S
C92 C87 1.399 . S
C92 C90 1.382 . S
C92 H93 0.952 . S
H93 C92 0.952 . S
H94 C90 0.950 1_556 S
H95 C96 0.949 . S
C96 H95 0.949 . S
C96 C97 1.395 . S
C96 C98 1.391 . S
C97 C96 1.395 . S
C97 C100 1.390 . S
C98 C96 1.391 . S
C98 C102 1.387 1_554 S
C98 C103 1.491 . S
H99 C100 0.950 . S
C100 C97 1.390 . S
C100 H99 0.950 . S
C100 C101 1.378 1_554 S
C101 C100 1.378 1_556 S
C101 C102 1.409 . S
C102 C98 1.387 1_556 S
C102 C101 1.409 . S
C102 H104 0.951 . S
C103 C98 1.491 . S
C103 C105 1.382 . S
C103 C107 1.404 1_554 S
H104 C102 0.951 . S
C105 C103 1.382 . S
C105 C106 1.390 . S
C105 H110 0.949 . S
C106 C105 1.390 . S
C106 C111 1.399 . S
C107 C103 1.404 1_556 S
C107 H108 0.950 . S
C107 C109 1.375 . S
H108 C107 0.950 . S
C109 C107 1.375 . S
C109 C111 1.382 1_556 S
C109 H113 0.950 . S
H110 C105 0.949 . S
C111 C106 1.399 . S
C111 C109 1.382 1_554 S
C111 H112 0.952 . S
H112 C111 0.952 . S
H113 C109 0.950 . S
H114 C115 0.949 . S
C115 H114 0.949 . S
C115 C116 1.395 . S
C115 C117 1.391 1_554 S
C116 C115 1.395 . S
C116 C119 1.390 1_554 S
C117 C115 1.391 1_556 S
C117 C121 1.387 . S
C117 C122 1.491 . S
H118 C119 0.950 . S
C119 C116 1.390 1_556 S
C119 H118 0.950 . S
C119 C120 1.378 . S
C120 C119 1.378 . S
C120 C121 1.409 . S
C121 C117 1.387 . S
C121 C120 1.409 . S
C121 H123 0.951 . S
C122 C117 1.491 . S
C122 C124 1.382 1_556 S
C122 C126 1.404 . S
H123 C121 0.951 . S
C124 C122 1.382 1_554 S
C124 C125 1.390 . S
C124 H129 0.949 . S
C125 C124 1.390 . S
C125 C130 1.399 1_554 S
C126 C122 1.404 . S
C126 H127 0.950 . S
C126 C128 1.375 . S
H127 C126 0.950 . S
C128 C126 1.375 . S
C128 C130 1.382 . S
C128 H132 0.950 1_545 S
H129 C124 0.949 . S
C130 C125 1.399 1_556 S
C130 C128 1.382 . S
C130 H131 0.952 . S
H131 C130 0.952 . S
H132 C128 0.950 1_565 S
H133 C134 0.949 . S
C134 H133 0.949 . S
C134 C135 1.395 . S
C134 C136 1.391 . S
C135 C134 1.395 . S
C135 C138 1.390 . S
C136 C134 1.391 . S
C136 C140 1.387 1_554 S
C136 C141 1.491 . S
H137 C138 0.950 . S
C138 C135 1.390 . S
C138 H137 0.950 . S
C138 C139 1.378 1_554 S
C139 C138 1.378 1_556 S
C139 C140 1.409 . S
C140 C136 1.387 1_556 S
C140 C139 1.409 . S
C140 H142 0.951 . S
C141 C136 1.491 . S
C141 C143 1.382 . S
C141 C145 1.404 . S
H142 C140 0.951 . S
C143 C141 1.382 . S
C143 C144 1.390 . S
C143 H148 0.949 . S
C144 C143 1.390 . S
C144 C149 1.399 . S
C145 C141 1.404 . S
C145 H146 0.950 1_554 S
C145 C147 1.375 . S
H146 C145 0.950 1_556 S
C147 C145 1.375 . S
C147 C149 1.382 . S
C147 H151 0.950 1_554 S
H148 C143 0.949 . S
C149 C144 1.399 . S
C149 C147 1.382 . S
C149 H150 0.952 . S
H150 C149 0.952 . S
H151 C147 0.950 1_556 S
Eu152 C161 2.828 . S
Eu152 O163 2.392 . S
Eu152 O165 2.418 1_545 S
Eu152 O170 2.373 1_655 S
Eu152 O173 2.488 . S
Eu152 O174 2.471 1_655 S
Eu152 O175 2.349 1_655 S
Eu153 O162 2.375 1_455 S
Eu153 O166 2.488 . S
Eu153 O167 2.471 . S
Eu153 O168 2.349 . S
Eu153 O171 2.392 1_565 S
Eu153 O172 2.418 1_565 S
Eu153 C182 2.828 . S
C154 O172 1.244 . S
C154 O175 1.265 . S
C155 C156 1.379 . S
C155 C159 1.373 1_455 S
C155 C161 1.505 1_455 S
C156 C155 1.379 . S
C156 C158 1.369 . S
C156 H184 0.930 . S
C157 C159 1.383 . S
C157 C160 1.382 1_655 S
C157 H185 0.930 . S
C158 C156 1.369 . S
C158 C160 1.392 . S
C158 H186 0.930 . S
C159 C155 1.373 1_655 S
C159 C157 1.383 . S
C159 H187 0.931 . S
C160 C157 1.382 1_455 S
C160 C158 1.392 . S
C161 Eu152 2.828 . S
C161 C155 1.505 1_655 S
C161 O173 1.249 . S
C161 O174 1.244 1_655 S
O162 Eu153 2.375 1_655 S
O162 C164 1.255 1_565 S
O163 Eu152 2.392 . S
O163 C164 1.242 . S
C164 O162 1.255 1_545 S
C164 O163 1.242 . S
O165 Eu152 2.418 1_565 S
O165 C169 1.244 . S
O166 Eu153 2.488 . S
O166 C182 1.249 . S
O167 Eu153 2.471 . S
O167 C182 1.244 . S
O168 Eu153 2.349 . S
O168 C169 1.265 1_455 S
C169 O165 1.244 . S
C169 O168 1.265 1_655 S
O170 Eu152 2.373 1_455 S
O170 C183 1.258 . S
O171 Eu153 2.392 1_545 S
O171 C183 1.242 . S
O172 Eu153 2.418 1_545 S
O172 C154 1.244 . S
O173 Eu152 2.488 . S
O173 C161 1.249 . S
O174 Eu152 2.471 1_455 S
O174 C161 1.244 1_455 S
O175 Eu152 2.349 1_455 S
O175 C154 1.265 . S
C176 C177 1.379 . S
C176 C180 1.373 1_556 S
C176 C182 1.505 . S
C177 C176 1.379 . S
C177 C179 1.369 1_456 S
C177 H188 0.930 1_455 S
C178 C180 1.383 . S
C178 C181 1.382 . S
C178 H189 0.930 . S
C179 C177 1.369 1_654 S
C179 C181 1.392 1_655 S
C179 H190 0.928 1_554 S
C180 C176 1.373 1_554 S
C180 C178 1.383 . S
C180 H191 0.931 . S
C181 C178 1.382 . S
C181 C179 1.392 1_455 S
C182 Eu153 2.828 . S
C182 O166 1.249 . S
C182 O167 1.244 . S
C182 C176 1.505 . S
C183 O170 1.258 . S
C183 O171 1.242 . S
H184 C156 0.930 . S
H185 C157 0.930 . S
H186 C158 0.930 . S
H187 C159 0.931 . S
H188 C177 0.930 1_655 S
H189 C178 0.930 . S
H190 C179 0.928 1_556 S
H191 C180 0.931 . S
Eu192 C201 2.828 . S
Eu192 O203 2.392 . S
Eu192 O205 2.418 . S
Eu192 O210 2.373 . S
Eu192 O213 2.488 . S
Eu192 O214 2.471 . S
Eu192 O215 2.349 1_545 S
Eu193 O202 2.373 1_565 S
Eu193 O206 2.488 . S
Eu193 O207 2.471 1_565 S
Eu193 O208 2.349 1_565 S
Eu193 O211 2.392 . S
Eu193 O212 2.418 . S
Eu193 C222 2.828 . S
C194 O212 1.244 . S
C194 O215 1.265 . S
C195 C196 1.379 . S
C195 C199 1.373 . S
C195 C201 1.505 . S
C196 C195 1.379 . S
C196 C198 1.369 . S
C196 H224 0.930 1_545 S
C197 C199 1.383 . S
C197 C200 1.382 . S
C197 H225 0.930 . S
C198 C196 1.369 . S
C198 C200 1.392 . S
C198 H226 0.930 1_545 S
C199 C195 1.373 . S
C199 C197 1.383 . S
C199 H227 0.931 . S
C200 C197 1.382 . S
C200 C198 1.392 . S
C201 Eu192 2.828 . S
C201 C195 1.505 . S
C201 O213 1.249 . S
C201 O214 1.244 . S
O202 Eu193 2.373 1_545 S
O202 C204 1.258 . S
O203 Eu192 2.392 . S
O203 C204 1.242 . S
C204 O202 1.258 . S
C204 O203 1.242 . S
O205 Eu192 2.418 . S
O205 C209 1.244 . S
O206 Eu193 2.488 . S
O206 C222 1.249 . S
O207 Eu193 2.471 1_545 S
O207 C222 1.244 1_545 S
O208 Eu193 2.349 1_545 S
O208 C209 1.265 . S
C209 O205 1.244 . S
C209 O208 1.265 . S
O210 Eu192 2.373 . S
O210 C223 1.258 1_545 S
O211 Eu193 2.392 . S
O211 C223 1.242 . S
O212 Eu193 2.418 . S
O212 C194 1.244 . S
O213 Eu192 2.488 . S
O213 C201 1.249 . S
O214 Eu192 2.471 . S
O214 C201 1.244 . S
O215 Eu192 2.349 1_565 S
O215 C194 1.265 . S
C216 C217 1.379 1_565 S
C216 C220 1.373 . S
C216 C222 1.505 . S
C217 C216 1.379 1_545 S
C217 C219 1.369 . S
C217 H228 0.930 . S
C218 C220 1.383 . S
C218 C221 1.382 . S
C218 H229 0.930 . S
C219 C217 1.369 . S
C219 C221 1.392 1_545 S
C219 H230 0.930 . S
C220 C216 1.373 . S
C220 C218 1.383 . S
C220 H231 0.931 . S
C221 C218 1.382 . S
C221 C219 1.392 1_565 S
C222 Eu193 2.828 . S
C222 O206 1.249 . S
C222 O207 1.244 1_565 S
C222 C216 1.505 . S
C223 O210 1.258 1_565 S
C223 O211 1.242 . S
H224 C196 0.930 1_565 S
H225 C197 0.930 . S
H226 C198 0.930 1_565 S
H227 C199 0.931 . S
H228 C217 0.930 . S
H229 C218 0.930 . S
H230 C219 0.930 . S
H231 C220 0.931 . S
Eu232 C241 2.828 . S
Eu232 O243 2.392 . S
Eu232 O245 2.418 . S
Eu232 O250 2.373 . S
Eu232 O253 2.488 . S
Eu232 O254 2.471 . S
Eu232 O255 2.349 . S
Eu233 O242 2.373 . S
Eu233 O246 2.488 . S
Eu233 O247 2.471 . S
Eu233 O248 2.349 . S
Eu233 O251 2.392 . S
Eu233 O252 2.418 . S
Eu233 C262 2.828 . S
C234 O252 1.244 . S
C234 O255 1.265 . S
C235 C236 1.379 . S
C235 C239 1.373 . S
C235 C241 1.505 . S
C236 C235 1.379 . S
C236 C238 1.369 . S
C236 H264 0.930 . S
C237 C239 1.383 . S
C237 C240 1.382 . S
C237 H265 0.930 . S
C238 C236 1.369 . S
C238 C240 1.392 . S
C238 H266 0.930 . S
C239 C235 1.373 . S
C239 C237 1.383 . S
C239 H267 0.931 . S
C240 C237 1.382 . S
C240 C238 1.392 . S
C241 Eu232 2.828 . S
C241 C235 1.505 . S
C241 O253 1.249 . S
C241 O254 1.244 . S
O242 Eu233 2.373 . S
O242 C244 1.258 . S
O243 Eu232 2.392 . S
O243 C244 1.242 . S
C244 O242 1.258 . S
C244 O243 1.242 . S
O245 Eu232 2.418 . S
O245 C249 1.244 . S
O246 Eu233 2.488 . S
O246 C262 1.249 . S
O247 Eu233 2.471 . S
O247 C262 1.244 . S
O248 Eu233 2.349 . S
O248 C249 1.265 . S
C249 O245 1.244 . S
C249 O248 1.265 . S
O250 Eu232 2.373 . S
O250 C263 1.258 . S
O251 Eu233 2.392 . S
O251 C263 1.242 . S
O252 Eu233 2.418 . S
O252 C234 1.244 . S
O253 Eu232 2.488 . S
O253 C241 1.249 . S
O254 Eu232 2.471 . S
O254 C241 1.244 . S
O255 Eu232 2.349 . S
O255 C234 1.265 . S
C256 C257 1.379 . S
C256 C260 1.373 . S
C256 C262 1.505 . S
C257 C256 1.379 . S
C257 C259 1.369 . S
C257 H268 0.930 . S
C258 C260 1.383 . S
C258 C261 1.382 . S
C258 H269 0.930 . S
C259 C257 1.369 . S
C259 C261 1.392 . S
C259 H270 0.930 . S
C260 C256 1.373 . S
C260 C258 1.383 . S
C260 H271 0.931 . S
C261 C258 1.382 . S
C261 C259 1.392 . S
C262 Eu233 2.828 . S
C262 O246 1.249 . S
C262 O247 1.244 . S
C262 C256 1.505 . S
C263 O250 1.258 . S
C263 O251 1.242 . S
H264 C236 0.930 . S
H265 C237 0.930 . S
H266 C238 0.930 . S
H267 C239 0.931 . S
H268 C257 0.930 . S
H269 C258 0.930 . S
H270 C259 0.930 . S
H271 C260 0.931 . S
Eu272 C281 2.828 . S
Eu272 O283 2.392 . S
Eu272 O285 2.418 1_455 S
Eu272 O290 2.373 . S
Eu272 O293 2.488 . S
Eu272 O294 2.471 . S
Eu272 O295 2.349 . S
Eu273 O282 2.373 . S
Eu273 O286 2.488 . S
Eu273 O287 2.471 . S
Eu273 O288 2.349 . S
Eu273 O291 2.392 1_655 S
Eu273 O292 2.418 1_655 S
Eu273 C302 2.828 . S
C274 O292 1.244 . S
C274 O295 1.265 . S
C275 C276 1.379 . S
C275 C279 1.373 . S
C275 C281 1.505 . S
C276 C275 1.379 . S
C276 C278 1.369 . S
C276 H304 0.930 . S
C277 C279 1.383 . S
C277 C280 1.382 . S
C277 H305 0.930 . S
C278 C276 1.369 . S
C278 C280 1.392 . S
C278 H306 0.930 . S
C279 C275 1.373 . S
C279 C277 1.383 . S
C279 H307 0.931 . S
C280 C277 1.382 . S
C280 C278 1.392 . S
C281 Eu272 2.828 . S
C281 C275 1.505 . S
C281 O293 1.249 . S
C281 O294 1.244 . S
O282 Eu273 2.373 . S
O282 C284 1.258 1_655 S
O283 Eu272 2.392 . S
O283 C284 1.242 . S
C284 O282 1.258 1_455 S
C284 O283 1.242 . S
O285 Eu272 2.418 1_655 S
O285 C289 1.244 . S
O286 Eu273 2.488 . S
O286 C302 1.249 . S
O287 Eu273 2.471 . S
O287 C302 1.244 . S
O288 Eu273 2.349 . S
O288 C289 1.265 . S
C289 O285 1.244 . S
C289 O288 1.265 . S
O290 Eu272 2.373 . S
O290 C303 1.258 . S
O291 Eu273 2.392 1_455 S
O291 C303 1.242 . S
O292 Eu273 2.418 1_455 S
O292 C274 1.244 . S
O293 Eu272 2.488 . S
O293 C281 1.249 . S
O294 Eu272 2.471 . S
O294 C281 1.244 . S
O295 Eu272 2.349 . S
O295 C274 1.265 . S
C296 C297 1.379 . S
C296 C300 1.373 1_556 S
C296 C302 1.505 . S
C297 C296 1.379 . S
C297 C299 1.369 . S
C297 H308 0.930 . S
C298 C300 1.383 . S
C298 C301 1.382 . S
C298 H309 0.930 . S
C299 C297 1.369 . S
C299 C301 1.392 1_556 S
C299 H310 0.930 . S
C300 C296 1.373 1_554 S
C300 C298 1.383 . S
C300 H311 0.931 . S
C301 C298 1.382 . S
C301 C299 1.392 1_554 S
C302 Eu273 2.828 . S
C302 O286 1.249 . S
C302 O287 1.244 . S
C302 C296 1.505 . S
C303 O290 1.258 . S
C303 O291 1.242 . S
H304 C276 0.930 . S
H305 C277 0.930 . S
H306 C278 0.930 . S
H307 C279 0.931 . S
H308 C297 0.930 . S
H309 C298 0.930 . S
H310 C299 0.930 . S
H311 C300 0.931 . S
H312 C324 0.930 . S
H313 C326 0.930 . S
H314 C327 0.930 1_565 S
H315 C331 0.959 . S
H316 C331 0.959 . S
H317 C331 0.961 . S
H318 C332 0.960 . S
H319 C332 0.961 . S
H320 C332 0.959 . S
H321 C335 0.929 . S
H322 C336 0.956 . S
H323 C338 0.930 . S
C324 H312 0.930 . S
C324 C325 1.399 . S
C324 C329 1.399 . S
C325 C324 1.399 . S
C325 C326 1.376 . S
C326 H313 0.930 . S
C326 C325 1.376 . S
C326 C327 1.388 . S
C327 H314 0.930 1_545 S
C327 C326 1.388 . S
C327 C328 1.390 . S
C328 C327 1.390 . S
C328 C329 1.394 . S
C328 C334 1.465 . S
C329 C324 1.399 . S
C329 C328 1.394 . S
C329 C330 1.516 . S
C330 C329 1.516 . S
C330 C331 1.502 . S
C330 C332 1.561 . S
C330 C333 1.526 . S
C331 H315 0.959 . S
C331 H316 0.959 . S
C331 H317 0.961 . S
C331 C330 1.502 . S
C332 H318 0.960 . S
C332 H319 0.961 . S
C332 H320 0.959 . S
C332 C330 1.561 . S
C333 C330 1.526 . S
C333 C334 1.396 . S
C333 C338 1.390 . S
C334 C328 1.465 . S
C334 C333 1.396 . S
C334 C335 1.399 1_545 S
C335 H321 0.929 . S
C335 C334 1.399 1_565 S
C335 C336 1.389 . S
C336 H322 0.956 . S
C336 C335 1.389 . S
C336 C337 1.361 1_565 S
C337 C336 1.361 1_545 S
C337 C338 1.387 . S
C338 H323 0.930 . S
C338 C333 1.390 . S
C338 C337 1.387 . S
H339 C351 0.930 . S
H340 C353 0.930 . S
H341 C354 0.930 . S
H342 C358 0.959 . S
H343 C358 0.959 . S
H344 C358 0.961 . S
H345 C359 0.960 . S
H346 C359 0.961 . S
H347 C359 0.959 . S
H348 C362 0.929 . S
H349 C363 0.931 . S
H350 C365 0.930 . S
C351 H339 0.930 . S
C351 C352 1.399 . S
C351 C356 1.399 . S
C352 C351 1.399 . S
C352 C353 1.376 . S
C353 H340 0.930 . S
C353 C352 1.376 . S
C353 C354 1.388 . S
C354 H341 0.930 . S
C354 C353 1.388 . S
C354 C355 1.390 . S
C355 C354 1.390 . S
C355 C356 1.394 . S
C355 C361 1.465 . S
C356 C351 1.399 . S
C356 C355 1.394 . S
C356 C357 1.516 . S
C357 C356 1.516 . S
C357 C358 1.502 . S
C357 C359 1.561 . S
C357 C360 1.526 . S
C358 H342 0.959 . S
C358 H343 0.959 . S
C358 H344 0.961 . S
C358 C357 1.502 . S
C359 H345 0.960 . S
C359 H346 0.961 . S
C359 H347 0.959 . S
C359 C357 1.561 . S
C360 C357 1.526 . S
C360 C361 1.396 . S
C360 C365 1.390 . S
C361 C355 1.465 . S
C361 C360 1.396 . S
C361 C362 1.399 . S
C362 H348 0.929 . S
C362 C361 1.399 . S
C362 C363 1.385 . S
C363 H349 0.931 . S
C363 C362 1.385 . S
C363 C364 1.389 . S
C364 C363 1.389 . S
C364 C365 1.387 . S
C365 H350 0.930 . S
C365 C360 1.390 . S
C365 C364 1.387 . S
H366 C378 0.930 . S
H367 C380 0.930 . S
H368 C381 0.930 . S
H369 C385 0.959 . S
H370 C385 0.959 . S
H371 C385 0.961 . S
H372 C386 0.960 . S
H373 C386 0.961 . S
H374 C386 0.959 . S
H375 C389 0.929 . S
H376 C390 0.931 . S
H377 C392 0.930 . S
C378 H366 0.930 . S
C378 C379 1.399 . S
C378 C383 1.399 . S
C379 C378 1.399 . S
C379 C380 1.376 . S
C380 H367 0.930 . S
C380 C379 1.376 . S
C380 C381 1.388 . S
C381 H368 0.930 . S
C381 C380 1.388 . S
C381 C382 1.390 . S
C382 C381 1.390 . S
C382 C383 1.394 . S
C382 C388 1.465 . S
C383 C378 1.399 . S
C383 C382 1.394 . S
C383 C384 1.516 . S
C384 C383 1.516 . S
C384 C385 1.502 . S
C384 C386 1.561 . S
C384 C387 1.526 . S
C385 H369 0.959 . S
C385 H370 0.959 . S
C385 H371 0.961 . S
C385 C384 1.502 . S
C386 H372 0.960 . S
C386 H373 0.961 . S
C386 H374 0.959 . S
C386 C384 1.561 . S
C387 C384 1.526 . S
C387 C388 1.396 . S
C387 C392 1.390 . S
C388 C382 1.465 . S
C388 C387 1.396 . S
C388 C389 1.399 . S
C389 H375 0.929 . S
C389 C388 1.399 . S
C389 C390 1.385 . S
C390 H376 0.931 . S
C390 C389 1.385 . S
C390 C391 1.389 . S
C391 C390 1.389 . S
C391 C392 1.387 . S
C392 H377 0.930 . S
C392 C387 1.390 . S
C392 C391 1.387 . S
H393 C405 0.930 . S
H394 C407 0.930 . S
H395 C408 0.930 . S
H396 C412 0.953 1_655 S
H397 C412 0.955 1_655 S
H398 C412 0.960 1_655 S
H399 C413 0.960 . S
H400 C413 0.961 . S
H401 C413 0.959 . S
H402 C416 0.929 . S
H403 C417 0.931 . S
H404 C419 0.930 . S
C405 H393 0.930 . S
C405 C406 1.399 . S
C405 C410 1.399 . S
C406 C405 1.399 . S
C406 C407 1.376 . S
C407 H394 0.930 . S
C407 C406 1.376 . S
C407 C408 1.388 . S
C408 H395 0.930 . S
C408 C407 1.388 . S
C408 C409 1.390 . S
C409 C408 1.390 . S
C409 C410 1.394 . S
C409 C415 1.465 . S
C410 C405 1.399 . S
C410 C409 1.394 . S
C410 C411 1.516 . S
C411 C410 1.516 . S
C411 C412 1.513 . S
C411 C413 1.561 . S
C411 C414 1.526 . S
C412 H396 0.953 1_455 S
C412 H397 0.955 1_455 S
C412 H398 0.960 1_455 S
C412 C411 1.513 . S
C413 H399 0.960 . S
C413 H400 0.961 . S
C413 H401 0.959 . S
C413 C411 1.561 . S
C414 C411 1.526 . S
C414 C415 1.396 . S
C414 C419 1.390 . S
C415 C409 1.465 . S
C415 C414 1.396 . S
C415 C416 1.399 . S
C416 H402 0.929 . S
C416 C415 1.399 . S
C416 C417 1.385 . S
C417 H403 0.931 . S
C417 C416 1.385 . S
C417 C418 1.389 . S
C418 C417 1.389 . S
C418 C419 1.387 . S
C419 H404 0.930 . S
C419 C414 1.390 . S
C419 C418 1.387 . S
H420 C432 0.930 . S
H421 C434 0.930 . S
H422 C435 0.930 . S
H423 C439 0.959 . S
H424 C439 0.959 . S
H425 C439 0.961 . S
H426 C440 0.960 1_554 S
H427 C440 0.961 . S
H428 C440 0.959 . S
H429 C443 0.929 . S
H430 C444 0.931 . S
H431 C446 0.930 . S
C432 H420 0.930 . S
C432 C433 1.399 . S
C432 C437 1.399 . S
C433 C432 1.399 . S
C433 C434 1.376 1_565 S
C434 H421 0.930 . S
C434 C433 1.376 1_545 S
C434 C435 1.388 . S
C435 H422 0.930 . S
C435 C434 1.388 . S
C435 C436 1.390 . S
C436 C435 1.390 . S
C436 C437 1.394 1_545 S
C436 C442 1.465 . S
C437 C432 1.399 . S
C437 C436 1.394 1_565 S
C437 C438 1.516 . S
C438 C437 1.516 . S
C438 C439 1.502 . S
C438 C440 1.561 1_554 S
C438 C441 1.526 1_554 S
C439 H423 0.959 . S
C439 H424 0.959 . S
C439 H425 0.961 . S
C439 C438 1.502 . S
C440 H426 0.960 1_556 S
C440 H427 0.961 . S
C440 H428 0.959 . S
C440 C438 1.561 1_556 S
C441 C438 1.526 1_556 S
C441 C442 1.396 1_566 S
C441 C446 1.390 . S
C442 C436 1.465 . S
C442 C441 1.396 1_544 S
C442 C443 1.399 1_554 S
C443 H429 0.929 . S
C443 C442 1.399 1_556 S
C443 C444 1.385 . S
C444 H430 0.931 . S
C444 C443 1.385 . S
C444 C445 1.389 . S
C445 C444 1.389 . S
C445 C446 1.387 1_545 S
C446 H431 0.930 . S
C446 C441 1.390 . S
C446 C445 1.387 1_565 S
H447 C459 0.930 . S
H448 C461 0.930 . S
H449 C462 0.930 1_556 S
H450 C466 0.959 . S
H451 C466 0.959 . S
H452 C466 0.961 . S
H453 C467 0.960 . S
H454 C467 0.961 . S
H455 C467 0.959 . S
H456 C470 0.929 . S
H457 C471 0.931 . S
H458 C473 0.930 . S
C459 H447 0.930 . S
C459 C460 1.399 . S
C459 C464 1.399 . S
C460 C459 1.399 . S
C460 C461 1.376 . S
C461 H448 0.930 . S
C461 C460 1.376 . S
C461 C462 1.388 . S
C462 H449 0.930 1_554 S
C462 C461 1.388 . S
C462 C463 1.390 . S
C463 C462 1.390 . S
C463 C464 1.394 . S
C463 C469 1.465 1_554 S
C464 C459 1.399 . S
C464 C463 1.394 . S
C464 C465 1.516 . S
C465 C464 1.516 . S
C465 C466 1.502 . S
C465 C467 1.561 . S
C465 C468 1.526 1_554 S
C466 H450 0.959 . S
C466 H451 0.959 . S
C466 H452 0.961 . S
C466 C465 1.502 . S
C467 H453 0.960 . S
C467 H454 0.961 . S
C467 H455 0.959 . S
C467 C465 1.561 . S
C468 C465 1.526 1_556 S
C468 C469 1.396 . S
C468 C473 1.390 . S
C469 C463 1.465 1_556 S
C469 C468 1.396 . S
C469 C470 1.399 . S
C470 H456 0.929 . S
C470 C469 1.399 . S
C470 C471 1.385 . S
C471 H457 0.931 . S
C471 C470 1.385 . S
C471 C472 1.389 . S
C472 C471 1.389 . S
C472 C473 1.387 . S
C473 H458 0.930 . S
C473 C468 1.390 . S
C473 C472 1.387 . S
H474 C486 0.930 . S
H475 C488 0.930 . S
H476 C489 0.930 . S
H477 C493 0.959 . S
H478 C493 0.959 . S
H479 C493 0.961 . S
H480 C494 0.960 . S
H481 C494 0.961 . S
H482 C494 0.959 . S
H483 C497 0.929 . S
H484 C498 0.931 . S
H485 C500 0.930 . S
C486 H474 0.930 . S
C486 C487 1.399 . S
C486 C491 1.399 . S
C487 C486 1.399 . S
C487 C488 1.376 . S
C488 H475 0.930 . S
C488 C487 1.376 . S
C488 C489 1.388 1_554 S
C489 H476 0.930 . S
C489 C488 1.388 1_556 S
C489 C490 1.391 . S
C490 C489 1.391 . S
C490 C491 1.382 1_556 S
C490 C496 1.474 . S
C491 C486 1.399 . S
C491 C490 1.382 1_554 S
C491 C492 1.516 . S
C492 C491 1.516 . S
C492 C493 1.502 . S
C492 C494 1.561 . S
C492 C495 1.526 1_554 S
C493 H477 0.959 . S
C493 H478 0.959 . S
C493 H479 0.961 . S
C493 C492 1.502 . S
C494 H480 0.960 . S
C494 H481 0.961 . S
C494 H482 0.959 . S
C494 C492 1.561 . S
C495 C492 1.526 1_556 S
C495 C496 1.396 . S
C495 C500 1.390 . S
C496 C490 1.474 . S
C496 C495 1.396 . S
C496 C497 1.399 . S
C497 H483 0.929 . S
C497 C496 1.399 . S
C497 C498 1.385 . S
C498 H484 0.931 . S
C498 C497 1.385 . S
C498 C499 1.389 . S
C499 C498 1.389 . S
C499 C500 1.387 . S
C500 H485 0.930 . S
C500 C495 1.390 . S
C500 C499 1.387 . S
H501 C513 0.930 . S
H502 C515 0.930 . S
H503 C516 0.930 . S
H504 C520 0.959 . S
H505 C520 0.959 1_455 S
H506 C520 0.961 . S
H507 C521 0.960 . S
H508 C521 0.961 1_556 S
H509 C521 0.959 . S
H510 C524 0.929 . S
H511 C525 0.931 . S
H512 C527 0.959 . S
C513 H501 0.930 . S
C513 C514 1.399 . S
C513 C518 1.399 . S
C514 C513 1.399 . S
C514 C515 1.376 . S
C515 H502 0.930 . S
C515 C514 1.376 . S
C515 C516 1.388 . S
C516 H503 0.930 . S
C516 C515 1.388 . S
C516 C517 1.390 . S
C517 C516 1.390 . S
C517 C518 1.394 . S
C517 C523 1.465 . S
C518 C513 1.399 . S
C518 C517 1.394 . S
C518 C519 1.516 1_654 S
C519 C518 1.516 1_456 S
C519 C520 1.502 1_455 S
C519 C521 1.561 1_556 S
C519 C522 1.526 1_455 S
C520 H504 0.959 . S
C520 H505 0.959 1_655 S
C520 H506 0.961 . S
C520 C519 1.502 1_655 S
C521 H507 0.960 . S
C521 H508 0.961 1_554 S
C521 H509 0.959 . S
C521 C519 1.561 1_554 S
C522 C519 1.526 1_655 S
C522 C523 1.396 1_556 S
C522 C527 1.376 1_655 S
C523 C517 1.465 . S
C523 C522 1.396 1_554 S
C523 C524 1.399 . S
C524 H510 0.929 . S
C524 C523 1.399 . S
C524 C525 1.385 1_554 S
C525 H511 0.931 . S
C525 C524 1.385 1_556 S
C525 C526 1.389 . S
C526 C525 1.389 . S
C526 C527 1.373 1_655 S
C527 H512 0.959 . S
C527 C522 1.376 1_455 S
C527 C526 1.373 1_455 S
H528 C540 0.930 . S
H529 C542 0.930 . S
H530 C543 0.930 . S
H531 C547 0.959 1_455 S
H532 C547 0.959 . S
H533 C547 0.961 . S
H534 C548 0.960 . S
H535 C548 0.961 . S
H536 C548 0.959 . S
H537 C551 0.929 . S
H538 C552 0.931 . S
H539 C554 0.930 1_655 S
C540 H528 0.930 . S
C540 C541 1.399 . S
C540 C545 1.399 . S
C541 C540 1.399 . S
C541 C542 1.376 . S
C542 H529 0.930 . S
C542 C541 1.376 . S
C542 C543 1.388 . S
C543 H530 0.930 . S
C543 C542 1.388 . S
C543 C544 1.390 . S
C544 C543 1.390 . S
C544 C545 1.394 . S
C544 C550 1.465 . S
C545 C540 1.399 . S
C545 C544 1.394 . S
C545 C546 1.516 . S
C546 C545 1.516 . S
C546 C547 1.502 1_455 S
C546 C548 1.561 1_455 S
C546 C549 1.526 . S
C547 H531 0.959 1_655 S
C547 H532 0.959 . S
C547 H533 0.961 . S
C547 C546 1.502 1_655 S
C548 H534 0.960 . S
C548 H535 0.961 . S
C548 H536 0.959 . S
C548 C546 1.561 1_655 S
C549 C546 1.526 . S
C549 C550 1.396 . S
C549 C554 1.390 . S
C550 C544 1.465 . S
C550 C549 1.396 . S
C550 C551 1.399 . S
C551 H537 0.929 . S
C551 C550 1.399 . S
C551 C552 1.385 . S
C552 H538 0.931 . S
C552 C551 1.385 . S
C552 C553 1.389 . S
C553 C552 1.389 . S
C553 C554 1.387 . S
C554 H539 0.930 1_455 S
C554 C549 1.390 . S
C554 C553 1.387 . S
H555 C567 0.930 . S
H556 C569 0.930 1_556 S
H557 C570 0.930 . S
H558 C574 0.959 . S
H559 C574 0.959 . S
H560 C574 0.961 . S
H561 C575 0.956 1_545 S
H562 C575 0.964 . S
H563 C575 0.971 . S
H564 C578 0.929 . S
H565 C579 0.931 . S
H566 C581 0.930 . S
C567 H555 0.930 . S
C567 C568 1.399 . S
C567 C572 1.399 . S
C568 C567 1.399 . S
C568 C569 1.376 . S
C569 H556 0.930 1_554 S
C569 C568 1.376 . S
C569 C570 1.388 . S
C570 H557 0.930 . S
C570 C569 1.388 . S
C570 C571 1.390 . S
C571 C570 1.390 . S
C571 C572 1.394 . S
C571 C577 1.465 . S
C572 C567 1.399 . S
C572 C571 1.394 . S
C572 C573 1.516 . S
C573 C572 1.516 . S
C573 C574 1.502 . S
C573 C575 1.550 1_545 S
C573 C576 1.526 . S
C574 H558 0.959 . S
C574 H559 0.959 . S
C574 H560 0.961 . S
C574 C573 1.502 . S
C575 H561 0.956 1_565 S
C575 H562 0.964 . S
C575 H563 0.971 . S
C575 C573 1.550 1_565 S
C576 C573 1.526 . S
C576 C577 1.396 . S
C576 C581 1.390 . S
C577 C571 1.465 . S
C577 C576 1.396 . S
C577 C578 1.399 . S
C578 H564 0.929 . S
C578 C577 1.399 . S
C578 C579 1.385 1_545 S
C579 H565 0.931 . S
C579 C578 1.385 1_565 S
C579 C580 1.389 . S
C580 C579 1.389 . S
C580 C581 1.387 1_565 S
C581 H566 0.930 . S
C581 C576 1.390 . S
C581 C580 1.387 1_545 S
H582 C594 0.930 . S
H583 C596 0.930 . S
H584 C597 0.930 . S
H585 C601 0.959 . S
H586 C601 0.959 . S
H587 C601 0.961 . S
H588 C602 0.960 . S
H589 C602 0.961 . S
H590 C602 0.959 . S
H591 C605 0.929 . S
H592 C606 0.931 . S
H593 C608 0.930 . S
C594 H582 0.930 . S
C594 C595 1.399 . S
C594 C599 1.399 . S
C595 C594 1.399 . S
C595 C596 1.376 . S
C596 H583 0.930 . S
C596 C595 1.376 . S
C596 C597 1.388 . S
C597 H584 0.930 . S
C597 C596 1.388 . S
C597 C598 1.390 . S
C598 C597 1.390 . S
C598 C599 1.394 . S
C598 C604 1.465 . S
C599 C594 1.399 . S
C599 C598 1.394 . S
C599 C600 1.516 . S
C600 C599 1.516 . S
C600 C601 1.502 . S
C600 C602 1.561 . S
C600 C603 1.526 . S
C601 H585 0.959 . S
C601 H586 0.959 . S
C601 H587 0.961 . S
C601 C600 1.502 . S
C602 H588 0.960 . S
C602 H589 0.961 . S
C602 H590 0.959 . S
C602 C600 1.561 . S
C603 C600 1.526 . S
C603 C604 1.396 . S
C603 C608 1.390 . S
C604 C598 1.465 . S
C604 C603 1.396 . S
C604 C605 1.399 . S
C605 H591 0.929 . S
C605 C604 1.399 . S
C605 C606 1.385 . S
C606 H592 0.931 . S
C606 C605 1.385 . S
C606 C607 1.389 . S
C607 C606 1.389 . S
C607 C608 1.387 . S
C608 H593 0.930 . S
C608 C603 1.390 . S
C608 C607 1.387 . S
H609 C621 0.930 . S
H610 C623 0.930 . S
H611 C624 0.930 . S
H612 C628 0.959 . S
H613 C628 0.959 . S
H614 C628 0.961 . S
H615 C629 0.960 . S
H616 C629 0.961 . S
H617 C629 0.959 . S
H618 C632 0.929 . S
H619 C633 0.931 . S
H620 C635 0.930 . S
C621 H609 0.930 . S
C621 C622 1.399 . S
C621 C626 1.399 . S
C622 C621 1.399 . S
C622 C623 1.376 . S
C623 H610 0.930 . S
C623 C622 1.376 . S
C623 C624 1.388 . S
C624 H611 0.930 . S
C624 C623 1.388 . S
C624 C625 1.390 . S
C625 C624 1.390 . S
C625 C626 1.394 . S
C625 C631 1.465 . S
C626 C621 1.399 . S
C626 C625 1.394 . S
C626 C627 1.516 . S
C627 C626 1.516 . S
C627 C628 1.502 . S
C627 C629 1.561 . S
C627 C630 1.526 . S
C628 H612 0.959 . S
C628 H613 0.959 . S
C628 H614 0.961 . S
C628 C627 1.502 . S
C629 H615 0.960 . S
C629 H616 0.961 . S
C629 H617 0.959 . S
C629 C627 1.561 . S
C630 C627 1.526 . S
C630 C631 1.396 . S
C630 C635 1.390 . S
C631 C625 1.465 . S
C631 C630 1.396 . S
C631 C632 1.399 . S
C632 H618 0.929 . S
C632 C631 1.399 . S
C632 C633 1.385 . S
C633 H619 0.931 . S
C633 C632 1.385 . S
C633 C634 1.389 . S
C634 C633 1.389 . S
C634 C635 1.387 . S
C635 H620 0.930 . S
C635 C630 1.390 . S
C635 C634 1.387 . S
H636 C648 0.930 . S
H637 C650 0.930 . S
H638 C651 0.930 1_455 S
H639 C655 0.959 . S
H640 C655 0.959 . S
H641 C655 0.961 . S
H642 C656 0.960 . S
H643 C656 0.961 . S
H644 C656 0.959 1_455 S
H645 C659 0.929 . S
H646 C660 0.931 . S
H647 C662 0.930 . S
C648 H636 0.930 . S
C648 C649 1.399 . S
C648 C653 1.399 . S
C649 C648 1.399 . S
C649 C650 1.376 . S
C650 H637 0.930 . S
C650 C649 1.376 . S
C650 C651 1.388 . S
C651 H638 0.930 1_655 S
C651 C650 1.388 . S
C651 C652 1.390 . S
C652 C651 1.390 . S
C652 C653 1.394 . S
C652 C658 1.470 . S
C653 C648 1.399 . S
C653 C652 1.394 . S
C653 C654 1.516 . S
C654 C653 1.516 . S
C654 C655 1.502 . S
C654 C656 1.561 . S
C654 C657 1.526 . S
C655 H639 0.959 . S
C655 H640 0.959 . S
C655 H641 0.961 . S
C655 C654 1.502 . S
C656 H642 0.960 . S
C656 H643 0.961 . S
C656 H644 0.959 1_655 S
C656 C654 1.561 . S
C657 C654 1.526 . S
C657 C658 1.402 . S
C657 C662 1.390 . S
C658 C652 1.470 . S
C658 C657 1.402 . S
C658 C659 1.390 1_655 S
C659 H645 0.929 . S
C659 C658 1.390 1_455 S
C659 C660 1.385 . S
C660 H646 0.931 . S
C660 C659 1.385 . S
C660 C661 1.389 . S
C661 C660 1.389 . S
C661 C662 1.387 1_455 S
C662 H647 0.930 . S
C662 C657 1.390 . S
C662 C661 1.387 1_655 S
H663 C675 0.930 . S
H664 C677 0.930 . S
H665 C678 0.930 . S
H666 C682 0.959 . S
H667 C682 0.959 . S
H668 C682 0.961 . S
H669 C683 0.960 . S
H670 C683 0.961 . S
H671 C683 0.959 . S
H672 C686 0.929 . S
H673 C687 0.931 . S
H674 C689 0.930 1_565 S
C675 H663 0.930 . S
C675 C676 1.399 . S
C675 C680 1.399 . S
C676 C675 1.399 . S
C676 C677 1.376 1_565 S
C677 H664 0.930 . S
C677 C676 1.376 1_545 S
C677 C678 1.388 . S
C678 H665 0.930 . S
C678 C677 1.388 . S
C678 C679 1.390 . S
C679 C678 1.390 . S
C679 C680 1.394 1_545 S
C679 C685 1.465 . S
C680 C675 1.399 . S
C680 C679 1.394 1_565 S
C680 C681 1.516 . S
C681 C680 1.516 . S
C681 C682 1.502 . S
C681 C683 1.561 . S
C681 C684 1.526 . S
C682 H666 0.959 . S
C682 H667 0.959 . S
C682 H668 0.961 . S
C682 C681 1.502 . S
C683 H669 0.960 . S
C683 H670 0.961 . S
C683 H671 0.959 . S
C683 C681 1.561 . S
C684 C681 1.526 . S
C684 C685 1.396 1_565 S
C684 C689 1.390 1_565 S
C685 C679 1.465 . S
C685 C684 1.396 1_545 S
C685 C686 1.399 . S
C686 H672 0.929 . S
C686 C685 1.399 . S
C686 C687 1.385 . S
C687 H673 0.931 . S
C687 C686 1.385 . S
C687 C688 1.389 . S
C688 C687 1.389 . S
C688 C689 1.387 . S
C689 H674 0.930 1_545 S
C689 C684 1.390 1_545 S
C689 C688 1.387 . S
H690 C702 0.930 . S
H691 C704 0.930 . S
H692 C705 0.930 . S
H693 C709 0.959 . S
H694 C709 0.959 . S
H695 C709 0.961 . S
H696 C710 0.960 . S
H697 C710 0.961 . S
H698 C710 0.959 . S
H699 C713 0.929 . S
H700 C714 0.931 . S
H701 C716 0.930 . S
C702 H690 0.930 . S
C702 C703 1.399 . S
C702 C707 1.399 . S
C703 C702 1.399 . S
C703 C704 1.376 . S
C704 H691 0.930 . S
C704 C703 1.376 . S
C704 C705 1.388 . S
C705 H692 0.930 . S
C705 C704 1.388 . S
C705 C706 1.390 . S
C706 C705 1.390 . S
C706 C707 1.394 . S
C706 C712 1.465 . S
C707 C702 1.399 . S
C707 C706 1.394 . S
C707 C708 1.516 . S
C708 C707 1.516 . S
C708 C709 1.502 1_554 S
C708 C710 1.561 . S
C708 C711 1.526 . S
C709 H693 0.959 . S
C709 H694 0.959 . S
C709 H695 0.961 . S
C709 C708 1.502 1_556 S
C710 H696 0.960 . S
C710 H697 0.961 . S
C710 H698 0.959 . S
C710 C708 1.561 . S
C711 C708 1.526 . S
C711 C712 1.396 . S
C711 C716 1.390 1_554 S
C712 C706 1.465 . S
C712 C711 1.396 . S
C712 C713 1.399 . S
C713 H699 0.929 . S
C713 C712 1.399 . S
C713 C714 1.385 . S
C714 H700 0.931 . S
C714 C713 1.385 . S
C714 C715 1.389 1_554 S
C715 C714 1.389 1_556 S
C715 C716 1.387 . S
C716 H701 0.930 . S
C716 C711 1.390 1_556 S
C716 C715 1.387 . S
H717 C729 0.930 . S
H718 C731 0.930 . S
H719 C732 0.930 . S
H720 C736 0.959 . S
H721 C736 0.959 . S
H722 C736 0.961 . S
H723 C737 0.960 . S
H724 C737 0.961 . S
H725 C737 0.959 . S
H726 C740 0.929 . S
H727 C741 0.931 . S
H728 C743 0.930 . S
C729 H717 0.930 . S
C729 C730 1.399 . S
C729 C734 1.399 . S
C730 C729 1.399 . S
C730 C731 1.376 . S
C731 H718 0.930 . S
C731 C730 1.376 . S
C731 C732 1.388 . S
C732 H719 0.930 . S
C732 C731 1.388 . S
C732 C733 1.390 . S
C733 C732 1.390 . S
C733 C734 1.394 . S
C733 C739 1.465 . S
C734 C729 1.399 . S
C734 C733 1.394 . S
C734 C735 1.516 . S
C735 C734 1.516 . S
C735 C736 1.502 . S
C735 C737 1.561 1_554 S
C735 C738 1.526 . S
C736 H720 0.959 . S
C736 H721 0.959 . S
C736 H722 0.961 . S
C736 C735 1.502 . S
C737 H723 0.960 . S
C737 H724 0.961 . S
C737 H725 0.959 . S
C737 C735 1.561 1_556 S
C738 C735 1.526 . S
C738 C739 1.396 . S
C738 C743 1.390 . S
C739 C733 1.465 . S
C739 C738 1.396 . S
C739 C740 1.399 . S
C740 H726 0.929 . S
C740 C739 1.399 . S
C740 C741 1.385 . S
C741 H727 0.931 . S
C741 C740 1.385 . S
C741 C742 1.389 . S
C742 C741 1.389 . S
C742 C743 1.387 . S
C743 H728 0.930 . S
C743 C738 1.390 . S
C743 C742 1.387 . S
H744 C756 0.930 . S
H745 C758 0.930 . S
H746 C759 0.930 . S
H747 C763 0.959 . S
H748 C763 0.959 . S
H749 C763 0.961 . S
H750 C764 0.960 . S
H751 C764 0.961 . S
H752 C764 0.959 1_556 S
H753 C767 0.929 . S
H754 C768 0.931 . S
H755 C770 0.930 . S
C756 H744 0.930 . S
C756 C757 1.399 . S
C756 C761 1.399 . S
C757 C756 1.399 . S
C757 C758 1.376 . S
C758 H745 0.930 . S
C758 C757 1.376 . S
C758 C759 1.388 . S
C759 H746 0.930 . S
C759 C758 1.388 . S
C759 C760 1.390 . S
C760 C759 1.390 . S
C760 C761 1.394 . S
C760 C766 1.465 . S
C761 C756 1.399 . S
C761 C760 1.394 . S
C761 C762 1.516 . S
C762 C761 1.516 . S
C762 C763 1.502 . S
C762 C764 1.561 1_556 S
C762 C765 1.526 . S
C763 H747 0.959 . S
C763 H748 0.959 . S
C763 H749 0.961 . S
C763 C762 1.502 . S
C764 H750 0.960 . S
C764 H751 0.961 . S
C764 H752 0.959 1_554 S
C764 C762 1.561 1_554 S
C765 C762 1.526 . S
C765 C766 1.396 . S
C765 C770 1.390 . S
C766 C760 1.465 . S
C766 C765 1.396 . S
C766 C767 1.399 . S
C767 H753 0.929 . S
C767 C766 1.399 . S
C767 C768 1.385 . S
C768 H754 0.931 . S
C768 C767 1.385 . S
C768 C769 1.389 . S
C769 C768 1.389 . S
C769 C770 1.387 . S
C770 H755 0.930 . S
C770 C765 1.390 . S
C770 C769 1.387 . S
H771 C783 0.930 . S
H772 C785 0.930 . S
H773 C786 0.930 . S
H774 C790 0.959 1_545 S
H775 C790 0.959 . S
H776 C790 0.961 . S
H777 C791 0.960 . S
H778 C791 0.961 . S
H779 C791 0.959 . S
H780 C794 0.929 . S
H781 C795 0.931 . S
H782 C797 0.903 1_565 S
C783 H771 0.930 . S
C783 C784 1.399 . S
C783 C788 1.399 . S
C784 C783 1.399 . S
C784 C785 1.376 . S
C785 H772 0.930 . S
C785 C784 1.376 . S
C785 C786 1.388 . S
C786 H773 0.930 . S
C786 C785 1.388 . S
C786 C787 1.390 . S
C787 C786 1.390 . S
C787 C788 1.394 . S
C787 C793 1.465 . S
C788 C783 1.399 . S
C788 C787 1.394 . S
C788 C789 1.516 . S
C789 C788 1.516 . S
C789 C790 1.502 1_545 S
C789 C791 1.561 1_545 S
C789 C792 1.526 . S
C790 H774 0.959 1_565 S
C790 H775 0.959 . S
C790 H776 0.961 . S
C790 C789 1.502 1_565 S
C791 H777 0.960 . S
C791 H778 0.961 . S
C791 H779 0.959 . S
C791 C789 1.561 1_565 S
C792 C789 1.526 . S
C792 C793 1.396 . S
C792 C797 1.390 . S
C793 C787 1.465 . S
C793 C792 1.396 . S
C793 C794 1.399 . S
C794 H780 0.929 . S
C794 C793 1.399 . S
C794 C795 1.385 . S
C795 H781 0.931 . S
C795 C794 1.385 . S
C795 C796 1.389 . S
C796 C795 1.389 . S
C796 C797 1.387 . S
C797 H782 0.903 1_545 S
C797 C792 1.390 . S
C797 C796 1.387 . S
H798 C810 0.930 . S
H799 C812 0.930 . S
H800 C813 0.930 . S
H801 C817 0.959 . S
H802 C817 0.959 1_554 S
H803 C817 0.961 1_554 S
H804 C818 0.959 . S
H805 C818 0.960 . S
H806 C818 0.960 1_556 S
H807 C821 0.929 . S
H808 C822 0.931 . S
H809 C824 0.930 . S
C810 H798 0.930 . S
C810 C811 1.399 . S
C810 C815 1.399 . S
C811 C810 1.399 . S
C811 C812 1.376 . S
C812 H799 0.930 . S
C812 C811 1.376 . S
C812 C813 1.388 . S
C813 H800 0.930 . S
C813 C812 1.388 . S
C813 C814 1.390 . S
C814 C813 1.390 . S
C814 C815 1.394 . S
C814 C820 1.465 . S
C815 C810 1.399 . S
C815 C814 1.394 . S
C815 C816 1.516 . S
C816 C815 1.516 . S
C816 C817 1.502 . S
C816 C818 1.562 1_556 S
C816 C819 1.526 . S
C817 H801 0.959 . S
C817 H802 0.959 1_556 S
C817 H803 0.961 1_556 S
C817 C816 1.502 . S
C818 H804 0.959 . S
C818 H805 0.960 . S
C818 H806 0.960 1_554 S
C818 C816 1.562 1_554 S
C819 C816 1.526 . S
C819 C820 1.396 . S
C819 C824 1.390 . S
C820 C814 1.465 . S
C820 C819 1.396 . S
C820 C821 1.399 . S
C821 H807 0.929 . S
C821 C820 1.399 . S
C821 C822 1.385 . S
C822 H808 0.931 . S
C822 C821 1.385 . S
C822 C823 1.389 . S
C823 C822 1.389 . S
C823 C824 1.387 . S
C824 H809 0.930 . S
C824 C819 1.390 . S
C824 C823 1.387 . S
H825 C837 0.930 1_554 S
H826 C839 0.930 . S
H827 C840 0.930 . S
H828 C844 0.959 . S
H829 C844 0.959 . S
H830 C844 0.961 . S
H831 C845 0.960 . S
H832 C845 0.961 . S
H833 C845 0.959 . S
H834 C848 0.929 . S
H835 C849 0.931 . S
H836 C851 0.930 . S
C837 H825 0.930 1_556 S
C837 C838 1.399 . S
C837 C842 1.399 . S
C838 C837 1.399 . S
C838 C839 1.376 . S
C839 H826 0.930 . S
C839 C838 1.376 . S
C839 C840 1.388 . S
C840 H827 0.930 . S
C840 C839 1.388 . S
C840 C841 1.390 . S
C841 C840 1.390 . S
C841 C842 1.394 . S
C841 C847 1.465 . S
C842 C837 1.399 . S
C842 C841 1.394 . S
C842 C843 1.516 . S
C843 C842 1.516 . S
C843 C844 1.502 1_556 S
C843 C845 1.561 . S
C843 C846 1.526 . S
C844 H828 0.959 . S
C844 H829 0.959 . S
C844 H830 0.961 . S
C844 C843 1.502 1_554 S
C845 H831 0.960 . S
C845 H832 0.961 . S
C845 H833 0.959 . S
C845 C843 1.561 . S
C846 C843 1.526 . S
C846 C847 1.396 . S
C846 C851 1.390 . S
C847 C841 1.465 . S
C847 C846 1.396 . S
C847 C848 1.399 . S
C848 H834 0.929 . S
C848 C847 1.399 . S
C848 C849 1.385 . S
C849 H835 0.931 . S
C849 C848 1.385 . S
C849 C850 1.389 . S
C850 C849 1.389 . S
C850 C851 1.387 . S
C851 H836 0.930 . S
C851 C846 1.390 . S
C851 C850 1.387 . S
H852 C864 0.930 . S
H853 C866 0.930 . S
H854 C867 0.930 1_455 S
H855 C871 0.959 . S
H856 C871 0.959 . S
H857 C871 0.961 . S
H858 C872 0.960 . S
H859 C872 0.961 . S
H860 C872 0.959 1_455 S
H861 C875 0.929 . S
H862 C876 0.931 . S
H863 C878 0.930 . S
C864 H852 0.930 . S
C864 C865 1.399 . S
C864 C869 1.399 . S
C865 C864 1.399 . S
C865 C866 1.376 . S
C866 H853 0.930 . S
C866 C865 1.376 . S
C866 C867 1.388 . S
C867 H854 0.930 1_655 S
C867 C866 1.388 . S
C867 C868 1.390 . S
C868 C867 1.390 . S
C868 C869 1.394 . S
C868 C874 1.465 . S
C869 C864 1.399 . S
C869 C868 1.394 . S
C869 C870 1.516 . S
C870 C869 1.516 . S
C870 C871 1.502 . S
C870 C872 1.561 . S
C870 C873 1.526 . S
C871 H855 0.959 . S
C871 H856 0.959 . S
C871 H857 0.961 . S
C871 C870 1.502 . S
C872 H858 0.960 . S
C872 H859 0.961 . S
C872 H860 0.959 1_655 S
C872 C870 1.561 . S
C873 C870 1.526 . S
C873 C874 1.396 . S
C873 C878 1.390 . S
C874 C868 1.465 . S
C874 C873 1.396 . S
C874 C875 1.399 1_655 S
C875 H861 0.929 . S
C875 C874 1.399 1_455 S
C875 C876 1.385 . S
C876 H862 0.931 . S
C876 C875 1.385 . S
C876 C877 1.389 1_455 S
C877 C876 1.389 1_655 S
C877 C878 1.387 . S
C878 H863 0.930 . S
C878 C873 1.390 . S
C878 C877 1.387 . S
H879 C891 0.930 . S
H880 C893 0.930 . S
H881 C894 0.930 . S
H882 C898 0.959 . S
H883 C898 0.959 . S
H884 C898 0.961 . S
H885 C899 0.960 . S
H886 C899 0.961 . S
H887 C899 0.959 . S
H888 C902 0.929 . S
H889 C903 0.931 . S
H890 C905 0.930 . S
C891 H879 0.930 . S
C891 C892 1.399 . S
C891 C896 1.399 . S
C892 C891 1.399 . S
C892 C893 1.376 1_565 S
C893 H880 0.930 . S
C893 C892 1.376 1_545 S
C893 C894 1.388 . S
C894 H881 0.930 . S
C894 C893 1.388 . S
C894 C895 1.390 1_545 S
C895 C894 1.390 1_565 S
C895 C896 1.394 . S
C895 C901 1.465 . S
C896 C891 1.399 . S
C896 C895 1.394 . S
C896 C897 1.516 . S
C897 C896 1.516 . S
C897 C898 1.502 . S
C897 C899 1.561 . S
C897 C900 1.526 . S
C898 H882 0.959 . S
C898 H883 0.959 . S
C898 H884 0.961 . S
C898 C897 1.502 . S
C899 H885 0.960 . S
C899 H886 0.961 . S
C899 H887 0.959 . S
C899 C897 1.561 . S
C900 C897 1.526 . S
C900 C901 1.396 . S
C900 C905 1.390 . S
C901 C895 1.465 . S
C901 C900 1.396 . S
C901 C902 1.399 1_565 S
C902 H888 0.929 . S
C902 C901 1.399 1_545 S
C902 C903 1.385 . S
C903 H889 0.931 . S
C903 C902 1.385 . S
C903 C904 1.389 1_545 S
C904 C903 1.389 1_565 S
C904 C905 1.387 . S
C905 H890 0.930 . S
C905 C900 1.390 . S
C905 C904 1.387 . S
H906 C918 0.930 . S
H907 C920 0.930 . S
H908 C921 0.930 . S
H909 C925 0.959 . S
H910 C925 0.959 . S
H911 C925 0.961 . S
H912 C926 0.960 . S
H913 C926 0.961 . S
H914 C926 0.959 . S
H915 C929 0.929 . S
H916 C930 0.931 . S
H917 C932 0.930 . S
C918 H906 0.930 . S
C918 C919 1.399 . S
C918 C923 1.399 . S
C919 C918 1.399 . S
C919 C920 1.376 . S
C920 H907 0.930 . S
C920 C919 1.376 . S
C920 C921 1.388 . S
C921 H908 0.930 . S
C921 C920 1.388 . S
C921 C922 1.390 . S
C922 C921 1.390 . S
C922 C923 1.394 . S
C922 C928 1.465 . S
C923 C918 1.399 . S
C923 C922 1.394 . S
C923 C924 1.516 . S
C924 C923 1.516 . S
C924 C925 1.502 . S
C924 C926 1.561 . S
C924 C927 1.526 . S
C925 H909 0.959 . S
C925 H910 0.959 . S
C925 H911 0.961 . S
C925 C924 1.502 . S
C926 H912 0.960 . S
C926 H913 0.961 . S
C926 H914 0.959 . S
C926 C924 1.561 . S
C927 C924 1.526 . S
C927 C928 1.396 . S
C927 C932 1.390 . S
C928 C922 1.465 . S
C928 C927 1.396 . S
C928 C929 1.399 . S
C929 H915 0.929 . S
C929 C928 1.399 . S
C929 C930 1.385 . S
C930 H916 0.931 . S
C930 C929 1.385 . S
C930 C931 1.389 . S
C931 C930 1.389 . S
C931 C932 1.387 . S
C932 H917 0.930 . S
C932 C927 1.390 . S
C932 C931 1.387 . S
H933 C945 0.930 . S
H934 C947 0.930 . S
H935 C948 0.930 . S
H936 C952 0.959 . S
H937 C952 0.959 . S
H938 C952 0.961 . S
H939 C953 0.960 . S
H940 C953 0.961 . S
H941 C953 0.959 . S
H942 C956 0.929 . S
H943 C957 0.931 . S
H944 C959 0.930 . S
C945 H933 0.930 . S
C945 C946 1.399 . S
C945 C950 1.399 . S
C946 C945 1.399 . S
C946 C947 1.376 . S
C947 H934 0.930 . S
C947 C946 1.376 . S
C947 C948 1.388 . S
C948 H935 0.930 . S
C948 C947 1.388 . S
C948 C949 1.390 . S
C949 C948 1.390 . S
C949 C950 1.394 . S
C949 C955 1.465 . S
C950 C945 1.399 . S
C950 C949 1.394 . S
C950 C951 1.516 . S
C951 C950 1.516 . S
C951 C952 1.502 . S
C951 C953 1.561 . S
C951 C954 1.526 . S
C952 H936 0.959 . S
C952 H937 0.959 . S
C952 H938 0.961 . S
C952 C951 1.502 . S
C953 H939 0.960 . S
C953 H940 0.961 . S
C953 H941 0.959 . S
C953 C951 1.561 . S
C954 C951 1.526 . S
C954 C955 1.396 . S
C954 C959 1.390 . S
C955 C949 1.465 . S
C955 C954 1.396 . S
C955 C956 1.399 . S
C956 H942 0.929 . S
C956 C955 1.399 . S
C956 C957 1.385 . S
C957 H943 0.931 . S
C957 C956 1.385 . S
C957 C958 1.389 . S
C958 C957 1.389 . S
C958 C959 1.387 . S
C959 H944 0.930 . S
C959 C954 1.390 . S
C959 C958 1.387 . S
C325 C125 2.234 . S
C337 C183 2.313 . S
C364 C209 1.857 . S
C352 C144 1.826 . S
C391 C249 1.938 . S
C379 C87 1.841 . S
C418 C303 2.365 . S
C406 C106 2.301 . S
C445 C164 2.321 . S
C433 C49 2.322 . S
C460 C68 1.787 . S
C472 C194 1.867 . S
C487 C11 1.911 . S
C499 C234 1.937 . S
C514 C30 2.354 . S
C526 C284 2.364 1_655 S
C553 C160 0.631 . S
C541 C97 0.602 . S
C580 C221 0.682 . S
C568 C116 0.643 . S
C607 C261 0.647 . S
C595 C135 0.658 . S
C622 C78 0.682 . S
C634 C280 0.422 . S
C649 C21 0.661 . S
C661 C181 0.547 . S
C688 C200 0.742 1_554 S
C676 C40 0.645 . S
C715 C240 0.587 . S
C703 C59 0.537 . S
C730 C2 0.537 . S
C742 C301 0.592 . S
C757 C101 1.951 . S
C769 C154 2.142 . S
C784 C120 2.423 . S
C796 C204 2.602 . S
C823 C244 2.355 . S
C811 C139 2.220 . S
C850 C274 1.879 . S
C838 C82 1.763 . S
C865 C25 1.904 . S
C877 C169 2.145 . S
C904 C223 2.590 . S
C892 C44 2.430 . S
C931 C263 2.359 . S
C919 C63 2.169 . S
C946 C6 1.757 . S
C958 C289 1.890 . S
