# Generated by pormake.
# Topology anh, (6,3)-cn, num edge types: 1
# Building blocks:
#     Node 0, Type 0, BuildingBlock: BETDEL_clean_sbu_0, # of connection points: 6
#     Node 1, Type 0, BuildingBlock: BETDEL_clean_sbu_0, # of connection points: 6
#     Node 2, Type 0, BuildingBlock: BETDEL_clean_sbu_0, # of connection points: 6
#     Node 3, Type 1, BuildingBlock: MIDCAF_clean_linker_0, # of connection points: 3
#     Node 4, Type 1, BuildingBlock: MIDCAF_clean_linker_0, # of connection points: 3
#     Node 5, Type 1, BuildingBlock: MIDCAF_clean_linker_0, # of connection points: 3
#     Node 6, Type 1, BuildingBlock: MIDCAF_clean_linker_0, # of connection points: 3
#     Node 7, Type 1, BuildingBlock: MIDCAF_clean_linker_0, # of connection points: 3
#     Node 8, Type 1, BuildingBlock: MIDCAF_clean_linker_0, # of connection points: 3
#     Edge 9, Type (0, 1), BuildingBlock: MIFKUJ_clean_linker_0, # of connection points: 2
#     Edge 10, Type (0, 1), BuildingBlock: MIFKUJ_clean_linker_0, # of connection points: 2
#     Edge 11, Type (0, 1), BuildingBlock: MIFKUJ_clean_linker_0, # of connection points: 2
#     Edge 12, Type (0, 1), BuildingBlock: MIFKUJ_clean_linker_0, # of connection points: 2
#     Edge 13, Type (0, 1), BuildingBlock: MIFKUJ_clean_linker_0, # of connection points: 2
#     Edge 14, Type (0, 1), BuildingBlock: MIFKUJ_clean_linker_0, # of connection points: 2
#     Edge 15, Type (0, 1), BuildingBlock: MIFKUJ_clean_linker_0, # of connection points: 2
#     Edge 16, Type (0, 1), BuildingBlock: MIFKUJ_clean_linker_0, # of connection points: 2
#     Edge 17, Type (0, 1), BuildingBlock: MIFKUJ_clean_linker_0, # of connection points: 2
#     Edge 18, Type (0, 1), BuildingBlock: MIFKUJ_clean_linker_0, # of connection points: 2
#     Edge 19, Type (0, 1), BuildingBlock: MIFKUJ_clean_linker_0, # of connection points: 2
#     Edge 20, Type (0, 1), BuildingBlock: MIFKUJ_clean_linker_0, # of connection points: 2
#     Edge 21, Type (0, 1), BuildingBlock: MIFKUJ_clean_linker_0, # of connection points: 2
#     Edge 22, Type (0, 1), BuildingBlock: MIFKUJ_clean_linker_0, # of connection points: 2
#     Edge 23, Type (0, 1), BuildingBlock: MIFKUJ_clean_linker_0, # of connection points: 2
#     Edge 24, Type (0, 1), BuildingBlock: MIFKUJ_clean_linker_0, # of connection points: 2
#     Edge 25, Type (0, 1), BuildingBlock: MIFKUJ_clean_linker_0, # of connection points: 2
#     Edge 26, Type (0, 1), BuildingBlock: MIFKUJ_clean_linker_0, # of connection points: 2
# Relax obj value: 0.137
# Max RMSD: 0.165
# Mean RMSD: 0.131
data_MOF--net-anh--node1-BETDEL_clean_sbu_0--node2-MIDCAF_clean_linker_0--edge1-MIFKUJ_clean_linker_0
_symmetry_space_group_name_H-M    P1
_symmetry_Int_Tables_number       1
_symmetry_cell_setting            triclinic
loop_
_symmetry_equiv_pos_as_xyz
'x, y, z'
_cell_length_a     44.563016
_cell_length_b     44.589836
_cell_length_c     80.385597
_cell_angle_alpha  89.926837
_cell_angle_beta   90.0011
_cell_angle_gamma 119.90548
loop_
_atom_site_label
_atom_site_type_symbol
_atom_site_fract_x
_atom_site_fract_y
_atom_site_fract_z
_atom_type_partial_charge
Dy0 Dy 0.0405 0.4832 0.1637 0.0
C1 C 0.95601 0.54006 0.18312 0.0
C2 C 0.08577 0.46513 0.15063 0.0
Dy3 Dy 1.0002 0.51938 0.17121 0.0
O4 O 0.06715 0.45165 0.16387 0.0
O5 O 0.07895 0.48784 0.14429 0.0
O6 O 0.03131 0.46094 0.18943 0.0
O7 O 0.03536 0.50929 0.18562 0.0
C8 C 0.02833 0.48577 0.19613 0.0
C9 C 0.0148 0.51835 0.13894 0.0
O10 O 0.05324 0.56346 0.17696 0.0
O11 O 0.0822 0.53999 0.16304 0.0
O12 O 0.97322 0.55036 0.1693 0.0
O13 O 0.96339 0.51877 0.19066 0.0
O14 O 0.01308 0.54364 0.14593 0.0
O15 O 0.00584 0.49376 0.1491 0.0
O16 O 0.98695 0.43794 0.15942 0.0
O17 O 0.95852 0.46316 0.17232 0.0
C18 C 0.08196 0.56666 0.1703 0.0
C19 C 0.95841 0.43572 0.16583 0.0
Dy20 Dy 0.48768 0.03396 0.49741 0.0
C21 C 0.63201 0.11233 0.51635 0.0
C22 C 0.41939 0.99007 0.49179 0.0
Dy23 Dy 0.56934 0.07388 0.50155 0.0
O24 O 0.43487 0.99497 0.50599 0.0
O25 O 0.44132 0.0093 0.48036 0.0
O26 O 0.48484 0.05551 0.5222 0.0
O27 O 0.52464 0.04444 0.51735 0.0
C28 C 0.51296 0.05711 0.52775 0.0
C29 C 0.55203 0.06546 0.46905 0.0
O30 O 0.55765 0.01916 0.50527 0.0
O31 O 0.50034 0.99076 0.49597 0.0
O32 O 0.62555 0.09007 0.50448 0.0
O33 O 0.60415 0.11328 0.52012 0.0
O34 O 0.58392 0.08097 0.47425 0.0
O35 O 0.53253 0.05628 0.48156 0.0
O36 O 0.49901 0.08779 0.49157 0.0
O37 O 0.55546 0.11621 0.50197 0.0
C38 C 0.52881 0.99052 0.50086 0.0
C39 C 0.52742 0.11641 0.49638 0.0
Dy40 Dy 0.57793 0.58778 0.82778 0.0
C41 C 0.52003 0.44722 0.84904 0.0
C42 C 0.59687 0.6505 0.81385 0.0
Dy43 Dy 0.54006 0.51095 0.83588 0.0
O44 O 0.61207 0.64553 0.82646 0.0
O45 O 0.57175 0.62112 0.80864 0.0
O46 O 0.60259 0.60057 0.85305 0.0
O47 O 0.55314 0.55724 0.84993 0.0
C48 C 0.57782 0.57297 0.85994 0.0
C49 C 0.54062 0.52619 0.80358 0.0
O50 O 0.49677 0.52118 0.84169 0.0
O51 O 0.5217 0.57468 0.82862 0.0
O52 O 0.50783 0.453 0.8355 0.0
O53 O 0.54285 0.47641 0.85555 0.0
O54 O 0.51546 0.49913 0.81063 0.0
O55 O 0.56534 0.54162 0.81363 0.0
O56 O 0.62156 0.57736 0.82275 0.0
O57 O 0.59612 0.52438 0.83631 0.0
C58 C 0.49457 0.54773 0.83561 0.0
C59 C 0.62356 0.55115 0.82947 0.0
C60 C 0.39612 0.91894 0.20384 0.0
C61 C 0.39907 0.89334 0.19493 0.0
C62 C 0.43261 0.90029 0.19044 0.0
C63 C 0.4622 0.93108 0.19551 0.0
H64 H 0.5709 0.03743 0.18269 0.0
H65 H 0.62232 0.08631 0.16984 0.0
H66 H 0.63514 0.14849 0.21321 0.0
H67 H 0.58482 0.1006 0.22591 0.0
H68 H 0.56071 0.06163 0.26033 0.0
H69 H 0.55779 0.06425 0.29048 0.0
H70 H 0.45771 0.9712 0.29018 0.0
H71 H 0.46082 0.96808 0.26004 0.0
H72 H 0.42218 0.96743 0.21665 0.0
H73 H 0.37099 0.91541 0.2071 0.0
H74 H 0.43616 0.88132 0.18367 0.0
H75 H 0.48764 0.93496 0.1926 0.0
N76 N 0.5172 0.0087 0.20543 0.0
N77 N 0.54079 0.0372 0.23077 0.0
N78 N 0.48716 0.98637 0.23064 0.0
C79 C 0.54323 0.03576 0.21394 0.0
C80 C 0.51309 0.01262 0.23924 0.0
C81 C 0.48893 0.98402 0.21386 0.0
C82 C 0.57358 0.06488 0.20537 0.0
C83 C 0.58466 0.06162 0.1894 0.0
C84 C 0.6142 0.08954 0.18208 0.0
C85 C 0.63272 0.12144 0.19045 0.0
C86 C 0.62132 0.12455 0.2063 0.0
C87 C 0.59242 0.0968 0.21364 0.0
C88 C 0.51104 0.01459 0.25766 0.0
C89 C 0.53802 0.04169 0.26664 0.0
C90 C 0.53626 0.04334 0.28397 0.0
C91 C 0.50749 0.01796 0.29279 0.0
C92 C 0.48045 0.99095 0.28382 0.0
C93 C 0.48218 0.98929 0.26649 0.0
C94 C 0.45885 0.95529 0.20532 0.0
C95 C 0.42552 0.94914 0.20913 0.0
C96 C 0.55042 0.45391 0.54098 0.0
C97 C 0.53539 0.44054 0.52543 0.0
C98 C 0.52121 0.45778 0.51644 0.0
C99 C 0.5221 0.48762 0.52296 0.0
H100 H 0.50611 0.58707 0.51726 0.0
H101 H 0.50455 0.63779 0.50604 0.0
H102 H 0.57013 0.70001 0.54629 0.0
H103 H 0.57182 0.65027 0.55722 0.0
H104 H 0.55266 0.61273 0.59291 0.0
H105 H 0.55472 0.61375 0.62328 0.0
H106 H 0.52865 0.50662 0.62379 0.0
H107 H 0.52645 0.50538 0.59351 0.0
H108 H 0.56256 0.49211 0.55964 0.0
H109 H 0.56115 0.44123 0.54841 0.0
H110 H 0.50952 0.44825 0.50438 0.0
H111 H 0.5107 0.50011 0.51589 0.0
N112 N 0.53555 0.55639 0.53824 0.0
N113 N 0.5385 0.58435 0.56357 0.0
N114 N 0.53675 0.53125 0.56384 0.0
C115 C 0.53722 0.58393 0.54667 0.0
C116 C 0.53798 0.55809 0.57226 0.0
C117 C 0.53571 0.52998 0.54695 0.0
C118 C 0.53901 0.61452 0.53815 0.0
C119 C 0.52063 0.61178 0.52347 0.0
C120 C 0.51949 0.64076 0.51717 0.0
C121 C 0.53723 0.67312 0.52525 0.0
C122 C 0.55649 0.67581 0.53957 0.0
C123 C 0.55726 0.64706 0.54592 0.0
C124 C 0.53932 0.55893 0.59072 0.0
C125 C 0.5473 0.58934 0.59948 0.0
C126 C 0.54869 0.59004 0.61688 0.0
C127 C 0.54174 0.56025 0.6259 0.0
C128 C 0.53373 0.52988 0.61717 0.0
C129 C 0.53268 0.52926 0.5998 0.0
C130 C 0.53659 0.50036 0.53873 0.0
C131 C 0.55094 0.48314 0.54751 0.0
C132 C 0.93621 0.5265 0.87562 0.0
C133 C 0.93971 0.54453 0.86075 0.0
C134 C 0.97115 0.55767 0.85187 0.0
C135 C 0.99886 0.55423 0.85822 0.0
H136 H 0.10855 0.56176 0.85136 0.0
H137 H 0.16049 0.563 0.8399 0.0
H138 H 0.16472 0.50748 0.88306 0.0
H139 H 0.11357 0.5057 0.89413 0.0
H140 H 0.08989 0.51828 0.92808 0.0
H141 H 0.08737 0.5138 0.95835 0.0
H142 H 1.00227 0.53415 0.9588 0.0
H143 H 1.00479 0.53892 0.92859 0.0
H144 H 0.95967 0.50962 0.89361 0.0
H145 H 0.91218 0.51501 0.88257 0.0
H146 H 0.97477 0.57162 0.84033 0.0
H147 H 0.02309 0.56563 0.85145 0.0
N148 N 0.05219 0.53758 0.87346 0.0
N149 N 0.07545 0.53224 0.89889 0.0
N150 N 0.02422 0.53424 0.89884 0.0
C151 C 0.07742 0.53495 0.88203 0.0
C152 C 0.0492 0.53206 0.90741 0.0
C153 C 0.02515 0.53686 0.88197 0.0
C154 C 0.10681 0.53377 0.87371 0.0
C155 C 0.12038 0.54943 0.85821 0.0
C156 C 0.15031 0.55038 0.85174 0.0
C157 C 0.16687 0.53522 0.86051 0.0
C158 C 0.15259 0.51895 0.87576 0.0
C159 C 0.1232 0.51824 0.88222 0.0
C160 C 0.04759 0.52906 0.92584 0.0
C161 C 0.07063 0.52185 0.9346 0.0
C162 C 0.06909 0.51905 0.95196 0.0
C163 C 0.04468 0.52369 0.96097 0.0
C164 C 0.02164 0.53084 0.95223 0.0
C165 C 0.02299 0.53338 0.93488 0.0
C166 C 0.99562 0.53768 0.87358 0.0
C167 C 0.9636 0.52325 0.88193 0.0
C168 C 0.12637 0.64711 0.45064 0.0
C169 C 0.12349 0.66221 0.46543 0.0
C170 C 0.09466 0.64317 0.47581 0.0
C171 C 0.06823 0.61039 0.47097 0.0
H172 H 0.997 0.49817 0.48537 0.0
H173 H 0.95423 0.45162 0.50304 0.0
H174 H 0.88067 0.417 0.46265 0.0
H175 H 0.92312 0.46299 0.44499 0.0
H176 H 0.97306 0.4723 0.40756 0.0
H177 H 0.97244 0.46637 0.37726 0.0
H178 H 0.03942 0.57679 0.37243 0.0
H179 H 0.04016 0.58286 0.40251 0.0
H180 H 0.10262 0.60429 0.43403 0.0
H181 H 0.14875 0.66071 0.44263 0.0
H182 H 0.0918 0.6542 0.48729 0.0
H183 H 0.04556 0.5968 0.4788 0.0
N184 N 0.01682 0.53996 0.45928 0.0
N185 N 0.9861 0.50721 0.43594 0.0
N186 N 0.03695 0.56022 0.43236 0.0
C187 C 0.98944 0.51115 0.45275 0.0
C188 C 0.00981 0.53181 0.42569 0.0
C189 C 0.04074 0.56452 0.44905 0.0
C190 C 0.96344 0.48416 0.46377 0.0
C191 C 0.9716 0.48076 0.48032 0.0
C192 C 0.94726 0.45414 0.49041 0.0
C193 C 0.9142 0.43096 0.4842 0.0
C194 C 0.90586 0.43482 0.46779 0.0
C195 C 0.93028 0.46098 0.45765 0.0
C196 C 0.00686 0.52799 0.40742 0.0
C197 C 0.98733 0.49531 0.40001 0.0
C198 C 0.98711 0.49189 0.38271 0.0
C199 C 0.00596 0.52114 0.37257 0.0
C200 C 0.02446 0.55387 0.37996 0.0
C201 C 0.02506 0.55725 0.3972 0.0
C202 C 0.07027 0.59642 0.45563 0.0
C203 C 0.1 0.6147 0.44577 0.0
C204 C 0.59068 0.18758 0.79726 0.0
C205 C 0.57734 0.17739 0.81339 0.0
C206 C 0.5681 0.14401 0.81894 0.0
C207 C 0.57262 0.12137 0.80856 0.0
H208 H 0.56748 0.01992 0.80437 0.0
H209 H 0.57017 0.96864 0.81341 0.0
H210 H 0.64186 0.98506 0.77364 0.0
H211 H 0.63863 0.0355 0.76438 0.0
H212 H 0.60761 0.05482 0.72994 0.0
H213 H 0.6051 0.06001 0.7 0.0
H214 H 0.58785 0.14643 0.70641 0.0
H215 H 0.5896 0.14087 0.73653 0.0
H216 H 0.60496 0.17362 0.77444 0.0
H217 H 0.59756 0.21304 0.79261 0.0
H218 H 0.5577 0.13559 0.83133 0.0
H219 H 0.56543 0.0958 0.81314 0.0
N220 N 0.59327 0.08106 0.78744 0.0
N221 N 0.60127 0.06623 0.76046 0.0
N222 N 0.59269 0.11336 0.76444 0.0
C223 C 0.59901 0.06035 0.7771 0.0
C224 C 0.59787 0.09246 0.754 0.0
C225 C 0.59046 0.1079 0.78116 0.0
C226 C 0.60271 0.03148 0.78364 0.0
C227 C 0.58408 0.01273 0.79772 0.0
C228 C 0.58551 0.98345 0.80284 0.0
C229 C 0.60632 0.9732 0.79422 0.0
C230 C 0.62589 0.99272 0.78056 0.0
C231 C 0.62385 0.02138 0.77521 0.0
C232 C 0.59863 0.09731 0.73572 0.0
C233 C 0.60347 0.07511 0.72504 0.0
C234 C 0.60228 0.07822 0.70781 0.0
C235 C 0.59628 0.10364 0.70081 0.0
C236 C 0.59212 0.12631 0.71144 0.0
C237 C 0.59331 0.12322 0.72871 0.0
C238 C 0.58576 0.13155 0.79235 0.0
C239 C 0.59464 0.16487 0.78682 0.0
C240 C 0.64939 0.513 0.13079 0.0
C241 C 0.64562 0.51311 0.14813 0.0
C242 C 0.61581 0.51196 0.15466 0.0
C243 C 0.59013 0.51035 0.14402 0.0
H244 H 0.48677 0.4944 0.14221 0.0
H245 H 0.43227 0.49058 0.15106 0.0
H246 H 0.41422 0.51149 0.10068 0.0
H247 H 0.46808 0.51587 0.09195 0.0
H248 H 0.50147 0.49939 0.06342 0.0
H249 H 0.50889 0.5002 0.03356 0.0
H250 H 0.61062 0.51256 0.0403 0.0
H251 H 0.60354 0.51233 0.07048 0.0
H252 H 0.62794 0.51144 0.10691 0.0
H253 H 0.67237 0.51459 0.12533 0.0
H254 H 0.61211 0.51186 0.16798 0.0
H255 H 0.56738 0.50931 0.14944 0.0
N256 N 0.5379 0.50738 0.1211 0.0
N257 N 0.51872 0.50563 0.09379 0.0
N258 N 0.57148 0.5078 0.09842 0.0
C259 C 0.51367 0.50616 0.11039 0.0
C260 C 0.54737 0.50639 0.08766 0.0
C261 C 0.567 0.5083 0.11515 0.0
C262 C 0.4818 0.50531 0.11636 0.0
C263 C 0.47126 0.4985 0.1331 0.0
C264 C 0.44002 0.49613 0.13815 0.0
C265 C 0.41906 0.50092 0.12658 0.0
C266 C 0.43 0.50826 0.10997 0.0
C267 C 0.46088 0.51044 0.10493 0.0
C268 C 0.55195 0.50588 0.06943 0.0
C269 C 0.52546 0.50218 0.05864 0.0
C270 C 0.52956 0.50235 0.04146 0.0
C271 C 0.56024 0.50621 0.03457 0.0
C272 C 0.58675 0.50973 0.04528 0.0
C273 C 0.58261 0.50946 0.06255 0.0
C274 C 0.59388 0.51 0.12664 0.0
C275 C 0.6239 0.51142 0.1202 0.0
H276 H 0.13573 0.50299 0.12795 0.0
H277 H 0.19008 0.50327 0.12367 0.0
H278 H 0.15712 0.41838 0.15825 0.0
H279 H 0.10308 0.4189 0.163 0.0
H280 H 0.21927 0.46715 0.16588 0.0
H281 H 0.16525 0.40893 0.1154 0.0
H282 H 0.13325 0.39927 0.08909 0.0
H283 H 0.21481 0.49545 0.06986 0.0
H284 H 0.24712 0.50593 0.09613 0.0
H285 H 0.36882 0.45093 0.14632 0.0
H286 H 0.30995 0.44045 0.1509 0.0
H287 H 0.33361 0.53088 0.12174 0.0
H288 H 0.39244 0.54183 0.11736 0.0
H289 H 0.27406 0.47285 0.11139 0.0
H290 H 0.32535 0.53258 0.16267 0.0
H291 H 0.35701 0.54256 0.18911 0.0
H292 H 0.27986 0.44236 0.20666 0.0
H293 H 0.24797 0.4316 0.18022 0.0
C294 C 0.13977 0.4839 0.13435 0.0
C295 C 0.11531 0.46093 0.1458 0.0
C296 C 0.17082 0.484 0.13187 0.0
C297 C 0.17764 0.46067 0.14055 0.0
C298 C 0.15245 0.43664 0.15144 0.0
C299 C 0.12153 0.43681 0.15406 0.0
C300 C 0.21212 0.46333 0.13926 0.0
C301 C 0.23093 0.46764 0.15396 0.0
C302 C 0.22768 0.46473 0.12372 0.0
C303 C 0.2085 0.45832 0.1078 0.0
C304 C 0.17628 0.42813 0.1056 0.0
C305 C 0.1581 0.42249 0.09068 0.0
C306 C 0.17196 0.44677 0.07782 0.0
C307 C 0.2041 0.47668 0.07983 0.0
C308 C 0.22238 0.48245 0.09473 0.0
C309 C 0.36169 0.469 0.14122 0.0
C310 C 0.38514 0.49703 0.13136 0.0
C311 C 0.32803 0.46287 0.14376 0.0
C312 C 0.31742 0.48476 0.13653 0.0
C313 C 0.3412 0.51349 0.12726 0.0
C314 C 0.37478 0.51968 0.12477 0.0
C315 C 0.28115 0.4771 0.13796 0.0
C316 C 0.26209 0.47186 0.12328 0.0
C317 C 0.26533 0.47471 0.15351 0.0
C318 C 0.2845 0.48112 0.16939 0.0
C319 C 0.31531 0.51254 0.17211 0.0
C320 C 0.33326 0.51837 0.18711 0.0
C321 C 0.32052 0.49306 0.19954 0.0
C322 C 0.28974 0.46191 0.19701 0.0
C323 C 0.27171 0.45594 0.18202 0.0
H324 H 0.33444 0.49763 0.21114 0.0
H325 H 0.15782 0.44238 0.06629 0.0
H326 H 0.64878 0.1612 0.54027 0.0
H327 H 0.70396 0.21534 0.54242 0.0
H328 H 0.74856 0.17805 0.50601 0.0
H329 H 0.69357 0.12384 0.50384 0.0
H330 H 0.78173 0.24358 0.54463 0.0
H331 H 0.7652 0.23321 0.47422 0.0
H332 H 0.71926 0.20116 0.45348 0.0
H333 H 0.6431 0.19801 0.48728 0.0
H334 H 0.68867 0.23058 0.50805 0.0
H335 H 0.92416 0.38399 0.50152 0.0
H336 H 0.87948 0.32997 0.5141 0.0
H337 H 0.80217 0.35801 0.50223 0.0
H338 H 0.84663 0.41159 0.48938 0.0
H339 H 0.78442 0.29742 0.49013 0.0
H340 H 0.82451 0.35231 0.54284 0.0
H341 H 0.86724 0.38457 0.56477 0.0
H342 H 0.89209 0.30333 0.56845 0.0
H343 H 0.84984 0.27077 0.54637 0.0
C344 C 0.67081 0.16399 0.53326 0.0
C345 C 0.66687 0.13883 0.5216 0.0
C346 C 0.70235 0.19481 0.53461 0.0
C347 C 0.73001 0.20071 0.52421 0.0
C348 C 0.72737 0.17383 0.51412 0.0
C349 C 0.69592 0.14296 0.51283 0.0
C350 C 0.75735 0.23657 0.52074 0.0
C351 C 0.78263 0.25549 0.53273 0.0
C352 C 0.7576 0.25221 0.50541 0.0
C353 C 0.73026 0.23395 0.49272 0.0
C354 C 0.73867 0.22585 0.47716 0.0
C355 C 0.7127 0.20758 0.46541 0.0
C356 C 0.67826 0.19744 0.46908 0.0
C357 C 0.66975 0.20577 0.48447 0.0
C358 C 0.69564 0.22413 0.49622 0.0
C359 C 0.89775 0.37895 0.502 0.0
C360 C 0.88867 0.40166 0.49436 0.0
C361 C 0.87227 0.34815 0.50922 0.0
C362 C 0.83747 0.33993 0.50908 0.0
C363 C 0.82882 0.36374 0.50238 0.0
C364 C 0.85417 0.39427 0.49504 0.0
C365 C 0.80959 0.30495 0.51394 0.0
C366 C 0.78393 0.28591 0.5021 0.0
C367 C 0.80878 0.28975 0.52955 0.0
C368 C 0.83422 0.30925 0.54283 0.0
C369 C 0.8393 0.34145 0.54822 0.0
C370 C 0.86339 0.35977 0.5607 0.0
C371 C 0.88243 0.34605 0.56797 0.0
C372 C 0.87735 0.31394 0.5628 0.0
C373 C 0.8533 0.29553 0.55031 0.0
H374 H 0.90107 0.36026 0.57764 0.0
H375 H 0.65819 0.18319 0.46 0.0
H376 H 0.6526 0.71349 0.8205 0.0
H377 H 0.65723 0.76997 0.81613 0.0
H378 H 0.55685 0.72018 0.79251 0.0
H379 H 0.55308 0.66397 0.79608 0.0
H380 H 0.59434 0.77818 0.7781 0.0
H381 H 0.56907 0.74355 0.83499 0.0
H382 H 0.57724 0.72396 0.86246 0.0
H383 H 0.67589 0.81655 0.86744 0.0
H384 H 0.66851 0.83648 0.83989 0.0
H385 H 0.5506 0.90848 0.79618 0.0
H386 H 0.55112 0.85397 0.79942 0.0
H387 H 0.66211 0.91102 0.80511 0.0
H388 H 0.66178 0.96557 0.80148 0.0
H389 H 0.61985 0.85069 0.82869 0.0
H390 H 0.64023 0.88381 0.77025 0.0
H391 H 0.62549 0.9014 0.74379 0.0
H392 H 0.52697 0.80771 0.74328 0.0
H393 H 0.54092 0.78985 0.76991 0.0
C394 C 0.63193 0.7148 0.81405 0.0
C395 C 0.60238 0.68453 0.80874 0.0
C396 C 0.63441 0.74698 0.81169 0.0
C397 C 0.60689 0.74925 0.80447 0.0
C398 C 0.57829 0.71912 0.79824 0.0
C399 C 0.57616 0.687 0.80028 0.0
C400 C 0.60699 0.78259 0.80421 0.0
C401 C 0.59965 0.7938 0.78921 0.0
C402 C 0.61391 0.80316 0.8187 0.0
C403 C 0.6184 0.79133 0.8353 0.0
C404 C 0.59261 0.75962 0.8419 0.0
C405 C 0.59708 0.74847 0.85748 0.0
C406 C 0.62711 0.76895 0.86667 0.0
C407 C 0.65268 0.80068 0.8603 0.0
C408 C 0.64836 0.81193 0.8447 0.0
C409 C 0.57497 0.9093 0.79844 0.0
C410 C 0.60616 0.941 0.7986 0.0
C411 C 0.57526 0.87829 0.8002 0.0
C412 C 0.60668 0.87868 0.8024 0.0
C413 C 0.63766 0.91036 0.80342 0.0
C414 C 0.63746 0.94135 0.80134 0.0
C415 C 0.60741 0.84598 0.80264 0.0
C416 C 0.61477 0.83497 0.81762 0.0
C417 C 0.59963 0.82518 0.78827 0.0
C418 C 0.59147 0.83568 0.77215 0.0
C419 C 0.6153 0.86711 0.76457 0.0
C420 C 0.60712 0.87711 0.74953 0.0
C421 C 0.57528 0.85573 0.74188 0.0
C422 C 0.55161 0.82427 0.74923 0.0
C423 C 0.55965 0.81419 0.76429 0.0
H424 H 0.56898 0.86351 0.73023 0.0
H425 H 0.63052 0.76027 0.87873 0.0
H426 H 0.93279 0.57616 0.1655 0.0
H427 H 0.87905 0.57666 0.16967 0.0
H428 H 0.8607 0.51839 0.21517 0.0
H429 H 0.91424 0.51665 0.21058 0.0
H430 H 0.80675 0.48832 0.19769 0.0
H431 H 0.87272 0.60358 0.21473 0.0
H432 H 0.92034 0.6641 0.21491 0.0
H433 H 0.88726 0.68149 0.1675 0.0
H434 H 0.83976 0.62095 0.16689 0.0
H435 H 0.67298 0.55211 0.17634 0.0
H436 H 0.72242 0.55868 0.19266 0.0
H437 H 0.7307 0.48576 0.16045 0.0
H438 H 0.68076 0.47799 0.14471 0.0
H439 H 0.78591 0.5846 0.1833 0.0
H440 H 0.7645 0.44385 0.1781 0.0
H441 H 0.71624 0.38392 0.18053 0.0
H442 H 0.65887 0.41872 0.20977 0.0
H443 H 0.707 0.47882 0.20776 0.0
C444 C 0.91775 0.56417 0.17661 0.0
C445 C 0.92749 0.54617 0.18766 0.0
C446 C 0.88708 0.56472 0.17908 0.0
C447 C 0.86581 0.54787 0.19285 0.0
C448 C 0.87664 0.53161 0.20447 0.0
C449 C 0.90725 0.53072 0.20187 0.0
C450 C 0.83041 0.54328 0.19359 0.0
C451 C 0.80218 0.50948 0.19482 0.0
C452 C 0.82418 0.57098 0.19049 0.0
C453 C 0.85261 0.60761 0.19078 0.0
C454 C 0.87568 0.62024 0.2043 0.0
C455 C 0.90266 0.65457 0.20448 0.0
C456 C 0.90682 0.67662 0.19122 0.0
C457 C 0.88397 0.66439 0.17777 0.0
C458 C 0.85694 0.63008 0.17752 0.0
C459 C 0.68484 0.53683 0.17304 0.0
C460 C 0.67314 0.51472 0.15916 0.0
C461 C 0.7132 0.54077 0.18231 0.0
C462 C 0.73014 0.52248 0.17791 0.0
C463 C 0.71773 0.49964 0.16435 0.0
C464 C 0.68942 0.49559 0.15519 0.0
C465 C 0.76277 0.52942 0.18621 0.0
C466 C 0.79041 0.56362 0.18669 0.0
C467 C 0.76836 0.5022 0.19133 0.0
C468 C 0.73941 0.46595 0.19273 0.0
C469 C 0.74173 0.43873 0.18516 0.0
C470 C 0.71435 0.40471 0.18644 0.0
C471 C 0.6845 0.39752 0.19528 0.0
C472 C 0.68198 0.42433 0.20289 0.0
C473 C 0.7093 0.4584 0.20167 0.0
H474 H 0.66332 0.37117 0.19624 0.0
H475 H 0.92774 0.70319 0.19138 0.0
H476 H 0.3728 0.95204 0.5154 0.0
H477 H 0.31685 0.90001 0.51129 0.0
H478 H 0.32861 0.91431 0.45813 0.0
H479 H 0.38516 0.96679 0.46216 0.0
H480 H 0.257 0.88759 0.47229 0.0
H481 H 0.35309 0.86561 0.47122 0.0
H482 H 0.40768 0.87252 0.48247 0.0
H483 H 0.35643 0.82481 0.52827 0.0
H484 H 0.3016 0.81804 0.51736 0.0
H485 H 0.15264 0.71676 0.44406 0.0
H486 H 0.1984 0.77559 0.44976 0.0
H487 H 0.19872 0.74913 0.5014 0.0
H488 H 0.15357 0.68939 0.49559 0.0
H489 H 0.2629 0.78344 0.48916 0.0
H490 H 0.16505 0.80004 0.4893 0.0
H491 H 0.11101 0.79541 0.47867 0.0
H492 H 0.1647 0.85401 0.43532 0.0
H493 H 0.219 0.85857 0.44558 0.0
C494 C 0.36317 0.94457 0.50283 0.0
C495 C 0.38335 0.96302 0.48906 0.0
C496 C 0.33121 0.91494 0.50053 0.0
C497 C 0.319 0.90332 0.48444 0.0
C498 C 0.33779 0.9231 0.47064 0.0
C499 C 0.36999 0.95288 0.47295 0.0
C500 C 0.28907 0.86841 0.48217 0.0
C501 C 0.25821 0.8647 0.47576 0.0
C502 C 0.29078 0.83888 0.48717 0.0
C503 C 0.32334 0.84161 0.49353 0.0
C504 C 0.3535 0.85673 0.48371 0.0
C505 C 0.38448 0.8606 0.49002 0.0
C506 C 0.38555 0.84919 0.50608 0.0
C507 C 0.35557 0.83364 0.51583 0.0
C508 C 0.32452 0.82974 0.50958 0.0
C509 C 0.16254 0.72335 0.45663 0.0
C510 C 0.1498 0.69837 0.46936 0.0
C511 C 0.18838 0.75713 0.4599 0.0
C512 C 0.20164 0.76681 0.47603 0.0
C513 C 0.18865 0.74213 0.48887 0.0
C514 C 0.16279 0.70815 0.48557 0.0
C515 C 0.23042 0.80226 0.47916 0.0
C516 C 0.26132 0.80616 0.48574 0.0
C517 C 0.22863 0.83191 0.47432 0.0
C518 C 0.19606 0.82942 0.46816 0.0
C519 C 0.16529 0.81173 0.47744 0.0
C520 C 0.13462 0.80915 0.47149 0.0
C521 C 0.13441 0.82435 0.45631 0.0
C522 C 0.1649 0.84223 0.44707 0.0
C523 C 0.19565 0.84487 0.45296 0.0
H524 H 0.11063 0.82232 0.45173 0.0
H525 H 0.40961 0.85242 0.51095 0.0
H526 H 0.55418 0.43295 0.87318 0.0
H527 H 0.55971 0.38099 0.87458 0.0
H528 H 0.48298 0.33378 0.83599 0.0
H529 H 0.4773 0.38543 0.83452 0.0
H530 H 0.51389 0.30159 0.87518 0.0
H531 H 0.52881 0.32456 0.80503 0.0
H532 H 0.54334 0.37181 0.78494 0.0
H533 H 0.60827 0.44651 0.82133 0.0
H534 H 0.59455 0.39967 0.84151 0.0
H535 H 0.51882 0.16518 0.82998 0.0
H536 H 0.50793 0.20825 0.84332 0.0
H537 H 0.61381 0.28707 0.834 0.0
H538 H 0.62445 0.24429 0.82036 0.0
H539 H 0.57211 0.306 0.82182 0.0
H540 H 0.58207 0.26067 0.87396 0.0
H541 H 0.57018 0.21597 0.89509 0.0
H542 H 0.46349 0.18963 0.89681 0.0
H543 H 0.47462 0.23386 0.87551 0.0
C544 C 0.53748 0.41091 0.86549 0.0
C545 C 0.51579 0.41331 0.85351 0.0
C546 C 0.54054 0.38122 0.86637 0.0
C547 C 0.52203 0.35387 0.85526 0.0
C548 C 0.49749 0.35474 0.84464 0.0
C549 C 0.49438 0.3843 0.84377 0.0
C550 C 0.53355 0.3286 0.85202 0.0
C551 C 0.52662 0.30234 0.86356 0.0
C552 C 0.55099 0.33041 0.83705 0.0
C553 C 0.56036 0.35865 0.82481 0.0
C554 C 0.54633 0.35106 0.80869 0.0
C555 C 0.5544 0.37777 0.7973 0.0
C556 C 0.57661 0.41215 0.80188 0.0
C557 C 0.59097 0.41989 0.81783 0.0
C558 C 0.58303 0.39327 0.82924 0.0
C559 C 0.53993 0.19154 0.83118 0.0
C560 C 0.57235 0.2016 0.82401 0.0
C561 C 0.53374 0.2161 0.83884 0.0
C562 C 0.56006 0.25092 0.83965 0.0
C563 C 0.59307 0.26041 0.83344 0.0
C564 C 0.59912 0.23602 0.82564 0.0
C565 C 0.55219 0.27815 0.84489 0.0
C566 C 0.55967 0.305 0.83358 0.0
C567 C 0.53596 0.27707 0.86022 0.0
C568 C 0.52913 0.2504 0.87302 0.0
C569 C 0.556 0.24515 0.87873 0.0
C570 C 0.54941 0.21994 0.89077 0.0
C571 C 0.51608 0.19992 0.89726 0.0
C572 C 0.48929 0.20514 0.89176 0.0
C573 C 0.49573 0.23031 0.87972 0.0
H574 H 0.51104 0.18042 0.90658 0.0
H575 H 0.58275 0.43279 0.79306 0.0
H576 H 0.47333 0.92494 0.49613 0.0
H577 H 0.47228 0.86965 0.49824 0.0
H578 H 0.58113 0.92361 0.51004 0.0
H579 H 0.58253 0.97895 0.50784 0.0
H580 H 0.56626 0.87291 0.48787 0.0
H581 H 0.51865 0.88372 0.53964 0.0
H582 H 0.47797 0.8908 0.55775 0.0
H583 H 0.39337 0.7968 0.53849 0.0
H584 H 0.43338 0.78969 0.51989 0.0
H585 H 0.58954 0.74063 0.52338 0.0
H586 H 0.58521 0.79191 0.51721 0.0
H587 H 0.47598 0.72754 0.50769 0.0
H588 H 0.48 0.67589 0.51435 0.0
H589 H 0.48726 0.78112 0.52692 0.0
H590 H 0.53435 0.76908 0.47578 0.0
H591 H 0.57464 0.76146 0.45762 0.0
H592 H 0.65948 0.85665 0.47571 0.0
H593 H 0.61976 0.86461 0.49416 0.0
C594 C 0.49713 0.92515 0.49914 0.0
C595 C 0.52804 0.95664 0.50185 0.0
C596 C 0.49642 0.89339 0.50042 0.0
C597 C 0.52656 0.89226 0.50445 0.0
C598 C 0.5575 0.92365 0.50691 0.0
C599 C 0.55822 0.95538 0.5057 0.0
C600 C 0.52608 0.85856 0.50616 0.0
C601 C 0.54919 0.853 0.49654 0.0
C602 C 0.50312 0.83197 0.5171 0.0
C603 C 0.47899 0.83643 0.52819 0.0
C604 C 0.49131 0.86479 0.53909 0.0
C605 C 0.46837 0.8688 0.54947 0.0
C606 C 0.43308 0.84435 0.54922 0.0
C607 C 0.42069 0.81578 0.53864 0.0
C608 C 0.44348 0.81181 0.52814 0.0
C609 C 0.56455 0.73725 0.51992 0.0
C610 C 0.53509 0.70397 0.51943 0.0
C611 C 0.56216 0.76671 0.51625 0.0
C612 C 0.5303 0.76382 0.51184 0.0
C613 C 0.5009 0.73058 0.51103 0.0
C614 C 0.50329 0.70099 0.51468 0.0
C615 C 0.52771 0.79563 0.50875 0.0
C616 C 0.50409 0.80087 0.51813 0.0
C617 C 0.55011 0.82192 0.49756 0.0
C618 C 0.5741 0.81729 0.48645 0.0
C619 C 0.56164 0.78826 0.47598 0.0
C620 C 0.58437 0.7839 0.46562 0.0
C621 C 0.61961 0.80851 0.46554 0.0
C622 C 0.63218 0.83759 0.4758 0.0
C623 C 0.60956 0.84206 0.48619 0.0
H624 H 0.63717 0.80509 0.45751 0.0
H625 H 0.41536 0.84747 0.55726 0.0
H626 H 0.63648 0.50103 0.8413 0.0
H627 H 0.69195 0.50297 0.84368 0.0
H628 H 0.74307 0.60379 0.82065 0.0
H629 H 0.68746 0.60226 0.81841 0.0
H630 H 0.73946 0.50657 0.82299 0.0
H631 H 0.8239 0.65198 0.83792 0.0
H632 H 0.81782 0.69945 0.85013 0.0
H633 H 0.7301 0.62599 0.87855 0.0
H634 H 0.73597 0.57818 0.86669 0.0
H635 H 0.91441 0.5411 0.8289 0.0
H636 H 0.8639 0.54593 0.82063 0.0
H637 H 0.84823 0.56407 0.87175 0.0
H638 H 0.89904 0.56069 0.8799 0.0
H639 H 0.8356 0.60379 0.85331 0.0
H640 H 0.80081 0.48266 0.85221 0.0
H641 H 0.80371 0.43126 0.84327 0.0
H642 H 0.78708 0.44976 0.79257 0.0
H643 H 0.78451 0.50154 0.8012 0.0
C644 C 0.6594 0.52361 0.83661 0.0
C645 C 0.65731 0.55159 0.82973 0.0
C646 C 0.69124 0.5246 0.83794 0.0
C647 C 0.72198 0.55366 0.83252 0.0
C648 C 0.7199 0.58124 0.82516 0.0
C649 C 0.68798 0.58027 0.82382 0.0
C650 C 0.75609 0.55534 0.83519 0.0
C651 C 0.76056 0.52801 0.82949 0.0
C652 C 0.78367 0.58295 0.8439 0.0
C653 C 0.78014 0.61152 0.85125 0.0
C654 C 0.80339 0.646 0.84681 0.0
C655 C 0.79997 0.67295 0.85366 0.0
C656 C 0.77351 0.66573 0.86506 0.0
C657 C 0.7505 0.63154 0.86967 0.0
C658 C 0.75384 0.60451 0.86287 0.0
C659 C 0.90049 0.54662 0.83832 0.0
C660 C 0.91064 0.54996 0.85512 0.0
C661 C 0.87135 0.54906 0.83361 0.0
C662 C 0.85165 0.5548 0.84558 0.0
C663 C 0.86266 0.55948 0.86222 0.0
C664 C 0.89166 0.55715 0.86691 0.0
C665 C 0.81903 0.55498 0.84113 0.0
C666 C 0.81477 0.58264 0.84652 0.0
C667 C 0.79133 0.52724 0.83252 0.0
C668 C 0.79289 0.49617 0.82732 0.0
C669 C 0.79804 0.4759 0.83914 0.0
C670 C 0.79958 0.44669 0.83413 0.0
C671 C 0.79569 0.43731 0.81736 0.0
C672 C 0.79016 0.45709 0.80555 0.0
C673 C 0.78865 0.48637 0.81049 0.0
H674 H 0.79688 0.41468 0.8135 0.0
H675 H 0.77089 0.68662 0.87034 0.0
H676 H 0.09744 0.61962 0.19208 0.0
H677 H 0.15175 0.67417 0.19487 0.0
H678 H 0.19542 0.64511 0.15431 0.0
H679 H 0.14153 0.58964 0.15204 0.0
H680 H 0.24272 0.67465 0.17592 0.0
H681 H 0.16659 0.70758 0.15084 0.0
H682 H 0.11347 0.71115 0.14737 0.0
H683 H 0.13157 0.76277 0.19444 0.0
H684 H 0.18457 0.75911 0.1983 0.0
H685 H 0.38521 0.85066 0.16749 0.0
H686 H 0.33292 0.79509 0.16189 0.0
H687 H 0.28829 0.80316 0.20803 0.0
H688 H 0.34054 0.85757 0.21409 0.0
H689 H 0.24274 0.78549 0.18106 0.0
H690 H 0.31937 0.74975 0.20549 0.0
H691 H 0.3733 0.74721 0.20723 0.0
H692 H 0.35493 0.70242 0.15843 0.0
H693 H 0.30109 0.70515 0.1563 0.0
C694 C 0.11854 0.62485 0.1837 0.0
C695 C 0.11496 0.60025 0.17176 0.0
C696 C 0.14967 0.65628 0.18524 0.0
C697 C 0.1778 0.66447 0.17457 0.0
C698 C 0.1743 0.63973 0.1627 0.0
C699 C 0.14335 0.60797 0.16137 0.0
C700 C 0.21085 0.6985 0.17597 0.0
C701 C 0.2426 0.69887 0.17675 0.0
C702 C 0.2112 0.73043 0.1772 0.0
C703 C 0.1794 0.7328 0.17492 0.0
C704 C 0.15912 0.71949 0.1605 0.0
C705 C 0.12905 0.72156 0.15846 0.0
C706 C 0.11911 0.73711 0.1707 0.0
C707 C 0.13928 0.7507 0.18498 0.0
C708 C 0.16936 0.74867 0.18709 0.0
C709 C 0.3645 0.84051 0.17656 0.0
C710 C 0.36732 0.85919 0.19119 0.0
C711 C 0.33448 0.80872 0.17329 0.0
C712 C 0.30653 0.79491 0.18451 0.0
C713 C 0.30929 0.81337 0.19909 0.0
C714 C 0.33929 0.8448 0.20246 0.0
C715 C 0.2742 0.76137 0.18122 0.0
C716 C 0.24267 0.76118 0.18008 0.0
C717 C 0.27415 0.72978 0.17935 0.0
C718 C 0.30642 0.72802 0.18066 0.0
C719 C 0.32699 0.73965 0.19507 0.0
C720 C 0.35751 0.73812 0.19614 0.0
C721 C 0.36759 0.72476 0.18293 0.0
C722 C 0.34712 0.71281 0.16864 0.0
C723 C 0.31659 0.71433 0.1675 0.0
H724 H 0.39122 0.72359 0.18379 0.0
H725 H 0.09582 0.73868 0.16909 0.0
H726 H 0.58118 0.18071 0.50428 0.0
H727 H 0.5803 0.23469 0.50708 0.0
H728 H 0.4731 0.1829 0.49224 0.0
H729 H 0.4738 0.12852 0.48921 0.0
H730 H 0.50856 0.24747 0.47849 0.0
H731 H 0.49446 0.19886 0.53282 0.0
H732 H 0.50873 0.173 0.55649 0.0
H733 H 0.60733 0.26556 0.56167 0.0
H734 H 0.5939 0.29177 0.53783 0.0
H735 H 0.48113 0.38358 0.51051 0.0
H736 H 0.47771 0.32836 0.50355 0.0
H737 H 0.5834 0.36916 0.5195 0.0
H738 H 0.5869 0.42406 0.52645 0.0
H739 H 0.54424 0.30757 0.53288 0.0
H740 H 0.55849 0.35518 0.47766 0.0
H741 H 0.54384 0.38008 0.45371 0.0
H742 H 0.44371 0.2888 0.45044 0.0
H743 H 0.45761 0.26353 0.47452 0.0
C744 C 0.55738 0.18065 0.50147 0.0
C745 C 0.52745 0.14995 0.49663 0.0
C746 C 0.55691 0.21167 0.50315 0.0
C747 C 0.52647 0.21291 0.50016 0.0
C748 C 0.4969 0.18268 0.49469 0.0
C749 C 0.49734 0.15153 0.49299 0.0
C750 C 0.52542 0.24546 0.50336 0.0
C751 C 0.5159 0.26036 0.49046 0.0
C752 C 0.53532 0.26264 0.51891 0.0
C753 C 0.54328 0.24718 0.53343 0.0
C754 C 0.51928 0.21363 0.53893 0.0
C755 C 0.52721 0.19891 0.55239 0.0
C756 C 0.55894 0.2176 0.56056 0.0
C757 C 0.58277 0.2511 0.55532 0.0
C758 C 0.575 0.26591 0.54184 0.0
C759 C 0.50383 0.38099 0.51223 0.0
C760 C 0.53421 0.40831 0.51916 0.0
C761 C 0.50184 0.3493 0.50829 0.0
C762 C 0.5303 0.34434 0.51101 0.0
C763 C 0.56094 0.37201 0.51741 0.0
C764 C 0.5629 0.40351 0.52138 0.0
C765 C 0.52808 0.31012 0.5079 0.0
C766 C 0.53684 0.29473 0.5209 0.0
C767 C 0.51733 0.29249 0.49248 0.0
C768 C 0.50895 0.30764 0.47801 0.0
C769 C 0.53324 0.34054 0.47192 0.0
C770 C 0.5251 0.35469 0.45831 0.0
C771 C 0.49283 0.33608 0.45059 0.0
C772 C 0.46867 0.30322 0.45645 0.0
C773 C 0.47668 0.28896 0.47007 0.0
H774 H 0.48657 0.34707 0.44005 0.0
H775 H 0.56503 0.20615 0.57097 0.0
H776 H 0.43229 0.49631 0.84767 0.0
H777 H 0.37749 0.49618 0.84962 0.0
H778 H 0.42583 0.59889 0.8287 0.0
H779 H 0.4809 0.59935 0.82679 0.0
H780 H 0.38476 0.59311 0.8549 0.0
H781 H 0.37253 0.52911 0.80516 0.0
H782 H 0.37359 0.48373 0.78811 0.0
H783 H 0.29504 0.40528 0.81903 0.0
H784 H 0.29387 0.45022 0.83643 0.0
H785 H 0.22385 0.58992 0.84572 0.0
H786 H 0.2794 0.59396 0.83887 0.0
H787 H 0.23981 0.48882 0.85543 0.0
H788 H 0.1841 0.48418 0.86157 0.0
H789 H 0.27793 0.49897 0.82932 0.0
H790 H 0.29308 0.56207 0.88025 0.0
H791 H 0.29248 0.60683 0.898 0.0
H792 H 0.36562 0.68621 0.86553 0.0
H793 H 0.36631 0.64185 0.84745 0.0
C794 C 0.43139 0.51894 0.84348 0.0
C795 C 0.46118 0.5478 0.83702 0.0
C796 C 0.39988 0.51876 0.84453 0.0
C797 C 0.39725 0.54737 0.83913 0.0
C798 C 0.42706 0.57645 0.83292 0.0
C799 C 0.45858 0.57661 0.8318 0.0
C800 C 0.36346 0.5469 0.84001 0.0
C801 C 0.36152 0.57282 0.84907 0.0
C802 C 0.33286 0.52016 0.83268 0.0
C803 C 0.33333 0.49306 0.82218 0.0
C804 C 0.35566 0.50219 0.8084 0.0
C805 C 0.35626 0.47654 0.79866 0.0
C806 C 0.33445 0.44164 0.8025 0.0
C807 C 0.31194 0.43232 0.81608 0.0
C808 C 0.31127 0.45787 0.82587 0.0
C809 C 0.22675 0.56744 0.84759 0.0
C810 C 0.19947 0.53686 0.85441 0.0
C811 C 0.25875 0.56991 0.84386 0.0
C812 C 0.2643 0.54194 0.84696 0.0
C813 C 0.23653 0.51092 0.85301 0.0
C814 C 0.20463 0.50839 0.85666 0.0
C815 C 0.29903 0.54491 0.84443 0.0
C816 C 0.30118 0.51944 0.83505 0.0
C817 C 0.32979 0.57197 0.85154 0.0
C818 C 0.32944 0.59864 0.8624 0.0
C819 C 0.30883 0.58906 0.87683 0.0
C820 C 0.30851 0.61436 0.88696 0.0
C821 C 0.32892 0.64934 0.88287 0.0
C822 C 0.34977 0.6591 0.86866 0.0
C823 C 0.35015 0.6339 0.85847 0.0
H824 H 0.32864 0.66889 0.89073 0.0
H825 H 0.33495 0.42182 0.79495 0.0
H826 H 0.89401 0.42441 0.17402 0.0
H827 H 0.83959 0.36994 0.17506 0.0
H828 H 0.89155 0.31543 0.15884 0.0
H829 H 0.94652 0.37049 0.15738 0.0
H830 H 0.82935 0.28739 0.14437 0.0
H831 H 0.86694 0.31136 0.2008 0.0
H832 H 0.88747 0.34307 0.22707 0.0
H833 H 0.80024 0.35936 0.22826 0.0
H834 H 0.77892 0.32716 0.20191 0.0
H835 H 0.68915 0.12304 0.17538 0.0
H836 H 0.74406 0.17451 0.16756 0.0
H837 H 0.70204 0.23964 0.18136 0.0
H838 H 0.64764 0.18863 0.18926 0.0
H839 H 0.76115 0.25994 0.19652 0.0
H840 H 0.7211 0.22952 0.14022 0.0
H841 H 0.6996 0.19143 0.11569 0.0
H842 H 0.79185 0.18367 0.11512 0.0
H843 H 0.8137 0.22136 0.13981 0.0
C844 C 0.8941 0.40096 0.17062 0.0
C845 C 0.92499 0.40205 0.16574 0.0
C846 C 0.86276 0.36961 0.1713 0.0
C847 C 0.86126 0.33818 0.16736 0.0
C848 C 0.89185 0.33918 0.16202 0.0
C849 C 0.92336 0.37074 0.16123 0.0
C850 C 0.82787 0.30459 0.16924 0.0
C851 C 0.81465 0.2812 0.15585 0.0
C852 C 0.80813 0.2963 0.18407 0.0
C853 C 0.82162 0.31725 0.19935 0.0
C854 C 0.85237 0.32206 0.20657 0.0
C855 C 0.86404 0.34 0.22154 0.0
C856 C 0.84529 0.35346 0.22937 0.0
C857 C 0.81477 0.34898 0.22219 0.0
C858 C 0.80281 0.33077 0.20727 0.0
C859 C 0.69142 0.14831 0.17638 0.0
C860 C 0.66411 0.15172 0.18313 0.0
C861 C 0.72286 0.17778 0.17189 0.0
C862 C 0.72744 0.21118 0.17389 0.0
C863 C 0.69944 0.21431 0.17979 0.0
C864 C 0.66828 0.18506 0.18434 0.0
C865 C 0.76204 0.24305 0.17157 0.0
C866 C 0.77564 0.26612 0.18497 0.0
C867 C 0.78198 0.25064 0.1568 0.0
C868 C 0.76887 0.22796 0.14198 0.0
C869 C 0.73666 0.21944 0.13496 0.0
C870 C 0.72444 0.19797 0.12101 0.0
C871 C 0.7443 0.18505 0.11388 0.0
C872 C 0.77647 0.19365 0.12067 0.0
C873 C 0.7888 0.21509 0.13463 0.0
H874 H 0.73479 0.16845 0.10307 0.0
H875 H 0.85424 0.36717 0.24103 0.0
H876 H 0.02496 0.5665 0.11565 0.0
H877 H 0.03065 0.56304 0.08562 0.0
H878 H 0.02239 0.46299 0.09132 0.0
H879 H 0.01649 0.46626 0.12161 0.0
H880 H 0.07504 0.50807 0.06855 0.0
H881 H 0.95423 0.46378 0.07845 0.0
H882 H 0.90339 0.46407 0.09035 0.0
H883 H 0.93038 0.55821 0.06417 0.0
H884 H 0.98172 0.55876 0.0523 0.0
H885 H 0.04791 0.47522 0.98075 0.0
H886 H 0.04402 0.47079 0.01114 0.0
H887 H 0.03494 0.56266 0.0132 0.0
H888 H 0.03839 0.56691 0.9829 0.0
H889 H 0.98836 0.51492 0.03243 0.0
H890 H 0.11051 0.56142 0.02362 0.0
H891 H 0.16289 0.56316 0.01247 0.0
H892 H 0.13514 0.46707 0.03689 0.0
H893 H 0.08223 0.46442 0.04795 0.0
C894 C 0.02446 0.54378 0.11054 0.0
C895 C 0.01996 0.51649 0.12092 0.0
C896 C 0.02768 0.54183 0.09338 0.0
C897 C 0.02652 0.51259 0.08624 0.0
C898 C 0.02321 0.48572 0.09661 0.0
C899 C 0.01974 0.48756 0.11385 0.0
C900 C 0.0278 0.51006 0.06789 0.0
C901 C 0.05581 0.50893 0.0606 0.0
C902 C 1.003 0.51184 0.05759 0.0
C903 C 0.97198 0.51144 0.06459 0.0
C904 C 0.94948 0.48468 0.07533 0.0
C905 C 0.92054 0.48467 0.08205 0.0
C906 C 0.9137 0.51118 0.07804 0.0
C907 C 0.93573 0.53771 0.06727 0.0
C908 C 0.96473 0.53786 0.06053 0.0
C909 C 0.04541 0.49463 0.98771 0.0
C910 C 0.04335 0.52137 0.97943 0.0
C911 C 0.04323 0.4921 0.00508 0.0
C912 C 0.03944 0.51654 0.0145 0.0
C913 C 0.0377 0.54339 0.00623 0.0
C914 C 0.0396 0.54577 0.98889 0.0
C915 C 0.03613 0.51377 0.03293 0.0
C916 C 0.00755 0.51377 0.04029 0.0
C917 C 0.06054 0.51111 0.04324 0.0
C918 C 0.09214 0.51249 0.03643 0.0
C919 C 0.11536 0.54045 0.02646 0.0
C920 C 0.14519 0.54164 0.02018 0.0
C921 C 0.15227 0.51517 0.02391 0.0
C922 C 0.12956 0.48749 0.03396 0.0
C923 C 0.09964 0.48613 0.04023 0.0
H924 H 0.17541 0.51617 0.01906 0.0
H925 H 0.89129 0.51113 0.08326 0.0
H926 H 0.48642 0.03165 0.45573 0.0
H927 H 0.47088 0.01803 0.42621 0.0
H928 H 0.57923 0.06972 0.41326 0.0
H929 H 0.59468 0.08309 0.44249 0.0
H930 H 0.48557 0.05925 0.39811 0.0
H931 H 0.59209 0.02399 0.38366 0.0
H932 H 0.62276 0.99827 0.39807 0.0
H933 H 0.53703 0.94489 0.43158 0.0
H934 H 0.50563 0.96986 0.41723 0.0
H935 H 0.52728 0.07508 0.31243 0.0
H936 H 0.52702 0.07779 0.34278 0.0
H937 H 0.48314 0.96709 0.34545 0.0
H938 H 0.48445 0.96432 0.31509 0.0
H939 H 0.53424 0.99739 0.36678 0.0
H940 H 0.43404 0.00489 0.35421 0.0
H941 H 0.39946 0.02673 0.34024 0.0
H942 H 0.46427 0.12734 0.36131 0.0
H943 H 0.49957 0.10623 0.37523 0.0
C944 C 0.50678 0.04011 0.44654 0.0
C945 C 0.5417 0.05819 0.45139 0.0
C946 C 0.49793 0.03243 0.42971 0.0
C947 C 0.52392 0.04246 0.41756 0.0
C948 C 0.55875 0.06123 0.42243 0.0
C949 C 0.56753 0.06895 0.43915 0.0
C950 C 0.5152 0.03324 0.39976 0.0
C951 C 0.49602 0.04558 0.39125 0.0
C952 C 0.52815 0.01467 0.3909 0.0
C953 C 0.54662 0.99903 0.39943 0.0
C954 C 0.5797 0.00661 0.39404 0.0
C955 C 0.59723 0.99219 0.40221 0.0
C956 C 0.58189 0.97003 0.41576 0.0
C957 C 0.54893 0.96215 0.42113 0.0
C958 C 0.53127 0.97646 0.41299 0.0
C959 C 0.5177 0.0513 0.31946 0.0
C960 C 0.50594 0.01948 0.31128 0.0
C961 C 0.51717 0.05284 0.33683 0.0
C962 C 0.50467 0.02259 0.34643 0.0
C963 C 0.49276 0.99077 0.33832 0.0
C964 C 0.49328 0.9892 0.32094 0.0
C965 C 0.50562 0.02446 0.36493 0.0
C966 C 0.52342 0.01077 0.37361 0.0
C967 C 0.49083 0.0412 0.37395 0.0
C968 C 0.46961 0.05402 0.36567 0.0
C969 C 0.44108 0.03174 0.35577 0.0
C970 C 0.42132 0.04398 0.34788 0.0
C971 C 0.4297 0.07842 0.34986 0.0
C972 C 0.45782 0.10067 0.35978 0.0
C973 C 0.47768 0.08857 0.36769 0.0
H974 H 0.41437 0.08785 0.34374 0.0
H975 H 0.59552 0.95893 0.42207 0.0
H976 H 0.59309 0.57966 0.78639 0.0
H977 H 0.59617 0.59006 0.75626 0.0
H978 H 0.49509 0.49996 0.75036 0.0
H979 H 0.49192 0.48948 0.78031 0.0
H980 H 0.54287 0.50098 0.72851 0.0
H981 H 0.50599 0.58015 0.7483 0.0
H982 H 0.51187 0.62882 0.76528 0.0
H983 H 0.60884 0.69701 0.74159 0.0
H984 H 0.60386 0.64859 0.72466 0.0
H985 H 0.49458 0.51217 0.64717 0.0
H986 H 0.49731 0.51104 0.67749 0.0
H987 H 0.5939 0.60775 0.67678 0.0
H988 H 0.59094 0.60928 0.64634 0.0
H989 H 0.55475 0.60698 0.70206 0.0
H990 H 0.59288 0.53121 0.68199 0.0
H991 H 0.59076 0.48376 0.66537 0.0
H992 H 0.4967 0.41088 0.68995 0.0
H993 H 0.49797 0.45799 0.70656 0.0
C994 C 0.5715 0.56224 0.77863 0.0
C995 C 0.54232 0.53369 0.78563 0.0
C996 C 0.57324 0.56825 0.76147 0.0
C997 C 0.54581 0.54581 0.75109 0.0
C998 C 0.51657 0.51753 0.75813 0.0
C999 C 0.51476 0.51161 0.77525 0.0
C1000 C 0.54768 0.55084 0.7328 0.0
C1001 C 0.54509 0.524 0.72272 0.0
C1002 C 0.55197 0.58147 0.72529 0.0
C1003 C 0.55471 0.61065 0.73532 0.0
C1004 C 0.52871 0.60546 0.7468 0.0
C1005 C 0.53186 0.63301 0.75641 0.0
C1006 C 0.56074 0.66597 0.75453 0.0
C1007 C 0.5865 0.67145 0.74304 0.0
C1008 C 0.58352 0.64397 0.73343 0.0
C1009 C 0.51642 0.53317 0.65347 0.0
C1010 C 0.54273 0.56061 0.64437 0.0
C1011 C 0.51797 0.53252 0.6708 0.0
C1012 C 0.54617 0.55898 0.67941 0.0
C1013 C 0.57196 0.58701 0.67041 0.0
C1014 C 0.57024 0.58785 0.65303 0.0
C1015 C 0.54895 0.55665 0.69775 0.0
C1016 C 0.55265 0.58401 0.70784 0.0
C1017 C 0.54618 0.52667 0.70533 0.0
C1018 C 0.54538 0.4982 0.69542 0.0
C1019 C 0.57161 0.5051 0.68377 0.0
C1020 C 0.57057 0.47826 0.67436 0.0
C1021 C 0.54357 0.44434 0.67658 0.0
C1022 C 0.51758 0.43718 0.68824 0.0
C1023 C 0.51846 0.46394 0.69766 0.0
H1024 H 0.54282 0.42359 0.66928 0.0
H1025 H 0.5631 0.68728 0.76195 0.0
H1026 H 0.56855 0.05695 0.54176 0.0
H1027 H 0.58893 0.07163 0.57045 0.0
H1028 H 0.50798 0.09546 0.58063 0.0
H1029 H 0.48835 0.08204 0.55177 0.0
H1030 H 0.56595 0.14035 0.59589 0.0
H1031 H 0.49916 0.01645 0.59076 0.0
H1032 H 0.48382 0.95981 0.57861 0.0
H1033 H 0.58376 0.97488 0.59184 0.0
H1034 H 0.59987 0.03185 0.60387 0.0
H1035 H 0.54912 0.11379 0.68359 0.0
H1036 H 0.54104 0.11227 0.65348 0.0
H1037 H 0.62721 0.09497 0.64649 0.0
H1038 H 0.63573 0.09686 0.6766 0.0
H1039 H 0.57052 0.04902 0.62926 0.0
H1040 H 0.63467 0.17209 0.63664 0.0
H1041 H 0.64783 0.22793 0.64899 0.0
H1042 H 0.55006 0.21327 0.63201 0.0
H1043 H 0.53606 0.15707 0.61977 0.0
C1044 C 0.55545 0.0658 0.55007 0.0
C1045 C 0.52677 0.06817 0.54464 0.0
C1046 C 0.56697 0.07398 0.56647 0.0
C1047 C 0.54955 0.084 0.57776 0.0
C1048 C 0.52172 0.08766 0.57214 0.0
C1049 C 0.51042 0.07982 0.5557 0.0
C1050 C 0.55916 0.08902 0.5956 0.0
C1051 C 0.56668 0.12029 0.60323 0.0
C1052 C 0.56066 0.06303 0.6051 0.0
C1053 C 0.55085 0.02857 0.59806 0.0
C1054 C 0.51794 0.00778 0.59098 0.0
C1055 C 0.5091 0.97561 0.58413 0.0
C1056 C 0.53284 0.9638 0.58441 0.0
C1057 C 0.56542 0.98409 0.5916 0.0
C1058 C 0.57442 0.01631 0.59845 0.0
C1059 C 0.56681 0.11037 0.67564 0.0
C1060 C 0.59305 0.1054 0.68249 0.0
C1061 C 0.5621 0.10943 0.65843 0.0
C1062 C 0.58366 0.1037 0.64775 0.0
C1063 C 0.61026 0.09936 0.65452 0.0
C1064 C 0.615 0.10033 0.67173 0.0
C1065 C 0.57722 0.10032 0.62959 0.0
C1066 C 0.57014 0.06924 0.6219 0.0
C1067 C 0.57578 0.12634 0.62011 0.0
C1068 C 0.58419 0.1602 0.62742 0.0
C1069 C 0.61585 0.18063 0.63566 0.0
C1070 C 0.62348 0.21237 0.64261 0.0
C1071 C 0.59976 0.2241 0.64132 0.0
C1072 C 0.56839 0.20414 0.63302 0.0
C1073 C 0.56061 0.17235 0.62606 0.0
H1074 H 0.60572 0.24869 0.64671 0.0
H1075 H 0.52596 0.9389 0.57908 0.0
H1076 H 0.52525 0.51912 0.87652 0.0
H1077 H 0.524 0.50378 0.90586 0.0
H1078 H 0.62785 0.58931 0.91213 0.0
H1079 H 0.62941 0.60447 0.88271 0.0
H1080 H 0.61843 0.53098 0.92813 0.0
H1081 H 0.56086 0.59756 0.92438 0.0
H1082 H 0.51811 0.61232 0.91348 0.0
H1083 H 0.4352 0.51384 0.92969 0.0
H1084 H 0.47751 0.49828 0.94048 0.0
H1085 H 0.6173 0.55082 0.01646 0.0
H1086 H 0.62188 0.55743 0.98619 0.0
H1087 H 0.51748 0.47236 0.98106 0.0
H1088 H 0.51282 0.4654 0.01127 0.0
H1089 H 0.52703 0.52877 0.96423 0.0
H1090 H 0.58532 0.46345 0.96929 0.0
H1091 H 0.6286 0.44947 0.98022 0.0
H1092 H 0.71068 0.54631 0.96187 0.0
H1093 H 0.66788 0.56111 0.95103 0.0
C1094 C 0.54785 0.53452 0.88415 0.0
C1095 C 0.57732 0.56313 0.87745 0.0
C1096 C 0.54709 0.52578 0.90088 0.0
C1097 C 0.5757 0.54567 0.91118 0.0
C1098 C 0.60551 0.57369 0.90438 0.0
C1099 C 0.60629 0.58242 0.88764 0.0
C1100 C 0.57403 0.53801 0.92918 0.0
C1101 C 0.59869 0.53082 0.93609 0.0
C1102 C 0.54787 0.53723 0.93944 0.0
C1103 C 0.52236 0.54662 0.93308 0.0
C1104 C 0.53352 0.57894 0.92551 0.0
C1105 C 0.50937 0.58747 0.91937 0.0
C1106 C 0.47396 0.56399 0.92085 0.0
C1107 C 0.46264 0.53198 0.92852 0.0
C1108 C 0.48669 0.5233 0.93467 0.0
C1109 C 0.59562 0.53303 0.00886 0.0
C1110 C 0.56462 0.50774 0.01624 0.0
C1111 C 0.59824 0.53687 0.99157 0.0
C1112 C 0.57001 0.51536 0.98139 0.0
C1113 C 0.53949 0.48933 0.9887 0.0
C1114 C 0.53685 0.48547 0.00595 0.0
C1115 C 0.57134 0.52154 0.96324 0.0
C1116 C 0.54666 0.52866 0.95629 0.0
C1117 C 0.59756 0.52236 0.953 0.0
C1118 C 0.62338 0.51353 0.95949 0.0
C1119 C 0.6126 0.48191 0.96771 0.0
C1120 C 0.63705 0.4738 0.97387 0.0
C1121 C 0.67237 0.49702 0.97178 0.0
C1122 C 0.68331 0.52837 0.9635 0.0
C1123 C 0.65897 0.53661 0.95733 0.0
H1124 H 0.69125 0.4907 0.97655 0.0
H1125 H 0.4553 0.57064 0.91608 0.0
H1126 H 0.03797 0.4495 0.22071 0.0
H1127 H 0.03778 0.4581 0.2507 0.0
H1128 H 0.0156 0.54077 0.24231 0.0
H1129 H 0.01787 0.53352 0.21221 0.0
H1130 H 0.05986 0.5575 0.26686 0.0
H1131 H 0.95275 0.45565 0.25249 0.0
H1132 H 0.91769 0.39827 0.24009 0.0
H1133 H 0.96188 0.35597 0.27379 0.0
H1134 H 0.99854 0.41383 0.28596 0.0
H1135 H 0.99755 0.5589 0.34814 0.0
H1136 H 1.00351 0.55467 0.31809 0.0
H1137 H 0.02599 0.47211 0.32611 0.0
H1138 H 0.01925 0.47576 0.3561 0.0
H1139 H 0.9825 0.45627 0.30183 0.0
H1140 H 0.09003 0.55665 0.31621 0.0
H1141 H 0.12759 0.61429 0.32838 0.0
H1142 H 0.08363 0.6583 0.29564 0.0
H1143 H 0.04543 0.60081 0.28343 0.0
C1144 C 0.03307 0.46951 0.22528 0.0
C1145 C 0.02744 0.49055 0.2142 0.0
C1146 C 0.03291 0.47438 0.24241 0.0
C1147 C 0.02593 0.4996 0.24879 0.0
C1148 C 0.0209 0.52106 0.23769 0.0
C1149 C 0.02188 0.51672 0.22052 0.0
C1150 C 0.02287 0.5029 0.26701 0.0
C1151 C 0.04264 0.53546 0.27448 0.0
C1152 C 1.00108 0.474 0.27707 0.0
C1153 C 0.97858 0.43911 0.27001 0.0
C1154 C 0.95517 0.43417 0.25719 0.0
C1155 C 0.93498 0.40147 0.2502 0.0
C1156 C 0.93732 0.37326 0.25619 0.0
C1157 C 0.96006 0.37781 0.26916 0.0
C1158 C 0.98066 0.4106 0.27606 0.0
C1159 C 1.00375 0.53987 0.34344 0.0
C1160 C 0.00788 0.51759 0.35438 0.0
C1161 C 0.00737 0.53762 0.32631 0.0
C1162 C 0.01579 0.51348 0.31987 0.0
C1163 C 0.01954 0.49097 0.3308 0.0
C1164 C 0.01552 0.49294 0.3479 0.0
C1165 C 0.01959 0.51078 0.30171 0.0
C1166 C 0.99983 0.47833 0.29424 0.0
C1167 C 0.04159 0.53973 0.29174 0.0
C1168 C 0.06463 0.57436 0.29902 0.0
C1169 C 0.08818 0.57857 0.31169 0.0
C1170 C 0.10962 0.61122 0.31858 0.0
C1171 C 0.10793 0.63992 0.31282 0.0
C1172 C 0.08487 0.63604 0.30011 0.0
C1173 C 0.06334 0.60343 0.29319 0.0
H1174 H 0.12455 0.66518 0.31817 0.0
H1175 H 0.92158 0.34786 0.25083 0.0
loop_
_geom_bond_atom_site_label_1
_geom_bond_atom_site_label_2
_geom_bond_distance
_geom_bond_site_symmetry_2
_ccdc_geom_bond_type
Dy0 O4 2.398 . S
Dy0 O5 2.491 . S
Dy0 O6 2.403 . S
Dy0 O7 2.664 . S
Dy0 O11 2.326 . S
Dy0 O15 2.310 . S
Dy0 O16 2.330 1_455 S
C1 O12 1.185 . S
C1 O13 1.355 . S
C2 O4 1.185 . S
C2 O5 1.355 . S
Dy3 O7 2.310 . S
Dy3 O10 2.351 . S
Dy3 O12 2.398 1_455 S
Dy3 O13 2.491 1_455 S
Dy3 O14 2.403 . S
Dy3 O15 2.664 . S
Dy3 O17 2.326 1_455 S
O4 Dy0 2.398 . S
O4 C2 1.185 . S
O5 Dy0 2.491 . S
O5 C2 1.355 . S
O6 Dy0 2.403 . S
O6 C8 1.254 . S
O7 Dy0 2.664 . S
O7 Dy3 2.310 . S
O7 C8 1.268 . S
C8 O6 1.254 . S
C8 O7 1.268 . S
C9 O14 1.254 . S
C9 O15 1.268 . S
O10 Dy3 2.351 . S
O10 C18 1.249 . S
O11 Dy0 2.326 . S
O11 C18 1.267 . S
O12 C1 1.185 . S
O12 Dy3 2.398 1_655 S
O13 C1 1.355 . S
O13 Dy3 2.491 1_655 S
O14 Dy3 2.403 . S
O14 C9 1.254 . S
O15 Dy0 2.310 . S
O15 Dy3 2.664 . S
O15 C9 1.268 . S
O16 Dy0 2.330 1_655 S
O16 C19 1.277 . S
O17 Dy3 2.326 1_655 S
O17 C19 1.267 . S
C18 O10 1.249 . S
C18 O11 1.267 . S
C19 O16 1.277 . S
C19 O17 1.267 . S
Dy20 O24 2.398 1_545 S
Dy20 O25 2.491 1_545 S
Dy20 O26 2.403 . S
Dy20 O27 2.664 . S
Dy20 O31 2.326 1_545 S
Dy20 O35 2.310 . S
Dy20 O36 2.351 . S
C21 O32 1.185 . S
C21 O33 1.355 . S
C22 O24 1.185 . S
C22 O25 1.355 . S
Dy23 O27 2.310 . S
Dy23 O30 2.351 . S
Dy23 O32 2.398 . S
Dy23 O33 2.491 . S
Dy23 O34 2.403 . S
Dy23 O35 2.664 . S
Dy23 O37 2.326 . S
O24 Dy20 2.398 1_565 S
O24 C22 1.185 . S
O25 Dy20 2.491 1_565 S
O25 C22 1.355 . S
O26 Dy20 2.403 . S
O26 C28 1.254 . S
O27 Dy20 2.664 . S
O27 Dy23 2.310 . S
O27 C28 1.268 . S
C28 O26 1.254 . S
C28 O27 1.268 . S
C29 O34 1.254 . S
C29 O35 1.268 . S
O30 Dy23 2.351 . S
O30 C38 1.249 1_545 S
O31 Dy20 2.326 1_565 S
O31 C38 1.267 . S
O32 C21 1.185 . S
O32 Dy23 2.398 . S
O33 C21 1.355 . S
O33 Dy23 2.491 . S
O34 Dy23 2.403 . S
O34 C29 1.254 . S
O35 Dy20 2.310 . S
O35 Dy23 2.664 . S
O35 C29 1.268 . S
O36 Dy20 2.351 . S
O36 C39 1.249 . S
O37 Dy23 2.326 . S
O37 C39 1.267 . S
C38 O30 1.249 1_565 S
C38 O31 1.267 . S
C39 O36 1.249 . S
C39 O37 1.267 . S
Dy40 O44 2.398 . S
Dy40 O45 2.491 . S
Dy40 O46 2.403 . S
Dy40 O47 2.664 . S
Dy40 O51 2.326 . S
Dy40 O55 2.310 . S
Dy40 O56 2.351 . S
C41 O52 1.185 . S
C41 O53 1.355 . S
C42 O44 1.185 . S
C42 O45 1.355 . S
Dy43 O47 2.310 . S
Dy43 O50 2.351 . S
Dy43 O52 2.398 . S
Dy43 O53 2.491 . S
Dy43 O54 2.403 . S
Dy43 O55 2.664 . S
Dy43 O57 2.326 . S
O44 Dy40 2.398 . S
O44 C42 1.185 . S
O45 Dy40 2.491 . S
O45 C42 1.355 . S
O46 Dy40 2.403 . S
O46 C48 1.254 . S
O47 Dy40 2.664 . S
O47 Dy43 2.310 . S
O47 C48 1.268 . S
C48 O46 1.254 . S
C48 O47 1.268 . S
C49 O54 1.254 . S
C49 O55 1.268 . S
O50 Dy43 2.351 . S
O50 C58 1.249 . S
O51 Dy40 2.326 . S
O51 C58 1.267 . S
O52 C41 1.185 . S
O52 Dy43 2.398 . S
O53 C41 1.355 . S
O53 Dy43 2.491 . S
O54 Dy43 2.403 . S
O54 C49 1.254 . S
O55 Dy40 2.310 . S
O55 Dy43 2.664 . S
O55 C49 1.268 . S
O56 Dy40 2.351 . S
O56 C59 1.249 . S
O57 Dy43 2.326 . S
O57 C59 1.267 . S
C58 O50 1.249 . S
C58 O51 1.267 . S
C59 O56 1.249 . S
C59 O57 1.267 . S
C60 C61 1.384 . S
C60 H73 0.947 . S
C60 C95 1.382 . S
C61 C60 1.384 . S
C61 C62 1.378 . S
C62 C61 1.378 . S
C62 C63 1.378 . S
C62 H74 0.952 . S
C63 C62 1.378 . S
C63 H75 0.950 . S
C63 C94 1.383 . S
H64 C83 0.947 . S
H65 C84 0.946 . S
H66 C86 0.953 . S
H67 C87 0.945 . S
H68 C89 0.952 . S
H69 C90 0.949 . S
H70 C92 0.950 . S
H71 C93 0.948 . S
H72 C95 0.951 . S
H73 C60 0.947 . S
H74 C62 0.952 . S
H75 C63 0.950 . S
N76 C79 1.382 . S
N76 C81 1.363 1_545 S
N77 C79 1.371 . S
N77 C80 1.372 . S
N78 C80 1.361 1_565 S
N78 C81 1.377 . S
C79 N76 1.382 . S
C79 N77 1.371 . S
C79 C82 1.480 . S
C80 N77 1.372 . S
C80 N78 1.361 1_545 S
C80 C88 1.457 . S
C81 N76 1.363 1_565 S
C81 N78 1.377 . S
C81 C94 1.479 . S
C82 C79 1.480 . S
C82 C83 1.383 . S
C82 C87 1.385 . S
C83 H64 0.947 . S
C83 C82 1.383 . S
C83 C84 1.388 . S
C84 H65 0.946 . S
C84 C83 1.388 . S
C84 C85 1.384 . S
C85 C84 1.384 . S
C85 C86 1.377 . S
C86 H66 0.953 . S
C86 C85 1.377 . S
C86 C87 1.369 . S
C87 H67 0.945 . S
C87 C82 1.385 . S
C87 C86 1.369 . S
C88 C80 1.457 . S
C88 C89 1.372 . S
C88 C93 1.364 1_545 S
C89 H68 0.952 . S
C89 C88 1.372 . S
C89 C90 1.389 . S
C90 H69 0.949 . S
C90 C89 1.389 . S
C90 C91 1.387 . S
C91 C90 1.387 . S
C91 C92 1.372 1_545 S
C92 H70 0.950 . S
C92 C91 1.372 1_565 S
C92 C93 1.379 . S
C93 H71 0.948 . S
C93 C88 1.364 1_565 S
C93 C92 1.379 . S
C94 C63 1.383 . S
C94 C81 1.479 . S
C94 C95 1.398 . S
C95 C60 1.382 . S
C95 H72 0.951 . S
C95 C94 1.398 . S
C96 C97 1.384 . S
C96 H109 0.947 . S
C96 C131 1.382 . S
C97 C96 1.384 . S
C97 C98 1.378 . S
C98 C97 1.378 . S
C98 C99 1.378 . S
C98 H110 0.952 . S
C99 C98 1.378 . S
C99 H111 0.950 . S
C99 C130 1.383 . S
H100 C119 0.947 . S
H101 C120 0.946 . S
H102 C122 0.953 . S
H103 C123 0.945 . S
H104 C125 0.952 . S
H105 C126 0.949 . S
H106 C128 0.950 . S
H107 C129 0.948 . S
H108 C131 0.951 . S
H109 C96 0.947 . S
H110 C98 0.952 . S
H111 C99 0.950 . S
N112 C115 1.382 . S
N112 C117 1.363 . S
N113 C115 1.371 . S
N113 C116 1.372 . S
N114 C116 1.361 . S
N114 C117 1.377 . S
C115 N112 1.382 . S
C115 N113 1.371 . S
C115 C118 1.480 . S
C116 N113 1.372 . S
C116 N114 1.361 . S
C116 C124 1.457 . S
C117 N112 1.363 . S
C117 N114 1.377 . S
C117 C130 1.479 . S
C118 C115 1.480 . S
C118 C119 1.383 . S
C118 C123 1.385 . S
C119 H100 0.947 . S
C119 C118 1.383 . S
C119 C120 1.388 . S
C120 H101 0.946 . S
C120 C119 1.388 . S
C120 C121 1.384 . S
C121 C120 1.384 . S
C121 C122 1.377 . S
C122 H102 0.953 . S
C122 C121 1.377 . S
C122 C123 1.369 . S
C123 H103 0.945 . S
C123 C118 1.385 . S
C123 C122 1.369 . S
C124 C116 1.457 . S
C124 C125 1.372 . S
C124 C129 1.364 . S
C125 H104 0.952 . S
C125 C124 1.372 . S
C125 C126 1.389 . S
C126 H105 0.949 . S
C126 C125 1.389 . S
C126 C127 1.387 . S
C127 C126 1.387 . S
C127 C128 1.372 . S
C128 H106 0.950 . S
C128 C127 1.372 . S
C128 C129 1.379 . S
C129 H107 0.948 . S
C129 C124 1.364 . S
C129 C128 1.379 . S
C130 C99 1.383 . S
C130 C117 1.479 . S
C130 C131 1.398 . S
C131 C96 1.382 . S
C131 H108 0.951 . S
C131 C130 1.398 . S
C132 C133 1.384 . S
C132 H145 0.947 . S
C132 C167 1.382 . S
C133 C132 1.384 . S
C133 C134 1.378 . S
C134 C133 1.378 . S
C134 C135 1.378 1_655 S
C134 H146 0.952 . S
C135 C134 1.378 1_455 S
C135 H147 0.950 . S
C135 C166 1.383 . S
H136 C155 0.947 . S
H137 C156 0.946 . S
H138 C158 0.953 . S
H139 C159 0.945 . S
H140 C161 0.952 . S
H141 C162 0.949 . S
H142 C164 0.950 . S
H143 C165 0.948 . S
H144 C167 0.951 . S
H145 C132 0.947 . S
H146 C134 0.952 . S
H147 C135 0.950 . S
N148 C151 1.382 . S
N148 C153 1.363 . S
N149 C151 1.371 . S
N149 C152 1.372 . S
N150 C152 1.361 . S
N150 C153 1.377 . S
C151 N148 1.382 . S
C151 N149 1.371 . S
C151 C154 1.480 . S
C152 N149 1.372 . S
C152 N150 1.361 . S
C152 C160 1.457 . S
C153 N148 1.363 . S
C153 N150 1.377 . S
C153 C166 1.479 . S
C154 C151 1.480 . S
C154 C155 1.383 . S
C154 C159 1.385 . S
C155 H136 0.947 . S
C155 C154 1.383 . S
C155 C156 1.388 . S
C156 H137 0.946 . S
C156 C155 1.388 . S
C156 C157 1.384 . S
C157 C156 1.384 . S
C157 C158 1.377 . S
C158 H138 0.953 . S
C158 C157 1.377 . S
C158 C159 1.369 . S
C159 H139 0.945 . S
C159 C154 1.385 . S
C159 C158 1.369 . S
C160 C152 1.457 . S
C160 C161 1.372 . S
C160 C165 1.364 . S
C161 H140 0.952 . S
C161 C160 1.372 . S
C161 C162 1.389 . S
C162 H141 0.949 . S
C162 C161 1.389 . S
C162 C163 1.387 . S
C163 C162 1.387 . S
C163 C164 1.372 . S
C164 H142 0.950 . S
C164 C163 1.372 . S
C164 C165 1.379 . S
C165 H143 0.948 . S
C165 C160 1.364 . S
C165 C164 1.379 . S
C166 C135 1.383 . S
C166 C153 1.479 . S
C166 C167 1.398 1_455 S
C167 C132 1.382 . S
C167 H144 0.951 . S
C167 C166 1.398 1_655 S
C168 C169 1.384 . S
C168 H181 0.947 . S
C168 C203 1.382 . S
C169 C168 1.384 . S
C169 C170 1.378 . S
C170 C169 1.378 . S
C170 C171 1.378 . S
C170 H182 0.952 . S
C171 C170 1.378 . S
C171 H183 0.950 . S
C171 C202 1.383 . S
H172 C191 0.947 . S
H173 C192 0.946 . S
H174 C194 0.953 . S
H175 C195 0.945 . S
H176 C197 0.952 . S
H177 C198 0.949 . S
H178 C200 0.950 . S
H179 C201 0.948 . S
H180 C203 0.951 . S
H181 C168 0.947 . S
H182 C170 0.952 . S
H183 C171 0.950 . S
N184 C187 1.382 1_455 S
N184 C189 1.363 . S
N185 C187 1.371 . S
N185 C188 1.372 1_655 S
N186 C188 1.361 . S
N186 C189 1.377 . S
C187 N184 1.382 1_655 S
C187 N185 1.371 . S
C187 C190 1.480 . S
C188 N185 1.372 1_455 S
C188 N186 1.361 . S
C188 C196 1.457 . S
C189 N184 1.363 . S
C189 N186 1.377 . S
C189 C202 1.479 . S
C190 C187 1.480 . S
C190 C191 1.383 . S
C190 C195 1.385 . S
C191 H172 0.947 . S
C191 C190 1.383 . S
C191 C192 1.388 . S
C192 H173 0.946 . S
C192 C191 1.388 . S
C192 C193 1.384 . S
C193 C192 1.384 . S
C193 C194 1.377 . S
C194 H174 0.953 . S
C194 C193 1.377 . S
C194 C195 1.369 . S
C195 H175 0.945 . S
C195 C190 1.385 . S
C195 C194 1.369 . S
C196 C188 1.457 . S
C196 C197 1.372 1_455 S
C196 C201 1.364 . S
C197 H176 0.952 . S
C197 C196 1.372 1_655 S
C197 C198 1.389 . S
C198 H177 0.949 . S
C198 C197 1.389 . S
C198 C199 1.387 1_655 S
C199 C198 1.387 1_455 S
C199 C200 1.372 . S
C200 H178 0.950 . S
C200 C199 1.372 . S
C200 C201 1.379 . S
C201 H179 0.948 . S
C201 C196 1.364 . S
C201 C200 1.379 . S
C202 C171 1.383 . S
C202 C189 1.479 . S
C202 C203 1.398 . S
C203 C168 1.382 . S
C203 H180 0.951 . S
C203 C202 1.398 . S
C204 C205 1.384 . S
C204 H217 0.947 . S
C204 C239 1.382 . S
C205 C204 1.384 . S
C205 C206 1.378 . S
C206 C205 1.378 . S
C206 C207 1.378 . S
C206 H218 0.952 . S
C207 C206 1.378 . S
C207 H219 0.950 . S
C207 C238 1.383 . S
H208 C227 0.947 . S
H209 C228 0.946 . S
H210 C230 0.953 . S
H211 C231 0.945 . S
H212 C233 0.952 . S
H213 C234 0.949 . S
H214 C236 0.950 . S
H215 C237 0.948 . S
H216 C239 0.951 . S
H217 C204 0.947 . S
H218 C206 0.952 . S
H219 C207 0.950 . S
N220 C223 1.382 . S
N220 C225 1.363 . S
N221 C223 1.371 . S
N221 C224 1.372 . S
N222 C224 1.361 . S
N222 C225 1.377 . S
C223 N220 1.382 . S
C223 N221 1.371 . S
C223 C226 1.480 . S
C224 N221 1.372 . S
C224 N222 1.361 . S
C224 C232 1.457 . S
C225 N220 1.363 . S
C225 N222 1.377 . S
C225 C238 1.479 . S
C226 C223 1.480 . S
C226 C227 1.383 . S
C226 C231 1.385 1_545 S
C227 H208 0.947 . S
C227 C226 1.383 . S
C227 C228 1.388 1_545 S
C228 H209 0.946 . S
C228 C227 1.388 1_565 S
C228 C229 1.384 . S
C229 C228 1.384 . S
C229 C230 1.377 . S
C230 H210 0.953 . S
C230 C229 1.377 . S
C230 C231 1.369 . S
C231 H211 0.945 . S
C231 C226 1.385 1_565 S
C231 C230 1.369 . S
C232 C224 1.457 . S
C232 C233 1.372 . S
C232 C237 1.364 . S
C233 H212 0.952 . S
C233 C232 1.372 . S
C233 C234 1.389 . S
C234 H213 0.949 . S
C234 C233 1.389 . S
C234 C235 1.387 . S
C235 C234 1.387 . S
C235 C236 1.372 . S
C236 H214 0.950 . S
C236 C235 1.372 . S
C236 C237 1.379 . S
C237 H215 0.948 . S
C237 C232 1.364 . S
C237 C236 1.379 . S
C238 C207 1.383 . S
C238 C225 1.479 . S
C238 C239 1.398 . S
C239 C204 1.382 . S
C239 H216 0.951 . S
C239 C238 1.398 . S
C240 C241 1.384 . S
C240 H253 0.947 . S
C240 C275 1.382 . S
C241 C240 1.384 . S
C241 C242 1.378 . S
C242 C241 1.378 . S
C242 C243 1.378 . S
C242 H254 0.952 . S
C243 C242 1.378 . S
C243 H255 0.950 . S
C243 C274 1.383 . S
H244 C263 0.947 . S
H245 C264 0.946 . S
H246 C266 0.953 . S
H247 C267 0.945 . S
H248 C269 0.952 . S
H249 C270 0.949 . S
H250 C272 0.950 . S
H251 C273 0.948 . S
H252 C275 0.951 . S
H253 C240 0.947 . S
H254 C242 0.952 . S
H255 C243 0.950 . S
N256 C259 1.382 . S
N256 C261 1.363 . S
N257 C259 1.371 . S
N257 C260 1.372 . S
N258 C260 1.361 . S
N258 C261 1.377 . S
C259 N256 1.382 . S
C259 N257 1.371 . S
C259 C262 1.480 . S
C260 N257 1.372 . S
C260 N258 1.361 . S
C260 C268 1.457 . S
C261 N256 1.363 . S
C261 N258 1.377 . S
C261 C274 1.479 . S
C262 C259 1.480 . S
C262 C263 1.383 . S
C262 C267 1.385 . S
C263 H244 0.947 . S
C263 C262 1.383 . S
C263 C264 1.388 . S
C264 H245 0.946 . S
C264 C263 1.388 . S
C264 C265 1.384 . S
C265 C264 1.384 . S
C265 C266 1.377 . S
C266 H246 0.953 . S
C266 C265 1.377 . S
C266 C267 1.369 . S
C267 H247 0.945 . S
C267 C262 1.385 . S
C267 C266 1.369 . S
C268 C260 1.457 . S
C268 C269 1.372 . S
C268 C273 1.364 . S
C269 H248 0.952 . S
C269 C268 1.372 . S
C269 C270 1.389 . S
C270 H249 0.949 . S
C270 C269 1.389 . S
C270 C271 1.387 . S
C271 C270 1.387 . S
C271 C272 1.372 . S
C272 H250 0.950 . S
C272 C271 1.372 . S
C272 C273 1.379 . S
C273 H251 0.948 . S
C273 C268 1.364 . S
C273 C272 1.379 . S
C274 C243 1.383 . S
C274 C261 1.479 . S
C274 C275 1.398 . S
C275 C240 1.382 . S
C275 H252 0.951 . S
C275 C274 1.398 . S
H276 C294 0.951 . S
H277 C296 0.951 . S
H278 C298 0.950 . S
H279 C299 0.950 . S
H280 C301 0.950 . S
H281 C304 0.950 . S
H282 C305 0.950 . S
H283 C307 0.950 . S
H284 C308 0.950 . S
H285 C309 0.951 . S
H286 C311 0.951 . S
H287 C313 0.950 . S
H288 C314 0.950 . S
H289 C316 0.950 . S
H290 C319 0.950 . S
H291 C320 0.950 . S
H292 C322 0.950 . S
H293 C323 0.950 . S
C294 H276 0.951 . S
C294 C295 1.366 . S
C294 C296 1.388 . S
C295 C294 1.366 . S
C295 C299 1.385 . S
C296 H277 0.951 . S
C296 C294 1.388 . S
C296 C297 1.366 . S
C297 C296 1.366 . S
C297 C298 1.414 . S
C297 C300 1.499 . S
C298 H278 0.950 . S
C298 C297 1.414 . S
C298 C299 1.374 . S
C299 H279 0.950 . S
C299 C295 1.385 . S
C299 C298 1.374 . S
C300 C297 1.499 . S
C300 C301 1.373 . S
C300 C302 1.389 . S
C301 H280 0.950 . S
C301 C300 1.373 . S
C301 C317 1.377 . S
C302 C300 1.389 . S
C302 C303 1.524 . S
C302 C316 1.377 . S
C303 C302 1.524 . S
C303 C304 1.397 . S
C303 C308 1.363 . S
C304 H281 0.950 . S
C304 C303 1.397 . S
C304 C305 1.334 . S
C305 H282 0.950 . S
C305 C304 1.334 . S
C305 C306 1.287 . S
C306 C305 1.287 . S
C306 C307 1.524 . S
C306 H325 0.913 . S
C307 H283 0.950 . S
C307 C306 1.524 . S
C307 C308 1.415 . S
C308 H284 0.950 . S
C308 C303 1.363 . S
C308 C307 1.415 . S
C309 H285 0.951 . S
C309 C310 1.366 . S
C309 C311 1.388 . S
C310 C309 1.366 . S
C310 C314 1.385 . S
C311 H286 0.951 . S
C311 C309 1.388 . S
C311 C312 1.366 . S
C312 C311 1.366 . S
C312 C313 1.414 . S
C312 C315 1.499 . S
C313 H287 0.950 . S
C313 C312 1.414 . S
C313 C314 1.374 . S
C314 H288 0.950 . S
C314 C310 1.385 . S
C314 C313 1.374 . S
C315 C312 1.499 . S
C315 C316 1.373 . S
C315 C317 1.389 . S
C316 H289 0.950 . S
C316 C302 1.377 . S
C316 C315 1.373 . S
C317 C301 1.377 . S
C317 C315 1.389 . S
C317 C318 1.524 . S
C318 C317 1.524 . S
C318 C319 1.397 . S
C318 C323 1.363 . S
C319 H290 0.950 . S
C319 C318 1.397 . S
C319 C320 1.334 . S
C320 H291 0.950 . S
C320 C319 1.334 . S
C320 C321 1.287 . S
C321 C320 1.287 . S
C321 C322 1.524 . S
C321 H324 0.999 . S
C322 H292 0.950 . S
C322 C321 1.524 . S
C322 C323 1.415 . S
C323 H293 0.950 . S
C323 C318 1.363 . S
C323 C322 1.415 . S
H324 C321 0.999 . S
H325 C306 0.913 . S
H326 C344 0.951 . S
H327 C346 0.951 . S
H328 C348 0.950 . S
H329 C349 0.950 . S
H330 C351 0.950 . S
H331 C354 0.950 . S
H332 C355 0.950 . S
H333 C357 0.950 . S
H334 C358 0.950 . S
H335 C359 0.951 . S
H336 C361 0.951 . S
H337 C363 0.950 . S
H338 C364 0.950 . S
H339 C366 0.950 . S
H340 C369 0.950 . S
H341 C370 0.950 . S
H342 C372 0.950 . S
H343 C373 0.950 . S
C344 H326 0.951 . S
C344 C345 1.366 . S
C344 C346 1.388 . S
C345 C344 1.366 . S
C345 C349 1.385 . S
C346 H327 0.951 . S
C346 C344 1.388 . S
C346 C347 1.366 . S
C347 C346 1.366 . S
C347 C348 1.414 . S
C347 C350 1.499 . S
C348 H328 0.950 . S
C348 C347 1.414 . S
C348 C349 1.374 . S
C349 H329 0.950 . S
C349 C345 1.385 . S
C349 C348 1.374 . S
C350 C347 1.499 . S
C350 C351 1.373 . S
C350 C352 1.389 . S
C351 H330 0.950 . S
C351 C350 1.373 . S
C351 C367 1.377 . S
C352 C350 1.389 . S
C352 C353 1.524 . S
C352 C366 1.377 . S
C353 C352 1.524 . S
C353 C354 1.397 . S
C353 C358 1.363 . S
C354 H331 0.950 . S
C354 C353 1.397 . S
C354 C355 1.334 . S
C355 H332 0.950 . S
C355 C354 1.334 . S
C355 C356 1.287 . S
C356 C355 1.287 . S
C356 C357 1.524 . S
C356 H375 0.913 . S
C357 H333 0.950 . S
C357 C356 1.524 . S
C357 C358 1.415 . S
C358 H334 0.950 . S
C358 C353 1.363 . S
C358 C357 1.415 . S
C359 H335 0.951 . S
C359 C360 1.366 . S
C359 C361 1.388 . S
C360 C359 1.366 . S
C360 C364 1.385 . S
C361 H336 0.951 . S
C361 C359 1.388 . S
C361 C362 1.366 . S
C362 C361 1.366 . S
C362 C363 1.414 . S
C362 C365 1.499 . S
C363 H337 0.950 . S
C363 C362 1.414 . S
C363 C364 1.374 . S
C364 H338 0.950 . S
C364 C360 1.385 . S
C364 C363 1.374 . S
C365 C362 1.499 . S
C365 C366 1.373 . S
C365 C367 1.389 . S
C366 H339 0.950 . S
C366 C352 1.377 . S
C366 C365 1.373 . S
C367 C351 1.377 . S
C367 C365 1.389 . S
C367 C368 1.524 . S
C368 C367 1.524 . S
C368 C369 1.397 . S
C368 C373 1.363 . S
C369 H340 0.950 . S
C369 C368 1.397 . S
C369 C370 1.334 . S
C370 H341 0.950 . S
C370 C369 1.334 . S
C370 C371 1.287 . S
C371 C370 1.287 . S
C371 C372 1.524 . S
C371 H374 0.999 . S
C372 H342 0.950 . S
C372 C371 1.524 . S
C372 C373 1.415 . S
C373 H343 0.950 . S
C373 C368 1.363 . S
C373 C372 1.415 . S
H374 C371 0.999 . S
H375 C356 0.913 . S
H376 C394 0.951 . S
H377 C396 0.951 . S
H378 C398 0.950 . S
H379 C399 0.950 . S
H380 C401 0.950 . S
H381 C404 0.950 . S
H382 C405 0.950 . S
H383 C407 0.950 . S
H384 C408 0.950 . S
H385 C409 0.951 . S
H386 C411 0.951 . S
H387 C413 0.950 . S
H388 C414 0.950 . S
H389 C416 0.950 . S
H390 C419 0.950 . S
H391 C420 0.950 . S
H392 C422 0.950 . S
H393 C423 0.950 . S
C394 H376 0.951 . S
C394 C395 1.366 . S
C394 C396 1.388 . S
C395 C394 1.366 . S
C395 C399 1.385 . S
C396 H377 0.951 . S
C396 C394 1.388 . S
C396 C397 1.366 . S
C397 C396 1.366 . S
C397 C398 1.414 . S
C397 C400 1.499 . S
C398 H378 0.950 . S
C398 C397 1.414 . S
C398 C399 1.374 . S
C399 H379 0.950 . S
C399 C395 1.385 . S
C399 C398 1.374 . S
C400 C397 1.499 . S
C400 C401 1.373 . S
C400 C402 1.389 . S
C401 H380 0.950 . S
C401 C400 1.373 . S
C401 C417 1.377 . S
C402 C400 1.389 . S
C402 C403 1.524 . S
C402 C416 1.377 . S
C403 C402 1.524 . S
C403 C404 1.397 . S
C403 C408 1.363 . S
C404 H381 0.950 . S
C404 C403 1.397 . S
C404 C405 1.334 . S
C405 H382 0.950 . S
C405 C404 1.334 . S
C405 C406 1.287 . S
C406 C405 1.287 . S
C406 C407 1.524 . S
C406 H425 0.913 . S
C407 H383 0.950 . S
C407 C406 1.524 . S
C407 C408 1.415 . S
C408 H384 0.950 . S
C408 C403 1.363 . S
C408 C407 1.415 . S
C409 H385 0.951 . S
C409 C410 1.366 . S
C409 C411 1.388 . S
C410 C409 1.366 . S
C410 C414 1.385 . S
C411 H386 0.951 . S
C411 C409 1.388 . S
C411 C412 1.366 . S
C412 C411 1.366 . S
C412 C413 1.414 . S
C412 C415 1.499 . S
C413 H387 0.950 . S
C413 C412 1.414 . S
C413 C414 1.374 . S
C414 H388 0.950 . S
C414 C410 1.385 . S
C414 C413 1.374 . S
C415 C412 1.499 . S
C415 C416 1.373 . S
C415 C417 1.389 . S
C416 H389 0.950 . S
C416 C402 1.377 . S
C416 C415 1.373 . S
C417 C401 1.377 . S
C417 C415 1.389 . S
C417 C418 1.524 . S
C418 C417 1.524 . S
C418 C419 1.397 . S
C418 C423 1.363 . S
C419 H390 0.950 . S
C419 C418 1.397 . S
C419 C420 1.334 . S
C420 H391 0.950 . S
C420 C419 1.334 . S
C420 C421 1.287 . S
C421 C420 1.287 . S
C421 C422 1.524 . S
C421 H424 0.999 . S
C422 H392 0.950 . S
C422 C421 1.524 . S
C422 C423 1.415 . S
C423 H393 0.950 . S
C423 C418 1.363 . S
C423 C422 1.415 . S
H424 C421 0.999 . S
H425 C406 0.913 . S
H426 C444 0.951 . S
H427 C446 0.951 . S
H428 C448 0.950 . S
H429 C449 0.950 . S
H430 C451 0.950 . S
H431 C454 0.950 . S
H432 C455 0.950 . S
H433 C457 0.950 . S
H434 C458 0.950 . S
H435 C459 0.951 . S
H436 C461 0.951 . S
H437 C463 0.950 . S
H438 C464 0.950 . S
H439 C466 0.950 . S
H440 C469 0.950 . S
H441 C470 0.950 . S
H442 C472 0.950 . S
H443 C473 0.950 . S
C444 H426 0.951 . S
C444 C445 1.366 . S
C444 C446 1.388 . S
C445 C444 1.366 . S
C445 C449 1.385 . S
C446 H427 0.951 . S
C446 C444 1.388 . S
C446 C447 1.366 . S
C447 C446 1.366 . S
C447 C448 1.414 . S
C447 C450 1.499 . S
C448 H428 0.950 . S
C448 C447 1.414 . S
C448 C449 1.374 . S
C449 H429 0.950 . S
C449 C445 1.385 . S
C449 C448 1.374 . S
C450 C447 1.499 . S
C450 C451 1.373 . S
C450 C452 1.389 . S
C451 H430 0.950 . S
C451 C450 1.373 . S
C451 C467 1.377 . S
C452 C450 1.389 . S
C452 C453 1.524 . S
C452 C466 1.377 . S
C453 C452 1.524 . S
C453 C454 1.397 . S
C453 C458 1.363 . S
C454 H431 0.950 . S
C454 C453 1.397 . S
C454 C455 1.334 . S
C455 H432 0.950 . S
C455 C454 1.334 . S
C455 C456 1.287 . S
C456 C455 1.287 . S
C456 C457 1.524 . S
C456 H475 0.913 . S
C457 H433 0.950 . S
C457 C456 1.524 . S
C457 C458 1.415 . S
C458 H434 0.950 . S
C458 C453 1.363 . S
C458 C457 1.415 . S
C459 H435 0.951 . S
C459 C460 1.366 . S
C459 C461 1.388 . S
C460 C459 1.366 . S
C460 C464 1.385 . S
C461 H436 0.951 . S
C461 C459 1.388 . S
C461 C462 1.366 . S
C462 C461 1.366 . S
C462 C463 1.414 . S
C462 C465 1.499 . S
C463 H437 0.950 . S
C463 C462 1.414 . S
C463 C464 1.374 . S
C464 H438 0.950 . S
C464 C460 1.385 . S
C464 C463 1.374 . S
C465 C462 1.499 . S
C465 C466 1.373 . S
C465 C467 1.389 . S
C466 H439 0.950 . S
C466 C452 1.377 . S
C466 C465 1.373 . S
C467 C451 1.377 . S
C467 C465 1.389 . S
C467 C468 1.524 . S
C468 C467 1.524 . S
C468 C469 1.397 . S
C468 C473 1.363 . S
C469 H440 0.950 . S
C469 C468 1.397 . S
C469 C470 1.334 . S
C470 H441 0.950 . S
C470 C469 1.334 . S
C470 C471 1.287 . S
C471 C470 1.287 . S
C471 C472 1.524 . S
C471 H474 0.999 . S
C472 H442 0.950 . S
C472 C471 1.524 . S
C472 C473 1.415 . S
C473 H443 0.950 . S
C473 C468 1.363 . S
C473 C472 1.415 . S
H474 C471 0.999 . S
H475 C456 0.913 . S
H476 C494 0.951 . S
H477 C496 0.951 . S
H478 C498 0.950 . S
H479 C499 0.950 . S
H480 C501 0.950 . S
H481 C504 0.950 . S
H482 C505 0.950 . S
H483 C507 0.950 . S
H484 C508 0.950 . S
H485 C509 0.951 . S
H486 C511 0.951 . S
H487 C513 0.950 . S
H488 C514 0.950 . S
H489 C516 0.950 . S
H490 C519 0.950 . S
H491 C520 0.950 . S
H492 C522 0.950 . S
H493 C523 0.950 . S
C494 H476 0.951 . S
C494 C495 1.366 . S
C494 C496 1.388 . S
C495 C494 1.366 . S
C495 C499 1.385 . S
C496 H477 0.951 . S
C496 C494 1.388 . S
C496 C497 1.366 . S
C497 C496 1.366 . S
C497 C498 1.414 . S
C497 C500 1.499 . S
C498 H478 0.950 . S
C498 C497 1.414 . S
C498 C499 1.374 . S
C499 H479 0.950 . S
C499 C495 1.385 . S
C499 C498 1.374 . S
C500 C497 1.499 . S
C500 C501 1.373 . S
C500 C502 1.389 . S
C501 H480 0.950 . S
C501 C500 1.373 . S
C501 C517 1.377 . S
C502 C500 1.389 . S
C502 C503 1.524 . S
C502 C516 1.377 . S
C503 C502 1.524 . S
C503 C504 1.397 . S
C503 C508 1.363 . S
C504 H481 0.950 . S
C504 C503 1.397 . S
C504 C505 1.334 . S
C505 H482 0.950 . S
C505 C504 1.334 . S
C505 C506 1.287 . S
C506 C505 1.287 . S
C506 C507 1.524 . S
C506 H525 0.913 . S
C507 H483 0.950 . S
C507 C506 1.524 . S
C507 C508 1.415 . S
C508 H484 0.950 . S
C508 C503 1.363 . S
C508 C507 1.415 . S
C509 H485 0.951 . S
C509 C510 1.366 . S
C509 C511 1.388 . S
C510 C509 1.366 . S
C510 C514 1.385 . S
C511 H486 0.951 . S
C511 C509 1.388 . S
C511 C512 1.366 . S
C512 C511 1.366 . S
C512 C513 1.414 . S
C512 C515 1.499 . S
C513 H487 0.950 . S
C513 C512 1.414 . S
C513 C514 1.374 . S
C514 H488 0.950 . S
C514 C510 1.385 . S
C514 C513 1.374 . S
C515 C512 1.499 . S
C515 C516 1.373 . S
C515 C517 1.389 . S
C516 H489 0.950 . S
C516 C502 1.377 . S
C516 C515 1.373 . S
C517 C501 1.377 . S
C517 C515 1.389 . S
C517 C518 1.524 . S
C518 C517 1.524 . S
C518 C519 1.397 . S
C518 C523 1.363 . S
C519 H490 0.950 . S
C519 C518 1.397 . S
C519 C520 1.334 . S
C520 H491 0.950 . S
C520 C519 1.334 . S
C520 C521 1.287 . S
C521 C520 1.287 . S
C521 C522 1.524 . S
C521 H524 0.999 . S
C522 H492 0.950 . S
C522 C521 1.524 . S
C522 C523 1.415 . S
C523 H493 0.950 . S
C523 C518 1.363 . S
C523 C522 1.415 . S
H524 C521 0.999 . S
H525 C506 0.913 . S
H526 C544 0.951 . S
H527 C546 0.951 . S
H528 C548 0.950 . S
H529 C549 0.950 . S
H530 C551 0.950 . S
H531 C554 0.950 . S
H532 C555 0.950 . S
H533 C557 0.950 . S
H534 C558 0.950 . S
H535 C559 0.951 . S
H536 C561 0.951 . S
H537 C563 0.950 . S
H538 C564 0.950 . S
H539 C566 0.950 . S
H540 C569 0.950 . S
H541 C570 0.950 . S
H542 C572 0.950 . S
H543 C573 0.950 . S
C544 H526 0.951 . S
C544 C545 1.366 . S
C544 C546 1.388 . S
C545 C544 1.366 . S
C545 C549 1.385 . S
C546 H527 0.951 . S
C546 C544 1.388 . S
C546 C547 1.366 . S
C547 C546 1.366 . S
C547 C548 1.414 . S
C547 C550 1.499 . S
C548 H528 0.950 . S
C548 C547 1.414 . S
C548 C549 1.374 . S
C549 H529 0.950 . S
C549 C545 1.385 . S
C549 C548 1.374 . S
C550 C547 1.499 . S
C550 C551 1.373 . S
C550 C552 1.389 . S
C551 H530 0.950 . S
C551 C550 1.373 . S
C551 C567 1.377 . S
C552 C550 1.389 . S
C552 C553 1.524 . S
C552 C566 1.377 . S
C553 C552 1.524 . S
C553 C554 1.397 . S
C553 C558 1.363 . S
C554 H531 0.950 . S
C554 C553 1.397 . S
C554 C555 1.334 . S
C555 H532 0.950 . S
C555 C554 1.334 . S
C555 C556 1.287 . S
C556 C555 1.287 . S
C556 C557 1.524 . S
C556 H575 0.913 . S
C557 H533 0.950 . S
C557 C556 1.524 . S
C557 C558 1.415 . S
C558 H534 0.950 . S
C558 C553 1.363 . S
C558 C557 1.415 . S
C559 H535 0.951 . S
C559 C560 1.366 . S
C559 C561 1.388 . S
C560 C559 1.366 . S
C560 C564 1.385 . S
C561 H536 0.951 . S
C561 C559 1.388 . S
C561 C562 1.366 . S
C562 C561 1.366 . S
C562 C563 1.414 . S
C562 C565 1.499 . S
C563 H537 0.950 . S
C563 C562 1.414 . S
C563 C564 1.374 . S
C564 H538 0.950 . S
C564 C560 1.385 . S
C564 C563 1.374 . S
C565 C562 1.499 . S
C565 C566 1.373 . S
C565 C567 1.389 . S
C566 H539 0.950 . S
C566 C552 1.377 . S
C566 C565 1.373 . S
C567 C551 1.377 . S
C567 C565 1.389 . S
C567 C568 1.524 . S
C568 C567 1.524 . S
C568 C569 1.397 . S
C568 C573 1.363 . S
C569 H540 0.950 . S
C569 C568 1.397 . S
C569 C570 1.334 . S
C570 H541 0.950 . S
C570 C569 1.334 . S
C570 C571 1.287 . S
C571 C570 1.287 . S
C571 C572 1.524 . S
C571 H574 0.999 . S
C572 H542 0.950 . S
C572 C571 1.524 . S
C572 C573 1.415 . S
C573 H543 0.950 . S
C573 C568 1.363 . S
C573 C572 1.415 . S
H574 C571 0.999 . S
H575 C556 0.913 . S
H576 C594 0.951 . S
H577 C596 0.951 . S
H578 C598 0.950 . S
H579 C599 0.950 . S
H580 C601 0.950 . S
H581 C604 0.950 . S
H582 C605 0.950 . S
H583 C607 0.950 . S
H584 C608 0.950 . S
H585 C609 0.951 . S
H586 C611 0.951 . S
H587 C613 0.950 . S
H588 C614 0.950 . S
H589 C616 0.950 . S
H590 C619 0.950 . S
H591 C620 0.950 . S
H592 C622 0.950 . S
H593 C623 0.950 . S
C594 H576 0.951 . S
C594 C595 1.366 . S
C594 C596 1.388 . S
C595 C594 1.366 . S
C595 C599 1.385 . S
C596 H577 0.951 . S
C596 C594 1.388 . S
C596 C597 1.366 . S
C597 C596 1.366 . S
C597 C598 1.414 . S
C597 C600 1.499 . S
C598 H578 0.950 . S
C598 C597 1.414 . S
C598 C599 1.374 . S
C599 H579 0.950 . S
C599 C595 1.385 . S
C599 C598 1.374 . S
C600 C597 1.499 . S
C600 C601 1.373 . S
C600 C602 1.389 . S
C601 H580 0.950 . S
C601 C600 1.373 . S
C601 C617 1.377 . S
C602 C600 1.389 . S
C602 C603 1.524 . S
C602 C616 1.377 . S
C603 C602 1.524 . S
C603 C604 1.397 . S
C603 C608 1.363 . S
C604 H581 0.950 . S
C604 C603 1.397 . S
C604 C605 1.334 . S
C605 H582 0.950 . S
C605 C604 1.334 . S
C605 C606 1.287 . S
C606 C605 1.287 . S
C606 C607 1.524 . S
C606 H625 0.913 . S
C607 H583 0.950 . S
C607 C606 1.524 . S
C607 C608 1.415 . S
C608 H584 0.950 . S
C608 C603 1.363 . S
C608 C607 1.415 . S
C609 H585 0.951 . S
C609 C610 1.366 . S
C609 C611 1.388 . S
C610 C609 1.366 . S
C610 C614 1.385 . S
C611 H586 0.951 . S
C611 C609 1.388 . S
C611 C612 1.366 . S
C612 C611 1.366 . S
C612 C613 1.414 . S
C612 C615 1.499 . S
C613 H587 0.950 . S
C613 C612 1.414 . S
C613 C614 1.374 . S
C614 H588 0.950 . S
C614 C610 1.385 . S
C614 C613 1.374 . S
C615 C612 1.499 . S
C615 C616 1.373 . S
C615 C617 1.389 . S
C616 H589 0.950 . S
C616 C602 1.377 . S
C616 C615 1.373 . S
C617 C601 1.377 . S
C617 C615 1.389 . S
C617 C618 1.524 . S
C618 C617 1.524 . S
C618 C619 1.397 . S
C618 C623 1.363 . S
C619 H590 0.950 . S
C619 C618 1.397 . S
C619 C620 1.334 . S
C620 H591 0.950 . S
C620 C619 1.334 . S
C620 C621 1.287 . S
C621 C620 1.287 . S
C621 C622 1.524 . S
C621 H624 0.999 . S
C622 H592 0.950 . S
C622 C621 1.524 . S
C622 C623 1.415 . S
C623 H593 0.950 . S
C623 C618 1.363 . S
C623 C622 1.415 . S
H624 C621 0.999 . S
H625 C606 0.913 . S
H626 C644 0.951 . S
H627 C646 0.951 . S
H628 C648 0.950 . S
H629 C649 0.950 . S
H630 C651 0.950 . S
H631 C654 0.950 . S
H632 C655 0.950 . S
H633 C657 0.950 . S
H634 C658 0.950 . S
H635 C659 0.951 . S
H636 C661 0.951 . S
H637 C663 0.950 . S
H638 C664 0.950 . S
H639 C666 0.950 . S
H640 C669 0.950 . S
H641 C670 0.950 . S
H642 C672 0.950 . S
H643 C673 0.950 . S
C644 H626 0.951 . S
C644 C645 1.366 . S
C644 C646 1.388 . S
C645 C644 1.366 . S
C645 C649 1.385 . S
C646 H627 0.951 . S
C646 C644 1.388 . S
C646 C647 1.366 . S
C647 C646 1.366 . S
C647 C648 1.414 . S
C647 C650 1.499 . S
C648 H628 0.950 . S
C648 C647 1.414 . S
C648 C649 1.374 . S
C649 H629 0.950 . S
C649 C645 1.385 . S
C649 C648 1.374 . S
C650 C647 1.499 . S
C650 C651 1.373 . S
C650 C652 1.389 . S
C651 H630 0.950 . S
C651 C650 1.373 . S
C651 C667 1.377 . S
C652 C650 1.389 . S
C652 C653 1.524 . S
C652 C666 1.377 . S
C653 C652 1.524 . S
C653 C654 1.397 . S
C653 C658 1.363 . S
C654 H631 0.950 . S
C654 C653 1.397 . S
C654 C655 1.334 . S
C655 H632 0.950 . S
C655 C654 1.334 . S
C655 C656 1.287 . S
C656 C655 1.287 . S
C656 C657 1.524 . S
C656 H675 0.913 . S
C657 H633 0.950 . S
C657 C656 1.524 . S
C657 C658 1.415 . S
C658 H634 0.950 . S
C658 C653 1.363 . S
C658 C657 1.415 . S
C659 H635 0.951 . S
C659 C660 1.366 . S
C659 C661 1.388 . S
C660 C659 1.366 . S
C660 C664 1.385 . S
C661 H636 0.951 . S
C661 C659 1.388 . S
C661 C662 1.366 . S
C662 C661 1.366 . S
C662 C663 1.414 . S
C662 C665 1.499 . S
C663 H637 0.950 . S
C663 C662 1.414 . S
C663 C664 1.374 . S
C664 H638 0.950 . S
C664 C660 1.385 . S
C664 C663 1.374 . S
C665 C662 1.499 . S
C665 C666 1.373 . S
C665 C667 1.389 . S
C666 H639 0.950 . S
C666 C652 1.377 . S
C666 C665 1.373 . S
C667 C651 1.377 . S
C667 C665 1.389 . S
C667 C668 1.524 . S
C668 C667 1.524 . S
C668 C669 1.397 . S
C668 C673 1.363 . S
C669 H640 0.950 . S
C669 C668 1.397 . S
C669 C670 1.334 . S
C670 H641 0.950 . S
C670 C669 1.334 . S
C670 C671 1.287 . S
C671 C670 1.287 . S
C671 C672 1.524 . S
C671 H674 0.999 . S
C672 H642 0.950 . S
C672 C671 1.524 . S
C672 C673 1.415 . S
C673 H643 0.950 . S
C673 C668 1.363 . S
C673 C672 1.415 . S
H674 C671 0.999 . S
H675 C656 0.913 . S
H676 C694 0.951 . S
H677 C696 0.951 . S
H678 C698 0.950 . S
H679 C699 0.950 . S
H680 C701 0.950 . S
H681 C704 0.950 . S
H682 C705 0.950 . S
H683 C707 0.950 . S
H684 C708 0.950 . S
H685 C709 0.951 . S
H686 C711 0.951 . S
H687 C713 0.950 . S
H688 C714 0.950 . S
H689 C716 0.950 . S
H690 C719 0.950 . S
H691 C720 0.950 . S
H692 C722 0.950 . S
H693 C723 0.950 . S
C694 H676 0.951 . S
C694 C695 1.366 . S
C694 C696 1.388 . S
C695 C694 1.366 . S
C695 C699 1.385 . S
C696 H677 0.951 . S
C696 C694 1.388 . S
C696 C697 1.366 . S
C697 C696 1.366 . S
C697 C698 1.414 . S
C697 C700 1.499 . S
C698 H678 0.950 . S
C698 C697 1.414 . S
C698 C699 1.374 . S
C699 H679 0.950 . S
C699 C695 1.385 . S
C699 C698 1.374 . S
C700 C697 1.499 . S
C700 C701 1.373 . S
C700 C702 1.389 . S
C701 H680 0.950 . S
C701 C700 1.373 . S
C701 C717 1.377 . S
C702 C700 1.389 . S
C702 C703 1.524 . S
C702 C716 1.377 . S
C703 C702 1.524 . S
C703 C704 1.397 . S
C703 C708 1.363 . S
C704 H681 0.950 . S
C704 C703 1.397 . S
C704 C705 1.334 . S
C705 H682 0.950 . S
C705 C704 1.334 . S
C705 C706 1.287 . S
C706 C705 1.287 . S
C706 C707 1.524 . S
C706 H725 0.913 . S
C707 H683 0.950 . S
C707 C706 1.524 . S
C707 C708 1.415 . S
C708 H684 0.950 . S
C708 C703 1.363 . S
C708 C707 1.415 . S
C709 H685 0.951 . S
C709 C710 1.366 . S
C709 C711 1.388 . S
C710 C709 1.366 . S
C710 C714 1.385 . S
C711 H686 0.951 . S
C711 C709 1.388 . S
C711 C712 1.366 . S
C712 C711 1.366 . S
C712 C713 1.414 . S
C712 C715 1.499 . S
C713 H687 0.950 . S
C713 C712 1.414 . S
C713 C714 1.374 . S
C714 H688 0.950 . S
C714 C710 1.385 . S
C714 C713 1.374 . S
C715 C712 1.499 . S
C715 C716 1.373 . S
C715 C717 1.389 . S
C716 H689 0.950 . S
C716 C702 1.377 . S
C716 C715 1.373 . S
C717 C701 1.377 . S
C717 C715 1.389 . S
C717 C718 1.524 . S
C718 C717 1.524 . S
C718 C719 1.397 . S
C718 C723 1.363 . S
C719 H690 0.950 . S
C719 C718 1.397 . S
C719 C720 1.334 . S
C720 H691 0.950 . S
C720 C719 1.334 . S
C720 C721 1.287 . S
C721 C720 1.287 . S
C721 C722 1.524 . S
C721 H724 0.999 . S
C722 H692 0.950 . S
C722 C721 1.524 . S
C722 C723 1.415 . S
C723 H693 0.950 . S
C723 C718 1.363 . S
C723 C722 1.415 . S
H724 C721 0.999 . S
H725 C706 0.913 . S
H726 C744 0.951 . S
H727 C746 0.951 . S
H728 C748 0.950 . S
H729 C749 0.950 . S
H730 C751 0.950 . S
H731 C754 0.950 . S
H732 C755 0.950 . S
H733 C757 0.950 . S
H734 C758 0.950 . S
H735 C759 0.951 . S
H736 C761 0.951 . S
H737 C763 0.950 . S
H738 C764 0.950 . S
H739 C766 0.950 . S
H740 C769 0.950 . S
H741 C770 0.950 . S
H742 C772 0.950 . S
H743 C773 0.950 . S
C744 H726 0.951 . S
C744 C745 1.366 . S
C744 C746 1.388 . S
C745 C744 1.366 . S
C745 C749 1.385 . S
C746 H727 0.951 . S
C746 C744 1.388 . S
C746 C747 1.366 . S
C747 C746 1.366 . S
C747 C748 1.414 . S
C747 C750 1.499 . S
C748 H728 0.950 . S
C748 C747 1.414 . S
C748 C749 1.374 . S
C749 H729 0.950 . S
C749 C745 1.385 . S
C749 C748 1.374 . S
C750 C747 1.499 . S
C750 C751 1.373 . S
C750 C752 1.389 . S
C751 H730 0.950 . S
C751 C750 1.373 . S
C751 C767 1.377 . S
C752 C750 1.389 . S
C752 C753 1.524 . S
C752 C766 1.377 . S
C753 C752 1.524 . S
C753 C754 1.397 . S
C753 C758 1.363 . S
C754 H731 0.950 . S
C754 C753 1.397 . S
C754 C755 1.334 . S
C755 H732 0.950 . S
C755 C754 1.334 . S
C755 C756 1.287 . S
C756 C755 1.287 . S
C756 C757 1.524 . S
C756 H775 0.913 . S
C757 H733 0.950 . S
C757 C756 1.524 . S
C757 C758 1.415 . S
C758 H734 0.950 . S
C758 C753 1.363 . S
C758 C757 1.415 . S
C759 H735 0.951 . S
C759 C760 1.366 . S
C759 C761 1.388 . S
C760 C759 1.366 . S
C760 C764 1.385 . S
C761 H736 0.951 . S
C761 C759 1.388 . S
C761 C762 1.366 . S
C762 C761 1.366 . S
C762 C763 1.414 . S
C762 C765 1.499 . S
C763 H737 0.950 . S
C763 C762 1.414 . S
C763 C764 1.374 . S
C764 H738 0.950 . S
C764 C760 1.385 . S
C764 C763 1.374 . S
C765 C762 1.499 . S
C765 C766 1.373 . S
C765 C767 1.389 . S
C766 H739 0.950 . S
C766 C752 1.377 . S
C766 C765 1.373 . S
C767 C751 1.377 . S
C767 C765 1.389 . S
C767 C768 1.524 . S
C768 C767 1.524 . S
C768 C769 1.397 . S
C768 C773 1.363 . S
C769 H740 0.950 . S
C769 C768 1.397 . S
C769 C770 1.334 . S
C770 H741 0.950 . S
C770 C769 1.334 . S
C770 C771 1.287 . S
C771 C770 1.287 . S
C771 C772 1.524 . S
C771 H774 0.999 . S
C772 H742 0.950 . S
C772 C771 1.524 . S
C772 C773 1.415 . S
C773 H743 0.950 . S
C773 C768 1.363 . S
C773 C772 1.415 . S
H774 C771 0.999 . S
H775 C756 0.913 . S
H776 C794 0.951 . S
H777 C796 0.951 . S
H778 C798 0.950 . S
H779 C799 0.950 . S
H780 C801 0.950 . S
H781 C804 0.950 . S
H782 C805 0.950 . S
H783 C807 0.950 . S
H784 C808 0.950 . S
H785 C809 0.951 . S
H786 C811 0.951 . S
H787 C813 0.950 . S
H788 C814 0.950 . S
H789 C816 0.950 . S
H790 C819 0.950 . S
H791 C820 0.950 . S
H792 C822 0.950 . S
H793 C823 0.950 . S
C794 H776 0.951 . S
C794 C795 1.366 . S
C794 C796 1.388 . S
C795 C794 1.366 . S
C795 C799 1.385 . S
C796 H777 0.951 . S
C796 C794 1.388 . S
C796 C797 1.366 . S
C797 C796 1.366 . S
C797 C798 1.414 . S
C797 C800 1.499 . S
C798 H778 0.950 . S
C798 C797 1.414 . S
C798 C799 1.374 . S
C799 H779 0.950 . S
C799 C795 1.385 . S
C799 C798 1.374 . S
C800 C797 1.499 . S
C800 C801 1.373 . S
C800 C802 1.389 . S
C801 H780 0.950 . S
C801 C800 1.373 . S
C801 C817 1.377 . S
C802 C800 1.389 . S
C802 C803 1.524 . S
C802 C816 1.377 . S
C803 C802 1.524 . S
C803 C804 1.397 . S
C803 C808 1.363 . S
C804 H781 0.950 . S
C804 C803 1.397 . S
C804 C805 1.334 . S
C805 H782 0.950 . S
C805 C804 1.334 . S
C805 C806 1.287 . S
C806 C805 1.287 . S
C806 C807 1.524 . S
C806 H825 0.913 . S
C807 H783 0.950 . S
C807 C806 1.524 . S
C807 C808 1.415 . S
C808 H784 0.950 . S
C808 C803 1.363 . S
C808 C807 1.415 . S
C809 H785 0.951 . S
C809 C810 1.366 . S
C809 C811 1.388 . S
C810 C809 1.366 . S
C810 C814 1.385 . S
C811 H786 0.951 . S
C811 C809 1.388 . S
C811 C812 1.366 . S
C812 C811 1.366 . S
C812 C813 1.414 . S
C812 C815 1.499 . S
C813 H787 0.950 . S
C813 C812 1.414 . S
C813 C814 1.374 . S
C814 H788 0.950 . S
C814 C810 1.385 . S
C814 C813 1.374 . S
C815 C812 1.499 . S
C815 C816 1.373 . S
C815 C817 1.389 . S
C816 H789 0.950 . S
C816 C802 1.377 . S
C816 C815 1.373 . S
C817 C801 1.377 . S
C817 C815 1.389 . S
C817 C818 1.524 . S
C818 C817 1.524 . S
C818 C819 1.397 . S
C818 C823 1.363 . S
C819 H790 0.950 . S
C819 C818 1.397 . S
C819 C820 1.334 . S
C820 H791 0.950 . S
C820 C819 1.334 . S
C820 C821 1.287 . S
C821 C820 1.287 . S
C821 C822 1.524 . S
C821 H824 0.999 . S
C822 H792 0.950 . S
C822 C821 1.524 . S
C822 C823 1.415 . S
C823 H793 0.950 . S
C823 C818 1.363 . S
C823 C822 1.415 . S
H824 C821 0.999 . S
H825 C806 0.913 . S
H826 C844 0.951 . S
H827 C846 0.951 . S
H828 C848 0.950 . S
H829 C849 0.950 . S
H830 C851 0.950 . S
H831 C854 0.950 . S
H832 C855 0.950 . S
H833 C857 0.950 . S
H834 C858 0.950 . S
H835 C859 0.951 . S
H836 C861 0.951 . S
H837 C863 0.950 . S
H838 C864 0.950 . S
H839 C866 0.950 . S
H840 C869 0.950 . S
H841 C870 0.950 . S
H842 C872 0.950 . S
H843 C873 0.950 . S
C844 H826 0.951 . S
C844 C845 1.366 . S
C844 C846 1.388 . S
C845 C844 1.366 . S
C845 C849 1.385 . S
C846 H827 0.951 . S
C846 C844 1.388 . S
C846 C847 1.366 . S
C847 C846 1.366 . S
C847 C848 1.414 . S
C847 C850 1.499 . S
C848 H828 0.950 . S
C848 C847 1.414 . S
C848 C849 1.374 . S
C849 H829 0.950 . S
C849 C845 1.385 . S
C849 C848 1.374 . S
C850 C847 1.499 . S
C850 C851 1.373 . S
C850 C852 1.389 . S
C851 H830 0.950 . S
C851 C850 1.373 . S
C851 C867 1.377 . S
C852 C850 1.389 . S
C852 C853 1.524 . S
C852 C866 1.377 . S
C853 C852 1.524 . S
C853 C854 1.397 . S
C853 C858 1.363 . S
C854 H831 0.950 . S
C854 C853 1.397 . S
C854 C855 1.334 . S
C855 H832 0.950 . S
C855 C854 1.334 . S
C855 C856 1.287 . S
C856 C855 1.287 . S
C856 C857 1.524 . S
C856 H875 0.913 . S
C857 H833 0.950 . S
C857 C856 1.524 . S
C857 C858 1.415 . S
C858 H834 0.950 . S
C858 C853 1.363 . S
C858 C857 1.415 . S
C859 H835 0.951 . S
C859 C860 1.366 . S
C859 C861 1.388 . S
C860 C859 1.366 . S
C860 C864 1.385 . S
C861 H836 0.951 . S
C861 C859 1.388 . S
C861 C862 1.366 . S
C862 C861 1.366 . S
C862 C863 1.414 . S
C862 C865 1.499 . S
C863 H837 0.950 . S
C863 C862 1.414 . S
C863 C864 1.374 . S
C864 H838 0.950 . S
C864 C860 1.385 . S
C864 C863 1.374 . S
C865 C862 1.499 . S
C865 C866 1.373 . S
C865 C867 1.389 . S
C866 H839 0.950 . S
C866 C852 1.377 . S
C866 C865 1.373 . S
C867 C851 1.377 . S
C867 C865 1.389 . S
C867 C868 1.524 . S
C868 C867 1.524 . S
C868 C869 1.397 . S
C868 C873 1.363 . S
C869 H840 0.950 . S
C869 C868 1.397 . S
C869 C870 1.334 . S
C870 H841 0.950 . S
C870 C869 1.334 . S
C870 C871 1.287 . S
C871 C870 1.287 . S
C871 C872 1.524 . S
C871 H874 0.999 . S
C872 H842 0.950 . S
C872 C871 1.524 . S
C872 C873 1.415 . S
C873 H843 0.950 . S
C873 C868 1.363 . S
C873 C872 1.415 . S
H874 C871 0.999 . S
H875 C856 0.913 . S
H876 C894 0.951 . S
H877 C896 0.951 . S
H878 C898 0.950 . S
H879 C899 0.950 . S
H880 C901 0.950 . S
H881 C904 0.950 . S
H882 C905 0.950 . S
H883 C907 0.950 . S
H884 C908 0.950 . S
H885 C909 0.951 . S
H886 C911 0.951 . S
H887 C913 0.950 . S
H888 C914 0.950 . S
H889 C916 0.950 . S
H890 C919 0.950 . S
H891 C920 0.950 . S
H892 C922 0.950 . S
H893 C923 0.950 . S
C894 H876 0.951 . S
C894 C895 1.366 . S
C894 C896 1.388 . S
C895 C894 1.366 . S
C895 C899 1.385 . S
C896 H877 0.951 . S
C896 C894 1.388 . S
C896 C897 1.366 . S
C897 C896 1.366 . S
C897 C898 1.414 . S
C897 C900 1.499 . S
C898 H878 0.950 . S
C898 C897 1.414 . S
C898 C899 1.374 . S
C899 H879 0.950 . S
C899 C895 1.385 . S
C899 C898 1.374 . S
C900 C897 1.499 . S
C900 C901 1.373 . S
C900 C902 1.389 . S
C901 H880 0.950 . S
C901 C900 1.373 . S
C901 C917 1.377 . S
C902 C900 1.389 . S
C902 C903 1.524 1_455 S
C902 C916 1.377 . S
C903 C902 1.524 1_655 S
C903 C904 1.397 . S
C903 C908 1.363 . S
C904 H881 0.950 . S
C904 C903 1.397 . S
C904 C905 1.334 . S
C905 H882 0.950 . S
C905 C904 1.334 . S
C905 C906 1.287 . S
C906 C905 1.287 . S
C906 C907 1.524 . S
C906 H925 0.913 . S
C907 H883 0.950 . S
C907 C906 1.524 . S
C907 C908 1.415 . S
C908 H884 0.950 . S
C908 C903 1.363 . S
C908 C907 1.415 . S
C909 H885 0.951 . S
C909 C910 1.366 . S
C909 C911 1.388 1_556 S
C910 C909 1.366 . S
C910 C914 1.385 . S
C911 H886 0.951 . S
C911 C909 1.388 1_554 S
C911 C912 1.366 . S
C912 C911 1.366 . S
C912 C913 1.414 . S
C912 C915 1.499 . S
C913 H887 0.950 . S
C913 C912 1.414 . S
C913 C914 1.374 1_554 S
C914 H888 0.950 . S
C914 C910 1.385 . S
C914 C913 1.374 1_556 S
C915 C912 1.499 . S
C915 C916 1.373 . S
C915 C917 1.389 . S
C916 H889 0.950 . S
C916 C902 1.377 . S
C916 C915 1.373 . S
C917 C901 1.377 . S
C917 C915 1.389 . S
C917 C918 1.524 . S
C918 C917 1.524 . S
C918 C919 1.397 . S
C918 C923 1.363 . S
C919 H890 0.950 . S
C919 C918 1.397 . S
C919 C920 1.334 . S
C920 H891 0.950 . S
C920 C919 1.334 . S
C920 C921 1.287 . S
C921 C920 1.287 . S
C921 C922 1.524 . S
C921 H924 0.999 . S
C922 H892 0.950 . S
C922 C921 1.524 . S
C922 C923 1.415 . S
C923 H893 0.950 . S
C923 C918 1.363 . S
C923 C922 1.415 . S
H924 C921 0.999 . S
H925 C906 0.913 . S
H926 C944 0.951 1_565 S
H927 C946 0.947 . S
H928 C948 0.950 . S
H929 C949 0.950 . S
H930 C951 0.950 . S
H931 C954 0.950 . S
H932 C955 0.950 . S
H933 C957 0.950 . S
H934 C958 0.950 . S
H935 C959 0.951 . S
H936 C961 0.951 . S
H937 C963 0.950 . S
H938 C964 0.950 . S
H939 C966 0.950 . S
H940 C969 0.950 1_565 S
H941 C970 0.950 . S
H942 C972 0.950 . S
H943 C973 0.950 . S
C944 H926 0.951 1_545 S
C944 C945 1.366 . S
C944 C946 1.388 1_545 S
C945 C944 1.366 . S
C945 C949 1.385 . S
C946 H927 0.947 . S
C946 C944 1.388 1_565 S
C946 C947 1.369 1_565 S
C947 C946 1.369 1_545 S
C947 C948 1.414 . S
C947 C950 1.499 . S
C948 H928 0.950 . S
C948 C947 1.414 . S
C948 C949 1.374 . S
C949 H929 0.950 . S
C949 C945 1.385 . S
C949 C948 1.374 . S
C950 C947 1.499 . S
C950 C951 1.373 . S
C950 C952 1.389 . S
C951 H930 0.950 . S
C951 C950 1.373 . S
C951 C967 1.377 . S
C952 C950 1.389 . S
C952 C953 1.524 . S
C952 C966 1.377 . S
C953 C952 1.524 . S
C953 C954 1.397 . S
C953 C958 1.363 1_545 S
C954 H931 0.950 . S
C954 C953 1.397 . S
C954 C955 1.334 . S
C955 H932 0.950 . S
C955 C954 1.334 . S
C955 C956 1.322 . S
C956 C955 1.322 . S
C956 C957 1.505 1_545 S
C956 H975 0.894 1_545 S
C957 H933 0.950 . S
C957 C956 1.505 1_565 S
C957 C958 1.415 . S
C958 H934 0.950 . S
C958 C953 1.363 1_565 S
C958 C957 1.415 . S
C959 H935 0.951 . S
C959 C960 1.366 . S
C959 C961 1.388 . S
C960 C959 1.366 . S
C960 C964 1.385 1_545 S
C961 H936 0.951 . S
C961 C959 1.388 . S
C961 C962 1.366 . S
C962 C961 1.366 . S
C962 C963 1.414 1_545 S
C962 C965 1.499 . S
C963 H937 0.950 . S
C963 C962 1.414 1_565 S
C963 C964 1.374 . S
C964 H938 0.950 . S
C964 C960 1.385 1_565 S
C964 C963 1.374 . S
C965 C962 1.499 . S
C965 C966 1.373 . S
C965 C967 1.389 . S
C966 H939 0.950 . S
C966 C952 1.377 . S
C966 C965 1.373 . S
C967 C951 1.377 . S
C967 C965 1.389 . S
C967 C968 1.524 . S
C968 C967 1.524 . S
C968 C969 1.397 . S
C968 C973 1.363 . S
C969 H940 0.950 1_545 S
C969 C968 1.397 . S
C969 C970 1.334 . S
C970 H941 0.950 . S
C970 C969 1.334 . S
C970 C971 1.287 . S
C971 C970 1.287 . S
C971 C972 1.524 . S
C971 H974 0.999 . S
C972 H942 0.950 . S
C972 C971 1.524 . S
C972 C973 1.415 . S
C973 H943 0.950 . S
C973 C968 1.363 . S
C973 C972 1.415 . S
H974 C971 0.999 . S
H975 C956 0.894 1_565 S
H976 C994 0.951 . S
H977 C996 0.951 . S
H978 C998 0.950 . S
H979 C999 0.950 . S
H980 C1001 0.950 . S
H981 C1004 0.950 . S
H982 C1005 0.950 . S
H983 C1007 0.950 . S
H984 C1008 0.950 . S
H985 C1009 0.951 . S
H986 C1011 0.951 . S
H987 C1013 0.950 . S
H988 C1014 0.950 . S
H989 C1016 0.950 . S
H990 C1019 0.950 . S
H991 C1020 0.950 . S
H992 C1022 0.950 . S
H993 C1023 0.950 . S
C994 H976 0.951 . S
C994 C995 1.366 . S
C994 C996 1.388 . S
C995 C994 1.366 . S
C995 C999 1.385 . S
C996 H977 0.951 . S
C996 C994 1.388 . S
C996 C997 1.366 . S
C997 C996 1.366 . S
C997 C998 1.414 . S
C997 C1000 1.499 . S
C998 H978 0.950 . S
C998 C997 1.414 . S
C998 C999 1.374 . S
C999 H979 0.950 . S
C999 C995 1.385 . S
C999 C998 1.374 . S
C1000 C997 1.499 . S
C1000 C1001 1.373 . S
C1000 C1002 1.389 . S
C1001 H980 0.950 . S
C1001 C1000 1.373 . S
C1001 C1017 1.377 . S
C1002 C1000 1.389 . S
C1002 C1003 1.524 . S
C1002 C1016 1.377 . S
C1003 C1002 1.524 . S
C1003 C1004 1.397 . S
C1003 C1008 1.363 . S
C1004 H981 0.950 . S
C1004 C1003 1.397 . S
C1004 C1005 1.334 . S
C1005 H982 0.950 . S
C1005 C1004 1.334 . S
C1005 C1006 1.287 . S
C1006 C1005 1.287 . S
C1006 C1007 1.524 . S
C1006 H1025 0.913 . S
C1007 H983 0.950 . S
C1007 C1006 1.524 . S
C1007 C1008 1.415 . S
C1008 H984 0.950 . S
C1008 C1003 1.363 . S
C1008 C1007 1.415 . S
C1009 H985 0.951 . S
C1009 C1010 1.366 . S
C1009 C1011 1.388 . S
C1010 C1009 1.366 . S
C1010 C1014 1.385 . S
C1011 H986 0.951 . S
C1011 C1009 1.388 . S
C1011 C1012 1.366 . S
C1012 C1011 1.366 . S
C1012 C1013 1.414 . S
C1012 C1015 1.499 . S
C1013 H987 0.950 . S
C1013 C1012 1.414 . S
C1013 C1014 1.374 . S
C1014 H988 0.950 . S
C1014 C1010 1.385 . S
C1014 C1013 1.374 . S
C1015 C1012 1.499 . S
C1015 C1016 1.373 . S
C1015 C1017 1.389 . S
C1016 H989 0.950 . S
C1016 C1002 1.377 . S
C1016 C1015 1.373 . S
C1017 C1001 1.377 . S
C1017 C1015 1.389 . S
C1017 C1018 1.524 . S
C1018 C1017 1.524 . S
C1018 C1019 1.397 . S
C1018 C1023 1.363 . S
C1019 H990 0.950 . S
C1019 C1018 1.397 . S
C1019 C1020 1.334 . S
C1020 H991 0.950 . S
C1020 C1019 1.334 . S
C1020 C1021 1.287 . S
C1021 C1020 1.287 . S
C1021 C1022 1.524 . S
C1021 H1024 0.999 . S
C1022 H992 0.950 . S
C1022 C1021 1.524 . S
C1022 C1023 1.415 . S
C1023 H993 0.950 . S
C1023 C1018 1.363 . S
C1023 C1022 1.415 . S
H1024 C1021 0.999 . S
H1025 C1006 0.913 . S
H1026 C1044 0.951 . S
H1027 C1046 0.951 . S
H1028 C1048 0.950 . S
H1029 C1049 0.950 . S
H1030 C1051 0.950 . S
H1031 C1054 0.950 . S
H1032 C1055 0.950 . S
H1033 C1057 0.950 . S
H1034 C1058 0.950 1_545 S
H1035 C1059 0.951 . S
H1036 C1061 0.951 . S
H1037 C1063 0.950 . S
H1038 C1064 0.950 . S
H1039 C1066 0.950 . S
H1040 C1069 0.950 . S
H1041 C1070 0.950 . S
H1042 C1072 0.950 . S
H1043 C1073 0.950 . S
C1044 H1026 0.951 . S
C1044 C1045 1.366 . S
C1044 C1046 1.388 . S
C1045 C1044 1.366 . S
C1045 C1049 1.385 . S
C1046 H1027 0.951 . S
C1046 C1044 1.388 . S
C1046 C1047 1.366 . S
C1047 C1046 1.366 . S
C1047 C1048 1.414 . S
C1047 C1050 1.499 . S
C1048 H1028 0.950 . S
C1048 C1047 1.414 . S
C1048 C1049 1.374 . S
C1049 H1029 0.950 . S
C1049 C1045 1.385 . S
C1049 C1048 1.374 . S
C1050 C1047 1.499 . S
C1050 C1051 1.373 . S
C1050 C1052 1.389 . S
C1051 H1030 0.950 . S
C1051 C1050 1.373 . S
C1051 C1067 1.377 . S
C1052 C1050 1.389 . S
C1052 C1053 1.524 1_545 S
C1052 C1066 1.377 . S
C1053 C1052 1.524 1_565 S
C1053 C1054 1.397 . S
C1053 C1058 1.363 . S
C1054 H1031 0.950 . S
C1054 C1053 1.397 . S
C1054 C1055 1.334 . S
C1055 H1032 0.950 . S
C1055 C1054 1.334 . S
C1055 C1056 1.287 . S
C1056 C1055 1.287 . S
C1056 C1057 1.524 . S
C1056 H1075 0.913 . S
C1057 H1033 0.950 . S
C1057 C1056 1.524 . S
C1057 C1058 1.415 . S
C1058 H1034 0.950 1_565 S
C1058 C1053 1.363 . S
C1058 C1057 1.415 . S
C1059 H1035 0.951 . S
C1059 C1060 1.366 . S
C1059 C1061 1.388 . S
C1060 C1059 1.366 . S
C1060 C1064 1.385 . S
C1061 H1036 0.951 . S
C1061 C1059 1.388 . S
C1061 C1062 1.366 . S
C1062 C1061 1.366 . S
C1062 C1063 1.414 . S
C1062 C1065 1.499 . S
C1063 H1037 0.950 . S
C1063 C1062 1.414 . S
C1063 C1064 1.374 . S
C1064 H1038 0.950 . S
C1064 C1060 1.385 . S
C1064 C1063 1.374 . S
C1065 C1062 1.499 . S
C1065 C1066 1.373 . S
C1065 C1067 1.389 . S
C1066 H1039 0.950 . S
C1066 C1052 1.377 . S
C1066 C1065 1.373 . S
C1067 C1051 1.377 . S
C1067 C1065 1.389 . S
C1067 C1068 1.524 . S
C1068 C1067 1.524 . S
C1068 C1069 1.397 . S
C1068 C1073 1.363 . S
C1069 H1040 0.950 . S
C1069 C1068 1.397 . S
C1069 C1070 1.334 . S
C1070 H1041 0.950 . S
C1070 C1069 1.334 . S
C1070 C1071 1.287 . S
C1071 C1070 1.287 . S
C1071 C1072 1.524 . S
C1071 H1074 0.999 . S
C1072 H1042 0.950 . S
C1072 C1071 1.524 . S
C1072 C1073 1.415 . S
C1073 H1043 0.950 . S
C1073 C1068 1.363 . S
C1073 C1072 1.415 . S
H1074 C1071 0.999 . S
H1075 C1056 0.913 . S
H1076 C1094 0.951 . S
H1077 C1096 0.951 . S
H1078 C1098 0.950 . S
H1079 C1099 0.950 . S
H1080 C1101 0.950 . S
H1081 C1104 0.950 . S
H1082 C1105 0.950 . S
H1083 C1107 0.950 . S
H1084 C1108 0.950 . S
H1085 C1109 0.951 . S
H1086 C1111 0.957 . S
H1087 C1113 0.950 . S
H1088 C1114 0.950 . S
H1089 C1116 0.950 . S
H1090 C1119 0.950 . S
H1091 C1120 0.950 . S
H1092 C1122 0.950 . S
H1093 C1123 0.950 . S
C1094 H1076 0.951 . S
C1094 C1095 1.366 . S
C1094 C1096 1.388 . S
C1095 C1094 1.366 . S
C1095 C1099 1.385 . S
C1096 H1077 0.951 . S
C1096 C1094 1.388 . S
C1096 C1097 1.366 . S
C1097 C1096 1.366 . S
C1097 C1098 1.414 . S
C1097 C1100 1.499 . S
C1098 H1078 0.950 . S
C1098 C1097 1.414 . S
C1098 C1099 1.374 . S
C1099 H1079 0.950 . S
C1099 C1095 1.385 . S
C1099 C1098 1.374 . S
C1100 C1097 1.499 . S
C1100 C1101 1.373 . S
C1100 C1102 1.389 . S
C1101 H1080 0.950 . S
C1101 C1100 1.373 . S
C1101 C1117 1.377 . S
C1102 C1100 1.389 . S
C1102 C1103 1.524 . S
C1102 C1116 1.377 . S
C1103 C1102 1.524 . S
C1103 C1104 1.397 . S
C1103 C1108 1.363 . S
C1104 H1081 0.950 . S
C1104 C1103 1.397 . S
C1104 C1105 1.334 . S
C1105 H1082 0.950 . S
C1105 C1104 1.334 . S
C1105 C1106 1.287 . S
C1106 C1105 1.287 . S
C1106 C1107 1.524 . S
C1106 H1125 0.913 . S
C1107 H1083 0.950 . S
C1107 C1106 1.524 . S
C1107 C1108 1.415 . S
C1108 H1084 0.950 . S
C1108 C1103 1.363 . S
C1108 C1107 1.415 . S
C1109 H1085 0.951 . S
C1109 C1110 1.366 . S
C1109 C1111 1.373 1_554 S
C1110 C1109 1.366 . S
C1110 C1114 1.385 . S
C1111 H1086 0.957 . S
C1111 C1109 1.373 1_556 S
C1111 C1112 1.374 . S
C1112 C1111 1.374 . S
C1112 C1113 1.414 . S
C1112 C1115 1.499 . S
C1113 H1087 0.950 . S
C1113 C1112 1.414 . S
C1113 C1114 1.374 1_556 S
C1114 H1088 0.950 . S
C1114 C1110 1.385 . S
C1114 C1113 1.374 1_554 S
C1115 C1112 1.499 . S
C1115 C1116 1.373 . S
C1115 C1117 1.389 . S
C1116 H1089 0.950 . S
C1116 C1102 1.377 . S
C1116 C1115 1.373 . S
C1117 C1101 1.377 . S
C1117 C1115 1.389 . S
C1117 C1118 1.524 . S
C1118 C1117 1.524 . S
C1118 C1119 1.397 . S
C1118 C1123 1.363 . S
C1119 H1090 0.950 . S
C1119 C1118 1.397 . S
C1119 C1120 1.334 . S
C1120 H1091 0.950 . S
C1120 C1119 1.334 . S
C1120 C1121 1.287 . S
C1121 C1120 1.287 . S
C1121 C1122 1.524 . S
C1121 H1124 0.999 . S
C1122 H1092 0.950 . S
C1122 C1121 1.524 . S
C1122 C1123 1.415 . S
C1123 H1093 0.950 . S
C1123 C1118 1.363 . S
C1123 C1122 1.415 . S
H1124 C1121 0.999 . S
H1125 C1106 0.913 . S
H1126 C1144 0.951 . S
H1127 C1146 0.951 . S
H1128 C1148 0.950 . S
H1129 C1149 0.950 . S
H1130 C1151 0.950 . S
H1131 C1154 0.950 . S
H1132 C1155 0.950 . S
H1133 C1157 0.950 . S
H1134 C1158 0.950 1_455 S
H1135 C1159 0.975 . S
H1136 C1161 0.951 . S
H1137 C1163 0.950 . S
H1138 C1164 0.950 . S
H1139 C1166 0.950 1_655 S
H1140 C1169 0.950 . S
H1141 C1170 0.950 . S
H1142 C1172 0.950 . S
H1143 C1173 0.950 . S
C1144 H1126 0.951 . S
C1144 C1145 1.366 . S
C1144 C1146 1.388 . S
C1145 C1144 1.366 . S
C1145 C1149 1.385 . S
C1146 H1127 0.951 . S
C1146 C1144 1.388 . S
C1146 C1147 1.366 . S
C1147 C1146 1.366 . S
C1147 C1148 1.414 . S
C1147 C1150 1.499 . S
C1148 H1128 0.950 . S
C1148 C1147 1.414 . S
C1148 C1149 1.374 . S
C1149 H1129 0.950 . S
C1149 C1145 1.385 . S
C1149 C1148 1.374 . S
C1150 C1147 1.499 . S
C1150 C1151 1.373 . S
C1150 C1152 1.389 . S
C1151 H1130 0.950 . S
C1151 C1150 1.373 . S
C1151 C1167 1.377 . S
C1152 C1150 1.389 . S
C1152 C1153 1.524 1_455 S
C1152 C1166 1.377 . S
C1153 C1152 1.524 1_655 S
C1153 C1154 1.397 . S
C1153 C1158 1.363 . S
C1154 H1131 0.950 . S
C1154 C1153 1.397 . S
C1154 C1155 1.334 . S
C1155 H1132 0.950 . S
C1155 C1154 1.334 . S
C1155 C1156 1.287 . S
C1156 C1155 1.287 . S
C1156 C1157 1.524 . S
C1156 H1175 0.913 . S
C1157 H1133 0.950 . S
C1157 C1156 1.524 . S
C1157 C1158 1.415 . S
C1158 H1134 0.950 1_655 S
C1158 C1153 1.363 . S
C1158 C1157 1.415 . S
C1159 H1135 0.975 . S
C1159 C1160 1.366 . S
C1159 C1161 1.388 . S
C1160 C1159 1.366 . S
C1160 C1164 1.385 . S
C1161 H1136 0.951 . S
C1161 C1159 1.388 . S
C1161 C1162 1.366 . S
C1162 C1161 1.366 . S
C1162 C1163 1.414 . S
C1162 C1165 1.499 . S
C1163 H1137 0.950 . S
C1163 C1162 1.414 . S
C1163 C1164 1.374 . S
C1164 H1138 0.950 . S
C1164 C1160 1.385 . S
C1164 C1163 1.374 . S
C1165 C1162 1.499 . S
C1165 C1166 1.373 . S
C1165 C1167 1.389 . S
C1166 H1139 0.950 1_455 S
C1166 C1152 1.377 . S
C1166 C1165 1.373 . S
C1167 C1151 1.377 . S
C1167 C1165 1.389 . S
C1167 C1168 1.524 . S
C1168 C1167 1.524 . S
C1168 C1169 1.397 . S
C1168 C1173 1.363 . S
C1169 H1140 0.950 . S
C1169 C1168 1.397 . S
C1169 C1170 1.334 . S
C1170 H1141 0.950 . S
C1170 C1169 1.334 . S
C1170 C1171 1.287 . S
C1171 C1170 1.287 . S
C1171 C1172 1.524 . S
C1171 H1174 0.999 . S
C1172 H1142 0.950 . S
C1172 C1171 1.524 . S
C1172 C1173 1.415 . S
C1173 H1143 0.950 . S
C1173 C1168 1.363 . S
C1173 C1172 1.415 . S
H1174 C1171 0.999 . S
H1175 C1156 0.913 . S
C295 C2 1.035 . S
C310 C265 1.019 . S
C345 C21 0.961 . S
C360 C193 0.953 . S
C395 C42 1.034 . S
C410 C229 1.020 . S
C445 C1 0.958 . S
C460 C241 0.960 . S
C510 C169 1.028 . S
C495 C22 1.030 . S
C560 C205 0.960 . S
C545 C41 0.958 . S
C595 C38 1.820 . S
C610 C121 1.783 . S
C645 C59 1.901 . S
C660 C133 1.874 . S
C695 C18 1.817 . S
C710 C61 1.808 . S
C760 C97 1.873 . S
C745 C39 1.901 . S
C810 C157 1.783 . S
C795 C58 1.820 . S
C845 C19 1.905 . S
C860 C85 1.847 . S
C910 C163 1.561 . S
C895 C9 1.503 . S
C945 C29 1.504 . S
C960 C91 1.562 . S
C995 C49 1.503 . S
C1010 C127 1.561 . S
C1060 C235 1.384 . S
C1045 C28 1.356 . S
C1110 C271 1.384 . S
C1095 C48 1.356 . S
C1145 C8 1.355 . S
C1160 C199 1.381 . S
