# Generated by pormake.
# Topology pyr, (3,6)-cn, num edge types: 1
# Building blocks:
#     Node 0, Type 0, BuildingBlock: MIDCAF_clean_linker_0, # of connection points: 3
#     Node 1, Type 0, BuildingBlock: MIDCAF_clean_linker_0, # of connection points: 3
#     Node 2, Type 0, BuildingBlock: MIDCAF_clean_linker_0, # of connection points: 3
#     Node 3, Type 0, BuildingBlock: MIDCAF_clean_linker_0, # of connection points: 3
#     Node 4, Type 0, BuildingBlock: MIDCAF_clean_linker_0, # of connection points: 3
#     Node 5, Type 0, BuildingBlock: MIDCAF_clean_linker_0, # of connection points: 3
#     Node 6, Type 0, BuildingBlock: MIDCAF_clean_linker_0, # of connection points: 3
#     Node 7, Type 0, BuildingBlock: MIDCAF_clean_linker_0, # of connection points: 3
#     Node 8, Type 1, BuildingBlock: MIFKUJ_clean_sbu_0, # of connection points: 6
#     Node 9, Type 1, BuildingBlock: MIFKUJ_clean_sbu_0, # of connection points: 6
#     Node 10, Type 1, BuildingBlock: MIFKUJ_clean_sbu_0, # of connection points: 6
#     Node 11, Type 1, BuildingBlock: MIFKUJ_clean_sbu_0, # of connection points: 6
#     Edge 12, Type (0, 1), BuildingBlock: OJICUG_clean_linker_0, # of connection points: 2
#     Edge 13, Type (0, 1), BuildingBlock: OJICUG_clean_linker_0, # of connection points: 2
#     Edge 14, Type (0, 1), BuildingBlock: OJICUG_clean_linker_0, # of connection points: 2
#     Edge 15, Type (0, 1), BuildingBlock: OJICUG_clean_linker_0, # of connection points: 2
#     Edge 16, Type (0, 1), BuildingBlock: OJICUG_clean_linker_0, # of connection points: 2
#     Edge 17, Type (0, 1), BuildingBlock: OJICUG_clean_linker_0, # of connection points: 2
#     Edge 18, Type (0, 1), BuildingBlock: OJICUG_clean_linker_0, # of connection points: 2
#     Edge 19, Type (0, 1), BuildingBlock: OJICUG_clean_linker_0, # of connection points: 2
#     Edge 20, Type (0, 1), BuildingBlock: OJICUG_clean_linker_0, # of connection points: 2
#     Edge 21, Type (0, 1), BuildingBlock: OJICUG_clean_linker_0, # of connection points: 2
#     Edge 22, Type (0, 1), BuildingBlock: OJICUG_clean_linker_0, # of connection points: 2
#     Edge 23, Type (0, 1), BuildingBlock: OJICUG_clean_linker_0, # of connection points: 2
#     Edge 24, Type (0, 1), BuildingBlock: OJICUG_clean_linker_0, # of connection points: 2
#     Edge 25, Type (0, 1), BuildingBlock: OJICUG_clean_linker_0, # of connection points: 2
#     Edge 26, Type (0, 1), BuildingBlock: OJICUG_clean_linker_0, # of connection points: 2
#     Edge 27, Type (0, 1), BuildingBlock: OJICUG_clean_linker_0, # of connection points: 2
#     Edge 28, Type (0, 1), BuildingBlock: OJICUG_clean_linker_0, # of connection points: 2
#     Edge 29, Type (0, 1), BuildingBlock: OJICUG_clean_linker_0, # of connection points: 2
#     Edge 30, Type (0, 1), BuildingBlock: OJICUG_clean_linker_0, # of connection points: 2
#     Edge 31, Type (0, 1), BuildingBlock: OJICUG_clean_linker_0, # of connection points: 2
#     Edge 32, Type (0, 1), BuildingBlock: OJICUG_clean_linker_0, # of connection points: 2
#     Edge 33, Type (0, 1), BuildingBlock: OJICUG_clean_linker_0, # of connection points: 2
#     Edge 34, Type (0, 1), BuildingBlock: OJICUG_clean_linker_0, # of connection points: 2
#     Edge 35, Type (0, 1), BuildingBlock: OJICUG_clean_linker_0, # of connection points: 2
# Relax obj value: 0.030
# Max RMSD: 0.083
# Mean RMSD: 0.049
data_MOF--net-pyr--node1-MIFKUJ_clean_sbu_0--node2-MIDCAF_clean_linker_0--edge1-OJICUG_clean_linker_0
_symmetry_space_group_name_H-M    P1
_symmetry_Int_Tables_number       1
_symmetry_cell_setting            triclinic
loop_
_symmetry_equiv_pos_as_xyz
'x, y, z'
_cell_length_a     37.561594
_cell_length_b     33.957916
_cell_length_c     35.884014
_cell_angle_alpha  86.145095
_cell_angle_beta   88.546255
_cell_angle_gamma 97.269238
loop_
_atom_site_label
_atom_site_type_symbol
_atom_site_fract_x
_atom_site_fract_y
_atom_site_fract_z
_atom_type_partial_charge
C0 C 0.13273 0.1493 0.33804 0.0
C1 C 0.14779 0.12012 0.35981 0.0
C2 C 0.18219 0.11132 0.3497 0.0
C3 C 0.20051 0.13035 0.31771 0.0
H4 H 0.27425 0.11053 0.23496 0.0
H5 H 0.32101 0.08018 0.20397 0.0
H6 H 0.33735 0.18 0.12132 0.0
H7 H 0.28961 0.20975 0.15159 0.0
H8 H 0.2246 0.26642 0.14308 0.0
H9 H 0.19091 0.30905 0.10403 0.0
H10 H 0.09515 0.26895 0.17259 0.0
H11 H 0.12904 0.22787 0.21235 0.0
H12 H 0.13799 0.19003 0.28998 0.0
H13 H 0.10604 0.15636 0.3445 0.0
H14 H 0.19474 0.08935 0.36619 0.0
H15 H 0.2266 0.12229 0.31015 0.0
N16 N 0.23247 0.16385 0.24592 0.0
N17 N 0.23009 0.2053 0.19118 0.0
N18 N 0.18569 0.20282 0.23846 0.0
C19 C 0.24675 0.17845 0.2118 0.0
C20 C 0.19948 0.21753 0.20439 0.0
C21 C 0.20204 0.17624 0.25954 0.0
C22 C 0.27799 0.16241 0.19558 0.0
C23 C 0.28806 0.12626 0.21042 0.0
C24 C 0.31501 0.10889 0.19269 0.0
C25 C 0.33276 0.12749 0.15996 0.0
C26 C 0.32366 0.16445 0.146 0.0
C27 C 0.29646 0.18164 0.16352 0.0
C28 C 0.17957 0.24398 0.18091 0.0
C29 C 0.19639 0.26687 0.14983 0.0
C30 C 0.17698 0.29103 0.12729 0.0
C31 C 0.14026 0.29236 0.13511 0.0
C32 C 0.1235 0.26923 0.16611 0.0
C33 C 0.14297 0.24555 0.18888 0.0
C34 C 0.18479 0.15861 0.29535 0.0
C35 C 0.15104 0.16844 0.30641 0.0
C36 C 0.22768 0.90406 0.68241 0.0
C37 C 0.2105 0.8891 0.651 0.0
C38 C 0.22492 0.85912 0.63267 0.0
C39 C 0.25612 0.84487 0.64504 0.0
H40 H 0.34085 0.78851 0.60727 0.0
H41 H 0.3691 0.74231 0.5708 0.0
H42 H 0.4328 0.71345 0.66509 0.0
H43 H 0.40557 0.76057 0.70103 0.0
H44 H 0.40958 0.81522 0.76662 0.0
H45 H 0.43878 0.83733 0.82236 0.0
H46 H 0.36332 0.92207 0.83413 0.0
H47 H 0.33407 0.90034 0.77762 0.0
H48 H 0.27162 0.9022 0.71895 0.0
H49 H 0.21747 0.92749 0.69689 0.0
H50 H 0.212 0.84649 0.60877 0.0
H51 H 0.26646 0.82183 0.6301 0.0
N52 N 0.32303 0.81991 0.66819 0.0
N53 N 0.36814 0.81772 0.71178 0.0
N54 N 0.32215 0.85705 0.72096 0.0
C55 C 0.35358 0.80598 0.67951 0.0
C56 C 0.35271 0.84327 0.73264 0.0
C57 C 0.30706 0.84535 0.6888 0.0
C58 C 0.37086 0.77819 0.65711 0.0
C59 C 0.36096 0.77239 0.62018 0.0
C60 C 0.37708 0.74578 0.5993 0.0
C61 C 0.40321 0.72407 0.615 0.0
C62 C 0.41326 0.73015 0.65185 0.0
C63 C 0.39741 0.75701 0.67259 0.0
C64 C 0.36947 0.85606 0.76748 0.0
C65 C 0.399 0.83851 0.781 0.0
C66 C 0.41563 0.85096 0.81319 0.0
C67 C 0.40323 0.8813 0.83272 0.0
C68 C 0.37358 0.89878 0.81948 0.0
C69 C 0.35676 0.88618 0.78723 0.0
C70 C 0.2736 0.86013 0.67618 0.0
C71 C 0.25887 0.8897 0.69491 0.0
C72 C 0.63203 0.2359 0.91608 0.0
C73 C 0.60092 0.21599 0.90135 0.0
C74 C 0.587 0.23319 0.86901 0.0
C75 C 0.60402 0.26902 0.85157 0.0
H76 H 0.59353 0.35083 0.76685 0.0
H77 H 0.56692 0.37813 0.71166 0.0
H78 H 0.65917 0.46776 0.69337 0.0
H79 H 0.68579 0.44081 0.74954 0.0
H80 H 0.75938 0.423 0.80234 0.0
H81 H 0.81688 0.45038 0.82554 0.0
H82 H 0.78318 0.40103 0.93702 0.0
H83 H 0.72662 0.37167 0.91308 0.0
H84 H 0.67305 0.28592 0.91078 0.0
H85 H 0.64319 0.22393 0.94129 0.0
H86 H 0.56333 0.21854 0.85665 0.0
H87 H 0.59269 0.28102 0.82646 0.0
N88 N 0.6407 0.34249 0.81549 0.0
N89 N 0.68978 0.39298 0.80987 0.0
N90 N 0.68569 0.3436 0.85953 0.0
C91 C 0.65803 0.37599 0.7969 0.0
C92 C 0.70368 0.37697 0.84136 0.0
C93 C 0.65428 0.32601 0.8467 0.0
C94 C 0.64205 0.39338 0.76284 0.0
C95 C 0.60836 0.37635 0.75123 0.0
C96 C 0.59307 0.39194 0.71926 0.0
C97 C 0.61093 0.42502 0.69768 0.0
C98 C 0.64446 0.44246 0.70941 0.0
C99 C 0.65984 0.42682 0.74157 0.0
C100 C 0.73831 0.39517 0.85579 0.0
C101 C 0.76426 0.41808 0.83181 0.0
C102 C 0.7973 0.43403 0.84533 0.0
C103 C 0.8051 0.42837 0.88347 0.0
C104 C 0.77883 0.40562 0.90744 0.0
C105 C 0.7461 0.38898 0.89373 0.0
C106 C 0.63545 0.28864 0.866 0.0
C107 C 0.64907 0.27169 0.89864 0.0
C108 C 0.74891 0.59261 0.39908 0.0
C109 C 0.72411 0.57187 0.37629 0.0
C110 C 0.73423 0.56908 0.33852 0.0
C111 C 0.7681 0.58622 0.32412 0.0
H112 H 0.85081 0.5681 0.24853 0.0
H113 H 0.87837 0.54196 0.19509 0.0
H114 H 0.96689 0.63645 0.1944 0.0
H115 H 0.93903 0.66319 0.24785 0.0
H116 H 0.92465 0.74196 0.30557 0.0
H117 H 0.94471 0.80292 0.3365 0.0
H118 H 0.88769 0.75205 0.43797 0.0
H119 H 0.86722 0.69235 0.40723 0.0
H120 H 0.80076 0.62612 0.40294 0.0
H121 H 0.74269 0.59481 0.42842 0.0
H122 H 0.71582 0.55416 0.31972 0.0
H123 H 0.77481 0.58369 0.29492 0.0
N124 N 0.84332 0.61476 0.30038 0.0
N125 N 0.89221 0.66514 0.30318 0.0
N126 N 0.84503 0.65827 0.34832 0.0
C127 C 0.8756 0.63329 0.28613 0.0
C128 C 0.87697 0.67766 0.33449 0.0
C129 C 0.82789 0.62709 0.33146 0.0
C130 C 0.89258 0.61794 0.2528 0.0
C131 C 0.87614 0.58353 0.23711 0.0
C132 C 0.89212 0.56824 0.20647 0.0
C133 C 0.92501 0.58686 0.19038 0.0
C134 C 0.94139 0.62146 0.2058 0.0
C135 C 0.92545 0.63673 0.23663 0.0
C136 C 0.8938 0.71251 0.35368 0.0
C137 C 0.91686 0.74372 0.33462 0.0
C138 C 0.92839 0.77862 0.35237 0.0
C139 C 0.9172 0.7828 0.38954 0.0
C140 C 0.896 0.75047 0.40904 0.0
C141 C 0.88436 0.71603 0.39137 0.0
C142 C 0.79253 0.60732 0.34688 0.0
C143 C 0.78248 0.61035 0.3845 0.0
C144 C 0.69582 0.88406 0.83648 0.0
C145 C 0.69272 0.88192 0.87571 0.0
C146 C 0.71481 0.85886 0.8965 0.0
C147 C 0.74001 0.83917 0.87849 0.0
H148 H 0.79904 0.73683 0.88705 0.0
H149 H 0.83542 0.69411 0.92259 0.0
H150 H 0.92456 0.73016 0.84386 0.0
H151 H 0.88779 0.77121 0.8076 0.0
H152 H 0.85194 0.78819 0.71889 0.0
H153 H 0.88531 0.82014 0.66368 0.0
H154 H 0.8378 0.92775 0.67842 0.0
H155 H 0.80348 0.89532 0.73305 0.0
H156 H 0.72329 0.8675 0.78823 0.0
H157 H 0.67866 0.90082 0.81959 0.0
H158 H 0.7134 0.85691 0.92676 0.0
H159 H 0.75716 0.82243 0.89541 0.0
N160 N 0.79075 0.79789 0.83948 0.0
N161 N 0.82894 0.79625 0.78719 0.0
N162 N 0.78332 0.83726 0.78459 0.0
C163 C 0.81889 0.78358 0.82295 0.0
C164 C 0.81125 0.82287 0.76777 0.0
C165 C 0.77272 0.82462 0.82037 0.0
C166 C 0.84044 0.75716 0.84443 0.0
C167 C 0.82637 0.73545 0.87733 0.0
C168 C 0.84735 0.71125 0.89784 0.0
C169 C 0.88301 0.70875 0.88616 0.0
C170 C 0.89705 0.73076 0.85334 0.0
C171 C 0.87594 0.75442 0.83258 0.0
C172 C 0.82558 0.8395 0.73061 0.0
C173 C 0.84808 0.81842 0.70991 0.0
C174 C 0.86735 0.83678 0.67842 0.0
C175 C 0.86484 0.87676 0.66724 0.0
C176 C 0.84027 0.89689 0.68629 0.0
C177 C 0.82064 0.87833 0.71764 0.0
C178 C 0.74391 0.84245 0.8393 0.0
C179 C 0.72125 0.86471 0.81848 0.0
C180 C 0.64646 0.10372 0.20498 0.0
C181 C 0.61668 0.1214 0.19245 0.0
C182 C 0.60322 0.14976 0.21377 0.0
C183 C 0.61891 0.15999 0.24711 0.0
H184 H 0.59144 0.19899 0.34987 0.0
H185 H 0.56229 0.24491 0.38567 0.0
H186 H 0.66117 0.27648 0.44204 0.0
H187 H 0.68986 0.2293 0.40731 0.0
H188 H 0.73379 0.14067 0.4107 0.0
H189 H 0.7876 0.11358 0.43058 0.0
H190 H 0.81608 0.09795 0.31544 0.0
H191 H 0.76124 0.12335 0.2958 0.0
H192 H 0.68518 0.09985 0.2474 0.0
H193 H 0.65748 0.08191 0.18895 0.0
H194 H 0.57995 0.16345 0.20511 0.0
H195 H 0.60753 0.18174 0.26289 0.0
N196 N 0.64745 0.17513 0.31872 0.0
N197 N 0.69247 0.17169 0.36236 0.0
N198 N 0.69543 0.13946 0.30668 0.0
C199 C 0.66132 0.1849 0.35188 0.0
C200 C 0.70962 0.14889 0.3399 0.0
C201 C 0.66429 0.1525 0.29594 0.0
C202 C 0.64306 0.21072 0.37556 0.0
C203 C 0.60688 0.2155 0.37014 0.0
C204 C 0.59019 0.24199 0.39055 0.0
C205 C 0.60941 0.26474 0.41652 0.0
C206 C 0.64534 0.25909 0.42267 0.0
C207 C 0.66191 0.23218 0.40258 0.0
C208 C 0.74318 0.13401 0.3517 0.0
C209 C 0.7516 0.13159 0.38962 0.0
C210 C 0.78266 0.11625 0.40099 0.0
C211 C 0.80635 0.10356 0.37465 0.0
C212 C 0.79817 0.10671 0.3366 0.0
C213 C 0.76681 0.12148 0.32529 0.0
C214 C 0.64854 0.14217 0.25994 0.0
C215 C 0.66237 0.11414 0.23836 0.0
C216 C 0.22812 0.56928 0.17149 0.0
C217 C 0.22087 0.57512 0.13321 0.0
C218 C 0.24703 0.59892 0.10989 0.0
C219 C 0.27902 0.61654 0.12438 0.0
H220 H 0.34823 0.72249 0.10938 0.0
H221 H 0.37662 0.7855 0.07947 0.0
H222 H 0.45446 0.7942 0.16606 0.0
H223 H 0.42665 0.73077 0.19561 0.0
H224 H 0.42766 0.66124 0.25466 0.0
H225 H 0.45537 0.63417 0.30922 0.0
H226 H 0.36809 0.53805 0.32357 0.0
H227 H 0.34039 0.56482 0.26799 0.0
H228 H 0.26493 0.58122 0.21534 0.0
H229 H 0.20858 0.55208 0.19079 0.0
H230 H 0.24315 0.60366 0.08023 0.0
H231 H 0.29839 0.63472 0.10552 0.0
N232 N 0.33681 0.66422 0.16022 0.0
N233 N 0.38125 0.66692 0.20487 0.0
N234 N 0.33413 0.61415 0.20916 0.0
C235 C 0.36736 0.6831 0.1737 0.0
C236 C 0.36507 0.63246 0.22278 0.0
C237 C 0.31995 0.62987 0.1777 0.0
C238 C 0.38503 0.72134 0.15502 0.0
C239 C 0.37144 0.73771 0.12209 0.0
C240 C 0.38762 0.77407 0.105 0.0
C241 C 0.41779 0.79513 0.12038 0.0
C242 C 0.43155 0.77864 0.15315 0.0
C243 C 0.41541 0.74225 0.17023 0.0
C244 C 0.38155 0.61539 0.25669 0.0
C245 C 0.41414 0.63433 0.26928 0.0
C246 C 0.43006 0.61888 0.30091 0.0
C247 C 0.41395 0.58401 0.32117 0.0
C248 C 0.38147 0.56478 0.30854 0.0
C249 C 0.36545 0.58029 0.27673 0.0
C250 C 0.28622 0.61031 0.16247 0.0
C251 C 0.26048 0.58623 0.18579 0.0
C252 C 0.13724 0.24153 0.60882 0.0
C253 C 0.11294 0.21163 0.62796 0.0
C254 C 0.09981 0.21861 0.66376 0.0
C255 C 0.11211 0.25387 0.68059 0.0
H256 H 0.09216 0.33504 0.7657 0.0
H257 H 0.06412 0.36264 0.81851 0.0
H258 H 0.14975 0.46068 0.81322 0.0
H259 H 0.17749 0.43362 0.76033 0.0
H260 H 0.24485 0.43586 0.7047 0.0
H261 H 0.30376 0.46595 0.67965 0.0
H262 H 0.30327 0.37437 0.60168 0.0
H263 H 0.24428 0.34489 0.62592 0.0
H264 H 0.16892 0.2981 0.60998 0.0
H265 H 0.14721 0.23783 0.58085 0.0
H266 H 0.0811 0.19622 0.67934 0.0
H267 H 0.10247 0.25782 0.70862 0.0
N268 N 0.13851 0.33257 0.71021 0.0
N269 N 0.18729 0.38328 0.7121 0.0
N270 N 0.18698 0.33674 0.66694 0.0
C271 C 0.1547 0.36538 0.72616 0.0
C272 C 0.20367 0.36903 0.68255 0.0
C273 C 0.15456 0.31828 0.68031 0.0
C274 C 0.13722 0.38193 0.75852 0.0
C275 C 0.10502 0.36252 0.7757 0.0
C276 C 0.089 0.37828 0.80619 0.0
C277 C 0.10458 0.414 0.82025 0.0
C278 C 0.13665 0.43345 0.80294 0.0
C279 C 0.15274 0.41765 0.77264 0.0
C280 C 0.23959 0.38788 0.66743 0.0
C281 C 0.25723 0.42215 0.68217 0.0
C282 C 0.29118 0.43929 0.66792 0.0
C283 C 0.30841 0.4226 0.6386 0.0
C284 C 0.2907 0.38842 0.62385 0.0
C285 C 0.25681 0.37135 0.63801 0.0
C286 C 0.1379 0.2827 0.66198 0.0
C287 C 0.14962 0.27633 0.62558 0.0
Zn288 Zn 0.04318 0.98781 0.53796 0.0
Zn289 Zn 0.97514 0.00585 0.48563 0.0
C290 C 0.07847 0.06175 0.55878 0.0
O291 O 0.10455 0.04699 0.54158 0.0
C292 C 0.94503 0.93098 0.46295 0.0
O293 O 0.91837 0.94268 0.48193 0.0
O294 O 0.08304 0.96058 0.55934 0.0
O295 O 0.99766 0.95356 0.55556 0.0
O296 O 0.95777 0.99327 0.53879 0.0
C297 C 0.08615 0.95493 0.59438 0.0
O298 O 0.06208 0.96627 0.61715 0.0
O299 O 0.04725 0.04192 0.56055 0.0
C300 C 0.92833 0.03082 0.42804 0.0
O301 O 0.94472 0.00758 0.40746 0.0
O302 O 0.93715 0.03461 0.46168 0.0
O303 O 0.02097 0.04285 0.47579 0.0
O304 O 0.05505 0.99526 0.4829 0.0
O305 O 0.975 0.95341 0.46039 0.0
C306 C 0.96659 0.96417 0.55898 0.0
C307 C 0.04987 0.02896 0.46831 0.0
Zn308 Zn 0.53587 0.98377 0.99684 0.0
Zn309 Zn 0.48235 0.02784 0.0264 0.0
C310 C 0.48974 0.9343 0.95456 0.0
O311 O 0.50498 0.90799 0.97502 0.0
C312 C 0.53113 0.07527 0.06803 0.0
O313 O 0.51573 0.10251 0.04899 0.0
O314 O 0.57672 0.95646 0.9797 0.0
O315 O 0.55364 0.04264 0.99082 0.0
O316 O 0.50008 0.05704 0.97694 0.0
C317 C 0.59101 0.96867 0.94789 0.0
O318 O 0.57965 -0.00079 0.92949 0.0
O319 O 0.49832 0.97106 0.95898 0.0
C320 C 0.43572 0.0473 0.0818 0.0
O321 O 0.45368 0.02215 0.10051 0.0
O322 O 0.44243 0.05469 0.04696 0.0
O323 O 0.46367 0.96921 0.03107 0.0
O324 O 0.51701 0.95556 0.04633 0.0
O325 O 0.52178 0.03883 0.06276 0.0
C326 C 0.53404 0.06575 0.97424 0.0
C327 C 0.4831 0.94635 0.04819 0.0
Zn328 Zn 0.52638 0.46805 0.48759 0.0
Zn329 Zn 0.50141 0.53785 0.52865 0.0
C330 C 0.58456 0.49675 0.43624 0.0
O331 O 0.56597 0.47045 0.41675 0.0
C332 C 0.44853 0.49705 0.58051 0.0
O333 O 0.47002 0.51693 0.60301 0.0
O334 O 0.53219 0.41433 0.46971 0.0
O335 O 0.52586 0.45917 0.54427 0.0
O336 O 0.54487 0.52094 0.55492 0.0
C337 C 0.55563 0.39537 0.48515 0.0
O338 O 0.5733 0.4105 0.51307 0.0
O339 O 0.57242 0.50304 0.46852 0.0
C340 C 0.46106 0.59974 0.53974 0.0
O341 O 0.441 0.57836 0.51709 0.0
O342 O 0.49101 0.58894 0.54893 0.0
O343 O 0.50211 0.54917 0.47243 0.0
O344 O 0.48407 0.48741 0.46068 0.0
O345 O 0.45712 0.49923 0.54578 0.0
C346 C 0.54343 0.48397 0.56411 0.0
C347 C 0.48503 0.52448 0.45213 0.0
Zn348 Zn 0.99831 0.53301 0.9796 0.0
Zn349 Zn 0.03114 0.46803 0.03197 0.0
C350 C 0.9428 0.4992 0.93595 0.0
O351 O 0.96368 0.52272 0.91166 0.0
C352 C 0.08562 0.50159 0.0774 0.0
O353 O 0.06458 0.47759 0.10117 0.0
O354 O 0.98754 0.58421 0.95418 0.0
O355 O 1.00228 0.54608 0.03415 0.0
O356 O 0.98827 0.4853 0.05917 0.0
C357 C 0.96199 0.59946 0.96916 0.0
O358 O 0.9473 0.58324 1.00107 0.0
O359 O 0.95265 0.49547 0.96966 0.0
C360 C 0.06698 0.4014 0.04486 0.0
O361 O 0.08336 0.41747 0.01368 0.0
O362 O 0.04069 0.41679 0.05811 0.0
O363 O 0.0293 0.45502 0.97731 0.0
O364 O 0.04029 0.51567 0.95086 0.0
O365 O 0.07636 0.50551 0.04349 0.0
C366 C 0.98824 0.52252 0.06104 0.0
C367 C 0.04176 0.47859 0.94973 0.0
C368 C 0.12622 0.05593 0.39706 0.0
C369 C 0.12626 0.09732 0.39119 0.0
H370 H 0.10192 0.00173 0.42635 0.0
C371 C 0.10301 0.1162 0.41328 0.0
H372 H 0.14352 0.04038 0.38031 0.0
C373 C 0.07862 0.09394 0.43883 0.0
C374 C 0.07749 0.05245 0.44338 0.0
H375 H 0.103 0.14814 0.41019 0.0
H376 H 0.06036 0.1092 0.45472 0.0
C377 C 0.1022 0.03372 0.42318 0.0
C378 C 0.43385 0.86748 0.89239 0.0
C379 C 0.42213 0.89514 0.8661 0.0
H380 H 0.46415 0.85817 0.94103 0.0
C381 C 0.4306 0.936 0.87072 0.0
H382 H 0.4272 0.8358 0.88992 0.0
C383 C 0.45172 0.94889 0.90017 0.0
C384 C 0.46472 0.92113 0.92548 0.0
H385 H 0.42212 0.958 0.85076 0.0
H386 H 0.45874 0.98056 0.90242 0.0
C387 C 0.45493 0.88032 0.92174 0.0
C388 C 0.59653 0.48179 0.65341 0.0
C389 C 0.59457 0.44063 0.66297 0.0
H390 H 0.58186 0.52785 0.61503 0.0
C391 C 0.57615 0.41418 0.63931 0.0
H392 H 0.61018 0.50309 0.67108 0.0
C393 C 0.55973 0.42834 0.60744 0.0
C394 C 0.56131 0.46943 0.59805 0.0
H395 H 0.57457 0.3823 0.64525 0.0
H396 H 0.54574 0.40688 0.59013 0.0
C397 C 0.58007 0.49601 0.62137 0.0
C398 C 0.95843 0.59569 0.12776 0.0
C399 C 0.94188 0.57031 0.15756 0.0
H400 H 0.98568 0.60072 0.07417 0.0
C401 C 0.9411 0.52892 0.15545 0.0
H402 H 0.9592 0.62765 0.1281 0.0
C403 C 0.95625 0.51337 0.12436 0.0
C404 C 0.97251 0.53878 0.09445 0.0
H405 H 0.92903 0.50842 0.17804 0.0
H406 H 0.95512 0.48139 0.12378 0.0
C407 C 0.97345 0.58016 0.09664 0.0
C408 C 0.36127 0.10937 0.10051 0.0
C409 C 0.35976 0.10772 0.13982 0.0
H410 H 0.38645 0.09153 0.0513 0.0
C411 C 0.3836 0.08616 0.1597 0.0
H412 H 0.34289 0.12512 0.08432 0.0
C413 C 0.40805 0.06633 0.14078 0.0
C414 C 0.40947 0.06795 0.10155 0.0
H415 H 0.38357 0.08481 0.18994 0.0
H416 H 0.42607 0.05003 0.15696 0.0
C417 C 0.38601 0.08985 0.08157 0.0
C418 C 0.17437 0.91237 0.5981 0.0
C419 C 0.17819 0.90534 0.63674 0.0
H420 H 0.14243 0.93339 0.55449 0.0
C421 C 0.15117 0.91431 0.66144 0.0
H422 H 0.19495 0.9064 0.57833 0.0
C423 C 0.12106 0.93013 0.64775 0.0
C424 C 0.11739 0.93726 0.6091 0.0
H425 H 0.15313 0.90881 0.69135 0.0
H426 H 0.10074 0.93683 0.66747 0.0
C427 C 0.14431 0.92807 0.58444 0.0
C428 C 0.85651 0.4281 0.92849 0.0
C429 C 0.84019 0.4465 0.89804 0.0
H430 H 0.90144 0.43035 0.96478 0.0
C431 C 0.85783 0.48271 0.88142 0.0
H432 H 0.84426 0.39998 0.94189 0.0
C433 C 0.89095 0.49931 0.89393 0.0
C434 C 0.90725 0.48086 0.92405 0.0
H435 H 0.84601 0.49872 0.85882 0.0
H436 H 0.90362 0.52712 0.88017 0.0
C437 C 0.88948 0.44532 0.94159 0.0
C438 C 0.66995 0.56994 0.42047 0.0
C439 C 0.6881 0.55295 0.39188 0.0
H440 H 0.62326 0.56551 0.45716 0.0
C441 C 0.67156 0.51741 0.3784 0.0
H442 H 0.68132 0.59761 0.43126 0.0
C443 C 0.63791 0.4997 0.39264 0.0
C444 C 0.62002 0.51652 0.42128 0.0
H445 H 0.68476 0.5027 0.35716 0.0
H446 H 0.6262 0.47229 0.38154 0.0
C447 C 0.63647 0.55173 0.43523 0.0
C448 C 0.09361 0.33876 0.12771 0.0
C449 C 0.11961 0.31823 0.11144 0.0
H450 H 0.05614 0.38067 0.11929 0.0
C451 C 0.12616 0.32324 0.07256 0.0
H452 H 0.08824 0.33609 0.15762 0.0
C453 C 0.10809 0.3493 0.05066 0.0
C454 C 0.08279 0.37045 0.06714 0.0
H455 H 0.14544 0.30725 0.05901 0.0
H456 H 0.11432 0.35332 0.02089 0.0
C457 C 0.07521 0.36439 0.10575 0.0
C458 C 0.6045 0.14862 0.93377 0.0
C459 C 0.58348 0.17719 0.91938 0.0
H460 H 0.60552 0.09126 0.96194 0.0
C461 C 0.54583 0.16832 0.92243 0.0
H462 H 0.63353 0.15404 0.93135 0.0
C463 C 0.52967 0.132 0.93978 0.0
C464 C 0.55078 0.10371 0.95452 0.0
H465 H 0.52879 0.18975 0.912 0.0
H466 H 0.50064 0.12635 0.94205 0.0
C467 C 0.58838 0.11242 0.95111 0.0
C468 C 0.89838 0.83477 0.42963 0.0
C469 C 0.92523 0.82121 0.40764 0.0
H470 H 0.88359 0.87922 0.46411 0.0
C471 C 0.9591 0.84449 0.40355 0.0
H472 H 0.87173 0.81825 0.43281 0.0
C473 C 0.96595 0.88009 0.42159 0.0
C474 C 0.939 0.8932 0.44389 0.0
H475 H 0.98042 0.8349 0.3869 0.0
H476 H 0.99228 0.89729 0.41807 0.0
C477 C 0.90516 0.87006 0.44749 0.0
C478 C 0.45522 0.68845 0.59706 0.0
C479 C 0.41893 0.69406 0.59364 0.0
H480 H 0.49709 0.6543 0.58265 0.0
C481 C 0.3973 0.66964 0.57078 0.0
H482 H 0.47281 0.70719 0.61391 0.0
C483 C 0.41137 0.63981 0.55244 0.0
C484 C 0.4473 0.63343 0.55681 0.0
H485 H 0.36912 0.67266 0.56792 0.0
H486 H 0.39371 0.62102 0.53569 0.0
C487 C 0.46922 0.65833 0.57897 0.0
C488 C 0.87919 0.92657 0.61218 0.0
C489 C 0.89026 0.89831 0.63833 0.0
H490 H 0.89467 0.96965 0.56647 0.0
C491 C 0.92653 0.89198 0.63805 0.0
H492 H 0.85138 0.93191 0.61157 0.0
C493 C 0.9512 0.91334 0.61224 0.0
C494 C 0.94025 0.94177 0.58626 0.0
H495 H 0.93614 0.8711 0.65837 0.0
H496 H 0.97898 0.90785 0.61302 0.0
C497 C 0.90398 0.94815 0.58639 0.0
C498 C 0.58691 0.1385 0.13306 0.0
C499 C 0.59856 0.10954 0.15804 0.0
H500 H 0.55678 0.15036 0.08483 0.0
C501 C 0.59045 0.06915 0.15131 0.0
H502 H 0.5933 0.16988 0.13722 0.0
C503 C 0.56956 0.0579 0.12119 0.0
C504 C 0.55647 0.08688 0.09729 0.0
H505 H 0.59891 0.04619 0.17025 0.0
H506 H 0.56267 0.0265 0.11742 0.0
C507 C 0.5661 0.12729 0.10299 0.0
C508 C 0.4317 0.5271 0.36304 0.0
C509 C 0.43114 0.56823 0.3553 0.0
H510 H 0.44921 0.48098 0.39931 0.0
C511 C 0.44793 0.59451 0.38015 0.0
H512 H 0.41937 0.50596 0.34442 0.0
C513 C 0.46524 0.58025 0.4114 0.0
C514 C 0.46624 0.53921 0.41889 0.0
H515 H 0.44752 0.62631 0.37563 0.0
H516 H 0.47783 0.60154 0.42975 0.0
C517 C 0.44903 0.51277 0.39443 0.0
C518 C 0.07299 0.40546 0.88379 0.0
C519 C 0.08787 0.43066 0.85309 0.0
H520 H 0.04716 0.4006 0.93807 0.0
C521 C 0.08716 0.47195 0.85437 0.0
H522 H 0.07344 0.37362 0.88412 0.0
C523 C 0.0721 0.48756 0.8855 0.0
C524 C 0.05747 0.46232 0.91628 0.0
H525 H 0.09796 0.49228 0.83111 0.0
H526 H 0.07202 0.51944 0.88543 0.0
C527 C 0.05808 0.42105 0.91493 0.0
C528 C 0.64781 0.88788 0.92744 0.0
C529 C 0.66711 0.90441 0.89482 0.0
H530 H 0.60878 0.89535 0.96999 0.0
C531 C 0.66194 0.9428 0.88059 0.0
H532 H 0.65083 0.85821 0.93889 0.0
C533 C 0.63753 0.96385 0.89814 0.0
C534 C 0.61806 0.94716 0.93052 0.0
H535 H 0.67692 0.95678 0.85599 0.0
H536 H 0.63395 0.99323 0.88631 0.0
C537 C 0.62364 0.90912 0.94521 0.0
C538 C 0.85068 0.05438 0.3691 0.0
C539 C 0.83894 0.08629 0.38701 0.0
H540 H 0.88832 0.01207 0.36783 0.0
C541 C 0.858 0.10077 0.41757 0.0
H542 H 0.83641 0.04198 0.34587 0.0
C543 C 0.88726 0.083 0.43061 0.0
C544 C 0.89855 0.05079 0.41302 0.0
H545 H 0.85031 0.12585 0.43154 0.0
H546 H 0.90105 0.09452 0.45452 0.0
C547 C 0.88034 0.03703 0.3818 0.0
C548 C 0.16927 0.51952 0.1338 0.0
C549 C 0.18645 0.55624 0.11781 0.0
H550 H 0.12437 0.47407 0.13379 0.0
C551 C 0.17028 0.57448 0.08716 0.0
H552 H 0.18102 0.50364 0.15655 0.0
C553 C 0.13794 0.55661 0.07324 0.0
C554 C 0.1206 0.52054 0.09015 0.0
H555 H 0.18214 0.60299 0.07423 0.0
H556 H 0.12608 0.57149 0.04992 0.0
C557 C 0.13673 0.50225 0.12048 0.0
C558 C 0.35347 0.44249 0.58504 0.0
C559 C 0.34475 0.44055 0.6236 0.0
H560 H 0.39297 0.46154 0.54115 0.0
C561 C 0.37108 0.45593 0.64777 0.0
H562 H 0.33378 0.43134 0.56551 0.0
C563 C 0.40493 0.47337 0.63377 0.0
C564 C 0.41344 0.47587 0.59521 0.0
H565 H 0.36565 0.45432 0.67765 0.0
H566 H 0.42434 0.48522 0.65327 0.0
C567 C 0.38741 0.45989 0.57102 0.0
C568 C 0.92922 0.66141 0.88918 0.0
C569 C 0.90533 0.68286 0.90774 0.0
H570 H 0.96638 0.61871 0.89415 0.0
C571 C 0.9024 0.6787 0.94699 0.0
H572 H 0.93178 0.66338 0.85897 0.0
C573 C 0.92185 0.65255 0.96708 0.0
C574 C 0.945 0.63052 0.94839 0.0
H575 H 0.88488 0.69541 0.96225 0.0
H576 H 0.91836 0.64917 0.99724 0.0
C577 C 0.94906 0.63574 0.90932 0.0
C578 C 0.41328 0.86192 0.08705 0.0
C579 C 0.43466 0.8342 0.10243 0.0
H580 H 0.41166 0.91889 0.05822 0.0
C581 C 0.47224 0.84414 0.10044 0.0
H582 H 0.38427 0.85562 0.0886 0.0
C583 C 0.48798 0.88067 0.08325 0.0
C584 C 0.46655 0.90816 0.06759 0.0
H585 H 0.48958 0.82338 0.11157 0.0
H586 H 0.51699 0.88714 0.08187 0.0
C587 C 0.42901 0.89838 0.06984 0.0
C588 C 0.12983 0.15581 0.59154 0.0
C589 C 0.10328 0.17284 0.61096 0.0
H590 H 0.14284 0.10821 0.56 0.0
C591 C 0.06805 0.15266 0.61344 0.0
H592 H 0.1574 0.16989 0.58967 0.0
C593 C 0.05963 0.11667 0.5964 0.0
C594 C 0.0863 0.10006 0.57667 0.0
H595 H 0.0469 0.16498 0.62803 0.0
H596 H 0.03228 0.10192 0.59864 0.0
C597 C 0.12147 0.12013 0.57462 0.0
C598 C 0.56996 0.3192 0.4161 0.0
C599 C 0.59276 0.29579 0.43555 0.0
H600 H 0.54001 0.36872 0.41666 0.0
C601 C 0.60095 0.30374 0.47255 0.0
H602 H 0.56348 0.31441 0.3874 0.0
C603 C 0.58793 0.33538 0.48909 0.0
C604 C 0.5661 0.35945 0.46917 0.0
H605 H 0.61782 0.28583 0.48862 0.0
H606 H 0.59545 0.34136 0.5173 0.0
C607 C 0.55659 0.35052 0.43282 0.0
loop_
_geom_bond_atom_site_label_1
_geom_bond_atom_site_label_2
_geom_bond_distance
_geom_bond_site_symmetry_2
_ccdc_geom_bond_type
C0 C1 1.384 . S
C0 H13 0.947 . S
C0 C35 1.382 . S
C1 C0 1.384 . S
C1 C2 1.378 . S
C2 C1 1.378 . S
C2 C3 1.378 . S
C2 H14 0.952 . S
C3 C2 1.378 . S
C3 H15 0.950 . S
C3 C34 1.383 . S
H4 C23 0.947 . S
H5 C24 0.946 . S
H6 C26 0.953 . S
H7 C27 0.945 . S
H8 C29 0.952 . S
H9 C30 0.949 . S
H10 C32 0.950 . S
H11 C33 0.948 . S
H12 C35 0.951 . S
H13 C0 0.947 . S
H14 C2 0.952 . S
H15 C3 0.950 . S
N16 C19 1.382 . S
N16 C21 1.363 . S
N17 C19 1.371 . S
N17 C20 1.372 . S
N18 C20 1.361 . S
N18 C21 1.377 . S
C19 N16 1.382 . S
C19 N17 1.371 . S
C19 C22 1.480 . S
C20 N17 1.372 . S
C20 N18 1.361 . S
C20 C28 1.457 . S
C21 N16 1.363 . S
C21 N18 1.377 . S
C21 C34 1.479 . S
C22 C19 1.480 . S
C22 C23 1.383 . S
C22 C27 1.385 . S
C23 H4 0.947 . S
C23 C22 1.383 . S
C23 C24 1.388 . S
C24 H5 0.946 . S
C24 C23 1.388 . S
C24 C25 1.384 . S
C25 C24 1.384 . S
C25 C26 1.377 . S
C26 H6 0.953 . S
C26 C25 1.377 . S
C26 C27 1.369 . S
C27 H7 0.945 . S
C27 C22 1.385 . S
C27 C26 1.369 . S
C28 C20 1.457 . S
C28 C29 1.372 . S
C28 C33 1.364 . S
C29 H8 0.952 . S
C29 C28 1.372 . S
C29 C30 1.389 . S
C30 H9 0.949 . S
C30 C29 1.389 . S
C30 C31 1.387 . S
C31 C30 1.387 . S
C31 C32 1.372 . S
C32 H10 0.950 . S
C32 C31 1.372 . S
C32 C33 1.379 . S
C33 H11 0.948 . S
C33 C28 1.364 . S
C33 C32 1.379 . S
C34 C3 1.383 . S
C34 C21 1.479 . S
C34 C35 1.398 . S
C35 C0 1.382 . S
C35 H12 0.951 . S
C35 C34 1.398 . S
C36 C37 1.384 . S
C36 H49 0.947 . S
C36 C71 1.382 . S
C37 C36 1.384 . S
C37 C38 1.378 . S
C38 C37 1.378 . S
C38 C39 1.378 . S
C38 H50 0.952 . S
C39 C38 1.378 . S
C39 H51 0.950 . S
C39 C70 1.383 . S
H40 C59 0.947 . S
H41 C60 0.946 . S
H42 C62 0.953 . S
H43 C63 0.945 . S
H44 C65 0.952 . S
H45 C66 0.949 . S
H46 C68 0.950 . S
H47 C69 0.948 . S
H48 C71 0.951 . S
H49 C36 0.947 . S
H50 C38 0.952 . S
H51 C39 0.950 . S
N52 C55 1.382 . S
N52 C57 1.363 . S
N53 C55 1.371 . S
N53 C56 1.372 . S
N54 C56 1.361 . S
N54 C57 1.377 . S
C55 N52 1.382 . S
C55 N53 1.371 . S
C55 C58 1.480 . S
C56 N53 1.372 . S
C56 N54 1.361 . S
C56 C64 1.457 . S
C57 N52 1.363 . S
C57 N54 1.377 . S
C57 C70 1.479 . S
C58 C55 1.480 . S
C58 C59 1.383 . S
C58 C63 1.385 . S
C59 H40 0.947 . S
C59 C58 1.383 . S
C59 C60 1.388 . S
C60 H41 0.946 . S
C60 C59 1.388 . S
C60 C61 1.384 . S
C61 C60 1.384 . S
C61 C62 1.377 . S
C62 H42 0.953 . S
C62 C61 1.377 . S
C62 C63 1.369 . S
C63 H43 0.945 . S
C63 C58 1.385 . S
C63 C62 1.369 . S
C64 C56 1.457 . S
C64 C65 1.372 . S
C64 C69 1.364 . S
C65 H44 0.952 . S
C65 C64 1.372 . S
C65 C66 1.389 . S
C66 H45 0.949 . S
C66 C65 1.389 . S
C66 C67 1.387 . S
C67 C66 1.387 . S
C67 C68 1.372 . S
C68 H46 0.950 . S
C68 C67 1.372 . S
C68 C69 1.379 . S
C69 H47 0.948 . S
C69 C64 1.364 . S
C69 C68 1.379 . S
C70 C39 1.383 . S
C70 C57 1.479 . S
C70 C71 1.398 . S
C71 C36 1.382 . S
C71 H48 0.951 . S
C71 C70 1.398 . S
C72 C73 1.384 . S
C72 H85 0.947 . S
C72 C107 1.382 . S
C73 C72 1.384 . S
C73 C74 1.378 . S
C74 C73 1.378 . S
C74 C75 1.378 . S
C74 H86 0.952 . S
C75 C74 1.378 . S
C75 H87 0.950 . S
C75 C106 1.383 . S
H76 C95 0.947 . S
H77 C96 0.946 . S
H78 C98 0.953 . S
H79 C99 0.945 . S
H80 C101 0.952 . S
H81 C102 0.949 . S
H82 C104 0.950 . S
H83 C105 0.948 . S
H84 C107 0.951 . S
H85 C72 0.947 . S
H86 C74 0.952 . S
H87 C75 0.950 . S
N88 C91 1.382 . S
N88 C93 1.363 . S
N89 C91 1.371 . S
N89 C92 1.372 . S
N90 C92 1.361 . S
N90 C93 1.377 . S
C91 N88 1.382 . S
C91 N89 1.371 . S
C91 C94 1.480 . S
C92 N89 1.372 . S
C92 N90 1.361 . S
C92 C100 1.457 . S
C93 N88 1.363 . S
C93 N90 1.377 . S
C93 C106 1.479 . S
C94 C91 1.480 . S
C94 C95 1.383 . S
C94 C99 1.385 . S
C95 H76 0.947 . S
C95 C94 1.383 . S
C95 C96 1.388 . S
C96 H77 0.946 . S
C96 C95 1.388 . S
C96 C97 1.384 . S
C97 C96 1.384 . S
C97 C98 1.377 . S
C98 H78 0.953 . S
C98 C97 1.377 . S
C98 C99 1.369 . S
C99 H79 0.945 . S
C99 C94 1.385 . S
C99 C98 1.369 . S
C100 C92 1.457 . S
C100 C101 1.372 . S
C100 C105 1.364 . S
C101 H80 0.952 . S
C101 C100 1.372 . S
C101 C102 1.389 . S
C102 H81 0.949 . S
C102 C101 1.389 . S
C102 C103 1.387 . S
C103 C102 1.387 . S
C103 C104 1.372 . S
C104 H82 0.950 . S
C104 C103 1.372 . S
C104 C105 1.379 . S
C105 H83 0.948 . S
C105 C100 1.364 . S
C105 C104 1.379 . S
C106 C75 1.383 . S
C106 C93 1.479 . S
C106 C107 1.398 . S
C107 C72 1.382 . S
C107 H84 0.951 . S
C107 C106 1.398 . S
C108 C109 1.384 . S
C108 H121 0.947 . S
C108 C143 1.382 . S
C109 C108 1.384 . S
C109 C110 1.378 . S
C110 C109 1.378 . S
C110 C111 1.378 . S
C110 H122 0.952 . S
C111 C110 1.378 . S
C111 H123 0.950 . S
C111 C142 1.383 . S
H112 C131 0.947 . S
H113 C132 0.946 . S
H114 C134 0.953 . S
H115 C135 0.945 . S
H116 C137 0.952 . S
H117 C138 0.949 . S
H118 C140 0.950 . S
H119 C141 0.948 . S
H120 C143 0.951 . S
H121 C108 0.947 . S
H122 C110 0.952 . S
H123 C111 0.950 . S
N124 C127 1.382 . S
N124 C129 1.363 . S
N125 C127 1.371 . S
N125 C128 1.372 . S
N126 C128 1.361 . S
N126 C129 1.377 . S
C127 N124 1.382 . S
C127 N125 1.371 . S
C127 C130 1.480 . S
C128 N125 1.372 . S
C128 N126 1.361 . S
C128 C136 1.457 . S
C129 N124 1.363 . S
C129 N126 1.377 . S
C129 C142 1.479 . S
C130 C127 1.480 . S
C130 C131 1.383 . S
C130 C135 1.385 . S
C131 H112 0.947 . S
C131 C130 1.383 . S
C131 C132 1.388 . S
C132 H113 0.946 . S
C132 C131 1.388 . S
C132 C133 1.384 . S
C133 C132 1.384 . S
C133 C134 1.377 . S
C134 H114 0.953 . S
C134 C133 1.377 . S
C134 C135 1.369 . S
C135 H115 0.945 . S
C135 C130 1.385 . S
C135 C134 1.369 . S
C136 C128 1.457 . S
C136 C137 1.372 . S
C136 C141 1.364 . S
C137 H116 0.952 . S
C137 C136 1.372 . S
C137 C138 1.389 . S
C138 H117 0.949 . S
C138 C137 1.389 . S
C138 C139 1.387 . S
C139 C138 1.387 . S
C139 C140 1.372 . S
C140 H118 0.950 . S
C140 C139 1.372 . S
C140 C141 1.379 . S
C141 H119 0.948 . S
C141 C136 1.364 . S
C141 C140 1.379 . S
C142 C111 1.383 . S
C142 C129 1.479 . S
C142 C143 1.398 . S
C143 C108 1.382 . S
C143 H120 0.951 . S
C143 C142 1.398 . S
C144 C145 1.384 . S
C144 H157 0.947 . S
C144 C179 1.382 . S
C145 C144 1.384 . S
C145 C146 1.378 . S
C146 C145 1.378 . S
C146 C147 1.378 . S
C146 H158 0.952 . S
C147 C146 1.378 . S
C147 H159 0.950 . S
C147 C178 1.383 . S
H148 C167 0.947 . S
H149 C168 0.946 . S
H150 C170 0.953 . S
H151 C171 0.945 . S
H152 C173 0.952 . S
H153 C174 0.949 . S
H154 C176 0.950 . S
H155 C177 0.948 . S
H156 C179 0.951 . S
H157 C144 0.947 . S
H158 C146 0.952 . S
H159 C147 0.950 . S
N160 C163 1.382 . S
N160 C165 1.363 . S
N161 C163 1.371 . S
N161 C164 1.372 . S
N162 C164 1.361 . S
N162 C165 1.377 . S
C163 N160 1.382 . S
C163 N161 1.371 . S
C163 C166 1.480 . S
C164 N161 1.372 . S
C164 N162 1.361 . S
C164 C172 1.457 . S
C165 N160 1.363 . S
C165 N162 1.377 . S
C165 C178 1.479 . S
C166 C163 1.480 . S
C166 C167 1.383 . S
C166 C171 1.385 . S
C167 H148 0.947 . S
C167 C166 1.383 . S
C167 C168 1.388 . S
C168 H149 0.946 . S
C168 C167 1.388 . S
C168 C169 1.384 . S
C169 C168 1.384 . S
C169 C170 1.377 . S
C170 H150 0.953 . S
C170 C169 1.377 . S
C170 C171 1.369 . S
C171 H151 0.945 . S
C171 C166 1.385 . S
C171 C170 1.369 . S
C172 C164 1.457 . S
C172 C173 1.372 . S
C172 C177 1.364 . S
C173 H152 0.952 . S
C173 C172 1.372 . S
C173 C174 1.389 . S
C174 H153 0.949 . S
C174 C173 1.389 . S
C174 C175 1.387 . S
C175 C174 1.387 . S
C175 C176 1.372 . S
C176 H154 0.950 . S
C176 C175 1.372 . S
C176 C177 1.379 . S
C177 H155 0.948 . S
C177 C172 1.364 . S
C177 C176 1.379 . S
C178 C147 1.383 . S
C178 C165 1.479 . S
C178 C179 1.398 . S
C179 C144 1.382 . S
C179 H156 0.951 . S
C179 C178 1.398 . S
C180 C181 1.384 . S
C180 H193 0.947 . S
C180 C215 1.382 . S
C181 C180 1.384 . S
C181 C182 1.378 . S
C182 C181 1.378 . S
C182 C183 1.378 . S
C182 H194 0.952 . S
C183 C182 1.378 . S
C183 H195 0.950 . S
C183 C214 1.383 . S
H184 C203 0.947 . S
H185 C204 0.946 . S
H186 C206 0.953 . S
H187 C207 0.945 . S
H188 C209 0.952 . S
H189 C210 0.949 . S
H190 C212 0.950 . S
H191 C213 0.948 . S
H192 C215 0.951 . S
H193 C180 0.947 . S
H194 C182 0.952 . S
H195 C183 0.950 . S
N196 C199 1.382 . S
N196 C201 1.363 . S
N197 C199 1.371 . S
N197 C200 1.372 . S
N198 C200 1.361 . S
N198 C201 1.377 . S
C199 N196 1.382 . S
C199 N197 1.371 . S
C199 C202 1.480 . S
C200 N197 1.372 . S
C200 N198 1.361 . S
C200 C208 1.457 . S
C201 N196 1.363 . S
C201 N198 1.377 . S
C201 C214 1.479 . S
C202 C199 1.480 . S
C202 C203 1.383 . S
C202 C207 1.385 . S
C203 H184 0.947 . S
C203 C202 1.383 . S
C203 C204 1.388 . S
C204 H185 0.946 . S
C204 C203 1.388 . S
C204 C205 1.384 . S
C205 C204 1.384 . S
C205 C206 1.377 . S
C206 H186 0.953 . S
C206 C205 1.377 . S
C206 C207 1.369 . S
C207 H187 0.945 . S
C207 C202 1.385 . S
C207 C206 1.369 . S
C208 C200 1.457 . S
C208 C209 1.372 . S
C208 C213 1.364 . S
C209 H188 0.952 . S
C209 C208 1.372 . S
C209 C210 1.389 . S
C210 H189 0.949 . S
C210 C209 1.389 . S
C210 C211 1.387 . S
C211 C210 1.387 . S
C211 C212 1.372 . S
C212 H190 0.950 . S
C212 C211 1.372 . S
C212 C213 1.379 . S
C213 H191 0.948 . S
C213 C208 1.364 . S
C213 C212 1.379 . S
C214 C183 1.383 . S
C214 C201 1.479 . S
C214 C215 1.398 . S
C215 C180 1.382 . S
C215 H192 0.951 . S
C215 C214 1.398 . S
C216 C217 1.384 . S
C216 H229 0.947 . S
C216 C251 1.382 . S
C217 C216 1.384 . S
C217 C218 1.378 . S
C218 C217 1.378 . S
C218 C219 1.378 . S
C218 H230 0.952 . S
C219 C218 1.378 . S
C219 H231 0.950 . S
C219 C250 1.383 . S
H220 C239 0.947 . S
H221 C240 0.946 . S
H222 C242 0.953 . S
H223 C243 0.945 . S
H224 C245 0.952 . S
H225 C246 0.949 . S
H226 C248 0.950 . S
H227 C249 0.948 . S
H228 C251 0.951 . S
H229 C216 0.947 . S
H230 C218 0.952 . S
H231 C219 0.950 . S
N232 C235 1.382 . S
N232 C237 1.363 . S
N233 C235 1.371 . S
N233 C236 1.372 . S
N234 C236 1.361 . S
N234 C237 1.377 . S
C235 N232 1.382 . S
C235 N233 1.371 . S
C235 C238 1.480 . S
C236 N233 1.372 . S
C236 N234 1.361 . S
C236 C244 1.457 . S
C237 N232 1.363 . S
C237 N234 1.377 . S
C237 C250 1.479 . S
C238 C235 1.480 . S
C238 C239 1.383 . S
C238 C243 1.385 . S
C239 H220 0.947 . S
C239 C238 1.383 . S
C239 C240 1.388 . S
C240 H221 0.946 . S
C240 C239 1.388 . S
C240 C241 1.384 . S
C241 C240 1.384 . S
C241 C242 1.377 . S
C242 H222 0.953 . S
C242 C241 1.377 . S
C242 C243 1.369 . S
C243 H223 0.945 . S
C243 C238 1.385 . S
C243 C242 1.369 . S
C244 C236 1.457 . S
C244 C245 1.372 . S
C244 C249 1.364 . S
C245 H224 0.952 . S
C245 C244 1.372 . S
C245 C246 1.389 . S
C246 H225 0.949 . S
C246 C245 1.389 . S
C246 C247 1.387 . S
C247 C246 1.387 . S
C247 C248 1.372 . S
C248 H226 0.950 . S
C248 C247 1.372 . S
C248 C249 1.379 . S
C249 H227 0.948 . S
C249 C244 1.364 . S
C249 C248 1.379 . S
C250 C219 1.383 . S
C250 C237 1.479 . S
C250 C251 1.398 . S
C251 C216 1.382 . S
C251 H228 0.951 . S
C251 C250 1.398 . S
C252 C253 1.384 . S
C252 H265 0.947 . S
C252 C287 1.382 . S
C253 C252 1.384 . S
C253 C254 1.378 . S
C254 C253 1.378 . S
C254 C255 1.378 . S
C254 H266 0.952 . S
C255 C254 1.378 . S
C255 H267 0.950 . S
C255 C286 1.383 . S
H256 C275 0.947 . S
H257 C276 0.946 . S
H258 C278 0.953 . S
H259 C279 0.945 . S
H260 C281 0.952 . S
H261 C282 0.949 . S
H262 C284 0.950 . S
H263 C285 0.948 . S
H264 C287 0.951 . S
H265 C252 0.947 . S
H266 C254 0.952 . S
H267 C255 0.950 . S
N268 C271 1.382 . S
N268 C273 1.363 . S
N269 C271 1.371 . S
N269 C272 1.372 . S
N270 C272 1.361 . S
N270 C273 1.377 . S
C271 N268 1.382 . S
C271 N269 1.371 . S
C271 C274 1.480 . S
C272 N269 1.372 . S
C272 N270 1.361 . S
C272 C280 1.457 . S
C273 N268 1.363 . S
C273 N270 1.377 . S
C273 C286 1.479 . S
C274 C271 1.480 . S
C274 C275 1.383 . S
C274 C279 1.385 . S
C275 H256 0.947 . S
C275 C274 1.383 . S
C275 C276 1.388 . S
C276 H257 0.946 . S
C276 C275 1.388 . S
C276 C277 1.384 . S
C277 C276 1.384 . S
C277 C278 1.377 . S
C278 H258 0.953 . S
C278 C277 1.377 . S
C278 C279 1.369 . S
C279 H259 0.945 . S
C279 C274 1.385 . S
C279 C278 1.369 . S
C280 C272 1.457 . S
C280 C281 1.372 . S
C280 C285 1.364 . S
C281 H260 0.952 . S
C281 C280 1.372 . S
C281 C282 1.389 . S
C282 H261 0.949 . S
C282 C281 1.389 . S
C282 C283 1.387 . S
C283 C282 1.387 . S
C283 C284 1.372 . S
C284 H262 0.950 . S
C284 C283 1.372 . S
C284 C285 1.379 . S
C285 H263 0.948 . S
C285 C280 1.364 . S
C285 C284 1.379 . S
C286 C255 1.383 . S
C286 C273 1.479 . S
C286 C287 1.398 . S
C287 C252 1.382 . S
C287 H264 0.951 . S
C287 C286 1.398 . S
Zn288 O294 1.969 1_545 S
Zn288 O295 1.965 1_545 S
Zn288 O299 2.024 . S
Zn288 O304 1.969 . S
Zn289 O296 1.969 . S
Zn289 O302 1.969 1_565 S
Zn289 O303 1.965 1_665 S
Zn289 O305 2.024 . S
C290 O291 1.229 . S
C290 O299 1.058 . S
O291 C290 1.229 . S
C292 O293 1.229 . S
C292 O305 1.058 . S
O293 C292 1.229 . S
O294 Zn288 1.969 1_565 S
O294 C297 1.267 . S
O295 Zn288 1.965 1_565 S
O295 C306 1.260 1_455 S
O296 Zn289 1.969 . S
O296 C306 1.258 . S
C297 O294 1.267 . S
C297 O298 1.228 . S
O298 C297 1.228 . S
O299 Zn288 2.024 . S
O299 C290 1.058 . S
C300 O301 1.228 . S
C300 O302 1.267 . S
O301 C300 1.228 . S
O302 Zn289 1.969 1_545 S
O302 C300 1.267 . S
O303 Zn289 1.965 1_445 S
O303 C307 1.260 . S
O304 Zn288 1.969 . S
O304 C307 1.258 . S
O305 Zn289 2.024 . S
O305 C292 1.058 . S
C306 O295 1.260 1_655 S
C306 O296 1.258 . S
C307 O303 1.260 . S
C307 O304 1.258 . S
Zn308 O314 1.969 . S
Zn308 O315 1.965 1_565 S
Zn308 O319 2.024 . S
Zn308 O324 1.969 1_556 S
Zn309 O316 1.969 . S
Zn309 O322 1.969 . S
Zn309 O323 1.965 1_545 S
Zn309 O325 2.024 . S
C310 O311 1.229 . S
C310 O319 1.058 . S
O311 C310 1.229 . S
C312 O313 1.229 . S
C312 O325 1.058 . S
O313 C312 1.229 . S
O314 Zn308 1.969 . S
O314 C317 1.267 . S
O315 Zn308 1.965 1_545 S
O315 C326 1.260 . S
O316 Zn309 1.969 . S
O316 C326 1.258 1_554 S
C317 O314 1.267 . S
C317 O318 1.228 . S
O318 C317 1.228 . S
O319 Zn308 2.024 . S
O319 C310 1.058 . S
C320 O321 1.228 . S
C320 O322 1.267 . S
O321 C320 1.228 . S
O322 Zn309 1.969 . S
O322 C320 1.267 . S
O323 Zn309 1.965 1_565 S
O323 C327 1.260 . S
O324 Zn308 1.969 1_554 S
O324 C327 1.258 . S
O325 Zn309 2.024 . S
O325 C312 1.058 . S
C326 O315 1.260 . S
C326 O316 1.258 1_556 S
C327 O323 1.260 . S
C327 O324 1.258 . S
Zn328 O334 1.969 . S
Zn328 O335 1.965 . S
Zn328 O339 2.024 . S
Zn328 O344 1.969 . S
Zn329 O336 1.969 . S
Zn329 O342 1.969 . S
Zn329 O343 1.965 . S
Zn329 O345 2.024 . S
C330 O331 1.229 . S
C330 O339 1.058 . S
O331 C330 1.229 . S
C332 O333 1.229 . S
C332 O345 1.058 . S
O333 C332 1.229 . S
O334 Zn328 1.969 . S
O334 C337 1.267 . S
O335 Zn328 1.965 . S
O335 C346 1.260 . S
O336 Zn329 1.969 . S
O336 C346 1.258 . S
C337 O334 1.267 . S
C337 O338 1.228 . S
O338 C337 1.228 . S
O339 Zn328 2.024 . S
O339 C330 1.058 . S
C340 O341 1.228 . S
C340 O342 1.267 . S
O341 C340 1.228 . S
O342 Zn329 1.969 . S
O342 C340 1.267 . S
O343 Zn329 1.965 . S
O343 C347 1.260 . S
O344 Zn328 1.969 . S
O344 C347 1.258 . S
O345 Zn329 2.024 . S
O345 C332 1.058 . S
C346 O335 1.260 . S
C346 O336 1.258 . S
C347 O343 1.260 . S
C347 O344 1.258 . S
Zn348 O354 1.969 . S
Zn348 O355 1.965 1_556 S
Zn348 O359 2.024 . S
Zn348 O364 1.969 1_655 S
Zn349 O356 1.969 . S
Zn349 O362 1.969 . S
Zn349 O363 1.965 1_554 S
Zn349 O365 2.024 . S
C350 O351 1.229 . S
C350 O359 1.058 . S
O351 C350 1.229 . S
C352 O353 1.229 . S
C352 O365 1.058 . S
O353 C352 1.229 . S
O354 Zn348 1.969 . S
O354 C357 1.267 . S
O355 Zn348 1.965 1_554 S
O355 C366 1.260 . S
O356 Zn349 1.969 . S
O356 C366 1.258 1_455 S
C357 O354 1.267 . S
C357 O358 1.228 . S
O358 C357 1.228 . S
O359 Zn348 2.024 . S
O359 C350 1.058 . S
C360 O361 1.228 . S
C360 O362 1.267 . S
O361 C360 1.228 . S
O362 Zn349 1.969 . S
O362 C360 1.267 . S
O363 Zn349 1.965 1_556 S
O363 C367 1.260 . S
O364 Zn348 1.969 1_455 S
O364 C367 1.258 . S
O365 Zn349 2.024 . S
O365 C352 1.058 . S
C366 O355 1.260 . S
C366 O356 1.258 1_655 S
C367 O363 1.260 . S
C367 O364 1.258 . S
C368 C369 1.387 . S
C368 H372 0.950 . S
C368 C377 1.390 . S
C369 C368 1.387 . S
C369 C371 1.387 . S
H370 C377 0.950 . S
C371 C369 1.387 . S
C371 C373 1.390 . S
C371 H375 0.950 . S
H372 C368 0.950 . S
C373 C371 1.390 . S
C373 C374 1.387 . S
C373 H376 0.950 . S
C374 C373 1.387 . S
C374 C377 1.387 . S
H375 C371 0.950 . S
H376 C373 0.950 . S
C377 C368 1.390 . S
C377 H370 0.950 . S
C377 C374 1.387 . S
C378 C379 1.387 . S
C378 H382 0.950 . S
C378 C387 1.390 . S
C379 C378 1.387 . S
C379 C381 1.387 . S
H380 C387 0.950 . S
C381 C379 1.387 . S
C381 C383 1.390 . S
C381 H385 0.950 . S
H382 C378 0.950 . S
C383 C381 1.390 . S
C383 C384 1.387 . S
C383 H386 0.950 . S
C384 C383 1.387 . S
C384 C387 1.387 . S
H385 C381 0.950 . S
H386 C383 0.950 . S
C387 C378 1.390 . S
C387 H380 0.950 . S
C387 C384 1.387 . S
C388 C389 1.387 . S
C388 H392 0.950 . S
C388 C397 1.390 . S
C389 C388 1.387 . S
C389 C391 1.387 . S
H390 C397 0.950 . S
C391 C389 1.387 . S
C391 C393 1.390 . S
C391 H395 0.950 . S
H392 C388 0.950 . S
C393 C391 1.390 . S
C393 C394 1.387 . S
C393 H396 0.950 . S
C394 C393 1.387 . S
C394 C397 1.387 . S
H395 C391 0.950 . S
H396 C393 0.950 . S
C397 C388 1.390 . S
C397 H390 0.950 . S
C397 C394 1.387 . S
C398 C399 1.387 . S
C398 H402 0.950 . S
C398 C407 1.390 . S
C399 C398 1.387 . S
C399 C401 1.387 . S
H400 C407 0.950 . S
C401 C399 1.387 . S
C401 C403 1.390 . S
C401 H405 0.950 . S
H402 C398 0.950 . S
C403 C401 1.390 . S
C403 C404 1.387 . S
C403 H406 0.950 . S
C404 C403 1.387 . S
C404 C407 1.387 . S
H405 C401 0.950 . S
H406 C403 0.950 . S
C407 C398 1.390 . S
C407 H400 0.950 . S
C407 C404 1.387 . S
C408 C409 1.387 . S
C408 H412 0.950 . S
C408 C417 1.390 . S
C409 C408 1.387 . S
C409 C411 1.387 . S
H410 C417 0.950 . S
C411 C409 1.387 . S
C411 C413 1.390 . S
C411 H415 0.950 . S
H412 C408 0.950 . S
C413 C411 1.390 . S
C413 C414 1.387 . S
C413 H416 0.950 . S
C414 C413 1.387 . S
C414 C417 1.387 . S
H415 C411 0.950 . S
H416 C413 0.950 . S
C417 C408 1.390 . S
C417 H410 0.950 . S
C417 C414 1.387 . S
C418 C419 1.387 . S
C418 H422 0.950 . S
C418 C427 1.390 . S
C419 C418 1.387 . S
C419 C421 1.387 . S
H420 C427 0.950 . S
C421 C419 1.387 . S
C421 C423 1.390 . S
C421 H425 0.950 . S
H422 C418 0.950 . S
C423 C421 1.390 . S
C423 C424 1.387 . S
C423 H426 0.950 . S
C424 C423 1.387 . S
C424 C427 1.387 . S
H425 C421 0.950 . S
H426 C423 0.950 . S
C427 C418 1.390 . S
C427 H420 0.950 . S
C427 C424 1.387 . S
C428 C429 1.387 . S
C428 H432 0.950 . S
C428 C437 1.390 . S
C429 C428 1.387 . S
C429 C431 1.387 . S
H430 C437 0.950 . S
C431 C429 1.387 . S
C431 C433 1.390 . S
C431 H435 0.950 . S
H432 C428 0.950 . S
C433 C431 1.390 . S
C433 C434 1.387 . S
C433 H436 0.950 . S
C434 C433 1.387 . S
C434 C437 1.387 . S
H435 C431 0.950 . S
H436 C433 0.950 . S
C437 C428 1.390 . S
C437 H430 0.950 . S
C437 C434 1.387 . S
C438 C439 1.387 . S
C438 H442 0.950 . S
C438 C447 1.390 . S
C439 C438 1.387 . S
C439 C441 1.387 . S
H440 C447 0.950 . S
C441 C439 1.387 . S
C441 C443 1.390 . S
C441 H445 0.950 . S
H442 C438 0.950 . S
C443 C441 1.390 . S
C443 C444 1.387 . S
C443 H446 0.950 . S
C444 C443 1.387 . S
C444 C447 1.387 . S
H445 C441 0.950 . S
H446 C443 0.950 . S
C447 C438 1.390 . S
C447 H440 0.950 . S
C447 C444 1.387 . S
C448 C449 1.387 . S
C448 H452 0.950 . S
C448 C457 1.390 . S
C449 C448 1.387 . S
C449 C451 1.387 . S
H450 C457 0.950 . S
C451 C449 1.387 . S
C451 C453 1.390 . S
C451 H455 0.950 . S
H452 C448 0.950 . S
C453 C451 1.390 . S
C453 C454 1.387 . S
C453 H456 0.950 . S
C454 C453 1.387 . S
C454 C457 1.387 . S
H455 C451 0.950 . S
H456 C453 0.950 . S
C457 C448 1.390 . S
C457 H450 0.950 . S
C457 C454 1.387 . S
C458 C459 1.387 . S
C458 H462 0.950 . S
C458 C467 1.390 . S
C459 C458 1.387 . S
C459 C461 1.387 . S
H460 C467 0.950 . S
C461 C459 1.387 . S
C461 C463 1.390 . S
C461 H465 0.950 . S
H462 C458 0.950 . S
C463 C461 1.390 . S
C463 C464 1.387 . S
C463 H466 0.950 . S
C464 C463 1.387 . S
C464 C467 1.387 . S
H465 C461 0.950 . S
H466 C463 0.950 . S
C467 C458 1.390 . S
C467 H460 0.950 . S
C467 C464 1.387 . S
C468 C469 1.387 . S
C468 H472 0.950 . S
C468 C477 1.390 . S
C469 C468 1.387 . S
C469 C471 1.387 . S
H470 C477 0.950 . S
C471 C469 1.387 . S
C471 C473 1.390 . S
C471 H475 0.950 . S
H472 C468 0.950 . S
C473 C471 1.390 . S
C473 C474 1.387 . S
C473 H476 0.950 . S
C474 C473 1.387 . S
C474 C477 1.387 . S
H475 C471 0.950 . S
H476 C473 0.950 . S
C477 C468 1.390 . S
C477 H470 0.950 . S
C477 C474 1.387 . S
C478 C479 1.387 . S
C478 H482 0.950 . S
C478 C487 1.390 . S
C479 C478 1.387 . S
C479 C481 1.387 . S
H480 C487 0.950 . S
C481 C479 1.387 . S
C481 C483 1.390 . S
C481 H485 0.950 . S
H482 C478 0.950 . S
C483 C481 1.390 . S
C483 C484 1.387 . S
C483 H486 0.950 . S
C484 C483 1.387 . S
C484 C487 1.387 . S
H485 C481 0.950 . S
H486 C483 0.950 . S
C487 C478 1.390 . S
C487 H480 0.950 . S
C487 C484 1.387 . S
C488 C489 1.387 . S
C488 H492 0.950 . S
C488 C497 1.390 . S
C489 C488 1.387 . S
C489 C491 1.387 . S
H490 C497 0.950 . S
C491 C489 1.387 . S
C491 C493 1.390 . S
C491 H495 0.950 . S
H492 C488 0.950 . S
C493 C491 1.390 . S
C493 C494 1.387 . S
C493 H496 0.950 . S
C494 C493 1.387 . S
C494 C497 1.387 . S
H495 C491 0.950 . S
H496 C493 0.950 . S
C497 C488 1.390 . S
C497 H490 0.950 . S
C497 C494 1.387 . S
C498 C499 1.387 . S
C498 H502 0.950 . S
C498 C507 1.390 . S
C499 C498 1.387 . S
C499 C501 1.387 . S
H500 C507 0.950 . S
C501 C499 1.387 . S
C501 C503 1.390 . S
C501 H505 0.950 . S
H502 C498 0.950 . S
C503 C501 1.390 . S
C503 C504 1.387 . S
C503 H506 0.950 . S
C504 C503 1.387 . S
C504 C507 1.387 . S
H505 C501 0.950 . S
H506 C503 0.950 . S
C507 C498 1.390 . S
C507 H500 0.950 . S
C507 C504 1.387 . S
C508 C509 1.387 . S
C508 H512 0.950 . S
C508 C517 1.390 . S
C509 C508 1.387 . S
C509 C511 1.387 . S
H510 C517 0.950 . S
C511 C509 1.387 . S
C511 C513 1.390 . S
C511 H515 0.950 . S
H512 C508 0.950 . S
C513 C511 1.390 . S
C513 C514 1.387 . S
C513 H516 0.950 . S
C514 C513 1.387 . S
C514 C517 1.387 . S
H515 C511 0.950 . S
H516 C513 0.950 . S
C517 C508 1.390 . S
C517 H510 0.950 . S
C517 C514 1.387 . S
C518 C519 1.387 . S
C518 H522 0.950 . S
C518 C527 1.390 . S
C519 C518 1.387 . S
C519 C521 1.387 . S
H520 C527 0.950 . S
C521 C519 1.387 . S
C521 C523 1.390 . S
C521 H525 0.950 . S
H522 C518 0.950 . S
C523 C521 1.390 . S
C523 C524 1.387 . S
C523 H526 0.950 . S
C524 C523 1.387 . S
C524 C527 1.387 . S
H525 C521 0.950 . S
H526 C523 0.950 . S
C527 C518 1.390 . S
C527 H520 0.950 . S
C527 C524 1.387 . S
C528 C529 1.387 . S
C528 H532 0.950 . S
C528 C537 1.390 . S
C529 C528 1.387 . S
C529 C531 1.387 . S
H530 C537 0.950 . S
C531 C529 1.387 . S
C531 C533 1.390 . S
C531 H535 0.950 . S
H532 C528 0.950 . S
C533 C531 1.390 . S
C533 C534 1.387 . S
C533 H536 0.950 . S
C534 C533 1.387 . S
C534 C537 1.387 . S
H535 C531 0.950 . S
H536 C533 0.950 . S
C537 C528 1.390 . S
C537 H530 0.950 . S
C537 C534 1.387 . S
C538 C539 1.387 . S
C538 H542 0.950 . S
C538 C547 1.390 . S
C539 C538 1.387 . S
C539 C541 1.387 . S
H540 C547 0.950 . S
C541 C539 1.387 . S
C541 C543 1.390 . S
C541 H545 0.950 . S
H542 C538 0.950 . S
C543 C541 1.390 . S
C543 C544 1.387 . S
C543 H546 0.950 . S
C544 C543 1.387 . S
C544 C547 1.387 . S
H545 C541 0.950 . S
H546 C543 0.950 . S
C547 C538 1.390 . S
C547 H540 0.950 . S
C547 C544 1.387 . S
C548 C549 1.387 . S
C548 H552 0.950 . S
C548 C557 1.390 . S
C549 C548 1.387 . S
C549 C551 1.387 . S
H550 C557 0.950 . S
C551 C549 1.387 . S
C551 C553 1.390 . S
C551 H555 0.950 . S
H552 C548 0.950 . S
C553 C551 1.390 . S
C553 C554 1.387 . S
C553 H556 0.950 . S
C554 C553 1.387 . S
C554 C557 1.387 . S
H555 C551 0.950 . S
H556 C553 0.950 . S
C557 C548 1.390 . S
C557 H550 0.950 . S
C557 C554 1.387 . S
C558 C559 1.387 . S
C558 H562 0.950 . S
C558 C567 1.390 . S
C559 C558 1.387 . S
C559 C561 1.387 . S
H560 C567 0.950 . S
C561 C559 1.387 . S
C561 C563 1.390 . S
C561 H565 0.950 . S
H562 C558 0.950 . S
C563 C561 1.390 . S
C563 C564 1.387 . S
C563 H566 0.950 . S
C564 C563 1.387 . S
C564 C567 1.387 . S
H565 C561 0.950 . S
H566 C563 0.950 . S
C567 C558 1.390 . S
C567 H560 0.950 . S
C567 C564 1.387 . S
C568 C569 1.387 . S
C568 H572 0.950 . S
C568 C577 1.390 . S
C569 C568 1.387 . S
C569 C571 1.387 . S
H570 C577 0.950 . S
C571 C569 1.387 . S
C571 C573 1.390 . S
C571 H575 0.950 . S
H572 C568 0.950 . S
C573 C571 1.390 . S
C573 C574 1.387 . S
C573 H576 0.950 . S
C574 C573 1.387 . S
C574 C577 1.387 . S
H575 C571 0.950 . S
H576 C573 0.950 . S
C577 C568 1.390 . S
C577 H570 0.950 . S
C577 C574 1.387 . S
C578 C579 1.387 . S
C578 H582 0.950 . S
C578 C587 1.390 . S
C579 C578 1.387 . S
C579 C581 1.387 . S
H580 C587 0.950 . S
C581 C579 1.387 . S
C581 C583 1.390 . S
C581 H585 0.950 . S
H582 C578 0.950 . S
C583 C581 1.390 . S
C583 C584 1.387 . S
C583 H586 0.950 . S
C584 C583 1.387 . S
C584 C587 1.387 . S
H585 C581 0.950 . S
H586 C583 0.950 . S
C587 C578 1.390 . S
C587 H580 0.950 . S
C587 C584 1.387 . S
C588 C589 1.387 . S
C588 H592 0.950 . S
C588 C597 1.390 . S
C589 C588 1.387 . S
C589 C591 1.387 . S
H590 C597 0.950 . S
C591 C589 1.387 . S
C591 C593 1.390 . S
C591 H595 0.950 . S
H592 C588 0.950 . S
C593 C591 1.390 . S
C593 C594 1.387 . S
C593 H596 0.950 . S
C594 C593 1.387 . S
C594 C597 1.387 . S
H595 C591 0.950 . S
H596 C593 0.950 . S
C597 C588 1.390 . S
C597 H590 0.950 . S
C597 C594 1.387 . S
C598 C599 1.387 . S
C598 H602 0.950 . S
C598 C607 1.390 . S
C599 C598 1.387 . S
C599 C601 1.387 . S
H600 C607 0.950 . S
C601 C599 1.387 . S
C601 C603 1.390 . S
C601 H605 0.950 . S
H602 C598 0.950 . S
C603 C601 1.390 . S
C603 C604 1.387 . S
C603 H606 0.950 . S
C604 C603 1.387 . S
C604 C607 1.387 . S
H605 C601 0.950 . S
H606 C603 0.950 . S
C607 C598 1.390 . S
C607 H600 0.950 . S
C607 C604 1.387 . S
C369 C1 1.554 . S
C374 C307 1.490 . S
C379 C67 1.305 . S
C384 C310 1.266 . S
C394 C346 1.782 . S
C389 C97 1.802 . S
C399 C133 1.692 . S
C404 C366 1.695 . S
C414 C320 1.640 . S
C409 C25 1.686 . S
C424 C297 1.473 . S
C419 C37 1.492 . S
C434 C350 1.568 . S
C429 C103 1.714 . S
C444 C330 1.415 . S
C439 C109 1.504 . S
C449 C31 1.413 . S
C454 C360 1.329 . S
C464 C326 1.644 . S
C459 C73 1.664 . S
C469 C139 1.656 . S
C474 C292 1.631 . S
C479 C61 1.329 . S
C484 C340 1.300 . S
C494 C306 1.501 . S
C489 C175 1.517 . S
C499 C181 1.283 . S
C504 C312 1.255 . S
C509 C247 1.807 . S
C514 C347 1.794 . S
C519 C277 1.682 . S
C524 C367 1.690 . S
C529 C145 1.660 . S
C534 C317 1.639 . S
C544 C300 1.478 . S
C539 C211 1.495 . S
C554 C352 1.560 . S
C549 C217 1.688 . S
C564 C332 1.432 . S
C559 C283 1.503 . S
C569 C169 1.372 . S
C574 C357 1.330 . S
C584 C327 1.656 . S
C579 C241 1.660 . S
C594 C290 1.612 . S
C589 C253 1.656 . S
C599 C205 1.333 . S
C604 C337 1.304 . S
