# Generated by pormake.
# Topology anh, (6,3)-cn, num edge types: 1
# Building blocks:
#     Node 0, Type 0, BuildingBlock: CUKXOW_clean_sbu_0, # of connection points: 6
#     Node 1, Type 0, BuildingBlock: CUKXOW_clean_sbu_0, # of connection points: 6
#     Node 2, Type 0, BuildingBlock: CUKXOW_clean_sbu_0, # of connection points: 6
#     Node 3, Type 1, BuildingBlock: QEWDON_clean_linker_0, # of connection points: 3
#     Node 4, Type 1, BuildingBlock: QEWDON_clean_linker_0, # of connection points: 3
#     Node 5, Type 1, BuildingBlock: QEWDON_clean_linker_0, # of connection points: 3
#     Node 6, Type 1, BuildingBlock: QEWDON_clean_linker_0, # of connection points: 3
#     Node 7, Type 1, BuildingBlock: QEWDON_clean_linker_0, # of connection points: 3
#     Node 8, Type 1, BuildingBlock: QEWDON_clean_linker_0, # of connection points: 3
#     Edge 9, Type (0, 1), BuildingBlock: TEMPAE_clean_linker_10, # of connection points: 2
#     Edge 10, Type (0, 1), BuildingBlock: TEMPAE_clean_linker_10, # of connection points: 2
#     Edge 11, Type (0, 1), BuildingBlock: TEMPAE_clean_linker_10, # of connection points: 2
#     Edge 12, Type (0, 1), BuildingBlock: TEMPAE_clean_linker_10, # of connection points: 2
#     Edge 13, Type (0, 1), BuildingBlock: TEMPAE_clean_linker_10, # of connection points: 2
#     Edge 14, Type (0, 1), BuildingBlock: TEMPAE_clean_linker_10, # of connection points: 2
#     Edge 15, Type (0, 1), BuildingBlock: TEMPAE_clean_linker_10, # of connection points: 2
#     Edge 16, Type (0, 1), BuildingBlock: TEMPAE_clean_linker_10, # of connection points: 2
#     Edge 17, Type (0, 1), BuildingBlock: TEMPAE_clean_linker_10, # of connection points: 2
#     Edge 18, Type (0, 1), BuildingBlock: TEMPAE_clean_linker_10, # of connection points: 2
#     Edge 19, Type (0, 1), BuildingBlock: TEMPAE_clean_linker_10, # of connection points: 2
#     Edge 20, Type (0, 1), BuildingBlock: TEMPAE_clean_linker_10, # of connection points: 2
#     Edge 21, Type (0, 1), BuildingBlock: TEMPAE_clean_linker_10, # of connection points: 2
#     Edge 22, Type (0, 1), BuildingBlock: TEMPAE_clean_linker_10, # of connection points: 2
#     Edge 23, Type (0, 1), BuildingBlock: TEMPAE_clean_linker_10, # of connection points: 2
#     Edge 24, Type (0, 1), BuildingBlock: TEMPAE_clean_linker_10, # of connection points: 2
#     Edge 25, Type (0, 1), BuildingBlock: TEMPAE_clean_linker_10, # of connection points: 2
#     Edge 26, Type (0, 1), BuildingBlock: TEMPAE_clean_linker_10, # of connection points: 2
# Relax obj value: 0.062
# Max RMSD: 0.137
# Mean RMSD: 0.109
data_MOF--net-anh--node1-CUKXOW_clean_sbu_0--node2-QEWDON_clean_linker_0--edge1-TEMPAE_clean_linker_10
_symmetry_space_group_name_H-M    P1
_symmetry_Int_Tables_number       1
_symmetry_cell_setting            triclinic
loop_
_symmetry_equiv_pos_as_xyz
'x, y, z'
_cell_length_a     31.053296
_cell_length_b     30.040323
_cell_length_c     48.152114
_cell_angle_alpha  99.069975
_cell_angle_beta   94.000899
_cell_angle_gamma 113.49268
loop_
_atom_site_label
_atom_site_type_symbol
_atom_site_fract_x
_atom_site_fract_y
_atom_site_fract_z
_atom_type_partial_charge
Tb0 Tb 0.08768 0.57428 0.15545 0.0
C1 C 0.06132 0.52552 0.20754 0.0
Tb2 Tb 1.02454 0.46725 0.14396 0.0
O3 O 0.03054 0.59542 0.16818 0.0
O4 O 1.01422 0.5315 0.13834 0.0
O5 O 0.09514 0.56046 0.19805 0.0
C6 C 0.94487 0.3854 0.14026 0.0
O7 O 0.02697 0.48779 0.18987 0.0
C8 C 0.11583 0.48601 0.1437 0.0
C9 C 0.05611 0.51357 0.09164 0.0
O10 O 0.98759 0.38788 0.14502 0.0
O11 O 0.94749 0.4284 0.13734 0.0
O12 O 0.08053 0.44638 0.12914 0.0
O13 O 0.09874 0.51031 0.16003 0.0
O14 O 1.02434 0.47539 0.10001 0.0
O15 O 0.08559 0.55444 0.10963 0.0
C16 C 0.16309 0.65954 0.15739 0.0
O17 O 0.13025 0.65344 0.17353 0.0
O18 O 0.15301 0.61805 0.14011 0.0
C19 C 0.99593 0.5557 0.15355 0.0
Tb20 Tb 0.55053 0.02278 0.49244 0.0
C21 C 0.59735 0.05484 0.43937 0.0
Tb22 Tb 0.65339 0.09962 0.50297 0.0
O23 O 0.52678 0.07602 0.47817 0.0
O24 O 0.58671 0.10003 0.50871 0.0
O25 O 0.56179 0.02087 0.44847 0.0
C26 C 0.72746 0.18623 0.50617 0.0
O27 O 0.63478 0.08978 0.45683 0.0
C28 C 0.64227 0.00795 0.50152 0.0
C29 C 0.60674 0.06463 0.5554 0.0
O30 O 0.72992 0.14364 0.50411 0.0
O31 O 0.68377 0.1797 0.5065 0.0
O32 O 0.67872 0.04642 0.51603 0.0
O33 O 0.61724 0.02244 0.4867 0.0
O34 O 0.63993 0.10161 0.54674 0.0
O35 O 0.57246 0.02711 0.53735 0.0
C36 C 0.4694 0.94368 0.4903 0.0
O37 O 0.47735 0.98908 0.50111 0.0
O38 O 0.50693 0.94287 0.48044 0.0
C39 C 0.56242 0.11436 0.49323 0.0
Tb40 Tb 0.53207 0.6 0.82485 0.0
C41 C 0.58939 0.61311 0.88579 0.0
Tb42 Tb 0.63311 0.60918 0.82891 0.0
O43 O 0.5037 0.51979 0.80766 0.0
O44 O 0.56751 0.55645 0.83531 0.0
O45 O 0.55204 0.6148 0.87133 0.0
C46 C 0.70308 0.58108 0.82128 0.0
O47 O 0.62348 0.60611 0.87305 0.0
C48 C 0.62476 0.69354 0.83395 0.0
C49 C 0.57422 0.59197 0.76795 0.0
O50 O 0.70879 0.62537 0.83329 0.0
O51 O 0.65835 0.55304 0.81381 0.0
O52 O 0.66175 0.68947 0.84561 0.0
O53 O 0.59783 0.65263 0.81814 0.0
O54 O 0.61173 0.59145 0.78273 0.0
O55 O 0.54053 0.6002 0.78037 0.0
C56 C 0.46159 0.62841 0.82848 0.0
O57 O 0.45617 0.58284 0.82062 0.0
O58 O 0.50634 0.65741 0.83485 0.0
C59 C 0.54069 0.51569 0.81936 0.0
H60 H 0.58957 0.08145 0.21642 0.0
C61 C 0.559 0.04637 0.2091 0.0
C62 C 0.54118 0.01545 0.22843 0.0
C63 C 0.53693 0.03237 0.18061 0.0
H64 H 0.48557 0.94866 0.2349 0.0
C65 C 0.50045 0.97105 0.21946 0.0
C66 C 0.47735 0.95677 0.19137 0.0
C67 C 0.49641 0.98716 0.17196 0.0
C68 C 0.55495 0.06529 0.16 0.0
H69 H 0.4796 0.97538 0.15 0.0
C70 C 0.60404 0.09246 0.16036 0.0
C71 C 0.62064 0.12291 0.14052 0.0
C72 C 0.52278 0.06967 0.13965 0.0
H73 H 0.48482 0.05046 0.13917 0.0
C74 C 0.53911 0.09957 0.1199 0.0
H75 H 0.62942 0.08925 0.17565 0.0
C76 C 0.58765 0.12595 0.12023 0.0
H77 H 0.5994 0.14965 0.10499 0.0
H78 H 0.514 0.10267 0.10441 0.0
H79 H 0.56481 0.58478 0.54289 0.0
C80 C 0.56986 0.5512 0.53655 0.0
C81 C 0.56815 0.52167 0.55669 0.0
C82 C 0.57595 0.53654 0.50831 0.0
H83 H 0.57125 0.45417 0.56409 0.0
C84 C 0.57181 0.47663 0.54845 0.0
C85 C 0.57658 0.46014 0.52046 0.0
C86 C 0.58007 0.49089 0.50067 0.0
C87 C 0.57551 0.56751 0.48666 0.0
H88 H 0.58507 0.47851 0.47929 0.0
C89 C 0.59045 0.61962 0.49452 0.0
C90 C 0.5884 0.64784 0.47402 0.0
C91 C 0.55839 0.54473 0.45781 0.0
H92 H 0.54476 0.50498 0.45075 0.0
C93 C 0.55725 0.57271 0.43748 0.0
H94 H 0.60432 0.63867 0.51637 0.0
C95 C 0.57215 0.62379 0.44544 0.0
H96 H 0.56986 0.64443 0.42928 0.0
H97 H 0.54396 0.55452 0.41543 0.0
H98 H 0.11611 0.62076 0.8944 0.0
C99 C 0.08226 0.59683 0.88143 0.0
C100 C 0.05175 0.5548 0.89055 0.0
C101 C 0.06826 0.60938 0.8565 0.0
H102 H 0.98341 0.49309 0.88211 0.0
C103 C 1.00731 0.52467 0.87443 0.0
C104 C 0.99156 0.53833 0.85045 0.0
C105 C 1.0229 0.58006 0.84122 0.0
C106 C 0.10055 0.65383 0.84686 0.0
H107 H 1.01128 0.59133 0.82287 0.0
C108 C 0.14848 0.66312 0.84722 0.0
C109 C 0.17946 0.7034 0.83692 0.0
C110 C 0.08386 0.68616 0.83646 0.0
H111 H 0.0471 0.68035 0.83628 0.0
C112 C 0.11472 0.72652 0.82624 0.0
H113 H 0.16145 0.6377 0.85447 0.0
C114 C 0.16235 0.73494 0.82618 0.0
H115 H 0.18576 0.76593 0.81788 0.0
H116 H 0.10158 0.75109 0.81815 0.0
H117 H 0.02557 0.54594 0.43203 0.0
C118 C 0.0613 0.57432 0.43904 0.0
C119 C 0.09304 0.58633 0.41923 0.0
C120 C 0.07538 0.59955 0.46766 0.0
H121 H 0.16282 0.63387 0.41244 0.0
C122 C 0.13867 0.62416 0.42794 0.0
C123 C 0.15286 0.6509 0.45604 0.0
C124 C 0.12142 0.63776 0.47594 0.0
C125 C 0.04168 0.58728 0.48868 0.0
H126 H 0.13251 0.65801 0.49777 0.0
C127 C 1.0114 0.53767 0.48859 0.0
C128 C 0.97968 0.52606 0.50858 0.0
C129 C 0.03957 0.62524 0.50902 0.0
H130 H 0.06163 0.66382 0.50935 0.0
C131 C 1.00833 0.6139 0.52893 0.0
H132 H 1.01317 0.50799 0.47336 0.0
C133 C 0.97859 0.56471 0.52878 0.0
H134 H 0.95409 0.55697 0.54416 0.0
H135 H 1.00688 0.64342 0.5444 0.0
H136 H 0.56792 0.05692 0.77602 0.0
C137 C 0.57177 0.09453 0.78278 0.0
C138 C 0.5732 0.12251 0.7618 0.0
C139 C 0.57364 0.11427 0.81171 0.0
H140 H 0.57471 0.19101 0.7531 0.0
C141 C 0.57488 0.17019 0.76951 0.0
C142 C 0.57676 0.19134 0.79792 0.0
C143 C 0.57725 0.16359 0.81891 0.0
C144 C 0.57059 0.0834 0.83414 0.0
H145 H 0.58118 0.18127 0.84085 0.0
C146 C 0.58161 0.04126 0.82998 0.0
C147 C 0.57721 0.01218 0.85105 0.0
C148 C 0.55505 0.09522 0.86 0.0
H149 H 0.54364 0.12492 0.86407 0.0
C150 C 0.553 0.06835 0.88129 0.0
H151 H 0.59306 0.03047 0.81039 0.0
C152 C 0.56434 0.0277 0.87706 0.0
H153 H 0.56271 0.00827 0.89435 0.0
H154 H 0.54191 0.07881 0.90119 0.0
H155 H 0.53448 0.53724 0.09298 0.0
C156 C 0.56852 0.53897 0.10134 0.0
C157 C 0.60483 0.55081 0.0844 0.0
C158 C 0.57482 0.5262 0.12775 0.0
H159 H 0.67518 0.55834 0.07957 0.0
C160 C 0.64855 0.5507 0.09368 0.0
C161 C 0.65806 0.54022 0.12032 0.0
C162 C 0.62056 0.52774 0.13724 0.0
C163 C 0.53229 0.50661 0.14355 0.0
H164 H 0.6273 0.51968 0.1578 0.0
C165 C 0.49233 0.51962 0.14124 0.0
C166 C 0.45165 0.49694 0.15484 0.0
C167 C 0.52986 0.47066 0.15962 0.0
H168 H 0.55778 0.45793 0.16136 0.0
C169 C 0.49038 0.4483 0.17268 0.0
H170 H 0.49297 0.54749 0.12933 0.0
C171 C 0.45189 0.46078 0.17017 0.0
H172 H 0.42154 0.44086 0.18 0.0
H173 H 0.4892 0.42011 0.1845 0.0
C174 C 0.20513 0.54046 0.15594 0.0
C175 C 0.16731 0.49393 0.14515 0.0
C176 C 0.2533 0.54755 0.15612 0.0
C177 C 0.26467 0.50669 0.1466 0.0
C178 C 0.22642 0.45958 0.13604 0.0
C179 C 0.17881 0.4541 0.13493 0.0
C180 C 0.29198 0.59898 0.16664 0.0
C181 C 0.23572 0.41431 0.12652 0.0
C182 C 0.38743 0.51543 0.12834 0.0
C183 C 0.40771 0.50814 0.15338 0.0
C184 C 0.34237 0.51781 0.12625 0.0
C185 C 0.31584 0.51176 0.14946 0.0
C186 C 0.33724 0.5068 0.1751 0.0
C187 C 0.38262 0.50611 0.17688 0.0
C188 C 0.3225 0.5254 0.09882 0.0
C189 C 0.31112 0.49968 0.20049 0.0
H190 H 0.19715 0.57164 0.16394 0.0
H191 H 0.15026 0.41788 0.12658 0.0
H192 H 0.30887 0.60183 0.18829 0.0
H193 H 0.31999 0.60685 0.15268 0.0
H194 H 0.27797 0.62786 0.1676 0.0
H195 H 0.20243 0.38023 0.11908 0.0
H196 H 0.25748 0.4198 0.109 0.0
H197 H 0.25623 0.40854 0.14436 0.0
H198 H 0.40581 0.51738 0.10995 0.0
H199 H 0.39793 0.50232 0.1968 0.0
H200 H 0.30846 0.5541 0.10318 0.0
H201 H 0.2925 0.49046 0.0877 0.0
H202 H 0.34958 0.53671 0.08438 0.0
H203 H 0.30148 0.53116 0.20703 0.0
H204 H 0.33244 0.49655 0.21899 0.0
H205 H 0.27758 0.46553 0.1947 0.0
C206 C 0.81307 0.23855 0.50483 0.0
C207 C 0.76705 0.23461 0.50715 0.0
C208 C 0.85034 0.28472 0.50504 0.0
C209 C 0.84114 0.32767 0.50771 0.0
C210 C 0.7947 0.32374 0.51035 0.0
C211 C 0.75821 0.27723 0.50994 0.0
C212 C 0.89943 0.28756 0.50223 0.0
C213 C 0.78333 0.36856 0.51327 0.0
C214 C 0.93967 0.45654 0.53354 0.0
C215 C 0.94697 0.47387 0.5081 0.0
C216 C 0.90646 0.40839 0.53362 0.0
C217 C 0.8798 0.37686 0.50765 0.0
C218 C 0.88797 0.39363 0.48181 0.0
C219 C 0.92152 0.44193 0.48235 0.0
C220 C 0.89882 0.39183 0.5616 0.0
C221 C 0.86009 0.36116 0.4537 0.0
H222 H 0.81984 0.20555 0.50263 0.0
H223 H 0.72257 0.27425 0.51171 0.0
H224 H 0.91129 0.30217 0.48302 0.0
H225 H 0.92505 0.31367 0.52081 0.0
H226 H 0.90082 0.25088 0.50066 0.0
H227 H 0.74639 0.35981 0.51744 0.0
H228 H 0.80801 0.39841 0.53085 0.0
H229 H 0.78809 0.38333 0.49344 0.0
H230 H 0.95975 0.48086 0.55346 0.0
H231 H 0.9267 0.45528 0.46266 0.0
H232 H 0.9021 0.3562 0.56065 0.0
H233 H 0.86235 0.38541 0.56583 0.0
H234 H 0.92451 0.4196 0.57968 0.0
H235 H 0.86226 0.32478 0.45096 0.0
H236 H 0.873 0.3784 0.43539 0.0
H237 H 0.8221 0.35392 0.45333 0.0
C238 C 0.64787 0.78286 0.85568 0.0
C239 C 0.6195 0.74078 0.83491 0.0
C240 C 0.64264 0.82764 0.85724 0.0
C241 C 0.60855 0.83067 0.83732 0.0
C242 C 0.58043 0.78841 0.81595 0.0
C243 C 0.58619 0.74405 0.81504 0.0
C244 C 0.67285 0.87136 0.88063 0.0
C245 C 0.54367 0.78983 0.79431 0.0
C246 C 0.55793 0.92549 0.85887 0.0
C247 C 0.58467 0.96512 0.84627 0.0
C248 C 0.56578 0.88219 0.85638 0.0
C249 C 0.60013 0.8769 0.83996 0.0
C250 C 0.62624 0.91576 0.82632 0.0
C251 C 0.61861 0.95951 0.82987 0.0
C252 C 0.53819 0.8428 0.8722 0.0
C253 C 0.66271 0.91135 0.80827 0.0
H254 H 0.67368 0.78054 0.87108 0.0
H255 H 0.56449 0.7118 0.79873 0.0
H256 H 0.69217 0.90422 0.87148 0.0
H257 H 0.64983 0.88109 0.89476 0.0
H258 H 0.69908 0.86375 0.8937 0.0
H259 H 0.525 0.75405 0.77889 0.0
H260 H 0.51697 0.79876 0.80523 0.0
H261 H 0.56077 0.81956 0.78244 0.0
H262 H 0.53056 0.92811 0.87091 0.0
H263 H 0.63997 0.9896 0.82018 0.0
H264 H 0.56213 0.84336 0.89059 0.0
H265 H 0.52459 0.80541 0.85847 0.0
H266 H 0.50784 0.8487 0.88029 0.0
H267 H 0.69153 0.90804 0.82154 0.0
H268 H 0.6786 0.94375 0.79806 0.0
H269 H 0.64623 0.87724 0.79143 0.0
C270 C 0.9291 0.57525 0.17082 0.0
C271 C 0.94453 0.54823 0.15037 0.0
C272 C 0.8819 0.57134 0.16804 0.0
C273 C 0.8485 0.54021 0.14388 0.0
C274 C 0.86365 0.51202 0.12339 0.0
C275 C 0.91103 0.51606 0.12695 0.0
C276 C 0.86805 0.6015 0.19088 0.0
C277 C 0.83011 0.47862 0.09713 0.0
C278 C 0.71376 0.50699 0.1432 0.0
C279 C 0.70709 0.5419 0.12903 0.0
C280 C 0.75914 0.50604 0.14839 0.0
C281 C 0.79943 0.54046 0.13904 0.0
C282 C 0.793 0.5763 0.12532 0.0
C283 C 0.74775 0.57697 0.12091 0.0
C284 C 0.76387 0.46773 0.16365 0.0
C285 C 0.83405 0.61385 0.11476 0.0
H286 H 0.95426 0.59997 0.18914 0.0
H287 H 0.92221 0.49503 0.11091 0.0
H288 H 0.8606 0.63015 0.18215 0.0
H289 H 0.83508 0.57742 0.1981 0.0
H290 H 0.89634 0.62025 0.20956 0.0
H291 H 0.84629 0.4577 0.08371 0.0
H292 H 0.79737 0.45179 0.10318 0.0
H293 H 0.8194 0.50109 0.08427 0.0
H294 H 0.68326 0.47944 0.14961 0.0
H295 H 0.74425 0.60523 0.11067 0.0
H296 H 0.79153 0.48617 0.18263 0.0
H297 H 0.7755 0.44304 0.14955 0.0
H298 H 0.73002 0.44466 0.1705 0.0
H299 H 0.86227 0.63728 0.13284 0.0
H300 H 0.82326 0.63837 0.1037 0.0
H301 H 0.84976 0.59455 0.09986 0.0
C302 C 0.38625 0.90554 0.5003 0.0
C303 C 0.42448 0.90008 0.4888 0.0
C304 C 0.34243 0.86472 0.49768 0.0
C305 C 0.33686 0.81756 0.48309 0.0
C306 C 0.37594 0.81165 0.47226 0.0
C307 C 0.41939 0.85308 0.4753 0.0
C308 C 0.30166 0.87241 0.50964 0.0
C309 C 0.37135 0.76199 0.45652 0.0
C310 C 0.22945 0.70195 0.48898 0.0
C311 C 0.19954 0.69425 0.46383 0.0
C312 C 0.27423 0.74226 0.49577 0.0
C313 C 0.28922 0.77543 0.47693 0.0
C314 C 0.2588 0.76822 0.45178 0.0
C315 C 0.21433 0.72791 0.44562 0.0
C316 C 0.30571 0.74904 0.52286 0.0
C317 C 0.27338 0.80287 0.43119 0.0
H318 H 0.39032 0.9419 0.51092 0.0
H319 H 0.44911 0.84884 0.46656 0.0
H320 H 0.27368 0.86628 0.49199 0.0
H321 H 0.28548 0.84513 0.52312 0.0
H322 H 0.31293 0.91035 0.5225 0.0
H323 H 0.40598 0.76287 0.45139 0.0
H324 H 0.35624 0.73327 0.46933 0.0
H325 H 0.34655 0.75054 0.43637 0.0
H326 H 0.21822 0.67592 0.50306 0.0
H327 H 0.19092 0.72276 0.42646 0.0
H328 H 0.31586 0.78651 0.53599 0.0
H329 H 0.33897 0.74631 0.51774 0.0
H330 H 0.28819 0.72096 0.53568 0.0
H331 H 0.2814 0.84126 0.44213 0.0
H332 H 0.24542 0.79212 0.41262 0.0
H333 H 0.30622 0.80322 0.4233 0.0
C334 C 0.51603 0.4255 0.79882 0.0
C335 C 0.54686 0.46882 0.81796 0.0
C336 C 0.52185 0.38102 0.79715 0.0
C337 C 0.55944 0.37972 0.81504 0.0
C338 C 0.59052 0.4234 0.83452 0.0
C339 C 0.58368 0.46724 0.83585 0.0
C340 C 0.48807 0.33551 0.77595 0.0
C341 C 0.63142 0.42402 0.8537 0.0
C342 C 0.54885 0.25193 0.82472 0.0
C343 C 0.57662 0.24178 0.80496 0.0
C344 C 0.54404 0.29718 0.82885 0.0
C345 C 0.56708 0.33309 0.81266 0.0
C346 C 0.59636 0.32374 0.79341 0.0
C347 C 0.60119 0.27869 0.79006 0.0
C348 C 0.51302 0.30589 0.8499 0.0
C349 C 0.62112 0.36046 0.77541 0.0
H350 H 0.48749 0.42646 0.78497 0.0
H351 H 0.60737 0.50045 0.85091 0.0
H352 H 0.50801 0.32315 0.76055 0.0
H353 H 0.47068 0.30469 0.78703 0.0
H354 H 0.46014 0.34228 0.76397 0.0
H355 H 0.65158 0.46056 0.86822 0.0
H356 H 0.61813 0.39515 0.86664 0.0
H357 H 0.65616 0.41518 0.84069 0.0
H358 H 0.52938 0.22378 0.83621 0.0
H359 H 0.62365 0.27199 0.77521 0.0
H360 H 0.48192 0.30824 0.8385 0.0
H361 H 0.53293 0.34172 0.86503 0.0
H362 H 0.50001 0.27588 0.86215 0.0
H363 H 0.64679 0.35039 0.76392 0.0
H364 H 0.64014 0.39816 0.78871 0.0
H365 H 0.59437 0.36197 0.75951 0.0
C366 C 0.59906 0.9175 0.47972 0.0
C367 C 0.63501 0.95557 0.49968 0.0
C368 C 0.59179 0.86771 0.47768 0.0
C369 C 0.62218 0.8557 0.49547 0.0
C370 C 0.65878 0.89411 0.51557 0.0
C371 C 0.66454 0.94351 0.51757 0.0
C372 C 0.55187 0.82804 0.45622 0.0
C373 C 0.69241 0.88313 0.53464 0.0
C374 C 0.58021 0.72062 0.503 0.0
C375 C 0.60136 0.70207 0.48204 0.0
C376 C 0.5873 0.77074 0.50802 0.0
C377 C 0.61688 0.80326 0.49202 0.0
C378 C 0.63989 0.78505 0.4717 0.0
C379 C 0.63156 0.73471 0.46681 0.0
C380 C 0.56159 0.78838 0.5296 0.0
C381 C 0.67233 0.81845 0.45449 0.0
H382 H 0.57698 0.92667 0.46532 0.0
H383 H 0.69255 0.97281 0.53297 0.0
H384 H 0.52872 0.79903 0.46685 0.0
H385 H 0.52972 0.84313 0.44519 0.0
H386 H 0.56661 0.80982 0.44004 0.0
H387 H 0.71834 0.91692 0.54959 0.0
H388 H 0.6722 0.85572 0.54713 0.0
H389 H 0.71224 0.86641 0.52152 0.0
H390 H 0.55642 0.69542 0.51459 0.0
H391 H 0.64818 0.72057 0.45069 0.0
H392 H 0.53586 0.79942 0.51869 0.0
H393 H 0.58704 0.82159 0.54507 0.0
H394 H 0.54206 0.75937 0.54141 0.0
H395 H 0.65164 0.83126 0.44054 0.0
H396 H 0.69008 0.79948 0.441 0.0
H397 H 0.69996 0.85186 0.4688 0.0
C398 C 0.7294 0.51354 0.80828 0.0
C399 C 0.74087 0.56391 0.81826 0.0
C400 C 0.76483 0.49577 0.80775 0.0
C401 C 0.81256 0.52941 0.8175 0.0
C402 C 0.8244 0.58079 0.82613 0.0
C403 C 0.78825 0.59738 0.82649 0.0
C404 C 0.75014 0.44088 0.79787 0.0
C405 C 0.87508 0.61805 0.83634 0.0
C406 C 0.90679 0.50804 0.85782 0.0
C407 C 0.9403 0.51668 0.83889 0.0
C408 C 0.86145 0.50484 0.8496 0.0
C409 C 0.85005 0.51169 0.82216 0.0
C410 C 0.88064 0.51246 0.80169 0.0
C411 C 0.92559 0.51457 0.81027 0.0
C412 C 0.82811 0.50054 0.87142 0.0
C413 C 0.86798 0.51657 0.77169 0.0
H414 H 0.69259 0.48766 0.80168 0.0
H415 H 0.797 0.63639 0.83393 0.0
H416 H 0.78048 0.43076 0.79523 0.0
H417 H 0.72962 0.42084 0.81343 0.0
H418 H 0.72633 0.42772 0.77722 0.0
H419 H 0.87852 0.65685 0.84017 0.0
H420 H 0.88837 0.61107 0.85648 0.0
H421 H 0.89827 0.6141 0.82049 0.0
H422 H 0.91716 0.50895 0.87992 0.0
H423 H 0.95059 0.51897 0.79519 0.0
H424 H 0.79129 0.4746 0.86177 0.0
H425 H 0.82819 0.53739 0.8792 0.0
H426 H 0.83869 0.48736 0.88994 0.0
H427 H 0.83031 0.49144 0.76345 0.0
H428 H 0.89098 0.50756 0.7572 0.0
H429 H 0.87239 0.55505 0.77151 0.0
C430 C 0.21893 0.74493 0.18238 0.0
C431 C 0.20728 0.70449 0.15991 0.0
C432 C 0.26274 0.78622 0.18614 0.0
C433 C 0.29526 0.78707 0.16677 0.0
C434 C 0.28301 0.74677 0.1436 0.0
C435 C 0.2392 0.7058 0.14054 0.0
C436 C 0.27475 0.82833 0.21125 0.0
C437 C 0.31652 0.74647 0.12238 0.0
C438 C 0.39373 0.9125 0.16594 0.0
C439 C 0.43187 0.91167 0.18298 0.0
C440 C 0.34934 0.87172 0.15989 0.0
C441 C 0.34279 0.82932 0.1714 0.0
C442 C 0.38139 0.82773 0.18802 0.0
C443 C 0.42551 0.86877 0.19345 0.0
C444 C 0.30915 0.87449 0.14177 0.0
C445 C 0.37576 0.78314 0.20068 0.0
H446 H 0.19429 0.74378 0.19742 0.0
H447 H 0.2302 0.67443 0.12315 0.0
H448 H 0.30643 0.83226 0.22535 0.0
H449 H 0.28379 0.86375 0.2039 0.0
H450 H 0.24508 0.82257 0.22389 0.0
H451 H 0.30043 0.71367 0.10462 0.0
H452 H 0.32732 0.78053 0.11342 0.0
H453 H 0.34923 0.74638 0.13316 0.0
H454 H 0.39808 0.94566 0.15805 0.0
H455 H 0.45498 0.86749 0.20623 0.0
H456 H 0.2806 0.87344 0.15462 0.0
H457 H 0.29354 0.84196 0.12388 0.0
H458 H 0.32083 0.9088 0.13297 0.0
H459 H 0.34893 0.77729 0.21539 0.0
H460 H 0.40957 0.78732 0.21258 0.0
H461 H 0.36267 0.74929 0.18369 0.0
C462 C 0.54554 0.17835 0.473 0.0
C463 C 0.56959 0.16648 0.49438 0.0
C464 C 0.54962 0.22702 0.47443 0.0
C465 C 0.57821 0.26477 0.49793 0.0
C466 C 0.60391 0.25324 0.51908 0.0
C467 C 0.59905 0.2042 0.51714 0.0
C468 C 0.52194 0.23766 0.45131 0.0
C469 C 0.63513 0.29235 0.54436 0.0
C470 C 0.60934 0.40127 0.4969 0.0
C471 C 0.5757 0.40967 0.51238 0.0
C472 C 0.61057 0.35423 0.49175 0.0
C473 C 0.57706 0.31467 0.50207 0.0
C474 C 0.54228 0.32278 0.51698 0.0
C475 C 0.54195 0.36989 0.52182 0.0
C476 C 0.64782 0.34696 0.47544 0.0
C477 C 0.50582 0.28185 0.52835 0.0
H478 H 0.52293 0.14933 0.45527 0.0
H479 H 0.61733 0.19512 0.53388 0.0
H480 H 0.49381 0.24701 0.4601 0.0
H481 H 0.54555 0.27015 0.44323 0.0
H482 H 0.50497 0.20555 0.43319 0.0
H483 H 0.6599 0.3254 0.53723 0.0
H484 H 0.61279 0.30447 0.55795 0.0
H485 H 0.65618 0.27861 0.55745 0.0
H486 H 0.63554 0.43179 0.48957 0.0
H487 H 0.51529 0.37581 0.53335 0.0
H488 H 0.63055 0.32254 0.45437 0.0
H489 H 0.66594 0.32831 0.48673 0.0
H490 H 0.67491 0.38257 0.47209 0.0
H491 H 0.48503 0.24984 0.51076 0.0
H492 H 0.48081 0.29407 0.53921 0.0
H493 H 0.52389 0.2686 0.54369 0.0
C494 C 0.43458 0.69625 0.8325 0.0
C495 C 0.42343 0.64546 0.82862 0.0
C496 C 0.39876 0.71344 0.83273 0.0
C497 C 0.35089 0.67884 0.82945 0.0
C498 C 0.33947 0.62738 0.82498 0.0
C499 C 0.37602 0.61127 0.82451 0.0
C500 C 0.41253 0.76856 0.83742 0.0
C501 C 0.28869 0.58939 0.82127 0.0
C502 C 0.25561 0.70934 0.86054 0.0
C503 C 0.22869 0.70936 0.83599 0.0
C504 C 0.29763 0.70293 0.85898 0.0
C505 C 0.31252 0.69593 0.83217 0.0
C506 C 0.28754 0.70007 0.80768 0.0
C507 C 0.24568 0.70685 0.80989 0.0
C508 C 0.32421 0.70016 0.88566 0.0
C509 C 0.3033 0.69404 0.77891 0.0
H510 H 0.47136 0.72261 0.8353 0.0
H511 H 0.36754 0.57198 0.82133 0.0
H512 H 0.38526 0.77739 0.82641 0.0
H513 H 0.41667 0.78348 0.86052 0.0
H514 H 0.44683 0.78805 0.82991 0.0
H515 H 0.28579 0.55079 0.81691 0.0
H516 H 0.27294 0.59497 0.8408 0.0
H517 H 0.26725 0.5941 0.80348 0.0
H518 H 0.24238 0.71172 0.88073 0.0
H519 H 0.2246 0.70675 0.79093 0.0
H520 H 0.36251 0.72478 0.88766 0.0
H521 H 0.32104 0.66175 0.88444 0.0
H522 H 0.31042 0.7109 0.9051 0.0
H523 H 0.34169 0.71785 0.78026 0.0
H524 H 0.28308 0.70355 0.76264 0.0
H525 H 0.29814 0.65505 0.77175 0.0
C526 C 0.89914 0.29698 0.14418 0.0
C527 C 0.8999 0.34236 0.13999 0.0
C528 C 0.85594 0.25681 0.14476 0.0
C529 C 0.81287 0.26256 0.1412 0.0
C530 C 0.8137 0.30841 0.13686 0.0
C531 C 0.85716 0.34763 0.13625 0.0
C532 C 0.85632 0.20839 0.14928 0.0
C533 C 0.76868 0.31627 0.13305 0.0
C534 C 0.69214 0.1559 0.11615 0.0
C535 C 0.67211 0.15322 0.14139 0.0
C536 C 0.73909 0.18928 0.11605 0.0
C537 C 0.76655 0.22099 0.1418 0.0
C538 C 0.74735 0.21656 0.16758 0.0
C539 C 0.70034 0.18257 0.16708 0.0
C540 C 0.75836 0.1925 0.08815 0.0
C541 C 0.7754 0.24983 0.19546 0.0
H542 H 0.93224 0.29297 0.14713 0.0
H543 H 0.85765 0.38277 0.13307 0.0
H544 H 0.84082 0.19883 0.16875 0.0
H545 H 0.83396 0.17809 0.1312 0.0
H546 H 0.89271 0.20976 0.1514 0.0
H547 H 0.77553 0.35415 0.12973 0.0
H548 H 0.7439 0.28899 0.11453 0.0
H549 H 0.75055 0.3102 0.15207 0.0
H550 H 0.67059 0.1327 0.0963 0.0
H551 H 0.68491 0.1808 0.18661 0.0
H552 H 0.79407 0.19225 0.09019 0.0
H553 H 0.76226 0.22795 0.08214 0.0
H554 H 0.73474 0.16151 0.07069 0.0
H555 H 0.81138 0.25041 0.19834 0.0
H556 H 0.75759 0.23796 0.21391 0.0
H557 H 0.77989 0.28835 0.19535 0.0
C558 C 1.01688 0.49177 0.04155 0.0
C559 C 0.05848 0.51186 0.06118 0.0
C560 C 1.01876 0.49557 0.01295 0.0
C561 C 0.06343 0.51857 0.00385 0.0
C562 C 0.10565 0.53592 0.02334 0.0
C563 C 0.10262 0.53316 0.05195 0.0
C564 C 0.97292 0.47774 -0.00707 0.0
C565 C 0.15392 0.5592 0.01423 0.0
C566 C 0.06181 0.50267 0.92393 0.0
C567 C 0.06171 0.54755 0.91944 0.0
C568 C 0.06464 0.49344 0.95154 0.0
C569 C 0.06565 0.5293 0.97483 0.0
C570 C 0.06654 0.57509 0.97031 0.0
C571 C 0.06514 0.58386 0.94266 0.0
C572 C 0.06518 0.44491 0.95572 0.0
C573 C 0.06662 0.61388 -0.0055 0.0
H574 H 0.9828 0.47551 0.04885 0.0
H575 H 0.13481 0.54811 0.06721 0.0
H576 H 0.96946 0.50987 0.98603 0.0
H577 H 0.97301 0.45233 0.97357 0.0
H578 H 0.94136 0.45822 0.00295 0.0
H579 H 0.18299 0.56432 0.03094 0.0
H580 H 0.15605 0.53598 -0.00551 0.0
H581 H 0.15974 0.59598 0.00952 0.0
H582 H 0.05885 0.47462 0.9058 0.0
H583 H 0.0642 0.61819 0.93897 0.0
H584 H 0.03139 0.42188 0.96256 0.0
H585 H 0.09433 0.45159 0.97275 0.0
H586 H 0.06969 0.4236 0.93594 0.0
H587 H 0.03425 0.59832 0.00462 0.0
H588 H 0.06771 0.64767 0.98734 0.0
H589 H 0.09766 0.62483 0.01104 0.0
C590 C 0.63576 0.07888 0.39666 0.0
C591 C 0.59496 0.05371 0.40844 0.0
C592 C 0.63356 0.07749 0.36726 0.0
C593 C 0.58942 0.05096 0.34937 0.0
C594 C 0.54804 0.02626 0.36125 0.0
C595 C 0.55138 0.02765 0.39057 0.0
C596 C 0.67848 0.10367 0.35527 0.0
C597 C 0.50014 0.99806 0.34295 0.0
C598 C 0.56407 0.07292 0.27571 0.0
C599 C 0.56264 0.02994 0.25863 0.0
C600 C 0.57542 0.08188 0.30541 0.0
C601 C 0.5861 0.04727 0.31806 0.0
C602 C 0.58806 1.00571 0.30062 0.0
C603 C 0.57583 0.9973 0.27109 0.0
C604 C 0.57252 0.12636 0.32328 0.0
C605 C 0.60007 0.9684 0.31322 0.0
H606 H 0.66959 0.09904 0.41034 0.0
H607 H 0.51959 0.00859 0.39953 0.0
H608 H 0.68565 0.07633 0.34021 0.0
H609 H 0.67422 0.13049 0.34314 0.0
H610 H 0.70976 0.12381 0.37212 0.0
H611 H 0.47113 0.98264 0.35566 0.0
H612 H 0.49181 0.02273 0.33073 0.0
H613 H 0.50079 0.96703 0.32734 0.0
H614 H 0.55343 0.09786 0.266 0.0
H615 H 0.5748 0.96413 0.25775 0.0
H616 H 0.60413 0.14621 0.33985 0.0
H617 H 0.54089 0.11383 0.33435 0.0
H618 H 0.56962 0.15274 0.31027 0.0
H619 H 0.63223 0.98745 0.32946 0.0
H620 H 0.60621 0.94202 0.29678 0.0
H621 H 0.57044 0.94688 0.32398 0.0
C622 C 0.60186 0.56868 0.72269 0.0
C623 C 0.57138 0.58551 0.73666 0.0
C624 C 0.59939 0.56161 0.69306 0.0
C625 C 0.56586 0.57197 0.67695 0.0
C626 C 0.53549 0.58975 0.6909 0.0
C627 C 0.53844 0.59608 0.72061 0.0
C628 C 0.63213 0.54214 0.67893 0.0
C629 C 0.49959 0.60156 0.67441 0.0
C630 C 0.59074 0.58532 0.6019 0.0
C631 C 0.56262 0.53718 0.58658 0.0
C632 C 0.5904 0.59809 0.63121 0.0
C633 C 0.56139 0.56177 0.64541 0.0
C634 C 0.53102 0.51397 0.62971 0.0
C635 C 0.53185 0.50236 0.60047 0.0
C636 C 0.6229 0.64961 0.64722 0.0
C637 C 0.49949 0.4742 0.64402 0.0
H638 H 0.62732 0.56026 0.73488 0.0
H639 H 0.51498 0.60945 0.73125 0.0
H640 H 0.61093 0.50596 0.66437 0.0
H641 H 0.6532 0.56801 0.66591 0.0
H642 H 0.65698 0.53708 0.69457 0.0
H643 H 0.48028 0.61746 0.68855 0.0
H644 H 0.51747 0.62825 0.66095 0.0
H645 H 0.47334 0.56739 0.65997 0.0
H646 H 0.61465 0.61232 0.59126 0.0
H647 H 0.50933 0.46538 0.58856 0.0
H648 H 0.65207 0.6479 0.66107 0.0
H649 H 0.60336 0.66536 0.6612 0.0
H650 H 0.63877 0.67509 0.63269 0.0
H651 H 0.52177 0.46393 0.65851 0.0
H652 H 0.47531 0.44026 0.62847 0.0
H653 H 0.47781 0.48819 0.65713 0.0
C654 C 0.63373 0.11023 0.60604 0.0
C655 C 0.60553 0.0666 0.58627 0.0
C656 C 0.62899 0.11435 0.63499 0.0
C657 C 0.59548 0.07375 0.64445 0.0
C658 C 0.56863 0.02878 0.62485 0.0
C659 C 0.57384 0.02579 0.59598 0.0
C660 C 0.65827 0.163 0.65525 0.0
C661 C 0.53295 0.9845 0.63416 0.0
C662 C 0.60632 0.08257 0.72448 0.0
C663 C 0.57412 0.10303 0.73161 0.0
C664 C 0.61242 0.07088 0.69601 0.0
C665 C 0.58577 0.08005 0.6743 0.0
C666 C 0.55149 0.09829 0.68131 0.0
C667 C 0.54598 0.10937 0.70985 0.0
C668 C 0.64893 0.05096 0.68933 0.0
C669 C 0.52208 0.10826 0.65878 0.0
H670 H 0.65835 0.14192 0.59878 0.0
H671 H 0.5522 0.9917 0.58093 0.0
H672 H 0.6346 0.17992 0.66351 0.0
H673 H 0.67688 0.15678 0.67377 0.0
H674 H 0.68504 0.18976 0.64495 0.0
H675 H 0.51871 0.95076 0.61698 0.0
H676 H 0.54926 0.97656 0.65293 0.0
H677 H 0.50285 0.99272 0.6406 0.0
H678 H 0.62831 0.07783 0.74125 0.0
H679 H 0.52047 0.12439 0.71526 0.0
H680 H 0.67913 0.07944 0.68213 0.0
H681 H 0.63354 0.01792 0.67175 0.0
H682 H 0.66281 0.04072 0.70808 0.0
H683 H 0.54561 0.13798 0.64872 0.0
H684 H 0.49519 0.11989 0.66759 0.0
H685 H 0.50356 0.07463 0.64181 0.0
C686 C 0.63276 0.62314 0.93368 0.0
C687 C 0.58998 0.61185 0.91646 0.0
C688 C 0.63345 0.61654 0.96191 0.0
C689 C 0.59019 0.59722 0.97305 0.0
C690 C 0.54701 0.58728 0.95607 0.0
C691 C 0.54747 0.59517 0.92805 0.0
C692 C 0.68038 0.62859 0.97947 0.0
C693 C 0.50009 0.56594 0.96699 0.0
C694 C 0.59227 0.52657 0.03163 0.0
C695 C 0.59683 0.56129 0.05598 0.0
C696 C 0.58835 0.5372 0.00445 0.0
C697 C 0.59007 0.58415 0.00168 0.0
C698 C 0.59396 0.61908 0.02632 0.0
C699 C 0.59694 0.60703 0.05325 0.0
C700 C 0.58347 0.4986 0.97875 0.0
C701 C 0.59669 0.66973 0.0243 0.0
H702 H 0.66578 0.63638 0.92491 0.0
H703 H 0.51421 0.58599 0.9148 0.0
H704 H 0.6841 0.6526 0.00033 0.0
H705 H 0.68181 0.59394 0.98374 0.0
H706 H 0.71104 0.6476 0.96864 0.0
H707 H 0.47013 0.56374 0.95198 0.0
H708 H 0.49292 0.52809 0.9704 0.0
H709 H 0.50134 0.58867 0.9878 0.0
H710 H 0.59229 0.49124 0.03393 0.0
H711 H 0.60089 0.63389 0.07224 0.0
H712 H 0.61534 0.51216 0.96799 0.0
H713 H 0.55233 0.49193 0.96323 0.0
H714 H 0.57932 0.46281 0.98442 0.0
H715 H 0.6293 0.69051 0.01555 0.0
H716 H 0.59727 0.69167 0.04529 0.0
H717 H 0.56601 0.66631 0.0095 0.0
C718 C 0.0915 0.57246 0.25759 0.0
C719 C 0.06215 0.52836 0.23855 0.0
C720 C 0.0919 0.57631 0.28701 0.0
C721 C 0.06266 0.53484 0.2977 0.0
C722 C 0.03312 0.49011 0.27863 0.0
C723 C 0.03298 0.48748 0.24924 0.0
C724 C 0.1236 0.62488 0.30667 0.0
C725 C 1.00196 0.445 0.28929 0.0
C726 C 0.10629 0.54282 0.37442 0.0
C727 C 0.07839 0.56297 0.38873 0.0
C728 C 0.09928 0.53012 0.34466 0.0
C729 C 0.06404 0.53861 0.32893 0.0
C730 C 0.03379 0.55603 0.34338 0.0
C731 C 0.04119 0.56777 0.37322 0.0
C732 C 0.13173 0.51083 0.33009 0.0
C733 C 0.99602 0.56586 0.32737 0.0
H734 H 0.11384 0.60433 0.24951 0.0
H735 H 1.01025 0.45321 0.23466 0.0
H736 H 0.10211 0.63849 0.32021 0.0
H737 H 0.14976 0.61938 0.32105 0.0
H738 H 0.14322 0.65395 0.29491 0.0
H739 H 0.98086 0.41306 0.27167 0.0
H740 H 1.02415 0.43378 0.30324 0.0
H741 H 0.97723 0.45386 0.30231 0.0
H742 H 0.13501 0.53909 0.38654 0.0
H743 H 1.01999 0.58386 0.38435 0.0
H744 H 0.15667 0.53994 0.32025 0.0
H745 H 0.11096 0.47825 0.31282 0.0
H746 H 0.15281 0.50009 0.34515 0.0
H747 H 1.01318 0.59842 0.31752 0.0
H748 H 0.9719 0.57353 0.34147 0.0
H749 H 0.97455 0.53383 0.30995 0.0
loop_
_geom_bond_atom_site_label_1
_geom_bond_atom_site_label_2
_geom_bond_distance
_geom_bond_site_symmetry_2
_ccdc_geom_bond_type
Tb0 O3 2.453 1_455 S
Tb0 O4 2.596 1_455 S
Tb0 O5 2.374 . S
Tb0 O13 2.343 . S
Tb0 O15 2.353 . S
Tb0 O17 2.427 . S
Tb0 O18 2.513 . S
C1 O5 1.251 . S
C1 O7 1.263 . S
Tb2 O4 2.343 1_455 S
Tb2 O7 2.353 . S
Tb2 O10 2.427 1_455 S
Tb2 O11 2.513 1_455 S
Tb2 O12 2.453 . S
Tb2 O13 2.596 . S
Tb2 O14 2.374 . S
O3 Tb0 2.453 1_655 S
O3 C19 1.245 . S
O4 Tb0 2.596 1_655 S
O4 Tb2 2.343 1_655 S
O4 C19 1.259 . S
O5 Tb0 2.374 . S
O5 C1 1.251 . S
C6 O10 1.275 . S
C6 O11 1.246 . S
O7 C1 1.263 . S
O7 Tb2 2.353 . S
C8 O12 1.245 . S
C8 O13 1.259 . S
C9 O14 1.250 . S
C9 O15 1.263 . S
O10 Tb2 2.427 1_655 S
O10 C6 1.275 . S
O11 Tb2 2.513 1_655 S
O11 C6 1.246 . S
O12 Tb2 2.453 . S
O12 C8 1.245 . S
O13 Tb0 2.343 . S
O13 Tb2 2.596 . S
O13 C8 1.259 . S
O14 Tb2 2.374 . S
O14 C9 1.250 . S
O15 Tb0 2.353 . S
O15 C9 1.263 . S
C16 O17 1.275 . S
C16 O18 1.246 . S
O17 Tb0 2.427 . S
O17 C16 1.275 . S
O18 Tb0 2.513 . S
O18 C16 1.246 . S
C19 O3 1.245 . S
C19 O4 1.259 . S
Tb20 O23 2.453 . S
Tb20 O24 2.596 . S
Tb20 O25 2.374 . S
Tb20 O33 2.343 . S
Tb20 O35 2.353 . S
Tb20 O37 2.427 1_545 S
Tb20 O38 2.513 1_545 S
C21 O25 1.251 . S
C21 O27 1.263 . S
Tb22 O24 2.343 . S
Tb22 O27 2.353 . S
Tb22 O30 2.427 . S
Tb22 O31 2.513 . S
Tb22 O32 2.453 . S
Tb22 O33 2.596 . S
Tb22 O34 2.374 . S
O23 Tb20 2.453 . S
O23 C39 1.245 . S
O24 Tb20 2.596 . S
O24 Tb22 2.343 . S
O24 C39 1.259 . S
O25 Tb20 2.374 . S
O25 C21 1.251 . S
C26 O30 1.275 . S
C26 O31 1.246 . S
O27 C21 1.263 . S
O27 Tb22 2.353 . S
C28 O32 1.245 1_565 S
C28 O33 1.259 1_565 S
C29 O34 1.250 . S
C29 O35 1.263 . S
O30 Tb22 2.427 . S
O30 C26 1.275 . S
O31 Tb22 2.513 . S
O31 C26 1.246 . S
O32 Tb22 2.453 . S
O32 C28 1.245 1_545 S
O33 Tb20 2.343 . S
O33 Tb22 2.596 . S
O33 C28 1.259 1_545 S
O34 Tb22 2.374 . S
O34 C29 1.250 . S
O35 Tb20 2.353 . S
O35 C29 1.263 . S
C36 O37 1.275 . S
C36 O38 1.246 . S
O37 Tb20 2.427 1_565 S
O37 C36 1.275 . S
O38 Tb20 2.513 1_565 S
O38 C36 1.246 . S
C39 O23 1.245 . S
C39 O24 1.259 . S
Tb40 O43 2.453 . S
Tb40 O44 2.596 . S
Tb40 O45 2.374 . S
Tb40 O53 2.343 . S
Tb40 O55 2.353 . S
Tb40 O57 2.427 . S
Tb40 O58 2.513 . S
C41 O45 1.251 . S
C41 O47 1.263 . S
Tb42 O44 2.343 . S
Tb42 O47 2.353 . S
Tb42 O50 2.427 . S
Tb42 O51 2.513 . S
Tb42 O52 2.453 . S
Tb42 O53 2.596 . S
Tb42 O54 2.374 . S
O43 Tb40 2.453 . S
O43 C59 1.245 . S
O44 Tb40 2.596 . S
O44 Tb42 2.343 . S
O44 C59 1.259 . S
O45 Tb40 2.374 . S
O45 C41 1.251 . S
C46 O50 1.275 . S
C46 O51 1.246 . S
O47 C41 1.263 . S
O47 Tb42 2.353 . S
C48 O52 1.245 . S
C48 O53 1.259 . S
C49 O54 1.250 . S
C49 O55 1.263 . S
O50 Tb42 2.427 . S
O50 C46 1.275 . S
O51 Tb42 2.513 . S
O51 C46 1.246 . S
O52 Tb42 2.453 . S
O52 C48 1.245 . S
O53 Tb40 2.343 . S
O53 Tb42 2.596 . S
O53 C48 1.259 . S
O54 Tb42 2.374 . S
O54 C49 1.250 . S
O55 Tb40 2.353 . S
O55 C49 1.263 . S
C56 O57 1.275 . S
C56 O58 1.246 . S
O57 Tb40 2.427 . S
O57 C56 1.275 . S
O58 Tb40 2.513 . S
O58 C56 1.246 . S
C59 O43 1.245 . S
C59 O44 1.259 . S
H60 C61 0.949 . S
C61 H60 0.949 . S
C61 C62 1.395 . S
C61 C63 1.391 . S
C62 C61 1.395 . S
C62 C65 1.390 . S
C63 C61 1.391 . S
C63 C67 1.387 . S
C63 C68 1.491 . S
H64 C65 0.950 . S
C65 C62 1.390 . S
C65 H64 0.950 . S
C65 C66 1.378 . S
C66 C65 1.378 . S
C66 C67 1.409 . S
C67 C63 1.387 . S
C67 C66 1.409 . S
C67 H69 0.951 . S
C68 C63 1.491 . S
C68 C70 1.382 . S
C68 C72 1.404 . S
H69 C67 0.951 . S
C70 C68 1.382 . S
C70 C71 1.390 . S
C70 H75 0.949 . S
C71 C70 1.390 . S
C71 C76 1.399 . S
C72 C68 1.404 . S
C72 H73 0.950 . S
C72 C74 1.375 . S
H73 C72 0.950 . S
C74 C72 1.375 . S
C74 C76 1.382 . S
C74 H78 0.950 . S
H75 C70 0.949 . S
C76 C71 1.399 . S
C76 C74 1.382 . S
C76 H77 0.952 . S
H77 C76 0.952 . S
H78 C74 0.950 . S
H79 C80 0.949 . S
C80 H79 0.949 . S
C80 C81 1.395 . S
C80 C82 1.391 . S
C81 C80 1.395 . S
C81 C84 1.390 . S
C82 C80 1.391 . S
C82 C86 1.387 . S
C82 C87 1.491 . S
H83 C84 0.950 . S
C84 C81 1.390 . S
C84 H83 0.950 . S
C84 C85 1.378 . S
C85 C84 1.378 . S
C85 C86 1.409 . S
C86 C82 1.387 . S
C86 C85 1.409 . S
C86 H88 0.951 . S
C87 C82 1.491 . S
C87 C89 1.382 . S
C87 C91 1.404 . S
H88 C86 0.951 . S
C89 C87 1.382 . S
C89 C90 1.390 . S
C89 H94 0.949 . S
C90 C89 1.390 . S
C90 C95 1.399 . S
C91 C87 1.404 . S
C91 H92 0.950 . S
C91 C93 1.375 . S
H92 C91 0.950 . S
C93 C91 1.375 . S
C93 C95 1.382 . S
C93 H97 0.950 . S
H94 C89 0.949 . S
C95 C90 1.399 . S
C95 C93 1.382 . S
C95 H96 0.952 . S
H96 C95 0.952 . S
H97 C93 0.950 . S
H98 C99 0.949 . S
C99 H98 0.949 . S
C99 C100 1.395 . S
C99 C101 1.391 . S
C100 C99 1.395 . S
C100 C103 1.390 . S
C101 C99 1.391 . S
C101 C105 1.387 . S
C101 C106 1.491 . S
H102 C103 0.949 . S
C103 C100 1.390 . S
C103 H102 0.949 . S
C103 C104 1.378 . S
C104 C103 1.378 . S
C104 C105 1.409 . S
C105 C101 1.387 . S
C105 C104 1.409 . S
C105 H107 0.951 . S
C106 C101 1.491 . S
C106 C108 1.382 . S
C106 C110 1.404 . S
H107 C105 0.951 . S
C108 C106 1.382 . S
C108 C109 1.390 . S
C108 H113 0.949 . S
C109 C108 1.390 . S
C109 C114 1.399 . S
C110 C106 1.404 . S
C110 H111 0.950 . S
C110 C112 1.375 . S
H111 C110 0.950 . S
C112 C110 1.375 . S
C112 C114 1.382 . S
C112 H116 0.950 . S
H113 C108 0.949 . S
C114 C109 1.399 . S
C114 C112 1.382 . S
C114 H115 0.952 . S
H115 C114 0.952 . S
H116 C112 0.950 . S
H117 C118 0.949 . S
C118 H117 0.949 . S
C118 C119 1.395 1_655 S
C118 C120 1.391 . S
C119 C118 1.395 1_455 S
C119 C122 1.390 . S
C120 C118 1.391 . S
C120 C124 1.386 1_655 S
C120 C125 1.493 . S
H121 C122 0.950 . S
C122 C119 1.390 . S
C122 H121 0.950 . S
C122 C123 1.378 . S
C123 C122 1.378 . S
C123 C124 1.409 . S
C124 C120 1.386 1_455 S
C124 C123 1.409 . S
C124 H126 0.951 . S
C125 C120 1.493 . S
C125 C127 1.382 . S
C125 C129 1.404 . S
H126 C124 0.951 . S
C127 C125 1.382 . S
C127 C128 1.390 . S
C127 H132 0.949 . S
C128 C127 1.390 . S
C128 C133 1.399 . S
C129 C125 1.404 . S
C129 H130 0.950 . S
C129 C131 1.375 . S
H130 C129 0.950 . S
C131 C129 1.375 . S
C131 C133 1.382 . S
C131 H135 0.950 . S
H132 C127 0.949 . S
C133 C128 1.399 . S
C133 C131 1.382 . S
C133 H134 0.952 . S
H134 C133 0.952 . S
H135 C131 0.950 . S
H136 C137 0.949 1_565 S
C137 H136 0.949 1_545 S
C137 C138 1.395 . S
C137 C139 1.391 . S
C138 C137 1.395 . S
C138 C141 1.390 . S
C139 C137 1.391 . S
C139 C143 1.387 . S
C139 C144 1.491 1_545 S
H140 C141 0.950 . S
C141 C138 1.390 . S
C141 H140 0.950 . S
C141 C142 1.378 . S
C142 C141 1.378 . S
C142 C143 1.409 . S
C143 C139 1.387 . S
C143 C142 1.409 . S
C143 H145 0.951 . S
C144 C139 1.491 1_565 S
C144 C146 1.382 . S
C144 C148 1.404 . S
H145 C143 0.951 . S
C146 C144 1.382 . S
C146 C147 1.390 . S
C146 H151 0.949 . S
C147 C146 1.390 . S
C147 C152 1.399 . S
C148 C144 1.404 . S
C148 H149 0.950 1_565 S
C148 C150 1.375 . S
H149 C148 0.950 1_545 S
C150 C148 1.375 . S
C150 C152 1.382 . S
C150 H154 0.950 . S
H151 C146 0.949 . S
C152 C147 1.399 . S
C152 C150 1.382 . S
C152 H153 0.952 . S
H153 C152 0.952 . S
H154 C150 0.950 . S
H155 C156 0.949 . S
C156 H155 0.949 . S
C156 C157 1.395 . S
C156 C158 1.391 . S
C157 C156 1.395 . S
C157 C160 1.390 . S
C158 C156 1.391 . S
C158 C162 1.387 . S
C158 C163 1.491 . S
H159 C160 0.950 . S
C160 C157 1.390 . S
C160 H159 0.950 . S
C160 C161 1.378 . S
C161 C160 1.378 . S
C161 C162 1.409 . S
C162 C158 1.387 . S
C162 C161 1.409 . S
C162 H164 0.951 . S
C163 C158 1.491 . S
C163 C165 1.382 . S
C163 C167 1.404 . S
H164 C162 0.951 . S
C165 C163 1.382 . S
C165 C166 1.390 . S
C165 H170 0.949 . S
C166 C165 1.390 . S
C166 C171 1.399 . S
C167 C163 1.404 . S
C167 H168 0.950 . S
C167 C169 1.375 . S
H168 C167 0.950 . S
C169 C167 1.375 . S
C169 C171 1.382 . S
C169 H173 0.950 . S
H170 C165 0.949 . S
C171 C166 1.399 . S
C171 C169 1.382 . S
C171 H172 0.952 . S
H172 C171 0.952 . S
H173 C169 0.950 . S
C174 C175 1.391 . S
C174 C176 1.394 . S
C174 H190 0.931 . S
C175 C174 1.391 . S
C175 C179 1.376 . S
C176 C174 1.394 . S
C176 C177 1.369 . S
C176 C180 1.531 . S
C177 C176 1.369 . S
C177 C178 1.410 . S
C177 C185 1.503 . S
C178 C177 1.410 . S
C178 C179 1.392 . S
C178 C181 1.511 . S
C179 C175 1.376 . S
C179 C178 1.392 . S
C179 H191 0.929 . S
C180 C176 1.531 . S
C180 H192 0.960 . S
C180 H193 0.962 . S
C180 H194 0.960 . S
C181 C178 1.511 . S
C181 H195 0.961 . S
C181 H196 0.961 . S
C181 H197 0.961 . S
C182 C183 1.370 . S
C182 C184 1.363 . S
C182 H198 0.931 . S
C183 C182 1.370 . S
C183 C187 1.408 . S
C184 C182 1.363 . S
C184 C185 1.370 . S
C184 C188 1.524 . S
C185 C177 1.503 . S
C185 C184 1.370 . S
C185 C186 1.403 . S
C186 C185 1.403 . S
C186 C187 1.404 . S
C186 C189 1.539 . S
C187 C183 1.408 . S
C187 C186 1.404 . S
C187 H199 0.930 . S
C188 C184 1.524 . S
C188 H200 0.956 . S
C188 H201 0.961 . S
C188 H202 0.961 . S
C189 C186 1.539 . S
C189 H203 0.958 . S
C189 H204 0.961 . S
C189 H205 0.960 . S
H190 C174 0.931 . S
H191 C179 0.929 . S
H192 C180 0.960 . S
H193 C180 0.962 . S
H194 C180 0.960 . S
H195 C181 0.961 . S
H196 C181 0.961 . S
H197 C181 0.961 . S
H198 C182 0.931 . S
H199 C187 0.930 . S
H200 C188 0.956 . S
H201 C188 0.961 . S
H202 C188 0.961 . S
H203 C189 0.958 . S
H204 C189 0.961 . S
H205 C189 0.960 . S
C206 C207 1.391 . S
C206 C208 1.394 . S
C206 H222 0.931 . S
C207 C206 1.391 . S
C207 C211 1.376 . S
C208 C206 1.394 . S
C208 C209 1.369 . S
C208 C212 1.531 . S
C209 C208 1.369 . S
C209 C210 1.410 . S
C209 C217 1.503 . S
C210 C209 1.410 . S
C210 C211 1.392 . S
C210 C213 1.511 . S
C211 C207 1.376 . S
C211 C210 1.392 . S
C211 H223 0.929 . S
C212 C208 1.531 . S
C212 H224 0.960 . S
C212 H225 0.962 . S
C212 H226 0.960 . S
C213 C210 1.511 . S
C213 H227 0.961 . S
C213 H228 0.961 . S
C213 H229 0.961 . S
C214 C215 1.370 . S
C214 C216 1.363 . S
C214 H230 0.931 . S
C215 C214 1.370 . S
C215 C219 1.408 . S
C216 C214 1.363 . S
C216 C217 1.370 . S
C216 C220 1.524 . S
C217 C209 1.503 . S
C217 C216 1.370 . S
C217 C218 1.403 . S
C218 C217 1.403 . S
C218 C219 1.404 . S
C218 C221 1.539 . S
C219 C215 1.408 . S
C219 C218 1.404 . S
C219 H231 0.930 . S
C220 C216 1.524 . S
C220 H232 0.956 . S
C220 H233 0.961 . S
C220 H234 0.961 . S
C221 C218 1.539 . S
C221 H235 0.958 . S
C221 H236 0.961 . S
C221 H237 0.960 . S
H222 C206 0.931 . S
H223 C211 0.929 . S
H224 C212 0.960 . S
H225 C212 0.962 . S
H226 C212 0.960 . S
H227 C213 0.961 . S
H228 C213 0.961 . S
H229 C213 0.961 . S
H230 C214 0.931 . S
H231 C219 0.930 . S
H232 C220 0.956 . S
H233 C220 0.961 . S
H234 C220 0.961 . S
H235 C221 0.958 . S
H236 C221 0.961 . S
H237 C221 0.960 . S
C238 C239 1.391 . S
C238 C240 1.394 . S
C238 H254 0.931 . S
C239 C238 1.391 . S
C239 C243 1.376 . S
C240 C238 1.394 . S
C240 C241 1.369 . S
C240 C244 1.531 . S
C241 C240 1.369 . S
C241 C242 1.410 . S
C241 C249 1.503 . S
C242 C241 1.410 . S
C242 C243 1.392 . S
C242 C245 1.511 . S
C243 C239 1.376 . S
C243 C242 1.392 . S
C243 H255 0.929 . S
C244 C240 1.531 . S
C244 H256 0.960 . S
C244 H257 0.962 . S
C244 H258 0.960 . S
C245 C242 1.511 . S
C245 H259 0.961 . S
C245 H260 0.961 . S
C245 H261 0.961 . S
C246 C247 1.370 . S
C246 C248 1.363 . S
C246 H262 0.931 . S
C247 C246 1.370 . S
C247 C251 1.408 . S
C248 C246 1.363 . S
C248 C249 1.370 . S
C248 C252 1.524 . S
C249 C241 1.503 . S
C249 C248 1.370 . S
C249 C250 1.403 . S
C250 C249 1.403 . S
C250 C251 1.404 . S
C250 C253 1.539 . S
C251 C247 1.408 . S
C251 C250 1.404 . S
C251 H263 0.930 . S
C252 C248 1.524 . S
C252 H264 0.956 . S
C252 H265 0.961 . S
C252 H266 0.961 . S
C253 C250 1.539 . S
C253 H267 0.958 . S
C253 H268 0.961 . S
C253 H269 0.960 . S
H254 C238 0.931 . S
H255 C243 0.929 . S
H256 C244 0.960 . S
H257 C244 0.962 . S
H258 C244 0.960 . S
H259 C245 0.961 . S
H260 C245 0.961 . S
H261 C245 0.961 . S
H262 C246 0.931 . S
H263 C251 0.930 . S
H264 C252 0.956 . S
H265 C252 0.961 . S
H266 C252 0.961 . S
H267 C253 0.958 . S
H268 C253 0.961 . S
H269 C253 0.960 . S
C270 C271 1.391 . S
C270 C272 1.394 . S
C270 H286 0.931 . S
C271 C270 1.391 . S
C271 C275 1.376 . S
C272 C270 1.394 . S
C272 C273 1.369 . S
C272 C276 1.531 . S
C273 C272 1.369 . S
C273 C274 1.410 . S
C273 C281 1.503 . S
C274 C273 1.410 . S
C274 C275 1.392 . S
C274 C277 1.511 . S
C275 C271 1.376 . S
C275 C274 1.392 . S
C275 H287 0.929 . S
C276 C272 1.531 . S
C276 H288 0.960 . S
C276 H289 0.962 . S
C276 H290 0.960 . S
C277 C274 1.511 . S
C277 H291 0.961 . S
C277 H292 0.961 . S
C277 H293 0.961 . S
C278 C279 1.370 . S
C278 C280 1.363 . S
C278 H294 0.931 . S
C279 C278 1.370 . S
C279 C283 1.408 . S
C280 C278 1.363 . S
C280 C281 1.370 . S
C280 C284 1.524 . S
C281 C273 1.503 . S
C281 C280 1.370 . S
C281 C282 1.403 . S
C282 C281 1.403 . S
C282 C283 1.404 . S
C282 C285 1.539 . S
C283 C279 1.408 . S
C283 C282 1.404 . S
C283 H295 0.930 . S
C284 C280 1.524 . S
C284 H296 0.956 . S
C284 H297 0.961 . S
C284 H298 0.961 . S
C285 C282 1.539 . S
C285 H299 0.958 . S
C285 H300 0.961 . S
C285 H301 0.960 . S
H286 C270 0.931 . S
H287 C275 0.929 . S
H288 C276 0.960 . S
H289 C276 0.962 . S
H290 C276 0.960 . S
H291 C277 0.961 . S
H292 C277 0.961 . S
H293 C277 0.961 . S
H294 C278 0.931 . S
H295 C283 0.930 . S
H296 C284 0.956 . S
H297 C284 0.961 . S
H298 C284 0.961 . S
H299 C285 0.958 . S
H300 C285 0.961 . S
H301 C285 0.960 . S
C302 C303 1.391 . S
C302 C304 1.394 . S
C302 H318 0.931 . S
C303 C302 1.391 . S
C303 C307 1.376 . S
C304 C302 1.394 . S
C304 C305 1.369 . S
C304 C308 1.531 . S
C305 C304 1.369 . S
C305 C306 1.410 . S
C305 C313 1.503 . S
C306 C305 1.410 . S
C306 C307 1.392 . S
C306 C309 1.511 . S
C307 C303 1.376 . S
C307 C306 1.392 . S
C307 H319 0.929 . S
C308 C304 1.531 . S
C308 H320 0.960 . S
C308 H321 0.962 . S
C308 H322 0.960 . S
C309 C306 1.511 . S
C309 H323 0.961 . S
C309 H324 0.961 . S
C309 H325 0.961 . S
C310 C311 1.370 . S
C310 C312 1.363 . S
C310 H326 0.931 . S
C311 C310 1.370 . S
C311 C315 1.408 . S
C312 C310 1.363 . S
C312 C313 1.370 . S
C312 C316 1.524 . S
C313 C305 1.503 . S
C313 C312 1.370 . S
C313 C314 1.403 . S
C314 C313 1.403 . S
C314 C315 1.404 . S
C314 C317 1.539 . S
C315 C311 1.408 . S
C315 C314 1.404 . S
C315 H327 0.930 . S
C316 C312 1.524 . S
C316 H328 0.956 . S
C316 H329 0.961 . S
C316 H330 0.961 . S
C317 C314 1.539 . S
C317 H331 0.958 . S
C317 H332 0.961 . S
C317 H333 0.960 . S
H318 C302 0.931 . S
H319 C307 0.929 . S
H320 C308 0.960 . S
H321 C308 0.962 . S
H322 C308 0.960 . S
H323 C309 0.961 . S
H324 C309 0.961 . S
H325 C309 0.961 . S
H326 C310 0.931 . S
H327 C315 0.930 . S
H328 C316 0.956 . S
H329 C316 0.961 . S
H330 C316 0.961 . S
H331 C317 0.958 . S
H332 C317 0.961 . S
H333 C317 0.960 . S
C334 C335 1.391 . S
C334 C336 1.394 . S
C334 H350 0.931 . S
C335 C334 1.391 . S
C335 C339 1.376 . S
C336 C334 1.394 . S
C336 C337 1.369 . S
C336 C340 1.531 . S
C337 C336 1.369 . S
C337 C338 1.410 . S
C337 C345 1.503 . S
C338 C337 1.410 . S
C338 C339 1.392 . S
C338 C341 1.511 . S
C339 C335 1.376 . S
C339 C338 1.392 . S
C339 H351 0.929 . S
C340 C336 1.531 . S
C340 H352 0.960 . S
C340 H353 0.962 . S
C340 H354 0.960 . S
C341 C338 1.511 . S
C341 H355 0.961 . S
C341 H356 0.961 . S
C341 H357 0.961 . S
C342 C343 1.370 . S
C342 C344 1.363 . S
C342 H358 0.931 . S
C343 C342 1.370 . S
C343 C347 1.408 . S
C344 C342 1.363 . S
C344 C345 1.370 . S
C344 C348 1.524 . S
C345 C337 1.503 . S
C345 C344 1.370 . S
C345 C346 1.403 . S
C346 C345 1.403 . S
C346 C347 1.404 . S
C346 C349 1.539 . S
C347 C343 1.408 . S
C347 C346 1.404 . S
C347 H359 0.930 . S
C348 C344 1.524 . S
C348 H360 0.956 . S
C348 H361 0.961 . S
C348 H362 0.961 . S
C349 C346 1.539 . S
C349 H363 0.958 . S
C349 H364 0.961 . S
C349 H365 0.960 . S
H350 C334 0.931 . S
H351 C339 0.929 . S
H352 C340 0.960 . S
H353 C340 0.962 . S
H354 C340 0.960 . S
H355 C341 0.961 . S
H356 C341 0.961 . S
H357 C341 0.961 . S
H358 C342 0.931 . S
H359 C347 0.930 . S
H360 C348 0.956 . S
H361 C348 0.961 . S
H362 C348 0.961 . S
H363 C349 0.958 . S
H364 C349 0.961 . S
H365 C349 0.960 . S
C366 C367 1.391 . S
C366 C368 1.394 . S
C366 H382 0.931 . S
C367 C366 1.391 . S
C367 C371 1.376 . S
C368 C366 1.394 . S
C368 C369 1.369 . S
C368 C372 1.531 . S
C369 C368 1.369 . S
C369 C370 1.410 . S
C369 C377 1.503 . S
C370 C369 1.410 . S
C370 C371 1.392 . S
C370 C373 1.511 . S
C371 C367 1.376 . S
C371 C370 1.392 . S
C371 H383 0.929 . S
C372 C368 1.531 . S
C372 H384 0.960 . S
C372 H385 0.962 . S
C372 H386 0.960 . S
C373 C370 1.511 . S
C373 H387 0.961 . S
C373 H388 0.961 . S
C373 H389 0.961 . S
C374 C375 1.370 . S
C374 C376 1.363 . S
C374 H390 0.931 . S
C375 C374 1.370 . S
C375 C379 1.408 . S
C376 C374 1.363 . S
C376 C377 1.370 . S
C376 C380 1.524 . S
C377 C369 1.503 . S
C377 C376 1.370 . S
C377 C378 1.403 . S
C378 C377 1.403 . S
C378 C379 1.404 . S
C378 C381 1.539 . S
C379 C375 1.408 . S
C379 C378 1.404 . S
C379 H391 0.930 . S
C380 C376 1.524 . S
C380 H392 0.956 . S
C380 H393 0.961 . S
C380 H394 0.961 . S
C381 C378 1.539 . S
C381 H395 0.958 . S
C381 H396 0.961 . S
C381 H397 0.960 . S
H382 C366 0.931 . S
H383 C371 0.929 . S
H384 C372 0.960 . S
H385 C372 0.962 . S
H386 C372 0.960 . S
H387 C373 0.961 . S
H388 C373 0.961 . S
H389 C373 0.961 . S
H390 C374 0.931 . S
H391 C379 0.930 . S
H392 C380 0.956 . S
H393 C380 0.961 . S
H394 C380 0.961 . S
H395 C381 0.958 . S
H396 C381 0.961 . S
H397 C381 0.960 . S
C398 C399 1.391 . S
C398 C400 1.394 . S
C398 H414 0.931 . S
C399 C398 1.391 . S
C399 C403 1.376 . S
C400 C398 1.394 . S
C400 C401 1.369 . S
C400 C404 1.531 . S
C401 C400 1.369 . S
C401 C402 1.410 . S
C401 C409 1.503 . S
C402 C401 1.410 . S
C402 C403 1.392 . S
C402 C405 1.511 . S
C403 C399 1.376 . S
C403 C402 1.392 . S
C403 H415 0.929 . S
C404 C400 1.531 . S
C404 H416 0.960 . S
C404 H417 0.962 . S
C404 H418 0.960 . S
C405 C402 1.511 . S
C405 H419 0.961 . S
C405 H420 0.961 . S
C405 H421 0.961 . S
C406 C407 1.370 . S
C406 C408 1.363 . S
C406 H422 0.931 . S
C407 C406 1.370 . S
C407 C411 1.408 . S
C408 C406 1.363 . S
C408 C409 1.370 . S
C408 C412 1.524 . S
C409 C401 1.503 . S
C409 C408 1.370 . S
C409 C410 1.403 . S
C410 C409 1.403 . S
C410 C411 1.404 . S
C410 C413 1.539 . S
C411 C407 1.408 . S
C411 C410 1.404 . S
C411 H423 0.930 . S
C412 C408 1.524 . S
C412 H424 0.956 . S
C412 H425 0.961 . S
C412 H426 0.961 . S
C413 C410 1.539 . S
C413 H427 0.958 . S
C413 H428 0.961 . S
C413 H429 0.960 . S
H414 C398 0.931 . S
H415 C403 0.929 . S
H416 C404 0.960 . S
H417 C404 0.962 . S
H418 C404 0.960 . S
H419 C405 0.961 . S
H420 C405 0.961 . S
H421 C405 0.961 . S
H422 C406 0.931 . S
H423 C411 0.930 . S
H424 C412 0.956 . S
H425 C412 0.961 . S
H426 C412 0.961 . S
H427 C413 0.958 . S
H428 C413 0.961 . S
H429 C413 0.960 . S
C430 C431 1.391 . S
C430 C432 1.394 . S
C430 H446 0.931 . S
C431 C430 1.391 . S
C431 C435 1.376 . S
C432 C430 1.394 . S
C432 C433 1.369 . S
C432 C436 1.531 . S
C433 C432 1.369 . S
C433 C434 1.410 . S
C433 C441 1.503 . S
C434 C433 1.410 . S
C434 C435 1.392 . S
C434 C437 1.511 . S
C435 C431 1.376 . S
C435 C434 1.392 . S
C435 H447 0.929 . S
C436 C432 1.531 . S
C436 H448 0.960 . S
C436 H449 0.962 . S
C436 H450 0.960 . S
C437 C434 1.511 . S
C437 H451 0.961 . S
C437 H452 0.961 . S
C437 H453 0.961 . S
C438 C439 1.370 . S
C438 C440 1.363 . S
C438 H454 0.931 . S
C439 C438 1.370 . S
C439 C443 1.408 . S
C440 C438 1.363 . S
C440 C441 1.370 . S
C440 C444 1.524 . S
C441 C433 1.503 . S
C441 C440 1.370 . S
C441 C442 1.403 . S
C442 C441 1.403 . S
C442 C443 1.404 . S
C442 C445 1.539 . S
C443 C439 1.408 . S
C443 C442 1.404 . S
C443 H455 0.930 . S
C444 C440 1.524 . S
C444 H456 0.956 . S
C444 H457 0.961 . S
C444 H458 0.961 . S
C445 C442 1.539 . S
C445 H459 0.958 . S
C445 H460 0.961 . S
C445 H461 0.960 . S
H446 C430 0.931 . S
H447 C435 0.929 . S
H448 C436 0.960 . S
H449 C436 0.962 . S
H450 C436 0.960 . S
H451 C437 0.961 . S
H452 C437 0.961 . S
H453 C437 0.961 . S
H454 C438 0.931 . S
H455 C443 0.930 . S
H456 C444 0.956 . S
H457 C444 0.961 . S
H458 C444 0.961 . S
H459 C445 0.958 . S
H460 C445 0.961 . S
H461 C445 0.960 . S
C462 C463 1.391 . S
C462 C464 1.394 . S
C462 H478 0.931 . S
C463 C462 1.391 . S
C463 C467 1.376 . S
C464 C462 1.394 . S
C464 C465 1.369 . S
C464 C468 1.531 . S
C465 C464 1.369 . S
C465 C466 1.410 . S
C465 C473 1.503 . S
C466 C465 1.410 . S
C466 C467 1.392 . S
C466 C469 1.511 . S
C467 C463 1.376 . S
C467 C466 1.392 . S
C467 H479 0.929 . S
C468 C464 1.531 . S
C468 H480 0.960 . S
C468 H481 0.962 . S
C468 H482 0.960 . S
C469 C466 1.511 . S
C469 H483 0.961 . S
C469 H484 0.961 . S
C469 H485 0.961 . S
C470 C471 1.370 . S
C470 C472 1.363 . S
C470 H486 0.931 . S
C471 C470 1.370 . S
C471 C475 1.408 . S
C472 C470 1.363 . S
C472 C473 1.370 . S
C472 C476 1.524 . S
C473 C465 1.503 . S
C473 C472 1.370 . S
C473 C474 1.403 . S
C474 C473 1.403 . S
C474 C475 1.404 . S
C474 C477 1.539 . S
C475 C471 1.408 . S
C475 C474 1.404 . S
C475 H487 0.930 . S
C476 C472 1.524 . S
C476 H488 0.956 . S
C476 H489 0.961 . S
C476 H490 0.961 . S
C477 C474 1.539 . S
C477 H491 0.958 . S
C477 H492 0.961 . S
C477 H493 0.960 . S
H478 C462 0.931 . S
H479 C467 0.929 . S
H480 C468 0.960 . S
H481 C468 0.962 . S
H482 C468 0.960 . S
H483 C469 0.961 . S
H484 C469 0.961 . S
H485 C469 0.961 . S
H486 C470 0.931 . S
H487 C475 0.930 . S
H488 C476 0.956 . S
H489 C476 0.961 . S
H490 C476 0.961 . S
H491 C477 0.958 . S
H492 C477 0.961 . S
H493 C477 0.960 . S
C494 C495 1.391 . S
C494 C496 1.394 . S
C494 H510 0.931 . S
C495 C494 1.391 . S
C495 C499 1.376 . S
C496 C494 1.394 . S
C496 C497 1.369 . S
C496 C500 1.531 . S
C497 C496 1.369 . S
C497 C498 1.410 . S
C497 C505 1.503 . S
C498 C497 1.410 . S
C498 C499 1.392 . S
C498 C501 1.511 . S
C499 C495 1.376 . S
C499 C498 1.392 . S
C499 H511 0.929 . S
C500 C496 1.531 . S
C500 H512 0.960 . S
C500 H513 0.962 . S
C500 H514 0.960 . S
C501 C498 1.511 . S
C501 H515 0.961 . S
C501 H516 0.961 . S
C501 H517 0.961 . S
C502 C503 1.370 . S
C502 C504 1.363 . S
C502 H518 0.931 . S
C503 C502 1.370 . S
C503 C507 1.408 . S
C504 C502 1.363 . S
C504 C505 1.370 . S
C504 C508 1.524 . S
C505 C497 1.503 . S
C505 C504 1.370 . S
C505 C506 1.403 . S
C506 C505 1.403 . S
C506 C507 1.404 . S
C506 C509 1.539 . S
C507 C503 1.408 . S
C507 C506 1.404 . S
C507 H519 0.930 . S
C508 C504 1.524 . S
C508 H520 0.956 . S
C508 H521 0.961 . S
C508 H522 0.961 . S
C509 C506 1.539 . S
C509 H523 0.958 . S
C509 H524 0.961 . S
C509 H525 0.960 . S
H510 C494 0.931 . S
H511 C499 0.929 . S
H512 C500 0.960 . S
H513 C500 0.962 . S
H514 C500 0.960 . S
H515 C501 0.961 . S
H516 C501 0.961 . S
H517 C501 0.961 . S
H518 C502 0.931 . S
H519 C507 0.930 . S
H520 C508 0.956 . S
H521 C508 0.961 . S
H522 C508 0.961 . S
H523 C509 0.958 . S
H524 C509 0.961 . S
H525 C509 0.960 . S
C526 C527 1.391 . S
C526 C528 1.394 . S
C526 H542 0.931 . S
C527 C526 1.391 . S
C527 C531 1.376 . S
C528 C526 1.394 . S
C528 C529 1.369 . S
C528 C532 1.531 . S
C529 C528 1.369 . S
C529 C530 1.410 . S
C529 C537 1.503 . S
C530 C529 1.410 . S
C530 C531 1.392 . S
C530 C533 1.511 . S
C531 C527 1.376 . S
C531 C530 1.392 . S
C531 H543 0.929 . S
C532 C528 1.531 . S
C532 H544 0.960 . S
C532 H545 0.962 . S
C532 H546 0.960 . S
C533 C530 1.511 . S
C533 H547 0.961 . S
C533 H548 0.961 . S
C533 H549 0.961 . S
C534 C535 1.370 . S
C534 C536 1.363 . S
C534 H550 0.931 . S
C535 C534 1.370 . S
C535 C539 1.408 . S
C536 C534 1.363 . S
C536 C537 1.370 . S
C536 C540 1.524 . S
C537 C529 1.503 . S
C537 C536 1.370 . S
C537 C538 1.403 . S
C538 C537 1.403 . S
C538 C539 1.404 . S
C538 C541 1.539 . S
C539 C535 1.408 . S
C539 C538 1.404 . S
C539 H551 0.930 . S
C540 C536 1.524 . S
C540 H552 0.956 . S
C540 H553 0.961 . S
C540 H554 0.961 . S
C541 C538 1.539 . S
C541 H555 0.958 . S
C541 H556 0.961 . S
C541 H557 0.960 . S
H542 C526 0.931 . S
H543 C531 0.929 . S
H544 C532 0.960 . S
H545 C532 0.962 . S
H546 C532 0.960 . S
H547 C533 0.961 . S
H548 C533 0.961 . S
H549 C533 0.961 . S
H550 C534 0.931 . S
H551 C539 0.930 . S
H552 C540 0.956 . S
H553 C540 0.961 . S
H554 C540 0.961 . S
H555 C541 0.958 . S
H556 C541 0.961 . S
H557 C541 0.960 . S
C558 C559 1.391 . S
C558 C560 1.394 . S
C558 H574 0.931 1_455 S
C559 C558 1.391 . S
C559 C563 1.376 . S
C560 C558 1.394 . S
C560 C561 1.369 . S
C560 C564 1.531 1_455 S
C561 C560 1.369 . S
C561 C562 1.410 . S
C561 C569 1.503 1_554 S
C562 C561 1.410 . S
C562 C563 1.392 . S
C562 C565 1.511 . S
C563 C559 1.376 . S
C563 C562 1.392 . S
C563 H575 0.929 . S
C564 C560 1.531 1_655 S
C564 H576 0.960 1_654 S
C564 H577 0.965 . S
C564 H578 0.960 . S
C565 C562 1.511 . S
C565 H579 0.961 . S
C565 H580 0.961 . S
C565 H581 0.961 . S
C566 C567 1.370 . S
C566 C568 1.363 . S
C566 H582 0.931 . S
C567 C566 1.370 . S
C567 C571 1.408 . S
C568 C566 1.363 . S
C568 C569 1.370 . S
C568 C572 1.524 . S
C569 C561 1.503 1_556 S
C569 C568 1.370 . S
C569 C570 1.403 . S
C570 C569 1.403 . S
C570 C571 1.404 . S
C570 C573 1.539 . S
C571 C567 1.408 . S
C571 C570 1.404 . S
C571 H583 0.930 . S
C572 C568 1.524 . S
C572 H584 0.956 1_455 S
C572 H585 0.961 1_556 S
C572 H586 0.961 . S
C573 C570 1.539 . S
C573 H587 0.958 . S
C573 H588 0.961 . S
C573 H589 0.960 1_556 S
H574 C558 0.931 1_655 S
H575 C563 0.929 . S
H576 C564 0.960 1_456 S
H577 C564 0.965 . S
H578 C564 0.960 . S
H579 C565 0.961 . S
H580 C565 0.961 . S
H581 C565 0.961 . S
H582 C566 0.931 . S
H583 C571 0.930 . S
H584 C572 0.956 1_655 S
H585 C572 0.961 1_554 S
H586 C572 0.961 . S
H587 C573 0.958 . S
H588 C573 0.961 . S
H589 C573 0.960 1_554 S
C590 C591 1.391 . S
C590 C592 1.394 . S
C590 H606 0.931 . S
C591 C590 1.391 . S
C591 C595 1.376 . S
C592 C590 1.394 . S
C592 C593 1.369 . S
C592 C596 1.531 . S
C593 C592 1.369 . S
C593 C594 1.410 . S
C593 C601 1.503 . S
C594 C593 1.410 . S
C594 C595 1.392 . S
C594 C597 1.511 . S
C595 C591 1.376 . S
C595 C594 1.392 . S
C595 H607 0.929 . S
C596 C592 1.531 . S
C596 H608 0.960 . S
C596 H609 0.962 . S
C596 H610 0.960 1_545 S
C597 C594 1.511 . S
C597 H611 0.961 . S
C597 H612 0.961 . S
C597 H613 0.961 . S
C598 C599 1.370 . S
C598 C600 1.363 . S
C598 H614 0.931 . S
C599 C598 1.370 . S
C599 C603 1.408 . S
C600 C598 1.363 . S
C600 C601 1.370 . S
C600 C604 1.524 . S
C601 C593 1.503 . S
C601 C600 1.370 . S
C601 C602 1.403 . S
C602 C601 1.403 . S
C602 C603 1.404 . S
C602 C605 1.539 1_545 S
C603 C599 1.408 . S
C603 C602 1.404 . S
C603 H615 0.930 . S
C604 C600 1.524 . S
C604 H616 0.956 . S
C604 H617 0.961 . S
C604 H618 0.961 . S
C605 C602 1.539 1_565 S
C605 H619 0.958 . S
C605 H620 0.961 . S
C605 H621 0.960 . S
H606 C590 0.931 . S
H607 C595 0.929 . S
H608 C596 0.960 . S
H609 C596 0.962 . S
H610 C596 0.960 1_565 S
H611 C597 0.961 . S
H612 C597 0.961 . S
H613 C597 0.961 . S
H614 C598 0.931 . S
H615 C603 0.930 . S
H616 C604 0.956 . S
H617 C604 0.961 . S
H618 C604 0.961 . S
H619 C605 0.958 . S
H620 C605 0.961 . S
H621 C605 0.960 . S
C622 C623 1.391 . S
C622 C624 1.394 . S
C622 H638 0.931 . S
C623 C622 1.391 . S
C623 C627 1.376 . S
C624 C622 1.394 . S
C624 C625 1.369 . S
C624 C628 1.531 . S
C625 C624 1.369 . S
C625 C626 1.410 . S
C625 C633 1.503 . S
C626 C625 1.410 . S
C626 C627 1.392 . S
C626 C629 1.511 . S
C627 C623 1.376 . S
C627 C626 1.392 . S
C627 H639 0.929 . S
C628 C624 1.531 . S
C628 H640 0.960 . S
C628 H641 0.962 . S
C628 H642 0.960 . S
C629 C626 1.511 . S
C629 H643 0.961 . S
C629 H644 0.961 . S
C629 H645 0.961 . S
C630 C631 1.370 . S
C630 C632 1.363 . S
C630 H646 0.931 . S
C631 C630 1.370 . S
C631 C635 1.408 . S
C632 C630 1.363 . S
C632 C633 1.370 . S
C632 C636 1.524 . S
C633 C625 1.503 . S
C633 C632 1.370 . S
C633 C634 1.403 . S
C634 C633 1.403 . S
C634 C635 1.404 . S
C634 C637 1.539 . S
C635 C631 1.408 . S
C635 C634 1.404 . S
C635 H647 0.930 . S
C636 C632 1.524 . S
C636 H648 0.956 . S
C636 H649 0.961 . S
C636 H650 0.961 . S
C637 C634 1.539 . S
C637 H651 0.958 . S
C637 H652 0.961 . S
C637 H653 0.960 . S
H638 C622 0.931 . S
H639 C627 0.929 . S
H640 C628 0.960 . S
H641 C628 0.962 . S
H642 C628 0.960 . S
H643 C629 0.961 . S
H644 C629 0.961 . S
H645 C629 0.961 . S
H646 C630 0.931 . S
H647 C635 0.930 . S
H648 C636 0.956 . S
H649 C636 0.961 . S
H650 C636 0.961 . S
H651 C637 0.958 . S
H652 C637 0.961 . S
H653 C637 0.960 . S
C654 C655 1.391 . S
C654 C656 1.394 . S
C654 H670 0.931 . S
C655 C654 1.391 . S
C655 C659 1.376 . S
C656 C654 1.394 . S
C656 C657 1.369 . S
C656 C660 1.531 . S
C657 C656 1.369 . S
C657 C658 1.410 . S
C657 C665 1.503 . S
C658 C657 1.410 . S
C658 C659 1.392 . S
C658 C661 1.511 . S
C659 C655 1.376 . S
C659 C658 1.392 . S
C659 H671 0.929 . S
C660 C656 1.531 . S
C660 H672 0.960 . S
C660 H673 0.962 . S
C660 H674 0.960 . S
C661 C658 1.511 . S
C661 H675 0.961 . S
C661 H676 0.961 . S
C661 H677 0.961 . S
C662 C663 1.370 . S
C662 C664 1.363 . S
C662 H678 0.931 1_545 S
C663 C662 1.370 . S
C663 C667 1.408 . S
C664 C662 1.363 . S
C664 C665 1.370 . S
C664 C668 1.524 1_545 S
C665 C657 1.503 . S
C665 C664 1.370 . S
C665 C666 1.403 . S
C666 C665 1.403 . S
C666 C667 1.404 . S
C666 C669 1.539 . S
C667 C663 1.408 . S
C667 C666 1.404 . S
C667 H679 0.930 . S
C668 C664 1.524 1_565 S
C668 H680 0.956 . S
C668 H681 0.961 . S
C668 H682 0.961 . S
C669 C666 1.539 . S
C669 H683 0.958 . S
C669 H684 0.961 . S
C669 H685 0.960 . S
H670 C654 0.931 . S
H671 C659 0.929 . S
H672 C660 0.960 . S
H673 C660 0.962 . S
H674 C660 0.960 . S
H675 C661 0.961 . S
H676 C661 0.961 . S
H677 C661 0.961 . S
H678 C662 0.931 1_565 S
H679 C667 0.930 . S
H680 C668 0.956 . S
H681 C668 0.961 . S
H682 C668 0.961 . S
H683 C669 0.958 . S
H684 C669 0.961 . S
H685 C669 0.960 . S
C686 C687 1.391 . S
C686 C688 1.394 . S
C686 H702 0.931 . S
C687 C686 1.391 . S
C687 C691 1.376 . S
C688 C686 1.394 . S
C688 C689 1.369 . S
C688 C692 1.531 . S
C689 C688 1.369 . S
C689 C690 1.410 . S
C689 C697 1.503 1_556 S
C690 C689 1.410 . S
C690 C691 1.392 . S
C690 C693 1.511 . S
C691 C687 1.376 . S
C691 C690 1.392 . S
C691 H703 0.929 . S
C692 C688 1.531 . S
C692 H704 0.960 1_556 S
C692 H705 0.962 1_556 S
C692 H706 0.960 . S
C693 C690 1.511 . S
C693 H707 0.961 . S
C693 H708 0.961 . S
C693 H709 0.961 . S
C694 C695 1.370 . S
C694 C696 1.363 . S
C694 H710 0.931 . S
C695 C694 1.370 . S
C695 C699 1.408 . S
C696 C694 1.363 . S
C696 C697 1.370 . S
C696 C700 1.524 1_554 S
C697 C689 1.503 1_554 S
C697 C696 1.370 . S
C697 C698 1.403 . S
C698 C697 1.403 . S
C698 C699 1.404 . S
C698 C701 1.539 . S
C699 C695 1.408 . S
C699 C698 1.404 . S
C699 H711 0.930 . S
C700 C696 1.524 1_556 S
C700 H712 0.956 . S
C700 H713 0.961 . S
C700 H714 0.961 1_556 S
C701 C698 1.539 . S
C701 H715 0.958 . S
C701 H716 0.961 . S
C701 H717 0.960 1_554 S
H702 C686 0.931 . S
H703 C691 0.929 . S
H704 C692 0.960 1_554 S
H705 C692 0.962 1_554 S
H706 C692 0.960 . S
H707 C693 0.961 . S
H708 C693 0.961 . S
H709 C693 0.961 . S
H710 C694 0.931 . S
H711 C699 0.930 . S
H712 C700 0.956 . S
H713 C700 0.961 . S
H714 C700 0.961 1_554 S
H715 C701 0.958 . S
H716 C701 0.961 . S
H717 C701 0.960 1_556 S
C718 C719 1.391 . S
C718 C720 1.394 . S
C718 H734 0.931 . S
C719 C718 1.391 . S
C719 C723 1.376 . S
C720 C718 1.394 . S
C720 C721 1.369 . S
C720 C724 1.531 . S
C721 C720 1.369 . S
C721 C722 1.410 . S
C721 C729 1.503 . S
C722 C721 1.410 . S
C722 C723 1.392 . S
C722 C725 1.511 . S
C723 C719 1.376 . S
C723 C722 1.392 . S
C723 H735 0.929 . S
C724 C720 1.531 . S
C724 H736 0.960 . S
C724 H737 0.962 . S
C724 H738 0.960 . S
C725 C722 1.511 . S
C725 H739 0.961 . S
C725 H740 0.961 . S
C725 H741 0.961 1_455 S
C726 C727 1.370 . S
C726 C728 1.363 . S
C726 H742 0.931 . S
C727 C726 1.370 . S
C727 C731 1.408 1_455 S
C728 C726 1.363 . S
C728 C729 1.370 . S
C728 C732 1.524 . S
C729 C721 1.503 . S
C729 C728 1.370 . S
C729 C730 1.403 1_455 S
C730 C729 1.403 1_655 S
C730 C731 1.404 . S
C730 C733 1.539 . S
C731 C727 1.408 1_655 S
C731 C730 1.404 . S
C731 H743 0.930 . S
C732 C728 1.524 . S
C732 H744 0.956 . S
C732 H745 0.961 . S
C732 H746 0.961 . S
C733 C730 1.539 . S
C733 H747 0.958 . S
C733 H748 0.961 . S
C733 H749 0.960 . S
H734 C718 0.931 . S
H735 C723 0.929 . S
H736 C724 0.960 . S
H737 C724 0.962 . S
H738 C724 0.960 . S
H739 C725 0.961 . S
H740 C725 0.961 . S
H741 C725 0.961 1_655 S
H742 C726 0.931 . S
H743 C731 0.930 . S
H744 C732 0.956 . S
H745 C732 0.961 . S
H746 C732 0.961 . S
H747 C733 0.958 . S
H748 C733 0.961 . S
H749 C733 0.960 . S
C175 C8 2.115 . S
C183 C166 2.112 . S
C207 C26 1.428 . S
C215 C128 1.406 . S
C239 C48 1.589 . S
C247 C147 1.624 . S
C271 C19 1.693 . S
C279 C161 1.737 . S
C311 C123 1.343 . S
C303 C36 1.348 . S
C343 C142 1.566 . S
C335 C59 1.527 . S
C367 C28 1.594 . S
C375 C90 1.623 . S
C399 C46 1.111 . S
C407 C104 1.117 1_655 S
C431 C16 1.373 . S
C439 C66 1.345 1_565 S
C471 C85 1.532 . S
C463 C39 1.499 . S
C503 C109 1.081 . S
C495 C56 1.112 . S
C527 C6 1.439 . S
C535 C71 1.423 . S
C567 C100 1.492 . S
C559 C9 1.493 . S
C591 C21 1.557 . S
C599 C62 1.562 . S
C623 C49 1.546 . S
C631 C81 1.536 . S
C663 C138 1.523 . S
C655 C29 1.538 . S
C695 C157 1.645 . S
C687 C41 1.584 . S
C719 C1 1.542 . S
C727 C119 1.538 . S
