# Generated by pormake.
# Topology anh, (6,3)-cn, num edge types: 1
# Building blocks:
#     Node 0, Type 0, BuildingBlock: BETGAK_clean_sbu_0, # of connection points: 6
#     Node 1, Type 0, BuildingBlock: BETGAK_clean_sbu_0, # of connection points: 6
#     Node 2, Type 0, BuildingBlock: BETGAK_clean_sbu_0, # of connection points: 6
#     Node 3, Type 1, BuildingBlock: BETDIP_clean_linker_0, # of connection points: 3
#     Node 4, Type 1, BuildingBlock: BETDIP_clean_linker_0, # of connection points: 3
#     Node 5, Type 1, BuildingBlock: BETDIP_clean_linker_0, # of connection points: 3
#     Node 6, Type 1, BuildingBlock: BETDIP_clean_linker_0, # of connection points: 3
#     Node 7, Type 1, BuildingBlock: BETDIP_clean_linker_0, # of connection points: 3
#     Node 8, Type 1, BuildingBlock: BETDIP_clean_linker_0, # of connection points: 3
#     Edge 9, Type (0, 1), BuildingBlock: OJICUG_clean_linker_0, # of connection points: 2
#     Edge 10, Type (0, 1), BuildingBlock: OJICUG_clean_linker_0, # of connection points: 2
#     Edge 11, Type (0, 1), BuildingBlock: OJICUG_clean_linker_0, # of connection points: 2
#     Edge 12, Type (0, 1), BuildingBlock: OJICUG_clean_linker_0, # of connection points: 2
#     Edge 13, Type (0, 1), BuildingBlock: OJICUG_clean_linker_0, # of connection points: 2
#     Edge 14, Type (0, 1), BuildingBlock: OJICUG_clean_linker_0, # of connection points: 2
#     Edge 15, Type (0, 1), BuildingBlock: OJICUG_clean_linker_0, # of connection points: 2
#     Edge 16, Type (0, 1), BuildingBlock: OJICUG_clean_linker_0, # of connection points: 2
#     Edge 17, Type (0, 1), BuildingBlock: OJICUG_clean_linker_0, # of connection points: 2
#     Edge 18, Type (0, 1), BuildingBlock: OJICUG_clean_linker_0, # of connection points: 2
#     Edge 19, Type (0, 1), BuildingBlock: OJICUG_clean_linker_0, # of connection points: 2
#     Edge 20, Type (0, 1), BuildingBlock: OJICUG_clean_linker_0, # of connection points: 2
#     Edge 21, Type (0, 1), BuildingBlock: OJICUG_clean_linker_0, # of connection points: 2
#     Edge 22, Type (0, 1), BuildingBlock: OJICUG_clean_linker_0, # of connection points: 2
#     Edge 23, Type (0, 1), BuildingBlock: OJICUG_clean_linker_0, # of connection points: 2
#     Edge 24, Type (0, 1), BuildingBlock: OJICUG_clean_linker_0, # of connection points: 2
#     Edge 25, Type (0, 1), BuildingBlock: OJICUG_clean_linker_0, # of connection points: 2
#     Edge 26, Type (0, 1), BuildingBlock: OJICUG_clean_linker_0, # of connection points: 2
# Relax obj value: 0.227
# Max RMSD: 0.207
# Mean RMSD: 0.136
data_MOF--net-anh--node1-BETGAK_clean_sbu_0--node2-BETDIP_clean_linker_0--edge1-OJICUG_clean_linker_0
_symmetry_space_group_name_H-M    P1
_symmetry_Int_Tables_number       1
_symmetry_cell_setting            triclinic
loop_
_symmetry_equiv_pos_as_xyz
'x, y, z'
_cell_length_a     21.671176
_cell_length_b     29.505274
_cell_length_c     36.17375
_cell_angle_alpha  93.268922
_cell_angle_beta   88.960997
_cell_angle_gamma 133.72957
loop_
_atom_site_label
_atom_site_type_symbol
_atom_site_fract_x
_atom_site_fract_y
_atom_site_fract_z
_atom_type_partial_charge
La0 La 0.31272 0.64281 0.14965 0.0
La1 La 0.18869 0.65498 0.16814 0.0
C2 C 0.42358 0.64472 0.12529 0.0
C3 C 0.44116 0.60574 0.13043 0.0
C4 C 0.38601 0.55184 0.15072 0.0
C5 C 0.40356 0.515 0.15556 0.0
C6 C 0.47659 0.53171 0.14021 0.0
C7 C 0.53226 0.58655 0.12048 0.0
C8 C 0.51469 0.62328 0.11572 0.0
C9 C 0.27077 0.62978 0.21965 0.0
C10 C 0.37999 0.77962 0.15908 0.0
C11 C 1.08653 0.65854 0.19707 0.0
C12 C 0.99222 0.60589 0.19557 0.0
C13 C 0.95197 0.55831 0.22079 0.0
C14 C 0.87125 0.49871 0.21228 0.0
C15 C 0.82918 0.48599 0.17866 0.0
C16 C 0.86427 0.53575 0.15599 0.0
C17 C 0.94503 0.59522 0.16438 0.0
C18 C 0.18427 0.6213 0.09811 0.0
C19 C 1.12099 0.52058 0.15875 0.0
O20 O 0.3524 0.61732 0.10701 0.0
O21 O 0.43515 0.67741 0.15509 0.0
O22 O 0.28688 0.59969 0.20209 0.0
O23 O 0.28334 0.66793 0.1987 0.0
O24 O 0.39601 0.74491 0.14846 0.0
O25 O 0.30322 0.75438 0.16895 0.0
O26 O 1.12286 0.68346 0.16546 0.0
O27 O 1.127 0.64836 0.21569 0.0
O28 O 1.11911 0.60476 0.11529 0.0
O29 O 0.24975 0.66039 0.11872 0.0
O30 O 1.11425 0.557 0.17695 0.0
O31 O 0.19114 0.54446 0.14097 0.0
H32 H 0.32914 0.53805 0.16251 0.0
H33 H 0.35963 0.47318 0.17093 0.0
H34 H 0.58798 0.60001 0.10752 0.0
H35 H 0.55794 0.66494 0.10013 0.0
H36 H 0.9859 0.56521 0.24544 0.0
H37 H 0.84536 0.46142 0.23046 0.0
H38 H 0.83167 0.5276 0.13044 0.0
H39 H 0.97325 0.6311 0.14475 0.0
La40 La 0.81331 0.1263 0.47924 0.0
La41 La 0.68269 0.13307 0.46816 0.0
C42 C 0.88914 0.09578 0.50194 0.0
C43 C 0.8615 0.0371 0.51366 0.0
C44 C 0.91423 1.02594 0.50769 0.0
C45 C 0.88781 0.9696 0.51745 0.0
C46 C 0.80772 0.92303 0.53325 0.0
C47 C 0.75504 0.93458 0.53917 0.0
C48 C 0.78179 0.99108 0.52961 0.0
C49 C 0.79766 0.14581 0.4113 0.0
C50 C 0.61486 1.00071 0.46406 0.0
C51 C 0.60721 0.16505 0.44794 0.0
C52 C 0.62389 0.22262 0.45545 0.0
C53 C 0.5581 0.21762 0.46851 0.0
C54 C 0.57521 0.27142 0.48055 0.0
C55 C 0.65874 0.33129 0.48012 0.0
C56 C 0.7238 0.33644 0.46552 0.0
C57 C 0.7064 0.2827 0.45301 0.0
C58 C 0.69682 0.11212 0.53541 0.0
C59 C 0.88258 0.26031 0.48287 0.0
O60 O 0.87541 0.09589 0.4669 0.0
O61 O 0.86932 0.12116 0.52347 0.0
O62 O 0.8685 0.16781 0.42622 0.0
O63 O 0.73802 0.1097 0.43311 0.0
O64 O 0.68882 1.02766 0.48023 0.0
O65 O 0.60268 0.03489 0.45067 0.0
O66 O 0.58566 0.13216 0.47668 0.0
O67 O 0.66214 0.17002 0.42757 0.0
O68 O 0.62548 0.08881 0.52039 0.0
O69 O 0.75709 0.14899 0.51408 0.0
O70 O 0.80336 0.23234 0.47419 0.0
O71 O 0.90284 0.22802 0.48882 0.0
H72 H 0.97596 0.06086 0.49539 0.0
H73 H 0.93067 0.9629 0.51299 0.0
H74 H 0.6925 0.8996 0.55075 0.0
H75 H 0.73983 0.99856 0.53444 0.0
H76 H 0.494 0.17185 0.47066 0.0
H77 H 0.52387 0.26591 0.49189 0.0
H78 H 0.78857 0.38199 0.46448 0.0
H79 H 0.75822 0.28817 0.44255 0.0
La80 La 0.72859 0.57404 0.84524 0.0
La81 La 0.60107 0.43347 0.83726 0.0
C82 C 0.81157 0.68703 0.83475 0.0
C83 C 0.79096 0.72181 0.82145 0.0
C84 C 0.73966 0.72676 0.84176 0.0
C85 C 0.71975 0.75885 0.82806 0.0
C86 C 0.75013 0.7861 0.79372 0.0
C87 C 0.8017 0.78138 0.77359 0.0
C88 C 0.82224 0.74985 0.78742 0.0
C89 C 0.69157 0.51701 0.90662 0.0
C90 C 0.52755 0.49399 0.84758 0.0
C91 C 0.52411 0.32063 0.84387 0.0
C92 C 0.54884 0.28653 0.83267 0.0
C93 C 0.60054 0.30452 0.80202 0.0
C94 C 0.62938 0.27543 0.79278 0.0
C95 C 0.60832 0.22835 0.81433 0.0
C96 C 0.55678 0.21066 0.84521 0.0
C97 C 0.52734 0.23963 0.8543 0.0
C98 C 0.63667 0.48883 0.77535 0.0
C99 C 0.80476 0.5149 0.84084 0.0
O100 O 0.78306 0.66284 0.86709 0.0
O101 O 0.80259 0.64844 0.81004 0.0
O102 O 0.76675 0.57119 0.90046 0.0
O103 O 0.64102 0.50015 0.88054 0.0
O104 O 0.60444 0.54682 0.83816 0.0
O105 O 0.51436 0.44419 0.8545 0.0
O106 O 0.50779 0.33924 0.81695 0.0
O107 O 0.57298 0.36497 0.87 0.0
O108 O 0.56225 0.43529 0.78262 0.0
O109 O 0.68909 0.507 0.80109 0.0
O110 O 0.72454 0.45933 0.8407 0.0
O111 O 0.8225 0.56764 0.83972 0.0
H112 H 0.71433 0.70552 0.86807 0.0
H113 H 0.67938 0.76144 0.84402 0.0
H114 H 0.8269 0.80263 0.74727 0.0
H115 H 0.86226 0.74701 0.77133 0.0
H116 H 0.61922 0.34147 0.7853 0.0
H117 H 0.66742 0.28947 0.76839 0.0
H118 H 0.54011 0.17508 0.86262 0.0
H119 H 0.48888 0.22609 0.87851 0.0
H120 H 0.70986 0.08704 0.14496 0.0
H121 H 0.84655 0.21096 0.24226 0.0
H122 H 0.63339 1.01261 0.2528 0.0
H123 H 0.78086 0.24441 0.19104 0.0
C124 C 0.83385 0.25579 0.17621 0.0
C125 C 0.71949 0.09396 0.1748 0.0
C126 C 0.66454 0.04265 0.19714 0.0
C127 C 0.78352 0.1549 0.1913 0.0
C128 C 0.79534 0.16388 0.23 0.0
C129 C 0.74288 0.11271 0.25259 0.0
C130 C 0.67662 0.05241 0.23579 0.0
N131 N 0.83366 0.20782 0.16933 0.0
H132 H 0.721 0.58118 0.5192 0.0
H133 H 0.71485 0.63839 0.63061 0.0
H134 H 0.7039 0.48833 0.61221 0.0
H135 H 0.66278 0.6714 0.60145 0.0
C136 C 0.70145 0.69186 0.57706 0.0
C137 C 0.71819 0.57629 0.5488 0.0
C138 C 0.71355 0.53045 0.56278 0.0
C139 C 0.71859 0.61565 0.5729 0.0
C140 C 0.71405 0.60856 0.61134 0.0
C141 C 0.70913 0.56294 0.62541 0.0
C142 C 0.70999 0.52467 0.6012 0.0
N143 N 0.72519 0.66249 0.55791 0.0
H144 H 1.11769 0.51075 0.8347 0.0
H145 H 0.25163 0.55611 0.93781 0.0
H146 H 1.05396 0.55687 0.9338 0.0
H147 H 0.22484 0.46423 0.90846 0.0
C148 C 0.26092 0.4909 0.88452 0.0
C149 C 1.12783 0.52392 0.86409 0.0
C150 C 1.07906 0.5338 0.88206 0.0
C151 C 0.18911 0.53037 0.8844 0.0
C152 C 0.20242 0.54859 0.92253 0.0
C153 C 1.15507 0.5593 0.94069 0.0
C154 C 1.09304 0.55088 0.92011 0.0
N155 N 0.23846 0.51999 0.86651 0.0
H156 H 0.33249 0.69275 0.48507 0.0
H157 H 0.1908 0.55794 0.39213 0.0
H158 H 0.37115 0.75583 0.37531 0.0
H159 H 1.0941 0.54553 0.46317 0.0
C160 C 1.12374 0.5283 0.46897 0.0
C161 C 0.31809 0.68254 0.45555 0.0
C162 C 0.35713 0.73189 0.43182 0.0
C163 C 0.25703 0.61967 0.44116 0.0
C164 C 0.23769 0.60646 0.40296 0.0
C165 C 0.27878 0.65533 0.37886 0.0
C166 C 0.33783 0.71765 0.39369 0.0
N167 N 0.21336 0.56922 0.4649 0.0
H168 H 0.68203 0.04511 0.79156 0.0
H169 H 0.71335 1.00031 0.68139 0.0
H170 H 0.71338 0.14492 0.69941 0.0
H171 H 0.65228 0.90966 0.70473 0.0
C172 C 0.67629 0.92173 0.73318 0.0
C173 C 0.69225 0.05363 0.76233 0.0
C174 C 0.69859 0.10013 0.74842 0.0
C175 C 0.69766 1.01728 0.73857 0.0
C176 C 0.70901 1.02757 0.70044 0.0
C177 C 0.71532 0.07392 0.6865 0.0
C178 C 0.71146 0.11061 0.71058 0.0
N179 N 0.69269 0.97162 0.75399 0.0
H180 H 0.48002 0.30341 0.12879 0.0
H181 H 0.56171 0.29503 0.02114 0.0
H182 H 0.602 0.45528 0.05747 0.0
H183 H 0.49921 0.19443 0.13223 0.0
C184 C 0.53492 0.23817 0.11881 0.0
C185 C 0.51045 0.32457 0.10294 0.0
C186 C 0.54089 0.38326 0.09634 0.0
C187 C 0.52058 0.2935 0.07636 0.0
C188 C 0.55599 0.31961 0.0421 0.0
C189 C 0.5871 0.37883 0.03574 0.0
C190 C 0.58077 0.41062 0.06312 0.0
N191 N 0.50173 0.23885 0.08541 0.0
C192 C 0.57418 0.51428 0.14372 0.0
C193 C 0.49075 0.48927 0.14095 0.0
H194 H 0.6557 0.4986 0.13222 0.0
C195 C 0.42246 0.42434 0.1328 0.0
H196 H 0.62782 0.56382 0.15087 0.0
C197 C 0.43846 0.38687 0.12297 0.0
C198 C 0.52278 0.41401 0.121 0.0
H199 H 0.35745 0.40357 0.1304 0.0
H200 H 0.38575 0.33851 0.11299 0.0
C201 C 0.59015 0.47695 0.13357 0.0
C202 C 0.92429 0.36319 0.49022 0.0
C203 C 0.9491 0.33015 0.48491 0.0
H204 H 0.96019 0.45128 0.4892 0.0
C205 C 1.03547 0.36427 0.47821 0.0
H206 H 0.859 0.33878 0.49651 0.0
C207 C 1.09438 0.4296 0.47466 0.0
C208 C 1.06753 0.46153 0.47769 0.0
H209 H 1.0566 0.34018 0.47399 0.0
H210 H 1.15966 0.45442 0.46793 0.0
C211 C 0.98247 0.42783 0.48635 0.0
C212 C 0.70238 0.80883 0.74145 0.0
C213 C 0.72834 0.81946 0.77879 0.0
H214 H 0.66484 0.83276 0.69806 0.0
C215 C 0.73487 0.86295 0.80151 0.0
H216 H 0.69585 0.77504 0.72342 0.0
C217 C 0.71736 0.89607 0.78696 0.0
C218 C 0.69229 0.8858 0.74951 0.0
H219 H 0.75537 0.87239 0.83032 0.0
H220 H 0.7241 0.92994 0.805 0.0
C221 C 0.68422 0.84154 0.727 0.0
C222 C 0.688 0.37597 0.18789 0.0
C223 C 0.75543 0.42035 0.16485 0.0
H224 H 0.56446 0.28203 0.19116 0.0
C225 C 0.75395 0.40139 0.1281 0.0
H226 H 0.6881 0.38919 0.21646 0.0
C227 C 0.6845 0.3406 0.11401 0.0
C228 C 0.61478 0.29754 0.13627 0.0
H229 H 0.80638 0.4338 0.11005 0.0
H230 H 0.68386 0.32782 0.08524 0.0
C231 C 0.61794 0.31474 0.17363 0.0
C232 C 0.46837 0.9022 0.44124 0.0
C233 C 0.54562 0.93103 0.45959 0.0
H234 H 0.34788 0.81658 0.41888 0.0
C235 C 0.5564 0.89259 0.47247 0.0
H236 H 0.45719 0.92999 0.43126 0.0
C237 C 0.49286 0.82707 0.4656 0.0
C238 C 0.41776 0.79898 0.44554 0.0
H239 H 0.61484 0.91313 0.48692 0.0
H240 H 0.50422 0.79879 0.47434 0.0
C241 C 0.40544 0.83711 0.43426 0.0
C242 C 0.71837 0.23067 0.78793 0.0
C243 C 0.63767 0.1966 0.80342 0.0
H244 H 0.80115 0.22647 0.75847 0.0
C245 C 0.58275 0.13124 0.80546 0.0
H246 H 0.76326 0.28124 0.78685 0.0
C247 C 0.60562 0.10023 0.79 0.0
C248 C 0.68333 0.13393 0.77198 0.0
H249 H 0.51999 0.10346 0.81697 0.0
H250 H 0.56012 0.04946 0.78993 0.0
C251 C 0.74059 0.19955 0.77205 0.0
C252 C 0.79854 0.83319 0.52184 0.0
C253 C 0.77965 0.86306 0.54387 0.0
H254 H 0.7888 0.75569 0.51476 0.0
C255 C 0.73414 0.83535 0.57642 0.0
H256 H 0.83235 0.85258 0.49632 0.0
C257 C 0.70843 0.77954 0.58667 0.0
C258 C 0.72788 0.75013 0.56482 0.0
H259 H 0.71956 0.85734 0.59442 0.0
H260 H 0.67402 0.75967 0.61204 0.0
C261 C 0.77311 0.77739 0.53225 0.0
C262 C 0.86186 0.46412 0.84794 0.0
C263 C 0.87702 0.51858 0.84479 0.0
H264 H 0.91459 0.42615 0.86133 0.0
C265 C 0.96206 0.57736 0.84867 0.0
H266 H 0.79748 0.41798 0.84519 0.0
C267 C 1.02887 0.58177 0.8577 0.0
C268 C 1.01307 0.52762 0.86263 0.0
H269 H 0.97681 0.62044 0.84652 0.0
H270 H 1.09254 0.62787 0.86281 0.0
C271 C 0.92909 0.46864 0.85682 0.0
C272 C 0.43899 0.88567 0.18089 0.0
C273 C 0.45177 0.84907 0.16319 0.0
H274 H 0.49698 0.97589 0.20532 0.0
C275 C 0.53496 0.87901 0.15272 0.0
H276 H 0.37605 0.8645 0.18934 0.0
C277 C 0.60422 0.94337 0.16154 0.0
C278 C 0.5914 0.97857 0.18119 0.0
H279 H 0.54713 0.85234 0.13899 0.0
H280 H 0.66818 0.96485 0.15478 0.0
C281 C 0.50813 0.94954 0.19002 0.0
C282 C 0.6268 0.39838 0.49093 0.0
C283 C 0.67894 0.38722 0.49771 0.0
H284 H 0.59837 0.45376 0.50572 0.0
C285 C 0.74733 0.42736 0.52365 0.0
H286 H 0.57388 0.36835 0.47098 0.0
C287 C 0.7607 0.47561 0.54369 0.0
C288 C 0.70695 0.48549 0.53778 0.0
H289 H 0.78814 0.41964 0.52971 0.0
H290 H 0.81174 0.50422 0.56459 0.0
C291 C 0.64118 0.44746 0.51055 0.0
C292 C 0.38583 0.44422 0.87421 0.0
C293 C 0.45725 0.49219 0.85404 0.0
H294 H 0.26968 0.40709 0.89951 0.0
C295 C 0.4615 0.53894 0.84186 0.0
H296 H 0.37999 0.40757 0.88431 0.0
C297 C 0.39641 0.53782 0.85006 0.0
C298 C 0.3266 0.49064 0.87126 0.0
H299 H 0.51553 0.57674 0.82631 0.0
H300 H 0.40225 0.57494 0.84093 0.0
C301 C 0.32227 0.4439 0.88298 0.0
C302 C 1.0546 0.40858 0.15089 0.0
C303 C 1.04709 0.4517 0.15939 0.0
H304 H 0.99267 0.3119 0.14951 0.0
C305 C 0.96759 0.42875 0.17043 0.0
H306 H 1.11494 0.42483 0.14224 0.0
C307 C 0.89841 0.36486 0.17447 0.0
C308 C 0.90651 0.322 0.16755 0.0
H309 H 0.95883 0.46033 0.17661 0.0
H310 H 0.83874 0.34913 0.18387 0.0
C311 C 0.98472 0.34405 0.15503 0.0
C312 C 0.19649 0.57093 0.04455 0.0
C313 C 0.18441 0.60976 0.05804 0.0
H314 H 0.19481 0.52318 -0.00288 0.0
C315 C 1.16651 0.63414 0.03303 0.0
H316 H 0.20885 0.55072 0.06351 0.0
C317 C 1.16017 0.61963 -0.00501 0.0
C318 C 1.16922 0.57887 0.98113 0.0
H319 H 1.15703 0.66426 0.04297 0.0
H320 H 1.14748 0.64013 0.97649 0.0
C321 C 0.18857 0.55533 0.00647 0.0
C322 C 0.75931 0.08502 0.35167 0.0
C323 C 0.78361 0.13793 0.37108 0.0
H324 H 0.72959 0.03637 0.299 0.0
C325 C 0.79468 0.18287 0.35184 0.0
H326 H 0.75089 0.05002 0.36623 0.0
C327 C 0.7812 0.17479 0.31335 0.0
C328 C 0.75704 0.12177 0.29356 0.0
H329 H 0.81316 0.2239 0.36658 0.0
H330 H 0.78869 0.20965 0.2992 0.0
C331 C 0.74657 0.07713 0.31327 0.0
C332 C 0.59488 0.49852 0.71504 0.0
C333 C 0.65907 0.5145 0.73852 0.0
H334 H 0.56172 0.50291 0.66074 0.0
C335 C 0.74217 0.55084 0.72543 0.0
H336 H 0.53043 0.4707 0.7246 0.0
C337 C 0.75952 0.56816 0.68867 0.0
C338 C 0.69451 0.55069 0.66505 0.0
H339 H 0.79259 0.56349 0.74304 0.0
H340 H 0.823 0.59402 0.67847 0.0
C341 C 0.61266 0.51695 0.67868 0.0
C342 C 0.63467 0.04436 0.58874 0.0
C343 C 0.70565 0.0995 0.57265 0.0
H344 H 0.58364 0.99244 0.63766 0.0
C345 C 0.78302 0.14349 0.59311 0.0
H346 H 0.57457 1.00962 0.57331 0.0
C347 C 0.78769 0.1341 0.63003 0.0
C348 C 0.71579 0.07978 0.64638 0.0
H349 H 0.83851 0.18635 0.58114 0.0
H350 H 0.84644 0.1699 0.64614 0.0
C351 C 0.63995 0.03429 0.62528 0.0
C352 C 0.58185 0.42292 0.94211 0.0
C353 C 0.66776 0.47866 0.93819 0.0
H354 H 0.48999 0.34557 0.9756 0.0
C355 C 0.72902 0.49711 0.96476 0.0
H356 H 0.53302 0.40807 0.92235 0.0
C357 C 0.70389 0.46145 -0.00447 0.0
C358 C 0.61763 0.40635 -0.00045 0.0
H359 H 0.7956 0.53994 0.96237 0.0
H360 H 0.75093 0.47826 0.01699 0.0
C361 C 0.55718 0.38671 0.97228 0.0
C362 C 0.26115 0.67401 0.27787 0.0
C363 C 0.26176 0.63086 0.26006 0.0
H364 H 0.26299 0.71409 0.32948 0.0
C365 C 0.25915 0.5913 0.28141 0.0
H366 H 0.2631 0.70505 0.26206 0.0
C367 C 0.2605 0.5971 0.32007 0.0
C368 C 0.26418 0.64246 0.33807 0.0
H369 H 0.25923 0.55741 0.26828 0.0
H370 H 0.26286 0.56816 0.33581 0.0
C371 C 0.26183 0.6795 0.31649 0.0
loop_
_geom_bond_atom_site_label_1
_geom_bond_atom_site_label_2
_geom_bond_distance
_geom_bond_site_symmetry_2
_ccdc_geom_bond_type
La0 C2 2.928 . S
La0 O20 2.521 . S
La0 O21 2.628 . S
La0 O22 2.554 . S
La0 O23 2.757 . S
La0 O24 2.470 . S
La0 O29 2.482 . S
La0 O31 2.503 1_455 S
La1 C11 2.928 1_455 S
La1 O23 2.482 . S
La1 O25 2.503 . S
La1 O26 2.521 1_455 S
La1 O27 2.628 1_455 S
La1 O28 2.554 . S
La1 O29 2.757 . S
La1 O30 2.470 1_455 S
C2 La0 2.928 . S
C2 C3 1.503 . S
C2 O20 1.261 . S
C2 O21 1.243 . S
C3 C2 1.503 . S
C3 C4 1.394 . S
C3 C8 1.373 . S
C4 C3 1.394 . S
C4 C5 1.380 . S
C4 H32 0.930 . S
C5 C4 1.380 . S
C5 C6 1.376 . S
C5 H33 0.930 . S
C6 C5 1.376 . S
C6 C7 1.370 . S
C7 C6 1.370 . S
C7 C8 1.396 . S
C7 H34 0.929 . S
C8 C3 1.373 . S
C8 C7 1.396 . S
C8 H35 0.929 . S
C9 O22 1.240 . S
C9 O23 1.289 . S
C10 O24 1.258 . S
C10 O25 1.256 . S
C11 La1 2.928 1_655 S
C11 C12 1.503 . S
C11 O26 1.261 . S
C11 O27 1.243 . S
C12 C11 1.503 . S
C12 C13 1.394 . S
C12 C17 1.373 . S
C13 C12 1.394 . S
C13 C14 1.380 . S
C13 H36 0.930 . S
C14 C13 1.380 . S
C14 C15 1.376 . S
C14 H37 0.930 . S
C15 C14 1.376 . S
C15 C16 1.370 . S
C16 C15 1.370 . S
C16 C17 1.396 . S
C16 H38 0.929 . S
C17 C12 1.373 . S
C17 C16 1.396 . S
C17 H39 0.929 . S
C18 O28 1.240 . S
C18 O29 1.289 . S
C19 O30 1.258 . S
C19 O31 1.256 . S
O20 La0 2.521 . S
O20 C2 1.261 . S
O21 La0 2.628 . S
O21 C2 1.243 . S
O22 La0 2.554 . S
O22 C9 1.240 . S
O23 La0 2.757 . S
O23 La1 2.482 . S
O23 C9 1.289 . S
O24 La0 2.470 . S
O24 C10 1.258 . S
O25 La1 2.503 . S
O25 C10 1.256 . S
O26 La1 2.521 1_655 S
O26 C11 1.261 . S
O27 La1 2.628 1_655 S
O27 C11 1.243 . S
O28 La1 2.554 . S
O28 C18 1.240 . S
O29 La0 2.482 . S
O29 La1 2.757 . S
O29 C18 1.289 . S
O30 La1 2.470 1_655 S
O30 C19 1.258 . S
O31 La0 2.503 1_655 S
O31 C19 1.256 . S
H32 C4 0.930 . S
H33 C5 0.930 . S
H34 C7 0.929 . S
H35 C8 0.929 . S
H36 C13 0.930 . S
H37 C14 0.930 . S
H38 C16 0.929 . S
H39 C17 0.929 . S
La40 C42 2.928 1_545 S
La40 O60 2.521 1_545 S
La40 O61 2.628 1_545 S
La40 O62 2.549 . S
La40 O63 2.757 . S
La40 O64 2.470 1_545 S
La40 O69 2.482 . S
La40 O71 2.503 . S
La41 C51 2.928 . S
La41 O63 2.482 . S
La41 O65 2.503 1_545 S
La41 O66 2.521 . S
La41 O67 2.628 . S
La41 O68 2.554 . S
La41 O69 2.757 . S
La41 O70 2.470 . S
C42 La40 2.928 1_565 S
C42 C43 1.503 . S
C42 O60 1.261 . S
C42 O61 1.243 . S
C43 C42 1.503 . S
C43 C44 1.394 . S
C43 C48 1.373 . S
C44 C43 1.394 . S
C44 C45 1.380 . S
C44 H72 0.930 . S
C45 C44 1.380 . S
C45 C46 1.376 . S
C45 H73 0.930 . S
C46 C45 1.376 . S
C46 C47 1.370 . S
C47 C46 1.370 . S
C47 C48 1.396 . S
C47 H74 0.929 . S
C48 C43 1.373 . S
C48 C47 1.396 . S
C48 H75 0.929 . S
C49 O62 1.260 . S
C49 O63 1.289 . S
C50 O64 1.258 . S
C50 O65 1.256 . S
C51 La41 2.928 . S
C51 C52 1.503 . S
C51 O66 1.261 . S
C51 O67 1.243 . S
C52 C51 1.503 . S
C52 C53 1.394 . S
C52 C57 1.373 . S
C53 C52 1.394 . S
C53 C54 1.380 . S
C53 H76 0.930 . S
C54 C53 1.380 . S
C54 C55 1.376 . S
C54 H77 0.930 . S
C55 C54 1.376 . S
C55 C56 1.370 . S
C56 C55 1.370 . S
C56 C57 1.396 . S
C56 H78 0.929 . S
C57 C52 1.373 . S
C57 C56 1.396 . S
C57 H79 0.929 . S
C58 O68 1.240 . S
C58 O69 1.289 . S
C59 O70 1.258 . S
C59 O71 1.256 . S
O60 La40 2.521 1_565 S
O60 C42 1.261 . S
O61 La40 2.628 1_565 S
O61 C42 1.243 . S
O62 La40 2.549 . S
O62 C49 1.260 . S
O63 La40 2.757 . S
O63 La41 2.482 . S
O63 C49 1.289 . S
O64 La40 2.470 1_565 S
O64 C50 1.258 . S
O65 La41 2.503 1_565 S
O65 C50 1.256 . S
O66 La41 2.521 . S
O66 C51 1.261 . S
O67 La41 2.628 . S
O67 C51 1.243 . S
O68 La41 2.554 . S
O68 C58 1.240 . S
O69 La40 2.482 . S
O69 La41 2.757 . S
O69 C58 1.289 . S
O70 La41 2.470 . S
O70 C59 1.258 . S
O71 La40 2.503 . S
O71 C59 1.256 . S
H72 C44 0.930 . S
H73 C45 0.930 . S
H74 C47 0.929 . S
H75 C48 0.929 . S
H76 C53 0.930 . S
H77 C54 0.930 . S
H78 C56 0.929 . S
H79 C57 0.929 . S
La80 C82 2.928 . S
La80 O100 2.521 . S
La80 O101 2.628 . S
La80 O102 2.554 . S
La80 O103 2.757 . S
La80 O104 2.470 . S
La80 O109 2.482 . S
La80 O111 2.503 . S
La81 C91 2.928 . S
La81 O103 2.482 . S
La81 O105 2.503 . S
La81 O106 2.521 . S
La81 O107 2.628 . S
La81 O108 2.554 . S
La81 O109 2.757 . S
La81 O110 2.470 . S
C82 La80 2.928 . S
C82 C83 1.503 . S
C82 O100 1.261 . S
C82 O101 1.243 . S
C83 C82 1.503 . S
C83 C84 1.394 . S
C83 C88 1.373 . S
C84 C83 1.394 . S
C84 C85 1.380 . S
C84 H112 0.930 . S
C85 C84 1.380 . S
C85 C86 1.376 . S
C85 H113 0.930 . S
C86 C85 1.376 . S
C86 C87 1.370 . S
C87 C86 1.370 . S
C87 C88 1.396 . S
C87 H114 0.929 . S
C88 C83 1.373 . S
C88 C87 1.396 . S
C88 H115 0.929 . S
C89 O102 1.240 . S
C89 O103 1.289 . S
C90 O104 1.258 . S
C90 O105 1.256 . S
C91 La81 2.928 . S
C91 C92 1.503 . S
C91 O106 1.261 . S
C91 O107 1.243 . S
C92 C91 1.503 . S
C92 C93 1.394 . S
C92 C97 1.373 . S
C93 C92 1.394 . S
C93 C94 1.380 . S
C93 H116 0.930 . S
C94 C93 1.380 . S
C94 C95 1.376 . S
C94 H117 0.930 . S
C95 C94 1.376 . S
C95 C96 1.370 . S
C96 C95 1.370 . S
C96 C97 1.396 . S
C96 H118 0.929 . S
C97 C92 1.373 . S
C97 C96 1.396 . S
C97 H119 0.929 . S
C98 O108 1.240 . S
C98 O109 1.289 . S
C99 O110 1.258 . S
C99 O111 1.256 . S
O100 La80 2.521 . S
O100 C82 1.261 . S
O101 La80 2.628 . S
O101 C82 1.243 . S
O102 La80 2.554 . S
O102 C89 1.240 . S
O103 La80 2.757 . S
O103 La81 2.482 . S
O103 C89 1.289 . S
O104 La80 2.470 . S
O104 C90 1.258 . S
O105 La81 2.503 . S
O105 C90 1.256 . S
O106 La81 2.521 . S
O106 C91 1.261 . S
O107 La81 2.628 . S
O107 C91 1.243 . S
O108 La81 2.554 . S
O108 C98 1.240 . S
O109 La80 2.482 . S
O109 La81 2.757 . S
O109 C98 1.289 . S
O110 La81 2.470 . S
O110 C99 1.258 . S
O111 La80 2.503 . S
O111 C99 1.256 . S
H112 C84 0.930 . S
H113 C85 0.930 . S
H114 C87 0.929 . S
H115 C88 0.929 . S
H116 C93 0.930 . S
H117 C94 0.930 . S
H118 C96 0.929 . S
H119 C97 0.929 . S
H120 C125 0.930 . S
H121 C128 0.930 . S
H122 C130 0.930 . S
H123 C124 1.016 . S
C124 H123 1.016 . S
C124 N131 1.286 . S
C125 H120 0.930 . S
C125 C126 1.397 1_545 S
C125 C127 1.361 . S
C126 C125 1.397 1_565 S
C126 C130 1.390 . S
C127 C125 1.361 . S
C127 C128 1.393 . S
C127 N131 1.413 . S
C128 H121 0.930 . S
C128 C127 1.393 . S
C128 C129 1.399 . S
C129 C128 1.399 . S
C129 C130 1.381 1_545 S
C130 H122 0.930 . S
C130 C126 1.390 . S
C130 C129 1.381 1_565 S
N131 C124 1.286 . S
N131 C127 1.413 . S
H132 C137 0.930 . S
H133 C140 0.930 . S
H134 C142 0.930 . S
H135 C136 1.016 . S
C136 H135 1.016 . S
C136 N143 1.286 . S
C137 H132 0.930 . S
C137 C138 1.397 . S
C137 C139 1.361 . S
C138 C137 1.397 . S
C138 C142 1.390 . S
C139 C137 1.361 . S
C139 C140 1.393 . S
C139 N143 1.413 . S
C140 H133 0.930 . S
C140 C139 1.393 . S
C140 C141 1.399 . S
C141 C140 1.399 . S
C141 C142 1.381 . S
C142 H134 0.930 . S
C142 C138 1.390 . S
C142 C141 1.381 . S
N143 C136 1.286 . S
N143 C139 1.413 . S
H144 C149 0.930 1_655 S
H145 C152 0.930 . S
H146 C154 0.930 . S
H147 C148 1.016 . S
C148 H147 1.016 . S
C148 N155 1.286 . S
C149 H144 0.930 1_455 S
C149 C150 1.397 1_455 S
C149 C151 1.361 . S
C150 C149 1.397 1_655 S
C150 C154 1.390 . S
C151 C149 1.361 . S
C151 C152 1.393 . S
C151 N155 1.413 . S
C152 H145 0.930 . S
C152 C151 1.393 . S
C152 C153 1.399 . S
C153 C152 1.399 . S
C153 C154 1.381 1_455 S
C154 H146 0.930 . S
C154 C150 1.390 . S
C154 C153 1.381 1_655 S
N155 C148 1.286 . S
N155 C151 1.413 . S
H156 C161 0.930 . S
H157 C164 0.930 . S
H158 C166 0.930 . S
H159 C160 1.016 . S
C160 H159 1.016 . S
C160 N167 1.286 . S
C161 H156 0.930 . S
C161 C162 1.397 . S
C161 C163 1.361 1_455 S
C162 C161 1.397 . S
C162 C166 1.390 . S
C163 C161 1.361 1_655 S
C163 C164 1.393 . S
C163 N167 1.413 . S
C164 H157 0.930 . S
C164 C163 1.393 . S
C164 C165 1.399 1_655 S
C165 C164 1.399 1_455 S
C165 C166 1.381 . S
C166 H158 0.930 . S
C166 C162 1.390 . S
C166 C165 1.381 . S
N167 C160 1.286 . S
N167 C163 1.413 . S
H168 C173 0.930 . S
H169 C176 0.930 1_565 S
H170 C178 0.930 . S
H171 C172 1.016 . S
C172 H171 1.016 . S
C172 N179 1.286 . S
C173 H168 0.930 . S
C173 C174 1.397 . S
C173 C175 1.361 . S
C174 C173 1.397 . S
C174 C178 1.390 . S
C175 C173 1.361 . S
C175 C176 1.393 . S
C175 N179 1.413 1_545 S
C176 H169 0.930 1_545 S
C176 C175 1.393 . S
C176 C177 1.399 . S
C177 C176 1.399 . S
C177 C178 1.381 . S
C178 H170 0.930 . S
C178 C174 1.390 . S
C178 C177 1.381 . S
N179 C172 1.286 . S
N179 C175 1.413 1_565 S
H180 C185 0.930 . S
H181 C188 0.930 . S
H182 C190 0.930 . S
H183 C184 1.016 . S
C184 H183 1.016 . S
C184 N191 1.286 . S
C185 H180 0.930 . S
C185 C186 1.397 . S
C185 C187 1.361 . S
C186 C185 1.397 . S
C186 C190 1.390 . S
C187 C185 1.361 . S
C187 C188 1.393 . S
C187 N191 1.413 . S
C188 H181 0.930 . S
C188 C187 1.393 . S
C188 C189 1.399 . S
C189 C188 1.399 . S
C189 C190 1.381 . S
C190 H182 0.930 . S
C190 C186 1.390 . S
C190 C189 1.381 . S
N191 C184 1.286 . S
N191 C187 1.413 . S
C192 C193 1.387 . S
C192 H196 0.950 . S
C192 C201 1.390 . S
C193 C192 1.387 . S
C193 C195 1.387 . S
H194 C201 0.950 . S
C195 C193 1.387 . S
C195 C197 1.390 . S
C195 H199 0.950 . S
H196 C192 0.950 . S
C197 C195 1.390 . S
C197 C198 1.387 . S
C197 H200 0.950 . S
C198 C197 1.387 . S
C198 C201 1.387 . S
H199 C195 0.950 . S
H200 C197 0.950 . S
C201 C192 1.390 . S
C201 H194 0.950 . S
C201 C198 1.387 . S
C202 C203 1.387 . S
C202 H206 0.950 . S
C202 C211 1.390 . S
C203 C202 1.387 . S
C203 C205 1.387 . S
H204 C211 0.950 . S
C205 C203 1.387 . S
C205 C207 1.390 . S
C205 H209 0.950 . S
H206 C202 0.950 . S
C207 C205 1.390 . S
C207 C208 1.387 . S
C207 H210 0.950 . S
C208 C207 1.387 . S
C208 C211 1.387 . S
H209 C205 0.950 . S
H210 C207 0.950 . S
C211 C202 1.390 . S
C211 H204 0.950 . S
C211 C208 1.387 . S
C212 C213 1.387 . S
C212 H216 0.950 . S
C212 C221 1.390 . S
C213 C212 1.387 . S
C213 C215 1.387 . S
H214 C221 0.950 . S
C215 C213 1.387 . S
C215 C217 1.390 . S
C215 H219 0.950 . S
H216 C212 0.950 . S
C217 C215 1.390 . S
C217 C218 1.387 . S
C217 H220 0.950 . S
C218 C217 1.387 . S
C218 C221 1.387 . S
H219 C215 0.950 . S
H220 C217 0.950 . S
C221 C212 1.390 . S
C221 H214 0.950 . S
C221 C218 1.387 . S
C222 C223 1.387 . S
C222 H226 0.950 . S
C222 C231 1.390 . S
C223 C222 1.387 . S
C223 C225 1.387 . S
H224 C231 0.950 . S
C225 C223 1.387 . S
C225 C227 1.390 . S
C225 H229 0.950 . S
H226 C222 0.950 . S
C227 C225 1.390 . S
C227 C228 1.387 . S
C227 H230 0.950 . S
C228 C227 1.387 . S
C228 C231 1.387 . S
H229 C225 0.950 . S
H230 C227 0.950 . S
C231 C222 1.390 . S
C231 H224 0.950 . S
C231 C228 1.387 . S
C232 C233 1.387 . S
C232 H236 0.950 . S
C232 C241 1.390 . S
C233 C232 1.387 . S
C233 C235 1.387 . S
H234 C241 0.950 . S
C235 C233 1.387 . S
C235 C237 1.390 . S
C235 H239 0.950 . S
H236 C232 0.950 . S
C237 C235 1.390 . S
C237 C238 1.387 . S
C237 H240 0.950 . S
C238 C237 1.387 . S
C238 C241 1.387 . S
H239 C235 0.950 . S
H240 C237 0.950 . S
C241 C232 1.390 . S
C241 H234 0.950 . S
C241 C238 1.387 . S
C242 C243 1.387 . S
C242 H246 0.950 . S
C242 C251 1.390 . S
C243 C242 1.387 . S
C243 C245 1.387 . S
H244 C251 0.950 . S
C245 C243 1.387 . S
C245 C247 1.390 . S
C245 H249 0.950 . S
H246 C242 0.950 . S
C247 C245 1.390 . S
C247 C248 1.387 . S
C247 H250 0.950 . S
C248 C247 1.387 . S
C248 C251 1.387 . S
H249 C245 0.950 . S
H250 C247 0.950 . S
C251 C242 1.390 . S
C251 H244 0.950 . S
C251 C248 1.387 . S
C252 C253 1.387 . S
C252 H256 0.950 . S
C252 C261 1.390 . S
C253 C252 1.387 . S
C253 C255 1.387 . S
H254 C261 0.950 . S
C255 C253 1.387 . S
C255 C257 1.390 . S
C255 H259 0.950 . S
H256 C252 0.950 . S
C257 C255 1.390 . S
C257 C258 1.387 . S
C257 H260 0.950 . S
C258 C257 1.387 . S
C258 C261 1.387 . S
H259 C255 0.950 . S
H260 C257 0.950 . S
C261 C252 1.390 . S
C261 H254 0.950 . S
C261 C258 1.387 . S
C262 C263 1.387 . S
C262 H266 0.950 . S
C262 C271 1.390 . S
C263 C262 1.387 . S
C263 C265 1.387 . S
H264 C271 0.950 . S
C265 C263 1.387 . S
C265 C267 1.390 . S
C265 H269 0.950 . S
H266 C262 0.950 . S
C267 C265 1.390 . S
C267 C268 1.387 . S
C267 H270 0.950 . S
C268 C267 1.387 . S
C268 C271 1.387 . S
H269 C265 0.950 . S
H270 C267 0.950 . S
C271 C262 1.390 . S
C271 H264 0.950 . S
C271 C268 1.387 . S
C272 C273 1.387 . S
C272 H276 0.950 . S
C272 C281 1.390 . S
C273 C272 1.387 . S
C273 C275 1.387 . S
H274 C281 0.950 . S
C275 C273 1.387 . S
C275 C277 1.390 . S
C275 H279 0.950 . S
H276 C272 0.950 . S
C277 C275 1.390 . S
C277 C278 1.387 . S
C277 H280 0.950 . S
C278 C277 1.387 . S
C278 C281 1.387 . S
H279 C275 0.950 . S
H280 C277 0.950 . S
C281 C272 1.390 . S
C281 H274 0.950 . S
C281 C278 1.387 . S
C282 C283 1.387 . S
C282 H286 0.950 . S
C282 C291 1.390 . S
C283 C282 1.387 . S
C283 C285 1.387 . S
H284 C291 0.950 . S
C285 C283 1.387 . S
C285 C287 1.390 . S
C285 H289 0.950 . S
H286 C282 0.950 . S
C287 C285 1.390 . S
C287 C288 1.387 . S
C287 H290 0.950 . S
C288 C287 1.387 . S
C288 C291 1.387 . S
H289 C285 0.950 . S
H290 C287 0.950 . S
C291 C282 1.390 . S
C291 H284 0.950 . S
C291 C288 1.387 . S
C292 C293 1.387 . S
C292 H296 0.950 . S
C292 C301 1.390 . S
C293 C292 1.387 . S
C293 C295 1.387 . S
H294 C301 0.950 . S
C295 C293 1.387 . S
C295 C297 1.390 . S
C295 H299 0.950 . S
H296 C292 0.950 . S
C297 C295 1.390 . S
C297 C298 1.387 . S
C297 H300 0.950 . S
C298 C297 1.387 . S
C298 C301 1.387 . S
H299 C295 0.950 . S
H300 C297 0.950 . S
C301 C292 1.390 . S
C301 H294 0.950 . S
C301 C298 1.387 . S
C302 C303 1.387 . S
C302 H306 0.950 . S
C302 C311 1.390 . S
C303 C302 1.387 . S
C303 C305 1.387 . S
H304 C311 0.950 . S
C305 C303 1.387 . S
C305 C307 1.390 . S
C305 H309 0.950 . S
H306 C302 0.950 . S
C307 C305 1.390 . S
C307 C308 1.387 . S
C307 H310 0.950 . S
C308 C307 1.387 . S
C308 C311 1.387 . S
H309 C305 0.950 . S
H310 C307 0.950 . S
C311 C302 1.390 . S
C311 H304 0.950 . S
C311 C308 1.387 . S
C312 C313 1.387 . S
C312 H316 0.952 1_455 S
C312 C321 1.390 1_554 S
C313 C312 1.387 . S
C313 C315 1.387 . S
H314 C321 0.950 1_655 S
C315 C313 1.387 . S
C315 C317 1.390 . S
C315 H319 0.950 . S
H316 C312 0.952 1_655 S
C317 C315 1.390 . S
C317 C318 1.387 1_554 S
C317 H320 0.950 1_554 S
C318 C317 1.387 1_556 S
C318 C321 1.387 . S
H319 C315 0.950 . S
H320 C317 0.950 1_556 S
C321 C312 1.390 1_556 S
C321 H314 0.950 1_455 S
C321 C318 1.387 . S
C322 C323 1.387 1_565 S
C322 H326 0.950 . S
C322 C331 1.390 . S
C323 C322 1.387 1_545 S
C323 C325 1.387 . S
H324 C331 0.950 . S
C325 C323 1.387 . S
C325 C327 1.390 . S
C325 H329 0.950 . S
H326 C322 0.950 . S
C327 C325 1.390 . S
C327 C328 1.387 . S
C327 H330 0.950 . S
C328 C327 1.387 . S
C328 C331 1.387 1_545 S
H329 C325 0.950 . S
H330 C327 0.950 . S
C331 C322 1.390 . S
C331 H324 0.950 . S
C331 C328 1.387 1_565 S
C332 C333 1.387 . S
C332 H336 0.950 . S
C332 C341 1.390 . S
C333 C332 1.387 . S
C333 C335 1.387 . S
H334 C341 0.950 . S
C335 C333 1.387 . S
C335 C337 1.390 . S
C335 H339 0.950 . S
H336 C332 0.950 . S
C337 C335 1.390 . S
C337 C338 1.387 . S
C337 H340 0.950 . S
C338 C337 1.387 . S
C338 C341 1.387 . S
H339 C335 0.950 . S
H340 C337 0.950 . S
C341 C332 1.390 . S
C341 H334 0.950 . S
C341 C338 1.387 . S
C342 C343 1.387 1_565 S
C342 H346 0.950 . S
C342 C351 1.390 . S
C343 C342 1.387 1_545 S
C343 C345 1.387 . S
H344 C351 0.950 . S
C345 C343 1.387 . S
C345 C347 1.390 . S
C345 H349 0.950 . S
H346 C342 0.950 . S
C347 C345 1.390 . S
C347 C348 1.387 . S
C347 H350 0.950 . S
C348 C347 1.387 . S
C348 C351 1.387 1_545 S
H349 C345 0.950 . S
H350 C347 0.950 . S
C351 C342 1.390 . S
C351 H344 0.950 . S
C351 C348 1.387 1_565 S
C352 C353 1.387 . S
C352 H356 0.950 . S
C352 C361 1.390 . S
C353 C352 1.387 . S
C353 C355 1.387 . S
H354 C361 0.950 1_554 S
C355 C353 1.387 . S
C355 C357 1.390 1_556 S
C355 H359 0.950 . S
H356 C352 0.950 . S
C357 C355 1.390 1_554 S
C357 C358 1.387 . S
C357 H360 0.950 . S
C358 C357 1.387 . S
C358 C361 1.387 1_554 S
H359 C355 0.950 . S
H360 C357 0.950 . S
C361 C352 1.390 . S
C361 H354 0.950 1_556 S
C361 C358 1.387 1_556 S
C362 C363 1.387 . S
C362 H366 0.950 . S
C362 C371 1.390 . S
C363 C362 1.387 . S
C363 C365 1.387 . S
H364 C371 0.950 . S
C365 C363 1.387 . S
C365 C367 1.389 1_455 S
C365 H369 0.950 1_455 S
H366 C362 0.950 . S
C367 C365 1.389 1_655 S
C367 C368 1.389 1_655 S
C367 H370 0.950 . S
C368 C367 1.389 1_455 S
C368 C371 1.387 . S
H369 C365 0.950 1_655 S
H370 C367 0.950 . S
C371 C362 1.390 . S
C371 H364 0.950 . S
C371 C368 1.387 . S
C193 C6 1.165 . S
C198 C186 1.285 . S
C203 C59 1.964 . S
C208 C160 1.896 . S
C213 C86 1.390 . S
C218 C172 1.441 . S
C223 C15 0.640 . S
C228 C184 0.493 . S
C238 C162 1.872 . S
C233 C50 1.911 . S
C248 C174 1.297 . S
C243 C95 1.264 . S
C253 C46 1.364 . S
C258 C136 1.393 . S
C263 C99 3.344 . S
C268 C150 3.324 . S
C273 C10 1.930 . S
C278 C126 1.925 . S
C288 C138 1.275 . S
C283 C55 1.239 . S
C298 C148 2.832 . S
C293 C90 2.942 . S
C303 C19 1.974 . S
C308 C124 1.928 . S
C318 C153 1.826 . S
C313 C18 1.716 . S
C323 C49 1.378 . S
C328 C129 1.457 . S
C333 C98 1.501 . S
C338 C141 1.525 . S
C348 C177 1.513 . S
C343 C58 1.501 . S
C358 C189 1.173 . S
C353 C89 1.151 . S
C363 C9 1.380 . S
C368 C165 1.420 . S
