# Generated by pormake.
# Topology anh, (6,3)-cn, num edge types: 1
# Building blocks:
#     Node 0, Type 0, BuildingBlock: BETDIP_clean_sbu_0, # of connection points: 6
#     Node 1, Type 0, BuildingBlock: BETDIP_clean_sbu_0, # of connection points: 6
#     Node 2, Type 0, BuildingBlock: BETDIP_clean_sbu_0, # of connection points: 6
#     Node 3, Type 1, BuildingBlock: CUQRIR_clean_linker_1, # of connection points: 3
#     Node 4, Type 1, BuildingBlock: CUQRIR_clean_linker_1, # of connection points: 3
#     Node 5, Type 1, BuildingBlock: CUQRIR_clean_linker_1, # of connection points: 3
#     Node 6, Type 1, BuildingBlock: CUQRIR_clean_linker_1, # of connection points: 3
#     Node 7, Type 1, BuildingBlock: CUQRIR_clean_linker_1, # of connection points: 3
#     Node 8, Type 1, BuildingBlock: CUQRIR_clean_linker_1, # of connection points: 3
#     Edge 9, Type (0, 1), BuildingBlock: MIFKUJ_clean_linker_0, # of connection points: 2
#     Edge 10, Type (0, 1), BuildingBlock: MIFKUJ_clean_linker_0, # of connection points: 2
#     Edge 11, Type (0, 1), BuildingBlock: MIFKUJ_clean_linker_0, # of connection points: 2
#     Edge 12, Type (0, 1), BuildingBlock: MIFKUJ_clean_linker_0, # of connection points: 2
#     Edge 13, Type (0, 1), BuildingBlock: MIFKUJ_clean_linker_0, # of connection points: 2
#     Edge 14, Type (0, 1), BuildingBlock: MIFKUJ_clean_linker_0, # of connection points: 2
#     Edge 15, Type (0, 1), BuildingBlock: MIFKUJ_clean_linker_0, # of connection points: 2
#     Edge 16, Type (0, 1), BuildingBlock: MIFKUJ_clean_linker_0, # of connection points: 2
#     Edge 17, Type (0, 1), BuildingBlock: MIFKUJ_clean_linker_0, # of connection points: 2
#     Edge 18, Type (0, 1), BuildingBlock: MIFKUJ_clean_linker_0, # of connection points: 2
#     Edge 19, Type (0, 1), BuildingBlock: MIFKUJ_clean_linker_0, # of connection points: 2
#     Edge 20, Type (0, 1), BuildingBlock: MIFKUJ_clean_linker_0, # of connection points: 2
#     Edge 21, Type (0, 1), BuildingBlock: MIFKUJ_clean_linker_0, # of connection points: 2
#     Edge 22, Type (0, 1), BuildingBlock: MIFKUJ_clean_linker_0, # of connection points: 2
#     Edge 23, Type (0, 1), BuildingBlock: MIFKUJ_clean_linker_0, # of connection points: 2
#     Edge 24, Type (0, 1), BuildingBlock: MIFKUJ_clean_linker_0, # of connection points: 2
#     Edge 25, Type (0, 1), BuildingBlock: MIFKUJ_clean_linker_0, # of connection points: 2
#     Edge 26, Type (0, 1), BuildingBlock: MIFKUJ_clean_linker_0, # of connection points: 2
# Relax obj value: 0.221
# Max RMSD: 0.200
# Mean RMSD: 0.150
data_MOF--net-anh--node1-BETDIP_clean_sbu_0--node2-CUQRIR_clean_linker_1--edge1-MIFKUJ_clean_linker_0
_symmetry_space_group_name_H-M    P1
_symmetry_Int_Tables_number       1
_symmetry_cell_setting            triclinic
loop_
_symmetry_equiv_pos_as_xyz
'x, y, z'
_cell_length_a     36.679733
_cell_length_b     36.898991
_cell_length_c     61.49935
_cell_angle_alpha  84.361877
_cell_angle_beta   92.266461
_cell_angle_gamma 120.09837
loop_
_atom_site_label
_atom_site_type_symbol
_atom_site_fract_x
_atom_site_fract_y
_atom_site_fract_z
_atom_type_partial_charge
Tb0 Tb 0.1605 0.60654 0.16387 0.0
Tb1 Tb 0.11472 0.51496 0.15931 0.0
C2 C 0.20722 0.67675 0.1777 0.0
C3 C 0.24903 0.69563 0.18748 0.0
C4 C 0.26526 0.67055 0.19709 0.0
C5 C 0.30652 0.68932 0.2049 0.0
C6 C 0.332 0.73332 0.20294 0.0
C7 C 0.31531 0.75808 0.19338 0.0
C8 C 0.27424 0.73936 0.18568 0.0
C9 C 0.13422 0.58745 0.12417 0.0
C10 C 0.21513 0.56163 0.15935 0.0
C11 C 1.07706 0.44204 0.14766 0.0
C12 C 1.03117 0.41684 0.14546 0.0
C13 C 1.01333 0.39121 0.12819 0.0
C14 C 0.97049 0.37487 0.12338 0.0
C15 C 0.94571 0.38508 0.13546 0.0
C16 C 0.96335 0.40955 0.15308 0.0
C17 C 1.00559 0.4252 0.15806 0.0
C18 C 0.11561 0.53624 0.19938 0.0
C19 C 1.06136 0.56089 0.1591 0.0
O20 O 0.17653 0.64531 0.18943 0.0
O21 O 0.20661 0.66958 0.15723 0.0
O22 O 0.14852 0.56926 0.1373 0.0
O23 O 0.13826 0.62028 0.13236 0.0
O24 O 0.21483 0.59719 0.1606 0.0
O25 O 0.17936 0.52505 0.15943 0.0
O26 O 1.0942 0.47563 0.13387 0.0
O27 O 1.09115 0.45029 0.16755 0.0
O28 O 0.14582 0.55259 0.18586 0.0
O29 O 1.08338 0.50606 0.19067 0.0
O30 O 1.06421 0.52976 0.15179 0.0
O31 O 1.09464 0.59212 0.16794 0.0
H32 H 0.2462 0.63657 0.19839 0.0
H33 H 0.31859 0.66959 0.21227 0.0
H34 H 0.33383 0.79211 0.19215 0.0
H35 H 0.26223 0.75907 0.17817 0.0
H36 H 1.03278 0.38519 0.11799 0.0
H37 H 0.95705 0.35541 0.10992 0.0
H38 H 0.94443 0.41693 0.16291 0.0
H39 H 1.01862 0.44542 0.17123 0.0
Tb40 Tb 0.70176 0.0817 0.50559 0.0
Tb41 Tb 0.65481 0.12491 0.48874 0.0
C42 C 0.71993 1.03379 0.52902 0.0
C43 C 0.69848 0.98773 0.53211 0.0
C44 C 0.69728 0.96761 0.55281 0.0
C45 C 0.67519 0.92371 0.55614 0.0
C46 C 0.65452 0.89953 0.53865 0.0
C47 C 0.65535 0.91979 0.51798 0.0
C48 C 0.67686 0.96357 0.51477 0.0
C49 C 0.70415 0.09716 0.46316 0.0
C50 C 0.60061 1.02673 0.49396 0.0
C51 C 0.63781 0.17573 0.4673 0.0
C52 C 0.66765 0.21935 0.45892 0.0
C53 C 0.66358 0.23523 0.43782 0.0
C54 C 0.69409 0.27578 0.42953 0.0
C55 C 0.72963 0.3002 0.44198 0.0
C56 C 0.73364 0.28396 0.46296 0.0
C57 C 0.70282 0.24428 0.47142 0.0
C58 C 0.65413 0.10982 0.5317 0.0
C59 C 0.75652 0.1781 0.49372 0.0
O60 O 0.69893 1.05025 0.53631 0.0
O61 O 0.73677 1.05095 0.50966 0.0
O62 O 0.67317 0.08555 0.47565 0.0
O63 O 0.73512 0.09751 0.47429 0.0
O64 O 0.63522 1.0281 0.5028 0.0
O65 O 0.60146 1.06178 0.48579 0.0
O66 O 0.64159 0.14704 0.45837 0.0
O67 O 0.63395 0.16844 0.4886 0.0
O68 O 0.68503 0.12222 0.51894 0.0
O69 O 0.62243 0.10757 0.52051 0.0
O70 O 0.72222 0.17363 0.48342 0.0
O71 O 0.75468 0.14651 0.50695 0.0
H72 H 0.7136 0.98596 0.56631 0.0
H73 H 0.67533 0.90866 0.57216 0.0
H74 H 0.63951 0.90168 0.5043 0.0
H75 H 0.67665 0.97849 0.49873 0.0
H76 H 0.63688 0.21635 0.42784 0.0
H77 H 0.68991 0.28822 0.41355 0.0
H78 H 0.76001 0.30259 0.47321 0.0
H79 H 0.70675 0.23314 0.48781 0.0
Tb80 Tb 0.63416 0.59914 0.83903 0.0
Tb81 Tb 0.72279 0.64773 0.82146 0.0
C82 C 0.57292 0.57355 0.8647 0.0
C83 C 0.5502 0.59132 0.87464 0.0
C84 C 0.53463 0.61423 0.86195 0.0
C85 C 0.51027 0.62775 0.87165 0.0
C86 C 0.50134 0.61889 0.89424 0.0
C87 C 0.51903 0.59801 0.90704 0.0
C88 C 0.5431 0.58422 0.8973 0.0
C89 C 0.63978 0.60149 0.79666 0.0
C90 C 0.67866 0.70094 0.82674 0.0
C91 C 0.78919 0.67282 0.7999 0.0
C92 C 0.80227 0.65049 0.7864 0.0
C93 C 0.77289 0.61895 0.77374 0.0
C94 C 0.78371 0.5929 0.76407 0.0
C95 C 0.82381 0.59722 0.76737 0.0
C96 C 0.85391 0.63065 0.77892 0.0
C97 C 0.84323 0.6571 0.78825 0.0
C98 C 0.71447 0.64122 0.86443 0.0
C99 C 0.6741 0.54565 0.82676 0.0
O100 O 0.61168 0.58727 0.8712 0.0
O101 O 0.56884 0.57002 0.84362 0.0
O102 O 0.66249 0.63087 0.80841 0.0
O103 O 0.60993 0.57022 0.80849 0.0
O104 O 0.64724 0.6658 0.83677 0.0
O105 O 0.71124 0.70077 0.8182 0.0
O106 O 0.75774 0.6775 0.79259 0.0
O107 O 0.78545 0.6608 0.82082 0.0
O108 O 0.69391 0.61328 0.85167 0.0
O109 O 0.74269 0.6747 0.85316 0.0
O110 O 0.704 0.58149 0.81665 0.0
O111 O 0.64499 0.54556 0.83903 0.0
H112 H 0.54013 0.62061 0.84445 0.0
H113 H 0.49667 0.64321 0.86122 0.0
H114 H 0.5132 0.59118 0.9245 0.0
H115 H 0.55533 0.56706 0.90741 0.0
H116 H 0.74086 0.61282 0.77228 0.0
H117 H 0.75988 0.56789 0.75509 0.0
H118 H 0.88486 0.63464 0.78222 0.0
H119 H 0.86623 0.68106 0.79807 0.0
C120 C 0.56835 0.12717 0.24027 0.0
N121 N 0.59579 0.16716 0.2447 0.0
N122 N 0.55449 0.10122 0.25886 0.0
C123 C 0.56009 0.11215 0.21774 0.0
C124 C 0.57359 0.12714 0.27482 0.0
N125 N 0.59898 0.16729 0.26629 0.0
C126 C 0.5732 0.11184 0.29852 0.0
H127 H 0.52728 0.0858 0.2167 0.0
H128 H 0.58169 0.10041 0.21442 0.0
H129 H 0.56537 0.13799 0.20509 0.0
H130 H 0.60452 0.11563 0.30287 0.0
H131 H 0.54865 0.07833 0.30193 0.0
H132 H 0.56701 0.13092 0.30907 0.0
C133 C 0.73049 0.57814 0.54239 0.0
N134 N 0.71532 0.58196 0.56113 0.0
N135 N 0.75964 0.56617 0.54668 0.0
C136 C 0.71967 0.58987 0.5199 0.0
C137 C 0.76197 0.5634 0.56881 0.0
N138 N 0.73518 0.57338 0.57755 0.0
C139 C 0.78801 0.54822 0.58186 0.0
H140 H 0.69074 0.56242 0.51432 0.0
H141 H 0.74557 0.59917 0.50804 0.0
H142 H 0.71329 0.61621 0.52015 0.0
H143 H 0.81996 0.57541 0.58395 0.0
H144 H 0.7912 0.5249 0.57323 0.0
H145 H 0.77384 0.53391 0.59829 0.0
C146 C 1.07431 0.48004 0.87042 0.0
N147 N 1.09 0.49506 0.88983 0.0
N148 N 1.03174 0.4614 0.87056 0.0
C149 C 1.10064 0.48299 0.85146 0.0
C150 C 1.02221 0.46574 0.89092 0.0
N151 N 1.05773 0.48604 0.90265 0.0
C152 C 0.97902 0.45497 0.89832 0.0
H153 H 1.08172 0.45823 0.84036 0.0
H154 H 0.12802 0.47995 0.85742 0.0
H155 H 0.11295 0.51425 0.84215 0.0
H156 H 0.96055 0.42076 0.90337 0.0
H157 H 0.96215 0.46222 0.88476 0.0
H158 H 0.98059 0.47242 0.91235 0.0
C159 C 0.1787 0.60391 0.46209 0.0
N160 N 0.15369 0.57552 0.4477 0.0
N161 N 0.21461 0.636 0.45216 0.0
C162 C 0.16857 0.59989 0.48589 0.0
C163 C 0.21046 0.62605 0.43123 0.0
N164 N 0.17408 0.58938 0.4285 0.0
C165 C 0.24141 0.65347 0.41319 0.0
H166 H 0.14636 0.61153 0.48779 0.0
H167 H 0.19743 0.61877 0.4953 0.0
H168 H 0.15303 0.56641 0.49256 0.0
H169 H 0.26353 0.64183 0.41099 0.0
H170 H 0.26017 0.68662 0.41714 0.0
H171 H 0.22487 0.65239 0.39755 0.0
C172 C 0.66662 0.12183 0.7979 0.0
N173 N 0.66391 0.09399 0.78371 0.0
N174 N 0.66503 0.15534 0.78713 0.0
C175 C 0.67039 0.11638 0.82224 0.0
C176 C 0.66074 0.14653 0.766 0.0
N177 N 0.65996 0.10988 0.76388 0.0
C178 C 0.65753 0.17401 0.7471 0.0
H179 H 0.65359 0.08255 0.82826 0.0
H180 H 0.65759 0.13294 0.83062 0.0
H181 H 0.70419 0.13014 0.82644 0.0
H182 H 0.68766 0.19022 0.73773 0.0
H183 H 0.65076 0.19781 0.75253 0.0
H184 H 0.63218 0.15458 0.73594 0.0
C185 C 0.64525 0.57566 0.13014 0.0
N186 N 0.67129 0.57348 0.11563 0.0
N187 N 0.61033 0.57344 0.12004 0.0
C188 C 0.65479 0.5813 0.15393 0.0
C189 C 0.61613 0.56931 0.09896 0.0
N190 N 0.6527 0.56935 0.09626 0.0
C191 C 0.58621 0.5659 0.08072 0.0
H192 H 0.66643 0.56008 0.16084 0.0
H193 H 0.62688 0.57526 0.16336 0.0
H194 H 0.68022 0.61411 0.15561 0.0
H195 H 0.59744 0.59755 0.07203 0.0
H196 H 0.55377 0.55358 0.08699 0.0
H197 H 0.58512 0.54481 0.06877 0.0
H198 H 0.23064 0.49653 0.15491 0.0
H199 H 0.29856 0.49998 0.15075 0.0
H200 H 0.36293 0.63422 0.15388 0.0
H201 H 0.29537 0.63086 0.15852 0.0
H202 H 0.35967 0.53636 0.12054 0.0
H203 H 0.46165 0.67058 0.17321 0.0
H204 H 0.45328 0.70466 0.20372 0.0
H205 H 0.34728 0.58728 0.2282 0.0
H206 H 0.35526 0.55242 0.19795 0.0
H207 H 0.5862 0.63006 0.10589 0.0
H208 H 0.52083 0.62858 0.11507 0.0
H209 H 0.48912 0.52294 0.16247 0.0
H210 H 0.5538 0.52319 0.15251 0.0
H211 H 0.47709 0.6054 0.17218 0.0
H212 H 0.43763 0.48689 0.12746 0.0
H213 H 0.44966 0.46024 0.09481 0.0
H214 H 0.43247 0.5512 0.05349 0.0
H215 H 0.42103 0.57882 0.08597 0.0
C216 C 0.2592 0.52683 0.15488 0.0
C217 C 0.25695 0.56333 0.15721 0.0
C218 C 0.2983 0.52881 0.15237 0.0
C219 C 0.33665 0.56729 0.15223 0.0
C220 C 0.33439 0.60384 0.15435 0.0
C221 C 0.29535 0.60188 0.15691 0.0
C222 C 0.37861 0.56909 0.14973 0.0
C223 C 0.38498 0.5512 0.13204 0.0
C224 C 0.41273 0.589 0.16432 0.0
C225 C 0.40894 0.60898 0.18324 0.0
C226 C 0.4368 0.65197 0.18522 0.0
C227 C 0.43205 0.67145 0.20242 0.0
C228 C 0.39971 0.64817 0.21785 0.0
C229 C 0.37225 0.60529 0.2162 0.0
C230 C 0.37687 0.58566 0.19903 0.0
C231 C 0.56562 0.60688 0.11851 0.0
C232 C 0.57559 0.5769 0.12852 0.0
C233 C 0.52816 0.60608 0.12377 0.0
C234 C 0.49971 0.57574 0.13954 0.0
C235 C 0.51049 0.54695 0.15037 0.0
C236 C 0.54771 0.54725 0.14478 0.0
C237 C 0.45748 0.57218 0.14327 0.0
C238 C 0.45138 0.59014 0.16095 0.0
C239 C 0.42372 0.5528 0.1286 0.0
C240 C 0.4288 0.53507 0.10911 0.0
C241 C 0.43664 0.50132 0.11141 0.0
C242 C 0.44334 0.48605 0.09295 0.0
C243 C 0.44193 0.50408 0.07209 0.0
C244 C 0.43359 0.53728 0.06966 0.0
C245 C 0.42695 0.55272 0.08808 0.0
H246 H 0.44719 0.49226 0.05781 0.0
H247 H 0.39595 0.66335 0.23109 0.0
H248 H 0.82636 0.21769 0.5203 0.0
H249 H 0.8917 0.28531 0.51226 0.0
H250 H 0.84651 0.2977 0.44783 0.0
H251 H 0.78068 0.23156 0.45615 0.0
H252 H 0.92587 0.32398 0.44367 0.0
H253 H 0.84982 0.36067 0.48705 0.0
H254 H 0.80677 0.35657 0.51798 0.0
H255 H 0.90782 0.37706 0.562 0.0
H256 H 0.95151 0.38115 0.53129 0.0
H257 H 1.0808 0.5658 0.46373 0.0
H258 H 1.01321 0.50019 0.47063 0.0
H259 H 1.06911 0.43018 0.45016 0.0
H260 H 0.13561 0.49611 0.44216 0.0
H261 H 0.97985 0.43502 0.49499 0.0
H262 H 1.0005 0.338 0.43156 0.0
H263 H 1.03403 0.35133 0.39541 0.0
H264 H 1.02775 0.46458 0.38267 0.0
H265 H 0.99352 0.45156 0.41854 0.0
C266 C 0.8302 0.23491 0.50446 0.0
C267 C 0.79767 0.21888 0.48901 0.0
C268 C 0.86771 0.27394 0.49985 0.0
C269 C 0.87447 0.29785 0.47945 0.0
C270 C 0.84246 0.28097 0.46382 0.0
C271 C 0.80456 0.24274 0.46863 0.0
C272 C 0.91453 0.34011 0.4744 0.0
C273 C 0.93774 0.348 0.45505 0.0
C274 C 0.92963 0.37315 0.48835 0.0
C275 C 0.90367 0.37053 0.50694 0.0
C276 C 0.86272 0.36389 0.50336 0.0
C277 C 0.83824 0.36166 0.52083 0.0
C278 C 0.85439 0.36608 0.54197 0.0
C279 C 0.89526 0.3733 0.54563 0.0
C280 C 0.91995 0.3757 0.52819 0.0
C281 C 1.07848 0.53633 0.46065 0.0
C282 C 0.11368 0.53636 0.45226 0.0
C283 C 1.03966 0.49851 0.46467 0.0
C284 C 1.03473 0.4592 0.46068 0.0
C285 C 1.07061 0.45945 0.45283 0.0
C286 C 0.10908 0.49733 0.44837 0.0
C287 C 0.99255 0.41836 0.46467 0.0
C288 C 0.96856 0.41086 0.48372 0.0
C289 C 0.97545 0.38667 0.44975 0.0
C290 C 0.99487 0.39399 0.42786 0.0
C291 C 1.00603 0.36559 0.42099 0.0
C292 C 1.02519 0.37313 0.40055 0.0
C293 C 1.03317 0.40887 0.38679 0.0
C294 C 1.0217 0.43699 0.39337 0.0
C295 C 1.0024 0.42953 0.41375 0.0
H296 H 1.04815 0.41472 0.37102 0.0
H297 H 0.83535 0.36422 0.5555 0.0
H298 H 0.62961 0.72416 0.84877 0.0
H299 H 0.62698 0.78956 0.84308 0.0
H300 H 0.7178 0.83357 0.79046 0.0
H301 H 0.72237 0.76973 0.79708 0.0
H302 H 0.73658 0.89726 0.80748 0.0
H303 H 0.59956 0.79202 0.78583 0.0
H304 H 0.53128 0.72603 0.79058 0.0
H305 H 0.5005 0.77105 0.84483 0.0
H306 H 0.56881 0.83721 0.84053 0.0
H307 H 0.6119 1.01736 0.76837 0.0
H308 H 0.61453 0.95225 0.77569 0.0
H309 H 0.71824 1.01391 0.8194 0.0
H310 H 0.71781 0.07979 0.81058 0.0
H311 H 0.60138 0.89712 0.80625 0.0
H312 H 0.77865 0.96928 0.82653 0.0
H313 H 0.84644 1.03326 0.81642 0.0
H314 H 0.79524 1.05132 0.75499 0.0
H315 H 0.72734 0.98718 0.76463 0.0
C316 C 0.64916 0.74782 0.83602 0.0
C317 C 0.67629 0.74109 0.82349 0.0
C318 C 0.64734 0.78546 0.83255 0.0
C319 C 0.67154 0.81736 0.8159 0.0
C320 C 0.69867 0.81042 0.80348 0.0
C321 C 0.7012 0.77336 0.80727 0.0
C322 C 0.6693 0.85785 0.81141 0.0
C323 C 0.70679 0.89681 0.80729 0.0
C324 C 0.63083 0.85868 0.81062 0.0
C325 C 0.58944 0.81937 0.81298 0.0
C326 C 0.57828 0.78778 0.79882 0.0
C327 C 0.53959 0.75037 0.80143 0.0
C328 C 0.51164 0.74433 0.81803 0.0
C329 C 0.52222 0.77578 0.83199 0.0
C330 C 0.56089 0.81326 0.82946 0.0
C331 C 0.63592 1.01743 0.77917 0.0
C332 C 0.66483 1.05457 0.78867 0.0
C333 C 0.63705 0.97963 0.78367 0.0
C334 C 0.66702 0.97719 0.79797 0.0
C335 C 0.6953 1.01417 0.80787 0.0
C336 C 0.69459 1.05213 0.80308 0.0
C337 C 0.66868 0.93641 0.8024 0.0
C338 C 0.63112 0.89747 0.80651 0.0
C339 C 0.70698 0.93536 0.80246 0.0
C340 C 0.74781 0.97369 0.79642 0.0
C341 C 0.78193 0.98684 0.81084 0.0
C342 C 0.82035 1.02314 0.80519 0.0
C343 C 0.8251 1.04641 0.78511 0.0
C344 C 0.79148 1.03334 0.77058 0.0
C345 C 0.75301 0.99704 0.77613 0.0
H346 H 0.85486 0.07453 0.78078 0.0
H347 H 0.48178 0.71532 0.82006 0.0
H348 H 0.98406 0.49726 0.1472 0.0
H349 H 0.91814 0.49763 0.14128 0.0
H350 H 0.97893 0.6262 0.15731 0.0
H351 H 1.04478 0.62518 0.16428 0.0
H352 H 0.90339 0.5885 0.17346 0.0
H353 H 0.95391 0.58813 0.10122 0.0
H354 H 0.97701 0.55745 0.07474 0.0
H355 H 0.85807 0.44264 0.0816 0.0
H356 H 0.83454 0.47224 0.1085 0.0
H357 H 0.74418 0.63354 0.13257 0.0
H358 H 0.80931 0.63137 0.14014 0.0
H359 H 0.75127 0.50777 0.11715 0.0
H360 H 0.68715 0.5114 0.10853 0.0
H361 H 0.8248 0.5411 0.10494 0.0
H362 H 0.77217 0.53278 0.17557 0.0
H363 H 0.74486 0.55288 0.20544 0.0
H364 H 0.86042 0.67108 0.20521 0.0
H365 H 0.8882 0.65192 0.17512 0.0
C366 C 0.98357 0.52565 0.14963 0.0
C367 C 1.02034 0.56122 0.15623 0.0
C368 C 0.94557 0.52601 0.14595 0.0
C369 C 0.94295 0.56235 0.14817 0.0
C370 C 0.97945 0.59765 0.15526 0.0
C371 C 1.01743 0.59709 0.15925 0.0
C372 C 0.90261 0.56371 0.14311 0.0
C373 C 0.88675 0.57882 0.15826 0.0
C374 C 0.87894 0.54928 0.1238 0.0
C375 C 0.89257 0.53232 0.10695 0.0
C376 C 0.9327 0.55635 0.09708 0.0
C377 C 0.94589 0.53914 0.08202 0.0
C378 C 0.91904 0.4982 0.07645 0.0
C379 C 0.87883 0.47439 0.08589 0.0
C380 C 0.86555 0.49134 0.10105 0.0
C381 C 0.74537 0.60589 0.12924 0.0
C382 C 0.71022 0.57246 0.12014 0.0
C383 C 0.78271 0.60439 0.13373 0.0
C384 C 0.78585 0.56887 0.12986 0.0
C385 C 0.75057 0.53569 0.12047 0.0
C386 C 0.7136 0.53763 0.11556 0.0
C387 C 0.82567 0.56647 0.13518 0.0
C388 C 0.84144 0.5511 0.1201 0.0
C389 C 0.84856 0.57943 0.15486 0.0
C390 C 0.83206 0.59112 0.17294 0.0
C391 C 0.79163 0.56319 0.18179 0.0
C392 C 0.77608 0.57439 0.19876 0.0
C393 C 0.80084 0.61328 0.20717 0.0
C394 C 0.84125 0.641 0.19865 0.0
C395 C 0.85692 0.62999 0.18164 0.0
H396 H 0.78875 0.62189 0.22031 0.0
H397 H 0.92939 0.48493 0.06483 0.0
H398 H 0.52228 1.01223 0.4802 0.0
H399 H 0.45792 0.94544 0.47569 0.0
H400 H 0.5223 0.87826 0.49805 0.0
H401 H 0.58716 0.94538 0.5026 0.0
H402 H 0.4741 0.8425 0.46362 0.0
H403 H 0.4481 0.88125 0.53048 0.0
H404 H 0.44289 0.92721 0.5552 0.0
H405 H 0.34813 0.93376 0.51451 0.0
H406 H 0.35321 0.8883 0.48935 0.0
H407 H 0.28572 0.64093 0.46981 0.0
H408 H 0.35035 0.70448 0.47946 0.0
H409 H 0.2907 0.77839 0.46206 0.0
H410 H 0.22587 0.71434 0.45302 0.0
H411 H 0.33765 0.80943 0.49559 0.0
H412 H 0.36551 0.77204 0.42808 0.0
H413 H 0.371 0.72592 0.40357 0.0
H414 H 0.46286 0.7168 0.44568 0.0
H415 H 0.4574 0.76233 0.47063 0.0
C416 C 0.523 0.98338 0.48429 0.0
C417 C 0.56055 0.98487 0.49188 0.0
C418 C 0.48573 0.9448 0.48176 0.0
C419 C 0.48431 0.90596 0.48668 0.0
C420 C 0.52188 0.9073 0.4941 0.0
C421 C 0.55921 0.946 0.49681 0.0
C422 C 0.44396 0.86445 0.48382 0.0
C423 C 0.44447 0.83514 0.47094 0.0
C424 C 0.40449 0.85434 0.49285 0.0
C425 C 0.40135 0.88171 0.50791 0.0
C426 C 0.4264 0.89278 0.5267 0.0
C427 C 0.42343 0.91868 0.54081 0.0
C428 C 0.39528 0.93348 0.5364 0.0
C429 C 0.36997 0.92232 0.51788 0.0
C430 C 0.37286 0.89646 0.5037 0.0
C431 C 0.28621 0.67064 0.46855 0.0
C432 C 0.2503 0.67235 0.46104 0.0
C433 C 0.32352 0.70733 0.47376 0.0
C434 C 0.32655 0.74726 0.47119 0.0
C435 C 0.28998 0.74856 0.46428 0.0
C436 C 0.25261 0.71179 0.45919 0.0
C437 C 0.36761 0.78751 0.47521 0.0
C438 C 0.36726 0.81666 0.4883 0.0
C439 C 0.40724 0.79745 0.46637 0.0
C440 C 0.41069 0.77023 0.45134 0.0
C441 C 0.38665 0.75995 0.43219 0.0
C442 C 0.38978 0.73394 0.41821 0.0
C443 C 0.41719 0.71836 0.42309 0.0
C444 C 0.44159 0.72884 0.44194 0.0
C445 C 0.43849 0.75474 0.45601 0.0
H446 H 0.41959 0.69825 0.41223 0.0
H447 H 0.39301 0.95352 0.54735 0.0
H448 H 0.73135 0.53334 0.80509 0.0
H449 H 0.72936 0.46722 0.80023 0.0
H450 H 0.61272 0.39798 0.83652 0.0
H451 H 0.6149 0.46404 0.84201 0.0
H452 H 0.65939 0.36343 0.84768 0.0
H453 H 0.62525 0.41143 0.77923 0.0
H454 H 0.63801 0.46247 0.74737 0.0
H455 H 0.7423 0.45108 0.72737 0.0
H456 H 0.7311 0.40095 0.75937 0.0
H457 H 0.61015 0.16091 0.81352 0.0
H458 H 0.61098 0.22531 0.82183 0.0
H459 H 0.72756 0.30048 0.78564 0.0
H460 H 0.72652 0.23609 0.77749 0.0
H461 H 0.67712 0.33012 0.77408 0.0
H462 H 0.72083 0.29515 0.84346 0.0
H463 H 0.71603 0.24986 0.87678 0.0
H464 H 0.59764 0.2377 0.8936 0.0
H465 H 0.60148 0.2825 0.86021 0.0
C466 C 0.70505 0.50417 0.81203 0.0
C467 C 0.67307 0.50468 0.82385 0.0
C468 C 0.70384 0.46606 0.80904 0.0
C469 C 0.67045 0.4268 0.81746 0.0
C470 C 0.63891 0.42731 0.82965 0.0
C471 C 0.64014 0.46544 0.83274 0.0
C472 C 0.66844 0.38558 0.81353 0.0
C473 C 0.66273 0.35617 0.83146 0.0
C474 C 0.67358 0.3755 0.79246 0.0
C475 C 0.67831 0.40349 0.77231 0.0
C476 C 0.6513 0.42016 0.76825 0.0
C477 C 0.6582 0.44892 0.7501 0.0
C478 C 0.69137 0.46045 0.73559 0.0
C479 C 0.71692 0.44243 0.73879 0.0
C480 C 0.71035 0.41393 0.75698 0.0
C481 C 0.63654 0.19121 0.80789 0.0
C482 C 0.66871 0.19313 0.79518 0.0
C483 C 0.63695 0.2283 0.81253 0.0
C484 C 0.66947 0.26862 0.80451 0.0
C485 C 0.70193 0.27033 0.7921 0.0
C486 C 0.70161 0.23337 0.7876 0.0
C487 C 0.66913 0.30876 0.80824 0.0
C488 C 0.67393 0.33767 0.79025 0.0
C489 C 0.66368 0.3187 0.82918 0.0
C490 C 0.6612 0.29174 0.84922 0.0
C491 C 0.6936 0.2825 0.85417 0.0
C492 C 0.69109 0.257 0.87309 0.0
C493 C 0.65648 0.2408 0.88726 0.0
C494 C 0.62438 0.2502 0.88258 0.0
C495 C 0.62672 0.27566 0.86367 0.0
H496 H 0.6546 0.22107 0.90191 0.0
H497 H 0.69733 0.48331 0.72185 0.0
H498 H 0.67254 0.85269 0.51506 0.0
H499 H 0.64813 0.7781 0.52134 0.0
H500 H 0.56815 0.76707 0.57434 0.0
H501 H 0.59508 0.84323 0.56873 0.0
H502 H 0.60116 0.72642 0.58789 0.0
H503 H 0.52543 0.7123 0.5255 0.0
H504 H 0.50406 0.72704 0.48873 0.0
H505 H 0.60054 0.71306 0.45996 0.0
H506 H 0.62306 0.69894 0.49652 0.0
H507 H 0.63594 0.54821 0.54605 0.0
H508 H 0.58955 0.57855 0.54636 0.0
H509 H 0.68565 0.68127 0.58014 0.0
H510 H 0.73103 0.65062 0.57994 0.0
H511 H 0.59776 0.64588 0.52709 0.0
H512 H 0.65157 0.72073 0.61252 0.0
H513 H 0.65647 0.69448 0.65028 0.0
H514 H 0.57384 0.56744 0.63506 0.0
H515 H 0.56748 0.5928 0.59737 0.0
C516 C 0.64914 0.83417 0.52777 0.0
C517 C 0.63554 0.85343 0.54138 0.0
C518 C 0.63468 0.79129 0.53123 0.0
C519 C 0.60524 0.7663 0.54797 0.0
C520 C 0.59059 0.78544 0.56122 0.0
C521 C 0.60594 0.82882 0.55806 0.0
C522 C 0.59495 0.72192 0.55305 0.0
C523 C 0.59956 0.70841 0.57464 0.0
C524 C 0.58913 0.69609 0.53614 0.0
C525 C 0.57586 0.70436 0.51388 0.0
C526 C 0.54225 0.71251 0.51136 0.0
C527 C 0.52992 0.72078 0.49053 0.0
C528 C 0.55089 0.72093 0.47202 0.0
C529 C 0.58423 0.71279 0.47432 0.0
C530 C 0.5967 0.7045 0.49511 0.0
C531 C 0.64644 0.57691 0.5538 0.0
C532 C 0.68666 0.59729 0.56304 0.0
C533 C 0.62009 0.59412 0.55402 0.0
C534 C 0.63376 0.63186 0.56356 0.0
C535 C 0.67373 0.65148 0.57325 0.0
C536 C 0.69982 0.63423 0.57307 0.0
C537 C 0.6094 0.65415 0.56135 0.0
C538 C 0.59766 0.66302 0.54041 0.0
C539 C 0.60557 0.67374 0.57906 0.0
C540 C 0.60899 0.65879 0.60201 0.0
C541 C 0.63399 0.68723 0.61724 0.0
C542 C 0.63711 0.67245 0.63867 0.0
C543 C 0.61538 0.6293 0.64506 0.0
C544 C 0.5906 0.60084 0.63008 0.0
C545 C 0.58723 0.61541 0.60869 0.0
H546 H 0.6176 0.61776 0.66161 0.0
H547 H 0.54133 0.72738 0.45591 0.0
H548 H 0.76839 0.51248 0.77056 0.0
H549 H 0.78751 0.45805 0.7767 0.0
H550 H 0.91667 0.54954 0.76012 0.0
H551 H 0.89784 0.60426 0.75369 0.0
H552 H 0.90166 0.47379 0.75232 0.0
H553 H 0.87065 0.53429 0.81158 0.0
H554 H 0.82583 0.54793 0.83444 0.0
H555 H 0.7436 0.41513 0.84882 0.0
H556 H 0.78683 0.40064 0.8252 0.0
H557 H 1.04479 0.50969 0.8329 0.0
H558 H 0.99458 0.49826 0.80375 0.0
H559 H 0.90533 0.3792 0.83745 0.0
H560 H 0.95692 0.39034 0.86661 0.0
H561 H 0.87642 0.43263 0.83188 0.0
H562 H 0.93096 0.38004 0.78433 0.0
H563 H 0.98434 0.37275 0.76514 0.0
H564 H 1.0314 0.49629 0.73222 0.0
H565 H 0.97882 0.5047 0.75144 0.0
C566 C 0.80053 0.52086 0.76728 0.0
C567 C 0.832 0.56315 0.76267 0.0
C568 C 0.81128 0.48945 0.77068 0.0
C569 C 0.85352 0.49985 0.76945 0.0
C570 C 0.88385 0.5408 0.7615 0.0
C571 C 0.87313 0.57223 0.75806 0.0
C572 C 0.86777 0.47174 0.78062 0.0
C573 C 0.89595 0.46432 0.76967 0.0
C574 C 0.85885 0.45774 0.80311 0.0
C575 C 0.83155 0.46641 0.81633 0.0
C576 C 0.84259 0.508 0.81931 0.0
C577 C 0.81746 0.51586 0.8324 0.0
C578 C 0.78183 0.48239 0.84304 0.0
C579 C 0.77103 0.44098 0.84044 0.0
C580 C 0.79564 0.43292 0.82708 0.0
C581 C 1.01531 0.48017 0.83357 0.0
C582 C 1.00465 0.45081 0.85189 0.0
C583 C 0.98656 0.47351 0.81685 0.0
C584 C 0.94632 0.43755 0.81822 0.0
C585 C 0.93641 0.40689 0.83593 0.0
C586 C 0.96557 0.41339 0.85262 0.0
C587 C 0.91294 0.43779 0.804 0.0
C588 C 0.88074 0.43985 0.81431 0.0
C589 C 0.91895 0.44766 0.78114 0.0
C590 C 0.95071 0.44292 0.76933 0.0
C591 C 0.95279 0.40576 0.77307 0.0
C592 C 0.98293 0.40142 0.76218 0.0
C593 C 1.01121 0.43401 0.74746 0.0
C594 C 1.00939 0.47101 0.74359 0.0
C595 C 0.97931 0.47553 0.75444 0.0
H596 H 1.03454 0.4306 0.73905 0.0
H597 H 0.76253 0.48852 0.85326 0.0
H598 H 0.40258 0.79902 0.18366 0.0
H599 H 0.46369 0.84866 0.20263 0.0
H600 H 0.42126 0.76449 0.26177 0.0
H601 H 0.35804 0.71563 0.24289 0.0
H602 H 0.42542 0.83012 0.27023 0.0
H603 H 0.52781 0.81186 0.24041 0.0
H604 H 0.56621 0.79733 0.21377 0.0
H605 H 0.59488 0.91189 0.17498 0.0
H606 H 0.55601 0.92684 0.20109 0.0
H607 H 0.60456 1.06872 0.26914 0.0
H608 H 0.58545 0.99453 0.26985 0.0
H609 H 0.4586 0.96239 0.25139 0.0
H610 H 0.47784 1.03647 0.25121 0.0
H611 H 0.56092 0.94504 0.23817 0.0
H612 H 0.38873 0.87045 0.2733 0.0
H613 H 0.35322 0.88325 0.30232 0.0
H614 H 0.47084 0.94938 0.33543 0.0
H615 H 0.507 0.93641 0.30681 0.0
C616 C 0.40693 0.7905 0.20053 0.0
C617 C 0.37492 0.7544 0.21205 0.0
C618 C 0.44246 0.81869 0.21138 0.0
C619 C 0.44713 0.81079 0.23385 0.0
C620 C 0.41816 0.77159 0.24452 0.0
C621 C 0.38208 0.74357 0.23369 0.0
C622 C 0.47464 0.84705 0.24656 0.0
C623 C 0.45555 0.85481 0.26351 0.0
C624 C 0.51501 0.87891 0.23872 0.0
C625 C 0.53902 0.87058 0.22288 0.0
C626 C 0.54215 0.83394 0.22617 0.0
C627 C 0.56401 0.8256 0.21113 0.0
C628 C 0.58304 0.85371 0.19272 0.0
C629 C 0.58025 0.89022 0.1893 0.0
C630 C 0.5584 0.89871 0.20427 0.0
C631 C 0.57246 1.04537 0.26566 0.0
C632 C 0.54228 1.05755 0.26041 0.0
C633 C 0.56167 1.00328 0.26597 0.0
C634 C 0.52049 0.97286 0.26103 0.0
C635 C 0.49033 0.98521 0.25579 0.0
C636 C 0.50117 1.0273 0.25554 0.0
C637 C 0.50911 0.92854 0.25981 0.0
C638 C 0.5316 0.91961 0.24533 0.0
C639 C 0.4725 0.89521 0.27037 0.0
C640 C 0.45061 0.90243 0.28785 0.0
C641 C 0.40699 0.88737 0.28686 0.0
C642 C 0.38675 0.89476 0.30323 0.0
C643 C 0.40975 0.91713 0.3207 0.0
C644 C 0.45306 0.93211 0.32187 0.0
C645 C 0.47345 0.92478 0.30556 0.0
H646 H 0.39402 0.92285 0.33334 0.0
H647 H 0.59992 0.84717 0.18109 0.0
H648 H 0.71131 0.36126 0.42858 0.0
H649 H 0.75694 0.43501 0.43335 0.0
H650 H 0.86227 0.41425 0.44521 0.0
H651 H 0.81552 0.33956 0.44114 0.0
H652 H 0.85 0.43731 0.47919 0.0
H653 H 0.87232 0.50337 0.40957 0.0
H654 H 0.86066 0.51807 0.37077 0.0
H655 H 0.76355 0.54238 0.38875 0.0
H656 H 0.77394 0.52711 0.42762 0.0
H657 H 0.84304 0.59257 0.54289 0.0
H658 H 0.87614 0.57339 0.51531 0.0
H659 H 0.75392 0.49668 0.48768 0.0
H660 H 0.72109 0.51389 0.51559 0.0
H661 H 0.82431 0.55499 0.45611 0.0
H662 H 0.78825 0.45235 0.52289 0.0
H663 H 0.8012 0.43596 0.56129 0.0
H664 H 0.93146 0.48319 0.54591 0.0
H665 H 0.91934 0.50051 0.50747 0.0
C666 C 0.74465 0.3728 0.43098 0.0
C667 C 0.75977 0.34472 0.43507 0.0
C668 C 0.77112 0.41536 0.4336 0.0
C669 C 0.81326 0.43049 0.44001 0.0
C670 C 0.82987 0.40342 0.44053 0.0
C671 C 0.80317 0.3607 0.43821 0.0
C672 C 0.83428 0.46884 0.45205 0.0
C673 C 0.84618 0.46406 0.47371 0.0
C674 C 0.83076 0.50465 0.44507 0.0
C675 C 0.82422 0.51433 0.42165 0.0
C676 C 0.84837 0.51173 0.40529 0.0
C677 C 0.84195 0.52015 0.38325 0.0
C678 C 0.81146 0.53125 0.37731 0.0
C679 C 0.7873 0.53396 0.39339 0.0
C680 C 0.79357 0.52557 0.41546 0.0
C681 C 0.82352 0.5714 0.53096 0.0
C682 C 0.77963 0.55483 0.53114 0.0
C683 C 0.8424 0.56096 0.51514 0.0
C684 C 0.81748 0.53442 0.49924 0.0
C685 C 0.77376 0.51801 0.49952 0.0
C686 C 0.75501 0.5277 0.51545 0.0
C687 C 0.83494 0.51992 0.48314 0.0
C688 C 0.83071 0.52965 0.46087 0.0
C689 C 0.8461 0.48899 0.48941 0.0
C690 C 0.85315 0.47869 0.5125 0.0
C691 C 0.81977 0.45982 0.52779 0.0
C692 C 0.82694 0.45028 0.54953 0.0
C693 C 0.86724 0.459 0.55609 0.0
C694 C 0.90038 0.47691 0.54086 0.0
C695 C 0.89338 0.48662 0.51911 0.0
H696 H 0.8727 0.45143 0.57291 0.0
H697 H 0.8065 0.53771 0.36023 0.0
H698 H 0.43925 0.5668 0.92382 0.0
H699 H 0.376 0.56915 0.93134 0.0
H700 H 0.42585 0.68885 0.89307 0.0
H701 H 0.48998 0.68712 0.88561 0.0
H702 H 0.34407 0.62073 0.94468 0.0
H703 H 0.35328 0.67468 0.85506 0.0
H704 H 0.39367 0.68364 0.82179 0.0
H705 H 0.4056 0.57655 0.84523 0.0
H706 H 0.36477 0.56668 0.87843 0.0
H707 H 0.14433 0.57051 0.87007 0.0
H708 H 0.21936 0.61407 0.87809 0.0
H709 H 0.20812 0.52003 0.92935 0.0
H710 H 0.13267 0.4774 0.92162 0.0
H711 H 0.2754 0.5952 0.87226 0.0
H712 H 0.28405 0.56031 0.96714 0.0
H713 H 0.24562 0.55437 0.00052 0.0
H714 H 0.19497 0.62651 0.96674 0.0
H715 H 0.23359 0.63353 0.93325 0.0
C716 C 0.43783 0.59463 0.9178 0.0
C717 C 0.46926 0.62632 0.90366 0.0
C718 C 0.40155 0.59596 0.92221 0.0
C719 C 0.39601 0.62878 0.91245 0.0
C720 C 0.42949 0.66306 0.9006 0.0
C721 C 0.46587 0.66177 0.89615 0.0
C722 C 0.35267 0.62158 0.91019 0.0
C723 C 0.32882 0.61539 0.92891 0.0
C724 C 0.33332 0.61567 0.8895 0.0
C725 C 0.3564 0.62025 0.86924 0.0
C726 C 0.36434 0.65294 0.85301 0.0
C727 C 0.38729 0.65817 0.83419 0.0
C728 C 0.40223 0.63071 0.83142 0.0
C729 C 0.39403 0.59781 0.8474 0.0
C730 C 0.37097 0.59237 0.8662 0.0
C731 C 0.15819 0.55955 0.88307 0.0
C732 C 0.13363 0.52061 0.895 0.0
C733 C 0.20073 0.58443 0.8878 0.0
C734 C 0.21939 0.57051 0.90443 0.0
C735 C 0.19432 0.53191 0.91677 0.0
C736 C 0.15156 0.5073 0.9122 0.0
C737 C 0.26581 0.59333 0.90686 0.0
C738 C 0.29036 0.60199 0.88807 0.0
C739 C 0.28551 0.60185 0.92749 0.0
C740 C 0.26177 0.59736 0.9476 0.0
C741 C 0.26498 0.57518 0.96684 0.0
C742 C 0.24318 0.57167 0.98581 0.0
C743 C 0.21812 0.59032 0.98579 0.0
C744 C 0.21453 0.61223 0.96675 0.0
C745 C 0.2363 0.61589 0.94775 0.0
H746 H 0.20116 0.58744 0.00047 0.0
H747 H 0.42013 0.63491 0.81688 0.0
H748 H 0.90669 0.43012 0.12367 0.0
H749 H 0.83126 0.40469 0.12816 0.0
H750 H 0.80935 0.27867 0.14428 0.0
H751 H 0.88392 0.30376 0.13866 0.0
H752 H 0.74067 0.27412 0.12784 0.0
H753 H 0.84613 0.36398 0.18331 0.0
H754 H 0.90249 0.4332 0.19352 0.0
H755 H 0.82643 0.48817 0.17244 0.0
H756 H 0.77002 0.41946 0.16185 0.0
H757 H 0.65599 0.1634 0.22387 0.0
H758 H 0.70135 0.21245 0.19414 0.0
H759 H 0.64715 0.29131 0.2003 0.0
H760 H 0.60169 0.24162 0.23063 0.0
H761 H 0.7339 0.33668 0.19436 0.0
H762 H 0.61891 0.23666 0.15724 0.0
H763 H 0.56154 0.16611 0.14987 0.0
H764 H 0.65214 0.13012 0.13584 0.0
H765 H 0.71009 0.20012 0.14354 0.0
C766 C 0.88518 0.39671 0.12718 0.0
C767 C 0.90069 0.36874 0.13107 0.0
C768 C 0.84226 0.38228 0.12989 0.0
C769 C 0.81484 0.34005 0.13729 0.0
C770 C 0.82982 0.31147 0.13869 0.0
C771 C 0.87247 0.32572 0.13549 0.0
C772 C 0.77338 0.32631 0.14748 0.0
C773 C 0.7388 0.28806 0.14219 0.0
C774 C 0.76993 0.34565 0.16553 0.0
C775 C 0.80411 0.38682 0.17169 0.0
C776 C 0.84158 0.39092 0.18082 0.0
C777 C 0.87352 0.43004 0.18665 0.0
C778 C 0.86801 0.46504 0.18368 0.0
C779 C 0.8307 0.46108 0.17472 0.0
C780 C 0.79878 0.4221 0.16878 0.0
C781 C 0.65419 0.19144 0.21894 0.0
C782 C 0.62561 0.19902 0.22923 0.0
C783 C 0.67963 0.21917 0.20189 0.0
C784 C 0.67662 0.25481 0.19459 0.0
C785 C 0.64939 0.2636 0.20551 0.0
C786 C 0.6238 0.23561 0.22279 0.0
C787 C 0.70326 0.28263 0.17585 0.0
C788 C 0.73464 0.32359 0.17944 0.0
C789 C 0.70362 0.26586 0.15618 0.0
C790 C 0.66894 0.22387 0.1509 0.0
C791 C 0.62665 0.2137 0.15262 0.0
C792 C 0.594 0.17375 0.14841 0.0
C793 C 0.60319 0.14367 0.14236 0.0
C794 C 0.64507 0.1535 0.14047 0.0
C795 C 0.67785 0.19338 0.1447 0.0
H796 H 0.57787 0.11274 0.13913 0.0
H797 H 0.89266 0.49524 0.1883 0.0
H798 H 0.17318 0.64226 0.08874 0.0
H799 H 0.16024 0.62824 0.05008 0.0
H800 H 1.06171 0.50156 0.06932 0.0
H801 H 1.07369 0.51612 0.1077 0.0
H802 H 0.11949 0.50629 0.03871 0.0
H803 H 1.03705 0.57275 0.04992 0.0
H804 H 1.02749 0.63054 0.06019 0.0
H805 H 0.11678 0.71506 0.01063 0.0
H806 H 0.12744 0.65804 0.00032 0.0
H807 H 1.02125 0.43549 0.93913 0.0
H808 H 1.03311 0.4558 0.97673 0.0
H809 H 0.11593 0.58512 0.95243 0.0
H810 H 1.10199 0.56491 0.91491 0.0
H811 H 1.07161 0.58279 0.98511 0.0
H812 H 0.15008 0.51755 0.97076 0.0
H813 H 0.16539 0.46364 0.96078 0.0
H814 H 1.0903 0.37991 0.01501 0.0
H815 H 1.07432 0.43334 0.02538 0.0
C816 C 0.14876 0.61152 0.08459 0.0
C817 C 0.12541 0.57964 0.10108 0.0
C818 C 0.14141 0.60355 0.06261 0.0
C819 C 0.11032 0.56371 0.0569 0.0
C820 C 1.08638 0.53223 0.07342 0.0
C821 C 1.09363 0.5403 0.09533 0.0
C822 C 1.10261 0.55451 0.03374 0.0
C823 C 0.10848 0.52254 0.02699 0.0
C824 C 1.08998 0.57707 0.01837 0.0
C825 C 1.08334 0.61124 0.02451 0.0
C826 C 1.05488 0.60375 0.04135 0.0
C827 C 1.04922 0.63633 0.04715 0.0
C828 C 1.07156 0.67641 0.0361 0.0
C829 C 1.09954 0.68401 0.0192 0.0
C830 C 1.1054 0.65158 0.01336 0.0
C831 C 1.04129 0.46826 0.94196 0.0
C832 C 1.06128 0.49862 0.92438 0.0
C833 C 1.0484 0.47983 0.96334 0.0
C834 C 1.07625 0.52185 0.96741 0.0
C835 C 1.09464 0.55249 0.94971 0.0
C836 C 1.087 0.54096 0.92835 0.0
C837 C 1.08733 0.5336 0.9901 0.0
C838 C 1.08253 0.56633 0.99674 0.0
C839 C 1.10165 0.51213 0.00529 0.0
C840 C 0.11095 0.47967 0.9989 0.0
C841 C 0.13675 0.48773 0.98061 0.0
C842 C 0.14555 0.45719 0.97485 0.0
C843 C 0.12881 0.41836 0.98724 0.0
C844 C 1.10328 0.41003 0.00544 0.0
C845 C 1.09441 0.4405 0.0113 0.0
H846 H 0.13564 0.39474 0.98273 0.0
H847 H 1.06711 0.70157 0.04061 0.0
H848 H 0.64076 0.08088 0.43475 0.0
H849 H 0.64558 0.11544 0.39802 0.0
H850 H 0.77997 0.19343 0.40487 0.0
H851 H 0.77536 0.15832 0.44165 0.0
H852 H 0.73039 0.23576 0.38671 0.0
H853 H 0.75886 0.12461 0.37571 0.0
H854 H 0.74533 1.05175 0.38081 0.0
H855 H 0.6232 1.00743 0.35217 0.0
H856 H 0.63572 0.07995 0.34722 0.0
H857 H 0.67969 0.18708 0.2626 0.0
H858 H 0.72818 0.20657 0.29307 0.0
H859 H 0.64344 0.22862 0.32892 0.0
H860 H 0.59628 0.21147 0.29773 0.0
H861 H 0.6912 0.14791 0.3244 0.0
H862 H 0.68329 0.26698 0.37675 0.0
H863 H 0.69545 0.33939 0.37276 0.0
H864 H 0.7763 0.36917 0.31728 0.0
H865 H 0.76549 0.29727 0.32131 0.0
C866 C 0.67131 0.10526 0.42835 0.0
C867 C 0.70772 0.1168 0.4408 0.0
C868 C 0.67401 0.12506 0.4075 0.0
C869 C 0.71311 0.15692 0.39886 0.0
C870 C 0.74956 0.16895 0.41136 0.0
C871 C 0.74694 0.14863 0.43217 0.0
C872 C 0.71544 0.17587 0.37631 0.0
C873 C 0.72244 0.21704 0.3729 0.0
C874 C 0.70565 0.15137 0.35847 0.0
C875 C 0.69816 0.10772 0.36122 0.0
C876 C 0.729 0.09929 0.37065 0.0
C877 C 0.72152 1.05805 0.37349 0.0
C878 C 0.6834 1.02497 0.36685 0.0
C879 C 0.65271 1.03308 0.35731 0.0
C880 C 0.66 0.07426 0.35446 0.0
C881 C 0.67319 0.19954 0.2762 0.0
C882 C 0.63418 0.19751 0.27797 0.0
C883 C 0.70071 0.21018 0.29382 0.0
C884 C 0.68903 0.21803 0.31354 0.0
C885 C 0.65341 0.22285 0.31393 0.0
C886 C 0.62634 0.21304 0.29608 0.0
C887 C 0.70514 0.20801 0.33445 0.0
C888 C 0.70083 0.16779 0.3378 0.0
C889 C 0.7172 0.23347 0.35211 0.0
C890 C 0.72359 0.2767 0.34939 0.0
C891 C 0.704 0.28912 0.36385 0.0
C892 C 0.71059 0.33005 0.36155 0.0
C893 C 0.73662 0.35887 0.34476 0.0
C894 C 0.7561 0.3468 0.33025 0.0
C895 C 0.74972 0.30593 0.33254 0.0
H896 H 0.74168 0.39055 0.34299 0.0
H897 H 0.67768 0.99307 0.36906 0.0
H898 H 0.69721 0.66613 0.76916 0.0
H899 H 0.71734 0.66217 0.73257 0.0
H900 H 0.61485 0.53368 0.73367 0.0
H901 H 0.59915 0.53605 0.7715 0.0
H902 H 0.67208 0.53369 0.71603 0.0
H903 H 0.62096 0.63013 0.70409 0.0
H904 H 0.61551 0.69309 0.70801 0.0
H905 H 0.74333 0.77244 0.68541 0.0
H906 H 0.74976 0.70995 0.68161 0.0
H907 H 0.66184 0.52771 0.59951 0.0
H908 H 0.64738 0.53417 0.63722 0.0
H909 H 0.77756 0.62934 0.64382 0.0
H910 H 0.79197 0.62232 0.6061 0.0
H911 H 0.70971 0.64793 0.65658 0.0
H912 H 0.75706 0.54581 0.67068 0.0
H913 H 0.75636 0.48004 0.66536 0.0
H914 H 0.62428 0.40868 0.68133 0.0
H915 H 0.62417 0.47412 0.68655 0.0
C916 C 0.67983 0.63679 0.76175 0.0
C917 C 0.64777 0.60101 0.77342 0.0
C918 C 0.69054 0.6348 0.74053 0.0
C919 C 0.66735 0.59776 0.72995 0.0
C920 C 0.63372 0.56259 0.74136 0.0
C921 C 0.62438 0.56404 0.76294 0.0
C922 C 0.67879 0.59492 0.70739 0.0
C923 C 0.67961 0.55859 0.70308 0.0
C924 C 0.68964 0.6276 0.6903 0.0
C925 C 0.68598 0.66529 0.69279 0.0
C926 C 0.64806 0.661 0.70017 0.0
C927 C 0.64476 0.69661 0.70231 0.0
C928 C 0.67909 0.73674 0.69703 0.0
C929 C 0.71678 0.74133 0.68954 0.0
C930 C 0.72026 0.70582 0.68736 0.0
C931 C 0.68731 0.54947 0.60923 0.0
C932 C 0.728 0.57422 0.60026 0.0
C933 C 0.6791 0.55327 0.63061 0.0
C934 C 0.71145 0.58223 0.64321 0.0
C935 C 0.75226 0.60685 0.63429 0.0
C936 C 0.76057 0.60259 0.61297 0.0
C937 C 0.70228 0.58683 0.66563 0.0
C938 C 0.70207 0.62338 0.66979 0.0
C939 C 0.69077 0.55402 0.68241 0.0
C940 C 0.69055 0.5148 0.67883 0.0
C941 C 0.7278 0.51611 0.67284 0.0
C942 C 0.72758 0.4789 0.66991 0.0
C943 C 0.69028 0.44022 0.67297 0.0
C944 C 0.65312 0.43867 0.67893 0.0
C945 C 0.65318 0.47579 0.68187 0.0
H946 H 0.6902 0.41144 0.67075 0.0
H947 H 0.67646 0.76427 0.69869 0.0
H948 H 0.72116 0.12224 0.55796 0.0
H949 H 0.72219 0.11366 0.59804 0.0
H950 H 0.59012 0.07497 0.60032 0.0
H951 H 0.58901 0.08344 0.56037 0.0
H952 H 0.63212 0.13229 0.62798 0.0
H953 H 0.62583 1.00463 0.61278 0.0
H954 H 0.64634 0.95784 0.59769 0.0
H955 H 0.76583 1.01935 0.62963 0.0
H956 H 0.74626 1.06687 0.6447 0.0
H957 H 0.59136 1.06812 0.73966 0.0
H958 H 0.59091 1.06078 0.70039 0.0
H959 H 0.72561 0.11264 0.70119 0.0
H960 H 0.72571 0.11998 0.74061 0.0
H961 H 0.68403 1.04801 0.67237 0.0
H962 H 0.69202 0.17881 0.68499 0.0
H963 H 0.6706 0.22417 0.70098 0.0
H964 H 0.54682 0.15441 0.67438 0.0
H965 H 0.56768 0.1089 0.65803 0.0
C966 C 0.69226 0.11148 0.56702 0.0
C967 C 0.65497 0.10345 0.55596 0.0
C968 C 0.69283 0.10642 0.58997 0.0
C969 C 0.65614 0.09332 0.60237 0.0
C970 C 0.61888 0.08508 0.59125 0.0
C971 C 0.61826 0.08994 0.56836 0.0
C972 C 0.65689 0.09049 0.62685 0.0
C973 C 0.64294 0.1133 0.63759 0.0
C974 C 0.67207 1.06673 0.63963 0.0
C975 C 0.68472 1.03961 0.62969 0.0
C976 C 0.65671 1.00858 0.61635 0.0
C977 C 0.66808 0.98178 0.60788 0.0
C978 C 0.70732 0.98557 0.61275 0.0
C979 C 0.73542 1.01641 0.62591 0.0
C980 C 0.7242 1.04327 0.63442 0.0
C981 C 0.62052 0.07628 0.73155 0.0
C982 C 0.65845 0.09397 0.74312 0.0
C983 C 0.6204 0.07266 0.70909 0.0
C984 C 0.65833 0.0868 0.69768 0.0
C985 C 0.69595 0.10155 0.70957 0.0
C986 C 0.69602 0.10538 0.7321 0.0
C987 C 0.65891 0.08943 0.67326 0.0
C988 C 0.67322 1.06686 0.66261 0.0
C989 C 0.64409 0.11337 0.66047 0.0
C990 C 0.63128 0.14027 0.67047 0.0
C991 C 0.66017 0.17303 0.68266 0.0
C992 C 0.6482 0.19887 0.69169 0.0
C993 C 0.60732 0.19204 0.6888 0.0
C994 C 0.57844 0.15959 0.67666 0.0
C995 C 0.59037 0.13391 0.66742 0.0
H996 H 0.59806 0.21196 0.6959 0.0
H997 H 0.71595 0.96458 0.60634 0.0
H998 H 0.75422 0.6991 0.8944 0.0
H999 H 0.74957 0.6865 0.93442 0.0
H1000 H 0.66471 0.55423 0.92918 0.0
H1001 H 0.66922 0.56674 0.88932 0.0
H1002 H 0.63604 0.58111 0.95905 0.0
H1003 H 0.76928 0.59342 0.94376 0.0
H1004 H 0.84113 0.62736 0.92822 0.0
H1005 H 0.87923 0.73247 0.9659 0.0
H1006 H 0.80741 0.69939 0.98145 0.0
H1007 H 0.63303 0.50883 0.0694 0.0
H1008 H 0.64974 0.52035 0.03013 0.0
H1009 H 0.72921 0.65323 0.0361 0.0
H1010 H 0.71236 0.64127 0.0754 0.0
H1011 H 0.76189 0.62633 0.00608 0.0
H1012 H 0.62871 0.61671 0.01952 0.0
H1013 H 0.55652 0.58447 0.03446 0.0
H1014 H 0.51889 0.47518 0.00031 0.0
H1015 H 0.59084 0.50687 0.98508 0.0
C1016 C 0.73464 0.66736 0.90182 0.0
C1017 C 0.71185 0.63399 0.88868 0.0
C1018 C 0.73213 0.66012 0.92471 0.0
C1019 C 0.70703 0.61928 0.93497 0.0
C1020 C 0.68422 0.58602 0.92178 0.0
C1021 C 0.68677 0.59323 0.89895 0.0
C1022 C 0.70377 0.61113 0.95935 0.0
C1023 C 0.66362 0.59048 0.96925 0.0
C1024 C 0.73965 0.62419 0.97289 0.0
C1025 C 0.78285 0.64412 0.96359 0.0
C1026 C 0.79289 0.62393 0.94859 0.0
C1027 C 0.83363 0.64298 0.93981 0.0
C1028 C 0.8647 0.6821 0.94603 0.0
C1029 C 0.85511 0.7022 0.96108 0.0
C1030 C 0.81441 0.6833 0.96989 0.0
C1031 C 0.65527 0.54015 0.06237 0.0
C1032 C 0.67172 0.57415 0.07531 0.0
C1033 C 0.66441 0.54689 0.03993 0.0
C1034 C 0.69009 0.58784 0.02998 0.0
C1035 C 0.70922 0.6214 0.0433 0.0
C1036 C 0.69994 0.61459 0.06575 0.0
C1037 C 0.6942 0.59602 0.00564 0.0
C1038 C 0.7344 0.6168 0.9958 0.0
C1039 C 0.6584 0.58321 0.9921 0.0
C1040 C 0.61522 0.56397 0.00134 0.0
C1041 C 0.6051 0.58569 0.01531 0.0
C1042 C 0.5642 0.56759 0.02377 0.0
C1043 C 0.53322 0.52772 0.01844 0.0
C1044 C 0.54296 0.50601 0.00448 0.0
C1045 C 0.58374 0.52409 0.99586 0.0
H1046 H 0.50162 0.51372 0.02506 0.0
H1047 H 0.89622 0.69679 0.93921 0.0
H1048 H 0.18709 0.57243 0.22409 0.0
H1049 H 0.19133 0.57575 0.26394 0.0
H1050 H 1.05612 0.51703 0.26804 0.0
H1051 H 1.05161 0.51234 0.22837 0.0
H1052 H 0.11123 0.59585 0.29322 0.0
H1053 H 1.08386 0.4555 0.2825 0.0
H1054 H 1.0987 0.40592 0.26599 0.0
H1055 H 0.22328 0.4652 0.29265 0.0
H1056 H 0.20936 0.51556 0.30904 0.0
H1057 H 1.09967 0.56914 0.40861 0.0
H1058 H 1.08209 0.55213 0.37058 0.0
H1059 H 0.20005 0.55482 0.3634 0.0
H1060 H 0.21575 0.56866 0.40168 0.0
H1061 H 0.14904 0.50153 0.33917 0.0
H1062 H 0.18335 0.64279 0.34797 0.0
H1063 H 0.17649 0.69839 0.36333 0.0
H1064 H 1.05021 0.64662 0.33921 0.0
H1065 H 1.05613 0.59032 0.32397 0.0
C1066 C 0.15832 0.56052 0.23348 0.0
C1067 C 0.11899 0.542 0.22312 0.0
C1068 C 0.16077 0.56235 0.25624 0.0
C1069 C 0.12401 0.54651 0.26901 0.0
C1070 C 1.08486 0.52943 0.25856 0.0
C1071 C 1.08234 0.52673 0.2359 0.0
C1072 C 0.12632 0.54657 0.2933 0.0
C1073 C 0.1189 0.57484 0.30334 0.0
C1074 C 0.13747 0.52003 0.30646 0.0
C1075 C 0.14571 0.48955 0.29679 0.0
C1076 C 0.11455 0.45821 0.28466 0.0
C1077 C 0.12276 0.42991 0.27537 0.0
C1078 C 0.16195 0.43248 0.27821 0.0
C1079 C 0.19296 0.46328 0.29043 0.0
C1080 C 0.18491 0.49168 0.29974 0.0
C1081 C 0.12105 0.56471 0.39904 0.0
C1082 C 0.15941 0.57091 0.40794 0.0
C1083 C 0.11141 0.5557 0.37716 0.0
C1084 C 0.14042 0.55369 0.36363 0.0
C1085 C 0.17719 0.55664 0.37317 0.0
C1086 C 0.18634 0.56478 0.39507 0.0
C1087 C 0.13419 0.55114 0.33939 0.0
C1088 C 0.14101 0.52244 0.32923 0.0
C1089 C 0.12359 0.57816 0.32605 0.0
C1090 C 0.12002 0.61211 0.33504 0.0
C1091 C 0.15403 0.64313 0.34605 0.0
C1092 C 0.15032 0.67477 0.35473 0.0
C1093 C 0.11289 0.67597 0.3523 0.0
C1094 C 1.07914 0.6456 0.34112 0.0
C1095 C 1.08266 0.61382 0.33245 0.0
H1096 H 0.11007 0.70049 0.35902 0.0
H1097 H 0.16825 0.41055 0.27101 0.0
loop_
_geom_bond_atom_site_label_1
_geom_bond_atom_site_label_2
_geom_bond_distance
_geom_bond_site_symmetry_2
_ccdc_geom_bond_type
Tb0 C2 2.809 . S
Tb0 O20 2.484 . S
Tb0 O21 2.440 . S
Tb0 O22 2.658 . S
Tb0 O23 2.409 . S
Tb0 O24 2.378 . S
Tb0 O28 2.325 . S
Tb0 O31 2.341 1_455 S
Tb1 C11 2.809 . S
Tb1 O22 2.325 1_655 S
Tb1 O25 2.341 1_655 S
Tb1 O26 2.484 . S
Tb1 O27 2.440 . S
Tb1 O28 2.658 1_655 S
Tb1 O29 2.409 1_655 S
Tb1 O30 2.378 . S
C2 Tb0 2.809 . S
C2 C3 1.514 . S
C2 O20 1.248 . S
C2 O21 1.266 . S
C3 C2 1.514 . S
C3 C4 1.359 . S
C3 C8 1.348 . S
C4 C3 1.359 . S
C4 C5 1.380 . S
C4 H32 0.929 . S
C5 C4 1.380 . S
C5 C6 1.347 . S
C5 H33 0.931 . S
C6 C5 1.347 . S
C6 C7 1.369 . S
C7 C6 1.369 . S
C7 C8 1.408 . S
C7 H34 0.930 . S
C8 C3 1.348 . S
C8 C7 1.408 . S
C8 H35 0.930 . S
C9 O22 1.281 . S
C9 O23 1.254 . S
C10 O24 1.236 . S
C10 O25 1.266 . S
C11 Tb1 2.809 . S
C11 C12 1.514 . S
C11 O26 1.248 . S
C11 O27 1.266 . S
C12 C11 1.514 . S
C12 C13 1.359 . S
C12 C17 1.348 . S
C13 C12 1.359 . S
C13 C14 1.380 . S
C13 H36 0.929 . S
C14 C13 1.380 . S
C14 C15 1.347 . S
C14 H37 0.931 . S
C15 C14 1.347 . S
C15 C16 1.369 . S
C16 C15 1.369 . S
C16 C17 1.408 . S
C16 H38 0.930 . S
C17 C12 1.348 . S
C17 C16 1.408 . S
C17 H39 0.930 . S
C18 O28 1.281 . S
C18 O29 1.254 . S
C19 O30 1.236 . S
C19 O31 1.266 . S
O20 Tb0 2.484 . S
O20 C2 1.248 . S
O21 Tb0 2.440 . S
O21 C2 1.266 . S
O22 Tb0 2.658 . S
O22 Tb1 2.325 1_455 S
O22 C9 1.281 . S
O23 Tb0 2.409 . S
O23 C9 1.254 . S
O24 Tb0 2.378 . S
O24 C10 1.236 . S
O25 Tb1 2.341 1_455 S
O25 C10 1.266 . S
O26 Tb1 2.484 . S
O26 C11 1.248 . S
O27 Tb1 2.440 . S
O27 C11 1.266 . S
O28 Tb0 2.325 . S
O28 Tb1 2.658 1_455 S
O28 C18 1.281 . S
O29 Tb1 2.409 1_455 S
O29 C18 1.254 . S
O30 Tb1 2.378 . S
O30 C19 1.236 . S
O31 Tb0 2.341 1_655 S
O31 C19 1.266 . S
H32 C4 0.929 . S
H33 C5 0.931 . S
H34 C7 0.930 . S
H35 C8 0.930 . S
H36 C13 0.929 . S
H37 C14 0.931 . S
H38 C16 0.930 . S
H39 C17 0.930 . S
Tb40 C42 2.809 1_545 S
Tb40 O60 2.484 1_545 S
Tb40 O61 2.440 1_545 S
Tb40 O62 2.658 . S
Tb40 O63 2.409 . S
Tb40 O64 2.378 1_545 S
Tb40 O68 2.325 . S
Tb40 O71 2.341 . S
Tb41 C51 2.809 . S
Tb41 O62 2.325 . S
Tb41 O65 2.341 1_545 S
Tb41 O66 2.484 . S
Tb41 O67 2.440 . S
Tb41 O68 2.658 . S
Tb41 O69 2.409 . S
Tb41 O70 2.378 . S
C42 Tb40 2.809 1_565 S
C42 C43 1.514 . S
C42 O60 1.248 . S
C42 O61 1.266 . S
C43 C42 1.514 . S
C43 C44 1.359 . S
C43 C48 1.348 . S
C44 C43 1.359 . S
C44 C45 1.380 . S
C44 H72 0.929 . S
C45 C44 1.380 . S
C45 C46 1.347 . S
C45 H73 0.931 . S
C46 C45 1.347 . S
C46 C47 1.369 . S
C47 C46 1.369 . S
C47 C48 1.408 . S
C47 H74 0.930 . S
C48 C43 1.348 . S
C48 C47 1.408 . S
C48 H75 0.930 . S
C49 O62 1.281 . S
C49 O63 1.254 . S
C50 O64 1.236 . S
C50 O65 1.266 . S
C51 Tb41 2.809 . S
C51 C52 1.514 . S
C51 O66 1.248 . S
C51 O67 1.266 . S
C52 C51 1.514 . S
C52 C53 1.359 . S
C52 C57 1.348 . S
C53 C52 1.359 . S
C53 C54 1.380 . S
C53 H76 0.929 . S
C54 C53 1.380 . S
C54 C55 1.347 . S
C54 H77 0.931 . S
C55 C54 1.347 . S
C55 C56 1.369 . S
C56 C55 1.369 . S
C56 C57 1.408 . S
C56 H78 0.930 . S
C57 C52 1.348 . S
C57 C56 1.408 . S
C57 H79 0.930 . S
C58 O68 1.281 . S
C58 O69 1.254 . S
C59 O70 1.236 . S
C59 O71 1.266 . S
O60 Tb40 2.484 1_565 S
O60 C42 1.248 . S
O61 Tb40 2.440 1_565 S
O61 C42 1.266 . S
O62 Tb40 2.658 . S
O62 Tb41 2.325 . S
O62 C49 1.281 . S
O63 Tb40 2.409 . S
O63 C49 1.254 . S
O64 Tb40 2.378 1_565 S
O64 C50 1.236 . S
O65 Tb41 2.341 1_565 S
O65 C50 1.266 . S
O66 Tb41 2.484 . S
O66 C51 1.248 . S
O67 Tb41 2.440 . S
O67 C51 1.266 . S
O68 Tb40 2.325 . S
O68 Tb41 2.658 . S
O68 C58 1.281 . S
O69 Tb41 2.409 . S
O69 C58 1.254 . S
O70 Tb41 2.378 . S
O70 C59 1.236 . S
O71 Tb40 2.341 . S
O71 C59 1.266 . S
H72 C44 0.929 . S
H73 C45 0.931 . S
H74 C47 0.930 . S
H75 C48 0.930 . S
H76 C53 0.929 . S
H77 C54 0.931 . S
H78 C56 0.930 . S
H79 C57 0.930 . S
Tb80 C82 2.809 . S
Tb80 O100 2.484 . S
Tb80 O101 2.440 . S
Tb80 O102 2.658 . S
Tb80 O103 2.409 . S
Tb80 O104 2.378 . S
Tb80 O108 2.325 . S
Tb80 O111 2.341 . S
Tb81 C91 2.809 . S
Tb81 O102 2.325 . S
Tb81 O105 2.341 . S
Tb81 O106 2.484 . S
Tb81 O107 2.440 . S
Tb81 O108 2.658 . S
Tb81 O109 2.409 . S
Tb81 O110 2.378 . S
C82 Tb80 2.809 . S
C82 C83 1.514 . S
C82 O100 1.248 . S
C82 O101 1.266 . S
C83 C82 1.514 . S
C83 C84 1.359 . S
C83 C88 1.348 . S
C84 C83 1.359 . S
C84 C85 1.380 . S
C84 H112 0.929 . S
C85 C84 1.380 . S
C85 C86 1.347 . S
C85 H113 0.931 . S
C86 C85 1.347 . S
C86 C87 1.369 . S
C87 C86 1.369 . S
C87 C88 1.408 . S
C87 H114 0.930 . S
C88 C83 1.348 . S
C88 C87 1.408 . S
C88 H115 0.930 . S
C89 O102 1.281 . S
C89 O103 1.254 . S
C90 O104 1.236 . S
C90 O105 1.266 . S
C91 Tb81 2.809 . S
C91 C92 1.514 . S
C91 O106 1.248 . S
C91 O107 1.266 . S
C92 C91 1.514 . S
C92 C93 1.359 . S
C92 C97 1.348 . S
C93 C92 1.359 . S
C93 C94 1.380 . S
C93 H116 0.929 . S
C94 C93 1.380 . S
C94 C95 1.347 . S
C94 H117 0.931 . S
C95 C94 1.347 . S
C95 C96 1.369 . S
C96 C95 1.369 . S
C96 C97 1.408 . S
C96 H118 0.930 . S
C97 C92 1.348 . S
C97 C96 1.408 . S
C97 H119 0.930 . S
C98 O108 1.281 . S
C98 O109 1.254 . S
C99 O110 1.236 . S
C99 O111 1.266 . S
O100 Tb80 2.484 . S
O100 C82 1.248 . S
O101 Tb80 2.440 . S
O101 C82 1.266 . S
O102 Tb80 2.658 . S
O102 Tb81 2.325 . S
O102 C89 1.281 . S
O103 Tb80 2.409 . S
O103 C89 1.254 . S
O104 Tb80 2.378 . S
O104 C90 1.236 . S
O105 Tb81 2.341 . S
O105 C90 1.266 . S
O106 Tb81 2.484 . S
O106 C91 1.248 . S
O107 Tb81 2.440 . S
O107 C91 1.266 . S
O108 Tb80 2.325 . S
O108 Tb81 2.658 . S
O108 C98 1.281 . S
O109 Tb81 2.409 . S
O109 C98 1.254 . S
O110 Tb81 2.378 . S
O110 C99 1.236 . S
O111 Tb80 2.341 . S
O111 C99 1.266 . S
H112 C84 0.929 . S
H113 C85 0.931 . S
H114 C87 0.930 . S
H115 C88 0.930 . S
H116 C93 0.929 . S
H117 C94 0.931 . S
H118 C96 0.930 . S
H119 C97 0.930 . S
C120 N121 1.317 . S
C120 N122 1.348 1_545 S
C120 C123 1.485 . S
N121 C120 1.317 . S
N121 N125 1.370 . S
N122 C120 1.348 1_565 S
N122 C124 1.346 . S
C123 C120 1.485 . S
C123 H127 0.960 . S
C123 H128 0.961 . S
C123 H129 0.960 . S
C124 N122 1.346 . S
C124 N125 1.307 1_565 S
C124 C126 1.486 . S
N125 N121 1.370 . S
N125 C124 1.307 1_545 S
C126 C124 1.486 . S
C126 H130 0.960 . S
C126 H131 0.960 . S
C126 H132 0.959 . S
H127 C123 0.960 . S
H128 C123 0.961 . S
H129 C123 0.960 . S
H130 C126 0.960 . S
H131 C126 0.960 . S
H132 C126 0.959 . S
C133 N134 1.317 . S
C133 N135 1.348 . S
C133 C136 1.485 . S
N134 C133 1.317 . S
N134 N138 1.370 . S
N135 C133 1.348 . S
N135 C137 1.346 . S
C136 C133 1.485 . S
C136 H140 0.960 . S
C136 H141 0.961 . S
C136 H142 0.960 . S
C137 N135 1.346 . S
C137 N138 1.307 . S
C137 C139 1.486 . S
N138 N134 1.370 . S
N138 C137 1.307 . S
C139 C137 1.486 . S
C139 H143 0.960 . S
C139 H144 0.960 . S
C139 H145 0.959 . S
H140 C136 0.960 . S
H141 C136 0.961 . S
H142 C136 0.960 . S
H143 C139 0.960 . S
H144 C139 0.960 . S
H145 C139 0.959 . S
C146 N147 1.317 . S
C146 N148 1.348 1_455 S
C146 C149 1.485 . S
N147 C146 1.317 . S
N147 N151 1.370 . S
N148 C146 1.348 1_655 S
N148 C150 1.346 . S
C149 C146 1.485 . S
C149 H153 0.960 . S
C149 H154 0.961 1_455 S
C149 H155 0.960 . S
C150 N148 1.346 . S
C150 N151 1.307 1_655 S
C150 C152 1.486 . S
N151 N147 1.370 . S
N151 C150 1.307 1_455 S
C152 C150 1.486 . S
C152 H156 0.960 . S
C152 H157 0.960 . S
C152 H158 0.959 . S
H153 C149 0.960 . S
H154 C149 0.961 1_655 S
H155 C149 0.960 . S
H156 C152 0.960 . S
H157 C152 0.960 . S
H158 C152 0.959 . S
C159 N160 1.317 . S
C159 N161 1.348 . S
C159 C162 1.485 . S
N160 C159 1.317 . S
N160 N164 1.370 . S
N161 C159 1.348 . S
N161 C163 1.346 . S
C162 C159 1.485 . S
C162 H166 0.960 . S
C162 H167 0.961 . S
C162 H168 0.960 . S
C163 N161 1.346 . S
C163 N164 1.307 . S
C163 C165 1.486 . S
N164 N160 1.370 . S
N164 C163 1.307 . S
C165 C163 1.486 . S
C165 H169 0.960 . S
C165 H170 0.960 . S
C165 H171 0.959 . S
H166 C162 0.960 . S
H167 C162 0.961 . S
H168 C162 0.960 . S
H169 C165 0.960 . S
H170 C165 0.960 . S
H171 C165 0.959 . S
C172 N173 1.317 . S
C172 N174 1.348 . S
C172 C175 1.485 . S
N173 C172 1.317 . S
N173 N177 1.370 . S
N174 C172 1.348 . S
N174 C176 1.346 . S
C175 C172 1.485 . S
C175 H179 0.960 . S
C175 H180 0.961 . S
C175 H181 0.960 . S
C176 N174 1.346 . S
C176 N177 1.307 . S
C176 C178 1.486 . S
N177 N173 1.370 . S
N177 C176 1.307 . S
C178 C176 1.486 . S
C178 H182 0.960 . S
C178 H183 0.960 . S
C178 H184 0.959 . S
H179 C175 0.960 . S
H180 C175 0.961 . S
H181 C175 0.960 . S
H182 C178 0.960 . S
H183 C178 0.960 . S
H184 C178 0.959 . S
C185 N186 1.317 . S
C185 N187 1.348 . S
C185 C188 1.485 . S
N186 C185 1.317 . S
N186 N190 1.370 . S
N187 C185 1.348 . S
N187 C189 1.346 . S
C188 C185 1.485 . S
C188 H192 0.960 . S
C188 H193 0.961 . S
C188 H194 0.960 . S
C189 N187 1.346 . S
C189 N190 1.307 . S
C189 C191 1.486 . S
N190 N186 1.370 . S
N190 C189 1.307 . S
C191 C189 1.486 . S
C191 H195 0.960 . S
C191 H196 0.960 . S
C191 H197 0.959 . S
H192 C188 0.960 . S
H193 C188 0.961 . S
H194 C188 0.960 . S
H195 C191 0.960 . S
H196 C191 0.960 . S
H197 C191 0.959 . S
H198 C216 0.951 . S
H199 C218 0.951 . S
H200 C220 0.950 . S
H201 C221 0.950 . S
H202 C223 0.950 . S
H203 C226 0.950 . S
H204 C227 0.950 . S
H205 C229 0.950 . S
H206 C230 0.950 . S
H207 C231 0.951 . S
H208 C233 0.951 . S
H209 C235 0.950 . S
H210 C236 0.950 . S
H211 C238 0.950 . S
H212 C241 0.950 . S
H213 C242 0.950 . S
H214 C244 0.950 . S
H215 C245 0.950 . S
C216 H198 0.951 . S
C216 C217 1.366 . S
C216 C218 1.388 . S
C217 C216 1.366 . S
C217 C221 1.385 . S
C218 H199 0.951 . S
C218 C216 1.388 . S
C218 C219 1.366 . S
C219 C218 1.366 . S
C219 C220 1.414 . S
C219 C222 1.499 . S
C220 H200 0.950 . S
C220 C219 1.414 . S
C220 C221 1.374 . S
C221 H201 0.950 . S
C221 C217 1.385 . S
C221 C220 1.374 . S
C222 C219 1.499 . S
C222 C223 1.373 . S
C222 C224 1.389 . S
C223 H202 0.950 . S
C223 C222 1.373 . S
C223 C239 1.377 . S
C224 C222 1.389 . S
C224 C225 1.524 . S
C224 C238 1.377 . S
C225 C224 1.524 . S
C225 C226 1.397 . S
C225 C230 1.363 . S
C226 H203 0.950 . S
C226 C225 1.397 . S
C226 C227 1.334 . S
C227 H204 0.950 . S
C227 C226 1.334 . S
C227 C228 1.287 . S
C228 C227 1.287 . S
C228 C229 1.524 . S
C228 H247 0.913 . S
C229 H205 0.950 . S
C229 C228 1.524 . S
C229 C230 1.415 . S
C230 H206 0.950 . S
C230 C225 1.363 . S
C230 C229 1.415 . S
C231 H207 0.951 . S
C231 C232 1.366 . S
C231 C233 1.388 . S
C232 C231 1.366 . S
C232 C236 1.385 . S
C233 H208 0.951 . S
C233 C231 1.388 . S
C233 C234 1.366 . S
C234 C233 1.366 . S
C234 C235 1.414 . S
C234 C237 1.499 . S
C235 H209 0.950 . S
C235 C234 1.414 . S
C235 C236 1.374 . S
C236 H210 0.950 . S
C236 C232 1.385 . S
C236 C235 1.374 . S
C237 C234 1.499 . S
C237 C238 1.373 . S
C237 C239 1.389 . S
C238 H211 0.950 . S
C238 C224 1.377 . S
C238 C237 1.373 . S
C239 C223 1.377 . S
C239 C237 1.389 . S
C239 C240 1.524 . S
C240 C239 1.524 . S
C240 C241 1.397 . S
C240 C245 1.363 . S
C241 H212 0.950 . S
C241 C240 1.397 . S
C241 C242 1.334 . S
C242 H213 0.950 . S
C242 C241 1.334 . S
C242 C243 1.287 . S
C243 C242 1.287 . S
C243 C244 1.524 . S
C243 H246 0.999 . S
C244 H214 0.950 . S
C244 C243 1.524 . S
C244 C245 1.415 . S
C245 H215 0.950 . S
C245 C240 1.363 . S
C245 C244 1.415 . S
H246 C243 0.999 . S
H247 C228 0.913 . S
H248 C266 0.951 . S
H249 C268 0.951 . S
H250 C270 0.950 . S
H251 C271 0.950 . S
H252 C273 0.950 . S
H253 C276 0.950 . S
H254 C277 0.950 . S
H255 C279 0.950 . S
H256 C280 0.950 . S
H257 C281 0.951 . S
H258 C283 0.951 . S
H259 C285 0.950 . S
H260 C286 0.950 1_455 S
H261 C288 0.950 . S
H262 C291 0.950 . S
H263 C292 0.950 . S
H264 C294 0.950 . S
H265 C295 0.950 . S
C266 H248 0.951 . S
C266 C267 1.366 . S
C266 C268 1.388 . S
C267 C266 1.366 . S
C267 C271 1.385 . S
C268 H249 0.951 . S
C268 C266 1.388 . S
C268 C269 1.366 . S
C269 C268 1.366 . S
C269 C270 1.414 . S
C269 C272 1.499 . S
C270 H250 0.950 . S
C270 C269 1.414 . S
C270 C271 1.374 . S
C271 H251 0.950 . S
C271 C267 1.385 . S
C271 C270 1.374 . S
C272 C269 1.499 . S
C272 C273 1.373 . S
C272 C274 1.389 . S
C273 H252 0.950 . S
C273 C272 1.373 . S
C273 C289 1.377 . S
C274 C272 1.389 . S
C274 C275 1.524 . S
C274 C288 1.377 . S
C275 C274 1.524 . S
C275 C276 1.397 . S
C275 C280 1.363 . S
C276 H253 0.950 . S
C276 C275 1.397 . S
C276 C277 1.334 . S
C277 H254 0.950 . S
C277 C276 1.334 . S
C277 C278 1.287 . S
C278 C277 1.287 . S
C278 C279 1.524 . S
C278 H297 0.913 . S
C279 H255 0.950 . S
C279 C278 1.524 . S
C279 C280 1.415 . S
C280 H256 0.950 . S
C280 C275 1.363 . S
C280 C279 1.415 . S
C281 H257 0.951 . S
C281 C282 1.356 1_655 S
C281 C283 1.388 . S
C282 C281 1.356 1_455 S
C282 C286 1.389 1_455 S
C283 H258 0.951 . S
C283 C281 1.388 . S
C283 C284 1.366 . S
C284 C283 1.366 . S
C284 C285 1.414 . S
C284 C287 1.499 . S
C285 H259 0.950 . S
C285 C284 1.414 . S
C285 C286 1.374 . S
C286 H260 0.950 1_655 S
C286 C282 1.389 1_655 S
C286 C285 1.374 . S
C287 C284 1.499 . S
C287 C288 1.373 . S
C287 C289 1.389 . S
C288 H261 0.950 . S
C288 C274 1.377 . S
C288 C287 1.373 . S
C289 C273 1.377 . S
C289 C287 1.389 . S
C289 C290 1.524 . S
C290 C289 1.524 . S
C290 C291 1.397 . S
C290 C295 1.363 . S
C291 H262 0.950 . S
C291 C290 1.397 . S
C291 C292 1.334 . S
C292 H263 0.950 . S
C292 C291 1.334 . S
C292 C293 1.287 . S
C293 C292 1.287 . S
C293 C294 1.524 . S
C293 H296 0.999 . S
C294 H264 0.950 . S
C294 C293 1.524 . S
C294 C295 1.415 . S
C295 H265 0.950 . S
C295 C290 1.363 . S
C295 C294 1.415 . S
H296 C293 0.999 . S
H297 C278 0.913 . S
H298 C316 0.951 . S
H299 C318 0.951 . S
H300 C320 0.950 . S
H301 C321 0.950 . S
H302 C323 0.950 . S
H303 C326 0.950 . S
H304 C327 0.950 . S
H305 C329 0.950 . S
H306 C330 0.950 . S
H307 C331 0.951 . S
H308 C333 0.951 . S
H309 C335 0.950 . S
H310 C336 0.950 . S
H311 C338 0.950 . S
H312 C341 0.950 . S
H313 C342 0.950 . S
H314 C344 0.950 . S
H315 C345 0.950 . S
C316 H298 0.951 . S
C316 C317 1.366 . S
C316 C318 1.388 . S
C317 C316 1.366 . S
C317 C321 1.385 . S
C318 H299 0.951 . S
C318 C316 1.388 . S
C318 C319 1.366 . S
C319 C318 1.366 . S
C319 C320 1.414 . S
C319 C322 1.499 . S
C320 H300 0.950 . S
C320 C319 1.414 . S
C320 C321 1.374 . S
C321 H301 0.950 . S
C321 C317 1.385 . S
C321 C320 1.374 . S
C322 C319 1.499 . S
C322 C323 1.373 . S
C322 C324 1.389 . S
C323 H302 0.950 . S
C323 C322 1.373 . S
C323 C339 1.377 . S
C324 C322 1.389 . S
C324 C325 1.524 . S
C324 C338 1.377 . S
C325 C324 1.524 . S
C325 C326 1.397 . S
C325 C330 1.363 . S
C326 H303 0.950 . S
C326 C325 1.397 . S
C326 C327 1.334 . S
C327 H304 0.950 . S
C327 C326 1.334 . S
C327 C328 1.287 . S
C328 C327 1.287 . S
C328 C329 1.524 . S
C328 H347 0.913 . S
C329 H305 0.950 . S
C329 C328 1.524 . S
C329 C330 1.415 . S
C330 H306 0.950 . S
C330 C325 1.363 . S
C330 C329 1.415 . S
C331 H307 0.951 . S
C331 C332 1.366 . S
C331 C333 1.388 . S
C332 C331 1.366 . S
C332 C336 1.385 . S
C333 H308 0.951 . S
C333 C331 1.388 . S
C333 C334 1.366 . S
C334 C333 1.366 . S
C334 C335 1.414 . S
C334 C337 1.499 . S
C335 H309 0.950 . S
C335 C334 1.414 . S
C335 C336 1.374 . S
C336 H310 0.950 . S
C336 C332 1.385 . S
C336 C335 1.374 . S
C337 C334 1.499 . S
C337 C338 1.373 . S
C337 C339 1.389 . S
C338 H311 0.950 . S
C338 C324 1.377 . S
C338 C337 1.373 . S
C339 C323 1.377 . S
C339 C337 1.389 . S
C339 C340 1.524 . S
C340 C339 1.524 . S
C340 C341 1.397 . S
C340 C345 1.363 . S
C341 H312 0.950 . S
C341 C340 1.397 . S
C341 C342 1.334 . S
C342 H313 0.950 . S
C342 C341 1.334 . S
C342 C343 1.287 . S
C343 C342 1.287 . S
C343 C344 1.524 . S
C343 H346 0.999 . S
C344 H314 0.950 . S
C344 C343 1.524 . S
C344 C345 1.415 . S
C345 H315 0.950 . S
C345 C340 1.363 . S
C345 C344 1.415 . S
H346 C343 0.999 . S
H347 C328 0.913 . S
H348 C366 0.951 . S
H349 C368 0.951 . S
H350 C370 0.950 . S
H351 C371 0.950 . S
H352 C373 0.950 . S
H353 C376 0.950 . S
H354 C377 0.950 . S
H355 C379 0.950 . S
H356 C380 0.950 . S
H357 C381 0.951 . S
H358 C383 0.951 . S
H359 C385 0.950 . S
H360 C386 0.950 . S
H361 C388 0.950 . S
H362 C391 0.950 . S
H363 C392 0.950 . S
H364 C394 0.950 . S
H365 C395 0.950 . S
C366 H348 0.951 . S
C366 C367 1.366 . S
C366 C368 1.388 . S
C367 C366 1.366 . S
C367 C371 1.385 . S
C368 H349 0.951 . S
C368 C366 1.388 . S
C368 C369 1.366 . S
C369 C368 1.366 . S
C369 C370 1.414 . S
C369 C372 1.499 . S
C370 H350 0.950 . S
C370 C369 1.414 . S
C370 C371 1.374 . S
C371 H351 0.950 . S
C371 C367 1.385 . S
C371 C370 1.374 . S
C372 C369 1.499 . S
C372 C373 1.373 . S
C372 C374 1.389 . S
C373 H352 0.950 . S
C373 C372 1.373 . S
C373 C389 1.377 . S
C374 C372 1.389 . S
C374 C375 1.524 . S
C374 C388 1.377 . S
C375 C374 1.524 . S
C375 C376 1.397 . S
C375 C380 1.363 . S
C376 H353 0.950 . S
C376 C375 1.397 . S
C376 C377 1.334 . S
C377 H354 0.950 . S
C377 C376 1.334 . S
C377 C378 1.287 . S
C378 C377 1.287 . S
C378 C379 1.524 . S
C378 H397 0.913 . S
C379 H355 0.950 . S
C379 C378 1.524 . S
C379 C380 1.415 . S
C380 H356 0.950 . S
C380 C375 1.363 . S
C380 C379 1.415 . S
C381 H357 0.951 . S
C381 C382 1.366 . S
C381 C383 1.388 . S
C382 C381 1.366 . S
C382 C386 1.385 . S
C383 H358 0.951 . S
C383 C381 1.388 . S
C383 C384 1.366 . S
C384 C383 1.366 . S
C384 C385 1.414 . S
C384 C387 1.499 . S
C385 H359 0.950 . S
C385 C384 1.414 . S
C385 C386 1.374 . S
C386 H360 0.950 . S
C386 C382 1.385 . S
C386 C385 1.374 . S
C387 C384 1.499 . S
C387 C388 1.373 . S
C387 C389 1.389 . S
C388 H361 0.950 . S
C388 C374 1.377 . S
C388 C387 1.373 . S
C389 C373 1.377 . S
C389 C387 1.389 . S
C389 C390 1.524 . S
C390 C389 1.524 . S
C390 C391 1.397 . S
C390 C395 1.363 . S
C391 H362 0.950 . S
C391 C390 1.397 . S
C391 C392 1.334 . S
C392 H363 0.950 . S
C392 C391 1.334 . S
C392 C393 1.287 . S
C393 C392 1.287 . S
C393 C394 1.524 . S
C393 H396 0.999 . S
C394 H364 0.950 . S
C394 C393 1.524 . S
C394 C395 1.415 . S
C395 H365 0.950 . S
C395 C390 1.363 . S
C395 C394 1.415 . S
H396 C393 0.999 . S
H397 C378 0.913 . S
H398 C416 0.951 . S
H399 C418 0.951 . S
H400 C420 0.950 . S
H401 C421 0.950 . S
H402 C423 0.950 . S
H403 C426 0.950 . S
H404 C427 0.950 . S
H405 C429 0.950 . S
H406 C430 0.950 . S
H407 C431 0.951 . S
H408 C433 0.951 . S
H409 C435 0.950 . S
H410 C436 0.950 . S
H411 C438 0.950 . S
H412 C441 0.950 . S
H413 C442 0.950 . S
H414 C444 0.950 . S
H415 C445 0.950 . S
C416 H398 0.951 . S
C416 C417 1.366 . S
C416 C418 1.388 . S
C417 C416 1.366 . S
C417 C421 1.385 . S
C418 H399 0.951 . S
C418 C416 1.388 . S
C418 C419 1.366 . S
C419 C418 1.366 . S
C419 C420 1.414 . S
C419 C422 1.499 . S
C420 H400 0.950 . S
C420 C419 1.414 . S
C420 C421 1.374 . S
C421 H401 0.950 . S
C421 C417 1.385 . S
C421 C420 1.374 . S
C422 C419 1.499 . S
C422 C423 1.373 . S
C422 C424 1.389 . S
C423 H402 0.950 . S
C423 C422 1.373 . S
C423 C439 1.377 . S
C424 C422 1.389 . S
C424 C425 1.524 . S
C424 C438 1.377 . S
C425 C424 1.524 . S
C425 C426 1.397 . S
C425 C430 1.363 . S
C426 H403 0.950 . S
C426 C425 1.397 . S
C426 C427 1.334 . S
C427 H404 0.950 . S
C427 C426 1.334 . S
C427 C428 1.287 . S
C428 C427 1.287 . S
C428 C429 1.524 . S
C428 H447 0.913 . S
C429 H405 0.950 . S
C429 C428 1.524 . S
C429 C430 1.415 . S
C430 H406 0.950 . S
C430 C425 1.363 . S
C430 C429 1.415 . S
C431 H407 0.951 . S
C431 C432 1.366 . S
C431 C433 1.388 . S
C432 C431 1.366 . S
C432 C436 1.385 . S
C433 H408 0.951 . S
C433 C431 1.388 . S
C433 C434 1.366 . S
C434 C433 1.366 . S
C434 C435 1.414 . S
C434 C437 1.499 . S
C435 H409 0.950 . S
C435 C434 1.414 . S
C435 C436 1.374 . S
C436 H410 0.950 . S
C436 C432 1.385 . S
C436 C435 1.374 . S
C437 C434 1.499 . S
C437 C438 1.373 . S
C437 C439 1.389 . S
C438 H411 0.950 . S
C438 C424 1.377 . S
C438 C437 1.373 . S
C439 C423 1.377 . S
C439 C437 1.389 . S
C439 C440 1.524 . S
C440 C439 1.524 . S
C440 C441 1.397 . S
C440 C445 1.363 . S
C441 H412 0.950 . S
C441 C440 1.397 . S
C441 C442 1.334 . S
C442 H413 0.950 . S
C442 C441 1.334 . S
C442 C443 1.287 . S
C443 C442 1.287 . S
C443 C444 1.524 . S
C443 H446 0.999 . S
C444 H414 0.950 . S
C444 C443 1.524 . S
C444 C445 1.415 . S
C445 H415 0.950 . S
C445 C440 1.363 . S
C445 C444 1.415 . S
H446 C443 0.999 . S
H447 C428 0.913 . S
H448 C466 0.951 . S
H449 C468 0.951 . S
H450 C470 0.950 . S
H451 C471 0.950 . S
H452 C473 0.950 . S
H453 C476 0.950 . S
H454 C477 0.950 . S
H455 C479 0.950 . S
H456 C480 0.950 . S
H457 C481 0.951 . S
H458 C483 0.951 . S
H459 C485 0.950 . S
H460 C486 0.950 . S
H461 C488 0.950 . S
H462 C491 0.950 . S
H463 C492 0.950 . S
H464 C494 0.950 . S
H465 C495 0.950 . S
C466 H448 0.951 . S
C466 C467 1.366 . S
C466 C468 1.388 . S
C467 C466 1.366 . S
C467 C471 1.385 . S
C468 H449 0.951 . S
C468 C466 1.388 . S
C468 C469 1.366 . S
C469 C468 1.366 . S
C469 C470 1.414 . S
C469 C472 1.499 . S
C470 H450 0.950 . S
C470 C469 1.414 . S
C470 C471 1.374 . S
C471 H451 0.950 . S
C471 C467 1.385 . S
C471 C470 1.374 . S
C472 C469 1.499 . S
C472 C473 1.373 . S
C472 C474 1.389 . S
C473 H452 0.950 . S
C473 C472 1.373 . S
C473 C489 1.377 . S
C474 C472 1.389 . S
C474 C475 1.524 . S
C474 C488 1.377 . S
C475 C474 1.524 . S
C475 C476 1.397 . S
C475 C480 1.363 . S
C476 H453 0.950 . S
C476 C475 1.397 . S
C476 C477 1.334 . S
C477 H454 0.950 . S
C477 C476 1.334 . S
C477 C478 1.287 . S
C478 C477 1.287 . S
C478 C479 1.524 . S
C478 H497 0.913 . S
C479 H455 0.950 . S
C479 C478 1.524 . S
C479 C480 1.415 . S
C480 H456 0.950 . S
C480 C475 1.363 . S
C480 C479 1.415 . S
C481 H457 0.951 . S
C481 C482 1.366 . S
C481 C483 1.388 . S
C482 C481 1.366 . S
C482 C486 1.385 . S
C483 H458 0.951 . S
C483 C481 1.388 . S
C483 C484 1.366 . S
C484 C483 1.366 . S
C484 C485 1.414 . S
C484 C487 1.499 . S
C485 H459 0.950 . S
C485 C484 1.414 . S
C485 C486 1.374 . S
C486 H460 0.950 . S
C486 C482 1.385 . S
C486 C485 1.374 . S
C487 C484 1.499 . S
C487 C488 1.373 . S
C487 C489 1.389 . S
C488 H461 0.950 . S
C488 C474 1.377 . S
C488 C487 1.373 . S
C489 C473 1.377 . S
C489 C487 1.389 . S
C489 C490 1.524 . S
C490 C489 1.524 . S
C490 C491 1.397 . S
C490 C495 1.363 . S
C491 H462 0.950 . S
C491 C490 1.397 . S
C491 C492 1.334 . S
C492 H463 0.950 . S
C492 C491 1.334 . S
C492 C493 1.287 . S
C493 C492 1.287 . S
C493 C494 1.524 . S
C493 H496 0.999 . S
C494 H464 0.950 . S
C494 C493 1.524 . S
C494 C495 1.415 . S
C495 H465 0.950 . S
C495 C490 1.363 . S
C495 C494 1.415 . S
H496 C493 0.999 . S
H497 C478 0.913 . S
H498 C516 0.951 . S
H499 C518 0.951 . S
H500 C520 0.950 . S
H501 C521 0.950 . S
H502 C523 0.950 . S
H503 C526 0.950 . S
H504 C527 0.950 . S
H505 C529 0.950 . S
H506 C530 0.950 . S
H507 C531 0.951 . S
H508 C533 0.951 . S
H509 C535 0.950 . S
H510 C536 0.950 . S
H511 C538 0.950 . S
H512 C541 0.950 . S
H513 C542 0.950 . S
H514 C544 0.950 . S
H515 C545 0.950 . S
C516 H498 0.951 . S
C516 C517 1.366 . S
C516 C518 1.388 . S
C517 C516 1.366 . S
C517 C521 1.385 . S
C518 H499 0.951 . S
C518 C516 1.388 . S
C518 C519 1.366 . S
C519 C518 1.366 . S
C519 C520 1.414 . S
C519 C522 1.499 . S
C520 H500 0.950 . S
C520 C519 1.414 . S
C520 C521 1.374 . S
C521 H501 0.950 . S
C521 C517 1.385 . S
C521 C520 1.374 . S
C522 C519 1.499 . S
C522 C523 1.373 . S
C522 C524 1.389 . S
C523 H502 0.950 . S
C523 C522 1.373 . S
C523 C539 1.377 . S
C524 C522 1.389 . S
C524 C525 1.524 . S
C524 C538 1.377 . S
C525 C524 1.524 . S
C525 C526 1.397 . S
C525 C530 1.363 . S
C526 H503 0.950 . S
C526 C525 1.397 . S
C526 C527 1.334 . S
C527 H504 0.950 . S
C527 C526 1.334 . S
C527 C528 1.287 . S
C528 C527 1.287 . S
C528 C529 1.524 . S
C528 H547 0.913 . S
C529 H505 0.950 . S
C529 C528 1.524 . S
C529 C530 1.415 . S
C530 H506 0.950 . S
C530 C525 1.363 . S
C530 C529 1.415 . S
C531 H507 0.951 . S
C531 C532 1.366 . S
C531 C533 1.388 . S
C532 C531 1.366 . S
C532 C536 1.385 . S
C533 H508 0.951 . S
C533 C531 1.388 . S
C533 C534 1.366 . S
C534 C533 1.366 . S
C534 C535 1.414 . S
C534 C537 1.499 . S
C535 H509 0.950 . S
C535 C534 1.414 . S
C535 C536 1.374 . S
C536 H510 0.950 . S
C536 C532 1.385 . S
C536 C535 1.374 . S
C537 C534 1.499 . S
C537 C538 1.373 . S
C537 C539 1.389 . S
C538 H511 0.950 . S
C538 C524 1.377 . S
C538 C537 1.373 . S
C539 C523 1.377 . S
C539 C537 1.389 . S
C539 C540 1.524 . S
C540 C539 1.524 . S
C540 C541 1.397 . S
C540 C545 1.363 . S
C541 H512 0.950 . S
C541 C540 1.397 . S
C541 C542 1.334 . S
C542 H513 0.950 . S
C542 C541 1.334 . S
C542 C543 1.287 . S
C543 C542 1.287 . S
C543 C544 1.524 . S
C543 H546 0.999 . S
C544 H514 0.950 . S
C544 C543 1.524 . S
C544 C545 1.415 . S
C545 H515 0.950 . S
C545 C540 1.363 . S
C545 C544 1.415 . S
H546 C543 0.999 . S
H547 C528 0.913 . S
H548 C566 0.951 . S
H549 C568 0.951 . S
H550 C570 0.950 . S
H551 C571 0.950 . S
H552 C573 0.950 . S
H553 C576 0.950 . S
H554 C577 0.950 . S
H555 C579 0.950 . S
H556 C580 0.950 . S
H557 C581 0.951 1_455 S
H558 C583 0.951 . S
H559 C585 0.950 . S
H560 C586 0.950 . S
H561 C588 0.950 . S
H562 C591 0.950 . S
H563 C592 0.950 . S
H564 C594 0.950 . S
H565 C595 0.950 . S
C566 H548 0.951 . S
C566 C567 1.366 . S
C566 C568 1.388 . S
C567 C566 1.366 . S
C567 C571 1.385 . S
C568 H549 0.951 . S
C568 C566 1.388 . S
C568 C569 1.366 . S
C569 C568 1.366 . S
C569 C570 1.414 . S
C569 C572 1.499 . S
C570 H550 0.950 . S
C570 C569 1.414 . S
C570 C571 1.374 . S
C571 H551 0.950 . S
C571 C567 1.385 . S
C571 C570 1.374 . S
C572 C569 1.499 . S
C572 C573 1.373 . S
C572 C574 1.389 . S
C573 H552 0.950 . S
C573 C572 1.373 . S
C573 C589 1.377 . S
C574 C572 1.389 . S
C574 C575 1.524 . S
C574 C588 1.377 . S
C575 C574 1.524 . S
C575 C576 1.397 . S
C575 C580 1.363 . S
C576 H553 0.950 . S
C576 C575 1.397 . S
C576 C577 1.334 . S
C577 H554 0.950 . S
C577 C576 1.334 . S
C577 C578 1.287 . S
C578 C577 1.287 . S
C578 C579 1.524 . S
C578 H597 0.913 . S
C579 H555 0.950 . S
C579 C578 1.524 . S
C579 C580 1.415 . S
C580 H556 0.950 . S
C580 C575 1.363 . S
C580 C579 1.415 . S
C581 H557 0.951 1_655 S
C581 C582 1.366 . S
C581 C583 1.388 . S
C582 C581 1.366 . S
C582 C586 1.385 . S
C583 H558 0.951 . S
C583 C581 1.388 . S
C583 C584 1.366 . S
C584 C583 1.366 . S
C584 C585 1.414 . S
C584 C587 1.499 . S
C585 H559 0.950 . S
C585 C584 1.414 . S
C585 C586 1.374 . S
C586 H560 0.950 . S
C586 C582 1.385 . S
C586 C585 1.374 . S
C587 C584 1.499 . S
C587 C588 1.373 . S
C587 C589 1.389 . S
C588 H561 0.950 . S
C588 C574 1.377 . S
C588 C587 1.373 . S
C589 C573 1.377 . S
C589 C587 1.389 . S
C589 C590 1.524 . S
C590 C589 1.524 . S
C590 C591 1.397 . S
C590 C595 1.363 . S
C591 H562 0.950 . S
C591 C590 1.397 . S
C591 C592 1.334 . S
C592 H563 0.950 . S
C592 C591 1.334 . S
C592 C593 1.287 . S
C593 C592 1.287 . S
C593 C594 1.524 . S
C593 H596 0.999 . S
C594 H564 0.950 . S
C594 C593 1.524 . S
C594 C595 1.415 . S
C595 H565 0.950 . S
C595 C590 1.363 . S
C595 C594 1.415 . S
H596 C593 0.999 . S
H597 C578 0.913 . S
H598 C616 0.951 . S
H599 C618 0.951 . S
H600 C620 0.950 . S
H601 C621 0.950 . S
H602 C623 0.950 . S
H603 C626 0.950 . S
H604 C627 0.950 . S
H605 C629 0.950 . S
H606 C630 0.950 . S
H607 C631 0.951 . S
H608 C633 0.951 . S
H609 C635 0.950 . S
H610 C636 0.950 . S
H611 C638 0.950 . S
H612 C641 0.950 . S
H613 C642 0.950 . S
H614 C644 0.950 . S
H615 C645 0.950 . S
C616 H598 0.951 . S
C616 C617 1.366 . S
C616 C618 1.388 . S
C617 C616 1.366 . S
C617 C621 1.385 . S
C618 H599 0.951 . S
C618 C616 1.388 . S
C618 C619 1.366 . S
C619 C618 1.366 . S
C619 C620 1.414 . S
C619 C622 1.499 . S
C620 H600 0.950 . S
C620 C619 1.414 . S
C620 C621 1.374 . S
C621 H601 0.950 . S
C621 C617 1.385 . S
C621 C620 1.374 . S
C622 C619 1.499 . S
C622 C623 1.373 . S
C622 C624 1.389 . S
C623 H602 0.950 . S
C623 C622 1.373 . S
C623 C639 1.377 . S
C624 C622 1.389 . S
C624 C625 1.524 . S
C624 C638 1.377 . S
C625 C624 1.524 . S
C625 C626 1.397 . S
C625 C630 1.363 . S
C626 H603 0.950 . S
C626 C625 1.397 . S
C626 C627 1.334 . S
C627 H604 0.950 . S
C627 C626 1.334 . S
C627 C628 1.287 . S
C628 C627 1.287 . S
C628 C629 1.524 . S
C628 H647 0.913 . S
C629 H605 0.950 . S
C629 C628 1.524 . S
C629 C630 1.415 . S
C630 H606 0.950 . S
C630 C625 1.363 . S
C630 C629 1.415 . S
C631 H607 0.951 . S
C631 C632 1.366 . S
C631 C633 1.388 . S
C632 C631 1.366 . S
C632 C636 1.385 . S
C633 H608 0.951 . S
C633 C631 1.388 . S
C633 C634 1.366 . S
C634 C633 1.366 . S
C634 C635 1.414 . S
C634 C637 1.499 . S
C635 H609 0.950 . S
C635 C634 1.414 . S
C635 C636 1.374 . S
C636 H610 0.950 . S
C636 C632 1.385 . S
C636 C635 1.374 . S
C637 C634 1.499 . S
C637 C638 1.373 . S
C637 C639 1.389 . S
C638 H611 0.950 . S
C638 C624 1.377 . S
C638 C637 1.373 . S
C639 C623 1.377 . S
C639 C637 1.389 . S
C639 C640 1.524 . S
C640 C639 1.524 . S
C640 C641 1.397 . S
C640 C645 1.363 . S
C641 H612 0.950 . S
C641 C640 1.397 . S
C641 C642 1.334 . S
C642 H613 0.950 . S
C642 C641 1.334 . S
C642 C643 1.287 . S
C643 C642 1.287 . S
C643 C644 1.524 . S
C643 H646 0.999 . S
C644 H614 0.950 . S
C644 C643 1.524 . S
C644 C645 1.415 . S
C645 H615 0.950 . S
C645 C640 1.363 . S
C645 C644 1.415 . S
H646 C643 0.999 . S
H647 C628 0.913 . S
H648 C666 0.951 . S
H649 C668 0.951 . S
H650 C670 0.950 . S
H651 C671 0.950 . S
H652 C673 0.950 . S
H653 C676 0.950 . S
H654 C677 0.950 . S
H655 C679 0.950 . S
H656 C680 0.950 . S
H657 C681 0.951 . S
H658 C683 0.951 . S
H659 C685 0.950 . S
H660 C686 0.950 . S
H661 C688 0.950 . S
H662 C691 0.950 . S
H663 C692 0.950 . S
H664 C694 0.950 . S
H665 C695 0.950 . S
C666 H648 0.951 . S
C666 C667 1.366 . S
C666 C668 1.388 . S
C667 C666 1.366 . S
C667 C671 1.385 . S
C668 H649 0.951 . S
C668 C666 1.388 . S
C668 C669 1.366 . S
C669 C668 1.366 . S
C669 C670 1.414 . S
C669 C672 1.499 . S
C670 H650 0.950 . S
C670 C669 1.414 . S
C670 C671 1.374 . S
C671 H651 0.950 . S
C671 C667 1.385 . S
C671 C670 1.374 . S
C672 C669 1.499 . S
C672 C673 1.373 . S
C672 C674 1.389 . S
C673 H652 0.950 . S
C673 C672 1.373 . S
C673 C689 1.377 . S
C674 C672 1.389 . S
C674 C675 1.524 . S
C674 C688 1.377 . S
C675 C674 1.524 . S
C675 C676 1.397 . S
C675 C680 1.363 . S
C676 H653 0.950 . S
C676 C675 1.397 . S
C676 C677 1.334 . S
C677 H654 0.950 . S
C677 C676 1.334 . S
C677 C678 1.287 . S
C678 C677 1.287 . S
C678 C679 1.524 . S
C678 H697 0.913 . S
C679 H655 0.950 . S
C679 C678 1.524 . S
C679 C680 1.415 . S
C680 H656 0.950 . S
C680 C675 1.363 . S
C680 C679 1.415 . S
C681 H657 0.951 . S
C681 C682 1.366 . S
C681 C683 1.388 . S
C682 C681 1.366 . S
C682 C686 1.385 . S
C683 H658 0.951 . S
C683 C681 1.388 . S
C683 C684 1.366 . S
C684 C683 1.366 . S
C684 C685 1.414 . S
C684 C687 1.499 . S
C685 H659 0.950 . S
C685 C684 1.414 . S
C685 C686 1.374 . S
C686 H660 0.950 . S
C686 C682 1.385 . S
C686 C685 1.374 . S
C687 C684 1.499 . S
C687 C688 1.373 . S
C687 C689 1.389 . S
C688 H661 0.950 . S
C688 C674 1.377 . S
C688 C687 1.373 . S
C689 C673 1.377 . S
C689 C687 1.389 . S
C689 C690 1.524 . S
C690 C689 1.524 . S
C690 C691 1.397 . S
C690 C695 1.363 . S
C691 H662 0.950 . S
C691 C690 1.397 . S
C691 C692 1.334 . S
C692 H663 0.950 . S
C692 C691 1.334 . S
C692 C693 1.287 . S
C693 C692 1.287 . S
C693 C694 1.524 . S
C693 H696 0.999 . S
C694 H664 0.950 . S
C694 C693 1.524 . S
C694 C695 1.415 . S
C695 H665 0.950 . S
C695 C690 1.363 . S
C695 C694 1.415 . S
H696 C693 0.999 . S
H697 C678 0.913 . S
H698 C716 0.951 . S
H699 C718 0.951 . S
H700 C720 0.950 . S
H701 C721 0.950 . S
H702 C723 0.950 . S
H703 C726 0.950 . S
H704 C727 0.950 . S
H705 C729 0.950 . S
H706 C730 0.950 . S
H707 C731 0.951 . S
H708 C733 0.951 . S
H709 C735 0.950 . S
H710 C736 0.950 . S
H711 C738 0.950 . S
H712 C741 0.950 . S
H713 C742 0.950 . S
H714 C744 0.950 . S
H715 C745 0.950 . S
C716 H698 0.951 . S
C716 C717 1.366 . S
C716 C718 1.388 . S
C717 C716 1.366 . S
C717 C721 1.385 . S
C718 H699 0.951 . S
C718 C716 1.388 . S
C718 C719 1.366 . S
C719 C718 1.366 . S
C719 C720 1.414 . S
C719 C722 1.499 . S
C720 H700 0.950 . S
C720 C719 1.414 . S
C720 C721 1.374 . S
C721 H701 0.950 . S
C721 C717 1.385 . S
C721 C720 1.374 . S
C722 C719 1.499 . S
C722 C723 1.373 . S
C722 C724 1.389 . S
C723 H702 0.950 . S
C723 C722 1.373 . S
C723 C739 1.377 . S
C724 C722 1.389 . S
C724 C725 1.524 . S
C724 C738 1.377 . S
C725 C724 1.524 . S
C725 C726 1.397 . S
C725 C730 1.363 . S
C726 H703 0.950 . S
C726 C725 1.397 . S
C726 C727 1.334 . S
C727 H704 0.950 . S
C727 C726 1.334 . S
C727 C728 1.287 . S
C728 C727 1.287 . S
C728 C729 1.524 . S
C728 H747 0.913 . S
C729 H705 0.950 . S
C729 C728 1.524 . S
C729 C730 1.415 . S
C730 H706 0.950 . S
C730 C725 1.363 . S
C730 C729 1.415 . S
C731 H707 0.951 . S
C731 C732 1.366 . S
C731 C733 1.388 . S
C732 C731 1.366 . S
C732 C736 1.385 . S
C733 H708 0.951 . S
C733 C731 1.388 . S
C733 C734 1.366 . S
C734 C733 1.366 . S
C734 C735 1.414 . S
C734 C737 1.499 . S
C735 H709 0.950 . S
C735 C734 1.414 . S
C735 C736 1.374 . S
C736 H710 0.950 . S
C736 C732 1.385 . S
C736 C735 1.374 . S
C737 C734 1.499 . S
C737 C738 1.373 . S
C737 C739 1.389 . S
C738 H711 0.950 . S
C738 C724 1.377 . S
C738 C737 1.373 . S
C739 C723 1.377 . S
C739 C737 1.389 . S
C739 C740 1.524 . S
C740 C739 1.524 . S
C740 C741 1.397 . S
C740 C745 1.363 . S
C741 H712 0.950 . S
C741 C740 1.397 . S
C741 C742 1.334 . S
C742 H713 0.950 . S
C742 C741 1.334 . S
C742 C743 1.287 . S
C743 C742 1.287 . S
C743 C744 1.524 . S
C743 H746 0.999 . S
C744 H714 0.950 . S
C744 C743 1.524 . S
C744 C745 1.415 . S
C745 H715 0.950 . S
C745 C740 1.363 . S
C745 C744 1.415 . S
H746 C743 0.999 . S
H747 C728 0.913 . S
H748 C766 0.951 . S
H749 C768 0.951 . S
H750 C770 0.950 . S
H751 C771 0.950 . S
H752 C773 0.950 . S
H753 C776 0.950 . S
H754 C777 0.950 . S
H755 C779 0.950 . S
H756 C780 0.950 . S
H757 C781 0.951 . S
H758 C783 0.951 . S
H759 C785 0.950 . S
H760 C786 0.950 . S
H761 C788 0.950 . S
H762 C791 0.950 . S
H763 C792 0.950 . S
H764 C794 0.950 . S
H765 C795 0.950 . S
C766 H748 0.951 . S
C766 C767 1.366 . S
C766 C768 1.388 . S
C767 C766 1.366 . S
C767 C771 1.385 . S
C768 H749 0.951 . S
C768 C766 1.388 . S
C768 C769 1.366 . S
C769 C768 1.366 . S
C769 C770 1.414 . S
C769 C772 1.499 . S
C770 H750 0.950 . S
C770 C769 1.414 . S
C770 C771 1.374 . S
C771 H751 0.950 . S
C771 C767 1.385 . S
C771 C770 1.374 . S
C772 C769 1.499 . S
C772 C773 1.373 . S
C772 C774 1.389 . S
C773 H752 0.950 . S
C773 C772 1.373 . S
C773 C789 1.377 . S
C774 C772 1.389 . S
C774 C775 1.524 . S
C774 C788 1.377 . S
C775 C774 1.524 . S
C775 C776 1.397 . S
C775 C780 1.363 . S
C776 H753 0.950 . S
C776 C775 1.397 . S
C776 C777 1.334 . S
C777 H754 0.950 . S
C777 C776 1.334 . S
C777 C778 1.287 . S
C778 C777 1.287 . S
C778 C779 1.524 . S
C778 H797 0.913 . S
C779 H755 0.950 . S
C779 C778 1.524 . S
C779 C780 1.415 . S
C780 H756 0.950 . S
C780 C775 1.363 . S
C780 C779 1.415 . S
C781 H757 0.951 . S
C781 C782 1.366 . S
C781 C783 1.388 . S
C782 C781 1.366 . S
C782 C786 1.385 . S
C783 H758 0.951 . S
C783 C781 1.388 . S
C783 C784 1.366 . S
C784 C783 1.366 . S
C784 C785 1.414 . S
C784 C787 1.499 . S
C785 H759 0.950 . S
C785 C784 1.414 . S
C785 C786 1.374 . S
C786 H760 0.950 . S
C786 C782 1.385 . S
C786 C785 1.374 . S
C787 C784 1.499 . S
C787 C788 1.373 . S
C787 C789 1.389 . S
C788 H761 0.950 . S
C788 C774 1.377 . S
C788 C787 1.373 . S
C789 C773 1.377 . S
C789 C787 1.389 . S
C789 C790 1.524 . S
C790 C789 1.524 . S
C790 C791 1.397 . S
C790 C795 1.363 . S
C791 H762 0.950 . S
C791 C790 1.397 . S
C791 C792 1.334 . S
C792 H763 0.950 . S
C792 C791 1.334 . S
C792 C793 1.287 . S
C793 C792 1.287 . S
C793 C794 1.524 . S
C793 H796 0.999 . S
C794 H764 0.950 . S
C794 C793 1.524 . S
C794 C795 1.415 . S
C795 H765 0.950 . S
C795 C790 1.363 . S
C795 C794 1.415 . S
H796 C793 0.999 . S
H797 C778 0.913 . S
H798 C816 0.951 . S
H799 C818 0.951 . S
H800 C820 0.950 . S
H801 C821 0.950 . S
H802 C823 0.950 . S
H803 C826 0.950 . S
H804 C827 0.950 . S
H805 C829 0.950 . S
H806 C830 0.950 . S
H807 C831 0.951 . S
H808 C833 0.951 . S
H809 C835 0.950 . S
H810 C836 0.950 . S
H811 C838 0.962 . S
H812 C841 0.950 . S
H813 C842 0.950 . S
H814 C844 0.950 . S
H815 C845 0.950 . S
C816 H798 0.951 . S
C816 C817 1.366 . S
C816 C818 1.388 . S
C817 C816 1.366 . S
C817 C821 1.385 1_455 S
C818 H799 0.951 . S
C818 C816 1.388 . S
C818 C819 1.366 . S
C819 C818 1.366 . S
C819 C820 1.414 1_455 S
C819 C822 1.499 . S
C820 H800 0.950 . S
C820 C819 1.414 1_655 S
C820 C821 1.374 . S
C821 H801 0.950 . S
C821 C817 1.385 1_655 S
C821 C820 1.374 . S
C822 C819 1.499 . S
C822 C823 1.373 . S
C822 C824 1.389 . S
C823 H802 0.950 . S
C823 C822 1.373 . S
C823 C839 1.377 . S
C824 C822 1.389 . S
C824 C825 1.524 . S
C824 C838 1.354 1_554 S
C825 C824 1.524 . S
C825 C826 1.397 1_455 S
C825 C830 1.363 . S
C826 H803 0.950 . S
C826 C825 1.397 1_655 S
C826 C827 1.334 . S
C827 H804 0.950 . S
C827 C826 1.334 . S
C827 C828 1.287 1_655 S
C828 C827 1.287 1_455 S
C828 C829 1.524 . S
C828 H847 0.913 . S
C829 H805 0.950 . S
C829 C828 1.524 . S
C829 C830 1.415 . S
C830 H806 0.950 . S
C830 C825 1.363 . S
C830 C829 1.415 . S
C831 H807 0.951 . S
C831 C832 1.366 1_655 S
C831 C833 1.388 . S
C832 C831 1.366 1_455 S
C832 C836 1.385 . S
C833 H808 0.951 . S
C833 C831 1.388 . S
C833 C834 1.366 1_655 S
C834 C833 1.366 1_455 S
C834 C835 1.414 . S
C834 C837 1.499 . S
C835 H809 0.950 . S
C835 C834 1.414 . S
C835 C836 1.374 . S
C836 H810 0.950 . S
C836 C832 1.385 . S
C836 C835 1.374 . S
C837 C834 1.499 . S
C837 C838 1.384 . S
C837 C839 1.389 1_556 S
C838 H811 0.962 . S
C838 C824 1.354 1_556 S
C838 C837 1.384 . S
C839 C823 1.377 . S
C839 C837 1.389 1_554 S
C839 C840 1.524 1_554 S
C840 C839 1.524 1_556 S
C840 C841 1.397 . S
C840 C845 1.363 1_456 S
C841 H812 0.950 . S
C841 C840 1.397 . S
C841 C842 1.334 . S
C842 H813 0.950 . S
C842 C841 1.334 . S
C842 C843 1.287 . S
C843 C842 1.287 . S
C843 C844 1.524 1_455 S
C843 H846 0.999 . S
C844 H814 0.950 . S
C844 C843 1.524 1_655 S
C844 C845 1.415 1_556 S
C845 H815 0.950 . S
C845 C840 1.363 1_654 S
C845 C844 1.415 1_554 S
H846 C843 0.999 . S
H847 C828 0.913 . S
H848 C866 0.951 . S
H849 C868 0.951 . S
H850 C870 0.950 . S
H851 C871 0.950 . S
H852 C873 0.950 . S
H853 C876 0.950 . S
H854 C877 0.950 . S
H855 C879 0.950 . S
H856 C880 0.950 . S
H857 C881 0.951 . S
H858 C883 0.951 . S
H859 C885 0.950 . S
H860 C886 0.950 . S
H861 C888 0.950 1_565 S
H862 C891 0.950 . S
H863 C892 0.950 . S
H864 C894 0.950 . S
H865 C895 0.950 . S
C866 H848 0.951 . S
C866 C867 1.366 . S
C866 C868 1.388 . S
C867 C866 1.366 . S
C867 C871 1.385 . S
C868 H849 0.951 . S
C868 C866 1.388 . S
C868 C869 1.366 . S
C869 C868 1.366 . S
C869 C870 1.414 . S
C869 C872 1.499 . S
C870 H850 0.950 . S
C870 C869 1.414 . S
C870 C871 1.374 . S
C871 H851 0.950 . S
C871 C867 1.385 . S
C871 C870 1.374 . S
C872 C869 1.499 . S
C872 C873 1.373 . S
C872 C874 1.389 . S
C873 H852 0.950 . S
C873 C872 1.373 . S
C873 C889 1.377 . S
C874 C872 1.389 . S
C874 C875 1.524 1_545 S
C874 C888 1.377 . S
C875 C874 1.524 1_565 S
C875 C876 1.397 . S
C875 C880 1.363 . S
C876 H853 0.950 . S
C876 C875 1.397 . S
C876 C877 1.334 . S
C877 H854 0.950 . S
C877 C876 1.334 . S
C877 C878 1.287 . S
C878 C877 1.287 . S
C878 C879 1.524 . S
C878 H897 0.913 . S
C879 H855 0.950 . S
C879 C878 1.524 . S
C879 C880 1.415 . S
C880 H856 0.950 . S
C880 C875 1.363 . S
C880 C879 1.415 . S
C881 H857 0.951 . S
C881 C882 1.366 . S
C881 C883 1.388 . S
C882 C881 1.366 . S
C882 C886 1.385 . S
C883 H858 0.951 . S
C883 C881 1.388 . S
C883 C884 1.366 . S
C884 C883 1.366 . S
C884 C885 1.414 . S
C884 C887 1.499 . S
C885 H859 0.950 . S
C885 C884 1.414 . S
C885 C886 1.374 . S
C886 H860 0.950 . S
C886 C882 1.385 . S
C886 C885 1.374 . S
C887 C884 1.499 . S
C887 C888 1.373 . S
C887 C889 1.389 . S
C888 H861 0.950 1_545 S
C888 C874 1.377 . S
C888 C887 1.373 . S
C889 C873 1.377 . S
C889 C887 1.389 . S
C889 C890 1.524 . S
C890 C889 1.524 . S
C890 C891 1.397 . S
C890 C895 1.363 . S
C891 H862 0.950 . S
C891 C890 1.397 . S
C891 C892 1.334 . S
C892 H863 0.950 . S
C892 C891 1.334 . S
C892 C893 1.287 . S
C893 C892 1.287 . S
C893 C894 1.524 . S
C893 H896 0.999 . S
C894 H864 0.950 . S
C894 C893 1.524 . S
C894 C895 1.415 . S
C895 H865 0.950 . S
C895 C890 1.363 . S
C895 C894 1.415 . S
H896 C893 0.999 . S
H897 C878 0.913 . S
H898 C916 0.951 . S
H899 C918 0.951 . S
H900 C920 0.950 . S
H901 C921 0.950 . S
H902 C923 0.950 . S
H903 C926 0.950 . S
H904 C927 0.950 . S
H905 C929 0.950 . S
H906 C930 0.950 . S
H907 C931 0.951 . S
H908 C933 0.951 . S
H909 C935 0.950 . S
H910 C936 0.950 . S
H911 C938 0.950 . S
H912 C941 0.950 . S
H913 C942 0.950 . S
H914 C944 0.950 . S
H915 C945 0.950 . S
C916 H898 0.951 . S
C916 C917 1.366 . S
C916 C918 1.388 . S
C917 C916 1.366 . S
C917 C921 1.385 . S
C918 H899 0.951 . S
C918 C916 1.388 . S
C918 C919 1.366 . S
C919 C918 1.366 . S
C919 C920 1.414 . S
C919 C922 1.499 . S
C920 H900 0.950 . S
C920 C919 1.414 . S
C920 C921 1.374 . S
C921 H901 0.950 . S
C921 C917 1.385 . S
C921 C920 1.374 . S
C922 C919 1.499 . S
C922 C923 1.373 . S
C922 C924 1.389 . S
C923 H902 0.950 . S
C923 C922 1.373 . S
C923 C939 1.377 . S
C924 C922 1.389 . S
C924 C925 1.524 . S
C924 C938 1.377 . S
C925 C924 1.524 . S
C925 C926 1.397 . S
C925 C930 1.363 . S
C926 H903 0.950 . S
C926 C925 1.397 . S
C926 C927 1.334 . S
C927 H904 0.950 . S
C927 C926 1.334 . S
C927 C928 1.287 . S
C928 C927 1.287 . S
C928 C929 1.524 . S
C928 H947 0.913 . S
C929 H905 0.950 . S
C929 C928 1.524 . S
C929 C930 1.415 . S
C930 H906 0.950 . S
C930 C925 1.363 . S
C930 C929 1.415 . S
C931 H907 0.951 . S
C931 C932 1.366 . S
C931 C933 1.388 . S
C932 C931 1.366 . S
C932 C936 1.385 . S
C933 H908 0.951 . S
C933 C931 1.388 . S
C933 C934 1.366 . S
C934 C933 1.366 . S
C934 C935 1.414 . S
C934 C937 1.499 . S
C935 H909 0.950 . S
C935 C934 1.414 . S
C935 C936 1.374 . S
C936 H910 0.950 . S
C936 C932 1.385 . S
C936 C935 1.374 . S
C937 C934 1.499 . S
C937 C938 1.373 . S
C937 C939 1.389 . S
C938 H911 0.950 . S
C938 C924 1.377 . S
C938 C937 1.373 . S
C939 C923 1.377 . S
C939 C937 1.389 . S
C939 C940 1.524 . S
C940 C939 1.524 . S
C940 C941 1.397 . S
C940 C945 1.363 . S
C941 H912 0.950 . S
C941 C940 1.397 . S
C941 C942 1.334 . S
C942 H913 0.950 . S
C942 C941 1.334 . S
C942 C943 1.287 . S
C943 C942 1.287 . S
C943 C944 1.524 . S
C943 H946 0.999 . S
C944 H914 0.950 . S
C944 C943 1.524 . S
C944 C945 1.415 . S
C945 H915 0.950 . S
C945 C940 1.363 . S
C945 C944 1.415 . S
H946 C943 0.999 . S
H947 C928 0.913 . S
H948 C966 0.951 . S
H949 C968 0.951 . S
H950 C970 0.950 . S
H951 C971 0.950 . S
H952 C973 0.950 . S
H953 C976 0.950 . S
H954 C977 0.950 . S
H955 C979 0.950 . S
H956 C980 0.950 . S
H957 C981 0.951 . S
H958 C983 0.951 . S
H959 C985 0.950 . S
H960 C986 0.950 . S
H961 C988 0.950 . S
H962 C991 0.950 . S
H963 C992 0.950 . S
H964 C994 0.950 . S
H965 C995 0.950 . S
C966 H948 0.951 . S
C966 C967 1.366 . S
C966 C968 1.388 . S
C967 C966 1.366 . S
C967 C971 1.385 . S
C968 H949 0.951 . S
C968 C966 1.388 . S
C968 C969 1.366 . S
C969 C968 1.366 . S
C969 C970 1.414 . S
C969 C972 1.499 . S
C970 H950 0.950 . S
C970 C969 1.414 . S
C970 C971 1.374 . S
C971 H951 0.950 . S
C971 C967 1.385 . S
C971 C970 1.374 . S
C972 C969 1.499 . S
C972 C973 1.373 . S
C972 C974 1.389 1_545 S
C973 H952 0.950 . S
C973 C972 1.373 . S
C973 C989 1.377 . S
C974 C972 1.389 1_565 S
C974 C975 1.524 . S
C974 C988 1.377 . S
C975 C974 1.524 . S
C975 C976 1.397 . S
C975 C980 1.363 . S
C976 H953 0.950 . S
C976 C975 1.397 . S
C976 C977 1.334 . S
C977 H954 0.950 . S
C977 C976 1.334 . S
C977 C978 1.287 . S
C978 C977 1.287 . S
C978 C979 1.524 . S
C978 H997 0.913 . S
C979 H955 0.950 . S
C979 C978 1.524 . S
C979 C980 1.415 . S
C980 H956 0.950 . S
C980 C975 1.363 . S
C980 C979 1.415 . S
C981 H957 0.951 . S
C981 C982 1.366 . S
C981 C983 1.388 . S
C982 C981 1.366 . S
C982 C986 1.385 . S
C983 H958 0.951 . S
C983 C981 1.388 . S
C983 C984 1.366 . S
C984 C983 1.366 . S
C984 C985 1.414 . S
C984 C987 1.499 . S
C985 H959 0.950 . S
C985 C984 1.414 . S
C985 C986 1.374 . S
C986 H960 0.950 . S
C986 C982 1.385 . S
C986 C985 1.374 . S
C987 C984 1.499 . S
C987 C988 1.373 1_545 S
C987 C989 1.389 . S
C988 H961 0.950 . S
C988 C974 1.377 . S
C988 C987 1.373 1_565 S
C989 C973 1.377 . S
C989 C987 1.389 . S
C989 C990 1.524 . S
C990 C989 1.524 . S
C990 C991 1.397 . S
C990 C995 1.363 . S
C991 H962 0.950 . S
C991 C990 1.397 . S
C991 C992 1.334 . S
C992 H963 0.950 . S
C992 C991 1.334 . S
C992 C993 1.287 . S
C993 C992 1.287 . S
C993 C994 1.524 . S
C993 H996 0.999 . S
C994 H964 0.950 . S
C994 C993 1.524 . S
C994 C995 1.415 . S
C995 H965 0.950 . S
C995 C990 1.363 . S
C995 C994 1.415 . S
H996 C993 0.999 . S
H997 C978 0.913 . S
H998 C1016 0.951 . S
H999 C1018 0.951 . S
H1000 C1020 0.950 . S
H1001 C1021 0.950 . S
H1002 C1023 0.950 . S
H1003 C1026 0.950 . S
H1004 C1027 0.950 . S
H1005 C1029 0.950 . S
H1006 C1030 0.950 . S
H1007 C1031 0.951 . S
H1008 C1033 0.951 . S
H1009 C1035 0.950 . S
H1010 C1036 0.950 . S
H1011 C1038 0.950 . S
H1012 C1041 0.950 . S
H1013 C1042 0.950 . S
H1014 C1044 0.950 . S
H1015 C1045 0.950 1_556 S
C1016 H998 0.951 . S
C1016 C1017 1.366 . S
C1016 C1018 1.388 . S
C1017 C1016 1.366 . S
C1017 C1021 1.385 . S
C1018 H999 0.951 . S
C1018 C1016 1.388 . S
C1018 C1019 1.366 . S
C1019 C1018 1.366 . S
C1019 C1020 1.414 . S
C1019 C1022 1.499 . S
C1020 H1000 0.950 . S
C1020 C1019 1.414 . S
C1020 C1021 1.374 . S
C1021 H1001 0.950 . S
C1021 C1017 1.385 . S
C1021 C1020 1.374 . S
C1022 C1019 1.499 . S
C1022 C1023 1.373 . S
C1022 C1024 1.389 . S
C1023 H1002 0.950 . S
C1023 C1022 1.373 . S
C1023 C1039 1.377 1_556 S
C1024 C1022 1.389 . S
C1024 C1025 1.524 . S
C1024 C1038 1.377 1_556 S
C1025 C1024 1.524 . S
C1025 C1026 1.397 . S
C1025 C1030 1.363 . S
C1026 H1003 0.950 . S
C1026 C1025 1.397 . S
C1026 C1027 1.334 . S
C1027 H1004 0.950 . S
C1027 C1026 1.334 . S
C1027 C1028 1.287 . S
C1028 C1027 1.287 . S
C1028 C1029 1.524 . S
C1028 H1047 0.913 . S
C1029 H1005 0.950 . S
C1029 C1028 1.524 . S
C1029 C1030 1.415 . S
C1030 H1006 0.950 . S
C1030 C1025 1.363 . S
C1030 C1029 1.415 . S
C1031 H1007 0.951 . S
C1031 C1032 1.366 . S
C1031 C1033 1.388 . S
C1032 C1031 1.366 . S
C1032 C1036 1.385 . S
C1033 H1008 0.951 . S
C1033 C1031 1.388 . S
C1033 C1034 1.366 . S
C1034 C1033 1.366 . S
C1034 C1035 1.414 . S
C1034 C1037 1.499 . S
C1035 H1009 0.950 . S
C1035 C1034 1.414 . S
C1035 C1036 1.374 . S
C1036 H1010 0.950 . S
C1036 C1032 1.385 . S
C1036 C1035 1.374 . S
C1037 C1034 1.499 . S
C1037 C1038 1.373 . S
C1037 C1039 1.389 . S
C1038 H1011 0.950 . S
C1038 C1024 1.377 1_554 S
C1038 C1037 1.373 . S
C1039 C1023 1.377 1_554 S
C1039 C1037 1.389 . S
C1039 C1040 1.524 . S
C1040 C1039 1.524 . S
C1040 C1041 1.397 . S
C1040 C1045 1.363 . S
C1041 H1012 0.950 . S
C1041 C1040 1.397 . S
C1041 C1042 1.334 . S
C1042 H1013 0.950 . S
C1042 C1041 1.334 . S
C1042 C1043 1.287 . S
C1043 C1042 1.287 . S
C1043 C1044 1.524 . S
C1043 H1046 0.999 . S
C1044 H1014 0.950 . S
C1044 C1043 1.524 . S
C1044 C1045 1.415 . S
C1045 H1015 0.950 1_554 S
C1045 C1040 1.363 . S
C1045 C1044 1.415 . S
H1046 C1043 0.999 . S
H1047 C1028 0.913 . S
H1048 C1066 0.951 . S
H1049 C1068 0.951 . S
H1050 C1070 0.950 1_655 S
H1051 C1071 0.950 1_655 S
H1052 C1073 0.950 1_655 S
H1053 C1076 0.950 . S
H1054 C1077 0.950 . S
H1055 C1079 0.950 . S
H1056 C1080 0.950 . S
H1057 C1081 0.951 . S
H1058 C1083 0.951 . S
H1059 C1085 0.950 . S
H1060 C1086 0.950 . S
H1061 C1088 0.950 . S
H1062 C1091 0.950 . S
H1063 C1092 0.950 . S
H1064 C1094 0.950 . S
H1065 C1095 0.950 . S
C1066 H1048 0.951 . S
C1066 C1067 1.366 . S
C1066 C1068 1.388 . S
C1067 C1066 1.366 . S
C1067 C1071 1.385 . S
C1068 H1049 0.951 . S
C1068 C1066 1.388 . S
C1068 C1069 1.366 . S
C1069 C1068 1.366 . S
C1069 C1070 1.414 . S
C1069 C1072 1.499 . S
C1070 H1050 0.950 1_455 S
C1070 C1069 1.414 . S
C1070 C1071 1.374 . S
C1071 H1051 0.950 1_455 S
C1071 C1067 1.385 . S
C1071 C1070 1.374 . S
C1072 C1069 1.499 . S
C1072 C1073 1.373 . S
C1072 C1074 1.389 . S
C1073 H1052 0.950 1_455 S
C1073 C1072 1.373 . S
C1073 C1089 1.377 . S
C1074 C1072 1.389 . S
C1074 C1075 1.524 . S
C1074 C1088 1.377 . S
C1075 C1074 1.524 . S
C1075 C1076 1.397 . S
C1075 C1080 1.363 . S
C1076 H1053 0.950 . S
C1076 C1075 1.397 . S
C1076 C1077 1.334 . S
C1077 H1054 0.950 . S
C1077 C1076 1.334 . S
C1077 C1078 1.287 . S
C1078 C1077 1.287 . S
C1078 C1079 1.524 . S
C1078 H1097 0.913 . S
C1079 H1055 0.950 . S
C1079 C1078 1.524 . S
C1079 C1080 1.415 . S
C1080 H1056 0.950 . S
C1080 C1075 1.363 . S
C1080 C1079 1.415 . S
C1081 H1057 0.951 . S
C1081 C1082 1.366 . S
C1081 C1083 1.388 . S
C1082 C1081 1.366 . S
C1082 C1086 1.385 . S
C1083 H1058 0.951 . S
C1083 C1081 1.388 . S
C1083 C1084 1.366 . S
C1084 C1083 1.366 . S
C1084 C1085 1.414 . S
C1084 C1087 1.499 . S
C1085 H1059 0.950 . S
C1085 C1084 1.414 . S
C1085 C1086 1.374 . S
C1086 H1060 0.950 . S
C1086 C1082 1.385 . S
C1086 C1085 1.374 . S
C1087 C1084 1.499 . S
C1087 C1088 1.373 . S
C1087 C1089 1.389 . S
C1088 H1061 0.950 . S
C1088 C1074 1.377 . S
C1088 C1087 1.373 . S
C1089 C1073 1.377 . S
C1089 C1087 1.389 . S
C1089 C1090 1.524 1_455 S
C1090 C1089 1.524 1_655 S
C1090 C1091 1.397 1_655 S
C1090 C1095 1.363 . S
C1091 H1062 0.950 . S
C1091 C1090 1.397 1_455 S
C1091 C1092 1.334 1_455 S
C1092 H1063 0.950 . S
C1092 C1091 1.334 1_655 S
C1092 C1093 1.287 . S
C1093 C1092 1.287 . S
C1093 C1094 1.524 . S
C1093 H1096 0.999 . S
C1094 H1064 0.950 . S
C1094 C1093 1.524 . S
C1094 C1095 1.415 . S
C1095 H1065 0.950 . S
C1095 C1090 1.363 . S
C1095 C1094 1.415 . S
H1096 C1093 0.999 . S
H1097 C1078 0.913 . S
C217 C10 2.611 . S
C232 N187 2.587 . S
C267 C59 2.913 . S
C282 N160 2.921 . S
C317 C90 2.829 . S
C332 N173 2.852 1_565 S
C367 C19 3.368 . S
C382 N186 3.377 . S
C432 N161 3.031 . S
C417 C50 3.019 . S
C482 N174 3.092 . S
C467 C99 3.118 . S
C517 C46 0.181 . S
C532 N134 0.158 . S
C567 C95 0.307 . S
C582 N148 0.230 . S
C617 C6 0.458 . S
C632 N122 0.443 . S
C682 N135 0.318 . S
C667 C55 0.400 . S
C732 N147 0.693 . S
C717 C86 0.696 . S
C767 C15 0.228 . S
C782 N121 0.185 . S
C832 N151 1.237 . S
C817 C9 1.219 . S
C867 C49 1.307 . S
C882 N125 1.316 . S
C917 C89 1.207 . S
C932 N138 1.242 . S
C982 N177 1.798 . S
C967 C58 1.693 . S
C1032 N190 1.713 . S
C1017 C98 1.680 . S
C1067 C18 1.686 . S
C1082 N164 1.716 . S
