# Generated by pormake.
# Topology nom, (4,4)-cn, num edge types: 1
# Building blocks:
#     Node 0, Type 0, BuildingBlock: MUDLON_clean_linker_0, # of connection points: 4
#     Node 1, Type 0, BuildingBlock: MUDLON_clean_linker_0, # of connection points: 4
#     Node 2, Type 0, BuildingBlock: MUDLON_clean_linker_0, # of connection points: 4
#     Node 3, Type 0, BuildingBlock: MUDLON_clean_linker_0, # of connection points: 4
#     Node 4, Type 0, BuildingBlock: MUDLON_clean_linker_0, # of connection points: 4
#     Node 5, Type 0, BuildingBlock: MUDLON_clean_linker_0, # of connection points: 4
#     Node 6, Type 1, BuildingBlock: GALJAG_clean_sbu_0, # of connection points: 4
#     Node 7, Type 1, BuildingBlock: GALJAG_clean_sbu_0, # of connection points: 4
#     Node 8, Type 1, BuildingBlock: GALJAG_clean_sbu_0, # of connection points: 4
#     Node 9, Type 1, BuildingBlock: GALJAG_clean_sbu_0, # of connection points: 4
#     Node 10, Type 1, BuildingBlock: GALJAG_clean_sbu_0, # of connection points: 4
#     Node 11, Type 1, BuildingBlock: GALJAG_clean_sbu_0, # of connection points: 4
#     Edge 12, Type (0, 1), None
#     Edge 13, Type (0, 1), None
#     Edge 14, Type (0, 1), None
#     Edge 15, Type (0, 1), None
#     Edge 16, Type (0, 1), None
#     Edge 17, Type (0, 1), None
#     Edge 18, Type (0, 1), None
#     Edge 19, Type (0, 1), None
#     Edge 20, Type (0, 1), None
#     Edge 21, Type (0, 1), None
#     Edge 22, Type (0, 1), None
#     Edge 23, Type (0, 1), None
#     Edge 24, Type (0, 1), None
#     Edge 25, Type (0, 1), None
#     Edge 26, Type (0, 1), None
#     Edge 27, Type (0, 1), None
#     Edge 28, Type (0, 1), None
#     Edge 29, Type (0, 1), None
#     Edge 30, Type (0, 1), None
#     Edge 31, Type (0, 1), None
#     Edge 32, Type (0, 1), None
#     Edge 33, Type (0, 1), None
#     Edge 34, Type (0, 1), None
#     Edge 35, Type (0, 1), None
# Relax obj value: 0.019
# Max RMSD: 0.122
# Mean RMSD: 0.085
data_MOF--net-nom--node1-GALJAG_clean_sbu_0--node2-MUDLON_clean_linker_0--edge1-none
_symmetry_space_group_name_H-M    P1
_symmetry_Int_Tables_number       1
_symmetry_cell_setting            triclinic
loop_
_symmetry_equiv_pos_as_xyz
'x, y, z'
_cell_length_a     35.245665
_cell_length_b     36.161296
_cell_length_c     36.153831
_cell_angle_alpha  90.330459
_cell_angle_beta   89.853925
_cell_angle_gamma 121.01961
loop_
_atom_site_label
_atom_site_type_symbol
_atom_site_fract_x
_atom_site_fract_y
_atom_site_fract_z
_atom_type_partial_charge
H0 H 0.2314 0.56069 0.33183 0.0
N1 N 0.161 0.56081 0.3571 0.0
H2 H 0.29125 0.61533 0.29362 0.0
H3 H 0.16408 0.63181 0.32671 0.0
H4 H 0.22341 0.68623 0.28778 0.0
H5 H 0.1679 0.62868 0.39675 0.0
H6 H 0.19498 0.64868 0.45997 0.0
H7 H 0.1807 0.51668 0.40373 0.0
H8 H 0.2098 0.53755 0.4669 0.0
H9 H 0.11719 0.48615 0.32157 0.0
H10 H 0.10163 0.58794 0.36718 0.0
H11 H 0.04032 0.44866 0.30014 0.0
H12 H 0.02484 0.55053 0.34653 0.0
H13 H 0.82239 0.34051 0.22635 0.0
H14 H 0.79291 0.33255 0.16342 0.0
H15 H 0.81444 0.46129 0.17066 0.0
H16 H 0.84197 0.46817 0.23361 0.0
H17 H 0.83871 0.47191 0.30362 0.0
H18 H 0.77785 0.46424 0.34249 0.0
H19 H 0.71594 0.32558 0.33647 0.0
H20 H 0.77713 0.33358 0.29849 0.0
H21 H 0.88883 0.37218 0.30362 0.0
H22 H 0.96566 0.41012 0.32519 0.0
H23 H 0.98115 0.531 0.28945 0.0
N24 N 0.84521 0.40565 0.27302 0.0
H25 H 0.90434 0.49293 0.26863 0.0
C26 C 0.19324 0.59189 0.33192 0.0
C27 C 0.22929 0.58779 0.32195 0.0
C28 C 0.2634 0.61907 0.30025 0.0
C29 C 0.26192 0.65502 0.28775 0.0
C30 C 0.22521 0.65869 0.29686 0.0
C31 C 0.19126 0.62755 0.31911 0.0
C32 C 0.17144 0.57059 0.39573 0.0
C33 C 0.17525 0.60764 0.41222 0.0
C34 C 0.19112 0.61923 0.44838 0.0
C35 C 0.20453 0.59465 0.46837 0.0
C36 C 0.19963 0.55703 0.45219 0.0
C37 C 0.18294 0.54502 0.41626 0.0
C38 C 0.11521 0.5396 0.3461 0.0
C39 C 0.09704 0.5002 0.32718 0.0
C40 C 0.05313 0.47882 0.31511 0.0
C41 C 0.02639 0.49657 0.32171 0.0
C42 C 0.04468 0.53621 0.34067 0.0
C43 C 0.08867 0.55755 0.35279 0.0
C44 C 0.83503 0.40506 0.23443 0.0
C45 C 0.82159 0.36727 0.2139 0.0
C46 C 0.80468 0.36275 0.17811 0.0
C47 C 0.80147 0.39632 0.16212 0.0
C48 C 0.81693 0.435 0.1821 0.0
C49 C 0.83307 0.43916 0.2181 0.0
C50 C 0.81247 0.40309 0.29842 0.0
C51 C 0.81249 0.43995 0.31124 0.0
C52 C 0.7777 0.43557 0.33341 0.0
C53 C 0.74215 0.39435 0.34233 0.0
C54 C 0.74279 0.35779 0.32991 0.0
C55 C 0.7777 0.3622 0.30837 0.0
C56 C 0.89084 0.42948 0.28442 0.0
C57 C 0.90897 0.40685 0.30041 0.0
C58 C 0.95286 0.42857 0.31254 0.0
C59 C 0.97959 0.4736 0.30896 0.0
C60 C 0.96131 0.49636 0.29297 0.0
C61 C 0.91733 0.47451 0.28078 0.0
H62 H 0.46387 0.80266 0.46438 0.0
N63 N 0.45331 0.86568 0.44058 0.0
H64 H 0.41326 0.7412 0.50259 0.0
H65 H 0.37664 0.85281 0.47213 0.0
H66 H 0.32582 0.7915 0.51121 0.0
H67 H 0.38286 0.85642 0.40135 0.0
H68 H 0.36391 0.83061 0.33754 0.0
H69 H 0.50219 0.85164 0.39319 0.0
H70 H 0.48296 0.82461 0.32949 0.0
H71 H 0.53151 0.91027 0.47306 0.0
H72 H 0.4205 0.91971 0.43678 0.0
H73 H 0.56814 0.98456 0.49612 0.0
H74 H 0.45719 0.99435 0.45889 0.0
H75 H 0.67153 0.19237 0.5776 0.0
H76 H 0.67783 0.22034 0.64078 0.0
H77 H 0.54717 0.2022 0.63072 0.0
H78 H 0.54206 0.17621 0.56748 0.0
H79 H 0.5374 0.17295 0.49605 0.0
H80 H 0.54304 0.22991 0.45568 0.0
H81 H 0.68535 0.29909 0.46725 0.0
H82 H 0.67949 0.24166 0.50666 0.0
H83 H 0.64138 0.13153 0.49482 0.0
H84 H 0.60336 0.05699 0.47231 0.0
H85 H 0.4799 0.03715 0.5158 0.0
N86 N 0.6067 0.17177 0.52949 0.0
H87 H 0.51801 0.11186 0.53735 0.0
C88 C 0.42415 0.83219 0.46558 0.0
C89 C 0.43401 0.80058 0.47483 0.0
C90 C 0.405 0.76555 0.49655 0.0
C91 C 0.36557 0.7616 0.50982 0.0
C92 C 0.35614 0.79396 0.50152 0.0
C93 C 0.3851 0.82892 0.4792 0.0
C94 C 0.44427 0.85637 0.40179 0.0
C95 C 0.40559 0.85096 0.38549 0.0
C96 C 0.39473 0.836 0.34902 0.0
C97 C 0.42194 0.8255 0.32855 0.0
C98 C 0.46139 0.83247 0.34454 0.0
C99 C 0.47247 0.84795 0.3808 0.0
C100 C 0.47363 0.90965 0.45305 0.0
C101 C 0.51526 0.92862 0.46989 0.0
C102 C 0.53614 0.97106 0.48285 0.0
C103 C 0.51571 0.99552 0.47916 0.0
C104 C 0.47365 0.97628 0.46246 0.0
C105 C 0.45274 0.93366 0.44952 0.0
C106 C 0.60617 0.18155 0.56807 0.0
C107 C 0.64397 0.19363 0.58946 0.0
C108 C 0.64755 0.20966 0.62541 0.0
C109 C 0.61296 0.2133 0.64071 0.0
C110 C 0.57421 0.1993 0.61983 0.0
C111 C 0.57103 0.18408 0.58367 0.0
C112 C 0.60829 0.20303 0.50408 0.0
C113 C 0.56981 0.19999 0.48941 0.0
C114 C 0.57301 0.23253 0.46635 0.0
C115 C 0.61459 0.26886 0.45841 0.0
C116 C 0.65283 0.2715 0.47298 0.0
C117 C 0.64964 0.23879 0.49537 0.0
C118 C 0.58284 0.12724 0.51798 0.0
C119 C 0.60615 0.11094 0.49957 0.0
C120 C 0.58437 0.06834 0.48689 0.0
C121 C 0.53858 0.04101 0.49241 0.0
C122 C 0.51511 0.05746 0.5108 0.0
C123 C 0.53701 0.1002 0.52347 0.0
H124 H 0.46794 0.70304 0.67104 0.0
N125 N 0.46692 0.63282 0.69301 0.0
H126 H 0.41376 0.70736 0.632 0.0
H127 H 0.39594 0.56467 0.65749 0.0
H128 H 0.3425 0.56899 0.61749 0.0
H129 H 0.39054 0.57439 0.72847 0.0
H130 H 0.3691 0.58035 0.79123 0.0
H131 H 0.51458 0.69403 0.74268 0.0
H132 H 0.49183 0.70161 0.80534 0.0
H133 H 0.53761 0.65482 0.65153 0.0
H134 H 0.43334 0.54728 0.71123 0.0
H135 H 0.56419 0.60818 0.62869 0.0
H136 H 0.45999 0.50134 0.68937 0.0
H137 H 0.64439 0.48384 0.56733 0.0
H138 H 0.66363 0.47206 0.50469 0.0
H139 H 0.52793 0.36959 0.488 0.0
H140 H 0.50972 0.38095 0.55072 0.0
H141 H 0.50806 0.36128 0.63588 0.0
H142 H 0.52557 0.31936 0.67846 0.0
H143 H 0.66464 0.41561 0.66924 0.0
H144 H 0.64656 0.45773 0.62781 0.0
H145 H 0.62052 0.51672 0.62388 0.0
H146 H 0.59854 0.56668 0.64816 0.0
H147 H 0.46107 0.46911 0.63052 0.0
N148 N 0.56544 0.43442 0.60167 0.0
H149 H 0.48362 0.41966 0.60707 0.0
C150 C 0.43648 0.63385 0.667 0.0
C151 C 0.44091 0.67374 0.6591 0.0
C152 C 0.40989 0.67607 0.63693 0.0
C153 C 0.37403 0.63846 0.62173 0.0
C154 C 0.37009 0.59847 0.62864 0.0
C155 C 0.40074 0.59605 0.6515 0.0
C156 C 0.455 0.63319 0.73118 0.0
C157 C 0.41381 0.60134 0.74542 0.0
C158 C 0.40134 0.605 0.78129 0.0
C159 C 0.42895 0.64134 0.80317 0.0
C160 C 0.47008 0.67317 0.78907 0.0
C161 C 0.48315 0.66881 0.75348 0.0
C162 C 0.48363 0.60502 0.68318 0.0
C163 C 0.52089 0.62143 0.66017 0.0
C164 C 0.53606 0.59479 0.64724 0.0
C165 C 0.51399 0.55097 0.65701 0.0
C166 C 0.47731 0.53479 0.68084 0.0
C167 C 0.46222 0.5614 0.69374 0.0
C168 C 0.57577 0.43272 0.56354 0.0
C169 C 0.61888 0.45923 0.54989 0.0
C170 C 0.62971 0.45259 0.51411 0.0
C171 C 0.59738 0.41969 0.49152 0.0
C172 C 0.55365 0.39514 0.50468 0.0
C173 C 0.54309 0.40152 0.54044 0.0
C174 C 0.57606 0.41213 0.62854 0.0
C175 C 0.54218 0.37343 0.64359 0.0
C176 C 0.55223 0.3497 0.66785 0.0
C177 C 0.59648 0.36414 0.67689 0.0
C178 C 0.63027 0.40359 0.66251 0.0
C179 C 0.62007 0.42762 0.6388 0.0
C180 C 0.5535 0.46479 0.61384 0.0
C181 C 0.58578 0.5065 0.62516 0.0
C182 C 0.57313 0.53487 0.63889 0.0
C183 C 0.52802 0.52171 0.64156 0.0
C184 C 0.49601 0.47999 0.6295 0.0
C185 C 0.50872 0.45184 0.61582 0.0
H186 H 0.20253 0.64957 0.7927 0.0
N187 N 0.14918 0.56757 0.76686 0.0
H188 H 0.26529 0.67409 0.83466 0.0
H189 H 0.17308 0.51871 0.80277 0.0
H190 H 0.2353 0.54285 0.84601 0.0
H191 H 0.15404 0.51965 0.71372 0.0
H192 H 0.18362 0.54219 0.65142 0.0
H193 H 0.17194 0.64495 0.73512 0.0
H194 H 0.20351 0.66868 0.67305 0.0
H195 H 0.12143 0.62153 0.79019 0.0
H196 H 0.07997 0.48829 0.77127 0.0
H197 H 0.04782 0.59969 0.81484 0.0
H198 H 0.00621 0.46599 0.79502 0.0
H199 H 0.83328 0.51733 0.91175 0.0
H200 H 0.80332 0.49523 0.9746 0.0
H201 H 0.80059 0.3754 0.95901 0.0
H202 H 0.82775 0.39634 0.89624 0.0
H203 H 0.83952 0.39972 0.82651 0.0
H204 H 0.77838 0.34723 0.78771 0.0
H205 H 0.7134 0.42023 0.80107 0.0
H206 H 0.77509 0.47309 0.8392 0.0
H207 H 0.89458 0.53992 0.82023 0.0
H208 H 0.96944 0.56632 0.7964 0.0
H209 H 0.97299 0.46398 0.85429 0.0
N210 N 0.84529 0.47053 0.86117 0.0
H211 H 0.89876 0.43751 0.87707 0.0
C212 C 0.18373 0.58236 0.79408 0.0
C213 C 0.20937 0.62606 0.8041 0.0
C214 C 0.24513 0.63999 0.82827 0.0
C215 C 0.25524 0.61036 0.84342 0.0
C216 C 0.22816 0.56635 0.83482 0.0
C217 C 0.19284 0.55256 0.81011 0.0
C218 C 0.16166 0.58074 0.72917 0.0
C219 C 0.16397 0.55193 0.7047 0.0
C220 C 0.18086 0.56495 0.66913 0.0
C221 C 0.19638 0.60744 0.65743 0.0
C222 C 0.19203 0.63583 0.68137 0.0
C223 C 0.17435 0.62242 0.71694 0.0
C224 C 0.10582 0.55631 0.77908 0.0
C225 C 0.09627 0.58763 0.79103 0.0
C226 C 0.05422 0.57507 0.805 0.0
C227 C 0.02129 0.53105 0.80725 0.0
C228 C 0.03102 0.50007 0.79439 0.0
C229 C 0.07289 0.51266 0.78052 0.0
C230 C 0.83384 0.45915 0.8995 0.0
C231 C 0.82697 0.48669 0.92229 0.0
C232 C 0.80977 0.47401 0.95802 0.0
C233 C 0.8 0.43378 0.97173 0.0
C234 C 0.80846 0.4069 0.9494 0.0
C235 C 0.82446 0.41907 0.91346 0.0
C236 C 0.81205 0.44077 0.83556 0.0
C237 C 0.81263 0.40498 0.82057 0.0
C238 C 0.77759 0.37487 0.79841 0.0
C239 C 0.74113 0.37959 0.79149 0.0
C240 C 0.74102 0.41566 0.80602 0.0
C241 C 0.77622 0.44596 0.82766 0.0
C242 C 0.89073 0.48687 0.85051 0.0
C243 C 0.91181 0.52353 0.828 0.0
C244 C 0.95456 0.53861 0.81452 0.0
C245 C 0.97703 0.51704 0.82323 0.0
C246 C 0.9563 0.48091 0.84654 0.0
C247 C 0.91365 0.46589 0.85996 0.0
H248 H 0.52634 0.21446 0.98658 0.0
N249 N 0.54251 0.16663 0.94091 0.0
H250 H 0.57973 0.27494 0.02537 0.0
H251 H 0.63046 0.19388 0.94961 0.0
H252 H 0.68316 0.25233 0.99011 0.0
H253 H 0.59511 0.15441 0.89303 0.0
H254 H 0.61526 0.18364 0.8302 0.0
H255 H 0.50742 0.2038 0.90245 0.0
H256 H 0.5268 0.23273 0.83967 0.0
H257 H 0.45692 0.10788 0.93828 0.0
H258 H 0.58346 0.12389 0.9658 0.0
H259 H 0.42011 0.03276 0.9579 0.0
H260 H 0.5472 0.05056 0.98832 0.0
H261 H 0.31436 0.81165 0.06301 0.0
H262 H 0.30792 0.7859 0.1266 0.0
H263 H 0.45056 0.85694 0.13586 0.0
H264 H 0.45651 0.88234 0.0722 0.0
H265 H 0.45217 0.83752 0.01806 0.0
H266 H 0.45035 0.78226 0.97733 0.0
H267 H 0.32136 0.75005 0.93797 0.0
H268 H 0.32468 0.80761 0.97686 0.0
H269 H 0.36031 0.91414 0.02888 0.0
H270 H 0.39901 0.98939 0.00939 0.0
H271 H 0.51039 0.97841 0.97454 0.0
N272 N 0.38785 0.85851 0.02422 0.0
H273 H 0.47322 0.90514 0.99684 0.0
C274 C 0.57401 0.19905 0.96588 0.0
C275 C 0.5604 0.22228 0.9876 0.0
C276 C 0.59084 0.25669 0.00959 0.0
C277 C 0.63526 0.26772 0.0109 0.0
C278 C 0.64885 0.24379 0.99 0.0
C279 C 0.61864 0.21025 0.96702 0.0
C280 C 0.55001 0.17736 0.90231 0.0
C281 C 0.57967 0.17091 0.88128 0.0
C282 C 0.59102 0.18754 0.84539 0.0
C283 C 0.5728 0.21074 0.8301 0.0
C284 C 0.54142 0.21507 0.85064 0.0
C285 C 0.53026 0.19857 0.88643 0.0
C286 C 0.52276 0.12192 0.95101 0.0
C287 C 0.4767 0.09523 0.94883 0.0
C288 C 0.45573 0.05241 0.96057 0.0
C289 C 0.48042 0.03538 0.97548 0.0
C290 C 0.52687 0.06206 0.9768 0.0
C291 C 0.54785 0.10462 0.96421 0.0
C292 C 0.38575 0.84868 0.06297 0.0
C293 C 0.34412 0.8222 0.07911 0.0
C294 C 0.34055 0.80759 0.11537 0.0
C295 C 0.37872 0.81931 0.13622 0.0
C296 C 0.42052 0.84745 0.12054 0.0
C297 C 0.42403 0.86192 0.08414 0.0
C298 C 0.38891 0.82747 0.9997 0.0
C299 C 0.4242 0.81972 0.99975 0.0
C300 C 0.42314 0.7881 0.97657 0.0
C301 C 0.38597 0.7625 0.95434 0.0
C302 C 0.35056 0.76982 0.95466 0.0
C303 C 0.35237 0.80249 0.97677 0.0
C304 C 0.41313 0.90342 0.0139 0.0
C305 C 0.39329 0.92829 0.01737 0.0
C306 C 0.41536 0.9712 1.00572 0.0
C307 C 0.45775 0.99018 0.98962 0.0
C308 C 0.47804 0.96539 0.98701 0.0
C309 C 0.45632 0.92278 0.99948 0.0
H310 H 0.52696 0.35068 0.14275 0.0
N311 N 0.54576 0.41047 0.19412 0.0
H312 H 0.57929 0.34233 0.10366 0.0
H313 H 0.63638 0.46435 0.19249 0.0
H314 H 0.68793 0.45798 0.15158 0.0
H315 H 0.59707 0.47392 0.24434 0.0
H316 H 0.61611 0.46269 0.30648 0.0
H317 H 0.51047 0.33663 0.23066 0.0
H318 H 0.52921 0.325 0.29306 0.0
H319 H 0.46319 0.3938 0.18861 0.0
H320 H 0.59903 0.49715 0.17828 0.0
H321 H 0.43848 0.44288 0.16945 0.0
H322 H 0.57524 0.54472 0.15668 0.0
H323 H 0.37292 0.56841 0.07663 0.0
H324 H 0.34748 0.5727 0.01476 0.0
H325 H 0.48312 0.65958 0.98189 0.0
H326 H 0.50803 0.65576 0.04404 0.0
H327 H 0.50518 0.69893 0.12388 0.0
H328 H 0.48188 0.73761 0.16535 0.0
H329 H 0.35516 0.62055 0.17951 0.0
H330 H 0.37975 0.58165 0.13973 0.0
H331 H 0.41103 0.52872 0.09434 0.0
H332 H 0.43172 0.4787 0.11862 0.0
H333 H 0.54504 0.58529 0.17283 0.0
N334 N 0.45802 0.61691 0.10258 0.0
H335 H 0.52593 0.63504 0.1459 0.0
C336 C 0.57732 0.40858 0.16988 0.0
C337 C 0.562 0.37438 0.14455 0.0
C338 C 0.59178 0.36971 0.12233 0.0
C339 C 0.63732 0.40004 0.12434 0.0
C340 C 0.65279 0.43485 0.14903 0.0
C341 C 0.62318 0.43856 0.17227 0.0
C342 C 0.55233 0.40595 0.23278 0.0
C343 C 0.58144 0.4414 0.25494 0.0
C344 C 0.59232 0.4349 0.29054 0.0
C345 C 0.57438 0.3929 0.30456 0.0
C346 C 0.54358 0.35772 0.28305 0.0
C347 C 0.53277 0.36427 0.24749 0.0
C348 C 0.53284 0.44119 0.18457 0.0
C349 C 0.48766 0.42695 0.18208 0.0
C350 C 0.47366 0.45498 0.17072 0.0
C351 C 0.50475 0.49795 0.1612 0.0
C352 C 0.55009 0.51223 0.16432 0.0
C353 C 0.56395 0.4845 0.17632 0.0
C354 C 0.44251 0.61239 0.06505 0.0
C355 C 0.39721 0.5879 0.05602 0.0
C356 C 0.3827 0.5902 0.02053 0.0
C357 C 0.41324 0.61681 0.99355 0.0
C358 C 0.4587 0.6389 1.00206 0.0
C359 C 0.47306 0.63675 0.0375 0.0
C360 C 0.44384 0.6379 0.12819 0.0
C361 C 0.4726 0.68168 0.13633 0.0
C362 C 0.45935 0.70355 0.16005 0.0
C363 C 0.41666 0.68205 0.17531 0.0
C364 C 0.38813 0.63789 0.16775 0.0
C365 C 0.40191 0.61576 0.14482 0.0
C366 C 0.46758 0.58586 0.1177 0.0
C367 C 0.44053 0.54132 0.11113 0.0
C368 C 0.45219 0.51261 0.12551 0.0
C369 C 0.49049 0.52779 0.14746 0.0
C370 C 0.51617 0.57228 0.15517 0.0
C371 C 0.5051 0.60087 0.14009 0.0
In372 In 0.62979 0.37354 0.39859 0.0
O373 O 0.70307 0.41736 0.38279 0.0
O374 O 0.66657 0.35321 0.36095 0.0
C375 C 0.60935 0.4073 0.45627 0.0
C376 C 0.591 0.3858 0.33974 0.0
C377 C 0.61883 0.30518 0.43661 0.0
O378 O 0.64885 0.42387 0.44486 0.0
O379 O 0.58087 0.3756 0.43747 0.0
O380 O 0.58914 0.30207 0.41483 0.0
O381 O 0.65313 0.34226 0.4388 0.0
C382 C 0.70307 0.38845 0.36271 0.0
O383 O 0.57813 0.34856 0.35241 0.0
O384 O 0.6222 0.4165 0.35757 0.0
In385 In 0.2775 0.64838 0.56455 0.0
O386 O 0.31365 0.61255 0.57802 0.0
O387 O 0.33445 0.67301 0.60458 0.0
C388 C 0.22721 0.61061 0.50434 0.0
C389 C 0.22104 0.62241 0.62216 0.0
C390 C 0.33391 0.72229 0.53016 0.0
O391 O 0.2513 0.59777 0.51835 0.0
O392 O 0.22734 0.64115 0.52159 0.0
O393 O 0.30298 0.71934 0.55042 0.0
O394 O 0.33579 0.68843 0.52779 0.0
C395 C 0.33989 0.64133 0.60062 0.0
O396 O 0.24292 0.66167 0.61252 0.0
O397 O 0.22611 0.59702 0.60157 0.0
In398 In 0.62885 0.28557 0.73577 0.0
O399 O 0.70236 0.31738 0.75118 0.0
O400 O 0.6654 0.34438 0.77252 0.0
C401 C 0.61856 0.23544 0.67655 0.0
C402 C 0.58958 0.23394 0.79469 0.0
C403 C 0.6078 0.33714 0.69922 0.0
O404 O 0.65595 0.25965 0.69139 0.0
O405 O 0.58667 0.23522 0.69261 0.0
O406 O 0.57991 0.30617 0.719 0.0
O407 O 0.64598 0.34216 0.69843 0.0
C408 C 0.70214 0.34634 0.7709 0.0
O409 O 0.57705 0.2583 0.78177 0.0
O410 O 0.62069 0.23438 0.777 0.0
In411 In 0.3736 0.6552 0.90011 0.0
O412 O 0.30281 0.60183 0.88618 0.0
O413 O 0.32769 0.66457 0.86324 0.0
C414 C 0.39826 0.62595 0.95841 0.0
C415 C 0.41284 0.64682 0.8393 0.0
C416 C 0.38201 0.72553 0.93373 0.0
O417 O 0.35795 0.6107 0.9503 0.0
O418 O 0.42526 0.65395 0.93623 0.0
O419 O 0.41355 0.727 0.91566 0.0
O420 O 0.34673 0.68921 0.93431 0.0
C421 C 0.2959 0.62603 0.86554 0.0
O422 O 0.42473 0.68339 0.85329 0.0
O423 O 0.38277 0.61508 0.85677 0.0
In424 In 0.72658 0.37854 0.06737 0.0
O425 O 0.75324 0.35317 0.11226 0.0
O426 O 0.77847 0.42061 0.11001 0.0
C427 C 0.66767 0.30624 0.03164 0.0
C428 C 0.66871 0.39307 0.10319 0.0
C429 C 0.77753 0.4177 1.00764 0.0
O430 O 0.7003 0.30882 0.04873 0.0
O431 O 0.66499 0.33971 0.03284 0.0
O432 O 0.7546 0.43123 0.02285 0.0
O433 O 0.77604 0.38603 0.02347 0.0
C434 C 0.7783 0.38994 0.12652 0.0
O435 O 0.70206 0.42303 0.08666 0.0
O436 O 0.66473 0.35639 0.10144 0.0
In437 In 0.3714 0.75226 0.23213 0.0
O438 O 0.42673 0.74072 0.21422 0.0
O439 O 0.36058 0.69466 0.19814 0.0
C440 C 0.40692 0.80325 0.29241 0.0
C441 C 0.37519 0.79881 0.1724 0.0
C442 C 0.29985 0.68926 0.26705 0.0
O443 O 0.42377 0.78331 0.27759 0.0
O444 O 0.37337 0.79892 0.2759 0.0
O445 O 0.29817 0.71821 0.24883 0.0
O446 O 0.33712 0.69222 0.26716 0.0
C447 C 0.40095 0.7061 0.19705 0.0
O448 O 0.33906 0.76835 0.18492 0.0
O449 O 0.40877 0.80712 0.19116 0.0
loop_
_geom_bond_atom_site_label_1
_geom_bond_atom_site_label_2
_geom_bond_distance
_geom_bond_site_symmetry_2
_ccdc_geom_bond_type
H0 C27 0.929 . S
N1 C26 1.433 . S
N1 C32 1.435 . S
N1 C38 1.423 . S
H2 C28 0.930 . S
H3 C31 0.931 . S
H4 C30 0.929 . S
H5 C33 0.930 . S
H6 C34 0.932 . S
H7 C37 0.929 . S
H8 C36 0.931 . S
H9 C39 0.929 . S
H10 C43 0.932 . S
H11 C40 0.931 . S
H12 C42 0.929 . S
H13 C45 0.929 . S
H14 C46 0.930 . S
H15 C48 0.929 . S
H16 C49 0.931 . S
H17 C51 0.930 . S
H18 C52 0.932 . S
H19 C54 0.931 . S
H20 C55 0.929 . S
H21 C57 0.929 . S
H22 C58 0.931 . S
H23 C60 0.929 . S
N24 C44 1.433 . S
N24 C50 1.435 . S
N24 C56 1.423 . S
H25 C61 0.932 . S
C26 N1 1.433 . S
C26 C27 1.363 . S
C26 C31 1.370 . S
C27 H0 0.929 . S
C27 C26 1.363 . S
C27 C28 1.385 . S
C28 H2 0.930 . S
C28 C27 1.385 . S
C28 C29 1.357 . S
C29 C28 1.357 . S
C29 C30 1.406 . S
C30 H4 0.929 . S
C30 C29 1.406 . S
C30 C31 1.391 . S
C31 H3 0.931 . S
C31 C26 1.370 . S
C31 C30 1.391 . S
C32 N1 1.435 . S
C32 C33 1.358 . S
C32 C37 1.371 . S
C33 H5 0.930 . S
C33 C32 1.358 . S
C33 C34 1.405 . S
C34 H6 0.932 . S
C34 C33 1.405 . S
C34 C35 1.383 . S
C35 C34 1.383 . S
C35 C36 1.393 . S
C36 H8 0.931 . S
C36 C35 1.393 . S
C36 C37 1.382 . S
C37 H7 0.929 . S
C37 C32 1.371 . S
C37 C36 1.382 . S
C38 N1 1.423 . S
C38 C39 1.362 . S
C38 C43 1.388 . S
C39 H9 0.929 . S
C39 C38 1.362 . S
C39 C40 1.376 . S
C40 H11 0.931 . S
C40 C39 1.376 . S
C40 C41 1.396 . S
C41 C40 1.396 . S
C41 C42 1.348 . S
C41 C59 1.472 1_455 S
C42 H12 0.929 . S
C42 C41 1.348 . S
C42 C43 1.443 . S
C43 H10 0.932 . S
C43 C38 1.388 . S
C43 C42 1.443 . S
C44 N24 1.433 . S
C44 C45 1.363 . S
C44 C49 1.370 . S
C45 H13 0.929 . S
C45 C44 1.363 . S
C45 C46 1.385 . S
C46 H14 0.930 . S
C46 C45 1.385 . S
C46 C47 1.357 . S
C47 C46 1.357 . S
C47 C48 1.406 . S
C48 H15 0.929 . S
C48 C47 1.406 . S
C48 C49 1.391 . S
C49 H16 0.931 . S
C49 C44 1.370 . S
C49 C48 1.391 . S
C50 N24 1.435 . S
C50 C51 1.358 . S
C50 C55 1.371 . S
C51 H17 0.930 . S
C51 C50 1.358 . S
C51 C52 1.405 . S
C52 H18 0.932 . S
C52 C51 1.405 . S
C52 C53 1.383 . S
C53 C52 1.383 . S
C53 C54 1.393 . S
C54 H19 0.931 . S
C54 C53 1.393 . S
C54 C55 1.382 . S
C55 H20 0.929 . S
C55 C50 1.371 . S
C55 C54 1.382 . S
C56 N24 1.423 . S
C56 C57 1.362 . S
C56 C61 1.388 . S
C57 H21 0.929 . S
C57 C56 1.362 . S
C57 C58 1.376 . S
C58 H22 0.931 . S
C58 C57 1.376 . S
C58 C59 1.396 . S
C59 C41 1.472 1_655 S
C59 C58 1.396 . S
C59 C60 1.348 . S
C60 H23 0.929 . S
C60 C59 1.348 . S
C60 C61 1.443 . S
C61 H25 0.932 . S
C61 C56 1.388 . S
C61 C60 1.443 . S
H62 C89 0.929 . S
N63 C88 1.433 . S
N63 C94 1.435 . S
N63 C100 1.423 . S
H64 C90 0.930 . S
H65 C93 0.931 . S
H66 C92 0.929 . S
H67 C95 0.930 . S
H68 C96 0.932 . S
H69 C99 0.929 . S
H70 C98 0.931 . S
H71 C101 0.929 . S
H72 C105 0.932 . S
H73 C102 0.931 . S
H74 C104 0.929 1_545 S
H75 C107 0.929 . S
H76 C108 0.930 . S
H77 C110 0.929 . S
H78 C111 0.931 . S
H79 C113 0.930 . S
H80 C114 0.932 . S
H81 C116 0.931 . S
H82 C117 0.929 . S
H83 C119 0.929 . S
H84 C120 0.931 . S
H85 C122 0.929 . S
N86 C106 1.433 . S
N86 C112 1.435 . S
N86 C118 1.423 . S
H87 C123 0.932 . S
C88 N63 1.433 . S
C88 C89 1.363 . S
C88 C93 1.370 . S
C89 H62 0.929 . S
C89 C88 1.363 . S
C89 C90 1.385 . S
C90 H64 0.930 . S
C90 C89 1.385 . S
C90 C91 1.357 . S
C91 C90 1.357 . S
C91 C92 1.406 . S
C92 H66 0.929 . S
C92 C91 1.406 . S
C92 C93 1.391 . S
C93 H65 0.931 . S
C93 C88 1.370 . S
C93 C92 1.391 . S
C94 N63 1.435 . S
C94 C95 1.358 . S
C94 C99 1.371 . S
C95 H67 0.930 . S
C95 C94 1.358 . S
C95 C96 1.405 . S
C96 H68 0.932 . S
C96 C95 1.405 . S
C96 C97 1.383 . S
C97 C96 1.383 . S
C97 C98 1.393 . S
C98 H70 0.931 . S
C98 C97 1.393 . S
C98 C99 1.382 . S
C99 H69 0.929 . S
C99 C94 1.371 . S
C99 C98 1.382 . S
C100 N63 1.423 . S
C100 C101 1.362 . S
C100 C105 1.388 . S
C101 H71 0.929 . S
C101 C100 1.362 . S
C101 C102 1.376 . S
C102 H73 0.931 . S
C102 C101 1.376 . S
C102 C103 1.396 . S
C103 C102 1.396 . S
C103 C104 1.348 . S
C103 C121 1.472 1_565 S
C104 H74 0.929 1_565 S
C104 C103 1.348 . S
C104 C105 1.443 . S
C105 H72 0.932 . S
C105 C100 1.388 . S
C105 C104 1.443 . S
C106 N86 1.433 . S
C106 C107 1.363 . S
C106 C111 1.370 . S
C107 H75 0.929 . S
C107 C106 1.363 . S
C107 C108 1.385 . S
C108 H76 0.930 . S
C108 C107 1.385 . S
C108 C109 1.357 . S
C109 C108 1.357 . S
C109 C110 1.406 . S
C110 H77 0.929 . S
C110 C109 1.406 . S
C110 C111 1.391 . S
C111 H78 0.931 . S
C111 C106 1.370 . S
C111 C110 1.391 . S
C112 N86 1.435 . S
C112 C113 1.358 . S
C112 C117 1.371 . S
C113 H79 0.930 . S
C113 C112 1.358 . S
C113 C114 1.405 . S
C114 H80 0.932 . S
C114 C113 1.405 . S
C114 C115 1.383 . S
C115 C114 1.383 . S
C115 C116 1.393 . S
C116 H81 0.931 . S
C116 C115 1.393 . S
C116 C117 1.382 . S
C117 H82 0.929 . S
C117 C112 1.371 . S
C117 C116 1.382 . S
C118 N86 1.423 . S
C118 C119 1.362 . S
C118 C123 1.388 . S
C119 H83 0.929 . S
C119 C118 1.362 . S
C119 C120 1.376 . S
C120 H84 0.931 . S
C120 C119 1.376 . S
C120 C121 1.396 . S
C121 C103 1.472 1_545 S
C121 C120 1.396 . S
C121 C122 1.348 . S
C122 H85 0.929 . S
C122 C121 1.348 . S
C122 C123 1.443 . S
C123 H87 0.932 . S
C123 C118 1.388 . S
C123 C122 1.443 . S
H124 C151 0.929 . S
N125 C150 1.433 . S
N125 C156 1.435 . S
N125 C162 1.423 . S
H126 C152 0.930 . S
H127 C155 0.931 . S
H128 C154 0.929 . S
H129 C157 0.930 . S
H130 C158 0.932 . S
H131 C161 0.929 . S
H132 C160 0.931 . S
H133 C163 0.929 . S
H134 C167 0.932 . S
H135 C164 0.931 . S
H136 C166 0.929 . S
H137 C169 0.929 . S
H138 C170 0.930 . S
H139 C172 0.929 . S
H140 C173 0.931 . S
H141 C175 0.930 . S
H142 C176 0.932 . S
H143 C178 0.931 . S
H144 C179 0.929 . S
H145 C181 0.929 . S
H146 C182 0.931 . S
H147 C184 0.929 . S
N148 C168 1.433 . S
N148 C174 1.435 . S
N148 C180 1.423 . S
H149 C185 0.932 . S
C150 N125 1.433 . S
C150 C151 1.363 . S
C150 C155 1.370 . S
C151 H124 0.929 . S
C151 C150 1.363 . S
C151 C152 1.385 . S
C152 H126 0.930 . S
C152 C151 1.385 . S
C152 C153 1.357 . S
C153 C152 1.357 . S
C153 C154 1.406 . S
C154 H128 0.929 . S
C154 C153 1.406 . S
C154 C155 1.391 . S
C155 H127 0.931 . S
C155 C150 1.370 . S
C155 C154 1.391 . S
C156 N125 1.435 . S
C156 C157 1.358 . S
C156 C161 1.371 . S
C157 H129 0.930 . S
C157 C156 1.358 . S
C157 C158 1.405 . S
C158 H130 0.932 . S
C158 C157 1.405 . S
C158 C159 1.383 . S
C159 C158 1.383 . S
C159 C160 1.393 . S
C160 H132 0.931 . S
C160 C159 1.393 . S
C160 C161 1.382 . S
C161 H131 0.929 . S
C161 C156 1.371 . S
C161 C160 1.382 . S
C162 N125 1.423 . S
C162 C163 1.362 . S
C162 C167 1.388 . S
C163 H133 0.929 . S
C163 C162 1.362 . S
C163 C164 1.376 . S
C164 H135 0.931 . S
C164 C163 1.376 . S
C164 C165 1.396 . S
C165 C164 1.396 . S
C165 C166 1.348 . S
C165 C183 1.472 . S
C166 H136 0.929 . S
C166 C165 1.348 . S
C166 C167 1.443 . S
C167 H134 0.932 . S
C167 C162 1.388 . S
C167 C166 1.443 . S
C168 N148 1.433 . S
C168 C169 1.363 . S
C168 C173 1.370 . S
C169 H137 0.929 . S
C169 C168 1.363 . S
C169 C170 1.385 . S
C170 H138 0.930 . S
C170 C169 1.385 . S
C170 C171 1.357 . S
C171 C170 1.357 . S
C171 C172 1.406 . S
C172 H139 0.929 . S
C172 C171 1.406 . S
C172 C173 1.391 . S
C173 H140 0.931 . S
C173 C168 1.370 . S
C173 C172 1.391 . S
C174 N148 1.435 . S
C174 C175 1.358 . S
C174 C179 1.371 . S
C175 H141 0.930 . S
C175 C174 1.358 . S
C175 C176 1.405 . S
C176 H142 0.932 . S
C176 C175 1.405 . S
C176 C177 1.383 . S
C177 C176 1.383 . S
C177 C178 1.393 . S
C178 H143 0.931 . S
C178 C177 1.393 . S
C178 C179 1.382 . S
C179 H144 0.929 . S
C179 C174 1.371 . S
C179 C178 1.382 . S
C180 N148 1.423 . S
C180 C181 1.362 . S
C180 C185 1.388 . S
C181 H145 0.929 . S
C181 C180 1.362 . S
C181 C182 1.376 . S
C182 H146 0.931 . S
C182 C181 1.376 . S
C182 C183 1.396 . S
C183 C165 1.472 . S
C183 C182 1.396 . S
C183 C184 1.348 . S
C184 H147 0.929 . S
C184 C183 1.348 . S
C184 C185 1.443 . S
C185 H149 0.932 . S
C185 C180 1.388 . S
C185 C184 1.443 . S
H186 C213 0.929 . S
N187 C212 1.433 . S
N187 C218 1.435 . S
N187 C224 1.423 . S
H188 C214 0.930 . S
H189 C217 0.931 . S
H190 C216 0.929 . S
H191 C219 0.930 . S
H192 C220 0.932 . S
H193 C223 0.929 . S
H194 C222 0.931 . S
H195 C225 0.929 . S
H196 C229 0.932 . S
H197 C226 0.931 . S
H198 C228 0.929 . S
H199 C231 0.929 . S
H200 C232 0.930 . S
H201 C234 0.929 . S
H202 C235 0.931 . S
H203 C237 0.930 . S
H204 C238 0.932 . S
H205 C240 0.931 . S
H206 C241 0.929 . S
H207 C243 0.929 . S
H208 C244 0.931 . S
H209 C246 0.929 . S
N210 C230 1.433 . S
N210 C236 1.435 . S
N210 C242 1.423 . S
H211 C247 0.932 . S
C212 N187 1.433 . S
C212 C213 1.363 . S
C212 C217 1.370 . S
C213 H186 0.929 . S
C213 C212 1.363 . S
C213 C214 1.385 . S
C214 H188 0.930 . S
C214 C213 1.385 . S
C214 C215 1.357 . S
C215 C214 1.357 . S
C215 C216 1.406 . S
C216 H190 0.929 . S
C216 C215 1.406 . S
C216 C217 1.391 . S
C217 H189 0.931 . S
C217 C212 1.370 . S
C217 C216 1.391 . S
C218 N187 1.435 . S
C218 C219 1.358 . S
C218 C223 1.371 . S
C219 H191 0.930 . S
C219 C218 1.358 . S
C219 C220 1.405 . S
C220 H192 0.932 . S
C220 C219 1.405 . S
C220 C221 1.383 . S
C221 C220 1.383 . S
C221 C222 1.393 . S
C222 H194 0.931 . S
C222 C221 1.393 . S
C222 C223 1.382 . S
C223 H193 0.929 . S
C223 C218 1.371 . S
C223 C222 1.382 . S
C224 N187 1.423 . S
C224 C225 1.362 . S
C224 C229 1.388 . S
C225 H195 0.929 . S
C225 C224 1.362 . S
C225 C226 1.376 . S
C226 H197 0.931 . S
C226 C225 1.376 . S
C226 C227 1.396 . S
C227 C226 1.396 . S
C227 C228 1.348 . S
C227 C245 1.472 1_455 S
C228 H198 0.929 . S
C228 C227 1.348 . S
C228 C229 1.443 . S
C229 H196 0.932 . S
C229 C224 1.388 . S
C229 C228 1.443 . S
C230 N210 1.433 . S
C230 C231 1.363 . S
C230 C235 1.370 . S
C231 H199 0.929 . S
C231 C230 1.363 . S
C231 C232 1.385 . S
C232 H200 0.930 . S
C232 C231 1.385 . S
C232 C233 1.357 . S
C233 C232 1.357 . S
C233 C234 1.406 . S
C234 H201 0.929 . S
C234 C233 1.406 . S
C234 C235 1.391 . S
C235 H202 0.931 . S
C235 C230 1.370 . S
C235 C234 1.391 . S
C236 N210 1.435 . S
C236 C237 1.358 . S
C236 C241 1.371 . S
C237 H203 0.930 . S
C237 C236 1.358 . S
C237 C238 1.405 . S
C238 H204 0.932 . S
C238 C237 1.405 . S
C238 C239 1.383 . S
C239 C238 1.383 . S
C239 C240 1.393 . S
C240 H205 0.931 . S
C240 C239 1.393 . S
C240 C241 1.382 . S
C241 H206 0.929 . S
C241 C236 1.371 . S
C241 C240 1.382 . S
C242 N210 1.423 . S
C242 C243 1.362 . S
C242 C247 1.388 . S
C243 H207 0.929 . S
C243 C242 1.362 . S
C243 C244 1.376 . S
C244 H208 0.931 . S
C244 C243 1.376 . S
C244 C245 1.396 . S
C245 C227 1.472 1_655 S
C245 C244 1.396 . S
C245 C246 1.348 . S
C246 H209 0.929 . S
C246 C245 1.348 . S
C246 C247 1.443 . S
C247 H211 0.932 . S
C247 C242 1.388 . S
C247 C246 1.443 . S
H248 C275 0.929 . S
N249 C274 1.433 . S
N249 C280 1.435 . S
N249 C286 1.423 . S
H250 C276 0.930 . S
H251 C279 0.931 . S
H252 C278 0.929 . S
H253 C281 0.930 . S
H254 C282 0.932 . S
H255 C285 0.929 . S
H256 C284 0.931 . S
H257 C287 0.929 . S
H258 C291 0.932 . S
H259 C288 0.931 . S
H260 C290 0.929 . S
H261 C293 0.929 . S
H262 C294 0.930 . S
H263 C296 0.929 . S
H264 C297 0.931 . S
H265 C299 0.930 . S
H266 C300 0.932 . S
H267 C302 0.931 . S
H268 C303 0.929 . S
H269 C305 0.929 . S
H270 C306 0.931 . S
H271 C308 0.929 . S
N272 C292 1.433 . S
N272 C298 1.435 1_554 S
N272 C304 1.423 . S
H273 C309 0.932 . S
C274 N249 1.433 . S
C274 C275 1.363 . S
C274 C279 1.370 . S
C275 H248 0.929 . S
C275 C274 1.363 . S
C275 C276 1.385 . S
C276 H250 0.930 . S
C276 C275 1.385 . S
C276 C277 1.357 1_556 S
C277 C276 1.357 1_554 S
C277 C278 1.406 . S
C278 H252 0.929 . S
C278 C277 1.406 . S
C278 C279 1.391 1_554 S
C279 H251 0.931 . S
C279 C274 1.370 . S
C279 C278 1.391 1_556 S
C280 N249 1.435 . S
C280 C281 1.358 . S
C280 C285 1.371 . S
C281 H253 0.930 . S
C281 C280 1.358 . S
C281 C282 1.405 . S
C282 H254 0.932 . S
C282 C281 1.405 . S
C282 C283 1.383 . S
C283 C282 1.383 . S
C283 C284 1.393 . S
C284 H256 0.931 . S
C284 C283 1.393 . S
C284 C285 1.382 . S
C285 H255 0.929 . S
C285 C280 1.371 . S
C285 C284 1.382 . S
C286 N249 1.423 . S
C286 C287 1.362 . S
C286 C291 1.388 . S
C287 H257 0.929 . S
C287 C286 1.362 . S
C287 C288 1.376 . S
C288 H259 0.931 . S
C288 C287 1.376 . S
C288 C289 1.396 . S
C289 C288 1.396 . S
C289 C290 1.348 . S
C289 C307 1.472 1_545 S
C290 H260 0.929 . S
C290 C289 1.348 . S
C290 C291 1.443 . S
C291 H258 0.932 . S
C291 C286 1.388 . S
C291 C290 1.443 . S
C292 N272 1.433 . S
C292 C293 1.363 . S
C292 C297 1.370 . S
C293 H261 0.929 . S
C293 C292 1.363 . S
C293 C294 1.385 . S
C294 H262 0.930 . S
C294 C293 1.385 . S
C294 C295 1.357 . S
C295 C294 1.357 . S
C295 C296 1.406 . S
C296 H263 0.929 . S
C296 C295 1.406 . S
C296 C297 1.391 . S
C297 H264 0.931 . S
C297 C292 1.370 . S
C297 C296 1.391 . S
C298 N272 1.435 1_556 S
C298 C299 1.358 1_556 S
C298 C303 1.371 . S
C299 H265 0.930 . S
C299 C298 1.358 1_554 S
C299 C300 1.405 1_554 S
C300 H266 0.932 . S
C300 C299 1.405 1_556 S
C300 C301 1.383 . S
C301 C300 1.383 . S
C301 C302 1.393 . S
C302 H267 0.931 . S
C302 C301 1.393 . S
C302 C303 1.382 . S
C303 H268 0.929 . S
C303 C298 1.371 . S
C303 C302 1.382 . S
C304 N272 1.423 . S
C304 C305 1.362 . S
C304 C309 1.388 1_554 S
C305 H269 0.929 . S
C305 C304 1.362 . S
C305 C306 1.376 . S
C306 H270 0.931 . S
C306 C305 1.376 . S
C306 C307 1.396 1_554 S
C307 C289 1.472 1_565 S
C307 C306 1.396 1_556 S
C307 C308 1.348 . S
C308 H271 0.929 . S
C308 C307 1.348 . S
C308 C309 1.443 . S
C309 H273 0.932 . S
C309 C304 1.388 1_556 S
C309 C308 1.443 . S
H310 C337 0.929 . S
N311 C336 1.433 . S
N311 C342 1.435 . S
N311 C348 1.423 . S
H312 C338 0.930 . S
H313 C341 0.931 . S
H314 C340 0.929 . S
H315 C343 0.930 . S
H316 C344 0.932 . S
H317 C347 0.929 . S
H318 C346 0.931 . S
H319 C349 0.929 . S
H320 C353 0.932 . S
H321 C350 0.931 . S
H322 C352 0.929 . S
H323 C355 0.929 . S
H324 C356 0.918 1_556 S
H325 C358 0.929 1_556 S
H326 C359 0.931 . S
H327 C361 0.930 . S
H328 C362 0.932 . S
H329 C364 0.931 . S
H330 C365 0.929 . S
H331 C367 0.929 . S
H332 C368 0.931 . S
H333 C370 0.929 . S
N334 C354 1.433 . S
N334 C360 1.435 . S
N334 C366 1.423 . S
H335 C371 0.932 . S
C336 N311 1.433 . S
C336 C337 1.363 . S
C336 C341 1.370 . S
C337 H310 0.929 . S
C337 C336 1.363 . S
C337 C338 1.385 . S
C338 H312 0.930 . S
C338 C337 1.385 . S
C338 C339 1.357 . S
C339 C338 1.357 . S
C339 C340 1.406 . S
C340 H314 0.929 . S
C340 C339 1.406 . S
C340 C341 1.391 . S
C341 H313 0.931 . S
C341 C336 1.370 . S
C341 C340 1.391 . S
C342 N311 1.435 . S
C342 C343 1.358 . S
C342 C347 1.371 . S
C343 H315 0.930 . S
C343 C342 1.358 . S
C343 C344 1.405 . S
C344 H316 0.932 . S
C344 C343 1.405 . S
C344 C345 1.383 . S
C345 C344 1.383 . S
C345 C346 1.393 . S
C346 H318 0.931 . S
C346 C345 1.393 . S
C346 C347 1.382 . S
C347 H317 0.929 . S
C347 C342 1.371 . S
C347 C346 1.382 . S
C348 N311 1.423 . S
C348 C349 1.362 . S
C348 C353 1.388 . S
C349 H319 0.929 . S
C349 C348 1.362 . S
C349 C350 1.376 . S
C350 H321 0.931 . S
C350 C349 1.376 . S
C350 C351 1.396 . S
C351 C350 1.396 . S
C351 C352 1.348 . S
C351 C369 1.472 . S
C352 H322 0.929 . S
C352 C351 1.348 . S
C352 C353 1.443 . S
C353 H320 0.932 . S
C353 C348 1.388 . S
C353 C352 1.443 . S
C354 N334 1.433 . S
C354 C355 1.363 . S
C354 C359 1.370 . S
C355 H323 0.929 . S
C355 C354 1.363 . S
C355 C356 1.410 . S
C356 H324 0.918 1_554 S
C356 C355 1.410 . S
C356 C357 1.345 1_554 S
C357 C356 1.345 1_556 S
C357 C358 1.406 1_556 S
C358 H325 0.929 1_554 S
C358 C357 1.406 1_554 S
C358 C359 1.391 . S
C359 H326 0.931 . S
C359 C354 1.370 . S
C359 C358 1.391 . S
C360 N334 1.435 . S
C360 C361 1.358 . S
C360 C365 1.371 . S
C361 H327 0.930 . S
C361 C360 1.358 . S
C361 C362 1.405 . S
C362 H328 0.932 . S
C362 C361 1.405 . S
C362 C363 1.383 . S
C363 C362 1.383 . S
C363 C364 1.393 . S
C364 H329 0.931 . S
C364 C363 1.393 . S
C364 C365 1.382 . S
C365 H330 0.929 . S
C365 C360 1.371 . S
C365 C364 1.382 . S
C366 N334 1.423 . S
C366 C367 1.362 . S
C366 C371 1.388 . S
C367 H331 0.929 . S
C367 C366 1.362 . S
C367 C368 1.376 . S
C368 H332 0.931 . S
C368 C367 1.376 . S
C368 C369 1.396 . S
C369 C351 1.472 . S
C369 C368 1.396 . S
C369 C370 1.348 . S
C370 H333 0.929 . S
C370 C369 1.348 . S
C370 C371 1.443 . S
C371 H335 0.932 . S
C371 C366 1.388 . S
C371 C370 1.443 . S
In372 O373 2.294 . S
In372 O374 2.326 . S
In372 O378 2.266 . S
In372 O379 2.326 . S
In372 O380 2.266 . S
In372 O381 2.326 . S
In372 O383 2.294 . S
In372 O384 2.326 . S
O373 In372 2.294 . S
O373 C382 1.240 . S
O374 In372 2.326 . S
O374 C382 1.252 . S
C375 O378 1.252 . S
C375 O379 1.260 . S
C376 O383 1.240 . S
C376 O384 1.252 . S
C377 O380 1.252 . S
C377 O381 1.260 . S
O378 In372 2.266 . S
O378 C375 1.252 . S
O379 In372 2.326 . S
O379 C375 1.260 . S
O380 In372 2.266 . S
O380 C377 1.252 . S
O381 In372 2.326 . S
O381 C377 1.260 . S
C382 O373 1.240 . S
C382 O374 1.252 . S
O383 In372 2.294 . S
O383 C376 1.240 . S
O384 In372 2.326 . S
O384 C376 1.252 . S
In385 O386 2.294 . S
In385 O387 2.326 . S
In385 O391 2.266 . S
In385 O392 2.326 . S
In385 O393 2.266 . S
In385 O394 2.326 . S
In385 O396 2.294 . S
In385 O397 2.326 . S
O386 In385 2.294 . S
O386 C395 1.240 . S
O387 In385 2.326 . S
O387 C395 1.252 . S
C388 O391 1.252 . S
C388 O392 1.260 . S
C389 O396 1.240 . S
C389 O397 1.252 . S
C390 O393 1.252 . S
C390 O394 1.260 . S
O391 In385 2.266 . S
O391 C388 1.252 . S
O392 In385 2.326 . S
O392 C388 1.260 . S
O393 In385 2.266 . S
O393 C390 1.252 . S
O394 In385 2.326 . S
O394 C390 1.260 . S
C395 O386 1.240 . S
C395 O387 1.252 . S
O396 In385 2.294 . S
O396 C389 1.240 . S
O397 In385 2.326 . S
O397 C389 1.252 . S
In398 O399 2.294 . S
In398 O400 2.326 . S
In398 O404 2.266 . S
In398 O405 2.326 . S
In398 O406 2.266 . S
In398 O407 2.326 . S
In398 O409 2.294 . S
In398 O410 2.326 . S
O399 In398 2.294 . S
O399 C408 1.240 . S
O400 In398 2.326 . S
O400 C408 1.252 . S
C401 O404 1.252 . S
C401 O405 1.260 . S
C402 O409 1.240 . S
C402 O410 1.252 . S
C403 O406 1.252 . S
C403 O407 1.260 . S
O404 In398 2.266 . S
O404 C401 1.252 . S
O405 In398 2.326 . S
O405 C401 1.260 . S
O406 In398 2.266 . S
O406 C403 1.252 . S
O407 In398 2.326 . S
O407 C403 1.260 . S
C408 O399 1.240 . S
C408 O400 1.252 . S
O409 In398 2.294 . S
O409 C402 1.240 . S
O410 In398 2.326 . S
O410 C402 1.252 . S
In411 O412 2.294 . S
In411 O413 2.326 . S
In411 O417 2.266 . S
In411 O418 2.326 . S
In411 O419 2.266 . S
In411 O420 2.326 . S
In411 O422 2.294 . S
In411 O423 2.326 . S
O412 In411 2.294 . S
O412 C421 1.240 . S
O413 In411 2.326 . S
O413 C421 1.252 . S
C414 O417 1.252 . S
C414 O418 1.260 . S
C415 O422 1.240 . S
C415 O423 1.252 . S
C416 O419 1.252 . S
C416 O420 1.260 . S
O417 In411 2.266 . S
O417 C414 1.252 . S
O418 In411 2.326 . S
O418 C414 1.260 . S
O419 In411 2.266 . S
O419 C416 1.252 . S
O420 In411 2.326 . S
O420 C416 1.260 . S
C421 O412 1.240 . S
C421 O413 1.252 . S
O422 In411 2.294 . S
O422 C415 1.240 . S
O423 In411 2.326 . S
O423 C415 1.252 . S
In424 O425 2.294 . S
In424 O426 2.326 . S
In424 O430 2.266 . S
In424 O431 2.326 . S
In424 O432 2.266 . S
In424 O433 2.326 . S
In424 O435 2.294 . S
In424 O436 2.326 . S
O425 In424 2.294 . S
O425 C434 1.240 . S
O426 In424 2.326 . S
O426 C434 1.252 . S
C427 O430 1.252 . S
C427 O431 1.260 . S
C428 O435 1.240 . S
C428 O436 1.252 . S
C429 O432 1.252 . S
C429 O433 1.260 . S
O430 In424 2.266 . S
O430 C427 1.252 . S
O431 In424 2.326 . S
O431 C427 1.260 . S
O432 In424 2.266 . S
O432 C429 1.252 . S
O433 In424 2.326 . S
O433 C429 1.260 . S
C434 O425 1.240 . S
C434 O426 1.252 . S
O435 In424 2.294 . S
O435 C428 1.240 . S
O436 In424 2.326 . S
O436 C428 1.252 . S
In437 O438 2.294 . S
In437 O439 2.326 . S
In437 O443 2.266 . S
In437 O444 2.326 . S
In437 O445 2.266 . S
In437 O446 2.326 . S
In437 O448 2.294 . S
In437 O449 2.326 . S
O438 In437 2.294 . S
O438 C447 1.240 . S
O439 In437 2.326 . S
O439 C447 1.252 . S
C440 O443 1.252 . S
C440 O444 1.260 . S
C441 O448 1.240 . S
C441 O449 1.252 . S
C442 O445 1.252 . S
C442 O446 1.260 . S
O443 In437 2.266 . S
O443 C440 1.252 . S
O444 In437 2.326 . S
O444 C440 1.260 . S
O445 In437 2.266 . S
O445 C442 1.252 . S
O446 In437 2.326 . S
O446 C442 1.260 . S
C447 O438 1.240 . S
C447 O439 1.252 . S
O448 In437 2.294 . S
O448 C441 1.240 . S
O449 In437 2.326 . S
O449 C441 1.252 . S
C442 C29 1.657 . S
C115 C377 1.784 . S
C153 C395 1.603 . S
C239 C408 1.856 . S
C416 C301 1.780 . S
C339 C428 1.988 . S
C91 C390 1.616 . S
C177 C403 1.789 . S
C215 C421 1.659 . S
C427 C277 1.993 . S
C447 C363 1.773 . S
C382 C53 1.852 . S
C35 C388 2.157 . S
C109 C401 1.648 . S
C415 C159 2.019 . S
C233 C429 2.044 1_556 S
C441 C295 1.771 . S
C376 C345 2.188 . S
C440 C97 2.050 . S
C171 C375 1.635 . S
C389 C221 2.140 . S
C283 C402 2.196 . S
C357 C414 1.776 . S
C47 C434 2.032 . S
