# Generated by pormake.
# Topology nom, (4,4)-cn, num edge types: 1
# Building blocks:
#     Node 0, Type 0, BuildingBlock: MIFKUJ_clean_linker_1, # of connection points: 4
#     Node 1, Type 0, BuildingBlock: MIFKUJ_clean_linker_1, # of connection points: 4
#     Node 2, Type 0, BuildingBlock: MIFKUJ_clean_linker_1, # of connection points: 4
#     Node 3, Type 0, BuildingBlock: MIFKUJ_clean_linker_1, # of connection points: 4
#     Node 4, Type 0, BuildingBlock: MIFKUJ_clean_linker_1, # of connection points: 4
#     Node 5, Type 0, BuildingBlock: MIFKUJ_clean_linker_1, # of connection points: 4
#     Node 6, Type 1, BuildingBlock: NAHDIM_clean_sbu_0, # of connection points: 4
#     Node 7, Type 1, BuildingBlock: NAHDIM_clean_sbu_0, # of connection points: 4
#     Node 8, Type 1, BuildingBlock: NAHDIM_clean_sbu_0, # of connection points: 4
#     Node 9, Type 1, BuildingBlock: NAHDIM_clean_sbu_0, # of connection points: 4
#     Node 10, Type 1, BuildingBlock: NAHDIM_clean_sbu_0, # of connection points: 4
#     Node 11, Type 1, BuildingBlock: NAHDIM_clean_sbu_0, # of connection points: 4
#     Edge 12, Type (0, 1), BuildingBlock: AJUNOK_clean_linker_0, # of connection points: 2
#     Edge 13, Type (0, 1), BuildingBlock: AJUNOK_clean_linker_0, # of connection points: 2
#     Edge 14, Type (0, 1), BuildingBlock: AJUNOK_clean_linker_0, # of connection points: 2
#     Edge 15, Type (0, 1), BuildingBlock: AJUNOK_clean_linker_0, # of connection points: 2
#     Edge 16, Type (0, 1), BuildingBlock: AJUNOK_clean_linker_0, # of connection points: 2
#     Edge 17, Type (0, 1), BuildingBlock: AJUNOK_clean_linker_0, # of connection points: 2
#     Edge 18, Type (0, 1), BuildingBlock: AJUNOK_clean_linker_0, # of connection points: 2
#     Edge 19, Type (0, 1), BuildingBlock: AJUNOK_clean_linker_0, # of connection points: 2
#     Edge 20, Type (0, 1), BuildingBlock: AJUNOK_clean_linker_0, # of connection points: 2
#     Edge 21, Type (0, 1), BuildingBlock: AJUNOK_clean_linker_0, # of connection points: 2
#     Edge 22, Type (0, 1), BuildingBlock: AJUNOK_clean_linker_0, # of connection points: 2
#     Edge 23, Type (0, 1), BuildingBlock: AJUNOK_clean_linker_0, # of connection points: 2
#     Edge 24, Type (0, 1), BuildingBlock: AJUNOK_clean_linker_0, # of connection points: 2
#     Edge 25, Type (0, 1), BuildingBlock: AJUNOK_clean_linker_0, # of connection points: 2
#     Edge 26, Type (0, 1), BuildingBlock: AJUNOK_clean_linker_0, # of connection points: 2
#     Edge 27, Type (0, 1), BuildingBlock: AJUNOK_clean_linker_0, # of connection points: 2
#     Edge 28, Type (0, 1), BuildingBlock: AJUNOK_clean_linker_0, # of connection points: 2
#     Edge 29, Type (0, 1), BuildingBlock: AJUNOK_clean_linker_0, # of connection points: 2
#     Edge 30, Type (0, 1), BuildingBlock: AJUNOK_clean_linker_0, # of connection points: 2
#     Edge 31, Type (0, 1), BuildingBlock: AJUNOK_clean_linker_0, # of connection points: 2
#     Edge 32, Type (0, 1), BuildingBlock: AJUNOK_clean_linker_0, # of connection points: 2
#     Edge 33, Type (0, 1), BuildingBlock: AJUNOK_clean_linker_0, # of connection points: 2
#     Edge 34, Type (0, 1), BuildingBlock: AJUNOK_clean_linker_0, # of connection points: 2
#     Edge 35, Type (0, 1), BuildingBlock: AJUNOK_clean_linker_0, # of connection points: 2
# Relax obj value: 0.020
# Max RMSD: 0.119
# Mean RMSD: 0.105
data_MOF--net-nom--node1-NAHDIM_clean_sbu_0--node2-MIFKUJ_clean_linker_1--edge1-AJUNOK_clean_linker_0
_symmetry_space_group_name_H-M    P1
_symmetry_Int_Tables_number       1
_symmetry_cell_setting            triclinic
loop_
_symmetry_equiv_pos_as_xyz
'x, y, z'
_cell_length_a     41.203786
_cell_length_b     42.492332
_cell_length_c     44.07645
_cell_angle_alpha  90.077638
_cell_angle_beta   90.628282
_cell_angle_gamma 121.02653
loop_
_atom_site_label
_atom_site_type_symbol
_atom_site_fract_x
_atom_site_fract_y
_atom_site_fract_z
_atom_type_partial_charge
H0 H 0.97924 0.46574 0.25658 0.0
H1 H 0.9385 0.43742 0.21245 0.0
H2 H 0.86574 0.47637 0.24257 0.0
H3 H 0.9092 0.50832 0.28504 0.0
H4 H 0.02178 0.53351 0.27086 0.0
H5 H 0.90278 0.43315 0.32045 0.0
H6 H 0.83724 0.40616 0.3381 0.0
H7 H 0.86707 0.50925 0.38083 0.0
H8 H 0.93182 0.53627 0.36276 0.0
H9 H 0.0304 0.57458 0.39985 0.0
H10 H 0.07067 0.58694 0.44483 0.0
H11 H 0.12836 0.53976 0.39977 0.0
H12 H 0.08765 0.5268 0.35487 0.0
H13 H 0.98063 0.51371 0.37782 0.0
H14 H 0.08547 0.61523 0.33843 0.0
H15 H 0.15039 0.65964 0.32376 0.0
H16 H 0.14849 0.57988 0.26179 0.0
H17 H 0.08402 0.53494 0.27742 0.0
C18 C 0.94707 0.48868 0.27467 0.0
C19 C 0.95458 0.46835 0.25372 0.0
C20 C 0.93074 0.45147 0.22868 0.0
C21 C 0.89803 0.45351 0.22433 0.0
C22 C 0.89054 0.474 0.24527 0.0
C23 C 0.91512 0.49187 0.2699 0.0
C24 C 0.97388 0.50724 0.30057 0.0
C25 C 0.01278 0.52868 0.29429 0.0
C26 C 0.9622 0.50374 0.33113 0.0
C27 C 0.9221 0.48677 0.34017 0.0
C28 C 0.89504 0.44998 0.33332 0.0
C29 C 0.85779 0.4346 0.34346 0.0
C30 C 0.84751 0.45562 0.3611 0.0
C31 C 0.87455 0.49239 0.36769 0.0
C32 C 0.91143 0.5078 0.35729 0.0
C33 C 0.05588 0.54969 0.37393 0.0
C34 C 0.0518 0.56701 0.39954 0.0
C35 C 0.0747 0.57397 0.42523 0.0
C36 C 0.10213 0.56375 0.42582 0.0
C37 C 0.10736 0.54784 0.39982 0.0
C38 C 0.08424 0.54063 0.37414 0.0
C39 C 0.02849 0.53827 0.34812 0.0
C40 C 0.9897 0.51838 0.3544 0.0
C41 C 0.04012 0.54516 0.31759 0.0
C42 C 0.08003 0.5715 0.3094 0.0
C43 C 0.09925 0.607 0.32213 0.0
C44 C 0.13617 0.63251 0.3135 0.0
C45 C 0.15456 0.6231 0.29184 0.0
C46 C 0.13527 0.58764 0.27898 0.0
C47 C 0.09835 0.56206 0.2877 0.0
H48 H 0.40669 0.93812 0.52906 0.0
H49 H 0.36824 0.87305 0.5416 0.0
H50 H 0.45038 0.85337 0.4995 0.0
H51 H 0.48903 0.91879 0.48701 0.0
H52 H 0.47827 0.99003 0.54512 0.0
H53 H 0.40929 0.93034 0.45196 0.0
H54 H 0.39035 0.88281 0.41288 0.0
H55 H 0.50739 0.92986 0.38796 0.0
H56 H 0.52627 0.97747 0.42719 0.0
H57 H 0.56838 0.09347 0.44843 0.0
H58 H 0.58878 0.15683 0.43404 0.0
H59 H 0.49781 0.15105 0.48619 0.0
H60 H 0.47744 0.08806 0.50034 0.0
H61 H 0.50441 0.03023 0.43798 0.0
H62 H 0.57309 0.09411 0.52875 0.0
H63 H 0.59334 0.13302 0.57449 0.0
H64 H 0.47764 0.07685 0.60499 0.0
H65 H 0.45775 0.03762 0.55979 0.0
C66 C 0.45063 0.93325 0.50703 0.0
C67 C 0.41668 0.9199 0.52285 0.0
C68 C 0.39481 0.88279 0.53008 0.0
C69 C 0.4066 0.85836 0.52179 0.0
C70 C 0.44071 0.87172 0.5061 0.0
C71 C 0.46273 0.90898 0.49897 0.0
C72 C 0.47258 0.97252 0.49858 0.0
C73 C 0.48384 0.99891 0.52169 0.0
C74 C 0.48104 0.98397 0.46809 0.0
C75 C 0.46925 0.95708 0.44278 0.0
C76 C 0.43088 0.93041 0.4381 0.0
C77 C 0.42012 0.90318 0.41591 0.0
C78 C 0.44752 0.90226 0.39784 0.0
C79 C 0.48576 0.92986 0.4017 0.0
C80 C 0.49654 0.95706 0.42401 0.0
C81 C 0.52196 0.08634 0.47606 0.0
C82 C 0.55293 0.10593 0.4568 0.0
C83 C 0.56446 0.14197 0.44852 0.0
C84 C 0.54517 0.15887 0.45941 0.0
C85 C 0.51369 0.13892 0.47808 0.0
C86 C 0.50214 0.10299 0.48625 0.0
C87 C 0.50893 0.04791 0.48458 0.0
C88 C 0.49943 0.0216 0.46147 0.0
C89 C 0.50211 0.03645 0.51517 0.0
C90 C 0.51395 0.06276 0.54099 0.0
C91 C 0.55207 0.09047 0.54516 0.0
C92 C 0.56361 0.11264 0.57128 0.0
C93 C 0.5372 0.10737 0.59363 0.0
C94 C 0.49882 0.08077 0.58864 0.0
C95 C 0.48738 0.05852 0.56272 0.0
H96 H 0.53787 0.57135 0.7098 0.0
H97 H 0.52025 0.60083 0.74879 0.0
H98 H 0.4037 0.53751 0.71834 0.0
H99 H 0.42125 0.50751 0.67973 0.0
H100 H 0.5137 0.49787 0.69915 0.0
H101 H 0.49411 0.59214 0.64835 0.0
H102 H 0.45178 0.6138 0.63188 0.0
H103 H 0.38347 0.51307 0.58141 0.0
H104 H 0.4245 0.49075 0.5988 0.0
H105 H 0.48192 0.4519 0.57173 0.0
H106 H 0.50834 0.43416 0.53028 0.0
H107 H 0.61713 0.48758 0.57618 0.0
H108 H 0.5908 0.50605 0.61745 0.0
H109 H 0.49662 0.51518 0.59014 0.0
H110 H 0.49245 0.41573 0.63381 0.0
H111 H 0.51085 0.37184 0.64908 0.0
H112 H 0.59487 0.45245 0.71069 0.0
H113 H 0.57661 0.49675 0.69507 0.0
C114 C 0.48101 0.53769 0.6915 0.0
C115 C 0.50847 0.56361 0.71165 0.0
C116 C 0.49844 0.58048 0.73385 0.0
C117 C 0.46077 0.57186 0.7362 0.0
C118 C 0.43309 0.5452 0.71656 0.0
C119 C 0.44307 0.52802 0.69457 0.0
C120 C 0.49261 0.52154 0.66707 0.0
C121 C 0.51052 0.50214 0.67531 0.0
C122 C 0.48586 0.52465 0.63591 0.0
C123 C 0.46217 0.53956 0.62521 0.0
C124 C 0.46985 0.57458 0.63399 0.0
C125 C 0.44585 0.58699 0.62451 0.0
C126 C 0.41449 0.56492 0.60551 0.0
C127 C 0.40758 0.53052 0.59598 0.0
C128 C 0.43104 0.51786 0.60588 0.0
C129 C 0.5343 0.48014 0.5978 0.0
C130 C 0.51144 0.45975 0.57295 0.0
C131 C 0.52647 0.44936 0.54941 0.0
C132 C 0.56467 0.45919 0.55022 0.0
C133 C 0.58758 0.47963 0.57506 0.0
C134 C 0.5725 0.48994 0.5987 0.0
C135 C 0.5186 0.49243 0.62219 0.0
C136 C 0.50012 0.51115 0.61399 0.0
C137 C 0.52203 0.48612 0.65324 0.0
C138 C 0.53363 0.45982 0.66288 0.0
C139 C 0.51515 0.42421 0.65036 0.0
C140 C 0.52552 0.39907 0.65919 0.0
C141 C 0.55418 0.40875 0.68109 0.0
C142 C 0.57234 0.44417 0.69403 0.0
C143 C 0.56206 0.4695 0.68503 0.0
H144 H 0.04577 0.56576 0.76472 0.0
H145 H 0.09325 0.59466 0.72504 0.0
H146 H 0.1343 0.52173 0.74541 0.0
H147 H 0.0868 0.49293 0.78515 0.0
H148 H 0.98804 0.49198 0.76998 0.0
H149 H 0.1052 0.57957 0.82626 0.0
H150 H 0.17116 0.60202 0.84118 0.0
H151 H 0.13805 0.49519 0.87704 0.0
H152 H 0.07229 0.47283 0.86206 0.0
H153 H 0.96924 0.43112 0.89228 0.0
H154 H 0.92352 0.40963 0.93347 0.0
H155 H 0.87451 0.46996 0.89604 0.0
H156 H 0.9211 0.49246 0.85543 0.0
H157 H 0.02365 0.49513 0.8783 0.0
H158 H 0.9194 0.4033 0.82636 0.0
H159 H 0.85443 0.36399 0.80789 0.0
H160 H 0.86083 0.45616 0.76099 0.0
H161 H 0.92632 0.49554 0.77935 0.0
C162 C 0.06292 0.52738 0.77799 0.0
C163 C 0.06491 0.55591 0.76054 0.0
C164 C 0.09192 0.5723 0.73786 0.0
C165 C 0.11722 0.56021 0.73203 0.0
C166 C 0.11526 0.53169 0.74957 0.0
C167 C 0.08817 0.51524 0.77222 0.0
C168 C 0.0342 0.51037 0.80207 0.0
C169 C 0.99578 0.49325 0.79375 0.0
C170 C 0.04424 0.50984 0.83279 0.0
C171 C 0.08396 0.52442 0.84275 0.0
C172 C 0.11221 0.56097 0.83721 0.0
C173 C 0.14981 0.57371 0.84564 0.0
C174 C 0.15964 0.55014 0.85989 0.0
C175 C 0.13117 0.51388 0.8661 0.0
C176 C 0.09367 0.50114 0.85758 0.0
C177 C 0.94859 0.46334 0.87068 0.0
C178 C 0.94879 0.43988 0.89299 0.0
C179 C 0.92254 0.42746 0.91641 0.0
C180 C 0.89572 0.43841 0.91809 0.0
C181 C 0.89529 0.4616 0.8956 0.0
C182 C 0.92159 0.47408 0.87219 0.0
C183 C 0.97737 0.47757 0.84638 0.0
C184 C 0.01575 0.49412 0.8546 0.0
C185 C 0.96724 0.47572 0.81537 0.0
C186 C 0.92746 0.45252 0.80469 0.0
C187 C 0.90669 0.41522 0.81246 0.0
C188 C 0.86957 0.39279 0.80192 0.0
C189 C 0.85244 0.40721 0.78343 0.0
C190 C 0.87341 0.44442 0.77526 0.0
C191 C 0.91068 0.4669 0.78578 0.0
H192 H 0.59284 0.06683 0.03517 0.0
H193 H 0.63704 0.12875 0.05321 0.0
H194 H 0.57612 0.1691 0.00192 0.0
H195 H 0.5297 0.10612 0.98584 0.0
H196 H 0.52248 0.02452 0.04524 0.0
H197 H 0.59403 0.08283 0.95238 0.0
H198 H 0.61458 0.12645 0.91036 0.0
H199 H 0.49773 0.08404 0.88453 0.0
H200 H 0.47733 0.04144 0.92714 0.0
H201 H 0.42643 0.92583 0.94648 0.0
H202 H 0.40316 0.86289 0.92855 0.0
H203 H 0.49147 0.86066 0.98034 0.0
H204 H 0.51491 0.92353 0.99789 0.0
H205 H 0.49375 0.98658 0.93724 0.0
H206 H 0.42241 0.9224 0.02345 0.0
H207 H 0.39808 0.88242 0.06785 0.0
H208 H 0.51098 0.93558 0.10651 0.0
H209 H 0.53531 0.97515 0.06214 0.0
C210 C 0.55811 0.08171 0.00877 0.0
C211 C 0.58874 0.0889 0.02786 0.0
C212 C 0.61443 0.12448 0.03782 0.0
C213 C 0.61074 0.15403 0.02834 0.0
C214 C 0.57984 0.1469 0.00947 0.0
C215 C 0.55354 0.11098 0.99998 0.0
C216 C 0.53106 0.04322 0.99907 0.0
C217 C 0.51656 0.01619 0.02157 0.0
C218 C 0.52121 0.03248 0.9683 0.0
C219 C 0.53413 0.0593 0.94318 0.0
C220 C 0.57285 0.08334 0.93794 0.0
C221 C 0.58455 0.10805 0.91384 0.0
C222 C 0.55774 0.10899 0.89442 0.0
C223 C 0.51902 0.0846 0.89954 0.0
C224 C 0.50735 0.06002 0.92369 0.0
C225 C 0.47204 0.92916 0.97387 0.0
C226 C 0.44058 0.91167 0.95411 0.0
C227 C 0.42727 0.87577 0.94399 0.0
C228 C 0.44548 0.857 0.95324 0.0
C229 C 0.47702 0.87461 0.97287 0.0
C230 C 0.49015 0.91033 0.98313 0.0
C231 C 0.48778 0.96788 0.98339 0.0
C232 C 0.49954 0.99489 0.96092 0.0
C233 C 0.49511 0.9787 0.01423 0.0
C234 C 0.48073 0.95182 0.03942 0.0
C235 C 0.44206 0.92493 0.04117 0.0
C236 C 0.42816 0.90215 0.06653 0.0
C237 C 0.45269 0.90606 0.09056 0.0
C238 C 0.49146 0.93227 0.08839 0.0
C239 C 0.50534 0.95484 0.06305 0.0
H240 H 0.47183 0.46078 0.21422 0.0
H241 H 0.48716 0.43631 0.25884 0.0
H242 H 0.60358 0.48916 0.23095 0.0
H243 H 0.5887 0.515 0.18689 0.0
H244 H 0.49711 0.53013 0.19981 0.0
H245 H 0.51311 0.43188 0.1542 0.0
H246 H 0.55118 0.40486 0.14038 0.0
H247 H 0.62802 0.50369 0.09206 0.0
H248 H 0.59139 0.5312 0.10726 0.0
H249 H 0.53928 0.57317 0.07361 0.0
H250 H 0.51683 0.58826 0.02747 0.0
H251 H 0.40521 0.54057 0.06535 0.0
H252 H 0.42746 0.52467 0.11145 0.0
H253 H 0.52087 0.5106 0.09349 0.0
H254 H 0.51911 0.61125 0.13288 0.0
H255 H 0.49849 0.65374 0.14739 0.0
H256 H 0.41555 0.57197 0.20692 0.0
H257 H 0.43537 0.52892 0.19175 0.0
C258 C 0.52898 0.48942 0.19694 0.0
C259 C 0.50069 0.46718 0.21766 0.0
C260 C 0.50937 0.45312 0.24304 0.0
C261 C 0.54643 0.4608 0.24806 0.0
C262 C 0.57471 0.48262 0.22726 0.0
C263 C 0.56618 0.49724 0.20209 0.0
C264 C 0.51932 0.50516 0.1707 0.0
C265 C 0.50172 0.52539 0.17648 0.0
C266 C 0.52768 0.50113 0.14038 0.0
C267 C 0.54976 0.48379 0.1322 0.0
C268 C 0.53849 0.44788 0.14105 0.0
C269 C 0.56005 0.43239 0.13293 0.0
C270 C 0.59293 0.45244 0.11559 0.0
C271 C 0.6035 0.48798 0.10618 0.0
C272 C 0.5823 0.50355 0.11456 0.0
C273 C 0.48507 0.54765 0.09603 0.0
C274 C 0.50998 0.56598 0.0721 0.0
C275 C 0.49717 0.57454 0.04575 0.0
C276 C 0.45922 0.56505 0.04281 0.0
C277 C 0.4346 0.54808 0.06715 0.0
C278 C 0.44735 0.53918 0.09349 0.0
C279 C 0.49795 0.53502 0.12248 0.0
C280 C 0.51599 0.51528 0.11677 0.0
C281 C 0.49194 0.54132 0.15288 0.0
C282 C 0.47842 0.56659 0.16085 0.0
C283 C 0.496 0.60211 0.14862 0.0
C284 C 0.48446 0.62649 0.15708 0.0
C285 C 0.45571 0.61612 0.1784 0.0
C286 C 0.43815 0.58071 0.19073 0.0
C287 C 0.44938 0.55613 0.18199 0.0
C288 C 0.59457 0.30986 0.42773 0.0
O289 O 0.60968 0.33584 0.44852 0.0
O290 O 0.66946 0.39595 0.38455 0.0
Zn291 Zn 0.61389 0.37291 0.39307 0.0
O292 O 0.60292 0.3931 0.43068 0.0
C293 C 0.5891 0.41176 0.35614 0.0
O294 O 0.60236 0.43385 0.37979 0.0
O295 O 0.5926 0.31867 0.40046 0.0
C296 C 0.62406 0.42269 0.44534 0.0
O297 O 0.65812 0.44597 0.43535 0.0
C298 C 0.69444 0.3995 0.40368 0.0
O299 O 0.68467 0.38934 0.43185 0.0
O300 O 0.59012 0.38232 0.35634 0.0
C301 C 0.30684 0.70248 0.54469 0.0
O302 O 0.29987 0.67904 0.52252 0.0
O303 O 0.28937 0.61482 0.5847 0.0
Zn304 Zn 0.25668 0.63583 0.57482 0.0
O305 O 0.22642 0.61516 0.53595 0.0
C306 C 0.22969 0.62207 0.63665 0.0
O307 O 0.26428 0.62963 0.64275 0.0
O308 O 0.29077 0.69034 0.57001 0.0
C309 C 0.19141 0.59078 0.53644 0.0
O310 O 0.17572 0.57687 0.56262 0.0
C311 C 0.30891 0.6092 0.56582 0.0
O312 O 0.30669 0.61544 0.53691 0.0
O313 O 0.22077 0.62444 0.60942 0.0
C314 C 0.59791 0.302 0.71086 0.0
O315 O 0.61113 0.29091 0.68896 0.0
O316 O 0.67251 0.28852 0.75528 0.0
Zn317 Zn 0.61726 0.25666 0.74472 0.0
O318 O 0.60871 0.22563 0.7071 0.0
C319 C 0.60835 0.20558 0.78947 0.0
O320 O 0.63671 0.20845 0.77383 0.0
O321 O 0.59652 0.28999 0.73752 0.0
C322 C 0.57958 0.19353 0.70542 0.0
O323 O 0.55616 0.18122 0.7283 0.0
C324 C 0.69822 0.31186 0.73817 0.0
O325 O 0.68954 0.31525 0.71007 0.0
O326 O 0.59345 0.22399 0.78102 0.0
C327 C 0.39662 0.70773 0.91513 0.0
O328 O 0.36593 0.6799 0.92654 0.0
O329 O 0.34292 0.62269 0.87913 0.0
Zn330 Zn 0.39811 0.64742 0.89079 0.0
O331 O 0.40578 0.62706 0.92972 0.0
C332 C 0.41439 0.63751 0.8294 0.0
O333 O 0.38781 0.64509 0.82369 0.0
O334 O 0.41709 0.70114 0.89795 0.0
C335 C 0.41205 0.60076 0.92957 0.0
O336 O 0.4118 0.5856 0.90351 0.0
C337 C 0.31555 0.60178 0.89614 0.0
O338 O 0.32278 0.59454 0.92351 0.0
O339 O 0.4251 0.63864 0.85675 0.0
C340 C 0.68052 0.38659 0.0799 0.0
O341 O 0.66328 0.3506 0.07912 0.0
O342 O 0.71173 0.32729 0.06461 0.0
Zn343 Zn 0.74742 0.382 0.07077 0.0
O344 O 0.77853 0.39498 0.10945 0.0
C345 C 0.78982 0.38307 0.01837 0.0
O346 O 0.77419 0.34816 0.02501 0.0
O347 O 0.71599 0.40556 0.07537 0.0
C348 C 0.80689 0.39143 0.1144 0.0
O349 O 0.81797 0.37722 0.09337 0.0
C350 C 0.71815 0.30197 0.07146 0.0
O351 O 0.75025 0.31031 0.08484 0.0
O352 O 0.7824 0.40325 0.0347 0.0
C353 C 0.40457 0.71604 0.21072 0.0
O354 O 0.3825 0.71969 0.1911 0.0
O355 O 0.33237 0.72548 0.25116 0.0
Zn356 Zn 0.38676 0.7622 0.24251 0.0
O357 O 0.39165 0.78973 0.20383 0.0
C358 C 0.39866 0.78829 0.30492 0.0
O359 O 0.37289 0.7539 0.31024 0.0
O360 O 0.41214 0.73306 0.23598 0.0
C361 C 0.40537 0.82421 0.2033 0.0
O362 O 0.4149 0.84262 0.22906 0.0
C363 C 0.30717 0.73361 0.25562 0.0
O364 O 0.31624 0.76803 0.25337 0.0
O365 O 0.40979 0.79773 0.27786 0.0
C366 C 0.20259 0.68619 0.27434 0.0
C367 C 0.19356 0.65057 0.28238 0.0
C368 C 0.23928 0.71274 0.26553 0.0
C369 C 0.26839 0.7047 0.26442 0.0
H370 H 0.18102 0.69354 0.27462 0.0
H371 H 0.24477 0.73975 0.25951 0.0
S372 S 0.25962 0.61578 0.28484 0.0
N373 N 0.21681 0.60893 0.28981 0.0
N374 N 0.28566 0.65847 0.27298 0.0
C375 C 0.25968 0.6691 0.27253 0.0
C376 C 0.22231 0.64214 0.28156 0.0
C377 C 0.56289 0.20866 0.42122 0.0
C378 C 0.55796 0.19743 0.45166 0.0
C379 C 0.57415 0.24492 0.41356 0.0
C380 C 0.58131 0.27132 0.43612 0.0
H381 H 0.55758 0.18916 0.40318 0.0
H382 H 0.57764 0.25236 0.38982 0.0
S383 S 0.57314 0.25555 0.51938 0.0
N384 N 0.56162 0.21539 0.50448 0.0
N385 N 0.58254 0.28334 0.49036 0.0
C386 C 0.57656 0.26029 0.46671 0.0
C387 C 0.56494 0.22341 0.47441 0.0
C388 C 0.38209 0.58017 0.56501 0.0
C389 C 0.38829 0.57714 0.59599 0.0
C390 C 0.35632 0.59047 0.55546 0.0
C391 C 0.33543 0.59761 0.57657 0.0
H392 H 0.39743 0.57468 0.54805 0.0
H393 H 0.35275 0.59273 0.53134 0.0
S394 S 0.34004 0.59103 0.66045 0.0
N395 N 0.37096 0.58067 0.64773 0.0
N396 N 0.32214 0.59961 0.6301 0.0
C397 C 0.34115 0.59411 0.60772 0.0
C398 C 0.3677 0.58401 0.61735 0.0
C399 C 0.80379 0.38228 0.74151 0.0
C400 C 0.81286 0.38325 0.77248 0.0
C401 C 0.76672 0.35904 0.7306 0.0
C402 C 0.73731 0.3359 0.75026 0.0
H403 H 0.82564 0.39924 0.7255 0.0
H404 H 0.76121 0.35912 0.70652 0.0
S405 S 0.74613 0.33015 0.83385 0.0
N406 N 0.78934 0.36064 0.82292 0.0
N407 N 0.71983 0.31663 0.80261 0.0
C408 C 0.74604 0.33702 0.78142 0.0
C409 C 0.78374 0.36075 0.79247 0.0
C410 C 0.45728 0.81068 0.92882 0.0
C411 C 0.43193 0.81914 0.94238 0.0
C412 C 0.44543 0.77477 0.91935 0.0
C413 C 0.4079 0.7459 0.92351 0.0
H414 H 0.48655 0.83202 0.92555 0.0
H415 H 0.46608 0.76952 0.90931 0.0
S416 S 0.33045 0.75406 0.95766 0.0
N417 N 0.36768 0.79613 0.95923 0.0
N418 N 0.3452 0.72861 0.94158 0.0
C419 C 0.38217 0.75419 0.93676 0.0
C420 C 0.39422 0.79081 0.94613 0.0
C421 C 0.59815 0.40045 0.09463 0.0
C422 C 0.61591 0.43622 0.1068 0.0
C423 C 0.61935 0.38485 0.08562 0.0
C424 C 0.65912 0.40452 0.08827 0.0
H425 H 0.56765 0.38449 0.09173 0.0
H426 H 0.60439 0.35718 0.0764 0.0
S427 S 0.71905 0.49832 0.12068 0.0
N428 N 0.67539 0.49019 0.12258 0.0
N429 N 0.71533 0.46126 0.10504 0.0
C430 C 0.67724 0.4403 0.10053 0.0
C431 C 0.65561 0.45603 0.10996 0.0
C432 C 0.37236 0.79257 0.50536 0.0
C433 C 0.38256 0.81877 0.52862 0.0
C434 C 0.34801 0.7551 0.51087 0.0
C435 C 0.33298 0.74236 0.53989 0.0
H436 H 0.38265 0.80117 0.48255 0.0
H437 H 0.34068 0.73607 0.49206 0.0
S438 S 0.35342 0.80007 0.60903 0.0
N439 N 0.37763 0.82961 0.58204 0.0
N440 N 0.33165 0.7592 0.59253 0.0
C441 C 0.34364 0.76835 0.56352 0.0
C442 C 0.36845 0.80653 0.55785 0.0
C443 C 0.57398 0.36428 0.66684 0.0
C444 C 0.56546 0.38194 0.68964 0.0
C445 C 0.58423 0.33846 0.67402 0.0
C446 C 0.58612 0.32898 0.70433 0.0
H447 H 0.57303 0.37073 0.64318 0.0
H448 H 0.59069 0.32583 0.65554 0.0
S449 S 0.56531 0.36683 0.77247 0.0
N450 N 0.55874 0.38786 0.74368 0.0
N451 N 0.57806 0.33928 0.7574 0.0
C452 C 0.57738 0.34633 0.72741 0.0
C453 C 0.56714 0.37286 0.72002 0.0
C454 C 0.20864 0.55776 0.898 0.0
C455 C 0.19951 0.56318 0.8684 0.0
C456 C 0.24614 0.56991 0.90662 0.0
C457 C 0.27595 0.58788 0.88594 0.0
H458 H 0.18666 0.54444 0.91476 0.0
H459 H 0.25175 0.56553 0.92982 0.0
S460 S 0.26624 0.60614 0.80486 0.0
N461 N 0.22266 0.58578 0.81789 0.0
N462 N 0.29323 0.60888 0.83392 0.0
C463 C 0.26699 0.59283 0.85602 0.0
C464 C 0.22878 0.58047 0.84731 0.0
C465 C 0.6264 0.21533 0.04926 0.0
C466 C 0.63875 0.192 0.03871 0.0
C467 C 0.65228 0.25083 0.06002 0.0
C468 C 0.69137 0.26405 0.0611 0.0
H469 H 0.59647 0.20595 0.04959 0.0
H470 H 0.64157 0.26791 0.06788 0.0
S471 S 0.73871 0.21548 0.03345 0.0
N472 N 0.69311 0.18601 0.02771 0.0
N473 N 0.74147 0.25212 0.0491 0.0
C474 C 0.70418 0.24126 0.05036 0.0
C475 C 0.67795 0.20541 0.03888 0.0
C476 C 0.43201 0.65784 0.16502 0.0
C477 C 0.44374 0.64215 0.18737 0.0
C478 C 0.41971 0.68191 0.17288 0.0
C479 C 0.41925 0.69166 0.20335 0.0
H480 H 0.43172 0.65094 0.1413 0.0
H481 H 0.41051 0.69296 0.15485 0.0
S482 S 0.44873 0.65898 0.2703 0.0
N483 N 0.45512 0.6385 0.24107 0.0
N484 N 0.43238 0.68413 0.25597 0.0
C485 C 0.43163 0.67665 0.2259 0.0
C486 C 0.44371 0.65174 0.21787 0.0
C487 C 0.77774 0.42525 0.35224 0.0
C488 C 0.8086 0.43966 0.37261 0.0
C489 C 0.74098 0.41255 0.36253 0.0
C490 C 0.7337 0.41331 0.39362 0.0
H491 H 0.78218 0.42459 0.32812 0.0
H492 H 0.71809 0.40194 0.34594 0.0
S493 S 0.80515 0.44725 0.45616 0.0
N494 N 0.82982 0.4533 0.42517 0.0
N495 N 0.76069 0.42905 0.4447 0.0
C496 C 0.76438 0.42704 0.41426 0.0
C497 C 0.80184 0.44034 0.40371 0.0
C498 C 0.16415 0.5882 0.45334 0.0
C499 C 0.12438 0.56867 0.45391 0.0
C500 C 0.18559 0.59453 0.48003 0.0
C501 C 0.16803 0.58117 0.50823 0.0
H502 H 0.17878 0.59943 0.43223 0.0
H503 H 0.21618 0.61044 0.47855 0.0
S504 S 0.06429 0.5257 0.52109 0.0
N505 N 0.06812 0.53417 0.48435 0.0
N506 N 0.1081 0.54578 0.53453 0.0
C507 C 0.12814 0.5605 0.50881 0.0
C508 C 0.10641 0.55437 0.48167 0.0
C509 C 0.57364 0.16727 0.62215 0.0
C510 C 0.54957 0.12884 0.62248 0.0
C511 C 0.58411 0.188 0.64916 0.0
C512 C 0.57071 0.17106 0.67742 0.0
H513 H 0.5837 0.1815 0.60082 0.0
H514 H 0.60194 0.2176 0.64777 0.0
S515 S 0.51108 0.07086 0.69091 0.0
N516 N 0.5158 0.07442 0.65372 0.0
N517 N 0.53473 0.11333 0.70427 0.0
C518 C 0.54772 0.13257 0.67812 0.0
C519 C 0.53734 0.11148 0.65072 0.0
C520 C 0.4604 0.59088 0.78995 0.0
C521 C 0.45035 0.59046 0.75931 0.0
C522 C 0.44957 0.60706 0.81234 0.0
C523 C 0.4284 0.62358 0.80492 0.0
H524 H 0.47598 0.57782 0.79678 0.0
H525 H 0.45715 0.60578 0.83572 0.0
S526 S 0.39907 0.63352 0.72726 0.0
N527 N 0.42086 0.61046 0.72224 0.0
N528 N 0.40048 0.64094 0.76415 0.0
C529 C 0.41942 0.62448 0.77412 0.0
C530 C 0.43035 0.60788 0.75137 0.0
C531 C 0.8477 0.38768 0.95025 0.0
C532 C 0.86812 0.42523 0.9432 0.0
C533 C 0.82226 0.37448 0.97432 0.0
C534 C 0.81622 0.39828 0.99247 0.0
H535 H 0.85133 0.36826 0.93696 0.0
H536 H 0.80737 0.34527 0.97875 0.0
S537 S 0.86349 0.49939 0.98367 0.0
N538 N 0.88122 0.48628 0.9564 0.0
N539 N 0.83315 0.46154 0.00159 0.0
C540 C 0.83636 0.43598 0.98552 0.0
C541 C 0.86231 0.44941 0.96091 0.0
C542 C 0.44734 0.9024 0.14693 0.0
C543 C 0.43804 0.8843 0.11866 0.0
C544 C 0.43557 0.88272 0.17404 0.0
C545 C 0.41428 0.84406 0.174 0.0
H546 H 0.46409 0.93212 0.14812 0.0
H547 H 0.44403 0.89807 0.19519 0.0
S548 S 0.38173 0.78367 0.10559 0.0
N549 N 0.40564 0.82573 0.09195 0.0
N550 N 0.38338 0.78843 0.14286 0.0
C551 C 0.40406 0.8256 0.14573 0.0
C552 C 0.41593 0.84579 0.11809 0.0
C553 C 0.56953 0.42325 0.27366 0.0
C554 C 0.55589 0.44742 0.27576 0.0
C555 C 0.579 0.41073 0.29985 0.0
C556 C 0.57591 0.42265 0.32893 0.0
H557 H 0.57283 0.41396 0.25164 0.0
H558 H 0.58979 0.39243 0.29724 0.0
S559 S 0.54118 0.48572 0.34628 0.0
N560 N 0.53908 0.48232 0.3089 0.0
N561 N 0.55751 0.45954 0.3581 0.0
C562 C 0.56205 0.44669 0.3312 0.0
C563 C 0.55187 0.45888 0.30461 0.0
C564 C 0.44837 0.88135 0.34485 0.0
C565 C 0.43614 0.8726 0.37494 0.0
C566 C 0.4367 0.85386 0.32257 0.0
C567 C 0.41243 0.81647 0.32952 0.0
H568 H 0.46643 0.90975 0.33829 0.0
H569 H 0.44634 0.86217 0.29959 0.0
S570 S 0.37532 0.77909 0.40592 0.0
N571 N 0.40063 0.824 0.41116 0.0
N572 N 0.37842 0.77224 0.36945 0.0
C573 C 0.40091 0.80734 0.35985 0.0
C574 C 0.41278 0.8354 0.38249 0.0
C575 C 0.6137 0.47579 0.51032 0.0
C576 C 0.58068 0.44889 0.52473 0.0
C577 C 0.62793 0.46702 0.48495 0.0
C578 C 0.60963 0.43103 0.47308 0.0
H579 H 0.62811 0.50403 0.51823 0.0
H580 H 0.65299 0.48882 0.47424 0.0
S581 S 0.52458 0.3498 0.50497 0.0
N582 N 0.53185 0.38436 0.52698 0.0
N583 N 0.55823 0.36771 0.47936 0.0
C584 C 0.57724 0.40364 0.48801 0.0
C585 C 0.56285 0.41262 0.51379 0.0
C586 C 0.18377 0.58914 0.71357 0.0
C587 C 0.14551 0.57711 0.70758 0.0
C588 C 0.21086 0.60439 0.69066 0.0
C589 C 0.20072 0.60805 0.66081 0.0
H590 H 0.19287 0.58678 0.73618 0.0
H591 H 0.2399 0.61296 0.69643 0.0
S592 S 0.10373 0.57986 0.63338 0.0
N593 N 0.09857 0.56927 0.66972 0.0
N594 N 0.1493 0.59818 0.62667 0.0
C595 C 0.16247 0.59635 0.65463 0.0
C596 C 0.13493 0.58084 0.678 0.0
C597 C 0.59799 0.13621 0.84868 0.0
C598 C 0.57023 0.13428 0.86812 0.0
C599 C 0.60987 0.1592 0.82336 0.0
C600 C 0.59454 0.18132 0.81641 0.0
H601 H 0.61032 0.11939 0.85281 0.0
H602 H 0.63122 0.15944 0.80909 0.0
S603 S 0.52217 0.1876 0.86114 0.0
N604 N 0.5286 0.15735 0.87949 0.0
N605 N 0.55058 0.20038 0.83172 0.0
C606 C 0.56686 0.17984 0.83583 0.0
C607 C 0.55479 0.15637 0.86169 0.0
C608 C 0.42817 0.59327 0.01374 0.0
C609 C 0.44533 0.57204 0.01397 0.0
C610 C 0.41694 0.60192 0.98637 0.0
C611 C 0.42202 0.58923 0.95827 0.0
H612 H 0.42428 0.60404 0.0348 0.0
H613 H 0.40451 0.61899 0.98728 0.0
S614 S 0.46319 0.5302 0.94722 0.0
N615 N 0.46517 0.53688 0.98426 0.0
N616 N 0.44395 0.55276 0.93281 0.0
C617 C 0.4381 0.56692 0.95841 0.0
C618 C 0.44982 0.55846 0.98626 0.0
C619 C 0.85849 0.45472 0.18106 0.0
C620 C 0.87296 0.43591 0.19723 0.0
C621 C 0.83648 0.43973 0.15463 0.0
C622 C 0.82879 0.40574 0.14295 0.0
H623 H 0.86491 0.48169 0.18842 0.0
H624 H 0.82631 0.45537 0.14276 0.0
S625 S 0.85615 0.34341 0.17789 0.0
N626 N 0.87446 0.37942 0.20089 0.0
N627 N 0.83498 0.3525 0.15018 0.0
C628 C 0.84236 0.38627 0.15895 0.0
C629 C 0.86397 0.40103 0.18632 0.0
loop_
_geom_bond_atom_site_label_1
_geom_bond_atom_site_label_2
_geom_bond_distance
_geom_bond_site_symmetry_2
_ccdc_geom_bond_type
H0 C19 0.949 . S
H1 C20 0.950 . S
H2 C22 0.950 . S
H3 C23 0.950 . S
H4 C25 0.950 . S
H5 C28 0.950 . S
H6 C29 0.950 . S
H7 C31 0.951 . S
H8 C32 0.949 . S
H9 C34 0.949 . S
H10 C35 0.950 . S
H11 C37 0.950 . S
H12 C38 0.950 . S
H13 C40 0.950 . S
H14 C43 0.950 . S
H15 C44 0.950 . S
H16 C46 0.951 . S
H17 C47 0.949 . S
C18 C19 1.376 . S
C18 C23 1.386 . S
C18 C24 1.483 . S
C19 H0 0.949 . S
C19 C18 1.376 . S
C19 C20 1.397 . S
C20 H1 0.950 . S
C20 C19 1.397 . S
C20 C21 1.391 . S
C21 C20 1.391 . S
C21 C22 1.405 . S
C22 H2 0.950 . S
C22 C21 1.405 . S
C22 C23 1.367 . S
C23 H3 0.950 . S
C23 C18 1.386 . S
C23 C22 1.367 . S
C24 C18 1.483 . S
C24 C25 1.382 1_655 S
C24 C26 1.403 . S
C25 H4 0.950 . S
C25 C24 1.382 1_455 S
C25 C41 1.411 . S
C26 C24 1.403 . S
C26 C27 1.489 . S
C26 C40 1.411 . S
C27 C26 1.489 . S
C27 C28 1.383 . S
C27 C32 1.382 . S
C28 H5 0.950 . S
C28 C27 1.383 . S
C28 C29 1.395 . S
C29 H6 0.950 . S
C29 C28 1.395 . S
C29 C30 1.288 . S
C30 C29 1.288 . S
C30 C31 1.392 . S
C31 H7 0.951 . S
C31 C30 1.392 . S
C31 C32 1.392 . S
C32 H8 0.949 . S
C32 C27 1.382 . S
C32 C31 1.392 . S
C33 C34 1.376 . S
C33 C38 1.386 . S
C33 C39 1.483 . S
C34 H9 0.949 . S
C34 C33 1.376 . S
C34 C35 1.397 . S
C35 H10 0.950 . S
C35 C34 1.397 . S
C35 C36 1.391 . S
C36 C35 1.391 . S
C36 C37 1.405 . S
C37 H11 0.950 . S
C37 C36 1.405 . S
C37 C38 1.367 . S
C38 H12 0.950 . S
C38 C33 1.386 . S
C38 C37 1.367 . S
C39 C33 1.483 . S
C39 C40 1.382 1_455 S
C39 C41 1.403 . S
C40 H13 0.950 . S
C40 C26 1.411 . S
C40 C39 1.382 1_655 S
C41 C25 1.411 . S
C41 C39 1.403 . S
C41 C42 1.489 . S
C42 C41 1.489 . S
C42 C43 1.383 . S
C42 C47 1.382 . S
C43 H14 0.950 . S
C43 C42 1.383 . S
C43 C44 1.395 . S
C44 H15 0.950 . S
C44 C43 1.395 . S
C44 C45 1.288 . S
C45 C44 1.288 . S
C45 C46 1.392 . S
C46 H16 0.951 . S
C46 C45 1.392 . S
C46 C47 1.392 . S
C47 H17 0.949 . S
C47 C42 1.382 . S
C47 C46 1.392 . S
H48 C67 0.949 . S
H49 C68 0.950 . S
H50 C70 0.950 . S
H51 C71 0.950 . S
H52 C73 0.948 1_565 S
H53 C76 0.950 . S
H54 C77 0.950 . S
H55 C79 0.951 . S
H56 C80 0.949 . S
H57 C82 0.949 . S
H58 C83 0.950 . S
H59 C85 0.950 . S
H60 C86 0.950 . S
H61 C88 0.950 . S
H62 C91 0.950 . S
H63 C92 0.950 . S
H64 C94 0.951 . S
H65 C95 0.949 . S
C66 C67 1.376 . S
C66 C71 1.386 . S
C66 C72 1.483 . S
C67 H48 0.949 . S
C67 C66 1.376 . S
C67 C68 1.397 . S
C68 H49 0.950 . S
C68 C67 1.397 . S
C68 C69 1.391 . S
C69 C68 1.391 . S
C69 C70 1.405 . S
C70 H50 0.950 . S
C70 C69 1.405 . S
C70 C71 1.367 . S
C71 H51 0.950 . S
C71 C66 1.386 . S
C71 C70 1.367 . S
C72 C66 1.483 . S
C72 C73 1.376 1_565 S
C72 C74 1.403 . S
C73 H52 0.948 1_545 S
C73 C72 1.376 1_545 S
C73 C89 1.419 . S
C74 C72 1.403 . S
C74 C75 1.489 . S
C74 C88 1.411 1_565 S
C75 C74 1.489 . S
C75 C76 1.383 . S
C75 C80 1.382 . S
C76 H53 0.950 . S
C76 C75 1.383 . S
C76 C77 1.395 . S
C77 H54 0.950 . S
C77 C76 1.395 . S
C77 C78 1.288 . S
C78 C77 1.288 . S
C78 C79 1.392 . S
C79 H55 0.951 . S
C79 C78 1.392 . S
C79 C80 1.392 . S
C80 H56 0.949 . S
C80 C75 1.382 . S
C80 C79 1.392 . S
C81 C82 1.376 . S
C81 C86 1.386 . S
C81 C87 1.483 . S
C82 H57 0.949 . S
C82 C81 1.376 . S
C82 C83 1.397 . S
C83 H58 0.950 . S
C83 C82 1.397 . S
C83 C84 1.391 . S
C84 C83 1.391 . S
C84 C85 1.405 . S
C85 H59 0.950 . S
C85 C84 1.405 . S
C85 C86 1.367 . S
C86 H60 0.950 . S
C86 C81 1.386 . S
C86 C85 1.367 . S
C87 C81 1.483 . S
C87 C88 1.382 . S
C87 C89 1.403 . S
C88 H61 0.950 . S
C88 C74 1.411 1_545 S
C88 C87 1.382 . S
C89 C73 1.419 . S
C89 C87 1.403 . S
C89 C90 1.489 . S
C90 C89 1.489 . S
C90 C91 1.383 . S
C90 C95 1.382 . S
C91 H62 0.950 . S
C91 C90 1.383 . S
C91 C92 1.395 . S
C92 H63 0.950 . S
C92 C91 1.395 . S
C92 C93 1.288 . S
C93 C92 1.288 . S
C93 C94 1.392 . S
C94 H64 0.951 . S
C94 C93 1.392 . S
C94 C95 1.392 . S
C95 H65 0.949 . S
C95 C90 1.382 . S
C95 C94 1.392 . S
H96 C115 0.949 . S
H97 C116 0.950 . S
H98 C118 0.950 . S
H99 C119 0.950 . S
H100 C121 0.950 . S
H101 C124 0.950 . S
H102 C125 0.950 . S
H103 C127 0.951 . S
H104 C128 0.949 . S
H105 C130 0.949 . S
H106 C131 0.950 . S
H107 C133 0.950 . S
H108 C134 0.950 . S
H109 C136 0.950 . S
H110 C139 0.950 . S
H111 C140 0.950 . S
H112 C142 0.951 . S
H113 C143 0.949 . S
C114 C115 1.376 . S
C114 C119 1.386 . S
C114 C120 1.483 . S
C115 H96 0.949 . S
C115 C114 1.376 . S
C115 C116 1.397 . S
C116 H97 0.950 . S
C116 C115 1.397 . S
C116 C117 1.391 . S
C117 C116 1.391 . S
C117 C118 1.405 . S
C118 H98 0.950 . S
C118 C117 1.405 . S
C118 C119 1.367 . S
C119 H99 0.950 . S
C119 C114 1.386 . S
C119 C118 1.367 . S
C120 C114 1.483 . S
C120 C121 1.382 . S
C120 C122 1.403 . S
C121 H100 0.950 . S
C121 C120 1.382 . S
C121 C137 1.411 . S
C122 C120 1.403 . S
C122 C123 1.489 . S
C122 C136 1.411 . S
C123 C122 1.489 . S
C123 C124 1.383 . S
C123 C128 1.382 . S
C124 H101 0.950 . S
C124 C123 1.383 . S
C124 C125 1.395 . S
C125 H102 0.950 . S
C125 C124 1.395 . S
C125 C126 1.288 . S
C126 C125 1.288 . S
C126 C127 1.392 . S
C127 H103 0.951 . S
C127 C126 1.392 . S
C127 C128 1.392 . S
C128 H104 0.949 . S
C128 C123 1.382 . S
C128 C127 1.392 . S
C129 C130 1.376 . S
C129 C134 1.386 . S
C129 C135 1.483 . S
C130 H105 0.949 . S
C130 C129 1.376 . S
C130 C131 1.397 . S
C131 H106 0.950 . S
C131 C130 1.397 . S
C131 C132 1.391 . S
C132 C131 1.391 . S
C132 C133 1.405 . S
C133 H107 0.950 . S
C133 C132 1.405 . S
C133 C134 1.367 . S
C134 H108 0.950 . S
C134 C129 1.386 . S
C134 C133 1.367 . S
C135 C129 1.483 . S
C135 C136 1.382 . S
C135 C137 1.403 . S
C136 H109 0.950 . S
C136 C122 1.411 . S
C136 C135 1.382 . S
C137 C121 1.411 . S
C137 C135 1.403 . S
C137 C138 1.489 . S
C138 C137 1.489 . S
C138 C139 1.383 . S
C138 C143 1.382 . S
C139 H110 0.950 . S
C139 C138 1.383 . S
C139 C140 1.395 . S
C140 H111 0.950 . S
C140 C139 1.395 . S
C140 C141 1.288 . S
C141 C140 1.288 . S
C141 C142 1.392 . S
C142 H112 0.951 . S
C142 C141 1.392 . S
C142 C143 1.392 . S
C143 H113 0.949 . S
C143 C138 1.382 . S
C143 C142 1.392 . S
H144 C163 0.949 . S
H145 C164 0.950 . S
H146 C166 0.950 . S
H147 C167 0.950 . S
H148 C169 0.950 . S
H149 C172 0.950 . S
H150 C173 0.950 . S
H151 C175 0.951 . S
H152 C176 0.949 . S
H153 C178 0.949 . S
H154 C179 0.950 . S
H155 C181 0.950 . S
H156 C182 0.950 . S
H157 C184 0.950 . S
H158 C187 0.950 . S
H159 C188 0.950 . S
H160 C190 0.951 . S
H161 C191 0.949 . S
C162 C163 1.376 . S
C162 C167 1.386 . S
C162 C168 1.483 . S
C163 H144 0.949 . S
C163 C162 1.376 . S
C163 C164 1.397 . S
C164 H145 0.950 . S
C164 C163 1.397 . S
C164 C165 1.391 . S
C165 C164 1.391 . S
C165 C166 1.405 . S
C166 H146 0.950 . S
C166 C165 1.405 . S
C166 C167 1.367 . S
C167 H147 0.950 . S
C167 C162 1.386 . S
C167 C166 1.367 . S
C168 C162 1.483 . S
C168 C169 1.382 1_455 S
C168 C170 1.403 . S
C169 H148 0.950 . S
C169 C168 1.382 1_655 S
C169 C185 1.411 . S
C170 C168 1.403 . S
C170 C171 1.489 . S
C170 C184 1.411 . S
C171 C170 1.489 . S
C171 C172 1.383 . S
C171 C176 1.382 . S
C172 H149 0.950 . S
C172 C171 1.383 . S
C172 C173 1.395 . S
C173 H150 0.950 . S
C173 C172 1.395 . S
C173 C174 1.288 . S
C174 C173 1.288 . S
C174 C175 1.392 . S
C175 H151 0.951 . S
C175 C174 1.392 . S
C175 C176 1.392 . S
C176 H152 0.949 . S
C176 C171 1.382 . S
C176 C175 1.392 . S
C177 C178 1.376 . S
C177 C182 1.386 . S
C177 C183 1.483 . S
C178 H153 0.949 . S
C178 C177 1.376 . S
C178 C179 1.397 . S
C179 H154 0.950 . S
C179 C178 1.397 . S
C179 C180 1.391 . S
C180 C179 1.391 . S
C180 C181 1.405 . S
C181 H155 0.950 . S
C181 C180 1.405 . S
C181 C182 1.367 . S
C182 H156 0.950 . S
C182 C177 1.386 . S
C182 C181 1.367 . S
C183 C177 1.483 . S
C183 C184 1.382 1_655 S
C183 C185 1.403 . S
C184 H157 0.950 . S
C184 C170 1.411 . S
C184 C183 1.382 1_455 S
C185 C169 1.411 . S
C185 C183 1.403 . S
C185 C186 1.489 . S
C186 C185 1.489 . S
C186 C187 1.383 . S
C186 C191 1.382 . S
C187 H158 0.950 . S
C187 C186 1.383 . S
C187 C188 1.395 . S
C188 H159 0.950 . S
C188 C187 1.395 . S
C188 C189 1.288 . S
C189 C188 1.288 . S
C189 C190 1.392 . S
C190 H160 0.951 . S
C190 C189 1.392 . S
C190 C191 1.392 . S
C191 H161 0.949 . S
C191 C186 1.382 . S
C191 C190 1.392 . S
H192 C211 0.949 . S
H193 C212 0.950 . S
H194 C214 0.950 . S
H195 C215 0.961 . S
H196 C217 0.950 . S
H197 C220 0.950 . S
H198 C221 0.950 . S
H199 C223 0.951 . S
H200 C224 0.949 . S
H201 C226 0.949 . S
H202 C227 0.950 . S
H203 C229 0.950 . S
H204 C230 0.950 . S
H205 C232 0.950 . S
H206 C235 0.950 . S
H207 C236 0.950 . S
H208 C238 0.951 . S
H209 C239 0.949 . S
C210 C211 1.376 . S
C210 C215 1.382 1_554 S
C210 C216 1.483 1_554 S
C211 H192 0.949 . S
C211 C210 1.376 . S
C211 C212 1.397 . S
C212 H193 0.950 . S
C212 C211 1.397 . S
C212 C213 1.391 . S
C213 C212 1.391 . S
C213 C214 1.405 . S
C214 H194 0.950 . S
C214 C213 1.405 . S
C214 C215 1.361 1_554 S
C215 H195 0.961 . S
C215 C210 1.382 1_556 S
C215 C214 1.361 1_556 S
C216 C210 1.483 1_556 S
C216 C217 1.382 1_556 S
C216 C218 1.403 . S
C217 H196 0.950 . S
C217 C216 1.382 1_554 S
C217 C233 1.411 1_545 S
C218 C216 1.403 . S
C218 C219 1.489 . S
C218 C232 1.411 1_545 S
C219 C218 1.489 . S
C219 C220 1.383 . S
C219 C224 1.382 . S
C220 H197 0.950 . S
C220 C219 1.383 . S
C220 C221 1.395 . S
C221 H198 0.950 . S
C221 C220 1.395 . S
C221 C222 1.288 . S
C222 C221 1.288 . S
C222 C223 1.392 . S
C223 H199 0.951 . S
C223 C222 1.392 . S
C223 C224 1.392 . S
C224 H200 0.949 . S
C224 C219 1.382 . S
C224 C223 1.392 . S
C225 C226 1.376 . S
C225 C230 1.386 . S
C225 C231 1.483 . S
C226 H201 0.949 . S
C226 C225 1.376 . S
C226 C227 1.397 . S
C227 H202 0.950 . S
C227 C226 1.397 . S
C227 C228 1.391 . S
C228 C227 1.391 . S
C228 C229 1.405 . S
C229 H203 0.950 . S
C229 C228 1.405 . S
C229 C230 1.367 . S
C230 H204 0.950 . S
C230 C225 1.386 . S
C230 C229 1.367 . S
C231 C225 1.483 . S
C231 C232 1.382 . S
C231 C233 1.403 1_556 S
C232 H205 0.950 . S
C232 C218 1.411 1_565 S
C232 C231 1.382 . S
C233 C217 1.411 1_565 S
C233 C231 1.403 1_554 S
C233 C234 1.489 . S
C234 C233 1.489 . S
C234 C235 1.383 . S
C234 C239 1.382 . S
C235 H206 0.950 . S
C235 C234 1.383 . S
C235 C236 1.395 . S
C236 H207 0.950 . S
C236 C235 1.395 . S
C236 C237 1.288 . S
C237 C236 1.288 . S
C237 C238 1.392 . S
C238 H208 0.951 . S
C238 C237 1.392 . S
C238 C239 1.392 . S
C239 H209 0.949 . S
C239 C234 1.382 . S
C239 C238 1.392 . S
H240 C259 0.949 . S
H241 C260 0.950 . S
H242 C262 0.950 . S
H243 C263 0.950 . S
H244 C265 0.950 . S
H245 C268 0.950 . S
H246 C269 0.950 . S
H247 C271 0.951 . S
H248 C272 0.949 . S
H249 C274 0.949 . S
H250 C275 0.950 . S
H251 C277 0.950 . S
H252 C278 0.950 . S
H253 C280 0.950 . S
H254 C283 0.950 . S
H255 C284 0.950 . S
H256 C286 0.951 . S
H257 C287 0.949 . S
C258 C259 1.376 . S
C258 C263 1.386 . S
C258 C264 1.483 . S
C259 H240 0.949 . S
C259 C258 1.376 . S
C259 C260 1.397 . S
C260 H241 0.950 . S
C260 C259 1.397 . S
C260 C261 1.391 . S
C261 C260 1.391 . S
C261 C262 1.405 . S
C262 H242 0.950 . S
C262 C261 1.405 . S
C262 C263 1.367 . S
C263 H243 0.950 . S
C263 C258 1.386 . S
C263 C262 1.367 . S
C264 C258 1.483 . S
C264 C265 1.382 . S
C264 C266 1.403 . S
C265 H244 0.950 . S
C265 C264 1.382 . S
C265 C281 1.411 . S
C266 C264 1.403 . S
C266 C267 1.489 . S
C266 C280 1.411 . S
C267 C266 1.489 . S
C267 C268 1.383 . S
C267 C272 1.382 . S
C268 H245 0.950 . S
C268 C267 1.383 . S
C268 C269 1.395 . S
C269 H246 0.950 . S
C269 C268 1.395 . S
C269 C270 1.288 . S
C270 C269 1.288 . S
C270 C271 1.392 . S
C271 H247 0.951 . S
C271 C270 1.392 . S
C271 C272 1.392 . S
C272 H248 0.949 . S
C272 C267 1.382 . S
C272 C271 1.392 . S
C273 C274 1.376 . S
C273 C278 1.386 . S
C273 C279 1.483 . S
C274 H249 0.949 . S
C274 C273 1.376 . S
C274 C275 1.397 . S
C275 H250 0.950 . S
C275 C274 1.397 . S
C275 C276 1.391 . S
C276 C275 1.391 . S
C276 C277 1.405 . S
C277 H251 0.950 . S
C277 C276 1.405 . S
C277 C278 1.367 . S
C278 H252 0.950 . S
C278 C273 1.386 . S
C278 C277 1.367 . S
C279 C273 1.483 . S
C279 C280 1.382 . S
C279 C281 1.403 . S
C280 H253 0.950 . S
C280 C266 1.411 . S
C280 C279 1.382 . S
C281 C265 1.411 . S
C281 C279 1.403 . S
C281 C282 1.489 . S
C282 C281 1.489 . S
C282 C283 1.383 . S
C282 C287 1.382 . S
C283 H254 0.950 . S
C283 C282 1.383 . S
C283 C284 1.395 . S
C284 H255 0.950 . S
C284 C283 1.395 . S
C284 C285 1.288 . S
C285 C284 1.288 . S
C285 C286 1.392 . S
C286 H256 0.951 . S
C286 C285 1.392 . S
C286 C287 1.392 . S
C287 H257 0.949 . S
C287 C282 1.382 . S
C287 C286 1.392 . S
C288 O289 1.160 . S
C288 O295 1.185 . S
O289 C288 1.160 . S
O290 Zn291 1.899 . S
O290 C298 1.284 . S
Zn291 O290 1.899 . S
Zn291 O292 2.032 . S
Zn291 O295 2.086 . S
Zn291 O300 1.977 . S
O292 Zn291 2.032 . S
O292 C296 1.278 . S
C293 O294 1.203 . S
C293 O300 1.267 . S
O294 C293 1.203 . S
O295 C288 1.185 . S
O295 Zn291 2.086 . S
C296 O292 1.278 . S
C296 O297 1.211 . S
O297 C296 1.211 . S
C298 O290 1.284 . S
C298 O299 1.273 . S
O299 C298 1.273 . S
O300 Zn291 1.977 . S
O300 C293 1.267 . S
C301 O302 1.160 . S
C301 O308 1.185 . S
O302 C301 1.160 . S
O303 Zn304 1.899 . S
O303 C311 1.284 . S
Zn304 O303 1.899 . S
Zn304 O305 2.032 . S
Zn304 O308 2.086 . S
Zn304 O313 1.977 . S
O305 Zn304 2.032 . S
O305 C309 1.278 . S
C306 O307 1.203 . S
C306 O313 1.267 . S
O307 C306 1.203 . S
O308 C301 1.185 . S
O308 Zn304 2.086 . S
C309 O305 1.278 . S
C309 O310 1.211 . S
O310 C309 1.211 . S
C311 O303 1.284 . S
C311 O312 1.273 . S
O312 C311 1.273 . S
O313 Zn304 1.977 . S
O313 C306 1.267 . S
C314 O315 1.160 . S
C314 O321 1.185 . S
O315 C314 1.160 . S
O316 Zn317 1.899 . S
O316 C324 1.284 . S
Zn317 O316 1.899 . S
Zn317 O318 2.032 . S
Zn317 O321 2.086 . S
Zn317 O326 1.977 . S
O318 Zn317 2.032 . S
O318 C322 1.278 . S
C319 O320 1.203 . S
C319 O326 1.267 . S
O320 C319 1.203 . S
O321 C314 1.185 . S
O321 Zn317 2.086 . S
C322 O318 1.278 . S
C322 O323 1.211 . S
O323 C322 1.211 . S
C324 O316 1.284 . S
C324 O325 1.273 . S
O325 C324 1.273 . S
O326 Zn317 1.977 . S
O326 C319 1.267 . S
C327 O328 1.160 . S
C327 O334 1.185 . S
O328 C327 1.160 . S
O329 Zn330 1.899 . S
O329 C337 1.284 . S
Zn330 O329 1.899 . S
Zn330 O331 2.032 . S
Zn330 O334 2.086 . S
Zn330 O339 1.977 . S
O331 Zn330 2.032 . S
O331 C335 1.278 . S
C332 O333 1.203 . S
C332 O339 1.267 . S
O333 C332 1.203 . S
O334 C327 1.185 . S
O334 Zn330 2.086 . S
C335 O331 1.278 . S
C335 O336 1.211 . S
O336 C335 1.211 . S
C337 O329 1.284 . S
C337 O338 1.273 . S
O338 C337 1.273 . S
O339 Zn330 1.977 . S
O339 C332 1.267 . S
C340 O341 1.160 . S
C340 O347 1.185 . S
O341 C340 1.160 . S
O342 Zn343 1.899 . S
O342 C350 1.284 . S
Zn343 O342 1.899 . S
Zn343 O344 2.032 . S
Zn343 O347 2.086 . S
Zn343 O352 1.977 . S
O344 Zn343 2.032 . S
O344 C348 1.278 . S
C345 O346 1.203 . S
C345 O352 1.267 . S
O346 C345 1.203 . S
O347 C340 1.185 . S
O347 Zn343 2.086 . S
C348 O344 1.278 . S
C348 O349 1.211 . S
O349 C348 1.211 . S
C350 O342 1.284 . S
C350 O351 1.273 . S
O351 C350 1.273 . S
O352 Zn343 1.977 . S
O352 C345 1.267 . S
C353 O354 1.160 . S
C353 O360 1.185 . S
O354 C353 1.160 . S
O355 Zn356 1.899 . S
O355 C363 1.284 . S
Zn356 O355 1.899 . S
Zn356 O357 2.032 . S
Zn356 O360 2.086 . S
Zn356 O365 1.977 . S
O357 Zn356 2.032 . S
O357 C361 1.278 . S
C358 O359 1.203 . S
C358 O365 1.267 . S
O359 C358 1.203 . S
O360 C353 1.185 . S
O360 Zn356 2.086 . S
C361 O357 1.278 . S
C361 O362 1.211 . S
O362 C361 1.211 . S
C363 O355 1.284 . S
C363 O364 1.273 . S
O364 C363 1.273 . S
O365 Zn356 1.977 . S
O365 C358 1.267 . S
C366 C367 1.369 . S
C366 C368 1.419 . S
C366 H370 0.930 . S
C367 C366 1.369 . S
C367 C376 1.429 . S
C368 C366 1.419 . S
C368 C369 1.363 . S
C368 H371 0.929 . S
C369 C368 1.363 . S
C369 C375 1.428 . S
H370 C366 0.930 . S
H371 C368 0.929 . S
S372 N373 1.613 . S
S372 N374 1.610 . S
N373 S372 1.613 . S
N373 C376 1.350 . S
N374 S372 1.610 . S
N374 C375 1.351 . S
C375 C369 1.428 . S
C375 N374 1.351 . S
C375 C376 1.434 . S
C376 C367 1.429 . S
C376 N373 1.350 . S
C376 C375 1.434 . S
C377 C378 1.369 . S
C377 C379 1.419 . S
C377 H381 0.930 . S
C378 C377 1.369 . S
C378 C387 1.429 . S
C379 C377 1.419 . S
C379 C380 1.363 . S
C379 H382 0.929 . S
C380 C379 1.363 . S
C380 C386 1.428 . S
H381 C377 0.930 . S
H382 C379 0.929 . S
S383 N384 1.613 . S
S383 N385 1.610 . S
N384 S383 1.613 . S
N384 C387 1.350 . S
N385 S383 1.610 . S
N385 C386 1.351 . S
C386 C380 1.428 . S
C386 N385 1.351 . S
C386 C387 1.434 . S
C387 C378 1.429 . S
C387 N384 1.350 . S
C387 C386 1.434 . S
C388 C389 1.369 . S
C388 C390 1.419 . S
C388 H392 0.930 . S
C389 C388 1.369 . S
C389 C398 1.429 . S
C390 C388 1.419 . S
C390 C391 1.363 . S
C390 H393 0.929 . S
C391 C390 1.363 . S
C391 C397 1.428 . S
H392 C388 0.930 . S
H393 C390 0.929 . S
S394 N395 1.613 . S
S394 N396 1.610 . S
N395 S394 1.613 . S
N395 C398 1.350 . S
N396 S394 1.610 . S
N396 C397 1.351 . S
C397 C391 1.428 . S
C397 N396 1.351 . S
C397 C398 1.434 . S
C398 C389 1.429 . S
C398 N395 1.350 . S
C398 C397 1.434 . S
C399 C400 1.369 . S
C399 C401 1.419 . S
C399 H403 0.930 . S
C400 C399 1.369 . S
C400 C409 1.429 . S
C401 C399 1.419 . S
C401 C402 1.363 . S
C401 H404 0.929 . S
C402 C401 1.363 . S
C402 C408 1.428 . S
H403 C399 0.930 . S
H404 C401 0.929 . S
S405 N406 1.613 . S
S405 N407 1.610 . S
N406 S405 1.613 . S
N406 C409 1.350 . S
N407 S405 1.610 . S
N407 C408 1.351 . S
C408 C402 1.428 . S
C408 N407 1.351 . S
C408 C409 1.434 . S
C409 C400 1.429 . S
C409 N406 1.350 . S
C409 C408 1.434 . S
C410 C411 1.369 . S
C410 C412 1.419 . S
C410 H414 0.930 . S
C411 C410 1.369 . S
C411 C420 1.429 . S
C412 C410 1.419 . S
C412 C413 1.363 . S
C412 H415 0.929 . S
C413 C412 1.363 . S
C413 C419 1.428 . S
H414 C410 0.930 . S
H415 C412 0.929 . S
S416 N417 1.613 . S
S416 N418 1.610 . S
N417 S416 1.613 . S
N417 C420 1.350 . S
N418 S416 1.610 . S
N418 C419 1.351 . S
C419 C413 1.428 . S
C419 N418 1.351 . S
C419 C420 1.434 . S
C420 C411 1.429 . S
C420 N417 1.350 . S
C420 C419 1.434 . S
C421 C422 1.369 . S
C421 C423 1.419 . S
C421 H425 0.930 . S
C422 C421 1.369 . S
C422 C431 1.429 . S
C423 C421 1.419 . S
C423 C424 1.363 . S
C423 H426 0.929 . S
C424 C423 1.363 . S
C424 C430 1.428 . S
H425 C421 0.930 . S
H426 C423 0.929 . S
S427 N428 1.613 . S
S427 N429 1.610 . S
N428 S427 1.613 . S
N428 C431 1.350 . S
N429 S427 1.610 . S
N429 C430 1.351 . S
C430 C424 1.428 . S
C430 N429 1.351 . S
C430 C431 1.434 . S
C431 C422 1.429 . S
C431 N428 1.350 . S
C431 C430 1.434 . S
C432 C433 1.369 . S
C432 C434 1.419 . S
C432 H436 0.930 . S
C433 C432 1.369 . S
C433 C442 1.429 . S
C434 C432 1.419 . S
C434 C435 1.363 . S
C434 H437 0.929 . S
C435 C434 1.363 . S
C435 C441 1.428 . S
H436 C432 0.930 . S
H437 C434 0.929 . S
S438 N439 1.613 . S
S438 N440 1.610 . S
N439 S438 1.613 . S
N439 C442 1.350 . S
N440 S438 1.610 . S
N440 C441 1.351 . S
C441 C435 1.428 . S
C441 N440 1.351 . S
C441 C442 1.434 . S
C442 C433 1.429 . S
C442 N439 1.350 . S
C442 C441 1.434 . S
C443 C444 1.369 . S
C443 C445 1.419 . S
C443 H447 0.930 . S
C444 C443 1.369 . S
C444 C453 1.429 . S
C445 C443 1.419 . S
C445 C446 1.363 . S
C445 H448 0.929 . S
C446 C445 1.363 . S
C446 C452 1.428 . S
H447 C443 0.930 . S
H448 C445 0.929 . S
S449 N450 1.613 . S
S449 N451 1.610 . S
N450 S449 1.613 . S
N450 C453 1.350 . S
N451 S449 1.610 . S
N451 C452 1.351 . S
C452 C446 1.428 . S
C452 N451 1.351 . S
C452 C453 1.434 . S
C453 C444 1.429 . S
C453 N450 1.350 . S
C453 C452 1.434 . S
C454 C455 1.369 . S
C454 C456 1.419 . S
C454 H458 0.930 . S
C455 C454 1.369 . S
C455 C464 1.429 . S
C456 C454 1.419 . S
C456 C457 1.363 . S
C456 H459 0.929 . S
C457 C456 1.363 . S
C457 C463 1.428 . S
H458 C454 0.930 . S
H459 C456 0.929 . S
S460 N461 1.613 . S
S460 N462 1.610 . S
N461 S460 1.613 . S
N461 C464 1.350 . S
N462 S460 1.610 . S
N462 C463 1.351 . S
C463 C457 1.428 . S
C463 N462 1.351 . S
C463 C464 1.434 . S
C464 C455 1.429 . S
C464 N461 1.350 . S
C464 C463 1.434 . S
C465 C466 1.369 . S
C465 C467 1.419 . S
C465 H469 0.930 . S
C466 C465 1.369 . S
C466 C475 1.429 . S
C467 C465 1.419 . S
C467 C468 1.363 . S
C467 H470 0.929 . S
C468 C467 1.363 . S
C468 C474 1.428 . S
H469 C465 0.930 . S
H470 C467 0.929 . S
S471 N472 1.613 1_556 S
S471 N473 1.610 1_556 S
N472 S471 1.613 1_554 S
N472 C475 1.350 . S
N473 S471 1.610 1_554 S
N473 C474 1.351 . S
C474 C468 1.428 . S
C474 N473 1.351 . S
C474 C475 1.434 . S
C475 C466 1.429 . S
C475 N472 1.350 . S
C475 C474 1.434 . S
C476 C477 1.369 . S
C476 C478 1.419 . S
C476 H480 0.930 . S
C477 C476 1.369 . S
C477 C486 1.429 . S
C478 C476 1.419 . S
C478 C479 1.363 . S
C478 H481 0.929 . S
C479 C478 1.363 . S
C479 C485 1.428 . S
H480 C476 0.930 . S
H481 C478 0.929 . S
S482 N483 1.613 . S
S482 N484 1.610 . S
N483 S482 1.613 . S
N483 C486 1.350 . S
N484 S482 1.610 . S
N484 C485 1.351 . S
C485 C479 1.428 . S
C485 N484 1.351 . S
C485 C486 1.434 . S
C486 C477 1.429 . S
C486 N483 1.350 . S
C486 C485 1.434 . S
C487 C488 1.369 . S
C487 C489 1.419 . S
C487 H491 0.930 . S
C488 C487 1.369 . S
C488 C497 1.429 . S
C489 C487 1.419 . S
C489 C490 1.363 . S
C489 H492 0.929 . S
C490 C489 1.363 . S
C490 C496 1.428 . S
H491 C487 0.930 . S
H492 C489 0.929 . S
S493 N494 1.613 . S
S493 N495 1.610 . S
N494 S493 1.613 . S
N494 C497 1.350 . S
N495 S493 1.610 . S
N495 C496 1.351 . S
C496 C490 1.428 . S
C496 N495 1.351 . S
C496 C497 1.434 . S
C497 C488 1.429 . S
C497 N494 1.350 . S
C497 C496 1.434 . S
C498 C499 1.369 . S
C498 C500 1.419 . S
C498 H502 0.930 . S
C499 C498 1.369 . S
C499 C508 1.429 . S
C500 C498 1.419 . S
C500 C501 1.363 . S
C500 H503 0.929 . S
C501 C500 1.363 . S
C501 C507 1.428 . S
H502 C498 0.930 . S
H503 C500 0.929 . S
S504 N505 1.613 . S
S504 N506 1.610 . S
N505 S504 1.613 . S
N505 C508 1.350 . S
N506 S504 1.610 . S
N506 C507 1.351 . S
C507 C501 1.428 . S
C507 N506 1.351 . S
C507 C508 1.434 . S
C508 C499 1.429 . S
C508 N505 1.350 . S
C508 C507 1.434 . S
C509 C510 1.369 . S
C509 C511 1.419 . S
C509 H513 0.930 . S
C510 C509 1.369 . S
C510 C519 1.429 . S
C511 C509 1.419 . S
C511 C512 1.363 . S
C511 H514 0.929 . S
C512 C511 1.363 . S
C512 C518 1.428 . S
H513 C509 0.930 . S
H514 C511 0.929 . S
S515 N516 1.613 . S
S515 N517 1.610 . S
N516 S515 1.613 . S
N516 C519 1.350 . S
N517 S515 1.610 . S
N517 C518 1.351 . S
C518 C512 1.428 . S
C518 N517 1.351 . S
C518 C519 1.434 . S
C519 C510 1.429 . S
C519 N516 1.350 . S
C519 C518 1.434 . S
C520 C521 1.369 . S
C520 C522 1.419 . S
C520 H524 0.930 . S
C521 C520 1.369 . S
C521 C530 1.429 . S
C522 C520 1.419 . S
C522 C523 1.363 . S
C522 H525 0.929 . S
C523 C522 1.363 . S
C523 C529 1.428 . S
H524 C520 0.930 . S
H525 C522 0.929 . S
S526 N527 1.613 . S
S526 N528 1.610 . S
N527 S526 1.613 . S
N527 C530 1.350 . S
N528 S526 1.610 . S
N528 C529 1.351 . S
C529 C523 1.428 . S
C529 N528 1.351 . S
C529 C530 1.434 . S
C530 C521 1.429 . S
C530 N527 1.350 . S
C530 C529 1.434 . S
C531 C532 1.369 . S
C531 C533 1.419 . S
C531 H535 0.930 . S
C532 C531 1.369 . S
C532 C541 1.429 . S
C533 C531 1.419 . S
C533 C534 1.363 . S
C533 H536 0.929 1_556 S
C534 C533 1.363 . S
C534 C540 1.428 . S
H535 C531 0.930 . S
H536 C533 0.929 1_554 S
S537 N538 1.613 . S
S537 N539 1.610 . S
N538 S537 1.613 . S
N538 C541 1.350 . S
N539 S537 1.610 . S
N539 C540 1.351 . S
C540 C534 1.428 . S
C540 N539 1.351 . S
C540 C541 1.434 . S
C541 C532 1.429 . S
C541 N538 1.350 . S
C541 C540 1.434 . S
C542 C543 1.369 . S
C542 C544 1.419 . S
C542 H546 0.930 . S
C543 C542 1.369 . S
C543 C552 1.429 . S
C544 C542 1.419 . S
C544 C545 1.363 . S
C544 H547 0.929 . S
C545 C544 1.363 . S
C545 C551 1.428 . S
H546 C542 0.930 . S
H547 C544 0.929 . S
S548 N549 1.613 . S
S548 N550 1.610 . S
N549 S548 1.613 . S
N549 C552 1.350 . S
N550 S548 1.610 . S
N550 C551 1.351 . S
C551 C545 1.428 . S
C551 N550 1.351 . S
C551 C552 1.434 . S
C552 C543 1.429 . S
C552 N549 1.350 . S
C552 C551 1.434 . S
C553 C554 1.369 . S
C553 C555 1.419 . S
C553 H557 0.930 . S
C554 C553 1.369 . S
C554 C563 1.429 . S
C555 C553 1.419 . S
C555 C556 1.363 . S
C555 H558 0.929 . S
C556 C555 1.363 . S
C556 C562 1.428 . S
H557 C553 0.930 . S
H558 C555 0.929 . S
S559 N560 1.613 . S
S559 N561 1.610 . S
N560 S559 1.613 . S
N560 C563 1.350 . S
N561 S559 1.610 . S
N561 C562 1.351 . S
C562 C556 1.428 . S
C562 N561 1.351 . S
C562 C563 1.434 . S
C563 C554 1.429 . S
C563 N560 1.350 . S
C563 C562 1.434 . S
C564 C565 1.369 . S
C564 C566 1.419 . S
C564 H568 0.930 . S
C565 C564 1.369 . S
C565 C574 1.429 . S
C566 C564 1.419 . S
C566 C567 1.363 . S
C566 H569 0.929 . S
C567 C566 1.363 . S
C567 C573 1.428 . S
H568 C564 0.930 . S
H569 C566 0.929 . S
S570 N571 1.613 . S
S570 N572 1.610 . S
N571 S570 1.613 . S
N571 C574 1.350 . S
N572 S570 1.610 . S
N572 C573 1.351 . S
C573 C567 1.428 . S
C573 N572 1.351 . S
C573 C574 1.434 . S
C574 C565 1.429 . S
C574 N571 1.350 . S
C574 C573 1.434 . S
C575 C576 1.369 . S
C575 C577 1.419 . S
C575 H579 0.930 . S
C576 C575 1.369 . S
C576 C585 1.429 . S
C577 C575 1.419 . S
C577 C578 1.363 . S
C577 H580 0.929 . S
C578 C577 1.363 . S
C578 C584 1.428 . S
H579 C575 0.930 . S
H580 C577 0.929 . S
S581 N582 1.613 . S
S581 N583 1.610 . S
N582 S581 1.613 . S
N582 C585 1.350 . S
N583 S581 1.610 . S
N583 C584 1.351 . S
C584 C578 1.428 . S
C584 N583 1.351 . S
C584 C585 1.434 . S
C585 C576 1.429 . S
C585 N582 1.350 . S
C585 C584 1.434 . S
C586 C587 1.369 . S
C586 C588 1.419 . S
C586 H590 0.930 . S
C587 C586 1.369 . S
C587 C596 1.429 . S
C588 C586 1.419 . S
C588 C589 1.363 . S
C588 H591 0.929 . S
C589 C588 1.363 . S
C589 C595 1.428 . S
H590 C586 0.930 . S
H591 C588 0.929 . S
S592 N593 1.613 . S
S592 N594 1.610 . S
N593 S592 1.613 . S
N593 C596 1.350 . S
N594 S592 1.610 . S
N594 C595 1.351 . S
C595 C589 1.428 . S
C595 N594 1.351 . S
C595 C596 1.434 . S
C596 C587 1.429 . S
C596 N593 1.350 . S
C596 C595 1.434 . S
C597 C598 1.369 . S
C597 C599 1.419 . S
C597 H601 0.930 . S
C598 C597 1.369 . S
C598 C607 1.429 . S
C599 C597 1.419 . S
C599 C600 1.363 . S
C599 H602 0.929 . S
C600 C599 1.363 . S
C600 C606 1.428 . S
H601 C597 0.930 . S
H602 C599 0.929 . S
S603 N604 1.613 . S
S603 N605 1.610 . S
N604 S603 1.613 . S
N604 C607 1.350 . S
N605 S603 1.610 . S
N605 C606 1.351 . S
C606 C600 1.428 . S
C606 N605 1.351 . S
C606 C607 1.434 . S
C607 C598 1.429 . S
C607 N604 1.350 . S
C607 C606 1.434 . S
C608 C609 1.369 . S
C608 C610 1.404 1_554 S
C608 H612 0.930 . S
C609 C608 1.369 . S
C609 C618 1.429 1_554 S
C610 C608 1.404 1_556 S
C610 C611 1.381 . S
C610 H613 0.926 1_556 S
C611 C610 1.381 . S
C611 C617 1.428 . S
H612 C608 0.930 . S
H613 C610 0.926 1_554 S
S614 N615 1.613 . S
S614 N616 1.610 . S
N615 S614 1.613 . S
N615 C618 1.350 . S
N616 S614 1.610 . S
N616 C617 1.351 . S
C617 C611 1.428 . S
C617 N616 1.351 . S
C617 C618 1.434 . S
C618 C609 1.429 1_556 S
C618 N615 1.350 . S
C618 C617 1.434 . S
C619 C620 1.369 . S
C619 C621 1.419 . S
C619 H623 0.930 . S
C620 C619 1.369 . S
C620 C629 1.429 . S
C621 C619 1.419 . S
C621 C622 1.363 . S
C621 H624 0.929 . S
C622 C621 1.363 . S
C622 C628 1.428 . S
H623 C619 0.930 . S
H624 C621 0.929 . S
S625 N626 1.613 . S
S625 N627 1.610 . S
N626 S625 1.613 . S
N626 C629 1.350 . S
N627 S625 1.610 . S
N627 C628 1.351 . S
C628 C622 1.428 . S
C628 N627 1.351 . S
C628 C629 1.434 . S
C629 C620 1.429 . S
C629 N626 1.350 . S
C629 C628 1.434 . S
C369 C363 1.651 . S
C367 C45 1.646 . S
C378 C84 1.606 . S
C380 C288 1.521 . S
C389 C126 1.597 . S
C391 C311 1.684 . S
C400 C189 1.502 . S
C402 C324 1.504 . S
C413 C327 1.554 . S
C411 C228 1.645 . S
C422 C270 1.493 . S
C424 C340 1.474 . S
C433 C69 1.523 . S
C435 C301 1.470 . S
C444 C141 1.658 . S
C446 C314 1.553 . S
C455 C174 1.465 . S
C457 C337 1.506 . S
C468 C350 1.684 . S
C466 C213 1.622 . S
C479 C353 1.516 . S
C477 C285 1.622 . S
C490 C298 1.653 . S
C488 C30 1.585 . S
C499 C36 1.510 . S
C501 C309 1.463 . S
C510 C93 1.472 . S
C512 C322 1.429 . S
C523 C332 1.452 . S
C521 C117 1.497 . S
C532 C180 1.497 . S
C534 C345 1.441 1_556 S
C545 C361 1.468 . S
C543 C237 1.514 . S
C556 C293 1.419 . S
C554 C261 1.467 . S
C567 C358 1.419 . S
C565 C78 1.459 . S
C576 C132 1.515 . S
C578 C296 1.467 . S
C589 C306 1.434 . S
C587 C165 1.489 . S
C598 C222 1.489 . S
C600 C319 1.450 . S
C609 C276 1.475 . S
C611 C335 1.433 . S
C620 C21 1.498 . S
C622 C348 1.466 . S
