# Generated by pormake.
# Topology zzz, (3,6)-cn, num edge types: 1
# Building blocks:
#     Node 0, Type 0, BuildingBlock: BETDIP_clean_linker_0, # of connection points: 3
#     Node 1, Type 0, BuildingBlock: BETDIP_clean_linker_0, # of connection points: 3
#     Node 2, Type 0, BuildingBlock: BETDIP_clean_linker_0, # of connection points: 3
#     Node 3, Type 0, BuildingBlock: BETDIP_clean_linker_0, # of connection points: 3
#     Node 4, Type 0, BuildingBlock: BETDIP_clean_linker_0, # of connection points: 3
#     Node 5, Type 0, BuildingBlock: BETDIP_clean_linker_0, # of connection points: 3
#     Node 6, Type 0, BuildingBlock: BETDIP_clean_linker_0, # of connection points: 3
#     Node 7, Type 0, BuildingBlock: BETDIP_clean_linker_0, # of connection points: 3
#     Node 8, Type 1, BuildingBlock: KUMBOL_clean_sbu_1, # of connection points: 6
#     Node 9, Type 1, BuildingBlock: KUMBOL_clean_sbu_1, # of connection points: 6
#     Node 10, Type 1, BuildingBlock: KUMBOL_clean_sbu_1, # of connection points: 6
#     Node 11, Type 1, BuildingBlock: KUMBOL_clean_sbu_1, # of connection points: 6
#     Edge 12, Type (0, 1), BuildingBlock: CIFDUS_clean_linker_0, # of connection points: 2
#     Edge 13, Type (0, 1), BuildingBlock: CIFDUS_clean_linker_0, # of connection points: 2
#     Edge 14, Type (0, 1), BuildingBlock: CIFDUS_clean_linker_0, # of connection points: 2
#     Edge 15, Type (0, 1), BuildingBlock: CIFDUS_clean_linker_0, # of connection points: 2
#     Edge 16, Type (0, 1), BuildingBlock: CIFDUS_clean_linker_0, # of connection points: 2
#     Edge 17, Type (0, 1), BuildingBlock: CIFDUS_clean_linker_0, # of connection points: 2
#     Edge 18, Type (0, 1), BuildingBlock: CIFDUS_clean_linker_0, # of connection points: 2
#     Edge 19, Type (0, 1), BuildingBlock: CIFDUS_clean_linker_0, # of connection points: 2
#     Edge 20, Type (0, 1), BuildingBlock: CIFDUS_clean_linker_0, # of connection points: 2
#     Edge 21, Type (0, 1), BuildingBlock: CIFDUS_clean_linker_0, # of connection points: 2
#     Edge 22, Type (0, 1), BuildingBlock: CIFDUS_clean_linker_0, # of connection points: 2
#     Edge 23, Type (0, 1), BuildingBlock: CIFDUS_clean_linker_0, # of connection points: 2
#     Edge 24, Type (0, 1), BuildingBlock: CIFDUS_clean_linker_0, # of connection points: 2
#     Edge 25, Type (0, 1), BuildingBlock: CIFDUS_clean_linker_0, # of connection points: 2
#     Edge 26, Type (0, 1), BuildingBlock: CIFDUS_clean_linker_0, # of connection points: 2
#     Edge 27, Type (0, 1), BuildingBlock: CIFDUS_clean_linker_0, # of connection points: 2
#     Edge 28, Type (0, 1), BuildingBlock: CIFDUS_clean_linker_0, # of connection points: 2
#     Edge 29, Type (0, 1), BuildingBlock: CIFDUS_clean_linker_0, # of connection points: 2
#     Edge 30, Type (0, 1), BuildingBlock: CIFDUS_clean_linker_0, # of connection points: 2
#     Edge 31, Type (0, 1), BuildingBlock: CIFDUS_clean_linker_0, # of connection points: 2
#     Edge 32, Type (0, 1), BuildingBlock: CIFDUS_clean_linker_0, # of connection points: 2
#     Edge 33, Type (0, 1), BuildingBlock: CIFDUS_clean_linker_0, # of connection points: 2
#     Edge 34, Type (0, 1), BuildingBlock: CIFDUS_clean_linker_0, # of connection points: 2
#     Edge 35, Type (0, 1), BuildingBlock: CIFDUS_clean_linker_0, # of connection points: 2
# Relax obj value: 0.205
# Max RMSD: 0.114
# Mean RMSD: 0.083
data_MOF--net-zzz--node1-KUMBOL_clean_sbu_1--node2-BETDIP_clean_linker_0--edge1-CIFDUS_clean_linker_0
_symmetry_space_group_name_H-M    P1
_symmetry_Int_Tables_number       1
_symmetry_cell_setting            triclinic
loop_
_symmetry_equiv_pos_as_xyz
'x, y, z'
_cell_length_a     43.72397
_cell_length_b     44.072423
_cell_length_c     13.753863
_cell_angle_alpha  89.748208
_cell_angle_beta   90.127729
_cell_angle_gamma 90.391386
loop_
_atom_site_label
_atom_site_type_symbol
_atom_site_fract_x
_atom_site_fract_y
_atom_site_fract_z
_atom_type_partial_charge
H0 H 0.77106 0.54623 0.45139 0.0
H1 H 0.7598 0.55937 0.14229 0.0
H2 H 0.84988 0.55345 0.26435 0.0
H3 H 0.71347 0.59305 0.23981 0.0
C4 C 0.70788 0.56907 0.24661 0.0
C5 C 0.7809 0.54996 0.38014 0.0
C6 C 0.81349 0.55049 0.36908 0.0
C7 C 0.76116 0.55379 0.29757 0.0
C8 C 0.7744 0.55783 0.20591 0.0
C9 C 0.8061 0.55723 0.19366 0.0
C10 C 0.82532 0.55423 0.27497 0.0
N11 N 0.72841 0.5504 0.30279 0.0
H12 H 1.02033 0.78151 0.4075 0.0
H13 H 0.04271 0.76248 0.10865 0.0
H14 H 0.04963 0.85342 0.21263 0.0
H15 H 0.98292 0.73035 0.17876 0.0
C16 C 1.00446 0.72014 0.20016 0.0
C17 C 0.02756 0.78943 0.33653 0.0
C18 C 0.03508 0.82088 0.32203 0.0
C19 C 0.02953 0.76824 0.25795 0.0
C20 C 0.03997 0.77847 0.16767 0.0
C21 C 0.04762 0.80881 0.15293 0.0
C22 C 0.04442 0.82982 0.22816 0.0
N23 N 0.02324 0.73639 0.26879 0.0
H24 H 0.78658 0.04035 0.36794 0.0
H25 H 0.79485 0.97028 0.15137 0.0
H26 H 0.71527 0.97402 0.33307 0.0
H27 H 0.84802 0.97403 0.20633 0.0
C28 C 0.84912 0.99825 0.19149 0.0
C29 C 0.77815 0.01968 0.33474 0.0
C30 C 0.74913 1.0076 0.36315 0.0
C31 C 0.79609 1.00494 0.2622 0.0
C32 C 0.78316 0.97982 0.21337 0.0
C33 C 0.75381 0.9689 0.23695 0.0
C34 C 0.73828 0.98168 0.316 0.0
N35 N 0.82532 1.01698 0.23117 0.0
H36 H 0.55563 0.78652 0.44242 0.0
H37 H 0.54469 0.79486 0.13109 0.0
H38 H 0.53737 0.70751 0.26572 0.0
H39 H 0.59109 0.82932 0.17676 0.0
C40 C 0.57292 0.84231 0.2104 0.0
C41 C 0.55165 0.77627 0.3721 0.0
C42 C 0.54649 0.74414 0.36536 0.0
C43 C 0.55163 0.79491 0.28622 0.0
C44 C 0.54593 0.78111 0.19654 0.0
C45 C 0.54105 0.74998 0.18947 0.0
C46 C 0.54153 0.7317 0.27287 0.0
N47 N 0.55612 0.82736 0.28727 0.0
H48 H 0.28145 0.4999 0.01911 0.0
H49 H 0.29736 0.52559 0.31806 0.0
H50 H 0.20688 0.52972 0.2003 0.0
H51 H 0.3433 0.55092 0.19563 0.0
C52 C 0.34819 0.52686 0.2031 0.0
C53 C 0.27292 0.50795 0.08809 0.0
C54 C 0.24111 0.51522 0.09806 0.0
C55 C 0.29375 0.51246 0.16783 0.0
C56 C 0.28217 0.52275 0.25628 0.0
C57 C 0.25113 0.52826 0.2677 0.0
C58 C 0.23094 0.52487 0.18945 0.0
N59 N 0.32597 0.50606 0.16304 0.0
H60 H 0.06923 0.27913 0.04698 0.0
H61 H 1.00008 0.30775 0.25058 0.0
H62 H 0.99117 0.22206 0.10842 0.0
H63 H 1.01179 0.35454 0.16244 0.0
C64 C 0.03524 0.35351 0.18874 0.0
C65 C 0.04764 0.27531 0.08355 0.0
C66 C 0.03067 0.24795 0.06565 0.0
C67 C 0.03592 0.29798 0.14784 0.0
C68 C 1.00844 0.29184 0.1972 0.0
C69 C 0.99239 0.26469 0.18318 0.0
C70 C 1.00321 0.24352 0.11619 0.0
N71 N 0.05184 0.32612 0.16804 0.0
H72 H 0.28639 0.0295 0.06934 0.0
H73 H 0.28548 0.10075 0.2859 0.0
H74 H 0.36314 0.08968 0.10179 0.0
H75 H 0.25259 0.07254 0.35957 0.0
C76 C 0.23784 0.06238 0.30509 0.0
C77 C 0.29673 0.0492 0.10317 0.0
C78 C 0.32636 0.05922 0.07255 0.0
C79 C 0.28092 0.06437 0.17995 0.0
C80 C 0.29603 0.08888 0.22635 0.0
C81 C 0.32591 0.09752 0.20078 0.0
C82 C 0.33974 0.08381 0.12041 0.0
N83 N 0.2509 0.05434 0.21226 0.0
H84 H 0.52361 0.28226 0.03273 0.0
H85 H 0.51021 0.27039 0.34116 0.0
H86 H 0.51558 0.36009 0.22026 0.0
H87 H 0.56078 0.23349 0.2597 0.0
C88 C 0.53851 0.22333 0.24525 0.0
C89 C 0.51952 0.29187 0.10379 0.0
C90 C 0.51896 0.32413 0.11541 0.0
C91 C 0.51641 0.27224 0.18656 0.0
C92 C 0.51227 0.28511 0.27805 0.0
C93 C 0.51187 0.31647 0.29043 0.0
C94 C 0.51465 0.33573 0.20935 0.0
N95 N 0.51831 0.23975 0.18152 0.0
C96 C 0.0887 0.03643 1.00248 0.0
C97 C 0.07066 0.99713 0.11176 0.0
C98 C 0.07358 1.0093 0.01728 0.0
C99 C 0.08099 1.01415 0.19168 0.0
C100 C 0.10092 0.05272 0.08153 0.0
C101 C 0.09566 0.04218 0.17652 0.0
N102 N 0.09326 0.04582 0.90988 0.0
C103 C 0.11242 0.06963 0.89008 0.0
C104 C 0.11889 0.07847 0.06235 0.0
C105 C 0.12525 0.08655 0.96602 0.0
Gd106 Gd 1.00171 0.04159 0.60443 0.0
Gd107 Gd 0.06772 1.01893 0.78703 0.0
N108 N 0.06359 0.99385 0.93833 0.0
C109 C 0.05801 0.96804 0.12263 0.0
C110 C 0.05201 0.96512 0.94821 0.0
C111 C 0.04892 0.95185 0.0403 0.0
H112 H 0.04436 0.95265 0.8852 0.0
H113 H 0.03935 0.92924 0.04769 0.0
H114 H 0.02254 0.03771 0.37336 0.0
H115 H 0.1169 0.07611 0.81551 0.0
H116 H 1.0168 1.00249 0.23469 0.0
H117 H 0.05559 0.95774 0.19392 0.0
H118 H 0.07826 1.00559 0.26514 0.0
H119 H 0.93728 0.02667 0.74091 0.0
H120 H 0.12879 0.09159 0.12112 0.0
H121 H 0.13974 0.10595 0.95024 0.0
H122 H 0.95524 0.92082 0.36138 0.0
H123 H 0.10369 0.0551 0.23831 0.0
H124 H 0.90512 0.9383 0.66474 0.0
H125 H 0.90293 0.98335 0.77111 0.0
N126 N 0.9631 1.00429 0.63167 0.0
C127 C 0.96186 0.98165 0.56475 0.0
C128 C 0.94031 1.00631 0.69918 0.0
C129 C 0.92123 0.9568 0.65402 0.0
C130 C 0.92 0.98211 0.71439 0.0
C131 C 0.94135 0.95698 0.57515 0.0
H132 H 0.92501 0.915 0.51111 0.0
N133 N 0.9962 1.01017 0.46902 0.0
C134 C 0.97857 0.98498 0.47993 0.0
C135 C 0.99041 0.96971 0.31589 0.0
C136 C 0.97571 0.96366 0.40429 0.0
C137 C 1.00961 1.01688 0.38213 0.0
C138 C 1.00671 0.99685 0.30406 0.0
O139 O 0.05413 0.06874 0.81349 0.0
O140 O 1.01216 0.07926 0.71432 0.0
O141 O 0.99887 0.08553 0.53182 0.0
O142 O 0.96002 0.05502 0.5312 0.0
O143 O 1.01951 1.00321 0.8262 0.0
O144 O 0.98914 0.04097 0.76625 0.0
O145 O 0.03536 1.00382 0.57371 0.0
O146 O 0.03902 0.98074 0.7194 0.0
O147 O 0.11202 0.99781 0.80984 0.0
O148 O 0.09464 1.00348 0.6644 0.0
O149 O 0.04999 0.04655 0.53976 0.0
O150 O 0.07427 0.05815 0.68106 0.0
C151 C 0.03215 0.08715 0.78275 0.0
C152 C 0.99516 0.02047 0.83356 0.0
C153 C 0.95032 0.10621 0.56286 0.0
C154 C 0.93285 0.15842 0.56745 0.0
C155 C 0.91966 0.12401 0.69858 0.0
C156 C 0.93559 0.10079 0.65229 0.0
C157 C 0.91858 0.15294 0.65694 0.0
C158 C 0.94856 0.13497 0.52045 0.0
C159 C 0.96947 0.08272 0.51814 0.0
C160 C 0.9573 0.93776 0.41792 0.0
C161 C 0.94018 0.9344 0.50337 0.0
H162 H 0.98839 0.95417 0.25533 0.0
C163 C 0.03559 0.97858 0.6247 0.0
C164 C 0.07483 0.05574 0.58588 0.0
C165 C 0.12161 0.95941 0.69551 0.0
C166 C 0.10707 0.90642 0.71676 0.0
C167 C 0.14521 0.92064 0.5966 0.0
C168 C 0.14199 0.95124 0.62176 0.0
C169 C 0.12789 0.8982 0.64412 0.0
C170 C 0.10444 0.93698 0.74225 0.0
C171 C 0.11562 0.99127 0.71816 0.0
H172 H 0.90874 0.11973 0.76788 0.0
H173 H 0.93702 0.07886 0.68758 0.0
H174 H 0.9069 0.17102 0.69454 0.0
H175 H 0.96045 0.13948 0.45268 0.0
H176 H 0.16098 0.91433 0.53974 0.0
H177 H 0.15504 0.96844 0.58319 0.0
H178 H 0.13052 0.87465 0.62377 0.0
H179 H 0.0889 0.94344 0.7993 0.0
C180 C 0.5494 0.93406 0.61388 0.0
C181 C 0.51103 0.90451 0.70052 0.0
C182 C 0.52179 0.93257 0.66403 0.0
C183 C 0.52843 0.8782 0.68691 0.0
C184 C 0.56681 0.90763 0.59955 0.0
C185 C 0.55619 0.87975 0.63645 0.0
N186 N 0.55955 0.96148 0.58104 0.0
C187 C 0.58635 0.96391 0.53066 0.0
C188 C 0.59447 0.91003 0.5489 0.0
C189 C 0.6042 0.93827 0.51392 0.0
Gd190 Gd 0.54574 0.05478 0.83261 0.0
Gd191 Gd 0.52767 1.00295 0.61167 0.0
N192 N 0.50566 0.95857 0.67796 0.0
C193 C 0.48295 0.90365 0.74903 0.0
C194 C 0.47741 0.95742 0.71975 0.0
C195 C 0.46591 0.93016 0.75754 0.0
H196 H 0.46314 0.9771 0.72185 0.0
H197 H 0.44367 0.92952 0.7919 0.0
H198 H 0.60796 0.08653 0.73064 0.0
H199 H 0.59369 0.98547 0.50109 0.0
H200 H 0.62667 0.13752 0.68589 0.0
H201 H 0.47391 0.88255 0.77813 0.0
H202 H 0.52053 0.85649 0.71471 0.0
H203 H 0.47994 0.06537 0.95534 0.0
H204 H 0.60841 0.89022 0.53605 0.0
H205 H 0.62536 0.9403 0.47362 0.0
H206 H 0.54727 0.20418 0.79248 0.0
H207 H 0.56929 0.85922 0.62633 0.0
H208 H 0.46055 0.16027 0.95424 0.0
H209 H 0.44616 0.10763 0.99856 0.0
N210 N 0.51203 0.09331 0.88005 0.0
C211 C 0.52082 0.12215 0.85741 0.0
C212 C 0.4859 0.08802 0.93181 0.0
C213 C 0.47519 0.1417 0.93315 0.0
C214 C 0.46694 0.11202 0.95807 0.0
C215 C 0.50254 0.14712 0.88298 0.0
H216 H 0.49843 0.19608 0.87748 0.0
N217 N 0.56549 0.10219 0.78516 0.0
C218 C 0.54845 0.12676 0.80943 0.0
C219 C 0.58664 0.16015 0.73961 0.0
C220 C 0.55838 0.15639 0.78591 0.0
C221 C 0.59366 0.10581 0.74427 0.0
C222 C 0.6045 0.13478 0.71982 0.0
O223 O 0.55307 0.98243 0.7428 0.0
O224 O 0.53198 1.00644 0.87181 0.0
O225 O 0.58748 0.05237 0.91723 0.0
O226 O 0.54533 0.0658 0.98657 0.0
O227 O 0.48721 0.02805 0.68234 0.0
O228 O 0.50115 0.02865 0.84223 0.0
O229 O 0.52716 0.07995 0.69655 0.0
O230 O 0.54111 0.05055 0.56665 0.0
O231 O 0.48705 1.00007 0.52139 0.0
O232 O 0.53126 0.9902 0.45969 0.0
O233 O 0.58722 0.03389 0.75344 0.0
O234 O 0.57246 0.02854 0.59355 0.0
C235 C 0.54557 0.98262 0.83558 0.0
C236 C 0.47985 0.03009 0.77525 0.0
C237 C 0.57871 0.03536 0.07874 0.0
C238 C 0.60109 0.98805 0.13911 0.0
C239 C 0.5761 0.02301 0.25037 0.0
C240 C 0.57016 0.0429 0.17366 0.0
C241 C 0.59157 0.99594 0.23371 0.0
C242 C 0.59311 1.00744 0.06147 0.0
C243 C 0.57344 0.0573 0.99922 0.0
C244 C 0.54003 0.18126 0.81017 0.0
C245 C 0.51221 0.17664 0.85857 0.0
H246 H 0.59509 0.18255 0.72035 0.0
C247 C 0.53247 0.07666 0.60256 0.0
C248 C 0.594 0.03119 0.65995 0.0
C249 C 0.49643 1.01566 0.35925 0.0
C250 C 0.47596 0.06297 0.29302 0.0
C251 C 0.4967 0.0244 0.18527 0.0
C252 C 0.5029 1.00576 0.26493 0.0
C253 C 0.48314 0.05263 0.19888 0.0
C254 C 0.48394 0.04466 0.37317 0.0
C255 C 0.50262 0.9954 0.44216 0.0
H256 H 0.56956 0.02905 0.32363 0.0
H257 H 0.55895 0.06424 0.1885 0.0
H258 H 0.5976 0.98228 0.29634 0.0
H259 H 0.59929 1.00146 0.98788 0.0
H260 H 0.50169 1.01663 0.11246 0.0
H261 H 0.51286 0.98365 0.25301 0.0
H262 H 0.47678 0.0655 0.13499 0.0
H263 H 0.47935 0.05242 0.44629 0.0
C264 C 0.45572 0.48491 0.92369 0.0
C265 C 0.48099 0.47391 0.07695 0.0
C266 C 0.47832 0.49177 0.99178 0.0
C267 C 0.4611 0.44919 0.09196 0.0
C268 C 0.43543 0.46033 0.93932 0.0
C269 C 0.43827 0.44255 0.02371 0.0
N270 N 0.45432 0.50154 0.84027 0.0
C271 C 0.43272 0.49544 0.77094 0.0
C272 C 0.41331 0.45388 0.86844 0.0
C273 C 0.41193 0.47154 0.78399 0.0
Gd274 Gd 0.55952 0.52547 0.65967 0.0
Gd275 Gd 0.48921 0.54201 0.82689 0.0
N276 N 0.49726 0.51602 0.97581 0.0
C277 C 0.50338 0.4816 0.14533 0.0
C278 C 0.51666 0.5254 0.04792 0.0
C279 C 0.52112 0.50759 0.13099 0.0
H280 H 0.52835 0.5469 0.04405 0.0
H281 H 0.53791 0.51422 0.18481 0.0
H282 H 0.52458 0.5202 0.4357 0.0
H283 H 0.43146 0.5092 0.70589 0.0
H284 H 0.5198 0.5516 0.28964 0.0
H285 H 0.50648 0.46822 0.21086 0.0
H286 H 0.463 0.43523 0.15673 0.0
H287 H 0.61826 0.55512 0.78501 0.0
H288 H 0.39735 0.43519 0.87786 0.0
H289 H 0.39491 0.46672 0.72885 0.0
H290 H 0.59755 0.62755 0.32557 0.0
H291 H 0.42307 0.42344 0.03651 0.0
H292 H 0.65737 0.62749 0.6174 0.0
H293 H 0.65634 0.59631 0.76735 0.0
N294 N 0.59714 0.56363 0.64845 0.0
C295 C 0.59792 0.57984 0.56401 0.0
C296 C 0.61806 0.56899 0.72033 0.0
C297 C 0.64051 0.60951 0.62498 0.0
C298 C 0.6399 0.59207 0.70994 0.0
C299 C 0.61946 0.60349 0.5506 0.0
H300 H 0.63527 0.63901 0.45314 0.0
N301 N 0.55618 0.55008 0.50646 0.0
C302 C 0.57646 0.57333 0.49211 0.0
C303 C 0.55509 0.58295 0.33263 0.0
C304 C 0.57631 0.59042 0.4049 0.0
C305 C 0.53772 0.5409 0.43161 0.0
C306 C 0.53587 0.55796 0.34592 0.0
O307 O 0.49757 0.49331 0.77722 0.0
O308 O 0.54917 0.49055 0.77934 0.0
O309 O 0.5696 0.48698 0.56755 0.0
O310 O 0.60615 0.50943 0.64492 0.0
O311 O 0.53647 0.5593 0.87966 0.0
O312 O 0.56961 0.52369 0.82112 0.0
O313 O 0.55092 0.57587 0.69254 0.0
O314 O 0.49905 0.57796 0.71088 0.0
O315 O 0.47601 0.57822 0.92478 0.0
O316 O 0.44166 0.55499 0.84087 0.0
O317 O 0.51175 0.512 0.59758 0.0
O318 O 0.47845 0.54584 0.66724 0.0
C319 C 0.52243 0.47763 0.79417 0.0
C320 C 0.56296 0.54481 0.88444 0.0
C321 C 0.60457 0.45608 0.65357 0.0
C322 C 0.58912 0.40402 0.69128 0.0
C323 C 0.62762 0.4291 0.78997 0.0
C324 C 0.62501 0.45534 0.73285 0.0
C325 C 0.60967 0.40351 0.76969 0.0
C326 C 0.58751 0.43004 0.63223 0.0
C327 C 0.59737 0.48473 0.60192 0.0
C328 C 0.59748 0.61419 0.3919 0.0
C329 C 0.61905 0.62064 0.46437 0.0
H330 H 0.55398 0.59575 0.26527 0.0
C331 C 0.52503 0.59072 0.68375 0.0
C332 C 0.48558 0.52718 0.59681 0.0
C333 C 0.43813 0.608 0.84628 0.0
C334 C 0.44875 0.66157 0.81517 0.0
C335 C 0.4085 0.63589 0.72563 0.0
C336 C 0.4148 0.60889 0.77557 0.0
C337 C 0.42547 0.6622 0.74495 0.0
C338 C 0.45431 0.63463 0.86687 0.0
C339 C 0.44816 0.57905 0.89053 0.0
H340 H 0.64324 0.42878 0.85111 0.0
H341 H 0.6384 0.47517 0.75225 0.0
H342 H 0.61165 0.38352 0.8153 0.0
H343 H 0.57241 0.43025 0.56959 0.0
H344 H 0.39063 0.63632 0.67105 0.0
H345 H 0.40185 0.58864 0.75748 0.0
H346 H 0.42052 0.68287 0.70525 0.0
H347 H 0.47162 0.63431 0.92342 0.0
C348 C 0.07199 0.46503 0.94866 0.0
C349 C 0.08188 0.49441 0.09431 0.0
C350 C 0.06507 0.48957 1.00787 0.0
C351 C 0.1059 0.4748 0.11901 0.0
C352 C 0.09587 0.4451 0.97388 0.0
C353 C 0.11281 0.45018 0.05915 0.0
N354 N 0.05592 0.46116 0.86475 0.0
C355 C 0.06185 0.43742 0.80437 0.0
C356 C 0.1023 0.42088 0.9118 0.0
C357 C 0.08516 0.41698 0.82687 0.0
Gd358 Gd 0.03486 0.55826 0.63567 0.0
Gd359 Gd 1.01718 0.49636 0.83351 0.0
N360 N 0.04155 0.50818 0.98244 0.0
C361 C 0.07373 0.51851 0.15449 0.0
C362 C 0.0317 0.52968 0.04634 0.0
C363 C 0.04831 0.53599 0.13084 0.0
H364 H 1.01062 0.54164 0.03485 0.0
H365 H 0.04091 0.55379 0.17924 0.0
H366 H 0.04892 0.51691 0.42901 0.0
H367 H 0.0485 0.43426 0.73896 0.0
H368 H 1.02022 0.5006 0.28507 0.0
H369 H 0.08614 0.52306 0.22119 0.0
H370 H 0.11906 0.47828 0.18492 0.0
H371 H 0.99781 0.6186 0.72379 0.0
H372 H 0.12049 0.40512 0.92867 0.0
H373 H 0.08991 0.39826 0.77868 0.0
H374 H 0.93126 0.56329 0.2845 0.0
H375 H 0.13134 0.43521 0.07941 0.0
H376 H 0.92155 0.63701 0.53697 0.0
H377 H 0.95214 0.6491 0.68347 0.0
N378 N 0.99286 0.58967 0.60136 0.0
C379 C 0.97717 0.58347 0.51805 0.0
C380 C 0.98465 0.6134 0.65933 0.0
C381 C 0.94171 0.62379 0.55371 0.0
C382 C 0.95887 0.63065 0.63666 0.0
C383 C 0.95081 0.60009 0.49303 0.0
H384 H 0.91363 0.60456 0.38958 0.0
N385 N 1.01301 0.54461 0.48408 0.0
C386 C 0.98707 0.55986 0.4593 0.0
C387 C 0.98239 0.53034 0.3121 0.0
C388 C 0.97088 0.5528 0.3732 0.0
C389 C 0.02616 0.52559 0.41812 0.0
C390 C 1.01041 0.51703 0.33401 0.0
O391 O 0.06755 0.50231 0.78997 0.0
O392 O 0.07018 0.55286 0.7571 0.0
O393 O 0.07467 0.56857 0.54657 0.0
O394 O 0.0462 0.60479 0.59761 0.0
O395 O 1.0023 0.54531 0.86655 0.0
O396 O 0.03769 0.57597 0.79026 0.0
O397 O 0.98501 0.55195 0.68482 0.0
O398 O 0.98227 0.50133 0.7101 0.0
O399 O 0.97921 0.48971 0.93293 0.0
O400 O 0.99996 0.45098 0.86512 0.0
O401 O 0.04918 0.50887 0.59673 0.0
O402 O 1.01417 0.47977 0.67994 0.0
C403 C 0.08298 0.52798 0.79079 0.0
C404 C 1.01792 0.57112 0.86057 0.0
C405 C 0.09943 0.61257 0.60716 0.0
C406 C 0.15459 0.61347 0.63229 0.0
C407 C 0.12239 0.64708 0.72504 0.0
C408 C 0.09644 0.63526 0.67837 0.0
C409 C 0.15149 0.63627 0.7021 0.0
C410 C 0.12859 0.60228 0.58397 0.0
C411 C 0.07255 0.59766 0.56205 0.0
C412 C 0.94414 0.56873 0.34963 0.0
C413 C 0.93418 0.59234 0.4092 0.0
H414 H 0.97053 0.52407 0.24584 0.0
C415 C 0.96942 0.52652 0.67971 0.0
C416 C 0.03302 0.48341 0.60661 0.0
C417 C 0.94625 0.45452 0.8563 0.0
C418 C 0.89488 0.47188 0.81513 0.0
C419 C 0.91866 0.43261 0.71904 0.0
C420 C 0.94483 0.43416 0.77769 0.0
C421 C 0.8938 0.45154 0.73708 0.0
C422 C 0.92077 0.47249 0.87577 0.0
C423 C 0.97554 0.46155 0.906 0.0
H424 H 0.11989 0.66449 0.77967 0.0
H425 H 0.07416 0.64364 0.69891 0.0
H426 H 0.17139 0.64545 0.73897 0.0
H427 H 0.13108 0.58517 0.52808 0.0
H428 H 0.91793 0.41715 0.65814 0.0
H429 H 0.96424 0.42019 0.75934 0.0
H430 H 0.87394 0.45046 0.68999 0.0
H431 H 0.92148 0.48773 0.93743 0.0
H432 H 0.20912 0.09178 0.44895 0.0
H433 H 0.19267 0.02252 0.23511 0.0
H434 H 0.14105 1.0141 0.30193 0.0
H435 H 0.09955 0.02731 0.42258 0.0
H436 H 0.11847 0.0967 0.63499 0.0
H437 H 0.16906 0.10491 0.56547 0.0
C438 C 0.19408 0.07513 0.41557 0.0
C439 C 0.20495 0.05803 0.33617 0.0
C440 C 0.16424 0.07092 0.45327 0.0
C441 C 0.18504 0.03638 0.29502 0.0
C442 C 0.15537 0.03161 0.33353 0.0
C443 C 0.11458 0.04458 0.45239 0.0
C444 C 0.10467 0.06171 0.53374 0.0
C445 C 0.14446 0.04895 0.41238 0.0
C446 C 0.12504 0.08333 0.5726 0.0
C447 C 0.15417 0.08803 0.53279 0.0
H448 H 0.57786 0.18502 0.33205 0.0
H449 H 0.48125 0.19853 0.29162 0.0
H450 H 0.47038 0.1557 0.40246 0.0
H451 H 0.48895 0.11411 0.51486 0.0
H452 H 0.58598 0.09966 0.54031 0.0
H453 H 0.59603 0.14278 0.43317 0.0
C454 C 0.55435 0.17843 0.3465 0.0
C455 C 0.53047 0.19513 0.30284 0.0
C456 C 0.54837 0.1536 0.40936 0.0
C457 C 0.50017 0.1861 0.32294 0.0
C458 C 0.49398 0.16163 0.38712 0.0
C459 C 0.51225 0.12071 0.49767 0.0
C460 C 0.53683 0.10421 0.53918 0.0
C461 C 0.51791 0.14524 0.43173 0.0
C462 C 0.56676 0.11242 0.51261 0.0
C463 C 0.57251 0.13699 0.45029 0.0
H464 H 0.393 0.56459 0.26335 0.0
H465 H 0.36443 0.47123 0.28808 0.0
H466 H 0.40606 0.46185 0.40551 0.0
H467 H 0.44882 0.48184 0.51273 0.0
H468 H 0.47517 0.57586 0.48442 0.0
H469 H 0.43685 0.58317 0.35768 0.0
C470 C 0.39603 0.542 0.29336 0.0
C471 C 0.37535 0.51871 0.2663 0.0
C472 C 0.41988 0.53692 0.36123 0.0
C473 C 0.37986 0.48965 0.3066 0.0
C474 C 0.40371 0.48434 0.3744 0.0
C475 C 0.44661 0.50368 0.47701 0.0
C476 C 0.46534 0.52828 0.50803 0.0
C477 C 0.42369 0.50796 0.40383 0.0
C478 C 0.4614 0.55657 0.46222 0.0
C479 C 0.43931 0.5608 0.38964 0.0
H480 H 0.99767 0.37442 0.32561 0.0
H481 H 0.0898 0.38575 0.22252 0.0
H482 H 0.09763 0.42824 0.33693 0.0
H483 H 0.07702 0.46331 0.4683 0.0
H484 H 0.98532 0.44608 0.57262 0.0
H485 H 0.97879 0.40578 0.45699 0.0
C486 C 1.01971 0.38585 0.32899 0.0
C487 C 0.04317 0.37644 0.2662 0.0
C488 C 0.02403 0.4099 0.39532 0.0
C489 C 0.07146 0.39188 0.27129 0.0
C490 C 0.0758 0.41649 0.33634 0.0
C491 C 0.0556 0.45087 0.46521 0.0
C492 C 0.03145 0.45888 0.52934 0.0
C493 C 0.05209 0.42598 0.39896 0.0
C494 C 1.00421 0.44158 0.52431 0.0
C495 C 1.00039 0.41801 0.45805 0.0
H496 H 0.89919 0.96644 0.13872 0.0
H497 H 0.85897 0.05479 0.10459 0.0
H498 H 0.90086 0.06986 0.99487 0.0
H499 H 0.9483 0.05699 0.90216 0.0
H500 H 0.98733 0.968 0.93839 0.0
H501 H 0.94732 0.95457 0.05413 0.0
C502 C 0.89965 0.98914 0.10799 0.0
C503 C 0.87568 1.00939 0.13042 0.0
C504 C 0.92389 0.99761 0.04491 0.0
C505 C 0.87692 0.03869 0.08953 0.0
C506 C 0.90094 0.04727 0.02626 0.0
C507 C 0.9482 0.0347 0.93581 0.0
C508 C 0.97133 1.01362 0.91063 0.0
C509 C 0.92447 0.02681 1.0024 0.0
C510 C 0.9705 0.98495 0.95614 0.0
C511 C 0.94727 0.97709 0.02213 0.0
H512 H 0.59527 0.86279 0.04011 0.0
H513 H 0.53023 0.88686 0.26082 0.0
H514 H 0.51668 0.93274 0.16722 0.0
H515 H 0.52285 0.96585 0.01832 0.0
H516 H 0.58715 0.93867 0.79793 0.0
H517 H 0.60116 0.89462 0.89486 0.0
C518 C 0.57809 0.87805 0.06823 0.0
C519 C 0.56381 0.87109 0.15785 0.0
C520 C 0.57014 0.90403 1.0132 0.0
C521 C 0.5416 0.89133 0.19234 0.0
C522 C 0.53388 0.91768 0.13852 0.0
C523 C 0.53993 0.95028 0.99152 0.0
C524 C 0.55368 0.95584 0.89942 0.0
C525 C 0.54787 0.92426 0.04817 0.0
C526 C 0.5758 0.93518 0.86703 0.0
C527 C 0.58399 0.90986 0.92295 0.0
H528 H 0.65787 0.60121 0.18975 0.0
H529 H 0.69649 0.51179 0.17155 0.0
H530 H 0.65531 0.49639 0.05971 0.0
H531 H 0.60955 0.50929 0.95886 0.0
H532 H 0.56965 0.59808 0.98547 0.0
H533 H 0.60954 0.61252 0.10196 0.0
C534 C 0.65706 0.57817 0.16245 0.0
C535 C 0.68048 0.55771 0.18974 0.0
C536 C 0.633 0.5694 0.09864 0.0
C537 C 0.67884 0.52798 0.15324 0.0
C538 C 0.65531 0.51925 0.0884 0.0
C539 C 0.60945 0.53179 0.99042 0.0
C540 C 0.58643 0.55265 0.96176 0.0
C541 C 0.63247 0.53989 0.05921 0.0
C542 C 0.58678 0.58151 1.00516 0.0
C543 C 0.60978 0.58983 0.07191 0.0
H544 H 0.96642 0.67639 0.13012 0.0
H545 H 0.0621 0.6991 0.15267 0.0
H546 H 0.07479 0.65562 0.04902 0.0
H547 H 0.05821 0.61213 0.94397 0.0
H548 H 0.96267 0.58747 0.93482 0.0
H549 H 0.95048 0.63025 0.0405 0.0
C550 C 0.99014 0.67155 0.11369 0.0
C551 C 1.01326 0.69112 0.14985 0.0
C552 C 0.99725 0.64612 0.05522 0.0
C553 C 0.04383 0.6844 0.12732 0.0
C554 C 0.05105 0.65958 0.06713 0.0
C555 C 0.03473 0.61608 0.96546 0.0
C556 C 1.01132 0.59658 0.93008 0.0
C557 C 0.02792 0.64047 0.0293 0.0
C558 C 0.98114 0.60191 0.96035 0.0
C559 C 0.97414 0.62651 0.02088 0.0
H560 H 0.99188 0.26965 0.37895 0.0
H561 H 0.93758 0.23804 0.13707 0.0
H562 H 0.90767 0.20572 0.24634 0.0
H563 H 0.90722 0.1771 0.40012 0.0
H564 H 0.96344 0.20692 0.63915 0.0
H565 H 0.98185 0.25004 0.54258 0.0
C566 C 0.97258 0.25681 0.35075 0.0
C567 C 0.96748 0.25543 0.24992 0.0
C568 C 0.95625 0.23757 0.41345 0.0
C569 C 0.94233 0.23879 0.21438 0.0
C570 C 0.92536 0.22021 0.27668 0.0
C571 C 0.92246 0.1939 0.43191 0.0
C572 C 0.93438 0.189 0.52527 0.0
C573 C 0.93363 0.21788 0.37489 0.0
C574 C 0.95408 0.21054 0.56702 0.0
C575 C 0.96481 0.23494 0.5115 0.0
H576 H 0.37033 0.14082 0.16636 0.0
H577 H 0.32879 0.08901 0.39769 0.0
H578 H 0.37842 0.08128 0.47206 0.0
H579 H 0.43102 0.07003 0.42851 0.0
H580 H 0.47331 0.11605 0.18518 0.0
H581 H 0.42648 0.14459 0.15742 0.0
C582 C 0.37208 0.12922 0.23589 0.0
C583 C 0.34641 0.11319 0.27168 0.0
C584 C 0.40118 0.12208 0.27255 0.0
C585 C 0.3484 0.1002 0.3651 0.0
C586 C 0.37705 0.09511 0.40685 0.0
C587 C 0.43084 0.0873 0.3722 0.0
C588 C 0.45503 0.08934 0.30484 0.0
C589 C 0.4035 0.1028 0.35454 0.0
C590 C 0.4543 0.11263 0.23443 0.0
C591 C 0.42753 0.12912 0.2188 0.0
H592 H 0.55108 0.29934 0.43054 0.0
H593 H 0.47825 0.36221 0.36996 0.0
H594 H 0.49063 0.39021 0.51855 0.0
H595 H 0.5294 0.40299 0.64017 0.0
H596 H 0.60767 0.34514 0.67844 0.0
H597 H 0.58479 0.30759 0.56997 0.0
C598 C 0.53725 0.31855 0.45176 0.0
C599 C 0.51408 0.32907 0.38941 0.0
C600 C 0.54555 0.3353 0.53386 0.0
C601 C 0.49646 0.3541 0.41669 0.0
C602 C 0.50352 0.37001 0.50142 0.0
C603 C 0.54099 0.38173 0.62654 0.0
C604 C 0.57064 0.37724 0.66358 0.0
C605 C 0.52914 0.3618 0.55705 0.0
C606 C 0.58503 0.34927 0.64932 0.0
C607 C 0.57218 0.32806 0.58596 0.0
H608 H 0.25783 0.58307 0.35043 0.0
H609 H 0.21829 0.49429 0.3939 0.0
H610 H 0.19132 0.51214 0.53838 0.0
H611 H 0.17109 0.55508 0.62812 0.0
H612 H 0.20411 0.64547 0.56749 0.0
H613 H 0.24299 0.62506 0.45832 0.0
C614 C 0.24384 0.56766 0.39344 0.0
C615 C 0.23945 0.53771 0.3624 0.0
C616 C 0.22749 0.57846 0.47343 0.0
C617 C 0.22146 0.51756 0.41715 0.0
C618 C 0.20619 0.52774 0.49939 0.0
C619 C 0.1876 0.5701 0.59337 0.0
C620 C 0.18455 0.6016 0.60327 0.0
C621 C 0.20789 0.55845 0.5251 0.0
C622 C 0.20609 0.6211 0.56003 0.0
C623 C 0.2279 0.60947 0.49641 0.0
H624 H 0.02151 0.8464 0.02349 0.0
H625 H 0.10211 0.79311 0.07523 0.0
H626 H 0.12655 0.81512 0.93062 0.0
H627 H 0.12721 0.85497 0.80415 0.0
H628 H 0.04646 0.90864 0.75688 0.0
H629 H 1.01938 0.88051 0.88258 0.0
C630 C 0.0442 0.83933 1.00159 0.0
C631 C 0.06031 0.81866 0.0592 0.0
C632 C 0.05794 0.85205 0.91907 0.0
C633 C 0.08954 0.8092 0.03107 0.0
C634 C 0.10346 0.82178 0.94883 0.0
C635 C 0.10336 0.85966 0.81911 0.0
C636 C 0.08884 0.88387 0.77169 0.0
C637 C 0.0882 0.84393 0.89395 0.0
C638 C 0.05801 0.89001 0.7922 0.0
C639 C 0.04262 0.87416 0.86493 0.0
H640 H 0.71351 0.92171 0.26897 0.0
H641 H 0.75061 0.97805 0.04073 0.0
H642 H 0.70081 0.98069 0.96376 0.0
H643 H 0.64718 0.98603 1.00443 0.0
H644 H 0.60831 0.93415 0.2417 0.0
H645 H 0.65797 0.91113 0.27238 0.0
C646 C 0.71094 0.93314 0.19942 0.0
C647 C 0.73503 0.95172 0.16501 0.0
C648 C 0.68146 0.93701 0.1606 0.0
C649 C 0.73213 0.96476 0.07193 0.0
C650 C 0.70332 0.96687 0.02866 0.0
C651 C 0.64875 0.96865 0.06005 0.0
C652 C 0.62445 0.96375 0.12575 0.0
C653 C 0.67754 0.95617 0.07903 0.0
C654 C 0.62721 0.94007 0.19433 0.0
C655 C 0.65563 0.9267 0.21166 0.0
H656 H 0.49252 0.76451 0.07959 0.0
H657 H 0.57103 0.70602 0.09066 0.0
H658 H 0.55267 0.67888 0.94655 0.0
H659 H 0.50972 0.66588 0.84091 0.0
H660 H 0.42689 0.71821 0.853 0.0
H661 H 0.4521 0.7552 0.9587 0.0
C662 C 0.50585 0.74627 0.04859 0.0
C663 C 0.53276 0.73682 0.09509 0.0
C664 C 0.49438 0.72998 0.9693 0.0
C665 C 0.55003 0.7132 0.0558 0.0
C666 C 0.5396 0.69785 0.97363 0.0
C667 C 0.49751 0.68585 0.865 0.0
C668 C 0.46633 0.68893 0.84244 0.0
C669 C 0.51112 0.70516 0.93293 0.0
C670 C 0.45085 0.71525 0.87054 0.0
C671 C 0.4651 0.73607 0.93236 0.0
H672 H 0.78787 0.51783 0.05631 0.0
H673 H 0.8541 0.58853 0.11315 0.0
H674 H 0.88398 0.57266 0.97216 0.0
H675 H 0.8969 0.53144 0.86132 0.0
H676 H 0.8345 0.45613 0.82543 0.0
H677 H 0.79645 0.48193 0.92433 0.0
C678 C 0.80821 0.5305 0.03548 0.0
C679 C 0.81912 0.554 0.09529 0.0
C680 C 0.82596 0.5202 0.95801 0.0
C681 C 0.8456 0.57012 0.06844 0.0
C682 C 0.86265 0.561 0.98817 0.0
C683 C 0.87461 0.52111 0.87333 0.0
C684 C 0.8688 0.49153 0.83967 0.0
C685 C 0.85399 0.53491 0.93656 0.0
C686 C 0.8396 0.47871 0.85196 0.0
C687 C 0.81803 0.49328 0.90968 0.0
H688 H 0.99823 0.22112 0.91945 0.0
H689 H 0.08371 0.21398 0.07331 0.0
H690 H 0.09212 0.16375 1.00081 0.0
H691 H 0.07262 0.11951 0.90355 0.0
H692 H 0.98646 0.12813 0.75288 0.0
H693 H 0.98081 0.17927 0.81476 0.0
C694 C 1.01917 0.20898 0.93527 0.0
C695 C 0.04049 0.22189 1.00134 0.0
C696 C 0.02336 0.17969 0.89545 0.0
C697 C 0.06719 0.20529 0.02148 0.0
C698 C 0.07172 0.17619 0.98106 0.0
C699 C 0.05264 0.13247 0.88401 0.0
C700 C 0.02987 0.11909 0.82347 0.0
C701 C 0.04955 0.16269 0.91978 0.0
C702 C 1.00436 0.13703 0.7992 0.0
C703 C 1.0011 0.16664 0.83455 0.0
H704 H 0.34744 0.07678 0.89246 0.0
H705 H 0.35668 1.00673 0.10929 0.0
H706 H 0.40509 0.99098 0.0364 0.0
H707 H 0.44832 1.0013 0.92268 0.0
H708 H 0.43767 0.0692 0.69922 0.0
H709 H 0.38679 0.08152 0.76209 0.0
C710 C 0.35926 0.05708 0.92088 0.0
C711 C 0.34762 0.04247 1.00534 0.0
C712 C 0.38752 0.0483 0.87865 0.0
C713 C 0.3642 1.01776 0.04288 0.0
C714 C 0.39236 1.00914 1.00213 0.0
C715 C 0.43462 1.01843 0.88667 0.0
C716 C 0.4471 0.03441 0.80622 0.0
C717 C 0.4048 0.02487 0.92193 0.0
C718 C 0.42881 0.05642 0.76059 0.0
C719 C 0.39964 0.06355 0.79695 0.0
H720 H 0.48157 0.34977 0.9744 0.0
H721 H 0.57331 0.35285 0.08802 0.0
H722 H 0.58357 0.39966 0.99689 0.0
H723 H 0.56471 0.44329 0.89802 0.0
H724 H 0.47408 0.43844 0.77576 0.0
H725 H 0.4653 0.38961 0.85581 0.0
C726 C 0.50415 0.36004 0.97638 0.0
C727 C 0.52683 0.34709 0.03701 0.0
C728 C 0.50991 0.38745 0.92374 0.0
C729 C 0.55563 0.36164 0.04053 0.0
C730 C 0.5614 0.38878 0.98918 0.0
C731 C 0.54319 0.43138 0.88762 0.0
C732 C 0.51967 0.4455 0.83318 0.0
C733 C 0.53848 0.40248 0.93249 0.0
C734 C 0.49223 0.42906 0.81996 0.0
C735 C 0.48725 0.40078 0.86527 0.0
H736 H 0.20457 0.56045 0.02817 0.0
H737 H 0.2212 0.46494 0.99503 0.0
H738 H 0.17432 0.46 0.89665 0.0
H739 H 0.12621 0.48263 0.82761 0.0
H740 H 0.111 0.57856 0.86307 0.0
H741 H 0.15932 0.58347 0.95024 0.0
C742 C 0.19844 0.53863 0.99731 0.0
C743 C 0.21706 0.51318 0.01838 0.0
C744 C 0.17115 0.53595 0.94163 0.0
C745 C 0.20808 0.48508 0.97871 0.0
C746 C 0.18089 0.48222 0.92326 0.0
C747 C 0.13335 0.50458 0.8549 0.0
C748 C 0.11413 0.53007 0.83955 0.0
C749 C 0.1618 0.50739 0.90568 0.0
C750 C 0.12469 0.5584 0.87346 0.0
C751 C 0.15254 0.56128 0.92386 0.0
H752 H 0.07374 0.86979 0.35032 0.0
H753 H 0.99265 0.82824 0.47115 0.0
H754 H 0.98657 0.87193 0.57991 0.0
H755 H 1.00227 0.92453 0.63254 0.0
H756 H 0.08054 0.96655 0.49622 0.0
H757 H 0.08919 0.92078 0.40111 0.0
C758 C 0.05446 0.87008 0.39967 0.0
C759 C 0.03342 0.84535 0.40013 0.0
C760 C 0.05046 0.89585 0.45943 0.0
C761 C 1.0094 0.84643 0.46823 0.0
C762 C 1.00573 0.87173 0.53013 0.0
C763 C 0.02141 0.92345 0.58277 0.0
C764 C 0.0411 0.94903 0.57322 0.0
C765 C 0.0258 0.89694 0.52529 0.0
C766 C 0.06529 0.94732 0.50641 0.0
C767 C 0.07021 0.92105 0.45163 0.0
H768 H 0.72901 0.99123 0.54577 0.0
H769 H 0.71424 0.05629 0.3165 0.0
H770 H 0.66484 0.06973 0.38744 0.0
H771 H 0.62279 0.05863 0.50449 0.0
H772 H 0.63898 0.99648 0.74128 0.0
H773 H 0.69036 0.98629 0.67843 0.0
C774 C 0.71566 1.00938 0.51391 0.0
C775 C 0.72607 0.02331 0.42676 0.0
C776 C 0.68693 1.01696 0.55542 0.0
C777 C 0.7076 0.04593 0.38492 0.0
C778 C 0.67894 0.05321 0.42469 0.0
C779 C 0.63779 0.04332 0.54349 0.0
C780 C 0.62679 0.02833 0.62788 0.0
C781 C 0.66788 0.03824 0.50829 0.0
C782 C 0.64672 1.00852 0.67693 0.0
C783 C 0.67617 1.0026 0.64059 0.0
H784 H 0.49847 0.71003 0.43287 0.0
H785 H 0.59456 0.72564 0.48057 0.0
H786 H 0.59685 0.68024 0.58494 0.0
H787 H 0.57198 0.63334 0.65365 0.0
H788 H 0.47547 0.61914 0.60502 0.0
H789 H 0.47286 0.66643 0.51343 0.0
C790 C 0.51975 0.70409 0.46865 0.0
C791 C 0.54619 0.72195 0.44992 0.0
C792 C 0.52094 0.67759 0.52778 0.0
C793 C 0.57366 0.71313 0.49527 0.0
C794 C 0.57503 0.68677 0.55408 0.0
C795 C 0.55044 0.64041 0.62228 0.0
C796 C 0.52417 0.62162 0.63449 0.0
C797 C 0.54896 0.66829 0.56915 0.0
C798 C 0.49628 0.63232 0.59629 0.0
C799 C 0.49471 0.65963 0.54348 0.0
H800 H 0.85697 0.50641 0.38978 0.0
H801 H 0.82404 0.58723 0.52799 0.0
H802 H 0.86873 0.58728 0.63709 0.0
H803 H 0.91994 0.56618 0.68557 0.0
H804 H 0.95092 0.48443 0.54807 0.0
H805 H 0.90485 0.48285 0.44799 0.0
C806 C 0.85908 0.52363 0.44554 0.0
C807 C 0.83655 0.54656 0.45091 0.0
C808 C 0.88504 0.52355 0.5079 0.0
C809 C 0.84033 0.56891 0.52293 0.0
C810 C 0.86624 0.56912 0.58476 0.0
C811 C 0.91644 0.54786 0.63434 0.0
C812 C 0.93935 0.52537 0.62488 0.0
C813 C 0.88918 0.54688 0.57685 0.0
C814 C 0.93398 0.50182 0.55823 0.0
C815 C 0.9075 0.50102 0.50022 0.0
loop_
_geom_bond_atom_site_label_1
_geom_bond_atom_site_label_2
_geom_bond_distance
_geom_bond_site_symmetry_2
_ccdc_geom_bond_type
H0 C5 0.930 . S
H1 C8 0.930 . S
H2 C10 0.930 . S
H3 C4 1.016 . S
C4 H3 1.016 . S
C4 N11 1.286 . S
C5 H0 0.930 . S
C5 C6 1.397 . S
C5 C7 1.361 . S
C6 C5 1.397 . S
C6 C10 1.390 . S
C7 C5 1.361 . S
C7 C8 1.393 . S
C7 N11 1.413 . S
C8 H1 0.930 . S
C8 C7 1.393 . S
C8 C9 1.399 . S
C9 C8 1.399 . S
C9 C10 1.381 . S
C10 H2 0.930 . S
C10 C6 1.390 . S
C10 C9 1.381 . S
N11 C4 1.286 . S
N11 C7 1.413 . S
H12 C17 0.930 . S
H13 C20 0.930 . S
H14 C22 0.930 . S
H15 C16 1.016 . S
C16 H15 1.016 . S
C16 N23 1.286 . S
C17 H12 0.930 . S
C17 C18 1.397 . S
C17 C19 1.361 . S
C18 C17 1.397 . S
C18 C22 1.390 . S
C19 C17 1.361 . S
C19 C20 1.393 . S
C19 N23 1.413 . S
C20 H13 0.930 . S
C20 C19 1.393 . S
C20 C21 1.399 . S
C21 C20 1.399 . S
C21 C22 1.381 . S
C22 H14 0.930 . S
C22 C18 1.390 . S
C22 C21 1.381 . S
N23 C16 1.286 . S
N23 C19 1.413 . S
H24 C29 0.930 . S
H25 C32 0.930 . S
H26 C34 0.930 . S
H27 C28 1.016 . S
C28 H27 1.016 . S
C28 N35 1.286 . S
C29 H24 0.930 . S
C29 C30 1.397 . S
C29 C31 1.361 . S
C30 C29 1.397 . S
C30 C34 1.390 . S
C31 C29 1.361 . S
C31 C32 1.393 . S
C31 N35 1.413 . S
C32 H25 0.930 . S
C32 C31 1.393 . S
C32 C33 1.399 . S
C33 C32 1.399 . S
C33 C34 1.381 . S
C34 H26 0.930 . S
C34 C30 1.390 . S
C34 C33 1.381 . S
N35 C28 1.286 . S
N35 C31 1.413 . S
H36 C41 0.930 . S
H37 C44 0.930 . S
H38 C46 0.930 . S
H39 C40 1.016 . S
C40 H39 1.016 . S
C40 N47 1.286 . S
C41 H36 0.930 . S
C41 C42 1.397 . S
C41 C43 1.361 . S
C42 C41 1.397 . S
C42 C46 1.390 . S
C43 C41 1.361 . S
C43 C44 1.393 . S
C43 N47 1.413 . S
C44 H37 0.930 . S
C44 C43 1.393 . S
C44 C45 1.399 . S
C45 C44 1.399 . S
C45 C46 1.381 . S
C46 H38 0.930 . S
C46 C42 1.390 . S
C46 C45 1.381 . S
N47 C40 1.286 . S
N47 C43 1.413 . S
H48 C53 0.930 . S
H49 C56 0.930 . S
H50 C58 0.930 . S
H51 C52 1.016 . S
C52 H51 1.016 . S
C52 N59 1.286 . S
C53 H48 0.930 . S
C53 C54 1.397 . S
C53 C55 1.361 1_556 S
C54 C53 1.397 . S
C54 C58 1.390 1_556 S
C55 C53 1.361 1_554 S
C55 C56 1.393 . S
C55 N59 1.413 . S
C56 H49 0.930 . S
C56 C55 1.393 . S
C56 C57 1.399 . S
C57 C56 1.399 . S
C57 C58 1.381 . S
C58 H50 0.930 . S
C58 C54 1.390 1_554 S
C58 C57 1.381 . S
N59 C52 1.286 . S
N59 C55 1.413 . S
H60 C65 0.930 . S
H61 C68 0.930 . S
H62 C70 0.930 . S
H63 C64 1.016 . S
C64 H63 1.016 . S
C64 N71 1.286 . S
C65 H60 0.930 . S
C65 C66 1.397 . S
C65 C67 1.361 1_556 S
C66 C65 1.397 . S
C66 C70 1.390 1_556 S
C67 C65 1.361 1_554 S
C67 C68 1.393 . S
C67 N71 1.413 . S
C68 H61 0.930 . S
C68 C67 1.393 . S
C68 C69 1.399 . S
C69 C68 1.399 . S
C69 C70 1.381 . S
C70 H62 0.930 . S
C70 C66 1.390 1_554 S
C70 C69 1.381 . S
N71 C64 1.286 . S
N71 C67 1.413 . S
H72 C77 0.930 . S
H73 C80 0.930 . S
H74 C82 0.930 . S
H75 C76 1.016 . S
C76 H75 1.016 . S
C76 N83 1.286 . S
C77 H72 0.930 . S
C77 C78 1.397 . S
C77 C79 1.361 1_556 S
C78 C77 1.397 . S
C78 C82 1.390 1_556 S
C79 C77 1.361 1_554 S
C79 C80 1.393 . S
C79 N83 1.413 . S
C80 H73 0.930 . S
C80 C79 1.393 . S
C80 C81 1.399 . S
C81 C80 1.399 . S
C81 C82 1.381 . S
C82 H74 0.930 . S
C82 C78 1.390 1_554 S
C82 C81 1.381 . S
N83 C76 1.286 . S
N83 C79 1.413 . S
H84 C89 0.930 . S
H85 C92 0.930 . S
H86 C94 0.930 . S
H87 C88 1.016 . S
C88 H87 1.016 . S
C88 N95 1.286 . S
C89 H84 0.930 . S
C89 C90 1.397 . S
C89 C91 1.361 1_556 S
C90 C89 1.397 . S
C90 C94 1.390 1_556 S
C91 C89 1.361 1_554 S
C91 C92 1.393 . S
C91 N95 1.413 . S
C92 H85 0.930 . S
C92 C91 1.393 . S
C92 C93 1.399 . S
C93 C92 1.399 . S
C93 C94 1.381 . S
C94 H86 0.930 . S
C94 C90 1.390 1_554 S
C94 C93 1.381 . S
N95 C88 1.286 . S
N95 C91 1.413 . S
C96 C98 1.422 1_556 S
C96 C100 1.415 . S
C96 N102 1.369 . S
C97 C98 1.421 . S
C97 C99 1.417 . S
C97 C109 1.422 . S
C98 C96 1.422 1_554 S
C98 C97 1.421 . S
C98 N108 1.359 1_554 S
C99 C97 1.417 . S
C99 C101 1.329 . S
C99 H118 0.930 . S
C100 C96 1.415 . S
C100 C101 1.437 1_556 S
C100 C104 1.413 . S
C101 C99 1.329 . S
C101 C100 1.437 1_554 S
C101 H123 0.929 . S
N102 C96 1.369 . S
N102 C103 1.338 . S
N102 Gd107 2.622 1_545 S
C103 N102 1.338 . S
C103 C105 1.378 . S
C103 H115 0.929 1_545 S
C104 C100 1.413 . S
C104 C105 1.348 . S
C104 H120 0.931 . S
C105 C103 1.378 . S
C105 C104 1.348 . S
C105 H121 0.930 . S
Gd106 N126 2.622 . S
Gd106 N133 2.570 . S
Gd106 O140 2.353 1_655 S
Gd106 O141 2.468 . S
Gd106 O142 2.427 . S
Gd106 O144 2.388 . S
Gd106 O145 2.386 1_545 S
Gd106 O149 2.307 1_655 S
Gd106 C159 2.805 . S
Gd107 N102 2.622 1_565 S
Gd107 N108 2.570 1_565 S
Gd107 O139 2.386 1_565 S
Gd107 O143 2.307 1_465 S
Gd107 O146 2.353 . S
Gd107 O147 2.468 . S
Gd107 O148 2.427 . S
Gd107 O150 2.388 . S
Gd107 C171 2.805 . S
N108 C98 1.359 1_556 S
N108 Gd107 2.570 1_545 S
N108 C110 1.343 1_556 S
C109 C97 1.422 . S
C109 C111 1.321 . S
C109 H117 0.931 . S
C110 N108 1.343 1_554 S
C110 C111 1.390 . S
C110 H112 0.931 1_455 S
C111 C109 1.321 . S
C111 C110 1.390 . S
C111 H113 0.945 . S
H112 C110 0.931 1_655 S
H113 C111 0.945 . S
H114 C137 0.956 . S
H115 C103 0.929 1_565 S
H116 C138 0.922 1_455 S
H117 C109 0.931 . S
H118 C99 0.930 . S
H119 C128 0.929 . S
H120 C104 0.931 . S
H121 C105 0.930 . S
H122 C160 0.930 . S
H123 C101 0.929 . S
H124 C129 0.931 . S
H125 C130 0.930 . S
N126 Gd106 2.622 . S
N126 C127 1.369 . S
N126 C128 1.338 . S
C127 N126 1.369 . S
C127 C131 1.415 1_545 S
C127 C134 1.422 1_545 S
C128 H119 0.929 . S
C128 N126 1.338 . S
C128 C130 1.378 . S
C129 H124 0.931 . S
C129 C130 1.348 1_565 S
C129 C131 1.413 . S
C130 H125 0.930 . S
C130 C128 1.378 . S
C130 C129 1.348 1_545 S
C131 C127 1.415 1_565 S
C131 C129 1.413 . S
C131 C161 1.437 . S
H132 C161 0.929 . S
N133 Gd106 2.570 . S
N133 C134 1.359 1_545 S
N133 C137 1.320 1_655 S
C134 C127 1.422 1_565 S
C134 N133 1.359 1_565 S
C134 C136 1.421 . S
C135 C136 1.422 . S
C135 C138 1.330 . S
C135 H162 0.931 . S
C136 C134 1.421 . S
C136 C135 1.422 . S
C136 C160 1.417 . S
C137 H114 0.956 . S
C137 N133 1.320 1_455 S
C137 C138 1.389 1_445 S
C138 H116 0.922 1_655 S
C138 C135 1.330 . S
C138 C137 1.389 1_665 S
O139 Gd107 2.386 1_545 S
O139 C151 1.265 . S
O140 Gd106 2.353 1_455 S
O140 C151 1.242 . S
O141 Gd106 2.468 . S
O141 C159 1.263 . S
O142 Gd106 2.427 . S
O142 C159 1.252 . S
O143 Gd107 2.307 1_645 S
O143 C152 1.261 . S
O144 Gd106 2.388 . S
O144 C152 1.252 . S
O145 Gd106 2.386 1_565 S
O145 C163 1.265 . S
O146 Gd107 2.353 . S
O146 C163 1.242 1_455 S
O147 Gd107 2.468 . S
O147 C171 1.263 . S
O148 Gd107 2.427 . S
O148 C171 1.252 . S
O149 Gd106 2.307 1_455 S
O149 C164 1.261 . S
O150 Gd107 2.388 . S
O150 C164 1.252 1_565 S
C151 O139 1.265 . S
C151 O140 1.242 . S
C152 O143 1.261 . S
C152 O144 1.252 . S
C153 C156 1.394 . S
C153 C158 1.370 . S
C153 C159 1.500 . S
C154 C157 1.383 . S
C154 C158 1.395 . S
C155 C156 1.396 . S
C155 C157 1.365 . S
C155 H172 0.929 . S
C156 C153 1.394 . S
C156 C155 1.396 . S
C156 H173 0.930 . S
C157 C154 1.383 . S
C157 C155 1.365 . S
C157 H174 0.931 . S
C158 C153 1.370 . S
C158 C154 1.395 . S
C158 H175 0.930 1_655 S
C159 Gd106 2.805 . S
C159 O141 1.263 . S
C159 O142 1.252 . S
C159 C153 1.500 . S
C160 H122 0.930 . S
C160 C136 1.417 . S
C160 C161 1.329 . S
C161 C131 1.437 . S
C161 H132 0.929 . S
C161 C160 1.329 . S
H162 C135 0.931 . S
C163 O145 1.265 . S
C163 O146 1.242 1_655 S
C164 O149 1.261 . S
C164 O150 1.252 1_545 S
C165 C168 1.394 . S
C165 C170 1.370 1_556 S
C165 C171 1.500 . S
C166 C169 1.383 . S
C166 C170 1.395 . S
C167 C168 1.396 1_554 S
C167 C169 1.365 . S
C167 H176 0.929 1_554 S
C168 C165 1.394 . S
C168 C167 1.396 1_556 S
C168 H177 0.930 . S
C169 C166 1.383 . S
C169 C167 1.365 . S
C169 H178 0.931 . S
C170 C165 1.370 1_554 S
C170 C166 1.395 . S
C170 H179 0.930 . S
C171 Gd107 2.805 . S
C171 O147 1.263 . S
C171 O148 1.252 . S
C171 C165 1.500 . S
H172 C155 0.929 . S
H173 C156 0.930 . S
H174 C157 0.931 . S
H175 C158 0.930 1_455 S
H176 C167 0.929 1_556 S
H177 C168 0.930 . S
H178 C169 0.931 . S
H179 C170 0.930 . S
C180 C182 1.422 . S
C180 C184 1.415 . S
C180 N186 1.369 . S
C181 C182 1.421 . S
C181 C183 1.417 . S
C181 C193 1.422 . S
C182 C180 1.422 . S
C182 C181 1.421 . S
C182 N192 1.359 . S
C183 C181 1.417 . S
C183 C185 1.329 . S
C183 H202 0.930 . S
C184 C180 1.415 . S
C184 C185 1.437 . S
C184 C188 1.413 . S
C185 C183 1.329 . S
C185 C184 1.437 . S
C185 H207 0.929 . S
N186 C180 1.369 . S
N186 C187 1.338 . S
N186 Gd191 2.622 . S
C187 N186 1.338 . S
C187 C189 1.378 . S
C187 H199 0.929 . S
C188 C184 1.413 . S
C188 C189 1.348 . S
C188 H204 0.931 . S
C189 C187 1.378 . S
C189 C188 1.348 . S
C189 H205 0.930 . S
Gd190 N210 2.622 . S
Gd190 N217 2.570 . S
Gd190 O224 2.353 1_545 S
Gd190 O225 2.468 . S
Gd190 O226 2.427 . S
Gd190 O228 2.388 . S
Gd190 O229 2.386 . S
Gd190 O233 2.307 . S
Gd190 C243 2.805 . S
Gd191 N186 2.622 . S
Gd191 N192 2.570 . S
Gd191 O223 2.386 . S
Gd191 O227 2.307 1_565 S
Gd191 O230 2.353 1_565 S
Gd191 O231 2.468 . S
Gd191 O232 2.427 . S
Gd191 O234 2.388 . S
Gd191 C255 2.805 . S
N192 C182 1.359 . S
N192 Gd191 2.570 . S
N192 C194 1.343 . S
C193 C181 1.422 . S
C193 C195 1.321 . S
C193 H201 0.931 . S
C194 N192 1.343 . S
C194 C195 1.390 . S
C194 H196 0.931 . S
C195 C193 1.321 . S
C195 C194 1.390 . S
C195 H197 0.930 . S
H196 C194 0.931 . S
H197 C195 0.930 . S
H198 C221 0.931 . S
H199 C187 0.929 . S
H200 C222 0.930 . S
H201 C193 0.931 . S
H202 C183 0.930 . S
H203 C212 0.929 . S
H204 C188 0.931 . S
H205 C189 0.930 . S
H206 C244 0.930 . S
H207 C185 0.929 . S
H208 C213 0.931 . S
H209 C214 0.930 1_554 S
N210 Gd190 2.622 . S
N210 C211 1.369 . S
N210 C212 1.338 . S
C211 N210 1.369 . S
C211 C215 1.415 . S
C211 C218 1.422 . S
C212 H203 0.929 . S
C212 N210 1.338 . S
C212 C214 1.378 . S
C213 H208 0.931 . S
C213 C214 1.348 . S
C213 C215 1.413 . S
C214 H209 0.930 1_556 S
C214 C212 1.378 . S
C214 C213 1.348 . S
C215 C211 1.415 . S
C215 C213 1.413 . S
C215 C245 1.437 . S
H216 C245 0.929 . S
N217 Gd190 2.570 . S
N217 C218 1.359 . S
N217 C221 1.343 . S
C218 C211 1.422 . S
C218 N217 1.359 . S
C218 C220 1.421 . S
C219 C220 1.422 . S
C219 C222 1.321 . S
C219 H246 0.931 . S
C220 C218 1.421 . S
C220 C219 1.422 . S
C220 C244 1.417 . S
C221 H198 0.931 . S
C221 N217 1.343 . S
C221 C222 1.390 . S
C222 H200 0.930 . S
C222 C219 1.321 . S
C222 C221 1.390 . S
O223 Gd191 2.386 . S
O223 C235 1.265 . S
O224 Gd190 2.353 1_565 S
O224 C235 1.242 . S
O225 Gd190 2.468 . S
O225 C243 1.263 . S
O226 Gd190 2.427 . S
O226 C243 1.252 . S
O227 Gd191 2.307 1_545 S
O227 C236 1.261 . S
O228 Gd190 2.388 . S
O228 C236 1.252 . S
O229 Gd190 2.386 . S
O229 C247 1.265 . S
O230 Gd191 2.353 1_545 S
O230 C247 1.242 . S
O231 Gd191 2.468 . S
O231 C255 1.263 . S
O232 Gd191 2.427 . S
O232 C255 1.252 . S
O233 Gd190 2.307 . S
O233 C248 1.261 . S
O234 Gd191 2.388 . S
O234 C248 1.252 1_565 S
C235 O223 1.265 . S
C235 O224 1.242 . S
C236 O227 1.261 . S
C236 O228 1.252 . S
C237 C240 1.394 . S
C237 C242 1.370 . S
C237 C243 1.500 1_554 S
C238 C241 1.383 . S
C238 C242 1.395 . S
C239 C240 1.396 . S
C239 C241 1.365 . S
C239 H256 0.929 . S
C240 C237 1.394 . S
C240 C239 1.396 . S
C240 H257 0.930 . S
C241 C238 1.383 . S
C241 C239 1.365 . S
C241 H258 0.931 . S
C242 C237 1.370 . S
C242 C238 1.395 . S
C242 H259 0.930 1_554 S
C243 Gd190 2.805 . S
C243 O225 1.263 . S
C243 O226 1.252 . S
C243 C237 1.500 1_556 S
C244 H206 0.930 . S
C244 C220 1.417 . S
C244 C245 1.329 . S
C245 C215 1.437 . S
C245 H216 0.929 . S
C245 C244 1.329 . S
H246 C219 0.931 . S
C247 O229 1.265 . S
C247 O230 1.242 . S
C248 O233 1.261 . S
C248 O234 1.252 1_545 S
C249 C252 1.394 . S
C249 C254 1.370 1_565 S
C249 C255 1.500 . S
C250 C253 1.383 1_545 S
C250 C254 1.395 . S
C251 C252 1.396 . S
C251 C253 1.365 . S
C251 H260 0.929 . S
C252 C249 1.394 . S
C252 C251 1.396 . S
C252 H261 0.930 . S
C253 C250 1.383 1_565 S
C253 C251 1.365 . S
C253 H262 0.931 . S
C254 C249 1.370 1_545 S
C254 C250 1.395 . S
C254 H263 0.930 . S
C255 Gd191 2.805 . S
C255 O231 1.263 . S
C255 O232 1.252 . S
C255 C249 1.500 . S
H256 C239 0.929 . S
H257 C240 0.930 . S
H258 C241 0.931 . S
H259 C242 0.930 1_556 S
H260 C251 0.929 . S
H261 C252 0.930 . S
H262 C253 0.931 . S
H263 C254 0.930 . S
C264 C266 1.422 1_556 S
C264 C268 1.415 . S
C264 N270 1.369 . S
C265 C266 1.421 . S
C265 C267 1.417 . S
C265 C277 1.422 . S
C266 C264 1.422 1_554 S
C266 C265 1.421 . S
C266 N276 1.359 1_554 S
C267 C265 1.417 . S
C267 C269 1.329 . S
C267 H286 0.930 . S
C268 C264 1.415 . S
C268 C269 1.437 1_556 S
C268 C272 1.413 . S
C269 C267 1.329 . S
C269 C268 1.437 1_554 S
C269 H291 0.929 . S
N270 C264 1.369 . S
N270 C271 1.338 . S
N270 Gd275 2.622 . S
C271 N270 1.338 . S
C271 C273 1.378 . S
C271 H283 0.929 . S
C272 C268 1.413 . S
C272 C273 1.348 . S
C272 H288 0.931 . S
C273 C271 1.378 . S
C273 C272 1.348 . S
C273 H289 0.930 . S
Gd274 N294 2.622 . S
Gd274 N301 2.570 . S
Gd274 O308 2.353 . S
Gd274 O309 2.468 . S
Gd274 O310 2.427 . S
Gd274 O312 2.388 . S
Gd274 O313 2.386 . S
Gd274 O317 2.307 . S
Gd274 C327 2.805 . S
Gd275 N270 2.622 . S
Gd275 N276 2.570 . S
Gd275 O307 2.386 . S
Gd275 O311 2.307 . S
Gd275 O314 2.353 . S
Gd275 O315 2.468 . S
Gd275 O316 2.427 . S
Gd275 O318 2.388 . S
Gd275 C339 2.805 . S
N276 C266 1.359 1_556 S
N276 Gd275 2.570 . S
N276 C278 1.343 1_556 S
C277 C265 1.422 . S
C277 C279 1.321 . S
C277 H285 0.931 . S
C278 N276 1.343 1_554 S
C278 C279 1.390 . S
C278 H280 0.931 . S
C279 C277 1.321 . S
C279 C278 1.390 . S
C279 H281 0.930 . S
H280 C278 0.931 . S
H281 C279 0.930 . S
H282 C305 0.931 . S
H283 C271 0.929 . S
H284 C306 0.930 . S
H285 C277 0.931 . S
H286 C267 0.930 . S
H287 C296 0.929 . S
H288 C272 0.931 . S
H289 C273 0.930 . S
H290 C328 0.930 . S
H291 C269 0.929 . S
H292 C297 0.931 . S
H293 C298 0.930 . S
N294 Gd274 2.622 . S
N294 C295 1.369 . S
N294 C296 1.338 . S
C295 N294 1.369 . S
C295 C299 1.415 . S
C295 C302 1.422 . S
C296 H287 0.929 . S
C296 N294 1.338 . S
C296 C298 1.378 . S
C297 H292 0.931 . S
C297 C298 1.348 . S
C297 C299 1.413 . S
C298 H293 0.930 . S
C298 C296 1.378 . S
C298 C297 1.348 . S
C299 C295 1.415 . S
C299 C297 1.413 . S
C299 C329 1.437 . S
H300 C329 0.929 . S
N301 Gd274 2.570 . S
N301 C302 1.359 . S
N301 C305 1.343 . S
C302 C295 1.422 . S
C302 N301 1.359 . S
C302 C304 1.421 . S
C303 C304 1.422 . S
C303 C306 1.321 . S
C303 H330 0.931 . S
C304 C302 1.421 . S
C304 C303 1.422 . S
C304 C328 1.417 . S
C305 H282 0.931 . S
C305 N301 1.343 . S
C305 C306 1.390 . S
C306 H284 0.930 . S
C306 C303 1.321 . S
C306 C305 1.390 . S
O307 Gd275 2.386 . S
O307 C319 1.265 . S
O308 Gd274 2.353 . S
O308 C319 1.242 . S
O309 Gd274 2.468 . S
O309 C327 1.263 . S
O310 Gd274 2.427 . S
O310 C327 1.252 . S
O311 Gd275 2.307 . S
O311 C320 1.261 . S
O312 Gd274 2.388 . S
O312 C320 1.252 . S
O313 Gd274 2.386 . S
O313 C331 1.265 . S
O314 Gd275 2.353 . S
O314 C331 1.242 . S
O315 Gd275 2.468 . S
O315 C339 1.263 . S
O316 Gd275 2.427 . S
O316 C339 1.252 . S
O317 Gd274 2.307 . S
O317 C332 1.261 . S
O318 Gd275 2.388 . S
O318 C332 1.252 . S
C319 O307 1.265 . S
C319 O308 1.242 . S
C320 O311 1.261 . S
C320 O312 1.252 . S
C321 C324 1.394 . S
C321 C326 1.370 . S
C321 C327 1.500 . S
C322 C325 1.383 . S
C322 C326 1.395 . S
C323 C324 1.396 . S
C323 C325 1.365 . S
C323 H340 0.929 . S
C324 C321 1.394 . S
C324 C323 1.396 . S
C324 H341 0.930 . S
C325 C322 1.383 . S
C325 C323 1.365 . S
C325 H342 0.931 . S
C326 C321 1.370 . S
C326 C322 1.395 . S
C326 H343 0.930 . S
C327 Gd274 2.805 . S
C327 O309 1.263 . S
C327 O310 1.252 . S
C327 C321 1.500 . S
C328 H290 0.930 . S
C328 C304 1.417 . S
C328 C329 1.329 . S
C329 C299 1.437 . S
C329 H300 0.929 . S
C329 C328 1.329 . S
H330 C303 0.931 . S
C331 O313 1.265 . S
C331 O314 1.242 . S
C332 O317 1.261 . S
C332 O318 1.252 . S
C333 C336 1.394 . S
C333 C338 1.370 1_556 S
C333 C339 1.500 . S
C334 C337 1.383 . S
C334 C338 1.395 . S
C335 C336 1.396 1_554 S
C335 C337 1.365 . S
C335 H344 0.929 . S
C336 C333 1.394 . S
C336 C335 1.396 1_556 S
C336 H345 0.930 . S
C337 C334 1.383 . S
C337 C335 1.365 . S
C337 H346 0.931 . S
C338 C333 1.370 1_554 S
C338 C334 1.395 . S
C338 H347 0.930 . S
C339 Gd275 2.805 . S
C339 O315 1.263 . S
C339 O316 1.252 . S
C339 C333 1.500 . S
H340 C323 0.929 . S
H341 C324 0.930 . S
H342 C325 0.931 . S
H343 C326 0.930 . S
H344 C335 0.929 . S
H345 C336 0.930 . S
H346 C337 0.931 . S
H347 C338 0.930 . S
C348 C350 1.422 1_556 S
C348 C352 1.415 . S
C348 N354 1.369 . S
C349 C350 1.421 . S
C349 C351 1.417 . S
C349 C361 1.422 . S
C350 C348 1.422 1_554 S
C350 C349 1.421 . S
C350 N360 1.359 1_554 S
C351 C349 1.417 . S
C351 C353 1.329 . S
C351 H370 0.930 . S
C352 C348 1.415 . S
C352 C353 1.437 1_556 S
C352 C356 1.413 . S
C353 C351 1.329 . S
C353 C352 1.437 1_554 S
C353 H375 0.929 . S
N354 C348 1.369 . S
N354 C355 1.336 1_455 S
N354 Gd359 2.622 1_455 S
C355 N354 1.336 1_655 S
C355 C357 1.373 1_655 S
C355 H367 0.937 . S
C356 C352 1.413 . S
C356 C357 1.348 . S
C356 H372 0.931 . S
C357 C355 1.373 1_455 S
C357 C356 1.348 . S
C357 H373 0.930 . S
Gd358 N378 2.622 . S
Gd358 N385 2.570 . S
Gd358 O392 2.353 . S
Gd358 O393 2.468 . S
Gd358 O394 2.427 . S
Gd358 O396 2.388 . S
Gd358 O397 2.386 1_455 S
Gd358 O401 2.307 . S
Gd358 C411 2.805 . S
Gd359 N354 2.622 1_655 S
Gd359 N360 2.570 1_655 S
Gd359 O391 2.386 1_655 S
Gd359 O395 2.307 1_655 S
Gd359 O398 2.353 . S
Gd359 O399 2.468 . S
Gd359 O400 2.427 . S
Gd359 O402 2.388 . S
Gd359 C423 2.805 . S
N360 C350 1.359 1_556 S
N360 Gd359 2.570 1_455 S
N360 C362 1.343 1_556 S
C361 C349 1.422 . S
C361 C363 1.321 . S
C361 H369 0.931 . S
C362 N360 1.343 1_554 S
C362 C363 1.390 . S
C362 H364 0.931 . S
C363 C361 1.321 . S
C363 C362 1.390 . S
C363 H365 0.930 . S
H364 C362 0.931 . S
H365 C363 0.930 . S
H366 C389 0.931 . S
H367 C355 0.937 . S
H368 C390 0.930 . S
H369 C361 0.931 . S
H370 C351 0.930 . S
H371 C380 0.929 . S
H372 C356 0.931 . S
H373 C357 0.930 . S
H374 C412 0.930 . S
H375 C353 0.929 . S
H376 C381 0.931 . S
H377 C382 0.930 . S
N378 Gd358 2.622 . S
N378 C379 1.377 . S
N378 C380 1.338 . S
C379 N378 1.377 . S
C379 C383 1.409 1_455 S
C379 C386 1.421 1_455 S
C380 H371 0.929 . S
C380 N378 1.338 . S
C380 C382 1.378 . S
C381 H376 0.931 . S
C381 C382 1.348 1_655 S
C381 C383 1.413 . S
C382 H377 0.930 . S
C382 C380 1.378 . S
C382 C381 1.348 1_455 S
C383 C379 1.409 1_655 S
C383 C381 1.413 . S
C383 C413 1.437 . S
H384 C413 0.929 . S
N385 Gd358 2.570 . S
N385 C386 1.359 1_455 S
N385 C389 1.343 . S
C386 C379 1.421 1_655 S
C386 N385 1.359 1_655 S
C386 C388 1.421 . S
C387 C388 1.422 . S
C387 C390 1.321 . S
C387 H414 0.931 . S
C388 C386 1.421 . S
C388 C387 1.422 . S
C388 C412 1.417 . S
C389 H366 0.931 . S
C389 N385 1.343 . S
C389 C390 1.390 1_455 S
C390 H368 0.930 . S
C390 C387 1.321 . S
C390 C389 1.390 1_655 S
O391 Gd359 2.386 1_455 S
O391 C403 1.265 . S
O392 Gd358 2.353 . S
O392 C403 1.242 . S
O393 Gd358 2.468 . S
O393 C411 1.263 . S
O394 Gd358 2.427 . S
O394 C411 1.252 . S
O395 Gd359 2.307 1_455 S
O395 C404 1.261 . S
O396 Gd358 2.388 . S
O396 C404 1.252 . S
O397 Gd358 2.386 1_655 S
O397 C415 1.265 . S
O398 Gd359 2.353 . S
O398 C415 1.242 . S
O399 Gd359 2.468 . S
O399 C423 1.263 . S
O400 Gd359 2.427 . S
O400 C423 1.252 . S
O401 Gd358 2.307 . S
O401 C416 1.261 . S
O402 Gd359 2.388 . S
O402 C416 1.252 1_655 S
C403 O391 1.265 . S
C403 O392 1.242 . S
C404 O395 1.261 . S
C404 O396 1.252 . S
C405 C408 1.394 . S
C405 C410 1.370 . S
C405 C411 1.500 . S
C406 C409 1.383 . S
C406 C410 1.395 . S
C407 C408 1.396 . S
C407 C409 1.365 . S
C407 H424 0.929 . S
C408 C405 1.394 . S
C408 C407 1.396 . S
C408 H425 0.930 . S
C409 C406 1.383 . S
C409 C407 1.365 . S
C409 H426 0.931 . S
C410 C405 1.370 . S
C410 C406 1.395 . S
C410 H427 0.930 . S
C411 Gd358 2.805 . S
C411 O393 1.263 . S
C411 O394 1.252 . S
C411 C405 1.500 . S
C412 H374 0.930 . S
C412 C388 1.417 . S
C412 C413 1.329 . S
C413 C383 1.437 . S
C413 H384 0.929 . S
C413 C412 1.329 . S
H414 C387 0.931 . S
C415 O397 1.265 . S
C415 O398 1.242 . S
C416 O401 1.261 . S
C416 O402 1.252 1_455 S
C417 C420 1.394 . S
C417 C422 1.370 1_556 S
C417 C423 1.500 . S
C418 C421 1.383 . S
C418 C422 1.395 . S
C419 C420 1.396 1_554 S
C419 C421 1.365 . S
C419 H428 0.929 1_554 S
C420 C417 1.394 . S
C420 C419 1.396 1_556 S
C420 H429 0.930 . S
C421 C418 1.383 . S
C421 C419 1.365 . S
C421 H430 0.931 . S
C422 C417 1.370 1_554 S
C422 C418 1.395 . S
C422 H431 0.930 . S
C423 Gd359 2.805 . S
C423 O399 1.263 . S
C423 O400 1.252 . S
C423 C417 1.500 . S
H424 C407 0.929 . S
H425 C408 0.930 . S
H426 C409 0.931 . S
H427 C410 0.930 . S
H428 C419 0.929 1_556 S
H429 C420 0.930 . S
H430 C421 0.931 . S
H431 C422 0.930 . S
H432 C438 0.930 . S
H433 C441 0.930 . S
H434 C442 0.930 . S
H435 C443 0.930 . S
H436 C446 0.930 . S
H437 C447 0.930 . S
C438 H432 0.930 . S
C438 C439 1.355 . S
C438 C440 1.415 . S
C439 C438 1.355 . S
C439 C441 1.419 . S
C440 C438 1.415 . S
C440 C445 1.425 . S
C440 C447 1.409 . S
C441 H433 0.930 . S
C441 C439 1.419 . S
C441 C442 1.362 . S
C442 H434 0.930 . S
C442 C441 1.362 . S
C442 C445 1.409 . S
C443 H435 0.930 . S
C443 C444 1.355 . S
C443 C445 1.415 . S
C444 C443 1.355 . S
C444 C446 1.419 . S
C445 C440 1.425 . S
C445 C442 1.409 . S
C445 C443 1.415 . S
C446 H436 0.930 . S
C446 C444 1.419 . S
C446 C447 1.362 . S
C447 H437 0.930 . S
C447 C440 1.409 . S
C447 C446 1.362 . S
H448 C454 0.930 . S
H449 C457 0.930 . S
H450 C458 0.930 . S
H451 C459 0.930 . S
H452 C462 0.930 . S
H453 C463 0.930 . S
C454 H448 0.930 . S
C454 C455 1.355 . S
C454 C456 1.415 . S
C455 C454 1.355 . S
C455 C457 1.419 . S
C456 C454 1.415 . S
C456 C461 1.425 . S
C456 C463 1.409 . S
C457 H449 0.930 . S
C457 C455 1.419 . S
C457 C458 1.362 . S
C458 H450 0.930 . S
C458 C457 1.362 . S
C458 C461 1.409 . S
C459 H451 0.930 . S
C459 C460 1.355 . S
C459 C461 1.415 . S
C460 C459 1.355 . S
C460 C462 1.419 . S
C461 C456 1.425 . S
C461 C458 1.409 . S
C461 C459 1.415 . S
C462 H452 0.930 . S
C462 C460 1.419 . S
C462 C463 1.362 . S
C463 H453 0.930 . S
C463 C456 1.409 . S
C463 C462 1.362 . S
H464 C470 0.930 . S
H465 C473 0.930 . S
H466 C474 0.930 . S
H467 C475 0.930 . S
H468 C478 0.930 . S
H469 C479 0.930 . S
C470 H464 0.930 . S
C470 C471 1.355 . S
C470 C472 1.415 . S
C471 C470 1.355 . S
C471 C473 1.419 . S
C472 C470 1.415 . S
C472 C477 1.425 . S
C472 C479 1.409 . S
C473 H465 0.930 . S
C473 C471 1.419 . S
C473 C474 1.362 . S
C474 H466 0.930 . S
C474 C473 1.362 . S
C474 C477 1.409 . S
C475 H467 0.930 . S
C475 C476 1.355 . S
C475 C477 1.415 . S
C476 C475 1.355 . S
C476 C478 1.419 . S
C477 C472 1.425 . S
C477 C474 1.409 . S
C477 C475 1.415 . S
C478 H468 0.930 . S
C478 C476 1.419 . S
C478 C479 1.362 . S
C479 H469 0.930 . S
C479 C472 1.409 . S
C479 C478 1.362 . S
H480 C486 0.930 . S
H481 C489 0.930 . S
H482 C490 0.930 . S
H483 C491 0.930 . S
H484 C494 0.930 . S
H485 C495 0.930 . S
C486 H480 0.930 . S
C486 C487 1.355 . S
C486 C488 1.415 . S
C487 C486 1.355 . S
C487 C489 1.419 . S
C488 C486 1.415 . S
C488 C493 1.425 . S
C488 C495 1.409 . S
C489 H481 0.930 . S
C489 C487 1.419 . S
C489 C490 1.362 . S
C490 H482 0.930 . S
C490 C489 1.362 . S
C490 C493 1.409 . S
C491 H483 0.930 . S
C491 C492 1.355 . S
C491 C493 1.415 . S
C492 C491 1.355 . S
C492 C494 1.419 . S
C493 C488 1.425 . S
C493 C490 1.409 . S
C493 C491 1.415 . S
C494 H484 0.930 . S
C494 C492 1.419 . S
C494 C495 1.362 . S
C495 H485 0.930 . S
C495 C488 1.409 . S
C495 C494 1.362 . S
H496 C502 0.930 . S
H497 C505 0.930 . S
H498 C506 0.930 . S
H499 C507 0.930 . S
H500 C510 0.930 . S
H501 C511 0.930 . S
C502 H496 0.930 . S
C502 C503 1.355 . S
C502 C504 1.415 . S
C503 C502 1.355 . S
C503 C505 1.419 1_565 S
C504 C502 1.415 . S
C504 C509 1.425 1_565 S
C504 C511 1.409 1_554 S
C505 H497 0.930 . S
C505 C503 1.419 1_545 S
C505 C506 1.362 . S
C506 H498 0.930 . S
C506 C505 1.362 . S
C506 C509 1.409 . S
C507 H499 0.930 . S
C507 C508 1.343 1_544 S
C507 C509 1.415 . S
C508 C507 1.343 1_566 S
C508 C510 1.438 . S
C509 C504 1.425 1_545 S
C509 C506 1.409 . S
C509 C507 1.415 . S
C510 H500 0.930 . S
C510 C508 1.438 . S
C510 C511 1.362 . S
C511 H501 0.930 . S
C511 C504 1.409 1_556 S
C511 C510 1.362 . S
H512 C518 0.930 . S
H513 C521 0.930 . S
H514 C522 0.930 . S
H515 C523 0.930 . S
H516 C526 0.930 . S
H517 C527 0.930 . S
C518 H512 0.930 . S
C518 C519 1.355 . S
C518 C520 1.415 . S
C519 C518 1.355 . S
C519 C521 1.419 . S
C520 C518 1.415 . S
C520 C525 1.425 . S
C520 C527 1.409 1_554 S
C521 H513 0.930 . S
C521 C519 1.419 . S
C521 C522 1.362 . S
C522 H514 0.930 . S
C522 C521 1.362 . S
C522 C525 1.409 . S
C523 H515 0.930 . S
C523 C524 1.355 1_554 S
C523 C525 1.415 . S
C524 C523 1.355 1_556 S
C524 C526 1.419 . S
C525 C520 1.425 . S
C525 C522 1.409 . S
C525 C523 1.415 . S
C526 H516 0.930 . S
C526 C524 1.419 . S
C526 C527 1.362 . S
C527 H517 0.930 . S
C527 C520 1.409 1_556 S
C527 C526 1.362 . S
H528 C534 0.930 . S
H529 C537 0.930 . S
H530 C538 0.930 . S
H531 C539 0.930 . S
H532 C542 0.930 . S
H533 C543 0.930 . S
C534 H528 0.930 . S
C534 C535 1.355 . S
C534 C536 1.415 . S
C535 C534 1.355 . S
C535 C537 1.419 . S
C536 C534 1.415 . S
C536 C541 1.425 . S
C536 C543 1.409 . S
C537 H529 0.930 . S
C537 C535 1.419 . S
C537 C538 1.362 . S
C538 H530 0.930 . S
C538 C537 1.362 . S
C538 C541 1.409 . S
C539 H531 0.930 . S
C539 C540 1.355 . S
C539 C541 1.415 1_556 S
C540 C539 1.355 . S
C540 C542 1.419 . S
C541 C536 1.425 . S
C541 C538 1.409 . S
C541 C539 1.415 1_554 S
C542 H532 0.930 . S
C542 C540 1.419 . S
C542 C543 1.362 1_556 S
C543 H533 0.930 . S
C543 C536 1.409 . S
C543 C542 1.362 1_554 S
H544 C550 0.930 . S
H545 C553 0.930 . S
H546 C554 0.930 . S
H547 C555 0.930 . S
H548 C558 0.930 . S
H549 C559 0.930 . S
C550 H544 0.930 . S
C550 C551 1.355 . S
C550 C552 1.415 . S
C551 C550 1.355 . S
C551 C553 1.419 1_655 S
C552 C550 1.415 . S
C552 C557 1.425 1_655 S
C552 C559 1.409 . S
C553 H545 0.930 . S
C553 C551 1.419 1_455 S
C553 C554 1.362 . S
C554 H546 0.930 . S
C554 C553 1.362 . S
C554 C557 1.409 . S
C555 H547 0.930 . S
C555 C556 1.355 1_455 S
C555 C557 1.415 1_556 S
C556 C555 1.355 1_655 S
C556 C558 1.419 . S
C557 C552 1.425 1_455 S
C557 C554 1.409 . S
C557 C555 1.415 1_554 S
C558 H548 0.930 . S
C558 C556 1.419 . S
C558 C559 1.362 1_556 S
C559 H549 0.930 . S
C559 C552 1.409 . S
C559 C558 1.362 1_554 S
H560 C566 0.930 . S
H561 C569 0.930 . S
H562 C570 0.931 1_655 S
H563 C571 0.930 1_655 S
H564 C574 0.930 . S
H565 C575 0.930 . S
C566 H560 0.930 . S
C566 C567 1.355 . S
C566 C568 1.415 . S
C567 C566 1.355 . S
C567 C569 1.419 . S
C568 C566 1.415 . S
C568 C573 1.425 . S
C568 C575 1.409 . S
C569 H561 0.930 . S
C569 C567 1.419 . S
C569 C570 1.362 . S
C570 H562 0.931 1_455 S
C570 C569 1.362 . S
C570 C573 1.409 . S
C571 H563 0.930 1_455 S
C571 C572 1.355 . S
C571 C573 1.415 . S
C572 C571 1.355 . S
C572 C574 1.419 . S
C573 C568 1.425 . S
C573 C570 1.409 . S
C573 C571 1.415 . S
C574 H564 0.930 . S
C574 C572 1.419 . S
C574 C575 1.362 . S
C575 H565 0.930 . S
C575 C568 1.409 . S
C575 C574 1.362 . S
H576 C582 0.930 . S
H577 C585 0.930 . S
H578 C586 0.930 1_565 S
H579 C587 0.931 . S
H580 C590 0.930 . S
H581 C591 0.930 . S
C582 H576 0.930 . S
C582 C583 1.355 . S
C582 C584 1.415 . S
C583 C582 1.355 . S
C583 C585 1.419 . S
C584 C582 1.415 . S
C584 C589 1.425 . S
C584 C591 1.409 . S
C585 H577 0.930 . S
C585 C583 1.419 . S
C585 C586 1.362 . S
C586 H578 0.930 1_545 S
C586 C585 1.362 . S
C586 C589 1.409 . S
C587 H579 0.931 . S
C587 C588 1.354 1_565 S
C587 C589 1.414 1_565 S
C588 C587 1.354 1_545 S
C588 C590 1.419 . S
C589 C584 1.425 . S
C589 C586 1.409 . S
C589 C587 1.414 1_545 S
C590 H580 0.930 . S
C590 C588 1.419 . S
C590 C591 1.362 . S
C591 H581 0.930 . S
C591 C584 1.409 . S
C591 C590 1.362 . S
H592 C598 0.930 . S
H593 C601 0.930 . S
H594 C602 0.930 . S
H595 C603 0.930 . S
H596 C606 0.930 . S
H597 C607 0.930 . S
C598 H592 0.930 . S
C598 C599 1.355 . S
C598 C600 1.415 . S
C599 C598 1.355 . S
C599 C601 1.419 . S
C600 C598 1.415 . S
C600 C605 1.425 . S
C600 C607 1.409 . S
C601 H593 0.930 . S
C601 C599 1.419 . S
C601 C602 1.362 . S
C602 H594 0.930 . S
C602 C601 1.362 . S
C602 C605 1.409 . S
C603 H595 0.930 . S
C603 C604 1.355 . S
C603 C605 1.415 . S
C604 C603 1.355 . S
C604 C606 1.419 . S
C605 C600 1.425 . S
C605 C602 1.409 . S
C605 C603 1.415 . S
C606 H596 0.930 . S
C606 C604 1.419 . S
C606 C607 1.362 . S
C607 H597 0.930 . S
C607 C600 1.409 . S
C607 C606 1.362 . S
H608 C614 0.930 . S
H609 C617 0.930 . S
H610 C618 0.930 . S
H611 C619 0.930 . S
H612 C622 0.930 . S
H613 C623 0.930 . S
C614 H608 0.930 . S
C614 C615 1.355 . S
C614 C616 1.415 . S
C615 C614 1.355 . S
C615 C617 1.419 . S
C616 C614 1.415 . S
C616 C621 1.425 . S
C616 C623 1.409 . S
C617 H609 0.930 . S
C617 C615 1.419 . S
C617 C618 1.362 . S
C618 H610 0.930 . S
C618 C617 1.362 . S
C618 C621 1.409 . S
C619 H611 0.930 . S
C619 C620 1.355 . S
C619 C621 1.415 . S
C620 C619 1.355 . S
C620 C622 1.419 . S
C621 C616 1.425 . S
C621 C618 1.409 . S
C621 C619 1.415 . S
C622 H612 0.930 . S
C622 C620 1.419 . S
C622 C623 1.362 . S
C623 H613 0.930 . S
C623 C616 1.409 . S
C623 C622 1.362 . S
H624 C630 0.930 . S
H625 C633 0.930 . S
H626 C634 0.930 . S
H627 C635 0.930 . S
H628 C638 0.930 1_556 S
H629 C639 0.930 . S
C630 H624 0.930 . S
C630 C631 1.355 . S
C630 C632 1.415 . S
C631 C630 1.355 . S
C631 C633 1.419 1_655 S
C632 C630 1.415 . S
C632 C637 1.425 1_655 S
C632 C639 1.409 . S
C633 H625 0.930 . S
C633 C631 1.419 1_455 S
C633 C634 1.362 . S
C634 H626 0.930 . S
C634 C633 1.362 . S
C634 C637 1.409 . S
C635 H627 0.930 . S
C635 C636 1.355 . S
C635 C637 1.415 . S
C636 C635 1.355 . S
C636 C638 1.419 1_455 S
C637 C632 1.425 1_455 S
C637 C634 1.409 . S
C637 C635 1.415 . S
C638 H628 0.930 1_554 S
C638 C636 1.419 1_655 S
C638 C639 1.362 . S
C639 H629 0.930 . S
C639 C632 1.409 . S
C639 C638 1.362 . S
H640 C646 0.930 . S
H641 C649 0.930 . S
H642 C650 0.930 . S
H643 C651 0.930 . S
H644 C654 0.930 1_556 S
H645 C655 0.930 . S
C646 H640 0.930 . S
C646 C647 1.355 . S
C646 C648 1.415 . S
C647 C646 1.355 . S
C647 C649 1.419 . S
C648 C646 1.415 . S
C648 C653 1.425 1_565 S
C648 C655 1.409 . S
C649 H641 0.930 . S
C649 C647 1.419 . S
C649 C650 1.362 1_565 S
C650 H642 0.930 . S
C650 C649 1.362 1_545 S
C650 C653 1.409 . S
C651 H643 0.930 . S
C651 C652 1.355 . S
C651 C653 1.415 . S
C652 C651 1.355 . S
C652 C654 1.419 . S
C653 C648 1.425 1_545 S
C653 C650 1.409 . S
C653 C651 1.415 . S
C654 H644 0.930 1_554 S
C654 C652 1.419 . S
C654 C655 1.362 1_545 S
C655 H645 0.930 . S
C655 C648 1.409 . S
C655 C654 1.362 1_565 S
H656 C662 0.930 . S
H657 C665 0.930 . S
H658 C666 0.930 . S
H659 C667 0.930 . S
H660 C670 0.930 . S
H661 C671 0.930 . S
C662 H656 0.930 . S
C662 C663 1.355 . S
C662 C664 1.415 . S
C663 C662 1.355 . S
C663 C665 1.419 . S
C664 C662 1.415 . S
C664 C669 1.425 . S
C664 C671 1.409 . S
C665 H657 0.930 . S
C665 C663 1.419 . S
C665 C666 1.362 . S
C666 H658 0.930 . S
C666 C665 1.362 . S
C666 C669 1.409 . S
C667 H659 0.930 . S
C667 C668 1.355 . S
C667 C669 1.415 . S
C668 C667 1.355 . S
C668 C670 1.419 . S
C669 C664 1.425 . S
C669 C666 1.409 . S
C669 C667 1.415 . S
C670 H660 0.930 . S
C670 C668 1.419 . S
C670 C671 1.362 . S
C671 H661 0.930 . S
C671 C664 1.409 . S
C671 C670 1.362 . S
H672 C678 0.930 . S
H673 C681 0.930 . S
H674 C682 0.930 . S
H675 C683 0.930 . S
H676 C686 0.930 . S
H677 C687 0.930 . S
C678 H672 0.930 . S
C678 C679 1.355 . S
C678 C680 1.415 . S
C679 C678 1.355 . S
C679 C681 1.419 . S
C680 C678 1.415 . S
C680 C685 1.425 . S
C680 C687 1.409 . S
C681 H673 0.930 . S
C681 C679 1.419 . S
C681 C682 1.362 . S
C682 H674 0.930 . S
C682 C681 1.362 . S
C682 C685 1.409 . S
C683 H675 0.930 . S
C683 C684 1.355 . S
C683 C685 1.415 . S
C684 C683 1.355 . S
C684 C686 1.419 . S
C685 C680 1.425 . S
C685 C682 1.409 . S
C685 C683 1.415 . S
C686 H676 0.930 . S
C686 C684 1.419 . S
C686 C687 1.362 . S
C687 H677 0.930 . S
C687 C680 1.409 . S
C687 C686 1.362 . S
H688 C694 0.930 . S
H689 C697 0.930 1_554 S
H690 C698 0.930 1_554 S
H691 C699 0.930 . S
H692 C702 0.930 . S
H693 C703 0.930 . S
C694 H688 0.930 . S
C694 C695 1.355 . S
C694 C696 1.415 . S
C695 C694 1.355 . S
C695 C697 1.419 . S
C696 C694 1.415 . S
C696 C701 1.425 . S
C696 C703 1.409 . S
C697 H689 0.930 1_556 S
C697 C695 1.419 . S
C697 C698 1.362 . S
C698 H690 0.930 1_556 S
C698 C697 1.362 . S
C698 C701 1.409 . S
C699 H691 0.930 . S
C699 C700 1.355 . S
C699 C701 1.415 . S
C700 C699 1.355 . S
C700 C702 1.419 . S
C701 C696 1.425 . S
C701 C698 1.409 . S
C701 C699 1.415 . S
C702 H692 0.930 . S
C702 C700 1.419 . S
C702 C703 1.362 . S
C703 H693 0.930 . S
C703 C696 1.409 . S
C703 C702 1.362 . S
H704 C710 0.930 . S
H705 C713 0.930 1_554 S
H706 C714 0.930 1_554 S
H707 C715 0.930 . S
H708 C718 0.930 . S
H709 C719 0.930 . S
C710 H704 0.930 . S
C710 C711 1.355 . S
C710 C712 1.415 . S
C711 C710 1.355 . S
C711 C713 1.419 . S
C712 C710 1.415 . S
C712 C717 1.425 . S
C712 C719 1.409 . S
C713 H705 0.930 1_556 S
C713 C711 1.419 . S
C713 C714 1.362 . S
C714 H706 0.930 1_556 S
C714 C713 1.362 . S
C714 C717 1.409 . S
C715 H707 0.930 . S
C715 C716 1.355 . S
C715 C717 1.415 . S
C716 C715 1.355 . S
C716 C718 1.419 . S
C717 C712 1.425 . S
C717 C714 1.409 . S
C717 C715 1.415 . S
C718 H708 0.930 . S
C718 C716 1.419 . S
C718 C719 1.362 . S
C719 H709 0.930 . S
C719 C712 1.409 . S
C719 C718 1.362 . S
H720 C726 0.930 . S
H721 C729 0.930 . S
H722 C730 0.930 . S
H723 C731 0.930 . S
H724 C734 0.930 . S
H725 C735 0.930 . S
C726 H720 0.930 . S
C726 C727 1.355 . S
C726 C728 1.415 . S
C727 C726 1.355 . S
C727 C729 1.419 . S
C728 C726 1.415 . S
C728 C733 1.425 . S
C728 C735 1.409 . S
C729 H721 0.930 . S
C729 C727 1.419 . S
C729 C730 1.362 . S
C730 H722 0.930 . S
C730 C729 1.362 . S
C730 C733 1.409 . S
C731 H723 0.930 . S
C731 C732 1.355 . S
C731 C733 1.415 . S
C732 C731 1.355 . S
C732 C734 1.419 . S
C733 C728 1.425 . S
C733 C730 1.409 . S
C733 C731 1.415 . S
C734 H724 0.930 . S
C734 C732 1.419 . S
C734 C735 1.362 . S
C735 H725 0.930 . S
C735 C728 1.409 . S
C735 C734 1.362 . S
H736 C742 0.930 . S
H737 C745 0.930 1_554 S
H738 C746 0.930 1_554 S
H739 C747 0.930 . S
H740 C750 0.930 . S
H741 C751 0.930 . S
C742 H736 0.930 . S
C742 C743 1.355 . S
C742 C744 1.415 . S
C743 C742 1.355 . S
C743 C745 1.419 . S
C744 C742 1.415 . S
C744 C749 1.425 . S
C744 C751 1.409 . S
C745 H737 0.930 1_556 S
C745 C743 1.419 . S
C745 C746 1.362 . S
C746 H738 0.930 1_556 S
C746 C745 1.362 . S
C746 C749 1.409 . S
C747 H739 0.930 . S
C747 C748 1.355 . S
C747 C749 1.415 . S
C748 C747 1.355 . S
C748 C750 1.419 . S
C749 C744 1.425 . S
C749 C746 1.409 . S
C749 C747 1.415 . S
C750 H740 0.930 . S
C750 C748 1.419 . S
C750 C751 1.362 . S
C751 H741 0.930 . S
C751 C744 1.409 . S
C751 C750 1.362 . S
H752 C758 0.930 . S
H753 C761 0.930 . S
H754 C762 0.930 . S
H755 C763 0.930 . S
H756 C766 0.930 . S
H757 C767 0.930 . S
C758 H752 0.930 . S
C758 C759 1.355 1_455 S
C758 C760 1.416 . S
C759 C758 1.355 1_655 S
C759 C761 1.419 . S
C760 C758 1.416 . S
C760 C765 1.410 1_455 S
C760 C767 1.422 . S
C761 H753 0.930 . S
C761 C759 1.419 . S
C761 C762 1.362 . S
C762 H754 0.930 . S
C762 C761 1.362 . S
C762 C765 1.409 . S
C763 H755 0.930 . S
C763 C764 1.355 . S
C763 C765 1.415 . S
C764 C763 1.355 . S
C764 C766 1.419 1_655 S
C765 C760 1.410 1_655 S
C765 C762 1.409 . S
C765 C763 1.415 . S
C766 H756 0.930 . S
C766 C764 1.419 1_455 S
C766 C767 1.362 . S
C767 H757 0.930 . S
C767 C760 1.422 . S
C767 C766 1.362 . S
H768 C774 0.921 1_545 S
H769 C777 0.930 . S
H770 C778 0.930 . S
H771 C779 0.930 . S
H772 C782 0.930 . S
H773 C783 0.930 . S
C774 H768 0.921 1_565 S
C774 C775 1.355 . S
C774 C776 1.415 . S
C775 C774 1.355 . S
C775 C777 1.419 . S
C776 C774 1.415 . S
C776 C781 1.425 . S
C776 C783 1.409 1_565 S
C777 H769 0.930 . S
C777 C775 1.419 . S
C777 C778 1.362 . S
C778 H770 0.930 . S
C778 C777 1.362 . S
C778 C781 1.409 . S
C779 H771 0.930 . S
C779 C780 1.355 . S
C779 C781 1.415 . S
C780 C779 1.355 . S
C780 C782 1.419 1_565 S
C781 C776 1.425 . S
C781 C778 1.409 . S
C781 C779 1.415 . S
C782 H772 0.930 . S
C782 C780 1.419 1_545 S
C782 C783 1.362 . S
C783 H773 0.930 . S
C783 C776 1.409 1_545 S
C783 C782 1.362 . S
H784 C790 0.930 . S
H785 C793 0.930 . S
H786 C794 0.930 . S
H787 C795 0.930 . S
H788 C798 0.930 . S
H789 C799 0.930 . S
C790 H784 0.930 . S
C790 C791 1.355 . S
C790 C792 1.415 . S
C791 C790 1.355 . S
C791 C793 1.419 . S
C792 C790 1.415 . S
C792 C797 1.425 . S
C792 C799 1.409 . S
C793 H785 0.930 . S
C793 C791 1.419 . S
C793 C794 1.362 . S
C794 H786 0.930 . S
C794 C793 1.362 . S
C794 C797 1.409 . S
C795 H787 0.930 . S
C795 C796 1.355 . S
C795 C797 1.415 . S
C796 C795 1.355 . S
C796 C798 1.419 . S
C797 C792 1.425 . S
C797 C794 1.409 . S
C797 C795 1.415 . S
C798 H788 0.930 . S
C798 C796 1.419 . S
C798 C799 1.362 . S
C799 H789 0.930 . S
C799 C792 1.409 . S
C799 C798 1.362 . S
H800 C806 0.930 . S
H801 C809 0.930 . S
H802 C810 0.930 . S
H803 C811 0.930 . S
H804 C814 0.930 . S
H805 C815 0.930 . S
C806 H800 0.930 . S
C806 C807 1.355 . S
C806 C808 1.415 . S
C807 C806 1.355 . S
C807 C809 1.419 . S
C808 C806 1.415 . S
C808 C813 1.425 . S
C808 C815 1.409 . S
C809 H801 0.930 . S
C809 C807 1.419 . S
C809 C810 1.362 . S
C810 H802 0.930 . S
C810 C809 1.362 . S
C810 C813 1.409 . S
C811 H803 0.930 . S
C811 C812 1.355 . S
C811 C813 1.415 . S
C812 C811 1.355 . S
C812 C814 1.419 . S
C813 C808 1.425 . S
C813 C810 1.409 . S
C813 C811 1.415 . S
C814 H804 0.930 . S
C814 C812 1.419 . S
C814 C815 1.362 . S
C815 H805 0.930 . S
C815 C808 1.409 . S
C815 C814 1.362 . S
C439 C76 1.927 . S
C444 C164 2.097 . S
C460 C247 2.081 . S
C455 C88 1.867 . S
C476 C332 2.059 . S
C471 C52 1.897 . S
C492 C416 2.076 . S
C487 C64 1.930 . S
C508 C152 2.087 1_565 S
C503 C28 1.949 . S
C519 C40 1.943 . S
C524 C235 2.107 . S
C535 C4 1.923 . S
C540 C320 2.093 . S
C551 C16 1.869 . S
C556 C404 2.069 1_655 S
C572 C154 0.740 1_455 S
C567 C69 0.665 . S
C588 C250 0.609 . S
C583 C81 0.622 . S
C604 C322 0.673 . S
C599 C93 0.717 . S
C615 C57 0.668 . S
C620 C406 0.561 . S
C631 C21 0.586 . S
C636 C166 0.720 . S
C652 C238 0.729 . S
C647 C33 0.554 . S
C668 C334 0.591 . S
C663 C45 0.714 . S
C679 C9 0.675 . S
C684 C418 0.556 . S
C695 C66 1.931 . S
C700 C151 2.170 . S
C711 C78 1.943 . S
C716 C236 2.216 . S
C732 C319 2.215 . S
C727 C90 2.023 . S
C748 C403 2.192 . S
C743 C54 1.953 . S
C759 C18 1.965 . S
C764 C163 2.182 . S
C780 C248 2.206 1_565 S
C775 C30 1.941 . S
C796 C331 2.190 . S
C791 C42 1.951 . S
C807 C6 2.021 . S
C812 C415 2.220 . S
