# Generated by pormake.
# Topology eea, (3,6)-cn, num edge types: 1
# Building blocks:
#     Node 0, Type 0, BuildingBlock: KAKCAD_clean_linker_0, # of connection points: 3
#     Node 1, Type 0, BuildingBlock: KAKCAD_clean_linker_0, # of connection points: 3
#     Node 2, Type 0, BuildingBlock: KAKCAD_clean_linker_0, # of connection points: 3
#     Node 3, Type 0, BuildingBlock: KAKCAD_clean_linker_0, # of connection points: 3
#     Node 4, Type 0, BuildingBlock: KAKCAD_clean_linker_0, # of connection points: 3
#     Node 5, Type 0, BuildingBlock: KAKCAD_clean_linker_0, # of connection points: 3
#     Node 6, Type 0, BuildingBlock: KAKCAD_clean_linker_0, # of connection points: 3
#     Node 7, Type 0, BuildingBlock: KAKCAD_clean_linker_0, # of connection points: 3
#     Node 8, Type 0, BuildingBlock: KAKCAD_clean_linker_0, # of connection points: 3
#     Node 9, Type 0, BuildingBlock: KAKCAD_clean_linker_0, # of connection points: 3
#     Node 10, Type 0, BuildingBlock: KAKCAD_clean_linker_0, # of connection points: 3
#     Node 11, Type 0, BuildingBlock: KAKCAD_clean_linker_0, # of connection points: 3
#     Node 12, Type 0, BuildingBlock: KAKCAD_clean_linker_0, # of connection points: 3
#     Node 13, Type 0, BuildingBlock: KAKCAD_clean_linker_0, # of connection points: 3
#     Node 14, Type 0, BuildingBlock: KAKCAD_clean_linker_0, # of connection points: 3
#     Node 15, Type 0, BuildingBlock: KAKCAD_clean_linker_0, # of connection points: 3
#     Node 16, Type 0, BuildingBlock: KAKCAD_clean_linker_0, # of connection points: 3
#     Node 17, Type 0, BuildingBlock: KAKCAD_clean_linker_0, # of connection points: 3
#     Node 18, Type 1, BuildingBlock: KUMJIN_clean_sbu_0, # of connection points: 6
#     Node 19, Type 1, BuildingBlock: KUMJIN_clean_sbu_0, # of connection points: 6
#     Node 20, Type 1, BuildingBlock: KUMJIN_clean_sbu_0, # of connection points: 6
#     Node 21, Type 1, BuildingBlock: KUMJIN_clean_sbu_0, # of connection points: 6
#     Node 22, Type 1, BuildingBlock: KUMJIN_clean_sbu_0, # of connection points: 6
#     Node 23, Type 1, BuildingBlock: KUMJIN_clean_sbu_0, # of connection points: 6
#     Node 24, Type 1, BuildingBlock: KUMJIN_clean_sbu_0, # of connection points: 6
#     Node 25, Type 1, BuildingBlock: KUMJIN_clean_sbu_0, # of connection points: 6
#     Node 26, Type 1, BuildingBlock: KUMJIN_clean_sbu_0, # of connection points: 6
#     Edge 27, Type (0, 1), BuildingBlock: AJUNOK_clean_linker_0, # of connection points: 2
#     Edge 28, Type (0, 1), BuildingBlock: AJUNOK_clean_linker_0, # of connection points: 2
#     Edge 29, Type (0, 1), BuildingBlock: AJUNOK_clean_linker_0, # of connection points: 2
#     Edge 30, Type (0, 1), BuildingBlock: AJUNOK_clean_linker_0, # of connection points: 2
#     Edge 31, Type (0, 1), BuildingBlock: AJUNOK_clean_linker_0, # of connection points: 2
#     Edge 32, Type (0, 1), BuildingBlock: AJUNOK_clean_linker_0, # of connection points: 2
#     Edge 33, Type (0, 1), BuildingBlock: AJUNOK_clean_linker_0, # of connection points: 2
#     Edge 34, Type (0, 1), BuildingBlock: AJUNOK_clean_linker_0, # of connection points: 2
#     Edge 35, Type (0, 1), BuildingBlock: AJUNOK_clean_linker_0, # of connection points: 2
#     Edge 36, Type (0, 1), BuildingBlock: AJUNOK_clean_linker_0, # of connection points: 2
#     Edge 37, Type (0, 1), BuildingBlock: AJUNOK_clean_linker_0, # of connection points: 2
#     Edge 38, Type (0, 1), BuildingBlock: AJUNOK_clean_linker_0, # of connection points: 2
#     Edge 39, Type (0, 1), BuildingBlock: AJUNOK_clean_linker_0, # of connection points: 2
#     Edge 40, Type (0, 1), BuildingBlock: AJUNOK_clean_linker_0, # of connection points: 2
#     Edge 41, Type (0, 1), BuildingBlock: AJUNOK_clean_linker_0, # of connection points: 2
#     Edge 42, Type (0, 1), BuildingBlock: AJUNOK_clean_linker_0, # of connection points: 2
#     Edge 43, Type (0, 1), BuildingBlock: AJUNOK_clean_linker_0, # of connection points: 2
#     Edge 44, Type (0, 1), BuildingBlock: AJUNOK_clean_linker_0, # of connection points: 2
#     Edge 45, Type (0, 1), BuildingBlock: AJUNOK_clean_linker_0, # of connection points: 2
#     Edge 46, Type (0, 1), BuildingBlock: AJUNOK_clean_linker_0, # of connection points: 2
#     Edge 47, Type (0, 1), BuildingBlock: AJUNOK_clean_linker_0, # of connection points: 2
#     Edge 48, Type (0, 1), BuildingBlock: AJUNOK_clean_linker_0, # of connection points: 2
#     Edge 49, Type (0, 1), BuildingBlock: AJUNOK_clean_linker_0, # of connection points: 2
#     Edge 50, Type (0, 1), BuildingBlock: AJUNOK_clean_linker_0, # of connection points: 2
#     Edge 51, Type (0, 1), BuildingBlock: AJUNOK_clean_linker_0, # of connection points: 2
#     Edge 52, Type (0, 1), BuildingBlock: AJUNOK_clean_linker_0, # of connection points: 2
#     Edge 53, Type (0, 1), BuildingBlock: AJUNOK_clean_linker_0, # of connection points: 2
#     Edge 54, Type (0, 1), BuildingBlock: AJUNOK_clean_linker_0, # of connection points: 2
#     Edge 55, Type (0, 1), BuildingBlock: AJUNOK_clean_linker_0, # of connection points: 2
#     Edge 56, Type (0, 1), BuildingBlock: AJUNOK_clean_linker_0, # of connection points: 2
#     Edge 57, Type (0, 1), BuildingBlock: AJUNOK_clean_linker_0, # of connection points: 2
#     Edge 58, Type (0, 1), BuildingBlock: AJUNOK_clean_linker_0, # of connection points: 2
#     Edge 59, Type (0, 1), BuildingBlock: AJUNOK_clean_linker_0, # of connection points: 2
#     Edge 60, Type (0, 1), BuildingBlock: AJUNOK_clean_linker_0, # of connection points: 2
#     Edge 61, Type (0, 1), BuildingBlock: AJUNOK_clean_linker_0, # of connection points: 2
#     Edge 62, Type (0, 1), BuildingBlock: AJUNOK_clean_linker_0, # of connection points: 2
#     Edge 63, Type (0, 1), BuildingBlock: AJUNOK_clean_linker_0, # of connection points: 2
#     Edge 64, Type (0, 1), BuildingBlock: AJUNOK_clean_linker_0, # of connection points: 2
#     Edge 65, Type (0, 1), BuildingBlock: AJUNOK_clean_linker_0, # of connection points: 2
#     Edge 66, Type (0, 1), BuildingBlock: AJUNOK_clean_linker_0, # of connection points: 2
#     Edge 67, Type (0, 1), BuildingBlock: AJUNOK_clean_linker_0, # of connection points: 2
#     Edge 68, Type (0, 1), BuildingBlock: AJUNOK_clean_linker_0, # of connection points: 2
#     Edge 69, Type (0, 1), BuildingBlock: AJUNOK_clean_linker_0, # of connection points: 2
#     Edge 70, Type (0, 1), BuildingBlock: AJUNOK_clean_linker_0, # of connection points: 2
#     Edge 71, Type (0, 1), BuildingBlock: AJUNOK_clean_linker_0, # of connection points: 2
#     Edge 72, Type (0, 1), BuildingBlock: AJUNOK_clean_linker_0, # of connection points: 2
#     Edge 73, Type (0, 1), BuildingBlock: AJUNOK_clean_linker_0, # of connection points: 2
#     Edge 74, Type (0, 1), BuildingBlock: AJUNOK_clean_linker_0, # of connection points: 2
#     Edge 75, Type (0, 1), BuildingBlock: AJUNOK_clean_linker_0, # of connection points: 2
#     Edge 76, Type (0, 1), BuildingBlock: AJUNOK_clean_linker_0, # of connection points: 2
#     Edge 77, Type (0, 1), BuildingBlock: AJUNOK_clean_linker_0, # of connection points: 2
#     Edge 78, Type (0, 1), BuildingBlock: AJUNOK_clean_linker_0, # of connection points: 2
#     Edge 79, Type (0, 1), BuildingBlock: AJUNOK_clean_linker_0, # of connection points: 2
#     Edge 80, Type (0, 1), BuildingBlock: AJUNOK_clean_linker_0, # of connection points: 2
# Relax obj value: 0.008
# Max RMSD: 0.089
# Mean RMSD: 0.072
data_MOF--net-eea--node1-KUMJIN_clean_sbu_0--node2-KAKCAD_clean_linker_0--edge1-AJUNOK_clean_linker_0
_symmetry_space_group_name_H-M    P1
_symmetry_Int_Tables_number       1
_symmetry_cell_setting            triclinic
loop_
_symmetry_equiv_pos_as_xyz
'x, y, z'
_cell_length_a     48.662164
_cell_length_b     49.920222
_cell_length_c     71.642683
_cell_angle_alpha  90.089562
_cell_angle_beta   89.878227
_cell_angle_gamma 120.0205
loop_
_atom_site_label
_atom_site_type_symbol
_atom_site_fract_x
_atom_site_fract_y
_atom_site_fract_z
_atom_type_partial_charge
C0 C 0.30612 0.17508 0.49256 0.0
C1 C 0.32094 0.15922 0.49969 0.0
C2 C 0.29267 0.16851 0.47469 0.0
C3 C 0.29461 0.14665 0.46312 0.0
C4 C 0.31035 0.13154 0.4701 0.0
C5 C 0.32289 0.13741 0.48816 0.0
C6 C 0.28026 0.13947 0.44396 0.0
C7 C 0.27801 0.16202 0.43333 0.0
C8 C 0.26368 0.15504 0.41557 0.0
C9 C 0.25356 0.1256 0.40788 0.0
C10 C 0.25605 0.10277 0.41802 0.0
C11 C 0.26842 0.10975 0.43625 0.0
C12 C 0.2459 0.07167 0.40968 0.0
C13 C 0.22048 0.05781 0.39696 0.0
C14 C 0.26183 0.05556 0.41432 0.0
C15 C 0.25252 0.02651 0.40666 0.0
C16 C 0.22772 0.01309 0.39359 0.0
C17 C 0.2575 0.1778 0.40559 0.0
C18 C 0.2481 0.19604 0.41572 0.0
C19 C 0.2589 0.18021 0.38596 0.0
C20 C 0.25 0.19946 0.37674 0.0
C21 C 0.23981 0.21699 0.38694 0.0
C22 C 0.23956 0.21544 0.40654 0.0
C23 C 0.21172 0.02907 0.38891 0.0
H24 H 0.30511 0.19287 0.50066 0.0
H25 H 0.28055 0.18051 0.47011 0.0
H26 H 0.3133 0.11519 0.46162 0.0
H27 H 0.33409 0.12469 0.49309 0.0
H28 H 0.28757 0.18522 0.43878 0.0
H29 H 0.26824 0.09165 0.44462 0.0
H30 H 0.24332 0.12035 0.39405 0.0
H31 H 0.20704 0.06894 0.39327 0.0
H32 H 0.2818 0.06542 0.4238 0.0
H33 H 0.26472 0.01451 0.41114 0.0
H34 H 0.24622 0.19461 0.43079 0.0
H35 H 0.26645 0.1669 0.37766 0.0
H36 H 0.19246 0.01945 0.37891 0.0
H37 H 0.23215 0.22888 0.41484 0.0
H38 H 0.25015 0.19985 0.36163 0.0
C39 C 0.88062 0.17147 0.4928 0.0
C40 C 0.86419 0.14658 0.50524 0.0
C41 C 0.88832 0.16655 0.47472 0.0
C42 C 0.88002 0.13661 0.46861 0.0
C43 C 0.86442 0.11191 0.4813 0.0
C44 C 0.85622 0.11675 0.49919 0.0
C45 C 0.88617 0.13073 0.44894 0.0
C46 C 0.91341 0.15242 0.43905 0.0
C47 C 0.91879 0.14677 0.42045 0.0
C48 C 0.8965 0.11898 0.41178 0.0
C49 C 0.86947 0.097 0.42146 0.0
C50 C 0.86439 0.10316 0.43986 0.0
C51 C 0.84653 0.06721 0.41257 0.0
C52 C 0.83321 0.06654 0.39506 0.0
C53 C 0.83743 0.03916 0.4218 0.0
C54 C 0.81551 0.01099 0.41369 0.0
C55 C 0.80181 0.01033 0.39636 0.0
C56 C 0.94776 0.16971 0.41011 0.0
C57 C 0.95859 0.20157 0.41143 0.0
C58 C 0.96483 0.15995 0.3988 0.0
C59 C 0.99214 0.1815 0.3892 0.0
C60 C 1.00285 0.21331 0.39052 0.0
C61 C 0.98578 0.22309 0.40177 0.0
C62 C 0.8108 0.03831 0.38709 0.0
H63 H 0.88721 0.19479 0.49697 0.0
H64 H 0.89999 0.18616 0.46539 0.0
H65 H 0.85812 0.08858 0.47738 0.0
H66 H 0.84279 0.09682 0.50807 0.0
H67 H 0.93089 0.17336 0.44597 0.0
H68 H 0.84284 0.0865 0.44692 0.0
H69 H 0.90021 0.1143 0.3975 0.0
H70 H 0.83975 0.08786 0.38771 0.0
H71 H 0.8475 0.03905 0.43525 0.0
H72 H 0.80894 0.98966 0.42105 0.0
H73 H 0.94594 0.20992 0.41988 0.0
H74 H 0.95742 0.13562 0.39763 0.0
H75 H 0.80069 0.03829 0.37363 0.0
H76 H 0.99382 0.24749 0.4034 0.0
H77 H 1.00492 0.17332 0.38074 0.0
C78 C 0.89443 0.74076 0.49595 0.0
C79 C 0.86295 0.72368 0.50249 0.0
C80 C 0.90127 0.75425 0.47812 0.0
C81 C 0.87679 0.75028 0.46589 0.0
C82 C 0.84528 0.73287 0.47244 0.0
C83 C 0.83855 0.72022 0.49045 0.0
C84 C 0.88386 0.7635 0.44637 0.0
C85 C 0.91106 0.76793 0.43655 0.0
C86 C 0.91712 0.77912 0.41806 0.0
C87 C 0.89509 0.78514 0.40907 0.0
C88 C 0.868 0.78133 0.41853 0.0
C89 C 0.86296 0.77108 0.4372 0.0
C90 C 0.84451 0.78748 0.40888 0.0
C91 C 0.83226 0.80443 0.4178 0.0
C92 C 0.83327 0.77548 0.39094 0.0
C93 C 0.80961 0.77944 0.38242 0.0
C94 C 0.79693 0.7958 0.39155 0.0
C95 C 0.94659 0.78461 0.40818 0.0
C96 C 0.97627 0.80066 0.4171 0.0
C97 C 0.94537 0.77391 0.38984 0.0
C98 C 0.97304 0.77845 0.38083 0.0
C99 C 1.0026 0.79424 0.38986 0.0
C100 C 1.00397 0.80563 0.40799 0.0
C101 C 0.80892 0.80872 0.40917 0.0
H102 H 0.91398 0.74325 0.50439 0.0
H103 H 0.92591 0.76775 0.47401 0.0
H104 H 0.82542 0.72829 0.46359 0.0
H105 H 0.81398 0.70742 0.49486 0.0
H106 H 0.92729 0.76184 0.44298 0.0
H107 H 0.84233 0.7687 0.44444 0.0
H108 H 0.8995 0.79367 0.39485 0.0
H109 H 0.84063 0.81425 0.43152 0.0
H110 H 0.84211 0.76223 0.38372 0.0
H111 H 0.80097 0.76946 0.36876 0.0
H112 H 0.97809 0.80948 0.43113 0.0
H113 H 0.92289 0.76141 0.3826 0.0
H114 H 0.79954 0.8214 0.41653 0.0
H115 H 0.02641 0.81773 0.4153 0.0
H116 H 0.97134 0.76949 0.36684 0.0
C117 C 0.15724 0.25868 0.53867 0.0
C118 C 0.14925 0.28084 0.53297 0.0
C119 C 0.14923 0.24562 0.55656 0.0
C120 C 0.13343 0.25473 0.56939 0.0
C121 C 0.12518 0.27674 0.56352 0.0
C122 C 0.13288 0.28952 0.54554 0.0
C123 C 0.12671 0.24233 0.58898 0.0
C124 C 0.14835 0.23625 0.59842 0.0
C125 C 0.14315 0.22589 0.61703 0.0
C126 C 0.11603 0.22215 0.62649 0.0
C127 C 0.09362 0.22767 0.61737 0.0
C128 C 0.09916 0.23733 0.59851 0.0
C129 C 0.06463 0.22376 0.62741 0.0
C130 C 0.0491 0.20082 0.6412 0.0
C131 C 0.0519 0.24289 0.62309 0.0
C132 C 0.02441 0.2389 0.6319 0.0
C133 C 0.00908 0.21624 0.64579 0.0
C134 C 0.16656 0.2194 0.62645 0.0
C135 C 0.17775 0.20174 0.61731 0.0
C136 C 0.17894 0.23181 0.64414 0.0
C137 C 0.20282 0.22759 0.65216 0.0
C138 C 0.21446 0.21052 0.64277 0.0
C139 C 0.20123 0.19717 0.62544 0.0
C140 C 0.02179 0.19719 0.65028 0.0
H141 H 0.16975 0.25145 0.52924 0.0
H142 H 0.1555 0.22836 0.56031 0.0
H143 H 0.11358 0.28489 0.573 0.0
H144 H 0.1269 0.30695 0.54168 0.0
H145 H 0.16998 0.2405 0.5915 0.0
H146 H 0.0817 0.24053 0.59106 0.0
H147 H 0.11252 0.21496 0.64096 0.0
H148 H 0.05766 0.18524 0.64481 0.0
H149 H 0.06316 0.26117 0.61285 0.0
H150 H 0.01491 0.25339 0.62753 0.0
H151 H 0.1685 0.19164 0.60376 0.0
H152 H 0.17088 0.24559 0.6515 0.0
H153 H 0.01061 0.17941 0.66084 0.0
H154 H 0.20979 0.18396 0.61788 0.0
H155 H 0.21243 0.23792 0.66562 0.0
C156 C 0.69654 0.83217 0.54236 0.0
C157 C 0.70501 0.85646 0.52965 0.0
C158 C 0.71012 0.83805 0.56016 0.0
C159 C 0.73265 0.86836 0.56562 0.0
C160 C 0.74172 0.89249 0.55261 0.0
C161 C 0.72788 0.88662 0.53489 0.0
C162 C 0.74511 0.8749 0.58512 0.0
C163 C 0.75159 0.85406 0.59474 0.0
C164 C 0.76059 0.85851 0.61378 0.0
C165 C 0.76329 0.8849 0.62281 0.0
C166 C 0.75945 0.90708 0.61302 0.0
C167 C 0.74991 0.90176 0.59433 0.0
C168 C 0.76731 0.93673 0.62212 0.0
C169 C 0.75399 0.93719 0.63946 0.0
C170 C 0.78977 0.96481 0.6139 0.0
C171 C 0.79923 0.99285 0.62302 0.0
C172 C 0.78602 0.99329 0.64036 0.0
C173 C 0.76822 0.83654 0.62399 0.0
C174 C 0.75826 0.8065 0.61715 0.0
C175 C 0.78613 0.8455 0.64065 0.0
C176 C 0.79361 0.82546 0.64998 0.0
C177 C 0.78557 0.79648 0.64241 0.0
C178 C 0.7674 0.78715 0.62596 0.0
C179 C 0.76303 0.96533 0.64841 0.0
H180 H 0.67861 0.80876 0.53875 0.0
H181 H 0.70213 0.81896 0.56986 0.0
H182 H 0.7594 0.91601 0.55614 0.0
H183 H 0.73495 0.90571 0.52527 0.0
H184 H 0.75018 0.83483 0.58701 0.0
H185 H 0.74557 0.91838 0.58717 0.0
H186 H 0.76917 0.88913 0.63744 0.0
H187 H 0.73662 0.91581 0.64604 0.0
H188 H 0.80058 0.965 0.60063 0.0
H189 H 0.8168 0.01424 0.61652 0.0
H190 H 0.74346 0.79748 0.60493 0.0
H191 H 0.79519 0.86818 0.64668 0.0
H192 H 0.75248 0.96526 0.66176 0.0
H193 H 0.76046 0.76496 0.61964 0.0
H194 H 0.80597 0.83306 0.66316 0.0
C195 C 0.12218 0.83568 0.53602 0.0
C196 C 0.15372 0.84769 0.5301 0.0
C197 C 0.11543 0.84223 0.55393 0.0
C198 C 0.1401 0.86066 0.56644 0.0
C199 C 0.17169 0.87256 0.56037 0.0
C200 C 0.17838 0.86639 0.54239 0.0
C201 C 0.13319 0.86728 0.58577 0.0
C202 C 0.1067 0.84503 0.59586 0.0
C203 C 0.10087 0.85086 0.61425 0.0
C204 C 0.12233 0.87909 0.62279 0.0
C205 C 0.1487 0.90207 0.61292 0.0
C206 C 0.15345 0.89595 0.59433 0.0
C207 C 0.17116 0.93251 0.62183 0.0
C208 C 0.16046 0.94631 0.63496 0.0
C209 C 0.20362 0.94836 0.61705 0.0
C210 C 0.2245 0.97722 0.62484 0.0
C211 C 0.21388 0.99079 0.63813 0.0
C212 C 0.07172 0.82784 0.62431 0.0
C213 C 0.04199 0.81517 0.61555 0.0
C214 C 0.07316 0.81888 0.64275 0.0
C215 C 0.0454 0.7976 0.65216 0.0
C216 C 0.01572 0.78545 0.64344 0.0
C217 C 0.0143 0.79437 0.62504 0.0
C218 C 0.18155 0.9749 0.64308 0.0
H219 H 0.10274 0.82143 0.52671 0.0
H220 H 0.09084 0.83307 0.55786 0.0
H221 H 0.19141 0.88626 0.56961 0.0
H222 H 0.2029 0.8757 0.53821 0.0
H223 H 0.09081 0.82276 0.58962 0.0
H224 H 0.17272 0.91387 0.58629 0.0
H225 H 0.11814 0.88319 0.63708 0.0
H226 H 0.13565 0.93533 0.63882 0.0
H227 H 0.21312 0.93852 0.60726 0.0
H228 H 0.24896 0.98907 0.62019 0.0
H229 H 0.04009 0.82179 0.60142 0.0
H230 H 0.09577 0.82816 0.64982 0.0
H231 H 0.17246 0.98457 0.65327 0.0
H232 H 0.99167 0.78509 0.61797 0.0
H233 H 0.04704 0.79094 0.66632 0.0
C234 C 0.95223 0.48884 0.83657 0.0
C235 C 0.98048 0.48798 0.83909 0.0
C236 C 0.93752 0.48269 0.81906 0.0
C237 C 0.95037 0.47489 0.80384 0.0
C238 C 0.97847 0.47393 0.80633 0.0
C239 C 0.99345 0.48059 0.82371 0.0
C240 C 0.9344 0.46721 0.7854 0.0
C241 C 0.92606 0.48736 0.77674 0.0
C242 C 0.91285 0.48094 0.75874 0.0
C243 C 0.90734 0.45376 0.74963 0.0
C244 C 0.91438 0.43269 0.75835 0.0
C245 C 0.92817 0.43984 0.77623 0.0
C246 C 0.90697 0.40316 0.74891 0.0
C247 C 0.87966 0.38722 0.73772 0.0
C248 C 0.92687 0.3904 0.75113 0.0
C249 C 0.91942 0.36235 0.7426 0.0
C250 C 0.8923 0.34683 0.73142 0.0
C251 C 0.9051 0.50268 0.74922 0.0
C252 C 0.88672 0.51336 0.75824 0.0
C253 C 0.91553 0.51238 0.73085 0.0
C254 C 0.90791 0.53253 0.72172 0.0
C255 C 0.88938 0.54302 0.7307 0.0
C256 C 0.87868 0.53314 0.74898 0.0
C257 C 0.87257 0.35948 0.72894 0.0
H258 H 0.94106 0.49358 0.8482 0.0
H259 H 0.91568 0.48326 0.81753 0.0
H260 H 0.98901 0.46824 0.79476 0.0
H261 H 0.01531 0.48002 0.82508 0.0
H262 H 0.93093 0.50859 0.78371 0.0
H263 H 0.93352 0.42382 0.7833 0.0
H264 H 0.89742 0.44907 0.73569 0.0
H265 H 0.86337 0.39585 0.73596 0.0
H266 H 0.94839 0.40217 0.75932 0.0
H267 H 0.93497 0.35289 0.74458 0.0
H268 H 0.87819 0.50602 0.77233 0.0
H269 H 0.92984 0.50459 0.72362 0.0
H270 H 0.85138 0.34761 0.72045 0.0
H271 H 0.86444 0.54107 0.75616 0.0
H272 H 0.91632 0.5398 0.7076 0.0
C273 C 0.53975 0.50697 0.82098 0.0
C274 C 0.5335 0.48599 0.8357 0.0
C275 C 0.54829 0.5017 0.80327 0.0
C276 C 0.55034 0.47508 0.79972 0.0
C277 C 0.54456 0.45427 0.81439 0.0
C278 C 0.53665 0.45987 0.83224 0.0
C279 C 0.55699 0.46847 0.7805 0.0
C280 C 0.58335 0.49081 0.77048 0.0
C281 C 0.58869 0.48562 0.75179 0.0
C282 C 0.56659 0.45752 0.74321 0.0
C283 C 0.54021 0.43453 0.75313 0.0
C284 C 0.53608 0.44023 0.7719 0.0
C285 C 0.51665 0.40484 0.7439 0.0
C286 C 0.48426 0.39001 0.74881 0.0
C287 C 0.52623 0.39078 0.73029 0.0
C288 C 0.50414 0.36282 0.7219 0.0
C289 C 0.47189 0.34789 0.72701 0.0
C290 C 0.61717 0.5096 0.7413 0.0
C291 C 0.62967 0.54132 0.74499 0.0
C292 C 0.63265 0.50112 0.72785 0.0
C293 C 0.65982 0.52364 0.71851 0.0
C294 C 0.67249 0.55527 0.72247 0.0
C295 C 0.6571 0.56369 0.73596 0.0
C296 C 0.46235 0.36179 0.7407 0.0
H297 H 0.53737 0.52722 0.82303 0.0
H298 H 0.55236 0.51798 0.79216 0.0
H299 H 0.54631 0.43373 0.81206 0.0
H300 H 0.53315 0.44374 0.84332 0.0
H301 H 0.59994 0.51204 0.77752 0.0
H302 H 0.51622 0.42289 0.77989 0.0
H303 H 0.56945 0.4539 0.7286 0.0
H304 H 0.47561 0.40015 0.75894 0.0
H305 H 0.55092 0.40106 0.72627 0.0
H306 H 0.51239 0.35287 0.71138 0.0
H307 H 0.61839 0.54909 0.75495 0.0
H308 H 0.62424 0.47701 0.72475 0.0
H309 H 0.43796 0.35066 0.74544 0.0
H310 H 0.66661 0.58765 0.73994 0.0
H311 H 0.67105 0.51625 0.70826 0.0
C312 C 0.55698 0.07091 0.82972 0.0
C313 C 0.52511 0.05321 0.83545 0.0
C314 C 0.56493 0.08586 0.81233 0.0
C315 C 0.54122 0.08301 0.79982 0.0
C316 C 0.50937 0.06581 0.80583 0.0
C317 C 0.50155 0.05179 0.82344 0.0
C318 C 0.54945 0.09706 0.78054 0.0
C319 C 0.57706 0.10156 0.7712 0.0
C320 C 0.58414 0.11325 0.75287 0.0
C321 C 0.56272 0.11962 0.74345 0.0
C322 C 0.53529 0.11585 0.75244 0.0
C323 C 0.52924 0.10517 0.77102 0.0
C324 C 0.51247 0.12248 0.74241 0.0
C325 C 0.50045 0.13985 0.75103 0.0
C326 C 0.50151 0.1104 0.72446 0.0
C327 C 0.47825 0.11463 0.71564 0.0
C328 C 0.46577 0.1314 0.72448 0.0
C329 C 0.61419 0.11909 0.74371 0.0
C330 C 0.64336 0.13628 0.75301 0.0
C331 C 0.61404 0.10744 0.72578 0.0
C332 C 0.64238 0.11227 0.71755 0.0
C333 C 0.67146 0.12948 0.7269 0.0
C334 C 0.6717 0.14162 0.74463 0.0
C335 C 0.47754 0.14445 0.7421 0.0
H336 H 0.57592 0.07282 0.83855 0.0
H337 H 0.58982 0.09954 0.80878 0.0
H338 H 0.49006 0.06242 0.79685 0.0
H339 H 0.47683 0.03963 0.82754 0.0
H340 H 0.59289 0.09519 0.77788 0.0
H341 H 0.50834 0.10284 0.77789 0.0
H342 H 0.56791 0.12842 0.72929 0.0
H343 H 0.50861 0.1497 0.76477 0.0
H344 H 0.5102 0.09682 0.71748 0.0
H345 H 0.46971 0.1045 0.702 0.0
H346 H 0.64425 0.1457 0.76677 0.0
H347 H 0.59191 0.09402 0.71832 0.0
H348 H 0.46828 0.15742 0.74924 0.0
H349 H 0.69378 0.1547 0.75219 0.0
H350 H 0.64161 0.10257 0.7039 0.0
C351 C 0.83366 0.59694 0.87191 0.0
C352 C 0.82458 0.61821 0.86595 0.0
C353 C 0.82552 0.58372 0.88977 0.0
C354 C 0.8084 0.5917 0.90233 0.0
C355 C 0.79923 0.61294 0.89625 0.0
C356 C 0.80713 0.62592 0.87831 0.0
C357 C 0.8009 0.57866 0.92179 0.0
C358 C 0.82261 0.57324 0.93173 0.0
C359 C 0.81632 0.56176 0.95014 0.0
C360 C 0.78797 0.55635 0.95886 0.0
C361 C 0.76561 0.5614 0.94928 0.0
C362 C 0.77229 0.57211 0.93065 0.0
C363 C 0.73554 0.55602 0.95869 0.0
C364 C 0.71967 0.53234 0.97203 0.0
C365 C 0.7223 0.57469 0.95432 0.0
C366 C 0.6942 0.56976 0.96278 0.0
C367 C 0.67869 0.54656 0.97635 0.0
C368 C 0.83953 0.55543 0.96011 0.0
C369 C 0.85405 0.54099 0.95069 0.0
C370 C 0.84777 0.56406 0.9789 0.0
C371 C 0.87024 0.55874 0.9879 0.0
C372 C 0.88466 0.54429 0.97841 0.0
C373 C 0.87627 0.5355 0.9597 0.0
C374 C 0.6917 0.52774 0.98076 0.0
H375 H 0.84703 0.59044 0.86269 0.0
H376 H 0.8326 0.56711 0.89369 0.0
H377 H 0.78662 0.62026 0.90551 0.0
H378 H 0.80034 0.64272 0.87431 0.0
H379 H 0.84501 0.57876 0.92532 0.0
H380 H 0.75488 0.5749 0.92284 0.0
H381 H 0.78341 0.54817 0.97314 0.0
H382 H 0.72858 0.51703 0.97563 0.0
H383 H 0.73372 0.59345 0.94439 0.0
H384 H 0.68447 0.58411 0.95848 0.0
H385 H 0.84815 0.53379 0.93628 0.0
H386 H 0.83731 0.57549 0.98654 0.0
H387 H 0.68035 0.50952 0.99105 0.0
H388 H 0.88734 0.52482 0.95189 0.0
H389 H 0.8763 0.56586 1.0023 0.0
C390 C 0.35642 0.15952 0.87446 0.0
C391 C 0.36367 0.18332 0.86155 0.0
C392 C 0.3722 0.16603 0.89164 0.0
C393 C 0.39568 0.19646 0.8962 0.0
C394 C 0.4031 0.22009 0.88306 0.0
C395 C 0.38714 0.21363 0.86603 0.0
C396 C 0.41231 0.20386 0.91456 0.0
C397 C 0.42089 0.18358 0.92291 0.0
C398 C 0.43782 0.19154 0.93977 0.0
C399 C 0.44632 0.21986 0.94836 0.0
C400 C 0.43738 0.24014 0.94052 0.0
C401 C 0.42016 0.23176 0.92372 0.0
C402 C 0.44591 0.27001 0.94982 0.0
C403 C 0.44498 0.27201 0.9694 0.0
C404 C 0.45479 0.29678 0.93914 0.0
C405 C 0.46194 0.32462 0.94778 0.0
C406 C 0.46063 0.3264 0.96728 0.0
C407 C 0.44673 0.17031 0.9486 0.0
C408 C 0.4238 0.1438 0.95789 0.0
C409 C 0.47841 0.17721 0.94848 0.0
C410 C 0.48709 0.15775 0.95754 0.0
C411 C 0.46433 0.13145 0.96728 0.0
C412 C 0.43253 0.12462 0.96724 0.0
C413 C 0.45246 0.29999 0.97804 0.0
H414 H 0.33813 0.136 0.8714 0.0
H415 H 0.36555 0.14731 0.90147 0.0
H416 H 0.4215 0.24367 0.88586 0.0
H417 H 0.39335 0.23233 0.85623 0.0
H418 H 0.41519 0.16198 0.91615 0.0
H419 H 0.41232 0.24681 0.91789 0.0
H420 H 0.45996 0.22601 0.96118 0.0
H421 H 0.43786 0.25182 0.97806 0.0
H422 H 0.45646 0.29632 0.92408 0.0
H423 H 0.46873 0.34487 0.93922 0.0
H424 H 0.39925 0.13828 0.95823 0.0
H425 H 0.49639 0.19757 0.94129 0.0
H426 H 0.45123 0.30086 0.99311 0.0
H427 H 0.41443 0.10464 0.97465 0.0
H428 H 0.51156 0.16317 0.95673 0.0
C429 C 0.79852 0.18516 0.87301 0.0
C430 C 0.82792 0.18703 0.86945 0.0
C431 C 0.79044 0.18965 0.89109 0.0
C432 C 0.81181 0.19676 0.90596 0.0
C433 C 0.84117 0.19872 0.90242 0.0
C434 C 0.84904 0.19374 0.88445 0.0
C435 C 0.80399 0.20296 0.92502 0.0
C436 C 0.77459 0.18259 0.93342 0.0
C437 C 0.76754 0.18824 0.95159 0.0
C438 C 0.78969 0.21514 0.96101 0.0
C439 C 0.81887 0.23594 0.95273 0.0
C440 C 0.82608 0.22944 0.93488 0.0
C441 C 0.84126 0.26495 0.96255 0.0
C442 C 0.83058 0.28443 0.96961 0.0
C443 C 0.87335 0.27358 0.96475 0.0
C444 C 0.89437 0.30126 0.97381 0.0
C445 C 0.88371 0.32094 0.9805 0.0
C446 C 0.73745 0.16588 0.96105 0.0
C447 C 0.70814 0.15393 0.95185 0.0
C448 C 0.73792 0.15639 0.97948 0.0
C449 C 0.70981 0.13495 0.98838 0.0
C450 C 0.68061 0.12287 0.97912 0.0
C451 C 0.67995 0.13281 0.96087 0.0
C452 C 0.85169 0.31232 0.97834 0.0
H453 H 0.78199 0.18092 0.86177 0.0
H454 H 0.76781 0.1884 0.89335 0.0
H455 H 0.85802 0.20391 0.91363 0.0
H456 H 0.87172 0.19504 0.88232 0.0
H457 H 0.75769 0.16182 0.92608 0.0
H458 H 0.84851 0.2456 0.92839 0.0
H459 H 0.7842 0.21996 0.97485 0.0
H460 H 0.80602 0.27843 0.96798 0.0
H461 H 0.88212 0.25888 0.95949 0.0
H462 H 0.91909 0.30769 0.97519 0.0
H463 H 0.70704 0.16102 0.93772 0.0
H464 H 0.76017 0.16508 0.98689 0.0
H465 H 0.84308 0.32731 0.98329 0.0
H466 H 0.65768 0.12359 0.95341 0.0
H467 H 0.71086 0.12757 1.00244 0.0
C468 C 0.63757 0.83637 0.16342 0.0
C469 C 0.65489 0.82224 0.16923 0.0
C470 C 0.62197 0.82896 0.14621 0.0
C471 C 0.62391 0.80778 0.13403 0.0
C472 C 0.64132 0.7937 0.1399 0.0
C473 C 0.65595 0.80031 0.15737 0.0
C474 C 0.6082 0.80051 0.11528 0.0
C475 C 0.60419 0.82269 0.10544 0.0
C476 C 0.5894 0.81594 0.08786 0.0
C477 C 0.58106 0.78743 0.07938 0.0
C478 C 0.58522 0.76489 0.08872 0.0
C479 C 0.59741 0.77134 0.10702 0.0
C480 C 0.57727 0.73485 0.07945 0.0
C481 C 0.55443 0.72215 0.06513 0.0
C482 C 0.5929 0.71866 0.08468 0.0
C483 C 0.58542 0.69056 0.07628 0.0
C484 C 0.56336 0.67846 0.06161 0.0
C485 C 0.58156 0.83817 0.07872 0.0
C486 C 0.57152 0.85526 0.0896 0.0
C487 C 0.58254 0.84154 0.05916 0.0
C488 C 0.57308 0.8609 0.05074 0.0
C489 C 0.56302 0.87766 0.06171 0.0
C490 C 0.56264 0.87499 0.08118 0.0
C491 C 0.54809 0.69479 0.05612 0.0
H492 H 0.63615 0.85336 0.17216 0.0
H493 H 0.60825 0.83983 0.14259 0.0
H494 H 0.64403 0.77766 0.13098 0.0
H495 H 0.66793 0.78797 0.16157 0.0
H496 H 0.61288 0.84551 0.11131 0.0
H497 H 0.59818 0.75341 0.11503 0.0
H498 H 0.57102 0.78282 0.06553 0.0
H499 H 0.54101 0.73299 0.06083 0.0
H500 H 0.61118 0.72755 0.09526 0.0
H501 H 0.5968 0.67826 0.08157 0.0
H502 H 0.56978 0.8529 0.10464 0.0
H503 H 0.59068 0.82931 0.0503 0.0
H504 H 0.53104 0.68643 0.04483 0.0
H505 H 0.55485 0.88775 0.08985 0.0
H506 H 0.5738 0.86297 0.03567 0.0
C507 C 0.20629 0.84538 0.15407 0.0
C508 C 0.20023 0.82524 0.16915 0.0
C509 C 0.21547 0.83945 0.13673 0.0
C510 C 0.21809 0.81291 0.13405 0.0
C511 C 0.21216 0.79284 0.14921 0.0
C512 C 0.20361 0.79913 0.16667 0.0
C513 C 0.22523 0.8054 0.11522 0.0
C514 C 0.25132 0.82757 0.10488 0.0
C515 C 0.25701 0.82129 0.08648 0.0
C516 C 0.23553 0.79242 0.07852 0.0
C517 C 0.2099 0.76984 0.08888 0.0
C518 C 0.20508 0.77634 0.10726 0.0
C519 C 0.1878 0.73946 0.08046 0.0
C520 C 0.17133 0.73761 0.06401 0.0
C521 C 0.18278 0.71211 0.089 0.0
C522 C 0.16148 0.68333 0.0813 0.0
C523 C 0.144 0.68126 0.06518 0.0
C524 C 0.28528 0.84461 0.07565 0.0
C525 C 0.29749 0.87652 0.07835 0.0
C526 C 0.30073 0.83524 0.06271 0.0
C527 C 0.32739 0.85708 0.05277 0.0
C528 C 0.33969 0.88892 0.05567 0.0
C529 C 0.32453 0.89828 0.06875 0.0
C530 C 0.14946 0.70879 0.05651 0.0
H531 H 0.20379 0.86563 0.15572 0.0
H532 H 0.21961 0.85513 0.12524 0.0
H533 H 0.21404 0.77225 0.14751 0.0
H534 H 0.19894 0.78326 0.17812 0.0
H535 H 0.26745 0.84946 0.11144 0.0
H536 H 0.18484 0.75913 0.1151 0.0
H537 H 0.23864 0.78728 0.06424 0.0
H538 H 0.17483 0.75846 0.05721 0.0
H539 H 0.19562 0.71304 0.10156 0.0
H540 H 0.15884 0.66271 0.08795 0.0
H541 H 0.28625 0.8849 0.08792 0.0
H542 H 0.29267 0.81099 0.06044 0.0
H543 H 0.13641 0.70805 0.04412 0.0
H544 H 0.33388 0.92252 0.07192 0.0
H545 H 0.3385 0.849 0.04288 0.0
C546 C 0.22913 0.39385 0.16437 0.0
C547 C 0.19807 0.37931 0.17168 0.0
C548 C 0.23604 0.40788 0.1467 0.0
C549 C 0.21193 0.40682 0.13522 0.0
C550 C 0.18081 0.39203 0.14254 0.0
C551 C 0.17414 0.37901 0.16049 0.0
C552 C 0.21897 0.42024 0.11569 0.0
C553 C 0.24523 0.42316 0.10544 0.0
C554 C 0.25166 0.43505 0.08712 0.0
C555 C 0.23073 0.44299 0.07857 0.0
C556 C 0.20458 0.44071 0.0884 0.0
C557 C 0.19929 0.4299 0.10698 0.0
C558 C 0.18292 0.44995 0.07934 0.0
C559 C 0.17454 0.46974 0.08855 0.0
C560 C 0.17018 0.43879 0.0615 0.0
C561 C 0.149 0.44668 0.05328 0.0
C562 C 0.14057 0.46636 0.06258 0.0
C563 C 0.28103 0.4403 0.07723 0.0
C564 C 0.31061 0.45611 0.08626 0.0
C565 C 0.27999 0.43016 0.05875 0.0
C566 C 0.30787 0.43541 0.04963 0.0
C567 C 0.3374 0.45156 0.05865 0.0
C568 C 0.33845 0.46187 0.07704 0.0
C569 C 0.15385 0.47806 0.0802 0.0
H570 H 0.24825 0.39385 0.17204 0.0
H571 H 0.2605 0.41942 0.14213 0.0
H572 H 0.1611 0.38973 0.13437 0.0
H573 H 0.14991 0.36834 0.16548 0.0
H574 H 0.26064 0.41565 0.11142 0.0
H575 H 0.17955 0.42897 0.11451 0.0
H576 H 0.2355 0.45214 0.06449 0.0
H577 H 0.18414 0.47893 0.10222 0.0
H578 H 0.17609 0.42343 0.05406 0.0
H579 H 0.13919 0.43743 0.03966 0.0
H580 H 0.31227 0.46444 0.10042 0.0
H581 H 0.25756 0.41784 0.05145 0.0
H582 H 0.14766 0.49318 0.0877 0.0
H583 H 0.36088 0.47414 0.08436 0.0
H584 H 0.30644 0.42716 0.03548 0.0
C585 C 0.49047 0.92401 0.20314 0.0
C586 C 0.48167 0.94558 0.1974 0.0
C587 C 0.48218 0.91044 0.2209 0.0
C588 C 0.46522 0.91839 0.2336 0.0
C589 C 0.45616 0.9398 0.22771 0.0
C590 C 0.46419 0.95312 0.20986 0.0
C591 C 0.45806 0.90529 0.25306 0.0
C592 C 0.48004 0.89987 0.26274 0.0
C593 C 0.47439 0.88882 0.28123 0.0
C594 C 0.44635 0.88345 0.29025 0.0
C595 C 0.42365 0.88809 0.28085 0.0
C596 C 0.4297 0.89886 0.26226 0.0
C597 C 0.39368 0.88188 0.29045 0.0
C598 C 0.36417 0.86526 0.28139 0.0
C599 C 0.39439 0.89304 0.30861 0.0
C600 C 0.36645 0.88852 0.31724 0.0
C601 C 0.33709 0.87234 0.30803 0.0
C602 C 0.498 0.88298 0.29101 0.0
C603 C 0.51075 0.86651 0.28203 0.0
C604 C 0.50859 0.89439 0.30913 0.0
C605 C 0.53209 0.89027 0.31779 0.0
C606 C 0.54511 0.87421 0.30864 0.0
C607 C 0.53381 0.86197 0.2908 0.0
C608 C 0.33619 0.86034 0.29014 0.0
H609 H 0.50382 0.9176 0.19384 0.0
H610 H 0.48912 0.89366 0.22465 0.0
H611 H 0.44365 0.94707 0.23708 0.0
H612 H 0.45756 0.9701 0.20601 0.0
H613 H 0.50223 0.90518 0.25611 0.0
H614 H 0.4123 0.90246 0.25501 0.0
H615 H 0.44176 0.87479 0.30445 0.0
H616 H 0.36272 0.85608 0.26749 0.0
H617 H 0.4167 0.90602 0.31596 0.0
H618 H 0.36781 0.89795 0.33106 0.0
H619 H 0.50289 0.85718 0.26815 0.0
H620 H 0.49933 0.90724 0.3164 0.0
H621 H 0.31391 0.84791 0.28269 0.0
H622 H 0.5435 0.84959 0.28342 0.0
H623 H 0.54028 0.89983 0.33159 0.0
C624 C 1.00243 0.48371 0.21666 0.0
C625 C 0.01681 0.50199 0.20076 0.0
C626 C 0.01733 0.49223 0.23408 0.0
C627 C 0.04671 0.51949 0.23608 0.0
C628 C 0.06123 0.53781 0.22029 0.0
C629 C 0.04667 0.52893 0.20276 0.0
C630 C 0.06162 0.52893 0.25478 0.0
C631 C 0.06703 0.50848 0.26552 0.0
C632 C 0.07889 0.51588 0.28399 0.0
C633 C 0.0845 0.54451 0.29134 0.0
C634 C 0.08085 0.56583 0.28038 0.0
C635 C 0.06954 0.55796 0.26208 0.0
C636 C 0.08954 0.59666 0.28809 0.0
C637 C 0.0775 0.59928 0.30542 0.0
C638 C 0.111 0.6237 0.27849 0.0
C639 C 0.12066 0.65282 0.28624 0.0
C640 C 0.10854 0.65538 0.30353 0.0
C641 C 0.0863 0.49454 0.29523 0.0
C642 C 0.0759 0.46384 0.28945 0.0
C643 C 0.10477 0.50474 0.3117 0.0
C644 C 0.11264 0.48545 0.32166 0.0
C645 C 0.10413 0.45582 0.31502 0.0
C646 C 0.08526 0.44521 0.29887 0.0
C647 C 0.08674 0.6284 0.31301 0.0
H648 H 0.9794 0.46295 0.21572 0.0
H649 H 1.00554 0.47783 0.24609 0.0
H650 H 0.08406 0.55878 0.22147 0.0
H651 H 0.05904 0.54304 0.19078 0.0
H652 H 0.0624 0.48718 0.25893 0.0
H653 H 0.06587 0.57402 0.25375 0.0
H654 H 0.09228 0.5511 0.30554 0.0
H655 H 0.06089 0.57877 0.31307 0.0
H656 H 0.12083 0.62228 0.26519 0.0
H657 H 0.13747 0.67338 0.2787 0.0
H658 H 0.06066 0.45364 0.27753 0.0
H659 H 0.11404 0.52781 0.31713 0.0
H660 H 0.07722 0.62988 0.32641 0.0
H661 H 0.078 0.42252 0.2932 0.0
H662 H 0.12567 0.49412 0.33455 0.0
C663 C 0.45699 0.49845 0.20365 0.0
C664 C 0.48875 0.50996 0.19839 0.0
C665 C 0.44947 0.505 0.22134 0.0
C666 C 0.47356 0.52291 0.2343 0.0
C667 C 0.50536 0.53396 0.22899 0.0
C668 C 0.51284 0.52781 0.21121 0.0
C669 C 0.46562 0.53081 0.25299 0.0
C670 C 0.43774 0.50972 0.26259 0.0
C671 C 0.42923 0.51766 0.27972 0.0
C672 C 0.44955 0.54716 0.28734 0.0
C673 C 0.47798 0.56803 0.27835 0.0
C674 C 0.48569 0.55983 0.2612 0.0
C675 C 0.49992 0.59853 0.28686 0.0
C676 C 0.48931 0.61908 0.29179 0.0
C677 C 0.5318 0.6073 0.28998 0.0
C678 C 0.55273 0.63609 0.29785 0.0
C679 C 0.5425 0.65719 0.30232 0.0
C680 C 0.39904 0.4954 0.28949 0.0
C681 C 0.3716 0.47546 0.27922 0.0
C682 C 0.39708 0.49428 0.30916 0.0
C683 C 0.3684 0.47441 0.31822 0.0
C684 C 0.34126 0.45483 0.30784 0.0
C685 C 0.34314 0.45529 0.2883 0.0
C686 C 0.51042 0.64819 0.2993 0.0
H687 H 0.43799 0.48486 0.19393 0.0
H688 H 0.42476 0.49653 0.22467 0.0
H689 H 0.52461 0.54725 0.23861 0.0
H690 H 0.53752 0.5367 0.20752 0.0
H691 H 0.42288 0.48682 0.25684 0.0
H692 H 0.50705 0.57663 0.25404 0.0
H693 H 0.44341 0.55405 0.30032 0.0
H694 H 0.46483 0.61286 0.28946 0.0
H695 H 0.54042 0.59165 0.28655 0.0
H696 H 0.57688 0.64164 0.30061 0.0
H697 H 0.37178 0.47591 0.26411 0.0
H698 H 0.41768 0.50873 0.31763 0.0
H699 H 0.5017 0.66383 0.30251 0.0
H700 H 0.32229 0.44058 0.28004 0.0
H701 H 0.36736 0.47439 0.33333 0.0
Eu702 Eu 0.49768 0.98139 0.99459 0.0
C703 C 0.56554 0.09941 0.0464 0.0
C704 C 0.621 0.114 0.04536 0.0
C705 C 0.60624 0.15333 0.05034 0.0
C706 C 0.58859 0.09132 0.04416 0.0
C707 C 0.57403 0.1304 0.04995 0.0
C708 C 0.62971 0.14515 0.04801 0.0
C709 C 0.51829 0.11343 0.05354 0.0
N710 N 0.53473 0.07668 0.046 0.0
C711 C 0.5111 0.08305 0.04996 0.0
C712 C 0.5499 0.13728 0.05339 0.0
Eu713 Eu 0.52395 0.0259 0.03915 0.0
N714 N 0.57928 0.06098 0.04189 0.0
C715 C 0.60116 0.05149 0.04228 0.0
C716 C 0.64362 0.10456 0.04446 0.0
C717 C 0.63361 0.07309 0.04324 0.0
H718 H 0.48661 0.06475 0.04998 0.0
H719 H 0.65086 0.06544 0.04294 0.0
H720 H 0.65448 0.16294 0.04879 0.0
H721 H 0.49946 0.11843 0.05637 0.0
H722 H 0.59389 0.02733 0.04122 0.0
H723 H 0.3701 0.9374 0.99053 0.0
H724 H 0.66876 0.12126 0.04524 0.0
H725 H 0.53791 0.94475 0.98431 0.0
H726 H 0.42676 0.97723 0.99215 0.0
H727 H 0.52702 0.89161 0.97835 0.0
H728 H 0.61325 0.17733 0.05284 0.0
H729 H 0.35435 0.88203 0.98883 0.0
H730 H 0.3708 0.84183 0.98582 0.0
H731 H 0.55542 0.16079 0.05618 0.0
H732 H 0.41351 0.82944 0.98206 0.0
N733 N 0.44291 0.94477 0.99218 0.0
C734 C 0.42021 0.95317 0.99146 0.0
C735 C 0.37926 0.89943 0.98962 0.0
C736 C 0.40279 0.89114 0.98899 0.0
C737 C 0.38805 0.93065 0.99051 0.0
C738 C 0.43486 0.9147 0.99017 0.0
H739 H 0.47176 0.84792 0.97876 0.0
N740 N 0.48935 0.9312 0.98851 0.0
C741 C 0.50763 0.8958 0.98114 0.0
C742 C 0.45882 0.90771 0.98811 0.0
C743 C 0.51371 0.92588 0.98453 0.0
C744 C 0.4764 0.8712 0.9814 0.0
C745 C 0.45149 0.877 0.98474 0.0
O746 O 0.52489 0.99442 0.96862 0.0
O747 O 0.53599 0.02202 1.00963 0.0
O748 O 0.5182 0.05599 0.01754 0.0
O749 O 0.48296 0.01817 0.99686 0.0
O750 O 0.55024 0.99795 0.99244 0.0
O751 O 0.4786 0.99019 0.96901 0.0
O752 O 0.49975 0.0189 0.06607 0.0
O753 O 0.48521 0.98601 0.02393 0.0
O754 O 0.50309 0.95115 0.01609 0.0
O755 O 0.53871 0.98915 0.0365 0.0
O756 O 0.47157 0.01031 0.04125 0.0
O757 O 0.53722 0.00799 0.06324 0.0
C758 C 0.55998 0.0215 1.00337 0.0
C759 C 0.49664 0.98051 0.94027 0.0
C760 C 0.4976 0.98432 0.90606 0.0
C761 C 0.50117 0.99794 0.92388 0.0
C762 C 0.49012 0.95318 0.90512 0.0
C763 C 0.48799 0.94928 0.9388 0.0
C764 C 0.48491 0.93579 0.92132 0.0
C765 C 0.49762 0.04683 1.00355 0.0
C766 C 0.503 0.99548 0.95878 0.0
C767 C 0.41962 0.85323 0.9844 0.0
C768 C 0.3953 0.86028 0.98657 0.0
C769 C 0.46145 0.98698 0.03014 0.0
C770 C 0.52861 0.02187 0.09337 0.0
C771 C 0.51555 0.0029 0.10927 0.0
C772 C 0.52745 0.01438 0.12728 0.0
C773 C 0.55241 0.04509 0.12905 0.0
C774 C 0.55331 0.05244 0.09557 0.0
C775 C 0.56508 0.06394 0.11333 0.0
C776 C 0.52413 0.9605 0.0298 0.0
C777 C 0.51691 0.00932 0.07455 0.0
H778 H 0.5076 0.02203 0.92504 0.0
H779 H 0.48877 0.94224 0.89183 0.0
H780 H 0.4843 0.93547 0.95115 0.0
H781 H 0.47895 0.91183 0.92032 0.0
H782 H 0.49666 0.97915 0.10759 0.0
H783 H 0.56198 0.05461 0.14267 0.0
H784 H 0.56361 0.06732 0.08354 0.0
H785 H 0.58421 0.08756 0.11492 0.0
Eu786 Eu 0.03108 0.51122 0.99907 0.0
C787 C 0.91619 0.48063 0.03682 0.0
C788 C 0.91654 0.52866 0.04223 0.0
C789 C 0.86844 0.4837 0.03126 0.0
C790 C 0.93241 0.51143 0.04186 0.0
C791 C 0.88363 0.46613 0.03216 0.0
C792 C 0.88489 0.51495 0.03627 0.0
C793 C 0.88228 0.41727 0.03197 0.0
N794 N 0.93155 0.46428 0.03778 0.0
C795 C 0.91438 0.43263 0.03681 0.0
C796 C 0.86699 0.43419 0.02917 0.0
Eu797 Eu 0.98759 0.49291 0.04331 0.0
N798 N 0.96311 0.52411 0.04739 0.0
C799 C 0.97757 0.55254 0.05588 0.0
C800 C 0.93263 0.55889 0.04909 0.0
C801 C 0.96299 0.57058 0.0564 0.0
H802 H 0.92499 0.4187 0.03997 0.0
H803 H 0.97508 0.59335 0.06267 0.0
H804 H 0.87263 0.52805 0.03609 0.0
H805 H 0.86926 0.39232 0.03067 0.0
H806 H 1.00022 0.56163 0.06264 0.0
H807 H 0.05298 0.414 1.00086 0.0
H808 H 0.92132 0.57286 0.04958 0.0
H809 H 0.08177 0.58379 0.9854 0.0
H810 H 0.02081 0.43933 0.99915 0.0
H811 H 0.13974 0.61886 0.98213 0.0
H812 H 0.84369 0.47309 0.02731 0.0
H813 H 0.11153 0.44565 1.00228 0.0
H814 H 0.16042 0.49829 1.00115 0.0
H815 H 0.84203 0.42224 0.02554 0.0
H816 H 0.18417 0.55437 0.99627 0.0
N817 N 0.0604 0.48498 1.00006 0.0
C818 C 0.0462 0.45348 0.99986 0.0
C819 C 0.09746 0.45692 1.0015 0.0
C820 C 0.11194 0.48916 1.00064 0.0
C821 C 0.06444 0.43899 1.00069 0.0
C822 C 0.0925 0.50265 0.99965 0.0
H823 H 0.17664 0.5995 0.98876 0.0
N824 N 0.08619 0.54575 0.99476 0.0
C825 C 0.13056 0.59515 0.98653 0.0
C826 C 0.10584 0.53412 0.99708 0.0
C827 C 0.09784 0.57529 0.98837 0.0
C828 C 0.15131 0.58416 0.99034 0.0
C829 C 0.139 0.55308 0.99521 0.0
O830 O 0.03119 0.53175 0.97203 0.0
O831 O 0.98755 0.50576 1.01344 0.0
O832 O 0.97639 0.44841 0.02811 0.0
O833 O 0.98582 0.4649 0.99741 0.0
O834 O 0.01407 0.54591 0.99813 0.0
O835 O 0.019 0.48395 0.97346 0.0
O836 O 0.97112 0.45479 0.0633 0.0
O837 O 0.02517 0.48884 0.02706 0.0
O838 O 0.05966 0.55268 0.018 0.0
O839 O 0.02539 0.54391 0.04311 0.0
O840 O 0.03635 0.50629 0.05405 0.0
O841 O 0.99173 0.50192 0.07328 0.0
C842 C 0.98838 0.53015 1.00773 0.0
C843 C 0.04172 0.51029 0.94541 0.0
C844 C 0.04284 0.50851 0.91142 0.0
C845 C 0.02698 0.50726 0.9281 0.0
C846 C 0.07376 0.51313 0.91225 0.0
C847 C 0.07268 0.51513 0.94603 0.0
C848 C 0.08864 0.51666 0.92948 0.0
C849 C 0.97157 0.44295 1.01 0.0
C850 C 0.02379 0.50675 0.96262 0.0
C851 C 0.15861 0.54011 0.99737 0.0
C852 C 0.14509 0.50817 1.00011 0.0
C853 C 0.04648 0.49857 0.03958 0.0
C854 C 0.95835 0.46254 0.09437 0.0
C855 C 0.97237 0.47312 0.11196 0.0
C856 C 0.9542 0.46233 0.12834 0.0
C857 C 0.92162 0.4409 0.12697 0.0
C858 C 0.92567 0.4415 0.09317 0.0
C859 C 0.90742 0.43079 0.10945 0.0
C860 C 0.05188 0.5614 0.03367 0.0
C861 C 0.97903 0.47291 0.07782 0.0
H862 H 1.00287 0.50308 0.92761 0.0
H863 H 0.08638 0.51409 0.89957 0.0
H864 H 0.0843 0.5173 0.95925 0.0
H865 H 0.11248 0.52026 0.93001 0.0
H866 H 0.99768 0.48921 0.11295 0.0
H867 H 0.90718 0.43218 0.13944 0.0
H868 H 0.91438 0.43314 0.07974 0.0
H869 H 0.88225 0.41441 0.1085 0.0
Eu870 Eu 0.52187 0.48955 0.03791 0.0
C871 C 0.45734 0.5488 0.99162 0.0
C872 C 0.40101 0.5125 0.99424 0.0
C873 C 0.4198 0.56748 0.99111 0.0
C874 C 0.43269 0.51883 0.99382 0.0
C875 C 0.45118 0.57343 0.98985 0.0
C876 C 0.39475 0.53705 0.9933 0.0
C877 C 0.50718 0.60757 0.98426 0.0
N878 N 0.48732 0.55369 0.99037 0.0
C879 C 0.51206 0.58236 0.98602 0.0
C880 C 0.47665 0.60317 0.98642 0.0
Eu881 Eu 0.49398 0.5103 0.99515 0.0
N882 N 0.43958 0.49569 0.99468 0.0
C883 C 0.41583 0.46552 0.99439 0.0
C884 C 0.37657 0.48165 0.9951 0.0
C885 C 0.38402 0.45803 0.99484 0.0
H886 H 0.53575 0.58599 0.98447 0.0
H887 H 0.3653 0.43406 0.99516 0.0
H888 H 0.3706 0.53269 0.99382 0.0
H889 H 0.52695 0.63037 0.98128 0.0
H890 H 0.4213 0.44709 0.99447 0.0
H891 H 0.65075 0.56404 0.03906 0.0
H892 H 0.35193 0.4758 0.99551 0.0
H893 H 0.47895 0.41388 0.04856 0.0
H894 H 0.59499 0.55174 0.03951 0.0
H895 H 0.48683 0.36911 0.05244 0.0
H896 H 0.4146 0.58613 0.98997 0.0
H897 H 0.66327 0.52171 0.03861 0.0
H898 H 0.64369 0.46463 0.04034 0.0
H899 H 0.47292 0.62272 0.985 0.0
H900 H 0.59903 0.41154 0.04424 0.0
N901 N 0.57603 0.50316 0.03866 0.0
C902 C 0.60011 0.53314 0.03935 0.0
C903 C 0.63874 0.51623 0.03878 0.0
C904 C 0.61393 0.48552 0.03941 0.0
C905 C 0.63178 0.54017 0.0391 0.0
C906 C 0.58241 0.47969 0.0395 0.0
H907 H 0.54053 0.37578 0.04917 0.0
N908 N 0.52761 0.44559 0.04277 0.0
C909 C 0.50688 0.39169 0.04935 0.0
C910 C 0.5574 0.44992 0.0417 0.0
C911 C 0.50252 0.41716 0.04716 0.0
C912 C 0.53721 0.39554 0.04744 0.0
C913 C 0.56303 0.425 0.04384 0.0
O914 O 0.49775 0.47584 0.06488 0.0
O915 O 0.48297 0.49466 0.02483 0.0
O916 O 0.50388 0.5468 0.0168 0.0
O917 O 0.53987 0.54175 0.03594 0.0
O918 O 0.46904 0.45642 0.04154 0.0
O919 O 0.54337 0.51761 0.0629 0.0
O920 O 0.51875 0.52339 0.96837 0.0
O921 O 0.53269 0.50536 1.00837 0.0
O922 O 0.51368 0.454 0.01571 0.0
O923 O 0.47701 0.45858 0.99716 0.0
O924 O 0.5468 0.54331 0.9913 0.0
O925 O 0.47209 0.48294 0.96997 0.0
C926 C 0.45894 0.47115 0.03157 0.0
C927 C 0.52992 0.49047 0.09165 0.0
C928 C 0.52633 0.4865 0.12566 0.0
C929 C 0.51952 0.49628 0.10874 0.0
C930 C 0.54403 0.47129 0.1253 0.0
C931 C 0.54775 0.47545 0.0916 0.0
C932 C 0.5548 0.46598 0.10837 0.0
C933 C 0.52649 0.55754 0.02958 0.0
C934 C 0.5206 0.49869 0.07399 0.0
C935 C 0.59424 0.43043 0.04283 0.0
C936 C 0.61966 0.46065 0.04059 0.0
C937 C 0.55672 0.52871 1.00157 0.0
C938 C 0.48803 0.5095 0.94104 0.0
C939 C 0.49777 0.50156 0.92444 0.0
C940 C 0.49299 0.51169 0.90708 0.0
C941 C 0.47808 0.52956 0.90647 0.0
C942 C 0.47284 0.52706 0.94017 0.0
C943 C 0.46785 0.53695 0.92293 0.0
C944 C 0.49162 0.44348 1.00255 0.0
C945 C 0.49571 0.50099 0.95912 0.0
H946 H 0.50558 0.50774 0.10885 0.0
H947 H 0.54969 0.46372 0.13816 0.0
H948 H 0.55598 0.47082 0.07862 0.0
H949 H 0.5685 0.45431 0.10823 0.0
H950 H 0.50972 0.48817 0.92505 0.0
H951 H 0.47422 0.53763 0.89324 0.0
H952 H 0.46524 0.53341 0.9528 0.0
H953 H 0.45627 0.55065 0.92234 0.0
Eu954 Eu 0.1601 0.31966 0.32722 0.0
C955 C 0.23303 0.42578 0.38095 0.0
C956 C 0.28644 0.43586 0.37523 0.0
C957 C 0.27773 0.47809 0.38399 0.0
C958 C 0.25342 0.41524 0.37604 0.0
C959 C 0.245 0.45718 0.3855 0.0
C960 C 0.29841 0.46746 0.37883 0.0
C961 C 0.19189 0.44426 0.39455 0.0
N962 N 0.20164 0.40495 0.38236 0.0
C963 C 0.18125 0.41335 0.38996 0.0
C964 C 0.22385 0.46639 0.39202 0.0
Eu965 Eu 0.18512 0.35314 0.37393 0.0
N966 N 0.24106 0.38459 0.37274 0.0
C967 C 0.26052 0.37268 0.36958 0.0
C968 C 0.30644 0.424 0.37115 0.0
C969 C 0.29343 0.39219 0.36858 0.0
H970 H 0.1565 0.39621 0.39189 0.0
H971 H 0.3087 0.3827 0.36568 0.0
H972 H 0.32367 0.48372 0.37805 0.0
H973 H 0.17548 0.45098 0.40002 0.0
H974 H 0.25076 0.34822 0.36745 0.0
H975 H 0.08662 0.34723 0.28249 0.0
H976 H 0.33192 0.43908 0.37029 0.0
H977 H 0.14193 0.24923 0.34415 0.0
H978 H 0.13651 0.35477 0.29643 0.0
H979 H 0.09501 0.19843 0.34944 0.0
H980 H 0.28734 0.50238 0.3872 0.0
H981 H 0.03558 0.30035 0.29012 0.0
H982 H 1.00678 0.24846 0.30587 0.0
H983 H 0.23209 0.4903 0.39565 0.0
H984 H 0.00919 0.20774 0.32387 0.0
N985 N 0.11359 0.31326 0.31235 0.0
C986 C 0.11427 0.33417 0.29973 0.0
C987 C 0.05737 0.30358 0.29625 0.0
C988 C 0.05727 0.28097 0.30781 0.0
C989 C 0.08612 0.33002 0.29187 0.0
C990 C 0.08627 0.28635 0.31548 0.0
H991 H 0.04204 0.18855 0.33966 0.0
N992 N 0.11638 0.26889 0.33166 0.0
C993 C 0.09256 0.21654 0.34274 0.0
C994 C 0.08772 0.26338 0.32537 0.0
C995 C 0.11926 0.24565 0.33977 0.0
C996 C 0.06271 0.21105 0.33721 0.0
C997 C 0.06004 0.23446 0.32819 0.0
O998 O 0.16895 0.29027 0.30832 0.0
O999 O 0.20182 0.35219 0.34488 0.0
O1000 O 0.17004 0.38297 0.35753 0.0
O1001 O 0.13875 0.35016 0.33347 0.0
O1002 O 0.19443 0.36947 0.32022 0.0
O1003 O 0.17968 0.33558 0.2992 0.0
O1004 O 0.16247 0.34518 0.40147 0.0
O1005 O 0.14793 0.31294 0.35766 0.0
O1006 O 0.18872 0.29925 0.33984 0.0
O1007 O 0.19187 0.31176 0.37147 0.0
O1008 O 0.13262 0.33497 0.37629 0.0
O1009 O 0.20299 0.33927 0.39784 0.0
C1010 C 0.21325 0.37559 0.3342 0.0
C1011 C 0.16676 0.29775 0.27529 0.0
C1012 C 0.16652 0.3068 0.2414 0.0
C1013 C 0.17387 0.31817 0.25996 0.0
C1014 C 0.15145 0.27454 0.23868 0.0
C1015 C 0.15134 0.26577 0.27189 0.0
C1016 C 0.14365 0.25436 0.25375 0.0
C1017 C 0.14908 0.37539 0.34383 0.0
C1018 C 0.17819 0.30979 0.29444 0.0
C1019 C 0.03075 0.22962 0.32159 0.0
C1020 C 0.02937 0.25283 0.31138 0.0
C1021 C 0.12366 0.31236 0.36468 0.0
C1022 C 0.19426 0.35256 0.42811 0.0
C1023 C 0.18154 0.33456 0.44437 0.0
C1024 C 0.19375 0.3471 0.46212 0.0
C1025 C 0.21865 0.37791 0.46333 0.0
C1026 C 0.21893 0.38329 0.4297 0.0
C1027 C 0.23097 0.39586 0.44724 0.0
C1028 C 0.19525 0.29655 0.35744 0.0
C1029 C 0.18228 0.33869 0.4096 0.0
H1030 H 0.18514 0.34278 0.26258 0.0
H1031 H 0.14603 0.2647 0.22478 0.0
H1032 H 0.14572 0.24948 0.28322 0.0
H1033 H 0.13211 0.22968 0.25131 0.0
H1034 H 0.16269 0.31069 0.44316 0.0
H1035 H 0.22844 0.38818 0.47678 0.0
H1036 H 0.22905 0.39743 0.41739 0.0
H1037 H 0.25008 0.41958 0.44837 0.0
Eu1038 Eu 0.69709 0.84536 0.32954 0.0
C1039 C 0.56862 0.78718 0.37459 0.0
C1040 C 0.55046 0.82403 0.37115 0.0
C1041 C 0.51211 0.76946 0.37535 0.0
C1042 C 0.57525 0.81714 0.37174 0.0
C1043 C 0.53703 0.76306 0.37691 0.0
C1044 C 0.51882 0.79992 0.37245 0.0
C1045 C 0.55729 0.72875 0.38379 0.0
N1046 N 0.59327 0.78194 0.3762 0.0
C1047 C 0.58819 0.75346 0.38133 0.0
C1048 C 0.53155 0.73346 0.3813 0.0
Eu1049 Eu 0.64492 0.82439 0.37112 0.0
N1050 N 0.60607 0.83985 0.37084 0.0
C1051 C 0.61381 0.87017 0.37106 0.0
C1052 C 0.55828 0.85503 0.36998 0.0
C1053 C 0.59013 0.87823 0.37031 0.0
H1054 H 0.60796 0.74959 0.3831 0.0
H1055 H 0.59649 0.90233 0.36987 0.0
H1056 H 0.49944 0.8047 0.37182 0.0
H1057 H 0.55334 0.70609 0.38749 0.0
H1058 H 0.63827 0.88827 0.37121 0.0
H1059 H 0.74334 0.76566 0.32936 0.0
H1060 H 0.53997 0.86131 0.36941 0.0
H1061 H 0.73617 0.92206 0.322 0.0
H1062 H 0.70213 0.78056 0.32799 0.0
H1063 H 0.79156 0.96546 0.32113 0.0
H1064 H 0.48766 0.75119 0.37689 0.0
H1065 H 0.79993 0.80597 0.33183 0.0
H1066 H 0.84116 0.86245 0.33232 0.0
H1067 H 0.50763 0.71431 0.38321 0.0
H1068 H 0.8543 0.91679 0.33007 0.0
N1069 N 0.73494 0.82883 0.32992 0.0
C1070 C 0.72673 0.7984 0.32889 0.0
C1071 C 0.78194 0.81266 0.33113 0.0
C1072 C 0.79029 0.84387 0.33115 0.0
C1073 C 0.75004 0.78985 0.32969 0.0
C1074 C 0.76593 0.85133 0.33034 0.0
H1075 H 0.836 0.95539 0.32565 0.0
N1076 N 0.7493 0.88811 0.32751 0.0
C1077 C 0.78676 0.94209 0.32347 0.0
C1078 C 0.77335 0.8819 0.32911 0.0
C1079 C 0.75548 0.91751 0.32391 0.0
C1080 C 0.81177 0.93631 0.32608 0.0
C1081 C 0.80528 0.90588 0.32863 0.0
O1082 O 0.69102 0.86199 0.30263 0.0
O1083 O 0.65208 0.83974 0.34143 0.0
O1084 O 0.61789 0.78775 0.34913 0.0
O1085 O 0.6595 0.79376 0.32991 0.0
O1086 O 0.67836 0.8785 0.32516 0.0
O1087 O 0.69415 0.82028 0.30382 0.0
O1088 O 0.65016 0.80942 0.39889 0.0
O1089 O 0.68875 0.82854 0.35875 0.0
O1090 O 0.72379 0.87912 0.35263 0.0
O1091 O 0.68141 0.87645 0.36932 0.0
O1092 O 0.66362 0.79121 0.37594 0.0
O1093 O 0.65651 0.85521 0.39507 0.0
C1094 C 0.65239 0.86314 0.33453 0.0
C1095 C 0.7125 0.85079 0.27641 0.0
C1096 C 0.71671 0.85382 0.24237 0.0
C1097 C 0.69855 0.84139 0.25873 0.0
C1098 C 0.74921 0.87581 0.24415 0.0
C1099 C 0.74509 0.8719 0.27782 0.0
C1100 C 0.76331 0.88431 0.26175 0.0
C1101 C 0.6295 0.77792 0.33567 0.0
C1102 C 0.69223 0.84036 0.2931 0.0
C1103 C 0.82962 0.89867 0.33023 0.0
C1104 C 0.82214 0.86772 0.3315 0.0
C1105 C 0.68878 0.80547 0.36582 0.0
C1106 C 0.63847 0.83174 0.42453 0.0
C1107 C 0.65451 0.83619 0.44151 0.0
C1108 C 0.63916 0.83411 0.45855 0.0
C1109 C 0.60751 0.82756 0.45835 0.0
C1110 C 0.60678 0.82488 0.42455 0.0
C1111 C 0.59141 0.82281 0.44144 0.0
C1112 C 0.7119 0.8908 0.36458 0.0
C1113 C 0.65544 0.83496 0.40697 0.0
H1114 H 0.67341 0.82474 0.25777 0.0
H1115 H 0.7637 0.88704 0.23202 0.0
H1116 H 0.75629 0.87934 0.29128 0.0
H1117 H 0.78833 0.90113 0.26293 0.0
H1118 H 0.67912 0.84182 0.44145 0.0
H1119 H 0.59519 0.82588 0.47129 0.0
H1120 H 0.59407 0.82135 0.41157 0.0
H1121 H 0.56699 0.81763 0.44141 0.0
Eu1122 Eu 0.18416 0.82352 0.36978 0.0
C1123 C 0.12202 0.8866 0.32448 0.0
C1124 C 0.06526 0.85199 0.32682 0.0
C1125 C 0.08627 0.9074 0.32404 0.0
C1126 C 0.09649 0.85702 0.32645 0.0
C1127 C 0.1172 0.9121 0.32293 0.0
C1128 C 0.06034 0.87738 0.32598 0.0
C1129 C 0.17365 0.94473 0.31812 0.0
N1130 N 0.15156 0.89029 0.32338 0.0
C1131 C 0.17721 0.9187 0.31963 0.0
C1132 C 0.14356 0.94148 0.31996 0.0
Eu1133 Eu 0.15582 0.84536 0.32755 0.0
N1134 N 0.10208 0.83302 0.32712 0.0
C1135 C 0.07746 0.80329 0.32667 0.0
C1136 C 0.03993 0.82153 0.32752 0.0
C1137 C 0.04606 0.79705 0.32715 0.0
H1138 H 0.2006 0.92152 0.31832 0.0
H1139 H 0.02666 0.77338 0.32734 0.0
H1140 H 0.03655 0.87401 0.32641 0.0
H1141 H 0.19413 0.96728 0.31555 0.0
H1142 H 0.08198 0.78429 0.32649 0.0
H1143 H 0.31287 0.89956 0.37031 0.0
H1144 H 0.01559 0.81667 0.32791 0.0
H1145 H 0.14221 0.74747 0.37906 0.0
H1146 H 0.25691 0.88653 0.3714 0.0
H1147 H 0.15083 0.70284 0.38136 0.0
H1148 H 0.08209 0.92673 0.32303 0.0
H1149 H 0.32617 0.8578 0.36896 0.0
H1150 H 0.30739 0.80082 0.36976 0.0
H1151 H 0.14087 0.96168 0.31873 0.0
H1152 H 0.26329 0.74726 0.3729 0.0
N1153 N 0.23855 0.83799 0.37013 0.0
C1154 C 0.26234 0.86812 0.37087 0.0
C1155 C 0.30153 0.85197 0.36946 0.0
C1156 C 0.27705 0.82109 0.36989 0.0
C1157 C 0.29413 0.87559 0.37027 0.0
C1158 C 0.24539 0.8148 0.3704 0.0
H1159 H 0.20487 0.71054 0.37751 0.0
N1160 N 0.19073 0.7799 0.37357 0.0
C1161 C 0.17068 0.72575 0.37871 0.0
C1162 C 0.22068 0.78477 0.37219 0.0
C1163 C 0.16589 0.75108 0.37748 0.0
C1164 C 0.20121 0.73018 0.37648 0.0
C1165 C 0.22677 0.76003 0.37346 0.0
O1166 O 0.1605 0.80858 0.3968 0.0
O1167 O 0.14563 0.82917 0.35704 0.0
O1168 O 0.16443 0.8803 0.3501 0.0
O1169 O 0.20191 0.87567 0.36799 0.0
O1170 O 0.13121 0.79115 0.37402 0.0
O1171 O 0.20533 0.85132 0.39491 0.0
O1172 O 0.18028 0.85806 0.30072 0.0
O1173 O 0.19417 0.8393 0.34027 0.0
O1174 O 0.17421 0.78794 0.34727 0.0
O1175 O 0.13701 0.79311 0.32943 0.0
O1176 O 0.20888 0.87747 0.32345 0.0
O1177 O 0.13295 0.81838 0.30239 0.0
C1178 C 0.1215 0.80615 0.36396 0.0
C1179 C 0.19256 0.82409 0.42362 0.0
C1180 C 0.1897 0.82132 0.45767 0.0
C1181 C 0.18266 0.83061 0.44066 0.0
C1182 C 0.20722 0.80591 0.45745 0.0
C1183 C 0.21015 0.80882 0.42368 0.0
C1184 C 0.2175 0.79988 0.44055 0.0
C1185 C 0.18754 0.89103 0.36255 0.0
C1186 C 0.18285 0.83181 0.40594 0.0
C1187 C 0.25814 0.76598 0.37213 0.0
C1188 C 0.28325 0.79647 0.37033 0.0
C1189 C 0.21844 0.86226 0.33342 0.0
C1190 C 0.14938 0.84536 0.27356 0.0
C1191 C 0.15976 0.83827 0.25693 0.0
C1192 C 0.15585 0.84931 0.2396 0.0
C1193 C 0.14048 0.86686 0.23927 0.0
C1194 C 0.13414 0.86285 0.2729 0.0
C1195 C 0.12958 0.87339 0.25579 0.0
C1196 C 0.15088 0.77733 0.33493 0.0
C1197 C 0.1567 0.83615 0.29151 0.0
H1198 H 0.16886 0.84222 0.44066 0.0
H1199 H 0.21311 0.79873 0.47038 0.0
H1200 H 0.21791 0.80359 0.41071 0.0
H1201 H 0.23102 0.78804 0.44052 0.0
H1202 H 0.17094 0.82419 0.25757 0.0
H1203 H 0.13727 0.87597 0.22626 0.0
H1204 H 0.12614 0.86863 0.28559 0.0
H1205 H 0.11796 0.88704 0.25534 0.0
Eu1206 Eu 0.82998 0.65075 0.66263 0.0
C1207 C 0.89954 0.76866 0.71353 0.0
C1208 C 0.9551 0.78447 0.71036 0.0
C1209 C 0.93954 0.82311 0.71584 0.0
C1210 C 0.92284 0.76121 0.71034 0.0
C1211 C 0.9076 0.79959 0.71682 0.0
C1212 C 0.96328 0.81556 0.71259 0.0
C1213 C 0.8522 0.78138 0.72312 0.0
N1214 N 0.86904 0.74535 0.71444 0.0
C1215 C 0.84546 0.75107 0.71975 0.0
C1216 C 0.88338 0.80581 0.72144 0.0
Eu1217 Eu 0.85884 0.69481 0.7072 0.0
N1218 N 0.91403 0.73095 0.70846 0.0
C1219 C 0.9364 0.7221 0.70841 0.0
C1220 C 0.97815 0.77564 0.70884 0.0
C1221 C 0.96874 0.74425 0.70827 0.0
H1222 H 0.82127 0.7323 0.72088 0.0
H1223 H 0.98635 0.73708 0.70761 0.0
H1224 H 0.98791 0.8338 0.71241 0.0
H1225 H 0.83335 0.78588 0.72692 0.0
H1226 H 0.92945 0.69799 0.70791 0.0
H1227 H 0.7021 0.60615 0.65982 0.0
H1228 H 1.0032 0.79277 0.70874 0.0
H1229 H 0.86996 0.61388 0.65173 0.0
H1230 H 0.75866 0.64613 0.6607 0.0
H1231 H 0.85909 0.56053 0.64693 0.0
H1232 H 0.9462 0.84708 0.71807 0.0
H1233 H 0.68652 0.5508 0.65868 0.0
H1234 H 0.70308 0.51064 0.65607 0.0
H1235 H 0.88856 0.82927 0.72406 0.0
H1236 H 0.7458 0.49825 0.65235 0.0
N1237 N 0.77514 0.61392 0.66057 0.0
C1238 C 0.75228 0.62214 0.66013 0.0
C1239 C 0.71144 0.5683 0.65904 0.0
C1240 C 0.73503 0.56011 0.65828 0.0
C1241 C 0.72013 0.5995 0.65963 0.0
C1242 C 0.76711 0.58381 0.65888 0.0
H1243 H 0.80398 0.51672 0.64863 0.0
N1244 N 0.82155 0.60045 0.65652 0.0
C1245 C 0.83974 0.56478 0.64975 0.0
C1246 C 0.79106 0.57685 0.65674 0.0
C1247 C 0.8458 0.59501 0.65243 0.0
C1248 C 0.80861 0.54011 0.65076 0.0
C1249 C 0.78374 0.54598 0.65403 0.0
O1250 O 0.85656 0.66425 0.63642 0.0
O1251 O 0.86963 0.6917 0.67712 0.0
O1252 O 0.84911 0.72405 0.68706 0.0
O1253 O 0.81393 0.6865 0.66617 0.0
O1254 O 0.88223 0.66659 0.65959 0.0
O1255 O 0.81021 0.65979 0.63742 0.0
O1256 O 0.83663 0.68696 0.73482 0.0
O1257 O 0.81941 0.65521 0.6923 0.0
O1258 O 0.83518 0.62015 0.68398 0.0
O1259 O 0.87369 0.65829 0.70314 0.0
O1260 O 0.80625 0.6775 0.71147 0.0
O1261 O 0.87524 0.6781 0.73046 0.0
C1262 C 0.89304 0.69052 0.67029 0.0
C1263 C 0.82798 0.65108 0.60824 0.0
C1264 C 0.83195 0.65644 0.57405 0.0
C1265 C 0.83498 0.66948 0.59204 0.0
C1266 C 0.82124 0.62451 0.57281 0.0
C1267 C 0.81695 0.61936 0.60645 0.0
C1268 C 0.81356 0.6062 0.58882 0.0
C1269 C 0.82732 0.71454 0.67375 0.0
C1270 C 0.83446 0.66548 0.62692 0.0
C1271 C 0.7519 0.52213 0.65424 0.0
C1272 C 0.72758 0.52919 0.65637 0.0
C1273 C 0.79577 0.65501 0.69971 0.0
C1274 C 0.86814 0.6915 0.7611 0.0
C1275 C 0.85572 0.67301 0.77723 0.0
C1276 C 0.86844 0.68494 0.79503 0.0
C1277 C 0.89366 0.7156 0.79635 0.0
C1278 C 0.8931 0.72206 0.76285 0.0
C1279 C 0.90574 0.73399 0.7804 0.0
C1280 C 0.85779 0.62951 0.69673 0.0
C1281 C 0.85535 0.67854 0.74251 0.0
H1282 H 0.84269 0.69382 0.59355 0.0
H1283 H 0.81913 0.61359 0.55941 0.0
H1284 H 0.81145 0.60487 0.61868 0.0
H1285 H 0.80536 0.58173 0.58756 0.0
H1286 H 0.8366 0.64929 0.77588 0.0
H1287 H 0.90386 0.72547 0.80981 0.0
H1288 H 0.90289 0.7366 0.75064 0.0
H1289 H 0.92506 0.75759 0.78166 0.0
Eu1290 Eu 0.36689 0.18025 0.66118 0.0
C1291 C 0.23798 0.12492 0.70405 0.0
C1292 C 0.22155 0.16324 0.70167 0.0
C1293 C 0.18181 0.10865 0.70334 0.0
C1294 C 0.24567 0.15544 0.70236 0.0
C1295 C 0.20597 0.10118 0.70493 0.0
C1296 C 0.18959 0.13964 0.70172 0.0
C1297 C 0.22416 0.06481 0.71038 0.0
N1298 N 0.26188 0.11859 0.70573 0.0
C1299 C 0.25552 0.08921 0.70957 0.0
C1300 C 0.19925 0.07076 0.70784 0.0
Eu1301 Eu 0.31438 0.16066 0.70269 0.0
N1302 N 0.27676 0.17762 0.70244 0.0
C1303 C 0.28532 0.20813 0.70339 0.0
C1304 C 0.23028 0.19454 0.70147 0.0
C1305 C 0.26231 0.21708 0.70267 0.0
H1306 H 0.27473 0.08448 0.71136 0.0
H1307 H 0.26933 0.24136 0.7029 0.0
H1308 H 0.17073 0.14516 0.70097 0.0
H1309 H 0.21922 0.04145 0.71295 0.0
H1310 H 0.30993 0.22574 0.70424 0.0
H1311 H 0.41723 0.10403 0.66333 0.0
H1312 H 0.2125 0.20152 0.70085 0.0
H1313 H 0.40365 0.25645 0.65167 0.0
H1314 H 0.37475 0.11713 0.66119 0.0
H1315 H 0.45823 0.30087 0.64977 0.0
H1316 H 0.15706 0.09072 0.70381 0.0
H1317 H 0.47338 0.14577 0.6649 0.0
H1318 H 0.5132 0.20267 0.66385 0.0
H1319 H 0.17497 0.05185 0.70856 0.0
H1320 H 0.52436 0.25621 0.66006 0.0
N1321 N 0.40627 0.16566 0.66205 0.0
C1322 C 0.39909 0.1355 0.6618 0.0
C1323 C 0.45479 0.15162 0.66393 0.0
C1324 C 0.46208 0.1825 0.66306 0.0
C1325 C 0.42315 0.12801 0.663 0.0
C1326 C 0.43696 0.18885 0.66193 0.0
H1327 H 0.50404 0.293 0.65456 0.0
N1328 N 0.41842 0.22391 0.65792 0.0
C1329 C 0.45434 0.27795 0.65266 0.0
C1330 C 0.44325 0.21891 0.65978 0.0
C1331 C 0.42346 0.25273 0.65369 0.0
C1332 C 0.48014 0.27342 0.65542 0.0
C1333 C 0.47481 0.24357 0.65875 0.0
O1334 O 0.35763 0.19338 0.63393 0.0
O1335 O 0.32246 0.17575 0.67311 0.0
O1336 O 0.28793 0.12548 0.67998 0.0
O1337 O 0.33041 0.1283 0.66312 0.0
O1338 O 0.34815 0.2133 0.65595 0.0
O1339 O 0.36365 0.15344 0.63617 0.0
O1340 O 0.31653 0.14338 0.73032 0.0
O1341 O 0.35839 0.16452 0.69073 0.0
O1342 O 0.39391 0.21537 0.68368 0.0
O1343 O 0.35182 0.21255 0.70102 0.0
O1344 O 0.33293 0.12755 0.70821 0.0
O1345 O 0.32511 0.19016 0.72724 0.0
C1346 C 0.32267 0.19883 0.66584 0.0
C1347 C 0.37858 0.18162 0.60774 0.0
C1348 C 0.38039 0.18608 0.57367 0.0
C1349 C 0.36319 0.17369 0.59036 0.0
C1350 C 0.41352 0.2057 0.5748 0.0
C1351 C 0.41157 0.20097 0.60847 0.0
C1352 C 0.42894 0.21279 0.59205 0.0
C1353 C 0.30007 0.11365 0.66823 0.0
C1354 C 0.35956 0.1717 0.62494 0.0
C1355 C 0.49994 0.23754 0.66065 0.0
C1356 C 0.49359 0.20706 0.66281 0.0
C1357 C 0.35833 0.14168 0.69825 0.0
C1358 C 0.3034 0.16471 0.75583 0.0
C1359 C 0.31744 0.16715 0.77331 0.0
C1360 C 0.30042 0.16396 0.78984 0.0
C1361 C 0.26916 0.15836 0.78865 0.0
C1362 C 0.27206 0.15876 0.75486 0.0
C1363 C 0.25506 0.15562 0.77123 0.0
C1364 C 0.38215 0.22699 0.69581 0.0
C1365 C 0.32197 0.16866 0.73884 0.0
H1366 H 0.33779 0.15799 0.58995 0.0
H1367 H 0.42756 0.21597 0.56235 0.0
H1368 H 0.42382 0.20729 0.62171 0.0
H1369 H 0.4544 0.22795 0.59271 0.0
H1370 H 0.34179 0.17209 0.77404 0.0
H1371 H 0.25562 0.15591 0.80118 0.0
H1372 H 0.26085 0.15672 0.7415 0.0
H1373 H 0.23091 0.15114 0.77043 0.0
Eu1374 Eu 0.85431 0.16112 0.70788 0.0
C1375 C 0.77996 0.2087 0.65922 0.0
C1376 C 0.72532 0.16924 0.66414 0.0
C1377 C 0.73848 0.2223 0.6584 0.0
C1378 C 0.75785 0.17849 0.66311 0.0
C1379 C 0.77051 0.23082 0.65614 0.0
C1380 C 0.71588 0.1915 0.66242 0.0
C1381 C 0.82421 0.26673 0.64648 0.0
N1382 N 0.81047 0.21586 0.6569 0.0
C1383 C 0.83228 0.24388 0.6497 0.0
C1384 C 0.79331 0.26039 0.65011 0.0
Eu1385 Eu 0.82392 0.17754 0.66422 0.0
N1386 N 0.76794 0.15772 0.66445 0.0
C1387 C 0.74626 0.12678 0.66491 0.0
C1388 C 0.70324 0.13776 0.66607 0.0
C1389 C 0.71373 0.11638 0.66599 0.0
H1390 H 0.85619 0.24881 0.64688 0.0
H1391 H 0.69681 0.09188 0.66694 0.0
H1392 H 0.69107 0.18493 0.66346 0.0
H1393 H 0.84179 0.28917 0.64119 0.0
H1394 H 0.75371 0.10983 0.66503 0.0
H1395 H 0.98122 0.24603 0.70931 0.0
H1396 H 0.67805 0.12967 0.66696 0.0
H1397 H 0.81837 0.08557 0.71803 0.0
H1398 H 0.9241 0.22835 0.70976 0.0
H1399 H 0.83212 0.04426 0.7211 0.0
H1400 H 0.73078 0.23905 0.65638 0.0
H1401 H 0.9995 0.20788 0.70833 0.0
H1402 H 0.98582 0.15221 0.7093 0.0
H1403 H 0.78705 0.27805 0.64753 0.0
H1404 H 0.94525 0.09727 0.71271 0.0
N1405 N 0.90981 0.18049 0.70863 0.0
C1406 C 0.93157 0.21135 0.70945 0.0
C1407 C 0.97431 0.19993 0.70858 0.0
C1408 C 0.9519 0.16833 0.70898 0.0
C1409 C 0.96409 0.22153 0.7092 0.0
C1410 C 0.9194 0.15923 0.70922 0.0
H1411 H 0.88794 0.05686 0.71748 0.0
N1412 N 0.8658 0.12078 0.71242 0.0
C1413 C 0.8505 0.06781 0.71827 0.0
C1414 C 0.89668 0.1284 0.71122 0.0
C1415 C 0.84281 0.09121 0.71662 0.0
C1416 C 0.88202 0.07501 0.71617 0.0
C1417 C 0.90565 0.10569 0.71289 0.0
O1418 O 0.83354 0.14318 0.73538 0.0
O1419 O 0.81508 0.16522 0.69453 0.0
O1420 O 0.83844 0.21903 0.68312 0.0
O1421 O 0.86855 0.21205 0.70625 0.0
O1422 O 0.80162 0.12777 0.712 0.0
O1423 O 0.87072 0.19095 0.73244 0.0
O1424 O 0.84467 0.19221 0.63632 0.0
O1425 O 0.86377 0.17545 0.6781 0.0
O1426 O 0.84736 0.12535 0.68616 0.0
O1427 O 0.80825 0.1264 0.66814 0.0
O1428 O 0.87642 0.21155 0.65977 0.0
O1429 O 0.80888 0.14466 0.64111 0.0
C1430 C 0.79141 0.14233 0.70193 0.0
C1431 C 0.86645 0.1671 0.76157 0.0
C1432 C 0.86905 0.17041 0.79565 0.0
C1433 C 0.8545 0.17073 0.77873 0.0
C1434 C 0.89551 0.16619 0.79515 0.0
C1435 C 0.89267 0.16259 0.76141 0.0
C1436 C 0.90707 0.16211 0.77814 0.0
C1437 C 0.85793 0.22862 0.69766 0.0
C1438 C 0.85206 0.16914 0.74397 0.0
C1439 C 0.93788 0.11442 0.71168 0.0
C1440 C 0.96098 0.1457 0.70972 0.0
C1441 C 0.88723 0.19861 0.67079 0.0
C1442 C 0.81259 0.16429 0.61068 0.0
C1443 C 0.82763 0.16309 0.59417 0.0
C1444 C 0.8133 0.16024 0.57662 0.0
C1445 C 0.78402 0.15954 0.57597 0.0
C1446 C 0.78355 0.16374 0.60967 0.0
C1447 C 0.76944 0.16147 0.59236 0.0
C1448 C 0.82411 0.11277 0.67385 0.0
C1449 C 0.82705 0.16514 0.62883 0.0
H1450 H 0.83438 0.17446 0.7789 0.0
H1451 H 0.90711 0.16583 0.80797 0.0
H1452 H 0.90215 0.15974 0.74836 0.0
H1453 H 0.92738 0.15875 0.77793 0.0
H1454 H 0.85052 0.16445 0.59509 0.0
H1455 H 0.7721 0.15706 0.5628 0.0
H1456 H 0.77173 0.16479 0.62224 0.0
H1457 H 0.74691 0.16084 0.59164 0.0
C1458 C 0.39549 0.90766 0.0443 0.0
C1459 C 0.36928 0.91235 0.04599 0.0
C1460 C 0.425 0.93121 0.03772 0.0
C1461 C 0.42934 0.9603 0.03279 0.0
H1462 H 0.39377 0.88628 0.04902 0.0
H1463 H 0.44493 0.92722 0.03758 0.0
S1464 S 0.36757 0.98283 0.03132 0.0
N1465 N 0.34884 0.94696 0.03924 0.0
N1466 N 0.40477 0.99165 0.02809 0.0
C1467 C 0.40312 0.96476 0.03341 0.0
C1468 C 0.37296 0.94065 0.03962 0.0
C1469 C 0.12521 0.50506 0.05184 0.0
C1470 C 0.11719 0.47399 0.05434 0.0
C1471 C 0.10253 0.5128 0.04585 0.0
C1472 C 0.07111 0.48978 0.04199 0.0
H1473 H 0.14902 0.52352 0.05494 0.0
H1474 H 0.10938 0.537 0.04471 0.0
S1475 S 0.03739 0.40527 0.04768 0.0
N1476 N 0.0753 0.4202 0.053 0.0
N1477 N 0.03263 0.43486 0.04231 0.0
C1478 C 0.06276 0.45872 0.04451 0.0
C1479 C 0.08587 0.45079 0.05041 0.0
C1480 C 0.52372 0.62776 0.04709 0.0
C1481 C 0.55522 0.64832 0.0526 0.0
C1482 C 0.51507 0.59901 0.03912 0.0
C1483 C 0.53708 0.58882 0.03711 0.0
H1484 H 0.50526 0.63356 0.04918 0.0
H1485 H 0.49075 0.58444 0.03481 0.0
S1486 S 0.6234 0.635 0.04652 0.0
N1487 N 0.6095 0.65779 0.05284 0.0
N1488 N 0.59231 0.60253 0.03942 0.0
C1489 C 0.56876 0.60922 0.04205 0.0
C1490 C 0.57799 0.63915 0.04947 0.0
C1491 C 0.91195 0.3784 0.97909 0.0
C1492 C 0.90628 0.3515 0.98853 0.0
C1493 C 0.93336 0.40774 0.98613 0.0
C1494 C 0.94935 0.41134 1.00313 0.0
H1495 H 0.89999 0.37673 0.96604 0.0
H1496 H 0.93717 0.42779 0.97822 0.0
S1497 S 0.94259 0.34787 0.03316 0.0
N1498 N 0.91841 0.32994 0.01552 0.0
N1499 N 0.95815 0.38528 0.02913 0.0
C1500 C 0.94371 0.38454 1.01278 0.0
C1501 C 0.92231 0.35457 1.00537 0.0
C1502 C 0.62215 0.51182 0.98754 0.0
C1503 C 0.64868 0.5418 0.98539 0.0
C1504 C 0.59265 0.5073 0.9939 0.0
C1505 C 0.58864 0.53261 0.99832 0.0
H1506 H 0.62374 0.49172 0.98351 0.0
H1507 H 0.57258 0.48398 0.99455 0.0
S1508 S 0.6512 0.61526 0.9979 0.0
N1509 N 0.66949 0.59681 0.99069 0.0
N1510 N 0.61395 0.58829 1.00156 0.0
C1511 C 0.61515 0.56245 0.99701 0.0
C1512 C 0.64519 0.56705 0.99092 0.0
C1513 C 0.45421 0.07838 0.97517 0.0
C1514 C 0.47334 0.11064 0.97707 0.0
C1515 C 0.46216 0.05813 0.98393 0.0
C1516 C 0.48964 0.06919 0.99499 0.0
H1517 H 0.43308 0.06861 0.96659 0.0
H1518 H 0.44652 0.03353 0.98193 0.0
S1519 S 0.54788 0.15176 1.00447 0.0
N1520 N 0.52071 0.15279 0.99123 0.0
N1521 N 0.53638 0.11477 1.00706 0.0
C1522 C 0.50905 0.10143 0.99703 0.0
C1523 C 0.50078 0.12211 0.9882 0.0
C1524 C 0.62471 0.10235 0.99043 0.0
C1525 C 0.65109 0.09828 0.98788 0.0
C1526 C 0.59554 0.07797 0.99685 0.0
C1527 C 0.59181 0.04867 1.0006 0.0
H1528 H 0.62644 0.12428 0.98701 0.0
H1529 H 0.57547 0.08164 0.99795 0.0
S1530 S 0.65391 0.02666 0.99707 0.0
N1531 N 0.67199 0.06331 0.99056 0.0
N1532 N 0.61704 0.01735 1.00208 0.0
C1533 C 0.61823 0.04467 0.99862 0.0
C1534 C 0.64796 0.06955 0.99246 0.0
C1535 C 0.93583 0.56415 0.99625 0.0
C1536 C 0.90926 0.53929 0.98766 0.0
C1537 C 0.96088 0.5607 1.00329 0.0
C1538 C 0.9599 0.53208 1.00251 0.0
H1539 H 0.93786 0.58675 0.99688 0.0
H1540 H 0.98139 0.58069 1.00918 0.0
S1541 S 0.89529 0.45953 0.98203 0.0
N1542 N 0.88319 0.48483 0.97932 0.0
N1543 N 0.93012 0.47844 0.99249 0.0
C1544 C 0.93319 0.5069 0.99434 0.0
C1545 C 0.90788 0.51046 0.98701 0.0
C1546 C 0.49143 0.36924 0.98997 0.0
C1547 C 0.4676 0.3558 0.97636 0.0
C1548 C 0.49901 0.39754 0.99831 0.0
C1549 C 0.48261 0.41323 0.99363 0.0
H1550 H 0.50477 0.35809 0.99394 0.0
H1551 H 0.51818 0.40727 1.00832 0.0
S1552 S 0.41703 0.38651 0.95909 0.0
N1553 N 0.42713 0.3595 0.95872 0.0
N1554 N 0.44073 0.41233 0.97449 0.0
C1555 C 0.45834 0.39962 0.98012 0.0
C1556 C 0.45098 0.371 0.97149 0.0
C1557 C 0.11847 0.64509 0.03807 0.0
C1558 C 0.12011 0.65056 0.05744 0.0
C1559 C 0.0963 0.61634 0.03047 0.0
C1560 C 0.07496 0.59181 0.04192 0.0
H1561 H 0.13465 0.6631 0.02866 0.0
H1562 H 0.09571 0.61354 0.0155 0.0
S1563 S 0.06924 0.59407 0.09359 0.0
N1564 N 0.09756 0.62918 0.08787 0.0
N1565 N 0.05741 0.57476 0.07377 0.0
C1566 C 0.07643 0.59691 0.06134 0.0
C1567 C 0.09865 0.62631 0.06904 0.0
C1568 C 0.37147 0.43234 0.04423 0.0
C1569 C 0.36721 0.45725 0.04925 0.0
C1570 C 0.40098 0.43733 0.03773 0.0
C1571 C 0.42715 0.46742 0.03553 0.0
H1572 H 0.35228 0.4088 0.04614 0.0
H1573 H 0.40358 0.41742 0.03477 0.0
S1574 S 0.42742 0.54038 0.04585 0.0
N1575 N 0.39093 0.51298 0.05087 0.0
N1576 N 0.44629 0.52244 0.03865 0.0
C1577 C 0.42276 0.49251 0.03989 0.0
C1578 C 0.39281 0.48739 0.0467 0.0
C1579 C 0.57192 0.93028 0.05485 0.0
C1580 C 0.55299 0.89812 0.05295 0.0
C1581 C 0.56241 0.95017 0.0472 0.0
C1582 C 0.53347 0.93861 0.0375 0.0
H1583 H 0.59426 0.94012 0.06228 0.0
H1584 H 0.57802 0.97481 0.04893 0.0
S1585 S 0.47422 0.85559 0.03031 0.0
N1586 N 0.50367 0.85523 0.0415 0.0
N1587 N 0.4851 0.89244 0.02757 0.0
C1588 C 0.51411 0.90628 0.03581 0.0
C1589 C 0.52404 0.88608 0.04344 0.0
C1590 C 0.06089 0.23533 0.3838 0.0
C1591 C 0.03279 0.23645 0.38116 0.0
C1592 C 0.09024 0.25913 0.37723 0.0
C1593 C 0.09242 0.28451 0.36747 0.0
H1594 H 0.06046 0.21676 0.39184 0.0
H1595 H 0.11156 0.25836 0.38054 0.0
S1596 S 0.0259 0.29715 0.35529 0.0
N1597 N 0.00891 0.26404 0.3668 0.0
N1598 N 0.06421 0.30888 0.35481 0.0
C1599 C 0.06451 0.28538 0.36415 0.0
C1600 C 0.03463 0.26122 0.37079 0.0
C1601 C 0.77232 0.82721 0.38104 0.0
C1602 C 0.77015 0.79818 0.38325 0.0
C1603 C 0.74638 0.82965 0.37454 0.0
C1604 C 0.71728 0.80313 0.37016 0.0
H1605 H 0.7941 0.84817 0.38458 0.0
H1606 H 0.74886 0.85238 0.37353 0.0
S1607 S 0.69924 0.72186 0.3735 0.0
N1608 N 0.73658 0.74246 0.38031 0.0
N1609 N 0.68782 0.74709 0.36847 0.0
C1610 C 0.71488 0.77407 0.37224 0.0
C1611 C 0.74136 0.77158 0.37856 0.0
C1612 C 0.18571 0.96022 0.38288 0.0
C1613 C 0.21811 0.98225 0.38517 0.0
C1614 C 0.17605 0.93086 0.37537 0.0
C1615 C 0.19837 0.92215 0.37026 0.0
H1616 H 0.16757 0.96547 0.38718 0.0
H1617 H 0.15088 0.91464 0.37389 0.0
S1618 S 0.28586 0.97188 0.3713 0.0
N1619 N 0.27249 0.99395 0.37985 0.0
N1620 N 0.25407 0.93825 0.36666 0.0
C1621 C 0.23072 0.94391 0.37214 0.0
C1622 C 0.24065 0.97406 0.37938 0.0
C1623 C 0.55552 0.70032 0.32515 0.0
C1624 C 0.56505 0.6883 0.3103 0.0
C1625 C 0.57631 0.72929 0.33302 0.0
C1626 C 0.60784 0.7474 0.3267 0.0
H1627 H 0.53182 0.68712 0.33091 0.0
H1628 H 0.56735 0.73746 0.34414 0.0
S1629 S 0.64371 0.72784 0.28681 0.0
N1630 N 0.60734 0.69806 0.28842 0.0
N1631 N 0.64682 0.75167 0.30371 0.0
C1632 C 0.61751 0.73588 0.31158 0.0
C1633 C 0.59611 0.70657 0.30334 0.0
C1634 C 0.28027 0.84057 0.31898 0.0
C1635 C 0.30774 0.86969 0.31644 0.0
C1636 C 0.2517 0.83802 0.32551 0.0
C1637 C 0.24951 0.86453 0.32948 0.0
H1638 H 0.28079 0.81966 0.31565 0.0
H1639 H 0.23095 0.81523 0.32679 0.0
S1640 S 0.3144 0.94595 0.32519 0.0
N1641 N 0.33088 0.9254 0.31877 0.0
N1642 N 0.27718 0.92062 0.33043 0.0
C1643 C 0.27683 0.89364 0.32712 0.0
C1644 C 0.30596 0.89622 0.32085 0.0
C1645 C 0.09548 0.40366 0.32479 0.0
C1646 C 0.11522 0.43611 0.32445 0.0
C1647 C 0.1063 0.38434 0.33168 0.0
C1648 C 0.13702 0.39652 0.33905 0.0
H1649 H 0.07152 0.39289 0.3194 0.0
H1650 H 0.09053 0.35956 0.33097 0.0
S1651 S 0.19769 0.47956 0.34288 0.0
N1652 N 0.16729 0.47939 0.33262 0.0
N1653 N 0.18636 0.44293 0.34685 0.0
C1654 C 0.15641 0.4288 0.33989 0.0
C1655 C 0.14584 0.4486 0.33231 0.0
C1656 C 0.29714 0.40292 0.31793 0.0
C1657 C 0.31035 0.43519 0.31715 0.0
C1658 C 0.26621 0.38376 0.32474 0.0
C1659 C 0.24749 0.39631 0.33086 0.0
H1660 H 0.31048 0.3924 0.31275 0.0
H1661 H 0.25637 0.35891 0.32451 0.0
S1662 S 0.27129 0.4793 0.33151 0.0
N1663 N 0.30284 0.47886 0.32336 0.0
N1664 N 0.24431 0.44279 0.33543 0.0
C1665 C 0.2606 0.4285 0.33024 0.0
C1666 C 0.29223 0.448 0.32368 0.0
C1667 C 0.56891 0.84229 0.31961 0.0
C1668 C 0.57158 0.8715 0.31712 0.0
C1669 C 0.59466 0.83951 0.32614 0.0
C1670 C 0.62412 0.86588 0.33013 0.0
H1671 H 0.54688 0.82146 0.31625 0.0
H1672 H 0.59177 0.81663 0.32746 0.0
S1673 S 0.64325 0.94746 0.32638 0.0
N1674 N 0.6058 0.92717 0.31973 0.0
N1675 N 0.65425 0.92194 0.33147 0.0
C1676 C 0.62694 0.8951 0.32788 0.0
C1677 C 0.60063 0.89792 0.32161 0.0
C1678 C 0.15095 0.70638 0.31587 0.0
C1679 C 0.11878 0.68622 0.3117 0.0
C1680 C 0.16107 0.73565 0.32369 0.0
C1681 C 0.13945 0.74604 0.32716 0.0
H1682 H 0.16834 0.69932 0.31321 0.0
H1683 H 0.18606 0.75045 0.32674 0.0
S1684 S 0.0525 0.70153 0.31915 0.0
N1685 N 0.06529 0.67818 0.31203 0.0
N1686 N 0.08429 0.73334 0.32638 0.0
C1687 C 0.10721 0.72598 0.3231 0.0
C1688 C 0.09687 0.69602 0.31547 0.0
C1689 C 0.78735 0.95807 0.38405 0.0
C1690 C 0.77849 0.98031 0.38795 0.0
C1691 C 0.76563 0.92929 0.37637 0.0
C1692 C 0.73403 0.9214 0.37273 0.0
H1693 H 0.81134 0.96308 0.38683 0.0
H1694 H 0.77358 0.91293 0.37346 0.0
S1695 S 0.69929 0.97191 0.38009 0.0
N1696 N 0.73638 0.99298 0.38726 0.0
N1697 N 0.69532 0.9386 0.37312 0.0
C1698 C 0.72491 0.94348 0.37655 0.0
C1699 C 0.74722 0.97303 0.38406 0.0
C1700 C 0.05914 0.82668 0.37875 0.0
C1701 C 0.0318 0.79737 0.38096 0.0
C1702 C 0.08782 0.82971 0.37208 0.0
C1703 C 0.09025 0.80347 0.36768 0.0
H1704 H 0.05848 0.84737 0.38253 0.0
H1705 H 0.1085 0.85259 0.37114 0.0
S1706 S 0.02562 0.72176 0.37055 0.0
N1707 N 0.00889 0.74182 0.37755 0.0
N1708 N 0.06286 0.74747 0.36563 0.0
C1709 C 0.063 0.77419 0.36953 0.0
C1710 C 0.03374 0.77114 0.37594 0.0
C1711 C 0.1995 0.23382 0.3841 0.0
C1712 C 0.22764 0.23558 0.3775 0.0
C1713 C 0.18861 0.25281 0.37685 0.0
C1714 C 0.20502 0.27394 0.36246 0.0
H1715 H 0.18602 0.218 0.39525 0.0
H1716 H 0.16741 0.25137 0.38281 0.0
S1717 S 0.27938 0.28754 0.33987 0.0
N1718 N 0.27154 0.26025 0.35546 0.0
N1719 N 0.25025 0.29539 0.3415 0.0
C1720 C 0.23241 0.27525 0.35513 0.0
C1721 C 0.24388 0.25615 0.36271 0.0
C1722 C 0.72874 0.57466 0.71152 0.0
C1723 C 0.70259 0.57941 0.71349 0.0
C1724 C 0.75862 0.59865 0.70565 0.0
C1725 C 0.76343 0.62825 0.70166 0.0
H1726 H 0.72662 0.55278 0.71547 0.0
H1727 H 0.77842 0.59448 0.70529 0.0
S1728 S 0.70221 0.65156 0.70135 0.0
N1729 N 0.68294 0.61504 0.7081 0.0
N1730 N 0.73942 0.66034 0.69825 0.0
C1731 C 0.73734 0.6329 0.70262 0.0
C1732 C 0.70684 0.60842 0.70814 0.0
C1733 C 0.44185 0.16299 0.71316 0.0
C1734 C 0.43922 0.13387 0.71595 0.0
C1735 C 0.41605 0.16555 0.70654 0.0
C1736 C 0.38663 0.13907 0.70266 0.0
H1737 H 0.46389 0.18392 0.71636 0.0
H1738 H 0.41888 0.18836 0.70505 0.0
S1739 S 0.36737 0.05762 0.70765 0.0
N1740 N 0.40493 0.07812 0.71406 0.0
N1741 N 0.35638 0.08298 0.70211 0.0
C1742 C 0.38379 0.10992 0.70531 0.0
C1743 C 0.41013 0.1073 0.71172 0.0
C1744 C 0.87344 0.29039 0.73347 0.0
C1745 C 0.88427 0.31713 0.72253 0.0
C1746 C 0.86508 0.26183 0.72522 0.0
C1747 C 0.86737 0.25916 0.70579 0.0
H1748 H 0.87106 0.29154 0.74845 0.0
H1749 H 0.85634 0.24161 0.73408 0.0
S1750 S 0.89835 0.3233 0.67154 0.0
N1751 N 0.89891 0.33982 0.69164 0.0
N1752 N 0.88428 0.28629 0.67621 0.0
C1753 C 0.8791 0.28596 0.69484 0.0
C1754 C 0.88731 0.31496 0.70321 0.0
C1755 C 0.22652 0.0439 0.64876 0.0
C1756 C 0.23618 0.02177 0.64637 0.0
C1757 C 0.24723 0.07343 0.65601 0.0
C1758 C 0.27864 0.08226 0.66081 0.0
H1759 H 0.20289 0.03861 0.64471 0.0
H1760 H 0.23876 0.08968 0.65754 0.0
S1761 S 0.31487 0.0323 0.65945 0.0
N1762 N 0.27865 0.01015 0.65126 0.0
N1763 N 0.31778 0.06603 0.66404 0.0
C1764 C 0.28852 0.06036 0.65886 0.0
C1765 C 0.26728 0.03007 0.65184 0.0
C1766 C 0.95288 0.18191 0.6574 0.0
C1767 C 0.97925 0.21186 0.65484 0.0
C1768 C 0.92344 0.17749 0.66371 0.0
C1769 C 0.91927 0.20283 0.66768 0.0
H1770 H 0.95451 0.16171 0.6537 0.0
H1771 H 0.90349 0.15417 0.66462 0.0
S1772 S 0.98134 0.28556 0.66611 0.0
N1773 N 0.99977 0.26704 0.65925 0.0
N1774 N 0.9442 0.25857 0.6701 0.0
C1775 C 0.94558 0.23269 0.66594 0.0
C1776 C 0.97562 0.23724 0.65989 0.0
C1777 C 0.77656 0.74377 0.65121 0.0
C1778 C 0.79632 0.7762 0.6514 0.0
C1779 C 0.78665 0.72415 0.65864 0.0
C1780 C 0.81665 0.73602 0.66702 0.0
H1781 H 0.753 0.73327 0.64525 0.0
H1782 H 0.77062 0.69943 0.65785 0.0
S1783 S 0.8773 0.81907 0.67192 0.0
N1784 N 0.8479 0.81913 0.66058 0.0
N1785 N 0.86544 0.78233 0.67593 0.0
C1786 C 0.83619 0.76834 0.66802 0.0
C1787 C 0.8264 0.78836 0.65989 0.0
C1788 C 0.98054 0.73376 0.65821 0.0
C1789 C 0.986 0.76324 0.65322 0.0
C1790 C 0.95065 0.71086 0.66473 0.0
C1791 C 0.92546 0.71687 0.667 0.0
H1792 H 0.99895 0.72788 0.65614 0.0
H1793 H 0.9469 0.68794 0.66752 0.0
S1794 S 0.92861 0.79105 0.65669 0.0
N1795 N 0.96457 0.79773 0.65164 0.0
N1796 N 0.9085 0.75489 0.66407 0.0
C1797 C 0.93116 0.74672 0.66284 0.0
C1798 C 0.96144 0.76985 0.65594 0.0
C1799 C 0.23873 0.17851 0.65259 0.0
C1800 C 0.24141 0.20778 0.65042 0.0
C1801 C 0.26475 0.17561 0.65834 0.0
C1802 C 0.29446 0.20188 0.66197 0.0
H1803 H 0.21643 0.15772 0.64962 0.0
H1804 H 0.26178 0.15268 0.65944 0.0
S1805 S 0.31407 0.2836 0.6583 0.0
N1806 N 0.27618 0.26345 0.65252 0.0
N1807 N 0.3251 0.25794 0.6629 0.0
C1808 C 0.29743 0.23118 0.65985 0.0
C1809 C 0.27087 0.23414 0.65431 0.0
C1810 C 0.77391 0.033 0.65266 0.0
C1811 C 0.79595 0.02304 0.64986 0.0
C1812 C 0.78322 0.06199 0.66058 0.0
C1813 C 0.81476 0.08178 0.66628 0.0
H1814 H 0.74948 0.01856 0.64831 0.0
H1815 H 0.7655 0.06885 0.66227 0.0
S1816 S 0.88113 0.06554 0.66265 0.0
N1817 N 0.85033 0.03452 0.65374 0.0
N1818 N 0.86784 0.08885 0.66894 0.0
C1819 C 0.83683 0.07164 0.66398 0.0
C1820 C 0.82742 0.04232 0.65565 0.0
C1821 C 0.45699 0.29447 0.71582 0.0
C1822 C 0.44856 0.31742 0.71859 0.0
C1823 C 0.4354 0.26542 0.70835 0.0
C1824 C 0.40427 0.25785 0.70369 0.0
H1825 H 0.48035 0.29877 0.71971 0.0
H1826 H 0.443 0.24856 0.7065 0.0
S1827 S 0.3711 0.31033 0.70605 0.0
N1828 N 0.40751 0.33118 0.71429 0.0
N1829 N 0.36674 0.27615 0.70098 0.0
C1830 C 0.39559 0.28054 0.70604 0.0
C1831 C 0.41774 0.31038 0.71332 0.0
C1832 C 0.70474 0.10739 0.71557 0.0
C1833 C 0.7014 0.13343 0.71872 0.0
C1834 C 0.73382 0.11062 0.70969 0.0
C1835 C 0.76038 0.13994 0.7062 0.0
H1836 H 0.68503 0.0844 0.71829 0.0
H1837 H 0.73562 0.08999 0.70797 0.0
S1838 S 0.76371 0.21538 0.71204 0.0
N1839 N 0.72689 0.18946 0.71774 0.0
N1840 N 0.78137 0.19553 0.70651 0.0
C1841 C 0.75715 0.16614 0.70898 0.0
C1842 C 0.72768 0.16286 0.71523 0.0
C1843 C 0.84992 0.55665 0.71815 0.0
C1844 C 0.88172 0.56474 0.72114 0.0
C1845 C 0.84229 0.57733 0.70952 0.0
C1846 C 0.86623 0.607 0.70408 0.0
H1847 H 0.83086 0.53421 0.72253 0.0
H1848 H 0.81753 0.57045 0.70764 0.0
S1849 S 0.95303 0.63869 0.70799 0.0
N1850 N 0.93721 0.6038 0.71728 0.0
N1851 N 0.92286 0.64279 0.70135 0.0
C1852 C 0.89805 0.61509 0.70668 0.0
C1853 C 0.90581 0.5939 0.71515 0.0
C1854 C 0.5245 0.97594 0.17383 0.0
C1855 C 0.49222 0.96138 0.17889 0.0
C1856 C 0.53548 0.99245 0.157 0.0
C1857 C 0.5146 0.99472 0.14435 0.0
H1858 H 0.54159 0.97526 0.18319 0.0
H1859 H 0.56063 0.00376 0.15392 0.0
S1860 S 0.42759 0.95957 0.15051 0.0
N1861 N 0.43931 0.94948 0.16954 0.0
N1862 N 0.45992 0.9803 0.13789 0.0
C1863 C 0.48215 0.97959 0.14899 0.0
C1864 C 0.471 0.96308 0.16626 0.0
C1865 C 0.98516 0.46114 0.17677 0.0
C1866 C 1.00073 0.49253 0.18219 0.0
C1867 C 0.96971 0.45149 0.15948 0.0
C1868 C 0.96959 0.47287 0.14682 0.0
H1869 H 0.98524 0.44385 0.18584 0.0
H1870 H 0.95828 0.42718 0.15584 0.0
S1871 S 1.00479 0.55718 0.15433 0.0
N1872 N 0.01313 0.54463 0.17363 0.0
N1873 N 0.98522 0.52645 0.14088 0.0
C1874 C 0.98481 0.50419 0.15196 0.0
C1875 C 1.00012 0.51402 0.16968 0.0
C1876 C 0.51703 0.528 0.16767 0.0
C1877 C 0.49692 0.50347 0.17955 0.0
C1878 C 0.52568 0.52236 0.14998 0.0
C1879 C 0.51505 0.492 0.14376 0.0
H1880 H 0.52611 0.55172 0.17209 0.0
H1881 H 0.54141 0.54186 0.14131 0.0
S1882 S 0.46189 0.41981 0.16946 0.0
N1883 N 0.46626 0.44775 0.18369 0.0
N1884 N 0.48305 0.43718 0.15066 0.0
C1885 C 0.49482 0.46732 0.15545 0.0
C1886 C 0.4856 0.47304 0.17328 0.0
C1887 C 0.00776 0.47465 0.86407 0.0
C1888 C 0.99606 0.49377 0.85775 0.0
C1889 C 0.02297 0.47969 0.88138 0.0
C1890 C 0.02674 0.50381 0.89317 0.0
H1891 H 1.00492 0.45539 0.85565 0.0
H1892 H 0.03153 0.46437 0.88568 0.0
S1893 S 1.00207 0.5615 0.88307 0.0
N1894 N 0.99081 0.53884 0.8645 0.0
N1895 N 0.0185 0.54754 0.89731 0.0
C1896 C 0.0152 0.52309 0.88715 0.0
C1897 C 1.00006 0.51825 0.86939 0.0
C1898 C 0.53825 0.52175 0.86194 0.0
C1899 C 0.52362 0.49155 0.85447 0.0
C1900 C 0.52845 0.528 0.87905 0.0
C1901 C 0.504 0.50426 0.88953 0.0
H1902 H 0.55744 0.54083 0.8545 0.0
H1903 H 0.54007 0.55161 0.88413 0.0
S1904 S 0.4571 0.42157 0.87637 0.0
N1905 N 0.48234 0.43782 0.85893 0.0
N1906 N 0.46508 0.44964 0.89141 0.0
C1907 C 0.48943 0.47399 0.88251 0.0
C1908 C 0.49898 0.46761 0.86493 0.0
C1909 C 0.5353 0.04914 0.86972 0.0
C1910 C 0.51659 0.03585 0.85365 0.0
C1911 C 0.52858 0.0328 0.88669 0.0
C1912 C 0.50272 0.00245 0.88842 0.0
H1913 H 0.55548 0.07239 0.86922 0.0
H1914 H 0.54433 0.0438 0.8984 0.0
S1915 S 0.44515 0.95741 0.85096 0.0
N1916 N 0.47081 0.99017 0.84079 0.0
N1917 N 0.45693 0.96064 0.87283 0.0
C1918 C 0.48316 0.9893 0.87266 0.0
C1919 C 0.49035 0.00566 0.8553 0.0
C1920 C 0.19164 0.31019 0.50904 0.0
C1921 C 0.1595 0.29606 0.51433 0.0
C1922 C 0.20235 0.3262 0.49205 0.0
C1923 C 0.18128 0.32831 0.47949 0.0
H1924 H 0.20882 0.30953 0.51834 0.0
H1925 H 0.2274 0.33718 0.48875 0.0
S1926 S 0.09455 0.29423 0.48631 0.0
N1927 N 0.10653 0.28449 0.50537 0.0
N1928 N 0.12661 0.31429 0.47337 0.0
C1929 C 0.14896 0.31364 0.48438 0.0
C1930 C 0.13811 0.29768 0.50182 0.0
C1931 C 0.67387 0.86733 0.50615 0.0
C1932 C 0.68893 0.85064 0.51128 0.0
C1933 C 0.65765 0.86168 0.48914 0.0
C1934 C 0.65633 0.83947 0.47651 0.0
H1935 H 0.67422 0.88458 0.5155 0.0
H1936 H 0.64628 0.87498 0.48577 0.0
S1937 S 0.69231 0.78992 0.48318 0.0
N1938 N 0.70174 0.81118 0.50232 0.0
N1939 N 0.67146 0.80071 0.47026 0.0
C1940 C 0.67153 0.82282 0.48138 0.0
C1941 C 0.68773 0.82832 0.4988 0.0
C1942 C 0.18064 0.86445 0.4989 0.0
C1943 C 0.16116 0.84043 0.51126 0.0
C1944 C 0.18902 0.85809 0.48134 0.0
C1945 C 0.17878 0.82751 0.47571 0.0
H1946 H 0.18949 0.88834 0.50287 0.0
H1947 H 0.20428 0.87723 0.4723 0.0
S1948 S 0.12724 0.75643 0.5028 0.0
N1949 N 0.13148 0.78492 0.51648 0.0
N1950 N 0.14772 0.77302 0.48367 0.0
C1951 C 0.15914 0.80332 0.48787 0.0
C1952 C 0.15018 0.80976 0.50559 0.0
C1953 C 0.65637 0.83423 0.20341 0.0
C1954 C 0.67127 0.83006 0.18771 0.0
C1955 C 0.67116 0.8418 0.22092 0.0
C1956 C 0.70135 0.84505 0.22362 0.0
H1957 H 0.63291 0.8315 0.20226 0.0
H1958 H 0.65888 0.8455 0.23237 0.0
S1959 S 0.75054 0.83605 0.18715 0.0
N1960 N 0.71857 0.83066 0.17595 0.0
N1961 N 0.74514 0.84228 0.20912 0.0
C1962 C 0.71635 0.84044 0.20811 0.0
C1963 C 0.70161 0.83349 0.19015 0.0
C1964 C 0.15971 0.82919 0.1886 0.0
C1965 C 0.18939 0.831 0.18728 0.0
C1966 C 0.14896 0.83473 0.20558 0.0
C1967 C 0.16769 0.84274 0.22187 0.0
H1968 H 0.14457 0.82319 0.17643 0.0
H1969 H 0.12567 0.83253 0.20595 0.0
S1970 S 0.24843 0.8525 0.22516 0.0
N1971 N 0.23774 0.84193 0.2033 0.0
N1972 N 0.21838 0.85367 0.23508 0.0
C1973 C 0.1977 0.84497 0.22057 0.0
C1974 C 0.20835 0.83882 0.20332 0.0
C1975 C 0.16121 0.33488 0.19254 0.0
C1976 C 0.19006 0.36289 0.19028 0.0
C1977 C 0.15348 0.31799 0.20927 0.0
C1978 C 0.17446 0.32764 0.2246 0.0
H1979 H 0.14453 0.32525 0.18111 0.0
H1980 H 0.13082 0.29677 0.21 0.0
S1981 S 0.25236 0.40049 0.22671 0.0
N1982 N 0.23861 0.40097 0.20574 0.0
N1983 N 0.22532 0.36796 0.23651 0.0
C1984 C 0.20316 0.356 0.22278 0.0
C1985 C 0.21071 0.37373 0.20582 0.0
C1986 C 0.86681 0.6479 0.8419 0.0
C1987 C 0.83466 0.63343 0.84725 0.0
C1988 C 0.87732 0.66393 0.8249 0.0
C1989 C 0.85609 0.66581 0.81234 0.0
H1990 H 0.88416 0.64752 0.85118 0.0
H1991 H 0.9024 0.67516 0.82159 0.0
S1992 S 0.76923 0.6307 0.81922 0.0
N1993 N 0.78148 0.62116 0.83825 0.0
N1994 N 0.80122 0.65112 0.80629 0.0
C1995 C 0.82376 0.65077 0.81727 0.0
C1996 C 0.81309 0.63472 0.83471 0.0
C1997 C 0.33186 0.19396 0.83844 0.0
C1998 C 0.34661 0.17695 0.84351 0.0
C1999 C 0.31644 0.18917 0.82121 0.0
C2000 C 0.31565 0.16753 0.8083 0.0
H2001 H 0.33225 0.21112 0.84788 0.0
H2002 H 0.30563 0.20295 0.8178 0.0
S2003 S 0.35039 0.1169 0.81492 0.0
N2004 N 0.35916 0.13739 0.83436 0.0
N2005 N 0.33034 0.1285 0.8019 0.0
C2006 C 0.33012 0.15023 0.81324 0.0
C2007 C 0.3455 0.15486 0.83088 0.0
C2008 C 0.86829 0.20267 0.84366 0.0
C2009 C 0.83717 0.18285 0.85017 0.0
C2010 C 0.87819 0.19872 0.82596 0.0
C2011 C 0.85731 0.17504 0.81389 0.0
H2012 H 0.88525 0.2215 0.85231 0.0
H2013 H 0.90244 0.21437 0.82167 0.0
S2014 S 0.77378 0.1162 0.8241 0.0
N2015 N 0.78582 0.13789 0.84308 0.0
N2016 N 0.80432 0.13122 0.80962 0.0
C2017 C 0.82607 0.1553 0.82 0.0
C2018 C 0.81603 0.15902 0.83815 0.0
C2019 C 0.36449 0.16729 0.52183 0.0
C2020 C 0.33515 0.16581 0.51882 0.0
C2021 C 0.37854 0.17341 0.53955 0.0
C2022 C 0.36421 0.17883 0.5551 0.0
H2023 H 0.37702 0.16402 0.51035 0.0
H2024 H 0.40087 0.17378 0.54104 0.0
S2025 S 0.28726 0.17772 0.55488 0.0
N2026 N 0.29162 0.1692 0.53321 0.0
N2027 N 0.31918 0.18307 0.56614 0.0
C2028 C 0.33494 0.17765 0.55231 0.0
C2029 C 0.32025 0.17071 0.5343 0.0
C2030 C 0.84039 0.17066 0.52578 0.0
C2031 C 0.8537 0.1514 0.52399 0.0
C2032 C 0.82812 0.17385 0.54286 0.0
C2033 C 0.82839 0.15778 0.55895 0.0
H2034 H 0.8386 0.18281 0.51375 0.0
H2035 H 0.81809 0.18892 0.54339 0.0
S2036 S 0.86194 0.10546 0.56206 0.0
N2037 N 0.86827 0.11753 0.54021 0.0
N2038 N 0.84361 0.12207 0.57197 0.0
C2039 C 0.84219 0.13886 0.55747 0.0
C2040 C 0.85511 0.13597 0.54011 0.0
C2041 C 0.82843 0.67829 0.52331 0.0
C2042 C 0.85514 0.70808 0.5213 0.0
C2043 C 0.82079 0.66251 0.54043 0.0
C2044 C 0.83975 0.67533 0.55645 0.0
H2045 H 0.81342 0.66658 0.51144 0.0
H2046 H 0.7998 0.63978 0.541 0.0
S2047 S 0.91182 0.75325 0.55914 0.0
N2048 N 0.89959 0.75065 0.53739 0.0
N2049 N 0.88658 0.72011 0.56913 0.0
C2050 C 0.86638 0.70529 0.55477 0.0
C2051 C 0.87382 0.72172 0.53735 0.0
loop_
_geom_bond_atom_site_label_1
_geom_bond_atom_site_label_2
_geom_bond_distance
_geom_bond_site_symmetry_2
_ccdc_geom_bond_type
C0 C1 1.386 . S
C0 C2 1.397 . S
C0 H24 0.931 . S
C1 C0 1.386 . S
C1 C5 1.397 . S
C2 C0 1.397 . S
C2 C3 1.384 . S
C2 H25 0.930 . S
C3 C2 1.384 . S
C3 C4 1.377 . S
C3 C6 1.481 . S
C4 C3 1.377 . S
C4 C5 1.389 . S
C4 H26 0.929 . S
C5 C1 1.397 . S
C5 C4 1.389 . S
C5 H27 0.931 . S
C6 C3 1.481 . S
C6 C7 1.387 . S
C6 C11 1.390 . S
C7 C6 1.387 . S
C7 C8 1.401 . S
C7 H28 0.930 . S
C8 C7 1.401 . S
C8 C9 1.376 . S
C8 C17 1.511 . S
C9 C8 1.376 . S
C9 C10 1.392 . S
C9 H30 0.931 . S
C10 C9 1.392 . S
C10 C11 1.361 . S
C10 C12 1.500 . S
C11 C6 1.390 . S
C11 C10 1.361 . S
C11 H29 0.931 . S
C12 C10 1.500 . S
C12 C13 1.371 . S
C12 C14 1.365 . S
C13 C12 1.371 . S
C13 C23 1.386 . S
C13 H31 0.931 . S
C14 C12 1.365 . S
C14 C15 1.409 . S
C14 H32 0.929 . S
C15 C14 1.409 . S
C15 C16 1.380 . S
C15 H33 0.930 . S
C16 C15 1.380 . S
C16 C23 1.357 . S
C17 C8 1.511 . S
C17 C18 1.341 . S
C17 C19 1.371 . S
C18 C17 1.341 . S
C18 C22 1.394 . S
C18 H34 0.930 . S
C19 C17 1.371 . S
C19 C20 1.392 . S
C19 H35 0.931 . S
C20 C19 1.392 . S
C20 C21 1.331 . S
C20 H38 0.932 . S
C21 C20 1.331 . S
C21 C22 1.336 . S
C22 C18 1.394 . S
C22 C21 1.336 . S
C22 H37 0.929 . S
C23 C13 1.386 . S
C23 C16 1.357 . S
C23 H36 0.928 . S
H24 C0 0.931 . S
H25 C2 0.930 . S
H26 C4 0.929 . S
H27 C5 0.931 . S
H28 C7 0.930 . S
H29 C11 0.931 . S
H30 C9 0.931 . S
H31 C13 0.931 . S
H32 C14 0.929 . S
H33 C15 0.930 . S
H34 C18 0.930 . S
H35 C19 0.931 . S
H36 C23 0.928 . S
H37 C22 0.929 . S
H38 C20 0.932 . S
C39 C40 1.386 . S
C39 C41 1.397 . S
C39 H63 0.931 . S
C40 C39 1.386 . S
C40 C44 1.397 . S
C41 C39 1.397 . S
C41 C42 1.384 . S
C41 H64 0.930 . S
C42 C41 1.384 . S
C42 C43 1.377 . S
C42 C45 1.481 . S
C43 C42 1.377 . S
C43 C44 1.389 . S
C43 H65 0.929 . S
C44 C40 1.397 . S
C44 C43 1.389 . S
C44 H66 0.931 . S
C45 C42 1.481 . S
C45 C46 1.387 . S
C45 C50 1.390 . S
C46 C45 1.387 . S
C46 C47 1.401 . S
C46 H67 0.930 . S
C47 C46 1.401 . S
C47 C48 1.376 . S
C47 C56 1.511 . S
C48 C47 1.376 . S
C48 C49 1.392 . S
C48 H69 0.931 . S
C49 C48 1.392 . S
C49 C50 1.361 . S
C49 C51 1.500 . S
C50 C45 1.390 . S
C50 C49 1.361 . S
C50 H68 0.931 . S
C51 C49 1.500 . S
C51 C52 1.371 . S
C51 C53 1.365 . S
C52 C51 1.371 . S
C52 C62 1.386 . S
C52 H70 0.931 . S
C53 C51 1.365 . S
C53 C54 1.409 . S
C53 H71 0.929 . S
C54 C53 1.409 . S
C54 C55 1.380 . S
C54 H72 0.930 1_545 S
C55 C54 1.380 . S
C55 C62 1.357 . S
C56 C47 1.511 . S
C56 C57 1.341 . S
C56 C58 1.371 . S
C57 C56 1.341 . S
C57 C61 1.394 . S
C57 H73 0.930 . S
C58 C56 1.371 . S
C58 C59 1.392 . S
C58 H74 0.931 . S
C59 C58 1.392 . S
C59 C60 1.331 . S
C59 H77 0.932 . S
C60 C59 1.331 . S
C60 C61 1.336 . S
C61 C57 1.394 . S
C61 C60 1.336 . S
C61 H76 0.929 . S
C62 C52 1.386 . S
C62 C55 1.357 . S
C62 H75 0.928 . S
H63 C39 0.931 . S
H64 C41 0.930 . S
H65 C43 0.929 . S
H66 C44 0.931 . S
H67 C46 0.930 . S
H68 C50 0.931 . S
H69 C48 0.931 . S
H70 C52 0.931 . S
H71 C53 0.929 . S
H72 C54 0.930 1_565 S
H73 C57 0.930 . S
H74 C58 0.931 . S
H75 C62 0.928 . S
H76 C61 0.929 . S
H77 C59 0.932 . S
C78 C79 1.386 . S
C78 C80 1.397 . S
C78 H102 0.931 . S
C79 C78 1.386 . S
C79 C83 1.397 . S
C80 C78 1.397 . S
C80 C81 1.384 . S
C80 H103 0.930 . S
C81 C80 1.384 . S
C81 C82 1.377 . S
C81 C84 1.481 . S
C82 C81 1.377 . S
C82 C83 1.389 . S
C82 H104 0.929 . S
C83 C79 1.397 . S
C83 C82 1.389 . S
C83 H105 0.931 . S
C84 C81 1.481 . S
C84 C85 1.387 . S
C84 C89 1.390 . S
C85 C84 1.387 . S
C85 C86 1.401 . S
C85 H106 0.930 . S
C86 C85 1.401 . S
C86 C87 1.376 . S
C86 C95 1.511 . S
C87 C86 1.376 . S
C87 C88 1.392 . S
C87 H108 0.931 . S
C88 C87 1.392 . S
C88 C89 1.361 . S
C88 C90 1.500 . S
C89 C84 1.390 . S
C89 C88 1.361 . S
C89 H107 0.931 . S
C90 C88 1.500 . S
C90 C91 1.371 . S
C90 C92 1.365 . S
C91 C90 1.371 . S
C91 C101 1.386 . S
C91 H109 0.931 . S
C92 C90 1.365 . S
C92 C93 1.409 . S
C92 H110 0.929 . S
C93 C92 1.409 . S
C93 C94 1.380 . S
C93 H111 0.930 . S
C94 C93 1.380 . S
C94 C101 1.357 . S
C95 C86 1.511 . S
C95 C96 1.341 . S
C95 C97 1.371 . S
C96 C95 1.341 . S
C96 C100 1.394 . S
C96 H112 0.930 . S
C97 C95 1.371 . S
C97 C98 1.392 . S
C97 H113 0.931 . S
C98 C97 1.392 . S
C98 C99 1.331 . S
C98 H116 0.932 . S
C99 C98 1.331 . S
C99 C100 1.336 . S
C100 C96 1.394 . S
C100 C99 1.336 . S
C100 H115 0.929 1_655 S
C101 C91 1.386 . S
C101 C94 1.357 . S
C101 H114 0.928 . S
H102 C78 0.931 . S
H103 C80 0.930 . S
H104 C82 0.929 . S
H105 C83 0.931 . S
H106 C85 0.930 . S
H107 C89 0.931 . S
H108 C87 0.931 . S
H109 C91 0.931 . S
H110 C92 0.929 . S
H111 C93 0.930 . S
H112 C96 0.930 . S
H113 C97 0.931 . S
H114 C101 0.928 . S
H115 C100 0.929 1_455 S
H116 C98 0.932 . S
C117 C118 1.386 . S
C117 C119 1.397 . S
C117 H141 0.931 . S
C118 C117 1.386 . S
C118 C122 1.397 . S
C119 C117 1.397 . S
C119 C120 1.384 . S
C119 H142 0.930 . S
C120 C119 1.384 . S
C120 C121 1.377 . S
C120 C123 1.481 . S
C121 C120 1.377 . S
C121 C122 1.389 . S
C121 H143 0.929 . S
C122 C118 1.397 . S
C122 C121 1.389 . S
C122 H144 0.931 . S
C123 C120 1.481 . S
C123 C124 1.387 . S
C123 C128 1.390 . S
C124 C123 1.387 . S
C124 C125 1.401 . S
C124 H145 0.930 . S
C125 C124 1.401 . S
C125 C126 1.376 . S
C125 C134 1.511 . S
C126 C125 1.376 . S
C126 C127 1.392 . S
C126 H147 0.931 . S
C127 C126 1.392 . S
C127 C128 1.361 . S
C127 C129 1.500 . S
C128 C123 1.390 . S
C128 C127 1.361 . S
C128 H146 0.931 . S
C129 C127 1.500 . S
C129 C130 1.371 . S
C129 C131 1.365 . S
C130 C129 1.371 . S
C130 C140 1.386 . S
C130 H148 0.931 . S
C131 C129 1.365 . S
C131 C132 1.409 . S
C131 H149 0.929 . S
C132 C131 1.409 . S
C132 C133 1.380 . S
C132 H150 0.930 . S
C133 C132 1.380 . S
C133 C140 1.357 . S
C134 C125 1.511 . S
C134 C135 1.341 . S
C134 C136 1.371 . S
C135 C134 1.341 . S
C135 C139 1.394 . S
C135 H151 0.930 . S
C136 C134 1.371 . S
C136 C137 1.392 . S
C136 H152 0.931 . S
C137 C136 1.392 . S
C137 C138 1.331 . S
C137 H155 0.932 . S
C138 C137 1.331 . S
C138 C139 1.336 . S
C139 C135 1.394 . S
C139 C138 1.336 . S
C139 H154 0.929 . S
C140 C130 1.386 . S
C140 C133 1.357 . S
C140 H153 0.928 . S
H141 C117 0.931 . S
H142 C119 0.930 . S
H143 C121 0.929 . S
H144 C122 0.931 . S
H145 C124 0.930 . S
H146 C128 0.931 . S
H147 C126 0.931 . S
H148 C130 0.931 . S
H149 C131 0.929 . S
H150 C132 0.930 . S
H151 C135 0.930 . S
H152 C136 0.931 . S
H153 C140 0.928 . S
H154 C139 0.929 . S
H155 C137 0.932 . S
C156 C157 1.386 . S
C156 C158 1.397 . S
C156 H180 0.931 . S
C157 C156 1.386 . S
C157 C161 1.397 . S
C158 C156 1.397 . S
C158 C159 1.384 . S
C158 H181 0.930 . S
C159 C158 1.384 . S
C159 C160 1.377 . S
C159 C162 1.481 . S
C160 C159 1.377 . S
C160 C161 1.389 . S
C160 H182 0.929 . S
C161 C157 1.397 . S
C161 C160 1.389 . S
C161 H183 0.931 . S
C162 C159 1.481 . S
C162 C163 1.387 . S
C162 C167 1.390 . S
C163 C162 1.387 . S
C163 C164 1.401 . S
C163 H184 0.930 . S
C164 C163 1.401 . S
C164 C165 1.376 . S
C164 C173 1.511 . S
C165 C164 1.376 . S
C165 C166 1.392 . S
C165 H186 0.931 . S
C166 C165 1.392 . S
C166 C167 1.361 . S
C166 C168 1.500 . S
C167 C162 1.390 . S
C167 C166 1.361 . S
C167 H185 0.931 . S
C168 C166 1.500 . S
C168 C169 1.371 . S
C168 C170 1.365 . S
C169 C168 1.371 . S
C169 C179 1.386 . S
C169 H187 0.931 . S
C170 C168 1.365 . S
C170 C171 1.409 . S
C170 H188 0.929 . S
C171 C170 1.409 . S
C171 C172 1.380 . S
C171 H189 0.930 1_565 S
C172 C171 1.380 . S
C172 C179 1.357 . S
C173 C164 1.511 . S
C173 C174 1.341 . S
C173 C175 1.371 . S
C174 C173 1.341 . S
C174 C178 1.394 . S
C174 H190 0.930 . S
C175 C173 1.371 . S
C175 C176 1.392 . S
C175 H191 0.931 . S
C176 C175 1.392 . S
C176 C177 1.331 . S
C176 H194 0.932 . S
C177 C176 1.331 . S
C177 C178 1.336 . S
C178 C174 1.394 . S
C178 C177 1.336 . S
C178 H193 0.929 . S
C179 C169 1.386 . S
C179 C172 1.357 . S
C179 H192 0.928 . S
H180 C156 0.931 . S
H181 C158 0.930 . S
H182 C160 0.929 . S
H183 C161 0.931 . S
H184 C163 0.930 . S
H185 C167 0.931 . S
H186 C165 0.931 . S
H187 C169 0.931 . S
H188 C170 0.929 . S
H189 C171 0.930 1_545 S
H190 C174 0.930 . S
H191 C175 0.931 . S
H192 C179 0.928 . S
H193 C178 0.929 . S
H194 C176 0.932 . S
C195 C196 1.386 . S
C195 C197 1.397 . S
C195 H219 0.931 . S
C196 C195 1.386 . S
C196 C200 1.397 . S
C197 C195 1.397 . S
C197 C198 1.384 . S
C197 H220 0.930 . S
C198 C197 1.384 . S
C198 C199 1.377 . S
C198 C201 1.481 . S
C199 C198 1.377 . S
C199 C200 1.389 . S
C199 H221 0.929 . S
C200 C196 1.397 . S
C200 C199 1.389 . S
C200 H222 0.931 . S
C201 C198 1.481 . S
C201 C202 1.387 . S
C201 C206 1.390 . S
C202 C201 1.387 . S
C202 C203 1.401 . S
C202 H223 0.930 . S
C203 C202 1.401 . S
C203 C204 1.376 . S
C203 C212 1.511 . S
C204 C203 1.376 . S
C204 C205 1.392 . S
C204 H225 0.931 . S
C205 C204 1.392 . S
C205 C206 1.361 . S
C205 C207 1.500 . S
C206 C201 1.390 . S
C206 C205 1.361 . S
C206 H224 0.931 . S
C207 C205 1.500 . S
C207 C208 1.371 . S
C207 C209 1.365 . S
C208 C207 1.371 . S
C208 C218 1.386 . S
C208 H226 0.931 . S
C209 C207 1.365 . S
C209 C210 1.409 . S
C209 H227 0.929 . S
C210 C209 1.409 . S
C210 C211 1.380 . S
C210 H228 0.930 . S
C211 C210 1.380 . S
C211 C218 1.357 . S
C212 C203 1.511 . S
C212 C213 1.341 . S
C212 C214 1.371 . S
C213 C212 1.341 . S
C213 C217 1.394 . S
C213 H229 0.930 . S
C214 C212 1.371 . S
C214 C215 1.392 . S
C214 H230 0.931 . S
C215 C214 1.392 . S
C215 C216 1.331 . S
C215 H233 0.932 . S
C216 C215 1.331 . S
C216 C217 1.336 . S
C217 C213 1.394 . S
C217 C216 1.336 . S
C217 H232 0.929 1_455 S
C218 C208 1.386 . S
C218 C211 1.357 . S
C218 H231 0.928 . S
H219 C195 0.931 . S
H220 C197 0.930 . S
H221 C199 0.929 . S
H222 C200 0.931 . S
H223 C202 0.930 . S
H224 C206 0.931 . S
H225 C204 0.931 . S
H226 C208 0.931 . S
H227 C209 0.929 . S
H228 C210 0.930 . S
H229 C213 0.930 . S
H230 C214 0.931 . S
H231 C218 0.928 . S
H232 C217 0.929 1_655 S
H233 C215 0.932 . S
C234 C235 1.386 . S
C234 C236 1.397 . S
C234 H258 0.931 . S
C235 C234 1.386 . S
C235 C239 1.397 . S
C236 C234 1.397 . S
C236 C237 1.384 . S
C236 H259 0.930 . S
C237 C236 1.384 . S
C237 C238 1.377 . S
C237 C240 1.481 . S
C238 C237 1.377 . S
C238 C239 1.389 . S
C238 H260 0.929 . S
C239 C235 1.397 . S
C239 C238 1.389 . S
C239 H261 0.931 . S
C240 C237 1.481 . S
C240 C241 1.387 . S
C240 C245 1.390 . S
C241 C240 1.387 . S
C241 C242 1.401 . S
C241 H262 0.930 . S
C242 C241 1.401 . S
C242 C243 1.376 . S
C242 C251 1.511 . S
C243 C242 1.376 . S
C243 C244 1.392 . S
C243 H264 0.931 . S
C244 C243 1.392 . S
C244 C245 1.361 . S
C244 C246 1.500 . S
C245 C240 1.390 . S
C245 C244 1.361 . S
C245 H263 0.931 . S
C246 C244 1.500 . S
C246 C247 1.371 . S
C246 C248 1.365 . S
C247 C246 1.371 . S
C247 C257 1.386 . S
C247 H265 0.931 . S
C248 C246 1.365 . S
C248 C249 1.409 . S
C248 H266 0.929 . S
C249 C248 1.409 . S
C249 C250 1.380 . S
C249 H267 0.930 . S
C250 C249 1.380 . S
C250 C257 1.357 . S
C251 C242 1.511 . S
C251 C252 1.341 . S
C251 C253 1.371 . S
C252 C251 1.341 . S
C252 C256 1.394 . S
C252 H268 0.930 . S
C253 C251 1.371 . S
C253 C254 1.392 . S
C253 H269 0.931 . S
C254 C253 1.392 . S
C254 C255 1.331 . S
C254 H272 0.932 . S
C255 C254 1.331 . S
C255 C256 1.336 . S
C256 C252 1.394 . S
C256 C255 1.336 . S
C256 H271 0.929 . S
C257 C247 1.386 . S
C257 C250 1.357 . S
C257 H270 0.928 . S
H258 C234 0.931 . S
H259 C236 0.930 . S
H260 C238 0.929 . S
H261 C239 0.931 . S
H262 C241 0.930 . S
H263 C245 0.931 . S
H264 C243 0.931 . S
H265 C247 0.931 . S
H266 C248 0.929 . S
H267 C249 0.930 . S
H268 C252 0.930 . S
H269 C253 0.931 . S
H270 C257 0.928 . S
H271 C256 0.929 . S
H272 C254 0.932 . S
C273 C274 1.386 . S
C273 C275 1.397 . S
C273 H297 0.931 . S
C274 C273 1.386 . S
C274 C278 1.397 . S
C275 C273 1.397 . S
C275 C276 1.384 . S
C275 H298 0.930 . S
C276 C275 1.384 . S
C276 C277 1.377 . S
C276 C279 1.481 . S
C277 C276 1.377 . S
C277 C278 1.389 . S
C277 H299 0.929 . S
C278 C274 1.397 . S
C278 C277 1.389 . S
C278 H300 0.931 . S
C279 C276 1.481 . S
C279 C280 1.387 . S
C279 C284 1.390 . S
C280 C279 1.387 . S
C280 C281 1.401 . S
C280 H301 0.930 . S
C281 C280 1.401 . S
C281 C282 1.376 . S
C281 C290 1.511 . S
C282 C281 1.376 . S
C282 C283 1.392 . S
C282 H303 0.931 . S
C283 C282 1.392 . S
C283 C284 1.361 . S
C283 C285 1.500 . S
C284 C279 1.390 . S
C284 C283 1.361 . S
C284 H302 0.931 . S
C285 C283 1.500 . S
C285 C286 1.371 . S
C285 C287 1.365 . S
C286 C285 1.371 . S
C286 C296 1.386 . S
C286 H304 0.931 . S
C287 C285 1.365 . S
C287 C288 1.409 . S
C287 H305 0.929 . S
C288 C287 1.409 . S
C288 C289 1.380 . S
C288 H306 0.930 . S
C289 C288 1.380 . S
C289 C296 1.357 . S
C290 C281 1.511 . S
C290 C291 1.341 . S
C290 C292 1.371 . S
C291 C290 1.341 . S
C291 C295 1.394 . S
C291 H307 0.930 . S
C292 C290 1.371 . S
C292 C293 1.392 . S
C292 H308 0.931 . S
C293 C292 1.392 . S
C293 C294 1.331 . S
C293 H311 0.932 . S
C294 C293 1.331 . S
C294 C295 1.336 . S
C295 C291 1.394 . S
C295 C294 1.336 . S
C295 H310 0.929 . S
C296 C286 1.386 . S
C296 C289 1.357 . S
C296 H309 0.928 . S
H297 C273 0.931 . S
H298 C275 0.930 . S
H299 C277 0.929 . S
H300 C278 0.931 . S
H301 C280 0.930 . S
H302 C284 0.931 . S
H303 C282 0.931 . S
H304 C286 0.931 . S
H305 C287 0.929 . S
H306 C288 0.930 . S
H307 C291 0.930 . S
H308 C292 0.931 . S
H309 C296 0.928 . S
H310 C295 0.929 . S
H311 C293 0.932 . S
C312 C313 1.386 . S
C312 C314 1.397 . S
C312 H336 0.931 . S
C313 C312 1.386 . S
C313 C317 1.397 . S
C314 C312 1.397 . S
C314 C315 1.384 . S
C314 H337 0.930 . S
C315 C314 1.384 . S
C315 C316 1.377 . S
C315 C318 1.481 . S
C316 C315 1.377 . S
C316 C317 1.389 . S
C316 H338 0.929 . S
C317 C313 1.397 . S
C317 C316 1.389 . S
C317 H339 0.931 . S
C318 C315 1.481 . S
C318 C319 1.387 . S
C318 C323 1.390 . S
C319 C318 1.387 . S
C319 C320 1.401 . S
C319 H340 0.930 . S
C320 C319 1.401 . S
C320 C321 1.376 . S
C320 C329 1.511 . S
C321 C320 1.376 . S
C321 C322 1.392 . S
C321 H342 0.931 . S
C322 C321 1.392 . S
C322 C323 1.361 . S
C322 C324 1.500 . S
C323 C318 1.390 . S
C323 C322 1.361 . S
C323 H341 0.931 . S
C324 C322 1.500 . S
C324 C325 1.371 . S
C324 C326 1.365 . S
C325 C324 1.371 . S
C325 C335 1.386 . S
C325 H343 0.931 . S
C326 C324 1.365 . S
C326 C327 1.409 . S
C326 H344 0.929 . S
C327 C326 1.409 . S
C327 C328 1.380 . S
C327 H345 0.930 . S
C328 C327 1.380 . S
C328 C335 1.357 . S
C329 C320 1.511 . S
C329 C330 1.341 . S
C329 C331 1.371 . S
C330 C329 1.341 . S
C330 C334 1.394 . S
C330 H346 0.930 . S
C331 C329 1.371 . S
C331 C332 1.392 . S
C331 H347 0.931 . S
C332 C331 1.392 . S
C332 C333 1.331 . S
C332 H350 0.932 . S
C333 C332 1.331 . S
C333 C334 1.336 . S
C334 C330 1.394 . S
C334 C333 1.336 . S
C334 H349 0.929 . S
C335 C325 1.386 . S
C335 C328 1.357 . S
C335 H348 0.928 . S
H336 C312 0.931 . S
H337 C314 0.930 . S
H338 C316 0.929 . S
H339 C317 0.931 . S
H340 C319 0.930 . S
H341 C323 0.931 . S
H342 C321 0.931 . S
H343 C325 0.931 . S
H344 C326 0.929 . S
H345 C327 0.930 . S
H346 C330 0.930 . S
H347 C331 0.931 . S
H348 C335 0.928 . S
H349 C334 0.929 . S
H350 C332 0.932 . S
C351 C352 1.386 . S
C351 C353 1.397 . S
C351 H375 0.931 . S
C352 C351 1.386 . S
C352 C356 1.397 . S
C353 C351 1.397 . S
C353 C354 1.384 . S
C353 H376 0.930 . S
C354 C353 1.384 . S
C354 C355 1.377 . S
C354 C357 1.481 . S
C355 C354 1.377 . S
C355 C356 1.389 . S
C355 H377 0.929 . S
C356 C352 1.397 . S
C356 C355 1.389 . S
C356 H378 0.931 . S
C357 C354 1.481 . S
C357 C358 1.387 . S
C357 C362 1.390 . S
C358 C357 1.387 . S
C358 C359 1.401 . S
C358 H379 0.930 . S
C359 C358 1.401 . S
C359 C360 1.376 . S
C359 C368 1.511 . S
C360 C359 1.376 . S
C360 C361 1.392 . S
C360 H381 0.931 . S
C361 C360 1.392 . S
C361 C362 1.361 . S
C361 C363 1.500 . S
C362 C357 1.390 . S
C362 C361 1.361 . S
C362 H380 0.931 . S
C363 C361 1.500 . S
C363 C364 1.371 . S
C363 C365 1.365 . S
C364 C363 1.371 . S
C364 C374 1.386 . S
C364 H382 0.931 . S
C365 C363 1.365 . S
C365 C366 1.409 . S
C365 H383 0.929 . S
C366 C365 1.409 . S
C366 C367 1.380 . S
C366 H384 0.930 . S
C367 C366 1.380 . S
C367 C374 1.357 . S
C368 C359 1.511 . S
C368 C369 1.341 . S
C368 C370 1.371 . S
C369 C368 1.341 . S
C369 C373 1.394 . S
C369 H385 0.930 . S
C370 C368 1.371 . S
C370 C371 1.392 . S
C370 H386 0.931 . S
C371 C370 1.392 . S
C371 C372 1.331 . S
C371 H389 0.932 . S
C372 C371 1.331 . S
C372 C373 1.336 . S
C373 C369 1.394 . S
C373 C372 1.336 . S
C373 H388 0.929 . S
C374 C364 1.386 . S
C374 C367 1.357 . S
C374 H387 0.928 . S
H375 C351 0.931 . S
H376 C353 0.930 . S
H377 C355 0.929 . S
H378 C356 0.931 . S
H379 C358 0.930 . S
H380 C362 0.931 . S
H381 C360 0.931 . S
H382 C364 0.931 . S
H383 C365 0.929 . S
H384 C366 0.930 . S
H385 C369 0.930 . S
H386 C370 0.931 . S
H387 C374 0.928 . S
H388 C373 0.929 . S
H389 C371 0.932 . S
C390 C391 1.386 . S
C390 C392 1.397 . S
C390 H414 0.931 . S
C391 C390 1.386 . S
C391 C395 1.397 . S
C392 C390 1.397 . S
C392 C393 1.384 . S
C392 H415 0.930 . S
C393 C392 1.384 . S
C393 C394 1.377 . S
C393 C396 1.481 . S
C394 C393 1.377 . S
C394 C395 1.389 . S
C394 H416 0.929 . S
C395 C391 1.397 . S
C395 C394 1.389 . S
C395 H417 0.931 . S
C396 C393 1.481 . S
C396 C397 1.387 . S
C396 C401 1.390 . S
C397 C396 1.387 . S
C397 C398 1.401 . S
C397 H418 0.930 . S
C398 C397 1.401 . S
C398 C399 1.376 . S
C398 C407 1.511 . S
C399 C398 1.376 . S
C399 C400 1.392 . S
C399 H420 0.931 . S
C400 C399 1.392 . S
C400 C401 1.361 . S
C400 C402 1.500 . S
C401 C396 1.390 . S
C401 C400 1.361 . S
C401 H419 0.931 . S
C402 C400 1.500 . S
C402 C403 1.371 . S
C402 C404 1.365 . S
C403 C402 1.371 . S
C403 C413 1.386 . S
C403 H421 0.931 . S
C404 C402 1.365 . S
C404 C405 1.409 . S
C404 H422 0.929 . S
C405 C404 1.409 . S
C405 C406 1.380 . S
C405 H423 0.930 . S
C406 C405 1.380 . S
C406 C413 1.357 . S
C407 C398 1.511 . S
C407 C408 1.341 . S
C407 C409 1.371 . S
C408 C407 1.341 . S
C408 C412 1.394 . S
C408 H424 0.930 . S
C409 C407 1.371 . S
C409 C410 1.392 . S
C409 H425 0.931 . S
C410 C409 1.392 . S
C410 C411 1.331 . S
C410 H428 0.932 . S
C411 C410 1.331 . S
C411 C412 1.336 . S
C412 C408 1.394 . S
C412 C411 1.336 . S
C412 H427 0.929 . S
C413 C403 1.386 . S
C413 C406 1.357 . S
C413 H426 0.928 . S
H414 C390 0.931 . S
H415 C392 0.930 . S
H416 C394 0.929 . S
H417 C395 0.931 . S
H418 C397 0.930 . S
H419 C401 0.931 . S
H420 C399 0.931 . S
H421 C403 0.931 . S
H422 C404 0.929 . S
H423 C405 0.930 . S
H424 C408 0.930 . S
H425 C409 0.931 . S
H426 C413 0.928 . S
H427 C412 0.929 . S
H428 C410 0.932 . S
C429 C430 1.386 . S
C429 C431 1.397 . S
C429 H453 0.931 . S
C430 C429 1.386 . S
C430 C434 1.397 . S
C431 C429 1.397 . S
C431 C432 1.384 . S
C431 H454 0.930 . S
C432 C431 1.384 . S
C432 C433 1.377 . S
C432 C435 1.481 . S
C433 C432 1.377 . S
C433 C434 1.389 . S
C433 H455 0.929 . S
C434 C430 1.397 . S
C434 C433 1.389 . S
C434 H456 0.931 . S
C435 C432 1.481 . S
C435 C436 1.387 . S
C435 C440 1.390 . S
C436 C435 1.387 . S
C436 C437 1.401 . S
C436 H457 0.930 . S
C437 C436 1.401 . S
C437 C438 1.376 . S
C437 C446 1.511 . S
C438 C437 1.376 . S
C438 C439 1.392 . S
C438 H459 0.931 . S
C439 C438 1.392 . S
C439 C440 1.361 . S
C439 C441 1.500 . S
C440 C435 1.390 . S
C440 C439 1.361 . S
C440 H458 0.931 . S
C441 C439 1.500 . S
C441 C442 1.371 . S
C441 C443 1.365 . S
C442 C441 1.371 . S
C442 C452 1.386 . S
C442 H460 0.931 . S
C443 C441 1.365 . S
C443 C444 1.409 . S
C443 H461 0.929 . S
C444 C443 1.409 . S
C444 C445 1.380 . S
C444 H462 0.930 . S
C445 C444 1.380 . S
C445 C452 1.357 . S
C446 C437 1.511 . S
C446 C447 1.341 . S
C446 C448 1.371 . S
C447 C446 1.341 . S
C447 C451 1.394 . S
C447 H463 0.930 . S
C448 C446 1.371 . S
C448 C449 1.392 . S
C448 H464 0.931 . S
C449 C448 1.392 . S
C449 C450 1.331 . S
C449 H467 0.932 . S
C450 C449 1.331 . S
C450 C451 1.336 . S
C451 C447 1.394 . S
C451 C450 1.336 . S
C451 H466 0.929 . S
C452 C442 1.386 . S
C452 C445 1.357 . S
C452 H465 0.928 . S
H453 C429 0.931 . S
H454 C431 0.930 . S
H455 C433 0.929 . S
H456 C434 0.931 . S
H457 C436 0.930 . S
H458 C440 0.931 . S
H459 C438 0.931 . S
H460 C442 0.931 . S
H461 C443 0.929 . S
H462 C444 0.930 . S
H463 C447 0.930 . S
H464 C448 0.931 . S
H465 C452 0.928 . S
H466 C451 0.929 . S
H467 C449 0.932 . S
C468 C469 1.386 . S
C468 C470 1.397 . S
C468 H492 0.931 . S
C469 C468 1.386 . S
C469 C473 1.397 . S
C470 C468 1.397 . S
C470 C471 1.384 . S
C470 H493 0.930 . S
C471 C470 1.384 . S
C471 C472 1.377 . S
C471 C474 1.481 . S
C472 C471 1.377 . S
C472 C473 1.389 . S
C472 H494 0.929 . S
C473 C469 1.397 . S
C473 C472 1.389 . S
C473 H495 0.931 . S
C474 C471 1.481 . S
C474 C475 1.387 . S
C474 C479 1.390 . S
C475 C474 1.387 . S
C475 C476 1.401 . S
C475 H496 0.930 . S
C476 C475 1.401 . S
C476 C477 1.376 . S
C476 C485 1.511 . S
C477 C476 1.376 . S
C477 C478 1.392 . S
C477 H498 0.931 . S
C478 C477 1.392 . S
C478 C479 1.361 . S
C478 C480 1.500 . S
C479 C474 1.390 . S
C479 C478 1.361 . S
C479 H497 0.931 . S
C480 C478 1.500 . S
C480 C481 1.371 . S
C480 C482 1.365 . S
C481 C480 1.371 . S
C481 C491 1.386 . S
C481 H499 0.931 . S
C482 C480 1.365 . S
C482 C483 1.409 . S
C482 H500 0.929 . S
C483 C482 1.409 . S
C483 C484 1.380 . S
C483 H501 0.930 . S
C484 C483 1.380 . S
C484 C491 1.357 . S
C485 C476 1.511 . S
C485 C486 1.341 . S
C485 C487 1.371 . S
C486 C485 1.341 . S
C486 C490 1.394 . S
C486 H502 0.930 . S
C487 C485 1.371 . S
C487 C488 1.392 . S
C487 H503 0.931 . S
C488 C487 1.392 . S
C488 C489 1.331 . S
C488 H506 0.932 . S
C489 C488 1.331 . S
C489 C490 1.336 . S
C490 C486 1.394 . S
C490 C489 1.336 . S
C490 H505 0.929 . S
C491 C481 1.386 . S
C491 C484 1.357 . S
C491 H504 0.928 . S
H492 C468 0.931 . S
H493 C470 0.930 . S
H494 C472 0.929 . S
H495 C473 0.931 . S
H496 C475 0.930 . S
H497 C479 0.931 . S
H498 C477 0.931 . S
H499 C481 0.931 . S
H500 C482 0.929 . S
H501 C483 0.930 . S
H502 C486 0.930 . S
H503 C487 0.931 . S
H504 C491 0.928 . S
H505 C490 0.929 . S
H506 C488 0.932 . S
C507 C508 1.386 . S
C507 C509 1.397 . S
C507 H531 0.931 . S
C508 C507 1.386 . S
C508 C512 1.397 . S
C509 C507 1.397 . S
C509 C510 1.384 . S
C509 H532 0.930 . S
C510 C509 1.384 . S
C510 C511 1.377 . S
C510 C513 1.481 . S
C511 C510 1.377 . S
C511 C512 1.389 . S
C511 H533 0.929 . S
C512 C508 1.397 . S
C512 C511 1.389 . S
C512 H534 0.931 . S
C513 C510 1.481 . S
C513 C514 1.387 . S
C513 C518 1.390 . S
C514 C513 1.387 . S
C514 C515 1.401 . S
C514 H535 0.930 . S
C515 C514 1.401 . S
C515 C516 1.376 . S
C515 C524 1.511 . S
C516 C515 1.376 . S
C516 C517 1.392 . S
C516 H537 0.931 . S
C517 C516 1.392 . S
C517 C518 1.361 . S
C517 C519 1.500 . S
C518 C513 1.390 . S
C518 C517 1.361 . S
C518 H536 0.931 . S
C519 C517 1.500 . S
C519 C520 1.371 . S
C519 C521 1.365 . S
C520 C519 1.371 . S
C520 C530 1.386 . S
C520 H538 0.931 . S
C521 C519 1.365 . S
C521 C522 1.409 . S
C521 H539 0.929 . S
C522 C521 1.409 . S
C522 C523 1.380 . S
C522 H540 0.930 . S
C523 C522 1.380 . S
C523 C530 1.357 . S
C524 C515 1.511 . S
C524 C525 1.341 . S
C524 C526 1.371 . S
C525 C524 1.341 . S
C525 C529 1.394 . S
C525 H541 0.930 . S
C526 C524 1.371 . S
C526 C527 1.392 . S
C526 H542 0.931 . S
C527 C526 1.392 . S
C527 C528 1.331 . S
C527 H545 0.932 . S
C528 C527 1.331 . S
C528 C529 1.336 . S
C529 C525 1.394 . S
C529 C528 1.336 . S
C529 H544 0.929 . S
C530 C520 1.386 . S
C530 C523 1.357 . S
C530 H543 0.928 . S
H531 C507 0.931 . S
H532 C509 0.930 . S
H533 C511 0.929 . S
H534 C512 0.931 . S
H535 C514 0.930 . S
H536 C518 0.931 . S
H537 C516 0.931 . S
H538 C520 0.931 . S
H539 C521 0.929 . S
H540 C522 0.930 . S
H541 C525 0.930 . S
H542 C526 0.931 . S
H543 C530 0.928 . S
H544 C529 0.929 . S
H545 C527 0.932 . S
C546 C547 1.386 . S
C546 C548 1.397 . S
C546 H570 0.931 . S
C547 C546 1.386 . S
C547 C551 1.397 . S
C548 C546 1.397 . S
C548 C549 1.384 . S
C548 H571 0.930 . S
C549 C548 1.384 . S
C549 C550 1.377 . S
C549 C552 1.481 . S
C550 C549 1.377 . S
C550 C551 1.389 . S
C550 H572 0.929 . S
C551 C547 1.397 . S
C551 C550 1.389 . S
C551 H573 0.931 . S
C552 C549 1.481 . S
C552 C553 1.387 . S
C552 C557 1.390 . S
C553 C552 1.387 . S
C553 C554 1.401 . S
C553 H574 0.930 . S
C554 C553 1.401 . S
C554 C555 1.376 . S
C554 C563 1.511 . S
C555 C554 1.376 . S
C555 C556 1.392 . S
C555 H576 0.931 . S
C556 C555 1.392 . S
C556 C557 1.361 . S
C556 C558 1.500 . S
C557 C552 1.390 . S
C557 C556 1.361 . S
C557 H575 0.931 . S
C558 C556 1.500 . S
C558 C559 1.371 . S
C558 C560 1.365 . S
C559 C558 1.371 . S
C559 C569 1.386 . S
C559 H577 0.931 . S
C560 C558 1.365 . S
C560 C561 1.409 . S
C560 H578 0.929 . S
C561 C560 1.409 . S
C561 C562 1.380 . S
C561 H579 0.930 . S
C562 C561 1.380 . S
C562 C569 1.357 . S
C563 C554 1.511 . S
C563 C564 1.341 . S
C563 C565 1.371 . S
C564 C563 1.341 . S
C564 C568 1.394 . S
C564 H580 0.930 . S
C565 C563 1.371 . S
C565 C566 1.392 . S
C565 H581 0.931 . S
C566 C565 1.392 . S
C566 C567 1.331 . S
C566 H584 0.932 . S
C567 C566 1.331 . S
C567 C568 1.336 . S
C568 C564 1.394 . S
C568 C567 1.336 . S
C568 H583 0.929 . S
C569 C559 1.386 . S
C569 C562 1.357 . S
C569 H582 0.928 . S
H570 C546 0.931 . S
H571 C548 0.930 . S
H572 C550 0.929 . S
H573 C551 0.931 . S
H574 C553 0.930 . S
H575 C557 0.931 . S
H576 C555 0.931 . S
H577 C559 0.931 . S
H578 C560 0.929 . S
H579 C561 0.930 . S
H580 C564 0.930 . S
H581 C565 0.931 . S
H582 C569 0.928 . S
H583 C568 0.929 . S
H584 C566 0.932 . S
C585 C586 1.386 . S
C585 C587 1.397 . S
C585 H609 0.931 . S
C586 C585 1.386 . S
C586 C590 1.397 . S
C587 C585 1.397 . S
C587 C588 1.384 . S
C587 H610 0.930 . S
C588 C587 1.384 . S
C588 C589 1.377 . S
C588 C591 1.481 . S
C589 C588 1.377 . S
C589 C590 1.389 . S
C589 H611 0.929 . S
C590 C586 1.397 . S
C590 C589 1.389 . S
C590 H612 0.931 . S
C591 C588 1.481 . S
C591 C592 1.387 . S
C591 C596 1.390 . S
C592 C591 1.387 . S
C592 C593 1.401 . S
C592 H613 0.930 . S
C593 C592 1.401 . S
C593 C594 1.376 . S
C593 C602 1.511 . S
C594 C593 1.376 . S
C594 C595 1.392 . S
C594 H615 0.931 . S
C595 C594 1.392 . S
C595 C596 1.361 . S
C595 C597 1.500 . S
C596 C591 1.390 . S
C596 C595 1.361 . S
C596 H614 0.931 . S
C597 C595 1.500 . S
C597 C598 1.371 . S
C597 C599 1.365 . S
C598 C597 1.371 . S
C598 C608 1.386 . S
C598 H616 0.931 . S
C599 C597 1.365 . S
C599 C600 1.409 . S
C599 H617 0.929 . S
C600 C599 1.409 . S
C600 C601 1.380 . S
C600 H618 0.930 . S
C601 C600 1.380 . S
C601 C608 1.357 . S
C602 C593 1.511 . S
C602 C603 1.341 . S
C602 C604 1.371 . S
C603 C602 1.341 . S
C603 C607 1.394 . S
C603 H619 0.930 . S
C604 C602 1.371 . S
C604 C605 1.392 . S
C604 H620 0.931 . S
C605 C604 1.392 . S
C605 C606 1.331 . S
C605 H623 0.932 . S
C606 C605 1.331 . S
C606 C607 1.336 . S
C607 C603 1.394 . S
C607 C606 1.336 . S
C607 H622 0.929 . S
C608 C598 1.386 . S
C608 C601 1.357 . S
C608 H621 0.928 . S
H609 C585 0.931 . S
H610 C587 0.930 . S
H611 C589 0.929 . S
H612 C590 0.931 . S
H613 C592 0.930 . S
H614 C596 0.931 . S
H615 C594 0.931 . S
H616 C598 0.931 . S
H617 C599 0.929 . S
H618 C600 0.930 . S
H619 C603 0.930 . S
H620 C604 0.931 . S
H621 C608 0.928 . S
H622 C607 0.929 . S
H623 C605 0.932 . S
C624 C625 1.386 . S
C624 C626 1.397 . S
C624 H648 0.931 . S
C625 C624 1.386 . S
C625 C629 1.397 . S
C626 C624 1.397 . S
C626 C627 1.384 . S
C626 H649 0.930 . S
C627 C626 1.384 . S
C627 C628 1.377 . S
C627 C630 1.481 . S
C628 C627 1.377 . S
C628 C629 1.389 . S
C628 H650 0.929 . S
C629 C625 1.397 . S
C629 C628 1.389 . S
C629 H651 0.931 . S
C630 C627 1.481 . S
C630 C631 1.387 . S
C630 C635 1.390 . S
C631 C630 1.387 . S
C631 C632 1.401 . S
C631 H652 0.930 . S
C632 C631 1.401 . S
C632 C633 1.376 . S
C632 C641 1.511 . S
C633 C632 1.376 . S
C633 C634 1.392 . S
C633 H654 0.931 . S
C634 C633 1.392 . S
C634 C635 1.361 . S
C634 C636 1.500 . S
C635 C630 1.390 . S
C635 C634 1.361 . S
C635 H653 0.931 . S
C636 C634 1.500 . S
C636 C637 1.371 . S
C636 C638 1.365 . S
C637 C636 1.371 . S
C637 C647 1.386 . S
C637 H655 0.931 . S
C638 C636 1.365 . S
C638 C639 1.409 . S
C638 H656 0.929 . S
C639 C638 1.409 . S
C639 C640 1.380 . S
C639 H657 0.930 . S
C640 C639 1.380 . S
C640 C647 1.357 . S
C641 C632 1.511 . S
C641 C642 1.341 . S
C641 C643 1.371 . S
C642 C641 1.341 . S
C642 C646 1.394 . S
C642 H658 0.930 . S
C643 C641 1.371 . S
C643 C644 1.392 . S
C643 H659 0.931 . S
C644 C643 1.392 . S
C644 C645 1.331 . S
C644 H662 0.932 . S
C645 C644 1.331 . S
C645 C646 1.336 . S
C646 C642 1.394 . S
C646 C645 1.336 . S
C646 H661 0.929 . S
C647 C637 1.386 . S
C647 C640 1.357 . S
C647 H660 0.928 . S
H648 C624 0.931 . S
H649 C626 0.930 . S
H650 C628 0.929 . S
H651 C629 0.931 . S
H652 C631 0.930 . S
H653 C635 0.931 . S
H654 C633 0.931 . S
H655 C637 0.931 . S
H656 C638 0.929 . S
H657 C639 0.930 . S
H658 C642 0.930 . S
H659 C643 0.931 . S
H660 C647 0.928 . S
H661 C646 0.929 . S
H662 C644 0.932 . S
C663 C664 1.386 . S
C663 C665 1.397 . S
C663 H687 0.931 . S
C664 C663 1.386 . S
C664 C668 1.397 . S
C665 C663 1.397 . S
C665 C666 1.384 . S
C665 H688 0.930 . S
C666 C665 1.384 . S
C666 C667 1.377 . S
C666 C669 1.481 . S
C667 C666 1.377 . S
C667 C668 1.389 . S
C667 H689 0.929 . S
C668 C664 1.397 . S
C668 C667 1.389 . S
C668 H690 0.931 . S
C669 C666 1.481 . S
C669 C670 1.387 . S
C669 C674 1.390 . S
C670 C669 1.387 . S
C670 C671 1.401 . S
C670 H691 0.930 . S
C671 C670 1.401 . S
C671 C672 1.376 . S
C671 C680 1.511 . S
C672 C671 1.376 . S
C672 C673 1.392 . S
C672 H693 0.931 . S
C673 C672 1.392 . S
C673 C674 1.361 . S
C673 C675 1.500 . S
C674 C669 1.390 . S
C674 C673 1.361 . S
C674 H692 0.931 . S
C675 C673 1.500 . S
C675 C676 1.371 . S
C675 C677 1.365 . S
C676 C675 1.371 . S
C676 C686 1.386 . S
C676 H694 0.931 . S
C677 C675 1.365 . S
C677 C678 1.409 . S
C677 H695 0.929 . S
C678 C677 1.409 . S
C678 C679 1.380 . S
C678 H696 0.930 . S
C679 C678 1.380 . S
C679 C686 1.357 . S
C680 C671 1.511 . S
C680 C681 1.341 . S
C680 C682 1.371 . S
C681 C680 1.341 . S
C681 C685 1.394 . S
C681 H697 0.930 . S
C682 C680 1.371 . S
C682 C683 1.392 . S
C682 H698 0.931 . S
C683 C682 1.392 . S
C683 C684 1.331 . S
C683 H701 0.932 . S
C684 C683 1.331 . S
C684 C685 1.336 . S
C685 C681 1.394 . S
C685 C684 1.336 . S
C685 H700 0.929 . S
C686 C676 1.386 . S
C686 C679 1.357 . S
C686 H699 0.928 . S
H687 C663 0.931 . S
H688 C665 0.930 . S
H689 C667 0.929 . S
H690 C668 0.931 . S
H691 C670 0.930 . S
H692 C674 0.931 . S
H693 C672 0.931 . S
H694 C676 0.931 . S
H695 C677 0.929 . S
H696 C678 0.930 . S
H697 C681 0.930 . S
H698 C682 0.931 . S
H699 C686 0.928 . S
H700 C685 0.929 . S
H701 C683 0.932 . S
Eu702 N733 2.657 . S
Eu702 N740 2.609 . S
Eu702 O746 2.558 . S
Eu702 O747 2.612 1_565 S
Eu702 O749 2.339 1_565 S
Eu702 O750 2.563 1_565 S
Eu702 O751 2.419 . S
Eu702 O753 2.380 1_556 S
Eu702 O754 2.432 . S
Eu702 C766 2.848 . S
C703 C706 1.429 . S
C703 C707 1.411 . S
C703 N710 1.377 . S
C704 C706 1.420 . S
C704 C708 1.423 . S
C704 C716 1.392 . S
C705 C707 1.420 . S
C705 C708 1.351 . S
C705 H728 0.931 . S
C706 C703 1.429 . S
C706 C704 1.420 . S
C706 N714 1.362 . S
C707 C703 1.411 . S
C707 C705 1.420 . S
C707 C712 1.395 . S
C708 C704 1.423 . S
C708 C705 1.351 . S
C708 H720 0.930 . S
C709 C711 1.400 . S
C709 C712 1.386 . S
C709 H721 0.930 . S
N710 C703 1.377 . S
N710 C711 1.321 . S
N710 Eu713 2.609 . S
C711 C709 1.400 . S
C711 N710 1.321 . S
C711 H718 0.930 . S
C712 C707 1.395 . S
C712 C709 1.386 . S
C712 H731 0.930 . S
Eu713 N710 2.609 . S
Eu713 N714 2.657 . S
Eu713 O747 2.380 1_554 S
Eu713 O748 2.432 . S
Eu713 O752 2.558 . S
Eu713 O753 2.612 1_545 S
Eu713 O755 2.339 1_545 S
Eu713 O756 2.563 1_545 S
Eu713 O757 2.419 . S
Eu713 C777 2.848 . S
N714 C706 1.362 . S
N714 Eu713 2.657 . S
N714 C715 1.334 . S
C715 N714 1.334 . S
C715 C717 1.413 . S
C715 H722 0.929 . S
C716 C704 1.392 . S
C716 C717 1.367 . S
C716 H724 0.930 . S
C717 C715 1.413 . S
C717 C716 1.367 . S
C717 H719 0.930 . S
H718 C711 0.930 . S
H719 C717 0.930 . S
H720 C708 0.930 . S
H721 C709 0.930 . S
H722 C715 0.929 . S
H723 C737 0.930 . S
H724 C716 0.930 . S
H725 C743 0.930 . S
H726 C734 0.929 . S
H727 C741 0.930 . S
H728 C705 0.931 . S
H729 C735 0.930 . S
H730 C768 0.930 . S
H731 C712 0.930 . S
H732 C767 0.931 . S
N733 Eu702 2.657 . S
N733 C734 1.334 . S
N733 C738 1.362 . S
C734 H726 0.929 . S
C734 N733 1.334 . S
C734 C737 1.413 . S
C735 H729 0.930 . S
C735 C736 1.392 . S
C735 C737 1.367 . S
C736 C735 1.392 . S
C736 C738 1.420 . S
C736 C768 1.423 . S
C737 H723 0.930 . S
C737 C734 1.413 . S
C737 C735 1.367 . S
C738 N733 1.362 . S
C738 C736 1.420 . S
C738 C742 1.429 . S
H739 C744 0.930 . S
N740 Eu702 2.609 . S
N740 C742 1.377 . S
N740 C743 1.321 . S
C741 H727 0.930 . S
C741 C743 1.400 . S
C741 C744 1.386 . S
C742 C738 1.429 . S
C742 N740 1.377 . S
C742 C745 1.411 . S
C743 H725 0.930 . S
C743 N740 1.321 . S
C743 C741 1.400 . S
C744 H739 0.930 . S
C744 C741 1.386 . S
C744 C745 1.395 . S
C745 C742 1.411 . S
C745 C744 1.395 . S
C745 C767 1.420 . S
O746 Eu702 2.558 . S
O746 C766 1.257 . S
O747 Eu702 2.612 1_545 S
O747 Eu713 2.380 1_556 S
O747 C758 1.276 . S
O748 Eu713 2.432 . S
O748 C765 1.264 1_554 S
O749 Eu702 2.339 1_545 S
O749 C765 1.254 . S
O750 Eu702 2.563 1_545 S
O750 C758 1.235 . S
O751 Eu702 2.419 . S
O751 C766 1.249 . S
O752 Eu713 2.558 . S
O752 C777 1.257 . S
O753 Eu702 2.380 1_554 S
O753 Eu713 2.612 1_565 S
O753 C769 1.276 . S
O754 Eu702 2.432 . S
O754 C776 1.264 1_556 S
O755 Eu713 2.339 1_565 S
O755 C776 1.254 . S
O756 Eu713 2.563 1_565 S
O756 C769 1.235 . S
O757 Eu713 2.419 . S
O757 C777 1.249 . S
C758 O747 1.276 . S
C758 O750 1.235 . S
C759 C761 1.393 1_565 S
C759 C763 1.395 . S
C759 C766 1.492 . S
C760 C761 1.392 . S
C760 C762 1.386 1_545 S
C761 C759 1.393 1_545 S
C761 C760 1.392 . S
C761 H778 0.930 . S
C762 C760 1.386 1_565 S
C762 C764 1.395 . S
C762 H779 0.930 . S
C763 C759 1.395 . S
C763 C764 1.379 . S
C763 H780 0.930 . S
C764 C762 1.395 . S
C764 C763 1.379 . S
C764 H781 0.930 . S
C765 O748 1.264 1_556 S
C765 O749 1.254 . S
C766 Eu702 2.848 . S
C766 O746 1.257 . S
C766 O751 1.249 . S
C766 C759 1.492 . S
C767 H732 0.931 . S
C767 C745 1.420 . S
C767 C768 1.351 . S
C768 H730 0.930 . S
C768 C736 1.423 . S
C768 C767 1.351 . S
C769 O753 1.276 . S
C769 O756 1.235 . S
C770 C771 1.393 1_545 S
C770 C774 1.395 . S
C770 C777 1.492 . S
C771 C770 1.393 1_565 S
C771 C772 1.392 . S
C771 H782 0.930 . S
C772 C771 1.392 . S
C772 C773 1.386 1_565 S
C773 C772 1.386 1_545 S
C773 C775 1.395 . S
C773 H783 0.930 . S
C774 C770 1.395 . S
C774 C775 1.379 . S
C774 H784 0.930 . S
C775 C773 1.395 . S
C775 C774 1.379 . S
C775 H785 0.930 . S
C776 O754 1.264 1_554 S
C776 O755 1.254 . S
C777 Eu713 2.848 . S
C777 O752 1.257 . S
C777 O757 1.249 . S
C777 C770 1.492 . S
H778 C761 0.930 . S
H779 C762 0.930 . S
H780 C763 0.930 . S
H781 C764 0.930 . S
H782 C771 0.930 . S
H783 C773 0.930 . S
H784 C774 0.930 . S
H785 C775 0.930 . S
Eu786 N817 2.657 . S
Eu786 N824 2.609 . S
Eu786 O830 2.558 . S
Eu786 O831 2.612 1_455 S
Eu786 O833 2.339 1_455 S
Eu786 O834 2.563 1_455 S
Eu786 O835 2.419 . S
Eu786 O837 2.380 1_556 S
Eu786 O838 2.432 . S
Eu786 C850 2.848 . S
C787 C790 1.429 . S
C787 C791 1.411 . S
C787 N794 1.377 . S
C788 C790 1.420 . S
C788 C792 1.423 . S
C788 C800 1.392 . S
C789 C791 1.420 . S
C789 C792 1.351 . S
C789 H812 0.931 . S
C790 C787 1.429 . S
C790 C788 1.420 . S
C790 N798 1.362 . S
C791 C787 1.411 . S
C791 C789 1.420 . S
C791 C796 1.395 . S
C792 C788 1.423 . S
C792 C789 1.351 . S
C792 H804 0.930 . S
C793 C795 1.400 . S
C793 C796 1.386 . S
C793 H805 0.930 . S
N794 C787 1.377 . S
N794 C795 1.321 . S
N794 Eu797 2.609 . S
C795 C793 1.400 . S
C795 N794 1.321 . S
C795 H802 0.930 . S
C796 C791 1.395 . S
C796 C793 1.386 . S
C796 H815 0.930 . S
Eu797 N794 2.609 . S
Eu797 N798 2.657 . S
Eu797 O831 2.380 1_554 S
Eu797 O832 2.432 . S
Eu797 O836 2.558 . S
Eu797 O837 2.612 1_655 S
Eu797 O839 2.339 1_655 S
Eu797 O840 2.563 1_655 S
Eu797 O841 2.419 . S
Eu797 C861 2.848 . S
N798 C790 1.362 . S
N798 Eu797 2.657 . S
N798 C799 1.334 . S
C799 N798 1.334 . S
C799 C801 1.413 . S
C799 H806 0.929 . S
C800 C788 1.392 . S
C800 C801 1.367 . S
C800 H808 0.930 . S
C801 C799 1.413 . S
C801 C800 1.367 . S
C801 H803 0.930 . S
H802 C795 0.930 . S
H803 C801 0.930 . S
H804 C792 0.930 . S
H805 C793 0.930 . S
H806 C799 0.929 . S
H807 C821 0.930 . S
H808 C800 0.930 . S
H809 C827 0.930 . S
H810 C818 0.929 . S
H811 C825 0.930 . S
H812 C789 0.931 . S
H813 C819 0.930 . S
H814 C852 0.930 . S
H815 C796 0.930 . S
H816 C851 0.931 . S
N817 Eu786 2.657 . S
N817 C818 1.334 . S
N817 C822 1.362 . S
C818 H810 0.929 . S
C818 N817 1.334 . S
C818 C821 1.413 . S
C819 H813 0.930 . S
C819 C820 1.392 . S
C819 C821 1.367 . S
C820 C819 1.392 . S
C820 C822 1.420 . S
C820 C852 1.423 . S
C821 H807 0.930 . S
C821 C818 1.413 . S
C821 C819 1.367 . S
C822 N817 1.362 . S
C822 C820 1.420 . S
C822 C826 1.429 . S
H823 C828 0.930 . S
N824 Eu786 2.609 . S
N824 C826 1.377 . S
N824 C827 1.321 . S
C825 H811 0.930 . S
C825 C827 1.400 . S
C825 C828 1.386 . S
C826 C822 1.429 . S
C826 N824 1.377 . S
C826 C829 1.411 . S
C827 H809 0.930 . S
C827 N824 1.321 . S
C827 C825 1.400 . S
C828 H823 0.930 . S
C828 C825 1.386 . S
C828 C829 1.395 . S
C829 C826 1.411 . S
C829 C828 1.395 . S
C829 C851 1.420 . S
O830 Eu786 2.558 . S
O830 C850 1.257 . S
O831 Eu786 2.612 1_655 S
O831 Eu797 2.380 1_556 S
O831 C842 1.276 . S
O832 Eu797 2.432 . S
O832 C849 1.264 1_554 S
O833 Eu786 2.339 1_655 S
O833 C849 1.254 . S
O834 Eu786 2.563 1_655 S
O834 C842 1.235 . S
O835 Eu786 2.419 . S
O835 C850 1.249 . S
O836 Eu797 2.558 . S
O836 C861 1.257 . S
O837 Eu786 2.380 1_554 S
O837 Eu797 2.612 1_455 S
O837 C853 1.276 . S
O838 Eu786 2.432 . S
O838 C860 1.264 1_556 S
O839 Eu797 2.339 1_455 S
O839 C860 1.254 . S
O840 Eu797 2.563 1_455 S
O840 C853 1.235 . S
O841 Eu797 2.419 . S
O841 C861 1.249 . S
C842 O831 1.276 . S
C842 O834 1.235 . S
C843 C845 1.393 1_455 S
C843 C847 1.395 . S
C843 C850 1.492 . S
C844 C845 1.392 . S
C844 C846 1.386 1_655 S
C845 C843 1.393 1_655 S
C845 C844 1.392 . S
C845 H862 0.930 . S
C846 C844 1.386 1_455 S
C846 C848 1.395 . S
C846 H863 0.930 . S
C847 C843 1.395 . S
C847 C848 1.379 . S
C847 H864 0.930 . S
C848 C846 1.395 . S
C848 C847 1.379 . S
C848 H865 0.930 . S
C849 O832 1.264 1_556 S
C849 O833 1.254 . S
C850 Eu786 2.848 . S
C850 O830 1.257 . S
C850 O835 1.249 . S
C850 C843 1.492 . S
C851 H816 0.931 . S
C851 C829 1.420 . S
C851 C852 1.351 . S
C852 H814 0.930 . S
C852 C820 1.423 . S
C852 C851 1.351 . S
C853 O837 1.276 . S
C853 O840 1.235 . S
C854 C855 1.393 1_655 S
C854 C858 1.395 . S
C854 C861 1.492 . S
C855 C854 1.393 1_455 S
C855 C856 1.392 . S
C855 H866 0.930 . S
C856 C855 1.392 . S
C856 C857 1.386 1_455 S
C857 C856 1.386 1_655 S
C857 C859 1.395 . S
C857 H867 0.930 . S
C858 C854 1.395 . S
C858 C859 1.379 . S
C858 H868 0.930 . S
C859 C857 1.395 . S
C859 C858 1.379 . S
C859 H869 0.930 . S
C860 O838 1.264 1_554 S
C860 O839 1.254 . S
C861 Eu797 2.848 . S
C861 O836 1.257 . S
C861 O841 1.249 . S
C861 C854 1.492 . S
H862 C845 0.930 . S
H863 C846 0.930 . S
H864 C847 0.930 . S
H865 C848 0.930 . S
H866 C855 0.930 . S
H867 C857 0.930 . S
H868 C858 0.930 . S
H869 C859 0.930 . S
Eu870 N901 2.657 . S
Eu870 N908 2.609 . S
Eu870 O914 2.558 . S
Eu870 O915 2.612 . S
Eu870 O917 2.339 . S
Eu870 O918 2.563 . S
Eu870 O919 2.419 . S
Eu870 O921 2.380 1_554 S
Eu870 O922 2.432 . S
Eu870 C934 2.848 . S
C871 C874 1.429 . S
C871 C875 1.411 . S
C871 N878 1.377 . S
C872 C874 1.420 . S
C872 C876 1.423 . S
C872 C884 1.392 . S
C873 C875 1.420 . S
C873 C876 1.351 . S
C873 H896 0.931 . S
C874 C871 1.429 . S
C874 C872 1.420 . S
C874 N882 1.362 . S
C875 C871 1.411 . S
C875 C873 1.420 . S
C875 C880 1.395 . S
C876 C872 1.423 . S
C876 C873 1.351 . S
C876 H888 0.930 . S
C877 C879 1.400 . S
C877 C880 1.386 . S
C877 H889 0.930 . S
N878 C871 1.377 . S
N878 C879 1.321 . S
N878 Eu881 2.609 . S
C879 C877 1.400 . S
C879 N878 1.321 . S
C879 H886 0.930 . S
C880 C875 1.395 . S
C880 C877 1.386 . S
C880 H899 0.930 . S
Eu881 N878 2.609 . S
Eu881 N882 2.657 . S
Eu881 O915 2.380 1_556 S
Eu881 O916 2.432 . S
Eu881 O920 2.558 . S
Eu881 O921 2.612 . S
Eu881 O923 2.339 . S
Eu881 O924 2.563 . S
Eu881 O925 2.419 . S
Eu881 C945 2.848 . S
N882 C874 1.362 . S
N882 Eu881 2.657 . S
N882 C883 1.334 . S
C883 N882 1.334 . S
C883 C885 1.413 . S
C883 H890 0.929 . S
C884 C872 1.392 . S
C884 C885 1.367 . S
C884 H892 0.930 . S
C885 C883 1.413 . S
C885 C884 1.367 . S
C885 H887 0.930 . S
H886 C879 0.930 . S
H887 C885 0.930 . S
H888 C876 0.930 . S
H889 C877 0.930 . S
H890 C883 0.929 . S
H891 C905 0.930 . S
H892 C884 0.930 . S
H893 C911 0.930 . S
H894 C902 0.929 . S
H895 C909 0.930 . S
H896 C873 0.931 . S
H897 C903 0.930 . S
H898 C936 0.930 . S
H899 C880 0.930 . S
H900 C935 0.931 . S
N901 Eu870 2.657 . S
N901 C902 1.334 . S
N901 C906 1.362 . S
C902 H894 0.929 . S
C902 N901 1.334 . S
C902 C905 1.413 . S
C903 H897 0.930 . S
C903 C904 1.392 . S
C903 C905 1.367 . S
C904 C903 1.392 . S
C904 C906 1.420 . S
C904 C936 1.423 . S
C905 H891 0.930 . S
C905 C902 1.413 . S
C905 C903 1.367 . S
C906 N901 1.362 . S
C906 C904 1.420 . S
C906 C910 1.429 . S
H907 C912 0.930 . S
N908 Eu870 2.609 . S
N908 C910 1.377 . S
N908 C911 1.321 . S
C909 H895 0.930 . S
C909 C911 1.400 . S
C909 C912 1.386 . S
C910 C906 1.429 . S
C910 N908 1.377 . S
C910 C913 1.411 . S
C911 H893 0.930 . S
C911 N908 1.321 . S
C911 C909 1.400 . S
C912 H907 0.930 . S
C912 C909 1.386 . S
C912 C913 1.395 . S
C913 C910 1.411 . S
C913 C912 1.395 . S
C913 C935 1.420 . S
O914 Eu870 2.558 . S
O914 C934 1.257 . S
O915 Eu870 2.612 . S
O915 Eu881 2.380 1_554 S
O915 C926 1.276 . S
O916 Eu881 2.432 . S
O916 C933 1.264 1_556 S
O917 Eu870 2.339 . S
O917 C933 1.254 . S
O918 Eu870 2.563 . S
O918 C926 1.235 . S
O919 Eu870 2.419 . S
O919 C934 1.249 . S
O920 Eu881 2.558 . S
O920 C945 1.257 . S
O921 Eu870 2.380 1_556 S
O921 Eu881 2.612 . S
O921 C937 1.276 . S
O922 Eu870 2.432 . S
O922 C944 1.264 1_554 S
O923 Eu881 2.339 . S
O923 C944 1.254 . S
O924 Eu881 2.563 . S
O924 C937 1.235 . S
O925 Eu881 2.419 . S
O925 C945 1.249 . S
C926 O915 1.276 . S
C926 O918 1.235 . S
C927 C929 1.393 . S
C927 C931 1.395 . S
C927 C934 1.492 . S
C928 C929 1.392 . S
C928 C930 1.386 . S
C929 C927 1.393 . S
C929 C928 1.392 . S
C929 H946 0.930 . S
C930 C928 1.386 . S
C930 C932 1.395 . S
C930 H947 0.930 . S
C931 C927 1.395 . S
C931 C932 1.379 . S
C931 H948 0.930 . S
C932 C930 1.395 . S
C932 C931 1.379 . S
C932 H949 0.930 . S
C933 O916 1.264 1_554 S
C933 O917 1.254 . S
C934 Eu870 2.848 . S
C934 O914 1.257 . S
C934 O919 1.249 . S
C934 C927 1.492 . S
C935 H900 0.931 . S
C935 C913 1.420 . S
C935 C936 1.351 . S
C936 H898 0.930 . S
C936 C904 1.423 . S
C936 C935 1.351 . S
C937 O921 1.276 . S
C937 O924 1.235 . S
C938 C939 1.393 . S
C938 C942 1.395 . S
C938 C945 1.492 . S
C939 C938 1.393 . S
C939 C940 1.392 . S
C939 H950 0.930 . S
C940 C939 1.392 . S
C940 C941 1.386 . S
C941 C940 1.386 . S
C941 C943 1.395 . S
C941 H951 0.930 . S
C942 C938 1.395 . S
C942 C943 1.379 . S
C942 H952 0.930 . S
C943 C941 1.395 . S
C943 C942 1.379 . S
C943 H953 0.930 . S
C944 O922 1.264 1_556 S
C944 O923 1.254 . S
C945 Eu881 2.848 . S
C945 O920 1.257 . S
C945 O925 1.249 . S
C945 C938 1.492 . S
H946 C929 0.930 . S
H947 C930 0.930 . S
H948 C931 0.930 . S
H949 C932 0.930 . S
H950 C939 0.930 . S
H951 C941 0.930 . S
H952 C942 0.930 . S
H953 C943 0.930 . S
Eu954 N985 2.657 . S
Eu954 N992 2.609 . S
Eu954 O998 2.558 . S
Eu954 O999 2.612 . S
Eu954 O1001 2.339 . S
Eu954 O1002 2.563 . S
Eu954 O1003 2.419 . S
Eu954 O1005 2.380 . S
Eu954 O1006 2.432 . S
Eu954 C1018 2.848 . S
C955 C958 1.429 . S
C955 C959 1.411 . S
C955 N962 1.377 . S
C956 C958 1.420 . S
C956 C960 1.423 . S
C956 C968 1.392 . S
C957 C959 1.420 . S
C957 C960 1.351 . S
C957 H980 0.931 . S
C958 C955 1.429 . S
C958 C956 1.420 . S
C958 N966 1.362 . S
C959 C955 1.411 . S
C959 C957 1.420 . S
C959 C964 1.395 . S
C960 C956 1.423 . S
C960 C957 1.351 . S
C960 H972 0.930 . S
C961 C963 1.400 . S
C961 C964 1.386 . S
C961 H973 0.930 . S
N962 C955 1.377 . S
N962 C963 1.321 . S
N962 Eu965 2.609 . S
C963 C961 1.400 . S
C963 N962 1.321 . S
C963 H970 0.930 . S
C964 C959 1.395 . S
C964 C961 1.386 . S
C964 H983 0.930 . S
Eu965 N962 2.609 . S
Eu965 N966 2.657 . S
Eu965 O999 2.380 . S
Eu965 O1000 2.432 . S
Eu965 O1004 2.558 . S
Eu965 O1005 2.612 . S
Eu965 O1007 2.339 . S
Eu965 O1008 2.563 . S
Eu965 O1009 2.419 . S
Eu965 C1029 2.848 . S
N966 C958 1.362 . S
N966 Eu965 2.657 . S
N966 C967 1.334 . S
C967 N966 1.334 . S
C967 C969 1.413 . S
C967 H974 0.929 . S
C968 C956 1.392 . S
C968 C969 1.367 . S
C968 H976 0.930 . S
C969 C967 1.413 . S
C969 C968 1.367 . S
C969 H971 0.930 . S
H970 C963 0.930 . S
H971 C969 0.930 . S
H972 C960 0.930 . S
H973 C961 0.930 . S
H974 C967 0.929 . S
H975 C989 0.930 . S
H976 C968 0.930 . S
H977 C995 0.930 . S
H978 C986 0.929 . S
H979 C993 0.930 . S
H980 C957 0.931 . S
H981 C987 0.930 . S
H982 C1020 0.930 . S
H983 C964 0.930 . S
H984 C1019 0.931 . S
N985 Eu954 2.657 . S
N985 C986 1.334 . S
N985 C990 1.362 . S
C986 H978 0.929 . S
C986 N985 1.334 . S
C986 C989 1.413 . S
C987 H981 0.930 . S
C987 C988 1.392 . S
C987 C989 1.367 . S
C988 C987 1.392 . S
C988 C990 1.420 . S
C988 C1020 1.423 . S
C989 H975 0.930 . S
C989 C986 1.413 . S
C989 C987 1.367 . S
C990 N985 1.362 . S
C990 C988 1.420 . S
C990 C994 1.429 . S
H991 C996 0.930 . S
N992 Eu954 2.609 . S
N992 C994 1.377 . S
N992 C995 1.321 . S
C993 H979 0.930 . S
C993 C995 1.400 . S
C993 C996 1.386 . S
C994 C990 1.429 . S
C994 N992 1.377 . S
C994 C997 1.411 . S
C995 H977 0.930 . S
C995 N992 1.321 . S
C995 C993 1.400 . S
C996 H991 0.930 . S
C996 C993 1.386 . S
C996 C997 1.395 . S
C997 C994 1.411 . S
C997 C996 1.395 . S
C997 C1019 1.420 . S
O998 Eu954 2.558 . S
O998 C1018 1.257 . S
O999 Eu954 2.612 . S
O999 Eu965 2.380 . S
O999 C1010 1.276 . S
O1000 Eu965 2.432 . S
O1000 C1017 1.264 . S
O1001 Eu954 2.339 . S
O1001 C1017 1.254 . S
O1002 Eu954 2.563 . S
O1002 C1010 1.235 . S
O1003 Eu954 2.419 . S
O1003 C1018 1.249 . S
O1004 Eu965 2.558 . S
O1004 C1029 1.257 . S
O1005 Eu954 2.380 . S
O1005 Eu965 2.612 . S
O1005 C1021 1.276 . S
O1006 Eu954 2.432 . S
O1006 C1028 1.264 . S
O1007 Eu965 2.339 . S
O1007 C1028 1.254 . S
O1008 Eu965 2.563 . S
O1008 C1021 1.235 . S
O1009 Eu965 2.419 . S
O1009 C1029 1.249 . S
C1010 O999 1.276 . S
C1010 O1002 1.235 . S
C1011 C1013 1.393 . S
C1011 C1015 1.395 . S
C1011 C1018 1.492 . S
C1012 C1013 1.392 . S
C1012 C1014 1.386 . S
C1013 C1011 1.393 . S
C1013 C1012 1.392 . S
C1013 H1030 0.930 . S
C1014 C1012 1.386 . S
C1014 C1016 1.395 . S
C1014 H1031 0.930 . S
C1015 C1011 1.395 . S
C1015 C1016 1.379 . S
C1015 H1032 0.930 . S
C1016 C1014 1.395 . S
C1016 C1015 1.379 . S
C1016 H1033 0.930 . S
C1017 O1000 1.264 . S
C1017 O1001 1.254 . S
C1018 Eu954 2.848 . S
C1018 O998 1.257 . S
C1018 O1003 1.249 . S
C1018 C1011 1.492 . S
C1019 H984 0.931 . S
C1019 C997 1.420 . S
C1019 C1020 1.351 . S
C1020 H982 0.930 . S
C1020 C988 1.423 . S
C1020 C1019 1.351 . S
C1021 O1005 1.276 . S
C1021 O1008 1.235 . S
C1022 C1023 1.393 . S
C1022 C1026 1.395 . S
C1022 C1029 1.492 . S
C1023 C1022 1.393 . S
C1023 C1024 1.392 . S
C1023 H1034 0.930 . S
C1024 C1023 1.392 . S
C1024 C1025 1.386 . S
C1025 C1024 1.386 . S
C1025 C1027 1.395 . S
C1025 H1035 0.930 . S
C1026 C1022 1.395 . S
C1026 C1027 1.379 . S
C1026 H1036 0.930 . S
C1027 C1025 1.395 . S
C1027 C1026 1.379 . S
C1027 H1037 0.930 . S
C1028 O1006 1.264 . S
C1028 O1007 1.254 . S
C1029 Eu965 2.848 . S
C1029 O1004 1.257 . S
C1029 O1009 1.249 . S
C1029 C1022 1.492 . S
H1030 C1013 0.930 . S
H1031 C1014 0.930 . S
H1032 C1015 0.930 . S
H1033 C1016 0.930 . S
H1034 C1023 0.930 . S
H1035 C1025 0.930 . S
H1036 C1026 0.930 . S
H1037 C1027 0.930 . S
Eu1038 N1069 2.657 . S
Eu1038 N1076 2.609 . S
Eu1038 O1082 2.558 . S
Eu1038 O1083 2.612 . S
Eu1038 O1085 2.339 . S
Eu1038 O1086 2.563 . S
Eu1038 O1087 2.419 . S
Eu1038 O1089 2.380 . S
Eu1038 O1090 2.432 . S
Eu1038 C1102 2.848 . S
C1039 C1042 1.429 . S
C1039 C1043 1.411 . S
C1039 N1046 1.377 . S
C1040 C1042 1.420 . S
C1040 C1044 1.423 . S
C1040 C1052 1.392 . S
C1041 C1043 1.420 . S
C1041 C1044 1.351 . S
C1041 H1064 0.931 . S
C1042 C1039 1.429 . S
C1042 C1040 1.420 . S
C1042 N1050 1.362 . S
C1043 C1039 1.411 . S
C1043 C1041 1.420 . S
C1043 C1048 1.395 . S
C1044 C1040 1.423 . S
C1044 C1041 1.351 . S
C1044 H1056 0.930 . S
C1045 C1047 1.400 . S
C1045 C1048 1.386 . S
C1045 H1057 0.930 . S
N1046 C1039 1.377 . S
N1046 C1047 1.321 . S
N1046 Eu1049 2.609 . S
C1047 C1045 1.400 . S
C1047 N1046 1.321 . S
C1047 H1054 0.930 . S
C1048 C1043 1.395 . S
C1048 C1045 1.386 . S
C1048 H1067 0.930 . S
Eu1049 N1046 2.609 . S
Eu1049 N1050 2.657 . S
Eu1049 O1083 2.380 . S
Eu1049 O1084 2.432 . S
Eu1049 O1088 2.558 . S
Eu1049 O1089 2.612 . S
Eu1049 O1091 2.339 . S
Eu1049 O1092 2.563 . S
Eu1049 O1093 2.419 . S
Eu1049 C1113 2.848 . S
N1050 C1042 1.362 . S
N1050 Eu1049 2.657 . S
N1050 C1051 1.334 . S
C1051 N1050 1.334 . S
C1051 C1053 1.413 . S
C1051 H1058 0.929 . S
C1052 C1040 1.392 . S
C1052 C1053 1.367 . S
C1052 H1060 0.930 . S
C1053 C1051 1.413 . S
C1053 C1052 1.367 . S
C1053 H1055 0.930 . S
H1054 C1047 0.930 . S
H1055 C1053 0.930 . S
H1056 C1044 0.930 . S
H1057 C1045 0.930 . S
H1058 C1051 0.929 . S
H1059 C1073 0.930 . S
H1060 C1052 0.930 . S
H1061 C1079 0.930 . S
H1062 C1070 0.929 . S
H1063 C1077 0.930 . S
H1064 C1041 0.931 . S
H1065 C1071 0.930 . S
H1066 C1104 0.930 . S
H1067 C1048 0.930 . S
H1068 C1103 0.931 . S
N1069 Eu1038 2.657 . S
N1069 C1070 1.334 . S
N1069 C1074 1.362 . S
C1070 H1062 0.929 . S
C1070 N1069 1.334 . S
C1070 C1073 1.413 . S
C1071 H1065 0.930 . S
C1071 C1072 1.392 . S
C1071 C1073 1.367 . S
C1072 C1071 1.392 . S
C1072 C1074 1.420 . S
C1072 C1104 1.423 . S
C1073 H1059 0.930 . S
C1073 C1070 1.413 . S
C1073 C1071 1.367 . S
C1074 N1069 1.362 . S
C1074 C1072 1.420 . S
C1074 C1078 1.429 . S
H1075 C1080 0.930 . S
N1076 Eu1038 2.609 . S
N1076 C1078 1.377 . S
N1076 C1079 1.321 . S
C1077 H1063 0.930 . S
C1077 C1079 1.400 . S
C1077 C1080 1.386 . S
C1078 C1074 1.429 . S
C1078 N1076 1.377 . S
C1078 C1081 1.411 . S
C1079 H1061 0.930 . S
C1079 N1076 1.321 . S
C1079 C1077 1.400 . S
C1080 H1075 0.930 . S
C1080 C1077 1.386 . S
C1080 C1081 1.395 . S
C1081 C1078 1.411 . S
C1081 C1080 1.395 . S
C1081 C1103 1.420 . S
O1082 Eu1038 2.558 . S
O1082 C1102 1.257 . S
O1083 Eu1038 2.612 . S
O1083 Eu1049 2.380 . S
O1083 C1094 1.276 . S
O1084 Eu1049 2.432 . S
O1084 C1101 1.264 . S
O1085 Eu1038 2.339 . S
O1085 C1101 1.254 . S
O1086 Eu1038 2.563 . S
O1086 C1094 1.235 . S
O1087 Eu1038 2.419 . S
O1087 C1102 1.249 . S
O1088 Eu1049 2.558 . S
O1088 C1113 1.257 . S
O1089 Eu1038 2.380 . S
O1089 Eu1049 2.612 . S
O1089 C1105 1.276 . S
O1090 Eu1038 2.432 . S
O1090 C1112 1.264 . S
O1091 Eu1049 2.339 . S
O1091 C1112 1.254 . S
O1092 Eu1049 2.563 . S
O1092 C1105 1.235 . S
O1093 Eu1049 2.419 . S
O1093 C1113 1.249 . S
C1094 O1083 1.276 . S
C1094 O1086 1.235 . S
C1095 C1097 1.393 . S
C1095 C1099 1.395 . S
C1095 C1102 1.492 . S
C1096 C1097 1.392 . S
C1096 C1098 1.386 . S
C1097 C1095 1.393 . S
C1097 C1096 1.392 . S
C1097 H1114 0.930 . S
C1098 C1096 1.386 . S
C1098 C1100 1.395 . S
C1098 H1115 0.930 . S
C1099 C1095 1.395 . S
C1099 C1100 1.379 . S
C1099 H1116 0.930 . S
C1100 C1098 1.395 . S
C1100 C1099 1.379 . S
C1100 H1117 0.930 . S
C1101 O1084 1.264 . S
C1101 O1085 1.254 . S
C1102 Eu1038 2.848 . S
C1102 O1082 1.257 . S
C1102 O1087 1.249 . S
C1102 C1095 1.492 . S
C1103 H1068 0.931 . S
C1103 C1081 1.420 . S
C1103 C1104 1.351 . S
C1104 H1066 0.930 . S
C1104 C1072 1.423 . S
C1104 C1103 1.351 . S
C1105 O1089 1.276 . S
C1105 O1092 1.235 . S
C1106 C1107 1.393 . S
C1106 C1110 1.395 . S
C1106 C1113 1.492 . S
C1107 C1106 1.393 . S
C1107 C1108 1.392 . S
C1107 H1118 0.930 . S
C1108 C1107 1.392 . S
C1108 C1109 1.386 . S
C1109 C1108 1.386 . S
C1109 C1111 1.395 . S
C1109 H1119 0.930 . S
C1110 C1106 1.395 . S
C1110 C1111 1.379 . S
C1110 H1120 0.930 . S
C1111 C1109 1.395 . S
C1111 C1110 1.379 . S
C1111 H1121 0.930 . S
C1112 O1090 1.264 . S
C1112 O1091 1.254 . S
C1113 Eu1049 2.848 . S
C1113 O1088 1.257 . S
C1113 O1093 1.249 . S
C1113 C1106 1.492 . S
H1114 C1097 0.930 . S
H1115 C1098 0.930 . S
H1116 C1099 0.930 . S
H1117 C1100 0.930 . S
H1118 C1107 0.930 . S
H1119 C1109 0.930 . S
H1120 C1110 0.930 . S
H1121 C1111 0.930 . S
Eu1122 N1153 2.657 . S
Eu1122 N1160 2.609 . S
Eu1122 O1166 2.558 . S
Eu1122 O1167 2.612 . S
Eu1122 O1169 2.339 . S
Eu1122 O1170 2.563 . S
Eu1122 O1171 2.419 . S
Eu1122 O1173 2.380 . S
Eu1122 O1174 2.432 . S
Eu1122 C1186 2.848 . S
C1123 C1126 1.429 . S
C1123 C1127 1.411 . S
C1123 N1130 1.377 . S
C1124 C1126 1.420 . S
C1124 C1128 1.423 . S
C1124 C1136 1.392 . S
C1125 C1127 1.420 . S
C1125 C1128 1.351 . S
C1125 H1148 0.931 . S
C1126 C1123 1.429 . S
C1126 C1124 1.420 . S
C1126 N1134 1.362 . S
C1127 C1123 1.411 . S
C1127 C1125 1.420 . S
C1127 C1132 1.395 . S
C1128 C1124 1.423 . S
C1128 C1125 1.351 . S
C1128 H1140 0.930 . S
C1129 C1131 1.400 . S
C1129 C1132 1.386 . S
C1129 H1141 0.930 . S
N1130 C1123 1.377 . S
N1130 C1131 1.321 . S
N1130 Eu1133 2.609 . S
C1131 C1129 1.400 . S
C1131 N1130 1.321 . S
C1131 H1138 0.930 . S
C1132 C1127 1.395 . S
C1132 C1129 1.386 . S
C1132 H1151 0.930 . S
Eu1133 N1130 2.609 . S
Eu1133 N1134 2.657 . S
Eu1133 O1167 2.380 . S
Eu1133 O1168 2.432 . S
Eu1133 O1172 2.558 . S
Eu1133 O1173 2.612 . S
Eu1133 O1175 2.339 . S
Eu1133 O1176 2.563 . S
Eu1133 O1177 2.419 . S
Eu1133 C1197 2.848 . S
N1134 C1126 1.362 . S
N1134 Eu1133 2.657 . S
N1134 C1135 1.334 . S
C1135 N1134 1.334 . S
C1135 C1137 1.413 . S
C1135 H1142 0.929 . S
C1136 C1124 1.392 . S
C1136 C1137 1.367 . S
C1136 H1144 0.930 . S
C1137 C1135 1.413 . S
C1137 C1136 1.367 . S
C1137 H1139 0.930 . S
H1138 C1131 0.930 . S
H1139 C1137 0.930 . S
H1140 C1128 0.930 . S
H1141 C1129 0.930 . S
H1142 C1135 0.929 . S
H1143 C1157 0.930 . S
H1144 C1136 0.930 . S
H1145 C1163 0.930 . S
H1146 C1154 0.929 . S
H1147 C1161 0.930 . S
H1148 C1125 0.931 . S
H1149 C1155 0.930 . S
H1150 C1188 0.930 . S
H1151 C1132 0.930 . S
H1152 C1187 0.931 . S
N1153 Eu1122 2.657 . S
N1153 C1154 1.334 . S
N1153 C1158 1.362 . S
C1154 H1146 0.929 . S
C1154 N1153 1.334 . S
C1154 C1157 1.413 . S
C1155 H1149 0.930 . S
C1155 C1156 1.392 . S
C1155 C1157 1.367 . S
C1156 C1155 1.392 . S
C1156 C1158 1.420 . S
C1156 C1188 1.423 . S
C1157 H1143 0.930 . S
C1157 C1154 1.413 . S
C1157 C1155 1.367 . S
C1158 N1153 1.362 . S
C1158 C1156 1.420 . S
C1158 C1162 1.429 . S
H1159 C1164 0.930 . S
N1160 Eu1122 2.609 . S
N1160 C1162 1.377 . S
N1160 C1163 1.321 . S
C1161 H1147 0.930 . S
C1161 C1163 1.400 . S
C1161 C1164 1.386 . S
C1162 C1158 1.429 . S
C1162 N1160 1.377 . S
C1162 C1165 1.411 . S
C1163 H1145 0.930 . S
C1163 N1160 1.321 . S
C1163 C1161 1.400 . S
C1164 H1159 0.930 . S
C1164 C1161 1.386 . S
C1164 C1165 1.395 . S
C1165 C1162 1.411 . S
C1165 C1164 1.395 . S
C1165 C1187 1.420 . S
O1166 Eu1122 2.558 . S
O1166 C1186 1.257 . S
O1167 Eu1122 2.612 . S
O1167 Eu1133 2.380 . S
O1167 C1178 1.276 . S
O1168 Eu1133 2.432 . S
O1168 C1185 1.264 . S
O1169 Eu1122 2.339 . S
O1169 C1185 1.254 . S
O1170 Eu1122 2.563 . S
O1170 C1178 1.235 . S
O1171 Eu1122 2.419 . S
O1171 C1186 1.249 . S
O1172 Eu1133 2.558 . S
O1172 C1197 1.257 . S
O1173 Eu1122 2.380 . S
O1173 Eu1133 2.612 . S
O1173 C1189 1.276 . S
O1174 Eu1122 2.432 . S
O1174 C1196 1.264 . S
O1175 Eu1133 2.339 . S
O1175 C1196 1.254 . S
O1176 Eu1133 2.563 . S
O1176 C1189 1.235 . S
O1177 Eu1133 2.419 . S
O1177 C1197 1.249 . S
C1178 O1167 1.276 . S
C1178 O1170 1.235 . S
C1179 C1181 1.393 . S
C1179 C1183 1.395 . S
C1179 C1186 1.492 . S
C1180 C1181 1.392 . S
C1180 C1182 1.386 . S
C1181 C1179 1.393 . S
C1181 C1180 1.392 . S
C1181 H1198 0.930 . S
C1182 C1180 1.386 . S
C1182 C1184 1.395 . S
C1182 H1199 0.930 . S
C1183 C1179 1.395 . S
C1183 C1184 1.379 . S
C1183 H1200 0.930 . S
C1184 C1182 1.395 . S
C1184 C1183 1.379 . S
C1184 H1201 0.930 . S
C1185 O1168 1.264 . S
C1185 O1169 1.254 . S
C1186 Eu1122 2.848 . S
C1186 O1166 1.257 . S
C1186 O1171 1.249 . S
C1186 C1179 1.492 . S
C1187 H1152 0.931 . S
C1187 C1165 1.420 . S
C1187 C1188 1.351 . S
C1188 H1150 0.930 . S
C1188 C1156 1.423 . S
C1188 C1187 1.351 . S
C1189 O1173 1.276 . S
C1189 O1176 1.235 . S
C1190 C1191 1.393 . S
C1190 C1194 1.395 . S
C1190 C1197 1.492 . S
C1191 C1190 1.393 . S
C1191 C1192 1.392 . S
C1191 H1202 0.930 . S
C1192 C1191 1.392 . S
C1192 C1193 1.386 . S
C1193 C1192 1.386 . S
C1193 C1195 1.395 . S
C1193 H1203 0.930 . S
C1194 C1190 1.395 . S
C1194 C1195 1.379 . S
C1194 H1204 0.930 . S
C1195 C1193 1.395 . S
C1195 C1194 1.379 . S
C1195 H1205 0.930 . S
C1196 O1174 1.264 . S
C1196 O1175 1.254 . S
C1197 Eu1133 2.848 . S
C1197 O1172 1.257 . S
C1197 O1177 1.249 . S
C1197 C1190 1.492 . S
H1198 C1181 0.930 . S
H1199 C1182 0.930 . S
H1200 C1183 0.930 . S
H1201 C1184 0.930 . S
H1202 C1191 0.930 . S
H1203 C1193 0.930 . S
H1204 C1194 0.930 . S
H1205 C1195 0.930 . S
Eu1206 N1237 2.657 . S
Eu1206 N1244 2.609 . S
Eu1206 O1250 2.558 . S
Eu1206 O1251 2.612 . S
Eu1206 O1253 2.339 . S
Eu1206 O1254 2.563 . S
Eu1206 O1255 2.419 . S
Eu1206 O1257 2.380 . S
Eu1206 O1258 2.432 . S
Eu1206 C1270 2.848 . S
C1207 C1210 1.429 . S
C1207 C1211 1.411 . S
C1207 N1214 1.377 . S
C1208 C1210 1.420 . S
C1208 C1212 1.423 . S
C1208 C1220 1.392 . S
C1209 C1211 1.420 . S
C1209 C1212 1.351 . S
C1209 H1232 0.931 . S
C1210 C1207 1.429 . S
C1210 C1208 1.420 . S
C1210 N1218 1.362 . S
C1211 C1207 1.411 . S
C1211 C1209 1.420 . S
C1211 C1216 1.395 . S
C1212 C1208 1.423 . S
C1212 C1209 1.351 . S
C1212 H1224 0.930 . S
C1213 C1215 1.400 . S
C1213 C1216 1.386 . S
C1213 H1225 0.930 . S
N1214 C1207 1.377 . S
N1214 C1215 1.321 . S
N1214 Eu1217 2.609 . S
C1215 C1213 1.400 . S
C1215 N1214 1.321 . S
C1215 H1222 0.930 . S
C1216 C1211 1.395 . S
C1216 C1213 1.386 . S
C1216 H1235 0.930 . S
Eu1217 N1214 2.609 . S
Eu1217 N1218 2.657 . S
Eu1217 O1251 2.380 . S
Eu1217 O1252 2.432 . S
Eu1217 O1256 2.558 . S
Eu1217 O1257 2.612 . S
Eu1217 O1259 2.339 . S
Eu1217 O1260 2.563 . S
Eu1217 O1261 2.419 . S
Eu1217 C1281 2.848 . S
N1218 C1210 1.362 . S
N1218 Eu1217 2.657 . S
N1218 C1219 1.334 . S
C1219 N1218 1.334 . S
C1219 C1221 1.413 . S
C1219 H1226 0.929 . S
C1220 C1208 1.392 . S
C1220 C1221 1.367 . S
C1220 H1228 0.930 . S
C1221 C1219 1.413 . S
C1221 C1220 1.367 . S
C1221 H1223 0.930 . S
H1222 C1215 0.930 . S
H1223 C1221 0.930 . S
H1224 C1212 0.930 . S
H1225 C1213 0.930 . S
H1226 C1219 0.929 . S
H1227 C1241 0.930 . S
H1228 C1220 0.930 . S
H1229 C1247 0.930 . S
H1230 C1238 0.929 . S
H1231 C1245 0.930 . S
H1232 C1209 0.931 . S
H1233 C1239 0.930 . S
H1234 C1272 0.930 . S
H1235 C1216 0.930 . S
H1236 C1271 0.931 . S
N1237 Eu1206 2.657 . S
N1237 C1238 1.334 . S
N1237 C1242 1.362 . S
C1238 H1230 0.929 . S
C1238 N1237 1.334 . S
C1238 C1241 1.413 . S
C1239 H1233 0.930 . S
C1239 C1240 1.392 . S
C1239 C1241 1.367 . S
C1240 C1239 1.392 . S
C1240 C1242 1.420 . S
C1240 C1272 1.423 . S
C1241 H1227 0.930 . S
C1241 C1238 1.413 . S
C1241 C1239 1.367 . S
C1242 N1237 1.362 . S
C1242 C1240 1.420 . S
C1242 C1246 1.429 . S
H1243 C1248 0.930 . S
N1244 Eu1206 2.609 . S
N1244 C1246 1.377 . S
N1244 C1247 1.321 . S
C1245 H1231 0.930 . S
C1245 C1247 1.400 . S
C1245 C1248 1.386 . S
C1246 C1242 1.429 . S
C1246 N1244 1.377 . S
C1246 C1249 1.411 . S
C1247 H1229 0.930 . S
C1247 N1244 1.321 . S
C1247 C1245 1.400 . S
C1248 H1243 0.930 . S
C1248 C1245 1.386 . S
C1248 C1249 1.395 . S
C1249 C1246 1.411 . S
C1249 C1248 1.395 . S
C1249 C1271 1.420 . S
O1250 Eu1206 2.558 . S
O1250 C1270 1.257 . S
O1251 Eu1206 2.612 . S
O1251 Eu1217 2.380 . S
O1251 C1262 1.276 . S
O1252 Eu1217 2.432 . S
O1252 C1269 1.264 . S
O1253 Eu1206 2.339 . S
O1253 C1269 1.254 . S
O1254 Eu1206 2.563 . S
O1254 C1262 1.235 . S
O1255 Eu1206 2.419 . S
O1255 C1270 1.249 . S
O1256 Eu1217 2.558 . S
O1256 C1281 1.257 . S
O1257 Eu1206 2.380 . S
O1257 Eu1217 2.612 . S
O1257 C1273 1.276 . S
O1258 Eu1206 2.432 . S
O1258 C1280 1.264 . S
O1259 Eu1217 2.339 . S
O1259 C1280 1.254 . S
O1260 Eu1217 2.563 . S
O1260 C1273 1.235 . S
O1261 Eu1217 2.419 . S
O1261 C1281 1.249 . S
C1262 O1251 1.276 . S
C1262 O1254 1.235 . S
C1263 C1265 1.393 . S
C1263 C1267 1.395 . S
C1263 C1270 1.492 . S
C1264 C1265 1.392 . S
C1264 C1266 1.386 . S
C1265 C1263 1.393 . S
C1265 C1264 1.392 . S
C1265 H1282 0.930 . S
C1266 C1264 1.386 . S
C1266 C1268 1.395 . S
C1266 H1283 0.930 . S
C1267 C1263 1.395 . S
C1267 C1268 1.379 . S
C1267 H1284 0.930 . S
C1268 C1266 1.395 . S
C1268 C1267 1.379 . S
C1268 H1285 0.930 . S
C1269 O1252 1.264 . S
C1269 O1253 1.254 . S
C1270 Eu1206 2.848 . S
C1270 O1250 1.257 . S
C1270 O1255 1.249 . S
C1270 C1263 1.492 . S
C1271 H1236 0.931 . S
C1271 C1249 1.420 . S
C1271 C1272 1.351 . S
C1272 H1234 0.930 . S
C1272 C1240 1.423 . S
C1272 C1271 1.351 . S
C1273 O1257 1.276 . S
C1273 O1260 1.235 . S
C1274 C1275 1.393 . S
C1274 C1278 1.395 . S
C1274 C1281 1.492 . S
C1275 C1274 1.393 . S
C1275 C1276 1.392 . S
C1275 H1286 0.930 . S
C1276 C1275 1.392 . S
C1276 C1277 1.386 . S
C1277 C1276 1.386 . S
C1277 C1279 1.395 . S
C1277 H1287 0.930 . S
C1278 C1274 1.395 . S
C1278 C1279 1.379 . S
C1278 H1288 0.930 . S
C1279 C1277 1.395 . S
C1279 C1278 1.379 . S
C1279 H1289 0.930 . S
C1280 O1258 1.264 . S
C1280 O1259 1.254 . S
C1281 Eu1217 2.848 . S
C1281 O1256 1.257 . S
C1281 O1261 1.249 . S
C1281 C1274 1.492 . S
H1282 C1265 0.930 . S
H1283 C1266 0.930 . S
H1284 C1267 0.930 . S
H1285 C1268 0.930 . S
H1286 C1275 0.930 . S
H1287 C1277 0.930 . S
H1288 C1278 0.930 . S
H1289 C1279 0.930 . S
Eu1290 N1321 2.657 . S
Eu1290 N1328 2.609 . S
Eu1290 O1334 2.558 . S
Eu1290 O1335 2.612 . S
Eu1290 O1337 2.339 . S
Eu1290 O1338 2.563 . S
Eu1290 O1339 2.419 . S
Eu1290 O1341 2.380 . S
Eu1290 O1342 2.432 . S
Eu1290 C1354 2.848 . S
C1291 C1294 1.429 . S
C1291 C1295 1.411 . S
C1291 N1298 1.377 . S
C1292 C1294 1.420 . S
C1292 C1296 1.423 . S
C1292 C1304 1.392 . S
C1293 C1295 1.420 . S
C1293 C1296 1.351 . S
C1293 H1316 0.931 . S
C1294 C1291 1.429 . S
C1294 C1292 1.420 . S
C1294 N1302 1.362 . S
C1295 C1291 1.411 . S
C1295 C1293 1.420 . S
C1295 C1300 1.395 . S
C1296 C1292 1.423 . S
C1296 C1293 1.351 . S
C1296 H1308 0.930 . S
C1297 C1299 1.400 . S
C1297 C1300 1.386 . S
C1297 H1309 0.930 . S
N1298 C1291 1.377 . S
N1298 C1299 1.321 . S
N1298 Eu1301 2.609 . S
C1299 C1297 1.400 . S
C1299 N1298 1.321 . S
C1299 H1306 0.930 . S
C1300 C1295 1.395 . S
C1300 C1297 1.386 . S
C1300 H1319 0.930 . S
Eu1301 N1298 2.609 . S
Eu1301 N1302 2.657 . S
Eu1301 O1335 2.380 . S
Eu1301 O1336 2.432 . S
Eu1301 O1340 2.558 . S
Eu1301 O1341 2.612 . S
Eu1301 O1343 2.339 . S
Eu1301 O1344 2.563 . S
Eu1301 O1345 2.419 . S
Eu1301 C1365 2.848 . S
N1302 C1294 1.362 . S
N1302 Eu1301 2.657 . S
N1302 C1303 1.334 . S
C1303 N1302 1.334 . S
C1303 C1305 1.413 . S
C1303 H1310 0.929 . S
C1304 C1292 1.392 . S
C1304 C1305 1.367 . S
C1304 H1312 0.930 . S
C1305 C1303 1.413 . S
C1305 C1304 1.367 . S
C1305 H1307 0.930 . S
H1306 C1299 0.930 . S
H1307 C1305 0.930 . S
H1308 C1296 0.930 . S
H1309 C1297 0.930 . S
H1310 C1303 0.929 . S
H1311 C1325 0.930 . S
H1312 C1304 0.930 . S
H1313 C1331 0.930 . S
H1314 C1322 0.929 . S
H1315 C1329 0.930 . S
H1316 C1293 0.931 . S
H1317 C1323 0.930 . S
H1318 C1356 0.930 . S
H1319 C1300 0.930 . S
H1320 C1355 0.931 . S
N1321 Eu1290 2.657 . S
N1321 C1322 1.334 . S
N1321 C1326 1.362 . S
C1322 H1314 0.929 . S
C1322 N1321 1.334 . S
C1322 C1325 1.413 . S
C1323 H1317 0.930 . S
C1323 C1324 1.392 . S
C1323 C1325 1.367 . S
C1324 C1323 1.392 . S
C1324 C1326 1.420 . S
C1324 C1356 1.423 . S
C1325 H1311 0.930 . S
C1325 C1322 1.413 . S
C1325 C1323 1.367 . S
C1326 N1321 1.362 . S
C1326 C1324 1.420 . S
C1326 C1330 1.429 . S
H1327 C1332 0.930 . S
N1328 Eu1290 2.609 . S
N1328 C1330 1.377 . S
N1328 C1331 1.321 . S
C1329 H1315 0.930 . S
C1329 C1331 1.400 . S
C1329 C1332 1.386 . S
C1330 C1326 1.429 . S
C1330 N1328 1.377 . S
C1330 C1333 1.411 . S
C1331 H1313 0.930 . S
C1331 N1328 1.321 . S
C1331 C1329 1.400 . S
C1332 H1327 0.930 . S
C1332 C1329 1.386 . S
C1332 C1333 1.395 . S
C1333 C1330 1.411 . S
C1333 C1332 1.395 . S
C1333 C1355 1.420 . S
O1334 Eu1290 2.558 . S
O1334 C1354 1.257 . S
O1335 Eu1290 2.612 . S
O1335 Eu1301 2.380 . S
O1335 C1346 1.276 . S
O1336 Eu1301 2.432 . S
O1336 C1353 1.264 . S
O1337 Eu1290 2.339 . S
O1337 C1353 1.254 . S
O1338 Eu1290 2.563 . S
O1338 C1346 1.235 . S
O1339 Eu1290 2.419 . S
O1339 C1354 1.249 . S
O1340 Eu1301 2.558 . S
O1340 C1365 1.257 . S
O1341 Eu1290 2.380 . S
O1341 Eu1301 2.612 . S
O1341 C1357 1.276 . S
O1342 Eu1290 2.432 . S
O1342 C1364 1.264 . S
O1343 Eu1301 2.339 . S
O1343 C1364 1.254 . S
O1344 Eu1301 2.563 . S
O1344 C1357 1.235 . S
O1345 Eu1301 2.419 . S
O1345 C1365 1.249 . S
C1346 O1335 1.276 . S
C1346 O1338 1.235 . S
C1347 C1349 1.393 . S
C1347 C1351 1.395 . S
C1347 C1354 1.492 . S
C1348 C1349 1.392 . S
C1348 C1350 1.386 . S
C1349 C1347 1.393 . S
C1349 C1348 1.392 . S
C1349 H1366 0.930 . S
C1350 C1348 1.386 . S
C1350 C1352 1.395 . S
C1350 H1367 0.930 . S
C1351 C1347 1.395 . S
C1351 C1352 1.379 . S
C1351 H1368 0.930 . S
C1352 C1350 1.395 . S
C1352 C1351 1.379 . S
C1352 H1369 0.930 . S
C1353 O1336 1.264 . S
C1353 O1337 1.254 . S
C1354 Eu1290 2.848 . S
C1354 O1334 1.257 . S
C1354 O1339 1.249 . S
C1354 C1347 1.492 . S
C1355 H1320 0.931 . S
C1355 C1333 1.420 . S
C1355 C1356 1.351 . S
C1356 H1318 0.930 . S
C1356 C1324 1.423 . S
C1356 C1355 1.351 . S
C1357 O1341 1.276 . S
C1357 O1344 1.235 . S
C1358 C1359 1.393 . S
C1358 C1362 1.395 . S
C1358 C1365 1.492 . S
C1359 C1358 1.393 . S
C1359 C1360 1.392 . S
C1359 H1370 0.930 . S
C1360 C1359 1.392 . S
C1360 C1361 1.386 . S
C1361 C1360 1.386 . S
C1361 C1363 1.395 . S
C1361 H1371 0.930 . S
C1362 C1358 1.395 . S
C1362 C1363 1.379 . S
C1362 H1372 0.930 . S
C1363 C1361 1.395 . S
C1363 C1362 1.379 . S
C1363 H1373 0.930 . S
C1364 O1342 1.264 . S
C1364 O1343 1.254 . S
C1365 Eu1301 2.848 . S
C1365 O1340 1.257 . S
C1365 O1345 1.249 . S
C1365 C1358 1.492 . S
H1366 C1349 0.930 . S
H1367 C1350 0.930 . S
H1368 C1351 0.930 . S
H1369 C1352 0.930 . S
H1370 C1359 0.930 . S
H1371 C1361 0.930 . S
H1372 C1362 0.930 . S
H1373 C1363 0.930 . S
Eu1374 N1405 2.657 . S
Eu1374 N1412 2.609 . S
Eu1374 O1418 2.558 . S
Eu1374 O1419 2.612 . S
Eu1374 O1421 2.339 . S
Eu1374 O1422 2.563 . S
Eu1374 O1423 2.419 . S
Eu1374 O1425 2.380 . S
Eu1374 O1426 2.432 . S
Eu1374 C1438 2.848 . S
C1375 C1378 1.429 . S
C1375 C1379 1.411 . S
C1375 N1382 1.377 . S
C1376 C1378 1.420 . S
C1376 C1380 1.423 . S
C1376 C1388 1.392 . S
C1377 C1379 1.420 . S
C1377 C1380 1.351 . S
C1377 H1400 0.931 . S
C1378 C1375 1.429 . S
C1378 C1376 1.420 . S
C1378 N1386 1.362 . S
C1379 C1375 1.411 . S
C1379 C1377 1.420 . S
C1379 C1384 1.395 . S
C1380 C1376 1.423 . S
C1380 C1377 1.351 . S
C1380 H1392 0.930 . S
C1381 C1383 1.400 . S
C1381 C1384 1.386 . S
C1381 H1393 0.930 . S
N1382 C1375 1.377 . S
N1382 C1383 1.321 . S
N1382 Eu1385 2.609 . S
C1383 C1381 1.400 . S
C1383 N1382 1.321 . S
C1383 H1390 0.930 . S
C1384 C1379 1.395 . S
C1384 C1381 1.386 . S
C1384 H1403 0.930 . S
Eu1385 N1382 2.609 . S
Eu1385 N1386 2.657 . S
Eu1385 O1419 2.380 . S
Eu1385 O1420 2.432 . S
Eu1385 O1424 2.558 . S
Eu1385 O1425 2.612 . S
Eu1385 O1427 2.339 . S
Eu1385 O1428 2.563 . S
Eu1385 O1429 2.419 . S
Eu1385 C1449 2.848 . S
N1386 C1378 1.362 . S
N1386 Eu1385 2.657 . S
N1386 C1387 1.334 . S
C1387 N1386 1.334 . S
C1387 C1389 1.413 . S
C1387 H1394 0.929 . S
C1388 C1376 1.392 . S
C1388 C1389 1.367 . S
C1388 H1396 0.930 . S
C1389 C1387 1.413 . S
C1389 C1388 1.367 . S
C1389 H1391 0.930 . S
H1390 C1383 0.930 . S
H1391 C1389 0.930 . S
H1392 C1380 0.930 . S
H1393 C1381 0.930 . S
H1394 C1387 0.929 . S
H1395 C1409 0.930 . S
H1396 C1388 0.930 . S
H1397 C1415 0.930 . S
H1398 C1406 0.929 . S
H1399 C1413 0.930 . S
H1400 C1377 0.931 . S
H1401 C1407 0.930 . S
H1402 C1440 0.930 . S
H1403 C1384 0.930 . S
H1404 C1439 0.931 . S
N1405 Eu1374 2.657 . S
N1405 C1406 1.334 . S
N1405 C1410 1.362 . S
C1406 H1398 0.929 . S
C1406 N1405 1.334 . S
C1406 C1409 1.413 . S
C1407 H1401 0.930 . S
C1407 C1408 1.392 . S
C1407 C1409 1.367 . S
C1408 C1407 1.392 . S
C1408 C1410 1.420 . S
C1408 C1440 1.423 . S
C1409 H1395 0.930 . S
C1409 C1406 1.413 . S
C1409 C1407 1.367 . S
C1410 N1405 1.362 . S
C1410 C1408 1.420 . S
C1410 C1414 1.429 . S
H1411 C1416 0.930 . S
N1412 Eu1374 2.609 . S
N1412 C1414 1.377 . S
N1412 C1415 1.321 . S
C1413 H1399 0.930 . S
C1413 C1415 1.400 . S
C1413 C1416 1.386 . S
C1414 C1410 1.429 . S
C1414 N1412 1.377 . S
C1414 C1417 1.411 . S
C1415 H1397 0.930 . S
C1415 N1412 1.321 . S
C1415 C1413 1.400 . S
C1416 H1411 0.930 . S
C1416 C1413 1.386 . S
C1416 C1417 1.395 . S
C1417 C1414 1.411 . S
C1417 C1416 1.395 . S
C1417 C1439 1.420 . S
O1418 Eu1374 2.558 . S
O1418 C1438 1.257 . S
O1419 Eu1374 2.612 . S
O1419 Eu1385 2.380 . S
O1419 C1430 1.276 . S
O1420 Eu1385 2.432 . S
O1420 C1437 1.264 . S
O1421 Eu1374 2.339 . S
O1421 C1437 1.254 . S
O1422 Eu1374 2.563 . S
O1422 C1430 1.235 . S
O1423 Eu1374 2.419 . S
O1423 C1438 1.249 . S
O1424 Eu1385 2.558 . S
O1424 C1449 1.257 . S
O1425 Eu1374 2.380 . S
O1425 Eu1385 2.612 . S
O1425 C1441 1.276 . S
O1426 Eu1374 2.432 . S
O1426 C1448 1.264 . S
O1427 Eu1385 2.339 . S
O1427 C1448 1.254 . S
O1428 Eu1385 2.563 . S
O1428 C1441 1.235 . S
O1429 Eu1385 2.419 . S
O1429 C1449 1.249 . S
C1430 O1419 1.276 . S
C1430 O1422 1.235 . S
C1431 C1433 1.393 . S
C1431 C1435 1.395 . S
C1431 C1438 1.492 . S
C1432 C1433 1.392 . S
C1432 C1434 1.386 . S
C1433 C1431 1.393 . S
C1433 C1432 1.392 . S
C1433 H1450 0.930 . S
C1434 C1432 1.386 . S
C1434 C1436 1.395 . S
C1434 H1451 0.930 . S
C1435 C1431 1.395 . S
C1435 C1436 1.379 . S
C1435 H1452 0.930 . S
C1436 C1434 1.395 . S
C1436 C1435 1.379 . S
C1436 H1453 0.930 . S
C1437 O1420 1.264 . S
C1437 O1421 1.254 . S
C1438 Eu1374 2.848 . S
C1438 O1418 1.257 . S
C1438 O1423 1.249 . S
C1438 C1431 1.492 . S
C1439 H1404 0.931 . S
C1439 C1417 1.420 . S
C1439 C1440 1.351 . S
C1440 H1402 0.930 . S
C1440 C1408 1.423 . S
C1440 C1439 1.351 . S
C1441 O1425 1.276 . S
C1441 O1428 1.235 . S
C1442 C1443 1.393 . S
C1442 C1446 1.395 . S
C1442 C1449 1.492 . S
C1443 C1442 1.393 . S
C1443 C1444 1.392 . S
C1443 H1454 0.930 . S
C1444 C1443 1.392 . S
C1444 C1445 1.386 . S
C1445 C1444 1.386 . S
C1445 C1447 1.395 . S
C1445 H1455 0.930 . S
C1446 C1442 1.395 . S
C1446 C1447 1.379 . S
C1446 H1456 0.930 . S
C1447 C1445 1.395 . S
C1447 C1446 1.379 . S
C1447 H1457 0.930 . S
C1448 O1426 1.264 . S
C1448 O1427 1.254 . S
C1449 Eu1385 2.848 . S
C1449 O1424 1.257 . S
C1449 O1429 1.249 . S
C1449 C1442 1.492 . S
H1450 C1433 0.930 . S
H1451 C1434 0.930 . S
H1452 C1435 0.930 . S
H1453 C1436 0.930 . S
H1454 C1443 0.930 . S
H1455 C1445 0.930 . S
H1456 C1446 0.930 . S
H1457 C1447 0.930 . S
C1458 C1459 1.369 . S
C1458 C1460 1.419 . S
C1458 H1462 0.930 . S
C1459 C1458 1.369 . S
C1459 C1468 1.429 . S
C1460 C1458 1.419 . S
C1460 C1461 1.363 . S
C1460 H1463 0.929 . S
C1461 C1460 1.363 . S
C1461 C1467 1.428 . S
H1462 C1458 0.930 . S
H1463 C1460 0.929 . S
S1464 N1465 1.633 . S
S1464 N1466 1.615 . S
N1465 S1464 1.633 . S
N1465 C1468 1.350 . S
N1466 S1464 1.615 . S
N1466 C1467 1.351 . S
C1467 C1461 1.428 . S
C1467 N1466 1.351 . S
C1467 C1468 1.434 . S
C1468 C1459 1.429 . S
C1468 N1465 1.350 . S
C1468 C1467 1.434 . S
C1469 C1470 1.369 . S
C1469 C1471 1.419 . S
C1469 H1473 0.930 . S
C1470 C1469 1.369 . S
C1470 C1479 1.429 . S
C1471 C1469 1.419 . S
C1471 C1472 1.363 . S
C1471 H1474 0.929 . S
C1472 C1471 1.363 . S
C1472 C1478 1.428 . S
H1473 C1469 0.930 . S
H1474 C1471 0.929 . S
S1475 N1476 1.613 . S
S1475 N1477 1.610 . S
N1476 S1475 1.613 . S
N1476 C1479 1.350 . S
N1477 S1475 1.610 . S
N1477 C1478 1.351 . S
C1478 C1472 1.428 . S
C1478 N1477 1.351 . S
C1478 C1479 1.434 . S
C1479 C1470 1.429 . S
C1479 N1476 1.350 . S
C1479 C1478 1.434 . S
C1480 C1481 1.369 . S
C1480 C1482 1.419 . S
C1480 H1484 0.930 . S
C1481 C1480 1.369 . S
C1481 C1490 1.429 . S
C1482 C1480 1.419 . S
C1482 C1483 1.363 . S
C1482 H1485 0.929 . S
C1483 C1482 1.363 . S
C1483 C1489 1.428 . S
H1484 C1480 0.930 . S
H1485 C1482 0.929 . S
S1486 N1487 1.613 . S
S1486 N1488 1.610 . S
N1487 S1486 1.613 . S
N1487 C1490 1.350 . S
N1488 S1486 1.610 . S
N1488 C1489 1.351 . S
C1489 C1483 1.428 . S
C1489 N1488 1.351 . S
C1489 C1490 1.434 . S
C1490 C1481 1.429 . S
C1490 N1487 1.350 . S
C1490 C1489 1.434 . S
C1491 C1492 1.369 . S
C1491 C1493 1.419 . S
C1491 H1495 0.930 . S
C1492 C1491 1.369 . S
C1492 C1501 1.429 . S
C1493 C1491 1.419 . S
C1493 C1494 1.363 . S
C1493 H1496 0.929 . S
C1494 C1493 1.363 . S
C1494 C1500 1.428 . S
H1495 C1491 0.930 . S
H1496 C1493 0.929 . S
S1497 N1498 1.613 . S
S1497 N1499 1.610 . S
N1498 S1497 1.613 . S
N1498 C1501 1.350 . S
N1499 S1497 1.610 . S
N1499 C1500 1.351 . S
C1500 C1494 1.428 . S
C1500 N1499 1.351 . S
C1500 C1501 1.434 . S
C1501 C1492 1.429 . S
C1501 N1498 1.350 . S
C1501 C1500 1.434 . S
C1502 C1503 1.369 . S
C1502 C1504 1.419 . S
C1502 H1506 0.930 . S
C1503 C1502 1.369 . S
C1503 C1512 1.429 . S
C1504 C1502 1.419 . S
C1504 C1505 1.363 . S
C1504 H1507 0.929 . S
C1505 C1504 1.363 . S
C1505 C1511 1.428 . S
H1506 C1502 0.930 . S
H1507 C1504 0.929 . S
S1508 N1509 1.613 . S
S1508 N1510 1.610 . S
N1509 S1508 1.613 . S
N1509 C1512 1.350 . S
N1510 S1508 1.610 . S
N1510 C1511 1.351 . S
C1511 C1505 1.428 . S
C1511 N1510 1.351 . S
C1511 C1512 1.434 . S
C1512 C1503 1.429 . S
C1512 N1509 1.350 . S
C1512 C1511 1.434 . S
C1513 C1514 1.369 . S
C1513 C1515 1.419 . S
C1513 H1517 0.930 . S
C1514 C1513 1.369 . S
C1514 C1523 1.429 . S
C1515 C1513 1.419 . S
C1515 C1516 1.363 . S
C1515 H1518 0.929 . S
C1516 C1515 1.363 . S
C1516 C1522 1.428 . S
H1517 C1513 0.930 . S
H1518 C1515 0.929 . S
S1519 N1520 1.613 . S
S1519 N1521 1.610 . S
N1520 S1519 1.613 . S
N1520 C1523 1.350 1_554 S
N1521 S1519 1.610 . S
N1521 C1522 1.351 1_554 S
C1522 C1516 1.428 . S
C1522 N1521 1.351 1_556 S
C1522 C1523 1.434 . S
C1523 C1514 1.429 . S
C1523 N1520 1.350 1_556 S
C1523 C1522 1.434 . S
C1524 C1525 1.369 . S
C1524 C1526 1.419 . S
C1524 H1528 0.930 . S
C1525 C1524 1.369 . S
C1525 C1534 1.429 . S
C1526 C1524 1.419 . S
C1526 C1527 1.363 . S
C1526 H1529 0.929 . S
C1527 C1526 1.363 . S
C1527 C1533 1.428 . S
H1528 C1524 0.930 . S
H1529 C1526 0.929 . S
S1530 N1531 1.613 . S
S1530 N1532 1.610 . S
N1531 S1530 1.613 . S
N1531 C1534 1.350 . S
N1532 S1530 1.610 . S
N1532 C1533 1.351 . S
C1533 C1527 1.428 . S
C1533 N1532 1.351 . S
C1533 C1534 1.434 . S
C1534 C1525 1.429 . S
C1534 N1531 1.350 . S
C1534 C1533 1.434 . S
C1535 C1536 1.369 . S
C1535 C1537 1.419 . S
C1535 H1539 0.930 . S
C1536 C1535 1.369 . S
C1536 C1545 1.429 . S
C1537 C1535 1.419 . S
C1537 C1538 1.363 . S
C1537 H1540 0.929 1_556 S
C1538 C1537 1.363 . S
C1538 C1544 1.428 . S
H1539 C1535 0.930 . S
H1540 C1537 0.929 1_554 S
S1541 N1542 1.613 . S
S1541 N1543 1.610 . S
N1542 S1541 1.613 . S
N1542 C1545 1.350 . S
N1543 S1541 1.610 . S
N1543 C1544 1.351 . S
C1544 C1538 1.428 . S
C1544 N1543 1.351 . S
C1544 C1545 1.434 . S
C1545 C1536 1.429 . S
C1545 N1542 1.350 . S
C1545 C1544 1.434 . S
C1546 C1547 1.369 . S
C1546 C1548 1.419 . S
C1546 H1550 0.930 . S
C1547 C1546 1.369 . S
C1547 C1556 1.429 . S
C1548 C1546 1.419 . S
C1548 C1549 1.363 . S
C1548 H1551 0.929 1_556 S
C1549 C1548 1.363 . S
C1549 C1555 1.428 . S
H1550 C1546 0.930 . S
H1551 C1548 0.929 1_554 S
S1552 N1553 1.613 . S
S1552 N1554 1.610 . S
N1553 S1552 1.613 . S
N1553 C1556 1.350 . S
N1554 S1552 1.610 . S
N1554 C1555 1.351 . S
C1555 C1549 1.428 . S
C1555 N1554 1.351 . S
C1555 C1556 1.434 . S
C1556 C1547 1.429 . S
C1556 N1553 1.350 . S
C1556 C1555 1.434 . S
C1557 C1558 1.369 . S
C1557 C1559 1.419 . S
C1557 H1561 0.930 . S
C1558 C1557 1.369 . S
C1558 C1567 1.429 . S
C1559 C1557 1.419 . S
C1559 C1560 1.363 . S
C1559 H1562 0.929 . S
C1560 C1559 1.363 . S
C1560 C1566 1.428 . S
H1561 C1557 0.930 . S
H1562 C1559 0.929 . S
S1563 N1564 1.613 . S
S1563 N1565 1.610 . S
N1564 S1563 1.613 . S
N1564 C1567 1.350 . S
N1565 S1563 1.610 . S
N1565 C1566 1.351 . S
C1566 C1560 1.428 . S
C1566 N1565 1.351 . S
C1566 C1567 1.434 . S
C1567 C1558 1.429 . S
C1567 N1564 1.350 . S
C1567 C1566 1.434 . S
C1568 C1569 1.369 . S
C1568 C1570 1.419 . S
C1568 H1572 0.930 . S
C1569 C1568 1.369 . S
C1569 C1578 1.429 . S
C1570 C1568 1.419 . S
C1570 C1571 1.363 . S
C1570 H1573 0.929 . S
C1571 C1570 1.363 . S
C1571 C1577 1.428 . S
H1572 C1568 0.930 . S
H1573 C1570 0.929 . S
S1574 N1575 1.613 1_556 S
S1574 N1576 1.610 . S
N1575 S1574 1.613 1_554 S
N1575 C1578 1.350 . S
N1576 S1574 1.610 . S
N1576 C1577 1.351 1_556 S
C1577 C1571 1.428 . S
C1577 N1576 1.351 1_554 S
C1577 C1578 1.434 . S
C1578 C1569 1.429 . S
C1578 N1575 1.350 . S
C1578 C1577 1.434 . S
C1579 C1580 1.369 . S
C1579 C1581 1.419 . S
C1579 H1583 0.930 . S
C1580 C1579 1.369 . S
C1580 C1589 1.429 . S
C1581 C1579 1.419 . S
C1581 C1582 1.363 . S
C1581 H1584 0.929 . S
C1582 C1581 1.363 . S
C1582 C1588 1.428 . S
H1583 C1579 0.930 . S
H1584 C1581 0.929 . S
S1585 N1586 1.613 1_556 S
S1585 N1587 1.610 . S
N1586 S1585 1.613 1_554 S
N1586 C1589 1.350 . S
N1587 S1585 1.610 . S
N1587 C1588 1.351 1_556 S
C1588 C1582 1.428 . S
C1588 N1587 1.351 1_554 S
C1588 C1589 1.434 . S
C1589 C1580 1.429 . S
C1589 N1586 1.350 . S
C1589 C1588 1.434 . S
C1590 C1591 1.369 . S
C1590 C1592 1.419 . S
C1590 H1594 0.930 . S
C1591 C1590 1.369 . S
C1591 C1600 1.429 . S
C1592 C1590 1.419 . S
C1592 C1593 1.363 . S
C1592 H1595 0.929 . S
C1593 C1592 1.363 . S
C1593 C1599 1.428 . S
H1594 C1590 0.930 . S
H1595 C1592 0.929 . S
S1596 N1597 1.613 . S
S1596 N1598 1.610 . S
N1597 S1596 1.613 . S
N1597 C1600 1.350 . S
N1598 S1596 1.610 . S
N1598 C1599 1.351 . S
C1599 C1593 1.428 . S
C1599 N1598 1.351 . S
C1599 C1600 1.434 . S
C1600 C1591 1.429 . S
C1600 N1597 1.350 . S
C1600 C1599 1.434 . S
C1601 C1602 1.369 . S
C1601 C1603 1.419 . S
C1601 H1605 0.930 . S
C1602 C1601 1.369 . S
C1602 C1611 1.429 . S
C1603 C1601 1.419 . S
C1603 C1604 1.363 . S
C1603 H1606 0.929 . S
C1604 C1603 1.363 . S
C1604 C1610 1.428 . S
H1605 C1601 0.930 . S
H1606 C1603 0.929 . S
S1607 N1608 1.613 . S
S1607 N1609 1.610 . S
N1608 S1607 1.613 . S
N1608 C1611 1.350 . S
N1609 S1607 1.610 . S
N1609 C1610 1.351 . S
C1610 C1604 1.428 . S
C1610 N1609 1.351 . S
C1610 C1611 1.434 . S
C1611 C1602 1.429 . S
C1611 N1608 1.350 . S
C1611 C1610 1.434 . S
C1612 C1613 1.369 . S
C1612 C1614 1.419 . S
C1612 H1616 0.930 . S
C1613 C1612 1.369 . S
C1613 C1622 1.429 . S
C1614 C1612 1.419 . S
C1614 C1615 1.363 . S
C1614 H1617 0.929 . S
C1615 C1614 1.363 . S
C1615 C1621 1.428 . S
H1616 C1612 0.930 . S
H1617 C1614 0.929 . S
S1618 N1619 1.613 . S
S1618 N1620 1.610 . S
N1619 S1618 1.613 . S
N1619 C1622 1.350 . S
N1620 S1618 1.610 . S
N1620 C1621 1.351 . S
C1621 C1615 1.428 . S
C1621 N1620 1.351 . S
C1621 C1622 1.434 . S
C1622 C1613 1.429 . S
C1622 N1619 1.350 . S
C1622 C1621 1.434 . S
C1623 C1624 1.369 . S
C1623 C1625 1.419 . S
C1623 H1627 0.930 . S
C1624 C1623 1.369 . S
C1624 C1633 1.429 . S
C1625 C1623 1.419 . S
C1625 C1626 1.363 . S
C1625 H1628 0.929 . S
C1626 C1625 1.363 . S
C1626 C1632 1.428 . S
H1627 C1623 0.930 . S
H1628 C1625 0.929 . S
S1629 N1630 1.613 . S
S1629 N1631 1.610 . S
N1630 S1629 1.613 . S
N1630 C1633 1.350 . S
N1631 S1629 1.610 . S
N1631 C1632 1.351 . S
C1632 C1626 1.428 . S
C1632 N1631 1.351 . S
C1632 C1633 1.434 . S
C1633 C1624 1.429 . S
C1633 N1630 1.350 . S
C1633 C1632 1.434 . S
C1634 C1635 1.369 . S
C1634 C1636 1.419 . S
C1634 H1638 0.930 . S
C1635 C1634 1.369 . S
C1635 C1644 1.429 . S
C1636 C1634 1.419 . S
C1636 C1637 1.363 . S
C1636 H1639 0.929 . S
C1637 C1636 1.363 . S
C1637 C1643 1.428 . S
H1638 C1634 0.930 . S
H1639 C1636 0.929 . S
S1640 N1641 1.613 . S
S1640 N1642 1.610 . S
N1641 S1640 1.613 . S
N1641 C1644 1.350 . S
N1642 S1640 1.610 . S
N1642 C1643 1.351 . S
C1643 C1637 1.428 . S
C1643 N1642 1.351 . S
C1643 C1644 1.434 . S
C1644 C1635 1.429 . S
C1644 N1641 1.350 . S
C1644 C1643 1.434 . S
C1645 C1646 1.369 . S
C1645 C1647 1.419 . S
C1645 H1649 0.930 . S
C1646 C1645 1.369 . S
C1646 C1655 1.429 . S
C1647 C1645 1.419 . S
C1647 C1648 1.363 . S
C1647 H1650 0.929 . S
C1648 C1647 1.363 . S
C1648 C1654 1.428 . S
H1649 C1645 0.930 . S
H1650 C1647 0.929 . S
S1651 N1652 1.613 . S
S1651 N1653 1.610 . S
N1652 S1651 1.613 . S
N1652 C1655 1.350 . S
N1653 S1651 1.610 . S
N1653 C1654 1.351 . S
C1654 C1648 1.428 . S
C1654 N1653 1.351 . S
C1654 C1655 1.434 . S
C1655 C1646 1.429 . S
C1655 N1652 1.350 . S
C1655 C1654 1.434 . S
C1656 C1657 1.369 . S
C1656 C1658 1.419 . S
C1656 H1660 0.930 . S
C1657 C1656 1.369 . S
C1657 C1666 1.429 . S
C1658 C1656 1.419 . S
C1658 C1659 1.363 . S
C1658 H1661 0.929 . S
C1659 C1658 1.363 . S
C1659 C1665 1.428 . S
H1660 C1656 0.930 . S
H1661 C1658 0.929 . S
S1662 N1663 1.613 . S
S1662 N1664 1.610 . S
N1663 S1662 1.613 . S
N1663 C1666 1.350 . S
N1664 S1662 1.610 . S
N1664 C1665 1.351 . S
C1665 C1659 1.428 . S
C1665 N1664 1.351 . S
C1665 C1666 1.434 . S
C1666 C1657 1.429 . S
C1666 N1663 1.350 . S
C1666 C1665 1.434 . S
C1667 C1668 1.369 . S
C1667 C1669 1.419 . S
C1667 H1671 0.930 . S
C1668 C1667 1.369 . S
C1668 C1677 1.429 . S
C1669 C1667 1.419 . S
C1669 C1670 1.363 . S
C1669 H1672 0.929 . S
C1670 C1669 1.363 . S
C1670 C1676 1.428 . S
H1671 C1667 0.930 . S
H1672 C1669 0.929 . S
S1673 N1674 1.613 . S
S1673 N1675 1.610 . S
N1674 S1673 1.613 . S
N1674 C1677 1.350 . S
N1675 S1673 1.610 . S
N1675 C1676 1.351 . S
C1676 C1670 1.428 . S
C1676 N1675 1.351 . S
C1676 C1677 1.434 . S
C1677 C1668 1.429 . S
C1677 N1674 1.350 . S
C1677 C1676 1.434 . S
C1678 C1679 1.369 . S
C1678 C1680 1.419 . S
C1678 H1682 0.930 . S
C1679 C1678 1.369 . S
C1679 C1688 1.429 . S
C1680 C1678 1.419 . S
C1680 C1681 1.363 . S
C1680 H1683 0.929 . S
C1681 C1680 1.363 . S
C1681 C1687 1.428 . S
H1682 C1678 0.930 . S
H1683 C1680 0.929 . S
S1684 N1685 1.613 . S
S1684 N1686 1.610 . S
N1685 S1684 1.613 . S
N1685 C1688 1.350 . S
N1686 S1684 1.610 . S
N1686 C1687 1.351 . S
C1687 C1681 1.428 . S
C1687 N1686 1.351 . S
C1687 C1688 1.434 . S
C1688 C1679 1.429 . S
C1688 N1685 1.350 . S
C1688 C1687 1.434 . S
C1689 C1690 1.369 . S
C1689 C1691 1.419 . S
C1689 H1693 0.930 . S
C1690 C1689 1.369 . S
C1690 C1699 1.429 . S
C1691 C1689 1.419 . S
C1691 C1692 1.363 . S
C1691 H1694 0.929 . S
C1692 C1691 1.363 . S
C1692 C1698 1.428 . S
H1693 C1689 0.930 . S
H1694 C1691 0.929 . S
S1695 N1696 1.613 . S
S1695 N1697 1.610 . S
N1696 S1695 1.613 . S
N1696 C1699 1.350 . S
N1697 S1695 1.610 . S
N1697 C1698 1.351 . S
C1698 C1692 1.428 . S
C1698 N1697 1.351 . S
C1698 C1699 1.434 . S
C1699 C1690 1.429 . S
C1699 N1696 1.350 . S
C1699 C1698 1.434 . S
C1700 C1701 1.369 . S
C1700 C1702 1.419 . S
C1700 H1704 0.930 . S
C1701 C1700 1.369 . S
C1701 C1710 1.429 . S
C1702 C1700 1.419 . S
C1702 C1703 1.363 . S
C1702 H1705 0.929 . S
C1703 C1702 1.363 . S
C1703 C1709 1.428 . S
H1704 C1700 0.930 . S
H1705 C1702 0.929 . S
S1706 N1707 1.613 . S
S1706 N1708 1.610 . S
N1707 S1706 1.613 . S
N1707 C1710 1.350 . S
N1708 S1706 1.610 . S
N1708 C1709 1.351 . S
C1709 C1703 1.428 . S
C1709 N1708 1.351 . S
C1709 C1710 1.434 . S
C1710 C1701 1.429 . S
C1710 N1707 1.350 . S
C1710 C1709 1.434 . S
C1711 C1712 1.369 . S
C1711 C1713 1.419 . S
C1711 H1715 0.930 . S
C1712 C1711 1.369 . S
C1712 C1721 1.429 . S
C1713 C1711 1.419 . S
C1713 C1714 1.363 . S
C1713 H1716 0.929 . S
C1714 C1713 1.363 . S
C1714 C1720 1.428 . S
H1715 C1711 0.930 . S
H1716 C1713 0.929 . S
S1717 N1718 1.613 . S
S1717 N1719 1.610 . S
N1718 S1717 1.613 . S
N1718 C1721 1.350 . S
N1719 S1717 1.610 . S
N1719 C1720 1.351 . S
C1720 C1714 1.428 . S
C1720 N1719 1.351 . S
C1720 C1721 1.434 . S
C1721 C1712 1.429 . S
C1721 N1718 1.350 . S
C1721 C1720 1.434 . S
C1722 C1723 1.369 . S
C1722 C1724 1.419 . S
C1722 H1726 0.930 . S
C1723 C1722 1.369 . S
C1723 C1732 1.429 . S
C1724 C1722 1.419 . S
C1724 C1725 1.363 . S
C1724 H1727 0.929 . S
C1725 C1724 1.363 . S
C1725 C1731 1.428 . S
H1726 C1722 0.930 . S
H1727 C1724 0.929 . S
S1728 N1729 1.613 . S
S1728 N1730 1.610 . S
N1729 S1728 1.613 . S
N1729 C1732 1.350 . S
N1730 S1728 1.610 . S
N1730 C1731 1.351 . S
C1731 C1725 1.428 . S
C1731 N1730 1.351 . S
C1731 C1732 1.434 . S
C1732 C1723 1.429 . S
C1732 N1729 1.350 . S
C1732 C1731 1.434 . S
C1733 C1734 1.369 . S
C1733 C1735 1.419 . S
C1733 H1737 0.930 . S
C1734 C1733 1.369 . S
C1734 C1743 1.429 . S
C1735 C1733 1.419 . S
C1735 C1736 1.363 . S
C1735 H1738 0.929 . S
C1736 C1735 1.363 . S
C1736 C1742 1.428 . S
H1737 C1733 0.930 . S
H1738 C1735 0.929 . S
S1739 N1740 1.613 . S
S1739 N1741 1.610 . S
N1740 S1739 1.613 . S
N1740 C1743 1.350 . S
N1741 S1739 1.610 . S
N1741 C1742 1.351 . S
C1742 C1736 1.428 . S
C1742 N1741 1.351 . S
C1742 C1743 1.434 . S
C1743 C1734 1.429 . S
C1743 N1740 1.350 . S
C1743 C1742 1.434 . S
C1744 C1745 1.369 . S
C1744 C1746 1.419 . S
C1744 H1748 0.930 . S
C1745 C1744 1.369 . S
C1745 C1754 1.429 . S
C1746 C1744 1.419 . S
C1746 C1747 1.363 . S
C1746 H1749 0.929 . S
C1747 C1746 1.363 . S
C1747 C1753 1.428 . S
H1748 C1744 0.930 . S
H1749 C1746 0.929 . S
S1750 N1751 1.613 . S
S1750 N1752 1.610 . S
N1751 S1750 1.613 . S
N1751 C1754 1.350 . S
N1752 S1750 1.610 . S
N1752 C1753 1.351 . S
C1753 C1747 1.428 . S
C1753 N1752 1.351 . S
C1753 C1754 1.434 . S
C1754 C1745 1.429 . S
C1754 N1751 1.350 . S
C1754 C1753 1.434 . S
C1755 C1756 1.369 . S
C1755 C1757 1.419 . S
C1755 H1759 0.930 . S
C1756 C1755 1.369 . S
C1756 C1765 1.429 . S
C1757 C1755 1.419 . S
C1757 C1758 1.363 . S
C1757 H1760 0.929 . S
C1758 C1757 1.363 . S
C1758 C1764 1.428 . S
H1759 C1755 0.930 . S
H1760 C1757 0.929 . S
S1761 N1762 1.613 . S
S1761 N1763 1.610 . S
N1762 S1761 1.613 . S
N1762 C1765 1.350 . S
N1763 S1761 1.610 . S
N1763 C1764 1.351 . S
C1764 C1758 1.428 . S
C1764 N1763 1.351 . S
C1764 C1765 1.434 . S
C1765 C1756 1.429 . S
C1765 N1762 1.350 . S
C1765 C1764 1.434 . S
C1766 C1767 1.369 . S
C1766 C1768 1.419 . S
C1766 H1770 0.930 . S
C1767 C1766 1.369 . S
C1767 C1776 1.429 . S
C1768 C1766 1.419 . S
C1768 C1769 1.363 . S
C1768 H1771 0.929 . S
C1769 C1768 1.363 . S
C1769 C1775 1.428 . S
H1770 C1766 0.930 . S
H1771 C1768 0.929 . S
S1772 N1773 1.613 . S
S1772 N1774 1.610 . S
N1773 S1772 1.613 . S
N1773 C1776 1.350 . S
N1774 S1772 1.610 . S
N1774 C1775 1.351 . S
C1775 C1769 1.428 . S
C1775 N1774 1.351 . S
C1775 C1776 1.434 . S
C1776 C1767 1.429 . S
C1776 N1773 1.350 . S
C1776 C1775 1.434 . S
C1777 C1778 1.369 . S
C1777 C1779 1.419 . S
C1777 H1781 0.930 . S
C1778 C1777 1.369 . S
C1778 C1787 1.429 . S
C1779 C1777 1.419 . S
C1779 C1780 1.363 . S
C1779 H1782 0.929 . S
C1780 C1779 1.363 . S
C1780 C1786 1.428 . S
H1781 C1777 0.930 . S
H1782 C1779 0.929 . S
S1783 N1784 1.613 . S
S1783 N1785 1.610 . S
N1784 S1783 1.613 . S
N1784 C1787 1.350 . S
N1785 S1783 1.610 . S
N1785 C1786 1.351 . S
C1786 C1780 1.428 . S
C1786 N1785 1.351 . S
C1786 C1787 1.434 . S
C1787 C1778 1.429 . S
C1787 N1784 1.350 . S
C1787 C1786 1.434 . S
C1788 C1789 1.369 . S
C1788 C1790 1.419 . S
C1788 H1792 0.930 . S
C1789 C1788 1.369 . S
C1789 C1798 1.429 . S
C1790 C1788 1.419 . S
C1790 C1791 1.363 . S
C1790 H1793 0.929 . S
C1791 C1790 1.363 . S
C1791 C1797 1.428 . S
H1792 C1788 0.930 . S
H1793 C1790 0.929 . S
S1794 N1795 1.613 . S
S1794 N1796 1.610 . S
N1795 S1794 1.613 . S
N1795 C1798 1.350 . S
N1796 S1794 1.610 . S
N1796 C1797 1.351 . S
C1797 C1791 1.428 . S
C1797 N1796 1.351 . S
C1797 C1798 1.434 . S
C1798 C1789 1.429 . S
C1798 N1795 1.350 . S
C1798 C1797 1.434 . S
C1799 C1800 1.369 . S
C1799 C1801 1.419 . S
C1799 H1803 0.930 . S
C1800 C1799 1.369 . S
C1800 C1809 1.429 . S
C1801 C1799 1.419 . S
C1801 C1802 1.363 . S
C1801 H1804 0.929 . S
C1802 C1801 1.363 . S
C1802 C1808 1.428 . S
H1803 C1799 0.930 . S
H1804 C1801 0.929 . S
S1805 N1806 1.613 . S
S1805 N1807 1.610 . S
N1806 S1805 1.613 . S
N1806 C1809 1.350 . S
N1807 S1805 1.610 . S
N1807 C1808 1.351 . S
C1808 C1802 1.428 . S
C1808 N1807 1.351 . S
C1808 C1809 1.434 . S
C1809 C1800 1.429 . S
C1809 N1806 1.350 . S
C1809 C1808 1.434 . S
C1810 C1811 1.369 . S
C1810 C1812 1.419 . S
C1810 H1814 0.930 . S
C1811 C1810 1.369 . S
C1811 C1820 1.429 . S
C1812 C1810 1.419 . S
C1812 C1813 1.363 . S
C1812 H1815 0.929 . S
C1813 C1812 1.363 . S
C1813 C1819 1.428 . S
H1814 C1810 0.930 . S
H1815 C1812 0.929 . S
S1816 N1817 1.613 . S
S1816 N1818 1.610 . S
N1817 S1816 1.613 . S
N1817 C1820 1.350 . S
N1818 S1816 1.610 . S
N1818 C1819 1.351 . S
C1819 C1813 1.428 . S
C1819 N1818 1.351 . S
C1819 C1820 1.434 . S
C1820 C1811 1.429 . S
C1820 N1817 1.350 . S
C1820 C1819 1.434 . S
C1821 C1822 1.369 . S
C1821 C1823 1.419 . S
C1821 H1825 0.930 . S
C1822 C1821 1.369 . S
C1822 C1831 1.429 . S
C1823 C1821 1.419 . S
C1823 C1824 1.363 . S
C1823 H1826 0.929 . S
C1824 C1823 1.363 . S
C1824 C1830 1.428 . S
H1825 C1821 0.930 . S
H1826 C1823 0.929 . S
S1827 N1828 1.613 . S
S1827 N1829 1.610 . S
N1828 S1827 1.613 . S
N1828 C1831 1.350 . S
N1829 S1827 1.610 . S
N1829 C1830 1.351 . S
C1830 C1824 1.428 . S
C1830 N1829 1.351 . S
C1830 C1831 1.434 . S
C1831 C1822 1.429 . S
C1831 N1828 1.350 . S
C1831 C1830 1.434 . S
C1832 C1833 1.369 . S
C1832 C1834 1.419 . S
C1832 H1836 0.930 . S
C1833 C1832 1.369 . S
C1833 C1842 1.429 . S
C1834 C1832 1.419 . S
C1834 C1835 1.363 . S
C1834 H1837 0.929 . S
C1835 C1834 1.363 . S
C1835 C1841 1.428 . S
H1836 C1832 0.930 . S
H1837 C1834 0.929 . S
S1838 N1839 1.613 . S
S1838 N1840 1.610 . S
N1839 S1838 1.613 . S
N1839 C1842 1.350 . S
N1840 S1838 1.610 . S
N1840 C1841 1.351 . S
C1841 C1835 1.428 . S
C1841 N1840 1.351 . S
C1841 C1842 1.434 . S
C1842 C1833 1.429 . S
C1842 N1839 1.350 . S
C1842 C1841 1.434 . S
C1843 C1844 1.369 . S
C1843 C1845 1.419 . S
C1843 H1847 0.930 . S
C1844 C1843 1.369 . S
C1844 C1853 1.429 . S
C1845 C1843 1.419 . S
C1845 C1846 1.363 . S
C1845 H1848 0.929 . S
C1846 C1845 1.363 . S
C1846 C1852 1.428 . S
H1847 C1843 0.930 . S
H1848 C1845 0.929 . S
S1849 N1850 1.613 . S
S1849 N1851 1.610 . S
N1850 S1849 1.613 . S
N1850 C1853 1.350 . S
N1851 S1849 1.610 . S
N1851 C1852 1.351 . S
C1852 C1846 1.428 . S
C1852 N1851 1.351 . S
C1852 C1853 1.434 . S
C1853 C1844 1.429 . S
C1853 N1850 1.350 . S
C1853 C1852 1.434 . S
C1854 C1855 1.369 . S
C1854 C1856 1.419 . S
C1854 H1858 0.930 . S
C1855 C1854 1.369 . S
C1855 C1864 1.429 . S
C1856 C1854 1.419 . S
C1856 C1857 1.363 . S
C1856 H1859 0.929 . S
C1857 C1856 1.363 . S
C1857 C1863 1.428 . S
H1858 C1854 0.930 . S
H1859 C1856 0.929 . S
S1860 N1861 1.613 . S
S1860 N1862 1.610 . S
N1861 S1860 1.613 . S
N1861 C1864 1.350 . S
N1862 S1860 1.610 . S
N1862 C1863 1.351 . S
C1863 C1857 1.428 . S
C1863 N1862 1.351 . S
C1863 C1864 1.434 . S
C1864 C1855 1.429 . S
C1864 N1861 1.350 . S
C1864 C1863 1.434 . S
C1865 C1866 1.369 . S
C1865 C1867 1.419 . S
C1865 H1869 0.930 . S
C1866 C1865 1.369 . S
C1866 C1875 1.429 . S
C1867 C1865 1.419 . S
C1867 C1868 1.363 . S
C1867 H1870 0.929 . S
C1868 C1867 1.363 . S
C1868 C1874 1.428 . S
H1869 C1865 0.930 . S
H1870 C1867 0.929 . S
S1871 N1872 1.613 . S
S1871 N1873 1.610 . S
N1872 S1871 1.613 . S
N1872 C1875 1.350 . S
N1873 S1871 1.610 . S
N1873 C1874 1.351 . S
C1874 C1868 1.428 . S
C1874 N1873 1.351 . S
C1874 C1875 1.434 . S
C1875 C1866 1.429 . S
C1875 N1872 1.350 . S
C1875 C1874 1.434 . S
C1876 C1877 1.369 . S
C1876 C1878 1.419 . S
C1876 H1880 0.930 . S
C1877 C1876 1.369 . S
C1877 C1886 1.429 . S
C1878 C1876 1.419 . S
C1878 C1879 1.363 . S
C1878 H1881 0.929 . S
C1879 C1878 1.363 . S
C1879 C1885 1.428 . S
H1880 C1876 0.930 . S
H1881 C1878 0.929 . S
S1882 N1883 1.613 . S
S1882 N1884 1.610 . S
N1883 S1882 1.613 . S
N1883 C1886 1.350 . S
N1884 S1882 1.610 . S
N1884 C1885 1.351 . S
C1885 C1879 1.428 . S
C1885 N1884 1.351 . S
C1885 C1886 1.434 . S
C1886 C1877 1.429 . S
C1886 N1883 1.350 . S
C1886 C1885 1.434 . S
C1887 C1888 1.369 . S
C1887 C1889 1.419 . S
C1887 H1891 0.930 . S
C1888 C1887 1.369 . S
C1888 C1897 1.429 . S
C1889 C1887 1.419 . S
C1889 C1890 1.363 . S
C1889 H1892 0.929 . S
C1890 C1889 1.363 . S
C1890 C1896 1.428 . S
H1891 C1887 0.930 . S
H1892 C1889 0.929 . S
S1893 N1894 1.613 . S
S1893 N1895 1.610 . S
N1894 S1893 1.613 . S
N1894 C1897 1.350 . S
N1895 S1893 1.610 . S
N1895 C1896 1.351 . S
C1896 C1890 1.428 . S
C1896 N1895 1.351 . S
C1896 C1897 1.434 . S
C1897 C1888 1.429 . S
C1897 N1894 1.350 . S
C1897 C1896 1.434 . S
C1898 C1899 1.369 . S
C1898 C1900 1.419 . S
C1898 H1902 0.930 . S
C1899 C1898 1.369 . S
C1899 C1908 1.429 . S
C1900 C1898 1.419 . S
C1900 C1901 1.363 . S
C1900 H1903 0.929 . S
C1901 C1900 1.363 . S
C1901 C1907 1.428 . S
H1902 C1898 0.930 . S
H1903 C1900 0.929 . S
S1904 N1905 1.613 . S
S1904 N1906 1.610 . S
N1905 S1904 1.613 . S
N1905 C1908 1.350 . S
N1906 S1904 1.610 . S
N1906 C1907 1.351 . S
C1907 C1901 1.428 . S
C1907 N1906 1.351 . S
C1907 C1908 1.434 . S
C1908 C1899 1.429 . S
C1908 N1905 1.350 . S
C1908 C1907 1.434 . S
C1909 C1910 1.369 . S
C1909 C1911 1.419 . S
C1909 H1913 0.930 . S
C1910 C1909 1.369 . S
C1910 C1919 1.429 . S
C1911 C1909 1.419 . S
C1911 C1912 1.363 . S
C1911 H1914 0.929 . S
C1912 C1911 1.363 . S
C1912 C1918 1.428 . S
H1913 C1909 0.930 . S
H1914 C1911 0.929 . S
S1915 N1916 1.613 1_565 S
S1915 N1917 1.610 . S
N1916 S1915 1.613 1_545 S
N1916 C1919 1.350 . S
N1917 S1915 1.610 . S
N1917 C1918 1.351 1_565 S
C1918 C1912 1.428 . S
C1918 N1917 1.351 1_545 S
C1918 C1919 1.434 . S
C1919 C1910 1.429 . S
C1919 N1916 1.350 . S
C1919 C1918 1.434 . S
C1920 C1921 1.369 . S
C1920 C1922 1.419 . S
C1920 H1924 0.930 . S
C1921 C1920 1.369 . S
C1921 C1930 1.429 . S
C1922 C1920 1.419 . S
C1922 C1923 1.363 . S
C1922 H1925 0.929 . S
C1923 C1922 1.363 . S
C1923 C1929 1.428 . S
H1924 C1920 0.930 . S
H1925 C1922 0.929 . S
S1926 N1927 1.613 . S
S1926 N1928 1.610 . S
N1927 S1926 1.613 . S
N1927 C1930 1.350 . S
N1928 S1926 1.610 . S
N1928 C1929 1.351 . S
C1929 C1923 1.428 . S
C1929 N1928 1.351 . S
C1929 C1930 1.434 . S
C1930 C1921 1.429 . S
C1930 N1927 1.350 . S
C1930 C1929 1.434 . S
C1931 C1932 1.369 . S
C1931 C1933 1.419 . S
C1931 H1935 0.930 . S
C1932 C1931 1.369 . S
C1932 C1941 1.429 . S
C1933 C1931 1.419 . S
C1933 C1934 1.363 . S
C1933 H1936 0.929 . S
C1934 C1933 1.363 . S
C1934 C1940 1.428 . S
H1935 C1931 0.930 . S
H1936 C1933 0.929 . S
S1937 N1938 1.613 . S
S1937 N1939 1.610 . S
N1938 S1937 1.613 . S
N1938 C1941 1.350 . S
N1939 S1937 1.610 . S
N1939 C1940 1.351 . S
C1940 C1934 1.428 . S
C1940 N1939 1.351 . S
C1940 C1941 1.434 . S
C1941 C1932 1.429 . S
C1941 N1938 1.350 . S
C1941 C1940 1.434 . S
C1942 C1943 1.369 . S
C1942 C1944 1.419 . S
C1942 H1946 0.930 . S
C1943 C1942 1.369 . S
C1943 C1952 1.429 . S
C1944 C1942 1.419 . S
C1944 C1945 1.363 . S
C1944 H1947 0.929 . S
C1945 C1944 1.363 . S
C1945 C1951 1.428 . S
H1946 C1942 0.930 . S
H1947 C1944 0.929 . S
S1948 N1949 1.613 . S
S1948 N1950 1.610 . S
N1949 S1948 1.613 . S
N1949 C1952 1.350 . S
N1950 S1948 1.610 . S
N1950 C1951 1.351 . S
C1951 C1945 1.428 . S
C1951 N1950 1.351 . S
C1951 C1952 1.434 . S
C1952 C1943 1.429 . S
C1952 N1949 1.350 . S
C1952 C1951 1.434 . S
C1953 C1954 1.369 . S
C1953 C1955 1.419 . S
C1953 H1957 0.930 . S
C1954 C1953 1.369 . S
C1954 C1963 1.429 . S
C1955 C1953 1.419 . S
C1955 C1956 1.363 . S
C1955 H1958 0.929 . S
C1956 C1955 1.363 . S
C1956 C1962 1.428 . S
H1957 C1953 0.930 . S
H1958 C1955 0.929 . S
S1959 N1960 1.613 . S
S1959 N1961 1.610 . S
N1960 S1959 1.613 . S
N1960 C1963 1.350 . S
N1961 S1959 1.610 . S
N1961 C1962 1.351 . S
C1962 C1956 1.428 . S
C1962 N1961 1.351 . S
C1962 C1963 1.434 . S
C1963 C1954 1.429 . S
C1963 N1960 1.350 . S
C1963 C1962 1.434 . S
C1964 C1965 1.369 . S
C1964 C1966 1.419 . S
C1964 H1968 0.930 . S
C1965 C1964 1.369 . S
C1965 C1974 1.429 . S
C1966 C1964 1.419 . S
C1966 C1967 1.363 . S
C1966 H1969 0.929 . S
C1967 C1966 1.363 . S
C1967 C1973 1.428 . S
H1968 C1964 0.930 . S
H1969 C1966 0.929 . S
S1970 N1971 1.613 . S
S1970 N1972 1.610 . S
N1971 S1970 1.613 . S
N1971 C1974 1.350 . S
N1972 S1970 1.610 . S
N1972 C1973 1.351 . S
C1973 C1967 1.428 . S
C1973 N1972 1.351 . S
C1973 C1974 1.434 . S
C1974 C1965 1.429 . S
C1974 N1971 1.350 . S
C1974 C1973 1.434 . S
C1975 C1976 1.369 . S
C1975 C1977 1.419 . S
C1975 H1979 0.930 . S
C1976 C1975 1.369 . S
C1976 C1985 1.429 . S
C1977 C1975 1.419 . S
C1977 C1978 1.363 . S
C1977 H1980 0.929 . S
C1978 C1977 1.363 . S
C1978 C1984 1.428 . S
H1979 C1975 0.930 . S
H1980 C1977 0.929 . S
S1981 N1982 1.613 . S
S1981 N1983 1.610 . S
N1982 S1981 1.613 . S
N1982 C1985 1.350 . S
N1983 S1981 1.610 . S
N1983 C1984 1.351 . S
C1984 C1978 1.428 . S
C1984 N1983 1.351 . S
C1984 C1985 1.434 . S
C1985 C1976 1.429 . S
C1985 N1982 1.350 . S
C1985 C1984 1.434 . S
C1986 C1987 1.369 . S
C1986 C1988 1.419 . S
C1986 H1990 0.930 . S
C1987 C1986 1.369 . S
C1987 C1996 1.429 . S
C1988 C1986 1.419 . S
C1988 C1989 1.363 . S
C1988 H1991 0.929 . S
C1989 C1988 1.363 . S
C1989 C1995 1.428 . S
H1990 C1986 0.930 . S
H1991 C1988 0.929 . S
S1992 N1993 1.613 . S
S1992 N1994 1.610 . S
N1993 S1992 1.613 . S
N1993 C1996 1.350 . S
N1994 S1992 1.610 . S
N1994 C1995 1.351 . S
C1995 C1989 1.428 . S
C1995 N1994 1.351 . S
C1995 C1996 1.434 . S
C1996 C1987 1.429 . S
C1996 N1993 1.350 . S
C1996 C1995 1.434 . S
C1997 C1998 1.369 . S
C1997 C1999 1.419 . S
C1997 H2001 0.930 . S
C1998 C1997 1.369 . S
C1998 C2007 1.429 . S
C1999 C1997 1.419 . S
C1999 C2000 1.363 . S
C1999 H2002 0.929 . S
C2000 C1999 1.363 . S
C2000 C2006 1.428 . S
H2001 C1997 0.930 . S
H2002 C1999 0.929 . S
S2003 N2004 1.613 . S
S2003 N2005 1.610 . S
N2004 S2003 1.613 . S
N2004 C2007 1.350 . S
N2005 S2003 1.610 . S
N2005 C2006 1.351 . S
C2006 C2000 1.428 . S
C2006 N2005 1.351 . S
C2006 C2007 1.434 . S
C2007 C1998 1.429 . S
C2007 N2004 1.350 . S
C2007 C2006 1.434 . S
C2008 C2009 1.369 . S
C2008 C2010 1.419 . S
C2008 H2012 0.930 . S
C2009 C2008 1.369 . S
C2009 C2018 1.429 . S
C2010 C2008 1.419 . S
C2010 C2011 1.363 . S
C2010 H2013 0.929 . S
C2011 C2010 1.363 . S
C2011 C2017 1.428 . S
H2012 C2008 0.930 . S
H2013 C2010 0.929 . S
S2014 N2015 1.613 . S
S2014 N2016 1.610 . S
N2015 S2014 1.613 . S
N2015 C2018 1.350 . S
N2016 S2014 1.610 . S
N2016 C2017 1.351 . S
C2017 C2011 1.428 . S
C2017 N2016 1.351 . S
C2017 C2018 1.434 . S
C2018 C2009 1.429 . S
C2018 N2015 1.350 . S
C2018 C2017 1.434 . S
C2019 C2020 1.369 . S
C2019 C2021 1.419 . S
C2019 H2023 0.930 . S
C2020 C2019 1.369 . S
C2020 C2029 1.429 . S
C2021 C2019 1.419 . S
C2021 C2022 1.363 . S
C2021 H2024 0.929 . S
C2022 C2021 1.363 . S
C2022 C2028 1.428 . S
H2023 C2019 0.930 . S
H2024 C2021 0.929 . S
S2025 N2026 1.613 . S
S2025 N2027 1.610 . S
N2026 S2025 1.613 . S
N2026 C2029 1.350 . S
N2027 S2025 1.610 . S
N2027 C2028 1.351 . S
C2028 C2022 1.428 . S
C2028 N2027 1.351 . S
C2028 C2029 1.434 . S
C2029 C2020 1.429 . S
C2029 N2026 1.350 . S
C2029 C2028 1.434 . S
C2030 C2031 1.369 . S
C2030 C2032 1.419 . S
C2030 H2034 0.930 . S
C2031 C2030 1.369 . S
C2031 C2040 1.429 . S
C2032 C2030 1.419 . S
C2032 C2033 1.363 . S
C2032 H2035 0.929 . S
C2033 C2032 1.363 . S
C2033 C2039 1.428 . S
H2034 C2030 0.930 . S
H2035 C2032 0.929 . S
S2036 N2037 1.613 . S
S2036 N2038 1.610 . S
N2037 S2036 1.613 . S
N2037 C2040 1.350 . S
N2038 S2036 1.610 . S
N2038 C2039 1.351 . S
C2039 C2033 1.428 . S
C2039 N2038 1.351 . S
C2039 C2040 1.434 . S
C2040 C2031 1.429 . S
C2040 N2037 1.350 . S
C2040 C2039 1.434 . S
C2041 C2042 1.369 . S
C2041 C2043 1.419 . S
C2041 H2045 0.930 . S
C2042 C2041 1.369 . S
C2042 C2051 1.429 . S
C2043 C2041 1.419 . S
C2043 C2044 1.363 . S
C2043 H2046 0.929 . S
C2044 C2043 1.363 . S
C2044 C2050 1.428 . S
H2045 C2041 0.930 . S
H2046 C2043 0.929 . S
S2047 N2048 1.613 . S
S2047 N2049 1.610 . S
N2048 S2047 1.613 . S
N2048 C2051 1.350 . S
N2049 S2047 1.610 . S
N2049 C2050 1.351 . S
C2050 C2044 1.428 . S
C2050 N2049 1.351 . S
C2050 C2051 1.434 . S
C2051 C2042 1.429 . S
C2051 N2048 1.350 . S
C2051 C2050 1.434 . S
C1459 C528 1.463 . S
C1461 C769 1.387 . S
C1470 C562 1.512 . S
C1472 C853 1.438 . S
C1481 C484 1.515 . S
C1483 C933 1.451 . S
C1492 C445 1.468 . S
C1494 C849 1.411 . S
C1505 C937 1.378 . S
C1503 C367 1.460 . S
C1514 C411 1.446 . S
C1516 C765 1.389 . S
C1527 C758 1.398 . S
C1525 C450 1.473 . S
C1538 C842 1.429 . S
C1536 C372 1.492 . S
C1547 C406 1.506 . S
C1549 C944 1.458 . S
C1558 C523 1.461 . S
C1560 C860 1.415 . S
C1569 C567 1.440 . S
C1571 C926 1.373 . S
C1582 C776 1.405 . S
C1580 C489 1.455 . S
C1593 C1021 1.386 . S
C1591 C60 1.463 1_455 S
C1602 C94 1.512 . S
C1604 C1105 1.438 . S
C1613 C16 1.515 1_565 S
C1615 C1185 1.452 . S
C1624 C679 1.465 . S
C1626 C1101 1.415 . S
C1635 C601 1.459 . S
C1637 C1189 1.377 . S
C1646 C645 1.444 . S
C1648 C1017 1.392 . S
C1657 C684 1.470 . S
C1659 C1010 1.407 . S
C1668 C606 1.496 . S
C1670 C1094 1.429 . S
C1681 C1196 1.452 . S
C1679 C640 1.510 . S
C1690 C55 1.465 1_565 S
C1692 C1112 1.410 . S
C1703 C1178 1.366 . S
C1701 C99 1.442 1_455 S
C1712 C21 1.458 . S
C1714 C1028 1.400 . S
C1725 C1273 1.383 . S
C1723 C294 1.463 . S
C1734 C328 1.512 . S
C1736 C1357 1.438 . S
C1747 C1437 1.455 . S
C1745 C250 1.513 . S
C1758 C1353 1.411 . S
C1756 C211 1.468 1_545 S
C1769 C1441 1.384 . S
C1767 C133 1.460 1_655 S
C1778 C177 1.444 . S
C1780 C1269 1.393 . S
C1789 C216 1.468 1_655 S
C1791 C1262 1.405 . S
C1800 C138 1.495 . S
C1802 C1346 1.426 . S
C1813 C1448 1.454 . S
C1811 C172 1.510 1_545 S
C1822 C289 1.465 . S
C1824 C1364 1.411 . S
C1833 C333 1.439 . S
C1835 C1430 1.374 . S
C1844 C255 1.458 . S
C1846 C1280 1.400 . S
C1855 C586 1.490 . S
C1857 C772 1.386 . S
C1868 C856 1.360 . S
C1866 C625 1.509 . S
C1877 C664 1.494 . S
C1879 C928 1.361 . S
C1888 C235 1.518 . S
C1890 C844 1.369 . S
C1899 C274 1.484 . S
C1901 C940 1.360 . S
C1912 C760 1.382 . S
C1910 C313 1.489 . S
C1921 C118 1.490 . S
C1923 C1024 1.387 . S
C1932 C157 1.508 . S
C1934 C1108 1.361 . S
C1943 C196 1.495 . S
C1945 C1180 1.359 . S
C1954 C469 1.519 . S
C1956 C1096 1.367 . S
C1967 C1192 1.361 . S
C1965 C508 1.483 . S
C1976 C547 1.489 . S
C1978 C1012 1.387 . S
C1987 C352 1.490 . S
C1989 C1276 1.387 . S
C1998 C391 1.509 . S
C2000 C1360 1.367 . S
C2011 C1432 1.361 . S
C2009 C430 1.495 . S
C2020 C1 1.518 . S
C2022 C1348 1.375 . S
C2031 C40 1.484 . S
C2033 C1444 1.361 . S
C2042 C79 1.489 . S
C2044 C1264 1.387 . S
