# Generated by pormake.
# Topology ftw, (4,12)-cn, num edge types: 1
# Building blocks:
#     Node 0, Type 0, BuildingBlock: NAWXER_clean_linker_0, # of connection points: 4
#     Node 1, Type 0, BuildingBlock: NAWXER_clean_linker_0, # of connection points: 4
#     Node 2, Type 0, BuildingBlock: NAWXER_clean_linker_0, # of connection points: 4
#     Node 3, Type 1, BuildingBlock: EZIPEK_clean_sbu_0, # of connection points: 12
#     Edge 4, Type (0, 1), BuildingBlock: ZUJKAS_clean_linker_0, # of connection points: 2
#     Edge 5, Type (0, 1), BuildingBlock: ZUJKAS_clean_linker_0, # of connection points: 2
#     Edge 6, Type (0, 1), BuildingBlock: ZUJKAS_clean_linker_0, # of connection points: 2
#     Edge 7, Type (0, 1), BuildingBlock: ZUJKAS_clean_linker_0, # of connection points: 2
#     Edge 8, Type (0, 1), BuildingBlock: ZUJKAS_clean_linker_0, # of connection points: 2
#     Edge 9, Type (0, 1), BuildingBlock: ZUJKAS_clean_linker_0, # of connection points: 2
#     Edge 10, Type (0, 1), BuildingBlock: ZUJKAS_clean_linker_0, # of connection points: 2
#     Edge 11, Type (0, 1), BuildingBlock: ZUJKAS_clean_linker_0, # of connection points: 2
#     Edge 12, Type (0, 1), BuildingBlock: ZUJKAS_clean_linker_0, # of connection points: 2
#     Edge 13, Type (0, 1), BuildingBlock: ZUJKAS_clean_linker_0, # of connection points: 2
#     Edge 14, Type (0, 1), BuildingBlock: ZUJKAS_clean_linker_0, # of connection points: 2
#     Edge 15, Type (0, 1), BuildingBlock: ZUJKAS_clean_linker_0, # of connection points: 2
# Relax obj value: 0.032
# Max RMSD: 0.131
# Mean RMSD: 0.100
data_MOF--net-ftw--node1-EZIPEK_clean_sbu_0--node2-NAWXER_clean_linker_0--edge1-ZUJKAS_clean_linker_0
_symmetry_space_group_name_H-M    P1
_symmetry_Int_Tables_number       1
_symmetry_cell_setting            triclinic
loop_
_symmetry_equiv_pos_as_xyz
'x, y, z'
_cell_length_a     34.067644
_cell_length_b     35.394693
_cell_length_c     34.48774
_cell_angle_alpha  90.021873
_cell_angle_beta   89.737974
_cell_angle_gamma 90.058054
loop_
_atom_site_label
_atom_site_type_symbol
_atom_site_fract_x
_atom_site_fract_y
_atom_site_fract_z
_atom_type_partial_charge
C0 C 0.01289 0.63873 0.57602 0.0
C1 C 0.98311 0.6423 0.60425 0.0
C2 C 0.0127 0.60852 0.54966 0.0
C3 C 0.98269 0.58124 0.55097 0.0
C4 C 0.95278 0.61531 0.60494 0.0
C5 C 0.95276 0.58506 0.57884 0.0
C6 C 0.98439 0.54648 0.5268 0.0
C7 C 0.9687 0.64045 0.43849 0.0
C8 C -0.00422 0.64096 0.40746 0.0
C9 C 0.96805 0.61043 0.46502 0.0
C10 C -0.00504 0.58047 0.46163 0.0
C11 C 0.02282 0.61105 0.40442 0.0
C12 C 0.02238 0.5813 0.43108 0.0
C13 C -0.00786 0.54608 0.48643 0.0
C14 C 0.96319 0.38583 0.43782 0.0
C15 C -0.00718 0.38257 0.40938 0.0
C16 C 0.96337 0.4159 0.46434 0.0
C17 C -0.00681 0.44337 0.46299 0.0
C18 C 0.02305 0.40966 0.40875 0.0
C19 C 0.02305 0.43978 0.43502 0.0
C20 C -0.00878 0.47819 0.48706 0.0
C21 C 0.00803 0.38565 0.57725 0.0
C22 C 0.98022 0.38509 0.6076 0.0
C23 C 0.0083 0.41507 0.54998 0.0
C24 C 0.9804 0.44429 0.55216 0.0
C25 C 0.95178 0.41383 0.60903 0.0
C26 C 0.95198 0.44306 0.58178 0.0
C27 C 0.98331 0.47862 0.52738 0.0
H28 H 0.03659 0.65911 0.57454 0.0
H29 H 0.03668 0.60584 0.52913 0.0
H30 H 0.92969 0.6168 0.62658 0.0
H31 H 0.92956 0.56417 0.58085 0.0
H32 H 0.9476 0.66305 0.4421 0.0
H33 H 0.94561 0.61014 0.48733 0.0
H34 H 0.04363 0.60984 0.38063 0.0
H35 H 0.04311 0.55838 0.4273 0.0
H36 H 0.93958 0.36536 0.43927 0.0
H37 H 0.93943 0.4184 0.48495 0.0
H38 H 0.04603 0.40841 0.38698 0.0
H39 H 0.04611 0.46081 0.43298 0.0
H40 H 0.03064 0.36423 0.57554 0.0
H41 H 0.03139 0.41578 0.52832 0.0
H42 H 0.92956 0.41402 0.63159 0.0
H43 H 0.93024 0.46526 0.58435 0.0
N44 N 0.98015 0.51276 0.54534 0.0
N45 N -0.00464 0.51191 0.46849 0.0
C46 C 0.55678 0.04433 0.64162 0.0
C47 C 0.57492 1.00895 0.64625 0.0
C48 C 0.53243 0.05102 0.60992 0.0
C49 C 0.52583 0.02233 0.58267 0.0
C50 C 0.56663 0.97984 0.61987 0.0
C51 C 0.54251 0.98658 0.5882 0.0
C52 C 0.50496 0.02993 0.54635 0.0
C53 C 0.41216 0.03568 0.63929 0.0
C54 C 0.39156 0.07003 0.64072 0.0
C55 C 0.43768 0.028 0.60862 0.0
C56 C 0.44348 0.05478 0.57917 0.0
C57 C 0.39802 0.09712 0.61163 0.0
C58 C 0.42369 0.08946 0.581 0.0
C59 C 0.467 0.04546 0.54457 0.0
C60 C 0.42116 1.0059 0.38302 0.0
C61 C 0.39362 0.03463 0.37617 0.0
C62 C 0.44591 1.00778 0.41494 0.0
C63 C 0.44471 0.0391 0.43994 0.0
C64 C 0.39255 0.06607 0.40112 0.0
C65 C 0.4179 0.06826 0.4327 0.0
C66 C 0.46823 0.03958 0.47576 0.0
C67 C 0.5587 0.03848 0.3809 0.0
C68 C 0.58491 1.00781 0.38132 0.0
C69 C 0.53277 0.04427 0.41172 0.0
C70 C 0.53192 0.01899 0.44307 0.0
C71 C 0.58357 0.98228 0.4125 0.0
C72 C 0.55734 0.98785 0.44305 0.0
C73 C 0.50726 0.02642 0.47752 0.0
H74 H 0.56308 0.06741 0.66127 0.0
H75 H 0.52028 0.07899 0.60574 0.0
H76 H 0.57978 0.95216 0.62307 0.0
H77 H 0.5376 0.9641 0.56743 0.0
H78 H 0.40706 1.01391 0.66081 0.0
H79 H 0.45158 1.00053 0.60714 0.0
H80 H 0.38258 0.12386 0.61213 0.0
H81 H 0.42757 0.11034 0.55833 0.0
H82 H 0.42309 0.98149 0.36418 0.0
H83 H 0.46515 0.98411 0.42061 0.0
H84 H 0.37121 0.08837 0.39715 0.0
H85 H 0.41598 0.09237 0.45198 0.0
H86 H 0.55876 0.05846 0.35714 0.0
H87 H 0.51421 0.06909 0.41149 0.0
H88 H 0.60382 0.95877 0.41409 0.0
H89 H 0.55745 0.96817 0.46711 0.0
N90 N 0.52381 0.02151 0.51279 0.0
N91 N 0.44987 0.04933 0.50934 0.0
C92 C 0.42267 0.38405 0.98428 0.0
C93 C 0.3921 0.38176 0.01178 0.0
C94 C 0.44822 0.41501 0.98391 0.0
C95 C 0.44423 0.44397 0.01153 0.0
C96 C 0.38843 0.41069 0.03953 0.0
C97 C 0.41416 0.4414 0.03935 0.0
C98 C 0.46822 0.47888 0.00939 0.0
C99 C 0.55905 0.38763 0.02962 0.0
C100 C 0.58864 0.38537 1.00113 0.0
C101 C 0.53213 0.41745 0.02938 0.0
C102 C 0.534 0.44522 1.00032 0.0
C103 C 0.58986 0.41277 0.97167 0.0
C104 C 0.56294 0.44243 0.97139 0.0
C105 C 0.50907 0.47939 1.002 0.0
C106 C 0.55563 0.63991 0.02902 0.0
C107 C 0.58365 0.64408 0.99926 0.0
C108 C 0.52998 0.60904 0.02921 0.0
C109 C 0.53188 0.58185 0.99959 0.0
C110 C 0.58491 0.61721 0.96926 0.0
C111 C 0.55947 0.58626 0.96961 0.0
C112 C 0.50817 0.54689 1.00163 0.0
C113 C 0.41852 0.63855 0.9816 0.0
C114 C 0.3905 0.6424 0.0114 0.0
C115 C 0.44451 0.60802 0.98137 0.0
C116 C 0.44299 0.58084 0.01101 0.0
C117 C 0.38951 0.61549 0.04134 0.0
C118 C 0.41531 0.58486 0.04097 0.0
C119 C 0.46746 0.54641 0.00916 0.0
H120 H 0.42659 0.36217 0.96266 0.0
H121 H 0.47027 0.41676 0.96128 0.0
H122 H 0.36484 0.41036 0.06067 0.0
H123 H 0.41007 0.46361 0.06062 0.0
H124 H 0.5577 0.36722 0.05298 0.0
H125 H 0.51085 0.41953 0.0527 0.0
H126 H 0.61197 0.41152 0.94904 0.0
H127 H 0.56511 0.46363 0.94881 0.0
H128 H 0.5539 0.66025 0.05243 0.0
H129 H 0.5096 0.6058 0.05317 0.0
H130 H 0.60652 0.61937 0.94623 0.0
H131 H 0.56176 0.56538 0.94672 0.0
H132 H 0.42006 0.65895 0.95823 0.0
H133 H 0.46494 0.60506 0.95742 0.0
H134 H 0.3679 0.6174 0.0644 0.0
H135 H 0.41332 0.56398 0.06387 0.0
N136 N 0.44918 0.51246 0.01282 0.0
N137 N 0.52727 0.51339 0.99825 0.0
C138 C 0.98624 0.10487 0.91289 0.0
C139 C -0.01098 0.10366 0.10224 0.0
C140 C 0.98711 0.92131 0.91126 0.0
C141 C -0.01075 0.92012 0.10071 0.0
C142 C 0.08355 0.9211 1.00485 0.0
C143 C 0.08351 0.10364 1.00527 0.0
C144 C 0.8926 0.92134 1.00665 0.0
C145 C 0.89272 0.10389 0.00959 0.0
C146 C 0.8952 1.00913 0.10244 0.0
C147 C 0.08479 1.01121 0.09766 0.0
C148 C 0.89104 1.01193 0.91609 0.0
C149 C 0.0809 0.01688 0.91107 0.0
Eu150 Eu 0.98804 0.0847 0.00746 0.0
O151 O 0.02343 0.0461 0.04067 0.0
O152 O 0.95276 0.04673 0.97329 0.0
Eu153 Eu 0.06145 1.01231 1.00488 0.0
Eu154 Eu 0.91477 1.01264 0.0087 0.0
O155 O 0.02155 0.0463 0.97203 0.0
O156 O 0.95407 0.04639 0.04275 0.0
Eu157 Eu 0.98648 1.01294 0.93336 0.0
Eu158 Eu -0.01043 1.01203 0.08017 0.0
O159 O 0.02214 0.97845 0.97075 0.0
O160 O 0.02319 0.9783 0.04012 0.0
O161 O 0.95449 0.97841 0.04161 0.0
O162 O 0.95299 0.97892 0.97312 0.0
Eu163 Eu 0.98817 0.94009 1.00612 0.0
O164 O 0.98749 0.11644 0.94985 0.0
O165 O 0.98829 0.11572 0.06545 0.0
O166 O 0.98776 0.90919 0.94804 0.0
O167 O -0.01127 0.90841 0.06378 0.0
O168 O 0.09483 0.95719 1.00411 0.0
O169 O 0.09478 0.06756 1.00441 0.0
O170 O 0.88143 0.95745 0.00752 0.0
O171 O 0.88139 0.0678 0.01024 0.0
O172 O 0.93255 1.00926 0.11384 0.0
O173 O 0.04799 1.01223 0.11092 0.0
O174 O 0.92785 1.01147 0.90271 0.0
O175 O 0.04352 0.01658 0.89976 0.0
O176 O 0.92971 0.90909 1.00642 0.0
O177 O 0.04641 0.90893 1.00546 0.0
O178 O 0.92988 0.11594 0.00832 0.0
O179 O 0.04641 0.11582 1.00681 0.0
O180 O -0.01041 0.06748 0.11333 0.0
O181 O -0.01009 0.95615 0.11229 0.0
O182 O 0.98518 0.06886 0.90126 0.0
O183 O 0.98674 0.95751 0.9002 0.0
O184 O 0.09332 1.0145 0.94756 0.0
O185 O 0.09572 1.01084 0.06054 0.0
O186 O 0.88043 1.01302 0.95326 0.0
O187 O 0.88279 1.0108 0.06593 0.0
H188 H 0.05369 0.33968 0.38124 0.0
H189 H 0.052 0.29275 0.32917 0.0
H190 H 0.92744 0.31013 0.31677 0.0
H191 H 0.92886 0.35689 0.36907 0.0
H192 H 0.94562 0.23593 0.31394 0.0
H193 H 0.04414 0.31473 0.21454 0.0
H194 H 0.06598 0.30572 0.26085 0.0
H195 H 0.02349 0.33572 0.25771 0.0
C196 C 0.02594 0.33363 0.36735 0.0
C197 C -0.00855 0.35227 0.37926 0.0
C198 C 0.02505 0.30687 0.33743 0.0
C199 C -0.01025 0.29844 0.31834 0.0
C200 C 0.95509 0.31626 0.33085 0.0
H201 H 0.97442 0.17991 0.09615 0.0
H202 H 0.97312 0.22691 0.14822 0.0
C203 C 0.95591 0.34287 0.36093 0.0
C204 C -0.01112 0.27084 0.28563 0.0
H205 H 0.0294 0.25121 0.19696 0.0
C206 C 0.96384 0.23937 0.2883 0.0
C207 C 0.01208 0.27558 0.25176 0.0
C208 C 0.03763 0.30995 0.24576 0.0
C209 C 0.962 0.2122 0.25857 0.0
C210 C 0.98655 0.21603 0.22551 0.0
C211 C 0.01093 0.24794 0.22244 0.0
C212 C 0.98739 0.18731 0.19382 0.0
C213 C 0.9332 0.18 0.26263 0.0
C214 C -0.0035 0.14943 0.20185 0.0
C215 C -0.00297 0.12243 0.17219 0.0
C216 C -0.01101 0.1327 0.13357 0.0
C217 C 0.98073 0.17086 0.12546 0.0
C218 C 0.97996 0.19783 0.15525 0.0
H219 H 0.90891 0.1872 0.28292 0.0
H220 H 0.92039 0.17221 0.23417 0.0
H221 H 0.94861 0.15496 0.27445 0.0
H222 H 0.00347 0.14072 0.23111 0.0
H223 H 0.00406 0.09349 0.17961 0.0
H224 H 0.61198 0.94281 0.34718 0.0
H225 H 0.66725 0.9366 0.30207 0.0
H226 H 0.6809 0.05777 0.30048 0.0
H227 H 0.62744 0.06417 0.34709 0.0
H228 H 0.67902 0.96304 0.22958 0.0
H229 H 0.79012 0.02325 0.3284 0.0
H230 H 0.74169 1.00974 0.34472 0.0
H231 H 0.74961 0.05487 0.32182 0.0
C232 C 0.627 0.9681 0.33747 0.0
C233 C 0.61555 1.00396 0.351 0.0
C234 C 0.65837 0.9645 0.31158 0.0
C235 C 0.67867 0.99667 0.2988 0.0
C236 C 0.66623 0.03254 0.31088 0.0
H237 H 0.81938 0.03258 0.09814 0.0
H238 H 0.76802 0.02513 0.14697 0.0
C239 C 0.6352 0.03617 0.33701 0.0
C240 C 0.71268 0.99302 0.27248 0.0
H241 H 0.80775 0.02097 0.26087 0.0
C242 C 0.70734 0.97525 0.23656 0.0
C243 C 0.74984 1.00809 0.28213 0.0
C244 C 0.75831 0.02466 0.32156 0.0
C245 C 0.73771 0.97393 0.20909 0.0
C246 C 0.77383 0.99184 0.21754 0.0
C247 C 0.7798 1.00782 0.25424 0.0
C248 C 0.80509 0.99602 0.18812 0.0
C249 C 0.73071 0.95349 0.17133 0.0
C250 C 0.84338 0.98363 0.19584 0.0
C251 C 0.87306 0.98858 0.16828 0.0
C252 C 0.86473 1.00583 0.13257 0.0
C253 C 0.82651 0.01872 0.12521 0.0
C254 C 0.79705 1.0142 0.15293 0.0
H255 H 0.70815 0.93103 0.17475 0.0
H256 H 0.71975 0.97388 0.14948 0.0
H257 H 0.75811 0.94046 0.16004 0.0
H258 H 0.85019 0.96987 0.22304 0.0
H259 H 0.90224 0.9782 0.17459 0.0
H260 H 0.05813 0.67353 0.3688 0.0
H261 H 0.05631 0.72022 0.31688 0.0
H262 H 0.93026 0.72601 0.32685 0.0
H263 H 0.93153 0.67755 0.3772 0.0
H264 H 0.95161 0.72263 0.25277 0.0
H265 H 0.04167 0.83203 0.32487 0.0
H266 H 0.0669 0.78776 0.32098 0.0
H267 H 0.0232 0.79118 0.35035 0.0
C268 C 0.02991 0.68446 0.35989 0.0
C269 C -0.00503 0.67156 0.37748 0.0
C270 C 0.029 0.71169 0.33047 0.0
C271 C -0.00678 0.7273 0.3183 0.0
C272 C 0.9583 0.71466 0.33585 0.0
H273 H 0.9719 0.92984 0.17763 0.0
H274 H 0.97168 0.88254 0.22899 0.0
C275 C 0.95913 0.68716 0.36504 0.0
C276 C -0.00795 0.75583 0.28646 0.0
H277 H 0.02943 0.84099 0.25753 0.0
C278 C 0.96849 0.7486 0.25392 0.0
C279 C 0.01362 0.79003 0.28804 0.0
C280 C 0.03744 0.80094 0.32311 0.0
C281 C 0.9663 0.77427 0.22285 0.0
C282 C -0.01088 0.80774 0.22375 0.0
C283 C 0.01229 0.81517 0.2565 0.0
C284 C 0.98855 0.83606 0.19172 0.0
C285 C 0.93877 0.76565 0.18984 0.0
C286 C -0.0017 0.82592 0.15344 0.0
C287 C -0.00188 0.85298 0.12372 0.0
C288 C -0.01115 0.89093 0.13179 0.0
C289 C 0.97943 0.90099 0.17024 0.0
C290 C 0.97926 0.87391 0.19976 0.0
H291 H 0.91551 0.74533 0.19868 0.0
H292 H 0.92452 0.79174 0.17894 0.0
H293 H 0.95563 0.75271 0.16566 0.0
H294 H 0.00656 0.79715 0.14656 0.0
H295 H 0.00589 0.84424 0.09458 0.0
H296 H 0.35638 0.97021 0.35269 0.0
H297 H 0.3071 0.96366 0.30229 0.0
H298 H 0.31272 0.08357 0.28037 0.0
H299 H 0.36424 0.09002 0.32887 0.0
H300 H 0.23637 0.99309 0.30112 0.0
H301 H 0.31879 0.04282 0.17213 0.0
H302 H 0.34253 0.03214 0.21746 0.0
H303 H 0.31881 0.07706 0.21045 0.0
C304 C 0.34806 0.99507 0.33642 0.0
C305 C 0.36457 0.03062 0.34461 0.0
C306 C 0.31954 0.99131 0.3079 0.0
C307 C 0.30667 0.02302 0.28726 0.0
C308 C 0.32292 0.05858 0.29534 0.0
H309 H 0.08369 0.04115 0.17043 0.0
H310 H 0.13768 0.04251 0.21689 0.0
C311 C 0.35193 0.0623 0.3235 0.0
C312 C 0.27464 0.01908 0.25889 0.0
H313 H 0.24909 0.03845 0.16561 0.0
C314 C 0.23924 1.0027 0.27137 0.0
C315 C 0.27872 0.03111 0.22 0.0
C316 C 0.31691 0.04639 0.2041 0.0
C317 C 0.20746 0.99858 0.24614 0.0
C318 C 0.21083 1.01248 0.20785 0.0
C319 C 0.24647 0.02823 0.19516 0.0
C320 C 0.17784 1.01096 0.18034 0.0
C321 C 0.17095 0.97881 0.26063 0.0
C322 C 0.18296 0.9937 0.14406 0.0
C323 C 0.15254 0.99363 0.11723 0.0
C324 C 0.11641 1.01055 0.12643 0.0
C325 C 0.11114 0.02749 0.16288 0.0
C326 C 0.14184 0.02811 0.18947 0.0
H327 H 0.17756 0.95971 0.28531 0.0
H328 H 0.14958 1.00021 0.27103 0.0
H329 H 0.15693 0.96198 0.2373 0.0
H330 H 0.21058 0.98039 0.13647 0.0
H331 H 0.15725 0.98016 0.08938 0.0
H332 H 0.92203 0.68539 0.63161 0.0
H333 H 0.92349 0.73328 0.6828 0.0
H334 H 0.04792 0.71583 0.69629 0.0
H335 H 0.04673 0.66815 0.64493 0.0
H336 H 0.94291 0.72646 0.75826 0.0
H337 H 0.04296 0.82945 0.68788 0.0
H338 H 0.02104 0.79067 0.66177 0.0
H339 H 0.0636 0.78297 0.69144 0.0
C340 C 0.94976 0.69183 0.64537 0.0
C341 C 0.98431 0.673 0.63396 0.0
C342 C 0.95056 0.71928 0.67462 0.0
C343 C 0.9859 0.72864 0.69316 0.0
C344 C 0.02045 0.70989 0.68185 0.0
H345 H 0.0014 0.84496 0.91701 0.0
H346 H 0.00126 0.79802 0.86492 0.0
C347 C 0.01972 0.68257 0.65243 0.0
C348 C 0.98624 0.75704 0.72515 0.0
H349 H 0.0284 0.83988 0.75454 0.0
C350 C 0.96153 0.75132 0.75737 0.0
C351 C 0.01015 0.78978 0.7239 0.0
C352 C 0.03565 0.79887 0.68923 0.0
C353 C 0.96036 0.77711 0.78843 0.0
C354 C 0.98524 0.8092 0.78776 0.0
C355 C 0.00964 0.81512 0.75534 0.0
C356 C 0.98559 0.83761 0.81974 0.0
C357 C 0.93174 0.77015 0.82119 0.0
C358 C 0.97792 0.87578 0.81171 0.0
C359 C 0.97843 0.90279 0.84135 0.0
C360 C 0.98665 0.89234 0.87988 0.0
C361 C -0.00545 0.85408 0.88784 0.0
C362 C -0.00572 0.82709 0.85805 0.0
H363 H 0.90764 0.75085 0.81231 0.0
H364 H 0.94742 0.75674 0.84571 0.0
H365 H 0.91863 0.79702 0.83164 0.0
H366 H 0.97122 0.88469 0.78243 0.0
H367 H 0.97207 0.93188 0.83398 0.0
H368 H 0.31774 0.09718 0.62953 0.0
H369 H 0.26331 0.09689 0.67593 0.0
H370 H 0.34025 0.05325 0.76418 0.0
H371 H 0.39513 0.0543 0.71818 0.0
H372 H 0.2391 0.02821 0.70977 0.0
H373 H 0.27636 0.13508 0.82158 0.0
H374 H 0.29818 0.13511 0.77371 0.0
H375 H 0.31552 0.10295 0.8101 0.0
C376 C 0.32337 0.08871 0.65916 0.0
C377 C 0.36061 0.07566 0.6703 0.0
C378 C 0.29222 0.08837 0.68551 0.0
C379 C 0.29794 0.0753 0.7234 0.0
C380 C 0.33548 0.06401 0.73518 0.0
H381 H 0.15975 1.00511 0.9177 0.0
H382 H 0.21062 0.01984 0.87009 0.0
C383 C 0.36665 0.06427 0.70883 0.0
C384 C 0.26392 0.06896 0.74908 0.0
H385 H 0.22611 0.09073 0.83792 0.0
C386 C 0.23588 0.0422 0.7376 0.0
C387 C 0.26021 0.08713 0.78534 0.0
C388 C 0.28896 0.11693 0.79837 0.0
C389 C 0.20476 0.03208 0.76213 0.0
C390 C 0.20137 0.04981 0.79869 0.0
C391 C 0.22897 0.07717 0.80983 0.0
C392 C 0.17011 0.03952 0.82641 0.0
C393 C 0.17671 1.00151 0.74936 0.0
C394 C 0.13053 0.04546 0.81733 0.0
C395 C 0.10127 0.03679 0.84435 0.0
C396 C 0.11128 0.02249 0.88103 0.0
C397 C 0.15102 1.01617 0.88976 0.0
C398 C 0.18016 0.02464 0.86266 0.0
H399 H 0.18877 0.9847 0.72484 0.0
H400 H 0.16975 0.98204 0.77369 0.0
H401 H 0.1489 1.01468 0.73963 0.0
H402 H 0.12233 0.05755 0.78968 0.0
H403 H 0.07099 0.04246 0.83691 0.0
H404 H 0.97073 0.39516 0.68577 0.0
H405 H 0.97303 0.34758 0.73699 0.0
H406 H -0.00465 0.26112 0.65161 0.0
H407 H -0.00666 0.30874 0.60008 0.0
H408 H 0.92726 0.28589 0.74893 0.0
H409 H 0.08194 0.24103 0.72876 0.0
H410 H 0.06231 0.28292 0.70623 0.0
H411 H 0.05294 0.2371 0.68564 0.0
C412 C 0.97595 0.36599 0.67778 0.0
C413 C 0.9818 0.35581 0.63871 0.0
C414 C 0.97744 0.33882 0.70719 0.0
C415 C 0.98493 0.30078 0.69835 0.0
C416 C -0.00951 0.29039 0.65934 0.0
H417 H -0.00713 0.0945 0.83427 0.0
H418 H -0.00788 0.14232 0.78335 0.0
C419 C -0.01079 0.31765 0.62986 0.0
C420 C 0.98581 0.27204 0.72995 0.0
H421 H 0.04312 0.20437 0.77209 0.0
C422 C 0.95269 0.26821 0.75409 0.0
C423 C 0.01899 0.24893 0.73679 0.0
C424 C 0.05621 0.25286 0.71325 0.0
C425 C 0.95156 0.24157 0.78433 0.0
C426 C 0.98465 0.21838 0.79103 0.0
C427 C 0.01777 0.22215 0.76693 0.0
C428 C 0.98524 0.18959 0.8225 0.0
C429 C 0.9146 0.23786 0.80832 0.0
C430 C 0.9821 0.20024 0.86164 0.0
C431 C 0.9825 0.17289 0.89105 0.0
C432 C 0.98612 0.13426 0.88191 0.0
C433 C -0.01028 0.12385 0.8426 0.0
C434 C -0.01057 0.1512 0.81332 0.0
H435 H 0.889 0.25114 0.79388 0.0
H436 H 0.90769 0.2077 0.81406 0.0
H437 H 0.91894 0.25215 0.83662 0.0
H438 H 0.97954 0.22977 0.86949 0.0
H439 H 0.97983 0.18209 0.92089 0.0
H440 H 0.57336 0.03142 0.72226 0.0
H441 H 0.62744 0.0278 0.76894 0.0
H442 H 0.69912 0.97104 0.68366 0.0
H443 H 0.64586 0.97508 0.63677 0.0
H444 H 0.67542 0.9577 0.79299 0.0
H445 H 0.7577 0.07242 0.71744 0.0
H446 H 0.70538 0.06609 0.71207 0.0
H447 H 0.73878 0.03468 0.68792 0.0
C448 C 0.60059 0.018 0.71363 0.0
C449 C 0.60548 1.00358 0.67595 0.0
C450 C 0.63123 1.01579 0.74027 0.0
C451 C 0.66705 0.99942 0.72936 0.0
C452 C 0.67158 0.98388 0.69231 0.0
H453 H 0.89565 0.9929 0.83917 0.0
H454 H 0.84124 0.98743 0.7934 0.0
C455 C 0.64105 0.98597 0.66576 0.0
C456 C 0.70057 1.00028 0.75592 0.0
H457 H 0.78891 0.04313 0.77031 0.0
C458 C 0.70028 0.97633 0.78821 0.0
C459 C 0.73283 0.0245 0.74908 0.0
C460 C 0.73386 0.05113 0.71491 0.0
C461 C 0.73188 0.97584 0.81404 0.0
C462 C 0.7639 1.00057 0.80758 0.0
C463 C 0.76427 0.02422 0.77501 0.0
C464 C 0.79663 1.00349 0.83512 0.0
C465 C 0.73098 0.94855 0.84766 0.0
C466 C 0.78942 1.01513 0.87328 0.0
C467 C 0.82024 0.01828 0.8994 0.0
C468 C 0.85893 1.01021 0.88767 0.0
C469 C 0.8662 0.9994 0.84907 0.0
C470 C 0.83521 0.9961 0.82296 0.0
H471 H 0.71064 0.92459 0.84218 0.0
H472 H 0.76068 0.93708 0.85359 0.0
H473 H 0.72056 0.96353 0.87402 0.0
H474 H 0.75993 0.02197 0.88282 0.0
H475 H 0.81363 0.02714 0.92878 0.0
H476 H 0.35712 0.34505 0.073 0.0
H477 H 0.30545 0.29734 0.07064 0.0
H478 H 0.31017 0.29855 0.94565 0.0
H479 H 0.3602 0.34791 0.94766 0.0
H480 H 0.23618 0.30141 0.97104 0.0
H481 H 0.31383 0.18643 0.04778 0.0
H482 H 0.31154 0.22906 0.07581 0.0
H483 H 0.33866 0.22839 0.03088 0.0
C484 C 0.34712 0.33531 0.04497 0.0
C485 C 0.36294 0.35041 0.01052 0.0
C486 C 0.31792 0.3076 0.04369 0.0
C487 C 0.30438 0.29387 0.00798 0.0
C488 C 0.32037 0.30853 0.97355 0.0
H489 H 0.15932 0.09423 0.98118 0.0
H490 H 0.21188 0.14104 0.98035 0.0
C491 C 0.34931 0.3365 0.97478 0.0
C492 C 0.27232 0.2655 1.00646 0.0
H493 H 0.24493 0.17826 0.03895 0.0
C494 C 0.23819 0.27437 0.98568 0.0
C495 C 0.27514 0.23003 0.02516 0.0
C496 C 0.31193 0.21771 0.04582 0.0
C497 C 0.20657 0.249 0.98354 0.0
C498 C 0.20873 0.21422 1.00364 0.0
C499 C 0.24309 0.20513 0.02394 0.0
C500 C 0.17613 0.1864 1.00333 0.0
C501 C 0.17158 0.25941 0.9591 0.0
C502 C 0.13849 0.19626 0.01668 0.0
C503 C 0.10814 0.1696 0.01684 0.0
C504 C 0.11512 0.13238 1.00433 0.0
C505 C 0.15294 0.12256 0.99127 0.0
C506 C 0.18307 0.14931 0.99072 0.0
H507 H 0.17925 0.2811 0.93704 0.0
H508 H 0.15945 0.23429 0.94401 0.0
H509 H 0.1483 0.27136 0.97806 0.0
H510 H 0.13268 0.22445 0.02747 0.0
H511 H 0.07947 0.17797 0.02747 0.0
H512 H 0.34796 0.66655 0.94929 0.0
H513 H 0.29688 0.715 0.9483 0.0
H514 H 0.31508 0.73606 0.07011 0.0
H515 H 0.36601 0.6873 0.07138 0.0
H516 H 0.23773 0.72845 0.05259 0.0
H517 H 0.30847 0.82883 0.95057 0.0
H518 H 0.30434 0.78191 0.9313 0.0
H519 H 0.33487 0.79043 0.97284 0.0
C520 C 0.34153 0.68194 0.97572 0.0
C521 C 0.36112 0.67328 0.01038 0.0
C522 C 0.31235 0.70963 0.9751 0.0
C523 C 0.30258 0.72953 0.00899 0.0
C524 C 0.32224 0.72109 0.0436 0.0
H525 H 0.16132 0.93229 0.02022 0.0
H526 H 0.21343 0.88525 0.02212 0.0
C527 C 0.35126 0.69323 0.04431 0.0
C528 C 0.27078 0.75807 0.00872 0.0
H529 H 0.24103 0.83968 0.96518 0.0
C530 C 0.2385 0.75289 0.03362 0.0
C531 C 0.27208 0.79013 0.98426 0.0
C532 C 0.30697 0.79844 0.95851 0.0
C533 C 0.20721 0.77864 0.03438 0.0
C534 C 0.20785 0.80995 0.00889 0.0
C535 C 0.24038 0.8154 0.98436 0.0
C536 C 0.17568 0.83808 0.00796 0.0
C537 C 0.1742 0.77249 0.06302 0.0
C538 C 0.1371 0.82723 0.99903 0.0
C539 C 0.10702 0.85409 0.99814 0.0
C540 C 0.11513 0.89237 1.00562 0.0
C541 C 0.15395 0.90312 0.01409 0.0
C542 C 0.18386 0.87625 0.01524 0.0
H543 H 0.18319 0.75364 0.08715 0.0
H544 H 0.16394 0.7997 0.07546 0.0
H545 H 0.14913 0.75895 0.04798 0.0
H546 H 0.1303 0.79804 0.99243 0.0
H547 H 0.07755 0.84488 0.99118 0.0
H548 H 0.57926 0.30991 0.01666 0.0
H549 H 0.63063 0.26148 0.02028 0.0
H550 H 0.71834 0.34541 0.99307 0.0
H551 H 0.66751 0.39395 0.99015 0.0
H552 H 0.68561 0.24106 0.95992 0.0
H553 H 0.75973 0.29371 0.09254 0.0
H554 H 0.71056 0.30768 0.07947 0.0
H555 H 0.75215 0.32867 0.05556 0.0
C556 C 0.60954 0.31805 0.01179 0.0
C557 C 0.61934 0.35572 1.00308 0.0
C558 C 0.63877 0.29038 0.0137 0.0
C559 C 0.67825 0.30003 0.0074 0.0
C560 C 0.68809 0.33752 0.99857 0.0
H561 H 0.90001 0.1807 1.00058 0.0
H562 H 0.84745 0.22769 0.99975 0.0
C563 C 0.65895 0.36512 0.99649 0.0
C564 C 0.7092 0.27081 0.00902 0.0
H565 H 0.79245 0.24549 0.05716 0.0
C566 C 0.70885 0.2418 0.98132 0.0
C567 C 0.73951 0.27211 0.03686 0.0
C568 C 0.74051 0.302 0.06804 0.0
C569 C 0.73859 0.2144 0.98017 0.0
C570 C 0.76896 0.21571 0.008 0.0
C571 C 0.76917 0.24464 0.03583 0.0
C572 C 0.80071 0.18718 0.00884 0.0
C573 C 0.73778 0.18492 0.94854 0.0
C574 C 0.79187 0.14894 0.01487 0.0
C575 C 0.82175 0.12198 0.01527 0.0
C576 C 0.86121 0.13278 0.00997 0.0
C577 C 0.87002 0.1713 1.00469 0.0
C578 C 0.84002 0.19823 1.0042 0.0
H579 H 0.71903 0.19375 0.92388 0.0
H580 H 0.76781 0.17907 0.93742 0.0
H581 H 0.72556 0.15824 0.96044 0.0
H582 H 0.76181 0.13992 0.01943 0.0
H583 H 0.81378 0.09269 0.01982 0.0
H584 H 0.62603 0.66826 0.06151 0.0
H585 H 0.67735 0.71656 0.06264 0.0
H586 H 0.65926 0.73792 0.9409 0.0
H587 H 0.60809 0.68928 0.93949 0.0
H588 H 0.73646 0.72974 0.95821 0.0
H589 H 0.66716 0.83043 0.06079 0.0
H590 H 0.67089 0.78345 0.07993 0.0
H591 H 0.64027 0.79227 0.03853 0.0
C592 C 0.63251 0.68371 0.03514 0.0
C593 C 0.61291 0.67513 1.00044 0.0
C594 C 0.66183 0.71132 0.03584 0.0
C595 C 0.67175 0.73123 1.00199 0.0
C596 C 0.652 0.72294 0.96737 0.0
H597 H 0.81497 0.93292 0.99103 0.0
H598 H 0.76248 0.8862 0.98898 0.0
C599 C 0.62285 0.69515 0.96659 0.0
C600 C 0.70387 0.75951 1.00228 0.0
H601 H 0.73468 0.84075 0.04601 0.0
C602 C 0.73602 0.75413 0.97726 0.0
C603 C 0.70301 0.79151 0.02686 0.0
C604 C 0.66831 0.80004 0.05277 0.0
C605 C 0.76759 0.77963 0.97649 0.0
C606 C 0.76738 0.81087 1.00208 0.0
C607 C 0.735 0.81652 0.02674 0.0
C608 C 0.79984 0.83878 1.00295 0.0
C609 C 0.80045 0.77328 0.94772 0.0
C610 C 0.83834 0.82767 0.01177 0.0
C611 C 0.86865 0.85435 0.01275 0.0
C612 C 0.86085 0.89271 1.00546 0.0
C613 C 0.82212 0.90369 0.99701 0.0
C614 C 0.79198 0.877 0.99578 0.0
H615 H 0.7912 0.7545 0.92359 0.0
H616 H 0.8109 0.80044 0.93529 0.0
H617 H 0.82545 0.75958 0.96266 0.0
H618 H 0.8449 0.79843 0.01826 0.0
H619 H 0.89804 0.84496 0.01968 0.0
loop_
_geom_bond_atom_site_label_1
_geom_bond_atom_site_label_2
_geom_bond_distance
_geom_bond_site_symmetry_2
_ccdc_geom_bond_type
C0 C1 1.366 1_455 S
C0 C2 1.384 . S
C0 H28 0.931 . S
C1 C0 1.366 1_655 S
C1 C4 1.402 . S
C2 C0 1.384 . S
C2 C3 1.381 1_455 S
C2 H29 0.930 . S
C3 C2 1.381 1_655 S
C3 C5 1.381 . S
C3 C6 1.487 . S
C4 C1 1.402 . S
C4 C5 1.387 . S
C4 H30 0.930 . S
C5 C3 1.381 . S
C5 C4 1.387 . S
C5 H31 0.931 . S
C6 C3 1.487 . S
C6 C13 1.399 1_655 S
C6 N44 1.343 . S
C7 C8 1.384 1_655 S
C7 C9 1.384 . S
C7 H32 0.931 . S
C8 C7 1.384 1_455 S
C8 C11 1.382 . S
C9 C7 1.384 . S
C9 C10 1.381 1_655 S
C9 H33 0.930 . S
C10 C9 1.381 1_455 S
C10 C12 1.381 . S
C10 C13 1.487 . S
C11 C8 1.382 . S
C11 C12 1.387 . S
C11 H34 0.930 . S
C12 C10 1.381 . S
C12 C11 1.387 . S
C12 H35 0.931 . S
C13 C6 1.399 1_455 S
C13 C10 1.487 . S
C13 N45 1.343 . S
C14 C15 1.384 1_655 S
C14 C16 1.384 . S
C14 H36 0.931 . S
C15 C14 1.384 1_455 S
C15 C18 1.382 . S
C16 C14 1.384 . S
C16 C17 1.381 1_655 S
C16 H37 0.930 . S
C17 C16 1.381 1_455 S
C17 C19 1.381 . S
C17 C20 1.487 . S
C18 C15 1.382 . S
C18 C19 1.387 . S
C18 H38 0.930 . S
C19 C17 1.381 . S
C19 C18 1.387 . S
C19 H39 0.931 . S
C20 C17 1.487 . S
C20 C27 1.399 1_455 S
C20 N45 1.343 . S
C21 C22 1.366 1_455 S
C21 C23 1.384 . S
C21 H40 0.931 . S
C22 C21 1.366 1_655 S
C22 C25 1.402 . S
C23 C21 1.384 . S
C23 C24 1.381 1_455 S
C23 H41 0.930 . S
C24 C23 1.381 1_655 S
C24 C26 1.381 . S
C24 C27 1.487 . S
C25 C22 1.402 . S
C25 C26 1.387 . S
C25 H42 0.930 . S
C26 C24 1.381 . S
C26 C25 1.387 . S
C26 H43 0.931 . S
C27 C20 1.399 1_655 S
C27 C24 1.487 . S
C27 N44 1.343 . S
H28 C0 0.931 . S
H29 C2 0.930 . S
H30 C4 0.930 . S
H31 C5 0.931 . S
H32 C7 0.931 . S
H33 C9 0.930 . S
H34 C11 0.930 . S
H35 C12 0.931 . S
H36 C14 0.931 . S
H37 C16 0.930 . S
H38 C18 0.930 . S
H39 C19 0.931 . S
H40 C21 0.931 . S
H41 C23 0.930 . S
H42 C25 0.930 . S
H43 C26 0.931 . S
N44 C6 1.343 . S
N44 C27 1.343 . S
N45 C13 1.343 . S
N45 C20 1.343 . S
C46 C47 1.366 1_545 S
C46 C48 1.384 . S
C46 H74 0.931 . S
C47 C46 1.366 1_565 S
C47 C50 1.401 . S
C48 C46 1.384 . S
C48 C49 1.381 1_545 S
C48 H75 0.930 . S
C49 C48 1.381 1_565 S
C49 C51 1.381 . S
C49 C52 1.487 . S
C50 C47 1.401 . S
C50 C51 1.387 . S
C50 H76 0.930 . S
C51 C49 1.381 . S
C51 C50 1.387 . S
C51 H77 0.931 . S
C52 C49 1.487 . S
C52 C59 1.399 1_565 S
C52 N90 1.343 . S
C53 C54 1.384 1_565 S
C53 C55 1.384 . S
C53 H78 0.931 . S
C54 C53 1.384 1_545 S
C54 C57 1.382 . S
C55 C53 1.384 . S
C55 C56 1.381 1_565 S
C55 H79 0.930 . S
C56 C55 1.381 1_545 S
C56 C58 1.381 . S
C56 C59 1.487 . S
C57 C54 1.382 . S
C57 C58 1.387 . S
C57 H80 0.930 . S
C58 C56 1.381 . S
C58 C57 1.387 . S
C58 H81 0.931 . S
C59 C52 1.399 1_545 S
C59 C56 1.487 . S
C59 N91 1.343 . S
C60 C61 1.384 1_565 S
C60 C62 1.384 . S
C60 H82 0.931 . S
C61 C60 1.384 1_545 S
C61 C64 1.382 . S
C62 C60 1.384 . S
C62 C63 1.381 1_565 S
C62 H83 0.930 . S
C63 C62 1.381 1_545 S
C63 C65 1.381 . S
C63 C66 1.487 . S
C64 C61 1.382 . S
C64 C65 1.387 . S
C64 H84 0.930 . S
C65 C63 1.381 . S
C65 C64 1.387 . S
C65 H85 0.931 . S
C66 C63 1.487 . S
C66 C73 1.399 1_545 S
C66 N91 1.343 . S
C67 C68 1.366 1_545 S
C67 C69 1.384 . S
C67 H86 0.931 . S
C68 C67 1.366 1_565 S
C68 C71 1.401 . S
C69 C67 1.384 . S
C69 C70 1.381 1_545 S
C69 H87 0.930 . S
C70 C69 1.381 1_565 S
C70 C72 1.381 . S
C70 C73 1.487 . S
C71 C68 1.401 . S
C71 C72 1.387 . S
C71 H88 0.930 . S
C72 C70 1.381 . S
C72 C71 1.387 . S
C72 H89 0.931 . S
C73 C66 1.399 1_565 S
C73 C70 1.487 . S
C73 N90 1.343 . S
H74 C46 0.931 . S
H75 C48 0.930 . S
H76 C50 0.930 . S
H77 C51 0.931 . S
H78 C53 0.931 . S
H79 C55 0.930 . S
H80 C57 0.930 . S
H81 C58 0.931 . S
H82 C60 0.931 . S
H83 C62 0.930 . S
H84 C64 0.930 . S
H85 C65 0.931 . S
H86 C67 0.931 . S
H87 C69 0.930 . S
H88 C71 0.930 . S
H89 C72 0.931 . S
N90 C52 1.343 . S
N90 C73 1.343 . S
N91 C59 1.343 . S
N91 C66 1.343 . S
C92 C93 1.384 1_556 S
C92 C94 1.384 . S
C92 H120 0.931 . S
C93 C92 1.384 1_554 S
C93 C96 1.382 . S
C94 C92 1.384 . S
C94 C95 1.381 1_556 S
C94 H121 0.930 . S
C95 C94 1.381 1_554 S
C95 C97 1.381 . S
C95 C98 1.487 . S
C96 C93 1.382 . S
C96 C97 1.387 . S
C96 H122 0.930 . S
C97 C95 1.381 . S
C97 C96 1.387 . S
C97 H123 0.931 . S
C98 C95 1.487 . S
C98 C105 1.399 1_554 S
C98 N136 1.343 . S
C99 C100 1.366 1_554 S
C99 C101 1.384 . S
C99 H124 0.931 . S
C100 C99 1.366 1_556 S
C100 C103 1.402 . S
C101 C99 1.384 . S
C101 C102 1.381 1_554 S
C101 H125 0.930 . S
C102 C101 1.381 1_556 S
C102 C104 1.381 . S
C102 C105 1.487 . S
C103 C100 1.402 . S
C103 C104 1.387 . S
C103 H126 0.930 . S
C104 C102 1.381 . S
C104 C103 1.387 . S
C104 H127 0.931 . S
C105 C98 1.399 1_556 S
C105 C102 1.487 . S
C105 N137 1.343 . S
C106 C107 1.366 1_554 S
C106 C108 1.384 . S
C106 H128 0.931 . S
C107 C106 1.366 1_556 S
C107 C110 1.402 . S
C108 C106 1.384 . S
C108 C109 1.381 1_554 S
C108 H129 0.930 . S
C109 C108 1.381 1_556 S
C109 C111 1.381 . S
C109 C112 1.487 . S
C110 C107 1.402 . S
C110 C111 1.387 . S
C110 H130 0.930 . S
C111 C109 1.381 . S
C111 C110 1.387 . S
C111 H131 0.931 . S
C112 C109 1.487 . S
C112 C119 1.399 1_556 S
C112 N137 1.343 . S
C113 C114 1.384 1_556 S
C113 C115 1.384 . S
C113 H132 0.931 . S
C114 C113 1.384 1_554 S
C114 C117 1.382 . S
C115 C113 1.384 . S
C115 C116 1.381 1_556 S
C115 H133 0.930 . S
C116 C115 1.381 1_554 S
C116 C118 1.381 . S
C116 C119 1.487 . S
C117 C114 1.382 . S
C117 C118 1.387 . S
C117 H134 0.930 . S
C118 C116 1.381 . S
C118 C117 1.387 . S
C118 H135 0.931 . S
C119 C112 1.399 1_554 S
C119 C116 1.487 . S
C119 N136 1.343 . S
H120 C92 0.931 . S
H121 C94 0.930 . S
H122 C96 0.930 . S
H123 C97 0.931 . S
H124 C99 0.931 . S
H125 C101 0.930 . S
H126 C103 0.930 . S
H127 C104 0.931 . S
H128 C106 0.931 . S
H129 C108 0.930 . S
H130 C110 0.930 . S
H131 C111 0.931 . S
H132 C113 0.931 . S
H133 C115 0.930 . S
H134 C117 0.930 . S
H135 C118 0.931 . S
N136 C98 1.343 . S
N136 C119 1.343 . S
N137 C105 1.343 . S
N137 C112 1.343 . S
C138 O164 1.283 . S
C138 O182 1.283 . S
C139 O165 1.283 . S
C139 O180 1.283 . S
C140 O166 1.283 . S
C140 O183 1.283 . S
C141 O167 1.283 . S
C141 O181 1.283 . S
C142 O168 1.283 . S
C142 O177 1.283 . S
C143 O169 1.283 . S
C143 O179 1.283 . S
C144 O170 1.283 . S
C144 O176 1.283 . S
C145 O171 1.283 . S
C145 O178 1.283 . S
C146 O172 1.283 . S
C146 O187 1.283 . S
C147 O173 1.283 . S
C147 O185 1.283 . S
C148 O174 1.283 . S
C148 O186 1.283 . S
C149 O175 1.283 . S
C149 O184 1.283 . S
Eu150 O151 2.370 . S
Eu150 O152 2.370 1_454 S
Eu150 O155 2.370 1_554 S
Eu150 O156 2.370 1_455 S
Eu150 O164 2.363 1_554 S
Eu150 O165 2.363 . S
Eu150 O178 2.363 1_455 S
Eu150 O179 2.363 . S
O151 Eu150 2.370 . S
O151 Eu153 2.370 . S
O151 Eu158 2.370 . S
O152 Eu150 2.370 1_656 S
O152 Eu154 2.370 1_556 S
O152 Eu157 2.370 1_655 S
Eu153 O151 2.370 . S
Eu153 O155 2.370 1_554 S
Eu153 O159 2.370 1_544 S
Eu153 O160 2.370 1_545 S
Eu153 O168 2.363 1_545 S
Eu153 O169 2.363 . S
Eu153 O184 2.363 1_554 S
Eu153 O185 2.363 . S
Eu154 O152 2.370 1_554 S
Eu154 O156 2.370 . S
Eu154 O161 2.370 1_545 S
Eu154 O162 2.370 1_544 S
Eu154 O170 2.363 1_545 S
Eu154 O171 2.363 . S
Eu154 O186 2.363 1_554 S
Eu154 O187 2.363 . S
O155 Eu150 2.370 1_556 S
O155 Eu153 2.370 1_556 S
O155 Eu157 2.370 . S
O156 Eu150 2.370 1_655 S
O156 Eu154 2.370 . S
O156 Eu158 2.370 1_655 S
Eu157 O152 2.370 1_455 S
Eu157 O155 2.370 . S
Eu157 O159 2.370 1_545 S
Eu157 O162 2.370 1_445 S
Eu157 O174 2.363 1_455 S
Eu157 O175 2.363 . S
Eu157 O182 2.363 . S
Eu157 O183 2.363 1_545 S
Eu158 O151 2.370 . S
Eu158 O156 2.370 1_455 S
Eu158 O160 2.370 1_545 S
Eu158 O161 2.370 1_445 S
Eu158 O172 2.363 1_455 S
Eu158 O173 2.363 . S
Eu158 O180 2.363 . S
Eu158 O181 2.363 1_545 S
O159 Eu153 2.370 1_566 S
O159 Eu157 2.370 1_565 S
O159 Eu163 2.370 1_556 S
O160 Eu153 2.370 1_565 S
O160 Eu158 2.370 1_565 S
O160 Eu163 2.370 . S
O161 Eu154 2.370 1_565 S
O161 Eu158 2.370 1_665 S
O161 Eu163 2.370 1_655 S
O162 Eu154 2.370 1_566 S
O162 Eu157 2.370 1_665 S
O162 Eu163 2.370 1_656 S
Eu163 O159 2.370 1_554 S
Eu163 O160 2.370 . S
Eu163 O161 2.370 1_455 S
Eu163 O162 2.370 1_454 S
Eu163 O166 2.363 1_554 S
Eu163 O167 2.363 . S
Eu163 O176 2.363 1_455 S
Eu163 O177 2.363 . S
O164 C138 1.283 . S
O164 Eu150 2.363 1_556 S
O165 C139 1.283 . S
O165 Eu150 2.363 . S
O166 C140 1.283 . S
O166 Eu163 2.363 1_556 S
O167 C141 1.283 . S
O167 Eu163 2.363 . S
O168 C142 1.283 . S
O168 Eu153 2.363 1_565 S
O169 C143 1.283 . S
O169 Eu153 2.363 . S
O170 C144 1.283 . S
O170 Eu154 2.363 1_565 S
O171 C145 1.283 . S
O171 Eu154 2.363 . S
O172 C146 1.283 . S
O172 Eu158 2.363 1_655 S
O173 C147 1.283 . S
O173 Eu158 2.363 . S
O174 C148 1.283 . S
O174 Eu157 2.363 1_655 S
O175 C149 1.283 . S
O175 Eu157 2.363 . S
O176 C144 1.283 . S
O176 Eu163 2.363 1_655 S
O177 C142 1.283 . S
O177 Eu163 2.363 . S
O178 C145 1.283 . S
O178 Eu150 2.363 1_655 S
O179 C143 1.283 . S
O179 Eu150 2.363 . S
O180 C139 1.283 . S
O180 Eu158 2.363 . S
O181 C141 1.283 . S
O181 Eu158 2.363 1_565 S
O182 C138 1.283 . S
O182 Eu157 2.363 . S
O183 C140 1.283 . S
O183 Eu157 2.363 1_565 S
O184 C149 1.283 . S
O184 Eu153 2.363 1_556 S
O185 C147 1.283 . S
O185 Eu153 2.363 . S
O186 C148 1.283 . S
O186 Eu154 2.363 1_556 S
O187 C146 1.283 . S
O187 Eu154 2.363 . S
H188 C196 0.929 . S
H189 C198 0.930 . S
H190 C200 0.930 . S
H191 C203 0.929 . S
H192 C206 0.930 . S
H193 C208 0.960 . S
H194 C208 0.960 . S
H195 C208 0.960 1_655 S
C196 H188 0.929 . S
C196 C197 1.392 . S
C196 C198 1.384 . S
C197 C196 1.392 . S
C197 C203 1.375 1_455 S
C198 H189 0.930 . S
C198 C196 1.384 . S
C198 C199 1.372 . S
C199 C198 1.372 . S
C199 C200 1.400 1_455 S
C199 C204 1.490 . S
C200 H190 0.930 . S
C200 C199 1.400 1_655 S
C200 C203 1.386 . S
H201 C217 0.930 . S
H202 C218 0.931 . S
C203 H191 0.929 . S
C203 C197 1.375 1_655 S
C203 C200 1.386 . S
C204 C199 1.490 . S
C204 C206 1.395 . S
C204 C207 1.403 . S
H205 C211 0.930 . S
C206 H192 0.930 . S
C206 C204 1.395 . S
C206 C209 1.403 . S
C207 C204 1.403 . S
C207 C208 1.524 . S
C207 C211 1.400 . S
C208 H193 0.960 . S
C208 H194 0.960 . S
C208 H195 0.960 1_455 S
C208 C207 1.524 . S
C209 C206 1.403 . S
C209 C210 1.392 . S
C209 C213 1.495 . S
C210 C209 1.392 . S
C210 C211 1.385 . S
C210 C212 1.478 . S
C211 H205 0.930 . S
C211 C207 1.400 . S
C211 C210 1.385 . S
C212 C210 1.478 . S
C212 C214 1.384 . S
C212 C218 1.380 1_455 S
C213 C209 1.495 . S
C213 H219 0.959 . S
C213 H220 0.961 1_455 S
C213 H221 0.960 . S
C214 C212 1.384 . S
C214 C215 1.394 . S
C214 H222 0.930 . S
C215 C214 1.394 . S
C215 C216 1.381 1_455 S
C215 H223 0.929 . S
C216 C215 1.381 1_655 S
C216 C217 1.379 . S
C217 H201 0.930 . S
C217 C216 1.379 . S
C217 C218 1.379 . S
C218 H202 0.931 . S
C218 C212 1.380 1_655 S
C218 C217 1.379 . S
H219 C213 0.959 . S
H220 C213 0.961 1_655 S
H221 C213 0.960 . S
H222 C214 0.930 . S
H223 C215 0.929 . S
H224 C232 0.929 . S
H225 C234 0.930 . S
H226 C236 0.930 . S
H227 C239 0.929 . S
H228 C242 0.930 . S
H229 C244 0.960 . S
H230 C244 0.960 . S
H231 C244 0.960 . S
C232 H224 0.929 . S
C232 C233 1.378 . S
C232 C234 1.384 . S
C233 C232 1.378 . S
C233 C239 1.389 1_565 S
C234 H225 0.930 . S
C234 C232 1.384 . S
C234 C235 1.372 . S
C235 C234 1.372 . S
C235 C236 1.400 1_565 S
C235 C240 1.490 . S
C236 H226 0.930 . S
C236 C235 1.400 1_545 S
C236 C239 1.386 . S
H237 C253 0.930 . S
H238 C254 0.931 . S
C239 H227 0.929 . S
C239 C233 1.389 1_545 S
C239 C236 1.386 . S
C240 C235 1.490 . S
C240 C242 1.395 . S
C240 C243 1.403 1_565 S
H241 C247 0.930 . S
C242 H228 0.930 . S
C242 C240 1.395 . S
C242 C245 1.403 . S
C243 C240 1.403 1_545 S
C243 C244 1.524 . S
C243 C247 1.400 . S
C244 H229 0.960 . S
C244 H230 0.960 . S
C244 H231 0.960 . S
C244 C243 1.524 . S
C245 C242 1.403 . S
C245 C246 1.392 . S
C245 C249 1.495 . S
C246 C245 1.392 . S
C246 C247 1.385 1_565 S
C246 C248 1.478 . S
C247 H241 0.930 . S
C247 C243 1.400 . S
C247 C246 1.385 1_545 S
C248 C246 1.478 . S
C248 C250 1.381 . S
C248 C254 1.383 1_565 S
C249 C245 1.495 . S
C249 H255 0.959 . S
C249 H256 0.961 . S
C249 H257 0.960 . S
C250 C248 1.381 . S
C250 C251 1.394 . S
C250 H258 0.930 . S
C251 C250 1.394 . S
C251 C252 1.383 . S
C251 H259 0.929 . S
C252 C251 1.383 . S
C252 C253 1.377 1_565 S
C253 H237 0.930 . S
C253 C252 1.377 1_545 S
C253 C254 1.379 . S
C254 H238 0.931 . S
C254 C248 1.383 1_545 S
C254 C253 1.379 . S
H255 C249 0.959 . S
H256 C249 0.961 . S
H257 C249 0.960 . S
H258 C250 0.930 . S
H259 C251 0.929 . S
H260 C268 0.929 . S
H261 C270 0.930 . S
H262 C272 0.930 . S
H263 C275 0.929 . S
H264 C278 0.930 . S
H265 C280 0.960 . S
H266 C280 0.960 . S
H267 C280 0.960 . S
C268 H260 0.929 . S
C268 C269 1.390 . S
C268 C270 1.384 . S
C269 C268 1.390 . S
C269 C275 1.377 1_455 S
C270 H261 0.930 . S
C270 C268 1.384 . S
C270 C271 1.372 . S
C271 C270 1.372 . S
C271 C272 1.400 1_455 S
C271 C276 1.490 . S
C272 H262 0.930 . S
C272 C271 1.400 1_655 S
C272 C275 1.386 . S
H273 C289 0.930 . S
H274 C290 0.931 . S
C275 H263 0.929 . S
C275 C269 1.377 1_655 S
C275 C272 1.386 . S
C276 C271 1.490 . S
C276 C278 1.395 . S
C276 C279 1.403 1_455 S
H277 C283 0.930 . S
C278 H264 0.930 . S
C278 C276 1.395 . S
C278 C281 1.403 . S
C279 C276 1.403 1_655 S
C279 C280 1.524 . S
C279 C283 1.400 . S
C280 H265 0.960 . S
C280 H266 0.960 . S
C280 H267 0.960 . S
C280 C279 1.524 . S
C281 C278 1.403 . S
C281 C282 1.392 . S
C281 C285 1.495 . S
C282 C281 1.392 . S
C282 C283 1.385 1_455 S
C282 C284 1.478 . S
C283 H277 0.930 . S
C283 C279 1.400 . S
C283 C282 1.385 1_655 S
C284 C282 1.478 . S
C284 C286 1.381 . S
C284 C290 1.383 1_455 S
C285 C281 1.495 . S
C285 H291 0.959 . S
C285 H292 0.961 . S
C285 H293 0.960 . S
C286 C284 1.381 . S
C286 C287 1.394 . S
C286 H294 0.930 . S
C287 C286 1.394 . S
C287 C288 1.407 . S
C287 H295 0.929 . S
C288 C287 1.407 . S
C288 C289 1.354 1_455 S
C289 H273 0.930 . S
C289 C288 1.354 1_655 S
C289 C290 1.379 . S
C290 H274 0.931 . S
C290 C284 1.383 1_655 S
C290 C289 1.379 . S
H291 C285 0.959 . S
H292 C285 0.961 . S
H293 C285 0.960 . S
H294 C286 0.930 . S
H295 C287 0.929 . S
H296 C304 0.929 . S
H297 C306 0.930 . S
H298 C308 0.930 . S
H299 C311 0.929 . S
H300 C314 0.930 . S
H301 C316 0.960 . S
H302 C316 0.960 . S
H303 C316 0.960 . S
C304 H296 0.929 . S
C304 C305 1.382 . S
C304 C306 1.384 . S
C305 C304 1.382 . S
C305 C311 1.385 1_565 S
C306 H297 0.930 . S
C306 C304 1.384 . S
C306 C307 1.372 . S
C307 C306 1.372 . S
C307 C308 1.400 1_565 S
C307 C312 1.490 . S
C308 H298 0.930 . S
C308 C307 1.400 1_545 S
C308 C311 1.386 . S
H309 C325 0.930 . S
H310 C326 0.931 . S
C311 H299 0.929 . S
C311 C305 1.385 1_545 S
C311 C308 1.386 . S
C312 C307 1.490 . S
C312 C314 1.395 . S
C312 C315 1.403 1_565 S
H313 C319 0.930 . S
C314 H300 0.930 . S
C314 C312 1.395 . S
C314 C317 1.403 . S
C315 C312 1.403 1_545 S
C315 C316 1.524 . S
C315 C319 1.400 . S
C316 H301 0.960 . S
C316 H302 0.960 . S
C316 H303 0.960 . S
C316 C315 1.524 . S
C317 C314 1.403 . S
C317 C318 1.392 . S
C317 C321 1.495 . S
C318 C317 1.392 . S
C318 C319 1.385 1_565 S
C318 C320 1.478 . S
C319 H313 0.930 . S
C319 C315 1.400 . S
C319 C318 1.385 1_545 S
C320 C318 1.478 . S
C320 C322 1.381 . S
C320 C326 1.383 1_565 S
C321 C317 1.495 . S
C321 H327 0.959 . S
C321 H328 0.961 . S
C321 H329 0.960 . S
C322 C320 1.381 . S
C322 C323 1.394 . S
C322 H330 0.930 . S
C323 C322 1.394 . S
C323 C324 1.383 . S
C323 H331 0.929 . S
C324 C323 1.383 . S
C324 C325 1.377 1_565 S
C325 H309 0.930 . S
C325 C324 1.377 1_545 S
C325 C326 1.379 . S
C326 H310 0.931 . S
C326 C320 1.383 1_545 S
C326 C325 1.379 . S
H327 C321 0.959 . S
H328 C321 0.961 . S
H329 C321 0.960 . S
H330 C322 0.930 . S
H331 C323 0.929 . S
H332 C340 0.929 . S
H333 C342 0.930 . S
H334 C344 0.930 . S
H335 C347 0.929 . S
H336 C350 0.930 . S
H337 C352 0.960 . S
H338 C352 0.960 . S
H339 C352 0.960 . S
C340 H332 0.929 . S
C340 C341 1.381 . S
C340 C342 1.384 . S
C341 C340 1.381 . S
C341 C347 1.386 1_655 S
C342 H333 0.930 . S
C342 C340 1.384 . S
C342 C343 1.372 . S
C343 C342 1.372 . S
C343 C344 1.400 1_655 S
C343 C348 1.490 . S
C344 H334 0.930 . S
C344 C343 1.400 1_455 S
C344 C347 1.386 . S
H345 C361 0.930 . S
H346 C362 0.931 . S
C347 H335 0.929 . S
C347 C341 1.386 1_455 S
C347 C344 1.386 . S
C348 C343 1.490 . S
C348 C350 1.395 . S
C348 C351 1.403 1_655 S
H349 C355 0.930 . S
C350 H336 0.930 . S
C350 C348 1.395 . S
C350 C353 1.403 . S
C351 C348 1.403 1_455 S
C351 C352 1.524 . S
C351 C355 1.400 . S
C352 H337 0.960 . S
C352 H338 0.960 . S
C352 H339 0.960 . S
C352 C351 1.524 . S
C353 C350 1.403 . S
C353 C354 1.392 . S
C353 C357 1.495 . S
C354 C353 1.392 . S
C354 C355 1.385 1_655 S
C354 C356 1.478 . S
C355 H349 0.930 . S
C355 C351 1.400 . S
C355 C354 1.385 1_455 S
C356 C354 1.478 . S
C356 C358 1.381 . S
C356 C362 1.383 1_655 S
C357 C353 1.495 . S
C357 H363 0.959 . S
C357 H364 0.961 . S
C357 H365 0.960 . S
C358 C356 1.381 . S
C358 C359 1.394 . S
C358 H366 0.930 . S
C359 C358 1.394 . S
C359 C360 1.383 . S
C359 H367 0.929 . S
C360 C359 1.383 . S
C360 C361 1.377 1_655 S
C361 H345 0.930 . S
C361 C360 1.377 1_455 S
C361 C362 1.379 . S
C362 H346 0.931 . S
C362 C356 1.383 1_455 S
C362 C361 1.379 . S
H363 C357 0.959 . S
H364 C357 0.961 . S
H365 C357 0.960 . S
H366 C358 0.930 . S
H367 C359 0.929 . S
H368 C376 0.929 . S
H369 C378 0.930 . S
H370 C380 0.930 . S
H371 C383 0.929 . S
H372 C386 0.930 . S
H373 C388 0.960 . S
H374 C388 0.960 . S
H375 C388 0.960 . S
C376 H368 0.929 . S
C376 C377 1.386 . S
C376 C378 1.384 . S
C377 C376 1.386 . S
C377 C383 1.381 1_545 S
C378 H369 0.930 . S
C378 C376 1.384 . S
C378 C379 1.372 . S
C379 C378 1.372 . S
C379 C380 1.400 1_545 S
C379 C384 1.490 . S
C380 H370 0.930 . S
C380 C379 1.400 1_565 S
C380 C383 1.386 . S
H381 C397 0.930 . S
H382 C398 0.931 . S
C383 H371 0.929 . S
C383 C377 1.381 1_565 S
C383 C380 1.386 . S
C384 C379 1.490 . S
C384 C386 1.384 1_545 S
C384 C387 1.413 . S
H385 C391 0.930 . S
C386 H372 0.930 . S
C386 C384 1.384 1_565 S
C386 C389 1.403 . S
C387 C384 1.413 . S
C387 C388 1.524 . S
C387 C391 1.400 . S
C388 H373 0.960 . S
C388 H374 0.960 . S
C388 H375 0.960 . S
C388 C387 1.524 . S
C389 C386 1.403 . S
C389 C390 1.392 . S
C389 C393 1.495 . S
C390 C389 1.392 . S
C390 C391 1.385 1_565 S
C390 C392 1.478 . S
C391 H385 0.930 . S
C391 C387 1.400 . S
C391 C390 1.385 1_545 S
C392 C390 1.478 . S
C392 C394 1.381 1_565 S
C392 C398 1.383 . S
C393 C389 1.495 . S
C393 H399 0.959 . S
C393 H400 0.961 . S
C393 H401 0.960 . S
C394 C392 1.381 1_545 S
C394 C395 1.394 . S
C394 H402 0.930 . S
C395 C394 1.394 . S
C395 C396 1.383 1_545 S
C395 H403 0.929 . S
C396 C395 1.383 1_565 S
C396 C397 1.377 . S
C397 H381 0.930 . S
C397 C396 1.377 . S
C397 C398 1.379 . S
C398 H382 0.931 . S
C398 C392 1.383 . S
C398 C397 1.379 . S
H399 C393 0.959 . S
H400 C393 0.961 . S
H401 C393 0.960 . S
H402 C394 0.930 . S
H403 C395 0.929 . S
H404 C412 0.929 . S
H405 C414 0.930 . S
H406 C416 0.930 . S
H407 C419 0.929 . S
H408 C422 0.930 . S
H409 C424 0.960 . S
H410 C424 0.960 . S
H411 C424 0.960 . S
C412 H404 0.929 . S
C412 C413 1.376 1_655 S
C412 C414 1.384 . S
C413 C412 1.376 1_455 S
C413 C419 1.392 . S
C414 H405 0.930 . S
C414 C412 1.384 . S
C414 C415 1.371 1_655 S
C415 C414 1.371 1_455 S
C415 C416 1.400 . S
C415 C420 1.490 1_455 S
C416 H406 0.930 . S
C416 C415 1.400 . S
C416 C419 1.386 . S
H417 C433 0.930 . S
H418 C434 0.931 . S
C419 H407 0.929 . S
C419 C413 1.392 . S
C419 C416 1.386 . S
C420 C415 1.490 1_655 S
C420 C422 1.395 . S
C420 C423 1.403 1_655 S
H421 C427 0.930 . S
C422 H408 0.930 . S
C422 C420 1.395 . S
C422 C425 1.403 . S
C423 C420 1.403 1_455 S
C423 C424 1.524 . S
C423 C427 1.400 . S
C424 H409 0.960 . S
C424 H410 0.960 . S
C424 H411 0.960 . S
C424 C423 1.524 . S
C425 C422 1.403 . S
C425 C426 1.392 . S
C425 C429 1.495 . S
C426 C425 1.392 . S
C426 C427 1.385 1_655 S
C426 C428 1.478 . S
C427 H421 0.930 . S
C427 C423 1.400 . S
C427 C426 1.385 1_455 S
C428 C426 1.478 . S
C428 C430 1.381 . S
C428 C434 1.383 . S
C429 C425 1.495 . S
C429 H435 0.959 . S
C429 H436 0.961 . S
C429 H437 0.960 . S
C430 C428 1.381 . S
C430 C431 1.394 . S
C430 H438 0.930 . S
C431 C430 1.394 . S
C431 C432 1.383 . S
C431 H439 0.929 . S
C432 C431 1.383 . S
C432 C433 1.377 . S
C433 H417 0.930 . S
C433 C432 1.377 . S
C433 C434 1.379 . S
C434 H418 0.931 . S
C434 C428 1.383 . S
C434 C433 1.379 . S
H435 C429 0.959 . S
H436 C429 0.961 . S
H437 C429 0.960 . S
H438 C430 0.930 . S
H439 C431 0.929 . S
H440 C448 0.929 . S
H441 C450 0.930 . S
H442 C452 0.930 . S
H443 C455 0.929 . S
H444 C458 0.930 . S
H445 C460 0.960 . S
H446 C460 0.960 . S
H447 C460 0.960 . S
C448 H440 0.929 . S
C448 C449 1.388 . S
C448 C450 1.384 . S
C449 C448 1.388 . S
C449 C455 1.380 1_545 S
C450 H441 0.930 . S
C450 C448 1.384 . S
C450 C451 1.372 . S
C451 C450 1.372 . S
C451 C452 1.400 1_545 S
C451 C456 1.491 . S
C452 H442 0.930 . S
C452 C451 1.400 1_565 S
C452 C455 1.386 . S
H453 C469 0.930 . S
H454 C470 0.931 . S
C455 H443 0.929 . S
C455 C449 1.380 1_565 S
C455 C452 1.386 . S
C456 C451 1.491 . S
C456 C458 1.382 1_545 S
C456 C459 1.415 . S
H457 C463 0.930 . S
C458 H444 0.930 . S
C458 C456 1.382 1_565 S
C458 C461 1.403 . S
C459 C456 1.415 . S
C459 C460 1.524 . S
C459 C463 1.400 . S
C460 H445 0.960 . S
C460 H446 0.960 . S
C460 H447 0.960 . S
C460 C459 1.524 . S
C461 C458 1.403 . S
C461 C462 1.392 . S
C461 C465 1.495 . S
C462 C461 1.392 . S
C462 C463 1.385 1_565 S
C462 C464 1.478 . S
C463 H457 0.930 . S
C463 C459 1.400 . S
C463 C462 1.385 1_545 S
C464 C462 1.478 . S
C464 C466 1.381 1_565 S
C464 C470 1.383 . S
C465 C461 1.495 . S
C465 H471 0.959 . S
C465 H472 0.961 . S
C465 H473 0.960 . S
C466 C464 1.381 1_545 S
C466 C467 1.394 . S
C466 H474 0.930 . S
C467 C466 1.394 . S
C467 C468 1.383 1_545 S
C467 H475 0.929 . S
C468 C467 1.383 1_565 S
C468 C469 1.377 . S
C469 H453 0.930 . S
C469 C468 1.377 . S
C469 C470 1.379 . S
C470 H454 0.931 . S
C470 C464 1.383 . S
C470 C469 1.379 . S
H471 C465 0.959 . S
H472 C465 0.961 . S
H473 C465 0.960 . S
H474 C466 0.930 . S
H475 C467 0.929 . S
H476 C484 0.929 . S
H477 C486 0.930 . S
H478 C488 0.930 . S
H479 C491 0.929 . S
H480 C494 0.930 . S
H481 C496 0.960 . S
H482 C496 0.960 1_554 S
H483 C496 0.960 . S
C484 H476 0.929 . S
C484 C485 1.391 . S
C484 C486 1.384 . S
C485 C484 1.391 . S
C485 C491 1.376 1_554 S
C486 H477 0.930 . S
C486 C484 1.384 . S
C486 C487 1.372 . S
C487 C486 1.372 . S
C487 C488 1.400 1_554 S
C487 C492 1.490 . S
C488 H478 0.930 . S
C488 C487 1.400 1_556 S
C488 C491 1.386 . S
H489 C505 0.930 . S
H490 C506 0.931 . S
C491 H479 0.929 . S
C491 C485 1.376 1_556 S
C491 C488 1.386 . S
C492 C487 1.490 . S
C492 C494 1.395 . S
C492 C495 1.403 1_554 S
H493 C499 0.930 . S
C494 H480 0.930 . S
C494 C492 1.395 . S
C494 C497 1.403 . S
C495 C492 1.403 1_556 S
C495 C496 1.524 . S
C495 C499 1.400 . S
C496 H481 0.960 . S
C496 H482 0.960 1_556 S
C496 H483 0.960 . S
C496 C495 1.524 . S
C497 C494 1.403 . S
C497 C498 1.392 . S
C497 C501 1.495 . S
C498 C497 1.392 . S
C498 C499 1.385 1_554 S
C498 C500 1.478 . S
C499 H493 0.930 . S
C499 C495 1.400 . S
C499 C498 1.385 1_556 S
C500 C498 1.478 . S
C500 C502 1.381 . S
C500 C506 1.383 1_554 S
C501 C497 1.495 . S
C501 H507 0.959 . S
C501 H508 0.961 . S
C501 H509 0.960 . S
C502 C500 1.381 . S
C502 C503 1.394 . S
C502 H510 0.930 . S
C503 C502 1.394 . S
C503 C504 1.403 . S
C503 H511 0.929 . S
C504 C503 1.403 . S
C504 C505 1.358 1_554 S
C505 H489 0.930 . S
C505 C504 1.358 1_556 S
C505 C506 1.379 . S
C506 H490 0.931 . S
C506 C500 1.383 1_556 S
C506 C505 1.379 . S
H507 C501 0.959 . S
H508 C501 0.961 . S
H509 C501 0.960 . S
H510 C502 0.930 . S
H511 C503 0.929 . S
H512 C520 0.929 . S
H513 C522 0.930 . S
H514 C524 0.930 . S
H515 C527 0.929 . S
H516 C530 0.930 . S
H517 C532 0.960 . S
H518 C532 0.960 1_556 S
H519 C532 0.960 . S
C520 H512 0.929 . S
C520 C521 1.387 . S
C520 C522 1.384 . S
C521 C520 1.387 . S
C521 C527 1.381 1_556 S
C522 H513 0.930 . S
C522 C520 1.384 . S
C522 C523 1.372 . S
C523 C522 1.372 . S
C523 C524 1.400 1_556 S
C523 C528 1.490 . S
C524 H514 0.930 . S
C524 C523 1.400 1_554 S
C524 C527 1.386 . S
H525 C541 0.930 . S
H526 C542 0.931 . S
C527 H515 0.929 . S
C527 C521 1.381 1_554 S
C527 C524 1.386 . S
C528 C523 1.490 . S
C528 C530 1.395 . S
C528 C531 1.401 1_556 S
H529 C535 0.930 . S
C530 H516 0.930 . S
C530 C528 1.395 . S
C530 C533 1.403 . S
C531 C528 1.401 1_554 S
C531 C532 1.524 . S
C531 C535 1.400 . S
C532 H517 0.960 . S
C532 H518 0.960 1_554 S
C532 H519 0.960 . S
C532 C531 1.524 . S
C533 C530 1.403 . S
C533 C534 1.392 . S
C533 C537 1.495 . S
C534 C533 1.392 . S
C534 C535 1.385 1_556 S
C534 C536 1.478 . S
C535 H529 0.930 . S
C535 C531 1.400 . S
C535 C534 1.385 1_554 S
C536 C534 1.478 . S
C536 C538 1.398 . S
C536 C542 1.366 1_556 S
C537 C533 1.495 . S
C537 H543 0.959 . S
C537 H544 0.961 1_556 S
C537 H545 0.960 . S
C538 C536 1.398 . S
C538 C539 1.394 . S
C538 H546 0.930 . S
C539 C538 1.394 . S
C539 C540 1.383 1_556 S
C539 H547 0.929 . S
C540 C539 1.383 1_554 S
C540 C541 1.377 . S
C541 H525 0.930 . S
C541 C540 1.377 . S
C541 C542 1.379 . S
C542 H526 0.931 . S
C542 C536 1.366 1_554 S
C542 C541 1.379 . S
H543 C537 0.959 . S
H544 C537 0.961 1_554 S
H545 C537 0.960 . S
H546 C538 0.930 . S
H547 C539 0.929 . S
H548 C556 0.929 . S
H549 C558 0.930 . S
H550 C560 0.930 . S
H551 C563 0.929 . S
H552 C566 0.930 . S
H553 C568 0.960 . S
H554 C568 0.960 . S
H555 C568 0.960 . S
C556 H548 0.929 . S
C556 C557 1.385 . S
C556 C558 1.384 . S
C557 C556 1.385 . S
C557 C563 1.382 1_554 S
C558 H549 0.930 . S
C558 C556 1.384 . S
C558 C559 1.372 . S
C559 C558 1.372 . S
C559 C560 1.400 1_554 S
C559 C564 1.490 . S
C560 H550 0.930 . S
C560 C559 1.400 1_556 S
C560 C563 1.386 . S
H561 C577 0.930 . S
H562 C578 0.931 . S
C563 H551 0.929 . S
C563 C557 1.382 1_556 S
C563 C560 1.386 . S
C564 C559 1.490 . S
C564 C566 1.387 1_554 S
C564 C567 1.410 . S
H565 C571 0.930 . S
C566 H552 0.930 . S
C566 C564 1.387 1_556 S
C566 C569 1.403 . S
C567 C564 1.410 . S
C567 C568 1.524 . S
C567 C571 1.400 . S
C568 H553 0.960 . S
C568 H554 0.960 . S
C568 H555 0.960 . S
C568 C567 1.524 . S
C569 C566 1.403 . S
C569 C570 1.392 . S
C569 C573 1.495 . S
C570 C569 1.392 . S
C570 C571 1.385 1_556 S
C570 C572 1.478 . S
C571 H565 0.930 . S
C571 C567 1.400 . S
C571 C570 1.385 1_554 S
C572 C570 1.478 . S
C572 C574 1.381 1_556 S
C572 C578 1.383 . S
C573 C569 1.495 . S
C573 H579 0.959 . S
C573 H580 0.961 . S
C573 H581 0.960 . S
C574 C572 1.381 1_554 S
C574 C575 1.394 . S
C574 H582 0.930 . S
C575 C574 1.394 . S
C575 C576 1.383 1_554 S
C575 H583 0.929 . S
C576 C575 1.383 1_556 S
C576 C577 1.377 . S
C577 H561 0.930 . S
C577 C576 1.377 . S
C577 C578 1.379 . S
C578 H562 0.931 . S
C578 C572 1.383 . S
C578 C577 1.379 . S
H579 C573 0.959 . S
H580 C573 0.961 . S
H581 C573 0.960 . S
H582 C574 0.930 . S
H583 C575 0.929 . S
H584 C592 0.929 . S
H585 C594 0.930 . S
H586 C596 0.930 . S
H587 C599 0.929 . S
H588 C602 0.930 . S
H589 C604 0.960 . S
H590 C604 0.960 1_554 S
H591 C604 0.960 . S
C592 H584 0.929 . S
C592 C593 1.392 . S
C592 C594 1.384 . S
C593 C592 1.392 . S
C593 C599 1.376 1_554 S
C594 H585 0.930 . S
C594 C592 1.384 . S
C594 C595 1.372 . S
C595 C594 1.372 . S
C595 C596 1.400 1_554 S
C595 C600 1.490 . S
C596 H586 0.930 . S
C596 C595 1.400 1_556 S
C596 C599 1.386 . S
H597 C613 0.930 . S
H598 C614 0.931 . S
C599 H587 0.929 . S
C599 C593 1.376 1_556 S
C599 C596 1.386 . S
C600 C595 1.490 . S
C600 C602 1.395 . S
C600 C603 1.403 1_554 S
H601 C607 0.930 . S
C602 H588 0.930 . S
C602 C600 1.395 . S
C602 C605 1.403 . S
C603 C600 1.403 1_556 S
C603 C604 1.524 . S
C603 C607 1.400 . S
C604 H589 0.960 . S
C604 H590 0.960 1_556 S
C604 H591 0.960 . S
C604 C603 1.524 . S
C605 C602 1.403 . S
C605 C606 1.392 . S
C605 C609 1.495 . S
C606 C605 1.392 . S
C606 C607 1.385 1_554 S
C606 C608 1.478 . S
C607 H601 0.930 . S
C607 C603 1.400 . S
C607 C606 1.385 1_556 S
C608 C606 1.478 . S
C608 C610 1.381 . S
C608 C614 1.383 1_554 S
C609 C605 1.495 . S
C609 H615 0.959 . S
C609 H616 0.961 1_554 S
C609 H617 0.960 . S
C610 C608 1.381 . S
C610 C611 1.394 . S
C610 H618 0.930 . S
C611 C610 1.394 . S
C611 C612 1.389 . S
C611 H619 0.929 . S
C612 C611 1.389 . S
C612 C613 1.372 1_554 S
C613 H597 0.930 . S
C613 C612 1.372 1_556 S
C613 C614 1.379 . S
C614 H598 0.931 . S
C614 C608 1.383 1_556 S
C614 C613 1.379 . S
H615 C609 0.959 . S
H616 C609 0.961 1_556 S
H617 C609 0.960 . S
H618 C610 0.930 . S
H619 C611 0.929 . S
C216 C139 1.817 1_655 S
C197 C15 1.814 . S
C252 C146 1.241 1_565 S
C233 C68 1.241 . S
C288 C141 1.819 . S
C269 C8 1.819 . S
C324 C147 1.244 1_565 S
C305 C61 1.240 1_565 S
C341 C1 1.819 . S
C360 C140 1.824 1_655 S
C396 C149 1.244 1_565 S
C377 C54 1.243 . S
C413 C22 1.818 1_455 S
C432 C138 1.819 1_655 S
C449 C47 1.242 1_545 S
C468 C148 1.246 1_565 S
C485 C93 1.523 . S
C504 C143 1.516 . S
C521 C114 1.523 1_556 S
C540 C142 1.521 . S
C576 C145 1.522 1_556 S
C557 C100 1.523 1_554 S
C612 C144 1.521 . S
C593 C107 1.527 1_554 S
