# Generated by pormake.
# Topology csq, (4,8)-cn, num edge types: 1
# Building blocks:
#     Node 0, Type 0, BuildingBlock: NAWXER_clean_linker_0, # of connection points: 4
#     Node 1, Type 0, BuildingBlock: NAWXER_clean_linker_0, # of connection points: 4
#     Node 2, Type 0, BuildingBlock: NAWXER_clean_linker_0, # of connection points: 4
#     Node 3, Type 0, BuildingBlock: NAWXER_clean_linker_0, # of connection points: 4
#     Node 4, Type 0, BuildingBlock: NAWXER_clean_linker_0, # of connection points: 4
#     Node 5, Type 0, BuildingBlock: NAWXER_clean_linker_0, # of connection points: 4
#     Node 6, Type 1, BuildingBlock: TAGTUT_clean_sbu_1, # of connection points: 8
#     Node 7, Type 1, BuildingBlock: TAGTUT_clean_sbu_1, # of connection points: 8
#     Node 8, Type 1, BuildingBlock: TAGTUT_clean_sbu_1, # of connection points: 8
#     Edge 9, Type (0, 1), BuildingBlock: OJICUG_clean_linker_0, # of connection points: 2
#     Edge 10, Type (0, 1), BuildingBlock: OJICUG_clean_linker_0, # of connection points: 2
#     Edge 11, Type (0, 1), BuildingBlock: OJICUG_clean_linker_0, # of connection points: 2
#     Edge 12, Type (0, 1), BuildingBlock: OJICUG_clean_linker_0, # of connection points: 2
#     Edge 13, Type (0, 1), BuildingBlock: OJICUG_clean_linker_0, # of connection points: 2
#     Edge 14, Type (0, 1), BuildingBlock: OJICUG_clean_linker_0, # of connection points: 2
#     Edge 15, Type (0, 1), BuildingBlock: OJICUG_clean_linker_0, # of connection points: 2
#     Edge 16, Type (0, 1), BuildingBlock: OJICUG_clean_linker_0, # of connection points: 2
#     Edge 17, Type (0, 1), BuildingBlock: OJICUG_clean_linker_0, # of connection points: 2
#     Edge 18, Type (0, 1), BuildingBlock: OJICUG_clean_linker_0, # of connection points: 2
#     Edge 19, Type (0, 1), BuildingBlock: OJICUG_clean_linker_0, # of connection points: 2
#     Edge 20, Type (0, 1), BuildingBlock: OJICUG_clean_linker_0, # of connection points: 2
#     Edge 21, Type (0, 1), BuildingBlock: OJICUG_clean_linker_0, # of connection points: 2
#     Edge 22, Type (0, 1), BuildingBlock: OJICUG_clean_linker_0, # of connection points: 2
#     Edge 23, Type (0, 1), BuildingBlock: OJICUG_clean_linker_0, # of connection points: 2
#     Edge 24, Type (0, 1), BuildingBlock: OJICUG_clean_linker_0, # of connection points: 2
#     Edge 25, Type (0, 1), BuildingBlock: OJICUG_clean_linker_0, # of connection points: 2
#     Edge 26, Type (0, 1), BuildingBlock: OJICUG_clean_linker_0, # of connection points: 2
#     Edge 27, Type (0, 1), BuildingBlock: OJICUG_clean_linker_0, # of connection points: 2
#     Edge 28, Type (0, 1), BuildingBlock: OJICUG_clean_linker_0, # of connection points: 2
#     Edge 29, Type (0, 1), BuildingBlock: OJICUG_clean_linker_0, # of connection points: 2
#     Edge 30, Type (0, 1), BuildingBlock: OJICUG_clean_linker_0, # of connection points: 2
#     Edge 31, Type (0, 1), BuildingBlock: OJICUG_clean_linker_0, # of connection points: 2
#     Edge 32, Type (0, 1), BuildingBlock: OJICUG_clean_linker_0, # of connection points: 2
# Relax obj value: 0.031
# Max RMSD: 0.123
# Mean RMSD: 0.040
data_MOF--net-csq--node1-TAGTUT_clean_sbu_1--node2-NAWXER_clean_linker_0--edge1-OJICUG_clean_linker_0
_symmetry_space_group_name_H-M    P1
_symmetry_Int_Tables_number       1
_symmetry_cell_setting            triclinic
loop_
_symmetry_equiv_pos_as_xyz
'x, y, z'
_cell_length_a     49.017789
_cell_length_b     48.197126
_cell_length_c     17.625095
_cell_angle_alpha  93.54074
_cell_angle_beta   91.371854
_cell_angle_gamma 119.74753
loop_
_atom_site_label
_atom_site_type_symbol
_atom_site_fract_x
_atom_site_fract_y
_atom_site_fract_z
_atom_type_partial_charge
C0 C 0.34527 0.49968 0.07713 0.0
C1 C 0.33475 0.47893 0.0095 0.0
C2 C 0.32369 0.50096 0.12643 0.0
C3 C 0.29112 0.48093 0.11019 0.0
C4 C 0.30212 0.45889 0.99428 0.0
C5 C 0.28079 0.45966 0.04403 0.0
C6 C 0.26706 0.48456 0.15307 0.0
C7 C 0.31877 0.4655 0.34048 0.0
C8 C 0.329 0.48746 0.40563 0.0
C9 C 0.29927 0.46648 0.28295 0.0
C10 C 0.29024 0.48993 0.2886 0.0
C11 C 0.31927 0.51038 0.4118 0.0
C12 C 0.30018 0.51163 0.35386 0.0
C13 C 0.26715 0.48965 0.23297 0.0
C14 C 0.13844 0.47056 0.28755 0.0
C15 C 0.14683 0.49185 0.35368 0.0
C16 C 0.16154 0.47068 0.24191 0.0
C17 C 0.19359 0.49256 0.26037 0.0
C18 C 0.17894 0.51367 0.3718 0.0
C19 C 0.20193 0.514 0.32582 0.0
C20 C 0.21892 0.4909 0.2189 0.0
C21 C 0.16611 0.50694 0.02506 0.0
C22 C 0.15972 0.48687 0.95746 0.0
C23 C 0.18432 0.50609 0.08628 0.0
C24 C 0.19551 0.48434 0.08204 0.0
C25 C 0.17114 0.4653 0.95379 0.0
C26 C 0.18833 0.46374 0.01553 0.0
C27 C 0.21894 0.4859 0.139 0.0
H28 H 0.37016 0.51524 0.09182 0.0
H29 H 0.33252 0.51832 0.17559 0.0
H30 H 0.29267 0.44313 0.94246 0.0
H31 H 0.25586 0.44415 0.02913 0.0
H32 H 0.32621 0.44783 0.33319 0.0
H33 H 0.29089 0.44859 0.23487 0.0
H34 H 0.32637 0.52738 0.46148 0.0
H35 H 0.29292 0.52949 0.36038 0.0
H36 H 0.11397 0.45367 0.27091 0.0
H37 H 0.1543 0.45308 0.19347 0.0
H38 H 0.18651 0.53009 0.42263 0.0
H39 H 0.22646 0.53078 0.34238 0.0
H40 H 0.15723 0.52347 0.03087 0.0
H41 H 0.19037 0.52308 0.13556 0.0
H42 H 0.16746 0.44992 0.90265 0.0
H43 H 0.19702 0.447 0.01008 0.0
N44 N 0.24297 0.48308 0.11041 0.0
N45 N 0.24319 0.4927 0.26198 0.0
C46 C 0.66475 0.16162 0.24397 0.0
C47 C 0.67519 0.15334 0.30969 0.0
C48 C 0.68615 0.18018 0.19168 0.0
C49 C 0.71821 0.18998 0.20313 0.0
C50 C 0.70736 0.16347 0.32064 0.0
C51 C 0.72841 0.18118 0.26779 0.0
C52 C 0.74256 0.21321 0.15651 0.0
C53 C 0.67757 0.13138 0.98102 0.0
C54 C 0.6692 0.14072 0.91395 0.0
C55 C 0.70064 0.15418 0.03454 0.0
C56 C 0.71525 0.18699 0.02358 0.0
C57 C 0.68429 0.17358 0.9028 0.0
C58 C 0.70687 0.19632 0.9569 0.0
C59 C 0.7416 0.21179 0.07553 0.0
C60 C 0.87744 0.30448 0.03485 0.0
C61 C 0.87708 0.3281 0.99293 0.0
C62 C 0.84952 0.28034 0.06024 0.0
C63 C 0.82092 0.27945 0.04366 0.0
C64 C 0.8482 0.32623 0.97324 0.0
C65 C 0.8202 0.30182 0.99794 0.0
C66 C 0.79293 0.25807 0.08298 0.0
C67 C 0.85658 0.34343 0.24146 0.0
C68 C 0.87033 0.33629 0.30262 0.0
C69 C 0.83107 0.31891 0.19694 0.0
C70 C 0.81926 0.28671 0.21147 0.0
C71 C 0.85784 0.30404 0.31826 0.0
C72 C 0.83254 0.27952 0.27315 0.0
C73 C 0.79302 0.26049 0.16273 0.0
H74 H 0.64009 0.15389 0.23286 0.0
H75 H 0.67776 0.18747 0.14366 0.0
H76 H 0.71661 0.15838 0.37099 0.0
H77 H 0.7531 0.18883 0.27879 0.0
H78 H 0.66627 0.10642 0.99264 0.0
H79 H 0.70739 0.14597 0.08358 0.0
H80 H 0.67911 0.18185 0.85161 0.0
H81 H 0.71813 0.2214 0.94604 0.0
H82 H 0.8994 0.30536 0.0502 0.0
H83 H 0.85037 0.26313 0.09558 0.0
H84 H 0.84736 0.34387 0.93951 0.0
H85 H 0.7983 0.30145 0.98496 0.0
H86 H 0.86557 0.36794 0.22769 0.0
H87 H 0.82055 0.32517 0.15118 0.0
H88 H 0.8673 0.29771 0.36611 0.0
H89 H 0.82354 0.25488 0.28597 0.0
N90 N 0.76816 0.23775 0.19627 0.0
N91 N 0.76717 0.23434 0.0422 0.0
C92 C 0.55529 0.68415 0.97805 0.0
C93 C 0.53367 0.66057 0.92339 0.0
C94 C 0.55066 0.70923 0.00513 0.0
C95 C 0.52465 0.71113 0.97689 0.0
C96 C 0.50792 0.66282 0.89459 0.0
C97 C 0.50363 0.68817 0.92062 0.0
C98 C 0.51845 0.73611 0.00906 0.0
C99 C 0.49151 0.65841 0.16016 0.0
C100 C 0.51146 0.6678 0.22676 0.0
C101 C 0.49044 0.68134 0.1174 0.0
C102 C 0.51006 0.71424 0.13864 0.0
C103 C 0.52924 0.70077 0.25097 0.0
C104 C 0.52862 0.72373 0.2072 0.0
C105 C 0.51292 0.73856 0.08678 0.0
C106 C 0.49493 0.85453 0.10124 0.0
C107 C 0.51779 0.87395 0.15951 0.0
C108 C 0.49215 0.82534 0.07399 0.0
C109 C 0.51244 0.81542 0.104 0.0
C110 C 0.53698 0.86308 0.19171 0.0
C111 C 0.5343 0.83409 0.1642 0.0
C112 C 0.51293 0.7871 0.0693 0.0
C113 C 0.55034 0.8642 0.90872 0.0
C114 C 0.5264 0.85792 0.85347 0.0
C115 C 0.54802 0.83982 0.95185 0.0
C116 C 0.52188 0.80877 0.93988 0.0
C117 C 0.50073 0.82655 0.8401 0.0
C118 C 0.49866 0.80208 0.88253 0.0
C119 C 0.51756 0.78402 0.9912 0.0
H120 H 0.57547 0.68296 1.00013 0.0
H121 H 0.56717 0.72699 0.0485 0.0
H122 H 0.49136 0.64517 0.85112 0.0
H123 H 0.48348 0.6894 0.89841 0.0
H124 H 0.47745 0.63342 0.13925 0.0
H125 H 0.47506 0.67333 0.06604 0.0
H126 H 0.54409 0.70898 0.30322 0.0
H127 H 0.54357 0.74894 0.22546 0.0
H128 H 0.4796 0.86211 0.07593 0.0
H129 H 0.47465 0.81087 0.02838 0.0
H130 H 0.55409 0.87697 0.23849 0.0
H131 H 0.55001 0.82673 0.18839 0.0
H132 H 0.57032 0.88817 0.9202 0.0
H133 H 0.56619 0.84536 0.99595 0.0
H134 H 0.48217 0.82104 0.79717 0.0
H135 H 0.47833 0.77824 0.87266 0.0
N136 N 0.52015 0.75859 0.96361 0.0
N137 N 0.51094 0.76439 0.11465 0.0
C138 C 0.85624 0.52859 0.96016 0.0
C139 C 0.84788 0.50653 0.89559 0.0
C140 C 0.83314 0.52851 0.00572 0.0
C141 C 0.80116 0.506 0.98854 0.0
C142 C 0.81584 0.48407 0.87876 0.0
C143 C 0.79286 0.48386 0.92452 0.0
C144 C 0.77581 0.50758 0.02988 0.0
C145 C 0.82963 0.49296 0.22364 0.0
C146 C 0.8363 0.51344 0.2906 0.0
C147 C 0.81107 0.49334 0.1626 0.0
C148 C 0.79973 0.51497 0.1664 0.0
C149 C 0.82481 0.53496 0.2938 0.0
C150 C 0.80718 0.53598 0.23225 0.0
C151 C 0.77597 0.51289 0.1097 0.0
C152 C 0.64905 0.49767 0.17158 0.0
C153 C 0.65941 0.51842 0.23918 0.0
C154 C 0.67075 0.4966 0.12238 0.0
C155 C 0.70329 0.51686 0.13868 0.0
C156 C 0.69201 0.53866 0.25452 0.0
C157 C 0.71345 0.53812 0.20483 0.0
C158 C 0.7275 0.51353 0.09579 0.0
C159 C 0.67527 0.53186 0.90826 0.0
C160 C 0.66503 0.50979 0.84333 0.0
C161 C 0.69489 0.53107 0.96579 0.0
C162 C 0.70403 0.5077 0.96034 0.0
C163 C 0.67483 0.48693 0.83739 0.0
C164 C 0.69405 0.48588 0.89532 0.0
C165 C 0.7273 0.50825 0.01591 0.0
H166 H 0.88068 0.54601 0.97563 0.0
H167 H 0.84029 0.54659 0.05308 0.0
H168 H 0.80835 0.46702 0.82911 0.0
H169 H 0.76836 0.46658 0.90902 0.0
H170 H 0.83856 0.47645 0.21827 0.0
H171 H 0.80484 0.47607 0.11385 0.0
H172 H 0.82878 0.55068 0.34448 0.0
H173 H 0.79837 0.55263 0.23732 0.0
H174 H 0.62419 0.48194 0.15681 0.0
H175 H 0.66205 0.47923 0.07325 0.0
H176 H 0.70135 0.55442 0.30635 0.0
H177 H 0.73835 0.55381 0.21978 0.0
H178 H 0.66777 0.54949 0.91538 0.0
H179 H 0.70328 0.54905 0.01368 0.0
H180 H 0.66771 0.46984 0.78789 0.0
H181 H 0.7014 0.46808 0.88896 0.0
N182 N 0.75133 0.50536 0.98683 0.0
N183 N 0.75183 0.51549 0.1384 0.0
C184 C 0.3175 0.8558 0.00085 0.0
C185 C 0.3286 0.84265 0.94424 0.0
C186 C 0.29727 0.83651 0.05382 0.0
C187 C 0.2879 0.80383 0.05086 0.0
C188 C 0.3203 0.81028 0.94385 0.0
C189 C 0.29999 0.79104 0.99638 0.0
C190 C 0.26092 0.78155 0.09216 0.0
C191 C 0.33679 0.83773 0.28293 0.0
C192 C 0.32893 0.85544 0.33545 0.0
C193 C 0.31426 0.81539 0.22775 0.0
C194 C 0.2834 0.81019 0.22466 0.0
C195 C 0.2981 0.85033 0.3318 0.0
C196 C 0.27549 0.82766 0.27756 0.0
C197 C 0.25841 0.78463 0.17175 0.0
C198 C 0.14126 0.65688 0.19874 0.0
C199 C 0.12469 0.66504 0.2512 0.0
C200 C 0.16942 0.6804 0.17342 0.0
C201 C 0.18073 0.71289 0.19589 0.0
C202 C 0.13746 0.69754 0.27816 0.0
C203 C 0.16513 0.72129 0.25019 0.0
C204 C 0.20755 0.73785 0.15864 0.0
C205 C 0.12673 0.68504 0.98867 0.0
C206 C 0.13042 0.66384 0.93728 0.0
C207 C 0.15259 0.70933 0.03266 0.0
C208 C 0.18257 0.71264 0.02682 0.0
C209 C 0.16069 0.66791 0.92973 0.0
C210 C 0.18658 0.69224 0.97384 0.0
C211 C 0.20931 0.73619 0.07894 0.0
H212 H 0.32398 0.88085 0.00323 0.0
H213 H 0.28763 0.84671 0.09416 0.0
H214 H 0.32842 0.79948 0.90091 0.0
H215 H 0.29261 0.76572 0.99242 0.0
H216 H 0.36049 0.84146 0.28396 0.0
H217 H 0.32077 0.80172 0.18867 0.0
H218 H 0.2914 0.86363 0.37153 0.0
H219 H 0.25173 0.82376 0.27684 0.0
H220 H 0.13235 0.6324 0.17562 0.0
H221 H 0.18172 0.67322 0.13361 0.0
H222 H 0.12617 0.7048 0.32069 0.0
H223 H 0.17383 0.74621 0.26935 0.0
H224 H 0.10375 0.68254 0.99584 0.0
H225 H 0.14907 0.72513 0.07254 0.0
H226 H 0.16439 0.65239 0.88939 0.0
H227 H 0.20957 0.69455 0.9682 0.0
N228 N 0.23611 0.75764 0.0489 0.0
N229 N 0.23181 0.76236 0.20208 0.0
C230 C 0.50692 0.14708 0.14523 0.0
C231 C 0.48498 0.12804 0.085 0.0
C232 C 0.50905 0.17598 0.17275 0.0
C233 C 0.48908 0.1859 0.14064 0.0
C234 C 0.46673 0.13931 0.04979 0.0
C235 C 0.46883 0.16802 0.07725 0.0
C236 C 0.48635 0.21265 0.17718 0.0
C237 C 0.45118 0.13139 0.32434 0.0
C238 C 0.46871 0.13942 0.3942 0.0
C239 C 0.45332 0.15548 0.28048 0.0
C240 C 0.47411 0.18797 0.30419 0.0
C241 C 0.48789 0.17186 0.42038 0.0
C242 C 0.49066 0.19597 0.37553 0.0
C243 C 0.47918 0.21356 0.25427 0.0
C244 C 0.43985 0.31254 0.27125 0.0
C245 C 0.46104 0.33577 0.32717 0.0
C246 C 0.44477 0.28769 0.24361 0.0
C247 C 0.47062 0.28567 0.27257 0.0
C248 C 0.48652 0.33329 0.35693 0.0
C249 C 0.49109 0.30817 0.33035 0.0
C250 C 0.47755 0.26137 0.23917 0.0
C251 C 0.50384 0.34063 0.09194 0.0
C252 C 0.48472 0.33102 0.02385 0.0
C253 C 0.50543 0.31793 0.13459 0.0
C254 C 0.48718 0.28503 0.11155 0.0
C255 C 0.46835 0.29818 0.99811 0.0
C256 C 0.4695 0.27544 0.04165 0.0
C257 C 0.48476 0.26057 0.16232 0.0
H258 H 0.52157 0.13914 0.17256 0.0
H259 H 0.5252 0.18983 0.22117 0.0
H260 H 0.45042 0.12565 0.00147 0.0
H261 H 0.45346 0.17543 0.05132 0.0
H262 H 0.43581 0.1065 0.30385 0.0
H263 H 0.43928 0.14868 0.22712 0.0
H264 H 0.50143 0.1785 0.4745 0.0
H265 H 0.50643 0.22085 0.39551 0.0
H266 H 0.41989 0.31391 0.24837 0.0
H267 H 0.42871 0.27031 0.19901 0.0
H268 H 0.50275 0.35066 0.40131 0.0
H269 H 0.51111 0.30686 0.35311 0.0
H270 H 0.51682 0.36556 0.11394 0.0
H271 H 0.52016 0.32607 0.18704 0.0
H272 H 0.45421 0.28988 0.94475 0.0
H273 H 0.45563 0.25025 0.02203 0.0
N274 N 0.48849 0.23593 0.13369 0.0
N275 N 0.47536 0.23815 0.28271 0.0
C276 C 0.97817 0.42628 0.8488 0.0
C277 C 0.06677 0.48228 0.75129 0.0
C278 C 0.03308 0.57013 0.72259 0.0
Mg279 Mg 0.0001 0.43779 0.68436 0.0
O280 O -0.01088 0.46961 0.70434 0.0
Mg281 Mg 0.01105 0.50156 0.79445 0.0
Mg282 Mg -0.0024 0.49959 0.62514 0.0
O283 O 0.00615 0.52945 0.54557 0.0
Mg284 Mg -0.00316 0.56262 0.56285 0.0
Mg285 Mg 0.98422 0.4973 0.45583 0.0
C286 C 0.96314 0.42966 0.52612 0.0
C287 C 0.04547 0.4929 0.50813 0.0
O288 O 0.98836 0.45647 0.86366 0.0
O289 O 0.98043 0.41425 0.78396 0.0
O290 O 0.05545 0.49766 0.78733 0.0
O291 O 0.05017 0.45908 0.70138 0.0
O292 O 0.97487 0.41818 0.57258 0.0
O293 O 0.96624 0.45761 0.53932 0.0
C294 C 0.94946 0.50552 0.74239 0.0
O295 O 0.95539 0.5038 0.67209 0.0
O296 O 0.96692 0.50511 0.79675 0.0
O297 O 0.00771 0.5416 0.38592 0.0
O298 O 0.01772 0.58532 0.46268 0.0
O299 O 0.94033 0.5022 0.46221 0.0
C300 C 0.01926 0.57206 0.39887 0.0
O301 O 0.9469 0.54239 0.54471 0.0
O302 O 0.02223 0.58194 0.67472 0.0
C303 C 0.92973 0.51864 0.49654 0.0
O304 O 0.02878 0.5416 0.71098 0.0
O305 O 0.03987 0.49536 0.5784 0.0
O306 O 0.02782 0.49287 0.45369 0.0
C307 C 0.46917 0.0229 0.89667 0.0
C308 C 0.41687 0.93488 0.75931 0.0
C309 C 0.52847 0.95475 0.67241 0.0
Mg310 Mg 0.44532 0.00479 0.72566 0.0
O311 O 0.48541 0.0092 0.72241 0.0
Mg312 Mg 0.49594 0.98282 0.78846 0.0
Mg313 Mg 0.49834 -0.00075 0.6236 0.0
O314 O 0.51148 0.98922 0.52554 0.0
Mg315 Mg 0.55176 0.99391 0.52539 0.0
Mg316 Mg 0.5015 0.01582 0.45913 0.0
C317 C 0.46817 0.04401 0.57749 0.0
C318 C 0.43589 0.95697 0.50716 0.0
O319 O 0.48577 0.00907 0.8898 0.0
O320 O 0.45244 0.02408 0.8413 0.0
O321 O 0.44469 0.9424 0.78316 0.0
O322 O 0.41127 0.95459 0.72643 0.0
O323 O 0.44936 0.03451 0.63197 0.0
O324 O 0.48931 0.03585 0.56864 0.0
C325 C 0.5613 0.04128 0.73912 0.0
O326 O 0.54909 0.03813 0.6715 0.0
O327 O 0.54592 0.02308 0.79038 0.0
O328 O 0.51279 0.98991 0.35908 0.0
O329 O 0.54602 0.97516 0.40967 0.0
O330 O 0.55299 0.0567 0.46516 0.0
C331 C 0.52975 0.97642 0.35334 0.0
O332 O 0.58535 0.04405 0.52566 0.0
O333 O 0.54824 0.96463 0.62001 0.0
C334 C 0.58051 0.06383 0.49082 0.0
O335 O 0.5071 0.96265 0.67825 0.0
O336 O 0.44772 0.96031 0.57532 0.0
O337 O 0.45153 0.97519 0.4561 0.0
C338 C 0.52302 0.57573 0.40183 0.0
C339 C 0.57082 0.52323 0.44594 0.0
C340 C 0.45721 0.42982 0.52346 0.0
Mg341 Mg 0.55113 0.56379 0.54809 0.0
O342 O 0.50961 0.52969 0.54515 0.0
Mg343 Mg 0.49301 0.4994 0.45108 0.0
Mg344 Mg 0.49696 0.49844 0.62414 0.0
O345 O 0.4843 0.46721 0.70317 0.0
Mg346 Mg 0.44283 0.43296 0.70042 0.0
Mg347 Mg 0.50088 0.49757 0.79711 0.0
C348 C 0.53686 0.56692 0.72491 0.0
C349 C 0.55994 0.50492 0.7039 0.0
O350 O 0.50488 0.54521 0.3875 0.0
O351 O 0.54219 0.58804 0.46097 0.0
O352 O 0.5417 0.50551 0.42433 0.0
O353 O 0.58005 0.54604 0.49858 0.0
O354 O 0.55426 0.57991 0.66936 0.0
O355 O 0.5129 0.53847 0.71718 0.0
C356 C 0.43398 0.49201 0.54451 0.0
O357 O 0.44778 0.4931 0.60818 0.0
O358 O 0.4465 0.49397 0.48091 0.0
O359 O 0.48917 0.45203 0.86104 0.0
O360 O 0.45208 0.40896 0.78781 0.0
O361 O 0.45216 0.49139 0.82373 0.0
C362 C 0.47123 0.42148 0.84696 0.0
O363 O 0.41379 0.45062 0.75006 0.0
O364 O 0.43986 0.41679 0.57908 0.0
C365 C 0.42303 0.47355 0.80241 0.0
O366 O 0.48097 0.45841 0.53109 0.0
O367 O 0.54615 0.50379 0.64017 0.0
O368 O 0.54741 0.50303 0.76746 0.0
C369 C 0.12584 0.52028 0.43848 0.0
C370 C 0.12228 0.49151 0.40318 0.0
H371 H 0.1043 0.54298 0.50191 0.0
C372 C 0.09454 0.4626 0.41357 0.0
H373 H 0.14653 0.54309 0.4311 0.0
C374 C 0.07035 0.46273 0.45403 0.0
C375 C 0.07361 0.49162 0.48637 0.0
H376 H 0.09111 0.43989 0.38878 0.0
H377 H 0.04847 0.44042 0.45699 0.0
C378 C 0.10175 0.52029 0.47962 0.0
C379 C 0.65777 0.11156 0.40403 0.0
C380 C 0.65282 0.13369 0.36603 0.0
H381 H 0.63951 0.07319 0.47633 0.0
C382 C 0.62594 0.13608 0.38087 0.0
H383 H 0.67788 0.10857 0.39374 0.0
C384 C 0.60346 0.11516 0.42774 0.0
C385 C 0.60761 0.09173 0.4616 0.0
H386 H 0.62174 0.15345 0.35464 0.0
H387 H 0.58208 0.11625 0.43424 0.0
C388 C 0.63568 0.09117 0.45197 0.0
C389 C 0.48865 0.61239 0.27331 0.0
C390 C 0.51448 0.64349 0.26934 0.0
H391 H 0.47125 0.56637 0.317 0.0
C392 C 0.54353 0.65111 0.30571 0.0
H393 H 0.46578 0.60562 0.24705 0.0
C394 C 0.54641 0.62877 0.34698 0.0
C395 C 0.52052 0.59797 0.3517 0.0
H396 H 0.56423 0.67435 0.3023 0.0
H397 H 0.56897 0.63569 0.37553 0.0
C398 C 0.49173 0.5898 0.31344 0.0
C399 C 0.87664 0.54186 0.4001 0.0
C400 C 0.85596 0.51318 0.35588 0.0
H401 H 0.91539 0.56562 0.48293 0.0
C402 C 0.85567 0.48481 0.37196 0.0
H403 H 0.87789 0.56432 0.38944 0.0
C404 C 0.87781 0.48579 0.42497 0.0
C405 C 0.90016 0.51503 0.46399 0.0
H406 H 0.83932 0.46205 0.34124 0.0
H407 H 0.87881 0.4641 0.43168 0.0
C408 C 0.8982 0.54265 0.45438 0.0
C409 C 0.35791 0.91161 0.39655 0.0
C410 C 0.35323 0.88033 0.39129 0.0
H411 H 0.38803 0.96064 0.43908 0.0
C412 C 0.37325 0.87374 0.43574 0.0
H413 H 0.34296 0.91741 0.36274 0.0
C414 C 0.39856 0.8984 0.48129 0.0
C415 C 0.40449 0.93005 0.48181 0.0
H416 H 0.36998 0.84975 0.43312 0.0
H417 H 0.41484 0.89318 0.51122 0.0
C418 C 0.38352 0.93628 0.44063 0.0
C419 C 0.42852 0.35441 0.39542 0.0
C420 C 0.45607 0.36176 0.35864 0.0
H421 H 0.40693 0.37095 0.47659 0.0
C422 C 0.48087 0.39356 0.36292 0.0
H423 H 0.40908 0.32997 0.3924 0.0
C424 C 0.47958 0.41708 0.41018 0.0
C425 C 0.4537 0.40888 0.45494 0.0
H426 H 0.50217 0.39969 0.33402 0.0
H427 H 0.50016 0.44079 0.41709 0.0
C428 C 0.42736 0.37785 0.44358 0.0
C429 C 0.55514 0.9047 0.77533 0.0
C430 C 0.52779 0.8841 0.81091 0.0
H431 H 0.57686 0.9433 0.70341 0.0
C432 C 0.50149 0.88833 0.80482 0.0
H433 H 0.57573 0.90191 0.77919 0.0
C434 C 0.50225 0.91223 0.76249 0.0
C435 C 0.52918 0.93213 0.72445 0.0
H436 H 0.48025 0.873 0.83252 0.0
H437 H 0.48131 0.91434 0.75745 0.0
C438 C 0.55575 0.92833 0.73196 0.0
C439 C 0.61649 0.47939 0.75616 0.0
C440 C 0.64208 0.50899 0.78558 0.0
H441 H 0.56996 0.45517 0.70257 0.0
C442 C 0.64312 0.53748 0.76716 0.0
H443 H 0.61476 0.45695 0.76945 0.0
C444 C 0.61728 0.53629 0.72873 0.0
C445 C 0.59043 0.50664 0.70728 0.0
H446 H 0.66287 0.56067 0.78733 0.0
H447 H 0.61703 0.55841 0.72274 0.0
C448 C 0.59086 0.47827 0.71717 0.0
C449 C 0.08106 0.64487 0.85492 0.0
C450 C 0.10301 0.63823 0.88981 0.0
H451 H 0.04133 0.6283 0.77588 0.0
C452 C 0.09931 0.60745 0.87626 0.0
H453 H 0.0833 0.66836 0.86395 0.0
C454 C 0.07515 0.58437 0.82565 0.0
C455 C 0.05435 0.59171 0.78727 0.0
H456 H 0.11553 0.60144 0.90347 0.0
H457 H 0.07381 0.5614 0.81385 0.0
C458 C 0.05702 0.62188 0.80422 0.0
C459 C 0.50729 0.09355 0.03957 0.0
C460 C 0.48105 0.09668 0.05672 0.0
H461 H 0.5238 0.06615 0.97545 0.0
C462 C 0.45066 0.07082 0.03685 0.0
H463 H 0.53096 0.11308 0.05466 0.0
C464 C 0.44662 0.04424 0.99144 0.0
C465 C 0.47289 0.0429 0.96645 0.0
H466 H 0.43003 0.07227 0.05138 0.0
H467 H 0.42304 0.02608 0.97041 0.0
C468 C 0.5032 0.06662 0.99475 0.0
C469 C 0.34962 0.44979 0.90918 0.0
C470 C 0.35726 0.47826 0.95404 0.0
H471 H 0.36368 0.42636 0.82482 0.0
C472 C 0.38625 0.50594 0.94416 0.0
H473 H 0.32808 0.42766 0.91584 0.0
C474 C 0.40719 0.50487 0.8927 0.0
C475 C 0.39939 0.47631 0.84849 0.0
H476 H 0.39291 0.52853 0.97604 0.0
H477 H 0.42966 0.52634 0.88811 0.0
C478 C 0.37014 0.44897 0.85656 0.0
C479 C 0.91292 0.3863 0.97924 0.0
C480 C 0.90667 0.35452 0.96873 0.0
H481 H 0.94164 0.43464 0.95124 0.0
C482 C 0.92778 0.34786 0.93044 0.0
H483 H 0.89719 0.392 0.00991 0.0
C484 C 0.95318 0.37217 0.89704 0.0
C485 C 0.958 0.40352 0.90217 0.0
H486 H 0.9235 0.32353 0.92206 0.0
H487 H 0.96789 0.36603 0.86318 0.0
C488 C 0.93859 0.41073 0.94668 0.0
C489 C 0.86953 0.47764 0.81516 0.0
C490 C 0.8724 0.50666 0.84649 0.0
H491 H 0.89172 0.45479 0.75528 0.0
C492 C 0.89943 0.53563 0.83265 0.0
H493 H 0.84938 0.45482 0.82533 0.0
C494 C 0.92366 0.53544 0.79241 0.0
C495 C 0.92112 0.50637 0.76406 0.0
H496 H 0.90228 0.55846 0.85457 0.0
H497 H 0.94503 0.55792 0.7866 0.0
C498 C 0.89367 0.47754 0.7745 0.0
C499 C 0.34132 0.8837 0.85016 0.0
C500 C 0.34857 0.86258 0.88545 0.0
H501 H 0.35688 0.92258 0.77922 0.0
C502 C 0.37567 0.86149 0.86624 0.0
H503 H 0.32014 0.88444 0.86247 0.0
C504 C 0.39652 0.88302 0.81788 0.0
C505 C 0.39064 0.90604 0.78775 0.0
H506 H 0.38176 0.84531 0.89215 0.0
H507 H 0.4183 0.88307 0.80832 0.0
C508 C 0.36209 0.90513 0.80133 0.0
C509 C 0.50633 0.38644 0.97841 0.0
C510 C 0.48112 0.35491 0.98103 0.0
H511 H 0.52282 0.43238 0.93513 0.0
C512 C 0.45214 0.34638 0.94277 0.0
H513 H 0.52912 0.3939 0.00624 0.0
C514 C 0.44879 0.3683 0.90092 0.0
C515 C 0.4741 0.39954 0.89743 0.0
H516 H 0.43188 0.32273 0.9451 0.0
H517 H 0.42632 0.3607 0.87096 0.0
C518 C 0.50276 0.40858 0.9376 0.0
C519 C 0.12008 0.45912 0.84632 0.0
C520 C 0.14033 0.48752 0.89204 0.0
H521 H 0.08181 0.43574 0.76217 0.0
C522 C 0.14039 0.51591 0.8773 0.0
H523 H 0.11896 0.43663 0.85588 0.0
C524 C 0.11837 0.51512 0.8242 0.0
C525 C 0.09643 0.48608 0.78368 0.0
H526 H 0.15641 0.5385 0.90914 0.0
H527 H 0.11709 0.53672 0.81862 0.0
C528 C 0.09871 0.45856 0.79188 0.0
C529 C 0.6402 0.08527 0.84537 0.0
C530 C 0.64448 0.11639 0.85685 0.0
H531 H 0.61039 0.03696 0.79722 0.0
C532 C 0.62379 0.12343 0.8162 0.0
H533 H 0.65605 0.07902 0.87346 0.0
C534 C 0.59836 0.09947 0.76973 0.0
C535 C 0.59287 0.06796 0.7638 0.0
H536 H 0.62596 0.14691 0.82377 0.0
H537 H 0.58153 0.10497 0.74377 0.0
C538 C 0.61444 0.06126 0.80027 0.0
C539 C 0.56602 0.64211 0.85385 0.0
C540 C 0.53865 0.63464 0.89158 0.0
H541 H 0.58727 0.62577 0.77128 0.0
C542 C 0.51393 0.60282 0.88763 0.0
H543 H 0.5854 0.66657 0.85661 0.0
C544 C 0.51507 0.5794 0.83965 0.0
C545 C 0.54068 0.58774 0.79387 0.0
H546 H 0.49278 0.59659 0.91729 0.0
H547 H 0.49452 0.55566 0.83303 0.0
C548 C 0.56701 0.61877 0.805 0.0
C549 C 0.47672 0.09267 0.40918 0.0
C550 C 0.4673 0.11402 0.4394 0.0
H551 H 0.48471 0.05383 0.4293 0.0
C552 C 0.45717 0.11147 0.5136 0.0
H553 H 0.48469 0.09436 0.35196 0.0
C554 C 0.45654 0.08795 0.55716 0.0
C555 C 0.46674 0.06702 0.528 0.0
H556 H 0.44975 0.12769 0.53782 0.0
H557 H 0.4489 0.08678 0.61463 0.0
C558 C 0.47682 0.06959 0.45348 0.0
C559 C 0.35081 0.45958 0.48137 0.0
C560 C 0.35189 0.48813 0.46332 0.0
H561 H 0.37688 0.43854 0.52533 0.0
C562 C 0.37748 0.51768 0.493 0.0
H563 H 0.33106 0.43643 0.461 0.0
C564 C 0.40309 0.51871 0.53184 0.0
C565 C 0.4035 0.4903 0.5413 0.0
H566 H 0.37924 0.54016 0.47999 0.0
H567 H 0.424 0.54178 0.54663 0.0
C568 C 0.37664 0.46068 0.51964 0.0
C569 C 0.92096 0.35787 0.38231 0.0
C570 C 0.89674 0.36233 0.35203 0.0
H571 H 0.96127 0.37592 0.46043 0.0
C572 C 0.89704 0.39115 0.37279 0.0
H573 H 0.92193 0.33636 0.366 0.0
C574 C 0.91999 0.41412 0.42581 0.0
C575 C 0.94289 0.4086 0.4598 0.0
H576 H 0.87866 0.39533 0.35109 0.0
H577 H 0.91863 0.43532 0.44334 0.0
C578 C 0.94368 0.38067 0.43591 0.0
C579 C 0.55097 0.93086 0.21255 0.0
C580 C 0.52098 0.90477 0.19021 0.0
H581 H 0.57728 0.975 0.28215 0.0
C582 C 0.49419 0.90703 0.20681 0.0
H583 H 0.57205 0.93022 0.19847 0.0
C584 C 0.4973 0.93323 0.25289 0.0
C585 C 0.52716 0.95709 0.28329 0.0
H586 H 0.47077 0.88735 0.19014 0.0
H587 H 0.47625 0.93299 0.27129 0.0
C588 C 0.55402 0.95667 0.25947 0.0
C589 C 0.64426 0.54734 0.33929 0.0
C590 C 0.63679 0.51892 0.29448 0.0
H591 H 0.63002 0.5706 0.42358 0.0
C592 C 0.60786 0.49114 0.30424 0.0
H593 H 0.66573 0.56956 0.33267 0.0
C594 C 0.58683 0.49208 0.3556 0.0
C595 C 0.5945 0.52059 0.39983 0.0
H596 H 0.60132 0.46858 0.27235 0.0
H597 H 0.5644 0.47055 0.36013 0.0
C598 C 0.62367 0.54803 0.39184 0.0
C599 C 0.07134 0.64639 0.30302 0.0
C600 C 0.09483 0.63964 0.2792 0.0
H601 H 0.02845 0.6299 0.36004 0.0
C602 C 0.09007 0.60856 0.28516 0.0
H603 H 0.07352 0.66962 0.29723 0.0
C604 C 0.0634 0.58543 0.317 0.0
C605 C 0.04141 0.59311 0.34612 0.0
H606 H 0.10766 0.60232 0.2693 0.0
H607 H 0.06141 0.56236 0.32464 0.0
C608 C 0.04515 0.6235 0.33753 0.0
loop_
_geom_bond_atom_site_label_1
_geom_bond_atom_site_label_2
_geom_bond_distance
_geom_bond_site_symmetry_2
_ccdc_geom_bond_type
C0 C1 1.373 1_554 S
C0 C2 1.384 . S
C0 H28 0.931 . S
C1 C0 1.373 1_556 S
C1 C4 1.383 . S
C2 C0 1.384 . S
C2 C3 1.381 . S
C2 H29 0.930 . S
C3 C2 1.381 . S
C3 C5 1.381 . S
C3 C6 1.487 . S
C4 C1 1.383 . S
C4 C5 1.387 1_556 S
C4 H30 0.930 . S
C5 C3 1.381 . S
C5 C4 1.387 1_554 S
C5 H31 0.931 . S
C6 C3 1.487 . S
C6 C13 1.399 . S
C6 N44 1.343 . S
C7 C8 1.384 . S
C7 C9 1.384 . S
C7 H32 0.931 . S
C8 C7 1.384 . S
C8 C11 1.382 . S
C9 C7 1.384 . S
C9 C10 1.381 . S
C9 H33 0.930 . S
C10 C9 1.381 . S
C10 C12 1.381 . S
C10 C13 1.487 . S
C11 C8 1.382 . S
C11 C12 1.387 . S
C11 H34 0.930 . S
C12 C10 1.381 . S
C12 C11 1.387 . S
C12 H35 0.931 . S
C13 C6 1.399 . S
C13 C10 1.487 . S
C13 N45 1.343 . S
C14 C15 1.384 . S
C14 C16 1.384 . S
C14 H36 0.931 . S
C15 C14 1.384 . S
C15 C18 1.382 . S
C16 C14 1.384 . S
C16 C17 1.381 . S
C16 H37 0.930 . S
C17 C16 1.381 . S
C17 C19 1.381 . S
C17 C20 1.487 . S
C18 C15 1.382 . S
C18 C19 1.387 . S
C18 H38 0.930 . S
C19 C17 1.381 . S
C19 C18 1.387 . S
C19 H39 0.931 . S
C20 C17 1.487 . S
C20 C27 1.399 . S
C20 N45 1.343 . S
C21 C22 1.384 1_554 S
C21 C23 1.384 . S
C21 H40 0.931 . S
C22 C21 1.384 1_556 S
C22 C25 1.382 . S
C23 C21 1.384 . S
C23 C24 1.381 . S
C23 H41 0.930 . S
C24 C23 1.381 . S
C24 C26 1.381 . S
C24 C27 1.487 . S
C25 C22 1.382 . S
C25 C26 1.387 1_556 S
C25 H42 0.930 . S
C26 C24 1.381 . S
C26 C25 1.387 1_554 S
C26 H43 0.931 . S
C27 C20 1.399 . S
C27 C24 1.487 . S
C27 N44 1.343 . S
H28 C0 0.931 . S
H29 C2 0.930 . S
H30 C4 0.930 . S
H31 C5 0.931 . S
H32 C7 0.931 . S
H33 C9 0.930 . S
H34 C11 0.930 . S
H35 C12 0.931 . S
H36 C14 0.931 . S
H37 C16 0.930 . S
H38 C18 0.930 . S
H39 C19 0.931 . S
H40 C21 0.931 . S
H41 C23 0.930 . S
H42 C25 0.930 . S
H43 C26 0.931 . S
N44 C6 1.343 . S
N44 C27 1.343 . S
N45 C13 1.343 . S
N45 C20 1.343 . S
C46 C47 1.384 . S
C46 C48 1.384 . S
C46 H74 0.931 . S
C47 C46 1.384 . S
C47 C50 1.382 . S
C48 C46 1.384 . S
C48 C49 1.381 . S
C48 H75 0.930 . S
C49 C48 1.381 . S
C49 C51 1.381 . S
C49 C52 1.487 . S
C50 C47 1.382 . S
C50 C51 1.387 . S
C50 H76 0.930 . S
C51 C49 1.381 . S
C51 C50 1.387 . S
C51 H77 0.931 . S
C52 C49 1.487 . S
C52 C59 1.399 . S
C52 N90 1.343 . S
C53 C54 1.384 1_554 S
C53 C55 1.384 . S
C53 H78 0.931 . S
C54 C53 1.384 1_556 S
C54 C57 1.382 . S
C55 C53 1.384 . S
C55 C56 1.381 . S
C55 H79 0.930 . S
C56 C55 1.381 . S
C56 C58 1.381 1_554 S
C56 C59 1.487 . S
C57 C54 1.382 . S
C57 C58 1.387 . S
C57 H80 0.930 . S
C58 C56 1.381 1_556 S
C58 C57 1.387 . S
C58 H81 0.931 . S
C59 C52 1.399 . S
C59 C56 1.487 . S
C59 N91 1.343 . S
C60 C61 1.384 1_554 S
C60 C62 1.384 . S
C60 H82 0.931 . S
C61 C60 1.384 1_556 S
C61 C64 1.382 . S
C62 C60 1.384 . S
C62 C63 1.381 . S
C62 H83 0.930 . S
C63 C62 1.381 . S
C63 C65 1.381 . S
C63 C66 1.487 . S
C64 C61 1.382 . S
C64 C65 1.387 1_556 S
C64 H84 0.930 . S
C65 C63 1.381 . S
C65 C64 1.387 1_554 S
C65 H85 0.931 1_554 S
C66 C63 1.487 . S
C66 C73 1.399 . S
C66 N91 1.343 . S
C67 C68 1.384 . S
C67 C69 1.384 . S
C67 H86 0.931 . S
C68 C67 1.384 . S
C68 C71 1.382 . S
C69 C67 1.384 . S
C69 C70 1.381 . S
C69 H87 0.930 . S
C70 C69 1.381 . S
C70 C72 1.381 . S
C70 C73 1.487 . S
C71 C68 1.382 . S
C71 C72 1.387 . S
C71 H88 0.930 . S
C72 C70 1.381 . S
C72 C71 1.387 . S
C72 H89 0.931 . S
C73 C66 1.399 . S
C73 C70 1.487 . S
C73 N90 1.343 . S
H74 C46 0.931 . S
H75 C48 0.930 . S
H76 C50 0.930 . S
H77 C51 0.931 . S
H78 C53 0.931 . S
H79 C55 0.930 . S
H80 C57 0.930 . S
H81 C58 0.931 . S
H82 C60 0.931 . S
H83 C62 0.930 . S
H84 C64 0.930 . S
H85 C65 0.931 1_556 S
H86 C67 0.931 . S
H87 C69 0.930 . S
H88 C71 0.930 . S
H89 C72 0.931 . S
N90 C52 1.343 . S
N90 C73 1.343 . S
N91 C59 1.343 . S
N91 C66 1.343 . S
C92 C93 1.384 . S
C92 C94 1.384 . S
C92 H120 0.931 . S
C93 C92 1.384 . S
C93 C96 1.382 . S
C94 C92 1.384 . S
C94 C95 1.381 . S
C94 H121 0.930 . S
C95 C94 1.381 . S
C95 C97 1.381 . S
C95 C98 1.487 . S
C96 C93 1.382 . S
C96 C97 1.387 . S
C96 H122 0.930 . S
C97 C95 1.381 . S
C97 C96 1.387 . S
C97 H123 0.931 . S
C98 C95 1.487 . S
C98 C105 1.399 1_556 S
C98 N136 1.343 . S
C99 C100 1.384 . S
C99 C101 1.384 . S
C99 H124 0.931 . S
C100 C99 1.384 . S
C100 C103 1.382 . S
C101 C99 1.384 . S
C101 C102 1.381 . S
C101 H125 0.930 . S
C102 C101 1.381 . S
C102 C104 1.381 . S
C102 C105 1.487 . S
C103 C100 1.382 . S
C103 C104 1.387 . S
C103 H126 0.930 . S
C104 C102 1.381 . S
C104 C103 1.387 . S
C104 H127 0.931 . S
C105 C98 1.399 1_554 S
C105 C102 1.487 . S
C105 N137 1.343 . S
C106 C107 1.384 . S
C106 C108 1.384 . S
C106 H128 0.931 . S
C107 C106 1.384 . S
C107 C110 1.382 . S
C108 C106 1.384 . S
C108 C109 1.381 . S
C108 H129 0.930 . S
C109 C108 1.381 . S
C109 C111 1.381 . S
C109 C112 1.487 . S
C110 C107 1.382 . S
C110 C111 1.387 . S
C110 H130 0.930 . S
C111 C109 1.381 . S
C111 C110 1.387 . S
C111 H131 0.931 . S
C112 C109 1.487 . S
C112 C119 1.399 1_554 S
C112 N137 1.343 . S
C113 C114 1.384 . S
C113 C115 1.384 . S
C113 H132 0.931 . S
C114 C113 1.384 . S
C114 C117 1.382 . S
C115 C113 1.384 . S
C115 C116 1.381 . S
C115 H133 0.930 . S
C116 C115 1.381 . S
C116 C118 1.381 . S
C116 C119 1.487 . S
C117 C114 1.382 . S
C117 C118 1.387 . S
C117 H134 0.930 . S
C118 C116 1.381 . S
C118 C117 1.387 . S
C118 H135 0.931 . S
C119 C112 1.399 1_556 S
C119 C116 1.487 . S
C119 N136 1.343 . S
H120 C92 0.931 . S
H121 C94 0.930 . S
H122 C96 0.930 . S
H123 C97 0.931 . S
H124 C99 0.931 . S
H125 C101 0.930 . S
H126 C103 0.930 . S
H127 C104 0.931 . S
H128 C106 0.931 . S
H129 C108 0.930 . S
H130 C110 0.930 . S
H131 C111 0.931 . S
H132 C113 0.931 . S
H133 C115 0.930 . S
H134 C117 0.930 . S
H135 C118 0.931 . S
N136 C98 1.343 . S
N136 C119 1.343 . S
N137 C105 1.343 . S
N137 C112 1.343 . S
C138 C139 1.384 . S
C138 C140 1.384 . S
C138 H166 0.931 . S
C139 C138 1.384 . S
C139 C142 1.382 . S
C140 C138 1.384 . S
C140 C141 1.381 . S
C140 H167 0.930 1_556 S
C141 C140 1.381 . S
C141 C143 1.381 . S
C141 C144 1.487 1_556 S
C142 C139 1.382 . S
C142 C143 1.387 . S
C142 H168 0.930 . S
C143 C141 1.381 . S
C143 C142 1.387 . S
C143 H169 0.931 . S
C144 C141 1.487 1_554 S
C144 C151 1.399 . S
C144 N182 1.343 1_554 S
C145 C146 1.384 . S
C145 C147 1.384 . S
C145 H170 0.931 . S
C146 C145 1.384 . S
C146 C149 1.382 . S
C147 C145 1.384 . S
C147 C148 1.381 . S
C147 H171 0.930 . S
C148 C147 1.381 . S
C148 C150 1.381 . S
C148 C151 1.487 . S
C149 C146 1.382 . S
C149 C150 1.387 . S
C149 H172 0.930 . S
C150 C148 1.381 . S
C150 C149 1.387 . S
C150 H173 0.931 . S
C151 C144 1.399 . S
C151 C148 1.487 . S
C151 N183 1.343 . S
C152 C153 1.384 . S
C152 C154 1.384 . S
C152 H174 0.931 . S
C153 C152 1.384 . S
C153 C156 1.382 . S
C154 C152 1.384 . S
C154 C155 1.381 . S
C154 H175 0.930 . S
C155 C154 1.381 . S
C155 C157 1.381 . S
C155 C158 1.487 . S
C156 C153 1.382 . S
C156 C157 1.387 . S
C156 H176 0.930 . S
C157 C155 1.381 . S
C157 C156 1.387 . S
C157 H177 0.931 . S
C158 C155 1.487 . S
C158 C165 1.399 . S
C158 N183 1.343 . S
C159 C160 1.384 . S
C159 C161 1.384 . S
C159 H178 0.931 . S
C160 C159 1.384 . S
C160 C163 1.382 . S
C161 C159 1.384 . S
C161 C162 1.381 . S
C161 H179 0.930 1_556 S
C162 C161 1.381 . S
C162 C164 1.381 . S
C162 C165 1.487 1_556 S
C163 C160 1.382 . S
C163 C164 1.387 . S
C163 H180 0.930 . S
C164 C162 1.381 . S
C164 C163 1.387 . S
C164 H181 0.931 . S
C165 C158 1.399 . S
C165 C162 1.487 1_554 S
C165 N182 1.343 1_554 S
H166 C138 0.931 . S
H167 C140 0.930 1_554 S
H168 C142 0.930 . S
H169 C143 0.931 . S
H170 C145 0.931 . S
H171 C147 0.930 . S
H172 C149 0.930 . S
H173 C150 0.931 . S
H174 C152 0.931 . S
H175 C154 0.930 . S
H176 C156 0.930 . S
H177 C157 0.931 . S
H178 C159 0.931 . S
H179 C161 0.930 1_554 S
H180 C163 0.930 . S
H181 C164 0.931 . S
N182 C144 1.343 1_556 S
N182 C165 1.343 1_556 S
N183 C151 1.343 . S
N183 C158 1.343 . S
C184 C185 1.384 . S
C184 C186 1.384 1_556 S
C184 H212 0.931 . S
C185 C184 1.384 . S
C185 C188 1.382 . S
C186 C184 1.384 1_554 S
C186 C187 1.381 . S
C186 H213 0.930 . S
C187 C186 1.381 . S
C187 C189 1.381 1_554 S
C187 C190 1.487 . S
C188 C185 1.382 . S
C188 C189 1.387 . S
C188 H214 0.930 . S
C189 C187 1.381 1_556 S
C189 C188 1.387 . S
C189 H215 0.931 . S
C190 C187 1.487 . S
C190 C197 1.399 . S
C190 N228 1.343 . S
C191 C192 1.384 . S
C191 C193 1.384 . S
C191 H216 0.931 . S
C192 C191 1.384 . S
C192 C195 1.382 . S
C193 C191 1.384 . S
C193 C194 1.381 . S
C193 H217 0.930 . S
C194 C193 1.381 . S
C194 C196 1.381 . S
C194 C197 1.487 . S
C195 C192 1.382 . S
C195 C196 1.387 . S
C195 H218 0.930 . S
C196 C194 1.381 . S
C196 C195 1.387 . S
C196 H219 0.931 . S
C197 C190 1.399 . S
C197 C194 1.487 . S
C197 N229 1.343 . S
C198 C199 1.384 . S
C198 C200 1.384 . S
C198 H220 0.931 . S
C199 C198 1.384 . S
C199 C202 1.382 . S
C200 C198 1.384 . S
C200 C201 1.381 . S
C200 H221 0.930 . S
C201 C200 1.381 . S
C201 C203 1.381 . S
C201 C204 1.487 . S
C202 C199 1.382 . S
C202 C203 1.387 . S
C202 H222 0.930 . S
C203 C201 1.381 . S
C203 C202 1.387 . S
C203 H223 0.931 . S
C204 C201 1.487 . S
C204 C211 1.399 . S
C204 N229 1.343 . S
C205 C206 1.384 . S
C205 C207 1.384 1_556 S
C205 H224 0.931 . S
C206 C205 1.384 . S
C206 C209 1.382 . S
C207 C205 1.384 1_554 S
C207 C208 1.381 . S
C207 H225 0.930 . S
C208 C207 1.381 . S
C208 C210 1.381 1_554 S
C208 C211 1.487 . S
C209 C206 1.382 . S
C209 C210 1.387 . S
C209 H226 0.930 . S
C210 C208 1.381 1_556 S
C210 C209 1.387 . S
C210 H227 0.931 . S
C211 C204 1.399 . S
C211 C208 1.487 . S
C211 N228 1.343 . S
H212 C184 0.931 . S
H213 C186 0.930 . S
H214 C188 0.930 . S
H215 C189 0.931 . S
H216 C191 0.931 . S
H217 C193 0.930 . S
H218 C195 0.930 . S
H219 C196 0.931 . S
H220 C198 0.931 . S
H221 C200 0.930 . S
H222 C202 0.930 . S
H223 C203 0.931 . S
H224 C205 0.931 . S
H225 C207 0.930 . S
H226 C209 0.930 . S
H227 C210 0.931 . S
N228 C190 1.343 . S
N228 C211 1.343 . S
N229 C197 1.343 . S
N229 C204 1.343 . S
C230 C231 1.384 . S
C230 C232 1.384 . S
C230 H258 0.931 . S
C231 C230 1.384 . S
C231 C234 1.382 . S
C232 C230 1.384 . S
C232 C233 1.381 . S
C232 H259 0.930 . S
C233 C232 1.381 . S
C233 C235 1.381 . S
C233 C236 1.487 . S
C234 C231 1.382 . S
C234 C235 1.387 . S
C234 H260 0.930 1_554 S
C235 C233 1.381 . S
C235 C234 1.387 . S
C235 H261 0.931 . S
C236 C233 1.487 . S
C236 C243 1.399 . S
C236 N274 1.343 . S
C237 C238 1.384 . S
C237 C239 1.384 . S
C237 H262 0.931 . S
C238 C237 1.384 . S
C238 C241 1.382 . S
C239 C237 1.384 . S
C239 C240 1.381 . S
C239 H263 0.930 . S
C240 C239 1.381 . S
C240 C242 1.381 . S
C240 C243 1.487 . S
C241 C238 1.382 . S
C241 C242 1.387 . S
C241 H264 0.930 . S
C242 C240 1.381 . S
C242 C241 1.387 . S
C242 H265 0.931 . S
C243 C236 1.399 . S
C243 C240 1.487 . S
C243 N275 1.343 . S
C244 C245 1.384 . S
C244 C246 1.384 . S
C244 H266 0.931 . S
C245 C244 1.384 . S
C245 C248 1.382 . S
C246 C244 1.384 . S
C246 C247 1.381 . S
C246 H267 0.930 . S
C247 C246 1.381 . S
C247 C249 1.381 . S
C247 C250 1.487 . S
C248 C245 1.382 . S
C248 C249 1.387 . S
C248 H268 0.930 . S
C249 C247 1.381 . S
C249 C248 1.387 . S
C249 H269 0.931 . S
C250 C247 1.487 . S
C250 C257 1.399 . S
C250 N275 1.343 . S
C251 C252 1.384 . S
C251 C253 1.384 . S
C251 H270 0.931 . S
C252 C251 1.384 . S
C252 C255 1.382 . S
C253 C251 1.384 . S
C253 C254 1.381 . S
C253 H271 0.930 . S
C254 C253 1.381 . S
C254 C256 1.381 . S
C254 C257 1.487 . S
C255 C252 1.382 . S
C255 C256 1.387 . S
C255 H272 0.930 1_554 S
C256 C254 1.381 . S
C256 C255 1.387 . S
C256 H273 0.931 . S
C257 C250 1.399 . S
C257 C254 1.487 . S
C257 N274 1.343 . S
H258 C230 0.931 . S
H259 C232 0.930 . S
H260 C234 0.930 1_556 S
H261 C235 0.931 . S
H262 C237 0.931 . S
H263 C239 0.930 . S
H264 C241 0.930 . S
H265 C242 0.931 . S
H266 C244 0.931 . S
H267 C246 0.930 . S
H268 C248 0.930 . S
H269 C249 0.931 . S
H270 C251 0.931 . S
H271 C253 0.930 . S
H272 C255 0.930 1_556 S
H273 C256 0.931 . S
N274 C236 1.343 . S
N274 C257 1.343 . S
N275 C243 1.343 . S
N275 C250 1.343 . S
C276 O288 1.241 . S
C276 O289 1.280 . S
C277 O290 1.277 . S
C277 O291 1.245 . S
C278 O302 1.247 . S
C278 O304 1.289 . S
Mg279 O280 1.926 . S
Mg279 O289 1.984 . S
Mg279 O291 1.988 1_655 S
Mg279 O292 2.061 . S
O280 Mg279 1.926 . S
O280 Mg281 1.986 1_655 S
O280 Mg282 1.917 1_655 S
Mg281 O280 1.986 1_455 S
Mg281 O288 2.042 1_455 S
Mg281 O290 2.041 . S
Mg281 O296 2.038 1_455 S
Mg281 O304 2.238 . S
Mg282 O280 1.917 1_455 S
Mg282 O283 1.917 . S
Mg282 O293 2.106 1_455 S
Mg282 O295 2.079 1_455 S
Mg282 O304 2.106 . S
Mg282 O305 2.079 . S
O283 Mg282 1.917 . S
O283 Mg284 1.926 . S
O283 Mg285 1.986 . S
Mg284 O283 1.926 . S
Mg284 O298 1.984 . S
Mg284 O301 1.988 1_455 S
Mg284 O302 2.061 . S
Mg285 O283 1.986 . S
Mg285 O293 2.238 1_455 S
Mg285 O297 2.042 . S
Mg285 O299 2.041 1_455 S
Mg285 O306 2.038 . S
C286 O292 1.247 . S
C286 O293 1.289 . S
C287 O305 1.245 . S
C287 O306 1.274 . S
O288 C276 1.241 . S
O288 Mg281 2.042 1_655 S
O289 C276 1.280 . S
O289 Mg279 1.984 . S
O290 C277 1.277 . S
O290 Mg281 2.041 . S
O291 C277 1.245 . S
O291 Mg279 1.988 1_455 S
O292 Mg279 2.061 . S
O292 C286 1.247 . S
O293 Mg282 2.106 1_655 S
O293 Mg285 2.238 1_655 S
O293 C286 1.289 . S
C294 O295 1.245 . S
C294 O296 1.274 . S
O295 Mg282 2.079 1_655 S
O295 C294 1.245 . S
O296 Mg281 2.038 1_655 S
O296 C294 1.274 . S
O297 Mg285 2.042 . S
O297 C300 1.241 . S
O298 Mg284 1.984 . S
O298 C300 1.280 . S
O299 Mg285 2.041 1_655 S
O299 C303 1.277 . S
C300 O297 1.241 . S
C300 O298 1.280 . S
O301 Mg284 1.988 1_655 S
O301 C303 1.245 . S
O302 C278 1.247 . S
O302 Mg284 2.061 . S
C303 O299 1.277 . S
C303 O301 1.245 . S
O304 C278 1.289 . S
O304 Mg281 2.238 . S
O304 Mg282 2.106 . S
O305 Mg282 2.079 . S
O305 C287 1.245 . S
O306 Mg285 2.038 . S
O306 C287 1.274 . S
C307 O319 1.241 . S
C307 O320 1.280 . S
C308 O321 1.277 . S
C308 O322 1.245 . S
C309 O333 1.247 . S
C309 O335 1.289 . S
Mg310 O311 1.926 . S
Mg310 O320 1.984 . S
Mg310 O322 1.988 1_545 S
Mg310 O323 2.061 . S
O311 Mg310 1.926 . S
O311 Mg312 1.986 . S
O311 Mg313 1.917 . S
Mg312 O311 1.986 . S
Mg312 O319 2.042 . S
Mg312 O321 2.041 1_545 S
Mg312 O327 2.038 . S
Mg312 O335 2.238 1_545 S
Mg313 O311 1.917 . S
Mg313 O314 1.917 1_545 S
Mg313 O324 2.106 . S
Mg313 O326 2.079 . S
Mg313 O335 2.106 1_545 S
Mg313 O336 2.079 1_545 S
O314 Mg313 1.917 1_565 S
O314 Mg315 1.926 . S
O314 Mg316 1.986 1_565 S
Mg315 O314 1.926 . S
Mg315 O329 1.984 . S
Mg315 O332 1.988 1_565 S
Mg315 O333 2.061 . S
Mg316 O314 1.986 1_545 S
Mg316 O324 2.238 . S
Mg316 O328 2.042 1_545 S
Mg316 O330 2.041 . S
Mg316 O337 2.038 1_545 S
C317 O323 1.247 . S
C317 O324 1.289 . S
C318 O336 1.245 . S
C318 O337 1.274 . S
O319 C307 1.241 . S
O319 Mg312 2.042 . S
O320 C307 1.280 . S
O320 Mg310 1.984 . S
O321 C308 1.277 . S
O321 Mg312 2.041 1_565 S
O322 C308 1.245 . S
O322 Mg310 1.988 1_565 S
O323 Mg310 2.061 . S
O323 C317 1.247 . S
O324 Mg313 2.106 . S
O324 Mg316 2.238 . S
O324 C317 1.289 . S
C325 O326 1.245 . S
C325 O327 1.274 . S
O326 Mg313 2.079 . S
O326 C325 1.245 . S
O327 Mg312 2.038 . S
O327 C325 1.274 . S
O328 Mg316 2.042 1_565 S
O328 C331 1.241 . S
O329 Mg315 1.984 . S
O329 C331 1.280 . S
O330 Mg316 2.041 . S
O330 C334 1.277 . S
C331 O328 1.241 . S
C331 O329 1.280 . S
O332 Mg315 1.988 1_545 S
O332 C334 1.245 . S
O333 C309 1.247 . S
O333 Mg315 2.061 . S
C334 O330 1.277 . S
C334 O332 1.245 . S
O335 C309 1.289 . S
O335 Mg312 2.238 1_565 S
O335 Mg313 2.106 1_565 S
O336 Mg313 2.079 1_565 S
O336 C318 1.245 . S
O337 Mg316 2.038 1_565 S
O337 C318 1.274 . S
C338 O350 1.241 . S
C338 O351 1.280 . S
C339 O352 1.277 . S
C339 O353 1.245 . S
C340 O364 1.247 . S
C340 O366 1.289 . S
Mg341 O342 1.926 . S
Mg341 O351 1.984 . S
Mg341 O353 1.988 . S
Mg341 O354 2.061 . S
O342 Mg341 1.926 . S
O342 Mg343 1.986 . S
O342 Mg344 1.917 . S
Mg343 O342 1.986 . S
Mg343 O350 2.042 . S
Mg343 O352 2.041 . S
Mg343 O358 2.038 . S
Mg343 O366 2.238 . S
Mg344 O342 1.917 . S
Mg344 O345 1.917 . S
Mg344 O355 2.106 . S
Mg344 O357 2.079 . S
Mg344 O366 2.106 . S
Mg344 O367 2.079 . S
O345 Mg344 1.917 . S
O345 Mg346 1.926 . S
O345 Mg347 1.986 . S
Mg346 O345 1.926 . S
Mg346 O360 1.984 . S
Mg346 O363 1.988 . S
Mg346 O364 2.061 . S
Mg347 O345 1.986 . S
Mg347 O355 2.238 . S
Mg347 O359 2.042 . S
Mg347 O361 2.041 . S
Mg347 O368 2.038 . S
C348 O354 1.247 . S
C348 O355 1.289 . S
C349 O367 1.245 . S
C349 O368 1.274 . S
O350 C338 1.241 . S
O350 Mg343 2.042 . S
O351 C338 1.280 . S
O351 Mg341 1.984 . S
O352 C339 1.277 . S
O352 Mg343 2.041 . S
O353 C339 1.245 . S
O353 Mg341 1.988 . S
O354 Mg341 2.061 . S
O354 C348 1.247 . S
O355 Mg344 2.106 . S
O355 Mg347 2.238 . S
O355 C348 1.289 . S
C356 O357 1.245 . S
C356 O358 1.274 . S
O357 Mg344 2.079 . S
O357 C356 1.245 . S
O358 Mg343 2.038 . S
O358 C356 1.274 . S
O359 Mg347 2.042 . S
O359 C362 1.241 . S
O360 Mg346 1.984 . S
O360 C362 1.280 . S
O361 Mg347 2.041 . S
O361 C365 1.277 . S
C362 O359 1.241 . S
C362 O360 1.280 . S
O363 Mg346 1.988 . S
O363 C365 1.245 . S
O364 C340 1.247 . S
O364 Mg346 2.061 . S
C365 O361 1.277 . S
C365 O363 1.245 . S
O366 C340 1.289 . S
O366 Mg343 2.238 . S
O366 Mg344 2.106 . S
O367 Mg344 2.079 . S
O367 C349 1.245 . S
O368 Mg347 2.038 . S
O368 C349 1.274 . S
C369 C370 1.387 . S
C369 H373 0.950 . S
C369 C378 1.390 . S
C370 C369 1.387 . S
C370 C372 1.387 . S
H371 C378 0.950 . S
C372 C370 1.387 . S
C372 C374 1.390 . S
C372 H376 0.950 . S
H373 C369 0.950 . S
C374 C372 1.390 . S
C374 C375 1.387 . S
C374 H377 0.950 . S
C375 C374 1.387 . S
C375 C378 1.387 . S
H376 C372 0.950 . S
H377 C374 0.950 . S
C378 C369 1.390 . S
C378 H371 0.950 . S
C378 C375 1.387 . S
C379 C380 1.387 . S
C379 H383 0.950 . S
C379 C388 1.390 . S
C380 C379 1.387 . S
C380 C382 1.387 . S
H381 C388 0.950 . S
C382 C380 1.387 . S
C382 C384 1.390 . S
C382 H386 0.950 . S
H383 C379 0.950 . S
C384 C382 1.390 . S
C384 C385 1.387 . S
C384 H387 0.950 . S
C385 C384 1.387 . S
C385 C388 1.387 . S
H386 C382 0.950 . S
H387 C384 0.950 . S
C388 C379 1.390 . S
C388 H381 0.950 . S
C388 C385 1.387 . S
C389 C390 1.387 . S
C389 H393 0.950 . S
C389 C398 1.390 . S
C390 C389 1.387 . S
C390 C392 1.387 . S
H391 C398 0.950 . S
C392 C390 1.387 . S
C392 C394 1.390 . S
C392 H396 0.950 . S
H393 C389 0.950 . S
C394 C392 1.390 . S
C394 C395 1.387 . S
C394 H397 0.950 . S
C395 C394 1.387 . S
C395 C398 1.387 . S
H396 C392 0.950 . S
H397 C394 0.950 . S
C398 C389 1.390 . S
C398 H391 0.950 . S
C398 C395 1.387 . S
C399 C400 1.387 . S
C399 H403 0.950 . S
C399 C408 1.390 . S
C400 C399 1.387 . S
C400 C402 1.387 . S
H401 C408 0.950 . S
C402 C400 1.387 . S
C402 C404 1.390 . S
C402 H406 0.950 . S
H403 C399 0.950 . S
C404 C402 1.390 . S
C404 C405 1.387 . S
C404 H407 0.950 . S
C405 C404 1.387 . S
C405 C408 1.387 . S
H406 C402 0.950 . S
H407 C404 0.950 . S
C408 C399 1.390 . S
C408 H401 0.950 . S
C408 C405 1.387 . S
C409 C410 1.387 . S
C409 H413 0.950 . S
C409 C418 1.390 . S
C410 C409 1.387 . S
C410 C412 1.387 . S
H411 C418 0.950 . S
C412 C410 1.387 . S
C412 C414 1.390 . S
C412 H416 0.950 . S
H413 C409 0.950 . S
C414 C412 1.390 . S
C414 C415 1.387 . S
C414 H417 0.950 . S
C415 C414 1.387 . S
C415 C418 1.387 . S
H416 C412 0.950 . S
H417 C414 0.950 . S
C418 C409 1.390 . S
C418 H411 0.950 . S
C418 C415 1.387 . S
C419 C420 1.387 . S
C419 H423 0.950 . S
C419 C428 1.390 . S
C420 C419 1.387 . S
C420 C422 1.387 . S
H421 C428 0.950 . S
C422 C420 1.387 . S
C422 C424 1.390 . S
C422 H426 0.950 . S
H423 C419 0.950 . S
C424 C422 1.390 . S
C424 C425 1.387 . S
C424 H427 0.950 . S
C425 C424 1.387 . S
C425 C428 1.387 . S
H426 C422 0.950 . S
H427 C424 0.950 . S
C428 C419 1.390 . S
C428 H421 0.950 . S
C428 C425 1.387 . S
C429 C430 1.387 . S
C429 H433 0.950 . S
C429 C438 1.390 . S
C430 C429 1.387 . S
C430 C432 1.387 . S
H431 C438 0.950 . S
C432 C430 1.387 . S
C432 C434 1.390 . S
C432 H436 0.950 . S
H433 C429 0.950 . S
C434 C432 1.390 . S
C434 C435 1.387 . S
C434 H437 0.950 . S
C435 C434 1.387 . S
C435 C438 1.387 . S
H436 C432 0.950 . S
H437 C434 0.950 . S
C438 C429 1.390 . S
C438 H431 0.950 . S
C438 C435 1.387 . S
C439 C440 1.387 . S
C439 H443 0.950 . S
C439 C448 1.390 . S
C440 C439 1.387 . S
C440 C442 1.387 . S
H441 C448 0.950 . S
C442 C440 1.387 . S
C442 C444 1.390 . S
C442 H446 0.950 . S
H443 C439 0.950 . S
C444 C442 1.390 . S
C444 C445 1.387 . S
C444 H447 0.950 . S
C445 C444 1.387 . S
C445 C448 1.387 . S
H446 C442 0.950 . S
H447 C444 0.950 . S
C448 C439 1.390 . S
C448 H441 0.950 . S
C448 C445 1.387 . S
C449 C450 1.387 . S
C449 H453 0.950 . S
C449 C458 1.390 . S
C450 C449 1.387 . S
C450 C452 1.387 . S
H451 C458 0.950 . S
C452 C450 1.387 . S
C452 C454 1.390 . S
C452 H456 0.950 . S
H453 C449 0.950 . S
C454 C452 1.390 . S
C454 C455 1.387 . S
C454 H457 0.950 . S
C455 C454 1.387 . S
C455 C458 1.387 . S
H456 C452 0.950 . S
H457 C454 0.950 . S
C458 C449 1.390 . S
C458 H451 0.950 . S
C458 C455 1.387 . S
C459 C460 1.387 . S
C459 H463 0.950 . S
C459 C468 1.390 . S
C460 C459 1.387 . S
C460 C462 1.387 . S
H461 C468 0.950 . S
C462 C460 1.387 . S
C462 C464 1.390 . S
C462 H466 0.950 1_556 S
H463 C459 0.950 . S
C464 C462 1.390 . S
C464 C465 1.387 . S
C464 H467 0.950 . S
C465 C464 1.387 . S
C465 C468 1.387 . S
H466 C462 0.950 1_554 S
H467 C464 0.950 . S
C468 C459 1.390 . S
C468 H461 0.950 . S
C468 C465 1.387 . S
C469 C470 1.387 . S
C469 H473 0.950 . S
C469 C478 1.390 . S
C470 C469 1.387 . S
C470 C472 1.387 . S
H471 C478 0.950 . S
C472 C470 1.387 . S
C472 C474 1.390 . S
C472 H476 0.950 . S
H473 C469 0.950 . S
C474 C472 1.390 . S
C474 C475 1.387 . S
C474 H477 0.950 . S
C475 C474 1.387 . S
C475 C478 1.387 . S
H476 C472 0.950 . S
H477 C474 0.950 . S
C478 C469 1.390 . S
C478 H471 0.950 . S
C478 C475 1.387 . S
C479 C480 1.387 . S
C479 H483 0.950 . S
C479 C488 1.390 . S
C480 C479 1.387 . S
C480 C482 1.387 . S
H481 C488 0.950 . S
C482 C480 1.387 . S
C482 C484 1.390 . S
C482 H486 0.950 . S
H483 C479 0.950 . S
C484 C482 1.390 . S
C484 C485 1.387 . S
C484 H487 0.950 . S
C485 C484 1.387 . S
C485 C488 1.387 . S
H486 C482 0.950 . S
H487 C484 0.950 . S
C488 C479 1.390 . S
C488 H481 0.950 . S
C488 C485 1.387 . S
C489 C490 1.387 . S
C489 H493 0.950 . S
C489 C498 1.390 . S
C490 C489 1.387 . S
C490 C492 1.387 . S
H491 C498 0.950 . S
C492 C490 1.387 . S
C492 C494 1.390 . S
C492 H496 0.950 . S
H493 C489 0.950 . S
C494 C492 1.390 . S
C494 C495 1.387 . S
C494 H497 0.950 . S
C495 C494 1.387 . S
C495 C498 1.387 . S
H496 C492 0.950 . S
H497 C494 0.950 . S
C498 C489 1.390 . S
C498 H491 0.950 . S
C498 C495 1.387 . S
C499 C500 1.387 . S
C499 H503 0.950 . S
C499 C508 1.390 . S
C500 C499 1.387 . S
C500 C502 1.387 . S
H501 C508 0.950 . S
C502 C500 1.387 . S
C502 C504 1.390 . S
C502 H506 0.950 . S
H503 C499 0.950 . S
C504 C502 1.390 . S
C504 C505 1.387 . S
C504 H507 0.950 . S
C505 C504 1.387 . S
C505 C508 1.387 . S
H506 C502 0.950 . S
H507 C504 0.950 . S
C508 C499 1.390 . S
C508 H501 0.950 . S
C508 C505 1.387 . S
C509 C510 1.388 1_554 S
C509 H513 0.949 . S
C509 C518 1.391 1_554 S
C510 C509 1.388 1_556 S
C510 C512 1.387 . S
H511 C518 0.950 . S
C512 C510 1.387 . S
C512 C514 1.390 . S
C512 H516 0.950 . S
H513 C509 0.949 . S
C514 C512 1.390 . S
C514 C515 1.387 . S
C514 H517 0.950 . S
C515 C514 1.387 . S
C515 C518 1.387 . S
H516 C512 0.950 . S
H517 C514 0.950 . S
C518 C509 1.391 1_556 S
C518 H511 0.950 . S
C518 C515 1.387 . S
C519 C520 1.387 . S
C519 H523 0.950 . S
C519 C528 1.390 . S
C520 C519 1.387 . S
C520 C522 1.387 . S
H521 C528 0.950 . S
C522 C520 1.387 . S
C522 C524 1.390 . S
C522 H526 0.950 . S
H523 C519 0.950 . S
C524 C522 1.390 . S
C524 C525 1.387 . S
C524 H527 0.950 . S
C525 C524 1.387 . S
C525 C528 1.387 . S
H526 C522 0.950 . S
H527 C524 0.950 . S
C528 C519 1.390 . S
C528 H521 0.950 . S
C528 C525 1.387 . S
C529 C530 1.387 . S
C529 H533 0.950 . S
C529 C538 1.390 . S
C530 C529 1.387 . S
C530 C532 1.387 . S
H531 C538 0.950 . S
C532 C530 1.387 . S
C532 C534 1.390 . S
C532 H536 0.950 . S
H533 C529 0.950 . S
C534 C532 1.390 . S
C534 C535 1.387 . S
C534 H537 0.950 . S
C535 C534 1.387 . S
C535 C538 1.387 . S
H536 C532 0.950 . S
H537 C534 0.950 . S
C538 C529 1.390 . S
C538 H531 0.950 . S
C538 C535 1.387 . S
C539 C540 1.387 . S
C539 H543 0.950 . S
C539 C548 1.390 . S
C540 C539 1.387 . S
C540 C542 1.387 . S
H541 C548 0.950 . S
C542 C540 1.387 . S
C542 C544 1.390 . S
C542 H546 0.950 . S
H543 C539 0.950 . S
C544 C542 1.390 . S
C544 C545 1.387 . S
C544 H547 0.950 . S
C545 C544 1.387 . S
C545 C548 1.387 . S
H546 C542 0.950 . S
H547 C544 0.950 . S
C548 C539 1.390 . S
C548 H541 0.950 . S
C548 C545 1.387 . S
C549 C550 1.387 . S
C549 H553 0.950 . S
C549 C558 1.390 . S
C550 C549 1.387 . S
C550 C552 1.387 . S
H551 C558 0.950 . S
C552 C550 1.387 . S
C552 C554 1.390 . S
C552 H556 0.950 . S
H553 C549 0.950 . S
C554 C552 1.390 . S
C554 C555 1.387 . S
C554 H557 0.950 . S
C555 C554 1.387 . S
C555 C558 1.387 . S
H556 C552 0.950 . S
H557 C554 0.950 . S
C558 C549 1.390 . S
C558 H551 0.950 . S
C558 C555 1.387 . S
C559 C560 1.387 . S
C559 H563 0.950 . S
C559 C568 1.390 . S
C560 C559 1.387 . S
C560 C562 1.387 . S
H561 C568 0.950 . S
C562 C560 1.387 . S
C562 C564 1.390 . S
C562 H566 0.950 . S
H563 C559 0.950 . S
C564 C562 1.390 . S
C564 C565 1.387 . S
C564 H567 0.950 . S
C565 C564 1.387 . S
C565 C568 1.387 . S
H566 C562 0.950 . S
H567 C564 0.950 . S
C568 C559 1.390 . S
C568 H561 0.950 . S
C568 C565 1.387 . S
C569 C570 1.387 . S
C569 H573 0.950 . S
C569 C578 1.390 . S
C570 C569 1.387 . S
C570 C572 1.387 . S
H571 C578 0.950 . S
C572 C570 1.387 . S
C572 C574 1.390 . S
C572 H576 0.950 . S
H573 C569 0.950 . S
C574 C572 1.390 . S
C574 C575 1.387 . S
C574 H577 0.950 . S
C575 C574 1.387 . S
C575 C578 1.387 . S
H576 C572 0.950 . S
H577 C574 0.950 . S
C578 C569 1.390 . S
C578 H571 0.950 . S
C578 C575 1.387 . S
C579 C580 1.387 . S
C579 H583 0.950 . S
C579 C588 1.390 . S
C580 C579 1.387 . S
C580 C582 1.387 . S
H581 C588 0.950 . S
C582 C580 1.387 . S
C582 C584 1.390 . S
C582 H586 0.950 . S
H583 C579 0.950 . S
C584 C582 1.390 . S
C584 C585 1.387 . S
C584 H587 0.950 . S
C585 C584 1.387 . S
C585 C588 1.387 . S
H586 C582 0.950 . S
H587 C584 0.950 . S
C588 C579 1.390 . S
C588 H581 0.950 . S
C588 C585 1.387 . S
C589 C590 1.387 . S
C589 H593 0.950 . S
C589 C598 1.390 . S
C590 C589 1.387 . S
C590 C592 1.387 . S
H591 C598 0.950 . S
C592 C590 1.387 . S
C592 C594 1.390 . S
C592 H596 0.950 . S
H593 C589 0.950 . S
C594 C592 1.390 . S
C594 C595 1.387 . S
C594 H597 0.950 . S
C595 C594 1.387 . S
C595 C598 1.387 . S
H596 C592 0.950 . S
H597 C594 0.950 . S
C598 C589 1.390 . S
C598 H591 0.950 . S
C598 C595 1.387 . S
C599 C600 1.387 . S
C599 H603 0.950 . S
C599 C608 1.390 . S
C600 C599 1.387 . S
C600 C602 1.387 . S
H601 C608 0.950 . S
C602 C600 1.387 . S
C602 C604 1.390 . S
C602 H606 0.950 . S
H603 C599 0.950 . S
C604 C602 1.390 . S
C604 C605 1.387 . S
C604 H607 0.950 . S
C605 C604 1.387 . S
C605 C608 1.387 . S
H606 C602 0.950 . S
H607 C604 0.950 . S
C608 C599 1.390 . S
C608 H601 0.950 . S
C608 C605 1.387 . S
C370 C15 1.886 . S
C375 C287 1.836 . S
C380 C47 1.602 . S
C385 C334 1.568 . S
C395 C338 1.719 . S
C390 C100 1.803 . S
C405 C303 1.478 . S
C400 C146 1.534 . S
C410 C192 1.849 . S
C415 C318 1.754 . S
C425 C340 1.152 . S
C420 C245 1.194 . S
C435 C309 1.504 . S
C430 C114 1.568 . S
C440 C160 1.495 . S
C445 C349 1.473 . S
C455 C278 1.408 . S
C450 C206 1.485 . S
C460 C231 1.460 1_556 S
C465 C307 1.397 . S
C470 C1 1.893 . S
C475 C365 1.811 . S
C485 C276 1.489 . S
C480 C61 1.535 . S
C495 C294 1.839 . S
C490 C139 1.887 . S
C505 C308 1.566 . S
C500 C185 1.592 . S
C515 C362 1.721 . S
C510 C252 1.803 1_556 S
C525 C277 1.476 . S
C520 C22 1.533 . S
C535 C325 1.751 . S
C530 C54 1.828 . S
C540 C93 1.196 . S
C545 C348 1.153 . S
C555 C317 1.507 . S
C550 C238 1.570 . S
C565 C356 1.473 . S
C560 C8 1.495 . S
C575 C286 1.409 . S
C570 C68 1.504 . S
C585 C331 1.398 . S
C580 C107 1.460 . S
C590 C153 1.882 . S
C595 C339 1.809 . S
C600 C199 1.549 . S
C605 C300 1.489 . S
