# Generated by pormake.
# Topology ctn, (3,4)-cn, num edge types: 1
# Building blocks:
#     Node 0, Type 0, BuildingBlock: PAMTOO_clean_linker_0, # of connection points: 3
#     Node 1, Type 0, BuildingBlock: PAMTOO_clean_linker_0, # of connection points: 3
#     Node 2, Type 0, BuildingBlock: PAMTOO_clean_linker_0, # of connection points: 3
#     Node 3, Type 0, BuildingBlock: PAMTOO_clean_linker_0, # of connection points: 3
#     Node 4, Type 0, BuildingBlock: PAMTOO_clean_linker_0, # of connection points: 3
#     Node 5, Type 0, BuildingBlock: PAMTOO_clean_linker_0, # of connection points: 3
#     Node 6, Type 0, BuildingBlock: PAMTOO_clean_linker_0, # of connection points: 3
#     Node 7, Type 0, BuildingBlock: PAMTOO_clean_linker_0, # of connection points: 3
#     Node 8, Type 0, BuildingBlock: PAMTOO_clean_linker_0, # of connection points: 3
#     Node 9, Type 0, BuildingBlock: PAMTOO_clean_linker_0, # of connection points: 3
#     Node 10, Type 0, BuildingBlock: PAMTOO_clean_linker_0, # of connection points: 3
#     Node 11, Type 0, BuildingBlock: PAMTOO_clean_linker_0, # of connection points: 3
#     Node 12, Type 0, BuildingBlock: PAMTOO_clean_linker_0, # of connection points: 3
#     Node 13, Type 0, BuildingBlock: PAMTOO_clean_linker_0, # of connection points: 3
#     Node 14, Type 0, BuildingBlock: PAMTOO_clean_linker_0, # of connection points: 3
#     Node 15, Type 0, BuildingBlock: PAMTOO_clean_linker_0, # of connection points: 3
#     Node 16, Type 1, BuildingBlock: QUQFOY_clean_sbu_1, # of connection points: 4
#     Node 17, Type 1, BuildingBlock: QUQFOY_clean_sbu_1, # of connection points: 4
#     Node 18, Type 1, BuildingBlock: QUQFOY_clean_sbu_1, # of connection points: 4
#     Node 19, Type 1, BuildingBlock: QUQFOY_clean_sbu_1, # of connection points: 4
#     Node 20, Type 1, BuildingBlock: QUQFOY_clean_sbu_1, # of connection points: 4
#     Node 21, Type 1, BuildingBlock: QUQFOY_clean_sbu_1, # of connection points: 4
#     Node 22, Type 1, BuildingBlock: QUQFOY_clean_sbu_1, # of connection points: 4
#     Node 23, Type 1, BuildingBlock: QUQFOY_clean_sbu_1, # of connection points: 4
#     Node 24, Type 1, BuildingBlock: QUQFOY_clean_sbu_1, # of connection points: 4
#     Node 25, Type 1, BuildingBlock: QUQFOY_clean_sbu_1, # of connection points: 4
#     Node 26, Type 1, BuildingBlock: QUQFOY_clean_sbu_1, # of connection points: 4
#     Node 27, Type 1, BuildingBlock: QUQFOY_clean_sbu_1, # of connection points: 4
#     Edge 28, Type (0, 1), BuildingBlock: ZUJKAS_clean_linker_0, # of connection points: 2
#     Edge 29, Type (0, 1), BuildingBlock: ZUJKAS_clean_linker_0, # of connection points: 2
#     Edge 30, Type (0, 1), BuildingBlock: ZUJKAS_clean_linker_0, # of connection points: 2
#     Edge 31, Type (0, 1), BuildingBlock: ZUJKAS_clean_linker_0, # of connection points: 2
#     Edge 32, Type (0, 1), BuildingBlock: ZUJKAS_clean_linker_0, # of connection points: 2
#     Edge 33, Type (0, 1), BuildingBlock: ZUJKAS_clean_linker_0, # of connection points: 2
#     Edge 34, Type (0, 1), BuildingBlock: ZUJKAS_clean_linker_0, # of connection points: 2
#     Edge 35, Type (0, 1), BuildingBlock: ZUJKAS_clean_linker_0, # of connection points: 2
#     Edge 36, Type (0, 1), BuildingBlock: ZUJKAS_clean_linker_0, # of connection points: 2
#     Edge 37, Type (0, 1), BuildingBlock: ZUJKAS_clean_linker_0, # of connection points: 2
#     Edge 38, Type (0, 1), BuildingBlock: ZUJKAS_clean_linker_0, # of connection points: 2
#     Edge 39, Type (0, 1), BuildingBlock: ZUJKAS_clean_linker_0, # of connection points: 2
#     Edge 40, Type (0, 1), BuildingBlock: ZUJKAS_clean_linker_0, # of connection points: 2
#     Edge 41, Type (0, 1), BuildingBlock: ZUJKAS_clean_linker_0, # of connection points: 2
#     Edge 42, Type (0, 1), BuildingBlock: ZUJKAS_clean_linker_0, # of connection points: 2
#     Edge 43, Type (0, 1), BuildingBlock: ZUJKAS_clean_linker_0, # of connection points: 2
#     Edge 44, Type (0, 1), BuildingBlock: ZUJKAS_clean_linker_0, # of connection points: 2
#     Edge 45, Type (0, 1), BuildingBlock: ZUJKAS_clean_linker_0, # of connection points: 2
#     Edge 46, Type (0, 1), BuildingBlock: ZUJKAS_clean_linker_0, # of connection points: 2
#     Edge 47, Type (0, 1), BuildingBlock: ZUJKAS_clean_linker_0, # of connection points: 2
#     Edge 48, Type (0, 1), BuildingBlock: ZUJKAS_clean_linker_0, # of connection points: 2
#     Edge 49, Type (0, 1), BuildingBlock: ZUJKAS_clean_linker_0, # of connection points: 2
#     Edge 50, Type (0, 1), BuildingBlock: ZUJKAS_clean_linker_0, # of connection points: 2
#     Edge 51, Type (0, 1), BuildingBlock: ZUJKAS_clean_linker_0, # of connection points: 2
#     Edge 52, Type (0, 1), BuildingBlock: ZUJKAS_clean_linker_0, # of connection points: 2
#     Edge 53, Type (0, 1), BuildingBlock: ZUJKAS_clean_linker_0, # of connection points: 2
#     Edge 54, Type (0, 1), BuildingBlock: ZUJKAS_clean_linker_0, # of connection points: 2
#     Edge 55, Type (0, 1), BuildingBlock: ZUJKAS_clean_linker_0, # of connection points: 2
#     Edge 56, Type (0, 1), BuildingBlock: ZUJKAS_clean_linker_0, # of connection points: 2
#     Edge 57, Type (0, 1), BuildingBlock: ZUJKAS_clean_linker_0, # of connection points: 2
#     Edge 58, Type (0, 1), BuildingBlock: ZUJKAS_clean_linker_0, # of connection points: 2
#     Edge 59, Type (0, 1), BuildingBlock: ZUJKAS_clean_linker_0, # of connection points: 2
#     Edge 60, Type (0, 1), BuildingBlock: ZUJKAS_clean_linker_0, # of connection points: 2
#     Edge 61, Type (0, 1), BuildingBlock: ZUJKAS_clean_linker_0, # of connection points: 2
#     Edge 62, Type (0, 1), BuildingBlock: ZUJKAS_clean_linker_0, # of connection points: 2
#     Edge 63, Type (0, 1), BuildingBlock: ZUJKAS_clean_linker_0, # of connection points: 2
#     Edge 64, Type (0, 1), BuildingBlock: ZUJKAS_clean_linker_0, # of connection points: 2
#     Edge 65, Type (0, 1), BuildingBlock: ZUJKAS_clean_linker_0, # of connection points: 2
#     Edge 66, Type (0, 1), BuildingBlock: ZUJKAS_clean_linker_0, # of connection points: 2
#     Edge 67, Type (0, 1), BuildingBlock: ZUJKAS_clean_linker_0, # of connection points: 2
#     Edge 68, Type (0, 1), BuildingBlock: ZUJKAS_clean_linker_0, # of connection points: 2
#     Edge 69, Type (0, 1), BuildingBlock: ZUJKAS_clean_linker_0, # of connection points: 2
#     Edge 70, Type (0, 1), BuildingBlock: ZUJKAS_clean_linker_0, # of connection points: 2
#     Edge 71, Type (0, 1), BuildingBlock: ZUJKAS_clean_linker_0, # of connection points: 2
#     Edge 72, Type (0, 1), BuildingBlock: ZUJKAS_clean_linker_0, # of connection points: 2
#     Edge 73, Type (0, 1), BuildingBlock: ZUJKAS_clean_linker_0, # of connection points: 2
#     Edge 74, Type (0, 1), BuildingBlock: ZUJKAS_clean_linker_0, # of connection points: 2
#     Edge 75, Type (0, 1), BuildingBlock: ZUJKAS_clean_linker_0, # of connection points: 2
# Relax obj value: 0.090
# Max RMSD: 0.207
# Mean RMSD: 0.146
data_MOF--net-ctn--node1-QUQFOY_clean_sbu_1--node2-PAMTOO_clean_linker_0--edge1-ZUJKAS_clean_linker_0
_symmetry_space_group_name_H-M    P1
_symmetry_Int_Tables_number       1
_symmetry_cell_setting            triclinic
loop_
_symmetry_equiv_pos_as_xyz
'x, y, z'
_cell_length_a     70.169204
_cell_length_b     70.193507
_cell_length_c     71.395883
_cell_angle_alpha  87.817421
_cell_angle_beta   92.759582
_cell_angle_gamma 102.18331
loop_
_atom_site_label
_atom_site_type_symbol
_atom_site_fract_x
_atom_site_fract_y
_atom_site_fract_z
_atom_type_partial_charge
H0 H 0.04496 0.13036 0.06833 0.0
H1 H 0.0684 0.08227 0.0918 0.0
H2 H 0.08282 0.10435 0.03638 0.0
H3 H 0.07037 0.06196 0.04097 0.0
C4 C 0.07717 0.05984 0.0551 0.0
O5 O 0.08666 0.07761 0.06197 0.0
H6 H 0.06532 0.053 0.06458 0.0
C7 C 0.05417 0.11988 0.06729 0.0
C8 C 0.06401 0.11934 0.05068 0.0
C9 C 0.05547 0.10654 0.08224 0.0
C10 C 0.0672 0.0928 0.08055 0.0
C11 C 0.07694 0.09203 0.06403 0.0
C12 C 0.07556 0.10541 0.04924 0.0
H13 H 0.29313 0.71878 0.25139 0.0
H14 H 0.25028 0.73836 0.21456 0.0
H15 H 0.3036 0.77797 0.22953 0.0
H16 H 0.26923 0.79556 0.22882 0.0
C17 C 0.26002 0.78651 0.21796 0.0
O18 O 0.27028 0.77395 0.21072 0.0
H19 H 0.24671 0.7781 0.22468 0.0
C20 C 0.28863 0.73008 0.24259 0.0
C21 C 0.3008 0.74874 0.24155 0.0
C22 C 0.27034 0.7261 0.23295 0.0
C23 C 0.26423 0.7411 0.22227 0.0
C24 C 0.27617 0.75974 0.22126 0.0
C25 C 0.29442 0.76352 0.23074 0.0
H26 H 0.93951 0.4985 0.09323 0.0
H27 H 0.90862 0.47752 0.04196 0.0
H28 H 0.95128 0.44806 0.06695 0.0
H29 H 0.94995 0.4681 0.02413 0.0
C30 C 0.93689 0.45619 0.02159 0.0
O31 O 0.92762 0.45002 0.03804 0.0
H32 H 0.92673 0.46228 0.01181 0.0
C33 C 0.93633 0.48781 0.08235 0.0
C34 C 0.94674 0.47268 0.08235 0.0
C35 C 0.92266 0.48989 0.06774 0.0
C36 C 0.91914 0.47634 0.05333 0.0
C37 C 0.92975 0.46164 0.05296 0.0
C38 C 0.94335 0.45969 0.06745 0.0
H39 H 0.71155 0.84285 0.25787 0.0
H40 H 0.69865 0.78285 0.24145 0.0
H41 H 0.74344 0.82422 0.21448 0.0
H42 H 0.71233 0.79841 0.19088 0.0
C43 C 0.71331 0.7845 0.19852 0.0
O44 O 0.72396 0.78818 0.21522 0.0
H45 H 0.69825 0.77658 0.20157 0.0
C46 C 0.71455 0.83132 0.24955 0.0
C47 C 0.72914 0.83584 0.23631 0.0
C48 C 0.70334 0.81227 0.2516 0.0
C49 C 0.70693 0.79769 0.24011 0.0
C50 C 0.72116 0.80214 0.22665 0.0
C51 C 0.73229 0.8211 0.22481 0.0
H52 H 0.09344 0.97095 0.47466 0.0
H53 H 0.03457 0.95709 0.45118 0.0
H54 H 0.07426 0.00801 0.43151 0.0
H55 H 0.03588 0.01301 0.44149 0.0
C56 C 0.02678 0.99937 0.43572 0.0
O57 O 0.03853 0.9879 0.42906 0.0
H58 H 0.01805 0.99142 0.4473 0.0
C59 C 0.08223 0.97403 0.46473 0.0
C60 C 0.08636 0.9907 0.45286 0.0
C61 C 0.06358 0.96178 0.46441 0.0
C62 C 0.04909 0.96622 0.45171 0.0
C63 C 0.05302 0.98287 0.43999 0.0
C64 C 0.07163 0.99492 0.44037 0.0
H65 H 0.20121 0.79028 0.79873 0.0
H66 H 0.22523 0.75693 0.76007 0.0
H67 H 0.25045 0.76518 0.81583 0.0
H68 H 0.27893 0.76832 0.78706 0.0
C69 C 0.27077 0.75743 0.77707 0.0
O70 O 0.25254 0.74947 0.7836 0.0
H71 H 0.26923 0.76496 0.76325 0.0
C72 C 0.21171 0.78162 0.79566 0.0
C73 C 0.22569 0.77859 0.80956 0.0
C74 C 0.21125 0.77384 0.77777 0.0
C75 C 0.22544 0.76334 0.77366 0.0
C76 C 0.2396 0.76042 0.78735 0.0
C77 C 0.23968 0.76795 0.80526 0.0
H78 H 0.93999 0.59174 0.49827 0.0
H79 H 0.95833 0.56701 0.44965 0.0
H80 H 0.99582 0.61613 0.4753 0.0
H81 H 0.99954 0.61741 0.43277 0.0
C82 C 0.99113 0.60224 0.43101 0.0
O83 O 0.99151 0.59196 0.44782 0.0
H84 H 0.9759 0.60302 0.4264 0.0
C85 C 0.9509 0.59144 0.48811 0.0
C86 C 0.96846 0.60543 0.48879 0.0
C87 C 0.94703 0.57744 0.47412 0.0
C88 C 0.96089 0.57773 0.46052 0.0
C89 C 0.97829 0.5918 0.46093 0.0
C90 C 0.98212 0.60555 0.47503 0.0
H91 H 0.76673 0.83156 0.83729 0.0
H92 H 0.81467 0.81452 0.81147 0.0
H93 H 0.78136 0.85057 0.78071 0.0
H94 H 0.79556 0.82478 0.75458 0.0
C95 C 0.8049 0.81904 0.76549 0.0
O96 O 0.80995 0.83235 0.77953 0.0
H97 H 0.79635 0.80491 0.77106 0.0
C98 C 0.77595 0.83202 0.82547 0.0
C99 C 0.77215 0.84242 0.80896 0.0
C100 C 0.79125 0.82183 0.82663 0.0
C101 C 0.80265 0.82203 0.81093 0.0
C102 C 0.79884 0.83219 0.79445 0.0
C103 C 0.78377 0.84243 0.79349 0.0
H104 H 0.26662 0.33253 0.33763 0.0
H105 H 0.31346 0.31516 0.31029 0.0
H106 H 0.28087 0.35305 0.28129 0.0
H107 H 0.29479 0.32822 0.2539 0.0
C108 C 0.30371 0.32175 0.26467 0.0
O109 O 0.30912 0.33454 0.27911 0.0
H110 H 0.2946 0.30772 0.26981 0.0
C111 C 0.27546 0.33299 0.32552 0.0
C112 C 0.27169 0.34398 0.30938 0.0
C113 C 0.2906 0.32261 0.3261 0.0
C114 C 0.30192 0.32327 0.3103 0.0
C115 C 0.2982 0.33408 0.29422 0.0
C116 C 0.28327 0.34448 0.29379 0.0
H117 H 0.43052 0.99286 0.60181 0.0
H118 H 0.41562 0.9816 0.54342 0.0
H119 H 0.45447 0.95075 0.57324 0.0
H120 H 0.46339 0.97233 0.53513 0.0
C121 C 0.45012 0.96334 0.52816 0.0
O122 O 0.43657 0.95539 0.54121 0.0
H123 H 0.44372 0.97309 0.51821 0.0
C124 C 0.43181 0.98511 0.58925 0.0
C125 C 0.44378 0.9713 0.58975 0.0
C126 C 0.42159 0.98911 0.57262 0.0
C127 C 0.42292 0.97855 0.55656 0.0
C128 C 0.43462 0.9647 0.55697 0.0
C129 C 0.44497 0.96107 0.57346 0.0
H130 H 0.20998 0.34817 0.74986 0.0
H131 H 0.19358 0.28836 0.73336 0.0
H132 H 0.24003 0.32751 0.70616 0.0
H133 H 0.20793 0.30247 0.68319 0.0
C134 C 0.20845 0.28848 0.6909 0.0
O135 O 0.2193 0.29194 0.70752 0.0
H136 H 0.19325 0.28113 0.69409 0.0
C137 C 0.21183 0.33655 0.741 0.0
C138 C 0.22641 0.34025 0.72773 0.0
C139 C 0.19987 0.31791 0.74322 0.0
C140 C 0.20284 0.30277 0.73214 0.0
C141 C 0.21725 0.30632 0.7188 0.0
C142 C 0.22909 0.32495 0.7167 0.0
H143 H 0.79715 0.21561 0.74412 0.0
H144 H 0.75322 0.23496 0.70851 0.0
H145 H 0.80635 0.27508 0.72321 0.0
H146 H 0.7715 0.29193 0.7226 0.0
C147 C 0.76253 0.28299 0.71152 0.0
O148 O 0.77301 0.27062 0.70431 0.0
H149 H 0.74913 0.27442 0.71796 0.0
C150 C 0.79213 0.22701 0.73589 0.0
C151 C 0.80403 0.2458 0.73495 0.0
C152 C 0.77375 0.22284 0.72644 0.0
C153 C 0.76738 0.23775 0.71582 0.0
C154 C 0.77911 0.25651 0.71483 0.0
C155 C 0.79736 0.26052 0.72431 0.0
H156 H 0.54372 0.63242 0.57041 0.0
H157 H 0.57013 0.58826 0.59816 0.0
H158 H 0.58136 0.60417 0.54058 0.0
H159 H 0.567 0.56155 0.55274 0.0
C160 C 0.57772 0.56169 0.5648 0.0
O161 O 0.58712 0.58057 0.56855 0.0
H162 H 0.56945 0.55511 0.57719 0.0
C163 C 0.55332 0.6222 0.5703 0.0
C164 C 0.56259 0.62012 0.5537 0.0
C165 C 0.55575 0.61076 0.58648 0.0
C166 C 0.568 0.59733 0.58594 0.0
C167 C 0.57701 0.59488 0.56938 0.0
C168 C 0.57454 0.60642 0.55338 0.0
H169 H 0.59713 0.47319 0.97672 0.0
H170 H 0.54071 0.45498 0.94882 0.0
H171 H 0.57878 0.50789 0.93105 0.0
H172 H 0.53765 0.50842 0.93947 0.0
C173 C 0.53047 0.49516 0.93169 0.0
O174 O 0.54434 0.48543 0.9262 0.0
H175 H 0.52038 0.48555 0.9413 0.0
C176 C 0.58645 0.47531 0.9658 0.0
C177 C 0.59042 0.49191 0.95382 0.0
C178 C 0.56853 0.46189 0.96428 0.0
C179 C 0.55468 0.46504 0.95026 0.0
C180 C 0.55843 0.48162 0.93841 0.0
C181 C 0.57631 0.49488 0.94003 0.0
H182 H 0.6985 0.28948 0.29683 0.0
H183 H 0.72306 0.2561 0.25863 0.0
H184 H 0.74812 0.26509 0.31438 0.0
H185 H 0.77621 0.2687 0.28295 0.0
C186 C 0.76773 0.25678 0.2742 0.0
O187 O 0.75031 0.24892 0.28243 0.0
H188 H 0.76485 0.26295 0.26002 0.0
C189 C 0.70935 0.28121 0.29381 0.0
C190 C 0.72326 0.27831 0.30785 0.0
C191 C 0.70909 0.27333 0.27598 0.0
C192 C 0.72303 0.26241 0.27225 0.0
C193 C 0.7372 0.25974 0.28602 0.0
C194 C 0.73733 0.26766 0.30374 0.0
H195 H 0.43461 0.09778 0.98768 0.0
H196 H 0.45731 0.07157 0.94251 0.0
H197 H 0.49093 0.12383 0.96644 0.0
H198 H 0.49608 0.12221 0.9239 0.0
C199 C 0.48925 0.10644 0.9231 0.0
O200 O 0.48962 0.09799 0.94084 0.0
H201 H 0.47398 0.10505 0.91738 0.0
C202 C 0.44608 0.09784 0.97802 0.0
C203 C 0.46305 0.1126 0.97884 0.0
C204 C 0.44386 0.08296 0.96502 0.0
C205 C 0.45877 0.08296 0.95263 0.0
C206 C 0.47547 0.09793 0.95298 0.0
C207 C 0.47766 0.11265 0.96606 0.0
O208 O 0.23942 0.8812 0.99083 0.0
Cd209 Cd 0.24931 0.89972 0.01246 0.0
Cd210 Cd 0.2281 0.9224 0.99383 0.0
O211 O 0.22072 0.89909 0.97618 0.0
O212 O 0.25965 0.88338 0.03208 0.0
O213 O 0.23488 0.89748 0.03641 0.0
C214 C 0.24654 0.88658 0.04289 0.0
C215 C 0.20405 0.93645 0.00555 0.0
C216 C 0.22765 0.88373 0.97734 0.0
C217 C 0.27124 0.93803 0.99754 0.0
O218 O 0.25492 0.94074 0.99074 0.0
O219 O 0.27219 0.92263 0.00716 0.0
O220 O 0.20871 0.93898 0.98824 0.0
O221 O 0.21275 0.92535 0.01622 0.0
O222 O 0.1476 0.52948 0.28051 0.0
Cd223 Cd 0.12928 0.50465 0.29038 0.0
Cd224 Cd 0.10435 0.51353 0.26127 0.0
O225 O 0.12851 0.53532 0.25649 0.0
O226 O 0.14621 0.49092 0.30654 0.0
O227 O 0.13094 0.47866 0.28044 0.0
C228 C 0.14257 0.47704 0.29474 0.0
C229 C 0.0858 0.50207 0.2343 0.0
C230 C 0.14445 0.53972 0.26609 0.0
C231 C 0.09149 0.5131 0.30134 0.0
O232 O 0.08796 0.51582 0.28394 0.0
O233 O 0.10721 0.50812 0.30704 0.0
O234 O 0.08651 0.51922 0.24038 0.0
O235 O 0.09585 0.49114 0.24354 0.0
O236 O 0.78916 0.69724 0.99803 0.0
Cd237 Cd 0.77759 0.6763 0.01776 0.0
Cd238 Cd 0.80243 0.65723 0.00178 0.0
O239 O 0.81068 0.68272 0.98626 0.0
O240 O 0.76149 0.69026 0.03211 0.0
O241 O 0.7865 0.67936 0.04505 0.0
C242 C 0.77247 0.68841 0.04674 0.0
C243 C 0.82517 0.64216 0.01773 0.0
C244 C 0.80258 0.69726 0.9867 0.0
C245 C 0.76006 0.63891 0.99828 0.0
O246 O 0.77708 0.63859 0.99322 0.0
O247 O 0.75736 0.65228 0.00873 0.0
O248 O 0.82313 0.64218 -0.00032 0.0
O249 O 0.81478 0.65157 0.02683 0.0
O250 O 0.9053 0.04693 0.26854 0.0
Cd251 Cd 0.89085 0.05098 0.24339 0.0
Cd252 Cd 0.86545 0.06077 0.26765 0.0
O253 O 0.88566 0.05574 0.28816 0.0
O254 O 0.90997 0.04636 0.2254 0.0
O255 O 0.90145 0.07474 0.22706 0.0
C256 C 0.91197 0.06423 0.21965 0.0
C257 C 0.85537 0.09033 0.26706 0.0
C258 C 0.90108 0.04976 0.28516 0.0
C259 C 0.85 0.02647 0.24343 0.0
O260 O 0.84662 0.03684 0.25659 0.0
O261 O 0.86647 0.03022 0.23591 0.0
O262 O 0.84886 0.07654 0.27903 0.0
O263 O 0.86781 0.08733 0.2553 0.0
O264 O 0.28531 0.19425 0.4939 0.0
Cd265 Cd 0.27328 0.17357 0.51367 0.0
Cd266 Cd 0.29915 0.15442 0.49882 0.0
O267 O 0.3079 0.1801 0.48367 0.0
O268 O 0.25642 0.1875 0.52712 0.0
O269 O 0.28125 0.17717 0.54114 0.0
C270 C 0.26696 0.18601 0.54213 0.0
C271 C 0.32174 0.13888 0.51447 0.0
C272 C 0.29942 0.19442 0.48334 0.0
C273 C 0.25674 0.13605 0.49413 0.0
O274 O 0.27398 0.1359 0.48961 0.0
O275 O 0.25354 0.14933 0.5044 0.0
O276 O 0.31967 0.13919 0.49643 0.0
O277 O 0.31147 0.14826 0.52375 0.0
O278 O 0.40759 0.54529 0.76541 0.0
Cd279 Cd 0.39166 0.55218 0.74209 0.0
Cd280 Cd 0.36942 0.56181 0.76822 0.0
O281 O 0.39145 0.55664 0.78663 0.0
O282 O 0.40875 0.55038 0.72118 0.0
O283 O 0.40112 0.57805 0.72865 0.0
C284 C 0.41056 0.56887 0.71825 0.0
C285 C 0.35962 0.59145 0.76876 0.0
C286 C 0.40545 0.54896 0.78237 0.0
C287 C 0.35093 0.52843 0.74412 0.0
O288 O 0.34936 0.53792 0.75858 0.0
O289 O 0.3663 0.53272 0.73481 0.0
O290 O 0.35468 0.57805 0.78153 0.0
O291 O 0.37039 0.58805 0.7556 0.0
O292 O 0.73459 0.38374 0.48736 0.0
Cd293 Cd 0.74439 0.40248 0.50892 0.0
Cd294 Cd 0.72326 0.42468 0.48929 0.0
O295 O 0.71549 0.40094 0.47227 0.0
O296 O 0.75632 0.38634 0.52761 0.0
O297 O 0.73114 0.39911 0.53367 0.0
C298 C 0.74362 0.38873 0.53924 0.0
C299 C 0.70005 0.43907 0.50207 0.0
C300 C 0.7227 0.38576 0.47381 0.0
C301 C 0.76619 0.44051 0.49285 0.0
O302 O 0.75002 0.44275 0.4853 0.0
O303 O 0.76695 0.42569 0.50342 0.0
O304 O 0.70385 0.44138 0.48452 0.0
O305 O 0.709 0.42785 0.51233 0.0
O306 O 0.65192 0.02876 0.77653 0.0
Cd307 Cd 0.63284 0.00504 0.78762 0.0
Cd308 Cd 0.60903 0.01314 0.75847 0.0
O309 O 0.63434 0.03176 0.7506 0.0
O310 O 0.64915 0.99087 0.80399 0.0
O311 O 0.63291 0.97838 0.77839 0.0
C312 C 0.64465 0.97666 0.79258 0.0
C313 C 0.58786 0.9987 0.73428 0.0
C314 C 0.64991 0.03695 0.7606 0.0
C315 C 0.59742 0.01805 0.79805 0.0
O316 O 0.59471 0.02097 0.78055 0.0
O317 O 0.61148 0.01045 0.80415 0.0
O318 O 0.59092 0.01708 0.73722 0.0
O319 O 0.59727 0.98825 0.74494 0.0
O320 O 0.98771 0.29508 0.91376 0.0
Cd321 Cd 0.99189 0.27304 0.89714 0.0
Cd322 Cd 0.00992 0.30274 0.87623 0.0
O323 O 0.00642 0.31931 0.89853 0.0
O324 O 0.98748 0.2492 0.91364 0.0
O325 O 0.01606 0.26219 0.90184 0.0
C326 C 0.0057 0.24897 0.91235 0.0
C327 C 0.04026 0.30478 0.86369 0.0
C328 C 0.99565 0.31306 0.9122 0.0
C329 C 0.97341 0.27823 0.85942 0.0
O330 O 0.98618 0.29397 0.85814 0.0
O331 O 0.97369 0.26682 0.87363 0.0
O332 O 0.03062 0.31841 0.86063 0.0
O333 O 0.0329 0.29019 0.87453 0.0
O334 O 0.48892 0.79819 0.4173 0.0
Cd335 Cd 0.49137 0.77527 0.40096 0.0
Cd336 Cd 0.51021 0.80377 0.37903 0.0
O337 O 0.50797 0.82126 0.40102 0.0
O338 O 0.48617 0.75168 0.4178 0.0
O339 O 0.5147 0.76302 0.40521 0.0
C340 C 0.50405 0.75036 0.41603 0.0
C341 C 0.54026 0.80393 0.36662 0.0
C342 C 0.49751 0.81592 0.41509 0.0
C343 C 0.47251 0.78051 0.36332 0.0
O344 O 0.486 0.7956 0.36135 0.0
O345 O 0.47247 0.76952 0.37788 0.0
O346 O 0.53147 0.81818 0.36325 0.0
O347 O 0.53214 0.78973 0.37752 0.0
O348 O 0.9828 0.78263 0.67445 0.0
Cd349 Cd 0.00434 0.77497 0.65944 0.0
Cd350 Cd 0.99061 0.79626 0.63149 0.0
O351 O 0.97259 0.80089 0.65194 0.0
O352 O 0.02229 0.76555 0.67812 0.0
O353 O 0.03147 0.79154 0.65954 0.0
C354 C 0.03591 0.77966 0.67249 0.0
C355 C 0.00492 0.82254 0.61249 0.0
C356 C 0.97144 0.79366 0.66852 0.0
C357 C 0.98868 0.75411 0.62435 0.0
O358 O 0.98449 0.77003 0.61834 0.0
O359 O 0.99685 0.75296 0.64049 0.0
O360 O 0.98649 0.81516 0.61117 0.0
O361 O 0.01536 0.81529 0.62514 0.0
O362 O 0.47875 0.28101 0.17183 0.0
Cd363 Cd 0.50051 0.27369 0.15688 0.0
Cd364 Cd 0.4889 0.29807 0.13033 0.0
O365 O 0.47102 0.30243 0.15102 0.0
O366 O 0.51747 0.26264 0.17543 0.0
O367 O 0.52783 0.28973 0.15864 0.0
C368 C 0.53148 0.27698 0.17109 0.0
C369 C 0.50433 0.32467 0.11228 0.0
C370 C 0.46865 0.29351 0.16682 0.0
C371 C 0.48523 0.25626 0.12022 0.0
O372 O 0.48164 0.27282 0.11561 0.0
O373 O 0.49317 0.25347 0.13616 0.0
O374 O 0.48574 0.31821 0.1109 0.0
O375 O 0.51428 0.31644 0.12461 0.0
H376 H 0.19393 0.7779 0.83043 0.0
H377 H 0.19293 0.79369 0.86018 0.0
H378 H 0.25559 0.81239 0.86165 0.0
H379 H 0.25668 0.79711 0.83152 0.0
H380 H 0.21055 0.789 0.89569 0.0
H381 H 0.23609 0.86341 0.86494 0.0
H382 H 0.22792 0.8423 0.85071 0.0
H383 H 0.25197 0.84691 0.86171 0.0
C384 C 0.20751 0.78543 0.83705 0.0
C385 C 0.22537 0.78653 0.82849 0.0
C386 C 0.20691 0.7943 0.85411 0.0
C387 C 0.22414 0.80447 0.86292 0.0
C388 C 0.2421 0.80489 0.85487 0.0
H389 H 0.24193 0.85068 0.97427 0.0
H390 H 0.23914 0.8302 0.94701 0.0
C391 C 0.24272 0.79601 0.83777 0.0
C392 C 0.22316 0.81518 0.88018 0.0
H393 H 0.23275 0.86086 0.89782 0.0
C394 C 0.21538 0.80471 0.89619 0.0
C395 C 0.22911 0.8357 0.88063 0.0
C396 C 0.23658 0.84781 0.86355 0.0
C397 C 0.21375 0.81423 0.91281 0.0
C398 C 0.22031 0.83469 0.91343 0.0
C399 C 0.22778 0.84516 0.89731 0.0
C400 C 0.22007 0.84562 0.93071 0.0
C401 C 0.20477 0.80236 0.92943 0.0
C402 C 0.21023 0.86108 0.93062 0.0
C403 C 0.21191 0.87295 0.94615 0.0
C404 C 0.22357 0.86962 0.96201 0.0
C405 C 0.23278 0.85363 0.96231 0.0
C406 C 0.23112 0.84181 0.94677 0.0
H407 H 0.19555 0.78819 0.92512 0.0
H408 H 0.21658 0.79922 0.93922 0.0
H409 H 0.19573 0.81042 0.93712 0.0
H410 H 0.20167 0.86429 0.91832 0.0
H411 H 0.20462 0.88512 0.94544 0.0
H412 H 0.02855 0.61074 0.41909 0.0
H413 H 0.04303 0.59303 0.39652 0.0
H414 H 0.98783 0.55274 0.38856 0.0
H415 H 0.97335 0.57039 0.41129 0.0
H416 H 0.02036 0.53483 0.39438 0.0
H417 H 0.03267 0.59341 0.33913 0.0
H418 H 0.0425 0.6011 0.36196 0.0
H419 H 0.01655 0.5934 0.3581 0.0
C420 C 0.0195 0.59826 0.41231 0.0
C421 C -0.00023 0.59214 0.41647 0.0
C422 C 0.02774 0.58818 0.39946 0.0
C423 C 0.01638 0.57181 0.39067 0.0
C424 C 0.99675 0.56546 0.39509 0.0
H425 H 0.05566 0.52177 0.29403 0.0
H426 H 0.03537 0.53339 0.31601 0.0
C427 C 0.9885 0.57556 0.40792 0.0
C428 C 0.02515 0.56112 0.37714 0.0
H429 H 0.04806 0.56672 0.33564 0.0
C430 C 0.02629 0.54171 0.38145 0.0
C431 C 0.03261 0.57009 0.3602 0.0
C432 C 0.03089 0.59059 0.35443 0.0
C433 C 0.03528 0.53118 0.36949 0.0
C434 C 0.0435 0.54045 0.35295 0.0
C435 C 0.04183 0.55968 0.3484 0.0
C436 C 0.05439 0.53081 0.34031 0.0
C437 C 0.03585 0.51025 0.3746 0.0
C438 C 0.07163 0.52515 0.34678 0.0
C439 C 0.08326 0.51842 0.33426 0.0
C440 C 0.07793 0.51746 0.31502 0.0
C441 C 0.06024 0.52241 0.30874 0.0
C442 C 0.04861 0.52906 0.32127 0.0
H443 H 0.02431 0.50375 0.38447 0.0
H444 H 0.03401 0.50125 0.36192 0.0
H445 H 0.05019 0.50965 0.38158 0.0
H446 H 0.07655 0.52675 0.36136 0.0
H447 H 0.09682 0.5148 0.33954 0.0
H448 H 0.80124 0.78612 0.83003 0.0
H449 H 0.80716 0.76801 0.85893 0.0
H450 H 0.79586 0.81444 0.8917 0.0
H451 H 0.79043 0.83296 0.8629 0.0
H452 H 0.83517 0.7825 0.8926 0.0
H453 H 0.75599 0.76164 0.90691 0.0
H454 H 0.76459 0.76876 0.88372 0.0
H455 H 0.76593 0.78684 0.90108 0.0
C456 C 0.80031 0.79264 0.84336 0.0
C457 C 0.79527 0.81096 0.84414 0.0
C458 C 0.80364 0.78225 0.85984 0.0
C459 C 0.80185 0.78991 0.87735 0.0
C460 C 0.79716 0.80828 0.87825 0.0
H461 H 0.7935 0.73315 0.98741 0.0
H462 H 0.79632 0.75775 0.96201 0.0
C463 C 0.79393 0.81875 0.86179 0.0
C464 C 0.80405 0.77827 0.89466 0.0
H465 H 0.77777 0.75097 0.92881 0.0
C466 C 0.82268 0.77563 0.90062 0.0
C467 C 0.7877 0.76947 0.90501 0.0
C468 C 0.76736 0.77165 0.8989 0.0
C469 C 0.8254 0.76437 0.91683 0.0
C470 C 0.80897 0.7552 0.927 0.0
C471 C 0.79038 0.75807 0.92107 0.0
C472 C 0.81036 0.74187 0.94339 0.0
C473 C 0.84584 0.76264 0.92302 0.0
C474 C 0.81779 0.72499 0.94155 0.0
C475 C 0.8164 0.71098 0.95615 0.0
C476 C 0.80721 0.71345 0.97269 0.0
C477 C 0.80057 0.73076 0.9748 0.0
C478 C 0.80216 0.74484 0.9603 0.0
H479 H 0.85685 0.77519 0.91767 0.0
H480 H 0.84759 0.76176 0.93855 0.0
H481 H 0.84896 0.74918 0.9173 0.0
H482 H 0.82376 0.72214 0.92849 0.0
H483 H 0.82152 0.69774 0.95403 0.0
H484 H 0.98843 0.98255 0.42788 0.0
H485 H 0.9669 0.99135 0.40239 0.0
H486 H 0.01425 0.03607 0.38253 0.0
H487 H 0.03572 0.02747 0.40823 0.0
H488 H 0.97938 0.04884 0.38501 0.0
H489 H 0.96795 0.97966 0.34679 0.0
H490 H 0.96232 0.97654 0.37113 0.0
H491 H 0.98703 0.98617 0.3647 0.0
C492 C 0.99417 0.99426 0.41805 0.0
C493 C 0.01358 0.00454 0.42005 0.0
C494 C 0.98194 0.99918 0.40347 0.0
C495 C 0.98905 0.01425 0.39051 0.0
C496 C 0.00851 0.02442 0.39241 0.0
H497 H 0.93605 0.03892 0.2833 0.0
H498 H 0.95727 0.03114 0.30924 0.0
C499 C 0.02072 0.01952 0.40702 0.0
C500 C 0.97611 0.01967 0.37515 0.0
H501 H 0.94838 0.00209 0.33653 0.0
C502 C 0.97261 0.03865 0.37438 0.0
C503 C 0.9675 0.00638 0.36122 0.0
C504 C 0.9715 0.9861 0.36083 0.0
C505 C 0.96055 0.04467 0.3601 0.0
C506 C 0.95154 0.03123 0.34645 0.0
C507 C 0.95517 0.0123 0.34714 0.0
C508 C 0.93878 0.03664 0.33092 0.0
C509 C 0.95789 0.06547 0.35952 0.0
C510 C 0.92131 0.0423 0.33453 0.0
C511 C 0.90913 0.04686 0.3197 0.0
C512 C 0.91416 0.04565 0.30101 0.0
C513 C 0.93171 0.04 0.2975 0.0
C514 C 0.94386 0.03552 0.31231 0.0
H515 H 0.96941 0.07505 0.36809 0.0
H516 H 0.95808 0.07146 0.34489 0.0
H517 H 0.94356 0.0659 0.36523 0.0
H518 H 0.91696 0.04291 0.34881 0.0
H519 H 0.89567 0.05105 0.32288 0.0
H520 H 0.24571 0.29598 0.67872 0.0
H521 H 0.25967 0.27747 0.65638 0.0
H522 H 0.2051 0.23552 0.65244 0.0
H523 H 0.19129 0.25374 0.67501 0.0
H524 H 0.23798 0.21839 0.65393 0.0
H525 H 0.24394 0.27889 0.60047 0.0
H526 H 0.25652 0.28527 0.62259 0.0
H527 H 0.23035 0.27828 0.62137 0.0
C528 C 0.23686 0.28265 0.67325 0.0
C529 C 0.21748 0.27622 0.67856 0.0
C530 C 0.24477 0.27217 0.66045 0.0
C531 C 0.23333 0.25527 0.6526 0.0
C532 C 0.21417 0.24852 0.65836 0.0
H533 H 0.23621 0.20256 0.54819 0.0
H534 H 0.22985 0.21854 0.57621 0.0
C535 C 0.20629 0.25894 0.67119 0.0
C536 C 0.24079 0.24517 0.63758 0.0
H537 H 0.25449 0.25085 0.59215 0.0
C538 C 0.24177 0.22549 0.64046 0.0
C539 C 0.24551 0.25447 0.61998 0.0
C540 C 0.2439 0.27534 0.61577 0.0
C541 C 0.24703 0.21475 0.62606 0.0
C542 C 0.25163 0.22404 0.60845 0.0
C543 C 0.25106 0.24382 0.60573 0.0
C544 C 0.25536 0.21323 0.59206 0.0
C545 C 0.24686 0.19338 0.62952 0.0
C546 C 0.27179 0.20479 0.59173 0.0
C547 C 0.27547 0.19551 0.57565 0.0
C548 C 0.26283 0.1947 0.55966 0.0
C549 C 0.24629 0.20296 0.56022 0.0
C550 C 0.24262 0.21213 0.57623 0.0
H551 H 0.23963 0.18764 0.64268 0.0
H552 H 0.23926 0.1847 0.61764 0.0
H553 H 0.2621 0.19124 0.63065 0.0
H554 H 0.28196 0.20573 0.60373 0.0
H555 H 0.28837 0.18934 0.5756 0.0
H556 H 0.54625 0.64303 0.60135 0.0
H557 H 0.52316 0.64351 0.62592 0.0
H558 H 0.51596 0.5813 0.63417 0.0
H559 H 0.53821 0.58045 0.60919 0.0
H560 H 0.48236 0.61866 0.62358 0.0
H561 H 0.52558 0.60576 0.68827 0.0
H562 H 0.53672 0.61639 0.66693 0.0
H563 H 0.52747 0.59055 0.66902 0.0
C564 C 0.5398 0.62944 0.60841 0.0
C565 C 0.54405 0.61167 0.60317 0.0
C566 C 0.52674 0.62979 0.62252 0.0
C567 C 0.51803 0.61247 0.63188 0.0
C568 C 0.5228 0.59487 0.62726 0.0
H569 H 0.42345 0.55297 0.68857 0.0
H570 H 0.44903 0.56842 0.66756 0.0
C571 C 0.53563 0.59444 0.61302 0.0
C572 C 0.50262 0.61223 0.64532 0.0
H573 H 0.49077 0.59871 0.69037 0.0
C574 C 0.48428 0.6148 0.6383 0.0
C575 C 0.50525 0.60724 0.66448 0.0
C576 C 0.52486 0.60497 0.67273 0.0
C577 C 0.46811 0.61112 0.64974 0.0
C578 C 0.47049 0.60487 0.66855 0.0
C579 C 0.48908 0.60357 0.6759 0.0
C580 C 0.45353 0.59674 0.67993 0.0
C581 C 0.44835 0.61281 0.64147 0.0
C582 C 0.44741 0.60777 0.69354 0.0
C583 C 0.43257 0.59902 0.70548 0.0
C584 C 0.42402 0.57908 0.70411 0.0
C585 C 0.42982 0.56833 0.69002 0.0
C586 C 0.4444 0.57712 0.67799 0.0
H587 H 0.44936 0.62057 0.62758 0.0
H588 H 0.43917 0.59799 0.63973 0.0
H589 H 0.44091 0.62065 0.65111 0.0
H590 H 0.45443 0.62294 0.69522 0.0
H591 H 0.42844 0.60759 0.7163 0.0
H592 H 0.72801 0.2791 0.69088 0.0
H593 H 0.72078 0.29865 0.66324 0.0
H594 H 0.77849 0.33497 0.66872 0.0
H595 H 0.78558 0.31566 0.69657 0.0
H596 H 0.7491 0.3561 0.65945 0.0
H597 H 0.74483 0.2933 0.61308 0.0
H598 H 0.72847 0.28898 0.63209 0.0
H599 H 0.75436 0.29327 0.63699 0.0
C600 C 0.73897 0.29148 0.68634 0.0
C601 C 0.75725 0.29609 0.69589 0.0
C602 C 0.7349 0.30254 0.67053 0.0
C603 C 0.74918 0.31812 0.66385 0.0
C604 C 0.76726 0.32304 0.67369 0.0
H605 H 0.76956 0.36827 0.55473 0.0
H606 H 0.76912 0.35209 0.58553 0.0
C607 C 0.7713 0.31205 0.68954 0.0
C608 C 0.74584 0.3286 0.646 0.0
H609 H 0.73944 0.32253 0.59876 0.0
C610 C 0.74683 0.34878 0.64617 0.0
C611 C 0.74308 0.31898 0.62872 0.0
C612 C 0.74277 0.29748 0.62758 0.0
C613 C 0.74543 0.35968 0.62943 0.0
C614 C 0.74275 0.35005 0.61216 0.0
C615 C 0.74137 0.32982 0.61206 0.0
C616 C 0.74304 0.36078 0.59388 0.0
C617 C 0.74762 0.38148 0.63025 0.0
C618 C 0.72852 0.37112 0.58838 0.0
C619 C 0.72875 0.38051 0.57069 0.0
C620 C 0.74344 0.37955 0.55824 0.0
C621 C 0.758 0.36928 0.56393 0.0
C622 C 0.75778 0.35999 0.58154 0.0
H623 H 0.75319 0.38705 0.64427 0.0
H624 H 0.75769 0.38904 0.61951 0.0
H625 H 0.73319 0.38529 0.62726 0.0
H626 H 0.71685 0.37165 0.59761 0.0
H627 H 0.7173 0.38825 0.56667 0.0
H628 H 0.45262 0.93725 0.60456 0.0
H629 H 0.47488 0.9336 0.6314 0.0
H630 H 0.48491 0.99539 0.64022 0.0
H631 H 0.46333 0.99932 0.61327 0.0
H632 H 0.51561 0.95401 0.6353 0.0
H633 H 0.47123 0.96952 0.69266 0.0
H634 H 0.46075 0.96178 0.66986 0.0
H635 H 0.47242 0.98686 0.67337 0.0
C636 C 0.45956 0.95006 0.61223 0.0
C637 C 0.45608 0.96858 0.6068 0.0
C638 C 0.47217 0.94791 0.62759 0.0
C639 C 0.48125 0.96417 0.63791 0.0
C640 C 0.47767 0.98259 0.63266 0.0
H641 H 0.56886 0.01826 0.70869 0.0
H642 H 0.54276 0.00481 0.68625 0.0
C643 C 0.46525 0.98479 0.61728 0.0
C644 C 0.49546 0.96249 0.65352 0.0
H645 H 0.50608 0.9754 0.69898 0.0
C646 C 0.5134 0.95811 0.6494 0.0
C647 C 0.49242 0.96772 0.67188 0.0
C648 C 0.47308 0.97155 0.67729 0.0
C649 C 0.52898 0.96052 0.66281 0.0
C650 C 0.52638 0.96734 0.68066 0.0
C651 C 0.508 0.97023 0.68521 0.0
C652 C 0.54312 0.97473 0.69359 0.0
C653 C 0.54853 0.95723 0.65746 0.0
C654 C 0.55214 0.96215 0.70495 0.0
C655 C 0.56721 0.96983 0.71791 0.0
C656 C 0.5733 0.99014 0.71963 0.0
C657 C 0.56449 0.00256 0.70781 0.0
C658 C 0.54955 0.99492 0.69497 0.0
H659 H 0.54809 0.95165 0.64306 0.0
H660 H 0.55954 0.97113 0.65829 0.0
H661 H 0.55342 0.94661 0.66752 0.0
H662 H 0.54726 0.9465 0.70406 0.0
H663 H 0.57371 0.95992 0.72687 0.0
H664 H 0.83157 0.22335 0.73796 0.0
H665 H 0.86148 0.2287 0.75785 0.0
H666 H 0.84991 0.2832 0.77522 0.0
H667 H 0.81962 0.27766 0.75584 0.0
H668 H 0.89456 0.2592 0.75863 0.0
H669 H 0.85493 0.25266 0.82483 0.0
H670 H 0.84286 0.24543 0.80254 0.0
H671 H 0.84908 0.27075 0.80835 0.0
C672 C 0.83536 0.23645 0.74607 0.0
C673 C 0.82311 0.24997 0.74552 0.0
C674 C 0.85251 0.23954 0.75731 0.0
C675 C 0.85769 0.25616 0.76822 0.0
C676 C 0.84595 0.2701 0.76713 0.0
H677 H 0.96715 0.30046 0.82834 0.0
H678 H 0.93972 0.29419 0.80548 0.0
C679 C 0.82877 0.26701 0.75591 0.0
C680 C 0.87509 0.25861 0.78115 0.0
H681 H 0.88937 0.2624 0.82745 0.0
C682 C 0.89347 0.25988 0.77368 0.0
C683 C 0.87352 0.25912 0.80079 0.0
C684 C 0.85403 0.25674 0.80967 0.0
C685 C 0.91042 0.26203 0.78536 0.0
C686 C 0.90891 0.26322 0.80494 0.0
C687 C 0.89049 0.26161 0.81241 0.0
C688 C 0.92623 0.26635 0.81802 0.0
C689 C 0.92974 0.26272 0.77666 0.0
C690 C 0.92763 0.25287 0.83278 0.0
C691 C 0.94322 0.25648 0.84599 0.0
C692 C 0.95764 0.2737 0.84472 0.0
C693 C 0.95635 0.28701 0.82971 0.0
C694 C 0.94074 0.2834 0.81654 0.0
H695 H 0.92777 0.25624 0.76255 0.0
H696 H 0.93753 0.27815 0.775 0.0
H697 H 0.93908 0.25488 0.78569 0.0
H698 H 0.91652 0.23966 0.83421 0.0
H699 H 0.94376 0.24593 0.85737 0.0
H700 H 0.42676 0.93848 0.50414 0.0
H701 H 0.43527 0.91237 0.48642 0.0
H702 H 0.49405 0.92651 0.51029 0.0
H703 H 0.48541 0.95224 0.52835 0.0
H704 H 0.46239 0.91556 0.46001 0.0
H705 H 0.47984 0.86795 0.51932 0.0
H706 H 0.46732 0.88754 0.5223 0.0
H707 H 0.4934 0.89263 0.52057 0.0
C708 C 0.44143 0.93585 0.50564 0.0
C709 C 0.45544 0.9473 0.51751 0.0
C710 C 0.44629 0.921 0.49556 0.0
C711 C 0.46522 0.91734 0.49724 0.0
C712 C 0.47925 0.9288 0.5091 0.0
H713 H 0.51499 0.85466 0.41592 0.0
H714 H 0.50791 0.87922 0.43638 0.0
C715 C 0.47436 0.94358 0.51927 0.0
C716 C 0.47047 0.90208 0.48594 0.0
H717 H 0.48853 0.86049 0.48902 0.0
C718 C 0.46805 0.90348 0.46635 0.0
C719 C 0.47763 0.88622 0.49427 0.0
C720 C 0.47953 0.88334 0.51527 0.0
C721 C 0.47278 0.88957 0.45481 0.0
C722 C 0.48059 0.87409 0.4631 0.0
C723 C 0.48279 0.87253 0.48271 0.0
C724 C 0.48598 0.85904 0.45163 0.0
C725 C 0.46897 0.89136 0.4339 0.0
C726 C 0.4766 0.83943 0.45398 0.0
C727 C 0.48076 0.82532 0.44246 0.0
C728 C 0.49439 0.83057 0.42836 0.0
C729 C 0.50428 0.85014 0.42651 0.0
C730 C 0.50018 0.86423 0.43812 0.0
H731 H 0.45836 0.9008 0.43035 0.0
H732 H 0.48284 0.89802 0.42717 0.0
H733 H 0.46328 0.87684 0.4278 0.0
H734 H 0.46568 0.83512 0.46442 0.0
H735 H 0.47292 0.81037 0.44431 0.0
H736 H 0.17452 0.34147 0.74897 0.0
H737 H 0.14858 0.33651 0.77135 0.0
H738 H 0.1626 0.28169 0.78981 0.0
H739 H 0.18905 0.28679 0.7677 0.0
H740 H 0.11617 0.30472 0.7729 0.0
H741 H 0.16208 0.31095 0.8391 0.0
H742 H 0.17193 0.31945 0.81665 0.0
H743 H 0.16638 0.29384 0.8225 0.0
C744 C 0.17228 0.32847 0.75796 0.0
C745 C 0.18395 0.3146 0.75669 0.0
C746 C 0.15738 0.32561 0.77065 0.0
C747 C 0.15387 0.30887 0.78238 0.0
C748 C 0.16531 0.29486 0.78107 0.0
H749 H 0.06267 0.27708 0.86472 0.0
H750 H 0.09077 0.27674 0.84564 0.0
C751 C 0.18026 0.2977 0.76832 0.0
C752 C 0.13778 0.30604 0.79552 0.0
H753 H 0.12796 0.30499 0.842 0.0
C754 C 0.11872 0.30466 0.78801 0.0
C755 C 0.1412 0.30586 0.81521 0.0
C756 C 0.16149 0.30773 0.82395 0.0
C757 C 0.10298 0.30347 0.79965 0.0
C758 C 0.10647 0.30398 0.81931 0.0
C759 C 0.12541 0.30469 0.8269 0.0
C760 C 0.09068 0.30479 0.83204 0.0
C761 C 0.08274 0.30178 0.79082 0.0
C762 C 0.08183 0.32095 0.8311 0.0
C763 C 0.06587 0.32122 0.84192 0.0
C764 C 0.05851 0.30533 0.85396 0.0
C765 C 0.06797 0.28952 0.85553 0.0
C766 C 0.08399 0.28928 0.84466 0.0
H767 H 0.0818 0.29652 0.77626 0.0
H768 H 0.07177 0.2917 0.79921 0.0
H769 H 0.0789 0.31635 0.79028 0.0
H770 H 0.08702 0.3332 0.82166 0.0
H771 H 0.05902 0.33368 0.84048 0.0
H772 H 0.52768 0.62665 0.53971 0.0
H773 H 0.5218 0.6483 0.51349 0.0
H774 H 0.58319 0.66149 0.50265 0.0
H775 H 0.58926 0.63985 0.52915 0.0
H776 H 0.54112 0.68945 0.51234 0.0
H777 H 0.55406 0.64919 0.44995 0.0
H778 H 0.54802 0.63698 0.4723 0.0
H779 H 0.57187 0.65178 0.46923 0.0
C780 C 0.53994 0.63411 0.53173 0.0
C781 C 0.55898 0.63177 0.53663 0.0
C782 C 0.53654 0.64637 0.5167 0.0
C783 C 0.55205 0.65642 0.50615 0.0
C784 C 0.57101 0.65365 0.51052 0.0
H785 H 0.54188 0.74539 0.41796 0.0
H786 H 0.55567 0.72273 0.43892 0.0
C787 C 0.57445 0.64133 0.52563 0.0
C788 C 0.54828 0.67089 0.49161 0.0
H789 H 0.54398 0.67897 0.44426 0.0
C790 C 0.54192 0.68726 0.49745 0.0
C791 C 0.54952 0.66803 0.47226 0.0
C792 C 0.55615 0.65052 0.46541 0.0
C793 C 0.53618 0.7006 0.48443 0.0
C794 C 0.53651 0.69727 0.46506 0.0
C795 C 0.54367 0.68136 0.45915 0.0
C796 C 0.52815 0.70951 0.45098 0.0
C797 C 0.52948 0.71799 0.49149 0.0
C798 C 0.50808 0.7091 0.45051 0.0
C799 C 0.50019 0.72194 0.43865 0.0
C800 C 0.51223 0.73543 0.42698 0.0
C801 C 0.53224 0.73521 0.42684 0.0
C802 C 0.54014 0.72229 0.43876 0.0
H803 H 0.53471 0.72112 0.50621 0.0
H804 H 0.53471 0.73118 0.48254 0.0
H805 H 0.51329 0.71498 0.49099 0.0
H806 H 0.49858 0.69915 0.45971 0.0
H807 H 0.48471 0.72162 0.43901 0.0
H808 H 0.82117 0.78667 0.76827 0.0
H809 H 0.85114 0.78217 0.75427 0.0
H810 H 0.8597 0.84039 0.72993 0.0
H811 H 0.82967 0.84489 0.74383 0.0
H812 H 0.85863 0.78609 0.71439 0.0
H813 H 0.91287 0.83708 0.75789 0.0
H814 H 0.88831 0.82722 0.76509 0.0
H815 H 0.89278 0.84681 0.74789 0.0
C816 C 0.82947 0.79846 0.7599 0.0
C817 C 0.82312 0.81606 0.7569 0.0
C818 C 0.84656 0.79591 0.75199 0.0
C819 C 0.85767 0.81103 0.74126 0.0
C820 C 0.85143 0.82867 0.73839 0.0
H821 H 0.94269 0.81347 0.65893 0.0
H822 H 0.91571 0.81728 0.67781 0.0
C823 C 0.83428 0.83118 0.74619 0.0
C824 C 0.87532 0.80807 0.73232 0.0
H825 H 0.92461 0.82484 0.73103 0.0
C826 C 0.87308 0.79443 0.71811 0.0
C827 C 0.89412 0.81891 0.73735 0.0
C828 C 0.8973 0.83323 0.75299 0.0
C829 C 0.88914 0.79178 0.70835 0.0
C830 C 0.90782 0.80309 0.71294 0.0
C831 C 0.91019 0.8163 0.72753 0.0
C832 C 0.92488 0.80177 0.70218 0.0
C833 C 0.88607 0.77706 0.69306 0.0
C834 C 0.93913 0.79213 0.70988 0.0
C835 C 0.95458 0.78983 0.69911 0.0
C836 C 0.95604 0.79728 0.68053 0.0
C837 C 0.94201 0.8075 0.67316 0.0
C838 C 0.92656 0.80968 0.68388 0.0
H839 H 0.87145 0.76717 0.69342 0.0
H840 H 0.88736 0.78484 0.6792 0.0
H841 H 0.89742 0.76815 0.69433 0.0
H842 H 0.93802 0.786 0.72404 0.0
H843 H 0.96516 0.78194 0.70523 0.0
H844 H 0.0866 0.9364 0.47718 0.0
H845 H 0.07973 0.91142 0.5023 0.0
H846 H 0.02322 0.9249 0.50815 0.0
H847 H 0.03012 0.95032 0.48367 0.0
H848 H 0.06683 0.92013 0.5416 0.0
H849 H 0.0157 0.86299 0.50157 0.0
H850 H 0.034 0.88138 0.49042 0.0
H851 H 0.01218 0.88758 0.49815 0.0
C852 C 0.07272 0.93409 0.48383 0.0
C853 C 0.0589 0.94538 0.47837 0.0
C854 C 0.06882 0.91977 0.4981 0.0
C855 C 0.05097 0.91636 0.50692 0.0
C856 C 0.03701 0.92726 0.5013 0.0
H857 H 0.98603 0.8453 0.59009 0.0
H858 H 0.99954 0.8683 0.56529 0.0
C859 C 0.04094 0.94168 0.4872 0.0
C860 C 0.04698 0.9019 0.52252 0.0
H861 H 0.01706 0.85883 0.53467 0.0
C862 C 0.05616 0.90657 0.54013 0.0
C863 C 0.03305 0.88435 0.52041 0.0
C864 C 0.0232 0.8786 0.50161 0.0
C865 C 0.051 0.89447 0.55601 0.0
C866 C 0.0366 0.87714 0.554 0.0
C867 C 0.02802 0.87218 0.53619 0.0
C868 C 0.02919 0.86449 0.57026 0.0
C869 C 0.06031 0.90079 0.57488 0.0
C870 C 0.04148 0.85499 0.58156 0.0
C871 C 0.0338 0.84194 0.59597 0.0
C872 C 0.01369 0.83802 0.59905 0.0
C873 C 0.00157 0.84795 0.58801 0.0
C874 C 0.00926 0.86107 0.5738 0.0
H875 H 0.06772 0.91643 0.57464 0.0
H876 H 0.04926 0.89833 0.58582 0.0
H877 H 0.07139 0.89205 0.57893 0.0
H878 H 0.05685 0.85717 0.57885 0.0
H879 H 0.04344 0.83436 0.60416 0.0
H880 H 0.17269 0.77045 0.78409 0.0
H881 H 0.14664 0.77513 0.76168 0.0
H882 H 0.18755 0.7867 0.71739 0.0
H883 H 0.21399 0.78233 0.73993 0.0
H884 H 0.14552 0.80977 0.73786 0.0
H885 H 0.14173 0.74188 0.69849 0.0
H886 H 0.15322 0.74515 0.72166 0.0
H887 H 0.16515 0.75806 0.70187 0.0
C888 C 0.17625 0.77419 0.76963 0.0
C889 C 0.19545 0.77616 0.76382 0.0
C890 C 0.16132 0.77678 0.75684 0.0
C891 C 0.16521 0.78124 0.73793 0.0
C892 C 0.18428 0.78312 0.73194 0.0
H893 H 0.06821 0.80806 0.66462 0.0
H894 H 0.10158 0.81056 0.67794 0.0
C895 C 0.19932 0.78055 0.7448 0.0
C896 C 0.14898 0.78369 0.72471 0.0
H897 H 0.11763 0.75992 0.69107 0.0
C898 C 0.13959 0.79911 0.72735 0.0
C899 C 0.14132 0.76966 0.71115 0.0
C900 C 0.15073 0.75265 0.70807 0.0
C901 C 0.1222 0.8004 0.71732 0.0
C902 C 0.11413 0.78594 0.70428 0.0
C903 C 0.12398 0.77101 0.70104 0.0
C904 C 0.09431 0.78462 0.69572 0.0
C905 C 0.11195 0.81652 0.72151 0.0
C906 C 0.07934 0.76916 0.70123 0.0
C907 C 0.0604 0.76772 0.69375 0.0
C908 C 0.05604 0.78168 0.6805 0.0
C909 C 0.07111 0.79713 0.67487 0.0
C910 C 0.09014 0.7986 0.68245 0.0
H911 H 0.11904 0.82527 0.73356 0.0
H912 H 0.11206 0.82643 0.70901 0.0
H913 H 0.09648 0.81036 0.72465 0.0
H914 H 0.08229 0.75827 0.71149 0.0
H915 H 0.04918 0.75559 0.69836 0.0
H916 H 0.98401 0.64454 0.48546 0.0
H917 H 0.98826 0.66867 0.51004 0.0
H918 H 0.96524 0.62333 0.55035 0.0
H919 H 0.96122 0.59909 0.52598 0.0
H920 H 0.94734 0.6564 0.54899 0.0
H921 H 0.0283 0.67695 0.5554 0.0
H922 H 0.01797 0.6776 0.53191 0.0
H923 H 0.01546 0.65472 0.54468 0.0
C924 C 0.9802 0.63967 0.49963 0.0
C925 C 0.97223 0.61994 0.50379 0.0
C926 C 0.98261 0.65345 0.51363 0.0
C927 C 0.97717 0.64769 0.53198 0.0
C928 C 0.9695 0.628 0.53624 0.0
H929 H 3e-05 0.71934 0.63052 0.0
H930 H 0.99629 0.6925 0.60883 0.0
C931 C 0.96714 0.61422 0.52229 0.0
C932 C 0.97853 0.66233 0.54655 0.0
H933 H 0.01075 0.69638 0.5714 0.0
C934 C 0.96119 0.66509 0.55398 0.0
C935 C 0.99665 0.67345 0.55308 0.0
C936 C 0.0157 0.67048 0.54601 0.0
C937 C 0.96148 0.67906 0.56756 0.0
C938 C 0.97955 0.69058 0.57368 0.0
C939 C 0.99692 0.68753 0.56656 0.0
C940 C 0.98074 0.70623 0.58718 0.0
C941 C 0.94248 0.68135 0.5753 0.0
C942 C 0.97315 0.72272 0.58212 0.0
C943 C 0.97528 0.73807 0.59442 0.0
C944 C 0.98508 0.73719 0.61199 0.0
C945 C 0.99235 0.72044 0.61713 0.0
C946 C 0.99028 0.70513 0.60476 0.0
H947 H 0.93056 0.66848 0.57251 0.0
H948 H 0.94411 0.68355 0.59067 0.0
H949 H 0.93811 0.69437 0.56855 0.0
H950 H 0.96597 0.72391 0.56848 0.0
H951 H 0.96954 0.75077 0.59001 0.0
H952 H 0.74558 0.85965 0.26462 0.0
H953 H 0.7648 0.89295 0.26203 0.0
H954 H 0.75916 0.89074 0.2017 0.0
H955 H 0.73956 0.85743 0.20417 0.0
H956 H 0.8005 0.90496 0.24267 0.0
H957 H 0.74185 0.94202 0.21481 0.0
H958 H 0.73668 0.91827 0.2264 0.0
H959 H 0.74469 0.92079 0.20278 0.0
C960 C 0.74825 0.86631 0.2508 0.0
C961 C 0.741 0.85596 0.2346 0.0
C962 C 0.75929 0.88528 0.24935 0.0
C963 C 0.76318 0.89433 0.23169 0.0
C964 C 0.75607 0.88406 0.21546 0.0
H965 H 0.85304 5e-05 0.21708 0.0
H966 H 0.83123 0.96848 0.21174 0.0
C967 C 0.74507 0.865 0.21689 0.0
C968 C 0.77524 0.9143 0.23046 0.0
H969 H 0.77352 0.96157 0.21877 0.0
C970 C 0.79467 0.91734 0.23732 0.0
C971 C 0.76747 0.93036 0.2236 0.0
C972 C 0.74649 0.92785 0.21658 0.0
C973 C 0.80655 0.93608 0.2377 0.0
C974 C 0.79881 0.95217 0.23084 0.0
C975 C 0.7794 0.94914 0.22384 0.0
C976 C 0.81044 0.97231 0.23193 0.0
C977 C 0.82709 0.93862 0.24601 0.0
C978 C 0.80548 0.98522 0.24445 0.0
C979 C 0.81787 0.0033 0.24753 0.0
C980 C 0.83544 0.00877 0.2381 0.0
C981 C 0.83972 0.99625 0.22471 0.0
C982 C 0.82731 0.97817 0.22165 0.0
H983 H 0.82953 0.92532 0.25389 0.0
H984 H 0.83755 0.94176 0.23456 0.0
H985 H 0.8304 0.95108 0.25561 0.0
H986 H 0.79245 0.98094 0.25246 0.0
H987 H 0.81406 0.01263 0.25786 0.0
H988 H 0.80615 0.2575 0.28437 0.0
H989 H 0.82441 0.2317 0.2811 0.0
H990 H 0.77294 0.19492 0.25636 0.0
H991 H 0.7549 0.22093 0.25904 0.0
H992 H 0.81824 0.19615 0.29691 0.0
H993 H 0.81305 0.18927 0.21988 0.0
H994 H 0.80677 0.20951 0.23124 0.0
H995 H 0.78943 0.18667 0.2294 0.0
C996 C 0.79882 0.24394 0.27813 0.0
C997 C 0.77908 0.24106 0.27215 0.0
C998 C 0.80924 0.22924 0.27624 0.0
C999 C 0.80013 0.21147 0.26824 0.0
C1000 C 0.78043 0.20866 0.26216 0.0
H1001 H 0.82668 0.09886 0.28757 0.0
H1002 H 0.81519 0.12928 0.28752 0.0
C1003 C 0.77007 0.2234 0.26389 0.0
C1004 C 0.81085 0.19544 0.26726 0.0
H1005 H 0.82146 0.16225 0.23779 0.0
C1006 C 0.81915 0.1889 0.28393 0.0
C1007 C 0.81239 0.18619 0.25028 0.0
C1008 C 0.80512 0.19342 0.23167 0.0
C1009 C 0.82818 0.17286 0.28423 0.0
C1010 C 0.82846 0.16275 0.2675 0.0
C1011 C 0.82097 0.16982 0.25067 0.0
C1012 C 0.83563 0.14433 0.26737 0.0
C1013 C 0.83731 0.16691 0.30251 0.0
C1014 C 0.8505 0.1424 0.25554 0.0
C1015 C 0.85697 0.12485 0.25535 0.0
C1016 C 0.84862 0.10894 0.26696 0.0
C1017 C 0.83358 0.11088 0.27859 0.0
C1018 C 0.82707 0.12833 0.27869 0.0
H1019 H 0.84161 0.17943 0.31199 0.0
H1020 H 0.82653 0.15552 0.30977 0.0
H1021 H 0.8504 0.16091 0.30014 0.0
H1022 H 0.85719 0.15452 0.24657 0.0
H1023 H 0.86854 0.12379 0.24619 0.0
H1024 H 0.44184 0.0437 0.96568 0.0
H1025 H 0.41253 0.01776 0.96902 0.0
H1026 H 0.37689 0.06091 0.9678 0.0
H1027 H 0.40607 0.08688 0.96455 0.0
H1028 H 0.3841 0.02028 0.00169 0.0
H1029 H 0.35177 0.0148 0.92877 0.0
H1030 H 0.37774 0.02244 0.93366 0.0
H1031 H 0.36187 0.03868 0.93765 0.0
C1032 C 0.4277 0.04759 0.96577 0.0
C1033 C 0.42615 0.06724 0.96493 0.0
C1034 C 0.41105 0.03282 0.96774 0.0
C1035 C 0.39267 0.03753 0.96857 0.0
C1036 C 0.391 0.05707 0.96706 0.0
H1037 H 0.27434 0.97491 0.98252 0.0
H1038 H 0.30423 0.99875 0.9759 0.0
C1039 C 0.40763 0.07184 0.9653 0.0
C1040 C 0.37536 0.02223 0.97251 0.0
H1041 H 0.33306 0.9966 0.95254 0.0
C1042 C 0.37296 0.01493 0.99097 0.0
C1043 C 0.3609 0.01563 0.95847 0.0
C1044 C 0.36309 0.02316 0.93846 0.0
C1045 C 0.35615 0.00134 0.9959 0.0
C1046 C 0.34167 0.99455 0.98182 0.0
C1047 C 0.3442 0.00181 0.96329 0.0
C1048 C 0.32366 0.9801 0.98606 0.0
C1049 C 0.35378 0.99494 0.01623 0.0
C1050 C 0.32469 0.96167 0.99385 0.0
C1051 C 0.30766 0.94811 0.99786 0.0
C1052 C 0.28926 0.95261 0.99383 0.0
C1053 C 0.28828 0.971 0.98581 0.0
C1054 C 0.30534 0.98463 0.98198 0.0
H1055 H 0.3632 0.00549 0.02574 0.0
H1056 H 0.33839 0.99321 0.02022 0.0
H1057 H 0.3581 0.98067 0.0185 0.0
H1058 H 0.33867 0.9577 0.99668 0.0
H1059 H 0.30891 0.93399 0.00383 0.0
H1060 H 0.24516 0.34706 0.28067 0.0
H1061 H 0.22091 0.36763 0.27892 0.0
H1062 H 0.23808 0.38645 0.33517 0.0
H1063 H 0.2627 0.36634 0.33688 0.0
H1064 H 0.18903 0.36875 0.30269 0.0
H1065 H 0.24557 0.4374 0.30259 0.0
H1066 H 0.25101 0.41403 0.29807 0.0
H1067 H 0.24806 0.42056 0.32169 0.0
C1068 C 0.24381 0.35563 0.29265 0.0
C1069 C 0.25598 0.35524 0.30884 0.0
C1070 C 0.22986 0.36723 0.29167 0.0
C1071 C 0.22792 0.37871 0.30682 0.0
C1072 C 0.23955 0.37785 0.32325 0.0
H1073 H 0.16462 0.46843 0.32502 0.0
H1074 H 0.18354 0.44297 0.32812 0.0
C1075 C 0.25349 0.36624 0.32425 0.0
C1076 C 0.21427 0.39217 0.30517 0.0
H1077 H 0.21283 0.44045 0.30447 0.0
C1078 C 0.19417 0.38443 0.30304 0.0
C1079 C 0.22112 0.41259 0.30551 0.0
C1080 C 0.24262 0.42171 0.30692 0.0
C1081 C 0.18064 0.39665 0.30171 0.0
C1082 C 0.1875 0.41708 0.30223 0.0
C1083 C 0.20762 0.42476 0.30419 0.0
C1084 C 0.1742 0.43093 0.30094 0.0
C1085 C 0.15914 0.38762 0.3002 0.0
C1086 C 0.16244 0.43243 0.28469 0.0
C1087 C 0.1515 0.44698 0.28289 0.0
C1088 C 0.15234 0.46035 0.29723 0.0
C1089 C 0.16371 0.45841 0.31367 0.0
C1090 C 0.17453 0.44387 0.31549 0.0
H1091 H 0.15613 0.37195 0.30461 0.0
H1092 H 0.15071 0.39541 0.30891 0.0
H1093 H 0.15382 0.3887 0.28539 0.0
H1094 H 0.16226 0.42281 0.27315 0.0
H1095 H 0.14296 0.44816 0.27002 0.0
H1096 H 0.10879 0.00951 0.42457 0.0
H1097 H 0.13998 0.03303 0.42774 0.0
H1098 H 0.13814 0.02649 0.48797 0.0
H1099 H 0.10706 0.00326 0.48497 0.0
H1100 H 0.14715 0.06833 0.44616 0.0
H1101 H 0.19305 0.01933 0.47767 0.0
H1102 H 0.16969 0.01032 0.46592 0.0
H1103 H 0.17097 0.01785 0.48984 0.0
C1104 C 0.11509 0.01307 0.43847 0.0
C1105 C 0.10557 0.00439 0.45452 0.0
C1106 C 0.13291 0.02641 0.44025 0.0
C1107 C 0.14151 0.03117 0.45807 0.0
C1108 C 0.13201 0.02259 0.47408 0.0
H1109 H 0.21809 0.13175 0.50117 0.0
H1110 H 0.19097 0.10637 0.49006 0.0
C1111 C 0.11424 0.0093 0.47233 0.0
C1112 C 0.15983 0.04597 0.46018 0.0
H1113 H 0.20525 0.05368 0.48152 0.0
C1114 C 0.15998 0.0651 0.45364 0.0
C1115 C 0.17662 0.04163 0.46969 0.0
C1116 C 0.17769 0.02112 0.47601 0.0
C1117 C 0.17614 0.08024 0.45724 0.0
C1118 C 0.19239 0.07613 0.4679 0.0
C1119 C 0.19265 0.05683 0.47356 0.0
C1120 C 0.20883 0.09176 0.47413 0.0
C1121 C 0.1756 0.10052 0.44976 0.0
C1122 C 0.22793 0.09165 0.46924 0.0
C1123 C 0.24351 0.10607 0.4757 0.0
C1124 C 0.24027 0.12076 0.48727 0.0
C1125 C 0.2211 0.12072 0.49222 0.0
C1126 C 0.20556 0.10631 0.48576 0.0
H1127 H 0.16525 0.10018 0.43745 0.0
H1128 H 0.17065 0.10879 0.46085 0.0
H1129 H 0.19028 0.10847 0.44563 0.0
H1130 H 0.23075 0.08043 0.4604 0.0
H1131 H 0.2581 0.10565 0.47164 0.0
H1132 H 0.7517 0.20174 0.69852 0.0
H1133 H 0.73152 0.16875 0.7011 0.0
H1134 H 0.74779 0.16592 0.75998 0.0
H1135 H 0.7676 0.19896 0.75768 0.0
H1136 H 0.75113 0.13222 0.73732 0.0
H1137 H 0.67903 0.15365 0.72966 0.0
H1138 H 0.69677 0.16343 0.71253 0.0
H1139 H 0.70115 0.1707 0.73643 0.0
C1140 C 0.7508 0.19418 0.71206 0.0
C1141 C 0.76127 0.20297 0.72789 0.0
C1142 C 0.73935 0.17533 0.71347 0.0
C1143 C 0.73819 0.16501 0.73073 0.0
C1144 C 0.74862 0.17368 0.74653 0.0
H1145 H 0.68208 0.05605 0.78056 0.0
H1146 H 0.70464 0.08602 0.77133 0.0
C1147 C 0.75998 0.19251 0.74515 0.0
C1148 C 0.72605 0.14516 0.73249 0.0
H1149 H 0.67882 0.12025 0.73373 0.0
C1150 C 0.73532 0.12952 0.73643 0.0
C1151 C 0.70548 0.14179 0.73119 0.0
C1152 C 0.6949 0.15823 0.72733 0.0
C1153 C 0.72448 0.11049 0.7393 0.0
C1154 C 0.70386 0.1072 0.73863 0.0
C1155 C 0.69463 0.12281 0.73422 0.0
C1156 C 0.6915 0.08795 0.74344 0.0
C1157 C 0.73521 0.09413 0.74291 0.0
C1158 C 0.67652 0.07914 0.73089 0.0
C1159 C 0.66343 0.06213 0.73621 0.0
C1160 C 0.66506 0.05363 0.75422 0.0
C1161 C 0.68048 0.06214 0.76654 0.0
C1162 C 0.69349 0.07922 0.76124 0.0
H1163 H 0.74993 0.09774 0.73698 0.0
H1164 H 0.73715 0.09172 0.75827 0.0
H1165 H 0.72695 0.08034 0.73682 0.0
H1166 H 0.67469 0.0857 0.71711 0.0
H1167 H 0.65175 0.05593 0.72636 0.0
H1168 H 0.38667 0.98996 0.55392 0.0
H1169 H 0.37105 0.01784 0.54904 0.0
H1170 H 0.41563 0.0523 0.58461 0.0
H1171 H 0.43193 0.02485 0.58879 0.0
H1172 H 0.35606 0.0405 0.57259 0.0
H1173 H 0.41956 0.08456 0.53605 0.0
H1174 H 0.41731 0.05891 0.54151 0.0
H1175 H 0.42495 0.07649 0.55949 0.0
C1176 C 0.39321 0.00349 0.56066 0.0
C1177 C 0.41072 0.00521 0.57155 0.0
C1178 C 0.38417 0.01936 0.55799 0.0
C1179 C 0.39239 0.03725 0.56617 0.0
C1180 C 0.40926 0.03874 0.57786 0.0
H1181 H 0.32757 0.13248 0.55235 0.0
H1182 H 0.34601 0.10965 0.56752 0.0
C1183 C 0.41842 0.02292 0.58042 0.0
C1184 C 0.38373 0.05449 0.56164 0.0
H1185 H 0.39275 0.09918 0.53932 0.0
C1186 C 0.3641 0.05343 0.56548 0.0
C1187 C 0.39426 0.07126 0.55221 0.0
C1188 C 0.41513 0.0729 0.5469 0.0
C1189 C 0.35452 0.06845 0.55968 0.0
C1190 C 0.36502 0.08514 0.55012 0.0
C1191 C 0.38481 0.08645 0.5468 0.0
C1192 C 0.35524 0.1003 0.54151 0.0
C1193 C 0.33303 0.06586 0.56298 0.0
C1194 C 0.35504 0.10322 0.52197 0.0
C1195 C 0.34477 0.11635 0.51333 0.0
C1196 C 0.33445 0.12686 0.52405 0.0
C1197 C 0.33531 0.12454 0.54371 0.0
C1198 C 0.34569 0.11139 0.55238 0.0
H1199 H 0.32634 0.0506 0.56718 0.0
H1200 H 0.33102 0.07546 0.57438 0.0
H1201 H 0.32507 0.07 0.55016 0.0
H1202 H 0.36237 0.09488 0.51332 0.0
H1203 H 0.34449 0.11781 0.49817 0.0
H1204 H 0.5952 0.53822 0.58849 0.0
H1205 H 0.61778 0.51764 0.5805 0.0
H1206 H 0.61542 0.5381 0.52285 0.0
H1207 H 0.5931 0.55883 0.53088 0.0
H1208 H 0.61041 0.48768 0.55515 0.0
H1209 H 0.67382 0.54462 0.53426 0.0
H1210 H 0.65426 0.54995 0.54732 0.0
H1211 H 0.65145 0.54741 0.52229 0.0
C1212 C 0.59967 0.53838 0.57417 0.0
C1213 C 0.5923 0.54984 0.56021 0.0
C1214 C 0.61252 0.52666 0.56962 0.0
C1215 C 0.6184 0.52647 0.55112 0.0
C1216 C 0.61135 0.53827 0.53727 0.0
H1217 H 0.67939 0.46334 0.48364 0.0
H1218 H 0.65956 0.48357 0.49716 0.0
C1219 C 0.59853 0.54998 0.54181 0.0
C1220 C 0.63106 0.51319 0.54601 0.0
H1221 H 0.67335 0.51218 0.52476 0.0
C1222 C 0.6243 0.49301 0.54873 0.0
C1223 C 0.64919 0.52022 0.53771 0.0
C1224 C 0.65772 0.54174 0.53538 0.0
C1225 C 0.6348 0.47963 0.54258 0.0
C1226 C 0.6526 0.48667 0.53369 0.0
C1227 C 0.65963 0.50684 0.53148 0.0
C1228 C 0.66375 0.4734 0.52573 0.0
C1229 C 0.62645 0.45808 0.54496 0.0
C1230 C 0.67255 0.46084 0.53734 0.0
C1231 C 0.68391 0.44917 0.52964 0.0
C1232 C 0.6867 0.44997 0.51022 0.0
C1233 C 0.67754 0.46233 0.49865 0.0
C1234 C 0.66623 0.47396 0.50634 0.0
H1235 H 0.61094 0.45509 0.54886 0.0
H1236 H 0.62751 0.45043 0.53184 0.0
H1237 H 0.63496 0.45187 0.55623 0.0
H1238 H 0.67101 0.4604 0.55238 0.0
H1239 H 0.69087 0.43989 0.53893 0.0
H1240 H 0.75413 0.29699 0.32983 0.0
H1241 H 0.75296 0.31209 0.36002 0.0
H1242 H 0.69027 0.2936 0.35824 0.0
H1243 H 0.69136 0.27794 0.32847 0.0
H1244 H 0.73427 0.34185 0.36588 0.0
H1245 H 0.70495 0.27773 0.41154 0.0
H1246 H 0.71488 0.27553 0.38905 0.0
H1247 H 0.69042 0.2793 0.39037 0.0
C1248 C 0.74014 0.2958 0.33607 0.0
C1249 C 0.72283 0.28635 0.32673 0.0
C1250 C 0.73949 0.30451 0.35325 0.0
C1251 C 0.72155 0.30378 0.36145 0.0
C1252 C 0.70429 0.29404 0.35234 0.0
H1253 H 0.70013 0.38633 0.44144 0.0
H1254 H 0.69835 0.36532 0.41457 0.0
C1255 C 0.70493 0.28532 0.3352 0.0
C1256 C 0.72072 0.31443 0.37881 0.0
H1257 H 0.70501 0.30899 0.42363 0.0
C1258 C 0.72796 0.33465 0.37854 0.0
C1259 C 0.71259 0.30498 0.39533 0.0
C1260 C 0.70543 0.28316 0.39672 0.0
C1261 C 0.72708 0.34575 0.39427 0.0
C1262 C 0.71835 0.33641 0.41057 0.0
C1263 C 0.7114 0.31613 0.41098 0.0
C1264 C 0.71719 0.34743 0.4276 0.0
C1265 C 0.73582 0.36733 0.39339 0.0
C1266 C 0.72752 0.34365 0.44413 0.0
C1267 C 0.72845 0.35551 0.45955 0.0
C1268 C 0.71903 0.37137 0.45871 0.0
C1269 C 0.70768 0.37436 0.44251 0.0
C1270 C 0.70674 0.36244 0.4271 0.0
H1271 H 0.74595 0.3713 0.3817 0.0
H1272 H 0.72395 0.3755 0.39108 0.0
H1273 H 0.74388 0.37212 0.40674 0.0
H1274 H 0.73557 0.33204 0.44482 0.0
H1275 H 0.73721 0.3527 0.47184 0.0
H1276 H 0.51765 0.12286 0.89877 0.0
H1277 H 0.53476 0.10612 0.8776 0.0
H1278 H 0.50197 0.05055 0.89746 0.0
H1279 H 0.48441 0.06728 0.91817 0.0
H1280 H 0.55799 0.08045 0.88604 0.0
H1281 H 0.49428 0.04559 0.84132 0.0
H1282 H 0.49311 0.06444 0.85745 0.0
H1283 H 0.49148 0.03967 0.86584 0.0
C1284 C 0.5141 0.10708 0.89854 0.0
C1285 C 0.49992 0.0963 0.9102 0.0
C1286 C 0.52385 0.09755 0.88648 0.0
C1287 C 0.51948 0.07711 0.88583 0.0
C1288 C 0.50529 0.06633 0.89748 0.0
H1289 H 0.5966 0.0117 0.83617 0.0
H1290 H 0.57709 0.02465 0.8581 0.0
C1291 C 0.49542 0.07587 0.9094 0.0
C1292 C 0.53017 0.06711 0.87329 0.0
H1293 H 0.5241 0.03568 0.83712 0.0
C1294 C 0.5506 0.07068 0.87532 0.0
C1295 C 0.52048 0.05452 0.85922 0.0
C1296 C 0.49865 0.05095 0.85567 0.0
C1297 C 0.56164 0.06202 0.86363 0.0
C1298 C 0.55191 0.04903 0.84987 0.0
C1299 C 0.53148 0.04546 0.84785 0.0
C1300 C 0.56274 0.03993 0.83668 0.0
C1301 C 0.58361 0.06734 0.86575 0.0
C1302 C 0.56049 0.04354 0.81733 0.0
C1303 C 0.57137 0.03595 0.80477 0.0
C1304 C 0.58478 0.02464 0.81133 0.0
C1305 C 0.58654 0.02051 0.83069 0.0
C1306 C 0.5755 0.028 0.84325 0.0
H1307 H 0.58871 0.08105 0.87349 0.0
H1308 H 0.58894 0.05551 0.87378 0.0
H1309 H 0.59033 0.06914 0.85186 0.0
H1310 H 0.55064 0.05263 0.81197 0.0
H1311 H 0.5696 0.03938 0.78995 0.0
H1312 H 0.3259 0.32065 0.34318 0.0
H1313 H 0.3322 0.30021 0.37043 0.0
H1314 H 0.27036 0.27792 0.37461 0.0
H1315 H 0.26395 0.29802 0.34722 0.0
H1316 H 0.31755 0.29912 0.40787 0.0
H1317 H 0.29453 0.22879 0.37179 0.0
H1318 H 0.30047 0.25197 0.35923 0.0
H1319 H 0.27712 0.24428 0.36952 0.0
C1320 C 0.31366 0.3113 0.34985 0.0
C1321 C 0.29443 0.31085 0.34302 0.0
C1322 C 0.31728 0.29975 0.36545 0.0
C1323 C 0.30175 0.28743 0.37433 0.0
C1324 C 0.28254 0.28718 0.36777 0.0
H1325 H 0.28544 0.22792 0.47986 0.0
H1326 H 0.28984 0.25187 0.45396 0.0
C1327 C 0.2789 0.29878 0.35224 0.0
C1328 C 0.30553 0.27473 0.39047 0.0
H1329 H 0.29852 0.22704 0.40508 0.0
C1330 C 0.3136 0.28335 0.40726 0.0
C1331 C 0.30068 0.2542 0.38947 0.0
C1332 C 0.29288 0.2442 0.37149 0.0
C1333 C 0.31609 0.27191 0.42339 0.0
C1334 C 0.31019 0.25139 0.42266 0.0
C1335 C 0.30296 0.24279 0.40562 0.0
C1336 C 0.30996 0.23856 0.43962 0.0
C1337 C 0.32485 0.28186 0.44109 0.0
C1338 C 0.31991 0.22316 0.44023 0.0
C1339 C 0.31736 0.20933 0.45501 0.0
C1340 C 0.30462 0.21057 0.46933 0.0
C1341 C 0.29535 0.22651 0.46907 0.0
C1342 C 0.29796 0.24033 0.45432 0.0
H1343 H 0.33395 0.29651 0.43796 0.0
H1344 H 0.31293 0.28381 0.45003 0.0
H1345 H 0.33395 0.27301 0.4492 0.0
H1346 H 0.32916 0.22149 0.42893 0.0
H1347 H 0.3247 0.19724 0.45476 0.0
H1348 H 0.50625 0.47074 0.90786 0.0
H1349 H 0.48624 0.47945 0.881 0.0
H1350 H 0.5083 0.54047 0.8914 0.0
H1351 H 0.52858 0.53179 0.91791 0.0
H1352 H 0.45724 0.49982 0.88151 0.0
H1353 H 0.51548 0.53823 0.83553 0.0
H1354 H 0.5203 0.52315 0.85551 0.0
H1355 H 0.5176 0.54774 0.85869 0.0
C1356 C 0.50693 0.48598 0.9042 0.0
C1357 C 0.51891 0.5006 0.91483 0.0
C1358 C 0.49553 0.49095 0.88894 0.0
C1359 C 0.49599 0.51061 0.88406 0.0
C1360 C 0.50804 0.52522 0.89465 0.0
H1361 H 0.40685 0.55652 0.81984 0.0
H1362 H 0.42894 0.54711 0.84433 0.0
C1363 C 0.5195 0.52026 0.90985 0.0
C1364 C 0.48311 0.51583 0.86853 0.0
H1365 H 0.48312 0.5422 0.82736 0.0
C1366 C 0.46289 0.50898 0.8696 0.0
C1367 C 0.49055 0.52759 0.85291 0.0
C1368 C 0.51218 0.53445 0.85045 0.0
C1369 C 0.44986 0.51391 0.85566 0.0
C1370 C 0.45725 0.52636 0.84046 0.0
C1371 C 0.47749 0.53286 0.83917 0.0
C1372 C 0.44421 0.53257 0.82559 0.0
C1373 C 0.42833 0.50549 0.8572 0.0
C1374 C 0.44592 0.52807 0.80686 0.0
C1375 C 0.43348 0.5336 0.7928 0.0
C1376 C 0.41908 0.54376 0.79722 0.0
C1377 C 0.41766 0.54857 0.81597 0.0
C1378 C 0.43019 0.54311 0.83001 0.0
H1379 H 0.42562 0.49228 0.86657 0.0
H1380 H 0.42127 0.5165 0.86319 0.0
H1381 H 0.42125 0.50162 0.84322 0.0
H1382 H 0.45673 0.52004 0.80315 0.0
H1383 H 0.43501 0.52969 0.77851 0.0
H1384 H 0.69732 0.74999 0.18165 0.0
H1385 H 0.71233 0.73265 0.15932 0.0
H1386 H 0.76605 0.77562 0.16502 0.0
H1387 H 0.75084 0.79328 0.18709 0.0
H1388 H 0.75475 0.76966 0.12903 0.0
H1389 H 0.75172 0.69814 0.16527 0.0
H1390 H 0.72833 0.70469 0.16393 0.0
H1391 H 0.74822 0.71927 0.17725 0.0
C1392 C 0.71243 0.75552 0.17837 0.0
C1393 C 0.72304 0.77281 0.18621 0.0
C1394 C 0.72105 0.74553 0.16574 0.0
C1395 C 0.74046 0.75259 0.16081 0.0
C1396 C 0.75114 0.76978 0.1688 0.0
H1397 H 0.79387 0.68918 0.08013 0.0
H1398 H 0.78867 0.70504 0.10902 0.0
C1399 C 0.74249 0.77982 0.18139 0.0
C1400 C 0.74883 0.74312 0.14591 0.0
H1401 H 0.75488 0.69894 0.13164 0.0
C1402 C 0.7551 0.75427 0.12976 0.0
C1403 C 0.74956 0.7231 0.14694 0.0
C1404 C 0.74429 0.71066 0.16437 0.0
C1405 C 0.761 0.74572 0.11422 0.0
C1406 C 0.7603 0.72543 0.11472 0.0
C1407 C 0.75515 0.71446 0.13123 0.0
C1408 C 0.76332 0.71522 0.0977 0.0
C1409 C 0.76757 0.75843 0.09723 0.0
C1410 C 0.75052 0.71532 0.08204 0.0
C1411 C 0.75341 0.70635 0.06566 0.0
C1412 C 0.76914 0.69695 0.0646 0.0
C1413 C 0.78168 0.69637 0.0805 0.0
C1414 C 0.77873 0.7054 0.09698 0.0
H1415 H 0.77285 0.77392 0.10099 0.0
H1416 H 0.77939 0.75342 0.09029 0.0
H1417 H 0.75505 0.75771 0.08698 0.0
H1418 H 0.73829 0.72247 0.08246 0.0
H1419 H 0.74337 0.70695 0.05375 0.0
H1420 H 0.03527 0.07432 0.10076 0.0
H1421 H 0.01303 0.07316 0.1262 0.0
H1422 H 0.02474 0.13596 0.12618 0.0
H1423 H 0.04756 0.13735 0.10096 0.0
H1424 H 0.02105 0.09272 0.16348 0.0
H1425 H 0.96333 0.11636 0.11739 0.0
H1426 H 0.98229 0.10618 0.1079 0.0
H1427 H 0.98799 0.13035 0.11678 0.0
C1428 C 0.03351 0.08792 0.10639 0.0
C1429 C 0.04323 0.10594 0.09878 0.0
C1430 C 0.02066 0.08722 0.12084 0.0
C1431 C 0.01714 0.10446 0.12787 0.0
C1432 C 0.02713 0.1225 0.12073 0.0
H1433 H 0.9238 0.10238 0.20738 0.0
H1434 H 0.95026 0.11543 0.18606 0.0
C1435 C 0.04011 0.12324 0.10632 0.0
C1436 C 0.00259 0.10327 0.14238 0.0
H1437 H 0.95516 0.10577 0.14815 0.0
C1438 C 0.00674 0.09586 0.16025 0.0
C1439 C 0.98403 0.10757 0.13811 0.0
C1440 C 0.97896 0.1155 0.11901 0.0
C1441 C 0.99251 0.09184 0.17379 0.0
C1442 C 0.97354 0.0949 0.16913 0.0
C1443 C 0.9697 0.10337 0.15161 0.0
C1444 C 0.9571 0.08736 0.18145 0.0
C1445 C 0.99778 0.0839 0.19284 0.0
C1446 C 0.95184 0.06727 0.18536 0.0
C1447 C 0.93684 0.05983 0.19738 0.0
C1448 C 0.92665 0.07232 0.20568 0.0
C1449 C 0.93142 0.09241 0.20122 0.0
C1450 C 0.94654 0.09988 0.18912 0.0
H1451 H 0.0137 0.08825 0.1962 0.0
H1452 H 0.98978 0.08904 0.20402 0.0
H1453 H 0.99383 0.06774 0.19289 0.0
H1454 H 0.95948 0.05732 0.17919 0.0
H1455 H 0.93344 0.04427 0.20036 0.0
H1456 H 0.28297 0.81879 0.20229 0.0
H1457 H 0.27558 0.8377 0.17434 0.0
H1458 H 0.21768 0.80157 0.16997 0.0
H1459 H 0.22527 0.78237 0.19772 0.0
H1460 H 0.23573 0.80437 0.13756 0.0
H1461 H 0.24298 0.87843 0.16459 0.0
H1462 H 0.26406 0.86852 0.17079 0.0
H1463 H 0.24078 0.85704 0.17987 0.0
C1464 C 0.26854 0.81523 0.19556 0.0
C1465 C 0.25455 0.79944 0.20227 0.0
C1466 C 0.26427 0.82608 0.1797 0.0
C1467 C 0.24591 0.82133 0.17031 0.0
C1468 C 0.23184 0.80565 0.17715 0.0
H1469 H 0.2203 0.88965 0.0694 0.0
H1470 H 0.2175 0.87376 0.1007 0.0
C1471 C 0.23614 0.79474 0.19298 0.0
C1472 C 0.24225 0.83137 0.15228 0.0
H1473 H 0.24593 0.87641 0.13115 0.0
C1474 C 0.23763 0.8201 0.13622 0.0
C1475 C 0.24446 0.85187 0.15055 0.0
C1476 C 0.24814 0.86464 0.16742 0.0
C1477 C 0.23622 0.82884 0.11838 0.0
C1478 C 0.23989 0.84939 0.11651 0.0
C1479 C 0.2434 0.86065 0.13263 0.0
C1480 C 0.24158 0.85939 0.09787 0.0
C1481 C 0.23119 0.81598 0.10162 0.0
C1482 C 0.25627 0.85685 0.08616 0.0
C1483 C 0.2579 0.86584 0.0684 0.0
C1484 C 0.24493 0.87766 0.062 0.0
C1485 C 0.23045 0.88055 0.07391 0.0
C1486 C 0.22884 0.87152 0.09177 0.0
H1487 H 0.22321 0.80111 0.10574 0.0
H1488 H 0.22214 0.82233 0.09091 0.0
H1489 H 0.24486 0.81454 0.09513 0.0
H1490 H 0.26649 0.84786 0.09078 0.0
H1491 H 0.26931 0.86341 0.05966 0.0
H1492 H 0.98264 0.46394 0.07875 0.0
H1493 H 0.00769 0.46228 0.10336 0.0
H1494 H 0.97048 0.4772 0.14436 0.0
H1495 H 0.94498 0.47795 0.12 0.0
H1496 H 0.02655 0.49157 0.124 0.0
H1497 H 0.98942 0.43286 0.17147 0.0
H1498 H 0.98012 0.43672 0.14792 0.0
H1499 H 0.9751 0.45099 0.16682 0.0
C1500 C 0.97957 0.46638 0.09307 0.0
C1501 C 0.96174 0.47101 0.09741 0.0
C1502 C 0.99396 0.46553 0.10711 0.0
C1503 C 0.99084 0.46927 0.12575 0.0
C1504 C 0.97303 0.47376 0.13016 0.0
H1505 H 0.06549 0.52339 0.21174 0.0
H1506 H 0.04447 0.51285 0.1844 0.0
C1507 C 0.95858 0.4745 0.11615 0.0
C1508 C 0.00681 0.47031 0.14029 0.0
H1509 H 0.01678 0.45579 0.18523 0.0
C1510 C 0.02453 0.48345 0.13724 0.0
C1511 C 0.00437 0.45947 0.15745 0.0
C1512 C 0.98629 0.44406 0.16103 0.0
C1513 C 0.03934 0.48698 0.15134 0.0
C1514 C 0.03619 0.47741 0.16904 0.0
C1515 C 0.01905 0.4633 0.1717 0.0
C1516 C 0.04949 0.48346 0.18545 0.0
C1517 C 0.05804 0.50134 0.1473 0.0
C1518 C 0.05898 0.47025 0.19539 0.0
C1519 C 0.07107 0.47624 0.21122 0.0
C1520 C 0.07361 0.49545 0.21737 0.0
C1521 C 0.06395 0.50852 0.20736 0.0
C1522 C 0.052 0.50256 0.19163 0.0
H1523 H 0.06081 0.50237 0.13206 0.0
H1524 H 0.05686 0.51602 0.15173 0.0
H1525 H 0.07073 0.49721 0.15506 0.0
H1526 H 0.05705 0.45537 0.1909 0.0
H1527 H 0.07825 0.46583 0.2187 0.0
H1528 H 0.31709 0.78102 0.2616 0.0
H1529 H 0.34786 0.78693 0.28018 0.0
H1530 H 0.35795 0.73117 0.26478 0.0
H1531 H 0.32759 0.72546 0.24561 0.0
H1532 H 0.35694 0.7648 0.31046 0.0
H1533 H 0.4102 0.76752 0.25496 0.0
H1534 H 0.38521 0.7694 0.2498 0.0
H1535 H 0.39114 0.74597 0.25478 0.0
C1536 C 0.32605 0.7702 0.26185 0.0
C1537 C 0.31991 0.75278 0.25211 0.0
C1538 C 0.34356 0.77354 0.27257 0.0
C1539 C 0.35528 0.75959 0.27368 0.0
C1540 C 0.3493 0.74228 0.26384 0.0
H1541 H 0.44161 0.74931 0.36259 0.0
H1542 H 0.41357 0.74379 0.3403 0.0
C1543 C 0.33182 0.73894 0.25308 0.0
C1544 C 0.37314 0.76265 0.28604 0.0
H1545 H 0.42235 0.76557 0.28658 0.0
C1546 C 0.37126 0.76506 0.30524 0.0
C1547 C 0.3918 0.76313 0.27914 0.0
C1548 C 0.3948 0.76156 0.25852 0.0
C1549 C 0.38752 0.7677 0.31779 0.0
C1550 C 0.40609 0.76754 0.31099 0.0
C1551 C 0.40804 0.76544 0.29175 0.0
C1552 C 0.42372 0.77006 0.32364 0.0
C1553 C 0.38472 0.77096 0.33816 0.0
C1554 C 0.43905 0.78624 0.32118 0.0
C1555 C 0.45517 0.78937 0.3338 0.0
C1556 C 0.45625 0.77633 0.34908 0.0
C1557 C 0.44117 0.75973 0.35108 0.0
C1558 C 0.42509 0.7566 0.33841 0.0
H1559 H 0.37075 0.77556 0.34015 0.0
H1560 H 0.38444 0.75716 0.34635 0.0
H1561 H 0.39689 0.78223 0.34398 0.0
H1562 H 0.4383 0.79673 0.30978 0.0
H1563 H 0.46656 0.80226 0.33179 0.0
H1564 H 0.91404 0.42757 0.0008 0.0
H1565 H 0.92409 0.40118 0.98479 0.0
H1566 H 0.98313 0.42092 0.00657 0.0
H1567 H 0.97299 0.44701 0.0229 0.0
H1568 H 0.95072 0.40624 0.95753 0.0
H1569 H 0.97414 0.3625 0.0172 0.0
H1570 H 0.95969 0.38055 0.02013 0.0
H1571 H 0.98564 0.38788 0.01777 0.0
C1572 C 0.92909 0.42607 0.00228 0.0
C1573 C 0.94283 0.43938 0.01278 0.0
C1574 C 0.93482 0.41105 0.99318 0.0
C1575 C 0.95432 0.40901 0.99461 0.0
C1576 C 0.96795 0.422 0.00555 0.0
H1577 H 0.01024 0.35241 0.91352 0.0
H1578 H 0.00091 0.37551 0.93427 0.0
C1579 C 0.9622 0.43698 0.01471 0.0
C1580 C 0.96068 0.39425 0.9835 0.0
H1581 H 0.98325 0.35558 0.98678 0.0
C1582 C 0.95774 0.3951 0.96393 0.0
C1583 C 0.96967 0.37964 0.99191 0.0
C1584 C 0.97232 0.37741 0.01292 0.0
C1585 C 0.96381 0.38191 0.95249 0.0
C1586 C 0.97346 0.36775 0.96084 0.0
C1587 C 0.97609 0.36665 0.98043 0.0
C1588 C 0.9804 0.35364 0.9494 0.0
C1589 C 0.95955 0.38305 0.9316 0.0
C1590 C 0.97256 0.33363 0.95157 0.0
C1591 C 0.97796 0.32037 0.93985 0.0
C1592 C 0.99135 0.3269 0.92574 0.0
C1593 C -0.00023 0.3469 0.92412 0.0
C1594 C 0.99439 0.36014 0.9359 0.0
H1595 H 0.94786 0.39125 0.92806 0.0
H1596 H 0.97293 0.39074 0.92463 0.0
H1597 H 0.95506 0.36826 0.92576 0.0
H1598 H 0.96182 0.32834 0.96199 0.0
H1599 H 0.97126 0.30506 0.94154 0.0
H1600 H 0.70341 0.82653 0.28686 0.0
H1601 H 0.67623 0.82199 0.30776 0.0
H1602 H 0.64045 0.78299 0.26863 0.0
H1603 H 0.66717 0.7884 0.2471 0.0
H1604 H 0.62181 0.80928 0.27907 0.0
H1605 H 0.65308 0.77824 0.34279 0.0
H1606 H 0.66822 0.80089 0.33537 0.0
H1607 H 0.66447 0.78017 0.32047 0.0
C1608 C 0.68976 0.81699 0.28266 0.0
C1609 C 0.68748 0.80792 0.26522 0.0
C1610 C 0.67432 0.81415 0.2948 0.0
C1611 C 0.65639 0.80188 0.28993 0.0
C1612 C 0.65421 0.7924 0.27275 0.0
H1613 H 0.55825 0.77312 0.36443 0.0
H1614 H 0.58653 0.77173 0.34607 0.0
C1615 C 0.66958 0.7954 0.26051 0.0
C1616 C 0.63942 0.80032 0.30193 0.0
H1617 H 0.62461 0.79144 0.34689 0.0
C1618 C 0.62237 0.80516 0.29385 0.0
C1619 C 0.64003 0.79469 0.32117 0.0
C1620 C 0.65737 0.788 0.3304 0.0
C1621 C 0.60614 0.80511 0.30456 0.0
C1622 C 0.6072 0.80068 0.32404 0.0
C1623 C 0.62397 0.79517 0.33203 0.0
C1624 C 0.59104 0.80185 0.33627 0.0
C1625 C 0.58798 0.80967 0.29483 0.0
C1626 C 0.58465 0.8194 0.33734 0.0
C1627 C 0.56844 0.82018 0.34764 0.0
C1628 C 0.55852 0.8035 0.35733 0.0
C1629 C 0.56557 0.7862 0.35706 0.0
C1630 C 0.5817 0.78537 0.34658 0.0
H1631 H 0.58741 0.80682 0.27959 0.0
H1632 H 0.57458 0.80092 0.30104 0.0
H1633 H 0.58798 0.82535 0.29635 0.0
H1634 H 0.59199 0.83243 0.32993 0.0
H1635 H 0.56351 0.8338 0.34776 0.0
H1636 H 0.02986 0.12836 0.03737 0.0
H1637 H 0.025 0.15108 0.01178 0.0
H1638 H 0.08647 0.16266 0.00143 0.0
H1639 H 0.09156 0.13996 0.02735 0.0
H1640 H 0.04468 0.19183 0.01011 0.0
H1641 H 0.05795 0.1502 0.9488 0.0
H1642 H 0.05187 0.13848 0.97133 0.0
H1643 H 0.07573 0.1532 0.96809 0.0
C1644 C 0.04239 0.1358 0.02975 0.0
C1645 C 0.06114 0.13254 0.03453 0.0
C1646 C 0.03956 0.14867 0.01505 0.0
C1647 C 0.05535 0.15845 0.0047 0.0
C1648 C 0.07406 0.15504 0.00914 0.0
H1649 H 0.04416 0.24606 0.91507 0.0
H1650 H 0.05887 0.22455 0.93663 0.0
C1651 C 0.07694 0.14211 0.02392 0.0
C1652 C 0.05201 0.17283 0.9899 0.0
H1653 H 0.04787 0.17984 0.94239 0.0
C1654 C 0.04561 0.18935 0.99531 0.0
C1655 C 0.05339 0.16956 0.97064 0.0
C1656 C 0.06001 0.15188 0.96422 0.0
C1657 C 0.03985 0.20235 0.98194 0.0
C1658 C 0.04025 0.19856 0.96268 0.0
C1659 C 0.04754 0.18258 0.9572 0.0
C1660 C 0.0315 0.21017 0.94831 0.0
C1661 C 0.03286 0.2198 0.98848 0.0
C1662 C 0.01126 0.20871 0.94746 0.0
C1663 C 0.00284 0.22086 0.93524 0.0
C1664 C 0.01454 0.23471 0.92361 0.0
C1665 C 0.03478 0.23556 0.92389 0.0
C1666 C 0.0432 0.22332 0.93616 0.0
H1667 H 0.03778 0.2232 0.00324 0.0
H1668 H 0.03819 0.23284 0.97939 0.0
H1669 H 0.01667 0.21668 0.98766 0.0
H1670 H 0.002 0.19848 0.95664 0.0
H1671 H 0.98721 0.21973 0.93531 0.0
H1672 H 0.31778 0.28804 0.26546 0.0
H1673 H 0.34734 0.2827 0.25126 0.0
H1674 H 0.35974 0.34243 0.23068 0.0
H1675 H 0.33012 0.34777 0.24477 0.0
H1676 H 0.35573 0.28899 0.21158 0.0
H1677 H 0.41142 0.33402 0.25868 0.0
H1678 H 0.38648 0.32499 0.26516 0.0
H1679 H 0.39237 0.34566 0.24931 0.0
C1680 C 0.32684 0.29999 0.25789 0.0
C1681 C 0.32171 0.31828 0.25602 0.0
C1682 C 0.34369 0.29695 0.24986 0.0
C1683 C 0.35576 0.31224 0.24013 0.0
C1684 C 0.35072 0.33055 0.23837 0.0
H1685 H 0.44188 0.31605 0.1586 0.0
H1686 H 0.41499 0.32 0.17756 0.0
C1687 C 0.33382 0.33355 0.24628 0.0
C1688 C 0.37316 0.30884 0.23105 0.0
H1689 H 0.42281 0.32287 0.23106 0.0
C1690 C 0.37041 0.29625 0.21591 0.0
C1691 C 0.39225 0.31827 0.23688 0.0
C1692 C 0.39593 0.33139 0.25349 0.0
C1693 C 0.38628 0.29333 0.20603 0.0
C1694 C 0.4053 0.30327 0.21146 0.0
C1695 C 0.40814 0.31539 0.22694 0.0
C1696 C 0.42227 0.3017 0.20068 0.0
C1697 C 0.38269 0.27982 0.18971 0.0
C1698 C 0.4354 0.29038 0.20767 0.0
C1699 C 0.45077 0.28799 0.19684 0.0
C1700 C 0.45328 0.29703 0.17894 0.0
C1701 C 0.44037 0.30886 0.1723 0.0
C1702 C 0.42498 0.31112 0.18308 0.0
H1703 H 0.36761 0.27084 0.18922 0.0
H1704 H 0.38494 0.28856 0.17642 0.0
H1705 H 0.3932 0.26997 0.19052 0.0
H1706 H 0.43348 0.28306 0.22129 0.0
H1707 H 0.46049 0.27884 0.20238 0.0
H1708 H 0.53391 0.44884 0.98125 0.0
H1709 H 0.52672 0.42396 0.00621 0.0
H1710 H 0.58515 0.41389 0.00499 0.0
H1711 H 0.5924 0.43844 0.97954 0.0
H1712 H 0.53195 0.38232 0.00601 0.0
H1713 H 0.57626 0.4285 0.06095 0.0
H1714 H 0.5675 0.43894 0.03955 0.0
H1715 H 0.58716 0.42633 0.039 0.0
C1716 C 0.54514 0.44108 0.98596 0.0
C1717 C 0.56375 0.44565 0.97838 0.0
C1718 C 0.54104 0.42699 0.00034 0.0
C1719 C 0.55549 0.41733 0.00751 0.0
C1720 C 0.57392 0.42143 -0.00026 0.0
H1721 H 0.54325 0.33589 0.10515 0.0
H1722 H 0.55774 0.35805 0.07974 0.0
C1723 C 0.57802 0.43546 0.98525 0.0
C1724 C 0.55112 0.40318 0.02333 0.0
H1725 H 0.55796 0.398 0.07077 0.0
C1726 C 0.53777 0.38562 0.02015 0.0
C1727 C 0.55891 0.40754 0.04167 0.0
C1728 C 0.57321 0.42637 0.04568 0.0
C1729 C 0.53158 0.37246 0.03497 0.0
C1730 C 0.53857 0.37727 0.05348 0.0
C1731 C 0.55256 0.39446 0.05657 0.0
C1732 C 0.53042 0.36524 0.06982 0.0
C1733 C 0.51745 0.35359 0.03069 0.0
C1734 C 0.51049 0.36266 0.07305 0.0
C1735 C 0.50222 0.35008 0.08742 0.0
C1736 C 0.51379 0.33999 0.09898 0.0
C1737 C 0.53399 0.34346 0.09644 0.0
C1738 C 0.54226 0.35603 0.08192 0.0
H1739 H 0.51821 0.34946 0.01591 0.0
H1740 H 0.52036 0.34149 0.04012 0.0
H1741 H 0.50236 0.35538 0.03277 0.0
H1742 H 0.50121 0.37005 0.06416 0.0
H1743 H 0.48665 0.3479 0.08915 0.0
H1744 H 0.69628 0.30674 0.26664 0.0
H1745 H 0.66815 0.31012 0.24611 0.0
H1746 H 0.659 0.24942 0.23261 0.0
H1747 H 0.68705 0.24587 0.25323 0.0
H1748 H 0.65406 0.27592 0.2012 0.0
H1749 H 0.6124 0.2852 0.26341 0.0
H1750 H 0.63565 0.30164 0.26139 0.0
H1751 H 0.6346 0.27603 0.26534 0.0
C1752 C 0.68833 0.29414 0.25921 0.0
C1753 C 0.6937 0.27597 0.26172 0.0
C1754 C 0.67233 0.29611 0.24748 0.0
C1755 C 0.66138 0.27995 0.23811 0.0
C1756 C 0.66729 0.26205 0.23977 0.0
H1757 H 0.54251 0.25293 0.1984 0.0
H1758 H 0.57477 0.255 0.21347 0.0
C1759 C 0.68333 0.26006 0.2515 0.0
C1760 C 0.643 0.28132 0.22764 0.0
H1761 H 0.59664 0.2871 0.23375 0.0
C1762 C 0.64151 0.27849 0.20823 0.0
C1763 C 0.62666 0.28448 0.23699 0.0
C1764 C 0.62724 0.28686 0.25795 0.0
C1765 C 0.62399 0.27864 0.1979 0.0
C1766 C 0.60768 0.28183 0.20726 0.0
C1767 C 0.60925 0.28482 0.22663 0.0
C1768 C 0.58839 0.2807 0.19756 0.0
C1769 C 0.62281 0.27477 0.17719 0.0
C1770 C 0.58536 0.29458 0.18368 0.0
C1771 C 0.56684 0.29347 0.17502 0.0
C1772 C 0.55112 0.27848 0.18015 0.0
C1773 C 0.55428 0.26466 0.1941 0.0
C1774 C 0.57272 0.26581 0.20274 0.0
H1775 H 0.6356 0.26931 0.17277 0.0
H1776 H 0.60931 0.26395 0.17347 0.0
H1777 H 0.62228 0.2885 0.16914 0.0
H1778 H 0.59725 0.30635 0.17971 0.0
H1779 H 0.56485 0.30434 0.16434 0.0
H1780 H 0.45431 0.10706 0.01574 0.0
H1781 H 0.45735 0.13175 0.03952 0.0
H1782 H 0.48095 0.17651 0.99892 0.0
H1783 H 0.47765 0.15189 0.97483 0.0
H1784 H 0.50206 0.17758 0.03496 0.0
H1785 H 0.42254 0.17296 0.04108 0.0
H1786 H 0.43009 0.15001 0.04294 0.0
H1787 H 0.43254 0.1639 0.02121 0.0
C1788 C 0.45994 0.12219 0.01179 0.0
C1789 C 0.46555 0.12757 0.99335 0.0
C1790 C 0.4617 0.13623 0.0254 0.0
C1791 C 0.46908 0.15591 0.02085 0.0
C1792 C 0.47512 0.16135 0.00261 0.0
H1793 H 0.46652 0.25669 0.08582 0.0
H1794 H 0.46249 0.23207 0.06186 0.0
C1795 C 0.47332 0.14729 0.98893 0.0
C1796 C 0.47069 0.17073 0.03526 0.0
H1797 H 0.44365 0.19149 0.06381 0.0
C1798 C 0.48932 0.18071 0.04125 0.0
C1799 C 0.45399 0.17481 0.04324 0.0
C1800 C 0.43363 0.16501 0.03672 0.0
C1801 C 0.49172 0.19447 0.05536 0.0
C1802 C 0.47504 0.19813 0.06373 0.0
C1803 C 0.45639 0.18843 0.05747 0.0
C1804 C 0.47666 0.2124 0.07867 0.0
C1805 C 0.51203 0.20517 0.06105 0.0
C1806 C 0.48552 0.20917 0.09619 0.0
C1807 C 0.48781 0.22317 0.10997 0.0
C1808 C 0.48125 0.24061 0.1064 0.0
C1809 C 0.47181 0.24346 0.089 0.0
C1810 C 0.46948 0.22943 0.07529 0.0
H1811 H 0.52284 0.20374 0.05061 0.0
H1812 H 0.51241 0.2209 0.06282 0.0
H1813 H 0.51654 0.19904 0.07471 0.0
H1814 H 0.49086 0.19592 0.09912 0.0
H1815 H 0.49509 0.2205 0.12324 0.0
H1816 H 0.21464 0.37499 0.72651 0.0
H1817 H 0.23517 0.40778 0.72581 0.0
H1818 H 0.28639 0.38332 0.72308 0.0
H1819 H 0.26595 0.35039 0.72422 0.0
H1820 H 0.28861 0.41016 0.75143 0.0
H1821 H 0.26508 0.44017 0.68321 0.0
H1822 H 0.24538 0.42946 0.69797 0.0
H1823 H 0.26032 0.41435 0.68892 0.0
C1824 C 0.23027 0.37659 0.72568 0.0
C1825 C 0.23871 0.36011 0.72554 0.0
C1826 C 0.24195 0.39534 0.72505 0.0
C1827 C 0.26226 0.39797 0.72417 0.0
C1828 C 0.2707 0.38158 0.72361 0.0
H1829 H 0.34941 0.50516 0.71396 0.0
H1830 H 0.32691 0.47405 0.70827 0.0
C1831 C 0.25902 0.3628 0.72418 0.0
C1832 C 0.27476 0.41772 0.72546 0.0
H1833 H 0.28431 0.46295 0.70417 0.0
C1834 C 0.28775 0.42168 0.74105 0.0
C1835 C 0.27365 0.43266 0.71183 0.0
C1836 C 0.26049 0.42896 0.69444 0.0
C1837 C 0.29945 0.44029 0.74358 0.0
C1838 C 0.2979 0.45538 0.73028 0.0
C1839 C 0.28522 0.45137 0.71446 0.0
C1840 C 0.30984 0.47527 0.73245 0.0
C1841 C 0.31352 0.44361 0.76039 0.0
C1842 C 0.30721 0.48653 0.74755 0.0
C1843 C 0.32002 0.50432 0.75087 0.0
C1844 C 0.33569 0.51114 0.73911 0.0
C1845 C 0.33759 0.50029 0.72337 0.0
C1846 C 0.32473 0.48252 0.72006 0.0
H1847 H 0.31591 0.42968 0.767 0.0
H1848 H 0.32782 0.45257 0.75636 0.0
H1849 H 0.30753 0.45162 0.77102 0.0
H1850 H 0.2956 0.48125 0.75711 0.0
H1851 H 0.31807 0.51235 0.76304 0.0
H1852 H 0.28431 0.74458 0.74532 0.0
H1853 H 0.30111 0.71743 0.74295 0.0
H1854 H 0.29857 0.70711 0.80279 0.0
H1855 H 0.28193 0.73435 0.80524 0.0
H1856 H 0.33831 0.71125 0.76614 0.0
H1857 H 0.2706 0.6544 0.77506 0.0
H1858 H 0.27012 0.67892 0.76668 0.0
H1859 H 0.27522 0.67422 0.79108 0.0
C1860 C 0.28749 0.73659 0.75795 0.0
C1861 C 0.28185 0.74145 0.77547 0.0
C1862 C 0.29707 0.72115 0.75659 0.0
C1863 C 0.30094 0.71029 0.77268 0.0
C1864 C 0.29559 0.71532 0.79022 0.0
H1865 H 0.34143 0.6044 0.79705 0.0
H1866 H 0.32852 0.63403 0.79737 0.0
C1867 C 0.28615 0.73082 0.79161 0.0
C1868 C 0.31006 0.6933 0.77117 0.0
H1869 H 0.30018 0.64363 0.77443 0.0
C1870 C 0.33003 0.69643 0.76784 0.0
C1871 C 0.29914 0.67408 0.77344 0.0
C1872 C 0.27754 0.67005 0.77665 0.0
C1873 C 0.33954 0.68074 0.76725 0.0
C1874 C 0.32861 0.66145 0.76961 0.0
C1875 C 0.30855 0.6584 0.77266 0.0
C1876 C 0.33766 0.64416 0.76955 0.0
C1877 C 0.36127 0.68499 0.76474 0.0
C1878 C 0.34719 0.64001 0.75382 0.0
C1879 C 0.35477 0.6231 0.75365 0.0
C1880 C 0.35269 0.60993 0.76913 0.0
C1881 C 0.34325 0.61421 0.78488 0.0
C1882 C 0.33584 0.63115 0.78509 0.0
H1883 H 0.36817 0.70028 0.76816 0.0
H1884 H 0.3684 0.67503 0.77371 0.0
H1885 H 0.36407 0.68282 0.74989 0.0
H1886 H 0.34838 0.64961 0.7415 0.0
H1887 H 0.36185 0.62012 0.74126 0.0
H1888 H 0.92315 0.56442 0.44365 0.0
H1889 H 0.89149 0.54147 0.44373 0.0
H1890 H 0.8972 0.53464 0.50388 0.0
H1891 H 0.9289 0.55717 0.50394 0.0
H1892 H 0.88211 0.50137 0.45928 0.0
H1893 H 0.84404 0.55199 0.493 0.0
H1894 H 0.8669 0.56018 0.4816 0.0
H1895 H 0.86657 0.54923 0.50478 0.0
C1896 C 0.91776 0.55784 0.45686 0.0
C1897 C 0.92842 0.56275 0.47382 0.0
C1898 C 0.89967 0.54484 0.45688 0.0
C1899 C 0.89196 0.53671 0.47385 0.0
C1900 C 0.90279 0.54112 0.4907 0.0
H1901 H 0.80344 0.439 0.5048 0.0
H1902 H 0.8334 0.4626 0.49809 0.0
C1903 C 0.92086 0.55401 0.49069 0.0
C1904 C 0.87256 0.52355 0.47413 0.0
H1905 H 0.82747 0.51868 0.49189 0.0
C1906 C 0.87007 0.50518 0.46621 0.0
C1907 C 0.85688 0.52875 0.48297 0.0
C1908 C 0.85859 0.54868 0.49094 0.0
C1909 C 0.85245 0.49147 0.46765 0.0
C1910 C 0.83712 0.4963 0.4774 0.0
C1911 C 0.83934 0.51499 0.48458 0.0
C1912 C 0.81896 0.4819 0.48102 0.0
C1913 C 0.85041 0.4719 0.45885 0.0
C1914 C 0.80091 0.48522 0.474 0.0
C1915 C 0.78371 0.4718 0.47787 0.0
C1916 C 0.7843 0.45493 0.48898 0.0
C1917 C 0.80245 0.4518 0.49615 0.0
C1918 C 0.81961 0.46519 0.49222 0.0
H1919 H 0.86111 0.4724 0.44777 0.0
H1920 H 0.85312 0.46104 0.46981 0.0
H1921 H 0.83546 0.46682 0.45264 0.0
H1922 H 0.80015 0.49816 0.46547 0.0
H1923 H 0.76998 0.47467 0.47216 0.0
H1924 H 0.74572 0.84489 0.77993 0.0
H1925 H 0.72145 0.86544 0.77754 0.0
H1926 H 0.73837 0.88544 0.83347 0.0
H1927 H 0.76301 0.86538 0.8358 0.0
H1928 H 0.6894 0.86723 0.80126 0.0
H1929 H 0.74619 0.93565 0.79965 0.0
H1930 H 0.75148 0.91209 0.79563 0.0
H1931 H 0.74877 0.91924 0.8191 0.0
C1932 C 0.7443 0.85371 0.7917 0.0
C1933 C 0.75641 0.85366 0.80799 0.0
C1934 C 0.73034 0.8653 0.79036 0.0
C1935 C 0.72833 0.8771 0.80524 0.0
C1936 C 0.73989 0.87658 0.82176 0.0
H1937 H 0.6663 0.9676 0.82295 0.0
H1938 H 0.68464 0.94167 0.82611 0.0
C1939 C 0.75384 0.865 0.82312 0.0
C1940 C 0.71474 0.8906 0.80323 0.0
H1941 H 0.71354 0.93893 0.80191 0.0
C1942 C 0.69461 0.88291 0.80133 0.0
C1943 C 0.72168 0.91102 0.80321 0.0
C1944 C 0.74321 0.92006 0.80434 0.0
C1945 C 0.68114 0.8952 0.79996 0.0
C1946 C 0.6881 0.91562 0.80021 0.0
C1947 C 0.70825 0.92325 0.80185 0.0
C1948 C 0.6749 0.92956 0.79903 0.0
C1949 C 0.65961 0.88627 0.79872 0.0
C1950 C 0.66305 0.93113 0.78287 0.0
C1951 C 0.65245 0.94595 0.78103 0.0
C1952 C 0.65373 0.95952 0.79527 0.0
C1953 C 0.66507 0.95744 0.81169 0.0
C1954 C 0.67556 0.94263 0.81354 0.0
H1955 H 0.65658 0.87061 0.80315 0.0
H1956 H 0.65138 0.89413 0.80756 0.0
H1957 H 0.6541 0.88737 0.78397 0.0
H1958 H 0.66262 0.9214 0.77137 0.0
H1959 H 0.6439 0.94723 0.76818 0.0
H1960 H 0.60752 0.50614 0.98696 0.0
H1961 H 0.63745 0.53074 0.99176 0.0
H1962 H 0.64452 0.53615 0.93199 0.0
H1963 H 0.61452 0.51133 0.92703 0.0
H1964 H 0.67547 0.53015 0.98073 0.0
H1965 H 0.64729 0.59264 0.94826 0.0
H1966 H 0.6314 0.5699 0.95494 0.0
H1967 H 0.64492 0.57163 0.934 0.0
C1968 C 0.61553 0.51239 0.97483 0.0
C1969 C 0.60871 0.50674 0.95661 0.0
C1970 C 0.63257 0.52651 0.97759 0.0
C1971 C 0.64306 0.53534 0.96222 0.0
C1972 C 0.63643 0.52969 0.94401 0.0
H1973 H 0.76032 0.60834 0.97564 0.0
H1974 H 0.7325 0.58305 0.96552 0.0
C1975 C 0.61933 0.51554 0.94121 0.0
C1976 C 0.66097 0.55043 0.9655 0.0
H1977 H 0.68005 0.59908 0.95967 0.0
C1978 C 0.67657 0.5452 0.97602 0.0
C1979 C 0.66218 0.57005 0.95946 0.0
C1980 C 0.64553 0.57652 0.94865 0.0
C1981 C 0.69333 0.55916 0.98092 0.0
C1982 C 0.69456 0.57879 0.97489 0.0
C1983 C 0.67906 0.58398 0.96415 0.0
C1984 C 0.71136 0.59433 0.98046 0.0
C1985 C 0.70928 0.55294 0.99306 0.0
C1986 C 0.70856 0.60925 0.99187 0.0
C1987 C 0.72437 0.62376 0.99763 0.0
C1988 C 0.74328 0.62364 0.992 0.0
C1989 C 0.74597 0.60879 0.98033 0.0
C1990 C 0.73012 0.59429 0.97457 0.0
H1991 H 0.70429 0.53828 -0.00028 0.0
H1992 H 0.72176 0.55236 0.98428 0.0
H1993 H 0.7146 0.56357 0.00425 0.0
H1994 H 0.69415 0.60953 0.99652 0.0
H1995 H 0.72177 0.63499 0.00655 0.0
H1996 H 0.28095 0.69082 0.23187 0.0
H1997 H 0.26019 0.6584 0.23606 0.0
H1998 H 0.2102 0.68428 0.2411 0.0
H1999 H 0.23095 0.7168 0.23754 0.0
H2000 H 0.21407 0.65686 0.26934 0.0
H2001 H 0.21976 0.62766 0.1991 0.0
H2002 H 0.24281 0.63723 0.21087 0.0
H2003 H 0.22678 0.65333 0.20388 0.0
C2004 C 0.26553 0.68961 0.23389 0.0
C2005 C 0.25759 0.70638 0.23439 0.0
C2006 C 0.25367 0.67107 0.23606 0.0
C2007 C 0.23364 0.66896 0.23863 0.0
C2008 C 0.22562 0.68563 0.23899 0.0
H2009 H 0.14194 0.56545 0.23682 0.0
H2010 H 0.16439 0.59632 0.23006 0.0
C2011 C 0.23747 0.70418 0.23683 0.0
C2012 C 0.22119 0.64942 0.24193 0.0
H2013 H 0.20441 0.60512 0.22226 0.0
C2014 C 0.21192 0.64555 0.25904 0.0
C2015 C 0.21834 0.63478 0.22839 0.0
C2016 C 0.22729 0.63845 0.20945 0.0
C2017 C 0.19993 0.62734 0.26307 0.0
C2018 C 0.19744 0.61254 0.24973 0.0
C2019 C 0.20657 0.61645 0.23253 0.0
C2020 C 0.18475 0.59317 0.25312 0.0
C2021 C 0.18969 0.62424 0.2814 0.0
C2022 C 0.18906 0.58096 0.26803 0.0
C2023 C 0.17623 0.56331 0.27198 0.0
C2024 C 0.15891 0.55753 0.26101 0.0
C2025 C 0.15507 0.56948 0.24561 0.0
C2026 C 0.1679 0.58712 0.2417 0.0
H2027 H 0.18952 0.63826 0.28804 0.0
H2028 H 0.17442 0.61604 0.27931 0.0
H2029 H 0.19745 0.61559 0.29128 0.0
H2030 H 0.20219 0.58524 0.27679 0.0
H2031 H 0.17971 0.55439 0.28386 0.0
H2032 H 0.90726 0.50627 0.09639 0.0
H2033 H 0.89054 0.53379 0.09395 0.0
H2034 H 0.8995 0.53907 0.03452 0.0
H2035 H 0.9165 0.51212 0.03681 0.0
H2036 H 0.90548 0.57478 0.07587 0.0
H2037 H 0.83833 0.53067 0.04235 0.0
H2038 H 0.85553 0.51991 0.05658 0.0
H2039 H 0.86075 0.52777 0.03278 0.0
C2040 C 0.90581 0.51343 0.08285 0.0
C2041 C 0.91294 0.5068 0.06674 0.0
C2042 C 0.89624 0.52909 0.08149 0.0
C2043 C 0.89363 0.53823 0.06403 0.0
C2044 C 0.90116 0.53199 0.04808 0.0
H2045 H 0.8507 0.62384 0.00204 0.0
H2046 H 0.8676 0.59993 0.01698 0.0
C2047 C 0.91074 0.51648 0.04941 0.0
C2048 C 0.88268 0.55405 0.06198 0.0
H2049 H 0.8426 0.56528 0.03897 0.0
C2050 C 0.89151 0.5727 0.0682 0.0
C2051 C 0.86447 0.55118 0.05201 0.0
C2052 C 0.85407 0.53127 0.04566 0.0
C2053 C 0.88308 0.58885 0.06359 0.0
C2054 C 0.86549 0.58611 0.05261 0.0
C2055 C 0.85616 0.56729 0.04733 0.0
C2056 C 0.85747 0.60265 0.04467 0.0
C2057 C 0.89346 0.60889 0.0695 0.0
C2058 C 0.84655 0.61239 0.05547 0.0
C2059 C 0.83681 0.62615 0.04695 0.0
C2060 C 0.8378 0.63019 0.02751 0.0
C2061 C 0.84955 0.62102 0.01701 0.0
C2062 C 0.85924 0.60736 0.02551 0.0
H2063 H 0.90718 0.60862 0.07785 0.0
H2064 H 0.89696 0.61854 0.0569 0.0
H2065 H 0.88373 0.61535 0.07802 0.0
H2066 H 0.84494 0.60879 0.07028 0.0
H2067 H 0.82782 0.63293 0.05539 0.0
H2068 H 0.10865 0.0656 0.033 0.0
H2069 H 0.13031 0.04309 0.02807 0.0
H2070 H 0.09904 0.00215 0.0682 0.0
H2071 H 0.07737 0.02458 0.07313 0.0
H2072 H 0.15437 0.0249 0.05508 0.0
H2073 H 0.09547 0.97194 0.01833 0.0
H2074 H 0.09369 0.99683 0.02186 0.0
H2075 H 0.09013 0.9793 0.04102 0.0
C2076 C 0.1066 0.05187 0.04088 0.0
C2077 C 0.09137 0.04674 0.05336 0.0
C2078 C 0.11892 0.03907 0.03809 0.0
C2079 C 0.1161 0.02091 0.04764 0.0
C2080 C 0.10128 0.01601 0.06056 0.0
H2081 H 0.19531 0.93945 0.04223 0.0
H2082 H 0.1735 0.95889 0.05422 0.0
C2083 C 0.08898 0.02883 0.06339 0.0
C2084 C 0.12818 0.00681 0.04344 0.0
H2085 H 0.12633 0.96377 0.02198 0.0
C2086 C 0.14826 0.01144 0.048 0.0
C2087 C 0.12011 0.98937 0.03407 0.0
C2088 C 0.0987 0.98402 0.02837 0.0
C2089 C 0.16057 0.99914 0.04323 0.0
C2090 C 0.1525 0.98177 0.03375 0.0
C2091 C 0.13239 0.97703 0.0294 0.0
C2092 C 0.16494 0.96919 0.0268 0.0
C2093 C 0.18219 0.0051 0.04774 0.0
C2094 C 0.1669 0.96821 0.00744 0.0
C2095 C 0.17928 0.95719 0.00058 0.0
C2096 C 0.18983 0.94679 0.01295 0.0
C2097 C 0.18738 0.9473 0.03235 0.0
C2098 C 0.17504 0.95847 0.03923 0.0
H2099 H 0.18644 0.02031 0.05263 0.0
H2100 H 0.1864 0.99523 0.05898 0.0
H2101 H 0.19057 0.00376 0.03522 0.0
H2102 H 0.15916 0.97634 0.99763 0.0
H2103 H 0.18079 0.95706 0.98555 0.0
loop_
_geom_bond_atom_site_label_1
_geom_bond_atom_site_label_2
_geom_bond_distance
_geom_bond_site_symmetry_2
_ccdc_geom_bond_type
H0 C7 0.929 . S
H1 C10 0.930 . S
H2 C12 0.929 . S
H3 C4 0.969 . S
C4 H3 0.969 . S
C4 O5 1.550 . S
C4 H6 0.973 . S
O5 C4 1.550 . S
O5 C11 1.412 . S
H6 C4 0.973 . S
C7 H0 0.929 . S
C7 C8 1.400 . S
C7 C9 1.364 . S
C8 C7 1.400 . S
C8 C12 1.377 . S
C9 C7 1.364 . S
C9 C10 1.374 . S
C10 H1 0.930 . S
C10 C9 1.374 . S
C10 C11 1.383 . S
C11 O5 1.412 . S
C11 C10 1.383 . S
C11 C12 1.394 . S
C12 H2 0.929 . S
C12 C8 1.377 . S
C12 C11 1.394 . S
H13 C20 0.929 . S
H14 C23 0.930 . S
H15 C25 0.929 . S
H16 C17 0.969 . S
C17 H16 0.969 . S
C17 O18 1.550 . S
C17 H19 0.973 . S
O18 C17 1.550 . S
O18 C24 1.412 . S
H19 C17 0.973 . S
C20 H13 0.929 . S
C20 C21 1.400 . S
C20 C22 1.364 . S
C21 C20 1.400 . S
C21 C25 1.377 . S
C22 C20 1.364 . S
C22 C23 1.374 . S
C23 H14 0.930 . S
C23 C22 1.374 . S
C23 C24 1.383 . S
C24 O18 1.412 . S
C24 C23 1.383 . S
C24 C25 1.394 . S
C25 H15 0.929 . S
C25 C21 1.377 . S
C25 C24 1.394 . S
H26 C33 0.929 . S
H27 C36 0.930 . S
H28 C38 0.929 . S
H29 C30 0.969 . S
C30 H29 0.969 . S
C30 O31 1.550 . S
C30 H32 0.973 . S
O31 C30 1.550 . S
O31 C37 1.412 . S
H32 C30 0.973 . S
C33 H26 0.929 . S
C33 C34 1.400 . S
C33 C35 1.364 . S
C34 C33 1.400 . S
C34 C38 1.377 . S
C35 C33 1.364 . S
C35 C36 1.374 . S
C36 H27 0.930 . S
C36 C35 1.374 . S
C36 C37 1.383 . S
C37 O31 1.412 . S
C37 C36 1.383 . S
C37 C38 1.394 . S
C38 H28 0.929 . S
C38 C34 1.377 . S
C38 C37 1.394 . S
H39 C46 0.929 . S
H40 C49 0.930 . S
H41 C51 0.929 . S
H42 C43 0.969 . S
C43 H42 0.969 . S
C43 O44 1.550 . S
C43 H45 0.973 . S
O44 C43 1.550 . S
O44 C50 1.412 . S
H45 C43 0.973 . S
C46 H39 0.929 . S
C46 C47 1.400 . S
C46 C48 1.364 . S
C47 C46 1.400 . S
C47 C51 1.377 . S
C48 C46 1.364 . S
C48 C49 1.374 . S
C49 H40 0.930 . S
C49 C48 1.374 . S
C49 C50 1.383 . S
C50 O44 1.412 . S
C50 C49 1.383 . S
C50 C51 1.394 . S
C51 H41 0.929 . S
C51 C47 1.377 . S
C51 C50 1.394 . S
H52 C59 0.929 . S
H53 C62 0.930 . S
H54 C64 0.929 . S
H55 C56 0.969 . S
C56 H55 0.969 . S
C56 O57 1.550 . S
C56 H58 0.973 . S
O57 C56 1.550 . S
O57 C63 1.412 . S
H58 C56 0.973 . S
C59 H52 0.929 . S
C59 C60 1.400 . S
C59 C61 1.364 . S
C60 C59 1.400 . S
C60 C64 1.377 . S
C61 C59 1.364 . S
C61 C62 1.374 . S
C62 H53 0.930 . S
C62 C61 1.374 . S
C62 C63 1.383 . S
C63 O57 1.412 . S
C63 C62 1.383 . S
C63 C64 1.394 . S
C64 H54 0.929 . S
C64 C60 1.377 . S
C64 C63 1.394 . S
H65 C72 0.929 . S
H66 C75 0.930 . S
H67 C77 0.929 . S
H68 C69 0.969 . S
C69 H68 0.969 . S
C69 O70 1.550 . S
C69 H71 0.973 . S
O70 C69 1.550 . S
O70 C76 1.412 . S
H71 C69 0.973 . S
C72 H65 0.929 . S
C72 C73 1.400 . S
C72 C74 1.364 . S
C73 C72 1.400 . S
C73 C77 1.377 . S
C74 C72 1.364 . S
C74 C75 1.374 . S
C75 H66 0.930 . S
C75 C74 1.374 . S
C75 C76 1.383 . S
C76 O70 1.412 . S
C76 C75 1.383 . S
C76 C77 1.394 . S
C77 H67 0.929 . S
C77 C73 1.377 . S
C77 C76 1.394 . S
H78 C85 0.929 . S
H79 C88 0.930 . S
H80 C90 0.929 . S
H81 C82 0.969 . S
C82 H81 0.969 . S
C82 O83 1.550 . S
C82 H84 0.973 . S
O83 C82 1.550 . S
O83 C89 1.412 . S
H84 C82 0.973 . S
C85 H78 0.929 . S
C85 C86 1.400 . S
C85 C87 1.364 . S
C86 C85 1.400 . S
C86 C90 1.377 . S
C87 C85 1.364 . S
C87 C88 1.374 . S
C88 H79 0.930 . S
C88 C87 1.374 . S
C88 C89 1.383 . S
C89 O83 1.412 . S
C89 C88 1.383 . S
C89 C90 1.394 . S
C90 H80 0.929 . S
C90 C86 1.377 . S
C90 C89 1.394 . S
H91 C98 0.929 . S
H92 C101 0.930 . S
H93 C103 0.929 . S
H94 C95 0.969 . S
C95 H94 0.969 . S
C95 O96 1.550 . S
C95 H97 0.973 . S
O96 C95 1.550 . S
O96 C102 1.412 . S
H97 C95 0.973 . S
C98 H91 0.929 . S
C98 C99 1.400 . S
C98 C100 1.364 . S
C99 C98 1.400 . S
C99 C103 1.377 . S
C100 C98 1.364 . S
C100 C101 1.374 . S
C101 H92 0.930 . S
C101 C100 1.374 . S
C101 C102 1.383 . S
C102 O96 1.412 . S
C102 C101 1.383 . S
C102 C103 1.394 . S
C103 H93 0.929 . S
C103 C99 1.377 . S
C103 C102 1.394 . S
H104 C111 0.929 . S
H105 C114 0.930 . S
H106 C116 0.929 . S
H107 C108 0.969 . S
C108 H107 0.969 . S
C108 O109 1.550 . S
C108 H110 0.973 . S
O109 C108 1.550 . S
O109 C115 1.412 . S
H110 C108 0.973 . S
C111 H104 0.929 . S
C111 C112 1.400 . S
C111 C113 1.364 . S
C112 C111 1.400 . S
C112 C116 1.377 . S
C113 C111 1.364 . S
C113 C114 1.374 . S
C114 H105 0.930 . S
C114 C113 1.374 . S
C114 C115 1.383 . S
C115 O109 1.412 . S
C115 C114 1.383 . S
C115 C116 1.394 . S
C116 H106 0.929 . S
C116 C112 1.377 . S
C116 C115 1.394 . S
H117 C124 0.929 . S
H118 C127 0.930 . S
H119 C129 0.929 . S
H120 C121 0.969 . S
C121 H120 0.969 . S
C121 O122 1.550 . S
C121 H123 0.973 . S
O122 C121 1.550 . S
O122 C128 1.412 . S
H123 C121 0.973 . S
C124 H117 0.929 . S
C124 C125 1.400 . S
C124 C126 1.364 . S
C125 C124 1.400 . S
C125 C129 1.377 . S
C126 C124 1.364 . S
C126 C127 1.374 . S
C127 H118 0.930 . S
C127 C126 1.374 . S
C127 C128 1.383 . S
C128 O122 1.412 . S
C128 C127 1.383 . S
C128 C129 1.394 . S
C129 H119 0.929 . S
C129 C125 1.377 . S
C129 C128 1.394 . S
H130 C137 0.929 . S
H131 C140 0.930 . S
H132 C142 0.929 . S
H133 C134 0.969 . S
C134 H133 0.969 . S
C134 O135 1.550 . S
C134 H136 0.973 . S
O135 C134 1.550 . S
O135 C141 1.412 . S
H136 C134 0.973 . S
C137 H130 0.929 . S
C137 C138 1.400 . S
C137 C139 1.364 . S
C138 C137 1.400 . S
C138 C142 1.377 . S
C139 C137 1.364 . S
C139 C140 1.374 . S
C140 H131 0.930 . S
C140 C139 1.374 . S
C140 C141 1.383 . S
C141 O135 1.412 . S
C141 C140 1.383 . S
C141 C142 1.394 . S
C142 H132 0.929 . S
C142 C138 1.377 . S
C142 C141 1.394 . S
H143 C150 0.929 . S
H144 C153 0.930 . S
H145 C155 0.929 . S
H146 C147 0.969 . S
C147 H146 0.969 . S
C147 O148 1.550 . S
C147 H149 0.973 . S
O148 C147 1.550 . S
O148 C154 1.412 . S
H149 C147 0.973 . S
C150 H143 0.929 . S
C150 C151 1.400 . S
C150 C152 1.364 . S
C151 C150 1.400 . S
C151 C155 1.377 . S
C152 C150 1.364 . S
C152 C153 1.374 . S
C153 H144 0.930 . S
C153 C152 1.374 . S
C153 C154 1.383 . S
C154 O148 1.412 . S
C154 C153 1.383 . S
C154 C155 1.394 . S
C155 H145 0.929 . S
C155 C151 1.377 . S
C155 C154 1.394 . S
H156 C163 0.929 . S
H157 C166 0.930 . S
H158 C168 0.929 . S
H159 C160 0.969 . S
C160 H159 0.969 . S
C160 O161 1.550 . S
C160 H162 0.973 . S
O161 C160 1.550 . S
O161 C167 1.412 . S
H162 C160 0.973 . S
C163 H156 0.929 . S
C163 C164 1.400 . S
C163 C165 1.364 . S
C164 C163 1.400 . S
C164 C168 1.377 . S
C165 C163 1.364 . S
C165 C166 1.374 . S
C166 H157 0.930 . S
C166 C165 1.374 . S
C166 C167 1.383 . S
C167 O161 1.412 . S
C167 C166 1.383 . S
C167 C168 1.394 . S
C168 H158 0.929 . S
C168 C164 1.377 . S
C168 C167 1.394 . S
H169 C176 0.929 . S
H170 C179 0.930 . S
H171 C181 0.929 . S
H172 C173 0.969 . S
C173 H172 0.969 . S
C173 O174 1.550 . S
C173 H175 0.973 . S
O174 C173 1.550 . S
O174 C180 1.412 . S
H175 C173 0.973 . S
C176 H169 0.929 . S
C176 C177 1.400 . S
C176 C178 1.364 . S
C177 C176 1.400 . S
C177 C181 1.377 . S
C178 C176 1.364 . S
C178 C179 1.374 . S
C179 H170 0.930 . S
C179 C178 1.374 . S
C179 C180 1.383 . S
C180 O174 1.412 . S
C180 C179 1.383 . S
C180 C181 1.394 . S
C181 H171 0.929 . S
C181 C177 1.377 . S
C181 C180 1.394 . S
H182 C189 0.929 . S
H183 C192 0.930 . S
H184 C194 0.929 . S
H185 C186 0.969 . S
C186 H185 0.969 . S
C186 O187 1.550 . S
C186 H188 0.973 . S
O187 C186 1.550 . S
O187 C193 1.412 . S
H188 C186 0.973 . S
C189 H182 0.929 . S
C189 C190 1.400 . S
C189 C191 1.364 . S
C190 C189 1.400 . S
C190 C194 1.377 . S
C191 C189 1.364 . S
C191 C192 1.374 . S
C192 H183 0.930 . S
C192 C191 1.374 . S
C192 C193 1.383 . S
C193 O187 1.412 . S
C193 C192 1.383 . S
C193 C194 1.394 . S
C194 H184 0.929 . S
C194 C190 1.377 . S
C194 C193 1.394 . S
H195 C202 0.929 . S
H196 C205 0.930 . S
H197 C207 0.929 . S
H198 C199 0.969 . S
C199 H198 0.969 . S
C199 O200 1.550 . S
C199 H201 0.973 . S
O200 C199 1.550 . S
O200 C206 1.412 . S
H201 C199 0.973 . S
C202 H195 0.929 . S
C202 C203 1.400 . S
C202 C204 1.364 . S
C203 C202 1.400 . S
C203 C207 1.377 . S
C204 C202 1.364 . S
C204 C205 1.374 . S
C205 H196 0.930 . S
C205 C204 1.374 . S
C205 C206 1.383 . S
C206 O200 1.412 . S
C206 C205 1.383 . S
C206 C207 1.394 . S
C207 H197 0.929 . S
C207 C203 1.377 . S
C207 C206 1.394 . S
O208 Cd209 2.223 . S
O208 C216 1.315 1_554 S
Cd209 O208 2.223 . S
Cd209 O212 2.297 . S
Cd209 O213 2.439 . S
Cd209 O219 2.240 . S
Cd210 O211 2.240 . S
Cd210 O218 2.223 1_554 S
Cd210 O220 2.297 . S
Cd210 O221 2.439 . S
O211 Cd210 2.240 . S
O211 C216 1.279 1_554 S
O212 Cd209 2.297 . S
O212 C214 1.247 . S
O213 Cd209 2.439 . S
O213 C214 1.208 . S
C214 O212 1.247 . S
C214 O213 1.208 . S
C215 O220 1.247 . S
C215 O221 1.208 . S
C216 O208 1.315 1_556 S
C216 O211 1.279 1_556 S
C217 O218 1.315 1_554 S
C217 O219 1.279 . S
O218 Cd210 2.223 1_556 S
O218 C217 1.315 1_556 S
O219 Cd209 2.240 . S
O219 C217 1.279 . S
O220 Cd210 2.297 . S
O220 C215 1.247 . S
O221 Cd210 2.439 . S
O221 C215 1.208 . S
O222 Cd223 2.223 . S
O222 C230 1.315 . S
Cd223 O222 2.223 . S
Cd223 O226 2.297 . S
Cd223 O227 2.439 . S
Cd223 O233 2.240 . S
Cd224 O225 2.240 . S
Cd224 O232 2.223 . S
Cd224 O234 2.297 . S
Cd224 O235 2.439 . S
O225 Cd224 2.240 . S
O225 C230 1.279 . S
O226 Cd223 2.297 . S
O226 C228 1.247 . S
O227 Cd223 2.439 . S
O227 C228 1.208 . S
C228 O226 1.247 . S
C228 O227 1.208 . S
C229 O234 1.247 . S
C229 O235 1.208 . S
C230 O222 1.315 . S
C230 O225 1.279 . S
C231 O232 1.315 . S
C231 O233 1.279 . S
O232 Cd224 2.223 . S
O232 C231 1.315 . S
O233 Cd223 2.240 . S
O233 C231 1.279 . S
O234 Cd224 2.297 . S
O234 C229 1.247 . S
O235 Cd224 2.439 . S
O235 C229 1.208 . S
O236 Cd237 2.223 1_556 S
O236 C244 1.315 . S
Cd237 O236 2.223 1_554 S
Cd237 O240 2.297 . S
Cd237 O241 2.439 . S
Cd237 O247 2.240 . S
Cd238 O239 2.240 . S
Cd238 O246 2.223 1_554 S
Cd238 O248 2.297 . S
Cd238 O249 2.439 . S
O239 Cd238 2.240 . S
O239 C244 1.279 1_554 S
O240 Cd237 2.297 . S
O240 C242 1.247 . S
O241 Cd237 2.439 . S
O241 C242 1.208 . S
C242 O240 1.247 . S
C242 O241 1.208 . S
C243 O248 1.247 . S
C243 O249 1.208 . S
C244 O236 1.315 . S
C244 O239 1.279 1_556 S
C245 O246 1.318 . S
C245 O247 1.274 1_556 S
O246 Cd238 2.223 1_556 S
O246 C245 1.318 . S
O247 Cd237 2.240 . S
O247 C245 1.274 1_554 S
O248 Cd238 2.297 . S
O248 C243 1.247 . S
O249 Cd238 2.439 . S
O249 C243 1.208 . S
O250 Cd251 2.223 . S
O250 C258 1.315 . S
Cd251 O250 2.223 . S
Cd251 O254 2.297 . S
Cd251 O255 2.439 . S
Cd251 O261 2.240 . S
Cd252 O253 2.240 . S
Cd252 O260 2.223 . S
Cd252 O262 2.297 . S
Cd252 O263 2.439 . S
O253 Cd252 2.240 . S
O253 C258 1.279 . S
O254 Cd251 2.297 . S
O254 C256 1.247 . S
O255 Cd251 2.439 . S
O255 C256 1.208 . S
C256 O254 1.247 . S
C256 O255 1.208 . S
C257 O262 1.247 . S
C257 O263 1.208 . S
C258 O250 1.315 . S
C258 O253 1.279 . S
C259 O260 1.315 . S
C259 O261 1.279 . S
O260 Cd252 2.223 . S
O260 C259 1.315 . S
O261 Cd251 2.240 . S
O261 C259 1.279 . S
O262 Cd252 2.297 . S
O262 C257 1.247 . S
O263 Cd252 2.439 . S
O263 C257 1.208 . S
O264 Cd265 2.223 . S
O264 C272 1.315 . S
Cd265 O264 2.223 . S
Cd265 O268 2.297 . S
Cd265 O269 2.439 . S
Cd265 O275 2.240 . S
Cd266 O267 2.240 . S
Cd266 O274 2.223 . S
Cd266 O276 2.297 . S
Cd266 O277 2.439 . S
O267 Cd266 2.240 . S
O267 C272 1.279 . S
O268 Cd265 2.297 . S
O268 C270 1.247 . S
O269 Cd265 2.439 . S
O269 C270 1.208 . S
C270 O268 1.247 . S
C270 O269 1.208 . S
C271 O276 1.247 . S
C271 O277 1.208 . S
C272 O264 1.315 . S
C272 O267 1.279 . S
C273 O274 1.315 . S
C273 O275 1.279 . S
O274 Cd266 2.223 . S
O274 C273 1.315 . S
O275 Cd265 2.240 . S
O275 C273 1.279 . S
O276 Cd266 2.297 . S
O276 C271 1.247 . S
O277 Cd266 2.439 . S
O277 C271 1.208 . S
O278 Cd279 2.223 . S
O278 C286 1.315 . S
Cd279 O278 2.223 . S
Cd279 O282 2.297 . S
Cd279 O283 2.439 . S
Cd279 O289 2.240 . S
Cd280 O281 2.240 . S
Cd280 O288 2.223 . S
Cd280 O290 2.297 . S
Cd280 O291 2.439 . S
O281 Cd280 2.240 . S
O281 C286 1.279 . S
O282 Cd279 2.297 . S
O282 C284 1.247 . S
O283 Cd279 2.439 . S
O283 C284 1.208 . S
C284 O282 1.247 . S
C284 O283 1.208 . S
C285 O290 1.247 . S
C285 O291 1.208 . S
C286 O278 1.315 . S
C286 O281 1.279 . S
C287 O288 1.315 . S
C287 O289 1.279 . S
O288 Cd280 2.223 . S
O288 C287 1.315 . S
O289 Cd279 2.240 . S
O289 C287 1.279 . S
O290 Cd280 2.297 . S
O290 C285 1.247 . S
O291 Cd280 2.439 . S
O291 C285 1.208 . S
O292 Cd293 2.223 . S
O292 C300 1.315 . S
Cd293 O292 2.223 . S
Cd293 O296 2.297 . S
Cd293 O297 2.439 . S
Cd293 O303 2.240 . S
Cd294 O295 2.240 . S
Cd294 O302 2.223 . S
Cd294 O304 2.297 . S
Cd294 O305 2.439 . S
O295 Cd294 2.240 . S
O295 C300 1.279 . S
O296 Cd293 2.297 . S
O296 C298 1.247 . S
O297 Cd293 2.439 . S
O297 C298 1.208 . S
C298 O296 1.247 . S
C298 O297 1.208 . S
C299 O304 1.247 . S
C299 O305 1.208 . S
C300 O292 1.315 . S
C300 O295 1.279 . S
C301 O302 1.315 . S
C301 O303 1.279 . S
O302 Cd294 2.223 . S
O302 C301 1.315 . S
O303 Cd293 2.240 . S
O303 C301 1.279 . S
O304 Cd294 2.297 . S
O304 C299 1.247 . S
O305 Cd294 2.439 . S
O305 C299 1.208 . S
O306 Cd307 2.223 1_545 S
O306 C314 1.315 . S
Cd307 O306 2.223 1_565 S
Cd307 O310 2.297 . S
Cd307 O311 2.439 . S
Cd307 O317 2.240 1_565 S
Cd308 O309 2.240 . S
Cd308 O316 2.223 . S
Cd308 O318 2.297 . S
Cd308 O319 2.439 1_545 S
O309 Cd308 2.240 . S
O309 C314 1.279 . S
O310 Cd307 2.297 . S
O310 C312 1.247 . S
O311 Cd307 2.439 . S
O311 C312 1.208 . S
C312 O310 1.247 . S
C312 O311 1.208 . S
C313 O318 1.247 1_565 S
C313 O319 1.208 . S
C314 O306 1.315 . S
C314 O309 1.279 . S
C315 O316 1.315 . S
C315 O317 1.279 . S
O316 Cd308 2.223 . S
O316 C315 1.315 . S
O317 Cd307 2.240 1_545 S
O317 C315 1.279 . S
O318 Cd308 2.297 . S
O318 C313 1.247 1_545 S
O319 Cd308 2.439 1_565 S
O319 C313 1.208 . S
O320 Cd321 2.223 . S
O320 C328 1.315 . S
Cd321 O320 2.223 . S
Cd321 O324 2.318 . S
Cd321 O325 2.439 1_655 S
Cd321 O331 2.240 . S
Cd322 O323 2.240 . S
Cd322 O330 2.223 1_455 S
Cd322 O332 2.297 . S
Cd322 O333 2.439 . S
O323 Cd322 2.240 . S
O323 C328 1.279 1_455 S
O324 Cd321 2.318 . S
O324 C326 1.198 1_655 S
O325 Cd321 2.439 1_455 S
O325 C326 1.208 . S
C326 O324 1.198 1_455 S
C326 O325 1.208 . S
C327 O332 1.247 . S
C327 O333 1.208 . S
C328 O320 1.315 . S
C328 O323 1.279 1_655 S
C329 O330 1.315 . S
C329 O331 1.279 . S
O330 Cd322 2.223 1_655 S
O330 C329 1.315 . S
O331 Cd321 2.240 . S
O331 C329 1.279 . S
O332 Cd322 2.297 . S
O332 C327 1.247 . S
O333 Cd322 2.439 . S
O333 C327 1.208 . S
O334 Cd335 2.223 . S
O334 C342 1.315 . S
Cd335 O334 2.223 . S
Cd335 O338 2.297 . S
Cd335 O339 2.439 . S
Cd335 O345 2.240 . S
Cd336 O337 2.240 . S
Cd336 O344 2.223 . S
Cd336 O346 2.297 . S
Cd336 O347 2.439 . S
O337 Cd336 2.240 . S
O337 C342 1.279 . S
O338 Cd335 2.297 . S
O338 C340 1.247 . S
O339 Cd335 2.439 . S
O339 C340 1.208 . S
C340 O338 1.247 . S
C340 O339 1.208 . S
C341 O346 1.247 . S
C341 O347 1.208 . S
C342 O334 1.315 . S
C342 O337 1.279 . S
C343 O344 1.315 . S
C343 O345 1.279 . S
O344 Cd336 2.223 . S
O344 C343 1.315 . S
O345 Cd335 2.240 . S
O345 C343 1.279 . S
O346 Cd336 2.297 . S
O346 C341 1.247 . S
O347 Cd336 2.439 . S
O347 C341 1.208 . S
O348 Cd349 2.223 1_655 S
O348 C356 1.315 . S
Cd349 O348 2.223 1_455 S
Cd349 O352 2.297 . S
Cd349 O353 2.439 . S
Cd349 O359 2.240 . S
Cd350 O351 2.240 . S
Cd350 O358 2.223 1_455 S
Cd350 O360 2.297 . S
Cd350 O361 2.439 . S
O351 Cd350 2.240 . S
O351 C356 1.279 1_455 S
O352 Cd349 2.297 . S
O352 C354 1.247 . S
O353 Cd349 2.439 . S
O353 C354 1.208 . S
C354 O352 1.247 . S
C354 O353 1.208 . S
C355 O360 1.247 . S
C355 O361 1.208 . S
C356 O348 1.315 . S
C356 O351 1.279 1_655 S
C357 O358 1.353 . S
C357 O359 1.233 1_655 S
O358 Cd350 2.223 1_655 S
O358 C357 1.353 . S
O359 Cd349 2.240 . S
O359 C357 1.233 1_455 S
O360 Cd350 2.297 . S
O360 C355 1.247 . S
O361 Cd350 2.439 . S
O361 C355 1.208 . S
O362 Cd363 2.223 . S
O362 C370 1.315 . S
Cd363 O362 2.223 . S
Cd363 O366 2.297 . S
Cd363 O367 2.439 . S
Cd363 O373 2.240 . S
Cd364 O365 2.240 . S
Cd364 O372 2.223 . S
Cd364 O374 2.297 . S
Cd364 O375 2.439 . S
O365 Cd364 2.240 . S
O365 C370 1.279 . S
O366 Cd363 2.297 . S
O366 C368 1.247 . S
O367 Cd363 2.439 . S
O367 C368 1.208 . S
C368 O366 1.247 . S
C368 O367 1.208 . S
C369 O374 1.247 . S
C369 O375 1.208 . S
C370 O362 1.315 . S
C370 O365 1.279 . S
C371 O372 1.315 . S
C371 O373 1.279 . S
O372 Cd364 2.223 . S
O372 C371 1.315 . S
O373 Cd363 2.240 . S
O373 C371 1.279 . S
O374 Cd364 2.297 . S
O374 C369 1.247 . S
O375 Cd364 2.439 . S
O375 C369 1.208 . S
H376 C384 0.929 . S
H377 C386 0.930 . S
H378 C388 0.930 . S
H379 C391 0.929 . S
H380 C394 0.930 . S
H381 C396 0.960 . S
H382 C396 0.960 . S
H383 C396 0.960 . S
C384 H376 0.929 . S
C384 C385 1.377 . S
C384 C386 1.384 . S
C385 C384 1.377 . S
C385 C391 1.390 . S
C386 H377 0.930 . S
C386 C384 1.384 . S
C386 C387 1.372 . S
C387 C386 1.372 . S
C387 C388 1.400 . S
C387 C392 1.490 . S
C388 H378 0.930 . S
C388 C387 1.400 . S
C388 C391 1.386 . S
H389 C405 0.930 . S
H390 C406 0.931 . S
C391 H379 0.929 . S
C391 C385 1.390 . S
C391 C388 1.386 . S
C392 C387 1.490 . S
C392 C394 1.395 . S
C392 C395 1.403 . S
H393 C399 0.930 . S
C394 H380 0.930 . S
C394 C392 1.395 . S
C394 C397 1.403 . S
C395 C392 1.403 . S
C395 C396 1.524 . S
C395 C399 1.400 . S
C396 H381 0.960 . S
C396 H382 0.960 . S
C396 H383 0.960 . S
C396 C395 1.524 . S
C397 C394 1.403 . S
C397 C398 1.392 . S
C397 C401 1.495 . S
C398 C397 1.392 . S
C398 C399 1.385 . S
C398 C400 1.478 . S
C399 H393 0.930 . S
C399 C395 1.400 . S
C399 C398 1.385 . S
C400 C398 1.478 . S
C400 C402 1.381 . S
C400 C406 1.383 . S
C401 C397 1.495 . S
C401 H407 0.959 . S
C401 H408 0.961 . S
C401 H409 0.960 . S
C402 C400 1.381 . S
C402 C403 1.394 . S
C402 H410 0.930 . S
C403 C402 1.394 . S
C403 C404 1.383 . S
C403 H411 0.929 . S
C404 C403 1.383 . S
C404 C405 1.377 . S
C405 H389 0.930 . S
C405 C404 1.377 . S
C405 C406 1.379 . S
C406 H390 0.931 . S
C406 C400 1.383 . S
C406 C405 1.379 . S
H407 C401 0.959 . S
H408 C401 0.961 . S
H409 C401 0.960 . S
H410 C402 0.930 . S
H411 C403 0.929 . S
H412 C420 0.929 . S
H413 C422 0.930 . S
H414 C424 0.930 . S
H415 C427 0.929 . S
H416 C430 0.930 . S
H417 C432 0.960 . S
H418 C432 0.960 . S
H419 C432 0.960 . S
C420 H412 0.929 . S
C420 C421 1.377 . S
C420 C422 1.384 1_655 S
C421 C420 1.377 . S
C421 C427 1.390 . S
C422 H413 0.930 . S
C422 C420 1.384 1_455 S
C422 C423 1.372 . S
C423 C422 1.372 . S
C423 C424 1.400 1_455 S
C423 C428 1.490 . S
C424 H414 0.930 . S
C424 C423 1.400 1_655 S
C424 C427 1.386 . S
H425 C441 0.930 . S
H426 C442 0.931 . S
C427 H415 0.929 . S
C427 C421 1.390 . S
C427 C424 1.386 . S
C428 C423 1.490 . S
C428 C430 1.395 . S
C428 C431 1.403 . S
H429 C435 0.930 . S
C430 H416 0.930 . S
C430 C428 1.395 . S
C430 C433 1.403 . S
C431 C428 1.403 . S
C431 C432 1.524 1_455 S
C431 C435 1.400 . S
C432 H417 0.960 . S
C432 H418 0.960 . S
C432 H419 0.960 . S
C432 C431 1.524 1_655 S
C433 C430 1.403 . S
C433 C434 1.392 . S
C433 C437 1.495 . S
C434 C433 1.392 . S
C434 C435 1.385 . S
C434 C436 1.478 . S
C435 H429 0.930 . S
C435 C431 1.400 . S
C435 C434 1.385 . S
C436 C434 1.478 . S
C436 C438 1.381 . S
C436 C442 1.383 . S
C437 C433 1.495 . S
C437 H443 0.959 . S
C437 H444 0.961 . S
C437 H445 0.960 . S
C438 C436 1.381 . S
C438 C439 1.394 . S
C438 H446 0.930 . S
C439 C438 1.394 . S
C439 C440 1.383 . S
C439 H447 0.929 . S
C440 C439 1.383 . S
C440 C441 1.377 . S
C441 H425 0.930 . S
C441 C440 1.377 . S
C441 C442 1.379 . S
C442 H426 0.931 . S
C442 C436 1.383 . S
C442 C441 1.379 . S
H443 C437 0.959 . S
H444 C437 0.961 . S
H445 C437 0.960 . S
H446 C438 0.930 . S
H447 C439 0.929 . S
H448 C456 0.929 . S
H449 C458 0.930 . S
H450 C460 0.930 . S
H451 C463 0.929 . S
H452 C466 0.930 . S
H453 C468 0.960 . S
H454 C468 0.960 . S
H455 C468 0.960 . S
C456 H448 0.929 . S
C456 C457 1.377 . S
C456 C458 1.384 . S
C457 C456 1.377 . S
C457 C463 1.390 . S
C458 H449 0.930 . S
C458 C456 1.384 . S
C458 C459 1.372 . S
C459 C458 1.372 . S
C459 C460 1.400 . S
C459 C464 1.490 . S
C460 H450 0.930 . S
C460 C459 1.400 . S
C460 C463 1.386 . S
H461 C477 0.930 . S
H462 C478 0.931 . S
C463 H451 0.929 . S
C463 C457 1.390 . S
C463 C460 1.386 . S
C464 C459 1.490 . S
C464 C466 1.395 . S
C464 C467 1.403 . S
H465 C471 0.930 . S
C466 H452 0.930 . S
C466 C464 1.395 . S
C466 C469 1.403 . S
C467 C464 1.403 . S
C467 C468 1.524 . S
C467 C471 1.400 . S
C468 H453 0.960 . S
C468 H454 0.960 . S
C468 H455 0.960 . S
C468 C467 1.524 . S
C469 C466 1.403 . S
C469 C470 1.392 . S
C469 C473 1.495 . S
C470 C469 1.392 . S
C470 C471 1.385 . S
C470 C472 1.478 . S
C471 H465 0.930 . S
C471 C467 1.400 . S
C471 C470 1.385 . S
C472 C470 1.478 . S
C472 C474 1.381 . S
C472 C478 1.383 . S
C473 C469 1.495 . S
C473 H479 0.959 . S
C473 H480 0.961 . S
C473 H481 0.960 . S
C474 C472 1.381 . S
C474 C475 1.394 . S
C474 H482 0.930 . S
C475 C474 1.394 . S
C475 C476 1.383 . S
C475 H483 0.929 . S
C476 C475 1.383 . S
C476 C477 1.377 . S
C477 H461 0.930 . S
C477 C476 1.377 . S
C477 C478 1.379 . S
C478 H462 0.931 . S
C478 C472 1.383 . S
C478 C477 1.379 . S
H479 C473 0.959 . S
H480 C473 0.961 . S
H481 C473 0.960 . S
H482 C474 0.930 . S
H483 C475 0.929 . S
H484 C492 0.929 . S
H485 C494 0.930 1_655 S
H486 C496 0.904 1_545 S
H487 C499 0.929 . S
H488 C502 0.930 . S
H489 C504 0.979 . S
H490 C504 0.960 . S
H491 C504 0.910 1_455 S
C492 H484 0.929 . S
C492 C493 1.377 . S
C492 C494 1.384 . S
C493 C492 1.377 . S
C493 C499 1.390 . S
C494 H485 0.930 1_455 S
C494 C492 1.384 . S
C494 C495 1.372 . S
C495 C494 1.372 . S
C495 C496 1.404 . S
C495 C500 1.490 1_465 S
C496 H486 0.904 1_565 S
C496 C495 1.404 . S
C496 C499 1.409 . S
H497 C513 0.930 . S
H498 C514 0.931 . S
C499 H487 0.929 . S
C499 C493 1.390 . S
C499 C496 1.409 . S
C500 C495 1.490 1_645 S
C500 C502 1.395 . S
C500 C503 1.406 . S
H501 C507 0.930 . S
C502 H488 0.930 . S
C502 C500 1.395 . S
C502 C505 1.403 . S
C503 C500 1.406 . S
C503 C504 1.527 1_545 S
C503 C507 1.431 . S
C504 H489 0.979 . S
C504 H490 0.960 . S
C504 H491 0.910 1_655 S
C504 C503 1.527 1_565 S
C505 C502 1.403 . S
C505 C506 1.392 . S
C505 C509 1.495 . S
C506 C505 1.392 . S
C506 C507 1.385 . S
C506 C508 1.478 . S
C507 H501 0.930 . S
C507 C503 1.431 . S
C507 C506 1.385 . S
C508 C506 1.478 . S
C508 C510 1.381 . S
C508 C514 1.383 . S
C509 C505 1.495 . S
C509 H515 0.959 . S
C509 H516 0.961 . S
C509 H517 0.960 . S
C510 C508 1.381 . S
C510 C511 1.394 . S
C510 H518 0.930 . S
C511 C510 1.394 . S
C511 C512 1.383 . S
C511 H519 0.929 . S
C512 C511 1.383 . S
C512 C513 1.377 . S
C513 H497 0.930 . S
C513 C512 1.377 . S
C513 C514 1.379 . S
C514 H498 0.931 . S
C514 C508 1.383 . S
C514 C513 1.379 . S
H515 C509 0.959 . S
H516 C509 0.961 . S
H517 C509 0.960 . S
H518 C510 0.930 . S
H519 C511 0.929 . S
H520 C528 0.929 . S
H521 C530 0.930 . S
H522 C532 0.930 . S
H523 C535 0.929 . S
H524 C538 0.930 . S
H525 C540 0.960 . S
H526 C540 0.960 . S
H527 C540 0.960 . S
C528 H520 0.929 . S
C528 C529 1.377 . S
C528 C530 1.384 . S
C529 C528 1.377 . S
C529 C535 1.390 . S
C530 H521 0.930 . S
C530 C528 1.384 . S
C530 C531 1.372 . S
C531 C530 1.372 . S
C531 C532 1.400 . S
C531 C536 1.490 . S
C532 H522 0.930 . S
C532 C531 1.400 . S
C532 C535 1.386 . S
H533 C549 0.930 . S
H534 C550 0.931 . S
C535 H523 0.929 . S
C535 C529 1.390 . S
C535 C532 1.386 . S
C536 C531 1.490 . S
C536 C538 1.395 . S
C536 C539 1.403 . S
H537 C543 0.930 . S
C538 H524 0.930 . S
C538 C536 1.395 . S
C538 C541 1.403 . S
C539 C536 1.403 . S
C539 C540 1.524 . S
C539 C543 1.400 . S
C540 H525 0.960 . S
C540 H526 0.960 . S
C540 H527 0.960 . S
C540 C539 1.524 . S
C541 C538 1.403 . S
C541 C542 1.392 . S
C541 C545 1.495 . S
C542 C541 1.392 . S
C542 C543 1.385 . S
C542 C544 1.478 . S
C543 H537 0.930 . S
C543 C539 1.400 . S
C543 C542 1.385 . S
C544 C542 1.478 . S
C544 C546 1.381 . S
C544 C550 1.383 . S
C545 C541 1.495 . S
C545 H551 0.959 . S
C545 H552 0.961 . S
C545 H553 0.960 . S
C546 C544 1.381 . S
C546 C547 1.394 . S
C546 H554 0.930 . S
C547 C546 1.394 . S
C547 C548 1.383 . S
C547 H555 0.929 . S
C548 C547 1.383 . S
C548 C549 1.377 . S
C549 H533 0.930 . S
C549 C548 1.377 . S
C549 C550 1.379 . S
C550 H534 0.931 . S
C550 C544 1.383 . S
C550 C549 1.379 . S
H551 C545 0.959 . S
H552 C545 0.961 . S
H553 C545 0.960 . S
H554 C546 0.930 . S
H555 C547 0.929 . S
H556 C564 0.929 . S
H557 C566 0.930 . S
H558 C568 0.930 . S
H559 C571 0.929 . S
H560 C574 0.930 . S
H561 C576 0.960 . S
H562 C576 0.960 . S
H563 C576 0.960 . S
C564 H556 0.929 . S
C564 C565 1.377 . S
C564 C566 1.384 . S
C565 C564 1.377 . S
C565 C571 1.390 . S
C566 H557 0.930 . S
C566 C564 1.384 . S
C566 C567 1.372 . S
C567 C566 1.372 . S
C567 C568 1.400 . S
C567 C572 1.490 . S
C568 H558 0.930 . S
C568 C567 1.400 . S
C568 C571 1.386 . S
H569 C585 0.930 . S
H570 C586 0.931 . S
C571 H559 0.929 . S
C571 C565 1.390 . S
C571 C568 1.386 . S
C572 C567 1.490 . S
C572 C574 1.395 . S
C572 C575 1.403 . S
H573 C579 0.930 . S
C574 H560 0.930 . S
C574 C572 1.395 . S
C574 C577 1.403 . S
C575 C572 1.403 . S
C575 C576 1.524 . S
C575 C579 1.400 . S
C576 H561 0.960 . S
C576 H562 0.960 . S
C576 H563 0.960 . S
C576 C575 1.524 . S
C577 C574 1.403 . S
C577 C578 1.392 . S
C577 C581 1.495 . S
C578 C577 1.392 . S
C578 C579 1.385 . S
C578 C580 1.478 . S
C579 H573 0.930 . S
C579 C575 1.400 . S
C579 C578 1.385 . S
C580 C578 1.478 . S
C580 C582 1.381 . S
C580 C586 1.383 . S
C581 C577 1.495 . S
C581 H587 0.959 . S
C581 H588 0.961 . S
C581 H589 0.960 . S
C582 C580 1.381 . S
C582 C583 1.394 . S
C582 H590 0.930 . S
C583 C582 1.394 . S
C583 C584 1.383 . S
C583 H591 0.929 . S
C584 C583 1.383 . S
C584 C585 1.377 . S
C585 H569 0.930 . S
C585 C584 1.377 . S
C585 C586 1.379 . S
C586 H570 0.931 . S
C586 C580 1.383 . S
C586 C585 1.379 . S
H587 C581 0.959 . S
H588 C581 0.961 . S
H589 C581 0.960 . S
H590 C582 0.930 . S
H591 C583 0.929 . S
H592 C600 0.929 . S
H593 C602 0.930 . S
H594 C604 0.930 . S
H595 C607 0.929 . S
H596 C610 0.930 . S
H597 C612 0.960 . S
H598 C612 0.960 . S
H599 C612 0.960 . S
C600 H592 0.929 . S
C600 C601 1.377 . S
C600 C602 1.384 . S
C601 C600 1.377 . S
C601 C607 1.390 . S
C602 H593 0.930 . S
C602 C600 1.384 . S
C602 C603 1.372 . S
C603 C602 1.372 . S
C603 C604 1.400 . S
C603 C608 1.490 . S
C604 H594 0.930 . S
C604 C603 1.400 . S
C604 C607 1.386 . S
H605 C621 0.930 . S
H606 C622 0.931 . S
C607 H595 0.929 . S
C607 C601 1.390 . S
C607 C604 1.386 . S
C608 C603 1.490 . S
C608 C610 1.395 . S
C608 C611 1.403 . S
H609 C615 0.930 . S
C610 H596 0.930 . S
C610 C608 1.395 . S
C610 C613 1.403 . S
C611 C608 1.403 . S
C611 C612 1.524 . S
C611 C615 1.400 . S
C612 H597 0.960 . S
C612 H598 0.960 . S
C612 H599 0.960 . S
C612 C611 1.524 . S
C613 C610 1.403 . S
C613 C614 1.392 . S
C613 C617 1.495 . S
C614 C613 1.392 . S
C614 C615 1.385 . S
C614 C616 1.478 . S
C615 H609 0.930 . S
C615 C611 1.400 . S
C615 C614 1.385 . S
C616 C614 1.478 . S
C616 C618 1.381 . S
C616 C622 1.383 . S
C617 C613 1.495 . S
C617 H623 0.959 . S
C617 H624 0.961 . S
C617 H625 0.960 . S
C618 C616 1.381 . S
C618 C619 1.394 . S
C618 H626 0.930 . S
C619 C618 1.394 . S
C619 C620 1.383 . S
C619 H627 0.929 . S
C620 C619 1.383 . S
C620 C621 1.377 . S
C621 H605 0.930 . S
C621 C620 1.377 . S
C621 C622 1.379 . S
C622 H606 0.931 . S
C622 C616 1.383 . S
C622 C621 1.379 . S
H623 C617 0.959 . S
H624 C617 0.961 . S
H625 C617 0.960 . S
H626 C618 0.930 . S
H627 C619 0.929 . S
H628 C636 0.929 . S
H629 C638 0.930 . S
H630 C640 0.930 . S
H631 C643 0.929 . S
H632 C646 0.930 . S
H633 C648 0.960 . S
H634 C648 0.960 . S
H635 C648 0.960 . S
C636 H628 0.929 . S
C636 C637 1.377 . S
C636 C638 1.384 . S
C637 C636 1.377 . S
C637 C643 1.390 . S
C638 H629 0.930 . S
C638 C636 1.384 . S
C638 C639 1.372 . S
C639 C638 1.372 . S
C639 C640 1.400 . S
C639 C644 1.490 . S
C640 H630 0.930 . S
C640 C639 1.400 . S
C640 C643 1.386 . S
H641 C657 0.947 . S
H642 C658 0.931 . S
C643 H631 0.929 . S
C643 C637 1.390 . S
C643 C640 1.386 . S
C644 C639 1.490 . S
C644 C646 1.395 . S
C644 C647 1.403 . S
H645 C651 0.930 . S
C646 H632 0.930 . S
C646 C644 1.395 . S
C646 C649 1.403 . S
C647 C644 1.403 . S
C647 C648 1.524 . S
C647 C651 1.400 . S
C648 H633 0.960 . S
C648 H634 0.960 . S
C648 H635 0.960 . S
C648 C647 1.524 . S
C649 C646 1.403 . S
C649 C650 1.392 . S
C649 C653 1.495 . S
C650 C649 1.392 . S
C650 C651 1.385 . S
C650 C652 1.478 . S
C651 H645 0.930 . S
C651 C647 1.400 . S
C651 C650 1.385 . S
C652 C650 1.478 . S
C652 C654 1.381 . S
C652 C658 1.383 . S
C653 C649 1.495 . S
C653 H659 0.959 . S
C653 H660 0.961 . S
C653 H661 0.960 . S
C654 C652 1.381 . S
C654 C655 1.394 . S
C654 H662 0.930 . S
C655 C654 1.394 . S
C655 C656 1.383 . S
C655 H663 0.929 . S
C656 C655 1.383 . S
C656 C657 1.377 . S
C657 H641 0.947 . S
C657 C656 1.377 . S
C657 C658 1.379 . S
C658 H642 0.931 . S
C658 C652 1.383 . S
C658 C657 1.379 . S
H659 C653 0.959 . S
H660 C653 0.961 . S
H661 C653 0.960 . S
H662 C654 0.930 . S
H663 C655 0.929 . S
H664 C672 0.929 . S
H665 C674 0.930 . S
H666 C676 0.930 . S
H667 C679 0.929 . S
H668 C682 0.930 . S
H669 C684 0.960 . S
H670 C684 0.960 . S
H671 C684 0.960 . S
C672 H664 0.929 . S
C672 C673 1.377 . S
C672 C674 1.384 . S
C673 C672 1.377 . S
C673 C679 1.390 . S
C674 H665 0.930 . S
C674 C672 1.384 . S
C674 C675 1.372 . S
C675 C674 1.372 . S
C675 C676 1.400 . S
C675 C680 1.490 . S
C676 H666 0.930 . S
C676 C675 1.400 . S
C676 C679 1.386 . S
H677 C693 0.930 . S
H678 C694 0.931 . S
C679 H667 0.929 . S
C679 C673 1.390 . S
C679 C676 1.386 . S
C680 C675 1.490 . S
C680 C682 1.395 . S
C680 C683 1.403 . S
H681 C687 0.930 . S
C682 H668 0.930 . S
C682 C680 1.395 . S
C682 C685 1.403 . S
C683 C680 1.403 . S
C683 C684 1.524 . S
C683 C687 1.400 . S
C684 H669 0.960 . S
C684 H670 0.960 . S
C684 H671 0.960 . S
C684 C683 1.524 . S
C685 C682 1.403 . S
C685 C686 1.392 . S
C685 C689 1.495 . S
C686 C685 1.392 . S
C686 C687 1.385 . S
C686 C688 1.478 . S
C687 H681 0.930 . S
C687 C683 1.400 . S
C687 C686 1.385 . S
C688 C686 1.478 . S
C688 C690 1.381 . S
C688 C694 1.383 . S
C689 C685 1.495 . S
C689 H695 0.959 . S
C689 H696 0.961 . S
C689 H697 0.960 . S
C690 C688 1.381 . S
C690 C691 1.394 . S
C690 H698 0.930 . S
C691 C690 1.394 . S
C691 C692 1.383 . S
C691 H699 0.929 . S
C692 C691 1.383 . S
C692 C693 1.377 . S
C693 H677 0.930 . S
C693 C692 1.377 . S
C693 C694 1.379 . S
C694 H678 0.931 . S
C694 C688 1.383 . S
C694 C693 1.379 . S
H695 C689 0.959 . S
H696 C689 0.961 . S
H697 C689 0.960 . S
H698 C690 0.930 . S
H699 C691 0.929 . S
H700 C708 0.929 . S
H701 C710 0.930 . S
H702 C712 0.930 . S
H703 C715 0.929 . S
H704 C718 0.930 . S
H705 C720 0.960 . S
H706 C720 0.960 . S
H707 C720 0.960 . S
C708 H700 0.929 . S
C708 C709 1.377 . S
C708 C710 1.384 . S
C709 C708 1.377 . S
C709 C715 1.390 . S
C710 H701 0.930 . S
C710 C708 1.384 . S
C710 C711 1.372 . S
C711 C710 1.372 . S
C711 C712 1.400 . S
C711 C716 1.490 . S
C712 H702 0.930 . S
C712 C711 1.400 . S
C712 C715 1.386 . S
H713 C729 0.930 . S
H714 C730 0.931 . S
C715 H703 0.929 . S
C715 C709 1.390 . S
C715 C712 1.386 . S
C716 C711 1.490 . S
C716 C718 1.395 . S
C716 C719 1.403 . S
H717 C723 0.930 . S
C718 H704 0.930 . S
C718 C716 1.395 . S
C718 C721 1.403 . S
C719 C716 1.403 . S
C719 C720 1.524 . S
C719 C723 1.400 . S
C720 H705 0.960 . S
C720 H706 0.960 . S
C720 H707 0.960 . S
C720 C719 1.524 . S
C721 C718 1.403 . S
C721 C722 1.392 . S
C721 C725 1.495 . S
C722 C721 1.392 . S
C722 C723 1.385 . S
C722 C724 1.478 . S
C723 H717 0.930 . S
C723 C719 1.400 . S
C723 C722 1.385 . S
C724 C722 1.478 . S
C724 C726 1.381 . S
C724 C730 1.383 . S
C725 C721 1.495 . S
C725 H731 0.959 . S
C725 H732 0.961 . S
C725 H733 0.960 . S
C726 C724 1.381 . S
C726 C727 1.394 . S
C726 H734 0.930 . S
C727 C726 1.394 . S
C727 C728 1.383 . S
C727 H735 0.929 . S
C728 C727 1.383 . S
C728 C729 1.377 . S
C729 H713 0.930 . S
C729 C728 1.377 . S
C729 C730 1.379 . S
C730 H714 0.931 . S
C730 C724 1.383 . S
C730 C729 1.379 . S
H731 C725 0.959 . S
H732 C725 0.961 . S
H733 C725 0.960 . S
H734 C726 0.930 . S
H735 C727 0.929 . S
H736 C744 0.929 . S
H737 C746 0.930 . S
H738 C748 0.930 . S
H739 C751 0.929 . S
H740 C754 0.930 . S
H741 C756 0.960 . S
H742 C756 0.960 . S
H743 C756 0.960 . S
C744 H736 0.929 . S
C744 C745 1.377 . S
C744 C746 1.384 . S
C745 C744 1.377 . S
C745 C751 1.390 . S
C746 H737 0.930 . S
C746 C744 1.384 . S
C746 C747 1.372 . S
C747 C746 1.372 . S
C747 C748 1.400 . S
C747 C752 1.490 . S
C748 H738 0.930 . S
C748 C747 1.400 . S
C748 C751 1.386 . S
H749 C765 0.930 . S
H750 C766 0.931 . S
C751 H739 0.929 . S
C751 C745 1.390 . S
C751 C748 1.386 . S
C752 C747 1.490 . S
C752 C754 1.395 . S
C752 C755 1.403 . S
H753 C759 0.930 . S
C754 H740 0.930 . S
C754 C752 1.395 . S
C754 C757 1.403 . S
C755 C752 1.403 . S
C755 C756 1.524 . S
C755 C759 1.400 . S
C756 H741 0.960 . S
C756 H742 0.960 . S
C756 H743 0.960 . S
C756 C755 1.524 . S
C757 C754 1.403 . S
C757 C758 1.392 . S
C757 C761 1.495 . S
C758 C757 1.392 . S
C758 C759 1.385 . S
C758 C760 1.478 . S
C759 H753 0.930 . S
C759 C755 1.400 . S
C759 C758 1.385 . S
C760 C758 1.478 . S
C760 C762 1.381 . S
C760 C766 1.383 . S
C761 C757 1.495 . S
C761 H767 0.959 . S
C761 H768 0.961 . S
C761 H769 0.960 . S
C762 C760 1.381 . S
C762 C763 1.394 . S
C762 H770 0.930 . S
C763 C762 1.394 . S
C763 C764 1.383 . S
C763 H771 0.929 . S
C764 C763 1.383 . S
C764 C765 1.377 . S
C765 H749 0.930 . S
C765 C764 1.377 . S
C765 C766 1.379 . S
C766 H750 0.931 . S
C766 C760 1.383 . S
C766 C765 1.379 . S
H767 C761 0.959 . S
H768 C761 0.961 . S
H769 C761 0.960 . S
H770 C762 0.930 . S
H771 C763 0.929 . S
H772 C780 0.929 . S
H773 C782 0.930 . S
H774 C784 0.930 . S
H775 C787 0.929 . S
H776 C790 0.930 . S
H777 C792 0.960 . S
H778 C792 0.960 . S
H779 C792 0.960 . S
C780 H772 0.929 . S
C780 C781 1.377 . S
C780 C782 1.384 . S
C781 C780 1.377 . S
C781 C787 1.390 . S
C782 H773 0.930 . S
C782 C780 1.384 . S
C782 C783 1.372 . S
C783 C782 1.372 . S
C783 C784 1.400 . S
C783 C788 1.490 . S
C784 H774 0.930 . S
C784 C783 1.400 . S
C784 C787 1.386 . S
H785 C801 0.930 . S
H786 C802 0.931 . S
C787 H775 0.929 . S
C787 C781 1.390 . S
C787 C784 1.386 . S
C788 C783 1.490 . S
C788 C790 1.395 . S
C788 C791 1.403 . S
H789 C795 0.930 . S
C790 H776 0.930 . S
C790 C788 1.395 . S
C790 C793 1.403 . S
C791 C788 1.403 . S
C791 C792 1.524 . S
C791 C795 1.400 . S
C792 H777 0.960 . S
C792 H778 0.960 . S
C792 H779 0.960 . S
C792 C791 1.524 . S
C793 C790 1.403 . S
C793 C794 1.392 . S
C793 C797 1.495 . S
C794 C793 1.392 . S
C794 C795 1.385 . S
C794 C796 1.478 . S
C795 H789 0.930 . S
C795 C791 1.400 . S
C795 C794 1.385 . S
C796 C794 1.478 . S
C796 C798 1.381 . S
C796 C802 1.383 . S
C797 C793 1.495 . S
C797 H803 0.959 . S
C797 H804 0.961 . S
C797 H805 0.960 . S
C798 C796 1.381 . S
C798 C799 1.394 . S
C798 H806 0.930 . S
C799 C798 1.394 . S
C799 C800 1.383 . S
C799 H807 0.929 . S
C800 C799 1.383 . S
C800 C801 1.377 . S
C801 H785 0.930 . S
C801 C800 1.377 . S
C801 C802 1.379 . S
C802 H786 0.931 . S
C802 C796 1.383 . S
C802 C801 1.379 . S
H803 C797 0.959 . S
H804 C797 0.961 . S
H805 C797 0.960 . S
H806 C798 0.930 . S
H807 C799 0.929 . S
H808 C816 0.929 . S
H809 C818 0.930 . S
H810 C820 0.930 . S
H811 C823 0.929 . S
H812 C826 0.930 . S
H813 C828 0.960 . S
H814 C828 0.960 . S
H815 C828 0.960 . S
C816 H808 0.929 . S
C816 C817 1.377 . S
C816 C818 1.384 . S
C817 C816 1.377 . S
C817 C823 1.390 . S
C818 H809 0.930 . S
C818 C816 1.384 . S
C818 C819 1.372 . S
C819 C818 1.372 . S
C819 C820 1.400 . S
C819 C824 1.490 . S
C820 H810 0.930 . S
C820 C819 1.400 . S
C820 C823 1.386 . S
H821 C837 0.930 . S
H822 C838 0.931 . S
C823 H811 0.929 . S
C823 C817 1.390 . S
C823 C820 1.386 . S
C824 C819 1.490 . S
C824 C826 1.395 . S
C824 C827 1.403 . S
H825 C831 0.930 . S
C826 H812 0.930 . S
C826 C824 1.395 . S
C826 C829 1.403 . S
C827 C824 1.403 . S
C827 C828 1.524 . S
C827 C831 1.400 . S
C828 H813 0.960 . S
C828 H814 0.960 . S
C828 H815 0.960 . S
C828 C827 1.524 . S
C829 C826 1.403 . S
C829 C830 1.392 . S
C829 C833 1.495 . S
C830 C829 1.392 . S
C830 C831 1.385 . S
C830 C832 1.478 . S
C831 H825 0.930 . S
C831 C827 1.400 . S
C831 C830 1.385 . S
C832 C830 1.478 . S
C832 C834 1.381 . S
C832 C838 1.383 . S
C833 C829 1.495 . S
C833 H839 0.959 . S
C833 H840 0.961 . S
C833 H841 0.960 . S
C834 C832 1.381 . S
C834 C835 1.394 . S
C834 H842 0.930 . S
C835 C834 1.394 . S
C835 C836 1.383 . S
C835 H843 0.929 . S
C836 C835 1.383 . S
C836 C837 1.377 . S
C837 H821 0.930 . S
C837 C836 1.377 . S
C837 C838 1.379 . S
C838 H822 0.931 . S
C838 C832 1.383 . S
C838 C837 1.379 . S
H839 C833 0.959 . S
H840 C833 0.961 . S
H841 C833 0.960 . S
H842 C834 0.930 . S
H843 C835 0.929 . S
H844 C852 0.929 . S
H845 C854 0.930 . S
H846 C856 0.930 . S
H847 C859 0.929 . S
H848 C862 0.930 . S
H849 C864 0.960 . S
H850 C864 0.960 . S
H851 C864 0.960 . S
C852 H844 0.929 . S
C852 C853 1.377 . S
C852 C854 1.384 . S
C853 C852 1.377 . S
C853 C859 1.390 . S
C854 H845 0.930 . S
C854 C852 1.384 . S
C854 C855 1.372 . S
C855 C854 1.372 . S
C855 C856 1.400 . S
C855 C860 1.490 . S
C856 H846 0.930 . S
C856 C855 1.400 . S
C856 C859 1.386 . S
H857 C873 0.930 . S
H858 C874 0.931 . S
C859 H847 0.929 . S
C859 C853 1.390 . S
C859 C856 1.386 . S
C860 C855 1.490 . S
C860 C862 1.395 . S
C860 C863 1.403 . S
H861 C867 0.930 . S
C862 H848 0.930 . S
C862 C860 1.395 . S
C862 C865 1.403 . S
C863 C860 1.403 . S
C863 C864 1.524 . S
C863 C867 1.400 . S
C864 H849 0.960 . S
C864 H850 0.960 . S
C864 H851 0.960 . S
C864 C863 1.524 . S
C865 C862 1.403 . S
C865 C866 1.392 . S
C865 C869 1.495 . S
C866 C865 1.392 . S
C866 C867 1.385 . S
C866 C868 1.478 . S
C867 H861 0.930 . S
C867 C863 1.400 . S
C867 C866 1.385 . S
C868 C866 1.478 . S
C868 C870 1.381 . S
C868 C874 1.383 . S
C869 C865 1.495 . S
C869 H875 0.959 . S
C869 H876 0.961 . S
C869 H877 0.960 . S
C870 C868 1.381 . S
C870 C871 1.394 . S
C870 H878 0.930 . S
C871 C870 1.394 . S
C871 C872 1.383 . S
C871 H879 0.929 . S
C872 C871 1.383 . S
C872 C873 1.377 . S
C873 H857 0.930 . S
C873 C872 1.377 . S
C873 C874 1.379 . S
C874 H858 0.931 . S
C874 C868 1.383 . S
C874 C873 1.379 . S
H875 C869 0.959 . S
H876 C869 0.961 . S
H877 C869 0.960 . S
H878 C870 0.930 . S
H879 C871 0.929 . S
H880 C888 0.929 . S
H881 C890 0.930 . S
H882 C892 0.930 . S
H883 C895 0.929 . S
H884 C898 0.930 . S
H885 C900 0.960 . S
H886 C900 0.960 . S
H887 C900 0.960 . S
C888 H880 0.929 . S
C888 C889 1.377 . S
C888 C890 1.384 . S
C889 C888 1.377 . S
C889 C895 1.390 . S
C890 H881 0.930 . S
C890 C888 1.384 . S
C890 C891 1.372 . S
C891 C890 1.372 . S
C891 C892 1.400 . S
C891 C896 1.490 . S
C892 H882 0.930 . S
C892 C891 1.400 . S
C892 C895 1.386 . S
H893 C909 0.930 . S
H894 C910 0.931 . S
C895 H883 0.929 . S
C895 C889 1.390 . S
C895 C892 1.386 . S
C896 C891 1.490 . S
C896 C898 1.395 . S
C896 C899 1.403 . S
H897 C903 0.930 . S
C898 H884 0.930 . S
C898 C896 1.395 . S
C898 C901 1.403 . S
C899 C896 1.403 . S
C899 C900 1.524 . S
C899 C903 1.400 . S
C900 H885 0.960 . S
C900 H886 0.960 . S
C900 H887 0.960 . S
C900 C899 1.524 . S
C901 C898 1.403 . S
C901 C902 1.392 . S
C901 C905 1.495 . S
C902 C901 1.392 . S
C902 C903 1.385 . S
C902 C904 1.478 . S
C903 H897 0.930 . S
C903 C899 1.400 . S
C903 C902 1.385 . S
C904 C902 1.478 . S
C904 C906 1.381 . S
C904 C910 1.383 . S
C905 C901 1.495 . S
C905 H911 0.959 . S
C905 H912 0.961 . S
C905 H913 0.960 . S
C906 C904 1.381 . S
C906 C907 1.394 . S
C906 H914 0.930 . S
C907 C906 1.394 . S
C907 C908 1.383 . S
C907 H915 0.929 . S
C908 C907 1.383 . S
C908 C909 1.377 . S
C909 H893 0.930 . S
C909 C908 1.377 . S
C909 C910 1.379 . S
C910 H894 0.931 . S
C910 C904 1.383 . S
C910 C909 1.379 . S
H911 C905 0.959 . S
H912 C905 0.961 . S
H913 C905 0.960 . S
H914 C906 0.930 . S
H915 C907 0.929 . S
H916 C924 0.929 . S
H917 C926 0.930 . S
H918 C928 0.930 . S
H919 C931 0.929 . S
H920 C934 0.930 . S
H921 C936 0.968 . S
H922 C936 0.960 . S
H923 C936 0.960 . S
C924 H916 0.929 . S
C924 C925 1.377 . S
C924 C926 1.384 . S
C925 C924 1.377 . S
C925 C931 1.390 . S
C926 H917 0.930 . S
C926 C924 1.384 . S
C926 C927 1.372 . S
C927 C926 1.372 . S
C927 C928 1.400 . S
C927 C932 1.490 . S
C928 H918 0.930 . S
C928 C927 1.400 . S
C928 C931 1.386 . S
H929 C945 0.930 . S
H930 C946 0.931 . S
C931 H919 0.929 . S
C931 C925 1.390 . S
C931 C928 1.386 . S
C932 C927 1.490 . S
C932 C934 1.395 . S
C932 C935 1.403 . S
H933 C939 0.930 . S
C934 H920 0.930 . S
C934 C932 1.395 . S
C934 C937 1.403 . S
C935 C932 1.403 . S
C935 C936 1.524 . S
C935 C939 1.400 . S
C936 H921 0.968 . S
C936 H922 0.960 . S
C936 H923 0.960 . S
C936 C935 1.524 . S
C937 C934 1.403 . S
C937 C938 1.392 . S
C937 C941 1.495 . S
C938 C937 1.392 . S
C938 C939 1.385 . S
C938 C940 1.478 . S
C939 H933 0.930 . S
C939 C935 1.400 . S
C939 C938 1.385 . S
C940 C938 1.478 . S
C940 C942 1.381 . S
C940 C946 1.383 . S
C941 C937 1.495 . S
C941 H947 0.959 . S
C941 H948 0.961 . S
C941 H949 0.960 . S
C942 C940 1.381 . S
C942 C943 1.394 . S
C942 H950 0.930 . S
C943 C942 1.394 . S
C943 C944 1.383 . S
C943 H951 0.929 . S
C944 C943 1.383 . S
C944 C945 1.377 . S
C945 H929 0.930 . S
C945 C944 1.377 . S
C945 C946 1.379 . S
C946 H930 0.931 . S
C946 C940 1.383 . S
C946 C945 1.379 . S
H947 C941 0.959 . S
H948 C941 0.961 . S
H949 C941 0.960 . S
H950 C942 0.930 . S
H951 C943 0.929 . S
H952 C960 0.929 . S
H953 C962 0.930 . S
H954 C964 0.930 . S
H955 C967 0.929 . S
H956 C970 0.930 . S
H957 C972 0.960 . S
H958 C972 0.960 . S
H959 C972 0.960 . S
C960 H952 0.929 . S
C960 C961 1.377 . S
C960 C962 1.384 . S
C961 C960 1.377 . S
C961 C967 1.390 . S
C962 H953 0.930 . S
C962 C960 1.384 . S
C962 C963 1.372 . S
C963 C962 1.372 . S
C963 C964 1.400 . S
C963 C968 1.490 . S
C964 H954 0.930 . S
C964 C963 1.400 . S
C964 C967 1.386 . S
H965 C981 0.930 . S
H966 C982 0.931 . S
C967 H955 0.929 . S
C967 C961 1.390 . S
C967 C964 1.386 . S
C968 C963 1.490 . S
C968 C970 1.395 . S
C968 C971 1.403 . S
H969 C975 0.930 . S
C970 H956 0.930 . S
C970 C968 1.395 . S
C970 C973 1.403 . S
C971 C968 1.403 . S
C971 C972 1.524 . S
C971 C975 1.400 . S
C972 H957 0.960 . S
C972 H958 0.960 . S
C972 H959 0.960 . S
C972 C971 1.524 . S
C973 C970 1.403 . S
C973 C974 1.392 . S
C973 C977 1.495 . S
C974 C973 1.392 . S
C974 C975 1.385 . S
C974 C976 1.478 . S
C975 H969 0.930 . S
C975 C971 1.400 . S
C975 C974 1.385 . S
C976 C974 1.478 . S
C976 C978 1.381 . S
C976 C982 1.383 . S
C977 C973 1.495 . S
C977 H983 0.959 . S
C977 H984 0.961 . S
C977 H985 0.960 . S
C978 C976 1.381 . S
C978 C979 1.394 1_565 S
C978 H986 0.930 . S
C979 C978 1.394 1_545 S
C979 C980 1.383 . S
C979 H987 0.929 . S
C980 C979 1.383 . S
C980 C981 1.377 . S
C981 H965 0.930 . S
C981 C980 1.377 . S
C981 C982 1.379 1_545 S
C982 H966 0.931 . S
C982 C976 1.383 . S
C982 C981 1.379 1_565 S
H983 C977 0.959 . S
H984 C977 0.961 . S
H985 C977 0.960 . S
H986 C978 0.930 . S
H987 C979 0.929 . S
H988 C996 0.929 . S
H989 C998 0.930 . S
H990 C1000 0.930 . S
H991 C1003 0.929 . S
H992 C1006 0.930 . S
H993 C1008 0.960 . S
H994 C1008 0.960 . S
H995 C1008 0.960 . S
C996 H988 0.929 . S
C996 C997 1.377 . S
C996 C998 1.384 . S
C997 C996 1.377 . S
C997 C1003 1.390 . S
C998 H989 0.930 . S
C998 C996 1.384 . S
C998 C999 1.372 . S
C999 C998 1.372 . S
C999 C1000 1.400 . S
C999 C1004 1.490 . S
C1000 H990 0.930 . S
C1000 C999 1.400 . S
C1000 C1003 1.386 . S
H1001 C1017 0.930 . S
H1002 C1018 0.931 . S
C1003 H991 0.929 . S
C1003 C997 1.390 . S
C1003 C1000 1.386 . S
C1004 C999 1.490 . S
C1004 C1006 1.395 . S
C1004 C1007 1.403 . S
H1005 C1011 0.930 . S
C1006 H992 0.930 . S
C1006 C1004 1.395 . S
C1006 C1009 1.403 . S
C1007 C1004 1.403 . S
C1007 C1008 1.524 . S
C1007 C1011 1.400 . S
C1008 H993 0.960 . S
C1008 H994 0.960 . S
C1008 H995 0.960 . S
C1008 C1007 1.524 . S
C1009 C1006 1.403 . S
C1009 C1010 1.392 . S
C1009 C1013 1.495 . S
C1010 C1009 1.392 . S
C1010 C1011 1.385 . S
C1010 C1012 1.478 . S
C1011 H1005 0.930 . S
C1011 C1007 1.400 . S
C1011 C1010 1.385 . S
C1012 C1010 1.478 . S
C1012 C1014 1.381 . S
C1012 C1018 1.383 . S
C1013 C1009 1.495 . S
C1013 H1019 0.959 . S
C1013 H1020 0.961 . S
C1013 H1021 0.960 . S
C1014 C1012 1.381 . S
C1014 C1015 1.394 . S
C1014 H1022 0.930 . S
C1015 C1014 1.394 . S
C1015 C1016 1.383 . S
C1015 H1023 0.929 . S
C1016 C1015 1.383 . S
C1016 C1017 1.377 . S
C1017 H1001 0.930 . S
C1017 C1016 1.377 . S
C1017 C1018 1.379 . S
C1018 H1002 0.931 . S
C1018 C1012 1.383 . S
C1018 C1017 1.379 . S
H1019 C1013 0.959 . S
H1020 C1013 0.961 . S
H1021 C1013 0.960 . S
H1022 C1014 0.930 . S
H1023 C1015 0.929 . S
H1024 C1032 0.929 . S
H1025 C1034 0.930 . S
H1026 C1036 0.930 . S
H1027 C1039 0.929 . S
H1028 C1042 0.930 . S
H1029 C1044 0.960 . S
H1030 C1044 0.960 . S
H1031 C1044 0.960 . S
C1032 H1024 0.929 . S
C1032 C1033 1.377 . S
C1032 C1034 1.384 . S
C1033 C1032 1.377 . S
C1033 C1039 1.390 . S
C1034 H1025 0.930 . S
C1034 C1032 1.384 . S
C1034 C1035 1.372 . S
C1035 C1034 1.372 . S
C1035 C1036 1.400 . S
C1035 C1040 1.490 . S
C1036 H1026 0.930 . S
C1036 C1035 1.400 . S
C1036 C1039 1.386 . S
H1037 C1053 0.930 . S
H1038 C1054 0.946 . S
C1039 H1027 0.929 . S
C1039 C1033 1.390 . S
C1039 C1036 1.386 . S
C1040 C1035 1.490 . S
C1040 C1042 1.395 . S
C1040 C1043 1.403 . S
H1041 C1047 0.930 . S
C1042 H1028 0.930 . S
C1042 C1040 1.395 . S
C1042 C1045 1.403 . S
C1043 C1040 1.403 . S
C1043 C1044 1.524 . S
C1043 C1047 1.400 . S
C1044 H1029 0.960 . S
C1044 H1030 0.960 . S
C1044 H1031 0.960 . S
C1044 C1043 1.524 . S
C1045 C1042 1.403 . S
C1045 C1046 1.392 . S
C1045 C1049 1.501 . S
C1046 C1045 1.392 . S
C1046 C1047 1.385 . S
C1046 C1048 1.478 . S
C1047 H1041 0.930 . S
C1047 C1043 1.400 . S
C1047 C1046 1.385 . S
C1048 C1046 1.478 . S
C1048 C1050 1.381 1_545 S
C1048 C1054 1.383 . S
C1049 C1045 1.501 . S
C1049 H1055 0.958 1_556 S
C1049 H1056 0.953 1_556 S
C1049 H1057 0.963 1_545 S
C1050 C1048 1.381 1_565 S
C1050 C1051 1.394 . S
C1050 H1058 0.930 . S
C1051 C1050 1.394 . S
C1051 C1052 1.383 . S
C1051 H1059 0.929 . S
C1052 C1051 1.383 . S
C1052 C1053 1.377 1_556 S
C1053 H1037 0.930 . S
C1053 C1052 1.377 1_554 S
C1053 C1054 1.379 1_564 S
C1054 H1038 0.946 . S
C1054 C1048 1.383 . S
C1054 C1053 1.379 1_546 S
H1055 C1049 0.958 1_554 S
H1056 C1049 0.953 1_554 S
H1057 C1049 0.963 1_565 S
H1058 C1050 0.930 . S
H1059 C1051 0.929 . S
H1060 C1068 0.929 . S
H1061 C1070 0.930 . S
H1062 C1072 0.930 . S
H1063 C1075 0.929 . S
H1064 C1078 0.930 . S
H1065 C1080 0.960 . S
H1066 C1080 0.960 . S
H1067 C1080 0.960 . S
C1068 H1060 0.929 . S
C1068 C1069 1.377 . S
C1068 C1070 1.384 . S
C1069 C1068 1.377 . S
C1069 C1075 1.390 . S
C1070 H1061 0.930 . S
C1070 C1068 1.384 . S
C1070 C1071 1.372 . S
C1071 C1070 1.372 . S
C1071 C1072 1.400 . S
C1071 C1076 1.490 . S
C1072 H1062 0.930 . S
C1072 C1071 1.400 . S
C1072 C1075 1.386 . S
H1073 C1089 0.930 . S
H1074 C1090 0.931 . S
C1075 H1063 0.929 . S
C1075 C1069 1.390 . S
C1075 C1072 1.386 . S
C1076 C1071 1.490 . S
C1076 C1078 1.395 . S
C1076 C1079 1.403 . S
H1077 C1083 0.930 . S
C1078 H1064 0.930 . S
C1078 C1076 1.395 . S
C1078 C1081 1.403 . S
C1079 C1076 1.403 . S
C1079 C1080 1.524 . S
C1079 C1083 1.400 . S
C1080 H1065 0.960 . S
C1080 H1066 0.960 . S
C1080 H1067 0.960 . S
C1080 C1079 1.524 . S
C1081 C1078 1.403 . S
C1081 C1082 1.392 . S
C1081 C1085 1.495 . S
C1082 C1081 1.392 . S
C1082 C1083 1.385 . S
C1082 C1084 1.478 . S
C1083 H1077 0.930 . S
C1083 C1079 1.400 . S
C1083 C1082 1.385 . S
C1084 C1082 1.478 . S
C1084 C1086 1.381 . S
C1084 C1090 1.383 . S
C1085 C1081 1.495 . S
C1085 H1091 0.959 . S
C1085 H1092 0.961 . S
C1085 H1093 0.960 . S
C1086 C1084 1.381 . S
C1086 C1087 1.394 . S
C1086 H1094 0.930 . S
C1087 C1086 1.394 . S
C1087 C1088 1.383 . S
C1087 H1095 0.929 . S
C1088 C1087 1.383 . S
C1088 C1089 1.377 . S
C1089 H1073 0.930 . S
C1089 C1088 1.377 . S
C1089 C1090 1.379 . S
C1090 H1074 0.931 . S
C1090 C1084 1.383 . S
C1090 C1089 1.379 . S
H1091 C1085 0.959 . S
H1092 C1085 0.961 . S
H1093 C1085 0.960 . S
H1094 C1086 0.930 . S
H1095 C1087 0.929 . S
H1096 C1104 0.929 . S
H1097 C1106 0.930 . S
H1098 C1108 0.939 . S
H1099 C1111 0.929 . S
H1100 C1114 0.930 . S
H1101 C1116 0.960 . S
H1102 C1116 0.960 . S
H1103 C1116 0.985 . S
C1104 H1096 0.929 . S
C1104 C1105 1.377 1_545 S
C1104 C1106 1.384 . S
C1105 C1104 1.377 1_565 S
C1105 C1111 1.390 . S
C1106 H1097 0.930 . S
C1106 C1104 1.384 . S
C1106 C1107 1.372 . S
C1107 C1106 1.372 . S
C1107 C1108 1.374 1_545 S
C1107 C1112 1.490 . S
C1108 H1098 0.939 . S
C1108 C1107 1.374 1_565 S
C1108 C1111 1.403 . S
H1109 C1125 0.930 . S
H1110 C1126 0.931 . S
C1111 H1099 0.929 . S
C1111 C1105 1.390 . S
C1111 C1108 1.403 . S
C1112 C1107 1.490 . S
C1112 C1114 1.395 . S
C1112 C1115 1.403 . S
H1113 C1119 0.930 . S
C1114 H1100 0.930 . S
C1114 C1112 1.395 . S
C1114 C1117 1.403 . S
C1115 C1112 1.403 . S
C1115 C1116 1.524 . S
C1115 C1119 1.400 . S
C1116 H1101 0.960 . S
C1116 H1102 0.960 . S
C1116 H1103 0.985 . S
C1116 C1115 1.524 . S
C1117 C1114 1.403 . S
C1117 C1118 1.392 . S
C1117 C1121 1.495 . S
C1118 C1117 1.392 . S
C1118 C1119 1.385 . S
C1118 C1120 1.478 . S
C1119 H1113 0.930 . S
C1119 C1115 1.400 . S
C1119 C1118 1.385 . S
C1120 C1118 1.478 . S
C1120 C1122 1.381 . S
C1120 C1126 1.383 . S
C1121 C1117 1.495 . S
C1121 H1127 0.959 . S
C1121 H1128 0.961 . S
C1121 H1129 0.960 . S
C1122 C1120 1.381 . S
C1122 C1123 1.394 . S
C1122 H1130 0.930 . S
C1123 C1122 1.394 . S
C1123 C1124 1.383 . S
C1123 H1131 0.929 . S
C1124 C1123 1.383 . S
C1124 C1125 1.377 . S
C1125 H1109 0.930 . S
C1125 C1124 1.377 . S
C1125 C1126 1.379 . S
C1126 H1110 0.931 . S
C1126 C1120 1.383 . S
C1126 C1125 1.379 . S
H1127 C1121 0.959 . S
H1128 C1121 0.961 . S
H1129 C1121 0.960 . S
H1130 C1122 0.930 . S
H1131 C1123 0.929 . S
H1132 C1140 0.929 . S
H1133 C1142 0.930 . S
H1134 C1144 0.930 . S
H1135 C1147 0.929 . S
H1136 C1150 0.930 . S
H1137 C1152 0.960 . S
H1138 C1152 0.960 . S
H1139 C1152 0.960 . S
C1140 H1132 0.929 . S
C1140 C1141 1.377 . S
C1140 C1142 1.384 . S
C1141 C1140 1.377 . S
C1141 C1147 1.390 . S
C1142 H1133 0.930 . S
C1142 C1140 1.384 . S
C1142 C1143 1.372 . S
C1143 C1142 1.372 . S
C1143 C1144 1.400 . S
C1143 C1148 1.490 . S
C1144 H1134 0.930 . S
C1144 C1143 1.400 . S
C1144 C1147 1.386 . S
H1145 C1161 0.930 . S
H1146 C1162 0.931 . S
C1147 H1135 0.929 . S
C1147 C1141 1.390 . S
C1147 C1144 1.386 . S
C1148 C1143 1.490 . S
C1148 C1150 1.395 . S
C1148 C1151 1.403 . S
H1149 C1155 0.930 . S
C1150 H1136 0.930 . S
C1150 C1148 1.395 . S
C1150 C1153 1.403 . S
C1151 C1148 1.403 . S
C1151 C1152 1.524 . S
C1151 C1155 1.400 . S
C1152 H1137 0.960 . S
C1152 H1138 0.960 . S
C1152 H1139 0.960 . S
C1152 C1151 1.524 . S
C1153 C1150 1.403 . S
C1153 C1154 1.392 . S
C1153 C1157 1.495 . S
C1154 C1153 1.392 . S
C1154 C1155 1.385 . S
C1154 C1156 1.478 . S
C1155 H1149 0.930 . S
C1155 C1151 1.400 . S
C1155 C1154 1.385 . S
C1156 C1154 1.478 . S
C1156 C1158 1.381 . S
C1156 C1162 1.383 . S
C1157 C1153 1.495 . S
C1157 H1163 0.959 . S
C1157 H1164 0.961 . S
C1157 H1165 0.960 . S
C1158 C1156 1.381 . S
C1158 C1159 1.394 . S
C1158 H1166 0.930 . S
C1159 C1158 1.394 . S
C1159 C1160 1.383 . S
C1159 H1167 0.929 . S
C1160 C1159 1.383 . S
C1160 C1161 1.377 . S
C1161 H1145 0.930 . S
C1161 C1160 1.377 . S
C1161 C1162 1.379 . S
C1162 H1146 0.931 . S
C1162 C1156 1.383 . S
C1162 C1161 1.379 . S
H1163 C1157 0.959 . S
H1164 C1157 0.961 . S
H1165 C1157 0.960 . S
H1166 C1158 0.930 . S
H1167 C1159 0.929 . S
H1168 C1176 0.929 . S
H1169 C1178 0.930 . S
H1170 C1180 0.930 . S
H1171 C1183 0.929 . S
H1172 C1186 0.930 1_565 S
H1173 C1188 0.960 . S
H1174 C1188 0.960 1_565 S
H1175 C1188 0.960 . S
C1176 H1168 0.929 . S
C1176 C1177 1.377 . S
C1176 C1178 1.384 . S
C1177 C1176 1.377 . S
C1177 C1183 1.390 . S
C1178 H1169 0.930 . S
C1178 C1176 1.384 . S
C1178 C1179 1.372 . S
C1179 C1178 1.372 . S
C1179 C1180 1.400 . S
C1179 C1184 1.538 . S
C1180 H1170 0.930 . S
C1180 C1179 1.400 . S
C1180 C1183 1.386 . S
H1181 C1197 0.930 . S
H1182 C1198 0.931 . S
C1183 H1171 0.929 . S
C1183 C1177 1.390 . S
C1183 C1180 1.386 . S
C1184 C1179 1.538 . S
C1184 C1186 1.377 1_565 S
C1184 C1187 1.374 1_565 S
H1185 C1191 0.930 . S
C1186 H1172 0.930 1_545 S
C1186 C1184 1.377 1_545 S
C1186 C1189 1.403 . S
C1187 C1184 1.374 1_545 S
C1187 C1188 1.524 . S
C1187 C1191 1.400 . S
C1188 H1173 0.960 . S
C1188 H1174 0.960 1_545 S
C1188 H1175 0.960 . S
C1188 C1187 1.524 . S
C1189 C1186 1.403 . S
C1189 C1190 1.392 . S
C1189 C1193 1.495 . S
C1190 C1189 1.392 . S
C1190 C1191 1.385 . S
C1190 C1192 1.478 . S
C1191 H1185 0.930 . S
C1191 C1187 1.400 . S
C1191 C1190 1.385 . S
C1192 C1190 1.478 . S
C1192 C1194 1.381 . S
C1192 C1198 1.383 . S
C1193 C1189 1.495 . S
C1193 H1199 0.959 . S
C1193 H1200 0.961 . S
C1193 H1201 0.960 . S
C1194 C1192 1.381 . S
C1194 C1195 1.394 . S
C1194 H1202 0.930 . S
C1195 C1194 1.394 . S
C1195 C1196 1.383 . S
C1195 H1203 0.929 . S
C1196 C1195 1.383 . S
C1196 C1197 1.377 . S
C1197 H1181 0.930 . S
C1197 C1196 1.377 . S
C1197 C1198 1.379 . S
C1198 H1182 0.931 . S
C1198 C1192 1.383 . S
C1198 C1197 1.379 . S
H1199 C1193 0.959 . S
H1200 C1193 0.961 . S
H1201 C1193 0.960 . S
H1202 C1194 0.930 . S
H1203 C1195 0.929 . S
H1204 C1212 0.929 . S
H1205 C1214 0.930 . S
H1206 C1216 0.930 . S
H1207 C1219 0.929 . S
H1208 C1222 0.930 . S
H1209 C1224 0.960 . S
H1210 C1224 0.960 . S
H1211 C1224 0.960 . S
C1212 H1204 0.929 . S
C1212 C1213 1.377 . S
C1212 C1214 1.384 . S
C1213 C1212 1.377 . S
C1213 C1219 1.390 . S
C1214 H1205 0.930 . S
C1214 C1212 1.384 . S
C1214 C1215 1.372 . S
C1215 C1214 1.372 . S
C1215 C1216 1.400 . S
C1215 C1220 1.490 . S
C1216 H1206 0.930 . S
C1216 C1215 1.400 . S
C1216 C1219 1.386 . S
H1217 C1233 0.930 . S
H1218 C1234 0.931 . S
C1219 H1207 0.929 . S
C1219 C1213 1.390 . S
C1219 C1216 1.386 . S
C1220 C1215 1.490 . S
C1220 C1222 1.395 . S
C1220 C1223 1.403 . S
H1221 C1227 0.930 . S
C1222 H1208 0.930 . S
C1222 C1220 1.395 . S
C1222 C1225 1.403 . S
C1223 C1220 1.403 . S
C1223 C1224 1.524 . S
C1223 C1227 1.400 . S
C1224 H1209 0.960 . S
C1224 H1210 0.960 . S
C1224 H1211 0.960 . S
C1224 C1223 1.524 . S
C1225 C1222 1.403 . S
C1225 C1226 1.392 . S
C1225 C1229 1.495 . S
C1226 C1225 1.392 . S
C1226 C1227 1.385 . S
C1226 C1228 1.478 . S
C1227 H1221 0.930 . S
C1227 C1223 1.400 . S
C1227 C1226 1.385 . S
C1228 C1226 1.478 . S
C1228 C1230 1.381 . S
C1228 C1234 1.383 . S
C1229 C1225 1.495 . S
C1229 H1235 0.959 . S
C1229 H1236 0.961 . S
C1229 H1237 0.960 . S
C1230 C1228 1.381 . S
C1230 C1231 1.394 . S
C1230 H1238 0.930 . S
C1231 C1230 1.394 . S
C1231 C1232 1.383 . S
C1231 H1239 0.929 . S
C1232 C1231 1.383 . S
C1232 C1233 1.377 . S
C1233 H1217 0.930 . S
C1233 C1232 1.377 . S
C1233 C1234 1.379 . S
C1234 H1218 0.931 . S
C1234 C1228 1.383 . S
C1234 C1233 1.379 . S
H1235 C1229 0.959 . S
H1236 C1229 0.961 . S
H1237 C1229 0.960 . S
H1238 C1230 0.930 . S
H1239 C1231 0.929 . S
H1240 C1248 0.929 . S
H1241 C1250 0.930 . S
H1242 C1252 0.930 . S
H1243 C1255 0.929 . S
H1244 C1258 0.930 . S
H1245 C1260 0.960 . S
H1246 C1260 0.960 . S
H1247 C1260 0.960 . S
C1248 H1240 0.929 . S
C1248 C1249 1.377 . S
C1248 C1250 1.384 . S
C1249 C1248 1.377 . S
C1249 C1255 1.390 . S
C1250 H1241 0.930 . S
C1250 C1248 1.384 . S
C1250 C1251 1.372 . S
C1251 C1250 1.372 . S
C1251 C1252 1.400 . S
C1251 C1256 1.490 . S
C1252 H1242 0.930 . S
C1252 C1251 1.400 . S
C1252 C1255 1.386 . S
H1253 C1269 0.930 . S
H1254 C1270 0.931 . S
C1255 H1243 0.929 . S
C1255 C1249 1.390 . S
C1255 C1252 1.386 . S
C1256 C1251 1.490 . S
C1256 C1258 1.395 . S
C1256 C1259 1.403 . S
H1257 C1263 0.930 . S
C1258 H1244 0.930 . S
C1258 C1256 1.395 . S
C1258 C1261 1.403 . S
C1259 C1256 1.403 . S
C1259 C1260 1.524 . S
C1259 C1263 1.400 . S
C1260 H1245 0.960 . S
C1260 H1246 0.960 . S
C1260 H1247 0.960 . S
C1260 C1259 1.524 . S
C1261 C1258 1.403 . S
C1261 C1262 1.392 . S
C1261 C1265 1.495 . S
C1262 C1261 1.392 . S
C1262 C1263 1.385 . S
C1262 C1264 1.478 . S
C1263 H1257 0.930 . S
C1263 C1259 1.400 . S
C1263 C1262 1.385 . S
C1264 C1262 1.478 . S
C1264 C1266 1.381 . S
C1264 C1270 1.383 . S
C1265 C1261 1.495 . S
C1265 H1271 0.959 . S
C1265 H1272 0.961 . S
C1265 H1273 0.960 . S
C1266 C1264 1.381 . S
C1266 C1267 1.394 . S
C1266 H1274 0.930 . S
C1267 C1266 1.394 . S
C1267 C1268 1.383 . S
C1267 H1275 0.929 . S
C1268 C1267 1.383 . S
C1268 C1269 1.377 . S
C1269 H1253 0.930 . S
C1269 C1268 1.377 . S
C1269 C1270 1.379 . S
C1270 H1254 0.931 . S
C1270 C1264 1.383 . S
C1270 C1269 1.379 . S
H1271 C1265 0.959 . S
H1272 C1265 0.961 . S
H1273 C1265 0.960 . S
H1274 C1266 0.930 . S
H1275 C1267 0.929 . S
H1276 C1284 0.929 . S
H1277 C1286 0.930 . S
H1278 C1288 0.930 . S
H1279 C1291 0.929 . S
H1280 C1294 0.930 . S
H1281 C1296 0.960 . S
H1282 C1296 0.960 . S
H1283 C1296 0.960 . S
C1284 H1276 0.929 . S
C1284 C1285 1.377 . S
C1284 C1286 1.384 . S
C1285 C1284 1.377 . S
C1285 C1291 1.390 . S
C1286 H1277 0.930 . S
C1286 C1284 1.384 . S
C1286 C1287 1.372 . S
C1287 C1286 1.372 . S
C1287 C1288 1.400 . S
C1287 C1292 1.490 . S
C1288 H1278 0.930 . S
C1288 C1287 1.400 . S
C1288 C1291 1.386 . S
H1289 C1305 0.930 . S
H1290 C1306 0.931 . S
C1291 H1279 0.929 . S
C1291 C1285 1.390 . S
C1291 C1288 1.386 . S
C1292 C1287 1.490 . S
C1292 C1294 1.395 . S
C1292 C1295 1.403 . S
H1293 C1299 0.930 . S
C1294 H1280 0.930 . S
C1294 C1292 1.395 . S
C1294 C1297 1.403 . S
C1295 C1292 1.403 . S
C1295 C1296 1.524 . S
C1295 C1299 1.400 . S
C1296 H1281 0.960 . S
C1296 H1282 0.960 . S
C1296 H1283 0.960 . S
C1296 C1295 1.524 . S
C1297 C1294 1.403 . S
C1297 C1298 1.392 . S
C1297 C1301 1.495 . S
C1298 C1297 1.392 . S
C1298 C1299 1.385 . S
C1298 C1300 1.478 . S
C1299 H1293 0.930 . S
C1299 C1295 1.400 . S
C1299 C1298 1.385 . S
C1300 C1298 1.478 . S
C1300 C1302 1.381 . S
C1300 C1306 1.383 . S
C1301 C1297 1.495 . S
C1301 H1307 0.959 . S
C1301 H1308 0.961 . S
C1301 H1309 0.960 . S
C1302 C1300 1.381 . S
C1302 C1303 1.394 . S
C1302 H1310 0.930 . S
C1303 C1302 1.394 . S
C1303 C1304 1.383 . S
C1303 H1311 0.929 . S
C1304 C1303 1.383 . S
C1304 C1305 1.377 . S
C1305 H1289 0.930 . S
C1305 C1304 1.377 . S
C1305 C1306 1.379 . S
C1306 H1290 0.931 . S
C1306 C1300 1.383 . S
C1306 C1305 1.379 . S
H1307 C1301 0.959 . S
H1308 C1301 0.961 . S
H1309 C1301 0.960 . S
H1310 C1302 0.930 . S
H1311 C1303 0.929 . S
H1312 C1320 0.929 . S
H1313 C1322 0.930 . S
H1314 C1324 0.930 . S
H1315 C1327 0.929 . S
H1316 C1330 0.930 . S
H1317 C1332 0.960 . S
H1318 C1332 0.960 . S
H1319 C1332 0.960 . S
C1320 H1312 0.929 . S
C1320 C1321 1.377 . S
C1320 C1322 1.384 . S
C1321 C1320 1.377 . S
C1321 C1327 1.390 . S
C1322 H1313 0.930 . S
C1322 C1320 1.384 . S
C1322 C1323 1.372 . S
C1323 C1322 1.372 . S
C1323 C1324 1.400 . S
C1323 C1328 1.490 . S
C1324 H1314 0.930 . S
C1324 C1323 1.400 . S
C1324 C1327 1.386 . S
H1325 C1341 0.930 . S
H1326 C1342 0.931 . S
C1327 H1315 0.929 . S
C1327 C1321 1.390 . S
C1327 C1324 1.386 . S
C1328 C1323 1.490 . S
C1328 C1330 1.395 . S
C1328 C1331 1.403 . S
H1329 C1335 0.930 . S
C1330 H1316 0.930 . S
C1330 C1328 1.395 . S
C1330 C1333 1.403 . S
C1331 C1328 1.403 . S
C1331 C1332 1.524 . S
C1331 C1335 1.400 . S
C1332 H1317 0.960 . S
C1332 H1318 0.960 . S
C1332 H1319 0.960 . S
C1332 C1331 1.524 . S
C1333 C1330 1.403 . S
C1333 C1334 1.392 . S
C1333 C1337 1.495 . S
C1334 C1333 1.392 . S
C1334 C1335 1.385 . S
C1334 C1336 1.478 . S
C1335 H1329 0.930 . S
C1335 C1331 1.400 . S
C1335 C1334 1.385 . S
C1336 C1334 1.478 . S
C1336 C1338 1.381 . S
C1336 C1342 1.383 . S
C1337 C1333 1.495 . S
C1337 H1343 0.959 . S
C1337 H1344 0.961 . S
C1337 H1345 0.960 . S
C1338 C1336 1.381 . S
C1338 C1339 1.394 . S
C1338 H1346 0.930 . S
C1339 C1338 1.394 . S
C1339 C1340 1.383 . S
C1339 H1347 0.929 . S
C1340 C1339 1.383 . S
C1340 C1341 1.377 . S
C1341 H1325 0.930 . S
C1341 C1340 1.377 . S
C1341 C1342 1.379 . S
C1342 H1326 0.931 . S
C1342 C1336 1.383 . S
C1342 C1341 1.379 . S
H1343 C1337 0.959 . S
H1344 C1337 0.961 . S
H1345 C1337 0.960 . S
H1346 C1338 0.930 . S
H1347 C1339 0.929 . S
H1348 C1356 0.929 . S
H1349 C1358 0.930 . S
H1350 C1360 0.930 . S
H1351 C1363 0.929 . S
H1352 C1366 0.930 . S
H1353 C1368 0.960 . S
H1354 C1368 0.960 . S
H1355 C1368 0.960 . S
C1356 H1348 0.929 . S
C1356 C1357 1.377 . S
C1356 C1358 1.384 . S
C1357 C1356 1.377 . S
C1357 C1363 1.390 . S
C1358 H1349 0.930 . S
C1358 C1356 1.384 . S
C1358 C1359 1.372 . S
C1359 C1358 1.372 . S
C1359 C1360 1.400 . S
C1359 C1364 1.490 . S
C1360 H1350 0.930 . S
C1360 C1359 1.400 . S
C1360 C1363 1.386 . S
H1361 C1377 0.930 . S
H1362 C1378 0.931 . S
C1363 H1351 0.929 . S
C1363 C1357 1.390 . S
C1363 C1360 1.386 . S
C1364 C1359 1.490 . S
C1364 C1366 1.395 . S
C1364 C1367 1.403 . S
H1365 C1371 0.930 . S
C1366 H1352 0.930 . S
C1366 C1364 1.395 . S
C1366 C1369 1.403 . S
C1367 C1364 1.403 . S
C1367 C1368 1.524 . S
C1367 C1371 1.400 . S
C1368 H1353 0.960 . S
C1368 H1354 0.960 . S
C1368 H1355 0.960 . S
C1368 C1367 1.524 . S
C1369 C1366 1.403 . S
C1369 C1370 1.392 . S
C1369 C1373 1.495 . S
C1370 C1369 1.392 . S
C1370 C1371 1.385 . S
C1370 C1372 1.478 . S
C1371 H1365 0.930 . S
C1371 C1367 1.400 . S
C1371 C1370 1.385 . S
C1372 C1370 1.478 . S
C1372 C1374 1.381 . S
C1372 C1378 1.383 . S
C1373 C1369 1.495 . S
C1373 H1379 0.959 . S
C1373 H1380 0.961 . S
C1373 H1381 0.960 . S
C1374 C1372 1.381 . S
C1374 C1375 1.394 . S
C1374 H1382 0.930 . S
C1375 C1374 1.394 . S
C1375 C1376 1.383 . S
C1375 H1383 0.929 . S
C1376 C1375 1.383 . S
C1376 C1377 1.377 . S
C1377 H1361 0.930 . S
C1377 C1376 1.377 . S
C1377 C1378 1.379 . S
C1378 H1362 0.931 . S
C1378 C1372 1.383 . S
C1378 C1377 1.379 . S
H1379 C1373 0.959 . S
H1380 C1373 0.961 . S
H1381 C1373 0.960 . S
H1382 C1374 0.930 . S
H1383 C1375 0.929 . S
H1384 C1392 0.929 . S
H1385 C1394 0.930 . S
H1386 C1396 0.930 . S
H1387 C1399 0.929 . S
H1388 C1402 0.930 . S
H1389 C1404 0.960 . S
H1390 C1404 0.960 . S
H1391 C1404 0.960 . S
C1392 H1384 0.929 . S
C1392 C1393 1.377 . S
C1392 C1394 1.384 . S
C1393 C1392 1.377 . S
C1393 C1399 1.390 . S
C1394 H1385 0.930 . S
C1394 C1392 1.384 . S
C1394 C1395 1.372 . S
C1395 C1394 1.372 . S
C1395 C1396 1.400 . S
C1395 C1400 1.490 . S
C1396 H1386 0.930 . S
C1396 C1395 1.400 . S
C1396 C1399 1.386 . S
H1397 C1413 0.930 . S
H1398 C1414 0.931 . S
C1399 H1387 0.929 . S
C1399 C1393 1.390 . S
C1399 C1396 1.386 . S
C1400 C1395 1.490 . S
C1400 C1402 1.395 . S
C1400 C1403 1.403 . S
H1401 C1407 0.930 . S
C1402 H1388 0.930 . S
C1402 C1400 1.395 . S
C1402 C1405 1.403 . S
C1403 C1400 1.403 . S
C1403 C1404 1.524 . S
C1403 C1407 1.400 . S
C1404 H1389 0.960 . S
C1404 H1390 0.960 . S
C1404 H1391 0.960 . S
C1404 C1403 1.524 . S
C1405 C1402 1.403 . S
C1405 C1406 1.392 . S
C1405 C1409 1.495 . S
C1406 C1405 1.392 . S
C1406 C1407 1.385 . S
C1406 C1408 1.478 . S
C1407 H1401 0.930 . S
C1407 C1403 1.400 . S
C1407 C1406 1.385 . S
C1408 C1406 1.478 . S
C1408 C1410 1.381 . S
C1408 C1414 1.383 . S
C1409 C1405 1.495 . S
C1409 H1415 0.959 . S
C1409 H1416 0.961 . S
C1409 H1417 0.960 . S
C1410 C1408 1.381 . S
C1410 C1411 1.394 . S
C1410 H1418 0.930 . S
C1411 C1410 1.394 . S
C1411 C1412 1.383 . S
C1411 H1419 0.929 . S
C1412 C1411 1.383 . S
C1412 C1413 1.377 . S
C1413 H1397 0.930 . S
C1413 C1412 1.377 . S
C1413 C1414 1.379 . S
C1414 H1398 0.931 . S
C1414 C1408 1.383 . S
C1414 C1413 1.379 . S
H1415 C1409 0.959 . S
H1416 C1409 0.961 . S
H1417 C1409 0.960 . S
H1418 C1410 0.930 . S
H1419 C1411 0.929 . S
H1420 C1428 0.929 . S
H1421 C1430 0.930 . S
H1422 C1432 0.930 . S
H1423 C1435 0.929 . S
H1424 C1438 0.930 . S
H1425 C1440 0.940 1_655 S
H1426 C1440 0.960 . S
H1427 C1440 0.960 . S
C1428 H1420 0.929 . S
C1428 C1429 1.377 . S
C1428 C1430 1.384 . S
C1429 C1428 1.377 . S
C1429 C1435 1.390 . S
C1430 H1421 0.930 . S
C1430 C1428 1.384 . S
C1430 C1431 1.372 . S
C1431 C1430 1.372 . S
C1431 C1432 1.400 . S
C1431 C1436 1.490 . S
C1432 H1422 0.930 . S
C1432 C1431 1.400 . S
C1432 C1435 1.386 . S
H1433 C1449 0.930 . S
H1434 C1450 0.931 . S
C1435 H1423 0.929 . S
C1435 C1429 1.390 . S
C1435 C1432 1.386 . S
C1436 C1431 1.490 . S
C1436 C1438 1.395 . S
C1436 C1439 1.403 . S
H1437 C1443 0.930 . S
C1438 H1424 0.930 . S
C1438 C1436 1.395 . S
C1438 C1441 1.403 . S
C1439 C1436 1.403 . S
C1439 C1440 1.524 . S
C1439 C1443 1.400 1_455 S
C1440 H1425 0.940 1_455 S
C1440 H1426 0.960 . S
C1440 H1427 0.960 . S
C1440 C1439 1.524 . S
C1441 C1438 1.403 . S
C1441 C1442 1.392 1_455 S
C1441 C1445 1.495 . S
C1442 C1441 1.392 1_655 S
C1442 C1443 1.385 . S
C1442 C1444 1.478 . S
C1443 H1437 0.930 . S
C1443 C1439 1.400 1_655 S
C1443 C1442 1.385 . S
C1444 C1442 1.478 . S
C1444 C1446 1.381 . S
C1444 C1450 1.383 . S
C1445 C1441 1.495 . S
C1445 H1451 0.959 . S
C1445 H1452 0.961 . S
C1445 H1453 0.960 1_455 S
C1446 C1444 1.381 . S
C1446 C1447 1.394 . S
C1446 H1454 0.930 . S
C1447 C1446 1.394 . S
C1447 C1448 1.383 . S
C1447 H1455 0.929 . S
C1448 C1447 1.383 . S
C1448 C1449 1.377 . S
C1449 H1433 0.930 . S
C1449 C1448 1.377 . S
C1449 C1450 1.379 . S
C1450 H1434 0.931 . S
C1450 C1444 1.383 . S
C1450 C1449 1.379 . S
H1451 C1445 0.959 . S
H1452 C1445 0.961 . S
H1453 C1445 0.960 1_655 S
H1454 C1446 0.930 . S
H1455 C1447 0.929 . S
H1456 C1464 0.929 . S
H1457 C1466 0.930 . S
H1458 C1468 0.930 . S
H1459 C1471 0.929 . S
H1460 C1474 0.930 . S
H1461 C1476 0.960 . S
H1462 C1476 0.960 . S
H1463 C1476 0.960 . S
C1464 H1456 0.929 . S
C1464 C1465 1.377 . S
C1464 C1466 1.384 . S
C1465 C1464 1.377 . S
C1465 C1471 1.390 . S
C1466 H1457 0.930 . S
C1466 C1464 1.384 . S
C1466 C1467 1.372 . S
C1467 C1466 1.372 . S
C1467 C1468 1.400 . S
C1467 C1472 1.490 . S
C1468 H1458 0.930 . S
C1468 C1467 1.400 . S
C1468 C1471 1.386 . S
H1469 C1485 0.930 . S
H1470 C1486 0.931 . S
C1471 H1459 0.929 . S
C1471 C1465 1.390 . S
C1471 C1468 1.386 . S
C1472 C1467 1.490 . S
C1472 C1474 1.395 . S
C1472 C1475 1.403 . S
H1473 C1479 0.930 . S
C1474 H1460 0.930 . S
C1474 C1472 1.395 . S
C1474 C1477 1.403 . S
C1475 C1472 1.403 . S
C1475 C1476 1.524 . S
C1475 C1479 1.400 . S
C1476 H1461 0.960 . S
C1476 H1462 0.960 . S
C1476 H1463 0.960 . S
C1476 C1475 1.524 . S
C1477 C1474 1.403 . S
C1477 C1478 1.392 . S
C1477 C1481 1.495 . S
C1478 C1477 1.392 . S
C1478 C1479 1.385 . S
C1478 C1480 1.478 . S
C1479 H1473 0.930 . S
C1479 C1475 1.400 . S
C1479 C1478 1.385 . S
C1480 C1478 1.478 . S
C1480 C1482 1.381 . S
C1480 C1486 1.383 . S
C1481 C1477 1.495 . S
C1481 H1487 0.959 . S
C1481 H1488 0.961 . S
C1481 H1489 0.960 . S
C1482 C1480 1.381 . S
C1482 C1483 1.394 . S
C1482 H1490 0.930 . S
C1483 C1482 1.394 . S
C1483 C1484 1.383 . S
C1483 H1491 0.929 . S
C1484 C1483 1.383 . S
C1484 C1485 1.377 . S
C1485 H1469 0.930 . S
C1485 C1484 1.377 . S
C1485 C1486 1.379 . S
C1486 H1470 0.931 . S
C1486 C1480 1.383 . S
C1486 C1485 1.379 . S
H1487 C1481 0.959 . S
H1488 C1481 0.961 . S
H1489 C1481 0.960 . S
H1490 C1482 0.930 . S
H1491 C1483 0.929 . S
H1492 C1500 0.929 . S
H1493 C1502 0.930 . S
H1494 C1504 0.930 . S
H1495 C1507 0.929 . S
H1496 C1510 0.929 . S
H1497 C1512 0.960 . S
H1498 C1512 0.960 . S
H1499 C1512 0.960 . S
C1500 H1492 0.929 . S
C1500 C1501 1.377 . S
C1500 C1502 1.384 . S
C1501 C1500 1.377 . S
C1501 C1507 1.390 . S
C1502 H1493 0.930 . S
C1502 C1500 1.384 . S
C1502 C1503 1.372 . S
C1503 C1502 1.372 . S
C1503 C1504 1.400 . S
C1503 C1508 1.490 . S
C1504 H1494 0.930 . S
C1504 C1503 1.400 . S
C1504 C1507 1.386 . S
H1505 C1521 0.930 . S
H1506 C1522 0.931 . S
C1507 H1495 0.929 . S
C1507 C1501 1.390 . S
C1507 C1504 1.386 . S
C1508 C1503 1.490 . S
C1508 C1510 1.395 . S
C1508 C1511 1.403 . S
H1509 C1515 0.930 . S
C1510 H1496 0.929 . S
C1510 C1508 1.395 . S
C1510 C1513 1.403 1_655 S
C1511 C1508 1.403 . S
C1511 C1512 1.524 . S
C1511 C1515 1.400 . S
C1512 H1497 0.960 . S
C1512 H1498 0.960 . S
C1512 H1499 0.960 . S
C1512 C1511 1.524 . S
C1513 C1510 1.403 1_455 S
C1513 C1514 1.392 . S
C1513 C1517 1.495 . S
C1514 C1513 1.392 . S
C1514 C1515 1.385 1_455 S
C1514 C1516 1.478 . S
C1515 H1509 0.930 . S
C1515 C1511 1.400 . S
C1515 C1514 1.385 1_655 S
C1516 C1514 1.478 . S
C1516 C1518 1.381 . S
C1516 C1522 1.383 . S
C1517 C1513 1.495 . S
C1517 H1523 0.959 . S
C1517 H1524 0.961 . S
C1517 H1525 0.960 . S
C1518 C1516 1.381 . S
C1518 C1519 1.394 . S
C1518 H1526 0.930 . S
C1519 C1518 1.394 . S
C1519 C1520 1.383 . S
C1519 H1527 0.929 . S
C1520 C1519 1.383 . S
C1520 C1521 1.377 . S
C1521 H1505 0.930 . S
C1521 C1520 1.377 . S
C1521 C1522 1.379 . S
C1522 H1506 0.931 . S
C1522 C1516 1.383 . S
C1522 C1521 1.379 . S
H1523 C1517 0.959 . S
H1524 C1517 0.961 . S
H1525 C1517 0.960 . S
H1526 C1518 0.930 . S
H1527 C1519 0.929 . S
H1528 C1536 0.929 . S
H1529 C1538 0.930 . S
H1530 C1540 0.930 . S
H1531 C1543 0.929 . S
H1532 C1546 0.930 . S
H1533 C1548 0.960 . S
H1534 C1548 0.960 . S
H1535 C1548 0.960 . S
C1536 H1528 0.929 . S
C1536 C1537 1.377 . S
C1536 C1538 1.384 . S
C1537 C1536 1.377 . S
C1537 C1543 1.390 . S
C1538 H1529 0.930 . S
C1538 C1536 1.384 . S
C1538 C1539 1.372 . S
C1539 C1538 1.372 . S
C1539 C1540 1.400 . S
C1539 C1544 1.490 . S
C1540 H1530 0.930 . S
C1540 C1539 1.400 . S
C1540 C1543 1.386 . S
H1541 C1557 0.930 . S
H1542 C1558 0.931 . S
C1543 H1531 0.929 . S
C1543 C1537 1.390 . S
C1543 C1540 1.386 . S
C1544 C1539 1.490 . S
C1544 C1546 1.395 . S
C1544 C1547 1.403 . S
H1545 C1551 0.930 . S
C1546 H1532 0.930 . S
C1546 C1544 1.395 . S
C1546 C1549 1.403 . S
C1547 C1544 1.403 . S
C1547 C1548 1.524 . S
C1547 C1551 1.400 . S
C1548 H1533 0.960 . S
C1548 H1534 0.960 . S
C1548 H1535 0.960 . S
C1548 C1547 1.524 . S
C1549 C1546 1.403 . S
C1549 C1550 1.392 . S
C1549 C1553 1.495 . S
C1550 C1549 1.392 . S
C1550 C1551 1.385 . S
C1550 C1552 1.478 . S
C1551 H1545 0.930 . S
C1551 C1547 1.400 . S
C1551 C1550 1.385 . S
C1552 C1550 1.478 . S
C1552 C1554 1.381 . S
C1552 C1558 1.383 . S
C1553 C1549 1.495 . S
C1553 H1559 0.959 . S
C1553 H1560 0.961 . S
C1553 H1561 0.960 . S
C1554 C1552 1.381 . S
C1554 C1555 1.394 . S
C1554 H1562 0.930 . S
C1555 C1554 1.394 . S
C1555 C1556 1.383 . S
C1555 H1563 0.929 . S
C1556 C1555 1.383 . S
C1556 C1557 1.377 . S
C1557 H1541 0.930 . S
C1557 C1556 1.377 . S
C1557 C1558 1.379 . S
C1558 H1542 0.931 . S
C1558 C1552 1.383 . S
C1558 C1557 1.379 . S
H1559 C1553 0.959 . S
H1560 C1553 0.961 . S
H1561 C1553 0.960 . S
H1562 C1554 0.930 . S
H1563 C1555 0.929 . S
H1564 C1572 0.929 . S
H1565 C1574 0.930 . S
H1566 C1576 0.930 . S
H1567 C1579 0.929 . S
H1568 C1582 0.930 . S
H1569 C1584 0.960 . S
H1570 C1584 0.960 . S
H1571 C1584 0.960 . S
C1572 H1564 0.929 . S
C1572 C1573 1.377 . S
C1572 C1574 1.384 . S
C1573 C1572 1.377 . S
C1573 C1579 1.390 . S
C1574 H1565 0.930 . S
C1574 C1572 1.384 . S
C1574 C1575 1.372 . S
C1575 C1574 1.372 . S
C1575 C1576 1.400 . S
C1575 C1580 1.496 . S
C1576 H1566 0.930 . S
C1576 C1575 1.400 . S
C1576 C1579 1.386 . S
H1577 C1593 0.930 . S
H1578 C1594 0.931 . S
C1579 H1567 0.929 . S
C1579 C1573 1.390 . S
C1579 C1576 1.386 . S
C1580 C1575 1.496 . S
C1580 C1582 1.388 1_554 S
C1580 C1583 1.403 . S
H1581 C1587 0.930 . S
C1582 H1568 0.930 . S
C1582 C1580 1.388 1_556 S
C1582 C1585 1.403 . S
C1583 C1580 1.403 . S
C1583 C1584 1.524 . S
C1583 C1587 1.400 1_554 S
C1584 H1569 0.960 . S
C1584 H1570 0.960 . S
C1584 H1571 0.960 . S
C1584 C1583 1.524 . S
C1585 C1582 1.403 . S
C1585 C1586 1.392 . S
C1585 C1589 1.495 . S
C1586 C1585 1.392 . S
C1586 C1587 1.385 . S
C1586 C1588 1.478 . S
C1587 H1581 0.930 . S
C1587 C1583 1.400 1_556 S
C1587 C1586 1.385 . S
C1588 C1586 1.478 . S
C1588 C1590 1.381 . S
C1588 C1594 1.383 . S
C1589 C1585 1.495 . S
C1589 H1595 0.959 . S
C1589 H1596 0.961 . S
C1589 H1597 0.960 . S
C1590 C1588 1.381 . S
C1590 C1591 1.394 . S
C1590 H1598 0.930 . S
C1591 C1590 1.394 . S
C1591 C1592 1.383 . S
C1591 H1599 0.929 . S
C1592 C1591 1.383 . S
C1592 C1593 1.377 . S
C1593 H1577 0.930 . S
C1593 C1592 1.377 . S
C1593 C1594 1.379 . S
C1594 H1578 0.931 . S
C1594 C1588 1.383 . S
C1594 C1593 1.379 . S
H1595 C1589 0.959 . S
H1596 C1589 0.961 . S
H1597 C1589 0.960 . S
H1598 C1590 0.930 . S
H1599 C1591 0.929 . S
H1600 C1608 0.929 . S
H1601 C1610 0.930 . S
H1602 C1612 0.930 . S
H1603 C1615 0.929 . S
H1604 C1618 0.930 . S
H1605 C1620 0.960 . S
H1606 C1620 0.960 . S
H1607 C1620 0.960 . S
C1608 H1600 0.929 . S
C1608 C1609 1.377 . S
C1608 C1610 1.384 . S
C1609 C1608 1.377 . S
C1609 C1615 1.390 . S
C1610 H1601 0.930 . S
C1610 C1608 1.384 . S
C1610 C1611 1.372 . S
C1611 C1610 1.372 . S
C1611 C1612 1.400 . S
C1611 C1616 1.490 . S
C1612 H1602 0.930 . S
C1612 C1611 1.400 . S
C1612 C1615 1.386 . S
H1613 C1629 0.930 . S
H1614 C1630 0.931 . S
C1615 H1603 0.929 . S
C1615 C1609 1.390 . S
C1615 C1612 1.386 . S
C1616 C1611 1.490 . S
C1616 C1618 1.395 . S
C1616 C1619 1.403 . S
H1617 C1623 0.930 . S
C1618 H1604 0.930 . S
C1618 C1616 1.395 . S
C1618 C1621 1.403 . S
C1619 C1616 1.403 . S
C1619 C1620 1.524 . S
C1619 C1623 1.400 . S
C1620 H1605 0.960 . S
C1620 H1606 0.960 . S
C1620 H1607 0.960 . S
C1620 C1619 1.524 . S
C1621 C1618 1.403 . S
C1621 C1622 1.392 . S
C1621 C1625 1.495 . S
C1622 C1621 1.392 . S
C1622 C1623 1.385 . S
C1622 C1624 1.478 . S
C1623 H1617 0.930 . S
C1623 C1619 1.400 . S
C1623 C1622 1.385 . S
C1624 C1622 1.478 . S
C1624 C1626 1.381 . S
C1624 C1630 1.383 . S
C1625 C1621 1.495 . S
C1625 H1631 0.959 . S
C1625 H1632 0.961 . S
C1625 H1633 0.960 . S
C1626 C1624 1.381 . S
C1626 C1627 1.394 . S
C1626 H1634 0.930 . S
C1627 C1626 1.394 . S
C1627 C1628 1.383 . S
C1627 H1635 0.929 . S
C1628 C1627 1.383 . S
C1628 C1629 1.377 . S
C1629 H1613 0.930 . S
C1629 C1628 1.377 . S
C1629 C1630 1.379 . S
C1630 H1614 0.931 . S
C1630 C1624 1.383 . S
C1630 C1629 1.379 . S
H1631 C1625 0.959 . S
H1632 C1625 0.961 . S
H1633 C1625 0.960 . S
H1634 C1626 0.930 . S
H1635 C1627 0.929 . S
H1636 C1644 0.929 . S
H1637 C1646 0.930 . S
H1638 C1648 0.930 . S
H1639 C1651 0.929 . S
H1640 C1654 0.930 . S
H1641 C1656 0.960 . S
H1642 C1656 0.960 1_554 S
H1643 C1656 0.960 1_554 S
C1644 H1636 0.929 . S
C1644 C1645 1.377 . S
C1644 C1646 1.384 . S
C1645 C1644 1.377 . S
C1645 C1651 1.390 . S
C1646 H1637 0.930 . S
C1646 C1644 1.384 . S
C1646 C1647 1.372 . S
C1647 C1646 1.372 . S
C1647 C1648 1.400 . S
C1647 C1652 1.490 . S
C1648 H1638 0.930 . S
C1648 C1647 1.400 . S
C1648 C1651 1.386 . S
H1649 C1665 0.930 . S
H1650 C1666 0.931 . S
C1651 H1639 0.929 . S
C1651 C1645 1.390 . S
C1651 C1648 1.386 . S
C1652 C1647 1.490 . S
C1652 C1654 1.395 . S
C1652 C1655 1.403 . S
H1653 C1659 0.930 . S
C1654 H1640 0.930 . S
C1654 C1652 1.395 . S
C1654 C1657 1.403 . S
C1655 C1652 1.403 . S
C1655 C1656 1.524 1_554 S
C1655 C1659 1.400 1_554 S
C1656 H1641 0.960 . S
C1656 H1642 0.960 1_556 S
C1656 H1643 0.960 1_556 S
C1656 C1655 1.524 1_556 S
C1657 C1654 1.403 . S
C1657 C1658 1.392 1_554 S
C1657 C1661 1.495 . S
C1658 C1657 1.392 1_556 S
C1658 C1659 1.385 . S
C1658 C1660 1.478 . S
C1659 H1653 0.930 . S
C1659 C1655 1.400 1_556 S
C1659 C1658 1.385 . S
C1660 C1658 1.478 . S
C1660 C1662 1.381 . S
C1660 C1666 1.383 . S
C1661 C1657 1.495 . S
C1661 H1667 0.959 . S
C1661 H1668 0.961 . S
C1661 H1669 0.960 . S
C1662 C1660 1.381 . S
C1662 C1663 1.394 . S
C1662 H1670 0.930 . S
C1663 C1662 1.394 . S
C1663 C1664 1.383 . S
C1663 H1671 0.923 . S
C1664 C1663 1.383 . S
C1664 C1665 1.377 . S
C1665 H1649 0.930 . S
C1665 C1664 1.377 . S
C1665 C1666 1.379 . S
C1666 H1650 0.931 . S
C1666 C1660 1.383 . S
C1666 C1665 1.379 . S
H1667 C1661 0.959 . S
H1668 C1661 0.961 . S
H1669 C1661 0.960 . S
H1670 C1662 0.930 . S
H1671 C1663 0.923 . S
H1672 C1680 0.929 . S
H1673 C1682 0.930 . S
H1674 C1684 0.930 . S
H1675 C1687 0.929 . S
H1676 C1690 0.930 . S
H1677 C1692 0.960 . S
H1678 C1692 0.960 . S
H1679 C1692 0.960 . S
C1680 H1672 0.929 . S
C1680 C1681 1.377 . S
C1680 C1682 1.384 . S
C1681 C1680 1.377 . S
C1681 C1687 1.390 . S
C1682 H1673 0.930 . S
C1682 C1680 1.384 . S
C1682 C1683 1.372 . S
C1683 C1682 1.372 . S
C1683 C1684 1.400 . S
C1683 C1688 1.490 . S
C1684 H1674 0.930 . S
C1684 C1683 1.400 . S
C1684 C1687 1.386 . S
H1685 C1701 0.930 . S
H1686 C1702 0.931 . S
C1687 H1675 0.929 . S
C1687 C1681 1.390 . S
C1687 C1684 1.386 . S
C1688 C1683 1.490 . S
C1688 C1690 1.395 . S
C1688 C1691 1.403 . S
H1689 C1695 0.930 . S
C1690 H1676 0.930 . S
C1690 C1688 1.395 . S
C1690 C1693 1.403 . S
C1691 C1688 1.403 . S
C1691 C1692 1.524 . S
C1691 C1695 1.400 . S
C1692 H1677 0.960 . S
C1692 H1678 0.960 . S
C1692 H1679 0.960 . S
C1692 C1691 1.524 . S
C1693 C1690 1.403 . S
C1693 C1694 1.392 . S
C1693 C1697 1.495 . S
C1694 C1693 1.392 . S
C1694 C1695 1.385 . S
C1694 C1696 1.478 . S
C1695 H1689 0.930 . S
C1695 C1691 1.400 . S
C1695 C1694 1.385 . S
C1696 C1694 1.478 . S
C1696 C1698 1.381 . S
C1696 C1702 1.383 . S
C1697 C1693 1.495 . S
C1697 H1703 0.959 . S
C1697 H1704 0.961 . S
C1697 H1705 0.960 . S
C1698 C1696 1.381 . S
C1698 C1699 1.394 . S
C1698 H1706 0.930 . S
C1699 C1698 1.394 . S
C1699 C1700 1.383 . S
C1699 H1707 0.929 . S
C1700 C1699 1.383 . S
C1700 C1701 1.377 . S
C1701 H1685 0.930 . S
C1701 C1700 1.377 . S
C1701 C1702 1.379 . S
C1702 H1686 0.931 . S
C1702 C1696 1.383 . S
C1702 C1701 1.379 . S
H1703 C1697 0.959 . S
H1704 C1697 0.961 . S
H1705 C1697 0.960 . S
H1706 C1698 0.930 . S
H1707 C1699 0.929 . S
H1708 C1716 0.929 . S
H1709 C1718 0.930 . S
H1710 C1720 0.930 . S
H1711 C1723 0.929 . S
H1712 C1726 0.930 . S
H1713 C1728 0.960 . S
H1714 C1728 0.960 1_556 S
H1715 C1728 0.960 1_556 S
C1716 H1708 0.929 . S
C1716 C1717 1.377 . S
C1716 C1718 1.384 . S
C1717 C1716 1.377 . S
C1717 C1723 1.390 . S
C1718 H1709 0.930 . S
C1718 C1716 1.384 . S
C1718 C1719 1.372 . S
C1719 C1718 1.372 . S
C1719 C1720 1.400 . S
C1719 C1724 1.490 . S
C1720 H1710 0.930 . S
C1720 C1719 1.400 . S
C1720 C1723 1.386 . S
H1721 C1737 0.930 . S
H1722 C1738 0.931 . S
C1723 H1711 0.929 . S
C1723 C1717 1.390 . S
C1723 C1720 1.386 . S
C1724 C1719 1.490 . S
C1724 C1726 1.395 . S
C1724 C1727 1.399 . S
H1725 C1731 0.930 . S
C1726 H1712 0.930 . S
C1726 C1724 1.395 . S
C1726 C1729 1.403 . S
C1727 C1724 1.399 . S
C1727 C1728 1.524 1_556 S
C1727 C1731 1.403 1_556 S
C1728 H1713 0.960 . S
C1728 H1714 0.960 1_554 S
C1728 H1715 0.960 1_554 S
C1728 C1727 1.524 1_554 S
C1729 C1726 1.403 . S
C1729 C1730 1.392 1_556 S
C1729 C1733 1.495 . S
C1730 C1729 1.392 1_554 S
C1730 C1731 1.385 . S
C1730 C1732 1.478 . S
C1731 H1725 0.930 . S
C1731 C1727 1.403 1_554 S
C1731 C1730 1.385 . S
C1732 C1730 1.478 . S
C1732 C1734 1.381 . S
C1732 C1738 1.383 . S
C1733 C1729 1.495 . S
C1733 H1739 0.959 . S
C1733 H1740 0.961 1_556 S
C1733 H1741 0.960 1_556 S
C1734 C1732 1.381 . S
C1734 C1735 1.394 . S
C1734 H1742 0.930 . S
C1735 C1734 1.394 . S
C1735 C1736 1.383 . S
C1735 H1743 0.929 . S
C1736 C1735 1.383 . S
C1736 C1737 1.377 . S
C1737 H1721 0.930 . S
C1737 C1736 1.377 . S
C1737 C1738 1.379 . S
C1738 H1722 0.931 . S
C1738 C1732 1.383 . S
C1738 C1737 1.379 . S
H1739 C1733 0.959 . S
H1740 C1733 0.961 1_554 S
H1741 C1733 0.960 1_554 S
H1742 C1734 0.930 . S
H1743 C1735 0.929 . S
H1744 C1752 0.929 . S
H1745 C1754 0.930 . S
H1746 C1756 0.930 . S
H1747 C1759 0.929 . S
H1748 C1762 0.930 . S
H1749 C1764 0.960 . S
H1750 C1764 0.960 . S
H1751 C1764 0.960 . S
C1752 H1744 0.929 . S
C1752 C1753 1.377 . S
C1752 C1754 1.384 . S
C1753 C1752 1.377 . S
C1753 C1759 1.390 . S
C1754 H1745 0.930 . S
C1754 C1752 1.384 . S
C1754 C1755 1.372 . S
C1755 C1754 1.372 . S
C1755 C1756 1.400 . S
C1755 C1760 1.490 . S
C1756 H1746 0.930 . S
C1756 C1755 1.400 . S
C1756 C1759 1.386 . S
H1757 C1773 0.930 . S
H1758 C1774 0.931 . S
C1759 H1747 0.929 . S
C1759 C1753 1.390 . S
C1759 C1756 1.386 . S
C1760 C1755 1.490 . S
C1760 C1762 1.395 . S
C1760 C1763 1.403 . S
H1761 C1767 0.930 . S
C1762 H1748 0.930 . S
C1762 C1760 1.395 . S
C1762 C1765 1.403 . S
C1763 C1760 1.403 . S
C1763 C1764 1.524 . S
C1763 C1767 1.400 . S
C1764 H1749 0.960 . S
C1764 H1750 0.960 . S
C1764 H1751 0.960 . S
C1764 C1763 1.524 . S
C1765 C1762 1.403 . S
C1765 C1766 1.392 . S
C1765 C1769 1.495 . S
C1766 C1765 1.392 . S
C1766 C1767 1.385 . S
C1766 C1768 1.478 . S
C1767 H1761 0.930 . S
C1767 C1763 1.400 . S
C1767 C1766 1.385 . S
C1768 C1766 1.478 . S
C1768 C1770 1.381 . S
C1768 C1774 1.383 . S
C1769 C1765 1.495 . S
C1769 H1775 0.959 . S
C1769 H1776 0.961 . S
C1769 H1777 0.960 . S
C1770 C1768 1.381 . S
C1770 C1771 1.394 . S
C1770 H1778 0.930 . S
C1771 C1770 1.394 . S
C1771 C1772 1.383 . S
C1771 H1779 0.929 . S
C1772 C1771 1.383 . S
C1772 C1773 1.377 . S
C1773 H1757 0.930 . S
C1773 C1772 1.377 . S
C1773 C1774 1.379 . S
C1774 H1758 0.931 . S
C1774 C1768 1.383 . S
C1774 C1773 1.379 . S
H1775 C1769 0.959 . S
H1776 C1769 0.961 . S
H1777 C1769 0.960 . S
H1778 C1770 0.930 . S
H1779 C1771 0.929 . S
H1780 C1788 0.929 . S
H1781 C1790 0.879 1_554 S
H1782 C1792 0.930 . S
H1783 C1795 0.929 . S
H1784 C1798 0.930 . S
H1785 C1800 0.960 . S
H1786 C1800 0.960 . S
H1787 C1800 0.942 1_556 S
C1788 H1780 0.929 . S
C1788 C1789 1.377 . S
C1788 C1790 1.429 . S
C1789 C1788 1.377 . S
C1789 C1795 1.390 . S
C1790 H1781 0.879 1_556 S
C1790 C1788 1.429 . S
C1790 C1791 1.378 . S
C1791 C1790 1.378 . S
C1791 C1792 1.400 . S
C1791 C1796 1.490 1_556 S
C1792 H1782 0.930 . S
C1792 C1791 1.400 . S
C1792 C1795 1.386 . S
H1793 C1809 0.930 . S
H1794 C1810 0.931 . S
C1795 H1783 0.929 . S
C1795 C1789 1.390 . S
C1795 C1792 1.386 . S
C1796 C1791 1.490 1_554 S
C1796 C1798 1.395 . S
C1796 C1799 1.403 . S
H1797 C1803 0.930 . S
C1798 H1784 0.930 . S
C1798 C1796 1.395 . S
C1798 C1801 1.403 . S
C1799 C1796 1.403 . S
C1799 C1800 1.524 . S
C1799 C1803 1.400 . S
C1800 H1785 0.960 . S
C1800 H1786 0.960 . S
C1800 H1787 0.942 1_554 S
C1800 C1799 1.524 . S
C1801 C1798 1.403 . S
C1801 C1802 1.392 . S
C1801 C1805 1.495 . S
C1802 C1801 1.392 . S
C1802 C1803 1.385 . S
C1802 C1804 1.478 . S
C1803 H1797 0.930 . S
C1803 C1799 1.400 . S
C1803 C1802 1.385 . S
C1804 C1802 1.478 . S
C1804 C1806 1.381 . S
C1804 C1810 1.383 . S
C1805 C1801 1.495 . S
C1805 H1811 0.959 . S
C1805 H1812 0.961 . S
C1805 H1813 0.960 . S
C1806 C1804 1.381 . S
C1806 C1807 1.394 . S
C1806 H1814 0.930 . S
C1807 C1806 1.394 . S
C1807 C1808 1.383 . S
C1807 H1815 0.929 . S
C1808 C1807 1.383 . S
C1808 C1809 1.377 . S
C1809 H1793 0.930 . S
C1809 C1808 1.377 . S
C1809 C1810 1.379 . S
C1810 H1794 0.931 . S
C1810 C1804 1.383 . S
C1810 C1809 1.379 . S
H1811 C1805 0.959 . S
H1812 C1805 0.961 . S
H1813 C1805 0.960 . S
H1814 C1806 0.930 . S
H1815 C1807 0.929 . S
H1816 C1824 0.929 . S
H1817 C1826 0.930 . S
H1818 C1828 0.930 . S
H1819 C1831 0.929 . S
H1820 C1834 0.930 . S
H1821 C1836 0.960 . S
H1822 C1836 0.960 . S
H1823 C1836 0.960 . S
C1824 H1816 0.929 . S
C1824 C1825 1.377 . S
C1824 C1826 1.384 . S
C1825 C1824 1.377 . S
C1825 C1831 1.390 . S
C1826 H1817 0.930 . S
C1826 C1824 1.384 . S
C1826 C1827 1.372 . S
C1827 C1826 1.372 . S
C1827 C1828 1.400 . S
C1827 C1832 1.490 . S
C1828 H1818 0.930 . S
C1828 C1827 1.400 . S
C1828 C1831 1.386 . S
H1829 C1845 0.930 . S
H1830 C1846 0.931 . S
C1831 H1819 0.929 . S
C1831 C1825 1.390 . S
C1831 C1828 1.386 . S
C1832 C1827 1.490 . S
C1832 C1834 1.395 . S
C1832 C1835 1.403 . S
H1833 C1839 0.930 . S
C1834 H1820 0.930 . S
C1834 C1832 1.395 . S
C1834 C1837 1.403 . S
C1835 C1832 1.403 . S
C1835 C1836 1.524 . S
C1835 C1839 1.400 . S
C1836 H1821 0.960 . S
C1836 H1822 0.960 . S
C1836 H1823 0.960 . S
C1836 C1835 1.524 . S
C1837 C1834 1.403 . S
C1837 C1838 1.392 . S
C1837 C1841 1.495 . S
C1838 C1837 1.392 . S
C1838 C1839 1.385 . S
C1838 C1840 1.478 . S
C1839 H1833 0.930 . S
C1839 C1835 1.400 . S
C1839 C1838 1.385 . S
C1840 C1838 1.478 . S
C1840 C1842 1.381 . S
C1840 C1846 1.383 . S
C1841 C1837 1.495 . S
C1841 H1847 0.959 . S
C1841 H1848 0.961 . S
C1841 H1849 0.960 . S
C1842 C1840 1.381 . S
C1842 C1843 1.394 . S
C1842 H1850 0.930 . S
C1843 C1842 1.394 . S
C1843 C1844 1.383 . S
C1843 H1851 0.929 . S
C1844 C1843 1.383 . S
C1844 C1845 1.377 . S
C1845 H1829 0.930 . S
C1845 C1844 1.377 . S
C1845 C1846 1.379 . S
C1846 H1830 0.931 . S
C1846 C1840 1.383 . S
C1846 C1845 1.379 . S
H1847 C1841 0.959 . S
H1848 C1841 0.961 . S
H1849 C1841 0.960 . S
H1850 C1842 0.930 . S
H1851 C1843 0.929 . S
H1852 C1860 0.929 . S
H1853 C1862 0.930 . S
H1854 C1864 0.930 . S
H1855 C1867 0.929 . S
H1856 C1870 0.930 . S
H1857 C1872 0.960 . S
H1858 C1872 0.960 . S
H1859 C1872 0.960 . S
C1860 H1852 0.929 . S
C1860 C1861 1.377 . S
C1860 C1862 1.384 . S
C1861 C1860 1.377 . S
C1861 C1867 1.390 . S
C1862 H1853 0.930 . S
C1862 C1860 1.384 . S
C1862 C1863 1.372 . S
C1863 C1862 1.372 . S
C1863 C1864 1.400 . S
C1863 C1868 1.490 . S
C1864 H1854 0.930 . S
C1864 C1863 1.400 . S
C1864 C1867 1.386 . S
H1865 C1881 0.930 . S
H1866 C1882 0.931 . S
C1867 H1855 0.929 . S
C1867 C1861 1.390 . S
C1867 C1864 1.386 . S
C1868 C1863 1.490 . S
C1868 C1870 1.395 . S
C1868 C1871 1.403 . S
H1869 C1875 0.930 . S
C1870 H1856 0.930 . S
C1870 C1868 1.395 . S
C1870 C1873 1.403 . S
C1871 C1868 1.403 . S
C1871 C1872 1.524 . S
C1871 C1875 1.400 . S
C1872 H1857 0.960 . S
C1872 H1858 0.960 . S
C1872 H1859 0.960 . S
C1872 C1871 1.524 . S
C1873 C1870 1.403 . S
C1873 C1874 1.392 . S
C1873 C1877 1.495 . S
C1874 C1873 1.392 . S
C1874 C1875 1.385 . S
C1874 C1876 1.478 . S
C1875 H1869 0.930 . S
C1875 C1871 1.400 . S
C1875 C1874 1.385 . S
C1876 C1874 1.478 . S
C1876 C1878 1.381 . S
C1876 C1882 1.383 . S
C1877 C1873 1.495 . S
C1877 H1883 0.959 . S
C1877 H1884 0.961 . S
C1877 H1885 0.960 . S
C1878 C1876 1.381 . S
C1878 C1879 1.394 . S
C1878 H1886 0.930 . S
C1879 C1878 1.394 . S
C1879 C1880 1.383 . S
C1879 H1887 0.929 . S
C1880 C1879 1.383 . S
C1880 C1881 1.377 . S
C1881 H1865 0.930 . S
C1881 C1880 1.377 . S
C1881 C1882 1.379 . S
C1882 H1866 0.931 . S
C1882 C1876 1.383 . S
C1882 C1881 1.379 . S
H1883 C1877 0.959 . S
H1884 C1877 0.961 . S
H1885 C1877 0.960 . S
H1886 C1878 0.930 . S
H1887 C1879 0.929 . S
H1888 C1896 0.929 . S
H1889 C1898 0.930 . S
H1890 C1900 0.930 . S
H1891 C1903 0.929 . S
H1892 C1906 0.930 . S
H1893 C1908 0.960 . S
H1894 C1908 0.960 . S
H1895 C1908 0.960 . S
C1896 H1888 0.929 . S
C1896 C1897 1.377 . S
C1896 C1898 1.384 . S
C1897 C1896 1.377 . S
C1897 C1903 1.390 . S
C1898 H1889 0.930 . S
C1898 C1896 1.384 . S
C1898 C1899 1.372 . S
C1899 C1898 1.372 . S
C1899 C1900 1.400 . S
C1899 C1904 1.490 . S
C1900 H1890 0.930 . S
C1900 C1899 1.400 . S
C1900 C1903 1.386 . S
H1901 C1917 0.930 . S
H1902 C1918 0.931 . S
C1903 H1891 0.929 . S
C1903 C1897 1.390 . S
C1903 C1900 1.386 . S
C1904 C1899 1.490 . S
C1904 C1906 1.395 . S
C1904 C1907 1.403 . S
H1905 C1911 0.930 . S
C1906 H1892 0.930 . S
C1906 C1904 1.395 . S
C1906 C1909 1.403 . S
C1907 C1904 1.403 . S
C1907 C1908 1.524 . S
C1907 C1911 1.400 . S
C1908 H1893 0.960 . S
C1908 H1894 0.960 . S
C1908 H1895 0.960 . S
C1908 C1907 1.524 . S
C1909 C1906 1.403 . S
C1909 C1910 1.392 . S
C1909 C1913 1.495 . S
C1910 C1909 1.392 . S
C1910 C1911 1.385 . S
C1910 C1912 1.478 . S
C1911 H1905 0.930 . S
C1911 C1907 1.400 . S
C1911 C1910 1.385 . S
C1912 C1910 1.478 . S
C1912 C1914 1.381 . S
C1912 C1918 1.383 . S
C1913 C1909 1.495 . S
C1913 H1919 0.959 . S
C1913 H1920 0.961 . S
C1913 H1921 0.960 . S
C1914 C1912 1.381 . S
C1914 C1915 1.394 . S
C1914 H1922 0.930 . S
C1915 C1914 1.394 . S
C1915 C1916 1.383 . S
C1915 H1923 0.929 . S
C1916 C1915 1.383 . S
C1916 C1917 1.377 . S
C1917 H1901 0.930 . S
C1917 C1916 1.377 . S
C1917 C1918 1.379 . S
C1918 H1902 0.931 . S
C1918 C1912 1.383 . S
C1918 C1917 1.379 . S
H1919 C1913 0.959 . S
H1920 C1913 0.961 . S
H1921 C1913 0.960 . S
H1922 C1914 0.930 . S
H1923 C1915 0.929 . S
H1924 C1932 0.929 . S
H1925 C1934 0.930 . S
H1926 C1936 0.930 . S
H1927 C1939 0.929 . S
H1928 C1942 0.930 . S
H1929 C1944 0.960 . S
H1930 C1944 0.960 . S
H1931 C1944 0.960 . S
C1932 H1924 0.929 . S
C1932 C1933 1.377 . S
C1932 C1934 1.384 . S
C1933 C1932 1.377 . S
C1933 C1939 1.390 . S
C1934 H1925 0.930 . S
C1934 C1932 1.384 . S
C1934 C1935 1.372 . S
C1935 C1934 1.372 . S
C1935 C1936 1.400 . S
C1935 C1940 1.490 . S
C1936 H1926 0.930 . S
C1936 C1935 1.400 . S
C1936 C1939 1.386 . S
H1937 C1953 0.930 . S
H1938 C1954 0.931 . S
C1939 H1927 0.929 . S
C1939 C1933 1.390 . S
C1939 C1936 1.386 . S
C1940 C1935 1.490 . S
C1940 C1942 1.395 . S
C1940 C1943 1.403 . S
H1941 C1947 0.930 . S
C1942 H1928 0.930 . S
C1942 C1940 1.395 . S
C1942 C1945 1.403 . S
C1943 C1940 1.403 . S
C1943 C1944 1.524 . S
C1943 C1947 1.400 . S
C1944 H1929 0.960 . S
C1944 H1930 0.960 . S
C1944 H1931 0.960 . S
C1944 C1943 1.524 . S
C1945 C1942 1.403 . S
C1945 C1946 1.392 . S
C1945 C1949 1.495 . S
C1946 C1945 1.392 . S
C1946 C1947 1.385 . S
C1946 C1948 1.478 . S
C1947 H1941 0.930 . S
C1947 C1943 1.400 . S
C1947 C1946 1.385 . S
C1948 C1946 1.478 . S
C1948 C1950 1.381 . S
C1948 C1954 1.383 . S
C1949 C1945 1.495 . S
C1949 H1955 0.959 . S
C1949 H1956 0.961 . S
C1949 H1957 0.960 . S
C1950 C1948 1.381 . S
C1950 C1951 1.394 . S
C1950 H1958 0.930 . S
C1951 C1950 1.394 . S
C1951 C1952 1.383 . S
C1951 H1959 0.929 . S
C1952 C1951 1.383 . S
C1952 C1953 1.377 . S
C1953 H1937 0.930 . S
C1953 C1952 1.377 . S
C1953 C1954 1.379 . S
C1954 H1938 0.931 . S
C1954 C1948 1.383 . S
C1954 C1953 1.379 . S
H1955 C1949 0.959 . S
H1956 C1949 0.961 . S
H1957 C1949 0.960 . S
H1958 C1950 0.930 . S
H1959 C1951 0.929 . S
H1960 C1968 0.929 . S
H1961 C1970 0.930 . S
H1962 C1972 0.930 . S
H1963 C1975 0.929 . S
H1964 C1978 0.930 . S
H1965 C1980 0.960 . S
H1966 C1980 0.960 . S
H1967 C1980 0.960 . S
C1968 H1960 0.929 . S
C1968 C1969 1.377 . S
C1968 C1970 1.384 . S
C1969 C1968 1.377 . S
C1969 C1975 1.390 . S
C1970 H1961 0.930 . S
C1970 C1968 1.384 . S
C1970 C1971 1.372 . S
C1971 C1970 1.372 . S
C1971 C1972 1.400 . S
C1971 C1976 1.490 . S
C1972 H1962 0.930 . S
C1972 C1971 1.400 . S
C1972 C1975 1.386 . S
H1973 C1989 0.930 . S
H1974 C1990 0.931 . S
C1975 H1963 0.929 . S
C1975 C1969 1.390 . S
C1975 C1972 1.386 . S
C1976 C1971 1.490 . S
C1976 C1978 1.395 . S
C1976 C1979 1.403 . S
H1977 C1983 0.930 . S
C1978 H1964 0.930 . S
C1978 C1976 1.395 . S
C1978 C1981 1.403 . S
C1979 C1976 1.403 . S
C1979 C1980 1.524 . S
C1979 C1983 1.400 . S
C1980 H1965 0.960 . S
C1980 H1966 0.960 . S
C1980 H1967 0.960 . S
C1980 C1979 1.524 . S
C1981 C1978 1.403 . S
C1981 C1982 1.392 . S
C1981 C1985 1.495 . S
C1982 C1981 1.392 . S
C1982 C1983 1.385 . S
C1982 C1984 1.478 . S
C1983 H1977 0.930 . S
C1983 C1979 1.400 . S
C1983 C1982 1.385 . S
C1984 C1982 1.478 . S
C1984 C1986 1.381 . S
C1984 C1990 1.383 . S
C1985 C1981 1.495 . S
C1985 H1991 0.959 . S
C1985 H1992 0.961 . S
C1985 H1993 0.960 . S
C1986 C1984 1.381 . S
C1986 C1987 1.394 1_556 S
C1986 H1994 0.910 1_556 S
C1987 C1986 1.394 1_554 S
C1987 C1988 1.383 1_554 S
C1987 H1995 0.929 . S
C1988 C1987 1.383 1_556 S
C1988 C1989 1.377 . S
C1989 H1973 0.930 . S
C1989 C1988 1.377 . S
C1989 C1990 1.379 . S
C1990 H1974 0.931 . S
C1990 C1984 1.383 . S
C1990 C1989 1.379 . S
H1991 C1985 0.959 . S
H1992 C1985 0.961 . S
H1993 C1985 0.960 . S
H1994 C1986 0.910 1_554 S
H1995 C1987 0.929 . S
H1996 C2004 0.929 . S
H1997 C2006 0.930 . S
H1998 C2008 0.930 . S
H1999 C2011 0.929 . S
H2000 C2014 0.930 . S
H2001 C2016 0.960 . S
H2002 C2016 0.960 . S
H2003 C2016 0.960 . S
C2004 H1996 0.929 . S
C2004 C2005 1.377 . S
C2004 C2006 1.384 . S
C2005 C2004 1.377 . S
C2005 C2011 1.390 . S
C2006 H1997 0.930 . S
C2006 C2004 1.384 . S
C2006 C2007 1.372 . S
C2007 C2006 1.372 . S
C2007 C2008 1.400 . S
C2007 C2012 1.490 . S
C2008 H1998 0.930 . S
C2008 C2007 1.400 . S
C2008 C2011 1.386 . S
H2009 C2025 0.930 . S
H2010 C2026 0.931 . S
C2011 H1999 0.929 . S
C2011 C2005 1.390 . S
C2011 C2008 1.386 . S
C2012 C2007 1.490 . S
C2012 C2014 1.395 . S
C2012 C2015 1.403 . S
H2013 C2019 0.930 . S
C2014 H2000 0.930 . S
C2014 C2012 1.395 . S
C2014 C2017 1.403 . S
C2015 C2012 1.403 . S
C2015 C2016 1.524 . S
C2015 C2019 1.400 . S
C2016 H2001 0.960 . S
C2016 H2002 0.960 . S
C2016 H2003 0.960 . S
C2016 C2015 1.524 . S
C2017 C2014 1.403 . S
C2017 C2018 1.392 . S
C2017 C2021 1.495 . S
C2018 C2017 1.392 . S
C2018 C2019 1.385 . S
C2018 C2020 1.478 . S
C2019 H2013 0.930 . S
C2019 C2015 1.400 . S
C2019 C2018 1.385 . S
C2020 C2018 1.478 . S
C2020 C2022 1.381 . S
C2020 C2026 1.383 . S
C2021 C2017 1.495 . S
C2021 H2027 0.959 . S
C2021 H2028 0.961 . S
C2021 H2029 0.960 . S
C2022 C2020 1.381 . S
C2022 C2023 1.394 . S
C2022 H2030 0.930 . S
C2023 C2022 1.394 . S
C2023 C2024 1.383 . S
C2023 H2031 0.929 . S
C2024 C2023 1.383 . S
C2024 C2025 1.377 . S
C2025 H2009 0.930 . S
C2025 C2024 1.377 . S
C2025 C2026 1.379 . S
C2026 H2010 0.931 . S
C2026 C2020 1.383 . S
C2026 C2025 1.379 . S
H2027 C2021 0.959 . S
H2028 C2021 0.961 . S
H2029 C2021 0.960 . S
H2030 C2022 0.930 . S
H2031 C2023 0.929 . S
H2032 C2040 0.929 . S
H2033 C2042 0.930 . S
H2034 C2044 0.930 . S
H2035 C2047 0.929 . S
H2036 C2050 0.930 . S
H2037 C2052 0.960 . S
H2038 C2052 0.960 . S
H2039 C2052 0.960 . S
C2040 H2032 0.929 . S
C2040 C2041 1.377 . S
C2040 C2042 1.384 . S
C2041 C2040 1.377 . S
C2041 C2047 1.390 . S
C2042 H2033 0.930 . S
C2042 C2040 1.384 . S
C2042 C2043 1.372 . S
C2043 C2042 1.372 . S
C2043 C2044 1.400 . S
C2043 C2048 1.490 . S
C2044 H2034 0.930 . S
C2044 C2043 1.400 . S
C2044 C2047 1.386 . S
H2045 C2061 0.930 . S
H2046 C2062 0.931 . S
C2047 H2035 0.929 . S
C2047 C2041 1.390 . S
C2047 C2044 1.386 . S
C2048 C2043 1.490 . S
C2048 C2050 1.395 . S
C2048 C2051 1.403 . S
H2049 C2055 0.930 . S
C2050 H2036 0.930 . S
C2050 C2048 1.395 . S
C2050 C2053 1.403 . S
C2051 C2048 1.403 . S
C2051 C2052 1.524 . S
C2051 C2055 1.400 . S
C2052 H2037 0.960 . S
C2052 H2038 0.960 . S
C2052 H2039 0.960 . S
C2052 C2051 1.524 . S
C2053 C2050 1.403 . S
C2053 C2054 1.392 . S
C2053 C2057 1.495 . S
C2054 C2053 1.392 . S
C2054 C2055 1.385 . S
C2054 C2056 1.478 . S
C2055 H2049 0.930 . S
C2055 C2051 1.400 . S
C2055 C2054 1.385 . S
C2056 C2054 1.478 . S
C2056 C2058 1.381 . S
C2056 C2062 1.383 . S
C2057 C2053 1.495 . S
C2057 H2063 0.959 . S
C2057 H2064 0.961 . S
C2057 H2065 0.960 . S
C2058 C2056 1.381 . S
C2058 C2059 1.394 . S
C2058 H2066 0.930 . S
C2059 C2058 1.394 . S
C2059 C2060 1.383 . S
C2059 H2067 0.929 . S
C2060 C2059 1.383 . S
C2060 C2061 1.377 . S
C2061 H2045 0.930 . S
C2061 C2060 1.377 . S
C2061 C2062 1.379 . S
C2062 H2046 0.931 . S
C2062 C2056 1.383 . S
C2062 C2061 1.379 . S
H2063 C2057 0.959 . S
H2064 C2057 0.961 . S
H2065 C2057 0.960 . S
H2066 C2058 0.930 . S
H2067 C2059 0.929 . S
H2068 C2076 0.929 . S
H2069 C2078 0.930 . S
H2070 C2080 0.930 . S
H2071 C2083 0.929 . S
H2072 C2086 0.930 . S
H2073 C2088 0.960 . S
H2074 C2088 0.960 . S
H2075 C2088 0.960 . S
C2076 H2068 0.929 . S
C2076 C2077 1.377 . S
C2076 C2078 1.384 . S
C2077 C2076 1.377 . S
C2077 C2083 1.390 . S
C2078 H2069 0.930 . S
C2078 C2076 1.384 . S
C2078 C2079 1.372 . S
C2079 C2078 1.372 . S
C2079 C2080 1.400 . S
C2079 C2084 1.490 . S
C2080 H2070 0.930 . S
C2080 C2079 1.400 . S
C2080 C2083 1.386 . S
H2081 C2097 0.930 . S
H2082 C2098 0.931 . S
C2083 H2071 0.929 . S
C2083 C2077 1.390 . S
C2083 C2080 1.386 . S
C2084 C2079 1.490 . S
C2084 C2086 1.395 . S
C2084 C2087 1.403 . S
H2085 C2091 0.930 . S
C2086 H2072 0.930 . S
C2086 C2084 1.395 . S
C2086 C2089 1.403 . S
C2087 C2084 1.403 . S
C2087 C2088 1.524 . S
C2087 C2091 1.400 . S
C2088 H2073 0.960 . S
C2088 H2074 0.960 . S
C2088 H2075 0.960 . S
C2088 C2087 1.524 . S
C2089 C2086 1.403 . S
C2089 C2090 1.392 . S
C2089 C2093 1.495 . S
C2090 C2089 1.392 . S
C2090 C2091 1.385 . S
C2090 C2092 1.478 . S
C2091 H2085 0.930 . S
C2091 C2087 1.400 . S
C2091 C2090 1.385 . S
C2092 C2090 1.478 . S
C2092 C2094 1.381 . S
C2092 C2098 1.383 1_545 S
C2093 C2089 1.495 . S
C2093 H2099 0.959 . S
C2093 H2100 0.961 . S
C2093 H2101 0.960 . S
C2094 C2092 1.381 . S
C2094 C2095 1.394 . S
C2094 H2102 0.930 . S
C2095 C2094 1.394 . S
C2095 C2096 1.383 1_545 S
C2095 H2103 0.929 . S
C2096 C2095 1.383 1_565 S
C2096 C2097 1.377 . S
C2097 H2081 0.930 . S
C2097 C2096 1.377 . S
C2097 C2098 1.379 . S
C2098 H2082 0.931 . S
C2098 C2092 1.383 1_565 S
C2098 C2097 1.379 . S
H2099 C2093 0.959 . S
H2100 C2093 0.961 . S
H2101 C2093 0.960 . S
H2102 C2094 0.930 . S
H2103 C2095 0.929 . S
C404 C216 1.825 . S
C385 C73 1.860 . S
C440 C231 1.470 . S
C421 C82 1.461 . S
C457 C100 2.148 . S
C476 C244 2.137 . S
C512 C258 1.408 . S
C493 C56 1.331 . S
C548 C270 1.482 . S
C529 C134 1.510 . S
C584 C284 1.424 . S
C565 C165 1.456 . S
C601 C147 1.421 . S
C620 C298 1.437 . S
C656 C313 1.762 . S
C637 C125 1.809 . S
C673 C151 1.423 . S
C692 C329 1.395 . S
C728 C342 1.407 . S
C709 C121 1.370 . S
C745 C139 1.834 . S
C764 C327 1.815 . S
C800 C340 1.110 . S
C781 C164 1.100 . S
C817 C95 1.638 . S
C836 C356 1.698 . S
C853 C61 1.425 . S
C872 C355 1.441 . S
C889 C74 1.765 . S
C908 C354 1.721 . S
C925 C86 1.946 . S
C944 C357 1.911 . S
C961 C47 1.659 . S
C980 C259 1.654 . S
C997 C186 1.307 . S
C1016 C257 1.315 . S
C1052 C217 1.393 1_556 S
C1033 C204 1.393 . S
C1088 C228 2.126 . S
C1069 C112 2.139 . S
C1105 C60 1.346 . S
C1124 C273 1.363 . S
C1160 C314 1.831 . S
C1141 C152 1.836 . S
C1196 C271 1.862 . S
C1177 C126 1.876 . S
C1232 C299 1.198 . S
C1213 C160 1.118 . S
C1268 C300 1.840 . S
C1249 C190 1.860 . S
C1285 C199 1.459 . S
C1304 C315 1.465 . S
C1321 C113 2.150 . S
C1340 C272 2.123 . S
C1376 C286 1.405 . S
C1357 C173 1.339 . S
C1393 C43 1.506 . S
C1412 C242 1.449 . S
C1448 C256 1.412 . S
C1429 C9 1.450 . S
C1484 C214 1.391 . S
C1465 C17 1.422 . S
C1520 C229 1.745 . S
C1501 C34 1.807 . S
C1537 C21 1.421 . S
C1556 C343 1.408 . S
C1573 C30 1.371 . S
C1592 C328 1.421 . S
C1609 C48 1.835 . S
C1628 C341 1.802 . S
C1645 C8 1.099 . S
C1664 C326 1.104 . S
C1700 C370 1.698 . S
C1681 C108 1.638 . S
C1736 C369 1.399 . S
C1717 C178 1.416 . S
C1772 C368 1.710 . S
C1753 C191 1.764 . S
C1789 C203 1.944 . S
C1808 C371 1.903 . S
C1825 C138 1.659 . S
C1844 C287 1.642 . S
C1880 C285 1.331 . S
C1861 C69 1.307 . S
C1916 C301 1.391 . S
C1897 C87 1.393 . S
C1952 C312 2.115 . S
C1933 C99 2.140 . S
C1969 C177 1.338 . S
C1988 C245 1.329 . S
C2024 C230 1.834 . S
C2005 C22 1.834 . S
C2041 C35 1.877 . S
C2060 C243 1.853 . S
C2096 C215 1.183 . S
C2077 C4 1.109 . S
