# Generated by pormake.
# Topology ssa, (4,4)-cn, num edge types: 1
# Building blocks:
#     Node 0, Type 0, BuildingBlock: ESEHIV_clean_sbu_0, # of connection points: 4
#     Node 1, Type 0, BuildingBlock: ESEHIV_clean_sbu_0, # of connection points: 4
#     Node 2, Type 0, BuildingBlock: ESEHIV_clean_sbu_0, # of connection points: 4
#     Node 3, Type 0, BuildingBlock: ESEHIV_clean_sbu_0, # of connection points: 4
#     Node 4, Type 0, BuildingBlock: ESEHIV_clean_sbu_0, # of connection points: 4
#     Node 5, Type 0, BuildingBlock: ESEHIV_clean_sbu_0, # of connection points: 4
#     Node 6, Type 1, BuildingBlock: AZAVOO_clean_linker_0, # of connection points: 4
#     Node 7, Type 1, BuildingBlock: AZAVOO_clean_linker_0, # of connection points: 4
#     Node 8, Type 1, BuildingBlock: AZAVOO_clean_linker_0, # of connection points: 4
#     Node 9, Type 1, BuildingBlock: AZAVOO_clean_linker_0, # of connection points: 4
#     Node 10, Type 1, BuildingBlock: AZAVOO_clean_linker_0, # of connection points: 4
#     Node 11, Type 1, BuildingBlock: AZAVOO_clean_linker_0, # of connection points: 4
#     Edge 12, Type (0, 1), BuildingBlock: UVAHIK_clean_linker_0, # of connection points: 2
#     Edge 13, Type (0, 1), BuildingBlock: UVAHIK_clean_linker_0, # of connection points: 2
#     Edge 14, Type (0, 1), BuildingBlock: UVAHIK_clean_linker_0, # of connection points: 2
#     Edge 15, Type (0, 1), BuildingBlock: UVAHIK_clean_linker_0, # of connection points: 2
#     Edge 16, Type (0, 1), BuildingBlock: UVAHIK_clean_linker_0, # of connection points: 2
#     Edge 17, Type (0, 1), BuildingBlock: UVAHIK_clean_linker_0, # of connection points: 2
#     Edge 18, Type (0, 1), BuildingBlock: UVAHIK_clean_linker_0, # of connection points: 2
#     Edge 19, Type (0, 1), BuildingBlock: UVAHIK_clean_linker_0, # of connection points: 2
#     Edge 20, Type (0, 1), BuildingBlock: UVAHIK_clean_linker_0, # of connection points: 2
#     Edge 21, Type (0, 1), BuildingBlock: UVAHIK_clean_linker_0, # of connection points: 2
#     Edge 22, Type (0, 1), BuildingBlock: UVAHIK_clean_linker_0, # of connection points: 2
#     Edge 23, Type (0, 1), BuildingBlock: UVAHIK_clean_linker_0, # of connection points: 2
#     Edge 24, Type (0, 1), BuildingBlock: UVAHIK_clean_linker_0, # of connection points: 2
#     Edge 25, Type (0, 1), BuildingBlock: UVAHIK_clean_linker_0, # of connection points: 2
#     Edge 26, Type (0, 1), BuildingBlock: UVAHIK_clean_linker_0, # of connection points: 2
#     Edge 27, Type (0, 1), BuildingBlock: UVAHIK_clean_linker_0, # of connection points: 2
#     Edge 28, Type (0, 1), BuildingBlock: UVAHIK_clean_linker_0, # of connection points: 2
#     Edge 29, Type (0, 1), BuildingBlock: UVAHIK_clean_linker_0, # of connection points: 2
#     Edge 30, Type (0, 1), BuildingBlock: UVAHIK_clean_linker_0, # of connection points: 2
#     Edge 31, Type (0, 1), BuildingBlock: UVAHIK_clean_linker_0, # of connection points: 2
#     Edge 32, Type (0, 1), BuildingBlock: UVAHIK_clean_linker_0, # of connection points: 2
#     Edge 33, Type (0, 1), BuildingBlock: UVAHIK_clean_linker_0, # of connection points: 2
#     Edge 34, Type (0, 1), BuildingBlock: UVAHIK_clean_linker_0, # of connection points: 2
#     Edge 35, Type (0, 1), BuildingBlock: UVAHIK_clean_linker_0, # of connection points: 2
# Relax obj value: 0.066
# Max RMSD: 0.229
# Mean RMSD: 0.155
data_MOF--net-ssa--node1-ESEHIV_clean_sbu_0--node2-AZAVOO_clean_linker_0--edge1-UVAHIK_clean_linker_0
_symmetry_space_group_name_H-M    P1
_symmetry_Int_Tables_number       1
_symmetry_cell_setting            triclinic
loop_
_symmetry_equiv_pos_as_xyz
'x, y, z'
_cell_length_a     61.649708
_cell_length_b     65.579691
_cell_length_c     60.461259
_cell_angle_alpha  88.640255
_cell_angle_beta   93.055846
_cell_angle_gamma 121.95863
loop_
_atom_site_label
_atom_site_type_symbol
_atom_site_fract_x
_atom_site_fract_y
_atom_site_fract_z
_atom_type_partial_charge
Cu0 Cu 0.15697 0.56094 0.00489 0.0
N1 N 0.15703 0.54673 0.97858 0.0
N2 N 0.14237 0.5185 0.95228 0.0
C3 C 0.13711 0.52571 0.97089 0.0
C4 C 0.16661 0.5359 0.94799 0.0
C5 C 0.17566 0.5533 0.96433 0.0
O6 O 0.12724 0.56399 0.00304 0.0
C7 C 0.16894 0.53099 0.02907 0.0
O8 O 0.18075 0.53272 0.01103 0.0
H9 H 0.11913 0.5159 0.97899 0.0
H10 H 0.19464 0.56922 0.966 0.0
N11 N 0.18615 0.59133 0.00963 0.0
N12 N 0.21509 0.62387 0.02908 0.0
C13 C 0.19532 0.60089 0.0299 0.0
C14 C 0.20063 0.60882 0.99532 0.0
C15 C 0.21853 0.62901 0.00731 0.0
C16 C 0.12632 0.57668 0.98719 0.0
O17 O 0.1452 0.58671 0.97362 0.0
H18 H 0.18677 0.59143 0.04498 0.0
H19 H 0.19789 0.6073 0.97748 0.0
O20 O 0.15633 0.54129 0.02979 0.0
H21 H 0.17731 0.53575 0.93445 0.0
H22 H 0.23265 0.64618 1.00056 0.0
Cu23 Cu 0.57576 0.99681 0.5676 0.0
N24 N 0.58236 0.97216 0.5678 0.0
N25 N 0.59189 0.94607 0.55556 0.0
C26 C 0.58506 0.96203 0.54992 0.0
C27 C 0.5934 0.94611 0.57793 0.0
C28 C 0.58748 0.96223 0.58542 0.0
O29 O 0.55787 0.99588 0.54002 0.0
C30 C 0.62934 0.03189 0.56855 0.0
O31 O 0.63133 0.01552 0.55837 0.0
H32 H 0.58314 0.96706 0.53311 0.0
H33 H 0.58749 0.96683 0.60249 0.0
N34 N 0.55449 0.99245 0.59025 0.0
N35 N 0.53516 0.00156 0.61495 0.0
C36 C 0.55375 0.01014 0.60022 0.0
C37 C 0.53585 0.97186 0.59891 0.0
C38 C 0.5239 0.97742 0.61423 0.0
C39 C 0.56791 0.00223 0.52131 0.0
O40 O 0.59254 0.01113 0.52001 0.0
H41 H 0.5666 0.02895 0.59654 0.0
H42 H 0.53093 0.95408 0.59405 0.0
O43 O 0.6073 0.02755 0.5728 0.0
H44 H 0.59867 0.93549 0.58816 0.0
H45 H 0.50771 0.9646 0.62356 0.0
Cu46 Cu 0.6117 0.50861 0.08822 0.0
N47 N 0.60826 0.47925 0.08238 0.0
N48 N 0.59899 0.44689 0.06286 0.0
C49 C 0.59972 0.46781 0.06275 0.0
C50 C 0.6074 0.44508 0.08347 0.0
C51 C 0.61323 0.46518 0.09547 0.0
O52 O 0.62505 0.5275 0.06157 0.0
C53 C 0.56578 0.487 0.10893 0.0
O54 O 0.57503 0.47435 0.11739 0.0
H55 H 0.5938 0.47464 0.04876 0.0
H56 H 0.62049 0.46922 0.11251 0.0
N57 N 0.63373 0.52401 0.11276 0.0
N58 N 0.65125 0.54926 0.14163 0.0
C59 C 0.63164 0.53877 0.1263 0.0
C60 C 0.65526 0.52485 0.11977 0.0
C61 C 0.66612 0.54041 0.13766 0.0
C62 C 0.6458 0.54792 0.061 0.0
O63 O 0.65779 0.55897 0.07964 0.0
H64 H 0.61612 0.54195 0.12459 0.0
H65 H 0.66293 0.51545 0.112 0.0
O66 O 0.5786 0.50322 0.09484 0.0
H67 H 0.60951 0.43048 0.08936 0.0
H68 H 0.68403 0.54546 0.14645 0.0
Cu69 Cu 0.02332 0.47608 0.53434 0.0
N70 N 0.02015 0.45788 0.50972 0.0
N71 N 0.03214 0.44246 0.48392 0.0
C72 C 0.03884 0.4551 0.50299 0.0
C73 C 0.00796 0.43663 0.47863 0.0
C74 C 1.0006 0.44621 0.4946 0.0
O75 O 0.05132 0.50887 0.52952 0.0
C76 C 0.01162 0.43836 0.56269 0.0
O77 O 0.99579 0.42679 0.54573 0.0
H78 H 0.05709 0.46231 0.51192 0.0
H79 H 0.98249 0.44508 0.49492 0.0
N80 N 0.99431 0.47753 0.53706 0.0
N81 N 0.96727 0.48404 0.55413 0.0
C82 C 0.98596 0.47918 0.5566 0.0
C83 C 0.98049 0.48147 0.52154 0.0
C84 C 0.96368 0.48543 0.53205 0.0
C85 C 0.07483 0.51576 0.52894 0.0
O86 O 0.0821 0.50071 0.5345 0.0
H87 H 0.99481 0.47857 0.57235 0.0
H88 H 0.98339 0.4827 0.50396 0.0
O89 O 0.02701 0.46102 0.56127 0.0
H90 H 0.99674 0.42694 0.4639 0.0
H91 H 0.9506 0.4899 0.52407 0.0
Cu92 Cu 0.59572 0.0518 0.09991 0.0
N93 N 0.59286 0.07875 0.09895 0.0
N94 N 0.58801 0.10809 0.08516 0.0
C95 C 0.59622 0.09309 0.08149 0.0
C96 C 0.57962 0.10329 0.10594 0.0
C97 C 0.58267 0.08521 0.11439 0.0
O98 O 0.60699 0.04799 0.07171 0.0
C99 C 0.55649 0.00288 0.10881 0.0
O100 O 0.57179 0.99686 0.10088 0.0
H101 H 0.60294 0.09147 0.06586 0.0
H102 H 0.5766 0.07645 0.13021 0.0
N103 N 0.62043 0.05619 0.12155 0.0
N104 N 0.6467 0.0491 0.14246 0.0
C105 C 0.62892 0.04127 0.12552 0.0
C106 C 0.63326 0.07418 0.13639 0.0
C107 C 0.64947 0.06983 0.14937 0.0
C108 C 0.59625 0.04745 0.053 0.0
O109 O 0.57446 0.04664 0.05224 0.0
H110 H 0.62175 0.02475 0.11639 0.0
H111 H 0.63093 0.08932 0.13771 0.0
O112 O 0.56299 0.0248 0.10855 0.0
H113 H 0.57092 0.11153 0.11411 0.0
H114 H 0.66236 0.08113 0.16274 0.0
Cu115 Cu 0.54384 0.52848 0.5872 0.0
N116 N 0.54569 0.5573 0.58076 0.0
N117 N 0.55507 0.59012 0.56133 0.0
C118 C 0.55348 0.56881 0.5614 0.0
C119 C 0.54797 0.59213 0.5815 0.0
C120 C 0.54203 0.57173 0.59345 0.0
O121 O 0.53151 0.50964 0.55999 0.0
C122 C 0.58626 0.54915 0.61544 0.0
O123 O 0.5728 0.55727 0.62338 0.0
H124 H 0.55883 0.56204 0.54791 0.0
H125 H 0.53617 0.56802 0.61035 0.0
N126 N 0.52148 0.51096 0.60944 0.0
N127 N 0.50421 0.4833 0.63595 0.0
C128 C 0.52177 0.49302 0.62033 0.0
C129 C 0.50311 0.51285 0.61844 0.0
C130 C 0.49243 0.49578 0.6349 0.0
C131 C 0.50889 0.50351 0.55338 0.0
O132 O 0.49602 0.50934 0.56569 0.0
H133 H 0.53511 0.48761 0.61707 0.0
H134 H 0.49783 0.52565 0.61341 0.0
O135 O 0.5774 0.53574 0.59828 0.0
H136 H 0.54732 0.6073 0.58723 0.0
H137 H 0.47708 0.49269 0.64511 0.0
H138 H 0.31436 0.43587 0.44731 0.0
H139 H 0.13435 0.4044 0.24913 0.0
H140 H 0.34663 0.47715 0.33136 0.0
H141 H 0.38203 0.48148 0.35497 0.0
H142 H 0.36461 0.41181 0.33312 0.0
H143 H 0.32839 0.40738 0.30999 0.0
H144 H 0.30018 0.46306 0.35733 0.0
H145 H 0.30699 0.45804 0.39683 0.0
H146 H 0.29593 0.38864 0.38304 0.0
H147 H 0.28887 0.3938 0.34361 0.0
H148 H 0.26125 0.46541 0.32899 0.0
H149 H 0.22895 0.46192 0.35315 0.0
H150 H 0.19867 0.38583 0.36006 0.0
H151 H 0.23122 0.38955 0.33555 0.0
H152 H 0.25863 0.47033 0.2794 0.0
H153 H 0.21977 0.46794 0.26415 0.0
H154 H 0.1779 0.39067 0.27157 0.0
H155 H 0.21703 0.39332 0.28649 0.0
H156 H 0.30719 0.48226 0.25897 0.0
H157 H 0.2939 0.49311 0.22404 0.0
H158 H 0.23936 0.41801 0.21 0.0
H159 H 0.25271 0.40729 0.24505 0.0
H160 H 0.35361 0.4812 0.28223 0.0
H161 H 0.38607 0.48871 0.25599 0.0
H162 H 0.3363 0.41707 0.2292 0.0
H163 H 0.30427 0.40964 0.25569 0.0
O164 O 0.31139 0.4374 0.43165 0.0
O165 O 0.30569 0.4019 0.42366 0.0
O166 O 0.17243 0.44563 0.25152 0.0
O167 O 0.14998 0.40587 0.25515 0.0
C168 C 0.31018 0.43746 0.30927 0.0
C169 C 0.29045 0.43205 0.32366 0.0
C170 C 0.26774 0.43029 0.31528 0.0
C171 C 0.26442 0.43338 0.29248 0.0
C172 C 0.28388 0.43836 0.27798 0.0
C173 C 0.30674 0.44027 0.28634 0.0
C174 C 0.33497 0.44197 0.31899 0.0
C175 C 0.35092 0.46312 0.3312 0.0
C176 C 0.37125 0.46556 0.34467 0.0
C177 C 0.37619 0.44692 0.34613 0.0
C178 C 0.36114 0.42636 0.33267 0.0
C179 C 0.34064 0.4239 0.31923 0.0
C180 C 0.29388 0.42872 0.34769 0.0
C181 C 0.299 0.4467 0.36293 0.0
C182 C 0.30299 0.44383 0.38545 0.0
C183 C 0.302 0.42294 0.39311 0.0
C184 C 0.29681 0.40494 0.37772 0.0
C185 C 0.29275 0.40782 0.35521 0.0
C186 C 0.24852 0.42775 0.33061 0.0
C187 C 0.24771 0.44802 0.33581 0.0
C188 C 0.22936 0.446 0.34969 0.0
C189 C 0.21139 0.42361 0.35859 0.0
C190 C 0.21223 0.40326 0.35334 0.0
C191 C 0.2308 0.40536 0.3395 0.0
C192 C 0.24063 0.43198 0.28387 0.0
C193 C 0.24106 0.45291 0.27763 0.0
C194 C 0.21883 0.45149 0.26898 0.0
C195 C 0.19572 0.42909 0.26659 0.0
C196 C 0.19536 0.40819 0.27314 0.0
C197 C 0.21765 0.40964 0.28171 0.0
C198 C 0.28092 0.44401 0.25451 0.0
C199 C 0.29304 0.46812 0.24798 0.0
C200 C 0.28522 0.47429 0.22819 0.0
C201 C 0.26537 0.45641 0.2145 0.0
C202 C 0.25475 0.43213 0.2202 0.0
C203 C 0.2624 0.42598 0.24014 0.0
C204 C 0.32673 0.44482 0.27094 0.0
C205 C 0.34988 0.46711 0.27079 0.0
C206 C 0.36825 0.47142 0.25568 0.0
C207 C 0.36376 0.45346 0.24054 0.0
C208 C 0.34049 0.43115 0.24083 0.0
C209 C 0.32214 0.4269 0.25587 0.0
C210 C 0.30645 0.42002 0.41702 0.0
C211 C 0.17208 0.42747 0.2573 0.0
H212 H 0.87008 0.26207 0.95963 0.0
H213 H 0.71835 0.0716 0.78448 0.0
H214 H 0.87522 0.2808 0.84446 0.0
H215 H 0.9148 0.31678 0.85824 0.0
H216 H 0.95894 0.29059 0.83093 0.0
H217 H 0.9192 0.25424 0.8177 0.0
H218 H 0.82979 0.23952 0.86778 0.0
H219 H 0.84082 0.25007 0.90706 0.0
H220 H 0.90351 0.2386 0.9038 0.0
H221 H 0.89209 0.22783 0.8646 0.0
H222 H 0.78207 0.19543 0.83531 0.0
H223 H 0.75028 0.17036 0.86181 0.0
H224 H 0.8051 0.15706 0.89595 0.0
H225 H 0.83602 0.18054 0.86802 0.0
H226 H 0.78225 0.19148 0.78687 0.0
H227 H 0.74422 0.15311 0.77522 0.0
H228 H 0.77733 0.11542 0.80721 0.0
H229 H 0.81539 0.15393 0.81849 0.0
H230 H 0.8261 0.23571 0.7633 0.0
H231 H 0.80903 0.22185 0.72548 0.0
H232 H 0.82316 0.16416 0.73414 0.0
H233 H 0.84095 0.17866 0.77163 0.0
H234 H 0.87223 0.28081 0.79194 0.0
H235 H 0.89859 0.30933 0.7637 0.0
H236 H 0.91905 0.25942 0.74257 0.0
H237 H 0.89252 0.23095 0.77089 0.0
O238 O 0.86598 0.25774 0.9441 0.0
O239 O 0.89803 0.25172 0.94151 0.0
O240 O 0.71705 0.10724 0.77254 0.0
O241 O 0.73316 0.08701 0.78883 0.0
C242 C 0.87022 0.2422 0.82332 0.0
C243 C 0.85348 0.22658 0.8395 0.0
C244 C 0.83049 0.20511 0.83293 0.0
C245 C 0.82493 0.19878 0.81022 0.0
C246 C 0.84154 0.21447 0.79404 0.0
C247 C 0.86395 0.23641 0.80054 0.0
C248 C 0.89431 0.26478 0.8303 0.0
C249 C 0.89342 0.28279 0.8415 0.0
C250 C 0.91599 0.3033 0.84933 0.0
C251 C 0.93986 0.30634 0.84572 0.0
C252 C 0.94078 0.2887 0.83381 0.0
C253 C 0.91815 0.26798 0.82629 0.0
C254 C 0.86009 0.23284 0.86338 0.0
C255 C 0.84581 0.23918 0.87563 0.0
C256 C 0.8522 0.24526 0.89804 0.0
C257 C 0.87306 0.24518 0.90858 0.0
C258 C 0.88734 0.23884 0.8962 0.0
C259 C 0.88088 0.2327 0.87382 0.0
C260 C 0.81143 0.18985 0.84961 0.0
C261 C 0.7871 0.18682 0.84834 0.0
C262 C 0.76902 0.17271 0.86379 0.0
C263 C 0.775 0.16171 0.88135 0.0
C264 C 0.79951 0.16486 0.88259 0.0
C265 C 0.81741 0.17857 0.86676 0.0
C266 C 0.80163 0.17548 0.8034 0.0
C267 C 0.7813 0.17492 0.79123 0.0
C268 C 0.75958 0.15298 0.78466 0.0
C269 C 0.75775 0.13118 0.79026 0.0
C270 C 0.77812 0.13185 0.8026 0.0
C271 C 0.79986 0.15381 0.8091 0.0
C272 C 0.83465 0.20813 0.7702 0.0
C273 C 0.82606 0.22044 0.7568 0.0
C274 C 0.8161 0.21235 0.73529 0.0
C275 C 0.8145 0.19175 0.72686 0.0
C276 C 0.82434 0.18021 0.74001 0.0
C277 C 0.83437 0.18836 0.76148 0.0
C278 C 0.88041 0.25377 0.78349 0.0
C279 C 0.88254 0.27611 0.7813 0.0
C280 C 0.89771 0.29242 0.76521 0.0
C281 C 0.91098 0.28669 0.75086 0.0
C282 C 0.90886 0.2643 0.75317 0.0
C283 C 0.89377 0.24802 0.76936 0.0
C284 C 0.87985 0.25172 0.93237 0.0
C285 C 0.73473 0.10782 0.78331 0.0
H286 H 0.72267 0.79141 0.17765 0.0
H287 H 0.72556 0.96719 0.35261 0.0
H288 H 0.65662 0.76345 0.29826 0.0
H289 H 0.65056 0.72679 0.28252 0.0
H290 H 0.73233 0.7575 0.28772 0.0
H291 H 0.73809 0.79394 0.30434 0.0
H292 H 0.67783 0.79351 0.25972 0.0
H293 H 0.68926 0.78761 0.22334 0.0
H294 H 0.76885 0.84013 0.24008 0.0
H295 H 0.75716 0.84562 0.27657 0.0
H296 H 0.6807 0.83881 0.26193 0.0
H297 H 0.68418 0.86963 0.2363 0.0
H298 H 0.75536 0.92232 0.26993 0.0
H299 H 0.75205 0.89108 0.29528 0.0
H300 H 0.66812 0.85762 0.30747 0.0
H301 H 0.66799 0.89405 0.31517 0.0
H302 H 0.74195 0.92439 0.34981 0.0
H303 H 0.74186 0.88791 0.34185 0.0
H304 H 0.64767 0.81306 0.34436 0.0
H305 H 0.63214 0.82226 0.37672 0.0
H306 H 0.70961 0.86347 0.40488 0.0
H307 H 0.72475 0.85329 0.37273 0.0
H308 H 0.64591 0.77067 0.33411 0.0
H309 H 0.62913 0.7412 0.36399 0.0
H310 H 0.70527 0.77388 0.39463 0.0
H311 H 0.72196 0.80314 0.36437 0.0
O312 O 0.71859 0.79399 0.19214 0.0
O313 O 0.75922 0.82122 0.20151 0.0
O314 O 0.6871 0.9362 0.33134 0.0
O315 O 0.72509 0.95258 0.34935 0.0
C316 C 0.70134 0.80459 0.30901 0.0
C317 C 0.70983 0.82314 0.29306 0.0
C318 C 0.71133 0.84479 0.29809 0.0
C319 C 0.70504 0.84816 0.31925 0.0
C320 C 0.69675 0.82977 0.33519 0.0
C321 C 0.69476 0.80795 0.33007 0.0
C322 C 0.69774 0.78119 0.30283 0.0
C323 C 0.67314 0.76194 0.29679 0.0
C324 C 0.66977 0.74116 0.28741 0.0
C325 C 0.69099 0.73933 0.28364 0.0
C326 C 0.71558 0.75827 0.29058 0.0
C327 C 0.71892 0.77908 0.30006 0.0
C328 C 0.71671 0.81979 0.27085 0.0
C329 C 0.69774 0.80357 0.25556 0.0
C330 C 0.70432 0.80031 0.23476 0.0
C331 C 0.72999 0.81335 0.22882 0.0
C332 C 0.74891 0.82977 0.24415 0.0
C333 C 0.7423 0.83296 0.26497 0.0
C334 C 0.71612 0.86268 0.28045 0.0
C335 C 0.69748 0.85681 0.26332 0.0
C336 C 0.69947 0.87446 0.24873 0.0
C337 C 0.71999 0.89839 0.2512 0.0
C338 C 0.73926 0.90404 0.26777 0.0
C339 C 0.73744 0.88625 0.28218 0.0
C340 C 0.70497 0.8702 0.32415 0.0
C341 C 0.68425 0.87218 0.31672 0.0
C342 C 0.68424 0.89299 0.32114 0.0
C343 C 0.70497 0.91215 0.33312 0.0
C344 C 0.72568 0.90999 0.34056 0.0
C345 C 0.72567 0.88918 0.33609 0.0
C346 C 0.68729 0.83254 0.35626 0.0
C347 C 0.66116 0.82359 0.35779 0.0
C348 C 0.6524 0.82909 0.37617 0.0
C349 C 0.66968 0.8439 0.39326 0.0
C350 C 0.69576 0.85188 0.39212 0.0
C351 C 0.70448 0.84619 0.37375 0.0
C352 C 0.68521 0.78863 0.34683 0.0
C353 C 0.65906 0.77101 0.34692 0.0
C354 C 0.64951 0.75429 0.36405 0.0
C355 C 0.66592 0.75522 0.38159 0.0
C356 C 0.69219 0.77281 0.38135 0.0
C357 C 0.70177 0.78937 0.36405 0.0
C358 C 0.73691 0.80983 0.2067 0.0
C359 C 0.70509 0.93431 0.33783 0.0
H360 H 0.80879 0.59058 0.67927 0.0
H361 H 0.00395 0.58408 0.86742 0.0
H362 H 0.83651 0.62339 0.80005 0.0
H363 H 0.80016 0.61803 0.77674 0.0
H364 H 0.76331 0.54098 0.78283 0.0
H365 H 0.79996 0.54659 0.80583 0.0
H366 H 0.86514 0.6217 0.76503 0.0
H367 H 0.84521 0.6159 0.72772 0.0
H368 H 0.8123 0.53925 0.73365 0.0
H369 H 0.83232 0.54536 0.77098 0.0
H370 H 0.91168 0.61851 0.76643 0.0
H371 H 0.92694 0.60823 0.73439 0.0
H372 H 0.89676 0.53665 0.76055 0.0
H373 H 0.8822 0.54732 0.79252 0.0
H374 H 0.94013 0.63059 0.81854 0.0
H375 H 0.98081 0.63521 0.83159 0.0
H376 H 0.94043 0.56045 0.85085 0.0
H377 H 0.89997 0.55606 0.83751 0.0
H378 H 0.91378 0.6327 0.86063 0.0
H379 H 0.94103 0.63451 0.89236 0.0
H380 H 0.89353 0.55734 0.89895 0.0
H381 H 0.86601 0.55591 0.86765 0.0
H382 H 0.85706 0.62813 0.85365 0.0
H383 H 0.82833 0.62652 0.88121 0.0
H384 H 0.78751 0.54889 0.87979 0.0
H385 H 0.81602 0.55077 0.85207 0.0
O386 O 0.81707 0.59252 0.69378 0.0
O387 O 0.80085 0.55329 0.69754 0.0
O388 O 0.00839 0.62045 0.84991 0.0
O389 O 0.9883 0.58252 0.86133 0.0
C390 C 0.84582 0.58822 0.81093 0.0
C391 C 0.86022 0.58733 0.79397 0.0
C392 C 0.88326 0.58831 0.79931 0.0
C393 C 0.89245 0.59112 0.82154 0.0
C394 C 0.87813 0.59215 0.83858 0.0
C395 C 0.8546 0.59036 0.83329 0.0
C396 C 0.82081 0.58538 0.80462 0.0
C397 C 0.82005 0.60541 0.79719 0.0
C398 C 0.79933 0.60229 0.78373 0.0
C399 C 0.77912 0.57905 0.77757 0.0
C400 C 0.77885 0.55909 0.78693 0.0
C401 C 0.79953 0.56224 0.80039 0.0
C402 C 0.85016 0.58395 0.77061 0.0
C403 C 0.85384 0.60372 0.75812 0.0
C404 C 0.84235 0.60033 0.73686 0.0
C405 C 0.82706 0.5771 0.72774 0.0
C406 C 0.82393 0.55737 0.74019 0.0
C407 C 0.83542 0.5608 0.76145 0.0
C408 C 0.89603 0.58369 0.78179 0.0
C409 C 0.90893 0.60081 0.76538 0.0
C410 C 0.91739 0.59482 0.74704 0.0
C411 C 0.91297 0.57157 0.74484 0.0
C412 C 0.90086 0.55482 0.76184 0.0
C413 C 0.89249 0.56085 0.78013 0.0
C414 C 0.91719 0.59303 0.82714 0.0
C415 C 0.9402 0.61517 0.82527 0.0
C416 C 0.96336 0.61777 0.83286 0.0
C417 C 0.96384 0.59822 0.84241 0.0
C418 C 0.94074 0.57588 0.84367 0.0
C419 C 0.91762 0.5733 0.836 0.0
C420 C 0.88799 0.59418 0.86184 0.0
C421 C 0.90856 0.61637 0.86964 0.0
C422 C 0.92434 0.61728 0.88754 0.0
C423 C 0.91987 0.59599 0.89783 0.0
C424 C 0.89754 0.57409 0.89148 0.0
C425 C 0.88166 0.57322 0.87364 0.0
C426 C 0.83855 0.58957 0.85098 0.0
C427 C 0.842 0.61084 0.85948 0.0
C428 C 0.82563 0.60986 0.87521 0.0
C429 C 0.80552 0.58756 0.88257 0.0
C430 C 0.80251 0.56633 0.87419 0.0
C431 C 0.81887 0.56734 0.85852 0.0
C432 C 0.8142 0.57349 0.70545 0.0
C433 C 0.98823 0.60115 0.85136 0.0
H434 H 0.2927 0.83453 0.45861 0.0
H435 H 0.17558 0.63002 0.29324 0.0
H436 H 0.3121 0.84706 0.34256 0.0
H437 H 0.34833 0.88404 0.35915 0.0
H438 H 0.39842 0.85837 0.34728 0.0
H439 H 0.36224 0.82164 0.33086 0.0
H440 H 0.2638 0.80081 0.36684 0.0
H441 H 0.26921 0.81481 0.40506 0.0
H442 H 0.34014 0.81623 0.41292 0.0
H443 H 0.33431 0.80191 0.37478 0.0
H444 H 0.22398 0.74733 0.34435 0.0
H445 H 0.19819 0.71666 0.3715 0.0
H446 H 0.26651 0.72114 0.39979 0.0
H447 H 0.29176 0.75079 0.37198 0.0
H448 H 0.22899 0.74904 0.29108 0.0
H449 H 0.19379 0.70881 0.27996 0.0
H450 H 0.23203 0.6779 0.31598 0.0
H451 H 0.26722 0.71826 0.32678 0.0
H452 H 0.27116 0.78829 0.26285 0.0
H453 H 0.26621 0.77255 0.2253 0.0
H454 H 0.29691 0.72979 0.24949 0.0
H455 H 0.301 0.74509 0.28688 0.0
H456 H 0.3121 0.83866 0.28574 0.0
H457 H 0.34123 0.86364 0.25705 0.0
H458 H 0.37664 0.8216 0.26163 0.0
H459 H 0.3468 0.79632 0.28962 0.0
O460 O 0.29088 0.82888 0.44359 0.0
O461 O 0.32729 0.82943 0.44673 0.0
O462 O 0.17052 0.66297 0.27896 0.0
O463 O 0.1893 0.64615 0.29733 0.0
C464 C 0.31226 0.80783 0.3286 0.0
C465 C 0.2954 0.79224 0.34471 0.0
C466 C 0.27543 0.76866 0.33873 0.0
C467 C 0.27181 0.76102 0.31643 0.0
C468 C 0.28868 0.77656 0.30039 0.0
C469 C 0.30899 0.7999 0.30646 0.0
C470 C 0.33457 0.83171 0.33546 0.0
C471 C 0.33102 0.8497 0.34318 0.0
C472 C 0.35168 0.87071 0.35274 0.0
C473 C 0.37623 0.8741 0.35459 0.0
C474 C 0.37986 0.8565 0.34583 0.0
C475 C 0.35921 0.83548 0.33642 0.0
C476 C 0.29874 0.8005 0.36801 0.0
C477 C 0.28045 0.80409 0.37688 0.0
C478 C 0.28362 0.81213 0.39869 0.0
C479 C 0.30516 0.81671 0.41203 0.0
C480 C 0.32337 0.81294 0.40309 0.0
C481 C 0.32014 0.80483 0.3813 0.0
C482 C 0.25977 0.75131 0.35614 0.0
C483 C 0.23332 0.74166 0.35644 0.0
C484 C 0.21866 0.72426 0.37209 0.0
C485 C 0.23021 0.71626 0.38783 0.0
C486 C 0.25684 0.72647 0.38772 0.0
C487 C 0.27139 0.74367 0.37199 0.0
C488 C 0.25055 0.73652 0.3098 0.0
C489 C 0.22973 0.73354 0.2965 0.0
C490 C 0.20965 0.71055 0.29021 0.0
C491 C 0.21007 0.69012 0.29712 0.0
C492 C 0.23107 0.69323 0.3104 0.0
C493 C 0.25116 0.71624 0.31664 0.0
C494 C 0.28623 0.76765 0.27752 0.0
C495 C 0.27678 0.77552 0.25993 0.0
C496 C 0.27414 0.76662 0.23851 0.0
C497 C 0.28102 0.74978 0.23438 0.0
C498 C 0.29093 0.74234 0.25211 0.0
C499 C 0.29342 0.75113 0.27347 0.0
C500 C 0.32733 0.81568 0.2897 0.0
C501 C 0.3262 0.83494 0.2805 0.0
C502 C 0.34297 0.84924 0.26419 0.0
C503 C 0.36134 0.84466 0.25689 0.0
C504 C 0.36249 0.82543 0.26644 0.0
C505 C 0.34559 0.81105 0.28259 0.0
C506 C 0.30853 0.82539 0.43516 0.0
C507 C 0.18874 0.66565 0.29054 0.0
H508 H 0.48068 0.2437 0.66622 0.0
H509 H 0.4763 0.07725 0.84945 0.0
H510 H 0.52721 0.2734 0.78415 0.0
H511 H 0.52785 0.30754 0.76639 0.0
H512 H 0.45125 0.28063 0.78707 0.0
H513 H 0.45097 0.24649 0.80514 0.0
H514 H 0.51768 0.23542 0.75506 0.0
H515 H 0.50949 0.24135 0.71611 0.0
H516 H 0.43035 0.21398 0.72906 0.0
H517 H 0.43882 0.20799 0.76795 0.0
H518 H 0.52619 0.20324 0.77528 0.0
H519 H 0.52753 0.17612 0.74908 0.0
H520 H 0.44546 0.12873 0.75089 0.0
H521 H 0.44428 0.15636 0.777 0.0
H522 H 0.53277 0.19453 0.82826 0.0
H523 H 0.53609 0.16016 0.8397 0.0
H524 H 0.45371 0.11371 0.83251 0.0
H525 H 0.45069 0.14828 0.82131 0.0
H526 H 0.54001 0.23943 0.85387 0.0
H527 H 0.55437 0.23302 0.89039 0.0
H528 H 0.47826 0.17199 0.90018 0.0
H529 H 0.4639 0.17906 0.86385 0.0
H530 H 0.53408 0.2778 0.83031 0.0
H531 H 0.54512 0.3065 0.86036 0.0
H532 H 0.47382 0.25642 0.89034 0.0
H533 H 0.46292 0.22782 0.86013 0.0
O534 O 0.48346 0.24106 0.68165 0.0
O535 O 0.44296 0.22684 0.68917 0.0
O536 O 0.51781 0.1158 0.84858 0.0
O537 O 0.47555 0.09114 0.84501 0.0
C538 C 0.48779 0.23534 0.80366 0.0
C539 C 0.48387 0.21797 0.7879 0.0
C540 C 0.48514 0.1979 0.79461 0.0
C541 C 0.48952 0.1947 0.81718 0.0
C542 C 0.49334 0.21195 0.83302 0.0
C543 C 0.49248 0.23233 0.82627 0.0
C544 C 0.48905 0.25752 0.79587 0.0
C545 C 0.51074 0.2751 0.78515 0.0
C546 C 0.51097 0.29446 0.77488 0.0
C547 C 0.48945 0.29658 0.77506 0.0
C548 C 0.46814 0.27951 0.78673 0.0
C549 C 0.46793 0.26005 0.79704 0.0
C550 C 0.47877 0.22106 0.7642 0.0
C551 C 0.49855 0.23051 0.74937 0.0
C552 C 0.49383 0.23397 0.72717 0.0
C553 C 0.46924 0.2281 0.71945 0.0
C554 C 0.44948 0.21865 0.73444 0.0
C555 C 0.45424 0.21518 0.75664 0.0
C556 C 0.48514 0.1818 0.77784 0.0
C557 C 0.50847 0.18717 0.76977 0.0
C558 C 0.50918 0.1717 0.75482 0.0
C559 C 0.48658 0.15039 0.74791 0.0
C560 C 0.46315 0.14502 0.75602 0.0
C561 C 0.46242 0.16076 0.77079 0.0
C562 C 0.4915 0.17383 0.82402 0.0
C563 C 0.51549 0.17691 0.82923 0.0
C564 C 0.51731 0.15726 0.83572 0.0
C565 C 0.49514 0.13417 0.83702 0.0
C566 C 0.47115 0.13122 0.83169 0.0
C567 C 0.46936 0.1509 0.82526 0.0
C568 C 0.50092 0.20973 0.85626 0.0
C569 C 0.52631 0.22504 0.86414 0.0
C570 C 0.53453 0.22119 0.88489 0.0
C571 C 0.51751 0.20186 0.89809 0.0
C572 C 0.49178 0.18716 0.89051 0.0
C573 C 0.48356 0.19108 0.86974 0.0
C574 C 0.49759 0.25083 0.84292 0.0
C575 C 0.52056 0.27329 0.84306 0.0
C576 C 0.52686 0.28962 0.86028 0.0
C577 C 0.51038 0.28369 0.87778 0.0
C578 C 0.48704 0.2614 0.87724 0.0
C579 C 0.4807 0.24513 0.85994 0.0
C580 C 0.46433 0.23192 0.69588 0.0
C581 C 0.49696 0.11323 0.84389 0.0
C582 C 0.17031 0.52562 0.07026 0.0
C583 C 0.17292 0.51948 0.04888 0.0
C584 C 0.1775 0.5171 0.08893 0.0
C585 C 0.19091 0.47092 0.10842 0.0
H586 H 0.23832 0.51956 0.15087 0.0
C587 C 0.24921 0.45213 0.17479 0.0
C588 C 0.25412 0.46315 0.19562 0.0
C589 C 0.2379 0.45822 0.1573 0.0
C590 C 0.22477 0.50561 0.13944 0.0
H591 H 0.18382 0.49865 0.03029 0.0
H592 H 0.19589 0.4835 0.06282 0.0
H593 H 0.21918 0.53051 0.12031 0.0
H594 H 0.2503 0.48851 0.21474 0.0
H595 H 0.2301 0.49874 0.18453 0.0
H596 H 0.19625 0.44593 0.12757 0.0
C597 C 0.18846 0.49498 0.06518 0.0
C598 C 0.21382 0.51194 0.12189 0.0
C599 C 0.18165 0.50375 0.04656 0.0
C600 C 0.24725 0.48013 0.1987 0.0
C601 C 0.23568 0.486 0.18134 0.0
C602 C 0.20164 0.4645 0.12612 0.0
C603 C 0.18701 0.50198 0.08655 0.0
C604 C 0.19697 0.49472 0.10608 0.0
C605 C 0.23093 0.47521 0.16035 0.0
C606 C 0.21891 0.48182 0.14177 0.0
H607 H 0.16375 0.53779 0.07256 0.0
H608 H 0.176 0.52263 0.10523 0.0
H609 H 0.17782 0.45724 0.09655 0.0
H610 H 0.25436 0.439 0.17199 0.0
H611 H 0.23494 0.44981 0.14131 0.0
C612 C 0.65025 0.07045 0.59002 0.0
C613 C 0.65251 0.05372 0.57785 0.0
C614 C 0.67157 0.08927 0.60141 0.0
C615 C 0.73276 0.1032 0.6278 0.0
H616 H 0.74217 0.16575 0.63707 0.0
C617 C 0.80945 0.1708 0.69086 0.0
C618 C 0.80067 0.18111 0.70529 0.0
C619 C 0.79491 0.15863 0.67171 0.0
C620 C 0.73978 0.14835 0.63466 0.0
H621 H 0.67928 0.0445 0.56703 0.0
H622 H 0.71655 0.07748 0.58681 0.0
H623 H 0.71023 0.13842 0.60931 0.0
H624 H 0.76989 0.18703 0.71066 0.0
H625 H 0.74466 0.16593 0.67738 0.0
H626 H 0.76165 0.11272 0.65362 0.0
C627 C 0.69817 0.0758 0.5878 0.0
C628 C 0.7215 0.1327 0.61876 0.0
C629 C 0.67684 0.05698 0.57637 0.0
C630 C 0.77747 0.17969 0.69973 0.0
C631 C 0.76297 0.16756 0.68061 0.0
C632 C 0.75103 0.11882 0.6437 0.0
C633 C 0.69565 0.0918 0.6009 0.0
C634 C 0.71736 0.10972 0.61551 0.0
C635 C 0.77127 0.15651 0.66657 0.0
C636 C 0.75433 0.14135 0.64769 0.0
H637 H 0.63181 0.06852 0.59148 0.0
H638 H 0.66887 0.10111 0.6115 0.0
H639 H 0.72985 0.08551 0.62596 0.0
H640 H 0.82741 0.17187 0.69452 0.0
H641 H 0.802 0.15059 0.66107 0.0
C642 C 0.67195 0.57158 0.17681 0.0
C643 C 0.65594 0.56725 0.15774 0.0
C644 C 0.67623 0.58899 0.19238 0.0
C645 C 0.64769 0.62221 0.21167 0.0
H646 H 0.71626 0.66924 0.2343 0.0
C647 C 0.67051 0.70973 0.25238 0.0
C648 C 0.68747 0.71846 0.27112 0.0
C649 C 0.667 0.69024 0.24035 0.0
C650 C 0.69695 0.65602 0.22841 0.0
H651 H 0.63265 0.57869 0.1399 0.0
H652 H 0.63978 0.60849 0.167 0.0
H653 H 0.7095 0.63678 0.21011 0.0
H654 H 0.71427 0.71367 0.29177 0.0
H655 H 0.70806 0.67939 0.27067 0.0
H656 H 0.63506 0.64138 0.22968 0.0
C657 C 0.64869 0.59815 0.17013 0.0
C658 C 0.6931 0.63744 0.21455 0.0
C659 C 0.64455 0.58094 0.15458 0.0
C660 C 0.70113 0.7074 0.27737 0.0
C661 C 0.69759 0.6878 0.26528 0.0
C662 C 0.65151 0.64065 0.22552 0.0
C663 C 0.66445 0.60231 0.18926 0.0
C664 C 0.66848 0.62066 0.20566 0.0
C665 C 0.68034 0.67892 0.2467 0.0
C666 C 0.67624 0.65809 0.23368 0.0
H667 H 0.6809 0.5613 0.1799 0.0
H668 H 0.6884 0.59174 0.20703 0.0
H669 H 0.62842 0.60924 0.20545 0.0
H670 H 0.6602 0.71822 0.24675 0.0
H671 H 0.65406 0.68427 0.22581 0.0
C672 C 0.9562 0.48121 0.59316 0.0
C673 C 0.95672 0.49012 0.5717 0.0
C674 C 0.94902 0.48926 0.61086 0.0
C675 C 0.94567 0.54106 0.62798 0.0
H676 H 0.91014 0.49954 0.67713 0.0
C677 C 0.91481 0.57136 0.70344 0.0
C678 C 0.91939 0.56416 0.72438 0.0
C679 C 0.91871 0.56266 0.68411 0.0
C680 C 0.92023 0.51137 0.66358 0.0
H681 H 0.94896 0.51376 0.55189 0.0
H682 H 0.93568 0.52734 0.58272 0.0
H683 H 0.91576 0.48245 0.64417 0.0
H684 H 0.93279 0.54305 0.74138 0.0
H685 H 0.93924 0.52766 0.70765 0.0
H686 H 0.94997 0.56996 0.6475 0.0
C687 C 0.94139 0.51447 0.58591 0.0
C688 C 0.92346 0.5016 0.64469 0.0
C689 C 0.94868 0.50645 0.56817 0.0
C690 C 0.92861 0.5486 0.72553 0.0
C691 C 0.93231 0.53977 0.70623 0.0
C692 C 0.94224 0.5508 0.64683 0.0
C693 C 0.94197 0.50632 0.60754 0.0
C694 C 0.93656 0.51637 0.62679 0.0
C695 C 0.92707 0.54646 0.68534 0.0
C696 C 0.92983 0.5361 0.66494 0.0
H697 H 0.96189 0.46834 0.59639 0.0
H698 H 0.94991 0.48272 0.62729 0.0
H699 H 0.95618 0.55303 0.61465 0.0
H700 H 0.90733 0.58303 0.70193 0.0
H701 H 0.91437 0.568 0.66821 0.0
C702 C 0.52526 0.96047 0.1206 0.0
C703 C 0.53328 0.98492 0.12035 0.0
C704 C 0.50467 0.94401 0.13313 0.0
C705 C 0.44992 0.93678 0.16395 0.0
H706 H 0.45627 0.88805 0.19582 0.0
C707 C 0.38933 0.88474 0.23862 0.0
C708 C 0.37927 0.85983 0.23947 0.0
C709 C 0.40655 0.89899 0.22257 0.0
C710 C 0.45407 0.90139 0.18685 0.0
H711 H 0.52549 0.01109 0.13275 0.0
H712 H 0.49025 0.98271 0.15488 0.0
H713 H 0.48883 0.91446 0.17029 0.0
H714 H 0.37904 0.83042 0.22345 0.0
H715 H 0.40954 0.85541 0.19588 0.0
H716 H 0.41553 0.92409 0.18118 0.0
C717 C 0.4994 0.976 0.14509 0.0
C718 C 0.4727 0.91651 0.1721 0.0
C719 C 0.5198 0.99238 0.13245 0.0
C720 C 0.38676 0.84958 0.22368 0.0
C721 C 0.40418 0.86387 0.20778 0.0
C722 C 0.43145 0.92182 0.17887 0.0
C723 C 0.49171 0.95162 0.14585 0.0
C724 C 0.47101 0.93456 0.16055 0.0
C725 C 0.41433 0.88875 0.20708 0.0
C726 C 0.43341 0.90407 0.1906 0.0
H727 H 0.53513 0.95408 0.11139 0.0
H728 H 0.49903 0.92532 0.13294 0.0
H729 H 0.44763 0.95011 0.15507 0.0
H730 H 0.38438 0.89338 0.25067 0.0
H731 H 0.41428 0.91816 0.22262 0.0
C732 C 0.50609 0.44728 0.64455 0.0
C733 C 0.49979 0.46398 0.65072 0.0
C734 C 0.50372 0.4296 0.65926 0.0
C735 C 0.47263 0.39579 0.70914 0.0
H736 H 0.52966 0.38625 0.7129 0.0
C737 C 0.47949 0.32918 0.77063 0.0
C738 C 0.48896 0.31581 0.76199 0.0
C739 C 0.48001 0.34779 0.75827 0.0
C740 C 0.51346 0.38852 0.71193 0.0
H741 H 0.48514 0.47458 0.67704 0.0
H742 H 0.48076 0.44336 0.70282 0.0
H743 H 0.53162 0.41752 0.68909 0.0
H744 H 0.50505 0.31058 0.73321 0.0
H745 H 0.50589 0.34277 0.71176 0.0
H746 H 0.45434 0.36642 0.73184 0.0
C747 C 0.48759 0.44411 0.68651 0.0
C748 C 0.51461 0.40647 0.69829 0.0
C749 C 0.49007 0.46195 0.67174 0.0
C750 C 0.49825 0.32096 0.74057 0.0
C751 C 0.49873 0.33943 0.72827 0.0
C752 C 0.47143 0.37769 0.72281 0.0
C753 C 0.49488 0.42805 0.68053 0.0
C754 C 0.49404 0.41003 0.6964 0.0
C755 C 0.48997 0.3533 0.73706 0.0
C756 C 0.49167 0.37357 0.724 0.0
H757 H 0.51297 0.44786 0.62831 0.0
H758 H 0.50889 0.41712 0.65396 0.0
H759 H 0.45646 0.39811 0.70797 0.0
H760 H 0.47225 0.32563 0.78711 0.0
H761 H 0.4732 0.3582 0.76553 0.0
C762 C 0.61556 0.92638 0.54732 0.0
C763 C 0.59818 0.93331 0.54062 0.0
C764 C 0.62294 0.91552 0.53228 0.0
C765 C 0.62746 0.91095 0.47235 0.0
H766 H 0.63454 0.85697 0.48787 0.0
C767 C 0.64299 0.85926 0.40628 0.0
C768 C 0.66079 0.85241 0.41124 0.0
C769 C 0.63536 0.86836 0.42275 0.0
C770 C 0.63294 0.87222 0.48338 0.0
H771 H 0.57397 0.93309 0.51313 0.0
H772 H 0.58686 0.91429 0.48698 0.0
H773 H 0.6209 0.874 0.51553 0.0
H774 H 0.6842 0.8494 0.43761 0.0
H775 H 0.67118 0.86578 0.46641 0.0
H776 H 0.63957 0.90937 0.44033 0.0
C777 C 0.59519 0.91769 0.50373 0.0
C778 C 0.6251 0.88194 0.4992 0.0
C779 C 0.5878 0.92848 0.51874 0.0
C780 C 0.67059 0.85467 0.4332 0.0
C781 C 0.66295 0.86383 0.44974 0.0
C782 C 0.63533 0.9013 0.4566 0.0
C783 C 0.61313 0.9114 0.51022 0.0
C784 C 0.62203 0.90127 0.49377 0.0
C785 C 0.64542 0.871 0.44464 0.0
C786 C 0.63791 0.88166 0.46182 0.0
H787 H 0.62412 0.93003 0.56397 0.0
H788 H 0.63694 0.91105 0.53774 0.0
H789 H 0.62584 0.92618 0.46779 0.0
H790 H 0.63534 0.85813 0.3895 0.0
H791 H 0.62155 0.87337 0.4183 0.0
C792 C 0.68389 0.57679 0.03954 0.0
C793 C 0.65875 0.55672 0.03982 0.0
C794 C 0.69782 0.58255 0.02044 0.0
C795 C 0.70061 0.55241 0.97125 0.0
H796 H 0.75153 0.617 0.95335 0.0
C797 C 0.76117 0.56917 0.89602 0.0
C798 C 0.78751 0.5863 0.89874 0.0
C799 C 0.74426 0.56719 0.91163 0.0
C800 C 0.73749 0.59886 0.95825 0.0
H801 H 0.62787 0.52807 0.01969 0.0
H802 H 0.65201 0.53837 0.98632 0.0
H803 H 0.72338 0.61117 0.98305 0.0
H804 H 0.81669 0.61509 0.91983 0.0
H805 H 0.78715 0.61157 0.94719 0.0
H806 H 0.71492 0.54004 0.94686 0.0
C807 C 0.66118 0.54932 0.00103 0.0
C808 C 0.72134 0.59552 0.97523 0.0
C809 C 0.64727 0.54352 0.02013 0.0
C810 C 0.79648 0.60184 0.91717 0.0
C811 C 0.77953 0.59984 0.93282 0.0
C812 C 0.7167 0.55574 0.95432 0.0
C813 C 0.68689 0.56841 0.00117 0.0
C814 C 0.70284 0.57224 0.98204 0.0
C815 C 0.75327 0.58229 0.93036 0.0
C816 C 0.73547 0.57899 0.94772 0.0
H817 H 0.69331 0.58738 0.05439 0.0
H818 H 0.71761 0.5973 0.02118 0.0
H819 H 0.68698 0.53424 0.97638 0.0
H820 H 0.75357 0.55727 0.88177 0.0
H821 H 0.72408 0.55378 0.90902 0.0
C822 C 0.11674 0.54435 0.51198 0.0
C823 C 0.09293 0.53926 0.51879 0.0
C824 C 0.13235 0.56511 0.49983 0.0
C825 C 0.12837 0.60963 0.46361 0.0
H826 H 0.20244 0.64342 0.46879 0.0
C827 C 0.19379 0.69593 0.41376 0.0
C828 C 0.21461 0.69702 0.40399 0.0
C829 C 0.17927 0.67779 0.4289 0.0
C830 C 0.18176 0.63407 0.46706 0.0
H831 H 0.06746 0.55267 0.51911 0.0
H832 H 0.09495 0.58913 0.49851 0.0
H833 H 0.17708 0.61048 0.49397 0.0
H834 H 0.23595 0.67938 0.40227 0.0
H835 H 0.21092 0.64812 0.42882 0.0
H836 H 0.13314 0.6333 0.4367 0.0
C837 C 0.1013 0.57678 0.50199 0.0
C838 C 0.1672 0.61514 0.48148 0.0
C839 C 0.08561 0.55594 0.514 0.0
C840 C 0.22045 0.67948 0.40978 0.0
C841 C 0.20606 0.66149 0.425 0.0
C842 C 0.14295 0.62866 0.4493 0.0
C843 C 0.12464 0.5814 0.49432 0.0
C844 C 0.14028 0.60249 0.47982 0.0
C845 C 0.18529 0.6604 0.43475 0.0
C846 C 0.16981 0.64095 0.4507 0.0
H847 H 0.12291 0.53183 0.51525 0.0
H848 H 0.15003 0.56786 0.49403 0.0
H849 H 0.10772 0.60008 0.46151 0.0
H850 H 0.18891 0.70928 0.40995 0.0
H851 H 0.16352 0.67759 0.43628 0.0
C852 C 0.56389 0.12595 0.06949 0.0
C853 C 0.58457 0.1226 0.06878 0.0
C854 C 0.55873 0.13749 0.05216 0.0
C855 C 0.56939 0.1501 0.99273 0.0
H856 H 0.54283 0.19119 0.0013 0.0
C857 C 0.55031 0.19694 0.91958 0.0
C858 C 0.52699 0.19604 0.91891 0.0
C859 C 0.55869 0.1901 0.9386 0.0
C860 C 0.55006 0.17961 0.99866 0.0
H861 H 0.61692 0.13005 0.04998 0.0
H862 H 0.60813 0.15044 0.01986 0.0
H863 H 0.55585 0.1762 0.03348 0.0
H864 H 0.49449 0.18783 0.93792 0.0
H865 H 0.50901 0.17557 0.97116 0.0
H866 H 0.56346 0.15331 0.95799 0.0
C867 C 0.59552 0.14363 0.03355 0.0
C868 C 0.55753 0.17103 0.01708 0.0
C869 C 0.60062 0.13201 0.05083 0.0
C870 C 0.51246 0.18856 0.93788 0.0
C871 C 0.52089 0.18176 0.95697 0.0
C872 C 0.56201 0.15871 0.97437 0.0
C873 C 0.57417 0.14603 0.03376 0.0
C874 C 0.56722 0.15611 0.01432 0.0
C875 C 0.54395 0.18218 0.95743 0.0
C876 C 0.55221 0.17351 0.9771 0.0
H877 H 0.55095 0.11867 0.08291 0.0
H878 H 0.54197 0.13879 0.05276 0.0
H879 H 0.57622 0.13822 0.98997 0.0
H880 H 0.56182 0.20232 0.90517 0.0
H881 H 0.57668 0.19088 0.9385 0.0
C882 C 0.47184 0.4839 0.52598 0.0
C883 C 0.49753 0.49183 0.53157 0.0
C884 C 0.46116 0.47477 0.50493 0.0
C885 C 0.4786 0.47728 0.44733 0.0
H886 H 0.40639 0.42859 0.4398 0.0
C887 C 0.41752 0.47019 0.36906 0.0
C888 C 0.39513 0.44811 0.36331 0.0
C889 C 0.4329 0.47214 0.38774 0.0
C890 C 0.4267 0.44186 0.44139 0.0
H891 H 0.53203 0.49572 0.51954 0.0
H892 H 0.51319 0.47946 0.48252 0.0
H893 H 0.42732 0.43682 0.47641 0.0
H894 H 0.37251 0.41035 0.37199 0.0
H895 H 0.39993 0.4135 0.40381 0.0
H896 H 0.47794 0.48224 0.41221 0.0
C897 C 0.50142 0.48058 0.4945 0.0
C898 C 0.43865 0.44684 0.46254 0.0
C899 C 0.51216 0.48974 0.51573 0.0
C900 C 0.38962 0.42765 0.37577 0.0
C901 C 0.40518 0.42955 0.39431 0.0
C902 C 0.46667 0.47215 0.42607 0.0
C903 C 0.47582 0.4732 0.4888 0.0
C904 C 0.46451 0.46519 0.46591 0.0
C905 C 0.4265 0.45198 0.40104 0.0
C906 C 0.44034 0.45489 0.42291 0.0
H907 H 0.45997 0.48523 0.53773 0.0
H908 H 0.44157 0.46973 0.50109 0.0
H909 H 0.49853 0.49156 0.44928 0.0
H910 H 0.42268 0.48624 0.35961 0.0
H911 H 0.44903 0.48977 0.39235 0.0
C912 C 0.10596 0.47641 0.95101 0.0
C913 C 0.12568 0.49638 0.94025 0.0
C914 C 0.08904 0.45527 0.93937 0.0
C915 C 0.06269 0.43236 0.88303 0.0
H916 H 0.03452 0.37075 0.91237 0.0
C917 C 0.98479 0.3414 0.84206 0.0
C918 C 0.96364 0.32746 0.85515 0.0
C919 C 0.00703 0.36153 0.8511 0.0
C920 C 0.04225 0.38783 0.90397 0.0
H921 H 0.14336 0.50951 0.90878 0.0
H922 H 0.11403 0.47226 0.88844 0.0
H923 H 0.06983 0.40678 0.93044 0.0
H924 H 0.9493 0.32317 0.88796 0.0
H925 H 0.98816 0.35815 0.90379 0.0
H926 H 0.03484 0.41319 0.85659 0.0
C927 C 0.11148 0.47318 0.9059 0.0
C928 C 0.06241 0.40849 0.91433 0.0
C929 C 0.12844 0.49445 0.91759 0.0
C930 C 0.96525 0.33375 0.87747 0.0
C931 C 0.98755 0.35361 0.88657 0.0
C932 C 0.04265 0.4116 0.87256 0.0
C933 C 0.09146 0.45339 0.91665 0.0
C934 C 0.0724 0.43112 0.90428 0.0
C935 C 0.00861 0.36776 0.87347 0.0
C936 C 0.03181 0.38925 0.88321 0.0
H937 H 0.10348 0.47701 0.96851 0.0
H938 H 0.07367 0.44057 0.94817 0.0
H939 H 0.06976 0.44949 0.87489 0.0
H940 H 0.98396 0.33693 0.82478 0.0
H941 H 0.02304 0.37212 0.84068 0.0
C942 C 0.10582 0.59656 0.96758 0.0
C943 C 0.10435 0.57986 0.98337 0.0
C944 C 0.08504 0.5992 0.96294 0.0
C945 C 0.01522 0.56679 0.96409 0.0
H946 H 0.02667 0.62992 0.95137 0.0
C947 C 0.93378 0.58084 0.93106 0.0
C948 C 0.94005 0.5962 0.91268 0.0
C949 C 0.95287 0.57959 0.94353 0.0
C950 C 0.02314 0.61216 0.95485 0.0
H951 H 0.07992 0.55299 0.00692 0.0
H952 H 0.04331 0.55755 0.99867 0.0
H953 H 0.06187 0.6263 0.96663 0.0
H954 H 0.97136 0.62203 0.89289 0.0
H955 H 0.0044 0.62007 0.91466 0.0
H956 H 0.9766 0.55265 0.95168 0.0
C957 C 0.06066 0.56856 0.98988 0.0
C958 C 0.04331 0.61008 0.96359 0.0
C959 C 0.08164 0.56603 0.99467 0.0
C960 C 0.96586 0.61053 0.90731 0.0
C961 C 0.98486 0.60935 0.91977 0.0
C962 C 0.99498 0.56887 0.95534 0.0
C963 C 0.06215 0.58515 0.97389 0.0
C964 C 0.03979 0.58735 0.96772 0.0
C965 C 0.97861 0.59373 0.93791 0.0
C966 C 0.99893 0.59157 0.95004 0.0
H967 H 0.123 0.60753 0.95856 0.0
H968 H 0.08672 0.61186 0.95027 0.0
H969 H 0.01192 0.54901 0.96695 0.0
H970 H 0.91411 0.56963 0.93569 0.0
H971 H 0.94749 0.56749 0.9575 0.0
C972 C 0.52516 0.98877 0.50275 0.0
C973 C 0.55121 0.99706 0.50103 0.0
C974 C 0.50861 0.98135 0.48395 0.0
C975 C 0.50123 0.95599 0.4289 0.0
H976 H 0.44338 0.96421 0.42242 0.0
C977 C 0.42268 0.90657 0.36014 0.0
C978 C 0.39753 0.89472 0.36732 0.0
C979 C 0.44312 0.92384 0.37357 0.0
C980 C 0.45942 0.96173 0.424 0.0
H981 H 0.58053 0.00508 0.47804 0.0
H982 H 0.55153 0.99212 0.4451 0.0
H983 H 0.4767 0.98635 0.45132 0.0
H984 H 0.37407 0.89227 0.39397 0.0
H985 H 0.40963 0.9223 0.41737 0.0
H986 H 0.48358 0.93075 0.40216 0.0
C987 C 0.54392 0.99117 0.46109 0.0
C988 C 0.47851 0.97443 0.44054 0.0
C989 C 0.56055 0.99872 0.47994 0.0
C990 C 0.39316 0.90131 0.38779 0.0
C991 C 0.41358 0.91855 0.40122 0.0
C992 C 0.48214 0.94329 0.41238 0.0
C993 C 0.51767 0.98198 0.46295 0.0
C994 C 0.49932 0.97125 0.44352 0.0
C995 C 0.43887 0.92964 0.3945 0.0
C996 C 0.4607 0.94557 0.41008 0.0
H997 H 0.51733 0.98734 0.51874 0.0
H998 H 0.48847 0.97412 0.48604 0.0
H999 H 0.51681 0.95287 0.43091 0.0
H1000 H 0.42661 0.90212 0.3443 0.0
H1001 H 0.46233 0.93233 0.36775 0.0
C1002 C 0.57995 0.40548 0.04849 0.0
C1003 C 0.59082 0.43018 0.04465 0.0
C1004 C 0.57122 0.38927 0.03073 0.0
C1005 C 0.57809 0.38601 0.97078 0.0
H1006 H 0.51234 0.32621 0.97304 0.0
C1007 C 0.53012 0.32513 0.89388 0.0
C1008 C 0.51813 0.30021 0.89701 0.0
C1009 C 0.53854 0.34073 0.91206 0.0
C1010 C 0.53087 0.3427 0.97224 0.0
H1011 H 0.60171 0.45725 0.01913 0.0
H1012 H 0.58629 0.42905 0.98826 0.0
H1013 H 0.52854 0.35369 0.00466 0.0
H1014 H 0.50565 0.27214 0.92171 0.0
H1015 H 0.52041 0.29933 0.95341 0.0
H1016 H 0.58051 0.37506 0.93844 0.0
C1017 C 0.58455 0.42218 0.00496 0.0
C1018 C 0.54016 0.35844 0.99037 0.0
C1019 C 0.59313 0.43832 0.02268 0.0
C1020 C 0.51445 0.29122 0.91873 0.0
C1021 C 0.52293 0.30682 0.93691 0.0
C1022 C 0.56884 0.37027 0.95269 0.0
C1023 C 0.57338 0.39745 0.00876 0.0
C1024 C 0.56382 0.38033 0.9898 0.0
C1025 C 0.53526 0.33178 0.9338 0.0
C1026 C 0.54506 0.34846 0.95314 0.0
H1027 H 0.57774 0.39862 0.06521 0.0
H1028 H 0.56291 0.37034 0.03419 0.0
H1029 H 0.59657 0.40256 0.96995 0.0
H1030 H 0.53293 0.33258 0.87735 0.0
H1031 H 0.54754 0.35982 0.90905 0.0
C1032 C 0.03817 0.41859 0.45643 0.0
C1033 C 0.04847 0.43822 0.47113 0.0
C1034 C 0.05429 0.41494 0.44386 0.0
C1035 C 0.11902 0.44816 0.4223 0.0
H1036 H 0.1106 0.38559 0.41613 0.0
C1037 C 0.19859 0.43935 0.38929 0.0
C1038 C 0.1917 0.4218 0.37296 0.0
C1039 C 0.17993 0.43937 0.40129 0.0
C1040 C 0.113 0.40311 0.41754 0.0
H1041 H 0.08382 0.46953 0.48386 0.0
H1042 H 0.11166 0.4629 0.46248 0.0
H1043 H 0.07959 0.38944 0.4365 0.0
H1044 H 0.15994 0.38987 0.35704 0.0
H1045 H 0.12712 0.38989 0.37816 0.0
H1046 H 0.15238 0.46194 0.4036 0.0
C1047 C 0.09118 0.45041 0.46048 0.0
C1048 C 0.09526 0.40531 0.42915 0.0
C1049 C 0.07517 0.45402 0.473 0.0
C1050 C 0.1658 0.40356 0.36961 0.0
C1051 C 0.14703 0.40358 0.38167 0.0
C1052 C 0.13667 0.44598 0.41079 0.0
C1053 C 0.08096 0.43097 0.44563 0.0
C1054 C 0.09838 0.42796 0.43196 0.0
C1055 C 0.1539 0.42185 0.39725 0.0
C1056 C 0.13415 0.42353 0.40861 0.0
H1057 H 0.01771 0.40602 0.45474 0.0
H1058 H 0.04587 0.39984 0.43248 0.0
H1059 H 0.12161 0.46576 0.42371 0.0
H1060 H 0.21846 0.45334 0.39255 0.0
H1061 H 0.18587 0.45334 0.41358 0.0
C1062 C 0.60688 0.06481 0.01496 0.0
C1063 C 0.61096 0.05295 0.0328 0.0
C1064 C 0.62335 0.07349 0.9974 0.0
C1065 C 0.68919 0.09 0.98392 0.0
H1066 H 0.66715 0.09923 0.9253 0.0
C1067 C 0.75471 0.12722 0.90849 0.0
C1068 C 0.75577 0.14727 0.89828 0.0
C1069 C 0.73662 0.1138 0.92428 0.0
C1070 C 0.67353 0.09673 0.94162 0.0
H1071 H 0.63463 0.03962 0.04562 0.0
H1072 H 0.66252 0.05351 0.01447 0.0
H1073 H 0.63554 0.07763 0.95311 0.0
H1074 H 0.73863 0.16898 0.89742 0.0
H1075 H 0.70652 0.14488 0.92405 0.0
H1076 H 0.72718 0.1087 0.97197 0.0
C1077 C 0.64727 0.05707 0.01436 0.0
C1078 C 0.65546 0.08448 0.95766 0.0
C1079 C 0.63108 0.04883 0.03215 0.0
C1080 C 0.73814 0.15338 0.90433 0.0
C1081 C 0.71976 0.13966 0.91974 0.0
C1082 C 0.70717 0.1018 0.96771 0.0
C1083 C 0.64411 0.07013 0.99699 0.0
C1084 C 0.66305 0.08131 0.97922 0.0
C1085 C 0.71885 0.11978 0.92989 0.0
C1086 C 0.69956 0.10565 0.94654 0.0
H1087 H 0.59175 0.06856 0.0151 0.0
H1088 H 0.62037 0.08375 0.98466 0.0
H1089 H 0.69604 0.08843 1.00035 0.0
H1090 H 0.76757 0.1216 0.90411 0.0
H1091 H 0.73622 0.09846 0.93184 0.0
C1092 C 0.55993 0.59984 0.52158 0.0
C1093 C 0.56423 0.6075 0.54375 0.0
C1094 C 0.57021 0.61652 0.50449 0.0
C1095 C 0.6231 0.6773 0.49299 0.0
H1096 H 0.58299 0.67027 0.43887 0.0
C1097 C 0.66239 0.74715 0.42239 0.0
C1098 C 0.65535 0.7385 0.40051 0.0
C1099 C 0.65129 0.73164 0.44022 0.0
C1100 C 0.59459 0.67233 0.45374 0.0
H1101 H 0.58243 0.63864 0.56542 0.0
H1102 H 0.60053 0.66795 0.53546 0.0
H1103 H 0.56295 0.64259 0.4694 0.0
H1104 H 0.63184 0.70674 0.38013 0.0
H1105 H 0.61288 0.67953 0.41119 0.0
H1106 H 0.6549 0.70668 0.47723 0.0
C1107 C 0.5892 0.64898 0.53137 0.0
C1108 C 0.58304 0.65652 0.47127 0.0
C1109 C 0.57865 0.63225 0.54848 0.0
C1110 C 0.63739 0.71395 0.39682 0.0
C1111 C 0.62644 0.6984 0.41463 0.0
C1112 C 0.63473 0.69301 0.47539 0.0
C1113 C 0.58521 0.64125 0.50921 0.0
C1114 C 0.59719 0.65877 0.49103 0.0
C1115 C 0.63303 0.70709 0.43656 0.0
C1116 C 0.62065 0.69064 0.45548 0.0
H1117 H 0.5487 0.58088 0.51745 0.0
H1118 H 0.56696 0.61001 0.4876 0.0
H1119 H 0.63457 0.67926 0.50793 0.0
H1120 H 0.67595 0.76606 0.42571 0.0
H1121 H 0.65657 0.73904 0.45684 0.0
C1122 C 0.5144 0.00569 0.64718 0.0
C1123 C 0.52832 0.01536 0.62798 0.0
C1124 C 0.50821 0.01931 0.65991 0.0
C1125 C 0.52954 0.08187 0.67239 0.0
H1126 H 0.46159 0.05549 0.69391 0.0
C1127 C 0.50251 0.14252 0.71393 0.0
C1128 C 0.48786 0.13366 0.73275 0.0
C1129 C 0.50573 0.12727 0.70067 0.0
C1130 C 0.48074 0.06305 0.68825 0.0
H1131 H 0.54574 0.04681 0.6068 0.0
H1132 H 0.53539 0.0705 0.62913 0.0
H1133 H 0.47077 0.03016 0.67218 0.0
H1134 H 0.46459 0.10184 0.75221 0.0
H1135 H 0.47055 0.07516 0.72925 0.0
H1136 H 0.53981 0.11455 0.68864 0.0
C1137 C 0.52955 0.05249 0.63448 0.0
C1138 C 0.48597 0.04854 0.67579 0.0
C1139 C 0.53557 0.03886 0.62171 0.0
C1140 C 0.47581 0.10908 0.73767 0.0
C1141 C 0.47922 0.09382 0.7245 0.0
C1142 C 0.5244 0.09628 0.68494 0.0
C1143 C 0.51596 0.04294 0.65378 0.0
C1144 C 0.51038 0.05789 0.66758 0.0
C1145 C 0.4946 0.10283 0.70604 0.0
C1146 C 0.49989 0.08716 0.69288 0.0
H1147 H 0.50867 0.98778 0.65267 0.0
H1148 H 0.49787 0.01156 0.67481 0.0
H1149 H 0.54867 0.08945 0.66663 0.0
H1150 H 0.51169 0.16134 0.70958 0.0
H1151 H 0.51715 0.13472 0.68628 0.0
C1152 C 0.53599 0.50139 0.11495 0.0
C1153 C 0.54192 0.48348 0.11728 0.0
C1154 C 0.51475 0.49881 0.12509 0.0
C1155 C 0.45398 0.45392 0.15004 0.0
H1156 H 0.46618 0.50677 0.18712 0.0
C1157 C 0.38859 0.44001 0.22042 0.0
C1158 C 0.3832 0.45785 0.2245 0.0
C1159 C 0.40661 0.44388 0.20516 0.0
C1160 C 0.46227 0.49197 0.17656 0.0
H1161 H 0.5297 0.4484 0.13118 0.0
H1162 H 0.49273 0.44383 0.14858 0.0
H1163 H 0.49941 0.5121 0.16313 0.0
H1164 H 0.39236 0.49369 0.21561 0.0
H1165 H 0.42384 0.50045 0.18884 0.0
H1166 H 0.41703 0.43365 0.16361 0.0
C1167 C 0.50438 0.45987 0.139 0.0
C1168 C 0.48132 0.49505 0.16281 0.0
C1169 C 0.52568 0.46256 0.12913 0.0
C1170 C 0.39633 0.47971 0.21301 0.0
C1171 C 0.41434 0.48357 0.19767 0.0
C1172 C 0.43492 0.45088 0.16369 0.0
C1173 C 0.49891 0.47811 0.13742 0.0
C1174 C 0.47758 0.47588 0.14977 0.0
C1175 C 0.41965 0.46566 0.19353 0.0
C1176 C 0.43904 0.46969 0.1775 0.0
H1177 H 0.54822 0.51774 0.10597 0.0
H1178 H 0.51088 0.51309 0.12349 0.0
H1179 H 0.45041 0.43894 0.13992 0.0
H1180 H 0.37913 0.42313 0.22927 0.0
H1181 H 0.41062 0.4299 0.20277 0.0
C1182 C 0.99613 0.39996 0.58312 0.0
C1183 C 0.00916 0.42518 0.58358 0.0
C1184 C 0.99067 0.38685 0.60273 0.0
C1185 C 0.97891 0.39037 0.66078 0.0
H1186 H 0.97975 0.33173 0.66585 0.0
C1187 C 0.94167 0.32866 0.73753 0.0
C1188 C 0.92644 0.3038 0.73325 0.0
C1189 C 0.95537 0.34479 0.72071 0.0
C1190 C 0.97923 0.34797 0.66466 0.0
H1191 H 0.02742 0.4565 0.60505 0.0
H1192 H 0.01774 0.43346 0.63957 0.0
H1193 H 0.99831 0.35795 0.63409 0.0
H1194 H 0.91373 0.27648 0.70784 0.0
H1195 H 0.93744 0.3045 0.67855 0.0
H1196 H 0.95916 0.38008 0.69099 0.0
C1197 C 0.01172 0.42389 0.62391 0.0
C1198 C 0.98996 0.36304 0.64648 0.0
C1199 C 0.01744 0.43708 0.60417 0.0
C1200 C 0.92556 0.29545 0.71182 0.0
C1201 C 0.93921 0.31156 0.69501 0.0
C1202 C 0.96811 0.37525 0.67895 0.0
C1203 C 0.99791 0.39858 0.62339 0.0
C1204 C 0.98948 0.38419 0.64408 0.0
C1205 C 0.95417 0.33646 0.69918 0.0
C1206 C 0.96768 0.35361 0.6809 0.0
H1207 H 0.98951 0.39022 0.56753 0.0
H1208 H 0.97976 0.36741 0.60169 0.0
H1209 H 0.97793 0.40636 0.65931 0.0
H1210 H 0.94309 0.33568 0.75393 0.0
H1211 H 0.96698 0.36379 0.72461 0.0
C1212 C 0.66135 0.02083 0.13872 0.0
C1213 C 0.65916 0.03715 0.15164 0.0
C1214 C 0.67185 0.00803 0.14795 0.0
C1215 C 0.71136 0.00629 0.19526 0.0
H1216 H 0.67266 0.93777 0.18325 0.0
C1217 C 0.72366 0.93821 0.24819 0.0
C1218 C 0.71981 0.91753 0.23781 0.0
C1219 C 0.71993 0.95468 0.23622 0.0
C1220 C 0.68404 0.95693 0.18647 0.0
H1221 H 0.66697 0.0532 0.18433 0.0
H1222 H 0.68541 0.03091 0.2004 0.0
H1223 H 0.65935 0.96312 0.16511 0.0
H1224 H 0.71059 0.89859 0.20653 0.0
H1225 H 0.70462 0.92761 0.18546 0.0
H1226 H 0.73593 1.00001 0.21681 0.0
C1227 C 0.67914 0.02818 0.18306 0.0
C1228 C 0.67634 0.97147 0.17609 0.0
C1229 C 0.66855 0.04095 0.17384 0.0
C1230 C 0.7134 0.91425 0.21499 0.0
C1231 C 0.70986 0.93081 0.20298 0.0
C1232 C 0.71917 0.99174 0.20557 0.0
C1233 C 0.68052 0.0113 0.1703 0.0
C1234 C 0.68975 0.99626 0.18051 0.0
C1235 C 0.7124 0.9509 0.21356 0.0
C1236 C 0.70544 0.96683 0.20146 0.0
H1237 H 0.65488 0.01784 0.12146 0.0
H1238 H 0.67308 0.99546 0.13759 0.0
H1239 H 0.72224 0.02539 0.19879 0.0
H1240 H 0.72827 0.94102 0.26583 0.0
H1241 H 0.72176 0.96976 0.24499 0.0
C1242 C 0.62108 0.57219 0.64413 0.0
C1243 C 0.61002 0.55419 0.62771 0.0
C1244 C 0.64181 0.57566 0.65764 0.0
C1245 C 0.67123 0.5432 0.68037 0.0
H1246 H 0.72493 0.60668 0.70088 0.0
C1247 C 0.75334 0.55875 0.7427 0.0
C1248 C 0.76001 0.57568 0.75967 0.0
C1249 C 0.7365 0.55633 0.7251 0.0
C1250 C 0.70996 0.58882 0.69544 0.0
H1251 H 0.61264 0.52623 0.61206 0.0
H1252 H 0.64918 0.53236 0.63581 0.0
H1253 H 0.69416 0.60264 0.67155 0.0
H1254 H 0.75414 0.60325 0.7715 0.0
H1255 H 0.72454 0.59892 0.74081 0.0
H1256 H 0.68683 0.52938 0.70452 0.0
C1257 C 0.64155 0.54365 0.63825 0.0
C1258 C 0.69238 0.58651 0.67858 0.0
C1259 C 0.62078 0.54026 0.62456 0.0
C1260 C 0.74945 0.59013 0.75863 0.0
C1261 C 0.7326 0.58771 0.741 0.0
C1262 C 0.68886 0.54552 0.69722 0.0
C1263 C 0.65204 0.56119 0.65516 0.0
C1264 C 0.67251 0.56366 0.67113 0.0
C1265 C 0.726 0.57083 0.72399 0.0
C1266 C 0.70816 0.56836 0.70522 0.0
H1267 H 0.61331 0.5833 0.64695 0.0
H1268 H 0.64916 0.58912 0.67064 0.0
H1269 H 0.65597 0.52534 0.67522 0.0
H1270 H 0.76168 0.54778 0.7427 0.0
H1271 H 0.73212 0.54343 0.7121 0.0
C1272 C 0.23759 0.66455 0.04595 0.0
C1273 C 0.22788 0.63978 0.04776 0.0
C1274 C 0.24763 0.67942 0.06472 0.0
C1275 C 0.27106 0.6816 0.12314 0.0
H1276 H 0.24787 0.72535 0.13183 0.0
C1277 C 0.26894 0.71516 0.20916 0.0
C1278 C 0.2775 0.73957 0.21182 0.0
C1279 C 0.26601 0.70547 0.18813 0.0
C1280 C 0.25482 0.71349 0.1295 0.0
H1281 H 0.22239 0.6115 0.07043 0.0
H1282 H 0.23936 0.63716 0.10307 0.0
H1283 H 0.23813 0.70421 0.0965 0.0
H1284 H 0.28957 0.77292 0.1943 0.0
H1285 H 0.28391 0.75576 0.1574 0.0
H1286 H 0.28698 0.69027 0.15638 0.0
C1287 C 0.23941 0.64523 0.08722 0.0
C1288 C 0.24931 0.70142 0.10925 0.0
C1289 C 0.22938 0.63043 0.06853 0.0
C1290 C 0.28269 0.75399 0.19284 0.0
C1291 C 0.27954 0.74421 0.17172 0.0
C1292 C 0.27643 0.69355 0.14337 0.0
C1293 C 0.24831 0.66984 0.08564 0.0
C1294 C 0.25688 0.68492 0.10602 0.0
C1295 C 0.27135 0.71988 0.16919 0.0
C1296 C 0.26789 0.70921 0.14694 0.0
H1297 H 0.23659 0.67227 0.03021 0.0
H1298 H 0.25457 0.69835 0.06291 0.0
H1299 H 0.27764 0.66942 0.12104 0.0
H1300 H 0.26418 0.70337 0.22333 0.0
H1301 H 0.25913 0.68653 0.18667 0.0
loop_
_geom_bond_atom_site_label_1
_geom_bond_atom_site_label_2
_geom_bond_distance
_geom_bond_site_symmetry_2
_ccdc_geom_bond_type
Cu0 N1 1.999 1_554 S
Cu0 O6 1.974 1_554 S
Cu0 N11 1.985 . S
Cu0 O20 1.959 . S
N1 Cu0 1.999 1_556 S
N1 C3 1.263 . S
N1 C5 1.389 . S
N2 C3 1.358 . S
N2 C4 1.400 . S
C3 N1 1.263 . S
C3 N2 1.358 . S
C3 H9 0.930 . S
C4 N2 1.400 . S
C4 C5 1.351 . S
C4 H21 0.930 . S
C5 N1 1.389 . S
C5 C4 1.351 . S
C5 H10 0.930 1_556 S
O6 Cu0 1.974 1_556 S
O6 C16 1.282 . S
C7 O8 1.261 . S
C7 O20 1.251 . S
O8 C7 1.261 . S
H9 C3 0.930 . S
H10 C5 0.930 1_554 S
N11 Cu0 1.985 . S
N11 C13 1.335 . S
N11 C14 1.390 . S
N12 C13 1.345 . S
N12 C15 1.336 . S
C13 N11 1.335 . S
C13 N12 1.345 . S
C13 H18 0.930 . S
C14 N11 1.390 . S
C14 C15 1.346 . S
C14 H19 0.930 1_554 S
C15 N12 1.336 . S
C15 C14 1.346 . S
C15 H22 0.929 . S
C16 O6 1.282 . S
C16 O17 1.216 . S
O17 C16 1.216 . S
H18 C13 0.930 . S
H19 C14 0.930 1_556 S
O20 Cu0 1.959 . S
O20 C7 1.251 . S
H21 C4 0.930 . S
H22 C15 0.929 . S
Cu23 N24 1.999 . S
Cu23 O29 1.974 . S
Cu23 N34 1.985 1_565 S
Cu23 O43 1.959 1_565 S
N24 Cu23 1.999 . S
N24 C26 1.263 . S
N24 C28 1.389 . S
N25 C26 1.358 . S
N25 C27 1.400 . S
C26 N24 1.263 . S
C26 N25 1.358 . S
C26 H32 0.930 . S
C27 N25 1.400 . S
C27 C28 1.351 . S
C27 H44 0.930 . S
C28 N24 1.389 . S
C28 C27 1.351 . S
C28 H33 0.930 . S
O29 Cu23 1.974 . S
O29 C39 1.282 . S
C30 O31 1.261 . S
C30 O43 1.251 . S
O31 C30 1.261 . S
H32 C26 0.930 . S
H33 C28 0.930 . S
N34 Cu23 1.985 1_545 S
N34 C36 1.335 . S
N34 C37 1.390 . S
N35 C36 1.345 . S
N35 C38 1.336 . S
C36 N34 1.335 . S
C36 N35 1.345 . S
C36 H41 0.930 . S
C37 N34 1.390 . S
C37 C38 1.346 . S
C37 H42 0.930 . S
C38 N35 1.336 . S
C38 C37 1.346 . S
C38 H45 0.929 . S
C39 O29 1.282 . S
C39 O40 1.216 1_565 S
O40 C39 1.216 1_545 S
H41 C36 0.930 . S
H42 C37 0.930 . S
O43 Cu23 1.959 1_545 S
O43 C30 1.251 . S
H44 C27 0.930 . S
H45 C38 0.929 . S
Cu46 N47 1.999 . S
Cu46 O52 1.974 . S
Cu46 N57 1.985 . S
Cu46 O66 1.959 . S
N47 Cu46 1.999 . S
N47 C49 1.263 . S
N47 C51 1.389 . S
N48 C49 1.358 . S
N48 C50 1.400 . S
C49 N47 1.263 . S
C49 N48 1.358 . S
C49 H55 0.930 . S
C50 N48 1.400 . S
C50 C51 1.351 . S
C50 H67 0.930 . S
C51 N47 1.389 . S
C51 C50 1.351 . S
C51 H56 0.930 . S
O52 Cu46 1.974 . S
O52 C62 1.282 . S
C53 O54 1.261 . S
C53 O66 1.251 . S
O54 C53 1.261 . S
H55 C49 0.930 . S
H56 C51 0.930 . S
N57 Cu46 1.985 . S
N57 C59 1.335 . S
N57 C60 1.390 . S
N58 C59 1.345 . S
N58 C61 1.336 . S
C59 N57 1.335 . S
C59 N58 1.345 . S
C59 H64 0.930 . S
C60 N57 1.390 . S
C60 C61 1.346 . S
C60 H65 0.930 . S
C61 N58 1.336 . S
C61 C60 1.346 . S
C61 H68 0.929 . S
C62 O52 1.282 . S
C62 O63 1.216 . S
O63 C62 1.216 . S
H64 C59 0.930 . S
H65 C60 0.930 . S
O66 Cu46 1.959 . S
O66 C53 1.251 . S
H67 C50 0.930 . S
H68 C61 0.929 . S
Cu69 N70 1.999 1_655 S
Cu69 O75 1.974 1_655 S
Cu69 N80 1.985 . S
Cu69 O89 1.959 . S
N70 Cu69 1.999 1_455 S
N70 C72 1.263 . S
N70 C74 1.389 1_455 S
N71 C72 1.358 . S
N71 C73 1.400 . S
C72 N70 1.263 . S
C72 N71 1.358 . S
C72 H78 0.930 . S
C73 N71 1.400 . S
C73 C74 1.351 1_455 S
C73 H90 0.930 1_455 S
C74 N70 1.389 1_655 S
C74 C73 1.351 1_655 S
C74 H79 0.930 . S
O75 Cu69 1.974 1_455 S
O75 C85 1.282 . S
C76 O77 1.261 1_655 S
C76 O89 1.251 . S
O77 C76 1.261 1_455 S
H78 C72 0.930 . S
H79 C74 0.930 . S
N80 Cu69 1.985 . S
N80 C82 1.335 . S
N80 C83 1.390 . S
N81 C82 1.345 . S
N81 C84 1.336 . S
C82 N80 1.335 . S
C82 N81 1.345 . S
C82 H87 0.930 . S
C83 N80 1.390 . S
C83 C84 1.346 . S
C83 H88 0.930 1_655 S
C84 N81 1.336 . S
C84 C83 1.346 . S
C84 H91 0.929 . S
C85 O75 1.282 . S
C85 O86 1.216 . S
O86 C85 1.216 . S
H87 C82 0.930 . S
H88 C83 0.930 1_455 S
O89 Cu69 1.959 . S
O89 C76 1.251 . S
H90 C73 0.930 1_655 S
H91 C84 0.929 . S
Cu92 N93 1.999 . S
Cu92 O98 1.974 . S
Cu92 N103 1.985 . S
Cu92 O112 1.959 . S
N93 Cu92 1.999 . S
N93 C95 1.263 . S
N93 C97 1.389 . S
N94 C95 1.358 . S
N94 C96 1.400 . S
C95 N93 1.263 . S
C95 N94 1.358 . S
C95 H101 0.930 . S
C96 N94 1.400 . S
C96 C97 1.351 . S
C96 H113 0.930 . S
C97 N93 1.389 . S
C97 C96 1.351 . S
C97 H102 0.930 . S
O98 Cu92 1.974 . S
O98 C108 1.282 . S
C99 O100 1.261 . S
C99 O112 1.251 . S
O100 C99 1.261 . S
H101 C95 0.930 . S
H102 C97 0.930 . S
N103 Cu92 1.985 . S
N103 C105 1.335 . S
N103 C106 1.390 . S
N104 C105 1.345 . S
N104 C107 1.336 . S
C105 N103 1.335 . S
C105 N104 1.345 . S
C105 H110 0.930 . S
C106 N103 1.390 . S
C106 C107 1.346 . S
C106 H111 0.930 . S
C107 N104 1.336 . S
C107 C106 1.346 . S
C107 H114 0.929 . S
C108 O98 1.282 . S
C108 O109 1.216 . S
O109 C108 1.216 . S
H110 C105 0.930 . S
H111 C106 0.930 . S
O112 Cu92 1.959 . S
O112 C99 1.251 . S
H113 C96 0.930 . S
H114 C107 0.929 . S
Cu115 N116 1.999 . S
Cu115 O121 1.974 . S
Cu115 N126 1.985 . S
Cu115 O135 1.959 . S
N116 Cu115 1.999 . S
N116 C118 1.263 . S
N116 C120 1.389 . S
N117 C118 1.358 . S
N117 C119 1.400 . S
C118 N116 1.263 . S
C118 N117 1.358 . S
C118 H124 0.930 . S
C119 N117 1.400 . S
C119 C120 1.351 . S
C119 H136 0.930 . S
C120 N116 1.389 . S
C120 C119 1.351 . S
C120 H125 0.930 . S
O121 Cu115 1.974 . S
O121 C131 1.282 . S
C122 O123 1.261 . S
C122 O135 1.251 . S
O123 C122 1.261 . S
H124 C118 0.930 . S
H125 C120 0.930 . S
N126 Cu115 1.985 . S
N126 C128 1.335 . S
N126 C129 1.390 . S
N127 C128 1.345 . S
N127 C130 1.336 . S
C128 N126 1.335 . S
C128 N127 1.345 . S
C128 H133 0.930 . S
C129 N126 1.390 . S
C129 C130 1.346 . S
C129 H134 0.930 . S
C130 N127 1.336 . S
C130 C129 1.346 . S
C130 H137 0.929 . S
C131 O121 1.282 . S
C131 O132 1.216 . S
O132 C131 1.216 . S
H133 C128 0.930 . S
H134 C129 0.930 . S
O135 Cu115 1.959 . S
O135 C122 1.251 . S
H136 C119 0.930 . S
H137 C130 0.929 . S
H138 O164 0.856 . S
H139 O167 0.854 . S
H140 C175 0.930 . S
H141 C176 0.930 . S
H142 C178 0.930 . S
H143 C179 0.930 . S
H144 C181 0.931 . S
H145 C182 0.930 . S
H146 C184 0.930 . S
H147 C185 0.929 . S
H148 C187 0.930 . S
H149 C188 0.931 . S
H150 C190 0.930 . S
H151 C191 0.929 . S
H152 C193 0.931 . S
H153 C194 0.930 . S
H154 C196 0.930 . S
H155 C197 0.932 . S
H156 C199 0.930 . S
H157 C200 0.929 . S
H158 C202 0.931 . S
H159 C203 0.930 . S
H160 C205 0.929 . S
H161 C206 0.931 . S
H162 C208 0.930 . S
H163 C209 0.929 . S
O164 H138 0.856 . S
O164 C210 1.300 . S
O165 C210 1.209 . S
O166 C211 1.199 . S
O167 H139 0.854 . S
O167 C211 1.297 . S
C168 C169 1.404 . S
C168 C173 1.397 . S
C168 C174 1.492 . S
C169 C168 1.404 . S
C169 C170 1.396 . S
C169 C180 1.492 . S
C170 C169 1.396 . S
C170 C171 1.397 . S
C170 C186 1.509 . S
C171 C170 1.397 . S
C171 C172 1.412 . S
C171 C192 1.485 . S
C172 C171 1.412 . S
C172 C173 1.388 . S
C172 C198 1.490 . S
C173 C168 1.397 . S
C173 C172 1.388 . S
C173 C204 1.519 . S
C174 C168 1.492 . S
C174 C175 1.363 . S
C174 C179 1.390 . S
C175 H140 0.930 . S
C175 C174 1.363 . S
C175 C176 1.372 . S
C176 H141 0.930 . S
C176 C175 1.372 . S
C176 C177 1.383 . S
C177 C176 1.383 . S
C177 C178 1.395 . S
C178 H142 0.930 . S
C178 C177 1.395 . S
C178 C179 1.362 . S
C179 H143 0.930 . S
C179 C174 1.390 . S
C179 C178 1.362 . S
C180 C169 1.492 . S
C180 C181 1.377 . S
C180 C185 1.397 . S
C181 H144 0.931 . S
C181 C180 1.377 . S
C181 C182 1.376 . S
C182 H145 0.930 . S
C182 C181 1.376 . S
C182 C183 1.376 . S
C183 C182 1.376 . S
C183 C184 1.378 . S
C183 C210 1.486 . S
C184 H146 0.930 . S
C184 C183 1.378 . S
C184 C185 1.376 . S
C185 H147 0.929 . S
C185 C180 1.397 . S
C185 C184 1.376 . S
C186 C170 1.509 . S
C186 C187 1.391 . S
C186 C191 1.386 . S
C187 H148 0.930 . S
C187 C186 1.391 . S
C187 C188 1.375 . S
C188 H149 0.931 . S
C188 C187 1.375 . S
C188 C189 1.375 . S
C189 C188 1.375 . S
C189 C190 1.361 . S
C190 H150 0.930 . S
C190 C189 1.361 . S
C190 C191 1.399 . S
C191 H151 0.929 . S
C191 C186 1.386 . S
C191 C190 1.399 . S
C192 C171 1.485 . S
C192 C193 1.394 . S
C192 C197 1.360 . S
C193 H152 0.931 . S
C193 C192 1.394 . S
C193 C194 1.372 . S
C194 H153 0.930 . S
C194 C193 1.372 . S
C194 C195 1.397 . S
C195 C194 1.397 . S
C195 C196 1.390 . S
C195 C211 1.476 . S
C196 H154 0.930 . S
C196 C195 1.390 . S
C196 C197 1.366 . S
C197 H155 0.932 . S
C197 C192 1.360 . S
C197 C196 1.366 . S
C198 C172 1.490 . S
C198 C199 1.380 . S
C198 C203 1.386 . S
C199 H156 0.930 . S
C199 C198 1.380 . S
C199 C200 1.381 . S
C200 H157 0.929 . S
C200 C199 1.381 . S
C200 C201 1.371 . S
C201 C200 1.371 . S
C201 C202 1.380 . S
C202 H158 0.931 . S
C202 C201 1.380 . S
C202 C203 1.387 . S
C203 H159 0.930 . S
C203 C198 1.386 . S
C203 C202 1.387 . S
C204 C173 1.519 . S
C204 C205 1.377 . S
C204 C209 1.361 . S
C205 H160 0.929 . S
C205 C204 1.377 . S
C205 C206 1.386 . S
C206 H161 0.931 . S
C206 C205 1.386 . S
C206 C207 1.363 . S
C207 C206 1.363 . S
C207 C208 1.385 . S
C208 H162 0.930 . S
C208 C207 1.385 . S
C208 C209 1.396 . S
C209 H163 0.929 . S
C209 C204 1.361 . S
C209 C208 1.396 . S
C210 O164 1.300 . S
C210 O165 1.209 . S
C210 C183 1.486 . S
C211 O166 1.199 . S
C211 O167 1.297 . S
C211 C195 1.476 . S
H212 O238 0.856 . S
H213 O241 0.854 . S
H214 C249 0.930 . S
H215 C250 0.930 . S
H216 C252 0.930 . S
H217 C253 0.930 . S
H218 C255 0.931 . S
H219 C256 0.930 . S
H220 C258 0.930 . S
H221 C259 0.929 . S
H222 C261 0.930 . S
H223 C262 0.931 . S
H224 C264 0.930 . S
H225 C265 0.929 . S
H226 C267 0.931 . S
H227 C268 0.930 . S
H228 C270 0.930 . S
H229 C271 0.932 . S
H230 C273 0.930 . S
H231 C274 0.929 . S
H232 C276 0.931 . S
H233 C277 0.930 . S
H234 C279 0.929 . S
H235 C280 0.931 . S
H236 C282 0.930 . S
H237 C283 0.929 . S
O238 H212 0.856 . S
O238 C284 1.300 . S
O239 C284 1.209 . S
O240 C285 1.199 . S
O241 H213 0.854 . S
O241 C285 1.297 . S
C242 C243 1.404 . S
C242 C247 1.397 . S
C242 C248 1.492 . S
C243 C242 1.404 . S
C243 C244 1.396 . S
C243 C254 1.492 . S
C244 C243 1.396 . S
C244 C245 1.397 . S
C244 C260 1.509 . S
C245 C244 1.397 . S
C245 C246 1.412 . S
C245 C266 1.485 . S
C246 C245 1.412 . S
C246 C247 1.388 . S
C246 C272 1.490 . S
C247 C242 1.397 . S
C247 C246 1.388 . S
C247 C278 1.519 . S
C248 C242 1.492 . S
C248 C249 1.363 . S
C248 C253 1.390 . S
C249 H214 0.930 . S
C249 C248 1.363 . S
C249 C250 1.372 . S
C250 H215 0.930 . S
C250 C249 1.372 . S
C250 C251 1.383 . S
C251 C250 1.383 . S
C251 C252 1.395 . S
C252 H216 0.930 . S
C252 C251 1.395 . S
C252 C253 1.362 . S
C253 H217 0.930 . S
C253 C248 1.390 . S
C253 C252 1.362 . S
C254 C243 1.492 . S
C254 C255 1.377 . S
C254 C259 1.397 . S
C255 H218 0.931 . S
C255 C254 1.377 . S
C255 C256 1.376 . S
C256 H219 0.930 . S
C256 C255 1.376 . S
C256 C257 1.376 . S
C257 C256 1.376 . S
C257 C258 1.378 . S
C257 C284 1.486 . S
C258 H220 0.930 . S
C258 C257 1.378 . S
C258 C259 1.376 . S
C259 H221 0.929 . S
C259 C254 1.397 . S
C259 C258 1.376 . S
C260 C244 1.509 . S
C260 C261 1.391 . S
C260 C265 1.386 . S
C261 H222 0.930 . S
C261 C260 1.391 . S
C261 C262 1.375 . S
C262 H223 0.931 . S
C262 C261 1.375 . S
C262 C263 1.375 . S
C263 C262 1.375 . S
C263 C264 1.361 . S
C264 H224 0.930 . S
C264 C263 1.361 . S
C264 C265 1.399 . S
C265 H225 0.929 . S
C265 C260 1.386 . S
C265 C264 1.399 . S
C266 C245 1.485 . S
C266 C267 1.394 . S
C266 C271 1.360 . S
C267 H226 0.931 . S
C267 C266 1.394 . S
C267 C268 1.372 . S
C268 H227 0.930 . S
C268 C267 1.372 . S
C268 C269 1.397 . S
C269 C268 1.397 . S
C269 C270 1.390 . S
C269 C285 1.476 . S
C270 H228 0.930 . S
C270 C269 1.390 . S
C270 C271 1.366 . S
C271 H229 0.932 . S
C271 C266 1.360 . S
C271 C270 1.366 . S
C272 C246 1.490 . S
C272 C273 1.380 . S
C272 C277 1.386 . S
C273 H230 0.930 . S
C273 C272 1.380 . S
C273 C274 1.381 . S
C274 H231 0.929 . S
C274 C273 1.381 . S
C274 C275 1.371 . S
C275 C274 1.371 . S
C275 C276 1.380 . S
C276 H232 0.931 . S
C276 C275 1.380 . S
C276 C277 1.387 . S
C277 H233 0.930 . S
C277 C272 1.386 . S
C277 C276 1.387 . S
C278 C247 1.519 . S
C278 C279 1.377 . S
C278 C283 1.361 . S
C279 H234 0.929 . S
C279 C278 1.377 . S
C279 C280 1.386 . S
C280 H235 0.931 . S
C280 C279 1.386 . S
C280 C281 1.363 . S
C281 C280 1.363 . S
C281 C282 1.385 . S
C282 H236 0.930 . S
C282 C281 1.385 . S
C282 C283 1.396 . S
C283 H237 0.929 . S
C283 C278 1.361 . S
C283 C282 1.396 . S
C284 O238 1.300 . S
C284 O239 1.209 . S
C284 C257 1.486 . S
C285 O240 1.199 . S
C285 O241 1.297 . S
C285 C269 1.476 . S
H286 O312 0.856 . S
H287 O315 0.854 . S
H288 C323 0.930 . S
H289 C324 0.930 . S
H290 C326 0.930 . S
H291 C327 0.930 . S
H292 C329 0.931 . S
H293 C330 0.930 . S
H294 C332 0.930 . S
H295 C333 0.929 . S
H296 C335 0.930 . S
H297 C336 0.931 . S
H298 C338 0.930 . S
H299 C339 0.929 . S
H300 C341 0.931 . S
H301 C342 0.930 . S
H302 C344 0.930 . S
H303 C345 0.932 . S
H304 C347 0.930 . S
H305 C348 0.929 . S
H306 C350 0.931 . S
H307 C351 0.930 . S
H308 C353 0.929 . S
H309 C354 0.931 . S
H310 C356 0.930 . S
H311 C357 0.929 . S
O312 H286 0.856 . S
O312 C358 1.300 . S
O313 C358 1.209 . S
O314 C359 1.199 . S
O315 H287 0.854 . S
O315 C359 1.297 . S
C316 C317 1.404 . S
C316 C321 1.397 . S
C316 C322 1.492 . S
C317 C316 1.404 . S
C317 C318 1.396 . S
C317 C328 1.492 . S
C318 C317 1.396 . S
C318 C319 1.397 . S
C318 C334 1.509 . S
C319 C318 1.397 . S
C319 C320 1.412 . S
C319 C340 1.485 . S
C320 C319 1.412 . S
C320 C321 1.388 . S
C320 C346 1.490 . S
C321 C316 1.397 . S
C321 C320 1.388 . S
C321 C352 1.519 . S
C322 C316 1.492 . S
C322 C323 1.363 . S
C322 C327 1.390 . S
C323 H288 0.930 . S
C323 C322 1.363 . S
C323 C324 1.372 . S
C324 H289 0.930 . S
C324 C323 1.372 . S
C324 C325 1.383 . S
C325 C324 1.383 . S
C325 C326 1.395 . S
C326 H290 0.930 . S
C326 C325 1.395 . S
C326 C327 1.362 . S
C327 H291 0.930 . S
C327 C322 1.390 . S
C327 C326 1.362 . S
C328 C317 1.492 . S
C328 C329 1.377 . S
C328 C333 1.397 . S
C329 H292 0.931 . S
C329 C328 1.377 . S
C329 C330 1.376 . S
C330 H293 0.930 . S
C330 C329 1.376 . S
C330 C331 1.376 . S
C331 C330 1.376 . S
C331 C332 1.378 . S
C331 C358 1.486 . S
C332 H294 0.930 . S
C332 C331 1.378 . S
C332 C333 1.376 . S
C333 H295 0.929 . S
C333 C328 1.397 . S
C333 C332 1.376 . S
C334 C318 1.509 . S
C334 C335 1.391 . S
C334 C339 1.386 . S
C335 H296 0.930 . S
C335 C334 1.391 . S
C335 C336 1.375 . S
C336 H297 0.931 . S
C336 C335 1.375 . S
C336 C337 1.375 . S
C337 C336 1.375 . S
C337 C338 1.361 . S
C338 H298 0.930 . S
C338 C337 1.361 . S
C338 C339 1.399 . S
C339 H299 0.929 . S
C339 C334 1.386 . S
C339 C338 1.399 . S
C340 C319 1.485 . S
C340 C341 1.394 . S
C340 C345 1.360 . S
C341 H300 0.931 . S
C341 C340 1.394 . S
C341 C342 1.372 . S
C342 H301 0.930 . S
C342 C341 1.372 . S
C342 C343 1.397 . S
C343 C342 1.397 . S
C343 C344 1.390 . S
C343 C359 1.476 . S
C344 H302 0.930 . S
C344 C343 1.390 . S
C344 C345 1.366 . S
C345 H303 0.932 . S
C345 C340 1.360 . S
C345 C344 1.366 . S
C346 C320 1.490 . S
C346 C347 1.380 . S
C346 C351 1.386 . S
C347 H304 0.930 . S
C347 C346 1.380 . S
C347 C348 1.381 . S
C348 H305 0.929 . S
C348 C347 1.381 . S
C348 C349 1.371 . S
C349 C348 1.371 . S
C349 C350 1.380 . S
C350 H306 0.931 . S
C350 C349 1.380 . S
C350 C351 1.387 . S
C351 H307 0.930 . S
C351 C346 1.386 . S
C351 C350 1.387 . S
C352 C321 1.519 . S
C352 C353 1.377 . S
C352 C357 1.361 . S
C353 H308 0.929 . S
C353 C352 1.377 . S
C353 C354 1.386 . S
C354 H309 0.931 . S
C354 C353 1.386 . S
C354 C355 1.363 . S
C355 C354 1.363 . S
C355 C356 1.385 . S
C356 H310 0.930 . S
C356 C355 1.385 . S
C356 C357 1.396 . S
C357 H311 0.929 . S
C357 C352 1.361 . S
C357 C356 1.396 . S
C358 O312 1.300 . S
C358 O313 1.209 . S
C358 C331 1.486 . S
C359 O314 1.199 . S
C359 O315 1.297 . S
C359 C343 1.476 . S
H360 O386 0.856 . S
H361 O389 0.854 . S
H362 C397 0.930 . S
H363 C398 0.930 . S
H364 C400 0.930 . S
H365 C401 0.930 . S
H366 C403 0.931 . S
H367 C404 0.930 . S
H368 C406 0.930 . S
H369 C407 0.929 . S
H370 C409 0.930 . S
H371 C410 0.931 . S
H372 C412 0.930 . S
H373 C413 0.929 . S
H374 C415 0.931 . S
H375 C416 0.930 1_455 S
H376 C418 0.930 . S
H377 C419 0.932 . S
H378 C421 0.930 . S
H379 C422 0.929 . S
H380 C424 0.931 . S
H381 C425 0.930 . S
H382 C427 0.929 . S
H383 C428 0.931 . S
H384 C430 0.930 . S
H385 C431 0.929 . S
O386 H360 0.856 . S
O386 C432 1.300 . S
O387 C432 1.209 . S
O388 C433 1.199 . S
O389 H361 0.854 . S
O389 C433 1.297 . S
C390 C391 1.404 . S
C390 C395 1.397 . S
C390 C396 1.492 . S
C391 C390 1.404 . S
C391 C392 1.396 . S
C391 C402 1.492 . S
C392 C391 1.396 . S
C392 C393 1.397 . S
C392 C408 1.509 . S
C393 C392 1.397 . S
C393 C394 1.412 . S
C393 C414 1.485 . S
C394 C393 1.412 . S
C394 C395 1.388 . S
C394 C420 1.490 . S
C395 C390 1.397 . S
C395 C394 1.388 . S
C395 C426 1.519 . S
C396 C390 1.492 . S
C396 C397 1.363 . S
C396 C401 1.390 . S
C397 H362 0.930 . S
C397 C396 1.363 . S
C397 C398 1.372 . S
C398 H363 0.930 . S
C398 C397 1.372 . S
C398 C399 1.383 . S
C399 C398 1.383 . S
C399 C400 1.395 . S
C400 H364 0.930 . S
C400 C399 1.395 . S
C400 C401 1.362 . S
C401 H365 0.930 . S
C401 C396 1.390 . S
C401 C400 1.362 . S
C402 C391 1.492 . S
C402 C403 1.377 . S
C402 C407 1.397 . S
C403 H366 0.931 . S
C403 C402 1.377 . S
C403 C404 1.376 . S
C404 H367 0.930 . S
C404 C403 1.376 . S
C404 C405 1.376 . S
C405 C404 1.376 . S
C405 C406 1.378 . S
C405 C432 1.486 . S
C406 H368 0.930 . S
C406 C405 1.378 . S
C406 C407 1.376 . S
C407 H369 0.929 . S
C407 C402 1.397 . S
C407 C406 1.376 . S
C408 C392 1.509 . S
C408 C409 1.391 . S
C408 C413 1.386 . S
C409 H370 0.930 . S
C409 C408 1.391 . S
C409 C410 1.375 . S
C410 H371 0.931 . S
C410 C409 1.375 . S
C410 C411 1.375 . S
C411 C410 1.375 . S
C411 C412 1.361 . S
C412 H372 0.930 . S
C412 C411 1.361 . S
C412 C413 1.399 . S
C413 H373 0.929 . S
C413 C408 1.386 . S
C413 C412 1.399 . S
C414 C393 1.485 . S
C414 C415 1.394 . S
C414 C419 1.360 . S
C415 H374 0.931 . S
C415 C414 1.394 . S
C415 C416 1.372 . S
C416 H375 0.930 1_655 S
C416 C415 1.372 . S
C416 C417 1.397 . S
C417 C416 1.397 . S
C417 C418 1.390 . S
C417 C433 1.476 1_655 S
C418 H376 0.930 . S
C418 C417 1.390 . S
C418 C419 1.366 . S
C419 H377 0.932 . S
C419 C414 1.360 . S
C419 C418 1.366 . S
C420 C394 1.490 . S
C420 C421 1.380 . S
C420 C425 1.386 . S
C421 H378 0.930 . S
C421 C420 1.380 . S
C421 C422 1.381 . S
C422 H379 0.929 . S
C422 C421 1.381 . S
C422 C423 1.371 . S
C423 C422 1.371 . S
C423 C424 1.380 . S
C424 H380 0.931 . S
C424 C423 1.380 . S
C424 C425 1.387 . S
C425 H381 0.930 . S
C425 C420 1.386 . S
C425 C424 1.387 . S
C426 C395 1.519 . S
C426 C427 1.377 . S
C426 C431 1.361 . S
C427 H382 0.929 . S
C427 C426 1.377 . S
C427 C428 1.386 . S
C428 H383 0.931 . S
C428 C427 1.386 . S
C428 C429 1.363 . S
C429 C428 1.363 . S
C429 C430 1.385 . S
C430 H384 0.930 . S
C430 C429 1.385 . S
C430 C431 1.396 . S
C431 H385 0.929 . S
C431 C426 1.361 . S
C431 C430 1.396 . S
C432 O386 1.300 . S
C432 O387 1.209 . S
C432 C405 1.486 . S
C433 O388 1.199 . S
C433 O389 1.297 . S
C433 C417 1.476 1_455 S
H434 O460 0.856 . S
H435 O463 0.854 . S
H436 C471 0.930 . S
H437 C472 0.930 . S
H438 C474 0.930 . S
H439 C475 0.930 . S
H440 C477 0.931 . S
H441 C478 0.930 . S
H442 C480 0.930 . S
H443 C481 0.929 . S
H444 C483 0.930 . S
H445 C484 0.931 . S
H446 C486 0.930 . S
H447 C487 0.929 . S
H448 C489 0.931 . S
H449 C490 0.930 . S
H450 C492 0.930 . S
H451 C493 0.932 . S
H452 C495 0.930 . S
H453 C496 0.929 . S
H454 C498 0.931 . S
H455 C499 0.930 . S
H456 C501 0.929 . S
H457 C502 0.931 . S
H458 C504 0.930 . S
H459 C505 0.929 . S
O460 H434 0.856 . S
O460 C506 1.300 . S
O461 C506 1.209 . S
O462 C507 1.199 . S
O463 H435 0.854 . S
O463 C507 1.297 . S
C464 C465 1.404 . S
C464 C469 1.397 . S
C464 C470 1.492 . S
C465 C464 1.404 . S
C465 C466 1.396 . S
C465 C476 1.492 . S
C466 C465 1.396 . S
C466 C467 1.397 . S
C466 C482 1.509 . S
C467 C466 1.397 . S
C467 C468 1.412 . S
C467 C488 1.485 . S
C468 C467 1.412 . S
C468 C469 1.388 . S
C468 C494 1.490 . S
C469 C464 1.397 . S
C469 C468 1.388 . S
C469 C500 1.519 . S
C470 C464 1.492 . S
C470 C471 1.363 . S
C470 C475 1.390 . S
C471 H436 0.930 . S
C471 C470 1.363 . S
C471 C472 1.372 . S
C472 H437 0.930 . S
C472 C471 1.372 . S
C472 C473 1.383 . S
C473 C472 1.383 . S
C473 C474 1.395 . S
C474 H438 0.930 . S
C474 C473 1.395 . S
C474 C475 1.362 . S
C475 H439 0.930 . S
C475 C470 1.390 . S
C475 C474 1.362 . S
C476 C465 1.492 . S
C476 C477 1.377 . S
C476 C481 1.397 . S
C477 H440 0.931 . S
C477 C476 1.377 . S
C477 C478 1.376 . S
C478 H441 0.930 . S
C478 C477 1.376 . S
C478 C479 1.376 . S
C479 C478 1.376 . S
C479 C480 1.378 . S
C479 C506 1.486 . S
C480 H442 0.930 . S
C480 C479 1.378 . S
C480 C481 1.376 . S
C481 H443 0.929 . S
C481 C476 1.397 . S
C481 C480 1.376 . S
C482 C466 1.509 . S
C482 C483 1.391 . S
C482 C487 1.386 . S
C483 H444 0.930 . S
C483 C482 1.391 . S
C483 C484 1.375 . S
C484 H445 0.931 . S
C484 C483 1.375 . S
C484 C485 1.375 . S
C485 C484 1.375 . S
C485 C486 1.361 . S
C486 H446 0.930 . S
C486 C485 1.361 . S
C486 C487 1.399 . S
C487 H447 0.929 . S
C487 C482 1.386 . S
C487 C486 1.399 . S
C488 C467 1.485 . S
C488 C489 1.394 . S
C488 C493 1.360 . S
C489 H448 0.931 . S
C489 C488 1.394 . S
C489 C490 1.372 . S
C490 H449 0.930 . S
C490 C489 1.372 . S
C490 C491 1.397 . S
C491 C490 1.397 . S
C491 C492 1.390 . S
C491 C507 1.476 . S
C492 H450 0.930 . S
C492 C491 1.390 . S
C492 C493 1.366 . S
C493 H451 0.932 . S
C493 C488 1.360 . S
C493 C492 1.366 . S
C494 C468 1.490 . S
C494 C495 1.380 . S
C494 C499 1.386 . S
C495 H452 0.930 . S
C495 C494 1.380 . S
C495 C496 1.381 . S
C496 H453 0.929 . S
C496 C495 1.381 . S
C496 C497 1.371 . S
C497 C496 1.371 . S
C497 C498 1.380 . S
C498 H454 0.931 . S
C498 C497 1.380 . S
C498 C499 1.387 . S
C499 H455 0.930 . S
C499 C494 1.386 . S
C499 C498 1.387 . S
C500 C469 1.519 . S
C500 C501 1.377 . S
C500 C505 1.361 . S
C501 H456 0.929 . S
C501 C500 1.377 . S
C501 C502 1.386 . S
C502 H457 0.931 . S
C502 C501 1.386 . S
C502 C503 1.363 . S
C503 C502 1.363 . S
C503 C504 1.385 . S
C504 H458 0.930 . S
C504 C503 1.385 . S
C504 C505 1.396 . S
C505 H459 0.929 . S
C505 C500 1.361 . S
C505 C504 1.396 . S
C506 O460 1.300 . S
C506 O461 1.209 . S
C506 C479 1.486 . S
C507 O462 1.199 . S
C507 O463 1.297 . S
C507 C491 1.476 . S
H508 O534 0.856 . S
H509 O537 0.854 . S
H510 C545 0.930 . S
H511 C546 0.930 . S
H512 C548 0.930 . S
H513 C549 0.930 . S
H514 C551 0.931 . S
H515 C552 0.930 . S
H516 C554 0.930 . S
H517 C555 0.929 . S
H518 C557 0.930 . S
H519 C558 0.931 . S
H520 C560 0.930 . S
H521 C561 0.929 . S
H522 C563 0.931 . S
H523 C564 0.930 . S
H524 C566 0.930 . S
H525 C567 0.932 . S
H526 C569 0.930 . S
H527 C570 0.929 . S
H528 C572 0.931 . S
H529 C573 0.930 . S
H530 C575 0.929 . S
H531 C576 0.931 . S
H532 C578 0.930 . S
H533 C579 0.929 . S
O534 H508 0.856 . S
O534 C580 1.300 . S
O535 C580 1.209 . S
O536 C581 1.199 . S
O537 H509 0.854 . S
O537 C581 1.297 . S
C538 C539 1.404 . S
C538 C543 1.397 . S
C538 C544 1.492 . S
C539 C538 1.404 . S
C539 C540 1.396 . S
C539 C550 1.492 . S
C540 C539 1.396 . S
C540 C541 1.397 . S
C540 C556 1.509 . S
C541 C540 1.397 . S
C541 C542 1.412 . S
C541 C562 1.485 . S
C542 C541 1.412 . S
C542 C543 1.388 . S
C542 C568 1.490 . S
C543 C538 1.397 . S
C543 C542 1.388 . S
C543 C574 1.519 . S
C544 C538 1.492 . S
C544 C545 1.363 . S
C544 C549 1.390 . S
C545 H510 0.930 . S
C545 C544 1.363 . S
C545 C546 1.372 . S
C546 H511 0.930 . S
C546 C545 1.372 . S
C546 C547 1.383 . S
C547 C546 1.383 . S
C547 C548 1.395 . S
C548 H512 0.930 . S
C548 C547 1.395 . S
C548 C549 1.362 . S
C549 H513 0.930 . S
C549 C544 1.390 . S
C549 C548 1.362 . S
C550 C539 1.492 . S
C550 C551 1.377 . S
C550 C555 1.397 . S
C551 H514 0.931 . S
C551 C550 1.377 . S
C551 C552 1.376 . S
C552 H515 0.930 . S
C552 C551 1.376 . S
C552 C553 1.376 . S
C553 C552 1.376 . S
C553 C554 1.378 . S
C553 C580 1.486 . S
C554 H516 0.930 . S
C554 C553 1.378 . S
C554 C555 1.376 . S
C555 H517 0.929 . S
C555 C550 1.397 . S
C555 C554 1.376 . S
C556 C540 1.509 . S
C556 C557 1.391 . S
C556 C561 1.386 . S
C557 H518 0.930 . S
C557 C556 1.391 . S
C557 C558 1.375 . S
C558 H519 0.931 . S
C558 C557 1.375 . S
C558 C559 1.375 . S
C559 C558 1.375 . S
C559 C560 1.361 . S
C560 H520 0.930 . S
C560 C559 1.361 . S
C560 C561 1.399 . S
C561 H521 0.929 . S
C561 C556 1.386 . S
C561 C560 1.399 . S
C562 C541 1.485 . S
C562 C563 1.394 . S
C562 C567 1.360 . S
C563 H522 0.931 . S
C563 C562 1.394 . S
C563 C564 1.372 . S
C564 H523 0.930 . S
C564 C563 1.372 . S
C564 C565 1.397 . S
C565 C564 1.397 . S
C565 C566 1.390 . S
C565 C581 1.476 . S
C566 H524 0.930 . S
C566 C565 1.390 . S
C566 C567 1.366 . S
C567 H525 0.932 . S
C567 C562 1.360 . S
C567 C566 1.366 . S
C568 C542 1.490 . S
C568 C569 1.380 . S
C568 C573 1.386 . S
C569 H526 0.930 . S
C569 C568 1.380 . S
C569 C570 1.381 . S
C570 H527 0.929 . S
C570 C569 1.381 . S
C570 C571 1.371 . S
C571 C570 1.371 . S
C571 C572 1.380 . S
C572 H528 0.931 . S
C572 C571 1.380 . S
C572 C573 1.387 . S
C573 H529 0.930 . S
C573 C568 1.386 . S
C573 C572 1.387 . S
C574 C543 1.519 . S
C574 C575 1.377 . S
C574 C579 1.361 . S
C575 H530 0.929 . S
C575 C574 1.377 . S
C575 C576 1.386 . S
C576 H531 0.931 . S
C576 C575 1.386 . S
C576 C577 1.363 . S
C577 C576 1.363 . S
C577 C578 1.385 . S
C578 H532 0.930 . S
C578 C577 1.385 . S
C578 C579 1.396 . S
C579 H533 0.929 . S
C579 C574 1.361 . S
C579 C578 1.396 . S
C580 O534 1.300 . S
C580 O535 1.209 . S
C580 C553 1.486 . S
C581 O536 1.199 . S
C581 O537 1.297 . S
C581 C565 1.476 . S
C582 C583 1.349 . S
C582 C584 1.327 . S
C582 H607 0.950 . S
C583 C582 1.349 . S
C583 C599 1.349 . S
C584 C582 1.327 . S
C584 C603 1.429 . S
C584 H608 0.950 . S
C585 C602 1.574 . S
C585 C604 1.368 . S
C585 H609 0.949 . S
H586 C590 0.949 . S
C587 C588 1.349 . S
C587 C589 1.327 . S
C587 H610 0.950 . S
C588 C587 1.349 . S
C588 C600 1.349 . S
C589 C587 1.327 . S
C589 C605 1.429 . S
C589 H611 0.950 . S
C590 H586 0.949 . S
C590 C598 1.574 . S
C590 C606 1.368 . S
H591 C599 0.950 . S
H592 C597 0.950 . S
H593 C598 0.949 . S
H594 C600 0.950 . S
H595 C601 0.950 . S
H596 C602 0.949 . S
C597 H592 0.950 . S
C597 C599 1.327 . S
C597 C603 1.429 . S
C598 C590 1.574 . S
C598 H593 0.949 . S
C598 C604 1.368 . S
C599 C583 1.349 . S
C599 H591 0.950 . S
C599 C597 1.327 . S
C600 C588 1.349 . S
C600 H594 0.950 . S
C600 C601 1.327 . S
C601 H595 0.950 . S
C601 C600 1.327 . S
C601 C605 1.429 . S
C602 C585 1.574 . S
C602 H596 0.949 . S
C602 C606 1.368 . S
C603 C584 1.429 . S
C603 C597 1.429 . S
C603 C604 1.523 . S
C604 C585 1.368 . S
C604 C598 1.368 . S
C604 C603 1.523 . S
C605 C589 1.429 . S
C605 C601 1.429 . S
C605 C606 1.523 . S
C606 C590 1.368 . S
C606 C602 1.368 . S
C606 C605 1.523 . S
H607 C582 0.950 . S
H608 C584 0.950 . S
H609 C585 0.949 . S
H610 C587 0.950 . S
H611 C589 0.950 . S
C612 C613 1.349 . S
C612 C614 1.327 . S
C612 H637 0.950 . S
C613 C612 1.349 . S
C613 C629 1.349 . S
C614 C612 1.327 . S
C614 C633 1.429 . S
C614 H638 0.950 . S
C615 C632 1.574 . S
C615 C634 1.368 . S
C615 H639 0.949 . S
H616 C620 0.949 . S
C617 C618 1.349 . S
C617 C619 1.327 . S
C617 H640 0.950 . S
C618 C617 1.349 . S
C618 C630 1.349 . S
C619 C617 1.327 . S
C619 C635 1.429 . S
C619 H641 0.950 . S
C620 H616 0.949 . S
C620 C628 1.574 . S
C620 C636 1.368 . S
H621 C629 0.950 . S
H622 C627 0.950 . S
H623 C628 0.949 . S
H624 C630 0.950 . S
H625 C631 0.950 . S
H626 C632 0.949 . S
C627 H622 0.950 . S
C627 C629 1.327 . S
C627 C633 1.429 . S
C628 C620 1.574 . S
C628 H623 0.949 . S
C628 C634 1.368 . S
C629 C613 1.349 . S
C629 H621 0.950 . S
C629 C627 1.327 . S
C630 C618 1.349 . S
C630 H624 0.950 . S
C630 C631 1.327 . S
C631 H625 0.950 . S
C631 C630 1.327 . S
C631 C635 1.429 . S
C632 C615 1.574 . S
C632 H626 0.949 . S
C632 C636 1.368 . S
C633 C614 1.429 . S
C633 C627 1.429 . S
C633 C634 1.523 . S
C634 C615 1.368 . S
C634 C628 1.368 . S
C634 C633 1.523 . S
C635 C619 1.429 . S
C635 C631 1.429 . S
C635 C636 1.523 . S
C636 C620 1.368 . S
C636 C632 1.368 . S
C636 C635 1.523 . S
H637 C612 0.950 . S
H638 C614 0.950 . S
H639 C615 0.949 . S
H640 C617 0.950 . S
H641 C619 0.950 . S
C642 C643 1.349 . S
C642 C644 1.327 . S
C642 H667 0.950 . S
C643 C642 1.349 . S
C643 C659 1.349 . S
C644 C642 1.327 . S
C644 C663 1.429 . S
C644 H668 0.950 . S
C645 C662 1.574 . S
C645 C664 1.368 . S
C645 H669 0.949 . S
H646 C650 0.949 . S
C647 C648 1.349 . S
C647 C649 1.327 . S
C647 H670 0.950 . S
C648 C647 1.349 . S
C648 C660 1.349 . S
C649 C647 1.327 . S
C649 C665 1.429 . S
C649 H671 0.950 . S
C650 H646 0.949 . S
C650 C658 1.574 . S
C650 C666 1.368 . S
H651 C659 0.950 . S
H652 C657 0.950 . S
H653 C658 0.949 . S
H654 C660 0.950 . S
H655 C661 0.950 . S
H656 C662 0.949 . S
C657 H652 0.950 . S
C657 C659 1.327 . S
C657 C663 1.429 . S
C658 C650 1.574 . S
C658 H653 0.949 . S
C658 C664 1.368 . S
C659 C643 1.349 . S
C659 H651 0.950 . S
C659 C657 1.327 . S
C660 C648 1.349 . S
C660 H654 0.950 . S
C660 C661 1.327 . S
C661 H655 0.950 . S
C661 C660 1.327 . S
C661 C665 1.429 . S
C662 C645 1.574 . S
C662 H656 0.949 . S
C662 C666 1.368 . S
C663 C644 1.429 . S
C663 C657 1.429 . S
C663 C664 1.523 . S
C664 C645 1.368 . S
C664 C658 1.368 . S
C664 C663 1.523 . S
C665 C649 1.429 . S
C665 C661 1.429 . S
C665 C666 1.523 . S
C666 C650 1.368 . S
C666 C662 1.368 . S
C666 C665 1.523 . S
H667 C642 0.950 . S
H668 C644 0.950 . S
H669 C645 0.949 . S
H670 C647 0.950 . S
H671 C649 0.950 . S
C672 C673 1.349 . S
C672 C674 1.327 . S
C672 H697 0.950 . S
C673 C672 1.349 . S
C673 C689 1.349 . S
C674 C672 1.327 . S
C674 C693 1.429 . S
C674 H698 0.950 . S
C675 C692 1.574 . S
C675 C694 1.368 . S
C675 H699 0.949 . S
H676 C680 0.949 . S
C677 C678 1.349 . S
C677 C679 1.327 . S
C677 H700 0.950 . S
C678 C677 1.349 . S
C678 C690 1.349 . S
C679 C677 1.327 . S
C679 C695 1.429 . S
C679 H701 0.950 . S
C680 H676 0.949 . S
C680 C688 1.574 . S
C680 C696 1.368 . S
H681 C689 0.950 . S
H682 C687 0.950 . S
H683 C688 0.949 . S
H684 C690 0.950 . S
H685 C691 0.950 . S
H686 C692 0.949 . S
C687 H682 0.950 . S
C687 C689 1.327 . S
C687 C693 1.429 . S
C688 C680 1.574 . S
C688 H683 0.949 . S
C688 C694 1.368 . S
C689 C673 1.349 . S
C689 H681 0.950 . S
C689 C687 1.327 . S
C690 C678 1.349 . S
C690 H684 0.950 . S
C690 C691 1.327 . S
C691 H685 0.950 . S
C691 C690 1.327 . S
C691 C695 1.429 . S
C692 C675 1.574 . S
C692 H686 0.949 . S
C692 C696 1.368 . S
C693 C674 1.429 . S
C693 C687 1.429 . S
C693 C694 1.523 . S
C694 C675 1.368 . S
C694 C688 1.368 . S
C694 C693 1.523 . S
C695 C679 1.429 . S
C695 C691 1.429 . S
C695 C696 1.523 . S
C696 C680 1.368 . S
C696 C692 1.368 . S
C696 C695 1.523 . S
H697 C672 0.950 . S
H698 C674 0.950 . S
H699 C675 0.949 . S
H700 C677 0.950 . S
H701 C679 0.950 . S
C702 C703 1.349 1_565 S
C702 C704 1.327 . S
C702 H727 0.950 . S
C703 C702 1.349 1_545 S
C703 C719 1.349 . S
C704 C702 1.327 . S
C704 C723 1.429 . S
C704 H728 0.950 . S
C705 C722 1.574 . S
C705 C724 1.368 . S
C705 H729 0.949 . S
H706 C710 0.949 . S
C707 C708 1.349 . S
C707 C709 1.327 . S
C707 H730 0.950 . S
C708 C707 1.349 . S
C708 C720 1.349 . S
C709 C707 1.327 . S
C709 C725 1.429 . S
C709 H731 0.950 . S
C710 H706 0.949 . S
C710 C718 1.574 . S
C710 C726 1.368 . S
H711 C719 0.950 . S
H712 C717 0.950 . S
H713 C718 0.949 . S
H714 C720 0.950 . S
H715 C721 0.950 . S
H716 C722 0.949 . S
C717 H712 0.950 . S
C717 C719 1.327 . S
C717 C723 1.429 1_545 S
C718 C710 1.574 . S
C718 H713 0.949 . S
C718 C724 1.368 . S
C719 C703 1.349 . S
C719 H711 0.950 . S
C719 C717 1.327 . S
C720 C708 1.349 . S
C720 H714 0.950 . S
C720 C721 1.327 . S
C721 H715 0.950 . S
C721 C720 1.327 . S
C721 C725 1.429 . S
C722 C705 1.574 . S
C722 H716 0.949 . S
C722 C726 1.368 . S
C723 C704 1.429 . S
C723 C717 1.429 1_565 S
C723 C724 1.523 . S
C724 C705 1.368 . S
C724 C718 1.368 . S
C724 C723 1.523 . S
C725 C709 1.429 . S
C725 C721 1.429 . S
C725 C726 1.523 . S
C726 C710 1.368 . S
C726 C722 1.368 . S
C726 C725 1.523 . S
H727 C702 0.950 . S
H728 C704 0.950 . S
H729 C705 0.949 . S
H730 C707 0.950 . S
H731 C709 0.950 . S
C732 C733 1.349 . S
C732 C734 1.327 . S
C732 H757 0.950 . S
C733 C732 1.349 . S
C733 C749 1.349 . S
C734 C732 1.327 . S
C734 C753 1.429 . S
C734 H758 0.950 . S
C735 C752 1.574 . S
C735 C754 1.368 . S
C735 H759 0.949 . S
H736 C740 0.949 . S
C737 C738 1.349 . S
C737 C739 1.327 . S
C737 H760 0.950 . S
C738 C737 1.349 . S
C738 C750 1.349 . S
C739 C737 1.327 . S
C739 C755 1.429 . S
C739 H761 0.950 . S
C740 H736 0.949 . S
C740 C748 1.574 . S
C740 C756 1.368 . S
H741 C749 0.950 . S
H742 C747 0.950 . S
H743 C748 0.949 . S
H744 C750 0.950 . S
H745 C751 0.950 . S
H746 C752 0.949 . S
C747 H742 0.950 . S
C747 C749 1.327 . S
C747 C753 1.429 . S
C748 C740 1.574 . S
C748 H743 0.949 . S
C748 C754 1.368 . S
C749 C733 1.349 . S
C749 H741 0.950 . S
C749 C747 1.327 . S
C750 C738 1.349 . S
C750 H744 0.950 . S
C750 C751 1.327 . S
C751 H745 0.950 . S
C751 C750 1.327 . S
C751 C755 1.429 . S
C752 C735 1.574 . S
C752 H746 0.949 . S
C752 C756 1.368 . S
C753 C734 1.429 . S
C753 C747 1.429 . S
C753 C754 1.523 . S
C754 C735 1.368 . S
C754 C748 1.368 . S
C754 C753 1.523 . S
C755 C739 1.429 . S
C755 C751 1.429 . S
C755 C756 1.523 . S
C756 C740 1.368 . S
C756 C752 1.368 . S
C756 C755 1.523 . S
H757 C732 0.950 . S
H758 C734 0.950 . S
H759 C735 0.949 . S
H760 C737 0.950 . S
H761 C739 0.950 . S
C762 C763 1.349 . S
C762 C764 1.327 . S
C762 H787 0.950 . S
C763 C762 1.349 . S
C763 C779 1.349 . S
C764 C762 1.327 . S
C764 C783 1.429 . S
C764 H788 0.950 . S
C765 C782 1.574 . S
C765 C784 1.368 . S
C765 H789 0.949 . S
H766 C770 0.949 . S
C767 C768 1.349 . S
C767 C769 1.327 . S
C767 H790 0.950 . S
C768 C767 1.349 . S
C768 C780 1.349 . S
C769 C767 1.327 . S
C769 C785 1.429 . S
C769 H791 0.950 . S
C770 H766 0.949 . S
C770 C778 1.574 . S
C770 C786 1.368 . S
H771 C779 0.950 . S
H772 C777 0.950 . S
H773 C778 0.949 . S
H774 C780 0.950 . S
H775 C781 0.950 . S
H776 C782 0.949 . S
C777 H772 0.950 . S
C777 C779 1.327 . S
C777 C783 1.429 . S
C778 C770 1.574 . S
C778 H773 0.949 . S
C778 C784 1.368 . S
C779 C763 1.349 . S
C779 H771 0.950 . S
C779 C777 1.327 . S
C780 C768 1.349 . S
C780 H774 0.950 . S
C780 C781 1.327 . S
C781 H775 0.950 . S
C781 C780 1.327 . S
C781 C785 1.429 . S
C782 C765 1.574 . S
C782 H776 0.949 . S
C782 C786 1.368 . S
C783 C764 1.429 . S
C783 C777 1.429 . S
C783 C784 1.523 . S
C784 C765 1.368 . S
C784 C778 1.368 . S
C784 C783 1.523 . S
C785 C769 1.429 . S
C785 C781 1.429 . S
C785 C786 1.523 . S
C786 C770 1.368 . S
C786 C782 1.368 . S
C786 C785 1.523 . S
H787 C762 0.950 . S
H788 C764 0.950 . S
H789 C765 0.949 . S
H790 C767 0.950 . S
H791 C769 0.950 . S
C792 C793 1.349 . S
C792 C794 1.327 . S
C792 H817 0.950 . S
C793 C792 1.349 . S
C793 C809 1.349 . S
C794 C792 1.327 . S
C794 C813 1.429 . S
C794 H818 0.950 . S
C795 C812 1.574 . S
C795 C814 1.368 . S
C795 H819 0.949 . S
H796 C800 0.949 . S
C797 C798 1.349 . S
C797 C799 1.327 . S
C797 H820 0.950 . S
C798 C797 1.349 . S
C798 C810 1.349 . S
C799 C797 1.327 . S
C799 C815 1.429 . S
C799 H821 0.950 . S
C800 H796 0.949 . S
C800 C808 1.574 . S
C800 C816 1.368 . S
H801 C809 0.950 . S
H802 C807 0.950 1_556 S
H803 C808 0.949 1_554 S
H804 C810 0.950 . S
H805 C811 0.950 . S
H806 C812 0.949 . S
C807 H802 0.950 1_554 S
C807 C809 1.327 . S
C807 C813 1.429 . S
C808 C800 1.574 . S
C808 H803 0.949 1_556 S
C808 C814 1.368 . S
C809 C793 1.349 . S
C809 H801 0.950 . S
C809 C807 1.327 . S
C810 C798 1.349 . S
C810 H804 0.950 . S
C810 C811 1.327 . S
C811 H805 0.950 . S
C811 C810 1.327 . S
C811 C815 1.429 . S
C812 C795 1.574 . S
C812 H806 0.949 . S
C812 C816 1.368 . S
C813 C794 1.429 . S
C813 C807 1.429 . S
C813 C814 1.523 1_554 S
C814 C795 1.368 . S
C814 C808 1.368 . S
C814 C813 1.523 1_556 S
C815 C799 1.429 . S
C815 C811 1.429 . S
C815 C816 1.523 . S
C816 C800 1.368 . S
C816 C812 1.368 . S
C816 C815 1.523 . S
H817 C792 0.950 . S
H818 C794 0.950 . S
H819 C795 0.949 . S
H820 C797 0.950 . S
H821 C799 0.950 . S
C822 C823 1.349 . S
C822 C824 1.327 . S
C822 H847 0.950 . S
C823 C822 1.349 . S
C823 C839 1.349 . S
C824 C822 1.327 . S
C824 C843 1.429 . S
C824 H848 0.950 . S
C825 C842 1.574 . S
C825 C844 1.368 . S
C825 H849 0.949 . S
H826 C830 0.949 . S
C827 C828 1.349 . S
C827 C829 1.327 . S
C827 H850 0.950 . S
C828 C827 1.349 . S
C828 C840 1.349 . S
C829 C827 1.327 . S
C829 C845 1.429 . S
C829 H851 0.950 . S
C830 H826 0.949 . S
C830 C838 1.574 . S
C830 C846 1.368 . S
H831 C839 0.950 . S
H832 C837 0.950 . S
H833 C838 0.949 . S
H834 C840 0.950 . S
H835 C841 0.950 . S
H836 C842 0.949 . S
C837 H832 0.950 . S
C837 C839 1.327 . S
C837 C843 1.429 . S
C838 C830 1.574 . S
C838 H833 0.949 . S
C838 C844 1.368 . S
C839 C823 1.349 . S
C839 H831 0.950 . S
C839 C837 1.327 . S
C840 C828 1.349 . S
C840 H834 0.950 . S
C840 C841 1.327 . S
C841 H835 0.950 . S
C841 C840 1.327 . S
C841 C845 1.429 . S
C842 C825 1.574 . S
C842 H836 0.949 . S
C842 C846 1.368 . S
C843 C824 1.429 . S
C843 C837 1.429 . S
C843 C844 1.523 . S
C844 C825 1.368 . S
C844 C838 1.368 . S
C844 C843 1.523 . S
C845 C829 1.429 . S
C845 C841 1.429 . S
C845 C846 1.523 . S
C846 C830 1.368 . S
C846 C842 1.368 . S
C846 C845 1.523 . S
H847 C822 0.950 . S
H848 C824 0.950 . S
H849 C825 0.949 . S
H850 C827 0.950 . S
H851 C829 0.950 . S
C852 C853 1.349 . S
C852 C854 1.327 . S
C852 H877 0.950 . S
C853 C852 1.349 . S
C853 C869 1.349 . S
C854 C852 1.327 . S
C854 C873 1.429 . S
C854 H878 0.950 . S
C855 C872 1.574 . S
C855 C874 1.368 . S
C855 H879 0.949 . S
H856 C860 0.949 . S
C857 C858 1.349 . S
C857 C859 1.327 . S
C857 H880 0.950 . S
C858 C857 1.349 . S
C858 C870 1.349 . S
C859 C857 1.327 . S
C859 C875 1.429 . S
C859 H881 0.950 . S
C860 H856 0.949 . S
C860 C868 1.574 . S
C860 C876 1.368 . S
H861 C869 0.950 . S
H862 C867 0.950 1_556 S
H863 C868 0.949 1_554 S
H864 C870 0.950 . S
H865 C871 0.950 . S
H866 C872 0.949 . S
C867 H862 0.950 1_554 S
C867 C869 1.327 . S
C867 C873 1.429 . S
C868 C860 1.574 . S
C868 H863 0.949 1_556 S
C868 C874 1.368 . S
C869 C853 1.349 . S
C869 H861 0.950 . S
C869 C867 1.327 . S
C870 C858 1.349 . S
C870 H864 0.950 . S
C870 C871 1.327 . S
C871 H865 0.950 . S
C871 C870 1.327 . S
C871 C875 1.429 . S
C872 C855 1.574 . S
C872 H866 0.949 . S
C872 C876 1.368 . S
C873 C854 1.429 . S
C873 C867 1.429 . S
C873 C874 1.523 1_554 S
C874 C855 1.368 . S
C874 C868 1.368 . S
C874 C873 1.523 1_556 S
C875 C859 1.429 . S
C875 C871 1.429 . S
C875 C876 1.523 . S
C876 C860 1.368 . S
C876 C872 1.368 . S
C876 C875 1.523 . S
H877 C852 0.950 . S
H878 C854 0.950 . S
H879 C855 0.949 . S
H880 C857 0.950 . S
H881 C859 0.950 . S
C882 C883 1.349 . S
C882 C884 1.327 . S
C882 H907 0.950 . S
C883 C882 1.349 . S
C883 C899 1.349 . S
C884 C882 1.327 . S
C884 C903 1.429 . S
C884 H908 0.950 . S
C885 C902 1.574 . S
C885 C904 1.368 . S
C885 H909 0.949 . S
H886 C890 0.949 . S
C887 C888 1.349 . S
C887 C889 1.327 . S
C887 H910 0.950 . S
C888 C887 1.349 . S
C888 C900 1.349 . S
C889 C887 1.327 . S
C889 C905 1.429 . S
C889 H911 0.950 . S
C890 H886 0.949 . S
C890 C898 1.574 . S
C890 C906 1.368 . S
H891 C899 0.950 . S
H892 C897 0.950 . S
H893 C898 0.949 . S
H894 C900 0.950 . S
H895 C901 0.950 . S
H896 C902 0.949 . S
C897 H892 0.950 . S
C897 C899 1.327 . S
C897 C903 1.429 . S
C898 C890 1.574 . S
C898 H893 0.949 . S
C898 C904 1.368 . S
C899 C883 1.349 . S
C899 H891 0.950 . S
C899 C897 1.327 . S
C900 C888 1.349 . S
C900 H894 0.950 . S
C900 C901 1.327 . S
C901 H895 0.950 . S
C901 C900 1.327 . S
C901 C905 1.429 . S
C902 C885 1.574 . S
C902 H896 0.949 . S
C902 C906 1.368 . S
C903 C884 1.429 . S
C903 C897 1.429 . S
C903 C904 1.523 . S
C904 C885 1.368 . S
C904 C898 1.368 . S
C904 C903 1.523 . S
C905 C889 1.429 . S
C905 C901 1.429 . S
C905 C906 1.523 . S
C906 C890 1.368 . S
C906 C902 1.368 . S
C906 C905 1.523 . S
H907 C882 0.950 . S
H908 C884 0.950 . S
H909 C885 0.949 . S
H910 C887 0.950 . S
H911 C889 0.950 . S
C912 C913 1.349 . S
C912 C914 1.327 . S
C912 H937 0.950 . S
C913 C912 1.349 . S
C913 C929 1.349 . S
C914 C912 1.327 . S
C914 C933 1.429 . S
C914 H938 0.950 . S
C915 C932 1.574 . S
C915 C934 1.368 . S
C915 H939 0.949 . S
H916 C920 0.949 . S
C917 C918 1.349 1_455 S
C917 C919 1.327 . S
C917 H940 0.950 . S
C918 C917 1.349 1_655 S
C918 C930 1.349 . S
C919 C917 1.327 . S
C919 C935 1.429 . S
C919 H941 0.950 . S
C920 H916 0.949 . S
C920 C928 1.574 . S
C920 C936 1.368 . S
H921 C929 0.950 . S
H922 C927 0.950 . S
H923 C928 0.949 . S
H924 C930 0.950 . S
H925 C931 0.950 . S
H926 C932 0.949 . S
C927 H922 0.950 . S
C927 C929 1.327 . S
C927 C933 1.429 . S
C928 C920 1.574 . S
C928 H923 0.949 . S
C928 C934 1.368 . S
C929 C913 1.349 . S
C929 H921 0.950 . S
C929 C927 1.327 . S
C930 C918 1.349 . S
C930 H924 0.950 . S
C930 C931 1.327 . S
C931 H925 0.950 . S
C931 C930 1.327 . S
C931 C935 1.429 1_655 S
C932 C915 1.574 . S
C932 H926 0.949 . S
C932 C936 1.368 . S
C933 C914 1.429 . S
C933 C927 1.429 . S
C933 C934 1.523 . S
C934 C915 1.368 . S
C934 C928 1.368 . S
C934 C933 1.523 . S
C935 C919 1.429 . S
C935 C931 1.429 1_455 S
C935 C936 1.523 . S
C936 C920 1.368 . S
C936 C932 1.368 . S
C936 C935 1.523 . S
H937 C912 0.950 . S
H938 C914 0.950 . S
H939 C915 0.949 . S
H940 C917 0.950 . S
H941 C919 0.950 . S
C942 C943 1.349 . S
C942 C944 1.327 . S
C942 H967 0.950 . S
C943 C942 1.349 . S
C943 C959 1.349 . S
C944 C942 1.327 . S
C944 C963 1.429 . S
C944 H968 0.950 . S
C945 C962 1.574 . S
C945 C964 1.368 . S
C945 H969 0.949 . S
H946 C950 0.949 . S
C947 C948 1.349 . S
C947 C949 1.327 . S
C947 H970 0.950 . S
C948 C947 1.349 . S
C948 C960 1.340 1_655 S
C949 C947 1.327 . S
C949 C965 1.429 1_655 S
C949 H971 0.950 . S
C950 H946 0.949 . S
C950 C958 1.574 . S
C950 C966 1.368 . S
H951 C959 0.950 . S
H952 C957 0.950 . S
H953 C958 0.949 . S
H954 C960 0.947 . S
H955 C961 0.950 . S
H956 C962 0.949 . S
C957 H952 0.950 . S
C957 C959 1.327 . S
C957 C963 1.429 . S
C958 C950 1.574 . S
C958 H953 0.949 . S
C958 C964 1.368 . S
C959 C943 1.349 . S
C959 H951 0.950 . S
C959 C957 1.327 . S
C960 C948 1.340 1_455 S
C960 H954 0.947 . S
C960 C961 1.338 . S
C961 H955 0.950 . S
C961 C960 1.338 . S
C961 C965 1.429 . S
C962 C945 1.574 . S
C962 H956 0.949 . S
C962 C966 1.368 . S
C963 C944 1.429 . S
C963 C957 1.429 . S
C963 C964 1.523 . S
C964 C945 1.368 . S
C964 C958 1.368 . S
C964 C963 1.523 . S
C965 C949 1.429 1_455 S
C965 C961 1.429 . S
C965 C966 1.523 . S
C966 C950 1.368 . S
C966 C962 1.368 . S
C966 C965 1.523 . S
H967 C942 0.950 . S
H968 C944 0.950 . S
H969 C945 0.949 . S
H970 C947 0.950 . S
H971 C949 0.950 . S
C972 C973 1.349 . S
C972 C974 1.327 . S
C972 H997 0.950 . S
C973 C972 1.349 . S
C973 C989 1.349 . S
C974 C972 1.327 . S
C974 C993 1.429 . S
C974 H998 0.950 . S
C975 C992 1.574 . S
C975 C994 1.368 . S
C975 H999 0.949 . S
H976 C980 0.949 . S
C977 C978 1.349 . S
C977 C979 1.327 . S
C977 H1000 0.950 . S
C978 C977 1.349 . S
C978 C990 1.349 . S
C979 C977 1.327 . S
C979 C995 1.429 . S
C979 H1001 0.950 . S
C980 H976 0.949 . S
C980 C988 1.574 . S
C980 C996 1.368 . S
H981 C989 0.950 . S
H982 C987 0.950 . S
H983 C988 0.949 . S
H984 C990 0.950 . S
H985 C991 0.950 . S
H986 C992 0.949 . S
C987 H982 0.950 . S
C987 C989 1.327 . S
C987 C993 1.429 . S
C988 C980 1.574 . S
C988 H983 0.949 . S
C988 C994 1.368 . S
C989 C973 1.349 . S
C989 H981 0.950 . S
C989 C987 1.327 . S
C990 C978 1.349 . S
C990 H984 0.950 . S
C990 C991 1.327 . S
C991 H985 0.950 . S
C991 C990 1.327 . S
C991 C995 1.429 . S
C992 C975 1.574 . S
C992 H986 0.949 . S
C992 C996 1.368 . S
C993 C974 1.429 . S
C993 C987 1.429 . S
C993 C994 1.523 . S
C994 C975 1.368 . S
C994 C988 1.368 . S
C994 C993 1.523 . S
C995 C979 1.429 . S
C995 C991 1.429 . S
C995 C996 1.523 . S
C996 C980 1.368 . S
C996 C992 1.368 . S
C996 C995 1.523 . S
H997 C972 0.950 . S
H998 C974 0.950 . S
H999 C975 0.949 . S
H1000 C977 0.950 . S
H1001 C979 0.950 . S
C1002 C1003 1.349 . S
C1002 C1004 1.327 . S
C1002 H1027 0.950 . S
C1003 C1002 1.349 . S
C1003 C1019 1.349 . S
C1004 C1002 1.327 . S
C1004 C1023 1.429 1_554 S
C1004 H1028 0.950 . S
C1005 C1022 1.574 . S
C1005 C1024 1.368 . S
C1005 H1029 0.949 . S
H1006 C1010 0.949 . S
C1007 C1008 1.349 . S
C1007 C1009 1.327 . S
C1007 H1030 0.950 . S
C1008 C1007 1.349 . S
C1008 C1020 1.349 . S
C1009 C1007 1.327 . S
C1009 C1025 1.429 . S
C1009 H1031 0.950 . S
C1010 H1006 0.949 . S
C1010 C1018 1.574 . S
C1010 C1026 1.368 . S
H1011 C1019 0.950 . S
H1012 C1017 0.950 . S
H1013 C1018 0.949 . S
H1014 C1020 0.950 . S
H1015 C1021 0.950 . S
H1016 C1022 0.949 . S
C1017 H1012 0.950 . S
C1017 C1019 1.327 1_556 S
C1017 C1023 1.429 . S
C1018 C1010 1.574 . S
C1018 H1013 0.949 . S
C1018 C1024 1.368 . S
C1019 C1003 1.349 . S
C1019 H1011 0.950 . S
C1019 C1017 1.327 1_554 S
C1020 C1008 1.349 . S
C1020 H1014 0.950 . S
C1020 C1021 1.327 . S
C1021 H1015 0.950 . S
C1021 C1020 1.327 . S
C1021 C1025 1.429 . S
C1022 C1005 1.574 . S
C1022 H1016 0.949 . S
C1022 C1026 1.368 . S
C1023 C1004 1.429 1_556 S
C1023 C1017 1.429 . S
C1023 C1024 1.523 . S
C1024 C1005 1.368 . S
C1024 C1018 1.368 . S
C1024 C1023 1.523 . S
C1025 C1009 1.429 . S
C1025 C1021 1.429 . S
C1025 C1026 1.523 . S
C1026 C1010 1.368 . S
C1026 C1022 1.368 . S
C1026 C1025 1.523 . S
H1027 C1002 0.950 . S
H1028 C1004 0.950 . S
H1029 C1005 0.949 . S
H1030 C1007 0.950 . S
H1031 C1009 0.950 . S
C1032 C1033 1.349 . S
C1032 C1034 1.327 . S
C1032 H1057 0.950 . S
C1033 C1032 1.349 . S
C1033 C1049 1.349 . S
C1034 C1032 1.327 . S
C1034 C1053 1.429 . S
C1034 H1058 0.950 . S
C1035 C1052 1.574 . S
C1035 C1054 1.368 . S
C1035 H1059 0.949 . S
H1036 C1040 0.949 . S
C1037 C1038 1.349 . S
C1037 C1039 1.327 . S
C1037 H1060 0.950 . S
C1038 C1037 1.349 . S
C1038 C1050 1.349 . S
C1039 C1037 1.327 . S
C1039 C1055 1.429 . S
C1039 H1061 0.950 . S
C1040 H1036 0.949 . S
C1040 C1048 1.574 . S
C1040 C1056 1.368 . S
H1041 C1049 0.950 . S
H1042 C1047 0.950 . S
H1043 C1048 0.949 . S
H1044 C1050 0.950 . S
H1045 C1051 0.950 . S
H1046 C1052 0.949 . S
C1047 H1042 0.950 . S
C1047 C1049 1.327 . S
C1047 C1053 1.429 . S
C1048 C1040 1.574 . S
C1048 H1043 0.949 . S
C1048 C1054 1.368 . S
C1049 C1033 1.349 . S
C1049 H1041 0.950 . S
C1049 C1047 1.327 . S
C1050 C1038 1.349 . S
C1050 H1044 0.950 . S
C1050 C1051 1.327 . S
C1051 H1045 0.950 . S
C1051 C1050 1.327 . S
C1051 C1055 1.429 . S
C1052 C1035 1.574 . S
C1052 H1046 0.949 . S
C1052 C1056 1.368 . S
C1053 C1034 1.429 . S
C1053 C1047 1.429 . S
C1053 C1054 1.523 . S
C1054 C1035 1.368 . S
C1054 C1048 1.368 . S
C1054 C1053 1.523 . S
C1055 C1039 1.429 . S
C1055 C1051 1.429 . S
C1055 C1056 1.523 . S
C1056 C1040 1.368 . S
C1056 C1052 1.368 . S
C1056 C1055 1.523 . S
H1057 C1032 0.950 . S
H1058 C1034 0.950 . S
H1059 C1035 0.949 . S
H1060 C1037 0.950 . S
H1061 C1039 0.950 . S
C1062 C1063 1.349 . S
C1062 C1064 1.327 . S
C1062 H1087 0.950 . S
C1063 C1062 1.349 . S
C1063 C1079 1.349 . S
C1064 C1062 1.327 . S
C1064 C1083 1.429 . S
C1064 H1088 0.924 1_554 S
C1065 C1082 1.574 1_554 S
C1065 C1084 1.368 1_554 S
C1065 H1089 0.949 . S
H1066 C1070 0.949 . S
C1067 C1068 1.349 . S
C1067 C1069 1.327 . S
C1067 H1090 0.950 . S
C1068 C1067 1.349 . S
C1068 C1080 1.349 . S
C1069 C1067 1.327 . S
C1069 C1085 1.429 . S
C1069 H1091 0.950 . S
C1070 H1066 0.949 . S
C1070 C1078 1.574 . S
C1070 C1086 1.368 . S
H1071 C1079 0.950 . S
H1072 C1077 0.950 . S
H1073 C1078 0.949 . S
H1074 C1080 0.950 . S
H1075 C1081 0.950 . S
H1076 C1082 0.949 . S
C1077 H1072 0.950 . S
C1077 C1079 1.327 . S
C1077 C1083 1.429 . S
C1078 C1070 1.574 . S
C1078 H1073 0.949 . S
C1078 C1084 1.368 . S
C1079 C1063 1.349 . S
C1079 H1071 0.950 . S
C1079 C1077 1.327 . S
C1080 C1068 1.349 . S
C1080 H1074 0.950 . S
C1080 C1081 1.327 . S
C1081 H1075 0.950 . S
C1081 C1080 1.327 . S
C1081 C1085 1.429 . S
C1082 C1065 1.574 1_556 S
C1082 H1076 0.949 . S
C1082 C1086 1.368 . S
C1083 C1064 1.429 . S
C1083 C1077 1.429 . S
C1083 C1084 1.523 1_554 S
C1084 C1065 1.368 1_556 S
C1084 C1078 1.368 . S
C1084 C1083 1.523 1_556 S
C1085 C1069 1.429 . S
C1085 C1081 1.429 . S
C1085 C1086 1.523 . S
C1086 C1070 1.368 . S
C1086 C1082 1.368 . S
C1086 C1085 1.523 . S
H1087 C1062 0.950 . S
H1088 C1064 0.924 1_556 S
H1089 C1065 0.949 . S
H1090 C1067 0.950 . S
H1091 C1069 0.950 . S
C1092 C1093 1.349 . S
C1092 C1094 1.327 . S
C1092 H1117 0.950 . S
C1093 C1092 1.349 . S
C1093 C1109 1.349 . S
C1094 C1092 1.327 . S
C1094 C1113 1.429 . S
C1094 H1118 0.950 . S
C1095 C1112 1.574 . S
C1095 C1114 1.368 . S
C1095 H1119 0.949 . S
H1096 C1100 0.949 . S
C1097 C1098 1.349 . S
C1097 C1099 1.327 . S
C1097 H1120 0.950 . S
C1098 C1097 1.349 . S
C1098 C1110 1.349 . S
C1099 C1097 1.327 . S
C1099 C1115 1.429 . S
C1099 H1121 0.950 . S
C1100 H1096 0.949 . S
C1100 C1108 1.574 . S
C1100 C1116 1.368 . S
H1101 C1109 0.950 . S
H1102 C1107 0.950 . S
H1103 C1108 0.949 . S
H1104 C1110 0.950 . S
H1105 C1111 0.950 . S
H1106 C1112 0.949 . S
C1107 H1102 0.950 . S
C1107 C1109 1.327 . S
C1107 C1113 1.429 . S
C1108 C1100 1.574 . S
C1108 H1103 0.949 . S
C1108 C1114 1.368 . S
C1109 C1093 1.349 . S
C1109 H1101 0.950 . S
C1109 C1107 1.327 . S
C1110 C1098 1.349 . S
C1110 H1104 0.950 . S
C1110 C1111 1.327 . S
C1111 H1105 0.950 . S
C1111 C1110 1.327 . S
C1111 C1115 1.429 . S
C1112 C1095 1.574 . S
C1112 H1106 0.949 . S
C1112 C1116 1.368 . S
C1113 C1094 1.429 . S
C1113 C1107 1.429 . S
C1113 C1114 1.523 . S
C1114 C1095 1.368 . S
C1114 C1108 1.368 . S
C1114 C1113 1.523 . S
C1115 C1099 1.429 . S
C1115 C1111 1.429 . S
C1115 C1116 1.523 . S
C1116 C1100 1.368 . S
C1116 C1112 1.368 . S
C1116 C1115 1.523 . S
H1117 C1092 0.950 . S
H1118 C1094 0.950 . S
H1119 C1095 0.949 . S
H1120 C1097 0.950 . S
H1121 C1099 0.950 . S
C1122 C1123 1.349 . S
C1122 C1124 1.327 . S
C1122 H1147 0.950 . S
C1123 C1122 1.349 . S
C1123 C1139 1.349 . S
C1124 C1122 1.327 . S
C1124 C1143 1.429 . S
C1124 H1148 0.950 . S
C1125 C1142 1.574 . S
C1125 C1144 1.368 . S
C1125 H1149 0.949 . S
H1126 C1130 0.949 . S
C1127 C1128 1.349 . S
C1127 C1129 1.327 . S
C1127 H1150 0.950 . S
C1128 C1127 1.349 . S
C1128 C1140 1.349 . S
C1129 C1127 1.327 . S
C1129 C1145 1.429 . S
C1129 H1151 0.950 . S
C1130 H1126 0.949 . S
C1130 C1138 1.574 . S
C1130 C1146 1.368 . S
H1131 C1139 0.950 . S
H1132 C1137 0.950 . S
H1133 C1138 0.949 . S
H1134 C1140 0.950 . S
H1135 C1141 0.950 . S
H1136 C1142 0.949 . S
C1137 H1132 0.950 . S
C1137 C1139 1.327 . S
C1137 C1143 1.429 . S
C1138 C1130 1.574 . S
C1138 H1133 0.949 . S
C1138 C1144 1.368 . S
C1139 C1123 1.349 . S
C1139 H1131 0.950 . S
C1139 C1137 1.327 . S
C1140 C1128 1.349 . S
C1140 H1134 0.950 . S
C1140 C1141 1.327 . S
C1141 H1135 0.950 . S
C1141 C1140 1.327 . S
C1141 C1145 1.429 . S
C1142 C1125 1.574 . S
C1142 H1136 0.949 . S
C1142 C1146 1.368 . S
C1143 C1124 1.429 . S
C1143 C1137 1.429 . S
C1143 C1144 1.523 . S
C1144 C1125 1.368 . S
C1144 C1138 1.368 . S
C1144 C1143 1.523 . S
C1145 C1129 1.429 . S
C1145 C1141 1.429 . S
C1145 C1146 1.523 . S
C1146 C1130 1.368 . S
C1146 C1142 1.368 . S
C1146 C1145 1.523 . S
H1147 C1122 0.950 . S
H1148 C1124 0.950 . S
H1149 C1125 0.949 . S
H1150 C1127 0.950 . S
H1151 C1129 0.950 . S
C1152 C1153 1.349 . S
C1152 C1154 1.327 . S
C1152 H1177 0.950 . S
C1153 C1152 1.349 . S
C1153 C1169 1.349 . S
C1154 C1152 1.327 . S
C1154 C1173 1.429 . S
C1154 H1178 0.950 . S
C1155 C1172 1.574 . S
C1155 C1174 1.368 . S
C1155 H1179 0.949 . S
H1156 C1160 0.949 . S
C1157 C1158 1.349 . S
C1157 C1159 1.327 . S
C1157 H1180 0.950 . S
C1158 C1157 1.349 . S
C1158 C1170 1.349 . S
C1159 C1157 1.327 . S
C1159 C1175 1.429 . S
C1159 H1181 0.950 . S
C1160 H1156 0.949 . S
C1160 C1168 1.574 . S
C1160 C1176 1.368 . S
H1161 C1169 0.950 . S
H1162 C1167 0.950 . S
H1163 C1168 0.949 . S
H1164 C1170 0.950 . S
H1165 C1171 0.950 . S
H1166 C1172 0.949 . S
C1167 H1162 0.950 . S
C1167 C1169 1.327 . S
C1167 C1173 1.429 . S
C1168 C1160 1.574 . S
C1168 H1163 0.949 . S
C1168 C1174 1.368 . S
C1169 C1153 1.349 . S
C1169 H1161 0.950 . S
C1169 C1167 1.327 . S
C1170 C1158 1.349 . S
C1170 H1164 0.950 . S
C1170 C1171 1.327 . S
C1171 H1165 0.950 . S
C1171 C1170 1.327 . S
C1171 C1175 1.429 . S
C1172 C1155 1.574 . S
C1172 H1166 0.949 . S
C1172 C1176 1.368 . S
C1173 C1154 1.429 . S
C1173 C1167 1.429 . S
C1173 C1174 1.523 . S
C1174 C1155 1.368 . S
C1174 C1168 1.368 . S
C1174 C1173 1.523 . S
C1175 C1159 1.429 . S
C1175 C1171 1.429 . S
C1175 C1176 1.523 . S
C1176 C1160 1.368 . S
C1176 C1172 1.368 . S
C1176 C1175 1.523 . S
H1177 C1152 0.950 . S
H1178 C1154 0.950 . S
H1179 C1155 0.949 . S
H1180 C1157 0.950 . S
H1181 C1159 0.950 . S
C1182 C1183 1.349 . S
C1182 C1184 1.327 . S
C1182 H1207 0.950 . S
C1183 C1182 1.349 . S
C1183 C1199 1.349 . S
C1184 C1182 1.327 . S
C1184 C1203 1.429 . S
C1184 H1208 0.950 . S
C1185 C1202 1.574 . S
C1185 C1204 1.368 . S
C1185 H1209 0.949 . S
H1186 C1190 0.949 . S
C1187 C1188 1.349 . S
C1187 C1189 1.327 . S
C1187 H1210 0.950 . S
C1188 C1187 1.349 . S
C1188 C1200 1.349 . S
C1189 C1187 1.327 . S
C1189 C1205 1.429 . S
C1189 H1211 0.950 . S
C1190 H1186 0.949 . S
C1190 C1198 1.574 . S
C1190 C1206 1.368 . S
H1191 C1199 0.950 . S
H1192 C1197 0.950 . S
H1193 C1198 0.949 . S
H1194 C1200 0.950 . S
H1195 C1201 0.950 . S
H1196 C1202 0.949 . S
C1197 H1192 0.950 . S
C1197 C1199 1.327 . S
C1197 C1203 1.429 . S
C1198 C1190 1.574 . S
C1198 H1193 0.949 . S
C1198 C1204 1.368 . S
C1199 C1183 1.349 . S
C1199 H1191 0.950 . S
C1199 C1197 1.327 . S
C1200 C1188 1.349 . S
C1200 H1194 0.950 . S
C1200 C1201 1.327 . S
C1201 H1195 0.950 . S
C1201 C1200 1.327 . S
C1201 C1205 1.429 . S
C1202 C1185 1.574 . S
C1202 H1196 0.949 . S
C1202 C1206 1.368 . S
C1203 C1184 1.429 . S
C1203 C1197 1.429 . S
C1203 C1204 1.523 . S
C1204 C1185 1.368 . S
C1204 C1198 1.368 . S
C1204 C1203 1.523 . S
C1205 C1189 1.429 . S
C1205 C1201 1.429 . S
C1205 C1206 1.523 . S
C1206 C1190 1.368 . S
C1206 C1202 1.368 . S
C1206 C1205 1.523 . S
H1207 C1182 0.950 . S
H1208 C1184 0.950 . S
H1209 C1185 0.949 . S
H1210 C1187 0.950 . S
H1211 C1189 0.950 . S
C1212 C1213 1.349 1_565 S
C1212 C1214 1.327 . S
C1212 H1237 0.950 . S
C1213 C1212 1.349 1_545 S
C1213 C1229 1.349 . S
C1214 C1212 1.327 . S
C1214 C1233 1.429 . S
C1214 H1238 0.950 . S
C1215 C1232 1.596 . S
C1215 C1234 1.376 . S
C1215 H1239 0.922 1_565 S
H1216 C1220 0.949 . S
C1217 C1218 1.349 . S
C1217 C1219 1.327 . S
C1217 H1240 0.950 . S
C1218 C1217 1.349 . S
C1218 C1230 1.349 . S
C1219 C1217 1.327 . S
C1219 C1235 1.429 . S
C1219 H1241 0.950 . S
C1220 H1216 0.949 . S
C1220 C1228 1.574 . S
C1220 C1236 1.368 . S
H1221 C1229 0.950 . S
H1222 C1227 0.950 . S
H1223 C1228 0.949 . S
H1224 C1230 0.950 . S
H1225 C1231 0.950 . S
H1226 C1232 0.949 . S
C1227 H1222 0.950 . S
C1227 C1229 1.327 . S
C1227 C1233 1.429 1_545 S
C1228 C1220 1.574 . S
C1228 H1223 0.949 . S
C1228 C1234 1.368 . S
C1229 C1213 1.349 . S
C1229 H1221 0.950 . S
C1229 C1227 1.327 . S
C1230 C1218 1.349 . S
C1230 H1224 0.950 . S
C1230 C1231 1.327 . S
C1231 H1225 0.950 . S
C1231 C1230 1.327 . S
C1231 C1235 1.429 . S
C1232 C1215 1.596 . S
C1232 H1226 0.949 . S
C1232 C1236 1.368 . S
C1233 C1214 1.429 . S
C1233 C1227 1.429 1_565 S
C1233 C1234 1.523 . S
C1234 C1215 1.376 . S
C1234 C1228 1.368 . S
C1234 C1233 1.523 . S
C1235 C1219 1.429 . S
C1235 C1231 1.429 . S
C1235 C1236 1.523 . S
C1236 C1220 1.368 . S
C1236 C1232 1.368 . S
C1236 C1235 1.523 . S
H1237 C1212 0.950 . S
H1238 C1214 0.950 . S
H1239 C1215 0.922 1_545 S
H1240 C1217 0.950 . S
H1241 C1219 0.950 . S
C1242 C1243 1.349 . S
C1242 C1244 1.327 . S
C1242 H1267 0.950 . S
C1243 C1242 1.349 . S
C1243 C1259 1.349 . S
C1244 C1242 1.327 . S
C1244 C1263 1.429 . S
C1244 H1268 0.950 . S
C1245 C1262 1.574 . S
C1245 C1264 1.368 . S
C1245 H1269 0.949 . S
H1246 C1250 0.949 . S
C1247 C1248 1.349 . S
C1247 C1249 1.327 . S
C1247 H1270 0.950 . S
C1248 C1247 1.349 . S
C1248 C1260 1.349 . S
C1249 C1247 1.327 . S
C1249 C1265 1.429 . S
C1249 H1271 0.950 . S
C1250 H1246 0.949 . S
C1250 C1258 1.574 . S
C1250 C1266 1.368 . S
H1251 C1259 0.950 . S
H1252 C1257 0.950 . S
H1253 C1258 0.949 . S
H1254 C1260 0.950 . S
H1255 C1261 0.950 . S
H1256 C1262 0.949 . S
C1257 H1252 0.950 . S
C1257 C1259 1.327 . S
C1257 C1263 1.429 . S
C1258 C1250 1.574 . S
C1258 H1253 0.949 . S
C1258 C1264 1.368 . S
C1259 C1243 1.349 . S
C1259 H1251 0.950 . S
C1259 C1257 1.327 . S
C1260 C1248 1.349 . S
C1260 H1254 0.950 . S
C1260 C1261 1.327 . S
C1261 H1255 0.950 . S
C1261 C1260 1.327 . S
C1261 C1265 1.429 . S
C1262 C1245 1.574 . S
C1262 H1256 0.949 . S
C1262 C1266 1.368 . S
C1263 C1244 1.429 . S
C1263 C1257 1.429 . S
C1263 C1264 1.523 . S
C1264 C1245 1.368 . S
C1264 C1258 1.368 . S
C1264 C1263 1.523 . S
C1265 C1249 1.429 . S
C1265 C1261 1.429 . S
C1265 C1266 1.523 . S
C1266 C1250 1.368 . S
C1266 C1262 1.368 . S
C1266 C1265 1.523 . S
H1267 C1242 0.950 . S
H1268 C1244 0.950 . S
H1269 C1245 0.949 . S
H1270 C1247 0.950 . S
H1271 C1249 0.950 . S
C1272 C1273 1.349 . S
C1272 C1274 1.327 . S
C1272 H1297 0.950 . S
C1273 C1272 1.349 . S
C1273 C1289 1.349 . S
C1274 C1272 1.327 . S
C1274 C1293 1.429 . S
C1274 H1298 0.950 . S
C1275 C1292 1.574 . S
C1275 C1294 1.368 . S
C1275 H1299 0.949 . S
H1276 C1280 0.949 . S
C1277 C1278 1.349 . S
C1277 C1279 1.327 . S
C1277 H1300 0.950 . S
C1278 C1277 1.349 . S
C1278 C1290 1.349 . S
C1279 C1277 1.327 . S
C1279 C1295 1.429 . S
C1279 H1301 0.950 . S
C1280 H1276 0.949 . S
C1280 C1288 1.574 . S
C1280 C1296 1.368 . S
H1281 C1289 0.950 . S
H1282 C1287 0.950 . S
H1283 C1288 0.949 . S
H1284 C1290 0.950 . S
H1285 C1291 0.950 . S
H1286 C1292 0.949 . S
C1287 H1282 0.950 . S
C1287 C1289 1.327 . S
C1287 C1293 1.429 . S
C1288 C1280 1.574 . S
C1288 H1283 0.949 . S
C1288 C1294 1.368 . S
C1289 C1273 1.349 . S
C1289 H1281 0.950 . S
C1289 C1287 1.327 . S
C1290 C1278 1.349 . S
C1290 H1284 0.950 . S
C1290 C1291 1.327 . S
C1291 H1285 0.950 . S
C1291 C1290 1.327 . S
C1291 C1295 1.429 . S
C1292 C1275 1.574 . S
C1292 H1286 0.949 . S
C1292 C1296 1.368 . S
C1293 C1274 1.429 . S
C1293 C1287 1.429 . S
C1293 C1294 1.523 . S
C1294 C1275 1.368 . S
C1294 C1288 1.368 . S
C1294 C1293 1.523 . S
C1295 C1279 1.429 . S
C1295 C1291 1.429 . S
C1295 C1296 1.523 . S
C1296 C1280 1.368 . S
C1296 C1292 1.368 . S
C1296 C1295 1.523 . S
H1297 C1272 0.950 . S
H1298 C1274 0.950 . S
H1299 C1275 0.949 . S
H1300 C1277 0.950 . S
H1301 C1279 0.950 . S
C583 C7 2.373 . S
C588 C201 2.333 . S
C613 C30 1.265 . S
C618 C275 1.241 . S
C648 C325 1.802 . S
C643 N58 1.817 . S
C678 C411 1.041 . S
C673 N81 0.999 . S
C708 C503 2.071 . S
C703 C99 2.069 . S
C738 C547 1.699 . S
C733 N127 1.709 . S
C763 N25 1.113 . S
C768 C349 1.107 . S
C793 C62 2.553 . S
C798 C429 2.521 . S
C828 C485 1.457 . S
C823 C85 1.433 . S
C858 C571 1.233 . S
C853 N94 1.239 . S
C883 C131 2.384 . S
C888 C177 2.261 . S
C918 C251 1.743 . S
C913 N2 1.693 . S
C948 C423 2.043 . S
C943 C16 2.211 . S
C973 C39 1.985 . S
C978 C473 1.883 . S
C1008 C577 2.308 . S
C1003 N48 2.299 . S
C1033 N71 1.244 . S
C1038 C189 1.240 . S
C1063 C108 1.874 . S
C1068 C263 1.838 . S
C1093 N117 2.091 . S
C1098 C355 2.107 . S
C1123 N35 1.791 . S
C1128 C559 1.782 . S
C1158 C207 2.237 . S
C1153 C53 2.253 . S
C1183 C76 2.478 . S
C1188 C281 2.394 . S
C1213 N104 1.393 . S
C1218 C337 1.391 . S
C1243 C122 1.718 . S
C1248 C399 1.591 . S
C1273 N12 1.722 . S
C1278 C497 1.667 . S
