# Generated by pormake.
# Topology ptr, (4,4)-cn, num edge types: 1
# Building blocks:
#     Node 0, Type 0, BuildingBlock: GALJAG_clean_sbu_0, # of connection points: 4
#     Node 1, Type 0, BuildingBlock: GALJAG_clean_sbu_0, # of connection points: 4
#     Node 2, Type 0, BuildingBlock: GALJAG_clean_sbu_0, # of connection points: 4
#     Node 3, Type 0, BuildingBlock: GALJAG_clean_sbu_0, # of connection points: 4
#     Node 4, Type 0, BuildingBlock: GALJAG_clean_sbu_0, # of connection points: 4
#     Node 5, Type 0, BuildingBlock: GALJAG_clean_sbu_0, # of connection points: 4
#     Node 6, Type 0, BuildingBlock: GALJAG_clean_sbu_0, # of connection points: 4
#     Node 7, Type 0, BuildingBlock: GALJAG_clean_sbu_0, # of connection points: 4
#     Node 8, Type 0, BuildingBlock: GALJAG_clean_sbu_0, # of connection points: 4
#     Node 9, Type 0, BuildingBlock: GALJAG_clean_sbu_0, # of connection points: 4
#     Node 10, Type 0, BuildingBlock: GALJAG_clean_sbu_0, # of connection points: 4
#     Node 11, Type 0, BuildingBlock: GALJAG_clean_sbu_0, # of connection points: 4
#     Node 12, Type 0, BuildingBlock: GALJAG_clean_sbu_0, # of connection points: 4
#     Node 13, Type 0, BuildingBlock: GALJAG_clean_sbu_0, # of connection points: 4
#     Node 14, Type 0, BuildingBlock: GALJAG_clean_sbu_0, # of connection points: 4
#     Node 15, Type 0, BuildingBlock: GALJAG_clean_sbu_0, # of connection points: 4
#     Node 16, Type 0, BuildingBlock: GALJAG_clean_sbu_0, # of connection points: 4
#     Node 17, Type 0, BuildingBlock: GALJAG_clean_sbu_0, # of connection points: 4
#     Node 18, Type 1, BuildingBlock: MUDLON_clean_linker_0, # of connection points: 4
#     Node 19, Type 1, BuildingBlock: MUDLON_clean_linker_0, # of connection points: 4
#     Node 20, Type 1, BuildingBlock: MUDLON_clean_linker_0, # of connection points: 4
#     Node 21, Type 1, BuildingBlock: MUDLON_clean_linker_0, # of connection points: 4
#     Node 22, Type 1, BuildingBlock: MUDLON_clean_linker_0, # of connection points: 4
#     Node 23, Type 1, BuildingBlock: MUDLON_clean_linker_0, # of connection points: 4
#     Node 24, Type 1, BuildingBlock: MUDLON_clean_linker_0, # of connection points: 4
#     Node 25, Type 1, BuildingBlock: MUDLON_clean_linker_0, # of connection points: 4
#     Node 26, Type 1, BuildingBlock: MUDLON_clean_linker_0, # of connection points: 4
#     Node 27, Type 1, BuildingBlock: MUDLON_clean_linker_0, # of connection points: 4
#     Node 28, Type 1, BuildingBlock: MUDLON_clean_linker_0, # of connection points: 4
#     Node 29, Type 1, BuildingBlock: MUDLON_clean_linker_0, # of connection points: 4
#     Node 30, Type 1, BuildingBlock: MUDLON_clean_linker_0, # of connection points: 4
#     Node 31, Type 1, BuildingBlock: MUDLON_clean_linker_0, # of connection points: 4
#     Node 32, Type 1, BuildingBlock: MUDLON_clean_linker_0, # of connection points: 4
#     Node 33, Type 1, BuildingBlock: MUDLON_clean_linker_0, # of connection points: 4
#     Node 34, Type 1, BuildingBlock: MUDLON_clean_linker_0, # of connection points: 4
#     Node 35, Type 1, BuildingBlock: MUDLON_clean_linker_0, # of connection points: 4
#     Edge 36, Type (0, 1), BuildingBlock: MIFKUJ_clean_linker_0, # of connection points: 2
#     Edge 37, Type (0, 1), BuildingBlock: MIFKUJ_clean_linker_0, # of connection points: 2
#     Edge 38, Type (0, 1), BuildingBlock: MIFKUJ_clean_linker_0, # of connection points: 2
#     Edge 39, Type (0, 1), BuildingBlock: MIFKUJ_clean_linker_0, # of connection points: 2
#     Edge 40, Type (0, 1), BuildingBlock: MIFKUJ_clean_linker_0, # of connection points: 2
#     Edge 41, Type (0, 1), BuildingBlock: MIFKUJ_clean_linker_0, # of connection points: 2
#     Edge 42, Type (0, 1), BuildingBlock: MIFKUJ_clean_linker_0, # of connection points: 2
#     Edge 43, Type (0, 1), BuildingBlock: MIFKUJ_clean_linker_0, # of connection points: 2
#     Edge 44, Type (0, 1), BuildingBlock: MIFKUJ_clean_linker_0, # of connection points: 2
#     Edge 45, Type (0, 1), BuildingBlock: MIFKUJ_clean_linker_0, # of connection points: 2
#     Edge 46, Type (0, 1), BuildingBlock: MIFKUJ_clean_linker_0, # of connection points: 2
#     Edge 47, Type (0, 1), BuildingBlock: MIFKUJ_clean_linker_0, # of connection points: 2
#     Edge 48, Type (0, 1), BuildingBlock: MIFKUJ_clean_linker_0, # of connection points: 2
#     Edge 49, Type (0, 1), BuildingBlock: MIFKUJ_clean_linker_0, # of connection points: 2
#     Edge 50, Type (0, 1), BuildingBlock: MIFKUJ_clean_linker_0, # of connection points: 2
#     Edge 51, Type (0, 1), BuildingBlock: MIFKUJ_clean_linker_0, # of connection points: 2
#     Edge 52, Type (0, 1), BuildingBlock: MIFKUJ_clean_linker_0, # of connection points: 2
#     Edge 53, Type (0, 1), BuildingBlock: MIFKUJ_clean_linker_0, # of connection points: 2
#     Edge 54, Type (0, 1), BuildingBlock: MIFKUJ_clean_linker_0, # of connection points: 2
#     Edge 55, Type (0, 1), BuildingBlock: MIFKUJ_clean_linker_0, # of connection points: 2
#     Edge 56, Type (0, 1), BuildingBlock: MIFKUJ_clean_linker_0, # of connection points: 2
#     Edge 57, Type (0, 1), BuildingBlock: MIFKUJ_clean_linker_0, # of connection points: 2
#     Edge 58, Type (0, 1), BuildingBlock: MIFKUJ_clean_linker_0, # of connection points: 2
#     Edge 59, Type (0, 1), BuildingBlock: MIFKUJ_clean_linker_0, # of connection points: 2
#     Edge 60, Type (0, 1), BuildingBlock: MIFKUJ_clean_linker_0, # of connection points: 2
#     Edge 61, Type (0, 1), BuildingBlock: MIFKUJ_clean_linker_0, # of connection points: 2
#     Edge 62, Type (0, 1), BuildingBlock: MIFKUJ_clean_linker_0, # of connection points: 2
#     Edge 63, Type (0, 1), BuildingBlock: MIFKUJ_clean_linker_0, # of connection points: 2
#     Edge 64, Type (0, 1), BuildingBlock: MIFKUJ_clean_linker_0, # of connection points: 2
#     Edge 65, Type (0, 1), BuildingBlock: MIFKUJ_clean_linker_0, # of connection points: 2
#     Edge 66, Type (0, 1), BuildingBlock: MIFKUJ_clean_linker_0, # of connection points: 2
#     Edge 67, Type (0, 1), BuildingBlock: MIFKUJ_clean_linker_0, # of connection points: 2
#     Edge 68, Type (0, 1), BuildingBlock: MIFKUJ_clean_linker_0, # of connection points: 2
#     Edge 69, Type (0, 1), BuildingBlock: MIFKUJ_clean_linker_0, # of connection points: 2
#     Edge 70, Type (0, 1), BuildingBlock: MIFKUJ_clean_linker_0, # of connection points: 2
#     Edge 71, Type (0, 1), BuildingBlock: MIFKUJ_clean_linker_0, # of connection points: 2
#     Edge 72, Type (0, 1), BuildingBlock: MIFKUJ_clean_linker_0, # of connection points: 2
#     Edge 73, Type (0, 1), BuildingBlock: MIFKUJ_clean_linker_0, # of connection points: 2
#     Edge 74, Type (0, 1), BuildingBlock: MIFKUJ_clean_linker_0, # of connection points: 2
#     Edge 75, Type (0, 1), BuildingBlock: MIFKUJ_clean_linker_0, # of connection points: 2
#     Edge 76, Type (0, 1), BuildingBlock: MIFKUJ_clean_linker_0, # of connection points: 2
#     Edge 77, Type (0, 1), BuildingBlock: MIFKUJ_clean_linker_0, # of connection points: 2
#     Edge 78, Type (0, 1), BuildingBlock: MIFKUJ_clean_linker_0, # of connection points: 2
#     Edge 79, Type (0, 1), BuildingBlock: MIFKUJ_clean_linker_0, # of connection points: 2
#     Edge 80, Type (0, 1), BuildingBlock: MIFKUJ_clean_linker_0, # of connection points: 2
#     Edge 81, Type (0, 1), BuildingBlock: MIFKUJ_clean_linker_0, # of connection points: 2
#     Edge 82, Type (0, 1), BuildingBlock: MIFKUJ_clean_linker_0, # of connection points: 2
#     Edge 83, Type (0, 1), BuildingBlock: MIFKUJ_clean_linker_0, # of connection points: 2
#     Edge 84, Type (0, 1), BuildingBlock: MIFKUJ_clean_linker_0, # of connection points: 2
#     Edge 85, Type (0, 1), BuildingBlock: MIFKUJ_clean_linker_0, # of connection points: 2
#     Edge 86, Type (0, 1), BuildingBlock: MIFKUJ_clean_linker_0, # of connection points: 2
#     Edge 87, Type (0, 1), BuildingBlock: MIFKUJ_clean_linker_0, # of connection points: 2
#     Edge 88, Type (0, 1), BuildingBlock: MIFKUJ_clean_linker_0, # of connection points: 2
#     Edge 89, Type (0, 1), BuildingBlock: MIFKUJ_clean_linker_0, # of connection points: 2
#     Edge 90, Type (0, 1), BuildingBlock: MIFKUJ_clean_linker_0, # of connection points: 2
#     Edge 91, Type (0, 1), BuildingBlock: MIFKUJ_clean_linker_0, # of connection points: 2
#     Edge 92, Type (0, 1), BuildingBlock: MIFKUJ_clean_linker_0, # of connection points: 2
#     Edge 93, Type (0, 1), BuildingBlock: MIFKUJ_clean_linker_0, # of connection points: 2
#     Edge 94, Type (0, 1), BuildingBlock: MIFKUJ_clean_linker_0, # of connection points: 2
#     Edge 95, Type (0, 1), BuildingBlock: MIFKUJ_clean_linker_0, # of connection points: 2
#     Edge 96, Type (0, 1), BuildingBlock: MIFKUJ_clean_linker_0, # of connection points: 2
#     Edge 97, Type (0, 1), BuildingBlock: MIFKUJ_clean_linker_0, # of connection points: 2
#     Edge 98, Type (0, 1), BuildingBlock: MIFKUJ_clean_linker_0, # of connection points: 2
#     Edge 99, Type (0, 1), BuildingBlock: MIFKUJ_clean_linker_0, # of connection points: 2
#     Edge 100, Type (0, 1), BuildingBlock: MIFKUJ_clean_linker_0, # of connection points: 2
#     Edge 101, Type (0, 1), BuildingBlock: MIFKUJ_clean_linker_0, # of connection points: 2
#     Edge 102, Type (0, 1), BuildingBlock: MIFKUJ_clean_linker_0, # of connection points: 2
#     Edge 103, Type (0, 1), BuildingBlock: MIFKUJ_clean_linker_0, # of connection points: 2
#     Edge 104, Type (0, 1), BuildingBlock: MIFKUJ_clean_linker_0, # of connection points: 2
#     Edge 105, Type (0, 1), BuildingBlock: MIFKUJ_clean_linker_0, # of connection points: 2
#     Edge 106, Type (0, 1), BuildingBlock: MIFKUJ_clean_linker_0, # of connection points: 2
#     Edge 107, Type (0, 1), BuildingBlock: MIFKUJ_clean_linker_0, # of connection points: 2
# Relax obj value: 0.052
# Max RMSD: 0.089
# Mean RMSD: 0.080
data_MOF--net-ptr--node1-GALJAG_clean_sbu_0--node2-MUDLON_clean_linker_0--edge1-MIFKUJ_clean_linker_0
_symmetry_space_group_name_H-M    P1
_symmetry_Int_Tables_number       1
_symmetry_cell_setting            triclinic
loop_
_symmetry_equiv_pos_as_xyz
'x, y, z'
_cell_length_a     127.06152
_cell_length_b     127.18196
_cell_length_c     81.495151
_cell_angle_alpha  89.985911
_cell_angle_beta   90.038622
_cell_angle_gamma 120.12737
loop_
_atom_site_label
_atom_site_type_symbol
_atom_site_fract_x
_atom_site_fract_y
_atom_site_fract_z
_atom_type_partial_charge
In0 In 0.01095 0.37275 0.01665 0.0
O1 O 0.00162 0.37561 0.03894 0.0
O2 O 0.02054 0.38773 0.03564 0.0
C3 C 0.99074 0.35203 0.00734 0.0
C4 C 0.02875 0.36726 0.02187 0.0
C5 C 0.01234 0.38773 0.99216 0.0
O6 O 0.99324 0.35492 0.02226 0.0
O7 O 0.99841 0.3595 0.99734 0.0
O8 O 0.01707 0.38107 0.99109 0.0
O9 O 0.00706 0.38693 0.0056 0.0
C10 C 0.01119 0.38479 0.04416 0.0
O11 O 0.03078 0.37716 0.01557 0.0
O12 O 0.01774 0.36004 0.02523 0.0
In13 In 0.64772 0.64729 0.01693 0.0
O14 O 0.64519 0.63449 0.03829 0.0
O15 O 0.6325 0.64063 0.03582 0.0
C16 C 0.66966 0.65191 0.00572 0.0
C17 C 0.65214 0.66948 0.02659 0.0
C18 C 0.63324 0.6333 0.99217 0.0
O19 O 0.66489 0.64573 0.01852 0.0
O20 O 0.66346 0.65588 0.9988 0.0
O21 O 0.63607 0.64428 0.9939 0.0
O22 O 0.6376 0.62946 0.00292 0.0
C23 C 0.63579 0.63427 0.04379 0.0
O24 O 0.64364 0.66289 0.01679 0.0
O25 O 0.65847 0.66494 0.03129 0.0
In26 In 0.37474 0.01058 0.01783 0.0
O27 O 0.38257 0.02961 0.00687 0.0
O28 O 0.36625 0.0227 0.02055 0.0
C29 C 0.39102 0.01693 0.04258 0.0
C30 C 0.38263 0.00456 0.99045 0.0
C31 C 0.35369 0.99 0.02604 0.0
O32 O 0.38178 0.01817 0.04367 0.0
O33 O 0.39213 0.01288 0.02898 0.0
O34 O 0.35458 0.99627 0.0136 0.0
O35 O 0.36337 0.99401 0.03416 0.0
C36 C 0.3742 0.03132 0.01205 0.0
O37 O 0.3749 0.00801 0.98992 0.0
O38 O 0.38602 0.0038 0.00471 0.0
In39 In 0.01113 0.64692 0.01653 0.0
O40 O 0.01808 0.64573 0.99118 0.0
O41 O 0.00755 0.62926 0.00442 0.0
C42 C 0.02929 0.66987 0.02303 0.0
C43 C 0.9914 0.64828 0.0069 0.0
C44 C 0.01076 0.63391 0.04303 0.0
O45 O 0.03076 0.66259 0.0142 0.0
O46 O 0.0186 0.6657 0.0283 0.0
O47 O 0.00121 0.63337 0.03746 0.0
O48 O 0.02034 0.64102 0.03533 0.0
C49 C 0.01333 0.6343 0.99146 0.0
O50 O 0.99402 0.64828 0.02185 0.0
O51 O 0.99868 0.64764 0.99705 0.0
In52 In 0.37212 0.37244 0.01599 0.0
O53 O 0.37512 0.38536 0.99462 0.0
O54 O 0.38887 0.38096 0.99944 0.0
C55 C 0.34973 0.36767 0.02542 0.0
C56 C 0.36765 0.35021 0.00626 0.0
C57 C 0.38595 0.38539 0.04184 0.0
O58 O 0.35511 0.37409 0.01303 0.0
O59 O 0.35558 0.36355 0.03293 0.0
O60 O 0.38513 0.37553 0.03727 0.0
O61 O 0.3798 0.3887 0.03341 0.0
C62 C 0.38535 0.38677 0.99066 0.0
O63 O 0.37395 0.35553 0.01876 0.0
O64 O 0.36349 0.35604 0.99879 0.0
In65 In 0.64537 0.01078 0.01748 0.0
O66 O 0.64664 0.01851 0.04355 0.0
O67 O 0.62929 0.00844 0.03247 0.0
C68 C 0.6665 0.03147 0.01035 0.0
C69 C 0.64639 0.99026 0.02329 0.0
C70 C 0.63215 0.00726 0.98993 0.0
O71 O 0.66594 0.02375 0.02057 0.0
O72 O 0.6564 0.02892 0.00416 0.0
O73 O 0.63929 0.00311 0.99142 0.0
O74 O 0.63179 0.01311 0.00219 0.0
C75 C 0.63532 0.01429 0.04482 0.0
O76 O 0.63697 0.99094 0.02581 0.0
O77 O 0.6552 0.9998 0.01746 0.0
In78 In 0.67514 0.7077 0.35 0.0
O79 O 0.66794 0.70846 0.3755 0.0
O80 O 0.67716 0.72489 0.36202 0.0
C81 C 0.65767 0.68533 0.34 0.0
C82 C 0.69412 0.70544 0.3608 0.0
C83 C 0.67693 0.72093 0.32314 0.0
O84 O 0.65541 0.69204 0.34897 0.0
O85 O 0.66875 0.68981 0.33629 0.0
O86 O 0.68619 0.72214 0.33065 0.0
O87 O 0.66687 0.71307 0.32917 0.0
C88 C 0.67177 0.71972 0.37509 0.0
O89 O 0.69449 0.71062 0.34742 0.0
O90 O 0.68424 0.70139 0.36851 0.0
In91 In 0.31219 0.98045 0.34903 0.0
O92 O 0.30874 0.96723 0.37013 0.0
O93 O 0.29558 0.97255 0.36566 0.0
C94 C 0.33497 0.98586 0.34051 0.0
C95 C 0.31591 0.00229 0.35917 0.0
C96 C 0.29827 0.96708 0.32347 0.0
O97 O 0.32924 0.9788 0.35221 0.0
O98 O 0.3293 0.9903 0.33332 0.0
O99 O 0.29937 0.97719 0.32735 0.0
O100 O 0.30416 0.96377 0.33243 0.0
C101 C 0.29877 0.96639 0.37428 0.0
O102 O 0.31175 0.99805 0.34512 0.0
O103 O 0.31839 0.99563 0.36793 0.0
In104 In 0.03978 0.34312 0.34909 0.0
O105 O 0.04397 0.36293 0.35142 0.0
O106 O 0.03192 0.35192 0.33267 0.0
C107 C 0.05338 0.34897 0.37668 0.0
C108 C 0.05095 0.33861 0.32386 0.0
C109 C 0.01813 0.32336 0.3568 0.0
O110 O 0.0578 0.3537 0.36292 0.0
O111 O 0.04205 0.34163 0.3766 0.0
O112 O 0.02728 0.32255 0.35274 0.0
O113 O 0.01991 0.33404 0.35689 0.0
C114 C 0.0373 0.36219 0.33948 0.0
O115 O 0.04224 0.34053 0.32185 0.0
O116 O 0.05382 0.33857 0.33863 0.0
In117 In 0.67921 0.98205 0.34803 0.0
O118 O 0.68683 0.98046 0.3234 0.0
O119 O 0.67264 0.96426 0.33409 0.0
C120 C 0.69683 0.00466 0.35693 0.0
C121 C 0.66012 0.98449 0.3386 0.0
C122 C 0.68019 0.96911 0.3737 0.0
O123 O 0.69854 0.99842 0.34638 0.0
O124 O 0.68621 0.9996 0.36274 0.0
O125 O 0.67119 0.97059 0.37128 0.0
O126 O 0.68854 0.97406 0.36316 0.0
C127 C 0.6799 0.9691 0.32223 0.0
O128 O 0.6603 0.97982 0.35221 0.0
O129 O 0.66951 0.98793 0.32996 0.0
In130 In 0.03927 0.70742 0.35113 0.0
O131 O 0.04135 0.71715 0.32657 0.0
O132 O 0.0573 0.71933 0.33805 0.0
C133 C 0.01694 0.7031 0.36016 0.0
C134 C 0.03559 0.68553 0.3411 0.0
C135 C 0.05242 0.71937 0.37791 0.0
O136 O 0.02389 0.71188 0.351 0.0
O137 O 0.0212 0.69648 0.36461 0.0
O138 O 0.05237 0.71014 0.37211 0.0
O139 O 0.04579 0.7225 0.37027 0.0
C140 C 0.05276 0.72181 0.32596 0.0
O141 O 0.04093 0.69041 0.35438 0.0
O142 O 0.03201 0.69161 0.33303 0.0
In143 In 0.31314 0.34231 0.35033 0.0
O144 O 0.31189 0.32383 0.34743 0.0
O145 O 0.32177 0.33484 0.3678 0.0
C146 C 0.29967 0.34168 0.32427 0.0
C147 C 0.2989 0.34108 0.3757 0.0
C148 C 0.33522 0.36101 0.34167 0.0
O149 O 0.3022 0.33341 0.32692 0.0
O150 O 0.30402 0.3502 0.33461 0.0
O151 O 0.32827 0.36229 0.35149 0.0
O152 O 0.33108 0.35033 0.33637 0.0
C153 C 0.31803 0.32494 0.36018 0.0
O154 O 0.30964 0.34982 0.37397 0.0
O155 O 0.29543 0.33304 0.36471 0.0
In156 In 0.34435 0.04211 0.68335 0.0
O157 O 0.36467 0.04867 0.68604 0.0
O158 O 0.35209 0.03138 0.69583 0.0
C159 C 0.34611 0.05476 0.65587 0.0
C160 C 0.34215 0.05397 0.70959 0.0
C161 C 0.32594 0.02044 0.673 0.0
O162 O 0.35435 0.05255 0.66023 0.0
O163 O 0.33706 0.05061 0.66535 0.0
O164 O 0.32436 0.02706 0.68309 0.0
O165 O 0.3368 0.02467 0.66835 0.0
C166 C 0.36309 0.03934 0.69362 0.0
O167 O 0.33681 0.04252 0.70881 0.0
O168 O 0.34841 0.05934 0.69714 0.0
In169 In 0.98054 0.31393 0.68457 0.0
O170 O 0.97545 0.32885 0.6852 0.0
O171 O 0.99187 0.33247 0.69686 0.0
C172 C 0.96707 0.30157 0.65826 0.0
C173 C 0.96783 0.30125 0.71116 0.0
C174 C 0.00157 0.31552 0.67456 0.0
O175 O 0.97271 0.31304 0.65895 0.0
O176 O 0.96819 0.2964 0.67079 0.0
O177 O 0.99525 0.30846 0.68601 0.0
O178 O 0.99735 0.32176 0.6685 0.0
C179 C 0.9847 0.33626 0.69329 0.0
O180 O 0.97915 0.30533 0.70987 0.0
O181 O 0.9631 0.30362 0.69917 0.0
In182 In 0.70669 0.67953 0.68304 0.0
O183 O 0.70788 0.69789 0.6874 0.0
O184 O 0.69802 0.68755 0.66657 0.0
C185 C 0.72191 0.68159 0.70774 0.0
C186 C 0.71838 0.67694 0.6569 0.0
C187 C 0.68421 0.66247 0.69299 0.0
O188 O 0.72306 0.69072 0.70003 0.0
O189 O 0.7132 0.67157 0.70297 0.0
O190 O 0.68878 0.66156 0.67967 0.0
O191 O 0.69088 0.67203 0.70104 0.0
C192 C 0.70176 0.69719 0.6748 0.0
O193 O 0.7108 0.668 0.66528 0.0
O194 O 0.72001 0.68707 0.66166 0.0
In195 In 0.34339 0.31454 0.68339 0.0
O196 O 0.35069 0.31263 0.65857 0.0
O197 O 0.33638 0.29669 0.66949 0.0
C198 C 0.36196 0.33663 0.69242 0.0
C199 C 0.32515 0.31815 0.67344 0.0
C200 C 0.34259 0.30122 0.70973 0.0
O201 O 0.36358 0.32906 0.68447 0.0
O202 O 0.351 0.33315 0.69566 0.0
O203 O 0.33417 0.30347 0.70664 0.0
O204 O 0.35129 0.30574 0.69968 0.0
C205 C 0.34356 0.3013 0.65754 0.0
O206 O 0.32443 0.31231 0.68634 0.0
O207 O 0.33506 0.32221 0.66574 0.0
In208 In 0.70623 0.03928 0.68579 0.0
O209 O 0.71006 0.05218 0.66407 0.0
O210 O 0.72327 0.04721 0.67 0.0
C211 C 0.6844 0.03579 0.6958 0.0
C212 C 0.70083 0.01669 0.67631 0.0
C213 C 0.7207 0.05243 0.71094 0.0
O214 O 0.68887 0.04031 0.68198 0.0
O215 O 0.69087 0.03296 0.70438 0.0
O216 O 0.7185 0.0418 0.70771 0.0
O217 O 0.71557 0.05639 0.70152 0.0
C218 C 0.72025 0.05321 0.66076 0.0
O219 O 0.70703 0.02178 0.68898 0.0
O220 O 0.69724 0.02291 0.66862 0.0
In221 In 0.97873 0.67639 0.68263 0.0
O222 O 0.97018 0.65614 0.68891 0.0
O223 O 0.98933 0.66636 0.68686 0.0
C224 C 0.96516 0.67534 0.65653 0.0
C225 C 0.96854 0.68045 0.70941 0.0
C226 C 1.00057 0.69458 0.6724 0.0
O227 O 0.96627 0.6664 0.66091 0.0
O228 O 0.97092 0.68475 0.66528 0.0
O229 O 0.99687 0.69405 0.68694 0.0
O230 O 0.99336 0.68595 0.66325 0.0
C231 C 0.9801 0.6562 0.68986 0.0
O232 O 0.97955 0.68317 0.70911 0.0
O233 O 0.96288 0.67597 0.69624 0.0
H234 H 0.24632 0.3806 0.1633 0.0
N235 N 0.22753 0.36702 0.14399 0.0
H236 H 0.25227 0.37447 0.18849 0.0
H237 H 0.21495 0.34479 0.15876 0.0
H238 H 0.22081 0.3385 0.18405 0.0
H239 H 0.22395 0.34535 0.13203 0.0
H240 H 0.23604 0.34283 0.11071 0.0
H241 H 0.2434 0.38405 0.12395 0.0
H242 H 0.25556 0.38164 0.10257 0.0
H243 H 0.2207 0.38082 0.15958 0.0
H244 H 0.20753 0.35058 0.12611 0.0
H245 H 0.20104 0.37971 0.15879 0.0
H246 H 0.18805 0.34995 0.12421 0.0
H247 H 0.14015 0.37856 0.15603 0.0
H248 H 0.1279 0.37374 0.1811 0.0
H249 H 0.12849 0.34023 0.18585 0.0
H250 H 0.14051 0.34498 0.16073 0.0
H251 H 0.12619 0.34408 0.13454 0.0
H252 H 0.112 0.34141 0.11271 0.0
H253 H 0.13874 0.37592 0.09183 0.0
H254 H 0.15242 0.37892 0.11465 0.0
H255 H 0.16981 0.384 0.14329 0.0
H256 H 0.18913 0.3843 0.14267 0.0
H257 H 0.16972 0.34518 0.13688 0.0
N258 N 0.14764 0.36494 0.14104 0.0
H259 H 0.15047 0.34525 0.13614 0.0
C260 C 0.23026 0.36318 0.15923 0.0
C261 C 0.24068 0.37144 0.16789 0.0
C262 C 0.24401 0.36792 0.18228 0.0
C263 C 0.23698 0.356 0.18829 0.0
C264 C 0.22644 0.34771 0.17965 0.0
C265 C 0.22307 0.35129 0.16525 0.0
C266 C 0.23285 0.36495 0.12962 0.0
C267 C 0.23067 0.35329 0.12546 0.0
C268 C 0.23763 0.35186 0.11332 0.0
C269 C 0.24684 0.36205 0.10506 0.0
C270 C 0.24848 0.3736 0.10859 0.0
C271 C 0.24156 0.37501 0.1208 0.0
C272 C 0.21571 0.36596 0.14279 0.0
C273 C 0.21358 0.37404 0.15187 0.0
C274 C 0.20233 0.37345 0.15124 0.0
C275 C 0.19291 0.36488 0.14117 0.0
C276 C 0.195 0.35663 0.13218 0.0
C277 C 0.20624 0.35707 0.13312 0.0
C278 C 0.14139 0.36226 0.15658 0.0
C279 C 0.13774 0.37025 0.16261 0.0
C280 C 0.1307 0.36745 0.17682 0.0
C281 C 0.12725 0.3566 0.18538 0.0
C282 C 0.13113 0.34871 0.17957 0.0
C283 C 0.13805 0.35145 0.16521 0.0
C284 C 0.14026 0.36188 0.12645 0.0
C285 C 0.12903 0.35102 0.1252 0.0
C286 C 0.12093 0.34947 0.11253 0.0
C287 C 0.12403 0.35859 0.10059 0.0
C288 C 0.13579 0.36889 0.10108 0.0
C289 C 0.14373 0.37057 0.11398 0.0
C290 C 0.15878 0.36462 0.14014 0.0
C291 C 0.16979 0.37553 0.14179 0.0
C292 C 0.18081 0.37562 0.14161 0.0
C293 C 0.18108 0.36472 0.14013 0.0
C294 C 0.16995 0.35377 0.13802 0.0
C295 C 0.1589 0.35375 0.13782 0.0
H296 H 0.70205 0.80572 0.15021 0.0
N297 N 0.68522 0.80944 0.13673 0.0
H298 H 0.70088 0.79561 0.17619 0.0
H299 H 0.66681 0.80168 0.15914 0.0
H300 H 0.66564 0.79185 0.18549 0.0
H301 H 0.6624 0.78983 0.13256 0.0
H302 H 0.65682 0.77301 0.11349 0.0
H303 H 0.69843 0.80894 0.11187 0.0
H304 H 0.69289 0.79224 0.09249 0.0
H305 H 0.7017 0.83216 0.14364 0.0
H306 H 0.6645 0.80987 0.12796 0.0
H307 H 0.6995 0.8501 0.14283 0.0
H308 H 0.66235 0.82788 0.12612 0.0
H309 H 0.69767 0.90409 0.1473 0.0
H310 H 0.69897 0.91432 0.17333 0.0
H311 H 0.66185 0.88692 0.18427 0.0
H312 H 0.6608 0.87667 0.15849 0.0
H313 H 0.65579 0.88176 0.13216 0.0
H314 H 0.64972 0.89223 0.11259 0.0
H315 H 0.68429 0.90615 0.08773 0.0
H316 H 0.69054 0.89636 0.10824 0.0
H317 H 0.69712 0.88217 0.12593 0.0
H318 H 0.69824 0.86358 0.12493 0.0
H319 H 0.66076 0.84295 0.14095 0.0
N320 N 0.67837 0.88452 0.13501 0.0
H321 H 0.65961 0.8616 0.14072 0.0
C322 C 0.68459 0.80449 0.15283 0.0
C323 C 0.69416 0.80283 0.15799 0.0
C324 C 0.69348 0.7971 0.17288 0.0
C325 C 0.68318 0.79292 0.183 0.0
C326 C 0.67365 0.79482 0.17793 0.0
C327 C 0.67433 0.80052 0.16294 0.0
C328 C 0.68088 0.80065 0.12362 0.0
C329 C 0.669 0.79057 0.12358 0.0
C330 C 0.66582 0.78095 0.11264 0.0
C331 C 0.67446 0.78122 0.1016 0.0
C332 C 0.68608 0.79167 0.10101 0.0
C333 C 0.68923 0.80127 0.11194 0.0
C334 C 0.68339 0.81973 0.13566 0.0
C335 C 0.69309 0.8312 0.13979 0.0
C336 C 0.69182 0.84147 0.13916 0.0
C337 C 0.68079 0.84056 0.13413 0.0
C338 C 0.67097 0.82897 0.13014 0.0
C339 C 0.67221 0.81863 0.13102 0.0
C340 C 0.67919 0.88966 0.151 0.0
C341 C 0.68991 0.90024 0.15548 0.0
C342 C 0.69057 0.90611 0.17027 0.0
C343 C 0.68048 0.90149 0.18086 0.0
C344 C 0.66984 0.89065 0.17652 0.0
C345 C 0.6692 0.88479 0.16172 0.0
C346 C 0.67371 0.88849 0.12179 0.0
C347 C 0.662 0.88699 0.12242 0.0
C348 C 0.65851 0.89294 0.11107 0.0
C349 C 0.66658 0.90028 0.09864 0.0
C350 C 0.67795 0.90093 0.09738 0.0
C351 C 0.6815 0.89519 0.10894 0.0
C352 C 0.67838 0.87326 0.13363 0.0
C353 C 0.68914 0.87359 0.12903 0.0
C354 C 0.68977 0.86295 0.12867 0.0
C355 C 0.67967 0.85171 0.13321 0.0
C356 C 0.66873 0.85138 0.13732 0.0
C357 C 0.66807 0.86206 0.1374 0.0
H358 H 0.15307 0.7841 0.16801 0.0
N359 N 0.14904 0.7943 0.14214 0.0
H360 H 0.1408 0.77653 0.19298 0.0
H361 H 0.12953 0.79694 0.15038 0.0
H362 H 0.11755 0.78987 0.17539 0.0
H363 H 0.13515 0.79995 0.12224 0.0
H364 H 0.12125 0.78698 0.1007 0.0
H365 H 0.147 0.774 0.13016 0.0
H366 H 0.13325 0.76104 0.1085 0.0
H367 H 0.17221 0.80199 0.13551 0.0
H368 H 0.14708 0.81485 0.14372 0.0
H369 H 0.18886 0.82298 0.13245 0.0
H370 H 0.16361 0.83576 0.14133 0.0
H371 H 0.23488 0.88151 0.15244 0.0
H372 H 0.24368 0.89134 0.17845 0.0
H373 H 0.21624 0.90176 0.18298 0.0
H374 H 0.20766 0.89212 0.15648 0.0
H375 H 0.22034 0.90044 0.11834 0.0
H376 H 0.2368 0.91112 0.09848 0.0
H377 H 0.24751 0.8841 0.10515 0.0
H378 H 0.23095 0.87341 0.12489 0.0
H379 H 0.21726 0.86181 0.14811 0.0
H380 H 0.20094 0.84068 0.14853 0.0
H381 H 0.17752 0.85072 0.12277 0.0
N382 N 0.21576 0.88128 0.13639 0.0
H383 H 0.19385 0.87199 0.12301 0.0
C384 C 0.14232 0.79113 0.15734 0.0
C385 C 0.1454 0.7855 0.16969 0.0
C386 C 0.1384 0.78123 0.18396 0.0
C387 C 0.12814 0.78254 0.1862 0.0
C388 C 0.12527 0.78853 0.17398 0.0
C389 C 0.13224 0.79272 0.15968 0.0
C390 C 0.14206 0.78786 0.12789 0.0
C391 C 0.13489 0.79155 0.11922 0.0
C392 C 0.12692 0.78411 0.10692 0.0
C393 C 0.12613 0.77297 0.10295 0.0
C394 C 0.13374 0.76962 0.11114 0.0
C395 C 0.14158 0.77698 0.12352 0.0
C396 C 0.15843 0.8068 0.13996 0.0
C397 C 0.17031 0.80935 0.13668 0.0
C398 C 0.17981 0.82136 0.13505 0.0
C399 C 0.17763 0.83111 0.13674 0.0
C400 C 0.16564 0.8285 0.13975 0.0
C401 C 0.15613 0.81648 0.14127 0.0
C402 C 0.2206 0.88613 0.15242 0.0
C403 C 0.23068 0.88581 0.159 0.0
C404 C 0.23567 0.8914 0.17401 0.0
C405 C 0.2307 0.89739 0.18282 0.0
C406 C 0.22042 0.89739 0.17641 0.0
C407 C 0.21544 0.89182 0.16135 0.0
C408 C 0.22443 0.8862 0.12314 0.0
C409 C 0.22609 0.8967 0.11523 0.0
C410 C 0.23548 0.90276 0.10388 0.0
C411 C 0.24349 0.89848 0.10031 0.0
C412 C 0.24155 0.88768 0.10779 0.0
C413 C 0.23205 0.88153 0.11903 0.0
C414 C 0.20673 0.86854 0.13564 0.0
C415 C 0.20866 0.8595 0.1425 0.0
C416 C 0.19929 0.84735 0.14263 0.0
C417 C 0.18783 0.84395 0.13578 0.0
C418 C 0.18611 0.853 0.12845 0.0
C419 C 0.19546 0.86514 0.12843 0.0
H420 H 0.37759 0.24218 0.87063 0.0
N421 N 0.36239 0.22404 0.88979 0.0
H422 H 0.37281 0.2494 0.84547 0.0
H423 H 0.34041 0.21303 0.8739 0.0
H424 H 0.33553 0.22006 0.84858 0.0
H425 H 0.34145 0.22332 0.8999 0.0
H426 H 0.33997 0.23646 0.92042 0.0
H427 H 0.37972 0.23913 0.91019 0.0
H428 H 0.3784 0.25258 0.93056 0.0
H429 H 0.37611 0.21486 0.88061 0.0
H430 H 0.34183 0.20501 0.90353 0.0
H431 H 0.37168 0.19388 0.883 0.0
H432 H 0.33756 0.1842 0.90675 0.0
H433 H 0.36179 0.1453 0.87556 0.0
H434 H 0.36128 0.13488 0.8501 0.0
H435 H 0.32379 0.10779 0.85969 0.0
H436 H 0.32459 0.11808 0.88542 0.0
H437 H 0.33042 0.12364 0.92308 0.0
H438 H 0.33616 0.11292 0.94275 0.0
H439 H 0.37257 0.13091 0.92257 0.0
H440 H 0.36642 0.1407 0.90226 0.0
H441 H 0.36594 0.15823 0.90245 0.0
H442 H 0.37021 0.17907 0.90152 0.0
H443 H 0.33218 0.16626 0.89204 0.0
N444 N 0.34353 0.13753 0.89827 0.0
H445 H 0.3279 0.14529 0.89383 0.0
C446 C 0.35942 0.22709 0.87409 0.0
C447 C 0.36844 0.23722 0.86571 0.0
C448 C 0.36568 0.24129 0.85132 0.0
C449 C 0.35377 0.23531 0.845 0.0
C450 C 0.34476 0.22495 0.85322 0.0
C451 C 0.34755 0.22087 0.86764 0.0
C452 C 0.36075 0.23022 0.90354 0.0
C453 C 0.34951 0.22945 0.90679 0.0
C454 C 0.34869 0.23707 0.91845 0.0
C455 C 0.35909 0.24566 0.92703 0.0
C456 C 0.37019 0.24599 0.92431 0.0
C457 C 0.37098 0.23834 0.91267 0.0
C458 C 0.35943 0.21159 0.89199 0.0
C459 C 0.36769 0.20818 0.88635 0.0
C460 C 0.36516 0.19619 0.88786 0.0
C461 C 0.35428 0.18728 0.8952 0.0
C462 C 0.34597 0.19073 0.90087 0.0
C463 C 0.34847 0.20273 0.89918 0.0
C464 C 0.34321 0.13238 0.88241 0.0
C465 C 0.35346 0.13715 0.87214 0.0
C466 C 0.35312 0.13121 0.85752 0.0
C467 C 0.34252 0.12043 0.85289 0.0
C468 C 0.33218 0.11593 0.86301 0.0
C469 C 0.33256 0.12184 0.87762 0.0
C470 C 0.34797 0.13314 0.91136 0.0
C471 C 0.33969 0.12541 0.92316 0.0
C472 C 0.34304 0.11932 0.93445 0.0
C473 C 0.35486 0.12095 0.93431 0.0
C474 C 0.36332 0.12919 0.92292 0.0
C475 C 0.35987 0.13506 0.91143 0.0
C476 C 0.3465 0.15008 0.89842 0.0
C477 C 0.35846 0.1598 0.90041 0.0
C478 C 0.36093 0.17182 0.89968 0.0
C479 C 0.35156 0.17444 0.89666 0.0
C480 C 0.33962 0.16467 0.89469 0.0
C481 C 0.33714 0.15266 0.89561 0.0
H482 H 0.7856 0.13605 0.88191 0.0
N483 N 0.80545 0.13722 0.8971 0.0
H484 H 0.77694 0.12651 0.85566 0.0
H485 H 0.81432 0.12769 0.87599 0.0
H486 H 0.80588 0.11836 0.84929 0.0
H487 H 0.79971 0.11696 0.91328 0.0
H488 H 0.78304 0.10607 0.93273 0.0
H489 H 0.79106 0.14561 0.91007 0.0
H490 H 0.77454 0.13493 0.92976 0.0
H491 H 0.80343 0.15623 0.88464 0.0
H492 H 0.82707 0.14729 0.91164 0.0
H493 H 0.8191 0.17757 0.8847 0.0
H494 H 0.84273 0.16883 0.91243 0.0
H495 H 0.86487 0.23402 0.86469 0.0
H496 H 0.87766 0.24184 0.84026 0.0
H497 H 0.90228 0.23111 0.86072 0.0
H498 H 0.88976 0.22391 0.88532 0.0
H499 H 0.88318 0.22158 0.91425 0.0
H500 H 0.89679 0.23643 0.93457 0.0
H501 H 0.88384 0.26071 0.92047 0.0
H502 H 0.8704 0.24589 0.90011 0.0
H503 H 0.84585 0.21656 0.89755 0.0
H504 H 0.82994 0.19529 0.9008 0.0
H505 H 0.8569 0.18435 0.89487 0.0
N506 N 0.86931 0.22528 0.89173 0.0
H507 H 0.87271 0.20558 0.89243 0.0
C508 C 0.80062 0.13251 0.88101 0.0
C509 C 0.79015 0.13229 0.87488 0.0
C510 C 0.78524 0.12689 0.85975 0.0
C511 C 0.79069 0.12163 0.85035 0.0
C512 C 0.80134 0.12217 0.85631 0.0
C513 C 0.80624 0.12755 0.87149 0.0
C514 C 0.79668 0.13208 0.91023 0.0
C515 C 0.79438 0.12102 0.91709 0.0
C516 C 0.78487 0.11484 0.92825 0.0
C517 C 0.77741 0.1196 0.93279 0.0
C518 C 0.78002 0.13093 0.92637 0.0
C519 C 0.78955 0.13712 0.91519 0.0
C520 C 0.81413 0.15008 0.89799 0.0
C521 C 0.81195 0.15885 0.89074 0.0
C522 C 0.82094 0.17114 0.89093 0.0
C523 C 0.83226 0.17499 0.89851 0.0
C524 C 0.83424 0.16622 0.9062 0.0
C525 C 0.82527 0.15391 0.90589 0.0
C526 C 0.87625 0.22829 0.87674 0.0
C527 C 0.87293 0.23321 0.86373 0.0
C528 C 0.88025 0.23763 0.84975 0.0
C529 C 0.89106 0.23715 0.84847 0.0
C530 C 0.89414 0.23181 0.86135 0.0
C531 C 0.88686 0.2275 0.87539 0.0
C532 C 0.8758 0.23269 0.90564 0.0
C533 C 0.8831 0.22999 0.91576 0.0
C534 C 0.89086 0.23847 0.92739 0.0
C535 C 0.89148 0.24979 0.92895 0.0
C536 C 0.88369 0.25215 0.91937 0.0
C537 C 0.87595 0.24368 0.90786 0.0
C538 C 0.86043 0.21269 0.89458 0.0
C539 C 0.8483 0.20954 0.89714 0.0
C540 C 0.83921 0.19737 0.89884 0.0
C541 C 0.84207 0.18803 0.89792 0.0
C542 C 0.85434 0.19126 0.89581 0.0
C543 C 0.86343 0.20346 0.89425 0.0
H544 H 0.81301 0.7039 0.87451 0.0
N545 N 0.80918 0.68494 0.8926 0.0
H546 H 0.80347 0.70361 0.84833 0.0
H547 H 0.79484 0.6648 0.87418 0.0
H548 H 0.78582 0.66436 0.84762 0.0
H549 H 0.7934 0.66214 0.90384 0.0
H550 H 0.77607 0.65663 0.92222 0.0
H551 H 0.80495 0.70003 0.90995 0.0
H552 H 0.78794 0.69472 0.92862 0.0
H553 H 0.82973 0.70116 0.90684 0.0
H554 H 0.81227 0.66576 0.8843 0.0
H555 H 0.84848 0.70046 0.9098 0.0
H556 H 0.83118 0.66524 0.88616 0.0
H557 H 0.90915 0.70215 0.88711 0.0
H558 H 0.91933 0.7022 0.86162 0.0
H559 H 0.88837 0.66743 0.84862 0.0
H560 H 0.87813 0.66769 0.87397 0.0
H561 H 0.88225 0.66107 0.90016 0.0
H562 H 0.89118 0.65292 0.91925 0.0
H563 H 0.90994 0.68765 0.94394 0.0
H564 H 0.90079 0.69567 0.92486 0.0
H565 H 0.8838 0.70309 0.89407 0.0
H566 H 0.86435 0.70251 0.89337 0.0
H567 H 0.84574 0.66377 0.90244 0.0
N568 N 0.88784 0.68481 0.89822 0.0
H569 H 0.86529 0.66442 0.90218 0.0
C570 C 0.80477 0.68443 0.87619 0.0
C571 C 0.80722 0.69527 0.86851 0.0
C572 C 0.80179 0.69506 0.85351 0.0
C573 C 0.79381 0.68395 0.84579 0.0
C574 C 0.79174 0.67308 0.85328 0.0
C575 C 0.79706 0.67332 0.8684 0.0
C576 C 0.80036 0.6815 0.90551 0.0
C577 C 0.79233 0.66926 0.90944 0.0
C578 C 0.78248 0.66615 0.91998 0.0
C579 C 0.78052 0.67524 0.92669 0.0
C580 C 0.78904 0.68749 0.92342 0.0
C581 C 0.79882 0.69056 0.91291 0.0
C582 C 0.8197 0.68366 0.89512 0.0
C583 C 0.82999 0.69325 0.90249 0.0
C584 C 0.84074 0.69286 0.90399 0.0
C585 C 0.84151 0.6829 0.89789 0.0
C586 C 0.83097 0.67305 0.89105 0.0
C587 C 0.82014 0.67338 0.8898 0.0
C588 C 0.89295 0.68496 0.88241 0.0
C589 C 0.90453 0.69464 0.87861 0.0
C590 C 0.91036 0.69457 0.86414 0.0
C591 C 0.90474 0.68474 0.85315 0.0
C592 C 0.89293 0.67517 0.85675 0.0
C593 C 0.88708 0.67528 0.87127 0.0
C594 C 0.89088 0.67903 0.9111 0.0
C595 C 0.888 0.66684 0.90994 0.0
C596 C 0.8932 0.66221 0.9208 0.0
C597 C 0.90139 0.66968 0.93301 0.0
C598 C 0.9036 0.68162 0.93479 0.0
C599 C 0.8984 0.68623 0.9239 0.0
C600 C 0.87606 0.68389 0.89838 0.0
C601 C 0.8755 0.69449 0.89594 0.0
C602 C 0.86435 0.69413 0.8957 0.0
C603 C 0.85338 0.68311 0.8981 0.0
C604 C 0.85394 0.67242 0.90044 0.0
C605 C 0.86517 0.67278 0.90046 0.0
H606 H 0.78452 0.65166 0.48957 0.0
N607 N 0.79928 0.6703 0.47069 0.0
H608 H 0.77552 0.65236 0.51575 0.0
H609 H 0.80508 0.69078 0.48828 0.0
H610 H 0.79671 0.69164 0.51483 0.0
H611 H 0.8085 0.69319 0.4581 0.0
H612 H 0.79764 0.69993 0.43976 0.0
H613 H 0.77867 0.65638 0.4549 0.0
H614 H 0.76781 0.66295 0.43658 0.0
H615 H 0.80338 0.65393 0.45665 0.0
H616 H 0.8217 0.68922 0.47951 0.0
H617 H 0.82266 0.65411 0.45472 0.0
H618 H 0.84093 0.68925 0.47853 0.0
H619 H 0.88109 0.65163 0.48363 0.0
H620 H 0.89116 0.65282 0.50962 0.0
H621 H 0.89376 0.68746 0.51961 0.0
H622 H 0.88412 0.68634 0.49312 0.0
H623 H 0.89592 0.69115 0.46567 0.0
H624 H 0.91266 0.69699 0.44622 0.0
H625 H 0.89432 0.66054 0.42649 0.0
H626 H 0.87769 0.65479 0.44609 0.0
H627 H 0.85412 0.65038 0.47394 0.0
H628 H 0.83559 0.65162 0.47285 0.0
H629 H 0.85714 0.69013 0.46268 0.0
N630 N 0.87685 0.66816 0.47044 0.0
H631 H 0.87568 0.6888 0.46453 0.0
C632 C 0.79553 0.67111 0.48707 0.0
C633 C 0.78733 0.66039 0.49521 0.0
C634 C 0.78225 0.66083 0.51021 0.0
C635 C 0.78534 0.67207 0.51746 0.0
C636 C 0.79395 0.68283 0.50953 0.0
C637 C 0.79891 0.68236 0.49442 0.0
C638 C 0.79432 0.67427 0.45782 0.0
C639 C 0.79974 0.68653 0.45315 0.0
C640 C 0.79354 0.69035 0.44267 0.0
C641 C 0.78181 0.68198 0.43691 0.0
C642 C 0.77675 0.66964 0.441 0.0
C643 C 0.78296 0.66585 0.45133 0.0
C644 C 0.81104 0.67142 0.46843 0.0
C645 C 0.8116 0.66173 0.46122 0.0
C646 C 0.82262 0.66182 0.4603 0.0
C647 C 0.83337 0.67158 0.4668 0.0
C648 C 0.83288 0.68158 0.47336 0.0
C649 C 0.82183 0.68154 0.47408 0.0
C650 C 0.88178 0.6688 0.48654 0.0
C651 C 0.88373 0.6594 0.49155 0.0
C652 C 0.88943 0.66009 0.50647 0.0
C653 C 0.89325 0.67022 0.51685 0.0
C654 C 0.89108 0.67959 0.51189 0.0
C655 C 0.88546 0.67892 0.49682 0.0
C656 C 0.88555 0.67251 0.45725 0.0
C657 C 0.89535 0.68453 0.45685 0.0
C658 C 0.90492 0.68785 0.44574 0.0
C659 C 0.90487 0.67918 0.43496 0.0
C660 C 0.89471 0.66737 0.43481 0.0
C661 C 0.88515 0.66409 0.44585 0.0
C662 C 0.86623 0.66942 0.46916 0.0
C663 C 0.8548 0.65907 0.47142 0.0
C664 C 0.84422 0.65981 0.47065 0.0
C665 C 0.84479 0.67096 0.46745 0.0
C666 C 0.85632 0.6814 0.46525 0.0
C667 C 0.86695 0.68065 0.46617 0.0
H668 H 0.36688 0.13406 0.47674 0.0
N669 N 0.35114 0.14098 0.46812 0.0
H670 H 0.36706 0.12374 0.50192 0.0
H671 H 0.33647 0.13669 0.49504 0.0
H672 H 0.33697 0.12704 0.52052 0.0
H673 H 0.32766 0.12212 0.46938 0.0
H674 H 0.3186 0.10459 0.45084 0.0
H675 H 0.35993 0.13915 0.43942 0.0
H676 H 0.3509 0.12173 0.42071 0.0
H677 H 0.36963 0.16327 0.46399 0.0
H678 H 0.33081 0.14318 0.47098 0.0
H679 H 0.36934 0.1823 0.46416 0.0
H680 H 0.33045 0.16219 0.47242 0.0
H681 H 0.36879 0.24006 0.48673 0.0
H682 H 0.36719 0.24912 0.51237 0.0
H683 H 0.3305 0.21913 0.51881 0.0
H684 H 0.33249 0.2099 0.49344 0.0
H685 H 0.32821 0.21432 0.46642 0.0
H686 H 0.32154 0.22408 0.4465 0.0
H687 H 0.35849 0.24549 0.42889 0.0
H688 H 0.36497 0.23534 0.44858 0.0
H689 H 0.36827 0.21487 0.48276 0.0
H690 H 0.36757 0.1954 0.48198 0.0
H691 H 0.33223 0.17915 0.45866 0.0
N692 N 0.35172 0.22009 0.47226 0.0
H693 H 0.3327 0.19847 0.46056 0.0
C694 C 0.35179 0.13628 0.48398 0.0
C695 C 0.36044 0.13267 0.48638 0.0
C696 C 0.36054 0.12681 0.50083 0.0
C697 C 0.35201 0.12451 0.51333 0.0
C698 C 0.34355 0.12845 0.51108 0.0
C699 C 0.34336 0.13417 0.49652 0.0
C700 C 0.34455 0.13189 0.45581 0.0
C701 C 0.33266 0.12224 0.45858 0.0
C702 C 0.32752 0.1122 0.44803 0.0
C703 C 0.33409 0.11175 0.43442 0.0
C704 C 0.34558 0.12185 0.43101 0.0
C705 C 0.35076 0.13179 0.44167 0.0
C706 C 0.35033 0.15187 0.46772 0.0
C707 C 0.36105 0.16302 0.46571 0.0
C708 C 0.36085 0.17389 0.46601 0.0
C709 C 0.3499 0.17389 0.46866 0.0
C710 C 0.33906 0.16261 0.47028 0.0
C711 C 0.33925 0.1517 0.46965 0.0
C712 C 0.35076 0.22442 0.48818 0.0
C713 C 0.36049 0.2354 0.49384 0.0
C714 C 0.35948 0.2406 0.50839 0.0
C715 C 0.34863 0.23497 0.51754 0.0
C716 C 0.33901 0.2237 0.51212 0.0
C717 C 0.34008 0.21844 0.49757 0.0
C718 C 0.34712 0.22407 0.45891 0.0
C719 C 0.33482 0.22086 0.458 0.0
C720 C 0.33103 0.22656 0.44668 0.0
C721 C 0.33949 0.23567 0.43618 0.0
C722 C 0.35169 0.23842 0.43662 0.0
C723 C 0.35543 0.23265 0.44787 0.0
C724 C 0.35067 0.20826 0.47159 0.0
C725 C 0.36035 0.20707 0.47756 0.0
C726 C 0.35997 0.19592 0.47692 0.0
C727 C 0.34993 0.18564 0.46996 0.0
C728 C 0.34009 0.18679 0.46421 0.0
C729 C 0.34039 0.19795 0.46515 0.0
H730 H 0.81519 0.11165 0.49834 0.0
N731 N 0.81656 0.12894 0.47878 0.0
H732 H 0.80374 0.10421 0.52391 0.0
H733 H 0.80447 0.13879 0.49484 0.0
H734 H 0.79347 0.13181 0.52058 0.0
H735 H 0.79687 0.13014 0.46745 0.0
H736 H 0.78252 0.11719 0.44646 0.0
H737 H 0.81821 0.11285 0.45996 0.0
H738 H 0.80364 0.09946 0.43938 0.0
H739 H 0.84026 0.13703 0.47946 0.0
H740 H 0.81427 0.14884 0.47162 0.0
H741 H 0.85692 0.15788 0.47586 0.0
H742 H 0.83064 0.16972 0.46943 0.0
H743 H 0.90402 0.21911 0.48353 0.0
H744 H 0.91435 0.22932 0.50889 0.0
H745 H 0.88411 0.23419 0.52166 0.0
H746 H 0.87392 0.22431 0.49583 0.0
H747 H 0.88857 0.23717 0.45723 0.0
H748 H 0.9043 0.2477 0.43656 0.0
H749 H 0.91034 0.21714 0.43466 0.0
H750 H 0.89488 0.20692 0.45591 0.0
H751 H 0.88336 0.19765 0.48782 0.0
H752 H 0.86737 0.17648 0.48854 0.0
H753 H 0.84628 0.18436 0.45414 0.0
N754 N 0.88245 0.21631 0.47196 0.0
H755 H 0.86198 0.2058 0.45464 0.0
C756 C 0.81082 0.12581 0.49468 0.0
C757 C 0.81059 0.11617 0.50329 0.0
C758 C 0.80407 0.11198 0.51794 0.0
C759 C 0.79765 0.1174 0.52435 0.0
C760 C 0.79816 0.1273 0.51591 0.0
C761 C 0.8046 0.13141 0.50118 0.0
C762 C 0.80871 0.12252 0.46517 0.0
C763 C 0.79861 0.12371 0.46109 0.0
C764 C 0.79029 0.11616 0.4492 0.0
C765 C 0.79185 0.1072 0.44126 0.0
C766 C 0.80221 0.10635 0.44502 0.0
C767 C 0.81054 0.11395 0.45682 0.0
C768 C 0.82603 0.14134 0.47612 0.0
C769 C 0.83817 0.14416 0.47712 0.0
C770 C 0.84768 0.15614 0.47522 0.0
C771 C 0.84524 0.16566 0.47253 0.0
C772 C 0.83299 0.16272 0.47126 0.0
C773 C 0.82351 0.1507 0.47281 0.0
C774 C 0.88824 0.22116 0.48761 0.0
C775 C 0.89959 0.22239 0.49169 0.0
C776 C 0.90549 0.2282 0.50621 0.0
C777 C 0.90005 0.2326 0.5171 0.0
C778 C 0.88847 0.23085 0.51343 0.0
C779 C 0.88267 0.22524 0.49874 0.0
C780 C 0.89049 0.22128 0.45804 0.0
C781 C 0.89315 0.23267 0.4521 0.0
C782 C 0.90212 0.23864 0.44021 0.0
C783 C 0.90863 0.23328 0.43387 0.0
C784 C 0.90562 0.22161 0.43939 0.0
C785 C 0.89668 0.21567 0.45142 0.0
C786 C 0.87374 0.20343 0.47145 0.0
C787 C 0.87527 0.19488 0.48052 0.0
C788 C 0.86611 0.18265 0.48074 0.0
C789 C 0.85535 0.17858 0.47154 0.0
C790 C 0.8542 0.18711 0.46181 0.0
C791 C 0.86323 0.19937 0.4619 0.0
H792 H 0.04904 0.58068 0.20754 0.0
N793 N 0.03468 0.56122 0.22537 0.0
H794 H 0.0439 0.58766 0.18249 0.0
H795 H 0.01309 0.54918 0.20867 0.0
H796 H 0.00794 0.55581 0.18323 0.0
H797 H 0.01335 0.55973 0.23516 0.0
H798 H 0.01126 0.57264 0.25555 0.0
H799 H 0.05155 0.57627 0.24637 0.0
H800 H 0.04959 0.58936 0.26673 0.0
H801 H 0.04518 0.5508 0.20931 0.0
H802 H 0.01703 0.54302 0.24482 0.0
H803 H 0.04007 0.52961 0.20996 0.0
H804 H 0.01246 0.52212 0.24647 0.0
H805 H 0.03225 0.4738 0.21289 0.0
H806 H 0.03233 0.4636 0.1876 0.0
H807 H 0.99469 0.45306 0.17927 0.0
H808 H 0.99462 0.46295 0.205 0.0
H809 H 0.99581 0.45356 0.24179 0.0
H810 H 0.9992 0.441 0.26147 0.0
H811 H 0.03764 0.46733 0.2617 0.0
H812 H 0.03417 0.47983 0.24223 0.0
H813 H 0.03534 0.49318 0.22253 0.0
H814 H 0.04098 0.51447 0.22404 0.0
H815 H 0.00332 0.50371 0.23308 0.0
N816 N 0.01248 0.47347 0.2268 0.0
H817 H 0.99806 0.48243 0.2329 0.0
C818 C 0.03153 0.56441 0.20987 0.0
C819 C 0.0401 0.57518 0.20216 0.0
C820 C 0.03714 0.5791 0.18781 0.0
C821 C 0.0255 0.57228 0.18075 0.0
C822 C 0.01693 0.56137 0.18841 0.0
C823 C 0.0199 0.55749 0.20287 0.0
C824 C 0.03266 0.56707 0.23923 0.0
C825 C 0.02126 0.56599 0.24222 0.0
C826 C 0.02009 0.57345 0.25381 0.0
C827 C 0.03029 0.58213 0.26264 0.0
C828 C 0.04153 0.58271 0.26025 0.0
C829 C 0.04269 0.57525 0.24864 0.0
C830 C 0.0316 0.54865 0.22696 0.0
C831 C 0.03802 0.54455 0.21744 0.0
C832 C 0.03514 0.53241 0.21798 0.0
C833 C 0.02585 0.52402 0.22834 0.0
C834 C 0.01952 0.52818 0.23809 0.0
C835 C 0.02224 0.54029 0.23728 0.0
C836 C 0.01336 0.46905 0.21088 0.0
C837 C 0.02407 0.46943 0.20554 0.0
C838 C 0.0241 0.46362 0.19099 0.0
C839 C 0.01347 0.45737 0.18145 0.0
C840 C 0.00296 0.45754 0.18647 0.0
C841 C 0.00292 0.46329 0.20106 0.0
C842 C 0.01466 0.46763 0.2405 0.0
C843 C 0.00491 0.45675 0.24642 0.0
C844 C 0.00688 0.44956 0.25754 0.0
C845 C 0.01871 0.45312 0.263 0.0
C846 C 0.02841 0.46438 0.2578 0.0
C847 C 0.02643 0.47155 0.2466 0.0
C848 C 0.01628 0.48619 0.22799 0.0
C849 C 0.02836 0.49539 0.22529 0.0
C850 C 0.03153 0.50763 0.22586 0.0
C851 C 0.02263 0.51096 0.22866 0.0
C852 C 0.01053 0.50164 0.23127 0.0
C853 C 0.00745 0.48944 0.23105 0.0
H854 H 0.56933 0.54659 0.21354 0.0
N855 N 0.55027 0.54617 0.22761 0.0
H856 H 0.5792 0.55654 0.18784 0.0
H857 H 0.54189 0.55647 0.20578 0.0
H858 H 0.55121 0.56586 0.17965 0.0
H859 H 0.54552 0.56422 0.23481 0.0
H860 H 0.55726 0.58115 0.25376 0.0
H861 H 0.56622 0.54751 0.24977 0.0
H862 H 0.57775 0.56412 0.26912 0.0
H863 H 0.54753 0.52487 0.23637 0.0
H864 H 0.52739 0.54258 0.2235 0.0
H865 H 0.52863 0.5054 0.23825 0.0
H866 H 0.50841 0.52303 0.22406 0.0
H867 H 0.4674 0.44347 0.21743 0.0
H868 H 0.45716 0.4345 0.19156 0.0
H869 H 0.45779 0.46792 0.17935 0.0
H870 H 0.46749 0.47654 0.20577 0.0
H871 H 0.45403 0.46851 0.23271 0.0
H872 H 0.43761 0.45835 0.25275 0.0
H873 H 0.45738 0.44295 0.27604 0.0
H874 H 0.47358 0.4529 0.25564 0.0
H875 H 0.49592 0.47075 0.22124 0.0
H876 H 0.51429 0.49066 0.22123 0.0
H877 H 0.49349 0.5067 0.23928 0.0
N878 N 0.47357 0.4652 0.22933 0.0
H879 H 0.47502 0.48676 0.23819 0.0
C880 C 0.55484 0.55067 0.21146 0.0
C881 C 0.56527 0.55064 0.20602 0.0
C882 C 0.57085 0.5563 0.19128 0.0
C883 C 0.56603 0.56206 0.18159 0.0
C884 C 0.55531 0.5617 0.18687 0.0
C885 C 0.54983 0.55616 0.20173 0.0
C886 C 0.55511 0.55471 0.24089 0.0
C887 C 0.55237 0.56405 0.24254 0.0
C888 C 0.55907 0.57369 0.2534 0.0
C889 C 0.56858 0.57409 0.26277 0.0
C890 C 0.57067 0.56424 0.26185 0.0
C891 C 0.56402 0.55467 0.25096 0.0
C892 C 0.53887 0.53507 0.22949 0.0
C893 C 0.53898 0.52449 0.23384 0.0
C894 C 0.52815 0.51336 0.23472 0.0
C895 C 0.51692 0.5125 0.23094 0.0
C896 C 0.51682 0.52326 0.2271 0.0
C897 C 0.5277 0.53447 0.22654 0.0
C898 C 0.4683 0.46065 0.21342 0.0
C899 C 0.46538 0.44885 0.20907 0.0
C900 C 0.4596 0.44379 0.19421 0.0
C901 C 0.4567 0.4505 0.18321 0.0
C902 C 0.45975 0.46243 0.18755 0.0
C903 C 0.46542 0.46743 0.20258 0.0
C904 C 0.46498 0.46136 0.24267 0.0
C905 C 0.45493 0.46315 0.24234 0.0
C906 C 0.44556 0.45735 0.25384 0.0
C907 C 0.44609 0.44968 0.26586 0.0
C908 C 0.45656 0.44859 0.26675 0.0
C909 C 0.46588 0.45435 0.25524 0.0
C910 C 0.48416 0.4772 0.22991 0.0
C911 C 0.49537 0.47858 0.22519 0.0
C912 C 0.50588 0.49 0.22536 0.0
C913 C 0.50551 0.50037 0.23053 0.0
C914 C 0.49418 0.49898 0.23513 0.0
C915 C 0.48358 0.48753 0.23468 0.0
H916 H 0.53467 0.97689 0.19492 0.0
N917 N 0.53763 0.98761 0.22388 0.0
H918 H 0.54833 0.98458 0.17122 0.0
H919 H 0.55706 0.01059 0.22046 0.0
H920 H 0.57072 0.01842 0.19683 0.0
H921 H 0.54777 0.0039 0.24908 0.0
H922 H 0.56222 0.00422 0.2695 0.0
H923 H 0.54309 0.9704 0.22935 0.0
H924 H 0.55753 0.97069 0.24952 0.0
H925 H 0.51583 0.97065 0.23402 0.0
H926 H 0.53646 0.00856 0.22099 0.0
H927 H 0.49752 0.97217 0.23684 0.0
H928 H 0.51808 0.01003 0.22268 0.0
H929 H 0.44676 0.97816 0.20156 0.0
H930 H 0.44097 0.98455 0.17638 0.0
H931 H 0.46515 0.02213 0.18929 0.0
H932 H 0.47114 0.01561 0.21426 0.0
H933 H 0.46618 0.01257 0.24228 0.0
H934 H 0.45312 0.01373 0.26337 0.0
H935 H 0.42943 0.9748 0.26059 0.0
H936 H 0.44261 0.97376 0.23951 0.0
H937 H 0.4649 0.97392 0.21778 0.0
H938 H 0.48375 0.97332 0.21916 0.0
H939 H 0.50239 0.01004 0.23822 0.0
N940 N 0.46155 0.99228 0.22506 0.0
H941 H 0.48347 0.01066 0.2359 0.0
C942 C 0.54484 0.99312 0.20941 0.0
C943 C 0.54239 0.98605 0.19524 0.0
C944 C 0.5502 0.99047 0.18173 0.0
C945 C 0.56066 0.00209 0.18219 0.0
C946 C 0.56283 0.00937 0.19619 0.0
C947 C 0.55499 0.00494 0.20967 0.0
C948 C 0.54438 0.98709 0.23774 0.0
C949 C 0.54963 0.99648 0.24942 0.0
C950 C 0.55787 0.99665 0.26104 0.0
C951 C 0.56105 0.98754 0.26094 0.0
C952 C 0.55531 0.97788 0.24976 0.0
C953 C 0.54703 0.97765 0.23833 0.0
C954 C 0.52744 0.98936 0.22701 0.0
C955 C 0.51639 0.97931 0.2318 0.0
C956 C 0.50591 0.98019 0.23321 0.0
C957 C 0.50619 0.99116 0.22959 0.0
C958 C 0.51746 0.00144 0.2256 0.0
C959 C 0.52801 1.00058 0.22447 0.0
C960 C 0.45925 0.99639 0.20977 0.0
C961 C 0.45093 0.98776 0.19879 0.0
C962 C 0.44766 0.99142 0.18445 0.0
C963 C 0.45258 0.00384 0.18094 0.0
C964 C 0.46115 0.01251 0.1918 0.0
C965 C 0.46456 0.00881 0.20605 0.0
C966 C 0.45531 0.99304 0.23931 0.0
C967 C 0.45833 0.00427 0.24643 0.0
C968 C 0.45081 0.00493 0.25843 0.0
C969 C 0.44019 0.99437 0.26357 0.0
C970 C 0.4376 0.98308 0.25704 0.0
C971 C 0.44508 0.98246 0.24499 0.0
C972 C 0.47277 0.99224 0.22688 0.0
C973 C 0.47306 0.98179 0.22233 0.0
C974 C 0.48386 0.98147 0.22329 0.0
C975 C 0.49465 0.99159 0.22902 0.0
C976 C 0.49431 0.0021 0.23365 0.0
C977 C 0.48347 0.00245 0.23248 0.0
H978 H 0.44467 0.98629 0.8125 0.0
N979 N 0.46693 0.00359 0.80432 0.0
H980 H 0.43334 0.98509 0.83747 0.0
H981 H 0.47596 0.01861 0.83102 0.0
H982 H 0.46481 0.0173 0.85613 0.0
H983 H 0.47062 0.0266 0.80366 0.0
H984 H 0.46072 0.03399 0.78479 0.0
H985 H 0.45588 0.99316 0.77641 0.0
H986 H 0.44634 1.00058 0.7571 0.0
H987 H 0.47036 0.98519 0.79762 0.0
H988 H 0.48953 0.02338 0.80902 0.0
H989 H 0.48953 0.9852 0.79674 0.0
H990 H 0.50883 0.0234 0.80948 0.0
H991 H 0.54944 0.98422 0.81303 0.0
H992 H 0.55993 0.98402 0.83812 0.0
H993 H 0.56241 0.01777 0.85324 0.0
H994 H 0.5516 0.01767 0.82825 0.0
H995 H 0.56374 0.02466 0.80266 0.0
H996 H 0.58111 0.0326 0.78394 0.0
H997 H 0.56313 0.99924 0.7561 0.0
H998 H 0.54586 0.99123 0.77514 0.0
H999 H 0.5227 0.98443 0.8128 0.0
H1000 H 0.50418 0.98561 0.81372 0.0
H1001 H 0.524 0.02227 0.7946 0.0
N1002 N 0.54465 0.00125 0.80317 0.0
H1003 H 0.54267 0.02126 0.7949 0.0
C1004 C 0.46117 0.00241 0.81996 0.0
C1005 C 0.44915 0.99297 0.8221 0.0
C1006 C 0.44269 0.99235 0.83627 0.0
C1007 C 0.44821 0.00111 0.84869 0.0
C1008 C 0.46039 0.01037 0.84679 0.0
C1009 C 0.46679 0.0111 0.83246 0.0
C1010 C 0.46381 0.00927 0.79147 0.0
C1011 C 0.46557 0.02103 0.79329 0.0
C1012 C 0.45993 0.02524 0.78246 0.0
C1013 C 0.45253 0.01776 0.76962 0.0
C1014 C 0.45173 0.00644 0.76708 0.0
C1015 C 0.45727 0.00223 0.77796 0.0
C1016 C 0.47852 0.00417 0.80371 0.0
C1017 C 0.47876 0.99355 0.80015 0.0
C1018 C 0.48975 0.99358 0.79984 0.0
C1019 C 0.50082 0.00425 0.80341 0.0
C1020 C 0.50056 0.01501 0.80663 0.0
C1021 C 0.48951 0.015 0.80661 0.0
C1022 C 0.54976 0.00091 0.81882 0.0
C1023 C 0.55211 0.99146 0.82191 0.0
C1024 C 0.55821 0.99144 0.83615 0.0
C1025 C 0.56214 0.00095 0.84761 0.0
C1026 C 0.55944 0.01027 0.84473 0.0
C1027 C 0.5533 0.01025 0.83044 0.0
C1028 C 0.55355 0.00724 0.79038 0.0
C1029 C 0.5634 0.01914 0.79235 0.0
C1030 C 0.57333 0.02367 0.78166 0.0
C1031 C 0.5735 0.01648 0.76868 0.0
C1032 C 0.56321 0.005 0.76594 0.0
C1033 C 0.55335 1.00042 0.77678 0.0
C1034 C 0.53404 0.00262 0.80358 0.0
C1035 C 0.52303 0.99274 0.80889 0.0
C1036 C 0.51242 0.99341 0.80923 0.0
C1037 C 0.51244 0.00396 0.8039 0.0
C1038 C 0.52358 0.01401 0.79888 0.0
C1039 C 0.5343 0.0134 0.79888 0.0
H1040 H 0.97194 0.5462 0.82429 0.0
N1041 N 0.98345 0.53633 0.80939 0.0
H1042 H 0.97887 0.55992 0.84803 0.0
H1043 H 0.00429 0.54334 0.82709 0.0
H1044 H 0.01104 0.55672 0.8513 0.0
H1045 H 0.00377 0.55698 0.799 0.0
H1046 H 0.00439 0.57041 0.77725 0.0
H1047 H 0.9669 0.53067 0.78591 0.0
H1048 H 0.96769 0.54357 0.76318 0.0
H1049 H 0.96985 0.51596 0.82581 0.0
H1050 H 1.00018 0.53288 0.79249 0.0
H1051 H 0.97121 0.49754 0.82596 0.0
H1052 H 0.00113 0.51413 0.79154 0.0
H1053 H 0.97269 0.43717 0.8232 0.0
H1054 H 0.97722 0.42941 0.8482 0.0
H1055 H 0.00942 0.46434 0.8559 0.0
H1056 H 0.00507 0.47194 0.83073 0.0
H1057 H 0.00688 0.45803 0.804 0.0
H1058 H 0.00955 0.44606 0.78287 0.0
H1059 H 0.97564 0.43875 0.76045 0.0
H1060 H 0.9726 0.44986 0.7826 0.0
H1061 H 0.96701 0.4619 0.81106 0.0
H1062 H 0.96671 0.48089 0.80999 0.0
H1063 H 0.00593 0.50078 0.80514 0.0
N1064 N 0.98611 0.45887 0.80949 0.0
H1065 H 0.00588 0.48147 0.80498 0.0
C1066 C 0.98749 0.54365 0.82407 0.0
C1067 C 0.98044 0.54841 0.8302 0.0
C1068 C 0.98442 0.55625 0.84365 0.0
C1069 C 0.99546 0.55931 0.8514 0.0
C1070 C 0.00246 0.55439 0.84552 0.0
C1071 C 0.9986 0.54674 0.83177 0.0
C1072 C 0.98513 0.54296 0.79433 0.0
C1073 C 0.99592 0.55394 0.7911 0.0
C1074 C 0.99628 0.56159 0.7785 0.0
C1075 C 0.98597 0.55827 0.76861 0.0
C1076 C 0.97566 0.54668 0.77088 0.0
C1077 C 0.97522 0.53918 0.78371 0.0
C1078 C 0.98473 0.52568 0.80897 0.0
C1079 C 0.97672 0.5156 0.81835 0.0
C1080 C 0.97746 0.50502 0.81826 0.0
C1081 C 0.98612 0.50415 0.80847 0.0
C1082 C 0.99436 0.51442 0.79928 0.0
C1083 C 0.99376 0.52514 0.79966 0.0
C1084 C 0.9884 0.45514 0.82517 0.0
C1085 C 0.98063 0.44318 0.83041 0.0
C1086 C 0.98327 0.43875 0.84458 0.0
C1087 C 0.99366 0.44629 0.85392 0.0
C1088 C 0.00129 0.45839 0.84896 0.0
C1089 C 0.99877 0.46275 0.83459 0.0
C1090 C 0.98935 0.45455 0.7951 0.0
C1091 C 1.00009 0.45395 0.79444 0.0
C1092 C 0.00164 0.44714 0.78218 0.0
C1093 C 0.99265 0.44109 0.77006 0.0
C1094 C 0.98254 0.44283 0.76988 0.0
C1095 C 0.98086 0.44935 0.78238 0.0
C1096 C 0.98644 0.47033 0.80844 0.0
C1097 C 0.97551 0.47038 0.80969 0.0
C1098 C 0.97541 0.4813 0.80925 0.0
C1099 C 0.98633 0.49251 0.80786 0.0
C1100 C 0.99732 0.49239 0.80618 0.0
C1101 C 0.99736 0.48137 0.80629 0.0
H1102 H 0.46818 0.45421 0.81889 0.0
N1103 N 0.46967 0.4748 0.80602 0.0
H1104 H 0.45884 0.4446 0.84488 0.0
H1105 H 0.46151 0.48358 0.82931 0.0
H1106 H 0.45253 0.47426 0.85579 0.0
H1107 H 0.44766 0.4674 0.79409 0.0
H1108 H 0.43614 0.45088 0.77489 0.0
H1109 H 0.4786 0.46241 0.78871 0.0
H1110 H 0.46748 0.4464 0.76853 0.0
H1111 H 0.48886 0.47391 0.8204 0.0
H1112 H 0.47972 0.4949 0.78791 0.0
H1113 H 0.51009 0.48962 0.81952 0.0
H1114 H 0.50122 0.51034 0.78581 0.0
H1115 H 0.57572 0.54121 0.82576 0.0
H1116 H 0.58356 0.55221 0.85164 0.0
H1117 H 0.55503 0.56128 0.85155 0.0
H1118 H 0.54749 0.5506 0.82567 0.0
H1119 H 0.55715 0.56034 0.79965 0.0
H1120 H 0.5703 0.57569 0.77977 0.0
H1121 H 0.58541 0.55322 0.76582 0.0
H1122 H 0.57211 0.53782 0.78573 0.0
H1123 H 0.54919 0.51588 0.8082 0.0
H1124 H 0.52812 0.49947 0.80555 0.0
H1125 H 0.51675 0.52616 0.79987 0.0
N1126 N 0.55763 0.53963 0.8076 0.0
H1127 H 0.53787 0.5423 0.8011 0.0
C1128 C 0.46542 0.46959 0.82209 0.0
C1129 C 0.46484 0.45868 0.8269 0.0
C1130 C 0.45958 0.45324 0.84187 0.0
C1131 C 0.45485 0.4586 0.85243 0.0
C1132 C 0.45587 0.46975 0.84784 0.0
C1133 C 0.46109 0.47516 0.83281 0.0
C1134 C 0.46398 0.46624 0.79276 0.0
C1135 C 0.45207 0.46295 0.78833 0.0
C1136 C 0.44553 0.45352 0.77724 0.0
C1137 C 0.45082 0.44721 0.77001 0.0
C1138 C 0.46299 0.45085 0.774 0.0
C1139 C 0.46946 0.46017 0.78539 0.0
C1140 C 0.48256 0.48335 0.8045 0.0
C1141 C 0.4914 0.48184 0.8129 0.0
C1142 C 0.50368 0.49085 0.81219 0.0
C1143 C 0.50752 0.50143 0.80269 0.0
C1144 C 0.49868 0.50256 0.79364 0.0
C1145 C 0.48637 0.49367 0.79467 0.0
C1146 C 0.56101 0.54498 0.82373 0.0
C1147 C 0.57107 0.54543 0.83149 0.0
C1148 C 0.57551 0.55169 0.84629 0.0
C1149 C 0.56994 0.55767 0.85365 0.0
C1150 C 0.55963 0.55692 0.8461 0.0
C1151 C 0.55522 0.55068 0.83129 0.0
C1152 C 0.56369 0.54791 0.79422 0.0
C1153 C 0.56307 0.55856 0.79209 0.0
C1154 C 0.57067 0.56739 0.78078 0.0
C1155 C 0.57898 0.56572 0.77132 0.0
C1156 C 0.57904 0.55474 0.7728 0.0
C1157 C 0.57149 0.54595 0.78418 0.0
C1158 C 0.54512 0.5303 0.80516 0.0
C1159 C 0.54211 0.51812 0.8062 0.0
C1160 C 0.53001 0.50876 0.80485 0.0
C1161 C 0.52056 0.51138 0.80275 0.0
C1162 C 0.52369 0.52367 0.80131 0.0
C1163 C 0.53583 0.53301 0.80228 0.0
H1164 H 0.71631 0.91332 0.54322 0.0
N1165 N 0.6993 0.89354 0.55815 0.0
H1166 H 0.71429 0.92267 0.51798 0.0
H1167 H 0.6795 0.88373 0.53733 0.0
H1168 H 0.67749 0.89292 0.51218 0.0
H1169 H 0.67802 0.89335 0.56439 0.0
H1170 H 0.67499 0.90547 0.58506 0.0
H1171 H 0.71455 0.90664 0.58192 0.0
H1172 H 0.71175 0.91908 0.60242 0.0
H1173 H 0.71401 0.8844 0.55741 0.0
H1174 H 0.67631 0.87405 0.56285 0.0
H1175 H 0.70861 0.86312 0.55973 0.0
H1176 H 0.67067 0.85277 0.56396 0.0
H1177 H 0.69187 0.80202 0.54814 0.0
H1178 H 0.69082 0.79159 0.52258 0.0
H1179 H 0.65514 0.78647 0.51304 0.0
H1180 H 0.65604 0.79665 0.5391 0.0
H1181 H 0.65822 0.78564 0.57881 0.0
H1182 H 0.66309 0.77484 0.59962 0.0
H1183 H 0.70119 0.80186 0.59555 0.0
H1184 H 0.6962 0.81266 0.57481 0.0
H1185 H 0.6938 0.82334 0.54619 0.0
H1186 H 0.69991 0.84478 0.5459 0.0
H1187 H 0.67056 0.83748 0.57932 0.0
N1188 N 0.67366 0.80497 0.56155 0.0
H1189 H 0.66401 0.81586 0.57851 0.0
C1190 C 0.69817 0.89779 0.54217 0.0
C1191 C 0.7079 0.90873 0.53632 0.0
C1192 C 0.70669 0.91409 0.52201 0.0
C1193 C 0.69572 0.90853 0.51316 0.0
C1194 C 0.6861 0.89734 0.51867 0.0
C1195 C 0.68726 0.89206 0.53311 0.0
C1196 C 0.69654 0.89907 0.57167 0.0
C1197 C 0.68531 0.89867 0.57291 0.0
C1198 C 0.68364 0.90573 0.58464 0.0
C1199 C 0.69316 0.91335 0.59531 0.0
C1200 C 0.70417 0.91323 0.59454 0.0
C1201 C 0.70581 0.90616 0.58282 0.0
C1202 C 0.69562 0.88085 0.55975 0.0
C1203 C 0.70455 0.8775 0.55895 0.0
C1204 C 0.7014 0.86529 0.56013 0.0
C1205 C 0.68916 0.85609 0.56191 0.0
C1206 C 0.68021 0.85953 0.56285 0.0
C1207 C 0.68342 0.87177 0.56199 0.0
C1208 C 0.67387 0.79991 0.54575 0.0
C1209 C 0.68378 0.79864 0.54068 0.0
C1210 C 0.6832 0.79269 0.52602 0.0
C1211 C 0.67286 0.78814 0.51596 0.0
C1212 C 0.66322 0.78991 0.5206 0.0
C1213 C 0.66371 0.79569 0.53544 0.0
C1214 C 0.6768 0.79988 0.57524 0.0
C1215 C 0.66758 0.78934 0.58268 0.0
C1216 C 0.67038 0.78322 0.59457 0.0
C1217 C 0.68253 0.78747 0.59916 0.0
C1218 C 0.69176 0.79831 0.59214 0.0
C1219 C 0.68892 0.80452 0.58035 0.0
C1220 C 0.67823 0.81791 0.56213 0.0
C1221 C 0.68862 0.82631 0.55337 0.0
C1222 C 0.6922 0.83867 0.55338 0.0
C1223 C 0.68568 0.84297 0.56246 0.0
C1224 C 0.67563 0.83455 0.57179 0.0
C1225 C 0.67192 0.82218 0.5715 0.0
H1226 H 0.22576 0.88843 0.54943 0.0
N1227 N 0.20568 0.88975 0.5583 0.0
H1228 H 0.23735 0.89619 0.52414 0.0
H1229 H 0.19951 0.89783 0.53209 0.0
H1230 H 0.21067 0.90506 0.50627 0.0
H1231 H 0.20564 0.90942 0.5689 0.0
H1232 H 0.21982 0.92463 0.58834 0.0
H1233 H 0.22189 0.88729 0.57808 0.0
H1234 H 0.23599 0.90234 0.59748 0.0
H1235 H 0.2095 0.87059 0.5633 0.0
H1236 H 0.1818 0.88042 0.55839 0.0
H1237 H 0.19396 0.84936 0.56654 0.0
H1238 H 0.16607 0.85906 0.56014 0.0
H1239 H 0.13725 0.78039 0.55113 0.0
H1240 H 0.12706 0.77093 0.52537 0.0
H1241 H 0.12461 0.80282 0.5137 0.0
H1242 H 0.13434 0.81194 0.53984 0.0
H1243 H 0.11985 0.80129 0.56457 0.0
H1244 H 0.10339 0.7901 0.5839 0.0
H1245 H 0.12633 0.78028 0.61139 0.0
H1246 H 0.14256 0.79096 0.59121 0.0
H1247 H 0.16425 0.81124 0.55289 0.0
H1248 H 0.17997 0.83262 0.55224 0.0
H1249 H 0.15524 0.84196 0.57582 0.0
N1250 N 0.14152 0.80149 0.56349 0.0
H1251 H 0.13938 0.82075 0.5752 0.0
C1252 C 0.21185 0.89275 0.54273 0.0
C1253 C 0.22237 0.89199 0.54007 0.0
C1254 C 0.22896 0.89635 0.52547 0.0
C1255 C 0.22506 0.90142 0.51318 0.0
C1256 C 0.21414 0.90152 0.51559 0.0
C1257 C 0.20766 0.89729 0.53025 0.0
C1258 C 0.21264 0.89722 0.57196 0.0
C1259 C 0.21205 0.9077 0.57543 0.0
C1260 C 0.22016 0.91637 0.58654 0.0
C1261 C 0.22911 0.91474 0.59434 0.0
C1262 C 0.22931 0.90393 0.59148 0.0
C1263 C 0.22114 0.89524 0.58042 0.0
C1264 C 0.1968 0.87717 0.56104 0.0
C1265 C 0.20007 0.86822 0.56314 0.0
C1266 C 0.19108 0.85596 0.56465 0.0
C1267 C 0.17863 0.85233 0.56357 0.0
C1268 C 0.17547 0.8614 0.56144 0.0
C1269 C 0.18446 0.87364 0.56031 0.0
C1270 C 0.13665 0.79686 0.54737 0.0
C1271 C 0.13464 0.78537 0.54288 0.0
C1272 C 0.12885 0.78002 0.52811 0.0
C1273 C 0.125 0.7861 0.51738 0.0
C1274 C 0.1273 0.79779 0.52173 0.0
C1275 C 0.133 0.80309 0.53661 0.0
C1276 C 0.13241 0.79678 0.57629 0.0
C1277 C 0.12139 0.7968 0.5748 0.0
C1278 C 0.11198 0.79047 0.58604 0.0
C1279 C 0.11341 0.78411 0.59919 0.0
C1280 C 0.12475 0.78479 0.60122 0.0
C1281 C 0.13411 0.79101 0.58982 0.0
C1282 C 0.15065 0.81427 0.56417 0.0
C1283 C 0.16226 0.81794 0.55791 0.0
C1284 C 0.17129 0.8302 0.55772 0.0
C1285 C 0.16901 0.83917 0.56409 0.0
C1286 C 0.15736 0.83543 0.57055 0.0
C1287 C 0.14824 0.82317 0.57038 0.0
H1288 H 0.20452 0.30493 0.54011 0.0
N1289 N 0.20264 0.3214 0.55784 0.0
H1290 H 0.2157 0.30808 0.51444 0.0
H1291 H 0.21354 0.34244 0.53956 0.0
H1292 H 0.22436 0.34557 0.5138 0.0
H1293 H 0.22358 0.34249 0.56575 0.0
H1294 H 0.2387 0.3446 0.58597 0.0
H1295 H 0.20045 0.30508 0.57991 0.0
H1296 H 0.21563 0.30705 0.60008 0.0
H1297 H 0.17882 0.30641 0.55615 0.0
H1298 H 0.20567 0.34391 0.56482 0.0
H1299 H 0.16264 0.31138 0.55847 0.0
H1300 H 0.18976 0.34918 0.56593 0.0
H1301 H 0.11937 0.32667 0.54408 0.0
H1302 H 0.10998 0.32814 0.5188 0.0
H1303 H 0.13677 0.36636 0.51554 0.0
H1304 H 0.14635 0.36469 0.54077 0.0
H1305 H 0.1335 0.36007 0.57717 0.0
H1306 H 0.11658 0.35433 0.59621 0.0
H1307 H 0.10655 0.31661 0.59131 0.0
H1308 H 0.12364 0.32249 0.5724 0.0
H1309 H 0.13796 0.32609 0.54385 0.0
H1310 H 0.15351 0.32041 0.54433 0.0
H1311 H 0.17372 0.34849 0.58028 0.0
N1312 N 0.13855 0.34539 0.56023 0.0
H1313 H 0.15839 0.35469 0.57877 0.0
C1314 C 0.20809 0.32336 0.54178 0.0
C1315 C 0.20869 0.31377 0.53427 0.0
C1316 C 0.21505 0.31559 0.51957 0.0
C1317 C 0.22097 0.32711 0.51206 0.0
C1318 C 0.22006 0.33664 0.51937 0.0
C1319 C 0.21374 0.33481 0.5341 0.0
C1320 C 0.21084 0.32357 0.57132 0.0
C1321 C 0.22162 0.33479 0.57343 0.0
C1322 C 0.23033 0.33595 0.58491 0.0
C1323 C 0.22843 0.32596 0.59453 0.0
C1324 C 0.21735 0.31496 0.59299 0.0
C1325 C 0.20867 0.3138 0.58147 0.0
C1326 C 0.19344 0.32475 0.56009 0.0
C1327 C 0.18121 0.31574 0.55847 0.0
C1328 C 0.17198 0.31865 0.55963 0.0
C1329 C 0.17481 0.33074 0.56218 0.0
C1330 C 0.18713 0.33974 0.56415 0.0
C1331 C 0.19633 0.33676 0.5633 0.0
C1332 C 0.13364 0.34561 0.54432 0.0
C1333 C 0.12337 0.33532 0.53782 0.0
C1334 C 0.11792 0.33621 0.5234 0.0
C1335 C 0.12253 0.3474 0.51521 0.0
C1336 C 0.13304 0.35758 0.52143 0.0
C1337 C 0.13852 0.35666 0.53585 0.0
C1338 C 0.12981 0.34176 0.57336 0.0
C1339 C 0.1278 0.3506 0.58051 0.0
C1340 C 0.11809 0.34729 0.59125 0.0
C1341 C 0.11014 0.335 0.59507 0.0
C1342 C 0.11255 0.32615 0.58864 0.0
C1343 C 0.12229 0.3295 0.57782 0.0
C1344 C 0.1471 0.34105 0.56107 0.0
C1345 C 0.14572 0.33112 0.55177 0.0
C1346 C 0.15464 0.32775 0.55223 0.0
C1347 C 0.16502 0.33401 0.56228 0.0
C1348 C 0.16607 0.34362 0.57206 0.0
C1349 C 0.15726 0.34712 0.57135 0.0
H1350 H 0.99265 0.37972 0.0656 0.0
H1351 H 0.99305 0.39198 0.08903 0.0
H1352 H 0.03054 0.4183 0.07854 0.0
H1353 H 0.03028 0.40595 0.05543 0.0
H1354 H 0.0277 0.41465 0.11027 0.0
H1355 H 0.00683 0.42311 0.06789 0.0
H1356 H 0.99119 0.41819 0.04666 0.0
H1357 H 0.9631 0.40143 0.08301 0.0
H1358 H 0.97857 0.40611 0.10444 0.0
H1359 H 0.03126 0.46323 0.1582 0.0
H1360 H 0.0309 0.45084 0.13499 0.0
H1361 H 0.99462 0.42295 0.14825 0.0
H1362 H 0.99497 0.43511 0.17163 0.0
H1363 H 0.9969 0.42755 0.11517 0.0
H1364 H 0.01836 0.41952 0.15757 0.0
H1365 H 0.03437 0.42503 0.17842 0.0
H1366 H 0.06187 0.44182 0.14129 0.0
H1367 H 0.04601 0.43655 0.12025 0.0
C1368 C 0.00098 0.3881 0.06835 0.0
C1369 C 0.01142 0.3919 0.05866 0.0
C1370 C 0.00119 0.39513 0.08168 0.0
C1371 C 0.01178 0.40617 0.08542 0.0
C1372 C 0.02226 0.40984 0.07591 0.0
C1373 C 0.02209 0.40278 0.06267 0.0
C1374 C 0.01196 0.41395 0.09917 0.0
C1375 C 0.02105 0.41759 0.11121 0.0
C1376 C 0.00318 0.41765 0.10058 0.0
C1377 C 0.99386 0.41486 0.08774 0.0
C1378 C 0.99731 0.4183 0.07134 0.0
C1379 C 0.98848 0.41556 0.05927 0.0
C1380 C 0.97616 0.40947 0.06348 0.0
C1381 C 0.97264 0.40613 0.07977 0.0
C1382 C 0.98144 0.40883 0.09188 0.0
C1383 C 0.02323 0.45443 0.15625 0.0
C1384 C 0.01315 0.45018 0.16682 0.0
C1385 C 0.02303 0.44738 0.14295 0.0
C1386 C 0.01277 0.43593 0.13998 0.0
C1387 C 0.00262 0.43177 0.15029 0.0
C1388 C 0.00282 0.43878 0.16361 0.0
C1389 C 0.01262 0.42821 0.12621 0.0
C1390 C 0.00354 0.4246 0.11419 0.0
C1391 C 0.02146 0.42462 0.12474 0.0
C1392 C 0.031 0.42775 0.13736 0.0
C1393 C 0.02782 0.42447 0.15387 0.0
C1394 C 0.03687 0.42754 0.16572 0.0
C1395 C 0.04913 0.4338 0.16119 0.0
C1396 C 0.05237 0.43698 0.14479 0.0
C1397 C 0.04335 0.43395 0.13289 0.0
H1398 H 0.05612 0.43616 0.17038 0.0
H1399 H 0.96933 0.40736 0.05412 0.0
H1400 H 0.63715 0.61557 0.05816 0.0
H1401 H 0.62512 0.60301 0.0814 0.0
H1402 H 0.60722 0.6241 0.08522 0.0
H1403 H 0.61901 0.63651 0.06182 0.0
H1404 H 0.61604 0.61967 0.11593 0.0
H1405 H 0.59198 0.59854 0.06841 0.0
H1406 H 0.58854 0.58875 0.04129 0.0
H1407 H 0.59765 0.56298 0.06088 0.0
H1408 H 0.60133 0.57274 0.08809 0.0
H1409 H 0.56846 0.58345 0.17006 0.0
H1410 H 0.5799 0.59519 0.14627 0.0
H1411 H 0.59062 0.56864 0.13583 0.0
H1412 H 0.57849 0.55637 0.15898 0.0
H1413 H 0.58597 0.57588 0.10837 0.0
H1414 H 0.60989 0.59625 0.15565 0.0
H1415 H 0.61409 0.60599 0.1829 0.0
H1416 H 0.60652 0.63308 0.16425 0.0
H1417 H 0.6021 0.62341 0.13694 0.0
C1418 C 0.63068 0.61754 0.06401 0.0
C1419 C 0.62898 0.62699 0.05819 0.0
C1420 C 0.62381 0.61035 0.07722 0.0
C1421 C 0.61527 0.61262 0.08495 0.0
C1422 C 0.61377 0.62222 0.0794 0.0
C1423 C 0.62047 0.62927 0.06602 0.0
C1424 C 0.60778 0.60489 0.0987 0.0
C1425 C 0.60937 0.61012 0.11429 0.0
C1426 C 0.59933 0.59238 0.09656 0.0
C1427 C 0.59706 0.58646 0.08024 0.0
C1428 C 0.59336 0.59086 0.0669 0.0
C1429 C 0.59135 0.5853 0.05152 0.0
C1430 C 0.59291 0.57527 0.04935 0.0
C1431 C 0.59646 0.57076 0.06258 0.0
C1432 C 0.59851 0.5763 0.07798 0.0
C1433 C 0.57302 0.57993 0.16254 0.0
C1434 C 0.57256 0.56894 0.16657 0.0
C1435 C 0.57973 0.58678 0.14905 0.0
C1436 C 0.58638 0.58296 0.13946 0.0
C1437 C 0.58567 0.57184 0.14312 0.0
C1438 C 0.57881 0.56489 0.1565 0.0
C1439 C 0.59417 0.59064 0.12574 0.0
C1440 C 0.59266 0.58541 0.11011 0.0
C1441 C 0.60281 0.60314 0.1279 0.0
C1442 C 0.60555 0.60904 0.14429 0.0
C1443 C 0.60904 0.60424 0.15739 0.0
C1444 C 0.61147 0.60975 0.17284 0.0
C1445 C 0.61054 0.62013 0.17531 0.0
C1446 C 0.60722 0.62504 0.16232 0.0
C1447 C 0.60476 0.61955 0.14685 0.0
H1448 H 0.61243 0.62438 0.18729 0.0
H1449 H 0.59134 0.57098 0.03744 0.0
H1450 H 0.40933 0.01177 0.04354 0.0
H1451 H 0.42107 0.01204 0.06741 0.0
H1452 H 0.40309 0.02635 0.09713 0.0
H1453 H 0.39108 0.02595 0.07322 0.0
H1454 H 0.43037 0.03685 0.10224 0.0
H1455 H 0.39187 0.99912 0.10102 0.0
H1456 H 0.37571 0.98072 0.0875 0.0
H1457 H 0.40132 0.96898 0.07688 0.0
H1458 H 0.41768 0.98743 0.0901 0.0
H1459 H 0.44463 0.02017 0.17957 0.0
H1460 H 0.43553 0.02468 0.15608 0.0
H1461 H 0.44192 1.00055 0.12589 0.0
H1462 H 0.45066 0.99575 0.14949 0.0
H1463 H 0.41999 0.99573 0.1215 0.0
H1464 H 0.4585 0.0327 0.12216 0.0
H1465 H 0.47545 0.05133 0.13414 0.0
H1466 H 0.45119 0.06479 0.14443 0.0
H1467 H 0.43405 0.04615 0.13271 0.0
C1468 C 0.40798 0.01516 0.05507 0.0
C1469 C 0.39921 0.01875 0.05654 0.0
C1470 C 0.41471 0.01531 0.06869 0.0
C1471 C 0.41288 0.01914 0.084 0.0
C1472 C 0.40463 0.02339 0.08537 0.0
C1473 C 0.39777 0.02312 0.07174 0.0
C1474 C 0.41879 0.0176 0.09873 0.0
C1475 C 0.42802 0.02789 0.10667 0.0
C1476 C 0.41589 0.00589 0.10415 0.0
C1477 C 0.40602 0.99471 0.09641 0.0
C1478 C 0.39408 0.99266 0.09568 0.0
C1479 C 0.38488 0.98222 0.08809 0.0
C1480 C 0.38749 0.9737 0.0813 0.0
C1481 C 0.39931 0.97559 0.08213 0.0
C1482 C 0.40855 0.98604 0.08968 0.0
C1483 C 0.44427 0.016 0.16783 0.0
C1484 C 0.44833 0.0076 0.16633 0.0
C1485 C 0.43908 0.01859 0.1544 0.0
C1486 C 0.4381 0.01303 0.13913 0.0
C1487 C 0.44252 0.00493 0.13754 0.0
C1488 C 0.44753 0.0022 0.15101 0.0
C1489 C 0.4318 0.01501 0.12508 0.0
C1490 C 0.42241 0.00475 0.11722 0.0
C1491 C 0.43469 0.02676 0.11966 0.0
C1492 C 0.44497 0.03797 0.12671 0.0
C1493 C 0.45676 0.03959 0.1271 0.0
C1494 C 0.4664 0.05016 0.13382 0.0
C1495 C 0.46439 0.05922 0.14009 0.0
C1496 C 0.45273 0.05775 0.1396 0.0
C1497 C 0.44305 0.04719 0.13291 0.0
H1498 H 0.47187 0.0674 0.14528 0.0
H1499 H 0.38036 0.96562 0.07543 0.0
H1500 H 0.37652 0.00492 0.95828 0.0
H1501 H 0.38697 0.00336 0.93388 0.0
H1502 H 0.41177 0.99854 0.96484 0.0
H1503 H 0.40137 1.00001 0.98919 0.0
H1504 H 0.4234 0.01649 0.94101 0.0
H1505 H 0.39048 0.9749 0.94455 0.0
H1506 H 0.36893 0.95877 0.94607 0.0
H1507 H 0.36194 0.97031 0.89983 0.0
H1508 H 0.38342 0.98662 0.89815 0.0
H1509 H 0.45441 0.00226 0.881 0.0
H1510 H 0.44261 0.00197 0.90494 0.0
H1511 H 0.41444 0.99966 0.87292 0.0
H1512 H 0.426 0.99943 0.84905 0.0
H1513 H 0.40417 0.98545 0.89721 0.0
H1514 H 0.43602 0.02687 0.89293 0.0
H1515 H 0.45713 0.04389 0.8908 0.0
H1516 H 0.46566 0.03416 0.93735 0.0
H1517 H 0.44464 0.01697 0.93965 0.0
C1518 C 0.38411 0.00338 0.95986 0.0
C1519 C 0.38813 0.00258 0.97564 0.0
C1520 C 0.39006 0.00248 0.94593 0.0
C1521 C 0.40014 0.00083 0.94757 0.0
C1522 C 0.40402 0.99984 0.96331 0.0
C1523 C 0.39804 1.00063 0.9772 0.0
C1524 C 0.40697 1.00061 0.93296 0.0
C1525 C 0.41926 0.00962 0.93151 0.0
C1526 C 0.40143 0.99189 0.92034 0.0
C1527 C 0.38853 0.98205 0.92131 0.0
C1528 C 0.38433 0.97406 0.93478 0.0
C1529 C 0.37213 0.96487 0.93565 0.0
C1530 C 0.36406 0.96354 0.92307 0.0
C1531 C 0.36819 0.97136 0.90957 0.0
C1532 C 0.38038 0.98057 0.90865 0.0
C1533 C 0.44569 0.0017 0.87913 0.0
C1534 C 0.4411 0.00088 0.86322 0.0
C1535 C 0.43898 0.00159 0.89279 0.0
C1536 C 0.4277 0.00101 0.89077 0.0
C1537 C 0.42309 1.0001 0.87484 0.0
C1538 C 0.4297 0.99998 0.86121 0.0
C1539 C 0.4207 0.00132 0.90522 0.0
C1540 C 0.40836 0.99235 0.90665 0.0
C1541 C 0.42614 0.01022 0.91771 0.0
C1542 C 0.43879 0.02056 0.91638 0.0
C1543 C 0.44242 0.02831 0.90265 0.0
C1544 C 0.45437 0.03799 0.90143 0.0
C1545 C 0.46274 0.04009 0.91391 0.0
C1546 C 0.45917 0.03252 0.92768 0.0
C1547 C 0.44724 0.02281 0.92895 0.0
H1548 H 0.47198 0.04759 0.91294 0.0
H1549 H 0.35463 0.95642 0.92377 0.0
H1550 H 0.01685 0.38611 0.95983 0.0
H1551 H 0.01509 0.39751 0.9369 0.0
H1552 H 0.00633 0.41813 0.97072 0.0
H1553 H 0.0075 0.4063 0.99358 0.0
H1554 H 0.99169 0.41199 0.94684 0.0
H1555 H 0.03479 0.43033 0.94972 0.0
H1556 H 0.05463 0.43125 0.95096 0.0
H1557 H 0.04797 0.41397 0.90383 0.0
H1558 H 0.02801 0.41278 0.90239 0.0
H1559 H 0.99872 0.45555 0.88502 0.0
H1560 H 0.00328 0.44693 0.90917 0.0
H1561 H 1.00041 0.41755 0.87946 0.0
H1562 H 0.99561 0.42598 0.85541 0.0
H1563 H 0.02183 0.4297 0.90172 0.0
H1564 H 0.97777 0.41081 0.9008 0.0
H1565 H 0.95858 0.41123 0.90016 0.0
H1566 H 0.96845 0.43173 0.94499 0.0
H1567 H 0.9878 0.43159 0.94576 0.0
C1568 C 0.01467 0.39316 0.96236 0.0
C1569 C 0.01232 0.39533 0.97847 0.0
C1570 C 0.01373 0.39974 0.94925 0.0
C1571 C 0.01074 0.40884 0.95204 0.0
C1572 C 0.00864 0.41116 0.96821 0.0
C1573 C 0.00935 0.40443 0.98128 0.0
C1574 C 0.00918 0.41548 0.93805 0.0
C1575 C 0.99842 0.41605 0.93717 0.0
C1576 C 0.01784 0.42067 0.92522 0.0
C1577 C 0.02985 0.42137 0.92602 0.0
C1578 C 0.03751 0.42664 0.93967 0.0
C1579 C 0.04879 0.42722 0.9404 0.0
C1580 C 0.05254 0.42264 0.9275 0.0
C1581 C 0.04504 0.4175 0.91382 0.0
C1582 C 0.03375 0.41688 0.91303 0.0
C1583 C 0.99912 0.44728 0.88368 0.0
C1584 C 0.99675 0.44137 0.86843 0.0
C1585 C 0.0017 0.44238 0.89743 0.0
C1586 C 0.00217 0.43161 0.89604 0.0
C1587 C 1.00011 0.42587 0.88074 0.0
C1588 C 0.9973 0.43064 0.86707 0.0
C1589 C 0.0044 0.42609 0.91064 0.0
C1590 C 0.01523 0.42573 0.91156 0.0
C1591 C 0.99594 0.42129 0.92365 0.0
C1592 C 0.98429 0.42132 0.92323 0.0
C1593 C 0.9759 0.41551 0.91044 0.0
C1594 C 0.96499 0.41567 0.91006 0.0
C1595 C 0.96231 0.42153 0.9225 0.0
C1596 C 0.97054 0.42721 0.93535 0.0
C1597 C 0.98148 0.42709 0.93577 0.0
H1598 H 0.95385 0.42165 0.92219 0.0
H1599 H 0.06127 0.42311 0.92809 0.0
H1600 H 0.62234 0.63917 0.96762 0.0
H1601 H 0.61019 0.62626 0.94471 0.0
H1602 H 0.61534 0.59724 0.96269 0.0
H1603 H 0.62722 0.60995 0.98568 0.0
H1604 H 0.61629 0.61632 0.92032 0.0
H1605 H 0.59101 0.56995 0.95392 0.0
H1606 H 0.58311 0.56202 0.98157 0.0
H1607 H 0.57927 0.59309 0.99141 0.0
H1608 H 0.58698 0.60112 0.96375 0.0
H1609 H 0.57932 0.55238 0.8807 0.0
H1610 H 0.58914 0.56531 0.90459 0.0
H1611 H 0.58203 0.5926 0.88477 0.0
H1612 H 0.5726 0.57993 0.86063 0.0
H1613 H 0.58121 0.57468 0.92817 0.0
H1614 H 0.60586 0.62066 0.89402 0.0
H1615 H 0.61419 0.62865 0.86654 0.0
H1616 H 0.61961 0.59837 0.8581 0.0
H1617 H 0.61147 0.5903 0.8856 0.0
C1618 C 0.62079 0.63001 0.96673 0.0
C1619 C 0.62568 0.62556 0.97847 0.0
C1620 C 0.61388 0.62265 0.95362 0.0
C1621 C 0.61172 0.61072 0.95209 0.0
C1622 C 0.61667 0.60631 0.96378 0.0
C1623 C 0.62351 0.61362 0.97688 0.0
C1624 C 0.60461 0.60296 0.93802 0.0
C1625 C 0.60848 0.6073 0.92205 0.0
C1626 C 0.59459 0.59107 0.94026 0.0
C1627 C 0.58968 0.58618 0.9568 0.0
C1628 C 0.58842 0.57506 0.96195 0.0
C1629 C 0.58399 0.57055 0.97763 0.0
C1630 C 0.58073 0.57706 0.98826 0.0
C1631 C 0.58184 0.58807 0.98319 0.0
C1632 C 0.58625 0.59261 0.96752 0.0
C1633 C 0.5799 0.56116 0.88139 0.0
C1634 C 0.57522 0.56514 0.8687 0.0
C1635 C 0.58542 0.56849 0.89512 0.0
C1636 C 0.58644 0.57998 0.89639 0.0
C1637 C 0.58149 0.58383 0.88396 0.0
C1638 C 0.57598 0.57652 0.87024 0.0
C1639 C 0.59293 0.58803 0.91051 0.0
C1640 C 0.58895 0.58374 0.92648 0.0
C1641 C 0.60286 0.59996 0.90828 0.0
C1642 C 0.60793 0.60481 0.89179 0.0
C1643 C 0.60887 0.61573 0.88632 0.0
C1644 C 0.61355 0.62027 0.87073 0.0
C1645 C 0.61738 0.614 0.86056 0.0
C1646 C 0.61659 0.6032 0.86596 0.0
C1647 C 0.61193 0.59863 0.88154 0.0
H1648 H 0.62099 0.61752 0.84849 0.0
H1649 H 0.57733 0.57357 0.0004 0.0
H1650 H 0.02002 0.64218 0.96002 0.0
H1651 H 0.01901 0.63001 0.93613 0.0
H1652 H 0.00683 0.59851 0.96709 0.0
H1653 H 0.00761 0.61056 0.99102 0.0
H1654 H 0.02545 0.60247 0.94201 0.0
H1655 H 0.98618 0.59982 0.94841 0.0
H1656 H 0.97296 0.60872 0.95161 0.0
H1657 H 0.98587 0.62751 0.90575 0.0
H1658 H 0.99933 0.61887 0.90241 0.0
H1659 H 1.00016 0.55507 0.88258 0.0
H1660 H 0.00512 0.56851 0.90641 0.0
H1661 H 0.00545 0.59621 0.87535 0.0
H1662 H 0.99983 0.58249 0.8518 0.0
H1663 H 0.99368 0.59487 0.90073 0.0
H1664 H 0.03224 0.59768 0.89275 0.0
H1665 H 0.0467 0.59029 0.88905 0.0
H1666 H 0.037 0.57311 0.93633 0.0
H1667 H 0.02236 0.58026 0.94022 0.0
C1668 C 0.01727 0.6327 0.96177 0.0
C1669 C 0.01382 0.62729 0.97735 0.0
C1670 C 0.0167 0.62577 0.94813 0.0
C1671 C 0.01282 0.61338 0.94989 0.0
C1672 C 0.00988 0.60808 0.96553 0.0
C1673 C 0.01027 0.61495 0.97914 0.0
C1674 C 0.011 0.60576 0.93526 0.0
C1675 C 0.01845 0.60068 0.93301 0.0
C1676 C 0.00208 0.60376 0.92337 0.0
C1677 C 0.99385 0.6088 0.92525 0.0
C1678 C 0.98627 0.60593 0.93907 0.0
C1679 C 0.97872 0.61091 0.9409 0.0
C1680 C 0.9786 0.6187 0.92891 0.0
C1681 C 0.98599 0.62149 0.91504 0.0
C1682 C 0.99357 0.61654 0.91317 0.0
C1683 C 0.00144 0.56409 0.8809 0.0
C1684 C 0.99963 0.56779 0.86545 0.0
C1685 C 0.00434 0.5718 0.89447 0.0
C1686 C 0.00582 0.58348 0.89271 0.0
C1687 C 0.00433 0.58725 0.8771 0.0
C1688 C 0.00116 0.57945 0.86364 0.0
C1689 C 0.0082 0.5915 0.90722 0.0
C1690 C 1.00079 0.59666 0.90955 0.0
C1691 C 0.01732 0.59373 0.919 0.0
C1692 C 0.02611 0.58941 0.91671 0.0
C1693 C 0.03312 0.59225 0.90231 0.0
C1694 C 0.04136 0.58812 0.90019 0.0
C1695 C 0.04274 0.58121 0.91243 0.0
C1696 C 0.03591 0.57845 0.92684 0.0
C1697 C 0.02764 0.58255 0.92902 0.0
H1698 H 0.04913 0.57802 0.91077 0.0
H1699 H 0.97275 0.62256 0.93035 0.0
H1700 H 0.40678 0.38983 0.9788 0.0
H1701 H 0.41882 0.40266 0.95593 0.0
H1702 H 0.3926 0.41434 0.94866 0.0
H1703 H 0.38037 0.4013 0.97133 0.0
H1704 H 0.39896 0.40905 0.92009 0.0
H1705 H 0.42039 0.43287 0.96729 0.0
H1706 H 0.43084 0.43673 0.994 0.0
H1707 H 0.45747 0.42946 0.97282 0.0
H1708 H 0.44709 0.42539 0.94602 0.0
H1709 H 0.43425 0.45707 0.8655 0.0
H1710 H 0.423 0.44581 0.88975 0.0
H1711 H 0.449 0.43399 0.89788 0.0
H1712 H 0.46067 0.44573 0.87407 0.0
H1713 H 0.44276 0.43966 0.92623 0.0
H1714 H 0.42127 0.41535 0.87943 0.0
H1715 H 0.41086 0.41119 0.85266 0.0
H1716 H 0.38439 0.41901 0.87305 0.0
H1717 H 0.39473 0.42339 0.8999 0.0
C1718 C 0.40359 0.39515 0.97234 0.0
C1719 C 0.39265 0.39459 0.97688 0.0
C1720 C 0.41051 0.40253 0.95932 0.0
C1721 C 0.40671 0.40961 0.95072 0.0
C1722 C 0.39573 0.40899 0.95515 0.0
C1723 C 0.38876 0.40155 0.96812 0.0
C1724 C 0.41407 0.41749 0.93689 0.0
C1725 C 0.40849 0.41587 0.9215 0.0
C1726 C 0.42659 0.42618 0.93861 0.0
C1727 C 0.4329 0.42872 0.95468 0.0
C1728 C 0.42843 0.43201 0.96835 0.0
C1729 C 0.43435 0.43425 0.9835 0.0
C1730 C 0.4448 0.43332 0.98511 0.0
C1731 C 0.44937 0.43017 0.97156 0.0
C1732 C 0.44348 0.42791 0.95638 0.0
C1733 C 0.43773 0.45228 0.87259 0.0
C1734 C 0.44836 0.45228 0.86775 0.0
C1735 C 0.43119 0.44571 0.88636 0.0
C1736 C 0.43502 0.43886 0.89547 0.0
C1737 C 0.44582 0.43913 0.89098 0.0
C1738 C 0.45242 0.44577 0.87726 0.0
C1739 C 0.42764 0.43122 0.90945 0.0
C1740 C 0.43322 0.43287 0.92485 0.0
C1741 C 0.41513 0.42252 0.90774 0.0
C1742 C 0.40884 0.41981 0.89163 0.0
C1743 C 0.41328 0.41627 0.87817 0.0
C1744 C 0.40738 0.41386 0.86299 0.0
C1745 C 0.39699 0.41487 0.86114 0.0
C1746 C 0.39245 0.41825 0.87449 0.0
C1747 C 0.39832 0.42069 0.8897 0.0
H1748 H 0.39244 0.413 0.84938 0.0
H1749 H 0.44936 0.43505 0.99685 0.0
H1750 H 0.61442 0.01305 0.9862 0.0
H1751 H 0.60251 0.01097 0.96166 0.0
H1752 H 0.62142 0.99598 0.93536 0.0
H1753 H 0.63343 0.99802 0.96005 0.0
H1754 H 0.61976 0.0141 0.91791 0.0
H1755 H 0.59321 0.97743 0.94687 0.0
H1756 H 0.58178 0.96509 0.97076 0.0
H1757 H 0.56143 0.98367 0.97277 0.0
H1758 H 0.57287 0.99626 0.94902 0.0
H1759 H 0.58034 0.99544 0.84896 0.0
H1760 H 0.5921 0.99579 0.87285 0.0
H1761 H 0.57246 0.00802 0.90304 0.0
H1762 H 0.56033 0.00729 0.87924 0.0
H1763 H 0.57462 0.99047 0.91817 0.0
H1764 H 0.60143 0.02766 0.89034 0.0
H1765 H 0.613 0.04056 0.86692 0.0
H1766 H 0.63297 0.02165 0.86319 0.0
H1767 H 0.62139 0.00851 0.88647 0.0
C1768 C 0.61603 0.00926 0.97523 0.0
C1769 C 0.62484 0.00567 0.97505 0.0
C1770 C 0.60918 0.00804 0.96123 0.0
C1771 C 0.61101 0.00323 0.94674 0.0
C1772 C 0.61986 0.99969 0.94645 0.0
C1773 C 0.62667 0.00082 0.96055 0.0
C1774 C 0.60379 0.00214 0.93189 0.0
C1775 C 0.6099 0.00876 0.91783 0.0
C1776 C 0.59091 0.99544 0.932 0.0
C1777 C 0.58398 0.98786 0.94625 0.0
C1778 C 0.58637 0.97895 0.95249 0.0
C1779 C 0.57987 0.9719 0.96599 0.0
C1780 C 0.5709 0.97361 0.9733 0.0
C1781 C 0.56839 0.98237 0.9671 0.0
C1782 C 0.57487 0.98945 0.95361 0.0
C1783 C 0.57842 0.99809 0.86071 0.0
C1784 C 0.56936 0.00131 0.86219 0.0
C1785 C 0.58525 0.99841 0.87433 0.0
C1786 C 0.58326 0.00206 0.88971 0.0
C1787 C 0.57417 0.00521 0.89128 0.0
C1788 C 0.56732 0.00488 0.87764 0.0
C1789 C 0.59058 0.00249 0.90417 0.0
C1790 C 0.58448 0.99575 0.91817 0.0
C1791 C 0.60347 0.00914 0.90404 0.0
C1792 C 0.61045 0.01702 0.89004 0.0
C1793 C 0.60821 0.02618 0.88444 0.0
C1794 C 0.61479 0.03355 0.8712 0.0
C1795 C 0.62369 0.0319 0.86354 0.0
C1796 C 0.62605 0.0229 0.86912 0.0
C1797 C 0.61949 0.0155 0.88234 0.0
H1798 H 0.62877 0.03762 0.8533 0.0
H1799 H 0.56588 0.96814 0.98375 0.0
H1800 H 0.61171 0.00835 0.04786 0.0
H1801 H 0.60135 0.00965 0.07226 0.0
H1802 H 0.6349 0.02461 0.09962 0.0
H1803 H 0.64542 0.02332 0.07504 0.0
H1804 H 0.61558 0.0059 0.11594 0.0
H1805 H 0.624 0.04276 0.08989 0.0
H1806 H 0.62494 0.05598 0.06714 0.0
H1807 H 0.58602 0.03561 0.06264 0.0
H1808 H 0.58485 0.02215 0.08521 0.0
H1809 H 0.58547 0.0136 0.18443 0.0
H1810 H 0.60013 0.01883 0.1621 0.0
H1811 H 0.57082 0.00476 0.12688 0.0
H1812 H 0.55613 0.99976 0.14913 0.0
H1813 H 0.59057 0.02585 0.11624 0.0
H1814 H 0.58251 0.98759 0.13954 0.0
H1815 H 0.58137 0.97397 0.16188 0.0
H1816 H 0.61959 0.99687 0.17116 0.0
H1817 H 0.62093 0.01073 0.14901 0.0
C1818 C 0.61694 0.01201 0.05902 0.0
C1819 C 0.62938 0.01574 0.05955 0.0
C1820 C 0.61101 0.0128 0.07295 0.0
C1821 C 0.61738 0.01735 0.08772 0.0
C1822 C 0.62984 0.02113 0.08831 0.0
C1823 C 0.63583 0.02042 0.07428 0.0
C1824 C 0.61075 0.01749 0.10261 0.0
C1825 C 0.61034 0.0105 0.11617 0.0
C1826 C 0.60371 0.02329 0.10276 0.0
C1827 C 0.60435 0.03139 0.08919 0.0
C1828 C 0.61565 0.04104 0.08398 0.0
C1829 C 0.61622 0.04859 0.07112 0.0
C1830 C 0.60555 0.04663 0.06343 0.0
C1831 C 0.59428 0.03712 0.06861 0.0
C1832 C 0.59366 0.02954 0.08145 0.0
C1833 C 0.58216 0.01183 0.17191 0.0
C1834 C 0.56962 0.00622 0.16855 0.0
C1835 C 0.59054 0.01474 0.15918 0.0
C1836 C 0.58655 0.01205 0.14285 0.0
C1837 C 0.5741 0.00688 0.1394 0.0
C1838 C 0.56571 0.00395 0.15213 0.0
C1839 C 0.59523 0.01408 0.1294 0.0
C1840 C 0.59599 0.02144 0.11611 0.0
C1841 C 0.60257 0.0086 0.12948 0.0
C1842 C 0.60179 1.00027 0.14276 0.0
C1843 C 0.59065 0.98977 0.14644 0.0
C1844 C 0.58997 0.982 0.15905 0.0
C1845 C 0.60039 0.98457 0.16797 0.0
C1846 C 0.61152 0.9949 0.16427 0.0
C1847 C 0.61225 0.00272 0.15168 0.0
H1848 H 0.59985 0.97854 0.17773 0.0
H1849 H 0.60601 0.05248 0.05349 0.0
H1850 H 0.99168 0.61883 0.06296 0.0
H1851 H 0.99204 0.60657 0.08601 0.0
H1852 H 0.03027 0.62021 0.0777 0.0
H1853 H 0.02998 0.63241 0.05477 0.0
H1854 H 0.01743 0.59541 0.08203 0.0
H1855 H 0.02119 0.63134 0.10842 0.0
H1856 H 0.01453 0.64603 0.11501 0.0
H1857 H 0.98122 0.61731 0.13516 0.0
H1858 H 0.98762 0.60241 0.12849 0.0
H1859 H 0.03994 0.58369 0.15412 0.0
H1860 H 0.03527 0.59239 0.13054 0.0
H1861 H 0.99901 0.5793 0.14915 0.0
H1862 H 0.00386 0.57117 0.17335 0.0
H1863 H 0.00798 0.60162 0.13903 0.0
H1864 H 0.00469 0.5659 0.1154 0.0
H1865 H 0.01086 0.55085 0.10879 0.0
H1866 H 0.04221 0.57819 0.08312 0.0
H1867 H 0.03633 0.59346 0.08978 0.0
C1868 C 1.00015 0.61921 0.06609 0.0
C1869 C 0.01081 0.6266 0.0571 0.0
C1870 C 1.00035 0.61223 0.07926 0.0
C1871 C 0.0112 0.61251 0.08359 0.0
C1872 C 0.0218 0.61983 0.07454 0.0
C1873 C 0.02163 0.62684 0.06148 0.0
C1874 C 0.01165 0.60526 0.09754 0.0
C1875 C 0.01544 0.59681 0.09452 0.0
C1876 C 0.00864 0.60679 0.11374 0.0
C1877 C 0.00482 0.61575 0.11778 0.0
C1878 C 0.0124 0.62814 0.11413 0.0
C1879 C 0.00868 0.63651 0.1179 0.0
C1880 C 0.99745 0.6326 0.12545 0.0
C1881 C 0.98991 0.62032 0.12928 0.0
C1882 C 0.99358 0.61191 0.12552 0.0
C1883 C 0.03099 0.58271 0.15329 0.0
C1884 C 0.0223 0.57675 0.16572 0.0
C1885 C 0.02827 0.58755 0.13964 0.0
C1886 C 0.01672 0.58635 0.1379 0.0
C1887 C 0.00796 0.58029 0.15017 0.0
C1888 C 0.01071 0.57553 0.16393 0.0
C1889 C 0.01404 0.59192 0.12361 0.0
C1890 C 0.00981 0.60006 0.12654 0.0
C1891 C 0.01654 0.59002 0.10729 0.0
C1892 C 0.0201 0.58085 0.10319 0.0
C1893 C 0.01295 0.56873 0.10844 0.0
C1894 C 0.01639 0.56015 0.10467 0.0
C1895 C 0.02694 0.56357 0.09557 0.0
C1896 C 0.03405 0.57556 0.09018 0.0
C1897 C 0.03065 0.58417 0.09393 0.0
H1898 H 0.02959 0.55692 0.09266 0.0
H1899 H 0.99459 0.63909 0.12837 0.0
H1900 H 0.40192 0.3815 0.05955 0.0
H1901 H 0.41428 0.39321 0.08297 0.0
H1902 H 0.3991 0.41683 0.07972 0.0
H1903 H 0.38699 0.40535 0.05597 0.0
H1904 H 0.42249 0.4299 0.08532 0.0
H1905 H 0.3897 0.39428 0.10932 0.0
H1906 H 0.37576 0.37233 0.11341 0.0
H1907 H 0.40594 0.36771 0.12648 0.0
H1908 H 0.42009 0.38962 0.12225 0.0
H1909 H 0.43906 0.45336 0.16765 0.0
H1910 H 0.42776 0.44321 0.14276 0.0
H1911 H 0.44783 0.42427 0.13877 0.0
H1912 H 0.45959 0.43477 0.16315 0.0
H1913 H 0.4218 0.4091 0.13717 0.0
H1914 H 0.45442 0.44555 0.11307 0.0
H1915 H 0.46755 0.46771 0.10978 0.0
H1916 H 0.43631 0.4709 0.09806 0.0
H1917 H 0.42297 0.44876 0.10152 0.0
C1918 C 0.40122 0.38919 0.06383 0.0
C1919 C 0.39345 0.39248 0.05598 0.0
C1920 C 0.40825 0.39585 0.07726 0.0
C1921 C 0.40749 0.4058 0.08329 0.0
C1922 C 0.39984 0.40919 0.07532 0.0
C1923 C 0.39289 0.40259 0.06178 0.0
C1924 C 0.41468 0.41268 0.09789 0.0
C1925 C 0.4222 0.42535 0.09672 0.0
C1926 C 0.41444 0.40676 0.11274 0.0
C1927 C 0.40597 0.39358 0.11531 0.0
C1928 C 0.39338 0.38857 0.11294 0.0
C1929 C 0.38544 0.37614 0.11531 0.0
C1930 C 0.38997 0.36863 0.12016 0.0
C1931 C 0.40245 0.37354 0.1227 0.0
C1932 C 0.41043 0.38597 0.12033 0.0
C1933 C 0.44128 0.44725 0.16133 0.0
C1934 C 0.45023 0.44487 0.16754 0.0
C1935 C 0.43475 0.44139 0.14715 0.0
C1936 C 0.43695 0.43297 0.13899 0.0
C1937 C 0.44595 0.43068 0.14498 0.0
C1938 C 0.4526 0.43665 0.159 0.0
C1939 C 0.42961 0.42624 0.12451 0.0
C1940 C 0.42205 0.4136 0.12574 0.0
C1941 C 0.42967 0.43221 0.10984 0.0
C1942 C 0.43768 0.44551 0.10774 0.0
C1943 C 0.45033 0.45099 0.10995 0.0
C1944 C 0.45782 0.46354 0.10802 0.0
C1945 C 0.45276 0.47071 0.10376 0.0
C1946 C 0.44021 0.46534 0.10138 0.0
C1947 C 0.43269 0.45278 0.10332 0.0
H1948 H 0.45857 0.48043 0.10226 0.0
H1949 H 0.3838 0.359 0.12199 0.0
H1950 H 0.66804 0.71297 0.40723 0.0
H1951 H 0.66727 0.72464 0.43052 0.0
H1952 H 0.6714 0.75307 0.39756 0.0
H1953 H 0.67292 0.7417 0.37436 0.0
H1954 H 0.68479 0.76322 0.42192 0.0
H1955 H 0.64325 0.73199 0.41771 0.0
H1956 H 0.62585 0.71109 0.41568 0.0
H1957 H 0.63495 0.70246 0.46262 0.0
H1958 H 0.65251 0.72327 0.46483 0.0
H1959 H 0.66734 0.79166 0.48473 0.0
H1960 H 0.6662 0.78004 0.46 0.0
H1961 H 0.67492 0.75706 0.48899 0.0
H1962 H 0.67631 0.76877 0.51361 0.0
H1963 H 0.65399 0.74468 0.46614 0.0
H1964 H 0.6964 0.7767 0.46851 0.0
H1965 H 0.71286 0.7981 0.46988 0.0
H1966 H 0.70029 0.80571 0.42495 0.0
H1967 H 0.68362 0.78437 0.42345 0.0
C1968 C 0.6687 0.72167 0.40497 0.0
C1969 C 0.6705 0.72642 0.38901 0.0
C1970 C 0.66817 0.72832 0.41829 0.0
C1971 C 0.66904 0.73968 0.41585 0.0
C1972 C 0.6707 0.74435 0.39982 0.0
C1973 C 0.67153 0.73783 0.38656 0.0
C1974 C 0.66872 0.7469 0.43005 0.0
C1975 C 0.67789 0.75917 0.43139 0.0
C1976 C 0.65983 0.74168 0.44262 0.0
C1977 C 0.64926 0.72916 0.44137 0.0
C1978 C 0.64159 0.72561 0.42755 0.0
C1979 C 0.63169 0.71379 0.42637 0.0
C1980 C 0.62931 0.70545 0.439 0.0
C1981 C 0.63681 0.70893 0.45284 0.0
C1982 C 0.64673 0.72074 0.45407 0.0
C1983 C 0.66899 0.78411 0.48577 0.0
C1984 C 0.67197 0.78112 0.50101 0.0
C1985 C 0.66835 0.77752 0.47169 0.0
C1986 C 0.67048 0.76772 0.47272 0.0
C1987 C 0.67323 0.76459 0.48798 0.0
C1988 C 0.6741 0.77131 0.50198 0.0
C1989 C 0.67004 0.76081 0.45787 0.0
C1990 C 0.66075 0.74866 0.45649 0.0
C1991 C 0.67864 0.76618 0.44511 0.0
C1992 C 0.68868 0.77898 0.44598 0.0
C1993 C 0.69707 0.78296 0.45901 0.0
C1994 C 0.70646 0.79507 0.45979 0.0
C1995 C 0.7076 0.80327 0.44753 0.0
C1996 C 0.69938 0.79936 0.43445 0.0
C1997 C 0.68997 0.78726 0.43363 0.0
H1998 H 0.71487 0.81264 0.44815 0.0
H1999 H 0.62164 0.6963 0.43806 0.0
H2000 H 0.30059 0.94852 0.39047 0.0
H2001 H 0.28849 0.93651 0.41406 0.0
H2002 H 0.26875 0.95591 0.41362 0.0
H2003 H 0.28059 0.96773 0.38992 0.0
H2004 H 0.27841 0.95414 0.44533 0.0
H2005 H 0.2549 0.92929 0.39919 0.0
H2006 H 0.25213 0.91772 0.37372 0.0
H2007 H 0.26234 0.89454 0.39894 0.0
H2008 H 0.26536 0.9061 0.42453 0.0
H2009 H 0.22888 0.92207 0.49745 0.0
H2010 H 0.24178 0.932 0.47384 0.0
H2011 H 0.25218 0.90453 0.47223 0.0
H2012 H 0.23866 0.89405 0.49537 0.0
H2013 H 0.24893 0.90987 0.4422 0.0
H2014 H 0.27133 0.93302 0.4884 0.0
H2015 H 0.27516 0.94445 0.51425 0.0
H2016 H 0.26882 0.9707 0.48989 0.0
H2017 H 0.26478 0.95933 0.46393 0.0
C2018 C 0.29364 0.95018 0.3954 0.0
C2019 C 0.2915 0.95903 0.38837 0.0
C2020 C 0.28674 0.94331 0.40881 0.0
C2021 C 0.27774 0.94534 0.41552 0.0
C2022 C 0.27567 0.95423 0.4086 0.0
C2023 C 0.2824 0.96094 0.39504 0.0
C2024 C 0.2705 0.93829 0.42987 0.0
C2025 C 0.27188 0.94448 0.44465 0.0
C2026 C 0.26235 0.92562 0.42907 0.0
C2027 C 0.2605 0.91865 0.41372 0.0
C2028 C 0.25667 0.9218 0.39927 0.0
C2029 C 0.25503 0.91523 0.38482 0.0
C2030 C 0.2571 0.90542 0.3847 0.0
C2031 C 0.26077 0.90215 0.39905 0.0
C2032 C 0.26244 0.9087 0.41353 0.0
C2033 C 0.2337 0.91796 0.49193 0.0
C2034 C 0.23269 0.90722 0.49838 0.0
C2035 C 0.24125 0.92378 0.47854 0.0
C2036 C 0.24817 0.91917 0.47145 0.0
C2037 C 0.24701 0.90831 0.47758 0.0
C2038 C 0.23935 0.90239 0.49091 0.0
C2039 C 0.25661 0.92576 0.45769 0.0
C2040 C 0.25551 0.9195 0.44301 0.0
C2041 C 0.2652 0.93836 0.45866 0.0
C2042 C 0.26765 0.94526 0.47424 0.0
C2043 C 0.27066 0.94118 0.48858 0.0
C2044 C 0.27289 0.94765 0.50325 0.0
C2045 C 0.27221 0.95828 0.50372 0.0
C2046 C 0.26933 0.96247 0.48951 0.0
C2047 C 0.26709 0.95602 0.47481 0.0
H2048 H 0.27393 0.96328 0.51509 0.0
H2049 H 0.25581 0.90034 0.3735 0.0
H2050 H 0.04589 0.33905 0.4071 0.0
H2051 H 0.05858 0.34077 0.43061 0.0
H2052 H 0.09076 0.36507 0.40312 0.0
H2053 H 0.07809 0.36324 0.37941 0.0
H2054 H 0.09329 0.34757 0.41766 0.0
H2055 H 0.08076 0.3756 0.43468 0.0
H2056 H 0.06619 0.38256 0.44051 0.0
H2057 H 0.0487 0.35458 0.47685 0.0
H2058 H 0.06307 0.34735 0.47109 0.0
H2059 H 0.13234 0.36051 0.48692 0.0
H2060 H 0.12148 0.36263 0.4635 0.0
H2061 H 0.0872 0.33883 0.48711 0.0
H2062 H 0.09796 0.33705 0.51078 0.0
H2063 H 0.08695 0.35786 0.47413 0.0
H2064 H 0.09824 0.32888 0.45581 0.0
H2065 H 0.1124 0.32143 0.44986 0.0
H2066 H 0.13184 0.35078 0.41591 0.0
H2067 H 0.11788 0.3585 0.42183 0.0
C2068 C 0.05566 0.34489 0.40612 0.0
C2069 C 0.06099 0.35102 0.39141 0.0
C2070 C 0.06291 0.34589 0.4196 0.0
C2071 C 0.07563 0.35313 0.41869 0.0
C2072 C 0.08097 0.35944 0.40411 0.0
C2073 C 0.07371 0.35843 0.3906 0.0
C2074 C 0.08335 0.35356 0.43268 0.0
C2075 C 0.09206 0.35005 0.42996 0.0
C2076 C 0.08156 0.35651 0.4488 0.0
C2077 C 0.07294 0.36087 0.45235 0.0
C2078 C 0.07375 0.37088 0.44383 0.0
C2079 C 0.06554 0.37488 0.44714 0.0
C2080 C 0.05651 0.369 0.45902 0.0
C2081 C 0.0557 0.35912 0.46765 0.0
C2082 C 0.06388 0.35508 0.46438 0.0
C2083 C 0.12249 0.3558 0.48718 0.0
C2084 C 0.11603 0.34854 0.5007 0.0
C2085 C 0.11629 0.35693 0.47371 0.0
C2086 C 0.10351 0.35078 0.47346 0.0
C2087 C 0.09706 0.34364 0.487 0.0
C2088 C 0.10323 0.34252 0.50045 0.0
C2089 C 0.09679 0.35174 0.45914 0.0
C2090 C 0.08826 0.35551 0.4618 0.0
C2091 C 0.09871 0.34898 0.44298 0.0
C2092 C 0.1071 0.34434 0.4394 0.0
C2093 C 0.10559 0.3338 0.44718 0.0
C2094 C 0.11357 0.32952 0.44379 0.0
C2095 C 0.12303 0.33565 0.43255 0.0
C2096 C 0.12452 0.34606 0.42464 0.0
C2097 C 0.11657 0.35039 0.428 0.0
H2098 H 0.1292 0.33232 0.42995 0.0
H2099 H 0.05016 0.37211 0.46156 0.0
H2100 H 0.04689 0.33958 0.2912 0.0
H2101 H 0.05963 0.34024 0.26836 0.0
H2102 H 0.08353 0.33624 0.30218 0.0
H2103 H 0.07089 0.33578 0.32518 0.0
H2104 H 0.09627 0.35431 0.28157 0.0
H2105 H 0.06499 0.31309 0.27599 0.0
H2106 H 0.04403 0.2958 0.27391 0.0
H2107 H 0.03855 0.31068 0.22959 0.0
H2108 H 0.05943 0.32817 0.23151 0.0
H2109 H 0.13022 0.34857 0.21522 0.0
H2110 H 0.11702 0.34345 0.23941 0.0
H2111 H 0.09306 0.35207 0.21255 0.0
H2112 H 0.10622 0.35724 0.18841 0.0
H2113 H 0.08086 0.32995 0.23057 0.0
H2114 H 0.11178 0.37205 0.23815 0.0
H2115 H 0.13286 0.3891 0.24044 0.0
H2116 H 0.13906 0.37175 0.28152 0.0
H2117 H 0.11805 0.3545 0.27932 0.0
C2118 C 0.05476 0.33866 0.29377 0.0
C2119 C 0.0579 0.33763 0.30998 0.0
C2120 C 0.06201 0.33899 0.28068 0.0
C2121 C 0.07249 0.33819 0.28352 0.0
C2122 C 0.07548 0.33686 0.29969 0.0
C2123 C 0.06823 0.33655 0.31281 0.0
C2124 C 0.0807 0.33954 0.26969 0.0
C2125 C 0.09294 0.3488 0.27056 0.0
C2126 C 0.07633 0.3325 0.25519 0.0
C2127 C 0.06376 0.322 0.25397 0.0
C2128 C 0.05929 0.31274 0.26586 0.0
C2129 C 0.04743 0.30289 0.2647 0.0
C2130 C 0.03996 0.30216 0.25165 0.0
C2131 C 0.04435 0.31126 0.2397 0.0
C2132 C 0.0562 0.32114 0.24081 0.0
C2133 C 0.12211 0.34931 0.21449 0.0
C2134 C 0.11927 0.35337 0.2 0.0
C2135 C 0.11461 0.34643 0.2283 0.0
C2136 C 0.1041 0.34742 0.22775 0.0
C2137 C 0.10113 0.35123 0.2132 0.0
C2138 C 0.1087 0.35427 0.19948 0.0
C2139 C 0.09631 0.34478 0.24245 0.0
C2140 C 0.08417 0.33531 0.2417 0.0
C2141 C 0.10078 0.35155 0.2571 0.0
C2142 C 0.1134 0.36192 0.25844 0.0
C2143 C 0.11767 0.37182 0.24757 0.0
C2144 C 0.1296 0.38153 0.24887 0.0
C2145 C 0.13731 0.38149 0.26108 0.0
C2146 C 0.13309 0.37175 0.27204 0.0
C2147 C 0.12117 0.36201 0.27078 0.0
H2148 H 0.14654 0.38902 0.26207 0.0
H2149 H 0.03078 0.29452 0.25077 0.0
H2150 H 0.69727 0.74019 0.3099 0.0
H2151 H 0.6983 0.75265 0.28633 0.0
H2152 H 0.65941 0.73077 0.28016 0.0
H2153 H 0.65832 0.71829 0.30366 0.0
H2154 H 0.67179 0.73529 0.25084 0.0
H2155 H 0.67114 0.75794 0.2978 0.0
H2156 H 0.67826 0.76819 0.32454 0.0
H2157 H 0.7133 0.79253 0.30377 0.0
H2158 H 0.70643 0.78231 0.27695 0.0
H2159 H 0.66304 0.77297 0.19565 0.0
H2160 H 0.66189 0.7612 0.21994 0.0
H2161 H 0.70013 0.78538 0.22904 0.0
H2162 H 0.70122 0.79758 0.20527 0.0
H2163 H 0.6882 0.77965 0.25696 0.0
H2164 H 0.68941 0.75735 0.21031 0.0
H2165 H 0.68287 0.74717 0.18344 0.0
H2166 H 0.64768 0.72221 0.20326 0.0
H2167 H 0.65396 0.73236 0.23021 0.0
C2168 C 0.68895 0.73802 0.30348 0.0
C2169 C 0.67771 0.72829 0.30865 0.0
C2170 C 0.68954 0.74517 0.29007 0.0
C2171 C 0.67891 0.74269 0.28159 0.0
C2172 C 0.66772 0.73284 0.28654 0.0
C2173 C 0.66711 0.72575 0.3 0.0
C2174 C 0.67941 0.75041 0.26761 0.0
C2175 C 0.67524 0.74496 0.2522 0.0
C2176 C 0.68419 0.76308 0.26932 0.0
C2177 C 0.68831 0.76928 0.28542 0.0
C2178 C 0.68039 0.76542 0.29897 0.0
C2179 C 0.68438 0.77123 0.31413 0.0
C2180 C 0.69624 0.78099 0.31587 0.0
C2181 C 0.70412 0.78497 0.30242 0.0
C2182 C 0.70019 0.77917 0.28723 0.0
C2183 C 0.67116 0.77594 0.20298 0.0
C2184 C 0.68225 0.78619 0.1984 0.0
C2185 C 0.67053 0.76909 0.21676 0.0
C2186 C 0.68098 0.77225 0.22614 0.0
C2187 C 0.69196 0.78271 0.22193 0.0
C2188 C 0.69258 0.78961 0.20823 0.0
C2189 C 0.68056 0.76454 0.24013 0.0
C2190 C 0.68475 0.76998 0.25555 0.0
C2191 C 0.6759 0.75187 0.2384 0.0
C2192 C 0.67212 0.74569 0.22223 0.0
C2193 C 0.68025 0.74975 0.20891 0.0
C2194 C 0.67659 0.74398 0.19367 0.0
C2195 C 0.66485 0.73407 0.19163 0.0
C2196 C 0.65676 0.7299 0.20485 0.0
C2197 C 0.66037 0.73565 0.22011 0.0
H2198 H 0.66204 0.72962 0.17982 0.0
H2199 H 0.69931 0.78548 0.32762 0.0
H2200 H 0.28539 0.97261 0.30165 0.0
H2201 H 0.27318 0.96035 0.2784 0.0
H2202 H 0.28181 0.93254 0.29075 0.0
H2203 H 0.29418 0.94483 0.3138 0.0
H2204 H 0.28419 0.93682 0.25878 0.0
H2205 H 0.25373 0.92902 0.29909 0.0
H2206 H 0.24278 0.93426 0.31949 0.0
H2207 H 0.2337 0.95224 0.28218 0.0
H2208 H 0.24475 0.94724 0.26159 0.0
H2209 H 0.24044 0.89031 0.20759 0.0
H2210 H 0.25127 0.90186 0.232 0.0
H2211 H 0.24489 0.93083 0.21766 0.0
H2212 H 0.23424 0.91946 0.19307 0.0
H2213 H 0.24112 0.92576 0.25074 0.0
H2214 H 0.27194 0.93354 0.21057 0.0
H2215 H 0.28273 0.92791 0.1904 0.0
H2216 H 0.29094 0.90947 0.22803 0.0
H2217 H 0.28004 0.91484 0.24838 0.0
C2218 C 0.28465 0.96387 0.29942 0.0
C2219 C 0.29073 0.95967 0.30955 0.0
C2220 C 0.27763 0.95685 0.28618 0.0
C2221 C 0.27647 0.94546 0.28293 0.0
C2222 C 0.28256 0.94128 0.29302 0.0
C2223 C 0.28961 0.94831 0.30621 0.0
C2224 C 0.26913 0.93799 0.2688 0.0
C2225 C 0.27472 0.93426 0.25717 0.0
C2226 C 0.25684 0.93486 0.26649 0.0
C2227 C 0.25017 0.93786 0.27883 0.0
C2228 C 0.24948 0.93417 0.29526 0.0
C2229 C 0.24324 0.93709 0.30685 0.0
C2230 C 0.23758 0.94361 0.30214 0.0
C2231 C 0.23811 0.9472 0.28581 0.0
C2232 C 0.24435 0.94432 0.27417 0.0
C2233 C 0.24138 0.89916 0.20958 0.0
C2234 C 0.23653 0.90398 0.19829 0.0
C2235 C 0.24754 0.90573 0.22357 0.0
C2236 C 0.249 0.91726 0.22654 0.0
C2237 C 0.24385 0.92194 0.2156 0.0
C2238 C 0.23772 0.9154 0.20158 0.0
C2239 C 0.2562 0.92459 0.24081 0.0
C2240 C 0.25058 0.92831 0.25242 0.0
C2241 C 0.26845 0.92767 0.24316 0.0
C2242 C 0.27507 0.92448 0.23096 0.0
C2243 C 0.27596 0.9282 0.21451 0.0
C2244 C 0.28211 0.92507 0.20305 0.0
C2245 C 0.28749 0.91831 0.20792 0.0
C2246 C 0.28675 0.91469 0.22427 0.0
C2247 C 0.2806 0.91778 0.23578 0.0
H2248 H 0.29225 0.9159 0.19903 0.0
H2249 H 0.23275 0.94585 0.31113 0.0
H2250 H 0.66854 0.94441 0.31917 0.0
H2251 H 0.6689 0.93272 0.2955 0.0
H2252 H 0.69205 0.96605 0.2695 0.0
H2253 H 0.69182 0.97781 0.29317 0.0
H2254 H 0.67229 0.94877 0.25081 0.0
H2255 H 0.70435 0.95101 0.28479 0.0
H2256 H 0.71325 0.94857 0.3104 0.0
H2257 H 0.68779 0.9102 0.31001 0.0
H2258 H 0.67861 0.91243 0.28451 0.0
H2259 H 0.69057 0.92607 0.18462 0.0
H2260 H 0.69061 0.93715 0.20907 0.0
H2261 H 0.67081 0.90337 0.23558 0.0
H2262 H 0.67112 0.89222 0.21128 0.0
H2263 H 0.68839 0.92046 0.25439 0.0
H2264 H 0.65631 0.9177 0.22083 0.0
H2265 H 0.64672 0.91964 0.19558 0.0
H2266 H 0.67113 0.95824 0.19557 0.0
H2267 H 0.68099 0.95651 0.22071 0.0
C2268 C 0.67373 0.94924 0.30842 0.0
C2269 C 0.68017 0.96202 0.30802 0.0
C2270 C 0.67395 0.94256 0.29494 0.0
C2271 C 0.68055 0.94853 0.2808 0.0
C2272 C 0.68691 0.96128 0.28032 0.0
C2273 C 0.6868 0.96797 0.29385 0.0
C2274 C 0.68074 0.94147 0.26644 0.0
C2275 C 0.67595 0.9427 0.25151 0.0
C2276 C 0.68518 0.93328 0.26754 0.0
C2277 C 0.69071 0.93191 0.28284 0.0
C2278 C 0.70057 0.94206 0.29025 0.0
C2279 C 0.70569 0.94072 0.30472 0.0
C2280 C 0.70107 0.92924 0.31185 0.0
C2281 C 0.69134 0.91908 0.30449 0.0
C2282 C 0.68619 0.92038 0.29002 0.0
C2283 C 0.68638 0.92099 0.19571 0.0
C2284 C 0.68083 0.90824 0.19597 0.0
C2285 C 0.68629 0.92734 0.20964 0.0
C2286 C 0.68055 0.92108 0.22409 0.0
C2287 C 0.67524 0.90838 0.22453 0.0
C2288 C 0.67534 0.90201 0.21059 0.0
C2289 C 0.68003 0.92782 0.23867 0.0
C2290 C 0.68471 0.92652 0.25366 0.0
C2291 C 0.67539 0.93586 0.23767 0.0
C2292 C 0.66947 0.93695 0.22257 0.0
C2293 C 0.6597 0.92659 0.21537 0.0
C2294 C 0.6542 0.92766 0.20109 0.0
C2295 C 0.65834 0.93905 0.19395 0.0
C2296 C 0.66795 0.94942 0.20111 0.0
C2297 C 0.67349 0.9484 0.21538 0.0
H2298 H 0.65407 0.93986 0.1829 0.0
H2299 H 0.70504 0.92822 0.32306 0.0
H2300 H 0.0449 0.72597 0.29671 0.0
H2301 H 0.05738 0.73725 0.27304 0.0
H2302 H 0.08988 0.74551 0.29996 0.0
H2303 H 0.07749 0.73427 0.32362 0.0
H2304 H 0.09226 0.76536 0.28285 0.0
H2305 H 0.07887 0.72314 0.27269 0.0
H2306 H 0.06364 0.7014 0.26961 0.0
H2307 H 0.04688 0.70984 0.22989 0.0
H2308 H 0.06192 0.73166 0.2329 0.0
H2309 H 0.13497 0.78206 0.21806 0.0
H2310 H 0.12179 0.77256 0.24175 0.0
H2311 H 0.09016 0.76193 0.21145 0.0
H2312 H 0.10324 0.7709 0.18755 0.0
H2313 H 0.0867 0.74366 0.23013 0.0
H2314 H 0.10042 0.78575 0.23928 0.0
H2315 H 0.11544 0.80755 0.24236 0.0
H2316 H 0.13125 0.79965 0.28375 0.0
H2317 H 0.11643 0.77777 0.28078 0.0
C2318 C 0.05471 0.73026 0.29761 0.0
C2319 C 0.06022 0.72919 0.31198 0.0
C2320 C 0.06182 0.73667 0.28408 0.0
C2321 C 0.07455 0.74212 0.28471 0.0
C2322 C 0.08007 0.74137 0.29922 0.0
C2323 C 0.07298 0.73491 0.3127 0.0
C2324 C 0.08212 0.74831 0.27011 0.0
C2325 C 0.09114 0.7606 0.27135 0.0
C2326 C 0.08045 0.74216 0.25502 0.0
C2327 C 0.07144 0.72904 0.25314 0.0
C2328 C 0.07188 0.72037 0.26339 0.0
C2329 C 0.06329 0.70803 0.26164 0.0
C2330 C 0.05428 0.70425 0.24959 0.0
C2331 C 0.05386 0.71279 0.23923 0.0
C2332 C 0.06241 0.72514 0.24095 0.0
C2333 C 0.12521 0.77765 0.2164 0.0
C2334 C 0.12019 0.77729 0.20087 0.0
C2335 C 0.11768 0.77233 0.23002 0.0
C2336 C 0.10497 0.76666 0.22845 0.0
C2337 C 0.09994 0.7663 0.21299 0.0
C2338 C 0.10745 0.77155 0.19935 0.0
C2339 C 0.09691 0.76076 0.24282 0.0
C2340 C 0.0878 0.74848 0.24156 0.0
C2341 C 0.09847 0.76695 0.25787 0.0
C2342 C 0.10738 0.7801 0.25971 0.0
C2343 C 0.10716 0.78865 0.24896 0.0
C2344 C 0.11563 0.80102 0.2507 0.0
C2345 C 0.12431 0.80498 0.26321 0.0
C2346 C 0.12453 0.79657 0.27404 0.0
C2347 C 0.11609 0.78418 0.27235 0.0
H2348 H 0.13086 0.81456 0.26454 0.0
H2349 H 0.04764 0.69469 0.24825 0.0
H2350 H 0.29307 0.35843 0.31695 0.0
H2351 H 0.28033 0.35808 0.29433 0.0
H2352 H 0.27615 0.32401 0.2776 0.0
H2353 H 0.28909 0.32437 0.30024 0.0
H2354 H 0.28103 0.33978 0.25243 0.0
H2355 H 0.25287 0.32443 0.29683 0.0
H2356 H 0.24542 0.32408 0.32488 0.0
H2357 H 0.24683 0.35805 0.31608 0.0
H2358 H 0.25446 0.35871 0.28806 0.0
H2359 H 0.23759 0.33501 0.19328 0.0
H2360 H 0.24594 0.3298 0.217 0.0
H2361 H 0.25401 0.36344 0.24046 0.0
H2362 H 0.24544 0.36856 0.217 0.0
H2363 H 0.24521 0.34473 0.26228 0.0
H2364 H 0.27576 0.36125 0.2196 0.0
H2365 H 0.28376 0.36211 0.19176 0.0
H2366 H 0.27801 0.32605 0.19764 0.0
H2367 H 0.26982 0.32492 0.22544 0.0
C2368 C 0.28944 0.35085 0.30848 0.0
C2369 C 0.29205 0.34141 0.31039 0.0
C2370 C 0.28209 0.35063 0.2956 0.0
C2371 C 0.27713 0.34092 0.28442 0.0
C2372 C 0.27984 0.33155 0.28615 0.0
C2373 C 0.28721 0.33177 0.29908 0.0
C2374 C 0.26937 0.34082 0.27075 0.0
C2375 C 0.27304 0.34059 0.25458 0.0
C2376 C 0.25906 0.34208 0.27356 0.0
C2377 C 0.25432 0.34166 0.29036 0.0
C2378 C 0.25166 0.33187 0.30091 0.0
C2379 C 0.2474 0.33161 0.3168 0.0
C2380 C 0.24568 0.34105 0.32227 0.0
C2381 C 0.24818 0.35075 0.31183 0.0
C2382 C 0.25246 0.35106 0.29593 0.0
C2383 C 0.24093 0.34118 0.20363 0.0
C2384 C 0.24095 0.35225 0.20323 0.0
C2385 C 0.24578 0.33824 0.21711 0.0
C2386 C 0.25074 0.34631 0.23039 0.0
C2387 C 0.25027 0.3571 0.23032 0.0
C2388 C 0.24546 0.36006 0.21686 0.0
C2389 C 0.25701 0.34392 0.24401 0.0
C2390 C 0.25307 0.3437 0.26015 0.0
C2391 C 0.26708 0.34226 0.24119 0.0
C2392 C 0.27204 0.34294 0.22451 0.0
C2393 C 0.27611 0.35347 0.2149 0.0
C2394 C 0.28069 0.35401 0.19914 0.0
C2395 C 0.28136 0.34412 0.19291 0.0
C2396 C 0.27747 0.33369 0.20246 0.0
C2397 C 0.27286 0.33309 0.21822 0.0
H2398 H 0.28491 0.34456 0.18071 0.0
H2399 H 0.24239 0.34084 0.33458 0.0
H2400 H 0.27601 0.32256 0.38232 0.0
H2401 H 0.26276 0.32106 0.40498 0.0
H2402 H 0.29034 0.35621 0.42268 0.0
H2403 H 0.30377 0.35766 0.40014 0.0
H2404 H 0.28074 0.34028 0.44734 0.0
H2405 H 0.26501 0.35252 0.40232 0.0
H2406 H 0.25706 0.35125 0.37433 0.0
H2407 H 0.22683 0.31579 0.38484 0.0
H2408 H 0.23469 0.31677 0.41282 0.0
H2409 H 0.24305 0.34704 0.5049 0.0
H2410 H 0.25596 0.35024 0.4811 0.0
H2411 H 0.22936 0.31518 0.46197 0.0
H2412 H 0.21613 0.31211 0.48545 0.0
H2413 H 0.23861 0.33181 0.43785 0.0
H2414 H 0.25466 0.31909 0.48215 0.0
H2415 H 0.26263 0.31997 0.51002 0.0
H2416 H 0.29226 0.35601 0.5007 0.0
H2417 H 0.28436 0.35541 0.47283 0.0
C2418 C 0.27926 0.32999 0.39102 0.0
C2419 C 0.29092 0.34025 0.38944 0.0
C2420 C 0.27164 0.32914 0.40392 0.0
C2421 C 0.27548 0.3386 0.4154 0.0
C2422 C 0.28718 0.34882 0.41393 0.0
C2423 C 0.29483 0.34965 0.40104 0.0
C2424 C 0.26737 0.33768 0.42911 0.0
C2425 C 0.2716 0.33863 0.44525 0.0
C2426 C 0.25533 0.33523 0.4264 0.0
C2427 C 0.2505 0.33468 0.40963 0.0
C2428 C 0.25671 0.34442 0.39863 0.0
C2429 C 0.25221 0.34375 0.38277 0.0
C2430 C 0.24146 0.33344 0.37779 0.0
C2431 C 0.23516 0.32378 0.3887 0.0
C2432 C 0.23963 0.32439 0.40457 0.0
C2433 C 0.23983 0.34009 0.4955 0.0
C2434 C 0.22855 0.32929 0.49714 0.0
C2435 C 0.24729 0.34188 0.48197 0.0
C2436 C 0.24372 0.33286 0.46987 0.0
C2437 C 0.23233 0.32223 0.4712 0.0
C2438 C 0.22483 0.32045 0.48471 0.0
C2439 C 0.25199 0.33439 0.45606 0.0
C2440 C 0.24778 0.33353 0.43991 0.0
C2441 C 0.26405 0.3369 0.45875 0.0
C2442 C 0.26885 0.33725 0.47547 0.0
C2443 C 0.26282 0.32724 0.48609 0.0
C2444 C 0.26733 0.32768 0.50188 0.0
C2445 C 0.27792 0.33805 0.50715 0.0
C2446 C 0.28404 0.34799 0.49662 0.0
C2447 C 0.27956 0.3476 0.48082 0.0
H2448 H 0.2814 0.33838 0.51938 0.0
H2449 H 0.238 0.33293 0.36551 0.0
H2450 H 0.66546 0.96085 0.40072 0.0
H2451 H 0.66779 0.95066 0.42482 0.0
H2452 H 0.69906 0.95165 0.40246 0.0
H2453 H 0.697 0.96216 0.37868 0.0
H2454 H 0.66687 0.93001 0.43003 0.0
H2455 H 0.71972 0.95519 0.43084 0.0
H2456 H 0.73711 0.97519 0.42333 0.0
H2457 H 0.71484 0.99152 0.42896 0.0
H2458 H 0.69736 0.97165 0.4367 0.0
H2459 H 0.68615 0.89875 0.48313 0.0
H2460 H 0.68317 0.90898 0.4596 0.0
H2461 H 0.69825 0.94232 0.48743 0.0
H2462 H 0.70154 0.93221 0.51074 0.0
H2463 H 0.70677 0.9475 0.45827 0.0
H2464 H 0.66685 0.92358 0.48056 0.0
H2465 H 0.64878 0.90497 0.49053 0.0
H2466 H 0.64388 0.88864 0.44295 0.0
H2467 H 0.66203 0.90711 0.43275 0.0
C2468 C 0.67281 0.95887 0.40097 0.0
C2469 C 0.68111 0.96238 0.38789 0.0
C2470 C 0.67413 0.95303 0.41472 0.0
C2471 C 0.68372 0.95055 0.41559 0.0
C2472 C 0.69176 0.95371 0.40227 0.0
C2473 C 0.69054 0.95966 0.38864 0.0
C2474 C 0.68542 0.94478 0.43046 0.0
C2475 C 0.67559 0.93384 0.4362 0.0
C2476 C 0.69673 0.94989 0.43878 0.0
C2477 C 0.7072 0.9619 0.4342 0.0
C2478 C 0.71855 0.96305 0.43052 0.0
C2479 C 0.72842 0.97437 0.42621 0.0
C2480 C 0.72707 0.98461 0.42562 0.0
C2481 C 0.71586 0.98357 0.42936 0.0
C2482 C 0.70596 0.97228 0.43369 0.0
C2483 C 0.68881 0.90826 0.48418 0.0
C2484 C 0.69409 0.9147 0.49874 0.0
C2485 C 0.68707 0.91409 0.47077 0.0
C2486 C 0.69033 0.9264 0.47179 0.0
C2487 C 0.69569 0.93284 0.4863 0.0
C2488 C 0.69758 0.92706 0.49961 0.0
C2489 C 0.68826 0.93262 0.45773 0.0
C2490 C 0.69804 0.94365 0.45211 0.0
C2491 C 0.67681 0.92779 0.44986 0.0
C2492 C 0.66587 0.91669 0.45594 0.0
C2493 C 0.66197 0.91599 0.47225 0.0
C2494 C 0.65171 0.90547 0.47795 0.0
C2495 C 0.64521 0.89562 0.4674 0.0
C2496 C 0.64894 0.89628 0.45112 0.0
C2497 C 0.6592 0.90677 0.44537 0.0
H2498 H 0.63726 0.88749 0.47182 0.0
H2499 H 0.73474 0.99336 0.42232 0.0
H2500 H 0.05159 0.7374 0.39494 0.0
H2501 H 0.06416 0.74893 0.41829 0.0
H2502 H 0.08291 0.72854 0.41629 0.0
H2503 H 0.07005 0.7167 0.39324 0.0
H2504 H 0.07845 0.73105 0.44678 0.0
H2505 H 0.09574 0.75832 0.40137 0.0
H2506 H 0.09577 0.76998 0.37717 0.0
H2507 H 0.08312 0.78929 0.40686 0.0
H2508 H 0.08286 0.77762 0.43121 0.0
H2509 H 0.12876 0.77137 0.49643 0.0
H2510 H 0.11661 0.76028 0.47256 0.0
H2511 H 0.0939 0.77617 0.47943 0.0
H2512 H 0.10571 0.787 0.50366 0.0
H2513 H 0.10075 0.77617 0.44644 0.0
H2514 H 0.08353 0.74839 0.49186 0.0
H2515 H 0.08418 0.73686 0.51579 0.0
H2516 H 0.09769 0.71868 0.48536 0.0
H2517 H 0.09729 0.73024 0.46128 0.0
C2518 C 0.05838 0.73536 0.3995 0.0
C2519 C 0.05987 0.72618 0.39223 0.0
C2520 C 0.06561 0.74201 0.41279 0.0
C2521 C 0.07465 0.73977 0.41889 0.0
C2522 C 0.07603 0.73047 0.41178 0.0
C2523 C 0.06869 0.72372 0.3986 0.0
C2524 C 0.08259 0.74705 0.43276 0.0
C2525 C 0.08346 0.74092 0.44656 0.0
C2526 C 0.08898 0.75994 0.43268 0.0
C2527 C 0.08917 0.76701 0.41808 0.0
C2528 C 0.09288 0.76499 0.40271 0.0
C2529 C 0.09295 0.77161 0.38898 0.0
C2530 C 0.08942 0.78035 0.39047 0.0
C2531 C 0.08584 0.7825 0.40572 0.0
C2532 C 0.08574 0.7759 0.41949 0.0
C2533 C 0.12113 0.77247 0.49297 0.0
C2534 C 0.11819 0.78004 0.5021 0.0
C2535 C 0.11424 0.76616 0.47926 0.0
C2536 C 0.1043 0.76733 0.47432 0.0
C2537 C 0.10156 0.77516 0.48303 0.0
C2538 C 0.10838 0.7814 0.49684 0.0
C2539 C 0.09657 0.76014 0.46033 0.0
C2540 C 0.09575 0.7663 0.44656 0.0
C2541 C 0.09032 0.74728 0.46036 0.0
C2542 C 0.0905 0.74027 0.4748 0.0
C2543 C 0.08673 0.74201 0.4903 0.0
C2544 C 0.08704 0.73546 0.50388 0.0
C2545 C 0.09101 0.72707 0.50211 0.0
C2546 C 0.09464 0.72519 0.48673 0.0
C2547 C 0.09437 0.73174 0.4731 0.0
H2548 H 0.09124 0.722 0.51264 0.0
H2549 H 0.08948 0.78546 0.37982 0.0
H2550 H 0.35262 0.07848 0.71327 0.0
H2551 H 0.3523 0.08963 0.73749 0.0
H2552 H 0.33012 0.05577 0.76294 0.0
H2553 H 0.33025 0.04452 0.73859 0.0
H2554 H 0.32209 0.07148 0.76831 0.0
H2555 H 0.36034 0.07275 0.7709 0.0
H2556 H 0.38016 0.07648 0.76056 0.0
H2557 H 0.39194 0.11432 0.75414 0.0
H2558 H 0.37211 0.11078 0.76422 0.0
H2559 H 0.33193 0.0958 0.84897 0.0
H2560 H 0.33145 0.08464 0.82436 0.0
H2561 H 0.3524 0.11843 0.79828 0.0
H2562 H 0.35276 0.12971 0.82282 0.0
H2563 H 0.36098 0.10273 0.79328 0.0
H2564 H 0.32246 0.10118 0.79111 0.0
H2565 H 0.30264 0.09716 0.80183 0.0
H2566 H 0.29142 0.05944 0.80803 0.0
H2567 H 0.31125 0.06327 0.79756 0.0
C2568 C 0.34764 0.0734 0.724 0.0
C2569 C 0.34151 0.06062 0.72407 0.0
C2570 C 0.34751 0.07979 0.73786 0.0
C2571 C 0.34134 0.07354 0.75212 0.0
C2572 C 0.33497 0.06077 0.75209 0.0
C2573 C 0.33507 0.05436 0.73819 0.0
C2574 C 0.34164 0.08036 0.76706 0.0
C2575 C 0.33059 0.07819 0.7739 0.0
C2576 C 0.35273 0.0893 0.77417 0.0
C2577 C 0.36469 0.09148 0.76817 0.0
C2578 C 0.36712 0.08185 0.76717 0.0
C2579 C 0.37836 0.08393 0.76137 0.0
C2580 C 0.38729 0.09562 0.75666 0.0
C2581 C 0.385 0.10526 0.75777 0.0
C2582 C 0.37377 0.10323 0.76354 0.0
C2583 C 0.3363 0.10088 0.83795 0.0
C2584 C 0.3423 0.11367 0.83786 0.0
C2585 C 0.33605 0.09447 0.8239 0.0
C2586 C 0.34178 0.1007 0.80944 0.0
C2587 C 0.34792 0.11345 0.80932 0.0
C2588 C 0.34815 0.11988 0.82338 0.0
C2589 C 0.34144 0.09387 0.79449 0.0
C2590 C 0.35249 0.09603 0.78767 0.0
C2591 C 0.33034 0.08488 0.78746 0.0
C2592 C 0.31839 0.08254 0.79369 0.0
C2593 C 0.3158 0.09205 0.79488 0.0
C2594 C 0.30456 0.0898 0.80089 0.0
C2595 C 0.29578 0.07806 0.80565 0.0
C2596 C 0.29823 0.06853 0.80436 0.0
C2597 C 0.30946 0.07073 0.79838 0.0
H2598 H 0.28708 0.07634 0.8103 0.0
H2599 H 0.39599 0.09722 0.75217 0.0
H2600 H 0.9432 0.28879 0.7138 0.0
H2601 H 0.93094 0.27756 0.73741 0.0
H2602 H 0.96358 0.28679 0.76471 0.0
H2603 H 0.97595 0.2978 0.74077 0.0
H2604 H 0.94681 0.2639 0.77047 0.0
H2605 H 0.94753 0.30172 0.77134 0.0
H2606 H 0.94549 0.31864 0.76023 0.0
H2607 H 0.9076 0.29418 0.75058 0.0
H2608 H 0.90945 0.27706 0.76142 0.0
H2609 H 0.91605 0.24992 0.84833 0.0
H2610 H 0.92958 0.26002 0.82514 0.0
H2611 H 0.89855 0.24779 0.79317 0.0
H2612 H 0.88492 0.23728 0.81615 0.0
H2613 H 0.9153 0.27278 0.79089 0.0
H2614 H 0.9153 0.23487 0.79027 0.0
H2615 H 0.91793 0.21855 0.80232 0.0
H2616 H 0.95533 0.24426 0.81305 0.0
H2617 H 0.95288 0.26078 0.80127 0.0
C2618 C 0.94779 0.28843 0.72482 0.0
C2619 C 0.96055 0.29425 0.72549 0.0
C2620 C 0.94076 0.28204 0.73835 0.0
C2621 C 0.94633 0.28153 0.75297 0.0
C2622 C 0.95908 0.28711 0.75358 0.0
C2623 C 0.96614 0.29342 0.73993 0.0
C2624 C 0.93876 0.27521 0.76758 0.0
C2625 C 0.94005 0.26598 0.77509 0.0
C2626 C 0.92983 0.2778 0.77352 0.0
C2627 C 0.92866 0.28809 0.76707 0.0
C2628 C 0.93878 0.29993 0.76674 0.0
C2629 C 0.93766 0.30956 0.76051 0.0
C2630 C 0.92643 0.30748 0.75467 0.0
C2631 C 0.9163 0.29577 0.75509 0.0
C2632 C 0.91737 0.2861 0.7613 0.0
C2633 C 0.91207 0.24912 0.83632 0.0
C2634 C 0.89934 0.24275 0.83416 0.0
C2635 C 0.91984 0.25498 0.82309 0.0
C2636 C 0.91506 0.25463 0.80745 0.0
C2637 C 0.90241 0.2482 0.80518 0.0
C2638 C 0.89463 0.24225 0.81836 0.0
C2639 C 0.92323 0.26139 0.79358 0.0
C2640 C 0.92208 0.27074 0.78627 0.0
C2641 C 0.93238 0.25901 0.788 0.0
C2642 C 0.93387 0.24908 0.79504 0.0
C2643 C 0.92406 0.23707 0.79533 0.0
C2644 C 0.92552 0.22777 0.80209 0.0
C2645 C 0.93678 0.23037 0.80849 0.0
C2646 C 0.94661 0.24226 0.80811 0.0
C2647 C 0.94519 0.25159 0.80138 0.0
H2648 H 0.93789 0.22316 0.81371 0.0
H2649 H 0.92558 0.31495 0.74985 0.0
H2650 H 0.71821 0.66388 0.72954 0.0
H2651 H 0.73126 0.66518 0.75244 0.0
H2652 H 0.75689 0.70236 0.73966 0.0
H2653 H 0.74374 0.70119 0.71676 0.0
H2654 H 0.76728 0.68672 0.74641 0.0
H2655 H 0.74041 0.69896 0.77028 0.0
H2656 H 0.7204 0.69677 0.77641 0.0
H2657 H 0.70952 0.66303 0.80117 0.0
H2658 H 0.72941 0.66494 0.79497 0.0
H2659 H 0.80205 0.70006 0.81991 0.0
H2660 H 0.79054 0.70035 0.79612 0.0
H2661 H 0.75919 0.66723 0.81281 0.0
H2662 H 0.77033 0.66733 0.83716 0.0
H2663 H 0.75215 0.68196 0.80358 0.0
H2664 H 0.77771 0.66849 0.77952 0.0
H2665 H 0.79697 0.66921 0.77274 0.0
H2666 H 0.80959 0.70322 0.74784 0.0
H2667 H 0.79045 0.70278 0.75466 0.0
C2668 C 0.72663 0.67234 0.73158 0.0
C2669 C 0.72995 0.68245 0.72141 0.0
C2670 C 0.73406 0.67307 0.74468 0.0
C2671 C 0.745 0.68388 0.74775 0.0
C2672 C 0.74847 0.69394 0.73745 0.0
C2673 C 0.74094 0.69327 0.72445 0.0
C2674 C 0.75266 0.68462 0.76191 0.0
C2675 C 0.7641 0.68588 0.75895 0.0
C2676 C 0.74829 0.68316 0.77818 0.0
C2677 C 0.73636 0.68204 0.78203 0.0
C2678 C 0.73371 0.69103 0.77691 0.0
C2679 C 0.7224 0.68984 0.78042 0.0
C2680 C 0.71368 0.67975 0.78914 0.0
C2681 C 0.71627 0.67084 0.79441 0.0
C2682 C 0.72757 0.67197 0.79091 0.0
C2683 C 0.79268 0.69287 0.81861 0.0
C2684 C 0.78716 0.68367 0.83054 0.0
C2685 C 0.78614 0.69296 0.80485 0.0
C2686 C 0.77401 0.68373 0.80252 0.0
C2687 C 0.76854 0.67445 0.81428 0.0
C2688 C 0.775 0.67444 0.82814 0.0
C2689 C 0.76684 0.68393 0.78819 0.0
C2690 C 0.75544 0.68285 0.79109 0.0
C2691 C 0.77118 0.68536 0.77185 0.0
C2692 C 0.7827 0.68566 0.76775 0.0
C2693 C 0.78463 0.67617 0.77271 0.0
C2694 C 0.79552 0.67652 0.76885 0.0
C2695 C 0.80451 0.68627 0.75991 0.0
C2696 C 0.80262 0.69568 0.75479 0.0
C2697 C 0.79175 0.69538 0.75864 0.0
H2698 H 0.81293 0.68652 0.75693 0.0
H2699 H 0.70493 0.67886 0.79185 0.0
H2700 H 0.72093 0.65751 0.64847 0.0
H2701 H 0.73236 0.65603 0.62514 0.0
H2702 H 0.7418 0.69219 0.60985 0.0
H2703 H 0.73064 0.69382 0.63324 0.0
H2704 H 0.7328 0.67405 0.58416 0.0
H2705 H 0.76244 0.68959 0.6281 0.0
H2706 H 0.77005 0.68914 0.65578 0.0
H2707 H 0.76719 0.65474 0.64514 0.0
H2708 H 0.75938 0.6549 0.61745 0.0
H2709 H 0.77816 0.6885 0.52533 0.0
H2710 H 0.76706 0.68877 0.5495 0.0
H2711 H 0.76632 0.65657 0.56781 0.0
H2712 H 0.77816 0.65669 0.54412 0.0
H2713 H 0.77005 0.67128 0.59223 0.0
H2714 H 0.74124 0.65543 0.54855 0.0
H2715 H 0.73295 0.65483 0.52098 0.0
H2716 H 0.73304 0.68801 0.53103 0.0
H2717 H 0.7415 0.68891 0.55859 0.0
C2718 C 0.72543 0.66512 0.6401 0.0
C2719 C 0.72493 0.67579 0.64267 0.0
C2720 C 0.73197 0.66428 0.62684 0.0
C2721 C 0.73794 0.67402 0.61584 0.0
C2722 C 0.73725 0.68458 0.61822 0.0
C2723 C 0.73091 0.6855 0.6316 0.0
C2724 C 0.74498 0.6733 0.60184 0.0
C2725 C 0.74102 0.67356 0.58588 0.0
C2726 C 0.75546 0.67227 0.60417 0.0
C2727 C 0.76019 0.67219 0.62078 0.0
C2728 C 0.76332 0.68187 0.63171 0.0
C2729 C 0.76769 0.68169 0.64739 0.0
C2730 C 0.76906 0.6719 0.65223 0.0
C2731 C 0.7661 0.6623 0.64138 0.0
C2732 C 0.7617 0.66244 0.6257 0.0
C2733 C 0.77589 0.68161 0.53462 0.0
C2734 C 0.77906 0.67254 0.53267 0.0
C2735 C 0.76935 0.68166 0.54836 0.0
C2736 C 0.76559 0.67252 0.56032 0.0
C2737 C 0.76902 0.66366 0.55868 0.0
C2738 C 0.7757 0.66368 0.54502 0.0
C2739 C 0.75798 0.67218 0.57441 0.0
C2740 C 0.76181 0.67169 0.59042 0.0
C2741 C 0.74725 0.67282 0.57212 0.0
C2742 C 0.7421 0.67229 0.55558 0.0
C2743 C 0.73957 0.66264 0.54484 0.0
C2744 C 0.73483 0.66224 0.52922 0.0
C2745 C 0.73249 0.67139 0.52424 0.0
C2746 C 0.73486 0.68094 0.53489 0.0
C2747 C 0.73962 0.68139 0.55052 0.0
H2748 H 0.72882 0.67106 0.51214 0.0
H2749 H 0.77246 0.67177 0.66437 0.0
H2750 H 0.32817 0.05744 0.64172 0.0
H2751 H 0.32959 0.06913 0.61713 0.0
H2752 H 0.36738 0.0796 0.61178 0.0
H2753 H 0.366 0.06781 0.63634 0.0
H2754 H 0.36266 0.09912 0.60907 0.0
H2755 H 0.34776 0.05888 0.58722 0.0
H2756 H 0.33375 0.03674 0.58567 0.0
H2757 H 0.30389 0.04261 0.57586 0.0
H2758 H 0.31768 0.06478 0.57763 0.0
H2759 H 0.37125 0.12546 0.53015 0.0
H2760 H 0.37052 0.1134 0.55384 0.0
H2761 H 0.33138 0.09638 0.55487 0.0
H2762 H 0.33196 0.10775 0.53049 0.0
H2763 H 0.33718 0.07996 0.55979 0.0
H2764 H 0.35063 0.11933 0.5827 0.0
H2765 H 0.36357 0.14156 0.58544 0.0
H2766 H 0.39471 0.13764 0.59461 0.0
H2767 H 0.38198 0.11538 0.59171 0.0
C2768 C 0.33678 0.06221 0.63528 0.0
C2769 C 0.34698 0.06171 0.64092 0.0
C2770 C 0.33756 0.06885 0.62123 0.0
C2771 C 0.34857 0.07516 0.61261 0.0
C2772 C 0.3588 0.07477 0.61827 0.0
C2773 C 0.35799 0.06801 0.63224 0.0
C2774 C 0.34941 0.08231 0.59782 0.0
C2775 C 0.35724 0.09494 0.59817 0.0
C2776 C 0.34204 0.07685 0.58387 0.0
C2777 C 0.33375 0.0635 0.5827 0.0
C2778 C 0.33819 0.05545 0.58488 0.0
C2779 C 0.33029 0.04289 0.58393 0.0
C2780 C 0.31794 0.03827 0.5807 0.0
C2781 C 0.31346 0.0462 0.57838 0.0
C2782 C 0.32132 0.05876 0.57934 0.0
C2783 C 0.36246 0.11907 0.53528 0.0
C2784 C 0.35167 0.11764 0.52835 0.0
C2785 C 0.36207 0.11228 0.549 0.0
C2786 C 0.3509 0.10409 0.55634 0.0
C2787 C 0.34012 0.10266 0.54948 0.0
C2788 C 0.34049 0.10931 0.53563 0.0
C2789 C 0.35041 0.09687 0.57097 0.0
C2790 C 0.34265 0.0842 0.57063 0.0
C2791 C 0.3577 0.10232 0.58506 0.0
C2792 C 0.36537 0.1157 0.58682 0.0
C2793 C 0.36026 0.12322 0.58518 0.0
C2794 C 0.36755 0.13582 0.58678 0.0
C2795 C 0.37996 0.14101 0.59015 0.0
C2796 C 0.3851 0.13361 0.59197 0.0
C2797 C 0.37785 0.121 0.59036 0.0
H2798 H 0.38559 0.15077 0.59139 0.0
H2799 H 0.31184 0.02855 0.57993 0.0
H2800 H 0.94877 0.27803 0.65748 0.0
H2801 H 0.93698 0.26638 0.63372 0.0
H2802 H 0.95767 0.29769 0.60271 0.0
H2803 H 0.96901 0.30957 0.62672 0.0
H2804 H 0.9358 0.2874 0.59313 0.0
H2805 H 0.96264 0.27242 0.60471 0.0
H2806 H 0.97283 0.26397 0.62143 0.0
H2807 H 0.93842 0.23189 0.63077 0.0
H2808 H 0.928 0.24022 0.61428 0.0
H2809 H 0.92274 0.25241 0.51849 0.0
H2810 H 0.93369 0.26415 0.54287 0.0
H2811 H 0.90341 0.2399 0.57336 0.0
H2812 H 0.89226 0.22829 0.54891 0.0
H2813 H 0.93 0.24638 0.58263 0.0
H2814 H 0.90392 0.26312 0.56936 0.0
H2815 H 0.89564 0.27227 0.55037 0.0
H2816 H 0.93166 0.3021 0.54148 0.0
H2817 H 0.94017 0.29301 0.56023 0.0
C2818 C 0.95077 0.28242 0.64559 0.0
C2819 C 0.95983 0.29467 0.6439 0.0
C2820 C 0.94408 0.27573 0.63198 0.0
C2821 C 0.9466 0.28104 0.61628 0.0
C2822 C 0.95556 0.29336 0.61464 0.0
C2823 C 0.96205 0.30014 0.62835 0.0
C2824 C 0.93987 0.27375 0.60164 0.0
C2825 C 0.93468 0.27849 0.5908 0.0
C2826 C 0.93829 0.26207 0.59851 0.0
C2827 C 0.94453 0.257 0.60839 0.0
C2828 C 0.95724 0.2636 0.61043 0.0
C2829 C 0.96306 0.25882 0.61984 0.0
C2830 C 0.95627 0.24741 0.62719 0.0
C2831 C 0.94366 0.24073 0.62509 0.0
C2832 C 0.93779 0.24547 0.61569 0.0
C2833 C 0.91845 0.24959 0.53041 0.0
C2834 C 0.90669 0.23947 0.5319 0.0
C2835 C 0.92469 0.25629 0.54427 0.0
C2836 C 0.91933 0.25286 0.55983 0.0
C2837 C 0.90766 0.24265 0.56141 0.0
C2838 C 0.90131 0.23608 0.54749 0.0
C2839 C 0.92595 0.26003 0.57444 0.0
C2840 C 0.93114 0.25527 0.58514 0.0
C2841 C 0.92781 0.27181 0.57719 0.0
C2842 C 0.92269 0.27732 0.56605 0.0
C2843 C 0.91008 0.27157 0.56323 0.0
C2844 C 0.90535 0.27676 0.55254 0.0
C2845 C 0.91312 0.28774 0.54469 0.0
C2846 C 0.92565 0.29358 0.54755 0.0
C2847 C 0.93043 0.28842 0.55822 0.0
H2848 H 0.90944 0.29175 0.53642 0.0
H2849 H 0.9608 0.24373 0.63448 0.0
H2850 H 0.35578 0.30947 0.62854 0.0
H2851 H 0.35552 0.29728 0.60512 0.0
H2852 H 0.33119 0.26444 0.63132 0.0
H2853 H 0.33135 0.27658 0.65476 0.0
H2854 H 0.35047 0.26352 0.61613 0.0
H2855 H 0.31978 0.27341 0.6023 0.0
H2856 H 0.31146 0.28703 0.598 0.0
H2857 H 0.33794 0.30602 0.56032 0.0
H2858 H 0.34655 0.29262 0.56457 0.0
H2859 H 0.3372 0.2247 0.54676 0.0
H2860 H 0.33513 0.23505 0.57079 0.0
H2861 H 0.3553 0.26952 0.54592 0.0
H2862 H 0.35686 0.25922 0.52165 0.0
H2863 H 0.33679 0.26859 0.56116 0.0
H2864 H 0.36833 0.25984 0.57577 0.0
H2865 H 0.3773 0.24679 0.58024 0.0
H2866 H 0.35003 0.22629 0.61642 0.0
H2867 H 0.3408 0.23912 0.61201 0.0
C2868 C 0.35038 0.29966 0.62931 0.0
C2869 C 0.34356 0.29398 0.64345 0.0
C2870 C 0.35021 0.29271 0.61591 0.0
C2871 C 0.34327 0.27996 0.61646 0.0
C2872 C 0.3366 0.27426 0.63066 0.0
C2873 C 0.33667 0.28121 0.644 0.0
C2874 C 0.34299 0.27261 0.60218 0.0
C2875 C 0.34731 0.26448 0.60415 0.0
C2876 C 0.33908 0.27405 0.58652 0.0
C2877 C 0.33388 0.28208 0.58387 0.0
C2878 C 0.3239 0.28055 0.59319 0.0
C2879 C 0.31911 0.28822 0.59075 0.0
C2880 C 0.32419 0.2974 0.57892 0.0
C2881 C 0.33403 0.29891 0.56949 0.0
C2882 C 0.33886 0.29127 0.5719 0.0
C2883 C 0.34108 0.23447 0.54634 0.0
C2884 C 0.3473 0.24112 0.53229 0.0
C2885 C 0.34 0.24039 0.56016 0.0
C2886 C 0.34522 0.2531 0.56027 0.0
C2887 C 0.35125 0.25972 0.54618 0.0
C2888 C 0.35225 0.25381 0.53236 0.0
C2889 C 0.34446 0.25959 0.575 0.0
C2890 C 0.33991 0.26756 0.57313 0.0
C2891 C 0.34825 0.25806 0.59074 0.0
C2892 C 0.35379 0.25035 0.59342 0.0
C2893 C 0.36419 0.25248 0.58458 0.0
C2894 C 0.36933 0.24514 0.58712 0.0
C2895 C 0.36422 0.23569 0.59857 0.0
C2896 C 0.35397 0.23359 0.60754 0.0
C2897 C 0.34878 0.2409 0.60503 0.0
H2898 H 0.36821 0.23002 0.60052 0.0
H2899 H 0.32047 0.30333 0.57704 0.0
H2900 H 0.74305 0.05784 0.65318 0.0
H2901 H 0.75606 0.07023 0.63067 0.0
H2902 H 0.72831 0.07815 0.61514 0.0
H2903 H 0.71518 0.06569 0.63769 0.0
H2904 H 0.73781 0.07151 0.58949 0.0
H2905 H 0.753 0.09959 0.63434 0.0
H2906 H 0.76081 0.10635 0.66236 0.0
H2907 H 0.79163 0.10217 0.65194 0.0
H2908 H 0.78391 0.0952 0.62392 0.0
H2909 H 0.77529 0.1149 0.53057 0.0
H2910 H 0.76233 0.10574 0.55449 0.0
H2911 H 0.78931 0.09869 0.57565 0.0
H2912 H 0.80264 0.10844 0.55214 0.0
H2913 H 0.77967 0.10588 0.59877 0.0
H2914 H 0.76401 0.0764 0.55517 0.0
H2915 H 0.75614 0.06879 0.5274 0.0
H2916 H 0.72626 0.07489 0.53571 0.0
H2917 H 0.73405 0.08269 0.56347 0.0
C2918 C 0.73972 0.06225 0.645 0.0
C2919 C 0.7281 0.06081 0.6472 0.0
C2920 C 0.74719 0.06937 0.6322 0.0
C2921 C 0.7432 0.07522 0.62135 0.0
C2922 C 0.73156 0.07374 0.62343 0.0
C2923 C 0.72409 0.06665 0.63631 0.0
C2924 C 0.75111 0.08261 0.60761 0.0
C2925 C 0.74688 0.07917 0.5915 0.0
C2926 C 0.76305 0.09241 0.61028 0.0
C2927 C 0.76782 0.09677 0.62706 0.0
C2928 C 0.7614 0.10003 0.63805 0.0
C2929 C 0.76582 0.10391 0.65393 0.0
C2930 C 0.77669 0.10466 0.65894 0.0
C2931 C 0.7832 0.10157 0.64805 0.0
C2932 C 0.77881 0.09767 0.63216 0.0
C2933 C 0.7786 0.11163 0.54044 0.0
C2934 C 0.79001 0.11237 0.53934 0.0
C2935 C 0.7711 0.10625 0.55404 0.0
C2936 C 0.77474 0.10131 0.56674 0.0
C2937 C 0.78627 0.10237 0.56596 0.0
C2938 C 0.79383 0.10784 0.55241 0.0
C2939 C 0.76641 0.09472 0.5806 0.0
C2940 C 0.77056 0.0983 0.59674 0.0
C2941 C 0.75441 0.08498 0.57797 0.0
C2942 C 0.74969 0.08025 0.56132 0.0
C2943 C 0.75581 0.0762 0.55103 0.0
C2944 C 0.75136 0.07184 0.5353 0.0
C2945 C 0.74073 0.07139 0.52978 0.0
C2946 C 0.73451 0.07527 0.54 0.0
C2947 C 0.73893 0.07965 0.55573 0.0
H2948 H 0.73729 0.06802 0.5176 0.0
H2949 H 0.78008 0.10765 0.67125 0.0
H2950 H 0.94819 0.65529 0.63994 0.0
H2951 H 0.93562 0.65463 0.61679 0.0
H2952 H 0.95307 0.69379 0.61759 0.0
H2953 H 0.96526 0.69442 0.64118 0.0
H2954 H 0.93025 0.68517 0.61292 0.0
H2955 H 0.95986 0.67764 0.58817 0.0
H2956 H 0.97198 0.6676 0.58419 0.0
H2957 H 0.93935 0.6337 0.57462 0.0
H2958 H 0.92702 0.64351 0.57876 0.0
H2959 H 0.91236 0.69055 0.53078 0.0
H2960 H 0.92395 0.69163 0.55532 0.0
H2961 H 0.90114 0.65299 0.56231 0.0
H2962 H 0.88916 0.65186 0.53824 0.0
H2963 H 0.92673 0.66164 0.56264 0.0
H2964 H 0.89748 0.67055 0.58719 0.0
H2965 H 0.88647 0.68181 0.59005 0.0
H2966 H 0.92021 0.71489 0.5984 0.0
H2967 H 0.93146 0.70385 0.59536 0.0
C2968 C 0.94935 0.66375 0.63515 0.0
C2969 C 0.95773 0.6749 0.64232 0.0
C2970 C 0.9422 0.66338 0.62185 0.0
C2971 C 0.94351 0.67418 0.61522 0.0
C2972 C 0.95187 0.68533 0.62245 0.0
C2973 C 0.95887 0.68568 0.63591 0.0
C2974 C 0.9361 0.67387 0.60088 0.0
C2975 C 0.92963 0.68015 0.60186 0.0
C2976 C 0.93513 0.66722 0.58645 0.0
C2977 C 0.94251 0.66129 0.58394 0.0
C2978 C 0.95527 0.66803 0.58534 0.0
C2979 C 0.96217 0.66238 0.58304 0.0
C2980 C 0.95644 0.65001 0.5792 0.0
C2981 C 0.94378 0.64327 0.57762 0.0
C2982 C 0.93683 0.64887 0.57993 0.0
C2983 C 0.90961 0.68231 0.53771 0.0
C2984 C 0.89983 0.6711 0.53241 0.0
C2985 C 0.91631 0.68294 0.55168 0.0
C2986 C 0.91341 0.67238 0.56057 0.0
C2987 C 0.90357 0.66123 0.55553 0.0
C2988 C 0.89678 0.66061 0.5417 0.0
C2989 C 0.92091 0.67287 0.5748 0.0
C2990 C 0.92739 0.66664 0.57375 0.0
C2991 C 0.92208 0.67975 0.589 0.0
C2992 C 0.91532 0.68639 0.59087 0.0
C2993 C 0.90257 0.68024 0.58948 0.0
C2994 C 0.89628 0.68658 0.59117 0.0
C2995 C 0.90264 0.69906 0.59436 0.0
C2996 C 0.9153 0.70522 0.59591 0.0
C2997 C 0.92163 0.69893 0.59422 0.0
H2998 H 0.89775 0.70395 0.59567 0.0
H2999 H 0.9618 0.64565 0.57742 0.0
H3000 H 0.97843 0.68914 0.73975 0.0
H3001 H 0.96792 0.69038 0.76426 0.0
H3002 H 0.93446 0.67582 0.73675 0.0
H3003 H 0.94492 0.67475 0.71225 0.0
H3004 H 0.93731 0.69413 0.75564 0.0
H3005 H 0.93986 0.65797 0.76293 0.0
H3006 H 0.95023 0.64601 0.76477 0.0
H3007 H 0.97136 0.66773 0.80557 0.0
H3008 H 0.96123 0.67993 0.80382 0.0
H3009 H 0.89571 0.67715 0.82207 0.0
H3010 H 0.90676 0.67664 0.79777 0.0
H3011 H 0.9398 0.69125 0.8262 0.0
H3012 H 0.92875 0.69134 0.85063 0.0
H3013 H 0.93745 0.67325 0.80699 0.0
H3014 H 0.93451 0.70921 0.79984 0.0
H3015 H 0.9239 0.72093 0.79794 0.0
H3016 H 0.90325 0.69931 0.7568 0.0
H3017 H 0.91362 0.68735 0.75859 0.0
C3018 C 0.96885 0.68628 0.73893 0.0
C3019 C 0.96249 0.68182 0.7241 0.0
C3020 C 0.96284 0.68693 0.75295 0.0
C3021 C 0.95035 0.68305 0.7524 0.0
C3022 C 0.94408 0.67885 0.73749 0.0
C3023 C 0.95008 0.67823 0.7235 0.0
C3024 C 0.94373 0.6832 0.76734 0.0
C3025 C 0.93724 0.68945 0.76681 0.0
C3026 C 0.9438 0.67729 0.78203 0.0
C3027 C 0.94988 0.66994 0.78313 0.0
C3028 C 0.94679 0.66026 0.77221 0.0
C3029 C 0.95261 0.65343 0.77325 0.0
C3030 C 0.96147 0.65613 0.78525 0.0
C3031 C 0.96451 0.66566 0.79626 0.0
C3032 C 0.95872 0.67253 0.79526 0.0
C3033 C 0.9053 0.68015 0.82318 0.0
C3034 C 0.91135 0.68437 0.83828 0.0
C3035 C 0.91163 0.67997 0.80924 0.0
C3036 C 0.92416 0.68407 0.8101 0.0
C3037 C 0.93017 0.6881 0.82521 0.0
C3038 C 0.92384 0.68826 0.83914 0.0
C3039 C 0.93103 0.68416 0.79529 0.0
C3040 C 0.93756 0.67795 0.79584 0.0
C3041 C 0.93096 0.69008 0.78061 0.0
C3042 C 0.92476 0.69731 0.77945 0.0
C3043 C 0.92764 0.7069 0.79046 0.0
C3044 C 0.92168 0.7136 0.7894 0.0
C3045 C 0.91288 0.71085 0.77728 0.0
C3046 C 0.91005 0.70142 0.76619 0.0
C3047 C 0.91598 0.69469 0.76722 0.0
H3048 H 0.90828 0.71605 0.77648 0.0
H3049 H 0.96597 0.65083 0.78604 0.0
H3050 H 0.35961 0.29512 0.71775 0.0
H3051 H 0.3592 0.28242 0.74044 0.0
H3052 H 0.32455 0.27741 0.7561 0.0
H3053 H 0.32496 0.29029 0.73336 0.0
H3054 H 0.34013 0.28224 0.78188 0.0
H3055 H 0.32563 0.25466 0.73669 0.0
H3056 H 0.32581 0.2476 0.70858 0.0
H3057 H 0.35989 0.24937 0.71819 0.0
H3058 H 0.36001 0.25661 0.7463 0.0
H3059 H 0.3336 0.23744 0.83982 0.0
H3060 H 0.32944 0.24692 0.81648 0.0
H3061 H 0.36315 0.25421 0.79392 0.0
H3062 H 0.36716 0.24439 0.81691 0.0
H3063 H 0.34537 0.24668 0.77152 0.0
H3064 H 0.36088 0.27616 0.81543 0.0
H3065 H 0.36114 0.28366 0.84342 0.0
H3066 H 0.32539 0.27853 0.83606 0.0
H3067 H 0.32486 0.27085 0.80808 0.0
C3068 C 0.35189 0.29133 0.72601 0.0
C3069 C 0.34229 0.29367 0.72374 0.0
C3070 C 0.35164 0.28401 0.73893 0.0
C3071 C 0.34176 0.27881 0.74982 0.0
C3072 C 0.33224 0.28129 0.74778 0.0
C3073 C 0.33247 0.28863 0.73479 0.0
C3074 C 0.34156 0.27092 0.7634 0.0
C3075 C 0.34103 0.27432 0.77962 0.0
C3076 C 0.34295 0.26071 0.76045 0.0
C3077 C 0.34287 0.25626 0.74358 0.0
C3078 C 0.33321 0.25362 0.73278 0.0
C3079 C 0.33325 0.24957 0.71684 0.0
C3080 C 0.34287 0.24806 0.71159 0.0
C3081 C 0.35245 0.25055 0.72227 0.0
C3082 C 0.35246 0.25462 0.73822 0.0
C3083 C 0.34002 0.24087 0.82975 0.0
C3084 C 0.35076 0.24022 0.83029 0.0
C3085 C 0.33769 0.24639 0.81649 0.0
C3086 C 0.34607 0.25144 0.80356 0.0
C3087 C 0.35657 0.25042 0.80379 0.0
C3088 C 0.3589 0.2449 0.81701 0.0
C3089 C 0.34417 0.25813 0.79001 0.0
C3090 C 0.3443 0.2545 0.77378 0.0
C3091 C 0.34245 0.26814 0.79296 0.0
C3092 C 0.34277 0.2728 0.80974 0.0
C3093 C 0.35304 0.27654 0.81983 0.0
C3094 C 0.35324 0.28084 0.83568 0.0
C3095 C 0.34327 0.28154 0.84153 0.0
C3096 C 0.33309 0.27797 0.83152 0.0
C3097 C 0.33284 0.27364 0.81567 0.0
H3098 H 0.34344 0.28487 0.8538 0.0
H3099 H 0.34288 0.24492 0.69925 0.0
H3100 H 0.72588 0.07503 0.7208 0.0
H3101 H 0.73884 0.08701 0.74364 0.0
H3102 H 0.74654 0.05837 0.75479 0.0
H3103 H 0.73339 0.04624 0.73211 0.0
H3104 H 0.74143 0.06653 0.78204 0.0
H3105 H 0.76764 0.08468 0.73571 0.0
H3106 H 0.77327 0.0942 0.70834 0.0
H3107 H 0.76918 0.12389 0.72542 0.0
H3108 H 0.76335 0.11446 0.75283 0.0
H3109 H 0.78834 0.10027 0.83901 0.0
H3110 H 0.77781 0.08902 0.81433 0.0
H3111 H 0.769 0.1167 0.80206 0.0
H3112 H 0.77995 0.12828 0.82641 0.0
H3113 H 0.77529 0.10893 0.77503 0.0
H3114 H 0.74821 0.09039 0.82077 0.0
H3115 H 0.74221 0.08079 0.84805 0.0
H3116 H 0.74773 0.05178 0.83188 0.0
H3117 H 0.75393 0.06131 0.80456 0.0
C3118 C 0.73035 0.0713 0.72809 0.0
C3119 C 0.72864 0.05971 0.72465 0.0
C3120 C 0.73781 0.07817 0.74109 0.0
C3121 C 0.7438 0.07366 0.7508 0.0
C3122 C 0.74204 0.06205 0.74744 0.0
C3123 C 0.73454 0.05515 0.73447 0.0
C3124 C 0.75164 0.08091 0.76472 0.0
C3125 C 0.74896 0.07573 0.78045 0.0
C3126 C 0.76129 0.09302 0.76272 0.0
C3127 C 0.76495 0.0988 0.74629 0.0
C3128 C 0.76786 0.0932 0.7336 0.0
C3129 C 0.7711 0.09859 0.71808 0.0
C3130 C 0.77155 0.10963 0.71513 0.0
C3131 C 0.76881 0.11533 0.72772 0.0
C3132 C 0.76555 0.10998 0.74325 0.0
C3133 C 0.78437 0.1041 0.83092 0.0
C3134 C 0.78494 0.11516 0.83477 0.0
C3135 C 0.77824 0.09759 0.81689 0.0
C3136 C 0.77244 0.10192 0.80648 0.0
C3137 C 0.77335 0.11315 0.80996 0.0
C3138 C 0.77952 0.1197 0.82397 0.0
C3139 C 0.76507 0.09454 0.79232 0.0
C3140 C 0.76781 0.0997 0.77657 0.0
C3141 C 0.75546 0.08241 0.79429 0.0
C3142 C 0.75165 0.07663 0.81067 0.0
C3143 C 0.74823 0.08201 0.82307 0.0
C3144 C 0.74478 0.07658 0.83853 0.0
C3145 C 0.74462 0.0657 0.84171 0.0
C3146 C 0.74788 0.06022 0.82941 0.0
C3147 C 0.75135 0.06562 0.81393 0.0
H3148 H 0.74194 0.06151 0.85369 0.0
H3149 H 0.77405 0.11378 0.70311 0.0
H3150 H 0.02649 0.34545 0.03039 0.0
H3151 H 0.04257 0.34165 0.03983 0.0
H3152 H 0.06908 0.37963 0.03331 0.0
H3153 H 0.05313 0.38335 0.02317 0.0
H3154 H 0.07898 0.367 0.02502 0.0
H3155 H 0.0556 0.36678 0.0716 0.0
H3156 H 0.03702 0.36008 0.08807 0.0
H3157 H 0.03114 0.32377 0.08942 0.0
H3158 H 0.04961 0.33023 0.07276 0.0
H3159 H 0.12165 0.37742 0.08838 0.0
H3160 H 0.10569 0.37637 0.07082 0.0
H3161 H 0.08859 0.33733 0.06919 0.0
H3162 H 0.105 0.33825 0.08601 0.0
H3163 H 0.07337 0.34767 0.07966 0.0
H3164 H 0.09955 0.34998 0.03588 0.0
H3165 H 0.11902 0.35831 0.02105 0.0
H3166 H 0.12062 0.39271 0.01637 0.0
H3167 H 0.10124 0.38464 0.0314 0.0
C3168 C 0.03578 0.35295 0.03079 0.0
C3169 C 0.03856 0.36471 0.02617 0.0
C3170 C 0.04496 0.35078 0.03627 0.0
C3171 C 0.05702 0.3604 0.03764 0.0
C3172 C 0.05986 0.37206 0.0324 0.0
C3173 C 0.05072 0.37419 0.02665 0.0
C3174 C 0.06661 0.35851 0.04523 0.0
C3175 C 0.07775 0.36282 0.037 0.0
C3176 C 0.06499 0.35285 0.06075 0.0
C3177 C 0.05389 0.34895 0.07077 0.0
C3178 C 0.05029 0.35735 0.07531 0.0
C3179 C 0.03979 0.3536 0.08469 0.0
C3180 C 0.03288 0.3415 0.08974 0.0
C3181 C 0.03649 0.33313 0.08546 0.0
C3182 C 0.04697 0.33683 0.07606 0.0
C3183 C 0.11478 0.36859 0.08392 0.0
C3184 C 0.11475 0.35792 0.08869 0.0
C3185 C 0.10558 0.36803 0.07395 0.0
C3186 C 0.096 0.35679 0.0687 0.0
C3187 C 0.09593 0.3461 0.07316 0.0
C3188 C 0.10529 0.34666 0.08289 0.0
C3189 C 0.0857 0.35631 0.05954 0.0
C3190 C 0.07447 0.35162 0.06753 0.0
C3191 C 0.08733 0.36184 0.04398 0.0
C3192 C 0.09897 0.36672 0.03488 0.0
C3193 C 0.1041 0.35935 0.03181 0.0
C3194 C 0.11511 0.36402 0.02335 0.0
C3195 C 0.12107 0.37604 0.0178 0.0
C3196 C 0.116 0.3834 0.02068 0.0
C3197 C 0.10499 0.37878 0.02916 0.0
H3198 H 0.12959 0.37963 0.01124 0.0
H3199 H 0.02476 0.33861 0.09701 0.0
H3200 H 0.63748 0.67935 0.02278 0.0
H3201 H 0.64046 0.69843 0.03433 0.0
H3202 H 0.67458 0.70553 0.05543 0.0
H3203 H 0.67144 0.68631 0.04437 0.0
H3204 H 0.66231 0.7098 0.07722 0.0
H3205 H 0.67246 0.72085 0.02047 0.0
H3206 H 0.66895 0.71894 0.99057 0.0
H3207 H 0.63782 0.72336 0.99667 0.0
H3208 H 0.64106 0.72513 0.02663 0.0
H3209 H 0.68922 0.77166 0.09699 0.0
H3210 H 0.68452 0.75288 0.08287 0.0
H3211 H 0.64885 0.74678 0.07066 0.0
H3212 H 0.65358 0.76577 0.08463 0.0
H3213 H 0.66031 0.74168 0.04454 0.0
H3214 H 0.65095 0.73159 0.10132 0.0
H3215 H 0.65494 0.73397 0.13109 0.0
H3216 H 0.68511 0.72804 0.12469 0.0
H3217 H 0.68141 0.7258 0.09483 0.0
C3218 C 0.64566 0.68503 0.02979 0.0
C3219 C 0.65423 0.68134 0.03266 0.0
C3220 C 0.64738 0.69597 0.03633 0.0
C3221 C 0.65782 0.70351 0.04564 0.0
C3222 C 0.66645 0.69987 0.04833 0.0
C3223 C 0.66466 0.6889 0.04195 0.0
C3224 C 0.65962 0.715 0.05308 0.0
C3225 C 0.66202 0.71682 0.06999 0.0
C3226 C 0.65887 0.72404 0.04381 0.0
C3227 C 0.65693 0.72299 0.0258 0.0
C3228 C 0.66481 0.72132 0.01544 0.0
C3229 C 0.66288 0.72028 0.99848 0.0
C3230 C 0.65315 0.72099 0.99173 0.0
C3231 C 0.64535 0.72279 0.00192 0.0
C3232 C 0.64723 0.72382 0.01889 0.0
C3233 C 0.68045 0.76646 0.09105 0.0
C3234 C 0.67178 0.77023 0.09191 0.0
C3235 C 0.67774 0.75567 0.08311 0.0
C3236 C 0.6663 0.74838 0.07588 0.0
C3237 C 0.65773 0.75227 0.07622 0.0
C3238 C 0.66041 0.76307 0.08427 0.0
C3239 C 0.66323 0.73651 0.06851 0.0
C3240 C 0.66055 0.73461 0.0517 0.0
C3241 C 0.66377 0.7274 0.07783 0.0
C3242 C 0.66596 0.72863 0.09581 0.0
C3243 C 0.65849 0.73088 0.10624 0.0
C3244 C 0.66069 0.73219 0.12313 0.0
C3245 C 0.67029 0.73118 0.12977 0.0
C3246 C 0.67768 0.72883 0.11953 0.0
C3247 C 0.67553 0.72753 0.10262 0.0
H3248 H 0.67198 0.7322 0.14286 0.0
H3249 H 0.65167 0.72019 0.9786 0.0
H3250 H 0.33122 0.98059 0.01183 0.0
H3251 H 0.31199 0.96343 0.02154 0.0
H3252 H 0.33091 0.95795 0.06163 0.0
H3253 H 0.35014 0.975 0.05194 0.0
H3254 H 0.31392 0.93638 0.04798 0.0
H3255 H 0.31586 0.97317 0.06764 0.0
H3256 H 0.31794 0.99342 0.06464 0.0
H3257 H 0.28646 0.97836 0.03342 0.0
H3258 H 0.2843 0.95803 0.03607 0.0
H3259 H 0.26696 0.90424 0.10606 0.0
H3260 H 0.28508 0.91808 0.09043 0.0
H3261 H 0.2627 0.92326 0.05522 0.0
H3262 H 0.24453 0.90955 0.07103 0.0
H3263 H 0.2808 0.94426 0.06379 0.0
H3264 H 0.27763 0.90704 0.04598 0.0
H3265 H 0.27549 0.88676 0.0489 0.0
H3266 H 0.30895 0.90226 0.07607 0.0
H3267 H 0.31121 0.92262 0.07352 0.0
C3268 C 0.33129 0.97566 0.02263 0.0
C3269 C 0.34217 0.97918 0.03118 0.0
C3270 C 0.3203 0.96588 0.02819 0.0
C3271 C 0.32 0.95949 0.04242 0.0
C3272 C 0.33092 0.96275 0.05064 0.0
C3273 C 0.3419 0.97253 0.04511 0.0
C3274 C 0.30827 0.94974 0.04918 0.0
C3275 C 0.30669 0.9381 0.05155 0.0
C3276 C 0.29873 0.95191 0.05344 0.0
C3277 C 0.3 0.96411 0.0519 0.0
C3278 C 0.30944 0.97419 0.06003 0.0
C3279 C 0.31063 0.98568 0.05841 0.0
C3280 C 0.30236 0.98718 0.04881 0.0
C3281 C 0.29287 0.97719 0.04083 0.0
C3282 C 0.29166 0.96568 0.04239 0.0
C3283 C 0.26587 0.90812 0.0948 0.0
C3284 C 0.25431 0.90579 0.08977 0.0
C3285 C 0.27625 0.91604 0.08585 0.0
C3286 C 0.27529 0.92165 0.07152 0.0
C3287 C 0.2637 0.91907 0.06623 0.0
C3288 C 0.25332 0.91123 0.07527 0.0
C3289 C 0.28641 0.93084 0.06274 0.0
C3290 C 0.28792 0.94243 0.06003 0.0
C3291 C 0.29585 0.92859 0.05813 0.0
C3292 C 0.29454 0.91635 0.05966 0.0
C3293 C 0.28449 0.90612 0.05268 0.0
C3294 C 0.28326 0.89461 0.05425 0.0
C3295 C 0.29207 0.89322 0.06269 0.0
C3296 C 0.30213 0.90335 0.06954 0.0
C3297 C 0.3034 0.91488 0.06802 0.0
H3298 H 0.2911 0.8843 0.06389 0.0
H3299 H 0.30329 0.99608 0.04757 0.0
H3300 H 0.38833 0.04913 0.99026 0.0
H3301 H 0.38572 0.06586 0.98072 0.0
H3302 H 0.35556 0.05479 0.01402 0.0
H3303 H 0.35791 0.03774 0.02324 0.0
H3304 H 0.34946 0.059 0.98571 0.0
H3305 H 0.38379 0.08141 0.01998 0.0
H3306 H 0.40417 0.08838 0.03157 0.0
H3307 H 0.42038 0.10264 0.98462 0.0
H3308 H 0.40008 0.09561 0.97267 0.0
H3309 H 0.34686 0.11272 0.96576 0.0
H3310 H 0.35069 0.09887 0.98214 0.0
H3311 H 0.37428 0.09871 0.94432 0.0
H3312 H 0.37002 0.11193 0.92743 0.0
H3313 H 0.38337 0.10132 0.97826 0.0
H3314 H 0.34791 0.07636 0.94426 0.0
H3315 H 0.3273 0.06982 0.93384 0.0
H3316 H 0.31307 0.061 0.98283 0.0
H3317 H 0.33366 0.06767 0.99357 0.0
C3318 C 0.38124 0.05034 0.99571 0.0
C3319 C 0.37333 0.04212 0.00751 0.0
C3320 C 0.37979 0.05997 0.9903 0.0
C3321 C 0.37054 0.06172 0.99678 0.0
C3322 C 0.36278 0.05365 0.00884 0.0
C3323 C 0.36415 0.04393 0.01414 0.0
C3324 C 0.36851 0.07149 0.99017 0.0
C3325 C 0.35685 0.0683 0.98443 0.0
C3326 C 0.37814 0.08364 0.98829 0.0
C3327 C 0.39039 0.08789 0.9954 0.0
C3328 C 0.39169 0.08595 0.01209 0.0
C3329 C 0.40323 0.08993 0.01873 0.0
C3330 C 0.41356 0.09593 0.00883 0.0
C3331 C 0.41237 0.09799 0.99227 0.0
C3332 C 0.40085 0.09402 0.98556 0.0
C3333 C 0.35281 0.10971 0.96082 0.0
C3334 C 0.35807 0.11348 0.94514 0.0
C3335 C 0.35507 0.10187 0.9703 0.0
C3336 C 0.36277 0.09779 0.96442 0.0
C3337 C 0.36839 0.10186 0.94912 0.0
C3338 C 0.36598 0.10951 0.93952 0.0
C3339 C 0.36444 0.08871 0.97369 0.0
C3340 C 0.376 0.09204 0.97985 0.0
C3341 C 0.35471 0.07674 0.97619 0.0
C3342 C 0.34233 0.07266 0.96973 0.0
C3343 C 0.34041 0.07314 0.95282 0.0
C3344 C 0.32873 0.06938 0.94685 0.0
C3345 C 0.31889 0.06503 0.95767 0.0
C3346 C 0.32071 0.06439 0.97447 0.0
C3347 C 0.33237 0.06816 0.9805 0.0
H3348 H 0.30985 0.06213 0.95303 0.0
H3349 H 0.42249 0.099 0.014 0.0
H3350 H 0.97526 0.33196 0.02549 0.0
H3351 H 0.95711 0.31344 0.01564 0.0
H3352 H 0.96314 0.32869 0.96696 0.0
H3353 H 0.98129 0.34701 0.97658 0.0
H3354 H 0.93865 0.31839 0.97877 0.0
H3355 H 0.97116 0.30882 0.97405 0.0
H3356 H 0.98768 0.30605 0.98513 0.0
H3357 H 0.96259 0.27892 0.01852 0.0
H3358 H 0.94595 0.28166 0.00778 0.0
H3359 H 0.90647 0.27346 0.92081 0.0
H3360 H 0.92189 0.28967 0.9377 0.0
H3361 H 0.91328 0.26451 0.97784 0.0
H3362 H 0.89785 0.24807 0.9607 0.0
H3363 H 0.93712 0.27868 0.97543 0.0
H3364 H 0.90404 0.28588 0.97829 0.0
H3365 H 0.88717 0.28842 0.96812 0.0
H3366 H 0.91236 0.31968 0.94028 0.0
H3367 H 0.92937 0.31724 0.95009 0.0
C3368 C 0.97268 0.33133 0.0127 0.0
C3369 C 0.97969 0.3409 0.00179 0.0
C3370 C 0.96235 0.32077 0.0071 0.0
C3371 C 0.95882 0.31972 0.99057 0.0
C3372 C 0.96571 0.32934 0.97976 0.0
C3373 C 0.9761 0.33978 0.98527 0.0
C3374 C 0.94799 0.30863 0.98429 0.0
C3375 C 0.9383 0.3097 0.97798 0.0
C3376 C 0.94737 0.29722 0.98386 0.0
C3377 C 0.95736 0.29556 0.99027 0.0
C3378 C 0.9692 0.30235 0.98387 0.0
C3379 C 0.97857 0.30077 0.99006 0.0
C3380 C 0.97619 0.29235 0.00257 0.0
C3381 C 0.96442 0.28546 0.00886 0.0
C3382 C 0.95502 0.28702 0.00273 0.0
C3383 C 0.90775 0.27139 0.93329 0.0
C3384 C 0.90082 0.25953 0.93952 0.0
C3385 C 0.91657 0.28068 0.94296 0.0
C3386 C 0.91857 0.2784 0.9592 0.0
C3387 C 0.91184 0.26651 0.96539 0.0
C3388 C 0.90304 0.25713 0.95561 0.0
C3389 C 0.92789 0.2885 0.96938 0.0
C3390 C 0.93729 0.28727 0.97647 0.0
C3391 C 0.92818 0.29976 0.97074 0.0
C3392 C 0.91798 0.30133 0.96487 0.0
C3393 C 0.90598 0.29326 0.96992 0.0
C3394 C 0.89639 0.29468 0.96423 0.0
C3395 C 0.89869 0.30419 0.95354 0.0
C3396 C 0.91059 0.31232 0.94856 0.0
C3397 C 0.92022 0.31093 0.9542 0.0
H3398 H 0.89125 0.30528 0.94915 0.0
H3399 H 0.98346 0.29113 0.00734 0.0
H3400 H 0.68305 0.64158 0.0155 0.0
H3401 H 0.70188 0.64437 0.00322 0.0
H3402 H 0.70162 0.66995 0.96865 0.0
H3403 H 0.68266 0.66692 0.98055 0.0
H3404 H 0.70634 0.65482 0.95327 0.0
H3405 H 0.72135 0.67873 0.00263 0.0
H3406 H 0.72256 0.68241 0.03247 0.0
H3407 H 0.73257 0.65515 0.0401 0.0
H3408 H 0.73126 0.65121 0.01031 0.0
H3409 H 0.76615 0.68537 0.92359 0.0
H3410 H 0.74746 0.68015 0.93829 0.0
H3411 H 0.75025 0.65243 0.96517 0.0
H3412 H 0.76924 0.6578 0.95062 0.0
H3413 H 0.74395 0.66647 0.98503 0.0
H3414 H 0.7304 0.64389 0.93496 0.0
H3415 H 0.72961 0.64091 0.905 0.0
H3416 H 0.71709 0.66636 0.89863 0.0
H3417 H 0.71799 0.66964 0.92856 0.0
C3418 C 0.68706 0.64785 0.00534 0.0
C3419 C 0.68139 0.65403 0.99899 0.0
C3420 C 0.69785 0.64947 0.99837 0.0
C3421 C 0.70325 0.65746 0.98508 0.0
C3422 C 0.69763 0.66372 0.97886 0.0
C3423 C 0.6868 0.66201 0.98571 0.0
C3424 C 0.71457 0.6591 0.97727 0.0
C3425 C 0.71459 0.65749 0.96022 0.0
C3426 C 0.72526 0.6622 0.98637 0.0
C3427 C 0.72607 0.66458 0.00427 0.0
C3428 C 0.72371 0.67346 0.01069 0.0
C3429 C 0.72444 0.6756 0.02759 0.0
C3430 C 0.7276 0.66899 0.03818 0.0
C3431 C 0.73009 0.66025 0.03188 0.0
C3432 C 0.72937 0.65806 0.01499 0.0
C3433 C 0.7629 0.67826 0.93277 0.0
C3434 C 0.76923 0.67204 0.93599 0.0
C3435 C 0.75214 0.67521 0.94106 0.0
C3436 C 0.7474 0.66583 0.95271 0.0
C3437 C 0.75375 0.65969 0.95618 0.0
C3438 C 0.76454 0.66271 0.9478 0.0
C3439 C 0.73574 0.66247 0.96105 0.0
C3440 C 0.73565 0.6637 0.97815 0.0
C3441 C 0.72499 0.65909 0.95201 0.0
C3442 C 0.72435 0.65707 0.934 0.0
C3443 C 0.72757 0.64892 0.92717 0.0
C3444 C 0.72708 0.64717 0.91019 0.0
C3445 C 0.72333 0.65346 0.89992 0.0
C3446 C 0.72001 0.6615 0.90661 0.0
C3447 C 0.72049 0.66329 0.92358 0.0
H3448 H 0.72296 0.65209 0.88677 0.0
H3449 H 0.72816 0.67067 0.05126 0.0
H3450 H 0.98153 0.64329 0.97638 0.0
H3451 H 0.96496 0.64586 0.96602 0.0
H3452 H 0.96104 0.65824 0.0137 0.0
H3453 H 0.97745 0.65524 0.02434 0.0
H3454 H 0.93921 0.64434 1.00018 0.0
H3455 H 0.97652 0.67858 0.98252 0.0
H3456 H 0.99692 0.68925 0.96994 0.0
H3457 H 0.98171 0.67219 0.92368 0.0
H3458 H 0.96124 0.66128 0.93605 0.0
H3459 H 0.90739 0.67321 0.96579 0.0
H3460 H 0.92141 0.66848 0.98039 0.0
H3461 H 0.92586 0.65226 0.93641 0.0
H3462 H 0.91211 0.65712 0.92173 0.0
H3463 H 0.94757 0.6692 0.94978 0.0
H3464 H 0.91001 0.63474 0.9684 0.0
H3465 H 0.8898 0.62466 0.98154 0.0
H3466 H 0.90577 0.64332 0.02667 0.0
H3467 H 0.92606 0.65364 0.01373 0.0
C3468 C 0.9771 0.6465 0.9847 0.0
C3469 C 0.98086 0.6492 0.00113 0.0
C3470 C 0.96765 0.64801 0.97875 0.0
C3471 C 0.96193 0.65253 0.98896 0.0
C3472 C 0.96536 0.65482 0.00556 0.0
C3473 C 0.97475 0.65313 0.01161 0.0
C3474 C 0.95268 0.65519 0.98205 0.0
C3475 C 0.94109 0.64993 0.9893 0.0
C3476 C 0.95507 0.6624 0.96778 0.0
C3477 C 0.96736 0.66904 0.96025 0.0
C3478 C 0.97754 0.67704 0.96969 0.0
C3479 C 0.98911 0.68315 0.96259 0.0
C3480 C 0.99061 0.68138 0.94603 0.0
C3481 C 0.98054 0.67354 0.93651 0.0
C3482 C 0.96894 0.66741 0.94356 0.0
C3483 C 0.91128 0.66853 0.95929 0.0
C3484 C 0.90862 0.66553 0.9426 0.0
C3485 C 0.91922 0.66577 0.96767 0.0
C3486 C 0.92466 0.66 0.95949 0.0
C3487 C 0.92175 0.65671 0.94297 0.0
C3488 C 0.91379 0.6594 0.93463 0.0
C3489 C 0.93404 0.65813 0.96766 0.0
C3490 C 0.94569 0.66364 0.96069 0.0
C3491 C 0.93172 0.65127 0.98225 0.0
C3492 C 0.91953 0.64506 0.99004 0.0
C3493 C 0.9092 0.63678 0.98108 0.0
C3494 C 0.89773 0.631 0.9885 0.0
C3495 C 0.8965 0.63337 0.00492 0.0
C3496 C 0.90673 0.6415 0.01396 0.0
C3497 C 0.91822 0.64731 0.00659 0.0
H3498 H 0.88761 0.62889 0.01064 0.0
H3499 H 0.99958 0.68611 0.94056 0.0
H3500 H 0.35379 0.33681 0.98035 0.0
H3501 H 0.35135 0.3177 0.9699 0.0
H3502 H 0.3746 0.31765 0.00847 0.0
H3503 H 0.37715 0.33685 0.01894 0.0
H3504 H 0.38104 0.31308 0.97887 0.0
H3505 H 0.34433 0.29788 0.00973 0.0
H3506 H 0.32518 0.29654 0.01877 0.0
H3507 H 0.31089 0.28711 0.96986 0.0
H3508 H 0.33003 0.28856 0.96045 0.0
H3509 H 0.37026 0.25438 0.95683 0.0
H3510 H 0.37078 0.27083 0.97308 0.0
H3511 H 0.34749 0.27434 0.93765 0.0
H3512 H 0.34697 0.258 0.92136 0.0
H3513 H 0.34097 0.2763 0.9684 0.0
H3514 H 0.37818 0.29341 0.93711 0.0
H3515 H 0.39737 0.29501 0.92766 0.0
H3516 H 0.41071 0.3011 0.97719 0.0
H3517 H 0.39151 0.29936 0.98697 0.0
C3518 C 0.35831 0.33269 0.98669 0.0
C3519 C 0.36566 0.33833 0.00047 0.0
C3520 C 0.35687 0.32173 0.98074 0.0
C3521 C 0.36271 0.31618 0.98849 0.0
C3522 C 0.36999 0.32176 0.00232 0.0
C3523 C 0.37141 0.33271 0.00831 0.0
C3524 C 0.36163 0.30485 0.98166 0.0
C3525 C 0.37229 0.30495 0.97688 0.0
C3526 C 0.3502 0.29434 0.97875 0.0
C3527 C 0.33866 0.29343 0.98436 0.0
C3528 C 0.33714 0.29562 0.00087 0.0
C3529 C 0.32628 0.29482 0.00606 0.0
C3530 C 0.31684 0.29177 0.99489 0.0
C3531 C 0.31822 0.28948 0.9785 0.0
C3532 C 0.32907 0.29028 0.97323 0.0
C3533 C 0.36523 0.25863 0.95253 0.0
C3534 C 0.35861 0.25488 0.93776 0.0
C3535 C 0.36552 0.26802 0.96184 0.0
C3536 C 0.35928 0.27391 0.95648 0.0
C3537 C 0.35234 0.26991 0.94205 0.0
C3538 C 0.35202 0.26052 0.93277 0.0
C3539 C 0.36037 0.28459 0.96544 0.0
C3540 C 0.34972 0.28438 0.97059 0.0
C3541 C 0.37181 0.29502 0.96865 0.0
C3542 C 0.38336 0.29611 0.96279 0.0
C3543 C 0.38517 0.29499 0.946 0.0
C3544 C 0.39605 0.29594 0.94058 0.0
C3545 C 0.40524 0.29811 0.95183 0.0
C3546 C 0.40357 0.29939 0.9685 0.0
C3547 C 0.3927 0.29843 0.97399 0.0
H3548 H 0.41366 0.29885 0.94761 0.0
H3549 H 0.30844 0.29116 0.99894 0.0
H3550 H 0.68962 0.03792 0.01999 0.0
H3551 H 0.70877 0.05436 0.00891 0.0
H3552 H 0.68871 0.0654 0.97749 0.0
H3553 H 0.66958 0.04893 0.98834 0.0
H3554 H 0.7054 0.06324 0.96049 0.0
H3555 H 0.70479 0.08248 0.01087 0.0
H3556 H 0.70346 0.08422 0.04084 0.0
H3557 H 0.73536 0.08117 0.04743 0.0
H3558 H 0.73678 0.07924 0.0175 0.0
H3559 H 0.7547 0.11676 0.92918 0.0
H3560 H 0.7363 0.10333 0.94459 0.0
H3561 H 0.75668 0.09204 0.97492 0.0
H3562 H 0.77527 0.1058 0.9599 0.0
H3563 H 0.74002 0.09458 0.99293 0.0
H3564 H 0.74035 0.07471 0.94308 0.0
H3565 H 0.74183 0.07277 0.91318 0.0
H3566 H 0.71045 0.0766 0.90578 0.0
H3567 H 0.70889 0.07874 0.93565 0.0
C3568 C 0.6893 0.04396 0.01088 0.0
C3569 C 0.67809 0.04212 0.00502 0.0
C3570 C 0.70026 0.05338 0.00459 0.0
C3571 C 0.70019 0.06116 0.9924 0.0
C3572 C 0.68899 0.05951 0.98686 0.0
C3573 C 0.67806 0.0501 0.99312 0.0
C3574 C 0.71171 0.07055 0.98467 0.0
C3575 C 0.71288 0.07021 0.96758 0.0
C3576 C 0.72164 0.07943 0.99395 0.0
C3577 C 0.72081 0.08059 0.01195 0.0
C3578 C 0.71146 0.08207 0.01872 0.0
C3579 C 0.7107 0.08311 0.0357 0.0
C3580 C 0.7193 0.08277 0.04603 0.0
C3581 C 0.72869 0.08142 0.03941 0.0
C3582 C 0.72949 0.08036 0.02244 0.0
C3583 C 0.75536 0.11164 0.93936 0.0
C3584 C 0.76648 0.11232 0.94323 0.0
C3585 C 0.74478 0.10387 0.94806 0.0
C3586 C 0.74506 0.09653 0.96073 0.0
C3587 C 0.75623 0.09757 0.96513 0.0
C3588 C 0.76683 0.10537 0.95644 0.0
C3589 C 0.73361 0.08732 0.96877 0.0
C3590 C 0.73249 0.08764 0.98588 0.0
C3591 C 0.72371 0.07837 0.95954 0.0
C3592 C 0.72458 0.07701 0.94159 0.0
C3593 C 0.73382 0.07523 0.93507 0.0
C3594 C 0.73467 0.07408 0.91813 0.0
C3595 C 0.72626 0.0746 0.90759 0.0
C3596 C 0.71697 0.07622 0.91397 0.0
C3597 C 0.7161 0.0774 0.9309 0.0
H3598 H 0.72693 0.07371 0.89448 0.0
H3599 H 0.7187 0.08358 0.05918 0.0
H3600 H 0.66677 0.98826 0.02404 0.0
H3601 H 0.6686 0.97113 0.03398 0.0
H3602 H 0.62988 0.95069 0.04265 0.0
H3603 H 0.62809 0.96801 0.03324 0.0
H3604 H 0.64083 0.94854 0.06785 0.0
H3605 H 0.64402 0.94368 0.01062 0.0
H3606 H 0.65152 0.94968 0.98233 0.0
H3607 H 0.68751 0.95903 0.99772 0.0
H3608 H 0.68027 0.95325 0.02616 0.0
H3609 H 0.64415 0.89507 0.08649 0.0
H3610 H 0.63924 0.90862 0.0712 0.0
H3611 H 0.67716 0.93621 0.07062 0.0
H3612 H 0.68214 0.92312 0.08658 0.0
H3613 H 0.66453 0.9326 0.03962 0.0
H3614 H 0.66079 0.93906 0.09758 0.0
H3615 H 0.65261 0.93234 0.12545 0.0
H3616 H 0.61629 0.91877 0.10737 0.0
H3617 H 0.62426 0.92525 0.07932 0.0
C3618 C 0.65862 0.98006 0.02788 0.0
C3619 C 0.64728 0.97947 0.02785 0.0
C3620 C 0.65966 0.97023 0.03349 0.0
C3621 C 0.64935 0.95951 0.03889 0.0
C3622 C 0.63797 0.95883 0.03855 0.0
C3623 C 0.63695 0.96872 0.03312 0.0
C3624 C 0.6506 0.94934 0.04581 0.0
C3625 C 0.64579 0.9449 0.06147 0.0
C3626 C 0.6572 0.94462 0.03766 0.0
C3627 C 0.66162 0.94811 0.02056 0.0
C3628 C 0.65356 0.9471 0.008 0.0
C3629 C 0.65776 0.95045 0.99193 0.0
C3630 C 0.66999 0.95476 0.98823 0.0
C3631 C 0.67804 0.9557 0.0006 0.0
C3632 C 0.67389 0.95237 0.0167 0.0
C3633 C 0.65146 0.90404 0.08321 0.0
C3634 C 0.66356 0.90794 0.0879 0.0
C3635 C 0.64863 0.91173 0.07434 0.0
C3636 C 0.65784 0.92341 0.0698 0.0
C3637 C 0.66994 0.92719 0.07389 0.0
C3638 C 0.67276 0.9196 0.08296 0.0
C3639 C 0.65489 0.93202 0.0616 0.0
C3640 C 0.6594 0.93616 0.04577 0.0
C3641 C 0.64789 0.93634 0.06947 0.0
C3642 C 0.64311 0.9325 0.08633 0.0
C3643 C 0.65105 0.93454 0.09952 0.0
C3644 C 0.64645 0.9308 0.11535 0.0
C3645 C 0.63393 0.92509 0.11817 0.0
C3646 C 0.62598 0.92316 0.10516 0.0
C3647 C 0.63054 0.92687 0.0893 0.0
H3648 H 0.63039 0.92221 0.13044 0.0
H3649 H 0.67322 0.95735 0.97578 0.0
H3650 H 0.02822 0.68706 0.04192 0.0
H3651 H 0.04529 0.70616 0.05199 0.0
H3652 H 0.07034 0.69903 0.02529 0.0
H3653 H 0.05332 0.67987 0.01525 0.0
H3654 H 0.07708 0.70476 0.05693 0.0
H3655 H 0.06495 0.7214 0.01298 0.0
H3656 H 0.05062 0.7248 0.99656 0.0
H3657 H 0.04315 0.74048 0.03843 0.0
H3658 H 0.05731 0.73702 0.05518 0.0
H3659 H 0.12907 0.76009 0.07825 0.0
H3660 H 0.11319 0.74418 0.06123 0.0
H3661 H 0.08624 0.75031 0.08451 0.0
H3662 H 0.10212 0.76637 0.10133 0.0
H3663 H 0.08106 0.74552 0.05279 0.0
H3664 H 0.09137 0.72746 0.09723 0.0
H3665 H 0.10512 0.72375 0.11452 0.0
H3666 H 0.11521 0.71026 0.07266 0.0
H3667 H 0.10164 0.71406 0.05507 0.0
C3668 C 0.03736 0.68964 0.03802 0.0
C3669 C 0.03944 0.68196 0.02782 0.0
C3670 C 0.0471 0.70059 0.04373 0.0
C3671 C 0.05909 0.70406 0.03932 0.0
C3672 C 0.06116 0.69653 0.02883 0.0
C3673 C 0.05143 0.6856 0.02308 0.0
C3674 C 0.06952 0.71511 0.04655 0.0
C3675 C 0.07808 0.71372 0.05575 0.0
C3676 C 0.07061 0.72672 0.04543 0.0
C3677 C 0.06212 0.72886 0.03537 0.0
C3678 C 0.06018 0.72549 0.01873 0.0
C3679 C 0.0521 0.72744 0.00935 0.0
C3680 C 0.04596 0.73283 0.01646 0.0
C3681 C 0.0479 0.7363 0.03295 0.0
C3682 C 0.05597 0.73436 0.04238 0.0
C3683 C 0.11978 0.75812 0.07961 0.0
C3684 C 0.11682 0.76441 0.09121 0.0
C3685 C 0.11071 0.74902 0.0699 0.0
C3686 C 0.09848 0.74588 0.07181 0.0
C3687 C 0.0956 0.75256 0.08282 0.0
C3688 C 0.10469 0.76175 0.09241 0.0
C3689 C 0.08861 0.73516 0.06315 0.0
C3690 C 0.08013 0.73659 0.05379 0.0
C3691 C 0.08749 0.72352 0.06423 0.0
C3692 C 0.09559 0.72116 0.07481 0.0
C3693 C 0.09659 0.72378 0.09169 0.0
C3694 C 0.10434 0.72165 0.10155 0.0
C3695 C 0.11106 0.7168 0.09468 0.0
C3696 C 0.11001 0.71404 0.07795 0.0
C3697 C 0.10229 0.71617 0.06804 0.0
H3698 H 0.11705 0.71516 0.10233 0.0
H3699 H 0.03971 0.73434 0.00918 0.0
H3700 H 0.33593 0.37642 0.01195 0.0
H3701 H 0.31684 0.3741 0.0225 0.0
H3702 H 0.31759 0.35219 0.0624 0.0
H3703 H 0.3366 0.35436 0.05183 0.0
H3704 H 0.29468 0.34295 0.04977 0.0
H3705 H 0.32726 0.38198 0.06811 0.0
H3706 H 0.34511 0.40243 0.06432 0.0
H3707 H 0.32394 0.41253 0.03403 0.0
H3708 H 0.306 0.39207 0.03747 0.0
H3709 H 0.25783 0.3486 0.11003 0.0
H3710 H 0.27354 0.34819 0.09337 0.0
H3711 H 0.27125 0.37246 0.05842 0.0
H3712 H 0.25557 0.37303 0.07525 0.0
H3713 H 0.29399 0.38024 0.06573 0.0
H3714 H 0.26078 0.34186 0.04943 0.0
H3715 H 0.24289 0.32145 0.05317 0.0
H3716 H 0.26484 0.31001 0.07913 0.0
H3717 H 0.28284 0.33041 0.07575 0.0
C3718 C 0.33198 0.37102 0.0229 0.0
C3719 C 0.3378 0.36563 0.03113 0.0
C3720 C 0.32109 0.36973 0.02893 0.0
C3721 C 0.31587 0.36309 0.04335 0.0
C3722 C 0.32146 0.35736 0.05127 0.0
C3723 C 0.33235 0.35865 0.04525 0.0
C3724 C 0.30487 0.3625 0.05061 0.0
C3725 C 0.29454 0.35109 0.05338 0.0
C3726 C 0.30458 0.37314 0.05489 0.0
C3727 C 0.31533 0.38546 0.0529 0.0
C3728 C 0.32644 0.38853 0.06054 0.0
C3729 C 0.33657 0.40013 0.05847 0.0
C3730 C 0.33567 0.40876 0.0489 0.0
C3731 C 0.32463 0.40582 0.04141 0.0
C3732 C 0.31448 0.39423 0.04343 0.0
C3733 C 0.26046 0.35364 0.09861 0.0
C3734 C 0.25542 0.36082 0.09393 0.0
C3735 C 0.26947 0.35339 0.08907 0.0
C3736 C 0.27351 0.36018 0.07451 0.0
C3737 C 0.26828 0.36714 0.0696 0.0
C3738 C 0.25933 0.36747 0.07922 0.0
C3739 C 0.28377 0.36066 0.06509 0.0
C3740 C 0.29401 0.37208 0.06194 0.0
C3741 C 0.28395 0.35002 0.06043 0.0
C3742 C 0.27315 0.33771 0.06243 0.0
C3743 C 0.26178 0.33502 0.05604 0.0
C3744 C 0.25162 0.32344 0.05808 0.0
C3745 C 0.25272 0.31444 0.06641 0.0
C3746 C 0.264 0.31699 0.07268 0.0
C3747 C 0.27419 0.32856 0.07069 0.0
H3748 H 0.24485 0.30549 0.06798 0.0
H3749 H 0.34352 0.41773 0.04731 0.0
H3750 H 0.71665 0.71375 0.34702 0.0
H3751 H 0.73363 0.71199 0.35826 0.0
H3752 H 0.71167 0.69271 0.40018 0.0
H3753 H 0.69483 0.69458 0.38919 0.0
H3754 H 0.73383 0.70955 0.40969 0.0
H3755 H 0.71687 0.678 0.36843 0.0
H3756 H 0.71043 0.66983 0.34048 0.0
H3757 H 0.74689 0.69273 0.32296 0.0
H3758 H 0.75351 0.70115 0.35079 0.0
H3759 H 0.75842 0.67583 0.44305 0.0
H3760 H 0.74587 0.68229 0.42837 0.0
H3761 H 0.77573 0.70393 0.39567 0.0
H3762 H 0.78844 0.69745 0.41044 0.0
H3763 H 0.75259 0.68915 0.37966 0.0
H3764 H 0.76984 0.71865 0.42235 0.0
H3765 H 0.77592 0.72594 0.45071 0.0
H3766 H 0.73852 0.70625 0.46588 0.0
H3767 H 0.73223 0.69868 0.43765 0.0
C3768 C 0.71546 0.70912 0.35862 0.0
C3769 C 0.7044 0.70429 0.36721 0.0
C3770 C 0.72516 0.70809 0.365 0.0
C3771 C 0.72391 0.70216 0.38004 0.0
C3772 C 0.71287 0.69736 0.3886 0.0
C3773 C 0.70322 0.6984 0.38226 0.0
C3774 C 0.73404 0.7009 0.38707 0.0
C3775 C 0.73789 0.70504 0.40313 0.0
C3776 C 0.73962 0.69535 0.37835 0.0
C3777 C 0.73565 0.69032 0.36163 0.0
C3778 C 0.72349 0.68137 0.35858 0.0
C3779 C 0.71981 0.67668 0.34277 0.0
C3780 C 0.72824 0.68079 0.32994 0.0
C3781 C 0.74036 0.68958 0.3329 0.0
C3782 C 0.74409 0.69431 0.34869 0.0
C3783 C 0.76231 0.68191 0.43267 0.0
C3784 C 0.77439 0.68609 0.42782 0.0
C3785 C 0.75516 0.68566 0.42437 0.0
C3786 C 0.75989 0.69364 0.411 0.0
C3787 C 0.77192 0.69778 0.40598 0.0
C3788 C 0.77917 0.69413 0.41445 0.0
C3789 C 0.75209 0.69749 0.4024 0.0
C3790 C 0.74869 0.69386 0.38608 0.0
C3791 C 0.74685 0.70344 0.41089 0.0
C3792 C 0.75058 0.70803 0.42789 0.0
C3793 C 0.76292 0.7158 0.43175 0.0
C3794 C 0.7664 0.71999 0.4478 0.0
C3795 C 0.75761 0.71654 0.46009 0.0
C3796 C 0.74532 0.70891 0.45635 0.0
C3797 C 0.74179 0.70468 0.44032 0.0
H3798 H 0.76033 0.7198 0.47252 0.0
H3799 H 0.72537 0.67715 0.31771 0.0
H3800 H 0.31887 0.01012 0.39081 0.0
H3801 H 0.32026 0.02885 0.40113 0.0
H3802 H 0.31754 0.03938 0.35172 0.0
H3803 H 0.31587 0.02047 0.34128 0.0
H3804 H 0.33712 0.05813 0.37265 0.0
H3805 H 0.29398 0.03021 0.37205 0.0
H3806 H 0.27534 0.01079 0.37806 0.0
H3807 H 0.2826 0.01673 0.42971 0.0
H3808 H 0.3014 0.0361 0.424 0.0
H3809 H 0.33359 0.10893 0.401 0.0
H3810 H 0.32867 0.09038 0.3858 0.0
H3811 H 0.32047 0.07049 0.43137 0.0
H3812 H 0.32501 0.08886 0.44648 0.0
H3813 H 0.30522 0.05652 0.40941 0.0
H3814 H 0.34873 0.08247 0.41122 0.0
H3815 H 0.36825 0.10137 0.40676 0.0
H3816 H 0.36146 0.09874 0.35488 0.0
H3817 H 0.3418 0.07989 0.35906 0.0
C3818 C 0.3186 0.01644 0.38212 0.0
C3819 C 0.31725 0.01385 0.36524 0.0
C3820 C 0.31936 0.0271 0.38804 0.0
C3821 C 0.31893 0.03543 0.37718 0.0
C3822 C 0.31786 0.03303 0.36027 0.0
C3823 C 0.31689 0.02224 0.35435 0.0
C3824 C 0.31961 0.04664 0.38363 0.0
C3825 C 0.33005 0.05785 0.38043 0.0
C3826 C 0.31051 0.04616 0.3941 0.0
C3827 C 0.29916 0.03456 0.39759 0.0
C3828 C 0.29166 0.02733 0.38469 0.0
C3829 C 0.28105 0.01633 0.38804 0.0
C3830 C 0.2778 0.01251 0.40426 0.0
C3831 C 0.28514 0.01969 0.41716 0.0
C3832 C 0.29576 0.03069 0.41387 0.0
C3833 C 0.33058 0.10055 0.40771 0.0
C3834 C 0.3297 0.10034 0.42492 0.0
C3835 C 0.32783 0.08997 0.39904 0.0
C3836 C 0.32443 0.07907 0.40746 0.0
C3837 C 0.32307 0.07876 0.42458 0.0
C3838 C 0.32564 0.08927 0.43321 0.0
C3839 C 0.32285 0.06811 0.39866 0.0
C3840 C 0.31224 0.0569 0.40144 0.0
C3841 C 0.33191 0.06856 0.38803 0.0
C3842 C 0.34373 0.07986 0.38547 0.0
C3843 C 0.35136 0.08597 0.39887 0.0
C3844 C 0.36245 0.09667 0.39639 0.0
C3845 C 0.36608 0.10128 0.38055 0.0
C3846 C 0.35863 0.09518 0.36715 0.0
C3847 C 0.34751 0.08449 0.36956 0.0
H3848 H 0.37467 0.10956 0.37865 0.0
H3849 H 0.26959 0.004 0.40683 0.0
H3850 H 0.01376 0.30107 0.36711 0.0
H3851 H 0.99462 0.28433 0.37767 0.0
H3852 H 0.97684 0.30502 0.36773 0.0
H3853 H 0.99608 0.32195 0.35798 0.0
H3854 H 0.9707 0.29618 0.39611 0.0
H3855 H 0.97196 0.2789 0.34453 0.0
H3856 H 0.9807 0.27226 0.32262 0.0
H3857 H 0.98321 0.24746 0.35596 0.0
H3858 H 0.97462 0.25407 0.37814 0.0
H3859 H 0.91043 0.24872 0.40903 0.0
H3860 H 0.9286 0.26252 0.39339 0.0
H3861 H 0.94851 0.24743 0.41675 0.0
H3862 H 0.93055 0.23391 0.43297 0.0
H3863 H 0.9531 0.25273 0.38113 0.0
H3864 H 0.95216 0.27125 0.43273 0.0
H3865 H 0.9424 0.27764 0.4535 0.0
H3866 H 0.93831 0.30019 0.41783 0.0
H3867 H 0.94787 0.29377 0.39677 0.0
C3868 C 0.00572 0.30197 0.36704 0.0
C3869 C 0.00639 0.3128 0.36177 0.0
C3870 C 0.99475 0.29237 0.37299 0.0
C3871 C 0.98418 0.29331 0.37336 0.0
C3872 C 0.98483 0.30405 0.36765 0.0
C3873 C 0.99583 0.31372 0.36203 0.0
C3874 C 0.97265 0.28349 0.38062 0.0
C3875 C 0.9668 0.28672 0.39256 0.0
C3876 C 0.96759 0.27106 0.37635 0.0
C3877 C 0.97276 0.26707 0.36304 0.0
C3878 C 0.97446 0.2721 0.34723 0.0
C3879 C 0.97937 0.26833 0.33475 0.0
C3880 C 0.98254 0.25947 0.3379 0.0
C3881 C 0.98077 0.25434 0.35354 0.0
C3882 C 0.97587 0.25808 0.36606 0.0
C3883 C 0.91865 0.24828 0.41085 0.0
C3884 C 0.91904 0.24029 0.42248 0.0
C3885 C 0.92899 0.25611 0.40178 0.0
C3886 C 0.93989 0.25603 0.40402 0.0
C3887 C 0.94015 0.24758 0.41481 0.0
C3888 C 0.92984 0.23982 0.42404 0.0
C3889 C 0.95127 0.26554 0.39631 0.0
C3890 C 0.95706 0.26223 0.38445 0.0
C3891 C 0.95621 0.27793 0.40043 0.0
C3892 C 0.95061 0.28193 0.41314 0.0
C3893 C 0.94909 0.27749 0.42929 0.0
C3894 C 0.9436 0.28113 0.44112 0.0
C3895 C 0.9397 0.28929 0.43698 0.0
C3896 C 0.94132 0.29386 0.42101 0.0
C3897 C 0.94677 0.29023 0.40913 0.0
H3898 H 0.93546 0.2921 0.44615 0.0
H3899 H 0.98634 0.25657 0.32823 0.0
H3900 H 0.02371 0.36215 0.31372 0.0
H3901 H 0.02211 0.37914 0.30282 0.0
H3902 H 0.04643 0.40259 0.34048 0.0
H3903 H 0.04803 0.38547 0.35162 0.0
H3904 H 0.02686 0.40616 0.33551 0.0
H3905 H 0.05726 0.4049 0.30296 0.0
H3906 H 0.06641 0.39552 0.28602 0.0
H3907 H 0.03809 0.38505 0.25018 0.0
H3908 H 0.02865 0.39421 0.26703 0.0
H3909 H 0.03347 0.4582 0.29003 0.0
H3910 H 0.03794 0.44414 0.30505 0.0
H3911 H 0.0138 0.41496 0.27291 0.0
H3912 H 0.0094 0.4289 0.25785 0.0
H3913 H 0.03615 0.41654 0.2766 0.0
H3914 H 0.00494 0.41634 0.31079 0.0
H3915 H 0.99592 0.42575 0.32795 0.0
H3916 H 0.02644 0.43946 0.36078 0.0
H3917 H 0.03573 0.43027 0.34367 0.0
C3918 C 0.0287 0.3709 0.31975 0.0
C3919 C 0.03606 0.37249 0.33348 0.0
C3920 C 0.02781 0.38062 0.31346 0.0
C3921 C 0.03429 0.39217 0.32069 0.0
C3922 C 0.0414 0.39375 0.33468 0.0
C3923 C 0.04232 0.38399 0.341 0.0
C3924 C 0.03367 0.40253 0.31331 0.0
C3925 C 0.02912 0.40861 0.32272 0.0
C3926 C 0.03652 0.40564 0.29658 0.0
C3927 C 0.04219 0.40017 0.28633 0.0
C3928 C 0.05293 0.40052 0.29153 0.0
C3929 C 0.05818 0.39525 0.28193 0.0
C3930 C 0.05282 0.38967 0.26705 0.0
C3931 C 0.04222 0.38937 0.26172 0.0
C3932 C 0.03692 0.39461 0.27128 0.0
C3933 C 0.0291 0.44878 0.28623 0.0
C3934 C 0.02102 0.44464 0.27283 0.0
C3935 C 0.03161 0.44075 0.29485 0.0
C3936 C 0.02617 0.4285 0.29011 0.0
C3937 C 0.01809 0.42438 0.27678 0.0
C3938 C 0.0155 0.43233 0.26828 0.0
C3939 C 0.02903 0.41993 0.29866 0.0
C3940 C 0.03405 0.41421 0.28945 0.0
C3941 C 0.02668 0.41723 0.31557 0.0
C3942 C 0.02111 0.42275 0.32584 0.0
C3943 C 0.00979 0.42146 0.32158 0.0
C3944 C 0.00461 0.42673 0.33131 0.0
C3945 C 0.01062 0.43323 0.34541 0.0
C3946 C 0.02181 0.43445 0.34983 0.0
C3947 C 0.02703 0.42921 0.34013 0.0
H3948 H 0.0066 0.4373 0.35294 0.0
H3949 H 0.0569 0.3856 0.25964 0.0
H3950 H 0.63307 0.6747 0.34421 0.0
H3951 H 0.61717 0.65563 0.33225 0.0
H3952 H 0.64466 0.65006 0.30953 0.0
H3953 H 0.66056 0.66921 0.32118 0.0
H3954 H 0.62739 0.64613 0.28811 0.0
H3955 H 0.62832 0.63358 0.34352 0.0
H3956 H 0.62742 0.63446 0.37368 0.0
H3957 H 0.59117 0.62872 0.37062 0.0
H3958 H 0.59191 0.62797 0.3404 0.0
H3959 H 0.5933 0.585 0.26462 0.0
H3960 H 0.6074 0.60362 0.27901 0.0
H3961 H 0.57735 0.60731 0.29631 0.0
H3962 H 0.56304 0.58838 0.28219 0.0
H3963 H 0.59478 0.61252 0.32047 0.0
H3964 H 0.59366 0.62421 0.26496 0.0
H3965 H 0.59457 0.62296 0.23485 0.0
H3966 H 0.63135 0.6302 0.23819 0.0
H3967 H 0.63059 0.63131 0.26836 0.0
C3968 C 0.63572 0.66936 0.33676 0.0
C3969 C 0.64806 0.67345 0.33364 0.0
C3970 C 0.62662 0.65844 0.32998 0.0
C3971 C 0.62971 0.65134 0.32008 0.0
C3972 C 0.64205 0.65537 0.3171 0.0
C3973 C 0.65113 0.66631 0.32382 0.0
C3974 C 0.62012 0.63993 0.31234 0.0
C3975 C 0.62036 0.63873 0.29523 0.0
C3976 C 0.6107 0.63041 0.32154 0.0
C3977 C 0.61023 0.63085 0.3397 0.0
C3978 C 0.6202 0.63261 0.34927 0.0
C3979 C 0.61971 0.63306 0.36638 0.0
C3980 C 0.60926 0.63169 0.37406 0.0
C3981 C 0.59926 0.62981 0.36465 0.0
C3982 C 0.59971 0.62936 0.34754 0.0
C3983 C 0.58963 0.58963 0.27171 0.0
C3984 C 0.57701 0.58516 0.27229 0.0
C3985 C 0.59773 0.60035 0.27979 0.0
C3986 C 0.59344 0.60694 0.28856 0.0
C3987 C 0.58085 0.60239 0.28955 0.0
C3988 C 0.5727 0.59162 0.2814 0.0
C3989 C 0.60221 0.61869 0.29634 0.0
C3990 C 0.6018 0.61996 0.31339 0.0
C3991 C 0.6115 0.62829 0.28711 0.0
C3992 C 0.61203 0.62775 0.26894 0.0
C3993 C 0.60191 0.62545 0.25929 0.0
C3994 C 0.60241 0.62478 0.24221 0.0
C3995 C 0.613 0.62647 0.23461 0.0
C3996 C 0.62314 0.62888 0.24409 0.0
C3997 C 0.62269 0.62955 0.26118 0.0
H3998 H 0.61337 0.62594 0.22139 0.0
H3999 H 0.60889 0.63204 0.3873 0.0
H4000 H 0.34764 0.97499 0.35112 0.0
H4001 H 0.36686 0.97784 0.34027 0.0
H4002 H 0.36889 0.00508 0.30678 0.0
H4003 H 0.34955 0.00204 0.31728 0.0
H4004 H 0.37301 0.98972 0.29099 0.0
H4005 H 0.38796 0.0123 0.34086 0.0
H4006 H 0.38891 0.01592 0.37069 0.0
H4007 H 0.39647 0.98702 0.37895 0.0
H4008 H 0.39541 0.98311 0.34917 0.0
H4009 H 0.43232 0.01073 0.26191 0.0
H4010 H 0.41584 0.01063 0.27748 0.0
H4011 H 0.41099 0.97954 0.30501 0.0
H4012 H 0.42763 0.97968 0.28957 0.0
H4013 H 0.40879 0.99709 0.32432 0.0
H4014 H 0.39316 0.97441 0.27415 0.0
H4015 H 0.39262 0.97135 0.24422 0.0
H4016 H 0.38658 0.00132 0.23665 0.0
H4017 H 0.38728 0.00468 0.26655 0.0
C4018 C 0.35226 0.98168 0.34157 0.0
C4019 C 0.34708 0.98827 0.33502 0.0
C4020 C 0.36328 0.98334 0.33542 0.0
C4021 C 0.36939 0.99175 0.32277 0.0
C4022 C 0.36434 0.99853 0.31651 0.0
C4023 C 0.3533 0.99681 0.32255 0.0
C4024 C 0.38065 0.99296 0.31535 0.0
C4025 C 0.38089 0.99153 0.2983 0.0
C4026 C 0.39085 0.99502 0.32487 0.0
C4027 C 0.39148 0.99733 0.34279 0.0
C4028 C 0.38972 0.00665 0.34905 0.0
C4029 C 0.3903 0.00876 0.36594 0.0
C4030 C 0.39272 0.00168 0.37671 0.0
C4031 C 0.39459 0.99248 0.3706 0.0
C4032 C 0.39401 0.99032 0.35371 0.0
C4033 C 0.42795 0.00405 0.27154 0.0
C4034 C 0.43125 0.99518 0.27447 0.0
C4035 C 0.41848 0.00395 0.28035 0.0
C4036 C 0.41213 0.995 0.29226 0.0
C4037 C 0.41578 0.98651 0.29583 0.0
C4038 C 0.42522 0.98655 0.28694 0.0
C4039 C 0.4011 0.99397 0.30005 0.0
C4040 C 0.40089 0.99535 0.3171 0.0
C4041 C 0.39093 0.99194 0.29055 0.0
C4042 C 0.3904 0.98987 0.27257 0.0
C4043 C 0.39182 0.98041 0.2661 0.0
C4044 C 0.39147 0.97861 0.24914 0.0
C4045 C 0.3896 0.98616 0.23853 0.0
C4046 C 0.38804 0.9955 0.24487 0.0
C4047 C 0.38841 0.99735 0.26183 0.0
H4048 H 0.38933 0.98475 0.22541 0.0
H4049 H 0.39316 0.00334 0.38979 0.0
H4050 H 0.65551 0.98875 0.30754 0.0
H4051 H 0.63847 0.99073 0.29783 0.0
H4052 H 0.62436 0.98546 0.34718 0.0
H4053 H 0.64124 0.98289 0.35686 0.0
H4054 H 0.6064 0.97358 0.32739 0.0
H4055 H 0.63893 0.01428 0.3279 0.0
H4056 H 0.65956 0.03148 0.32272 0.0
H4057 H 0.65359 0.02628 0.27077 0.0
H4058 H 0.63298 0.00893 0.27562 0.0
H4059 H 0.56407 0.9911 0.29426 0.0
H4060 H 0.58072 0.99216 0.31108 0.0
H4061 H 0.59729 0.98759 0.26754 0.0
H4062 H 0.58073 0.98637 0.25085 0.0
H4063 H 0.61362 0.00686 0.28904 0.0
H4064 H 0.58165 0.96407 0.29039 0.0
H4065 H 0.56091 0.94749 0.29671 0.0
H4066 H 0.56592 0.95822 0.34737 0.0
H4067 H 0.58666 0.97498 0.34128 0.0
C4068 C 0.6488 0.98804 0.31635 0.0
C4069 C 0.64974 0.98574 0.33298 0.0
C4070 C 0.63909 0.98927 0.3108 0.0
C4071 C 0.63026 0.98857 0.32182 0.0
C4072 C 0.6311 0.98613 0.33845 0.0
C4073 C 0.64074 0.98468 0.34397 0.0
C4074 C 0.62003 0.99006 0.31571 0.0
C4075 C 0.60802 0.98102 0.3193 0.0
C4076 C 0.62205 0.99977 0.30515 0.0
C4077 C 0.63442 0.01025 0.30214 0.0
C4078 C 0.64204 0.01676 0.31537 0.0
C4079 C 0.65373 0.02654 0.31249 0.0
C4080 C 0.65789 0.02996 0.29643 0.0
C4081 C 0.65035 0.02362 0.28321 0.0
C4082 C 0.63866 0.01382 0.28601 0.0
C4083 C 0.57131 0.99037 0.28835 0.0
C4084 C 0.5711 0.98855 0.27131 0.0
C4085 C 0.58077 0.99094 0.29793 0.0
C4086 C 0.59019 0.98992 0.29052 0.0
C4087 C 0.5901 0.9884 0.27347 0.0
C4088 C 0.58061 0.98763 0.26398 0.0
C4089 C 0.60015 0.9902 0.30032 0.0
C4090 C 0.61209 0.99959 0.29742 0.0
C4091 C 0.59806 0.98097 0.31171 0.0
C4092 C 0.58563 0.97086 0.31535 0.0
C4093 C 0.57829 0.96296 0.30284 0.0
C4094 C 0.56654 0.95351 0.30639 0.0
C4095 C 0.56208 0.95183 0.32242 0.0
C4096 C 0.56938 0.95956 0.33495 0.0
C4097 C 0.58113 0.96902 0.33146 0.0
H4098 H 0.55299 0.94451 0.32514 0.0
H4099 H 0.66694 0.03753 0.29423 0.0
H4100 H 0.04396 0.67157 0.35513 0.0
H4101 H 0.04206 0.65268 0.34445 0.0
H4102 H 0.02178 0.65422 0.30296 0.0
H4103 H 0.02359 0.67304 0.3136 0.0
H4104 H 0.01175 0.63117 0.31546 0.0
H4105 H 0.0515 0.66344 0.29911 0.0
H4106 H 0.07197 0.68105 0.30385 0.0
H4107 H 0.08079 0.65933 0.33502 0.0
H4108 H 0.0603 0.64162 0.33062 0.0
H4109 H 0.01826 0.5944 0.25613 0.0
H4110 H 0.01808 0.61042 0.27232 0.0
H4111 H 0.04045 0.60676 0.30913 0.0
H4112 H 0.04071 0.59068 0.29287 0.0
H4113 H 0.04916 0.62991 0.30186 0.0
H4114 H 0.01001 0.59702 0.31618 0.0
H4115 H 0.98956 0.5794 0.31138 0.0
H4116 H 0.97946 0.602 0.28438 0.0
H4117 H 0.99992 0.61973 0.28882 0.0
C4118 C 0.03904 0.66783 0.34379 0.0
C4119 C 0.03397 0.67381 0.33516 0.0
C4120 C 0.03799 0.65706 0.33768 0.0
C4121 C 0.03187 0.6521 0.32283 0.0
C4122 C 0.02653 0.65788 0.31444 0.0
C4123 C 0.02761 0.66866 0.32051 0.0
C4124 C 0.03134 0.64109 0.31571 0.0
C4125 C 0.01992 0.63091 0.31237 0.0
C4126 C 0.042 0.64063 0.3121 0.0
C4127 C 0.05433 0.65125 0.31469 0.0
C4128 C 0.05777 0.66245 0.30708 0.0
C4129 C 0.06938 0.67244 0.30968 0.0
C4130 C 0.07767 0.67132 0.31977 0.0
C4131 C 0.07436 0.66019 0.32723 0.0
C4132 C 0.06276 0.65017 0.32468 0.0
C4133 C 0.02293 0.59681 0.26784 0.0
C4134 C 0.02944 0.5912 0.27325 0.0
C4135 C 0.02283 0.606 0.27709 0.0
C4136 C 0.02912 0.60972 0.29207 0.0
C4137 C 0.03552 0.60404 0.29762 0.0
C4138 C 0.03567 0.59487 0.28831 0.0
C4139 C 0.02955 0.61998 0.30139 0.0
C4140 C 0.04096 0.63006 0.30513 0.0
C4141 C 0.01887 0.62032 0.30539 0.0
C4142 C 0.00654 0.60969 0.30274 0.0
C4143 C 0.00346 0.59822 0.30912 0.0
C4144 C 0.99186 0.58821 0.30648 0.0
C4145 C 0.98323 0.58958 0.29755 0.0
C4146 C 0.98616 0.60096 0.29128 0.0
C4147 C 0.99775 0.61099 0.29388 0.0
H4148 H 0.97425 0.58182 0.29552 0.0
H4149 H 0.08665 0.67906 0.32177 0.0
H4150 H 0.3439 0.38538 0.34543 0.0
H4151 H 0.36329 0.40219 0.33534 0.0
H4152 H 0.37274 0.37643 0.31609 0.0
H4153 H 0.35336 0.35963 0.3259 0.0
H4154 H 0.39192 0.39629 0.33363 0.0
H4155 H 0.36237 0.3885 0.29071 0.0
H4156 H 0.3433 0.38638 0.27979 0.0
H4157 H 0.35481 0.42312 0.29394 0.0
H4158 H 0.37389 0.42539 0.30517 0.0
H4159 H 0.43685 0.42582 0.27383 0.0
H4160 H 0.41877 0.41278 0.28988 0.0
H4161 H 0.41262 0.44283 0.29761 0.0
H4162 H 0.43084 0.45603 0.28142 0.0
H4163 H 0.39203 0.42303 0.28919 0.0
H4164 H 0.4225 0.432 0.32915 0.0
H4165 H 0.44159 0.43452 0.34062 0.0
H4166 H 0.42861 0.3965 0.33347 0.0
H4167 H 0.4095 0.39378 0.32172 0.0
C4168 C 0.35015 0.38332 0.33913 0.0
C4169 C 0.34712 0.3712 0.33639 0.0
C4170 C 0.36119 0.39292 0.33336 0.0
C4171 C 0.36941 0.39054 0.32494 0.0
C4172 C 0.36653 0.37845 0.32259 0.0
C4173 C 0.35544 0.36887 0.32814 0.0
C4174 C 0.38089 0.40057 0.3181 0.0
C4175 C 0.39198 0.40211 0.32386 0.0
C4176 C 0.38092 0.40841 0.30576 0.0
C4177 C 0.36948 0.40706 0.29897 0.0
C4178 C 0.36079 0.39609 0.29164 0.0
C4179 C 0.34998 0.39487 0.28536 0.0
C4180 C 0.34782 0.4046 0.28622 0.0
C4181 C 0.35648 0.41558 0.29332 0.0
C4182 C 0.36729 0.41684 0.29963 0.0
C4183 C 0.43182 0.42976 0.2792 0.0
C4184 C 0.43539 0.44202 0.27647 0.0
C4185 C 0.42145 0.42226 0.28838 0.0
C4186 C 0.41442 0.42685 0.2952 0.0
C4187 C 0.41793 0.43909 0.29252 0.0
C4188 C 0.42833 0.44662 0.28325 0.0
C4189 C 0.40314 0.41862 0.30445 0.0
C4190 C 0.39205 0.41738 0.29915 0.0
C4191 C 0.40312 0.41114 0.31735 0.0
C4192 C 0.41459 0.41271 0.32444 0.0
C4193 C 0.42375 0.42419 0.32991 0.0
C4194 C 0.43457 0.42566 0.33648 0.0
C4195 C 0.43632 0.41568 0.33775 0.0
C4196 C 0.42724 0.40422 0.33248 0.0
C4197 C 0.4164 0.40271 0.32588 0.0
H4198 H 0.4447 0.41684 0.34284 0.0
H4199 H 0.33946 0.40364 0.28135 0.0
H4200 H 0.31052 0.30263 0.34643 0.0
H4201 H 0.31388 0.2865 0.35696 0.0
H4202 H 0.33406 0.30934 0.39782 0.0
H4203 H 0.33088 0.32551 0.38727 0.0
H4204 H 0.34521 0.29795 0.38586 0.0
H4205 H 0.30447 0.28693 0.40208 0.0
H4206 H 0.28334 0.28218 0.39745 0.0
H4207 H 0.27693 0.25222 0.36648 0.0
H4208 H 0.29808 0.2569 0.37076 0.0
H4209 H 0.3241 0.24401 0.4444 0.0
H4210 H 0.3198 0.25782 0.4289 0.0
H4211 H 0.34267 0.2583 0.38949 0.0
H4212 H 0.3469 0.24428 0.40485 0.0
H4213 H 0.30991 0.25748 0.39923 0.0
H4214 H 0.35877 0.28782 0.37531 0.0
H4215 H 0.37979 0.29325 0.38247 0.0
H4216 H 0.36971 0.28573 0.43323 0.0
H4217 H 0.3487 0.28043 0.4264 0.0
C4218 C 0.31573 0.30423 0.35762 0.0
C4219 C 0.3204 0.31532 0.36607 0.0
C4220 C 0.31761 0.29499 0.36364 0.0
C4221 C 0.32413 0.29667 0.37826 0.0
C4222 C 0.32901 0.30784 0.38651 0.0
C4223 C 0.32715 0.31707 0.3805 0.0
C4224 C 0.32568 0.28675 0.38527 0.0
C4225 C 0.33749 0.28907 0.38865 0.0
C4226 C 0.31561 0.2752 0.38911 0.0
C4227 C 0.30289 0.27235 0.38659 0.0
C4228 C 0.29858 0.27939 0.39418 0.0
C4229 C 0.2866 0.2767 0.39164 0.0
C4230 C 0.27881 0.26693 0.38164 0.0
C4231 C 0.28298 0.2598 0.3742 0.0
C4232 C 0.29496 0.26246 0.37668 0.0
C4233 C 0.328 0.24679 0.43227 0.0
C4234 C 0.33589 0.24304 0.42591 0.0
C4235 C 0.32556 0.25474 0.42344 0.0
C4236 C 0.33101 0.25919 0.40812 0.0
C4237 C 0.33849 0.2551 0.4014 0.0
C4238 C 0.34093 0.24712 0.41022 0.0
C4239 C 0.32944 0.26869 0.39977 0.0
C4240 C 0.31763 0.26629 0.39616 0.0
C4241 C 0.3395 0.28026 0.39601 0.0
C4242 C 0.35214 0.28359 0.4003 0.0
C4243 C 0.36106 0.28736 0.388 0.0
C4244 C 0.37297 0.29042 0.392 0.0
C4245 C 0.37607 0.28979 0.40829 0.0
C4246 C 0.36728 0.28617 0.42061 0.0
C4247 C 0.35537 0.28312 0.41668 0.0
H4248 H 0.38528 0.29215 0.41135 0.0
H4249 H 0.26954 0.26486 0.37969 0.0
H4250 H 0.72072 0.01673 0.34765 0.0
H4251 H 0.73724 0.03559 0.35925 0.0
H4252 H 0.71167 0.03822 0.39135 0.0
H4253 H 0.69511 0.01946 0.37969 0.0
H4254 H 0.72821 0.06034 0.37928 0.0
H4255 H 0.7285 0.02669 0.40521 0.0
H4256 H 0.7289 0.00753 0.40605 0.0
H4257 H 0.76382 0.02499 0.38242 0.0
H4258 H 0.76349 0.04422 0.38111 0.0
H4259 H 0.76707 0.09638 0.44425 0.0
H4260 H 0.75149 0.0806 0.42693 0.0
H4261 H 0.77931 0.08143 0.39579 0.0
H4262 H 0.79502 0.09748 0.41282 0.0
H4263 H 0.76236 0.05824 0.40553 0.0
H4264 H 0.76227 0.09268 0.38182 0.0
H4265 H 0.76129 0.11155 0.38201 0.0
H4266 H 0.72554 0.09236 0.40315 0.0
H4267 H 0.72637 0.0734 0.40331 0.0
C4268 C 0.7186 0.0214 0.35705 0.0
C4269 C 0.70664 0.01658 0.36285 0.0
C4270 C 0.72805 0.03215 0.3637 0.0
C4271 C 0.72571 0.03823 0.37631 0.0
C4272 C 0.71369 0.03368 0.38164 0.0
C4273 C 0.70424 0.02294 0.375 0.0
C4274 C 0.73583 0.04894 0.38457 0.0
C4275 C 0.73563 0.05987 0.38512 0.0
C4276 C 0.74562 0.04836 0.39199 0.0
C4277 C 0.7459 0.03685 0.39289 0.0
C4278 C 0.73622 0.02642 0.40007 0.0
C4279 C 0.73644 0.01555 0.40065 0.0
C4280 C 0.74637 0.01503 0.39427 0.0
C4281 C 0.75612 0.0254 0.38733 0.0
C4282 C 0.75591 0.03629 0.38665 0.0
C4283 C 0.76992 0.09344 0.43351 0.0
C4284 C 0.78234 0.09824 0.42995 0.0
C4285 C 0.76097 0.08436 0.42365 0.0
C4286 C 0.76424 0.07988 0.41002 0.0
C4287 C 0.7766 0.08475 0.40627 0.0
C4288 C 0.78556 0.09389 0.41607 0.0
C4289 C 0.75474 0.06966 0.40026 0.0
C4290 C 0.75503 0.05878 0.39951 0.0
C4291 C 0.74498 0.07025 0.39283 0.0
C4292 C 0.74443 0.08164 0.3927 0.0
C4293 C 0.75424 0.0925 0.38664 0.0
C4294 C 0.7537 0.10321 0.38666 0.0
C4295 C 0.74337 0.10316 0.39262 0.0
C4296 C 0.73354 0.09239 0.39855 0.0
C4297 C 0.73404 0.08165 0.39856 0.0
H4298 H 0.74297 0.11147 0.39263 0.0
H4299 H 0.74653 0.00661 0.39474 0.0
H4300 H 0.00676 0.71735 0.35485 0.0
H4301 H 0.98715 0.714 0.36499 0.0
H4302 H 0.98041 0.68067 0.38807 0.0
H4303 H 0.99995 0.68393 0.37797 0.0
H4304 H 0.96025 0.67812 0.37186 0.0
H4305 H 0.99035 0.70615 0.41038 0.0
H4306 H 0.00888 0.72516 0.41822 0.0
H4307 H 0.99358 0.74599 0.39887 0.0
H4308 H 0.97502 0.72709 0.39072 0.0
H4309 H 0.91557 0.66539 0.43124 0.0
H4310 H 0.9339 0.67023 0.41591 0.0
H4311 H 0.93743 0.70439 0.40088 0.0
H4312 H 0.91908 0.69965 0.41656 0.0
H4313 H 0.95874 0.70778 0.40993 0.0
H4314 H 0.92791 0.68008 0.37367 0.0
H4315 H 0.90931 0.66129 0.36541 0.0
H4316 H 0.92569 0.64016 0.37927 0.0
H4317 H 0.94433 0.65882 0.38785 0.0
C4318 C 0.00107 0.70928 0.36202 0.0
C4319 C 0.00491 0.70092 0.36566 0.0
C4320 C 0.98989 0.7074 0.36784 0.0
C4321 C 0.98236 0.69713 0.37739 0.0
C4322 C 0.98607 0.68865 0.38072 0.0
C4323 C 0.99726 0.69055 0.37498 0.0
C4324 C 0.97072 0.69527 0.38425 0.0
C4325 C 0.95991 0.68456 0.38027 0.0
C4326 C 0.97024 0.70386 0.39478 0.0
C4327 C 0.98136 0.71521 0.39977 0.0
C4328 C 0.99098 0.71479 0.40768 0.0
C4329 C 0.00148 0.72554 0.4122 0.0
C4330 C 0.00242 0.73678 0.409 0.0
C4331 C 0.99285 0.73728 0.40132 0.0
C4332 C 0.98233 0.72655 0.39675 0.0
C4333 C 0.92012 0.67386 0.42446 0.0
C4334 C 0.91578 0.68208 0.42495 0.0
C4335 C 0.93062 0.67662 0.41568 0.0
C4336 C 0.93695 0.68758 0.40694 0.0
C4337 C 0.93268 0.69585 0.40745 0.0
C4338 C 0.9222 0.69314 0.41641 0.0
C4339 C 0.94824 0.69048 0.39782 0.0
C4340 C 0.959 0.70139 0.40134 0.0
C4341 C 0.94867 0.68211 0.38675 0.0
C4342 C 0.9375 0.67085 0.38151 0.0
C4343 C 0.92752 0.67142 0.37506 0.0
C4344 C 0.91697 0.66079 0.37031 0.0
C4345 C 0.91631 0.64954 0.37184 0.0
C4346 C 0.92621 0.64889 0.3781 0.0
C4347 C 0.93678 0.65949 0.38288 0.0
H4348 H 0.90814 0.64132 0.36816 0.0
H4349 H 0.01056 0.74509 0.41251 0.0
H4350 H 0.36186 0.01898 0.70644 0.0
H4351 H 0.37838 0.01692 0.71829 0.0
H4352 H 0.40372 0.05462 0.70757 0.0
H4353 H 0.38722 0.05663 0.6952 0.0
H4354 H 0.41402 0.0413 0.70158 0.0
H4355 H 0.39249 0.04549 0.74656 0.0
H4356 H 0.37457 0.04111 0.76327 0.0
H4357 H 0.3669 0.00452 0.77082 0.0
H4358 H 0.38468 0.00862 0.75396 0.0
H4359 H 0.45807 0.04015 0.75717 0.0
H4360 H 0.44418 0.04548 0.74339 0.0
H4361 H 0.41522 0.00819 0.74702 0.0
H4362 H 0.42883 0.00289 0.76106 0.0
H4363 H 0.40818 0.02391 0.75758 0.0
H4364 H 0.42962 0.02009 0.71075 0.0
H4365 H 0.44789 0.0252 0.69437 0.0
H4366 H 0.45638 0.06236 0.6913 0.0
H4367 H 0.43823 0.05749 0.70786 0.0
C4368 C 0.37096 0.02682 0.70652 0.0
C4369 C 0.37324 0.03799 0.7 0.0
C4370 C 0.3804 0.02565 0.71337 0.0
C4371 C 0.39226 0.03568 0.71415 0.0
C4372 C 0.39464 0.04677 0.70719 0.0
C4373 C 0.3852 0.04791 0.70016 0.0
C4374 C 0.40207 0.03458 0.72251 0.0
C4375 C 0.41282 0.03768 0.71393 0.0
C4376 C 0.40053 0.02983 0.73861 0.0
C4377 C 0.38987 0.02734 0.74889 0.0
C4378 C 0.38694 0.03648 0.7517 0.0
C4379 C 0.37681 0.03405 0.76121 0.0
C4380 C 0.36959 0.02254 0.76808 0.0
C4381 C 0.3725 0.01343 0.76549 0.0
C4382 C 0.38261 0.01581 0.75597 0.0
C4383 C 0.44875 0.0331 0.75497 0.0
C4384 C 0.4446 0.02107 0.76012 0.0
C4385 C 0.44085 0.03613 0.74701 0.0
C4386 C 0.42868 0.02721 0.74411 0.0
C4387 C 0.42458 0.01522 0.7491 0.0
C4388 C 0.43243 0.01218 0.75698 0.0
C4389 C 0.41995 0.03027 0.73647 0.0
C4390 C 0.40941 0.02761 0.74527 0.0
C4391 C 0.42177 0.03555 0.72068 0.0
C4392 C 0.43265 0.03845 0.7107 0.0
C4393 C 0.43544 0.02937 0.7067 0.0
C4394 C 0.44576 0.03222 0.69736 0.0
C4395 C 0.45331 0.04411 0.69184 0.0
C4396 C 0.45054 0.05316 0.69561 0.0
C4397 C 0.44023 0.05036 0.70496 0.0
H4398 H 0.4613 0.0463 0.68461 0.0
H4399 H 0.36175 0.02067 0.77544 0.0
H4400 H 0.00578 0.35542 0.70482 0.0
H4401 H 0.00899 0.37493 0.71486 0.0
H4402 H 0.9714 0.36348 0.7046 0.0
H4403 H 0.96833 0.34418 0.69387 0.0
H4404 H 0.98445 0.38612 0.69706 0.0
H4405 H 0.98231 0.36257 0.74427 0.0
H4406 H 0.98793 0.35039 0.7619 0.0
H4407 H 0.02434 0.3806 0.76607 0.0
H4408 H 0.01898 0.39292 0.74828 0.0
H4409 H 0.97358 0.41989 0.75798 0.0
H4410 H 0.97436 0.40437 0.74154 0.0
H4411 H 0.01352 0.4254 0.74109 0.0
H4412 H 0.01291 0.44152 0.75674 0.0
H4413 H 0.00187 0.39967 0.75274 0.0
H4414 H 0.00201 0.42374 0.70729 0.0
H4415 H 0.99468 0.43518 0.69114 0.0
H4416 H 0.95982 0.40287 0.68554 0.0
H4417 H 0.96688 0.39127 0.70188 0.0
C4418 C 0.99823 0.35711 0.70462 0.0
C4419 C 0.98678 0.34826 0.69867 0.0
C4420 C 1.00005 0.36825 0.71043 0.0
C4421 C 0.99038 0.37062 0.71082 0.0
C4422 C 0.97902 0.36189 0.70447 0.0
C4423 C 0.97725 0.35083 0.69838 0.0
C4424 C 0.99197 0.38204 0.71822 0.0
C4425 C 0.98819 0.38902 0.70928 0.0
C4426 C 0.99703 0.38599 0.73408 0.0
C4427 C 1.00028 0.37862 0.74479 0.0
C4428 C 0.99154 0.36658 0.74884 0.0
C4429 C 0.99468 0.35966 0.75888 0.0
C4430 C 0.0065 0.3647 0.76506 0.0
C4431 C 0.0152 0.3767 0.76125 0.0
C4432 C 0.01212 0.38366 0.7512 0.0
C4433 C 0.9824 0.42152 0.754 0.0
C4434 C 0.99319 0.4321 0.75876 0.0
C4435 C 0.9828 0.41252 0.74469 0.0
C4436 C 0.99399 0.41375 0.74012 0.0
C4437 C 0.00479 0.4243 0.74456 0.0
C4438 C 0.00441 0.43346 0.75362 0.0
C4439 C 0.99426 0.4036 0.73163 0.0
C4440 C 0.99832 0.39684 0.74042 0.0
C4441 C 0.98922 0.39972 0.71582 0.0
C4442 C 0.98495 0.40666 0.70594 0.0
C4443 C 0.99274 0.4191 0.70275 0.0
C4444 C 0.98864 0.42561 0.69353 0.0
C4445 C 0.97678 0.41977 0.68735 0.0
C4446 C 0.969 0.40739 0.69035 0.0
C4447 C 0.97306 0.40084 0.69957 0.0
H4448 H 0.97362 0.42482 0.68021 0.0
H4449 H 0.0089 0.35933 0.77283 0.0
H4450 H 0.66826 0.64078 0.67841 0.0
H4451 H 0.64928 0.62433 0.68991 0.0
H4452 H 0.65436 0.64592 0.73318 0.0
H4453 H 0.67333 0.66231 0.72184 0.0
H4454 H 0.64925 0.6234 0.74111 0.0
H4455 H 0.6328 0.64127 0.70484 0.0
H4456 H 0.6297 0.64877 0.67842 0.0
H4457 H 0.61502 0.6131 0.65761 0.0
H4458 H 0.6182 0.60542 0.68387 0.0
H4459 H 0.59253 0.58968 0.77956 0.0
H4460 H 0.60929 0.60595 0.7642 0.0
H4461 H 0.60368 0.5809 0.72498 0.0
H4462 H 0.58672 0.56452 0.74026 0.0
H4463 H 0.60883 0.60435 0.71397 0.0
H4464 H 0.62518 0.58655 0.75044 0.0
H4465 H 0.62806 0.57911 0.77705 0.0
H4466 H 0.64295 0.6149 0.79749 0.0
H4467 H 0.63997 0.62253 0.77106 0.0
C4468 C 0.66526 0.64206 0.6903 0.0
C4469 C 0.6723 0.65283 0.69924 0.0
C4470 C 0.65439 0.63266 0.69684 0.0
C4471 C 0.65037 0.63391 0.71239 0.0
C4472 C 0.6573 0.64475 0.72118 0.0
C4473 C 0.66812 0.65413 0.71466 0.0
C4474 C 0.63927 0.62374 0.71992 0.0
C4475 C 0.64039 0.61935 0.73525 0.0
C4476 C 0.62777 0.61821 0.71207 0.0
C4477 C 0.62587 0.6228 0.69627 0.0
C4478 C 0.62902 0.63505 0.69459 0.0
C4479 C 0.62722 0.63933 0.67965 0.0
C4480 C 0.6222 0.63143 0.66633 0.0
C4481 C 0.61893 0.61922 0.66793 0.0
C4482 C 0.62072 0.6149 0.68284 0.0
C4483 C 0.59467 0.58767 0.76752 0.0
C4484 C 0.5883 0.5758 0.76113 0.0
C4485 C 0.60432 0.59696 0.75881 0.0
C4486 C 0.6078 0.5946 0.74354 0.0
C4487 C 0.60114 0.5829 0.73677 0.0
C4488 C 0.59152 0.57355 0.74554 0.0
C4489 C 0.61883 0.6042 0.73521 0.0
C4490 C 0.61771 0.60842 0.71976 0.0
C4491 C 0.63036 0.60961 0.74292 0.0
C4492 C 0.63224 0.60508 0.75881 0.0
C4493 C 0.62897 0.59281 0.76065 0.0
C4494 C 0.63064 0.58857 0.77569 0.0
C4495 C 0.63566 0.59652 0.78897 0.0
C4496 C 0.63905 0.60875 0.78721 0.0
C4497 C 0.63738 0.61304 0.77219 0.0
H4498 H 0.63694 0.59321 0.8006 0.0
H4499 H 0.62081 0.63475 0.65477 0.0
H4500 H 0.70851 0.71868 0.69058 0.0
H4501 H 0.70512 0.73513 0.68149 0.0
H4502 H 0.68688 0.71452 0.63814 0.0
H4503 H 0.69001 0.69802 0.64729 0.0
H4504 H 0.71281 0.74939 0.65549 0.0
H4505 H 0.6648 0.71989 0.62638 0.0
H4506 H 0.64622 0.70014 0.63116 0.0
H4507 H 0.65557 0.70166 0.68209 0.0
H4508 H 0.67412 0.72149 0.67767 0.0
H4509 H 0.70031 0.78163 0.5953 0.0
H4510 H 0.70387 0.76774 0.61192 0.0
H4511 H 0.67506 0.76266 0.64479 0.0
H4512 H 0.67132 0.77641 0.62795 0.0
H4513 H 0.67224 0.74175 0.63755 0.0
H4514 H 0.70581 0.77875 0.65631 0.0
H4515 H 0.7241 0.79907 0.6542 0.0
H4516 H 0.743 0.78375 0.62912 0.0
H4517 H 0.72476 0.76336 0.63088 0.0
C4518 C 0.7037 0.71763 0.67917 0.0
C4519 C 0.69947 0.70703 0.66968 0.0
C4520 C 0.70181 0.72705 0.67397 0.0
C4521 C 0.69563 0.72602 0.65922 0.0
C4522 C 0.69146 0.71545 0.64972 0.0
C4523 C 0.6933 0.70603 0.65493 0.0
C4524 C 0.69376 0.73606 0.65346 0.0
C4525 C 0.70393 0.74774 0.65164 0.0
C4526 C 0.68214 0.73401 0.64883 0.0
C4527 C 0.67091 0.72214 0.65165 0.0
C4528 C 0.66287 0.71604 0.63861 0.0
C4529 C 0.65234 0.70483 0.64126 0.0
C4530 C 0.64973 0.69964 0.65691 0.0
C4531 C 0.65762 0.70567 0.66996 0.0
C4532 C 0.66815 0.71689 0.66739 0.0
C4533 C 0.6949 0.77775 0.60625 0.0
C4534 C 0.68555 0.78012 0.61033 0.0
C4535 C 0.69695 0.7698 0.61578 0.0
C4536 C 0.68981 0.76421 0.62973 0.0
C4537 C 0.68067 0.76683 0.63407 0.0
C4538 C 0.67854 0.77469 0.62445 0.0
C4539 C 0.69135 0.75502 0.6391 0.0
C4540 C 0.68111 0.74346 0.64156 0.0
C4541 C 0.70287 0.75728 0.64469 0.0
C4542 C 0.71388 0.76953 0.64363 0.0
C4543 C 0.71384 0.77972 0.65024 0.0
C4544 C 0.7242 0.79126 0.64912 0.0
C4545 C 0.7347 0.7927 0.6415 0.0
C4546 C 0.73486 0.78262 0.63502 0.0
C4547 C 0.72452 0.77107 0.63609 0.0
H4548 H 0.74271 0.80164 0.64065 0.0
H4549 H 0.64159 0.69095 0.65893 0.0
H4550 H 0.32742 0.00428 0.6525 0.0
H4551 H 0.31067 0.98579 0.64062 0.0
H4552 H 0.28482 0.99212 0.66668 0.0
H4553 H 0.30158 0.01053 0.6789 0.0
H4554 H 0.27797 0.96848 0.66738 0.0
H4555 H 0.29072 0.99925 0.62613 0.0
H4556 H 0.30541 0.01563 0.6081 0.0
H4557 H 0.3142 0.99067 0.58496 0.0
H4558 H 0.2997 0.97418 0.60304 0.0
H4559 H 0.22661 0.92921 0.61719 0.0
H4560 H 0.24283 0.94662 0.63191 0.0
H4561 H 0.26963 0.94024 0.60874 0.0
H4562 H 0.25352 0.923 0.59381 0.0
H4563 H 0.27561 0.96402 0.6068 0.0
H4564 H 0.26256 0.93322 0.64855 0.0
H4565 H 0.24769 0.9171 0.66672 0.0
H4566 H 0.23895 0.94245 0.68869 0.0
H4567 H 0.25366 0.9587 0.67049 0.0
C4568 C 0.31817 0.0017 0.65578 0.0
C4569 C 0.31581 0.0089 0.66655 0.0
C4570 C 0.3086 0.99115 0.64893 0.0
C4571 C 0.29647 0.98766 0.65254 0.0
C4572 C 0.2941 0.99464 0.66368 0.0
C4573 C 0.30368 0.00518 0.67062 0.0
C4574 C 0.28628 0.9769 0.64439 0.0
C4575 C 0.27736 0.96758 0.65413 0.0
C4576 C 0.28557 0.97563 0.62709 0.0
C4577 C 0.2942 0.9855 0.61605 0.0
C4578 C 0.29585 0.99727 0.61727 0.0
C4579 C 0.30413 0.00657 0.60704 0.0
C4580 C 0.31076 0.0042 0.59542 0.0
C4581 C 0.30907 0.9925 0.59398 0.0
C4582 C 0.30082 0.98317 0.60421 0.0
C4583 C 0.23596 0.9315 0.61529 0.0
C4584 C 0.23877 0.92469 0.60437 0.0
C4585 C 0.24521 0.9414 0.62378 0.0
C4586 C 0.25744 0.9447 0.62148 0.0
C4587 C 0.26026 0.93785 0.61072 0.0
C4588 C 0.25102 0.92792 0.60231 0.0
C4589 C 0.26737 0.95555 0.62979 0.0
C4590 C 0.27622 0.96492 0.62005 0.0
C4591 C 0.26795 0.9569 0.64706 0.0
C4592 C 0.25912 0.94715 0.65804 0.0
C4593 C 0.25739 0.93534 0.65716 0.0
C4594 C 0.24901 0.92618 0.66748 0.0
C4595 C 0.24235 0.92874 0.67882 0.0
C4596 C 0.2441 0.94048 0.67989 0.0
C4597 C 0.25246 0.94966 0.66958 0.0
H4598 H 0.23587 0.92164 0.6868 0.0
H4599 H 0.31718 0.01141 0.58752 0.0
H4600 H 0.01567 0.32951 0.64944 0.0
H4601 H 0.03365 0.33019 0.6378 0.0
H4602 H 0.03097 0.30379 0.67331 0.0
H4603 H 0.01283 0.3031 0.68518 0.0
H4604 H 0.05484 0.32285 0.66885 0.0
H4605 H 0.02216 0.29434 0.63572 0.0
H4606 H 0.00343 0.28642 0.61921 0.0
H4607 H 0.02204 0.31548 0.58459 0.0
H4608 H 0.04083 0.3237 0.60104 0.0
H4609 H 0.10031 0.31843 0.62028 0.0
H4610 H 0.08146 0.31262 0.6355 0.0
H4611 H 0.07577 0.33767 0.60639 0.0
H4612 H 0.09438 0.34338 0.59114 0.0
H4613 H 0.05508 0.31532 0.60914 0.0
H4614 H 0.08679 0.34505 0.64462 0.0
H4615 H 0.10539 0.35307 0.66145 0.0
H4616 H 0.08838 0.32114 0.69171 0.0
H4617 H 0.06972 0.31285 0.6749 0.0
C4618 C 0.0189 0.32387 0.65485 0.0
C4619 C 0.01279 0.3162 0.66818 0.0
C4620 C 0.02917 0.32423 0.64813 0.0
C4621 C 0.03354 0.31691 0.65453 0.0
C4622 C 0.02769 0.30947 0.66815 0.0
C4623 C 0.01734 0.30907 0.67488 0.0
C4624 C 0.04416 0.31706 0.6467 0.0
C4625 C 0.05483 0.32094 0.65588 0.0
C4626 C 0.04415 0.31465 0.62974 0.0
C4627 C 0.0329 0.30968 0.61969 0.0
C4628 C 0.02224 0.29909 0.62465 0.0
C4629 C 0.01161 0.29454 0.61529 0.0
C4630 C 0.01154 0.30045 0.60087 0.0
C4631 C 0.02211 0.31091 0.59577 0.0
C4632 C 0.03276 0.31551 0.60509 0.0
C4633 C 0.095 0.32266 0.61714 0.0
C4634 C 0.09888 0.33144 0.60462 0.0
C4635 C 0.08428 0.31938 0.62588 0.0
C4636 C 0.07725 0.32476 0.62212 0.0
C4637 C 0.08106 0.33341 0.60951 0.0
C4638 C 0.09176 0.33674 0.6009 0.0
C4639 C 0.06588 0.3215 0.63116 0.0
C4640 C 0.05503 0.31699 0.62219 0.0
C4641 C 0.06573 0.32328 0.64829 0.0
C4642 C 0.07693 0.32826 0.65838 0.0
C4643 C 0.08706 0.33969 0.65477 0.0
C4644 C 0.0976 0.34429 0.66432 0.0
C4645 C 0.09808 0.3376 0.67761 0.0
C4646 C 0.088 0.3263 0.6814 0.0
C4647 C 0.07745 0.32165 0.67186 0.0
H4648 H 0.10625 0.34118 0.685 0.0
H4649 H 0.0033 0.29692 0.59365 0.0
H4650 H 0.30293 0.31042 0.68771 0.0
H4651 H 0.28619 0.31282 0.67713 0.0
H4652 H 0.30795 0.33203 0.63502 0.0
H4653 H 0.32473 0.32985 0.64565 0.0
H4654 H 0.29607 0.34292 0.64647 0.0
H4655 H 0.28586 0.30187 0.63292 0.0
H4656 H 0.28181 0.28118 0.63907 0.0
H4657 H 0.25237 0.2753 0.67079 0.0
H4658 H 0.25635 0.29603 0.66498 0.0
H4659 H 0.25262 0.33653 0.5873 0.0
H4660 H 0.26863 0.33635 0.60359 0.0
H4661 H 0.24271 0.3166 0.64191 0.0
H4662 H 0.22657 0.3167 0.62555 0.0
H4663 H 0.25594 0.30638 0.63541 0.0
H4664 H 0.2649 0.34688 0.64667 0.0
H4665 H 0.26892 0.3675 0.64016 0.0
H4666 H 0.30064 0.37454 0.61271 0.0
H4667 H 0.29672 0.35389 0.61886 0.0
C4668 C 0.30415 0.31521 0.67624 0.0
C4669 C 0.31512 0.3199 0.66748 0.0
C4670 C 0.29457 0.31654 0.67018 0.0
C4671 C 0.29576 0.3225 0.65518 0.0
C4672 C 0.30682 0.32741 0.64662 0.0
C4673 C 0.31639 0.32611 0.65268 0.0
C4674 C 0.28545 0.32341 0.64811 0.0
C4675 C 0.28731 0.33493 0.64394 0.0
C4676 C 0.27392 0.31301 0.64523 0.0
C4677 C 0.27149 0.30054 0.64866 0.0
C4678 C 0.27858 0.29619 0.6413 0.0
C4679 C 0.27629 0.28445 0.64471 0.0
C4680 C 0.26686 0.27694 0.65535 0.0
C4681 C 0.25968 0.28114 0.66257 0.0
C4682 C 0.26195 0.29288 0.65922 0.0
C4683 C 0.25035 0.33237 0.59934 0.0
C4684 C 0.23831 0.32669 0.60515 0.0
C4685 C 0.25953 0.33226 0.60865 0.0
C4686 C 0.25693 0.32659 0.62409 0.0
C4687 C 0.24495 0.32104 0.63004 0.0
C4688 C 0.23573 0.3211 0.62068 0.0
C4689 C 0.26659 0.3259 0.63352 0.0
C4690 C 0.26462 0.31441 0.63813 0.0
C4691 C 0.27803 0.33633 0.63679 0.0
C4692 C 0.28046 0.34879 0.63314 0.0
C4693 C 0.27268 0.35279 0.63915 0.0
C4694 C 0.27495 0.36449 0.63554 0.0
C4695 C 0.28501 0.37232 0.626 0.0
C4696 C 0.29284 0.36846 0.62009 0.0
C4697 C 0.29061 0.35677 0.62365 0.0
H4698 H 0.28675 0.38137 0.62322 0.0
H4699 H 0.2651 0.26785 0.65798 0.0
H4700 H 0.70779 0.00166 0.6906 0.0
H4701 H 0.70493 0.98242 0.67982 0.0
H4702 H 0.68593 0.98554 0.63789 0.0
H4703 H 0.68856 0.00463 0.64873 0.0
H4704 H 0.67496 0.96251 0.64871 0.0
H4705 H 0.716 0.99373 0.63569 0.0
H4706 H 0.73668 0.01046 0.64203 0.0
H4707 H 0.74268 0.98676 0.67324 0.0
H4708 H 0.72196 0.96992 0.66726 0.0
H4709 H 0.68265 0.92703 0.58825 0.0
H4710 H 0.68231 0.94266 0.60514 0.0
H4711 H 0.70106 0.93554 0.64384 0.0
H4712 H 0.70137 0.91975 0.62699 0.0
H4713 H 0.71166 0.95935 0.63758 0.0
H4714 H 0.6711 0.92743 0.64799 0.0
H4715 H 0.65053 0.9108 0.64103 0.0
H4716 H 0.64358 0.93576 0.61424 0.0
H4717 H 0.66418 0.95252 0.62085 0.0
C4718 C 0.70291 0.99818 0.67915 0.0
C4719 C 0.69846 0.00469 0.67045 0.0
C4720 C 0.70132 0.98721 0.67298 0.0
C4721 C 0.69536 0.98261 0.65793 0.0
C4722 C 0.69057 0.98891 0.64952 0.0
C4723 C 0.69211 0.99985 0.6557 0.0
C4724 C 0.69449 0.97151 0.65057 0.0
C4725 C 0.68299 0.96185 0.64617 0.0
C4726 C 0.70493 0.97051 0.64763 0.0
C4727 C 0.71739 0.98061 0.65118 0.0
C4728 C 0.7217 0.99211 0.64401 0.0
C4729 C 0.73343 0.00161 0.64752 0.0
C4730 C 0.74097 0.99969 0.65807 0.0
C4731 C 0.73681 0.98825 0.6651 0.0
C4732 C 0.72509 0.97872 0.66165 0.0
C4733 C 0.68646 0.92856 0.6005 0.0
C4734 C 0.69201 0.92208 0.60627 0.0
C4735 C 0.68627 0.93754 0.61014 0.0
C4736 C 0.69156 0.94021 0.62583 0.0
C4737 C 0.69693 0.93363 0.63177 0.0
C4738 C 0.69712 0.92463 0.62211 0.0
C4739 C 0.69214 0.95039 0.63552 0.0
C4740 C 0.7036 0.95992 0.64032 0.0
C4741 C 0.68166 0.95127 0.63877 0.0
C4742 C 0.66923 0.94122 0.63482 0.0
C4743 C 0.66523 0.92936 0.64051 0.0
C4744 C 0.65355 0.91991 0.63665 0.0
C4745 C 0.64576 0.92222 0.62717 0.0
C4746 C 0.64963 0.93399 0.62157 0.0
C4747 C 0.6613 0.94347 0.62539 0.0
H4748 H 0.63672 0.91489 0.62419 0.0
H4749 H 0.75005 0.00706 0.66077 0.0
H4750 H 0.02093 0.70973 0.69022 0.0
H4751 H 0.04064 0.72556 0.67962 0.0
H4752 H 0.0261 0.71798 0.63037 0.0
H4753 H 0.00673 0.70176 0.64083 0.0
H4754 H 0.04677 0.72057 0.62883 0.0
H4755 H 0.03157 0.7442 0.65436 0.0
H4756 H 0.02331 0.75096 0.67678 0.0
H4757 H 0.05544 0.76136 0.70544 0.0
H4758 H 0.06383 0.75453 0.68326 0.0
H4759 H 0.09491 0.78774 0.60998 0.0
H4760 H 0.07623 0.77318 0.624 0.0
H4761 H 0.08951 0.748 0.62764 0.0
H4762 H 0.10776 0.76207 0.61262 0.0
H4763 H 0.06956 0.76219 0.65209 0.0
H4764 H 0.06691 0.71936 0.62265 0.0
H4765 H 0.07354 0.71364 0.5974 0.0
H4766 H 0.07403 0.74333 0.57162 0.0
H4767 H 0.06724 0.74912 0.59664 0.0
C4768 C 0.02198 0.7115 0.67714 0.0
C4769 C 0.01234 0.70452 0.66633 0.0
C4770 C 0.03322 0.7206 0.67109 0.0
C4771 C 0.03489 0.72312 0.65417 0.0
C4772 C 0.02514 0.71621 0.64345 0.0
C4773 C 0.01404 0.70695 0.64944 0.0
C4774 C 0.04682 0.73266 0.64743 0.0
C4775 C 0.05172 0.72966 0.63398 0.0
C4776 C 0.05328 0.74462 0.65388 0.0
C4777 C 0.04827 0.74874 0.66722 0.0
C4778 C 0.03684 0.74785 0.66549 0.0
C4779 C 0.03214 0.75171 0.67815 0.0
C4780 C 0.03884 0.75655 0.69254 0.0
C4781 C 0.05026 0.75759 0.69429 0.0
C4782 C 0.05499 0.75374 0.68168 0.0
C4783 C 0.09385 0.77908 0.61366 0.0
C4784 C 0.10283 0.77606 0.60987 0.0
C4785 C 0.0832 0.77081 0.62188 0.0
C4786 C 0.08133 0.75938 0.6266 0.0
C4787 C 0.09061 0.75666 0.62381 0.0
C4788 C 0.10116 0.76483 0.61538 0.0
C4789 C 0.06942 0.75005 0.63356 0.0
C4790 C 0.06458 0.75307 0.64704 0.0
C4791 C 0.06274 0.73823 0.62674 0.0
C4792 C 0.0667 0.73474 0.61158 0.0
C4793 C 0.06839 0.72464 0.61158 0.0
C4794 C 0.07218 0.72139 0.59731 0.0
C4795 C 0.07425 0.72815 0.58294 0.0
C4796 C 0.07247 0.73814 0.58278 0.0
C4797 C 0.06866 0.74141 0.597 0.0
H4798 H 0.07719 0.72562 0.57191 0.0
H4799 H 0.03518 0.75953 0.70232 0.0
H4800 H 1.00047 0.65416 0.69239 0.0
H4801 H 0.00186 0.63693 0.70329 0.0
H4802 H 0.96296 0.61692 0.71032 0.0
H4803 H 0.96151 0.63409 0.6995 0.0
H4804 H 0.97546 0.61723 0.7378 0.0
H4805 H 0.97605 0.60927 0.67994 0.0
H4806 H 0.98382 0.61441 0.65163 0.0
H4807 H 0.01876 0.62078 0.66761 0.0
H4808 H 0.01124 0.61584 0.69607 0.0
H4809 H 0.96628 0.56086 0.76141 0.0
H4810 H 0.96577 0.57663 0.74533 0.0
H4811 H 0.00411 0.59279 0.73517 0.0
H4812 H 0.00456 0.5764 0.75028 0.0
H4813 H 0.99301 0.5951 0.70922 0.0
H4814 H 0.99345 0.60359 0.76629 0.0
H4815 H 0.98682 0.59937 0.79516 0.0
H4816 H 0.9516 0.59349 0.78159 0.0
H4817 H 0.95797 0.59751 0.75259 0.0
C4818 C 0.9922 0.64603 0.69609 0.0
C4819 C 0.98088 0.64548 0.69512 0.0
C4820 C 0.993 0.63618 0.70225 0.0
C4821 C 0.9825 0.62562 0.70755 0.0
C4822 C 0.97118 0.62498 0.7063 0.0
C4823 C 0.97036 0.63479 0.70007 0.0
C4824 C 0.98335 0.61551 0.71532 0.0
C4825 C 0.97913 0.61227 0.73146 0.0
C4826 C 0.98861 0.60938 0.70728 0.0
C4827 C 0.99311 0.6123 0.69016 0.0
C4828 C 0.98542 0.61186 0.67744 0.0
C4829 C 0.98977 0.61472 0.66136 0.0
C4830 C 0.00179 0.61795 0.65783 0.0
C4831 C 0.00946 0.6183 0.67036 0.0
C4832 C 0.00515 0.61545 0.68647 0.0
C4833 C 0.97458 0.5675 0.75539 0.0
C4834 C 0.9855 0.5673 0.75732 0.0
C4835 C 0.97429 0.57668 0.74638 0.0
C4836 C 0.98497 0.58612 0.73941 0.0
C4837 C 0.99577 0.58569 0.74059 0.0
C4838 C 0.99603 0.57636 0.74941 0.0
C4839 C 0.98488 0.59665 0.7316 0.0
C4840 C 0.98931 0.60004 0.71554 0.0
C4841 C 0.98 0.60309 0.7398 0.0
C4842 C 0.97616 0.60075 0.75725 0.0
C4843 C 0.98427 0.60132 0.76945 0.0
C4844 C 0.98056 0.59897 0.78584 0.0
C4845 C 0.96879 0.59614 0.7902 0.0
C4846 C 0.96071 0.59568 0.77819 0.0
C4847 C 0.96437 0.598 0.76178 0.0
H4848 H 0.96593 0.59432 0.80289 0.0
H4849 H 0.00514 0.62016 0.64537 0.0
H4850 H 0.36097 0.35669 0.70184 0.0
H4851 H 0.37767 0.37593 0.71241 0.0
H4852 H 0.40238 0.36223 0.70709 0.0
H4853 H 0.38581 0.34309 0.69601 0.0
H4854 H 0.40029 0.37289 0.74053 0.0
H4855 H 0.40772 0.38105 0.68231 0.0
H4856 H 0.40163 0.38236 0.65399 0.0
H4857 H 0.39143 0.40831 0.66932 0.0
H4858 H 0.39729 0.40702 0.6978 0.0
H4859 H 0.45217 0.42634 0.76678 0.0
H4860 H 0.43895 0.40823 0.75091 0.0
H4861 H 0.41861 0.42496 0.73402 0.0
H4862 H 0.43251 0.44355 0.74854 0.0
H4863 H 0.41909 0.41221 0.71074 0.0
H4864 H 0.40953 0.40393 0.76782 0.0
H4865 H 0.41353 0.40254 0.79713 0.0
H4866 H 0.42503 0.37688 0.78571 0.0
H4867 H 0.42124 0.37824 0.75629 0.0
C4868 C 0.36999 0.35783 0.70278 0.0
C4869 C 0.37211 0.34842 0.6981 0.0
C4870 C 0.3795 0.36881 0.70879 0.0
C4871 C 0.39122 0.37046 0.71048 0.0
C4872 C 0.39338 0.3611 0.70581 0.0
C4873 C 0.38393 0.35021 0.69946 0.0
C4874 C 0.40108 0.3818 0.71777 0.0
C4875 C 0.40459 0.38148 0.73397 0.0
C4876 C 0.40629 0.39301 0.70934 0.0
C4877 C 0.40282 0.39383 0.69222 0.0
C4878 C 0.40406 0.38694 0.67968 0.0
C4879 C 0.40068 0.3877 0.66359 0.0
C4880 C 0.39611 0.39539 0.65986 0.0
C4881 C 0.39495 0.40235 0.67222 0.0
C4882 C 0.39831 0.40161 0.68834 0.0
C4883 C 0.44512 0.42636 0.75936 0.0
C4884 C 0.44338 0.43646 0.75922 0.0
C4885 C 0.43739 0.41585 0.75048 0.0
C4886 C 0.4275 0.41503 0.74164 0.0
C4887 C 0.42606 0.42527 0.74087 0.0
C4888 C 0.43396 0.43588 0.74942 0.0
C4889 C 0.4184 0.40341 0.73368 0.0
C4890 C 0.41494 0.40366 0.71735 0.0
C4891 C 0.41298 0.39215 0.74216 0.0
C4892 C 0.41523 0.39129 0.75984 0.0
C4893 C 0.41299 0.39805 0.77155 0.0
C4894 C 0.41521 0.39726 0.78818 0.0
C4895 C 0.41957 0.38965 0.79327 0.0
C4896 C 0.42168 0.38279 0.78175 0.0
C4897 C 0.41949 0.38356 0.76509 0.0
H4898 H 0.42127 0.38905 0.80616 0.0
H4899 H 0.3935 0.39597 0.6474 0.0
H4900 H 0.6756 0.0308 0.72693 0.0
H4901 H 0.65631 0.02804 0.73699 0.0
H4902 H 0.64714 0.03385 0.6881 0.0
H4903 H 0.66677 0.03713 0.67808 0.0
H4904 H 0.64049 0.04489 0.70893 0.0
H4905 H 0.63404 0.00485 0.70555 0.0
H4906 H 0.63826 0.98811 0.7096 0.0
H4907 H 0.63639 0.99126 0.76183 0.0
H4908 H 0.63232 0.00814 0.75811 0.0
H4909 H 0.5765 0.0164 0.73532 0.0
H4910 H 0.59511 0.02056 0.72059 0.0
H4911 H 0.61445 0.02842 0.76654 0.0
H4912 H 0.59605 0.02453 0.78124 0.0
H4913 H 0.61442 0.00941 0.74424 0.0
H4914 H 0.62194 0.05089 0.74587 0.0
H4915 H 0.6167 0.06676 0.7402 0.0
H4916 H 0.61492 0.05919 0.68861 0.0
H4917 H 0.61997 0.04314 0.69401 0.0
C4918 C 0.66947 0.03147 0.7183 0.0
C4919 C 0.67265 0.03408 0.70169 0.0
C4920 C 0.6584 0.02983 0.72405 0.0
C4921 C 0.65011 0.03046 0.71325 0.0
C4922 C 0.65334 0.03325 0.69667 0.0
C4923 C 0.66454 0.03508 0.69094 0.0
C4924 C 0.63816 0.02828 0.71944 0.0
C4925 C 0.63471 0.03702 0.71641 0.0
C4926 C 0.63055 0.01801 0.72923 0.0
C4927 C 0.63296 0.00783 0.73155 0.0
C4928 C 0.63461 0.00204 0.71791 0.0
C4929 C 0.63697 0.99251 0.72014 0.0
C4930 C 0.63762 0.98864 0.73596 0.0
C4931 C 0.63589 0.99427 0.74958 0.0
C4932 C 0.63354 0.00381 0.74742 0.0
C4933 C 0.58479 0.0192 0.7422 0.0
C4934 C 0.58487 0.02022 0.75939 0.0
C4935 C 0.59538 0.02158 0.7338 0.0
C4936 C 0.6061 0.02478 0.74252 0.0
C4937 C 0.60625 0.02599 0.75963 0.0
C4938 C 0.59577 0.02385 0.76797 0.0
C4939 C 0.61702 0.02615 0.73406 0.0
C4940 C 0.6202 0.01721 0.73662 0.0
C4941 C 0.62421 0.03606 0.7236 0.0
C4942 C 0.62117 0.0457 0.72037 0.0
C4943 C 0.62029 0.05251 0.73334 0.0
C4944 C 0.61739 0.06157 0.73017 0.0
C4945 C 0.61543 0.06396 0.71406 0.0
C4946 C 0.61641 0.05732 0.70108 0.0
C4947 C 0.6193 0.04824 0.70419 0.0
H4948 H 0.6132 0.07097 0.71163 0.0
H4949 H 0.63944 0.98126 0.73767 0.0
loop_
_geom_bond_atom_site_label_1
_geom_bond_atom_site_label_2
_geom_bond_distance
_geom_bond_site_symmetry_2
_ccdc_geom_bond_type
In0 O1 2.294 . S
In0 O2 2.326 . S
In0 O6 2.266 1_455 S
In0 O7 2.326 1_554 S
In0 O8 2.266 1_554 S
In0 O9 2.341 1_455 S
In0 O11 2.294 . S
In0 O12 2.326 . S
O1 In0 2.294 . S
O1 C10 1.240 . S
O2 In0 2.326 . S
O2 C10 1.252 . S
C3 O6 1.252 . S
C3 O7 1.260 1_654 S
C4 O11 1.240 . S
C4 O12 1.252 . S
C5 O8 1.252 . S
C5 O9 1.242 1_456 S
O6 In0 2.266 1_655 S
O6 C3 1.252 . S
O7 In0 2.326 1_556 S
O7 C3 1.260 1_456 S
O8 In0 2.266 1_556 S
O8 C5 1.252 . S
O9 In0 2.341 1_655 S
O9 C5 1.242 1_654 S
C10 O1 1.240 . S
C10 O2 1.252 . S
O11 In0 2.294 . S
O11 C4 1.240 . S
O12 In0 2.326 . S
O12 C4 1.252 . S
In13 O14 2.294 . S
In13 O15 2.326 . S
In13 O19 2.266 . S
In13 O20 2.326 1_554 S
In13 O21 2.266 1_554 S
In13 O22 2.344 . S
In13 O24 2.294 . S
In13 O25 2.326 . S
O14 In13 2.294 . S
O14 C23 1.240 . S
O15 In13 2.326 . S
O15 C23 1.252 . S
C16 O19 1.252 . S
C16 O20 1.260 1_554 S
C17 O24 1.240 . S
C17 O25 1.252 . S
C18 O21 1.252 . S
C18 O22 1.238 1_556 S
O19 In13 2.266 . S
O19 C16 1.252 . S
O20 In13 2.326 1_556 S
O20 C16 1.260 1_556 S
O21 In13 2.266 1_556 S
O21 C18 1.252 . S
O22 In13 2.344 . S
O22 C18 1.238 1_554 S
C23 O14 1.240 . S
C23 O15 1.252 . S
O24 In13 2.294 . S
O24 C17 1.240 . S
O25 In13 2.326 . S
O25 C17 1.252 . S
In26 O27 2.294 . S
In26 O28 2.326 1_554 S
In26 O32 2.266 . S
In26 O33 2.272 1_545 S
In26 O34 2.266 1_545 S
In26 O35 2.326 . S
In26 O37 2.294 1_554 S
In26 O38 2.308 1_554 S
O27 In26 2.294 . S
O27 C36 1.240 . S
O28 In26 2.326 1_556 S
O28 C36 1.252 1_556 S
C29 O32 1.252 . S
C29 O33 1.215 1_545 S
C30 O37 1.240 . S
C30 O38 1.273 . S
C31 O34 1.252 . S
C31 O35 1.260 1_565 S
O32 In26 2.266 . S
O32 C29 1.252 . S
O33 In26 2.272 1_565 S
O33 C29 1.215 1_565 S
O34 In26 2.266 1_565 S
O34 C31 1.252 . S
O35 In26 2.326 . S
O35 C31 1.260 1_545 S
C36 O27 1.240 . S
C36 O28 1.252 1_554 S
O37 In26 2.294 1_556 S
O37 C30 1.240 . S
O38 In26 2.308 1_556 S
O38 C30 1.273 . S
In39 O40 2.294 1_554 S
In39 O41 2.305 1_454 S
In39 O45 2.266 . S
In39 O46 2.326 . S
In39 O47 2.266 . S
In39 O48 2.326 . S
In39 O50 2.294 1_455 S
In39 O51 2.326 1_554 S
O40 In39 2.294 1_556 S
O40 C49 1.240 . S
O41 In39 2.305 1_656 S
O41 C49 1.276 1_655 S
C42 O45 1.252 . S
C42 O46 1.260 . S
C43 O50 1.240 . S
C43 O51 1.252 1_654 S
C44 O47 1.252 . S
C44 O48 1.260 . S
O45 In39 2.266 . S
O45 C42 1.252 . S
O46 In39 2.326 . S
O46 C42 1.260 . S
O47 In39 2.266 . S
O47 C44 1.252 . S
O48 In39 2.326 . S
O48 C44 1.260 . S
C49 O40 1.240 . S
C49 O41 1.276 1_455 S
O50 In39 2.294 1_655 S
O50 C43 1.240 . S
O51 In39 2.326 1_556 S
O51 C43 1.252 1_456 S
In52 O53 2.294 1_554 S
In52 O54 2.308 1_554 S
In52 O58 2.266 . S
In52 O59 2.326 . S
In52 O60 2.266 . S
In52 O61 2.326 . S
In52 O63 2.294 . S
In52 O64 2.326 1_554 S
O53 In52 2.294 1_556 S
O53 C62 1.240 . S
O54 In52 2.308 1_556 S
O54 C62 1.273 . S
C55 O58 1.252 . S
C55 O59 1.260 . S
C56 O63 1.240 . S
C56 O64 1.252 1_554 S
C57 O60 1.252 . S
C57 O61 1.260 . S
O58 In52 2.266 . S
O58 C55 1.252 . S
O59 In52 2.326 . S
O59 C55 1.260 . S
O60 In52 2.266 . S
O60 C57 1.252 . S
O61 In52 2.326 . S
O61 C57 1.260 . S
C62 O53 1.240 . S
C62 O54 1.273 . S
O63 In52 2.294 . S
O63 C56 1.240 . S
O64 In52 2.326 1_556 S
O64 C56 1.252 1_556 S
In65 O66 2.294 . S
In65 O67 2.326 1_545 S
In65 O71 2.266 . S
In65 O72 2.326 1_554 S
In65 O73 2.266 1_554 S
In65 O74 2.344 . S
In65 O76 2.294 1_545 S
In65 O77 2.326 . S
O66 In65 2.294 . S
O66 C75 1.240 . S
O67 In65 2.326 1_565 S
O67 C75 1.252 1_565 S
C68 O71 1.252 . S
C68 O72 1.260 1_554 S
C69 O76 1.240 . S
C69 O77 1.252 1_565 S
C70 O73 1.252 . S
C70 O74 1.239 1_556 S
O71 In65 2.266 . S
O71 C68 1.252 . S
O72 In65 2.326 1_556 S
O72 C68 1.260 1_556 S
O73 In65 2.266 1_556 S
O73 C70 1.252 . S
O74 In65 2.344 . S
O74 C70 1.239 1_554 S
C75 O66 1.240 . S
C75 O67 1.252 1_545 S
O76 In65 2.294 1_565 S
O76 C69 1.240 . S
O77 In65 2.326 . S
O77 C69 1.252 1_545 S
In78 O79 2.294 . S
In78 O80 2.326 . S
In78 O84 2.266 . S
In78 O85 2.326 . S
In78 O86 2.266 . S
In78 O87 2.326 . S
In78 O89 2.294 . S
In78 O90 2.326 . S
O79 In78 2.294 . S
O79 C88 1.240 . S
O80 In78 2.326 . S
O80 C88 1.252 . S
C81 O84 1.252 . S
C81 O85 1.260 . S
C82 O89 1.240 . S
C82 O90 1.252 . S
C83 O86 1.252 . S
C83 O87 1.260 . S
O84 In78 2.266 . S
O84 C81 1.252 . S
O85 In78 2.326 . S
O85 C81 1.260 . S
O86 In78 2.266 . S
O86 C83 1.252 . S
O87 In78 2.326 . S
O87 C83 1.260 . S
C88 O79 1.240 . S
C88 O80 1.252 . S
O89 In78 2.294 . S
O89 C82 1.240 . S
O90 In78 2.326 . S
O90 C82 1.252 . S
In91 O92 2.294 . S
In91 O93 2.326 . S
In91 O97 2.266 . S
In91 O98 2.326 . S
In91 O99 2.266 . S
In91 O100 2.326 . S
In91 O102 2.381 . S
In91 O103 2.326 . S
O92 In91 2.294 . S
O92 C101 1.240 . S
O93 In91 2.326 . S
O93 C101 1.252 . S
C94 O97 1.252 . S
C94 O98 1.260 . S
C95 O102 1.234 1_545 S
C95 O103 1.252 1_545 S
C96 O99 1.252 . S
C96 O100 1.260 . S
O97 In91 2.266 . S
O97 C94 1.252 . S
O98 In91 2.326 . S
O98 C94 1.260 . S
O99 In91 2.266 . S
O99 C96 1.252 . S
O100 In91 2.326 . S
O100 C96 1.260 . S
C101 O92 1.240 . S
C101 O93 1.252 . S
O102 In91 2.381 . S
O102 C95 1.234 1_565 S
O103 In91 2.326 . S
O103 C95 1.252 1_565 S
In104 O105 2.294 . S
In104 O106 2.326 . S
In104 O110 2.266 . S
In104 O111 2.326 . S
In104 O112 2.266 . S
In104 O113 2.326 . S
In104 O115 2.294 . S
In104 O116 2.326 . S
O105 In104 2.294 . S
O105 C114 1.240 . S
O106 In104 2.326 . S
O106 C114 1.252 . S
C107 O110 1.252 . S
C107 O111 1.260 . S
C108 O115 1.240 . S
C108 O116 1.252 . S
C109 O112 1.252 . S
C109 O113 1.260 . S
O110 In104 2.266 . S
O110 C107 1.252 . S
O111 In104 2.326 . S
O111 C107 1.260 . S
O112 In104 2.266 . S
O112 C109 1.252 . S
O113 In104 2.326 . S
O113 C109 1.260 . S
C114 O105 1.240 . S
C114 O106 1.252 . S
O115 In104 2.294 . S
O115 C108 1.240 . S
O116 In104 2.326 . S
O116 C108 1.252 . S
In117 O118 2.294 . S
In117 O119 2.326 . S
In117 O123 2.266 . S
In117 O124 2.326 . S
In117 O125 2.266 . S
In117 O126 2.326 . S
In117 O128 2.294 . S
In117 O129 2.326 . S
O118 In117 2.294 . S
O118 C127 1.240 . S
O119 In117 2.326 . S
O119 C127 1.252 . S
C120 O123 1.252 1_545 S
C120 O124 1.260 1_545 S
C121 O128 1.240 . S
C121 O129 1.252 . S
C122 O125 1.252 . S
C122 O126 1.260 . S
O123 In117 2.266 . S
O123 C120 1.252 1_565 S
O124 In117 2.326 . S
O124 C120 1.260 1_565 S
O125 In117 2.266 . S
O125 C122 1.252 . S
O126 In117 2.326 . S
O126 C122 1.260 . S
C127 O118 1.240 . S
C127 O119 1.252 . S
O128 In117 2.294 . S
O128 C121 1.240 . S
O129 In117 2.326 . S
O129 C121 1.252 . S
In130 O131 2.294 . S
In130 O132 2.326 . S
In130 O136 2.266 . S
In130 O137 2.326 . S
In130 O138 2.266 . S
In130 O139 2.326 . S
In130 O141 2.294 . S
In130 O142 2.326 . S
O131 In130 2.294 . S
O131 C140 1.240 . S
O132 In130 2.326 . S
O132 C140 1.252 . S
C133 O136 1.252 . S
C133 O137 1.260 . S
C134 O141 1.240 . S
C134 O142 1.252 . S
C135 O138 1.252 . S
C135 O139 1.260 . S
O136 In130 2.266 . S
O136 C133 1.252 . S
O137 In130 2.326 . S
O137 C133 1.260 . S
O138 In130 2.266 . S
O138 C135 1.252 . S
O139 In130 2.326 . S
O139 C135 1.260 . S
C140 O131 1.240 . S
C140 O132 1.252 . S
O141 In130 2.294 . S
O141 C134 1.240 . S
O142 In130 2.326 . S
O142 C134 1.252 . S
In143 O144 2.294 . S
In143 O145 2.326 . S
In143 O149 2.266 . S
In143 O150 2.326 . S
In143 O151 2.266 . S
In143 O152 2.326 . S
In143 O154 2.294 . S
In143 O155 2.326 . S
O144 In143 2.294 . S
O144 C153 1.240 . S
O145 In143 2.326 . S
O145 C153 1.252 . S
C146 O149 1.252 . S
C146 O150 1.260 . S
C147 O154 1.240 . S
C147 O155 1.252 . S
C148 O151 1.252 . S
C148 O152 1.260 . S
O149 In143 2.266 . S
O149 C146 1.252 . S
O150 In143 2.326 . S
O150 C146 1.260 . S
O151 In143 2.266 . S
O151 C148 1.252 . S
O152 In143 2.326 . S
O152 C148 1.260 . S
C153 O144 1.240 . S
C153 O145 1.252 . S
O154 In143 2.294 . S
O154 C147 1.240 . S
O155 In143 2.326 . S
O155 C147 1.252 . S
In156 O157 2.294 . S
In156 O158 2.326 . S
In156 O162 2.266 . S
In156 O163 2.326 . S
In156 O164 2.266 . S
In156 O165 2.326 . S
In156 O167 2.294 . S
In156 O168 2.326 . S
O157 In156 2.294 . S
O157 C166 1.240 . S
O158 In156 2.326 . S
O158 C166 1.252 . S
C159 O162 1.252 . S
C159 O163 1.260 . S
C160 O167 1.240 . S
C160 O168 1.252 . S
C161 O164 1.252 . S
C161 O165 1.260 . S
O162 In156 2.266 . S
O162 C159 1.252 . S
O163 In156 2.326 . S
O163 C159 1.260 . S
O164 In156 2.266 . S
O164 C161 1.252 . S
O165 In156 2.326 . S
O165 C161 1.260 . S
C166 O157 1.240 . S
C166 O158 1.252 . S
O167 In156 2.294 . S
O167 C160 1.240 . S
O168 In156 2.326 . S
O168 C160 1.252 . S
In169 O170 2.294 . S
In169 O171 2.326 . S
In169 O175 2.266 . S
In169 O176 2.326 . S
In169 O177 2.266 . S
In169 O178 2.326 . S
In169 O180 2.294 . S
In169 O181 2.326 . S
O170 In169 2.294 . S
O170 C179 1.240 . S
O171 In169 2.326 . S
O171 C179 1.252 . S
C172 O175 1.252 . S
C172 O176 1.260 . S
C173 O180 1.240 . S
C173 O181 1.252 . S
C174 O177 1.252 1_455 S
C174 O178 1.260 1_455 S
O175 In169 2.266 . S
O175 C172 1.252 . S
O176 In169 2.326 . S
O176 C172 1.260 . S
O177 In169 2.266 . S
O177 C174 1.252 1_655 S
O178 In169 2.326 . S
O178 C174 1.260 1_655 S
C179 O170 1.240 . S
C179 O171 1.252 . S
O180 In169 2.294 . S
O180 C173 1.240 . S
O181 In169 2.326 . S
O181 C173 1.252 . S
In182 O183 2.294 . S
In182 O184 2.326 . S
In182 O188 2.266 . S
In182 O189 2.326 . S
In182 O190 2.266 . S
In182 O191 2.326 . S
In182 O193 2.294 . S
In182 O194 2.326 . S
O183 In182 2.294 . S
O183 C192 1.240 . S
O184 In182 2.326 . S
O184 C192 1.252 . S
C185 O188 1.252 . S
C185 O189 1.260 . S
C186 O193 1.240 . S
C186 O194 1.252 . S
C187 O190 1.252 . S
C187 O191 1.260 . S
O188 In182 2.266 . S
O188 C185 1.252 . S
O189 In182 2.326 . S
O189 C185 1.260 . S
O190 In182 2.266 . S
O190 C187 1.252 . S
O191 In182 2.326 . S
O191 C187 1.260 . S
C192 O183 1.240 . S
C192 O184 1.252 . S
O193 In182 2.294 . S
O193 C186 1.240 . S
O194 In182 2.326 . S
O194 C186 1.252 . S
In195 O196 2.294 . S
In195 O197 2.326 . S
In195 O201 2.266 . S
In195 O202 2.326 . S
In195 O203 2.266 . S
In195 O204 2.326 . S
In195 O206 2.294 . S
In195 O207 2.326 . S
O196 In195 2.294 . S
O196 C205 1.240 . S
O197 In195 2.326 . S
O197 C205 1.252 . S
C198 O201 1.252 . S
C198 O202 1.260 . S
C199 O206 1.240 . S
C199 O207 1.252 . S
C200 O203 1.252 . S
C200 O204 1.260 . S
O201 In195 2.266 . S
O201 C198 1.252 . S
O202 In195 2.326 . S
O202 C198 1.260 . S
O203 In195 2.266 . S
O203 C200 1.252 . S
O204 In195 2.326 . S
O204 C200 1.260 . S
C205 O196 1.240 . S
C205 O197 1.252 . S
O206 In195 2.294 . S
O206 C199 1.240 . S
O207 In195 2.326 . S
O207 C199 1.252 . S
In208 O209 2.294 . S
In208 O210 2.326 . S
In208 O214 2.266 . S
In208 O215 2.326 . S
In208 O216 2.266 . S
In208 O217 2.326 . S
In208 O219 2.294 . S
In208 O220 2.326 . S
O209 In208 2.294 . S
O209 C218 1.240 . S
O210 In208 2.326 . S
O210 C218 1.252 . S
C211 O214 1.252 . S
C211 O215 1.260 . S
C212 O219 1.240 . S
C212 O220 1.252 . S
C213 O216 1.252 . S
C213 O217 1.260 . S
O214 In208 2.266 . S
O214 C211 1.252 . S
O215 In208 2.326 . S
O215 C211 1.260 . S
O216 In208 2.266 . S
O216 C213 1.252 . S
O217 In208 2.326 . S
O217 C213 1.260 . S
C218 O209 1.240 . S
C218 O210 1.252 . S
O219 In208 2.294 . S
O219 C212 1.240 . S
O220 In208 2.326 . S
O220 C212 1.252 . S
In221 O222 2.294 . S
In221 O223 2.326 . S
In221 O227 2.266 . S
In221 O228 2.326 . S
In221 O229 2.266 . S
In221 O230 2.326 . S
In221 O232 2.294 . S
In221 O233 2.326 . S
O222 In221 2.294 . S
O222 C231 1.240 . S
O223 In221 2.326 . S
O223 C231 1.252 . S
C224 O227 1.252 . S
C224 O228 1.260 . S
C225 O232 1.240 . S
C225 O233 1.252 . S
C226 O229 1.252 1_455 S
C226 O230 1.260 1_455 S
O227 In221 2.266 . S
O227 C224 1.252 . S
O228 In221 2.326 . S
O228 C224 1.260 . S
O229 In221 2.266 . S
O229 C226 1.252 1_655 S
O230 In221 2.326 . S
O230 C226 1.260 1_655 S
C231 O222 1.240 . S
C231 O223 1.252 . S
O232 In221 2.294 . S
O232 C225 1.240 . S
O233 In221 2.326 . S
O233 C225 1.252 . S
H234 C261 0.929 . S
N235 C260 1.433 . S
N235 C266 1.435 . S
N235 C272 1.423 . S
H236 C262 0.930 . S
H237 C265 0.931 . S
H238 C264 0.929 . S
H239 C267 0.930 . S
H240 C268 0.932 . S
H241 C271 0.929 . S
H242 C270 0.931 . S
H243 C273 0.929 . S
H244 C277 0.932 . S
H245 C274 0.931 . S
H246 C276 0.929 . S
H247 C279 0.929 . S
H248 C280 0.930 . S
H249 C282 0.929 . S
H250 C283 0.931 . S
H251 C285 0.930 . S
H252 C286 0.932 . S
H253 C288 0.931 . S
H254 C289 0.929 . S
H255 C291 0.929 . S
H256 C292 0.931 . S
H257 C294 0.929 . S
N258 C278 1.433 . S
N258 C284 1.435 . S
N258 C290 1.423 . S
H259 C295 0.932 . S
C260 N235 1.433 . S
C260 C261 1.363 . S
C260 C265 1.370 . S
C261 H234 0.929 . S
C261 C260 1.363 . S
C261 C262 1.385 . S
C262 H236 0.930 . S
C262 C261 1.385 . S
C262 C263 1.357 . S
C263 C262 1.357 . S
C263 C264 1.406 . S
C264 H238 0.929 . S
C264 C263 1.406 . S
C264 C265 1.391 . S
C265 H237 0.931 . S
C265 C260 1.370 . S
C265 C264 1.391 . S
C266 N235 1.435 . S
C266 C267 1.358 . S
C266 C271 1.371 . S
C267 H239 0.930 . S
C267 C266 1.358 . S
C267 C268 1.405 . S
C268 H240 0.932 . S
C268 C267 1.405 . S
C268 C269 1.383 . S
C269 C268 1.383 . S
C269 C270 1.393 . S
C270 H242 0.931 . S
C270 C269 1.393 . S
C270 C271 1.382 . S
C271 H241 0.929 . S
C271 C266 1.371 . S
C271 C270 1.382 . S
C272 N235 1.423 . S
C272 C273 1.362 . S
C272 C277 1.388 . S
C273 H243 0.929 . S
C273 C272 1.362 . S
C273 C274 1.376 . S
C274 H245 0.931 . S
C274 C273 1.376 . S
C274 C275 1.396 . S
C275 C274 1.396 . S
C275 C276 1.348 . S
C275 C293 1.472 . S
C276 H246 0.929 . S
C276 C275 1.348 . S
C276 C277 1.443 . S
C277 H244 0.932 . S
C277 C272 1.388 . S
C277 C276 1.443 . S
C278 N258 1.433 . S
C278 C279 1.363 . S
C278 C283 1.370 . S
C279 H247 0.929 . S
C279 C278 1.363 . S
C279 C280 1.385 . S
C280 H248 0.930 . S
C280 C279 1.385 . S
C280 C281 1.357 . S
C281 C280 1.357 . S
C281 C282 1.406 . S
C282 H249 0.929 . S
C282 C281 1.406 . S
C282 C283 1.391 . S
C283 H250 0.931 . S
C283 C278 1.370 . S
C283 C282 1.391 . S
C284 N258 1.435 . S
C284 C285 1.358 . S
C284 C289 1.371 . S
C285 H251 0.930 . S
C285 C284 1.358 . S
C285 C286 1.405 . S
C286 H252 0.932 . S
C286 C285 1.405 . S
C286 C287 1.383 . S
C287 C286 1.383 . S
C287 C288 1.393 . S
C288 H253 0.931 . S
C288 C287 1.393 . S
C288 C289 1.382 . S
C289 H254 0.929 . S
C289 C284 1.371 . S
C289 C288 1.382 . S
C290 N258 1.423 . S
C290 C291 1.362 . S
C290 C295 1.388 . S
C291 H255 0.929 . S
C291 C290 1.362 . S
C291 C292 1.376 . S
C292 H256 0.931 . S
C292 C291 1.376 . S
C292 C293 1.396 . S
C293 C275 1.472 . S
C293 C292 1.396 . S
C293 C294 1.348 . S
C294 H257 0.929 . S
C294 C293 1.348 . S
C294 C295 1.443 . S
C295 H259 0.932 . S
C295 C290 1.388 . S
C295 C294 1.443 . S
H296 C323 0.929 . S
N297 C322 1.433 . S
N297 C328 1.435 . S
N297 C334 1.423 . S
H298 C324 0.930 . S
H299 C327 0.931 . S
H300 C326 0.929 . S
H301 C329 0.930 . S
H302 C330 0.932 . S
H303 C333 0.929 . S
H304 C332 0.931 . S
H305 C335 0.929 . S
H306 C339 0.932 . S
H307 C336 0.931 . S
H308 C338 0.929 . S
H309 C341 0.929 . S
H310 C342 0.930 . S
H311 C344 0.929 . S
H312 C345 0.931 . S
H313 C347 0.930 . S
H314 C348 0.932 . S
H315 C350 0.931 . S
H316 C351 0.929 . S
H317 C353 0.929 . S
H318 C354 0.931 . S
H319 C356 0.929 . S
N320 C340 1.433 . S
N320 C346 1.435 . S
N320 C352 1.423 . S
H321 C357 0.932 . S
C322 N297 1.433 . S
C322 C323 1.363 . S
C322 C327 1.370 . S
C323 H296 0.929 . S
C323 C322 1.363 . S
C323 C324 1.385 . S
C324 H298 0.930 . S
C324 C323 1.385 . S
C324 C325 1.357 . S
C325 C324 1.357 . S
C325 C326 1.406 . S
C326 H300 0.929 . S
C326 C325 1.406 . S
C326 C327 1.391 . S
C327 H299 0.931 . S
C327 C322 1.370 . S
C327 C326 1.391 . S
C328 N297 1.435 . S
C328 C329 1.358 . S
C328 C333 1.371 . S
C329 H301 0.930 . S
C329 C328 1.358 . S
C329 C330 1.405 . S
C330 H302 0.932 . S
C330 C329 1.405 . S
C330 C331 1.383 . S
C331 C330 1.383 . S
C331 C332 1.393 . S
C332 H304 0.931 . S
C332 C331 1.393 . S
C332 C333 1.382 . S
C333 H303 0.929 . S
C333 C328 1.371 . S
C333 C332 1.382 . S
C334 N297 1.423 . S
C334 C335 1.362 . S
C334 C339 1.388 . S
C335 H305 0.929 . S
C335 C334 1.362 . S
C335 C336 1.376 . S
C336 H307 0.931 . S
C336 C335 1.376 . S
C336 C337 1.396 . S
C337 C336 1.396 . S
C337 C338 1.348 . S
C337 C355 1.472 . S
C338 H308 0.929 . S
C338 C337 1.348 . S
C338 C339 1.443 . S
C339 H306 0.932 . S
C339 C334 1.388 . S
C339 C338 1.443 . S
C340 N320 1.433 . S
C340 C341 1.363 . S
C340 C345 1.370 . S
C341 H309 0.929 . S
C341 C340 1.363 . S
C341 C342 1.385 . S
C342 H310 0.930 . S
C342 C341 1.385 . S
C342 C343 1.357 . S
C343 C342 1.357 . S
C343 C344 1.406 . S
C344 H311 0.929 . S
C344 C343 1.406 . S
C344 C345 1.391 . S
C345 H312 0.931 . S
C345 C340 1.370 . S
C345 C344 1.391 . S
C346 N320 1.435 . S
C346 C347 1.358 . S
C346 C351 1.371 . S
C347 H313 0.930 . S
C347 C346 1.358 . S
C347 C348 1.405 . S
C348 H314 0.932 . S
C348 C347 1.405 . S
C348 C349 1.383 . S
C349 C348 1.383 . S
C349 C350 1.393 . S
C350 H315 0.931 . S
C350 C349 1.393 . S
C350 C351 1.382 . S
C351 H316 0.929 . S
C351 C346 1.371 . S
C351 C350 1.382 . S
C352 N320 1.423 . S
C352 C353 1.362 . S
C352 C357 1.388 . S
C353 H317 0.929 . S
C353 C352 1.362 . S
C353 C354 1.376 . S
C354 H318 0.931 . S
C354 C353 1.376 . S
C354 C355 1.396 . S
C355 C337 1.472 . S
C355 C354 1.396 . S
C355 C356 1.348 . S
C356 H319 0.929 . S
C356 C355 1.348 . S
C356 C357 1.443 . S
C357 H321 0.932 . S
C357 C352 1.388 . S
C357 C356 1.443 . S
H358 C385 0.929 . S
N359 C384 1.433 . S
N359 C390 1.435 . S
N359 C396 1.423 . S
H360 C386 0.930 . S
H361 C389 0.931 . S
H362 C388 0.929 . S
H363 C391 0.930 . S
H364 C392 0.932 . S
H365 C395 0.929 . S
H366 C394 0.931 . S
H367 C397 0.929 . S
H368 C401 0.932 . S
H369 C398 0.931 . S
H370 C400 0.929 . S
H371 C403 0.929 . S
H372 C404 0.930 . S
H373 C406 0.929 . S
H374 C407 0.931 . S
H375 C409 0.930 . S
H376 C410 0.932 . S
H377 C412 0.931 . S
H378 C413 0.929 . S
H379 C415 0.929 . S
H380 C416 0.931 . S
H381 C418 0.929 . S
N382 C402 1.433 . S
N382 C408 1.435 . S
N382 C414 1.423 . S
H383 C419 0.932 . S
C384 N359 1.433 . S
C384 C385 1.363 . S
C384 C389 1.370 . S
C385 H358 0.929 . S
C385 C384 1.363 . S
C385 C386 1.385 . S
C386 H360 0.930 . S
C386 C385 1.385 . S
C386 C387 1.357 . S
C387 C386 1.357 . S
C387 C388 1.406 . S
C388 H362 0.929 . S
C388 C387 1.406 . S
C388 C389 1.391 . S
C389 H361 0.931 . S
C389 C384 1.370 . S
C389 C388 1.391 . S
C390 N359 1.435 . S
C390 C391 1.358 . S
C390 C395 1.371 . S
C391 H363 0.930 . S
C391 C390 1.358 . S
C391 C392 1.405 . S
C392 H364 0.932 . S
C392 C391 1.405 . S
C392 C393 1.383 . S
C393 C392 1.383 . S
C393 C394 1.393 . S
C394 H366 0.931 . S
C394 C393 1.393 . S
C394 C395 1.382 . S
C395 H365 0.929 . S
C395 C390 1.371 . S
C395 C394 1.382 . S
C396 N359 1.423 . S
C396 C397 1.362 . S
C396 C401 1.388 . S
C397 H367 0.929 . S
C397 C396 1.362 . S
C397 C398 1.376 . S
C398 H369 0.931 . S
C398 C397 1.376 . S
C398 C399 1.396 . S
C399 C398 1.396 . S
C399 C400 1.348 . S
C399 C417 1.472 . S
C400 H370 0.929 . S
C400 C399 1.348 . S
C400 C401 1.443 . S
C401 H368 0.932 . S
C401 C396 1.388 . S
C401 C400 1.443 . S
C402 N382 1.433 . S
C402 C403 1.363 . S
C402 C407 1.370 . S
C403 H371 0.929 . S
C403 C402 1.363 . S
C403 C404 1.385 . S
C404 H372 0.930 . S
C404 C403 1.385 . S
C404 C405 1.357 . S
C405 C404 1.357 . S
C405 C406 1.406 . S
C406 H373 0.929 . S
C406 C405 1.406 . S
C406 C407 1.391 . S
C407 H374 0.931 . S
C407 C402 1.370 . S
C407 C406 1.391 . S
C408 N382 1.435 . S
C408 C409 1.358 . S
C408 C413 1.371 . S
C409 H375 0.930 . S
C409 C408 1.358 . S
C409 C410 1.405 . S
C410 H376 0.932 . S
C410 C409 1.405 . S
C410 C411 1.383 . S
C411 C410 1.383 . S
C411 C412 1.393 . S
C412 H377 0.931 . S
C412 C411 1.393 . S
C412 C413 1.382 . S
C413 H378 0.929 . S
C413 C408 1.371 . S
C413 C412 1.382 . S
C414 N382 1.423 . S
C414 C415 1.362 . S
C414 C419 1.388 . S
C415 H379 0.929 . S
C415 C414 1.362 . S
C415 C416 1.376 . S
C416 H380 0.931 . S
C416 C415 1.376 . S
C416 C417 1.396 . S
C417 C399 1.472 . S
C417 C416 1.396 . S
C417 C418 1.348 . S
C418 H381 0.929 . S
C418 C417 1.348 . S
C418 C419 1.443 . S
C419 H383 0.932 . S
C419 C414 1.388 . S
C419 C418 1.443 . S
H420 C447 0.929 . S
N421 C446 1.433 . S
N421 C452 1.435 . S
N421 C458 1.423 . S
H422 C448 0.930 . S
H423 C451 0.931 . S
H424 C450 0.929 . S
H425 C453 0.930 . S
H426 C454 0.932 . S
H427 C457 0.929 . S
H428 C456 0.931 . S
H429 C459 0.929 . S
H430 C463 0.932 . S
H431 C460 0.931 . S
H432 C462 0.929 . S
H433 C465 0.929 . S
H434 C466 0.930 . S
H435 C468 0.929 . S
H436 C469 0.931 . S
H437 C471 0.930 . S
H438 C472 0.932 . S
H439 C474 0.931 . S
H440 C475 0.929 . S
H441 C477 0.929 . S
H442 C478 0.931 . S
H443 C480 0.929 . S
N444 C464 1.433 . S
N444 C470 1.435 . S
N444 C476 1.423 . S
H445 C481 0.932 . S
C446 N421 1.433 . S
C446 C447 1.363 . S
C446 C451 1.370 . S
C447 H420 0.929 . S
C447 C446 1.363 . S
C447 C448 1.385 . S
C448 H422 0.930 . S
C448 C447 1.385 . S
C448 C449 1.357 . S
C449 C448 1.357 . S
C449 C450 1.406 . S
C450 H424 0.929 . S
C450 C449 1.406 . S
C450 C451 1.391 . S
C451 H423 0.931 . S
C451 C446 1.370 . S
C451 C450 1.391 . S
C452 N421 1.435 . S
C452 C453 1.358 . S
C452 C457 1.371 . S
C453 H425 0.930 . S
C453 C452 1.358 . S
C453 C454 1.405 . S
C454 H426 0.932 . S
C454 C453 1.405 . S
C454 C455 1.383 . S
C455 C454 1.383 . S
C455 C456 1.393 . S
C456 H428 0.931 . S
C456 C455 1.393 . S
C456 C457 1.382 . S
C457 H427 0.929 . S
C457 C452 1.371 . S
C457 C456 1.382 . S
C458 N421 1.423 . S
C458 C459 1.362 . S
C458 C463 1.388 . S
C459 H429 0.929 . S
C459 C458 1.362 . S
C459 C460 1.376 . S
C460 H431 0.931 . S
C460 C459 1.376 . S
C460 C461 1.396 . S
C461 C460 1.396 . S
C461 C462 1.348 . S
C461 C479 1.472 . S
C462 H432 0.929 . S
C462 C461 1.348 . S
C462 C463 1.443 . S
C463 H430 0.932 . S
C463 C458 1.388 . S
C463 C462 1.443 . S
C464 N444 1.433 . S
C464 C465 1.363 . S
C464 C469 1.370 . S
C465 H433 0.929 . S
C465 C464 1.363 . S
C465 C466 1.385 . S
C466 H434 0.930 . S
C466 C465 1.385 . S
C466 C467 1.357 . S
C467 C466 1.357 . S
C467 C468 1.406 . S
C468 H435 0.929 . S
C468 C467 1.406 . S
C468 C469 1.391 . S
C469 H436 0.931 . S
C469 C464 1.370 . S
C469 C468 1.391 . S
C470 N444 1.435 . S
C470 C471 1.358 . S
C470 C475 1.371 . S
C471 H437 0.930 . S
C471 C470 1.358 . S
C471 C472 1.405 . S
C472 H438 0.932 . S
C472 C471 1.405 . S
C472 C473 1.383 . S
C473 C472 1.383 . S
C473 C474 1.393 . S
C474 H439 0.931 . S
C474 C473 1.393 . S
C474 C475 1.382 . S
C475 H440 0.929 . S
C475 C470 1.371 . S
C475 C474 1.382 . S
C476 N444 1.423 . S
C476 C477 1.362 . S
C476 C481 1.388 . S
C477 H441 0.929 . S
C477 C476 1.362 . S
C477 C478 1.376 . S
C478 H442 0.931 . S
C478 C477 1.376 . S
C478 C479 1.396 . S
C479 C461 1.472 . S
C479 C478 1.396 . S
C479 C480 1.348 . S
C480 H443 0.929 . S
C480 C479 1.348 . S
C480 C481 1.443 . S
C481 H445 0.932 . S
C481 C476 1.388 . S
C481 C480 1.443 . S
H482 C509 0.929 . S
N483 C508 1.433 . S
N483 C514 1.435 . S
N483 C520 1.423 . S
H484 C510 0.930 . S
H485 C513 0.931 . S
H486 C512 0.929 . S
H487 C515 0.930 . S
H488 C516 0.932 . S
H489 C519 0.929 . S
H490 C518 0.931 . S
H491 C521 0.929 . S
H492 C525 0.932 . S
H493 C522 0.931 . S
H494 C524 0.929 . S
H495 C527 0.929 . S
H496 C528 0.930 . S
H497 C530 0.929 . S
H498 C531 0.931 . S
H499 C533 0.930 . S
H500 C534 0.932 . S
H501 C536 0.931 . S
H502 C537 0.929 . S
H503 C539 0.929 . S
H504 C540 0.931 . S
H505 C542 0.929 . S
N506 C526 1.433 . S
N506 C532 1.435 . S
N506 C538 1.423 . S
H507 C543 0.932 . S
C508 N483 1.433 . S
C508 C509 1.363 . S
C508 C513 1.370 . S
C509 H482 0.929 . S
C509 C508 1.363 . S
C509 C510 1.385 . S
C510 H484 0.930 . S
C510 C509 1.385 . S
C510 C511 1.357 . S
C511 C510 1.357 . S
C511 C512 1.406 . S
C512 H486 0.929 . S
C512 C511 1.406 . S
C512 C513 1.391 . S
C513 H485 0.931 . S
C513 C508 1.370 . S
C513 C512 1.391 . S
C514 N483 1.435 . S
C514 C515 1.358 . S
C514 C519 1.371 . S
C515 H487 0.930 . S
C515 C514 1.358 . S
C515 C516 1.405 . S
C516 H488 0.932 . S
C516 C515 1.405 . S
C516 C517 1.383 . S
C517 C516 1.383 . S
C517 C518 1.393 . S
C518 H490 0.931 . S
C518 C517 1.393 . S
C518 C519 1.382 . S
C519 H489 0.929 . S
C519 C514 1.371 . S
C519 C518 1.382 . S
C520 N483 1.423 . S
C520 C521 1.362 . S
C520 C525 1.388 . S
C521 H491 0.929 . S
C521 C520 1.362 . S
C521 C522 1.376 . S
C522 H493 0.931 . S
C522 C521 1.376 . S
C522 C523 1.396 . S
C523 C522 1.396 . S
C523 C524 1.348 . S
C523 C541 1.472 . S
C524 H494 0.929 . S
C524 C523 1.348 . S
C524 C525 1.443 . S
C525 H492 0.932 . S
C525 C520 1.388 . S
C525 C524 1.443 . S
C526 N506 1.433 . S
C526 C527 1.363 . S
C526 C531 1.370 . S
C527 H495 0.929 . S
C527 C526 1.363 . S
C527 C528 1.385 . S
C528 H496 0.930 . S
C528 C527 1.385 . S
C528 C529 1.357 . S
C529 C528 1.357 . S
C529 C530 1.406 . S
C530 H497 0.929 . S
C530 C529 1.406 . S
C530 C531 1.391 . S
C531 H498 0.931 . S
C531 C526 1.370 . S
C531 C530 1.391 . S
C532 N506 1.435 . S
C532 C533 1.358 . S
C532 C537 1.371 . S
C533 H499 0.930 . S
C533 C532 1.358 . S
C533 C534 1.405 . S
C534 H500 0.932 . S
C534 C533 1.405 . S
C534 C535 1.383 . S
C535 C534 1.383 . S
C535 C536 1.393 . S
C536 H501 0.931 . S
C536 C535 1.393 . S
C536 C537 1.382 . S
C537 H502 0.929 . S
C537 C532 1.371 . S
C537 C536 1.382 . S
C538 N506 1.423 . S
C538 C539 1.362 . S
C538 C543 1.388 . S
C539 H503 0.929 . S
C539 C538 1.362 . S
C539 C540 1.376 . S
C540 H504 0.931 . S
C540 C539 1.376 . S
C540 C541 1.396 . S
C541 C523 1.472 . S
C541 C540 1.396 . S
C541 C542 1.348 . S
C542 H505 0.929 . S
C542 C541 1.348 . S
C542 C543 1.443 . S
C543 H507 0.932 . S
C543 C538 1.388 . S
C543 C542 1.443 . S
H544 C571 0.929 . S
N545 C570 1.433 . S
N545 C576 1.435 . S
N545 C582 1.423 . S
H546 C572 0.930 . S
H547 C575 0.931 . S
H548 C574 0.929 . S
H549 C577 0.930 . S
H550 C578 0.932 . S
H551 C581 0.929 . S
H552 C580 0.931 . S
H553 C583 0.929 . S
H554 C587 0.932 . S
H555 C584 0.931 . S
H556 C586 0.929 . S
H557 C589 0.929 . S
H558 C590 0.930 . S
H559 C592 0.929 . S
H560 C593 0.931 . S
H561 C595 0.930 . S
H562 C596 0.932 . S
H563 C598 0.931 . S
H564 C599 0.929 . S
H565 C601 0.929 . S
H566 C602 0.931 . S
H567 C604 0.929 . S
N568 C588 1.433 . S
N568 C594 1.435 . S
N568 C600 1.423 . S
H569 C605 0.932 . S
C570 N545 1.433 . S
C570 C571 1.363 . S
C570 C575 1.370 . S
C571 H544 0.929 . S
C571 C570 1.363 . S
C571 C572 1.385 . S
C572 H546 0.930 . S
C572 C571 1.385 . S
C572 C573 1.357 . S
C573 C572 1.357 . S
C573 C574 1.406 . S
C574 H548 0.929 . S
C574 C573 1.406 . S
C574 C575 1.391 . S
C575 H547 0.931 . S
C575 C570 1.370 . S
C575 C574 1.391 . S
C576 N545 1.435 . S
C576 C577 1.358 . S
C576 C581 1.371 . S
C577 H549 0.930 . S
C577 C576 1.358 . S
C577 C578 1.405 . S
C578 H550 0.932 . S
C578 C577 1.405 . S
C578 C579 1.383 . S
C579 C578 1.383 . S
C579 C580 1.393 . S
C580 H552 0.931 . S
C580 C579 1.393 . S
C580 C581 1.382 . S
C581 H551 0.929 . S
C581 C576 1.371 . S
C581 C580 1.382 . S
C582 N545 1.423 . S
C582 C583 1.362 . S
C582 C587 1.388 . S
C583 H553 0.929 . S
C583 C582 1.362 . S
C583 C584 1.376 . S
C584 H555 0.931 . S
C584 C583 1.376 . S
C584 C585 1.396 . S
C585 C584 1.396 . S
C585 C586 1.348 . S
C585 C603 1.472 . S
C586 H556 0.929 . S
C586 C585 1.348 . S
C586 C587 1.443 . S
C587 H554 0.932 . S
C587 C582 1.388 . S
C587 C586 1.443 . S
C588 N568 1.433 . S
C588 C589 1.363 . S
C588 C593 1.370 . S
C589 H557 0.929 . S
C589 C588 1.363 . S
C589 C590 1.385 . S
C590 H558 0.930 . S
C590 C589 1.385 . S
C590 C591 1.357 . S
C591 C590 1.357 . S
C591 C592 1.406 . S
C592 H559 0.929 . S
C592 C591 1.406 . S
C592 C593 1.391 . S
C593 H560 0.931 . S
C593 C588 1.370 . S
C593 C592 1.391 . S
C594 N568 1.435 . S
C594 C595 1.358 . S
C594 C599 1.371 . S
C595 H561 0.930 . S
C595 C594 1.358 . S
C595 C596 1.405 . S
C596 H562 0.932 . S
C596 C595 1.405 . S
C596 C597 1.383 . S
C597 C596 1.383 . S
C597 C598 1.393 . S
C598 H563 0.931 . S
C598 C597 1.393 . S
C598 C599 1.382 . S
C599 H564 0.929 . S
C599 C594 1.371 . S
C599 C598 1.382 . S
C600 N568 1.423 . S
C600 C601 1.362 . S
C600 C605 1.388 . S
C601 H565 0.929 . S
C601 C600 1.362 . S
C601 C602 1.376 . S
C602 H566 0.931 . S
C602 C601 1.376 . S
C602 C603 1.396 . S
C603 C585 1.472 . S
C603 C602 1.396 . S
C603 C604 1.348 . S
C604 H567 0.929 . S
C604 C603 1.348 . S
C604 C605 1.443 . S
C605 H569 0.932 . S
C605 C600 1.388 . S
C605 C604 1.443 . S
H606 C633 0.929 . S
N607 C632 1.433 . S
N607 C638 1.435 . S
N607 C644 1.423 . S
H608 C634 0.930 . S
H609 C637 0.931 . S
H610 C636 0.929 . S
H611 C639 0.930 . S
H612 C640 0.932 . S
H613 C643 0.929 . S
H614 C642 0.931 . S
H615 C645 0.929 . S
H616 C649 0.932 . S
H617 C646 0.931 . S
H618 C648 0.929 . S
H619 C651 0.929 . S
H620 C652 0.930 . S
H621 C654 0.929 . S
H622 C655 0.931 . S
H623 C657 0.930 . S
H624 C658 0.932 . S
H625 C660 0.931 . S
H626 C661 0.929 . S
H627 C663 0.929 . S
H628 C664 0.931 . S
H629 C666 0.929 . S
N630 C650 1.433 . S
N630 C656 1.435 . S
N630 C662 1.423 . S
H631 C667 0.932 . S
C632 N607 1.433 . S
C632 C633 1.363 . S
C632 C637 1.370 . S
C633 H606 0.929 . S
C633 C632 1.363 . S
C633 C634 1.385 . S
C634 H608 0.930 . S
C634 C633 1.385 . S
C634 C635 1.357 . S
C635 C634 1.357 . S
C635 C636 1.406 . S
C636 H610 0.929 . S
C636 C635 1.406 . S
C636 C637 1.391 . S
C637 H609 0.931 . S
C637 C632 1.370 . S
C637 C636 1.391 . S
C638 N607 1.435 . S
C638 C639 1.358 . S
C638 C643 1.371 . S
C639 H611 0.930 . S
C639 C638 1.358 . S
C639 C640 1.405 . S
C640 H612 0.932 . S
C640 C639 1.405 . S
C640 C641 1.383 . S
C641 C640 1.383 . S
C641 C642 1.393 . S
C642 H614 0.931 . S
C642 C641 1.393 . S
C642 C643 1.382 . S
C643 H613 0.929 . S
C643 C638 1.371 . S
C643 C642 1.382 . S
C644 N607 1.423 . S
C644 C645 1.362 . S
C644 C649 1.388 . S
C645 H615 0.929 . S
C645 C644 1.362 . S
C645 C646 1.376 . S
C646 H617 0.931 . S
C646 C645 1.376 . S
C646 C647 1.396 . S
C647 C646 1.396 . S
C647 C648 1.348 . S
C647 C665 1.472 . S
C648 H618 0.929 . S
C648 C647 1.348 . S
C648 C649 1.443 . S
C649 H616 0.932 . S
C649 C644 1.388 . S
C649 C648 1.443 . S
C650 N630 1.433 . S
C650 C651 1.363 . S
C650 C655 1.370 . S
C651 H619 0.929 . S
C651 C650 1.363 . S
C651 C652 1.385 . S
C652 H620 0.930 . S
C652 C651 1.385 . S
C652 C653 1.357 . S
C653 C652 1.357 . S
C653 C654 1.406 . S
C654 H621 0.929 . S
C654 C653 1.406 . S
C654 C655 1.391 . S
C655 H622 0.931 . S
C655 C650 1.370 . S
C655 C654 1.391 . S
C656 N630 1.435 . S
C656 C657 1.358 . S
C656 C661 1.371 . S
C657 H623 0.930 . S
C657 C656 1.358 . S
C657 C658 1.405 . S
C658 H624 0.932 . S
C658 C657 1.405 . S
C658 C659 1.383 . S
C659 C658 1.383 . S
C659 C660 1.393 . S
C660 H625 0.931 . S
C660 C659 1.393 . S
C660 C661 1.382 . S
C661 H626 0.929 . S
C661 C656 1.371 . S
C661 C660 1.382 . S
C662 N630 1.423 . S
C662 C663 1.362 . S
C662 C667 1.388 . S
C663 H627 0.929 . S
C663 C662 1.362 . S
C663 C664 1.376 . S
C664 H628 0.931 . S
C664 C663 1.376 . S
C664 C665 1.396 . S
C665 C647 1.472 . S
C665 C664 1.396 . S
C665 C666 1.348 . S
C666 H629 0.929 . S
C666 C665 1.348 . S
C666 C667 1.443 . S
C667 H631 0.932 . S
C667 C662 1.388 . S
C667 C666 1.443 . S
H668 C695 0.929 . S
N669 C694 1.433 . S
N669 C700 1.435 . S
N669 C706 1.423 . S
H670 C696 0.930 . S
H671 C699 0.931 . S
H672 C698 0.929 . S
H673 C701 0.930 . S
H674 C702 0.932 . S
H675 C705 0.929 . S
H676 C704 0.931 . S
H677 C707 0.929 . S
H678 C711 0.932 . S
H679 C708 0.931 . S
H680 C710 0.929 . S
H681 C713 0.929 . S
H682 C714 0.930 . S
H683 C716 0.929 . S
H684 C717 0.931 . S
H685 C719 0.930 . S
H686 C720 0.932 . S
H687 C722 0.931 . S
H688 C723 0.929 . S
H689 C725 0.929 . S
H690 C726 0.931 . S
H691 C728 0.929 . S
N692 C712 1.433 . S
N692 C718 1.435 . S
N692 C724 1.423 . S
H693 C729 0.932 . S
C694 N669 1.433 . S
C694 C695 1.363 . S
C694 C699 1.370 . S
C695 H668 0.929 . S
C695 C694 1.363 . S
C695 C696 1.385 . S
C696 H670 0.930 . S
C696 C695 1.385 . S
C696 C697 1.357 . S
C697 C696 1.357 . S
C697 C698 1.406 . S
C698 H672 0.929 . S
C698 C697 1.406 . S
C698 C699 1.391 . S
C699 H671 0.931 . S
C699 C694 1.370 . S
C699 C698 1.391 . S
C700 N669 1.435 . S
C700 C701 1.358 . S
C700 C705 1.371 . S
C701 H673 0.930 . S
C701 C700 1.358 . S
C701 C702 1.405 . S
C702 H674 0.932 . S
C702 C701 1.405 . S
C702 C703 1.383 . S
C703 C702 1.383 . S
C703 C704 1.393 . S
C704 H676 0.931 . S
C704 C703 1.393 . S
C704 C705 1.382 . S
C705 H675 0.929 . S
C705 C700 1.371 . S
C705 C704 1.382 . S
C706 N669 1.423 . S
C706 C707 1.362 . S
C706 C711 1.388 . S
C707 H677 0.929 . S
C707 C706 1.362 . S
C707 C708 1.376 . S
C708 H679 0.931 . S
C708 C707 1.376 . S
C708 C709 1.396 . S
C709 C708 1.396 . S
C709 C710 1.348 . S
C709 C727 1.472 . S
C710 H680 0.929 . S
C710 C709 1.348 . S
C710 C711 1.443 . S
C711 H678 0.932 . S
C711 C706 1.388 . S
C711 C710 1.443 . S
C712 N692 1.433 . S
C712 C713 1.363 . S
C712 C717 1.370 . S
C713 H681 0.929 . S
C713 C712 1.363 . S
C713 C714 1.385 . S
C714 H682 0.930 . S
C714 C713 1.385 . S
C714 C715 1.357 . S
C715 C714 1.357 . S
C715 C716 1.406 . S
C716 H683 0.929 . S
C716 C715 1.406 . S
C716 C717 1.391 . S
C717 H684 0.931 . S
C717 C712 1.370 . S
C717 C716 1.391 . S
C718 N692 1.435 . S
C718 C719 1.358 . S
C718 C723 1.371 . S
C719 H685 0.930 . S
C719 C718 1.358 . S
C719 C720 1.405 . S
C720 H686 0.932 . S
C720 C719 1.405 . S
C720 C721 1.383 . S
C721 C720 1.383 . S
C721 C722 1.393 . S
C722 H687 0.931 . S
C722 C721 1.393 . S
C722 C723 1.382 . S
C723 H688 0.929 . S
C723 C718 1.371 . S
C723 C722 1.382 . S
C724 N692 1.423 . S
C724 C725 1.362 . S
C724 C729 1.388 . S
C725 H689 0.929 . S
C725 C724 1.362 . S
C725 C726 1.376 . S
C726 H690 0.931 . S
C726 C725 1.376 . S
C726 C727 1.396 . S
C727 C709 1.472 . S
C727 C726 1.396 . S
C727 C728 1.348 . S
C728 H691 0.929 . S
C728 C727 1.348 . S
C728 C729 1.443 . S
C729 H693 0.932 . S
C729 C724 1.388 . S
C729 C728 1.443 . S
H730 C757 0.929 . S
N731 C756 1.433 . S
N731 C762 1.435 . S
N731 C768 1.423 . S
H732 C758 0.930 . S
H733 C761 0.931 . S
H734 C760 0.929 . S
H735 C763 0.930 . S
H736 C764 0.932 . S
H737 C767 0.929 . S
H738 C766 0.931 . S
H739 C769 0.929 . S
H740 C773 0.932 . S
H741 C770 0.931 . S
H742 C772 0.929 . S
H743 C775 0.929 . S
H744 C776 0.930 . S
H745 C778 0.929 . S
H746 C779 0.931 . S
H747 C781 0.930 . S
H748 C782 0.932 . S
H749 C784 0.931 . S
H750 C785 0.929 . S
H751 C787 0.929 . S
H752 C788 0.931 . S
H753 C790 0.929 . S
N754 C774 1.433 . S
N754 C780 1.435 . S
N754 C786 1.423 . S
H755 C791 0.932 . S
C756 N731 1.433 . S
C756 C757 1.363 . S
C756 C761 1.370 . S
C757 H730 0.929 . S
C757 C756 1.363 . S
C757 C758 1.385 . S
C758 H732 0.930 . S
C758 C757 1.385 . S
C758 C759 1.357 . S
C759 C758 1.357 . S
C759 C760 1.406 . S
C760 H734 0.929 . S
C760 C759 1.406 . S
C760 C761 1.391 . S
C761 H733 0.931 . S
C761 C756 1.370 . S
C761 C760 1.391 . S
C762 N731 1.435 . S
C762 C763 1.358 . S
C762 C767 1.371 . S
C763 H735 0.930 . S
C763 C762 1.358 . S
C763 C764 1.405 . S
C764 H736 0.932 . S
C764 C763 1.405 . S
C764 C765 1.383 . S
C765 C764 1.383 . S
C765 C766 1.393 . S
C766 H738 0.931 . S
C766 C765 1.393 . S
C766 C767 1.382 . S
C767 H737 0.929 . S
C767 C762 1.371 . S
C767 C766 1.382 . S
C768 N731 1.423 . S
C768 C769 1.362 . S
C768 C773 1.388 . S
C769 H739 0.929 . S
C769 C768 1.362 . S
C769 C770 1.376 . S
C770 H741 0.931 . S
C770 C769 1.376 . S
C770 C771 1.396 . S
C771 C770 1.396 . S
C771 C772 1.348 . S
C771 C789 1.472 . S
C772 H742 0.929 . S
C772 C771 1.348 . S
C772 C773 1.443 . S
C773 H740 0.932 . S
C773 C768 1.388 . S
C773 C772 1.443 . S
C774 N754 1.433 . S
C774 C775 1.363 . S
C774 C779 1.370 . S
C775 H743 0.929 . S
C775 C774 1.363 . S
C775 C776 1.385 . S
C776 H744 0.930 . S
C776 C775 1.385 . S
C776 C777 1.357 . S
C777 C776 1.357 . S
C777 C778 1.406 . S
C778 H745 0.929 . S
C778 C777 1.406 . S
C778 C779 1.391 . S
C779 H746 0.931 . S
C779 C774 1.370 . S
C779 C778 1.391 . S
C780 N754 1.435 . S
C780 C781 1.358 . S
C780 C785 1.371 . S
C781 H747 0.930 . S
C781 C780 1.358 . S
C781 C782 1.405 . S
C782 H748 0.932 . S
C782 C781 1.405 . S
C782 C783 1.383 . S
C783 C782 1.383 . S
C783 C784 1.393 . S
C784 H749 0.931 . S
C784 C783 1.393 . S
C784 C785 1.382 . S
C785 H750 0.929 . S
C785 C780 1.371 . S
C785 C784 1.382 . S
C786 N754 1.423 . S
C786 C787 1.362 . S
C786 C791 1.388 . S
C787 H751 0.929 . S
C787 C786 1.362 . S
C787 C788 1.376 . S
C788 H752 0.931 . S
C788 C787 1.376 . S
C788 C789 1.396 . S
C789 C771 1.472 . S
C789 C788 1.396 . S
C789 C790 1.348 . S
C790 H753 0.929 . S
C790 C789 1.348 . S
C790 C791 1.443 . S
C791 H755 0.932 . S
C791 C786 1.388 . S
C791 C790 1.443 . S
H792 C819 0.929 . S
N793 C818 1.433 . S
N793 C824 1.435 . S
N793 C830 1.423 . S
H794 C820 0.930 . S
H795 C823 0.931 . S
H796 C822 0.929 . S
H797 C825 0.930 . S
H798 C826 0.932 . S
H799 C829 0.929 . S
H800 C828 0.931 . S
H801 C831 0.929 . S
H802 C835 0.932 . S
H803 C832 0.931 . S
H804 C834 0.929 . S
H805 C837 0.929 . S
H806 C838 0.930 . S
H807 C840 0.929 . S
H808 C841 0.931 . S
H809 C843 0.930 . S
H810 C844 0.932 . S
H811 C846 0.931 . S
H812 C847 0.929 . S
H813 C849 0.929 . S
H814 C850 0.931 . S
H815 C852 0.929 . S
N816 C836 1.433 . S
N816 C842 1.435 . S
N816 C848 1.423 . S
H817 C853 0.932 . S
C818 N793 1.433 . S
C818 C819 1.363 . S
C818 C823 1.370 . S
C819 H792 0.929 . S
C819 C818 1.363 . S
C819 C820 1.385 . S
C820 H794 0.930 . S
C820 C819 1.385 . S
C820 C821 1.357 . S
C821 C820 1.357 . S
C821 C822 1.406 . S
C822 H796 0.929 . S
C822 C821 1.406 . S
C822 C823 1.391 . S
C823 H795 0.931 . S
C823 C818 1.370 . S
C823 C822 1.391 . S
C824 N793 1.435 . S
C824 C825 1.358 . S
C824 C829 1.371 . S
C825 H797 0.930 . S
C825 C824 1.358 . S
C825 C826 1.405 . S
C826 H798 0.932 . S
C826 C825 1.405 . S
C826 C827 1.383 . S
C827 C826 1.383 . S
C827 C828 1.393 . S
C828 H800 0.931 . S
C828 C827 1.393 . S
C828 C829 1.382 . S
C829 H799 0.929 . S
C829 C824 1.371 . S
C829 C828 1.382 . S
C830 N793 1.423 . S
C830 C831 1.362 . S
C830 C835 1.388 . S
C831 H801 0.929 . S
C831 C830 1.362 . S
C831 C832 1.376 . S
C832 H803 0.931 . S
C832 C831 1.376 . S
C832 C833 1.396 . S
C833 C832 1.396 . S
C833 C834 1.348 . S
C833 C851 1.472 . S
C834 H804 0.929 . S
C834 C833 1.348 . S
C834 C835 1.443 . S
C835 H802 0.932 . S
C835 C830 1.388 . S
C835 C834 1.443 . S
C836 N816 1.433 . S
C836 C837 1.363 . S
C836 C841 1.370 . S
C837 H805 0.929 . S
C837 C836 1.363 . S
C837 C838 1.385 . S
C838 H806 0.930 . S
C838 C837 1.385 . S
C838 C839 1.357 . S
C839 C838 1.357 . S
C839 C840 1.406 . S
C840 H807 0.929 . S
C840 C839 1.406 . S
C840 C841 1.391 . S
C841 H808 0.931 . S
C841 C836 1.370 . S
C841 C840 1.391 . S
C842 N816 1.435 . S
C842 C843 1.358 . S
C842 C847 1.371 . S
C843 H809 0.930 . S
C843 C842 1.358 . S
C843 C844 1.405 . S
C844 H810 0.932 . S
C844 C843 1.405 . S
C844 C845 1.383 . S
C845 C844 1.383 . S
C845 C846 1.393 . S
C846 H811 0.931 . S
C846 C845 1.393 . S
C846 C847 1.382 . S
C847 H812 0.929 . S
C847 C842 1.371 . S
C847 C846 1.382 . S
C848 N816 1.423 . S
C848 C849 1.362 . S
C848 C853 1.388 . S
C849 H813 0.929 . S
C849 C848 1.362 . S
C849 C850 1.376 . S
C850 H814 0.931 . S
C850 C849 1.376 . S
C850 C851 1.396 . S
C851 C833 1.472 . S
C851 C850 1.396 . S
C851 C852 1.348 . S
C852 H815 0.929 . S
C852 C851 1.348 . S
C852 C853 1.443 . S
C853 H817 0.932 . S
C853 C848 1.388 . S
C853 C852 1.443 . S
H854 C881 0.929 . S
N855 C880 1.433 . S
N855 C886 1.435 . S
N855 C892 1.423 . S
H856 C882 0.930 . S
H857 C885 0.931 . S
H858 C884 0.929 . S
H859 C887 0.930 . S
H860 C888 0.932 . S
H861 C891 0.929 . S
H862 C890 0.931 . S
H863 C893 0.929 . S
H864 C897 0.932 . S
H865 C894 0.931 . S
H866 C896 0.929 . S
H867 C899 0.929 . S
H868 C900 0.930 . S
H869 C902 0.929 . S
H870 C903 0.931 . S
H871 C905 0.930 . S
H872 C906 0.932 . S
H873 C908 0.931 . S
H874 C909 0.929 . S
H875 C911 0.929 . S
H876 C912 0.931 . S
H877 C914 0.929 . S
N878 C898 1.433 . S
N878 C904 1.435 . S
N878 C910 1.423 . S
H879 C915 0.932 . S
C880 N855 1.433 . S
C880 C881 1.363 . S
C880 C885 1.370 . S
C881 H854 0.929 . S
C881 C880 1.363 . S
C881 C882 1.385 . S
C882 H856 0.930 . S
C882 C881 1.385 . S
C882 C883 1.357 . S
C883 C882 1.357 . S
C883 C884 1.406 . S
C884 H858 0.929 . S
C884 C883 1.406 . S
C884 C885 1.391 . S
C885 H857 0.931 . S
C885 C880 1.370 . S
C885 C884 1.391 . S
C886 N855 1.435 . S
C886 C887 1.358 . S
C886 C891 1.371 . S
C887 H859 0.930 . S
C887 C886 1.358 . S
C887 C888 1.405 . S
C888 H860 0.932 . S
C888 C887 1.405 . S
C888 C889 1.383 . S
C889 C888 1.383 . S
C889 C890 1.393 . S
C890 H862 0.931 . S
C890 C889 1.393 . S
C890 C891 1.382 . S
C891 H861 0.929 . S
C891 C886 1.371 . S
C891 C890 1.382 . S
C892 N855 1.423 . S
C892 C893 1.362 . S
C892 C897 1.388 . S
C893 H863 0.929 . S
C893 C892 1.362 . S
C893 C894 1.376 . S
C894 H865 0.931 . S
C894 C893 1.376 . S
C894 C895 1.396 . S
C895 C894 1.396 . S
C895 C896 1.348 . S
C895 C913 1.472 . S
C896 H866 0.929 . S
C896 C895 1.348 . S
C896 C897 1.443 . S
C897 H864 0.932 . S
C897 C892 1.388 . S
C897 C896 1.443 . S
C898 N878 1.433 . S
C898 C899 1.363 . S
C898 C903 1.370 . S
C899 H867 0.929 . S
C899 C898 1.363 . S
C899 C900 1.385 . S
C900 H868 0.930 . S
C900 C899 1.385 . S
C900 C901 1.357 . S
C901 C900 1.357 . S
C901 C902 1.406 . S
C902 H869 0.929 . S
C902 C901 1.406 . S
C902 C903 1.391 . S
C903 H870 0.931 . S
C903 C898 1.370 . S
C903 C902 1.391 . S
C904 N878 1.435 . S
C904 C905 1.358 . S
C904 C909 1.371 . S
C905 H871 0.930 . S
C905 C904 1.358 . S
C905 C906 1.405 . S
C906 H872 0.932 . S
C906 C905 1.405 . S
C906 C907 1.383 . S
C907 C906 1.383 . S
C907 C908 1.393 . S
C908 H873 0.931 . S
C908 C907 1.393 . S
C908 C909 1.382 . S
C909 H874 0.929 . S
C909 C904 1.371 . S
C909 C908 1.382 . S
C910 N878 1.423 . S
C910 C911 1.362 . S
C910 C915 1.388 . S
C911 H875 0.929 . S
C911 C910 1.362 . S
C911 C912 1.376 . S
C912 H876 0.931 . S
C912 C911 1.376 . S
C912 C913 1.396 . S
C913 C895 1.472 . S
C913 C912 1.396 . S
C913 C914 1.348 . S
C914 H877 0.929 . S
C914 C913 1.348 . S
C914 C915 1.443 . S
C915 H879 0.932 . S
C915 C910 1.388 . S
C915 C914 1.443 . S
H916 C943 0.929 . S
N917 C942 1.433 . S
N917 C948 1.435 . S
N917 C954 1.423 . S
H918 C944 0.930 . S
H919 C947 0.931 . S
H920 C946 0.929 . S
H921 C949 0.930 . S
H922 C950 0.932 . S
H923 C953 0.929 . S
H924 C952 0.931 . S
H925 C955 0.929 . S
H926 C959 0.932 1_545 S
H927 C956 0.931 . S
H928 C958 0.975 . S
H929 C961 0.929 . S
H930 C962 0.930 . S
H931 C964 0.929 . S
H932 C965 0.931 . S
H933 C967 0.930 . S
H934 C968 0.932 . S
H935 C970 0.931 . S
H936 C971 0.929 . S
H937 C973 0.929 . S
H938 C974 0.931 . S
H939 C976 0.939 . S
N940 C960 1.433 . S
N940 C966 1.435 . S
N940 C972 1.423 . S
H941 C977 0.932 1_545 S
C942 N917 1.433 . S
C942 C943 1.363 . S
C942 C947 1.370 1_565 S
C943 H916 0.929 . S
C943 C942 1.363 . S
C943 C944 1.385 . S
C944 H918 0.930 . S
C944 C943 1.385 . S
C944 C945 1.357 1_565 S
C945 C944 1.357 1_545 S
C945 C946 1.406 . S
C946 H920 0.929 . S
C946 C945 1.406 . S
C946 C947 1.391 . S
C947 H919 0.931 . S
C947 C942 1.370 1_545 S
C947 C946 1.391 . S
C948 N917 1.435 . S
C948 C949 1.358 1_565 S
C948 C953 1.371 . S
C949 H921 0.930 . S
C949 C948 1.358 1_545 S
C949 C950 1.405 . S
C950 H922 0.932 . S
C950 C949 1.405 . S
C950 C951 1.383 1_545 S
C951 C950 1.383 1_565 S
C951 C952 1.393 . S
C952 H924 0.931 . S
C952 C951 1.393 . S
C952 C953 1.382 . S
C953 H923 0.929 . S
C953 C948 1.371 . S
C953 C952 1.382 . S
C954 N917 1.423 . S
C954 C955 1.362 . S
C954 C959 1.388 . S
C955 H925 0.929 . S
C955 C954 1.362 . S
C955 C956 1.376 . S
C956 H927 0.931 . S
C956 C955 1.376 . S
C956 C957 1.396 . S
C957 C956 1.396 . S
C957 C958 1.348 . S
C957 C975 1.472 . S
C958 H928 0.975 . S
C958 C957 1.348 . S
C958 C959 1.443 . S
C959 H926 0.932 1_565 S
C959 C954 1.388 . S
C959 C958 1.443 . S
C960 N940 1.433 . S
C960 C961 1.363 . S
C960 C965 1.370 1_565 S
C961 H929 0.929 . S
C961 C960 1.363 . S
C961 C962 1.385 . S
C962 H930 0.930 . S
C962 C961 1.385 . S
C962 C963 1.357 1_565 S
C963 C962 1.357 1_545 S
C963 C964 1.406 . S
C964 H931 0.929 . S
C964 C963 1.406 . S
C964 C965 1.391 . S
C965 H932 0.931 . S
C965 C960 1.370 1_545 S
C965 C964 1.391 . S
C966 N940 1.435 . S
C966 C967 1.358 1_565 S
C966 C971 1.371 . S
C967 H933 0.930 . S
C967 C966 1.358 1_545 S
C967 C968 1.405 . S
C968 H934 0.932 . S
C968 C967 1.405 . S
C968 C969 1.383 1_545 S
C969 C968 1.383 1_565 S
C969 C970 1.393 . S
C970 H935 0.931 . S
C970 C969 1.393 . S
C970 C971 1.382 . S
C971 H936 0.929 . S
C971 C966 1.371 . S
C971 C970 1.382 . S
C972 N940 1.423 . S
C972 C973 1.362 . S
C972 C977 1.388 . S
C973 H937 0.929 . S
C973 C972 1.362 . S
C973 C974 1.376 . S
C974 H938 0.931 . S
C974 C973 1.376 . S
C974 C975 1.396 . S
C975 C957 1.472 . S
C975 C974 1.396 . S
C975 C976 1.348 . S
C976 H939 0.939 . S
C976 C975 1.348 . S
C976 C977 1.443 . S
C977 H941 0.932 1_565 S
C977 C972 1.388 . S
C977 C976 1.443 . S
H978 C1005 0.929 . S
N979 C1004 1.433 . S
N979 C1010 1.435 . S
N979 C1016 1.423 . S
H980 C1006 0.930 . S
H981 C1009 0.931 . S
H982 C1008 0.929 . S
H983 C1011 0.930 . S
H984 C1012 0.932 . S
H985 C1015 0.929 . S
H986 C1014 0.931 . S
H987 C1017 0.911 1_565 S
H988 C1021 0.932 . S
H989 C1018 0.931 1_565 S
H990 C1020 0.929 . S
H991 C1023 0.929 . S
H992 C1024 0.930 . S
H993 C1026 0.929 . S
H994 C1027 0.931 . S
H995 C1029 0.930 . S
H996 C1030 0.932 . S
H997 C1032 0.931 . S
H998 C1033 0.929 . S
H999 C1035 0.866 1_565 S
H1000 C1036 0.931 1_565 S
H1001 C1038 0.929 . S
N1002 C1022 1.433 . S
N1002 C1028 1.435 . S
N1002 C1034 1.423 . S
H1003 C1039 0.932 . S
C1004 N979 1.433 . S
C1004 C1005 1.363 . S
C1004 C1009 1.370 . S
C1005 H978 0.929 . S
C1005 C1004 1.363 . S
C1005 C1006 1.385 . S
C1006 H980 0.930 . S
C1006 C1005 1.385 . S
C1006 C1007 1.357 . S
C1007 C1006 1.357 . S
C1007 C1008 1.406 . S
C1008 H982 0.929 . S
C1008 C1007 1.406 . S
C1008 C1009 1.391 . S
C1009 H981 0.931 . S
C1009 C1004 1.370 . S
C1009 C1008 1.391 . S
C1010 N979 1.435 . S
C1010 C1011 1.358 . S
C1010 C1015 1.371 . S
C1011 H983 0.930 . S
C1011 C1010 1.358 . S
C1011 C1012 1.405 . S
C1012 H984 0.932 . S
C1012 C1011 1.405 . S
C1012 C1013 1.383 . S
C1013 C1012 1.383 . S
C1013 C1014 1.393 . S
C1014 H986 0.931 . S
C1014 C1013 1.393 . S
C1014 C1015 1.382 . S
C1015 H985 0.929 . S
C1015 C1010 1.371 . S
C1015 C1014 1.382 . S
C1016 N979 1.423 . S
C1016 C1017 1.362 . S
C1016 C1021 1.388 . S
C1017 H987 0.911 1_545 S
C1017 C1016 1.362 . S
C1017 C1018 1.376 . S
C1018 H989 0.931 1_545 S
C1018 C1017 1.376 . S
C1018 C1019 1.396 . S
C1019 C1018 1.396 . S
C1019 C1020 1.348 . S
C1019 C1037 1.472 . S
C1020 H990 0.929 . S
C1020 C1019 1.348 . S
C1020 C1021 1.443 . S
C1021 H988 0.932 . S
C1021 C1016 1.388 . S
C1021 C1020 1.443 . S
C1022 N1002 1.433 . S
C1022 C1023 1.363 . S
C1022 C1027 1.370 . S
C1023 H991 0.929 . S
C1023 C1022 1.363 . S
C1023 C1024 1.385 . S
C1024 H992 0.930 . S
C1024 C1023 1.385 . S
C1024 C1025 1.357 . S
C1025 C1024 1.357 . S
C1025 C1026 1.406 . S
C1026 H993 0.929 . S
C1026 C1025 1.406 . S
C1026 C1027 1.391 . S
C1027 H994 0.931 . S
C1027 C1022 1.370 . S
C1027 C1026 1.391 . S
C1028 N1002 1.435 . S
C1028 C1029 1.358 . S
C1028 C1033 1.371 . S
C1029 H995 0.930 . S
C1029 C1028 1.358 . S
C1029 C1030 1.405 . S
C1030 H996 0.932 . S
C1030 C1029 1.405 . S
C1030 C1031 1.383 . S
C1031 C1030 1.383 . S
C1031 C1032 1.393 . S
C1032 H997 0.931 . S
C1032 C1031 1.393 . S
C1032 C1033 1.382 . S
C1033 H998 0.929 . S
C1033 C1028 1.371 . S
C1033 C1032 1.382 . S
C1034 N1002 1.423 . S
C1034 C1035 1.362 . S
C1034 C1039 1.388 . S
C1035 H999 0.866 1_545 S
C1035 C1034 1.362 . S
C1035 C1036 1.376 . S
C1036 H1000 0.931 1_545 S
C1036 C1035 1.376 . S
C1036 C1037 1.396 . S
C1037 C1019 1.472 . S
C1037 C1036 1.396 . S
C1037 C1038 1.348 . S
C1038 H1001 0.929 . S
C1038 C1037 1.348 . S
C1038 C1039 1.443 . S
C1039 H1003 0.932 . S
C1039 C1034 1.388 . S
C1039 C1038 1.443 . S
H1040 C1067 0.929 . S
N1041 C1066 1.433 . S
N1041 C1072 1.435 . S
N1041 C1078 1.423 . S
H1042 C1068 0.930 . S
H1043 C1071 0.931 . S
H1044 C1070 0.929 . S
H1045 C1073 0.930 . S
H1046 C1074 0.932 . S
H1047 C1077 0.929 . S
H1048 C1076 0.931 . S
H1049 C1079 0.929 . S
H1050 C1083 0.932 1_455 S
H1051 C1080 0.931 . S
H1052 C1082 0.975 . S
H1053 C1085 0.929 . S
H1054 C1086 0.930 . S
H1055 C1088 0.929 . S
H1056 C1089 0.931 . S
H1057 C1091 0.930 . S
H1058 C1092 0.932 . S
H1059 C1094 0.931 . S
H1060 C1095 0.929 . S
H1061 C1097 0.929 . S
H1062 C1098 0.931 . S
H1063 C1100 0.939 . S
N1064 C1084 1.433 . S
N1064 C1090 1.435 . S
N1064 C1096 1.423 . S
H1065 C1101 0.932 1_455 S
C1066 N1041 1.433 . S
C1066 C1067 1.363 . S
C1066 C1071 1.370 1_655 S
C1067 H1040 0.929 . S
C1067 C1066 1.363 . S
C1067 C1068 1.385 . S
C1068 H1042 0.930 . S
C1068 C1067 1.385 . S
C1068 C1069 1.357 1_655 S
C1069 C1068 1.357 1_455 S
C1069 C1070 1.406 . S
C1070 H1044 0.929 . S
C1070 C1069 1.406 . S
C1070 C1071 1.391 . S
C1071 H1043 0.931 . S
C1071 C1066 1.370 1_455 S
C1071 C1070 1.391 . S
C1072 N1041 1.435 . S
C1072 C1073 1.358 1_655 S
C1072 C1077 1.371 . S
C1073 H1045 0.930 . S
C1073 C1072 1.358 1_455 S
C1073 C1074 1.405 . S
C1074 H1046 0.932 . S
C1074 C1073 1.405 . S
C1074 C1075 1.383 1_455 S
C1075 C1074 1.383 1_655 S
C1075 C1076 1.393 . S
C1076 H1048 0.931 . S
C1076 C1075 1.393 . S
C1076 C1077 1.382 . S
C1077 H1047 0.929 . S
C1077 C1072 1.371 . S
C1077 C1076 1.382 . S
C1078 N1041 1.423 . S
C1078 C1079 1.362 . S
C1078 C1083 1.388 . S
C1079 H1049 0.929 . S
C1079 C1078 1.362 . S
C1079 C1080 1.376 . S
C1080 H1051 0.931 . S
C1080 C1079 1.376 . S
C1080 C1081 1.396 . S
C1081 C1080 1.396 . S
C1081 C1082 1.348 . S
C1081 C1099 1.472 . S
C1082 H1052 0.975 . S
C1082 C1081 1.348 . S
C1082 C1083 1.443 . S
C1083 H1050 0.932 1_655 S
C1083 C1078 1.388 . S
C1083 C1082 1.443 . S
C1084 N1064 1.433 . S
C1084 C1085 1.363 . S
C1084 C1089 1.370 1_655 S
C1085 H1053 0.929 . S
C1085 C1084 1.363 . S
C1085 C1086 1.385 . S
C1086 H1054 0.930 . S
C1086 C1085 1.385 . S
C1086 C1087 1.357 1_655 S
C1087 C1086 1.357 1_455 S
C1087 C1088 1.406 . S
C1088 H1055 0.929 . S
C1088 C1087 1.406 . S
C1088 C1089 1.391 . S
C1089 H1056 0.931 . S
C1089 C1084 1.370 1_455 S
C1089 C1088 1.391 . S
C1090 N1064 1.435 . S
C1090 C1091 1.358 1_655 S
C1090 C1095 1.371 . S
C1091 H1057 0.930 . S
C1091 C1090 1.358 1_455 S
C1091 C1092 1.405 . S
C1092 H1058 0.932 . S
C1092 C1091 1.405 . S
C1092 C1093 1.383 1_455 S
C1093 C1092 1.383 1_655 S
C1093 C1094 1.393 . S
C1094 H1059 0.931 . S
C1094 C1093 1.393 . S
C1094 C1095 1.382 . S
C1095 H1060 0.929 . S
C1095 C1090 1.371 . S
C1095 C1094 1.382 . S
C1096 N1064 1.423 . S
C1096 C1097 1.362 . S
C1096 C1101 1.388 . S
C1097 H1061 0.929 . S
C1097 C1096 1.362 . S
C1097 C1098 1.376 . S
C1098 H1062 0.931 . S
C1098 C1097 1.376 . S
C1098 C1099 1.396 . S
C1099 C1081 1.472 . S
C1099 C1098 1.396 . S
C1099 C1100 1.348 . S
C1100 H1063 0.939 . S
C1100 C1099 1.348 . S
C1100 C1101 1.443 . S
C1101 H1065 0.932 1_655 S
C1101 C1096 1.388 . S
C1101 C1100 1.443 . S
H1102 C1129 0.929 . S
N1103 C1128 1.433 . S
N1103 C1134 1.435 . S
N1103 C1140 1.423 . S
H1104 C1130 0.930 . S
H1105 C1133 0.931 . S
H1106 C1132 0.929 . S
H1107 C1135 0.930 . S
H1108 C1136 0.932 . S
H1109 C1139 0.929 . S
H1110 C1138 0.931 . S
H1111 C1141 0.929 . S
H1112 C1145 0.932 . S
H1113 C1142 0.931 . S
H1114 C1144 0.929 . S
H1115 C1147 0.929 . S
H1116 C1148 0.930 . S
H1117 C1150 0.929 . S
H1118 C1151 0.931 . S
H1119 C1153 0.930 . S
H1120 C1154 0.932 . S
H1121 C1156 0.931 . S
H1122 C1157 0.929 . S
H1123 C1159 0.929 . S
H1124 C1160 0.931 . S
H1125 C1162 0.929 . S
N1126 C1146 1.433 . S
N1126 C1152 1.435 . S
N1126 C1158 1.423 . S
H1127 C1163 0.932 . S
C1128 N1103 1.433 . S
C1128 C1129 1.363 . S
C1128 C1133 1.370 . S
C1129 H1102 0.929 . S
C1129 C1128 1.363 . S
C1129 C1130 1.385 . S
C1130 H1104 0.930 . S
C1130 C1129 1.385 . S
C1130 C1131 1.357 . S
C1131 C1130 1.357 . S
C1131 C1132 1.406 . S
C1132 H1106 0.929 . S
C1132 C1131 1.406 . S
C1132 C1133 1.391 . S
C1133 H1105 0.931 . S
C1133 C1128 1.370 . S
C1133 C1132 1.391 . S
C1134 N1103 1.435 . S
C1134 C1135 1.358 . S
C1134 C1139 1.371 . S
C1135 H1107 0.930 . S
C1135 C1134 1.358 . S
C1135 C1136 1.405 . S
C1136 H1108 0.932 . S
C1136 C1135 1.405 . S
C1136 C1137 1.383 . S
C1137 C1136 1.383 . S
C1137 C1138 1.393 . S
C1138 H1110 0.931 . S
C1138 C1137 1.393 . S
C1138 C1139 1.382 . S
C1139 H1109 0.929 . S
C1139 C1134 1.371 . S
C1139 C1138 1.382 . S
C1140 N1103 1.423 . S
C1140 C1141 1.362 . S
C1140 C1145 1.388 . S
C1141 H1111 0.929 . S
C1141 C1140 1.362 . S
C1141 C1142 1.376 . S
C1142 H1113 0.931 . S
C1142 C1141 1.376 . S
C1142 C1143 1.396 . S
C1143 C1142 1.396 . S
C1143 C1144 1.348 . S
C1143 C1161 1.472 . S
C1144 H1114 0.929 . S
C1144 C1143 1.348 . S
C1144 C1145 1.443 . S
C1145 H1112 0.932 . S
C1145 C1140 1.388 . S
C1145 C1144 1.443 . S
C1146 N1126 1.433 . S
C1146 C1147 1.363 . S
C1146 C1151 1.370 . S
C1147 H1115 0.929 . S
C1147 C1146 1.363 . S
C1147 C1148 1.385 . S
C1148 H1116 0.930 . S
C1148 C1147 1.385 . S
C1148 C1149 1.357 . S
C1149 C1148 1.357 . S
C1149 C1150 1.406 . S
C1150 H1117 0.929 . S
C1150 C1149 1.406 . S
C1150 C1151 1.391 . S
C1151 H1118 0.931 . S
C1151 C1146 1.370 . S
C1151 C1150 1.391 . S
C1152 N1126 1.435 . S
C1152 C1153 1.358 . S
C1152 C1157 1.371 . S
C1153 H1119 0.930 . S
C1153 C1152 1.358 . S
C1153 C1154 1.405 . S
C1154 H1120 0.932 . S
C1154 C1153 1.405 . S
C1154 C1155 1.383 . S
C1155 C1154 1.383 . S
C1155 C1156 1.393 . S
C1156 H1121 0.931 . S
C1156 C1155 1.393 . S
C1156 C1157 1.382 . S
C1157 H1122 0.929 . S
C1157 C1152 1.371 . S
C1157 C1156 1.382 . S
C1158 N1126 1.423 . S
C1158 C1159 1.362 . S
C1158 C1163 1.388 . S
C1159 H1123 0.929 . S
C1159 C1158 1.362 . S
C1159 C1160 1.376 . S
C1160 H1124 0.931 . S
C1160 C1159 1.376 . S
C1160 C1161 1.396 . S
C1161 C1143 1.472 . S
C1161 C1160 1.396 . S
C1161 C1162 1.348 . S
C1162 H1125 0.929 . S
C1162 C1161 1.348 . S
C1162 C1163 1.443 . S
C1163 H1127 0.932 . S
C1163 C1158 1.388 . S
C1163 C1162 1.443 . S
H1164 C1191 0.929 . S
N1165 C1190 1.433 . S
N1165 C1196 1.435 . S
N1165 C1202 1.423 . S
H1166 C1192 0.930 . S
H1167 C1195 0.931 . S
H1168 C1194 0.929 . S
H1169 C1197 0.930 . S
H1170 C1198 0.932 . S
H1171 C1201 0.929 . S
H1172 C1200 0.931 . S
H1173 C1203 0.929 . S
H1174 C1207 0.932 . S
H1175 C1204 0.931 . S
H1176 C1206 0.929 . S
H1177 C1209 0.929 . S
H1178 C1210 0.930 . S
H1179 C1212 0.929 . S
H1180 C1213 0.931 . S
H1181 C1215 0.930 . S
H1182 C1216 0.932 . S
H1183 C1218 0.931 . S
H1184 C1219 0.929 . S
H1185 C1221 0.929 . S
H1186 C1222 0.931 . S
H1187 C1224 0.929 . S
N1188 C1208 1.433 . S
N1188 C1214 1.435 . S
N1188 C1220 1.423 . S
H1189 C1225 0.932 . S
C1190 N1165 1.433 . S
C1190 C1191 1.363 . S
C1190 C1195 1.370 . S
C1191 H1164 0.929 . S
C1191 C1190 1.363 . S
C1191 C1192 1.385 . S
C1192 H1166 0.930 . S
C1192 C1191 1.385 . S
C1192 C1193 1.357 . S
C1193 C1192 1.357 . S
C1193 C1194 1.406 . S
C1194 H1168 0.929 . S
C1194 C1193 1.406 . S
C1194 C1195 1.391 . S
C1195 H1167 0.931 . S
C1195 C1190 1.370 . S
C1195 C1194 1.391 . S
C1196 N1165 1.435 . S
C1196 C1197 1.358 . S
C1196 C1201 1.371 . S
C1197 H1169 0.930 . S
C1197 C1196 1.358 . S
C1197 C1198 1.405 . S
C1198 H1170 0.932 . S
C1198 C1197 1.405 . S
C1198 C1199 1.383 . S
C1199 C1198 1.383 . S
C1199 C1200 1.393 . S
C1200 H1172 0.931 . S
C1200 C1199 1.393 . S
C1200 C1201 1.382 . S
C1201 H1171 0.929 . S
C1201 C1196 1.371 . S
C1201 C1200 1.382 . S
C1202 N1165 1.423 . S
C1202 C1203 1.362 . S
C1202 C1207 1.388 . S
C1203 H1173 0.929 . S
C1203 C1202 1.362 . S
C1203 C1204 1.376 . S
C1204 H1175 0.931 . S
C1204 C1203 1.376 . S
C1204 C1205 1.396 . S
C1205 C1204 1.396 . S
C1205 C1206 1.348 . S
C1205 C1223 1.472 . S
C1206 H1176 0.929 . S
C1206 C1205 1.348 . S
C1206 C1207 1.443 . S
C1207 H1174 0.932 . S
C1207 C1202 1.388 . S
C1207 C1206 1.443 . S
C1208 N1188 1.433 . S
C1208 C1209 1.363 . S
C1208 C1213 1.370 . S
C1209 H1177 0.929 . S
C1209 C1208 1.363 . S
C1209 C1210 1.385 . S
C1210 H1178 0.930 . S
C1210 C1209 1.385 . S
C1210 C1211 1.357 . S
C1211 C1210 1.357 . S
C1211 C1212 1.406 . S
C1212 H1179 0.929 . S
C1212 C1211 1.406 . S
C1212 C1213 1.391 . S
C1213 H1180 0.931 . S
C1213 C1208 1.370 . S
C1213 C1212 1.391 . S
C1214 N1188 1.435 . S
C1214 C1215 1.358 . S
C1214 C1219 1.371 . S
C1215 H1181 0.930 . S
C1215 C1214 1.358 . S
C1215 C1216 1.405 . S
C1216 H1182 0.932 . S
C1216 C1215 1.405 . S
C1216 C1217 1.383 . S
C1217 C1216 1.383 . S
C1217 C1218 1.393 . S
C1218 H1183 0.931 . S
C1218 C1217 1.393 . S
C1218 C1219 1.382 . S
C1219 H1184 0.929 . S
C1219 C1214 1.371 . S
C1219 C1218 1.382 . S
C1220 N1188 1.423 . S
C1220 C1221 1.362 . S
C1220 C1225 1.388 . S
C1221 H1185 0.929 . S
C1221 C1220 1.362 . S
C1221 C1222 1.376 . S
C1222 H1186 0.931 . S
C1222 C1221 1.376 . S
C1222 C1223 1.396 . S
C1223 C1205 1.472 . S
C1223 C1222 1.396 . S
C1223 C1224 1.348 . S
C1224 H1187 0.929 . S
C1224 C1223 1.348 . S
C1224 C1225 1.443 . S
C1225 H1189 0.932 . S
C1225 C1220 1.388 . S
C1225 C1224 1.443 . S
H1226 C1253 0.929 . S
N1227 C1252 1.433 . S
N1227 C1258 1.435 . S
N1227 C1264 1.423 . S
H1228 C1254 0.930 . S
H1229 C1257 0.931 . S
H1230 C1256 0.929 . S
H1231 C1259 0.930 . S
H1232 C1260 0.932 . S
H1233 C1263 0.929 . S
H1234 C1262 0.931 . S
H1235 C1265 0.929 . S
H1236 C1269 0.932 . S
H1237 C1266 0.931 . S
H1238 C1268 0.929 . S
H1239 C1271 0.929 . S
H1240 C1272 0.930 . S
H1241 C1274 0.929 . S
H1242 C1275 0.931 . S
H1243 C1277 0.930 . S
H1244 C1278 0.932 . S
H1245 C1280 0.931 . S
H1246 C1281 0.929 . S
H1247 C1283 0.929 . S
H1248 C1284 0.931 . S
H1249 C1286 0.929 . S
N1250 C1270 1.433 . S
N1250 C1276 1.435 . S
N1250 C1282 1.423 . S
H1251 C1287 0.932 . S
C1252 N1227 1.433 . S
C1252 C1253 1.363 . S
C1252 C1257 1.370 . S
C1253 H1226 0.929 . S
C1253 C1252 1.363 . S
C1253 C1254 1.385 . S
C1254 H1228 0.930 . S
C1254 C1253 1.385 . S
C1254 C1255 1.357 . S
C1255 C1254 1.357 . S
C1255 C1256 1.406 . S
C1256 H1230 0.929 . S
C1256 C1255 1.406 . S
C1256 C1257 1.391 . S
C1257 H1229 0.931 . S
C1257 C1252 1.370 . S
C1257 C1256 1.391 . S
C1258 N1227 1.435 . S
C1258 C1259 1.358 . S
C1258 C1263 1.371 . S
C1259 H1231 0.930 . S
C1259 C1258 1.358 . S
C1259 C1260 1.405 . S
C1260 H1232 0.932 . S
C1260 C1259 1.405 . S
C1260 C1261 1.383 . S
C1261 C1260 1.383 . S
C1261 C1262 1.393 . S
C1262 H1234 0.931 . S
C1262 C1261 1.393 . S
C1262 C1263 1.382 . S
C1263 H1233 0.929 . S
C1263 C1258 1.371 . S
C1263 C1262 1.382 . S
C1264 N1227 1.423 . S
C1264 C1265 1.362 . S
C1264 C1269 1.388 . S
C1265 H1235 0.929 . S
C1265 C1264 1.362 . S
C1265 C1266 1.376 . S
C1266 H1237 0.931 . S
C1266 C1265 1.376 . S
C1266 C1267 1.396 . S
C1267 C1266 1.396 . S
C1267 C1268 1.348 . S
C1267 C1285 1.472 . S
C1268 H1238 0.929 . S
C1268 C1267 1.348 . S
C1268 C1269 1.443 . S
C1269 H1236 0.932 . S
C1269 C1264 1.388 . S
C1269 C1268 1.443 . S
C1270 N1250 1.433 . S
C1270 C1271 1.363 . S
C1270 C1275 1.370 . S
C1271 H1239 0.929 . S
C1271 C1270 1.363 . S
C1271 C1272 1.385 . S
C1272 H1240 0.930 . S
C1272 C1271 1.385 . S
C1272 C1273 1.357 . S
C1273 C1272 1.357 . S
C1273 C1274 1.406 . S
C1274 H1241 0.929 . S
C1274 C1273 1.406 . S
C1274 C1275 1.391 . S
C1275 H1242 0.931 . S
C1275 C1270 1.370 . S
C1275 C1274 1.391 . S
C1276 N1250 1.435 . S
C1276 C1277 1.358 . S
C1276 C1281 1.371 . S
C1277 H1243 0.930 . S
C1277 C1276 1.358 . S
C1277 C1278 1.405 . S
C1278 H1244 0.932 . S
C1278 C1277 1.405 . S
C1278 C1279 1.383 . S
C1279 C1278 1.383 . S
C1279 C1280 1.393 . S
C1280 H1245 0.931 . S
C1280 C1279 1.393 . S
C1280 C1281 1.382 . S
C1281 H1246 0.929 . S
C1281 C1276 1.371 . S
C1281 C1280 1.382 . S
C1282 N1250 1.423 . S
C1282 C1283 1.362 . S
C1282 C1287 1.388 . S
C1283 H1247 0.929 . S
C1283 C1282 1.362 . S
C1283 C1284 1.376 . S
C1284 H1248 0.931 . S
C1284 C1283 1.376 . S
C1284 C1285 1.396 . S
C1285 C1267 1.472 . S
C1285 C1284 1.396 . S
C1285 C1286 1.348 . S
C1286 H1249 0.929 . S
C1286 C1285 1.348 . S
C1286 C1287 1.443 . S
C1287 H1251 0.932 . S
C1287 C1282 1.388 . S
C1287 C1286 1.443 . S
H1288 C1315 0.929 . S
N1289 C1314 1.433 . S
N1289 C1320 1.435 . S
N1289 C1326 1.423 . S
H1290 C1316 0.930 . S
H1291 C1319 0.931 . S
H1292 C1318 0.929 . S
H1293 C1321 0.930 . S
H1294 C1322 0.932 . S
H1295 C1325 0.929 . S
H1296 C1324 0.931 . S
H1297 C1327 0.929 . S
H1298 C1331 0.932 . S
H1299 C1328 0.931 . S
H1300 C1330 0.929 . S
H1301 C1333 0.929 . S
H1302 C1334 0.930 . S
H1303 C1336 0.929 . S
H1304 C1337 0.931 . S
H1305 C1339 0.930 . S
H1306 C1340 0.932 . S
H1307 C1342 0.931 . S
H1308 C1343 0.929 . S
H1309 C1345 0.929 . S
H1310 C1346 0.931 . S
H1311 C1348 0.929 . S
N1312 C1332 1.433 . S
N1312 C1338 1.435 . S
N1312 C1344 1.423 . S
H1313 C1349 0.932 . S
C1314 N1289 1.433 . S
C1314 C1315 1.363 . S
C1314 C1319 1.370 . S
C1315 H1288 0.929 . S
C1315 C1314 1.363 . S
C1315 C1316 1.385 . S
C1316 H1290 0.930 . S
C1316 C1315 1.385 . S
C1316 C1317 1.357 . S
C1317 C1316 1.357 . S
C1317 C1318 1.406 . S
C1318 H1292 0.929 . S
C1318 C1317 1.406 . S
C1318 C1319 1.391 . S
C1319 H1291 0.931 . S
C1319 C1314 1.370 . S
C1319 C1318 1.391 . S
C1320 N1289 1.435 . S
C1320 C1321 1.358 . S
C1320 C1325 1.371 . S
C1321 H1293 0.930 . S
C1321 C1320 1.358 . S
C1321 C1322 1.405 . S
C1322 H1294 0.932 . S
C1322 C1321 1.405 . S
C1322 C1323 1.383 . S
C1323 C1322 1.383 . S
C1323 C1324 1.393 . S
C1324 H1296 0.931 . S
C1324 C1323 1.393 . S
C1324 C1325 1.382 . S
C1325 H1295 0.929 . S
C1325 C1320 1.371 . S
C1325 C1324 1.382 . S
C1326 N1289 1.423 . S
C1326 C1327 1.362 . S
C1326 C1331 1.388 . S
C1327 H1297 0.929 . S
C1327 C1326 1.362 . S
C1327 C1328 1.376 . S
C1328 H1299 0.931 . S
C1328 C1327 1.376 . S
C1328 C1329 1.396 . S
C1329 C1328 1.396 . S
C1329 C1330 1.348 . S
C1329 C1347 1.472 . S
C1330 H1300 0.929 . S
C1330 C1329 1.348 . S
C1330 C1331 1.443 . S
C1331 H1298 0.932 . S
C1331 C1326 1.388 . S
C1331 C1330 1.443 . S
C1332 N1312 1.433 . S
C1332 C1333 1.363 . S
C1332 C1337 1.370 . S
C1333 H1301 0.929 . S
C1333 C1332 1.363 . S
C1333 C1334 1.385 . S
C1334 H1302 0.930 . S
C1334 C1333 1.385 . S
C1334 C1335 1.357 . S
C1335 C1334 1.357 . S
C1335 C1336 1.406 . S
C1336 H1303 0.929 . S
C1336 C1335 1.406 . S
C1336 C1337 1.391 . S
C1337 H1304 0.931 . S
C1337 C1332 1.370 . S
C1337 C1336 1.391 . S
C1338 N1312 1.435 . S
C1338 C1339 1.358 . S
C1338 C1343 1.371 . S
C1339 H1305 0.930 . S
C1339 C1338 1.358 . S
C1339 C1340 1.405 . S
C1340 H1306 0.932 . S
C1340 C1339 1.405 . S
C1340 C1341 1.383 . S
C1341 C1340 1.383 . S
C1341 C1342 1.393 . S
C1342 H1307 0.931 . S
C1342 C1341 1.393 . S
C1342 C1343 1.382 . S
C1343 H1308 0.929 . S
C1343 C1338 1.371 . S
C1343 C1342 1.382 . S
C1344 N1312 1.423 . S
C1344 C1345 1.362 . S
C1344 C1349 1.388 . S
C1345 H1309 0.929 . S
C1345 C1344 1.362 . S
C1345 C1346 1.376 . S
C1346 H1310 0.931 . S
C1346 C1345 1.376 . S
C1346 C1347 1.396 . S
C1347 C1329 1.472 . S
C1347 C1346 1.396 . S
C1347 C1348 1.348 . S
C1348 H1311 0.929 . S
C1348 C1347 1.348 . S
C1348 C1349 1.443 . S
C1349 H1313 0.932 . S
C1349 C1344 1.388 . S
C1349 C1348 1.443 . S
H1350 C1368 0.951 1_655 S
H1351 C1370 0.951 1_655 S
H1352 C1372 0.950 . S
H1353 C1373 0.950 . S
H1354 C1375 0.950 . S
H1355 C1378 0.950 1_455 S
H1356 C1379 0.950 . S
H1357 C1381 0.950 . S
H1358 C1382 0.950 . S
H1359 C1383 0.951 . S
H1360 C1385 0.951 . S
H1361 C1387 0.950 1_655 S
H1362 C1388 0.950 1_655 S
H1363 C1390 0.950 1_655 S
H1364 C1393 0.950 . S
H1365 C1394 0.950 . S
H1366 C1396 0.950 . S
H1367 C1397 0.950 . S
C1368 H1350 0.951 1_455 S
C1368 C1369 1.366 . S
C1368 C1370 1.388 . S
C1369 C1368 1.366 . S
C1369 C1373 1.385 . S
C1370 H1351 0.951 1_455 S
C1370 C1368 1.388 . S
C1370 C1371 1.366 . S
C1371 C1370 1.366 . S
C1371 C1372 1.414 . S
C1371 C1374 1.499 . S
C1372 H1352 0.950 . S
C1372 C1371 1.414 . S
C1372 C1373 1.374 . S
C1373 H1353 0.950 . S
C1373 C1369 1.385 . S
C1373 C1372 1.374 . S
C1374 C1371 1.499 . S
C1374 C1375 1.373 . S
C1374 C1376 1.389 . S
C1375 H1354 0.950 . S
C1375 C1374 1.373 . S
C1375 C1391 1.377 . S
C1376 C1374 1.389 . S
C1376 C1377 1.524 1_455 S
C1376 C1390 1.377 . S
C1377 C1376 1.524 1_655 S
C1377 C1378 1.397 . S
C1377 C1382 1.363 . S
C1378 H1355 0.950 1_655 S
C1378 C1377 1.397 . S
C1378 C1379 1.334 . S
C1379 H1356 0.950 . S
C1379 C1378 1.334 . S
C1379 C1380 1.287 . S
C1380 C1379 1.287 . S
C1380 C1381 1.524 . S
C1380 H1399 0.913 . S
C1381 H1357 0.950 . S
C1381 C1380 1.524 . S
C1381 C1382 1.415 . S
C1382 H1358 0.950 . S
C1382 C1377 1.363 . S
C1382 C1381 1.415 . S
C1383 H1359 0.951 . S
C1383 C1384 1.366 . S
C1383 C1385 1.388 . S
C1384 C1383 1.366 . S
C1384 C1388 1.385 . S
C1385 H1360 0.951 . S
C1385 C1383 1.388 . S
C1385 C1386 1.366 . S
C1386 C1385 1.366 . S
C1386 C1387 1.414 . S
C1386 C1389 1.499 . S
C1387 H1361 0.950 1_455 S
C1387 C1386 1.414 . S
C1387 C1388 1.374 . S
C1388 H1362 0.950 1_455 S
C1388 C1384 1.385 . S
C1388 C1387 1.374 . S
C1389 C1386 1.499 . S
C1389 C1390 1.373 . S
C1389 C1391 1.389 . S
C1390 H1363 0.950 1_455 S
C1390 C1376 1.377 . S
C1390 C1389 1.373 . S
C1391 C1375 1.377 . S
C1391 C1389 1.389 . S
C1391 C1392 1.524 . S
C1392 C1391 1.524 . S
C1392 C1393 1.397 . S
C1392 C1397 1.363 . S
C1393 H1364 0.950 . S
C1393 C1392 1.397 . S
C1393 C1394 1.334 . S
C1394 H1365 0.950 . S
C1394 C1393 1.334 . S
C1394 C1395 1.287 . S
C1395 C1394 1.287 . S
C1395 C1396 1.524 . S
C1395 H1398 0.999 . S
C1396 H1366 0.950 . S
C1396 C1395 1.524 . S
C1396 C1397 1.415 . S
C1397 H1367 0.950 . S
C1397 C1392 1.363 . S
C1397 C1396 1.415 . S
H1398 C1395 0.999 . S
H1399 C1380 0.913 . S
H1400 C1418 0.951 . S
H1401 C1420 0.951 . S
H1402 C1422 0.950 . S
H1403 C1423 0.950 . S
H1404 C1425 0.950 . S
H1405 C1428 0.950 . S
H1406 C1429 0.950 . S
H1407 C1431 0.950 . S
H1408 C1432 0.950 . S
H1409 C1433 0.951 . S
H1410 C1435 0.951 . S
H1411 C1437 0.950 . S
H1412 C1438 0.950 . S
H1413 C1440 0.950 . S
H1414 C1443 0.950 . S
H1415 C1444 0.950 . S
H1416 C1446 0.950 . S
H1417 C1447 0.950 . S
C1418 H1400 0.951 . S
C1418 C1419 1.366 . S
C1418 C1420 1.388 . S
C1419 C1418 1.366 . S
C1419 C1423 1.385 . S
C1420 H1401 0.951 . S
C1420 C1418 1.388 . S
C1420 C1421 1.366 . S
C1421 C1420 1.366 . S
C1421 C1422 1.414 . S
C1421 C1424 1.499 . S
C1422 H1402 0.950 . S
C1422 C1421 1.414 . S
C1422 C1423 1.374 . S
C1423 H1403 0.950 . S
C1423 C1419 1.385 . S
C1423 C1422 1.374 . S
C1424 C1421 1.499 . S
C1424 C1425 1.373 . S
C1424 C1426 1.389 . S
C1425 H1404 0.950 . S
C1425 C1424 1.373 . S
C1425 C1441 1.377 . S
C1426 C1424 1.389 . S
C1426 C1427 1.524 . S
C1426 C1440 1.377 . S
C1427 C1426 1.524 . S
C1427 C1428 1.397 . S
C1427 C1432 1.363 . S
C1428 H1405 0.950 . S
C1428 C1427 1.397 . S
C1428 C1429 1.334 . S
C1429 H1406 0.950 . S
C1429 C1428 1.334 . S
C1429 C1430 1.287 . S
C1430 C1429 1.287 . S
C1430 C1431 1.524 . S
C1430 H1449 0.913 . S
C1431 H1407 0.950 . S
C1431 C1430 1.524 . S
C1431 C1432 1.415 . S
C1432 H1408 0.950 . S
C1432 C1427 1.363 . S
C1432 C1431 1.415 . S
C1433 H1409 0.951 . S
C1433 C1434 1.366 . S
C1433 C1435 1.388 . S
C1434 C1433 1.366 . S
C1434 C1438 1.385 . S
C1435 H1410 0.951 . S
C1435 C1433 1.388 . S
C1435 C1436 1.366 . S
C1436 C1435 1.366 . S
C1436 C1437 1.414 . S
C1436 C1439 1.499 . S
C1437 H1411 0.950 . S
C1437 C1436 1.414 . S
C1437 C1438 1.374 . S
C1438 H1412 0.950 . S
C1438 C1434 1.385 . S
C1438 C1437 1.374 . S
C1439 C1436 1.499 . S
C1439 C1440 1.373 . S
C1439 C1441 1.389 . S
C1440 H1413 0.950 . S
C1440 C1426 1.377 . S
C1440 C1439 1.373 . S
C1441 C1425 1.377 . S
C1441 C1439 1.389 . S
C1441 C1442 1.524 . S
C1442 C1441 1.524 . S
C1442 C1443 1.397 . S
C1442 C1447 1.363 . S
C1443 H1414 0.950 . S
C1443 C1442 1.397 . S
C1443 C1444 1.334 . S
C1444 H1415 0.950 . S
C1444 C1443 1.334 . S
C1444 C1445 1.287 . S
C1445 C1444 1.287 . S
C1445 C1446 1.524 . S
C1445 H1448 0.999 . S
C1446 H1416 0.950 . S
C1446 C1445 1.524 . S
C1446 C1447 1.415 . S
C1447 H1417 0.950 . S
C1447 C1442 1.363 . S
C1447 C1446 1.415 . S
H1448 C1445 0.999 . S
H1449 C1430 0.913 . S
H1450 C1468 0.966 . S
H1451 C1470 0.902 1_565 S
H1452 C1472 0.950 . S
H1453 C1473 0.950 . S
H1454 C1475 0.950 . S
H1455 C1478 0.950 . S
H1456 C1479 0.950 . S
H1457 C1481 0.950 . S
H1458 C1482 0.950 . S
H1459 C1483 0.951 . S
H1460 C1485 0.951 . S
H1461 C1487 0.910 1_565 S
H1462 C1488 0.910 1_565 S
H1463 C1490 0.950 . S
H1464 C1493 0.950 . S
H1465 C1494 0.950 . S
H1466 C1496 0.950 . S
H1467 C1497 0.950 . S
C1468 H1450 0.966 . S
C1468 C1469 1.366 . S
C1468 C1470 1.388 . S
C1469 C1468 1.366 . S
C1469 C1473 1.385 . S
C1470 H1451 0.902 1_545 S
C1470 C1468 1.388 . S
C1470 C1471 1.366 . S
C1471 C1470 1.366 . S
C1471 C1472 1.414 . S
C1471 C1474 1.499 . S
C1472 H1452 0.950 . S
C1472 C1471 1.414 . S
C1472 C1473 1.374 . S
C1473 H1453 0.950 . S
C1473 C1469 1.385 . S
C1473 C1472 1.374 . S
C1474 C1471 1.499 . S
C1474 C1475 1.373 . S
C1474 C1476 1.389 1_545 S
C1475 H1454 0.950 . S
C1475 C1474 1.373 . S
C1475 C1491 1.377 . S
C1476 C1474 1.389 1_565 S
C1476 C1477 1.524 . S
C1476 C1490 1.377 . S
C1477 C1476 1.524 . S
C1477 C1478 1.397 . S
C1477 C1482 1.363 . S
C1478 H1455 0.950 . S
C1478 C1477 1.397 . S
C1478 C1479 1.334 . S
C1479 H1456 0.950 . S
C1479 C1478 1.334 . S
C1479 C1480 1.287 . S
C1480 C1479 1.287 . S
C1480 C1481 1.524 . S
C1480 H1499 0.913 . S
C1481 H1457 0.950 . S
C1481 C1480 1.524 . S
C1481 C1482 1.415 . S
C1482 H1458 0.950 . S
C1482 C1477 1.363 . S
C1482 C1481 1.415 . S
C1483 H1459 0.951 . S
C1483 C1484 1.366 . S
C1483 C1485 1.388 . S
C1484 C1483 1.366 . S
C1484 C1488 1.406 . S
C1485 H1460 0.951 . S
C1485 C1483 1.388 . S
C1485 C1486 1.366 . S
C1486 C1485 1.366 . S
C1486 C1487 1.503 . S
C1486 C1489 1.499 . S
C1487 H1461 0.910 1_545 S
C1487 C1486 1.503 . S
C1487 C1488 1.353 . S
C1488 H1462 0.910 1_545 S
C1488 C1484 1.406 . S
C1488 C1487 1.353 . S
C1489 C1486 1.499 . S
C1489 C1490 1.373 1_545 S
C1489 C1491 1.389 . S
C1490 H1463 0.950 . S
C1490 C1476 1.377 . S
C1490 C1489 1.373 1_565 S
C1491 C1475 1.377 . S
C1491 C1489 1.389 . S
C1491 C1492 1.524 . S
C1492 C1491 1.524 . S
C1492 C1493 1.397 . S
C1492 C1497 1.363 . S
C1493 H1464 0.950 . S
C1493 C1492 1.397 . S
C1493 C1494 1.334 . S
C1494 H1465 0.950 . S
C1494 C1493 1.334 . S
C1494 C1495 1.287 . S
C1495 C1494 1.287 . S
C1495 C1496 1.524 . S
C1495 H1498 0.999 . S
C1496 H1466 0.950 . S
C1496 C1495 1.524 . S
C1496 C1497 1.415 . S
C1497 H1467 0.950 . S
C1497 C1492 1.363 . S
C1497 C1496 1.415 . S
H1498 C1495 0.999 . S
H1499 C1480 0.913 . S
H1500 C1518 0.951 . S
H1501 C1520 0.951 . S
H1502 C1522 0.950 . S
H1503 C1523 0.950 . S
H1504 C1525 0.950 . S
H1505 C1528 0.950 . S
H1506 C1529 0.950 . S
H1507 C1531 0.950 . S
H1508 C1532 0.950 1_545 S
H1509 C1533 0.951 . S
H1510 C1535 0.951 . S
H1511 C1537 0.950 . S
H1512 C1538 0.950 . S
H1513 C1540 0.950 . S
H1514 C1543 0.950 . S
H1515 C1544 0.950 . S
H1516 C1546 0.950 . S
H1517 C1547 0.950 . S
C1518 H1500 0.951 . S
C1518 C1519 1.366 . S
C1518 C1520 1.388 . S
C1519 C1518 1.366 . S
C1519 C1523 1.385 . S
C1520 H1501 0.951 . S
C1520 C1518 1.388 . S
C1520 C1521 1.366 . S
C1521 C1520 1.366 . S
C1521 C1522 1.414 . S
C1521 C1524 1.499 . S
C1522 H1502 0.950 . S
C1522 C1521 1.414 . S
C1522 C1523 1.374 . S
C1523 H1503 0.950 . S
C1523 C1519 1.385 . S
C1523 C1522 1.374 . S
C1524 C1521 1.499 . S
C1524 C1525 1.373 . S
C1524 C1526 1.389 . S
C1525 H1504 0.950 . S
C1525 C1524 1.373 . S
C1525 C1541 1.377 . S
C1526 C1524 1.389 . S
C1526 C1527 1.524 1_545 S
C1526 C1540 1.377 . S
C1527 C1526 1.524 1_565 S
C1527 C1528 1.397 . S
C1527 C1532 1.363 . S
C1528 H1505 0.950 . S
C1528 C1527 1.397 . S
C1528 C1529 1.334 . S
C1529 H1506 0.950 . S
C1529 C1528 1.334 . S
C1529 C1530 1.287 . S
C1530 C1529 1.287 . S
C1530 C1531 1.524 . S
C1530 H1549 0.913 . S
C1531 H1507 0.950 . S
C1531 C1530 1.524 . S
C1531 C1532 1.415 . S
C1532 H1508 0.950 1_565 S
C1532 C1527 1.363 . S
C1532 C1531 1.415 . S
C1533 H1509 0.951 . S
C1533 C1534 1.366 . S
C1533 C1535 1.388 . S
C1534 C1533 1.366 . S
C1534 C1538 1.385 . S
C1535 H1510 0.951 . S
C1535 C1533 1.388 . S
C1535 C1536 1.366 . S
C1536 C1535 1.366 . S
C1536 C1537 1.414 . S
C1536 C1539 1.499 . S
C1537 H1511 0.950 . S
C1537 C1536 1.414 . S
C1537 C1538 1.374 . S
C1538 H1512 0.950 . S
C1538 C1534 1.385 . S
C1538 C1537 1.374 . S
C1539 C1536 1.499 . S
C1539 C1540 1.373 . S
C1539 C1541 1.389 . S
C1540 H1513 0.950 . S
C1540 C1526 1.377 . S
C1540 C1539 1.373 . S
C1541 C1525 1.377 . S
C1541 C1539 1.389 . S
C1541 C1542 1.524 . S
C1542 C1541 1.524 . S
C1542 C1543 1.397 . S
C1542 C1547 1.363 . S
C1543 H1514 0.950 . S
C1543 C1542 1.397 . S
C1543 C1544 1.334 . S
C1544 H1515 0.950 . S
C1544 C1543 1.334 . S
C1544 C1545 1.287 . S
C1545 C1544 1.287 . S
C1545 C1546 1.524 . S
C1545 H1548 0.999 . S
C1546 H1516 0.950 . S
C1546 C1545 1.524 . S
C1546 C1547 1.415 . S
C1547 H1517 0.950 . S
C1547 C1542 1.363 . S
C1547 C1546 1.415 . S
H1548 C1545 0.999 . S
H1549 C1530 0.913 . S
H1550 C1568 0.951 . S
H1551 C1570 0.951 . S
H1552 C1572 0.950 . S
H1553 C1573 0.950 . S
H1554 C1575 0.950 . S
H1555 C1578 0.950 . S
H1556 C1579 0.950 . S
H1557 C1581 0.950 . S
H1558 C1582 0.950 . S
H1559 C1583 1.018 . S
H1560 C1585 0.989 . S
H1561 C1587 0.950 . S
H1562 C1588 0.950 . S
H1563 C1590 0.950 . S
H1564 C1593 0.950 . S
H1565 C1594 0.950 . S
H1566 C1596 0.950 . S
H1567 C1597 0.950 . S
C1568 H1550 0.951 . S
C1568 C1569 1.366 . S
C1568 C1570 1.388 . S
C1569 C1568 1.366 . S
C1569 C1573 1.385 . S
C1570 H1551 0.951 . S
C1570 C1568 1.388 . S
C1570 C1571 1.366 . S
C1571 C1570 1.366 . S
C1571 C1572 1.414 . S
C1571 C1574 1.499 . S
C1572 H1552 0.950 . S
C1572 C1571 1.414 . S
C1572 C1573 1.374 . S
C1573 H1553 0.950 . S
C1573 C1569 1.385 . S
C1573 C1572 1.374 . S
C1574 C1571 1.499 . S
C1574 C1575 1.373 1_455 S
C1574 C1576 1.389 . S
C1575 H1554 0.950 . S
C1575 C1574 1.373 1_655 S
C1575 C1591 1.377 . S
C1576 C1574 1.389 . S
C1576 C1577 1.524 . S
C1576 C1590 1.377 . S
C1577 C1576 1.524 . S
C1577 C1578 1.397 . S
C1577 C1582 1.363 . S
C1578 H1555 0.950 . S
C1578 C1577 1.397 . S
C1578 C1579 1.334 . S
C1579 H1556 0.950 . S
C1579 C1578 1.334 . S
C1579 C1580 1.287 . S
C1580 C1579 1.287 . S
C1580 C1581 1.524 . S
C1580 H1599 0.913 . S
C1581 H1557 0.950 . S
C1581 C1580 1.524 . S
C1581 C1582 1.415 . S
C1582 H1558 0.950 . S
C1582 C1577 1.363 . S
C1582 C1581 1.415 . S
C1583 H1559 1.018 . S
C1583 C1584 1.366 . S
C1583 C1585 1.388 . S
C1584 C1583 1.366 . S
C1584 C1588 1.385 . S
C1585 H1560 0.989 . S
C1585 C1583 1.388 . S
C1585 C1586 1.366 . S
C1586 C1585 1.366 . S
C1586 C1587 1.414 . S
C1586 C1589 1.499 . S
C1587 H1561 0.950 . S
C1587 C1586 1.414 . S
C1587 C1588 1.374 . S
C1588 H1562 0.950 . S
C1588 C1584 1.385 . S
C1588 C1587 1.374 . S
C1589 C1586 1.499 . S
C1589 C1590 1.373 . S
C1589 C1591 1.389 1_455 S
C1590 H1563 0.950 . S
C1590 C1576 1.377 . S
C1590 C1589 1.373 . S
C1591 C1575 1.377 . S
C1591 C1589 1.389 1_655 S
C1591 C1592 1.524 . S
C1592 C1591 1.524 . S
C1592 C1593 1.397 . S
C1592 C1597 1.363 . S
C1593 H1564 0.950 . S
C1593 C1592 1.397 . S
C1593 C1594 1.334 . S
C1594 H1565 0.950 . S
C1594 C1593 1.334 . S
C1594 C1595 1.287 . S
C1595 C1594 1.287 . S
C1595 C1596 1.524 . S
C1595 H1598 0.999 . S
C1596 H1566 0.950 . S
C1596 C1595 1.524 . S
C1596 C1597 1.415 . S
C1597 H1567 0.950 . S
C1597 C1592 1.363 . S
C1597 C1596 1.415 . S
H1598 C1595 0.999 . S
H1599 C1580 0.913 . S
H1600 C1618 0.951 . S
H1601 C1620 0.951 . S
H1602 C1622 0.950 . S
H1603 C1623 0.950 . S
H1604 C1625 0.950 . S
H1605 C1628 0.950 . S
H1606 C1629 0.950 . S
H1607 C1631 0.950 . S
H1608 C1632 0.950 . S
H1609 C1633 0.951 . S
H1610 C1635 0.951 . S
H1611 C1637 0.950 . S
H1612 C1638 0.950 . S
H1613 C1640 0.950 . S
H1614 C1643 0.950 . S
H1615 C1644 0.950 . S
H1616 C1646 0.950 . S
H1617 C1647 0.950 . S
C1618 H1600 0.951 . S
C1618 C1619 1.366 . S
C1618 C1620 1.388 . S
C1619 C1618 1.366 . S
C1619 C1623 1.385 . S
C1620 H1601 0.951 . S
C1620 C1618 1.388 . S
C1620 C1621 1.366 . S
C1621 C1620 1.366 . S
C1621 C1622 1.414 . S
C1621 C1624 1.499 . S
C1622 H1602 0.950 . S
C1622 C1621 1.414 . S
C1622 C1623 1.374 . S
C1623 H1603 0.950 . S
C1623 C1619 1.385 . S
C1623 C1622 1.374 . S
C1624 C1621 1.499 . S
C1624 C1625 1.373 . S
C1624 C1626 1.389 . S
C1625 H1604 0.950 . S
C1625 C1624 1.373 . S
C1625 C1641 1.377 . S
C1626 C1624 1.389 . S
C1626 C1627 1.524 . S
C1626 C1640 1.377 . S
C1627 C1626 1.524 . S
C1627 C1628 1.397 . S
C1627 C1632 1.363 . S
C1628 H1605 0.950 . S
C1628 C1627 1.397 . S
C1628 C1629 1.334 . S
C1629 H1606 0.950 . S
C1629 C1628 1.334 . S
C1629 C1630 1.287 . S
C1630 C1629 1.287 . S
C1630 C1631 1.524 . S
C1630 H1649 0.913 . S
C1631 H1607 0.950 . S
C1631 C1630 1.524 . S
C1631 C1632 1.415 . S
C1632 H1608 0.950 . S
C1632 C1627 1.363 . S
C1632 C1631 1.415 . S
C1633 H1609 0.951 . S
C1633 C1634 1.366 . S
C1633 C1635 1.388 . S
C1634 C1633 1.366 . S
C1634 C1638 1.385 . S
C1635 H1610 0.951 . S
C1635 C1633 1.388 . S
C1635 C1636 1.366 . S
C1636 C1635 1.366 . S
C1636 C1637 1.414 . S
C1636 C1639 1.499 . S
C1637 H1611 0.950 . S
C1637 C1636 1.414 . S
C1637 C1638 1.374 . S
C1638 H1612 0.950 . S
C1638 C1634 1.385 . S
C1638 C1637 1.374 . S
C1639 C1636 1.499 . S
C1639 C1640 1.373 . S
C1639 C1641 1.389 . S
C1640 H1613 0.950 . S
C1640 C1626 1.377 . S
C1640 C1639 1.373 . S
C1641 C1625 1.377 . S
C1641 C1639 1.389 . S
C1641 C1642 1.524 . S
C1642 C1641 1.524 . S
C1642 C1643 1.397 . S
C1642 C1647 1.363 . S
C1643 H1614 0.950 . S
C1643 C1642 1.397 . S
C1643 C1644 1.334 . S
C1644 H1615 0.950 . S
C1644 C1643 1.334 . S
C1644 C1645 1.287 . S
C1645 C1644 1.287 . S
C1645 C1646 1.524 . S
C1645 H1648 0.999 . S
C1646 H1616 0.950 . S
C1646 C1645 1.524 . S
C1646 C1647 1.415 . S
C1647 H1617 0.950 . S
C1647 C1642 1.363 . S
C1647 C1646 1.415 . S
H1648 C1645 0.999 . S
H1649 C1630 0.913 . S
H1650 C1668 0.951 . S
H1651 C1670 0.951 . S
H1652 C1672 0.950 . S
H1653 C1673 0.950 . S
H1654 C1675 0.950 . S
H1655 C1678 0.950 . S
H1656 C1679 0.950 . S
H1657 C1681 0.950 . S
H1658 C1682 0.950 . S
H1659 C1683 0.929 . S
H1660 C1685 0.951 . S
H1661 C1687 0.950 . S
H1662 C1688 0.950 . S
H1663 C1690 0.996 . S
H1664 C1693 0.950 . S
H1665 C1694 0.950 . S
H1666 C1696 0.950 . S
H1667 C1697 0.950 . S
C1668 H1650 0.951 . S
C1668 C1669 1.366 . S
C1668 C1670 1.388 . S
C1669 C1668 1.366 . S
C1669 C1673 1.385 . S
C1670 H1651 0.951 . S
C1670 C1668 1.388 . S
C1670 C1671 1.366 . S
C1671 C1670 1.366 . S
C1671 C1672 1.414 . S
C1671 C1674 1.499 . S
C1672 H1652 0.950 . S
C1672 C1671 1.414 . S
C1672 C1673 1.374 . S
C1673 H1653 0.950 . S
C1673 C1669 1.385 . S
C1673 C1672 1.374 . S
C1674 C1671 1.499 . S
C1674 C1675 1.373 . S
C1674 C1676 1.389 1_455 S
C1675 H1654 0.950 . S
C1675 C1674 1.373 . S
C1675 C1691 1.377 . S
C1676 C1674 1.389 1_655 S
C1676 C1677 1.524 . S
C1676 C1690 1.410 . S
C1677 C1676 1.524 . S
C1677 C1678 1.397 . S
C1677 C1682 1.363 . S
C1678 H1655 0.950 . S
C1678 C1677 1.397 . S
C1678 C1679 1.334 . S
C1679 H1656 0.950 . S
C1679 C1678 1.334 . S
C1679 C1680 1.287 . S
C1680 C1679 1.287 . S
C1680 C1681 1.524 . S
C1680 H1699 0.913 . S
C1681 H1657 0.950 . S
C1681 C1680 1.524 . S
C1681 C1682 1.415 . S
C1682 H1658 0.950 . S
C1682 C1677 1.363 . S
C1682 C1681 1.415 . S
C1683 H1659 0.929 . S
C1683 C1684 1.366 . S
C1683 C1685 1.388 . S
C1684 C1683 1.366 . S
C1684 C1688 1.385 . S
C1685 H1660 0.951 . S
C1685 C1683 1.388 . S
C1685 C1686 1.366 . S
C1686 C1685 1.366 . S
C1686 C1687 1.414 . S
C1686 C1689 1.499 . S
C1687 H1661 0.950 . S
C1687 C1686 1.414 . S
C1687 C1688 1.374 . S
C1688 H1662 0.950 . S
C1688 C1684 1.385 . S
C1688 C1687 1.374 . S
C1689 C1686 1.499 . S
C1689 C1690 1.300 1_455 S
C1689 C1691 1.389 . S
C1690 H1663 0.996 . S
C1690 C1676 1.410 . S
C1690 C1689 1.300 1_655 S
C1691 C1675 1.377 . S
C1691 C1689 1.389 . S
C1691 C1692 1.524 . S
C1692 C1691 1.524 . S
C1692 C1693 1.397 . S
C1692 C1697 1.363 . S
C1693 H1664 0.950 . S
C1693 C1692 1.397 . S
C1693 C1694 1.334 . S
C1694 H1665 0.950 . S
C1694 C1693 1.334 . S
C1694 C1695 1.287 . S
C1695 C1694 1.287 . S
C1695 C1696 1.524 . S
C1695 H1698 0.999 . S
C1696 H1666 0.950 . S
C1696 C1695 1.524 . S
C1696 C1697 1.415 . S
C1697 H1667 0.950 . S
C1697 C1692 1.363 . S
C1697 C1696 1.415 . S
H1698 C1695 0.999 . S
H1699 C1680 0.913 . S
H1700 C1718 0.951 . S
H1701 C1720 0.951 . S
H1702 C1722 0.950 . S
H1703 C1723 0.950 . S
H1704 C1725 0.950 . S
H1705 C1728 0.950 . S
H1706 C1729 0.950 . S
H1707 C1731 0.950 . S
H1708 C1732 0.950 . S
H1709 C1733 0.951 . S
H1710 C1735 0.951 . S
H1711 C1737 0.950 . S
H1712 C1738 0.950 . S
H1713 C1740 0.950 . S
H1714 C1743 0.950 . S
H1715 C1744 0.950 . S
H1716 C1746 0.950 . S
H1717 C1747 0.950 . S
C1718 H1700 0.951 . S
C1718 C1719 1.366 . S
C1718 C1720 1.388 . S
C1719 C1718 1.366 . S
C1719 C1723 1.385 . S
C1720 H1701 0.951 . S
C1720 C1718 1.388 . S
C1720 C1721 1.366 . S
C1721 C1720 1.366 . S
C1721 C1722 1.414 . S
C1721 C1724 1.499 . S
C1722 H1702 0.950 . S
C1722 C1721 1.414 . S
C1722 C1723 1.374 . S
C1723 H1703 0.950 . S
C1723 C1719 1.385 . S
C1723 C1722 1.374 . S
C1724 C1721 1.499 . S
C1724 C1725 1.373 . S
C1724 C1726 1.389 . S
C1725 H1704 0.950 . S
C1725 C1724 1.373 . S
C1725 C1741 1.377 . S
C1726 C1724 1.389 . S
C1726 C1727 1.524 . S
C1726 C1740 1.377 . S
C1727 C1726 1.524 . S
C1727 C1728 1.397 . S
C1727 C1732 1.363 . S
C1728 H1705 0.950 . S
C1728 C1727 1.397 . S
C1728 C1729 1.334 . S
C1729 H1706 0.950 . S
C1729 C1728 1.334 . S
C1729 C1730 1.287 . S
C1730 C1729 1.287 . S
C1730 C1731 1.524 . S
C1730 H1749 0.913 . S
C1731 H1707 0.950 . S
C1731 C1730 1.524 . S
C1731 C1732 1.415 . S
C1732 H1708 0.950 . S
C1732 C1727 1.363 . S
C1732 C1731 1.415 . S
C1733 H1709 0.951 . S
C1733 C1734 1.366 . S
C1733 C1735 1.388 . S
C1734 C1733 1.366 . S
C1734 C1738 1.385 . S
C1735 H1710 0.951 . S
C1735 C1733 1.388 . S
C1735 C1736 1.366 . S
C1736 C1735 1.366 . S
C1736 C1737 1.414 . S
C1736 C1739 1.499 . S
C1737 H1711 0.950 . S
C1737 C1736 1.414 . S
C1737 C1738 1.374 . S
C1738 H1712 0.950 . S
C1738 C1734 1.385 . S
C1738 C1737 1.374 . S
C1739 C1736 1.499 . S
C1739 C1740 1.373 . S
C1739 C1741 1.389 . S
C1740 H1713 0.950 . S
C1740 C1726 1.377 . S
C1740 C1739 1.373 . S
C1741 C1725 1.377 . S
C1741 C1739 1.389 . S
C1741 C1742 1.524 . S
C1742 C1741 1.524 . S
C1742 C1743 1.397 . S
C1742 C1747 1.363 . S
C1743 H1714 0.950 . S
C1743 C1742 1.397 . S
C1743 C1744 1.334 . S
C1744 H1715 0.950 . S
C1744 C1743 1.334 . S
C1744 C1745 1.287 . S
C1745 C1744 1.287 . S
C1745 C1746 1.524 . S
C1745 H1748 0.999 . S
C1746 H1716 0.950 . S
C1746 C1745 1.524 . S
C1746 C1747 1.415 . S
C1747 H1717 0.950 . S
C1747 C1742 1.363 . S
C1747 C1746 1.415 . S
H1748 C1745 0.999 . S
H1749 C1730 0.913 . S
H1750 C1768 0.951 . S
H1751 C1770 0.951 . S
H1752 C1772 0.950 . S
H1753 C1773 0.950 . S
H1754 C1775 0.950 . S
H1755 C1778 0.950 . S
H1756 C1779 0.950 . S
H1757 C1781 0.950 . S
H1758 C1782 0.950 . S
H1759 C1783 0.951 . S
H1760 C1785 0.951 . S
H1761 C1787 0.950 . S
H1762 C1788 0.950 . S
H1763 C1790 0.950 1_565 S
H1764 C1793 0.950 . S
H1765 C1794 0.950 . S
H1766 C1796 0.950 . S
H1767 C1797 0.950 . S
C1768 H1750 0.951 . S
C1768 C1769 1.366 . S
C1768 C1770 1.388 . S
C1769 C1768 1.366 . S
C1769 C1773 1.385 . S
C1770 H1751 0.951 . S
C1770 C1768 1.388 . S
C1770 C1771 1.366 . S
C1771 C1770 1.366 . S
C1771 C1772 1.414 . S
C1771 C1774 1.499 . S
C1772 H1752 0.950 . S
C1772 C1771 1.414 . S
C1772 C1773 1.374 . S
C1773 H1753 0.950 . S
C1773 C1769 1.385 . S
C1773 C1772 1.374 . S
C1774 C1771 1.499 . S
C1774 C1775 1.373 . S
C1774 C1776 1.389 . S
C1775 H1754 0.950 . S
C1775 C1774 1.373 . S
C1775 C1791 1.377 . S
C1776 C1774 1.389 . S
C1776 C1777 1.524 1_545 S
C1776 C1790 1.377 . S
C1777 C1776 1.524 1_565 S
C1777 C1778 1.397 . S
C1777 C1782 1.363 . S
C1778 H1755 0.950 . S
C1778 C1777 1.397 . S
C1778 C1779 1.334 . S
C1779 H1756 0.950 . S
C1779 C1778 1.334 . S
C1779 C1780 1.287 . S
C1780 C1779 1.287 . S
C1780 C1781 1.524 . S
C1780 H1799 0.913 . S
C1781 H1757 0.950 . S
C1781 C1780 1.524 . S
C1781 C1782 1.415 . S
C1782 H1758 0.950 . S
C1782 C1777 1.363 . S
C1782 C1781 1.415 . S
C1783 H1759 0.951 . S
C1783 C1784 1.366 . S
C1783 C1785 1.388 . S
C1784 C1783 1.366 . S
C1784 C1788 1.385 . S
C1785 H1760 0.951 . S
C1785 C1783 1.388 . S
C1785 C1786 1.366 . S
C1786 C1785 1.366 . S
C1786 C1787 1.414 . S
C1786 C1789 1.499 . S
C1787 H1761 0.950 . S
C1787 C1786 1.414 . S
C1787 C1788 1.374 . S
C1788 H1762 0.950 . S
C1788 C1784 1.385 . S
C1788 C1787 1.374 . S
C1789 C1786 1.499 . S
C1789 C1790 1.373 . S
C1789 C1791 1.389 . S
C1790 H1763 0.950 1_545 S
C1790 C1776 1.377 . S
C1790 C1789 1.373 . S
C1791 C1775 1.377 . S
C1791 C1789 1.389 . S
C1791 C1792 1.524 . S
C1792 C1791 1.524 . S
C1792 C1793 1.397 . S
C1792 C1797 1.363 . S
C1793 H1764 0.950 . S
C1793 C1792 1.397 . S
C1793 C1794 1.334 . S
C1794 H1765 0.950 . S
C1794 C1793 1.334 . S
C1794 C1795 1.287 . S
C1795 C1794 1.287 . S
C1795 C1796 1.524 . S
C1795 H1798 0.999 . S
C1796 H1766 0.950 . S
C1796 C1795 1.524 . S
C1796 C1797 1.415 . S
C1797 H1767 0.950 . S
C1797 C1792 1.363 . S
C1797 C1796 1.415 . S
H1798 C1795 0.999 . S
H1799 C1780 0.913 . S
H1800 C1818 0.951 . S
H1801 C1820 0.951 . S
H1802 C1822 0.950 . S
H1803 C1823 0.950 . S
H1804 C1825 0.950 . S
H1805 C1828 0.950 . S
H1806 C1829 0.950 . S
H1807 C1831 0.950 . S
H1808 C1832 0.950 . S
H1809 C1833 0.951 . S
H1810 C1835 0.951 . S
H1811 C1837 0.950 . S
H1812 C1838 0.950 . S
H1813 C1840 0.950 . S
H1814 C1843 0.950 . S
H1815 C1844 0.950 . S
H1816 C1846 0.950 . S
H1817 C1847 0.950 . S
C1818 H1800 0.951 . S
C1818 C1819 1.366 . S
C1818 C1820 1.388 . S
C1819 C1818 1.366 . S
C1819 C1823 1.385 . S
C1820 H1801 0.951 . S
C1820 C1818 1.388 . S
C1820 C1821 1.366 . S
C1821 C1820 1.366 . S
C1821 C1822 1.414 . S
C1821 C1824 1.499 . S
C1822 H1802 0.950 . S
C1822 C1821 1.414 . S
C1822 C1823 1.374 . S
C1823 H1803 0.950 . S
C1823 C1819 1.385 . S
C1823 C1822 1.374 . S
C1824 C1821 1.499 . S
C1824 C1825 1.373 1_545 S
C1824 C1826 1.389 . S
C1825 H1804 0.950 . S
C1825 C1824 1.373 1_565 S
C1825 C1841 1.377 . S
C1826 C1824 1.389 . S
C1826 C1827 1.524 . S
C1826 C1840 1.377 . S
C1827 C1826 1.524 . S
C1827 C1828 1.397 . S
C1827 C1832 1.363 . S
C1828 H1805 0.950 . S
C1828 C1827 1.397 . S
C1828 C1829 1.334 . S
C1829 H1806 0.950 . S
C1829 C1828 1.334 . S
C1829 C1830 1.287 . S
C1830 C1829 1.287 . S
C1830 C1831 1.524 . S
C1830 H1849 0.913 . S
C1831 H1807 0.950 . S
C1831 C1830 1.524 . S
C1831 C1832 1.415 . S
C1832 H1808 0.950 . S
C1832 C1827 1.363 . S
C1832 C1831 1.415 . S
C1833 H1809 0.951 . S
C1833 C1834 1.366 . S
C1833 C1835 1.388 . S
C1834 C1833 1.366 . S
C1834 C1838 1.385 . S
C1835 H1810 0.951 . S
C1835 C1833 1.388 . S
C1835 C1836 1.366 . S
C1836 C1835 1.366 . S
C1836 C1837 1.414 . S
C1836 C1839 1.499 . S
C1837 H1811 0.950 . S
C1837 C1836 1.414 . S
C1837 C1838 1.374 . S
C1838 H1812 0.950 . S
C1838 C1834 1.385 . S
C1838 C1837 1.374 . S
C1839 C1836 1.499 . S
C1839 C1840 1.373 . S
C1839 C1841 1.389 1_545 S
C1840 H1813 0.950 . S
C1840 C1826 1.377 . S
C1840 C1839 1.373 . S
C1841 C1825 1.377 . S
C1841 C1839 1.389 1_565 S
C1841 C1842 1.524 . S
C1842 C1841 1.524 . S
C1842 C1843 1.397 . S
C1842 C1847 1.363 . S
C1843 H1814 0.950 . S
C1843 C1842 1.397 . S
C1843 C1844 1.334 . S
C1844 H1815 0.950 . S
C1844 C1843 1.334 . S
C1844 C1845 1.287 . S
C1845 C1844 1.287 . S
C1845 C1846 1.524 . S
C1845 H1848 0.999 . S
C1846 H1816 0.950 . S
C1846 C1845 1.524 . S
C1846 C1847 1.415 . S
C1847 H1817 0.950 . S
C1847 C1842 1.363 . S
C1847 C1846 1.415 . S
H1848 C1845 0.999 . S
H1849 C1830 0.913 . S
H1850 C1868 0.854 1_655 S
H1851 C1870 0.951 1_655 S
H1852 C1872 0.950 . S
H1853 C1873 0.950 . S
H1854 C1875 0.950 . S
H1855 C1878 0.950 . S
H1856 C1879 0.950 . S
H1857 C1881 0.950 . S
H1858 C1882 0.950 . S
H1859 C1883 0.951 . S
H1860 C1885 0.951 . S
H1861 C1887 0.950 1_655 S
H1862 C1888 0.950 1_655 S
H1863 C1890 0.950 1_655 S
H1864 C1893 0.950 . S
H1865 C1894 0.950 . S
H1866 C1896 0.950 . S
H1867 C1897 0.950 . S
C1868 H1850 0.854 1_455 S
C1868 C1869 1.426 . S
C1868 C1870 1.432 . S
C1869 C1868 1.426 . S
C1869 C1873 1.385 . S
C1870 H1851 0.951 1_455 S
C1870 C1868 1.432 . S
C1870 C1871 1.366 . S
C1871 C1870 1.366 . S
C1871 C1872 1.414 . S
C1871 C1874 1.499 . S
C1872 H1852 0.950 . S
C1872 C1871 1.414 . S
C1872 C1873 1.374 . S
C1873 H1853 0.950 . S
C1873 C1869 1.385 . S
C1873 C1872 1.374 . S
C1874 C1871 1.499 . S
C1874 C1875 1.373 . S
C1874 C1876 1.389 . S
C1875 H1854 0.950 . S
C1875 C1874 1.373 . S
C1875 C1891 1.377 . S
C1876 C1874 1.389 . S
C1876 C1877 1.524 1_455 S
C1876 C1890 1.377 . S
C1877 C1876 1.524 1_655 S
C1877 C1878 1.397 1_655 S
C1877 C1882 1.363 . S
C1878 H1855 0.950 . S
C1878 C1877 1.397 1_455 S
C1878 C1879 1.334 1_455 S
C1879 H1856 0.950 . S
C1879 C1878 1.334 1_655 S
C1879 C1880 1.287 . S
C1880 C1879 1.287 . S
C1880 C1881 1.524 . S
C1880 H1899 0.913 . S
C1881 H1857 0.950 . S
C1881 C1880 1.524 . S
C1881 C1882 1.415 . S
C1882 H1858 0.950 . S
C1882 C1877 1.363 . S
C1882 C1881 1.415 . S
C1883 H1859 0.951 . S
C1883 C1884 1.366 . S
C1883 C1885 1.388 . S
C1884 C1883 1.366 . S
C1884 C1888 1.385 . S
C1885 H1860 0.951 . S
C1885 C1883 1.388 . S
C1885 C1886 1.366 . S
C1886 C1885 1.366 . S
C1886 C1887 1.414 . S
C1886 C1889 1.499 . S
C1887 H1861 0.950 1_455 S
C1887 C1886 1.414 . S
C1887 C1888 1.374 . S
C1888 H1862 0.950 1_455 S
C1888 C1884 1.385 . S
C1888 C1887 1.374 . S
C1889 C1886 1.499 . S
C1889 C1890 1.373 . S
C1889 C1891 1.389 . S
C1890 H1863 0.950 1_455 S
C1890 C1876 1.377 . S
C1890 C1889 1.373 . S
C1891 C1875 1.377 . S
C1891 C1889 1.389 . S
C1891 C1892 1.524 . S
C1892 C1891 1.524 . S
C1892 C1893 1.397 . S
C1892 C1897 1.363 . S
C1893 H1864 0.950 . S
C1893 C1892 1.397 . S
C1893 C1894 1.334 . S
C1894 H1865 0.950 . S
C1894 C1893 1.334 . S
C1894 C1895 1.287 . S
C1895 C1894 1.287 . S
C1895 C1896 1.524 . S
C1895 H1898 0.999 . S
C1896 H1866 0.950 . S
C1896 C1895 1.524 . S
C1896 C1897 1.415 . S
C1897 H1867 0.950 . S
C1897 C1892 1.363 . S
C1897 C1896 1.415 . S
H1898 C1895 0.999 . S
H1899 C1880 0.913 . S
H1900 C1918 0.951 . S
H1901 C1920 0.951 . S
H1902 C1922 0.950 . S
H1903 C1923 0.950 . S
H1904 C1925 0.950 . S
H1905 C1928 0.950 . S
H1906 C1929 0.950 . S
H1907 C1931 0.950 . S
H1908 C1932 0.950 . S
H1909 C1933 0.951 . S
H1910 C1935 0.951 . S
H1911 C1937 0.950 . S
H1912 C1938 0.950 . S
H1913 C1940 0.950 . S
H1914 C1943 0.950 . S
H1915 C1944 0.950 . S
H1916 C1946 0.950 . S
H1917 C1947 0.950 . S
C1918 H1900 0.951 . S
C1918 C1919 1.366 . S
C1918 C1920 1.388 . S
C1919 C1918 1.366 . S
C1919 C1923 1.385 . S
C1920 H1901 0.951 . S
C1920 C1918 1.388 . S
C1920 C1921 1.366 . S
C1921 C1920 1.366 . S
C1921 C1922 1.414 . S
C1921 C1924 1.499 . S
C1922 H1902 0.950 . S
C1922 C1921 1.414 . S
C1922 C1923 1.374 . S
C1923 H1903 0.950 . S
C1923 C1919 1.385 . S
C1923 C1922 1.374 . S
C1924 C1921 1.499 . S
C1924 C1925 1.373 . S
C1924 C1926 1.389 . S
C1925 H1904 0.950 . S
C1925 C1924 1.373 . S
C1925 C1941 1.377 . S
C1926 C1924 1.389 . S
C1926 C1927 1.524 . S
C1926 C1940 1.377 . S
C1927 C1926 1.524 . S
C1927 C1928 1.397 . S
C1927 C1932 1.363 . S
C1928 H1905 0.950 . S
C1928 C1927 1.397 . S
C1928 C1929 1.334 . S
C1929 H1906 0.950 . S
C1929 C1928 1.334 . S
C1929 C1930 1.287 . S
C1930 C1929 1.287 . S
C1930 C1931 1.524 . S
C1930 H1949 0.913 . S
C1931 H1907 0.950 . S
C1931 C1930 1.524 . S
C1931 C1932 1.415 . S
C1932 H1908 0.950 . S
C1932 C1927 1.363 . S
C1932 C1931 1.415 . S
C1933 H1909 0.951 . S
C1933 C1934 1.366 . S
C1933 C1935 1.388 . S
C1934 C1933 1.366 . S
C1934 C1938 1.385 . S
C1935 H1910 0.951 . S
C1935 C1933 1.388 . S
C1935 C1936 1.366 . S
C1936 C1935 1.366 . S
C1936 C1937 1.414 . S
C1936 C1939 1.499 . S
C1937 H1911 0.950 . S
C1937 C1936 1.414 . S
C1937 C1938 1.374 . S
C1938 H1912 0.950 . S
C1938 C1934 1.385 . S
C1938 C1937 1.374 . S
C1939 C1936 1.499 . S
C1939 C1940 1.373 . S
C1939 C1941 1.389 . S
C1940 H1913 0.950 . S
C1940 C1926 1.377 . S
C1940 C1939 1.373 . S
C1941 C1925 1.377 . S
C1941 C1939 1.389 . S
C1941 C1942 1.524 . S
C1942 C1941 1.524 . S
C1942 C1943 1.397 . S
C1942 C1947 1.363 . S
C1943 H1914 0.950 . S
C1943 C1942 1.397 . S
C1943 C1944 1.334 . S
C1944 H1915 0.950 . S
C1944 C1943 1.334 . S
C1944 C1945 1.287 . S
C1945 C1944 1.287 . S
C1945 C1946 1.524 . S
C1945 H1948 0.999 . S
C1946 H1916 0.950 . S
C1946 C1945 1.524 . S
C1946 C1947 1.415 . S
C1947 H1917 0.950 . S
C1947 C1942 1.363 . S
C1947 C1946 1.415 . S
H1948 C1945 0.999 . S
H1949 C1930 0.913 . S
H1950 C1968 0.951 . S
H1951 C1970 0.951 . S
H1952 C1972 0.950 . S
H1953 C1973 0.950 . S
H1954 C1975 0.950 . S
H1955 C1978 0.950 . S
H1956 C1979 0.950 . S
H1957 C1981 0.950 . S
H1958 C1982 0.950 . S
H1959 C1983 0.951 . S
H1960 C1985 0.951 . S
H1961 C1987 0.950 . S
H1962 C1988 0.950 . S
H1963 C1990 0.950 . S
H1964 C1993 0.950 . S
H1965 C1994 0.950 . S
H1966 C1996 0.950 . S
H1967 C1997 0.950 . S
C1968 H1950 0.951 . S
C1968 C1969 1.366 . S
C1968 C1970 1.388 . S
C1969 C1968 1.366 . S
C1969 C1973 1.385 . S
C1970 H1951 0.951 . S
C1970 C1968 1.388 . S
C1970 C1971 1.366 . S
C1971 C1970 1.366 . S
C1971 C1972 1.414 . S
C1971 C1974 1.499 . S
C1972 H1952 0.950 . S
C1972 C1971 1.414 . S
C1972 C1973 1.374 . S
C1973 H1953 0.950 . S
C1973 C1969 1.385 . S
C1973 C1972 1.374 . S
C1974 C1971 1.499 . S
C1974 C1975 1.373 . S
C1974 C1976 1.389 . S
C1975 H1954 0.950 . S
C1975 C1974 1.373 . S
C1975 C1991 1.377 . S
C1976 C1974 1.389 . S
C1976 C1977 1.524 . S
C1976 C1990 1.377 . S
C1977 C1976 1.524 . S
C1977 C1978 1.397 . S
C1977 C1982 1.363 . S
C1978 H1955 0.950 . S
C1978 C1977 1.397 . S
C1978 C1979 1.334 . S
C1979 H1956 0.950 . S
C1979 C1978 1.334 . S
C1979 C1980 1.287 . S
C1980 C1979 1.287 . S
C1980 C1981 1.524 . S
C1980 H1999 0.913 . S
C1981 H1957 0.950 . S
C1981 C1980 1.524 . S
C1981 C1982 1.415 . S
C1982 H1958 0.950 . S
C1982 C1977 1.363 . S
C1982 C1981 1.415 . S
C1983 H1959 0.951 . S
C1983 C1984 1.366 . S
C1983 C1985 1.388 . S
C1984 C1983 1.366 . S
C1984 C1988 1.385 . S
C1985 H1960 0.951 . S
C1985 C1983 1.388 . S
C1985 C1986 1.366 . S
C1986 C1985 1.366 . S
C1986 C1987 1.414 . S
C1986 C1989 1.499 . S
C1987 H1961 0.950 . S
C1987 C1986 1.414 . S
C1987 C1988 1.374 . S
C1988 H1962 0.950 . S
C1988 C1984 1.385 . S
C1988 C1987 1.374 . S
C1989 C1986 1.499 . S
C1989 C1990 1.373 . S
C1989 C1991 1.389 . S
C1990 H1963 0.950 . S
C1990 C1976 1.377 . S
C1990 C1989 1.373 . S
C1991 C1975 1.377 . S
C1991 C1989 1.389 . S
C1991 C1992 1.524 . S
C1992 C1991 1.524 . S
C1992 C1993 1.397 . S
C1992 C1997 1.363 . S
C1993 H1964 0.950 . S
C1993 C1992 1.397 . S
C1993 C1994 1.334 . S
C1994 H1965 0.950 . S
C1994 C1993 1.334 . S
C1994 C1995 1.287 . S
C1995 C1994 1.287 . S
C1995 C1996 1.524 . S
C1995 H1998 0.999 . S
C1996 H1966 0.950 . S
C1996 C1995 1.524 . S
C1996 C1997 1.415 . S
C1997 H1967 0.950 . S
C1997 C1992 1.363 . S
C1997 C1996 1.415 . S
H1998 C1995 0.999 . S
H1999 C1980 0.913 . S
H2000 C2018 0.951 . S
H2001 C2020 0.951 . S
H2002 C2022 0.950 . S
H2003 C2023 0.950 . S
H2004 C2025 0.950 . S
H2005 C2028 0.950 . S
H2006 C2029 0.950 . S
H2007 C2031 0.950 . S
H2008 C2032 0.950 . S
H2009 C2033 0.951 . S
H2010 C2035 0.951 . S
H2011 C2037 0.950 . S
H2012 C2038 0.950 . S
H2013 C2040 0.950 . S
H2014 C2043 0.950 . S
H2015 C2044 0.950 . S
H2016 C2046 0.950 . S
H2017 C2047 0.950 . S
C2018 H2000 0.951 . S
C2018 C2019 1.366 . S
C2018 C2020 1.388 . S
C2019 C2018 1.366 . S
C2019 C2023 1.385 . S
C2020 H2001 0.951 . S
C2020 C2018 1.388 . S
C2020 C2021 1.366 . S
C2021 C2020 1.366 . S
C2021 C2022 1.414 . S
C2021 C2024 1.499 . S
C2022 H2002 0.950 . S
C2022 C2021 1.414 . S
C2022 C2023 1.374 . S
C2023 H2003 0.950 . S
C2023 C2019 1.385 . S
C2023 C2022 1.374 . S
C2024 C2021 1.499 . S
C2024 C2025 1.373 . S
C2024 C2026 1.389 . S
C2025 H2004 0.950 . S
C2025 C2024 1.373 . S
C2025 C2041 1.377 . S
C2026 C2024 1.389 . S
C2026 C2027 1.524 . S
C2026 C2040 1.377 . S
C2027 C2026 1.524 . S
C2027 C2028 1.397 . S
C2027 C2032 1.363 . S
C2028 H2005 0.950 . S
C2028 C2027 1.397 . S
C2028 C2029 1.334 . S
C2029 H2006 0.950 . S
C2029 C2028 1.334 . S
C2029 C2030 1.287 . S
C2030 C2029 1.287 . S
C2030 C2031 1.524 . S
C2030 H2049 0.913 . S
C2031 H2007 0.950 . S
C2031 C2030 1.524 . S
C2031 C2032 1.415 . S
C2032 H2008 0.950 . S
C2032 C2027 1.363 . S
C2032 C2031 1.415 . S
C2033 H2009 0.951 . S
C2033 C2034 1.366 . S
C2033 C2035 1.388 . S
C2034 C2033 1.366 . S
C2034 C2038 1.385 . S
C2035 H2010 0.951 . S
C2035 C2033 1.388 . S
C2035 C2036 1.366 . S
C2036 C2035 1.366 . S
C2036 C2037 1.414 . S
C2036 C2039 1.499 . S
C2037 H2011 0.950 . S
C2037 C2036 1.414 . S
C2037 C2038 1.374 . S
C2038 H2012 0.950 . S
C2038 C2034 1.385 . S
C2038 C2037 1.374 . S
C2039 C2036 1.499 . S
C2039 C2040 1.373 . S
C2039 C2041 1.389 . S
C2040 H2013 0.950 . S
C2040 C2026 1.377 . S
C2040 C2039 1.373 . S
C2041 C2025 1.377 . S
C2041 C2039 1.389 . S
C2041 C2042 1.524 . S
C2042 C2041 1.524 . S
C2042 C2043 1.397 . S
C2042 C2047 1.363 . S
C2043 H2014 0.950 . S
C2043 C2042 1.397 . S
C2043 C2044 1.334 . S
C2044 H2015 0.950 . S
C2044 C2043 1.334 . S
C2044 C2045 1.287 . S
C2045 C2044 1.287 . S
C2045 C2046 1.524 . S
C2045 H2048 0.999 . S
C2046 H2016 0.950 . S
C2046 C2045 1.524 . S
C2046 C2047 1.415 . S
C2047 H2017 0.950 . S
C2047 C2042 1.363 . S
C2047 C2046 1.415 . S
H2048 C2045 0.999 . S
H2049 C2030 0.913 . S
H2050 C2068 0.951 . S
H2051 C2070 0.951 . S
H2052 C2072 0.950 . S
H2053 C2073 0.950 . S
H2054 C2075 0.950 . S
H2055 C2078 0.950 . S
H2056 C2079 0.950 . S
H2057 C2081 0.950 . S
H2058 C2082 0.950 . S
H2059 C2083 0.951 . S
H2060 C2085 0.951 . S
H2061 C2087 0.950 . S
H2062 C2088 0.950 . S
H2063 C2090 0.950 . S
H2064 C2093 0.950 . S
H2065 C2094 0.950 . S
H2066 C2096 0.950 . S
H2067 C2097 0.950 . S
C2068 H2050 0.951 . S
C2068 C2069 1.366 . S
C2068 C2070 1.388 . S
C2069 C2068 1.366 . S
C2069 C2073 1.385 . S
C2070 H2051 0.951 . S
C2070 C2068 1.388 . S
C2070 C2071 1.366 . S
C2071 C2070 1.366 . S
C2071 C2072 1.414 . S
C2071 C2074 1.499 . S
C2072 H2052 0.950 . S
C2072 C2071 1.414 . S
C2072 C2073 1.374 . S
C2073 H2053 0.950 . S
C2073 C2069 1.385 . S
C2073 C2072 1.374 . S
C2074 C2071 1.499 . S
C2074 C2075 1.373 . S
C2074 C2076 1.389 . S
C2075 H2054 0.950 . S
C2075 C2074 1.373 . S
C2075 C2091 1.377 . S
C2076 C2074 1.389 . S
C2076 C2077 1.524 . S
C2076 C2090 1.377 . S
C2077 C2076 1.524 . S
C2077 C2078 1.397 . S
C2077 C2082 1.363 . S
C2078 H2055 0.950 . S
C2078 C2077 1.397 . S
C2078 C2079 1.334 . S
C2079 H2056 0.950 . S
C2079 C2078 1.334 . S
C2079 C2080 1.287 . S
C2080 C2079 1.287 . S
C2080 C2081 1.524 . S
C2080 H2099 0.913 . S
C2081 H2057 0.950 . S
C2081 C2080 1.524 . S
C2081 C2082 1.415 . S
C2082 H2058 0.950 . S
C2082 C2077 1.363 . S
C2082 C2081 1.415 . S
C2083 H2059 0.951 . S
C2083 C2084 1.366 . S
C2083 C2085 1.388 . S
C2084 C2083 1.366 . S
C2084 C2088 1.385 . S
C2085 H2060 0.951 . S
C2085 C2083 1.388 . S
C2085 C2086 1.366 . S
C2086 C2085 1.366 . S
C2086 C2087 1.414 . S
C2086 C2089 1.499 . S
C2087 H2061 0.950 . S
C2087 C2086 1.414 . S
C2087 C2088 1.374 . S
C2088 H2062 0.950 . S
C2088 C2084 1.385 . S
C2088 C2087 1.374 . S
C2089 C2086 1.499 . S
C2089 C2090 1.373 . S
C2089 C2091 1.389 . S
C2090 H2063 0.950 . S
C2090 C2076 1.377 . S
C2090 C2089 1.373 . S
C2091 C2075 1.377 . S
C2091 C2089 1.389 . S
C2091 C2092 1.524 . S
C2092 C2091 1.524 . S
C2092 C2093 1.397 . S
C2092 C2097 1.363 . S
C2093 H2064 0.950 . S
C2093 C2092 1.397 . S
C2093 C2094 1.334 . S
C2094 H2065 0.950 . S
C2094 C2093 1.334 . S
C2094 C2095 1.287 . S
C2095 C2094 1.287 . S
C2095 C2096 1.524 . S
C2095 H2098 0.999 . S
C2096 H2066 0.950 . S
C2096 C2095 1.524 . S
C2096 C2097 1.415 . S
C2097 H2067 0.950 . S
C2097 C2092 1.363 . S
C2097 C2096 1.415 . S
H2098 C2095 0.999 . S
H2099 C2080 0.913 . S
H2100 C2118 0.951 . S
H2101 C2120 0.951 . S
H2102 C2122 0.950 . S
H2103 C2123 0.950 . S
H2104 C2125 0.950 . S
H2105 C2128 0.950 . S
H2106 C2129 0.950 . S
H2107 C2131 0.950 . S
H2108 C2132 0.950 . S
H2109 C2133 0.951 . S
H2110 C2135 0.951 . S
H2111 C2137 0.950 . S
H2112 C2138 0.950 . S
H2113 C2140 0.950 . S
H2114 C2143 0.950 . S
H2115 C2144 0.950 . S
H2116 C2146 0.950 . S
H2117 C2147 0.950 . S
C2118 H2100 0.951 . S
C2118 C2119 1.366 . S
C2118 C2120 1.388 . S
C2119 C2118 1.366 . S
C2119 C2123 1.385 . S
C2120 H2101 0.951 . S
C2120 C2118 1.388 . S
C2120 C2121 1.366 . S
C2121 C2120 1.366 . S
C2121 C2122 1.414 . S
C2121 C2124 1.499 . S
C2122 H2102 0.950 . S
C2122 C2121 1.414 . S
C2122 C2123 1.374 . S
C2123 H2103 0.950 . S
C2123 C2119 1.385 . S
C2123 C2122 1.374 . S
C2124 C2121 1.499 . S
C2124 C2125 1.373 . S
C2124 C2126 1.389 . S
C2125 H2104 0.950 . S
C2125 C2124 1.373 . S
C2125 C2141 1.377 . S
C2126 C2124 1.389 . S
C2126 C2127 1.524 . S
C2126 C2140 1.377 . S
C2127 C2126 1.524 . S
C2127 C2128 1.397 . S
C2127 C2132 1.363 . S
C2128 H2105 0.950 . S
C2128 C2127 1.397 . S
C2128 C2129 1.334 . S
C2129 H2106 0.950 . S
C2129 C2128 1.334 . S
C2129 C2130 1.287 . S
C2130 C2129 1.287 . S
C2130 C2131 1.524 . S
C2130 H2149 0.913 . S
C2131 H2107 0.950 . S
C2131 C2130 1.524 . S
C2131 C2132 1.415 . S
C2132 H2108 0.950 . S
C2132 C2127 1.363 . S
C2132 C2131 1.415 . S
C2133 H2109 0.951 . S
C2133 C2134 1.366 . S
C2133 C2135 1.388 . S
C2134 C2133 1.366 . S
C2134 C2138 1.385 . S
C2135 H2110 0.951 . S
C2135 C2133 1.388 . S
C2135 C2136 1.366 . S
C2136 C2135 1.366 . S
C2136 C2137 1.414 . S
C2136 C2139 1.499 . S
C2137 H2111 0.950 . S
C2137 C2136 1.414 . S
C2137 C2138 1.374 . S
C2138 H2112 0.950 . S
C2138 C2134 1.385 . S
C2138 C2137 1.374 . S
C2139 C2136 1.499 . S
C2139 C2140 1.373 . S
C2139 C2141 1.389 . S
C2140 H2113 0.950 . S
C2140 C2126 1.377 . S
C2140 C2139 1.373 . S
C2141 C2125 1.377 . S
C2141 C2139 1.389 . S
C2141 C2142 1.524 . S
C2142 C2141 1.524 . S
C2142 C2143 1.397 . S
C2142 C2147 1.363 . S
C2143 H2114 0.950 . S
C2143 C2142 1.397 . S
C2143 C2144 1.334 . S
C2144 H2115 0.950 . S
C2144 C2143 1.334 . S
C2144 C2145 1.287 . S
C2145 C2144 1.287 . S
C2145 C2146 1.524 . S
C2145 H2148 0.999 . S
C2146 H2116 0.950 . S
C2146 C2145 1.524 . S
C2146 C2147 1.415 . S
C2147 H2117 0.950 . S
C2147 C2142 1.363 . S
C2147 C2146 1.415 . S
H2148 C2145 0.999 . S
H2149 C2130 0.913 . S
H2150 C2168 0.951 . S
H2151 C2170 0.951 . S
H2152 C2172 0.950 . S
H2153 C2173 0.950 . S
H2154 C2175 0.950 . S
H2155 C2178 0.950 . S
H2156 C2179 0.950 . S
H2157 C2181 0.950 . S
H2158 C2182 0.950 . S
H2159 C2183 0.951 . S
H2160 C2185 0.951 . S
H2161 C2187 0.950 . S
H2162 C2188 0.950 . S
H2163 C2190 0.950 . S
H2164 C2193 0.950 . S
H2165 C2194 0.950 . S
H2166 C2196 0.950 . S
H2167 C2197 0.950 . S
C2168 H2150 0.951 . S
C2168 C2169 1.366 . S
C2168 C2170 1.388 . S
C2169 C2168 1.366 . S
C2169 C2173 1.385 . S
C2170 H2151 0.951 . S
C2170 C2168 1.388 . S
C2170 C2171 1.366 . S
C2171 C2170 1.366 . S
C2171 C2172 1.414 . S
C2171 C2174 1.499 . S
C2172 H2152 0.950 . S
C2172 C2171 1.414 . S
C2172 C2173 1.374 . S
C2173 H2153 0.950 . S
C2173 C2169 1.385 . S
C2173 C2172 1.374 . S
C2174 C2171 1.499 . S
C2174 C2175 1.373 . S
C2174 C2176 1.389 . S
C2175 H2154 0.950 . S
C2175 C2174 1.373 . S
C2175 C2191 1.377 . S
C2176 C2174 1.389 . S
C2176 C2177 1.524 . S
C2176 C2190 1.377 . S
C2177 C2176 1.524 . S
C2177 C2178 1.397 . S
C2177 C2182 1.363 . S
C2178 H2155 0.950 . S
C2178 C2177 1.397 . S
C2178 C2179 1.334 . S
C2179 H2156 0.950 . S
C2179 C2178 1.334 . S
C2179 C2180 1.287 . S
C2180 C2179 1.287 . S
C2180 C2181 1.524 . S
C2180 H2199 0.913 . S
C2181 H2157 0.950 . S
C2181 C2180 1.524 . S
C2181 C2182 1.415 . S
C2182 H2158 0.950 . S
C2182 C2177 1.363 . S
C2182 C2181 1.415 . S
C2183 H2159 0.951 . S
C2183 C2184 1.366 . S
C2183 C2185 1.388 . S
C2184 C2183 1.366 . S
C2184 C2188 1.385 . S
C2185 H2160 0.951 . S
C2185 C2183 1.388 . S
C2185 C2186 1.366 . S
C2186 C2185 1.366 . S
C2186 C2187 1.414 . S
C2186 C2189 1.499 . S
C2187 H2161 0.950 . S
C2187 C2186 1.414 . S
C2187 C2188 1.374 . S
C2188 H2162 0.950 . S
C2188 C2184 1.385 . S
C2188 C2187 1.374 . S
C2189 C2186 1.499 . S
C2189 C2190 1.373 . S
C2189 C2191 1.389 . S
C2190 H2163 0.950 . S
C2190 C2176 1.377 . S
C2190 C2189 1.373 . S
C2191 C2175 1.377 . S
C2191 C2189 1.389 . S
C2191 C2192 1.524 . S
C2192 C2191 1.524 . S
C2192 C2193 1.397 . S
C2192 C2197 1.363 . S
C2193 H2164 0.950 . S
C2193 C2192 1.397 . S
C2193 C2194 1.334 . S
C2194 H2165 0.950 . S
C2194 C2193 1.334 . S
C2194 C2195 1.287 . S
C2195 C2194 1.287 . S
C2195 C2196 1.524 . S
C2195 H2198 0.999 . S
C2196 H2166 0.950 . S
C2196 C2195 1.524 . S
C2196 C2197 1.415 . S
C2197 H2167 0.950 . S
C2197 C2192 1.363 . S
C2197 C2196 1.415 . S
H2198 C2195 0.999 . S
H2199 C2180 0.913 . S
H2200 C2218 0.951 . S
H2201 C2220 0.951 . S
H2202 C2222 0.950 . S
H2203 C2223 0.950 . S
H2204 C2225 0.950 . S
H2205 C2228 0.950 . S
H2206 C2229 0.950 . S
H2207 C2231 0.950 . S
H2208 C2232 0.950 . S
H2209 C2233 0.951 . S
H2210 C2235 0.951 . S
H2211 C2237 0.950 . S
H2212 C2238 0.950 . S
H2213 C2240 0.950 . S
H2214 C2243 0.950 . S
H2215 C2244 0.950 . S
H2216 C2246 0.950 . S
H2217 C2247 0.950 . S
C2218 H2200 0.951 . S
C2218 C2219 1.366 . S
C2218 C2220 1.388 . S
C2219 C2218 1.366 . S
C2219 C2223 1.385 . S
C2220 H2201 0.951 . S
C2220 C2218 1.388 . S
C2220 C2221 1.366 . S
C2221 C2220 1.366 . S
C2221 C2222 1.414 . S
C2221 C2224 1.499 . S
C2222 H2202 0.950 . S
C2222 C2221 1.414 . S
C2222 C2223 1.374 . S
C2223 H2203 0.950 . S
C2223 C2219 1.385 . S
C2223 C2222 1.374 . S
C2224 C2221 1.499 . S
C2224 C2225 1.373 . S
C2224 C2226 1.389 . S
C2225 H2204 0.950 . S
C2225 C2224 1.373 . S
C2225 C2241 1.377 . S
C2226 C2224 1.389 . S
C2226 C2227 1.524 . S
C2226 C2240 1.377 . S
C2227 C2226 1.524 . S
C2227 C2228 1.397 . S
C2227 C2232 1.363 . S
C2228 H2205 0.950 . S
C2228 C2227 1.397 . S
C2228 C2229 1.334 . S
C2229 H2206 0.950 . S
C2229 C2228 1.334 . S
C2229 C2230 1.287 . S
C2230 C2229 1.287 . S
C2230 C2231 1.524 . S
C2230 H2249 0.913 . S
C2231 H2207 0.950 . S
C2231 C2230 1.524 . S
C2231 C2232 1.415 . S
C2232 H2208 0.950 . S
C2232 C2227 1.363 . S
C2232 C2231 1.415 . S
C2233 H2209 0.951 . S
C2233 C2234 1.366 . S
C2233 C2235 1.388 . S
C2234 C2233 1.366 . S
C2234 C2238 1.385 . S
C2235 H2210 0.951 . S
C2235 C2233 1.388 . S
C2235 C2236 1.366 . S
C2236 C2235 1.366 . S
C2236 C2237 1.414 . S
C2236 C2239 1.499 . S
C2237 H2211 0.950 . S
C2237 C2236 1.414 . S
C2237 C2238 1.374 . S
C2238 H2212 0.950 . S
C2238 C2234 1.385 . S
C2238 C2237 1.374 . S
C2239 C2236 1.499 . S
C2239 C2240 1.373 . S
C2239 C2241 1.389 . S
C2240 H2213 0.950 . S
C2240 C2226 1.377 . S
C2240 C2239 1.373 . S
C2241 C2225 1.377 . S
C2241 C2239 1.389 . S
C2241 C2242 1.524 . S
C2242 C2241 1.524 . S
C2242 C2243 1.397 . S
C2242 C2247 1.363 . S
C2243 H2214 0.950 . S
C2243 C2242 1.397 . S
C2243 C2244 1.334 . S
C2244 H2215 0.950 . S
C2244 C2243 1.334 . S
C2244 C2245 1.287 . S
C2245 C2244 1.287 . S
C2245 C2246 1.524 . S
C2245 H2248 0.999 . S
C2246 H2216 0.950 . S
C2246 C2245 1.524 . S
C2246 C2247 1.415 . S
C2247 H2217 0.950 . S
C2247 C2242 1.363 . S
C2247 C2246 1.415 . S
H2248 C2245 0.999 . S
H2249 C2230 0.913 . S
H2250 C2268 0.951 . S
H2251 C2270 0.951 . S
H2252 C2272 0.950 . S
H2253 C2273 0.950 . S
H2254 C2275 0.950 . S
H2255 C2278 0.950 . S
H2256 C2279 0.950 . S
H2257 C2281 0.950 . S
H2258 C2282 0.950 . S
H2259 C2283 0.951 . S
H2260 C2285 0.951 . S
H2261 C2287 0.950 . S
H2262 C2288 0.950 . S
H2263 C2290 0.950 . S
H2264 C2293 0.950 . S
H2265 C2294 0.950 . S
H2266 C2296 0.950 . S
H2267 C2297 0.950 . S
C2268 H2250 0.951 . S
C2268 C2269 1.366 . S
C2268 C2270 1.388 . S
C2269 C2268 1.366 . S
C2269 C2273 1.385 . S
C2270 H2251 0.951 . S
C2270 C2268 1.388 . S
C2270 C2271 1.366 . S
C2271 C2270 1.366 . S
C2271 C2272 1.414 . S
C2271 C2274 1.499 . S
C2272 H2252 0.950 . S
C2272 C2271 1.414 . S
C2272 C2273 1.374 . S
C2273 H2253 0.950 . S
C2273 C2269 1.385 . S
C2273 C2272 1.374 . S
C2274 C2271 1.499 . S
C2274 C2275 1.373 . S
C2274 C2276 1.389 . S
C2275 H2254 0.950 . S
C2275 C2274 1.373 . S
C2275 C2291 1.377 . S
C2276 C2274 1.389 . S
C2276 C2277 1.524 . S
C2276 C2290 1.377 . S
C2277 C2276 1.524 . S
C2277 C2278 1.397 . S
C2277 C2282 1.363 . S
C2278 H2255 0.950 . S
C2278 C2277 1.397 . S
C2278 C2279 1.334 . S
C2279 H2256 0.950 . S
C2279 C2278 1.334 . S
C2279 C2280 1.287 . S
C2280 C2279 1.287 . S
C2280 C2281 1.524 . S
C2280 H2299 0.913 . S
C2281 H2257 0.950 . S
C2281 C2280 1.524 . S
C2281 C2282 1.415 . S
C2282 H2258 0.950 . S
C2282 C2277 1.363 . S
C2282 C2281 1.415 . S
C2283 H2259 0.951 . S
C2283 C2284 1.366 . S
C2283 C2285 1.388 . S
C2284 C2283 1.366 . S
C2284 C2288 1.385 . S
C2285 H2260 0.951 . S
C2285 C2283 1.388 . S
C2285 C2286 1.366 . S
C2286 C2285 1.366 . S
C2286 C2287 1.414 . S
C2286 C2289 1.499 . S
C2287 H2261 0.950 . S
C2287 C2286 1.414 . S
C2287 C2288 1.374 . S
C2288 H2262 0.950 . S
C2288 C2284 1.385 . S
C2288 C2287 1.374 . S
C2289 C2286 1.499 . S
C2289 C2290 1.373 . S
C2289 C2291 1.389 . S
C2290 H2263 0.950 . S
C2290 C2276 1.377 . S
C2290 C2289 1.373 . S
C2291 C2275 1.377 . S
C2291 C2289 1.389 . S
C2291 C2292 1.524 . S
C2292 C2291 1.524 . S
C2292 C2293 1.397 . S
C2292 C2297 1.363 . S
C2293 H2264 0.950 . S
C2293 C2292 1.397 . S
C2293 C2294 1.334 . S
C2294 H2265 0.950 . S
C2294 C2293 1.334 . S
C2294 C2295 1.287 . S
C2295 C2294 1.287 . S
C2295 C2296 1.524 . S
C2295 H2298 0.999 . S
C2296 H2266 0.950 . S
C2296 C2295 1.524 . S
C2296 C2297 1.415 . S
C2297 H2267 0.950 . S
C2297 C2292 1.363 . S
C2297 C2296 1.415 . S
H2298 C2295 0.999 . S
H2299 C2280 0.913 . S
H2300 C2318 0.951 . S
H2301 C2320 0.951 . S
H2302 C2322 0.950 . S
H2303 C2323 0.950 . S
H2304 C2325 0.950 . S
H2305 C2328 0.950 . S
H2306 C2329 0.950 . S
H2307 C2331 0.950 . S
H2308 C2332 0.950 . S
H2309 C2333 0.951 . S
H2310 C2335 0.951 . S
H2311 C2337 0.950 . S
H2312 C2338 0.950 . S
H2313 C2340 0.950 . S
H2314 C2343 0.950 . S
H2315 C2344 0.950 . S
H2316 C2346 0.950 . S
H2317 C2347 0.950 . S
C2318 H2300 0.951 . S
C2318 C2319 1.366 . S
C2318 C2320 1.388 . S
C2319 C2318 1.366 . S
C2319 C2323 1.385 . S
C2320 H2301 0.951 . S
C2320 C2318 1.388 . S
C2320 C2321 1.366 . S
C2321 C2320 1.366 . S
C2321 C2322 1.414 . S
C2321 C2324 1.499 . S
C2322 H2302 0.950 . S
C2322 C2321 1.414 . S
C2322 C2323 1.374 . S
C2323 H2303 0.950 . S
C2323 C2319 1.385 . S
C2323 C2322 1.374 . S
C2324 C2321 1.499 . S
C2324 C2325 1.373 . S
C2324 C2326 1.389 . S
C2325 H2304 0.950 . S
C2325 C2324 1.373 . S
C2325 C2341 1.377 . S
C2326 C2324 1.389 . S
C2326 C2327 1.524 . S
C2326 C2340 1.377 . S
C2327 C2326 1.524 . S
C2327 C2328 1.397 . S
C2327 C2332 1.363 . S
C2328 H2305 0.950 . S
C2328 C2327 1.397 . S
C2328 C2329 1.334 . S
C2329 H2306 0.950 . S
C2329 C2328 1.334 . S
C2329 C2330 1.287 . S
C2330 C2329 1.287 . S
C2330 C2331 1.524 . S
C2330 H2349 0.913 . S
C2331 H2307 0.950 . S
C2331 C2330 1.524 . S
C2331 C2332 1.415 . S
C2332 H2308 0.950 . S
C2332 C2327 1.363 . S
C2332 C2331 1.415 . S
C2333 H2309 0.951 . S
C2333 C2334 1.366 . S
C2333 C2335 1.388 . S
C2334 C2333 1.366 . S
C2334 C2338 1.385 . S
C2335 H2310 0.951 . S
C2335 C2333 1.388 . S
C2335 C2336 1.366 . S
C2336 C2335 1.366 . S
C2336 C2337 1.414 . S
C2336 C2339 1.499 . S
C2337 H2311 0.950 . S
C2337 C2336 1.414 . S
C2337 C2338 1.374 . S
C2338 H2312 0.950 . S
C2338 C2334 1.385 . S
C2338 C2337 1.374 . S
C2339 C2336 1.499 . S
C2339 C2340 1.373 . S
C2339 C2341 1.389 . S
C2340 H2313 0.950 . S
C2340 C2326 1.377 . S
C2340 C2339 1.373 . S
C2341 C2325 1.377 . S
C2341 C2339 1.389 . S
C2341 C2342 1.524 . S
C2342 C2341 1.524 . S
C2342 C2343 1.397 . S
C2342 C2347 1.363 . S
C2343 H2314 0.950 . S
C2343 C2342 1.397 . S
C2343 C2344 1.334 . S
C2344 H2315 0.950 . S
C2344 C2343 1.334 . S
C2344 C2345 1.287 . S
C2345 C2344 1.287 . S
C2345 C2346 1.524 . S
C2345 H2348 0.999 . S
C2346 H2316 0.950 . S
C2346 C2345 1.524 . S
C2346 C2347 1.415 . S
C2347 H2317 0.950 . S
C2347 C2342 1.363 . S
C2347 C2346 1.415 . S
H2348 C2345 0.999 . S
H2349 C2330 0.913 . S
H2350 C2368 0.951 . S
H2351 C2370 0.951 . S
H2352 C2372 0.950 . S
H2353 C2373 0.950 . S
H2354 C2375 0.950 . S
H2355 C2378 0.950 . S
H2356 C2379 0.950 . S
H2357 C2381 0.950 . S
H2358 C2382 0.950 . S
H2359 C2383 0.951 . S
H2360 C2385 0.951 . S
H2361 C2387 0.950 . S
H2362 C2388 0.950 . S
H2363 C2390 0.950 . S
H2364 C2393 0.950 . S
H2365 C2394 0.950 . S
H2366 C2396 0.950 . S
H2367 C2397 0.950 . S
C2368 H2350 0.951 . S
C2368 C2369 1.366 . S
C2368 C2370 1.388 . S
C2369 C2368 1.366 . S
C2369 C2373 1.385 . S
C2370 H2351 0.951 . S
C2370 C2368 1.388 . S
C2370 C2371 1.366 . S
C2371 C2370 1.366 . S
C2371 C2372 1.414 . S
C2371 C2374 1.499 . S
C2372 H2352 0.950 . S
C2372 C2371 1.414 . S
C2372 C2373 1.374 . S
C2373 H2353 0.950 . S
C2373 C2369 1.385 . S
C2373 C2372 1.374 . S
C2374 C2371 1.499 . S
C2374 C2375 1.373 . S
C2374 C2376 1.389 . S
C2375 H2354 0.950 . S
C2375 C2374 1.373 . S
C2375 C2391 1.377 . S
C2376 C2374 1.389 . S
C2376 C2377 1.524 . S
C2376 C2390 1.377 . S
C2377 C2376 1.524 . S
C2377 C2378 1.397 . S
C2377 C2382 1.363 . S
C2378 H2355 0.950 . S
C2378 C2377 1.397 . S
C2378 C2379 1.334 . S
C2379 H2356 0.950 . S
C2379 C2378 1.334 . S
C2379 C2380 1.287 . S
C2380 C2379 1.287 . S
C2380 C2381 1.524 . S
C2380 H2399 0.913 . S
C2381 H2357 0.950 . S
C2381 C2380 1.524 . S
C2381 C2382 1.415 . S
C2382 H2358 0.950 . S
C2382 C2377 1.363 . S
C2382 C2381 1.415 . S
C2383 H2359 0.951 . S
C2383 C2384 1.366 . S
C2383 C2385 1.388 . S
C2384 C2383 1.366 . S
C2384 C2388 1.385 . S
C2385 H2360 0.951 . S
C2385 C2383 1.388 . S
C2385 C2386 1.366 . S
C2386 C2385 1.366 . S
C2386 C2387 1.414 . S
C2386 C2389 1.499 . S
C2387 H2361 0.950 . S
C2387 C2386 1.414 . S
C2387 C2388 1.374 . S
C2388 H2362 0.950 . S
C2388 C2384 1.385 . S
C2388 C2387 1.374 . S
C2389 C2386 1.499 . S
C2389 C2390 1.373 . S
C2389 C2391 1.389 . S
C2390 H2363 0.950 . S
C2390 C2376 1.377 . S
C2390 C2389 1.373 . S
C2391 C2375 1.377 . S
C2391 C2389 1.389 . S
C2391 C2392 1.524 . S
C2392 C2391 1.524 . S
C2392 C2393 1.397 . S
C2392 C2397 1.363 . S
C2393 H2364 0.950 . S
C2393 C2392 1.397 . S
C2393 C2394 1.334 . S
C2394 H2365 0.950 . S
C2394 C2393 1.334 . S
C2394 C2395 1.287 . S
C2395 C2394 1.287 . S
C2395 C2396 1.524 . S
C2395 H2398 0.999 . S
C2396 H2366 0.950 . S
C2396 C2395 1.524 . S
C2396 C2397 1.415 . S
C2397 H2367 0.950 . S
C2397 C2392 1.363 . S
C2397 C2396 1.415 . S
H2398 C2395 0.999 . S
H2399 C2380 0.913 . S
H2400 C2418 0.951 . S
H2401 C2420 0.951 . S
H2402 C2422 0.950 . S
H2403 C2423 0.950 . S
H2404 C2425 0.950 . S
H2405 C2428 0.950 . S
H2406 C2429 0.950 . S
H2407 C2431 0.950 . S
H2408 C2432 0.950 . S
H2409 C2433 0.951 . S
H2410 C2435 0.951 . S
H2411 C2437 0.950 . S
H2412 C2438 0.950 . S
H2413 C2440 0.950 . S
H2414 C2443 0.950 . S
H2415 C2444 0.950 . S
H2416 C2446 0.950 . S
H2417 C2447 0.950 . S
C2418 H2400 0.951 . S
C2418 C2419 1.366 . S
C2418 C2420 1.388 . S
C2419 C2418 1.366 . S
C2419 C2423 1.385 . S
C2420 H2401 0.951 . S
C2420 C2418 1.388 . S
C2420 C2421 1.366 . S
C2421 C2420 1.366 . S
C2421 C2422 1.414 . S
C2421 C2424 1.499 . S
C2422 H2402 0.950 . S
C2422 C2421 1.414 . S
C2422 C2423 1.374 . S
C2423 H2403 0.950 . S
C2423 C2419 1.385 . S
C2423 C2422 1.374 . S
C2424 C2421 1.499 . S
C2424 C2425 1.373 . S
C2424 C2426 1.389 . S
C2425 H2404 0.950 . S
C2425 C2424 1.373 . S
C2425 C2441 1.377 . S
C2426 C2424 1.389 . S
C2426 C2427 1.524 . S
C2426 C2440 1.377 . S
C2427 C2426 1.524 . S
C2427 C2428 1.397 . S
C2427 C2432 1.363 . S
C2428 H2405 0.950 . S
C2428 C2427 1.397 . S
C2428 C2429 1.334 . S
C2429 H2406 0.950 . S
C2429 C2428 1.334 . S
C2429 C2430 1.287 . S
C2430 C2429 1.287 . S
C2430 C2431 1.524 . S
C2430 H2449 0.913 . S
C2431 H2407 0.950 . S
C2431 C2430 1.524 . S
C2431 C2432 1.415 . S
C2432 H2408 0.950 . S
C2432 C2427 1.363 . S
C2432 C2431 1.415 . S
C2433 H2409 0.951 . S
C2433 C2434 1.366 . S
C2433 C2435 1.388 . S
C2434 C2433 1.366 . S
C2434 C2438 1.385 . S
C2435 H2410 0.951 . S
C2435 C2433 1.388 . S
C2435 C2436 1.366 . S
C2436 C2435 1.366 . S
C2436 C2437 1.414 . S
C2436 C2439 1.499 . S
C2437 H2411 0.950 . S
C2437 C2436 1.414 . S
C2437 C2438 1.374 . S
C2438 H2412 0.950 . S
C2438 C2434 1.385 . S
C2438 C2437 1.374 . S
C2439 C2436 1.499 . S
C2439 C2440 1.373 . S
C2439 C2441 1.389 . S
C2440 H2413 0.950 . S
C2440 C2426 1.377 . S
C2440 C2439 1.373 . S
C2441 C2425 1.377 . S
C2441 C2439 1.389 . S
C2441 C2442 1.524 . S
C2442 C2441 1.524 . S
C2442 C2443 1.397 . S
C2442 C2447 1.363 . S
C2443 H2414 0.950 . S
C2443 C2442 1.397 . S
C2443 C2444 1.334 . S
C2444 H2415 0.950 . S
C2444 C2443 1.334 . S
C2444 C2445 1.287 . S
C2445 C2444 1.287 . S
C2445 C2446 1.524 . S
C2445 H2448 0.999 . S
C2446 H2416 0.950 . S
C2446 C2445 1.524 . S
C2446 C2447 1.415 . S
C2447 H2417 0.950 . S
C2447 C2442 1.363 . S
C2447 C2446 1.415 . S
H2448 C2445 0.999 . S
H2449 C2430 0.913 . S
H2450 C2468 0.951 . S
H2451 C2470 0.951 . S
H2452 C2472 0.950 . S
H2453 C2473 0.950 . S
H2454 C2475 0.950 . S
H2455 C2478 0.950 . S
H2456 C2479 0.950 . S
H2457 C2481 0.950 . S
H2458 C2482 0.950 . S
H2459 C2483 0.951 . S
H2460 C2485 0.951 . S
H2461 C2487 0.950 . S
H2462 C2488 0.950 . S
H2463 C2490 0.950 . S
H2464 C2493 0.950 . S
H2465 C2494 0.950 . S
H2466 C2496 0.950 . S
H2467 C2497 0.950 . S
C2468 H2450 0.951 . S
C2468 C2469 1.366 . S
C2468 C2470 1.388 . S
C2469 C2468 1.366 . S
C2469 C2473 1.385 . S
C2470 H2451 0.951 . S
C2470 C2468 1.388 . S
C2470 C2471 1.366 . S
C2471 C2470 1.366 . S
C2471 C2472 1.414 . S
C2471 C2474 1.499 . S
C2472 H2452 0.950 . S
C2472 C2471 1.414 . S
C2472 C2473 1.374 . S
C2473 H2453 0.950 . S
C2473 C2469 1.385 . S
C2473 C2472 1.374 . S
C2474 C2471 1.499 . S
C2474 C2475 1.373 . S
C2474 C2476 1.389 . S
C2475 H2454 0.950 . S
C2475 C2474 1.373 . S
C2475 C2491 1.377 . S
C2476 C2474 1.389 . S
C2476 C2477 1.524 . S
C2476 C2490 1.377 . S
C2477 C2476 1.524 . S
C2477 C2478 1.397 . S
C2477 C2482 1.363 . S
C2478 H2455 0.950 . S
C2478 C2477 1.397 . S
C2478 C2479 1.334 . S
C2479 H2456 0.950 . S
C2479 C2478 1.334 . S
C2479 C2480 1.287 . S
C2480 C2479 1.287 . S
C2480 C2481 1.524 . S
C2480 H2499 0.913 . S
C2481 H2457 0.950 . S
C2481 C2480 1.524 . S
C2481 C2482 1.415 . S
C2482 H2458 0.950 . S
C2482 C2477 1.363 . S
C2482 C2481 1.415 . S
C2483 H2459 0.951 . S
C2483 C2484 1.366 . S
C2483 C2485 1.388 . S
C2484 C2483 1.366 . S
C2484 C2488 1.385 . S
C2485 H2460 0.951 . S
C2485 C2483 1.388 . S
C2485 C2486 1.366 . S
C2486 C2485 1.366 . S
C2486 C2487 1.414 . S
C2486 C2489 1.499 . S
C2487 H2461 0.950 . S
C2487 C2486 1.414 . S
C2487 C2488 1.374 . S
C2488 H2462 0.950 . S
C2488 C2484 1.385 . S
C2488 C2487 1.374 . S
C2489 C2486 1.499 . S
C2489 C2490 1.373 . S
C2489 C2491 1.389 . S
C2490 H2463 0.950 . S
C2490 C2476 1.377 . S
C2490 C2489 1.373 . S
C2491 C2475 1.377 . S
C2491 C2489 1.389 . S
C2491 C2492 1.524 . S
C2492 C2491 1.524 . S
C2492 C2493 1.397 . S
C2492 C2497 1.363 . S
C2493 H2464 0.950 . S
C2493 C2492 1.397 . S
C2493 C2494 1.334 . S
C2494 H2465 0.950 . S
C2494 C2493 1.334 . S
C2494 C2495 1.287 . S
C2495 C2494 1.287 . S
C2495 C2496 1.524 . S
C2495 H2498 0.999 . S
C2496 H2466 0.950 . S
C2496 C2495 1.524 . S
C2496 C2497 1.415 . S
C2497 H2467 0.950 . S
C2497 C2492 1.363 . S
C2497 C2496 1.415 . S
H2498 C2495 0.999 . S
H2499 C2480 0.913 . S
H2500 C2518 0.951 . S
H2501 C2520 0.951 . S
H2502 C2522 0.950 . S
H2503 C2523 0.950 . S
H2504 C2525 0.950 . S
H2505 C2528 0.950 . S
H2506 C2529 0.950 . S
H2507 C2531 0.950 . S
H2508 C2532 0.950 . S
H2509 C2533 0.951 . S
H2510 C2535 0.951 . S
H2511 C2537 0.950 . S
H2512 C2538 0.950 . S
H2513 C2540 0.950 . S
H2514 C2543 0.950 . S
H2515 C2544 0.950 . S
H2516 C2546 0.950 . S
H2517 C2547 0.950 . S
C2518 H2500 0.951 . S
C2518 C2519 1.366 . S
C2518 C2520 1.388 . S
C2519 C2518 1.366 . S
C2519 C2523 1.385 . S
C2520 H2501 0.951 . S
C2520 C2518 1.388 . S
C2520 C2521 1.366 . S
C2521 C2520 1.366 . S
C2521 C2522 1.414 . S
C2521 C2524 1.499 . S
C2522 H2502 0.950 . S
C2522 C2521 1.414 . S
C2522 C2523 1.374 . S
C2523 H2503 0.950 . S
C2523 C2519 1.385 . S
C2523 C2522 1.374 . S
C2524 C2521 1.499 . S
C2524 C2525 1.373 . S
C2524 C2526 1.389 . S
C2525 H2504 0.950 . S
C2525 C2524 1.373 . S
C2525 C2541 1.377 . S
C2526 C2524 1.389 . S
C2526 C2527 1.524 . S
C2526 C2540 1.377 . S
C2527 C2526 1.524 . S
C2527 C2528 1.397 . S
C2527 C2532 1.363 . S
C2528 H2505 0.950 . S
C2528 C2527 1.397 . S
C2528 C2529 1.334 . S
C2529 H2506 0.950 . S
C2529 C2528 1.334 . S
C2529 C2530 1.287 . S
C2530 C2529 1.287 . S
C2530 C2531 1.524 . S
C2530 H2549 0.913 . S
C2531 H2507 0.950 . S
C2531 C2530 1.524 . S
C2531 C2532 1.415 . S
C2532 H2508 0.950 . S
C2532 C2527 1.363 . S
C2532 C2531 1.415 . S
C2533 H2509 0.951 . S
C2533 C2534 1.366 . S
C2533 C2535 1.388 . S
C2534 C2533 1.366 . S
C2534 C2538 1.385 . S
C2535 H2510 0.951 . S
C2535 C2533 1.388 . S
C2535 C2536 1.366 . S
C2536 C2535 1.366 . S
C2536 C2537 1.414 . S
C2536 C2539 1.499 . S
C2537 H2511 0.950 . S
C2537 C2536 1.414 . S
C2537 C2538 1.374 . S
C2538 H2512 0.950 . S
C2538 C2534 1.385 . S
C2538 C2537 1.374 . S
C2539 C2536 1.499 . S
C2539 C2540 1.373 . S
C2539 C2541 1.389 . S
C2540 H2513 0.950 . S
C2540 C2526 1.377 . S
C2540 C2539 1.373 . S
C2541 C2525 1.377 . S
C2541 C2539 1.389 . S
C2541 C2542 1.524 . S
C2542 C2541 1.524 . S
C2542 C2543 1.397 . S
C2542 C2547 1.363 . S
C2543 H2514 0.950 . S
C2543 C2542 1.397 . S
C2543 C2544 1.334 . S
C2544 H2515 0.950 . S
C2544 C2543 1.334 . S
C2544 C2545 1.287 . S
C2545 C2544 1.287 . S
C2545 C2546 1.524 . S
C2545 H2548 0.999 . S
C2546 H2516 0.950 . S
C2546 C2545 1.524 . S
C2546 C2547 1.415 . S
C2547 H2517 0.950 . S
C2547 C2542 1.363 . S
C2547 C2546 1.415 . S
H2548 C2545 0.999 . S
H2549 C2530 0.913 . S
H2550 C2568 0.951 . S
H2551 C2570 0.951 . S
H2552 C2572 0.950 . S
H2553 C2573 0.950 . S
H2554 C2575 0.950 . S
H2555 C2578 0.950 . S
H2556 C2579 0.950 . S
H2557 C2581 0.950 . S
H2558 C2582 0.950 . S
H2559 C2583 0.951 . S
H2560 C2585 0.951 . S
H2561 C2587 0.950 . S
H2562 C2588 0.950 . S
H2563 C2590 0.950 . S
H2564 C2593 0.950 . S
H2565 C2594 0.950 . S
H2566 C2596 0.950 . S
H2567 C2597 0.950 . S
C2568 H2550 0.951 . S
C2568 C2569 1.366 . S
C2568 C2570 1.388 . S
C2569 C2568 1.366 . S
C2569 C2573 1.385 . S
C2570 H2551 0.951 . S
C2570 C2568 1.388 . S
C2570 C2571 1.366 . S
C2571 C2570 1.366 . S
C2571 C2572 1.414 . S
C2571 C2574 1.499 . S
C2572 H2552 0.950 . S
C2572 C2571 1.414 . S
C2572 C2573 1.374 . S
C2573 H2553 0.950 . S
C2573 C2569 1.385 . S
C2573 C2572 1.374 . S
C2574 C2571 1.499 . S
C2574 C2575 1.373 . S
C2574 C2576 1.389 . S
C2575 H2554 0.950 . S
C2575 C2574 1.373 . S
C2575 C2591 1.377 . S
C2576 C2574 1.389 . S
C2576 C2577 1.524 . S
C2576 C2590 1.377 . S
C2577 C2576 1.524 . S
C2577 C2578 1.397 . S
C2577 C2582 1.363 . S
C2578 H2555 0.950 . S
C2578 C2577 1.397 . S
C2578 C2579 1.334 . S
C2579 H2556 0.950 . S
C2579 C2578 1.334 . S
C2579 C2580 1.287 . S
C2580 C2579 1.287 . S
C2580 C2581 1.524 . S
C2580 H2599 0.913 . S
C2581 H2557 0.950 . S
C2581 C2580 1.524 . S
C2581 C2582 1.415 . S
C2582 H2558 0.950 . S
C2582 C2577 1.363 . S
C2582 C2581 1.415 . S
C2583 H2559 0.951 . S
C2583 C2584 1.366 . S
C2583 C2585 1.388 . S
C2584 C2583 1.366 . S
C2584 C2588 1.385 . S
C2585 H2560 0.951 . S
C2585 C2583 1.388 . S
C2585 C2586 1.366 . S
C2586 C2585 1.366 . S
C2586 C2587 1.414 . S
C2586 C2589 1.499 . S
C2587 H2561 0.950 . S
C2587 C2586 1.414 . S
C2587 C2588 1.374 . S
C2588 H2562 0.950 . S
C2588 C2584 1.385 . S
C2588 C2587 1.374 . S
C2589 C2586 1.499 . S
C2589 C2590 1.373 . S
C2589 C2591 1.389 . S
C2590 H2563 0.950 . S
C2590 C2576 1.377 . S
C2590 C2589 1.373 . S
C2591 C2575 1.377 . S
C2591 C2589 1.389 . S
C2591 C2592 1.524 . S
C2592 C2591 1.524 . S
C2592 C2593 1.397 . S
C2592 C2597 1.363 . S
C2593 H2564 0.950 . S
C2593 C2592 1.397 . S
C2593 C2594 1.334 . S
C2594 H2565 0.950 . S
C2594 C2593 1.334 . S
C2594 C2595 1.287 . S
C2595 C2594 1.287 . S
C2595 C2596 1.524 . S
C2595 H2598 0.999 . S
C2596 H2566 0.950 . S
C2596 C2595 1.524 . S
C2596 C2597 1.415 . S
C2597 H2567 0.950 . S
C2597 C2592 1.363 . S
C2597 C2596 1.415 . S
H2598 C2595 0.999 . S
H2599 C2580 0.913 . S
H2600 C2618 0.951 . S
H2601 C2620 0.951 . S
H2602 C2622 0.950 . S
H2603 C2623 0.950 . S
H2604 C2625 0.950 . S
H2605 C2628 0.950 . S
H2606 C2629 0.950 . S
H2607 C2631 0.950 . S
H2608 C2632 0.950 . S
H2609 C2633 0.951 . S
H2610 C2635 0.951 . S
H2611 C2637 0.950 . S
H2612 C2638 0.950 . S
H2613 C2640 0.950 . S
H2614 C2643 0.950 . S
H2615 C2644 0.950 . S
H2616 C2646 0.950 . S
H2617 C2647 0.950 . S
C2618 H2600 0.951 . S
C2618 C2619 1.366 . S
C2618 C2620 1.388 . S
C2619 C2618 1.366 . S
C2619 C2623 1.385 . S
C2620 H2601 0.951 . S
C2620 C2618 1.388 . S
C2620 C2621 1.366 . S
C2621 C2620 1.366 . S
C2621 C2622 1.414 . S
C2621 C2624 1.499 . S
C2622 H2602 0.950 . S
C2622 C2621 1.414 . S
C2622 C2623 1.374 . S
C2623 H2603 0.950 . S
C2623 C2619 1.385 . S
C2623 C2622 1.374 . S
C2624 C2621 1.499 . S
C2624 C2625 1.373 . S
C2624 C2626 1.389 . S
C2625 H2604 0.950 . S
C2625 C2624 1.373 . S
C2625 C2641 1.377 . S
C2626 C2624 1.389 . S
C2626 C2627 1.524 . S
C2626 C2640 1.377 . S
C2627 C2626 1.524 . S
C2627 C2628 1.397 . S
C2627 C2632 1.363 . S
C2628 H2605 0.950 . S
C2628 C2627 1.397 . S
C2628 C2629 1.334 . S
C2629 H2606 0.950 . S
C2629 C2628 1.334 . S
C2629 C2630 1.287 . S
C2630 C2629 1.287 . S
C2630 C2631 1.524 . S
C2630 H2649 0.913 . S
C2631 H2607 0.950 . S
C2631 C2630 1.524 . S
C2631 C2632 1.415 . S
C2632 H2608 0.950 . S
C2632 C2627 1.363 . S
C2632 C2631 1.415 . S
C2633 H2609 0.951 . S
C2633 C2634 1.366 . S
C2633 C2635 1.388 . S
C2634 C2633 1.366 . S
C2634 C2638 1.385 . S
C2635 H2610 0.951 . S
C2635 C2633 1.388 . S
C2635 C2636 1.366 . S
C2636 C2635 1.366 . S
C2636 C2637 1.414 . S
C2636 C2639 1.499 . S
C2637 H2611 0.950 . S
C2637 C2636 1.414 . S
C2637 C2638 1.374 . S
C2638 H2612 0.950 . S
C2638 C2634 1.385 . S
C2638 C2637 1.374 . S
C2639 C2636 1.499 . S
C2639 C2640 1.373 . S
C2639 C2641 1.389 . S
C2640 H2613 0.950 . S
C2640 C2626 1.377 . S
C2640 C2639 1.373 . S
C2641 C2625 1.377 . S
C2641 C2639 1.389 . S
C2641 C2642 1.524 . S
C2642 C2641 1.524 . S
C2642 C2643 1.397 . S
C2642 C2647 1.363 . S
C2643 H2614 0.950 . S
C2643 C2642 1.397 . S
C2643 C2644 1.334 . S
C2644 H2615 0.950 . S
C2644 C2643 1.334 . S
C2644 C2645 1.287 . S
C2645 C2644 1.287 . S
C2645 C2646 1.524 . S
C2645 H2648 0.999 . S
C2646 H2616 0.950 . S
C2646 C2645 1.524 . S
C2646 C2647 1.415 . S
C2647 H2617 0.950 . S
C2647 C2642 1.363 . S
C2647 C2646 1.415 . S
H2648 C2645 0.999 . S
H2649 C2630 0.913 . S
H2650 C2668 0.951 . S
H2651 C2670 0.951 . S
H2652 C2672 0.950 . S
H2653 C2673 0.950 . S
H2654 C2675 0.950 . S
H2655 C2678 0.950 . S
H2656 C2679 0.950 . S
H2657 C2681 0.950 . S
H2658 C2682 0.950 . S
H2659 C2683 0.951 . S
H2660 C2685 0.951 . S
H2661 C2687 0.950 . S
H2662 C2688 0.950 . S
H2663 C2690 0.950 . S
H2664 C2693 0.950 . S
H2665 C2694 0.950 . S
H2666 C2696 0.950 . S
H2667 C2697 0.950 . S
C2668 H2650 0.951 . S
C2668 C2669 1.366 . S
C2668 C2670 1.388 . S
C2669 C2668 1.366 . S
C2669 C2673 1.385 . S
C2670 H2651 0.951 . S
C2670 C2668 1.388 . S
C2670 C2671 1.366 . S
C2671 C2670 1.366 . S
C2671 C2672 1.414 . S
C2671 C2674 1.499 . S
C2672 H2652 0.950 . S
C2672 C2671 1.414 . S
C2672 C2673 1.374 . S
C2673 H2653 0.950 . S
C2673 C2669 1.385 . S
C2673 C2672 1.374 . S
C2674 C2671 1.499 . S
C2674 C2675 1.373 . S
C2674 C2676 1.389 . S
C2675 H2654 0.950 . S
C2675 C2674 1.373 . S
C2675 C2691 1.377 . S
C2676 C2674 1.389 . S
C2676 C2677 1.524 . S
C2676 C2690 1.377 . S
C2677 C2676 1.524 . S
C2677 C2678 1.397 . S
C2677 C2682 1.363 . S
C2678 H2655 0.950 . S
C2678 C2677 1.397 . S
C2678 C2679 1.334 . S
C2679 H2656 0.950 . S
C2679 C2678 1.334 . S
C2679 C2680 1.287 . S
C2680 C2679 1.287 . S
C2680 C2681 1.524 . S
C2680 H2699 0.913 . S
C2681 H2657 0.950 . S
C2681 C2680 1.524 . S
C2681 C2682 1.415 . S
C2682 H2658 0.950 . S
C2682 C2677 1.363 . S
C2682 C2681 1.415 . S
C2683 H2659 0.951 . S
C2683 C2684 1.366 . S
C2683 C2685 1.388 . S
C2684 C2683 1.366 . S
C2684 C2688 1.385 . S
C2685 H2660 0.951 . S
C2685 C2683 1.388 . S
C2685 C2686 1.366 . S
C2686 C2685 1.366 . S
C2686 C2687 1.414 . S
C2686 C2689 1.499 . S
C2687 H2661 0.950 . S
C2687 C2686 1.414 . S
C2687 C2688 1.374 . S
C2688 H2662 0.950 . S
C2688 C2684 1.385 . S
C2688 C2687 1.374 . S
C2689 C2686 1.499 . S
C2689 C2690 1.373 . S
C2689 C2691 1.389 . S
C2690 H2663 0.950 . S
C2690 C2676 1.377 . S
C2690 C2689 1.373 . S
C2691 C2675 1.377 . S
C2691 C2689 1.389 . S
C2691 C2692 1.524 . S
C2692 C2691 1.524 . S
C2692 C2693 1.397 . S
C2692 C2697 1.363 . S
C2693 H2664 0.950 . S
C2693 C2692 1.397 . S
C2693 C2694 1.334 . S
C2694 H2665 0.950 . S
C2694 C2693 1.334 . S
C2694 C2695 1.287 . S
C2695 C2694 1.287 . S
C2695 C2696 1.524 . S
C2695 H2698 0.999 . S
C2696 H2666 0.950 . S
C2696 C2695 1.524 . S
C2696 C2697 1.415 . S
C2697 H2667 0.950 . S
C2697 C2692 1.363 . S
C2697 C2696 1.415 . S
H2698 C2695 0.999 . S
H2699 C2680 0.913 . S
H2700 C2718 0.951 . S
H2701 C2720 0.951 . S
H2702 C2722 0.950 . S
H2703 C2723 0.950 . S
H2704 C2725 0.950 . S
H2705 C2728 0.950 . S
H2706 C2729 0.950 . S
H2707 C2731 0.950 . S
H2708 C2732 0.950 . S
H2709 C2733 0.951 . S
H2710 C2735 0.951 . S
H2711 C2737 0.950 . S
H2712 C2738 0.950 . S
H2713 C2740 0.950 . S
H2714 C2743 0.950 . S
H2715 C2744 0.950 . S
H2716 C2746 0.950 . S
H2717 C2747 0.950 . S
C2718 H2700 0.951 . S
C2718 C2719 1.366 . S
C2718 C2720 1.388 . S
C2719 C2718 1.366 . S
C2719 C2723 1.385 . S
C2720 H2701 0.951 . S
C2720 C2718 1.388 . S
C2720 C2721 1.366 . S
C2721 C2720 1.366 . S
C2721 C2722 1.414 . S
C2721 C2724 1.499 . S
C2722 H2702 0.950 . S
C2722 C2721 1.414 . S
C2722 C2723 1.374 . S
C2723 H2703 0.950 . S
C2723 C2719 1.385 . S
C2723 C2722 1.374 . S
C2724 C2721 1.499 . S
C2724 C2725 1.373 . S
C2724 C2726 1.389 . S
C2725 H2704 0.950 . S
C2725 C2724 1.373 . S
C2725 C2741 1.377 . S
C2726 C2724 1.389 . S
C2726 C2727 1.524 . S
C2726 C2740 1.377 . S
C2727 C2726 1.524 . S
C2727 C2728 1.397 . S
C2727 C2732 1.363 . S
C2728 H2705 0.950 . S
C2728 C2727 1.397 . S
C2728 C2729 1.334 . S
C2729 H2706 0.950 . S
C2729 C2728 1.334 . S
C2729 C2730 1.287 . S
C2730 C2729 1.287 . S
C2730 C2731 1.524 . S
C2730 H2749 0.913 . S
C2731 H2707 0.950 . S
C2731 C2730 1.524 . S
C2731 C2732 1.415 . S
C2732 H2708 0.950 . S
C2732 C2727 1.363 . S
C2732 C2731 1.415 . S
C2733 H2709 0.951 . S
C2733 C2734 1.366 . S
C2733 C2735 1.388 . S
C2734 C2733 1.366 . S
C2734 C2738 1.385 . S
C2735 H2710 0.951 . S
C2735 C2733 1.388 . S
C2735 C2736 1.366 . S
C2736 C2735 1.366 . S
C2736 C2737 1.414 . S
C2736 C2739 1.499 . S
C2737 H2711 0.950 . S
C2737 C2736 1.414 . S
C2737 C2738 1.374 . S
C2738 H2712 0.950 . S
C2738 C2734 1.385 . S
C2738 C2737 1.374 . S
C2739 C2736 1.499 . S
C2739 C2740 1.373 . S
C2739 C2741 1.389 . S
C2740 H2713 0.950 . S
C2740 C2726 1.377 . S
C2740 C2739 1.373 . S
C2741 C2725 1.377 . S
C2741 C2739 1.389 . S
C2741 C2742 1.524 . S
C2742 C2741 1.524 . S
C2742 C2743 1.397 . S
C2742 C2747 1.363 . S
C2743 H2714 0.950 . S
C2743 C2742 1.397 . S
C2743 C2744 1.334 . S
C2744 H2715 0.950 . S
C2744 C2743 1.334 . S
C2744 C2745 1.287 . S
C2745 C2744 1.287 . S
C2745 C2746 1.524 . S
C2745 H2748 0.999 . S
C2746 H2716 0.950 . S
C2746 C2745 1.524 . S
C2746 C2747 1.415 . S
C2747 H2717 0.950 . S
C2747 C2742 1.363 . S
C2747 C2746 1.415 . S
H2748 C2745 0.999 . S
H2749 C2730 0.913 . S
H2750 C2768 0.951 . S
H2751 C2770 0.951 . S
H2752 C2772 0.950 . S
H2753 C2773 0.950 . S
H2754 C2775 0.950 . S
H2755 C2778 0.950 . S
H2756 C2779 0.950 . S
H2757 C2781 0.950 . S
H2758 C2782 0.950 . S
H2759 C2783 0.951 . S
H2760 C2785 0.951 . S
H2761 C2787 0.950 . S
H2762 C2788 0.950 . S
H2763 C2790 0.950 . S
H2764 C2793 0.950 . S
H2765 C2794 0.950 . S
H2766 C2796 0.950 . S
H2767 C2797 0.950 . S
C2768 H2750 0.951 . S
C2768 C2769 1.366 . S
C2768 C2770 1.388 . S
C2769 C2768 1.366 . S
C2769 C2773 1.385 . S
C2770 H2751 0.951 . S
C2770 C2768 1.388 . S
C2770 C2771 1.366 . S
C2771 C2770 1.366 . S
C2771 C2772 1.414 . S
C2771 C2774 1.499 . S
C2772 H2752 0.950 . S
C2772 C2771 1.414 . S
C2772 C2773 1.374 . S
C2773 H2753 0.950 . S
C2773 C2769 1.385 . S
C2773 C2772 1.374 . S
C2774 C2771 1.499 . S
C2774 C2775 1.373 . S
C2774 C2776 1.389 . S
C2775 H2754 0.950 . S
C2775 C2774 1.373 . S
C2775 C2791 1.377 . S
C2776 C2774 1.389 . S
C2776 C2777 1.524 . S
C2776 C2790 1.377 . S
C2777 C2776 1.524 . S
C2777 C2778 1.397 . S
C2777 C2782 1.363 . S
C2778 H2755 0.950 . S
C2778 C2777 1.397 . S
C2778 C2779 1.334 . S
C2779 H2756 0.950 . S
C2779 C2778 1.334 . S
C2779 C2780 1.287 . S
C2780 C2779 1.287 . S
C2780 C2781 1.524 . S
C2780 H2799 0.913 . S
C2781 H2757 0.950 . S
C2781 C2780 1.524 . S
C2781 C2782 1.415 . S
C2782 H2758 0.950 . S
C2782 C2777 1.363 . S
C2782 C2781 1.415 . S
C2783 H2759 0.951 . S
C2783 C2784 1.366 . S
C2783 C2785 1.388 . S
C2784 C2783 1.366 . S
C2784 C2788 1.385 . S
C2785 H2760 0.951 . S
C2785 C2783 1.388 . S
C2785 C2786 1.366 . S
C2786 C2785 1.366 . S
C2786 C2787 1.414 . S
C2786 C2789 1.499 . S
C2787 H2761 0.950 . S
C2787 C2786 1.414 . S
C2787 C2788 1.374 . S
C2788 H2762 0.950 . S
C2788 C2784 1.385 . S
C2788 C2787 1.374 . S
C2789 C2786 1.499 . S
C2789 C2790 1.373 . S
C2789 C2791 1.389 . S
C2790 H2763 0.950 . S
C2790 C2776 1.377 . S
C2790 C2789 1.373 . S
C2791 C2775 1.377 . S
C2791 C2789 1.389 . S
C2791 C2792 1.524 . S
C2792 C2791 1.524 . S
C2792 C2793 1.397 . S
C2792 C2797 1.363 . S
C2793 H2764 0.950 . S
C2793 C2792 1.397 . S
C2793 C2794 1.334 . S
C2794 H2765 0.950 . S
C2794 C2793 1.334 . S
C2794 C2795 1.287 . S
C2795 C2794 1.287 . S
C2795 C2796 1.524 . S
C2795 H2798 0.999 . S
C2796 H2766 0.950 . S
C2796 C2795 1.524 . S
C2796 C2797 1.415 . S
C2797 H2767 0.950 . S
C2797 C2792 1.363 . S
C2797 C2796 1.415 . S
H2798 C2795 0.999 . S
H2799 C2780 0.913 . S
H2800 C2818 0.951 . S
H2801 C2820 0.951 . S
H2802 C2822 0.950 . S
H2803 C2823 0.950 . S
H2804 C2825 0.950 . S
H2805 C2828 0.950 . S
H2806 C2829 0.950 . S
H2807 C2831 0.950 . S
H2808 C2832 0.950 . S
H2809 C2833 0.951 . S
H2810 C2835 0.951 . S
H2811 C2837 0.950 . S
H2812 C2838 0.950 . S
H2813 C2840 0.950 . S
H2814 C2843 0.950 . S
H2815 C2844 0.950 . S
H2816 C2846 0.950 . S
H2817 C2847 0.950 . S
C2818 H2800 0.951 . S
C2818 C2819 1.366 . S
C2818 C2820 1.388 . S
C2819 C2818 1.366 . S
C2819 C2823 1.385 . S
C2820 H2801 0.951 . S
C2820 C2818 1.388 . S
C2820 C2821 1.366 . S
C2821 C2820 1.366 . S
C2821 C2822 1.414 . S
C2821 C2824 1.499 . S
C2822 H2802 0.950 . S
C2822 C2821 1.414 . S
C2822 C2823 1.374 . S
C2823 H2803 0.950 . S
C2823 C2819 1.385 . S
C2823 C2822 1.374 . S
C2824 C2821 1.499 . S
C2824 C2825 1.373 . S
C2824 C2826 1.389 . S
C2825 H2804 0.950 . S
C2825 C2824 1.373 . S
C2825 C2841 1.377 . S
C2826 C2824 1.389 . S
C2826 C2827 1.524 . S
C2826 C2840 1.377 . S
C2827 C2826 1.524 . S
C2827 C2828 1.397 . S
C2827 C2832 1.363 . S
C2828 H2805 0.950 . S
C2828 C2827 1.397 . S
C2828 C2829 1.334 . S
C2829 H2806 0.950 . S
C2829 C2828 1.334 . S
C2829 C2830 1.287 . S
C2830 C2829 1.287 . S
C2830 C2831 1.524 . S
C2830 H2849 0.913 . S
C2831 H2807 0.950 . S
C2831 C2830 1.524 . S
C2831 C2832 1.415 . S
C2832 H2808 0.950 . S
C2832 C2827 1.363 . S
C2832 C2831 1.415 . S
C2833 H2809 0.951 . S
C2833 C2834 1.366 . S
C2833 C2835 1.388 . S
C2834 C2833 1.366 . S
C2834 C2838 1.385 . S
C2835 H2810 0.951 . S
C2835 C2833 1.388 . S
C2835 C2836 1.366 . S
C2836 C2835 1.366 . S
C2836 C2837 1.414 . S
C2836 C2839 1.499 . S
C2837 H2811 0.950 . S
C2837 C2836 1.414 . S
C2837 C2838 1.374 . S
C2838 H2812 0.950 . S
C2838 C2834 1.385 . S
C2838 C2837 1.374 . S
C2839 C2836 1.499 . S
C2839 C2840 1.373 . S
C2839 C2841 1.389 . S
C2840 H2813 0.950 . S
C2840 C2826 1.377 . S
C2840 C2839 1.373 . S
C2841 C2825 1.377 . S
C2841 C2839 1.389 . S
C2841 C2842 1.524 . S
C2842 C2841 1.524 . S
C2842 C2843 1.397 . S
C2842 C2847 1.363 . S
C2843 H2814 0.950 . S
C2843 C2842 1.397 . S
C2843 C2844 1.334 . S
C2844 H2815 0.950 . S
C2844 C2843 1.334 . S
C2844 C2845 1.287 . S
C2845 C2844 1.287 . S
C2845 C2846 1.524 . S
C2845 H2848 0.999 . S
C2846 H2816 0.950 . S
C2846 C2845 1.524 . S
C2846 C2847 1.415 . S
C2847 H2817 0.950 . S
C2847 C2842 1.363 . S
C2847 C2846 1.415 . S
H2848 C2845 0.999 . S
H2849 C2830 0.913 . S
H2850 C2868 0.951 . S
H2851 C2870 0.951 . S
H2852 C2872 0.950 . S
H2853 C2873 0.950 . S
H2854 C2875 0.950 . S
H2855 C2878 0.950 . S
H2856 C2879 0.950 . S
H2857 C2881 0.950 . S
H2858 C2882 0.950 . S
H2859 C2883 0.951 . S
H2860 C2885 0.951 . S
H2861 C2887 0.950 . S
H2862 C2888 0.950 . S
H2863 C2890 0.950 . S
H2864 C2893 0.950 . S
H2865 C2894 0.950 . S
H2866 C2896 0.950 . S
H2867 C2897 0.950 . S
C2868 H2850 0.951 . S
C2868 C2869 1.366 . S
C2868 C2870 1.388 . S
C2869 C2868 1.366 . S
C2869 C2873 1.385 . S
C2870 H2851 0.951 . S
C2870 C2868 1.388 . S
C2870 C2871 1.366 . S
C2871 C2870 1.366 . S
C2871 C2872 1.414 . S
C2871 C2874 1.499 . S
C2872 H2852 0.950 . S
C2872 C2871 1.414 . S
C2872 C2873 1.374 . S
C2873 H2853 0.950 . S
C2873 C2869 1.385 . S
C2873 C2872 1.374 . S
C2874 C2871 1.499 . S
C2874 C2875 1.373 . S
C2874 C2876 1.389 . S
C2875 H2854 0.950 . S
C2875 C2874 1.373 . S
C2875 C2891 1.377 . S
C2876 C2874 1.389 . S
C2876 C2877 1.524 . S
C2876 C2890 1.377 . S
C2877 C2876 1.524 . S
C2877 C2878 1.397 . S
C2877 C2882 1.363 . S
C2878 H2855 0.950 . S
C2878 C2877 1.397 . S
C2878 C2879 1.334 . S
C2879 H2856 0.950 . S
C2879 C2878 1.334 . S
C2879 C2880 1.287 . S
C2880 C2879 1.287 . S
C2880 C2881 1.524 . S
C2880 H2899 0.913 . S
C2881 H2857 0.950 . S
C2881 C2880 1.524 . S
C2881 C2882 1.415 . S
C2882 H2858 0.950 . S
C2882 C2877 1.363 . S
C2882 C2881 1.415 . S
C2883 H2859 0.951 . S
C2883 C2884 1.366 . S
C2883 C2885 1.388 . S
C2884 C2883 1.366 . S
C2884 C2888 1.385 . S
C2885 H2860 0.951 . S
C2885 C2883 1.388 . S
C2885 C2886 1.366 . S
C2886 C2885 1.366 . S
C2886 C2887 1.414 . S
C2886 C2889 1.499 . S
C2887 H2861 0.950 . S
C2887 C2886 1.414 . S
C2887 C2888 1.374 . S
C2888 H2862 0.950 . S
C2888 C2884 1.385 . S
C2888 C2887 1.374 . S
C2889 C2886 1.499 . S
C2889 C2890 1.373 . S
C2889 C2891 1.389 . S
C2890 H2863 0.950 . S
C2890 C2876 1.377 . S
C2890 C2889 1.373 . S
C2891 C2875 1.377 . S
C2891 C2889 1.389 . S
C2891 C2892 1.524 . S
C2892 C2891 1.524 . S
C2892 C2893 1.397 . S
C2892 C2897 1.363 . S
C2893 H2864 0.950 . S
C2893 C2892 1.397 . S
C2893 C2894 1.334 . S
C2894 H2865 0.950 . S
C2894 C2893 1.334 . S
C2894 C2895 1.287 . S
C2895 C2894 1.287 . S
C2895 C2896 1.524 . S
C2895 H2898 0.999 . S
C2896 H2866 0.950 . S
C2896 C2895 1.524 . S
C2896 C2897 1.415 . S
C2897 H2867 0.950 . S
C2897 C2892 1.363 . S
C2897 C2896 1.415 . S
H2898 C2895 0.999 . S
H2899 C2880 0.913 . S
H2900 C2918 0.951 . S
H2901 C2920 0.951 . S
H2902 C2922 0.950 . S
H2903 C2923 0.950 . S
H2904 C2925 0.950 . S
H2905 C2928 0.950 . S
H2906 C2929 0.950 . S
H2907 C2931 0.950 . S
H2908 C2932 0.950 . S
H2909 C2933 0.951 . S
H2910 C2935 0.951 . S
H2911 C2937 0.950 . S
H2912 C2938 0.950 . S
H2913 C2940 0.950 . S
H2914 C2943 0.950 . S
H2915 C2944 0.950 . S
H2916 C2946 0.950 . S
H2917 C2947 0.950 . S
C2918 H2900 0.951 . S
C2918 C2919 1.366 . S
C2918 C2920 1.388 . S
C2919 C2918 1.366 . S
C2919 C2923 1.385 . S
C2920 H2901 0.951 . S
C2920 C2918 1.388 . S
C2920 C2921 1.366 . S
C2921 C2920 1.366 . S
C2921 C2922 1.414 . S
C2921 C2924 1.499 . S
C2922 H2902 0.950 . S
C2922 C2921 1.414 . S
C2922 C2923 1.374 . S
C2923 H2903 0.950 . S
C2923 C2919 1.385 . S
C2923 C2922 1.374 . S
C2924 C2921 1.499 . S
C2924 C2925 1.373 . S
C2924 C2926 1.389 . S
C2925 H2904 0.950 . S
C2925 C2924 1.373 . S
C2925 C2941 1.377 . S
C2926 C2924 1.389 . S
C2926 C2927 1.524 . S
C2926 C2940 1.377 . S
C2927 C2926 1.524 . S
C2927 C2928 1.397 . S
C2927 C2932 1.363 . S
C2928 H2905 0.950 . S
C2928 C2927 1.397 . S
C2928 C2929 1.334 . S
C2929 H2906 0.950 . S
C2929 C2928 1.334 . S
C2929 C2930 1.287 . S
C2930 C2929 1.287 . S
C2930 C2931 1.524 . S
C2930 H2949 0.913 . S
C2931 H2907 0.950 . S
C2931 C2930 1.524 . S
C2931 C2932 1.415 . S
C2932 H2908 0.950 . S
C2932 C2927 1.363 . S
C2932 C2931 1.415 . S
C2933 H2909 0.951 . S
C2933 C2934 1.366 . S
C2933 C2935 1.388 . S
C2934 C2933 1.366 . S
C2934 C2938 1.385 . S
C2935 H2910 0.951 . S
C2935 C2933 1.388 . S
C2935 C2936 1.366 . S
C2936 C2935 1.366 . S
C2936 C2937 1.414 . S
C2936 C2939 1.499 . S
C2937 H2911 0.950 . S
C2937 C2936 1.414 . S
C2937 C2938 1.374 . S
C2938 H2912 0.950 . S
C2938 C2934 1.385 . S
C2938 C2937 1.374 . S
C2939 C2936 1.499 . S
C2939 C2940 1.373 . S
C2939 C2941 1.389 . S
C2940 H2913 0.950 . S
C2940 C2926 1.377 . S
C2940 C2939 1.373 . S
C2941 C2925 1.377 . S
C2941 C2939 1.389 . S
C2941 C2942 1.524 . S
C2942 C2941 1.524 . S
C2942 C2943 1.397 . S
C2942 C2947 1.363 . S
C2943 H2914 0.950 . S
C2943 C2942 1.397 . S
C2943 C2944 1.334 . S
C2944 H2915 0.950 . S
C2944 C2943 1.334 . S
C2944 C2945 1.287 . S
C2945 C2944 1.287 . S
C2945 C2946 1.524 . S
C2945 H2948 0.999 . S
C2946 H2916 0.950 . S
C2946 C2945 1.524 . S
C2946 C2947 1.415 . S
C2947 H2917 0.950 . S
C2947 C2942 1.363 . S
C2947 C2946 1.415 . S
H2948 C2945 0.999 . S
H2949 C2930 0.913 . S
H2950 C2968 0.951 . S
H2951 C2970 0.951 . S
H2952 C2972 0.950 . S
H2953 C2973 0.950 . S
H2954 C2975 0.950 . S
H2955 C2978 0.950 . S
H2956 C2979 0.950 . S
H2957 C2981 0.950 . S
H2958 C2982 0.950 . S
H2959 C2983 0.951 . S
H2960 C2985 0.951 . S
H2961 C2987 0.950 . S
H2962 C2988 0.950 . S
H2963 C2990 0.950 . S
H2964 C2993 0.950 . S
H2965 C2994 0.950 . S
H2966 C2996 0.950 . S
H2967 C2997 0.950 . S
C2968 H2950 0.951 . S
C2968 C2969 1.366 . S
C2968 C2970 1.388 . S
C2969 C2968 1.366 . S
C2969 C2973 1.385 . S
C2970 H2951 0.951 . S
C2970 C2968 1.388 . S
C2970 C2971 1.366 . S
C2971 C2970 1.366 . S
C2971 C2972 1.414 . S
C2971 C2974 1.499 . S
C2972 H2952 0.950 . S
C2972 C2971 1.414 . S
C2972 C2973 1.374 . S
C2973 H2953 0.950 . S
C2973 C2969 1.385 . S
C2973 C2972 1.374 . S
C2974 C2971 1.499 . S
C2974 C2975 1.373 . S
C2974 C2976 1.389 . S
C2975 H2954 0.950 . S
C2975 C2974 1.373 . S
C2975 C2991 1.377 . S
C2976 C2974 1.389 . S
C2976 C2977 1.524 . S
C2976 C2990 1.377 . S
C2977 C2976 1.524 . S
C2977 C2978 1.397 . S
C2977 C2982 1.363 . S
C2978 H2955 0.950 . S
C2978 C2977 1.397 . S
C2978 C2979 1.334 . S
C2979 H2956 0.950 . S
C2979 C2978 1.334 . S
C2979 C2980 1.287 . S
C2980 C2979 1.287 . S
C2980 C2981 1.524 . S
C2980 H2999 0.913 . S
C2981 H2957 0.950 . S
C2981 C2980 1.524 . S
C2981 C2982 1.415 . S
C2982 H2958 0.950 . S
C2982 C2977 1.363 . S
C2982 C2981 1.415 . S
C2983 H2959 0.951 . S
C2983 C2984 1.366 . S
C2983 C2985 1.388 . S
C2984 C2983 1.366 . S
C2984 C2988 1.385 . S
C2985 H2960 0.951 . S
C2985 C2983 1.388 . S
C2985 C2986 1.366 . S
C2986 C2985 1.366 . S
C2986 C2987 1.414 . S
C2986 C2989 1.499 . S
C2987 H2961 0.950 . S
C2987 C2986 1.414 . S
C2987 C2988 1.374 . S
C2988 H2962 0.950 . S
C2988 C2984 1.385 . S
C2988 C2987 1.374 . S
C2989 C2986 1.499 . S
C2989 C2990 1.373 . S
C2989 C2991 1.389 . S
C2990 H2963 0.950 . S
C2990 C2976 1.377 . S
C2990 C2989 1.373 . S
C2991 C2975 1.377 . S
C2991 C2989 1.389 . S
C2991 C2992 1.524 . S
C2992 C2991 1.524 . S
C2992 C2993 1.397 . S
C2992 C2997 1.363 . S
C2993 H2964 0.950 . S
C2993 C2992 1.397 . S
C2993 C2994 1.334 . S
C2994 H2965 0.950 . S
C2994 C2993 1.334 . S
C2994 C2995 1.287 . S
C2995 C2994 1.287 . S
C2995 C2996 1.524 . S
C2995 H2998 0.999 . S
C2996 H2966 0.950 . S
C2996 C2995 1.524 . S
C2996 C2997 1.415 . S
C2997 H2967 0.950 . S
C2997 C2992 1.363 . S
C2997 C2996 1.415 . S
H2998 C2995 0.999 . S
H2999 C2980 0.913 . S
H3000 C3018 0.951 . S
H3001 C3020 0.951 . S
H3002 C3022 0.950 . S
H3003 C3023 0.950 . S
H3004 C3025 0.950 . S
H3005 C3028 0.950 . S
H3006 C3029 0.950 . S
H3007 C3031 0.950 . S
H3008 C3032 0.950 . S
H3009 C3033 0.951 . S
H3010 C3035 0.951 . S
H3011 C3037 0.950 . S
H3012 C3038 0.950 . S
H3013 C3040 0.950 . S
H3014 C3043 0.950 . S
H3015 C3044 0.950 . S
H3016 C3046 0.950 . S
H3017 C3047 0.950 . S
C3018 H3000 0.951 . S
C3018 C3019 1.366 . S
C3018 C3020 1.388 . S
C3019 C3018 1.366 . S
C3019 C3023 1.385 . S
C3020 H3001 0.951 . S
C3020 C3018 1.388 . S
C3020 C3021 1.366 . S
C3021 C3020 1.366 . S
C3021 C3022 1.414 . S
C3021 C3024 1.499 . S
C3022 H3002 0.950 . S
C3022 C3021 1.414 . S
C3022 C3023 1.374 . S
C3023 H3003 0.950 . S
C3023 C3019 1.385 . S
C3023 C3022 1.374 . S
C3024 C3021 1.499 . S
C3024 C3025 1.373 . S
C3024 C3026 1.389 . S
C3025 H3004 0.950 . S
C3025 C3024 1.373 . S
C3025 C3041 1.377 . S
C3026 C3024 1.389 . S
C3026 C3027 1.524 . S
C3026 C3040 1.377 . S
C3027 C3026 1.524 . S
C3027 C3028 1.397 . S
C3027 C3032 1.363 . S
C3028 H3005 0.950 . S
C3028 C3027 1.397 . S
C3028 C3029 1.334 . S
C3029 H3006 0.950 . S
C3029 C3028 1.334 . S
C3029 C3030 1.287 . S
C3030 C3029 1.287 . S
C3030 C3031 1.524 . S
C3030 H3049 0.913 . S
C3031 H3007 0.950 . S
C3031 C3030 1.524 . S
C3031 C3032 1.415 . S
C3032 H3008 0.950 . S
C3032 C3027 1.363 . S
C3032 C3031 1.415 . S
C3033 H3009 0.951 . S
C3033 C3034 1.366 . S
C3033 C3035 1.388 . S
C3034 C3033 1.366 . S
C3034 C3038 1.385 . S
C3035 H3010 0.951 . S
C3035 C3033 1.388 . S
C3035 C3036 1.366 . S
C3036 C3035 1.366 . S
C3036 C3037 1.414 . S
C3036 C3039 1.499 . S
C3037 H3011 0.950 . S
C3037 C3036 1.414 . S
C3037 C3038 1.374 . S
C3038 H3012 0.950 . S
C3038 C3034 1.385 . S
C3038 C3037 1.374 . S
C3039 C3036 1.499 . S
C3039 C3040 1.373 . S
C3039 C3041 1.389 . S
C3040 H3013 0.950 . S
C3040 C3026 1.377 . S
C3040 C3039 1.373 . S
C3041 C3025 1.377 . S
C3041 C3039 1.389 . S
C3041 C3042 1.524 . S
C3042 C3041 1.524 . S
C3042 C3043 1.397 . S
C3042 C3047 1.363 . S
C3043 H3014 0.950 . S
C3043 C3042 1.397 . S
C3043 C3044 1.334 . S
C3044 H3015 0.950 . S
C3044 C3043 1.334 . S
C3044 C3045 1.287 . S
C3045 C3044 1.287 . S
C3045 C3046 1.524 . S
C3045 H3048 0.999 . S
C3046 H3016 0.950 . S
C3046 C3045 1.524 . S
C3046 C3047 1.415 . S
C3047 H3017 0.950 . S
C3047 C3042 1.363 . S
C3047 C3046 1.415 . S
H3048 C3045 0.999 . S
H3049 C3030 0.913 . S
H3050 C3068 0.951 . S
H3051 C3070 0.951 . S
H3052 C3072 0.950 . S
H3053 C3073 0.950 . S
H3054 C3075 0.950 . S
H3055 C3078 0.950 . S
H3056 C3079 0.950 . S
H3057 C3081 0.950 . S
H3058 C3082 0.950 . S
H3059 C3083 0.951 . S
H3060 C3085 0.951 . S
H3061 C3087 0.950 . S
H3062 C3088 0.950 . S
H3063 C3090 0.950 . S
H3064 C3093 0.950 . S
H3065 C3094 0.950 . S
H3066 C3096 0.950 . S
H3067 C3097 0.950 . S
C3068 H3050 0.951 . S
C3068 C3069 1.366 . S
C3068 C3070 1.388 . S
C3069 C3068 1.366 . S
C3069 C3073 1.385 . S
C3070 H3051 0.951 . S
C3070 C3068 1.388 . S
C3070 C3071 1.366 . S
C3071 C3070 1.366 . S
C3071 C3072 1.414 . S
C3071 C3074 1.499 . S
C3072 H3052 0.950 . S
C3072 C3071 1.414 . S
C3072 C3073 1.374 . S
C3073 H3053 0.950 . S
C3073 C3069 1.385 . S
C3073 C3072 1.374 . S
C3074 C3071 1.499 . S
C3074 C3075 1.373 . S
C3074 C3076 1.389 . S
C3075 H3054 0.950 . S
C3075 C3074 1.373 . S
C3075 C3091 1.377 . S
C3076 C3074 1.389 . S
C3076 C3077 1.524 . S
C3076 C3090 1.377 . S
C3077 C3076 1.524 . S
C3077 C3078 1.397 . S
C3077 C3082 1.363 . S
C3078 H3055 0.950 . S
C3078 C3077 1.397 . S
C3078 C3079 1.334 . S
C3079 H3056 0.950 . S
C3079 C3078 1.334 . S
C3079 C3080 1.287 . S
C3080 C3079 1.287 . S
C3080 C3081 1.524 . S
C3080 H3099 0.913 . S
C3081 H3057 0.950 . S
C3081 C3080 1.524 . S
C3081 C3082 1.415 . S
C3082 H3058 0.950 . S
C3082 C3077 1.363 . S
C3082 C3081 1.415 . S
C3083 H3059 0.951 . S
C3083 C3084 1.366 . S
C3083 C3085 1.388 . S
C3084 C3083 1.366 . S
C3084 C3088 1.385 . S
C3085 H3060 0.951 . S
C3085 C3083 1.388 . S
C3085 C3086 1.366 . S
C3086 C3085 1.366 . S
C3086 C3087 1.414 . S
C3086 C3089 1.499 . S
C3087 H3061 0.950 . S
C3087 C3086 1.414 . S
C3087 C3088 1.374 . S
C3088 H3062 0.950 . S
C3088 C3084 1.385 . S
C3088 C3087 1.374 . S
C3089 C3086 1.499 . S
C3089 C3090 1.373 . S
C3089 C3091 1.389 . S
C3090 H3063 0.950 . S
C3090 C3076 1.377 . S
C3090 C3089 1.373 . S
C3091 C3075 1.377 . S
C3091 C3089 1.389 . S
C3091 C3092 1.524 . S
C3092 C3091 1.524 . S
C3092 C3093 1.397 . S
C3092 C3097 1.363 . S
C3093 H3064 0.950 . S
C3093 C3092 1.397 . S
C3093 C3094 1.334 . S
C3094 H3065 0.950 . S
C3094 C3093 1.334 . S
C3094 C3095 1.287 . S
C3095 C3094 1.287 . S
C3095 C3096 1.524 . S
C3095 H3098 0.999 . S
C3096 H3066 0.950 . S
C3096 C3095 1.524 . S
C3096 C3097 1.415 . S
C3097 H3067 0.950 . S
C3097 C3092 1.363 . S
C3097 C3096 1.415 . S
H3098 C3095 0.999 . S
H3099 C3080 0.913 . S
H3100 C3118 0.951 . S
H3101 C3120 0.951 . S
H3102 C3122 0.950 . S
H3103 C3123 0.950 . S
H3104 C3125 0.950 . S
H3105 C3128 0.950 . S
H3106 C3129 0.950 . S
H3107 C3131 0.950 . S
H3108 C3132 0.950 . S
H3109 C3133 0.951 . S
H3110 C3135 0.951 . S
H3111 C3137 0.950 . S
H3112 C3138 0.950 . S
H3113 C3140 0.950 . S
H3114 C3143 0.950 . S
H3115 C3144 0.950 . S
H3116 C3146 0.950 . S
H3117 C3147 0.950 . S
C3118 H3100 0.951 . S
C3118 C3119 1.366 . S
C3118 C3120 1.388 . S
C3119 C3118 1.366 . S
C3119 C3123 1.385 . S
C3120 H3101 0.951 . S
C3120 C3118 1.388 . S
C3120 C3121 1.366 . S
C3121 C3120 1.366 . S
C3121 C3122 1.414 . S
C3121 C3124 1.499 . S
C3122 H3102 0.950 . S
C3122 C3121 1.414 . S
C3122 C3123 1.374 . S
C3123 H3103 0.950 . S
C3123 C3119 1.385 . S
C3123 C3122 1.374 . S
C3124 C3121 1.499 . S
C3124 C3125 1.373 . S
C3124 C3126 1.389 . S
C3125 H3104 0.950 . S
C3125 C3124 1.373 . S
C3125 C3141 1.377 . S
C3126 C3124 1.389 . S
C3126 C3127 1.524 . S
C3126 C3140 1.377 . S
C3127 C3126 1.524 . S
C3127 C3128 1.397 . S
C3127 C3132 1.363 . S
C3128 H3105 0.950 . S
C3128 C3127 1.397 . S
C3128 C3129 1.334 . S
C3129 H3106 0.950 . S
C3129 C3128 1.334 . S
C3129 C3130 1.287 . S
C3130 C3129 1.287 . S
C3130 C3131 1.524 . S
C3130 H3149 0.913 . S
C3131 H3107 0.950 . S
C3131 C3130 1.524 . S
C3131 C3132 1.415 . S
C3132 H3108 0.950 . S
C3132 C3127 1.363 . S
C3132 C3131 1.415 . S
C3133 H3109 0.951 . S
C3133 C3134 1.366 . S
C3133 C3135 1.388 . S
C3134 C3133 1.366 . S
C3134 C3138 1.385 . S
C3135 H3110 0.951 . S
C3135 C3133 1.388 . S
C3135 C3136 1.366 . S
C3136 C3135 1.366 . S
C3136 C3137 1.414 . S
C3136 C3139 1.499 . S
C3137 H3111 0.950 . S
C3137 C3136 1.414 . S
C3137 C3138 1.374 . S
C3138 H3112 0.950 . S
C3138 C3134 1.385 . S
C3138 C3137 1.374 . S
C3139 C3136 1.499 . S
C3139 C3140 1.373 . S
C3139 C3141 1.389 . S
C3140 H3113 0.950 . S
C3140 C3126 1.377 . S
C3140 C3139 1.373 . S
C3141 C3125 1.377 . S
C3141 C3139 1.389 . S
C3141 C3142 1.524 . S
C3142 C3141 1.524 . S
C3142 C3143 1.397 . S
C3142 C3147 1.363 . S
C3143 H3114 0.950 . S
C3143 C3142 1.397 . S
C3143 C3144 1.334 . S
C3144 H3115 0.950 . S
C3144 C3143 1.334 . S
C3144 C3145 1.287 . S
C3145 C3144 1.287 . S
C3145 C3146 1.524 . S
C3145 H3148 0.999 . S
C3146 H3116 0.950 . S
C3146 C3145 1.524 . S
C3146 C3147 1.415 . S
C3147 H3117 0.950 . S
C3147 C3142 1.363 . S
C3147 C3146 1.415 . S
H3148 C3145 0.999 . S
H3149 C3130 0.913 . S
H3150 C3168 0.951 . S
H3151 C3170 0.951 . S
H3152 C3172 0.950 . S
H3153 C3173 0.950 . S
H3154 C3175 0.950 . S
H3155 C3178 0.950 . S
H3156 C3179 0.950 . S
H3157 C3181 0.950 . S
H3158 C3182 0.950 . S
H3159 C3183 0.951 . S
H3160 C3185 0.951 . S
H3161 C3187 0.950 . S
H3162 C3188 0.950 . S
H3163 C3190 0.950 . S
H3164 C3193 0.950 . S
H3165 C3194 0.950 . S
H3166 C3196 0.950 . S
H3167 C3197 0.950 . S
C3168 H3150 0.951 . S
C3168 C3169 1.366 . S
C3168 C3170 1.388 . S
C3169 C3168 1.366 . S
C3169 C3173 1.385 . S
C3170 H3151 0.951 . S
C3170 C3168 1.388 . S
C3170 C3171 1.366 . S
C3171 C3170 1.366 . S
C3171 C3172 1.414 . S
C3171 C3174 1.499 . S
C3172 H3152 0.950 . S
C3172 C3171 1.414 . S
C3172 C3173 1.374 . S
C3173 H3153 0.950 . S
C3173 C3169 1.385 . S
C3173 C3172 1.374 . S
C3174 C3171 1.499 . S
C3174 C3175 1.373 . S
C3174 C3176 1.389 . S
C3175 H3154 0.950 . S
C3175 C3174 1.373 . S
C3175 C3191 1.377 . S
C3176 C3174 1.389 . S
C3176 C3177 1.524 . S
C3176 C3190 1.377 . S
C3177 C3176 1.524 . S
C3177 C3178 1.397 . S
C3177 C3182 1.363 . S
C3178 H3155 0.950 . S
C3178 C3177 1.397 . S
C3178 C3179 1.334 . S
C3179 H3156 0.950 . S
C3179 C3178 1.334 . S
C3179 C3180 1.287 . S
C3180 C3179 1.287 . S
C3180 C3181 1.524 . S
C3180 H3199 0.913 . S
C3181 H3157 0.950 . S
C3181 C3180 1.524 . S
C3181 C3182 1.415 . S
C3182 H3158 0.950 . S
C3182 C3177 1.363 . S
C3182 C3181 1.415 . S
C3183 H3159 0.951 . S
C3183 C3184 1.366 . S
C3183 C3185 1.388 . S
C3184 C3183 1.366 . S
C3184 C3188 1.385 . S
C3185 H3160 0.951 . S
C3185 C3183 1.388 . S
C3185 C3186 1.366 . S
C3186 C3185 1.366 . S
C3186 C3187 1.414 . S
C3186 C3189 1.499 . S
C3187 H3161 0.950 . S
C3187 C3186 1.414 . S
C3187 C3188 1.374 . S
C3188 H3162 0.950 . S
C3188 C3184 1.385 . S
C3188 C3187 1.374 . S
C3189 C3186 1.499 . S
C3189 C3190 1.373 . S
C3189 C3191 1.389 . S
C3190 H3163 0.950 . S
C3190 C3176 1.377 . S
C3190 C3189 1.373 . S
C3191 C3175 1.377 . S
C3191 C3189 1.389 . S
C3191 C3192 1.524 . S
C3192 C3191 1.524 . S
C3192 C3193 1.397 . S
C3192 C3197 1.363 . S
C3193 H3164 0.950 . S
C3193 C3192 1.397 . S
C3193 C3194 1.334 . S
C3194 H3165 0.950 . S
C3194 C3193 1.334 . S
C3194 C3195 1.287 . S
C3195 C3194 1.287 . S
C3195 C3196 1.524 . S
C3195 H3198 0.999 . S
C3196 H3166 0.950 . S
C3196 C3195 1.524 . S
C3196 C3197 1.415 . S
C3197 H3167 0.950 . S
C3197 C3192 1.363 . S
C3197 C3196 1.415 . S
H3198 C3195 0.999 . S
H3199 C3180 0.913 . S
H3200 C3218 0.951 . S
H3201 C3220 0.951 . S
H3202 C3222 0.950 . S
H3203 C3223 0.950 . S
H3204 C3225 0.950 . S
H3205 C3228 0.950 . S
H3206 C3229 0.981 . S
H3207 C3231 0.950 . S
H3208 C3232 0.950 . S
H3209 C3233 0.951 . S
H3210 C3235 0.951 . S
H3211 C3237 0.950 . S
H3212 C3238 0.950 . S
H3213 C3240 0.950 . S
H3214 C3243 0.950 . S
H3215 C3244 0.950 . S
H3216 C3246 0.950 . S
H3217 C3247 0.950 . S
C3218 H3200 0.951 . S
C3218 C3219 1.366 . S
C3218 C3220 1.388 . S
C3219 C3218 1.366 . S
C3219 C3223 1.385 . S
C3220 H3201 0.951 . S
C3220 C3218 1.388 . S
C3220 C3221 1.366 . S
C3221 C3220 1.366 . S
C3221 C3222 1.414 . S
C3221 C3224 1.499 . S
C3222 H3202 0.950 . S
C3222 C3221 1.414 . S
C3222 C3223 1.374 . S
C3223 H3203 0.950 . S
C3223 C3219 1.385 . S
C3223 C3222 1.374 . S
C3224 C3221 1.499 . S
C3224 C3225 1.373 . S
C3224 C3226 1.389 . S
C3225 H3204 0.950 . S
C3225 C3224 1.373 . S
C3225 C3241 1.377 . S
C3226 C3224 1.389 . S
C3226 C3227 1.524 . S
C3226 C3240 1.377 . S
C3227 C3226 1.524 . S
C3227 C3228 1.397 . S
C3227 C3232 1.363 . S
C3228 H3205 0.950 . S
C3228 C3227 1.397 . S
C3228 C3229 1.334 . S
C3229 H3206 0.981 . S
C3229 C3228 1.334 . S
C3229 C3230 1.287 . S
C3230 C3229 1.287 . S
C3230 C3231 1.524 . S
C3230 H3249 0.913 . S
C3231 H3207 0.950 . S
C3231 C3230 1.524 . S
C3231 C3232 1.415 . S
C3232 H3208 0.950 . S
C3232 C3227 1.363 . S
C3232 C3231 1.415 . S
C3233 H3209 0.951 . S
C3233 C3234 1.366 . S
C3233 C3235 1.388 . S
C3234 C3233 1.366 . S
C3234 C3238 1.385 . S
C3235 H3210 0.951 . S
C3235 C3233 1.388 . S
C3235 C3236 1.366 . S
C3236 C3235 1.366 . S
C3236 C3237 1.414 . S
C3236 C3239 1.499 . S
C3237 H3211 0.950 . S
C3237 C3236 1.414 . S
C3237 C3238 1.374 . S
C3238 H3212 0.950 . S
C3238 C3234 1.385 . S
C3238 C3237 1.374 . S
C3239 C3236 1.499 . S
C3239 C3240 1.373 . S
C3239 C3241 1.389 . S
C3240 H3213 0.950 . S
C3240 C3226 1.377 . S
C3240 C3239 1.373 . S
C3241 C3225 1.377 . S
C3241 C3239 1.389 . S
C3241 C3242 1.524 . S
C3242 C3241 1.524 . S
C3242 C3243 1.397 . S
C3242 C3247 1.363 . S
C3243 H3214 0.950 . S
C3243 C3242 1.397 . S
C3243 C3244 1.334 . S
C3244 H3215 0.950 . S
C3244 C3243 1.334 . S
C3244 C3245 1.287 . S
C3245 C3244 1.287 . S
C3245 C3246 1.524 . S
C3245 H3248 0.999 . S
C3246 H3216 0.950 . S
C3246 C3245 1.524 . S
C3246 C3247 1.415 . S
C3247 H3217 0.950 . S
C3247 C3242 1.363 . S
C3247 C3246 1.415 . S
H3248 C3245 0.999 . S
H3249 C3230 0.913 . S
H3250 C3268 0.951 . S
H3251 C3270 0.951 . S
H3252 C3272 0.950 . S
H3253 C3273 0.950 . S
H3254 C3275 0.950 . S
H3255 C3278 0.950 . S
H3256 C3279 0.950 . S
H3257 C3281 0.950 . S
H3258 C3282 0.950 . S
H3259 C3283 0.951 . S
H3260 C3285 0.951 . S
H3261 C3287 0.950 . S
H3262 C3288 0.950 . S
H3263 C3290 0.950 . S
H3264 C3293 0.950 . S
H3265 C3294 0.950 . S
H3266 C3296 0.950 . S
H3267 C3297 0.950 . S
C3268 H3250 0.951 . S
C3268 C3269 1.366 . S
C3268 C3270 1.388 . S
C3269 C3268 1.366 . S
C3269 C3273 1.385 . S
C3270 H3251 0.951 . S
C3270 C3268 1.388 . S
C3270 C3271 1.366 . S
C3271 C3270 1.366 . S
C3271 C3272 1.414 . S
C3271 C3274 1.499 . S
C3272 H3252 0.950 . S
C3272 C3271 1.414 . S
C3272 C3273 1.374 . S
C3273 H3253 0.950 . S
C3273 C3269 1.385 . S
C3273 C3272 1.374 . S
C3274 C3271 1.499 . S
C3274 C3275 1.373 . S
C3274 C3276 1.389 . S
C3275 H3254 0.950 . S
C3275 C3274 1.373 . S
C3275 C3291 1.377 . S
C3276 C3274 1.389 . S
C3276 C3277 1.524 . S
C3276 C3290 1.377 . S
C3277 C3276 1.524 . S
C3277 C3278 1.397 . S
C3277 C3282 1.363 . S
C3278 H3255 0.950 . S
C3278 C3277 1.397 . S
C3278 C3279 1.334 . S
C3279 H3256 0.950 . S
C3279 C3278 1.334 . S
C3279 C3280 1.287 . S
C3280 C3279 1.287 . S
C3280 C3281 1.524 . S
C3280 H3299 0.913 . S
C3281 H3257 0.950 . S
C3281 C3280 1.524 . S
C3281 C3282 1.415 . S
C3282 H3258 0.950 . S
C3282 C3277 1.363 . S
C3282 C3281 1.415 . S
C3283 H3259 0.951 . S
C3283 C3284 1.366 . S
C3283 C3285 1.388 . S
C3284 C3283 1.366 . S
C3284 C3288 1.385 . S
C3285 H3260 0.951 . S
C3285 C3283 1.388 . S
C3285 C3286 1.366 . S
C3286 C3285 1.366 . S
C3286 C3287 1.414 . S
C3286 C3289 1.499 . S
C3287 H3261 0.950 . S
C3287 C3286 1.414 . S
C3287 C3288 1.374 . S
C3288 H3262 0.950 . S
C3288 C3284 1.385 . S
C3288 C3287 1.374 . S
C3289 C3286 1.499 . S
C3289 C3290 1.373 . S
C3289 C3291 1.389 . S
C3290 H3263 0.950 . S
C3290 C3276 1.377 . S
C3290 C3289 1.373 . S
C3291 C3275 1.377 . S
C3291 C3289 1.389 . S
C3291 C3292 1.524 . S
C3292 C3291 1.524 . S
C3292 C3293 1.397 . S
C3292 C3297 1.363 . S
C3293 H3264 0.950 . S
C3293 C3292 1.397 . S
C3293 C3294 1.334 . S
C3294 H3265 0.950 . S
C3294 C3293 1.334 . S
C3294 C3295 1.287 . S
C3295 C3294 1.287 . S
C3295 C3296 1.524 . S
C3295 H3298 0.999 . S
C3296 H3266 0.950 . S
C3296 C3295 1.524 . S
C3296 C3297 1.415 . S
C3297 H3267 0.950 . S
C3297 C3292 1.363 . S
C3297 C3296 1.415 . S
H3298 C3295 0.999 . S
H3299 C3280 0.913 . S
H3300 C3318 0.951 . S
H3301 C3320 0.951 . S
H3302 C3322 0.950 . S
H3303 C3323 0.942 1_554 S
H3304 C3325 0.950 . S
H3305 C3328 0.950 . S
H3306 C3329 0.950 . S
H3307 C3331 0.950 . S
H3308 C3332 0.950 . S
H3309 C3333 0.951 . S
H3310 C3335 0.951 . S
H3311 C3337 0.950 . S
H3312 C3338 0.950 . S
H3313 C3340 0.950 . S
H3314 C3343 0.950 . S
H3315 C3344 0.950 . S
H3316 C3346 0.950 . S
H3317 C3347 0.950 . S
C3318 H3300 0.951 . S
C3318 C3319 1.366 . S
C3318 C3320 1.388 . S
C3319 C3318 1.366 . S
C3319 C3323 1.388 . S
C3320 H3301 0.951 . S
C3320 C3318 1.388 . S
C3320 C3321 1.366 . S
C3321 C3320 1.366 . S
C3321 C3322 1.414 . S
C3321 C3324 1.499 . S
C3322 H3302 0.950 . S
C3322 C3321 1.414 . S
C3322 C3323 1.378 . S
C3323 H3303 0.942 1_556 S
C3323 C3319 1.388 . S
C3323 C3322 1.378 . S
C3324 C3321 1.499 . S
C3324 C3325 1.373 . S
C3324 C3326 1.389 . S
C3325 H3304 0.950 . S
C3325 C3324 1.373 . S
C3325 C3341 1.377 . S
C3326 C3324 1.389 . S
C3326 C3327 1.524 . S
C3326 C3340 1.377 . S
C3327 C3326 1.524 . S
C3327 C3328 1.397 1_556 S
C3327 C3332 1.363 . S
C3328 H3305 0.950 . S
C3328 C3327 1.397 1_554 S
C3328 C3329 1.334 . S
C3329 H3306 0.950 . S
C3329 C3328 1.334 . S
C3329 C3330 1.287 . S
C3330 C3329 1.287 . S
C3330 C3331 1.524 1_554 S
C3330 H3349 0.913 . S
C3331 H3307 0.950 . S
C3331 C3330 1.524 1_556 S
C3331 C3332 1.415 . S
C3332 H3308 0.950 . S
C3332 C3327 1.363 . S
C3332 C3331 1.415 . S
C3333 H3309 0.951 . S
C3333 C3334 1.366 . S
C3333 C3335 1.388 . S
C3334 C3333 1.366 . S
C3334 C3338 1.385 . S
C3335 H3310 0.951 . S
C3335 C3333 1.388 . S
C3335 C3336 1.366 . S
C3336 C3335 1.366 . S
C3336 C3337 1.414 . S
C3336 C3339 1.499 . S
C3337 H3311 0.950 . S
C3337 C3336 1.414 . S
C3337 C3338 1.374 . S
C3338 H3312 0.950 . S
C3338 C3334 1.385 . S
C3338 C3337 1.374 . S
C3339 C3336 1.499 . S
C3339 C3340 1.373 . S
C3339 C3341 1.389 . S
C3340 H3313 0.950 . S
C3340 C3326 1.377 . S
C3340 C3339 1.373 . S
C3341 C3325 1.377 . S
C3341 C3339 1.389 . S
C3341 C3342 1.524 . S
C3342 C3341 1.524 . S
C3342 C3343 1.397 . S
C3342 C3347 1.363 . S
C3343 H3314 0.950 . S
C3343 C3342 1.397 . S
C3343 C3344 1.334 . S
C3344 H3315 0.950 . S
C3344 C3343 1.334 . S
C3344 C3345 1.287 . S
C3345 C3344 1.287 . S
C3345 C3346 1.524 . S
C3345 H3348 0.999 . S
C3346 H3316 0.950 . S
C3346 C3345 1.524 . S
C3346 C3347 1.415 . S
C3347 H3317 0.950 . S
C3347 C3342 1.363 . S
C3347 C3346 1.415 . S
H3348 C3345 0.999 . S
H3349 C3330 0.913 . S
H3350 C3368 0.951 . S
H3351 C3370 0.951 1_554 S
H3352 C3372 0.950 . S
H3353 C3373 0.950 . S
H3354 C3375 0.950 . S
H3355 C3378 0.950 . S
H3356 C3379 0.950 . S
H3357 C3381 0.950 1_554 S
H3358 C3382 0.950 . S
H3359 C3383 0.951 . S
H3360 C3385 0.951 . S
H3361 C3387 0.950 . S
H3362 C3388 0.950 . S
H3363 C3390 0.950 . S
H3364 C3393 0.950 . S
H3365 C3394 0.950 . S
H3366 C3396 0.950 . S
H3367 C3397 0.950 . S
C3368 H3350 0.951 . S
C3368 C3369 1.366 1_554 S
C3368 C3370 1.388 1_554 S
C3369 C3368 1.366 1_556 S
C3369 C3373 1.385 . S
C3370 H3351 0.951 1_556 S
C3370 C3368 1.388 1_556 S
C3370 C3371 1.366 . S
C3371 C3370 1.366 . S
C3371 C3372 1.414 . S
C3371 C3374 1.499 . S
C3372 H3352 0.950 . S
C3372 C3371 1.414 . S
C3372 C3373 1.374 . S
C3373 H3353 0.950 . S
C3373 C3369 1.385 . S
C3373 C3372 1.374 . S
C3374 C3371 1.499 . S
C3374 C3375 1.373 . S
C3374 C3376 1.389 . S
C3375 H3354 0.950 . S
C3375 C3374 1.373 . S
C3375 C3391 1.377 . S
C3376 C3374 1.389 . S
C3376 C3377 1.524 . S
C3376 C3390 1.377 . S
C3377 C3376 1.524 . S
C3377 C3378 1.397 . S
C3377 C3382 1.363 . S
C3378 H3355 0.950 . S
C3378 C3377 1.397 . S
C3378 C3379 1.334 . S
C3379 H3356 0.950 . S
C3379 C3378 1.334 . S
C3379 C3380 1.287 . S
C3380 C3379 1.287 . S
C3380 C3381 1.524 . S
C3380 H3399 0.913 . S
C3381 H3357 0.950 1_556 S
C3381 C3380 1.524 . S
C3381 C3382 1.415 . S
C3382 H3358 0.950 . S
C3382 C3377 1.363 . S
C3382 C3381 1.415 . S
C3383 H3359 0.951 . S
C3383 C3384 1.366 . S
C3383 C3385 1.388 . S
C3384 C3383 1.366 . S
C3384 C3388 1.385 . S
C3385 H3360 0.951 . S
C3385 C3383 1.388 . S
C3385 C3386 1.366 . S
C3386 C3385 1.366 . S
C3386 C3387 1.414 . S
C3386 C3389 1.499 . S
C3387 H3361 0.950 . S
C3387 C3386 1.414 . S
C3387 C3388 1.374 . S
C3388 H3362 0.950 . S
C3388 C3384 1.385 . S
C3388 C3387 1.374 . S
C3389 C3386 1.499 . S
C3389 C3390 1.373 . S
C3389 C3391 1.389 . S
C3390 H3363 0.950 . S
C3390 C3376 1.377 . S
C3390 C3389 1.373 . S
C3391 C3375 1.377 . S
C3391 C3389 1.389 . S
C3391 C3392 1.524 . S
C3392 C3391 1.524 . S
C3392 C3393 1.397 . S
C3392 C3397 1.363 . S
C3393 H3364 0.950 . S
C3393 C3392 1.397 . S
C3393 C3394 1.334 . S
C3394 H3365 0.950 . S
C3394 C3393 1.334 . S
C3394 C3395 1.287 . S
C3395 C3394 1.287 . S
C3395 C3396 1.524 . S
C3395 H3398 0.999 . S
C3396 H3366 0.950 . S
C3396 C3395 1.524 . S
C3396 C3397 1.415 . S
C3397 H3367 0.950 . S
C3397 C3392 1.363 . S
C3397 C3396 1.415 . S
H3398 C3395 0.999 . S
H3399 C3380 0.913 . S
H3400 C3418 0.951 1_554 S
H3401 C3420 0.951 . S
H3402 C3422 0.950 . S
H3403 C3423 0.950 . S
H3404 C3425 0.950 . S
H3405 C3428 0.950 . S
H3406 C3429 0.950 . S
H3407 C3431 0.950 . S
H3408 C3432 0.950 . S
H3409 C3433 0.951 . S
H3410 C3435 0.951 . S
H3411 C3437 0.950 . S
H3412 C3438 0.950 . S
H3413 C3440 0.950 . S
H3414 C3443 0.950 . S
H3415 C3444 0.950 . S
H3416 C3446 0.950 . S
H3417 C3447 0.950 . S
C3418 H3400 0.951 1_556 S
C3418 C3419 1.366 . S
C3418 C3420 1.388 . S
C3419 C3418 1.366 . S
C3419 C3423 1.385 . S
C3420 H3401 0.951 . S
C3420 C3418 1.388 . S
C3420 C3421 1.366 . S
C3421 C3420 1.366 . S
C3421 C3422 1.414 . S
C3421 C3424 1.499 . S
C3422 H3402 0.950 . S
C3422 C3421 1.414 . S
C3422 C3423 1.374 . S
C3423 H3403 0.950 . S
C3423 C3419 1.385 . S
C3423 C3422 1.374 . S
C3424 C3421 1.499 . S
C3424 C3425 1.373 . S
C3424 C3426 1.389 . S
C3425 H3404 0.950 . S
C3425 C3424 1.373 . S
C3425 C3441 1.377 . S
C3426 C3424 1.389 . S
C3426 C3427 1.524 1_556 S
C3426 C3440 1.377 . S
C3427 C3426 1.524 1_554 S
C3427 C3428 1.397 . S
C3427 C3432 1.363 . S
C3428 H3405 0.950 . S
C3428 C3427 1.397 . S
C3428 C3429 1.334 . S
C3429 H3406 0.950 . S
C3429 C3428 1.334 . S
C3429 C3430 1.287 . S
C3430 C3429 1.287 . S
C3430 C3431 1.524 . S
C3430 H3449 0.913 . S
C3431 H3407 0.950 . S
C3431 C3430 1.524 . S
C3431 C3432 1.415 . S
C3432 H3408 0.950 . S
C3432 C3427 1.363 . S
C3432 C3431 1.415 . S
C3433 H3409 0.951 . S
C3433 C3434 1.366 . S
C3433 C3435 1.388 . S
C3434 C3433 1.366 . S
C3434 C3438 1.385 . S
C3435 H3410 0.951 . S
C3435 C3433 1.388 . S
C3435 C3436 1.366 . S
C3436 C3435 1.366 . S
C3436 C3437 1.414 . S
C3436 C3439 1.499 . S
C3437 H3411 0.950 . S
C3437 C3436 1.414 . S
C3437 C3438 1.374 . S
C3438 H3412 0.950 . S
C3438 C3434 1.385 . S
C3438 C3437 1.374 . S
C3439 C3436 1.499 . S
C3439 C3440 1.373 . S
C3439 C3441 1.389 . S
C3440 H3413 0.950 . S
C3440 C3426 1.377 . S
C3440 C3439 1.373 . S
C3441 C3425 1.377 . S
C3441 C3439 1.389 . S
C3441 C3442 1.524 . S
C3442 C3441 1.524 . S
C3442 C3443 1.397 . S
C3442 C3447 1.363 . S
C3443 H3414 0.950 . S
C3443 C3442 1.397 . S
C3443 C3444 1.334 . S
C3444 H3415 0.950 . S
C3444 C3443 1.334 . S
C3444 C3445 1.287 . S
C3445 C3444 1.287 . S
C3445 C3446 1.524 . S
C3445 H3448 0.999 . S
C3446 H3416 0.950 . S
C3446 C3445 1.524 . S
C3446 C3447 1.415 . S
C3447 H3417 0.950 . S
C3447 C3442 1.363 . S
C3447 C3446 1.415 . S
H3448 C3445 0.999 . S
H3449 C3430 0.913 . S
H3450 C3468 0.951 . S
H3451 C3470 0.951 . S
H3452 C3472 0.950 1_554 S
H3453 C3473 0.950 . S
H3454 C3475 0.950 . S
H3455 C3478 0.950 . S
H3456 C3479 0.950 . S
H3457 C3481 0.950 . S
H3458 C3482 0.950 . S
H3459 C3483 0.951 . S
H3460 C3485 0.951 . S
H3461 C3487 0.950 . S
H3462 C3488 0.950 . S
H3463 C3490 0.950 . S
H3464 C3493 0.950 . S
H3465 C3494 0.950 . S
H3466 C3496 0.950 . S
H3467 C3497 0.950 . S
C3468 H3450 0.951 . S
C3468 C3469 1.366 . S
C3468 C3470 1.388 . S
C3469 C3468 1.366 . S
C3469 C3473 1.385 1_556 S
C3470 H3451 0.951 . S
C3470 C3468 1.388 . S
C3470 C3471 1.366 . S
C3471 C3470 1.366 . S
C3471 C3472 1.414 . S
C3471 C3474 1.499 . S
C3472 H3452 0.950 1_556 S
C3472 C3471 1.414 . S
C3472 C3473 1.374 1_556 S
C3473 H3453 0.950 . S
C3473 C3469 1.385 1_554 S
C3473 C3472 1.374 1_554 S
C3474 C3471 1.499 . S
C3474 C3475 1.373 . S
C3474 C3476 1.389 . S
C3475 H3454 0.950 . S
C3475 C3474 1.373 . S
C3475 C3491 1.377 . S
C3476 C3474 1.389 . S
C3476 C3477 1.524 . S
C3476 C3490 1.377 . S
C3477 C3476 1.524 . S
C3477 C3478 1.397 . S
C3477 C3482 1.363 . S
C3478 H3455 0.950 . S
C3478 C3477 1.397 . S
C3478 C3479 1.334 . S
C3479 H3456 0.950 . S
C3479 C3478 1.334 . S
C3479 C3480 1.287 . S
C3480 C3479 1.287 . S
C3480 C3481 1.524 . S
C3480 H3499 0.913 . S
C3481 H3457 0.950 . S
C3481 C3480 1.524 . S
C3481 C3482 1.415 . S
C3482 H3458 0.950 . S
C3482 C3477 1.363 . S
C3482 C3481 1.415 . S
C3483 H3459 0.951 . S
C3483 C3484 1.366 . S
C3483 C3485 1.388 . S
C3484 C3483 1.366 . S
C3484 C3488 1.385 . S
C3485 H3460 0.951 . S
C3485 C3483 1.388 . S
C3485 C3486 1.366 . S
C3486 C3485 1.366 . S
C3486 C3487 1.414 . S
C3486 C3489 1.499 . S
C3487 H3461 0.950 . S
C3487 C3486 1.414 . S
C3487 C3488 1.374 . S
C3488 H3462 0.950 . S
C3488 C3484 1.385 . S
C3488 C3487 1.374 . S
C3489 C3486 1.499 . S
C3489 C3490 1.373 . S
C3489 C3491 1.389 . S
C3490 H3463 0.950 . S
C3490 C3476 1.377 . S
C3490 C3489 1.373 . S
C3491 C3475 1.377 . S
C3491 C3489 1.389 . S
C3491 C3492 1.524 . S
C3492 C3491 1.524 . S
C3492 C3493 1.397 . S
C3492 C3497 1.363 1_556 S
C3493 H3464 0.950 . S
C3493 C3492 1.397 . S
C3493 C3494 1.334 . S
C3494 H3465 0.950 . S
C3494 C3493 1.334 . S
C3494 C3495 1.287 1_556 S
C3495 C3494 1.287 1_554 S
C3495 C3496 1.524 . S
C3495 H3498 0.999 . S
C3496 H3466 0.950 . S
C3496 C3495 1.524 . S
C3496 C3497 1.415 . S
C3497 H3467 0.950 . S
C3497 C3492 1.363 1_554 S
C3497 C3496 1.415 . S
H3498 C3495 0.999 . S
H3499 C3480 0.913 . S
H3500 C3518 0.951 . S
H3501 C3520 0.951 . S
H3502 C3522 0.966 . S
H3503 C3523 0.950 . S
H3504 C3525 0.950 . S
H3505 C3528 0.950 1_554 S
H3506 C3529 0.950 . S
H3507 C3531 0.950 . S
H3508 C3532 0.950 . S
H3509 C3533 0.951 . S
H3510 C3535 0.951 . S
H3511 C3537 0.950 . S
H3512 C3538 0.950 . S
H3513 C3540 0.950 . S
H3514 C3543 0.950 . S
H3515 C3544 0.950 . S
H3516 C3546 0.950 . S
H3517 C3547 0.950 . S
C3518 H3500 0.951 . S
C3518 C3519 1.366 . S
C3518 C3520 1.388 . S
C3519 C3518 1.366 . S
C3519 C3523 1.385 1_556 S
C3520 H3501 0.951 . S
C3520 C3518 1.388 . S
C3520 C3521 1.366 . S
C3521 C3520 1.366 . S
C3521 C3522 1.414 . S
C3521 C3524 1.499 . S
C3522 H3502 0.966 . S
C3522 C3521 1.414 . S
C3522 C3523 1.374 1_556 S
C3523 H3503 0.950 . S
C3523 C3519 1.385 1_554 S
C3523 C3522 1.374 1_554 S
C3524 C3521 1.499 . S
C3524 C3525 1.373 . S
C3524 C3526 1.389 . S
C3525 H3504 0.950 . S
C3525 C3524 1.373 . S
C3525 C3541 1.377 . S
C3526 C3524 1.389 . S
C3526 C3527 1.524 . S
C3526 C3540 1.377 . S
C3527 C3526 1.524 . S
C3527 C3528 1.397 . S
C3527 C3532 1.363 . S
C3528 H3505 0.950 1_556 S
C3528 C3527 1.397 . S
C3528 C3529 1.334 1_556 S
C3529 H3506 0.950 . S
C3529 C3528 1.334 1_554 S
C3529 C3530 1.287 1_554 S
C3530 C3529 1.287 1_556 S
C3530 C3531 1.524 . S
C3530 H3549 0.887 1_556 S
C3531 H3507 0.950 . S
C3531 C3530 1.524 . S
C3531 C3532 1.415 . S
C3532 H3508 0.950 . S
C3532 C3527 1.363 . S
C3532 C3531 1.415 . S
C3533 H3509 0.951 . S
C3533 C3534 1.366 . S
C3533 C3535 1.388 . S
C3534 C3533 1.366 . S
C3534 C3538 1.385 . S
C3535 H3510 0.951 . S
C3535 C3533 1.388 . S
C3535 C3536 1.366 . S
C3536 C3535 1.366 . S
C3536 C3537 1.414 . S
C3536 C3539 1.499 . S
C3537 H3511 0.950 . S
C3537 C3536 1.414 . S
C3537 C3538 1.374 . S
C3538 H3512 0.950 . S
C3538 C3534 1.385 . S
C3538 C3537 1.374 . S
C3539 C3536 1.499 . S
C3539 C3540 1.373 . S
C3539 C3541 1.389 . S
C3540 H3513 0.950 . S
C3540 C3526 1.377 . S
C3540 C3539 1.373 . S
C3541 C3525 1.377 . S
C3541 C3539 1.389 . S
C3541 C3542 1.524 . S
C3542 C3541 1.524 . S
C3542 C3543 1.397 . S
C3542 C3547 1.363 . S
C3543 H3514 0.950 . S
C3543 C3542 1.397 . S
C3543 C3544 1.334 . S
C3544 H3515 0.950 . S
C3544 C3543 1.334 . S
C3544 C3545 1.287 . S
C3545 C3544 1.287 . S
C3545 C3546 1.524 . S
C3545 H3548 0.999 . S
C3546 H3516 0.950 . S
C3546 C3545 1.524 . S
C3546 C3547 1.415 . S
C3547 H3517 0.950 . S
C3547 C3542 1.363 . S
C3547 C3546 1.415 . S
H3548 C3545 0.999 . S
H3549 C3530 0.887 1_554 S
H3550 C3568 0.951 . S
H3551 C3570 0.952 . S
H3552 C3572 0.950 . S
H3553 C3573 0.950 . S
H3554 C3575 0.950 . S
H3555 C3578 0.950 . S
H3556 C3579 0.950 . S
H3557 C3581 0.950 . S
H3558 C3582 0.950 . S
H3559 C3583 0.951 . S
H3560 C3585 0.951 . S
H3561 C3587 0.950 . S
H3562 C3588 0.950 . S
H3563 C3590 0.950 . S
H3564 C3593 0.950 . S
H3565 C3594 0.950 . S
H3566 C3596 0.950 . S
H3567 C3597 0.950 . S
C3568 H3550 0.951 . S
C3568 C3569 1.366 1_554 S
C3568 C3570 1.388 1_554 S
C3569 C3568 1.366 1_556 S
C3569 C3573 1.385 . S
C3570 H3551 0.952 . S
C3570 C3568 1.388 1_556 S
C3570 C3571 1.366 . S
C3571 C3570 1.366 . S
C3571 C3572 1.414 . S
C3571 C3574 1.499 . S
C3572 H3552 0.950 . S
C3572 C3571 1.414 . S
C3572 C3573 1.374 . S
C3573 H3553 0.950 . S
C3573 C3569 1.385 . S
C3573 C3572 1.374 . S
C3574 C3571 1.499 . S
C3574 C3575 1.373 . S
C3574 C3576 1.389 . S
C3575 H3554 0.950 . S
C3575 C3574 1.373 . S
C3575 C3591 1.377 . S
C3576 C3574 1.389 . S
C3576 C3577 1.524 1_556 S
C3576 C3590 1.377 . S
C3577 C3576 1.524 1_554 S
C3577 C3578 1.397 . S
C3577 C3582 1.363 . S
C3578 H3555 0.950 . S
C3578 C3577 1.397 . S
C3578 C3579 1.334 . S
C3579 H3556 0.950 . S
C3579 C3578 1.334 . S
C3579 C3580 1.287 . S
C3580 C3579 1.287 . S
C3580 C3581 1.524 . S
C3580 H3599 0.913 . S
C3581 H3557 0.950 . S
C3581 C3580 1.524 . S
C3581 C3582 1.415 . S
C3582 H3558 0.950 . S
C3582 C3577 1.363 . S
C3582 C3581 1.415 . S
C3583 H3559 0.951 . S
C3583 C3584 1.366 . S
C3583 C3585 1.388 . S
C3584 C3583 1.366 . S
C3584 C3588 1.385 . S
C3585 H3560 0.951 . S
C3585 C3583 1.388 . S
C3585 C3586 1.366 . S
C3586 C3585 1.366 . S
C3586 C3587 1.414 . S
C3586 C3589 1.499 . S
C3587 H3561 0.950 . S
C3587 C3586 1.414 . S
C3587 C3588 1.374 . S
C3588 H3562 0.950 . S
C3588 C3584 1.385 . S
C3588 C3587 1.374 . S
C3589 C3586 1.499 . S
C3589 C3590 1.373 . S
C3589 C3591 1.389 . S
C3590 H3563 0.950 . S
C3590 C3576 1.377 . S
C3590 C3589 1.373 . S
C3591 C3575 1.377 . S
C3591 C3589 1.389 . S
C3591 C3592 1.524 . S
C3592 C3591 1.524 . S
C3592 C3593 1.397 . S
C3592 C3597 1.363 . S
C3593 H3564 0.950 . S
C3593 C3592 1.397 . S
C3593 C3594 1.334 . S
C3594 H3565 0.950 . S
C3594 C3593 1.334 . S
C3594 C3595 1.287 . S
C3595 C3594 1.287 . S
C3595 C3596 1.524 . S
C3595 H3598 0.999 . S
C3596 H3566 0.950 . S
C3596 C3595 1.524 . S
C3596 C3597 1.415 . S
C3597 H3567 0.950 . S
C3597 C3592 1.363 . S
C3597 C3596 1.415 . S
H3598 C3595 0.999 . S
H3599 C3580 0.913 . S
H3600 C3618 0.951 . S
H3601 C3620 0.951 . S
H3602 C3622 0.950 . S
H3603 C3623 0.950 . S
H3604 C3625 0.950 . S
H3605 C3628 0.950 . S
H3606 C3629 0.950 1_556 S
H3607 C3631 0.943 1_556 S
H3608 C3632 0.950 . S
H3609 C3633 0.951 . S
H3610 C3635 0.951 . S
H3611 C3637 0.950 . S
H3612 C3638 0.950 . S
H3613 C3640 0.950 . S
H3614 C3643 0.950 . S
H3615 C3644 0.950 . S
H3616 C3646 0.950 . S
H3617 C3647 0.950 . S
C3618 H3600 0.951 . S
C3618 C3619 1.366 . S
C3618 C3620 1.388 . S
C3619 C3618 1.366 . S
C3619 C3623 1.385 . S
C3620 H3601 0.951 . S
C3620 C3618 1.388 . S
C3620 C3621 1.366 . S
C3621 C3620 1.366 . S
C3621 C3622 1.414 . S
C3621 C3624 1.499 . S
C3622 H3602 0.950 . S
C3622 C3621 1.414 . S
C3622 C3623 1.374 . S
C3623 H3603 0.950 . S
C3623 C3619 1.385 . S
C3623 C3622 1.374 . S
C3624 C3621 1.499 . S
C3624 C3625 1.373 . S
C3624 C3626 1.389 . S
C3625 H3604 0.950 . S
C3625 C3624 1.373 . S
C3625 C3641 1.377 . S
C3626 C3624 1.389 . S
C3626 C3627 1.524 . S
C3626 C3640 1.377 . S
C3627 C3626 1.524 . S
C3627 C3628 1.397 . S
C3627 C3632 1.363 . S
C3628 H3605 0.950 . S
C3628 C3627 1.397 . S
C3628 C3629 1.334 . S
C3629 H3606 0.950 1_554 S
C3629 C3628 1.334 . S
C3629 C3630 1.287 1_554 S
C3630 C3629 1.287 1_556 S
C3630 C3631 1.524 1_556 S
C3630 H3649 0.913 . S
C3631 H3607 0.943 1_554 S
C3631 C3630 1.524 1_554 S
C3631 C3632 1.415 . S
C3632 H3608 0.950 . S
C3632 C3627 1.363 . S
C3632 C3631 1.415 . S
C3633 H3609 0.951 . S
C3633 C3634 1.366 . S
C3633 C3635 1.388 . S
C3634 C3633 1.366 . S
C3634 C3638 1.385 . S
C3635 H3610 0.951 . S
C3635 C3633 1.388 . S
C3635 C3636 1.366 . S
C3636 C3635 1.366 . S
C3636 C3637 1.414 . S
C3636 C3639 1.499 . S
C3637 H3611 0.950 . S
C3637 C3636 1.414 . S
C3637 C3638 1.374 . S
C3638 H3612 0.950 . S
C3638 C3634 1.385 . S
C3638 C3637 1.374 . S
C3639 C3636 1.499 . S
C3639 C3640 1.373 . S
C3639 C3641 1.389 . S
C3640 H3613 0.950 . S
C3640 C3626 1.377 . S
C3640 C3639 1.373 . S
C3641 C3625 1.377 . S
C3641 C3639 1.389 . S
C3641 C3642 1.524 . S
C3642 C3641 1.524 . S
C3642 C3643 1.397 . S
C3642 C3647 1.363 . S
C3643 H3614 0.950 . S
C3643 C3642 1.397 . S
C3643 C3644 1.334 . S
C3644 H3615 0.950 . S
C3644 C3643 1.334 . S
C3644 C3645 1.287 . S
C3645 C3644 1.287 . S
C3645 C3646 1.524 . S
C3645 H3648 0.999 . S
C3646 H3616 0.950 . S
C3646 C3645 1.524 . S
C3646 C3647 1.415 . S
C3647 H3617 0.950 . S
C3647 C3642 1.363 . S
C3647 C3646 1.415 . S
H3648 C3645 0.999 . S
H3649 C3630 0.913 . S
H3650 C3668 0.951 . S
H3651 C3670 0.951 . S
H3652 C3672 0.950 . S
H3653 C3673 0.950 . S
H3654 C3675 0.950 . S
H3655 C3678 0.950 . S
H3656 C3679 0.950 . S
H3657 C3681 0.950 . S
H3658 C3682 0.950 . S
H3659 C3683 0.951 . S
H3660 C3685 0.951 . S
H3661 C3687 0.950 . S
H3662 C3688 0.950 . S
H3663 C3690 0.950 . S
H3664 C3693 0.950 . S
H3665 C3694 0.950 . S
H3666 C3696 0.950 . S
H3667 C3697 0.950 . S
C3668 H3650 0.951 . S
C3668 C3669 1.366 . S
C3668 C3670 1.388 . S
C3669 C3668 1.366 . S
C3669 C3673 1.385 . S
C3670 H3651 0.951 . S
C3670 C3668 1.388 . S
C3670 C3671 1.366 . S
C3671 C3670 1.366 . S
C3671 C3672 1.414 . S
C3671 C3674 1.499 . S
C3672 H3652 0.950 . S
C3672 C3671 1.414 . S
C3672 C3673 1.374 . S
C3673 H3653 0.950 . S
C3673 C3669 1.385 . S
C3673 C3672 1.374 . S
C3674 C3671 1.499 . S
C3674 C3675 1.373 . S
C3674 C3676 1.389 . S
C3675 H3654 0.950 . S
C3675 C3674 1.373 . S
C3675 C3691 1.377 . S
C3676 C3674 1.389 . S
C3676 C3677 1.524 . S
C3676 C3690 1.377 . S
C3677 C3676 1.524 . S
C3677 C3678 1.397 . S
C3677 C3682 1.363 . S
C3678 H3655 0.950 . S
C3678 C3677 1.397 . S
C3678 C3679 1.334 . S
C3679 H3656 0.950 . S
C3679 C3678 1.334 . S
C3679 C3680 1.287 . S
C3680 C3679 1.287 . S
C3680 C3681 1.524 . S
C3680 H3699 0.913 . S
C3681 H3657 0.950 . S
C3681 C3680 1.524 . S
C3681 C3682 1.415 . S
C3682 H3658 0.950 . S
C3682 C3677 1.363 . S
C3682 C3681 1.415 . S
C3683 H3659 0.951 . S
C3683 C3684 1.366 . S
C3683 C3685 1.388 . S
C3684 C3683 1.366 . S
C3684 C3688 1.385 . S
C3685 H3660 0.951 . S
C3685 C3683 1.388 . S
C3685 C3686 1.366 . S
C3686 C3685 1.366 . S
C3686 C3687 1.414 . S
C3686 C3689 1.499 . S
C3687 H3661 0.950 . S
C3687 C3686 1.414 . S
C3687 C3688 1.374 . S
C3688 H3662 0.950 . S
C3688 C3684 1.385 . S
C3688 C3687 1.374 . S
C3689 C3686 1.499 . S
C3689 C3690 1.373 . S
C3689 C3691 1.389 . S
C3690 H3663 0.950 . S
C3690 C3676 1.377 . S
C3690 C3689 1.373 . S
C3691 C3675 1.377 . S
C3691 C3689 1.389 . S
C3691 C3692 1.524 . S
C3692 C3691 1.524 . S
C3692 C3693 1.397 . S
C3692 C3697 1.363 . S
C3693 H3664 0.950 . S
C3693 C3692 1.397 . S
C3693 C3694 1.334 . S
C3694 H3665 0.950 . S
C3694 C3693 1.334 . S
C3694 C3695 1.287 . S
C3695 C3694 1.287 . S
C3695 C3696 1.524 . S
C3695 H3698 0.999 . S
C3696 H3666 0.950 . S
C3696 C3695 1.524 . S
C3696 C3697 1.415 . S
C3697 H3667 0.950 . S
C3697 C3692 1.363 . S
C3697 C3696 1.415 . S
H3698 C3695 0.999 . S
H3699 C3680 0.913 . S
H3700 C3718 0.951 . S
H3701 C3720 0.951 . S
H3702 C3722 0.950 . S
H3703 C3723 0.950 . S
H3704 C3725 0.950 . S
H3705 C3728 0.950 . S
H3706 C3729 0.950 . S
H3707 C3731 0.950 . S
H3708 C3732 0.950 . S
H3709 C3733 0.951 . S
H3710 C3735 0.951 . S
H3711 C3737 0.950 . S
H3712 C3738 0.950 . S
H3713 C3740 0.950 . S
H3714 C3743 0.950 . S
H3715 C3744 0.950 . S
H3716 C3746 0.950 . S
H3717 C3747 0.950 . S
C3718 H3700 0.951 . S
C3718 C3719 1.366 . S
C3718 C3720 1.388 . S
C3719 C3718 1.366 . S
C3719 C3723 1.385 . S
C3720 H3701 0.951 . S
C3720 C3718 1.388 . S
C3720 C3721 1.366 . S
C3721 C3720 1.366 . S
C3721 C3722 1.414 . S
C3721 C3724 1.499 . S
C3722 H3702 0.950 . S
C3722 C3721 1.414 . S
C3722 C3723 1.374 . S
C3723 H3703 0.950 . S
C3723 C3719 1.385 . S
C3723 C3722 1.374 . S
C3724 C3721 1.499 . S
C3724 C3725 1.373 . S
C3724 C3726 1.389 . S
C3725 H3704 0.950 . S
C3725 C3724 1.373 . S
C3725 C3741 1.377 . S
C3726 C3724 1.389 . S
C3726 C3727 1.524 . S
C3726 C3740 1.377 . S
C3727 C3726 1.524 . S
C3727 C3728 1.397 . S
C3727 C3732 1.363 . S
C3728 H3705 0.950 . S
C3728 C3727 1.397 . S
C3728 C3729 1.334 . S
C3729 H3706 0.950 . S
C3729 C3728 1.334 . S
C3729 C3730 1.287 . S
C3730 C3729 1.287 . S
C3730 C3731 1.524 . S
C3730 H3749 0.913 . S
C3731 H3707 0.950 . S
C3731 C3730 1.524 . S
C3731 C3732 1.415 . S
C3732 H3708 0.950 . S
C3732 C3727 1.363 . S
C3732 C3731 1.415 . S
C3733 H3709 0.951 . S
C3733 C3734 1.366 . S
C3733 C3735 1.388 . S
C3734 C3733 1.366 . S
C3734 C3738 1.385 . S
C3735 H3710 0.951 . S
C3735 C3733 1.388 . S
C3735 C3736 1.366 . S
C3736 C3735 1.366 . S
C3736 C3737 1.414 . S
C3736 C3739 1.499 . S
C3737 H3711 0.950 . S
C3737 C3736 1.414 . S
C3737 C3738 1.374 . S
C3738 H3712 0.950 . S
C3738 C3734 1.385 . S
C3738 C3737 1.374 . S
C3739 C3736 1.499 . S
C3739 C3740 1.373 . S
C3739 C3741 1.389 . S
C3740 H3713 0.950 . S
C3740 C3726 1.377 . S
C3740 C3739 1.373 . S
C3741 C3725 1.377 . S
C3741 C3739 1.389 . S
C3741 C3742 1.524 . S
C3742 C3741 1.524 . S
C3742 C3743 1.397 . S
C3742 C3747 1.363 . S
C3743 H3714 0.950 . S
C3743 C3742 1.397 . S
C3743 C3744 1.334 . S
C3744 H3715 0.950 . S
C3744 C3743 1.334 . S
C3744 C3745 1.287 . S
C3745 C3744 1.287 . S
C3745 C3746 1.524 . S
C3745 H3748 0.999 . S
C3746 H3716 0.950 . S
C3746 C3745 1.524 . S
C3746 C3747 1.415 . S
C3747 H3717 0.950 . S
C3747 C3742 1.363 . S
C3747 C3746 1.415 . S
H3748 C3745 0.999 . S
H3749 C3730 0.913 . S
H3750 C3768 0.951 . S
H3751 C3770 0.951 . S
H3752 C3772 0.950 . S
H3753 C3773 0.950 . S
H3754 C3775 0.950 . S
H3755 C3778 0.950 . S
H3756 C3779 0.950 . S
H3757 C3781 0.950 . S
H3758 C3782 0.950 . S
H3759 C3783 0.951 . S
H3760 C3785 0.951 . S
H3761 C3787 0.950 . S
H3762 C3788 0.950 . S
H3763 C3790 0.950 . S
H3764 C3793 0.950 . S
H3765 C3794 0.950 . S
H3766 C3796 0.950 . S
H3767 C3797 0.950 . S
C3768 H3750 0.951 . S
C3768 C3769 1.366 . S
C3768 C3770 1.388 . S
C3769 C3768 1.366 . S
C3769 C3773 1.385 . S
C3770 H3751 0.951 . S
C3770 C3768 1.388 . S
C3770 C3771 1.366 . S
C3771 C3770 1.366 . S
C3771 C3772 1.414 . S
C3771 C3774 1.499 . S
C3772 H3752 0.950 . S
C3772 C3771 1.414 . S
C3772 C3773 1.374 . S
C3773 H3753 0.950 . S
C3773 C3769 1.385 . S
C3773 C3772 1.374 . S
C3774 C3771 1.499 . S
C3774 C3775 1.373 . S
C3774 C3776 1.389 . S
C3775 H3754 0.950 . S
C3775 C3774 1.373 . S
C3775 C3791 1.377 . S
C3776 C3774 1.389 . S
C3776 C3777 1.524 . S
C3776 C3790 1.377 . S
C3777 C3776 1.524 . S
C3777 C3778 1.397 . S
C3777 C3782 1.363 . S
C3778 H3755 0.950 . S
C3778 C3777 1.397 . S
C3778 C3779 1.334 . S
C3779 H3756 0.950 . S
C3779 C3778 1.334 . S
C3779 C3780 1.287 . S
C3780 C3779 1.287 . S
C3780 C3781 1.524 . S
C3780 H3799 0.913 . S
C3781 H3757 0.950 . S
C3781 C3780 1.524 . S
C3781 C3782 1.415 . S
C3782 H3758 0.950 . S
C3782 C3777 1.363 . S
C3782 C3781 1.415 . S
C3783 H3759 0.951 . S
C3783 C3784 1.366 . S
C3783 C3785 1.388 . S
C3784 C3783 1.366 . S
C3784 C3788 1.385 . S
C3785 H3760 0.951 . S
C3785 C3783 1.388 . S
C3785 C3786 1.366 . S
C3786 C3785 1.366 . S
C3786 C3787 1.414 . S
C3786 C3789 1.499 . S
C3787 H3761 0.950 . S
C3787 C3786 1.414 . S
C3787 C3788 1.374 . S
C3788 H3762 0.950 . S
C3788 C3784 1.385 . S
C3788 C3787 1.374 . S
C3789 C3786 1.499 . S
C3789 C3790 1.373 . S
C3789 C3791 1.389 . S
C3790 H3763 0.950 . S
C3790 C3776 1.377 . S
C3790 C3789 1.373 . S
C3791 C3775 1.377 . S
C3791 C3789 1.389 . S
C3791 C3792 1.524 . S
C3792 C3791 1.524 . S
C3792 C3793 1.397 . S
C3792 C3797 1.363 . S
C3793 H3764 0.950 . S
C3793 C3792 1.397 . S
C3793 C3794 1.334 . S
C3794 H3765 0.950 . S
C3794 C3793 1.334 . S
C3794 C3795 1.287 . S
C3795 C3794 1.287 . S
C3795 C3796 1.524 . S
C3795 H3798 0.999 . S
C3796 H3766 0.950 . S
C3796 C3795 1.524 . S
C3796 C3797 1.415 . S
C3797 H3767 0.950 . S
C3797 C3792 1.363 . S
C3797 C3796 1.415 . S
H3798 C3795 0.999 . S
H3799 C3780 0.913 . S
H3800 C3818 0.951 . S
H3801 C3820 0.951 . S
H3802 C3822 0.950 . S
H3803 C3823 0.950 . S
H3804 C3825 0.950 . S
H3805 C3828 0.950 . S
H3806 C3829 0.950 . S
H3807 C3831 0.950 . S
H3808 C3832 0.950 . S
H3809 C3833 0.951 . S
H3810 C3835 0.951 . S
H3811 C3837 0.950 . S
H3812 C3838 0.950 . S
H3813 C3840 0.950 . S
H3814 C3843 0.950 . S
H3815 C3844 0.950 . S
H3816 C3846 0.950 . S
H3817 C3847 0.950 . S
C3818 H3800 0.951 . S
C3818 C3819 1.366 . S
C3818 C3820 1.388 . S
C3819 C3818 1.366 . S
C3819 C3823 1.385 . S
C3820 H3801 0.951 . S
C3820 C3818 1.388 . S
C3820 C3821 1.366 . S
C3821 C3820 1.366 . S
C3821 C3822 1.414 . S
C3821 C3824 1.499 . S
C3822 H3802 0.950 . S
C3822 C3821 1.414 . S
C3822 C3823 1.374 . S
C3823 H3803 0.950 . S
C3823 C3819 1.385 . S
C3823 C3822 1.374 . S
C3824 C3821 1.499 . S
C3824 C3825 1.373 . S
C3824 C3826 1.389 . S
C3825 H3804 0.950 . S
C3825 C3824 1.373 . S
C3825 C3841 1.377 . S
C3826 C3824 1.389 . S
C3826 C3827 1.524 . S
C3826 C3840 1.377 . S
C3827 C3826 1.524 . S
C3827 C3828 1.397 . S
C3827 C3832 1.363 . S
C3828 H3805 0.950 . S
C3828 C3827 1.397 . S
C3828 C3829 1.334 . S
C3829 H3806 0.950 . S
C3829 C3828 1.334 . S
C3829 C3830 1.287 . S
C3830 C3829 1.287 . S
C3830 C3831 1.524 . S
C3830 H3849 0.913 . S
C3831 H3807 0.950 . S
C3831 C3830 1.524 . S
C3831 C3832 1.415 . S
C3832 H3808 0.950 . S
C3832 C3827 1.363 . S
C3832 C3831 1.415 . S
C3833 H3809 0.951 . S
C3833 C3834 1.366 . S
C3833 C3835 1.388 . S
C3834 C3833 1.366 . S
C3834 C3838 1.385 . S
C3835 H3810 0.951 . S
C3835 C3833 1.388 . S
C3835 C3836 1.366 . S
C3836 C3835 1.366 . S
C3836 C3837 1.414 . S
C3836 C3839 1.499 . S
C3837 H3811 0.950 . S
C3837 C3836 1.414 . S
C3837 C3838 1.374 . S
C3838 H3812 0.950 . S
C3838 C3834 1.385 . S
C3838 C3837 1.374 . S
C3839 C3836 1.499 . S
C3839 C3840 1.373 . S
C3839 C3841 1.389 . S
C3840 H3813 0.950 . S
C3840 C3826 1.377 . S
C3840 C3839 1.373 . S
C3841 C3825 1.377 . S
C3841 C3839 1.389 . S
C3841 C3842 1.524 . S
C3842 C3841 1.524 . S
C3842 C3843 1.397 . S
C3842 C3847 1.363 . S
C3843 H3814 0.950 . S
C3843 C3842 1.397 . S
C3843 C3844 1.334 . S
C3844 H3815 0.950 . S
C3844 C3843 1.334 . S
C3844 C3845 1.287 . S
C3845 C3844 1.287 . S
C3845 C3846 1.524 . S
C3845 H3848 0.999 . S
C3846 H3816 0.950 . S
C3846 C3845 1.524 . S
C3846 C3847 1.415 . S
C3847 H3817 0.950 . S
C3847 C3842 1.363 . S
C3847 C3846 1.415 . S
H3848 C3845 0.999 . S
H3849 C3830 0.913 . S
H3850 C3868 0.951 . S
H3851 C3870 0.951 . S
H3852 C3872 0.950 . S
H3853 C3873 0.950 . S
H3854 C3875 0.950 . S
H3855 C3878 0.950 . S
H3856 C3879 0.950 . S
H3857 C3881 0.950 . S
H3858 C3882 0.950 . S
H3859 C3883 0.951 . S
H3860 C3885 0.951 . S
H3861 C3887 0.950 . S
H3862 C3888 0.950 . S
H3863 C3890 0.950 . S
H3864 C3893 0.950 . S
H3865 C3894 0.950 . S
H3866 C3896 0.950 . S
H3867 C3897 0.950 . S
C3868 H3850 0.951 . S
C3868 C3869 1.366 . S
C3868 C3870 1.388 1_455 S
C3869 C3868 1.366 . S
C3869 C3873 1.385 1_455 S
C3870 H3851 0.951 . S
C3870 C3868 1.388 1_655 S
C3870 C3871 1.366 . S
C3871 C3870 1.366 . S
C3871 C3872 1.414 . S
C3871 C3874 1.499 . S
C3872 H3852 0.950 . S
C3872 C3871 1.414 . S
C3872 C3873 1.374 . S
C3873 H3853 0.950 . S
C3873 C3869 1.385 1_655 S
C3873 C3872 1.374 . S
C3874 C3871 1.499 . S
C3874 C3875 1.373 . S
C3874 C3876 1.389 . S
C3875 H3854 0.950 . S
C3875 C3874 1.373 . S
C3875 C3891 1.377 . S
C3876 C3874 1.389 . S
C3876 C3877 1.524 . S
C3876 C3890 1.377 . S
C3877 C3876 1.524 . S
C3877 C3878 1.397 . S
C3877 C3882 1.363 . S
C3878 H3855 0.950 . S
C3878 C3877 1.397 . S
C3878 C3879 1.334 . S
C3879 H3856 0.950 . S
C3879 C3878 1.334 . S
C3879 C3880 1.287 . S
C3880 C3879 1.287 . S
C3880 C3881 1.524 . S
C3880 H3899 0.913 . S
C3881 H3857 0.950 . S
C3881 C3880 1.524 . S
C3881 C3882 1.415 . S
C3882 H3858 0.950 . S
C3882 C3877 1.363 . S
C3882 C3881 1.415 . S
C3883 H3859 0.951 . S
C3883 C3884 1.366 . S
C3883 C3885 1.388 . S
C3884 C3883 1.366 . S
C3884 C3888 1.385 . S
C3885 H3860 0.951 . S
C3885 C3883 1.388 . S
C3885 C3886 1.366 . S
C3886 C3885 1.366 . S
C3886 C3887 1.414 . S
C3886 C3889 1.499 . S
C3887 H3861 0.950 . S
C3887 C3886 1.414 . S
C3887 C3888 1.374 . S
C3888 H3862 0.950 . S
C3888 C3884 1.385 . S
C3888 C3887 1.374 . S
C3889 C3886 1.499 . S
C3889 C3890 1.373 . S
C3889 C3891 1.389 . S
C3890 H3863 0.950 . S
C3890 C3876 1.377 . S
C3890 C3889 1.373 . S
C3891 C3875 1.377 . S
C3891 C3889 1.389 . S
C3891 C3892 1.524 . S
C3892 C3891 1.524 . S
C3892 C3893 1.397 . S
C3892 C3897 1.363 . S
C3893 H3864 0.950 . S
C3893 C3892 1.397 . S
C3893 C3894 1.334 . S
C3894 H3865 0.950 . S
C3894 C3893 1.334 . S
C3894 C3895 1.287 . S
C3895 C3894 1.287 . S
C3895 C3896 1.524 . S
C3895 H3898 0.999 . S
C3896 H3866 0.950 . S
C3896 C3895 1.524 . S
C3896 C3897 1.415 . S
C3897 H3867 0.950 . S
C3897 C3892 1.363 . S
C3897 C3896 1.415 . S
H3898 C3895 0.999 . S
H3899 C3880 0.913 . S
H3900 C3918 0.951 . S
H3901 C3920 0.951 . S
H3902 C3922 0.950 . S
H3903 C3923 0.950 . S
H3904 C3925 0.950 . S
H3905 C3928 0.950 . S
H3906 C3929 0.950 . S
H3907 C3931 0.950 . S
H3908 C3932 0.950 . S
H3909 C3933 0.951 . S
H3910 C3935 0.951 . S
H3911 C3937 0.950 . S
H3912 C3938 0.950 . S
H3913 C3940 0.950 . S
H3914 C3943 0.951 . S
H3915 C3944 0.950 . S
H3916 C3946 0.950 . S
H3917 C3947 0.950 . S
C3918 H3900 0.951 . S
C3918 C3919 1.366 . S
C3918 C3920 1.388 . S
C3919 C3918 1.366 . S
C3919 C3923 1.385 . S
C3920 H3901 0.951 . S
C3920 C3918 1.388 . S
C3920 C3921 1.366 . S
C3921 C3920 1.366 . S
C3921 C3922 1.414 . S
C3921 C3924 1.499 . S
C3922 H3902 0.950 . S
C3922 C3921 1.414 . S
C3922 C3923 1.374 . S
C3923 H3903 0.950 . S
C3923 C3919 1.385 . S
C3923 C3922 1.374 . S
C3924 C3921 1.499 . S
C3924 C3925 1.373 . S
C3924 C3926 1.389 . S
C3925 H3904 0.950 . S
C3925 C3924 1.373 . S
C3925 C3941 1.377 . S
C3926 C3924 1.389 . S
C3926 C3927 1.524 . S
C3926 C3940 1.377 . S
C3927 C3926 1.524 . S
C3927 C3928 1.397 . S
C3927 C3932 1.363 . S
C3928 H3905 0.950 . S
C3928 C3927 1.397 . S
C3928 C3929 1.334 . S
C3929 H3906 0.950 . S
C3929 C3928 1.334 . S
C3929 C3930 1.287 . S
C3930 C3929 1.287 . S
C3930 C3931 1.524 . S
C3930 H3949 0.913 . S
C3931 H3907 0.950 . S
C3931 C3930 1.524 . S
C3931 C3932 1.415 . S
C3932 H3908 0.950 . S
C3932 C3927 1.363 . S
C3932 C3931 1.415 . S
C3933 H3909 0.951 . S
C3933 C3934 1.366 . S
C3933 C3935 1.388 . S
C3934 C3933 1.366 . S
C3934 C3938 1.385 . S
C3935 H3910 0.951 . S
C3935 C3933 1.388 . S
C3935 C3936 1.366 . S
C3936 C3935 1.366 . S
C3936 C3937 1.414 . S
C3936 C3939 1.499 . S
C3937 H3911 0.950 . S
C3937 C3936 1.414 . S
C3937 C3938 1.374 . S
C3938 H3912 0.950 . S
C3938 C3934 1.385 . S
C3938 C3937 1.374 . S
C3939 C3936 1.499 . S
C3939 C3940 1.373 . S
C3939 C3941 1.389 . S
C3940 H3913 0.950 . S
C3940 C3926 1.377 . S
C3940 C3939 1.373 . S
C3941 C3925 1.377 . S
C3941 C3939 1.389 . S
C3941 C3942 1.524 . S
C3942 C3941 1.524 . S
C3942 C3943 1.397 . S
C3942 C3947 1.363 . S
C3943 H3914 0.951 . S
C3943 C3942 1.397 . S
C3943 C3944 1.334 1_455 S
C3944 H3915 0.950 . S
C3944 C3943 1.334 1_655 S
C3944 C3945 1.287 . S
C3945 C3944 1.287 . S
C3945 C3946 1.524 1_655 S
C3945 H3948 0.999 . S
C3946 H3916 0.950 . S
C3946 C3945 1.524 1_455 S
C3946 C3947 1.415 . S
C3947 H3917 0.950 . S
C3947 C3942 1.363 . S
C3947 C3946 1.415 . S
H3948 C3945 0.999 . S
H3949 C3930 0.913 . S
H3950 C3968 0.951 . S
H3951 C3970 0.951 . S
H3952 C3972 0.950 . S
H3953 C3973 0.950 . S
H3954 C3975 0.950 . S
H3955 C3978 0.950 . S
H3956 C3979 0.950 . S
H3957 C3981 0.950 . S
H3958 C3982 0.950 . S
H3959 C3983 0.951 . S
H3960 C3985 0.951 . S
H3961 C3987 0.950 . S
H3962 C3988 0.950 . S
H3963 C3990 0.950 . S
H3964 C3993 0.950 . S
H3965 C3994 0.950 . S
H3966 C3996 0.950 . S
H3967 C3997 0.950 . S
C3968 H3950 0.951 . S
C3968 C3969 1.366 . S
C3968 C3970 1.388 . S
C3969 C3968 1.366 . S
C3969 C3973 1.385 . S
C3970 H3951 0.951 . S
C3970 C3968 1.388 . S
C3970 C3971 1.366 . S
C3971 C3970 1.366 . S
C3971 C3972 1.414 . S
C3971 C3974 1.499 . S
C3972 H3952 0.950 . S
C3972 C3971 1.414 . S
C3972 C3973 1.374 . S
C3973 H3953 0.950 . S
C3973 C3969 1.385 . S
C3973 C3972 1.374 . S
C3974 C3971 1.499 . S
C3974 C3975 1.373 . S
C3974 C3976 1.389 . S
C3975 H3954 0.950 . S
C3975 C3974 1.373 . S
C3975 C3991 1.377 . S
C3976 C3974 1.389 . S
C3976 C3977 1.524 . S
C3976 C3990 1.377 . S
C3977 C3976 1.524 . S
C3977 C3978 1.397 . S
C3977 C3982 1.363 . S
C3978 H3955 0.950 . S
C3978 C3977 1.397 . S
C3978 C3979 1.334 . S
C3979 H3956 0.950 . S
C3979 C3978 1.334 . S
C3979 C3980 1.287 . S
C3980 C3979 1.287 . S
C3980 C3981 1.524 . S
C3980 H3999 0.913 . S
C3981 H3957 0.950 . S
C3981 C3980 1.524 . S
C3981 C3982 1.415 . S
C3982 H3958 0.950 . S
C3982 C3977 1.363 . S
C3982 C3981 1.415 . S
C3983 H3959 0.951 . S
C3983 C3984 1.366 . S
C3983 C3985 1.388 . S
C3984 C3983 1.366 . S
C3984 C3988 1.385 . S
C3985 H3960 0.951 . S
C3985 C3983 1.388 . S
C3985 C3986 1.366 . S
C3986 C3985 1.366 . S
C3986 C3987 1.414 . S
C3986 C3989 1.499 . S
C3987 H3961 0.950 . S
C3987 C3986 1.414 . S
C3987 C3988 1.374 . S
C3988 H3962 0.950 . S
C3988 C3984 1.385 . S
C3988 C3987 1.374 . S
C3989 C3986 1.499 . S
C3989 C3990 1.373 . S
C3989 C3991 1.389 . S
C3990 H3963 0.950 . S
C3990 C3976 1.377 . S
C3990 C3989 1.373 . S
C3991 C3975 1.377 . S
C3991 C3989 1.389 . S
C3991 C3992 1.524 . S
C3992 C3991 1.524 . S
C3992 C3993 1.397 . S
C3992 C3997 1.363 . S
C3993 H3964 0.950 . S
C3993 C3992 1.397 . S
C3993 C3994 1.334 . S
C3994 H3965 0.950 . S
C3994 C3993 1.334 . S
C3994 C3995 1.287 . S
C3995 C3994 1.287 . S
C3995 C3996 1.524 . S
C3995 H3998 0.999 . S
C3996 H3966 0.950 . S
C3996 C3995 1.524 . S
C3996 C3997 1.415 . S
C3997 H3967 0.950 . S
C3997 C3992 1.363 . S
C3997 C3996 1.415 . S
H3998 C3995 0.999 . S
H3999 C3980 0.913 . S
H4000 C4018 0.951 . S
H4001 C4020 0.951 . S
H4002 C4022 0.950 1_545 S
H4003 C4023 0.940 . S
H4004 C4025 0.950 . S
H4005 C4028 0.950 . S
H4006 C4029 0.950 . S
H4007 C4031 0.950 . S
H4008 C4032 0.950 . S
H4009 C4033 0.951 . S
H4010 C4035 0.993 . S
H4011 C4037 0.950 . S
H4012 C4038 0.950 . S
H4013 C4040 0.950 . S
H4014 C4043 0.950 . S
H4015 C4044 0.950 . S
H4016 C4046 0.950 . S
H4017 C4047 1.057 . S
C4018 H4000 0.951 . S
C4018 C4019 1.366 . S
C4018 C4020 1.388 . S
C4019 C4018 1.366 . S
C4019 C4023 1.385 . S
C4020 H4001 0.951 . S
C4020 C4018 1.388 . S
C4020 C4021 1.366 . S
C4021 C4020 1.366 . S
C4021 C4022 1.414 . S
C4021 C4024 1.499 . S
C4022 H4002 0.950 1_565 S
C4022 C4021 1.414 . S
C4022 C4023 1.374 . S
C4023 H4003 0.940 . S
C4023 C4019 1.385 . S
C4023 C4022 1.374 . S
C4024 C4021 1.499 . S
C4024 C4025 1.373 . S
C4024 C4026 1.389 . S
C4025 H4004 0.950 . S
C4025 C4024 1.373 . S
C4025 C4041 1.377 . S
C4026 C4024 1.389 . S
C4026 C4027 1.524 . S
C4026 C4040 1.377 . S
C4027 C4026 1.524 . S
C4027 C4028 1.397 1_565 S
C4027 C4032 1.363 . S
C4028 H4005 0.950 . S
C4028 C4027 1.397 1_545 S
C4028 C4029 1.334 . S
C4029 H4006 0.950 . S
C4029 C4028 1.334 . S
C4029 C4030 1.287 . S
C4030 C4029 1.287 . S
C4030 C4031 1.524 1_545 S
C4030 H4049 0.913 . S
C4031 H4007 0.950 . S
C4031 C4030 1.524 1_565 S
C4031 C4032 1.415 . S
C4032 H4008 0.950 . S
C4032 C4027 1.363 . S
C4032 C4031 1.415 . S
C4033 H4009 0.951 . S
C4033 C4034 1.366 1_545 S
C4033 C4035 1.369 . S
C4034 C4033 1.366 1_565 S
C4034 C4038 1.385 . S
C4035 H4010 0.993 . S
C4035 C4033 1.369 . S
C4035 C4036 1.345 1_545 S
C4036 C4035 1.345 1_565 S
C4036 C4037 1.414 . S
C4036 C4039 1.499 . S
C4037 H4011 0.950 . S
C4037 C4036 1.414 . S
C4037 C4038 1.374 . S
C4038 H4012 0.950 . S
C4038 C4034 1.385 . S
C4038 C4037 1.374 . S
C4039 C4036 1.499 . S
C4039 C4040 1.373 . S
C4039 C4041 1.389 . S
C4040 H4013 0.950 . S
C4040 C4026 1.377 . S
C4040 C4039 1.373 . S
C4041 C4025 1.377 . S
C4041 C4039 1.389 . S
C4041 C4042 1.524 . S
C4042 C4041 1.524 . S
C4042 C4043 1.397 . S
C4042 C4047 1.363 . S
C4043 H4014 0.950 . S
C4043 C4042 1.397 . S
C4043 C4044 1.334 . S
C4044 H4015 0.950 . S
C4044 C4043 1.334 . S
C4044 C4045 1.287 . S
C4045 C4044 1.287 . S
C4045 C4046 1.524 . S
C4045 H4048 0.999 . S
C4046 H4016 0.950 . S
C4046 C4045 1.524 . S
C4046 C4047 1.415 . S
C4047 H4017 1.057 . S
C4047 C4042 1.363 . S
C4047 C4046 1.415 . S
H4048 C4045 0.999 . S
H4049 C4030 0.913 . S
H4050 C4068 0.951 . S
H4051 C4070 0.951 . S
H4052 C4072 0.950 . S
H4053 C4073 0.950 . S
H4054 C4075 0.950 . S
H4055 C4078 0.950 . S
H4056 C4079 0.950 . S
H4057 C4081 0.950 . S
H4058 C4082 0.933 1_565 S
H4059 C4083 0.951 1_545 S
H4060 C4085 0.949 . S
H4061 C4087 0.950 . S
H4062 C4088 0.950 . S
H4063 C4090 0.951 . S
H4064 C4093 0.950 . S
H4065 C4094 0.950 . S
H4066 C4096 0.950 . S
H4067 C4097 0.950 . S
C4068 H4050 0.951 . S
C4068 C4069 1.366 . S
C4068 C4070 1.388 . S
C4069 C4068 1.366 . S
C4069 C4073 1.385 . S
C4070 H4051 0.951 . S
C4070 C4068 1.388 . S
C4070 C4071 1.366 . S
C4071 C4070 1.366 . S
C4071 C4072 1.414 . S
C4071 C4074 1.499 . S
C4072 H4052 0.950 . S
C4072 C4071 1.414 . S
C4072 C4073 1.374 . S
C4073 H4053 0.950 . S
C4073 C4069 1.385 . S
C4073 C4072 1.374 . S
C4074 C4071 1.499 . S
C4074 C4075 1.373 . S
C4074 C4076 1.389 . S
C4075 H4054 0.950 . S
C4075 C4074 1.373 . S
C4075 C4091 1.377 . S
C4076 C4074 1.389 . S
C4076 C4077 1.524 1_565 S
C4076 C4090 1.377 . S
C4077 C4076 1.524 1_545 S
C4077 C4078 1.397 . S
C4077 C4082 1.377 . S
C4078 H4055 0.950 . S
C4078 C4077 1.397 . S
C4078 C4079 1.334 . S
C4079 H4056 0.950 . S
C4079 C4078 1.334 . S
C4079 C4080 1.287 . S
C4080 C4079 1.287 . S
C4080 C4081 1.524 . S
C4080 H4099 0.913 . S
C4081 H4057 0.950 . S
C4081 C4080 1.524 . S
C4081 C4082 1.421 . S
C4082 H4058 0.933 1_545 S
C4082 C4077 1.377 . S
C4082 C4081 1.421 . S
C4083 H4059 0.951 1_565 S
C4083 C4084 1.366 . S
C4083 C4085 1.388 . S
C4084 C4083 1.366 . S
C4084 C4088 1.385 . S
C4085 H4060 0.949 . S
C4085 C4083 1.388 . S
C4085 C4086 1.366 . S
C4086 C4085 1.366 . S
C4086 C4087 1.414 . S
C4086 C4089 1.499 . S
C4087 H4061 0.950 . S
C4087 C4086 1.414 . S
C4087 C4088 1.374 . S
C4088 H4062 0.950 . S
C4088 C4084 1.385 . S
C4088 C4087 1.374 . S
C4089 C4086 1.499 . S
C4089 C4090 1.373 . S
C4089 C4091 1.389 . S
C4090 H4063 0.951 . S
C4090 C4076 1.377 . S
C4090 C4089 1.373 . S
C4091 C4075 1.377 . S
C4091 C4089 1.389 . S
C4091 C4092 1.524 . S
C4092 C4091 1.524 . S
C4092 C4093 1.397 . S
C4092 C4097 1.363 . S
C4093 H4064 0.950 . S
C4093 C4092 1.397 . S
C4093 C4094 1.334 . S
C4094 H4065 0.950 . S
C4094 C4093 1.334 . S
C4094 C4095 1.287 . S
C4095 C4094 1.287 . S
C4095 C4096 1.524 . S
C4095 H4098 0.999 . S
C4096 H4066 0.950 . S
C4096 C4095 1.524 . S
C4096 C4097 1.415 . S
C4097 H4067 0.950 . S
C4097 C4092 1.363 . S
C4097 C4096 1.415 . S
H4098 C4095 0.999 . S
H4099 C4080 0.913 . S
H4100 C4118 0.951 . S
H4101 C4120 0.951 . S
H4102 C4122 0.950 . S
H4103 C4123 0.950 . S
H4104 C4125 0.950 . S
H4105 C4128 0.950 . S
H4106 C4129 0.950 . S
H4107 C4131 0.950 . S
H4108 C4132 0.950 . S
H4109 C4133 0.951 . S
H4110 C4135 0.951 . S
H4111 C4137 0.950 . S
H4112 C4138 0.950 . S
H4113 C4140 0.950 . S
H4114 C4143 0.950 1_455 S
H4115 C4144 0.950 . S
H4116 C4146 0.950 . S
H4117 C4147 0.950 1_455 S
C4118 H4100 0.951 . S
C4118 C4119 1.366 . S
C4118 C4120 1.388 . S
C4119 C4118 1.366 . S
C4119 C4123 1.385 . S
C4120 H4101 0.951 . S
C4120 C4118 1.388 . S
C4120 C4121 1.366 . S
C4121 C4120 1.366 . S
C4121 C4122 1.414 . S
C4121 C4124 1.499 . S
C4122 H4102 0.950 . S
C4122 C4121 1.414 . S
C4122 C4123 1.374 . S
C4123 H4103 0.950 . S
C4123 C4119 1.385 . S
C4123 C4122 1.374 . S
C4124 C4121 1.499 . S
C4124 C4125 1.373 . S
C4124 C4126 1.389 . S
C4125 H4104 0.950 . S
C4125 C4124 1.373 . S
C4125 C4141 1.377 . S
C4126 C4124 1.389 . S
C4126 C4127 1.524 . S
C4126 C4140 1.377 . S
C4127 C4126 1.524 . S
C4127 C4128 1.397 . S
C4127 C4132 1.363 . S
C4128 H4105 0.950 . S
C4128 C4127 1.397 . S
C4128 C4129 1.334 . S
C4129 H4106 0.950 . S
C4129 C4128 1.334 . S
C4129 C4130 1.287 . S
C4130 C4129 1.287 . S
C4130 C4131 1.524 . S
C4130 H4149 0.913 . S
C4131 H4107 0.950 . S
C4131 C4130 1.524 . S
C4131 C4132 1.415 . S
C4132 H4108 0.950 . S
C4132 C4127 1.363 . S
C4132 C4131 1.415 . S
C4133 H4109 0.951 . S
C4133 C4134 1.366 . S
C4133 C4135 1.388 . S
C4134 C4133 1.366 . S
C4134 C4138 1.385 . S
C4135 H4110 0.951 . S
C4135 C4133 1.388 . S
C4135 C4136 1.366 . S
C4136 C4135 1.366 . S
C4136 C4137 1.414 . S
C4136 C4139 1.499 . S
C4137 H4111 0.950 . S
C4137 C4136 1.414 . S
C4137 C4138 1.374 . S
C4138 H4112 0.950 . S
C4138 C4134 1.385 . S
C4138 C4137 1.374 . S
C4139 C4136 1.499 . S
C4139 C4140 1.373 . S
C4139 C4141 1.389 . S
C4140 H4113 0.950 . S
C4140 C4126 1.377 . S
C4140 C4139 1.373 . S
C4141 C4125 1.377 . S
C4141 C4139 1.389 . S
C4141 C4142 1.524 . S
C4142 C4141 1.524 . S
C4142 C4143 1.397 1_455 S
C4142 C4147 1.363 1_455 S
C4143 H4114 0.950 1_655 S
C4143 C4142 1.397 1_655 S
C4143 C4144 1.334 . S
C4144 H4115 0.950 . S
C4144 C4143 1.334 . S
C4144 C4145 1.287 . S
C4145 C4144 1.287 . S
C4145 C4146 1.524 . S
C4145 H4148 0.999 . S
C4146 H4116 0.950 . S
C4146 C4145 1.524 . S
C4146 C4147 1.415 . S
C4147 H4117 0.950 1_655 S
C4147 C4142 1.363 1_655 S
C4147 C4146 1.415 . S
H4148 C4145 0.999 . S
H4149 C4130 0.913 . S
H4150 C4168 0.951 . S
H4151 C4170 0.951 . S
H4152 C4172 0.950 . S
H4153 C4173 0.950 . S
H4154 C4175 0.950 . S
H4155 C4178 0.950 . S
H4156 C4179 0.950 . S
H4157 C4181 0.950 . S
H4158 C4182 0.950 . S
H4159 C4183 0.951 . S
H4160 C4185 0.951 . S
H4161 C4187 0.950 . S
H4162 C4188 0.950 . S
H4163 C4190 0.950 . S
H4164 C4193 0.950 . S
H4165 C4194 0.950 . S
H4166 C4196 0.950 . S
H4167 C4197 0.950 . S
C4168 H4150 0.951 . S
C4168 C4169 1.366 . S
C4168 C4170 1.388 . S
C4169 C4168 1.366 . S
C4169 C4173 1.385 . S
C4170 H4151 0.951 . S
C4170 C4168 1.388 . S
C4170 C4171 1.366 . S
C4171 C4170 1.366 . S
C4171 C4172 1.414 . S
C4171 C4174 1.499 . S
C4172 H4152 0.950 . S
C4172 C4171 1.414 . S
C4172 C4173 1.374 . S
C4173 H4153 0.950 . S
C4173 C4169 1.385 . S
C4173 C4172 1.374 . S
C4174 C4171 1.499 . S
C4174 C4175 1.373 . S
C4174 C4176 1.389 . S
C4175 H4154 0.950 . S
C4175 C4174 1.373 . S
C4175 C4191 1.377 . S
C4176 C4174 1.389 . S
C4176 C4177 1.524 . S
C4176 C4190 1.377 . S
C4177 C4176 1.524 . S
C4177 C4178 1.397 . S
C4177 C4182 1.363 . S
C4178 H4155 0.950 . S
C4178 C4177 1.397 . S
C4178 C4179 1.334 . S
C4179 H4156 0.950 . S
C4179 C4178 1.334 . S
C4179 C4180 1.287 . S
C4180 C4179 1.287 . S
C4180 C4181 1.524 . S
C4180 H4199 0.913 . S
C4181 H4157 0.950 . S
C4181 C4180 1.524 . S
C4181 C4182 1.415 . S
C4182 H4158 0.950 . S
C4182 C4177 1.363 . S
C4182 C4181 1.415 . S
C4183 H4159 0.951 . S
C4183 C4184 1.366 . S
C4183 C4185 1.388 . S
C4184 C4183 1.366 . S
C4184 C4188 1.385 . S
C4185 H4160 0.951 . S
C4185 C4183 1.388 . S
C4185 C4186 1.366 . S
C4186 C4185 1.366 . S
C4186 C4187 1.414 . S
C4186 C4189 1.499 . S
C4187 H4161 0.950 . S
C4187 C4186 1.414 . S
C4187 C4188 1.374 . S
C4188 H4162 0.950 . S
C4188 C4184 1.385 . S
C4188 C4187 1.374 . S
C4189 C4186 1.499 . S
C4189 C4190 1.373 . S
C4189 C4191 1.389 . S
C4190 H4163 0.950 . S
C4190 C4176 1.377 . S
C4190 C4189 1.373 . S
C4191 C4175 1.377 . S
C4191 C4189 1.389 . S
C4191 C4192 1.524 . S
C4192 C4191 1.524 . S
C4192 C4193 1.397 . S
C4192 C4197 1.363 . S
C4193 H4164 0.950 . S
C4193 C4192 1.397 . S
C4193 C4194 1.334 . S
C4194 H4165 0.950 . S
C4194 C4193 1.334 . S
C4194 C4195 1.287 . S
C4195 C4194 1.287 . S
C4195 C4196 1.524 . S
C4195 H4198 0.999 . S
C4196 H4166 0.950 . S
C4196 C4195 1.524 . S
C4196 C4197 1.415 . S
C4197 H4167 0.950 . S
C4197 C4192 1.363 . S
C4197 C4196 1.415 . S
H4198 C4195 0.999 . S
H4199 C4180 0.913 . S
H4200 C4218 0.951 . S
H4201 C4220 0.951 . S
H4202 C4222 0.950 . S
H4203 C4223 0.950 . S
H4204 C4225 0.950 . S
H4205 C4228 0.950 . S
H4206 C4229 0.950 . S
H4207 C4231 0.950 . S
H4208 C4232 0.950 . S
H4209 C4233 0.951 . S
H4210 C4235 0.951 . S
H4211 C4237 0.950 . S
H4212 C4238 0.950 . S
H4213 C4240 0.950 . S
H4214 C4243 0.950 . S
H4215 C4244 0.950 . S
H4216 C4246 0.950 . S
H4217 C4247 0.950 . S
C4218 H4200 0.951 . S
C4218 C4219 1.366 . S
C4218 C4220 1.388 . S
C4219 C4218 1.366 . S
C4219 C4223 1.385 . S
C4220 H4201 0.951 . S
C4220 C4218 1.388 . S
C4220 C4221 1.366 . S
C4221 C4220 1.366 . S
C4221 C4222 1.414 . S
C4221 C4224 1.499 . S
C4222 H4202 0.950 . S
C4222 C4221 1.414 . S
C4222 C4223 1.374 . S
C4223 H4203 0.950 . S
C4223 C4219 1.385 . S
C4223 C4222 1.374 . S
C4224 C4221 1.499 . S
C4224 C4225 1.373 . S
C4224 C4226 1.389 . S
C4225 H4204 0.950 . S
C4225 C4224 1.373 . S
C4225 C4241 1.377 . S
C4226 C4224 1.389 . S
C4226 C4227 1.524 . S
C4226 C4240 1.377 . S
C4227 C4226 1.524 . S
C4227 C4228 1.397 . S
C4227 C4232 1.363 . S
C4228 H4205 0.950 . S
C4228 C4227 1.397 . S
C4228 C4229 1.334 . S
C4229 H4206 0.950 . S
C4229 C4228 1.334 . S
C4229 C4230 1.287 . S
C4230 C4229 1.287 . S
C4230 C4231 1.524 . S
C4230 H4249 0.913 . S
C4231 H4207 0.950 . S
C4231 C4230 1.524 . S
C4231 C4232 1.415 . S
C4232 H4208 0.950 . S
C4232 C4227 1.363 . S
C4232 C4231 1.415 . S
C4233 H4209 0.951 . S
C4233 C4234 1.366 . S
C4233 C4235 1.388 . S
C4234 C4233 1.366 . S
C4234 C4238 1.385 . S
C4235 H4210 0.951 . S
C4235 C4233 1.388 . S
C4235 C4236 1.366 . S
C4236 C4235 1.366 . S
C4236 C4237 1.414 . S
C4236 C4239 1.499 . S
C4237 H4211 0.950 . S
C4237 C4236 1.414 . S
C4237 C4238 1.374 . S
C4238 H4212 0.950 . S
C4238 C4234 1.385 . S
C4238 C4237 1.374 . S
C4239 C4236 1.499 . S
C4239 C4240 1.373 . S
C4239 C4241 1.389 . S
C4240 H4213 0.950 . S
C4240 C4226 1.377 . S
C4240 C4239 1.373 . S
C4241 C4225 1.377 . S
C4241 C4239 1.389 . S
C4241 C4242 1.524 . S
C4242 C4241 1.524 . S
C4242 C4243 1.397 . S
C4242 C4247 1.363 . S
C4243 H4214 0.950 . S
C4243 C4242 1.397 . S
C4243 C4244 1.334 . S
C4244 H4215 0.950 . S
C4244 C4243 1.334 . S
C4244 C4245 1.287 . S
C4245 C4244 1.287 . S
C4245 C4246 1.524 . S
C4245 H4248 0.999 . S
C4246 H4216 0.950 . S
C4246 C4245 1.524 . S
C4246 C4247 1.415 . S
C4247 H4217 0.950 . S
C4247 C4242 1.363 . S
C4247 C4246 1.415 . S
H4248 C4245 0.999 . S
H4249 C4230 0.913 . S
H4250 C4268 0.951 . S
H4251 C4270 0.951 . S
H4252 C4272 0.950 . S
H4253 C4273 0.950 . S
H4254 C4275 0.950 . S
H4255 C4278 0.950 . S
H4256 C4279 0.950 . S
H4257 C4281 0.950 . S
H4258 C4282 0.950 . S
H4259 C4283 0.951 . S
H4260 C4285 0.951 . S
H4261 C4287 0.950 . S
H4262 C4288 0.950 . S
H4263 C4290 0.950 . S
H4264 C4293 0.950 . S
H4265 C4294 0.950 . S
H4266 C4296 0.950 . S
H4267 C4297 0.950 . S
C4268 H4250 0.951 . S
C4268 C4269 1.366 . S
C4268 C4270 1.388 . S
C4269 C4268 1.366 . S
C4269 C4273 1.385 . S
C4270 H4251 0.951 . S
C4270 C4268 1.388 . S
C4270 C4271 1.366 . S
C4271 C4270 1.366 . S
C4271 C4272 1.414 . S
C4271 C4274 1.499 . S
C4272 H4252 0.950 . S
C4272 C4271 1.414 . S
C4272 C4273 1.374 . S
C4273 H4253 0.950 . S
C4273 C4269 1.385 . S
C4273 C4272 1.374 . S
C4274 C4271 1.499 . S
C4274 C4275 1.373 . S
C4274 C4276 1.389 . S
C4275 H4254 0.950 . S
C4275 C4274 1.373 . S
C4275 C4291 1.377 . S
C4276 C4274 1.389 . S
C4276 C4277 1.524 . S
C4276 C4290 1.377 . S
C4277 C4276 1.524 . S
C4277 C4278 1.397 . S
C4277 C4282 1.363 . S
C4278 H4255 0.950 . S
C4278 C4277 1.397 . S
C4278 C4279 1.334 . S
C4279 H4256 0.950 . S
C4279 C4278 1.334 . S
C4279 C4280 1.287 . S
C4280 C4279 1.287 . S
C4280 C4281 1.524 . S
C4280 H4299 0.913 . S
C4281 H4257 0.950 . S
C4281 C4280 1.524 . S
C4281 C4282 1.415 . S
C4282 H4258 0.950 . S
C4282 C4277 1.363 . S
C4282 C4281 1.415 . S
C4283 H4259 0.951 . S
C4283 C4284 1.366 . S
C4283 C4285 1.388 . S
C4284 C4283 1.366 . S
C4284 C4288 1.385 . S
C4285 H4260 0.951 . S
C4285 C4283 1.388 . S
C4285 C4286 1.366 . S
C4286 C4285 1.366 . S
C4286 C4287 1.414 . S
C4286 C4289 1.499 . S
C4287 H4261 0.950 . S
C4287 C4286 1.414 . S
C4287 C4288 1.374 . S
C4288 H4262 0.950 . S
C4288 C4284 1.385 . S
C4288 C4287 1.374 . S
C4289 C4286 1.499 . S
C4289 C4290 1.373 . S
C4289 C4291 1.389 . S
C4290 H4263 0.950 . S
C4290 C4276 1.377 . S
C4290 C4289 1.373 . S
C4291 C4275 1.377 . S
C4291 C4289 1.389 . S
C4291 C4292 1.524 . S
C4292 C4291 1.524 . S
C4292 C4293 1.397 . S
C4292 C4297 1.363 . S
C4293 H4264 0.950 . S
C4293 C4292 1.397 . S
C4293 C4294 1.334 . S
C4294 H4265 0.950 . S
C4294 C4293 1.334 . S
C4294 C4295 1.287 . S
C4295 C4294 1.287 . S
C4295 C4296 1.524 . S
C4295 H4298 0.999 . S
C4296 H4266 0.950 . S
C4296 C4295 1.524 . S
C4296 C4297 1.415 . S
C4297 H4267 0.950 . S
C4297 C4292 1.363 . S
C4297 C4296 1.415 . S
H4298 C4295 0.999 . S
H4299 C4280 0.913 . S
H4300 C4318 0.951 1_455 S
H4301 C4320 0.951 . S
H4302 C4322 0.950 . S
H4303 C4323 0.950 1_455 S
H4304 C4325 0.950 . S
H4305 C4328 0.950 . S
H4306 C4329 1.041 . S
H4307 C4331 0.950 . S
H4308 C4332 0.950 . S
H4309 C4333 0.951 . S
H4310 C4335 0.951 . S
H4311 C4337 0.950 . S
H4312 C4338 0.950 . S
H4313 C4340 0.950 . S
H4314 C4343 0.950 . S
H4315 C4344 0.950 . S
H4316 C4346 0.950 . S
H4317 C4347 0.950 . S
C4318 H4300 0.951 1_655 S
C4318 C4319 1.366 1_655 S
C4318 C4320 1.388 . S
C4319 C4318 1.366 1_455 S
C4319 C4323 1.385 1_455 S
C4320 H4301 0.951 . S
C4320 C4318 1.388 . S
C4320 C4321 1.366 . S
C4321 C4320 1.366 . S
C4321 C4322 1.414 . S
C4321 C4324 1.499 . S
C4322 H4302 0.950 . S
C4322 C4321 1.414 . S
C4322 C4323 1.374 . S
C4323 H4303 0.950 1_655 S
C4323 C4319 1.385 1_655 S
C4323 C4322 1.374 . S
C4324 C4321 1.499 . S
C4324 C4325 1.373 . S
C4324 C4326 1.389 . S
C4325 H4304 0.950 . S
C4325 C4324 1.373 . S
C4325 C4341 1.377 . S
C4326 C4324 1.389 . S
C4326 C4327 1.524 . S
C4326 C4340 1.377 . S
C4327 C4326 1.524 . S
C4327 C4328 1.397 . S
C4327 C4332 1.363 . S
C4328 H4305 0.950 . S
C4328 C4327 1.397 . S
C4328 C4329 1.300 1_655 S
C4329 H4306 1.041 . S
C4329 C4328 1.300 1_455 S
C4329 C4330 1.214 1_455 S
C4330 C4329 1.214 1_655 S
C4330 C4331 1.562 . S
C4330 H4349 0.897 1_655 S
C4331 H4307 0.950 . S
C4331 C4330 1.562 . S
C4331 C4332 1.415 . S
C4332 H4308 0.950 . S
C4332 C4327 1.363 . S
C4332 C4331 1.415 . S
C4333 H4309 0.951 . S
C4333 C4334 1.366 . S
C4333 C4335 1.388 . S
C4334 C4333 1.366 . S
C4334 C4338 1.385 . S
C4335 H4310 0.951 . S
C4335 C4333 1.388 . S
C4335 C4336 1.366 . S
C4336 C4335 1.366 . S
C4336 C4337 1.414 . S
C4336 C4339 1.499 . S
C4337 H4311 0.950 . S
C4337 C4336 1.414 . S
C4337 C4338 1.374 . S
C4338 H4312 0.950 . S
C4338 C4334 1.385 . S
C4338 C4337 1.374 . S
C4339 C4336 1.499 . S
C4339 C4340 1.373 . S
C4339 C4341 1.389 . S
C4340 H4313 0.950 . S
C4340 C4326 1.377 . S
C4340 C4339 1.373 . S
C4341 C4325 1.377 . S
C4341 C4339 1.389 . S
C4341 C4342 1.524 . S
C4342 C4341 1.524 . S
C4342 C4343 1.397 . S
C4342 C4347 1.363 . S
C4343 H4314 0.950 . S
C4343 C4342 1.397 . S
C4343 C4344 1.334 . S
C4344 H4315 0.950 . S
C4344 C4343 1.334 . S
C4344 C4345 1.287 . S
C4345 C4344 1.287 . S
C4345 C4346 1.524 . S
C4345 H4348 0.999 . S
C4346 H4316 0.950 . S
C4346 C4345 1.524 . S
C4346 C4347 1.415 . S
C4347 H4317 0.950 . S
C4347 C4342 1.363 . S
C4347 C4346 1.415 . S
H4348 C4345 0.999 . S
H4349 C4330 0.897 1_455 S
H4350 C4368 0.951 . S
H4351 C4370 0.951 . S
H4352 C4372 0.950 . S
H4353 C4373 0.950 . S
H4354 C4375 0.950 . S
H4355 C4378 0.950 . S
H4356 C4379 0.950 . S
H4357 C4381 0.950 . S
H4358 C4382 0.950 . S
H4359 C4383 0.951 . S
H4360 C4385 0.951 . S
H4361 C4387 0.950 . S
H4362 C4388 0.950 . S
H4363 C4390 0.950 . S
H4364 C4393 0.950 . S
H4365 C4394 0.950 . S
H4366 C4396 0.950 . S
H4367 C4397 0.950 . S
C4368 H4350 0.951 . S
C4368 C4369 1.366 . S
C4368 C4370 1.388 . S
C4369 C4368 1.366 . S
C4369 C4373 1.385 . S
C4370 H4351 0.951 . S
C4370 C4368 1.388 . S
C4370 C4371 1.366 . S
C4371 C4370 1.366 . S
C4371 C4372 1.414 . S
C4371 C4374 1.499 . S
C4372 H4352 0.950 . S
C4372 C4371 1.414 . S
C4372 C4373 1.374 . S
C4373 H4353 0.950 . S
C4373 C4369 1.385 . S
C4373 C4372 1.374 . S
C4374 C4371 1.499 . S
C4374 C4375 1.373 . S
C4374 C4376 1.389 . S
C4375 H4354 0.950 . S
C4375 C4374 1.373 . S
C4375 C4391 1.377 . S
C4376 C4374 1.389 . S
C4376 C4377 1.524 . S
C4376 C4390 1.377 . S
C4377 C4376 1.524 . S
C4377 C4378 1.397 . S
C4377 C4382 1.363 1_545 S
C4378 H4355 0.950 . S
C4378 C4377 1.397 . S
C4378 C4379 1.334 . S
C4379 H4356 0.950 . S
C4379 C4378 1.334 . S
C4379 C4380 1.287 1_545 S
C4380 C4379 1.287 1_565 S
C4380 C4381 1.524 . S
C4380 H4399 0.913 . S
C4381 H4357 0.950 . S
C4381 C4380 1.524 . S
C4381 C4382 1.415 . S
C4382 H4358 0.950 . S
C4382 C4377 1.363 1_565 S
C4382 C4381 1.415 . S
C4383 H4359 0.951 . S
C4383 C4384 1.366 . S
C4383 C4385 1.388 . S
C4384 C4383 1.366 . S
C4384 C4388 1.385 . S
C4385 H4360 0.951 . S
C4385 C4383 1.388 . S
C4385 C4386 1.366 . S
C4386 C4385 1.366 . S
C4386 C4387 1.414 . S
C4386 C4389 1.499 . S
C4387 H4361 0.950 . S
C4387 C4386 1.414 . S
C4387 C4388 1.374 . S
C4388 H4362 0.950 . S
C4388 C4384 1.385 . S
C4388 C4387 1.374 . S
C4389 C4386 1.499 . S
C4389 C4390 1.373 . S
C4389 C4391 1.389 . S
C4390 H4363 0.950 . S
C4390 C4376 1.377 . S
C4390 C4389 1.373 . S
C4391 C4375 1.377 . S
C4391 C4389 1.389 . S
C4391 C4392 1.524 . S
C4392 C4391 1.524 . S
C4392 C4393 1.397 . S
C4392 C4397 1.363 . S
C4393 H4364 0.950 . S
C4393 C4392 1.397 . S
C4393 C4394 1.334 . S
C4394 H4365 0.950 . S
C4394 C4393 1.334 . S
C4394 C4395 1.287 . S
C4395 C4394 1.287 . S
C4395 C4396 1.524 . S
C4395 H4398 0.999 . S
C4396 H4366 0.950 . S
C4396 C4395 1.524 . S
C4396 C4397 1.415 . S
C4397 H4367 0.950 . S
C4397 C4392 1.363 . S
C4397 C4396 1.415 . S
H4398 C4395 0.999 . S
H4399 C4380 0.913 . S
H4400 C4418 0.951 1_455 S
H4401 C4420 0.890 1_455 S
H4402 C4422 0.950 . S
H4403 C4423 0.950 . S
H4404 C4425 0.950 . S
H4405 C4428 0.950 . S
H4406 C4429 0.950 . S
H4407 C4431 0.950 . S
H4408 C4432 0.950 . S
H4409 C4433 0.951 . S
H4410 C4435 0.951 . S
H4411 C4437 0.950 . S
H4412 C4438 0.950 . S
H4413 C4440 0.962 . S
H4414 C4443 0.950 1_455 S
H4415 C4444 0.958 . S
H4416 C4446 0.950 . S
H4417 C4447 0.950 . S
C4418 H4400 0.951 1_655 S
C4418 C4419 1.366 . S
C4418 C4420 1.347 . S
C4419 C4418 1.366 . S
C4419 C4423 1.385 . S
C4420 H4401 0.890 1_655 S
C4420 C4418 1.347 . S
C4420 C4421 1.475 . S
C4421 C4420 1.475 . S
C4421 C4422 1.414 . S
C4421 C4424 1.499 . S
C4422 H4402 0.950 . S
C4422 C4421 1.414 . S
C4422 C4423 1.374 . S
C4423 H4403 0.950 . S
C4423 C4419 1.385 . S
C4423 C4422 1.374 . S
C4424 C4421 1.499 . S
C4424 C4425 1.373 . S
C4424 C4426 1.389 . S
C4425 H4404 0.950 . S
C4425 C4424 1.373 . S
C4425 C4441 1.377 . S
C4426 C4424 1.389 . S
C4426 C4427 1.524 . S
C4426 C4440 1.377 . S
C4427 C4426 1.524 . S
C4427 C4428 1.397 . S
C4427 C4432 1.363 1_655 S
C4428 H4405 0.950 . S
C4428 C4427 1.397 . S
C4428 C4429 1.334 . S
C4429 H4406 0.950 . S
C4429 C4428 1.334 . S
C4429 C4430 1.318 . S
C4430 C4429 1.318 . S
C4430 C4431 1.508 1_655 S
C4430 H4449 0.858 1_655 S
C4431 H4407 0.950 . S
C4431 C4430 1.508 1_455 S
C4431 C4432 1.415 . S
C4432 H4408 0.950 . S
C4432 C4427 1.363 1_455 S
C4432 C4431 1.415 . S
C4433 H4409 0.951 . S
C4433 C4434 1.366 . S
C4433 C4435 1.388 . S
C4434 C4433 1.366 . S
C4434 C4438 1.385 1_655 S
C4435 H4410 0.951 . S
C4435 C4433 1.388 . S
C4435 C4436 1.366 . S
C4436 C4435 1.366 . S
C4436 C4437 1.414 1_655 S
C4436 C4439 1.499 . S
C4437 H4411 0.950 . S
C4437 C4436 1.414 1_455 S
C4437 C4438 1.374 . S
C4438 H4412 0.950 . S
C4438 C4434 1.385 1_455 S
C4438 C4437 1.374 . S
C4439 C4436 1.499 . S
C4439 C4440 1.373 . S
C4439 C4441 1.389 . S
C4440 H4413 0.962 . S
C4440 C4426 1.377 . S
C4440 C4439 1.373 . S
C4441 C4425 1.377 . S
C4441 C4439 1.389 . S
C4441 C4442 1.524 . S
C4442 C4441 1.524 . S
C4442 C4443 1.397 . S
C4442 C4447 1.363 . S
C4443 H4414 0.950 1_655 S
C4443 C4442 1.397 . S
C4443 C4444 1.334 . S
C4444 H4415 0.958 . S
C4444 C4443 1.334 . S
C4444 C4445 1.287 . S
C4445 C4444 1.287 . S
C4445 C4446 1.524 . S
C4445 H4448 0.999 . S
C4446 H4416 0.950 . S
C4446 C4445 1.524 . S
C4446 C4447 1.415 . S
C4447 H4417 0.950 . S
C4447 C4442 1.363 . S
C4447 C4446 1.415 . S
H4448 C4445 0.999 . S
H4449 C4430 0.858 1_455 S
H4450 C4468 0.951 . S
H4451 C4470 0.951 . S
H4452 C4472 0.950 . S
H4453 C4473 0.950 . S
H4454 C4475 0.950 . S
H4455 C4478 0.950 . S
H4456 C4479 0.950 . S
H4457 C4481 0.950 . S
H4458 C4482 0.950 . S
H4459 C4483 0.951 . S
H4460 C4485 0.951 . S
H4461 C4487 0.950 . S
H4462 C4488 0.950 . S
H4463 C4490 0.950 . S
H4464 C4493 0.950 . S
H4465 C4494 0.950 . S
H4466 C4496 0.950 . S
H4467 C4497 0.950 . S
C4468 H4450 0.951 . S
C4468 C4469 1.366 . S
C4468 C4470 1.388 . S
C4469 C4468 1.366 . S
C4469 C4473 1.385 . S
C4470 H4451 0.951 . S
C4470 C4468 1.388 . S
C4470 C4471 1.366 . S
C4471 C4470 1.366 . S
C4471 C4472 1.414 . S
C4471 C4474 1.499 . S
C4472 H4452 0.950 . S
C4472 C4471 1.414 . S
C4472 C4473 1.374 . S
C4473 H4453 0.950 . S
C4473 C4469 1.385 . S
C4473 C4472 1.374 . S
C4474 C4471 1.499 . S
C4474 C4475 1.373 . S
C4474 C4476 1.389 . S
C4475 H4454 0.950 . S
C4475 C4474 1.373 . S
C4475 C4491 1.377 . S
C4476 C4474 1.389 . S
C4476 C4477 1.524 . S
C4476 C4490 1.377 . S
C4477 C4476 1.524 . S
C4477 C4478 1.397 . S
C4477 C4482 1.363 . S
C4478 H4455 0.950 . S
C4478 C4477 1.397 . S
C4478 C4479 1.334 . S
C4479 H4456 0.950 . S
C4479 C4478 1.334 . S
C4479 C4480 1.287 . S
C4480 C4479 1.287 . S
C4480 C4481 1.524 . S
C4480 H4499 0.913 . S
C4481 H4457 0.950 . S
C4481 C4480 1.524 . S
C4481 C4482 1.415 . S
C4482 H4458 0.950 . S
C4482 C4477 1.363 . S
C4482 C4481 1.415 . S
C4483 H4459 0.951 . S
C4483 C4484 1.366 . S
C4483 C4485 1.388 . S
C4484 C4483 1.366 . S
C4484 C4488 1.385 . S
C4485 H4460 0.951 . S
C4485 C4483 1.388 . S
C4485 C4486 1.366 . S
C4486 C4485 1.366 . S
C4486 C4487 1.414 . S
C4486 C4489 1.499 . S
C4487 H4461 0.950 . S
C4487 C4486 1.414 . S
C4487 C4488 1.374 . S
C4488 H4462 0.950 . S
C4488 C4484 1.385 . S
C4488 C4487 1.374 . S
C4489 C4486 1.499 . S
C4489 C4490 1.373 . S
C4489 C4491 1.389 . S
C4490 H4463 0.950 . S
C4490 C4476 1.377 . S
C4490 C4489 1.373 . S
C4491 C4475 1.377 . S
C4491 C4489 1.389 . S
C4491 C4492 1.524 . S
C4492 C4491 1.524 . S
C4492 C4493 1.397 . S
C4492 C4497 1.363 . S
C4493 H4464 0.950 . S
C4493 C4492 1.397 . S
C4493 C4494 1.334 . S
C4494 H4465 0.950 . S
C4494 C4493 1.334 . S
C4494 C4495 1.287 . S
C4495 C4494 1.287 . S
C4495 C4496 1.524 . S
C4495 H4498 0.999 . S
C4496 H4466 0.950 . S
C4496 C4495 1.524 . S
C4496 C4497 1.415 . S
C4497 H4467 0.950 . S
C4497 C4492 1.363 . S
C4497 C4496 1.415 . S
H4498 C4495 0.999 . S
H4499 C4480 0.913 . S
H4500 C4518 0.951 . S
H4501 C4520 0.951 . S
H4502 C4522 0.950 . S
H4503 C4523 0.950 . S
H4504 C4525 0.950 . S
H4505 C4528 0.950 . S
H4506 C4529 0.950 . S
H4507 C4531 0.950 . S
H4508 C4532 0.950 . S
H4509 C4533 0.951 . S
H4510 C4535 0.951 . S
H4511 C4537 0.950 . S
H4512 C4538 0.950 . S
H4513 C4540 0.950 . S
H4514 C4543 0.950 . S
H4515 C4544 0.950 . S
H4516 C4546 0.950 . S
H4517 C4547 0.950 . S
C4518 H4500 0.951 . S
C4518 C4519 1.366 . S
C4518 C4520 1.388 . S
C4519 C4518 1.366 . S
C4519 C4523 1.385 . S
C4520 H4501 0.951 . S
C4520 C4518 1.388 . S
C4520 C4521 1.366 . S
C4521 C4520 1.366 . S
C4521 C4522 1.414 . S
C4521 C4524 1.499 . S
C4522 H4502 0.950 . S
C4522 C4521 1.414 . S
C4522 C4523 1.374 . S
C4523 H4503 0.950 . S
C4523 C4519 1.385 . S
C4523 C4522 1.374 . S
C4524 C4521 1.499 . S
C4524 C4525 1.373 . S
C4524 C4526 1.389 . S
C4525 H4504 0.950 . S
C4525 C4524 1.373 . S
C4525 C4541 1.377 . S
C4526 C4524 1.389 . S
C4526 C4527 1.524 . S
C4526 C4540 1.377 . S
C4527 C4526 1.524 . S
C4527 C4528 1.397 . S
C4527 C4532 1.363 . S
C4528 H4505 0.950 . S
C4528 C4527 1.397 . S
C4528 C4529 1.334 . S
C4529 H4506 0.950 . S
C4529 C4528 1.334 . S
C4529 C4530 1.287 . S
C4530 C4529 1.287 . S
C4530 C4531 1.524 . S
C4530 H4549 0.913 . S
C4531 H4507 0.950 . S
C4531 C4530 1.524 . S
C4531 C4532 1.415 . S
C4532 H4508 0.950 . S
C4532 C4527 1.363 . S
C4532 C4531 1.415 . S
C4533 H4509 0.951 . S
C4533 C4534 1.366 . S
C4533 C4535 1.388 . S
C4534 C4533 1.366 . S
C4534 C4538 1.385 . S
C4535 H4510 0.951 . S
C4535 C4533 1.388 . S
C4535 C4536 1.366 . S
C4536 C4535 1.366 . S
C4536 C4537 1.414 . S
C4536 C4539 1.499 . S
C4537 H4511 0.950 . S
C4537 C4536 1.414 . S
C4537 C4538 1.374 . S
C4538 H4512 0.950 . S
C4538 C4534 1.385 . S
C4538 C4537 1.374 . S
C4539 C4536 1.499 . S
C4539 C4540 1.373 . S
C4539 C4541 1.389 . S
C4540 H4513 0.950 . S
C4540 C4526 1.377 . S
C4540 C4539 1.373 . S
C4541 C4525 1.377 . S
C4541 C4539 1.389 . S
C4541 C4542 1.524 . S
C4542 C4541 1.524 . S
C4542 C4543 1.397 . S
C4542 C4547 1.363 . S
C4543 H4514 0.950 . S
C4543 C4542 1.397 . S
C4543 C4544 1.334 . S
C4544 H4515 0.950 . S
C4544 C4543 1.334 . S
C4544 C4545 1.287 . S
C4545 C4544 1.287 . S
C4545 C4546 1.524 . S
C4545 H4548 0.999 . S
C4546 H4516 0.950 . S
C4546 C4545 1.524 . S
C4546 C4547 1.415 . S
C4547 H4517 0.950 . S
C4547 C4542 1.363 . S
C4547 C4546 1.415 . S
H4548 C4545 0.999 . S
H4549 C4530 0.913 . S
H4550 C4568 0.951 . S
H4551 C4570 0.951 . S
H4552 C4572 0.950 . S
H4553 C4573 0.950 . S
H4554 C4575 0.950 . S
H4555 C4578 0.950 . S
H4556 C4579 0.950 . S
H4557 C4581 0.950 . S
H4558 C4582 0.950 . S
H4559 C4583 0.951 . S
H4560 C4585 0.951 . S
H4561 C4587 0.950 . S
H4562 C4588 0.950 . S
H4563 C4590 0.950 . S
H4564 C4593 0.950 . S
H4565 C4594 0.950 . S
H4566 C4596 0.950 . S
H4567 C4597 0.950 . S
C4568 H4550 0.951 . S
C4568 C4569 1.366 1_565 S
C4568 C4570 1.388 . S
C4569 C4568 1.366 1_545 S
C4569 C4573 1.385 . S
C4570 H4551 0.951 . S
C4570 C4568 1.388 . S
C4570 C4571 1.366 . S
C4571 C4570 1.366 . S
C4571 C4572 1.414 . S
C4571 C4574 1.499 . S
C4572 H4552 0.950 . S
C4572 C4571 1.414 . S
C4572 C4573 1.374 1_565 S
C4573 H4553 0.950 . S
C4573 C4569 1.385 . S
C4573 C4572 1.374 1_545 S
C4574 C4571 1.499 . S
C4574 C4575 1.373 . S
C4574 C4576 1.389 . S
C4575 H4554 0.950 . S
C4575 C4574 1.373 . S
C4575 C4591 1.377 . S
C4576 C4574 1.389 . S
C4576 C4577 1.524 . S
C4576 C4590 1.377 . S
C4577 C4576 1.524 . S
C4577 C4578 1.397 . S
C4577 C4582 1.363 . S
C4578 H4555 0.950 . S
C4578 C4577 1.397 . S
C4578 C4579 1.334 . S
C4579 H4556 0.950 . S
C4579 C4578 1.334 . S
C4579 C4580 1.287 . S
C4580 C4579 1.287 . S
C4580 C4581 1.524 . S
C4580 H4599 0.913 . S
C4581 H4557 0.950 . S
C4581 C4580 1.524 . S
C4581 C4582 1.415 . S
C4582 H4558 0.950 . S
C4582 C4577 1.363 . S
C4582 C4581 1.415 . S
C4583 H4559 0.951 . S
C4583 C4584 1.366 . S
C4583 C4585 1.388 . S
C4584 C4583 1.366 . S
C4584 C4588 1.385 . S
C4585 H4560 0.951 . S
C4585 C4583 1.388 . S
C4585 C4586 1.366 . S
C4586 C4585 1.366 . S
C4586 C4587 1.414 . S
C4586 C4589 1.499 . S
C4587 H4561 0.950 . S
C4587 C4586 1.414 . S
C4587 C4588 1.374 . S
C4588 H4562 0.950 . S
C4588 C4584 1.385 . S
C4588 C4587 1.374 . S
C4589 C4586 1.499 . S
C4589 C4590 1.373 . S
C4589 C4591 1.389 . S
C4590 H4563 0.950 . S
C4590 C4576 1.377 . S
C4590 C4589 1.373 . S
C4591 C4575 1.377 . S
C4591 C4589 1.389 . S
C4591 C4592 1.524 . S
C4592 C4591 1.524 . S
C4592 C4593 1.397 . S
C4592 C4597 1.363 . S
C4593 H4564 0.950 . S
C4593 C4592 1.397 . S
C4593 C4594 1.334 . S
C4594 H4565 0.950 . S
C4594 C4593 1.334 . S
C4594 C4595 1.287 . S
C4595 C4594 1.287 . S
C4595 C4596 1.524 . S
C4595 H4598 0.999 . S
C4596 H4566 0.950 . S
C4596 C4595 1.524 . S
C4596 C4597 1.415 . S
C4597 H4567 0.950 . S
C4597 C4592 1.363 . S
C4597 C4596 1.415 . S
H4598 C4595 0.999 . S
H4599 C4580 0.913 . S
H4600 C4618 0.951 . S
H4601 C4620 0.951 . S
H4602 C4622 0.950 . S
H4603 C4623 0.950 . S
H4604 C4625 0.950 . S
H4605 C4628 0.950 . S
H4606 C4629 0.950 . S
H4607 C4631 0.950 . S
H4608 C4632 0.950 . S
H4609 C4633 0.951 . S
H4610 C4635 0.951 . S
H4611 C4637 0.950 . S
H4612 C4638 0.950 . S
H4613 C4640 0.950 . S
H4614 C4643 0.950 . S
H4615 C4644 0.950 . S
H4616 C4646 0.950 . S
H4617 C4647 0.950 . S
C4618 H4600 0.951 . S
C4618 C4619 1.366 . S
C4618 C4620 1.388 . S
C4619 C4618 1.366 . S
C4619 C4623 1.385 . S
C4620 H4601 0.951 . S
C4620 C4618 1.388 . S
C4620 C4621 1.366 . S
C4621 C4620 1.366 . S
C4621 C4622 1.414 . S
C4621 C4624 1.499 . S
C4622 H4602 0.950 . S
C4622 C4621 1.414 . S
C4622 C4623 1.374 . S
C4623 H4603 0.950 . S
C4623 C4619 1.385 . S
C4623 C4622 1.374 . S
C4624 C4621 1.499 . S
C4624 C4625 1.373 . S
C4624 C4626 1.389 . S
C4625 H4604 0.950 . S
C4625 C4624 1.373 . S
C4625 C4641 1.377 . S
C4626 C4624 1.389 . S
C4626 C4627 1.524 . S
C4626 C4640 1.377 . S
C4627 C4626 1.524 . S
C4627 C4628 1.397 . S
C4627 C4632 1.363 . S
C4628 H4605 0.950 . S
C4628 C4627 1.397 . S
C4628 C4629 1.334 . S
C4629 H4606 0.950 . S
C4629 C4628 1.334 . S
C4629 C4630 1.287 . S
C4630 C4629 1.287 . S
C4630 C4631 1.524 . S
C4630 H4649 0.913 . S
C4631 H4607 0.950 . S
C4631 C4630 1.524 . S
C4631 C4632 1.415 . S
C4632 H4608 0.950 . S
C4632 C4627 1.363 . S
C4632 C4631 1.415 . S
C4633 H4609 0.951 . S
C4633 C4634 1.366 . S
C4633 C4635 1.388 . S
C4634 C4633 1.366 . S
C4634 C4638 1.385 . S
C4635 H4610 0.951 . S
C4635 C4633 1.388 . S
C4635 C4636 1.366 . S
C4636 C4635 1.366 . S
C4636 C4637 1.414 . S
C4636 C4639 1.499 . S
C4637 H4611 0.950 . S
C4637 C4636 1.414 . S
C4637 C4638 1.374 . S
C4638 H4612 0.950 . S
C4638 C4634 1.385 . S
C4638 C4637 1.374 . S
C4639 C4636 1.499 . S
C4639 C4640 1.373 . S
C4639 C4641 1.389 . S
C4640 H4613 0.950 . S
C4640 C4626 1.377 . S
C4640 C4639 1.373 . S
C4641 C4625 1.377 . S
C4641 C4639 1.389 . S
C4641 C4642 1.524 . S
C4642 C4641 1.524 . S
C4642 C4643 1.397 . S
C4642 C4647 1.363 . S
C4643 H4614 0.950 . S
C4643 C4642 1.397 . S
C4643 C4644 1.334 . S
C4644 H4615 0.950 . S
C4644 C4643 1.334 . S
C4644 C4645 1.287 . S
C4645 C4644 1.287 . S
C4645 C4646 1.524 . S
C4645 H4648 0.999 . S
C4646 H4616 0.950 . S
C4646 C4645 1.524 . S
C4646 C4647 1.415 . S
C4647 H4617 0.950 . S
C4647 C4642 1.363 . S
C4647 C4646 1.415 . S
H4648 C4645 0.999 . S
H4649 C4630 0.913 . S
H4650 C4668 0.951 . S
H4651 C4670 0.951 . S
H4652 C4672 0.950 . S
H4653 C4673 0.950 . S
H4654 C4675 0.950 . S
H4655 C4678 0.950 . S
H4656 C4679 0.950 . S
H4657 C4681 0.950 . S
H4658 C4682 0.950 . S
H4659 C4683 0.951 . S
H4660 C4685 0.951 . S
H4661 C4687 0.950 . S
H4662 C4688 0.950 . S
H4663 C4690 0.950 . S
H4664 C4693 0.950 . S
H4665 C4694 0.950 . S
H4666 C4696 0.950 . S
H4667 C4697 0.950 . S
C4668 H4650 0.951 . S
C4668 C4669 1.366 . S
C4668 C4670 1.388 . S
C4669 C4668 1.366 . S
C4669 C4673 1.385 . S
C4670 H4651 0.951 . S
C4670 C4668 1.388 . S
C4670 C4671 1.366 . S
C4671 C4670 1.366 . S
C4671 C4672 1.414 . S
C4671 C4674 1.499 . S
C4672 H4652 0.950 . S
C4672 C4671 1.414 . S
C4672 C4673 1.374 . S
C4673 H4653 0.950 . S
C4673 C4669 1.385 . S
C4673 C4672 1.374 . S
C4674 C4671 1.499 . S
C4674 C4675 1.373 . S
C4674 C4676 1.389 . S
C4675 H4654 0.950 . S
C4675 C4674 1.373 . S
C4675 C4691 1.377 . S
C4676 C4674 1.389 . S
C4676 C4677 1.524 . S
C4676 C4690 1.377 . S
C4677 C4676 1.524 . S
C4677 C4678 1.397 . S
C4677 C4682 1.363 . S
C4678 H4655 0.950 . S
C4678 C4677 1.397 . S
C4678 C4679 1.334 . S
C4679 H4656 0.950 . S
C4679 C4678 1.334 . S
C4679 C4680 1.287 . S
C4680 C4679 1.287 . S
C4680 C4681 1.524 . S
C4680 H4699 0.913 . S
C4681 H4657 0.950 . S
C4681 C4680 1.524 . S
C4681 C4682 1.415 . S
C4682 H4658 0.950 . S
C4682 C4677 1.363 . S
C4682 C4681 1.415 . S
C4683 H4659 0.951 . S
C4683 C4684 1.366 . S
C4683 C4685 1.388 . S
C4684 C4683 1.366 . S
C4684 C4688 1.385 . S
C4685 H4660 0.951 . S
C4685 C4683 1.388 . S
C4685 C4686 1.366 . S
C4686 C4685 1.366 . S
C4686 C4687 1.414 . S
C4686 C4689 1.499 . S
C4687 H4661 0.950 . S
C4687 C4686 1.414 . S
C4687 C4688 1.374 . S
C4688 H4662 0.950 . S
C4688 C4684 1.385 . S
C4688 C4687 1.374 . S
C4689 C4686 1.499 . S
C4689 C4690 1.373 . S
C4689 C4691 1.389 . S
C4690 H4663 0.950 . S
C4690 C4676 1.377 . S
C4690 C4689 1.373 . S
C4691 C4675 1.377 . S
C4691 C4689 1.389 . S
C4691 C4692 1.524 . S
C4692 C4691 1.524 . S
C4692 C4693 1.397 . S
C4692 C4697 1.363 . S
C4693 H4664 0.950 . S
C4693 C4692 1.397 . S
C4693 C4694 1.334 . S
C4694 H4665 0.950 . S
C4694 C4693 1.334 . S
C4694 C4695 1.287 . S
C4695 C4694 1.287 . S
C4695 C4696 1.524 . S
C4695 H4698 0.999 . S
C4696 H4666 0.950 . S
C4696 C4695 1.524 . S
C4696 C4697 1.415 . S
C4697 H4667 0.950 . S
C4697 C4692 1.363 . S
C4697 C4696 1.415 . S
H4698 C4695 0.999 . S
H4699 C4680 0.913 . S
H4700 C4718 0.951 . S
H4701 C4720 0.951 . S
H4702 C4722 0.950 . S
H4703 C4723 0.950 . S
H4704 C4725 0.950 . S
H4705 C4728 0.950 . S
H4706 C4729 0.950 1_545 S
H4707 C4731 0.950 . S
H4708 C4732 0.950 . S
H4709 C4733 0.951 . S
H4710 C4735 0.951 . S
H4711 C4737 0.950 . S
H4712 C4738 0.950 . S
H4713 C4740 0.950 . S
H4714 C4743 0.950 . S
H4715 C4744 0.950 . S
H4716 C4746 0.950 . S
H4717 C4747 0.950 . S
C4718 H4700 0.951 . S
C4718 C4719 1.366 1_565 S
C4718 C4720 1.388 . S
C4719 C4718 1.366 1_545 S
C4719 C4723 1.385 . S
C4720 H4701 0.951 . S
C4720 C4718 1.388 . S
C4720 C4721 1.366 . S
C4721 C4720 1.366 . S
C4721 C4722 1.414 . S
C4721 C4724 1.499 . S
C4722 H4702 0.950 . S
C4722 C4721 1.414 . S
C4722 C4723 1.374 1_565 S
C4723 H4703 0.950 . S
C4723 C4719 1.385 . S
C4723 C4722 1.374 1_545 S
C4724 C4721 1.499 . S
C4724 C4725 1.373 . S
C4724 C4726 1.389 . S
C4725 H4704 0.950 . S
C4725 C4724 1.373 . S
C4725 C4741 1.377 . S
C4726 C4724 1.389 . S
C4726 C4727 1.524 . S
C4726 C4740 1.377 . S
C4727 C4726 1.524 . S
C4727 C4728 1.397 . S
C4727 C4732 1.363 . S
C4728 H4705 0.950 . S
C4728 C4727 1.397 . S
C4728 C4729 1.334 . S
C4729 H4706 0.950 1_565 S
C4729 C4728 1.334 . S
C4729 C4730 1.287 . S
C4730 C4729 1.287 . S
C4730 C4731 1.524 . S
C4730 H4749 0.913 . S
C4731 H4707 0.950 . S
C4731 C4730 1.524 . S
C4731 C4732 1.415 . S
C4732 H4708 0.950 . S
C4732 C4727 1.363 . S
C4732 C4731 1.415 . S
C4733 H4709 0.951 . S
C4733 C4734 1.366 . S
C4733 C4735 1.388 . S
C4734 C4733 1.366 . S
C4734 C4738 1.385 . S
C4735 H4710 0.951 . S
C4735 C4733 1.388 . S
C4735 C4736 1.366 . S
C4736 C4735 1.366 . S
C4736 C4737 1.414 . S
C4736 C4739 1.499 . S
C4737 H4711 0.950 . S
C4737 C4736 1.414 . S
C4737 C4738 1.374 . S
C4738 H4712 0.950 . S
C4738 C4734 1.385 . S
C4738 C4737 1.374 . S
C4739 C4736 1.499 . S
C4739 C4740 1.373 . S
C4739 C4741 1.389 . S
C4740 H4713 0.950 . S
C4740 C4726 1.377 . S
C4740 C4739 1.373 . S
C4741 C4725 1.377 . S
C4741 C4739 1.389 . S
C4741 C4742 1.524 . S
C4742 C4741 1.524 . S
C4742 C4743 1.397 . S
C4742 C4747 1.363 . S
C4743 H4714 0.950 . S
C4743 C4742 1.397 . S
C4743 C4744 1.334 . S
C4744 H4715 0.950 . S
C4744 C4743 1.334 . S
C4744 C4745 1.287 . S
C4745 C4744 1.287 . S
C4745 C4746 1.524 . S
C4745 H4748 0.999 . S
C4746 H4716 0.950 . S
C4746 C4745 1.524 . S
C4746 C4747 1.415 . S
C4747 H4717 0.950 . S
C4747 C4742 1.363 . S
C4747 C4746 1.415 . S
H4748 C4745 0.999 . S
H4749 C4730 0.913 . S
H4750 C4768 0.951 . S
H4751 C4770 0.951 . S
H4752 C4772 0.950 . S
H4753 C4773 0.950 . S
H4754 C4775 0.950 . S
H4755 C4778 0.950 . S
H4756 C4779 0.950 . S
H4757 C4781 0.950 . S
H4758 C4782 0.950 . S
H4759 C4783 0.951 . S
H4760 C4785 0.951 . S
H4761 C4787 0.950 . S
H4762 C4788 0.950 . S
H4763 C4790 0.950 . S
H4764 C4793 0.950 . S
H4765 C4794 0.950 . S
H4766 C4796 0.950 . S
H4767 C4797 0.950 . S
C4768 H4750 0.951 . S
C4768 C4769 1.366 . S
C4768 C4770 1.388 . S
C4769 C4768 1.366 . S
C4769 C4773 1.385 . S
C4770 H4751 0.951 . S
C4770 C4768 1.388 . S
C4770 C4771 1.366 . S
C4771 C4770 1.366 . S
C4771 C4772 1.414 . S
C4771 C4774 1.499 . S
C4772 H4752 0.950 . S
C4772 C4771 1.414 . S
C4772 C4773 1.374 . S
C4773 H4753 0.950 . S
C4773 C4769 1.385 . S
C4773 C4772 1.374 . S
C4774 C4771 1.499 . S
C4774 C4775 1.373 . S
C4774 C4776 1.389 . S
C4775 H4754 0.950 . S
C4775 C4774 1.373 . S
C4775 C4791 1.377 . S
C4776 C4774 1.389 . S
C4776 C4777 1.524 . S
C4776 C4790 1.377 . S
C4777 C4776 1.524 . S
C4777 C4778 1.397 . S
C4777 C4782 1.363 . S
C4778 H4755 0.950 . S
C4778 C4777 1.397 . S
C4778 C4779 1.334 . S
C4779 H4756 0.950 . S
C4779 C4778 1.334 . S
C4779 C4780 1.287 . S
C4780 C4779 1.287 . S
C4780 C4781 1.524 . S
C4780 H4799 0.913 . S
C4781 H4757 0.950 . S
C4781 C4780 1.524 . S
C4781 C4782 1.415 . S
C4782 H4758 0.950 . S
C4782 C4777 1.363 . S
C4782 C4781 1.415 . S
C4783 H4759 0.951 . S
C4783 C4784 1.366 . S
C4783 C4785 1.388 . S
C4784 C4783 1.366 . S
C4784 C4788 1.385 . S
C4785 H4760 0.951 . S
C4785 C4783 1.388 . S
C4785 C4786 1.366 . S
C4786 C4785 1.366 . S
C4786 C4787 1.414 . S
C4786 C4789 1.499 . S
C4787 H4761 0.950 . S
C4787 C4786 1.414 . S
C4787 C4788 1.374 . S
C4788 H4762 0.950 . S
C4788 C4784 1.385 . S
C4788 C4787 1.374 . S
C4789 C4786 1.499 . S
C4789 C4790 1.373 . S
C4789 C4791 1.389 . S
C4790 H4763 0.950 . S
C4790 C4776 1.377 . S
C4790 C4789 1.373 . S
C4791 C4775 1.377 . S
C4791 C4789 1.389 . S
C4791 C4792 1.524 . S
C4792 C4791 1.524 . S
C4792 C4793 1.397 . S
C4792 C4797 1.363 . S
C4793 H4764 0.950 . S
C4793 C4792 1.397 . S
C4793 C4794 1.334 . S
C4794 H4765 0.950 . S
C4794 C4793 1.334 . S
C4794 C4795 1.287 . S
C4795 C4794 1.287 . S
C4795 C4796 1.524 . S
C4795 H4798 0.999 . S
C4796 H4766 0.950 . S
C4796 C4795 1.524 . S
C4796 C4797 1.415 . S
C4797 H4767 0.950 . S
C4797 C4792 1.363 . S
C4797 C4796 1.415 . S
H4798 C4795 0.999 . S
H4799 C4780 0.913 . S
H4800 C4818 0.951 1_455 S
H4801 C4820 0.900 1_455 S
H4802 C4822 0.950 . S
H4803 C4823 0.950 . S
H4804 C4825 0.950 . S
H4805 C4828 0.976 . S
H4806 C4829 0.950 . S
H4807 C4831 0.950 . S
H4808 C4832 0.950 . S
H4809 C4833 0.951 . S
H4810 C4835 0.951 . S
H4811 C4837 0.950 . S
H4812 C4838 0.950 . S
H4813 C4840 0.927 1_455 S
H4814 C4843 0.950 . S
H4815 C4844 0.950 . S
H4816 C4846 0.950 . S
H4817 C4847 0.950 . S
C4818 H4800 0.951 1_655 S
C4818 C4819 1.366 . S
C4818 C4820 1.417 . S
C4819 C4818 1.366 . S
C4819 C4823 1.385 . S
C4820 H4801 0.900 1_655 S
C4820 C4818 1.417 . S
C4820 C4821 1.389 . S
C4821 C4820 1.389 . S
C4821 C4822 1.414 . S
C4821 C4824 1.499 . S
C4822 H4802 0.950 . S
C4822 C4821 1.414 . S
C4822 C4823 1.374 . S
C4823 H4803 0.950 . S
C4823 C4819 1.385 . S
C4823 C4822 1.374 . S
C4824 C4821 1.499 . S
C4824 C4825 1.373 . S
C4824 C4826 1.389 . S
C4825 H4804 0.950 . S
C4825 C4824 1.373 . S
C4825 C4841 1.377 . S
C4826 C4824 1.389 . S
C4826 C4827 1.524 1_655 S
C4826 C4840 1.390 . S
C4827 C4826 1.524 1_455 S
C4827 C4828 1.381 1_455 S
C4827 C4832 1.363 . S
C4828 H4805 0.976 . S
C4828 C4827 1.381 1_655 S
C4828 C4829 1.324 1_655 S
C4829 H4806 0.950 . S
C4829 C4828 1.324 1_455 S
C4829 C4830 1.287 . S
C4830 C4829 1.287 . S
C4830 C4831 1.524 . S
C4830 H4849 0.913 . S
C4831 H4807 0.950 . S
C4831 C4830 1.524 . S
C4831 C4832 1.415 . S
C4832 H4808 0.950 . S
C4832 C4827 1.363 . S
C4832 C4831 1.415 . S
C4833 H4809 0.951 . S
C4833 C4834 1.366 . S
C4833 C4835 1.388 . S
C4834 C4833 1.366 . S
C4834 C4838 1.385 1_655 S
C4835 H4810 0.951 . S
C4835 C4833 1.388 . S
C4835 C4836 1.366 . S
C4836 C4835 1.366 . S
C4836 C4837 1.414 1_655 S
C4836 C4839 1.499 . S
C4837 H4811 0.950 . S
C4837 C4836 1.414 1_455 S
C4837 C4838 1.374 . S
C4838 H4812 0.950 . S
C4838 C4834 1.385 1_455 S
C4838 C4837 1.374 . S
C4839 C4836 1.499 . S
C4839 C4840 1.383 . S
C4839 C4841 1.389 . S
C4840 H4813 0.927 1_655 S
C4840 C4826 1.390 . S
C4840 C4839 1.383 . S
C4841 C4825 1.377 . S
C4841 C4839 1.389 . S
C4841 C4842 1.524 . S
C4842 C4841 1.524 . S
C4842 C4843 1.397 . S
C4842 C4847 1.363 . S
C4843 H4814 0.950 . S
C4843 C4842 1.397 . S
C4843 C4844 1.334 . S
C4844 H4815 0.950 . S
C4844 C4843 1.334 . S
C4844 C4845 1.287 . S
C4845 C4844 1.287 . S
C4845 C4846 1.524 . S
C4845 H4848 0.999 . S
C4846 H4816 0.950 . S
C4846 C4845 1.524 . S
C4846 C4847 1.415 . S
C4847 H4817 0.950 . S
C4847 C4842 1.363 . S
C4847 C4846 1.415 . S
H4848 C4845 0.999 . S
H4849 C4830 0.913 . S
H4850 C4868 0.951 . S
H4851 C4870 0.951 . S
H4852 C4872 0.950 . S
H4853 C4873 0.950 . S
H4854 C4875 0.950 . S
H4855 C4878 0.950 . S
H4856 C4879 0.950 . S
H4857 C4881 0.950 . S
H4858 C4882 0.950 . S
H4859 C4883 0.951 . S
H4860 C4885 0.951 . S
H4861 C4887 0.950 . S
H4862 C4888 0.950 . S
H4863 C4890 0.950 . S
H4864 C4893 0.950 . S
H4865 C4894 0.950 . S
H4866 C4896 0.950 . S
H4867 C4897 0.950 . S
C4868 H4850 0.951 . S
C4868 C4869 1.366 . S
C4868 C4870 1.388 . S
C4869 C4868 1.366 . S
C4869 C4873 1.385 . S
C4870 H4851 0.951 . S
C4870 C4868 1.388 . S
C4870 C4871 1.366 . S
C4871 C4870 1.366 . S
C4871 C4872 1.414 . S
C4871 C4874 1.499 . S
C4872 H4852 0.950 . S
C4872 C4871 1.414 . S
C4872 C4873 1.374 . S
C4873 H4853 0.950 . S
C4873 C4869 1.385 . S
C4873 C4872 1.374 . S
C4874 C4871 1.499 . S
C4874 C4875 1.373 . S
C4874 C4876 1.389 . S
C4875 H4854 0.950 . S
C4875 C4874 1.373 . S
C4875 C4891 1.377 . S
C4876 C4874 1.389 . S
C4876 C4877 1.524 . S
C4876 C4890 1.377 . S
C4877 C4876 1.524 . S
C4877 C4878 1.397 . S
C4877 C4882 1.363 . S
C4878 H4855 0.950 . S
C4878 C4877 1.397 . S
C4878 C4879 1.334 . S
C4879 H4856 0.950 . S
C4879 C4878 1.334 . S
C4879 C4880 1.287 . S
C4880 C4879 1.287 . S
C4880 C4881 1.524 . S
C4880 H4899 0.913 . S
C4881 H4857 0.950 . S
C4881 C4880 1.524 . S
C4881 C4882 1.415 . S
C4882 H4858 0.950 . S
C4882 C4877 1.363 . S
C4882 C4881 1.415 . S
C4883 H4859 0.951 . S
C4883 C4884 1.366 . S
C4883 C4885 1.388 . S
C4884 C4883 1.366 . S
C4884 C4888 1.385 . S
C4885 H4860 0.951 . S
C4885 C4883 1.388 . S
C4885 C4886 1.366 . S
C4886 C4885 1.366 . S
C4886 C4887 1.414 . S
C4886 C4889 1.499 . S
C4887 H4861 0.950 . S
C4887 C4886 1.414 . S
C4887 C4888 1.374 . S
C4888 H4862 0.950 . S
C4888 C4884 1.385 . S
C4888 C4887 1.374 . S
C4889 C4886 1.499 . S
C4889 C4890 1.373 . S
C4889 C4891 1.389 . S
C4890 H4863 0.950 . S
C4890 C4876 1.377 . S
C4890 C4889 1.373 . S
C4891 C4875 1.377 . S
C4891 C4889 1.389 . S
C4891 C4892 1.524 . S
C4892 C4891 1.524 . S
C4892 C4893 1.397 . S
C4892 C4897 1.363 . S
C4893 H4864 0.950 . S
C4893 C4892 1.397 . S
C4893 C4894 1.334 . S
C4894 H4865 0.950 . S
C4894 C4893 1.334 . S
C4894 C4895 1.287 . S
C4895 C4894 1.287 . S
C4895 C4896 1.524 . S
C4895 H4898 0.999 . S
C4896 H4866 0.950 . S
C4896 C4895 1.524 . S
C4896 C4897 1.415 . S
C4897 H4867 0.950 . S
C4897 C4892 1.363 . S
C4897 C4896 1.415 . S
H4898 C4895 0.999 . S
H4899 C4880 0.913 . S
H4900 C4918 0.951 . S
H4901 C4920 0.951 . S
H4902 C4922 0.950 . S
H4903 C4923 0.950 . S
H4904 C4925 0.950 . S
H4905 C4928 0.950 . S
H4906 C4929 0.950 . S
H4907 C4931 0.950 . S
H4908 C4932 0.950 . S
H4909 C4933 0.951 . S
H4910 C4935 0.951 . S
H4911 C4937 0.950 . S
H4912 C4938 0.950 . S
H4913 C4940 0.950 . S
H4914 C4943 0.950 . S
H4915 C4944 0.950 . S
H4916 C4946 0.950 . S
H4917 C4947 0.950 . S
C4918 H4900 0.951 . S
C4918 C4919 1.366 . S
C4918 C4920 1.388 . S
C4919 C4918 1.366 . S
C4919 C4923 1.385 . S
C4920 H4901 0.951 . S
C4920 C4918 1.388 . S
C4920 C4921 1.366 . S
C4921 C4920 1.366 . S
C4921 C4922 1.414 . S
C4921 C4924 1.499 . S
C4922 H4902 0.950 . S
C4922 C4921 1.414 . S
C4922 C4923 1.374 . S
C4923 H4903 0.950 . S
C4923 C4919 1.385 . S
C4923 C4922 1.374 . S
C4924 C4921 1.499 . S
C4924 C4925 1.373 . S
C4924 C4926 1.389 . S
C4925 H4904 0.950 . S
C4925 C4924 1.373 . S
C4925 C4941 1.377 . S
C4926 C4924 1.389 . S
C4926 C4927 1.524 . S
C4926 C4940 1.377 . S
C4927 C4926 1.524 . S
C4927 C4928 1.397 . S
C4927 C4932 1.363 . S
C4928 H4905 0.950 . S
C4928 C4927 1.397 . S
C4928 C4929 1.334 1_545 S
C4929 H4906 0.950 . S
C4929 C4928 1.334 1_565 S
C4929 C4930 1.287 . S
C4930 C4929 1.287 . S
C4930 C4931 1.524 . S
C4930 H4949 0.913 . S
C4931 H4907 0.950 . S
C4931 C4930 1.524 . S
C4931 C4932 1.415 1_565 S
C4932 H4908 0.950 . S
C4932 C4927 1.363 . S
C4932 C4931 1.415 1_545 S
C4933 H4909 0.951 . S
C4933 C4934 1.366 . S
C4933 C4935 1.388 . S
C4934 C4933 1.366 . S
C4934 C4938 1.385 . S
C4935 H4910 0.951 . S
C4935 C4933 1.388 . S
C4935 C4936 1.366 . S
C4936 C4935 1.366 . S
C4936 C4937 1.414 . S
C4936 C4939 1.499 . S
C4937 H4911 0.950 . S
C4937 C4936 1.414 . S
C4937 C4938 1.374 . S
C4938 H4912 0.950 . S
C4938 C4934 1.385 . S
C4938 C4937 1.374 . S
C4939 C4936 1.499 . S
C4939 C4940 1.373 . S
C4939 C4941 1.389 . S
C4940 H4913 0.950 . S
C4940 C4926 1.377 . S
C4940 C4939 1.373 . S
C4941 C4925 1.377 . S
C4941 C4939 1.389 . S
C4941 C4942 1.524 . S
C4942 C4941 1.524 . S
C4942 C4943 1.397 . S
C4942 C4947 1.363 . S
C4943 H4914 0.950 . S
C4943 C4942 1.397 . S
C4943 C4944 1.334 . S
C4944 H4915 0.950 . S
C4944 C4943 1.334 . S
C4944 C4945 1.287 . S
C4945 C4944 1.287 . S
C4945 C4946 1.524 . S
C4945 H4948 0.999 . S
C4946 H4916 0.950 . S
C4946 C4945 1.524 . S
C4946 C4947 1.415 . S
C4947 H4917 0.950 . S
C4947 C4942 1.363 . S
C4947 C4946 1.415 . S
H4948 C4945 0.999 . S
H4949 C4930 0.913 . S
C1369 C10 1.699 . S
C1384 C839 1.648 . S
C1419 C23 1.687 . S
C1434 C883 1.643 . S
C1484 C963 1.646 . S
C1469 C29 1.700 . S
C1519 C30 1.697 . S
C1534 C1007 1.652 . S
C1569 C5 1.705 . S
C1584 C1087 1.659 . S
C1619 C18 1.693 . S
C1634 C1149 1.644 . S
C1669 C49 1.699 . S
C1684 C1069 1.645 . S
C1734 C1131 1.635 . S
C1719 C62 1.686 . S
C1784 C1025 1.654 . S
C1769 C70 1.696 . S
C1819 C75 1.697 . S
C1834 C945 1.643 . S
C1884 C821 1.655 . S
C1869 C44 1.706 . S
C1919 C57 1.693 . S
C1934 C901 1.650 . S
C1969 C88 1.700 . S
C1984 C1211 1.647 . S
C2019 C101 1.687 . S
C2034 C1255 1.643 . S
C2084 C1335 1.646 . S
C2069 C107 1.695 . S
C2119 C108 1.696 . S
C2134 C281 1.644 . S
C2169 C83 1.706 . S
C2184 C325 1.664 . S
C2219 C96 1.693 . S
C2234 C405 1.644 . S
C2269 C127 1.700 . S
C2284 C343 1.655 . S
C2319 C140 1.687 . S
C2334 C387 1.635 . S
C2384 C263 1.647 . S
C2369 C146 1.696 . S
C2434 C1317 1.646 . S
C2419 C147 1.698 . S
C2484 C1193 1.655 . S
C2469 C122 1.706 . S
C2534 C1273 1.651 . S
C2519 C135 1.693 . S
C2569 C160 1.700 . S
C2584 C467 1.647 . S
C2619 C173 1.687 . S
C2634 C529 1.635 . S
C2669 C185 1.696 . S
C2684 C573 1.654 . S
C2719 C186 1.697 . S
C2734 C635 1.653 . S
C2784 C697 1.664 . S
C2769 C159 1.706 . S
C2834 C777 1.643 . S
C2819 C172 1.693 . S
C2884 C715 1.655 . S
C2869 C205 1.699 . S
C2934 C759 1.636 . S
C2919 C218 1.687 . S
C2969 C224 1.695 . S
C2984 C653 1.653 . S
C3034 C591 1.652 . S
C3019 C225 1.696 . S
C3069 C200 1.705 . S
C3084 C449 1.655 . S
C3134 C511 1.643 . S
C3119 C213 1.693 . S
C3184 C287 1.455 . S
C3169 C4 1.511 . S
C3219 C17 1.503 . S
C3234 C331 1.451 . S
C3284 C411 1.459 . S
C3269 C31 1.516 . S
C3334 C473 1.456 . S
C3319 C36 1.511 1_556 S
C3384 C535 1.465 . S
C3369 C3 1.522 1_556 S
C3434 C579 1.461 . S
C3419 C16 1.515 1_556 S
C3469 C43 1.512 1_556 S
C3484 C597 1.458 . S
C3519 C56 1.503 1_556 S
C3534 C455 1.448 . S
C3569 C68 1.516 1_556 S
C3584 C517 1.460 . S
C3619 C69 1.511 . S
C3634 C349 1.458 . S
C3684 C393 1.465 . S
C3669 C42 1.522 . S
C3719 C55 1.514 . S
C3734 C269 1.458 . S
C3784 C641 1.459 . S
C3769 C82 1.512 . S
C3819 C95 1.504 . S
C3834 C703 1.451 . S
C3869 C109 1.516 . S
C3884 C783 1.460 . S
C3934 C845 1.454 . S
C3919 C114 1.511 . S
C3969 C81 1.522 . S
C3984 C889 1.467 . S
C4019 C94 1.515 . S
C4034 C969 1.463 . S
C4069 C121 1.512 . S
C4084 C951 1.451 . S
C4119 C134 1.503 . S
C4134 C827 1.448 . S
C4184 C907 1.460 . S
C4169 C148 1.515 . S
C4219 C153 1.510 . S
C4234 C721 1.457 . S
C4269 C120 1.522 . S
C4284 C765 1.465 . S
C4334 C659 1.459 . S
C4319 C133 1.514 . S
C4384 C1013 1.458 . S
C4369 C166 1.512 . S
C4419 C179 1.503 . S
C4434 C1093 1.452 . S
C4469 C187 1.515 . S
C4484 C1155 1.459 . S
C4534 C1217 1.455 . S
C4519 C192 1.510 . S
C4584 C1261 1.467 . S
C4569 C161 1.522 . S
C4619 C174 1.514 . S
C4634 C1341 1.457 . S
C4669 C199 1.512 . S
C4684 C1323 1.457 . S
C4719 C212 1.504 . S
C4734 C1199 1.449 . S
C4784 C1279 1.461 . S
C4769 C226 1.516 . S
C4834 C1075 1.455 . S
C4819 C231 1.504 . S
C4884 C1137 1.466 . S
C4869 C198 1.522 . S
C4919 C211 1.515 . S
C4934 C1031 1.460 . S
