# Generated by pormake.
# Topology ssb, (4,4)-cn, num edge types: 1
# Building blocks:
#     Node 0, Type 0, BuildingBlock: MIFKUJ_clean_linker_1, # of connection points: 4
#     Node 1, Type 0, BuildingBlock: MIFKUJ_clean_linker_1, # of connection points: 4
#     Node 2, Type 0, BuildingBlock: MIFKUJ_clean_linker_1, # of connection points: 4
#     Node 3, Type 0, BuildingBlock: MIFKUJ_clean_linker_1, # of connection points: 4
#     Node 4, Type 0, BuildingBlock: MIFKUJ_clean_linker_1, # of connection points: 4
#     Node 5, Type 0, BuildingBlock: MIFKUJ_clean_linker_1, # of connection points: 4
#     Node 6, Type 0, BuildingBlock: MIFKUJ_clean_linker_1, # of connection points: 4
#     Node 7, Type 0, BuildingBlock: MIFKUJ_clean_linker_1, # of connection points: 4
#     Node 8, Type 1, BuildingBlock: KOZSID_clean_sbu_0, # of connection points: 4
#     Node 9, Type 1, BuildingBlock: KOZSID_clean_sbu_0, # of connection points: 4
#     Node 10, Type 1, BuildingBlock: KOZSID_clean_sbu_0, # of connection points: 4
#     Node 11, Type 1, BuildingBlock: KOZSID_clean_sbu_0, # of connection points: 4
#     Node 12, Type 1, BuildingBlock: KOZSID_clean_sbu_0, # of connection points: 4
#     Node 13, Type 1, BuildingBlock: KOZSID_clean_sbu_0, # of connection points: 4
#     Node 14, Type 1, BuildingBlock: KOZSID_clean_sbu_0, # of connection points: 4
#     Node 15, Type 1, BuildingBlock: KOZSID_clean_sbu_0, # of connection points: 4
#     Edge 16, Type (0, 1), BuildingBlock: CIFDUS_clean_linker_0, # of connection points: 2
#     Edge 17, Type (0, 1), BuildingBlock: CIFDUS_clean_linker_0, # of connection points: 2
#     Edge 18, Type (0, 1), BuildingBlock: CIFDUS_clean_linker_0, # of connection points: 2
#     Edge 19, Type (0, 1), BuildingBlock: CIFDUS_clean_linker_0, # of connection points: 2
#     Edge 20, Type (0, 1), BuildingBlock: CIFDUS_clean_linker_0, # of connection points: 2
#     Edge 21, Type (0, 1), BuildingBlock: CIFDUS_clean_linker_0, # of connection points: 2
#     Edge 22, Type (0, 1), BuildingBlock: CIFDUS_clean_linker_0, # of connection points: 2
#     Edge 23, Type (0, 1), BuildingBlock: CIFDUS_clean_linker_0, # of connection points: 2
#     Edge 24, Type (0, 1), BuildingBlock: CIFDUS_clean_linker_0, # of connection points: 2
#     Edge 25, Type (0, 1), BuildingBlock: CIFDUS_clean_linker_0, # of connection points: 2
#     Edge 26, Type (0, 1), BuildingBlock: CIFDUS_clean_linker_0, # of connection points: 2
#     Edge 27, Type (0, 1), BuildingBlock: CIFDUS_clean_linker_0, # of connection points: 2
#     Edge 28, Type (0, 1), BuildingBlock: CIFDUS_clean_linker_0, # of connection points: 2
#     Edge 29, Type (0, 1), BuildingBlock: CIFDUS_clean_linker_0, # of connection points: 2
#     Edge 30, Type (0, 1), BuildingBlock: CIFDUS_clean_linker_0, # of connection points: 2
#     Edge 31, Type (0, 1), BuildingBlock: CIFDUS_clean_linker_0, # of connection points: 2
#     Edge 32, Type (0, 1), BuildingBlock: CIFDUS_clean_linker_0, # of connection points: 2
#     Edge 33, Type (0, 1), BuildingBlock: CIFDUS_clean_linker_0, # of connection points: 2
#     Edge 34, Type (0, 1), BuildingBlock: CIFDUS_clean_linker_0, # of connection points: 2
#     Edge 35, Type (0, 1), BuildingBlock: CIFDUS_clean_linker_0, # of connection points: 2
#     Edge 36, Type (0, 1), BuildingBlock: CIFDUS_clean_linker_0, # of connection points: 2
#     Edge 37, Type (0, 1), BuildingBlock: CIFDUS_clean_linker_0, # of connection points: 2
#     Edge 38, Type (0, 1), BuildingBlock: CIFDUS_clean_linker_0, # of connection points: 2
#     Edge 39, Type (0, 1), BuildingBlock: CIFDUS_clean_linker_0, # of connection points: 2
#     Edge 40, Type (0, 1), BuildingBlock: CIFDUS_clean_linker_0, # of connection points: 2
#     Edge 41, Type (0, 1), BuildingBlock: CIFDUS_clean_linker_0, # of connection points: 2
#     Edge 42, Type (0, 1), BuildingBlock: CIFDUS_clean_linker_0, # of connection points: 2
#     Edge 43, Type (0, 1), BuildingBlock: CIFDUS_clean_linker_0, # of connection points: 2
#     Edge 44, Type (0, 1), BuildingBlock: CIFDUS_clean_linker_0, # of connection points: 2
#     Edge 45, Type (0, 1), BuildingBlock: CIFDUS_clean_linker_0, # of connection points: 2
#     Edge 46, Type (0, 1), BuildingBlock: CIFDUS_clean_linker_0, # of connection points: 2
#     Edge 47, Type (0, 1), BuildingBlock: CIFDUS_clean_linker_0, # of connection points: 2
# Relax obj value: 0.003
# Max RMSD: 0.024
# Mean RMSD: 0.015
data_MOF--net-ssb--node1-KOZSID_clean_sbu_0--node2-MIFKUJ_clean_linker_1--edge1-CIFDUS_clean_linker_0
_symmetry_space_group_name_H-M    P1
_symmetry_Int_Tables_number       1
_symmetry_cell_setting            triclinic
loop_
_symmetry_equiv_pos_as_xyz
'x, y, z'
_cell_length_a     57.380826
_cell_length_b     57.114655
_cell_length_c     42.259387
_cell_angle_alpha  92.398082
_cell_angle_beta   94.768756
_cell_angle_gamma 90.00976
loop_
_atom_site_label
_atom_site_type_symbol
_atom_site_fract_x
_atom_site_fract_y
_atom_site_fract_z
_atom_type_partial_charge
H0 H 0.29165 0.23114 0.212 0.0
H1 H 0.32717 0.23403 0.18453 0.0
H2 H 0.33808 0.30469 0.22386 0.0
H3 H 0.30345 0.30098 0.25304 0.0
H4 H 0.28577 0.23085 0.27169 0.0
H5 H 0.26156 0.28358 0.18769 0.0
H6 H 0.26152 0.31852 0.15593 0.0
H7 H 0.24919 0.36168 0.23913 0.0
H8 H 0.24936 0.32685 0.27068 0.0
H9 H 0.21789 0.29098 0.33064 0.0
H10 H 0.18517 0.28692 0.36383 0.0
H11 H 0.17437 0.21572 0.32743 0.0
H12 H 0.20621 0.22013 0.29302 0.0
H13 H 0.223 0.29046 0.27097 0.0
H14 H 0.25383 0.241 0.35571 0.0
H15 H 0.25312 0.20785 0.39012 0.0
H16 H 0.25243 0.16018 0.30786 0.0
H17 H 0.25411 0.19366 0.27374 0.0
C18 C 0.29457 0.26593 0.23435 0.0
C19 C 0.30173 0.24724 0.2148 0.0
C20 C 0.32199 0.24904 0.19876 0.0
C21 C 0.33559 0.26968 0.20166 0.0
C22 C 0.32832 0.28841 0.22123 0.0
C23 C 0.30823 0.28646 0.23762 0.0
C24 C 0.27342 0.2635 0.25224 0.0
C25 C 0.27186 0.24371 0.27114 0.0
C26 C 0.25555 0.28082 0.25201 0.0
C27 C 0.25563 0.30224 0.23199 0.0
C28 C 0.25909 0.30056 0.19929 0.0
C29 C 0.25909 0.3207 0.18101 0.0
C30 C 0.2553 0.34322 0.19466 0.0
C31 C 0.2518 0.34479 0.22737 0.0
C32 C 0.25194 0.32472 0.24562 0.0
C33 C 0.21497 0.25572 0.30968 0.0
C34 C 0.20832 0.27458 0.32942 0.0
C35 C 0.18965 0.27225 0.34843 0.0
C36 C 0.17742 0.25093 0.3484 0.0
C37 C 0.18373 0.23224 0.32823 0.0
C38 C 0.20204 0.23473 0.30871 0.0
C39 C 0.23551 0.25796 0.29045 0.0
C40 C 0.23694 0.27763 0.27133 0.0
C41 C 0.2534 0.24072 0.29061 0.0
C42 C 0.2538 0.22008 0.31187 0.0
C43 C 0.25358 0.22342 0.34501 0.0
C44 C 0.25297 0.20423 0.36477 0.0
C45 C 0.25238 0.18089 0.35214 0.0
C46 C 0.2531 0.17763 0.3189 0.0
C47 C 0.25396 0.19689 0.29916 0.0
H48 H 0.6875 0.26812 0.29088 0.0
H49 H 0.6507 0.26964 0.25778 0.0
H50 H 0.68868 0.2843 0.17661 0.0
H51 H 0.72553 0.28142 0.20961 0.0
H52 H 0.72248 0.23817 0.28656 0.0
H53 H 0.7137 0.32238 0.27376 0.0
H54 H 0.70999 0.35675 0.24103 0.0
H55 H 0.77833 0.34244 0.20864 0.0
H56 H 0.78095 0.3073 0.23886 0.0
H57 H 0.81793 0.27088 0.28916 0.0
H58 H 0.85581 0.26671 0.31904 0.0
H59 H 0.82114 0.24674 0.40085 0.0
H60 H 0.78321 0.25211 0.37125 0.0
H61 H 0.78381 0.29977 0.29704 0.0
H62 H 0.7859 0.21413 0.28509 0.0
H63 H 0.7895 0.17373 0.30208 0.0
H64 H 0.74108 0.18919 0.37337 0.0
H65 H 0.73669 0.22895 0.35492 0.0
C66 C 0.70933 0.27498 0.25294 0.0
C67 C 0.68791 0.27167 0.26595 0.0
C68 C 0.66682 0.27276 0.24698 0.0
C69 C 0.66659 0.27726 0.21445 0.0
C70 C 0.68811 0.28058 0.20145 0.0
C71 C 0.70925 0.27926 0.22042 0.0
C72 C 0.73167 0.27274 0.27322 0.0
C73 C 0.73568 0.25189 0.28911 0.0
C74 C 0.74942 0.29015 0.27587 0.0
C75 C 0.74738 0.31198 0.25824 0.0
C76 C 0.7277 0.32653 0.25923 0.0
C77 C 0.72575 0.34634 0.24086 0.0
C78 C 0.74371 0.35214 0.22181 0.0
C79 C 0.76385 0.33812 0.22223 0.0
C80 C 0.76553 0.31816 0.23991 0.0
C81 C 0.79764 0.2616 0.32778 0.0
C82 C 0.81846 0.26566 0.31357 0.0
C83 C 0.84016 0.26304 0.33063 0.0
C84 C 0.84161 0.25626 0.36237 0.0
C85 C 0.82072 0.25219 0.37658 0.0
C86 C 0.79898 0.25493 0.3595 0.0
C87 C 0.77464 0.26511 0.30958 0.0
C88 C 0.77043 0.28624 0.29451 0.0
C89 C 0.75706 0.24773 0.30649 0.0
C90 C 0.76103 0.22429 0.31885 0.0
C91 C 0.77621 0.20869 0.30448 0.0
C92 C 0.77828 0.18569 0.31428 0.0
C93 C 0.76533 0.17812 0.33879 0.0
C94 C 0.75078 0.19421 0.35379 0.0
C95 C 0.74842 0.217 0.34359 0.0
H96 H 0.70827 0.77808 0.20165 0.0
H97 H 0.67136 0.77363 0.16857 0.0
H98 H 0.65958 0.70714 0.20991 0.0
H99 H 0.69605 0.71214 0.24371 0.0
H100 H 0.71645 0.78162 0.26525 0.0
H101 H 0.73536 0.72601 0.18105 0.0
H102 H 0.73191 0.68981 0.14788 0.0
H103 H 0.74911 0.64969 0.23103 0.0
H104 H 0.75128 0.6857 0.26409 0.0
H105 H 0.78373 0.72324 0.33185 0.0
H106 H 0.81961 0.72554 0.36725 0.0
H107 H 0.83595 0.79234 0.32996 0.0
H108 H 0.80012 0.78971 0.29403 0.0
H109 H 0.77851 0.72122 0.26849 0.0
H110 H 0.75818 0.7732 0.35286 0.0
H111 H 0.76018 0.80712 0.38973 0.0
H112 H 0.74361 0.85229 0.31151 0.0
H113 H 0.74321 0.81824 0.27441 0.0
C114 C 0.70509 0.74534 0.22494 0.0
C115 C 0.6977 0.76257 0.20361 0.0
C116 C 0.67668 0.75989 0.1845 0.0
C117 C 0.66252 0.73996 0.18643 0.0
C118 C 0.66993 0.72279 0.20797 0.0
C119 C 0.69092 0.72552 0.22711 0.0
C120 C 0.72735 0.74834 0.24537 0.0
C121 C 0.73027 0.76865 0.26563 0.0
C122 C 0.74496 0.73086 0.2463 0.0
C123 C 0.74324 0.70881 0.22539 0.0
C124 C 0.73807 0.70941 0.19225 0.0
C125 C 0.7364 0.68859 0.17314 0.0
C126 C 0.74006 0.66655 0.18656 0.0
C127 C 0.74566 0.66612 0.21967 0.0
C128 C 0.74717 0.68686 0.23872 0.0
C129 C 0.78916 0.75635 0.3104 0.0
C130 C 0.79504 0.73838 0.33126 0.0
C131 C 0.81547 0.7398 0.35166 0.0
C132 C 0.83059 0.75916 0.3515 0.0
C133 C 0.82474 0.77712 0.33048 0.0
C134 C 0.8042 0.77573 0.31013 0.0
C135 C 0.76754 0.75436 0.2885 0.0
C136 C 0.76478 0.73429 0.26791 0.0
C137 C 0.74996 0.77187 0.28766 0.0
C138 C 0.751 0.79292 0.31048 0.0
C139 C 0.75545 0.7904 0.34341 0.0
C140 C 0.7562 0.80998 0.36471 0.0
C141 C 0.75198 0.83277 0.35395 0.0
C142 C 0.74733 0.83524 0.32094 0.0
C143 C 0.74685 0.81563 0.29958 0.0
H144 H 0.23206 0.71235 0.33864 0.0
H145 H 0.19883 0.71571 0.37069 0.0
H146 H 0.17883 0.78033 0.3261 0.0
H147 H 0.21085 0.77566 0.29212 0.0
H148 H 0.23624 0.70459 0.28117 0.0
H149 H 0.26337 0.76774 0.35077 0.0
H150 H 0.26455 0.80548 0.38038 0.0
H151 H 0.256 0.84118 0.292 0.0
H152 H 0.25424 0.80334 0.26254 0.0
H153 H 0.28273 0.76404 0.19915 0.0
H154 H 0.31456 0.76582 0.16442 0.0
H155 H 0.34614 0.70505 0.20745 0.0
H156 H 0.31451 0.70365 0.24298 0.0
H157 H 0.28694 0.77136 0.25987 0.0
H158 H 0.25002 0.7041 0.19393 0.0
H159 H 0.24715 0.66451 0.169 0.0
H160 H 0.27873 0.63599 0.25525 0.0
H161 H 0.28099 0.67566 0.2805 0.0
C162 C 0.22435 0.74389 0.31311 0.0
C163 C 0.22044 0.72717 0.33556 0.0
C164 C 0.20149 0.72932 0.35427 0.0
C165 C 0.18603 0.74843 0.35139 0.0
C166 C 0.19004 0.7652 0.32891 0.0
C167 C 0.20874 0.76278 0.30976 0.0
C168 C 0.24413 0.74106 0.29237 0.0
C169 C 0.24754 0.71918 0.27702 0.0
C170 C 0.25897 0.75993 0.2865 0.0
C171 C 0.25855 0.78274 0.30447 0.0
C172 C 0.26144 0.78368 0.3378 0.0
C173 C 0.26235 0.80525 0.35466 0.0
C174 C 0.26046 0.82628 0.33849 0.0
C175 C 0.25729 0.82527 0.30512 0.0
C176 C 0.25643 0.80369 0.28827 0.0
C177 C 0.29606 0.73369 0.2238 0.0
C178 C 0.29635 0.75092 0.20101 0.0
C179 C 0.31459 0.75198 0.18119 0.0
C180 C 0.33295 0.73571 0.1834 0.0
C181 C 0.33214 0.71774 0.20508 0.0
C182 C 0.31396 0.71685 0.22529 0.0
C183 C 0.2784 0.7352 0.24782 0.0
C184 C 0.2756 0.75682 0.26412 0.0
C185 C 0.26455 0.71598 0.25513 0.0
C186 C 0.26588 0.69271 0.23887 0.0
C187 C 0.25659 0.68937 0.2073 0.0
C188 C 0.25478 0.66681 0.19325 0.0
C189 C 0.26252 0.64735 0.21045 0.0
C190 C 0.27262 0.65078 0.24167 0.0
C191 C 0.27398 0.67334 0.25596 0.0
H192 H 0.19503 0.78255 0.73633 0.0
H193 H 0.1596 0.78366 0.70038 0.0
H194 H 0.20081 0.76981 0.62044 0.0
H195 H 0.23635 0.7702 0.65673 0.0
H196 H 0.22646 0.74254 0.73892 0.0
H197 H 0.22203 0.82315 0.71039 0.0
H198 H 0.22204 0.85758 0.67778 0.0
H199 H 0.29383 0.8444 0.66049 0.0
H200 H 0.29347 0.80888 0.69111 0.0
H201 H 0.32487 0.76986 0.75532 0.0
H202 H 0.35849 0.76688 0.79425 0.0
H203 H 0.31173 0.75839 0.86816 0.0
H204 H 0.27833 0.76315 0.82954 0.0
H205 H 0.29142 0.80016 0.74769 0.0
H206 H 0.29527 0.71857 0.77417 0.0
H207 H 0.29484 0.68372 0.80612 0.0
H208 H 0.22404 0.69932 0.82685 0.0
H209 H 0.22479 0.7346 0.79618 0.0
C210 C 0.21825 0.77642 0.69913 0.0
C211 C 0.19638 0.78 0.71099 0.0
C212 C 0.1761 0.78037 0.69035 0.0
C213 C 0.17715 0.77653 0.65736 0.0
C214 C 0.19924 0.77315 0.64557 0.0
C215 C 0.21961 0.77324 0.66627 0.0
C216 C 0.23935 0.77459 0.72151 0.0
C217 C 0.24067 0.75519 0.74123 0.0
C218 C 0.25795 0.79114 0.72318 0.0
C219 C 0.25757 0.81253 0.70295 0.0
C220 C 0.2376 0.82692 0.69874 0.0
C221 C 0.23763 0.8469 0.68024 0.0
C222 C 0.25784 0.85362 0.66621 0.0
C223 C 0.27791 0.83961 0.67075 0.0
C224 C 0.27771 0.8193 0.68854 0.0
C225 C 0.29899 0.76641 0.78931 0.0
C226 C 0.32188 0.76759 0.77999 0.0
C227 C 0.34113 0.76556 0.80229 0.0
C228 C 0.33798 0.76215 0.83448 0.0
C229 C 0.31499 0.76125 0.84376 0.0
C230 C 0.29577 0.76366 0.82154 0.0
C231 C 0.27856 0.76807 0.76537 0.0
C232 C 0.27734 0.78739 0.74526 0.0
C233 C 0.26002 0.75137 0.76311 0.0
C234 C 0.26016 0.72978 0.78277 0.0
C235 C 0.27975 0.71486 0.78603 0.0
C236 C 0.27949 0.69477 0.8043 0.0
C237 C 0.2594 0.68857 0.81914 0.0
C238 C 0.23977 0.70333 0.8156 0.0
C239 C 0.24019 0.72361 0.79791 0.0
H240 H 0.31012 0.26867 0.80447 0.0
H241 H 0.34705 0.27222 0.8374 0.0
H242 H 0.31078 0.25828 0.92047 0.0
H243 H 0.2738 0.25614 0.8874 0.0
H244 H 0.27897 0.22946 0.7976 0.0
H245 H 0.27999 0.31039 0.82716 0.0
H246 H 0.28299 0.34595 0.86132 0.0
H247 H 0.2232 0.32379 0.90838 0.0
H248 H 0.22066 0.28776 0.87453 0.0
H249 H 0.17935 0.24624 0.79461 0.0
H250 H 0.14533 0.24347 0.75537 0.0
H251 H 0.19006 0.25826 0.68113 0.0
H252 H 0.22377 0.26019 0.72017 0.0
H253 H 0.21287 0.28442 0.80901 0.0
H254 H 0.21605 0.20019 0.78135 0.0
H255 H 0.21453 0.16572 0.74504 0.0
H256 H 0.26552 0.19793 0.69043 0.0
H257 H 0.26786 0.23161 0.72811 0.0
C258 C 0.28924 0.26222 0.84352 0.0
C259 C 0.31019 0.26649 0.82982 0.0
C260 C 0.33135 0.26832 0.84874 0.0
C261 C 0.33213 0.26541 0.88177 0.0
C262 C 0.31098 0.26106 0.89531 0.0
C263 C 0.28977 0.25966 0.87642 0.0
C264 C 0.26692 0.2599 0.8232 0.0
C265 C 0.2646 0.24158 0.80006 0.0
C266 C 0.24796 0.27536 0.82676 0.0
C267 C 0.25027 0.29633 0.84857 0.0
C268 C 0.26777 0.31297 0.8452 0.0
C269 C 0.26931 0.33339 0.8645 0.0
C270 C 0.25325 0.33769 0.88741 0.0
C271 C 0.23593 0.32084 0.89111 0.0
C272 C 0.23437 0.30036 0.8717 0.0
C273 C 0.20412 0.25308 0.76022 0.0
C274 C 0.18172 0.24886 0.76984 0.0
C275 C 0.16229 0.2474 0.74738 0.0
C276 C 0.1649 0.2504 0.71492 0.0
C277 C 0.18737 0.25524 0.70569 0.0
C278 C 0.20671 0.25648 0.72803 0.0
C279 C 0.22501 0.25402 0.78346 0.0
C280 C 0.2271 0.27207 0.80708 0.0
C281 C 0.24387 0.23845 0.78035 0.0
C282 C 0.24211 0.21828 0.75733 0.0
C283 C 0.22687 0.19971 0.7615 0.0
C284 C 0.22593 0.1801 0.74056 0.0
C285 C 0.23997 0.1789 0.71475 0.0
C286 C 0.25486 0.19791 0.71039 0.0
C287 C 0.25611 0.21729 0.73172 0.0
H288 H 0.72279 0.22137 0.82594 0.0
H289 H 0.68966 0.22097 0.85874 0.0
H290 H 0.6683 0.28883 0.8258 0.0
H291 H 0.70105 0.2889 0.79218 0.0
H292 H 0.72406 0.22061 0.76525 0.0
H293 H 0.75556 0.27523 0.85004 0.0
H294 H 0.75325 0.30916 0.88659 0.0
H295 H 0.7398 0.35355 0.80668 0.0
H296 H 0.74341 0.31949 0.77036 0.0
H297 H 0.78645 0.28457 0.70554 0.0
H298 H 0.82079 0.28259 0.67467 0.0
H299 H 0.83601 0.21338 0.70775 0.0
H300 H 0.80257 0.21582 0.73994 0.0
H301 H 0.78079 0.28597 0.76436 0.0
H302 H 0.75303 0.22875 0.67899 0.0
H303 H 0.75221 0.19277 0.64521 0.0
H304 H 0.75802 0.15181 0.72924 0.0
H305 H 0.75782 0.18767 0.76246 0.0
C306 C 0.71468 0.25526 0.8067 0.0
C307 C 0.71099 0.23619 0.82568 0.0
C308 C 0.69204 0.23596 0.84444 0.0
C309 C 0.67638 0.25487 0.84486 0.0
C310 C 0.68023 0.27413 0.82626 0.0
C311 C 0.69903 0.27421 0.80712 0.0
C312 C 0.7343 0.25471 0.78559 0.0
C313 C 0.73665 0.23478 0.76525 0.0
C314 C 0.75033 0.27358 0.78507 0.0
C315 C 0.74954 0.29466 0.80734 0.0
C316 C 0.75223 0.2923 0.84039 0.0
C317 C 0.75066 0.31186 0.86135 0.0
C318 C 0.74602 0.33444 0.84997 0.0
C319 C 0.74368 0.33672 0.8167 0.0
C320 C 0.74562 0.31715 0.79573 0.0
C321 C 0.79142 0.25014 0.72467 0.0
C322 C 0.79721 0.26899 0.70635 0.0
C323 C 0.81683 0.26787 0.6887 0.0
C324 C 0.83093 0.24776 0.68864 0.0
C325 C 0.82524 0.22896 0.70701 0.0
C326 C 0.80595 0.23029 0.72519 0.0
C327 C 0.77081 0.25162 0.74411 0.0
C328 C 0.76818 0.27182 0.76409 0.0
C329 C 0.75453 0.23287 0.74441 0.0
C330 C 0.7554 0.21107 0.72341 0.0
C331 C 0.75421 0.212 0.6901 0.0
C332 C 0.75385 0.19128 0.67075 0.0
C333 C 0.75481 0.16904 0.6842 0.0
C334 C 0.75659 0.16836 0.71766 0.0
C335 C 0.75666 0.18898 0.73688 0.0
H336 H 0.78338 0.72325 0.69095 0.0
H337 H 0.81518 0.72364 0.65631 0.0
H338 H 0.83909 0.79006 0.70026 0.0
H339 H 0.80834 0.78853 0.7366 0.0
H340 H 0.78088 0.72034 0.75042 0.0
H341 H 0.75555 0.77825 0.67722 0.0
H342 H 0.76065 0.8133 0.64729 0.0
H343 H 0.7706 0.85483 0.73527 0.0
H344 H 0.7655 0.8196 0.76516 0.0
H345 H 0.72691 0.78537 0.82469 0.0
H346 H 0.69441 0.7857 0.85828 0.0
H347 H 0.66912 0.72039 0.81245 0.0
H348 H 0.70081 0.72108 0.77742 0.0
H349 H 0.72905 0.78877 0.76458 0.0
H350 H 0.75103 0.72791 0.83702 0.0
H351 H 0.74854 0.6909 0.86375 0.0
H352 H 0.74431 0.65301 0.77281 0.0
H353 H 0.74625 0.69006 0.74608 0.0
C354 C 0.7931 0.75602 0.71621 0.0
C355 C 0.79561 0.73779 0.69342 0.0
C356 C 0.81372 0.73821 0.67323 0.0
C357 C 0.8297 0.75705 0.675 0.0
C358 C 0.82735 0.77514 0.69821 0.0
C359 C 0.80946 0.77448 0.71879 0.0
C360 C 0.77334 0.7556 0.73712 0.0
C361 C 0.76935 0.73521 0.75314 0.0
C362 C 0.75845 0.77503 0.74134 0.0
C363 C 0.76045 0.79638 0.72333 0.0
C364 C 0.75891 0.7949 0.69002 0.0
C365 C 0.76191 0.81487 0.67301 0.0
C366 C 0.76625 0.83667 0.68904 0.0
C367 C 0.76719 0.83822 0.72238 0.0
C368 C 0.76428 0.81819 0.73942 0.0
C369 C 0.71664 0.75305 0.79869 0.0
C370 C 0.71429 0.77119 0.82169 0.0
C371 C 0.69575 0.7712 0.84121 0.0
C372 C 0.67908 0.75296 0.83845 0.0
C373 C 0.68138 0.73488 0.81519 0.0
C374 C 0.69978 0.73505 0.79537 0.0
C375 C 0.73647 0.75338 0.77792 0.0
C376 C 0.74051 0.77384 0.7619 0.0
C377 C 0.75114 0.73379 0.77326 0.0
C378 C 0.74857 0.7117 0.78958 0.0
C379 C 0.74914 0.71167 0.82283 0.0
C380 C 0.74778 0.69058 0.83804 0.0
C381 C 0.74624 0.66923 0.82023 0.0
C382 C 0.74565 0.66928 0.78699 0.0
C383 C 0.74672 0.69037 0.77178 0.0
C384 C 0.04214 0.27563 0.58265 0.0
C385 C 0.05323 0.29679 0.59178 0.0
C386 C 0.04646 0.31234 0.569 0.0
C387 C 0.03171 0.29994 0.54723 0.0
N388 N 0.0285 0.27761 0.55511 0.0
Co389 Co 0.00973 0.2536 0.52894 0.0
N390 N 0.9929 0.27784 0.50383 0.0
C391 C 1.00002 0.30004 0.50106 0.0
C392 C 0.9846 0.31268 0.48194 0.0
C393 C 0.96672 0.2974 0.47207 0.0
C394 C 0.97227 0.27628 0.48589 0.0
N395 N 0.99099 0.22973 0.50248 0.0
C396 C 0.97047 0.23219 0.48469 0.0
C397 C 0.96269 0.21078 0.47099 0.0
C398 C 0.97918 0.19451 0.48027 0.0
C399 C 0.99595 0.20678 0.49924 0.0
N400 N 0.02657 0.22922 0.55397 0.0
C401 C 0.0274 0.20622 0.54567 0.0
C402 C 0.04005 0.19345 0.56784 0.0
C403 C 0.04797 0.20944 0.59134 0.0
C404 C 0.0399 0.23124 0.58199 0.0
N405 N 0.98555 0.25515 0.55911 0.0
C406 C 0.9481 0.25755 0.59812 0.0
C407 C 0.95758 0.23591 0.58882 0.0
C408 C 0.97612 0.23509 0.56926 0.0
C409 C 0.95833 0.27796 0.58791 0.0
C410 C 0.97708 0.27638 0.56881 0.0
N411 N 0.03384 0.25219 0.49851 0.0
C412 C 0.07447 0.25155 0.4878 0.0
C413 C 0.06834 0.25347 0.45526 0.0
C414 C 0.04456 0.25411 0.44471 0.0
C415 C 0.02762 0.25316 0.46662 0.0
C416 C 0.05702 0.25111 0.509 0.0
H417 H 0.00946 0.25362 0.45774 0.0
H418 H 0.0624 0.25035 0.53396 0.0
H419 H 0.98259 0.21817 0.56198 0.0
H420 H 0.98437 0.29241 0.56126 0.0
C421 C 0.01862 0.30927 0.52128 0.0
C422 C 0.04732 0.25355 0.59849 0.0
C423 C 0.95857 0.25467 0.47978 0.0
C424 C 0.01346 0.19688 0.51942 0.0
H425 H 0.06546 0.30047 0.61226 0.0
H426 H 0.0515 0.33058 0.56859 0.0
H427 H 0.98567 0.33105 0.47688 0.0
H428 H 0.95143 0.30132 0.45646 0.0
H429 H 0.94668 0.20713 0.45625 0.0
H430 H 0.9783 0.17577 0.47529 0.0
H431 H 0.04267 0.17468 0.56744 0.0
H432 H 0.0588 0.20552 0.61263 0.0
H433 H 0.95079 0.2196 0.59652 0.0
H434 H 0.95162 0.29515 0.59391 0.0
H435 H 0.09266 0.25114 0.49696 0.0
H436 H 0.03908 0.25533 0.41968 0.0
C437 C 0.73751 0.04688 0.54675 0.0
C438 C 0.71583 0.05657 0.55154 0.0
C439 C 0.69942 0.04205 0.5359 0.0
C440 C 0.71189 0.02447 0.52218 0.0
N441 N 0.7353 0.02674 0.52825 0.0
Co442 Co 0.75959 0.00596 0.51004 0.0
N443 N 0.73532 0.98388 0.4884 0.0
C444 C 0.71193 0.98548 0.49007 0.0
C445 C 0.69949 0.96794 0.47322 0.0
C446 C 0.71588 0.95418 0.46008 0.0
C447 C 0.73754 0.96411 0.46974 0.0
N448 N 0.78385 0.98593 0.49049 0.0
C449 C 0.78162 0.96648 0.47067 0.0
C450 C 0.80326 0.95845 0.46256 0.0
C451 C 0.81964 0.97345 0.47723 0.0
C452 C 0.80721 0.98972 0.49356 0.0
N453 N 0.78392 0.02719 0.53327 0.0
C454 C 0.80737 0.02449 0.53376 0.0
C455 C 0.81984 0.0408 0.55293 0.0
C456 C 0.8034 0.05482 0.56549 0.0
C457 C 0.78172 0.04644 0.55289 0.0
N458 N 0.76082 0.98639 0.54756 0.0
C459 C 0.76202 0.95526 0.59724 0.0
C460 C 0.78254 0.9617 0.58426 0.0
C461 C 0.78154 0.97716 0.55962 0.0
C462 C 0.74106 0.96566 0.5862 0.0
C463 C 0.74087 0.98116 0.56156 0.0
N464 N 0.75829 0.02562 0.47244 0.0
C465 C 0.77589 0.05509 0.44273 0.0
C466 C 0.75491 0.05814 0.42405 0.0
C467 C 0.73621 0.04329 0.42855 0.0
C468 C 0.73815 0.02751 0.45289 0.0
C469 C 0.77731 0.03855 0.46607 0.0
H470 H 0.72289 0.01749 0.45573 0.0
H471 H 0.79385 0.03711 0.47921 0.0
H472 H 0.7977 0.98094 0.55028 0.0
H473 H 0.7243 0.98821 0.55371 0.0
C474 C 0.70215 0.00494 0.50501 0.0
C475 C 0.75963 0.05769 0.55987 0.0
C476 C 0.75956 0.95468 0.45935 0.0
C477 C 0.81708 0.00746 0.51419 0.0
H478 H 0.71217 0.07255 0.56484 0.0
H479 H 0.68061 0.04401 0.53479 0.0
H480 H 0.68068 0.9658 0.47008 0.0
H481 H 0.71217 0.93888 0.44452 0.0
H482 H 0.80692 0.94312 0.4479 0.0
H483 H 0.83843 0.97232 0.47668 0.0
H484 H 0.83865 0.0425 0.55693 0.0
H485 H 0.80704 0.06969 0.58188 0.0
H486 H 0.79926 0.95441 0.59257 0.0
H487 H 0.7247 0.96111 0.59552 0.0
H488 H 0.79101 0.06605 0.44056 0.0
H489 H 0.71981 0.04421 0.414 0.0
C490 C 0.04036 0.78786 0.55398 0.0
C491 C 0.04918 0.80933 0.56623 0.0
C492 C 0.03687 0.82618 0.55021 0.0
C493 C 0.02126 0.81411 0.5293 0.0
N494 N 0.02245 0.79057 0.53143 0.0
Co495 Co 0.00364 0.76649 0.50438 0.0
N496 N 0.98621 0.79131 0.47987 0.0
C497 C 0.98835 0.81477 0.48502 0.0
C498 C 0.97306 0.82745 0.46594 0.0
C499 C 0.96006 0.81113 0.44779 0.0
C500 C 0.96834 0.78934 0.45678 0.0
N501 N 0.98567 0.7424 0.47629 0.0
C502 C 0.96847 0.74505 0.45272 0.0
C503 C 0.96093 0.72363 0.43883 0.0
C504 C 0.97351 0.70681 0.45458 0.0
C505 C 0.98806 0.71887 0.47693 0.0
N506 N 0.02027 0.7417 0.52986 0.0
C507 C 0.01652 0.7183 0.52661 0.0
C508 C 0.03098 0.70558 0.54674 0.0
C509 C 0.04494 0.72176 0.56372 0.0
C510 C 0.03809 0.74359 0.55305 0.0
N511 N 0.97869 0.76714 0.53455 0.0
C512 C 0.94278 0.76797 0.57648 0.0
C513 C 0.94827 0.74736 0.55984 0.0
C514 C 0.96625 0.74727 0.53945 0.0
C515 C 0.95561 0.78816 0.57192 0.0
C516 C 0.97318 0.78742 0.55082 0.0
N517 N 0.02865 0.76578 0.47438 0.0
C518 C 0.05903 0.74465 0.44885 0.0
C519 C 0.0665 0.76508 0.43576 0.0
C520 C 0.05434 0.7858 0.44157 0.0
C521 C 0.03573 0.7858 0.46103 0.0
C522 C 0.04007 0.74531 0.46755 0.0
H523 H 0.02755 0.80227 0.46529 0.0
H524 H 0.03515 0.72904 0.47646 0.0
H525 H 0.96973 0.73086 0.52794 0.0
H526 H 0.98196 0.80353 0.54798 0.0
C527 C 0.00501 0.82436 0.50779 0.0
C528 C 0.04997 0.76544 0.56406 0.0
C529 C 0.95804 0.76732 0.44362 0.0
C530 C 1.00198 0.70866 0.50125 0.0
H531 H 0.06321 0.8125 0.58465 0.0
H532 H 0.03915 0.84497 0.55328 0.0
H533 H 0.97136 0.84632 0.46556 0.0
H534 H 0.94586 0.81487 0.43029 0.0
H535 H 0.94731 0.72049 0.41982 0.0
H536 H 0.97164 0.688 0.45097 0.0
H537 H 0.03213 0.6867 0.54772 0.0
H538 H 0.05913 0.71774 0.58108 0.0
H539 H 0.93896 0.73122 0.56292 0.0
H540 H 0.95184 0.80459 0.58419 0.0
H541 H 0.06772 0.72812 0.44449 0.0
H542 H 0.05956 0.80205 0.43182 0.0
C543 C 0.27348 0.97441 0.54464 0.0
C544 C 0.29479 0.96404 0.55354 0.0
C545 C 0.31171 0.97723 0.54195 0.0
C546 C 0.29991 0.99466 0.52619 0.0
N547 N 0.27644 0.99362 0.52719 0.0
Co548 Co 0.25299 0.01413 0.5034 0.0
N549 N 0.27798 0.0327 0.48492 0.0
C550 C 0.30126 0.03056 0.49204 0.0
C551 C 0.31437 0.04674 0.47828 0.0
C552 C 0.29854 0.06023 0.4615 0.0
C553 C 0.27652 0.05133 0.46563 0.0
N554 N 0.22949 0.03368 0.47814 0.0
C555 C 0.23236 0.05127 0.45791 0.0
C556 C 0.21098 0.05904 0.44453 0.0
C557 C 0.19408 0.04643 0.4572 0.0
C558 C 0.20597 0.03147 0.47724 0.0
N559 N 0.22806 0.99635 0.52311 0.0
C560 C 0.2049 1.00096 0.51996 0.0
C561 C 0.1919 0.9869 0.5373 0.0
C562 C 0.20767 0.97232 0.55233 0.0
C563 C 0.22951 0.97806 0.54296 0.0
N564 N 0.25395 0.03743 0.53977 0.0
C565 C 0.25593 0.07255 0.58899 0.0
C566 C 0.23563 0.06878 0.56876 0.0
C567 C 0.23491 0.05112 0.54495 0.0
C568 C 0.27506 0.05796 0.58455 0.0
C569 C 0.27378 0.04082 0.5599 0.0
N570 N 0.25202 0.99088 0.46729 0.0
C571 C 0.2305 0.9621 0.43299 0.0
C572 C 0.2512 0.95343 0.42195 0.0
C573 C 0.27219 0.9647 0.43256 0.0
C574 C 0.27218 0.98342 0.45487 0.0
C575 C 0.2313 0.98072 0.45548 0.0
H576 H 0.28872 0.99123 0.46233 0.0
H577 H 0.215 0.98611 0.46369 0.0
H578 H 0.21875 0.04921 0.53085 0.0
H579 H 0.28916 0.03069 0.55759 0.0
C580 C 0.3103 0.01248 0.51056 0.0
C581 C 0.25093 0.96523 0.55308 0.0
C582 C 0.25483 0.06148 0.45105 0.0
C583 C 0.1957 0.01681 0.4979 0.0
H584 H 0.29795 0.94839 0.56674 0.0
H585 H 0.3304 0.97429 0.5444 0.0
H586 H 0.33322 0.04852 0.48022 0.0
H587 H 0.3028 0.07508 0.44796 0.0
H588 H 0.20785 0.07267 0.42769 0.0
H589 H 0.17534 0.04835 0.4529 0.0
H590 H 0.17311 0.98682 0.53822 0.0
H591 H 0.20346 0.95875 0.56806 0.0
H592 H 0.22035 0.0797 0.57065 0.0
H593 H 0.29107 0.0597 0.59995 0.0
H594 H 0.21382 0.9539 0.42542 0.0
H595 H 0.2886 0.95884 0.42408 0.0
C596 C 0.53789 0.75957 0.05515 0.0
C597 C 0.54416 0.7805 0.07153 0.0
C598 C 0.52969 0.79729 0.05889 0.0
C599 C 0.5154 0.78567 0.03577 0.0
N600 N 0.51972 0.76246 0.03309 0.0
Co601 Co 0.5026 0.73903 1.00315 0.0
N602 N 0.48486 0.7643 0.98013 0.0
C603 C 0.48748 0.78766 0.98583 0.0
C604 C 0.47407 0.80086 0.96505 0.0
C605 C 0.46207 0.78498 0.94489 0.0
C606 C 0.46861 0.76289 0.95493 0.0
N607 N 0.48434 0.7155 0.97453 0.0
C608 C 0.46663 0.71856 0.9517 0.0
C609 C 0.45713 0.69724 0.93997 0.0
C610 C 0.46934 0.68018 0.95573 0.0
C611 C 0.48536 0.69195 0.97637 0.0
N612 N 0.52179 0.71393 0.02457 0.0
C613 C 0.52025 0.69062 0.01781 0.0
C614 C 0.53691 0.67782 0.03454 0.0
C615 C 0.55023 0.69399 0.05263 0.0
C616 C 0.54072 0.71576 0.04603 0.0
N617 N 0.47798 0.73679 0.03378 0.0
C618 C 0.44057 0.73195 0.073 0.0
C619 C 0.45661 0.71387 0.0689 0.0
C620 C 0.47486 0.71657 0.0494 0.0
C621 C 0.44419 0.75287 0.05794 0.0
C622 C 0.46291 0.75498 0.03894 0.0
N623 N 0.52699 0.7411 0.97266 0.0
C624 C 0.55024 0.72256 0.93353 0.0
C625 C 0.56301 0.74316 0.93127 0.0
C626 C 0.55729 0.76281 0.94986 0.0
C627 C 0.53917 0.7615 0.96999 0.0
C628 C 0.53259 0.72185 0.95436 0.0
H629 H 0.53534 0.77717 0.98331 0.0
H630 H 0.52384 0.70544 0.95553 0.0
H631 H 0.48603 0.70181 0.04729 0.0
H632 H 0.46455 0.77148 0.0284 0.0
C633 C 0.5009 0.7965 0.0127 0.0
C634 C 0.5505 0.73773 0.06016 0.0
C635 C 0.45792 0.74121 0.94094 0.0
C636 C 0.50257 0.6814 0.99623 0.0
H637 H 0.55825 0.78343 0.08995 0.0
H638 H 0.5304 0.81593 0.06465 0.0
H639 H 0.47272 0.81977 0.96506 0.0
H640 H 0.44949 0.78923 0.92548 0.0
H641 H 0.44275 0.69424 0.92203 0.0
H642 H 0.46688 0.66142 0.95244 0.0
H643 H 0.53923 0.659 0.03348 0.0
H644 H 0.56532 0.6902 0.06866 0.0
H645 H 0.45518 0.69753 0.08071 0.0
H646 H 0.43236 0.7675 0.0601 0.0
H647 H 0.55419 0.70685 0.91975 0.0
H648 H 0.56657 0.77923 0.9486 0.0
C649 C 0.24935 0.55005 0.06108 0.0
C650 C 0.23142 0.56639 0.06302 0.0
C651 C 0.21478 0.56097 0.03863 0.0
C652 C 0.22389 0.54254 0.02201 0.0
N653 N 0.24519 0.53614 0.03448 0.0
Co654 Co 0.26754 0.51784 0.01053 0.0
N655 N 0.24193 0.50213 0.98384 0.0
C656 C 0.22008 0.51025 0.97832 0.0
C657 C 0.20622 0.4954 0.95841 0.0
C658 C 0.22044 0.47693 0.95095 0.0
C659 C 0.24223 0.48166 0.96677 0.0
N660 N 0.28968 0.49991 0.9859 0.0
C661 C 0.28614 0.4797 0.96848 0.0
C662 C 0.30643 0.47282 0.95492 0.0
C663 C 0.32302 0.48971 0.96404 0.0
C664 C 0.312 0.5058 0.98269 0.0
N665 N 0.29336 0.53365 0.03704 0.0
C666 C 0.31477 0.5374 0.0274 0.0
C667 C 0.32748 0.55352 0.04656 0.0
C668 C 0.31311 0.56026 0.06963 0.0
C669 C 0.29266 0.54701 0.06419 0.0
N670 N 0.26735 0.49229 0.04084 0.0
C671 C 0.26724 0.45264 0.07932 0.0
C672 C 0.28819 0.46224 0.07035 0.0
C673 C 0.28788 0.48192 0.05139 0.0
C674 C 0.24636 0.46411 0.0693 0.0
C675 C 0.24678 0.48377 0.05017 0.0
N676 N 0.26782 0.5435 0.98001 0.0
C677 C 0.26593 0.55723 0.92621 0.0
C678 C 0.26945 0.58055 0.93757 0.0
C679 C 0.27172 0.58482 0.97054 0.0
C680 C 0.2706 0.56632 0.99112 0.0
C681 C 0.26544 0.53899 0.94775 0.0
H682 H 0.27219 0.5707 0.01618 0.0
H683 H 0.26332 0.52119 0.93827 0.0
H684 H 0.30432 0.48849 0.04468 0.0
H685 H 0.23039 0.49178 0.04226 0.0
C686 C 0.21281 0.53009 0.99554 0.0
C687 C 0.27151 0.54994 0.08179 0.0
C688 C 0.2634 0.46782 0.96288 0.0
C689 C 0.32265 0.52427 1.00154 0.0
H690 H 0.23075 0.58153 0.07914 0.0
H691 H 0.19837 0.56986 0.03317 0.0
H692 H 0.18786 0.49741 0.95086 0.0
H693 H 0.2155 0.46196 0.93527 0.0
H694 H 0.30895 0.45738 0.93991 0.0
H695 H 0.34113 0.48974 0.95867 0.0
H696 H 0.34489 0.55999 0.04377 0.0
H697 H 0.31697 0.57433 0.08718 0.0
H698 H 0.30489 0.45457 0.07785 0.0
H699 H 0.22966 0.45754 0.0753 0.0
H700 H 0.2642 0.55303 0.9009 0.0
H701 H 0.27427 0.60251 0.98051 0.0
C702 C 0.47161 0.28594 0.97919 0.0
C703 C 0.46241 0.30704 0.96884 0.0
C704 C 0.47436 0.32438 0.98646 0.0
C705 C 0.49016 0.31295 0.00638 0.0
N706 N 0.48945 0.28935 1.00209 0.0
Co707 Co 0.50845 0.26603 0.02733 0.0
N708 N 0.52515 0.29152 0.05455 0.0
C709 C 0.52239 0.31489 0.05175 0.0
C710 C 0.53759 0.32816 0.07177 0.0
C711 C 0.55123 0.31237 0.08799 0.0
C712 C 0.54338 0.29024 0.07708 0.0
N713 N 0.5267 0.24268 0.05343 0.0
C714 C 0.54396 0.24601 0.07713 0.0
C715 C 0.55169 0.22491 0.0893 0.0
C716 C 0.53936 0.20761 0.07207 0.0
C717 C 0.52471 0.21908 0.05065 0.0
N718 N 0.49248 0.24055 0.99931 0.0
C719 C 0.49658 0.21727 1.00056 0.0
C720 C 0.48245 0.20396 0.97914 0.0
C721 C 0.46828 0.21962 0.96346 0.0
C722 C 0.47469 0.24174 0.97617 0.0
N723 N 0.53376 0.26707 0.99784 0.0
C724 C 0.57135 0.26899 0.95856 0.0
C725 C 0.56509 0.248 0.97163 0.0
C726 C 0.54635 0.2474 0.99077 0.0
C727 C 0.55807 0.28889 0.96515 0.0
C728 C 0.53965 0.28758 0.98472 0.0
N729 N 0.48306 0.26499 0.05668 0.0
C730 C 0.4525 0.24336 0.07897 0.0
C731 C 0.44349 0.26392 0.09212 0.0
C732 C 0.45525 0.28493 0.08848 0.0
C733 C 0.4748 0.28509 0.07071 0.0
C734 C 0.47225 0.24425 0.06184 0.0
H735 H 0.48262 0.30175 0.06806 0.0
H736 H 0.47816 0.22792 0.05248 0.0
H737 H 0.54258 0.23084 0.99988 0.0
H738 H 0.53054 0.30348 0.98903 0.0
C739 C 0.50584 0.32382 0.0294 0.0
C740 C 0.46231 0.26316 0.9672 0.0
C741 C 0.55452 0.26857 0.08758 0.0
C742 C 0.51113 0.20826 0.02524 0.0
H743 H 0.44827 0.30962 0.95074 0.0
H744 H 0.47162 0.34309 0.98523 0.0
H745 H 0.53902 0.34708 0.07371 0.0
H746 H 0.56569 0.31677 0.10529 0.0
H747 H 0.56536 0.22228 0.10804 0.0
H748 H 0.54153 0.18889 0.07401 0.0
H749 H 0.48161 0.18504 0.97649 0.0
H750 H 0.45422 0.21503 0.94566 0.0
H751 H 0.57486 0.23207 0.96774 0.0
H752 H 0.56175 0.30552 0.95519 0.0
H753 H 0.44425 0.22659 0.08176 0.0
H754 H 0.44892 0.30132 0.09834 0.0
C755 C 0.71988 0.54281 0.05141 0.0
C756 C 0.69808 0.55091 0.05871 0.0
C757 C 0.68189 0.53595 0.04345 0.0
C758 C 0.6946 0.51971 0.0275 0.0
N759 N 0.718 0.52317 0.03189 0.0
Co760 Co 0.74259 0.50454 0.01064 0.0
N761 N 0.71866 0.48311 0.98702 0.0
C762 C 0.6953 0.48365 0.98945 0.0
C763 C 0.68318 0.46672 0.97093 0.0
C764 C 0.69977 0.45444 0.95594 0.0
C765 C 0.72122 0.46454 0.96628 0.0
N766 N 0.76717 0.48652 0.98858 0.0
C767 C 0.76526 0.46789 0.96733 0.0
C768 C 0.78706 0.4606 0.95879 0.0
C769 C 0.80321 0.47521 0.97474 0.0
C770 C 0.79052 0.49048 0.99224 0.0
N771 N 0.7666 0.52547 0.03494 0.0
C772 C 0.79008 0.52362 0.03476 0.0
C773 C 0.80225 0.53999 0.05419 0.0
C774 C 0.78558 0.55327 0.06747 0.0
C775 C 0.76405 0.54434 0.0551 0.0
N776 N 0.74504 0.48254 0.04576 0.0
C777 C 0.74763 0.44787 0.09092 0.0
C778 C 0.7677 0.45537 0.07788 0.0
C779 C 0.76607 0.47283 0.05579 0.0
C780 C 0.72644 0.45865 0.08228 0.0
C781 C 0.72553 0.47578 0.05972 0.0
N782 N 0.74002 0.5265 0.97568 0.0
C783 C 0.75772 0.55515 0.94479 0.0
C784 C 0.73574 0.56203 0.93188 0.0
C785 C 0.71606 0.55001 0.9398 0.0
C786 C 0.71861 0.53224 0.96137 0.0
C787 C 0.75945 0.53741 0.9665 0.0
H788 H 0.70295 0.5238 0.9666 0.0
H789 H 0.77661 0.53326 0.97618 0.0
H790 H 0.78201 0.47783 0.04684 0.0
H791 H 0.70873 0.48286 0.05356 0.0
C792 C 0.68515 0.50102 0.00812 0.0
C793 C 0.74179 0.55477 0.06284 0.0
C794 C 0.74342 0.45603 0.95527 0.0
C795 C 0.80013 0.5075 0.01423 0.0
H796 H 0.69418 0.56624 0.07321 0.0
H797 H 0.66307 0.53699 0.0436 0.0
H798 H 0.66447 0.46382 0.96834 0.0
H799 H 0.69638 0.4398 0.93909 0.0
H800 H 0.79103 0.44593 0.94314 0.0
H801 H 0.82202 0.4744 0.97429 0.0
H802 H 0.82102 0.54234 0.05773 0.0
H803 H 0.7889 0.56806 0.08408 0.0
H804 H 0.78456 0.44764 0.0845 0.0
H805 H 0.71047 0.45328 0.09198 0.0
H806 H 0.77346 0.56403 0.93917 0.0
H807 H 0.69874 0.5545 0.92971 0.0
H808 H 0.13922 0.2785 0.35444 0.0
H809 H 0.17329 0.21665 0.39042 0.0
H810 H 0.14276 0.21194 0.42685 0.0
H811 H 0.10643 0.2257 0.44892 0.0
H812 H 0.07127 0.28637 0.41094 0.0
H813 H 0.10197 0.29124 0.37484 0.0
C814 C 0.13991 0.26403 0.37032 0.0
C815 C 0.1585 0.248 0.36989 0.0
C816 C 0.12206 0.26122 0.3908 0.0
C817 C 0.15908 0.22914 0.39026 0.0
C818 C 0.14168 0.2265 0.41115 0.0
C819 C 0.10555 0.23997 0.43272 0.0
C820 C 0.08666 0.2557 0.43264 0.0
C821 C 0.1231 0.24245 0.41169 0.0
C822 C 0.08556 0.27396 0.41128 0.0
C823 C 0.10316 0.27681 0.39074 0.0
H824 H 0.72975 0.15131 0.35548 0.0
H825 H 0.80379 0.14946 0.34381 0.0
H826 H 0.80611 0.11009 0.3642 0.0
H827 H 0.7879 0.07807 0.39011 0.0
H828 H 0.71519 0.08357 0.40953 0.0
H829 H 0.71154 0.11928 0.38063 0.0
C830 C 0.74648 0.14243 0.35765 0.0
C831 C 0.76662 0.15352 0.34866 0.0
C832 C 0.74791 0.12033 0.37064 0.0
C833 C 0.78796 0.14135 0.35048 0.0
C834 C 0.78934 0.11889 0.36235 0.0
C835 C 0.77126 0.08709 0.38831 0.0
C836 C 0.75198 0.07803 0.40246 0.0
C837 C 0.76954 0.1085 0.3733 0.0
C838 C 0.73036 0.08969 0.39865 0.0
C839 C 0.72826 0.11041 0.38244 0.0
H840 H 0.87415 0.77212 0.33732 0.0
H841 H 0.83613 0.74874 0.41414 0.0
H842 H 0.87216 0.7491 0.44926 0.0
H843 H 0.9147 0.75575 0.45813 0.0
H844 H 0.95279 0.77911 0.38169 0.0
H845 H 0.91657 0.77929 0.3464 0.0
C846 C 0.87372 0.76736 0.36184 0.0
C847 C 0.85247 0.76036 0.37304 0.0
C848 C 0.89453 0.76757 0.38192 0.0
C849 C 0.85228 0.75391 0.40479 0.0
C850 C 0.87286 0.7542 0.42493 0.0
C851 C 0.91491 0.76087 0.43372 0.0
C852 C 0.93612 0.76747 0.42231 0.0
C853 C 0.8941 0.76087 0.41373 0.0
C854 C 0.93649 0.77405 0.39076 0.0
C855 C 0.91585 0.77415 0.3707 0.0
H856 H 0.23341 0.86485 0.32872 0.0
H857 H 0.29174 0.83907 0.38832 0.0
H858 H 0.29462 0.87652 0.41842 0.0
H859 H 0.27995 0.91615 0.42871 0.0
H860 H 0.22154 0.94208 0.36951 0.0
H861 H 0.21944 0.90506 0.33807 0.0
C862 C 0.24689 0.86753 0.3481 0.0
C863 C 0.26227 0.84919 0.35636 0.0
C864 C 0.24845 0.88911 0.36531 0.0
C865 C 0.27947 0.8528 0.38179 0.0
C866 C 0.28123 0.87425 0.39888 0.0
C867 C 0.26701 0.91383 0.40859 0.0
C868 C 0.25099 0.93181 0.40132 0.0
C869 C 0.26575 0.89247 0.39094 0.0
C870 C 0.23399 0.92841 0.37562 0.0
C871 C 0.2328 0.90728 0.35766 0.0
H872 H 0.13437 0.75927 0.66902 0.0
H873 H 0.1704 0.79173 0.59634 0.0
H874 H 0.13472 0.78981 0.5607 0.0
H875 H 0.09286 0.77975 0.55044 0.0
H876 H 0.05616 0.75105 0.62487 0.0
H877 H 0.09244 0.75102 0.65982 0.0
C878 C 0.13445 0.76632 0.64561 0.0
C879 C 0.15525 0.77563 0.63558 0.0
C880 C 0.11369 0.76581 0.62551 0.0
C881 C 0.1549 0.78408 0.60471 0.0
C882 C 0.13441 0.78318 0.58432 0.0
C883 C 0.09295 0.77348 0.57433 0.0
C884 C 0.07211 0.76507 0.58506 0.0
C885 C 0.1137 0.77413 0.59449 0.0
C886 C 0.07217 0.75723 0.61608 0.0
C887 C 0.09284 0.75731 0.63603 0.0
H888 H 0.27626 0.15885 0.6858 0.0
H889 H 0.20207 0.1514 0.69391 0.0
H890 H 0.20105 0.11679 0.65815 0.0
H891 H 0.22086 0.08928 0.62367 0.0
H892 H 0.29394 0.09982 0.61029 0.0
H893 H 0.29567 0.13245 0.64932 0.0
C894 C 0.25975 0.14994 0.67944 0.0
C895 C 0.23929 0.15786 0.69268 0.0
C896 C 0.25908 0.13047 0.65804 0.0
C897 C 0.21822 0.14558 0.68463 0.0
C898 C 0.21755 0.12585 0.66394 0.0
C899 C 0.23714 0.09885 0.62882 0.0
C900 C 0.25721 0.09194 0.61381 0.0
C901 C 0.23784 0.11824 0.65036 0.0
C902 C 0.27826 0.10431 0.62173 0.0
C903 C 0.27924 0.1232 0.64386 0.0
H904 H 0.8669 0.27884 0.6887 0.0
H905 H 0.841 0.21314 0.64569 0.0
H906 H 0.87466 0.2104 0.61373 0.0
H907 H 0.91109 0.22697 0.59749 0.0
H908 H 0.93861 0.29124 0.64374 0.0
H909 H 0.90455 0.29442 0.67434 0.0
C910 C 0.86865 0.26399 0.67222 0.0
C911 C 0.85147 0.24627 0.66941 0.0
C912 C 0.88828 0.26232 0.65436 0.0
C913 C 0.85405 0.22695 0.64831 0.0
C914 C 0.87326 0.22541 0.63001 0.0
C915 C 0.90995 0.24151 0.61459 0.0
C916 C 0.92757 0.2589 0.61788 0.0
C917 C 0.89052 0.24298 0.63286 0.0
C918 C 0.92526 0.2778 0.63993 0.0
C919 C 0.9058 0.27957 0.65775 0.0
H920 H 0.74672 0.87945 0.69764 0.0
H921 H 0.79322 0.84084 0.63963 0.0
H922 H 0.79689 0.87477 0.60713 0.0
H923 H 0.78521 0.91436 0.59355 0.0
H924 H 0.73876 0.95337 0.65114 0.0
H925 H 0.73676 0.92022 0.68572 0.0
C926 C 0.75791 0.87864 0.67816 0.0
C927 C 0.76956 0.85772 0.67083 0.0
C928 C 0.75985 0.89814 0.65952 0.0
C929 C 0.78381 0.85671 0.64535 0.0
C930 C 0.786 0.87608 0.62689 0.0
C931 C 0.77503 0.91581 0.61405 0.0
C932 C 0.76221 0.93625 0.6199 0.0
C933 C 0.77386 0.89675 0.63353 0.0
C934 C 0.74864 0.9377 0.64609 0.0
C935 C 0.74754 0.91881 0.66585 0.0
H936 H 0.87447 0.77433 0.68652 0.0
H937 H 0.82746 0.74172 0.61235 0.0
H938 H 0.85823 0.74163 0.57605 0.0
H939 H 0.89854 0.75091 0.5649 0.0
H940 H 0.94474 0.78587 0.63756 0.0
H941 H 0.91407 0.78551 0.67452 0.0
C942 C 0.87074 0.76749 0.66232 0.0
C943 C 0.84855 0.7578 0.65256 0.0
C944 C 0.88841 0.76801 0.64112 0.0
C945 C 0.84442 0.74876 0.62104 0.0
C946 C 0.86199 0.74888 0.60005 0.0
C947 C 0.90187 0.75839 0.58887 0.0
C948 C 0.92389 0.76829 0.59855 0.0
C949 C 0.88407 0.75836 0.60984 0.0
C950 C 0.92788 0.77825 0.62951 0.0
C951 C 0.91038 0.77796 0.65067 0.0
H952 H 0.23466 0.86455 0.60904 0.0
H953 H 0.28291 0.89301 0.68435 0.0
H954 H 0.28445 0.93005 0.65728 0.0
H955 H 0.27203 0.95469 0.61195 0.0
H956 H 0.22672 0.92505 0.53415 0.0
H957 H 0.2238 0.88861 0.56224 0.0
C958 C 0.24549 0.87889 0.61946 0.0
C959 C 0.25859 0.876 0.64885 0.0
C960 C 0.24675 0.90008 0.60323 0.0
C961 C 0.27269 0.89473 0.66185 0.0
C962 C 0.27354 0.91595 0.64634 0.0
C963 C 0.26169 0.94017 0.60101 0.0
C964 C 0.2496 0.94276 0.57082 0.0
C965 C 0.26069 0.91888 0.61697 0.0
C966 C 0.2361 0.92372 0.55732 0.0
C967 C 0.2345 0.90279 0.57338 0.0
H968 H 0.11966 0.26512 0.71978 0.0
H969 H 0.16414 0.23044 0.6549 0.0
H970 H 0.13196 0.22865 0.6136 0.0
H971 H 0.09144 0.23767 0.59511 0.0
H972 H 0.04593 0.27021 0.65988 0.0
H973 H 0.07815 0.27201 0.70208 0.0
C974 C 0.12226 0.25687 0.69678 0.0
C975 C 0.14453 0.24824 0.69051 0.0
C976 C 0.10347 0.25553 0.67306 0.0
C977 C 0.14748 0.2378 0.66033 0.0
C978 C 0.129 0.23659 0.63666 0.0
C979 C 0.08855 0.24481 0.61866 0.0
C980 C 0.06638 0.25348 0.6247 0.0
C981 C 0.10701 0.24553 0.64267 0.0
C982 C 0.06286 0.2632 0.65497 0.0
C983 C 0.08126 0.26425 0.67898 0.0
H984 H 0.77192 0.1598 0.62554 0.0
H985 H 0.73394 0.12733 0.69627 0.0
H986 H 0.73251 0.09058 0.66498 0.0
H987 H 0.74215 0.06697 0.61746 0.0
H988 H 0.77773 0.09973 0.54511 0.0
H989 H 0.77967 0.1368 0.57668 0.0
C990 C 0.76306 0.14484 0.63407 0.0
C991 C 0.75338 0.14664 0.6638 0.0
C992 C 0.76182 0.12358 0.6155 0.0
C993 C 0.7422 0.12667 0.67414 0.0
C994 C 0.74114 0.10553 0.65603 0.0
C995 C 0.75017 0.08231 0.60857 0.0
C996 C 0.75986 0.08056 0.579 0.0
C997 C 0.75097 0.10369 0.62674 0.0
C998 C 0.77025 0.10058 0.56784 0.0
C999 C 0.77134 0.12179 0.5859 0.0
H1000 H 0.85404 0.26897 0.42465 0.0
H1001 H 0.8816 0.23764 0.34085 0.0
H1002 H 0.92007 0.23468 0.36951 0.0
H1003 H 0.94622 0.24142 0.41825 0.0
H1004 H 0.91868 0.27123 0.5026 0.0
H1005 H 0.87985 0.27433 0.47399 0.0
C1006 C 0.86835 0.26119 0.41274 0.0
C1007 C 0.86484 0.25366 0.3805 0.0
C1008 C 0.89046 0.25929 0.4295 0.0
C1009 C 0.8838 0.24398 0.36543 0.0
C1010 C 0.90582 0.24213 0.38186 0.0
C1011 C 0.93156 0.24826 0.43037 0.0
C1012 C 0.93498 0.25567 0.46253 0.0
C1013 C 0.90938 0.24981 0.41384 0.0
C1014 C 0.91619 0.26515 0.47791 0.0
C1015 C 0.89408 0.26693 0.46157 0.0
H1016 H 0.76607 0.8784 0.34627 0.0
H1017 H 0.73735 0.83461 0.41443 0.0
H1018 H 0.73788 0.86765 0.45275 0.0
H1019 H 0.74625 0.90938 0.4675 0.0
H1020 H 0.77263 0.95377 0.39864 0.0
H1021 H 0.77301 0.9204 0.36023 0.0
C1022 C 0.75966 0.87602 0.36932 0.0
C1023 C 0.75192 0.85362 0.37716 0.0
C1024 C 0.75957 0.89538 0.39136 0.0
C1025 C 0.74399 0.85123 0.40759 0.0
C1026 C 0.74407 0.87027 0.42962 0.0
C1027 C 0.75199 0.9117 0.44402 0.0
C1028 C 0.75947 0.93403 0.43597 0.0
C1029 C 0.75186 0.89244 0.42186 0.0
C1030 C 0.7669 0.93676 0.40546 0.0
C1031 C 0.76707 0.91767 0.38348 0.0
H1032 H 0.14236 0.7665 0.33568 0.0
H1033 H 0.18396 0.73572 0.41312 0.0
H1034 H 0.15074 0.73764 0.44532 0.0
H1035 H 0.1097 0.74787 0.4518 0.0
H1036 H 0.069 0.78143 0.37636 0.0
H1037 H 0.10223 0.77922 0.34347 0.0
C1038 C 0.14441 0.76054 0.35975 0.0
C1039 C 0.1658 0.7507 0.37156 0.0
C1040 C 0.12535 0.76228 0.37865 0.0
C1041 C 0.1677 0.74281 0.40282 0.0
C1042 C 0.14871 0.74409 0.42149 0.0
C1043 C 0.10817 0.75468 0.42813 0.0
C1044 C 0.08694 0.76465 0.41638 0.0
C1045 C 0.12742 0.75365 0.40961 0.0
C1046 C 0.08521 0.77374 0.3859 0.0
C1047 C 0.10417 0.77239 0.36709 0.0
H1048 H 0.27007 0.13569 0.34564 0.0
H1049 H 0.23001 0.17901 0.40735 0.0
H1050 H 0.22772 0.14688 0.44296 0.0
H1051 H 0.23704 0.10609 0.45747 0.0
H1052 H 0.27469 0.06194 0.39436 0.0
H1053 H 0.27761 0.09437 0.35867 0.0
C1054 C 0.26058 0.13819 0.36662 0.0
C1055 C 0.25056 0.16033 0.37354 0.0
C1056 C 0.25883 0.11925 0.38705 0.0
C1057 C 0.23857 0.16273 0.40136 0.0
C1058 C 0.23701 0.14415 0.42181 0.0
C1059 C 0.24576 0.10355 0.43579 0.0
C1060 C 0.25576 0.08153 0.42879 0.0
C1061 C 0.24713 0.12232 0.41505 0.0
C1062 C 0.26699 0.07866 0.40053 0.0
C1063 C 0.26864 0.09725 0.38005 0.0
H1064 H 0.63378 0.73811 0.82409 0.0
H1065 H 0.6802 0.76743 0.90137 0.0
H1066 H 0.64836 0.76813 0.93607 0.0
H1067 H 0.60736 0.75972 0.94514 0.0
H1068 H 0.56167 0.72815 0.86903 0.0
H1069 H 0.59325 0.72861 0.83355 0.0
C1070 C 0.63711 0.74439 0.84861 0.0
C1071 C 0.65952 0.75285 0.85981 0.0
C1072 C 0.61878 0.74429 0.8688 0.0
C1073 C 0.66314 0.76126 0.89167 0.0
C1074 C 0.64494 0.76151 0.91172 0.0
C1075 C 0.60432 0.7531 0.92071 0.0
C1076 C 0.58219 0.74399 0.9097 0.0
C1077 C 0.62267 0.75309 0.90057 0.0
C1078 C 0.57858 0.73514 0.87812 0.0
C1079 C 0.59662 0.73545 0.85781 0.0
H1080 H 0.29202 0.67207 0.86429 0.0
H1081 H 0.22463 0.65549 0.81575 0.0
H1082 H 0.22221 0.6202 0.84619 0.0
H1083 H 0.23873 0.59419 0.88811 0.0
H1084 H 0.30503 0.61217 0.93869 0.0
H1085 H 0.30845 0.64624 0.90614 0.0
C1086 C 0.27688 0.66064 0.8602 0.0
C1087 C 0.25853 0.66661 0.83761 0.0
C1088 C 0.27539 0.64044 0.87832 0.0
C1089 C 0.23894 0.6516 0.83307 0.0
C1090 C 0.23757 0.63129 0.85045 0.0
C1091 C 0.25402 0.60545 0.89174 0.0
C1092 C 0.27166 0.60046 0.91581 0.0
C1093 C 0.25561 0.62553 0.87333 0.0
C1094 C 0.29118 0.61553 0.92044 0.0
C1095 C 0.29315 0.63508 0.90179 0.0
H1096 H 0.37539 0.25107 0.86578 0.0
H1097 H 0.34037 0.28281 0.94338 0.0
H1098 H 0.37713 0.28394 0.97668 0.0
H1099 H 0.41951 0.27623 0.98391 0.0
H1100 H 0.45503 0.24799 0.90506 0.0
H1101 H 0.41789 0.24558 0.8719 0.0
C1102 C 0.37573 0.25861 0.88977 0.0
C1103 C 0.35486 0.26669 0.90189 0.0
C1104 C 0.3971 0.25983 0.90864 0.0
C1105 C 0.35588 0.27595 0.93341 0.0
C1106 C 0.377 0.27681 0.95249 0.0
C1107 C 0.419 0.26959 0.95943 0.0
C1108 C 0.43977 0.26191 0.94697 0.0
C1109 C 0.3977 0.26877 0.94039 0.0
C1110 C 0.43911 0.2536 0.91518 0.0
C1111 C 0.41794 0.25231 0.89626 0.0
H1112 H 0.75718 0.38105 0.84295 0.0
H1113 H 0.72836 0.33527 0.90876 0.0
H1114 H 0.72533 0.36815 0.94662 0.0
H1115 H 0.73115 0.41021 0.96198 0.0
H1116 H 0.75703 0.45645 0.89492 0.0
H1117 H 0.76042 0.42338 0.85671 0.0
C1118 C 0.7499 0.37815 0.86531 0.0
C1119 C 0.74339 0.35524 0.87272 0.0
C1120 C 0.74758 0.39742 0.88699 0.0
C1121 C 0.73426 0.35229 0.90231 0.0
C1122 C 0.73224 0.37125 0.92406 0.0
C1123 C 0.73732 0.41301 0.93886 0.0
C1124 C 0.74395 0.43576 0.93137 0.0
C1125 C 0.73896 0.39389 0.9168 0.0
C1126 C 0.75193 0.43912 0.90131 0.0
C1127 C 0.75388 0.42019 0.87947 0.0
H1128 H 0.65727 0.26098 0.15281 0.0
H1129 H 0.62478 0.29557 0.23055 0.0
H1130 H 0.58738 0.29552 0.19865 0.0
H1131 H 0.56354 0.28532 0.14863 0.0
H1132 H 0.59636 0.25276 0.07011 0.0
H1133 H 0.63399 0.2525 0.10216 0.0
C1134 C 0.64214 0.26884 0.1627 0.0
C1135 C 0.64398 0.27812 0.19425 0.0
C1136 C 0.62067 0.26909 0.14403 0.0
C1137 C 0.62392 0.28787 0.20663 0.0
C1138 C 0.60249 0.288 0.18831 0.0
C1139 C 0.57905 0.27839 0.13859 0.0
C1140 C 0.57737 0.26921 0.10713 0.0
C1141 C 0.60062 0.27857 0.15704 0.0
C1142 C 0.59739 0.25998 0.09432 0.0
C1143 C 0.61884 0.25985 0.1126 0.0
H1144 H 0.75256 0.65783 0.12542 0.0
H1145 H 0.72243 0.62419 0.20215 0.0
H1146 H 0.72032 0.58719 0.17123 0.0
H1147 H 0.72756 0.5637 0.12248 0.0
H1148 H 0.75617 0.59739 0.04503 0.0
H1149 H 0.75806 0.63482 0.07577 0.0
C1150 C 0.74525 0.64254 0.13533 0.0
C1151 C 0.73794 0.64406 0.16649 0.0
C1152 C 0.74379 0.62113 0.11715 0.0
C1153 C 0.72876 0.62372 0.1787 0.0
C1154 C 0.72735 0.60245 0.16087 0.0
C1155 C 0.73399 0.57932 0.11231 0.0
C1156 C 0.74166 0.57779 0.08147 0.0
C1157 C 0.73494 0.60085 0.13014 0.0
C1158 C 0.75015 0.59814 0.06867 0.0
C1159 C 0.75124 0.61953 0.08628 0.0
H1160 H 0.35408 0.70234 0.14745 0.0
H1161 H 0.35784 0.77551 0.17698 0.0
H1162 H 0.39142 0.78083 0.14605 0.0
H1163 H 0.41997 0.76471 0.11099 0.0
H1164 H 0.41482 0.69199 0.0787 0.0
H1165 H 0.38205 0.68646 0.11074 0.0
C1166 C 0.36234 0.7194 0.14716 0.0
C1167 C 0.35344 0.7385 0.16444 0.0
C1168 C 0.38155 0.72242 0.12896 0.0
C1169 C 0.3642 0.76057 0.16363 0.0
C1170 C 0.38347 0.76361 0.14604 0.0
C1171 C 0.41157 0.74769 0.11055 0.0
C1172 C 0.42019 0.72881 0.09244 0.0
C1173 C 0.39227 0.74468 0.12852 0.0
C1174 C 0.40909 0.70681 0.09282 0.0
C1175 C 0.39012 0.70363 0.11099 0.0
H1176 H 0.28217 0.3545 0.1458 0.0
H1177 H 0.22615 0.38128 0.19888 0.0
H1178 H 0.22474 0.41676 0.16863 0.0
H1179 H 0.23951 0.44091 0.12713 0.0
H1180 H 0.29517 0.41386 0.07358 0.0
H1181 H 0.29644 0.3783 0.10366 0.0
C1182 C 0.26949 0.36796 0.15067 0.0
C1183 C 0.25441 0.36491 0.17507 0.0
C1184 C 0.26871 0.38861 0.13299 0.0
C1185 C 0.23834 0.38298 0.18087 0.0
C1186 C 0.23739 0.40337 0.16333 0.0
C1187 C 0.25184 0.42721 0.1218 0.0
C1188 C 0.26736 0.43052 0.09799 0.0
C1189 C 0.25252 0.4065 0.13935 0.0
C1190 C 0.28327 0.41235 0.09198 0.0
C1191 C 0.28393 0.39178 0.10913 0.0
H1192 H 0.34385 0.25135 0.14272 0.0
H1193 H 0.37684 0.29197 0.22265 0.0
H1194 H 0.4125 0.29471 0.19544 0.0
H1195 H 0.43498 0.28462 0.14944 0.0
H1196 H 0.40265 0.24203 0.07122 0.0
H1197 H 0.36639 0.24056 0.09759 0.0
C1198 C 0.35888 0.26058 0.15447 0.0
C1199 C 0.35742 0.27146 0.18481 0.0
C1200 C 0.37962 0.26162 0.13902 0.0
C1201 C 0.37711 0.28374 0.19914 0.0
C1202 C 0.39767 0.28517 0.18369 0.0
C1203 C 0.41994 0.27513 0.13816 0.0
C1204 C 0.42152 0.2634 0.10846 0.0
C1205 C 0.39918 0.27411 0.15366 0.0
C1206 C 0.40196 0.25098 0.09423 0.0
C1207 C 0.38119 0.25022 0.10923 0.0
H1208 H 0.75755 0.35397 0.16233 0.0
H1209 H 0.72455 0.39541 0.23375 0.0
H1210 H 0.72213 0.42863 0.19896 0.0
H1211 H 0.73074 0.44622 0.14881 0.0
H1212 H 0.76638 0.40519 0.07979 0.0
H1213 H 0.76718 0.37156 0.1137 0.0
C1214 C 0.75016 0.37036 0.17062 0.0
C1215 C 0.74146 0.37224 0.20074 0.0
C1216 C 0.74953 0.38949 0.15107 0.0
C1217 C 0.73122 0.3934 0.21056 0.0
C1218 C 0.73 0.41246 0.19081 0.0
C1219 C 0.73864 0.42986 0.14135 0.0
C1220 C 0.74856 0.42804 0.11208 0.0
C1221 C 0.73928 0.41073 0.16112 0.0
C1222 C 0.7589 0.40694 0.10248 0.0
C1223 C 0.75923 0.38773 0.12172 0.0
H1224 H 0.65335 0.75021 0.12411 0.0
H1225 H 0.62079 0.72368 0.2039 0.0
H1226 H 0.58361 0.71964 0.17159 0.0
H1227 H 0.55985 0.72474 0.12088 0.0
H1228 H 0.59202 0.7523 0.04177 0.0
H1229 H 0.62977 0.75512 0.07354 0.0
C1230 C 0.6381 0.74371 0.13453 0.0
C1231 C 0.63994 0.73727 0.16645 0.0
C1232 C 0.61667 0.74164 0.11588 0.0
C1233 C 0.62002 0.72849 0.17932 0.0
C1234 C 0.59868 0.7263 0.16091 0.0
C1235 C 0.57526 0.73117 0.11072 0.0
C1236 C 0.57346 0.73815 0.07917 0.0
C1237 C 0.59677 0.73289 0.12921 0.0
C1238 C 0.59326 0.74671 0.06604 0.0
C1239 C 0.61474 0.74836 0.08419 0.0
H1240 H 0.29659 0.61575 0.19959 0.0
H1241 H 0.22201 0.62605 0.1878 0.0
H1242 H 0.21749 0.59027 0.15393 0.0
H1243 H 0.23552 0.55984 0.12183 0.0
H1244 H 0.30992 0.55202 0.12851 0.0
H1245 H 0.31375 0.58085 0.17278 0.0
C1246 C 0.27936 0.60982 0.19009 0.0
C1247 C 0.25969 0.6236 0.19547 0.0
C1248 C 0.27698 0.58984 0.16952 0.0
C1249 C 0.23738 0.61578 0.1834 0.0
C1250 C 0.2348 0.59535 0.16415 0.0
C1251 C 0.25273 0.56572 0.13109 0.0
C1252 C 0.27283 0.55826 0.11653 0.0
C1253 C 0.25463 0.58306 0.15564 0.0
C1254 C 0.29439 0.5611 0.13496 0.0
C1255 C 0.29657 0.5772 0.16094 0.0
H1256 H 0.37984 0.74056 0.82613 0.0
H1257 H 0.34259 0.77839 0.89677 0.0
H1258 H 0.37566 0.77396 0.936 0.0
H1259 H 0.4156 0.76005 0.95031 0.0
H1260 H 0.45417 0.72535 0.87891 0.0
H1261 H 0.42028 0.72803 0.83983 0.0
C1262 C 0.37898 0.74814 0.84995 0.0
C1263 C 0.35851 0.7597 0.8583 0.0
C1264 C 0.39836 0.74606 0.87233 0.0
C1265 C 0.35778 0.76897 0.88962 0.0
C1266 C 0.37681 0.76663 0.91211 0.0
C1267 C 0.41649 0.75311 0.92615 0.0
C1268 C 0.43717 0.7424 0.91739 0.0
C1269 C 0.39718 0.75525 0.90374 0.0
C1270 C 0.43829 0.73349 0.8861 0.0
C1271 C 0.41898 0.73511 0.86381 0.0
H1272 H 0.25868 0.38111 0.86591 0.0
H1273 H 0.24942 0.34457 0.95129 0.0
H1274 H 0.25137 0.38181 0.98235 0.0
H1275 H 0.25652 0.42493 0.98517 0.0
H1276 H 0.26579 0.46095 0.89957 0.0
H1277 H 0.26326 0.42372 0.86848 0.0
C1278 C 0.2573 0.38127 0.89137 0.0
C1279 C 0.2541 0.36014 0.90635 0.0
C1280 C 0.25849 0.40264 0.90895 0.0
C1281 C 0.25179 0.36066 0.93923 0.0
C1282 C 0.253 0.38191 0.95698 0.0
C1283 C 0.25797 0.42443 0.95971 0.0
C1284 C 0.26156 0.44529 0.94445 0.0
C1285 C 0.25645 0.403 0.94211 0.0
C1286 C 0.26323 0.44485 0.91153 0.0
C1287 C 0.26176 0.42366 0.89388 0.0
H1288 H 0.66082 0.28912 0.8848 0.0
H1289 H 0.64562 0.21881 0.84764 0.0
H1290 H 0.61172 0.21708 0.87887 0.0
H1291 H 0.58624 0.23556 0.91639 0.0
H1292 H 0.60264 0.30515 0.95594 0.0
H1293 H 0.63573 0.3073 0.92359 0.0
C1294 C 0.64999 0.27349 0.88345 0.0
C1295 C 0.65575 0.25412 0.86394 0.0
C1296 C 0.63061 0.27251 0.90175 0.0
C1297 C 0.64171 0.23387 0.86271 0.0
C1298 C 0.62226 0.2329 0.88046 0.0
C1299 C 0.59716 0.25113 0.91833 0.0
C1300 C 0.59168 0.27019 0.93866 0.0
C1301 C 0.61657 0.25209 0.90014 0.0
C1302 C 0.60597 0.29033 0.94016 0.0
C1303 C 0.62511 0.29153 0.92181 0.0
H1304 H 0.71845 0.65781 0.86576 0.0
H1305 H 0.77325 0.63088 0.81067 0.0
H1306 H 0.77415 0.59459 0.83949 0.0
H1307 H 0.76047 0.57138 0.88199 0.0
H1308 H 0.70566 0.59843 0.93704 0.0
H1309 H 0.70345 0.63382 0.90643 0.0
C1310 C 0.73056 0.64395 0.86015 0.0
C1311 C 0.74586 0.64692 0.83643 0.0
C1312 C 0.73093 0.62323 0.87673 0.0
C1313 C 0.76125 0.62881 0.82884 0.0
C1314 C 0.76183 0.60816 0.84536 0.0
C1315 C 0.74804 0.58504 0.88715 0.0
C1316 C 0.73332 0.58245 0.91168 0.0
C1317 C 0.74693 0.60531 0.86958 0.0
C1318 C 0.71703 0.60004 0.91801 0.0
C1319 C 0.71586 0.6203 0.9007 0.0
loop_
_geom_bond_atom_site_label_1
_geom_bond_atom_site_label_2
_geom_bond_distance
_geom_bond_site_symmetry_2
_ccdc_geom_bond_type
H0 C19 0.949 . S
H1 C20 0.950 . S
H2 C22 0.950 . S
H3 C23 0.950 . S
H4 C25 0.950 . S
H5 C28 0.950 . S
H6 C29 0.950 . S
H7 C31 0.951 . S
H8 C32 0.949 . S
H9 C34 0.949 . S
H10 C35 0.950 . S
H11 C37 0.950 . S
H12 C38 0.950 . S
H13 C40 0.950 . S
H14 C43 0.950 . S
H15 C44 0.950 . S
H16 C46 0.951 . S
H17 C47 0.949 . S
C18 C19 1.376 . S
C18 C23 1.386 . S
C18 C24 1.483 . S
C19 H0 0.949 . S
C19 C18 1.376 . S
C19 C20 1.397 . S
C20 H1 0.950 . S
C20 C19 1.397 . S
C20 C21 1.391 . S
C21 C20 1.391 . S
C21 C22 1.405 . S
C22 H2 0.950 . S
C22 C21 1.405 . S
C22 C23 1.367 . S
C23 H3 0.950 . S
C23 C18 1.386 . S
C23 C22 1.367 . S
C24 C18 1.483 . S
C24 C25 1.382 . S
C24 C26 1.403 . S
C25 H4 0.950 . S
C25 C24 1.382 . S
C25 C41 1.411 . S
C26 C24 1.403 . S
C26 C27 1.489 . S
C26 C40 1.411 . S
C27 C26 1.489 . S
C27 C28 1.383 . S
C27 C32 1.382 . S
C28 H5 0.950 . S
C28 C27 1.383 . S
C28 C29 1.395 . S
C29 H6 0.950 . S
C29 C28 1.395 . S
C29 C30 1.288 . S
C30 C29 1.288 . S
C30 C31 1.392 . S
C31 H7 0.951 . S
C31 C30 1.392 . S
C31 C32 1.392 . S
C32 H8 0.949 . S
C32 C27 1.382 . S
C32 C31 1.392 . S
C33 C34 1.376 . S
C33 C38 1.386 . S
C33 C39 1.483 . S
C34 H9 0.949 . S
C34 C33 1.376 . S
C34 C35 1.397 . S
C35 H10 0.950 . S
C35 C34 1.397 . S
C35 C36 1.391 . S
C36 C35 1.391 . S
C36 C37 1.405 . S
C37 H11 0.950 . S
C37 C36 1.405 . S
C37 C38 1.367 . S
C38 H12 0.950 . S
C38 C33 1.386 . S
C38 C37 1.367 . S
C39 C33 1.483 . S
C39 C40 1.382 . S
C39 C41 1.403 . S
C40 H13 0.950 . S
C40 C26 1.411 . S
C40 C39 1.382 . S
C41 C25 1.411 . S
C41 C39 1.403 . S
C41 C42 1.489 . S
C42 C41 1.489 . S
C42 C43 1.383 . S
C42 C47 1.382 . S
C43 H14 0.950 . S
C43 C42 1.383 . S
C43 C44 1.395 . S
C44 H15 0.950 . S
C44 C43 1.395 . S
C44 C45 1.288 . S
C45 C44 1.288 . S
C45 C46 1.392 . S
C46 H16 0.951 . S
C46 C45 1.392 . S
C46 C47 1.392 . S
C47 H17 0.949 . S
C47 C42 1.382 . S
C47 C46 1.392 . S
H48 C67 0.949 . S
H49 C68 0.950 . S
H50 C70 0.950 . S
H51 C71 0.950 . S
H52 C73 0.950 . S
H53 C76 0.950 . S
H54 C77 0.950 . S
H55 C79 0.951 . S
H56 C80 0.949 . S
H57 C82 0.949 . S
H58 C83 0.950 . S
H59 C85 0.950 . S
H60 C86 0.950 . S
H61 C88 0.950 . S
H62 C91 0.950 . S
H63 C92 0.950 . S
H64 C94 0.951 . S
H65 C95 0.949 . S
C66 C67 1.376 . S
C66 C71 1.386 . S
C66 C72 1.483 . S
C67 H48 0.949 . S
C67 C66 1.376 . S
C67 C68 1.397 . S
C68 H49 0.950 . S
C68 C67 1.397 . S
C68 C69 1.391 . S
C69 C68 1.391 . S
C69 C70 1.405 . S
C70 H50 0.950 . S
C70 C69 1.405 . S
C70 C71 1.367 . S
C71 H51 0.950 . S
C71 C66 1.386 . S
C71 C70 1.367 . S
C72 C66 1.483 . S
C72 C73 1.382 . S
C72 C74 1.403 . S
C73 H52 0.950 . S
C73 C72 1.382 . S
C73 C89 1.411 . S
C74 C72 1.403 . S
C74 C75 1.489 . S
C74 C88 1.411 . S
C75 C74 1.489 . S
C75 C76 1.383 . S
C75 C80 1.382 . S
C76 H53 0.950 . S
C76 C75 1.383 . S
C76 C77 1.395 . S
C77 H54 0.950 . S
C77 C76 1.395 . S
C77 C78 1.288 . S
C78 C77 1.288 . S
C78 C79 1.392 . S
C79 H55 0.951 . S
C79 C78 1.392 . S
C79 C80 1.392 . S
C80 H56 0.949 . S
C80 C75 1.382 . S
C80 C79 1.392 . S
C81 C82 1.376 . S
C81 C86 1.386 . S
C81 C87 1.483 . S
C82 H57 0.949 . S
C82 C81 1.376 . S
C82 C83 1.397 . S
C83 H58 0.950 . S
C83 C82 1.397 . S
C83 C84 1.391 . S
C84 C83 1.391 . S
C84 C85 1.405 . S
C85 H59 0.950 . S
C85 C84 1.405 . S
C85 C86 1.367 . S
C86 H60 0.950 . S
C86 C81 1.386 . S
C86 C85 1.367 . S
C87 C81 1.483 . S
C87 C88 1.382 . S
C87 C89 1.403 . S
C88 H61 0.950 . S
C88 C74 1.411 . S
C88 C87 1.382 . S
C89 C73 1.411 . S
C89 C87 1.403 . S
C89 C90 1.489 . S
C90 C89 1.489 . S
C90 C91 1.383 . S
C90 C95 1.382 . S
C91 H62 0.950 . S
C91 C90 1.383 . S
C91 C92 1.395 . S
C92 H63 0.950 . S
C92 C91 1.395 . S
C92 C93 1.288 . S
C93 C92 1.288 . S
C93 C94 1.392 . S
C94 H64 0.951 . S
C94 C93 1.392 . S
C94 C95 1.392 . S
C95 H65 0.949 . S
C95 C90 1.382 . S
C95 C94 1.392 . S
H96 C115 0.949 . S
H97 C116 0.950 . S
H98 C118 0.950 . S
H99 C119 0.950 . S
H100 C121 0.950 . S
H101 C124 0.950 . S
H102 C125 0.950 . S
H103 C127 0.951 . S
H104 C128 0.949 . S
H105 C130 0.949 . S
H106 C131 0.950 . S
H107 C133 0.950 . S
H108 C134 0.950 . S
H109 C136 0.950 . S
H110 C139 0.950 . S
H111 C140 0.950 . S
H112 C142 0.951 . S
H113 C143 0.949 . S
C114 C115 1.376 . S
C114 C119 1.386 . S
C114 C120 1.483 . S
C115 H96 0.949 . S
C115 C114 1.376 . S
C115 C116 1.397 . S
C116 H97 0.950 . S
C116 C115 1.397 . S
C116 C117 1.391 . S
C117 C116 1.391 . S
C117 C118 1.405 . S
C118 H98 0.950 . S
C118 C117 1.405 . S
C118 C119 1.367 . S
C119 H99 0.950 . S
C119 C114 1.386 . S
C119 C118 1.367 . S
C120 C114 1.483 . S
C120 C121 1.382 . S
C120 C122 1.403 . S
C121 H100 0.950 . S
C121 C120 1.382 . S
C121 C137 1.411 . S
C122 C120 1.403 . S
C122 C123 1.489 . S
C122 C136 1.411 . S
C123 C122 1.489 . S
C123 C124 1.383 . S
C123 C128 1.382 . S
C124 H101 0.950 . S
C124 C123 1.383 . S
C124 C125 1.395 . S
C125 H102 0.950 . S
C125 C124 1.395 . S
C125 C126 1.288 . S
C126 C125 1.288 . S
C126 C127 1.392 . S
C127 H103 0.951 . S
C127 C126 1.392 . S
C127 C128 1.392 . S
C128 H104 0.949 . S
C128 C123 1.382 . S
C128 C127 1.392 . S
C129 C130 1.376 . S
C129 C134 1.386 . S
C129 C135 1.483 . S
C130 H105 0.949 . S
C130 C129 1.376 . S
C130 C131 1.397 . S
C131 H106 0.950 . S
C131 C130 1.397 . S
C131 C132 1.391 . S
C132 C131 1.391 . S
C132 C133 1.405 . S
C133 H107 0.950 . S
C133 C132 1.405 . S
C133 C134 1.367 . S
C134 H108 0.950 . S
C134 C129 1.386 . S
C134 C133 1.367 . S
C135 C129 1.483 . S
C135 C136 1.382 . S
C135 C137 1.403 . S
C136 H109 0.950 . S
C136 C122 1.411 . S
C136 C135 1.382 . S
C137 C121 1.411 . S
C137 C135 1.403 . S
C137 C138 1.489 . S
C138 C137 1.489 . S
C138 C139 1.383 . S
C138 C143 1.382 . S
C139 H110 0.950 . S
C139 C138 1.383 . S
C139 C140 1.395 . S
C140 H111 0.950 . S
C140 C139 1.395 . S
C140 C141 1.288 . S
C141 C140 1.288 . S
C141 C142 1.392 . S
C142 H112 0.951 . S
C142 C141 1.392 . S
C142 C143 1.392 . S
C143 H113 0.949 . S
C143 C138 1.382 . S
C143 C142 1.392 . S
H144 C163 0.949 . S
H145 C164 0.950 . S
H146 C166 0.950 . S
H147 C167 0.950 . S
H148 C169 0.950 . S
H149 C172 0.950 . S
H150 C173 0.950 . S
H151 C175 0.951 . S
H152 C176 0.949 . S
H153 C178 0.949 . S
H154 C179 0.950 . S
H155 C181 0.950 . S
H156 C182 0.950 . S
H157 C184 0.950 . S
H158 C187 0.950 . S
H159 C188 0.950 . S
H160 C190 0.951 . S
H161 C191 0.949 . S
C162 C163 1.376 . S
C162 C167 1.386 . S
C162 C168 1.483 . S
C163 H144 0.949 . S
C163 C162 1.376 . S
C163 C164 1.397 . S
C164 H145 0.950 . S
C164 C163 1.397 . S
C164 C165 1.391 . S
C165 C164 1.391 . S
C165 C166 1.405 . S
C166 H146 0.950 . S
C166 C165 1.405 . S
C166 C167 1.367 . S
C167 H147 0.950 . S
C167 C162 1.386 . S
C167 C166 1.367 . S
C168 C162 1.483 . S
C168 C169 1.382 . S
C168 C170 1.403 . S
C169 H148 0.950 . S
C169 C168 1.382 . S
C169 C185 1.411 . S
C170 C168 1.403 . S
C170 C171 1.489 . S
C170 C184 1.411 . S
C171 C170 1.489 . S
C171 C172 1.383 . S
C171 C176 1.382 . S
C172 H149 0.950 . S
C172 C171 1.383 . S
C172 C173 1.395 . S
C173 H150 0.950 . S
C173 C172 1.395 . S
C173 C174 1.288 . S
C174 C173 1.288 . S
C174 C175 1.392 . S
C175 H151 0.951 . S
C175 C174 1.392 . S
C175 C176 1.392 . S
C176 H152 0.949 . S
C176 C171 1.382 . S
C176 C175 1.392 . S
C177 C178 1.376 . S
C177 C182 1.386 . S
C177 C183 1.483 . S
C178 H153 0.949 . S
C178 C177 1.376 . S
C178 C179 1.397 . S
C179 H154 0.950 . S
C179 C178 1.397 . S
C179 C180 1.391 . S
C180 C179 1.391 . S
C180 C181 1.405 . S
C181 H155 0.950 . S
C181 C180 1.405 . S
C181 C182 1.367 . S
C182 H156 0.950 . S
C182 C177 1.386 . S
C182 C181 1.367 . S
C183 C177 1.483 . S
C183 C184 1.382 . S
C183 C185 1.403 . S
C184 H157 0.950 . S
C184 C170 1.411 . S
C184 C183 1.382 . S
C185 C169 1.411 . S
C185 C183 1.403 . S
C185 C186 1.489 . S
C186 C185 1.489 . S
C186 C187 1.383 . S
C186 C191 1.382 . S
C187 H158 0.950 . S
C187 C186 1.383 . S
C187 C188 1.395 . S
C188 H159 0.950 . S
C188 C187 1.395 . S
C188 C189 1.288 . S
C189 C188 1.288 . S
C189 C190 1.392 . S
C190 H160 0.951 . S
C190 C189 1.392 . S
C190 C191 1.392 . S
C191 H161 0.949 . S
C191 C186 1.382 . S
C191 C190 1.392 . S
H192 C211 0.949 . S
H193 C212 0.950 . S
H194 C214 0.950 . S
H195 C215 0.950 . S
H196 C217 0.950 . S
H197 C220 0.950 . S
H198 C221 0.950 . S
H199 C223 0.951 . S
H200 C224 0.949 . S
H201 C226 0.949 . S
H202 C227 0.950 . S
H203 C229 0.950 . S
H204 C230 0.950 . S
H205 C232 0.950 . S
H206 C235 0.950 . S
H207 C236 0.950 . S
H208 C238 0.951 . S
H209 C239 0.949 . S
C210 C211 1.376 . S
C210 C215 1.386 . S
C210 C216 1.483 . S
C211 H192 0.949 . S
C211 C210 1.376 . S
C211 C212 1.397 . S
C212 H193 0.950 . S
C212 C211 1.397 . S
C212 C213 1.391 . S
C213 C212 1.391 . S
C213 C214 1.405 . S
C214 H194 0.950 . S
C214 C213 1.405 . S
C214 C215 1.367 . S
C215 H195 0.950 . S
C215 C210 1.386 . S
C215 C214 1.367 . S
C216 C210 1.483 . S
C216 C217 1.382 . S
C216 C218 1.403 . S
C217 H196 0.950 . S
C217 C216 1.382 . S
C217 C233 1.411 . S
C218 C216 1.403 . S
C218 C219 1.489 . S
C218 C232 1.411 . S
C219 C218 1.489 . S
C219 C220 1.383 . S
C219 C224 1.382 . S
C220 H197 0.950 . S
C220 C219 1.383 . S
C220 C221 1.395 . S
C221 H198 0.950 . S
C221 C220 1.395 . S
C221 C222 1.288 . S
C222 C221 1.288 . S
C222 C223 1.392 . S
C223 H199 0.951 . S
C223 C222 1.392 . S
C223 C224 1.392 . S
C224 H200 0.949 . S
C224 C219 1.382 . S
C224 C223 1.392 . S
C225 C226 1.376 . S
C225 C230 1.386 . S
C225 C231 1.483 . S
C226 H201 0.949 . S
C226 C225 1.376 . S
C226 C227 1.397 . S
C227 H202 0.950 . S
C227 C226 1.397 . S
C227 C228 1.391 . S
C228 C227 1.391 . S
C228 C229 1.405 . S
C229 H203 0.950 . S
C229 C228 1.405 . S
C229 C230 1.367 . S
C230 H204 0.950 . S
C230 C225 1.386 . S
C230 C229 1.367 . S
C231 C225 1.483 . S
C231 C232 1.382 . S
C231 C233 1.403 . S
C232 H205 0.950 . S
C232 C218 1.411 . S
C232 C231 1.382 . S
C233 C217 1.411 . S
C233 C231 1.403 . S
C233 C234 1.489 . S
C234 C233 1.489 . S
C234 C235 1.383 . S
C234 C239 1.382 . S
C235 H206 0.950 . S
C235 C234 1.383 . S
C235 C236 1.395 . S
C236 H207 0.950 . S
C236 C235 1.395 . S
C236 C237 1.288 . S
C237 C236 1.288 . S
C237 C238 1.392 . S
C238 H208 0.951 . S
C238 C237 1.392 . S
C238 C239 1.392 . S
C239 H209 0.949 . S
C239 C234 1.382 . S
C239 C238 1.392 . S
H240 C259 0.949 . S
H241 C260 0.950 . S
H242 C262 0.950 . S
H243 C263 0.950 . S
H244 C265 0.950 . S
H245 C268 0.950 . S
H246 C269 0.950 . S
H247 C271 0.951 . S
H248 C272 0.949 . S
H249 C274 0.949 . S
H250 C275 0.950 . S
H251 C277 0.950 . S
H252 C278 0.950 . S
H253 C280 0.950 . S
H254 C283 0.950 . S
H255 C284 0.950 . S
H256 C286 0.951 . S
H257 C287 0.949 . S
C258 C259 1.376 . S
C258 C263 1.386 . S
C258 C264 1.483 . S
C259 H240 0.949 . S
C259 C258 1.376 . S
C259 C260 1.397 . S
C260 H241 0.950 . S
C260 C259 1.397 . S
C260 C261 1.391 . S
C261 C260 1.391 . S
C261 C262 1.405 . S
C262 H242 0.950 . S
C262 C261 1.405 . S
C262 C263 1.367 . S
C263 H243 0.950 . S
C263 C258 1.386 . S
C263 C262 1.367 . S
C264 C258 1.483 . S
C264 C265 1.382 . S
C264 C266 1.403 . S
C265 H244 0.950 . S
C265 C264 1.382 . S
C265 C281 1.411 . S
C266 C264 1.403 . S
C266 C267 1.489 . S
C266 C280 1.411 . S
C267 C266 1.489 . S
C267 C268 1.383 . S
C267 C272 1.382 . S
C268 H245 0.950 . S
C268 C267 1.383 . S
C268 C269 1.395 . S
C269 H246 0.950 . S
C269 C268 1.395 . S
C269 C270 1.288 . S
C270 C269 1.288 . S
C270 C271 1.392 . S
C271 H247 0.951 . S
C271 C270 1.392 . S
C271 C272 1.392 . S
C272 H248 0.949 . S
C272 C267 1.382 . S
C272 C271 1.392 . S
C273 C274 1.376 . S
C273 C278 1.386 . S
C273 C279 1.483 . S
C274 H249 0.949 . S
C274 C273 1.376 . S
C274 C275 1.397 . S
C275 H250 0.950 . S
C275 C274 1.397 . S
C275 C276 1.391 . S
C276 C275 1.391 . S
C276 C277 1.405 . S
C277 H251 0.950 . S
C277 C276 1.405 . S
C277 C278 1.367 . S
C278 H252 0.950 . S
C278 C273 1.386 . S
C278 C277 1.367 . S
C279 C273 1.483 . S
C279 C280 1.382 . S
C279 C281 1.403 . S
C280 H253 0.950 . S
C280 C266 1.411 . S
C280 C279 1.382 . S
C281 C265 1.411 . S
C281 C279 1.403 . S
C281 C282 1.489 . S
C282 C281 1.489 . S
C282 C283 1.383 . S
C282 C287 1.382 . S
C283 H254 0.950 . S
C283 C282 1.383 . S
C283 C284 1.395 . S
C284 H255 0.950 . S
C284 C283 1.395 . S
C284 C285 1.288 . S
C285 C284 1.288 . S
C285 C286 1.392 . S
C286 H256 0.951 . S
C286 C285 1.392 . S
C286 C287 1.392 . S
C287 H257 0.949 . S
C287 C282 1.382 . S
C287 C286 1.392 . S
H288 C307 0.949 . S
H289 C308 0.950 . S
H290 C310 0.950 . S
H291 C311 0.950 . S
H292 C313 0.950 . S
H293 C316 0.950 . S
H294 C317 0.950 . S
H295 C319 0.951 . S
H296 C320 0.949 . S
H297 C322 0.949 . S
H298 C323 0.950 . S
H299 C325 0.950 . S
H300 C326 0.950 . S
H301 C328 0.950 . S
H302 C331 0.950 . S
H303 C332 0.950 . S
H304 C334 0.951 . S
H305 C335 0.949 . S
C306 C307 1.376 . S
C306 C311 1.386 . S
C306 C312 1.483 . S
C307 H288 0.949 . S
C307 C306 1.376 . S
C307 C308 1.397 . S
C308 H289 0.950 . S
C308 C307 1.397 . S
C308 C309 1.391 . S
C309 C308 1.391 . S
C309 C310 1.405 . S
C310 H290 0.950 . S
C310 C309 1.405 . S
C310 C311 1.367 . S
C311 H291 0.950 . S
C311 C306 1.386 . S
C311 C310 1.367 . S
C312 C306 1.483 . S
C312 C313 1.382 . S
C312 C314 1.403 . S
C313 H292 0.950 . S
C313 C312 1.382 . S
C313 C329 1.411 . S
C314 C312 1.403 . S
C314 C315 1.489 . S
C314 C328 1.411 . S
C315 C314 1.489 . S
C315 C316 1.383 . S
C315 C320 1.382 . S
C316 H293 0.950 . S
C316 C315 1.383 . S
C316 C317 1.395 . S
C317 H294 0.950 . S
C317 C316 1.395 . S
C317 C318 1.288 . S
C318 C317 1.288 . S
C318 C319 1.392 . S
C319 H295 0.951 . S
C319 C318 1.392 . S
C319 C320 1.392 . S
C320 H296 0.949 . S
C320 C315 1.382 . S
C320 C319 1.392 . S
C321 C322 1.376 . S
C321 C326 1.386 . S
C321 C327 1.483 . S
C322 H297 0.949 . S
C322 C321 1.376 . S
C322 C323 1.397 . S
C323 H298 0.950 . S
C323 C322 1.397 . S
C323 C324 1.391 . S
C324 C323 1.391 . S
C324 C325 1.405 . S
C325 H299 0.950 . S
C325 C324 1.405 . S
C325 C326 1.367 . S
C326 H300 0.950 . S
C326 C321 1.386 . S
C326 C325 1.367 . S
C327 C321 1.483 . S
C327 C328 1.382 . S
C327 C329 1.403 . S
C328 H301 0.950 . S
C328 C314 1.411 . S
C328 C327 1.382 . S
C329 C313 1.411 . S
C329 C327 1.403 . S
C329 C330 1.489 . S
C330 C329 1.489 . S
C330 C331 1.383 . S
C330 C335 1.382 . S
C331 H302 0.950 . S
C331 C330 1.383 . S
C331 C332 1.395 . S
C332 H303 0.950 . S
C332 C331 1.395 . S
C332 C333 1.288 . S
C333 C332 1.288 . S
C333 C334 1.392 . S
C334 H304 0.951 . S
C334 C333 1.392 . S
C334 C335 1.392 . S
C335 H305 0.949 . S
C335 C330 1.382 . S
C335 C334 1.392 . S
H336 C355 0.949 . S
H337 C356 0.950 . S
H338 C358 0.950 . S
H339 C359 0.950 . S
H340 C361 0.950 . S
H341 C364 0.950 . S
H342 C365 0.950 . S
H343 C367 0.951 . S
H344 C368 0.949 . S
H345 C370 0.949 . S
H346 C371 0.950 . S
H347 C373 0.950 . S
H348 C374 0.950 . S
H349 C376 0.950 . S
H350 C379 0.950 . S
H351 C380 0.950 . S
H352 C382 0.951 . S
H353 C383 0.949 . S
C354 C355 1.376 . S
C354 C359 1.386 . S
C354 C360 1.483 . S
C355 H336 0.949 . S
C355 C354 1.376 . S
C355 C356 1.397 . S
C356 H337 0.950 . S
C356 C355 1.397 . S
C356 C357 1.391 . S
C357 C356 1.391 . S
C357 C358 1.405 . S
C358 H338 0.950 . S
C358 C357 1.405 . S
C358 C359 1.367 . S
C359 H339 0.950 . S
C359 C354 1.386 . S
C359 C358 1.367 . S
C360 C354 1.483 . S
C360 C361 1.382 . S
C360 C362 1.403 . S
C361 H340 0.950 . S
C361 C360 1.382 . S
C361 C377 1.411 . S
C362 C360 1.403 . S
C362 C363 1.489 . S
C362 C376 1.411 . S
C363 C362 1.489 . S
C363 C364 1.383 . S
C363 C368 1.382 . S
C364 H341 0.950 . S
C364 C363 1.383 . S
C364 C365 1.395 . S
C365 H342 0.950 . S
C365 C364 1.395 . S
C365 C366 1.288 . S
C366 C365 1.288 . S
C366 C367 1.392 . S
C367 H343 0.951 . S
C367 C366 1.392 . S
C367 C368 1.392 . S
C368 H344 0.949 . S
C368 C363 1.382 . S
C368 C367 1.392 . S
C369 C370 1.376 . S
C369 C374 1.386 . S
C369 C375 1.483 . S
C370 H345 0.949 . S
C370 C369 1.376 . S
C370 C371 1.397 . S
C371 H346 0.950 . S
C371 C370 1.397 . S
C371 C372 1.391 . S
C372 C371 1.391 . S
C372 C373 1.405 . S
C373 H347 0.950 . S
C373 C372 1.405 . S
C373 C374 1.367 . S
C374 H348 0.950 . S
C374 C369 1.386 . S
C374 C373 1.367 . S
C375 C369 1.483 . S
C375 C376 1.382 . S
C375 C377 1.403 . S
C376 H349 0.950 . S
C376 C362 1.411 . S
C376 C375 1.382 . S
C377 C361 1.411 . S
C377 C375 1.403 . S
C377 C378 1.489 . S
C378 C377 1.489 . S
C378 C379 1.383 . S
C378 C383 1.382 . S
C379 H350 0.950 . S
C379 C378 1.383 . S
C379 C380 1.395 . S
C380 H351 0.950 . S
C380 C379 1.395 . S
C380 C381 1.288 . S
C381 C380 1.288 . S
C381 C382 1.392 . S
C382 H352 0.951 . S
C382 C381 1.392 . S
C382 C383 1.392 . S
C383 H353 0.949 . S
C383 C378 1.382 . S
C383 C382 1.392 . S
C384 C385 1.443 . S
C384 N388 1.376 . S
C384 C422 1.389 . S
C385 C384 1.443 . S
C385 C386 1.340 . S
C385 H425 0.951 . S
C386 C385 1.340 . S
C386 C387 1.439 . S
C386 H426 0.950 . S
C387 C386 1.439 . S
C387 N388 1.374 . S
C387 C421 1.395 . S
N388 C384 1.376 . S
N388 C387 1.374 . S
N388 Co389 2.008 . S
Co389 N388 2.008 . S
Co389 N390 1.995 1_455 S
Co389 N395 2.008 1_455 S
Co389 N400 1.995 . S
Co389 N405 2.282 1_455 S
Co389 N411 2.282 . S
N390 Co389 1.995 1_655 S
N390 C391 1.376 . S
N390 C394 1.383 . S
C391 N390 1.376 . S
C391 C392 1.446 . S
C391 C421 1.391 1_655 S
C392 C391 1.446 . S
C392 C393 1.339 . S
C392 H427 0.949 . S
C393 C392 1.339 . S
C393 C394 1.439 . S
C393 H428 0.950 . S
C394 N390 1.383 . S
C394 C393 1.439 . S
C394 C423 1.392 . S
N395 Co389 2.008 1_655 S
N395 C396 1.376 . S
N395 C399 1.374 . S
C396 N395 1.376 . S
C396 C397 1.443 . S
C396 C423 1.389 . S
C397 C396 1.443 . S
C397 C398 1.340 . S
C397 H429 0.951 . S
C398 C397 1.340 . S
C398 C399 1.439 . S
C398 H430 0.950 . S
C399 N395 1.374 . S
C399 C398 1.439 . S
C399 C424 1.406 . S
N400 Co389 1.995 . S
N400 C401 1.376 . S
N400 C404 1.383 . S
C401 N400 1.376 . S
C401 C402 1.446 . S
C401 C424 1.379 1_455 S
C402 C401 1.446 . S
C402 C403 1.339 . S
C402 H431 0.949 . S
C403 C402 1.339 . S
C403 C404 1.439 . S
C403 H432 0.950 . S
C404 N400 1.383 . S
C404 C403 1.439 . S
C404 C422 1.392 . S
N405 Co389 2.282 1_655 S
N405 C408 1.332 . S
N405 C410 1.332 . S
C406 C407 1.386 . S
C406 C409 1.388 . S
C407 C406 1.386 . S
C407 C408 1.382 . S
C407 H433 0.950 . S
C408 N405 1.332 . S
C408 C407 1.382 . S
C408 H419 0.952 . S
C409 C406 1.388 . S
C409 C410 1.382 . S
C409 H434 0.950 . S
C410 N405 1.332 . S
C410 C409 1.382 . S
C410 H420 0.948 . S
N411 Co389 2.282 . S
N411 C415 1.332 . S
N411 C416 1.332 . S
C412 C413 1.388 . S
C412 C416 1.382 . S
C412 H435 0.950 . S
C413 C412 1.388 . S
C413 C414 1.386 . S
C414 C413 1.386 . S
C414 C415 1.382 . S
C414 H436 0.950 . S
C415 N411 1.332 . S
C415 C414 1.382 . S
C415 H417 0.952 . S
C416 N411 1.332 . S
C416 C412 1.382 . S
C416 H418 0.948 . S
H417 C415 0.952 . S
H418 C416 0.948 . S
H419 C408 0.952 . S
H420 C410 0.948 . S
C421 C387 1.395 . S
C421 C391 1.391 1_455 S
C422 C384 1.389 . S
C422 C404 1.392 . S
C423 C394 1.392 . S
C423 C396 1.389 . S
C424 C399 1.406 . S
C424 C401 1.379 1_655 S
H425 C385 0.951 . S
H426 C386 0.950 . S
H427 C392 0.949 . S
H428 C393 0.950 . S
H429 C397 0.951 . S
H430 C398 0.950 . S
H431 C402 0.949 . S
H432 C403 0.950 . S
H433 C407 0.950 . S
H434 C409 0.950 . S
H435 C412 0.950 . S
H436 C414 0.950 . S
C437 C438 1.443 . S
C437 N441 1.376 . S
C437 C475 1.389 . S
C438 C437 1.443 . S
C438 C439 1.340 . S
C438 H478 0.951 . S
C439 C438 1.340 . S
C439 C440 1.439 . S
C439 H479 0.950 . S
C440 C439 1.439 . S
C440 N441 1.374 . S
C440 C474 1.395 . S
N441 C437 1.376 . S
N441 C440 1.374 . S
N441 Co442 2.008 . S
Co442 N441 2.008 . S
Co442 N443 1.995 1_545 S
Co442 N448 2.008 1_545 S
Co442 N453 1.995 . S
Co442 N458 2.282 1_545 S
Co442 N464 2.282 . S
N443 Co442 1.995 1_565 S
N443 C444 1.376 . S
N443 C447 1.383 . S
C444 N443 1.376 . S
C444 C445 1.446 . S
C444 C474 1.391 1_565 S
C445 C444 1.446 . S
C445 C446 1.339 . S
C445 H480 0.949 . S
C446 C445 1.339 . S
C446 C447 1.439 . S
C446 H481 0.950 . S
C447 N443 1.383 . S
C447 C446 1.439 . S
C447 C476 1.392 . S
N448 Co442 2.008 1_565 S
N448 C449 1.376 . S
N448 C452 1.374 . S
C449 N448 1.376 . S
C449 C450 1.443 . S
C449 C476 1.389 . S
C450 C449 1.443 . S
C450 C451 1.340 . S
C450 H482 0.951 . S
C451 C450 1.340 . S
C451 C452 1.439 . S
C451 H483 0.950 . S
C452 N448 1.374 . S
C452 C451 1.439 . S
C452 C477 1.397 1_565 S
N453 Co442 1.995 . S
N453 C454 1.376 . S
N453 C457 1.383 . S
C454 N453 1.376 . S
C454 C455 1.446 . S
C454 C477 1.389 . S
C455 C454 1.446 . S
C455 C456 1.339 . S
C455 H484 0.949 . S
C456 C455 1.339 . S
C456 C457 1.439 . S
C456 H485 0.950 . S
C457 N453 1.383 . S
C457 C456 1.439 . S
C457 C475 1.392 . S
N458 Co442 2.282 1_565 S
N458 C461 1.332 . S
N458 C463 1.332 . S
C459 C460 1.386 . S
C459 C462 1.388 . S
C460 C459 1.386 . S
C460 C461 1.382 . S
C460 H486 0.950 . S
C461 N458 1.332 . S
C461 C460 1.382 . S
C461 H472 0.952 . S
C462 C459 1.388 . S
C462 C463 1.382 . S
C462 H487 0.950 . S
C463 N458 1.332 . S
C463 C462 1.382 . S
C463 H473 0.948 . S
N464 Co442 2.282 . S
N464 C468 1.332 . S
N464 C469 1.332 . S
C465 C466 1.388 . S
C465 C469 1.382 . S
C465 H488 0.950 . S
C466 C465 1.388 . S
C466 C467 1.386 . S
C467 C466 1.386 . S
C467 C468 1.382 . S
C467 H489 0.950 . S
C468 N464 1.332 . S
C468 C467 1.382 . S
C468 H470 0.952 . S
C469 N464 1.332 . S
C469 C465 1.382 . S
C469 H471 0.948 . S
H470 C468 0.952 . S
H471 C469 0.948 . S
H472 C461 0.952 . S
H473 C463 0.948 . S
C474 C440 1.395 . S
C474 C444 1.391 1_545 S
C475 C437 1.389 . S
C475 C457 1.392 . S
C476 C447 1.392 . S
C476 C449 1.389 . S
C477 C452 1.397 1_545 S
C477 C454 1.389 . S
H478 C438 0.951 . S
H479 C439 0.950 . S
H480 C445 0.949 . S
H481 C446 0.950 . S
H482 C450 0.951 . S
H483 C451 0.950 . S
H484 C455 0.949 . S
H485 C456 0.950 . S
H486 C460 0.950 . S
H487 C462 0.950 . S
H488 C465 0.950 . S
H489 C467 0.950 . S
C490 C491 1.443 . S
C490 N494 1.376 . S
C490 C528 1.389 . S
C491 C490 1.443 . S
C491 C492 1.340 . S
C491 H531 0.951 . S
C492 C491 1.340 . S
C492 C493 1.439 . S
C492 H532 0.950 . S
C493 C492 1.439 . S
C493 N494 1.374 . S
C493 C527 1.395 . S
N494 C490 1.376 . S
N494 C493 1.374 . S
N494 Co495 2.008 . S
Co495 N494 2.008 . S
Co495 N496 1.995 1_455 S
Co495 N501 2.008 1_455 S
Co495 N506 1.995 . S
Co495 N511 2.282 1_455 S
Co495 N517 2.282 . S
N496 Co495 1.995 1_655 S
N496 C497 1.376 . S
N496 C500 1.383 . S
C497 N496 1.376 . S
C497 C498 1.446 . S
C497 C527 1.391 1_655 S
C498 C497 1.446 . S
C498 C499 1.339 . S
C498 H533 0.949 . S
C499 C498 1.339 . S
C499 C500 1.439 . S
C499 H534 0.950 . S
C500 N496 1.383 . S
C500 C499 1.439 . S
C500 C529 1.392 . S
N501 Co495 2.008 1_655 S
N501 C502 1.376 . S
N501 C505 1.374 . S
C502 N501 1.376 . S
C502 C503 1.443 . S
C502 C529 1.389 . S
C503 C502 1.443 . S
C503 C504 1.340 . S
C503 H535 0.951 . S
C504 C503 1.340 . S
C504 C505 1.439 . S
C504 H536 0.950 . S
C505 N501 1.374 . S
C505 C504 1.439 . S
C505 C530 1.395 . S
N506 Co495 1.995 . S
N506 C507 1.376 . S
N506 C510 1.383 . S
C507 N506 1.376 . S
C507 C508 1.446 . S
C507 C530 1.391 1_455 S
C508 C507 1.446 . S
C508 C509 1.339 . S
C508 H537 0.949 . S
C509 C508 1.339 . S
C509 C510 1.439 . S
C509 H538 0.950 . S
C510 N506 1.383 . S
C510 C509 1.439 . S
C510 C528 1.392 . S
N511 Co495 2.282 1_655 S
N511 C514 1.332 . S
N511 C516 1.332 . S
C512 C513 1.386 . S
C512 C515 1.388 . S
C513 C512 1.386 . S
C513 C514 1.382 . S
C513 H539 0.950 . S
C514 N511 1.332 . S
C514 C513 1.382 . S
C514 H525 0.952 . S
C515 C512 1.388 . S
C515 C516 1.382 . S
C515 H540 0.950 . S
C516 N511 1.332 . S
C516 C515 1.382 . S
C516 H526 0.948 . S
N517 Co495 2.282 . S
N517 C521 1.332 . S
N517 C522 1.332 . S
C518 C519 1.388 . S
C518 C522 1.382 . S
C518 H541 0.950 . S
C519 C518 1.388 . S
C519 C520 1.386 . S
C520 C519 1.386 . S
C520 C521 1.382 . S
C520 H542 0.950 . S
C521 N517 1.332 . S
C521 C520 1.382 . S
C521 H523 0.952 . S
C522 N517 1.332 . S
C522 C518 1.382 . S
C522 H524 0.948 . S
H523 C521 0.952 . S
H524 C522 0.948 . S
H525 C514 0.952 . S
H526 C516 0.948 . S
C527 C493 1.395 . S
C527 C497 1.391 1_455 S
C528 C490 1.389 . S
C528 C510 1.392 . S
C529 C500 1.392 . S
C529 C502 1.389 . S
C530 C505 1.395 . S
C530 C507 1.391 1_655 S
H531 C491 0.951 . S
H532 C492 0.950 . S
H533 C498 0.949 . S
H534 C499 0.950 . S
H535 C503 0.951 . S
H536 C504 0.950 . S
H537 C508 0.949 . S
H538 C509 0.950 . S
H539 C513 0.950 . S
H540 C515 0.950 . S
H541 C518 0.950 . S
H542 C520 0.950 . S
C543 C544 1.443 . S
C543 N547 1.376 . S
C543 C581 1.389 . S
C544 C543 1.443 . S
C544 C545 1.340 . S
C544 H584 0.951 . S
C545 C544 1.340 . S
C545 C546 1.439 . S
C545 H585 0.950 . S
C546 C545 1.439 . S
C546 N547 1.374 . S
C546 C580 1.415 . S
N547 C543 1.376 . S
N547 C546 1.374 . S
N547 Co548 2.008 1_565 S
Co548 N547 2.008 1_545 S
Co548 N549 1.995 . S
Co548 N554 2.008 . S
Co548 N559 1.995 1_545 S
Co548 N564 2.282 . S
Co548 N570 2.282 1_545 S
N549 Co548 1.995 . S
N549 C550 1.376 . S
N549 C553 1.383 . S
C550 N549 1.376 . S
C550 C551 1.446 . S
C550 C580 1.370 1_545 S
C551 C550 1.446 . S
C551 C552 1.339 . S
C551 H586 0.949 . S
C552 C551 1.339 . S
C552 C553 1.439 . S
C552 H587 0.950 . S
C553 N549 1.383 . S
C553 C552 1.439 . S
C553 C582 1.392 . S
N554 Co548 2.008 . S
N554 C555 1.376 . S
N554 C558 1.374 . S
C555 N554 1.376 . S
C555 C556 1.443 . S
C555 C582 1.389 . S
C556 C555 1.443 . S
C556 C557 1.340 . S
C556 H588 0.951 . S
C557 C556 1.340 . S
C557 C558 1.439 . S
C557 H589 0.950 . S
C558 N554 1.374 . S
C558 C557 1.439 . S
C558 C583 1.395 . S
N559 Co548 1.995 1_565 S
N559 C560 1.376 . S
N559 C563 1.383 . S
C560 N559 1.376 . S
C560 C561 1.446 . S
C560 C583 1.391 1_565 S
C561 C560 1.446 . S
C561 C562 1.339 . S
C561 H590 0.949 . S
C562 C561 1.339 . S
C562 C563 1.439 . S
C562 H591 0.950 . S
C563 N559 1.383 . S
C563 C562 1.439 . S
C563 C581 1.392 . S
N564 Co548 2.282 . S
N564 C567 1.332 . S
N564 C569 1.332 . S
C565 C566 1.386 . S
C565 C568 1.388 . S
C566 C565 1.386 . S
C566 C567 1.382 . S
C566 H592 0.950 . S
C567 N564 1.332 . S
C567 C566 1.382 . S
C567 H578 0.952 . S
C568 C565 1.388 . S
C568 C569 1.382 . S
C568 H593 0.950 . S
C569 N564 1.332 . S
C569 C568 1.382 . S
C569 H579 0.948 . S
N570 Co548 2.282 1_565 S
N570 C574 1.332 . S
N570 C575 1.332 . S
C571 C572 1.388 . S
C571 C575 1.382 . S
C571 H594 0.950 . S
C572 C571 1.388 . S
C572 C573 1.386 . S
C573 C572 1.386 . S
C573 C574 1.382 . S
C573 H595 0.950 . S
C574 N570 1.332 . S
C574 C573 1.382 . S
C574 H576 0.952 . S
C575 N570 1.332 . S
C575 C571 1.382 . S
C575 H577 0.948 . S
H576 C574 0.952 . S
H577 C575 0.948 . S
H578 C567 0.952 . S
H579 C569 0.948 . S
C580 C546 1.415 . S
C580 C550 1.370 1_565 S
C581 C543 1.389 . S
C581 C563 1.392 . S
C582 C553 1.392 . S
C582 C555 1.389 . S
C583 C558 1.395 . S
C583 C560 1.391 1_545 S
H584 C544 0.951 . S
H585 C545 0.950 . S
H586 C551 0.949 . S
H587 C552 0.950 . S
H588 C556 0.951 . S
H589 C557 0.950 . S
H590 C561 0.949 . S
H591 C562 0.950 . S
H592 C566 0.950 . S
H593 C568 0.950 . S
H594 C571 0.950 . S
H595 C573 0.950 . S
C596 C597 1.443 . S
C596 N600 1.376 . S
C596 C634 1.389 . S
C597 C596 1.443 . S
C597 C598 1.340 . S
C597 H637 0.951 . S
C598 C597 1.340 . S
C598 C599 1.439 . S
C598 H638 0.950 . S
C599 C598 1.439 . S
C599 N600 1.374 . S
C599 C633 1.378 1_554 S
N600 C596 1.376 . S
N600 C599 1.374 . S
N600 Co601 2.011 . S
Co601 N600 2.011 . S
Co601 N602 1.991 1_554 S
Co601 N607 2.005 1_554 S
Co601 N612 1.999 . S
Co601 N617 2.288 . S
Co601 N623 2.277 1_554 S
N602 Co601 1.991 1_556 S
N602 C603 1.376 . S
N602 C606 1.383 . S
C603 N602 1.376 . S
C603 C604 1.446 . S
C603 C633 1.407 . S
C604 C603 1.446 . S
C604 C605 1.339 . S
C604 H639 0.949 . S
C605 C604 1.339 . S
C605 C606 1.439 . S
C605 H640 0.950 . S
C606 N602 1.383 . S
C606 C605 1.439 . S
C606 C635 1.392 . S
N607 Co601 2.005 1_556 S
N607 C608 1.376 . S
N607 C611 1.374 . S
C608 N607 1.376 . S
C608 C609 1.443 . S
C608 C635 1.389 . S
C609 C608 1.443 . S
C609 C610 1.340 . S
C609 H641 0.951 . S
C610 C609 1.340 . S
C610 C611 1.439 . S
C610 H642 0.950 . S
C611 N607 1.374 . S
C611 C610 1.439 . S
C611 C636 1.395 1_556 S
N612 Co601 1.999 . S
N612 C613 1.376 . S
N612 C616 1.383 . S
C613 N612 1.376 . S
C613 C614 1.446 . S
C613 C636 1.391 . S
C614 C613 1.446 . S
C614 C615 1.339 . S
C614 H643 0.949 . S
C615 C614 1.339 . S
C615 C616 1.439 . S
C615 H644 0.950 . S
C616 N612 1.383 . S
C616 C615 1.439 . S
C616 C634 1.392 . S
N617 Co601 2.288 . S
N617 C620 1.332 . S
N617 C622 1.332 . S
C618 C619 1.386 . S
C618 C621 1.388 . S
C619 C618 1.386 . S
C619 C620 1.382 . S
C619 H645 0.950 . S
C620 N617 1.332 . S
C620 C619 1.382 . S
C620 H631 0.952 . S
C621 C618 1.388 . S
C621 C622 1.382 . S
C621 H646 0.950 . S
C622 N617 1.332 . S
C622 C621 1.382 . S
C622 H632 0.948 . S
N623 Co601 2.277 1_556 S
N623 C627 1.332 . S
N623 C628 1.332 . S
C624 C625 1.388 . S
C624 C628 1.382 . S
C624 H647 0.950 . S
C625 C624 1.388 . S
C625 C626 1.386 . S
C626 C625 1.386 . S
C626 C627 1.382 . S
C626 H648 0.950 . S
C627 N623 1.332 . S
C627 C626 1.382 . S
C627 H629 0.952 . S
C628 N623 1.332 . S
C628 C624 1.382 . S
C628 H630 0.948 . S
H629 C627 0.952 . S
H630 C628 0.948 . S
H631 C620 0.952 . S
H632 C622 0.948 . S
C633 C599 1.378 1_556 S
C633 C603 1.407 . S
C634 C596 1.389 . S
C634 C616 1.392 . S
C635 C606 1.392 . S
C635 C608 1.389 . S
C636 C611 1.395 1_554 S
C636 C613 1.391 . S
H637 C597 0.951 . S
H638 C598 0.950 . S
H639 C604 0.949 . S
H640 C605 0.950 . S
H641 C609 0.951 . S
H642 C610 0.950 . S
H643 C614 0.949 . S
H644 C615 0.950 . S
H645 C619 0.950 . S
H646 C621 0.950 . S
H647 C624 0.950 . S
H648 C626 0.950 . S
C649 C650 1.443 . S
C649 N653 1.376 . S
C649 C687 1.389 . S
C650 C649 1.443 . S
C650 C651 1.340 . S
C650 H690 0.951 . S
C651 C650 1.340 . S
C651 C652 1.439 . S
C651 H691 0.950 . S
C652 C651 1.439 . S
C652 N653 1.374 . S
C652 C686 1.395 . S
N653 C649 1.376 . S
N653 C652 1.374 . S
N653 Co654 2.008 . S
Co654 N653 2.008 . S
Co654 N655 1.995 1_554 S
Co654 N660 2.008 . S
Co654 N665 1.995 . S
Co654 N670 2.282 . S
Co654 N676 2.282 1_554 S
N655 Co654 1.995 1_556 S
N655 C656 1.376 . S
N655 C659 1.383 . S
C656 N655 1.376 . S
C656 C657 1.446 . S
C656 C686 1.391 1_556 S
C657 C656 1.446 . S
C657 C658 1.339 . S
C657 H692 0.949 . S
C658 C657 1.339 . S
C658 C659 1.439 . S
C658 H693 0.950 . S
C659 N655 1.383 . S
C659 C658 1.439 . S
C659 C688 1.392 . S
N660 Co654 2.008 . S
N660 C661 1.376 1_554 S
N660 C664 1.374 . S
C661 N660 1.376 1_556 S
C661 C662 1.443 . S
C661 C688 1.389 . S
C662 C661 1.443 . S
C662 C663 1.340 . S
C662 H694 0.951 . S
C663 C662 1.340 . S
C663 C664 1.439 1_556 S
C663 H695 0.950 . S
C664 N660 1.374 . S
C664 C663 1.439 1_554 S
C664 C689 1.395 . S
N665 Co654 1.995 . S
N665 C666 1.376 . S
N665 C669 1.383 . S
C666 N665 1.376 . S
C666 C667 1.446 . S
C666 C689 1.391 . S
C667 C666 1.446 . S
C667 C668 1.339 . S
C667 H696 0.949 . S
C668 C667 1.339 . S
C668 C669 1.439 . S
C668 H697 0.950 . S
C669 N665 1.383 . S
C669 C668 1.439 . S
C669 C687 1.392 . S
N670 Co654 2.282 . S
N670 C673 1.332 . S
N670 C675 1.332 . S
C671 C672 1.386 . S
C671 C674 1.388 . S
C672 C671 1.386 . S
C672 C673 1.382 . S
C672 H698 0.950 . S
C673 N670 1.332 . S
C673 C672 1.382 . S
C673 H684 0.952 . S
C674 C671 1.388 . S
C674 C675 1.382 . S
C674 H699 0.950 . S
C675 N670 1.332 . S
C675 C674 1.382 . S
C675 H685 0.948 . S
N676 Co654 2.282 1_556 S
N676 C680 1.332 . S
N676 C681 1.332 . S
C677 C678 1.388 . S
C677 C681 1.382 . S
C677 H700 0.950 . S
C678 C677 1.388 . S
C678 C679 1.386 . S
C679 C678 1.386 . S
C679 C680 1.382 . S
C679 H701 0.950 . S
C680 N676 1.332 . S
C680 C679 1.382 . S
C680 H682 0.952 . S
C681 N676 1.332 . S
C681 C677 1.382 . S
C681 H683 0.948 . S
H682 C680 0.952 . S
H683 C681 0.948 . S
H684 C673 0.952 . S
H685 C675 0.948 . S
C686 C652 1.395 . S
C686 C656 1.391 1_554 S
C687 C649 1.389 . S
C687 C669 1.392 . S
C688 C659 1.392 . S
C688 C661 1.389 . S
C689 C664 1.395 . S
C689 C666 1.391 . S
H690 C650 0.951 . S
H691 C651 0.950 . S
H692 C657 0.949 . S
H693 C658 0.950 . S
H694 C662 0.951 . S
H695 C663 0.950 . S
H696 C667 0.949 . S
H697 C668 0.950 . S
H698 C672 0.950 . S
H699 C674 0.950 . S
H700 C677 0.950 . S
H701 C679 0.950 . S
C702 C703 1.443 . S
C702 N706 1.376 1_556 S
C702 C740 1.389 . S
C703 C702 1.443 . S
C703 C704 1.340 1_556 S
C703 H743 0.951 . S
C704 C703 1.340 1_554 S
C704 C705 1.439 . S
C704 H744 0.950 . S
C705 C704 1.439 . S
C705 N706 1.374 . S
C705 C739 1.395 . S
N706 C702 1.376 1_554 S
N706 C705 1.374 . S
N706 Co707 2.008 . S
Co707 N706 2.008 . S
Co707 N708 1.995 . S
Co707 N713 2.008 . S
Co707 N718 1.996 . S
Co707 N723 2.282 1_554 S
Co707 N729 2.282 . S
N708 Co707 1.995 . S
N708 C709 1.376 . S
N708 C712 1.383 . S
C709 N708 1.376 . S
C709 C710 1.446 . S
C709 C739 1.391 . S
C710 C709 1.446 . S
C710 C711 1.339 . S
C710 H745 0.949 . S
C711 C710 1.339 . S
C711 C712 1.439 . S
C711 H746 0.950 . S
C712 N708 1.383 . S
C712 C711 1.439 . S
C712 C741 1.392 . S
N713 Co707 2.008 . S
N713 C714 1.376 . S
N713 C717 1.374 . S
C714 N713 1.376 . S
C714 C715 1.443 . S
C714 C741 1.389 . S
C715 C714 1.443 . S
C715 C716 1.340 . S
C715 H747 0.951 . S
C716 C715 1.340 . S
C716 C717 1.439 . S
C716 H748 0.950 . S
C717 N713 1.374 . S
C717 C716 1.439 . S
C717 C742 1.395 . S
N718 Co707 1.996 . S
N718 C719 1.376 1_554 S
N718 C722 1.382 1_554 S
C719 N718 1.376 1_556 S
C719 C720 1.446 . S
C719 C742 1.391 1_556 S
C720 C719 1.446 . S
C720 C721 1.339 . S
C720 H749 0.949 . S
C721 C720 1.339 . S
C721 C722 1.439 . S
C721 H750 0.950 . S
C722 N718 1.382 1_556 S
C722 C721 1.439 . S
C722 C740 1.392 . S
N723 Co707 2.282 1_556 S
N723 C726 1.332 . S
N723 C728 1.332 . S
C724 C725 1.386 . S
C724 C727 1.388 . S
C725 C724 1.386 . S
C725 C726 1.382 . S
C725 H751 0.950 . S
C726 N723 1.332 . S
C726 C725 1.382 . S
C726 H737 0.952 . S
C727 C724 1.388 . S
C727 C728 1.382 . S
C727 H752 0.950 . S
C728 N723 1.332 . S
C728 C727 1.382 . S
C728 H738 0.959 . S
N729 Co707 2.282 . S
N729 C733 1.332 . S
N729 C734 1.332 . S
C730 C731 1.388 . S
C730 C734 1.382 . S
C730 H753 0.950 . S
C731 C730 1.388 . S
C731 C732 1.386 . S
C732 C731 1.386 . S
C732 C733 1.382 . S
C732 H754 0.950 . S
C733 N729 1.332 . S
C733 C732 1.382 . S
C733 H735 0.952 . S
C734 N729 1.332 . S
C734 C730 1.382 . S
C734 H736 0.948 . S
H735 C733 0.952 . S
H736 C734 0.948 . S
H737 C726 0.952 . S
H738 C728 0.959 . S
C739 C705 1.395 . S
C739 C709 1.391 . S
C740 C702 1.389 . S
C740 C722 1.392 . S
C741 C712 1.392 . S
C741 C714 1.389 . S
C742 C717 1.395 . S
C742 C719 1.391 1_554 S
H743 C703 0.951 . S
H744 C704 0.950 . S
H745 C710 0.949 . S
H746 C711 0.950 . S
H747 C715 0.951 . S
H748 C716 0.950 . S
H749 C720 0.949 . S
H750 C721 0.950 . S
H751 C725 0.950 . S
H752 C727 0.950 . S
H753 C730 0.950 . S
H754 C732 0.950 . S
C755 C756 1.443 . S
C755 N759 1.376 . S
C755 C793 1.389 . S
C756 C755 1.443 . S
C756 C757 1.340 . S
C756 H796 0.951 . S
C757 C756 1.340 . S
C757 C758 1.439 . S
C757 H797 0.950 . S
C758 C757 1.439 . S
C758 N759 1.374 . S
C758 C792 1.395 1_554 S
N759 C755 1.376 . S
N759 C758 1.374 . S
N759 Co760 2.008 . S
Co760 N759 2.008 . S
Co760 N761 1.995 1_554 S
Co760 N766 2.008 1_554 S
Co760 N771 1.995 . S
Co760 N776 2.282 . S
Co760 N782 2.282 1_554 S
N761 Co760 1.995 1_556 S
N761 C762 1.376 . S
N761 C765 1.383 . S
C762 N761 1.376 . S
C762 C763 1.446 . S
C762 C792 1.391 . S
C763 C762 1.446 . S
C763 C764 1.339 . S
C763 H798 0.949 . S
C764 C763 1.339 . S
C764 C765 1.439 . S
C764 H799 0.950 . S
C765 N761 1.383 . S
C765 C764 1.439 . S
C765 C794 1.392 . S
N766 Co760 2.008 1_556 S
N766 C767 1.376 . S
N766 C770 1.374 1_556 S
C767 N766 1.376 . S
C767 C768 1.443 . S
C767 C794 1.389 . S
C768 C767 1.443 . S
C768 C769 1.340 . S
C768 H800 0.951 . S
C769 C768 1.340 . S
C769 C770 1.439 1_556 S
C769 H801 0.950 . S
C770 N766 1.374 1_554 S
C770 C769 1.439 1_554 S
C770 C795 1.395 . S
N771 Co760 1.995 . S
N771 C772 1.376 . S
N771 C775 1.383 . S
C772 N771 1.376 . S
C772 C773 1.446 . S
C772 C795 1.391 . S
C773 C772 1.446 . S
C773 C774 1.339 . S
C773 H802 0.949 . S
C774 C773 1.339 . S
C774 C775 1.439 . S
C774 H803 0.950 . S
C775 N771 1.383 . S
C775 C774 1.439 . S
C775 C793 1.392 . S
N776 Co760 2.282 . S
N776 C779 1.332 . S
N776 C781 1.332 . S
C777 C778 1.386 . S
C777 C780 1.388 . S
C778 C777 1.386 . S
C778 C779 1.382 . S
C778 H804 0.950 . S
C779 N776 1.332 . S
C779 C778 1.382 . S
C779 H790 0.952 . S
C780 C777 1.388 . S
C780 C781 1.382 . S
C780 H805 0.950 . S
C781 N776 1.332 . S
C781 C780 1.382 . S
C781 H791 0.948 . S
N782 Co760 2.282 1_556 S
N782 C786 1.332 . S
N782 C787 1.332 . S
C783 C784 1.388 . S
C783 C787 1.382 . S
C783 H806 0.950 . S
C784 C783 1.388 . S
C784 C785 1.386 . S
C785 C784 1.386 . S
C785 C786 1.382 . S
C785 H807 0.950 . S
C786 N782 1.332 . S
C786 C785 1.382 . S
C786 H788 0.952 . S
C787 N782 1.332 . S
C787 C783 1.382 . S
C787 H789 0.948 . S
H788 C786 0.952 . S
H789 C787 0.948 . S
H790 C779 0.952 . S
H791 C781 0.948 . S
C792 C758 1.395 1_556 S
C792 C762 1.391 . S
C793 C755 1.389 . S
C793 C775 1.392 . S
C794 C765 1.392 . S
C794 C767 1.389 . S
C795 C770 1.395 . S
C795 C772 1.391 . S
H796 C756 0.951 . S
H797 C757 0.950 . S
H798 C763 0.949 . S
H799 C764 0.950 . S
H800 C768 0.951 . S
H801 C769 0.950 . S
H802 C773 0.949 . S
H803 C774 0.950 . S
H804 C778 0.950 . S
H805 C780 0.950 . S
H806 C783 0.950 . S
H807 C785 0.950 . S
H808 C814 0.930 . S
H809 C817 0.930 . S
H810 C818 0.930 . S
H811 C819 0.930 . S
H812 C822 0.930 . S
H813 C823 0.930 . S
C814 H808 0.930 . S
C814 C815 1.355 . S
C814 C816 1.415 . S
C815 C814 1.355 . S
C815 C817 1.419 . S
C816 C814 1.415 . S
C816 C821 1.425 . S
C816 C823 1.409 . S
C817 H809 0.930 . S
C817 C815 1.419 . S
C817 C818 1.362 . S
C818 H810 0.930 . S
C818 C817 1.362 . S
C818 C821 1.409 . S
C819 H811 0.930 . S
C819 C820 1.355 . S
C819 C821 1.415 . S
C820 C819 1.355 . S
C820 C822 1.419 . S
C821 C816 1.425 . S
C821 C818 1.409 . S
C821 C819 1.415 . S
C822 H812 0.930 . S
C822 C820 1.419 . S
C822 C823 1.362 . S
C823 H813 0.930 . S
C823 C816 1.409 . S
C823 C822 1.362 . S
H824 C830 0.930 . S
H825 C833 0.930 . S
H826 C834 0.930 . S
H827 C835 0.930 . S
H828 C838 0.930 . S
H829 C839 0.930 . S
C830 H824 0.930 . S
C830 C831 1.355 . S
C830 C832 1.415 . S
C831 C830 1.355 . S
C831 C833 1.419 . S
C832 C830 1.415 . S
C832 C837 1.425 . S
C832 C839 1.409 . S
C833 H825 0.930 . S
C833 C831 1.419 . S
C833 C834 1.362 . S
C834 H826 0.930 . S
C834 C833 1.362 . S
C834 C837 1.409 . S
C835 H827 0.930 . S
C835 C836 1.355 . S
C835 C837 1.415 . S
C836 C835 1.355 . S
C836 C838 1.419 . S
C837 C832 1.425 . S
C837 C834 1.409 . S
C837 C835 1.415 . S
C838 H828 0.930 . S
C838 C836 1.419 . S
C838 C839 1.362 . S
C839 H829 0.930 . S
C839 C832 1.409 . S
C839 C838 1.362 . S
H840 C846 0.930 . S
H841 C849 0.930 . S
H842 C850 0.930 . S
H843 C851 0.930 . S
H844 C854 0.930 . S
H845 C855 0.930 . S
C846 H840 0.930 . S
C846 C847 1.355 . S
C846 C848 1.415 . S
C847 C846 1.355 . S
C847 C849 1.419 . S
C848 C846 1.415 . S
C848 C853 1.425 . S
C848 C855 1.409 . S
C849 H841 0.930 . S
C849 C847 1.419 . S
C849 C850 1.362 . S
C850 H842 0.930 . S
C850 C849 1.362 . S
C850 C853 1.409 . S
C851 H843 0.930 . S
C851 C852 1.355 . S
C851 C853 1.415 . S
C852 C851 1.355 . S
C852 C854 1.419 . S
C853 C848 1.425 . S
C853 C850 1.409 . S
C853 C851 1.415 . S
C854 H844 0.930 . S
C854 C852 1.419 . S
C854 C855 1.362 . S
C855 H845 0.930 . S
C855 C848 1.409 . S
C855 C854 1.362 . S
H856 C862 0.930 . S
H857 C865 0.930 . S
H858 C866 0.930 . S
H859 C867 0.930 . S
H860 C870 0.930 . S
H861 C871 0.930 . S
C862 H856 0.930 . S
C862 C863 1.355 . S
C862 C864 1.415 . S
C863 C862 1.355 . S
C863 C865 1.419 . S
C864 C862 1.415 . S
C864 C869 1.425 . S
C864 C871 1.409 . S
C865 H857 0.930 . S
C865 C863 1.419 . S
C865 C866 1.362 . S
C866 H858 0.930 . S
C866 C865 1.362 . S
C866 C869 1.409 . S
C867 H859 0.930 . S
C867 C868 1.355 . S
C867 C869 1.415 . S
C868 C867 1.355 . S
C868 C870 1.419 . S
C869 C864 1.425 . S
C869 C866 1.409 . S
C869 C867 1.415 . S
C870 H860 0.930 . S
C870 C868 1.419 . S
C870 C871 1.362 . S
C871 H861 0.930 . S
C871 C864 1.409 . S
C871 C870 1.362 . S
H872 C878 0.930 . S
H873 C881 0.930 . S
H874 C882 0.930 . S
H875 C883 0.930 . S
H876 C886 0.930 . S
H877 C887 0.930 . S
C878 H872 0.930 . S
C878 C879 1.355 . S
C878 C880 1.415 . S
C879 C878 1.355 . S
C879 C881 1.419 . S
C880 C878 1.415 . S
C880 C885 1.425 . S
C880 C887 1.409 . S
C881 H873 0.930 . S
C881 C879 1.419 . S
C881 C882 1.362 . S
C882 H874 0.930 . S
C882 C881 1.362 . S
C882 C885 1.409 . S
C883 H875 0.930 . S
C883 C884 1.355 . S
C883 C885 1.415 . S
C884 C883 1.355 . S
C884 C886 1.419 . S
C885 C880 1.425 . S
C885 C882 1.409 . S
C885 C883 1.415 . S
C886 H876 0.930 . S
C886 C884 1.419 . S
C886 C887 1.362 . S
C887 H877 0.930 . S
C887 C880 1.409 . S
C887 C886 1.362 . S
H888 C894 0.930 . S
H889 C897 0.930 . S
H890 C898 0.930 . S
H891 C899 0.930 . S
H892 C902 0.930 . S
H893 C903 0.930 . S
C894 H888 0.930 . S
C894 C895 1.355 . S
C894 C896 1.415 . S
C895 C894 1.355 . S
C895 C897 1.419 . S
C896 C894 1.415 . S
C896 C901 1.425 . S
C896 C903 1.409 . S
C897 H889 0.930 . S
C897 C895 1.419 . S
C897 C898 1.362 . S
C898 H890 0.930 . S
C898 C897 1.362 . S
C898 C901 1.409 . S
C899 H891 0.930 . S
C899 C900 1.355 . S
C899 C901 1.415 . S
C900 C899 1.355 . S
C900 C902 1.419 . S
C901 C896 1.425 . S
C901 C898 1.409 . S
C901 C899 1.415 . S
C902 H892 0.930 . S
C902 C900 1.419 . S
C902 C903 1.362 . S
C903 H893 0.930 . S
C903 C896 1.409 . S
C903 C902 1.362 . S
H904 C910 0.930 . S
H905 C913 0.930 . S
H906 C914 0.930 . S
H907 C915 0.930 . S
H908 C918 0.930 . S
H909 C919 0.930 . S
C910 H904 0.930 . S
C910 C911 1.355 . S
C910 C912 1.415 . S
C911 C910 1.355 . S
C911 C913 1.419 . S
C912 C910 1.415 . S
C912 C917 1.425 . S
C912 C919 1.409 . S
C913 H905 0.930 . S
C913 C911 1.419 . S
C913 C914 1.362 . S
C914 H906 0.930 . S
C914 C913 1.362 . S
C914 C917 1.409 . S
C915 H907 0.930 . S
C915 C916 1.355 . S
C915 C917 1.415 . S
C916 C915 1.355 . S
C916 C918 1.419 . S
C917 C912 1.425 . S
C917 C914 1.409 . S
C917 C915 1.415 . S
C918 H908 0.930 . S
C918 C916 1.419 . S
C918 C919 1.362 . S
C919 H909 0.930 . S
C919 C912 1.409 . S
C919 C918 1.362 . S
H920 C926 0.930 . S
H921 C929 0.930 . S
H922 C930 0.930 . S
H923 C931 0.930 . S
H924 C934 0.930 . S
H925 C935 0.930 . S
C926 H920 0.930 . S
C926 C927 1.355 . S
C926 C928 1.415 . S
C927 C926 1.355 . S
C927 C929 1.419 . S
C928 C926 1.415 . S
C928 C933 1.425 . S
C928 C935 1.409 . S
C929 H921 0.930 . S
C929 C927 1.419 . S
C929 C930 1.362 . S
C930 H922 0.930 . S
C930 C929 1.362 . S
C930 C933 1.409 . S
C931 H923 0.930 . S
C931 C932 1.355 . S
C931 C933 1.415 . S
C932 C931 1.355 . S
C932 C934 1.419 . S
C933 C928 1.425 . S
C933 C930 1.409 . S
C933 C931 1.415 . S
C934 H924 0.930 . S
C934 C932 1.419 . S
C934 C935 1.362 . S
C935 H925 0.930 . S
C935 C928 1.409 . S
C935 C934 1.362 . S
H936 C942 0.930 . S
H937 C945 0.930 . S
H938 C946 0.930 . S
H939 C947 0.930 . S
H940 C950 0.930 . S
H941 C951 0.930 . S
C942 H936 0.930 . S
C942 C943 1.355 . S
C942 C944 1.415 . S
C943 C942 1.355 . S
C943 C945 1.419 . S
C944 C942 1.415 . S
C944 C949 1.425 . S
C944 C951 1.409 . S
C945 H937 0.930 . S
C945 C943 1.419 . S
C945 C946 1.362 . S
C946 H938 0.930 . S
C946 C945 1.362 . S
C946 C949 1.409 . S
C947 H939 0.930 . S
C947 C948 1.355 . S
C947 C949 1.415 . S
C948 C947 1.355 . S
C948 C950 1.419 . S
C949 C944 1.425 . S
C949 C946 1.409 . S
C949 C947 1.415 . S
C950 H940 0.930 . S
C950 C948 1.419 . S
C950 C951 1.362 . S
C951 H941 0.930 . S
C951 C944 1.409 . S
C951 C950 1.362 . S
H952 C958 0.930 . S
H953 C961 0.930 . S
H954 C962 0.930 . S
H955 C963 0.930 . S
H956 C966 0.930 . S
H957 C967 0.930 . S
C958 H952 0.930 . S
C958 C959 1.355 . S
C958 C960 1.415 . S
C959 C958 1.355 . S
C959 C961 1.419 . S
C960 C958 1.415 . S
C960 C965 1.425 . S
C960 C967 1.409 . S
C961 H953 0.930 . S
C961 C959 1.419 . S
C961 C962 1.362 . S
C962 H954 0.930 . S
C962 C961 1.362 . S
C962 C965 1.409 . S
C963 H955 0.930 . S
C963 C964 1.355 . S
C963 C965 1.415 . S
C964 C963 1.355 . S
C964 C966 1.419 . S
C965 C960 1.425 . S
C965 C962 1.409 . S
C965 C963 1.415 . S
C966 H956 0.930 . S
C966 C964 1.419 . S
C966 C967 1.362 . S
C967 H957 0.930 . S
C967 C960 1.409 . S
C967 C966 1.362 . S
H968 C974 0.930 . S
H969 C977 0.930 . S
H970 C978 0.930 . S
H971 C979 0.930 . S
H972 C982 0.930 . S
H973 C983 0.930 . S
C974 H968 0.930 . S
C974 C975 1.355 . S
C974 C976 1.415 . S
C975 C974 1.355 . S
C975 C977 1.419 . S
C976 C974 1.415 . S
C976 C981 1.425 . S
C976 C983 1.409 . S
C977 H969 0.930 . S
C977 C975 1.419 . S
C977 C978 1.362 . S
C978 H970 0.930 . S
C978 C977 1.362 . S
C978 C981 1.409 . S
C979 H971 0.930 . S
C979 C980 1.355 . S
C979 C981 1.415 . S
C980 C979 1.355 . S
C980 C982 1.419 . S
C981 C976 1.425 . S
C981 C978 1.409 . S
C981 C979 1.415 . S
C982 H972 0.930 . S
C982 C980 1.419 . S
C982 C983 1.362 . S
C983 H973 0.930 . S
C983 C976 1.409 . S
C983 C982 1.362 . S
H984 C990 0.930 . S
H985 C993 0.930 . S
H986 C994 0.930 . S
H987 C995 0.930 . S
H988 C998 0.930 . S
H989 C999 0.930 . S
C990 H984 0.930 . S
C990 C991 1.355 . S
C990 C992 1.415 . S
C991 C990 1.355 . S
C991 C993 1.419 . S
C992 C990 1.415 . S
C992 C997 1.425 . S
C992 C999 1.409 . S
C993 H985 0.930 . S
C993 C991 1.419 . S
C993 C994 1.362 . S
C994 H986 0.930 . S
C994 C993 1.362 . S
C994 C997 1.409 . S
C995 H987 0.930 . S
C995 C996 1.355 . S
C995 C997 1.415 . S
C996 C995 1.355 . S
C996 C998 1.419 . S
C997 C992 1.425 . S
C997 C994 1.409 . S
C997 C995 1.415 . S
C998 H988 0.930 . S
C998 C996 1.419 . S
C998 C999 1.362 . S
C999 H989 0.930 . S
C999 C992 1.409 . S
C999 C998 1.362 . S
H1000 C1006 0.930 . S
H1001 C1009 0.930 . S
H1002 C1010 0.930 . S
H1003 C1011 0.930 . S
H1004 C1014 0.930 . S
H1005 C1015 0.930 . S
C1006 H1000 0.930 . S
C1006 C1007 1.355 . S
C1006 C1008 1.415 . S
C1007 C1006 1.355 . S
C1007 C1009 1.419 . S
C1008 C1006 1.415 . S
C1008 C1013 1.425 . S
C1008 C1015 1.409 . S
C1009 H1001 0.930 . S
C1009 C1007 1.419 . S
C1009 C1010 1.362 . S
C1010 H1002 0.930 . S
C1010 C1009 1.362 . S
C1010 C1013 1.409 . S
C1011 H1003 0.930 . S
C1011 C1012 1.355 . S
C1011 C1013 1.415 . S
C1012 C1011 1.355 . S
C1012 C1014 1.419 . S
C1013 C1008 1.425 . S
C1013 C1010 1.409 . S
C1013 C1011 1.415 . S
C1014 H1004 0.930 . S
C1014 C1012 1.419 . S
C1014 C1015 1.362 . S
C1015 H1005 0.930 . S
C1015 C1008 1.409 . S
C1015 C1014 1.362 . S
H1016 C1022 0.930 . S
H1017 C1025 0.930 . S
H1018 C1026 0.930 . S
H1019 C1027 0.930 . S
H1020 C1030 0.930 . S
H1021 C1031 0.930 . S
C1022 H1016 0.930 . S
C1022 C1023 1.355 . S
C1022 C1024 1.415 . S
C1023 C1022 1.355 . S
C1023 C1025 1.419 . S
C1024 C1022 1.415 . S
C1024 C1029 1.425 . S
C1024 C1031 1.409 . S
C1025 H1017 0.930 . S
C1025 C1023 1.419 . S
C1025 C1026 1.362 . S
C1026 H1018 0.930 . S
C1026 C1025 1.362 . S
C1026 C1029 1.409 . S
C1027 H1019 0.930 . S
C1027 C1028 1.355 . S
C1027 C1029 1.415 . S
C1028 C1027 1.355 . S
C1028 C1030 1.419 . S
C1029 C1024 1.425 . S
C1029 C1026 1.409 . S
C1029 C1027 1.415 . S
C1030 H1020 0.930 . S
C1030 C1028 1.419 . S
C1030 C1031 1.362 . S
C1031 H1021 0.930 . S
C1031 C1024 1.409 . S
C1031 C1030 1.362 . S
H1032 C1038 0.930 . S
H1033 C1041 0.930 . S
H1034 C1042 0.930 . S
H1035 C1043 0.930 . S
H1036 C1046 0.930 . S
H1037 C1047 0.930 . S
C1038 H1032 0.930 . S
C1038 C1039 1.355 . S
C1038 C1040 1.415 . S
C1039 C1038 1.355 . S
C1039 C1041 1.419 . S
C1040 C1038 1.415 . S
C1040 C1045 1.425 . S
C1040 C1047 1.409 . S
C1041 H1033 0.930 . S
C1041 C1039 1.419 . S
C1041 C1042 1.362 . S
C1042 H1034 0.930 . S
C1042 C1041 1.362 . S
C1042 C1045 1.409 . S
C1043 H1035 0.930 . S
C1043 C1044 1.355 . S
C1043 C1045 1.415 . S
C1044 C1043 1.355 . S
C1044 C1046 1.419 . S
C1045 C1040 1.425 . S
C1045 C1042 1.409 . S
C1045 C1043 1.415 . S
C1046 H1036 0.930 . S
C1046 C1044 1.419 . S
C1046 C1047 1.362 . S
C1047 H1037 0.930 . S
C1047 C1040 1.409 . S
C1047 C1046 1.362 . S
H1048 C1054 0.930 . S
H1049 C1057 0.930 . S
H1050 C1058 0.930 . S
H1051 C1059 0.930 . S
H1052 C1062 0.930 . S
H1053 C1063 0.930 . S
C1054 H1048 0.930 . S
C1054 C1055 1.355 . S
C1054 C1056 1.415 . S
C1055 C1054 1.355 . S
C1055 C1057 1.419 . S
C1056 C1054 1.415 . S
C1056 C1061 1.425 . S
C1056 C1063 1.409 . S
C1057 H1049 0.930 . S
C1057 C1055 1.419 . S
C1057 C1058 1.362 . S
C1058 H1050 0.930 . S
C1058 C1057 1.362 . S
C1058 C1061 1.409 . S
C1059 H1051 0.930 . S
C1059 C1060 1.355 . S
C1059 C1061 1.415 . S
C1060 C1059 1.355 . S
C1060 C1062 1.419 . S
C1061 C1056 1.425 . S
C1061 C1058 1.409 . S
C1061 C1059 1.415 . S
C1062 H1052 0.930 . S
C1062 C1060 1.419 . S
C1062 C1063 1.362 . S
C1063 H1053 0.930 . S
C1063 C1056 1.409 . S
C1063 C1062 1.362 . S
H1064 C1070 0.930 . S
H1065 C1073 0.930 . S
H1066 C1074 0.930 . S
H1067 C1075 0.930 . S
H1068 C1078 0.930 . S
H1069 C1079 0.930 . S
C1070 H1064 0.930 . S
C1070 C1071 1.355 . S
C1070 C1072 1.415 . S
C1071 C1070 1.355 . S
C1071 C1073 1.419 . S
C1072 C1070 1.415 . S
C1072 C1077 1.425 . S
C1072 C1079 1.409 . S
C1073 H1065 0.930 . S
C1073 C1071 1.419 . S
C1073 C1074 1.362 . S
C1074 H1066 0.930 . S
C1074 C1073 1.362 . S
C1074 C1077 1.409 . S
C1075 H1067 0.930 . S
C1075 C1076 1.355 . S
C1075 C1077 1.415 . S
C1076 C1075 1.355 . S
C1076 C1078 1.419 . S
C1077 C1072 1.425 . S
C1077 C1074 1.409 . S
C1077 C1075 1.415 . S
C1078 H1068 0.930 . S
C1078 C1076 1.419 . S
C1078 C1079 1.362 . S
C1079 H1069 0.930 . S
C1079 C1072 1.409 . S
C1079 C1078 1.362 . S
H1080 C1086 0.930 . S
H1081 C1089 0.930 . S
H1082 C1090 0.930 . S
H1083 C1091 0.930 . S
H1084 C1094 0.930 . S
H1085 C1095 0.930 . S
C1086 H1080 0.930 . S
C1086 C1087 1.355 . S
C1086 C1088 1.415 . S
C1087 C1086 1.355 . S
C1087 C1089 1.419 . S
C1088 C1086 1.415 . S
C1088 C1093 1.425 . S
C1088 C1095 1.409 . S
C1089 H1081 0.930 . S
C1089 C1087 1.419 . S
C1089 C1090 1.362 . S
C1090 H1082 0.930 . S
C1090 C1089 1.362 . S
C1090 C1093 1.409 . S
C1091 H1083 0.930 . S
C1091 C1092 1.355 . S
C1091 C1093 1.415 . S
C1092 C1091 1.355 . S
C1092 C1094 1.419 . S
C1093 C1088 1.425 . S
C1093 C1090 1.409 . S
C1093 C1091 1.415 . S
C1094 H1084 0.930 . S
C1094 C1092 1.419 . S
C1094 C1095 1.362 . S
C1095 H1085 0.930 . S
C1095 C1088 1.409 . S
C1095 C1094 1.362 . S
H1096 C1102 0.930 . S
H1097 C1105 0.930 . S
H1098 C1106 0.930 . S
H1099 C1107 0.930 . S
H1100 C1110 0.930 . S
H1101 C1111 0.930 . S
C1102 H1096 0.930 . S
C1102 C1103 1.355 . S
C1102 C1104 1.415 . S
C1103 C1102 1.355 . S
C1103 C1105 1.419 . S
C1104 C1102 1.415 . S
C1104 C1109 1.425 . S
C1104 C1111 1.409 . S
C1105 H1097 0.930 . S
C1105 C1103 1.419 . S
C1105 C1106 1.362 . S
C1106 H1098 0.930 . S
C1106 C1105 1.362 . S
C1106 C1109 1.409 . S
C1107 H1099 0.930 . S
C1107 C1108 1.355 . S
C1107 C1109 1.415 . S
C1108 C1107 1.355 . S
C1108 C1110 1.419 . S
C1109 C1104 1.425 . S
C1109 C1106 1.409 . S
C1109 C1107 1.415 . S
C1110 H1100 0.930 . S
C1110 C1108 1.419 . S
C1110 C1111 1.362 . S
C1111 H1101 0.930 . S
C1111 C1104 1.409 . S
C1111 C1110 1.362 . S
H1112 C1118 0.930 . S
H1113 C1121 0.930 . S
H1114 C1122 0.930 . S
H1115 C1123 0.930 . S
H1116 C1126 0.930 . S
H1117 C1127 0.930 . S
C1118 H1112 0.930 . S
C1118 C1119 1.355 . S
C1118 C1120 1.415 . S
C1119 C1118 1.355 . S
C1119 C1121 1.419 . S
C1120 C1118 1.415 . S
C1120 C1125 1.425 . S
C1120 C1127 1.409 . S
C1121 H1113 0.930 . S
C1121 C1119 1.419 . S
C1121 C1122 1.362 . S
C1122 H1114 0.930 . S
C1122 C1121 1.362 . S
C1122 C1125 1.409 . S
C1123 H1115 0.930 . S
C1123 C1124 1.355 . S
C1123 C1125 1.415 . S
C1124 C1123 1.355 . S
C1124 C1126 1.419 . S
C1125 C1120 1.425 . S
C1125 C1122 1.409 . S
C1125 C1123 1.415 . S
C1126 H1116 0.930 . S
C1126 C1124 1.419 . S
C1126 C1127 1.362 . S
C1127 H1117 0.930 . S
C1127 C1120 1.409 . S
C1127 C1126 1.362 . S
H1128 C1134 0.930 . S
H1129 C1137 0.930 . S
H1130 C1138 0.930 . S
H1131 C1139 0.930 . S
H1132 C1142 0.930 . S
H1133 C1143 0.930 . S
C1134 H1128 0.930 . S
C1134 C1135 1.355 . S
C1134 C1136 1.415 . S
C1135 C1134 1.355 . S
C1135 C1137 1.419 . S
C1136 C1134 1.415 . S
C1136 C1141 1.425 . S
C1136 C1143 1.409 . S
C1137 H1129 0.930 . S
C1137 C1135 1.419 . S
C1137 C1138 1.362 . S
C1138 H1130 0.930 . S
C1138 C1137 1.362 . S
C1138 C1141 1.409 . S
C1139 H1131 0.930 . S
C1139 C1140 1.355 . S
C1139 C1141 1.415 . S
C1140 C1139 1.355 . S
C1140 C1142 1.419 . S
C1141 C1136 1.425 . S
C1141 C1138 1.409 . S
C1141 C1139 1.415 . S
C1142 H1132 0.930 . S
C1142 C1140 1.419 . S
C1142 C1143 1.362 . S
C1143 H1133 0.930 . S
C1143 C1136 1.409 . S
C1143 C1142 1.362 . S
H1144 C1150 0.930 . S
H1145 C1153 0.930 . S
H1146 C1154 0.930 . S
H1147 C1155 0.930 . S
H1148 C1158 0.930 . S
H1149 C1159 0.930 . S
C1150 H1144 0.930 . S
C1150 C1151 1.355 . S
C1150 C1152 1.415 . S
C1151 C1150 1.355 . S
C1151 C1153 1.419 . S
C1152 C1150 1.415 . S
C1152 C1157 1.425 . S
C1152 C1159 1.409 . S
C1153 H1145 0.930 . S
C1153 C1151 1.419 . S
C1153 C1154 1.362 . S
C1154 H1146 0.930 . S
C1154 C1153 1.362 . S
C1154 C1157 1.409 . S
C1155 H1147 0.930 . S
C1155 C1156 1.355 . S
C1155 C1157 1.415 . S
C1156 C1155 1.355 . S
C1156 C1158 1.419 . S
C1157 C1152 1.425 . S
C1157 C1154 1.409 . S
C1157 C1155 1.415 . S
C1158 H1148 0.930 . S
C1158 C1156 1.419 . S
C1158 C1159 1.362 . S
C1159 H1149 0.930 . S
C1159 C1152 1.409 . S
C1159 C1158 1.362 . S
H1160 C1166 0.930 . S
H1161 C1169 0.930 . S
H1162 C1170 0.930 . S
H1163 C1171 0.930 . S
H1164 C1174 0.930 . S
H1165 C1175 0.930 . S
C1166 H1160 0.930 . S
C1166 C1167 1.355 . S
C1166 C1168 1.415 . S
C1167 C1166 1.355 . S
C1167 C1169 1.419 . S
C1168 C1166 1.415 . S
C1168 C1173 1.425 . S
C1168 C1175 1.409 . S
C1169 H1161 0.930 . S
C1169 C1167 1.419 . S
C1169 C1170 1.362 . S
C1170 H1162 0.930 . S
C1170 C1169 1.362 . S
C1170 C1173 1.409 . S
C1171 H1163 0.930 . S
C1171 C1172 1.355 . S
C1171 C1173 1.415 . S
C1172 C1171 1.355 . S
C1172 C1174 1.419 . S
C1173 C1168 1.425 . S
C1173 C1170 1.409 . S
C1173 C1171 1.415 . S
C1174 H1164 0.930 . S
C1174 C1172 1.419 . S
C1174 C1175 1.362 . S
C1175 H1165 0.930 . S
C1175 C1168 1.409 . S
C1175 C1174 1.362 . S
H1176 C1182 0.930 . S
H1177 C1185 0.930 . S
H1178 C1186 0.930 . S
H1179 C1187 0.930 . S
H1180 C1190 0.930 . S
H1181 C1191 0.930 . S
C1182 H1176 0.930 . S
C1182 C1183 1.355 . S
C1182 C1184 1.415 . S
C1183 C1182 1.355 . S
C1183 C1185 1.419 . S
C1184 C1182 1.415 . S
C1184 C1189 1.425 . S
C1184 C1191 1.409 . S
C1185 H1177 0.930 . S
C1185 C1183 1.419 . S
C1185 C1186 1.362 . S
C1186 H1178 0.930 . S
C1186 C1185 1.362 . S
C1186 C1189 1.409 . S
C1187 H1179 0.930 . S
C1187 C1188 1.355 . S
C1187 C1189 1.415 . S
C1188 C1187 1.355 . S
C1188 C1190 1.419 . S
C1189 C1184 1.425 . S
C1189 C1186 1.409 . S
C1189 C1187 1.415 . S
C1190 H1180 0.930 . S
C1190 C1188 1.419 . S
C1190 C1191 1.362 . S
C1191 H1181 0.930 . S
C1191 C1184 1.409 . S
C1191 C1190 1.362 . S
H1192 C1198 0.930 . S
H1193 C1201 0.930 . S
H1194 C1202 0.930 . S
H1195 C1203 0.930 . S
H1196 C1206 0.930 . S
H1197 C1207 0.930 . S
C1198 H1192 0.930 . S
C1198 C1199 1.355 . S
C1198 C1200 1.415 . S
C1199 C1198 1.355 . S
C1199 C1201 1.419 . S
C1200 C1198 1.415 . S
C1200 C1205 1.425 . S
C1200 C1207 1.409 . S
C1201 H1193 0.930 . S
C1201 C1199 1.419 . S
C1201 C1202 1.362 . S
C1202 H1194 0.930 . S
C1202 C1201 1.362 . S
C1202 C1205 1.409 . S
C1203 H1195 0.930 . S
C1203 C1204 1.355 . S
C1203 C1205 1.415 . S
C1204 C1203 1.355 . S
C1204 C1206 1.419 . S
C1205 C1200 1.425 . S
C1205 C1202 1.409 . S
C1205 C1203 1.415 . S
C1206 H1196 0.930 . S
C1206 C1204 1.419 . S
C1206 C1207 1.362 . S
C1207 H1197 0.930 . S
C1207 C1200 1.409 . S
C1207 C1206 1.362 . S
H1208 C1214 0.930 . S
H1209 C1217 0.930 . S
H1210 C1218 0.930 . S
H1211 C1219 0.930 . S
H1212 C1222 0.930 . S
H1213 C1223 0.930 . S
C1214 H1208 0.930 . S
C1214 C1215 1.355 . S
C1214 C1216 1.415 . S
C1215 C1214 1.355 . S
C1215 C1217 1.419 . S
C1216 C1214 1.415 . S
C1216 C1221 1.425 . S
C1216 C1223 1.409 . S
C1217 H1209 0.930 . S
C1217 C1215 1.419 . S
C1217 C1218 1.362 . S
C1218 H1210 0.930 . S
C1218 C1217 1.362 . S
C1218 C1221 1.409 . S
C1219 H1211 0.930 . S
C1219 C1220 1.355 . S
C1219 C1221 1.415 . S
C1220 C1219 1.355 . S
C1220 C1222 1.419 . S
C1221 C1216 1.425 . S
C1221 C1218 1.409 . S
C1221 C1219 1.415 . S
C1222 H1212 0.930 . S
C1222 C1220 1.419 . S
C1222 C1223 1.362 . S
C1223 H1213 0.930 . S
C1223 C1216 1.409 . S
C1223 C1222 1.362 . S
H1224 C1230 0.930 . S
H1225 C1233 0.930 . S
H1226 C1234 0.930 . S
H1227 C1235 0.930 . S
H1228 C1238 0.930 . S
H1229 C1239 0.930 . S
C1230 H1224 0.930 . S
C1230 C1231 1.355 . S
C1230 C1232 1.415 . S
C1231 C1230 1.355 . S
C1231 C1233 1.419 . S
C1232 C1230 1.415 . S
C1232 C1237 1.425 . S
C1232 C1239 1.409 . S
C1233 H1225 0.930 . S
C1233 C1231 1.419 . S
C1233 C1234 1.362 . S
C1234 H1226 0.930 . S
C1234 C1233 1.362 . S
C1234 C1237 1.409 . S
C1235 H1227 0.930 . S
C1235 C1236 1.355 . S
C1235 C1237 1.415 . S
C1236 C1235 1.355 . S
C1236 C1238 1.419 . S
C1237 C1232 1.425 . S
C1237 C1234 1.409 . S
C1237 C1235 1.415 . S
C1238 H1228 0.930 . S
C1238 C1236 1.419 . S
C1238 C1239 1.362 . S
C1239 H1229 0.930 . S
C1239 C1232 1.409 . S
C1239 C1238 1.362 . S
H1240 C1246 0.930 . S
H1241 C1249 0.930 . S
H1242 C1250 0.930 . S
H1243 C1251 0.930 . S
H1244 C1254 0.930 . S
H1245 C1255 0.930 . S
C1246 H1240 0.930 . S
C1246 C1247 1.355 . S
C1246 C1248 1.415 . S
C1247 C1246 1.355 . S
C1247 C1249 1.419 . S
C1248 C1246 1.415 . S
C1248 C1253 1.425 . S
C1248 C1255 1.409 . S
C1249 H1241 0.930 . S
C1249 C1247 1.419 . S
C1249 C1250 1.362 . S
C1250 H1242 0.930 . S
C1250 C1249 1.362 . S
C1250 C1253 1.409 . S
C1251 H1243 0.930 . S
C1251 C1252 1.355 . S
C1251 C1253 1.415 . S
C1252 C1251 1.355 . S
C1252 C1254 1.419 . S
C1253 C1248 1.425 . S
C1253 C1250 1.409 . S
C1253 C1251 1.415 . S
C1254 H1244 0.930 . S
C1254 C1252 1.419 . S
C1254 C1255 1.362 . S
C1255 H1245 0.930 . S
C1255 C1248 1.409 . S
C1255 C1254 1.362 . S
H1256 C1262 0.930 . S
H1257 C1265 0.930 . S
H1258 C1266 0.930 . S
H1259 C1267 0.930 . S
H1260 C1270 0.930 . S
H1261 C1271 0.930 . S
C1262 H1256 0.930 . S
C1262 C1263 1.355 . S
C1262 C1264 1.415 . S
C1263 C1262 1.355 . S
C1263 C1265 1.419 . S
C1264 C1262 1.415 . S
C1264 C1269 1.425 . S
C1264 C1271 1.409 . S
C1265 H1257 0.930 . S
C1265 C1263 1.419 . S
C1265 C1266 1.362 . S
C1266 H1258 0.930 . S
C1266 C1265 1.362 . S
C1266 C1269 1.409 . S
C1267 H1259 0.930 . S
C1267 C1268 1.355 . S
C1267 C1269 1.415 . S
C1268 C1267 1.355 . S
C1268 C1270 1.419 . S
C1269 C1264 1.425 . S
C1269 C1266 1.409 . S
C1269 C1267 1.415 . S
C1270 H1260 0.930 . S
C1270 C1268 1.419 . S
C1270 C1271 1.362 . S
C1271 H1261 0.930 . S
C1271 C1264 1.409 . S
C1271 C1270 1.362 . S
H1272 C1278 0.930 . S
H1273 C1281 0.930 . S
H1274 C1282 0.930 . S
H1275 C1283 0.930 . S
H1276 C1286 0.930 . S
H1277 C1287 0.930 . S
C1278 H1272 0.930 . S
C1278 C1279 1.355 . S
C1278 C1280 1.415 . S
C1279 C1278 1.355 . S
C1279 C1281 1.419 . S
C1280 C1278 1.415 . S
C1280 C1285 1.425 . S
C1280 C1287 1.409 . S
C1281 H1273 0.930 . S
C1281 C1279 1.419 . S
C1281 C1282 1.362 . S
C1282 H1274 0.930 . S
C1282 C1281 1.362 . S
C1282 C1285 1.409 . S
C1283 H1275 0.930 . S
C1283 C1284 1.355 . S
C1283 C1285 1.415 . S
C1284 C1283 1.355 . S
C1284 C1286 1.419 . S
C1285 C1280 1.425 . S
C1285 C1282 1.409 . S
C1285 C1283 1.415 . S
C1286 H1276 0.930 . S
C1286 C1284 1.419 . S
C1286 C1287 1.362 . S
C1287 H1277 0.930 . S
C1287 C1280 1.409 . S
C1287 C1286 1.362 . S
H1288 C1294 0.930 . S
H1289 C1297 0.930 . S
H1290 C1298 0.930 . S
H1291 C1299 0.930 . S
H1292 C1302 0.930 . S
H1293 C1303 0.930 . S
C1294 H1288 0.930 . S
C1294 C1295 1.355 . S
C1294 C1296 1.415 . S
C1295 C1294 1.355 . S
C1295 C1297 1.419 . S
C1296 C1294 1.415 . S
C1296 C1301 1.425 . S
C1296 C1303 1.409 . S
C1297 H1289 0.930 . S
C1297 C1295 1.419 . S
C1297 C1298 1.362 . S
C1298 H1290 0.930 . S
C1298 C1297 1.362 . S
C1298 C1301 1.409 . S
C1299 H1291 0.930 . S
C1299 C1300 1.355 . S
C1299 C1301 1.415 . S
C1300 C1299 1.355 . S
C1300 C1302 1.419 . S
C1301 C1296 1.425 . S
C1301 C1298 1.409 . S
C1301 C1299 1.415 . S
C1302 H1292 0.930 . S
C1302 C1300 1.419 . S
C1302 C1303 1.362 . S
C1303 H1293 0.930 . S
C1303 C1296 1.409 . S
C1303 C1302 1.362 . S
H1304 C1310 0.930 . S
H1305 C1313 0.930 . S
H1306 C1314 0.930 . S
H1307 C1315 0.930 . S
H1308 C1318 0.930 . S
H1309 C1319 0.930 . S
C1310 H1304 0.930 . S
C1310 C1311 1.355 . S
C1310 C1312 1.415 . S
C1311 C1310 1.355 . S
C1311 C1313 1.419 . S
C1312 C1310 1.415 . S
C1312 C1317 1.425 . S
C1312 C1319 1.409 . S
C1313 H1305 0.930 . S
C1313 C1311 1.419 . S
C1313 C1314 1.362 . S
C1314 H1306 0.930 . S
C1314 C1313 1.362 . S
C1314 C1317 1.409 . S
C1315 H1307 0.930 . S
C1315 C1316 1.355 . S
C1315 C1317 1.415 . S
C1316 C1315 1.355 . S
C1316 C1318 1.419 . S
C1317 C1312 1.425 . S
C1317 C1314 1.409 . S
C1317 C1315 1.415 . S
C1318 H1308 0.930 . S
C1318 C1316 1.419 . S
C1318 C1319 1.362 . S
C1319 H1309 0.930 . S
C1319 C1312 1.409 . S
C1319 C1318 1.362 . S
C820 C413 1.454 . S
C815 C36 1.448 . S
C836 C466 1.283 . S
C831 C93 1.287 . S
C852 C529 1.526 . S
C847 C132 1.526 . S
C868 C572 1.254 . S
C863 C174 1.255 . S
C879 C213 1.525 . S
C884 C528 1.520 . S
C900 C565 1.312 . S
C895 C285 1.315 . S
C916 C406 1.456 . S
C911 C324 1.454 . S
C932 C459 1.215 . S
C927 C366 1.224 . S
C948 C512 1.475 . S
C943 C357 1.464 . S
C964 C581 1.797 . S
C959 C222 1.793 . S
C980 C422 1.546 . S
C975 C276 1.543 . S
C996 C475 1.725 . S
C991 C333 1.717 . S
C1012 C423 1.545 . S
C1007 C84 1.544 . S
C1028 C476 1.778 . S
C1023 C141 1.785 . S
C1044 C519 1.484 . S
C1039 C165 1.474 . S
C1060 C582 1.726 . S
C1055 C45 1.720 . S
C1076 C625 1.426 . S
C1071 C372 1.424 . S
C1087 C237 1.660 . S
C1092 C678 1.668 . S
C1103 C261 1.556 . S
C1108 C740 1.549 . S
C1119 C318 1.666 . S
C1124 C794 1.658 . S
C1135 C69 1.478 . S
C1140 C741 1.489 . S
C1151 C126 1.719 . S
C1156 C793 1.731 . S
C1167 C180 1.484 . S
C1172 C618 1.482 . S
C1188 C671 1.612 . S
C1183 C30 1.612 . S
C1204 C731 1.459 . S
C1199 C21 1.460 . S
C1215 C78 1.347 . S
C1220 C777 1.340 . S
C1231 C117 1.579 . S
C1236 C634 1.578 . S
C1247 C189 1.336 . S
C1252 C687 1.336 . S
C1268 C635 1.503 . S
C1263 C228 1.504 . S
C1284 C688 1.387 . S
C1279 C270 1.393 . S
C1295 C309 1.514 . S
C1300 C724 1.512 . S
C1316 C784 1.292 . S
C1311 C381 1.289 . S
