# Generated by pormake.
# Topology pyr, (3,6)-cn, num edge types: 1
# Building blocks:
#     Node 0, Type 0, BuildingBlock: MIDCAF_clean_linker_0, # of connection points: 3
#     Node 1, Type 0, BuildingBlock: MIDCAF_clean_linker_0, # of connection points: 3
#     Node 2, Type 0, BuildingBlock: MIDCAF_clean_linker_0, # of connection points: 3
#     Node 3, Type 0, BuildingBlock: MIDCAF_clean_linker_0, # of connection points: 3
#     Node 4, Type 0, BuildingBlock: MIDCAF_clean_linker_0, # of connection points: 3
#     Node 5, Type 0, BuildingBlock: MIDCAF_clean_linker_0, # of connection points: 3
#     Node 6, Type 0, BuildingBlock: MIDCAF_clean_linker_0, # of connection points: 3
#     Node 7, Type 0, BuildingBlock: MIDCAF_clean_linker_0, # of connection points: 3
#     Node 8, Type 1, BuildingBlock: GEDQOX_clean_sbu_0, # of connection points: 6
#     Node 9, Type 1, BuildingBlock: GEDQOX_clean_sbu_0, # of connection points: 6
#     Node 10, Type 1, BuildingBlock: GEDQOX_clean_sbu_0, # of connection points: 6
#     Node 11, Type 1, BuildingBlock: GEDQOX_clean_sbu_0, # of connection points: 6
#     Edge 12, Type (0, 1), BuildingBlock: XIVTED_clean_linker_0, # of connection points: 2
#     Edge 13, Type (0, 1), BuildingBlock: XIVTED_clean_linker_0, # of connection points: 2
#     Edge 14, Type (0, 1), BuildingBlock: XIVTED_clean_linker_0, # of connection points: 2
#     Edge 15, Type (0, 1), BuildingBlock: XIVTED_clean_linker_0, # of connection points: 2
#     Edge 16, Type (0, 1), BuildingBlock: XIVTED_clean_linker_0, # of connection points: 2
#     Edge 17, Type (0, 1), BuildingBlock: XIVTED_clean_linker_0, # of connection points: 2
#     Edge 18, Type (0, 1), BuildingBlock: XIVTED_clean_linker_0, # of connection points: 2
#     Edge 19, Type (0, 1), BuildingBlock: XIVTED_clean_linker_0, # of connection points: 2
#     Edge 20, Type (0, 1), BuildingBlock: XIVTED_clean_linker_0, # of connection points: 2
#     Edge 21, Type (0, 1), BuildingBlock: XIVTED_clean_linker_0, # of connection points: 2
#     Edge 22, Type (0, 1), BuildingBlock: XIVTED_clean_linker_0, # of connection points: 2
#     Edge 23, Type (0, 1), BuildingBlock: XIVTED_clean_linker_0, # of connection points: 2
#     Edge 24, Type (0, 1), BuildingBlock: XIVTED_clean_linker_0, # of connection points: 2
#     Edge 25, Type (0, 1), BuildingBlock: XIVTED_clean_linker_0, # of connection points: 2
#     Edge 26, Type (0, 1), BuildingBlock: XIVTED_clean_linker_0, # of connection points: 2
#     Edge 27, Type (0, 1), BuildingBlock: XIVTED_clean_linker_0, # of connection points: 2
#     Edge 28, Type (0, 1), BuildingBlock: XIVTED_clean_linker_0, # of connection points: 2
#     Edge 29, Type (0, 1), BuildingBlock: XIVTED_clean_linker_0, # of connection points: 2
#     Edge 30, Type (0, 1), BuildingBlock: XIVTED_clean_linker_0, # of connection points: 2
#     Edge 31, Type (0, 1), BuildingBlock: XIVTED_clean_linker_0, # of connection points: 2
#     Edge 32, Type (0, 1), BuildingBlock: XIVTED_clean_linker_0, # of connection points: 2
#     Edge 33, Type (0, 1), BuildingBlock: XIVTED_clean_linker_0, # of connection points: 2
#     Edge 34, Type (0, 1), BuildingBlock: XIVTED_clean_linker_0, # of connection points: 2
#     Edge 35, Type (0, 1), BuildingBlock: XIVTED_clean_linker_0, # of connection points: 2
# Relax obj value: 0.102
# Max RMSD: 0.154
# Mean RMSD: 0.062
data_MOF--net-pyr--node1-GEDQOX_clean_sbu_0--node2-MIDCAF_clean_linker_0--edge1-XIVTED_clean_linker_0
_symmetry_space_group_name_H-M    P1
_symmetry_Int_Tables_number       1
_symmetry_cell_setting            triclinic
loop_
_symmetry_equiv_pos_as_xyz
'x, y, z'
_cell_length_a     48.382056
_cell_length_b     48.629256
_cell_length_c     42.305424
_cell_angle_alpha  87.793835
_cell_angle_beta   90.254533
_cell_angle_gamma 86.317396
loop_
_atom_site_label
_atom_site_type_symbol
_atom_site_fract_x
_atom_site_fract_y
_atom_site_fract_z
_atom_type_partial_charge
C0 C 0.13315 0.16269 0.26587 0.0
C1 C 0.14426 0.13753 0.2797 0.0
C2 C 0.16875 0.12554 0.26667 0.0
C3 C 0.1818 0.13844 0.24093 0.0
H4 H 0.239 0.12492 0.16452 0.0
H5 H 0.28192 0.10335 0.14395 0.0
H6 H 0.30667 0.18307 0.11108 0.0
H7 H 0.26332 0.20473 0.13109 0.0
H8 H 0.20221 0.24949 0.11304 0.0
H9 H 0.17961 0.29309 0.09253 0.0
H10 H 0.11903 0.28947 0.16696 0.0
H11 H 0.14098 0.246 0.18681 0.0
H12 H 0.13678 0.19489 0.23049 0.0
H13 H 0.1141 0.17244 0.27465 0.0
H14 H 0.17821 0.10638 0.27672 0.0
H15 H 0.2007 0.12861 0.23187 0.0
N16 N 0.20837 0.16657 0.18733 0.0
N17 N 0.21032 0.20486 0.15168 0.0
N18 N 0.17412 0.20287 0.18841 0.0
C19 C 0.22138 0.17978 0.1631 0.0
C20 C 0.1865 0.21654 0.16415 0.0
C21 C 0.18478 0.17799 0.20027 0.0
C22 C 0.2475 0.16668 0.14957 0.0
C23 C 0.25347 0.13794 0.15279 0.0
C24 C 0.27809 0.12548 0.14082 0.0
C25 C 0.29789 0.14139 0.12582 0.0
C26 C 0.29201 0.17015 0.12262 0.0
C27 C 0.26704 0.18257 0.13398 0.0
C28 C 0.17353 0.24382 0.15161 0.0
C29 C 0.18407 0.25798 0.12505 0.0
C30 C 0.17111 0.28319 0.11334 0.0
C31 C 0.14716 0.29506 0.12779 0.0
C32 C 0.13695 0.28098 0.15456 0.0
C33 C 0.14981 0.2559 0.16619 0.0
C34 C 0.17077 0.16374 0.22735 0.0
C35 C 0.14616 0.17555 0.24021 0.0
C36 C 0.24256 0.8135 0.76542 0.0
C37 C 0.2334 0.80379 0.73648 0.0
C38 C 0.25161 0.78625 0.71948 0.0
C39 C 0.27833 0.7791 0.73064 0.0
H40 H 0.34251 0.72967 0.71241 0.0
H41 H 0.36778 0.69416 0.6841 0.0
H42 H 0.43867 0.70025 0.74533 0.0
H43 H 0.41334 0.73687 0.7736 0.0
H44 H 0.41097 0.79334 0.81725 0.0
H45 H 0.43235 0.8255 0.85134 0.0
H46 H 0.35285 0.86945 0.86303 0.0
H47 H 0.33154 0.83778 0.82886 0.0
H48 H 0.27618 0.81488 0.79842 0.0
H49 H 0.22902 0.82669 0.77945 0.0
H50 H 0.24573 0.77881 0.69678 0.0
H51 H 0.29184 0.76607 0.71637 0.0
N52 N 0.33251 0.76329 0.75509 0.0
N53 N 0.37173 0.77396 0.78369 0.0
N54 N 0.32911 0.79916 0.79029 0.0
C55 C 0.35972 0.75818 0.76225 0.0
C56 C 0.35645 0.79456 0.79787 0.0
C57 C 0.31702 0.78357 0.76893 0.0
C58 C 0.3758 0.73618 0.74552 0.0
C59 C 0.36344 0.72352 0.72014 0.0
C60 C 0.37792 0.70287 0.70391 0.0
C61 C 0.40517 0.69402 0.7126 0.0
C62 C 0.41773 0.70669 0.73789 0.0
C63 C 0.4032 0.7276 0.75417 0.0
C64 C 0.36951 0.81295 0.82005 0.0
C65 C 0.398 0.80977 0.82719 0.0
C66 C 0.41026 0.82815 0.84685 0.0
C67 C 0.39434 0.85019 0.85972 0.0
C68 C 0.36581 0.85302 0.85307 0.0
C69 C 0.35356 0.83466 0.83356 0.0
C70 C 0.28784 0.78963 0.75888 0.0
C71 C 0.26957 0.80665 0.7764 0.0
C72 C 0.71894 0.30275 0.91138 0.0
C73 C 0.70361 0.28631 0.89211 0.0
C74 C 0.70142 0.29279 0.85957 0.0
C75 C 0.71368 0.31567 0.84656 0.0
H76 H 0.6813 0.40034 0.80654 0.0
H77 H 0.65454 0.42139 0.76185 0.0
H78 H 0.73017 0.43801 0.71313 0.0
H79 H 0.7573 0.4176 0.75862 0.0
H80 H 0.80861 0.42408 0.81759 0.0
H81 H 0.85028 0.44271 0.83797 0.0
H82 H 0.83866 0.39992 0.92797 0.0
H83 H 0.79762 0.3804 0.90712 0.0
H84 H 0.74322 0.33813 0.91343 0.0
H85 H 0.72086 0.29808 0.93656 0.0
H86 H 0.68945 0.28062 0.84428 0.0
H87 H 0.71117 0.32038 0.82143 0.0
N88 N 0.72676 0.37053 0.8265 0.0
N89 N 0.76081 0.40258 0.82302 0.0
N90 N 0.76361 0.36732 0.86282 0.0
C91 C 0.7369 0.39309 0.81223 0.0
C92 C 0.77419 0.38986 0.84848 0.0
C93 C 0.74004 0.35741 0.85156 0.0
C94 C 0.7213 0.40734 0.78586 0.0
C95 C 0.69224 0.4087 0.78643 0.0
C96 C 0.67695 0.4208 0.76103 0.0
C97 C 0.69045 0.43119 0.73435 0.0
C98 C 0.71949 0.43009 0.73366 0.0
C99 C 0.73489 0.41856 0.75956 0.0
C100 C 0.79978 0.40078 0.86075 0.0
C101 C 0.81499 0.4186 0.84171 0.0
C102 C 0.83883 0.42941 0.85348 0.0
C103 C 0.84783 0.42296 0.8847 0.0
C104 C 0.83265 0.405 0.90366 0.0
C105 C 0.809 0.3939 0.89175 0.0
C106 C 0.72876 0.33238 0.86572 0.0
C107 C 0.73177 0.32549 0.89817 0.0
C108 C 0.80941 0.7236 0.38889 0.0
C109 C 0.80512 0.6983 0.3751 0.0
C110 C 0.81383 0.69441 0.34385 0.0
C111 C 0.82512 0.71571 0.32626 0.0
H112 H 0.88598 0.78161 0.22694 0.0
H113 H 0.88334 0.76019 0.17601 0.0
H114 H 0.79414 0.7617 0.18391 0.0
H115 H 0.79729 0.78158 0.23574 0.0
H116 H 0.86504 0.85899 0.29263 0.0
H117 H 0.88689 0.89604 0.31921 0.0
H118 H 0.91164 0.83919 0.39655 0.0
H119 H 0.88955 0.80239 0.37049 0.0
H120 H 0.82351 0.76433 0.38231 0.0
H121 H 0.80271 0.72747 0.41278 0.0
H122 H 0.81157 0.67499 0.33272 0.0
H123 H 0.83106 0.71217 0.30202 0.0
N124 N 0.83492 0.76461 0.28823 0.0
N125 N 0.85782 0.80561 0.28263 0.0
N126 N 0.85158 0.7849 0.33313 0.0
C127 C 0.84435 0.78514 0.2695 0.0
C128 C 0.86124 0.80566 0.31464 0.0
C129 C 0.83851 0.76425 0.31998 0.0
C130 C 0.84187 0.78293 0.23514 0.0
C131 C 0.86579 0.77841 0.21705 0.0
C132 C 0.86418 0.7661 0.18781 0.0
C133 C 0.83854 0.75844 0.17617 0.0
C134 C 0.8143 0.76649 0.19259 0.0
C135 C 0.81601 0.77819 0.22207 0.0
C136 C 0.87553 0.82784 0.32953 0.0
C137 C 0.8753 0.85441 0.3152 0.0
C138 C 0.88763 0.8756 0.33043 0.0
C139 C 0.90091 0.87037 0.35984 0.0
C140 C 0.90167 0.84368 0.37377 0.0
C141 C 0.8889 0.82269 0.35892 0.0
C142 C 0.82845 0.74128 0.33965 0.0
C143 C 0.82117 0.74482 0.37139 0.0
C144 C 0.75702 0.92402 0.89329 0.0
C145 C 0.74508 0.91392 0.92139 0.0
C146 C 0.7594 0.89164 0.93803 0.0
C147 C 0.78457 0.87962 0.92662 0.0
H148 H 0.84416 0.8099 0.93928 0.0
H149 H 0.86722 0.7671 0.96133 0.0
H150 H 0.92848 0.7699 0.88757 0.0
H151 H 0.90608 0.81264 0.86619 0.0
H152 H 0.9082 0.86171 0.81897 0.0
H153 H 0.93062 0.8835 0.77417 0.0
H154 H 0.86463 0.94767 0.76875 0.0
H155 H 0.84237 0.92611 0.81421 0.0
H156 H 0.79041 0.92078 0.86032 0.0
H157 H 0.747 0.94135 0.87994 0.0
H158 H 0.75089 0.88308 0.9596 0.0
H159 H 0.79473 0.86239 0.94 0.0
N160 N 0.83536 0.85309 0.89892 0.0
N161 N 0.87129 0.85448 0.86179 0.0
N162 N 0.83554 0.88939 0.86041 0.0
C163 C 0.85949 0.84159 0.88701 0.0
C164 C 0.85965 0.87834 0.84829 0.0
C165 C 0.82316 0.87704 0.88572 0.0
C166 C 0.87313 0.8151 0.90089 0.0
C167 C 0.86259 0.80143 0.92778 0.0
C168 C 0.8758 0.77667 0.94038 0.0
C169 C 0.9 0.76477 0.92649 0.0
C170 C 0.91034 0.77844 0.89951 0.0
C171 C 0.89722 0.80309 0.88701 0.0
C172 C 0.87328 0.89198 0.8205 0.0
C173 C 0.89834 0.88047 0.80836 0.0
C174 C 0.91121 0.89296 0.78233 0.0
C175 C 0.89953 0.91743 0.76742 0.0
C176 C 0.87454 0.92906 0.77965 0.0
C177 C 0.86162 0.91654 0.80574 0.0
C178 C 0.79638 0.88969 0.89837 0.0
C179 C 0.78219 0.91222 0.88206 0.0
C180 C 0.67457 0.19704 0.18915 0.0
C181 C 0.64639 0.20132 0.18108 0.0
C182 C 0.63156 0.22514 0.19131 0.0
C183 C 0.64453 0.244 0.20966 0.0
H184 H 0.62955 0.30242 0.28558 0.0
H185 H 0.6064 0.33705 0.31841 0.0
H186 H 0.68166 0.38029 0.32138 0.0
H187 H 0.70488 0.34522 0.28983 0.0
H188 H 0.75256 0.29041 0.31625 0.0
H189 H 0.79748 0.27538 0.33798 0.0
H190 H 0.81226 0.22236 0.25917 0.0
H191 H 0.76627 0.23647 0.23824 0.0
H192 H 0.70928 0.21171 0.21313 0.0
H193 H 0.68671 0.17913 0.18126 0.0
H194 H 0.60975 0.22893 0.1857 0.0
H195 H 0.63239 0.26194 0.21744 0.0
N196 N 0.67187 0.28074 0.25093 0.0
N197 N 0.71192 0.29285 0.27706 0.0
N198 N 0.71386 0.25424 0.24568 0.0
C199 C 0.68465 0.29794 0.27009 0.0
C200 C 0.72669 0.2711 0.26507 0.0
C201 C 0.6865 0.25893 0.23835 0.0
C202 C 0.66911 0.32091 0.28547 0.0
C203 C 0.64096 0.31957 0.2929 0.0
C204 C 0.6277 0.33948 0.3117 0.0
C205 C 0.64228 0.36128 0.32309 0.0
C206 C 0.66998 0.36339 0.31391 0.0
C207 C 0.68326 0.34337 0.29557 0.0
C208 C 0.75564 0.26441 0.27567 0.0
C209 C 0.76547 0.2758 0.30326 0.0
C210 C 0.7915 0.26729 0.31565 0.0
C211 C 0.80869 0.24747 0.30051 0.0
C212 C 0.79943 0.23719 0.27191 0.0
C213 C 0.7731 0.24538 0.25977 0.0
C214 C 0.67269 0.23954 0.21805 0.0
C215 C 0.68756 0.2159 0.20732 0.0
C216 C 0.22758 0.60476 0.19048 0.0
C217 C 0.21293 0.62136 0.16728 0.0
C218 C 0.22542 0.6444 0.15394 0.0
C219 C 0.25232 0.65 0.1626 0.0
H220 H 0.32016 0.70323 0.14502 0.0
H221 H 0.34868 0.73828 0.1216 0.0
H222 H 0.42229 0.68559 0.14288 0.0
H223 H 0.39394 0.65118 0.16715 0.0
H224 H 0.3898 0.60653 0.22923 0.0
H225 H 0.41448 0.59001 0.27744 0.0
H226 H 0.33951 0.60324 0.33119 0.0
H227 H 0.31443 0.61922 0.28258 0.0
H228 H 0.26527 0.59682 0.21669 0.0
H229 H 0.21884 0.58663 0.20096 0.0
H230 H 0.21453 0.65799 0.13651 0.0
H231 H 0.26151 0.66758 0.15139 0.0
N232 N 0.31133 0.65359 0.17274 0.0
N233 N 0.35108 0.64268 0.2037 0.0
N234 N 0.30918 0.62431 0.21811 0.0
C235 C 0.33871 0.65616 0.17827 0.0
C236 C 0.33648 0.62695 0.22381 0.0
C237 C 0.29653 0.63733 0.19237 0.0
C238 C 0.3549 0.67477 0.15843 0.0
C239 C 0.34239 0.69897 0.14404 0.0
C240 C 0.35874 0.719 0.13056 0.0
C241 C 0.38781 0.71496 0.131 0.0
C242 C 0.40002 0.68967 0.14299 0.0
C243 C 0.38377 0.6699 0.15676 0.0
C244 C 0.35025 0.61411 0.25228 0.0
C245 C 0.37848 0.60551 0.25125 0.0
C246 C 0.39257 0.59601 0.27874 0.0
C247 C 0.37882 0.59549 0.30786 0.0
C248 C 0.35046 0.60357 0.30891 0.0
C249 C 0.33616 0.61249 0.28118 0.0
C250 C 0.26725 0.63287 0.18507 0.0
C251 C 0.25435 0.61052 0.19938 0.0
C252 C 0.19968 0.14578 0.70043 0.0
C253 C 0.17069 0.14757 0.70354 0.0
C254 C 0.1587 0.16454 0.72667 0.0
C255 C 0.17526 0.18018 0.74531 0.0
H256 H 0.17447 0.23514 0.82009 0.0
H257 H 0.15665 0.26856 0.85786 0.0
H258 H 0.24005 0.2909 0.87635 0.0
H259 H 0.25781 0.2573 0.83946 0.0
H260 H 0.29498 0.26278 0.77856 0.0
H261 H 0.32811 0.28742 0.74766 0.0
H262 H 0.31526 0.2356 0.66887 0.0
H263 H 0.28126 0.21131 0.69956 0.0
H264 H 0.23832 0.16019 0.7151 0.0
H265 H 0.20974 0.13233 0.68355 0.0
H266 H 0.13646 0.16657 0.72961 0.0
H267 H 0.16534 0.19374 0.76218 0.0
N268 N 0.21244 0.21015 0.78468 0.0
N269 N 0.25206 0.23546 0.78534 0.0
N270 N 0.2456 0.20552 0.74446 0.0
C271 C 0.22799 0.22854 0.79889 0.0
C272 C 0.26103 0.22419 0.75814 0.0
C273 C 0.22144 0.1982 0.75768 0.0
C274 C 0.2175 0.24396 0.82632 0.0
C275 C 0.18904 0.24663 0.83291 0.0
C276 C 0.17881 0.26592 0.85437 0.0
C277 C 0.19688 0.28272 0.86973 0.0
C278 C 0.22552 0.27826 0.8651 0.0
C279 C 0.2357 0.25912 0.84366 0.0
C280 C 0.28501 0.23533 0.74141 0.0
C281 C 0.29944 0.25626 0.75483 0.0
C282 C 0.31869 0.27034 0.73712 0.0
C283 C 0.32413 0.26374 0.70561 0.0
C284 C 0.31111 0.24156 0.69288 0.0
C285 C 0.29176 0.22749 0.71059 0.0
C286 C 0.20409 0.17936 0.74095 0.0
C287 C 0.21613 0.16162 0.71872 0.0
Nd288 Nd 0.03855 1.00081 0.51923 0.0
Nd289 Nd 1.00416 0.05235 0.52576 0.0
C290 C 0.05863 0.94909 0.51881 0.0
C291 C 0.07005 0.93083 0.54477 0.0
C292 C 0.06819 0.90223 0.54419 0.0
C293 C 0.07901 0.88513 0.56927 0.0
C294 C 0.09195 0.89645 0.59526 0.0
C295 C 0.09331 0.92525 0.59574 0.0
C296 C 0.08227 0.94223 0.57095 0.0
C297 C 0.06381 0.03847 0.55443 0.0
C298 C 0.99456 1.00574 0.57897 0.0
C299 C 0.98316 0.10381 0.52562 0.0
C300 C 0.97002 0.1214 0.50001 0.0
C301 C 0.97339 0.14982 0.49823 0.0
C302 C 0.96144 0.16623 0.47319 0.0
C303 C 0.94589 0.15442 0.44959 0.0
C304 C 0.94277 0.12583 0.45157 0.0
C305 C 0.95489 0.10951 0.47631 0.0
C306 C 0.97996 1.01454 0.4894 0.0
C307 C 0.04879 0.04779 0.46677 0.0
O308 O 0.03212 0.95595 0.52043 0.0
O309 O 0.0732 0.97005 0.51117 0.0
O310 O 0.0766 0.02276 0.53449 0.0
O311 O 0.03872 0.03326 0.55668 0.0
O312 O 1.00722 0.98937 0.55854 0.0
O313 O 0.99446 0.03275 0.57445 0.0
O314 O 1.00961 0.09741 0.52231 0.0
O315 O 0.96947 0.08274 0.53516 0.0
O316 O 0.96624 0.03021 0.50863 0.0
O317 O 1.00481 0.02029 0.48831 0.0
O318 O 0.0363 0.06403 0.48746 0.0
O319 O 0.0484 0.02075 0.47074 0.0
H320 H 0.05843 0.89314 0.52436 0.0
H321 H 0.07724 0.86311 0.56828 0.0
H322 H 0.10356 0.93479 0.61488 0.0
H323 H 0.08358 0.96434 0.57208 0.0
H324 H 0.98535 0.15927 0.51608 0.0
H325 H 0.96457 0.18809 0.47223 0.0
H326 H 0.93051 0.116 0.43433 0.0
H327 H 0.95231 0.08752 0.47694 0.0
Nd328 Nd 0.52298 1.0044 0.05189 0.0
Nd329 Nd 0.51541 0.04099 0.99927 0.0
C330 C 0.53061 0.96105 0.09156 0.0
C331 C 0.52013 0.93335 0.09368 0.0
C332 C 0.51563 0.91877 0.06632 0.0
C333 C 0.50357 0.89344 0.06842 0.0
C334 C 0.49601 0.88218 0.09798 0.0
C335 C 0.50111 0.8966 0.1254 0.0
C336 C 0.513 0.92201 0.12323 0.0
C337 C 0.47823 0.04226 0.05959 0.0
C338 C 0.48604 0.98624 0.99212 0.0
C339 C 0.50994 0.08482 0.96055 0.0
C340 C 0.53072 0.10457 0.95263 0.0
C341 C 0.52276 0.13194 0.94351 0.0
C342 C 0.54288 0.1511 0.93874 0.0
C343 C 0.57115 0.14302 0.94299 0.0
C344 C 0.57894 0.11553 0.95204 0.0
C345 C 0.5589 0.09653 0.95699 0.0
C346 C 0.56096 1.00424 0.9911 0.0
C347 C 0.55231 0.05966 0.05949 0.0
O348 O 0.54718 0.96619 0.06809 0.0
O349 O 0.51234 0.9814 0.09606 0.0
O350 O 0.4975 0.03639 0.0806 0.0
O351 O 0.48323 0.02899 0.03485 0.0
O352 O 0.50413 0.97761 1.01428 0.0
O353 O 0.48215 1.01274 0.98507 0.0
O354 O 0.50166 0.08495 0.98988 0.0
O355 O 0.51529 0.0599 0.95077 0.0
O356 O 0.54229 1.01112 0.96977 0.0
O357 O 0.55534 1.01664 1.01633 0.0
O358 O 0.53631 0.06786 0.03522 0.0
O359 O 0.55408 0.03364 0.06913 0.0
H360 H 0.52118 0.92708 0.0433 0.0
H361 H 0.5002 0.88266 0.04694 0.0
H362 H 0.49521 0.88859 0.14847 0.0
H363 H 0.51617 0.93306 0.14457 0.0
H364 H 0.50106 0.13854 0.94053 0.0
H365 H 0.53636 0.17216 0.93161 0.0
H366 H 0.60051 0.10884 0.95598 0.0
H367 H 0.56541 0.07561 0.96478 0.0
Nd368 Nd 0.50295 0.49975 0.53149 0.0
Nd369 Nd 0.5515 0.53725 0.53077 0.0
C370 C 0.45537 0.47569 0.53091 0.0
C371 C 0.44318 0.4534 0.54925 0.0
C372 C 0.41519 0.44868 0.54515 0.0
C373 C 0.4036 0.42702 0.56198 0.0
C374 C 0.4199 0.4097 0.58313 0.0
C375 C 0.44798 0.41474 0.58728 0.0
C376 C 0.4595 0.43645 0.57052 0.0
C377 C 0.54485 0.48438 0.57373 0.0
C378 C 0.49994 0.5553 0.57271 0.0
C379 C 0.60016 0.55818 0.53703 0.0
C380 C 0.62486 0.56464 0.51895 0.0
C381 C 0.65061 0.5632 0.53438 0.0
C382 C 0.67407 0.57154 0.5185 0.0
C383 C 0.6721 0.5816 0.4869 0.0
C384 C 0.64635 0.582 0.47117 0.0
C385 C 0.62294 0.57351 0.48704 0.0
C386 C 0.50951 0.55322 0.48857 0.0
C387 C 0.55246 0.48514 0.48318 0.0
O388 O 0.45899 0.49818 0.54588 0.0
O389 O 0.47654 0.46825 0.51349 0.0
O390 O 0.53092 0.46665 0.55941 0.0
O391 O 0.5351 0.50841 0.56743 0.0
O392 O 0.48569 0.54006 0.55404 0.0
O393 O 0.5272 0.55339 0.5727 0.0
O394 O 0.5963 0.53205 0.54265 0.0
O395 O 0.57726 0.57309 0.53012 0.0
O396 O 0.52426 0.57076 0.5023 0.0
O397 O 0.51886 0.52905 0.49504 0.0
O398 O 0.56752 0.50146 0.49959 0.0
O399 O 0.5255 0.48456 0.4875 0.0
H400 H 0.40232 0.4617 0.52887 0.0
H401 H 0.38181 0.42401 0.55862 0.0
H402 H 0.46119 0.40163 0.60307 0.0
H403 H 0.4812 0.43985 0.57391 0.0
H404 H 0.65246 0.5562 0.55898 0.0
H405 H 0.69365 0.57053 0.53112 0.0
H406 H 0.64399 0.58991 0.44697 0.0
H407 H 0.60321 0.57463 0.47468 0.0
Nd408 Nd 1.00036 0.52461 0.04731 0.0
Nd409 Nd 0.0501 0.53738 1.00684 0.0
C410 C 0.9492 0.51968 0.06686 0.0
C411 C 0.92545 0.54021 0.06838 0.0
C412 C 0.91723 0.55695 0.04168 0.0
C413 C 0.89894 0.58009 0.04479 0.0
C414 C 0.88848 0.58687 0.07458 0.0
C415 C 0.89502 0.56888 0.10079 0.0
C416 C 0.91336 0.54577 0.09769 0.0
C417 C 0.04079 0.5504 0.07782 0.0
C418 C 1.00023 0.58439 1.00498 0.0
C419 C 0.10027 0.54098 0.98388 0.0
C420 C 0.12019 0.51864 0.97403 0.0
C421 C 0.12522 0.51529 0.94171 0.0
C422 C 0.13745 0.49051 0.93127 0.0
C423 C 0.1449 0.46861 0.95296 0.0
C424 C 0.14242 0.473 0.98548 0.0
C425 C 0.13028 0.49784 0.99592 0.0
C426 C 1.00959 0.51152 0.97656 0.0
C427 C 0.05078 0.47786 0.05032 0.0
O428 O 0.95754 0.51304 0.03858 0.0
O429 O 0.96976 0.52337 0.08613 0.0
O430 O 0.02686 0.53135 0.09147 0.0
O431 O 0.03223 0.55609 0.05008 0.0
O432 O 0.9856 0.56489 1.01825 0.0
O433 O 0.02739 0.58038 1.0019 0.0
O434 O 0.09496 0.54196 1.01419 0.0
O435 O 0.07788 0.54467 0.96635 0.0
O436 O 1.02315 0.53084 0.96306 0.0
O437 O 1.01846 0.50574 1.00413 0.0
O438 O 0.06501 0.49675 0.0352 0.0
O439 O 1.02387 0.48225 0.05515 0.0
H440 H 0.92604 0.5531 1.01865 0.0
H441 H 0.89391 0.59335 0.02413 0.0
H442 H 0.88744 0.57364 0.12413 0.0
H443 H 0.91936 0.53317 0.11858 0.0
H444 H 0.11796 0.53111 0.92435 0.0
H445 H 0.1398 0.48799 0.90607 0.0
H446 H 0.14803 0.45661 1.00283 0.0
H447 H 0.12714 0.49996 1.02105 0.0
H448 H 0.11774 0.16244 0.32978 0.0
H449 H 0.07665 0.02159 0.41837 0.0
H450 H 0.13909 0.08195 0.29404 0.0
H451 H 0.05353 0.10271 0.45119 0.0
H452 H 0.09999 0.04289 0.37316 0.0
H453 H 0.0946 0.14066 0.3744 0.0
C454 C 0.11747 0.14018 0.33107 0.0
C455 C 0.13043 0.12417 0.30766 0.0
C456 C 0.0898 0.05603 0.39025 0.0
C457 C 0.10396 0.09882 0.35958 0.0
C458 C 0.07642 0.04386 0.41614 0.0
C459 C 0.063 0.06029 0.43883 0.0
C460 C 0.08988 0.08493 0.38685 0.0
C461 C 0.06353 0.08909 0.43447 0.0
C462 C 0.10432 0.12771 0.35682 0.0
C463 C 0.12973 0.09529 0.31145 0.0
N464 N 0.07669 0.1004 0.40915 0.0
N465 N 0.11674 0.08363 0.33674 0.0
H466 H 0.38441 0.90636 0.85838 0.0
H467 H 0.49179 0.92984 0.99784 0.0
H468 H 0.43399 0.84037 0.90628 0.0
H469 H 0.44693 0.99629 0.94514 0.0
H470 H 0.46913 0.89672 0.96641 0.0
H471 H 0.40549 0.93941 0.89154 0.0
C472 C 0.39962 0.89878 0.87601 0.0
C473 C 0.40736 0.87048 0.87958 0.0
C474 C 0.46418 0.91854 0.96174 0.0
C475 C 0.43181 0.90836 0.91754 0.0
C476 C 0.47706 0.93752 0.9798 0.0
C477 C 0.47132 0.96596 0.97418 0.0
C478 C 0.44532 0.92799 0.9378 0.0
C479 C 0.45206 0.97458 0.95032 0.0
C480 C 0.41177 0.91771 0.89483 0.0
C481 C 0.42757 0.86198 0.90247 0.0
N482 N 0.4398 0.95569 0.93299 0.0
N483 N 0.43903 0.88082 0.9206 0.0
H484 H 0.68764 0.4094 0.67629 0.0
H485 H 0.56871 0.51912 0.61273 0.0
H486 H 0.6546 0.47648 0.73135 0.0
H487 H 0.57491 0.43507 0.583 0.0
H488 H 0.60765 0.50822 0.64905 0.0
H489 H 0.65389 0.42345 0.63408 0.0
C490 C 0.67365 0.42745 0.67906 0.0
C491 C 0.67374 0.44197 0.707 0.0
C492 C 0.60052 0.49221 0.63451 0.0
C493 C 0.63543 0.45792 0.65945 0.0
C494 C 0.57834 0.49837 0.61384 0.0
C495 C 0.56849 0.47782 0.59521 0.0
C496 C 0.61316 0.46543 0.6362 0.0
C497 C 0.58179 0.45135 0.5973 0.0
C498 C 0.65434 0.43526 0.65524 0.0
C499 C 0.65507 0.46492 0.70996 0.0
N500 N 0.60356 0.44587 0.6175 0.0
N501 N 0.6366 0.47223 0.68643 0.0
H502 H 0.80479 0.7155 0.17308 0.0
H503 H 0.90163 0.63721 0.05008 0.0
H504 H 0.87095 0.75324 0.12268 0.0
H505 H 0.84241 0.59863 0.11037 0.0
H506 H 0.8828 0.6824 0.06597 0.0
H507 H 0.81012 0.67633 0.13947 0.0
C508 C 0.81996 0.71606 0.15438 0.0
C509 C 0.83772 0.73777 0.15113 0.0
C510 C 0.8736 0.66407 0.07529 0.0
C511 C 0.84454 0.69203 0.11307 0.0
C512 C 0.8842 0.63825 0.06606 0.0
C513 C 0.87379 0.61409 0.07929 0.0
C514 C 0.85247 0.66573 0.0979 0.0
C515 C 0.85138 0.61671 0.10009 0.0
C516 C 0.82319 0.69336 0.13536 0.0
C517 C 0.85724 0.73673 0.12662 0.0
N518 N 0.84169 0.64204 0.10903 0.0
N519 N 0.86045 0.71401 0.10888 0.0
H520 H 0.35096 0.1573 0.13446 0.0
H521 H 0.42728 0.04115 0.0299 0.0
H522 H 0.30619 0.09482 0.09081 0.0
H523 H 0.46824 0.07932 0.10583 0.0
H524 H 0.38334 0.0657 0.04474 0.0
H525 H 0.39461 0.13421 0.11704 0.0
C526 C 0.35025 0.13887 0.12097 0.0
C527 C 0.32471 0.12803 0.11422 0.0
C528 C 0.40199 0.06876 0.05806 0.0
C529 C 0.37489 0.1015 0.09383 0.0
C530 C 0.42711 0.05485 0.0495 0.0
C531 C 0.45155 0.05808 0.06669 0.0
C532 C 0.40132 0.08655 0.08359 0.0
C533 C 0.44995 0.07607 0.09197 0.0
C534 C 0.37523 0.12559 0.11118 0.0
C535 C 0.3253 0.10386 0.09683 0.0
N536 N 0.42544 0.08967 0.0995 0.0
N537 N 0.34986 0.09155 0.08712 0.0
H538 H 0.19837 0.77529 0.70004 0.0
H539 H 0.09525 0.90631 0.65878 0.0
H540 H 0.2057 0.85475 0.74064 0.0
H541 H 0.11981 0.84562 0.5906 0.0
H542 H 0.12459 0.88065 0.69838 0.0
H543 H 0.15828 0.7946 0.6694 0.0
C544 C 0.19151 0.79669 0.70281 0.0
C545 C 0.20602 0.81355 0.72249 0.0
C546 C 0.12315 0.87283 0.67484 0.0
C547 C 0.15958 0.83533 0.68823 0.0
C548 C 0.10659 0.88752 0.65211 0.0
C549 C 0.10554 0.87856 0.62093 0.0
C550 C 0.13839 0.84874 0.66656 0.0
C551 C 0.1199 0.85344 0.61419 0.0
C552 C 0.16851 0.80757 0.68544 0.0
C553 C 0.19534 0.84084 0.72591 0.0
N554 N 0.13594 0.83954 0.63675 0.0
N555 N 0.17292 0.85094 0.70872 0.0
H556 H 0.88741 0.39889 0.92563 0.0
H557 H 0.98165 0.52764 0.92222 0.0
H558 H 0.86501 0.47516 0.87325 0.0
H559 H 0.98552 0.46519 0.99764 0.0
H560 H 0.94266 0.50562 0.89885 0.0
H561 H 0.92728 0.42009 0.94761 0.0
C562 C 0.89074 0.42011 0.91882 0.0
C563 C 0.87266 0.43525 0.89758 0.0
C564 C 0.95208 0.49675 0.9205 0.0
C565 C 0.91864 0.45939 0.9222 0.0
C566 C 0.97433 0.50922 0.93373 0.0
C567 C 0.98668 0.49816 0.96183 0.0
C568 C 0.94242 0.4729 0.93531 0.0
C569 C 0.97646 0.47435 0.97594 0.0
C570 C 0.9136 0.43213 0.93128 0.0
C571 C 0.87852 0.46249 0.88913 0.0
N572 N 0.95494 0.46242 0.96246 0.0
N573 N 0.90102 0.47366 0.90142 0.0
H574 H 0.80732 0.68316 0.43863 0.0
H575 H 0.68836 0.57721 0.42507 0.0
H576 H 0.76775 0.66452 0.35092 0.0
H577 H 0.71064 0.61335 0.51254 0.0
H578 H 0.72452 0.60182 0.39817 0.0
H579 H 0.77862 0.6506 0.46661 0.0
C580 C 0.79274 0.6722 0.42521 0.0
C581 C 0.78989 0.67682 0.39233 0.0
C582 C 0.72163 0.60414 0.42332 0.0
C583 C 0.75737 0.63924 0.42417 0.0
C584 C 0.70093 0.59019 0.43867 0.0
C585 C 0.69617 0.59348 0.47104 0.0
C586 C 0.73774 0.62148 0.44046 0.0
C587 C 0.7136 0.61004 0.48761 0.0
C588 C 0.77649 0.65351 0.44119 0.0
C589 C 0.77103 0.66149 0.37616 0.0
N590 N 0.73346 0.62361 0.47207 0.0
N591 N 0.75543 0.64354 0.39226 0.0
H592 H 0.09107 0.31031 0.12611 0.0
H593 H 0.10639 0.46167 0.04716 0.0
H594 H 0.16983 0.3413 0.1004 0.0
H595 H 0.02866 0.43214 0.07873 0.0
H596 H 0.12976 0.41759 0.06481 0.0
H597 H 0.06803 0.35414 0.10759 0.0
C598 C 0.10368 0.3263 0.11678 0.0
C599 C 0.1327 0.32178 0.11523 0.0
C600 C 0.10759 0.4207 0.06791 0.0
C601 C 0.10595 0.37256 0.09325 0.0
C602 C 0.09415 0.44598 0.05773 0.0
C603 C 0.06536 0.45092 0.0613 0.0
C604 C 0.09227 0.39987 0.08188 0.0
C605 C 0.05083 0.42953 0.07542 0.0
C606 C 0.09036 0.35141 0.10597 0.0
C607 C 0.14749 0.34342 0.10197 0.0
N608 N 0.06437 0.4051 0.0851 0.0
N609 N 0.13403 0.36773 0.09165 0.0
H610 H 0.66792 0.28695 0.94198 0.0
H611 H 0.61993 0.13574 0.91132 0.0
H612 H 0.70424 0.23374 0.87202 0.0
H613 H 0.57137 0.19567 0.96388 0.0
H614 H 0.65542 0.16882 0.90368 0.0
H615 H 0.63721 0.25069 0.95791 0.0
C616 C 0.66978 0.2674 0.93047 0.0
C617 C 0.68842 0.26327 0.90556 0.0
C618 C 0.63704 0.17473 0.91696 0.0
C619 C 0.65337 0.22208 0.92325 0.0
C620 C 0.61683 0.15585 0.9214 0.0
C621 C 0.59264 0.16307 0.93812 0.0
C622 C 0.63313 0.20101 0.92945 0.0
C623 C 0.58956 0.18946 0.95045 0.0
C624 C 0.65213 0.24687 0.93932 0.0
C625 C 0.68991 0.23775 0.89113 0.0
N626 N 0.6096 0.20752 0.94586 0.0
N627 N 0.67249 0.21816 0.90007 0.0
H628 H 0.95302 0.87009 0.3847 0.0
H629 H 0.92518 1.00797 0.47775 0.0
H630 H 0.87704 0.92097 0.37334 0.0
H631 H 1.00747 0.9753 0.45537 0.0
H632 H 0.90593 0.97372 0.44416 0.0
H633 H 0.97249 0.9061 0.41527 0.0
C634 C 0.94052 0.88894 0.38859 0.0
C635 C 0.91345 0.89269 0.37654 0.0
C636 C 0.92819 0.97418 0.44652 0.0
C637 C 0.93535 0.93368 0.41169 0.0
C638 C 0.93914 0.99358 0.46574 0.0
C639 C 0.9679 0.99437 0.46921 0.0
C640 C 0.94617 0.95521 0.43123 0.0
C641 C 0.98516 0.97536 0.45319 0.0
C642 C 0.95163 0.90947 0.4059 0.0
C643 C 0.89808 0.91746 0.38208 0.0
N644 N 0.97402 0.9564 0.43506 0.0
N645 N 0.90916 0.93696 0.39955 0.0
H646 H 0.4599 0.69054 0.69489 0.0
H647 H 0.44432 0.56138 0.58603 0.0
H648 H 0.38485 0.64742 0.68909 0.0
H649 H 0.52286 0.59372 0.60827 0.0
H650 H 0.42157 0.59405 0.62184 0.0
H651 H 0.48313 0.65596 0.66204 0.0
C652 C 0.44836 0.67367 0.68705 0.0
C653 C 0.42028 0.67208 0.69465 0.0
C654 C 0.4438 0.5939 0.61892 0.0
C655 C 0.44664 0.63267 0.65645 0.0
C656 C 0.45677 0.57532 0.5984 0.0
C657 C 0.48554 0.57479 0.59412 0.0
C658 C 0.45969 0.6122 0.63504 0.0
C659 C 0.50064 0.59331 0.61084 0.0
C660 C 0.4616 0.65402 0.66809 0.0
C661 C 0.40635 0.64987 0.68334 0.0
N662 N 0.48754 0.61129 0.63044 0.0
N663 N 0.4196 0.63118 0.66468 0.0
H664 H 0.92763 0.89198 0.71869 0.0
H665 H 0.96583 0.03226 0.62653 0.0
H666 H 0.90317 0.97291 0.75129 0.0
H667 H 0.99118 0.95088 0.59604 0.0
H668 H 0.94267 1.01126 0.67205 0.0
H669 H 0.95077 0.91339 0.6738 0.0
C670 C 0.9272 0.91426 0.71665 0.0
C671 C 0.91336 0.93051 0.73925 0.0
C672 C 0.95331 0.99799 0.65541 0.0
C673 C 0.93985 0.95541 0.68702 0.0
C674 C 0.9666 1.00999 0.62934 0.0
C675 C 0.98058 0.99341 0.60719 0.0
C676 C 0.95388 0.9691 0.65956 0.0
C677 C 0.98072 0.96462 0.61232 0.0
C678 C 0.94036 0.92652 0.69074 0.0
C679 C 0.91322 0.95938 0.73451 0.0
N680 N 0.96764 0.95348 0.6378 0.0
N681 N 0.92624 0.97082 0.7091 0.0
H682 H 0.60916 0.21073 0.132 0.0
H683 H 0.58777 0.05047 0.1101 0.0
H684 H 0.65206 0.14495 0.18773 0.0
H685 H 0.55129 0.11558 0.04799 0.0
H686 H 0.61101 0.08487 0.13923 0.0
H687 H 0.58684 0.17632 0.10172 0.0
C688 C 0.6138 0.18906 0.13796 0.0
C689 C 0.63255 0.18074 0.16244 0.0
C690 C 0.59798 0.09164 0.11917 0.0
C691 C 0.6072 0.1412 0.12773 0.0
C692 C 0.58469 0.07198 0.1025 0.0
C693 C 0.56746 0.08012 0.07659 0.0
C694 C 0.59395 0.1197 0.11 0.0
C695 C 0.56432 0.10832 0.06785 0.0
C696 C 0.60118 0.16942 0.12053 0.0
C697 C 0.63802 0.15234 0.16883 0.0
N698 N 0.57734 0.12708 0.08458 0.0
N699 N 0.62537 0.13363 0.15167 0.0
H700 H 0.41116 0.54851 0.32046 0.0
H701 H 0.48472 0.60398 0.47116 0.0
H702 H 0.38303 0.62535 0.36079 0.0
H703 H 0.48517 0.51758 0.45128 0.0
H704 H 0.44984 0.61393 0.42902 0.0
H705 H 0.44113 0.538 0.36666 0.0
C706 C 0.41117 0.563 0.33928 0.0
C707 C 0.39467 0.58773 0.33705 0.0
C708 C 0.45751 0.5928 0.43414 0.0
C709 C 0.42911 0.57621 0.38953 0.0
C710 C 0.47742 0.58717 0.45799 0.0
C711 C 0.48791 0.56 0.46443 0.0
C712 C 0.44851 0.5711 0.41651 0.0
C713 C 0.47773 0.53886 0.44693 0.0
C714 C 0.42819 0.55704 0.3656 0.0
C715 C 0.39535 0.60595 0.36193 0.0
N716 N 0.4588 0.5449 0.42358 0.0
N717 N 0.41261 0.59998 0.38707 0.0
H718 H 0.21676 0.30321 0.92462 0.0
H719 H 0.12077 0.443 0.90478 0.0
H720 H 0.15296 0.31858 0.85329 0.0
H721 H 0.1848 0.4299 0.97615 0.0
H722 H 0.13106 0.39631 0.88763 0.0
H723 H 0.20333 0.34788 0.94671 0.0
C724 C 0.19973 0.31582 0.91383 0.0
C725 C 0.18608 0.30716 0.88693 0.0
C726 C 0.14294 0.40359 0.90701 0.0
C727 C 0.17074 0.3583 0.91196 0.0
C728 C 0.13729 0.43041 0.9166 0.0
C729 C 0.15222 0.44056 0.94167 0.0
C730 C 0.16371 0.38661 0.92255 0.0
C731 C 0.17278 0.42293 0.95672 0.0
C732 C 0.1921 0.34131 0.92645 0.0
C733 C 0.16393 0.32418 0.87421 0.0
N734 N 0.17801 0.39682 0.94684 0.0
N735 N 0.15715 0.349 0.88665 0.0
H736 H 0.699 0.9315 0.88594 0.0
H737 H 0.6072 0.99115 0.02948 0.0
H738 H 0.72805 0.92484 0.98262 0.0
H739 H 0.5771 0.98446 0.93422 0.0
H740 H 0.65195 0.96849 1.01376 0.0
H741 H 0.65503 0.95267 0.90382 0.0
C742 C 0.69628 0.9346 0.91097 0.0
C743 C 0.71764 0.92637 0.93265 0.0
C744 C 0.63549 0.97195 0.99636 0.0
C745 C 0.66654 0.95079 0.95361 0.0
C746 C 0.60993 0.9849 1.00534 0.0
C747 C 0.58825 0.98986 0.98317 0.0
C748 C 0.63952 0.96403 0.9649 0.0
C749 C 0.59309 0.98122 0.9522 0.0
C750 C 0.67094 0.9466 0.92124 0.0
C751 C 0.71229 0.9306 0.96493 0.0
N752 N 0.61802 0.96895 0.94406 0.0
N753 N 0.68745 0.9426 0.97437 0.0
H754 H 0.83196 0.19435 0.3 0.0
H755 H 0.92125 0.20692 0.45215 0.0
H756 H 0.84522 0.27402 0.3373 0.0
H757 H 0.93844 0.14135 0.38758 0.0
H758 H 0.89334 0.23217 0.411 0.0
H759 H 0.87081 0.17444 0.3317 0.0
C760 C 0.84329 0.20788 0.31427 0.0
C761 C 0.83485 0.23597 0.31613 0.0
C762 C 0.90357 0.21241 0.40576 0.0
C763 C 0.87897 0.21286 0.35344 0.0
C764 C 0.91962 0.19799 0.42922 0.0
C765 C 0.93189 0.17166 0.42363 0.0
C766 C 0.89938 0.20026 0.37671 0.0
C767 C 0.92869 0.16115 0.39341 0.0
C768 C 0.86544 0.19637 0.33258 0.0
C769 C 0.85031 0.25213 0.33571 0.0
N770 N 0.91238 0.17525 0.3713 0.0
N771 N 0.87128 0.24025 0.35403 0.0
H772 H 0.17077 0.59919 0.20144 0.0
H773 H 0.07279 0.58845 0.05038 0.0
H774 H 0.19249 0.62566 0.10662 0.0
H775 H 0.06213 0.5416 0.13767 0.0
H776 H 0.11319 0.60807 0.07319 0.0
H777 H 0.12745 0.58345 0.1808 0.0
C778 C 0.16648 0.60175 0.17633 0.0
C779 C 0.18548 0.6137 0.15576 0.0
C780 C 0.102 0.59356 0.08742 0.0
C781 C 0.13573 0.5961 0.13215 0.0
C782 C 0.07892 0.58239 0.07444 0.0
C783 C 0.06429 0.56325 0.09215 0.0
C784 C 0.11039 0.5857 0.11844 0.0
C785 C 0.07299 0.55621 0.12323 0.0
C786 C 0.14169 0.59284 0.16461 0.0
C787 C 0.17842 0.61697 0.12352 0.0
N788 N 0.09556 0.56743 0.13544 0.0
N789 N 0.15419 0.60816 0.11274 0.0
H790 H 0.31517 0.28073 0.6437 0.0
H791 H 0.42941 0.39179 0.64479 0.0
H792 H 0.37172 0.28815 0.72173 0.0
H793 H 0.3826 0.37446 0.56154 0.0
H794 H 0.4088 0.35367 0.67326 0.0
H795 H 0.34028 0.31422 0.61284 0.0
C796 C 0.33317 0.28899 0.6542 0.0
C797 C 0.34125 0.28161 0.68547 0.0
C798 C 0.40314 0.35812 0.64871 0.0
C799 C 0.36972 0.32062 0.65041 0.0
C800 C 0.41498 0.37984 0.63239 0.0
C801 C 0.4077 0.38643 0.6007 0.0
C802 C 0.38375 0.34291 0.63333 0.0
C803 C 0.3885 0.37046 0.58608 0.0
C804 C 0.34737 0.30834 0.63661 0.0
C805 C 0.36444 0.29353 0.69792 0.0
N806 N 0.37713 0.34953 0.60254 0.0
N807 N 0.37771 0.31259 0.68045 0.0
H808 H 0.87721 0.71895 0.9545 0.0
H809 H 1.02289 0.63044 0.97821 0.0
H810 H 0.95615 0.74968 0.92904 0.0
H811 H 0.94454 0.60031 1.00653 0.0
H812 H 0.99878 0.67417 0.96033 0.0
H813 H 0.9013 0.67585 0.9744 0.0
C814 C 0.89958 0.71685 0.95321 0.0
C815 C 0.91445 0.73831 0.93974 0.0
C816 C 0.98681 0.65802 0.9705 0.0
C817 C 0.94237 0.68833 0.96231 0.0
C818 C 1.00061 0.63293 0.98074 0.0
C819 C 0.98583 0.61138 0.99401 0.0
C820 C 0.95785 0.66185 0.97341 0.0
C821 C 0.95691 0.61613 0.99656 0.0
C822 C 0.91335 0.69203 0.96444 0.0
C823 C 0.94352 0.7338 0.93853 0.0
N824 N 0.94395 0.64068 0.98639 0.0
N825 N 0.95639 0.70948 0.94953 0.0
H826 H 0.38112 0.75366 0.08165 0.0
H827 H 0.50625 0.83917 0.14078 0.0
H828 H 0.43442 0.72905 0.16128 0.0
H829 H 0.45447 0.86529 0.06044 0.0
H830 H 0.48154 0.79712 0.1463 0.0
H831 H 0.40903 0.79331 0.07113 0.0
C832 C 0.39874 0.75648 0.09678 0.0
C833 C 0.40546 0.73791 0.12231 0.0
C834 C 0.47562 0.81195 0.12734 0.0
C835 C 0.43743 0.7831 0.11044 0.0
C836 C 0.48965 0.83603 0.1243 0.0
C837 C 0.48227 0.85583 0.10028 0.0
C838 C 0.45388 0.80765 0.10633 0.0
C839 C 0.46093 0.85046 0.0792 0.0
C840 C 0.41471 0.77904 0.09071 0.0
C841 C 0.42868 0.74247 0.14099 0.0
N842 N 0.44732 0.82695 0.08285 0.0
N843 N 0.44368 0.76462 0.13477 0.0
H844 H 0.12239 0.12208 0.71656 0.0
H845 H 0.11571 0.05558 0.54788 0.0
H846 H 0.1788 0.13927 0.64052 0.0
H847 H 0.0448 0.06125 0.60928 0.0
H848 H 0.14065 0.08327 0.58397 0.0
H849 H 0.09475 0.09711 0.67985 0.0
C850 C 0.12892 0.12077 0.69219 0.0
C851 C 0.15321 0.13259 0.68179 0.0
C852 C 0.11959 0.07861 0.58954 0.0
C853 C 0.12188 0.10376 0.6399 0.0
C854 C 0.10539 0.06274 0.56899 0.0
C855 C 0.07824 0.05613 0.57571 0.0
C856 C 0.10669 0.08766 0.61727 0.0
C857 C 0.06575 0.06599 0.6033 0.0
C858 C 0.11316 0.10645 0.67131 0.0
C859 C 0.16071 0.12994 0.64995 0.0
N860 N 0.08018 0.08113 0.62329 0.0
N861 N 0.14523 0.1157 0.63027 0.0
H862 H 0.66664 0.38384 0.37389 0.0
H863 H 0.52688 0.45735 0.43755 0.0
H864 H 0.58828 0.38323 0.32467 0.0
H865 H 0.60791 0.474 0.47237 0.0
H866 H 0.54867 0.42836 0.39766 0.0
H867 H 0.64524 0.41525 0.41143 0.0
C868 C 0.645 0.39053 0.37066 0.0
C869 C 0.62934 0.3809 0.34578 0.0
C870 C 0.56169 0.43843 0.41394 0.0
C871 C 0.6045 0.41653 0.38946 0.0
C872 C 0.54928 0.45493 0.43683 0.0
C873 C 0.5656 0.46809 0.45845 0.0
C874 C 0.59067 0.43476 0.41278 0.0
C875 C 0.59451 0.46428 0.45619 0.0
C876 C 0.63276 0.40838 0.39232 0.0
C877 C 0.60116 0.3898 0.34358 0.0
N878 N 0.60612 0.44784 0.43389 0.0
N879 N 0.58964 0.40703 0.36518 0.0
loop_
_geom_bond_atom_site_label_1
_geom_bond_atom_site_label_2
_geom_bond_distance
_geom_bond_site_symmetry_2
_ccdc_geom_bond_type
C0 C1 1.384 . S
C0 H13 0.947 . S
C0 C35 1.382 . S
C1 C0 1.384 . S
C1 C2 1.378 . S
C2 C1 1.378 . S
C2 C3 1.378 . S
C2 H14 0.952 . S
C3 C2 1.378 . S
C3 H15 0.950 . S
C3 C34 1.383 . S
H4 C23 0.947 . S
H5 C24 0.946 . S
H6 C26 0.953 . S
H7 C27 0.945 . S
H8 C29 0.952 . S
H9 C30 0.949 . S
H10 C32 0.950 . S
H11 C33 0.948 . S
H12 C35 0.951 . S
H13 C0 0.947 . S
H14 C2 0.952 . S
H15 C3 0.950 . S
N16 C19 1.382 . S
N16 C21 1.363 . S
N17 C19 1.371 . S
N17 C20 1.372 . S
N18 C20 1.361 . S
N18 C21 1.377 . S
C19 N16 1.382 . S
C19 N17 1.371 . S
C19 C22 1.480 . S
C20 N17 1.372 . S
C20 N18 1.361 . S
C20 C28 1.457 . S
C21 N16 1.363 . S
C21 N18 1.377 . S
C21 C34 1.479 . S
C22 C19 1.480 . S
C22 C23 1.383 . S
C22 C27 1.385 . S
C23 H4 0.947 . S
C23 C22 1.383 . S
C23 C24 1.388 . S
C24 H5 0.946 . S
C24 C23 1.388 . S
C24 C25 1.384 . S
C25 C24 1.384 . S
C25 C26 1.377 . S
C26 H6 0.953 . S
C26 C25 1.377 . S
C26 C27 1.369 . S
C27 H7 0.945 . S
C27 C22 1.385 . S
C27 C26 1.369 . S
C28 C20 1.457 . S
C28 C29 1.372 . S
C28 C33 1.364 . S
C29 H8 0.952 . S
C29 C28 1.372 . S
C29 C30 1.389 . S
C30 H9 0.949 . S
C30 C29 1.389 . S
C30 C31 1.387 . S
C31 C30 1.387 . S
C31 C32 1.372 . S
C32 H10 0.950 . S
C32 C31 1.372 . S
C32 C33 1.379 . S
C33 H11 0.948 . S
C33 C28 1.364 . S
C33 C32 1.379 . S
C34 C3 1.383 . S
C34 C21 1.479 . S
C34 C35 1.398 . S
C35 C0 1.382 . S
C35 H12 0.951 . S
C35 C34 1.398 . S
C36 C37 1.384 . S
C36 H49 0.947 . S
C36 C71 1.382 . S
C37 C36 1.384 . S
C37 C38 1.378 . S
C38 C37 1.378 . S
C38 C39 1.378 . S
C38 H50 0.952 . S
C39 C38 1.378 . S
C39 H51 0.950 . S
C39 C70 1.383 . S
H40 C59 0.947 . S
H41 C60 0.946 . S
H42 C62 0.953 . S
H43 C63 0.945 . S
H44 C65 0.952 . S
H45 C66 0.949 . S
H46 C68 0.950 . S
H47 C69 0.948 . S
H48 C71 0.951 . S
H49 C36 0.947 . S
H50 C38 0.952 . S
H51 C39 0.950 . S
N52 C55 1.382 . S
N52 C57 1.363 . S
N53 C55 1.371 . S
N53 C56 1.372 . S
N54 C56 1.361 . S
N54 C57 1.377 . S
C55 N52 1.382 . S
C55 N53 1.371 . S
C55 C58 1.480 . S
C56 N53 1.372 . S
C56 N54 1.361 . S
C56 C64 1.457 . S
C57 N52 1.363 . S
C57 N54 1.377 . S
C57 C70 1.479 . S
C58 C55 1.480 . S
C58 C59 1.383 . S
C58 C63 1.385 . S
C59 H40 0.947 . S
C59 C58 1.383 . S
C59 C60 1.388 . S
C60 H41 0.946 . S
C60 C59 1.388 . S
C60 C61 1.384 . S
C61 C60 1.384 . S
C61 C62 1.377 . S
C62 H42 0.953 . S
C62 C61 1.377 . S
C62 C63 1.369 . S
C63 H43 0.945 . S
C63 C58 1.385 . S
C63 C62 1.369 . S
C64 C56 1.457 . S
C64 C65 1.372 . S
C64 C69 1.364 . S
C65 H44 0.952 . S
C65 C64 1.372 . S
C65 C66 1.389 . S
C66 H45 0.949 . S
C66 C65 1.389 . S
C66 C67 1.387 . S
C67 C66 1.387 . S
C67 C68 1.372 . S
C68 H46 0.950 . S
C68 C67 1.372 . S
C68 C69 1.379 . S
C69 H47 0.948 . S
C69 C64 1.364 . S
C69 C68 1.379 . S
C70 C39 1.383 . S
C70 C57 1.479 . S
C70 C71 1.398 . S
C71 C36 1.382 . S
C71 H48 0.951 . S
C71 C70 1.398 . S
C72 C73 1.384 . S
C72 H85 0.947 . S
C72 C107 1.382 . S
C73 C72 1.384 . S
C73 C74 1.378 . S
C74 C73 1.378 . S
C74 C75 1.378 . S
C74 H86 0.952 . S
C75 C74 1.378 . S
C75 H87 0.950 . S
C75 C106 1.383 . S
H76 C95 0.947 . S
H77 C96 0.946 . S
H78 C98 0.953 . S
H79 C99 0.945 . S
H80 C101 0.952 . S
H81 C102 0.949 . S
H82 C104 0.950 . S
H83 C105 0.948 . S
H84 C107 0.951 . S
H85 C72 0.947 . S
H86 C74 0.952 . S
H87 C75 0.950 . S
N88 C91 1.382 . S
N88 C93 1.363 . S
N89 C91 1.371 . S
N89 C92 1.372 . S
N90 C92 1.361 . S
N90 C93 1.377 . S
C91 N88 1.382 . S
C91 N89 1.371 . S
C91 C94 1.480 . S
C92 N89 1.372 . S
C92 N90 1.361 . S
C92 C100 1.457 . S
C93 N88 1.363 . S
C93 N90 1.377 . S
C93 C106 1.479 . S
C94 C91 1.480 . S
C94 C95 1.383 . S
C94 C99 1.385 . S
C95 H76 0.947 . S
C95 C94 1.383 . S
C95 C96 1.388 . S
C96 H77 0.946 . S
C96 C95 1.388 . S
C96 C97 1.384 . S
C97 C96 1.384 . S
C97 C98 1.377 . S
C98 H78 0.953 . S
C98 C97 1.377 . S
C98 C99 1.369 . S
C99 H79 0.945 . S
C99 C94 1.385 . S
C99 C98 1.369 . S
C100 C92 1.457 . S
C100 C101 1.372 . S
C100 C105 1.364 . S
C101 H80 0.952 . S
C101 C100 1.372 . S
C101 C102 1.389 . S
C102 H81 0.949 . S
C102 C101 1.389 . S
C102 C103 1.387 . S
C103 C102 1.387 . S
C103 C104 1.372 . S
C104 H82 0.950 . S
C104 C103 1.372 . S
C104 C105 1.379 . S
C105 H83 0.948 . S
C105 C100 1.364 . S
C105 C104 1.379 . S
C106 C75 1.383 . S
C106 C93 1.479 . S
C106 C107 1.398 . S
C107 C72 1.382 . S
C107 H84 0.951 . S
C107 C106 1.398 . S
C108 C109 1.384 . S
C108 H121 0.947 . S
C108 C143 1.382 . S
C109 C108 1.384 . S
C109 C110 1.378 . S
C110 C109 1.378 . S
C110 C111 1.378 . S
C110 H122 0.952 . S
C111 C110 1.378 . S
C111 H123 0.950 . S
C111 C142 1.383 . S
H112 C131 0.947 . S
H113 C132 0.946 . S
H114 C134 0.953 . S
H115 C135 0.945 . S
H116 C137 0.952 . S
H117 C138 0.949 . S
H118 C140 0.950 . S
H119 C141 0.948 . S
H120 C143 0.951 . S
H121 C108 0.947 . S
H122 C110 0.952 . S
H123 C111 0.950 . S
N124 C127 1.382 . S
N124 C129 1.363 . S
N125 C127 1.371 . S
N125 C128 1.372 . S
N126 C128 1.361 . S
N126 C129 1.377 . S
C127 N124 1.382 . S
C127 N125 1.371 . S
C127 C130 1.480 . S
C128 N125 1.372 . S
C128 N126 1.361 . S
C128 C136 1.457 . S
C129 N124 1.363 . S
C129 N126 1.377 . S
C129 C142 1.479 . S
C130 C127 1.480 . S
C130 C131 1.383 . S
C130 C135 1.385 . S
C131 H112 0.947 . S
C131 C130 1.383 . S
C131 C132 1.388 . S
C132 H113 0.946 . S
C132 C131 1.388 . S
C132 C133 1.384 . S
C133 C132 1.384 . S
C133 C134 1.377 . S
C134 H114 0.953 . S
C134 C133 1.377 . S
C134 C135 1.369 . S
C135 H115 0.945 . S
C135 C130 1.385 . S
C135 C134 1.369 . S
C136 C128 1.457 . S
C136 C137 1.372 . S
C136 C141 1.364 . S
C137 H116 0.952 . S
C137 C136 1.372 . S
C137 C138 1.389 . S
C138 H117 0.949 . S
C138 C137 1.389 . S
C138 C139 1.387 . S
C139 C138 1.387 . S
C139 C140 1.372 . S
C140 H118 0.950 . S
C140 C139 1.372 . S
C140 C141 1.379 . S
C141 H119 0.948 . S
C141 C136 1.364 . S
C141 C140 1.379 . S
C142 C111 1.383 . S
C142 C129 1.479 . S
C142 C143 1.398 . S
C143 C108 1.382 . S
C143 H120 0.951 . S
C143 C142 1.398 . S
C144 C145 1.384 . S
C144 H157 0.947 . S
C144 C179 1.382 . S
C145 C144 1.384 . S
C145 C146 1.378 . S
C146 C145 1.378 . S
C146 C147 1.378 . S
C146 H158 0.952 . S
C147 C146 1.378 . S
C147 H159 0.950 . S
C147 C178 1.383 . S
H148 C167 0.947 . S
H149 C168 0.946 . S
H150 C170 0.953 . S
H151 C171 0.945 . S
H152 C173 0.952 . S
H153 C174 0.949 . S
H154 C176 0.950 . S
H155 C177 0.948 . S
H156 C179 0.951 . S
H157 C144 0.947 . S
H158 C146 0.952 . S
H159 C147 0.950 . S
N160 C163 1.382 . S
N160 C165 1.363 . S
N161 C163 1.371 . S
N161 C164 1.372 . S
N162 C164 1.361 . S
N162 C165 1.377 . S
C163 N160 1.382 . S
C163 N161 1.371 . S
C163 C166 1.480 . S
C164 N161 1.372 . S
C164 N162 1.361 . S
C164 C172 1.457 . S
C165 N160 1.363 . S
C165 N162 1.377 . S
C165 C178 1.479 . S
C166 C163 1.480 . S
C166 C167 1.383 . S
C166 C171 1.385 . S
C167 H148 0.947 . S
C167 C166 1.383 . S
C167 C168 1.388 . S
C168 H149 0.946 . S
C168 C167 1.388 . S
C168 C169 1.384 . S
C169 C168 1.384 . S
C169 C170 1.377 . S
C170 H150 0.953 . S
C170 C169 1.377 . S
C170 C171 1.369 . S
C171 H151 0.945 . S
C171 C166 1.385 . S
C171 C170 1.369 . S
C172 C164 1.457 . S
C172 C173 1.372 . S
C172 C177 1.364 . S
C173 H152 0.952 . S
C173 C172 1.372 . S
C173 C174 1.389 . S
C174 H153 0.949 . S
C174 C173 1.389 . S
C174 C175 1.387 . S
C175 C174 1.387 . S
C175 C176 1.372 . S
C176 H154 0.950 . S
C176 C175 1.372 . S
C176 C177 1.379 . S
C177 H155 0.948 . S
C177 C172 1.364 . S
C177 C176 1.379 . S
C178 C147 1.383 . S
C178 C165 1.479 . S
C178 C179 1.398 . S
C179 C144 1.382 . S
C179 H156 0.951 . S
C179 C178 1.398 . S
C180 C181 1.384 . S
C180 H193 0.947 . S
C180 C215 1.382 . S
C181 C180 1.384 . S
C181 C182 1.378 . S
C182 C181 1.378 . S
C182 C183 1.378 . S
C182 H194 0.952 . S
C183 C182 1.378 . S
C183 H195 0.950 . S
C183 C214 1.383 . S
H184 C203 0.947 . S
H185 C204 0.946 . S
H186 C206 0.953 . S
H187 C207 0.945 . S
H188 C209 0.952 . S
H189 C210 0.949 . S
H190 C212 0.950 . S
H191 C213 0.948 . S
H192 C215 0.951 . S
H193 C180 0.947 . S
H194 C182 0.952 . S
H195 C183 0.950 . S
N196 C199 1.382 . S
N196 C201 1.363 . S
N197 C199 1.371 . S
N197 C200 1.372 . S
N198 C200 1.361 . S
N198 C201 1.377 . S
C199 N196 1.382 . S
C199 N197 1.371 . S
C199 C202 1.480 . S
C200 N197 1.372 . S
C200 N198 1.361 . S
C200 C208 1.457 . S
C201 N196 1.363 . S
C201 N198 1.377 . S
C201 C214 1.479 . S
C202 C199 1.480 . S
C202 C203 1.383 . S
C202 C207 1.385 . S
C203 H184 0.947 . S
C203 C202 1.383 . S
C203 C204 1.388 . S
C204 H185 0.946 . S
C204 C203 1.388 . S
C204 C205 1.384 . S
C205 C204 1.384 . S
C205 C206 1.377 . S
C206 H186 0.953 . S
C206 C205 1.377 . S
C206 C207 1.369 . S
C207 H187 0.945 . S
C207 C202 1.385 . S
C207 C206 1.369 . S
C208 C200 1.457 . S
C208 C209 1.372 . S
C208 C213 1.364 . S
C209 H188 0.952 . S
C209 C208 1.372 . S
C209 C210 1.389 . S
C210 H189 0.949 . S
C210 C209 1.389 . S
C210 C211 1.387 . S
C211 C210 1.387 . S
C211 C212 1.372 . S
C212 H190 0.950 . S
C212 C211 1.372 . S
C212 C213 1.379 . S
C213 H191 0.948 . S
C213 C208 1.364 . S
C213 C212 1.379 . S
C214 C183 1.383 . S
C214 C201 1.479 . S
C214 C215 1.398 . S
C215 C180 1.382 . S
C215 H192 0.951 . S
C215 C214 1.398 . S
C216 C217 1.384 . S
C216 H229 0.947 . S
C216 C251 1.382 . S
C217 C216 1.384 . S
C217 C218 1.378 . S
C218 C217 1.378 . S
C218 C219 1.378 . S
C218 H230 0.952 . S
C219 C218 1.378 . S
C219 H231 0.950 . S
C219 C250 1.383 . S
H220 C239 0.947 . S
H221 C240 0.946 . S
H222 C242 0.953 . S
H223 C243 0.945 . S
H224 C245 0.952 . S
H225 C246 0.949 . S
H226 C248 0.950 . S
H227 C249 0.948 . S
H228 C251 0.951 . S
H229 C216 0.947 . S
H230 C218 0.952 . S
H231 C219 0.950 . S
N232 C235 1.382 . S
N232 C237 1.363 . S
N233 C235 1.371 . S
N233 C236 1.372 . S
N234 C236 1.361 . S
N234 C237 1.377 . S
C235 N232 1.382 . S
C235 N233 1.371 . S
C235 C238 1.480 . S
C236 N233 1.372 . S
C236 N234 1.361 . S
C236 C244 1.457 . S
C237 N232 1.363 . S
C237 N234 1.377 . S
C237 C250 1.479 . S
C238 C235 1.480 . S
C238 C239 1.383 . S
C238 C243 1.385 . S
C239 H220 0.947 . S
C239 C238 1.383 . S
C239 C240 1.388 . S
C240 H221 0.946 . S
C240 C239 1.388 . S
C240 C241 1.384 . S
C241 C240 1.384 . S
C241 C242 1.377 . S
C242 H222 0.953 . S
C242 C241 1.377 . S
C242 C243 1.369 . S
C243 H223 0.945 . S
C243 C238 1.385 . S
C243 C242 1.369 . S
C244 C236 1.457 . S
C244 C245 1.372 . S
C244 C249 1.364 . S
C245 H224 0.952 . S
C245 C244 1.372 . S
C245 C246 1.389 . S
C246 H225 0.949 . S
C246 C245 1.389 . S
C246 C247 1.387 . S
C247 C246 1.387 . S
C247 C248 1.372 . S
C248 H226 0.950 . S
C248 C247 1.372 . S
C248 C249 1.379 . S
C249 H227 0.948 . S
C249 C244 1.364 . S
C249 C248 1.379 . S
C250 C219 1.383 . S
C250 C237 1.479 . S
C250 C251 1.398 . S
C251 C216 1.382 . S
C251 H228 0.951 . S
C251 C250 1.398 . S
C252 C253 1.384 . S
C252 H265 0.947 . S
C252 C287 1.382 . S
C253 C252 1.384 . S
C253 C254 1.378 . S
C254 C253 1.378 . S
C254 C255 1.378 . S
C254 H266 0.952 . S
C255 C254 1.378 . S
C255 H267 0.950 . S
C255 C286 1.383 . S
H256 C275 0.947 . S
H257 C276 0.946 . S
H258 C278 0.953 . S
H259 C279 0.945 . S
H260 C281 0.952 . S
H261 C282 0.949 . S
H262 C284 0.950 . S
H263 C285 0.948 . S
H264 C287 0.951 . S
H265 C252 0.947 . S
H266 C254 0.952 . S
H267 C255 0.950 . S
N268 C271 1.382 . S
N268 C273 1.363 . S
N269 C271 1.371 . S
N269 C272 1.372 . S
N270 C272 1.361 . S
N270 C273 1.377 . S
C271 N268 1.382 . S
C271 N269 1.371 . S
C271 C274 1.480 . S
C272 N269 1.372 . S
C272 N270 1.361 . S
C272 C280 1.457 . S
C273 N268 1.363 . S
C273 N270 1.377 . S
C273 C286 1.479 . S
C274 C271 1.480 . S
C274 C275 1.383 . S
C274 C279 1.385 . S
C275 H256 0.947 . S
C275 C274 1.383 . S
C275 C276 1.388 . S
C276 H257 0.946 . S
C276 C275 1.388 . S
C276 C277 1.384 . S
C277 C276 1.384 . S
C277 C278 1.377 . S
C278 H258 0.953 . S
C278 C277 1.377 . S
C278 C279 1.369 . S
C279 H259 0.945 . S
C279 C274 1.385 . S
C279 C278 1.369 . S
C280 C272 1.457 . S
C280 C281 1.372 . S
C280 C285 1.364 . S
C281 H260 0.952 . S
C281 C280 1.372 . S
C281 C282 1.389 . S
C282 H261 0.949 . S
C282 C281 1.389 . S
C282 C283 1.387 . S
C283 C282 1.387 . S
C283 C284 1.372 . S
C284 H262 0.950 . S
C284 C283 1.372 . S
C284 C285 1.379 . S
C285 H263 0.948 . S
C285 C280 1.364 . S
C285 C284 1.379 . S
C286 C255 1.383 . S
C286 C273 1.479 . S
C286 C287 1.398 . S
C287 C252 1.382 . S
C287 H264 0.951 . S
C287 C286 1.398 . S
Nd288 C290 2.836 . S
Nd288 O308 2.500 . S
Nd288 O309 2.492 . S
Nd288 O310 2.487 1_565 S
Nd288 O311 2.682 1_565 S
Nd288 O312 2.410 . S
Nd288 O317 2.414 1_455 S
Nd288 O319 2.424 1_565 S
Nd289 C299 2.836 . S
Nd289 O311 2.414 1_655 S
Nd289 O313 2.424 1_545 S
Nd289 O314 2.500 . S
Nd289 O315 2.492 . S
Nd289 O316 2.487 1_545 S
Nd289 O317 2.682 1_545 S
Nd289 O318 2.410 . S
C290 Nd288 2.836 . S
C290 C291 1.498 . S
C290 O308 1.258 . S
C290 O309 1.239 . S
C291 C290 1.498 . S
C291 C292 1.366 . S
C291 C296 1.407 . S
C292 C291 1.366 . S
C292 C293 1.392 . S
C292 H320 0.930 . S
C293 C292 1.392 . S
C293 C294 1.398 . S
C293 H321 0.929 . S
C294 C293 1.398 . S
C294 C295 1.352 . S
C295 C294 1.352 . S
C295 C296 1.384 . S
C295 H322 0.930 . S
C296 C291 1.407 . S
C296 C295 1.384 . S
C296 H323 0.929 . S
C297 O310 1.241 . S
C297 O311 1.273 . S
C298 O312 1.251 1_655 S
C298 O313 1.268 . S
C299 Nd289 2.836 . S
C299 C300 1.498 . S
C299 O314 1.258 . S
C299 O315 1.239 . S
C300 C299 1.498 . S
C300 C301 1.366 . S
C300 C305 1.407 . S
C301 C300 1.366 . S
C301 C302 1.392 . S
C301 H324 0.930 . S
C302 C301 1.392 . S
C302 C303 1.398 . S
C302 H325 0.929 . S
C303 C302 1.398 . S
C303 C304 1.352 . S
C304 C303 1.352 . S
C304 C305 1.384 . S
C304 H326 0.930 . S
C305 C300 1.407 . S
C305 C304 1.384 . S
C305 H327 0.929 . S
C306 O316 1.241 . S
C306 O317 1.273 . S
C307 O318 1.251 1_455 S
C307 O319 1.268 . S
O308 Nd288 2.500 . S
O308 C290 1.258 . S
O309 Nd288 2.492 . S
O309 C290 1.239 . S
O310 Nd288 2.487 1_545 S
O310 C297 1.241 . S
O311 Nd288 2.682 1_545 S
O311 Nd289 2.414 1_455 S
O311 C297 1.273 . S
O312 Nd288 2.410 . S
O312 C298 1.251 1_455 S
O313 Nd289 2.424 1_565 S
O313 C298 1.268 . S
O314 Nd289 2.500 . S
O314 C299 1.258 . S
O315 Nd289 2.492 . S
O315 C299 1.239 . S
O316 Nd289 2.487 1_565 S
O316 C306 1.241 . S
O317 Nd288 2.414 1_655 S
O317 Nd289 2.682 1_565 S
O317 C306 1.273 . S
O318 Nd289 2.410 . S
O318 C307 1.251 1_655 S
O319 Nd288 2.424 1_545 S
O319 C307 1.268 . S
H320 C292 0.930 . S
H321 C293 0.929 . S
H322 C295 0.930 . S
H323 C296 0.929 . S
H324 C301 0.930 . S
H325 C302 0.929 . S
H326 C304 0.930 . S
H327 C305 0.929 . S
Nd328 C330 2.836 . S
Nd328 O348 2.500 . S
Nd328 O349 2.492 . S
Nd328 O350 2.487 1_565 S
Nd328 O351 2.682 1_565 S
Nd328 O352 2.410 1_554 S
Nd328 O357 2.414 1_554 S
Nd328 O359 2.424 1_565 S
Nd329 C339 2.836 . S
Nd329 O351 2.414 1_556 S
Nd329 O353 2.424 1_545 S
Nd329 O354 2.500 . S
Nd329 O355 2.492 . S
Nd329 O356 2.487 1_545 S
Nd329 O357 2.682 1_545 S
Nd329 O358 2.410 1_556 S
C330 Nd328 2.836 . S
C330 C331 1.498 . S
C330 O348 1.258 . S
C330 O349 1.239 . S
C331 C330 1.498 . S
C331 C332 1.366 . S
C331 C336 1.407 . S
C332 C331 1.366 . S
C332 C333 1.392 . S
C332 H360 0.930 . S
C333 C332 1.392 . S
C333 C334 1.398 . S
C333 H361 0.929 . S
C334 C333 1.398 . S
C334 C335 1.352 . S
C335 C334 1.352 . S
C335 C336 1.384 . S
C335 H362 0.930 . S
C336 C331 1.407 . S
C336 C335 1.384 . S
C336 H363 0.929 . S
C337 O350 1.241 . S
C337 O351 1.273 . S
C338 O352 1.251 . S
C338 O353 1.268 . S
C339 Nd329 2.836 . S
C339 C340 1.498 . S
C339 O354 1.258 . S
C339 O355 1.239 . S
C340 C339 1.498 . S
C340 C341 1.366 . S
C340 C345 1.407 . S
C341 C340 1.366 . S
C341 C342 1.392 . S
C341 H364 0.930 . S
C342 C341 1.392 . S
C342 C343 1.398 . S
C342 H365 0.929 . S
C343 C342 1.398 . S
C343 C344 1.352 . S
C344 C343 1.352 . S
C344 C345 1.384 . S
C344 H366 0.930 . S
C345 C340 1.407 . S
C345 C344 1.384 . S
C345 H367 0.929 . S
C346 O356 1.241 . S
C346 O357 1.273 . S
C347 O358 1.251 . S
C347 O359 1.268 . S
O348 Nd328 2.500 . S
O348 C330 1.258 . S
O349 Nd328 2.492 . S
O349 C330 1.239 . S
O350 Nd328 2.487 1_545 S
O350 C337 1.241 . S
O351 Nd328 2.682 1_545 S
O351 Nd329 2.414 1_554 S
O351 C337 1.273 . S
O352 Nd328 2.410 1_556 S
O352 C338 1.251 . S
O353 Nd329 2.424 1_565 S
O353 C338 1.268 . S
O354 Nd329 2.500 . S
O354 C339 1.258 . S
O355 Nd329 2.492 . S
O355 C339 1.239 . S
O356 Nd329 2.487 1_565 S
O356 C346 1.241 . S
O357 Nd328 2.414 1_556 S
O357 Nd329 2.682 1_565 S
O357 C346 1.273 . S
O358 Nd329 2.410 1_554 S
O358 C347 1.251 . S
O359 Nd328 2.424 1_545 S
O359 C347 1.268 . S
H360 C332 0.930 . S
H361 C333 0.929 . S
H362 C335 0.930 . S
H363 C336 0.929 . S
H364 C341 0.930 . S
H365 C342 0.929 . S
H366 C344 0.930 . S
H367 C345 0.929 . S
Nd368 C370 2.836 . S
Nd368 O388 2.500 . S
Nd368 O389 2.492 . S
Nd368 O390 2.487 . S
Nd368 O391 2.682 . S
Nd368 O392 2.410 . S
Nd368 O397 2.414 . S
Nd368 O399 2.424 . S
Nd369 C379 2.836 . S
Nd369 O391 2.414 . S
Nd369 O393 2.424 . S
Nd369 O394 2.500 . S
Nd369 O395 2.492 . S
Nd369 O396 2.487 . S
Nd369 O397 2.682 . S
Nd369 O398 2.410 . S
C370 Nd368 2.836 . S
C370 C371 1.498 . S
C370 O388 1.258 . S
C370 O389 1.239 . S
C371 C370 1.498 . S
C371 C372 1.366 . S
C371 C376 1.407 . S
C372 C371 1.366 . S
C372 C373 1.392 . S
C372 H400 0.930 . S
C373 C372 1.392 . S
C373 C374 1.398 . S
C373 H401 0.929 . S
C374 C373 1.398 . S
C374 C375 1.352 . S
C375 C374 1.352 . S
C375 C376 1.384 . S
C375 H402 0.930 . S
C376 C371 1.407 . S
C376 C375 1.384 . S
C376 H403 0.929 . S
C377 O390 1.241 . S
C377 O391 1.273 . S
C378 O392 1.251 . S
C378 O393 1.268 . S
C379 Nd369 2.836 . S
C379 C380 1.498 . S
C379 O394 1.258 . S
C379 O395 1.239 . S
C380 C379 1.498 . S
C380 C381 1.366 . S
C380 C385 1.407 . S
C381 C380 1.366 . S
C381 C382 1.392 . S
C381 H404 0.930 . S
C382 C381 1.392 . S
C382 C383 1.398 . S
C382 H405 0.929 . S
C383 C382 1.398 . S
C383 C384 1.352 . S
C384 C383 1.352 . S
C384 C385 1.384 . S
C384 H406 0.930 . S
C385 C380 1.407 . S
C385 C384 1.384 . S
C385 H407 0.929 . S
C386 O396 1.241 . S
C386 O397 1.273 . S
C387 O398 1.251 . S
C387 O399 1.268 . S
O388 Nd368 2.500 . S
O388 C370 1.258 . S
O389 Nd368 2.492 . S
O389 C370 1.239 . S
O390 Nd368 2.487 . S
O390 C377 1.241 . S
O391 Nd368 2.682 . S
O391 Nd369 2.414 . S
O391 C377 1.273 . S
O392 Nd368 2.410 . S
O392 C378 1.251 . S
O393 Nd369 2.424 . S
O393 C378 1.268 . S
O394 Nd369 2.500 . S
O394 C379 1.258 . S
O395 Nd369 2.492 . S
O395 C379 1.239 . S
O396 Nd369 2.487 . S
O396 C386 1.241 . S
O397 Nd368 2.414 . S
O397 Nd369 2.682 . S
O397 C386 1.273 . S
O398 Nd369 2.410 . S
O398 C387 1.251 . S
O399 Nd368 2.424 . S
O399 C387 1.268 . S
H400 C372 0.930 . S
H401 C373 0.929 . S
H402 C375 0.930 . S
H403 C376 0.929 . S
H404 C381 0.930 . S
H405 C382 0.929 . S
H406 C384 0.930 . S
H407 C385 0.929 . S
Nd408 C410 2.836 . S
Nd408 O428 2.500 . S
Nd408 O429 2.492 . S
Nd408 O430 2.487 1_655 S
Nd408 O431 2.682 1_655 S
Nd408 O432 2.410 . S
Nd408 O437 2.414 1_554 S
Nd408 O439 2.424 1_655 S
Nd409 C419 2.836 . S
Nd409 O431 2.414 1_556 S
Nd409 O433 2.424 1_455 S
Nd409 O434 2.500 . S
Nd409 O435 2.492 . S
Nd409 O436 2.487 1_455 S
Nd409 O437 2.682 1_455 S
Nd409 O438 2.410 . S
C410 Nd408 2.836 . S
C410 C411 1.498 . S
C410 O428 1.258 . S
C410 O429 1.239 . S
C411 C410 1.498 . S
C411 C412 1.366 . S
C411 C416 1.407 . S
C412 C411 1.366 . S
C412 C413 1.392 . S
C412 H440 0.930 . S
C413 C412 1.392 . S
C413 C414 1.398 . S
C413 H441 0.929 . S
C414 C413 1.398 . S
C414 C415 1.352 . S
C415 C414 1.352 . S
C415 C416 1.384 . S
C415 H442 0.930 . S
C416 C411 1.407 . S
C416 C415 1.384 . S
C416 H443 0.929 . S
C417 O430 1.241 . S
C417 O431 1.273 . S
C418 O432 1.251 1_556 S
C418 O433 1.268 . S
C419 Nd409 2.836 . S
C419 C420 1.498 . S
C419 O434 1.258 . S
C419 O435 1.239 . S
C420 C419 1.498 . S
C420 C421 1.366 . S
C420 C425 1.407 . S
C421 C420 1.366 . S
C421 C422 1.392 . S
C421 H444 0.930 . S
C422 C421 1.392 . S
C422 C423 1.398 . S
C422 H445 0.929 . S
C423 C422 1.398 . S
C423 C424 1.352 . S
C424 C423 1.352 . S
C424 C425 1.384 . S
C424 H446 0.930 . S
C425 C420 1.407 . S
C425 C424 1.384 . S
C425 H447 0.929 . S
C426 O436 1.241 . S
C426 O437 1.273 . S
C427 O438 1.251 1_554 S
C427 O439 1.268 . S
O428 Nd408 2.500 . S
O428 C410 1.258 . S
O429 Nd408 2.492 . S
O429 C410 1.239 . S
O430 Nd408 2.487 1_455 S
O430 C417 1.241 . S
O431 Nd408 2.682 1_455 S
O431 Nd409 2.414 1_554 S
O431 C417 1.273 . S
O432 Nd408 2.410 . S
O432 C418 1.251 1_554 S
O433 Nd409 2.424 1_655 S
O433 C418 1.268 . S
O434 Nd409 2.500 . S
O434 C419 1.258 . S
O435 Nd409 2.492 . S
O435 C419 1.239 . S
O436 Nd409 2.487 1_655 S
O436 C426 1.241 . S
O437 Nd408 2.414 1_556 S
O437 Nd409 2.682 1_655 S
O437 C426 1.273 . S
O438 Nd409 2.410 . S
O438 C427 1.251 1_556 S
O439 Nd408 2.424 1_455 S
O439 C427 1.268 . S
H440 C412 0.930 . S
H441 C413 0.929 . S
H442 C415 0.930 . S
H443 C416 0.929 . S
H444 C421 0.930 . S
H445 C422 0.929 . S
H446 C424 0.930 . S
H447 C425 0.929 . S
H448 C454 0.930 . S
H449 C458 0.930 . S
H450 C463 0.929 . S
H451 C461 0.929 . S
H452 C456 0.929 . S
H453 C462 0.929 . S
C454 H448 0.930 . S
C454 C455 1.367 . S
C454 C462 1.378 . S
C455 C454 1.367 . S
C455 C463 1.433 . S
C456 H452 0.929 . S
C456 C458 1.378 . S
C456 C460 1.350 . S
C457 C460 1.463 . S
C457 C462 1.350 . S
C457 N465 1.427 . S
C458 H449 0.930 . S
C458 C456 1.378 . S
C458 C459 1.367 . S
C459 C458 1.367 . S
C459 C461 1.433 . S
C460 C456 1.350 . S
C460 C457 1.463 . S
C460 N464 1.427 . S
C461 H451 0.929 . S
C461 C459 1.433 . S
C461 N464 1.384 . S
C462 H453 0.929 . S
C462 C454 1.378 . S
C462 C457 1.350 . S
C463 H450 0.929 . S
C463 C455 1.433 . S
C463 N465 1.384 . S
N464 C460 1.427 . S
N464 C461 1.384 . S
N465 C457 1.427 . S
N465 C463 1.384 . S
H466 C472 0.930 . S
H467 C476 0.930 . S
H468 C481 0.929 . S
H469 C479 0.929 . S
H470 C474 0.929 . S
H471 C480 0.929 . S
C472 H466 0.930 . S
C472 C473 1.367 . S
C472 C480 1.378 . S
C473 C472 1.367 . S
C473 C481 1.433 . S
C474 H470 0.929 . S
C474 C476 1.378 . S
C474 C478 1.350 . S
C475 C478 1.463 . S
C475 C480 1.350 . S
C475 N483 1.427 . S
C476 H467 0.930 . S
C476 C474 1.378 . S
C476 C477 1.367 . S
C477 C476 1.367 . S
C477 C479 1.433 . S
C478 C474 1.350 . S
C478 C475 1.463 . S
C478 N482 1.427 . S
C479 H469 0.929 . S
C479 C477 1.433 . S
C479 N482 1.384 . S
C480 H471 0.929 . S
C480 C472 1.378 . S
C480 C475 1.350 . S
C481 H468 0.929 . S
C481 C473 1.433 . S
C481 N483 1.384 . S
N482 C478 1.427 . S
N482 C479 1.384 . S
N483 C475 1.427 . S
N483 C481 1.384 . S
H484 C490 0.930 . S
H485 C494 0.930 . S
H486 C499 0.929 . S
H487 C497 0.929 . S
H488 C492 0.929 . S
H489 C498 0.929 . S
C490 H484 0.930 . S
C490 C491 1.367 . S
C490 C498 1.378 . S
C491 C490 1.367 . S
C491 C499 1.433 . S
C492 H488 0.929 . S
C492 C494 1.378 . S
C492 C496 1.350 . S
C493 C496 1.463 . S
C493 C498 1.350 . S
C493 N501 1.427 . S
C494 H485 0.930 . S
C494 C492 1.378 . S
C494 C495 1.367 . S
C495 C494 1.367 . S
C495 C497 1.433 . S
C496 C492 1.350 . S
C496 C493 1.463 . S
C496 N500 1.427 . S
C497 H487 0.929 . S
C497 C495 1.433 . S
C497 N500 1.384 . S
C498 H489 0.929 . S
C498 C490 1.378 . S
C498 C493 1.350 . S
C499 H486 0.929 . S
C499 C491 1.433 . S
C499 N501 1.384 . S
N500 C496 1.427 . S
N500 C497 1.384 . S
N501 C493 1.427 . S
N501 C499 1.384 . S
H502 C508 0.930 . S
H503 C512 0.930 . S
H504 C517 0.929 . S
H505 C515 0.929 . S
H506 C510 0.929 . S
H507 C516 0.929 . S
C508 H502 0.930 . S
C508 C509 1.367 . S
C508 C516 1.378 . S
C509 C508 1.367 . S
C509 C517 1.433 . S
C510 H506 0.929 . S
C510 C512 1.378 . S
C510 C514 1.350 . S
C511 C514 1.463 . S
C511 C516 1.350 . S
C511 N519 1.427 . S
C512 H503 0.930 . S
C512 C510 1.378 . S
C512 C513 1.367 . S
C513 C512 1.367 . S
C513 C515 1.433 . S
C514 C510 1.350 . S
C514 C511 1.463 . S
C514 N518 1.427 . S
C515 H505 0.929 . S
C515 C513 1.433 . S
C515 N518 1.384 . S
C516 H507 0.929 . S
C516 C508 1.378 . S
C516 C511 1.350 . S
C517 H504 0.929 . S
C517 C509 1.433 . S
C517 N519 1.384 . S
N518 C514 1.427 . S
N518 C515 1.384 . S
N519 C511 1.427 . S
N519 C517 1.384 . S
H520 C526 0.930 . S
H521 C530 0.930 . S
H522 C535 0.929 . S
H523 C533 0.929 . S
H524 C528 0.929 . S
H525 C534 0.929 . S
C526 H520 0.930 . S
C526 C527 1.367 . S
C526 C534 1.378 . S
C527 C526 1.367 . S
C527 C535 1.433 . S
C528 H524 0.929 . S
C528 C530 1.378 . S
C528 C532 1.350 . S
C529 C532 1.463 . S
C529 C534 1.350 . S
C529 N537 1.427 . S
C530 H521 0.930 . S
C530 C528 1.378 . S
C530 C531 1.367 . S
C531 C530 1.367 . S
C531 C533 1.433 . S
C532 C528 1.350 . S
C532 C529 1.463 . S
C532 N536 1.427 . S
C533 H523 0.929 . S
C533 C531 1.433 . S
C533 N536 1.384 . S
C534 H525 0.929 . S
C534 C526 1.378 . S
C534 C529 1.350 . S
C535 H522 0.929 . S
C535 C527 1.433 . S
C535 N537 1.384 . S
N536 C532 1.427 . S
N536 C533 1.384 . S
N537 C529 1.427 . S
N537 C535 1.384 . S
H538 C544 0.930 . S
H539 C548 0.930 . S
H540 C553 0.929 . S
H541 C551 0.929 . S
H542 C546 0.929 . S
H543 C552 0.929 . S
C544 H538 0.930 . S
C544 C545 1.367 . S
C544 C552 1.378 . S
C545 C544 1.367 . S
C545 C553 1.433 . S
C546 H542 0.929 . S
C546 C548 1.378 . S
C546 C550 1.350 . S
C547 C550 1.463 . S
C547 C552 1.350 . S
C547 N555 1.427 . S
C548 H539 0.930 . S
C548 C546 1.378 . S
C548 C549 1.367 . S
C549 C548 1.367 . S
C549 C551 1.433 . S
C550 C546 1.350 . S
C550 C547 1.463 . S
C550 N554 1.427 . S
C551 H541 0.929 . S
C551 C549 1.433 . S
C551 N554 1.384 . S
C552 H543 0.929 . S
C552 C544 1.378 . S
C552 C547 1.350 . S
C553 H540 0.929 . S
C553 C545 1.433 . S
C553 N555 1.384 . S
N554 C550 1.427 . S
N554 C551 1.384 . S
N555 C547 1.427 . S
N555 C553 1.384 . S
H556 C562 0.930 . S
H557 C566 0.930 . S
H558 C571 0.929 . S
H559 C569 0.929 . S
H560 C564 0.929 . S
H561 C570 0.929 . S
C562 H556 0.930 . S
C562 C563 1.367 . S
C562 C570 1.378 . S
C563 C562 1.367 . S
C563 C571 1.433 . S
C564 H560 0.929 . S
C564 C566 1.378 . S
C564 C568 1.350 . S
C565 C568 1.463 . S
C565 C570 1.350 . S
C565 N573 1.427 . S
C566 H557 0.930 . S
C566 C564 1.378 . S
C566 C567 1.367 . S
C567 C566 1.367 . S
C567 C569 1.433 . S
C568 C564 1.350 . S
C568 C565 1.463 . S
C568 N572 1.427 . S
C569 H559 0.929 . S
C569 C567 1.433 . S
C569 N572 1.384 . S
C570 H561 0.929 . S
C570 C562 1.378 . S
C570 C565 1.350 . S
C571 H558 0.929 . S
C571 C563 1.433 . S
C571 N573 1.384 . S
N572 C568 1.427 . S
N572 C569 1.384 . S
N573 C565 1.427 . S
N573 C571 1.384 . S
H574 C580 0.930 . S
H575 C584 0.930 . S
H576 C589 0.929 . S
H577 C587 0.929 . S
H578 C582 0.929 . S
H579 C588 0.929 . S
C580 H574 0.930 . S
C580 C581 1.367 . S
C580 C588 1.378 . S
C581 C580 1.367 . S
C581 C589 1.433 . S
C582 H578 0.929 . S
C582 C584 1.378 . S
C582 C586 1.350 . S
C583 C586 1.463 . S
C583 C588 1.350 . S
C583 N591 1.427 . S
C584 H575 0.930 . S
C584 C582 1.378 . S
C584 C585 1.367 . S
C585 C584 1.367 . S
C585 C587 1.433 . S
C586 C582 1.350 . S
C586 C583 1.463 . S
C586 N590 1.427 . S
C587 H577 0.929 . S
C587 C585 1.433 . S
C587 N590 1.384 . S
C588 H579 0.929 . S
C588 C580 1.378 . S
C588 C583 1.350 . S
C589 H576 0.929 . S
C589 C581 1.433 . S
C589 N591 1.384 . S
N590 C586 1.427 . S
N590 C587 1.384 . S
N591 C583 1.427 . S
N591 C589 1.384 . S
H592 C598 0.930 . S
H593 C602 0.930 1_556 S
H594 C607 0.929 . S
H595 C605 0.929 . S
H596 C600 0.929 1_556 S
H597 C606 0.929 . S
C598 H592 0.930 . S
C598 C599 1.367 . S
C598 C606 1.378 . S
C599 C598 1.367 . S
C599 C607 1.433 . S
C600 H596 0.929 1_554 S
C600 C602 1.378 . S
C600 C604 1.350 . S
C601 C604 1.463 . S
C601 C606 1.350 . S
C601 N609 1.427 . S
C602 H593 0.930 1_554 S
C602 C600 1.378 . S
C602 C603 1.367 . S
C603 C602 1.367 . S
C603 C605 1.433 . S
C604 C600 1.350 . S
C604 C601 1.463 . S
C604 N608 1.427 . S
C605 H595 0.929 . S
C605 C603 1.433 . S
C605 N608 1.384 . S
C606 H597 0.929 . S
C606 C598 1.378 . S
C606 C601 1.350 . S
C607 H594 0.929 . S
C607 C599 1.433 . S
C607 N609 1.384 . S
N608 C604 1.427 . S
N608 C605 1.384 . S
N609 C601 1.427 . S
N609 C607 1.384 . S
H610 C616 0.930 . S
H611 C620 0.930 . S
H612 C625 0.929 . S
H613 C623 0.929 . S
H614 C618 0.929 . S
H615 C624 0.929 . S
C616 H610 0.930 . S
C616 C617 1.367 . S
C616 C624 1.378 . S
C617 C616 1.367 . S
C617 C625 1.433 . S
C618 H614 0.929 . S
C618 C620 1.378 . S
C618 C622 1.350 . S
C619 C622 1.463 . S
C619 C624 1.350 . S
C619 N627 1.427 . S
C620 H611 0.930 . S
C620 C618 1.378 . S
C620 C621 1.367 . S
C621 C620 1.367 . S
C621 C623 1.433 . S
C622 C618 1.350 . S
C622 C619 1.463 . S
C622 N626 1.427 . S
C623 H613 0.929 . S
C623 C621 1.433 . S
C623 N626 1.384 . S
C624 H615 0.929 . S
C624 C616 1.378 . S
C624 C619 1.350 . S
C625 H612 0.929 . S
C625 C617 1.433 . S
C625 N627 1.384 . S
N626 C622 1.427 . S
N626 C623 1.384 . S
N627 C619 1.427 . S
N627 C625 1.384 . S
H628 C634 0.930 . S
H629 C638 0.930 . S
H630 C643 0.929 . S
H631 C641 0.921 1_455 S
H632 C636 0.929 . S
H633 C642 0.929 . S
C634 H628 0.930 . S
C634 C635 1.367 . S
C634 C642 1.378 . S
C635 C634 1.367 . S
C635 C643 1.433 . S
C636 H632 0.929 . S
C636 C638 1.378 . S
C636 C640 1.350 . S
C637 C640 1.463 . S
C637 C642 1.350 . S
C637 N645 1.427 . S
C638 H629 0.930 . S
C638 C636 1.378 . S
C638 C639 1.367 . S
C639 C638 1.367 . S
C639 C641 1.433 . S
C640 C636 1.350 . S
C640 C637 1.463 . S
C640 N644 1.427 . S
C641 H631 0.921 1_655 S
C641 C639 1.433 . S
C641 N644 1.384 . S
C642 H633 0.929 . S
C642 C634 1.378 . S
C642 C637 1.350 . S
C643 H630 0.929 . S
C643 C635 1.433 . S
C643 N645 1.384 . S
N644 C640 1.427 . S
N644 C641 1.384 . S
N645 C637 1.427 . S
N645 C643 1.384 . S
H646 C652 0.930 . S
H647 C656 0.930 . S
H648 C661 0.929 . S
H649 C659 0.929 . S
H650 C654 0.929 . S
H651 C660 0.929 . S
C652 H646 0.930 . S
C652 C653 1.367 . S
C652 C660 1.378 . S
C653 C652 1.367 . S
C653 C661 1.433 . S
C654 H650 0.929 . S
C654 C656 1.378 . S
C654 C658 1.350 . S
C655 C658 1.463 . S
C655 C660 1.350 . S
C655 N663 1.427 . S
C656 H647 0.930 . S
C656 C654 1.378 . S
C656 C657 1.367 . S
C657 C656 1.367 . S
C657 C659 1.433 . S
C658 C654 1.350 . S
C658 C655 1.463 . S
C658 N662 1.427 . S
C659 H649 0.929 . S
C659 C657 1.433 . S
C659 N662 1.384 . S
C660 H651 0.929 . S
C660 C652 1.378 . S
C660 C655 1.350 . S
C661 H648 0.929 . S
C661 C653 1.433 . S
C661 N663 1.384 . S
N662 C658 1.427 . S
N662 C659 1.384 . S
N663 C655 1.427 . S
N663 C661 1.384 . S
H664 C670 0.930 . S
H665 C674 0.930 . S
H666 C679 0.929 . S
H667 C677 0.929 . S
H668 C672 0.929 . S
H669 C678 0.929 . S
C670 H664 0.930 . S
C670 C671 1.367 . S
C670 C678 1.378 . S
C671 C670 1.367 . S
C671 C679 1.433 . S
C672 H668 0.929 . S
C672 C674 1.378 . S
C672 C676 1.350 . S
C673 C676 1.463 . S
C673 C678 1.350 . S
C673 N681 1.427 . S
C674 H665 0.930 . S
C674 C672 1.378 . S
C674 C675 1.367 . S
C675 C674 1.367 . S
C675 C677 1.433 . S
C676 C672 1.350 . S
C676 C673 1.463 . S
C676 N680 1.427 . S
C677 H667 0.929 . S
C677 C675 1.433 . S
C677 N680 1.384 . S
C678 H669 0.929 . S
C678 C670 1.378 . S
C678 C673 1.350 . S
C679 H666 0.929 . S
C679 C671 1.433 . S
C679 N681 1.384 . S
N680 C676 1.427 . S
N680 C677 1.384 . S
N681 C673 1.427 . S
N681 C679 1.384 . S
H682 C688 0.930 . S
H683 C692 0.930 . S
H684 C697 0.929 . S
H685 C695 0.929 . S
H686 C690 0.929 . S
H687 C696 0.929 . S
C688 H682 0.930 . S
C688 C689 1.367 . S
C688 C696 1.378 . S
C689 C688 1.367 . S
C689 C697 1.433 . S
C690 H686 0.929 . S
C690 C692 1.378 . S
C690 C694 1.350 . S
C691 C694 1.463 . S
C691 C696 1.350 . S
C691 N699 1.427 . S
C692 H683 0.930 . S
C692 C690 1.378 . S
C692 C693 1.367 . S
C693 C692 1.367 . S
C693 C695 1.433 . S
C694 C690 1.350 . S
C694 C691 1.463 . S
C694 N698 1.427 . S
C695 H685 0.929 . S
C695 C693 1.433 . S
C695 N698 1.384 . S
C696 H687 0.929 . S
C696 C688 1.378 . S
C696 C691 1.350 . S
C697 H684 0.929 . S
C697 C689 1.433 . S
C697 N699 1.384 . S
N698 C694 1.427 . S
N698 C695 1.384 . S
N699 C691 1.427 . S
N699 C697 1.384 . S
H700 C706 0.930 . S
H701 C710 0.930 . S
H702 C715 0.929 . S
H703 C713 0.929 . S
H704 C708 0.929 . S
H705 C714 0.929 . S
C706 H700 0.930 . S
C706 C707 1.367 . S
C706 C714 1.378 . S
C707 C706 1.367 . S
C707 C715 1.433 . S
C708 H704 0.929 . S
C708 C710 1.378 . S
C708 C712 1.350 . S
C709 C712 1.463 . S
C709 C714 1.350 . S
C709 N717 1.427 . S
C710 H701 0.930 . S
C710 C708 1.378 . S
C710 C711 1.367 . S
C711 C710 1.367 . S
C711 C713 1.433 . S
C712 C708 1.350 . S
C712 C709 1.463 . S
C712 N716 1.427 . S
C713 H703 0.929 . S
C713 C711 1.433 . S
C713 N716 1.384 . S
C714 H705 0.929 . S
C714 C706 1.378 . S
C714 C709 1.350 . S
C715 H702 0.929 . S
C715 C707 1.433 . S
C715 N717 1.384 . S
N716 C712 1.427 . S
N716 C713 1.384 . S
N717 C709 1.427 . S
N717 C715 1.384 . S
H718 C724 0.930 . S
H719 C728 0.930 . S
H720 C733 0.929 . S
H721 C731 0.929 . S
H722 C726 0.929 . S
H723 C732 0.929 . S
C724 H718 0.930 . S
C724 C725 1.367 . S
C724 C732 1.378 . S
C725 C724 1.367 . S
C725 C733 1.433 . S
C726 H722 0.929 . S
C726 C728 1.378 . S
C726 C730 1.350 . S
C727 C730 1.463 . S
C727 C732 1.350 . S
C727 N735 1.427 . S
C728 H719 0.930 . S
C728 C726 1.378 . S
C728 C729 1.367 . S
C729 C728 1.367 . S
C729 C731 1.433 . S
C730 C726 1.350 . S
C730 C727 1.463 . S
C730 N734 1.427 . S
C731 H721 0.929 . S
C731 C729 1.433 . S
C731 N734 1.384 . S
C732 H723 0.929 . S
C732 C724 1.378 . S
C732 C727 1.350 . S
C733 H720 0.929 . S
C733 C725 1.433 . S
C733 N735 1.384 . S
N734 C730 1.427 . S
N734 C731 1.384 . S
N735 C727 1.427 . S
N735 C733 1.384 . S
H736 C742 0.930 . S
H737 C746 0.930 . S
H738 C751 0.929 . S
H739 C749 0.929 . S
H740 C744 0.929 . S
H741 C750 0.929 . S
C742 H736 0.930 . S
C742 C743 1.367 . S
C742 C750 1.378 . S
C743 C742 1.367 . S
C743 C751 1.433 . S
C744 H740 0.929 . S
C744 C746 1.378 . S
C744 C748 1.350 . S
C745 C748 1.463 . S
C745 C750 1.350 . S
C745 N753 1.427 . S
C746 H737 0.930 . S
C746 C744 1.378 . S
C746 C747 1.367 . S
C747 C746 1.367 . S
C747 C749 1.433 . S
C748 C744 1.350 . S
C748 C745 1.463 . S
C748 N752 1.427 . S
C749 H739 0.929 . S
C749 C747 1.433 . S
C749 N752 1.384 . S
C750 H741 0.929 . S
C750 C742 1.378 . S
C750 C745 1.350 . S
C751 H738 0.929 . S
C751 C743 1.433 . S
C751 N753 1.384 . S
N752 C748 1.427 . S
N752 C749 1.384 . S
N753 C745 1.427 . S
N753 C751 1.384 . S
H754 C760 0.930 . S
H755 C764 0.930 . S
H756 C769 0.929 . S
H757 C767 0.929 . S
H758 C762 0.929 . S
H759 C768 0.929 . S
C760 H754 0.930 . S
C760 C761 1.367 . S
C760 C768 1.378 . S
C761 C760 1.367 . S
C761 C769 1.433 . S
C762 H758 0.929 . S
C762 C764 1.378 . S
C762 C766 1.350 . S
C763 C766 1.463 . S
C763 C768 1.350 . S
C763 N771 1.427 . S
C764 H755 0.930 . S
C764 C762 1.378 . S
C764 C765 1.367 . S
C765 C764 1.367 . S
C765 C767 1.433 . S
C766 C762 1.350 . S
C766 C763 1.463 . S
C766 N770 1.427 . S
C767 H757 0.929 . S
C767 C765 1.433 . S
C767 N770 1.384 . S
C768 H759 0.929 . S
C768 C760 1.378 . S
C768 C763 1.350 . S
C769 H756 0.929 . S
C769 C761 1.433 . S
C769 N771 1.384 . S
N770 C766 1.427 . S
N770 C767 1.384 . S
N771 C763 1.427 . S
N771 C769 1.384 . S
H772 C778 0.930 . S
H773 C782 0.930 1_556 S
H774 C787 0.929 . S
H775 C785 0.929 . S
H776 C780 0.929 . S
H777 C786 0.929 . S
C778 H772 0.930 . S
C778 C779 1.367 . S
C778 C786 1.378 . S
C779 C778 1.367 . S
C779 C787 1.433 . S
C780 H776 0.929 . S
C780 C782 1.378 . S
C780 C784 1.350 . S
C781 C784 1.463 . S
C781 C786 1.350 . S
C781 N789 1.427 . S
C782 H773 0.930 1_554 S
C782 C780 1.378 . S
C782 C783 1.367 . S
C783 C782 1.367 . S
C783 C785 1.433 . S
C784 C780 1.350 . S
C784 C781 1.463 . S
C784 N788 1.427 . S
C785 H775 0.929 . S
C785 C783 1.433 . S
C785 N788 1.384 . S
C786 H777 0.929 . S
C786 C778 1.378 . S
C786 C781 1.350 . S
C787 H774 0.929 . S
C787 C779 1.433 . S
C787 N789 1.384 . S
N788 C784 1.427 . S
N788 C785 1.384 . S
N789 C781 1.427 . S
N789 C787 1.384 . S
H790 C796 0.930 . S
H791 C800 0.930 . S
H792 C805 0.929 . S
H793 C803 0.929 . S
H794 C798 0.929 . S
H795 C804 0.929 . S
C796 H790 0.930 . S
C796 C797 1.367 . S
C796 C804 1.378 . S
C797 C796 1.367 . S
C797 C805 1.433 . S
C798 H794 0.929 . S
C798 C800 1.378 . S
C798 C802 1.350 . S
C799 C802 1.463 . S
C799 C804 1.350 . S
C799 N807 1.427 . S
C800 H791 0.930 . S
C800 C798 1.378 . S
C800 C801 1.367 . S
C801 C800 1.367 . S
C801 C803 1.433 . S
C802 C798 1.350 . S
C802 C799 1.463 . S
C802 N806 1.427 . S
C803 H793 0.929 . S
C803 C801 1.433 . S
C803 N806 1.384 . S
C804 H795 0.929 . S
C804 C796 1.378 . S
C804 C799 1.350 . S
C805 H792 0.929 . S
C805 C797 1.433 . S
C805 N807 1.384 . S
N806 C802 1.427 . S
N806 C803 1.384 . S
N807 C799 1.427 . S
N807 C805 1.384 . S
H808 C814 0.930 . S
H809 C818 0.930 1_554 S
H810 C823 0.929 . S
H811 C821 0.929 . S
H812 C816 0.929 . S
H813 C822 0.929 . S
C814 H808 0.930 . S
C814 C815 1.367 . S
C814 C822 1.378 . S
C815 C814 1.367 . S
C815 C823 1.433 . S
C816 H812 0.929 . S
C816 C818 1.378 . S
C816 C820 1.350 . S
C817 C820 1.463 . S
C817 C822 1.350 . S
C817 N825 1.427 . S
C818 H809 0.930 1_556 S
C818 C816 1.378 . S
C818 C819 1.367 . S
C819 C818 1.367 . S
C819 C821 1.433 . S
C820 C816 1.350 . S
C820 C817 1.463 . S
C820 N824 1.427 . S
C821 H811 0.929 . S
C821 C819 1.433 . S
C821 N824 1.384 . S
C822 H813 0.929 . S
C822 C814 1.378 . S
C822 C817 1.350 . S
C823 H810 0.929 . S
C823 C815 1.433 . S
C823 N825 1.384 . S
N824 C820 1.427 . S
N824 C821 1.384 . S
N825 C817 1.427 . S
N825 C823 1.384 . S
H826 C832 0.930 . S
H827 C836 0.930 . S
H828 C841 0.929 . S
H829 C839 0.929 . S
H830 C834 0.929 . S
H831 C840 0.929 . S
C832 H826 0.930 . S
C832 C833 1.367 . S
C832 C840 1.378 . S
C833 C832 1.367 . S
C833 C841 1.433 . S
C834 H830 0.929 . S
C834 C836 1.378 . S
C834 C838 1.350 . S
C835 C838 1.463 . S
C835 C840 1.350 . S
C835 N843 1.427 . S
C836 H827 0.930 . S
C836 C834 1.378 . S
C836 C837 1.367 . S
C837 C836 1.367 . S
C837 C839 1.433 . S
C838 C834 1.350 . S
C838 C835 1.463 . S
C838 N842 1.427 . S
C839 H829 0.929 . S
C839 C837 1.433 . S
C839 N842 1.384 . S
C840 H831 0.929 . S
C840 C832 1.378 . S
C840 C835 1.350 . S
C841 H828 0.929 . S
C841 C833 1.433 . S
C841 N843 1.384 . S
N842 C838 1.427 . S
N842 C839 1.384 . S
N843 C835 1.427 . S
N843 C841 1.384 . S
H844 C850 0.930 . S
H845 C854 0.930 . S
H846 C859 0.929 . S
H847 C857 0.929 . S
H848 C852 0.929 . S
H849 C858 0.929 . S
C850 H844 0.930 . S
C850 C851 1.367 . S
C850 C858 1.378 . S
C851 C850 1.367 . S
C851 C859 1.433 . S
C852 H848 0.929 . S
C852 C854 1.378 . S
C852 C856 1.350 . S
C853 C856 1.463 . S
C853 C858 1.350 . S
C853 N861 1.427 . S
C854 H845 0.930 . S
C854 C852 1.378 . S
C854 C855 1.367 . S
C855 C854 1.367 . S
C855 C857 1.433 . S
C856 C852 1.350 . S
C856 C853 1.463 . S
C856 N860 1.427 . S
C857 H847 0.929 . S
C857 C855 1.433 . S
C857 N860 1.384 . S
C858 H849 0.929 . S
C858 C850 1.378 . S
C858 C853 1.350 . S
C859 H846 0.929 . S
C859 C851 1.433 . S
C859 N861 1.384 . S
N860 C856 1.427 . S
N860 C857 1.384 . S
N861 C853 1.427 . S
N861 C859 1.384 . S
H862 C868 0.930 . S
H863 C872 0.930 . S
H864 C877 0.929 . S
H865 C875 0.929 . S
H866 C870 0.929 . S
H867 C876 0.929 . S
C868 H862 0.930 . S
C868 C869 1.367 . S
C868 C876 1.378 . S
C869 C868 1.367 . S
C869 C877 1.433 . S
C870 H866 0.929 . S
C870 C872 1.378 . S
C870 C874 1.350 . S
C871 C874 1.463 . S
C871 C876 1.350 . S
C871 N879 1.427 . S
C872 H863 0.930 . S
C872 C870 1.378 . S
C872 C873 1.367 . S
C873 C872 1.367 . S
C873 C875 1.433 . S
C874 C870 1.350 . S
C874 C871 1.463 . S
C874 N878 1.427 . S
C875 H865 0.929 . S
C875 C873 1.433 . S
C875 N878 1.384 . S
C876 H867 0.929 . S
C876 C868 1.378 . S
C876 C871 1.350 . S
C877 H864 0.929 . S
C877 C869 1.433 . S
C877 N879 1.384 . S
N878 C874 1.427 . S
N878 C875 1.384 . S
N879 C871 1.427 . S
N879 C877 1.384 . S
C455 C1 2.891 . S
C459 C307 2.871 . S
C473 C67 2.444 . S
C477 C338 2.508 . S
C495 C377 1.352 . S
C491 C97 1.374 . S
C509 C133 0.481 . S
C513 C414 0.488 . S
C531 C337 2.817 . S
C527 C25 2.883 . S
C549 C294 1.520 . S
C545 C37 1.518 . S
C567 C426 1.427 . S
C563 C103 1.450 . S
C585 C383 1.055 . S
C581 C109 1.053 . S
C599 C31 2.284 . S
C603 C427 2.305 . S
C621 C343 1.288 . S
C617 C73 1.285 . S
C635 C139 0.558 . S
C639 C306 0.586 . S
C653 C61 2.548 . S
C657 C378 2.547 . S
C675 C298 2.879 . S
C671 C175 2.910 . S
C689 C181 2.445 . S
C693 C347 2.496 . S
C707 C247 1.417 . S
C711 C386 1.379 . S
C725 C277 0.497 . S
C729 C423 0.480 . S
C743 C145 2.900 . S
C747 C346 2.814 . S
C765 C303 1.528 . S
C761 C211 1.513 . S
C783 C417 1.416 . S
C779 C217 1.457 . S
C801 C374 1.074 . S
C797 C283 1.080 . S
C815 C169 2.292 . S
C819 C418 2.298 . S
C837 C334 1.286 . S
C833 C241 1.285 . S
C855 C297 0.595 . S
C851 C253 0.558 . S
C869 C205 2.549 . S
C873 C387 2.550 . S
