# Generated by pormake.
# Topology zzz, (3,6)-cn, num edge types: 1
# Building blocks:
#     Node 0, Type 0, BuildingBlock: BETDAH_clean_linker_0, # of connection points: 3
#     Node 1, Type 0, BuildingBlock: BETDAH_clean_linker_0, # of connection points: 3
#     Node 2, Type 0, BuildingBlock: BETDAH_clean_linker_0, # of connection points: 3
#     Node 3, Type 0, BuildingBlock: BETDAH_clean_linker_0, # of connection points: 3
#     Node 4, Type 0, BuildingBlock: BETDAH_clean_linker_0, # of connection points: 3
#     Node 5, Type 0, BuildingBlock: BETDAH_clean_linker_0, # of connection points: 3
#     Node 6, Type 0, BuildingBlock: BETDAH_clean_linker_0, # of connection points: 3
#     Node 7, Type 0, BuildingBlock: BETDAH_clean_linker_0, # of connection points: 3
#     Node 8, Type 1, BuildingBlock: BETDEL_clean_sbu_0, # of connection points: 6
#     Node 9, Type 1, BuildingBlock: BETDEL_clean_sbu_0, # of connection points: 6
#     Node 10, Type 1, BuildingBlock: BETDEL_clean_sbu_0, # of connection points: 6
#     Node 11, Type 1, BuildingBlock: BETDEL_clean_sbu_0, # of connection points: 6
#     Edge 12, Type (0, 1), BuildingBlock: MIFKUJ_clean_linker_0, # of connection points: 2
#     Edge 13, Type (0, 1), BuildingBlock: MIFKUJ_clean_linker_0, # of connection points: 2
#     Edge 14, Type (0, 1), BuildingBlock: MIFKUJ_clean_linker_0, # of connection points: 2
#     Edge 15, Type (0, 1), BuildingBlock: MIFKUJ_clean_linker_0, # of connection points: 2
#     Edge 16, Type (0, 1), BuildingBlock: MIFKUJ_clean_linker_0, # of connection points: 2
#     Edge 17, Type (0, 1), BuildingBlock: MIFKUJ_clean_linker_0, # of connection points: 2
#     Edge 18, Type (0, 1), BuildingBlock: MIFKUJ_clean_linker_0, # of connection points: 2
#     Edge 19, Type (0, 1), BuildingBlock: MIFKUJ_clean_linker_0, # of connection points: 2
#     Edge 20, Type (0, 1), BuildingBlock: MIFKUJ_clean_linker_0, # of connection points: 2
#     Edge 21, Type (0, 1), BuildingBlock: MIFKUJ_clean_linker_0, # of connection points: 2
#     Edge 22, Type (0, 1), BuildingBlock: MIFKUJ_clean_linker_0, # of connection points: 2
#     Edge 23, Type (0, 1), BuildingBlock: MIFKUJ_clean_linker_0, # of connection points: 2
#     Edge 24, Type (0, 1), BuildingBlock: MIFKUJ_clean_linker_0, # of connection points: 2
#     Edge 25, Type (0, 1), BuildingBlock: MIFKUJ_clean_linker_0, # of connection points: 2
#     Edge 26, Type (0, 1), BuildingBlock: MIFKUJ_clean_linker_0, # of connection points: 2
#     Edge 27, Type (0, 1), BuildingBlock: MIFKUJ_clean_linker_0, # of connection points: 2
#     Edge 28, Type (0, 1), BuildingBlock: MIFKUJ_clean_linker_0, # of connection points: 2
#     Edge 29, Type (0, 1), BuildingBlock: MIFKUJ_clean_linker_0, # of connection points: 2
#     Edge 30, Type (0, 1), BuildingBlock: MIFKUJ_clean_linker_0, # of connection points: 2
#     Edge 31, Type (0, 1), BuildingBlock: MIFKUJ_clean_linker_0, # of connection points: 2
#     Edge 32, Type (0, 1), BuildingBlock: MIFKUJ_clean_linker_0, # of connection points: 2
#     Edge 33, Type (0, 1), BuildingBlock: MIFKUJ_clean_linker_0, # of connection points: 2
#     Edge 34, Type (0, 1), BuildingBlock: MIFKUJ_clean_linker_0, # of connection points: 2
#     Edge 35, Type (0, 1), BuildingBlock: MIFKUJ_clean_linker_0, # of connection points: 2
# Relax obj value: 0.151
# Max RMSD: 0.173
# Mean RMSD: 0.113
data_MOF--net-zzz--node1-BETDEL_clean_sbu_0--node2-BETDAH_clean_linker_0--edge1-MIFKUJ_clean_linker_0
_symmetry_space_group_name_H-M    P1
_symmetry_Int_Tables_number       1
_symmetry_cell_setting            triclinic
loop_
_symmetry_equiv_pos_as_xyz
'x, y, z'
_cell_length_a     65.168671
_cell_length_b     66.415384
_cell_length_c     19.433867
_cell_angle_alpha  91.45972
_cell_angle_beta   88.158671
_cell_angle_gamma 95.244279
loop_
_atom_site_label
_atom_site_type_symbol
_atom_site_fract_x
_atom_site_fract_y
_atom_site_fract_z
_atom_type_partial_charge
H0 H 0.79717 0.49866 0.08763 0.0
H1 H 0.73798 0.50676 0.00843 0.0
H2 H 0.74565 0.504 0.22837 0.0
C3 C 0.78087 0.5002 0.09706 0.0
C4 C 0.77302 0.50071 0.16472 0.0
C5 C 0.76839 0.5023 0.04108 0.0
C6 C 0.74747 0.50499 0.05222 0.0
C7 C 0.73903 0.50537 0.12005 0.0
C8 C 0.75201 0.50356 0.17621 0.0
N9 N 0.71769 0.5075 0.13341 0.0
C10 C 0.703 0.50768 0.08266 0.0
H11 H 0.97949 0.80236 0.04135 0.0
H12 H 0.99657 0.74703 0.94598 0.0
H13 H 0.00394 0.75806 0.16403 0.0
C14 C 0.98457 0.78734 0.04559 0.0
C15 C 0.99087 0.78144 0.1094 0.0
C16 C 0.98678 0.77519 0.98623 0.0
C17 C 0.99452 0.75627 0.99192 0.0
C18 C 1.00024 0.7498 0.0567 0.0
C19 C 0.99884 0.76268 0.11478 0.0
N20 N 0.00809 0.73079 0.06499 0.0
C21 C 0.00766 0.71559 0.01444 0.0
H22 H 0.69419 0.97647 0.05539 0.0
H23 H 0.75712 0.97442 0.98811 0.0
H24 H 0.7402 0.96919 0.20435 0.0
C25 C 0.71004 0.97492 0.06793 0.0
C26 C 0.71522 0.97307 0.13668 0.0
C27 C 0.72501 0.97544 0.01481 0.0
C28 C 0.74562 0.97368 0.02969 0.0
C29 C 0.7512 0.97109 0.09826 0.0
C30 C 0.73588 0.9707 0.15149 0.0
N31 N 0.77203 0.96932 0.11545 0.0
C32 C 0.78866 0.97099 0.06825 0.0
H33 H 0.5074 0.7049 0.15706 0.0
H34 H 0.50928 0.75919 0.04027 0.0
H35 H 0.53401 0.76075 0.2444 0.0
C36 C 0.5108 0.72117 0.15353 0.0
C37 C 0.52063 0.73168 0.20787 0.0
C38 C 0.50668 0.73083 0.09307 0.0
C39 C 0.5122 0.75173 0.08742 0.0
C40 C 0.52172 0.76278 0.14276 0.0
C41 C 0.52615 0.75253 0.20257 0.0
N42 N 0.52749 0.78397 0.13983 0.0
C43 C 0.52401 0.79644 0.08537 0.0
H44 H 0.20591 0.51106 0.09063 0.0
H45 H 0.26665 0.5041 0.15837 0.0
H46 H 0.25101 0.48951 0.94735 0.0
C47 C 0.22144 0.50713 0.07882 0.0
C48 C 0.22634 0.49975 0.01274 0.0
C49 C 0.23575 0.50852 0.13139 0.0
C50 C 0.2558 0.50331 0.11717 0.0
C51 C 0.26161 0.49699 0.05005 0.0
C52 C 0.24676 0.49512 -0.00183 0.0
N53 N 0.282 0.49187 0.03378 0.0
C54 C 0.29795 0.49317 0.08048 0.0
H55 H 0.02487 0.20483 0.08533 0.0
H56 H 0.00644 0.25819 0.19081 0.0
H57 H 1.00224 0.2519 0.96999 0.0
C58 C 0.01978 0.21993 0.08374 0.0
C59 C 0.01447 0.2273 0.02068 0.0
C60 C 0.01674 0.23084 0.14533 0.0
C61 C 0.00914 0.24992 0.14315 0.0
C62 C 0.00443 0.25784 0.07935 0.0
C63 C 0.00663 0.24621 0.01867 0.0
N64 N 0.99681 0.27707 0.07442 0.0
C65 C 0.99788 0.29177 0.12667 0.0
H66 H 0.31158 0.0304 0.10435 0.0
H67 H 0.2479 0.02763 0.16808 0.0
H68 H 0.26594 0.04035 0.95672 0.0
C69 C 0.29572 0.03203 0.09191 0.0
C70 C 0.2909 0.03613 0.02418 0.0
C71 C 0.28037 0.02917 0.14372 0.0
C72 C 0.25968 0.03008 0.12781 0.0
C73 C 0.25437 0.03426 0.06019 0.0
C74 C 0.27004 0.03712 0.00863 0.0
N75 N 0.23353 0.03572 0.04248 0.0
C76 C 0.21682 0.03388 0.08928 0.0
H77 H 0.47492 0.30101 0.06052 0.0
H78 H 0.4858 0.24377 0.14313 0.0
H79 H 0.49433 0.25394 0.92475 0.0
C80 C 0.47857 0.28549 0.05215 0.0
C81 C 0.48413 0.27899 0.98585 0.0
C82 C 0.47933 0.27299 0.10877 0.0
C83 C 0.48494 0.25322 0.0989 0.0
C84 C 0.48984 0.246 0.032 0.0
C85 C 0.48989 0.25916 0.97588 0.0
N86 N 0.49524 0.22587 0.01966 0.0
C87 C 0.49424 0.21087 0.06914 0.0
Dy88 Dy 0.01048 0.99317 0.63837 0.0
C89 C 0.99065 0.04118 0.41778 0.0
C90 C 0.01432 0.96564 0.73798 0.0
Dy91 Dy 0.99405 0.01316 0.51617 0.0
O92 O 0.02894 0.97242 0.69541 0.0
O93 O 0.99788 0.97473 0.72817 0.0
O94 O 0.04196 0.00869 0.6172 0.0
O95 O 0.02268 0.99997 0.53474 0.0
C96 C 0.03973 0.00921 0.55096 0.0
C97 C 0.96492 0.9971 0.60402 0.0
O98 O 0.99501 0.98276 0.46601 0.0
O99 O 0.99925 0.967 0.56915 0.0
O100 O 0.97608 0.03485 0.46122 0.0
O101 O 0.00666 0.03128 0.42571 0.0
O102 O 0.96256 0.99751 0.53777 0.0
O103 O 0.98194 0.00646 0.61966 0.0
O104 O 0.0093 0.02349 0.68895 0.0
O105 O 0.00543 0.03917 0.58549 0.0
C106 C 0.99582 0.96623 0.50218 0.0
C107 C 0.0086 0.03998 0.65258 0.0
Dy108 Dy 0.48309 0.99029 0.5349 0.0
C109 C 0.55876 0.02398 0.65662 0.0
C110 C 0.44452 0.97948 0.48845 0.0
Dy111 Dy 0.51996 0.01299 0.61341 0.0
O112 O 0.46031 0.98608 0.45014 0.0
O113 O 0.45002 0.97813 0.5516 0.0
O114 O 0.5039 0.96928 0.47995 0.0
O115 O 0.51564 0.9982 0.5135 0.0
C116 C 0.52051 0.98131 0.49039 0.0
C117 C 0.48252 0.02201 0.65792 0.0
O118 O 0.5155 0.0364 0.53618 0.0
O119 O 0.48367 0.02239 0.49758 0.0
O120 O 0.54269 0.02009 0.69722 0.0
O121 O 0.55344 0.02239 0.59283 0.0
O122 O 0.49915 0.03402 0.66806 0.0
O123 O 0.48737 0.00512 0.63476 0.0
O124 O 0.48717 0.96747 0.6152 0.0
O125 O 0.51949 0.98098 0.65067 0.0
C126 C 0.49877 0.0373 0.49967 0.0
C127 C 0.50414 0.96633 0.65046 0.0
Dy128 Dy 0.49822 0.51622 0.62381 0.0
C129 C 0.50605 0.46316 0.39099 0.0
C130 C 0.49284 0.54817 0.7115 0.0
Dy131 Dy 0.51294 0.4916 0.49219 0.0
O132 O 0.47938 0.54029 0.66865 0.0
O133 O 0.50881 0.53774 0.7097 0.0
O134 O 0.46604 0.5028 0.60309 0.0
O135 O 0.48697 0.50894 0.52036 0.0
C136 C 0.46893 0.50161 0.5366 0.0
C137 C 0.54374 0.4984 0.5817 0.0
O138 O 0.51774 0.52252 0.44798 0.0
O139 O 0.5149 0.53949 0.55437 0.0
O140 O 0.52374 0.47355 0.40049 0.0
O141 O 0.49221 0.46907 0.43464 0.0
O142 O 0.54595 0.48904 0.52254 0.0
O143 O 0.52561 0.50351 0.58638 0.0
O144 O 0.5 0.4864 0.67444 0.0
O145 O 0.50155 0.46823 0.57023 0.0
C146 C 0.51944 0.53926 0.48714 0.0
C147 C 0.49987 0.46901 0.63868 0.0
Dy148 Dy 0.99045 0.50114 0.63666 0.0
C149 C 0.04442 0.49963 0.40161 0.0
C150 C 0.96189 0.50938 0.73625 0.0
Dy151 Dy 0.01474 0.50654 0.49903 0.0
O152 O 0.96971 0.49211 0.72781 0.0
O153 O 0.97051 0.52222 0.69262 0.0
O154 O 0.99488 0.4679 0.63465 0.0
O155 O 0.99296 0.48334 0.54232 0.0
C156 C 0.99671 0.46689 0.56779 0.0
C157 C 0.00862 0.54069 0.56918 0.0
O158 O 0.98319 0.50377 0.45499 0.0
O159 O 0.96663 0.50873 0.56108 0.0
O160 O 0.03643 0.51676 0.41193 0.0
O161 O 0.03496 0.48607 0.44111 0.0
O162 O 0.01006 0.53978 0.50222 0.0
O163 O 0.0124 0.52414 0.59369 0.0
O164 O 0.02207 0.5031 0.6804 0.0
O165 O 0.03863 0.49902 0.57394 0.0
C166 C 0.96647 0.50735 0.4927 0.0
C167 C 0.03885 0.49997 0.64229 0.0
H168 H 0.21503 0.04577 0.22326 0.0
H169 H 0.18453 0.04312 0.30135 0.0
H170 H 0.14799 0.0153 0.13729 0.0
H171 H 0.17846 0.01825 0.05918 0.0
H172 H 0.12746 0.04305 0.20608 0.0
H173 H 0.16477 0.98727 0.26732 0.0
H174 H 0.19518 0.97107 0.30305 0.0
H175 H 0.19693 0.00696 0.49004 0.0
H176 H 0.1667 0.02359 0.45495 0.0
H177 H 0.04079 0.00293 0.41102 0.0
H178 H 0.07051 0.00899 0.3314 0.0
H179 H 0.10738 0.03373 0.49925 0.0
H180 H 0.07784 0.02729 0.57906 0.0
H181 H 0.12789 0.00811 0.42841 0.0
H182 H 0.0906 0.06382 0.3687 0.0
H183 H 0.06136 0.08144 0.33126 0.0
H184 H 0.05978 0.04656 0.14208 0.0
H185 H 0.08896 0.02861 0.17866 0.0
C186 C 0.20045 0.03907 0.20423 0.0
C187 C 0.19896 0.03211 0.13571 0.0
C188 C 0.18306 0.03749 0.24877 0.0
C189 C 0.16393 0.0288 0.22552 0.0
C190 C 0.16252 0.02204 0.15653 0.0
C191 C 0.17991 0.02364 0.11206 0.0
C192 C 0.14542 0.02674 0.27291 0.0
C193 C 0.12746 0.03518 0.25432 0.0
C194 C 0.14553 0.01692 0.33672 0.0
C195 C 0.16359 0.00681 0.35818 0.0
C196 C 0.17173 0.99181 0.31583 0.0
C197 C 0.18892 0.98253 0.336 0.0
C198 C 0.19801 0.98802 0.39869 0.0
C199 C 0.18989 0.00275 0.44145 0.0
C200 C 0.17272 0.01209 0.42147 0.0
C201 C 0.05518 0.00987 0.43073 0.0
C202 C 0.05702 0.01456 0.50135 0.0
C203 C 0.07217 0.01342 0.3851 0.0
C204 C 0.09127 0.02194 0.40901 0.0
C205 C 0.09289 0.02708 0.47937 0.0
C206 C 0.07597 0.02344 0.52498 0.0
C207 C 0.10983 0.02447 0.3618 0.0
C208 C 0.12784 0.01604 0.38032 0.0
C209 C 0.10976 0.03435 0.29801 0.0
C210 C 0.09185 0.04474 0.27674 0.0
C211 C 0.08389 0.05976 0.31943 0.0
C212 C 0.06736 0.06986 0.29822 0.0
C213 C 0.05869 0.06511 0.23432 0.0
C214 C 0.06651 0.05022 0.19156 0.0
C215 C 0.08306 0.0401 0.21246 0.0
H216 H 0.04595 0.07297 0.21776 0.0
H217 H 0.21132 0.98083 0.4142 0.0
H218 H 0.47783 0.17275 0.04478 0.0
H219 H 0.47775 0.14376 0.12066 0.0
H220 H 0.5091 0.18211 0.27424 0.0
H221 H 0.50936 0.21109 0.19758 0.0
H222 H 0.52636 0.14673 0.25758 0.0
H223 H 0.45706 0.16602 0.2918 0.0
H224 H 0.42294 0.17396 0.25456 0.0
H225 H 0.41254 0.11464 0.16212 0.0
H226 H 0.44671 0.10643 0.19808 0.0
H227 H 0.51667 0.07559 0.52377 0.0
H228 H 0.51463 0.10559 0.45506 0.0
H229 H 0.47585 0.07038 0.31193 0.0
H230 H 0.4769 0.04061 0.383 0.0
H231 H 0.46227 0.10475 0.32421 0.0
H232 H 0.53059 0.08497 0.28293 0.0
H233 H 0.56473 0.07577 0.31551 0.0
H234 H 0.57755 0.1342 0.41239 0.0
H235 H 0.54336 0.14366 0.38116 0.0
C236 C 0.48456 0.17496 0.09499 0.0
C237 C 0.4935 0.19407 0.11577 0.0
C238 C 0.48446 0.15842 0.13844 0.0
C239 C 0.49321 0.16071 0.20376 0.0
C240 C 0.50221 0.17991 0.2243 0.0
C241 C 0.5023 0.19647 0.18073 0.0
C242 C 0.49335 0.14301 0.24983 0.0
C243 C 0.51231 0.13773 0.27297 0.0
C244 C 0.47513 0.13079 0.26832 0.0
C245 C 0.45452 0.13568 0.24716 0.0
C246 C 0.44755 0.15472 0.26315 0.0
C247 C 0.42819 0.15926 0.24233 0.0
C248 C 0.4156 0.14483 0.20587 0.0
C249 C 0.42231 0.12581 0.19032 0.0
C250 C 0.44166 0.1212 0.21098 0.0
C251 C 0.50766 0.07425 0.47774 0.0
C252 C 0.49706 0.05565 0.45866 0.0
C253 C 0.50661 0.09143 0.43803 0.0
C254 C 0.49552 0.09031 0.37686 0.0
C255 C 0.4846 0.07178 0.35854 0.0
C256 C 0.48523 0.0547 0.39921 0.0
C257 C 0.49532 0.10835 0.33203 0.0
C258 C 0.47636 0.11372 0.30901 0.0
C259 C 0.5136 0.12045 0.31264 0.0
C260 C 0.53434 0.11496 0.33023 0.0
C261 C 0.54065 0.09583 0.31144 0.0
C262 C 0.56001 0.09056 0.32968 0.0
C263 C 0.57327 0.10437 0.36618 0.0
C264 C 0.56725 0.12351 0.3842 0.0
C265 C 0.54789 0.12884 0.36618 0.0
H266 H 0.58824 0.10024 0.38038 0.0
H267 H 0.40062 0.14838 0.18977 0.0
H268 H 0.29638 0.48712 0.21793 0.0
H269 H 0.32569 0.48811 0.29479 0.0
H270 H 0.36754 0.50256 0.12281 0.0
H271 H 0.3382 0.50131 0.04606 0.0
H272 H 0.38169 0.47424 0.19799 0.0
H273 H 0.35593 0.53858 0.24634 0.0
H274 H 0.32971 0.56191 0.27871 0.0
H275 H 0.31953 0.53346 0.47434 0.0
H276 H 0.3455 0.50977 0.44275 0.0
H277 H 0.4709 0.50441 0.39581 0.0
H278 H 0.44208 0.50165 0.31699 0.0
H279 H 0.39954 0.48817 0.48773 0.0
H280 H 0.42826 0.49102 0.56655 0.0
H281 H 0.38591 0.51637 0.41229 0.0
H282 H 0.40842 0.45043 0.36163 0.0
H283 H 0.43227 0.42494 0.32797 0.0
H284 H 0.44794 0.45572 0.13918 0.0
H285 H 0.42384 0.48126 0.17138 0.0
C286 C 0.31186 0.4906 0.19688 0.0
C287 C 0.31515 0.49422 0.12643 0.0
C288 C 0.3286 0.49124 0.24076 0.0
C289 C 0.34891 0.49563 0.21493 0.0
C290 C 0.35208 0.49917 0.14416 0.0
C291 C 0.33534 0.49852 0.10037 0.0
C292 C 0.36686 0.49609 0.26117 0.0
C293 C 0.38274 0.48372 0.24428 0.0
C294 C 0.3681 0.50801 0.32267 0.0
C295 C 0.35252 0.52227 0.34189 0.0
C296 C 0.34799 0.5372 0.29605 0.0
C297 C 0.33319 0.5505 0.31429 0.0
C298 C 0.32292 0.54913 0.37847 0.0
C299 C 0.32747 0.53449 0.42461 0.0
C300 C 0.34224 0.52113 0.40658 0.0
C301 C 0.45543 0.50058 0.41636 0.0
C302 C 0.45187 0.49796 0.48749 0.0
C303 C 0.43893 0.49894 0.37118 0.0
C304 C 0.41852 0.49463 0.39612 0.0
C305 C 0.41507 0.49157 0.46702 0.0
C306 C 0.43153 0.49313 0.51208 0.0
C307 C 0.4007 0.49443 0.34928 0.0
C308 C 0.38488 0.50692 0.36594 0.0
C309 C 0.39947 0.48259 0.28765 0.0
C310 C 0.41456 0.46785 0.26929 0.0
C311 C 0.41709 0.45185 0.31324 0.0
C312 C 0.43054 0.43733 0.29418 0.0
C313 C 0.44172 0.43878 0.23163 0.0
C314 C 0.43932 0.45467 0.1877 0.0
C315 C 0.42569 0.46911 0.20615 0.0
H316 H 0.45222 0.42761 0.21719 0.0
H317 H 0.31147 0.55945 0.3925 0.0
H318 H 0.99046 0.32987 0.10272 0.0
H319 H 0.99307 0.35866 0.18438 0.0
H320 H 0.0109 0.3198 0.3425 0.0
H321 H 0.00806 0.29088 0.26053 0.0
H322 H 0.98227 0.34474 0.39031 0.0
H323 H 0.04679 0.35203 0.26496 0.0
H324 H 0.06971 0.35408 0.16144 0.0
H325 H 0.04223 0.40671 0.09825 0.0
H326 H 0.01893 0.40481 0.20091 0.0
H327 H 0.00614 0.43033 0.61317 0.0
H328 H 0.00943 0.39929 0.54408 0.0
H329 H 0.9959 0.43058 0.36121 0.0
H330 H 0.99321 0.46161 0.42954 0.0
H331 H 0.02587 0.40769 0.33373 0.0
H332 H 0.95904 0.39841 0.4499 0.0
H333 H 0.93518 0.39645 0.55115 0.0
H334 H 0.96615 0.34783 0.62925 0.0
H335 H 0.99035 0.34968 0.52881 0.0
C336 C 0.99491 0.32756 0.15499 0.0
C337 C 0.9991 0.30838 0.17585 0.0
C338 C 0.9965 0.34397 0.20142 0.0
C339 C 0.00247 0.34143 0.26926 0.0
C340 C 0.00636 0.32209 0.29034 0.0
C341 C 0.00476 0.30564 0.24371 0.0
C342 C 0.00437 0.35902 0.31795 0.0
C343 C 0.99209 0.35839 0.37865 0.0
C344 C 0.01692 0.37692 0.30207 0.0
C345 C 0.03101 0.37818 0.24044 0.0
C346 C 0.04553 0.36396 0.22876 0.0
C347 C 0.05861 0.36511 0.17026 0.0
C348 C 0.0574 0.38049 0.12324 0.0
C349 C 0.04314 0.39479 0.1347 0.0
C350 C 0.03002 0.3937 0.19309 0.0
C351 C 0.00396 0.43053 0.55819 0.0
C352 C 0.99931 0.44829 0.52668 0.0
C353 C 0.00576 0.41281 0.51882 0.0
C354 C 0.00263 0.41252 0.44754 0.0
C355 C 0.99839 0.43041 0.41605 0.0
C356 C 0.99678 0.44812 0.45519 0.0
C357 C 0.00339 0.39362 0.40534 0.0
C358 C 0.01622 0.39398 0.34587 0.0
C359 C 0.99124 0.37552 0.42212 0.0
C360 C 0.97664 0.37434 0.48229 0.0
C361 C 0.96085 0.3874 0.48893 0.0
C362 C 0.94725 0.3863 0.54611 0.0
C363 C 0.94919 0.37207 0.5967 0.0
C364 C 0.96469 0.35887 0.59009 0.0
C365 C 0.97834 0.35993 0.53304 0.0
H366 H 0.93865 0.37124 0.64094 0.0
H367 H 0.06753 0.38135 0.07797 0.0
H368 H 0.79286 0.95278 0.94312 0.0
H369 H 0.82337 0.95588 0.86501 0.0
H370 H 0.85511 0.9965 0.01153 0.0
H371 H 0.8245 0.99356 0.08893 0.0
H372 H 0.86154 0.01062 0.88628 0.0
H373 H 0.86603 0.94687 0.99009 0.0
H374 H 0.85438 0.91224 0.02583 0.0
H375 H 0.84694 0.89351 0.81431 0.0
H376 H 0.85827 0.92813 0.77731 0.0
H377 H 0.96285 0.00733 0.74102 0.0
H378 H 0.93314 1.00151 0.82098 0.0
H379 H 0.89861 0.96925 0.66064 0.0
H380 H 0.9282 0.9753 0.58009 0.0
H381 H 0.89401 0.95057 0.79254 0.0
H382 H 0.88944 0.01533 0.69093 0.0
H383 H 0.90257 0.04985 0.658 0.0
H384 H 0.91159 0.06645 0.87061 0.0
H385 H 0.89879 0.0319 0.90475 0.0
C386 C 0.80641 0.96235 0.95833 0.0
C387 C 0.8065 0.97292 0.0217 0.0
C388 C 0.82385 0.96404 0.91397 0.0
C389 C 0.84171 0.97625 0.93258 0.0
C390 C 0.8416 0.98698 0.99591 0.0
C391 C 0.82415 0.98528 0.04015 0.0
C392 C 0.86041 0.97809 0.88583 0.0
C393 C 0.86875 0.99747 0.86664 0.0
C394 C 0.86973 0.96096 0.85894 0.0
C395 C 0.86276 0.94016 0.88098 0.0
C396 C 0.86171 0.93542 0.95122 0.0
C397 C 0.85521 0.91578 0.9717 0.0
C398 C 0.84986 0.9007 0.92239 0.0
C399 C 0.85105 0.90522 0.85246 0.0
C400 C 0.85752 0.92484 0.8317 0.0
C401 C 0.94899 0.99884 0.72299 0.0
C402 C 0.94776 0.99191 0.65416 0.0
C403 C 0.93201 0.99557 0.76867 0.0
C404 C 0.91358 0.98511 0.7466 0.0
C405 C 0.91265 0.97739 0.67872 0.0
C406 C 0.92953 0.98091 0.63273 0.0
C407 C 0.89501 0.98304 0.7934 0.0
C408 C 0.88672 0.96366 0.81242 0.0
C409 C 0.88583 1.00015 0.82064 0.0
C410 C 0.89337 0.02097 0.80032 0.0
C411 C 0.89439 0.02629 0.73062 0.0
C412 C 0.90174 0.04587 0.71174 0.0
C413 C 0.90797 0.06032 0.76217 0.0
C414 C 0.90679 0.05523 0.8316 0.0
C415 C 0.89948 0.03565 0.85075 0.0
H416 H 0.91366 0.07547 0.74745 0.0
H417 H 0.84484 0.8855 0.93835 0.0
H418 H 0.55464 0.8189 0.01901 0.0
H419 H 0.55127 0.84694 0.94145 0.0
H420 H 0.48502 0.83701 0.9623 0.0
H421 H 0.48847 0.80876 0.03937 0.0
H422 H 0.49694 0.84481 0.83013 0.0
H423 H 0.51262 0.8752 0.05261 0.0
H424 H 0.53292 0.88194 0.157 0.0
H425 H 0.58531 0.90468 0.03322 0.0
H426 H 0.56541 0.89781 0.92797 0.0
H427 H 0.47337 0.93838 0.69591 0.0
H428 H 0.47656 0.90899 0.76667 0.0
H429 H 0.54253 0.92305 0.7678 0.0
H430 H 0.53929 0.95293 0.69955 0.0
H431 H 0.53075 0.91276 0.8886 0.0
H432 H 0.51675 0.88249 0.6669 0.0
H433 H 0.49773 0.87559 0.55991 0.0
H434 H 0.44423 0.85224 0.67721 0.0
H435 H 0.46285 0.85923 0.78501 0.0
C436 C 0.53938 0.8226 0.00624 0.0
C437 C 0.5218 0.81171 0.03465 0.0
C438 C 0.53744 0.83871 0.96237 0.0
C439 C 0.51787 0.84437 0.94663 0.0
C440 C 0.50028 0.83302 0.97365 0.0
C441 C 0.50224 0.81689 0.01758 0.0
C442 C 0.51576 0.86229 0.90309 0.0
C443 C 0.50413 0.85973 0.84337 0.0
C444 C 0.5256 0.8817 0.91904 0.0
C445 C 0.53758 0.88579 0.98235 0.0
C446 C 0.52852 0.88148 0.0476 0.0
C447 C 0.53995 0.88535 0.10693 0.0
C448 C 0.5604 0.89368 0.10173 0.0
C449 C 0.56947 0.89819 0.03717 0.0
C450 C 0.55812 0.89432 0.97767 0.0
C451 C 0.48858 0.93517 0.71094 0.0
C452 C 0.50607 0.94804 0.69179 0.0
C453 C 0.49041 0.91823 0.75123 0.0
C454 C 0.50985 0.91342 0.77201 0.0
C455 C 0.52733 0.92629 0.75275 0.0
C456 C 0.52547 0.94341 0.71346 0.0
C457 C 0.51198 0.89534 0.81512 0.0
C458 C 0.52359 0.89786 0.87498 0.0
C459 C 0.50235 0.87585 0.79878 0.0
C460 C 0.49113 0.87156 0.73405 0.0
C461 C 0.50088 0.87601 0.6699 0.0
C462 C 0.49018 0.87206 0.60911 0.0
C463 C 0.46977 0.86353 0.61177 0.0
C464 C 0.46003 0.85887 0.67523 0.0
C465 C 0.47066 0.8628 0.73619 0.0
H466 H 0.46151 0.86049 0.56465 0.0
H467 H 0.56922 0.89668 0.14773 0.0
H468 H 0.70121 0.48819 0.95872 0.0
H469 H 0.67359 0.48789 0.87549 0.0
H470 H 0.64083 0.52704 0.01173 0.0
H471 H 0.66837 0.52704 0.09528 0.0
H472 H 0.61446 0.49805 0.95837 0.0
H473 H 0.66778 0.54532 0.86793 0.0
H474 H 0.70302 0.55725 0.82827 0.0
H475 H 0.70097 0.51083 0.6701 0.0
H476 H 0.6658 0.49845 0.70943 0.0
H477 H 0.54308 0.52038 0.70368 0.0
H478 H 0.56992 0.52425 0.79016 0.0
H479 H 0.60722 0.48628 0.6649 0.0
H480 H 0.58087 0.48308 0.57789 0.0
H481 H 0.63076 0.51657 0.7158 0.0
H482 H 0.57538 0.4706 0.80559 0.0
H483 H 0.53919 0.46168 0.84216 0.0
H484 H 0.54467 0.50656 0.00489 0.0
H485 H 0.58049 0.5167 0.9667 0.0
C486 C 0.68811 0.49675 0.97056 0.0
C487 C 0.68688 0.50775 0.03286 0.0
C488 C 0.67235 0.49662 0.92303 0.0
C489 C 0.65513 0.50763 0.93677 0.0
C490 C 0.65388 0.51844 -0.00027 0.0
C491 C 0.66965 0.51853 0.04726 0.0
C492 C 0.63859 0.50801 0.88531 0.0
C493 C 0.61798 0.50234 0.90551 0.0
C494 C 0.64311 0.51339 0.81603 0.0
C495 C 0.66423 0.52084 0.79206 0.0
C496 C 0.6749 0.53756 0.82501 0.0
C497 C 0.69486 0.54442 0.80254 0.0
C498 C 0.70425 0.53477 0.74681 0.0
C499 C 0.69368 0.51827 0.71332 0.0
C500 C 0.67373 0.51134 0.73564 0.0
C501 C 0.55706 0.51301 0.69462 0.0
C502 C 0.55984 0.50141 0.63415 0.0
C503 C 0.57238 0.51513 0.74416 0.0
C504 C 0.59058 0.50532 0.73476 0.0
C505 C 0.59341 0.49402 0.67366 0.0
C506 C 0.57826 0.49214 0.62396 0.0
C507 C 0.60661 0.50635 0.78842 0.0
C508 C 0.62717 0.51229 0.76864 0.0
C509 C 0.60195 0.5013 0.85809 0.0
C510 C 0.58063 0.4946 0.88266 0.0
C511 C 0.56884 0.47874 0.84874 0.0
C512 C 0.54836 0.47351 0.86961 0.0
C513 C 0.53969 0.48347 0.92599 0.0
C514 C 0.55142 0.49884 0.96123 0.0
C515 C 0.57177 0.50445 0.93965 0.0
H516 H 0.52387 0.47927 0.94235 0.0
H517 H 0.7197 0.5401 0.72949 0.0
H518 H 0.00552 0.67635 0.04486 0.0
H519 H 0.00523 0.64752 0.96337 0.0
H520 H 0.00861 0.68843 0.79347 0.0
H521 H 0.00875 0.71732 0.87541 0.0
H522 H 0.98024 0.65518 0.7737 0.0
H523 H 0.05104 0.66784 0.83696 0.0
H524 H 0.0796 0.67339 0.91748 0.0
H525 H 0.06328 0.61487 0.00261 0.0
H526 H 0.03444 0.60907 0.9232 0.0
H527 H 0.00553 0.57903 0.52475 0.0
H528 H 0.00491 0.61004 0.59587 0.0
H529 H 0.00728 0.57507 0.77921 0.0
H530 H 0.00857 0.54432 0.70853 0.0
H531 H 0.03383 0.60703 0.78594 0.0
H532 H 0.9625 0.59442 0.72943 0.0
H533 H 0.9334 0.58808 0.65137 0.0
H534 H 0.94968 0.64535 0.55708 0.0
H535 H 0.97907 0.65191 0.63399 0.0
C536 C 0.00617 0.6791 0.99006 0.0
C537 C 0.00722 0.69884 0.96586 0.0
C538 C 0.00606 0.6627 0.94365 0.0
C539 C 0.00712 0.66586 0.87237 0.0
C540 C 0.0078 0.68568 0.84823 0.0
C541 C 0.00794 0.70212 0.89483 0.0
C542 C 0.00778 0.64842 0.82344 0.0
C543 C 0.99212 0.6448 0.77554 0.0
C544 C 0.02305 0.63468 0.82693 0.0
C545 C 0.04047 0.63809 0.87448 0.0
C546 C 0.05345 0.65621 0.87318 0.0
C547 C 0.0697 0.65939 0.91857 0.0
C548 C 0.07322 0.64451 0.96523 0.0
C549 C 0.06052 0.62639 0.96647 0.0
C550 C 0.04424 0.62314 0.92124 0.0
C551 C 0.0058 0.57801 0.58025 0.0
C552 C 0.00704 0.55931 0.61121 0.0
C553 C 0.00537 0.5957 0.62083 0.0
C554 C 0.0059 0.59487 0.69297 0.0
C555 C 0.0069 0.57611 0.72372 0.0
C556 C 0.00751 0.55852 0.68327 0.0
C557 C 0.00607 0.61352 0.73682 0.0
C558 C 0.02196 0.61742 0.78372 0.0
C559 C 0.9909 0.62737 0.73275 0.0
C560 C 0.97311 0.62356 0.68698 0.0
C561 C 0.95996 0.6056 0.69172 0.0
C562 C 0.9434 0.60198 0.64773 0.0
C563 C 0.93973 0.61628 0.59916 0.0
C564 C 0.95257 0.63427 0.59466 0.0
C565 C 0.96917 0.63796 0.63847 0.0
H566 H 0.92691 0.61344 0.5651 0.0
H567 H 0.08581 0.64701 0.00033 0.0
H568 H 0.98686 0.22212 0.24349 0.0
H569 H 0.9854 0.19267 0.3172 0.0
H570 H 0.04894 0.18499 0.26341 0.0
H571 H 0.05046 0.21443 0.18998 0.0
H572 H 0.01957 0.1562 0.20709 0.0
H573 H 0.03702 0.18671 0.42136 0.0
H574 H 0.03603 0.2091 0.52407 0.0
H575 H 0.97504 0.18306 0.57712 0.0
H576 H 0.97544 0.16075 0.4739 0.0
H577 H 0.02172 0.05812 0.33581 0.0
H578 H 0.02697 0.09354 0.30237 0.0
H579 H 0.96752 0.10425 0.39235 0.0
H580 H 0.96222 0.06884 0.42635 0.0
H581 H 0.99698 0.13187 0.43833 0.0
H582 H 0.97523 0.10621 0.22036 0.0
H583 H 0.97295 0.08567 0.113 0.0
H584 H 0.03615 0.10473 0.06106 0.0
H585 H 0.03891 0.12517 0.16866 0.0
C586 C 1.00087 0.21492 0.25089 0.0
C587 C 0.0187 0.2203 0.21052 0.0
C588 C 1.00001 0.19804 0.29293 0.0
C589 C 0.01699 0.18652 0.29494 0.0
C590 C 0.03569 0.1937 0.26249 0.0
C591 C 0.03655 0.21053 0.22066 0.0
C592 C 0.01359 0.16491 0.31251 0.0
C593 C 0.01472 0.15087 0.2577 0.0
C594 C 0.00684 0.15814 0.37845 0.0
C595 C 0.00615 0.1722 0.43903 0.0
C596 C 0.02321 0.18601 0.45402 0.0
C597 C 0.0228 0.19862 0.51267 0.0
C598 C 0.00545 0.19756 0.55697 0.0
C599 C 0.98846 0.18389 0.54267 0.0
C600 C 0.98877 0.17125 0.48409 0.0
C601 C 0.00954 0.06789 0.34666 0.0
C602 C 0.99157 0.06077 0.38345 0.0
C603 C 0.01257 0.08811 0.32774 0.0
C604 C 0.99768 0.10151 0.34509 0.0
C605 C 0.97925 0.09417 0.37879 0.0
C606 C 0.97615 0.07391 0.3975 0.0
C607 C 1.00207 0.12338 0.33175 0.0
C608 C 1.00136 0.13734 0.38733 0.0
C609 C 0.00848 0.13034 0.26575 0.0
C610 C 0.00736 0.11699 0.20322 0.0
C611 C 0.98876 0.10573 0.18673 0.0
C612 C 0.98735 0.09418 0.12561 0.0
C613 C 0.00441 0.09383 0.08035 0.0
C614 C 0.02296 0.10496 0.09626 0.0
C615 C 0.02446 0.11652 0.15733 0.0
H616 H 0.00324 0.085 0.03284 0.0
H617 H 0.00521 0.20727 0.60249 0.0
H618 H 0.30715 0.05155 0.22475 0.0
H619 H 0.32663 0.03866 0.31646 0.0
H620 H 0.28788 0.9824 0.30969 0.0
H621 H 0.2685 0.99529 0.21658 0.0
H622 H 0.32538 0.02107 0.43995 0.0
H623 H 0.32019 0.94538 0.29131 0.0
H624 H 0.30961 0.9313 0.17764 0.0
H625 H 0.32637 0.98895 0.08642 0.0
H626 H 0.33735 0.00321 0.19919 0.0
H627 H 0.4097 0.97324 0.56935 0.0
H628 H 0.37417 0.9767 0.5363 0.0
H629 H 0.39574 0.98776 0.32711 0.0
H630 H 0.43098 0.98391 0.35966 0.0
H631 H 0.36091 0.96582 0.32488 0.0
H632 H 0.38781 0.02638 0.44563 0.0
H633 H 0.4016 0.04782 0.54202 0.0
H634 H 0.34807 0.0293 0.6673 0.0
H635 H 0.33407 0.00749 0.57181 0.0
C636 C 0.30226 0.03676 0.24494 0.0
C637 C 0.28663 0.02424 0.21318 0.0
C638 C 0.31333 0.02942 0.29759 0.0
C639 C 0.30899 0.00941 0.31883 0.0
C640 C 0.29159 0.99782 0.29343 0.0
C641 C 0.28049 0.00519 0.24051 0.0
C642 C 0.32518 0.99978 0.35458 0.0
C643 C 0.33286 0.00862 0.41599 0.0
C644 C 0.33533 0.98399 0.32199 0.0
C645 C 0.32931 0.97538 0.25372 0.0
C646 C 0.32168 0.95499 0.24688 0.0
C647 C 0.31562 0.94699 0.18264 0.0
C648 C 0.31724 0.95924 0.12491 0.0
C649 C 0.32507 0.97948 0.13117 0.0
C650 C 0.33123 0.98752 0.19519 0.0
C651 C 0.40669 0.9759 0.51603 0.0
C652 C 0.42299 0.97827 0.46692 0.0
C653 C 0.38646 0.97804 0.49736 0.0
C654 C 0.38231 0.9827 0.4294 0.0
C655 C 0.39853 0.98409 0.37981 0.0
C656 C 0.41868 0.98191 0.3984 0.0
C657 C 0.36149 0.9874 0.40969 0.0
C658 C 0.35294 0.97761 0.35104 0.0
C659 C 0.35114 0.00295 0.44323 0.0
C660 C 0.36002 0.01512 0.5019 0.0
C661 C 0.37911 0.02666 0.49404 0.0
C662 C 0.38691 0.03894 0.54836 0.0
C663 C 0.37568 0.03995 0.61058 0.0
C664 C 0.35672 0.02851 0.61897 0.0
C665 C 0.34886 0.01616 0.56481 0.0
H666 H 0.38161 0.04971 0.6521 0.0
H667 H 0.31249 0.95303 0.0753 0.0
H668 H 0.50928 0.28167 0.20072 0.0
H669 H 0.5108 0.31194 0.275 0.0
H670 H 0.44652 0.3177 0.24131 0.0
H671 H 0.44508 0.28752 0.16654 0.0
H672 H 0.47168 0.34695 0.18046 0.0
H673 H 0.46259 0.31936 0.4023 0.0
H674 H 0.46745 0.29787 0.50094 0.0
H675 H 0.53047 0.32263 0.5126 0.0
H676 H 0.52609 0.34412 0.41342 0.0
H677 H 0.46986 0.44293 0.35824 0.0
H678 H 0.46416 0.40738 0.32117 0.0
H679 H 0.52978 0.40336 0.30823 0.0
H680 H 0.53563 0.43914 0.34415 0.0
H681 H 0.50302 0.37349 0.3974 0.0
H682 H 0.51044 0.401 0.17023 0.0
H683 H 0.50303 0.42343 0.07683 0.0
H684 H 0.43992 0.39841 0.07958 0.0
H685 H 0.44678 0.37621 0.1744 0.0
C686 C 0.49515 0.2886 0.21306 0.0
C687 C 0.47713 0.28252 0.17754 0.0
C688 C 0.49605 0.30601 0.25522 0.0
C689 C 0.47888 0.3173 0.26234 0.0
C690 C 0.45998 0.30928 0.23594 0.0
C691 C 0.4591 0.29193 0.19377 0.0
C692 C 0.48202 0.33916 0.27997 0.0
C693 C 0.47813 0.35274 0.22863 0.0
C694 C 0.49108 0.34664 0.3417 0.0
C695 C 0.49407 0.3332 0.39978 0.0
C696 C 0.47758 0.32004 0.42522 0.0
C697 C 0.48022 0.30791 0.48146 0.0
C698 C 0.49927 0.30884 0.5129 0.0
C699 C 0.51573 0.3219 0.48813 0.0
C700 C 0.51317 0.33408 0.43193 0.0
C701 C 0.48305 0.43464 0.3451 0.0
C702 C 0.50314 0.44375 0.35314 0.0
C703 C 0.47977 0.41438 0.32456 0.0
C704 C 0.49653 0.40289 0.31234 0.0
C705 C 0.51668 0.4121 0.31759 0.0
C706 C 0.51999 0.43253 0.3372 0.0
C707 C 0.4927 0.38099 0.2979 0.0
C708 C 0.49651 0.36753 0.34957 0.0
C709 C 0.4833 0.37356 0.2368 0.0
C710 C 0.47908 0.38711 0.1802 0.0
C711 C 0.49491 0.40047 0.15169 0.0
C712 C 0.49082 0.41311 0.09831 0.0
C713 C 0.47102 0.41236 0.07234 0.0
C714 C 0.45525 0.39897 0.09971 0.0
C715 C 0.45923 0.38638 0.15339 0.0
H716 H 0.4679 0.42214 0.03093 0.0
H717 H 0.50127 0.29949 0.55656 0.0
H718 H 0.23619 0.4847 0.24348 0.0
H719 H 0.20878 0.48292 0.33279 0.0
H720 H 0.18867 0.53882 0.26257 0.0
H721 H 0.21667 0.54119 0.17684 0.0
H722 H 0.17429 0.53264 0.38852 0.0
H723 H 0.17982 0.48808 0.17546 0.0
H724 H 0.19606 0.4603 0.1135 0.0
H725 H 0.18097 0.42129 0.28372 0.0
H726 H 0.16536 0.44892 0.34767 0.0
H727 H 0.06932 0.52839 0.33401 0.0
H728 H 0.10672 0.529 0.31673 0.0
H729 H 0.10495 0.46881 0.39672 0.0
H730 H 0.06754 0.46786 0.41165 0.0
H731 H 0.13215 0.47219 0.29882 0.0
H732 H 0.11922 0.51098 0.49926 0.0
H733 H 0.10385 0.53674 0.57314 0.0
H734 H 0.13234 0.58373 0.44508 0.0
H735 H 0.14769 0.55828 0.36988 0.0
C736 C 0.22679 0.49728 0.25039 0.0
C737 C 0.22799 0.51275 0.20207 0.0
C738 C 0.21091 0.49611 0.30082 0.0
C739 C 0.19596 0.51011 0.30155 0.0
C740 C 0.19968 0.52753 0.26199 0.0
C741 C 0.21576 0.52894 0.2129 0.0
C742 C 0.17466 0.50487 0.32909 0.0
C743 C 0.16507 0.51938 0.36934 0.0
C744 C 0.16269 0.48716 0.3063 0.0
C745 C 0.17166 0.47059 0.26656 0.0
C746 C 0.18001 0.47357 0.1996 0.0
C747 C 0.18913 0.45791 0.16423 0.0
C748 C 0.18946 0.4391 0.19452 0.0
C749 C 0.18074 0.43589 0.26035 0.0
C750 C 0.17185 0.45155 0.29631 0.0
C751 C 0.07686 0.51509 0.34598 0.0
C752 C 0.06557 0.49812 0.37433 0.0
C753 C 0.09826 0.51556 0.33726 0.0
C754 C 0.10872 0.49922 0.35778 0.0
C755 C 0.09726 0.4817 0.3814 0.0
C756 C 0.07585 0.48113 0.38939 0.0
C757 C 0.13159 0.50053 0.35496 0.0
C758 C 0.14136 0.48525 0.31956 0.0
C759 C 0.14372 0.51728 0.38357 0.0
C760 C 0.13453 0.53269 0.42866 0.0
C761 C 0.12211 0.52679 0.48657 0.0
C762 C 0.11341 0.54133 0.52873 0.0
C763 C 0.11709 0.56183 0.51374 0.0
C764 C 0.12951 0.56784 0.45662 0.0
C765 C 0.13824 0.55337 0.41426 0.0
H766 H 0.11034 0.57306 0.54645 0.0
H767 H 0.1965 0.427 0.16697 0.0
H768 H 0.01465 0.77846 0.87853 0.0
H769 H 0.01872 0.80792 0.80506 0.0
H770 H 0.95874 0.82417 0.87432 0.0
H771 H 0.95415 0.79413 0.9441 0.0
H772 H 0.96904 0.84334 0.76194 0.0
H773 H 1.00159 0.83171 0.97426 0.0
H774 H 0.02398 0.81559 0.05204 0.0
H775 H 0.07664 0.83279 0.92117 0.0
H776 H 0.05448 0.84878 0.8419 0.0
H777 H 0.98386 0.94787 0.82129 0.0
H778 H 0.97926 0.91208 0.85071 0.0
H779 H 0.03862 0.90313 0.75596 0.0
H780 H 0.04361 0.939 0.72873 0.0
H781 H 0.03027 0.87992 0.86919 0.0
H782 H 0.99371 0.89552 0.66282 0.0
H783 H 0.96925 0.9162 0.609 0.0
H784 H 0.92138 0.89427 0.75193 0.0
H785 H 0.94552 0.87365 0.80728 0.0
C786 C 1.00175 0.78749 0.87426 0.0
C787 C 0.98442 0.78456 0.91898 0.0
C788 C 0.00419 0.80452 0.83284 0.0
C789 C 0.98954 0.81883 0.83747 0.0
C790 C 0.97051 0.81364 0.87123 0.0
C791 C 0.96787 0.7964 0.91119 0.0
C792 C 0.9956 0.84045 0.82309 0.0
C793 C 0.98253 0.85127 0.78486 0.0
C794 C 0.013 0.851 0.85427 0.0
C795 C 0.02631 0.84117 0.90152 0.0
C796 C 0.01789 0.83183 0.96154 0.0
C797 C 0.03054 0.82273 0.00597 0.0
C798 C 0.05169 0.82305 0.99137 0.0
C799 C 0.06023 0.83249 0.9323 0.0
C800 C 0.04764 0.84157 0.88757 0.0
C801 C 0.9962 0.93839 0.80884 0.0
C802 C 0.01399 0.94609 0.77216 0.0
C803 C 0.99348 0.91793 0.82496 0.0
C804 C 0.0083 0.90486 0.80327 0.0
C805 C 0.02688 0.91292 0.7723 0.0
C806 C 0.02974 0.93343 0.75702 0.0
C807 C 0.00384 0.88265 0.80783 0.0
C808 C 0.01714 0.87183 0.84462 0.0
C809 C 0.98637 0.87225 0.77712 0.0
C810 C 0.97146 0.88313 0.73945 0.0
C811 C 0.97796 0.89506 0.68264 0.0
C812 C 0.9642 0.90687 0.65215 0.0
C813 C 0.94388 0.90671 0.67747 0.0
C814 C 0.93716 0.89448 0.73266 0.0
C815 C 0.95084 0.88267 0.76345 0.0
H816 H 0.93329 0.9159 0.65382 0.0
H817 H 0.06147 0.81607 0.02599 0.0
H818 H 0.72697 0.01169 0.95457 0.0
H819 H 0.70348 0.0207 0.86706 0.0
H820 H 0.68333 0.95756 0.83447 0.0
H821 H 0.70637 0.94867 0.92386 0.0
H822 H 0.69083 0.01394 0.73641 0.0
H823 H 0.63194 0.95228 0.83903 0.0
H824 H 0.62375 0.93093 0.94017 0.0
H825 H 0.65541 0.97605 0.07004 0.0
H826 H 0.66392 0.99763 0.96951 0.0
H827 H 0.59219 0.01592 0.57826 0.0
H828 H 0.62603 0.00948 0.61876 0.0
H829 H 0.60735 0.0271 0.82521 0.0
H830 H 0.57315 0.03256 0.78491 0.0
H831 H 0.62044 0.992 0.82623 0.0
H832 H 0.64709 0.0552 0.72306 0.0
H833 H 0.65319 0.07918 0.62807 0.0
H834 H 0.68383 0.03504 0.50808 0.0
H835 H 0.67785 0.01079 0.60234 0.0
C836 C 0.7183 0.99972 0.92606 0.0
C837 C 0.71842 0.97954 0.94533 0.0
C838 C 0.7048 0.00486 0.87633 0.0
C839 C 0.6913 0.98983 0.84556 0.0
C840 C 0.69339 0.96941 0.85848 0.0
C841 C 0.7067 0.9643 0.90885 0.0
C842 C 0.6729 0.99576 0.81094 0.0
C843 C 0.67541 0.00904 0.75556 0.0
C844 C 0.65277 0.9896 0.83648 0.0
C845 C 0.64875 0.97642 0.89671 0.0
C846 C 0.63728 0.95756 0.88912 0.0
C847 C 0.6326 0.94544 0.94625 0.0
C848 C 0.63916 0.95211 0.01134 0.0
C849 C 0.65051 0.97087 0.01943 0.0
C850 C 0.65533 0.98302 0.96237 0.0
C851 C 0.59558 0.01895 0.63185 0.0
C852 C 0.58017 0.02467 0.67859 0.0
C853 C 0.61494 0.01532 0.65498 0.0
C854 C 0.61929 0.01781 0.7251 0.0
C855 C 0.6043 0.02495 0.77091 0.0
C856 C 0.58482 0.02817 0.74796 0.0
C857 C 0.63824 0.01061 0.75258 0.0
C858 C 0.63581 0.99687 0.80642 0.0
C859 C 0.65831 0.0166 0.72608 0.0
C860 C 0.66194 0.03118 0.66957 0.0
C861 C 0.65506 0.0506 0.67631 0.0
C862 C 0.65856 0.06426 0.62271 0.0
C863 C 0.66894 0.05866 0.56216 0.0
C864 C 0.67586 0.03939 0.5551 0.0
C865 C 0.67247 0.02571 0.60866 0.0
H866 H 0.67156 0.06922 0.52062 0.0
H867 H 0.6353 0.9428 0.0555 0.0
H868 H 0.47387 0.70243 0.09479 0.0
H869 H 0.46926 0.67319 0.01603 0.0
H870 H 0.51779 0.69993 0.88221 0.0
H871 H 0.52296 0.72897 0.96223 0.0
H872 H 0.48522 0.67942 0.81121 0.0
H873 H 0.52899 0.67339 0.00909 0.0
H874 H 0.54736 0.66577 0.12694 0.0
H875 H 0.49203 0.59673 0.12708 0.0
H876 H 0.48046 0.61377 0.01343 0.0
H877 H 0.52518 0.57266 0.75935 0.0
H878 H 0.52513 0.60789 0.79899 0.0
H879 H 0.45953 0.60523 0.77147 0.0
H880 H 0.45965 0.57016 0.72904 0.0
H881 H 0.50153 0.61535 0.91185 0.0
H882 H 0.45113 0.63662 0.73168 0.0
H883 H 0.44217 0.64339 0.61257 0.0
H884 H 0.5033 0.67141 0.57348 0.0
H885 H 0.51277 0.66414 0.69164 0.0
C886 C 0.48312 0.70235 0.04744 0.0
C887 C 0.49895 0.71782 0.03486 0.0
C888 C 0.4806 0.68556 0.003 0.0
C889 C 0.49359 0.6842 0.94461 0.0
C890 C 0.50779 0.70067 0.92766 0.0
C891 C 0.51055 0.71737 0.97283 0.0
C892 C 0.49327 0.66515 0.90374 0.0
C893 C 0.48852 0.66533 0.83376 0.0
C894 C 0.49755 0.64675 0.93295 0.0
C895 C 0.50329 0.64433 0.00526 0.0
C896 C 0.52299 0.66021 0.03731 0.0
C897 C 0.53491 0.65456 0.11119 0.0
C898 C 0.51949 0.62137 0.1608 0.0
C899 C 0.50008 0.61098 0.11202 0.0
C900 C 0.49289 0.62209 0.04058 0.0
C901 C 0.51077 0.57962 0.76147 0.0
C902 C 0.49239 0.56869 0.74177 0.0
C903 C 0.51081 0.59986 0.78277 0.0
C904 C 0.49248 0.60957 0.78492 0.0
C905 C 0.47403 0.59851 0.76646 0.0
C906 C 0.47403 0.5783 0.74418 0.0
C907 C 0.49218 0.62927 0.82204 0.0
C908 C 0.49733 0.62935 0.89096 0.0
C909 C 0.48765 0.64754 0.79265 0.0
C910 C 0.48285 0.64915 0.71947 0.0
C911 C 0.46285 0.64357 0.69689 0.0
C912 C 0.4576 0.64772 0.62981 0.0
C913 C 0.47218 0.65776 0.58534 0.0
C914 C 0.49206 0.66354 0.60775 0.0
C915 C 0.49742 0.65924 0.67452 0.0
H916 H 0.46808 0.66105 0.53355 0.0
H917 H 0.52565 0.63063 0.15506 0.0
H918 H 0.78438 0.47118 0.97308 0.0
H919 H 0.81534 0.47539 0.89884 0.0
H920 H 0.80792 0.53893 0.88403 0.0
H921 H 0.77716 0.53485 0.96027 0.0
H922 H 0.831 0.50245 0.76132 0.0
H923 H 0.83357 0.54835 0.97536 0.0
H924 H 0.82444 0.55422 0.09804 0.0
H925 H 0.84771 0.49814 0.14839 0.0
H926 H 0.85614 0.4916 0.02565 0.0
H927 H 0.93714 0.53926 0.71751 0.0
H928 H 0.90106 0.53973 0.75551 0.0
H929 H 0.90545 0.48602 0.87219 0.0
H930 H 0.9415 0.48497 0.83209 0.0
H931 H 0.88334 0.5198 0.93883 0.0
H932 H 0.88596 0.47573 0.74184 0.0
H933 H 0.89601 0.46549 0.62375 0.0
H934 H 0.86384 0.51283 0.54275 0.0
H935 H 0.85404 0.52376 0.66087 0.0
C936 C 0.78863 0.48578 0.95046 0.0
C937 C 0.77858 0.50273 0.97242 0.0
C938 C 0.8064 0.4882 0.90853 0.0
C939 C 0.81405 0.50754 0.88757 0.0
C940 C 0.80224 0.52393 0.90046 0.0
C941 C 0.78455 0.52156 0.94322 0.0
C942 C 0.83606 0.51102 0.86737 0.0
C943 C 0.84246 0.5068 0.79947 0.0
C944 C 0.85095 0.51576 0.91812 0.0
C945 C 0.84509 0.51932 0.99136 0.0
C946 C 0.83631 0.53709 0.01248 0.0
C947 C 0.83129 0.54054 0.08201 0.0
C948 C 0.83536 0.5265 0.13097 0.0
C949 C 0.84435 0.50892 0.11044 0.0
C950 C 0.84916 0.50528 0.04087 0.0
C951 C 0.93057 0.52778 0.75247 0.0
C952 C 0.94204 0.51203 0.77191 0.0
C953 C 0.90995 0.52802 0.77366 0.0
C954 C 0.90066 0.51278 0.81577 0.0
C955 C 0.91245 0.49784 0.83936 0.0
C956 C 0.93299 0.49731 0.81679 0.0
C957 C 0.87835 0.5119 0.83224 0.0
C958 C 0.87192 0.51618 0.89991 0.0
C959 C 0.86352 0.50702 0.78133 0.0
C960 C 0.86959 0.50079 0.71028 0.0
C961 C 0.88132 0.4842 0.69899 0.0
C962 C 0.88692 0.47823 0.63209 0.0
C963 C 0.88063 0.48856 0.57593 0.0
C964 C 0.86874 0.5049 0.58647 0.0
C965 C 0.8632 0.51102 0.6534 0.0
H966 H 0.88495 0.48381 0.52435 0.0
H967 H 0.83168 0.52933 0.1848 0.0
H968 H 0.98195 0.20985 0.95074 0.0
H969 H 0.98215 0.17973 0.87499 0.0
H970 H 0.04849 0.18335 0.88104 0.0
H971 H 0.04826 0.21321 0.95781 0.0
H972 H 0.03212 0.16898 0.75147 0.0
H973 H 0.02336 0.15972 0.99431 0.0
H974 H 0.0063 0.16461 0.10705 0.0
H975 H 0.95166 0.13001 0.0381 0.0
H976 H 0.96771 0.12656 0.92225 0.0
H977 H 0.02329 0.0505 0.78085 0.0
H978 H 0.02637 0.08438 0.83509 0.0
H979 H 1.00018 0.10845 0.65686 0.0
H980 H 0.99776 0.07512 0.60183 0.0
H981 H 0.99918 0.10918 0.87415 0.0
H982 H 0.01817 0.15497 0.62732 0.0
H983 H 0.03569 0.15034 0.51424 0.0
H984 H 0.07419 0.10922 0.60167 0.0
H985 H 0.05698 0.11357 0.71527 0.0
C986 C 0.99658 0.20467 0.93342 0.0
C987 C 0.0151 0.21376 0.95955 0.0
C988 C 0.99668 0.18744 0.89063 0.0
C989 C 0.01532 0.17923 0.87327 0.0
C990 C 0.03398 0.1895 0.89384 0.0
C991 C 0.03385 0.20652 0.93747 0.0
C992 C 0.01525 0.15858 0.84279 0.0
C993 C 0.02482 0.15591 0.77799 0.0
C994 C 0.00623 0.14149 0.87866 0.0
C995 C 0.99665 0.14323 0.94885 0.0
C996 C 0.00757 0.15348 0.0025 0.0
C997 C 0.99808 0.15596 0.06721 0.0
C998 C 0.97799 0.14744 0.08019 0.0
C999 C 0.96723 0.13664 0.028 0.0
C1000 C 0.97644 0.13462 0.96248 0.0
C1001 C 0.01833 0.06307 0.75322 0.0
C1002 C 0.01051 0.06016 0.68681 0.0
C1003 C 0.02006 0.08239 0.78423 0.0
C1004 C 0.01388 0.09904 0.74948 0.0
C1005 C 0.00561 0.096 0.68392 0.0
C1006 C 0.00416 0.07685 0.65263 0.0
C1007 C 0.01558 0.11957 0.78193 0.0
C1008 C 0.0064 0.12224 0.84739 0.0
C1009 C 0.02523 0.1366 0.74726 0.0
C1010 C 0.03621 0.13454 0.67972 0.0
C1011 C 0.03048 0.14507 0.62254 0.0
C1012 C 0.04031 0.14245 0.55833 0.0
C1013 C 0.05602 0.12953 0.5508 0.0
C1014 C 0.06199 0.11921 0.60753 0.0
C1015 C 0.05218 0.1217 0.67181 0.0
H1016 H 0.06357 0.12751 0.50099 0.0
H1017 H 0.97077 0.14921 0.13066 0.0
H1018 H 0.32876 0.0568 0.03851 0.0
H1019 H 0.35872 0.05647 0.96127 0.0
H1020 H 0.32208 0.02213 0.8103 0.0
H1021 H 0.29205 0.02128 0.89023 0.0
H1022 H 0.35595 0.00586 0.81969 0.0
H1023 H 0.34234 0.07354 0.78667 0.0
H1024 H 0.33404 0.10816 0.81781 0.0
H1025 H 0.39024 0.11852 0.92796 0.0
H1026 H 0.39876 0.08387 0.89828 0.0
H1027 H 0.44584 0.01224 0.5967 0.0
H1028 H 0.41118 0.01624 0.64425 0.0
H1029 H 0.43773 0.04627 0.82439 0.0
H1030 H 0.47239 0.04177 0.77691 0.0
H1031 H 0.40644 0.06541 0.78284 0.0
H1032 H 0.41744 0.99511 0.81894 0.0
H1033 H 0.4249 0.96077 0.78074 0.0
H1034 H 0.37181 0.956 0.65408 0.0
H1035 H 0.36429 0.99048 0.69035 0.0
C1036 C 0.32696 0.04921 0.98879 0.0
C1037 C 0.30798 0.03883 0.97111 0.0
C1038 C 0.34414 0.04928 0.944 0.0
C1039 C 0.34278 0.03948 0.87919 0.0
C1040 C 0.3236 0.02983 0.85992 0.0
C1041 C 0.30636 0.02953 0.90538 0.0
C1042 C 0.36179 0.03811 0.83471 0.0
C1043 C 0.36674 0.01899 0.81036 0.0
C1044 C 0.37612 0.05514 0.82269 0.0
C1045 C 0.37112 0.07604 0.84057 0.0
C1046 C 0.35287 0.08315 0.81792 0.0
C1047 C 0.34814 0.10279 0.83525 0.0
C1048 C 0.36159 0.11552 0.87493 0.0
C1049 C 0.37983 0.10865 0.89722 0.0
C1050 C 0.38464 0.08902 0.88006 0.0
C1051 C 0.44419 0.01915 0.64712 0.0
C1052 C 0.46169 0.02591 0.68432 0.0
C1053 C 0.42439 0.02175 0.67395 0.0
C1054 C 0.42173 0.03122 0.73873 0.0
C1055 C 0.43932 0.03879 0.77457 0.0
C1056 C 0.45911 0.03621 0.74751 0.0
C1057 C 0.40075 0.03313 0.76984 0.0
C1058 C 0.39547 0.05236 0.7916 0.0
C1059 C 0.38597 0.01627 0.77816 0.0
C1060 C 0.39044 0.99548 0.75678 0.0
C1061 C 0.40745 0.98681 0.7825 0.0
C1062 C 0.41169 0.96731 0.7612 0.0
C1063 C 0.39887 0.95623 0.71488 0.0
C1064 C 0.38175 0.96461 0.6899 0.0
C1065 C 0.37752 0.98415 0.71067 0.0
H1066 H 0.40218 0.94115 0.69843 0.0
H1067 H 0.35789 0.13071 0.88831 0.0
H1068 H 0.45297 0.29928 0.94054 0.0
H1069 H 0.45623 0.33023 0.87378 0.0
H1070 H 0.52146 0.3252 0.84459 0.0
H1071 H 0.51815 0.29409 0.91159 0.0
H1072 H 0.51427 0.36233 0.8933 0.0
H1073 H 0.49043 0.31943 0.70754 0.0
H1074 H 0.468 0.29343 0.64642 0.0
H1075 H 0.4167 0.32921 0.67734 0.0
H1076 H 0.43877 0.35532 0.73959 0.0
H1077 H 0.50154 0.43153 0.57935 0.0
H1078 H 0.50006 0.39906 0.6337 0.0
H1079 H 0.49309 0.42804 0.83323 0.0
H1080 H 0.49525 0.4612 0.77857 0.0
H1081 H 0.47205 0.37825 0.69759 0.0
H1082 H 0.51029 0.39852 0.95803 0.0
H1083 H 0.53807 0.42157 0.00803 0.0
H1084 H 0.56786 0.42817 0.80857 0.0
H1085 H 0.54029 0.40515 0.75744 0.0
C1086 C 0.46787 0.3044 0.91774 0.0
C1087 C 0.48526 0.29412 0.93036 0.0
C1088 C 0.46975 0.32217 0.87989 0.0
C1089 C 0.48911 0.33017 0.85414 0.0
C1090 C 0.50637 0.31938 0.86398 0.0
C1091 C 0.50444 0.30145 0.90139 0.0
C1092 C 0.49145 0.35045 0.82168 0.0
C1093 C 0.50505 0.36581 0.8504 0.0
C1094 C 0.47965 0.35504 0.76524 0.0
C1095 C 0.46621 0.33923 0.72893 0.0
C1096 C 0.47431 0.32166 0.70199 0.0
C1097 C 0.46168 0.30692 0.66697 0.0
C1098 C 0.44093 0.30964 0.65812 0.0
C1099 C 0.43277 0.32711 0.6843 0.0
C1100 C 0.44534 0.34189 0.71944 0.0
C1101 C 0.4997 0.43122 0.6349 0.0
C1102 C 0.49839 0.4492 0.67434 0.0
C1103 C 0.49881 0.41244 0.66606 0.0
C1104 C 0.49648 0.41085 0.7378 0.0
C1105 C 0.49516 0.42874 0.77781 0.0
C1106 C 0.49621 0.44774 0.74644 0.0
C1107 C 0.49492 0.39033 0.7691 0.0
C1108 C 0.48128 0.37489 0.74058 0.0
C1109 C 0.50715 0.38554 0.82443 0.0
C1110 C 0.52312 0.4003 0.85388 0.0
C1111 C 0.52272 0.40498 0.92484 0.0
C1112 C 0.53844 0.418 0.95338 0.0
C1113 C 0.55474 0.42626 0.91154 0.0
C1114 C 0.55524 0.42171 0.84092 0.0
C1115 C 0.5395 0.40879 0.81206 0.0
H1116 H 0.56695 0.43627 0.93377 0.0
H1117 H 0.43119 0.29824 0.63084 0.0
H1118 H 0.22711 0.50724 0.87256 0.0
H1119 H 0.1975 0.50479 0.79622 0.0
H1120 H 0.15761 0.48272 0.96462 0.0
H1121 H 0.18674 0.48417 0.03859 0.0
H1122 H 0.14532 0.46371 0.85777 0.0
H1123 H 0.16411 0.53451 0.91078 0.0
H1124 H 0.18712 0.56613 0.91252 0.0
H1125 H 0.19238 0.56403 0.69166 0.0
H1126 H 0.16959 0.53224 0.6887 0.0
H1127 H 0.0465 0.49454 0.779 0.0
H1128 H 0.08012 0.49237 0.83074 0.0
H1129 H 0.11039 0.50066 0.63172 0.0
H1130 H 0.07709 0.50257 0.57954 0.0
H1131 H 0.12921 0.52525 0.73863 0.0
H1132 H 0.10621 0.45572 0.68997 0.0
H1133 H 0.08162 0.42523 0.69351 0.0
H1134 H 0.08275 0.42631 0.91438 0.0
H1135 H 0.10712 0.45701 0.91221 0.0
C1136 C 0.21208 0.50148 0.89269 0.0
C1137 C 0.20938 0.49619 0.96229 0.0
C1138 C 0.19509 0.5003 0.84924 0.0
C1139 C 0.17509 0.49395 0.8748 0.0
C1140 C 0.17271 0.48773 0.94318 0.0
C1141 C 0.18953 0.48872 0.98592 0.0
C1142 C 0.15629 0.49436 0.83275 0.0
C1143 C 0.14183 0.47725 0.83215 0.0
C1144 C 0.15167 0.51182 0.79784 0.0
C1145 C 0.16539 0.53087 0.79958 0.0
C1146 C 0.17031 0.54071 0.86263 0.0
C1147 C 0.18329 0.55867 0.86384 0.0
C1148 C 0.19127 0.56704 0.80226 0.0
C1149 C 0.18624 0.5575 0.73933 0.0
C1150 C 0.1733 0.53951 0.73785 0.0
C1151 C 0.0603 0.49589 0.74627 0.0
C1152 C 0.05901 0.49867 0.6751 0.0
C1153 C 0.0795 0.49461 0.77586 0.0
C1154 C 0.09777 0.49632 0.735 0.0
C1155 C 0.09653 0.49934 0.66422 0.0
C1156 C 0.0774 0.50033 0.63451 0.0
C1157 C 0.11819 0.49487 0.76592 0.0
C1158 C 0.13288 0.51171 0.76394 0.0
C1159 C 0.1229 0.4773 0.7995 0.0
C1160 C 0.10835 0.45877 0.80093 0.0
C1161 C 0.10109 0.44955 0.73932 0.0
C1162 C 0.08721 0.43222 0.74107 0.0
C1163 C 0.08059 0.42387 0.80413 0.0
C1164 C 0.08788 0.43281 0.86557 0.0
C1165 C 0.10174 0.45017 0.86411 0.0
H1166 H 0.06984 0.41045 0.80538 0.0
H1167 H 0.20131 0.58096 0.80329 0.0
H1168 H 0.95797 0.79899 0.1645 0.0
H1169 H 0.95879 0.82897 0.24078 0.0
H1170 H 0.0246 0.8283 0.25656 0.0
H1171 H 0.02376 0.79812 0.18048 0.0
H1172 H 0.97209 0.83805 0.37321 0.0
H1173 H 0.04471 0.87206 0.24046 0.0
H1174 H 0.06264 0.8746 0.12651 0.0
H1175 H 0.00433 0.86882 0.0276 0.0
H1176 H 0.98618 0.86551 0.1408 0.0
H1177 H 0.00329 0.93005 0.5553 0.0
H1178 H 1.00102 0.89694 0.49785 0.0
H1179 H 0.98162 0.92341 0.31295 0.0
H1180 H 0.98386 0.95675 0.37027 0.0
H1181 H 0.01117 0.89997 0.28339 0.0
H1182 H 0.94731 0.89279 0.41396 0.0
H1183 H 0.92287 0.89132 0.51369 0.0
H1184 H 0.95606 0.84636 0.60489 0.0
H1185 H 0.98075 0.8476 0.50578 0.0
C1186 C 0.97249 0.80492 0.18602 0.0
C1187 C 0.99077 0.79623 0.16741 0.0
C1188 C 0.97297 0.82206 0.22916 0.0
C1189 C 0.99178 0.83096 0.25352 0.0
C1190 C 0.00996 0.82172 0.23775 0.0
C1191 C 0.00944 0.80438 0.19519 0.0
C1192 C 0.99236 0.85045 0.29235 0.0
C1193 C 0.98082 0.85158 0.35424 0.0
C1194 C 0.00329 0.86814 0.26656 0.0
C1195 C 0.01417 0.86839 0.19868 0.0
C1196 C 0.03579 0.87108 0.19422 0.0
C1197 C 0.04597 0.8726 0.12985 0.0
C1198 C 0.03463 0.87182 0.06984 0.0
C1199 C 0.0131 0.86925 0.07405 0.0
C1200 C 0.00287 0.86734 0.13819 0.0
C1201 C 0.99827 0.92886 0.50264 0.0
C1202 C 0.99364 0.94608 0.46744 0.0
C1203 C 0.99693 0.90985 0.46995 0.0
C1204 C 0.99098 0.90764 0.4013 0.0
C1205 C 0.98623 0.92477 0.36606 0.0
C1206 C 0.98752 0.94382 0.39883 0.0
C1207 C 0.99091 0.88772 0.36496 0.0
C1208 C 0.00267 0.88646 0.30346 0.0
C1209 C 0.97979 0.87002 0.39066 0.0
C1210 C 0.96594 0.87038 0.45263 0.0
C1211 C 0.94955 0.88278 0.45567 0.0
C1212 C 0.93556 0.88187 0.51181 0.0
C1213 C 0.93778 0.86858 0.56512 0.0
C1214 C 0.95424 0.85648 0.56317 0.0
C1215 C 0.96823 0.85728 0.50705 0.0
H1216 H 0.92681 0.86774 0.60817 0.0
H1217 H 0.04252 0.87322 0.02009 0.0
H1218 H 0.70581 0.94861 0.24846 0.0
H1219 H 0.67517 0.94867 0.32594 0.0
H1220 H 0.65635 1.00026 0.22174 0.0
H1221 H 0.68709 1.00082 0.14745 0.0
H1222 H 0.64718 0.00454 0.3496 0.0
H1223 H 0.63895 0.94886 0.18317 0.0
H1224 H 0.6478 0.91683 0.12716 0.0
H1225 H 0.6388 0.88678 0.32014 0.0
H1226 H 0.63031 0.91867 0.37752 0.0
H1227 H 0.53174 0.96663 0.36394 0.0
H1228 H 0.56689 0.96346 0.3179 0.0
H1229 H 0.59137 0.9834 0.51416 0.0
H1230 H 0.5562 0.98627 0.56022 0.0
H1231 H 0.59894 0.94229 0.35162 0.0
H1232 H 0.63638 0.0163 0.47809 0.0
H1233 H 0.62628 0.04924 0.52238 0.0
H1234 H 0.57432 0.04425 0.39095 0.0
H1235 H 0.58431 0.01154 0.34464 0.0
C1236 C 0.69536 0.96023 0.24343 0.0
C1237 C 0.69872 0.97451 0.19114 0.0
C1238 C 0.67773 0.96013 0.28719 0.0
C1239 C 0.66312 0.97422 0.27893 0.0
C1240 C 0.66722 0.98916 0.22932 0.0
C1241 C 0.68479 0.98937 0.18638 0.0
C1242 C 0.643 0.9731 0.31844 0.0
C1243 C 0.63677 0.99083 0.35071 0.0
C1244 C 0.62915 0.95533 0.31938 0.0
C1245 C 0.63423 0.93619 0.28472 0.0
C1246 C 0.639 0.93544 0.21367 0.0
C1247 C 0.64393 0.91733 0.1817 0.0
C1248 C 0.64387 0.89982 0.22007 0.0
C1249 C 0.63888 0.90037 0.2905 0.0
C1250 C 0.63403 0.91845 0.32278 0.0
C1251 C 0.54465 0.97019 0.39723 0.0
C1252 C 0.54142 0.97749 0.46475 0.0
C1253 C 0.56471 0.96836 0.37102 0.0
C1254 C 0.58183 0.97369 0.41209 0.0
C1255 C 0.57846 0.97983 0.48091 0.0
C1256 C 0.55842 0.98171 0.50693 0.0
C1257 C 0.60316 0.97376 0.38193 0.0
C1258 C 0.60955 0.95587 0.35162 0.0
C1259 C 0.61701 0.9915 0.38147 0.0
C1260 C 0.61092 0.01126 0.40875 0.0
C1261 C 0.62286 0.02226 0.45838 0.0
C1262 C 0.61721 0.04095 0.48361 0.0
C1263 C 0.59967 0.04881 0.45961 0.0
C1264 C 0.58784 0.03809 0.40981 0.0
C1265 C 0.59348 0.01948 0.38405 0.0
H1266 H 0.59528 0.06321 0.47952 0.0
H1267 H 0.64767 0.88581 0.1952 0.0
H1268 H 0.55745 0.7172 0.22639 0.0
H1269 H 0.56218 0.68615 0.28676 0.0
H1270 H 0.50015 0.68558 0.37232 0.0
H1271 H 0.49561 0.71659 0.31197 0.0
H1272 H 0.51649 0.66587 0.45284 0.0
H1273 H 0.50279 0.66102 0.24749 0.0
H1274 H 0.48659 0.6502 0.11911 0.0
H1275 H 0.56508 0.61752 0.07415 0.0
H1276 H 0.57021 0.63326 0.20593 0.0
H1277 H 0.50882 0.55351 0.36306 0.0
H1278 H 0.51448 0.58866 0.3246 0.0
H1279 H 0.55074 0.60454 0.5029 0.0
H1280 H 0.54426 0.56989 0.54312 0.0
H1281 H 0.54768 0.61625 0.29637 0.0
H1282 H 0.53001 0.62751 0.57126 0.0
H1283 H 0.50602 0.60832 0.65037 0.0
H1284 H 0.45876 0.60533 0.50085 0.0
H1285 H 0.48299 0.62369 0.41903 0.0
C1286 C 0.5453 0.71103 0.26124 0.0
C1287 C 0.5263 0.71944 0.26557 0.0
C1288 C 0.54784 0.69307 0.29481 0.0
C1289 C 0.53141 0.68317 0.33326 0.0
C1290 C 0.51316 0.69281 0.34349 0.0
C1291 C 0.51059 0.71069 0.30942 0.0
C1292 C 0.53248 0.66186 0.35492 0.0
C1293 C 0.52396 0.65537 0.41897 0.0
C1294 C 0.53985 0.64719 0.30843 0.0
C1295 C 0.5379 0.64885 0.23339 0.0
C1296 C 0.51285 0.6544 0.20977 0.0
C1297 C 0.50224 0.64656 0.12912 0.0
C1298 C 0.52961 0.62641 0.05263 0.0
C1299 C 0.55274 0.62529 0.09807 0.0
C1300 C 0.55604 0.636 0.18176 0.0
C1301 C 0.51831 0.56445 0.39323 0.0
C1302 C 0.52596 0.55905 0.4563 0.0
C1303 C 0.52151 0.58451 0.37135 0.0
C1304 C 0.53267 0.59934 0.41176 0.0
C1305 C 0.54164 0.59351 0.47188 0.0
C1306 C 0.53804 0.57368 0.49454 0.0
C1307 C 0.53347 0.62115 0.39465 0.0
C1308 C 0.54196 0.62757 0.3313 0.0
C1309 C 0.52324 0.63494 0.43679 0.0
C1310 C 0.50816 0.6271 0.48975 0.0
C1311 C 0.51444 0.62296 0.5557 0.0
C1312 C 0.50083 0.61202 0.60075 0.0
C1313 C 0.48078 0.60566 0.58115 0.0
C1314 C 0.47427 0.61025 0.51612 0.0
C1315 C 0.48795 0.62086 0.47032 0.0
H1316 H 0.47024 0.59721 0.61612 0.0
H1317 H 0.52871 0.61921 0.00146 0.0
H1318 H 0.79868 0.47121 0.17629 0.0
H1319 H 0.8293 0.47246 0.24438 0.0
H1320 H 0.81188 0.5268 0.34857 0.0
H1321 H 0.78149 0.52613 0.27641 0.0
H1322 H 0.84903 0.53355 0.3131 0.0
H1323 H 0.81532 0.47843 0.43229 0.0
H1324 H 0.79506 0.44571 0.45054 0.0
H1325 H 0.84173 0.41491 0.3414 0.0
H1326 H 0.86217 0.44748 0.32164 0.0
H1327 H 0.93463 0.52859 0.53778 0.0
H1328 H 0.90028 0.52808 0.49006 0.0
H1329 H 0.91788 0.487 0.32799 0.0
H1330 H 0.95265 0.488 0.37427 0.0
H1331 H 0.87991 0.47438 0.4032 0.0
H1332 H 0.91225 0.53307 0.28596 0.0
H1333 H 0.93183 0.56663 0.28202 0.0
H1334 H 0.88554 0.59165 0.41182 0.0
H1335 H 0.86581 0.55817 0.4172 0.0
C1336 C 0.80104 0.48312 0.21513 0.0
C1337 C 0.78767 0.49859 0.22084 0.0
C1338 C 0.81858 0.48377 0.25471 0.0
C1339 C 0.8231 0.49966 0.30252 0.0
C1340 C 0.80891 0.51439 0.31199 0.0
C1341 C 0.79136 0.51387 0.27145 0.0
C1342 C 0.84359 0.50186 0.33632 0.0
C1343 C 0.85546 0.52066 0.33445 0.0
C1344 C 0.85244 0.48511 0.36353 0.0
C1345 C 0.84021 0.46544 0.37505 0.0
C1346 C 0.8212 0.4647 0.41172 0.0
C1347 C 0.80969 0.44617 0.42242 0.0
C1348 C 0.81708 0.42825 0.39703 0.0
C1349 C 0.83602 0.42881 0.36101 0.0
C1350 C 0.84759 0.4473 0.35014 0.0
C1351 C 0.9313 0.51967 0.49135 0.0
C1352 C 0.94639 0.50839 0.45958 0.0
C1353 C 0.91164 0.5194 0.46416 0.0
C1354 C 0.90645 0.50744 0.40559 0.0
C1355 C 0.92155 0.49632 0.37328 0.0
C1356 C 0.94143 0.497 0.39947 0.0
C1357 C 0.88504 0.50593 0.37995 0.0
C1358 C 0.87315 0.48726 0.38302 0.0
C1359 C 0.87594 0.52293 0.35644 0.0
C1360 C 0.88766 0.54309 0.35246 0.0
C1361 C 0.90633 0.5457 0.31404 0.0
C1362 C 0.91743 0.56471 0.31147 0.0
C1363 C 0.90996 0.58125 0.34678 0.0
C1364 C 0.89132 0.57883 0.38454 0.0
C1365 C 0.88015 0.55984 0.38728 0.0
H1366 H 0.91859 0.59596 0.34478 0.0
H1367 H 0.80815 0.41392 0.40536 0.0
loop_
_geom_bond_atom_site_label_1
_geom_bond_atom_site_label_2
_geom_bond_distance
_geom_bond_site_symmetry_2
_ccdc_geom_bond_type
H0 C3 0.929 . S
H1 C6 0.929 1_556 S
H2 C8 0.930 . S
C3 H0 0.929 . S
C3 C4 1.398 . S
C3 C5 1.396 . S
C4 C3 1.398 . S
C4 C8 1.407 . S
C5 C3 1.396 . S
C5 C6 1.394 . S
C6 H1 0.929 1_554 S
C6 C5 1.394 . S
C6 C7 1.382 . S
C7 C6 1.382 . S
C7 C8 1.392 . S
C7 N9 1.420 . S
C8 H2 0.930 . S
C8 C4 1.407 . S
C8 C7 1.392 . S
N9 C7 1.420 . S
N9 C10 1.244 . S
C10 N9 1.244 . S
H11 C14 0.929 . S
H12 C17 0.929 . S
H13 C19 0.930 . S
C14 H11 0.929 . S
C14 C15 1.393 1_655 S
C14 C16 1.395 1_654 S
C15 C14 1.393 1_455 S
C15 C19 1.416 . S
C16 C14 1.395 1_456 S
C16 C17 1.397 . S
C17 H12 0.929 . S
C17 C16 1.397 . S
C17 C18 1.382 1_556 S
C18 C17 1.382 1_554 S
C18 C19 1.392 . S
C18 N20 1.420 . S
C19 H13 0.930 . S
C19 C15 1.416 . S
C19 C18 1.392 . S
N20 C18 1.420 . S
N20 C21 1.232 1_454 S
C21 N20 1.232 1_656 S
H22 C25 0.929 . S
H23 C28 0.929 . S
H24 C30 0.930 . S
C25 H22 0.929 . S
C25 C26 1.398 . S
C25 C27 1.396 1_554 S
C26 C25 1.398 . S
C26 C30 1.407 . S
C27 C25 1.396 1_556 S
C27 C28 1.394 . S
C28 H23 0.929 . S
C28 C27 1.394 . S
C28 C29 1.382 1_556 S
C29 C28 1.382 1_554 S
C29 C30 1.392 . S
C29 N31 1.420 . S
C30 H24 0.930 . S
C30 C26 1.407 . S
C30 C29 1.392 . S
N31 C29 1.420 . S
N31 C32 1.244 1_554 S
C32 N31 1.244 1_556 S
H33 C36 0.929 . S
H34 C39 0.929 . S
H35 C41 0.930 . S
C36 H33 0.929 . S
C36 C37 1.398 . S
C36 C38 1.396 . S
C37 C36 1.398 . S
C37 C41 1.407 . S
C38 C36 1.396 . S
C38 C39 1.394 . S
C39 H34 0.929 . S
C39 C38 1.394 . S
C39 C40 1.382 . S
C40 C39 1.382 . S
C40 C41 1.392 . S
C40 N42 1.420 . S
C41 H35 0.930 . S
C41 C37 1.407 . S
C41 C40 1.392 . S
N42 C40 1.420 . S
N42 C43 1.244 . S
C43 N42 1.244 . S
H44 C47 0.929 . S
H45 C50 0.929 . S
H46 C52 0.930 1_556 S
C47 H44 0.929 . S
C47 C48 1.398 . S
C47 C49 1.396 . S
C48 C47 1.398 . S
C48 C52 1.407 . S
C49 C47 1.396 . S
C49 C50 1.394 . S
C50 H45 0.929 . S
C50 C49 1.394 . S
C50 C51 1.382 . S
C51 C50 1.382 . S
C51 C52 1.392 . S
C51 N53 1.420 . S
C52 H46 0.930 1_554 S
C52 C48 1.407 . S
C52 C51 1.392 . S
N53 C51 1.420 . S
N53 C54 1.244 . S
C54 N53 1.244 . S
H55 C58 0.929 . S
H56 C61 0.929 . S
H57 C63 0.930 . S
C58 H55 0.929 . S
C58 C59 1.398 1_655 S
C58 C60 1.394 1_655 S
C59 C58 1.398 1_455 S
C59 C63 1.412 . S
C60 C58 1.394 1_455 S
C60 C61 1.396 . S
C61 H56 0.929 . S
C61 C60 1.396 . S
C61 C62 1.382 . S
C62 C61 1.382 . S
C62 C63 1.392 . S
C62 N64 1.420 . S
C63 H57 0.930 . S
C63 C59 1.412 . S
C63 C62 1.392 . S
N64 C62 1.420 . S
N64 C65 1.237 1_455 S
C65 N64 1.237 1_655 S
H66 C69 0.929 . S
H67 C72 0.929 . S
H68 C74 0.930 . S
C69 H66 0.929 . S
C69 C70 1.398 . S
C69 C71 1.396 . S
C70 C69 1.398 . S
C70 C74 1.407 . S
C71 C69 1.396 . S
C71 C72 1.394 . S
C72 H67 0.929 . S
C72 C71 1.394 . S
C72 C73 1.382 . S
C73 C72 1.382 . S
C73 C74 1.392 . S
C73 N75 1.420 . S
C74 H68 0.930 . S
C74 C70 1.407 . S
C74 C73 1.392 . S
N75 C73 1.420 . S
N75 C76 1.244 . S
C76 N75 1.244 . S
H77 C80 0.929 . S
H78 C83 0.929 . S
H79 C85 0.930 . S
C80 H77 0.929 . S
C80 C81 1.398 1_554 S
C80 C82 1.396 . S
C81 C80 1.398 1_556 S
C81 C85 1.407 . S
C82 C80 1.396 . S
C82 C83 1.394 . S
C83 H78 0.929 . S
C83 C82 1.394 . S
C83 C84 1.382 . S
C84 C83 1.382 . S
C84 C85 1.392 1_554 S
C84 N86 1.420 . S
C85 H79 0.930 . S
C85 C81 1.407 . S
C85 C84 1.392 1_556 S
N86 C84 1.420 . S
N86 C87 1.244 . S
C87 N86 1.244 . S
Dy88 O92 2.398 . S
Dy88 O93 2.491 1_455 S
Dy88 O94 2.403 . S
Dy88 O95 2.664 1_565 S
Dy88 O99 2.326 . S
Dy88 O103 2.310 1_455 S
Dy88 O104 2.351 1_565 S
C89 O100 1.185 . S
C89 O101 1.355 1_655 S
C90 O92 1.185 . S
C90 O93 1.355 1_455 S
Dy91 O95 2.310 1_655 S
Dy91 O98 2.351 1_545 S
Dy91 O100 2.398 . S
Dy91 O101 2.491 1_655 S
Dy91 O102 2.403 . S
Dy91 O103 2.664 1_545 S
Dy91 O105 2.326 . S
O92 Dy88 2.398 . S
O92 C90 1.185 . S
O93 Dy88 2.491 1_655 S
O93 C90 1.355 1_655 S
O94 Dy88 2.403 . S
O94 C96 1.254 1_565 S
O95 Dy88 2.664 1_545 S
O95 Dy91 2.310 1_455 S
O95 C96 1.268 . S
C96 O94 1.254 1_545 S
C96 O95 1.268 . S
C97 O102 1.254 1_565 S
C97 O103 1.268 . S
O98 Dy91 2.351 1_565 S
O98 C106 1.249 . S
O99 Dy88 2.326 . S
O99 C106 1.267 1_455 S
O100 C89 1.185 . S
O100 Dy91 2.398 . S
O101 C89 1.355 1_455 S
O101 Dy91 2.491 1_455 S
O102 Dy91 2.403 . S
O102 C97 1.254 1_545 S
O103 Dy88 2.310 1_655 S
O103 Dy91 2.664 1_565 S
O103 C97 1.268 . S
O104 Dy88 2.351 1_545 S
O104 C107 1.249 . S
O105 Dy91 2.326 . S
O105 C107 1.267 1_655 S
C106 O98 1.249 . S
C106 O99 1.267 1_655 S
C107 O104 1.249 . S
C107 O105 1.267 1_455 S
Dy108 O112 2.398 . S
Dy108 O113 2.491 1_565 S
Dy108 O114 2.403 . S
Dy108 O115 2.664 . S
Dy108 O119 2.326 1_565 S
Dy108 O123 2.310 1_565 S
Dy108 O124 2.351 . S
C109 O120 1.191 . S
C109 O121 1.353 1_545 S
C110 O112 1.185 1_545 S
C110 O113 1.355 . S
Dy111 O115 2.310 1_545 S
Dy111 O118 2.351 . S
Dy111 O120 2.398 . S
Dy111 O121 2.491 1_545 S
Dy111 O122 2.403 . S
Dy111 O123 2.664 . S
Dy111 O125 2.326 1_545 S
O112 Dy108 2.398 . S
O112 C110 1.185 1_565 S
O113 Dy108 2.491 1_545 S
O113 C110 1.355 . S
O114 Dy108 2.403 . S
O114 C116 1.254 . S
O115 Dy108 2.664 . S
O115 Dy111 2.310 1_565 S
O115 C116 1.268 . S
C116 O114 1.254 . S
C116 O115 1.268 . S
C117 O122 1.254 . S
C117 O123 1.268 . S
O118 Dy111 2.351 . S
O118 C126 1.249 . S
O119 Dy108 2.326 1_545 S
O119 C126 1.267 . S
O120 C109 1.191 . S
O120 Dy111 2.398 . S
O121 C109 1.353 1_565 S
O121 Dy111 2.491 1_565 S
O122 Dy111 2.403 . S
O122 C117 1.254 . S
O123 Dy108 2.310 1_545 S
O123 Dy111 2.664 . S
O123 C117 1.268 . S
O124 Dy108 2.351 . S
O124 C127 1.249 . S
O125 Dy111 2.326 1_565 S
O125 C127 1.267 . S
C126 O118 1.249 . S
C126 O119 1.267 . S
C127 O124 1.249 . S
C127 O125 1.267 . S
Dy128 O132 2.398 . S
Dy128 O133 2.491 . S
Dy128 O134 2.403 . S
Dy128 O135 2.664 . S
Dy128 O139 2.326 . S
Dy128 O143 2.310 . S
Dy128 O144 2.351 . S
C129 O140 1.185 . S
C129 O141 1.355 . S
C130 O132 1.185 . S
C130 O133 1.355 . S
Dy131 O135 2.310 . S
Dy131 O138 2.351 . S
Dy131 O140 2.398 . S
Dy131 O141 2.491 . S
Dy131 O142 2.403 . S
Dy131 O143 2.664 . S
Dy131 O145 2.326 . S
O132 Dy128 2.398 . S
O132 C130 1.185 . S
O133 Dy128 2.491 . S
O133 C130 1.355 . S
O134 Dy128 2.403 . S
O134 C136 1.254 . S
O135 Dy128 2.664 . S
O135 Dy131 2.310 . S
O135 C136 1.268 . S
C136 O134 1.254 . S
C136 O135 1.268 . S
C137 O142 1.254 . S
C137 O143 1.268 . S
O138 Dy131 2.351 . S
O138 C146 1.249 . S
O139 Dy128 2.326 . S
O139 C146 1.267 . S
O140 C129 1.185 . S
O140 Dy131 2.398 . S
O141 C129 1.355 . S
O141 Dy131 2.491 . S
O142 Dy131 2.403 . S
O142 C137 1.254 . S
O143 Dy128 2.310 . S
O143 Dy131 2.664 . S
O143 C137 1.268 . S
O144 Dy128 2.351 . S
O144 C147 1.249 . S
O145 Dy131 2.326 . S
O145 C147 1.267 . S
C146 O138 1.249 . S
C146 O139 1.267 . S
C147 O144 1.249 . S
C147 O145 1.267 . S
Dy148 O152 2.398 . S
Dy148 O153 2.491 . S
Dy148 O154 2.403 . S
Dy148 O155 2.664 1_655 S
Dy148 O159 2.326 . S
Dy148 O163 2.310 . S
Dy148 O164 2.351 1_655 S
C149 O160 1.185 . S
C149 O161 1.355 . S
C150 O152 1.185 . S
C150 O153 1.355 . S
Dy151 O155 2.310 . S
Dy151 O158 2.351 1_455 S
Dy151 O160 2.398 . S
Dy151 O161 2.491 . S
Dy151 O162 2.403 . S
Dy151 O163 2.664 1_455 S
Dy151 O165 2.326 . S
O152 Dy148 2.398 . S
O152 C150 1.185 . S
O153 Dy148 2.491 . S
O153 C150 1.355 . S
O154 Dy148 2.403 . S
O154 C156 1.254 . S
O155 Dy148 2.664 1_455 S
O155 Dy151 2.310 . S
O155 C156 1.268 1_455 S
C156 O154 1.254 . S
C156 O155 1.268 1_655 S
C157 O162 1.254 . S
C157 O163 1.268 1_455 S
O158 Dy151 2.351 1_655 S
O158 C166 1.249 . S
O159 Dy148 2.326 . S
O159 C166 1.267 . S
O160 C149 1.185 . S
O160 Dy151 2.398 . S
O161 C149 1.355 . S
O161 Dy151 2.491 . S
O162 Dy151 2.403 . S
O162 C157 1.254 . S
O163 Dy148 2.310 . S
O163 Dy151 2.664 1_655 S
O163 C157 1.268 1_655 S
O164 Dy148 2.351 1_455 S
O164 C167 1.249 . S
O165 Dy151 2.326 . S
O165 C167 1.267 . S
C166 O158 1.249 . S
C166 O159 1.267 . S
C167 O164 1.249 . S
C167 O165 1.267 . S
H168 C186 0.951 . S
H169 C188 0.951 . S
H170 C190 0.950 . S
H171 C191 0.950 . S
H172 C193 0.950 . S
H173 C196 0.950 . S
H174 C197 0.950 . S
H175 C199 0.950 . S
H176 C200 0.950 . S
H177 C201 0.951 . S
H178 C203 0.951 . S
H179 C205 0.950 . S
H180 C206 0.950 . S
H181 C208 0.950 . S
H182 C211 0.950 . S
H183 C212 0.950 . S
H184 C214 0.950 . S
H185 C215 0.950 . S
C186 H168 0.951 . S
C186 C187 1.366 . S
C186 C188 1.388 . S
C187 C186 1.366 . S
C187 C191 1.385 . S
C188 H169 0.951 . S
C188 C186 1.388 . S
C188 C189 1.366 . S
C189 C188 1.366 . S
C189 C190 1.414 . S
C189 C192 1.499 . S
C190 H170 0.950 . S
C190 C189 1.414 . S
C190 C191 1.374 . S
C191 H171 0.950 . S
C191 C187 1.385 . S
C191 C190 1.374 . S
C192 C189 1.499 . S
C192 C193 1.373 . S
C192 C194 1.389 . S
C193 H172 0.950 . S
C193 C192 1.373 . S
C193 C209 1.377 . S
C194 C192 1.389 . S
C194 C195 1.524 . S
C194 C208 1.377 . S
C195 C194 1.524 . S
C195 C196 1.397 1_545 S
C195 C200 1.363 . S
C196 H173 0.950 . S
C196 C195 1.397 1_565 S
C196 C197 1.334 . S
C197 H174 0.950 . S
C197 C196 1.334 . S
C197 C198 1.287 . S
C198 C197 1.287 . S
C198 C199 1.524 . S
C198 H217 0.913 . S
C199 H175 0.950 . S
C199 C198 1.524 . S
C199 C200 1.415 1_565 S
C200 H176 0.950 . S
C200 C195 1.363 . S
C200 C199 1.415 1_545 S
C201 H177 0.951 . S
C201 C202 1.366 . S
C201 C203 1.388 . S
C202 C201 1.366 . S
C202 C206 1.385 . S
C203 H178 0.951 . S
C203 C201 1.388 . S
C203 C204 1.366 . S
C204 C203 1.366 . S
C204 C205 1.414 . S
C204 C207 1.499 . S
C205 H179 0.950 . S
C205 C204 1.414 . S
C205 C206 1.374 . S
C206 H180 0.950 . S
C206 C202 1.385 . S
C206 C205 1.374 . S
C207 C204 1.499 . S
C207 C208 1.373 . S
C207 C209 1.389 . S
C208 H181 0.950 . S
C208 C194 1.377 . S
C208 C207 1.373 . S
C209 C193 1.377 . S
C209 C207 1.389 . S
C209 C210 1.524 . S
C210 C209 1.524 . S
C210 C211 1.397 . S
C210 C215 1.363 . S
C211 H182 0.950 . S
C211 C210 1.397 . S
C211 C212 1.334 . S
C212 H183 0.950 . S
C212 C211 1.334 . S
C212 C213 1.287 . S
C213 C212 1.287 . S
C213 C214 1.524 . S
C213 H216 0.999 . S
C214 H184 0.950 . S
C214 C213 1.524 . S
C214 C215 1.415 . S
C215 H185 0.950 . S
C215 C210 1.363 . S
C215 C214 1.415 . S
H216 C213 0.999 . S
H217 C198 0.913 . S
H218 C236 0.951 . S
H219 C238 0.951 . S
H220 C240 0.950 . S
H221 C241 0.950 . S
H222 C243 0.950 . S
H223 C246 0.950 . S
H224 C247 0.950 . S
H225 C249 0.950 . S
H226 C250 0.950 . S
H227 C251 0.951 . S
H228 C253 0.951 . S
H229 C255 0.950 . S
H230 C256 0.950 . S
H231 C258 0.950 . S
H232 C261 0.950 . S
H233 C262 0.950 . S
H234 C264 0.950 . S
H235 C265 0.950 . S
C236 H218 0.951 . S
C236 C237 1.366 . S
C236 C238 1.388 . S
C237 C236 1.366 . S
C237 C241 1.385 . S
C238 H219 0.951 . S
C238 C236 1.388 . S
C238 C239 1.366 . S
C239 C238 1.366 . S
C239 C240 1.414 . S
C239 C242 1.499 . S
C240 H220 0.950 . S
C240 C239 1.414 . S
C240 C241 1.374 . S
C241 H221 0.950 . S
C241 C237 1.385 . S
C241 C240 1.374 . S
C242 C239 1.499 . S
C242 C243 1.373 . S
C242 C244 1.389 . S
C243 H222 0.950 . S
C243 C242 1.373 . S
C243 C259 1.377 . S
C244 C242 1.389 . S
C244 C245 1.524 . S
C244 C258 1.377 . S
C245 C244 1.524 . S
C245 C246 1.397 . S
C245 C250 1.363 . S
C246 H223 0.950 . S
C246 C245 1.397 . S
C246 C247 1.334 . S
C247 H224 0.950 . S
C247 C246 1.334 . S
C247 C248 1.287 . S
C248 C247 1.287 . S
C248 C249 1.524 . S
C248 H267 0.913 . S
C249 H225 0.950 . S
C249 C248 1.524 . S
C249 C250 1.415 . S
C250 H226 0.950 . S
C250 C245 1.363 . S
C250 C249 1.415 . S
C251 H227 0.951 . S
C251 C252 1.366 . S
C251 C253 1.388 . S
C252 C251 1.366 . S
C252 C256 1.385 . S
C253 H228 0.951 . S
C253 C251 1.388 . S
C253 C254 1.366 . S
C254 C253 1.366 . S
C254 C255 1.414 . S
C254 C257 1.499 . S
C255 H229 0.950 . S
C255 C254 1.414 . S
C255 C256 1.374 . S
C256 H230 0.950 . S
C256 C252 1.385 . S
C256 C255 1.374 . S
C257 C254 1.499 . S
C257 C258 1.373 . S
C257 C259 1.389 . S
C258 H231 0.950 . S
C258 C244 1.377 . S
C258 C257 1.373 . S
C259 C243 1.377 . S
C259 C257 1.389 . S
C259 C260 1.524 . S
C260 C259 1.524 . S
C260 C261 1.397 . S
C260 C265 1.363 . S
C261 H232 0.950 . S
C261 C260 1.397 . S
C261 C262 1.334 . S
C262 H233 0.950 . S
C262 C261 1.334 . S
C262 C263 1.287 . S
C263 C262 1.287 . S
C263 C264 1.524 . S
C263 H266 0.999 . S
C264 H234 0.950 . S
C264 C263 1.524 . S
C264 C265 1.415 . S
C265 H235 0.950 . S
C265 C260 1.363 . S
C265 C264 1.415 . S
H266 C263 0.999 . S
H267 C248 0.913 . S
H268 C286 0.951 . S
H269 C288 0.951 . S
H270 C290 0.950 . S
H271 C291 0.950 . S
H272 C293 0.950 . S
H273 C296 0.950 . S
H274 C297 0.950 . S
H275 C299 0.950 . S
H276 C300 0.950 . S
H277 C301 0.951 . S
H278 C303 0.951 . S
H279 C305 0.950 . S
H280 C306 0.950 . S
H281 C308 0.950 . S
H282 C311 0.950 . S
H283 C312 0.950 . S
H284 C314 0.950 . S
H285 C315 0.950 . S
C286 H268 0.951 . S
C286 C287 1.366 . S
C286 C288 1.388 . S
C287 C286 1.366 . S
C287 C291 1.385 . S
C288 H269 0.951 . S
C288 C286 1.388 . S
C288 C289 1.366 . S
C289 C288 1.366 . S
C289 C290 1.414 . S
C289 C292 1.499 . S
C290 H270 0.950 . S
C290 C289 1.414 . S
C290 C291 1.374 . S
C291 H271 0.950 . S
C291 C287 1.385 . S
C291 C290 1.374 . S
C292 C289 1.499 . S
C292 C293 1.373 . S
C292 C294 1.389 . S
C293 H272 0.950 . S
C293 C292 1.373 . S
C293 C309 1.377 . S
C294 C292 1.389 . S
C294 C295 1.524 . S
C294 C308 1.377 . S
C295 C294 1.524 . S
C295 C296 1.397 . S
C295 C300 1.363 . S
C296 H273 0.950 . S
C296 C295 1.397 . S
C296 C297 1.334 . S
C297 H274 0.950 . S
C297 C296 1.334 . S
C297 C298 1.287 . S
C298 C297 1.287 . S
C298 C299 1.524 . S
C298 H317 0.913 . S
C299 H275 0.950 . S
C299 C298 1.524 . S
C299 C300 1.415 . S
C300 H276 0.950 . S
C300 C295 1.363 . S
C300 C299 1.415 . S
C301 H277 0.951 . S
C301 C302 1.366 . S
C301 C303 1.388 . S
C302 C301 1.366 . S
C302 C306 1.385 . S
C303 H278 0.951 . S
C303 C301 1.388 . S
C303 C304 1.366 . S
C304 C303 1.366 . S
C304 C305 1.414 . S
C304 C307 1.499 . S
C305 H279 0.950 . S
C305 C304 1.414 . S
C305 C306 1.374 . S
C306 H280 0.950 . S
C306 C302 1.385 . S
C306 C305 1.374 . S
C307 C304 1.499 . S
C307 C308 1.373 . S
C307 C309 1.389 . S
C308 H281 0.950 . S
C308 C294 1.377 . S
C308 C307 1.373 . S
C309 C293 1.377 . S
C309 C307 1.389 . S
C309 C310 1.524 . S
C310 C309 1.524 . S
C310 C311 1.397 . S
C310 C315 1.363 . S
C311 H282 0.950 . S
C311 C310 1.397 . S
C311 C312 1.334 . S
C312 H283 0.950 . S
C312 C311 1.334 . S
C312 C313 1.287 . S
C313 C312 1.287 . S
C313 C314 1.524 . S
C313 H316 0.999 . S
C314 H284 0.950 . S
C314 C313 1.524 . S
C314 C315 1.415 . S
C315 H285 0.950 . S
C315 C310 1.363 . S
C315 C314 1.415 . S
H316 C313 0.999 . S
H317 C298 0.913 . S
H318 C336 0.951 . S
H319 C338 0.951 . S
H320 C340 0.950 . S
H321 C341 0.950 . S
H322 C343 0.950 . S
H323 C346 0.950 . S
H324 C347 0.950 . S
H325 C349 0.950 . S
H326 C350 0.950 1_655 S
H327 C351 0.951 . S
H328 C353 0.951 . S
H329 C355 0.950 . S
H330 C356 0.950 . S
H331 C358 0.950 . S
H332 C361 0.950 . S
H333 C362 0.950 . S
H334 C364 0.950 . S
H335 C365 0.928 1_455 S
C336 H318 0.951 . S
C336 C337 1.368 1_655 S
C336 C338 1.388 . S
C337 C336 1.368 1_455 S
C337 C341 1.382 . S
C338 H319 0.951 . S
C338 C336 1.388 . S
C338 C339 1.346 1_655 S
C339 C338 1.346 1_455 S
C339 C340 1.435 . S
C339 C342 1.497 . S
C340 H320 0.950 . S
C340 C339 1.435 . S
C340 C341 1.374 . S
C341 H321 0.950 . S
C341 C337 1.382 . S
C341 C340 1.374 . S
C342 C339 1.497 . S
C342 C343 1.373 1_455 S
C342 C344 1.389 . S
C343 H322 0.950 . S
C343 C342 1.373 1_655 S
C343 C359 1.377 . S
C344 C342 1.389 . S
C344 C345 1.524 . S
C344 C358 1.377 . S
C345 C344 1.524 . S
C345 C346 1.397 . S
C345 C350 1.363 . S
C346 H323 0.950 . S
C346 C345 1.397 . S
C346 C347 1.334 . S
C347 H324 0.950 . S
C347 C346 1.334 . S
C347 C348 1.287 . S
C348 C347 1.287 . S
C348 C349 1.524 . S
C348 H367 0.913 . S
C349 H325 0.950 . S
C349 C348 1.524 . S
C349 C350 1.415 . S
C350 H326 0.950 1_455 S
C350 C345 1.363 . S
C350 C349 1.415 . S
C351 H327 0.951 . S
C351 C352 1.366 1_455 S
C351 C353 1.388 . S
C352 C351 1.366 1_655 S
C352 C356 1.385 . S
C353 H328 0.951 . S
C353 C351 1.388 . S
C353 C354 1.366 1_455 S
C354 C353 1.366 1_655 S
C354 C355 1.414 . S
C354 C357 1.499 . S
C355 H329 0.950 . S
C355 C354 1.414 . S
C355 C356 1.374 . S
C356 H330 0.950 . S
C356 C352 1.385 . S
C356 C355 1.374 . S
C357 C354 1.499 . S
C357 C358 1.373 1_655 S
C357 C359 1.389 . S
C358 H331 0.950 . S
C358 C344 1.377 . S
C358 C357 1.373 1_455 S
C359 C343 1.377 . S
C359 C357 1.389 . S
C359 C360 1.524 . S
C360 C359 1.524 . S
C360 C361 1.397 . S
C360 C365 1.363 . S
C361 H332 0.950 . S
C361 C360 1.397 . S
C361 C362 1.334 . S
C362 H333 0.950 . S
C362 C361 1.334 . S
C362 C363 1.287 . S
C363 C362 1.287 . S
C363 C364 1.524 . S
C363 H366 0.999 . S
C364 H334 0.950 . S
C364 C363 1.524 . S
C364 C365 1.415 . S
C365 H335 0.928 1_655 S
C365 C360 1.363 . S
C365 C364 1.415 . S
H366 C363 0.999 . S
H367 C348 0.913 . S
H368 C386 0.951 . S
H369 C388 0.951 . S
H370 C390 0.950 . S
H371 C391 0.950 . S
H372 C393 0.950 . S
H373 C396 0.950 . S
H374 C397 0.950 1_554 S
H375 C399 0.950 . S
H376 C400 0.950 . S
H377 C401 0.951 . S
H378 C403 0.950 . S
H379 C405 0.950 . S
H380 C406 0.950 . S
H381 C408 0.950 . S
H382 C411 0.950 1_565 S
H383 C412 0.950 . S
H384 C414 0.950 . S
H385 C415 0.950 . S
C386 H368 0.951 . S
C386 C387 1.366 . S
C386 C388 1.388 . S
C387 C386 1.366 . S
C387 C391 1.385 . S
C388 H369 0.951 . S
C388 C386 1.388 . S
C388 C389 1.366 . S
C389 C388 1.366 . S
C389 C390 1.414 . S
C389 C392 1.499 . S
C390 H370 0.950 . S
C390 C389 1.414 . S
C390 C391 1.374 . S
C391 H371 0.950 . S
C391 C387 1.385 . S
C391 C390 1.374 . S
C392 C389 1.499 . S
C392 C393 1.373 . S
C392 C394 1.389 . S
C393 H372 0.950 . S
C393 C392 1.373 . S
C393 C409 1.377 . S
C394 C392 1.389 . S
C394 C395 1.524 . S
C394 C408 1.377 . S
C395 C394 1.524 . S
C395 C396 1.397 . S
C395 C400 1.363 . S
C396 H373 0.950 . S
C396 C395 1.397 . S
C396 C397 1.334 . S
C397 H374 0.950 1_556 S
C397 C396 1.334 . S
C397 C398 1.287 . S
C398 C397 1.287 . S
C398 C399 1.524 . S
C398 H417 0.913 . S
C399 H375 0.950 . S
C399 C398 1.524 . S
C399 C400 1.415 . S
C400 H376 0.950 . S
C400 C395 1.363 . S
C400 C399 1.415 . S
C401 H377 0.951 . S
C401 C402 1.366 1_545 S
C401 C403 1.388 . S
C402 C401 1.366 1_565 S
C402 C406 1.385 . S
C403 H378 0.950 . S
C403 C401 1.388 . S
C403 C404 1.367 1_545 S
C404 C403 1.367 1_565 S
C404 C405 1.414 . S
C404 C407 1.499 . S
C405 H379 0.950 . S
C405 C404 1.414 . S
C405 C406 1.374 . S
C406 H380 0.950 . S
C406 C402 1.385 . S
C406 C405 1.374 . S
C407 C404 1.499 . S
C407 C408 1.373 . S
C407 C409 1.389 . S
C408 H381 0.950 . S
C408 C394 1.377 . S
C408 C407 1.373 . S
C409 C393 1.377 . S
C409 C407 1.389 . S
C409 C410 1.524 1_565 S
C410 C409 1.524 1_545 S
C410 C411 1.397 . S
C410 C415 1.363 . S
C411 H382 0.950 1_545 S
C411 C410 1.397 . S
C411 C412 1.334 . S
C412 H383 0.950 . S
C412 C411 1.334 . S
C412 C413 1.287 . S
C413 C412 1.287 . S
C413 C414 1.524 . S
C413 H416 0.999 . S
C414 H384 0.950 . S
C414 C413 1.524 . S
C414 C415 1.415 . S
C415 H385 0.950 . S
C415 C410 1.363 . S
C415 C414 1.415 . S
H416 C413 0.999 . S
H417 C398 0.913 . S
H418 C436 0.951 . S
H419 C438 0.951 . S
H420 C440 0.950 . S
H421 C441 0.950 . S
H422 C443 0.950 . S
H423 C446 0.950 . S
H424 C447 0.950 . S
H425 C449 0.950 . S
H426 C450 0.950 . S
H427 C451 0.951 . S
H428 C453 0.951 . S
H429 C455 0.950 . S
H430 C456 0.950 . S
H431 C458 0.950 . S
H432 C461 0.950 . S
H433 C462 0.950 . S
H434 C464 0.950 . S
H435 C465 0.950 . S
C436 H418 0.951 . S
C436 C437 1.366 1_556 S
C436 C438 1.388 . S
C437 C436 1.366 1_554 S
C437 C441 1.385 . S
C438 H419 0.951 . S
C438 C436 1.388 . S
C438 C439 1.366 . S
C439 C438 1.366 . S
C439 C440 1.414 . S
C439 C442 1.499 . S
C440 H420 0.950 . S
C440 C439 1.414 . S
C440 C441 1.374 1_556 S
C441 H421 0.950 . S
C441 C437 1.385 . S
C441 C440 1.374 1_554 S
C442 C439 1.499 . S
C442 C443 1.373 . S
C442 C444 1.389 . S
C443 H422 0.950 . S
C443 C442 1.373 . S
C443 C459 1.377 . S
C444 C442 1.389 . S
C444 C445 1.524 . S
C444 C458 1.377 . S
C445 C444 1.524 . S
C445 C446 1.397 1_556 S
C445 C450 1.363 . S
C446 H423 0.950 . S
C446 C445 1.397 1_554 S
C446 C447 1.334 . S
C447 H424 0.950 . S
C447 C446 1.334 . S
C447 C448 1.287 . S
C448 C447 1.287 . S
C448 C449 1.524 1_554 S
C448 H467 0.913 . S
C449 H425 0.950 . S
C449 C448 1.524 1_556 S
C449 C450 1.415 . S
C450 H426 0.950 . S
C450 C445 1.363 . S
C450 C449 1.415 . S
C451 H427 0.951 . S
C451 C452 1.366 . S
C451 C453 1.388 . S
C452 C451 1.366 . S
C452 C456 1.385 . S
C453 H428 0.951 . S
C453 C451 1.388 . S
C453 C454 1.366 . S
C454 C453 1.366 . S
C454 C455 1.414 . S
C454 C457 1.499 . S
C455 H429 0.950 . S
C455 C454 1.414 . S
C455 C456 1.374 . S
C456 H430 0.950 . S
C456 C452 1.385 . S
C456 C455 1.374 . S
C457 C454 1.499 . S
C457 C458 1.373 . S
C457 C459 1.389 . S
C458 H431 0.950 . S
C458 C444 1.377 . S
C458 C457 1.373 . S
C459 C443 1.377 . S
C459 C457 1.389 . S
C459 C460 1.524 . S
C460 C459 1.524 . S
C460 C461 1.397 . S
C460 C465 1.363 . S
C461 H432 0.950 . S
C461 C460 1.397 . S
C461 C462 1.334 . S
C462 H433 0.950 . S
C462 C461 1.334 . S
C462 C463 1.287 . S
C463 C462 1.287 . S
C463 C464 1.524 . S
C463 H466 0.999 . S
C464 H434 0.950 . S
C464 C463 1.524 . S
C464 C465 1.415 . S
C465 H435 0.950 . S
C465 C460 1.363 . S
C465 C464 1.415 . S
H466 C463 0.999 . S
H467 C448 0.913 . S
H468 C486 0.951 . S
H469 C488 0.951 . S
H470 C490 0.950 . S
H471 C491 0.950 . S
H472 C493 0.950 . S
H473 C496 0.950 . S
H474 C497 0.950 . S
H475 C499 0.950 . S
H476 C500 0.950 . S
H477 C501 0.951 . S
H478 C503 0.951 . S
H479 C505 0.950 . S
H480 C506 0.950 . S
H481 C508 0.950 . S
H482 C511 0.950 . S
H483 C512 0.950 . S
H484 C514 0.950 1_554 S
H485 C515 0.950 . S
C486 H468 0.951 . S
C486 C487 1.366 . S
C486 C488 1.388 . S
C487 C486 1.366 . S
C487 C491 1.385 1_556 S
C488 H469 0.951 . S
C488 C486 1.388 . S
C488 C489 1.366 . S
C489 C488 1.366 . S
C489 C490 1.414 . S
C489 C492 1.499 . S
C490 H470 0.950 . S
C490 C489 1.414 . S
C490 C491 1.374 1_556 S
C491 H471 0.950 . S
C491 C487 1.385 1_554 S
C491 C490 1.374 1_554 S
C492 C489 1.499 . S
C492 C493 1.373 . S
C492 C494 1.389 . S
C493 H472 0.950 . S
C493 C492 1.373 . S
C493 C509 1.377 . S
C494 C492 1.389 . S
C494 C495 1.524 . S
C494 C508 1.377 . S
C495 C494 1.524 . S
C495 C496 1.397 . S
C495 C500 1.363 . S
C496 H473 0.950 . S
C496 C495 1.397 . S
C496 C497 1.334 . S
C497 H474 0.950 . S
C497 C496 1.334 . S
C497 C498 1.287 . S
C498 C497 1.287 . S
C498 C499 1.524 . S
C498 H517 0.913 . S
C499 H475 0.950 . S
C499 C498 1.524 . S
C499 C500 1.415 . S
C500 H476 0.950 . S
C500 C495 1.363 . S
C500 C499 1.415 . S
C501 H477 0.951 . S
C501 C502 1.366 . S
C501 C503 1.388 . S
C502 C501 1.366 . S
C502 C506 1.385 . S
C503 H478 0.951 . S
C503 C501 1.388 . S
C503 C504 1.366 . S
C504 C503 1.366 . S
C504 C505 1.414 . S
C504 C507 1.499 . S
C505 H479 0.950 . S
C505 C504 1.414 . S
C505 C506 1.374 . S
C506 H480 0.950 . S
C506 C502 1.385 . S
C506 C505 1.374 . S
C507 C504 1.499 . S
C507 C508 1.373 . S
C507 C509 1.389 . S
C508 H481 0.950 . S
C508 C494 1.377 . S
C508 C507 1.373 . S
C509 C493 1.377 . S
C509 C507 1.389 . S
C509 C510 1.524 . S
C510 C509 1.524 . S
C510 C511 1.397 . S
C510 C515 1.363 . S
C511 H482 0.950 . S
C511 C510 1.397 . S
C511 C512 1.334 . S
C512 H483 0.950 . S
C512 C511 1.334 . S
C512 C513 1.287 . S
C513 C512 1.287 . S
C513 C514 1.524 . S
C513 H516 0.999 . S
C514 H484 0.950 1_556 S
C514 C513 1.524 . S
C514 C515 1.415 . S
C515 H485 0.950 . S
C515 C510 1.363 . S
C515 C514 1.415 . S
H516 C513 0.999 . S
H517 C498 0.913 . S
H518 C536 0.958 . S
H519 C538 0.951 . S
H520 C540 0.950 . S
H521 C541 0.950 . S
H522 C543 0.950 . S
H523 C546 0.950 . S
H524 C547 0.950 . S
H525 C549 0.950 . S
H526 C550 0.950 . S
H527 C551 0.951 . S
H528 C553 0.951 . S
H529 C555 0.950 . S
H530 C556 0.950 . S
H531 C558 0.950 . S
H532 C561 0.950 . S
H533 C562 0.950 . S
H534 C564 0.950 . S
H535 C565 0.950 . S
C536 H518 0.958 . S
C536 C537 1.362 1_554 S
C536 C538 1.384 1_554 S
C537 C536 1.362 1_556 S
C537 C541 1.385 1_655 S
C538 H519 0.951 . S
C538 C536 1.384 1_556 S
C538 C539 1.366 1_655 S
C539 C538 1.366 1_455 S
C539 C540 1.414 . S
C539 C542 1.499 . S
C540 H520 0.950 . S
C540 C539 1.414 . S
C540 C541 1.374 . S
C541 H521 0.950 . S
C541 C537 1.385 1_455 S
C541 C540 1.374 . S
C542 C539 1.499 . S
C542 C543 1.373 1_455 S
C542 C544 1.389 . S
C543 H522 0.950 . S
C543 C542 1.373 1_655 S
C543 C559 1.377 . S
C544 C542 1.389 . S
C544 C545 1.524 . S
C544 C558 1.377 . S
C545 C544 1.524 . S
C545 C546 1.397 . S
C545 C550 1.363 . S
C546 H523 0.950 . S
C546 C545 1.397 . S
C546 C547 1.334 1_556 S
C547 H524 0.950 . S
C547 C546 1.334 1_554 S
C547 C548 1.287 . S
C548 C547 1.287 . S
C548 C549 1.524 . S
C548 H567 0.913 . S
C549 H525 0.950 . S
C549 C548 1.524 . S
C549 C550 1.415 1_554 S
C550 H526 0.950 . S
C550 C545 1.363 . S
C550 C549 1.415 1_556 S
C551 H527 0.951 . S
C551 C552 1.366 . S
C551 C553 1.388 . S
C552 C551 1.366 . S
C552 C556 1.385 1_455 S
C553 H528 0.951 . S
C553 C551 1.388 . S
C553 C554 1.362 1_455 S
C554 C553 1.362 1_655 S
C554 C555 1.416 . S
C554 C557 1.497 . S
C555 H529 0.950 . S
C555 C554 1.416 . S
C555 C556 1.374 . S
C556 H530 0.950 . S
C556 C552 1.385 1_655 S
C556 C555 1.374 . S
C557 C554 1.497 . S
C557 C558 1.355 1_655 S
C557 C559 1.409 . S
C558 H531 0.950 . S
C558 C544 1.377 . S
C558 C557 1.355 1_455 S
C559 C543 1.377 . S
C559 C557 1.409 . S
C559 C560 1.524 . S
C560 C559 1.524 . S
C560 C561 1.397 . S
C560 C565 1.363 . S
C561 H532 0.950 . S
C561 C560 1.397 . S
C561 C562 1.334 . S
C562 H533 0.950 . S
C562 C561 1.334 . S
C562 C563 1.287 . S
C563 C562 1.287 . S
C563 C564 1.524 . S
C563 H566 0.999 . S
C564 H534 0.950 . S
C564 C563 1.524 . S
C564 C565 1.415 . S
C565 H535 0.950 . S
C565 C560 1.363 . S
C565 C564 1.415 . S
H566 C563 0.999 . S
H567 C548 0.913 . S
H568 C586 0.951 . S
H569 C588 0.951 . S
H570 C590 0.950 . S
H571 C591 0.950 . S
H572 C593 0.950 . S
H573 C596 0.950 . S
H574 C597 0.950 . S
H575 C599 0.950 1_655 S
H576 C600 0.950 . S
H577 C601 0.951 . S
H578 C603 0.951 . S
H579 C605 0.950 . S
H580 C606 0.950 . S
H581 C608 0.950 . S
H582 C611 0.950 . S
H583 C612 0.950 . S
H584 C614 0.950 . S
H585 C615 0.950 1_455 S
C586 H568 0.951 . S
C586 C587 1.364 1_655 S
C586 C588 1.388 . S
C587 C586 1.364 1_455 S
C587 C591 1.386 . S
C588 H569 0.951 . S
C588 C586 1.388 . S
C588 C589 1.366 . S
C589 C588 1.366 . S
C589 C590 1.414 1_655 S
C589 C592 1.499 . S
C590 H570 0.950 . S
C590 C589 1.414 1_455 S
C590 C591 1.374 . S
C591 H571 0.950 . S
C591 C587 1.386 . S
C591 C590 1.374 . S
C592 C589 1.499 . S
C592 C593 1.373 . S
C592 C594 1.395 . S
C593 H572 0.950 . S
C593 C592 1.373 . S
C593 C609 1.377 . S
C594 C592 1.395 . S
C594 C595 1.516 1_655 S
C594 C608 1.379 . S
C595 C594 1.516 1_455 S
C595 C596 1.397 . S
C595 C600 1.363 1_455 S
C596 H573 0.950 . S
C596 C595 1.397 . S
C596 C597 1.334 . S
C597 H574 0.950 . S
C597 C596 1.334 . S
C597 C598 1.287 . S
C598 C597 1.287 . S
C598 C599 1.524 . S
C598 H617 0.913 . S
C599 H575 0.950 1_455 S
C599 C598 1.524 . S
C599 C600 1.415 1_455 S
C600 H576 0.950 . S
C600 C595 1.363 1_655 S
C600 C599 1.415 1_655 S
C601 H577 0.951 . S
C601 C602 1.366 1_455 S
C601 C603 1.388 . S
C602 C601 1.366 1_655 S
C602 C606 1.385 . S
C603 H578 0.951 . S
C603 C601 1.388 . S
C603 C604 1.366 1_455 S
C604 C603 1.366 1_655 S
C604 C605 1.414 . S
C604 C607 1.499 . S
C605 H579 0.950 . S
C605 C604 1.414 . S
C605 C606 1.374 . S
C606 H580 0.950 . S
C606 C602 1.385 . S
C606 C605 1.374 . S
C607 C604 1.499 . S
C607 C608 1.373 . S
C607 C609 1.389 . S
C608 H581 0.950 . S
C608 C594 1.379 . S
C608 C607 1.373 . S
C609 C593 1.377 . S
C609 C607 1.389 . S
C609 C610 1.524 . S
C610 C609 1.524 . S
C610 C611 1.397 . S
C610 C615 1.363 . S
C611 H582 0.950 . S
C611 C610 1.397 . S
C611 C612 1.334 . S
C612 H583 0.950 . S
C612 C611 1.334 . S
C612 C613 1.287 . S
C613 C612 1.287 . S
C613 C614 1.524 . S
C613 H616 0.999 . S
C614 H584 0.950 . S
C614 C613 1.524 . S
C614 C615 1.415 . S
C615 H585 0.950 1_655 S
C615 C610 1.363 . S
C615 C614 1.415 . S
H616 C613 0.999 . S
H617 C598 0.913 . S
H618 C636 0.951 . S
H619 C638 0.951 . S
H620 C640 0.950 . S
H621 C641 0.950 . S
H622 C643 0.950 . S
H623 C646 0.950 . S
H624 C647 0.950 . S
H625 C649 0.950 . S
H626 C650 0.950 . S
H627 C651 0.964 . S
H628 C653 0.951 . S
H629 C655 0.950 . S
H630 C656 0.950 . S
H631 C658 0.950 . S
H632 C661 0.950 . S
H633 C662 0.950 . S
H634 C664 0.950 . S
H635 C665 0.950 . S
C636 H618 0.951 . S
C636 C637 1.366 . S
C636 C638 1.388 . S
C637 C636 1.366 . S
C637 C641 1.385 . S
C638 H619 0.951 . S
C638 C636 1.388 . S
C638 C639 1.366 . S
C639 C638 1.366 . S
C639 C640 1.414 . S
C639 C642 1.499 . S
C640 H620 0.950 . S
C640 C639 1.414 . S
C640 C641 1.374 . S
C641 H621 0.950 . S
C641 C637 1.385 . S
C641 C640 1.374 . S
C642 C639 1.499 . S
C642 C643 1.373 . S
C642 C644 1.389 . S
C643 H622 0.950 . S
C643 C642 1.373 . S
C643 C659 1.377 . S
C644 C642 1.389 . S
C644 C645 1.524 . S
C644 C658 1.377 . S
C645 C644 1.524 . S
C645 C646 1.397 1_545 S
C645 C650 1.363 . S
C646 H623 0.950 . S
C646 C645 1.397 1_565 S
C646 C647 1.334 . S
C647 H624 0.950 . S
C647 C646 1.334 . S
C647 C648 1.287 . S
C648 C647 1.287 . S
C648 C649 1.524 . S
C648 H667 0.913 . S
C649 H625 0.950 . S
C649 C648 1.524 . S
C649 C650 1.415 1_565 S
C650 H626 0.950 . S
C650 C645 1.363 . S
C650 C649 1.415 1_545 S
C651 H627 0.964 . S
C651 C652 1.366 . S
C651 C653 1.388 . S
C652 C651 1.366 . S
C652 C656 1.385 . S
C653 H628 0.951 . S
C653 C651 1.388 . S
C653 C654 1.366 . S
C654 C653 1.366 . S
C654 C655 1.414 . S
C654 C657 1.499 . S
C655 H629 0.950 . S
C655 C654 1.414 . S
C655 C656 1.374 . S
C656 H630 0.950 . S
C656 C652 1.385 . S
C656 C655 1.374 . S
C657 C654 1.499 . S
C657 C658 1.373 . S
C657 C659 1.389 . S
C658 H631 0.950 . S
C658 C644 1.377 . S
C658 C657 1.373 . S
C659 C643 1.377 . S
C659 C657 1.389 . S
C659 C660 1.524 . S
C660 C659 1.524 . S
C660 C661 1.397 . S
C660 C665 1.363 . S
C661 H632 0.950 . S
C661 C660 1.397 . S
C661 C662 1.334 . S
C662 H633 0.950 . S
C662 C661 1.334 . S
C662 C663 1.287 . S
C663 C662 1.287 . S
C663 C664 1.524 . S
C663 H666 0.999 . S
C664 H634 0.950 . S
C664 C663 1.524 . S
C664 C665 1.415 . S
C665 H635 0.950 . S
C665 C660 1.363 . S
C665 C664 1.415 . S
H666 C663 0.999 . S
H667 C648 0.913 . S
H668 C686 0.951 . S
H669 C688 0.951 . S
H670 C690 0.950 . S
H671 C691 0.950 . S
H672 C693 0.950 . S
H673 C696 0.950 . S
H674 C697 0.950 . S
H675 C699 0.950 . S
H676 C700 0.950 . S
H677 C701 0.951 . S
H678 C703 0.951 . S
H679 C705 0.950 . S
H680 C706 0.950 . S
H681 C708 0.950 . S
H682 C711 0.950 . S
H683 C712 0.950 . S
H684 C714 0.950 . S
H685 C715 0.950 . S
C686 H668 0.951 . S
C686 C687 1.366 . S
C686 C688 1.388 . S
C687 C686 1.366 . S
C687 C691 1.385 . S
C688 H669 0.951 . S
C688 C686 1.388 . S
C688 C689 1.366 . S
C689 C688 1.366 . S
C689 C690 1.414 . S
C689 C692 1.499 . S
C690 H670 0.950 . S
C690 C689 1.414 . S
C690 C691 1.374 . S
C691 H671 0.950 . S
C691 C687 1.385 . S
C691 C690 1.374 . S
C692 C689 1.499 . S
C692 C693 1.373 . S
C692 C694 1.389 . S
C693 H672 0.950 . S
C693 C692 1.373 . S
C693 C709 1.377 . S
C694 C692 1.389 . S
C694 C695 1.524 . S
C694 C708 1.377 . S
C695 C694 1.524 . S
C695 C696 1.397 . S
C695 C700 1.363 . S
C696 H673 0.950 . S
C696 C695 1.397 . S
C696 C697 1.334 . S
C697 H674 0.950 . S
C697 C696 1.334 . S
C697 C698 1.287 . S
C698 C697 1.287 . S
C698 C699 1.524 . S
C698 H717 0.913 . S
C699 H675 0.950 . S
C699 C698 1.524 . S
C699 C700 1.415 . S
C700 H676 0.950 . S
C700 C695 1.363 . S
C700 C699 1.415 . S
C701 H677 0.951 . S
C701 C702 1.366 . S
C701 C703 1.388 . S
C702 C701 1.366 . S
C702 C706 1.385 . S
C703 H678 0.951 . S
C703 C701 1.388 . S
C703 C704 1.366 . S
C704 C703 1.366 . S
C704 C705 1.414 . S
C704 C707 1.499 . S
C705 H679 0.950 . S
C705 C704 1.414 . S
C705 C706 1.374 . S
C706 H680 0.950 . S
C706 C702 1.385 . S
C706 C705 1.374 . S
C707 C704 1.499 . S
C707 C708 1.373 . S
C707 C709 1.389 . S
C708 H681 0.950 . S
C708 C694 1.377 . S
C708 C707 1.373 . S
C709 C693 1.377 . S
C709 C707 1.389 . S
C709 C710 1.524 . S
C710 C709 1.524 . S
C710 C711 1.397 . S
C710 C715 1.363 . S
C711 H682 0.950 . S
C711 C710 1.397 . S
C711 C712 1.334 . S
C712 H683 0.950 . S
C712 C711 1.334 . S
C712 C713 1.287 . S
C713 C712 1.287 . S
C713 C714 1.524 . S
C713 H716 0.999 . S
C714 H684 0.950 . S
C714 C713 1.524 . S
C714 C715 1.415 . S
C715 H685 0.950 . S
C715 C710 1.363 . S
C715 C714 1.415 . S
H716 C713 0.999 . S
H717 C698 0.913 . S
H718 C736 0.951 . S
H719 C738 0.951 . S
H720 C740 0.950 . S
H721 C741 0.950 . S
H722 C743 0.950 . S
H723 C746 0.950 . S
H724 C747 0.950 . S
H725 C749 0.950 . S
H726 C750 0.950 . S
H727 C751 0.951 . S
H728 C753 0.951 . S
H729 C755 0.950 . S
H730 C756 0.950 . S
H731 C758 0.950 . S
H732 C761 0.950 . S
H733 C762 0.950 . S
H734 C764 0.950 . S
H735 C765 0.950 . S
C736 H718 0.951 . S
C736 C737 1.366 . S
C736 C738 1.388 . S
C737 C736 1.366 . S
C737 C741 1.385 . S
C738 H719 0.951 . S
C738 C736 1.388 . S
C738 C739 1.366 . S
C739 C738 1.366 . S
C739 C740 1.414 . S
C739 C742 1.499 . S
C740 H720 0.950 . S
C740 C739 1.414 . S
C740 C741 1.374 . S
C741 H721 0.950 . S
C741 C737 1.385 . S
C741 C740 1.374 . S
C742 C739 1.499 . S
C742 C743 1.373 . S
C742 C744 1.389 . S
C743 H722 0.950 . S
C743 C742 1.373 . S
C743 C759 1.377 . S
C744 C742 1.389 . S
C744 C745 1.524 . S
C744 C758 1.377 . S
C745 C744 1.524 . S
C745 C746 1.397 . S
C745 C750 1.363 . S
C746 H723 0.950 . S
C746 C745 1.397 . S
C746 C747 1.334 . S
C747 H724 0.950 . S
C747 C746 1.334 . S
C747 C748 1.287 . S
C748 C747 1.287 . S
C748 C749 1.524 . S
C748 H767 0.913 . S
C749 H725 0.950 . S
C749 C748 1.524 . S
C749 C750 1.415 . S
C750 H726 0.950 . S
C750 C745 1.363 . S
C750 C749 1.415 . S
C751 H727 0.951 . S
C751 C752 1.366 . S
C751 C753 1.388 . S
C752 C751 1.366 . S
C752 C756 1.385 . S
C753 H728 0.951 . S
C753 C751 1.388 . S
C753 C754 1.366 . S
C754 C753 1.366 . S
C754 C755 1.414 . S
C754 C757 1.499 . S
C755 H729 0.950 . S
C755 C754 1.414 . S
C755 C756 1.374 . S
C756 H730 0.950 . S
C756 C752 1.385 . S
C756 C755 1.374 . S
C757 C754 1.499 . S
C757 C758 1.373 . S
C757 C759 1.389 . S
C758 H731 0.950 . S
C758 C744 1.377 . S
C758 C757 1.373 . S
C759 C743 1.377 . S
C759 C757 1.389 . S
C759 C760 1.524 . S
C760 C759 1.524 . S
C760 C761 1.397 . S
C760 C765 1.363 . S
C761 H732 0.950 . S
C761 C760 1.397 . S
C761 C762 1.334 . S
C762 H733 0.950 . S
C762 C761 1.334 . S
C762 C763 1.287 . S
C763 C762 1.287 . S
C763 C764 1.524 . S
C763 H766 0.999 . S
C764 H734 0.950 . S
C764 C763 1.524 . S
C764 C765 1.415 . S
C765 H735 0.950 . S
C765 C760 1.363 . S
C765 C764 1.415 . S
H766 C763 0.999 . S
H767 C748 0.913 . S
H768 C786 0.951 . S
H769 C788 0.951 . S
H770 C790 0.950 . S
H771 C791 0.950 . S
H772 C793 0.950 . S
H773 C796 0.950 . S
H774 C797 0.950 . S
H775 C799 0.950 . S
H776 C800 0.950 . S
H777 C801 0.951 . S
H778 C803 0.951 . S
H779 C805 0.950 . S
H780 C806 0.950 . S
H781 C808 0.950 . S
H782 C811 0.950 1_455 S
H783 C812 0.950 . S
H784 C814 0.950 . S
H785 C815 0.950 . S
C786 H768 0.951 . S
C786 C787 1.361 1_455 S
C786 C788 1.388 . S
C787 C786 1.361 1_655 S
C787 C791 1.389 . S
C788 H769 0.951 . S
C788 C786 1.388 . S
C788 C789 1.366 . S
C789 C788 1.366 . S
C789 C790 1.414 1_455 S
C789 C792 1.499 . S
C790 H770 0.950 . S
C790 C789 1.414 1_655 S
C790 C791 1.374 . S
C791 H771 0.950 . S
C791 C787 1.389 . S
C791 C790 1.374 . S
C792 C789 1.499 . S
C792 C793 1.373 1_455 S
C792 C794 1.389 . S
C793 H772 0.950 . S
C793 C792 1.373 1_655 S
C793 C809 1.377 . S
C794 C792 1.389 . S
C794 C795 1.524 . S
C794 C808 1.377 . S
C795 C794 1.524 . S
C795 C796 1.397 1_556 S
C795 C800 1.363 . S
C796 H773 0.950 . S
C796 C795 1.397 1_554 S
C796 C797 1.334 . S
C797 H774 0.950 . S
C797 C796 1.334 . S
C797 C798 1.287 . S
C798 C797 1.287 . S
C798 C799 1.524 . S
C798 H817 0.913 . S
C799 H775 0.950 . S
C799 C798 1.524 . S
C799 C800 1.415 1_554 S
C800 H776 0.950 . S
C800 C795 1.363 . S
C800 C799 1.415 1_556 S
C801 H777 0.951 . S
C801 C802 1.366 1_655 S
C801 C803 1.388 . S
C802 C801 1.366 1_455 S
C802 C806 1.385 . S
C803 H778 0.951 . S
C803 C801 1.388 . S
C803 C804 1.366 1_655 S
C804 C803 1.366 1_455 S
C804 C805 1.414 . S
C804 C807 1.499 . S
C805 H779 0.950 . S
C805 C804 1.414 . S
C805 C806 1.374 . S
C806 H780 0.950 . S
C806 C802 1.385 . S
C806 C805 1.374 . S
C807 C804 1.499 . S
C807 C808 1.373 . S
C807 C809 1.389 1_455 S
C808 H781 0.950 . S
C808 C794 1.377 . S
C808 C807 1.373 . S
C809 C793 1.377 . S
C809 C807 1.389 1_655 S
C809 C810 1.524 . S
C810 C809 1.524 . S
C810 C811 1.397 . S
C810 C815 1.363 . S
C811 H782 0.950 1_655 S
C811 C810 1.397 . S
C811 C812 1.334 . S
C812 H783 0.950 . S
C812 C811 1.334 . S
C812 C813 1.287 . S
C813 C812 1.287 . S
C813 C814 1.524 . S
C813 H816 0.999 . S
C814 H784 0.950 . S
C814 C813 1.524 . S
C814 C815 1.415 . S
C815 H785 0.950 . S
C815 C810 1.363 . S
C815 C814 1.415 . S
H816 C813 0.999 . S
H817 C798 0.913 . S
H818 C836 0.951 1_554 S
H819 C838 0.951 1_554 S
H820 C840 0.950 . S
H821 C841 0.950 . S
H822 C843 0.950 . S
H823 C846 0.950 . S
H824 C847 0.950 . S
H825 C849 0.950 . S
H826 C850 0.950 1_554 S
H827 C851 0.951 . S
H828 C853 0.951 . S
H829 C855 0.950 . S
H830 C856 0.946 1_545 S
H831 C858 0.950 . S
H832 C861 0.950 . S
H833 C862 0.950 . S
H834 C864 0.950 . S
H835 C865 0.950 1_565 S
C836 H818 0.951 1_556 S
C836 C837 1.366 . S
C836 C838 1.388 . S
C837 C836 1.366 . S
C837 C841 1.385 . S
C838 H819 0.951 1_556 S
C838 C836 1.388 . S
C838 C839 1.366 . S
C839 C838 1.366 . S
C839 C840 1.414 . S
C839 C842 1.499 . S
C840 H820 0.950 . S
C840 C839 1.414 . S
C840 C841 1.374 . S
C841 H821 0.950 . S
C841 C837 1.385 . S
C841 C840 1.374 . S
C842 C839 1.499 . S
C842 C843 1.373 . S
C842 C844 1.389 . S
C843 H822 0.950 . S
C843 C842 1.373 . S
C843 C859 1.377 . S
C844 C842 1.389 . S
C844 C845 1.524 . S
C844 C858 1.377 . S
C845 C844 1.524 . S
C845 C846 1.397 . S
C845 C850 1.363 . S
C846 H823 0.950 . S
C846 C845 1.397 . S
C846 C847 1.334 . S
C847 H824 0.950 . S
C847 C846 1.334 . S
C847 C848 1.287 1_556 S
C848 C847 1.287 1_554 S
C848 C849 1.524 . S
C848 H867 0.913 . S
C849 H825 0.950 . S
C849 C848 1.524 . S
C849 C850 1.415 1_554 S
C850 H826 0.950 1_556 S
C850 C845 1.363 . S
C850 C849 1.415 1_556 S
C851 H827 0.951 . S
C851 C852 1.366 . S
C851 C853 1.388 . S
C852 C851 1.366 . S
C852 C856 1.385 . S
C853 H828 0.951 . S
C853 C851 1.388 . S
C853 C854 1.366 . S
C854 C853 1.366 . S
C854 C855 1.414 . S
C854 C857 1.499 . S
C855 H829 0.950 . S
C855 C854 1.414 . S
C855 C856 1.374 . S
C856 H830 0.946 1_565 S
C856 C852 1.385 . S
C856 C855 1.374 . S
C857 C854 1.499 . S
C857 C858 1.373 . S
C857 C859 1.389 . S
C858 H831 0.950 . S
C858 C844 1.377 . S
C858 C857 1.373 . S
C859 C843 1.377 . S
C859 C857 1.389 . S
C859 C860 1.524 1_565 S
C860 C859 1.524 1_545 S
C860 C861 1.397 . S
C860 C865 1.363 . S
C861 H832 0.950 . S
C861 C860 1.397 . S
C861 C862 1.334 . S
C862 H833 0.950 . S
C862 C861 1.334 . S
C862 C863 1.287 . S
C863 C862 1.287 . S
C863 C864 1.524 . S
C863 H866 0.999 . S
C864 H834 0.950 . S
C864 C863 1.524 . S
C864 C865 1.415 . S
C865 H835 0.950 1_545 S
C865 C860 1.363 . S
C865 C864 1.415 . S
H866 C863 0.999 . S
H867 C848 0.913 . S
H868 C886 0.951 . S
H869 C888 0.951 . S
H870 C890 0.950 . S
H871 C891 0.950 . S
H872 C893 0.950 . S
H873 C896 0.950 1_556 S
H874 C897 0.950 . S
H875 C899 0.950 . S
H876 C900 0.950 . S
H877 C901 0.951 . S
H878 C903 0.951 . S
H879 C905 0.950 . S
H880 C906 0.950 . S
H881 C908 0.950 . S
H882 C911 0.950 . S
H883 C912 0.950 . S
H884 C914 0.950 . S
H885 C915 0.950 . S
C886 H868 0.951 . S
C886 C887 1.366 . S
C886 C888 1.388 . S
C887 C886 1.366 . S
C887 C891 1.385 1_554 S
C888 H869 0.951 . S
C888 C886 1.388 . S
C888 C889 1.366 1_554 S
C889 C888 1.366 1_556 S
C889 C890 1.414 . S
C889 C892 1.499 . S
C890 H870 0.950 . S
C890 C889 1.414 . S
C890 C891 1.374 . S
C891 H871 0.950 . S
C891 C887 1.385 1_556 S
C891 C890 1.374 . S
C892 C889 1.499 . S
C892 C893 1.373 . S
C892 C894 1.389 . S
C893 H872 0.950 . S
C893 C892 1.373 . S
C893 C909 1.377 . S
C894 C892 1.389 . S
C894 C895 1.524 1_556 S
C894 C908 1.377 . S
C895 C894 1.524 1_554 S
C895 C896 1.397 . S
C895 C900 1.363 . S
C896 H873 0.950 1_554 S
C896 C895 1.397 . S
C896 C897 1.334 . S
C897 H874 0.950 . S
C897 C896 1.334 . S
C897 C898 1.287 . S
C898 C897 1.287 . S
C898 C899 1.524 . S
C898 H917 0.913 . S
C899 H875 0.950 . S
C899 C898 1.524 . S
C899 C900 1.415 . S
C900 H876 0.950 . S
C900 C895 1.363 . S
C900 C899 1.415 . S
C901 H877 0.951 . S
C901 C902 1.366 . S
C901 C903 1.388 . S
C902 C901 1.366 . S
C902 C906 1.385 . S
C903 H878 0.951 . S
C903 C901 1.388 . S
C903 C904 1.366 . S
C904 C903 1.366 . S
C904 C905 1.414 . S
C904 C907 1.499 . S
C905 H879 0.950 . S
C905 C904 1.414 . S
C905 C906 1.374 . S
C906 H880 0.950 . S
C906 C902 1.385 . S
C906 C905 1.374 . S
C907 C904 1.499 . S
C907 C908 1.373 . S
C907 C909 1.389 . S
C908 H881 0.950 . S
C908 C894 1.377 . S
C908 C907 1.373 . S
C909 C893 1.377 . S
C909 C907 1.389 . S
C909 C910 1.524 . S
C910 C909 1.524 . S
C910 C911 1.397 . S
C910 C915 1.363 . S
C911 H882 0.950 . S
C911 C910 1.397 . S
C911 C912 1.334 . S
C912 H883 0.950 . S
C912 C911 1.334 . S
C912 C913 1.287 . S
C913 C912 1.287 . S
C913 C914 1.524 . S
C913 H916 0.999 . S
C914 H884 0.950 . S
C914 C913 1.524 . S
C914 C915 1.415 . S
C915 H885 0.950 . S
C915 C910 1.363 . S
C915 C914 1.415 . S
H916 C913 0.999 . S
H917 C898 0.913 . S
H918 C936 0.951 . S
H919 C938 0.951 . S
H920 C940 0.950 . S
H921 C941 0.950 . S
H922 C943 0.950 . S
H923 C946 0.959 . S
H924 C947 0.950 . S
H925 C949 0.950 . S
H926 C950 0.950 . S
H927 C951 0.951 . S
H928 C953 0.951 . S
H929 C955 0.950 . S
H930 C956 0.950 . S
H931 C958 0.950 . S
H932 C961 0.950 . S
H933 C962 0.950 . S
H934 C964 0.950 . S
H935 C965 0.950 . S
C936 H918 0.951 . S
C936 C937 1.366 1_554 S
C936 C938 1.388 1_554 S
C937 C936 1.366 1_556 S
C937 C941 1.385 . S
C938 H919 0.951 . S
C938 C936 1.388 1_556 S
C938 C939 1.366 . S
C939 C938 1.366 . S
C939 C940 1.414 . S
C939 C942 1.499 . S
C940 H920 0.950 . S
C940 C939 1.414 . S
C940 C941 1.374 . S
C941 H921 0.950 . S
C941 C937 1.385 . S
C941 C940 1.374 . S
C942 C939 1.499 . S
C942 C943 1.373 . S
C942 C944 1.389 . S
C943 H922 0.950 . S
C943 C942 1.373 . S
C943 C959 1.377 . S
C944 C942 1.389 . S
C944 C945 1.524 . S
C944 C958 1.377 . S
C945 C944 1.524 . S
C945 C946 1.397 1_556 S
C945 C950 1.363 1_556 S
C946 H923 0.959 . S
C946 C945 1.397 1_554 S
C946 C947 1.334 . S
C947 H924 0.950 . S
C947 C946 1.334 . S
C947 C948 1.287 . S
C948 C947 1.287 . S
C948 C949 1.524 . S
C948 H967 0.913 . S
C949 H925 0.950 . S
C949 C948 1.524 . S
C949 C950 1.415 . S
C950 H926 0.950 . S
C950 C945 1.363 1_554 S
C950 C949 1.415 . S
C951 H927 0.951 . S
C951 C952 1.366 . S
C951 C953 1.388 . S
C952 C951 1.366 . S
C952 C956 1.385 . S
C953 H928 0.951 . S
C953 C951 1.388 . S
C953 C954 1.366 . S
C954 C953 1.366 . S
C954 C955 1.414 . S
C954 C957 1.499 . S
C955 H929 0.950 . S
C955 C954 1.414 . S
C955 C956 1.374 . S
C956 H930 0.950 . S
C956 C952 1.385 . S
C956 C955 1.374 . S
C957 C954 1.499 . S
C957 C958 1.373 . S
C957 C959 1.389 . S
C958 H931 0.950 . S
C958 C944 1.377 . S
C958 C957 1.373 . S
C959 C943 1.377 . S
C959 C957 1.389 . S
C959 C960 1.524 . S
C960 C959 1.524 . S
C960 C961 1.397 . S
C960 C965 1.363 . S
C961 H932 0.950 . S
C961 C960 1.397 . S
C961 C962 1.334 . S
C962 H933 0.950 . S
C962 C961 1.334 . S
C962 C963 1.287 . S
C963 C962 1.287 . S
C963 C964 1.524 . S
C963 H966 0.999 . S
C964 H934 0.950 . S
C964 C963 1.524 . S
C964 C965 1.415 . S
C965 H935 0.950 . S
C965 C960 1.363 . S
C965 C964 1.415 . S
H966 C963 0.999 . S
H967 C948 0.913 . S
H968 C986 0.951 . S
H969 C988 0.951 . S
H970 C990 0.950 . S
H971 C991 0.950 1_554 S
H972 C993 0.950 . S
H973 C996 0.950 1_554 S
H974 C997 0.950 . S
H975 C999 0.950 . S
H976 C1000 0.950 . S
H977 C1001 0.951 . S
H978 C1003 0.951 . S
H979 C1005 0.950 . S
H980 C1006 0.950 . S
H981 C1008 0.950 . S
H982 C1011 0.950 . S
H983 C1012 0.950 . S
H984 C1014 0.950 . S
H985 C1015 0.950 . S
C986 H968 0.951 . S
C986 C987 1.344 1_655 S
C986 C988 1.388 . S
C987 C986 1.344 1_455 S
C987 C991 1.409 . S
C988 H969 0.951 . S
C988 C986 1.388 . S
C988 C989 1.366 1_655 S
C989 C988 1.366 1_455 S
C989 C990 1.414 . S
C989 C992 1.499 . S
C990 H970 0.950 . S
C990 C989 1.414 . S
C990 C991 1.374 . S
C991 H971 0.950 1_556 S
C991 C987 1.409 . S
C991 C990 1.374 . S
C992 C989 1.499 . S
C992 C993 1.373 . S
C992 C994 1.389 1_455 S
C993 H972 0.950 . S
C993 C992 1.373 . S
C993 C1009 1.377 . S
C994 C992 1.389 1_655 S
C994 C995 1.524 . S
C994 C1008 1.377 . S
C995 C994 1.524 . S
C995 C996 1.397 . S
C995 C1000 1.363 . S
C996 H973 0.950 1_556 S
C996 C995 1.397 . S
C996 C997 1.334 1_556 S
C997 H974 0.950 . S
C997 C996 1.334 1_554 S
C997 C998 1.287 . S
C998 C997 1.287 . S
C998 C999 1.524 1_554 S
C998 H1017 0.913 . S
C999 H975 0.950 . S
C999 C998 1.524 1_556 S
C999 C1000 1.415 . S
C1000 H976 0.950 . S
C1000 C995 1.363 . S
C1000 C999 1.415 . S
C1001 H977 0.951 . S
C1001 C1002 1.366 . S
C1001 C1003 1.388 . S
C1002 C1001 1.366 . S
C1002 C1006 1.385 1_455 S
C1003 H978 0.951 . S
C1003 C1001 1.388 . S
C1003 C1004 1.366 . S
C1004 C1003 1.366 . S
C1004 C1005 1.414 1_455 S
C1004 C1007 1.499 . S
C1005 H979 0.950 . S
C1005 C1004 1.414 1_655 S
C1005 C1006 1.374 . S
C1006 H980 0.950 . S
C1006 C1002 1.385 1_655 S
C1006 C1005 1.374 . S
C1007 C1004 1.499 . S
C1007 C1008 1.373 1_455 S
C1007 C1009 1.389 . S
C1008 H981 0.950 . S
C1008 C994 1.377 . S
C1008 C1007 1.373 1_655 S
C1009 C993 1.377 . S
C1009 C1007 1.389 . S
C1009 C1010 1.524 . S
C1010 C1009 1.524 . S
C1010 C1011 1.397 . S
C1010 C1015 1.363 . S
C1011 H982 0.950 . S
C1011 C1010 1.397 . S
C1011 C1012 1.334 . S
C1012 H983 0.950 . S
C1012 C1011 1.334 . S
C1012 C1013 1.287 . S
C1013 C1012 1.287 . S
C1013 C1014 1.524 . S
C1013 H1016 0.999 . S
C1014 H984 0.950 . S
C1014 C1013 1.524 . S
C1014 C1015 1.415 . S
C1015 H985 0.950 . S
C1015 C1010 1.363 . S
C1015 C1014 1.415 . S
H1016 C1013 0.999 . S
H1017 C998 0.913 . S
H1018 C1036 0.951 . S
H1019 C1038 0.951 . S
H1020 C1040 0.950 . S
H1021 C1041 0.950 . S
H1022 C1043 0.950 . S
H1023 C1046 0.950 . S
H1024 C1047 0.950 . S
H1025 C1049 0.950 . S
H1026 C1050 0.950 . S
H1027 C1051 0.951 . S
H1028 C1053 0.951 . S
H1029 C1055 0.950 . S
H1030 C1056 0.950 . S
H1031 C1058 0.950 . S
H1032 C1061 0.950 . S
H1033 C1062 0.950 . S
H1034 C1064 0.950 . S
H1035 C1065 1.000 . S
C1036 H1018 0.951 . S
C1036 C1037 1.366 . S
C1036 C1038 1.388 . S
C1037 C1036 1.366 . S
C1037 C1041 1.385 1_554 S
C1038 H1019 0.951 . S
C1038 C1036 1.388 . S
C1038 C1039 1.366 1_554 S
C1039 C1038 1.366 1_556 S
C1039 C1040 1.414 . S
C1039 C1042 1.499 . S
C1040 H1020 0.950 . S
C1040 C1039 1.414 . S
C1040 C1041 1.374 . S
C1041 H1021 0.950 . S
C1041 C1037 1.385 1_556 S
C1041 C1040 1.374 . S
C1042 C1039 1.499 . S
C1042 C1043 1.373 . S
C1042 C1044 1.389 . S
C1043 H1022 0.950 . S
C1043 C1042 1.373 . S
C1043 C1059 1.377 . S
C1044 C1042 1.389 . S
C1044 C1045 1.524 . S
C1044 C1058 1.377 . S
C1045 C1044 1.524 . S
C1045 C1046 1.397 . S
C1045 C1050 1.363 1_556 S
C1046 H1023 0.950 . S
C1046 C1045 1.397 . S
C1046 C1047 1.334 1_556 S
C1047 H1024 0.950 . S
C1047 C1046 1.334 1_554 S
C1047 C1048 1.287 . S
C1048 C1047 1.287 . S
C1048 C1049 1.524 . S
C1048 H1067 0.913 . S
C1049 H1025 0.950 . S
C1049 C1048 1.524 . S
C1049 C1050 1.415 . S
C1050 H1026 0.950 . S
C1050 C1045 1.363 1_554 S
C1050 C1049 1.415 . S
C1051 H1027 0.951 . S
C1051 C1052 1.366 . S
C1051 C1053 1.388 . S
C1052 C1051 1.366 . S
C1052 C1056 1.385 . S
C1053 H1028 0.951 . S
C1053 C1051 1.388 . S
C1053 C1054 1.366 . S
C1054 C1053 1.366 . S
C1054 C1055 1.414 . S
C1054 C1057 1.499 . S
C1055 H1029 0.950 . S
C1055 C1054 1.414 . S
C1055 C1056 1.374 . S
C1056 H1030 0.950 . S
C1056 C1052 1.385 . S
C1056 C1055 1.374 . S
C1057 C1054 1.499 . S
C1057 C1058 1.373 . S
C1057 C1059 1.389 . S
C1058 H1031 0.950 . S
C1058 C1044 1.377 . S
C1058 C1057 1.373 . S
C1059 C1043 1.377 . S
C1059 C1057 1.389 . S
C1059 C1060 1.531 . S
C1060 C1059 1.531 . S
C1060 C1061 1.389 1_545 S
C1060 C1065 1.358 . S
C1061 H1032 0.950 . S
C1061 C1060 1.389 1_565 S
C1061 C1062 1.334 . S
C1062 H1033 0.950 . S
C1062 C1061 1.334 . S
C1062 C1063 1.287 . S
C1063 C1062 1.287 . S
C1063 C1064 1.524 . S
C1063 H1066 0.999 . S
C1064 H1034 0.950 . S
C1064 C1063 1.524 . S
C1064 C1065 1.374 1_565 S
C1065 H1035 1.000 . S
C1065 C1060 1.358 . S
C1065 C1064 1.374 1_545 S
H1066 C1063 0.999 . S
H1067 C1048 0.913 . S
H1068 C1086 0.951 . S
H1069 C1088 0.951 . S
H1070 C1090 0.950 . S
H1071 C1091 0.950 . S
H1072 C1093 0.950 . S
H1073 C1096 0.950 . S
H1074 C1097 0.950 . S
H1075 C1099 0.950 . S
H1076 C1100 0.950 . S
H1077 C1101 0.951 . S
H1078 C1103 0.951 . S
H1079 C1105 0.950 . S
H1080 C1106 0.950 . S
H1081 C1108 0.950 . S
H1082 C1111 0.950 . S
H1083 C1112 0.950 . S
H1084 C1114 0.950 . S
H1085 C1115 0.950 . S
C1086 H1068 0.951 . S
C1086 C1087 1.366 . S
C1086 C1088 1.388 . S
C1087 C1086 1.366 . S
C1087 C1091 1.385 . S
C1088 H1069 0.951 . S
C1088 C1086 1.388 . S
C1088 C1089 1.366 . S
C1089 C1088 1.366 . S
C1089 C1090 1.414 . S
C1089 C1092 1.499 . S
C1090 H1070 0.950 . S
C1090 C1089 1.414 . S
C1090 C1091 1.374 . S
C1091 H1071 0.950 . S
C1091 C1087 1.385 . S
C1091 C1090 1.374 . S
C1092 C1089 1.499 . S
C1092 C1093 1.373 . S
C1092 C1094 1.389 . S
C1093 H1072 0.950 . S
C1093 C1092 1.373 . S
C1093 C1109 1.377 . S
C1094 C1092 1.389 . S
C1094 C1095 1.524 . S
C1094 C1108 1.377 . S
C1095 C1094 1.524 . S
C1095 C1096 1.397 . S
C1095 C1100 1.363 . S
C1096 H1073 0.950 . S
C1096 C1095 1.397 . S
C1096 C1097 1.334 . S
C1097 H1074 0.950 . S
C1097 C1096 1.334 . S
C1097 C1098 1.287 . S
C1098 C1097 1.287 . S
C1098 C1099 1.524 . S
C1098 H1117 0.913 . S
C1099 H1075 0.950 . S
C1099 C1098 1.524 . S
C1099 C1100 1.415 . S
C1100 H1076 0.950 . S
C1100 C1095 1.363 . S
C1100 C1099 1.415 . S
C1101 H1077 0.951 . S
C1101 C1102 1.366 . S
C1101 C1103 1.388 . S
C1102 C1101 1.366 . S
C1102 C1106 1.385 . S
C1103 H1078 0.951 . S
C1103 C1101 1.388 . S
C1103 C1104 1.366 . S
C1104 C1103 1.366 . S
C1104 C1105 1.414 . S
C1104 C1107 1.499 . S
C1105 H1079 0.950 . S
C1105 C1104 1.414 . S
C1105 C1106 1.374 . S
C1106 H1080 0.950 . S
C1106 C1102 1.385 . S
C1106 C1105 1.374 . S
C1107 C1104 1.499 . S
C1107 C1108 1.373 . S
C1107 C1109 1.389 . S
C1108 H1081 0.950 . S
C1108 C1094 1.377 . S
C1108 C1107 1.373 . S
C1109 C1093 1.377 . S
C1109 C1107 1.389 . S
C1109 C1110 1.524 . S
C1110 C1109 1.524 . S
C1110 C1111 1.397 . S
C1110 C1115 1.363 . S
C1111 H1082 0.950 . S
C1111 C1110 1.397 . S
C1111 C1112 1.334 . S
C1112 H1083 0.950 . S
C1112 C1111 1.334 . S
C1112 C1113 1.287 . S
C1113 C1112 1.287 . S
C1113 C1114 1.524 . S
C1113 H1116 0.999 . S
C1114 H1084 0.950 . S
C1114 C1113 1.524 . S
C1114 C1115 1.415 . S
C1115 H1085 0.950 . S
C1115 C1110 1.363 . S
C1115 C1114 1.415 . S
H1116 C1113 0.999 . S
H1117 C1098 0.913 . S
H1118 C1136 0.951 . S
H1119 C1138 0.951 . S
H1120 C1140 0.950 . S
H1121 C1141 0.950 1_554 S
H1122 C1143 0.950 . S
H1123 C1146 0.950 . S
H1124 C1147 0.950 . S
H1125 C1149 0.950 . S
H1126 C1150 0.950 . S
H1127 C1151 0.951 . S
H1128 C1153 0.951 . S
H1129 C1155 0.950 . S
H1130 C1156 0.950 . S
H1131 C1158 0.950 . S
H1132 C1161 0.950 . S
H1133 C1162 0.950 . S
H1134 C1164 0.950 . S
H1135 C1165 0.950 . S
C1136 H1118 0.951 . S
C1136 C1137 1.366 . S
C1136 C1138 1.388 . S
C1137 C1136 1.366 . S
C1137 C1141 1.385 . S
C1138 H1119 0.951 . S
C1138 C1136 1.388 . S
C1138 C1139 1.366 . S
C1139 C1138 1.366 . S
C1139 C1140 1.414 . S
C1139 C1142 1.499 . S
C1140 H1120 0.950 . S
C1140 C1139 1.414 . S
C1140 C1141 1.374 . S
C1141 H1121 0.950 1_556 S
C1141 C1137 1.385 . S
C1141 C1140 1.374 . S
C1142 C1139 1.499 . S
C1142 C1143 1.373 . S
C1142 C1144 1.389 . S
C1143 H1122 0.950 . S
C1143 C1142 1.373 . S
C1143 C1159 1.377 . S
C1144 C1142 1.389 . S
C1144 C1145 1.524 . S
C1144 C1158 1.377 . S
C1145 C1144 1.524 . S
C1145 C1146 1.397 . S
C1145 C1150 1.363 . S
C1146 H1123 0.950 . S
C1146 C1145 1.397 . S
C1146 C1147 1.334 . S
C1147 H1124 0.950 . S
C1147 C1146 1.334 . S
C1147 C1148 1.287 . S
C1148 C1147 1.287 . S
C1148 C1149 1.524 . S
C1148 H1167 0.913 . S
C1149 H1125 0.950 . S
C1149 C1148 1.524 . S
C1149 C1150 1.415 . S
C1150 H1126 0.950 . S
C1150 C1145 1.363 . S
C1150 C1149 1.415 . S
C1151 H1127 0.951 . S
C1151 C1152 1.366 . S
C1151 C1153 1.388 . S
C1152 C1151 1.366 . S
C1152 C1156 1.385 . S
C1153 H1128 0.951 . S
C1153 C1151 1.388 . S
C1153 C1154 1.366 . S
C1154 C1153 1.366 . S
C1154 C1155 1.414 . S
C1154 C1157 1.499 . S
C1155 H1129 0.950 . S
C1155 C1154 1.414 . S
C1155 C1156 1.374 . S
C1156 H1130 0.950 . S
C1156 C1152 1.385 . S
C1156 C1155 1.374 . S
C1157 C1154 1.499 . S
C1157 C1158 1.373 . S
C1157 C1159 1.389 . S
C1158 H1131 0.950 . S
C1158 C1144 1.377 . S
C1158 C1157 1.373 . S
C1159 C1143 1.377 . S
C1159 C1157 1.389 . S
C1159 C1160 1.524 . S
C1160 C1159 1.524 . S
C1160 C1161 1.397 . S
C1160 C1165 1.363 . S
C1161 H1132 0.950 . S
C1161 C1160 1.397 . S
C1161 C1162 1.334 . S
C1162 H1133 0.950 . S
C1162 C1161 1.334 . S
C1162 C1163 1.287 . S
C1163 C1162 1.287 . S
C1163 C1164 1.524 . S
C1163 H1166 0.999 . S
C1164 H1134 0.950 . S
C1164 C1163 1.524 . S
C1164 C1165 1.415 . S
C1165 H1135 0.950 . S
C1165 C1160 1.363 . S
C1165 C1164 1.415 . S
H1166 C1163 0.999 . S
H1167 C1148 0.913 . S
H1168 C1186 0.951 . S
H1169 C1188 0.951 . S
H1170 C1190 0.950 . S
H1171 C1191 0.950 . S
H1172 C1193 0.950 . S
H1173 C1196 0.950 . S
H1174 C1197 0.950 . S
H1175 C1199 0.950 . S
H1176 C1200 0.985 . S
H1177 C1201 0.951 . S
H1178 C1203 0.951 . S
H1179 C1205 0.950 . S
H1180 C1206 0.950 . S
H1181 C1208 0.950 . S
H1182 C1211 0.950 . S
H1183 C1212 0.950 . S
H1184 C1214 0.950 . S
H1185 C1215 0.950 . S
C1186 H1168 0.951 . S
C1186 C1187 1.379 . S
C1186 C1188 1.388 . S
C1187 C1186 1.379 . S
C1187 C1191 1.374 1_655 S
C1188 H1169 0.951 . S
C1188 C1186 1.388 . S
C1188 C1189 1.385 . S
C1189 C1188 1.385 . S
C1189 C1190 1.393 1_655 S
C1189 C1192 1.504 . S
C1190 H1170 0.950 . S
C1190 C1189 1.393 1_455 S
C1190 C1191 1.374 . S
C1191 H1171 0.950 . S
C1191 C1187 1.374 1_455 S
C1191 C1190 1.374 . S
C1192 C1189 1.504 . S
C1192 C1193 1.373 . S
C1192 C1194 1.389 1_655 S
C1193 H1172 0.950 . S
C1193 C1192 1.373 . S
C1193 C1209 1.377 . S
C1194 C1192 1.389 1_455 S
C1194 C1195 1.524 . S
C1194 C1208 1.377 . S
C1195 C1194 1.524 . S
C1195 C1196 1.397 . S
C1195 C1200 1.363 . S
C1196 H1173 0.950 . S
C1196 C1195 1.397 . S
C1196 C1197 1.334 . S
C1197 H1174 0.950 . S
C1197 C1196 1.334 . S
C1197 C1198 1.287 . S
C1198 C1197 1.287 . S
C1198 C1199 1.524 . S
C1198 H1217 0.913 . S
C1199 H1175 0.950 . S
C1199 C1198 1.524 . S
C1199 C1200 1.415 . S
C1200 H1176 0.985 . S
C1200 C1195 1.363 . S
C1200 C1199 1.415 . S
C1201 H1177 0.951 . S
C1201 C1202 1.366 1_455 S
C1201 C1203 1.388 . S
C1202 C1201 1.366 1_655 S
C1202 C1206 1.385 . S
C1203 H1178 0.951 . S
C1203 C1201 1.388 . S
C1203 C1204 1.366 1_455 S
C1204 C1203 1.366 1_655 S
C1204 C1205 1.414 . S
C1204 C1207 1.499 . S
C1205 H1179 0.950 . S
C1205 C1204 1.414 . S
C1205 C1206 1.374 . S
C1206 H1180 0.950 . S
C1206 C1202 1.385 . S
C1206 C1205 1.374 . S
C1207 C1204 1.499 . S
C1207 C1208 1.373 1_655 S
C1207 C1209 1.389 . S
C1208 H1181 0.950 . S
C1208 C1194 1.377 . S
C1208 C1207 1.373 1_455 S
C1209 C1193 1.377 . S
C1209 C1207 1.389 . S
C1209 C1210 1.524 . S
C1210 C1209 1.524 . S
C1210 C1211 1.397 . S
C1210 C1215 1.363 . S
C1211 H1182 0.950 . S
C1211 C1210 1.397 . S
C1211 C1212 1.334 . S
C1212 H1183 0.950 . S
C1212 C1211 1.334 . S
C1212 C1213 1.287 . S
C1213 C1212 1.287 . S
C1213 C1214 1.524 . S
C1213 H1216 0.999 . S
C1214 H1184 0.950 . S
C1214 C1213 1.524 . S
C1214 C1215 1.415 . S
C1215 H1185 0.950 . S
C1215 C1210 1.363 . S
C1215 C1214 1.415 . S
H1216 C1213 0.999 . S
H1217 C1198 0.913 . S
H1218 C1236 0.951 . S
H1219 C1238 0.951 . S
H1220 C1240 0.950 . S
H1221 C1241 0.950 . S
H1222 C1243 0.950 . S
H1223 C1246 0.950 . S
H1224 C1247 0.950 . S
H1225 C1249 0.950 . S
H1226 C1250 0.950 . S
H1227 C1251 0.951 . S
H1228 C1253 0.951 . S
H1229 C1255 0.950 . S
H1230 C1256 0.950 . S
H1231 C1258 0.950 . S
H1232 C1261 0.950 . S
H1233 C1262 0.950 . S
H1234 C1264 0.950 . S
H1235 C1265 0.950 . S
C1236 H1218 0.951 . S
C1236 C1237 1.366 . S
C1236 C1238 1.388 . S
C1237 C1236 1.366 . S
C1237 C1241 1.385 . S
C1238 H1219 0.951 . S
C1238 C1236 1.388 . S
C1238 C1239 1.366 . S
C1239 C1238 1.366 . S
C1239 C1240 1.414 . S
C1239 C1242 1.499 . S
C1240 H1220 0.950 . S
C1240 C1239 1.414 . S
C1240 C1241 1.374 . S
C1241 H1221 0.950 . S
C1241 C1237 1.385 . S
C1241 C1240 1.374 . S
C1242 C1239 1.499 . S
C1242 C1243 1.373 . S
C1242 C1244 1.389 . S
C1243 H1222 0.950 . S
C1243 C1242 1.373 . S
C1243 C1259 1.377 . S
C1244 C1242 1.389 . S
C1244 C1245 1.524 . S
C1244 C1258 1.377 . S
C1245 C1244 1.524 . S
C1245 C1246 1.397 . S
C1245 C1250 1.363 . S
C1246 H1223 0.950 . S
C1246 C1245 1.397 . S
C1246 C1247 1.334 . S
C1247 H1224 0.950 . S
C1247 C1246 1.334 . S
C1247 C1248 1.287 . S
C1248 C1247 1.287 . S
C1248 C1249 1.524 . S
C1248 H1267 0.913 . S
C1249 H1225 0.950 . S
C1249 C1248 1.524 . S
C1249 C1250 1.415 . S
C1250 H1226 0.950 . S
C1250 C1245 1.363 . S
C1250 C1249 1.415 . S
C1251 H1227 0.951 . S
C1251 C1252 1.366 . S
C1251 C1253 1.388 . S
C1252 C1251 1.366 . S
C1252 C1256 1.385 . S
C1253 H1228 0.951 . S
C1253 C1251 1.388 . S
C1253 C1254 1.366 . S
C1254 C1253 1.366 . S
C1254 C1255 1.414 . S
C1254 C1257 1.499 . S
C1255 H1229 0.950 . S
C1255 C1254 1.414 . S
C1255 C1256 1.374 . S
C1256 H1230 0.950 . S
C1256 C1252 1.385 . S
C1256 C1255 1.374 . S
C1257 C1254 1.499 . S
C1257 C1258 1.373 . S
C1257 C1259 1.389 . S
C1258 H1231 0.950 . S
C1258 C1244 1.377 . S
C1258 C1257 1.373 . S
C1259 C1243 1.377 . S
C1259 C1257 1.389 . S
C1259 C1260 1.524 1_565 S
C1260 C1259 1.524 1_545 S
C1260 C1261 1.397 . S
C1260 C1265 1.363 . S
C1261 H1232 0.950 . S
C1261 C1260 1.397 . S
C1261 C1262 1.334 . S
C1262 H1233 0.950 . S
C1262 C1261 1.334 . S
C1262 C1263 1.287 . S
C1263 C1262 1.287 . S
C1263 C1264 1.524 . S
C1263 H1266 0.999 . S
C1264 H1234 0.950 . S
C1264 C1263 1.524 . S
C1264 C1265 1.415 . S
C1265 H1235 0.950 . S
C1265 C1260 1.363 . S
C1265 C1264 1.415 . S
H1266 C1263 0.999 . S
H1267 C1248 0.913 . S
H1268 C1286 0.951 . S
H1269 C1288 0.951 . S
H1270 C1290 0.950 . S
H1271 C1291 0.950 . S
H1272 C1293 0.950 . S
H1273 C1296 0.950 . S
H1274 C1297 0.950 . S
H1275 C1299 0.950 . S
H1276 C1300 0.950 . S
H1277 C1301 0.951 . S
H1278 C1303 0.951 . S
H1279 C1305 0.950 . S
H1280 C1306 0.950 . S
H1281 C1308 0.950 . S
H1282 C1311 0.950 . S
H1283 C1312 0.950 . S
H1284 C1314 0.950 . S
H1285 C1315 0.950 . S
C1286 H1268 0.951 . S
C1286 C1287 1.366 . S
C1286 C1288 1.388 . S
C1287 C1286 1.366 . S
C1287 C1291 1.385 . S
C1288 H1269 0.951 . S
C1288 C1286 1.388 . S
C1288 C1289 1.366 . S
C1289 C1288 1.366 . S
C1289 C1290 1.414 . S
C1289 C1292 1.499 . S
C1290 H1270 0.950 . S
C1290 C1289 1.414 . S
C1290 C1291 1.374 . S
C1291 H1271 0.950 . S
C1291 C1287 1.385 . S
C1291 C1290 1.374 . S
C1292 C1289 1.499 . S
C1292 C1293 1.373 . S
C1292 C1294 1.389 . S
C1293 H1272 0.950 . S
C1293 C1292 1.373 . S
C1293 C1309 1.377 . S
C1294 C1292 1.389 . S
C1294 C1295 1.524 . S
C1294 C1308 1.377 . S
C1295 C1294 1.524 . S
C1295 C1296 1.397 . S
C1295 C1300 1.363 . S
C1296 H1273 0.950 . S
C1296 C1295 1.397 . S
C1296 C1297 1.334 . S
C1297 H1274 0.950 . S
C1297 C1296 1.334 . S
C1297 C1298 1.287 . S
C1298 C1297 1.287 . S
C1298 C1299 1.524 . S
C1298 H1317 0.913 . S
C1299 H1275 0.950 . S
C1299 C1298 1.524 . S
C1299 C1300 1.415 . S
C1300 H1276 0.950 . S
C1300 C1295 1.363 . S
C1300 C1299 1.415 . S
C1301 H1277 0.951 . S
C1301 C1302 1.366 . S
C1301 C1303 1.388 . S
C1302 C1301 1.366 . S
C1302 C1306 1.385 . S
C1303 H1278 0.951 . S
C1303 C1301 1.388 . S
C1303 C1304 1.366 . S
C1304 C1303 1.366 . S
C1304 C1305 1.414 . S
C1304 C1307 1.499 . S
C1305 H1279 0.950 . S
C1305 C1304 1.414 . S
C1305 C1306 1.374 . S
C1306 H1280 0.950 . S
C1306 C1302 1.385 . S
C1306 C1305 1.374 . S
C1307 C1304 1.499 . S
C1307 C1308 1.373 . S
C1307 C1309 1.389 . S
C1308 H1281 0.950 . S
C1308 C1294 1.377 . S
C1308 C1307 1.373 . S
C1309 C1293 1.377 . S
C1309 C1307 1.389 . S
C1309 C1310 1.524 . S
C1310 C1309 1.524 . S
C1310 C1311 1.397 . S
C1310 C1315 1.363 . S
C1311 H1282 0.950 . S
C1311 C1310 1.397 . S
C1311 C1312 1.334 . S
C1312 H1283 0.950 . S
C1312 C1311 1.334 . S
C1312 C1313 1.287 . S
C1313 C1312 1.287 . S
C1313 C1314 1.524 . S
C1313 H1316 0.999 . S
C1314 H1284 0.950 . S
C1314 C1313 1.524 . S
C1314 C1315 1.415 . S
C1315 H1285 0.950 . S
C1315 C1310 1.363 . S
C1315 C1314 1.415 . S
H1316 C1313 0.999 . S
H1317 C1298 0.913 . S
H1318 C1336 0.951 . S
H1319 C1338 0.951 . S
H1320 C1340 0.950 . S
H1321 C1341 0.950 . S
H1322 C1343 0.950 . S
H1323 C1346 0.950 . S
H1324 C1347 0.950 . S
H1325 C1349 0.950 . S
H1326 C1350 0.950 . S
H1327 C1351 0.951 . S
H1328 C1353 0.951 . S
H1329 C1355 0.950 . S
H1330 C1356 0.950 . S
H1331 C1358 0.950 . S
H1332 C1361 0.950 . S
H1333 C1362 0.950 . S
H1334 C1364 0.950 . S
H1335 C1365 0.950 . S
C1336 H1318 0.951 . S
C1336 C1337 1.366 . S
C1336 C1338 1.388 . S
C1337 C1336 1.366 . S
C1337 C1341 1.385 . S
C1338 H1319 0.951 . S
C1338 C1336 1.388 . S
C1338 C1339 1.366 . S
C1339 C1338 1.366 . S
C1339 C1340 1.414 . S
C1339 C1342 1.499 . S
C1340 H1320 0.950 . S
C1340 C1339 1.414 . S
C1340 C1341 1.374 . S
C1341 H1321 0.950 . S
C1341 C1337 1.385 . S
C1341 C1340 1.374 . S
C1342 C1339 1.499 . S
C1342 C1343 1.373 . S
C1342 C1344 1.389 . S
C1343 H1322 0.950 . S
C1343 C1342 1.373 . S
C1343 C1359 1.377 . S
C1344 C1342 1.389 . S
C1344 C1345 1.524 . S
C1344 C1358 1.377 . S
C1345 C1344 1.524 . S
C1345 C1346 1.397 . S
C1345 C1350 1.363 . S
C1346 H1323 0.950 . S
C1346 C1345 1.397 . S
C1346 C1347 1.334 . S
C1347 H1324 0.950 . S
C1347 C1346 1.334 . S
C1347 C1348 1.287 . S
C1348 C1347 1.287 . S
C1348 C1349 1.524 . S
C1348 H1367 0.913 . S
C1349 H1325 0.950 . S
C1349 C1348 1.524 . S
C1349 C1350 1.415 . S
C1350 H1326 0.950 . S
C1350 C1345 1.363 . S
C1350 C1349 1.415 . S
C1351 H1327 0.951 . S
C1351 C1352 1.366 . S
C1351 C1353 1.388 . S
C1352 C1351 1.366 . S
C1352 C1356 1.385 . S
C1353 H1328 0.951 . S
C1353 C1351 1.388 . S
C1353 C1354 1.366 . S
C1354 C1353 1.366 . S
C1354 C1355 1.414 . S
C1354 C1357 1.499 . S
C1355 H1329 0.950 . S
C1355 C1354 1.414 . S
C1355 C1356 1.374 . S
C1356 H1330 0.950 . S
C1356 C1352 1.385 . S
C1356 C1355 1.374 . S
C1357 C1354 1.499 . S
C1357 C1358 1.373 . S
C1357 C1359 1.389 . S
C1358 H1331 0.950 . S
C1358 C1344 1.377 . S
C1358 C1357 1.373 . S
C1359 C1343 1.377 . S
C1359 C1357 1.389 . S
C1359 C1360 1.524 . S
C1360 C1359 1.524 . S
C1360 C1361 1.397 . S
C1360 C1365 1.363 . S
C1361 H1332 0.950 . S
C1361 C1360 1.397 . S
C1361 C1362 1.334 . S
C1362 H1333 0.950 . S
C1362 C1361 1.334 . S
C1362 C1363 1.287 . S
C1363 C1362 1.287 . S
C1363 C1364 1.524 . S
C1363 H1366 0.999 . S
C1364 H1334 0.950 . S
C1364 C1363 1.524 . S
C1364 C1365 1.415 . S
C1365 H1335 0.950 . S
C1365 C1360 1.363 . S
C1365 C1364 1.415 . S
H1366 C1363 0.999 . S
H1367 C1348 0.913 . S
C187 C76 1.677 . S
C202 C96 1.705 . S
C252 C126 1.821 . S
C237 C87 1.775 . S
C302 C136 1.437 . S
C287 C54 1.397 . S
C352 C156 1.284 . S
C337 C65 1.260 1_455 S
C402 C97 1.710 . S
C387 C32 1.688 . S
C437 C43 1.780 . S
C452 C127 1.821 . S
C487 C10 1.398 1_556 S
C502 C137 1.437 . S
C537 C21 1.257 . S
C552 C157 1.286 . S
C602 C89 0.676 . S
C587 C60 0.681 . S
C652 C110 0.283 . S
C637 C71 0.427 . S
C702 C129 0.870 . S
C687 C82 0.863 . S
C737 C49 0.561 . S
C752 C149 0.538 . S
C787 C16 0.680 1_655 S
C802 C90 0.674 . S
C852 C109 0.279 1_565 S
C837 C27 0.442 . S
C902 C130 0.869 . S
C887 C38 0.863 . S
C937 C5 0.563 1_556 S
C952 C150 0.549 . S
C987 C59 1.482 1_556 S
C1002 C107 1.547 . S
C1037 C70 1.313 . S
C1052 C117 1.379 . S
C1102 C147 1.780 . S
C1087 C81 1.689 . S
C1152 C167 1.788 . S
C1137 C48 1.703 1_556 S
C1187 C15 1.480 1_655 S
C1202 C106 1.548 . S
C1252 C116 1.379 . S
C1237 C26 1.304 . S
C1302 C146 1.779 . S
C1287 C37 1.684 . S
C1337 C4 1.707 . S
C1352 C166 1.794 . S
