# Generated by pormake.
# Topology wbl, (4,4)-cn, num edge types: 1
# Building blocks:
#     Node 0, Type 0, BuildingBlock: NAWXER_clean_linker_0, # of connection points: 4
#     Node 1, Type 0, BuildingBlock: NAWXER_clean_linker_0, # of connection points: 4
#     Node 2, Type 0, BuildingBlock: NAWXER_clean_linker_0, # of connection points: 4
#     Node 3, Type 0, BuildingBlock: NAWXER_clean_linker_0, # of connection points: 4
#     Node 4, Type 0, BuildingBlock: NAWXER_clean_linker_0, # of connection points: 4
#     Node 5, Type 0, BuildingBlock: NAWXER_clean_linker_0, # of connection points: 4
#     Node 6, Type 0, BuildingBlock: NAWXER_clean_linker_0, # of connection points: 4
#     Node 7, Type 0, BuildingBlock: NAWXER_clean_linker_0, # of connection points: 4
#     Node 8, Type 1, BuildingBlock: CEKHIL_clean_sbu_0, # of connection points: 4
#     Node 9, Type 1, BuildingBlock: CEKHIL_clean_sbu_0, # of connection points: 4
#     Node 10, Type 1, BuildingBlock: CEKHIL_clean_sbu_0, # of connection points: 4
#     Node 11, Type 1, BuildingBlock: CEKHIL_clean_sbu_0, # of connection points: 4
#     Node 12, Type 1, BuildingBlock: CEKHIL_clean_sbu_0, # of connection points: 4
#     Node 13, Type 1, BuildingBlock: CEKHIL_clean_sbu_0, # of connection points: 4
#     Node 14, Type 1, BuildingBlock: CEKHIL_clean_sbu_0, # of connection points: 4
#     Node 15, Type 1, BuildingBlock: CEKHIL_clean_sbu_0, # of connection points: 4
#     Edge 16, Type (0, 1), BuildingBlock: CIFDUS_clean_linker_0, # of connection points: 2
#     Edge 17, Type (0, 1), BuildingBlock: CIFDUS_clean_linker_0, # of connection points: 2
#     Edge 18, Type (0, 1), BuildingBlock: CIFDUS_clean_linker_0, # of connection points: 2
#     Edge 19, Type (0, 1), BuildingBlock: CIFDUS_clean_linker_0, # of connection points: 2
#     Edge 20, Type (0, 1), BuildingBlock: CIFDUS_clean_linker_0, # of connection points: 2
#     Edge 21, Type (0, 1), BuildingBlock: CIFDUS_clean_linker_0, # of connection points: 2
#     Edge 22, Type (0, 1), BuildingBlock: CIFDUS_clean_linker_0, # of connection points: 2
#     Edge 23, Type (0, 1), BuildingBlock: CIFDUS_clean_linker_0, # of connection points: 2
#     Edge 24, Type (0, 1), BuildingBlock: CIFDUS_clean_linker_0, # of connection points: 2
#     Edge 25, Type (0, 1), BuildingBlock: CIFDUS_clean_linker_0, # of connection points: 2
#     Edge 26, Type (0, 1), BuildingBlock: CIFDUS_clean_linker_0, # of connection points: 2
#     Edge 27, Type (0, 1), BuildingBlock: CIFDUS_clean_linker_0, # of connection points: 2
#     Edge 28, Type (0, 1), BuildingBlock: CIFDUS_clean_linker_0, # of connection points: 2
#     Edge 29, Type (0, 1), BuildingBlock: CIFDUS_clean_linker_0, # of connection points: 2
#     Edge 30, Type (0, 1), BuildingBlock: CIFDUS_clean_linker_0, # of connection points: 2
#     Edge 31, Type (0, 1), BuildingBlock: CIFDUS_clean_linker_0, # of connection points: 2
#     Edge 32, Type (0, 1), BuildingBlock: CIFDUS_clean_linker_0, # of connection points: 2
#     Edge 33, Type (0, 1), BuildingBlock: CIFDUS_clean_linker_0, # of connection points: 2
#     Edge 34, Type (0, 1), BuildingBlock: CIFDUS_clean_linker_0, # of connection points: 2
#     Edge 35, Type (0, 1), BuildingBlock: CIFDUS_clean_linker_0, # of connection points: 2
#     Edge 36, Type (0, 1), BuildingBlock: CIFDUS_clean_linker_0, # of connection points: 2
#     Edge 37, Type (0, 1), BuildingBlock: CIFDUS_clean_linker_0, # of connection points: 2
#     Edge 38, Type (0, 1), BuildingBlock: CIFDUS_clean_linker_0, # of connection points: 2
#     Edge 39, Type (0, 1), BuildingBlock: CIFDUS_clean_linker_0, # of connection points: 2
#     Edge 40, Type (0, 1), BuildingBlock: CIFDUS_clean_linker_0, # of connection points: 2
#     Edge 41, Type (0, 1), BuildingBlock: CIFDUS_clean_linker_0, # of connection points: 2
#     Edge 42, Type (0, 1), BuildingBlock: CIFDUS_clean_linker_0, # of connection points: 2
#     Edge 43, Type (0, 1), BuildingBlock: CIFDUS_clean_linker_0, # of connection points: 2
#     Edge 44, Type (0, 1), BuildingBlock: CIFDUS_clean_linker_0, # of connection points: 2
#     Edge 45, Type (0, 1), BuildingBlock: CIFDUS_clean_linker_0, # of connection points: 2
#     Edge 46, Type (0, 1), BuildingBlock: CIFDUS_clean_linker_0, # of connection points: 2
#     Edge 47, Type (0, 1), BuildingBlock: CIFDUS_clean_linker_0, # of connection points: 2
# Relax obj value: 0.169
# Max RMSD: 0.173
# Mean RMSD: 0.146
data_MOF--net-wbl--node1-CEKHIL_clean_sbu_0--node2-NAWXER_clean_linker_0--edge1-CIFDUS_clean_linker_0
_symmetry_space_group_name_H-M    P1
_symmetry_Int_Tables_number       1
_symmetry_cell_setting            triclinic
loop_
_symmetry_equiv_pos_as_xyz
'x, y, z'
_cell_length_a     40.08402
_cell_length_b     40.285943
_cell_length_c     70.355196
_cell_angle_alpha  90.311752
_cell_angle_beta   90.092705
_cell_angle_gamma 89.922076
loop_
_atom_site_label
_atom_site_type_symbol
_atom_site_fract_x
_atom_site_fract_y
_atom_site_fract_z
_atom_type_partial_charge
C0 C 0.11692 0.98789 0.37142 0.0
C1 C 0.13119 0.00597 0.38655 0.0
C2 C 0.10272 0.00429 0.35595 0.0
C3 C 0.10242 0.03912 0.35527 0.0
C4 C 0.13269 0.0408 0.38521 0.0
C5 C 0.11808 0.0572 0.36983 0.0
C6 C 0.08086 0.05636 0.34139 0.0
C7 C 0.16619 0.01852 0.30743 0.0
C8 C 0.15855 0.99166 0.29538 0.0
C9 C 0.14081 0.03688 0.31603 0.0
C10 C 0.10723 0.02881 0.31274 0.0
C11 C 0.12496 0.98341 0.29215 0.0
C12 C 0.09945 0.00213 0.30061 0.0
C13 C 0.08049 0.04864 0.32181 0.0
C14 C 0.95535 0.12589 0.29821 0.0
C15 C 0.93934 0.10006 0.28824 0.0
C16 C 0.98657 0.12068 0.30659 0.0
C17 C 0.00178 0.08922 0.30575 0.0
C18 C 0.95675 0.07007 0.28537 0.0
C19 C 0.98751 0.06463 0.29415 0.0
C20 C 0.03057 0.08045 0.31807 0.0
C21 C 0.95051 0.10849 0.36197 0.0
C22 C 0.95811 0.13862 0.37113 0.0
C23 C 0.97398 0.09319 0.35013 0.0
C24 C 0.00543 0.10768 0.34748 0.0
C25 C 0.98905 0.15379 0.36774 0.0
C26 C 0.0127 0.1382 0.35618 0.0
C27 C 0.032 0.08928 0.33753 0.0
H28 H 0.11475 0.96113 0.37204 0.0
H29 H 0.08996 0.98976 0.34518 0.0
H30 H 0.14404 0.05552 0.39639 0.0
H31 H 0.11793 0.08409 0.36965 0.0
H32 H 0.19189 0.02531 0.31022 0.0
H33 H 0.14743 0.05766 0.32511 0.0
H34 H 0.11846 0.96297 0.2828 0.0
H35 H 0.07369 0.99558 0.29783 0.0
H36 H 0.94301 0.14947 0.30057 0.0
H37 H 0.9979 0.14077 0.31457 0.0
H38 H 0.94585 0.05007 0.27712 0.0
H39 H 0.99909 0.04042 0.29278 0.0
H40 H 0.92688 0.09628 0.36448 0.0
H41 H 0.96815 0.06939 0.3437 0.0
H42 H 0.99565 0.17675 0.37489 0.0
H43 H 0.03701 0.1495 0.35443 0.0
N44 N 0.05691 0.07677 0.34841 0.0
N45 N 0.05509 0.06054 0.3109 0.0
C46 C 0.94877 0.45794 0.61699 0.0
C47 C 0.96745 0.44264 0.63146 0.0
C48 C 0.96484 0.47508 0.60238 0.0
C49 C 0.99982 0.47699 0.60197 0.0
C50 C 0.00246 0.443 0.63032 0.0
C51 C 0.01844 0.46023 0.61581 0.0
C52 C 0.01705 0.50008 0.58902 0.0
C53 C 0.97662 0.41862 0.55305 0.0
C54 C 0.95396 0.42824 0.53894 0.0
C55 C 0.99542 0.44238 0.56276 0.0
C56 C 0.99133 0.47634 0.55886 0.0
C57 C 0.95028 0.46198 0.5346 0.0
C58 C 0.96886 0.48592 0.54452 0.0
C59 C 0.01139 0.5016 0.56919 0.0
C60 C 0.11285 0.60676 0.54786 0.0
C61 C 0.09366 0.62792 0.53634 0.0
C62 C 0.09808 0.5801 0.55718 0.0
C63 C 0.06365 0.57435 0.55556 0.0
C64 C 0.05955 0.62075 0.53375 0.0
C65 C 0.04471 0.59416 0.54326 0.0
C66 C 0.04728 0.54886 0.56741 0.0
C67 C 0.07721 0.62627 0.61228 0.0
C68 C 0.10274 0.61495 0.62434 0.0
C69 C 0.06243 0.60467 0.5991 0.0
C70 C 0.07272 0.57139 0.59803 0.0
C71 C 0.11437 0.5822 0.62235 0.0
C72 C 0.09919 0.5605 0.60946 0.0
C73 C 0.05307 0.54685 0.58715 0.0
H74 H 0.92178 0.4584 0.61758 0.0
H75 H 0.94993 0.48837 0.59206 0.0
H76 H 0.01754 0.43099 0.64107 0.0
H77 H 0.04545 0.46142 0.61577 0.0
H78 H 0.9803 0.39258 0.55626 0.0
H79 H 0.01357 0.43405 0.57311 0.0
H80 H 0.93325 0.46972 0.5235 0.0
H81 H 0.96561 0.51189 0.54105 0.0
H82 H 0.1391 0.61147 0.55031 0.0
H83 H 0.11347 0.56454 0.56614 0.0
H84 H 0.04416 0.63604 0.52464 0.0
H85 H 0.01819 0.58986 0.54157 0.0
H86 H 0.06773 0.65136 0.61364 0.0
H87 H 0.04172 0.6134 0.59057 0.0
H88 H 0.13364 0.5727 0.63167 0.0
H89 H 0.10723 0.53482 0.60893 0.0
N90 N 0.0378 0.52261 0.59712 0.0
N91 N 0.02655 0.52618 0.55912 0.0
C92 C 0.56829 0.43863 0.86065 0.0
C93 C 0.58477 0.45713 0.87482 0.0
C94 C 0.55081 0.45469 0.84615 0.0
C95 C 0.54975 0.48951 0.84548 0.0
C96 C 0.5853 0.49194 0.87344 0.0
C97 C 0.56776 0.50795 0.85898 0.0
C98 C 0.52584 0.50668 0.83287 0.0
C99 C 0.60614 0.47183 0.79444 0.0
C100 C 0.59883 0.44016 0.78712 0.0
C101 C 0.58111 0.49133 0.80253 0.0
C102 C 0.54815 0.4798 0.80322 0.0
C103 C 0.56579 0.42856 0.78771 0.0
C104 C 0.54046 0.44851 0.79549 0.0
C105 C 0.52276 0.49984 0.81328 0.0
C106 C 0.41664 0.60139 0.79237 0.0
C107 C 0.3934 0.58158 0.78254 0.0
C108 C 0.44467 0.58708 0.80085 0.0
C109 C 0.44978 0.55259 0.79997 0.0
C110 C 0.40008 0.54741 0.7804 0.0
C111 C 0.42804 0.53307 0.78902 0.0
C112 C 0.47614 0.53668 0.81158 0.0
C113 C 0.40242 0.57366 0.85686 0.0
C114 C 0.41569 0.5993 0.86821 0.0
C115 C 0.42269 0.55676 0.84381 0.0
C116 C 0.45656 0.56505 0.8421 0.0
C117 C 0.44913 0.60868 0.86565 0.0
C118 C 0.46945 0.59146 0.85286 0.0
C119 C 0.47966 0.54367 0.83118 0.0
H120 H 0.567 0.41182 0.86146 0.0
H121 H 0.53629 0.43988 0.83628 0.0
H122 H 0.59816 0.50686 0.88399 0.0
H123 H 0.56716 0.53484 0.85879 0.0
H124 H 0.63145 0.48123 0.79425 0.0
H125 H 0.58754 0.51535 0.80849 0.0
H126 H 0.55962 0.40425 0.78209 0.0
H127 H 0.51517 0.43914 0.79605 0.0
H128 H 0.41239 0.62773 0.79437 0.0
H129 H 0.46165 0.60283 0.80878 0.0
H130 H 0.38312 0.53153 0.77254 0.0
H131 H 0.43176 0.50649 0.78791 0.0
H132 H 0.37675 0.5659 0.8586 0.0
H133 H 0.41239 0.53611 0.83581 0.0
H134 H 0.46018 0.62796 0.8744 0.0
H135 H 0.4956 0.598 0.85186 0.0
N136 N 0.50433 0.52844 0.84102 0.0
N137 N 0.4979 0.51494 0.80325 0.0
C138 C 0.51606 0.87197 0.05081 0.0
C139 C 0.49075 0.87681 0.03726 0.0
C140 C 0.52937 0.89878 0.06079 0.0
C141 C 0.51761 0.93106 0.05753 0.0
C142 C 0.47925 0.90921 0.03376 0.0
C143 C 0.49292 0.93626 0.04369 0.0
C144 C 0.53167 0.95896 0.06861 0.0
C145 C 0.46525 0.90496 0.11012 0.0
C146 C 0.48023 0.89495 0.12729 0.0
C147 C 0.48277 0.92458 0.09716 0.0
C148 C 0.51601 0.93382 0.1008 0.0
C149 C 0.51371 0.90378 0.13064 0.0
C150 C 0.53134 0.92272 0.11755 0.0
C151 C 0.53395 0.95801 0.08865 0.0
C152 C 0.60944 0.08015 0.11209 0.0
C153 C 0.63141 0.06462 0.12493 0.0
C154 C 0.59008 0.06113 0.0995 0.0
C155 C 0.59261 0.02633 0.0995 0.0
C156 C 0.6343 0.02983 0.12444 0.0
C157 C 0.61514 0.011 0.1119 0.0
C158 C 0.57006 0.00498 0.08817 0.0
C159 C 0.63162 0.06388 0.04766 0.0
C160 C 0.61181 0.08829 0.03887 0.0
C161 C 0.6168 0.03691 0.05677 0.0
C162 C 0.58195 0.03376 0.05717 0.0
C163 C 0.57688 0.0843 0.03886 0.0
C164 C 0.56216 0.05714 0.04776 0.0
C165 C 0.56586 0.00742 0.06833 0.0
H166 H 0.52518 0.84727 0.05397 0.0
H167 H 0.54882 0.89426 0.07117 0.0
H168 H 0.45988 0.9136 0.02332 0.0
H169 H 0.48376 0.96106 0.04087 0.0
H170 H 0.43968 0.89842 0.10686 0.0
H171 H 0.46976 0.93354 0.08471 0.0
H172 H 0.52609 0.89743 0.14381 0.0
H173 H 0.55682 0.92963 0.12087 0.0
H174 H 0.60665 0.10689 0.11208 0.0
H175 H 0.57235 0.07351 0.09031 0.0
H176 H 0.65024 0.01684 0.13437 0.0
H177 H 0.61731 0.98419 0.11226 0.0
H178 H 0.65856 0.06576 0.04767 0.0
H179 H 0.63249 0.01883 0.06382 0.0
H180 H 0.56069 0.10279 0.03258 0.0
H181 H 0.53521 0.05514 0.048 0.0
N182 N 0.54706 0.98412 0.05919 0.0
N183 N 0.55358 0.98071 0.09751 0.0
C184 C 0.07077 0.59811 0.89306 0.0
C185 C 0.08409 0.57785 0.87859 0.0
C186 C 0.05163 0.58423 0.90759 0.0
C187 C 0.04558 0.5499 0.90787 0.0
C188 C 0.08029 0.54323 0.8799 0.0
C189 C 0.06092 0.52944 0.89428 0.0
C190 C 0.01899 0.53609 0.91998 0.0
C191 C 0.10319 0.55396 0.95965 0.0
C192 C 0.09964 0.58353 0.9701 0.0
C193 C 0.07615 0.54055 0.94985 0.0
C194 C 0.04495 0.55627 0.95045 0.0
C195 C 0.06845 0.59945 0.97067 0.0
C196 C 0.04107 0.5856 0.96109 0.0
C197 C 0.01684 0.5418 0.93973 0.0
C198 C 0.90783 0.45503 0.96618 0.0
C199 C 0.8787 0.47429 0.96822 0.0
C200 C 0.93625 0.46834 0.95764 0.0
C201 C 0.9362 0.50123 0.9513 0.0
C202 C 0.87931 0.50765 0.96229 0.0
C203 C 0.90791 0.52103 0.95402 0.0
C204 C 0.96454 0.51386 0.9403 0.0
C205 C 0.89056 0.49563 0.89064 0.0
C206 C 0.89948 0.46726 0.88008 0.0
C207 C 0.91123 0.50723 0.90526 0.0
C208 C 0.94113 0.49066 0.90945 0.0
C209 C 0.92805 0.44926 0.88539 0.0
C210 C 0.94889 0.46109 0.89984 0.0
C211 C 0.96718 0.50752 0.92068 0.0
H212 H 0.07298 0.62487 0.89238 0.0
H213 H 0.03954 0.60058 0.91774 0.0
H214 H 0.0908 0.52689 0.86919 0.0
H215 H 0.05657 0.5029 0.89426 0.0
H216 H 0.12707 0.54139 0.95891 0.0
H217 H 0.07956 0.51779 0.9418 0.0
H218 H 0.06523 0.62225 0.97869 0.0
H219 H 0.01711 0.59803 0.96168 0.0
H220 H 0.90857 0.4295 0.97088 0.0
H221 H 0.95801 0.45276 0.95559 0.0
H222 H 0.85729 0.52315 0.96329 0.0
H223 H 0.90748 0.54643 0.94903 0.0
H224 H 0.8687 0.50997 0.8868 0.0
H225 H 0.90518 0.53049 0.91223 0.0
H226 H 0.93578 0.42759 0.87734 0.0
H227 H 0.97213 0.44828 0.90271 0.0
N228 N 0.9942 0.51896 0.91124 0.0
N229 N 0.98961 0.53052 0.94929 0.0
C230 C 0.44314 0.57988 0.13566 0.0
C231 C 0.46181 0.59312 0.12057 0.0
C232 C 0.45905 0.56225 0.1502 0.0
C233 C 0.49376 0.55765 0.14979 0.0
C234 C 0.4968 0.59088 0.12122 0.0
C235 C 0.51256 0.573 0.13557 0.0
C236 C 0.50992 0.53236 0.16179 0.0
C237 C 0.49586 0.61921 0.20036 0.0
C238 C 0.46996 0.61494 0.21352 0.0
C239 C 0.508 0.59232 0.18996 0.0
C240 C 0.49463 0.56055 0.19259 0.0
C241 C 0.45618 0.58323 0.21604 0.0
C242 C 0.4688 0.55604 0.20579 0.0
C243 C 0.50855 0.53228 0.1818 0.0
C244 C 0.60993 0.42533 0.19857 0.0
C245 C 0.59436 0.40761 0.21323 0.0
C246 C 0.59277 0.45022 0.18892 0.0
C247 C 0.55944 0.45756 0.19344 0.0
C248 C 0.56155 0.4163 0.21845 0.0
C249 C 0.54428 0.44113 0.20866 0.0
C250 C 0.54061 0.4823 0.18222 0.0
C251 C 0.54943 0.4003 0.13649 0.0
C252 C 0.57382 0.40807 0.12291 0.0
C253 C 0.54054 0.42359 0.15043 0.0
C254 C 0.55546 0.45508 0.15065 0.0
C255 C 0.59032 0.43875 0.12405 0.0
C256 C 0.58085 0.46225 0.13765 0.0
C257 C 0.5411 0.48215 0.16219 0.0
H258 H 0.41614 0.58103 0.13552 0.0
H259 H 0.44405 0.55021 0.16094 0.0
H260 H 0.51193 0.60143 0.11004 0.0
H261 H 0.53939 0.56976 0.13504 0.0
H262 H 0.50673 0.64349 0.19812 0.0
H263 H 0.52821 0.59625 0.18001 0.0
H264 H 0.43623 0.57944 0.22616 0.0
H265 H 0.4583 0.53161 0.20803 0.0
H266 H 0.63506 0.4193 0.19409 0.0
H267 H 0.60551 0.46345 0.17772 0.0
H268 H 0.54905 0.40363 0.22995 0.0
H269 H 0.5188 0.44685 0.21263 0.0
H270 H 0.53622 0.37689 0.13575 0.0
H271 H 0.52056 0.41784 0.16023 0.0
H272 H 0.60882 0.4455 0.11355 0.0
H273 H 0.59236 0.48658 0.13751 0.0
N274 N 0.52597 0.50723 0.15277 0.0
N275 N 0.52408 0.50729 0.19138 0.0
C276 C 0.46276 0.94764 0.38671 0.0
C277 C 0.45095 0.96819 0.37207 0.0
C278 C 0.47764 0.9616 0.40293 0.0
C279 C 0.48056 0.99626 0.40472 0.0
C280 C 0.45158 0.00276 0.37465 0.0
C281 C 0.46634 0.01663 0.39077 0.0
C282 C 0.50319 0.01147 0.41892 0.0
C283 C 0.41737 0.97375 0.45244 0.0
C284 C 0.42479 0.95254 0.46758 0.0
C285 C 0.44284 0.99012 0.44287 0.0
C286 C 0.47641 0.98484 0.44788 0.0
C287 C 0.45811 0.94733 0.47286 0.0
C288 C 0.4838 0.9633 0.46301 0.0
C289 C 0.50335 0.00404 0.43859 0.0
C290 C 0.60265 0.10054 0.46976 0.0
C291 C 0.63352 0.08401 0.47119 0.0
C292 C 0.57511 0.08471 0.46155 0.0
C293 C 0.57778 0.05195 0.45493 0.0
C294 C 0.63547 0.05057 0.46528 0.0
C295 C 0.60779 0.03467 0.45731 0.0
C296 C 0.55166 0.03802 0.44255 0.0
C297 C 0.62722 0.07432 0.39733 0.0
C298 C 0.61634 0.1048 0.38989 0.0
C299 C 0.6066 0.0562 0.40943 0.0
C300 C 0.57486 0.06829 0.41416 0.0
C301 C 0.58546 0.11783 0.39574 0.0
C302 C 0.56472 0.09951 0.40765 0.0
C303 C 0.55042 0.04634 0.42324 0.0
H304 H 0.46277 0.92091 0.38497 0.0
H305 H 0.4889 0.94537 0.41336 0.0
H306 H 0.44235 0.01912 0.36365 0.0
H307 H 0.46827 0.04341 0.39185 0.0
H308 H 0.39168 0.97869 0.44853 0.0
H309 H 0.43602 0.00784 0.43203 0.0
H310 H 0.46415 0.93146 0.48476 0.0
H311 H 0.50939 0.95924 0.46739 0.0
H312 H 0.60001 0.12606 0.47443 0.0
H313 H 0.55215 0.0985 0.45959 0.0
H314 H 0.65885 0.03712 0.46579 0.0
H315 H 0.61042 0.00957 0.45191 0.0
H316 H 0.65093 0.06379 0.39301 0.0
H317 H 0.61458 0.03189 0.41415 0.0
H318 H 0.5763 0.14103 0.39001 0.0
H319 H 0.54011 0.10896 0.41105 0.0
N320 N 0.52651 0.03266 0.41214 0.0
N321 N 0.52796 0.01739 0.4497 0.0
C322 C 0.10789 0.96888 0.6521 0.0
C323 C 0.09583 0.95327 0.63553 0.0
C324 C 0.08578 0.98363 0.66499 0.0
C325 C 0.05129 0.98311 0.66147 0.0
C326 C 0.0612 0.95132 0.6326 0.0
C327 C 0.03917 0.96639 0.64535 0.0
C328 C 0.02818 0.0035 0.67302 0.0
C329 C 0.06224 0.91898 0.70759 0.0
C330 C 0.07954 0.92728 0.72426 0.0
C331 C 0.04397 0.94299 0.69787 0.0
C332 C 0.04366 0.97617 0.70422 0.0
C333 C 0.07795 0.95996 0.73125 0.0
C334 C 0.06026 0.98431 0.72123 0.0
C335 C 0.02614 0.00213 0.69307 0.0
C336 C 0.91983 0.10881 0.70634 0.0
C337 C 0.93518 0.12747 0.72087 0.0
C338 C 0.93631 0.0818 0.69804 0.0
C339 C 0.96887 0.07331 0.70369 0.0
C340 C 0.9665 0.11686 0.72771 0.0
C341 C 0.98319 0.09014 0.71917 0.0
C342 C 0.98876 0.04855 0.69282 0.0
C343 C 0.98087 0.12874 0.64564 0.0
C344 C 0.95599 0.11982 0.6325 0.0
C345 C 0.99031 0.10665 0.65996 0.0
C346 C 0.97539 0.07524 0.66102 0.0
C347 C 0.93959 0.08925 0.63444 0.0
C348 C 0.94959 0.0669 0.64843 0.0
C349 C 0.99059 0.04921 0.6728 0.0
H350 H 0.13447 0.97078 0.65468 0.0
H351 H 0.09571 0.99688 0.67719 0.0
H352 H 0.05118 0.93993 0.61983 0.0
H353 H 0.01267 0.96598 0.6423 0.0
H354 H 0.06234 0.89369 0.70226 0.0
H355 H 0.03009 0.93551 0.68536 0.0
H356 H 0.09072 0.9667 0.74429 0.0
H357 H 0.06 0.00957 0.72659 0.0
H358 H 0.89577 0.11597 0.70066 0.0
H359 H 0.92397 0.06828 0.68671 0.0
H360 H 0.97869 0.12988 0.73929 0.0
H361 H 0.00796 0.08365 0.7241 0.0
H362 H 0.99402 0.15208 0.64427 0.0
H363 H 0.01067 0.1132 0.6694 0.0
H364 H 0.92073 0.08163 0.62427 0.0
H365 H 0.93822 0.04253 0.6489 0.0
N366 N 0.01016 0.02679 0.66373 0.0
N367 N 0.00675 0.02502 0.70228 0.0
Co368 Co 0.32713 0.67037 0.00624 0.0
O369 O 0.29128 0.63905 0.00613 0.0
O370 O 0.28637 0.69179 0.9978 0.0
C371 C 0.34782 0.6565 0.03495 0.0
O372 O 0.35866 0.71002 0.00566 0.0
Co373 Co 0.4003 0.64401 0.00694 0.0
O374 O 0.41099 0.6916 0.01088 0.0
C375 C 0.35982 0.63678 0.97246 0.0
C376 C 0.27235 0.66298 0.00019 0.0
C377 C 0.38997 0.7151 0.00869 0.0
O378 O 0.33845 0.6577 0.97908 0.0
O379 O 0.38416 0.62524 0.98217 0.0
O380 O 0.32248 0.67659 0.03382 0.0
O381 O 0.35713 0.64328 0.0191 0.0
Co382 Co 0.3504 0.8493 0.2463 0.0
O383 O 0.32498 0.88946 0.24813 0.0
O384 O 0.30787 0.84053 0.25843 0.0
C385 C 0.36649 0.85579 0.21592 0.0
O386 O 0.37 0.80239 0.24587 0.0
Co387 Co 0.42716 0.85527 0.23945 0.0
O388 O 0.42455 0.80631 0.23825 0.0
C389 C 0.39852 0.87488 0.27618 0.0
C390 C 0.30197 0.87211 0.25634 0.0
C391 C 0.39862 0.78929 0.24205 0.0
O392 O 0.37135 0.85953 0.27189 0.0
O393 O 0.4223 0.87908 0.26432 0.0
O394 O 0.3371 0.84386 0.21957 0.0
O395 O 0.38309 0.86645 0.23039 0.0
Co396 Co 0.1797 0.85785 0.50042 0.0
O397 O 0.13749 0.83527 0.50216 0.0
O398 O 0.18683 0.81213 0.50741 0.0
C399 C 0.17017 0.88353 0.47257 0.0
O400 O 0.22844 0.87227 0.49906 0.0
Co401 Co 0.18351 0.93495 0.50105 0.0
O402 O 0.23125 0.92775 0.49547 0.0
C403 C 0.16959 0.89907 0.53647 0.0
C404 C 0.15456 0.80904 0.5067 0.0
C405 C 0.2449 0.89924 0.49633 0.0
O406 O 0.17564 0.87118 0.52812 0.0
O407 O 0.16929 0.92693 0.52784 0.0
O408 O 0.17987 0.85273 0.47281 0.0
O409 O 0.16338 0.89648 0.48895 0.0
Co410 Co 0.1645 0.70371 0.7627 0.0
O411 O 0.13579 0.74177 0.76235 0.0
O412 O 0.1886 0.74181 0.75302 0.0
C413 C 0.15009 0.6861 0.79192 0.0
O414 O 0.20165 0.6689 0.76224 0.0
Co415 Co 0.13182 0.63362 0.76497 0.0
O416 O 0.17858 0.61974 0.76981 0.0
C417 C 0.12758 0.67168 0.72972 0.0
C418 C 0.16082 0.7581 0.75551 0.0
C419 C 0.20401 0.63791 0.76662 0.0
O420 O 0.15022 0.69161 0.73593 0.0
O421 O 0.11407 0.64924 0.73993 0.0
O422 O 0.17203 0.70964 0.79015 0.0
O423 O 0.13553 0.6771 0.77639 0.0
Co424 Co 0.8613 0.20805 0.49804 0.0
O425 O 0.89238 0.24414 0.49908 0.0
O426 O 0.83913 0.2478 0.50732 0.0
C427 C 0.87624 0.18917 0.4691 0.0
O428 O 0.82201 0.1759 0.49787 0.0
Co429 Co 0.8896 0.13585 0.49645 0.0
O430 O 0.84178 0.12378 0.49413 0.0
C431 C 0.89402 0.17443 0.5317 0.0
C432 C 0.86801 0.2622 0.50545 0.0
C433 C 0.81773 0.14435 0.49586 0.0
O434 O 0.87296 0.19546 0.52501 0.0
O435 O 0.90709 0.15119 0.52173 0.0
O436 O 0.85594 0.21426 0.47053 0.0
O437 O 0.88923 0.17916 0.48482 0.0
Co438 Co 0.8276 0.36484 0.74338 0.0
O439 O 0.79492 0.39928 0.74248 0.0
O440 O 0.78385 0.34753 0.75061 0.0
C441 C 0.85135 0.37726 0.71521 0.0
O442 O 0.85666 0.32296 0.74476 0.0
Co443 Co 0.90195 0.38807 0.74489 0.0
O444 O 0.9098 0.33999 0.74071 0.0
C445 C 0.85943 0.39568 0.77844 0.0
C446 C 0.77304 0.37764 0.7477 0.0
C447 C 0.88811 0.31701 0.7424 0.0
O448 O 0.83761 0.37626 0.77087 0.0
O449 O 0.88494 0.40656 0.76953 0.0
O450 O 0.82462 0.35905 0.71566 0.0
O451 O 0.86023 0.3897 0.73133 0.0
Co452 Co 0.66054 0.31762 0.98694 0.0
O453 O 0.62775 0.28302 0.98737 0.0
O454 O 0.68117 0.27637 0.99473 0.0
C455 C 0.64568 0.33932 0.95872 0.0
O456 O 0.70151 0.34743 0.98699 0.0
Co457 Co 0.63688 0.39134 0.98758 0.0
O458 O 0.68504 0.40069 0.98389 0.0
C459 C 0.63156 0.35106 0.02193 0.0
C460 C 0.65161 0.26344 0.99276 0.0
C461 C 0.70776 0.37857 0.98499 0.0
O462 O 0.65072 0.329 0.0144 0.0
O463 O 0.61981 0.37581 0.01277 0.0
O464 O 0.66465 0.31313 0.95927 0.0
O465 O 0.63366 0.34882 0.97485 0.0
Co466 Co 0.68512 0.18468 0.2593 0.0
O467 O 0.64359 0.20793 0.25695 0.0
O468 O 0.69307 0.22938 0.25035 0.0
C469 C 0.67488 0.16319 0.28817 0.0
O470 O 0.73334 0.16797 0.26084 0.0
Co471 Co 0.68471 0.10751 0.26185 0.0
O472 O 0.73164 0.11429 0.26944 0.0
C473 C 0.6742 0.13965 0.22485 0.0
C474 C 0.66082 0.23312 0.25116 0.0
C475 C 0.74773 0.14093 0.26625 0.0
O476 O 0.68017 0.16829 0.23225 0.0
O477 O 0.6731 0.11271 0.23435 0.0
O478 O 0.68591 0.19337 0.28666 0.0
O479 O 0.66748 0.14849 0.27236 0.0
H480 H 0.16823 0.92457 0.29387 0.0
H481 H 0.21007 0.01769 0.27562 0.0
H482 H 0.25724 0.98858 0.26133 0.0
H483 H 0.28754 0.9374 0.25508 0.0
H484 H 0.24781 0.84367 0.27385 0.0
H485 H 0.19867 0.87223 0.28679 0.0
C486 C 0.18756 0.93832 0.28658 0.0
C487 C 0.18584 0.9732 0.28586 0.0
C488 C 0.21495 0.92139 0.27859 0.0
C489 C 0.21111 0.99086 0.27653 0.0
C490 C 0.23801 0.97425 0.26832 0.0
C491 C 0.26811 0.92307 0.26191 0.0
C492 C 0.27136 0.88846 0.26352 0.0
C493 C 0.24036 0.93962 0.26946 0.0
C494 C 0.24591 0.87037 0.27244 0.0
C495 C 0.21784 0.88669 0.27985 0.0
H496 H 0.06536 0.68916 0.53287 0.0
H497 H 0.1565 0.6354 0.52147 0.0
H498 H 0.18342 0.68665 0.51143 0.0
H499 H 0.18177 0.74722 0.50703 0.0
H500 H 0.08973 0.80021 0.5168 0.0
H501 H 0.06233 0.74863 0.526 0.0
C502 C 0.09088 0.68841 0.52781 0.0
C503 C 0.10888 0.65837 0.52814 0.0
C504 C 0.10614 0.71791 0.52183 0.0
C505 C 0.14216 0.6582 0.52177 0.0
C506 C 0.15758 0.6875 0.51593 0.0
C507 C 0.15569 0.74741 0.51113 0.0
C508 C 0.13786 0.77747 0.51138 0.0
C509 C 0.13997 0.71758 0.51618 0.0
C510 C 0.10399 0.77735 0.51649 0.0
C511 C 0.08832 0.74789 0.52179 0.0
H512 H 0.33224 0.55323 0.78487 0.0
H513 H 0.38142 0.64265 0.76645 0.0
H514 H 0.32729 0.66797 0.75946 0.0
H515 H 0.26563 0.66543 0.75996 0.0
H516 H 0.21778 0.57485 0.77804 0.0
H517 H 0.27176 0.5493 0.78338 0.0
C518 C 0.33131 0.57798 0.77891 0.0
C519 C 0.36097 0.59593 0.77622 0.0
C520 C 0.30021 0.59235 0.77492 0.0
C521 C 0.359 0.62833 0.76889 0.0
C522 C 0.32804 0.64282 0.76483 0.0
C523 C 0.267 0.64005 0.76496 0.0
C524 C 0.23745 0.62232 0.76867 0.0
C525 C 0.2984 0.62523 0.76806 0.0
C526 C 0.23989 0.58932 0.77507 0.0
C527 C 0.27085 0.57456 0.77817 0.0
H528 H 0.42494 0.86229 0.03201 0.0
H529 H 0.52415 0.82568 0.02061 0.0
H530 H 0.50119 0.77331 0.009 0.0
H531 H 0.45373 0.7361 0.00524 0.0
H532 H 0.35415 0.77148 0.01694 0.0
H533 H 0.37638 0.82641 0.02489 0.0
C534 C 0.44141 0.84308 0.02658 0.0
C535 C 0.47619 0.84761 0.0274 0.0
C536 C 0.42802 0.81278 0.02013 0.0
C537 C 0.49731 0.82251 0.02041 0.0
C538 C 0.48422 0.7926 0.01377 0.0
C539 C 0.43678 0.75588 0.00936 0.0
C540 C 0.40239 0.74954 0.01077 0.0
C541 C 0.44972 0.78712 0.01411 0.0
C542 C 0.38076 0.77565 0.01579 0.0
C543 C 0.39348 0.80703 0.02043 0.0
H544 H 0.12737 0.64487 0.96655 0.0
H545 H 0.13753 0.55194 0.99612 0.0
H546 H 0.19072 0.57003 0.00955 0.0
H547 H 0.23657 0.60948 0.01025 0.0
H548 H 0.22871 0.70199 0.97999 0.0
H549 H 0.17218 0.68713 0.96958 0.0
C550 C 0.14104 0.629 0.97624 0.0
C551 C 0.12887 0.59709 0.98031 0.0
C552 C 0.17206 0.63931 0.98356 0.0
C553 C 0.14671 0.57649 0.99274 0.0
C554 C 0.17708 0.58679 0.00036 0.0
C555 C 0.22243 0.62658 0.0015 0.0
C556 C 0.23692 0.65657 0.99568 0.0
C557 C 0.19039 0.61769 0.99543 0.0
C558 C 0.2181 0.67866 0.98459 0.0
C559 C 0.18586 0.67012 0.97859 0.0
H560 H 0.40704 0.64066 0.2154 0.0
H561 H 0.50739 0.65428 0.23615 0.0
H562 H 0.49209 0.70802 0.24972 0.0
H563 H 0.45293 0.7541 0.2515 0.0
H564 H 0.35303 0.74309 0.22965 0.0
H565 H 0.36496 0.6851 0.22108 0.0
C566 C 0.42518 0.65516 0.22332 0.0
C567 C 0.45835 0.64391 0.22465 0.0
C568 C 0.41636 0.68653 0.2307 0.0
C569 C 0.48183 0.66276 0.23483 0.0
C570 C 0.47312 0.69345 0.24255 0.0
C571 C 0.43355 0.7388 0.24517 0.0
C572 C 0.40236 0.75286 0.24093 0.0
C573 C 0.44087 0.70607 0.23992 0.0
C574 C 0.37726 0.73274 0.23304 0.0
C575 C 0.3842 0.69971 0.22799 0.0
H576 H 0.38644 0.89907 0.45932 0.0
H577 H 0.40059 0.97765 0.50028 0.0
H578 H 0.34664 0.96505 0.51479 0.0
H579 H 0.29218 0.93749 0.51242 0.0
H580 H 0.27784 0.85806 0.47201 0.0
H581 H 0.33536 0.86456 0.46079 0.0
C582 C 0.378 0.9126 0.4718 0.0
C583 C 0.39707 0.93917 0.47883 0.0
C584 C 0.34689 0.90531 0.47994 0.0
C585 C 0.38615 0.95694 0.49484 0.0
C586 C 0.35529 0.94991 0.503 0.0
C587 C 0.30204 0.92109 0.50149 0.0
C588 C 0.28102 0.89761 0.49287 0.0
C589 C 0.33494 0.92504 0.49519 0.0
C590 C 0.29382 0.87624 0.47884 0.0
C591 C 0.32654 0.88015 0.47235 0.0
H592 H 0.13133 0.88997 0.71163 0.0
H593 H 0.06715 0.90556 0.75994 0.0
H594 H 0.08965 0.85567 0.77506 0.0
H595 H 0.12241 0.80423 0.77257 0.0
H596 H 0.18818 0.78917 0.72489 0.0
H597 H 0.17079 0.84259 0.71154 0.0
C598 C 0.12287 0.88267 0.72564 0.0
C599 C 0.09752 0.901 0.73468 0.0
C600 C 0.13605 0.85408 0.73423 0.0
C601 C 0.08672 0.89171 0.75283 0.0
C602 C 0.09943 0.86315 0.76139 0.0
C603 C 0.13341 0.81304 0.75945 0.0
C604 C 0.15622 0.79283 0.74957 0.0
C605 C 0.12333 0.84365 0.75195 0.0
C606 C 0.17065 0.80446 0.73272 0.0
C607 C 0.16049 0.83483 0.72503 0.0
H608 H 0.64026 0.45749 0.75893 0.0
H609 H 0.61884 0.37773 0.79746 0.0
H610 H 0.6698 0.34862 0.78732 0.0
H611 H 0.7239 0.34938 0.76979 0.0
H612 H 0.74372 0.43066 0.7317 0.0
H613 H 0.69005 0.45533 0.73917 0.0
C614 C 0.64656 0.43348 0.76488 0.0
C615 C 0.62618 0.41984 0.77898 0.0
C616 C 0.67582 0.41726 0.75914 0.0
C617 C 0.63427 0.38861 0.78652 0.0
C618 C 0.66348 0.37212 0.78081 0.0
C619 C 0.71609 0.37211 0.7629 0.0
C620 C 0.73802 0.38837 0.75042 0.0
C621 C 0.68498 0.38664 0.76746 0.0
C622 C 0.72758 0.41785 0.74158 0.0
C623 C 0.69683 0.43207 0.74582 0.0
H624 H 0.59233 0.12171 0.00713 0.0
H625 H 0.66578 0.12353 0.05209 0.0
H626 H 0.68751 0.17598 0.04024 0.0
H627 H 0.68207 0.22427 0.01897 0.0
H628 H 0.60455 0.22465 0.97641 0.0
H629 H 0.58777 0.16876 0.98557 0.0
C630 C 0.61298 0.13358 0.01444 0.0
C631 C 0.62711 0.11864 0.03059 0.0
C632 C 0.62453 0.16439 0.00803 0.0
C633 C 0.65452 0.13411 0.0395 0.0
C634 C 0.66683 0.16435 0.03284 0.0
C635 C 0.66188 0.21181 0.01155 0.0
C636 C 0.64452 0.22841 0.99707 0.0
C637 C 0.65157 0.18008 0.01736 0.0
C638 C 0.61813 0.21231 0.98768 0.0
C639 C 0.60851 0.1804 0.99291 0.0
H640 H 0.90467 0.15468 0.27517 0.0
H641 H 0.89248 0.05144 0.29018 0.0
H642 H 0.83324 0.05514 0.28389 0.0
H643 H 0.78461 0.08739 0.27577 0.0
H644 H 0.79393 0.1913 0.26203 0.0
H645 H 0.85453 0.18764 0.26658 0.0
C646 C 0.88906 0.13301 0.27708 0.0
C647 C 0.90342 0.1027 0.28294 0.0
C648 C 0.85443 0.13544 0.2739 0.0
C649 C 0.88263 0.07487 0.28518 0.0
C650 C 0.84852 0.07701 0.28182 0.0
C651 C 0.79968 0.10942 0.27372 0.0
C652 C 0.78454 0.13964 0.26864 0.0
C653 C 0.83416 0.10717 0.27639 0.0
C654 C 0.80482 0.16771 0.26599 0.0
C655 C 0.83948 0.16561 0.26858 0.0
H656 H 0.89729 0.39597 0.54872 0.0
H657 H 0.97246 0.40221 0.50522 0.0
H658 H 0.95 0.35249 0.48967 0.0
H659 H 0.91325 0.30399 0.49069 0.0
H660 H 0.83719 0.29747 0.53373 0.0
H661 H 0.85518 0.35089 0.54714 0.0
C662 C 0.90809 0.38673 0.53559 0.0
C663 C 0.93633 0.4024 0.528 0.0
C664 C 0.89508 0.35807 0.52681 0.0
C665 C 0.95054 0.39041 0.51112 0.0
C666 C 0.93784 0.36197 0.50234 0.0
C667 C 0.90027 0.31458 0.50282 0.0
C668 C 0.87425 0.2968 0.51139 0.0
C669 C 0.91077 0.34509 0.51038 0.0
C670 C 0.85728 0.31083 0.52692 0.0
C671 C 0.86772 0.34121 0.53464 0.0
H672 H 0.6857 0.06039 0.49216 0.0
H673 H 0.65082 0.14849 0.46358 0.0
H674 H 0.70336 0.17634 0.47062 0.0
H675 H 0.76144 0.17395 0.48221 0.0
H676 H 0.79757 0.08384 0.50798 0.0
H677 H 0.74269 0.05848 0.50446 0.0
C678 C 0.68953 0.08565 0.4874 0.0
C679 C 0.6642 0.10211 0.47726 0.0
C680 C 0.7203 0.10115 0.49084 0.0
C681 C 0.66953 0.13519 0.47164 0.0
C682 C 0.69979 0.15111 0.47548 0.0
C683 C 0.75709 0.14895 0.48727 0.0
C684 C 0.78352 0.13075 0.49526 0.0
C685 C 0.72563 0.1341 0.48472 0.0
C686 C 0.77767 0.09825 0.50162 0.0
C687 C 0.74629 0.08373 0.49964 0.0
H688 H 0.96786 0.18425 0.73012 0.0
H689 H 0.86861 0.14342 0.72597 0.0
H690 H 0.84482 0.19808 0.733 0.0
H691 H 0.85247 0.25863 0.73857 0.0
H692 H 0.95279 0.29708 0.74348 0.0
H693 H 0.97552 0.24211 0.73843 0.0
C694 C 0.94101 0.18685 0.73124 0.0
C695 C 0.92022 0.15952 0.72744 0.0
C696 C 0.92752 0.21818 0.73537 0.0
C697 C 0.88539 0.16402 0.72852 0.0
C698 C 0.8717 0.1953 0.73263 0.0
C699 C 0.87926 0.25489 0.73874 0.0
C700 C 0.90071 0.2823 0.74116 0.0
C701 C 0.89255 0.22278 0.73576 0.0
C702 C 0.93545 0.27678 0.7414 0.0
C703 C 0.94865 0.24521 0.73853 0.0
H704 H 0.8554 0.41144 0.96193 0.0
H705 H 0.83078 0.50332 0.99064 0.0
H706 H 0.77619 0.48122 0.99894 0.0
H707 H 0.73409 0.43727 0.99625 0.0
H708 H 0.75967 0.34429 0.96927 0.0
H709 H 0.81576 0.3651 0.96258 0.0
C710 C 0.83853 0.42645 0.9704 0.0
C711 C 0.84718 0.45929 0.97535 0.0
C712 C 0.80731 0.41342 0.97541 0.0
C713 C 0.82458 0.47833 0.98616 0.0
C714 C 0.79338 0.46564 0.99103 0.0
C715 C 0.75208 0.42148 0.98905 0.0
C716 C 0.74273 0.38947 0.98306 0.0
C717 C 0.78423 0.4335 0.98538 0.0
C718 C 0.76635 0.36903 0.97403 0.0
C719 C 0.79833 0.38098 0.97012 0.0
H720 H 0.56727 0.34849 0.22319 0.0
H721 H 0.66053 0.40192 0.22301 0.0
H722 H 0.68958 0.35269 0.23467 0.0
H723 H 0.68868 0.29364 0.24396 0.0
H724 H 0.59459 0.24167 0.24509 0.0
H725 H 0.56572 0.29132 0.23433 0.0
C726 C 0.59383 0.34969 0.22606 0.0
C727 C 0.61163 0.37889 0.22213 0.0
C728 C 0.61033 0.32144 0.23287 0.0
C729 C 0.64622 0.37963 0.22562 0.0
C730 C 0.66287 0.35151 0.23236 0.0
C731 C 0.66187 0.29328 0.24189 0.0
C732 C 0.64387 0.26396 0.24522 0.0
C733 C 0.64524 0.32212 0.2358 0.0
C734 C 0.60908 0.26391 0.24263 0.0
C735 C 0.5925 0.29229 0.23645 0.0
H736 H 0.1613 0.94524 0.39044 0.0
H737 H 0.12242 0.02778 0.42307 0.0
H738 H 0.13314 0.99801 0.45241 0.0
H739 H 0.14959 0.9472 0.46884 0.0
H740 H 0.18557 0.86323 0.43649 0.0
H741 H 0.17933 0.89468 0.40705 0.0
C742 C 0.15512 0.95674 0.40396 0.0
C743 C 0.14107 0.98881 0.40441 0.0
C744 C 0.16043 0.93906 0.42087 0.0
C745 C 0.13381 0.00344 0.42216 0.0
C746 C 0.13957 0.98626 0.43901 0.0
C747 C 0.15622 0.9358 0.45536 0.0
C748 C 0.1678 0.90287 0.45483 0.0
C749 C 0.1523 0.95388 0.43852 0.0
C750 C 0.17641 0.88851 0.43727 0.0
C751 C 0.17288 0.90648 0.42043 0.0
H752 H 0.06322 0.64355 0.65059 0.0
H753 H 0.16648 0.62929 0.63567 0.0
H754 H 0.18377 0.65195 0.66655 0.0
H755 H 0.16891 0.66759 0.69948 0.0
H756 H 0.06531 0.67508 0.71514 0.0
H757 H 0.04857 0.66408 0.68226 0.0
C758 C 0.08952 0.64639 0.6539 0.0
C759 C 0.11358 0.63492 0.64094 0.0
C760 C 0.0991 0.65797 0.67192 0.0
C761 C 0.14758 0.638 0.6455 0.0
C762 C 0.15742 0.6508 0.66316 0.0
C763 C 0.14276 0.66774 0.69547 0.0
C764 C 0.11829 0.67224 0.70952 0.0
C765 C 0.13335 0.65969 0.67675 0.0
C766 C 0.08444 0.67173 0.70443 0.0
C767 C 0.07491 0.66529 0.6857 0.0
H768 H 0.38248 0.56493 0.895 0.0
H769 H 0.40774 0.66453 0.87828 0.0
H770 H 0.38651 0.68609 0.90856 0.0
H771 H 0.36884 0.67529 0.94159 0.0
H772 H 0.34926 0.5749 0.959 0.0
H773 H 0.35932 0.55488 0.92661 0.0
C774 C 0.38237 0.59145 0.89776 0.0
C775 C 0.39667 0.61313 0.88449 0.0
C776 C 0.37132 0.60342 0.91543 0.0
C777 C 0.39698 0.64739 0.88837 0.0
C778 C 0.38494 0.65968 0.90568 0.0
C779 C 0.36579 0.64923 0.93804 0.0
C780 C 0.35807 0.62651 0.95243 0.0
C781 C 0.3732 0.63778 0.9196 0.0
C782 C 0.35493 0.59269 0.94798 0.0
C783 C 0.3609 0.58127 0.92953 0.0
H784 H 0.41396 0.90298 0.13603 0.0
H785 H 0.50203 0.84843 0.15292 0.0
H786 H 0.47374 0.83001 0.18153 0.0
H787 H 0.42629 0.83464 0.20347 0.0
H788 H 0.33651 0.88417 0.18545 0.0
H789 H 0.36292 0.89856 0.15515 0.0
C790 C 0.42682 0.88626 0.14558 0.0
C791 C 0.46063 0.87813 0.14248 0.0
C792 C 0.41013 0.87498 0.16186 0.0
C793 C 0.47652 0.85634 0.15522 0.0
C794 C 0.46029 0.84552 0.17157 0.0
C795 C 0.41239 0.848 0.19272 0.0
C796 C 0.37981 0.85874 0.19659 0.0
C797 C 0.42753 0.85565 0.17534 0.0
C798 C 0.36169 0.8757 0.18262 0.0
C799 C 0.37685 0.88407 0.1654 0.0
H800 H 0.12588 0.63146 0.87491 0.0
H801 H 0.07108 0.55835 0.84238 0.0
H802 H 0.08789 0.58471 0.81299 0.0
H803 H 0.11498 0.62988 0.79651 0.0
H804 H 0.17008 0.70393 0.82794 0.0
H805 H 0.15601 0.67605 0.85782 0.0
C806 C 0.11781 0.62127 0.86137 0.0
C807 C 0.09743 0.59279 0.86091 0.0
C808 C 0.12727 0.63687 0.84436 0.0
C809 C 0.08731 0.57977 0.84323 0.0
C810 C 0.09662 0.59504 0.82637 0.0
C811 C 0.12412 0.63994 0.80985 0.0
C812 C 0.14332 0.66904 0.81003 0.0
C813 C 0.11615 0.62378 0.82678 0.0
C814 C 0.15513 0.68156 0.82746 0.0
C815 C 0.14708 0.66565 0.84452 0.0
H816 H 0.4064 0.63299 0.11741 0.0
H817 H 0.47915 0.57895 0.08418 0.0
H818 H 0.45101 0.59491 0.05505 0.0
H819 H 0.40486 0.62187 0.03893 0.0
H820 H 0.33101 0.67588 0.07118 0.0
H821 H 0.36029 0.66208 0.10077 0.0
C822 C 0.41607 0.62483 0.10378 0.0
C823 C 0.44506 0.60507 0.10303 0.0
C824 C 0.39948 0.63386 0.08691 0.0
C825 C 0.45735 0.59477 0.08522 0.0
C826 C 0.4411 0.60362 0.06851 0.0
C827 C 0.39516 0.63079 0.0524 0.0
C828 C 0.36574 0.6497 0.05288 0.0
C829 C 0.41206 0.62287 0.0692 0.0
C830 C 0.35363 0.66119 0.07046 0.0
C831 C 0.37034 0.65328 0.08736 0.0
H832 H 0.40767 0.91776 0.36293 0.0
H833 H 0.47711 0.9874 0.33867 0.0
H834 H 0.46669 0.96482 0.30707 0.0
H835 H 0.43893 0.9252 0.28638 0.0
H836 H 0.36772 0.8561 0.30939 0.0
H837 H 0.37753 0.87863 0.34141 0.0
C838 C 0.42035 0.9279 0.35067 0.0
C839 C 0.44295 0.95432 0.35308 0.0
C840 C 0.41398 0.91494 0.33237 0.0
C841 C 0.45925 0.96739 0.33712 0.0
C842 C 0.45346 0.9544 0.31906 0.0
C843 C 0.42557 0.91492 0.29838 0.0
C844 C 0.40294 0.88877 0.29554 0.0
C845 C 0.43102 0.92817 0.31654 0.0
C846 C 0.38536 0.87622 0.31122 0.0
C847 C 0.39102 0.88904 0.32951 0.0
H848 H 0.09575 0.89559 0.61495 0.0
H849 H 0.14699 0.98916 0.62108 0.0
H850 H 0.17782 0.97847 0.59184 0.0
H851 H 0.18429 0.94642 0.5624 0.0
H852 H 0.13365 0.8527 0.55584 0.0
H853 H 0.10879 0.85929 0.58745 0.0
C854 C 0.11411 0.9133 0.61001 0.0
C855 C 0.11886 0.94325 0.62005 0.0
C856 C 0.13157 0.90713 0.59303 0.0
C857 C 0.14301 0.96585 0.61368 0.0
C858 C 0.16044 0.9599 0.59686 0.0
C859 C 0.16827 0.92716 0.56806 0.0
C860 C 0.16035 0.89939 0.55677 0.0
C861 C 0.15405 0.93121 0.58611 0.0
C862 C 0.14005 0.87433 0.56431 0.0
C863 C 0.12565 0.87822 0.5823 0.0
H864 H 0.62063 0.39939 0.87714 0.0
H865 H 0.57703 0.47725 0.91148 0.0
H866 H 0.59326 0.44826 0.94029 0.0
H867 H 0.61667 0.39956 0.95579 0.0
H868 H 0.66033 0.321 0.92213 0.0
H869 H 0.64695 0.35133 0.89298 0.0
C870 C 0.61483 0.41001 0.89094 0.0
C871 C 0.59773 0.44051 0.89212 0.0
C872 C 0.62393 0.39297 0.90756 0.0
C873 C 0.59066 0.45413 0.91012 0.0
C874 C 0.59964 0.43741 0.92664 0.0
C875 C 0.62341 0.38907 0.9421 0.0
C876 C 0.63919 0.35798 0.94109 0.0
C877 C 0.61582 0.40664 0.92552 0.0
C878 C 0.64803 0.34489 0.92325 0.0
C879 C 0.64037 0.3622 0.9066 0.0
H880 H 0.6075 0.11685 0.14583 0.0
H881 H 0.69466 0.05497 0.13851 0.0
H882 H 0.71752 0.07565 0.16841 0.0
H883 H 0.70852 0.10459 0.19884 0.0
H884 H 0.62329 0.16867 0.20567 0.0
H885 H 0.60414 0.15446 0.17349 0.0
C886 C 0.63199 0.10867 0.15041 0.0
C887 C 0.64883 0.08358 0.1402 0.0
C888 C 0.64514 0.12079 0.16762 0.0
C889 C 0.68062 0.07343 0.14641 0.0
C890 C 0.69379 0.08529 0.16349 0.0
C891 C 0.68623 0.11602 0.19301 0.0
C892 C 0.66705 0.13727 0.20444 0.0
C893 C 0.67558 0.10783 0.17459 0.0
C894 C 0.63833 0.15224 0.19694 0.0
C895 C 0.62733 0.14395 0.17865 0.0
H896 H 0.93496 0.1058 0.40151 0.0
H897 H 0.93338 0.20165 0.37467 0.0
H898 H 0.90351 0.22521 0.40202 0.0
H899 H 0.88309 0.21944 0.43498 0.0
H900 H 0.8905 0.12447 0.46263 0.0
H901 H 0.91234 0.09941 0.43353 0.0
C902 C 0.92736 0.13166 0.4015 0.0
C903 C 0.93603 0.15198 0.38615 0.0
C904 C 0.91148 0.14516 0.4175 0.0
C905 C 0.92681 0.18563 0.3864 0.0
C906 C 0.90986 0.19905 0.40202 0.0
C907 C 0.88896 0.19316 0.43444 0.0
C908 C 0.88529 0.17375 0.45083 0.0
C909 C 0.90281 0.17923 0.41786 0.0
C910 C 0.89335 0.13985 0.45017 0.0
C911 C 0.90584 0.12554 0.43356 0.0
H912 H 0.91076 0.4049 0.63366 0.0
H913 H 0.98649 0.45198 0.66817 0.0
H914 H 0.95818 0.43429 0.69691 0.0
H915 H 0.91069 0.40827 0.71236 0.0
H916 H 0.834 0.36144 0.67858 0.0
H917 H 0.86381 0.37631 0.64945 0.0
C918 C 0.92104 0.41119 0.64748 0.0
C919 C 0.9508 0.42961 0.64872 0.0
C920 C 0.90439 0.40118 0.66408 0.0
C921 C 0.96397 0.43734 0.66675 0.0
C922 C 0.94765 0.42748 0.68324 0.0
C923 C 0.90053 0.40113 0.69864 0.0
C924 C 0.8701 0.384 0.6976 0.0
C925 C 0.9177 0.40976 0.68207 0.0
C926 C 0.8574 0.37472 0.67973 0.0
C927 C 0.87439 0.38327 0.66309 0.0
H928 H 0.63741 0.07446 0.35794 0.0
H929 H 0.63373 0.17007 0.38566 0.0
H930 H 0.65514 0.19652 0.35684 0.0
H931 H 0.66948 0.19276 0.32281 0.0
H932 H 0.66867 0.09718 0.29483 0.0
H933 H 0.65487 0.07026 0.32477 0.0
C934 C 0.64212 0.10098 0.35782 0.0
C935 C 0.63426 0.12033 0.37387 0.0
C936 C 0.65327 0.11599 0.34109 0.0
C937 C 0.63968 0.15475 0.37342 0.0
C938 C 0.65178 0.16983 0.35696 0.0
C939 C 0.66673 0.166 0.32337 0.0
C940 C 0.66988 0.14697 0.30666 0.0
C941 C 0.65783 0.15078 0.34055 0.0
C942 C 0.66609 0.11237 0.3075 0.0
C943 C 0.65821 0.09696 0.3246 0.0
H944 H 0.89778 0.14512 0.61885 0.0
H945 H 0.00281 0.13653 0.60672 0.0
H946 H 0.99344 0.15663 0.57445 0.0
H947 H 0.9542 0.16854 0.54848 0.0
H948 H 0.84944 0.17948 0.5606 0.0
H949 H 0.85973 0.16705 0.59417 0.0
C950 C 0.91861 0.14853 0.60924 0.0
C951 C 0.95085 0.13922 0.61499 0.0
C952 C 0.91301 0.16012 0.5907 0.0
C953 C 0.97781 0.14376 0.60256 0.0
C954 C 0.97243 0.15496 0.58408 0.0
C955 C 0.93382 0.16893 0.55861 0.0
C956 C 0.90113 0.17444 0.55221 0.0
C957 C 0.93999 0.16201 0.57781 0.0
C958 C 0.87482 0.1753 0.56534 0.0
C959 C 0.88068 0.16796 0.58446 0.0
H960 H 0.87701 0.40746 0.86669 0.0
H961 H 0.88658 0.51076 0.85185 0.0
H962 H 0.8711 0.49812 0.8191 0.0
H963 H 0.86279 0.45674 0.79384 0.0
H964 H 0.85136 0.35363 0.80822 0.0
H965 H 0.85933 0.36699 0.842 0.0
C966 C 0.87496 0.4272 0.85634 0.0
C967 C 0.88312 0.45993 0.86163 0.0
C968 C 0.86612 0.41972 0.83743 0.0
C969 C 0.88018 0.48541 0.84816 0.0
C970 C 0.87163 0.47817 0.82938 0.0
C971 C 0.8613 0.43739 0.80447 0.0
C972 C 0.85685 0.40432 0.79872 0.0
C973 C 0.86571 0.44531 0.82374 0.0
C974 C 0.85467 0.37931 0.81246 0.0
C975 C 0.85947 0.38692 0.83171 0.0
H976 H 0.63161 0.38232 0.10885 0.0
H977 H 0.52588 0.38879 0.0982 0.0
H978 H 0.53392 0.36716 0.06603 0.0
H979 H 0.57209 0.3553 0.03951 0.0
H980 H 0.67759 0.34675 0.05012 0.0
H981 H 0.66874 0.35983 0.08381 0.0
C982 C 0.61034 0.37806 0.0996 0.0
C983 C 0.57827 0.38731 0.10572 0.0
C984 C 0.61519 0.36566 0.0811 0.0
C985 C 0.55076 0.38164 0.09376 0.0
C986 C 0.55538 0.36958 0.07533 0.0
C987 C 0.59294 0.35542 0.04937 0.0
C988 C 0.6254 0.35045 0.0425 0.0
C989 C 0.5876 0.36281 0.06863 0.0
C990 C 0.65237 0.35042 0.05524 0.0
C991 C 0.64733 0.35816 0.07443 0.0
loop_
_geom_bond_atom_site_label_1
_geom_bond_atom_site_label_2
_geom_bond_distance
_geom_bond_site_symmetry_2
_ccdc_geom_bond_type
C0 C1 1.384 . S
C0 C2 1.384 . S
C0 H28 0.931 . S
C1 C0 1.384 . S
C1 C4 1.382 . S
C2 C0 1.384 . S
C2 C3 1.381 . S
C2 H29 0.930 . S
C3 C2 1.381 . S
C3 C5 1.381 1_565 S
C3 C6 1.487 1_565 S
C4 C1 1.382 . S
C4 C5 1.387 1_565 S
C4 H30 0.930 1_565 S
C5 C3 1.381 1_545 S
C5 C4 1.387 1_545 S
C5 H31 0.931 . S
C6 C3 1.487 1_545 S
C6 C13 1.399 . S
C6 N44 1.343 . S
C7 C8 1.384 . S
C7 C9 1.384 . S
C7 H32 0.931 . S
C8 C7 1.384 . S
C8 C11 1.382 . S
C9 C7 1.384 . S
C9 C10 1.381 . S
C9 H33 0.930 1_565 S
C10 C9 1.381 . S
C10 C12 1.381 . S
C10 C13 1.487 1_565 S
C11 C8 1.382 . S
C11 C12 1.387 . S
C11 H34 0.930 . S
C12 C10 1.381 . S
C12 C11 1.387 . S
C12 H35 0.931 . S
C13 C6 1.399 . S
C13 C10 1.487 1_545 S
C13 N45 1.343 . S
C14 C15 1.384 . S
C14 C16 1.384 . S
C14 H36 0.931 . S
C15 C14 1.384 . S
C15 C18 1.382 . S
C16 C14 1.384 . S
C16 C17 1.381 . S
C16 H37 0.930 . S
C17 C16 1.381 . S
C17 C19 1.381 . S
C17 C20 1.487 1_655 S
C18 C15 1.382 . S
C18 C19 1.387 . S
C18 H38 0.930 . S
C19 C17 1.381 . S
C19 C18 1.387 . S
C19 H39 0.931 . S
C20 C17 1.487 1_455 S
C20 C27 1.399 . S
C20 N45 1.343 . S
C21 C22 1.384 . S
C21 C23 1.384 . S
C21 H40 0.931 . S
C22 C21 1.384 . S
C22 C25 1.382 . S
C23 C21 1.384 . S
C23 C24 1.381 . S
C23 H41 0.930 . S
C24 C23 1.381 . S
C24 C26 1.381 1_655 S
C24 C27 1.487 1_655 S
C25 C22 1.382 . S
C25 C26 1.387 1_655 S
C25 H42 0.930 . S
C26 C24 1.381 1_455 S
C26 C25 1.387 1_455 S
C26 H43 0.931 . S
C27 C20 1.399 . S
C27 C24 1.487 1_455 S
C27 N44 1.343 . S
H28 C0 0.931 . S
H29 C2 0.930 . S
H30 C4 0.930 1_545 S
H31 C5 0.931 . S
H32 C7 0.931 . S
H33 C9 0.930 1_545 S
H34 C11 0.930 . S
H35 C12 0.931 . S
H36 C14 0.931 . S
H37 C16 0.930 . S
H38 C18 0.930 . S
H39 C19 0.931 . S
H40 C21 0.931 . S
H41 C23 0.930 . S
H42 C25 0.930 . S
H43 C26 0.931 . S
N44 C6 1.343 . S
N44 C27 1.343 . S
N45 C13 1.343 . S
N45 C20 1.343 . S
C46 C47 1.384 . S
C46 C48 1.384 . S
C46 H74 0.931 . S
C47 C46 1.384 . S
C47 C50 1.382 . S
C48 C46 1.384 . S
C48 C49 1.381 . S
C48 H75 0.930 . S
C49 C48 1.381 . S
C49 C51 1.381 . S
C49 C52 1.487 . S
C50 C47 1.382 . S
C50 C51 1.387 . S
C50 H76 0.930 . S
C51 C49 1.381 . S
C51 C50 1.387 . S
C51 H77 0.931 1_655 S
C52 C49 1.487 . S
C52 C59 1.399 . S
C52 N90 1.343 1_655 S
C53 C54 1.384 . S
C53 C55 1.384 . S
C53 H78 0.931 . S
C54 C53 1.384 . S
C54 C57 1.382 . S
C55 C53 1.384 . S
C55 C56 1.381 . S
C55 H79 0.930 . S
C56 C55 1.381 . S
C56 C58 1.381 . S
C56 C59 1.487 . S
C57 C54 1.382 . S
C57 C58 1.387 . S
C57 H80 0.930 . S
C58 C56 1.381 . S
C58 C57 1.387 . S
C58 H81 0.931 . S
C59 C52 1.399 . S
C59 C56 1.487 . S
C59 N91 1.343 1_655 S
C60 C61 1.384 . S
C60 C62 1.384 . S
C60 H82 0.931 . S
C61 C60 1.384 . S
C61 C64 1.382 . S
C62 C60 1.384 . S
C62 C63 1.381 . S
C62 H83 0.930 . S
C63 C62 1.381 . S
C63 C65 1.381 . S
C63 C66 1.487 . S
C64 C61 1.382 . S
C64 C65 1.387 . S
C64 H84 0.930 . S
C65 C63 1.381 . S
C65 C64 1.387 . S
C65 H85 0.931 . S
C66 C63 1.487 . S
C66 C73 1.399 . S
C66 N91 1.343 . S
C67 C68 1.384 . S
C67 C69 1.384 . S
C67 H86 0.931 . S
C68 C67 1.384 . S
C68 C71 1.382 . S
C69 C67 1.384 . S
C69 C70 1.381 . S
C69 H87 0.930 . S
C70 C69 1.381 . S
C70 C72 1.381 . S
C70 C73 1.487 . S
C71 C68 1.382 . S
C71 C72 1.387 . S
C71 H88 0.930 . S
C72 C70 1.381 . S
C72 C71 1.387 . S
C72 H89 0.931 . S
C73 C66 1.399 . S
C73 C70 1.487 . S
C73 N90 1.343 . S
H74 C46 0.931 . S
H75 C48 0.930 . S
H76 C50 0.930 . S
H77 C51 0.931 1_455 S
H78 C53 0.931 . S
H79 C55 0.930 . S
H80 C57 0.930 . S
H81 C58 0.931 . S
H82 C60 0.931 . S
H83 C62 0.930 . S
H84 C64 0.930 . S
H85 C65 0.931 . S
H86 C67 0.931 . S
H87 C69 0.930 . S
H88 C71 0.930 . S
H89 C72 0.931 . S
N90 C52 1.343 1_455 S
N90 C73 1.343 . S
N91 C59 1.343 1_455 S
N91 C66 1.343 . S
C92 C93 1.384 . S
C92 C94 1.384 . S
C92 H120 0.931 . S
C93 C92 1.384 . S
C93 C96 1.382 . S
C94 C92 1.384 . S
C94 C95 1.381 . S
C94 H121 0.930 . S
C95 C94 1.381 . S
C95 C97 1.381 . S
C95 C98 1.487 . S
C96 C93 1.382 . S
C96 C97 1.387 . S
C96 H122 0.930 . S
C97 C95 1.381 . S
C97 C96 1.387 . S
C97 H123 0.931 . S
C98 C95 1.487 . S
C98 C105 1.399 . S
C98 N136 1.343 . S
C99 C100 1.384 . S
C99 C101 1.384 . S
C99 H124 0.931 . S
C100 C99 1.384 . S
C100 C103 1.382 . S
C101 C99 1.384 . S
C101 C102 1.381 . S
C101 H125 0.930 . S
C102 C101 1.381 . S
C102 C104 1.381 . S
C102 C105 1.487 . S
C103 C100 1.382 . S
C103 C104 1.387 . S
C103 H126 0.930 . S
C104 C102 1.381 . S
C104 C103 1.387 . S
C104 H127 0.931 . S
C105 C98 1.399 . S
C105 C102 1.487 . S
C105 N137 1.343 . S
C106 C107 1.384 . S
C106 C108 1.384 . S
C106 H128 0.931 . S
C107 C106 1.384 . S
C107 C110 1.382 . S
C108 C106 1.384 . S
C108 C109 1.381 . S
C108 H129 0.930 . S
C109 C108 1.381 . S
C109 C111 1.381 . S
C109 C112 1.487 . S
C110 C107 1.382 . S
C110 C111 1.387 . S
C110 H130 0.930 . S
C111 C109 1.381 . S
C111 C110 1.387 . S
C111 H131 0.931 . S
C112 C109 1.487 . S
C112 C119 1.399 . S
C112 N137 1.343 . S
C113 C114 1.384 . S
C113 C115 1.384 . S
C113 H132 0.931 . S
C114 C113 1.384 . S
C114 C117 1.382 . S
C115 C113 1.384 . S
C115 C116 1.381 . S
C115 H133 0.930 . S
C116 C115 1.381 . S
C116 C118 1.381 . S
C116 C119 1.487 . S
C117 C114 1.382 . S
C117 C118 1.387 . S
C117 H134 0.930 . S
C118 C116 1.381 . S
C118 C117 1.387 . S
C118 H135 0.931 . S
C119 C112 1.399 . S
C119 C116 1.487 . S
C119 N136 1.343 . S
H120 C92 0.931 . S
H121 C94 0.930 . S
H122 C96 0.930 . S
H123 C97 0.931 . S
H124 C99 0.931 . S
H125 C101 0.930 . S
H126 C103 0.930 . S
H127 C104 0.931 . S
H128 C106 0.931 . S
H129 C108 0.930 . S
H130 C110 0.930 . S
H131 C111 0.931 . S
H132 C113 0.931 . S
H133 C115 0.930 . S
H134 C117 0.930 . S
H135 C118 0.931 . S
N136 C98 1.343 . S
N136 C119 1.343 . S
N137 C105 1.343 . S
N137 C112 1.343 . S
C138 C139 1.384 . S
C138 C140 1.384 . S
C138 H166 0.931 . S
C139 C138 1.384 . S
C139 C142 1.382 . S
C140 C138 1.384 . S
C140 C141 1.381 . S
C140 H167 0.930 . S
C141 C140 1.381 . S
C141 C143 1.381 . S
C141 C144 1.487 . S
C142 C139 1.382 . S
C142 C143 1.387 . S
C142 H168 0.930 . S
C143 C141 1.381 . S
C143 C142 1.387 . S
C143 H169 0.931 . S
C144 C141 1.487 . S
C144 C151 1.399 . S
C144 N182 1.343 1_565 S
C145 C146 1.384 . S
C145 C147 1.384 . S
C145 H170 0.931 . S
C146 C145 1.384 . S
C146 C149 1.382 . S
C147 C145 1.384 . S
C147 C148 1.381 . S
C147 H171 0.930 . S
C148 C147 1.381 . S
C148 C150 1.381 . S
C148 C151 1.487 . S
C149 C146 1.382 . S
C149 C150 1.387 . S
C149 H172 0.930 . S
C150 C148 1.381 . S
C150 C149 1.387 . S
C150 H173 0.931 . S
C151 C144 1.399 . S
C151 C148 1.487 . S
C151 N183 1.343 . S
C152 C153 1.384 . S
C152 C154 1.384 . S
C152 H174 0.931 . S
C153 C152 1.384 . S
C153 C156 1.382 . S
C154 C152 1.384 . S
C154 C155 1.381 . S
C154 H175 0.930 . S
C155 C154 1.381 . S
C155 C157 1.381 . S
C155 C158 1.487 . S
C156 C153 1.382 . S
C156 C157 1.387 . S
C156 H176 0.930 . S
C157 C155 1.381 . S
C157 C156 1.387 . S
C157 H177 0.931 . S
C158 C155 1.487 . S
C158 C165 1.399 . S
C158 N183 1.343 1_545 S
C159 C160 1.384 . S
C159 C161 1.384 . S
C159 H178 0.931 . S
C160 C159 1.384 . S
C160 C163 1.382 . S
C161 C159 1.384 . S
C161 C162 1.381 . S
C161 H179 0.930 . S
C162 C161 1.381 . S
C162 C164 1.381 . S
C162 C165 1.487 . S
C163 C160 1.382 . S
C163 C164 1.387 . S
C163 H180 0.930 . S
C164 C162 1.381 . S
C164 C163 1.387 . S
C164 H181 0.931 . S
C165 C158 1.399 . S
C165 C162 1.487 . S
C165 N182 1.343 . S
H166 C138 0.931 . S
H167 C140 0.930 . S
H168 C142 0.930 . S
H169 C143 0.931 . S
H170 C145 0.931 . S
H171 C147 0.930 . S
H172 C149 0.930 . S
H173 C150 0.931 . S
H174 C152 0.931 . S
H175 C154 0.930 . S
H176 C156 0.930 . S
H177 C157 0.931 . S
H178 C159 0.931 . S
H179 C161 0.930 . S
H180 C163 0.930 . S
H181 C164 0.931 . S
N182 C144 1.343 1_545 S
N182 C165 1.343 . S
N183 C151 1.343 . S
N183 C158 1.343 1_565 S
C184 C185 1.384 . S
C184 C186 1.384 . S
C184 H212 0.931 . S
C185 C184 1.384 . S
C185 C188 1.382 . S
C186 C184 1.384 . S
C186 C187 1.381 . S
C186 H213 0.930 . S
C187 C186 1.381 . S
C187 C189 1.381 . S
C187 C190 1.487 . S
C188 C185 1.382 . S
C188 C189 1.387 . S
C188 H214 0.930 . S
C189 C187 1.381 . S
C189 C188 1.387 . S
C189 H215 0.931 . S
C190 C187 1.487 . S
C190 C197 1.399 . S
C190 N228 1.343 . S
C191 C192 1.384 . S
C191 C193 1.384 . S
C191 H216 0.931 . S
C192 C191 1.384 . S
C192 C195 1.382 . S
C193 C191 1.384 . S
C193 C194 1.381 . S
C193 H217 0.930 . S
C194 C193 1.381 . S
C194 C196 1.381 . S
C194 C197 1.487 . S
C195 C192 1.382 . S
C195 C196 1.387 . S
C195 H218 0.930 . S
C196 C194 1.381 . S
C196 C195 1.387 . S
C196 H219 0.931 . S
C197 C190 1.399 . S
C197 C194 1.487 . S
C197 N229 1.343 1_455 S
C198 C199 1.384 . S
C198 C200 1.384 . S
C198 H220 0.931 . S
C199 C198 1.384 . S
C199 C202 1.382 . S
C200 C198 1.384 . S
C200 C201 1.381 . S
C200 H221 0.930 . S
C201 C200 1.381 . S
C201 C203 1.381 . S
C201 C204 1.487 . S
C202 C199 1.382 . S
C202 C203 1.387 . S
C202 H222 0.930 . S
C203 C201 1.381 . S
C203 C202 1.387 . S
C203 H223 0.931 . S
C204 C201 1.487 . S
C204 C211 1.399 . S
C204 N229 1.343 . S
C205 C206 1.384 . S
C205 C207 1.384 . S
C205 H224 0.931 . S
C206 C205 1.384 . S
C206 C209 1.382 . S
C207 C205 1.384 . S
C207 C208 1.381 . S
C207 H225 0.930 . S
C208 C207 1.381 . S
C208 C210 1.381 . S
C208 C211 1.487 . S
C209 C206 1.382 . S
C209 C210 1.387 . S
C209 H226 0.930 . S
C210 C208 1.381 . S
C210 C209 1.387 . S
C210 H227 0.931 . S
C211 C204 1.399 . S
C211 C208 1.487 . S
C211 N228 1.343 1_655 S
H212 C184 0.931 . S
H213 C186 0.930 . S
H214 C188 0.930 . S
H215 C189 0.931 . S
H216 C191 0.931 . S
H217 C193 0.930 . S
H218 C195 0.930 . S
H219 C196 0.931 . S
H220 C198 0.931 . S
H221 C200 0.930 . S
H222 C202 0.930 . S
H223 C203 0.931 . S
H224 C205 0.931 . S
H225 C207 0.930 . S
H226 C209 0.930 . S
H227 C210 0.931 . S
N228 C190 1.343 . S
N228 C211 1.343 1_455 S
N229 C197 1.343 1_655 S
N229 C204 1.343 . S
C230 C231 1.384 . S
C230 C232 1.384 . S
C230 H258 0.931 . S
C231 C230 1.384 . S
C231 C234 1.382 . S
C232 C230 1.384 . S
C232 C233 1.381 . S
C232 H259 0.930 . S
C233 C232 1.381 . S
C233 C235 1.381 . S
C233 C236 1.487 . S
C234 C231 1.382 . S
C234 C235 1.387 . S
C234 H260 0.930 . S
C235 C233 1.381 . S
C235 C234 1.387 . S
C235 H261 0.931 . S
C236 C233 1.487 . S
C236 C243 1.399 . S
C236 N274 1.343 . S
C237 C238 1.384 . S
C237 C239 1.384 . S
C237 H262 0.931 . S
C238 C237 1.384 . S
C238 C241 1.382 . S
C239 C237 1.384 . S
C239 C240 1.381 . S
C239 H263 0.930 . S
C240 C239 1.381 . S
C240 C242 1.381 . S
C240 C243 1.487 . S
C241 C238 1.382 . S
C241 C242 1.387 . S
C241 H264 0.930 . S
C242 C240 1.381 . S
C242 C241 1.387 . S
C242 H265 0.931 . S
C243 C236 1.399 . S
C243 C240 1.487 . S
C243 N275 1.343 . S
C244 C245 1.384 . S
C244 C246 1.384 . S
C244 H266 0.931 . S
C245 C244 1.384 . S
C245 C248 1.382 . S
C246 C244 1.384 . S
C246 C247 1.381 . S
C246 H267 0.930 . S
C247 C246 1.381 . S
C247 C249 1.381 . S
C247 C250 1.487 . S
C248 C245 1.382 . S
C248 C249 1.387 . S
C248 H268 0.930 . S
C249 C247 1.381 . S
C249 C248 1.387 . S
C249 H269 0.931 . S
C250 C247 1.487 . S
C250 C257 1.399 . S
C250 N275 1.343 . S
C251 C252 1.384 . S
C251 C253 1.384 . S
C251 H270 0.931 . S
C252 C251 1.384 . S
C252 C255 1.382 . S
C253 C251 1.384 . S
C253 C254 1.381 . S
C253 H271 0.930 . S
C254 C253 1.381 . S
C254 C256 1.381 . S
C254 C257 1.487 . S
C255 C252 1.382 . S
C255 C256 1.387 . S
C255 H272 0.930 . S
C256 C254 1.381 . S
C256 C255 1.387 . S
C256 H273 0.931 . S
C257 C250 1.399 . S
C257 C254 1.487 . S
C257 N274 1.343 . S
H258 C230 0.931 . S
H259 C232 0.930 . S
H260 C234 0.930 . S
H261 C235 0.931 . S
H262 C237 0.931 . S
H263 C239 0.930 . S
H264 C241 0.930 . S
H265 C242 0.931 . S
H266 C244 0.931 . S
H267 C246 0.930 . S
H268 C248 0.930 . S
H269 C249 0.931 . S
H270 C251 0.931 . S
H271 C253 0.930 . S
H272 C255 0.930 . S
H273 C256 0.931 . S
N274 C236 1.343 . S
N274 C257 1.343 . S
N275 C243 1.343 . S
N275 C250 1.343 . S
C276 C277 1.384 . S
C276 C278 1.384 . S
C276 H304 0.931 . S
C277 C276 1.384 . S
C277 C280 1.382 . S
C278 C276 1.384 . S
C278 C279 1.381 . S
C278 H305 0.930 . S
C279 C278 1.381 . S
C279 C281 1.381 . S
C279 C282 1.487 . S
C280 C277 1.382 . S
C280 C281 1.387 . S
C280 H306 0.930 . S
C281 C279 1.381 . S
C281 C280 1.387 . S
C281 H307 0.931 1_565 S
C282 C279 1.487 . S
C282 C289 1.399 . S
C282 N320 1.343 1_565 S
C283 C284 1.384 . S
C283 C285 1.384 . S
C283 H308 0.931 . S
C284 C283 1.384 . S
C284 C287 1.382 . S
C285 C283 1.384 . S
C285 C286 1.381 . S
C285 H309 0.930 . S
C286 C285 1.381 . S
C286 C288 1.381 . S
C286 C289 1.487 . S
C287 C284 1.382 . S
C287 C288 1.387 . S
C287 H310 0.930 . S
C288 C286 1.381 . S
C288 C287 1.387 . S
C288 H311 0.931 . S
C289 C282 1.399 . S
C289 C286 1.487 . S
C289 N321 1.343 1_565 S
C290 C291 1.384 . S
C290 C292 1.384 . S
C290 H312 0.931 . S
C291 C290 1.384 . S
C291 C294 1.382 . S
C292 C290 1.384 . S
C292 C293 1.381 . S
C292 H313 0.930 . S
C293 C292 1.381 . S
C293 C295 1.381 . S
C293 C296 1.487 . S
C294 C291 1.382 . S
C294 C295 1.387 . S
C294 H314 0.930 . S
C295 C293 1.381 . S
C295 C294 1.387 . S
C295 H315 0.931 . S
C296 C293 1.487 . S
C296 C303 1.399 . S
C296 N321 1.343 . S
C297 C298 1.384 . S
C297 C299 1.384 . S
C297 H316 0.931 . S
C298 C297 1.384 . S
C298 C301 1.382 . S
C299 C297 1.384 . S
C299 C300 1.381 . S
C299 H317 0.930 . S
C300 C299 1.381 . S
C300 C302 1.381 . S
C300 C303 1.487 . S
C301 C298 1.382 . S
C301 C302 1.387 . S
C301 H318 0.930 . S
C302 C300 1.381 . S
C302 C301 1.387 . S
C302 H319 0.931 . S
C303 C296 1.399 . S
C303 C300 1.487 . S
C303 N320 1.343 . S
H304 C276 0.931 . S
H305 C278 0.930 . S
H306 C280 0.930 . S
H307 C281 0.931 1_545 S
H308 C283 0.931 . S
H309 C285 0.930 . S
H310 C287 0.930 . S
H311 C288 0.931 . S
H312 C290 0.931 . S
H313 C292 0.930 . S
H314 C294 0.930 . S
H315 C295 0.931 . S
H316 C297 0.931 . S
H317 C299 0.930 . S
H318 C301 0.930 . S
H319 C302 0.931 . S
N320 C282 1.343 1_545 S
N320 C303 1.343 . S
N321 C289 1.343 1_545 S
N321 C296 1.343 . S
C322 C323 1.384 . S
C322 C324 1.384 . S
C322 H350 0.931 . S
C323 C322 1.384 . S
C323 C326 1.382 . S
C324 C322 1.384 . S
C324 C325 1.381 . S
C324 H351 0.930 . S
C325 C324 1.381 . S
C325 C327 1.381 . S
C325 C328 1.487 1_565 S
C326 C323 1.382 . S
C326 C327 1.387 . S
C326 H352 0.930 . S
C327 C325 1.381 . S
C327 C326 1.387 . S
C327 H353 0.931 . S
C328 C325 1.487 1_545 S
C328 C335 1.399 . S
C328 N366 1.343 . S
C329 C330 1.384 . S
C329 C331 1.384 . S
C329 H354 0.931 . S
C330 C329 1.384 . S
C330 C333 1.382 . S
C331 C329 1.384 . S
C331 C332 1.381 . S
C331 H355 0.930 . S
C332 C331 1.381 . S
C332 C334 1.381 1_565 S
C332 C335 1.487 1_565 S
C333 C330 1.382 . S
C333 C334 1.387 1_565 S
C333 H356 0.930 . S
C334 C332 1.381 1_545 S
C334 C333 1.387 1_545 S
C334 H357 0.931 . S
C335 C328 1.399 . S
C335 C332 1.487 1_545 S
C335 N367 1.343 . S
C336 C337 1.384 . S
C336 C338 1.384 . S
C336 H358 0.931 . S
C337 C336 1.384 . S
C337 C340 1.382 . S
C338 C336 1.384 . S
C338 C339 1.381 . S
C338 H359 0.930 . S
C339 C338 1.381 . S
C339 C341 1.381 1_655 S
C339 C342 1.487 1_655 S
C340 C337 1.382 . S
C340 C341 1.387 1_655 S
C340 H360 0.930 1_655 S
C341 C339 1.381 1_455 S
C341 C340 1.387 1_455 S
C341 H361 0.931 . S
C342 C339 1.487 1_455 S
C342 C349 1.399 . S
C342 N367 1.343 . S
C343 C344 1.384 . S
C343 C345 1.383 . S
C343 H362 0.931 . S
C344 C343 1.384 . S
C344 C347 1.382 . S
C345 C343 1.383 . S
C345 C346 1.381 . S
C345 H363 0.931 1_655 S
C346 C345 1.381 . S
C346 C348 1.381 . S
C346 C349 1.487 1_655 S
C347 C344 1.382 . S
C347 C348 1.387 . S
C347 H364 0.930 . S
C348 C346 1.381 . S
C348 C347 1.387 . S
C348 H365 0.931 . S
C349 C342 1.399 . S
C349 C346 1.487 1_455 S
C349 N366 1.343 . S
H350 C322 0.931 . S
H351 C324 0.930 . S
H352 C326 0.930 . S
H353 C327 0.931 . S
H354 C329 0.931 . S
H355 C331 0.930 . S
H356 C333 0.930 . S
H357 C334 0.931 . S
H358 C336 0.931 . S
H359 C338 0.930 . S
H360 C340 0.930 1_455 S
H361 C341 0.931 . S
H362 C343 0.931 . S
H363 C345 0.931 1_455 S
H364 C347 0.930 . S
H365 C348 0.931 . S
N366 C328 1.343 . S
N366 C349 1.343 . S
N367 C335 1.343 . S
N367 C342 1.343 . S
Co368 O369 2.216 . S
Co368 O370 2.091 . S
Co368 O372 2.004 . S
Co368 O378 2.021 1_554 S
Co368 O380 2.137 . S
Co368 O381 2.244 . S
O369 Co368 2.216 . S
O369 C376 1.245 1_554 S
O370 Co368 2.091 . S
O370 C376 1.260 1_554 S
C371 O380 1.247 . S
C371 O381 1.272 . S
O372 Co368 2.004 . S
O372 C377 1.259 . S
Co373 O374 2.061 . S
Co373 O379 2.052 1_554 S
Co373 O381 2.135 . S
O374 Co373 2.061 . S
O374 C377 1.235 . S
C375 O378 1.238 . S
C375 O379 1.241 . S
C376 O369 1.245 1_556 S
C376 O370 1.260 1_556 S
C377 O372 1.259 . S
C377 O374 1.235 . S
O378 Co368 2.021 1_556 S
O378 C375 1.238 . S
O379 Co373 2.052 1_556 S
O379 C375 1.241 . S
O380 Co368 2.137 . S
O380 C371 1.247 . S
O381 Co368 2.244 . S
O381 C371 1.272 . S
O381 Co373 2.135 . S
Co382 O383 2.216 . S
Co382 O384 2.091 . S
Co382 O386 2.004 . S
Co382 O392 2.021 . S
Co382 O394 2.137 . S
Co382 O395 2.244 . S
O383 Co382 2.216 . S
O383 C390 1.247 . S
O384 Co382 2.091 . S
O384 C390 1.261 . S
C385 O394 1.247 . S
C385 O395 1.272 . S
O386 Co382 2.004 . S
O386 C391 1.259 . S
Co387 O388 2.061 . S
Co387 O393 2.052 . S
Co387 O395 2.135 . S
O388 Co387 2.061 . S
O388 C391 1.235 . S
C389 O392 1.238 . S
C389 O393 1.241 . S
C390 O383 1.247 . S
C390 O384 1.261 . S
C391 O386 1.259 . S
C391 O388 1.235 . S
O392 Co382 2.021 . S
O392 C389 1.238 . S
O393 Co387 2.052 . S
O393 C389 1.241 . S
O394 Co382 2.137 . S
O394 C385 1.247 . S
O395 Co382 2.244 . S
O395 C385 1.272 . S
O395 Co387 2.135 . S
Co396 O397 2.216 . S
Co396 O398 2.091 . S
Co396 O400 2.004 . S
Co396 O406 2.021 . S
Co396 O408 2.137 . S
Co396 O409 2.244 . S
O397 Co396 2.216 . S
O397 C404 1.247 . S
O398 Co396 2.091 . S
O398 C404 1.261 . S
C399 O408 1.247 . S
C399 O409 1.272 . S
O400 Co396 2.004 . S
O400 C405 1.259 . S
Co401 O402 2.061 . S
Co401 O407 2.052 . S
Co401 O409 2.135 . S
O402 Co401 2.061 . S
O402 C405 1.235 . S
C403 O406 1.238 . S
C403 O407 1.241 . S
C404 O397 1.247 . S
C404 O398 1.261 . S
C405 O400 1.259 . S
C405 O402 1.235 . S
O406 Co396 2.021 . S
O406 C403 1.238 . S
O407 Co401 2.052 . S
O407 C403 1.241 . S
O408 Co396 2.137 . S
O408 C399 1.247 . S
O409 Co396 2.244 . S
O409 C399 1.272 . S
O409 Co401 2.135 . S
Co410 O411 2.216 . S
Co410 O412 2.091 . S
Co410 O414 2.004 . S
Co410 O420 2.021 . S
Co410 O422 2.137 . S
Co410 O423 2.244 . S
O411 Co410 2.216 . S
O411 C418 1.247 . S
O412 Co410 2.091 . S
O412 C418 1.261 . S
C413 O422 1.247 . S
C413 O423 1.272 . S
O414 Co410 2.004 . S
O414 C419 1.259 . S
Co415 O416 2.061 . S
Co415 O421 2.052 . S
Co415 O423 2.135 . S
O416 Co415 2.061 . S
O416 C419 1.235 . S
C417 O420 1.238 . S
C417 O421 1.241 . S
C418 O411 1.247 . S
C418 O412 1.261 . S
C419 O414 1.259 . S
C419 O416 1.235 . S
O420 Co410 2.021 . S
O420 C417 1.238 . S
O421 Co415 2.052 . S
O421 C417 1.241 . S
O422 Co410 2.137 . S
O422 C413 1.247 . S
O423 Co410 2.244 . S
O423 C413 1.272 . S
O423 Co415 2.135 . S
Co424 O425 2.216 . S
Co424 O426 2.091 . S
Co424 O428 2.004 . S
Co424 O434 2.021 . S
Co424 O436 2.137 . S
Co424 O437 2.244 . S
O425 Co424 2.216 . S
O425 C432 1.247 . S
O426 Co424 2.091 . S
O426 C432 1.261 . S
C427 O436 1.247 . S
C427 O437 1.272 . S
O428 Co424 2.004 . S
O428 C433 1.259 . S
Co429 O430 2.061 . S
Co429 O435 2.052 . S
Co429 O437 2.135 . S
O430 Co429 2.061 . S
O430 C433 1.235 . S
C431 O434 1.238 . S
C431 O435 1.241 . S
C432 O425 1.247 . S
C432 O426 1.261 . S
C433 O428 1.259 . S
C433 O430 1.235 . S
O434 Co424 2.021 . S
O434 C431 1.238 . S
O435 Co429 2.052 . S
O435 C431 1.241 . S
O436 Co424 2.137 . S
O436 C427 1.247 . S
O437 Co424 2.244 . S
O437 C427 1.272 . S
O437 Co429 2.135 . S
Co438 O439 2.216 . S
Co438 O440 2.091 . S
Co438 O442 2.004 . S
Co438 O448 2.021 . S
Co438 O450 2.137 . S
Co438 O451 2.244 . S
O439 Co438 2.216 . S
O439 C446 1.247 . S
O440 Co438 2.091 . S
O440 C446 1.261 . S
C441 O450 1.247 . S
C441 O451 1.272 . S
O442 Co438 2.004 . S
O442 C447 1.259 . S
Co443 O444 2.061 . S
Co443 O449 2.052 . S
Co443 O451 2.135 . S
O444 Co443 2.061 . S
O444 C447 1.235 . S
C445 O448 1.238 . S
C445 O449 1.241 . S
C446 O439 1.247 . S
C446 O440 1.261 . S
C447 O442 1.259 . S
C447 O444 1.235 . S
O448 Co438 2.021 . S
O448 C445 1.238 . S
O449 Co443 2.052 . S
O449 C445 1.241 . S
O450 Co438 2.137 . S
O450 C441 1.247 . S
O451 Co438 2.244 . S
O451 C441 1.272 . S
O451 Co443 2.135 . S
Co452 O453 2.216 1_556 S
Co452 O454 2.091 1_556 S
Co452 O456 2.004 . S
Co452 O462 2.021 1_556 S
Co452 O464 2.137 . S
Co452 O465 2.244 . S
O453 Co452 2.216 1_554 S
O453 C460 1.247 . S
O454 Co452 2.091 1_554 S
O454 C460 1.261 . S
C455 O464 1.247 . S
C455 O465 1.272 . S
O456 Co452 2.004 . S
O456 C461 1.259 . S
Co457 O458 2.061 . S
Co457 O463 2.052 1_556 S
Co457 O465 2.135 . S
O458 Co457 2.061 . S
O458 C461 1.235 . S
C459 O462 1.238 . S
C459 O463 1.241 . S
C460 O453 1.247 . S
C460 O454 1.261 . S
C461 O456 1.259 . S
C461 O458 1.235 . S
O462 Co452 2.021 1_554 S
O462 C459 1.238 . S
O463 Co457 2.052 1_554 S
O463 C459 1.241 . S
O464 Co452 2.137 . S
O464 C455 1.247 . S
O465 Co452 2.244 . S
O465 C455 1.272 . S
O465 Co457 2.135 . S
Co466 O467 2.216 . S
Co466 O468 2.091 . S
Co466 O470 2.004 . S
Co466 O476 2.021 . S
Co466 O478 2.137 . S
Co466 O479 2.244 . S
O467 Co466 2.216 . S
O467 C474 1.247 . S
O468 Co466 2.091 . S
O468 C474 1.261 . S
C469 O478 1.247 . S
C469 O479 1.272 . S
O470 Co466 2.004 . S
O470 C475 1.259 . S
Co471 O472 2.061 . S
Co471 O477 2.052 . S
Co471 O479 2.135 . S
O472 Co471 2.061 . S
O472 C475 1.235 . S
C473 O476 1.238 . S
C473 O477 1.241 . S
C474 O467 1.247 . S
C474 O468 1.261 . S
C475 O470 1.259 . S
C475 O472 1.235 . S
O476 Co466 2.021 . S
O476 C473 1.238 . S
O477 Co471 2.052 . S
O477 C473 1.241 . S
O478 Co466 2.137 . S
O478 C469 1.247 . S
O479 Co466 2.244 . S
O479 C469 1.272 . S
O479 Co471 2.135 . S
H480 C486 0.930 . S
H481 C489 0.930 . S
H482 C490 0.930 . S
H483 C491 0.930 . S
H484 C494 0.930 . S
H485 C495 0.930 . S
C486 H480 0.930 . S
C486 C487 1.355 . S
C486 C488 1.415 . S
C487 C486 1.355 . S
C487 C489 1.419 . S
C488 C486 1.415 . S
C488 C493 1.425 . S
C488 C495 1.409 . S
C489 H481 0.930 . S
C489 C487 1.419 . S
C489 C490 1.362 . S
C490 H482 0.930 . S
C490 C489 1.362 . S
C490 C493 1.409 . S
C491 H483 0.930 . S
C491 C492 1.355 . S
C491 C493 1.415 . S
C492 C491 1.355 . S
C492 C494 1.419 . S
C493 C488 1.425 . S
C493 C490 1.409 . S
C493 C491 1.415 . S
C494 H484 0.930 . S
C494 C492 1.419 . S
C494 C495 1.362 . S
C495 H485 0.930 . S
C495 C488 1.409 . S
C495 C494 1.362 . S
H496 C502 0.930 . S
H497 C505 0.930 . S
H498 C506 0.930 . S
H499 C507 0.930 . S
H500 C510 0.930 . S
H501 C511 0.930 . S
C502 H496 0.930 . S
C502 C503 1.355 . S
C502 C504 1.415 . S
C503 C502 1.355 . S
C503 C505 1.419 . S
C504 C502 1.415 . S
C504 C509 1.425 . S
C504 C511 1.409 . S
C505 H497 0.930 . S
C505 C503 1.419 . S
C505 C506 1.362 . S
C506 H498 0.930 . S
C506 C505 1.362 . S
C506 C509 1.409 . S
C507 H499 0.930 . S
C507 C508 1.355 . S
C507 C509 1.415 . S
C508 C507 1.355 . S
C508 C510 1.419 . S
C509 C504 1.425 . S
C509 C506 1.409 . S
C509 C507 1.415 . S
C510 H500 0.930 . S
C510 C508 1.419 . S
C510 C511 1.362 . S
C511 H501 0.930 . S
C511 C504 1.409 . S
C511 C510 1.362 . S
H512 C518 0.930 . S
H513 C521 0.930 . S
H514 C522 0.930 . S
H515 C523 0.930 . S
H516 C526 0.930 . S
H517 C527 0.930 . S
C518 H512 0.930 . S
C518 C519 1.355 . S
C518 C520 1.415 . S
C519 C518 1.355 . S
C519 C521 1.419 . S
C520 C518 1.415 . S
C520 C525 1.425 . S
C520 C527 1.409 . S
C521 H513 0.930 . S
C521 C519 1.419 . S
C521 C522 1.362 . S
C522 H514 0.930 . S
C522 C521 1.362 . S
C522 C525 1.409 . S
C523 H515 0.930 . S
C523 C524 1.355 . S
C523 C525 1.415 . S
C524 C523 1.355 . S
C524 C526 1.419 . S
C525 C520 1.425 . S
C525 C522 1.409 . S
C525 C523 1.415 . S
C526 H516 0.930 . S
C526 C524 1.419 . S
C526 C527 1.362 . S
C527 H517 0.930 . S
C527 C520 1.409 . S
C527 C526 1.362 . S
H528 C534 0.930 . S
H529 C537 0.930 . S
H530 C538 0.930 . S
H531 C539 0.930 . S
H532 C542 0.930 . S
H533 C543 0.930 . S
C534 H528 0.930 . S
C534 C535 1.355 . S
C534 C536 1.415 . S
C535 C534 1.355 . S
C535 C537 1.419 . S
C536 C534 1.415 . S
C536 C541 1.425 . S
C536 C543 1.409 . S
C537 H529 0.930 . S
C537 C535 1.419 . S
C537 C538 1.362 . S
C538 H530 0.930 . S
C538 C537 1.362 . S
C538 C541 1.409 . S
C539 H531 0.930 . S
C539 C540 1.355 . S
C539 C541 1.415 . S
C540 C539 1.355 . S
C540 C542 1.419 . S
C541 C536 1.425 . S
C541 C538 1.409 . S
C541 C539 1.415 . S
C542 H532 0.930 . S
C542 C540 1.419 . S
C542 C543 1.362 . S
C543 H533 0.930 . S
C543 C536 1.409 . S
C543 C542 1.362 . S
H544 C550 0.930 . S
H545 C553 0.930 1_554 S
H546 C554 0.930 . S
H547 C555 0.930 . S
H548 C558 0.930 . S
H549 C559 0.930 . S
C550 H544 0.930 . S
C550 C551 1.355 . S
C550 C552 1.415 . S
C551 C550 1.355 . S
C551 C553 1.419 . S
C552 C550 1.415 . S
C552 C557 1.425 . S
C552 C559 1.409 . S
C553 H545 0.930 1_556 S
C553 C551 1.419 . S
C553 C554 1.362 1_556 S
C554 H546 0.930 . S
C554 C553 1.362 1_554 S
C554 C557 1.409 1_554 S
C555 H547 0.930 . S
C555 C556 1.355 1_554 S
C555 C557 1.415 1_554 S
C556 C555 1.355 1_556 S
C556 C558 1.419 . S
C557 C552 1.425 . S
C557 C554 1.409 1_556 S
C557 C555 1.415 1_556 S
C558 H548 0.930 . S
C558 C556 1.419 . S
C558 C559 1.362 . S
C559 H549 0.930 . S
C559 C552 1.409 . S
C559 C558 1.362 . S
H560 C566 0.930 . S
H561 C569 0.930 . S
H562 C570 0.930 . S
H563 C571 0.930 . S
H564 C574 0.930 . S
H565 C575 0.930 . S
C566 H560 0.930 . S
C566 C567 1.355 . S
C566 C568 1.415 . S
C567 C566 1.355 . S
C567 C569 1.419 . S
C568 C566 1.415 . S
C568 C573 1.425 . S
C568 C575 1.409 . S
C569 H561 0.930 . S
C569 C567 1.419 . S
C569 C570 1.362 . S
C570 H562 0.930 . S
C570 C569 1.362 . S
C570 C573 1.409 . S
C571 H563 0.930 . S
C571 C572 1.355 . S
C571 C573 1.415 . S
C572 C571 1.355 . S
C572 C574 1.419 . S
C573 C568 1.425 . S
C573 C570 1.409 . S
C573 C571 1.415 . S
C574 H564 0.930 . S
C574 C572 1.419 . S
C574 C575 1.362 . S
C575 H565 0.930 . S
C575 C568 1.409 . S
C575 C574 1.362 . S
H576 C582 0.930 . S
H577 C585 0.930 . S
H578 C586 0.930 . S
H579 C587 0.930 . S
H580 C590 0.930 . S
H581 C591 0.930 . S
C582 H576 0.930 . S
C582 C583 1.355 . S
C582 C584 1.415 . S
C583 C582 1.355 . S
C583 C585 1.419 . S
C584 C582 1.415 . S
C584 C589 1.425 . S
C584 C591 1.409 . S
C585 H577 0.930 . S
C585 C583 1.419 . S
C585 C586 1.362 . S
C586 H578 0.930 . S
C586 C585 1.362 . S
C586 C589 1.409 . S
C587 H579 0.930 . S
C587 C588 1.355 . S
C587 C589 1.415 . S
C588 C587 1.355 . S
C588 C590 1.419 . S
C589 C584 1.425 . S
C589 C586 1.409 . S
C589 C587 1.415 . S
C590 H580 0.930 . S
C590 C588 1.419 . S
C590 C591 1.362 . S
C591 H581 0.930 . S
C591 C584 1.409 . S
C591 C590 1.362 . S
H592 C598 0.930 . S
H593 C601 0.930 . S
H594 C602 0.930 . S
H595 C603 0.930 . S
H596 C606 0.930 . S
H597 C607 0.930 . S
C598 H592 0.930 . S
C598 C599 1.355 . S
C598 C600 1.415 . S
C599 C598 1.355 . S
C599 C601 1.419 . S
C600 C598 1.415 . S
C600 C605 1.425 . S
C600 C607 1.409 . S
C601 H593 0.930 . S
C601 C599 1.419 . S
C601 C602 1.362 . S
C602 H594 0.930 . S
C602 C601 1.362 . S
C602 C605 1.409 . S
C603 H595 0.930 . S
C603 C604 1.355 . S
C603 C605 1.415 . S
C604 C603 1.355 . S
C604 C606 1.419 . S
C605 C600 1.425 . S
C605 C602 1.409 . S
C605 C603 1.415 . S
C606 H596 0.930 . S
C606 C604 1.419 . S
C606 C607 1.362 . S
C607 H597 0.930 . S
C607 C600 1.409 . S
C607 C606 1.362 . S
H608 C614 0.930 . S
H609 C617 0.930 . S
H610 C618 0.930 . S
H611 C619 0.930 . S
H612 C622 0.930 . S
H613 C623 0.930 . S
C614 H608 0.930 . S
C614 C615 1.355 . S
C614 C616 1.415 . S
C615 C614 1.355 . S
C615 C617 1.419 . S
C616 C614 1.415 . S
C616 C621 1.425 . S
C616 C623 1.409 . S
C617 H609 0.930 . S
C617 C615 1.419 . S
C617 C618 1.362 . S
C618 H610 0.930 . S
C618 C617 1.362 . S
C618 C621 1.409 . S
C619 H611 0.930 . S
C619 C620 1.355 . S
C619 C621 1.415 . S
C620 C619 1.355 . S
C620 C622 1.419 . S
C621 C616 1.425 . S
C621 C618 1.409 . S
C621 C619 1.415 . S
C622 H612 0.930 . S
C622 C620 1.419 . S
C622 C623 1.362 . S
C623 H613 0.930 . S
C623 C616 1.409 . S
C623 C622 1.362 . S
H624 C630 0.930 . S
H625 C633 0.930 . S
H626 C634 0.930 . S
H627 C635 0.930 . S
H628 C638 0.962 . S
H629 C639 0.909 1_556 S
C630 H624 0.930 . S
C630 C631 1.355 . S
C630 C632 1.415 . S
C631 C630 1.355 . S
C631 C633 1.419 . S
C632 C630 1.415 . S
C632 C637 1.425 . S
C632 C639 1.434 . S
C633 H625 0.930 . S
C633 C631 1.419 . S
C633 C634 1.362 . S
C634 H626 0.930 . S
C634 C633 1.362 . S
C634 C637 1.409 . S
C635 H627 0.930 . S
C635 C636 1.355 . S
C635 C637 1.415 . S
C636 C635 1.355 . S
C636 C638 1.392 1_554 S
C637 C632 1.425 . S
C637 C634 1.409 . S
C637 C635 1.415 . S
C638 H628 0.962 . S
C638 C636 1.392 1_556 S
C638 C639 1.358 1_556 S
C639 H629 0.909 1_554 S
C639 C632 1.434 . S
C639 C638 1.358 1_554 S
H640 C646 0.930 . S
H641 C649 0.930 . S
H642 C650 0.930 . S
H643 C651 0.930 . S
H644 C654 0.930 . S
H645 C655 0.930 . S
C646 H640 0.930 . S
C646 C647 1.355 . S
C646 C648 1.415 . S
C647 C646 1.355 . S
C647 C649 1.419 . S
C648 C646 1.415 . S
C648 C653 1.425 . S
C648 C655 1.409 . S
C649 H641 0.930 . S
C649 C647 1.419 . S
C649 C650 1.362 . S
C650 H642 0.930 . S
C650 C649 1.362 . S
C650 C653 1.409 . S
C651 H643 0.930 . S
C651 C652 1.355 . S
C651 C653 1.415 . S
C652 C651 1.355 . S
C652 C654 1.419 . S
C653 C648 1.425 . S
C653 C650 1.409 . S
C653 C651 1.415 . S
C654 H644 0.930 . S
C654 C652 1.419 . S
C654 C655 1.362 . S
C655 H645 0.930 . S
C655 C648 1.409 . S
C655 C654 1.362 . S
H656 C662 0.930 . S
H657 C665 0.930 . S
H658 C666 0.930 . S
H659 C667 0.930 . S
H660 C670 0.930 . S
H661 C671 0.930 . S
C662 H656 0.930 . S
C662 C663 1.355 . S
C662 C664 1.415 . S
C663 C662 1.355 . S
C663 C665 1.419 . S
C664 C662 1.415 . S
C664 C669 1.425 . S
C664 C671 1.409 . S
C665 H657 0.930 . S
C665 C663 1.419 . S
C665 C666 1.362 . S
C666 H658 0.930 . S
C666 C665 1.362 . S
C666 C669 1.409 . S
C667 H659 0.930 . S
C667 C668 1.355 . S
C667 C669 1.415 . S
C668 C667 1.355 . S
C668 C670 1.419 . S
C669 C664 1.425 . S
C669 C666 1.409 . S
C669 C667 1.415 . S
C670 H660 0.930 . S
C670 C668 1.419 . S
C670 C671 1.362 . S
C671 H661 0.930 . S
C671 C664 1.409 . S
C671 C670 1.362 . S
H672 C678 0.930 . S
H673 C681 0.930 . S
H674 C682 0.930 . S
H675 C683 0.930 . S
H676 C686 0.930 . S
H677 C687 0.930 . S
C678 H672 0.930 . S
C678 C679 1.355 . S
C678 C680 1.415 . S
C679 C678 1.355 . S
C679 C681 1.419 . S
C680 C678 1.415 . S
C680 C685 1.425 . S
C680 C687 1.409 . S
C681 H673 0.930 . S
C681 C679 1.419 . S
C681 C682 1.362 . S
C682 H674 0.930 . S
C682 C681 1.362 . S
C682 C685 1.409 . S
C683 H675 0.930 . S
C683 C684 1.355 . S
C683 C685 1.415 . S
C684 C683 1.355 . S
C684 C686 1.419 . S
C685 C680 1.425 . S
C685 C682 1.409 . S
C685 C683 1.415 . S
C686 H676 0.930 . S
C686 C684 1.419 . S
C686 C687 1.362 . S
C687 H677 0.930 . S
C687 C680 1.409 . S
C687 C686 1.362 . S
H688 C694 0.930 . S
H689 C697 0.930 . S
H690 C698 0.930 . S
H691 C699 0.930 . S
H692 C702 0.930 . S
H693 C703 0.930 . S
C694 H688 0.930 . S
C694 C695 1.355 . S
C694 C696 1.415 . S
C695 C694 1.355 . S
C695 C697 1.419 . S
C696 C694 1.415 . S
C696 C701 1.425 . S
C696 C703 1.409 . S
C697 H689 0.930 . S
C697 C695 1.419 . S
C697 C698 1.362 . S
C698 H690 0.930 . S
C698 C697 1.362 . S
C698 C701 1.409 . S
C699 H691 0.930 . S
C699 C700 1.355 . S
C699 C701 1.415 . S
C700 C699 1.355 . S
C700 C702 1.419 . S
C701 C696 1.425 . S
C701 C698 1.409 . S
C701 C699 1.415 . S
C702 H692 0.930 . S
C702 C700 1.419 . S
C702 C703 1.362 . S
C703 H693 0.930 . S
C703 C696 1.409 . S
C703 C702 1.362 . S
H704 C710 0.930 . S
H705 C713 0.930 1_554 S
H706 C714 0.930 . S
H707 C715 0.930 1_554 S
H708 C718 0.930 . S
H709 C719 0.930 . S
C710 H704 0.930 . S
C710 C711 1.355 . S
C710 C712 1.415 . S
C711 C710 1.355 . S
C711 C713 1.419 . S
C712 C710 1.415 . S
C712 C717 1.425 . S
C712 C719 1.409 . S
C713 H705 0.930 1_556 S
C713 C711 1.419 . S
C713 C714 1.362 1_556 S
C714 H706 0.930 . S
C714 C713 1.362 1_554 S
C714 C717 1.409 1_554 S
C715 H707 0.930 1_556 S
C715 C716 1.355 . S
C715 C717 1.415 . S
C716 C715 1.355 . S
C716 C718 1.419 . S
C717 C712 1.425 . S
C717 C714 1.409 1_556 S
C717 C715 1.415 . S
C718 H708 0.930 . S
C718 C716 1.419 . S
C718 C719 1.362 . S
C719 H709 0.930 . S
C719 C712 1.409 . S
C719 C718 1.362 . S
H720 C726 0.930 . S
H721 C729 0.930 . S
H722 C730 0.930 . S
H723 C731 0.930 . S
H724 C734 0.930 . S
H725 C735 0.930 . S
C726 H720 0.930 . S
C726 C727 1.355 . S
C726 C728 1.415 . S
C727 C726 1.355 . S
C727 C729 1.419 . S
C728 C726 1.415 . S
C728 C733 1.425 . S
C728 C735 1.409 . S
C729 H721 0.930 . S
C729 C727 1.419 . S
C729 C730 1.362 . S
C730 H722 0.930 . S
C730 C729 1.362 . S
C730 C733 1.409 . S
C731 H723 0.930 . S
C731 C732 1.355 . S
C731 C733 1.415 . S
C732 C731 1.355 . S
C732 C734 1.419 . S
C733 C728 1.425 . S
C733 C730 1.409 . S
C733 C731 1.415 . S
C734 H724 0.930 . S
C734 C732 1.419 . S
C734 C735 1.362 . S
C735 H725 0.930 . S
C735 C728 1.409 . S
C735 C734 1.362 . S
H736 C742 0.930 . S
H737 C745 0.930 . S
H738 C746 0.930 . S
H739 C747 0.930 . S
H740 C750 0.930 . S
H741 C751 0.930 . S
C742 H736 0.930 . S
C742 C743 1.355 . S
C742 C744 1.415 . S
C743 C742 1.355 . S
C743 C745 1.419 . S
C744 C742 1.415 . S
C744 C749 1.425 . S
C744 C751 1.409 . S
C745 H737 0.930 . S
C745 C743 1.419 . S
C745 C746 1.362 . S
C746 H738 0.930 . S
C746 C745 1.362 . S
C746 C749 1.409 . S
C747 H739 0.930 . S
C747 C748 1.355 . S
C747 C749 1.415 . S
C748 C747 1.355 . S
C748 C750 1.419 . S
C749 C744 1.425 . S
C749 C746 1.409 . S
C749 C747 1.415 . S
C750 H740 0.930 . S
C750 C748 1.419 . S
C750 C751 1.362 . S
C751 H741 0.930 . S
C751 C744 1.409 . S
C751 C750 1.362 . S
H752 C758 0.930 . S
H753 C761 0.930 . S
H754 C762 0.930 . S
H755 C763 0.930 . S
H756 C766 0.930 . S
H757 C767 0.930 . S
C758 H752 0.930 . S
C758 C759 1.355 . S
C758 C760 1.415 . S
C759 C758 1.355 . S
C759 C761 1.419 . S
C760 C758 1.415 . S
C760 C765 1.425 . S
C760 C767 1.409 . S
C761 H753 0.930 . S
C761 C759 1.419 . S
C761 C762 1.362 . S
C762 H754 0.930 . S
C762 C761 1.362 . S
C762 C765 1.409 . S
C763 H755 0.930 . S
C763 C764 1.355 . S
C763 C765 1.415 . S
C764 C763 1.355 . S
C764 C766 1.419 . S
C765 C760 1.425 . S
C765 C762 1.409 . S
C765 C763 1.415 . S
C766 H756 0.930 . S
C766 C764 1.419 . S
C766 C767 1.362 . S
C767 H757 0.930 . S
C767 C760 1.409 . S
C767 C766 1.362 . S
H768 C774 0.930 . S
H769 C777 0.930 . S
H770 C778 0.930 . S
H771 C779 0.930 . S
H772 C782 0.930 . S
H773 C783 0.930 . S
C774 H768 0.930 . S
C774 C775 1.355 . S
C774 C776 1.415 . S
C775 C774 1.355 . S
C775 C777 1.419 . S
C776 C774 1.415 . S
C776 C781 1.425 . S
C776 C783 1.409 . S
C777 H769 0.930 . S
C777 C775 1.419 . S
C777 C778 1.362 . S
C778 H770 0.930 . S
C778 C777 1.362 . S
C778 C781 1.409 . S
C779 H771 0.930 . S
C779 C780 1.355 . S
C779 C781 1.415 . S
C780 C779 1.355 . S
C780 C782 1.419 . S
C781 C776 1.425 . S
C781 C778 1.409 . S
C781 C779 1.415 . S
C782 H772 0.930 . S
C782 C780 1.419 . S
C782 C783 1.362 . S
C783 H773 0.930 . S
C783 C776 1.409 . S
C783 C782 1.362 . S
H784 C790 0.930 . S
H785 C793 0.930 . S
H786 C794 0.930 . S
H787 C795 0.930 . S
H788 C798 0.930 . S
H789 C799 0.930 . S
C790 H784 0.930 . S
C790 C791 1.355 . S
C790 C792 1.415 . S
C791 C790 1.355 . S
C791 C793 1.419 . S
C792 C790 1.415 . S
C792 C797 1.425 . S
C792 C799 1.409 . S
C793 H785 0.930 . S
C793 C791 1.419 . S
C793 C794 1.362 . S
C794 H786 0.930 . S
C794 C793 1.362 . S
C794 C797 1.409 . S
C795 H787 0.930 . S
C795 C796 1.355 . S
C795 C797 1.415 . S
C796 C795 1.355 . S
C796 C798 1.419 . S
C797 C792 1.425 . S
C797 C794 1.409 . S
C797 C795 1.415 . S
C798 H788 0.930 . S
C798 C796 1.419 . S
C798 C799 1.362 . S
C799 H789 0.930 . S
C799 C792 1.409 . S
C799 C798 1.362 . S
H800 C806 0.930 . S
H801 C809 0.930 . S
H802 C810 0.930 . S
H803 C811 0.930 . S
H804 C814 0.930 . S
H805 C815 0.930 . S
C806 H800 0.930 . S
C806 C807 1.355 . S
C806 C808 1.415 . S
C807 C806 1.355 . S
C807 C809 1.419 . S
C808 C806 1.415 . S
C808 C813 1.425 . S
C808 C815 1.409 . S
C809 H801 0.930 . S
C809 C807 1.419 . S
C809 C810 1.362 . S
C810 H802 0.930 . S
C810 C809 1.362 . S
C810 C813 1.409 . S
C811 H803 0.930 . S
C811 C812 1.355 . S
C811 C813 1.415 . S
C812 C811 1.355 . S
C812 C814 1.419 . S
C813 C808 1.425 . S
C813 C810 1.409 . S
C813 C811 1.415 . S
C814 H804 0.930 . S
C814 C812 1.419 . S
C814 C815 1.362 . S
C815 H805 0.930 . S
C815 C808 1.409 . S
C815 C814 1.362 . S
H816 C822 0.930 . S
H817 C825 0.930 . S
H818 C826 0.930 . S
H819 C827 0.930 . S
H820 C830 0.930 . S
H821 C831 0.930 . S
C822 H816 0.930 . S
C822 C823 1.355 . S
C822 C824 1.415 . S
C823 C822 1.355 . S
C823 C825 1.419 . S
C824 C822 1.415 . S
C824 C829 1.425 . S
C824 C831 1.409 . S
C825 H817 0.930 . S
C825 C823 1.419 . S
C825 C826 1.362 . S
C826 H818 0.930 . S
C826 C825 1.362 . S
C826 C829 1.409 . S
C827 H819 0.930 . S
C827 C828 1.355 . S
C827 C829 1.415 . S
C828 C827 1.355 . S
C828 C830 1.419 . S
C829 C824 1.425 . S
C829 C826 1.409 . S
C829 C827 1.415 . S
C830 H820 0.930 . S
C830 C828 1.419 . S
C830 C831 1.362 . S
C831 H821 0.930 . S
C831 C824 1.409 . S
C831 C830 1.362 . S
H832 C838 0.930 . S
H833 C841 0.930 . S
H834 C842 0.930 . S
H835 C843 0.930 . S
H836 C846 0.930 . S
H837 C847 0.930 . S
C838 H832 0.930 . S
C838 C839 1.355 . S
C838 C840 1.415 . S
C839 C838 1.355 . S
C839 C841 1.419 . S
C840 C838 1.415 . S
C840 C845 1.425 . S
C840 C847 1.409 . S
C841 H833 0.930 . S
C841 C839 1.419 . S
C841 C842 1.362 . S
C842 H834 0.930 . S
C842 C841 1.362 . S
C842 C845 1.409 . S
C843 H835 0.930 . S
C843 C844 1.355 . S
C843 C845 1.415 . S
C844 C843 1.355 . S
C844 C846 1.419 . S
C845 C840 1.425 . S
C845 C842 1.409 . S
C845 C843 1.415 . S
C846 H836 0.930 . S
C846 C844 1.419 . S
C846 C847 1.362 . S
C847 H837 0.930 . S
C847 C840 1.409 . S
C847 C846 1.362 . S
H848 C854 0.930 . S
H849 C857 0.930 . S
H850 C858 0.930 . S
H851 C859 0.930 . S
H852 C862 0.930 . S
H853 C863 0.930 . S
C854 H848 0.930 . S
C854 C855 1.355 . S
C854 C856 1.415 . S
C855 C854 1.355 . S
C855 C857 1.419 . S
C856 C854 1.415 . S
C856 C861 1.425 . S
C856 C863 1.409 . S
C857 H849 0.930 . S
C857 C855 1.419 . S
C857 C858 1.362 . S
C858 H850 0.930 . S
C858 C857 1.362 . S
C858 C861 1.409 . S
C859 H851 0.930 . S
C859 C860 1.355 . S
C859 C861 1.415 . S
C860 C859 1.355 . S
C860 C862 1.419 . S
C861 C856 1.425 . S
C861 C858 1.409 . S
C861 C859 1.415 . S
C862 H852 0.930 . S
C862 C860 1.419 . S
C862 C863 1.362 . S
C863 H853 0.930 . S
C863 C856 1.409 . S
C863 C862 1.362 . S
H864 C870 0.930 . S
H865 C873 0.930 . S
H866 C874 0.930 . S
H867 C875 0.930 . S
H868 C878 0.930 . S
H869 C879 0.930 . S
C870 H864 0.930 . S
C870 C871 1.355 . S
C870 C872 1.415 . S
C871 C870 1.355 . S
C871 C873 1.419 . S
C872 C870 1.415 . S
C872 C877 1.425 . S
C872 C879 1.409 . S
C873 H865 0.930 . S
C873 C871 1.419 . S
C873 C874 1.362 . S
C874 H866 0.930 . S
C874 C873 1.362 . S
C874 C877 1.409 . S
C875 H867 0.930 . S
C875 C876 1.355 . S
C875 C877 1.415 . S
C876 C875 1.355 . S
C876 C878 1.419 . S
C877 C872 1.425 . S
C877 C874 1.409 . S
C877 C875 1.415 . S
C878 H868 0.930 . S
C878 C876 1.419 . S
C878 C879 1.362 . S
C879 H869 0.930 . S
C879 C872 1.409 . S
C879 C878 1.362 . S
H880 C886 0.930 . S
H881 C889 0.930 . S
H882 C890 0.930 . S
H883 C891 0.930 . S
H884 C894 0.930 . S
H885 C895 0.930 . S
C886 H880 0.930 . S
C886 C887 1.355 . S
C886 C888 1.415 . S
C887 C886 1.355 . S
C887 C889 1.419 . S
C888 C886 1.415 . S
C888 C893 1.425 . S
C888 C895 1.409 . S
C889 H881 0.930 . S
C889 C887 1.419 . S
C889 C890 1.362 . S
C890 H882 0.930 . S
C890 C889 1.362 . S
C890 C893 1.409 . S
C891 H883 0.930 . S
C891 C892 1.355 . S
C891 C893 1.415 . S
C892 C891 1.355 . S
C892 C894 1.419 . S
C893 C888 1.425 . S
C893 C890 1.409 . S
C893 C891 1.415 . S
C894 H884 0.930 . S
C894 C892 1.419 . S
C894 C895 1.362 . S
C895 H885 0.930 . S
C895 C888 1.409 . S
C895 C894 1.362 . S
H896 C902 0.930 . S
H897 C905 0.930 . S
H898 C906 0.930 . S
H899 C907 0.930 . S
H900 C910 0.930 . S
H901 C911 0.930 . S
C902 H896 0.930 . S
C902 C903 1.355 . S
C902 C904 1.415 . S
C903 C902 1.355 . S
C903 C905 1.419 . S
C904 C902 1.415 . S
C904 C909 1.425 . S
C904 C911 1.409 . S
C905 H897 0.930 . S
C905 C903 1.419 . S
C905 C906 1.362 . S
C906 H898 0.930 . S
C906 C905 1.362 . S
C906 C909 1.409 . S
C907 H899 0.930 . S
C907 C908 1.355 . S
C907 C909 1.415 . S
C908 C907 1.355 . S
C908 C910 1.419 . S
C909 C904 1.425 . S
C909 C906 1.409 . S
C909 C907 1.415 . S
C910 H900 0.930 . S
C910 C908 1.419 . S
C910 C911 1.362 . S
C911 H901 0.930 . S
C911 C904 1.409 . S
C911 C910 1.362 . S
H912 C918 0.930 . S
H913 C921 0.930 . S
H914 C922 0.930 . S
H915 C923 0.930 . S
H916 C926 0.930 . S
H917 C927 0.930 . S
C918 H912 0.930 . S
C918 C919 1.355 . S
C918 C920 1.415 . S
C919 C918 1.355 . S
C919 C921 1.419 . S
C920 C918 1.415 . S
C920 C925 1.425 . S
C920 C927 1.409 . S
C921 H913 0.930 . S
C921 C919 1.419 . S
C921 C922 1.362 . S
C922 H914 0.930 . S
C922 C921 1.362 . S
C922 C925 1.409 . S
C923 H915 0.930 . S
C923 C924 1.355 . S
C923 C925 1.415 . S
C924 C923 1.355 . S
C924 C926 1.419 . S
C925 C920 1.425 . S
C925 C922 1.409 . S
C925 C923 1.415 . S
C926 H916 0.930 . S
C926 C924 1.419 . S
C926 C927 1.362 . S
C927 H917 0.930 . S
C927 C920 1.409 . S
C927 C926 1.362 . S
H928 C934 0.930 . S
H929 C937 0.930 . S
H930 C938 0.930 . S
H931 C939 0.930 . S
H932 C942 0.930 . S
H933 C943 0.930 . S
C934 H928 0.930 . S
C934 C935 1.355 . S
C934 C936 1.415 . S
C935 C934 1.355 . S
C935 C937 1.419 . S
C936 C934 1.415 . S
C936 C941 1.425 . S
C936 C943 1.409 . S
C937 H929 0.930 . S
C937 C935 1.419 . S
C937 C938 1.362 . S
C938 H930 0.930 . S
C938 C937 1.362 . S
C938 C941 1.409 . S
C939 H931 0.930 . S
C939 C940 1.355 . S
C939 C941 1.415 . S
C940 C939 1.355 . S
C940 C942 1.419 . S
C941 C936 1.425 . S
C941 C938 1.409 . S
C941 C939 1.415 . S
C942 H932 0.930 . S
C942 C940 1.419 . S
C942 C943 1.362 . S
C943 H933 0.930 . S
C943 C936 1.409 . S
C943 C942 1.362 . S
H944 C950 0.930 . S
H945 C953 0.930 . S
H946 C954 0.930 . S
H947 C955 0.930 . S
H948 C958 0.930 . S
H949 C959 0.930 . S
C950 H944 0.930 . S
C950 C951 1.355 . S
C950 C952 1.415 . S
C951 C950 1.355 . S
C951 C953 1.419 . S
C952 C950 1.415 . S
C952 C957 1.425 . S
C952 C959 1.409 . S
C953 H945 0.930 . S
C953 C951 1.419 . S
C953 C954 1.362 . S
C954 H946 0.930 . S
C954 C953 1.362 . S
C954 C957 1.409 . S
C955 H947 0.930 . S
C955 C956 1.355 . S
C955 C957 1.415 . S
C956 C955 1.355 . S
C956 C958 1.419 . S
C957 C952 1.425 . S
C957 C954 1.409 . S
C957 C955 1.415 . S
C958 H948 0.930 . S
C958 C956 1.419 . S
C958 C959 1.362 . S
C959 H949 0.930 . S
C959 C952 1.409 . S
C959 C958 1.362 . S
H960 C966 0.930 . S
H961 C969 0.930 . S
H962 C970 0.930 . S
H963 C971 0.930 . S
H964 C974 0.930 . S
H965 C975 0.930 . S
C966 H960 0.930 . S
C966 C967 1.355 . S
C966 C968 1.415 . S
C967 C966 1.355 . S
C967 C969 1.419 . S
C968 C966 1.415 . S
C968 C973 1.425 . S
C968 C975 1.409 . S
C969 H961 0.930 . S
C969 C967 1.419 . S
C969 C970 1.362 . S
C970 H962 0.930 . S
C970 C969 1.362 . S
C970 C973 1.409 . S
C971 H963 0.930 . S
C971 C972 1.355 . S
C971 C973 1.415 . S
C972 C971 1.355 . S
C972 C974 1.419 . S
C973 C968 1.425 . S
C973 C970 1.409 . S
C973 C971 1.415 . S
C974 H964 0.930 . S
C974 C972 1.419 . S
C974 C975 1.362 . S
C975 H965 0.930 . S
C975 C968 1.409 . S
C975 C974 1.362 . S
H976 C982 0.930 . S
H977 C985 0.930 . S
H978 C986 0.930 . S
H979 C987 0.930 . S
H980 C990 0.930 . S
H981 C991 0.930 . S
C982 H976 0.930 . S
C982 C983 1.355 . S
C982 C984 1.415 . S
C983 C982 1.355 . S
C983 C985 1.419 . S
C984 C982 1.415 . S
C984 C989 1.425 . S
C984 C991 1.409 . S
C985 H977 0.930 . S
C985 C983 1.419 . S
C985 C986 1.362 . S
C986 H978 0.930 . S
C986 C985 1.362 . S
C986 C989 1.409 . S
C987 H979 0.930 . S
C987 C988 1.355 . S
C987 C989 1.415 . S
C988 C987 1.355 . S
C988 C990 1.419 . S
C989 C984 1.425 . S
C989 C986 1.409 . S
C989 C987 1.415 . S
C990 H980 0.930 . S
C990 C988 1.419 . S
C990 C991 1.362 . S
C991 H981 0.930 . S
C991 C984 1.409 . S
C991 C990 1.362 . S
C492 C390 1.378 . S
C487 C8 1.317 . S
C508 C404 1.367 . S
C503 C61 1.363 . S
C524 C419 1.326 . S
C519 C107 1.380 . S
C535 C139 1.312 . S
C540 C377 1.365 . S
C551 C192 1.339 . S
C556 C376 1.346 . S
C567 C238 1.294 . S
C572 C391 1.343 . S
C588 C405 1.390 . S
C583 C284 1.318 . S
C604 C418 1.376 . S
C599 C330 1.302 . S
C615 C100 1.341 . S
C620 C446 1.345 . S
C636 C460 1.380 . S
C631 C160 1.333 . S
C647 C15 1.290 . S
C652 C475 1.350 . S
C668 C432 1.325 . S
C663 C54 1.322 . S
C679 C291 1.331 . S
C684 C433 1.317 . S
C695 C337 1.353 . S
C700 C447 1.316 . S
C716 C461 1.376 . S
C711 C199 1.370 . S
C727 C245 1.352 . S
C732 C474 1.378 . S
C748 C399 1.727 . S
C743 C1 1.707 . S
C764 C417 1.666 . S
C759 C68 1.706 . S
C775 C114 1.728 . S
C780 C375 1.679 . S
C791 C146 1.742 . S
C796 C385 1.757 . S
C807 C185 1.633 . S
C812 C413 1.639 . S
C828 C371 1.647 . S
C823 C231 1.639 . S
C844 C389 1.646 . S
C839 C277 1.637 . S
C860 C403 1.624 . S
C855 C323 1.640 . S
C876 C455 1.630 . S
C871 C93 1.636 . S
C892 C473 1.618 . S
C887 C153 1.625 . S
C903 C22 1.642 . S
C908 C427 1.628 . S
C924 C441 1.637 . S
C919 C47 1.630 . S
C940 C469 1.717 . S
C935 C298 1.697 . S
C951 C344 1.716 . S
C956 C431 1.742 . S
C972 C445 1.724 . S
C967 C206 1.730 . S
C988 C459 1.719 . S
C983 C252 1.694 . S
