# Generated by pormake.
# Topology nom, (4,4)-cn, num edge types: 1
# Building blocks:
#     Node 0, Type 0, BuildingBlock: AZAVOO_clean_linker_0, # of connection points: 4
#     Node 1, Type 0, BuildingBlock: AZAVOO_clean_linker_0, # of connection points: 4
#     Node 2, Type 0, BuildingBlock: AZAVOO_clean_linker_0, # of connection points: 4
#     Node 3, Type 0, BuildingBlock: AZAVOO_clean_linker_0, # of connection points: 4
#     Node 4, Type 0, BuildingBlock: AZAVOO_clean_linker_0, # of connection points: 4
#     Node 5, Type 0, BuildingBlock: AZAVOO_clean_linker_0, # of connection points: 4
#     Node 6, Type 1, BuildingBlock: KUFVIS_clean_sbu_0, # of connection points: 4
#     Node 7, Type 1, BuildingBlock: KUFVIS_clean_sbu_0, # of connection points: 4
#     Node 8, Type 1, BuildingBlock: KUFVIS_clean_sbu_0, # of connection points: 4
#     Node 9, Type 1, BuildingBlock: KUFVIS_clean_sbu_0, # of connection points: 4
#     Node 10, Type 1, BuildingBlock: KUFVIS_clean_sbu_0, # of connection points: 4
#     Node 11, Type 1, BuildingBlock: KUFVIS_clean_sbu_0, # of connection points: 4
#     Edge 12, Type (0, 1), BuildingBlock: CIFDUS_clean_linker_0, # of connection points: 2
#     Edge 13, Type (0, 1), BuildingBlock: CIFDUS_clean_linker_0, # of connection points: 2
#     Edge 14, Type (0, 1), BuildingBlock: CIFDUS_clean_linker_0, # of connection points: 2
#     Edge 15, Type (0, 1), BuildingBlock: CIFDUS_clean_linker_0, # of connection points: 2
#     Edge 16, Type (0, 1), BuildingBlock: CIFDUS_clean_linker_0, # of connection points: 2
#     Edge 17, Type (0, 1), BuildingBlock: CIFDUS_clean_linker_0, # of connection points: 2
#     Edge 18, Type (0, 1), BuildingBlock: CIFDUS_clean_linker_0, # of connection points: 2
#     Edge 19, Type (0, 1), BuildingBlock: CIFDUS_clean_linker_0, # of connection points: 2
#     Edge 20, Type (0, 1), BuildingBlock: CIFDUS_clean_linker_0, # of connection points: 2
#     Edge 21, Type (0, 1), BuildingBlock: CIFDUS_clean_linker_0, # of connection points: 2
#     Edge 22, Type (0, 1), BuildingBlock: CIFDUS_clean_linker_0, # of connection points: 2
#     Edge 23, Type (0, 1), BuildingBlock: CIFDUS_clean_linker_0, # of connection points: 2
#     Edge 24, Type (0, 1), BuildingBlock: CIFDUS_clean_linker_0, # of connection points: 2
#     Edge 25, Type (0, 1), BuildingBlock: CIFDUS_clean_linker_0, # of connection points: 2
#     Edge 26, Type (0, 1), BuildingBlock: CIFDUS_clean_linker_0, # of connection points: 2
#     Edge 27, Type (0, 1), BuildingBlock: CIFDUS_clean_linker_0, # of connection points: 2
#     Edge 28, Type (0, 1), BuildingBlock: CIFDUS_clean_linker_0, # of connection points: 2
#     Edge 29, Type (0, 1), BuildingBlock: CIFDUS_clean_linker_0, # of connection points: 2
#     Edge 30, Type (0, 1), BuildingBlock: CIFDUS_clean_linker_0, # of connection points: 2
#     Edge 31, Type (0, 1), BuildingBlock: CIFDUS_clean_linker_0, # of connection points: 2
#     Edge 32, Type (0, 1), BuildingBlock: CIFDUS_clean_linker_0, # of connection points: 2
#     Edge 33, Type (0, 1), BuildingBlock: CIFDUS_clean_linker_0, # of connection points: 2
#     Edge 34, Type (0, 1), BuildingBlock: CIFDUS_clean_linker_0, # of connection points: 2
#     Edge 35, Type (0, 1), BuildingBlock: CIFDUS_clean_linker_0, # of connection points: 2
# Relax obj value: 0.149
# Max RMSD: 0.226
# Mean RMSD: 0.145
data_MOF--net-nom--node1-KUFVIS_clean_sbu_0--node2-AZAVOO_clean_linker_0--edge1-CIFDUS_clean_linker_0
_symmetry_space_group_name_H-M    P1
_symmetry_Int_Tables_number       1
_symmetry_cell_setting            triclinic
loop_
_symmetry_equiv_pos_as_xyz
'x, y, z'
_cell_length_a     42.740394
_cell_length_b     44.788382
_cell_length_c     53.56651
_cell_angle_alpha  90.771605
_cell_angle_beta   90.785017
_cell_angle_gamma 121.45167
loop_
_atom_site_label
_atom_site_type_symbol
_atom_site_fract_x
_atom_site_fract_y
_atom_site_fract_z
_atom_type_partial_charge
H0 H 0.0627 0.46402 0.14831 0.0
H1 H 0.2394 0.6434 0.41336 0.0
H2 H 0.97991 0.43414 0.27682 0.0
H3 H 0.94041 0.40941 0.23935 0.0
H4 H 0.95442 0.51031 0.22488 0.0
H5 H 0.99396 0.53478 0.26236 0.0
H6 H 0.06055 0.46478 0.25745 0.0
H7 H 0.06255 0.45594 0.21243 0.0
H8 H 0.0646 0.55202 0.19932 0.0
H9 H 0.0627 0.56052 0.24441 0.0
H10 H 0.14038 0.51593 0.29698 0.0
H11 H 0.20459 0.55408 0.28498 0.0
H12 H 0.18147 0.63378 0.2645 0.0
H13 H 0.11796 0.5959 0.27679 0.0
H14 H 0.11838 0.50418 0.34429 0.0
H15 H 0.17125 0.53213 0.37338 0.0
H16 H 0.17017 0.62808 0.37106 0.0
H17 H 0.11757 0.59986 0.34176 0.0
H18 H 0.04686 0.4748 0.36672 0.0
H19 H 0.06522 0.48956 0.41079 0.0
H20 H 0.05812 0.58178 0.40455 0.0
H21 H 0.04042 0.56725 0.36021 0.0
H22 H 0.96627 0.44726 0.34201 0.0
H23 H 0.90628 0.43404 0.35707 0.0
H24 H 0.92425 0.52966 0.32501 0.0
H25 H 0.98396 0.54279 0.31057 0.0
O26 O 0.06286 0.46851 0.16604 0.0
O27 O 0.06333 0.51782 0.16027 0.0
O28 O 0.22247 0.58424 0.3985 0.0
O29 O 0.21883 0.6319 0.40162 0.0
C30 C 0.02092 0.50275 0.29037 0.0
C31 C 0.0566 0.51646 0.28116 0.0
C32 C 0.08719 0.53267 0.29763 0.0
C33 C 0.08202 0.53291 0.32354 0.0
C34 C 0.04628 0.51868 0.3329 0.0
C35 C 0.01575 0.50482 0.3162 0.0
C36 C 0.98945 0.48611 0.27238 0.0
C37 C 0.97329 0.45051 0.26606 0.0
C38 C 0.95101 0.43655 0.24456 0.0
C39 C 0.94479 0.45809 0.22903 0.0
C40 C 0.95921 0.49326 0.23632 0.0
C41 C 0.98127 0.50712 0.25789 0.0
C42 C 0.06167 0.51334 0.25411 0.0
C43 C 0.06197 0.48411 0.24481 0.0
C44 C 0.0629 0.47905 0.2191 0.0
C45 C 0.06356 0.50319 0.20226 0.0
C46 C 0.06405 0.53289 0.21176 0.0
C47 C 0.06317 0.53793 0.23748 0.0
C48 C 0.12465 0.55322 0.28769 0.0
C49 C 0.14923 0.54149 0.28962 0.0
C50 C 0.18578 0.56327 0.28284 0.0
C51 C 0.19797 0.59684 0.27373 0.0
C52 C 0.17278 0.60786 0.27105 0.0
C53 C 0.13652 0.5863 0.27808 0.0
C54 C 0.11439 0.55011 0.34089 0.0
C55 C 0.1298 0.5313 0.34999 0.0
C56 C 0.15994 0.54731 0.36659 0.0
C57 C 0.17501 0.5824 0.37447 0.0
C58 C 0.15928 0.60107 0.36535 0.0
C59 C 0.1293 0.58507 0.34861 0.0
C60 C 0.0423 0.51994 0.36029 0.0
C61 C 0.04745 0.49723 0.37514 0.0
C62 C 0.05823 0.50582 0.40021 0.0
C63 C 0.06334 0.53693 0.41086 0.0
C64 C 0.05409 0.55755 0.39674 0.0
C65 C 0.04375 0.54916 0.3715 0.0
C66 C 0.97935 0.49595 0.32522 0.0
C67 C 0.9571 0.46524 0.3383 0.0
C68 C 0.92284 0.45767 0.34672 0.0
C69 C 0.91059 0.48089 0.34232 0.0
C70 C 0.93306 0.51148 0.32903 0.0
C71 C 0.96706 0.51892 0.32061 0.0
C72 C 0.06329 0.4971 0.17493 0.0
C73 C 0.20688 0.59945 0.39222 0.0
H74 H 0.55997 0.05992 0.32399 0.0
H75 H 0.53436 0.21036 0.58742 0.0
H76 H 0.52899 0.9835 0.45229 0.0
H77 H 0.52064 0.95011 0.41352 0.0
H78 H 0.41421 0.93745 0.40166 0.0
H79 H 0.42256 0.97046 0.44055 0.0
H80 H 0.56459 0.06245 0.43323 0.0
H81 H 0.57386 0.06566 0.38811 0.0
H82 H 0.46116 0.03669 0.37554 0.0
H83 H 0.45238 0.03376 0.42069 0.0
H84 H 0.58108 0.13055 0.47957 0.0
H85 H 0.60145 0.18952 0.46617 0.0
H86 H 0.49653 0.15033 0.42818 0.0
H87 H 0.47517 0.09263 0.44453 0.0
H88 H 0.57466 0.10425 0.52633 0.0
H89 H 0.59223 0.15232 0.55645 0.0
H90 H 0.48879 0.14528 0.54189 0.0
H91 H 0.47177 0.09749 0.51156 0.0
H92 H 0.54848 0.03006 0.53624 0.0
H93 H 0.56611 0.05014 0.57947 0.0
H94 H 0.46862 0.05535 0.58707 0.0
H95 H 0.45018 0.03347 0.54396 0.0
H96 H 0.51211 0.97113 0.51993 0.0
H97 H 0.47899 0.91163 0.53639 0.0
H98 H 0.37836 0.89418 0.50277 0.0
H99 H 0.41098 0.95431 0.48771 0.0
O100 O 0.55605 0.05956 0.34175 0.0
O101 O 0.49809 0.04516 0.33631 0.0
O102 O 0.58072 0.1937 0.5825 0.0
O103 O 0.52848 0.19203 0.57512 0.0
C104 C 0.48653 0.00872 0.46705 0.0
C105 C 0.50162 0.04273 0.45738 0.0
C106 C 0.51271 0.07176 0.47359 0.0
C107 C 0.51041 0.06693 0.49964 0.0
C108 C 0.49639 0.03305 0.50944 0.0
C109 C 0.48327 0.0036 0.49311 0.0
C110 C 0.47631 0.97924 0.44924 0.0
C111 C 0.50318 0.9721 0.44192 0.0
C112 C 0.49851 0.95332 0.4197 0.0
C113 C 0.46705 0.9418 0.40448 0.0
C114 C 0.43888 0.94644 0.41296 0.0
C115 C 0.44337 0.96482 0.4353 0.0
C116 C 0.50788 0.04796 0.43016 0.0
C117 C 0.54212 0.05728 0.42068 0.0
C118 C 0.54726 0.0589 0.39491 0.0
C119 C 0.51819 0.05126 0.3782 0.0
C120 C 0.4841 0.04268 0.38787 0.0
C121 C 0.47904 0.0411 0.41363 0.0
C122 C 0.52645 0.1072 0.46332 0.0
C123 C 0.56236 0.1349 0.46866 0.0
C124 C 0.57418 0.16865 0.46052 0.0
C125 C 0.55077 0.17532 0.44603 0.0
C126 C 0.51526 0.14693 0.43984 0.0
C127 C 0.50309 0.11352 0.44877 0.0
C128 C 0.5219 0.09736 0.51689 0.0
C129 C 0.55591 0.11323 0.52963 0.0
C130 C 0.56582 0.1406 0.54686 0.0
C131 C 0.54173 0.15238 0.55179 0.0
C132 C 0.50791 0.13674 0.53863 0.0
C133 C 0.49815 0.10953 0.52126 0.0
C134 C 0.4979 0.03004 0.53693 0.0
C135 C 0.52958 0.03312 0.54768 0.0
C136 C 0.53999 0.04529 0.57229 0.0
C137 C 0.51921 0.05517 0.5864 0.0
C138 C 0.48515 0.04791 0.57666 0.0
C139 C 0.47447 0.03524 0.55205 0.0
C140 C 0.46394 0.96744 0.50293 0.0
C141 C 0.48281 0.95485 0.51661 0.0
C142 C 0.46397 0.92082 0.52582 0.0
C143 C 0.42621 0.89853 0.52084 0.0
C144 C 0.4075 0.91092 0.5068 0.0
C145 C 0.42612 0.94517 0.49817 0.0
C146 C 0.52337 0.05183 0.35083 0.0
C147 C 0.55164 0.18064 0.57071 0.0
H148 H 0.59476 0.5413 0.80815 0.0
H149 H 0.56397 0.37295 0.54183 0.0
H150 H 0.57271 0.59713 0.68068 0.0
H151 H 0.5672 0.62104 0.72061 0.0
H152 H 0.45554 0.53439 0.72556 0.0
H153 H 0.4611 0.51092 0.68536 0.0
H154 H 0.60205 0.5504 0.6993 0.0
H155 H 0.61029 0.55308 0.74479 0.0
H156 H 0.49542 0.47413 0.75155 0.0
H157 H 0.48766 0.47172 0.70607 0.0
H158 H 0.61459 0.49823 0.65648 0.0
H159 H 0.6307 0.45735 0.67396 0.0
H160 H 0.5187 0.39023 0.69656 0.0
H161 H 0.5027 0.43061 0.67859 0.0
H162 H 0.60941 0.51844 0.60739 0.0
H163 H 0.62634 0.48689 0.57824 0.0
H164 H 0.51852 0.39426 0.58485 0.0
H165 H 0.50219 0.42605 0.61425 0.0
H166 H 0.58227 0.56646 0.59309 0.0
H167 H 0.59491 0.56082 0.5494 0.0
H168 H 0.49155 0.46277 0.54223 0.0
H169 H 0.47931 0.46822 0.58608 0.0
H170 H 0.5382 0.60119 0.63633 0.0
H171 H 0.49886 0.62359 0.62354 0.0
H172 H 0.41352 0.51868 0.60105 0.0
H173 H 0.45217 0.49658 0.61462 0.0
O174 O 0.59113 0.53923 0.7902 0.0
O175 O 0.53221 0.4977 0.79259 0.0
O176 O 0.61444 0.43298 0.55288 0.0
O177 O 0.55819 0.38587 0.55362 0.0
C178 C 0.5253 0.53191 0.66234 0.0
C179 C 0.53886 0.51147 0.67209 0.0
C180 C 0.54725 0.49173 0.65594 0.0
C181 C 0.54414 0.49399 0.62994 0.0
C182 C 0.53033 0.51422 0.62011 0.0
C183 C 0.51954 0.53223 0.63633 0.0
C184 C 0.51726 0.55239 0.68017 0.0
C185 C 0.54647 0.58434 0.68975 0.0
C186 C 0.5434 0.59776 0.71263 0.0
C187 C 0.51119 0.57913 0.72627 0.0
C188 C 0.48079 0.54896 0.71546 0.0
C189 C 0.48372 0.53582 0.69239 0.0
C190 C 0.5443 0.51089 0.69948 0.0
C191 C 0.57884 0.53347 0.71066 0.0
C192 C 0.5834 0.53504 0.73663 0.0
C193 C 0.55347 0.51392 0.75182 0.0
C194 C 0.51903 0.49077 0.74042 0.0
C195 C 0.51453 0.48927 0.71447 0.0
C196 C 0.55751 0.46738 0.66636 0.0
C197 C 0.59357 0.47458 0.66507 0.0
C198 C 0.6027 0.45129 0.67504 0.0
C199 C 0.57598 0.42081 0.68676 0.0
C200 C 0.53993 0.41377 0.68796 0.0
C201 C 0.53075 0.43674 0.6777 0.0
C202 C 0.55462 0.47446 0.61286 0.0
C203 C 0.5896 0.49128 0.60259 0.0
C204 C 0.59916 0.47321 0.58595 0.0
C205 C 0.57371 0.43807 0.57913 0.0
C206 C 0.53872 0.4213 0.58963 0.0
C207 C 0.52933 0.43933 0.60645 0.0
C208 C 0.52989 0.51777 0.5927 0.0
C209 C 0.56145 0.54474 0.58173 0.0
C210 C 0.56877 0.54136 0.55689 0.0
C211 C 0.5443 0.51124 0.54268 0.0
C212 C 0.51063 0.48635 0.5528 0.0
C213 C 0.50352 0.48953 0.57778 0.0
C214 C 0.49805 0.5472 0.62647 0.0
C215 C 0.51104 0.58315 0.62856 0.0
C216 C 0.48861 0.59591 0.62113 0.0
C217 C 0.45283 0.57286 0.61158 0.0
C218 C 0.44058 0.53708 0.60881 0.0
C219 C 0.46285 0.52443 0.61626 0.0
C220 C 0.55815 0.51632 0.77942 0.0
C221 C 0.58348 0.41895 0.5611 0.0
H222 H 0.0729 0.47609 0.97742 0.0
H223 H 0.21789 0.52151 0.69599 0.0
H224 H 5e-05 0.49162 0.85607 0.0
H225 H 0.96521 0.4712 0.89423 0.0
H226 H 0.93675 0.36557 0.87567 0.0
H227 H 0.97247 0.38659 0.83762 0.0
H228 H 0.07823 0.51658 0.87343 0.0
H229 H 0.08076 0.51016 0.91862 0.0
H230 H 0.04352 0.40071 0.90688 0.0
H231 H 0.04147 0.40765 0.86173 0.0
H232 H 0.14214 0.54272 0.83729 0.0
H233 H 0.20209 0.55672 0.85398 0.0
H234 H 0.16839 0.44764 0.84655 0.0
H235 H 0.1084 0.43394 0.82993 0.0
H236 H 0.13418 0.55103 0.78884 0.0
H237 H 0.18295 0.57364 0.75822 0.0
H238 H 0.14819 0.46756 0.73538 0.0
H239 H 0.09985 0.44538 0.76628 0.0
H240 H 0.06489 0.5344 0.76519 0.0
H241 H 0.08982 0.55191 0.72381 0.0
H242 H 0.04871 0.4435 0.70377 0.0
H243 H 0.02765 0.42704 0.74603 0.0
H244 H 0.96428 0.47657 0.8042 0.0
H245 H 0.89903 0.44085 0.79192 0.0
H246 H 0.91751 0.36183 0.76093 0.0
H247 H 0.98142 0.39635 0.77474 0.0
O248 O 0.07263 0.47829 0.95947 0.0
O249 O 0.05321 0.42213 0.95241 0.0
O250 O 0.21824 0.56734 0.72239 0.0
O251 O 0.2 0.51331 0.70902 0.0
C252 C 0.01997 0.4549 0.82695 0.0
C253 C 0.05506 0.46588 0.83726 0.0
C254 C 0.08548 0.47911 0.82177 0.0
C255 C 0.08145 0.48302 0.79614 0.0
C256 C 0.04648 0.47267 0.7857 0.0
C257 C 0.01532 0.4572 0.80098 0.0
C258 C 0.98867 0.44058 0.84408 0.0
C259 C 0.98493 0.46384 0.85969 0.0
C260 C 0.96517 0.4521 0.8816 0.0
C261 C 0.94872 0.41682 0.88822 0.0
C262 C 0.9497 0.39301 0.87131 0.0
C263 C 0.9695 0.40482 0.84935 0.0
C264 C 0.05963 0.46258 0.86442 0.0
C265 C 0.07107 0.49138 0.88068 0.0
C266 C 0.0723 0.48757 0.90647 0.0
C267 C 0.06215 0.45486 0.91638 0.0
C268 C 0.05144 0.42623 0.89988 0.0
C269 C 0.05033 0.43012 0.87411 0.0
C270 C 0.12134 0.48746 0.83225 0.0
C271 C 0.14784 0.52195 0.83925 0.0
C272 C 0.18194 0.52983 0.84871 0.0
C273 C 0.18989 0.50325 0.85139 0.0
C274 C 0.16288 0.46855 0.84481 0.0
C275 C 0.12883 0.46074 0.83523 0.0
C276 C 0.11363 0.49662 0.77976 0.0
C277 C 0.13764 0.53277 0.77753 0.0
C278 C 0.16527 0.54558 0.7599 0.0
C279 C 0.1693 0.52239 0.74422 0.0
C280 C 0.14579 0.48614 0.74709 0.0
C281 C 0.11828 0.47338 0.76478 0.0
C282 C 0.0443 0.47938 0.75881 0.0
C283 C 0.05982 0.51423 0.7515 0.0
C284 C 0.07435 0.52426 0.7277 0.0
C285 C 0.07258 0.49934 0.71049 0.0
C286 C 0.05206 0.46372 0.71678 0.0
C287 C 0.0387 0.45393 0.74084 0.0
C288 C 0.97778 0.43939 0.78986 0.0
C289 C 0.95421 0.45181 0.79435 0.0
C290 C 0.91699 0.43139 0.78729 0.0
C291 C 0.9029 0.39827 0.77566 0.0
C292 C 0.92718 0.38686 0.77025 0.0
C293 C 0.96401 0.40695 0.77761 0.0
C294 C 0.06239 0.45064 0.9438 0.0
C295 C 0.19742 0.53583 0.72464 0.0
H296 H 0.43418 0.95633 0.82223 0.0
H297 H 0.43441 0.79748 0.07361 0.0
H298 H 0.48147 0.04417 0.94115 0.0
H299 H 0.50791 0.0809 0.90485 0.0
H300 H 0.61348 0.09533 0.9244 0.0
H301 H 0.58641 0.05742 0.96005 0.0
H302 H 0.42952 0.95957 0.93131 0.0
H303 H 0.42041 0.95415 0.88587 0.0
H304 H 0.53576 0.9926 0.87731 0.0
H305 H 0.54431 0.99724 0.92273 0.0
H306 H 0.40977 0.89415 0.97135 0.0
H307 H 0.39241 0.83568 0.9551 0.0
H308 H 0.50343 0.87755 0.93066 0.0
H309 H 0.5203 0.93504 0.94689 0.0
H310 H 0.42359 0.92985 0.02791 0.0
H311 H 0.39974 0.87937 0.05507 0.0
H312 H 0.48525 0.86184 0.03116 0.0
H313 H 0.50912 0.9127 0.0044 0.0
H314 H 0.46959 0.00397 0.04669 0.0
H315 H 0.46792 0.99009 0.09098 0.0
H316 H 0.55053 0.96372 0.07885 0.0
H317 H 0.55224 0.97799 0.03496 0.0
H318 H 0.51524 0.07873 0.99706 0.0
H319 H 0.56302 0.13799 0.01036 0.0
H320 H 0.63194 0.09874 0.03397 0.0
H321 H 0.58553 0.0406 0.0186 0.0
O322 O 0.43832 0.95837 0.84015 0.0
O323 O 0.49792 0.97871 0.83678 0.0
O324 O 0.39998 0.82783 0.07483 0.0
O325 O 0.44309 0.81739 0.06289 0.0
C326 C 0.51374 0.01697 0.9694 0.0
C327 C 0.49304 0.98327 0.95791 0.0
C328 C 0.479 0.95317 0.97247 0.0
C329 C 0.48333 0.95651 0.99868 0.0
C330 C 0.50437 0.99005 0.01026 0.0
C331 C 0.52034 0.02037 0.9956 0.0
C332 C 0.53192 0.04785 0.9531 0.0
C333 C 0.51059 0.05631 0.93808 0.0
C334 C 0.52578 0.07731 0.91732 0.0
C335 C 0.56263 0.09041 0.91145 0.0
C336 C 0.5848 0.08496 0.92814 0.0
C337 C 0.56953 0.06375 0.94876 0.0
C338 C 0.48763 0.97922 0.93029 0.0
C339 C 0.45273 0.96668 0.91957 0.0
C340 C 0.44764 0.96369 0.89362 0.0
C341 C 0.4774 0.97311 0.87795 0.0
C342 C 0.51228 0.98524 0.88882 0.0
C343 C 0.51728 0.98806 0.91475 0.0
C344 C 0.4662 0.91879 0.96009 0.0
C345 C 0.42999 0.89062 0.96204 0.0
C346 C 0.4202 0.85738 0.95284 0.0
C347 C 0.44649 0.85212 0.94143 0.0
C348 C 0.4823 0.88082 0.93878 0.0
C349 C 0.49205 0.91373 0.9481 0.0
C350 C 0.4679 0.92474 0.01411 0.0
C351 C 0.437 0.91495 0.02851 0.0
C352 C 0.42348 0.88615 0.04401 0.0
C353 C 0.44059 0.86654 0.04528 0.0
C354 C 0.4714 0.87632 0.03062 0.0
C355 C 0.48499 0.90524 0.01522 0.0
C356 C 0.51118 0.99219 0.03767 0.0
C357 C 0.48838 0.99662 0.05389 0.0
C358 C 0.48715 0.98823 0.07908 0.0
C359 C 0.5088 0.97541 0.08838 0.0
C360 C 0.53379 0.97386 0.07244 0.0
C361 C 0.5349 0.98211 0.04732 0.0
C362 C 0.54669 0.05521 0.00707 0.0
C363 C 0.5406 0.083 0.0053 0.0
C364 C 0.5679 0.11683 0.01306 0.0
C365 C 0.60161 0.12335 0.02308 0.0
C366 C 0.60677 0.095 0.02584 0.0
C367 C 0.57986 0.06145 0.01757 0.0
C368 C 0.47198 0.97028 0.85039 0.0
C369 C 0.42655 0.83612 0.0619 0.0
H370 H 0.58083 0.51414 0.99103 0.0
H371 H 0.68423 0.49809 0.28366 0.0
H372 H 0.53385 0.5673 0.11661 0.0
H373 H 0.52157 0.58468 0.07646 0.0
H374 H 0.63739 0.66083 0.06994 0.0
H375 H 0.64938 0.64189 0.10968 0.0
H376 H 0.55267 0.51964 0.09696 0.0
H377 H 0.55342 0.51074 0.05187 0.0
H378 H 0.6717 0.57737 0.054 0.0
H379 H 0.67047 0.58627 0.09914 0.0
H380 H 0.58203 0.48043 0.1225 0.0
H381 H 0.60473 0.4414 0.11232 0.0
H382 H 0.71078 0.51764 0.14445 0.0
H383 H 0.68851 0.55694 0.1537 0.0
H384 H 0.58047 0.48168 0.18399 0.0
H385 H 0.59403 0.45482 0.21871 0.0
H386 H 0.69099 0.55488 0.238 0.0
H387 H 0.67739 0.58124 0.20307 0.0
H388 H 0.55317 0.52452 0.20867 0.0
H389 H 0.56413 0.51725 0.25167 0.0
H390 H 0.65643 0.62431 0.25528 0.0
H391 H 0.64756 0.62925 0.21087 0.0
H392 H 0.53502 0.58236 0.18055 0.0
H393 H 0.52278 0.62786 0.19403 0.0
H394 H 0.63172 0.70759 0.17244 0.0
H395 H 0.64373 0.66199 0.15925 0.0
O396 O 0.58123 0.51779 0.00892 0.0
O397 O 0.6419 0.55321 0.01082 0.0
O398 O 0.63059 0.45614 0.25742 0.0
O399 O 0.67927 0.50756 0.26905 0.0
C400 C 0.60059 0.58538 0.13564 0.0
C401 C 0.61046 0.56101 0.12821 0.0
C402 C 0.61988 0.5444 0.14635 0.0
C403 C 0.61735 0.55056 0.1719 0.0
C404 C 0.6051 0.57322 0.17935 0.0
C405 C 0.59818 0.59179 0.16122 0.0
C406 C 0.59242 0.60344 0.11601 0.0
C407 C 0.55634 0.58859 0.1069 0.0
C408 C 0.54946 0.59854 0.08387 0.0
C409 C 0.57859 0.62388 0.06975 0.0
C410 C 0.61444 0.64071 0.08004 0.0
C411 C 0.6213 0.63042 0.10294 0.0
C412 C 0.61151 0.55355 0.10124 0.0
C413 C 0.57872 0.5321 0.08766 0.0
C414 C 0.57923 0.52712 0.06191 0.0
C415 C 0.61262 0.54341 0.04931 0.0
C416 C 0.64552 0.56448 0.06312 0.0
C417 C 0.64494 0.56947 0.0889 0.0
C418 C 0.63367 0.52145 0.13884 0.0
C419 C 0.61028 0.48883 0.127 0.0
C420 C 0.62312 0.46657 0.12136 0.0
C421 C 0.65924 0.47647 0.12798 0.0
C422 C 0.68263 0.50927 0.13958 0.0
C423 C 0.67004 0.53172 0.14474 0.0
C424 C 0.62779 0.53343 0.19116 0.0
C425 C 0.60492 0.49759 0.19551 0.0
C426 C 0.61263 0.48239 0.21543 0.0
C427 C 0.64341 0.50281 0.2313 0.0
C428 C 0.66695 0.53845 0.22627 0.0
C429 C 0.65928 0.55357 0.20631 0.0
C430 C 0.60034 0.57687 0.20641 0.0
C431 C 0.57493 0.54688 0.21903 0.0
C432 C 0.5815 0.54281 0.24395 0.0
C433 C 0.61266 0.56954 0.25711 0.0
C434 C 0.63361 0.60219 0.24553 0.0
C435 C 0.62794 0.60561 0.2202 0.0
C436 C 0.59021 0.61896 0.16894 0.0
C437 C 0.55613 0.60967 0.17871 0.0
C438 C 0.54916 0.63565 0.18625 0.0
C439 C 0.57632 0.6713 0.18429 0.0
C440 C 0.61041 0.68039 0.1744 0.0
C441 C 0.61723 0.65443 0.16673 0.0
C442 C 0.61296 0.53852 0.02188 0.0
C443 C 0.65064 0.48728 0.25329 0.0
Mn444 Mn 0.65611 0.43376 0.40745 0.0
Mn445 Mn 0.70508 0.51996 0.42317 0.0
C446 C 0.63481 0.45564 0.43763 0.0
C447 C 0.64423 0.37722 0.41221 0.0
C448 C 0.65822 0.49088 0.37582 0.0
O449 O 0.70646 0.45043 0.39285 0.0
O450 O 0.73783 0.50581 0.40828 0.0
C451 C 0.75257 0.51884 0.46342 0.0
N452 N 0.72756 0.527 0.45552 0.0
C453 C 0.72851 0.55191 0.49582 0.0
C454 C 0.75444 0.54397 0.50435 0.0
C455 C 0.76645 0.52728 0.4881 0.0
C456 C 0.71575 0.54297 0.47102 0.0
H457 H 0.76181 0.50597 0.45098 0.0
C458 C 0.73624 0.47991 0.39653 0.0
O459 O 0.6347 0.38618 0.39188 0.0
O460 O 0.66137 0.40113 0.42954 0.0
N461 N 0.67685 0.53721 0.43802 0.0
C462 C 0.65021 0.54125 0.42731 0.0
C463 C 0.63446 0.5566 0.44132 0.0
C464 C 0.6465 0.56797 0.46608 0.0
C465 C 0.67428 0.56396 0.47659 0.0
C466 C 0.68909 0.54864 0.46168 0.0
H467 H 0.64087 0.53265 0.40828 0.0
O468 O 0.61262 0.42587 0.42642 0.0
O469 O 0.66901 0.4713 0.43136 0.0
O470 O 0.64441 0.45852 0.38029 0.0
O471 O 0.68245 0.5157 0.38988 0.0
C472 C 0.68726 0.57382 0.50146 0.0
C473 C 0.71429 0.56774 0.51108 0.0
H474 H 0.76509 0.55029 0.5234 0.0
H475 H 0.78633 0.52092 0.49458 0.0
H476 H 0.613 0.55956 0.43309 0.0
H477 H 0.63399 0.57943 0.47692 0.0
H478 H 0.67618 0.58555 0.51347 0.0
H479 H 0.72363 0.57493 0.53034 0.0
Mn480 Mn 0.25311 0.6368 0.55549 0.0
Mn481 Mn 0.20988 0.54933 0.54493 0.0
C482 C 0.20558 0.60941 0.52604 0.0
C483 C 0.29973 0.69381 0.54607 0.0
C484 C 0.19588 0.58182 0.59009 0.0
O485 O 0.28908 0.62461 0.57101 0.0
O486 O 0.25808 0.56658 0.56192 0.0
C487 C 0.26044 0.54915 0.50781 0.0
N488 N 0.22597 0.54033 0.51418 0.0
C489 C 0.20119 0.51208 0.47413 0.0
C490 C 0.23641 0.52067 0.46719 0.0
C491 C 0.26616 0.53934 0.4841 0.0
C492 C 0.19715 0.52242 0.49805 0.0
H493 H 0.28339 0.5636 0.52073 0.0
C494 C 0.2857 0.59451 0.5714 0.0
O495 O 0.2837 0.6869 0.56747 0.0
O496 O 0.28984 0.6675 0.53084 0.0
N497 N 0.16283 0.52905 0.52854 0.0
C498 C 0.13108 0.52463 0.53761 0.0
C499 C 0.09886 0.50731 0.52272 0.0
C500 C 0.09955 0.49446 0.49879 0.0
C501 C 0.13246 0.49896 0.48999 0.0
C502 C 0.16364 0.51623 0.50573 0.0
H503 H 0.13042 0.53447 0.55599 0.0
O504 O 0.21438 0.63951 0.53585 0.0
O505 O 0.22473 0.59629 0.53382 0.0
O506 O 0.21779 0.61387 0.58468 0.0
O507 O 0.19119 0.55603 0.57657 0.0
C508 C 0.13573 0.48771 0.466 0.0
C509 C 0.17009 0.49433 0.45806 0.0
H510 H 0.24097 0.51333 0.44886 0.0
H511 H 0.29345 0.54622 0.47883 0.0
H512 H 0.07358 0.50399 0.52963 0.0
H513 H 0.07474 0.48149 0.48725 0.0
H514 H 0.11214 0.47448 0.45336 0.0
H515 H 0.17239 0.48606 0.43943 0.0
Mn516 Mn 0.61967 0.22458 0.73474 0.0
Mn517 Mn 0.64607 0.16563 0.73021 0.0
C518 C 0.5852 0.1738 0.71088 0.0
C519 C 0.62129 0.27461 0.7213 0.0
C520 C 0.61039 0.17422 0.77604 0.0
O521 O 0.67321 0.25274 0.74654 0.0
O522 O 0.68863 0.21202 0.74094 0.0
C523 C 0.69607 0.19517 0.68771 0.0
N524 N 0.66605 0.16784 0.69811 0.0
C525 C 0.65572 0.13053 0.66228 0.0
C526 C 0.68664 0.15823 0.65123 0.0
C527 C 0.70682 0.19072 0.66397 0.0
C528 C 0.64633 0.13652 0.68597 0.0
H529 H 0.71166 0.22017 0.69746 0.0
C530 C 0.69645 0.24298 0.74713 0.0
O531 O 0.61231 0.26359 0.74387 0.0
O532 O 0.63012 0.25696 0.70665 0.0
N533 N 0.60757 0.11969 0.7198 0.0
C534 C 0.5772 0.09641 0.73238 0.0
C535 C 0.55314 0.06307 0.7217 0.0
C536 C 0.56074 0.05392 0.69835 0.0
C537 C 0.59237 0.07819 0.68589 0.0
C538 C 0.61538 0.11098 0.69748 0.0
H539 H 0.57127 0.10331 0.75034 0.0
O540 O 0.57036 0.19077 0.71925 0.0
O541 O 0.61967 0.18708 0.7167 0.0
O542 O 0.6054 0.19784 0.7674 0.0
O543 O 0.62549 0.16068 0.76372 0.0
C544 C 0.60167 0.07134 0.66225 0.0
C545 C 0.63337 0.09746 0.65048 0.0
H546 H 0.69492 0.15495 0.63287 0.0
H547 H 0.73061 0.21227 0.65551 0.0
H548 H 0.52877 0.04448 0.73143 0.0
H549 H 0.54199 0.02826 0.6901 0.0
H550 H 0.58434 0.04627 0.65279 0.0
H551 H 0.6399 0.09208 0.63213 0.0
Mn552 Mn 0.4749 0.64504 0.90228 0.0
Mn553 Mn 0.4477 0.56371 0.91972 0.0
C554 C 0.50338 0.63727 0.9362 0.0
C555 C 0.46529 0.69138 0.90351 0.0
C556 C 0.48857 0.59637 0.87199 0.0
O557 O 0.42551 0.61413 0.8849 0.0
O558 O 0.40442 0.563 0.90456 0.0
C559 C 0.39637 0.55286 0.96001 0.0
N560 N 0.42754 0.55468 0.95233 0.0
C561 C 0.44056 0.54278 0.99362 0.0
C562 C 0.40849 0.5406 0.00195 0.0
C563 C 0.38633 0.5457 0.98507 0.0
C564 C 0.44903 0.54974 0.9684 0.0
H565 H 0.37939 0.55698 0.94712 0.0
C566 C 0.40001 0.58306 0.88988 0.0
O567 O 0.48168 0.68683 0.8849 0.0
O568 O 0.45496 0.66924 0.92146 0.0
N569 N 0.4877 0.56218 0.93488 0.0
C570 C 0.51902 0.56763 0.92429 0.0
C571 C 0.54484 0.56478 0.93889 0.0
C572 C 0.53819 0.5563 0.96418 0.0
C573 C 0.50572 0.55067 0.97466 0.0
C574 C 0.48086 0.55365 0.95914 0.0
H575 H 0.52435 0.57424 0.90489 0.0
O576 O 0.51965 0.66692 0.92482 0.0
O577 O 0.47141 0.61373 0.92714 0.0
O578 O 0.49799 0.62771 0.87766 0.0
O579 O 0.46849 0.57046 0.88587 0.0
C580 C 0.49751 0.54318 1.00003 0.0
C581 C 0.46495 0.53923 0.00951 0.0
H582 H 0.40081 0.53539 0.02131 0.0
H583 H 0.36164 0.54426 0.99139 0.0
H584 H 0.56992 0.56929 0.9307 0.0
H585 H 0.55842 0.55463 0.97546 0.0
H586 H 0.51635 0.54099 0.01251 0.0
H587 H 0.45924 0.53405 0.02913 0.0
Mn588 Mn 0.812 0.38299 0.06322 0.0
Mn589 Mn 0.86508 0.34886 0.07259 0.0
C590 C 0.86232 0.4109 0.09001 0.0
C591 C 0.76234 0.38833 0.07259 0.0
C592 C 0.8657 0.38523 0.02511 0.0
O593 O 0.77918 0.33249 0.0515 0.0
O594 O 0.81553 0.31098 0.06025 0.0
C595 C 0.82615 0.30276 0.11471 0.0
N596 N 0.85732 0.32994 0.10528 0.0
C597 C 0.89015 0.33969 0.14436 0.0
C598 C 0.85845 0.31165 0.15442 0.0
C599 C 0.82631 0.29314 0.13953 0.0
C600 C 0.88844 0.34786 0.11942 0.0
H601 H 0.80129 0.28864 0.1034 0.0
C602 C 0.78517 0.30742 0.05248 0.0
O603 O 0.77642 0.39521 0.05058 0.0
O604 O 0.77646 0.37733 0.089 0.0
N605 N 0.91325 0.38311 0.08493 0.0
C606 C 0.94059 0.41104 0.07299 0.0
C607 C 0.97419 0.43314 0.08563 0.0
C608 C 0.97931 0.42632 0.11039 0.0
C609 C 0.95081 0.39736 0.12227 0.0
C610 C 0.91807 0.37603 0.10864 0.0
H611 H 0.93669 0.41658 0.05404 0.0
O612 O 0.84951 0.42852 0.0796 0.0
O613 O 0.84578 0.37789 0.0838 0.0
O614 O 0.843 0.39354 0.03242 0.0
O615 O 0.87577 0.36815 0.03848 0.0
C616 C 0.95332 0.38932 0.14728 0.0
C617 C 0.92303 0.36046 0.15831 0.0
H618 H 0.85834 0.30439 0.17364 0.0
H619 H 0.80167 0.27162 0.14722 0.0
H620 H 0.996 0.45553 0.07638 0.0
H621 H 0.00508 0.44371 0.12018 0.0
H622 H 0.97822 0.40547 0.15833 0.0
H623 H 0.92508 0.35489 0.17767 0.0
Mn624 Mn 0.44758 0.81309 0.24045 0.0
Mn625 Mn 0.53597 0.86412 0.25938 0.0
C626 C 0.46218 0.849 0.27534 0.0
C627 C 0.39218 0.75976 0.23995 0.0
C628 C 0.50321 0.87937 0.21419 0.0
O629 O 0.47303 0.79167 0.22251 0.0
O630 O 0.53005 0.82324 0.23964 0.0
C631 C 0.54271 0.81654 0.29384 0.0
N632 N 0.54495 0.84754 0.28972 0.0
C633 C 0.56362 0.86654 0.33246 0.0
C634 C 0.56174 0.83491 0.33712 0.0
C635 C 0.5512 0.8098 0.31773 0.0
C636 C 0.55523 0.87196 0.30822 0.0
H637 H 0.53444 0.79709 0.27902 0.0
C638 C 0.50558 0.79791 0.22577 0.0
O639 O 0.40081 0.78158 0.22191 0.0
O640 O 0.41608 0.76869 0.25811 0.0
N641 N 0.54467 0.90393 0.27902 0.0
C642 C 0.5424 0.93187 0.27194 0.0
C643 C 0.55043 0.95867 0.28948 0.0
C644 C 0.56083 0.95654 0.31407 0.0
C645 C 0.56317 0.92764 0.32088 0.0
C646 C 0.55507 0.90183 0.30255 0.0
H647 H 0.53421 0.93356 0.25312 0.0
O648 O 0.43134 0.83775 0.26325 0.0
O649 O 0.48343 0.83879 0.2666 0.0
O650 O 0.4703 0.85456 0.21723 0.0
O651 O 0.52999 0.88434 0.22824 0.0
C652 C 0.57232 0.923 0.3453 0.0
C653 C 0.57261 0.8925 0.35108 0.0
H654 H 0.56794 0.82947 0.35557 0.0
H655 H 0.54949 0.78525 0.32121 0.0
H656 H 0.5484 0.98081 0.28411 0.0
H657 H 0.56659 0.97707 0.32761 0.0
H658 H 0.57862 0.94247 0.35988 0.0
H659 H 0.57915 0.889 0.37 0.0
H660 H 0.22637 0.63832 0.23364 0.0
H661 H 0.25743 0.61108 0.30267 0.0
H662 H 0.32131 0.6575 0.29723 0.0
H663 H 0.36705 0.70933 0.2749 0.0
H664 H 0.33539 0.73731 0.20635 0.0
H665 H 0.27306 0.68716 0.20958 0.0
C666 C 0.24722 0.64243 0.24738 0.0
C667 C 0.23721 0.62153 0.2686 0.0
C668 C 0.2837 0.66949 0.24434 0.0
C669 C 0.26452 0.62668 0.28608 0.0
C670 C 0.30098 0.65341 0.28309 0.0
C671 C 0.34661 0.70425 0.26053 0.0
C672 C 0.35574 0.72724 0.24057 0.0
C673 C 0.31071 0.6755 0.2626 0.0
C674 C 0.32904 0.72014 0.222 0.0
C675 C 0.29335 0.69149 0.22384 0.0
H676 H 0.62062 0.22968 0.43608 0.0
H677 H 0.50808 0.20404 0.43842 0.0
H678 H 0.52688 0.26263 0.42554 0.0
H679 H 0.57541 0.3225 0.41555 0.0
H680 H 0.68841 0.35102 0.41937 0.0
H681 H 0.66945 0.29031 0.42851 0.0
C682 C 0.60007 0.23678 0.4342 0.0
C683 C 0.56274 0.21168 0.43807 0.0
C684 C 0.61125 0.27132 0.42796 0.0
C685 C 0.53683 0.22191 0.43492 0.0
C686 C 0.54759 0.25577 0.42781 0.0
C687 C 0.59574 0.31517 0.41818 0.0
C688 C 0.63309 0.34068 0.41649 0.0
C689 C 0.58468 0.28072 0.42442 0.0
C690 C 0.65945 0.33147 0.42043 0.0
C691 C 0.6486 0.29688 0.42569 0.0
H692 H 0.38075 0.54167 0.62195 0.0
H693 H 0.46825 0.63238 0.58677 0.0
H694 H 0.42497 0.64971 0.5734 0.0
H695 H 0.36064 0.63595 0.56866 0.0
H696 H 0.27383 0.54275 0.60202 0.0
H697 H 0.31828 0.52953 0.61907 0.0
C698 C 0.39042 0.56518 0.61126 0.0
C699 C 0.4276 0.58536 0.60505 0.0
C700 C 0.36535 0.57452 0.60325 0.0
C701 C 0.43977 0.61633 0.59182 0.0
C702 C 0.41498 0.62615 0.58405 0.0
C703 C 0.35172 0.61315 0.58003 0.0
C704 C 0.31405 0.59028 0.58405 0.0
C705 C 0.3775 0.60508 0.58926 0.0
C706 C 0.30268 0.56058 0.59857 0.0
C707 C 0.32805 0.55296 0.60829 0.0
H708 H 0.8623 0.32825 0.78219 0.0
H709 H 0.85323 0.41496 0.75789 0.0
H710 H 0.78777 0.37491 0.74842 0.0
H711 H 0.7337 0.3145 0.74518 0.0
H712 H 0.74534 0.22836 0.76736 0.0
H713 H 0.80936 0.26896 0.7791 0.0
C714 C 0.84623 0.33847 0.7745 0.0
C715 C 0.86287 0.37455 0.77044 0.0
C716 C 0.80901 0.31532 0.76863 0.0
C717 C 0.84116 0.38733 0.76127 0.0
C718 C 0.80376 0.3644 0.75572 0.0
C719 C 0.75023 0.30472 0.75276 0.0
C720 C 0.73475 0.26843 0.75531 0.0
C721 C 0.78745 0.32826 0.75911 0.0
C722 C 0.75659 0.25611 0.765 0.0
C723 C 0.79322 0.27931 0.77177 0.0
H724 H 0.4665 0.83212 0.89954 0.0
H725 H 0.40922 0.79275 0.96839 0.0
H726 H 0.40696 0.73769 0.96134 0.0
H727 H 0.4282 0.70404 0.93847 0.0
H728 H 0.48851 0.74473 0.87079 0.0
H729 H 0.48306 0.79623 0.8747 0.0
C730 C 0.45318 0.81131 0.91285 0.0
C731 C 0.43842 0.81662 0.93457 0.0
C732 C 0.45314 0.78027 0.90914 0.0
C733 C 0.42057 0.78923 0.95143 0.0
C734 C 0.41967 0.7579 0.94757 0.0
C735 C 0.43991 0.72405 0.92446 0.0
C736 C 0.45924 0.7209 0.9046 0.0
C737 C 0.43699 0.75368 0.92696 0.0
C738 C 0.47382 0.74675 0.88641 0.0
C739 C 0.47069 0.77617 0.88861 0.0
H740 H 0.65894 0.44799 0.08311 0.0
H741 H 0.69156 0.45405 0.1604 0.0
H742 H 0.72225 0.42224 0.15041 0.0
H743 H 0.74556 0.39891 0.11903 0.0
H744 H 0.71735 0.39727 0.04118 0.0
H745 H 0.67859 0.42053 0.052 0.0
C746 C 0.67217 0.44164 0.09775 0.0
C747 C 0.67326 0.4533 0.12237 0.0
C748 C 0.69067 0.42436 0.09173 0.0
C749 C 0.69074 0.44543 0.14127 0.0
C750 C 0.70824 0.4273 0.13557 0.0
C751 C 0.73031 0.40296 0.1045 0.0
C752 C 0.73437 0.39659 0.07937 0.0
C753 C 0.70924 0.41753 0.11076 0.0
C754 C 0.71476 0.40221 0.06067 0.0
C755 C 0.6927 0.41559 0.06683 0.0
H756 H 0.39237 0.83872 0.49293 0.0
H757 H 0.41539 0.87742 0.56908 0.0
H758 H 0.37873 0.81734 0.58409 0.0
H759 H 0.33793 0.75363 0.5752 0.0
H760 H 0.31865 0.71562 0.49869 0.0
H761 H 0.35608 0.77528 0.4842 0.0
C762 C 0.38943 0.83384 0.5128 0.0
C763 C 0.40617 0.86222 0.52992 0.0
C764 C 0.36895 0.79933 0.52121 0.0
C765 C 0.40264 0.8558 0.55562 0.0
C766 C 0.38164 0.82152 0.56416 0.0
C767 C 0.3422 0.75846 0.55539 0.0
C768 C 0.32533 0.73015 0.53808 0.0
C769 C 0.36435 0.79303 0.54711 0.0
C770 C 0.33136 0.73683 0.51246 0.0
C771 C 0.35267 0.77101 0.50411 0.0
H772 H 0.61307 0.39348 0.66509 0.0
H773 H 0.55931 0.39262 0.73286 0.0
H774 H 0.57071 0.34885 0.75016 0.0
H775 H 0.59311 0.30878 0.74521 0.0
H776 H 0.64478 0.30762 0.67686 0.0
H777 H 0.63745 0.35448 0.6607 0.0
C778 C 0.60432 0.38398 0.68376 0.0
C779 C 0.5853 0.3961 0.69767 0.0
C780 C 0.61048 0.35842 0.69343 0.0
C781 C 0.57369 0.38336 0.72172 0.0
C782 C 0.58027 0.35843 0.73164 0.0
C783 C 0.60309 0.31899 0.72687 0.0
C784 C 0.61941 0.3047 0.71225 0.0
C785 C 0.59818 0.34543 0.71753 0.0
C786 C 0.63203 0.31812 0.68847 0.0
C787 C 0.62781 0.34489 0.6792 0.0
H788 H 0.25524 0.55635 0.83645 0.0
H789 H 0.20674 0.46941 0.88629 0.0
H790 H 0.2678 0.48521 0.90176 0.0
H791 H 0.33483 0.52539 0.90226 0.0
H792 H 0.38241 0.61282 0.85252 0.0
H793 H 0.32176 0.59517 0.83599 0.0
C794 C 0.25806 0.541 0.85082 0.0
C795 C 0.22666 0.51201 0.8604 0.0
C796 C 0.29304 0.55032 0.85965 0.0
C797 C 0.23062 0.49182 0.87859 0.0
C798 C 0.26547 0.50091 0.88749 0.0
C799 C 0.33197 0.54041 0.88766 0.0
C800 C 0.36319 0.5705 0.87879 0.0
C801 C 0.29688 0.5303 0.87829 0.0
C802 C 0.35891 0.58968 0.85988 0.0
C803 C 0.32421 0.57965 0.85037 0.0
H804 H 0.67495 0.15152 0.01718 0.0
H805 H 0.59656 0.17722 0.04364 0.0
H806 H 0.64631 0.23692 0.05359 0.0
H807 H 0.71219 0.28141 0.05579 0.0
H808 H 0.79054 0.25393 0.03277 0.0
H809 H 0.74054 0.19491 0.021 0.0
C810 C 0.6686 0.16986 0.02554 0.0
C811 C 0.63188 0.15964 0.02967 0.0
C812 C 0.69737 0.20383 0.03189 0.0
C813 C 0.62442 0.18433 0.03989 0.0
C814 C 0.6529 0.21846 0.04576 0.0
C815 C 0.71827 0.26253 0.04804 0.0
C816 C 0.75494 0.27201 0.04497 0.0
C817 C 0.68946 0.22846 0.04187 0.0
C818 C 0.76251 0.24719 0.03532 0.0
C819 C 0.73396 0.2135 0.02857 0.0
H820 H 0.51548 0.67475 0.17538 0.0
H821 H 0.62181 0.73 0.21247 0.0
H822 H 0.61023 0.77507 0.22741 0.0
H823 H 0.56903 0.79758 0.23126 0.0
H824 H 0.46233 0.74191 0.19436 0.0
H825 H 0.47503 0.69835 0.17809 0.0
C826 C 0.53603 0.69659 0.18682 0.0
C827 C 0.56938 0.69895 0.19287 0.0
C828 C 0.52917 0.72239 0.19538 0.0
C829 C 0.59601 0.72772 0.20738 0.0
C830 C 0.58936 0.75342 0.21602 0.0
C831 C 0.54861 0.77613 0.21948 0.0
C832 C 0.51471 0.77314 0.21418 0.0
C833 C 0.55594 0.75092 0.21026 0.0
C834 C 0.48866 0.745 0.19887 0.0
C835 C 0.49583 0.71994 0.18956 0.0
H836 H 0.89717 0.52725 0.36513 0.0
H837 H 0.84402 0.41897 0.34112 0.0
H838 H 0.78515 0.40876 0.35564 0.0
H839 H 0.74863 0.43122 0.37458 0.0
H840 H 0.80335 0.54015 0.39801 0.0
H841 H 0.86141 0.5494 0.38396 0.0
C842 C 0.87266 0.50145 0.36287 0.0
C843 C 0.87496 0.474 0.35189 0.0
C844 C 0.83904 0.49588 0.37107 0.0
C845 C 0.84306 0.44053 0.34965 0.0
C846 C 0.80935 0.43474 0.35781 0.0
C847 C 0.77321 0.457 0.37653 0.0
C848 C 0.77129 0.4849 0.3873 0.0
C849 C 0.80696 0.46231 0.36845 0.0
C850 C 0.80366 0.51808 0.3898 0.0
C851 C 0.83707 0.5235 0.38178 0.0
H852 H 0.13114 0.55036 0.42048 0.0
H853 H 0.043 0.55547 0.45398 0.0
H854 H 0.07958 0.57928 0.49298 0.0
H855 H 0.137 0.59789 0.51757 0.0
H856 H 0.22548 0.59515 0.48228 0.0
H857 H 0.18883 0.57177 0.44375 0.0
C858 C 0.11996 0.55662 0.43638 0.0
C859 C 0.08438 0.55077 0.43467 0.0
C860 C 0.14138 0.571 0.45824 0.0
C861 C 0.07029 0.55955 0.45511 0.0
C862 C 0.09122 0.57322 0.47728 0.0
C863 C 0.14805 0.59217 0.50134 0.0
C864 C 0.18314 0.59671 0.50288 0.0
C865 C 0.12682 0.57899 0.47909 0.0
C866 C 0.19793 0.5905 0.48165 0.0
C867 C 0.17713 0.57744 0.45959 0.0
H868 H 0.48882 0.05241 0.63184 0.0
H869 H 0.58776 0.11212 0.59018 0.0
H870 H 0.61576 0.15471 0.62441 0.0
H871 H 0.6129 0.17504 0.66628 0.0
H872 H 0.5159 0.11587 0.70942 0.0
H873 H 0.4862 0.07307 0.67465 0.0
C874 C 0.51658 0.07461 0.63043 0.0
C875 C 0.53627 0.07885 0.60857 0.0
C876 C 0.53289 0.09901 0.65047 0.0
C877 C 0.57217 0.10788 0.60691 0.0
C878 C 0.58816 0.13247 0.6264 0.0
C879 C 0.58542 0.15247 0.66812 0.0
C880 C 0.56695 0.14768 0.69048 0.0
C881 C 0.56892 0.12818 0.64828 0.0
C882 C 0.53079 0.11942 0.69242 0.0
C883 C 0.51392 0.09505 0.6726 0.0
H884 H 0.49238 0.53675 0.76572 0.0
H885 H 0.53084 0.64329 0.74601 0.0
H886 H 0.53106 0.65897 0.79005 0.0
H887 H 0.51712 0.64148 0.83357 0.0
H888 H 0.47814 0.53456 0.85319 0.0
H889 H 0.48199 0.52007 0.8097 0.0
C890 C 0.50051 0.56332 0.77111 0.0
C891 C 0.51087 0.58873 0.75274 0.0
C892 C 0.50086 0.57211 0.79638 0.0
C893 C 0.52242 0.6233 0.7599 0.0
C894 C 0.52263 0.63223 0.78503 0.0
C895 C 0.51001 0.61511 0.82849 0.0
C896 C 0.49709 0.5891 0.8467 0.0
C897 C 0.51159 0.60676 0.80338 0.0
C898 C 0.48801 0.55509 0.83962 0.0
C899 C 0.49001 0.54671 0.81471 0.0
H900 H 0.90742 0.43584 0.91444 0.0
H901 H 0.95795 0.37411 0.91945 0.0
H902 H 0.93739 0.35922 0.96227 0.0
H903 H 0.90589 0.36457 0.99867 0.0
H904 H 0.85678 0.42771 0.99354 0.0
H905 H 0.87667 0.4417 0.95073 0.0
C906 C 0.91399 0.41917 0.92491 0.0
C907 C 0.93391 0.4059 0.91363 0.0
C908 C 0.90266 0.4112 0.94967 0.0
C909 C 0.94193 0.38409 0.92744 0.0
C910 C 0.93055 0.37587 0.95206 0.0
C911 C 0.8997 0.38154 0.98826 0.0
C912 C 0.87981 0.39498 0.99946 0.0
C913 C 0.91104 0.38942 0.96343 0.0
C914 C 0.87195 0.41684 0.98552 0.0
C915 C 0.88326 0.42487 0.96094 0.0
H916 H 0.55957 0.98146 0.12297 0.0
H917 H 0.44291 0.9324 0.10959 0.0
H918 H 0.43102 0.90002 0.14802 0.0
H919 H 0.45341 0.88227 0.18367 0.0
H920 H 0.57002 0.92997 0.19685 0.0
H921 H 0.58214 0.96599 0.16022 0.0
C922 C 0.53156 0.96386 0.12858 0.0
C923 C 0.50222 0.95949 0.11341 0.0
C924 C 0.52485 0.94475 0.15053 0.0
C925 C 0.46607 0.93679 0.12107 0.0
C926 C 0.4592 0.91793 0.14294 0.0
C927 C 0.48153 0.90062 0.17866 0.0
C928 C 0.51071 0.90301 0.19294 0.0
C929 C 0.48835 0.92121 0.15754 0.0
C930 C 0.54695 0.92734 0.18621 0.0
C931 C 0.55395 0.94797 0.16522 0.0
H932 H 0.57298 0.51924 0.29207 0.0
H933 H 0.68394 0.60078 0.27531 0.0
H934 H 0.70703 0.58458 0.31073 0.0
H935 H 0.69683 0.54539 0.34539 0.0
H936 H 0.58774 0.45846 0.35811 0.0
H937 H 0.5633 0.47748 0.32441 0.0
C938 C 0.60231 0.53336 0.29567 0.0
C939 C 0.62622 0.56163 0.28064 0.0
C940 C 0.61604 0.52238 0.31516 0.0
C941 C 0.66414 0.57977 0.28665 0.0
C942 C 0.67773 0.57009 0.30678 0.0
C943 C 0.66773 0.53057 0.34065 0.0
C944 C 0.64409 0.50061 0.35412 0.0
C945 C 0.65403 0.54119 0.32095 0.0
C946 C 0.6065 0.48142 0.34778 0.0
C947 C 0.5925 0.49246 0.32868 0.0
H948 H 0.47849 0.88992 0.38982 0.0
H949 H 0.45247 0.96435 0.36163 0.0
H950 H 0.45027 0.94337 0.3189 0.0
H951 H 0.4545 0.90288 0.28951 0.0
H952 H 0.47729 0.82648 0.31779 0.0
H953 H 0.48206 0.849 0.36045 0.0
C954 C 0.47234 0.90145 0.37427 0.0
C955 C 0.46523 0.92829 0.3788 0.0
C956 C 0.47071 0.88898 0.34979 0.0
C957 C 0.45734 0.94316 0.35856 0.0
C958 C 0.45628 0.93133 0.33415 0.0
C959 C 0.46086 0.89153 0.30508 0.0
C960 C 0.46709 0.86416 0.30063 0.0
C961 C 0.46271 0.90413 0.32954 0.0
C962 C 0.47399 0.84863 0.32084 0.0
C963 C 0.4763 0.86123 0.3452 0.0
H964 H 0.60356 0.50596 0.53902 0.0
H965 H 0.51233 0.49514 0.49581 0.0
H966 H 0.5324 0.47674 0.45898 0.0
H967 H 0.57602 0.46316 0.4395 0.0
H968 H 0.66417 0.47012 0.48428 0.0
H969 H 0.64477 0.48979 0.52049 0.0
C970 C 0.58825 0.49977 0.52147 0.0
C971 C 0.55695 0.50236 0.51984 0.0
C972 C 0.59916 0.48811 0.50091 0.0
C973 C 0.53679 0.49365 0.49725 0.0
C974 C 0.54813 0.48299 0.47633 0.0
C975 C 0.59086 0.46912 0.45724 0.0
C976 C 0.62235 0.46685 0.45919 0.0
C977 C 0.57922 0.47999 0.478 0.0
C978 C 0.64073 0.47319 0.48231 0.0
C979 C 0.62949 0.48412 0.50298 0.0
H980 H 0.09265 0.5566 0.68102 0.0
H981 H 0.10703 0.46851 0.68933 0.0
H982 H 0.1457 0.48626 0.65324 0.0
H983 H 0.17584 0.52642 0.61922 0.0
H984 H 0.16737 0.61775 0.61247 0.0
H985 H 0.12711 0.59974 0.64855 0.0
C986 C 0.10435 0.54133 0.67512 0.0
C987 C 0.0957 0.51054 0.68776 0.0
C988 C 0.12809 0.55249 0.65473 0.0
C989 C 0.1115 0.49137 0.67957 0.0
C990 C 0.13426 0.50181 0.65906 0.0
C991 C 0.16525 0.54246 0.62568 0.0
C992 C 0.1743 0.57321 0.6131 0.0
C993 C 0.14262 0.53218 0.64646 0.0
C994 C 0.16088 0.59402 0.62191 0.0
C995 C 0.13769 0.58359 0.64242 0.0
H996 H 0.5512 0.13662 0.88593 0.0
H997 H 0.60405 0.07689 0.88066 0.0
H998 H 0.62352 0.09767 0.83866 0.0
H999 H 0.62415 0.13116 0.80298 0.0
H1000 H 0.57082 0.19057 0.80735 0.0
H1001 H 0.55253 0.1711 0.84995 0.0
C1002 C 0.56703 0.12824 0.87558 0.0
C1003 C 0.57647 0.10554 0.8866 0.0
C1004 C 0.57778 0.13992 0.85117 0.0
C1005 C 0.59713 0.09501 0.87295 0.0
C1006 C 0.60795 0.10657 0.84878 0.0
C1007 C 0.60846 0.13988 0.81315 0.0
C1008 C 0.59881 0.16223 0.80183 0.0
C1009 C 0.59822 0.1288 0.83765 0.0
C1010 C 0.57865 0.17334 0.81551 0.0
C1011 C 0.56819 0.16225 0.83992 0.0
H1012 H 0.52054 0.627 0.05165 0.0
H1013 H 0.6211 0.63489 0.029 0.0
H1014 H 0.60821 0.64223 0.98576 0.0
H1015 H 0.56652 0.64342 0.95379 0.0
H1016 H 0.46362 0.62979 0.97642 0.0
H1017 H 0.47904 0.62747 0.02014 0.0
C1018 C 0.53964 0.63022 0.03729 0.0
C1019 C 0.57184 0.63062 0.0437 0.0
C1020 C 0.53153 0.63328 0.01237 0.0
C1021 C 0.59646 0.63527 0.02478 0.0
C1022 C 0.58898 0.63915 0.99996 0.0
C1023 C 0.5477 0.63998 0.96842 0.0
C1024 C 0.51377 0.636 0.96215 0.0
C1025 C 0.5564 0.63784 0.99348 0.0
C1026 C 0.48959 0.63212 0.98102 0.0
C1027 C 0.49845 0.63097 0.00596 0.0
H1028 H 0.9649 0.48913 0.18401 0.0
H1029 H 0.88099 0.39606 0.21936 0.0
H1030 H 0.84886 0.37307 0.17913 0.0
H1031 H 0.84394 0.37994 0.13421 0.0
H1032 H 0.92691 0.47277 0.09848 0.0
H1033 H 0.96012 0.49579 0.13869 0.0
C1034 C 0.93936 0.46399 0.18291 0.0
C1035 C 0.9251 0.44445 0.20465 0.0
C1036 C 0.92107 0.45096 0.15973 0.0
C1037 C 0.89249 0.41155 0.20289 0.0
C1038 C 0.87406 0.39847 0.17994 0.0
C1039 C 0.86961 0.40499 0.13524 0.0
C1040 C 0.88376 0.42431 0.11351 0.0
C1041 C 0.88809 0.41795 0.15829 0.0
C1042 C 0.91611 0.4573 0.11504 0.0
C1043 C 0.93493 0.47039 0.13796 0.0
loop_
_geom_bond_atom_site_label_1
_geom_bond_atom_site_label_2
_geom_bond_distance
_geom_bond_site_symmetry_2
_ccdc_geom_bond_type
H0 O26 0.856 . S
H1 O29 0.854 . S
H2 C37 0.930 1_455 S
H3 C38 0.930 . S
H4 C40 0.930 . S
H5 C41 0.930 . S
H6 C43 0.931 . S
H7 C44 0.930 . S
H8 C46 0.930 . S
H9 C47 0.929 . S
H10 C49 0.930 . S
H11 C50 0.931 . S
H12 C52 0.930 . S
H13 C53 0.929 . S
H14 C55 0.931 . S
H15 C56 0.930 . S
H16 C58 0.930 . S
H17 C59 0.932 . S
H18 C61 0.930 . S
H19 C62 0.929 . S
H20 C64 0.931 . S
H21 C65 0.930 . S
H22 C67 0.929 . S
H23 C68 0.931 . S
H24 C70 0.930 . S
H25 C71 0.930 . S
O26 H0 0.856 . S
O26 C72 1.300 . S
O27 C72 1.209 . S
O28 C73 1.199 . S
O29 H1 0.854 . S
O29 C73 1.297 . S
C30 C31 1.404 . S
C30 C35 1.397 . S
C30 C36 1.492 . S
C31 C30 1.404 . S
C31 C32 1.396 . S
C31 C42 1.492 . S
C32 C31 1.396 . S
C32 C33 1.397 . S
C32 C48 1.509 . S
C33 C32 1.397 . S
C33 C34 1.412 . S
C33 C54 1.485 . S
C34 C33 1.412 . S
C34 C35 1.388 . S
C34 C60 1.490 . S
C35 C30 1.397 . S
C35 C34 1.388 . S
C35 C66 1.519 1_455 S
C36 C30 1.492 . S
C36 C37 1.363 1_455 S
C36 C41 1.390 1_455 S
C37 H2 0.930 1_655 S
C37 C36 1.363 1_655 S
C37 C38 1.372 . S
C38 H3 0.930 . S
C38 C37 1.372 . S
C38 C39 1.383 . S
C39 C38 1.383 . S
C39 C40 1.395 . S
C40 H4 0.930 . S
C40 C39 1.395 . S
C40 C41 1.362 . S
C41 H5 0.930 . S
C41 C36 1.390 1_655 S
C41 C40 1.362 . S
C42 C31 1.492 . S
C42 C43 1.377 . S
C42 C47 1.397 . S
C43 H6 0.931 . S
C43 C42 1.377 . S
C43 C44 1.376 . S
C44 H7 0.930 . S
C44 C43 1.376 . S
C44 C45 1.376 . S
C45 C44 1.376 . S
C45 C46 1.378 . S
C45 C72 1.486 . S
C46 H8 0.930 . S
C46 C45 1.378 . S
C46 C47 1.376 . S
C47 H9 0.929 . S
C47 C42 1.397 . S
C47 C46 1.376 . S
C48 C32 1.509 . S
C48 C49 1.391 . S
C48 C53 1.386 . S
C49 H10 0.930 . S
C49 C48 1.391 . S
C49 C50 1.375 . S
C50 H11 0.931 . S
C50 C49 1.375 . S
C50 C51 1.375 . S
C51 C50 1.375 . S
C51 C52 1.361 . S
C52 H12 0.930 . S
C52 C51 1.361 . S
C52 C53 1.399 . S
C53 H13 0.929 . S
C53 C48 1.386 . S
C53 C52 1.399 . S
C54 C33 1.485 . S
C54 C55 1.394 . S
C54 C59 1.360 . S
C55 H14 0.931 . S
C55 C54 1.394 . S
C55 C56 1.372 . S
C56 H15 0.930 . S
C56 C55 1.372 . S
C56 C57 1.397 . S
C57 C56 1.397 . S
C57 C58 1.390 . S
C57 C73 1.476 . S
C58 H16 0.930 . S
C58 C57 1.390 . S
C58 C59 1.366 . S
C59 H17 0.932 . S
C59 C54 1.360 . S
C59 C58 1.366 . S
C60 C34 1.490 . S
C60 C61 1.380 . S
C60 C65 1.386 . S
C61 H18 0.930 . S
C61 C60 1.380 . S
C61 C62 1.381 . S
C62 H19 0.929 . S
C62 C61 1.381 . S
C62 C63 1.371 . S
C63 C62 1.371 . S
C63 C64 1.380 . S
C64 H20 0.931 . S
C64 C63 1.380 . S
C64 C65 1.387 . S
C65 H21 0.930 . S
C65 C60 1.386 . S
C65 C64 1.387 . S
C66 C35 1.519 1_655 S
C66 C67 1.377 . S
C66 C71 1.361 . S
C67 H22 0.929 . S
C67 C66 1.377 . S
C67 C68 1.386 . S
C68 H23 0.931 . S
C68 C67 1.386 . S
C68 C69 1.363 . S
C69 C68 1.363 . S
C69 C70 1.385 . S
C70 H24 0.930 . S
C70 C69 1.385 . S
C70 C71 1.396 . S
C71 H25 0.930 . S
C71 C66 1.361 . S
C71 C70 1.396 . S
C72 O26 1.300 . S
C72 O27 1.209 . S
C72 C45 1.486 . S
C73 O28 1.199 . S
C73 O29 1.297 . S
C73 C57 1.476 . S
H74 O100 0.856 . S
H75 O103 0.854 . S
H76 C111 0.930 1_545 S
H77 C112 0.930 . S
H78 C114 0.930 . S
H79 C115 0.930 . S
H80 C117 0.931 . S
H81 C118 0.930 . S
H82 C120 0.930 . S
H83 C121 0.929 . S
H84 C123 0.930 . S
H85 C124 0.931 . S
H86 C126 0.930 . S
H87 C127 0.929 . S
H88 C129 0.931 . S
H89 C130 0.930 . S
H90 C132 0.930 . S
H91 C133 0.932 . S
H92 C135 0.930 . S
H93 C136 0.929 . S
H94 C138 0.931 . S
H95 C139 0.930 . S
H96 C141 0.929 . S
H97 C142 0.931 . S
H98 C144 0.930 . S
H99 C145 0.929 . S
O100 H74 0.856 . S
O100 C146 1.300 . S
O101 C146 1.209 . S
O102 C147 1.199 . S
O103 H75 0.854 . S
O103 C147 1.297 . S
C104 C105 1.404 . S
C104 C109 1.397 . S
C104 C110 1.492 . S
C105 C104 1.404 . S
C105 C106 1.396 . S
C105 C116 1.492 . S
C106 C105 1.396 . S
C106 C107 1.397 . S
C106 C122 1.509 . S
C107 C106 1.397 . S
C107 C108 1.412 . S
C107 C128 1.485 . S
C108 C107 1.412 . S
C108 C109 1.388 . S
C108 C134 1.490 . S
C109 C104 1.397 . S
C109 C108 1.388 . S
C109 C140 1.519 1_545 S
C110 C104 1.492 . S
C110 C111 1.363 1_545 S
C110 C115 1.390 1_545 S
C111 H76 0.930 1_565 S
C111 C110 1.363 1_565 S
C111 C112 1.373 . S
C112 H77 0.930 . S
C112 C111 1.373 . S
C112 C113 1.383 . S
C113 C112 1.383 . S
C113 C114 1.395 . S
C114 H78 0.930 . S
C114 C113 1.395 . S
C114 C115 1.362 . S
C115 H79 0.930 . S
C115 C110 1.390 1_565 S
C115 C114 1.362 . S
C116 C105 1.492 . S
C116 C117 1.377 . S
C116 C121 1.397 . S
C117 H80 0.931 . S
C117 C116 1.377 . S
C117 C118 1.376 . S
C118 H81 0.930 . S
C118 C117 1.376 . S
C118 C119 1.376 . S
C119 C118 1.376 . S
C119 C120 1.378 . S
C119 C146 1.486 . S
C120 H82 0.930 . S
C120 C119 1.378 . S
C120 C121 1.376 . S
C121 H83 0.929 . S
C121 C116 1.397 . S
C121 C120 1.376 . S
C122 C106 1.509 . S
C122 C123 1.391 . S
C122 C127 1.386 . S
C123 H84 0.930 . S
C123 C122 1.391 . S
C123 C124 1.375 . S
C124 H85 0.931 . S
C124 C123 1.375 . S
C124 C125 1.375 . S
C125 C124 1.375 . S
C125 C126 1.361 . S
C126 H86 0.930 . S
C126 C125 1.361 . S
C126 C127 1.399 . S
C127 H87 0.929 . S
C127 C122 1.386 . S
C127 C126 1.399 . S
C128 C107 1.485 . S
C128 C129 1.394 . S
C128 C133 1.360 . S
C129 H88 0.931 . S
C129 C128 1.394 . S
C129 C130 1.372 . S
C130 H89 0.930 . S
C130 C129 1.372 . S
C130 C131 1.397 . S
C131 C130 1.397 . S
C131 C132 1.390 . S
C131 C147 1.476 . S
C132 H90 0.930 . S
C132 C131 1.390 . S
C132 C133 1.366 . S
C133 H91 0.932 . S
C133 C128 1.360 . S
C133 C132 1.366 . S
C134 C108 1.490 . S
C134 C135 1.380 . S
C134 C139 1.386 . S
C135 H92 0.930 . S
C135 C134 1.380 . S
C135 C136 1.381 . S
C136 H93 0.929 . S
C136 C135 1.381 . S
C136 C137 1.371 . S
C137 C136 1.371 . S
C137 C138 1.380 . S
C138 H94 0.931 . S
C138 C137 1.380 . S
C138 C139 1.387 . S
C139 H95 0.930 . S
C139 C134 1.386 . S
C139 C138 1.387 . S
C140 C109 1.519 1_565 S
C140 C141 1.377 . S
C140 C145 1.361 . S
C141 H96 0.929 . S
C141 C140 1.377 . S
C141 C142 1.386 . S
C142 H97 0.931 . S
C142 C141 1.386 . S
C142 C143 1.363 . S
C143 C142 1.363 . S
C143 C144 1.385 . S
C144 H98 0.930 . S
C144 C143 1.385 . S
C144 C145 1.396 . S
C145 H99 0.929 . S
C145 C140 1.361 . S
C145 C144 1.396 . S
C146 O100 1.300 . S
C146 O101 1.209 . S
C146 C119 1.486 . S
C147 O102 1.199 . S
C147 O103 1.297 . S
C147 C131 1.476 . S
H148 O174 0.856 . S
H149 O177 0.854 . S
H150 C185 0.930 . S
H151 C186 0.930 . S
H152 C188 0.930 . S
H153 C189 0.930 . S
H154 C191 0.931 . S
H155 C192 0.930 . S
H156 C194 0.930 . S
H157 C195 0.929 . S
H158 C197 0.930 . S
H159 C198 0.931 . S
H160 C200 0.930 . S
H161 C201 0.929 . S
H162 C203 0.931 . S
H163 C204 0.930 . S
H164 C206 0.930 . S
H165 C207 0.932 . S
H166 C209 0.930 . S
H167 C210 0.929 . S
H168 C212 0.931 . S
H169 C213 0.930 . S
H170 C215 0.929 . S
H171 C216 0.931 . S
H172 C218 0.930 . S
H173 C219 0.929 . S
O174 H148 0.856 . S
O174 C220 1.300 . S
O175 C220 1.209 . S
O176 C221 1.199 . S
O177 H149 0.854 . S
O177 C221 1.297 . S
C178 C179 1.404 . S
C178 C183 1.397 . S
C178 C184 1.492 . S
C179 C178 1.404 . S
C179 C180 1.396 . S
C179 C190 1.492 . S
C180 C179 1.396 . S
C180 C181 1.397 . S
C180 C196 1.509 . S
C181 C180 1.397 . S
C181 C182 1.412 . S
C181 C202 1.485 . S
C182 C181 1.412 . S
C182 C183 1.388 . S
C182 C208 1.490 . S
C183 C178 1.397 . S
C183 C182 1.388 . S
C183 C214 1.519 . S
C184 C178 1.492 . S
C184 C185 1.363 . S
C184 C189 1.390 . S
C185 H150 0.930 . S
C185 C184 1.363 . S
C185 C186 1.372 . S
C186 H151 0.930 . S
C186 C185 1.372 . S
C186 C187 1.383 . S
C187 C186 1.383 . S
C187 C188 1.395 . S
C188 H152 0.930 . S
C188 C187 1.395 . S
C188 C189 1.362 . S
C189 H153 0.930 . S
C189 C184 1.390 . S
C189 C188 1.362 . S
C190 C179 1.492 . S
C190 C191 1.377 . S
C190 C195 1.397 . S
C191 H154 0.931 . S
C191 C190 1.377 . S
C191 C192 1.376 . S
C192 H155 0.930 . S
C192 C191 1.376 . S
C192 C193 1.376 . S
C193 C192 1.376 . S
C193 C194 1.378 . S
C193 C220 1.486 . S
C194 H156 0.930 . S
C194 C193 1.378 . S
C194 C195 1.376 . S
C195 H157 0.929 . S
C195 C190 1.397 . S
C195 C194 1.376 . S
C196 C180 1.509 . S
C196 C197 1.391 . S
C196 C201 1.386 . S
C197 H158 0.930 . S
C197 C196 1.391 . S
C197 C198 1.375 . S
C198 H159 0.931 . S
C198 C197 1.375 . S
C198 C199 1.375 . S
C199 C198 1.375 . S
C199 C200 1.361 . S
C200 H160 0.930 . S
C200 C199 1.361 . S
C200 C201 1.399 . S
C201 H161 0.929 . S
C201 C196 1.386 . S
C201 C200 1.399 . S
C202 C181 1.485 . S
C202 C203 1.394 . S
C202 C207 1.360 . S
C203 H162 0.931 . S
C203 C202 1.394 . S
C203 C204 1.372 . S
C204 H163 0.930 . S
C204 C203 1.372 . S
C204 C205 1.397 . S
C205 C204 1.397 . S
C205 C206 1.390 . S
C205 C221 1.476 . S
C206 H164 0.930 . S
C206 C205 1.390 . S
C206 C207 1.366 . S
C207 H165 0.932 . S
C207 C202 1.360 . S
C207 C206 1.366 . S
C208 C182 1.490 . S
C208 C209 1.380 . S
C208 C213 1.386 . S
C209 H166 0.930 . S
C209 C208 1.380 . S
C209 C210 1.381 . S
C210 H167 0.929 . S
C210 C209 1.381 . S
C210 C211 1.371 . S
C211 C210 1.371 . S
C211 C212 1.380 . S
C212 H168 0.931 . S
C212 C211 1.380 . S
C212 C213 1.387 . S
C213 H169 0.930 . S
C213 C208 1.386 . S
C213 C212 1.387 . S
C214 C183 1.519 . S
C214 C215 1.377 . S
C214 C219 1.361 . S
C215 H170 0.929 . S
C215 C214 1.377 . S
C215 C216 1.386 . S
C216 H171 0.931 . S
C216 C215 1.386 . S
C216 C217 1.363 . S
C217 C216 1.363 . S
C217 C218 1.385 . S
C218 H172 0.930 . S
C218 C217 1.385 . S
C218 C219 1.396 . S
C219 H173 0.929 . S
C219 C214 1.361 . S
C219 C218 1.396 . S
C220 O174 1.300 . S
C220 O175 1.209 . S
C220 C193 1.486 . S
C221 O176 1.199 . S
C221 O177 1.297 . S
C221 C205 1.476 . S
H222 O248 0.856 . S
H223 O251 0.854 . S
H224 C259 0.930 1_455 S
H225 C260 0.930 . S
H226 C262 0.930 . S
H227 C263 0.930 . S
H228 C265 0.931 . S
H229 C266 0.930 . S
H230 C268 0.930 . S
H231 C269 0.929 . S
H232 C271 0.930 . S
H233 C272 0.931 . S
H234 C274 0.930 . S
H235 C275 0.929 . S
H236 C277 0.931 . S
H237 C278 0.930 . S
H238 C280 0.930 . S
H239 C281 0.932 . S
H240 C283 0.930 . S
H241 C284 0.929 . S
H242 C286 0.931 . S
H243 C287 0.930 . S
H244 C289 0.929 . S
H245 C290 0.931 . S
H246 C292 0.930 . S
H247 C293 0.929 . S
O248 H222 0.856 . S
O248 C294 1.300 . S
O249 C294 1.209 . S
O250 C295 1.199 . S
O251 H223 0.854 . S
O251 C295 1.297 . S
C252 C253 1.404 . S
C252 C257 1.397 . S
C252 C258 1.492 . S
C253 C252 1.404 . S
C253 C254 1.396 . S
C253 C264 1.492 . S
C254 C253 1.396 . S
C254 C255 1.397 . S
C254 C270 1.509 . S
C255 C254 1.397 . S
C255 C256 1.412 . S
C255 C276 1.485 . S
C256 C255 1.412 . S
C256 C257 1.388 . S
C256 C282 1.490 . S
C257 C252 1.397 . S
C257 C256 1.388 . S
C257 C288 1.519 1_455 S
C258 C252 1.492 . S
C258 C259 1.363 1_455 S
C258 C263 1.390 1_455 S
C259 H224 0.930 1_655 S
C259 C258 1.363 1_655 S
C259 C260 1.372 . S
C260 H225 0.930 . S
C260 C259 1.372 . S
C260 C261 1.383 . S
C261 C260 1.383 . S
C261 C262 1.395 . S
C262 H226 0.930 . S
C262 C261 1.395 . S
C262 C263 1.362 . S
C263 H227 0.930 . S
C263 C258 1.390 1_655 S
C263 C262 1.362 . S
C264 C253 1.492 . S
C264 C265 1.377 . S
C264 C269 1.397 . S
C265 H228 0.931 . S
C265 C264 1.377 . S
C265 C266 1.376 . S
C266 H229 0.930 . S
C266 C265 1.376 . S
C266 C267 1.376 . S
C267 C266 1.376 . S
C267 C268 1.378 . S
C267 C294 1.486 . S
C268 H230 0.930 . S
C268 C267 1.378 . S
C268 C269 1.376 . S
C269 H231 0.929 . S
C269 C264 1.397 . S
C269 C268 1.376 . S
C270 C254 1.509 . S
C270 C271 1.391 . S
C270 C275 1.386 . S
C271 H232 0.930 . S
C271 C270 1.391 . S
C271 C272 1.375 . S
C272 H233 0.931 . S
C272 C271 1.375 . S
C272 C273 1.375 . S
C273 C272 1.375 . S
C273 C274 1.361 . S
C274 H234 0.930 . S
C274 C273 1.361 . S
C274 C275 1.399 . S
C275 H235 0.929 . S
C275 C270 1.386 . S
C275 C274 1.399 . S
C276 C255 1.485 . S
C276 C277 1.394 . S
C276 C281 1.360 . S
C277 H236 0.931 . S
C277 C276 1.394 . S
C277 C278 1.372 . S
C278 H237 0.930 . S
C278 C277 1.372 . S
C278 C279 1.397 . S
C279 C278 1.397 . S
C279 C280 1.390 . S
C279 C295 1.476 . S
C280 H238 0.930 . S
C280 C279 1.390 . S
C280 C281 1.366 . S
C281 H239 0.932 . S
C281 C276 1.360 . S
C281 C280 1.366 . S
C282 C256 1.490 . S
C282 C283 1.380 . S
C282 C287 1.386 . S
C283 H240 0.930 . S
C283 C282 1.380 . S
C283 C284 1.381 . S
C284 H241 0.929 . S
C284 C283 1.381 . S
C284 C285 1.371 . S
C285 C284 1.371 . S
C285 C286 1.380 . S
C286 H242 0.931 . S
C286 C285 1.380 . S
C286 C287 1.387 . S
C287 H243 0.930 . S
C287 C282 1.386 . S
C287 C286 1.387 . S
C288 C257 1.519 1_655 S
C288 C289 1.377 . S
C288 C293 1.361 . S
C289 H244 0.929 . S
C289 C288 1.377 . S
C289 C290 1.386 . S
C290 H245 0.931 . S
C290 C289 1.386 . S
C290 C291 1.363 . S
C291 C290 1.363 . S
C291 C292 1.385 . S
C292 H246 0.930 . S
C292 C291 1.385 . S
C292 C293 1.396 . S
C293 H247 0.929 . S
C293 C288 1.361 . S
C293 C292 1.396 . S
C294 O248 1.300 . S
C294 O249 1.209 . S
C294 C267 1.486 . S
C295 O250 1.199 . S
C295 O251 1.297 . S
C295 C279 1.476 . S
H296 O322 0.856 . S
H297 O325 0.854 . S
H298 C333 0.930 . S
H299 C334 0.930 . S
H300 C336 0.930 . S
H301 C337 0.930 . S
H302 C339 0.931 . S
H303 C340 0.930 . S
H304 C342 0.930 . S
H305 C343 0.929 . S
H306 C345 0.930 . S
H307 C346 0.931 . S
H308 C348 0.930 . S
H309 C349 0.929 . S
H310 C351 0.931 . S
H311 C352 0.930 . S
H312 C354 0.930 . S
H313 C355 0.932 . S
H314 C357 0.944 . S
H315 C358 0.936 . S
H316 C360 0.931 . S
H317 C361 0.930 . S
H318 C363 0.929 1_556 S
H319 C364 0.931 . S
H320 C366 0.930 . S
H321 C367 0.929 . S
O322 H296 0.856 . S
O322 C368 1.300 . S
O323 C368 1.209 . S
O324 C369 1.199 . S
O325 H297 0.854 . S
O325 C369 1.297 . S
C326 C327 1.404 1_545 S
C326 C331 1.397 . S
C326 C332 1.492 . S
C327 C326 1.404 1_565 S
C327 C328 1.396 . S
C327 C338 1.492 . S
C328 C327 1.396 . S
C328 C329 1.397 . S
C328 C344 1.509 . S
C329 C328 1.397 . S
C329 C330 1.412 1_556 S
C329 C350 1.485 1_556 S
C330 C329 1.412 1_554 S
C330 C331 1.388 1_564 S
C330 C356 1.490 . S
C331 C326 1.397 . S
C331 C330 1.388 1_546 S
C331 C362 1.519 1_556 S
C332 C326 1.492 . S
C332 C333 1.363 . S
C332 C337 1.390 . S
C333 H298 0.930 . S
C333 C332 1.363 . S
C333 C334 1.372 . S
C334 H299 0.930 . S
C334 C333 1.372 . S
C334 C335 1.383 . S
C335 C334 1.383 . S
C335 C336 1.395 . S
C336 H300 0.930 . S
C336 C335 1.395 . S
C336 C337 1.362 . S
C337 H301 0.930 . S
C337 C332 1.390 . S
C337 C336 1.362 . S
C338 C327 1.492 . S
C338 C339 1.377 . S
C338 C343 1.397 . S
C339 H302 0.931 . S
C339 C338 1.377 . S
C339 C340 1.376 . S
C340 H303 0.930 . S
C340 C339 1.376 . S
C340 C341 1.376 . S
C341 C340 1.376 . S
C341 C342 1.378 . S
C341 C368 1.486 . S
C342 H304 0.930 . S
C342 C341 1.378 . S
C342 C343 1.376 . S
C343 H305 0.929 . S
C343 C338 1.397 . S
C343 C342 1.376 . S
C344 C328 1.509 . S
C344 C345 1.391 . S
C344 C349 1.386 . S
C345 H306 0.930 . S
C345 C344 1.391 . S
C345 C346 1.375 . S
C346 H307 0.931 . S
C346 C345 1.375 . S
C346 C347 1.375 . S
C347 C346 1.375 . S
C347 C348 1.361 . S
C348 H308 0.930 . S
C348 C347 1.361 . S
C348 C349 1.399 . S
C349 H309 0.929 . S
C349 C344 1.386 . S
C349 C348 1.399 . S
C350 C329 1.485 1_554 S
C350 C351 1.394 . S
C350 C355 1.360 . S
C351 H310 0.931 . S
C351 C350 1.394 . S
C351 C352 1.372 . S
C352 H311 0.930 . S
C352 C351 1.372 . S
C352 C353 1.397 . S
C353 C352 1.397 . S
C353 C354 1.390 . S
C353 C369 1.476 . S
C354 H312 0.930 . S
C354 C353 1.390 . S
C354 C355 1.366 . S
C355 H313 0.932 . S
C355 C350 1.360 . S
C355 C354 1.366 . S
C356 C330 1.490 . S
C356 C357 1.380 . S
C356 C361 1.386 . S
C357 H314 0.944 . S
C357 C356 1.380 . S
C357 C358 1.379 1_565 S
C358 H315 0.936 . S
C358 C357 1.379 1_545 S
C358 C359 1.366 1_545 S
C359 C358 1.366 1_565 S
C359 C360 1.380 . S
C360 H316 0.931 . S
C360 C359 1.380 . S
C360 C361 1.387 . S
C361 H317 0.930 . S
C361 C356 1.386 . S
C361 C360 1.387 . S
C362 C331 1.519 1_554 S
C362 C363 1.377 . S
C362 C367 1.361 . S
C363 H318 0.929 1_554 S
C363 C362 1.377 . S
C363 C364 1.386 . S
C364 H319 0.931 . S
C364 C363 1.386 . S
C364 C365 1.363 . S
C365 C364 1.363 . S
C365 C366 1.385 . S
C366 H320 0.930 . S
C366 C365 1.385 . S
C366 C367 1.396 . S
C367 H321 0.929 . S
C367 C362 1.361 . S
C367 C366 1.396 . S
C368 O322 1.300 . S
C368 O323 1.209 . S
C368 C341 1.486 . S
C369 O324 1.199 . S
C369 O325 1.297 . S
C369 C353 1.476 . S
H370 O396 0.856 . S
H371 O399 0.854 . S
H372 C407 0.930 . S
H373 C408 0.930 . S
H374 C410 0.930 . S
H375 C411 0.930 . S
H376 C413 0.931 . S
H377 C414 0.930 . S
H378 C416 0.930 . S
H379 C417 0.929 . S
H380 C419 0.930 . S
H381 C420 0.931 . S
H382 C422 0.930 . S
H383 C423 0.929 . S
H384 C425 0.931 . S
H385 C426 0.930 . S
H386 C428 0.930 . S
H387 C429 0.932 . S
H388 C431 0.930 . S
H389 C432 0.929 . S
H390 C434 0.931 . S
H391 C435 0.930 . S
H392 C437 0.929 . S
H393 C438 0.931 . S
H394 C440 0.930 . S
H395 C441 0.929 . S
O396 H370 0.856 . S
O396 C442 1.300 1_556 S
O397 C442 1.209 1_556 S
O398 C443 1.199 . S
O399 H371 0.854 . S
O399 C443 1.297 . S
C400 C401 1.404 . S
C400 C405 1.397 . S
C400 C406 1.492 . S
C401 C400 1.404 . S
C401 C402 1.396 . S
C401 C412 1.492 . S
C402 C401 1.396 . S
C402 C403 1.397 . S
C402 C418 1.509 . S
C403 C402 1.397 . S
C403 C404 1.412 . S
C403 C424 1.485 . S
C404 C403 1.412 . S
C404 C405 1.388 . S
C404 C430 1.490 . S
C405 C400 1.397 . S
C405 C404 1.388 . S
C405 C436 1.519 . S
C406 C400 1.492 . S
C406 C407 1.363 . S
C406 C411 1.390 . S
C407 H372 0.930 . S
C407 C406 1.363 . S
C407 C408 1.372 . S
C408 H373 0.930 . S
C408 C407 1.372 . S
C408 C409 1.383 . S
C409 C408 1.383 . S
C409 C410 1.395 . S
C410 H374 0.930 . S
C410 C409 1.395 . S
C410 C411 1.362 . S
C411 H375 0.930 . S
C411 C406 1.390 . S
C411 C410 1.362 . S
C412 C401 1.492 . S
C412 C413 1.377 . S
C412 C417 1.397 . S
C413 H376 0.931 . S
C413 C412 1.377 . S
C413 C414 1.376 . S
C414 H377 0.930 . S
C414 C413 1.376 . S
C414 C415 1.376 . S
C415 C414 1.376 . S
C415 C416 1.378 . S
C415 C442 1.486 . S
C416 H378 0.930 . S
C416 C415 1.378 . S
C416 C417 1.376 . S
C417 H379 0.929 . S
C417 C412 1.397 . S
C417 C416 1.376 . S
C418 C402 1.509 . S
C418 C419 1.391 . S
C418 C423 1.386 . S
C419 H380 0.930 . S
C419 C418 1.391 . S
C419 C420 1.375 . S
C420 H381 0.931 . S
C420 C419 1.375 . S
C420 C421 1.375 . S
C421 C420 1.375 . S
C421 C422 1.361 . S
C422 H382 0.930 . S
C422 C421 1.361 . S
C422 C423 1.399 . S
C423 H383 0.929 . S
C423 C418 1.386 . S
C423 C422 1.399 . S
C424 C403 1.485 . S
C424 C425 1.394 . S
C424 C429 1.360 . S
C425 H384 0.931 . S
C425 C424 1.394 . S
C425 C426 1.372 . S
C426 H385 0.930 . S
C426 C425 1.372 . S
C426 C427 1.397 . S
C427 C426 1.397 . S
C427 C428 1.390 . S
C427 C443 1.476 . S
C428 H386 0.930 . S
C428 C427 1.390 . S
C428 C429 1.366 . S
C429 H387 0.932 . S
C429 C424 1.360 . S
C429 C428 1.366 . S
C430 C404 1.490 . S
C430 C431 1.380 . S
C430 C435 1.386 . S
C431 H388 0.930 . S
C431 C430 1.380 . S
C431 C432 1.381 . S
C432 H389 0.929 . S
C432 C431 1.381 . S
C432 C433 1.371 . S
C433 C432 1.371 . S
C433 C434 1.380 . S
C434 H390 0.931 . S
C434 C433 1.380 . S
C434 C435 1.387 . S
C435 H391 0.930 . S
C435 C430 1.386 . S
C435 C434 1.387 . S
C436 C405 1.519 . S
C436 C437 1.377 . S
C436 C441 1.361 . S
C437 H392 0.929 . S
C437 C436 1.377 . S
C437 C438 1.386 . S
C438 H393 0.931 . S
C438 C437 1.386 . S
C438 C439 1.363 . S
C439 C438 1.363 . S
C439 C440 1.385 . S
C440 H394 0.930 . S
C440 C439 1.385 . S
C440 C441 1.396 . S
C441 H395 0.929 . S
C441 C436 1.361 . S
C441 C440 1.396 . S
C442 O396 1.300 1_554 S
C442 O397 1.209 1_554 S
C442 C415 1.486 . S
C443 O398 1.199 . S
C443 O399 1.297 . S
C443 C427 1.476 . S
Mn444 O449 2.095 . S
Mn444 O459 2.162 . S
Mn444 O460 2.297 . S
Mn444 O468 2.385 . S
Mn444 O469 2.209 . S
Mn444 O470 2.094 . S
Mn445 O450 2.121 . S
Mn445 N452 2.257 . S
Mn445 N461 2.282 . S
Mn445 O469 2.215 . S
Mn445 O471 2.117 . S
C446 O468 1.234 . S
C446 O469 1.283 . S
C447 O459 1.281 . S
C447 O460 1.236 . S
C448 O470 1.240 . S
C448 O471 1.264 . S
O449 Mn444 2.095 . S
O449 C458 1.250 . S
O450 Mn445 2.121 . S
O450 C458 1.258 . S
C451 N452 1.326 . S
C451 C455 1.460 . S
C451 H457 0.929 . S
N452 Mn445 2.257 . S
N452 C451 1.326 . S
N452 C456 1.362 . S
C453 C454 1.258 . S
C453 C456 1.431 . S
C453 C473 1.449 . S
C454 C453 1.258 . S
C454 C455 1.477 . S
C454 H474 0.931 . S
C455 C451 1.460 . S
C455 C454 1.477 . S
C455 H475 0.930 . S
C456 N452 1.362 . S
C456 C453 1.431 . S
C456 C466 1.476 . S
H457 C451 0.929 . S
C458 O449 1.250 . S
C458 O450 1.258 . S
O459 Mn444 2.162 . S
O459 C447 1.281 . S
O460 Mn444 2.297 . S
O460 C447 1.236 . S
N461 Mn445 2.282 . S
N461 C462 1.328 . S
N461 C466 1.318 . S
C462 N461 1.328 . S
C462 C463 1.457 . S
C462 H467 0.929 . S
C463 C462 1.457 . S
C463 C464 1.291 . S
C463 H476 0.931 . S
C464 C463 1.291 . S
C464 C465 1.373 . S
C464 H477 0.929 . S
C465 C464 1.373 . S
C465 C466 1.396 . S
C465 C472 1.403 . S
C466 C456 1.476 . S
C466 N461 1.318 . S
C466 C465 1.396 . S
H467 C462 0.929 . S
O468 Mn444 2.385 . S
O468 C446 1.234 . S
O469 Mn444 2.209 . S
O469 Mn445 2.215 . S
O469 C446 1.283 . S
O470 Mn444 2.094 . S
O470 C448 1.240 . S
O471 Mn445 2.117 . S
O471 C448 1.264 . S
C472 C465 1.403 . S
C472 C473 1.399 . S
C472 H478 0.929 . S
C473 C453 1.449 . S
C473 C472 1.399 . S
C473 H479 0.930 . S
H474 C454 0.931 . S
H475 C455 0.930 . S
H476 C463 0.931 . S
H477 C464 0.929 . S
H478 C472 0.929 . S
H479 C473 0.930 . S
Mn480 O485 2.095 . S
Mn480 O495 2.162 . S
Mn480 O496 2.297 . S
Mn480 O504 2.385 . S
Mn480 O505 2.209 . S
Mn480 O506 2.094 . S
Mn481 O486 2.121 . S
Mn481 N488 2.257 . S
Mn481 N497 2.282 . S
Mn481 O505 2.215 . S
Mn481 O507 2.117 . S
C482 O504 1.234 . S
C482 O505 1.283 . S
C483 O495 1.281 . S
C483 O496 1.236 . S
C484 O506 1.240 . S
C484 O507 1.264 . S
O485 Mn480 2.095 . S
O485 C494 1.250 . S
O486 Mn481 2.121 . S
O486 C494 1.258 . S
C487 N488 1.326 . S
C487 C491 1.460 . S
C487 H493 0.929 . S
N488 Mn481 2.257 . S
N488 C487 1.326 . S
N488 C492 1.362 . S
C489 C490 1.258 . S
C489 C492 1.431 . S
C489 C509 1.449 . S
C490 C489 1.258 . S
C490 C491 1.477 . S
C490 H510 0.931 . S
C491 C487 1.460 . S
C491 C490 1.477 . S
C491 H511 0.930 . S
C492 N488 1.362 . S
C492 C489 1.431 . S
C492 C502 1.476 . S
H493 C487 0.929 . S
C494 O485 1.250 . S
C494 O486 1.258 . S
O495 Mn480 2.162 . S
O495 C483 1.281 . S
O496 Mn480 2.297 . S
O496 C483 1.236 . S
N497 Mn481 2.282 . S
N497 C498 1.328 . S
N497 C502 1.318 . S
C498 N497 1.328 . S
C498 C499 1.457 . S
C498 H503 0.929 . S
C499 C498 1.457 . S
C499 C500 1.291 . S
C499 H512 0.931 . S
C500 C499 1.291 . S
C500 C501 1.373 . S
C500 H513 0.929 . S
C501 C500 1.373 . S
C501 C502 1.396 . S
C501 C508 1.403 . S
C502 C492 1.476 . S
C502 N497 1.318 . S
C502 C501 1.396 . S
H503 C498 0.929 . S
O504 Mn480 2.385 . S
O504 C482 1.234 . S
O505 Mn480 2.209 . S
O505 Mn481 2.215 . S
O505 C482 1.283 . S
O506 Mn480 2.094 . S
O506 C484 1.240 . S
O507 Mn481 2.117 . S
O507 C484 1.264 . S
C508 C501 1.403 . S
C508 C509 1.399 . S
C508 H514 0.929 . S
C509 C489 1.449 . S
C509 C508 1.399 . S
C509 H515 0.930 . S
H510 C490 0.931 . S
H511 C491 0.930 . S
H512 C499 0.931 . S
H513 C500 0.929 . S
H514 C508 0.929 . S
H515 C509 0.930 . S
Mn516 O521 2.095 . S
Mn516 O531 2.162 . S
Mn516 O532 2.297 . S
Mn516 O540 2.385 . S
Mn516 O541 2.209 . S
Mn516 O542 2.094 . S
Mn517 O522 2.121 . S
Mn517 N524 2.257 . S
Mn517 N533 2.282 . S
Mn517 O541 2.215 . S
Mn517 O543 2.117 . S
C518 O540 1.234 . S
C518 O541 1.283 . S
C519 O531 1.281 . S
C519 O532 1.236 . S
C520 O542 1.240 . S
C520 O543 1.264 . S
O521 Mn516 2.095 . S
O521 C530 1.250 . S
O522 Mn517 2.121 . S
O522 C530 1.258 . S
C523 N524 1.326 . S
C523 C527 1.460 . S
C523 H529 0.929 . S
N524 Mn517 2.257 . S
N524 C523 1.326 . S
N524 C528 1.362 . S
C525 C526 1.258 . S
C525 C528 1.431 . S
C525 C545 1.449 . S
C526 C525 1.258 . S
C526 C527 1.477 . S
C526 H546 0.931 . S
C527 C523 1.460 . S
C527 C526 1.477 . S
C527 H547 0.930 . S
C528 N524 1.362 . S
C528 C525 1.431 . S
C528 C538 1.476 . S
H529 C523 0.929 . S
C530 O521 1.250 . S
C530 O522 1.258 . S
O531 Mn516 2.162 . S
O531 C519 1.281 . S
O532 Mn516 2.297 . S
O532 C519 1.236 . S
N533 Mn517 2.282 . S
N533 C534 1.328 . S
N533 C538 1.318 . S
C534 N533 1.328 . S
C534 C535 1.457 . S
C534 H539 0.929 . S
C535 C534 1.457 . S
C535 C536 1.291 . S
C535 H548 0.931 . S
C536 C535 1.291 . S
C536 C537 1.373 . S
C536 H549 0.929 . S
C537 C536 1.373 . S
C537 C538 1.396 . S
C537 C544 1.403 . S
C538 C528 1.476 . S
C538 N533 1.318 . S
C538 C537 1.396 . S
H539 C534 0.929 . S
O540 Mn516 2.385 . S
O540 C518 1.234 . S
O541 Mn516 2.209 . S
O541 Mn517 2.215 . S
O541 C518 1.283 . S
O542 Mn516 2.094 . S
O542 C520 1.240 . S
O543 Mn517 2.117 . S
O543 C520 1.264 . S
C544 C537 1.403 . S
C544 C545 1.399 . S
C544 H550 0.929 . S
C545 C525 1.449 . S
C545 C544 1.399 . S
C545 H551 0.930 . S
H546 C526 0.931 . S
H547 C527 0.930 . S
H548 C535 0.931 . S
H549 C536 0.929 . S
H550 C544 0.929 . S
H551 C545 0.930 . S
Mn552 O557 2.095 . S
Mn552 O567 2.162 . S
Mn552 O568 2.297 . S
Mn552 O576 2.385 . S
Mn552 O577 2.209 . S
Mn552 O578 2.094 . S
Mn553 O558 2.121 . S
Mn553 N560 2.257 . S
Mn553 N569 2.282 . S
Mn553 O577 2.215 . S
Mn553 O579 2.117 . S
C554 O576 1.234 . S
C554 O577 1.283 . S
C555 O567 1.281 . S
C555 O568 1.236 . S
C556 O578 1.240 . S
C556 O579 1.264 . S
O557 Mn552 2.095 . S
O557 C566 1.250 . S
O558 Mn553 2.121 . S
O558 C566 1.258 . S
C559 N560 1.326 . S
C559 C563 1.460 . S
C559 H565 0.929 . S
N560 Mn553 2.257 . S
N560 C559 1.326 . S
N560 C564 1.362 . S
C561 C562 1.258 . S
C561 C564 1.431 . S
C561 C581 1.449 . S
C562 C561 1.258 . S
C562 C563 1.477 . S
C562 H582 0.931 . S
C563 C559 1.460 . S
C563 C562 1.477 . S
C563 H583 0.930 . S
C564 N560 1.362 . S
C564 C561 1.431 . S
C564 C574 1.476 . S
H565 C559 0.929 . S
C566 O557 1.250 . S
C566 O558 1.258 . S
O567 Mn552 2.162 . S
O567 C555 1.281 . S
O568 Mn552 2.297 . S
O568 C555 1.236 . S
N569 Mn553 2.282 . S
N569 C570 1.328 . S
N569 C574 1.318 . S
C570 N569 1.328 . S
C570 C571 1.457 . S
C570 H575 0.929 . S
C571 C570 1.457 . S
C571 C572 1.291 . S
C571 H584 0.931 . S
C572 C571 1.291 . S
C572 C573 1.373 . S
C572 H585 0.929 . S
C573 C572 1.373 . S
C573 C574 1.396 . S
C573 C580 1.403 . S
C574 C564 1.476 . S
C574 N569 1.318 . S
C574 C573 1.396 . S
H575 C570 0.929 . S
O576 Mn552 2.385 . S
O576 C554 1.234 . S
O577 Mn552 2.209 . S
O577 Mn553 2.215 . S
O577 C554 1.283 . S
O578 Mn552 2.094 . S
O578 C556 1.240 . S
O579 Mn553 2.117 . S
O579 C556 1.264 . S
C580 C573 1.403 . S
C580 C581 1.399 . S
C580 H586 0.929 . S
C581 C561 1.449 . S
C581 C580 1.399 . S
C581 H587 0.930 . S
H582 C562 0.931 . S
H583 C563 0.930 . S
H584 C571 0.931 . S
H585 C572 0.929 . S
H586 C580 0.929 . S
H587 C581 0.930 . S
Mn588 O593 2.095 . S
Mn588 O603 2.162 . S
Mn588 O604 2.297 . S
Mn588 O612 2.385 . S
Mn588 O613 2.209 . S
Mn588 O614 2.094 . S
Mn589 O594 2.121 . S
Mn589 N596 2.257 . S
Mn589 N605 2.282 . S
Mn589 O613 2.215 . S
Mn589 O615 2.117 . S
C590 O612 1.234 . S
C590 O613 1.283 . S
C591 O603 1.281 . S
C591 O604 1.236 . S
C592 O614 1.240 . S
C592 O615 1.264 . S
O593 Mn588 2.095 . S
O593 C602 1.250 . S
O594 Mn589 2.121 . S
O594 C602 1.258 . S
C595 N596 1.326 . S
C595 C599 1.460 . S
C595 H601 0.929 . S
N596 Mn589 2.257 . S
N596 C595 1.326 . S
N596 C600 1.362 . S
C597 C598 1.258 . S
C597 C600 1.431 . S
C597 C617 1.449 . S
C598 C597 1.258 . S
C598 C599 1.477 . S
C598 H618 0.931 . S
C599 C595 1.460 . S
C599 C598 1.477 . S
C599 H619 0.930 . S
C600 N596 1.362 . S
C600 C597 1.431 . S
C600 C610 1.476 . S
H601 C595 0.929 . S
C602 O593 1.250 . S
C602 O594 1.258 . S
O603 Mn588 2.162 . S
O603 C591 1.281 . S
O604 Mn588 2.297 . S
O604 C591 1.236 . S
N605 Mn589 2.282 . S
N605 C606 1.328 . S
N605 C610 1.318 . S
C606 N605 1.328 . S
C606 C607 1.457 . S
C606 H611 0.929 . S
C607 C606 1.457 . S
C607 C608 1.291 . S
C607 H620 0.931 . S
C608 C607 1.291 . S
C608 C609 1.373 . S
C608 H621 0.929 . S
C609 C608 1.373 . S
C609 C610 1.396 . S
C609 C616 1.403 . S
C610 C600 1.476 . S
C610 N605 1.318 . S
C610 C609 1.396 . S
H611 C606 0.929 . S
O612 Mn588 2.385 . S
O612 C590 1.234 . S
O613 Mn588 2.209 . S
O613 Mn589 2.215 . S
O613 C590 1.283 . S
O614 Mn588 2.094 . S
O614 C592 1.240 . S
O615 Mn589 2.117 . S
O615 C592 1.264 . S
C616 C609 1.403 . S
C616 C617 1.399 . S
C616 H622 0.929 . S
C617 C597 1.449 . S
C617 C616 1.399 . S
C617 H623 0.930 . S
H618 C598 0.931 . S
H619 C599 0.930 . S
H620 C607 0.931 . S
H621 C608 0.929 . S
H622 C616 0.929 . S
H623 C617 0.930 . S
Mn624 O629 2.095 . S
Mn624 O639 2.162 . S
Mn624 O640 2.297 . S
Mn624 O648 2.385 . S
Mn624 O649 2.209 . S
Mn624 O650 2.094 . S
Mn625 O630 2.121 . S
Mn625 N632 2.257 . S
Mn625 N641 2.282 . S
Mn625 O649 2.215 . S
Mn625 O651 2.117 . S
C626 O648 1.234 . S
C626 O649 1.283 . S
C627 O639 1.281 . S
C627 O640 1.236 . S
C628 O650 1.240 . S
C628 O651 1.264 . S
O629 Mn624 2.095 . S
O629 C638 1.250 . S
O630 Mn625 2.121 . S
O630 C638 1.258 . S
C631 N632 1.326 . S
C631 C635 1.460 . S
C631 H637 0.929 . S
N632 Mn625 2.257 . S
N632 C631 1.326 . S
N632 C636 1.362 . S
C633 C634 1.258 . S
C633 C636 1.431 . S
C633 C653 1.449 . S
C634 C633 1.258 . S
C634 C635 1.477 . S
C634 H654 0.931 . S
C635 C631 1.460 . S
C635 C634 1.477 . S
C635 H655 0.930 . S
C636 N632 1.362 . S
C636 C633 1.431 . S
C636 C646 1.476 . S
H637 C631 0.929 . S
C638 O629 1.250 . S
C638 O630 1.258 . S
O639 Mn624 2.162 . S
O639 C627 1.281 . S
O640 Mn624 2.297 . S
O640 C627 1.236 . S
N641 Mn625 2.282 . S
N641 C642 1.328 . S
N641 C646 1.318 . S
C642 N641 1.328 . S
C642 C643 1.457 . S
C642 H647 0.929 . S
C643 C642 1.457 . S
C643 C644 1.292 1_565 S
C643 H656 0.931 1_565 S
C644 C643 1.292 1_545 S
C644 C645 1.364 1_545 S
C644 H657 0.938 . S
C645 C644 1.364 1_565 S
C645 C646 1.396 . S
C645 C652 1.403 . S
C646 C636 1.476 . S
C646 N641 1.318 . S
C646 C645 1.396 . S
H647 C642 0.929 . S
O648 Mn624 2.385 . S
O648 C626 1.234 . S
O649 Mn624 2.209 . S
O649 Mn625 2.215 . S
O649 C626 1.283 . S
O650 Mn624 2.094 . S
O650 C628 1.240 . S
O651 Mn625 2.117 . S
O651 C628 1.264 . S
C652 C645 1.403 . S
C652 C653 1.399 . S
C652 H658 0.929 1_565 S
C653 C633 1.449 . S
C653 C652 1.399 . S
C653 H659 0.930 . S
H654 C634 0.931 . S
H655 C635 0.930 . S
H656 C643 0.931 1_545 S
H657 C644 0.938 . S
H658 C652 0.929 1_545 S
H659 C653 0.930 . S
H660 C666 0.930 . S
H661 C669 0.930 . S
H662 C670 0.930 . S
H663 C671 0.930 . S
H664 C674 0.930 . S
H665 C675 0.930 . S
C666 H660 0.930 . S
C666 C667 1.355 . S
C666 C668 1.415 . S
C667 C666 1.355 . S
C667 C669 1.419 . S
C668 C666 1.415 . S
C668 C673 1.425 . S
C668 C675 1.409 . S
C669 H661 0.930 . S
C669 C667 1.419 . S
C669 C670 1.362 . S
C670 H662 0.930 . S
C670 C669 1.362 . S
C670 C673 1.409 . S
C671 H663 0.930 . S
C671 C672 1.355 . S
C671 C673 1.415 . S
C672 C671 1.355 . S
C672 C674 1.419 . S
C673 C668 1.425 . S
C673 C670 1.409 . S
C673 C671 1.415 . S
C674 H664 0.930 . S
C674 C672 1.419 . S
C674 C675 1.362 . S
C675 H665 0.930 . S
C675 C668 1.409 . S
C675 C674 1.362 . S
H676 C682 0.930 . S
H677 C685 0.930 . S
H678 C686 0.930 . S
H679 C687 0.930 . S
H680 C690 0.930 . S
H681 C691 0.930 . S
C682 H676 0.930 . S
C682 C683 1.355 . S
C682 C684 1.415 . S
C683 C682 1.355 . S
C683 C685 1.419 . S
C684 C682 1.415 . S
C684 C689 1.425 . S
C684 C691 1.409 . S
C685 H677 0.930 . S
C685 C683 1.419 . S
C685 C686 1.362 . S
C686 H678 0.930 . S
C686 C685 1.362 . S
C686 C689 1.409 . S
C687 H679 0.930 . S
C687 C688 1.355 . S
C687 C689 1.415 . S
C688 C687 1.355 . S
C688 C690 1.419 . S
C689 C684 1.425 . S
C689 C686 1.409 . S
C689 C687 1.415 . S
C690 H680 0.930 . S
C690 C688 1.419 . S
C690 C691 1.362 . S
C691 H681 0.930 . S
C691 C684 1.409 . S
C691 C690 1.362 . S
H692 C698 0.930 . S
H693 C701 0.930 . S
H694 C702 0.930 . S
H695 C703 0.930 . S
H696 C706 0.930 . S
H697 C707 0.930 . S
C698 H692 0.930 . S
C698 C699 1.355 . S
C698 C700 1.415 . S
C699 C698 1.355 . S
C699 C701 1.419 . S
C700 C698 1.415 . S
C700 C705 1.425 . S
C700 C707 1.409 . S
C701 H693 0.930 . S
C701 C699 1.419 . S
C701 C702 1.362 . S
C702 H694 0.930 . S
C702 C701 1.362 . S
C702 C705 1.409 . S
C703 H695 0.930 . S
C703 C704 1.355 . S
C703 C705 1.415 . S
C704 C703 1.355 . S
C704 C706 1.419 . S
C705 C700 1.425 . S
C705 C702 1.409 . S
C705 C703 1.415 . S
C706 H696 0.930 . S
C706 C704 1.419 . S
C706 C707 1.362 . S
C707 H697 0.930 . S
C707 C700 1.409 . S
C707 C706 1.362 . S
H708 C714 0.930 . S
H709 C717 0.930 . S
H710 C718 0.930 . S
H711 C719 0.930 . S
H712 C722 0.930 . S
H713 C723 0.930 . S
C714 H708 0.930 . S
C714 C715 1.355 . S
C714 C716 1.415 . S
C715 C714 1.355 . S
C715 C717 1.419 . S
C716 C714 1.415 . S
C716 C721 1.425 . S
C716 C723 1.409 . S
C717 H709 0.930 . S
C717 C715 1.419 . S
C717 C718 1.362 . S
C718 H710 0.930 . S
C718 C717 1.362 . S
C718 C721 1.409 . S
C719 H711 0.930 . S
C719 C720 1.355 . S
C719 C721 1.415 . S
C720 C719 1.355 . S
C720 C722 1.419 . S
C721 C716 1.425 . S
C721 C718 1.409 . S
C721 C719 1.415 . S
C722 H712 0.930 . S
C722 C720 1.419 . S
C722 C723 1.362 . S
C723 H713 0.930 . S
C723 C716 1.409 . S
C723 C722 1.362 . S
H724 C730 0.930 . S
H725 C733 0.930 . S
H726 C734 0.930 . S
H727 C735 0.930 . S
H728 C738 0.930 . S
H729 C739 0.930 . S
C730 H724 0.930 . S
C730 C731 1.355 . S
C730 C732 1.415 . S
C731 C730 1.355 . S
C731 C733 1.419 . S
C732 C730 1.415 . S
C732 C737 1.425 . S
C732 C739 1.409 . S
C733 H725 0.930 . S
C733 C731 1.419 . S
C733 C734 1.362 . S
C734 H726 0.930 . S
C734 C733 1.362 . S
C734 C737 1.409 . S
C735 H727 0.930 . S
C735 C736 1.355 . S
C735 C737 1.415 . S
C736 C735 1.355 . S
C736 C738 1.419 . S
C737 C732 1.425 . S
C737 C734 1.409 . S
C737 C735 1.415 . S
C738 H728 0.930 . S
C738 C736 1.419 . S
C738 C739 1.362 . S
C739 H729 0.930 . S
C739 C732 1.409 . S
C739 C738 1.362 . S
H740 C746 0.930 . S
H741 C749 0.930 . S
H742 C750 0.930 . S
H743 C751 0.930 . S
H744 C754 0.930 . S
H745 C755 0.930 . S
C746 H740 0.930 . S
C746 C747 1.355 . S
C746 C748 1.415 . S
C747 C746 1.355 . S
C747 C749 1.419 . S
C748 C746 1.415 . S
C748 C753 1.425 . S
C748 C755 1.409 . S
C749 H741 0.930 . S
C749 C747 1.419 . S
C749 C750 1.362 . S
C750 H742 0.930 . S
C750 C749 1.362 . S
C750 C753 1.409 . S
C751 H743 0.930 . S
C751 C752 1.355 . S
C751 C753 1.415 . S
C752 C751 1.355 . S
C752 C754 1.419 . S
C753 C748 1.425 . S
C753 C750 1.409 . S
C753 C751 1.415 . S
C754 H744 0.930 . S
C754 C752 1.419 . S
C754 C755 1.362 . S
C755 H745 0.930 . S
C755 C748 1.409 . S
C755 C754 1.362 . S
H756 C762 0.930 . S
H757 C765 0.930 . S
H758 C766 0.930 . S
H759 C767 0.930 . S
H760 C770 0.930 . S
H761 C771 0.930 . S
C762 H756 0.930 . S
C762 C763 1.355 . S
C762 C764 1.415 . S
C763 C762 1.355 . S
C763 C765 1.419 . S
C764 C762 1.415 . S
C764 C769 1.425 . S
C764 C771 1.409 . S
C765 H757 0.930 . S
C765 C763 1.419 . S
C765 C766 1.362 . S
C766 H758 0.930 . S
C766 C765 1.362 . S
C766 C769 1.409 . S
C767 H759 0.930 . S
C767 C768 1.355 . S
C767 C769 1.415 . S
C768 C767 1.355 . S
C768 C770 1.419 . S
C769 C764 1.425 . S
C769 C766 1.409 . S
C769 C767 1.415 . S
C770 H760 0.930 . S
C770 C768 1.419 . S
C770 C771 1.362 . S
C771 H761 0.930 . S
C771 C764 1.409 . S
C771 C770 1.362 . S
H772 C778 0.930 . S
H773 C781 0.930 . S
H774 C782 0.930 . S
H775 C783 0.930 . S
H776 C786 0.930 . S
H777 C787 0.930 . S
C778 H772 0.930 . S
C778 C779 1.355 . S
C778 C780 1.415 . S
C779 C778 1.355 . S
C779 C781 1.419 . S
C780 C778 1.415 . S
C780 C785 1.425 . S
C780 C787 1.409 . S
C781 H773 0.930 . S
C781 C779 1.419 . S
C781 C782 1.362 . S
C782 H774 0.930 . S
C782 C781 1.362 . S
C782 C785 1.409 . S
C783 H775 0.930 . S
C783 C784 1.355 . S
C783 C785 1.415 . S
C784 C783 1.355 . S
C784 C786 1.419 . S
C785 C780 1.425 . S
C785 C782 1.409 . S
C785 C783 1.415 . S
C786 H776 0.930 . S
C786 C784 1.419 . S
C786 C787 1.362 . S
C787 H777 0.930 . S
C787 C780 1.409 . S
C787 C786 1.362 . S
H788 C794 0.930 . S
H789 C797 0.930 . S
H790 C798 0.930 . S
H791 C799 0.930 . S
H792 C802 0.930 . S
H793 C803 0.930 . S
C794 H788 0.930 . S
C794 C795 1.355 . S
C794 C796 1.415 . S
C795 C794 1.355 . S
C795 C797 1.419 . S
C796 C794 1.415 . S
C796 C801 1.425 . S
C796 C803 1.409 . S
C797 H789 0.930 . S
C797 C795 1.419 . S
C797 C798 1.362 . S
C798 H790 0.930 . S
C798 C797 1.362 . S
C798 C801 1.409 . S
C799 H791 0.930 . S
C799 C800 1.355 . S
C799 C801 1.415 . S
C800 C799 1.355 . S
C800 C802 1.419 . S
C801 C796 1.425 . S
C801 C798 1.409 . S
C801 C799 1.415 . S
C802 H792 0.930 . S
C802 C800 1.419 . S
C802 C803 1.362 . S
C803 H793 0.930 . S
C803 C796 1.409 . S
C803 C802 1.362 . S
H804 C810 0.930 . S
H805 C813 0.930 . S
H806 C814 0.930 . S
H807 C815 0.930 . S
H808 C818 0.930 . S
H809 C819 0.930 . S
C810 H804 0.930 . S
C810 C811 1.355 . S
C810 C812 1.415 . S
C811 C810 1.355 . S
C811 C813 1.419 . S
C812 C810 1.415 . S
C812 C817 1.425 . S
C812 C819 1.409 . S
C813 H805 0.930 . S
C813 C811 1.419 . S
C813 C814 1.362 . S
C814 H806 0.930 . S
C814 C813 1.362 . S
C814 C817 1.409 . S
C815 H807 0.930 . S
C815 C816 1.355 . S
C815 C817 1.415 . S
C816 C815 1.355 . S
C816 C818 1.419 . S
C817 C812 1.425 . S
C817 C814 1.409 . S
C817 C815 1.415 . S
C818 H808 0.930 . S
C818 C816 1.419 . S
C818 C819 1.362 . S
C819 H809 0.930 . S
C819 C812 1.409 . S
C819 C818 1.362 . S
H820 C826 0.930 . S
H821 C829 0.930 . S
H822 C830 0.930 . S
H823 C831 0.930 . S
H824 C834 0.930 . S
H825 C835 0.930 . S
C826 H820 0.930 . S
C826 C827 1.355 . S
C826 C828 1.415 . S
C827 C826 1.355 . S
C827 C829 1.419 . S
C828 C826 1.415 . S
C828 C833 1.425 . S
C828 C835 1.409 . S
C829 H821 0.930 . S
C829 C827 1.419 . S
C829 C830 1.362 . S
C830 H822 0.930 . S
C830 C829 1.362 . S
C830 C833 1.409 . S
C831 H823 0.930 . S
C831 C832 1.355 . S
C831 C833 1.415 . S
C832 C831 1.355 . S
C832 C834 1.419 . S
C833 C828 1.425 . S
C833 C830 1.409 . S
C833 C831 1.415 . S
C834 H824 0.930 . S
C834 C832 1.419 . S
C834 C835 1.362 . S
C835 H825 0.930 . S
C835 C828 1.409 . S
C835 C834 1.362 . S
H836 C842 0.930 . S
H837 C845 0.930 . S
H838 C846 0.930 . S
H839 C847 0.930 . S
H840 C850 0.930 . S
H841 C851 0.930 . S
C842 H836 0.930 . S
C842 C843 1.355 . S
C842 C844 1.415 . S
C843 C842 1.355 . S
C843 C845 1.419 . S
C844 C842 1.415 . S
C844 C849 1.425 . S
C844 C851 1.409 . S
C845 H837 0.930 . S
C845 C843 1.419 . S
C845 C846 1.362 . S
C846 H838 0.930 . S
C846 C845 1.362 . S
C846 C849 1.409 . S
C847 H839 0.930 . S
C847 C848 1.355 . S
C847 C849 1.415 . S
C848 C847 1.355 . S
C848 C850 1.419 . S
C849 C844 1.425 . S
C849 C846 1.409 . S
C849 C847 1.415 . S
C850 H840 0.930 . S
C850 C848 1.419 . S
C850 C851 1.362 . S
C851 H841 0.930 . S
C851 C844 1.409 . S
C851 C850 1.362 . S
H852 C858 0.930 . S
H853 C861 0.930 . S
H854 C862 0.930 . S
H855 C863 0.930 . S
H856 C866 0.930 . S
H857 C867 0.930 . S
C858 H852 0.930 . S
C858 C859 1.355 . S
C858 C860 1.415 . S
C859 C858 1.355 . S
C859 C861 1.419 . S
C860 C858 1.415 . S
C860 C865 1.425 . S
C860 C867 1.409 . S
C861 H853 0.930 . S
C861 C859 1.419 . S
C861 C862 1.362 . S
C862 H854 0.930 . S
C862 C861 1.362 . S
C862 C865 1.409 . S
C863 H855 0.930 . S
C863 C864 1.355 . S
C863 C865 1.415 . S
C864 C863 1.355 . S
C864 C866 1.419 . S
C865 C860 1.425 . S
C865 C862 1.409 . S
C865 C863 1.415 . S
C866 H856 0.930 . S
C866 C864 1.419 . S
C866 C867 1.362 . S
C867 H857 0.930 . S
C867 C860 1.409 . S
C867 C866 1.362 . S
H868 C874 0.930 . S
H869 C877 0.930 . S
H870 C878 0.930 . S
H871 C879 0.930 . S
H872 C882 0.930 . S
H873 C883 0.930 . S
C874 H868 0.930 . S
C874 C875 1.355 . S
C874 C876 1.415 . S
C875 C874 1.355 . S
C875 C877 1.419 . S
C876 C874 1.415 . S
C876 C881 1.425 . S
C876 C883 1.409 . S
C877 H869 0.930 . S
C877 C875 1.419 . S
C877 C878 1.362 . S
C878 H870 0.930 . S
C878 C877 1.362 . S
C878 C881 1.409 . S
C879 H871 0.930 . S
C879 C880 1.355 . S
C879 C881 1.415 . S
C880 C879 1.355 . S
C880 C882 1.419 . S
C881 C876 1.425 . S
C881 C878 1.409 . S
C881 C879 1.415 . S
C882 H872 0.930 . S
C882 C880 1.419 . S
C882 C883 1.362 . S
C883 H873 0.930 . S
C883 C876 1.409 . S
C883 C882 1.362 . S
H884 C890 0.930 . S
H885 C893 0.930 . S
H886 C894 0.930 . S
H887 C895 0.930 . S
H888 C898 0.930 . S
H889 C899 0.930 . S
C890 H884 0.930 . S
C890 C891 1.355 . S
C890 C892 1.415 . S
C891 C890 1.355 . S
C891 C893 1.419 . S
C892 C890 1.415 . S
C892 C897 1.425 . S
C892 C899 1.409 . S
C893 H885 0.930 . S
C893 C891 1.419 . S
C893 C894 1.362 . S
C894 H886 0.930 . S
C894 C893 1.362 . S
C894 C897 1.409 . S
C895 H887 0.930 . S
C895 C896 1.355 . S
C895 C897 1.415 . S
C896 C895 1.355 . S
C896 C898 1.419 . S
C897 C892 1.425 . S
C897 C894 1.409 . S
C897 C895 1.415 . S
C898 H888 0.930 . S
C898 C896 1.419 . S
C898 C899 1.362 . S
C899 H889 0.930 . S
C899 C892 1.409 . S
C899 C898 1.362 . S
H900 C906 0.930 . S
H901 C909 0.930 . S
H902 C910 0.930 . S
H903 C911 0.930 1_554 S
H904 C914 0.930 . S
H905 C915 0.930 . S
C906 H900 0.930 . S
C906 C907 1.355 . S
C906 C908 1.415 . S
C907 C906 1.355 . S
C907 C909 1.419 . S
C908 C906 1.415 . S
C908 C913 1.425 . S
C908 C915 1.409 . S
C909 H901 0.930 . S
C909 C907 1.419 . S
C909 C910 1.362 . S
C910 H902 0.930 . S
C910 C909 1.362 . S
C910 C913 1.409 . S
C911 H903 0.930 1_556 S
C911 C912 1.353 . S
C911 C913 1.415 . S
C912 C911 1.353 . S
C912 C914 1.417 . S
C913 C908 1.425 . S
C913 C910 1.409 . S
C913 C911 1.415 . S
C914 H904 0.930 . S
C914 C912 1.417 . S
C914 C915 1.362 . S
C915 H905 0.930 . S
C915 C908 1.409 . S
C915 C914 1.362 . S
H916 C922 0.930 . S
H917 C925 0.930 . S
H918 C926 0.930 . S
H919 C927 0.930 . S
H920 C930 0.930 . S
H921 C931 0.930 . S
C922 H916 0.930 . S
C922 C923 1.355 . S
C922 C924 1.415 . S
C923 C922 1.355 . S
C923 C925 1.419 . S
C924 C922 1.415 . S
C924 C929 1.425 . S
C924 C931 1.409 . S
C925 H917 0.930 . S
C925 C923 1.419 . S
C925 C926 1.362 . S
C926 H918 0.930 . S
C926 C925 1.362 . S
C926 C929 1.409 . S
C927 H919 0.930 . S
C927 C928 1.355 . S
C927 C929 1.415 . S
C928 C927 1.355 . S
C928 C930 1.419 . S
C929 C924 1.425 . S
C929 C926 1.409 . S
C929 C927 1.415 . S
C930 H920 0.930 . S
C930 C928 1.419 . S
C930 C931 1.362 . S
C931 H921 0.930 . S
C931 C924 1.409 . S
C931 C930 1.362 . S
H932 C938 0.930 . S
H933 C941 0.930 . S
H934 C942 0.930 . S
H935 C943 0.930 . S
H936 C946 0.930 . S
H937 C947 0.930 . S
C938 H932 0.930 . S
C938 C939 1.355 . S
C938 C940 1.415 . S
C939 C938 1.355 . S
C939 C941 1.419 . S
C940 C938 1.415 . S
C940 C945 1.425 . S
C940 C947 1.409 . S
C941 H933 0.930 . S
C941 C939 1.419 . S
C941 C942 1.362 . S
C942 H934 0.930 . S
C942 C941 1.362 . S
C942 C945 1.409 . S
C943 H935 0.930 . S
C943 C944 1.355 . S
C943 C945 1.415 . S
C944 C943 1.355 . S
C944 C946 1.419 . S
C945 C940 1.425 . S
C945 C942 1.409 . S
C945 C943 1.415 . S
C946 H936 0.930 . S
C946 C944 1.419 . S
C946 C947 1.362 . S
C947 H937 0.930 . S
C947 C940 1.409 . S
C947 C946 1.362 . S
H948 C954 0.930 . S
H949 C957 0.930 . S
H950 C958 0.930 . S
H951 C959 0.930 . S
H952 C962 0.930 . S
H953 C963 0.930 . S
C954 H948 0.930 . S
C954 C955 1.355 . S
C954 C956 1.415 . S
C955 C954 1.355 . S
C955 C957 1.419 . S
C956 C954 1.415 . S
C956 C961 1.425 . S
C956 C963 1.409 . S
C957 H949 0.930 . S
C957 C955 1.419 . S
C957 C958 1.362 . S
C958 H950 0.930 . S
C958 C957 1.362 . S
C958 C961 1.409 . S
C959 H951 0.930 . S
C959 C960 1.355 . S
C959 C961 1.415 . S
C960 C959 1.355 . S
C960 C962 1.419 . S
C961 C956 1.425 . S
C961 C958 1.409 . S
C961 C959 1.415 . S
C962 H952 0.930 . S
C962 C960 1.419 . S
C962 C963 1.362 . S
C963 H953 0.930 . S
C963 C956 1.409 . S
C963 C962 1.362 . S
H964 C970 0.930 . S
H965 C973 0.930 . S
H966 C974 0.930 . S
H967 C975 0.930 . S
H968 C978 0.930 . S
H969 C979 0.930 . S
C970 H964 0.930 . S
C970 C971 1.355 . S
C970 C972 1.415 . S
C971 C970 1.355 . S
C971 C973 1.419 . S
C972 C970 1.415 . S
C972 C977 1.425 . S
C972 C979 1.409 . S
C973 H965 0.930 . S
C973 C971 1.419 . S
C973 C974 1.362 . S
C974 H966 0.930 . S
C974 C973 1.362 . S
C974 C977 1.409 . S
C975 H967 0.930 . S
C975 C976 1.355 . S
C975 C977 1.415 . S
C976 C975 1.355 . S
C976 C978 1.419 . S
C977 C972 1.425 . S
C977 C974 1.409 . S
C977 C975 1.415 . S
C978 H968 0.930 . S
C978 C976 1.419 . S
C978 C979 1.362 . S
C979 H969 0.930 . S
C979 C972 1.409 . S
C979 C978 1.362 . S
H980 C986 0.930 . S
H981 C989 0.930 . S
H982 C990 0.930 . S
H983 C991 0.930 . S
H984 C994 0.930 . S
H985 C995 0.930 . S
C986 H980 0.930 . S
C986 C987 1.355 . S
C986 C988 1.415 . S
C987 C986 1.355 . S
C987 C989 1.419 . S
C988 C986 1.415 . S
C988 C993 1.425 . S
C988 C995 1.409 . S
C989 H981 0.930 . S
C989 C987 1.419 . S
C989 C990 1.362 . S
C990 H982 0.930 . S
C990 C989 1.362 . S
C990 C993 1.409 . S
C991 H983 0.930 . S
C991 C992 1.355 . S
C991 C993 1.415 . S
C992 C991 1.355 . S
C992 C994 1.419 . S
C993 C988 1.425 . S
C993 C990 1.409 . S
C993 C991 1.415 . S
C994 H984 0.930 . S
C994 C992 1.419 . S
C994 C995 1.362 . S
C995 H985 0.930 . S
C995 C988 1.409 . S
C995 C994 1.362 . S
H996 C1002 0.930 . S
H997 C1005 0.930 . S
H998 C1006 0.930 . S
H999 C1007 0.930 . S
H1000 C1010 0.930 . S
H1001 C1011 0.930 . S
C1002 H996 0.930 . S
C1002 C1003 1.355 . S
C1002 C1004 1.415 . S
C1003 C1002 1.355 . S
C1003 C1005 1.419 . S
C1004 C1002 1.415 . S
C1004 C1009 1.425 . S
C1004 C1011 1.409 . S
C1005 H997 0.930 . S
C1005 C1003 1.419 . S
C1005 C1006 1.362 . S
C1006 H998 0.930 . S
C1006 C1005 1.362 . S
C1006 C1009 1.409 . S
C1007 H999 0.930 . S
C1007 C1008 1.355 . S
C1007 C1009 1.415 . S
C1008 C1007 1.355 . S
C1008 C1010 1.419 . S
C1009 C1004 1.425 . S
C1009 C1006 1.409 . S
C1009 C1007 1.415 . S
C1010 H1000 0.930 . S
C1010 C1008 1.419 . S
C1010 C1011 1.362 . S
C1011 H1001 0.930 . S
C1011 C1004 1.409 . S
C1011 C1010 1.362 . S
H1012 C1018 0.930 . S
H1013 C1021 0.930 . S
H1014 C1022 0.930 . S
H1015 C1023 0.930 . S
H1016 C1026 0.930 . S
H1017 C1027 0.930 1_554 S
C1018 H1012 0.930 . S
C1018 C1019 1.355 . S
C1018 C1020 1.415 . S
C1019 C1018 1.355 . S
C1019 C1021 1.419 . S
C1020 C1018 1.415 . S
C1020 C1025 1.411 1_554 S
C1020 C1027 1.409 1_554 S
C1021 H1013 0.930 . S
C1021 C1019 1.419 . S
C1021 C1022 1.362 . S
C1022 H1014 0.930 . S
C1022 C1021 1.362 . S
C1022 C1025 1.391 1_554 S
C1023 H1015 0.930 . S
C1023 C1024 1.355 . S
C1023 C1025 1.447 . S
C1024 C1023 1.355 . S
C1024 C1026 1.419 . S
C1025 C1020 1.411 1_556 S
C1025 C1022 1.391 1_556 S
C1025 C1023 1.447 . S
C1026 H1016 0.930 . S
C1026 C1024 1.419 . S
C1026 C1027 1.362 . S
C1027 H1017 0.930 1_556 S
C1027 C1020 1.409 1_556 S
C1027 C1026 1.362 . S
H1028 C1034 0.930 . S
H1029 C1037 0.930 . S
H1030 C1038 0.930 . S
H1031 C1039 0.930 . S
H1032 C1042 0.930 . S
H1033 C1043 0.930 . S
C1034 H1028 0.930 . S
C1034 C1035 1.355 . S
C1034 C1036 1.415 . S
C1035 C1034 1.355 . S
C1035 C1037 1.419 . S
C1036 C1034 1.415 . S
C1036 C1041 1.425 . S
C1036 C1043 1.409 . S
C1037 H1029 0.930 . S
C1037 C1035 1.419 . S
C1037 C1038 1.362 . S
C1038 H1030 0.930 . S
C1038 C1037 1.362 . S
C1038 C1041 1.409 . S
C1039 H1031 0.930 . S
C1039 C1040 1.355 . S
C1039 C1041 1.415 . S
C1040 C1039 1.355 . S
C1040 C1042 1.419 . S
C1041 C1036 1.425 . S
C1041 C1038 1.409 . S
C1041 C1039 1.415 . S
C1042 H1032 0.930 . S
C1042 C1040 1.419 . S
C1042 C1043 1.362 . S
C1043 H1033 0.930 . S
C1043 C1036 1.409 . S
C1043 C1042 1.362 . S
C672 C627 1.356 . S
C667 C51 1.322 . S
C683 C125 1.463 . S
C688 C447 1.455 . S
C699 C217 2.550 . S
C704 C494 2.560 . S
C715 C291 1.542 . S
C720 C530 1.502 . S
C736 C555 0.970 . S
C731 C347 0.965 . S
C747 C421 0.931 . S
C752 C591 0.944 . S
C763 C143 2.287 . S
C768 C483 2.286 . S
C779 C199 1.488 . S
C784 C519 1.503 . S
C795 C273 0.643 . S
C800 C566 0.691 . S
C816 C602 1.657 . S
C811 C365 1.670 . S
C832 C638 1.846 . S
C827 C439 1.841 . S
C848 C458 2.477 . S
C843 C69 2.419 . S
C859 C63 1.486 . S
C864 C482 1.574 . S
C875 C137 1.532 . S
C880 C518 1.605 . S
C896 C556 1.446 . S
C891 C187 1.404 . S
C907 C261 1.453 . S
C912 C592 1.518 1_556 S
C928 C628 1.621 . S
C923 C359 1.446 . S
C944 C448 1.240 . S
C939 C433 1.107 . S
C960 C626 1.583 . S
C955 C113 1.596 . S
C971 C211 1.386 . S
C976 C446 1.423 . S
C992 C484 1.645 . S
C987 C285 1.520 . S
C1003 C335 1.375 . S
C1008 C520 1.496 . S
C1019 C409 1.373 . S
C1024 C554 1.445 . S
C1035 C39 1.667 . S
C1040 C590 1.676 . S
