# Generated by pormake.
# Topology pth, (4,4)-cn, num edge types: 1
# Building blocks:
#     Node 0, Type 0, BuildingBlock: UXUYUI_clean_sbu_0, # of connection points: 4
#     Node 1, Type 0, BuildingBlock: UXUYUI_clean_sbu_0, # of connection points: 4
#     Node 2, Type 0, BuildingBlock: UXUYUI_clean_sbu_0, # of connection points: 4
#     Node 3, Type 1, BuildingBlock: MUDLON_clean_linker_0, # of connection points: 4
#     Node 4, Type 1, BuildingBlock: MUDLON_clean_linker_0, # of connection points: 4
#     Node 5, Type 1, BuildingBlock: MUDLON_clean_linker_0, # of connection points: 4
#     Edge 6, Type (0, 1), BuildingBlock: TEMPAE_clean_linker_10, # of connection points: 2
#     Edge 7, Type (0, 1), BuildingBlock: TEMPAE_clean_linker_10, # of connection points: 2
#     Edge 8, Type (0, 1), BuildingBlock: TEMPAE_clean_linker_10, # of connection points: 2
#     Edge 9, Type (0, 1), BuildingBlock: TEMPAE_clean_linker_10, # of connection points: 2
#     Edge 10, Type (0, 1), BuildingBlock: TEMPAE_clean_linker_10, # of connection points: 2
#     Edge 11, Type (0, 1), BuildingBlock: TEMPAE_clean_linker_10, # of connection points: 2
#     Edge 12, Type (0, 1), BuildingBlock: TEMPAE_clean_linker_10, # of connection points: 2
#     Edge 13, Type (0, 1), BuildingBlock: TEMPAE_clean_linker_10, # of connection points: 2
#     Edge 14, Type (0, 1), BuildingBlock: TEMPAE_clean_linker_10, # of connection points: 2
#     Edge 15, Type (0, 1), BuildingBlock: TEMPAE_clean_linker_10, # of connection points: 2
#     Edge 16, Type (0, 1), BuildingBlock: TEMPAE_clean_linker_10, # of connection points: 2
#     Edge 17, Type (0, 1), BuildingBlock: TEMPAE_clean_linker_10, # of connection points: 2
# Relax obj value: 0.088
# Max RMSD: 0.213
# Mean RMSD: 0.143
data_MOF--net-pth--node1-UXUYUI_clean_sbu_0--node2-MUDLON_clean_linker_0--edge1-TEMPAE_clean_linker_10
_symmetry_space_group_name_H-M    P1
_symmetry_Int_Tables_number       1
_symmetry_cell_setting            triclinic
loop_
_symmetry_equiv_pos_as_xyz
'x, y, z'
_cell_length_a     39.678586
_cell_length_b     39.676345
_cell_length_c     79.884363
_cell_angle_alpha  89.992092
_cell_angle_beta   89.997038
_cell_angle_gamma 120.00682
loop_
_atom_site_label
_atom_site_type_symbol
_atom_site_fract_x
_atom_site_fract_y
_atom_site_fract_z
_atom_type_partial_charge
Li0 Li 0.04507 0.02714 0.02407 0.0
Li1 Li 0.00518 0.03458 0.04533 0.0
Li2 Li 0.01865 0.98099 0.0463 0.0
Li3 Li 0.97487 0.98215 0.02521 0.0
C4 C 0.07674 0.03774 0.06174 0.0
N5 N 0.11555 0.03436 0.08984 0.0
C6 C 0.06933 0.04856 0.07736 0.0
C7 C 0.10402 0.02539 0.0604 0.0
C8 C 0.08925 0.04664 0.09142 0.0
C9 C 0.12327 0.02379 0.07476 0.0
C10 C 0.99395 0.06772 0.01887 0.0
C11 C 0.95053 0.09321 0.02259 0.0
N12 N 0.97859 0.12829 0.01669 0.0
C13 C 0.02237 0.10406 0.01284 0.0
C14 C 0.95772 0.06224 0.02377 0.0
C15 C 0.01402 0.13429 0.01182 0.0
C16 C 0.07801 0.06421 0.99398 0.0
N17 N 0.08725 0.056 0.00921 0.0
C18 C 0.15515 0.09579 0.00343 0.0
C19 C 0.12488 0.07058 0.014 0.0
C20 C 0.14651 0.10673 0.98796 0.0
C21 C 0.1072 0.08985 0.98319 0.0
H22 H 0.04778 0.05227 0.99055 0.0
H23 H 0.1314 0.06358 0.02621 0.0
C24 C 0.97314 0.06146 0.07043 0.0
N25 N 0.00067 0.07219 0.05832 0.0
C26 C 0.97181 0.0897 0.08041 0.0
C27 C 0.02652 0.13934 0.06493 0.0
C28 C 0.02734 0.11016 0.05555 0.0
C29 C 0.99887 0.12936 0.07777 0.0
H30 H 0.95286 0.03095 0.07261 0.0
H31 H 0.04951 0.11776 0.04611 0.0
C32 C 0.03534 0.96627 0.00851 0.0
N33 N 0.07428 0.96396 0.98026 0.0
C34 C 0.01872 0.9623 0.99269 0.0
C35 C 0.07174 0.96903 0.00997 0.0
C36 C 0.03887 0.96117 0.97856 0.0
C37 C 0.09098 0.96783 0.99553 0.0
C38 C 0.93115 0.95004 0.05187 0.0
C39 C 0.92339 0.91175 0.05366 0.0
C40 C 0.90033 0.95759 0.05151 0.0
C41 C 0.88483 0.8816 0.05494 0.0
C42 C 0.86217 0.92664 0.05281 0.0
N43 N 0.85528 0.8896 0.05447 0.0
C44 C 0.01229 0.94628 0.07726 0.0
C45 C 0.03818 0.92361 0.05617 0.0
C46 C 0.01201 0.91961 0.08869 0.0
N47 N 0.02482 0.94745 0.06133 0.0
C48 C 0.03866 0.89659 0.06725 0.0
C49 C 0.02473 0.89393 0.08364 0.0
H50 H 0.00149 0.9654 0.08092 0.0
H51 H 0.04737 0.92477 0.04335 0.0
C52 C 0.91076 0.96417 0.00353 0.0
N53 N 0.92977 0.94949 0.01237 0.0
C54 C 0.87862 0.93964 0.99369 0.0
C55 C 0.88639 0.88543 0.00219 0.0
C56 C 0.91839 0.91101 0.01182 0.0
C57 C 0.86618 0.89971 0.99288 0.0
H58 H 0.92085 0.99495 0.00385 0.0
H59 H 0.93464 0.90032 0.01868 0.0
O60 O 0.05691 0.03859 0.04789 0.0
O61 O 0.00174 0.03787 0.02022 0.0
O62 O 0.01657 0.9685 0.02246 0.0
O63 O 0.96867 0.9799 0.05026 0.0
H64 H 0.04822 0.05804 0.07866 0.0
H65 H 0.10972 0.01639 0.04846 0.0
H66 H 0.08371 0.05479 0.1036 0.0
H67 H 0.14421 0.01398 0.07393 0.0
H68 H 0.92268 0.08938 0.02642 0.0
H69 H 0.05078 0.10913 0.00922 0.0
H70 H 0.93557 0.03451 0.02865 0.0
H71 H 0.0358 0.16258 0.00725 0.0
H72 H 0.18489 0.10731 0.00756 0.0
H73 H 0.09871 0.09772 0.97161 0.0
H74 H 0.9505 0.08039 0.09037 0.0
H75 H 0.04761 0.16938 0.06218 0.0
H76 H 0.99077 0.96056 0.9913 0.0
H77 H 0.0853 0.97271 0.0221 0.0
H78 H 0.02642 0.95825 0.96623 0.0
H79 H 0.11927 0.97017 0.99647 0.0
H80 H 0.94679 0.90524 0.05378 0.0
H81 H 0.90577 0.98702 0.0502 0.0
H82 H 0.8784 0.85182 0.05622 0.0
H83 H 0.83803 0.93206 0.05249 0.0
H84 H 0.00137 0.91867 0.10127 0.0
H85 H 0.04834 0.877 0.06287 0.0
H86 H 0.86377 0.95182 0.98674 0.0
H87 H 0.87826 0.85502 0.00167 0.0
Li88 Li 0.98966 0.96938 0.36067 0.0
Li89 Li 0.03879 0.01542 0.3792 0.0
Li90 Li 0.9721 0.99904 0.38305 0.0
Li91 Li 0.01117 0.03995 0.35913 0.0
C92 C 0.00654 0.93809 0.38826 0.0
N93 N 0.0333 0.88698 0.39454 0.0
C94 C 0.03435 0.93731 0.37776 0.0
C95 C 0.99246 0.91292 0.40198 0.0
C96 C 0.04748 0.91126 0.38113 0.0
C97 C 0.00631 0.88728 0.40494 0.0
C98 C 0.07581 0.03117 0.3463 0.0
C99 C 0.13525 0.08909 0.33843 0.0
N100 N 0.14656 0.06682 0.32985 0.0
C101 C 0.08797 0.00885 0.33737 0.0
C102 C 0.09957 0.07161 0.34682 0.0
C103 C 0.12386 0.02742 0.32915 0.0
C104 C 0.98353 0.92959 0.33095 0.0
N105 N 0.97324 0.92409 0.34736 0.0
C106 C 0.94421 0.85518 0.34432 0.0
C107 C 0.95341 0.8878 0.35412 0.0
C108 C 0.95536 0.86001 0.3274 0.0
C109 C 0.97488 0.89782 0.32069 0.0
H110 H 0.99921 0.95881 0.32593 0.0
H111 H 0.94526 0.88417 0.36719 0.0
C112 C 0.07824 0.01926 0.40848 0.0
N113 N 0.08406 0.02495 0.39171 0.0
C114 C 0.10778 0.02225 0.41889 0.0
C115 C 0.14888 0.03612 0.39459 0.0
C116 C 0.11864 0.03342 0.38466 0.0
C117 C 0.14353 0.03006 0.41195 0.0
H118 H 0.05018 0.01151 0.41374 0.0
H119 H 0.12263 0.03682 0.37132 0.0
C120 C 0.91876 0.96666 0.3567 0.0
N121 N 0.84154 0.91102 0.35208 0.0
C122 C 0.89637 0.97242 0.34477 0.0
C123 C 0.90187 0.93265 0.3663 0.0
C124 C 0.85738 0.94393 0.34261 0.0
C125 C 0.8628 0.90486 0.36377 0.0
C126 C 0.04072 0.07371 0.39653 0.0
C127 C 0.02494 0.06693 0.41266 0.0
C128 C 0.07943 0.10269 0.394 0.0
C129 C 0.04831 0.08896 0.42602 0.0
C130 C 0.10186 0.12403 0.40769 0.0
N131 N 0.08598 0.11678 0.42328 0.0
C132 C 0.91925 0.96303 0.40982 0.0
C133 C 0.91606 0.01452 0.39625 0.0
C134 C 0.8893 0.95731 0.42069 0.0
N135 N 0.93193 0.9913 0.39796 0.0
C136 C 0.8861 0.00988 0.40686 0.0
C137 C 0.87238 0.98099 0.41931 0.0
H138 H 0.9323 0.94486 0.41077 0.0
H139 H 0.92686 0.03674 0.38665 0.0
C140 C 0.99822 0.07101 0.33001 0.0
N141 N 0.01772 0.08068 0.34479 0.0
C142 C 0.00021 0.09998 0.31946 0.0
C143 C 0.04314 0.14834 0.33938 0.0
C144 C 0.03974 0.11837 0.34968 0.0
C145 C 0.02292 0.13937 0.32408 0.0
H146 H 0.98056 0.04069 0.32658 0.0
H147 H 0.05457 0.12516 0.3616 0.0
O148 O 0.99354 0.96372 0.38538 0.0
O149 O 0.04067 0.01337 0.35435 0.0
O150 O 0.95696 0.99434 0.35895 0.0
O151 O 0.01836 0.05213 0.38332 0.0
H152 H 0.04579 0.95658 0.36713 0.0
H153 H 0.97111 0.91322 0.4103 0.0
H154 H 0.06897 0.91038 0.3731 0.0
H155 H 0.99563 0.86764 0.41552 0.0
H156 H 0.15396 0.12037 0.33878 0.0
H157 H 0.06996 0.97749 0.33684 0.0
H158 H 0.09075 0.08927 0.35371 0.0
H159 H 0.13368 0.01049 0.32223 0.0
H160 H 0.9287 0.82651 0.34993 0.0
H161 H 0.98442 0.90292 0.30777 0.0
H162 H 0.10236 0.01784 0.43222 0.0
H163 H 0.17559 0.04143 0.38861 0.0
H164 H 0.90899 0.99866 0.33727 0.0
H165 H 0.91869 0.92774 0.37563 0.0
H166 H 0.8397 0.94798 0.33342 0.0
H167 H 0.84937 0.8784 0.37112 0.0
H168 H 0.99509 0.04472 0.41489 0.0
H169 H 0.09222 0.10835 0.38166 0.0
H170 H 0.03652 0.08387 0.43857 0.0
H171 H 0.13193 0.14632 0.40592 0.0
H172 H 0.87927 0.93438 0.42997 0.0
H173 H 0.87425 0.0291 0.40549 0.0
H174 H 0.98346 0.09147 0.30799 0.0
H175 H 0.06148 0.17817 0.34339 0.0
Li176 Li 0.02907 0.98854 0.69365 0.0
Li177 Li 0.02756 0.02716 0.71671 0.0
Li178 Li 0.97552 0.95939 0.71211 0.0
Li179 Li 0.98031 0.01011 0.69381 0.0
C180 C 0.05806 0.96824 0.71976 0.0
N181 N 0.11458 0.94726 0.72262 0.0
C182 C 0.09336 0.99306 0.7277 0.0
C183 C 0.05124 0.93242 0.71358 0.0
C184 C 0.12163 0.98202 0.72894 0.0
C185 C 0.08025 0.92244 0.71505 0.0
C186 C 0.04842 0.08091 0.69098 0.0
C187 C 0.03956 0.13517 0.69784 0.0
N188 N 0.06932 0.1582 0.68736 0.0
C189 C 0.07893 0.1051 0.6803 0.0
C190 C 0.02856 0.09603 0.69985 0.0
C191 C 0.08905 0.1441 0.67863 0.0
C192 C 0.05046 0.95807 0.66623 0.0
N193 N 0.06409 0.98177 0.67981 0.0
C194 C 0.12935 0.99812 0.67344 0.0
C195 C 0.1027 0.00205 0.68344 0.0
C196 C 0.11631 0.974 0.65922 0.0
C197 C 0.07617 0.95388 0.65568 0.0
H198 H 0.01968 0.94296 0.66343 0.0
H199 H 0.11281 0.02139 0.69411 0.0
C200 C 0.04966 0.07804 0.74569 0.0
N201 N 0.06137 0.06857 0.73133 0.0
C202 C 0.07636 0.10902 0.75552 0.0
C203 C 0.1264 0.12106 0.73529 0.0
C204 C 0.09887 0.08947 0.726 0.0
C205 C 0.11539 0.13112 0.75037 0.0
H206 H 0.01972 0.06189 0.7496 0.0
H207 H 0.10738 0.08158 0.71444 0.0
C208 C 0.94345 0.92231 0.68418 0.0
N209 N 0.88174 0.84798 0.67901 0.0
C210 C 0.90634 0.91647 0.68079 0.0
C211 C 0.94928 0.89038 0.68463 0.0
C212 C 0.87549 0.87867 0.67829 0.0
C213 C 0.91769 0.85302 0.68208 0.0
C214 C 0.95626 0.00303 0.73389 0.0
C215 C 0.96695 0.98604 0.74665 0.0
C216 C 0.93064 0.01662 0.7374 0.0
C217 C 0.95182 0.98302 0.76272 0.0
C218 C 0.91623 0.01317 0.75365 0.0
N219 N 0.927 0.99656 0.76586 0.0
C220 C 0.94676 0.88964 0.73166 0.0
C221 C 0.90041 0.90694 0.72277 0.0
C222 C 0.91829 0.85842 0.7409 0.0
N223 N 0.93736 0.91327 0.72299 0.0
C224 C 0.8711 0.87608 0.73172 0.0
C225 C 0.87997 0.85165 0.74116 0.0
H226 H 0.97652 0.89572 0.73183 0.0
H227 H 0.89402 0.92675 0.71604 0.0
C228 C 0.96439 0.04719 0.66679 0.0
N229 N 0.95073 0.02659 0.68121 0.0
C230 C 0.94058 0.05641 0.65723 0.0
C231 C 0.8894 0.02323 0.67767 0.0
C232 C 0.91436 0.01522 0.68692 0.0
C233 C 0.90216 0.04367 0.66246 0.0
H234 H 0.99349 0.05583 0.66254 0.0
H235 H 0.90423 0.99853 0.69837 0.0
O236 O 0.03017 0.97875 0.7183 0.0
O237 O 0.03848 0.04274 0.69279 0.0
O238 O 0.97388 0.95907 0.687 0.0
O239 O 0.96957 0.0051 0.71791 0.0
H240 H 0.09889 0.02054 0.73285 0.0
H241 H 0.02395 0.91263 0.70763 0.0
H242 H 0.14916 0.00107 0.73496 0.0
H243 H 0.07545 0.89494 0.71018 0.0
H244 H 0.02445 0.14726 0.70462 0.0
H245 H 0.09466 0.09383 0.6734 0.0
H246 H 0.00495 0.07784 0.70821 0.0
H247 H 0.11261 0.16317 0.67041 0.0
H248 H 0.15982 0.01387 0.67686 0.0
H249 H 0.0647 0.93573 0.64467 0.0
H250 H 0.06648 0.11525 0.76713 0.0
H251 H 0.15589 0.13758 0.7306 0.0
H252 H 0.90129 0.94079 0.68023 0.0
H253 H 0.97786 0.89436 0.68694 0.0
H254 H 0.84657 0.87373 0.6758 0.0
H255 H 0.92178 0.82805 0.68251 0.0
H256 H 0.9868 0.9754 0.7442 0.0
H257 H 0.92195 0.02969 0.72765 0.0
H258 H 0.95982 0.96995 0.77269 0.0
H259 H 0.8964 0.02362 0.75654 0.0
H260 H 0.9263 0.84023 0.74801 0.0
H261 H 0.84218 0.87247 0.73185 0.0
H262 H 0.95195 0.07272 0.64575 0.0
H263 H 0.8599 0.01201 0.68208 0.0
H264 H 0.88557 0.60556 0.21407 0.0
N265 N 0.94531 0.59832 0.20409 0.0
H266 H 0.88265 0.64162 0.23833 0.0
H267 H 0.99854 0.62715 0.23 0.0
H268 H 0.99536 0.66206 0.25432 0.0
H269 H 0.01405 0.66784 0.20307 0.0
H270 H 0.03533 0.71655 0.18101 0.0
H271 H 0.90929 0.59357 0.17545 0.0
H272 H 0.92953 0.6431 0.15355 0.0
H273 H 0.90138 0.52159 0.20182 0.0
H274 H 0.02092 0.6134 0.20561 0.0
H275 H 0.92269 0.47353 0.2001 0.0
H276 H 0.04228 0.56599 0.2051 0.0
H277 H 0.98039 0.33508 0.20872 0.0
H278 H 0.97692 0.29543 0.2325 0.0
H279 H 0.08403 0.39109 0.25184 0.0
H280 H 0.08846 0.42982 0.2272 0.0
H281 H 0.09167 0.39036 0.18754 0.0
H282 H 0.08031 0.34445 0.16474 0.0
H283 H 0.96522 0.32777 0.15753 0.0
H284 H 0.97606 0.37267 0.18067 0.0
H285 H 0.97124 0.39465 0.21399 0.0
H286 H 0.94848 0.44121 0.21511 0.0
H287 H 0.05044 0.52407 0.18752 0.0
N288 N 0.04092 0.40746 0.20089 0.0
H289 H 0.07426 0.47803 0.18755 0.0
C290 C 0.94209 0.61349 0.22007 0.0
C291 C 0.90922 0.6171 0.22304 0.0
C292 C 0.90759 0.63765 0.23692 0.0
C293 C 0.93897 0.65505 0.24818 0.0
C294 C 0.971 0.64956 0.24572 0.0
C295 C 0.97267 0.62917 0.23179 0.0
C296 C 0.96001 0.62679 0.19084 0.0
C297 C 0.99575 0.66175 0.19217 0.0
C298 C 0.00773 0.68987 0.1796 0.0
C299 C 0.98408 0.68388 0.16552 0.0
C300 C 0.94876 0.64849 0.16407 0.0
C301 C 0.93699 0.62024 0.1766 0.0
C302 C 0.95925 0.571 0.20404 0.0
C303 C 0.93216 0.53128 0.20256 0.0
C304 C 0.94445 0.50388 0.20168 0.0
C305 C 0.98431 0.51572 0.20246 0.0
C306 C 0.01141 0.55567 0.20412 0.0
C307 C 0.99911 0.58301 0.20469 0.0
C308 C 0.03526 0.38528 0.21601 0.0
C309 C 0.00312 0.34762 0.21806 0.0
C310 C 0.00095 0.32505 0.23185 0.0
C311 C 0.03039 0.33984 0.2441 0.0
C312 C 0.0613 0.37838 0.24248 0.0
C313 C 0.06375 0.40073 0.22852 0.0
C314 C 0.03505 0.38527 0.18576 0.0
C315 C 0.0643 0.37738 0.18083 0.0
C316 C 0.05773 0.35112 0.16793 0.0
C317 C 0.02192 0.33276 0.15952 0.0
C318 C 0.99313 0.3419 0.16383 0.0
C319 C -0.00057 0.36767 0.17699 0.0
C320 C 0.02512 0.43326 0.20099 0.0
C321 C 0.98897 0.42294 0.20834 0.0
C322 C 0.97568 0.44957 0.20878 0.0
C323 C 0.99774 0.48675 0.20156 0.0
C324 C 0.03312 0.49625 0.19365 0.0
C325 C 0.04669 0.46988 0.19349 0.0
H326 H 0.67393 0.02828 0.54647 0.0
N327 N 0.60707 0.95697 0.54579 0.0
H328 H 0.7211 0.05298 0.56912 0.0
H329 H 0.59541 0.93086 0.57705 0.0
H330 H 0.64096 0.95715 0.60044 0.0
H331 H 0.62881 0.90553 0.53826 0.0
H332 H 0.66833 0.90693 0.51445 0.0
H333 H 0.63073 0.00835 0.51952 0.0
H334 H 0.66912 0.00936 0.4955 0.0
H335 H 0.60072 0.02224 0.5427 0.0
H336 H 0.5355 0.8971 0.54502 0.0
H337 H 0.54038 0.02371 0.53799 0.0
H338 H 0.47497 0.89803 0.54131 0.0
H339 H 0.35844 0.01803 0.54319 0.0
H340 H 0.32173 0.02179 0.56691 0.0
H341 H 0.27588 0.89958 0.57676 0.0
H342 H 0.31177 0.89549 0.55247 0.0
H343 H 0.2971 0.90908 0.50983 0.0
H344 H 0.27576 0.9318 0.48573 0.0
H345 H 0.37082 0.04861 0.49388 0.0
H346 H 0.39278 0.0253 0.51771 0.0
H347 H 0.41858 0.0099 0.54671 0.0
H348 H 0.48123 0.01303 0.55051 0.0
H349 H 0.44037 0.90921 0.52037 0.0
N350 N 0.35461 0.95164 0.53077 0.0
H351 H 0.37728 0.90522 0.51754 0.0
C352 C 0.63163 0.97685 0.55991 0.0
C353 C 0.6664 0.01264 0.55821 0.0
C354 C 0.69329 0.02705 0.57133 0.0
C355 C 0.68543 0.00657 0.58657 0.0
C356 C 0.64876 0.97297 0.58871 0.0
C357 C 0.62241 0.95808 0.57545 0.0
C358 C 0.62665 0.95656 0.53066 0.0
C359 C 0.63711 0.92789 0.52881 0.0
C360 C 0.65952 0.92869 0.51518 0.0
C361 C 0.67192 0.95832 0.50309 0.0
C362 C 0.6604 0.98642 0.5047 0.0
C363 C 0.63806 0.98564 0.51837 0.0
C364 C 0.57234 0.95939 0.54393 0.0
C365 C 0.57332 0.99511 0.54225 0.0
C366 C 0.53876 0.99587 0.53972 0.0
C367 C 0.50274 0.96094 0.53904 0.0
C368 C 0.50213 0.92545 0.54126 0.0
C369 C 0.53659 0.92477 0.54355 0.0
C370 C 0.33717 0.9561 0.54582 0.0
C371 C 0.34058 0.99196 0.55035 0.0
C372 C 0.31972 0.99418 0.56396 0.0
C373 C 0.29589 0.96091 0.5735 0.0
C374 C 0.29417 0.92562 0.56957 0.0
C375 C 0.3145 0.92324 0.55575 0.0
C376 C 0.34604 0.96548 0.51562 0.0
C377 C 0.31374 0.93939 0.50618 0.0
C378 C 0.30174 0.95238 0.49243 0.0
C379 C 0.32166 0.99195 0.48802 0.0
C380 C 0.35494 0.01799 0.49711 0.0
C381 C 0.3674 0.00475 0.5107 0.0
C382 C 0.393 0.95667 0.53214 0.0
C383 C 0.42312 0.98778 0.541 0.0
C384 C 0.4591 0.98971 0.54303 0.0
C385 C 0.46573 0.96097 0.536 0.0
C386 C 0.43602 0.93117 0.52641 0.0
C387 C 0.40005 0.92897 0.52463 0.0
H388 H 0.60919 0.73518 0.87891 0.0
N389 N 0.59429 0.66669 0.86713 0.0
H390 H 0.64955 0.77025 0.90306 0.0
H391 H 0.62648 0.63839 0.88956 0.0
H392 H 0.66613 0.67276 0.9138 0.0
H393 H 0.65144 0.64863 0.86118 0.0
H394 H 0.69646 0.67109 0.83752 0.0
H395 H 0.59076 0.70323 0.84003 0.0
H396 H 0.63498 0.72493 0.816 0.0
H397 H 0.52231 0.65403 0.86727 0.0
H398 H 0.58836 0.59489 0.86899 0.0
H399 H 0.46188 0.59171 0.8688 0.0
H400 H 0.52838 0.53251 0.87172 0.0
H401 H 0.27334 0.37905 0.88605 0.0
H402 H 0.24921 0.33128 0.9085 0.0
H403 H 0.36478 0.34771 0.91507 0.0
H404 H 0.38788 0.39368 0.89172 0.0
H405 H 0.35671 0.3551 0.86283 0.0
H406 H 0.32653 0.3111 0.83913 0.0
H407 H 0.2732 0.37787 0.8236 0.0
H408 H 0.30304 0.42156 0.84758 0.0
H409 H 0.36056 0.48038 0.88685 0.0
H410 H 0.42276 0.54114 0.88685 0.0
H411 H 0.47325 0.48603 0.85736 0.0
N412 N 0.34335 0.41368 0.87235 0.0
H413 H 0.41179 0.42494 0.85848 0.0
C414 C 0.61476 0.6843 0.88241 0.0
C415 C 0.62114 0.72127 0.88665 0.0
C416 C 0.64404 0.74113 0.90047 0.0
C417 C 0.66111 0.72429 0.91032 0.0
C418 C 0.65374 0.68667 0.90634 0.0
C419 C 0.63081 0.66685 0.8925 0.0
C420 C 0.61797 0.67472 0.85241 0.0
C421 C 0.64732 0.66481 0.85129 0.0
C422 C 0.67296 0.67752 0.83769 0.0
C423 C 0.66959 0.7002 0.82498 0.0
C424 C 0.63884 0.70817 0.82575 0.0
C425 C 0.61339 0.6956 0.83936 0.0
C426 C 0.55968 0.62918 0.86825 0.0
C427 C 0.52365 0.62749 0.86823 0.0
C428 C 0.48919 0.59181 0.86927 0.0
C429 C 0.49005 0.55686 0.87062 0.0
C430 C 0.52643 0.55867 0.87057 0.0
C431 C 0.56093 0.59447 0.86923 0.0
C432 C 0.33228 0.39019 0.88731 0.0
C433 C 0.29351 0.37274 0.89254 0.0
C434 C 0.2799 0.34555 0.90548 0.0
C435 C 0.30503 0.33558 0.91376 0.0
C436 C 0.34442 0.35421 0.90887 0.0
C437 C 0.35786 0.38097 0.89566 0.0
C438 C 0.33159 0.39136 0.85707 0.0
C439 C 0.339 0.36065 0.85422 0.0
C440 C 0.32174 0.33551 0.8407 0.0
C441 C 0.29732 0.34097 0.82966 0.0
C442 C 0.29207 0.37317 0.83189 0.0
C443 C 0.30898 0.39804 0.84554 0.0
C444 C 0.38116 0.44836 0.87245 0.0
C445 C 0.38523 0.48149 0.88051 0.0
C446 C 0.42076 0.51626 0.88034 0.0
C447 C 0.45305 0.51889 0.87183 0.0
C448 C 0.44922 0.48521 0.86413 0.0
C449 C 0.41377 0.45017 0.86459 0.0
C450 C 0.03507 0.19286 0.09318 0.0
C451 C -0.0005 0.16003 0.08878 0.0
C452 C 0.03647 0.22153 0.10386 0.0
C453 C 0.00156 0.21687 0.11076 0.0
C454 C 0.9655 0.18408 0.10634 0.0
C455 C 0.96486 0.15627 0.09526 0.0
C456 C 0.07551 0.25636 0.10811 0.0
C457 C 0.92773 0.17785 0.11366 0.0
C458 C 0.01536 0.26904 0.15206 0.0
C459 C 0.01395 0.30214 0.14711 0.0
C460 C 0.00968 0.24023 0.14043 0.0
C461 C 0.00332 0.2452 0.12339 0.0
C462 C 0.00118 0.27835 0.11839 0.0
C463 C 0.00611 0.30634 0.1304 0.0
C464 C 0.01137 0.20494 0.14633 0.0
C465 C 0.99521 0.28498 0.10029 0.0
H466 H 0.06214 0.19586 0.0886 0.0
H467 H 0.93715 0.13146 0.09176 0.0
H468 H 0.0749 0.28369 0.10598 0.0
H469 H 0.08203 0.25549 0.12156 0.0
H470 H 0.09953 0.25735 0.10058 0.0
H471 H 0.90203 0.15157 0.1085 0.0
H472 H 0.92805 0.17464 0.12745 0.0
H473 H 0.92438 0.20353 0.11119 0.0
H474 H 0.02107 0.26581 0.16506 0.0
H475 H 0.00514 0.33211 0.12666 0.0
H476 H 0.03707 0.20508 0.14078 0.0
H477 H 0.98515 0.17792 0.14209 0.0
H478 H 0.01339 0.204 0.16018 0.0
H479 H 0.02043 0.28888 0.09276 0.0
H480 H 0.99203 0.31105 0.09861 0.0
H481 H 0.96895 0.25923 0.09521 0.0
C482 C 0.84346 0.96958 0.44805 0.0
C483 C 0.84101 0.97601 0.43094 0.0
C484 C 0.81458 0.96576 0.45927 0.0
C485 C 0.78253 0.96858 0.45325 0.0
C486 C 0.77964 0.97469 0.43599 0.0
C487 C 0.8089 0.97829 0.42503 0.0
C488 C 0.81869 0.95929 0.47762 0.0
C489 C 0.74584 0.97781 0.42913 0.0
C490 C 0.69323 0.92755 0.48119 0.0
C491 C 0.69862 0.96111 0.48944 0.0
C492 C 0.71988 0.92962 0.46911 0.0
C493 C 0.75262 0.96613 0.46516 0.0
C494 C 0.75769 0.00023 0.47312 0.0
C495 C 0.73069 0.9973 0.48518 0.0
C496 C 0.71348 0.89264 0.46085 0.0
C497 C 0.79223 0.03971 0.46922 0.0
H498 H 0.86844 0.96831 0.45274 0.0
H499 H 0.80655 0.98271 0.41179 0.0
H500 H 0.82087 0.9839 0.48507 0.0
H501 H 0.79251 0.93247 0.48204 0.0
H502 H 0.84477 0.95661 0.48019 0.0
H503 H 0.74748 0.98176 0.41532 0.0
H504 H 0.718 0.95125 0.43229 0.0
H505 H 0.74519 0.00283 0.43499 0.0
H506 H 0.66824 0.89957 0.48427 0.0
H507 H 0.73538 0.02329 0.49167 0.0
H508 H 0.73777 0.88752 0.46406 0.0
H509 H 0.71336 0.89545 0.44703 0.0
H510 H 0.68568 0.86682 0.46477 0.0
H511 H 0.8195 0.04033 0.4729 0.0
H512 H 0.79085 0.06359 0.47586 0.0
H513 H 0.79393 0.04541 0.45556 0.0
C514 C 0.859 0.81812 0.76889 0.0
C515 C 0.84994 0.82159 0.75224 0.0
C516 C 0.82978 0.79416 0.78025 0.0
C517 C 0.79059 0.77321 0.77482 0.0
C518 C 0.78159 0.77475 0.75779 0.0
C519 C 0.81139 0.79896 0.7467 0.0
C520 C 0.84057 0.79328 0.79831 0.0
C521 C 0.7402 0.75265 0.75148 0.0
C522 C 0.71482 0.69676 0.80384 0.0
C523 C 0.69958 0.71795 0.81164 0.0
C524 C 0.74425 0.71414 0.79168 0.0
C525 C 0.75875 0.7536 0.78729 0.0
C526 C 0.74326 0.775 0.79504 0.0
C527 C 0.71398 0.75696 0.80712 0.0
C528 C 0.76003 0.69045 0.78363 0.0
C529 C 0.75801 0.81721 0.79076 0.0
H530 H 0.88866 0.83578 0.7733 0.0
H531 H 0.80434 0.8011 0.73378 0.0
H532 H 0.82951 0.80872 0.80617 0.0
H533 H 0.82685 0.76286 0.80291 0.0
H534 H 0.87256 0.80739 0.8001 0.0
H535 H 0.73864 0.75319 0.73761 0.0
H536 H 0.72577 0.72191 0.75571 0.0
H537 H 0.72349 0.76575 0.75674 0.0
H538 H 0.70362 0.66653 0.8072 0.0
H539 H 0.70294 0.77377 0.81332 0.0
H540 H 0.7916 0.70388 0.78631 0.0
H541 H 0.75675 0.69031 0.76984 0.0
H542 H 0.74507 0.65989 0.78817 0.0
H543 H 0.7895 0.83481 0.7937 0.0
H544 H 0.74238 0.8295 0.79772 0.0
H545 H 0.75464 0.82029 0.77715 0.0
C546 C 0.05226 0.85595 0.09725 0.0
C547 C 0.02133 0.86315 0.09519 0.0
C548 C 0.04911 0.82697 0.1083 0.0
C549 C 0.01407 0.80451 0.11731 0.0
C550 C 0.98261 0.81136 0.11508 0.0
C551 C 0.98669 0.84069 0.10409 0.0
C552 C 0.08337 0.82071 0.11051 0.0
C553 C 0.94461 0.78775 0.12432 0.0
C554 C 0.98775 0.70625 0.13581 0.0
C555 C 0.99504 0.71523 0.1529 0.0
C556 C 0.99499 0.73526 0.12398 0.0
C557 C 0.0102 0.77421 0.12934 0.0
C558 C 0.01903 0.78372 0.14645 0.0
C559 C 0.01115 0.75411 0.15803 0.0
C560 C 0.9851 0.724 0.10583 0.0
C561 C 0.03543 0.82497 0.15264 0.0
H562 H 0.07913 0.87345 0.09042 0.0
H563 H 0.96251 0.84578 0.1023 0.0
H564 H 0.09315 0.82603 0.12375 0.0
H565 H 0.07466 0.79007 0.10761 0.0
H566 H 0.10831 0.84018 0.10237 0.0
H567 H 0.92272 0.79622 0.12089 0.0
H568 H 0.9323 0.75634 0.12156 0.0
H569 H 0.94969 0.79158 0.13802 0.0
H570 H 0.97592 0.6764 0.13171 0.0
H571 H 0.01637 0.76131 0.17121 0.0
H572 H 0.01057 0.74234 0.09777 0.0
H573 H 0.96124 0.72918 0.10192 0.0
H574 H 0.97579 0.69293 0.10354 0.0
H575 H 0.06129 0.84516 0.14514 0.0
H576 H 0.04391 0.82809 0.16605 0.0
H577 H 0.01341 0.83416 0.15107 0.0
C578 C 0.21373 0.0554 0.41966 0.0
C579 C 0.17403 0.02957 0.42263 0.0
C580 C 0.24254 0.05387 0.42932 0.0
C581 C 0.23134 0.0262 0.44237 0.0
C582 C 0.19138 0.00051 0.4456 0.0
C583 C 0.1633 0.00226 0.43561 0.0
C584 C 0.28489 0.08146 0.42543 0.0
C585 C 0.1782 0.97072 0.4595 0.0
C586 C 0.29389 0.98701 0.45948 0.0
C587 C 0.30522 0.006 0.47496 0.0
C588 C 0.2722 0.99549 0.44813 0.0
C589 C 0.261 0.02307 0.45255 0.0
C590 C 0.27435 0.04397 0.46776 0.0
C591 C 0.29657 0.03533 0.47876 0.0
C592 C 0.25918 0.97313 0.43188 0.0
C593 C 0.26271 0.07327 0.47302 0.0
H594 H 0.22233 0.0769 0.40979 0.0
H595 H 0.13283 0.98156 0.4378 0.0
H596 H 0.29994 0.09896 0.43667 0.0
H597 H 0.2994 0.06468 0.42204 0.0
H598 H 0.28878 0.10158 0.41498 0.0
H599 H 0.14602 0.9541 0.46085 0.0
H600 H 0.18848 0.94984 0.457 0.0
H601 H 0.19108 0.98526 0.47159 0.0
H602 H 0.30088 0.96453 0.45651 0.0
H603 H 0.30505 0.04978 0.49081 0.0
H604 H 0.26412 0.99312 0.42127 0.0
H605 H 0.22749 0.95202 0.43246 0.0
H606 H 0.27465 0.95684 0.42929 0.0
H607 H 0.26706 0.09355 0.46261 0.0
H608 H 0.27943 0.09048 0.48408 0.0
H609 H 0.23128 0.05782 0.47624 0.0
C610 C 0.13358 0.18786 0.76954 0.0
C611 C 0.14441 0.16413 0.76073 0.0
C612 C 0.16 0.21774 0.78005 0.0
C613 C 0.19849 0.22466 0.78153 0.0
C614 C 0.21009 0.2018 0.77226 0.0
C615 C 0.18282 0.17156 0.76211 0.0
C616 C 0.14642 0.24125 0.78989 0.0
C617 C 0.25107 0.2087 0.77335 0.0
C618 C 0.27278 0.32181 0.80033 0.0
C619 C 0.27442 0.31117 0.8169 0.0
C620 C 0.24903 0.29376 0.78849 0.0
C621 C 0.22589 0.25441 0.7935 0.0
C622 C 0.22781 0.24354 0.8102 0.0
C623 C 0.25229 0.27203 0.82166 0.0
C624 C 0.24828 0.30625 0.77071 0.0
C625 C 0.20309 0.20201 0.8161 0.0
H626 H 0.1043 0.18304 0.76829 0.0
H627 H 0.19147 0.15316 0.75558 0.0
H628 H 0.149 0.23735 0.8035 0.0
H629 H 0.16514 0.27268 0.7871 0.0
H630 H 0.11573 0.23267 0.78709 0.0
H631 H 0.25635 0.19063 0.76428 0.0
H632 H 0.27242 0.23981 0.77097 0.0
H633 H 0.25661 0.20179 0.78616 0.0
H634 H 0.29003 0.3521 0.79666 0.0
H635 H 0.25313 0.2639 0.83455 0.0
H636 H 0.21884 0.30122 0.76767 0.0
H637 H 0.25454 0.2885 0.76187 0.0
H638 H 0.26975 0.33749 0.76861 0.0
H639 H 0.17182 0.19272 0.81463 0.0
H640 H 0.20859 0.19828 0.82942 0.0
H641 H 0.20886 0.18228 0.80833 0.0
C642 C 0.84505 0.05406 0.65864 0.0
C643 C 0.87441 0.04862 0.65158 0.0
C644 C 0.81508 0.05253 0.64874 0.0
C645 C 0.81487 0.04613 0.63131 0.0
C646 C 0.84596 0.0436 0.62392 0.0
C647 C 0.87511 0.04449 0.63415 0.0
C648 C 0.78235 0.05515 0.6571 0.0
C649 C 0.84714 0.03741 0.60533 0.0
C650 C 0.71957 0.98854 0.60812 0.0
C651 C 0.71661 0.01768 0.59938 0.0
C652 C 0.75051 0.99773 0.61908 0.0
C653 C 0.77997 0.03702 0.62112 0.0
C654 C 0.77694 0.06677 0.61269 0.0
C655 C 0.7451 0.05678 0.60204 0.0
C656 C 0.75237 0.9651 0.628 0.0
C657 C 0.80805 0.10896 0.61444 0.0
H658 H 0.84472 0.05827 0.67203 0.0
H659 H 0.89731 0.03988 0.6285 0.0
H660 H 0.77573 0.0754 0.6502 0.0
H661 H 0.75563 0.02607 0.65694 0.0
H662 H 0.78922 0.06502 0.67031 0.0
H663 H 0.87569 0.04139 0.60127 0.0
H664 H 0.82417 0.00743 0.60201 0.0
H665 H 0.8412 0.05787 0.59819 0.0
H666 H 0.69846 0.95818 0.60595 0.0
H667 H 0.74292 0.07963 0.59558 0.0
H668 H 0.75673 0.97115 0.64163 0.0
H669 H 0.77756 0.96298 0.6233 0.0
H670 H 0.72557 0.93649 0.62614 0.0
H671 H 0.81387 0.11716 0.62784 0.0
H672 H 0.79992 0.12882 0.60812 0.0
H673 H 0.8356 0.1134 0.60887 0.0
C674 C 0.80563 0.83596 0.98726 0.0
C675 C 0.83341 0.87335 0.98182 0.0
C676 C 0.77561 0.81018 0.9766 0.0
C677 C 0.77341 0.8221 0.96014 0.0
C678 C 0.80099 0.86001 0.95467 0.0
C679 C 0.83065 0.88517 0.96558 0.0
C680 C 0.74662 0.77001 0.98287 0.0
C681 C 0.79969 0.87374 0.93717 0.0
C682 C 0.72366 0.74719 0.92582 0.0
C683 C 0.68835 0.74691 0.92405 0.0
C684 C 0.75114 0.77072 0.93785 0.0
C685 C 0.74314 0.79461 0.94835 0.0
C686 C 0.70711 0.79365 0.94696 0.0
C687 C 0.68014 0.76982 0.93481 0.0
C688 C 0.78927 0.77098 0.93893 0.0
C689 C 0.6975 0.81858 0.95801 0.0
H690 H 0.80737 0.82685 -0.00013 0.0
H691 H 0.85234 0.91381 0.96122 0.0
H692 H 0.71657 0.76483 0.98149 0.0
H693 H 0.74862 0.74773 0.97524 0.0
H694 H 0.75151 0.76576 0.99621 0.0
H695 H 0.82251 0.90453 0.93507 0.0
H696 H 0.80371 0.85525 0.92789 0.0
H697 H 0.77082 0.87084 0.93476 0.0
H698 H 0.73044 0.72998 0.9174 0.0
H699 H 0.65268 0.76934 0.93364 0.0
H700 H 0.79449 0.76503 0.95196 0.0
H701 H 0.81357 0.80021 0.9355 0.0
H702 H 0.79006 0.74909 0.93052 0.0
H703 H 0.70101 0.8134 0.97138 0.0
H704 H 0.66734 0.81277 0.95602 0.0
H705 H 0.71803 0.84979 0.95541 0.0
C706 C 0.93589 0.82337 0.30029 0.0
C707 C 0.94818 0.82611 0.31694 0.0
C708 C 0.93195 0.79316 0.28987 0.0
C709 C 0.94052 0.76499 0.29626 0.0
C710 C 0.95165 0.76681 0.31321 0.0
C711 C 0.95537 0.79737 0.32335 0.0
C712 C 0.91982 0.7921 0.27187 0.0
C713 C 0.96108 0.73734 0.32046 0.0
C714 C 0.90623 0.67261 0.27073 0.0
C715 C 0.9398 0.68159 0.2615 0.0
C716 C 0.90618 0.69909 0.28239 0.0
C717 C 0.94049 0.73538 0.28484 0.0
C718 C 0.97469 0.74419 0.27587 0.0
C719 C 0.9739 0.71726 0.2643 0.0
C720 C 0.86923 0.68864 0.29181 0.0
C721 C 0.01187 0.78261 0.27811 0.0
H722 H 0.92971 0.84516 0.29534 0.0
H723 H 0.96528 0.79953 0.33616 0.0
H724 H 0.94396 0.79666 0.26343 0.0
H725 H 0.89453 0.76316 0.26887 0.0
H726 H 0.91195 0.81476 0.26913 0.0
H727 H 0.96613 0.74091 0.33419 0.0
H728 H 0.93708 0.70736 0.31791 0.0
H729 H 0.98763 0.74045 0.31437 0.0
H730 H 0.87989 0.64494 0.26874 0.0
H731 H -0.00023 0.72477 0.25702 0.0
H732 H 0.85902 0.70916 0.2884 0.0
H733 H 0.87484 0.69145 0.30548 0.0
H734 H 0.84558 0.65853 0.28907 0.0
H735 H 0.00724 0.80678 0.27412 0.0
H736 H 0.0364 0.78421 0.27076 0.0
H737 H 0.0203 0.78732 0.29152 0.0
C738 C 0.1341 0.93578 0.63958 0.0
C739 C 0.14443 0.97088 0.64785 0.0
C740 C 0.15935 0.93319 0.62802 0.0
C741 C 0.19624 0.96622 0.62494 0.0
C742 C 0.20752 0.00128 0.63368 0.0
C743 C 0.18133 0.00334 0.64485 0.0
C744 C 0.14608 0.89543 0.61876 0.0
C745 C 0.2469 0.03696 0.63092 0.0
C746 C 0.27276 0.95087 0.60318 0.0
C747 C 0.27096 0.96255 0.58683 0.0
C748 C 0.24893 0.95233 0.61583 0.0
C749 C 0.22211 0.96482 0.61184 0.0
C750 C 0.21994 0.97617 0.59525 0.0
C751 C 0.24473 0.9753 0.58298 0.0
C752 C 0.25266 0.94089 0.63346 0.0
C753 C 0.19117 0.98888 0.59041 0.0
H754 H 0.10609 0.91025 0.64204 0.0
H755 H 0.18955 0.03083 0.65089 0.0
H756 H 0.14489 0.90016 0.60513 0.0
H757 H 0.1672 0.88519 0.6206 0.0
H758 H 0.1169 0.87213 0.62291 0.0
H759 H 0.2526 0.06075 0.63982 0.0
H760 H 0.27024 0.02951 0.63229 0.0
H761 H 0.24871 0.04793 0.61799 0.0
H762 H 0.29323 0.94114 0.6061 0.0
H763 H 0.24314 0.98391 0.57025 0.0
H764 H 0.2245 0.91608 0.63766 0.0
H765 H 0.25997 0.96547 0.64212 0.0
H766 H 0.27542 0.9325 0.63454 0.0
H767 H 0.16116 0.96557 0.59347 0.0
H768 H 0.19252 0.99579 0.57686 0.0
H769 H 0.19693 0.01503 0.59769 0.0
C770 C 0.17356 0.13746 0.95998 0.0
C771 C 0.17761 0.13787 0.97746 0.0
C772 C 0.19873 0.16971 0.95022 0.0
C773 C 0.22969 0.20273 0.95801 0.0
C774 C 0.2361 0.20207 0.97539 0.0
C775 C 0.20965 0.16996 0.98496 0.0
C776 C 0.19061 0.16938 0.93172 0.0
C777 C 0.26967 0.23614 0.98405 0.0
C778 C 0.30276 0.27759 0.92782 0.0
C779 C 0.28928 0.30423 0.92668 0.0
C780 C 0.28509 0.2455 0.93869 0.0
C781 C 0.25244 0.23921 0.94825 0.0
C782 C 0.23963 0.26669 0.94766 0.0
C783 C 0.25865 0.29916 0.93714 0.0
C784 C 0.30046 0.21757 0.93945 0.0
C785 C 0.20464 0.26089 0.95754 0.0
H786 H 0.14979 0.1124 0.95394 0.0
H787 H 0.21321 0.17103 -0.00158 0.0
H788 H 0.18255 0.19187 0.92895 0.0
H789 H 0.21705 0.17672 0.92433 0.0
H790 H 0.1666 0.14072 0.92744 0.0
H791 H 0.27472 0.22839 0.9968 0.0
H792 H 0.2968 0.24699 0.97664 0.0
H793 H 0.26345 0.26037 0.98519 0.0
H794 H 0.32618 0.28086 0.91976 0.0
H795 H 0.24874 0.32012 0.93681 0.0
H796 H 0.28001 0.19014 0.93294 0.0
H797 H 0.30273 0.21009 0.95263 0.0
H798 H 0.32948 0.22977 0.93343 0.0
H799 H 0.1785 0.23344 0.95358 0.0
H800 H 0.1987 0.28522 0.95582 0.0
H801 H 0.20906 0.25817 0.97106 0.0
C802 C 0.02688 0.20415 0.3201 0.0
C803 C 0.02503 0.17075 0.31312 0.0
C804 C 0.02867 0.23381 0.30989 0.0
C805 C 0.02771 0.22961 0.29229 0.0
C806 C 0.02565 0.19599 0.28515 0.0
C807 C 0.02479 0.16723 0.29563 0.0
C808 C 0.03152 0.26958 0.31794 0.0
C809 C 0.02414 0.19029 0.26641 0.0
C810 C 0.9947 0.28577 0.26488 0.0
C811 C 0.03 0.31418 0.25781 0.0
C812 C 0.99359 0.25851 0.27638 0.0
C813 C 0.0287 0.26023 0.28125 0.0
C814 C 0.06459 0.28997 0.27485 0.0
C815 C 0.06479 0.3163 0.26307 0.0
C816 C 0.95469 0.22695 0.28282 0.0
C817 C 0.10272 0.29318 0.27999 0.0
H818 H 0.0264 0.20699 0.33357 0.0
H819 H 0.02415 0.14202 0.29006 0.0
H820 H 0.05754 0.29609 0.31317 0.0
H821 H 0.00571 0.27203 0.31458 0.0
H822 H 0.03345 0.26903 0.33181 0.0
H823 H 0.02153 0.16201 0.26286 0.0
H824 H 0.99897 0.19161 0.2611 0.0
H825 H 0.05081 0.21405 0.26054 0.0
H826 H 0.96774 0.28435 0.26121 0.0
H827 H 0.09221 0.33767 0.25756 0.0
H828 H 0.95446 0.22682 0.2967 0.0
H829 H 0.94967 0.19809 0.27868 0.0
H830 H 0.93019 0.23053 0.2783 0.0
H831 H 0.1048 0.29291 0.29384 0.0
H832 H 0.12822 0.32012 0.27514 0.0
H833 H 0.10424 0.26775 0.27519 0.0
loop_
_geom_bond_atom_site_label_1
_geom_bond_atom_site_label_2
_geom_bond_distance
_geom_bond_site_symmetry_2
_ccdc_geom_bond_type
Li0 N17 1.990 . S
Li0 O60 1.956 . S
Li0 O61 1.970 1_455 S
Li0 O62 1.961 1_545 S
Li1 N25 1.990 . S
Li1 O60 1.970 1_655 S
Li1 O61 1.956 . S
Li1 O63 1.961 1_545 S
Li2 N47 1.990 . S
Li2 O60 1.961 1_565 S
Li2 O62 1.956 . S
Li2 O63 1.970 1_455 S
Li3 N53 1.990 . S
Li3 O61 1.961 1_565 S
Li3 O62 1.970 1_655 S
Li3 O63 1.956 . S
C4 C6 1.348 . S
C4 C7 1.356 . S
C4 O60 1.325 . S
N5 C8 1.314 . S
N5 C9 1.279 . S
C6 C4 1.348 . S
C6 C8 1.353 . S
C6 H64 0.929 . S
C7 C4 1.356 . S
C7 C9 1.358 . S
C7 H65 0.930 . S
C8 N5 1.314 . S
C8 C6 1.353 . S
C8 H66 0.930 . S
C9 N5 1.279 . S
C9 C7 1.358 . S
C9 H67 0.930 . S
C10 C13 1.348 1_655 S
C10 C14 1.356 . S
C10 O61 1.325 . S
C11 N12 1.279 1_554 S
C11 C14 1.358 . S
C11 H68 0.930 . S
N12 C11 1.279 1_556 S
N12 C15 1.322 . S
C13 C10 1.348 1_455 S
C13 C15 1.327 1_454 S
C13 H69 0.929 . S
C14 C10 1.356 . S
C14 C11 1.358 . S
C14 H70 0.930 . S
C15 N12 1.322 . S
C15 C13 1.327 1_656 S
C15 H71 0.953 1_655 S
C16 N17 1.314 1_556 S
C16 C21 1.353 . S
C16 H22 0.930 . S
N17 Li0 1.990 . S
N17 C16 1.314 1_554 S
N17 C19 1.279 . S
C18 C19 1.358 . S
C18 C20 1.356 1_554 S
C18 H72 0.930 . S
C19 N17 1.279 . S
C19 C18 1.358 . S
C19 H23 0.930 . S
C20 C18 1.356 1_556 S
C20 C21 1.348 . S
C21 C16 1.353 . S
C21 C20 1.348 . S
C21 H73 0.929 . S
H22 C16 0.930 . S
H23 C19 0.930 . S
C24 N25 1.314 . S
C24 C26 1.353 . S
C24 H30 0.930 . S
N25 Li1 1.990 . S
N25 C24 1.314 . S
N25 C28 1.279 . S
C26 C24 1.353 . S
C26 C29 1.348 . S
C26 H74 0.929 . S
C27 C28 1.358 . S
C27 C29 1.356 . S
C27 H75 0.930 . S
C28 N25 1.279 . S
C28 C27 1.358 . S
C28 H31 0.930 . S
C29 C26 1.348 . S
C29 C27 1.356 . S
H30 C24 0.930 . S
H31 C28 0.930 . S
C32 C34 1.348 1_455 S
C32 C35 1.356 . S
C32 O62 1.325 . S
N33 C36 1.322 . S
N33 C37 1.279 1_556 S
C34 C32 1.348 1_655 S
C34 C36 1.327 1_654 S
C34 H76 0.929 . S
C35 C32 1.356 . S
C35 C37 1.358 . S
C35 H77 0.930 . S
C36 N33 1.322 . S
C36 C34 1.327 1_456 S
C36 H78 0.953 1_455 S
C37 N33 1.279 1_554 S
C37 C35 1.358 . S
C37 H79 0.930 . S
C38 C39 1.348 . S
C38 C40 1.356 . S
C38 O63 1.325 . S
C39 C38 1.348 . S
C39 C41 1.353 . S
C39 H80 0.929 . S
C40 C38 1.356 . S
C40 C42 1.358 . S
C40 H81 0.930 . S
C41 C39 1.353 . S
C41 N43 1.314 . S
C41 H82 0.930 . S
C42 C40 1.358 . S
C42 N43 1.279 . S
C42 H83 0.930 . S
N43 C41 1.314 . S
N43 C42 1.279 . S
C44 C46 1.353 . S
C44 N47 1.314 . S
C44 H50 0.930 . S
C45 N47 1.279 . S
C45 C48 1.358 . S
C45 H51 0.930 . S
C46 C44 1.353 . S
C46 C49 1.348 . S
C46 H84 0.929 . S
N47 Li2 1.990 . S
N47 C44 1.314 . S
N47 C45 1.279 . S
C48 C45 1.358 . S
C48 C49 1.356 . S
C48 H85 0.930 . S
C49 C46 1.348 . S
C49 C48 1.356 . S
H50 C44 0.930 . S
H51 C45 0.930 . S
C52 N53 1.314 1_556 S
C52 C54 1.353 . S
C52 H58 0.930 . S
N53 Li3 1.990 . S
N53 C52 1.314 1_554 S
N53 C56 1.279 . S
C54 C52 1.353 . S
C54 C57 1.348 . S
C54 H86 0.929 . S
C55 C56 1.358 . S
C55 C57 1.356 1_554 S
C55 H87 0.930 . S
C56 N53 1.279 . S
C56 C55 1.358 . S
C56 H59 0.930 . S
C57 C54 1.348 . S
C57 C55 1.356 1_556 S
H58 C52 0.930 . S
H59 C56 0.930 . S
O60 Li0 1.956 . S
O60 Li1 1.970 1_455 S
O60 Li2 1.961 1_545 S
O60 C4 1.325 . S
O61 Li0 1.970 1_655 S
O61 Li1 1.956 . S
O61 Li3 1.961 1_545 S
O61 C10 1.325 . S
O62 Li0 1.961 1_565 S
O62 Li2 1.956 . S
O62 Li3 1.970 1_455 S
O62 C32 1.325 . S
O63 Li1 1.961 1_565 S
O63 Li2 1.970 1_655 S
O63 Li3 1.956 . S
O63 C38 1.325 . S
H64 C6 0.929 . S
H65 C7 0.930 . S
H66 C8 0.930 . S
H67 C9 0.930 . S
H68 C11 0.930 . S
H69 C13 0.929 . S
H70 C14 0.930 . S
H71 C15 0.953 1_455 S
H72 C18 0.930 . S
H73 C21 0.929 . S
H74 C26 0.929 . S
H75 C27 0.930 . S
H76 C34 0.929 . S
H77 C35 0.930 . S
H78 C36 0.953 1_655 S
H79 C37 0.930 . S
H80 C39 0.929 . S
H81 C40 0.930 . S
H82 C41 0.930 . S
H83 C42 0.930 . S
H84 C46 0.929 . S
H85 C48 0.930 . S
H86 C54 0.929 . S
H87 C55 0.930 . S
Li88 N105 1.990 . S
Li88 O148 1.956 . S
Li88 O149 1.970 1_665 S
Li88 O150 1.961 . S
Li89 N113 1.990 . S
Li89 O148 1.970 1_445 S
Li89 O149 1.956 . S
Li89 O151 1.961 . S
Li90 N135 1.990 . S
Li90 O148 1.961 . S
Li90 O150 1.956 . S
Li90 O151 1.970 1_665 S
Li91 N141 1.990 . S
Li91 O149 1.961 . S
Li91 O150 1.970 1_445 S
Li91 O151 1.956 . S
C92 C94 1.348 1_655 S
C92 C95 1.356 . S
C92 O148 1.325 . S
N93 C96 1.314 . S
N93 C97 1.279 . S
C94 C92 1.348 1_455 S
C94 C96 1.353 1_455 S
C94 H152 0.929 . S
C95 C92 1.356 . S
C95 C97 1.358 . S
C95 H153 0.930 . S
C96 N93 1.314 . S
C96 C94 1.353 1_655 S
C96 H154 0.930 1_655 S
C97 N93 1.279 . S
C97 C95 1.358 . S
C97 H155 0.930 . S
C98 C101 1.348 1_545 S
C98 C102 1.356 . S
C98 O149 1.325 . S
C99 N100 1.279 . S
C99 C102 1.358 . S
C99 H156 0.930 . S
N100 C99 1.279 . S
N100 C103 1.314 . S
C101 C98 1.348 1_565 S
C101 C103 1.353 1_565 S
C101 H157 0.929 . S
C102 C98 1.356 . S
C102 C99 1.358 . S
C102 H158 0.930 . S
C103 N100 1.314 . S
C103 C101 1.353 1_545 S
C103 H159 0.930 1_545 S
C104 N105 1.314 . S
C104 C109 1.353 . S
C104 H110 0.930 . S
N105 Li88 1.990 . S
N105 C104 1.314 . S
N105 C107 1.279 . S
C106 C107 1.358 . S
C106 C108 1.356 . S
C106 H160 0.930 . S
C107 N105 1.279 . S
C107 C106 1.358 . S
C107 H111 0.930 . S
C108 C106 1.356 . S
C108 C109 1.348 . S
C109 C104 1.353 . S
C109 C108 1.348 . S
C109 H161 0.929 . S
H110 C104 0.930 . S
H111 C107 0.930 . S
C112 N113 1.314 . S
C112 C114 1.353 . S
C112 H118 0.930 . S
N113 Li89 1.990 . S
N113 C112 1.314 . S
N113 C116 1.279 . S
C114 C112 1.353 . S
C114 C117 1.348 . S
C114 H162 0.929 . S
C115 C116 1.358 . S
C115 C117 1.356 . S
C115 H163 0.930 . S
C116 N113 1.279 . S
C116 C115 1.358 . S
C116 H119 0.930 . S
C117 C114 1.348 . S
C117 C115 1.356 . S
H118 C112 0.930 . S
H119 C116 0.930 . S
C120 C122 1.348 1_565 S
C120 C123 1.356 . S
C120 O150 1.325 . S
N121 C124 1.314 . S
N121 C125 1.279 . S
C122 C120 1.348 1_545 S
C122 C124 1.353 1_545 S
C122 H164 0.929 . S
C123 C120 1.356 . S
C123 C125 1.358 . S
C123 H165 0.930 . S
C124 N121 1.314 . S
C124 C122 1.353 1_565 S
C124 H166 0.930 1_565 S
C125 N121 1.279 . S
C125 C123 1.358 . S
C125 H167 0.930 . S
C126 C127 1.348 1_455 S
C126 C128 1.356 . S
C126 O151 1.325 . S
C127 C126 1.348 1_655 S
C127 C129 1.353 1_655 S
C127 H168 0.929 . S
C128 C126 1.356 . S
C128 C130 1.358 . S
C128 H169 0.930 . S
C129 C127 1.353 1_455 S
C129 N131 1.314 . S
C129 H170 0.930 1_455 S
C130 C128 1.358 . S
C130 N131 1.279 . S
C130 H171 0.930 . S
N131 C129 1.314 . S
N131 C130 1.279 . S
C132 C134 1.353 . S
C132 N135 1.314 . S
C132 H138 0.930 . S
C133 N135 1.279 . S
C133 C136 1.358 . S
C133 H139 0.930 . S
C134 C132 1.353 . S
C134 C137 1.348 . S
C134 H172 0.929 . S
N135 Li90 1.990 . S
N135 C132 1.314 . S
N135 C133 1.279 . S
C136 C133 1.358 . S
C136 C137 1.356 . S
C136 H173 0.930 . S
C137 C134 1.348 . S
C137 C136 1.356 . S
H138 C132 0.930 . S
H139 C133 0.930 . S
C140 N141 1.314 . S
C140 C142 1.353 . S
C140 H146 0.930 . S
N141 Li91 1.990 . S
N141 C140 1.314 . S
N141 C144 1.279 . S
C142 C140 1.353 . S
C142 C145 1.348 . S
C142 H174 0.929 . S
C143 C144 1.358 . S
C143 C145 1.356 . S
C143 H175 0.930 . S
C144 N141 1.279 . S
C144 C143 1.358 . S
C144 H147 0.930 . S
C145 C142 1.348 . S
C145 C143 1.356 . S
H146 C140 0.930 . S
H147 C144 0.930 . S
O148 Li88 1.956 . S
O148 Li89 1.970 1_665 S
O148 Li90 1.961 . S
O148 C92 1.325 . S
O149 Li88 1.970 1_445 S
O149 Li89 1.956 . S
O149 Li91 1.961 . S
O149 C98 1.325 . S
O150 Li88 1.961 . S
O150 Li90 1.956 . S
O150 Li91 1.970 1_665 S
O150 C120 1.325 . S
O151 Li89 1.961 . S
O151 Li90 1.970 1_445 S
O151 Li91 1.956 . S
O151 C126 1.325 . S
H152 C94 0.929 . S
H153 C95 0.930 . S
H154 C96 0.930 1_455 S
H155 C97 0.930 . S
H156 C99 0.930 . S
H157 C101 0.929 . S
H158 C102 0.930 . S
H159 C103 0.930 1_565 S
H160 C106 0.930 . S
H161 C109 0.929 . S
H162 C114 0.929 . S
H163 C115 0.930 . S
H164 C122 0.929 . S
H165 C123 0.930 . S
H166 C124 0.930 1_545 S
H167 C125 0.930 . S
H168 C127 0.929 . S
H169 C128 0.930 . S
H170 C129 0.930 1_655 S
H171 C130 0.930 . S
H172 C134 0.929 . S
H173 C136 0.930 . S
H174 C142 0.929 . S
H175 C143 0.930 . S
Li176 N193 1.990 . S
Li176 O236 1.956 . S
Li176 O237 1.970 1_565 S
Li176 O238 1.961 1_455 S
Li177 N201 1.990 . S
Li177 O236 1.970 1_545 S
Li177 O237 1.956 . S
Li177 O239 1.961 1_455 S
Li178 N223 1.990 . S
Li178 O236 1.961 1_655 S
Li178 O238 1.956 . S
Li178 O239 1.970 1_565 S
Li179 N229 1.990 . S
Li179 O237 1.961 1_655 S
Li179 O238 1.970 1_545 S
Li179 O239 1.956 . S
C180 C182 1.348 1_565 S
C180 C183 1.356 . S
C180 O236 1.325 . S
N181 C184 1.314 . S
N181 C185 1.279 . S
C182 C180 1.348 1_545 S
C182 C184 1.353 1_545 S
C182 H240 0.929 . S
C183 C180 1.356 . S
C183 C185 1.358 . S
C183 H241 0.930 . S
C184 N181 1.314 . S
C184 C182 1.353 1_565 S
C184 H242 0.930 1_565 S
C185 N181 1.279 . S
C185 C183 1.358 . S
C185 H243 0.930 . S
C186 C189 1.348 . S
C186 C190 1.356 . S
C186 O237 1.325 . S
C187 N188 1.279 . S
C187 C190 1.358 . S
C187 H244 0.930 . S
N188 C187 1.279 . S
N188 C191 1.314 . S
C189 C186 1.348 . S
C189 C191 1.353 . S
C189 H245 0.929 . S
C190 C186 1.356 . S
C190 C187 1.358 . S
C190 H246 0.930 . S
C191 N188 1.314 . S
C191 C189 1.353 . S
C191 H247 0.930 . S
C192 N193 1.314 . S
C192 C197 1.353 . S
C192 H198 0.930 . S
N193 Li176 1.990 . S
N193 C192 1.314 . S
N193 C195 1.279 . S
C194 C195 1.358 . S
C194 C196 1.356 . S
C194 H248 0.930 . S
C195 N193 1.279 . S
C195 C194 1.358 . S
C195 H199 0.930 . S
C196 C194 1.356 . S
C196 C197 1.348 . S
C197 C192 1.353 . S
C197 C196 1.348 . S
C197 H249 0.929 . S
H198 C192 0.930 . S
H199 C195 0.930 . S
C200 N201 1.314 . S
C200 C202 1.353 . S
C200 H206 0.930 . S
N201 Li177 1.990 . S
N201 C200 1.314 . S
N201 C204 1.279 . S
C202 C200 1.353 . S
C202 C205 1.348 . S
C202 H250 0.929 . S
C203 C204 1.358 . S
C203 C205 1.356 . S
C203 H251 0.930 . S
C204 N201 1.279 . S
C204 C203 1.358 . S
C204 H207 0.930 . S
C205 C202 1.348 . S
C205 C203 1.356 . S
H206 C200 0.930 . S
H207 C204 0.930 . S
C208 C210 1.348 . S
C208 C211 1.356 . S
C208 O238 1.325 . S
N209 C212 1.314 . S
N209 C213 1.279 . S
C210 C208 1.348 . S
C210 C212 1.353 . S
C210 H252 0.929 . S
C211 C208 1.356 . S
C211 C213 1.358 . S
C211 H253 0.930 . S
C212 N209 1.314 . S
C212 C210 1.353 . S
C212 H254 0.930 . S
C213 N209 1.279 . S
C213 C211 1.358 . S
C213 H255 0.930 . S
C214 C215 1.348 1_545 S
C214 C216 1.356 . S
C214 O239 1.325 . S
C215 C214 1.348 1_565 S
C215 C217 1.353 1_565 S
C215 H256 0.929 . S
C216 C214 1.356 . S
C216 C218 1.358 . S
C216 H257 0.930 . S
C217 C215 1.353 1_545 S
C217 N219 1.314 . S
C217 H258 0.930 1_545 S
C218 C216 1.358 . S
C218 N219 1.279 . S
C218 H259 0.930 . S
N219 C217 1.314 . S
N219 C218 1.279 . S
C220 C222 1.353 . S
C220 N223 1.314 . S
C220 H226 0.930 . S
C221 N223 1.279 . S
C221 C224 1.358 . S
C221 H227 0.930 . S
C222 C220 1.353 . S
C222 C225 1.348 . S
C222 H260 0.929 . S
N223 Li178 1.990 . S
N223 C220 1.314 . S
N223 C221 1.279 . S
C224 C221 1.358 . S
C224 C225 1.356 . S
C224 H261 0.930 . S
C225 C222 1.348 . S
C225 C224 1.356 . S
H226 C220 0.930 . S
H227 C221 0.930 . S
C228 N229 1.314 . S
C228 C230 1.353 . S
C228 H234 0.930 . S
N229 Li179 1.990 . S
N229 C228 1.314 . S
N229 C232 1.279 . S
C230 C228 1.353 . S
C230 C233 1.348 . S
C230 H262 0.929 . S
C231 C232 1.358 . S
C231 C233 1.356 . S
C231 H263 0.930 . S
C232 N229 1.279 . S
C232 C231 1.358 . S
C232 H235 0.930 . S
C233 C230 1.348 . S
C233 C231 1.356 . S
H234 C228 0.930 . S
H235 C232 0.930 . S
O236 Li176 1.956 . S
O236 Li177 1.970 1_565 S
O236 Li178 1.961 1_455 S
O236 C180 1.325 . S
O237 Li176 1.970 1_545 S
O237 Li177 1.956 . S
O237 Li179 1.961 1_455 S
O237 C186 1.325 . S
O238 Li176 1.961 1_655 S
O238 Li178 1.956 . S
O238 Li179 1.970 1_565 S
O238 C208 1.325 . S
O239 Li177 1.961 1_655 S
O239 Li178 1.970 1_545 S
O239 Li179 1.956 . S
O239 C214 1.325 . S
H240 C182 0.929 . S
H241 C183 0.930 . S
H242 C184 0.930 1_545 S
H243 C185 0.930 . S
H244 C187 0.930 . S
H245 C189 0.929 . S
H246 C190 0.930 . S
H247 C191 0.930 . S
H248 C194 0.930 . S
H249 C197 0.929 . S
H250 C202 0.929 . S
H251 C203 0.930 . S
H252 C210 0.929 . S
H253 C211 0.930 . S
H254 C212 0.930 . S
H255 C213 0.930 . S
H256 C215 0.929 . S
H257 C216 0.930 . S
H258 C217 0.930 1_565 S
H259 C218 0.930 . S
H260 C222 0.929 . S
H261 C224 0.930 . S
H262 C230 0.929 . S
H263 C231 0.930 . S
H264 C291 0.929 . S
N265 C290 1.433 . S
N265 C296 1.435 . S
N265 C302 1.423 . S
H266 C292 0.930 . S
H267 C295 0.931 . S
H268 C294 0.929 . S
H269 C297 0.930 . S
H270 C298 0.932 . S
H271 C301 0.929 . S
H272 C300 0.931 . S
H273 C303 0.929 . S
H274 C307 0.932 1_455 S
H275 C304 0.931 . S
H276 C306 0.929 1_455 S
H277 C309 0.929 . S
H278 C310 0.930 . S
H279 C312 0.929 . S
H280 C313 0.931 . S
H281 C315 0.930 . S
H282 C316 0.932 . S
H283 C318 0.931 . S
H284 C319 0.929 . S
H285 C321 0.929 . S
H286 C322 0.931 . S
H287 C324 0.929 1_455 S
N288 C308 1.433 . S
N288 C314 1.435 . S
N288 C320 1.423 . S
H289 C325 0.932 1_455 S
C290 N265 1.433 . S
C290 C291 1.363 . S
C290 C295 1.370 1_655 S
C291 H264 0.929 . S
C291 C290 1.363 . S
C291 C292 1.385 . S
C292 H266 0.930 . S
C292 C291 1.385 . S
C292 C293 1.357 . S
C293 C292 1.357 . S
C293 C294 1.406 1_655 S
C294 H268 0.929 . S
C294 C293 1.406 1_455 S
C294 C295 1.391 . S
C295 H267 0.931 . S
C295 C290 1.370 1_455 S
C295 C294 1.391 . S
C296 N265 1.435 . S
C296 C297 1.358 1_655 S
C296 C301 1.371 . S
C297 H269 0.930 . S
C297 C296 1.358 1_455 S
C297 C298 1.405 . S
C298 H270 0.932 . S
C298 C297 1.405 . S
C298 C299 1.383 1_455 S
C299 C298 1.383 1_655 S
C299 C300 1.393 . S
C300 H272 0.931 . S
C300 C299 1.393 . S
C300 C301 1.382 . S
C301 H271 0.929 . S
C301 C296 1.371 . S
C301 C300 1.382 . S
C302 N265 1.423 . S
C302 C303 1.362 . S
C302 C307 1.388 . S
C303 H273 0.929 . S
C303 C302 1.362 . S
C303 C304 1.376 . S
C304 H275 0.931 . S
C304 C303 1.376 . S
C304 C305 1.396 . S
C305 C304 1.396 . S
C305 C306 1.348 . S
C305 C323 1.472 . S
C306 H276 0.929 1_655 S
C306 C305 1.348 . S
C306 C307 1.443 . S
C307 H274 0.932 1_655 S
C307 C302 1.388 . S
C307 C306 1.443 . S
C308 N288 1.433 . S
C308 C309 1.363 . S
C308 C313 1.370 1_655 S
C309 H277 0.929 . S
C309 C308 1.363 . S
C309 C310 1.385 . S
C310 H278 0.930 . S
C310 C309 1.385 . S
C310 C311 1.357 . S
C311 C310 1.357 . S
C311 C312 1.406 1_655 S
C312 H279 0.929 . S
C312 C311 1.406 1_455 S
C312 C313 1.391 . S
C313 H280 0.931 . S
C313 C308 1.370 1_455 S
C313 C312 1.391 . S
C314 N288 1.435 . S
C314 C315 1.358 1_655 S
C314 C319 1.371 . S
C315 H281 0.930 . S
C315 C314 1.358 1_455 S
C315 C316 1.405 . S
C316 H282 0.932 . S
C316 C315 1.405 . S
C316 C317 1.383 1_455 S
C317 C316 1.383 1_655 S
C317 C318 1.393 . S
C318 H283 0.931 . S
C318 C317 1.393 . S
C318 C319 1.382 . S
C319 H284 0.929 . S
C319 C314 1.371 . S
C319 C318 1.382 . S
C320 N288 1.423 . S
C320 C321 1.362 . S
C320 C325 1.388 . S
C321 H285 0.929 . S
C321 C320 1.362 . S
C321 C322 1.376 . S
C322 H286 0.931 . S
C322 C321 1.376 . S
C322 C323 1.396 . S
C323 C305 1.472 . S
C323 C322 1.396 . S
C323 C324 1.348 . S
C324 H287 0.929 1_655 S
C324 C323 1.348 . S
C324 C325 1.443 . S
C325 H289 0.932 1_655 S
C325 C320 1.388 . S
C325 C324 1.443 . S
H326 C353 0.929 . S
N327 C352 1.433 . S
N327 C358 1.435 . S
N327 C364 1.423 . S
H328 C354 0.930 . S
H329 C357 0.931 . S
H330 C356 0.929 . S
H331 C359 0.930 . S
H332 C360 0.932 . S
H333 C363 0.929 . S
H334 C362 0.931 . S
H335 C365 0.929 . S
H336 C369 0.932 1_565 S
H337 C366 0.931 . S
H338 C368 0.929 1_565 S
H339 C371 0.929 . S
H340 C372 0.930 . S
H341 C374 0.929 . S
H342 C375 0.931 . S
H343 C377 0.930 . S
H344 C378 0.932 . S
H345 C380 0.931 . S
H346 C381 0.929 . S
H347 C383 0.929 . S
H348 C384 0.931 . S
H349 C386 0.929 1_565 S
N350 C370 1.433 . S
N350 C376 1.435 . S
N350 C382 1.423 . S
H351 C387 0.932 1_565 S
C352 N327 1.433 . S
C352 C353 1.363 . S
C352 C357 1.370 1_545 S
C353 H326 0.929 . S
C353 C352 1.363 . S
C353 C354 1.385 . S
C354 H328 0.930 . S
C354 C353 1.385 . S
C354 C355 1.357 . S
C355 C354 1.357 . S
C355 C356 1.406 1_545 S
C356 H330 0.929 . S
C356 C355 1.406 1_565 S
C356 C357 1.391 . S
C357 H329 0.931 . S
C357 C352 1.370 1_565 S
C357 C356 1.391 . S
C358 N327 1.435 . S
C358 C359 1.358 1_545 S
C358 C363 1.371 . S
C359 H331 0.930 . S
C359 C358 1.358 1_565 S
C359 C360 1.405 . S
C360 H332 0.932 . S
C360 C359 1.405 . S
C360 C361 1.383 1_565 S
C361 C360 1.383 1_545 S
C361 C362 1.393 . S
C362 H334 0.931 . S
C362 C361 1.393 . S
C362 C363 1.382 . S
C363 H333 0.929 . S
C363 C358 1.371 . S
C363 C362 1.382 . S
C364 N327 1.423 . S
C364 C365 1.362 . S
C364 C369 1.388 . S
C365 H335 0.929 . S
C365 C364 1.362 . S
C365 C366 1.376 . S
C366 H337 0.931 . S
C366 C365 1.376 . S
C366 C367 1.396 . S
C367 C366 1.396 . S
C367 C368 1.348 . S
C367 C385 1.472 . S
C368 H338 0.929 1_545 S
C368 C367 1.348 . S
C368 C369 1.443 . S
C369 H336 0.932 1_545 S
C369 C364 1.388 . S
C369 C368 1.443 . S
C370 N350 1.433 . S
C370 C371 1.363 . S
C370 C375 1.370 1_545 S
C371 H339 0.929 . S
C371 C370 1.363 . S
C371 C372 1.385 . S
C372 H340 0.930 . S
C372 C371 1.385 . S
C372 C373 1.357 . S
C373 C372 1.357 . S
C373 C374 1.406 1_545 S
C374 H341 0.929 . S
C374 C373 1.406 1_565 S
C374 C375 1.391 . S
C375 H342 0.931 . S
C375 C370 1.370 1_565 S
C375 C374 1.391 . S
C376 N350 1.435 . S
C376 C377 1.358 1_545 S
C376 C381 1.371 . S
C377 H343 0.930 . S
C377 C376 1.358 1_565 S
C377 C378 1.405 . S
C378 H344 0.932 . S
C378 C377 1.405 . S
C378 C379 1.383 1_565 S
C379 C378 1.383 1_545 S
C379 C380 1.393 . S
C380 H345 0.931 . S
C380 C379 1.393 . S
C380 C381 1.382 . S
C381 H346 0.929 . S
C381 C376 1.371 . S
C381 C380 1.382 . S
C382 N350 1.423 . S
C382 C383 1.362 . S
C382 C387 1.388 . S
C383 H347 0.929 . S
C383 C382 1.362 . S
C383 C384 1.376 . S
C384 H348 0.931 . S
C384 C383 1.376 . S
C384 C385 1.396 . S
C385 C367 1.472 . S
C385 C384 1.396 . S
C385 C386 1.348 . S
C386 H349 0.929 1_545 S
C386 C385 1.348 . S
C386 C387 1.443 . S
C387 H351 0.932 1_545 S
C387 C382 1.388 . S
C387 C386 1.443 . S
H388 C415 0.929 . S
N389 C414 1.433 . S
N389 C420 1.435 . S
N389 C426 1.423 . S
H390 C416 0.930 . S
H391 C419 0.931 . S
H392 C418 0.929 . S
H393 C421 0.930 . S
H394 C422 0.932 . S
H395 C425 0.929 . S
H396 C424 0.931 . S
H397 C427 0.929 . S
H398 C431 0.932 . S
H399 C428 0.931 . S
H400 C430 0.929 . S
H401 C433 0.929 . S
H402 C434 0.930 . S
H403 C436 0.929 . S
H404 C437 0.931 . S
H405 C439 0.930 . S
H406 C440 0.932 . S
H407 C442 0.931 . S
H408 C443 0.929 . S
H409 C445 0.929 . S
H410 C446 0.931 . S
H411 C448 0.929 . S
N412 C432 1.433 . S
N412 C438 1.435 . S
N412 C444 1.423 . S
H413 C449 0.932 . S
C414 N389 1.433 . S
C414 C415 1.363 . S
C414 C419 1.370 . S
C415 H388 0.929 . S
C415 C414 1.363 . S
C415 C416 1.385 . S
C416 H390 0.930 . S
C416 C415 1.385 . S
C416 C417 1.357 . S
C417 C416 1.357 . S
C417 C418 1.406 . S
C418 H392 0.929 . S
C418 C417 1.406 . S
C418 C419 1.391 . S
C419 H391 0.931 . S
C419 C414 1.370 . S
C419 C418 1.391 . S
C420 N389 1.435 . S
C420 C421 1.358 . S
C420 C425 1.371 . S
C421 H393 0.930 . S
C421 C420 1.358 . S
C421 C422 1.405 . S
C422 H394 0.932 . S
C422 C421 1.405 . S
C422 C423 1.383 . S
C423 C422 1.383 . S
C423 C424 1.393 . S
C424 H396 0.931 . S
C424 C423 1.393 . S
C424 C425 1.382 . S
C425 H395 0.929 . S
C425 C420 1.371 . S
C425 C424 1.382 . S
C426 N389 1.423 . S
C426 C427 1.362 . S
C426 C431 1.388 . S
C427 H397 0.929 . S
C427 C426 1.362 . S
C427 C428 1.376 . S
C428 H399 0.931 . S
C428 C427 1.376 . S
C428 C429 1.396 . S
C429 C428 1.396 . S
C429 C430 1.348 . S
C429 C447 1.472 . S
C430 H400 0.929 . S
C430 C429 1.348 . S
C430 C431 1.443 . S
C431 H398 0.932 . S
C431 C426 1.388 . S
C431 C430 1.443 . S
C432 N412 1.433 . S
C432 C433 1.363 . S
C432 C437 1.370 . S
C433 H401 0.929 . S
C433 C432 1.363 . S
C433 C434 1.385 . S
C434 H402 0.930 . S
C434 C433 1.385 . S
C434 C435 1.357 . S
C435 C434 1.357 . S
C435 C436 1.406 . S
C436 H403 0.929 . S
C436 C435 1.406 . S
C436 C437 1.391 . S
C437 H404 0.931 . S
C437 C432 1.370 . S
C437 C436 1.391 . S
C438 N412 1.435 . S
C438 C439 1.358 . S
C438 C443 1.371 . S
C439 H405 0.930 . S
C439 C438 1.358 . S
C439 C440 1.405 . S
C440 H406 0.932 . S
C440 C439 1.405 . S
C440 C441 1.383 . S
C441 C440 1.383 . S
C441 C442 1.393 . S
C442 H407 0.931 . S
C442 C441 1.393 . S
C442 C443 1.382 . S
C443 H408 0.929 . S
C443 C438 1.371 . S
C443 C442 1.382 . S
C444 N412 1.423 . S
C444 C445 1.362 . S
C444 C449 1.388 . S
C445 H409 0.929 . S
C445 C444 1.362 . S
C445 C446 1.376 . S
C446 H410 0.931 . S
C446 C445 1.376 . S
C446 C447 1.396 . S
C447 C429 1.472 . S
C447 C446 1.396 . S
C447 C448 1.348 . S
C448 H411 0.929 . S
C448 C447 1.348 . S
C448 C449 1.443 . S
C449 H413 0.932 . S
C449 C444 1.388 . S
C449 C448 1.443 . S
C450 C451 1.391 . S
C450 C452 1.394 . S
C450 H466 0.931 1_655 S
C451 C450 1.391 . S
C451 C455 1.376 . S
C452 C450 1.394 . S
C452 C453 1.369 . S
C452 C456 1.531 1_655 S
C453 C452 1.369 . S
C453 C454 1.410 . S
C453 C461 1.503 . S
C454 C453 1.410 . S
C454 C455 1.392 . S
C454 C457 1.511 . S
C455 C451 1.376 . S
C455 C454 1.392 . S
C455 H467 0.929 . S
C456 C452 1.531 1_455 S
C456 H468 0.960 . S
C456 H469 0.962 . S
C456 H470 0.960 . S
C457 C454 1.511 . S
C457 H471 0.961 . S
C457 H472 0.961 . S
C457 H473 0.961 . S
C458 C459 1.370 1_455 S
C458 C460 1.363 . S
C458 H474 0.931 . S
C459 C458 1.370 1_655 S
C459 C463 1.408 . S
C460 C458 1.363 . S
C460 C461 1.370 1_455 S
C460 C464 1.524 . S
C461 C453 1.503 . S
C461 C460 1.370 1_655 S
C461 C462 1.403 . S
C462 C461 1.403 . S
C462 C463 1.404 . S
C462 C465 1.539 . S
C463 C459 1.408 . S
C463 C462 1.404 . S
C463 H475 0.930 . S
C464 C460 1.524 . S
C464 H476 0.956 . S
C464 H477 0.961 1_455 S
C464 H478 0.961 . S
C465 C462 1.539 . S
C465 H479 0.958 . S
C465 H480 0.961 . S
C465 H481 0.960 . S
H466 C450 0.931 1_455 S
H467 C455 0.929 . S
H468 C456 0.960 . S
H469 C456 0.962 . S
H470 C456 0.960 . S
H471 C457 0.961 . S
H472 C457 0.961 . S
H473 C457 0.961 . S
H474 C458 0.931 . S
H475 C463 0.930 . S
H476 C464 0.956 . S
H477 C464 0.961 1_655 S
H478 C464 0.961 . S
H479 C465 0.958 . S
H480 C465 0.961 . S
H481 C465 0.960 . S
C482 C483 1.391 . S
C482 C484 1.394 . S
C482 H498 0.931 . S
C483 C482 1.391 . S
C483 C487 1.376 . S
C484 C482 1.394 . S
C484 C485 1.369 . S
C484 C488 1.531 1_565 S
C485 C484 1.369 . S
C485 C486 1.410 . S
C485 C493 1.503 . S
C486 C485 1.410 . S
C486 C487 1.392 . S
C486 C489 1.511 . S
C487 C483 1.376 . S
C487 C486 1.392 . S
C487 H499 0.929 . S
C488 C484 1.531 1_545 S
C488 H500 0.960 . S
C488 H501 0.962 . S
C488 H502 0.960 . S
C489 C486 1.511 . S
C489 H503 0.961 . S
C489 H504 0.961 . S
C489 H505 0.961 . S
C490 C491 1.370 . S
C490 C492 1.363 . S
C490 H506 0.931 . S
C491 C490 1.370 . S
C491 C495 1.408 1_565 S
C492 C490 1.363 . S
C492 C493 1.370 . S
C492 C496 1.524 . S
C493 C485 1.503 . S
C493 C492 1.370 . S
C493 C494 1.403 1_565 S
C494 C493 1.403 1_545 S
C494 C495 1.404 . S
C494 C497 1.539 . S
C495 C491 1.408 1_545 S
C495 C494 1.404 . S
C495 H507 0.930 . S
C496 C492 1.524 . S
C496 H508 0.956 . S
C496 H509 0.961 . S
C496 H510 0.961 . S
C497 C494 1.539 . S
C497 H511 0.958 . S
C497 H512 0.961 . S
C497 H513 0.960 . S
H498 C482 0.931 . S
H499 C487 0.929 . S
H500 C488 0.960 . S
H501 C488 0.962 . S
H502 C488 0.960 . S
H503 C489 0.961 . S
H504 C489 0.961 . S
H505 C489 0.961 . S
H506 C490 0.931 . S
H507 C495 0.930 . S
H508 C496 0.956 . S
H509 C496 0.961 . S
H510 C496 0.961 . S
H511 C497 0.958 . S
H512 C497 0.961 . S
H513 C497 0.960 . S
C514 C515 1.391 . S
C514 C516 1.394 . S
C514 H530 0.931 . S
C515 C514 1.391 . S
C515 C519 1.376 . S
C516 C514 1.394 . S
C516 C517 1.369 . S
C516 C520 1.531 . S
C517 C516 1.369 . S
C517 C518 1.410 . S
C517 C525 1.503 . S
C518 C517 1.410 . S
C518 C519 1.392 . S
C518 C521 1.511 . S
C519 C515 1.376 . S
C519 C518 1.392 . S
C519 H531 0.929 . S
C520 C516 1.531 . S
C520 H532 0.960 . S
C520 H533 0.962 . S
C520 H534 0.960 . S
C521 C518 1.511 . S
C521 H535 0.961 . S
C521 H536 0.961 . S
C521 H537 0.961 . S
C522 C523 1.370 . S
C522 C524 1.363 . S
C522 H538 0.931 . S
C523 C522 1.370 . S
C523 C527 1.408 . S
C524 C522 1.363 . S
C524 C525 1.370 . S
C524 C528 1.524 . S
C525 C517 1.503 . S
C525 C524 1.370 . S
C525 C526 1.403 . S
C526 C525 1.403 . S
C526 C527 1.404 . S
C526 C529 1.539 . S
C527 C523 1.408 . S
C527 C526 1.404 . S
C527 H539 0.930 . S
C528 C524 1.524 . S
C528 H540 0.956 . S
C528 H541 0.961 . S
C528 H542 0.961 . S
C529 C526 1.539 . S
C529 H543 0.958 . S
C529 H544 0.961 . S
C529 H545 0.960 . S
H530 C514 0.931 . S
H531 C519 0.929 . S
H532 C520 0.960 . S
H533 C520 0.962 . S
H534 C520 0.960 . S
H535 C521 0.961 . S
H536 C521 0.961 . S
H537 C521 0.961 . S
H538 C522 0.931 . S
H539 C527 0.930 . S
H540 C528 0.956 . S
H541 C528 0.961 . S
H542 C528 0.961 . S
H543 C529 0.958 . S
H544 C529 0.961 . S
H545 C529 0.960 . S
C546 C547 1.391 . S
C546 C548 1.394 . S
C546 H562 0.931 . S
C547 C546 1.391 . S
C547 C551 1.376 . S
C548 C546 1.394 . S
C548 C549 1.369 . S
C548 C552 1.531 . S
C549 C548 1.369 . S
C549 C550 1.410 1_455 S
C549 C557 1.503 . S
C550 C549 1.410 1_655 S
C550 C551 1.392 1_655 S
C550 C553 1.511 . S
C551 C547 1.376 . S
C551 C550 1.392 1_455 S
C551 H563 0.929 1_455 S
C552 C548 1.531 . S
C552 H564 0.960 . S
C552 H565 0.962 . S
C552 H566 0.960 . S
C553 C550 1.511 . S
C553 H567 0.961 . S
C553 H568 0.961 . S
C553 H569 0.961 . S
C554 C555 1.370 . S
C554 C556 1.363 . S
C554 H570 0.931 . S
C555 C554 1.370 . S
C555 C559 1.408 . S
C556 C554 1.363 . S
C556 C557 1.370 . S
C556 C560 1.524 . S
C557 C549 1.503 . S
C557 C556 1.370 . S
C557 C558 1.403 . S
C558 C557 1.403 . S
C558 C559 1.404 . S
C558 C561 1.539 . S
C559 C555 1.408 . S
C559 C558 1.404 . S
C559 H571 0.930 . S
C560 C556 1.524 . S
C560 H572 0.956 . S
C560 H573 0.961 . S
C560 H574 0.961 . S
C561 C558 1.539 . S
C561 H575 0.958 . S
C561 H576 0.961 1_455 S
C561 H577 0.960 . S
H562 C546 0.931 . S
H563 C551 0.929 1_655 S
H564 C552 0.960 . S
H565 C552 0.962 . S
H566 C552 0.960 . S
H567 C553 0.961 . S
H568 C553 0.961 . S
H569 C553 0.961 . S
H570 C554 0.931 . S
H571 C559 0.930 . S
H572 C560 0.956 . S
H573 C560 0.961 . S
H574 C560 0.961 . S
H575 C561 0.958 . S
H576 C561 0.961 1_655 S
H577 C561 0.960 . S
C578 C579 1.391 . S
C578 C580 1.394 . S
C578 H594 0.931 . S
C579 C578 1.391 . S
C579 C583 1.376 . S
C580 C578 1.394 . S
C580 C581 1.369 . S
C580 C584 1.531 . S
C581 C580 1.369 . S
C581 C582 1.410 . S
C581 C589 1.503 . S
C582 C581 1.410 . S
C582 C583 1.392 . S
C582 C585 1.511 1_545 S
C583 C579 1.376 . S
C583 C582 1.392 . S
C583 H595 0.929 1_545 S
C584 C580 1.531 . S
C584 H596 0.960 . S
C584 H597 0.962 . S
C584 H598 0.960 . S
C585 C582 1.511 1_565 S
C585 H599 0.961 . S
C585 H600 0.961 . S
C585 H601 0.961 . S
C586 C587 1.370 1_565 S
C586 C588 1.363 . S
C586 H602 0.931 . S
C587 C586 1.370 1_545 S
C587 C591 1.408 . S
C588 C586 1.363 . S
C588 C589 1.370 1_565 S
C588 C592 1.524 . S
C589 C581 1.503 . S
C589 C588 1.370 1_545 S
C589 C590 1.403 . S
C590 C589 1.403 . S
C590 C591 1.404 . S
C590 C593 1.539 . S
C591 C587 1.408 . S
C591 C590 1.404 . S
C591 H603 0.930 . S
C592 C588 1.524 . S
C592 H604 0.955 1_565 S
C592 H605 0.961 . S
C592 H606 0.961 . S
C593 C590 1.539 . S
C593 H607 0.958 . S
C593 H608 0.961 . S
C593 H609 0.960 . S
H594 C578 0.931 . S
H595 C583 0.929 1_565 S
H596 C584 0.960 . S
H597 C584 0.962 . S
H598 C584 0.960 . S
H599 C585 0.961 . S
H600 C585 0.961 . S
H601 C585 0.961 . S
H602 C586 0.931 . S
H603 C591 0.930 . S
H604 C592 0.955 1_545 S
H605 C592 0.961 . S
H606 C592 0.961 . S
H607 C593 0.958 . S
H608 C593 0.961 . S
H609 C593 0.960 . S
C610 C611 1.391 . S
C610 C612 1.394 . S
C610 H626 0.931 . S
C611 C610 1.391 . S
C611 C615 1.376 . S
C612 C610 1.394 . S
C612 C613 1.369 . S
C612 C616 1.531 . S
C613 C612 1.369 . S
C613 C614 1.410 . S
C613 C621 1.503 . S
C614 C613 1.410 . S
C614 C615 1.392 . S
C614 C617 1.511 . S
C615 C611 1.376 . S
C615 C614 1.392 . S
C615 H627 0.929 . S
C616 C612 1.531 . S
C616 H628 0.960 . S
C616 H629 0.962 . S
C616 H630 0.960 . S
C617 C614 1.511 . S
C617 H631 0.961 . S
C617 H632 0.961 . S
C617 H633 0.961 . S
C618 C619 1.370 . S
C618 C620 1.363 . S
C618 H634 0.931 . S
C619 C618 1.370 . S
C619 C623 1.408 . S
C620 C618 1.363 . S
C620 C621 1.370 . S
C620 C624 1.524 . S
C621 C613 1.503 . S
C621 C620 1.370 . S
C621 C622 1.403 . S
C622 C621 1.403 . S
C622 C623 1.404 . S
C622 C625 1.539 . S
C623 C619 1.408 . S
C623 C622 1.404 . S
C623 H635 0.930 . S
C624 C620 1.524 . S
C624 H636 0.956 . S
C624 H637 0.961 . S
C624 H638 0.961 . S
C625 C622 1.539 . S
C625 H639 0.958 . S
C625 H640 0.961 . S
C625 H641 0.960 . S
H626 C610 0.931 . S
H627 C615 0.929 . S
H628 C616 0.960 . S
H629 C616 0.962 . S
H630 C616 0.960 . S
H631 C617 0.961 . S
H632 C617 0.961 . S
H633 C617 0.961 . S
H634 C618 0.931 . S
H635 C623 0.930 . S
H636 C624 0.956 . S
H637 C624 0.961 . S
H638 C624 0.961 . S
H639 C625 0.958 . S
H640 C625 0.961 . S
H641 C625 0.960 . S
C642 C643 1.391 . S
C642 C644 1.394 . S
C642 H658 0.931 . S
C643 C642 1.391 . S
C643 C647 1.376 . S
C644 C642 1.394 . S
C644 C645 1.369 . S
C644 C648 1.531 . S
C645 C644 1.369 . S
C645 C646 1.410 . S
C645 C653 1.503 . S
C646 C645 1.410 . S
C646 C647 1.392 . S
C646 C649 1.511 1_545 S
C647 C643 1.376 . S
C647 C646 1.392 . S
C647 H659 0.929 1_545 S
C648 C644 1.531 . S
C648 H660 0.960 . S
C648 H661 0.962 . S
C648 H662 0.960 . S
C649 C646 1.511 1_565 S
C649 H663 0.961 . S
C649 H664 0.961 . S
C649 H665 0.961 . S
C650 C651 1.370 1_565 S
C650 C652 1.363 . S
C650 H666 0.931 . S
C651 C650 1.370 1_545 S
C651 C655 1.408 . S
C652 C650 1.363 . S
C652 C653 1.370 1_565 S
C652 C656 1.524 . S
C653 C645 1.503 . S
C653 C652 1.370 1_545 S
C653 C654 1.403 . S
C654 C653 1.403 . S
C654 C655 1.404 . S
C654 C657 1.539 . S
C655 C651 1.408 . S
C655 C654 1.404 . S
C655 H667 0.930 . S
C656 C652 1.524 . S
C656 H668 0.956 1_565 S
C656 H669 0.961 . S
C656 H670 0.961 . S
C657 C654 1.539 . S
C657 H671 0.958 . S
C657 H672 0.961 . S
C657 H673 0.960 . S
H658 C642 0.931 . S
H659 C647 0.929 1_565 S
H660 C648 0.960 . S
H661 C648 0.962 . S
H662 C648 0.960 . S
H663 C649 0.961 . S
H664 C649 0.961 . S
H665 C649 0.961 . S
H666 C650 0.931 . S
H667 C655 0.930 . S
H668 C656 0.956 1_545 S
H669 C656 0.961 . S
H670 C656 0.961 . S
H671 C657 0.958 . S
H672 C657 0.961 . S
H673 C657 0.960 . S
C674 C675 1.391 . S
C674 C676 1.394 . S
C674 H690 0.931 . S
C675 C674 1.391 . S
C675 C679 1.376 . S
C676 C674 1.394 . S
C676 C677 1.369 . S
C676 C680 1.531 . S
C677 C676 1.369 . S
C677 C678 1.410 . S
C677 C685 1.503 . S
C678 C677 1.410 . S
C678 C679 1.392 . S
C678 C681 1.511 . S
C679 C675 1.376 . S
C679 C678 1.392 . S
C679 H691 0.929 . S
C680 C676 1.531 . S
C680 H692 0.960 . S
C680 H693 0.962 . S
C680 H694 0.960 . S
C681 C678 1.511 . S
C681 H695 0.961 . S
C681 H696 0.961 . S
C681 H697 0.961 . S
C682 C683 1.370 . S
C682 C684 1.363 . S
C682 H698 0.931 . S
C683 C682 1.370 . S
C683 C687 1.408 . S
C684 C682 1.363 . S
C684 C685 1.370 . S
C684 C688 1.524 . S
C685 C677 1.503 . S
C685 C684 1.370 . S
C685 C686 1.403 . S
C686 C685 1.403 . S
C686 C687 1.404 . S
C686 C689 1.539 . S
C687 C683 1.408 . S
C687 C686 1.404 . S
C687 H699 0.930 . S
C688 C684 1.524 . S
C688 H700 0.956 . S
C688 H701 0.961 . S
C688 H702 0.961 . S
C689 C686 1.539 . S
C689 H703 0.958 . S
C689 H704 0.961 . S
C689 H705 0.960 . S
H690 C674 0.931 . S
H691 C679 0.929 . S
H692 C680 0.960 . S
H693 C680 0.962 . S
H694 C680 0.960 . S
H695 C681 0.961 . S
H696 C681 0.961 . S
H697 C681 0.961 . S
H698 C682 0.931 . S
H699 C687 0.930 . S
H700 C688 0.956 . S
H701 C688 0.961 . S
H702 C688 0.961 . S
H703 C689 0.958 . S
H704 C689 0.961 . S
H705 C689 0.960 . S
C706 C707 1.391 . S
C706 C708 1.394 . S
C706 H722 0.931 . S
C707 C706 1.391 . S
C707 C711 1.376 . S
C708 C706 1.394 . S
C708 C709 1.369 . S
C708 C712 1.531 . S
C709 C708 1.369 . S
C709 C710 1.410 . S
C709 C717 1.503 . S
C710 C709 1.410 . S
C710 C711 1.392 . S
C710 C713 1.511 . S
C711 C707 1.376 . S
C711 C710 1.392 . S
C711 H723 0.929 . S
C712 C708 1.531 . S
C712 H724 0.960 . S
C712 H725 0.962 . S
C712 H726 0.960 . S
C713 C710 1.511 . S
C713 H727 0.961 . S
C713 H728 0.961 . S
C713 H729 0.961 1_655 S
C714 C715 1.370 . S
C714 C716 1.363 . S
C714 H730 0.931 . S
C715 C714 1.370 . S
C715 C719 1.408 1_655 S
C716 C714 1.363 . S
C716 C717 1.370 . S
C716 C720 1.524 . S
C717 C709 1.503 . S
C717 C716 1.370 . S
C717 C718 1.403 1_655 S
C718 C717 1.403 1_455 S
C718 C719 1.404 . S
C718 C721 1.539 . S
C719 C715 1.408 1_455 S
C719 C718 1.404 . S
C719 H731 0.930 . S
C720 C716 1.524 . S
C720 H732 0.956 . S
C720 H733 0.961 . S
C720 H734 0.961 . S
C721 C718 1.539 . S
C721 H735 0.958 . S
C721 H736 0.961 . S
C721 H737 0.960 . S
H722 C706 0.931 . S
H723 C711 0.929 . S
H724 C712 0.960 . S
H725 C712 0.962 . S
H726 C712 0.960 . S
H727 C713 0.961 . S
H728 C713 0.961 . S
H729 C713 0.961 1_455 S
H730 C714 0.931 . S
H731 C719 0.930 . S
H732 C720 0.956 . S
H733 C720 0.961 . S
H734 C720 0.961 . S
H735 C721 0.958 . S
H736 C721 0.961 . S
H737 C721 0.960 . S
C738 C739 1.391 . S
C738 C740 1.394 . S
C738 H754 0.931 . S
C739 C738 1.391 . S
C739 C743 1.376 . S
C740 C738 1.394 . S
C740 C741 1.369 . S
C740 C744 1.531 . S
C741 C740 1.369 . S
C741 C742 1.410 1_565 S
C741 C749 1.503 . S
C742 C741 1.410 1_545 S
C742 C743 1.392 1_545 S
C742 C745 1.511 . S
C743 C739 1.376 . S
C743 C742 1.392 1_565 S
C743 H755 0.929 1_565 S
C744 C740 1.531 . S
C744 H756 0.960 . S
C744 H757 0.962 . S
C744 H758 0.960 . S
C745 C742 1.511 . S
C745 H759 0.961 . S
C745 H760 0.961 . S
C745 H761 0.961 . S
C746 C747 1.370 . S
C746 C748 1.363 . S
C746 H762 0.931 . S
C747 C746 1.370 . S
C747 C751 1.408 1_565 S
C748 C746 1.363 . S
C748 C749 1.370 . S
C748 C752 1.524 . S
C749 C741 1.503 . S
C749 C748 1.370 . S
C749 C750 1.403 1_565 S
C750 C749 1.403 1_545 S
C750 C751 1.404 . S
C750 C753 1.539 . S
C751 C747 1.408 1_545 S
C751 C750 1.404 . S
C751 H763 0.930 . S
C752 C748 1.524 . S
C752 H764 0.956 . S
C752 H765 0.961 . S
C752 H766 0.961 . S
C753 C750 1.539 . S
C753 H767 0.958 . S
C753 H768 0.961 . S
C753 H769 0.960 . S
H754 C738 0.931 . S
H755 C743 0.929 1_545 S
H756 C744 0.960 . S
H757 C744 0.962 . S
H758 C744 0.960 . S
H759 C745 0.961 . S
H760 C745 0.961 . S
H761 C745 0.961 . S
H762 C746 0.931 . S
H763 C751 0.930 . S
H764 C752 0.956 . S
H765 C752 0.961 . S
H766 C752 0.961 . S
H767 C753 0.958 . S
H768 C753 0.961 . S
H769 C753 0.960 . S
C770 C771 1.391 . S
C770 C772 1.394 . S
C770 H786 0.931 . S
C771 C770 1.391 . S
C771 C775 1.376 . S
C772 C770 1.394 . S
C772 C773 1.369 . S
C772 C776 1.531 . S
C773 C772 1.369 . S
C773 C774 1.410 . S
C773 C781 1.503 . S
C774 C773 1.410 . S
C774 C775 1.392 . S
C774 C777 1.511 . S
C775 C771 1.376 . S
C775 C774 1.392 . S
C775 H787 0.973 . S
C776 C772 1.531 . S
C776 H788 0.960 . S
C776 H789 0.962 . S
C776 H790 0.960 . S
C777 C774 1.511 . S
C777 H791 0.991 . S
C777 H792 0.961 . S
C777 H793 0.961 . S
C778 C779 1.370 . S
C778 C780 1.363 . S
C778 H794 0.931 . S
C779 C778 1.370 . S
C779 C783 1.408 . S
C780 C778 1.363 . S
C780 C781 1.370 . S
C780 C784 1.524 . S
C781 C773 1.503 . S
C781 C780 1.370 . S
C781 C782 1.403 . S
C782 C781 1.403 . S
C782 C783 1.404 . S
C782 C785 1.539 . S
C783 C779 1.408 . S
C783 C782 1.404 . S
C783 H795 0.930 . S
C784 C780 1.524 . S
C784 H796 0.956 . S
C784 H797 0.961 . S
C784 H798 0.961 . S
C785 C782 1.539 . S
C785 H799 0.958 . S
C785 H800 0.961 . S
C785 H801 0.960 . S
H786 C770 0.931 . S
H787 C775 0.973 . S
H788 C776 0.960 . S
H789 C776 0.962 . S
H790 C776 0.960 . S
H791 C777 0.991 . S
H792 C777 0.961 . S
H793 C777 0.961 . S
H794 C778 0.931 . S
H795 C783 0.930 . S
H796 C784 0.956 . S
H797 C784 0.961 . S
H798 C784 0.961 . S
H799 C785 0.958 . S
H800 C785 0.961 . S
H801 C785 0.960 . S
C802 C803 1.391 . S
C802 C804 1.394 . S
C802 H818 0.943 . S
C803 C802 1.391 . S
C803 C807 1.376 . S
C804 C802 1.394 . S
C804 C805 1.369 . S
C804 C808 1.531 1_455 S
C805 C804 1.369 . S
C805 C806 1.410 . S
C805 C813 1.503 . S
C806 C805 1.410 . S
C806 C807 1.392 . S
C806 C809 1.511 . S
C807 C803 1.376 . S
C807 C806 1.392 . S
C807 H819 0.929 . S
C808 C804 1.531 1_655 S
C808 H820 0.960 . S
C808 H821 0.962 . S
C808 H822 0.960 . S
C809 C806 1.511 . S
C809 H823 0.961 . S
C809 H824 0.961 . S
C809 H825 0.961 . S
C810 C811 1.370 1_655 S
C810 C812 1.363 . S
C810 H826 0.931 . S
C811 C810 1.370 1_455 S
C811 C815 1.408 . S
C812 C810 1.363 . S
C812 C813 1.370 1_655 S
C812 C816 1.524 . S
C813 C805 1.503 . S
C813 C812 1.370 1_455 S
C813 C814 1.403 . S
C814 C813 1.403 . S
C814 C815 1.404 . S
C814 C817 1.539 . S
C815 C811 1.408 . S
C815 C814 1.404 . S
C815 H827 0.930 . S
C816 C812 1.524 . S
C816 H828 0.956 . S
C816 H829 0.961 . S
C816 H830 0.961 . S
C817 C814 1.539 . S
C817 H831 0.958 . S
C817 H832 0.961 . S
C817 H833 0.960 . S
H818 C802 0.943 . S
H819 C807 0.929 . S
H820 C808 0.960 . S
H821 C808 0.962 . S
H822 C808 0.960 . S
H823 C809 0.961 . S
H824 C809 0.961 . S
H825 C809 0.961 . S
H826 C810 0.931 . S
H827 C815 0.930 . S
H828 C816 0.956 . S
H829 C816 0.961 . S
H830 C816 0.961 . S
H831 C817 0.958 . S
H832 C817 0.961 . S
H833 C817 0.960 . S
C459 C317 1.313 . S
C451 C29 1.322 . S
C483 C137 1.291 . S
C491 C361 1.333 1_565 S
C515 C225 1.285 . S
C523 C423 1.330 . S
C547 C49 1.307 . S
C555 C299 1.320 1_455 S
C587 C379 1.303 . S
C579 C117 1.319 . S
C611 C205 1.296 . S
C619 C441 1.309 . S
C651 C355 1.540 . S
C643 C233 1.673 . S
C675 C57 1.674 . S
C683 C417 1.546 . S
C715 C293 1.565 . S
C707 C108 1.640 . S
C747 C373 1.573 1_565 S
C739 C196 1.643 . S
C779 C435 1.580 . S
C771 C20 1.635 . S
C803 C145 1.664 . S
C811 C311 1.590 1_455 S
