# Generated by pormake.
# Topology pth, (4,4)-cn, num edge types: 1
# Building blocks:
#     Node 0, Type 0, BuildingBlock: GALJAG_clean_sbu_0, # of connection points: 4
#     Node 1, Type 0, BuildingBlock: GALJAG_clean_sbu_0, # of connection points: 4
#     Node 2, Type 0, BuildingBlock: GALJAG_clean_sbu_0, # of connection points: 4
#     Node 3, Type 1, BuildingBlock: NAWXER_clean_linker_0, # of connection points: 4
#     Node 4, Type 1, BuildingBlock: NAWXER_clean_linker_0, # of connection points: 4
#     Node 5, Type 1, BuildingBlock: NAWXER_clean_linker_0, # of connection points: 4
#     Edge 6, Type (0, 1), BuildingBlock: MIFKUJ_clean_linker_0, # of connection points: 2
#     Edge 7, Type (0, 1), BuildingBlock: MIFKUJ_clean_linker_0, # of connection points: 2
#     Edge 8, Type (0, 1), BuildingBlock: MIFKUJ_clean_linker_0, # of connection points: 2
#     Edge 9, Type (0, 1), BuildingBlock: MIFKUJ_clean_linker_0, # of connection points: 2
#     Edge 10, Type (0, 1), BuildingBlock: MIFKUJ_clean_linker_0, # of connection points: 2
#     Edge 11, Type (0, 1), BuildingBlock: MIFKUJ_clean_linker_0, # of connection points: 2
#     Edge 12, Type (0, 1), BuildingBlock: MIFKUJ_clean_linker_0, # of connection points: 2
#     Edge 13, Type (0, 1), BuildingBlock: MIFKUJ_clean_linker_0, # of connection points: 2
#     Edge 14, Type (0, 1), BuildingBlock: MIFKUJ_clean_linker_0, # of connection points: 2
#     Edge 15, Type (0, 1), BuildingBlock: MIFKUJ_clean_linker_0, # of connection points: 2
#     Edge 16, Type (0, 1), BuildingBlock: MIFKUJ_clean_linker_0, # of connection points: 2
#     Edge 17, Type (0, 1), BuildingBlock: MIFKUJ_clean_linker_0, # of connection points: 2
# Relax obj value: 0.002
# Max RMSD: 0.036
# Mean RMSD: 0.021
data_MOF--net-pth--node1-GALJAG_clean_sbu_0--node2-NAWXER_clean_linker_0--edge1-MIFKUJ_clean_linker_0
_symmetry_space_group_name_H-M    P1
_symmetry_Int_Tables_number       1
_symmetry_cell_setting            triclinic
loop_
_symmetry_equiv_pos_as_xyz
'x, y, z'
_cell_length_a     36.8025
_cell_length_b     36.801165
_cell_length_c     79.687707
_cell_angle_alpha  90.146133
_cell_angle_beta   90.16246
_cell_angle_gamma 119.96453
loop_
_atom_site_label
_atom_site_type_symbol
_atom_site_fract_x
_atom_site_fract_y
_atom_site_fract_z
_atom_type_partial_charge
In0 In 0.00428 0.00495 0.047 0.0
O1 O 0.96655 0.03349 0.05811 0.0
O2 O 0.03159 0.06288 0.06367 0.0
C3 C 0.93557 0.95126 0.02915 0.0
C4 C 0.06598 0.05423 0.02569 0.0
C5 C 0.01833 0.95236 0.06602 0.0
O6 O 0.93524 0.95337 0.04496 0.0
O7 O 0.97006 0.97654 0.02248 0.0
O8 O 0.02045 0.95271 0.05022 0.0
O9 O 0.01019 0.97906 0.07214 0.0
C10 C 0.99764 0.06283 0.06563 0.0
O11 O 0.07191 0.03511 0.0376 0.0
O12 O 0.02921 0.04832 0.02461 0.0
In13 In 0.00527 0.00945 0.38015 0.0
O14 O 0.03521 0.07892 0.37342 0.0
O15 O 0.00387 0.03429 0.35405 0.0
C16 C 0.07097 0.02653 0.40037 0.0
C17 C 0.93937 0.999 0.39886 0.0
C18 C 0.98956 0.93993 0.36273 0.0
O19 O 0.07493 0.03337 0.38477 0.0
O20 O 0.03408 0.01181 0.40577 0.0
O21 O 0.96775 0.9574 0.36091 0.0
O22 O 0.01856 0.95707 0.37346 0.0
C23 C 0.02368 0.07242 0.35827 0.0
O24 O 0.94521 0.96891 0.39526 0.0
O25 O 0.96627 0.03375 0.39289 0.0
In26 In 0.00192 0.99897 0.71388 0.0
O27 O 0.96234 0.93031 0.72153 0.0
O28 O 0.96749 0.97672 0.7388 0.0
C29 C 0.0513 0.98744 0.692 0.0
C30 C 0.9455 0.00653 0.69468 0.0
C31 C 0.05788 0.06261 0.73343 0.0
O32 O 0.0413 0.9696 0.70608 0.0
O33 O 0.03604 0.01067 0.68887 0.0
O34 O 0.02528 0.06155 0.72774 0.0
O35 O 0.06211 0.03193 0.72916 0.0
C36 C 0.95222 0.93823 0.7356 0.0
O37 O 0.97937 0.03803 0.6995 0.0
O38 O 0.94027 0.97174 0.69962 0.0
C39 C 0.97599 0.3674 0.24114 0.0
C40 C 0.00929 0.38038 0.25266 0.0
C41 C 0.97199 0.39682 0.23143 0.0
C42 C 0.00153 0.43973 0.23291 0.0
C43 C 0.03844 0.42344 0.25425 0.0
C44 C 0.03444 0.4528 0.24453 0.0
C45 C 0.9978 0.47144 0.22283 0.0
C46 C 0.02078 0.39143 0.18641 0.0
C47 C 0.98944 0.37161 0.17405 0.0
C48 C 0.02197 0.42305 0.19655 0.0
C49 C 0.99129 0.43486 0.19481 0.0
C50 C 0.95932 0.38419 0.17212 0.0
C51 C 0.96031 0.4155 0.18237 0.0
C52 C 0.99223 0.46872 0.20521 0.0
C53 C 0.02061 0.63956 0.1877 0.0
C54 C 0.99297 0.62877 0.17398 0.0
C55 C 0.01931 0.6085 0.19813 0.0
C56 C 0.98981 0.56602 0.19526 0.0
C57 C 0.96355 0.58628 0.17109 0.0
C58 C 0.96206 0.55524 0.1816 0.0
C59 C 0.99017 0.53256 0.20545 0.0
C60 C 0.95565 0.60302 0.24231 0.0
C61 C 0.98713 0.62621 0.25428 0.0
C62 C 0.95835 0.57373 0.23197 0.0
C63 C 0.99248 0.56688 0.23343 0.0
C64 C 0.02141 0.61933 0.25558 0.0
C65 C 0.02376 0.58962 0.2454 0.0
C66 C 0.99461 0.53463 0.22309 0.0
H67 H 0.95256 0.33455 0.23985 0.0
H68 H 0.94564 0.38607 0.22288 0.0
H69 H 0.06466 0.43447 0.26288 0.0
H70 H 0.05743 0.48577 0.24595 0.0
H71 H 0.04434 0.38241 0.18833 0.0
H72 H 0.04707 0.43843 0.20566 0.0
H73 H 0.93529 0.37032 0.16251 0.0
H74 H 0.93671 0.42457 0.1806 0.0
H75 H 0.04419 0.67195 0.19005 0.0
H76 H 0.04228 0.6177 0.20813 0.0
H77 H 0.94169 0.57704 0.16067 0.0
H78 H 0.93934 0.52269 0.17901 0.0
H79 H 0.92839 0.60676 0.24114 0.0
H80 H 0.93336 0.55582 0.22305 0.0
H81 H 0.04667 0.63707 0.26441 0.0
H82 H 0.0503 0.58471 0.24675 0.0
N83 N 0.99878 0.50431 0.23107 0.0
N84 N 0.98867 0.49942 0.19724 0.0
C85 C 0.63817 0.02564 0.51972 0.0
C86 C 0.62647 0.99277 0.50809 0.0
C87 C 0.6079 0.02787 0.52952 0.0
C88 C 0.56542 0.99717 0.52791 0.0
C89 C 0.58387 0.96226 0.50644 0.0
C90 C 0.55361 0.96465 0.51618 0.0
C91 C 0.53286 0.99938 0.53793 0.0
C92 C 0.61249 0.97531 0.57423 0.0
C93 C 0.63363 0.00795 0.58596 0.0
C94 C 0.58021 0.97347 0.56431 0.0
C95 C 0.56869 0.00439 0.56587 0.0
C96 C 0.62165 0.03855 0.58761 0.0
C97 C 0.58929 0.0366 0.57774 0.0
C98 C 0.53445 0.00291 0.55559 0.0
C99 C 0.36048 0.97011 0.5715 0.0
C100 C 0.36975 0.99526 0.58593 0.0
C101 C 0.39276 0.97237 0.56157 0.0
C102 C 0.43493 0.00081 0.56559 0.0
C103 C 0.41186 0.02289 0.59019 0.0
C104 C 0.44413 0.02567 0.5801 0.0
C105 C 0.46963 0.00301 0.55539 0.0
C106 C 0.39747 0.03964 0.52062 0.0
C107 C 0.3804 0.014 0.50637 0.0
C108 C 0.42637 0.03585 0.53079 0.0
C109 C 0.43791 0.00557 0.52717 0.0
C110 C 0.39264 0.98438 0.50253 0.0
C111 C 0.42114 0.98024 0.51283 0.0
C112 C 0.46923 0.00178 0.53762 0.0
H113 H 0.67078 0.04951 0.52131 0.0
H114 H 0.61764 0.05374 0.53824 0.0
H115 H 0.57384 0.93694 0.49742 0.0
H116 H 0.52093 0.9409 0.51462 0.0
H117 H 0.62111 0.95136 0.57262 0.0
H118 H 0.56413 0.94778 0.55549 0.0
H119 H 0.63687 0.06369 0.59672 0.0
H120 H 0.58057 0.06051 0.57927 0.0
H121 H 0.32826 0.948 0.56813 0.0
H122 H 0.38468 0.95148 0.55088 0.0
H123 H 0.41979 0.04265 0.60125 0.0
H124 H 0.47635 0.04743 0.58361 0.0
H125 H 0.38914 0.06324 0.52369 0.0
H126 H 0.44003 0.05696 0.54138 0.0
H127 H 0.37982 0.9641 0.49165 0.0
H128 H 0.42991 0.95702 0.50964 0.0
N129 N 0.50046 0.9992 0.52964 0.0
N130 N 0.50267 0.00433 0.56363 0.0
C131 C 0.3911 0.36464 0.85354 0.0
C132 C 0.3711 0.37679 0.84156 0.0
C133 C 0.42392 0.39467 0.86338 0.0
C134 C 0.43695 0.43744 0.86167 0.0
C135 C 0.38481 0.41972 0.83965 0.0
C136 C 0.4175 0.4497 0.84956 0.0
C137 C 0.47166 0.46975 0.87199 0.0
C138 C 0.36963 0.39028 0.90896 0.0
C139 C 0.38097 0.36667 0.91939 0.0
C140 C 0.39967 0.42265 0.89909 0.0
C141 C 0.4416 0.43209 0.89951 0.0
C142 C 0.42311 0.3763 0.91967 0.0
C143 C 0.45315 0.40897 0.90997 0.0
C144 C 0.47397 0.46693 0.88958 0.0
C145 C 0.60954 0.63992 0.90896 0.0
C146 C 0.62721 0.6299 0.9226 0.0
C147 C 0.58092 0.60843 0.89824 0.0
C148 C 0.57001 0.56641 0.90076 0.0
C149 C 0.61599 0.58781 0.92518 0.0
C150 C 0.58759 0.55639 0.91439 0.0
C151 C 0.53803 0.53237 0.89009 0.0
C152 C 0.64521 0.61152 0.85593 0.0
C153 C 0.63531 0.62791 0.84188 0.0
C154 C 0.61338 0.58113 0.86586 0.0
C155 C 0.57103 0.56754 0.86226 0.0
C156 C 0.59304 0.61367 0.83802 0.0
C157 C 0.56121 0.58382 0.84814 0.0
C158 C 0.53676 0.53442 0.87238 0.0
H159 H 0.38123 0.33187 0.85541 0.0
H160 H 0.43925 0.38441 0.87225 0.0
H161 H 0.3707 0.43025 0.83032 0.0
H162 H 0.42741 0.48256 0.84785 0.0
H163 H 0.33771 0.38437 0.90864 0.0
H164 H 0.39031 0.4407 0.89131 0.0
H165 H 0.43294 0.35841 0.92729 0.0
H166 H 0.48542 0.41589 0.91047 0.0
H167 H 0.61702 0.67198 0.90684 0.0
H168 H 0.56673 0.61687 0.88818 0.0
H169 H 0.62933 0.57918 0.9355 0.0
H170 H 0.57934 0.52417 0.9167 0.0
H171 H 0.67758 0.62145 0.85897 0.0
H172 H 0.62196 0.56783 0.87619 0.0
H173 H 0.58464 0.62588 0.82725 0.0
H174 H 0.52885 0.5735 0.84493 0.0
N175 N 0.50323 0.50331 0.86408 0.0
N176 N 0.50691 0.49835 0.89793 0.0
H177 H 0.92713 0.06524 0.07465 0.0
H178 H 0.9231 0.11644 0.09312 0.0
H179 H 0.05779 0.18272 0.09875 0.0
H180 H 0.06189 0.13128 0.08066 0.0
H181 H 0.02215 0.17391 0.12818 0.0
H182 H 0.00703 0.21987 0.07361 0.0
H183 H 0.97589 0.21264 0.04549 0.0
H184 H 0.85729 0.17984 0.06773 0.0
H185 H 0.8876 0.18633 0.09599 0.0
H186 H 0.05609 0.36846 0.16035 0.0
H187 H 0.05435 0.31384 0.14233 0.0
H188 H 0.91923 0.24578 0.14419 0.0
H189 H 0.92058 0.29959 0.16268 0.0
H190 H 0.95151 0.25329 0.11163 0.0
H191 H 0.96935 0.21083 0.1665 0.0
H192 H 0.00265 0.22058 0.1943 0.0
H193 H 0.11896 0.24946 0.17091 0.0
H194 H 0.08651 0.24051 0.14295 0.0
C195 C 0.95584 0.09085 0.07978 0.0
C196 C 0.99481 0.0943 0.07622 0.0
C197 C 0.95353 0.12015 0.09028 0.0
C198 C 0.99019 0.15362 0.09722 0.0
C199 C 0.02909 0.15712 0.09359 0.0
C200 C 0.03139 0.12777 0.0832 0.0
C201 C 0.98823 0.18466 0.10855 0.0
C202 C 0.00711 0.19158 0.12446 0.0
C203 C 0.96777 0.20706 0.10388 0.0
C204 C 0.94946 0.20313 0.08691 0.0
C205 C 0.97421 0.21076 0.0725 0.0
C206 C 0.95673 0.20687 0.05654 0.0
C207 C 0.91461 0.19566 0.05482 0.0
C208 C 0.8899 0.18844 0.06907 0.0
C209 C 0.90722 0.19225 0.08507 0.0
C210 C 0.02598 0.34162 0.15716 0.0
C211 C 0.98847 0.33841 0.16305 0.0
C212 C 0.02506 0.31056 0.14677 0.0
C213 C 0.98667 0.27573 0.14202 0.0
C214 C 0.94916 0.27253 0.14769 0.0
C215 C 0.95004 0.30342 0.1582 0.0
C216 C 0.98581 0.24271 0.1311 0.0
C217 C 0.96637 0.23541 0.11531 0.0
C218 C 0.00605 0.2202 0.13582 0.0
C219 C 0.02559 0.22537 0.15262 0.0
C220 C 0.00212 0.2196 0.16728 0.0
C221 C 0.02083 0.22492 0.18307 0.0
C222 C 0.06292 0.23573 0.18437 0.0
C223 C 0.08637 0.24114 0.16988 0.0
C224 C 0.06783 0.2359 0.15406 0.0
H225 H 0.07734 0.23983 0.19661 0.0
H226 H 0.90113 0.19267 0.04246 0.0
H227 H 0.87951 0.92844 0.41472 0.0
H228 H 0.825 0.92309 0.43388 0.0
H229 H 0.86752 0.05448 0.42668 0.0
H230 H 0.92212 0.06012 0.40776 0.0
H231 H 0.85665 0.03407 0.45943 0.0
H232 H 0.77801 0.97826 0.40789 0.0
H233 H 0.75129 0.92993 0.38366 0.0
H234 H 0.69113 0.82481 0.41696 0.0
H235 H 0.71797 0.87251 0.4414 0.0
H236 H 0.69112 0.05694 0.4913 0.0
H237 H 0.74331 0.05365 0.47349 0.0
H238 H 0.68636 0.92092 0.48294 0.0
H239 H 0.63369 0.92398 0.50069 0.0
H240 H 0.70451 0.93667 0.45059 0.0
H241 H 0.77884 0.99131 0.50206 0.0
H242 H 0.80531 0.03854 0.52661 0.0
H243 H 0.87397 0.14408 0.49417 0.0
H244 H 0.84744 0.09755 0.4694 0.0
C245 C 0.877 0.95607 0.41716 0.0
C246 C 0.90504 0.99469 0.40976 0.0
C247 C 0.84583 0.95297 0.42807 0.0
C248 C 0.84211 0.98837 0.43165 0.0
C249 C 0.86991 0.02681 0.42414 0.0
C250 C 0.901 0.02993 0.41328 0.0
C251 C 0.80996 0.98599 0.44348 0.0
C252 C 0.82335 0.01307 0.45741 0.0
C253 C 0.76663 0.95756 0.44115 0.0
C254 C 0.75038 0.92891 0.42646 0.0
C255 C 0.75937 0.94481 0.41004 0.0
C256 C 0.74415 0.91754 0.39627 0.0
C257 C 0.71963 0.87432 0.39877 0.0
C258 C 0.71018 0.85829 0.41504 0.0
C259 C 0.72537 0.88543 0.42886 0.0
C260 C 0.68997 0.02714 0.48972 0.0
C261 C 0.65847 0.99077 0.49746 0.0
C262 C 0.7198 0.02527 0.47954 0.0
C263 C 0.71912 0.98713 0.47707 0.0
C264 C 0.6875 0.95068 0.48468 0.0
C265 C 0.65744 0.95247 0.49479 0.0
C266 C 0.75116 0.98541 0.46636 0.0
C267 C 0.73781 0.95748 0.45269 0.0
C268 C 0.7946 0.01288 0.46898 0.0
C269 C 0.81088 0.04096 0.48386 0.0
C270 C 0.79936 0.02462 0.50015 0.0
C271 C 0.8144 0.05127 0.51411 0.0
C272 C 0.84124 0.09429 0.51195 0.0
C273 C 0.85316 0.11075 0.49583 0.0
C274 C 0.83817 0.08424 0.48182 0.0
H275 H 0.85285 0.11487 0.52278 0.0
H276 H 0.70787 0.85326 0.38809 0.0
H277 H 0.8998 0.85561 0.72831 0.0
H278 H 0.8476 0.80186 0.74679 0.0
H279 H 0.88671 0.89213 0.78715 0.0
H280 H 0.93845 0.94632 0.76865 0.0
H281 H 0.87429 0.80823 0.79568 0.0
H282 H 0.80546 0.87588 0.76882 0.0
H283 H 0.78346 0.90101 0.74429 0.0
H284 H 0.71511 0.77538 0.72479 0.0
H285 H 0.73727 0.7496 0.7491 0.0
H286 H 0.70462 0.70062 0.8516 0.0
H287 H 0.76014 0.7526 0.83373 0.0
H288 H 0.69807 0.67674 0.79007 0.0
H289 H 0.64169 0.62565 0.8079 0.0
H290 H 0.72365 0.7532 0.78281 0.0
H291 H 0.78905 0.6833 0.80856 0.0
H292 H 0.81213 0.65529 0.83176 0.0
H293 H 0.88774 0.77958 0.8518 0.0
H294 H 0.86466 0.8083 0.82882 0.0
C295 C 0.89751 0.8639 0.74117 0.0
C296 C 0.92301 0.90512 0.74706 0.0
C297 C 0.86769 0.83323 0.75167 0.0
C298 C 0.86333 0.84321 0.76827 0.0
C299 C 0.88974 0.88394 0.77437 0.0
C300 C 0.9191 0.91481 0.76378 0.0
C301 C 0.82995 0.81158 0.77904 0.0
C302 C 0.84131 0.79643 0.79304 0.0
C303 C 0.78708 0.79549 0.77521 0.0
C304 C 0.77339 0.8109 0.76068 0.0
C305 C 0.78605 0.85367 0.75923 0.0
C306 C 0.77349 0.86803 0.74538 0.0
C307 C 0.748 0.83983 0.73296 0.0
C308 C 0.73491 0.7972 0.73441 0.0
C309 C 0.74743 0.7827 0.74822 0.0
C310 C 0.70301 0.69512 0.83819 0.0
C311 C 0.66902 0.65921 0.83109 0.0
C312 C 0.73481 0.72467 0.82798 0.0
C313 C 0.73377 0.7183 0.81054 0.0
C314 C 0.69965 0.68241 0.80347 0.0
C315 C 0.66747 0.65324 0.81364 0.0
C316 C 0.7677 0.74943 0.79963 0.0
C317 C 0.75652 0.76466 0.78554 0.0
C318 C 0.81076 0.76503 0.80324 0.0
C319 C 0.8248 0.74789 0.81705 0.0
C320 C 0.81036 0.70463 0.81798 0.0
C321 C 0.82348 0.68863 0.83108 0.0
C322 C 0.8513 0.71562 0.84327 0.0
C323 C 0.86614 0.7587 0.84236 0.0
C324 C 0.85308 0.77486 0.82929 0.0
H325 H 0.86142 0.70317 0.8534 0.0
H326 H 0.73832 0.851 0.72225 0.0
H327 H 0.02256 0.88369 0.05567 0.0
H328 H 0.02174 0.82888 0.07336 0.0
H329 H 0.02068 0.8959 0.11768 0.0
H330 H 0.02153 0.95069 0.10012 0.0
H331 H 0.07408 0.864 0.12084 0.0
H332 H 0.93149 0.81626 0.10389 0.0
H333 H 0.87435 0.79852 0.08355 0.0
H334 H 0.89714 0.70583 0.0609 0.0
H335 H 0.95488 0.72345 0.08098 0.0
H336 H 0.00164 0.7049 0.18216 0.0
H337 H 0.00892 0.76002 0.16306 0.0
H338 H 0.99879 0.68236 0.12063 0.0
H339 H 0.99107 0.62695 0.13969 0.0
H340 H 0.95354 0.71918 0.1154 0.0
H341 H 0.09421 0.76456 0.13342 0.0
H342 H 0.15103 0.7824 0.15394 0.0
H343 H 0.13229 0.87971 0.17454 0.0
H344 H 0.07494 0.86206 0.15429 0.0
C345 C 0.02265 0.88694 0.06919 0.0
C346 C 0.02192 0.92132 0.07653 0.0
C347 C 0.022 0.85557 0.07926 0.0
C348 C 0.0207 0.85817 0.09682 0.0
C349 C 0.02164 0.8933 0.10416 0.0
C350 C 0.02202 0.9245 0.09411 0.0
C351 C 0.01668 0.82359 0.10757 0.0
C352 C 0.04758 0.83239 0.11977 0.0
C353 C 0.98252 0.78222 0.10589 0.0
C354 C 0.94778 0.77149 0.09383 0.0
C355 C 0.92456 0.79235 0.09449 0.0
C356 C 0.89202 0.78227 0.08302 0.0
C357 C 0.88218 0.75113 0.07092 0.0
C358 C 0.90484 0.72998 0.07027 0.0
C359 C 0.93745 0.73997 0.0817 0.0
C360 C 0.00112 0.69966 0.16876 0.0
C361 C 0.99593 0.66167 0.16242 0.0
C362 C 0.00534 0.73119 0.15785 0.0
C363 C 0.00508 0.72559 0.1404 0.0
C364 C 0.99914 0.68739 0.13404 0.0
C365 C 0.99461 0.65572 0.14494 0.0
C366 C 0.01088 0.75955 0.12879 0.0
C367 C 0.98027 0.75066 0.11642 0.0
C368 C 0.04536 0.80086 0.1303 0.0
C369 C 0.08004 0.81174 0.14243 0.0
C370 C 0.10201 0.78957 0.1424 0.0
C371 C 0.13434 0.79968 0.15398 0.0
C372 C 0.1452 0.8321 0.16556 0.0
C373 C 0.12382 0.85457 0.16557 0.0
C374 C 0.09143 0.84456 0.15404 0.0
H375 H 0.17023 0.83988 0.17452 0.0
H376 H 0.85689 0.7433 0.0621 0.0
H377 H 0.07176 0.02193 0.4345 0.0
H378 H 0.12766 0.02534 0.45233 0.0
H379 H 0.20456 0.04613 0.40868 0.0
H380 H 0.14886 0.04303 0.39076 0.0
H381 H 0.19728 0.98146 0.42934 0.0
H382 H 0.23016 0.12491 0.43466 0.0
H383 H 0.21485 0.1817 0.44058 0.0
H384 H 0.18033 0.13736 0.49104 0.0
H385 H 0.19487 0.07992 0.48535 0.0
H386 H 0.38125 0.01938 0.47222 0.0
H387 H 0.3311 0.02597 0.45412 0.0
H388 H 0.26098 0.02451 0.4977 0.0
H389 H 0.31176 0.01896 0.51587 0.0
H390 H 0.26566 0.08097 0.47664 0.0
H391 H 0.22861 0.93686 0.47198 0.0
H392 H 0.24032 0.87738 0.46686 0.0
H393 H 0.27775 0.91892 0.41628 0.0
H394 H 0.26682 0.97901 0.42118 0.0
C395 C 0.10078 0.02773 0.42873 0.0
C396 C 0.10599 0.0322 0.41125 0.0
C397 C 0.13269 0.02977 0.43893 0.0
C398 C 0.17025 0.03612 0.43181 0.0
C399 C 0.17579 0.04125 0.41439 0.0
C400 C 0.14404 0.03963 0.4042 0.0
C401 C 0.20281 0.03519 0.44247 0.0
C402 C 0.2128 0.00363 0.43952 0.0
C403 C 0.22186 0.06326 0.45607 0.0
C404 C 0.21323 0.09787 0.45953 0.0
C405 C 0.21896 0.12705 0.44698 0.0
C406 C 0.21049 0.1594 0.4503 0.0
C407 C 0.19653 0.16308 0.46616 0.0
C408 C 0.19111 0.13446 0.47875 0.0
C409 C 0.1995 0.10202 0.47549 0.0
C410 C 0.35503 0.0203 0.47791 0.0
C411 C 0.3502 0.01839 0.49542 0.0
C412 C 0.32636 0.02403 0.46757 0.0
C413 C 0.29184 0.02505 0.47452 0.0
C414 C 0.28734 0.02377 0.49204 0.0
C415 C 0.31632 0.02058 0.5024 0.0
C416 C 0.26031 0.0272 0.46352 0.0
C417 C 0.25036 0.05888 0.46642 0.0
C418 C 0.24078 0.99882 0.45 0.0
C419 C 0.24731 0.96267 0.447 0.0
C420 C 0.23965 0.93349 0.45981 0.0
C421 C 0.2461 0.89964 0.45694 0.0
C422 C 0.25988 0.89444 0.44127 0.0
C423 C 0.26714 0.92303 0.42842 0.0
C424 C 0.2608 0.95697 0.43123 0.0
H425 H 0.26484 0.86821 0.43908 0.0
H426 H 0.18999 0.18815 0.4687 0.0
H427 H 0.05491 0.13085 0.74551 0.0
H428 H 0.10515 0.18543 0.76456 0.0
H429 H 0.17983 0.12496 0.76536 0.0
H430 H 0.12966 0.07026 0.74658 0.0
H431 H 0.16984 0.14672 0.79642 0.0
H432 H 0.20898 0.21319 0.74224 0.0
H433 H 0.19691 0.23821 0.71526 0.0
H434 H 0.16058 0.31717 0.74141 0.0
H435 H 0.17192 0.29218 0.76856 0.0
H436 H 0.36529 0.30647 0.8271 0.0
H437 H 0.30837 0.25395 0.80976 0.0
H438 H 0.24207 0.32253 0.81418 0.0
H439 H 0.29859 0.37494 0.83184 0.0
H440 H 0.2433 0.29779 0.78176 0.0
H441 H 0.20889 0.23483 0.83601 0.0
H442 H 0.22166 0.21019 0.86295 0.0
H443 H 0.24924 0.12476 0.83676 0.0
H444 H 0.23723 0.14932 0.80964 0.0
C445 C 0.08212 0.12933 0.74972 0.0
C446 C 0.0884 0.09635 0.74455 0.0
C447 C 0.11083 0.16054 0.76056 0.0
C448 C 0.14638 0.15938 0.7663 0.0
C449 C 0.15258 0.12642 0.76113 0.0
C450 C 0.12395 0.09528 0.75034 0.0
C451 C 0.17716 0.1922 0.77779 0.0
C452 C 0.1862 0.17972 0.79314 0.0
C453 C 0.1976 0.23536 0.77373 0.0
C454 C 0.19083 0.25045 0.75742 0.0
C455 C 0.19808 0.23562 0.74223 0.0
C456 C 0.19144 0.24985 0.72691 0.0
C457 C 0.17786 0.27917 0.72662 0.0
C458 C 0.17102 0.29441 0.74165 0.0
C459 C 0.17757 0.28024 0.75701 0.0
C460 C 0.33838 0.31016 0.82459 0.0
C461 C 0.33646 0.34486 0.83095 0.0
C462 C 0.30593 0.28017 0.81463 0.0
C463 C 0.27083 0.28415 0.81082 0.0
C464 C 0.26892 0.31891 0.81696 0.0
C465 C 0.30133 0.34889 0.827 0.0
C466 C 0.23646 0.25219 0.80023 0.0
C467 C 0.2267 0.26483 0.78509 0.0
C468 C 0.21535 0.20915 0.80447 0.0
C469 C 0.2225 0.19419 0.82077 0.0
C470 C 0.21801 0.21103 0.83598 0.0
C471 C 0.22505 0.19704 0.85129 0.0
C472 C 0.23634 0.166 0.85156 0.0
C473 C 0.24053 0.14883 0.83653 0.0
C474 C 0.23356 0.16275 0.82118 0.0
H475 H 0.24175 0.15519 0.86342 0.0
H476 H 0.17275 0.29015 0.71474 0.0
H477 H 0.95239 0.07658 0.67965 0.0
H478 H 0.9018 0.08019 0.66063 0.0
H479 H 0.81847 0.94703 0.66619 0.0
H480 H 0.86906 0.94311 0.68487 0.0
H481 H 0.82527 0.96868 0.6341 0.0
H482 H 0.8007 0.02019 0.68618 0.0
H483 H 0.82083 0.06703 0.71085 0.0
H484 H 0.86215 0.17361 0.67855 0.0
H485 H 0.84275 0.12744 0.65367 0.0
H486 H 0.63476 0.9434 0.60237 0.0
H487 H 0.69043 0.94659 0.62018 0.0
H488 H 0.76502 0.07977 0.61158 0.0
H489 H 0.70925 0.0768 0.59378 0.0
H490 H 0.76662 0.0624 0.64399 0.0
H491 H 0.78815 0.01105 0.59196 0.0
H492 H 0.76799 0.96461 0.56717 0.0
H493 H 0.7332 0.85845 0.59907 0.0
H494 H 0.75261 0.90418 0.62407 0.0
C495 C 0.92318 0.04816 0.67686 0.0
C496 C 0.91465 0.00957 0.68374 0.0
C497 C 0.89427 0.05027 0.66604 0.0
C498 C 0.8562 0.0139 0.66207 0.0
C499 C 0.84766 0.97545 0.66903 0.0
C500 C 0.87656 0.9733 0.67975 0.0
C501 C 0.82538 0.01542 0.65046 0.0
C502 C 0.81211 0.98885 0.63636 0.0
C503 C 0.80917 0.04267 0.65312 0.0
C504 C 0.82069 0.07041 0.66807 0.0
C505 C 0.81438 0.05365 0.68434 0.0
C506 C 0.8256 0.08007 0.69836 0.0
C507 C 0.84287 0.12328 0.69627 0.0
C508 C 0.84884 0.14015 0.68015 0.0
C509 C 0.8377 0.11387 0.66609 0.0
C510 C 0.66319 0.97329 0.60413 0.0
C511 C 0.66769 0.00982 0.59661 0.0
C512 C 0.69498 0.97509 0.61432 0.0
C513 C 0.73214 0.01335 0.61705 0.0
C514 C 0.73662 0.04993 0.60965 0.0
C515 C 0.70472 0.04819 0.59952 0.0
C516 C 0.76602 0.01513 0.62779 0.0
C517 C 0.77994 0.04238 0.64168 0.0
C518 C 0.78294 0.98858 0.62492 0.0
C519 C 0.77153 0.96101 0.6099 0.0
C520 C 0.77593 0.97776 0.5937 0.0
C521 C 0.76468 0.95157 0.5796 0.0
C522 C 0.74924 0.90859 0.58155 0.0
C523 C 0.74513 0.89174 0.59759 0.0
C524 C 0.7563 0.91779 0.61172 0.0
H525 H 0.74053 0.88836 0.57062 0.0
H526 H 0.85154 0.14368 0.70714 0.0
H527 H 0.86346 0.88358 0.04049 0.0
H528 H 0.80664 0.82903 0.02347 0.0
H529 H 0.86984 0.89424 0.97836 0.0
H530 H 0.92661 0.94864 0.99523 0.0
H531 H 0.78417 0.86441 0.97722 0.0
H532 H 0.87932 0.8143 0.99071 0.0
H533 H 0.92026 0.79541 0.00969 0.0
H534 H 0.8069 0.70388 0.03364 0.0
H535 H 0.76528 0.72268 0.01494 0.0
H536 H 0.69268 0.70726 0.91471 0.0
H537 H 0.74097 0.76206 0.934 0.0
H538 H 0.67645 0.6826 0.97613 0.0
H539 H 0.62827 0.62752 0.95687 0.0
H540 H 0.75875 0.71888 0.98042 0.0
H541 H 0.66282 0.76564 0.96555 0.0
H542 H 0.62217 0.78456 0.94642 0.0
H543 H 0.73633 0.8824 0.92519 0.0
H544 H 0.77769 0.86368 0.94404 0.0
C545 C 0.86495 0.88646 0.02695 0.0
C546 C 0.89948 0.9202 0.01916 0.0
C547 C 0.83261 0.85526 0.01726 0.0
C548 C 0.83429 0.8575 0.99966 0.0
C549 C 0.86799 0.89197 0.99191 0.0
C550 C 0.90043 0.92292 0.00157 0.0
C551 C 0.80191 0.82322 0.98922 0.0
C552 C 0.77874 0.83263 0.97781 0.0
C553 C 0.79432 0.78163 0.99031 0.0
C554 C 0.81924 0.77023 0.00155 0.0
C555 C 0.86315 0.79041 0.00012 0.0
C556 C 0.88647 0.77967 0.01081 0.0
C557 C 0.8662 0.74853 0.02288 0.0
C558 C 0.82255 0.72803 0.02429 0.0
C559 C 0.79908 0.73871 0.01364 0.0
C560 C 0.68861 0.70161 0.92809 0.0
C561 C 0.65664 0.66315 0.93428 0.0
C562 C 0.71618 0.73295 0.9391 0.0
C563 C 0.71196 0.72666 0.95653 0.0
C564 C 0.68028 0.68814 0.96274 0.0
C565 C 0.65286 0.65668 0.95172 0.0
C566 C 0.74105 0.76004 0.96825 0.0
C567 C 0.76372 0.7505 0.97991 0.0
C568 C 0.74812 0.80151 0.96741 0.0
C569 C 0.72334 0.81301 0.95612 0.0
C570 C 0.67926 0.79099 0.95672 0.0
C571 C 0.65608 0.80171 0.94594 0.0
C572 C 0.67665 0.8346 0.93457 0.0
C573 C 0.72044 0.85691 0.93399 0.0
C574 C 0.74376 0.84629 0.94474 0.0
H575 H 0.65865 0.84285 0.92624 0.0
H576 H 0.88431 0.74019 0.03111 0.0
H577 H 0.94083 0.9074 0.33465 0.0
H578 H 0.93638 0.8518 0.31633 0.0
H579 H 0.01988 0.83524 0.3495 0.0
H580 H 0.02547 0.89162 0.3675 0.0
H581 H 0.0445 0.83881 0.31892 0.0
H582 H 0.91211 0.76289 0.34663 0.0
H583 H 0.84287 0.74881 0.35654 0.0
H584 H 0.80294 0.74617 0.30565 0.0
H585 H 0.87218 0.76081 0.29543 0.0
H586 H 0.01081 0.64367 0.28735 0.0
H587 H 0.008 0.69583 0.30541 0.0
H588 H 0.95174 0.72936 0.26528 0.0
H589 H 0.95618 0.67863 0.24676 0.0
H590 H 0.91209 0.7169 0.29843 0.0
H591 H 0.0466 0.79251 0.27136 0.0
H592 H 0.11552 0.8038 0.26237 0.0
H593 H 0.15076 0.8038 0.31379 0.0
H594 H 0.08173 0.79184 0.32307 0.0
C595 C 0.95785 0.89155 0.3381 0.0
C596 C 0.98354 0.90385 0.35247 0.0
C597 C 0.95517 0.85966 0.32766 0.0
C598 C 0.97757 0.83906 0.33158 0.0
C599 C 0.00243 0.85073 0.34617 0.0
C600 C 0.00548 0.88287 0.35648 0.0
C601 C 0.97695 0.80685 0.32011 0.0
C602 C 0.01547 0.81189 0.31466 0.0
C603 C 0.93914 0.77215 0.31418 0.0
C604 C 0.89749 0.7634 0.32028 0.0
C605 C 0.88869 0.75967 0.33756 0.0
C606 C 0.84942 0.75151 0.34323 0.0
C607 C 0.81857 0.74672 0.33174 0.0
C608 C 0.82689 0.74996 0.31454 0.0
C609 C 0.86613 0.75815 0.3088 0.0
C610 C 0.99835 0.66244 0.28222 0.0
C611 C 0.98407 0.65704 0.26549 0.0
C612 C 0.99642 0.69197 0.29264 0.0
C613 C 0.97976 0.71641 0.28664 0.0
C614 C 0.96451 0.71057 0.27014 0.0
C615 C 0.96695 0.68141 0.25961 0.0
C616 C 0.9795 0.7489 0.29752 0.0
C617 C 0.94094 0.74392 0.30276 0.0
C618 C 0.01722 0.78342 0.30345 0.0
C619 C 0.05884 0.79085 0.2979 0.0
C620 C 0.06889 0.79453 0.28074 0.0
C621 C 0.10801 0.80113 0.2756 0.0
C622 C 0.13746 0.8044 0.2875 0.0
C623 C 0.12789 0.80119 0.30458 0.0
C624 C 0.08879 0.79454 0.30979 0.0
H625 H 0.16773 0.80952 0.28349 0.0
H626 H 0.78818 0.7404 0.33615 0.0
H627 H 0.10345 0.95687 0.69913 0.0
H628 H 0.15565 0.95524 0.68059 0.0
H629 H 0.11683 0.00676 0.64043 0.0
H630 H 0.06508 0.00927 0.65898 0.0
H631 H 0.12948 0.93553 0.63159 0.0
H632 H 0.19795 0.07156 0.6589 0.0
H633 H 0.21965 0.11855 0.68355 0.0
H634 H 0.28772 0.06107 0.70299 0.0
H635 H 0.26585 0.01327 0.67856 0.0
H636 H 0.30057 0.99882 0.57612 0.0
H637 H 0.24451 0.99467 0.59389 0.0
H638 H 0.3053 0.97935 0.63754 0.0
H639 H 0.36217 0.98511 0.61983 0.0
H640 H 0.27994 0.03065 0.64493 0.0
H641 H 0.21478 0.89577 0.61858 0.0
H642 H 0.19207 0.84516 0.59513 0.0
H643 H 0.11704 0.89455 0.57525 0.0
H644 H 0.13976 0.94587 0.59848 0.0
C645 C 0.10579 0.96749 0.6863 0.0
C646 C 0.08039 0.98336 0.68049 0.0
C647 C 0.13561 0.96659 0.67576 0.0
C648 C 0.14007 0.98103 0.65921 0.0
C649 C 0.11373 0.99545 0.65318 0.0
C650 C 0.08436 0.99701 0.66379 0.0
C651 C 0.17359 0.98289 0.64844 0.0
C652 C 0.16242 0.95659 0.63433 0.0
C653 C 0.2164 0.00957 0.65239 0.0
C654 C 0.22989 0.03855 0.667 0.0
C655 C 0.21723 0.06869 0.6685 0.0
C656 C 0.22962 0.09552 0.68242 0.0
C657 C 0.25495 0.09272 0.69485 0.0
C658 C 0.26805 0.06316 0.69337 0.0
C659 C 0.25569 0.03622 0.67948 0.0
C660 C 0.30177 0.99439 0.58951 0.0
C661 C 0.33556 0.99222 0.59664 0.0
C662 C 0.26966 0.99183 0.59965 0.0
C663 C 0.27024 0.98598 0.61705 0.0
C664 C 0.30411 0.98387 0.62416 0.0
C665 C 0.33656 0.98715 0.61406 0.0
C666 C 0.23613 0.98312 0.62792 0.0
C667 C 0.24711 0.00934 0.6421 0.0
C668 C 0.19313 0.95582 0.62416 0.0
C669 C 0.1793 0.92493 0.61019 0.0
C670 C 0.19368 0.89605 0.60914 0.0
C671 C 0.18077 0.8672 0.5959 0.0
C672 C 0.15321 0.86671 0.58368 0.0
C673 C 0.13843 0.895 0.58471 0.0
C674 C 0.15128 0.92395 0.59792 0.0
H675 H 0.14325 0.84435 0.57344 0.0
H676 H 0.26451 0.11351 0.70562 0.0
H677 H 0.15069 0.089 0.02977 0.0
H678 H 0.20588 0.1396 0.01123 0.0
H679 H 0.11171 0.13283 0.97699 0.0
H680 H 0.05651 0.08294 0.99555 0.0
H681 H 0.18161 0.13028 0.96139 0.0
H682 H 0.15148 0.2107 0.00143 0.0
H683 H 0.143 0.23162 0.02992 0.0
H684 H 0.27096 0.26882 0.04156 0.0
H685 H 0.27999 0.24747 0.01319 0.0
H686 H 0.29838 0.31096 0.91196 0.0
H687 H 0.24628 0.25618 0.92985 0.0
H688 H 0.33984 0.28835 0.96856 0.0
H689 H 0.39134 0.34514 0.95125 0.0
H690 H 0.27151 0.27586 0.98225 0.0
H691 H 0.30425 0.19883 0.94256 0.0
H692 H 0.31426 0.17709 0.91446 0.0
H693 H 0.18482 0.13224 0.90251 0.0
H694 H 0.17413 0.15414 0.9305 0.0
C695 C 0.14184 0.09807 0.01822 0.0
C696 C 0.09941 0.0823 0.01411 0.0
C697 C 0.1733 0.12693 0.00768 0.0
C698 C 0.16272 0.13993 0.99281 0.0
C699 C 0.12041 0.12307 0.98841 0.0
C700 C 0.08899 0.09477 0.99905 0.0
C701 C 0.19564 0.17267 0.98221 0.0
C702 C 0.20113 0.16223 0.96585 0.0
C703 C 0.22157 0.21397 0.98825 0.0
C704 C 0.21625 0.22703 0.00526 0.0
C705 C 0.17769 0.22296 0.01011 0.0
C706 C 0.1728 0.23497 0.02623 0.0
C707 C 0.20638 0.25142 0.03756 0.0
C708 C 0.24495 0.256 0.03278 0.0
C709 C 0.24997 0.24397 0.01668 0.0
C710 C 0.30783 0.3068 0.92435 0.0
C711 C 0.34923 0.33252 0.9301 0.0
C712 C 0.27809 0.27497 0.93449 0.0
C713 C 0.28928 0.26755 0.95045 0.0
C714 C 0.33048 0.29326 0.95626 0.0
C715 C 0.36007 0.32547 0.94624 0.0
C716 C 0.25783 0.2337 0.96129 0.0
C717 C 0.25241 0.24391 0.97774 0.0
C718 C 0.23232 0.19206 0.95537 0.0
C719 C 0.23849 0.17845 0.93858 0.0
C720 C 0.27798 0.18456 0.93391 0.0
C721 C 0.28376 0.17217 0.91801 0.0
C722 C 0.25022 0.15337 0.9067 0.0
C723 C 0.21078 0.14682 0.91129 0.0
C724 C 0.20482 0.15915 0.92718 0.0
H725 H 0.25477 0.14378 0.8944 0.0
H726 H 0.20254 0.26071 0.05003 0.0
H727 H 0.008 0.06675 0.32459 0.0
H728 H 0.01097 0.12133 0.30618 0.0
H729 H 0.05432 0.20878 0.34763 0.0
H730 H 0.05169 0.15443 0.3661 0.0
H731 H 0.98602 0.20432 0.33076 0.0
H732 H 0.12072 0.22135 0.31753 0.0
H733 H 0.17017 0.1982 0.30878 0.0
H734 H 0.10635 0.15661 0.26141 0.0
H735 H 0.0561 0.17897 0.26997 0.0
H736 H 0.03029 0.38685 0.28593 0.0
H737 H 0.03693 0.3358 0.30323 0.0
H738 H 0.00292 0.25195 0.26076 0.0
H739 H 0.99759 0.30359 0.24318 0.0
H740 H 0.06737 0.25464 0.27803 0.0
H741 H 0.93194 0.23496 0.29094 0.0
H742 H 0.88061 0.25599 0.29932 0.0
H743 H 0.9431 0.29959 0.34684 0.0
H744 H 0.99521 0.27936 0.33865 0.0
C745 C 0.01872 0.09778 0.32972 0.0
C746 C 0.02957 0.10636 0.34677 0.0
C747 C 0.02049 0.12892 0.31918 0.0
C748 C 0.03294 0.16908 0.32555 0.0
C749 C 0.04464 0.17797 0.34249 0.0
C750 C 0.04327 0.14696 0.35299 0.0
C751 C 0.03136 0.20102 0.31477 0.0
C752 C 0.00432 0.21587 0.31937 0.0
C753 C 0.05421 0.21494 0.29965 0.0
C754 C 0.08437 0.20145 0.29446 0.0
C755 C 0.11698 0.20691 0.3053 0.0
C756 C 0.14521 0.19401 0.30036 0.0
C757 C 0.14134 0.17584 0.28456 0.0
C758 C 0.10927 0.17063 0.27365 0.0
C759 C 0.08093 0.18345 0.27854 0.0
C760 C 0.02467 0.35776 0.2802 0.0
C761 C 0.01332 0.34926 0.26317 0.0
C762 C 0.0281 0.32844 0.29015 0.0
C763 C 0.01994 0.28986 0.28334 0.0
C764 C 0.00923 0.28148 0.26628 0.0
C765 C 0.00581 0.31084 0.2563 0.0
C766 C 0.02219 0.25816 0.29408 0.0
C767 C 0.04919 0.24322 0.28945 0.0
C768 C 0.99902 0.24383 0.30913 0.0
C769 C 0.96774 0.25604 0.31411 0.0
C770 C 0.93496 0.24936 0.30312 0.0
C771 C 0.90568 0.26108 0.30785 0.0
C772 C 0.90866 0.27922 0.32359 0.0
C773 C 0.94088 0.28559 0.33465 0.0
C774 C 0.97027 0.27398 0.32997 0.0
H775 H 0.88595 0.28826 0.32722 0.0
H776 H 0.16324 0.16589 0.28076 0.0
loop_
_geom_bond_atom_site_label_1
_geom_bond_atom_site_label_2
_geom_bond_distance
_geom_bond_site_symmetry_2
_ccdc_geom_bond_type
In0 O1 2.294 1_455 S
In0 O2 2.326 . S
In0 O6 2.266 1_445 S
In0 O7 2.326 1_445 S
In0 O8 2.266 1_545 S
In0 O9 2.326 1_445 S
In0 O11 2.294 . S
In0 O12 2.326 . S
O1 In0 2.294 1_655 S
O1 C10 1.240 1_655 S
O2 In0 2.326 . S
O2 C10 1.252 . S
C3 O6 1.252 . S
C3 O7 1.260 . S
C4 O11 1.240 . S
C4 O12 1.252 . S
C5 O8 1.248 1_655 S
C5 O9 1.267 . S
O6 In0 2.266 1_665 S
O6 C3 1.252 . S
O7 In0 2.326 1_665 S
O7 C3 1.260 . S
O8 In0 2.266 1_565 S
O8 C5 1.248 1_455 S
O9 In0 2.326 1_665 S
O9 C5 1.267 . S
C10 O1 1.240 1_455 S
C10 O2 1.252 . S
O11 In0 2.294 . S
O11 C4 1.240 . S
O12 In0 2.326 . S
O12 C4 1.252 . S
In13 O14 2.291 . S
In13 O15 2.305 1_455 S
In13 O19 2.291 . S
In13 O20 2.343 1_545 S
In13 O21 2.269 1_445 S
In13 O22 2.347 1_545 S
In13 O24 2.269 1_445 S
In13 O25 2.308 1_455 S
O14 In13 2.291 . S
O14 C23 1.240 1_455 S
O15 In13 2.305 1_655 S
O15 C23 1.252 . S
C16 O19 1.246 1_565 S
C16 O20 1.263 . S
C17 O24 1.240 1_545 S
C17 O25 1.252 . S
C18 O21 1.252 1_455 S
C18 O22 1.260 . S
O19 In13 2.291 . S
O19 C16 1.246 1_545 S
O20 In13 2.343 1_565 S
O20 C16 1.263 . S
O21 In13 2.269 1_665 S
O21 C18 1.252 1_655 S
O22 In13 2.347 1_565 S
O22 C18 1.260 . S
C23 O14 1.240 1_655 S
C23 O15 1.252 . S
O24 In13 2.269 1_665 S
O24 C17 1.240 1_565 S
O25 In13 2.308 1_655 S
O25 C17 1.252 . S
In26 O27 2.274 1_445 S
In26 O28 2.306 1_445 S
In26 O32 2.276 1_545 S
In26 O33 2.347 . S
In26 O34 2.286 . S
In26 O35 2.345 . S
In26 O37 2.284 1_455 S
In26 O38 2.305 1_445 S
O27 In26 2.274 1_665 S
O27 C36 1.240 . S
O28 In26 2.306 1_665 S
O28 C36 1.252 . S
C29 O32 1.252 1_545 S
C29 O33 1.260 . S
C30 O37 1.240 1_565 S
C30 O38 1.252 . S
C31 O34 1.252 . S
C31 O35 1.260 . S
O32 In26 2.276 1_565 S
O32 C29 1.252 1_565 S
O33 In26 2.347 . S
O33 C29 1.260 . S
O34 In26 2.286 . S
O34 C31 1.252 . S
O35 In26 2.345 . S
O35 C31 1.260 . S
C36 O27 1.240 . S
C36 O28 1.252 . S
O37 In26 2.284 1_655 S
O37 C30 1.240 1_545 S
O38 In26 2.305 1_665 S
O38 C30 1.252 . S
C39 C40 1.384 1_655 S
C39 C41 1.384 . S
C39 H67 0.931 . S
C40 C39 1.384 1_455 S
C40 C43 1.382 . S
C41 C39 1.384 . S
C41 C42 1.381 1_655 S
C41 H68 0.930 . S
C42 C41 1.381 1_455 S
C42 C44 1.381 . S
C42 C45 1.487 . S
C43 C40 1.382 . S
C43 C44 1.387 . S
C43 H69 0.930 . S
C44 C42 1.381 . S
C44 C43 1.387 . S
C44 H70 0.931 . S
C45 C42 1.487 . S
C45 C52 1.401 . S
C45 N83 1.343 . S
C46 C47 1.384 . S
C46 C48 1.384 . S
C46 H71 0.931 . S
C47 C46 1.384 . S
C47 C50 1.382 1_455 S
C48 C46 1.384 . S
C48 C49 1.385 . S
C48 H72 0.930 . S
C49 C48 1.385 . S
C49 C51 1.379 1_455 S
C49 C52 1.494 . S
C50 C47 1.382 1_655 S
C50 C51 1.387 . S
C50 H73 0.930 . S
C51 C49 1.379 1_655 S
C51 C50 1.387 . S
C51 H74 0.931 . S
C52 C45 1.401 . S
C52 C49 1.494 . S
C52 N84 1.332 1_455 S
C53 C54 1.384 . S
C53 C55 1.384 . S
C53 H75 0.931 . S
C54 C53 1.384 . S
C54 C57 1.382 1_455 S
C55 C53 1.384 . S
C55 C56 1.382 . S
C55 H76 0.930 . S
C56 C55 1.382 . S
C56 C58 1.379 1_455 S
C56 C59 1.480 . S
C57 C54 1.382 1_655 S
C57 C58 1.387 . S
C57 H77 0.930 . S
C58 C56 1.379 1_655 S
C58 C57 1.387 . S
C58 H78 0.931 . S
C59 C56 1.480 . S
C59 C66 1.401 . S
C59 N84 1.352 1_455 S
C60 C61 1.384 1_655 S
C60 C62 1.384 . S
C60 H79 0.931 . S
C61 C60 1.384 1_455 S
C61 C64 1.382 . S
C62 C60 1.384 . S
C62 C63 1.381 1_655 S
C62 H80 0.930 . S
C63 C62 1.381 1_455 S
C63 C65 1.381 . S
C63 C66 1.487 . S
C64 C61 1.382 . S
C64 C65 1.387 . S
C64 H81 0.930 . S
C65 C63 1.381 . S
C65 C64 1.387 . S
C65 H82 0.931 . S
C66 C59 1.401 . S
C66 C63 1.487 . S
C66 N83 1.343 . S
H67 C39 0.931 . S
H68 C41 0.930 . S
H69 C43 0.930 . S
H70 C44 0.931 . S
H71 C46 0.931 . S
H72 C48 0.930 . S
H73 C50 0.930 . S
H74 C51 0.931 . S
H75 C53 0.931 . S
H76 C55 0.930 . S
H77 C57 0.930 . S
H78 C58 0.931 . S
H79 C60 0.931 . S
H80 C62 0.930 . S
H81 C64 0.930 . S
H82 C65 0.931 . S
N83 C45 1.343 . S
N83 C66 1.343 . S
N84 C52 1.332 1_655 S
N84 C59 1.352 1_655 S
C85 C86 1.384 . S
C85 C87 1.384 . S
C85 H113 0.931 . S
C86 C85 1.384 . S
C86 C89 1.382 1_545 S
C87 C85 1.384 . S
C87 C88 1.381 . S
C87 H114 0.930 . S
C88 C87 1.381 . S
C88 C90 1.381 1_545 S
C88 C91 1.480 . S
C89 C86 1.382 1_565 S
C89 C90 1.387 . S
C89 H115 0.930 . S
C90 C88 1.381 1_565 S
C90 C89 1.387 . S
C90 H116 0.931 . S
C91 C88 1.480 . S
C91 C98 1.400 . S
C91 N129 1.350 1_545 S
C92 C93 1.384 1_565 S
C92 C94 1.384 . S
C92 H117 0.931 . S
C93 C92 1.384 1_545 S
C93 C96 1.382 . S
C94 C92 1.384 . S
C94 C95 1.381 1_565 S
C94 H118 0.930 . S
C95 C94 1.381 1_545 S
C95 C97 1.381 . S
C95 C98 1.487 . S
C96 C93 1.382 . S
C96 C97 1.387 . S
C96 H119 0.930 . S
C97 C95 1.381 . S
C97 C96 1.387 . S
C97 H120 0.931 . S
C98 C91 1.400 . S
C98 C95 1.487 . S
C98 N130 1.343 . S
C99 C100 1.384 1_565 S
C99 C101 1.384 . S
C99 H121 0.931 . S
C100 C99 1.384 1_545 S
C100 C103 1.382 . S
C101 C99 1.384 . S
C101 C102 1.381 1_565 S
C101 H122 0.930 . S
C102 C101 1.381 1_545 S
C102 C104 1.381 . S
C102 C105 1.487 . S
C103 C100 1.382 . S
C103 C104 1.387 . S
C103 H123 0.930 . S
C104 C102 1.381 . S
C104 C103 1.387 . S
C104 H124 0.931 . S
C105 C102 1.487 . S
C105 C112 1.400 . S
C105 N130 1.343 . S
C106 C107 1.384 . S
C106 C108 1.384 . S
C106 H125 0.931 . S
C107 C106 1.384 . S
C107 C110 1.382 1_545 S
C108 C106 1.384 . S
C108 C109 1.381 . S
C108 H126 0.930 . S
C109 C108 1.381 . S
C109 C111 1.381 1_545 S
C109 C112 1.494 . S
C110 C107 1.382 1_565 S
C110 C111 1.387 . S
C110 H127 0.930 . S
C111 C109 1.381 1_565 S
C111 C110 1.387 . S
C111 H128 0.931 . S
C112 C105 1.400 . S
C112 C109 1.494 . S
C112 N129 1.334 1_545 S
H113 C85 0.931 . S
H114 C87 0.930 . S
H115 C89 0.930 . S
H116 C90 0.931 . S
H117 C92 0.931 . S
H118 C94 0.930 . S
H119 C96 0.930 . S
H120 C97 0.931 . S
H121 C99 0.931 . S
H122 C101 0.930 . S
H123 C103 0.930 . S
H124 C104 0.931 . S
H125 C106 0.931 . S
H126 C108 0.930 . S
H127 C110 0.930 . S
H128 C111 0.931 . S
N129 C91 1.350 1_565 S
N129 C112 1.334 1_565 S
N130 C98 1.343 . S
N130 C105 1.343 . S
C131 C132 1.384 . S
C131 C133 1.384 . S
C131 H159 0.931 . S
C132 C131 1.384 . S
C132 C135 1.382 . S
C133 C131 1.384 . S
C133 C134 1.381 . S
C133 H160 0.930 . S
C134 C133 1.381 . S
C134 C136 1.381 . S
C134 C137 1.487 . S
C135 C132 1.382 . S
C135 C136 1.387 . S
C135 H161 0.930 . S
C136 C134 1.381 . S
C136 C135 1.387 . S
C136 H162 0.931 . S
C137 C134 1.487 . S
C137 C144 1.399 . S
C137 N175 1.343 . S
C138 C139 1.384 . S
C138 C140 1.384 . S
C138 H163 0.931 . S
C139 C138 1.384 . S
C139 C142 1.382 . S
C140 C138 1.384 . S
C140 C141 1.381 . S
C140 H164 0.930 . S
C141 C140 1.381 . S
C141 C143 1.381 . S
C141 C144 1.487 . S
C142 C139 1.382 . S
C142 C143 1.387 . S
C142 H165 0.930 . S
C143 C141 1.381 . S
C143 C142 1.387 . S
C143 H166 0.931 . S
C144 C137 1.399 . S
C144 C141 1.487 . S
C144 N176 1.343 . S
C145 C146 1.384 . S
C145 C147 1.384 . S
C145 H167 0.931 . S
C146 C145 1.384 . S
C146 C149 1.382 . S
C147 C145 1.384 . S
C147 C148 1.381 . S
C147 H168 0.930 . S
C148 C147 1.381 . S
C148 C150 1.381 . S
C148 C151 1.487 . S
C149 C146 1.382 . S
C149 C150 1.387 . S
C149 H169 0.930 . S
C150 C148 1.381 . S
C150 C149 1.387 . S
C150 H170 0.931 . S
C151 C148 1.487 . S
C151 C158 1.399 . S
C151 N176 1.343 . S
C152 C153 1.384 . S
C152 C154 1.384 . S
C152 H171 0.931 . S
C153 C152 1.384 . S
C153 C156 1.382 . S
C154 C152 1.384 . S
C154 C155 1.381 . S
C154 H172 0.930 . S
C155 C154 1.381 . S
C155 C157 1.381 . S
C155 C158 1.487 . S
C156 C153 1.382 . S
C156 C157 1.387 . S
C156 H173 0.930 . S
C157 C155 1.381 . S
C157 C156 1.387 . S
C157 H174 0.931 . S
C158 C151 1.399 . S
C158 C155 1.487 . S
C158 N175 1.343 . S
H159 C131 0.931 . S
H160 C133 0.930 . S
H161 C135 0.930 . S
H162 C136 0.931 . S
H163 C138 0.931 . S
H164 C140 0.930 . S
H165 C142 0.930 . S
H166 C143 0.931 . S
H167 C145 0.931 . S
H168 C147 0.930 . S
H169 C149 0.930 . S
H170 C150 0.931 . S
H171 C152 0.931 . S
H172 C154 0.930 . S
H173 C156 0.930 . S
H174 C157 0.931 . S
N175 C137 1.343 . S
N175 C158 1.343 . S
N176 C144 1.343 . S
N176 C151 1.343 . S
H177 C195 0.951 . S
H178 C197 0.951 . S
H179 C199 0.950 . S
H180 C200 0.950 . S
H181 C202 0.950 . S
H182 C205 0.950 1_455 S
H183 C206 0.950 . S
H184 C208 0.950 . S
H185 C209 0.950 . S
H186 C210 0.951 . S
H187 C212 0.951 . S
H188 C214 0.950 . S
H189 C215 0.950 . S
H190 C217 0.950 . S
H191 C220 0.950 1_655 S
H192 C221 0.950 . S
H193 C223 0.950 . S
H194 C224 0.950 . S
C195 H177 0.951 . S
C195 C196 1.366 1_655 S
C195 C197 1.388 . S
C196 C195 1.366 1_455 S
C196 C200 1.385 . S
C197 H178 0.951 . S
C197 C195 1.388 . S
C197 C198 1.366 1_655 S
C198 C197 1.366 1_455 S
C198 C199 1.414 . S
C198 C201 1.499 . S
C199 H179 0.950 . S
C199 C198 1.414 . S
C199 C200 1.374 . S
C200 H180 0.950 . S
C200 C196 1.385 . S
C200 C199 1.374 . S
C201 C198 1.499 . S
C201 C202 1.373 . S
C201 C203 1.389 1_455 S
C202 H181 0.950 . S
C202 C201 1.373 . S
C202 C218 1.377 . S
C203 C201 1.389 1_655 S
C203 C204 1.524 . S
C203 C217 1.377 . S
C204 C203 1.524 . S
C204 C205 1.397 . S
C204 C209 1.363 . S
C205 H182 0.950 1_655 S
C205 C204 1.397 . S
C205 C206 1.334 . S
C206 H183 0.950 . S
C206 C205 1.334 . S
C206 C207 1.287 . S
C207 C206 1.287 . S
C207 C208 1.524 . S
C207 H226 0.913 . S
C208 H184 0.950 . S
C208 C207 1.524 . S
C208 C209 1.415 . S
C209 H185 0.950 . S
C209 C204 1.363 . S
C209 C208 1.415 . S
C210 H186 0.951 . S
C210 C211 1.366 . S
C210 C212 1.388 . S
C211 C210 1.366 . S
C211 C215 1.385 1_455 S
C212 H187 0.951 . S
C212 C210 1.388 . S
C212 C213 1.366 . S
C213 C212 1.366 . S
C213 C214 1.414 1_455 S
C213 C216 1.499 . S
C214 H188 0.950 . S
C214 C213 1.414 1_655 S
C214 C215 1.374 . S
C215 H189 0.950 . S
C215 C211 1.385 1_655 S
C215 C214 1.374 . S
C216 C213 1.499 . S
C216 C217 1.373 1_455 S
C216 C218 1.389 . S
C217 H190 0.950 . S
C217 C203 1.377 . S
C217 C216 1.373 1_655 S
C218 C202 1.377 . S
C218 C216 1.389 . S
C218 C219 1.524 . S
C219 C218 1.524 . S
C219 C220 1.397 . S
C219 C224 1.363 . S
C220 H191 0.950 1_455 S
C220 C219 1.397 . S
C220 C221 1.334 . S
C221 H192 0.950 . S
C221 C220 1.334 . S
C221 C222 1.287 . S
C222 C221 1.287 . S
C222 C223 1.524 . S
C222 H225 0.999 . S
C223 H193 0.950 . S
C223 C222 1.524 . S
C223 C224 1.415 . S
C224 H194 0.950 . S
C224 C219 1.363 . S
C224 C223 1.415 . S
H225 C222 0.999 . S
H226 C207 0.913 . S
H227 C245 0.951 . S
H228 C247 0.951 . S
H229 C249 0.950 . S
H230 C250 0.950 . S
H231 C252 0.950 . S
H232 C255 0.950 . S
H233 C256 0.950 . S
H234 C258 0.950 . S
H235 C259 0.950 . S
H236 C260 0.951 . S
H237 C262 0.951 . S
H238 C264 0.950 . S
H239 C265 0.950 . S
H240 C267 0.950 . S
H241 C270 0.950 . S
H242 C271 0.950 . S
H243 C273 0.950 . S
H244 C274 0.950 . S
C245 H227 0.951 . S
C245 C246 1.366 1_565 S
C245 C247 1.388 . S
C246 C245 1.366 1_545 S
C246 C250 1.385 . S
C247 H228 0.951 . S
C247 C245 1.388 . S
C247 C248 1.366 1_565 S
C248 C247 1.366 1_545 S
C248 C249 1.414 . S
C248 C251 1.499 . S
C249 H229 0.950 . S
C249 C248 1.414 . S
C249 C250 1.374 . S
C250 H230 0.950 . S
C250 C246 1.385 . S
C250 C249 1.374 . S
C251 C248 1.499 . S
C251 C252 1.373 . S
C251 C253 1.389 1_545 S
C252 H231 0.950 . S
C252 C251 1.373 . S
C252 C268 1.377 . S
C253 C251 1.389 1_565 S
C253 C254 1.524 . S
C253 C267 1.377 . S
C254 C253 1.524 . S
C254 C255 1.397 . S
C254 C259 1.363 . S
C255 H232 0.950 . S
C255 C254 1.397 . S
C255 C256 1.334 . S
C256 H233 0.950 . S
C256 C255 1.334 . S
C256 C257 1.287 . S
C257 C256 1.287 . S
C257 C258 1.524 . S
C257 H276 0.913 . S
C258 H234 0.950 . S
C258 C257 1.524 . S
C258 C259 1.415 . S
C259 H235 0.950 . S
C259 C254 1.363 . S
C259 C258 1.415 . S
C260 H236 0.951 . S
C260 C261 1.366 . S
C260 C262 1.388 . S
C261 C260 1.366 . S
C261 C265 1.385 1_545 S
C262 H237 0.951 . S
C262 C260 1.388 . S
C262 C263 1.366 . S
C263 C262 1.366 . S
C263 C264 1.414 1_545 S
C263 C266 1.499 . S
C264 H238 0.950 . S
C264 C263 1.414 1_565 S
C264 C265 1.374 . S
C265 H239 0.950 . S
C265 C261 1.385 1_565 S
C265 C264 1.374 . S
C266 C263 1.499 . S
C266 C267 1.373 1_545 S
C266 C268 1.389 . S
C267 H240 0.950 . S
C267 C253 1.377 . S
C267 C266 1.373 1_565 S
C268 C252 1.377 . S
C268 C266 1.389 . S
C268 C269 1.524 . S
C269 C268 1.524 . S
C269 C270 1.397 . S
C269 C274 1.363 . S
C270 H241 0.950 . S
C270 C269 1.397 . S
C270 C271 1.334 . S
C271 H242 0.950 . S
C271 C270 1.334 . S
C271 C272 1.287 . S
C272 C271 1.287 . S
C272 C273 1.524 . S
C272 H275 0.999 . S
C273 H243 0.950 . S
C273 C272 1.524 . S
C273 C274 1.415 . S
C274 H244 0.950 . S
C274 C269 1.363 . S
C274 C273 1.415 . S
H275 C272 0.999 . S
H276 C257 0.913 . S
H277 C295 0.951 . S
H278 C297 0.951 . S
H279 C299 0.950 . S
H280 C300 0.950 . S
H281 C302 0.950 . S
H282 C305 0.950 . S
H283 C306 0.950 . S
H284 C308 0.950 . S
H285 C309 0.950 . S
H286 C310 0.951 . S
H287 C312 0.951 . S
H288 C314 0.950 . S
H289 C315 0.950 . S
H290 C317 0.950 . S
H291 C320 0.950 . S
H292 C321 0.950 . S
H293 C323 0.950 . S
H294 C324 0.950 . S
C295 H277 0.951 . S
C295 C296 1.366 . S
C295 C297 1.388 . S
C296 C295 1.366 . S
C296 C300 1.385 . S
C297 H278 0.951 . S
C297 C295 1.388 . S
C297 C298 1.366 . S
C298 C297 1.366 . S
C298 C299 1.414 . S
C298 C301 1.499 . S
C299 H279 0.950 . S
C299 C298 1.414 . S
C299 C300 1.374 . S
C300 H280 0.950 . S
C300 C296 1.385 . S
C300 C299 1.374 . S
C301 C298 1.499 . S
C301 C302 1.373 . S
C301 C303 1.389 . S
C302 H281 0.950 . S
C302 C301 1.373 . S
C302 C318 1.377 . S
C303 C301 1.389 . S
C303 C304 1.524 . S
C303 C317 1.377 . S
C304 C303 1.524 . S
C304 C305 1.397 . S
C304 C309 1.363 . S
C305 H282 0.950 . S
C305 C304 1.397 . S
C305 C306 1.334 . S
C306 H283 0.950 . S
C306 C305 1.334 . S
C306 C307 1.287 . S
C307 C306 1.287 . S
C307 C308 1.524 . S
C307 H326 0.913 . S
C308 H284 0.950 . S
C308 C307 1.524 . S
C308 C309 1.415 . S
C309 H285 0.950 . S
C309 C304 1.363 . S
C309 C308 1.415 . S
C310 H286 0.951 . S
C310 C311 1.366 . S
C310 C312 1.388 . S
C311 C310 1.366 . S
C311 C315 1.385 . S
C312 H287 0.951 . S
C312 C310 1.388 . S
C312 C313 1.366 . S
C313 C312 1.366 . S
C313 C314 1.414 . S
C313 C316 1.499 . S
C314 H288 0.950 . S
C314 C313 1.414 . S
C314 C315 1.374 . S
C315 H289 0.950 . S
C315 C311 1.385 . S
C315 C314 1.374 . S
C316 C313 1.499 . S
C316 C317 1.373 . S
C316 C318 1.389 . S
C317 H290 0.950 . S
C317 C303 1.377 . S
C317 C316 1.373 . S
C318 C302 1.377 . S
C318 C316 1.389 . S
C318 C319 1.524 . S
C319 C318 1.524 . S
C319 C320 1.397 . S
C319 C324 1.363 . S
C320 H291 0.950 . S
C320 C319 1.397 . S
C320 C321 1.334 . S
C321 H292 0.950 . S
C321 C320 1.334 . S
C321 C322 1.287 . S
C322 C321 1.287 . S
C322 C323 1.524 . S
C322 H325 0.999 . S
C323 H293 0.950 . S
C323 C322 1.524 . S
C323 C324 1.415 . S
C324 H294 0.950 . S
C324 C319 1.363 . S
C324 C323 1.415 . S
H325 C322 0.999 . S
H326 C307 0.913 . S
H327 C345 0.951 . S
H328 C347 0.951 . S
H329 C349 0.950 . S
H330 C350 0.950 . S
H331 C352 0.950 . S
H332 C355 0.950 . S
H333 C356 0.950 . S
H334 C358 0.950 . S
H335 C359 0.950 . S
H336 C360 0.951 . S
H337 C362 0.951 . S
H338 C364 0.950 . S
H339 C365 0.950 . S
H340 C367 0.950 . S
H341 C370 0.950 . S
H342 C371 0.950 . S
H343 C373 0.950 . S
H344 C374 0.950 . S
C345 H327 0.951 . S
C345 C346 1.365 . S
C345 C347 1.388 . S
C346 C345 1.365 . S
C346 C350 1.385 1_455 S
C347 H328 0.951 . S
C347 C345 1.388 . S
C347 C348 1.366 1_455 S
C348 C347 1.366 1_655 S
C348 C349 1.414 . S
C348 C351 1.499 . S
C349 H329 0.950 . S
C349 C348 1.414 . S
C349 C350 1.374 . S
C350 H330 0.950 . S
C350 C346 1.385 1_655 S
C350 C349 1.374 . S
C351 C348 1.499 . S
C351 C352 1.373 1_655 S
C351 C353 1.389 . S
C352 H331 0.950 . S
C352 C351 1.373 1_455 S
C352 C368 1.377 . S
C353 C351 1.389 . S
C353 C354 1.524 . S
C353 C367 1.377 . S
C354 C353 1.524 . S
C354 C355 1.397 . S
C354 C359 1.363 . S
C355 H332 0.950 . S
C355 C354 1.397 . S
C355 C356 1.334 . S
C356 H333 0.950 . S
C356 C355 1.334 . S
C356 C357 1.287 . S
C357 C356 1.287 . S
C357 C358 1.524 . S
C357 H376 0.913 . S
C358 H334 0.950 . S
C358 C357 1.524 . S
C358 C359 1.415 . S
C359 H335 0.950 . S
C359 C354 1.363 . S
C359 C358 1.415 . S
C360 H336 0.951 . S
C360 C361 1.366 1_655 S
C360 C362 1.388 . S
C361 C360 1.366 1_455 S
C361 C365 1.385 . S
C362 H337 0.951 . S
C362 C360 1.388 . S
C362 C363 1.366 1_655 S
C363 C362 1.366 1_455 S
C363 C364 1.414 . S
C363 C366 1.499 . S
C364 H338 0.950 . S
C364 C363 1.414 . S
C364 C365 1.374 . S
C365 H339 0.950 . S
C365 C361 1.385 . S
C365 C364 1.374 . S
C366 C363 1.499 . S
C366 C367 1.373 1_455 S
C366 C368 1.389 . S
C367 H340 0.950 . S
C367 C353 1.377 . S
C367 C366 1.373 1_655 S
C368 C352 1.377 . S
C368 C366 1.389 . S
C368 C369 1.524 . S
C369 C368 1.524 . S
C369 C370 1.397 . S
C369 C374 1.363 . S
C370 H341 0.950 . S
C370 C369 1.397 . S
C370 C371 1.334 . S
C371 H342 0.950 . S
C371 C370 1.334 . S
C371 C372 1.287 . S
C372 C371 1.287 . S
C372 C373 1.524 . S
C372 H375 0.999 . S
C373 H343 0.950 . S
C373 C372 1.524 . S
C373 C374 1.415 . S
C374 H344 0.950 . S
C374 C369 1.363 . S
C374 C373 1.415 . S
H375 C372 0.999 . S
H376 C357 0.913 . S
H377 C395 0.951 . S
H378 C397 0.951 . S
H379 C399 0.939 1_565 S
H380 C400 0.949 . S
H381 C402 0.950 . S
H382 C405 0.950 . S
H383 C406 0.950 . S
H384 C408 0.950 . S
H385 C409 0.950 . S
H386 C410 0.951 . S
H387 C412 0.950 1_565 S
H388 C414 0.950 . S
H389 C415 0.950 . S
H390 C417 0.950 . S
H391 C420 0.950 . S
H392 C421 0.950 . S
H393 C423 0.950 . S
H394 C424 0.950 . S
C395 H377 0.951 . S
C395 C396 1.366 1_545 S
C395 C397 1.388 . S
C396 C395 1.366 1_565 S
C396 C400 1.382 . S
C397 H378 0.951 . S
C397 C395 1.388 . S
C397 C398 1.366 . S
C398 C397 1.366 . S
C398 C399 1.416 . S
C398 C401 1.499 . S
C399 H379 0.939 1_545 S
C399 C398 1.416 . S
C399 C400 1.384 1_545 S
C400 H380 0.949 . S
C400 C396 1.382 . S
C400 C399 1.384 1_565 S
C401 C398 1.499 . S
C401 C402 1.373 1_545 S
C401 C403 1.389 . S
C402 H381 0.950 . S
C402 C401 1.373 1_565 S
C402 C418 1.377 . S
C403 C401 1.389 . S
C403 C404 1.524 . S
C403 C417 1.377 . S
C404 C403 1.524 . S
C404 C405 1.397 . S
C404 C409 1.363 . S
C405 H382 0.950 . S
C405 C404 1.397 . S
C405 C406 1.334 . S
C406 H383 0.950 . S
C406 C405 1.334 . S
C406 C407 1.287 . S
C407 C406 1.287 . S
C407 C408 1.524 . S
C407 H426 0.913 . S
C408 H384 0.950 . S
C408 C407 1.524 . S
C408 C409 1.415 . S
C409 H385 0.950 . S
C409 C404 1.363 . S
C409 C408 1.415 . S
C410 H386 0.951 . S
C410 C411 1.366 . S
C410 C412 1.389 . S
C411 C410 1.366 . S
C411 C415 1.385 . S
C412 H387 0.950 1_545 S
C412 C410 1.389 . S
C412 C413 1.367 1_545 S
C413 C412 1.367 1_565 S
C413 C414 1.413 1_565 S
C413 C416 1.506 . S
C414 H388 0.950 . S
C414 C413 1.413 1_545 S
C414 C415 1.374 . S
C415 H389 0.950 . S
C415 C411 1.385 . S
C415 C414 1.374 . S
C416 C413 1.506 . S
C416 C417 1.349 1_565 S
C416 C418 1.402 . S
C417 H390 0.950 . S
C417 C403 1.377 . S
C417 C416 1.349 1_545 S
C418 C402 1.377 . S
C418 C416 1.402 . S
C418 C419 1.524 . S
C419 C418 1.524 . S
C419 C420 1.397 . S
C419 C424 1.363 . S
C420 H391 0.950 . S
C420 C419 1.397 . S
C420 C421 1.334 . S
C421 H392 0.950 . S
C421 C420 1.334 . S
C421 C422 1.287 . S
C422 C421 1.287 . S
C422 C423 1.524 . S
C422 H425 0.999 . S
C423 H393 0.950 . S
C423 C422 1.524 . S
C423 C424 1.415 . S
C424 H394 0.950 . S
C424 C419 1.363 . S
C424 C423 1.415 . S
H425 C422 0.999 . S
H426 C407 0.913 . S
H427 C445 0.951 . S
H428 C447 0.951 . S
H429 C449 0.950 . S
H430 C450 0.950 . S
H431 C452 0.950 . S
H432 C455 0.950 . S
H433 C456 0.950 . S
H434 C458 0.950 . S
H435 C459 0.950 . S
H436 C460 0.951 . S
H437 C462 0.951 . S
H438 C464 0.950 . S
H439 C465 0.950 . S
H440 C467 0.950 . S
H441 C470 0.950 . S
H442 C471 0.950 . S
H443 C473 0.950 . S
H444 C474 0.950 . S
C445 H427 0.951 . S
C445 C446 1.366 . S
C445 C447 1.388 . S
C446 C445 1.366 . S
C446 C450 1.385 . S
C447 H428 0.951 . S
C447 C445 1.388 . S
C447 C448 1.366 . S
C448 C447 1.366 . S
C448 C449 1.414 . S
C448 C451 1.499 . S
C449 H429 0.950 . S
C449 C448 1.414 . S
C449 C450 1.374 . S
C450 H430 0.950 . S
C450 C446 1.385 . S
C450 C449 1.374 . S
C451 C448 1.499 . S
C451 C452 1.373 . S
C451 C453 1.389 . S
C452 H431 0.950 . S
C452 C451 1.373 . S
C452 C468 1.377 . S
C453 C451 1.389 . S
C453 C454 1.524 . S
C453 C467 1.377 . S
C454 C453 1.524 . S
C454 C455 1.397 . S
C454 C459 1.363 . S
C455 H432 0.950 . S
C455 C454 1.397 . S
C455 C456 1.334 . S
C456 H433 0.950 . S
C456 C455 1.334 . S
C456 C457 1.287 . S
C457 C456 1.287 . S
C457 C458 1.524 . S
C457 H476 0.913 . S
C458 H434 0.950 . S
C458 C457 1.524 . S
C458 C459 1.415 . S
C459 H435 0.950 . S
C459 C454 1.363 . S
C459 C458 1.415 . S
C460 H436 0.951 . S
C460 C461 1.366 . S
C460 C462 1.388 . S
C461 C460 1.366 . S
C461 C465 1.385 . S
C462 H437 0.951 . S
C462 C460 1.388 . S
C462 C463 1.366 . S
C463 C462 1.366 . S
C463 C464 1.414 . S
C463 C466 1.499 . S
C464 H438 0.950 . S
C464 C463 1.414 . S
C464 C465 1.374 . S
C465 H439 0.950 . S
C465 C461 1.385 . S
C465 C464 1.374 . S
C466 C463 1.499 . S
C466 C467 1.373 . S
C466 C468 1.389 . S
C467 H440 0.950 . S
C467 C453 1.377 . S
C467 C466 1.373 . S
C468 C452 1.377 . S
C468 C466 1.389 . S
C468 C469 1.524 . S
C469 C468 1.524 . S
C469 C470 1.397 . S
C469 C474 1.363 . S
C470 H441 0.950 . S
C470 C469 1.397 . S
C470 C471 1.334 . S
C471 H442 0.950 . S
C471 C470 1.334 . S
C471 C472 1.287 . S
C472 C471 1.287 . S
C472 C473 1.524 . S
C472 H475 0.999 . S
C473 H443 0.950 . S
C473 C472 1.524 . S
C473 C474 1.415 . S
C474 H444 0.950 . S
C474 C469 1.363 . S
C474 C473 1.415 . S
H475 C472 0.999 . S
H476 C457 0.913 . S
H477 C495 0.951 . S
H478 C497 0.951 . S
H479 C499 0.950 . S
H480 C500 0.950 . S
H481 C502 0.950 . S
H482 C505 0.950 . S
H483 C506 0.950 . S
H484 C508 0.950 . S
H485 C509 0.950 . S
H486 C510 0.951 . S
H487 C512 0.951 . S
H488 C514 0.950 . S
H489 C515 0.950 . S
H490 C517 0.950 . S
H491 C520 0.950 . S
H492 C521 0.950 . S
H493 C523 0.950 . S
H494 C524 0.950 . S
C495 H477 0.951 . S
C495 C496 1.366 1_545 S
C495 C497 1.388 . S
C496 C495 1.366 1_565 S
C496 C500 1.385 . S
C497 H478 0.951 . S
C497 C495 1.388 . S
C497 C498 1.365 1_545 S
C498 C497 1.365 1_565 S
C498 C499 1.417 . S
C498 C501 1.503 . S
C499 H479 0.950 . S
C499 C498 1.417 . S
C499 C500 1.374 . S
C500 H480 0.950 . S
C500 C496 1.385 . S
C500 C499 1.374 . S
C501 C498 1.503 . S
C501 C502 1.382 . S
C501 C503 1.374 1_565 S
C502 H481 0.950 . S
C502 C501 1.382 . S
C502 C518 1.377 . S
C503 C501 1.374 1_545 S
C503 C504 1.524 . S
C503 C517 1.377 . S
C504 C503 1.524 . S
C504 C505 1.397 . S
C504 C509 1.363 . S
C505 H482 0.950 . S
C505 C504 1.397 . S
C505 C506 1.334 . S
C506 H483 0.950 . S
C506 C505 1.334 . S
C506 C507 1.287 . S
C507 C506 1.287 . S
C507 C508 1.524 . S
C507 H526 0.913 . S
C508 H484 0.950 . S
C508 C507 1.524 . S
C508 C509 1.415 . S
C509 H485 0.950 . S
C509 C504 1.363 . S
C509 C508 1.415 . S
C510 H486 0.951 . S
C510 C511 1.366 1_565 S
C510 C512 1.388 . S
C511 C510 1.366 1_545 S
C511 C515 1.385 . S
C512 H487 0.951 . S
C512 C510 1.388 . S
C512 C513 1.370 . S
C513 C512 1.370 . S
C513 C514 1.398 1_565 S
C513 C516 1.503 . S
C514 H488 0.950 . S
C514 C513 1.398 1_545 S
C514 C515 1.374 . S
C515 H489 0.950 . S
C515 C511 1.385 . S
C515 C514 1.374 . S
C516 C513 1.503 . S
C516 C517 1.366 1_565 S
C516 C518 1.402 . S
C517 H490 0.950 . S
C517 C503 1.377 . S
C517 C516 1.366 1_545 S
C518 C502 1.377 . S
C518 C516 1.402 . S
C518 C519 1.524 . S
C519 C518 1.524 . S
C519 C520 1.397 . S
C519 C524 1.363 . S
C520 H491 0.950 . S
C520 C519 1.397 . S
C520 C521 1.334 . S
C521 H492 0.950 . S
C521 C520 1.334 . S
C521 C522 1.287 . S
C522 C521 1.287 . S
C522 C523 1.524 . S
C522 H525 0.999 . S
C523 H493 0.950 . S
C523 C522 1.524 . S
C523 C524 1.415 . S
C524 H494 0.950 . S
C524 C519 1.363 . S
C524 C523 1.415 . S
H525 C522 0.999 . S
H526 C507 0.913 . S
H527 C545 0.951 . S
H528 C547 0.951 . S
H529 C549 0.950 . S
H530 C550 0.973 . S
H531 C552 0.950 . S
H532 C555 0.999 . S
H533 C556 0.950 . S
H534 C558 0.950 . S
H535 C559 0.950 . S
H536 C560 0.951 . S
H537 C562 0.951 . S
H538 C564 0.950 . S
H539 C565 0.950 . S
H540 C567 0.950 . S
H541 C570 0.950 . S
H542 C571 0.950 . S
H543 C573 0.950 . S
H544 C574 0.950 . S
C545 H527 0.951 . S
C545 C546 1.366 . S
C545 C547 1.388 . S
C546 C545 1.366 . S
C546 C550 1.331 1_554 S
C547 H528 0.951 . S
C547 C545 1.388 . S
C547 C548 1.366 1_554 S
C548 C547 1.366 1_556 S
C548 C549 1.414 . S
C548 C551 1.499 . S
C549 H529 0.950 . S
C549 C548 1.414 . S
C549 C550 1.406 . S
C550 H530 0.973 . S
C550 C546 1.331 1_556 S
C550 C549 1.406 . S
C551 C548 1.499 . S
C551 C552 1.373 . S
C551 C553 1.389 . S
C552 H531 0.950 . S
C552 C551 1.373 . S
C552 C568 1.377 . S
C553 C551 1.389 . S
C553 C554 1.516 1_556 S
C553 C567 1.377 . S
C554 C553 1.516 1_554 S
C554 C555 1.393 1_554 S
C554 C559 1.371 . S
C555 H532 0.999 . S
C555 C554 1.393 1_556 S
C555 C556 1.293 1_556 S
C556 H533 0.950 . S
C556 C555 1.293 1_554 S
C556 C557 1.287 . S
C557 C556 1.287 . S
C557 C558 1.524 . S
C557 H576 0.913 . S
C558 H534 0.950 . S
C558 C557 1.524 . S
C558 C559 1.415 . S
C559 H535 0.950 . S
C559 C554 1.371 . S
C559 C558 1.415 . S
C560 H536 0.951 . S
C560 C561 1.366 . S
C560 C562 1.388 . S
C561 C560 1.366 . S
C561 C565 1.385 . S
C562 H537 0.951 . S
C562 C560 1.388 . S
C562 C563 1.366 . S
C563 C562 1.366 . S
C563 C564 1.414 . S
C563 C566 1.499 . S
C564 H538 0.950 . S
C564 C563 1.414 . S
C564 C565 1.374 . S
C565 H539 0.950 . S
C565 C561 1.385 . S
C565 C564 1.374 . S
C566 C563 1.499 . S
C566 C567 1.373 . S
C566 C568 1.389 . S
C567 H540 0.950 . S
C567 C553 1.377 . S
C567 C566 1.373 . S
C568 C552 1.377 . S
C568 C566 1.389 . S
C568 C569 1.524 . S
C569 C568 1.524 . S
C569 C570 1.397 . S
C569 C574 1.363 . S
C570 H541 0.950 . S
C570 C569 1.397 . S
C570 C571 1.334 . S
C571 H542 0.950 . S
C571 C570 1.334 . S
C571 C572 1.287 . S
C572 C571 1.287 . S
C572 C573 1.524 . S
C572 H575 0.999 . S
C573 H543 0.950 . S
C573 C572 1.524 . S
C573 C574 1.415 . S
C574 H544 0.950 . S
C574 C569 1.363 . S
C574 C573 1.415 . S
H575 C572 0.999 . S
H576 C557 0.913 . S
H577 C595 0.951 . S
H578 C597 0.951 . S
H579 C599 0.950 . S
H580 C600 0.950 . S
H581 C602 0.950 . S
H582 C605 0.950 . S
H583 C606 0.950 . S
H584 C608 0.950 . S
H585 C609 0.950 . S
H586 C610 0.951 . S
H587 C612 0.951 . S
H588 C614 0.950 . S
H589 C615 0.950 . S
H590 C617 0.950 . S
H591 C620 0.950 . S
H592 C621 0.950 . S
H593 C623 0.950 . S
H594 C624 0.950 . S
C595 H577 0.951 . S
C595 C596 1.366 1_655 S
C595 C597 1.388 . S
C596 C595 1.366 1_455 S
C596 C600 1.385 . S
C597 H578 0.951 . S
C597 C595 1.388 . S
C597 C598 1.366 1_655 S
C598 C597 1.366 1_455 S
C598 C599 1.414 . S
C598 C601 1.499 . S
C599 H579 0.950 . S
C599 C598 1.414 . S
C599 C600 1.374 . S
C600 H580 0.950 . S
C600 C596 1.385 . S
C600 C599 1.374 . S
C601 C598 1.499 . S
C601 C602 1.373 . S
C601 C603 1.389 1_455 S
C602 H581 0.950 . S
C602 C601 1.373 . S
C602 C618 1.377 . S
C603 C601 1.389 1_655 S
C603 C604 1.524 . S
C603 C617 1.377 . S
C604 C603 1.524 . S
C604 C605 1.397 . S
C604 C609 1.363 . S
C605 H582 0.950 . S
C605 C604 1.397 . S
C605 C606 1.334 . S
C606 H583 0.950 . S
C606 C605 1.334 . S
C606 C607 1.287 . S
C607 C606 1.287 . S
C607 C608 1.524 . S
C607 H626 0.913 . S
C608 H584 0.950 . S
C608 C607 1.524 . S
C608 C609 1.415 . S
C609 H585 0.950 . S
C609 C604 1.363 . S
C609 C608 1.415 . S
C610 H586 0.951 . S
C610 C611 1.366 . S
C610 C612 1.388 . S
C611 C610 1.366 . S
C611 C615 1.385 1_455 S
C612 H587 0.951 . S
C612 C610 1.388 . S
C612 C613 1.366 . S
C613 C612 1.366 . S
C613 C614 1.414 1_455 S
C613 C616 1.499 . S
C614 H588 0.950 . S
C614 C613 1.414 1_655 S
C614 C615 1.374 . S
C615 H589 0.950 . S
C615 C611 1.385 1_655 S
C615 C614 1.374 . S
C616 C613 1.499 . S
C616 C617 1.373 1_455 S
C616 C618 1.389 . S
C617 H590 0.950 . S
C617 C603 1.377 . S
C617 C616 1.373 1_655 S
C618 C602 1.377 . S
C618 C616 1.389 . S
C618 C619 1.524 . S
C619 C618 1.524 . S
C619 C620 1.397 . S
C619 C624 1.363 . S
C620 H591 0.950 . S
C620 C619 1.397 . S
C620 C621 1.334 . S
C621 H592 0.950 . S
C621 C620 1.334 . S
C621 C622 1.287 . S
C622 C621 1.287 . S
C622 C623 1.524 . S
C622 H625 0.999 . S
C623 H593 0.950 . S
C623 C622 1.524 . S
C623 C624 1.415 . S
C624 H594 0.950 . S
C624 C619 1.363 . S
C624 C623 1.415 . S
H625 C622 0.999 . S
H626 C607 0.913 . S
H627 C645 0.953 . S
H628 C647 0.946 1_565 S
H629 C649 0.950 . S
H630 C650 0.950 . S
H631 C652 0.950 . S
H632 C655 0.950 . S
H633 C656 0.950 . S
H634 C658 0.950 . S
H635 C659 0.950 . S
H636 C660 0.951 . S
H637 C662 0.951 . S
H638 C664 0.950 . S
H639 C665 0.950 . S
H640 C667 0.950 . S
H641 C670 0.950 . S
H642 C671 0.950 . S
H643 C673 0.950 . S
H644 C674 0.950 . S
C645 H627 0.953 . S
C645 C646 1.360 1_565 S
C645 C647 1.395 1_565 S
C646 C645 1.360 1_545 S
C646 C650 1.385 . S
C647 H628 0.946 1_545 S
C647 C645 1.395 1_545 S
C647 C648 1.367 . S
C648 C647 1.367 . S
C648 C649 1.414 . S
C648 C651 1.499 . S
C649 H629 0.950 . S
C649 C648 1.414 . S
C649 C650 1.374 . S
C650 H630 0.950 . S
C650 C646 1.385 . S
C650 C649 1.374 . S
C651 C648 1.499 . S
C651 C652 1.373 1_545 S
C651 C653 1.389 . S
C652 H631 0.950 . S
C652 C651 1.373 1_565 S
C652 C668 1.377 . S
C653 C651 1.389 . S
C653 C654 1.524 . S
C653 C667 1.377 . S
C654 C653 1.524 . S
C654 C655 1.397 . S
C654 C659 1.363 . S
C655 H632 0.950 . S
C655 C654 1.397 . S
C655 C656 1.334 . S
C656 H633 0.950 . S
C656 C655 1.334 . S
C656 C657 1.287 . S
C657 C656 1.287 . S
C657 C658 1.524 . S
C657 H676 0.913 . S
C658 H634 0.950 . S
C658 C657 1.524 . S
C658 C659 1.415 . S
C659 H635 0.950 . S
C659 C654 1.363 . S
C659 C658 1.415 . S
C660 H636 0.951 . S
C660 C661 1.366 . S
C660 C662 1.388 . S
C661 C660 1.366 . S
C661 C665 1.385 1_545 S
C662 H637 0.951 . S
C662 C660 1.388 . S
C662 C663 1.368 . S
C663 C662 1.368 . S
C663 C664 1.406 1_545 S
C663 C666 1.499 . S
C664 H638 0.950 . S
C664 C663 1.406 1_565 S
C664 C665 1.374 . S
C665 H639 0.950 . S
C665 C661 1.385 1_565 S
C665 C664 1.374 . S
C666 C663 1.499 . S
C666 C667 1.380 . S
C666 C668 1.389 1_545 S
C667 H640 0.950 . S
C667 C653 1.377 . S
C667 C666 1.380 . S
C668 C652 1.377 . S
C668 C666 1.389 1_565 S
C668 C669 1.524 . S
C669 C668 1.524 . S
C669 C670 1.397 . S
C669 C674 1.363 . S
C670 H641 0.950 . S
C670 C669 1.397 . S
C670 C671 1.334 . S
C671 H642 0.950 . S
C671 C670 1.334 . S
C671 C672 1.287 . S
C672 C671 1.287 . S
C672 C673 1.524 . S
C672 H675 0.999 . S
C673 H643 0.950 . S
C673 C672 1.524 . S
C673 C674 1.415 . S
C674 H644 0.950 . S
C674 C669 1.363 . S
C674 C673 1.415 . S
H675 C672 0.999 . S
H676 C657 0.913 . S
H677 C695 0.951 . S
H678 C697 0.951 . S
H679 C699 0.950 . S
H680 C700 0.975 . S
H681 C702 0.950 . S
H682 C705 0.950 1_556 S
H683 C706 0.950 . S
H684 C708 0.950 . S
H685 C709 0.950 . S
H686 C710 0.951 . S
H687 C712 0.951 . S
H688 C714 0.950 . S
H689 C715 0.950 . S
H690 C717 0.950 . S
H691 C720 0.950 . S
H692 C721 0.950 . S
H693 C723 0.950 . S
H694 C724 0.950 . S
C695 H677 0.951 . S
C695 C696 1.366 . S
C695 C697 1.388 . S
C696 C695 1.366 . S
C696 C700 1.326 1_554 S
C697 H678 0.951 . S
C697 C695 1.388 . S
C697 C698 1.366 1_554 S
C698 C697 1.366 1_556 S
C698 C699 1.414 . S
C698 C701 1.499 . S
C699 H679 0.950 . S
C699 C698 1.414 . S
C699 C700 1.409 . S
C700 H680 0.975 . S
C700 C696 1.326 1_556 S
C700 C699 1.409 . S
C701 C698 1.499 . S
C701 C702 1.373 . S
C701 C703 1.389 . S
C702 H681 0.950 . S
C702 C701 1.373 . S
C702 C718 1.377 . S
C703 C701 1.389 . S
C703 C704 1.524 1_556 S
C703 C717 1.377 . S
C704 C703 1.524 1_554 S
C704 C705 1.397 . S
C704 C709 1.363 . S
C705 H682 0.950 1_554 S
C705 C704 1.397 . S
C705 C706 1.334 . S
C706 H683 0.950 . S
C706 C705 1.334 . S
C706 C707 1.287 . S
C707 C706 1.287 . S
C707 C708 1.524 . S
C707 H726 0.913 . S
C708 H684 0.950 . S
C708 C707 1.524 . S
C708 C709 1.415 . S
C709 H685 0.950 . S
C709 C704 1.363 . S
C709 C708 1.415 . S
C710 H686 0.951 . S
C710 C711 1.366 . S
C710 C712 1.388 . S
C711 C710 1.366 . S
C711 C715 1.385 . S
C712 H687 0.951 . S
C712 C710 1.388 . S
C712 C713 1.366 . S
C713 C712 1.366 . S
C713 C714 1.414 . S
C713 C716 1.499 . S
C714 H688 0.950 . S
C714 C713 1.414 . S
C714 C715 1.374 . S
C715 H689 0.950 . S
C715 C711 1.385 . S
C715 C714 1.374 . S
C716 C713 1.499 . S
C716 C717 1.373 . S
C716 C718 1.389 . S
C717 H690 0.950 . S
C717 C703 1.377 . S
C717 C716 1.373 . S
C718 C702 1.377 . S
C718 C716 1.389 . S
C718 C719 1.524 . S
C719 C718 1.524 . S
C719 C720 1.397 . S
C719 C724 1.363 . S
C720 H691 0.950 . S
C720 C719 1.397 . S
C720 C721 1.334 . S
C721 H692 0.950 . S
C721 C720 1.334 . S
C721 C722 1.287 . S
C722 C721 1.287 . S
C722 C723 1.524 . S
C722 H725 0.999 . S
C723 H693 0.950 . S
C723 C722 1.524 . S
C723 C724 1.415 . S
C724 H694 0.950 . S
C724 C719 1.363 . S
C724 C723 1.415 . S
H725 C722 0.999 . S
H726 C707 0.913 . S
H727 C745 0.951 . S
H728 C747 0.951 . S
H729 C749 0.950 . S
H730 C750 0.950 . S
H731 C752 0.950 . S
H732 C755 0.950 . S
H733 C756 0.950 . S
H734 C758 0.950 . S
H735 C759 0.950 . S
H736 C760 0.951 . S
H737 C762 0.951 . S
H738 C764 0.950 . S
H739 C765 0.950 . S
H740 C767 0.950 . S
H741 C770 0.950 . S
H742 C771 0.950 . S
H743 C773 0.950 . S
H744 C774 0.950 . S
C745 H727 0.951 . S
C745 C746 1.366 1_455 S
C745 C747 1.388 . S
C746 C745 1.366 1_655 S
C746 C750 1.385 . S
C747 H728 0.951 . S
C747 C745 1.388 . S
C747 C748 1.380 . S
C748 C747 1.380 . S
C748 C749 1.407 1_455 S
C748 C751 1.503 . S
C749 H729 0.950 . S
C749 C748 1.407 1_655 S
C749 C750 1.374 . S
C750 H730 0.950 . S
C750 C746 1.385 . S
C750 C749 1.374 . S
C751 C748 1.503 . S
C751 C752 1.343 1_455 S
C751 C753 1.407 . S
C752 H731 0.950 . S
C752 C751 1.343 1_655 S
C752 C768 1.377 . S
C753 C751 1.407 . S
C753 C754 1.524 . S
C753 C767 1.377 . S
C754 C753 1.524 . S
C754 C755 1.397 . S
C754 C759 1.363 . S
C755 H732 0.950 . S
C755 C754 1.397 . S
C755 C756 1.334 . S
C756 H733 0.950 . S
C756 C755 1.334 . S
C756 C757 1.287 . S
C757 C756 1.287 . S
C757 C758 1.524 . S
C757 H776 0.913 . S
C758 H734 0.950 . S
C758 C757 1.524 . S
C758 C759 1.415 . S
C759 H735 0.950 . S
C759 C754 1.363 . S
C759 C758 1.415 . S
C760 H736 0.951 . S
C760 C761 1.366 1_655 S
C760 C762 1.388 . S
C761 C760 1.366 1_455 S
C761 C765 1.385 . S
C762 H737 0.951 . S
C762 C760 1.388 . S
C762 C763 1.366 . S
C763 C762 1.366 . S
C763 C764 1.414 1_655 S
C763 C766 1.499 . S
C764 H738 0.950 . S
C764 C763 1.414 1_455 S
C764 C765 1.374 . S
C765 H739 0.950 . S
C765 C761 1.385 . S
C765 C764 1.374 . S
C766 C763 1.499 . S
C766 C767 1.373 1_655 S
C766 C768 1.389 . S
C767 H740 0.950 . S
C767 C753 1.377 . S
C767 C766 1.373 1_455 S
C768 C752 1.377 . S
C768 C766 1.389 . S
C768 C769 1.524 . S
C769 C768 1.524 . S
C769 C770 1.397 . S
C769 C774 1.363 . S
C770 H741 0.950 . S
C770 C769 1.397 . S
C770 C771 1.334 . S
C771 H742 0.950 . S
C771 C770 1.334 . S
C771 C772 1.287 . S
C772 C771 1.287 . S
C772 C773 1.524 . S
C772 H775 0.999 . S
C773 H743 0.950 . S
C773 C772 1.524 . S
C773 C774 1.415 . S
C774 H744 0.950 . S
C774 C769 1.363 . S
C774 C773 1.415 . S
H775 C772 0.999 . S
H776 C757 0.913 . S
C211 C47 1.525 . S
C196 C10 1.526 . S
C246 C17 1.526 . S
C261 C86 1.525 . S
C296 C36 1.526 . S
C311 C153 1.525 . S
C346 C5 1.525 1_455 S
C361 C54 1.526 . S
C411 C107 1.526 . S
C396 C16 1.531 . S
C446 C31 1.527 . S
C461 C132 1.525 . S
C511 C93 1.525 . S
C496 C30 1.526 . S
C546 C3 1.528 . S
C561 C146 1.526 . S
C611 C61 1.526 . S
C596 C18 1.528 . S
C661 C100 1.526 . S
C646 C29 1.527 . S
C711 C139 1.526 . S
C696 C4 1.526 . S
C746 C23 1.525 . S
C761 C40 1.525 . S
