# Generated by pormake.
# Topology rtl, (3,6)-cn, num edge types: 1
# Building blocks:
#     Node 0, Type 0, BuildingBlock: PAMTOO_clean_linker_0, # of connection points: 3
#     Node 1, Type 0, BuildingBlock: PAMTOO_clean_linker_0, # of connection points: 3
#     Node 2, Type 0, BuildingBlock: PAMTOO_clean_linker_0, # of connection points: 3
#     Node 3, Type 0, BuildingBlock: PAMTOO_clean_linker_0, # of connection points: 3
#     Node 4, Type 1, BuildingBlock: LEVNOQ01_clean_sbu_1, # of connection points: 6
#     Node 5, Type 1, BuildingBlock: LEVNOQ01_clean_sbu_1, # of connection points: 6
#     Edge 6, Type (0, 1), BuildingBlock: ZUJKAS_clean_linker_0, # of connection points: 2
#     Edge 7, Type (0, 1), BuildingBlock: ZUJKAS_clean_linker_0, # of connection points: 2
#     Edge 8, Type (0, 1), BuildingBlock: ZUJKAS_clean_linker_0, # of connection points: 2
#     Edge 9, Type (0, 1), BuildingBlock: ZUJKAS_clean_linker_0, # of connection points: 2
#     Edge 10, Type (0, 1), BuildingBlock: ZUJKAS_clean_linker_0, # of connection points: 2
#     Edge 11, Type (0, 1), BuildingBlock: ZUJKAS_clean_linker_0, # of connection points: 2
#     Edge 12, Type (0, 1), BuildingBlock: ZUJKAS_clean_linker_0, # of connection points: 2
#     Edge 13, Type (0, 1), BuildingBlock: ZUJKAS_clean_linker_0, # of connection points: 2
#     Edge 14, Type (0, 1), BuildingBlock: ZUJKAS_clean_linker_0, # of connection points: 2
#     Edge 15, Type (0, 1), BuildingBlock: ZUJKAS_clean_linker_0, # of connection points: 2
#     Edge 16, Type (0, 1), BuildingBlock: ZUJKAS_clean_linker_0, # of connection points: 2
#     Edge 17, Type (0, 1), BuildingBlock: ZUJKAS_clean_linker_0, # of connection points: 2
# Relax obj value: 0.020
# Max RMSD: 0.118
# Mean RMSD: 0.092
data_MOF--net-rtl--node1-LEVNOQ01_clean_sbu_1--node2-PAMTOO_clean_linker_0--edge1-ZUJKAS_clean_linker_0
_symmetry_space_group_name_H-M    P1
_symmetry_Int_Tables_number       1
_symmetry_cell_setting            triclinic
loop_
_symmetry_equiv_pos_as_xyz
'x, y, z'
_cell_length_a     45.692067
_cell_length_b     45.884478
_cell_length_c     28.882906
_cell_angle_alpha  92.024676
_cell_angle_beta   97.900434
_cell_angle_gamma 90.290023
loop_
_atom_site_label
_atom_site_type_symbol
_atom_site_fract_x
_atom_site_fract_y
_atom_site_fract_z
_atom_type_partial_charge
H0 H 0.13345 0.85198 0.04534 0.0
H1 H 0.19625 0.79992 0.13053 0.0
H2 H 0.18794 0.79031 0.9814 0.0
H3 H 0.19214 0.73417 0.03192 0.0
C4 C 0.20637 0.74205 0.06437 0.0
O5 O 0.21388 0.77096 0.06057 0.0
H6 H 0.19369 0.73982 0.09435 0.0
C7 C 0.15083 0.83592 0.04833 0.0
C8 C 0.15935 0.82284 0.00746 0.0
C9 C 0.1641 0.82822 0.09306 0.0
C10 C 0.18544 0.80618 0.09663 0.0
C11 C 0.19337 0.79218 0.05642 0.0
C12 C 0.18066 0.80069 0.01204 0.0
H13 H 0.67996 0.64211 0.5873 0.0
H14 H 0.72756 0.70872 0.52623 0.0
H15 H 0.74305 0.69755 0.67427 0.0
H16 H 0.74164 0.7565 0.65329 0.0
C17 C 0.74835 0.75609 0.61769 0.0
O18 O 0.75678 0.72824 0.60589 0.0
H19 H 0.72902 0.76253 0.59243 0.0
C20 C 0.69657 0.65929 0.59102 0.0
C21 C 0.71078 0.66779 0.63586 0.0
C22 C 0.70245 0.67377 0.55109 0.0
C23 C 0.72277 0.69718 0.55645 0.0
C24 C 0.73735 0.70561 0.60085 0.0
C25 C 0.73157 0.69076 0.64023 0.0
H26 H 0.89435 0.18655 0.03264 0.0
H27 H 0.83342 0.23619 0.93995 0.0
H28 H 0.83657 0.24838 0.08849 0.0
H29 H 0.77653 0.2427 0.03109 0.0
C30 C 0.78123 0.25513 1.00047 0.0
O31 O 0.81049 0.26387 0.00653 0.0
H32 H 0.7766 0.24038 0.96883 0.0
C33 C 0.87728 0.20287 0.02724 0.0
C34 C 0.86726 0.21673 0.06626 0.0
C35 C 0.86532 0.2096 0.98142 0.0
C36 C 0.84296 0.23055 0.97489 0.0
C37 C 0.83262 0.24438 0.01343 0.0
C38 C 0.84493 0.2377 0.05899 0.0
H39 H 0.33903 0.39611 0.48977 0.0
H40 H 0.28863 0.33077 0.54884 0.0
H41 H 0.2798 0.33853 0.39999 0.0
H42 H 0.22522 0.32611 0.42847 0.0
C43 C 0.23172 0.31519 0.46204 0.0
O44 O 0.26181 0.31027 0.46804 0.0
H45 H 0.22619 0.32973 0.49122 0.0
C46 C 0.32269 0.37866 0.48539 0.0
C47 C 0.31012 0.36937 0.44006 0.0
C48 C 0.31544 0.36474 0.52499 0.0
C49 C 0.29478 0.34161 0.51881 0.0
C50 C 0.2818 0.33242 0.47378 0.0
C51 C 0.28984 0.34597 0.43459 0.0
O52 O 0.03065 0.05305 0.64484 0.0
Mg53 Mg 0.06064 0.03501 0.6018 0.0
O54 O 0.99098 0.04286 0.59354 0.0
Mg55 Mg 0.00803 0.01755 0.53129 0.0
O56 O 0.05028 0.04717 0.53431 0.0
O57 O 0.09128 0.06205 0.58113 0.0
O58 O 0.02678 0.9919 0.47029 0.0
O59 O 0.98784 0.05583 0.48326 0.0
Mg60 Mg 0.9603 0.99888 0.45935 0.0
O61 O 0.96498 0.98798 0.52851 0.0
O62 O 0.98912 0.97851 0.41768 0.0
O63 O 0.94574 0.04057 0.44352 0.0
O64 O 0.92734 0.97324 0.47399 0.0
C65 C 0.05312 0.97306 0.6022 0.0
C66 C 0.00288 0.05399 0.63285 0.0
C67 C 0.07467 0.06247 0.54127 0.0
C68 C 0.01663 0.97908 0.43143 0.0
C69 C 0.96414 0.06089 0.45581 0.0
C70 C 0.94033 0.97336 0.51659 0.0
O71 O 0.07377 0.9917 0.60936 0.0
O72 O 0.028 0.97981 0.58024 0.0
O73 O 0.53378 0.51136 0.1549 0.0
Mg74 Mg 0.52472 0.47919 0.09998 0.0
O75 O 0.53486 0.54428 0.10201 0.0
Mg76 Mg 0.51078 0.51688 0.03791 0.0
O77 O 0.54745 0.47924 0.04348 0.0
O78 O 0.55896 0.45183 0.10631 0.0
O79 O 0.48658 0.48966 0.97399 0.0
O80 O 0.5488 0.53376 0.99462 0.0
Mg81 Mg 0.49814 0.55411 0.97761 0.0
O82 O 0.47401 0.5548 0.03241 0.0
O83 O 0.48926 0.52249 0.92148 0.0
O84 O 0.53687 0.57919 0.9859 0.0
O85 O 0.46483 0.58241 0.96951 0.0
C86 C 0.46658 0.47402 0.09316 0.0
C87 C 0.5394 0.53717 0.14463 0.0
C88 C 0.56388 0.45956 0.06563 0.0
C89 C 0.48273 0.49683 0.93141 0.0
C90 C 0.55582 0.55955 0.98482 0.0
C91 C 0.45873 0.57506 0.00973 0.0
O92 O 0.48583 0.4545 0.09387 0.0
O93 O 0.47316 0.4995 0.08115 0.0
H94 H 0.24695 0.25953 0.43342 0.0
H95 H 0.21748 0.21453 0.4311 0.0
H96 H 0.14691 0.26267 0.48198 0.0
H97 H 0.1764 0.30767 0.48495 0.0
H98 H 0.19415 0.1921 0.51315 0.0
H99 H 0.10628 0.21297 0.36537 0.0
H100 H 0.1417 0.23155 0.37299 0.0
H101 H 0.11405 0.24216 0.40863 0.0
C102 C 0.22526 0.26049 0.44447 0.0
C103 C 0.2143 0.28699 0.46079 0.0
C104 C 0.20837 0.23482 0.44274 0.0
C105 C 0.17994 0.23533 0.45599 0.0
C106 C 0.16865 0.26186 0.47107 0.0
H107 H 0.04866 0.11364 0.51709 0.0
H108 H 0.07374 0.15499 0.48727 0.0
C109 C 0.18562 0.28745 0.47323 0.0
C110 C 0.16289 0.20785 0.45739 0.0
H111 H 0.09898 0.17226 0.41137 0.0
C112 C 0.17352 0.18754 0.49054 0.0
C113 C 0.13584 0.20223 0.4282 0.0
C114 C 0.12377 0.22323 0.39148 0.0
C115 C 0.15741 0.16214 0.49644 0.0
C116 C 0.13032 0.15631 0.4671 0.0
C117 C 0.11984 0.17653 0.43347 0.0
C118 C 0.11197 0.13021 0.47326 0.0
C119 C 0.169 0.14255 0.53565 0.0
C120 C 0.12404 0.10214 0.47196 0.0
C121 C 0.10989 0.07868 0.48949 0.0
C122 C 0.08297 0.08272 0.50694 0.0
C123 C 0.06916 0.10994 0.50299 0.0
C124 C 0.08362 0.1336 0.48632 0.0
H125 H 0.18549 0.15397 0.56209 0.0
H126 H 0.15078 0.1344 0.55365 0.0
H127 H 0.18004 0.12352 0.52108 0.0
H128 H 0.14549 0.09883 0.4608 0.0
H129 H 0.12108 0.05794 0.49277 0.0
H130 H 0.24873 0.73697 0.0067 0.0
H131 H 0.29293 0.70641 0.01549 0.0
H132 H 0.26975 0.67519 0.1449 0.0
H133 H 0.2255 0.70583 0.13626 0.0
H134 H 0.34038 0.70698 0.09699 0.0
H135 H 0.28147 0.60011 0.06105 0.0
H136 H 0.26424 0.634 0.04312 0.0
H137 H 0.26941 0.62527 0.10368 0.0
C138 C 0.2532 0.72367 0.03707 0.0
C139 C 0.23387 0.72382 0.07087 0.0
C140 C 0.27836 0.70626 0.04208 0.0
C141 C 0.28445 0.68843 0.08068 0.0
C142 C 0.26526 0.68859 0.11466 0.0
H143 H 0.43388 0.56396 0.08973 0.0
H144 H 0.39274 0.59042 0.11877 0.0
C145 C 0.24012 0.70616 0.10978 0.0
C146 C 0.31102 0.66983 0.08481 0.0
H147 H 0.33327 0.59984 0.06698 0.0
C148 C 0.33887 0.68349 0.09131 0.0
C149 C 0.30899 0.63917 0.078 0.0
C150 C 0.27948 0.62357 0.07087 0.0
C151 C 0.36467 0.66745 0.08866 0.0
C152 C 0.36248 0.63709 0.07829 0.0
C153 C 0.33485 0.62311 0.07496 0.0
C154 C 0.38755 0.62086 0.06272 0.0
C155 C 0.39402 0.68334 0.09502 0.0
C156 C 0.39775 0.62891 0.02143 0.0
C157 C 0.42082 0.61399 0.00488 0.0
C158 C 0.43435 0.59043 0.02907 0.0
C159 C 0.42403 0.5821 0.07046 0.0
C160 C 0.40058 0.59714 0.08703 0.0
H161 H 0.39339 0.70354 0.11721 0.0
H162 H 0.41205 0.66926 0.11111 0.0
H163 H 0.39925 0.68972 0.06034 0.0
H164 H 0.38761 0.64674 1.00162 0.0
H165 H 0.42798 0.62105 0.97282 0.0
H166 H 0.8066 0.75074 0.65634 0.0
H167 H 0.84658 0.78727 0.66005 0.0
H168 H 0.78602 0.84668 0.58533 0.0
H169 H 0.74627 0.81042 0.58149 0.0
H170 H 0.86852 0.8148 0.58406 0.0
H171 H 0.82334 0.89537 0.70162 0.0
H172 H 0.81121 0.85771 0.69575 0.0
H173 H 0.7966 0.88343 0.65314 0.0
C174 C 0.80201 0.77153 0.64038 0.0
C175 C 0.77351 0.77758 0.61783 0.0
C176 C 0.82475 0.79239 0.64276 0.0
C177 C 0.81916 0.81983 0.62357 0.0
C178 C 0.79071 0.82584 0.60109 0.0
H179 H 0.88221 0.96707 0.52041 0.0
H180 H 0.85814 0.92978 0.56011 0.0
C181 C 0.76809 0.80501 0.59848 0.0
C182 C 0.84302 0.84209 0.62514 0.0
H183 H 0.85818 0.91391 0.65391 0.0
C184 C 0.86679 0.83628 0.60031 0.0
C185 C 0.84083 0.86997 0.64681 0.0
C186 C 0.81677 0.87695 0.67626 0.0
C187 C 0.88693 0.85839 0.59306 0.0
C188 C 0.88339 0.8869 0.61179 0.0
C189 C 0.86091 0.89207 0.63958 0.0
C190 C 0.89878 0.9124 0.59551 0.0
C191 C 0.91041 0.85166 0.56236 0.0
C192 C 0.9297 0.916 0.60397 0.0
C193 C 0.94364 0.93771 0.58136 0.0
C194 C 0.92672 0.95575 0.54988 0.0
C195 C 0.89578 0.95334 0.54432 0.0
C196 C 0.88198 0.93203 0.56704 0.0
H197 H 0.90821 0.82917 0.54664 0.0
H198 H 0.90927 0.86731 0.53372 0.0
H199 H 0.93255 0.85396 0.58346 0.0
H200 H 0.94306 0.9013 0.62637 0.0
H201 H 0.96755 0.93905 0.58601 0.0
H202 H 0.76674 0.29191 0.06988 0.0
H203 H 0.73233 0.3329 0.06304 0.0
H204 H 0.7178 0.31883 0.91315 0.0
H205 H 0.75206 0.27758 0.92004 0.0
H206 H 0.73224 0.38491 0.0115 0.0
H207 H 0.63402 0.314 0.95097 0.0
H208 H 0.66873 0.29931 0.97709 0.0
H209 H 0.66467 0.3114 0.91815 0.0
C210 C 0.75621 0.29768 0.03555 0.0
C211 C 0.76149 0.28134 0.99561 0.0
C212 C 0.73668 0.32108 0.03161 0.0
C213 C 0.72215 0.32859 0.98765 0.0
C214 C 0.72834 0.31304 0.94746 0.0
H215 H 0.57157 0.45106 0.97293 0.0
H216 H 0.61164 0.42349 0.94274 0.0
C217 C 0.74792 0.2896 0.9514 0.0
C218 C 0.69985 0.35209 0.98473 0.0
H219 H 0.62534 0.36332 0.96726 0.0
C220 C 0.70891 0.38032 1.00102 0.0
C221 C 0.66943 0.34615 0.97057 0.0
C222 C 0.65842 0.31608 0.95343 0.0
C223 C 0.68824 0.40235 0.00592 0.0
C224 C 0.65775 0.39585 0.9949 0.0
C225 C 0.64876 0.36824 0.97552 0.0
C226 C 0.63512 0.41522 0.01127 0.0
C227 C 0.69912 0.43212 0.02471 0.0
C228 C 0.63515 0.41961 0.0595 0.0
C229 C 0.61236 0.43477 0.07658 0.0
C230 C 0.58898 0.44607 0.04584 0.0
C231 C 0.58937 0.44265 0.99735 0.0
C232 C 0.61217 0.42694 0.98014 0.0
H233 H 0.72182 0.43656 0.01682 0.0
H234 H 0.68421 0.4495 0.00987 0.0
H235 H 0.69981 0.43311 0.0633 0.0
H236 H 0.65232 0.41034 0.08414 0.0
H237 H 0.61284 0.4372 0.11412 0.0
H238 H 0.1513 0.88604 0.10553 0.0
H239 H 0.13327 0.90992 0.17253 0.0
H240 H 0.14114 0.82934 0.2456 0.0
H241 H 0.15739 0.80471 0.17731 0.0
H242 H 0.08982 0.85206 0.25117 0.0
H243 H 0.17273 0.93983 0.29662 0.0
H244 H 0.15731 0.94124 0.23628 0.0
H245 H 0.17825 0.90987 0.25665 0.0
C246 C 0.14912 0.87328 0.13572 0.0
C247 C 0.15557 0.84331 0.13569 0.0
C248 C 0.13934 0.88717 0.17449 0.0
C249 C 0.13639 0.87163 0.21461 0.0
C250 C 0.1435 0.84188 0.21522 0.0
H251 H 0.07529 0.96573 0.45529 0.0
H252 H 0.10684 0.93803 0.40755 0.0
C253 C 0.15297 0.82785 0.17619 0.0
C254 C 0.12312 0.88576 0.25378 0.0
H255 H 0.12498 0.94803 0.32267 0.0
C256 C 0.09788 0.8728 0.26734 0.0
C257 C 0.13385 0.91256 0.27574 0.0
C258 C 0.16223 0.92647 0.2659 0.0
C259 C 0.08216 0.88663 0.30012 0.0
C260 C 0.09137 0.91462 0.31886 0.0
C261 C 0.11759 0.92684 0.30757 0.0
C262 C 0.07297 0.93218 0.34768 0.0
C263 C 0.05559 0.87119 0.31393 0.0
C264 C 0.04383 0.93877 0.32937 0.0
C265 C 0.02581 0.95431 0.35646 0.0
C266 C 0.03666 0.96405 0.40235 0.0
C267 C 0.06626 0.95844 0.42013 0.0
C268 C 0.08428 0.94261 0.39295 0.0
H269 H 0.05747 0.84714 0.30964 0.0
H270 H 0.05275 0.8767 0.35079 0.0
H271 H 0.03546 0.8779 0.29094 0.0
H272 H 0.03491 0.93173 0.29403 0.0
H273 H 0.00327 0.95859 0.34138 0.0
H274 H 0.70001 0.60975 0.64802 0.0
H275 H 0.6807 0.5881 0.71424 0.0
H276 H 0.68375 0.67242 0.7855 0.0
H277 H 0.7022 0.69438 0.71917 0.0
H278 H 0.70211 0.5887 0.81558 0.0
H279 H 0.59557 0.64567 0.76989 0.0
H280 H 0.62246 0.64179 0.72984 0.0
H281 H 0.62775 0.66891 0.77672 0.0
C282 C 0.69665 0.62368 0.67786 0.0
C283 C 0.70239 0.65388 0.67805 0.0
C284 C 0.68587 0.61122 0.7158 0.0
C285 C 0.68053 0.62873 0.75448 0.0
C286 C 0.68751 0.65858 0.75576 0.0
H287 H 0.58464 0.61137 0.98683 0.0
H288 H 0.61977 0.62585 0.93529 0.0
C289 C 0.69828 0.67106 0.71792 0.0
C290 C 0.66558 0.61637 0.79189 0.0
H291 H 0.60178 0.62076 0.84058 0.0
C292 C 0.68015 0.59559 0.82112 0.0
C293 C 0.63684 0.62524 0.79865 0.0
C294 C 0.61955 0.64642 0.76692 0.0
C295 C 0.66699 0.58412 0.858 0.0
C296 C 0.63846 0.59346 0.86521 0.0
C297 C 0.6238 0.61384 0.83536 0.0
C298 C 0.62296 0.58282 0.9034 0.0
C299 C 0.68392 0.56271 0.88959 0.0
C300 C 0.61411 0.55346 0.9042 0.0
C301 C 0.59419 0.54501 0.93424 0.0
C302 C 0.58253 0.56595 0.9632 0.0
C303 C 0.59316 0.5948 0.96472 0.0
C304 C 0.6132 0.60312 0.93522 0.0
H305 H 0.70788 0.56306 0.88643 0.0
H306 H 0.6811 0.56745 0.92668 0.0
H307 H 0.67527 0.54037 0.87982 0.0
H308 H 0.62099 0.53749 0.87947 0.0
H309 H 0.58615 0.52268 0.93204 0.0
H310 H 0.88549 0.25282 0.14295 0.0
H311 H 0.90918 0.23861 0.22044 0.0
H312 H 0.90066 0.14805 0.175 0.0
H313 H 0.8773 0.162 0.09805 0.0
H314 H 0.89018 0.20469 0.28672 0.0
H315 H 0.9878 0.15427 0.22519 0.0
H316 H 0.96321 0.17757 0.18908 0.0
H317 H 0.95449 0.13942 0.19268 0.0
C318 C 0.88859 0.22989 0.14969 0.0
C319 C 0.87993 0.20853 0.1142 0.0
C320 C 0.90225 0.22182 0.19383 0.0
C321 C 0.90748 0.19231 0.20309 0.0
C322 C 0.89781 0.171 0.1682 0.0
H323 H 0.91115 0.08267 0.42064 0.0
H324 H 0.90185 0.12284 0.3685 0.0
C325 C 0.88435 0.179 0.12425 0.0
C326 C 0.92217 0.18321 0.24939 0.0
H327 H 0.97469 0.13666 0.29804 0.0
C328 C 0.90908 0.19034 0.28947 0.0
C329 C 0.94745 0.16528 0.25351 0.0
C330 C 0.96424 0.15899 0.21286 0.0
C331 C 0.91889 0.17776 0.33247 0.0
C332 C 0.9419 0.15705 0.33509 0.0
C333 C 0.95676 0.15216 0.29612 0.0
C334 C 0.9476 0.13681 0.37439 0.0
C335 C 0.90384 0.18613 0.37423 0.0
C336 C 0.97651 0.13116 0.39577 0.0
C337 C 0.98198 0.10772 0.42566 0.0
C338 C 0.95864 0.0894 0.43393 0.0
C339 C 0.92964 0.09631 0.41485 0.0
C340 C 0.92422 0.11959 0.38531 0.0
H341 H 0.89699 0.20932 0.37308 0.0
H342 H 0.88353 0.17264 0.37345 0.0
H343 H 0.9184 0.18281 0.40766 0.0
H344 H 0.99497 0.14399 0.38759 0.0
H345 H 0.00458 0.10282 0.43963 0.0
H346 H 0.34091 0.33028 0.59466 0.0
H347 H 0.36873 0.34612 0.67034 0.0
H348 H 0.35172 0.43588 0.63734 0.0
H349 H 0.32393 0.42026 0.56189 0.0
H350 H 0.4204 0.38576 0.68098 0.0
H351 H 0.32881 0.42724 0.77216 0.0
H352 H 0.32297 0.40152 0.72283 0.0
H353 H 0.32853 0.43955 0.71368 0.0
C354 C 0.34271 0.35336 0.60392 0.0
C355 C 0.33023 0.37404 0.57237 0.0
C356 C 0.35872 0.36236 0.647 0.0
C357 C 0.36207 0.39215 0.65956 0.0
C358 C 0.34911 0.41278 0.62855 0.0
H359 H 0.48241 0.50104 0.83746 0.0
H360 H 0.45466 0.47107 0.77467 0.0
C361 C 0.3334 0.40384 0.58536 0.0
C362 C 0.38042 0.40197 0.70382 0.0
H363 H 0.37771 0.44139 0.80568 0.0
C364 C 0.41105 0.39757 0.70857 0.0
C365 C 0.36814 0.41713 0.73992 0.0
C366 C 0.33527 0.42149 0.7373 0.0
C367 C 0.42988 0.4092 0.7475 0.0
C368 C 0.41775 0.42567 0.78241 0.0
C369 C 0.38698 0.42884 0.77877 0.0
C370 C 0.43668 0.4418 0.82088 0.0
C371 C 0.46269 0.40426 0.75063 0.0
C372 C 0.43591 0.4352 0.86781 0.0
C373 C 0.452 0.45223 0.90398 0.0
C374 C 0.46865 0.47647 0.89372 0.0
C375 C 0.46981 0.48256 0.8466 0.0
C376 C 0.45406 0.46537 0.81061 0.0
H377 H 0.46774 0.38537 0.72802 0.0
H378 H 0.47339 0.42394 0.7389 0.0
H379 H 0.47254 0.40051 0.78725 0.0
H380 H 0.42247 0.41719 0.87643 0.0
H381 H 0.45049 0.44708 0.93989 0.0
H382 H 0.67561 0.70834 0.48231 0.0
H383 H 0.64727 0.69247 0.40699 0.0
H384 H 0.66535 0.60276 0.43903 0.0
H385 H 0.69368 0.61836 0.51407 0.0
H386 H 0.67381 0.62421 0.34119 0.0
H387 H 0.56437 0.64522 0.39998 0.0
H388 H 0.59311 0.67261 0.41205 0.0
H389 H 0.59699 0.6387 0.4411 0.0
C390 C 0.67382 0.68526 0.47301 0.0
C391 C 0.68676 0.66457 0.50421 0.0
C392 C 0.65752 0.67625 0.43016 0.0
C393 C 0.65413 0.64646 0.41769 0.0
C394 C 0.66768 0.62585 0.44813 0.0
H395 H 0.54372 0.53086 0.23871 0.0
H396 H 0.57049 0.56184 0.30088 0.0
C397 C 0.68371 0.63479 0.49105 0.0
C398 C 0.63582 0.63641 0.37359 0.0
H399 H 0.5643 0.62272 0.32561 0.0
C400 C 0.64986 0.62428 0.3373 0.0
C401 C 0.60463 0.63642 0.369 0.0
C402 C 0.58865 0.64881 0.4075 0.0
C403 C 0.63348 0.61136 0.29695 0.0
C404 C 0.60225 0.61066 0.29286 0.0
C405 C 0.58822 0.62352 0.32867 0.0
C406 C 0.58406 0.5937 0.25448 0.0
C407 C 0.64968 0.59726 0.26003 0.0
C408 C 0.58216 0.60172 0.20765 0.0
C409 C 0.56668 0.58399 0.17174 0.0
C410 C 0.55301 0.55792 0.18217 0.0
C411 C 0.55413 0.55065 0.22931 0.0
C412 C 0.56938 0.56839 0.265 0.0
H413 H 0.67386 0.59614 0.27156 0.0
H414 H 0.64104 0.57484 0.2508 0.0
H415 H 0.64604 0.61008 0.22791 0.0
H416 H 0.59305 0.62138 0.19886 0.0
H417 H 0.56621 0.59023 0.13583 0.0
H418 H 0.83246 0.18782 0.9007 0.0
H419 H 0.85012 0.15969 0.83639 0.0
H420 H 0.93953 0.16808 0.90636 0.0
H421 H 0.92227 0.19654 0.97017 0.0
H422 H 0.89484 0.17481 0.77753 0.0
H423 H 0.92473 0.07863 0.88455 0.0
H424 H 0.90017 0.10661 0.90137 0.0
H425 H 0.93949 0.11255 0.91109 0.0
C426 C 0.85593 0.184 0.90208 0.0
C427 C 0.87593 0.19417 0.94082 0.0
C428 C 0.86593 0.16781 0.86545 0.0
C429 C 0.89603 0.16139 0.86714 0.0
C430 C 0.91612 0.1723 0.90494 0.0
H431 H 0.02141 0.07919 0.71888 0.0
H432 H 0.99178 0.10387 0.77191 0.0
C433 C 0.9062 0.18851 0.9414 0.0
C434 C 0.90676 0.14312 0.82981 0.0
H435 H 0.9443 0.0805 0.81224 0.0
C436 C 0.90527 0.15397 0.78474 0.0
C437 C 0.92014 0.11588 0.83943 0.0
C438 C 0.92103 0.10253 0.88661 0.0
C439 C 0.9184 0.13902 0.74969 0.0
C440 C 0.93294 0.1124 0.76001 0.0
C441 C 0.93325 0.10098 0.80451 0.0
C442 C 0.95026 0.09729 0.72677 0.0
C443 C 0.91792 0.15249 0.70269 0.0
C444 C 0.93666 0.08515 0.68381 0.0
C445 C 0.95362 0.07093 0.65313 0.0
C446 C 0.98443 0.06857 0.66507 0.0
C447 C 0.99779 0.08059 0.70839 0.0
C448 C 0.98088 0.09471 0.73886 0.0
H449 H 0.91019 0.1754 0.703 0.0
H450 H 0.94028 0.15202 0.69171 0.0
H451 H 0.90277 0.13968 0.67613 0.0
H452 H 0.91297 0.08651 0.67417 0.0
H453 H 0.94262 0.06183 0.62014 0.0
H454 H 0.32542 0.34334 0.3603 0.0
H455 H 0.34357 0.36695 0.29488 0.0
H456 H 0.33226 0.45132 0.36038 0.0
H457 H 0.31466 0.42779 0.42633 0.0
H458 H 0.3201 0.4065 0.23138 0.0
H459 H 0.41847 0.45424 0.34356 0.0
H460 H 0.39499 0.42727 0.36413 0.0
H461 H 0.38378 0.46475 0.36126 0.0
C462 C 0.32655 0.36693 0.36052 0.0
C463 C 0.31893 0.38371 0.39867 0.0
C464 C 0.33695 0.3804 0.32316 0.0
C465 C 0.33983 0.41089 0.32313 0.0
C466 C 0.33098 0.42775 0.3602 0.0
H467 H 0.43297 0.51312 0.13631 0.0
H468 H 0.39611 0.50129 0.18735 0.0
C469 C 0.32087 0.41428 0.3978 0.0
C470 C 0.35312 0.42481 0.28512 0.0
H471 H 0.41252 0.46527 0.26399 0.0
C472 C 0.34019 0.41953 0.23853 0.0
C473 C 0.37933 0.44187 0.29443 0.0
C474 C 0.39516 0.4472 0.34347 0.0
C475 C 0.35307 0.43039 0.20105 0.0
C476 C 0.37964 0.44678 0.2104 0.0
C477 C 0.39197 0.45294 0.25695 0.0
C478 C 0.39706 0.45473 0.1729 0.0
C479 C 0.33836 0.42392 0.15173 0.0
C480 C 0.4092 0.43258 0.14702 0.0
C481 C 0.43029 0.43923 0.11824 0.0
C482 C 0.43967 0.4682 0.11469 0.0
C483 C 0.42602 0.49063 0.13807 0.0
C484 C 0.40507 0.48389 0.16738 0.0
H485 H 0.31437 0.41934 0.15066 0.0
H486 H 0.34125 0.44237 0.12886 0.0
H487 H 0.34857 0.40431 0.13731 0.0
H488 H 0.40378 0.40991 0.15132 0.0
H489 H 0.44041 0.42149 0.10065 0.0
H490 H 0.14479 0.87865 0.98331 0.0
H491 H 0.12307 0.89576 0.90777 0.0
H492 H 0.12539 0.80851 0.84782 0.0
H493 H 0.14528 0.79066 0.92455 0.0
H494 H 0.14588 0.89651 0.83035 0.0
H495 H 0.04254 0.83056 0.79727 0.0
H496 H 0.0654 0.83255 0.85345 0.0
H497 H 0.07546 0.80918 0.80698 0.0
C498 C 0.14003 0.86282 0.95452 0.0
C499 C 0.1465 0.83311 0.96052 0.0
C500 C 0.12784 0.87275 0.91104 0.0
C501 C 0.12209 0.85341 0.87207 0.0
C502 C 0.12889 0.82378 0.87752 0.0
H503 H 0.09929 0.9362 0.60285 0.0
H504 H 0.11458 0.90063 0.66241 0.0
C505 C 0.14076 0.81369 0.92137 0.0
C506 C 0.11048 0.86497 0.82564 0.0
H507 H 0.05336 0.85991 0.73561 0.0
C508 C 0.12567 0.88841 0.80964 0.0
C509 C 0.08394 0.85462 0.79873 0.0
C510 C 0.0657 0.83053 0.8151 0.0
C511 C 0.1149 0.90224 0.76831 0.0
C512 C 0.08873 0.89151 0.74073 0.0
C513 C 0.07363 0.86781 0.75632 0.0
C514 C 0.07594 0.90615 0.69748 0.0
C515 C 0.13105 0.92909 0.75598 0.0
C516 C 0.04776 0.91872 0.69447 0.0
C517 C 0.03848 0.93821 0.65925 0.0
C518 C 0.05748 0.94563 0.62711 0.0
C519 C 0.08431 0.93083 0.62737 0.0
C520 C 0.0932 0.9108 0.66172 0.0
H521 H 0.14553 0.93882 0.78677 0.0
H522 H 0.14529 0.92306 0.72904 0.0
H523 H 0.11532 0.946 0.74182 0.0
H524 H 0.03391 0.91524 0.72139 0.0
H525 H 0.0178 0.94956 0.65999 0.0
loop_
_geom_bond_atom_site_label_1
_geom_bond_atom_site_label_2
_geom_bond_distance
_geom_bond_site_symmetry_2
_ccdc_geom_bond_type
H0 C7 0.929 . S
H1 C10 0.930 . S
H2 C12 0.929 1_556 S
H3 C4 0.969 . S
C4 H3 0.969 . S
C4 O5 1.550 . S
C4 H6 0.973 . S
O5 C4 1.550 . S
O5 C11 1.412 . S
H6 C4 0.973 . S
C7 H0 0.929 . S
C7 C8 1.400 . S
C7 C9 1.364 . S
C8 C7 1.400 . S
C8 C12 1.377 . S
C9 C7 1.364 . S
C9 C10 1.374 . S
C10 H1 0.930 . S
C10 C9 1.374 . S
C10 C11 1.383 . S
C11 O5 1.412 . S
C11 C10 1.383 . S
C11 C12 1.394 . S
C12 H2 0.929 1_554 S
C12 C8 1.377 . S
C12 C11 1.394 . S
H13 C20 0.929 . S
H14 C23 0.930 . S
H15 C25 0.929 . S
H16 C17 0.969 . S
C17 H16 0.969 . S
C17 O18 1.550 . S
C17 H19 0.973 . S
O18 C17 1.550 . S
O18 C24 1.412 . S
H19 C17 0.973 . S
C20 H13 0.929 . S
C20 C21 1.400 . S
C20 C22 1.364 . S
C21 C20 1.400 . S
C21 C25 1.377 . S
C22 C20 1.364 . S
C22 C23 1.374 . S
C23 H14 0.930 . S
C23 C22 1.374 . S
C23 C24 1.383 . S
C24 O18 1.412 . S
C24 C23 1.383 . S
C24 C25 1.394 . S
C25 H15 0.929 . S
C25 C21 1.377 . S
C25 C24 1.394 . S
H26 C33 0.929 . S
H27 C36 0.930 . S
H28 C38 0.929 . S
H29 C30 0.969 . S
C30 H29 0.969 . S
C30 O31 1.550 1_556 S
C30 H32 0.973 . S
O31 C30 1.550 1_554 S
O31 C37 1.412 . S
H32 C30 0.973 . S
C33 H26 0.929 . S
C33 C34 1.400 . S
C33 C35 1.364 1_554 S
C34 C33 1.400 . S
C34 C38 1.377 . S
C35 C33 1.364 1_556 S
C35 C36 1.374 . S
C36 H27 0.930 . S
C36 C35 1.374 . S
C36 C37 1.383 1_556 S
C37 O31 1.412 . S
C37 C36 1.383 1_554 S
C37 C38 1.394 . S
C38 H28 0.929 . S
C38 C34 1.377 . S
C38 C37 1.394 . S
H39 C46 0.929 . S
H40 C49 0.930 . S
H41 C51 0.929 . S
H42 C43 0.969 . S
C43 H42 0.969 . S
C43 O44 1.550 . S
C43 H45 0.973 . S
O44 C43 1.550 . S
O44 C50 1.412 . S
H45 C43 0.973 . S
C46 H39 0.929 . S
C46 C47 1.400 . S
C46 C48 1.364 . S
C47 C46 1.400 . S
C47 C51 1.377 . S
C48 C46 1.364 . S
C48 C49 1.374 . S
C49 H40 0.930 . S
C49 C48 1.374 . S
C49 C50 1.383 . S
C50 O44 1.412 . S
C50 C49 1.383 . S
C50 C51 1.394 . S
C51 H41 0.929 . S
C51 C47 1.377 . S
C51 C50 1.394 . S
O52 Mg53 1.990 . S
O52 C66 1.253 1_455 S
Mg53 O52 1.990 . S
Mg53 O56 2.180 . S
Mg53 O57 2.117 . S
Mg53 O71 2.030 . S
O54 Mg55 2.072 1_655 S
O54 C66 1.260 . S
Mg55 O54 2.072 1_455 S
Mg55 O56 2.099 . S
Mg55 O58 2.079 1_545 S
Mg55 O59 2.072 1_455 S
Mg55 O61 2.099 1_445 S
Mg55 O72 2.079 1_545 S
O56 Mg53 2.180 . S
O56 Mg55 2.099 . S
O56 C67 1.279 . S
O57 Mg53 2.117 . S
O57 C67 1.250 . S
O58 Mg55 2.079 1_565 S
O58 C68 1.264 . S
O59 Mg55 2.072 1_655 S
O59 C69 1.260 . S
Mg60 O61 2.180 . S
Mg60 O62 2.030 1_655 S
Mg60 O63 1.990 1_565 S
Mg60 O64 2.117 . S
O61 Mg55 2.099 1_665 S
O61 Mg60 2.180 . S
O61 C70 1.279 . S
O62 Mg60 2.030 1_455 S
O62 C68 1.248 . S
O63 Mg60 1.990 1_545 S
O63 C69 1.253 . S
O64 Mg60 2.117 . S
O64 C70 1.250 . S
C65 O71 1.248 1_565 S
C65 O72 1.264 . S
C66 O52 1.253 1_655 S
C66 O54 1.260 . S
C67 O56 1.279 . S
C67 O57 1.250 . S
C68 O58 1.264 . S
C68 O62 1.248 . S
C69 O59 1.260 . S
C69 O63 1.253 . S
C70 O61 1.279 . S
C70 O64 1.250 . S
O71 Mg53 2.030 . S
O71 C65 1.248 1_545 S
O72 Mg55 2.079 1_565 S
O72 C65 1.264 . S
O73 Mg74 1.990 . S
O73 C87 1.253 . S
Mg74 O73 1.990 . S
Mg74 O77 2.180 . S
Mg74 O78 2.117 . S
Mg74 O92 2.030 . S
O75 Mg76 2.072 . S
O75 C87 1.260 . S
Mg76 O75 2.072 . S
Mg76 O77 2.099 . S
Mg76 O79 2.079 1_554 S
Mg76 O80 2.072 1_554 S
Mg76 O82 2.099 . S
Mg76 O93 2.079 . S
O77 Mg74 2.180 . S
O77 Mg76 2.099 . S
O77 C88 1.279 . S
O78 Mg74 2.117 . S
O78 C88 1.250 . S
O79 Mg76 2.079 1_556 S
O79 C89 1.264 . S
O80 Mg76 2.072 1_556 S
O80 C90 1.260 . S
Mg81 O82 2.180 1_556 S
Mg81 O83 2.030 . S
Mg81 O84 1.990 . S
Mg81 O85 2.117 . S
O82 Mg76 2.099 . S
O82 Mg81 2.180 1_554 S
O82 C91 1.279 . S
O83 Mg81 2.030 . S
O83 C89 1.248 . S
O84 Mg81 1.990 . S
O84 C90 1.253 . S
O85 Mg81 2.117 . S
O85 C91 1.250 1_556 S
C86 O92 1.248 . S
C86 O93 1.264 . S
C87 O73 1.253 . S
C87 O75 1.260 . S
C88 O77 1.279 . S
C88 O78 1.250 . S
C89 O79 1.264 . S
C89 O83 1.248 . S
C90 O80 1.260 . S
C90 O84 1.253 . S
C91 O82 1.279 . S
C91 O85 1.250 1_554 S
O92 Mg74 2.030 . S
O92 C86 1.248 . S
O93 Mg76 2.079 . S
O93 C86 1.264 . S
H94 C102 0.929 . S
H95 C104 0.930 . S
H96 C106 0.930 . S
H97 C109 0.929 . S
H98 C112 0.930 . S
H99 C114 0.960 . S
H100 C114 0.960 . S
H101 C114 0.960 . S
C102 H94 0.929 . S
C102 C103 1.377 . S
C102 C104 1.384 . S
C103 C102 1.377 . S
C103 C109 1.390 . S
C104 H95 0.930 . S
C104 C102 1.384 . S
C104 C105 1.372 . S
C105 C104 1.372 . S
C105 C106 1.400 . S
C105 C110 1.490 . S
C106 H96 0.930 . S
C106 C105 1.400 . S
C106 C109 1.386 . S
H107 C123 0.930 . S
H108 C124 0.931 . S
C109 H97 0.929 . S
C109 C103 1.390 . S
C109 C106 1.386 . S
C110 C105 1.490 . S
C110 C112 1.395 . S
C110 C113 1.403 . S
H111 C117 0.930 . S
C112 H98 0.930 . S
C112 C110 1.395 . S
C112 C115 1.403 . S
C113 C110 1.403 . S
C113 C114 1.524 . S
C113 C117 1.400 . S
C114 H99 0.960 . S
C114 H100 0.960 . S
C114 H101 0.960 . S
C114 C113 1.524 . S
C115 C112 1.403 . S
C115 C116 1.392 . S
C115 C119 1.495 . S
C116 C115 1.392 . S
C116 C117 1.385 . S
C116 C118 1.478 . S
C117 H111 0.930 . S
C117 C113 1.400 . S
C117 C116 1.385 . S
C118 C116 1.478 . S
C118 C120 1.381 . S
C118 C124 1.383 . S
C119 C115 1.495 . S
C119 H125 0.959 . S
C119 H126 0.961 . S
C119 H127 0.960 . S
C120 C118 1.381 . S
C120 C121 1.394 . S
C120 H128 0.930 . S
C121 C120 1.394 . S
C121 C122 1.383 . S
C121 H129 0.929 . S
C122 C121 1.383 . S
C122 C123 1.377 . S
C123 H107 0.930 . S
C123 C122 1.377 . S
C123 C124 1.379 . S
C124 H108 0.931 . S
C124 C118 1.383 . S
C124 C123 1.379 . S
H125 C119 0.959 . S
H126 C119 0.961 . S
H127 C119 0.960 . S
H128 C120 0.930 . S
H129 C121 0.929 . S
H130 C138 0.929 . S
H131 C140 0.930 . S
H132 C142 0.930 . S
H133 C145 0.929 . S
H134 C148 0.930 . S
H135 C150 0.960 . S
H136 C150 0.960 . S
H137 C150 0.960 . S
C138 H130 0.929 . S
C138 C139 1.377 . S
C138 C140 1.384 . S
C139 C138 1.377 . S
C139 C145 1.390 . S
C140 H131 0.930 . S
C140 C138 1.384 . S
C140 C141 1.372 . S
C141 C140 1.372 . S
C141 C142 1.400 . S
C141 C146 1.490 . S
C142 H132 0.930 . S
C142 C141 1.400 . S
C142 C145 1.386 . S
H143 C159 0.930 . S
H144 C160 0.931 . S
C145 H133 0.929 . S
C145 C139 1.390 . S
C145 C142 1.386 . S
C146 C141 1.490 . S
C146 C148 1.395 . S
C146 C149 1.403 . S
H147 C153 0.930 . S
C148 H134 0.930 . S
C148 C146 1.395 . S
C148 C151 1.403 . S
C149 C146 1.403 . S
C149 C150 1.524 . S
C149 C153 1.400 . S
C150 H135 0.960 . S
C150 H136 0.960 . S
C150 H137 0.960 . S
C150 C149 1.524 . S
C151 C148 1.403 . S
C151 C152 1.392 . S
C151 C155 1.495 . S
C152 C151 1.392 . S
C152 C153 1.385 . S
C152 C154 1.478 . S
C153 H147 0.930 . S
C153 C149 1.400 . S
C153 C152 1.385 . S
C154 C152 1.478 . S
C154 C156 1.381 . S
C154 C160 1.383 . S
C155 C151 1.495 . S
C155 H161 0.959 . S
C155 H162 0.961 . S
C155 H163 0.960 1_554 S
C156 C154 1.381 . S
C156 C157 1.394 . S
C156 H164 0.930 1_554 S
C157 C156 1.394 . S
C157 C158 1.383 . S
C157 H165 0.929 1_554 S
C158 C157 1.383 . S
C158 C159 1.377 . S
C159 H143 0.930 . S
C159 C158 1.377 . S
C159 C160 1.379 . S
C160 H144 0.931 . S
C160 C154 1.383 . S
C160 C159 1.379 . S
H161 C155 0.959 . S
H162 C155 0.961 . S
H163 C155 0.960 1_556 S
H164 C156 0.930 1_556 S
H165 C157 0.929 1_556 S
H166 C174 0.929 . S
H167 C176 0.930 . S
H168 C178 0.930 . S
H169 C181 0.929 . S
H170 C184 0.930 . S
H171 C186 0.960 . S
H172 C186 0.960 . S
H173 C186 0.960 . S
C174 H166 0.929 . S
C174 C175 1.377 . S
C174 C176 1.384 . S
C175 C174 1.377 . S
C175 C181 1.390 . S
C176 H167 0.930 . S
C176 C174 1.384 . S
C176 C177 1.372 . S
C177 C176 1.372 . S
C177 C178 1.400 . S
C177 C182 1.490 . S
C178 H168 0.930 . S
C178 C177 1.400 . S
C178 C181 1.386 . S
H179 C195 0.930 . S
H180 C196 0.931 . S
C181 H169 0.929 . S
C181 C175 1.390 . S
C181 C178 1.386 . S
C182 C177 1.490 . S
C182 C184 1.395 . S
C182 C185 1.403 . S
H183 C189 0.930 . S
C184 H170 0.930 . S
C184 C182 1.395 . S
C184 C187 1.403 . S
C185 C182 1.403 . S
C185 C186 1.524 . S
C185 C189 1.400 . S
C186 H171 0.960 . S
C186 H172 0.960 . S
C186 H173 0.960 . S
C186 C185 1.524 . S
C187 C184 1.403 . S
C187 C188 1.392 . S
C187 C191 1.495 . S
C188 C187 1.392 . S
C188 C189 1.385 . S
C188 C190 1.478 . S
C189 H183 0.930 . S
C189 C185 1.400 . S
C189 C188 1.385 . S
C190 C188 1.478 . S
C190 C192 1.381 . S
C190 C196 1.383 . S
C191 C187 1.495 . S
C191 H197 0.959 . S
C191 H198 0.961 . S
C191 H199 0.960 . S
C192 C190 1.381 . S
C192 C193 1.394 . S
C192 H200 0.930 . S
C193 C192 1.394 . S
C193 C194 1.383 . S
C193 H201 0.929 . S
C194 C193 1.383 . S
C194 C195 1.377 . S
C195 H179 0.930 . S
C195 C194 1.377 . S
C195 C196 1.379 . S
C196 H180 0.931 . S
C196 C190 1.383 . S
C196 C195 1.379 . S
H197 C191 0.959 . S
H198 C191 0.961 . S
H199 C191 0.960 . S
H200 C192 0.930 . S
H201 C193 0.929 . S
H202 C210 0.929 . S
H203 C212 0.930 . S
H204 C214 0.930 . S
H205 C217 0.929 . S
H206 C220 0.930 . S
H207 C222 0.960 . S
H208 C222 0.960 . S
H209 C222 0.960 . S
C210 H202 0.929 . S
C210 C211 1.377 1_554 S
C210 C212 1.384 . S
C211 C210 1.377 1_556 S
C211 C217 1.390 . S
C212 H203 0.930 . S
C212 C210 1.384 . S
C212 C213 1.372 . S
C213 C212 1.372 . S
C213 C214 1.400 1_554 S
C213 C218 1.490 . S
C214 H204 0.930 . S
C214 C213 1.400 1_556 S
C214 C217 1.386 . S
H215 C231 0.930 . S
H216 C232 0.931 . S
C217 H205 0.929 . S
C217 C211 1.390 . S
C217 C214 1.386 . S
C218 C213 1.490 . S
C218 C220 1.395 1_554 S
C218 C221 1.403 . S
H219 C225 0.930 . S
C220 H206 0.930 . S
C220 C218 1.395 1_556 S
C220 C223 1.403 . S
C221 C218 1.403 . S
C221 C222 1.524 . S
C221 C225 1.400 . S
C222 H207 0.960 . S
C222 H208 0.960 . S
C222 H209 0.960 . S
C222 C221 1.524 . S
C223 C220 1.403 . S
C223 C224 1.392 1_556 S
C223 C227 1.495 . S
C224 C223 1.392 1_554 S
C224 C225 1.385 . S
C224 C226 1.478 . S
C225 H219 0.930 . S
C225 C221 1.400 . S
C225 C224 1.385 . S
C226 C224 1.478 . S
C226 C228 1.381 . S
C226 C232 1.383 1_554 S
C227 C223 1.495 . S
C227 H233 0.959 . S
C227 H234 0.961 . S
C227 H235 0.960 . S
C228 C226 1.381 . S
C228 C229 1.394 . S
C228 H236 0.930 . S
C229 C228 1.394 . S
C229 C230 1.383 . S
C229 H237 0.929 . S
C230 C229 1.383 . S
C230 C231 1.377 1_554 S
C231 H215 0.930 . S
C231 C230 1.377 1_556 S
C231 C232 1.379 . S
C232 H216 0.931 . S
C232 C226 1.383 1_556 S
C232 C231 1.379 . S
H233 C227 0.959 . S
H234 C227 0.961 . S
H235 C227 0.960 . S
H236 C228 0.930 . S
H237 C229 0.929 . S
H238 C246 0.929 . S
H239 C248 0.930 . S
H240 C250 0.930 . S
H241 C253 0.929 . S
H242 C256 0.930 . S
H243 C258 0.960 . S
H244 C258 0.960 . S
H245 C258 0.960 . S
C246 H238 0.929 . S
C246 C247 1.377 . S
C246 C248 1.384 . S
C247 C246 1.377 . S
C247 C253 1.390 . S
C248 H239 0.930 . S
C248 C246 1.384 . S
C248 C249 1.372 . S
C249 C248 1.372 . S
C249 C250 1.400 . S
C249 C254 1.490 . S
C250 H240 0.930 . S
C250 C249 1.400 . S
C250 C253 1.386 . S
H251 C267 0.930 . S
H252 C268 0.931 . S
C253 H241 0.929 . S
C253 C247 1.390 . S
C253 C250 1.386 . S
C254 C249 1.490 . S
C254 C256 1.395 . S
C254 C257 1.403 . S
H255 C261 0.930 . S
C256 H242 0.930 . S
C256 C254 1.395 . S
C256 C259 1.403 . S
C257 C254 1.403 . S
C257 C258 1.524 . S
C257 C261 1.400 . S
C258 H243 0.960 . S
C258 H244 0.960 . S
C258 H245 0.960 . S
C258 C257 1.524 . S
C259 C256 1.403 . S
C259 C260 1.392 . S
C259 C263 1.495 . S
C260 C259 1.392 . S
C260 C261 1.385 . S
C260 C262 1.478 . S
C261 H255 0.930 . S
C261 C257 1.400 . S
C261 C260 1.385 . S
C262 C260 1.478 . S
C262 C264 1.381 . S
C262 C268 1.383 . S
C263 C259 1.495 . S
C263 H269 0.959 . S
C263 H270 0.961 . S
C263 H271 0.960 . S
C264 C262 1.381 . S
C264 C265 1.394 . S
C264 H272 0.930 . S
C265 C264 1.394 . S
C265 C266 1.383 . S
C265 H273 0.921 1_565 S
C266 C265 1.383 . S
C266 C267 1.377 . S
C267 H251 0.930 . S
C267 C266 1.377 . S
C267 C268 1.379 . S
C268 H252 0.931 . S
C268 C262 1.383 . S
C268 C267 1.379 . S
H269 C263 0.959 . S
H270 C263 0.961 . S
H271 C263 0.960 . S
H272 C264 0.930 . S
H273 C265 0.921 1_545 S
H274 C282 0.929 . S
H275 C284 0.930 . S
H276 C286 0.930 . S
H277 C289 0.929 . S
H278 C292 0.930 . S
H279 C294 0.960 . S
H280 C294 0.960 . S
H281 C294 0.960 . S
C282 H274 0.929 . S
C282 C283 1.377 . S
C282 C284 1.384 . S
C283 C282 1.377 . S
C283 C289 1.390 . S
C284 H275 0.930 . S
C284 C282 1.384 . S
C284 C285 1.372 . S
C285 C284 1.372 . S
C285 C286 1.400 . S
C285 C290 1.490 . S
C286 H276 0.930 . S
C286 C285 1.400 . S
C286 C289 1.386 . S
H287 C303 0.930 . S
H288 C304 0.931 . S
C289 H277 0.929 . S
C289 C283 1.390 . S
C289 C286 1.386 . S
C290 C285 1.490 . S
C290 C292 1.395 . S
C290 C293 1.403 . S
H291 C297 0.930 . S
C292 H278 0.930 . S
C292 C290 1.395 . S
C292 C295 1.403 . S
C293 C290 1.403 . S
C293 C294 1.524 . S
C293 C297 1.400 . S
C294 H279 0.960 . S
C294 H280 0.960 . S
C294 H281 0.960 . S
C294 C293 1.524 . S
C295 C292 1.403 . S
C295 C296 1.392 . S
C295 C299 1.495 . S
C296 C295 1.392 . S
C296 C297 1.385 . S
C296 C298 1.478 . S
C297 H291 0.930 . S
C297 C293 1.400 . S
C297 C296 1.385 . S
C298 C296 1.478 . S
C298 C300 1.381 . S
C298 C304 1.383 . S
C299 C295 1.495 . S
C299 H305 0.959 . S
C299 H306 0.961 . S
C299 H307 0.960 . S
C300 C298 1.381 . S
C300 C301 1.394 . S
C300 H308 0.930 . S
C301 C300 1.394 . S
C301 C302 1.383 . S
C301 H309 0.929 . S
C302 C301 1.383 . S
C302 C303 1.377 . S
C303 H287 0.930 . S
C303 C302 1.377 . S
C303 C304 1.379 . S
C304 H288 0.931 . S
C304 C298 1.383 . S
C304 C303 1.379 . S
H305 C299 0.959 . S
H306 C299 0.961 . S
H307 C299 0.960 . S
H308 C300 0.930 . S
H309 C301 0.929 . S
H310 C318 0.929 . S
H311 C320 0.930 . S
H312 C322 0.930 . S
H313 C325 0.929 . S
H314 C328 0.930 . S
H315 C330 0.960 . S
H316 C330 0.960 . S
H317 C330 0.960 . S
C318 H310 0.929 . S
C318 C319 1.377 . S
C318 C320 1.384 . S
C319 C318 1.377 . S
C319 C325 1.390 . S
C320 H311 0.930 . S
C320 C318 1.384 . S
C320 C321 1.372 . S
C321 C320 1.372 . S
C321 C322 1.400 . S
C321 C326 1.490 . S
C322 H312 0.930 . S
C322 C321 1.400 . S
C322 C325 1.386 . S
H323 C339 0.930 . S
H324 C340 0.931 . S
C325 H313 0.929 . S
C325 C319 1.390 . S
C325 C322 1.386 . S
C326 C321 1.490 . S
C326 C328 1.395 . S
C326 C329 1.403 . S
H327 C333 0.930 . S
C328 H314 0.930 . S
C328 C326 1.395 . S
C328 C331 1.403 . S
C329 C326 1.403 . S
C329 C330 1.524 . S
C329 C333 1.400 . S
C330 H315 0.960 . S
C330 H316 0.960 . S
C330 H317 0.960 . S
C330 C329 1.524 . S
C331 C328 1.403 . S
C331 C332 1.392 . S
C331 C335 1.495 . S
C332 C331 1.392 . S
C332 C333 1.385 . S
C332 C334 1.478 . S
C333 H327 0.930 . S
C333 C329 1.400 . S
C333 C332 1.385 . S
C334 C332 1.478 . S
C334 C336 1.381 . S
C334 C340 1.383 . S
C335 C331 1.495 . S
C335 H341 0.959 . S
C335 H342 0.961 . S
C335 H343 0.960 . S
C336 C334 1.381 . S
C336 C337 1.394 . S
C336 H344 0.930 . S
C337 C336 1.394 . S
C337 C338 1.383 . S
C337 H345 0.929 . S
C338 C337 1.383 . S
C338 C339 1.377 . S
C339 H323 0.930 . S
C339 C338 1.377 . S
C339 C340 1.379 . S
C340 H324 0.931 . S
C340 C334 1.383 . S
C340 C339 1.379 . S
H341 C335 0.959 . S
H342 C335 0.961 . S
H343 C335 0.960 . S
H344 C336 0.930 . S
H345 C337 0.929 . S
H346 C354 0.929 . S
H347 C356 0.930 . S
H348 C358 0.930 . S
H349 C361 0.929 . S
H350 C364 0.930 . S
H351 C366 0.960 . S
H352 C366 0.960 . S
H353 C366 0.960 . S
C354 H346 0.929 . S
C354 C355 1.377 . S
C354 C356 1.384 . S
C355 C354 1.377 . S
C355 C361 1.390 . S
C356 H347 0.930 . S
C356 C354 1.384 . S
C356 C357 1.372 . S
C357 C356 1.372 . S
C357 C358 1.400 . S
C357 C362 1.490 . S
C358 H348 0.930 . S
C358 C357 1.400 . S
C358 C361 1.386 . S
H359 C375 0.930 . S
H360 C376 0.931 . S
C361 H349 0.929 . S
C361 C355 1.390 . S
C361 C358 1.386 . S
C362 C357 1.490 . S
C362 C364 1.395 . S
C362 C365 1.403 . S
H363 C369 0.930 . S
C364 H350 0.930 . S
C364 C362 1.395 . S
C364 C367 1.403 . S
C365 C362 1.403 . S
C365 C366 1.524 . S
C365 C369 1.400 . S
C366 H351 0.960 . S
C366 H352 0.960 . S
C366 H353 0.960 . S
C366 C365 1.524 . S
C367 C364 1.403 . S
C367 C368 1.392 . S
C367 C371 1.495 . S
C368 C367 1.392 . S
C368 C369 1.385 . S
C368 C370 1.478 . S
C369 H363 0.930 . S
C369 C365 1.400 . S
C369 C368 1.385 . S
C370 C368 1.478 . S
C370 C372 1.381 . S
C370 C376 1.383 . S
C371 C367 1.495 . S
C371 H377 0.959 . S
C371 H378 0.961 . S
C371 H379 0.960 . S
C372 C370 1.381 . S
C372 C373 1.394 . S
C372 H380 0.930 . S
C373 C372 1.394 . S
C373 C374 1.383 . S
C373 H381 0.929 . S
C374 C373 1.383 . S
C374 C375 1.377 . S
C375 H359 0.930 . S
C375 C374 1.377 . S
C375 C376 1.379 . S
C376 H360 0.931 . S
C376 C370 1.383 . S
C376 C375 1.379 . S
H377 C371 0.959 . S
H378 C371 0.961 . S
H379 C371 0.960 . S
H380 C372 0.930 . S
H381 C373 0.929 . S
H382 C390 0.929 . S
H383 C392 0.930 . S
H384 C394 0.930 . S
H385 C397 0.929 . S
H386 C400 0.930 . S
H387 C402 0.960 . S
H388 C402 0.960 . S
H389 C402 0.960 . S
C390 H382 0.929 . S
C390 C391 1.377 . S
C390 C392 1.384 . S
C391 C390 1.377 . S
C391 C397 1.390 . S
C392 H383 0.930 . S
C392 C390 1.384 . S
C392 C393 1.372 . S
C393 C392 1.372 . S
C393 C394 1.400 . S
C393 C398 1.490 . S
C394 H384 0.930 . S
C394 C393 1.400 . S
C394 C397 1.386 . S
H395 C411 0.930 . S
H396 C412 0.931 . S
C397 H385 0.929 . S
C397 C391 1.390 . S
C397 C394 1.386 . S
C398 C393 1.490 . S
C398 C400 1.395 . S
C398 C401 1.403 . S
H399 C405 0.930 . S
C400 H386 0.930 . S
C400 C398 1.395 . S
C400 C403 1.403 . S
C401 C398 1.403 . S
C401 C402 1.524 . S
C401 C405 1.400 . S
C402 H387 0.960 . S
C402 H388 0.960 . S
C402 H389 0.960 . S
C402 C401 1.524 . S
C403 C400 1.403 . S
C403 C404 1.392 . S
C403 C407 1.495 . S
C404 C403 1.392 . S
C404 C405 1.385 . S
C404 C406 1.478 . S
C405 H399 0.930 . S
C405 C401 1.400 . S
C405 C404 1.385 . S
C406 C404 1.478 . S
C406 C408 1.381 . S
C406 C412 1.383 . S
C407 C403 1.495 . S
C407 H413 0.959 . S
C407 H414 0.961 . S
C407 H415 0.960 . S
C408 C406 1.381 . S
C408 C409 1.394 . S
C408 H416 0.930 . S
C409 C408 1.394 . S
C409 C410 1.383 . S
C409 H417 0.929 . S
C410 C409 1.383 . S
C410 C411 1.377 . S
C411 H395 0.930 . S
C411 C410 1.377 . S
C411 C412 1.379 . S
C412 H396 0.931 . S
C412 C406 1.383 . S
C412 C411 1.379 . S
H413 C407 0.959 . S
H414 C407 0.961 . S
H415 C407 0.960 . S
H416 C408 0.930 . S
H417 C409 0.929 . S
H418 C426 0.929 . S
H419 C428 0.930 . S
H420 C430 0.930 . S
H421 C433 0.929 . S
H422 C436 0.930 . S
H423 C438 0.960 . S
H424 C438 0.960 . S
H425 C438 0.960 . S
C426 H418 0.929 . S
C426 C427 1.377 . S
C426 C428 1.384 . S
C427 C426 1.377 . S
C427 C433 1.390 . S
C428 H419 0.930 . S
C428 C426 1.384 . S
C428 C429 1.372 . S
C429 C428 1.372 . S
C429 C430 1.400 . S
C429 C434 1.490 . S
C430 H420 0.930 . S
C430 C429 1.400 . S
C430 C433 1.386 . S
H431 C447 0.930 . S
H432 C448 0.931 . S
C433 H421 0.929 . S
C433 C427 1.390 . S
C433 C430 1.386 . S
C434 C429 1.490 . S
C434 C436 1.395 . S
C434 C437 1.403 . S
H435 C441 0.930 . S
C436 H422 0.930 . S
C436 C434 1.395 . S
C436 C439 1.403 . S
C437 C434 1.403 . S
C437 C438 1.524 . S
C437 C441 1.400 . S
C438 H423 0.960 . S
C438 H424 0.960 . S
C438 H425 0.960 . S
C438 C437 1.524 . S
C439 C436 1.403 . S
C439 C440 1.392 . S
C439 C443 1.495 . S
C440 C439 1.392 . S
C440 C441 1.385 . S
C440 C442 1.478 . S
C441 H435 0.930 . S
C441 C437 1.400 . S
C441 C440 1.385 . S
C442 C440 1.478 . S
C442 C444 1.381 . S
C442 C448 1.383 . S
C443 C439 1.495 . S
C443 H449 0.959 . S
C443 H450 0.961 . S
C443 H451 0.960 . S
C444 C442 1.381 . S
C444 C445 1.394 . S
C444 H452 0.930 . S
C445 C444 1.394 . S
C445 C446 1.383 . S
C445 H453 0.929 . S
C446 C445 1.383 . S
C446 C447 1.377 . S
C447 H431 0.930 . S
C447 C446 1.377 . S
C447 C448 1.379 . S
C448 H432 0.931 . S
C448 C442 1.383 . S
C448 C447 1.379 . S
H449 C443 0.959 . S
H450 C443 0.961 . S
H451 C443 0.960 . S
H452 C444 0.930 . S
H453 C445 0.929 . S
H454 C462 0.929 . S
H455 C464 0.930 . S
H456 C466 0.930 . S
H457 C469 0.929 . S
H458 C472 0.930 . S
H459 C474 0.960 . S
H460 C474 0.960 . S
H461 C474 0.960 . S
C462 H454 0.929 . S
C462 C463 1.377 . S
C462 C464 1.384 . S
C463 C462 1.377 . S
C463 C469 1.390 . S
C464 H455 0.930 . S
C464 C462 1.384 . S
C464 C465 1.372 . S
C465 C464 1.372 . S
C465 C466 1.400 . S
C465 C470 1.490 . S
C466 H456 0.930 . S
C466 C465 1.400 . S
C466 C469 1.386 . S
H467 C483 0.930 . S
H468 C484 0.931 . S
C469 H457 0.929 . S
C469 C463 1.390 . S
C469 C466 1.386 . S
C470 C465 1.490 . S
C470 C472 1.395 . S
C470 C473 1.403 . S
H471 C477 0.930 . S
C472 H458 0.930 . S
C472 C470 1.395 . S
C472 C475 1.403 . S
C473 C470 1.403 . S
C473 C474 1.524 . S
C473 C477 1.400 . S
C474 H459 0.960 . S
C474 H460 0.960 . S
C474 H461 0.960 . S
C474 C473 1.524 . S
C475 C472 1.403 . S
C475 C476 1.392 . S
C475 C479 1.495 . S
C476 C475 1.392 . S
C476 C477 1.385 . S
C476 C478 1.478 . S
C477 H471 0.930 . S
C477 C473 1.400 . S
C477 C476 1.385 . S
C478 C476 1.478 . S
C478 C480 1.381 . S
C478 C484 1.383 . S
C479 C475 1.495 . S
C479 H485 0.959 . S
C479 H486 0.961 . S
C479 H487 0.960 . S
C480 C478 1.381 . S
C480 C481 1.394 . S
C480 H488 0.930 . S
C481 C480 1.394 . S
C481 C482 1.383 . S
C481 H489 0.929 . S
C482 C481 1.383 . S
C482 C483 1.377 . S
C483 H467 0.930 . S
C483 C482 1.377 . S
C483 C484 1.379 . S
C484 H468 0.931 . S
C484 C478 1.383 . S
C484 C483 1.379 . S
H485 C479 0.959 . S
H486 C479 0.961 . S
H487 C479 0.960 . S
H488 C480 0.930 . S
H489 C481 0.929 . S
H490 C498 0.929 1_554 S
H491 C500 0.930 . S
H492 C502 0.930 . S
H493 C505 0.929 . S
H494 C508 0.930 . S
H495 C510 0.960 . S
H496 C510 0.960 . S
H497 C510 0.960 . S
C498 H490 0.929 1_556 S
C498 C499 1.377 . S
C498 C500 1.384 . S
C499 C498 1.377 . S
C499 C505 1.390 . S
C500 H491 0.930 . S
C500 C498 1.384 . S
C500 C501 1.372 . S
C501 C500 1.372 . S
C501 C502 1.400 . S
C501 C506 1.490 . S
C502 H492 0.930 . S
C502 C501 1.400 . S
C502 C505 1.386 . S
H503 C519 0.930 . S
H504 C520 0.931 . S
C505 H493 0.929 . S
C505 C499 1.390 . S
C505 C502 1.386 . S
C506 C501 1.490 . S
C506 C508 1.395 . S
C506 C509 1.403 . S
H507 C513 0.930 . S
C508 H494 0.930 . S
C508 C506 1.395 . S
C508 C511 1.403 . S
C509 C506 1.403 . S
C509 C510 1.524 . S
C509 C513 1.400 . S
C510 H495 0.960 . S
C510 H496 0.960 . S
C510 H497 0.960 . S
C510 C509 1.524 . S
C511 C508 1.403 . S
C511 C512 1.392 . S
C511 C515 1.495 . S
C512 C511 1.392 . S
C512 C513 1.385 . S
C512 C514 1.478 . S
C513 H507 0.930 . S
C513 C509 1.400 . S
C513 C512 1.385 . S
C514 C512 1.478 . S
C514 C516 1.381 . S
C514 C520 1.383 . S
C515 C511 1.495 . S
C515 H521 0.959 . S
C515 H522 0.961 . S
C515 H523 0.960 . S
C516 C514 1.381 . S
C516 C517 1.394 . S
C516 H524 0.930 . S
C517 C516 1.394 . S
C517 C518 1.383 . S
C517 H525 0.929 . S
C518 C517 1.383 . S
C518 C519 1.377 . S
C519 H503 0.930 . S
C519 C518 1.377 . S
C519 C520 1.379 . S
C520 H504 0.931 . S
C520 C514 1.383 . S
C520 C519 1.379 . S
H521 C515 0.959 . S
H522 C515 0.961 . S
H523 C515 0.960 . S
H524 C516 0.930 . S
H525 C517 0.929 . S
C122 C67 1.217 . S
C103 C43 1.395 . S
C139 C4 1.430 . S
C158 C91 1.242 . S
C175 C17 1.561 . S
C194 C70 1.377 . S
C211 C30 1.609 . S
C230 C88 1.442 . S
C266 C68 1.428 . S
C247 C9 1.470 . S
C302 C90 1.549 . S
C283 C21 1.592 . S
C319 C34 1.575 . S
C338 C69 1.507 . S
C355 C48 1.491 . S
C374 C89 1.445 . S
C410 C87 1.487 . S
C391 C22 1.557 . S
C446 C66 1.529 . S
C427 C35 1.568 . S
C482 C86 1.451 . S
C463 C47 1.487 . S
C499 C8 1.500 1_556 S
C518 C65 1.417 . S
