# Generated by pormake.
# Topology ana-f, (3,3)-cn, num edge types: 1
# Building blocks:
#     Node 0, Type 0, BuildingBlock: WUSLED_clean_sbu_0, # of connection points: 3
#     Node 1, Type 0, BuildingBlock: WUSLED_clean_sbu_0, # of connection points: 3
#     Node 2, Type 0, BuildingBlock: WUSLED_clean_sbu_0, # of connection points: 3
#     Node 3, Type 0, BuildingBlock: WUSLED_clean_sbu_0, # of connection points: 3
#     Node 4, Type 0, BuildingBlock: WUSLED_clean_sbu_0, # of connection points: 3
#     Node 5, Type 0, BuildingBlock: WUSLED_clean_sbu_0, # of connection points: 3
#     Node 6, Type 0, BuildingBlock: WUSLED_clean_sbu_0, # of connection points: 3
#     Node 7, Type 0, BuildingBlock: WUSLED_clean_sbu_0, # of connection points: 3
#     Node 8, Type 0, BuildingBlock: WUSLED_clean_sbu_0, # of connection points: 3
#     Node 9, Type 0, BuildingBlock: WUSLED_clean_sbu_0, # of connection points: 3
#     Node 10, Type 0, BuildingBlock: WUSLED_clean_sbu_0, # of connection points: 3
#     Node 11, Type 0, BuildingBlock: WUSLED_clean_sbu_0, # of connection points: 3
#     Node 12, Type 0, BuildingBlock: WUSLED_clean_sbu_0, # of connection points: 3
#     Node 13, Type 0, BuildingBlock: WUSLED_clean_sbu_0, # of connection points: 3
#     Node 14, Type 0, BuildingBlock: WUSLED_clean_sbu_0, # of connection points: 3
#     Node 15, Type 0, BuildingBlock: WUSLED_clean_sbu_0, # of connection points: 3
#     Node 16, Type 0, BuildingBlock: WUSLED_clean_sbu_0, # of connection points: 3
#     Node 17, Type 0, BuildingBlock: WUSLED_clean_sbu_0, # of connection points: 3
#     Node 18, Type 0, BuildingBlock: WUSLED_clean_sbu_0, # of connection points: 3
#     Node 19, Type 0, BuildingBlock: WUSLED_clean_sbu_0, # of connection points: 3
#     Node 20, Type 0, BuildingBlock: WUSLED_clean_sbu_0, # of connection points: 3
#     Node 21, Type 0, BuildingBlock: WUSLED_clean_sbu_0, # of connection points: 3
#     Node 22, Type 0, BuildingBlock: WUSLED_clean_sbu_0, # of connection points: 3
#     Node 23, Type 0, BuildingBlock: WUSLED_clean_sbu_0, # of connection points: 3
#     Node 24, Type 0, BuildingBlock: WUSLED_clean_sbu_0, # of connection points: 3
#     Node 25, Type 0, BuildingBlock: WUSLED_clean_sbu_0, # of connection points: 3
#     Node 26, Type 0, BuildingBlock: WUSLED_clean_sbu_0, # of connection points: 3
#     Node 27, Type 0, BuildingBlock: WUSLED_clean_sbu_0, # of connection points: 3
#     Node 28, Type 0, BuildingBlock: WUSLED_clean_sbu_0, # of connection points: 3
#     Node 29, Type 0, BuildingBlock: WUSLED_clean_sbu_0, # of connection points: 3
#     Node 30, Type 0, BuildingBlock: WUSLED_clean_sbu_0, # of connection points: 3
#     Node 31, Type 0, BuildingBlock: WUSLED_clean_sbu_0, # of connection points: 3
#     Node 32, Type 0, BuildingBlock: WUSLED_clean_sbu_0, # of connection points: 3
#     Node 33, Type 0, BuildingBlock: WUSLED_clean_sbu_0, # of connection points: 3
#     Node 34, Type 0, BuildingBlock: WUSLED_clean_sbu_0, # of connection points: 3
#     Node 35, Type 0, BuildingBlock: WUSLED_clean_sbu_0, # of connection points: 3
#     Node 36, Type 0, BuildingBlock: WUSLED_clean_sbu_0, # of connection points: 3
#     Node 37, Type 0, BuildingBlock: WUSLED_clean_sbu_0, # of connection points: 3
#     Node 38, Type 0, BuildingBlock: WUSLED_clean_sbu_0, # of connection points: 3
#     Node 39, Type 0, BuildingBlock: WUSLED_clean_sbu_0, # of connection points: 3
#     Node 40, Type 0, BuildingBlock: WUSLED_clean_sbu_0, # of connection points: 3
#     Node 41, Type 0, BuildingBlock: WUSLED_clean_sbu_0, # of connection points: 3
#     Node 42, Type 0, BuildingBlock: WUSLED_clean_sbu_0, # of connection points: 3
#     Node 43, Type 0, BuildingBlock: WUSLED_clean_sbu_0, # of connection points: 3
#     Node 44, Type 0, BuildingBlock: WUSLED_clean_sbu_0, # of connection points: 3
#     Node 45, Type 0, BuildingBlock: WUSLED_clean_sbu_0, # of connection points: 3
#     Node 46, Type 0, BuildingBlock: WUSLED_clean_sbu_0, # of connection points: 3
#     Node 47, Type 0, BuildingBlock: WUSLED_clean_sbu_0, # of connection points: 3
#     Node 48, Type 0, BuildingBlock: WUSLED_clean_sbu_0, # of connection points: 3
#     Node 49, Type 0, BuildingBlock: WUSLED_clean_sbu_0, # of connection points: 3
#     Node 50, Type 0, BuildingBlock: WUSLED_clean_sbu_0, # of connection points: 3
#     Node 51, Type 0, BuildingBlock: WUSLED_clean_sbu_0, # of connection points: 3
#     Node 52, Type 0, BuildingBlock: WUSLED_clean_sbu_0, # of connection points: 3
#     Node 53, Type 0, BuildingBlock: WUSLED_clean_sbu_0, # of connection points: 3
#     Node 54, Type 0, BuildingBlock: WUSLED_clean_sbu_0, # of connection points: 3
#     Node 55, Type 0, BuildingBlock: WUSLED_clean_sbu_0, # of connection points: 3
#     Node 56, Type 0, BuildingBlock: WUSLED_clean_sbu_0, # of connection points: 3
#     Node 57, Type 0, BuildingBlock: WUSLED_clean_sbu_0, # of connection points: 3
#     Node 58, Type 0, BuildingBlock: WUSLED_clean_sbu_0, # of connection points: 3
#     Node 59, Type 0, BuildingBlock: WUSLED_clean_sbu_0, # of connection points: 3
#     Node 60, Type 0, BuildingBlock: WUSLED_clean_sbu_0, # of connection points: 3
#     Node 61, Type 0, BuildingBlock: WUSLED_clean_sbu_0, # of connection points: 3
#     Node 62, Type 0, BuildingBlock: WUSLED_clean_sbu_0, # of connection points: 3
#     Node 63, Type 0, BuildingBlock: WUSLED_clean_sbu_0, # of connection points: 3
#     Node 64, Type 0, BuildingBlock: WUSLED_clean_sbu_0, # of connection points: 3
#     Node 65, Type 0, BuildingBlock: WUSLED_clean_sbu_0, # of connection points: 3
#     Node 66, Type 0, BuildingBlock: WUSLED_clean_sbu_0, # of connection points: 3
#     Node 67, Type 0, BuildingBlock: WUSLED_clean_sbu_0, # of connection points: 3
#     Node 68, Type 0, BuildingBlock: WUSLED_clean_sbu_0, # of connection points: 3
#     Node 69, Type 0, BuildingBlock: WUSLED_clean_sbu_0, # of connection points: 3
#     Node 70, Type 0, BuildingBlock: WUSLED_clean_sbu_0, # of connection points: 3
#     Node 71, Type 0, BuildingBlock: WUSLED_clean_sbu_0, # of connection points: 3
#     Node 72, Type 0, BuildingBlock: WUSLED_clean_sbu_0, # of connection points: 3
#     Node 73, Type 0, BuildingBlock: WUSLED_clean_sbu_0, # of connection points: 3
#     Node 74, Type 0, BuildingBlock: WUSLED_clean_sbu_0, # of connection points: 3
#     Node 75, Type 0, BuildingBlock: WUSLED_clean_sbu_0, # of connection points: 3
#     Node 76, Type 0, BuildingBlock: WUSLED_clean_sbu_0, # of connection points: 3
#     Node 77, Type 0, BuildingBlock: WUSLED_clean_sbu_0, # of connection points: 3
#     Node 78, Type 0, BuildingBlock: WUSLED_clean_sbu_0, # of connection points: 3
#     Node 79, Type 0, BuildingBlock: WUSLED_clean_sbu_0, # of connection points: 3
#     Node 80, Type 0, BuildingBlock: WUSLED_clean_sbu_0, # of connection points: 3
#     Node 81, Type 0, BuildingBlock: WUSLED_clean_sbu_0, # of connection points: 3
#     Node 82, Type 0, BuildingBlock: WUSLED_clean_sbu_0, # of connection points: 3
#     Node 83, Type 0, BuildingBlock: WUSLED_clean_sbu_0, # of connection points: 3
#     Node 84, Type 0, BuildingBlock: WUSLED_clean_sbu_0, # of connection points: 3
#     Node 85, Type 0, BuildingBlock: WUSLED_clean_sbu_0, # of connection points: 3
#     Node 86, Type 0, BuildingBlock: WUSLED_clean_sbu_0, # of connection points: 3
#     Node 87, Type 0, BuildingBlock: WUSLED_clean_sbu_0, # of connection points: 3
#     Node 88, Type 0, BuildingBlock: WUSLED_clean_sbu_0, # of connection points: 3
#     Node 89, Type 0, BuildingBlock: WUSLED_clean_sbu_0, # of connection points: 3
#     Node 90, Type 0, BuildingBlock: WUSLED_clean_sbu_0, # of connection points: 3
#     Node 91, Type 0, BuildingBlock: WUSLED_clean_sbu_0, # of connection points: 3
#     Node 92, Type 0, BuildingBlock: WUSLED_clean_sbu_0, # of connection points: 3
#     Node 93, Type 0, BuildingBlock: WUSLED_clean_sbu_0, # of connection points: 3
#     Node 94, Type 0, BuildingBlock: WUSLED_clean_sbu_0, # of connection points: 3
#     Node 95, Type 0, BuildingBlock: WUSLED_clean_sbu_0, # of connection points: 3
#     Node 96, Type 1, BuildingBlock: KAKCAD_clean_linker_0, # of connection points: 3
#     Node 97, Type 1, BuildingBlock: KAKCAD_clean_linker_0, # of connection points: 3
#     Node 98, Type 1, BuildingBlock: KAKCAD_clean_linker_0, # of connection points: 3
#     Node 99, Type 1, BuildingBlock: KAKCAD_clean_linker_0, # of connection points: 3
#     Node 100, Type 1, BuildingBlock: KAKCAD_clean_linker_0, # of connection points: 3
#     Node 101, Type 1, BuildingBlock: KAKCAD_clean_linker_0, # of connection points: 3
#     Node 102, Type 1, BuildingBlock: KAKCAD_clean_linker_0, # of connection points: 3
#     Node 103, Type 1, BuildingBlock: KAKCAD_clean_linker_0, # of connection points: 3
#     Node 104, Type 1, BuildingBlock: KAKCAD_clean_linker_0, # of connection points: 3
#     Node 105, Type 1, BuildingBlock: KAKCAD_clean_linker_0, # of connection points: 3
#     Node 106, Type 1, BuildingBlock: KAKCAD_clean_linker_0, # of connection points: 3
#     Node 107, Type 1, BuildingBlock: KAKCAD_clean_linker_0, # of connection points: 3
#     Node 108, Type 1, BuildingBlock: KAKCAD_clean_linker_0, # of connection points: 3
#     Node 109, Type 1, BuildingBlock: KAKCAD_clean_linker_0, # of connection points: 3
#     Node 110, Type 1, BuildingBlock: KAKCAD_clean_linker_0, # of connection points: 3
#     Node 111, Type 1, BuildingBlock: KAKCAD_clean_linker_0, # of connection points: 3
#     Node 112, Type 1, BuildingBlock: KAKCAD_clean_linker_0, # of connection points: 3
#     Node 113, Type 1, BuildingBlock: KAKCAD_clean_linker_0, # of connection points: 3
#     Node 114, Type 1, BuildingBlock: KAKCAD_clean_linker_0, # of connection points: 3
#     Node 115, Type 1, BuildingBlock: KAKCAD_clean_linker_0, # of connection points: 3
#     Node 116, Type 1, BuildingBlock: KAKCAD_clean_linker_0, # of connection points: 3
#     Node 117, Type 1, BuildingBlock: KAKCAD_clean_linker_0, # of connection points: 3
#     Node 118, Type 1, BuildingBlock: KAKCAD_clean_linker_0, # of connection points: 3
#     Node 119, Type 1, BuildingBlock: KAKCAD_clean_linker_0, # of connection points: 3
#     Node 120, Type 1, BuildingBlock: KAKCAD_clean_linker_0, # of connection points: 3
#     Node 121, Type 1, BuildingBlock: KAKCAD_clean_linker_0, # of connection points: 3
#     Node 122, Type 1, BuildingBlock: KAKCAD_clean_linker_0, # of connection points: 3
#     Node 123, Type 1, BuildingBlock: KAKCAD_clean_linker_0, # of connection points: 3
#     Node 124, Type 1, BuildingBlock: KAKCAD_clean_linker_0, # of connection points: 3
#     Node 125, Type 1, BuildingBlock: KAKCAD_clean_linker_0, # of connection points: 3
#     Node 126, Type 1, BuildingBlock: KAKCAD_clean_linker_0, # of connection points: 3
#     Node 127, Type 1, BuildingBlock: KAKCAD_clean_linker_0, # of connection points: 3
#     Node 128, Type 1, BuildingBlock: KAKCAD_clean_linker_0, # of connection points: 3
#     Node 129, Type 1, BuildingBlock: KAKCAD_clean_linker_0, # of connection points: 3
#     Node 130, Type 1, BuildingBlock: KAKCAD_clean_linker_0, # of connection points: 3
#     Node 131, Type 1, BuildingBlock: KAKCAD_clean_linker_0, # of connection points: 3
#     Node 132, Type 1, BuildingBlock: KAKCAD_clean_linker_0, # of connection points: 3
#     Node 133, Type 1, BuildingBlock: KAKCAD_clean_linker_0, # of connection points: 3
#     Node 134, Type 1, BuildingBlock: KAKCAD_clean_linker_0, # of connection points: 3
#     Node 135, Type 1, BuildingBlock: KAKCAD_clean_linker_0, # of connection points: 3
#     Node 136, Type 1, BuildingBlock: KAKCAD_clean_linker_0, # of connection points: 3
#     Node 137, Type 1, BuildingBlock: KAKCAD_clean_linker_0, # of connection points: 3
#     Node 138, Type 1, BuildingBlock: KAKCAD_clean_linker_0, # of connection points: 3
#     Node 139, Type 1, BuildingBlock: KAKCAD_clean_linker_0, # of connection points: 3
#     Node 140, Type 1, BuildingBlock: KAKCAD_clean_linker_0, # of connection points: 3
#     Node 141, Type 1, BuildingBlock: KAKCAD_clean_linker_0, # of connection points: 3
#     Node 142, Type 1, BuildingBlock: KAKCAD_clean_linker_0, # of connection points: 3
#     Node 143, Type 1, BuildingBlock: KAKCAD_clean_linker_0, # of connection points: 3
#     Node 144, Type 1, BuildingBlock: KAKCAD_clean_linker_0, # of connection points: 3
#     Node 145, Type 1, BuildingBlock: KAKCAD_clean_linker_0, # of connection points: 3
#     Node 146, Type 1, BuildingBlock: KAKCAD_clean_linker_0, # of connection points: 3
#     Node 147, Type 1, BuildingBlock: KAKCAD_clean_linker_0, # of connection points: 3
#     Node 148, Type 1, BuildingBlock: KAKCAD_clean_linker_0, # of connection points: 3
#     Node 149, Type 1, BuildingBlock: KAKCAD_clean_linker_0, # of connection points: 3
#     Node 150, Type 1, BuildingBlock: KAKCAD_clean_linker_0, # of connection points: 3
#     Node 151, Type 1, BuildingBlock: KAKCAD_clean_linker_0, # of connection points: 3
#     Node 152, Type 1, BuildingBlock: KAKCAD_clean_linker_0, # of connection points: 3
#     Node 153, Type 1, BuildingBlock: KAKCAD_clean_linker_0, # of connection points: 3
#     Node 154, Type 1, BuildingBlock: KAKCAD_clean_linker_0, # of connection points: 3
#     Node 155, Type 1, BuildingBlock: KAKCAD_clean_linker_0, # of connection points: 3
#     Node 156, Type 1, BuildingBlock: KAKCAD_clean_linker_0, # of connection points: 3
#     Node 157, Type 1, BuildingBlock: KAKCAD_clean_linker_0, # of connection points: 3
#     Node 158, Type 1, BuildingBlock: KAKCAD_clean_linker_0, # of connection points: 3
#     Node 159, Type 1, BuildingBlock: KAKCAD_clean_linker_0, # of connection points: 3
#     Node 160, Type 1, BuildingBlock: KAKCAD_clean_linker_0, # of connection points: 3
#     Node 161, Type 1, BuildingBlock: KAKCAD_clean_linker_0, # of connection points: 3
#     Node 162, Type 1, BuildingBlock: KAKCAD_clean_linker_0, # of connection points: 3
#     Node 163, Type 1, BuildingBlock: KAKCAD_clean_linker_0, # of connection points: 3
#     Node 164, Type 1, BuildingBlock: KAKCAD_clean_linker_0, # of connection points: 3
#     Node 165, Type 1, BuildingBlock: KAKCAD_clean_linker_0, # of connection points: 3
#     Node 166, Type 1, BuildingBlock: KAKCAD_clean_linker_0, # of connection points: 3
#     Node 167, Type 1, BuildingBlock: KAKCAD_clean_linker_0, # of connection points: 3
#     Node 168, Type 1, BuildingBlock: KAKCAD_clean_linker_0, # of connection points: 3
#     Node 169, Type 1, BuildingBlock: KAKCAD_clean_linker_0, # of connection points: 3
#     Node 170, Type 1, BuildingBlock: KAKCAD_clean_linker_0, # of connection points: 3
#     Node 171, Type 1, BuildingBlock: KAKCAD_clean_linker_0, # of connection points: 3
#     Node 172, Type 1, BuildingBlock: KAKCAD_clean_linker_0, # of connection points: 3
#     Node 173, Type 1, BuildingBlock: KAKCAD_clean_linker_0, # of connection points: 3
#     Node 174, Type 1, BuildingBlock: KAKCAD_clean_linker_0, # of connection points: 3
#     Node 175, Type 1, BuildingBlock: KAKCAD_clean_linker_0, # of connection points: 3
#     Node 176, Type 1, BuildingBlock: KAKCAD_clean_linker_0, # of connection points: 3
#     Node 177, Type 1, BuildingBlock: KAKCAD_clean_linker_0, # of connection points: 3
#     Node 178, Type 1, BuildingBlock: KAKCAD_clean_linker_0, # of connection points: 3
#     Node 179, Type 1, BuildingBlock: KAKCAD_clean_linker_0, # of connection points: 3
#     Node 180, Type 1, BuildingBlock: KAKCAD_clean_linker_0, # of connection points: 3
#     Node 181, Type 1, BuildingBlock: KAKCAD_clean_linker_0, # of connection points: 3
#     Node 182, Type 1, BuildingBlock: KAKCAD_clean_linker_0, # of connection points: 3
#     Node 183, Type 1, BuildingBlock: KAKCAD_clean_linker_0, # of connection points: 3
#     Node 184, Type 1, BuildingBlock: KAKCAD_clean_linker_0, # of connection points: 3
#     Node 185, Type 1, BuildingBlock: KAKCAD_clean_linker_0, # of connection points: 3
#     Node 186, Type 1, BuildingBlock: KAKCAD_clean_linker_0, # of connection points: 3
#     Node 187, Type 1, BuildingBlock: KAKCAD_clean_linker_0, # of connection points: 3
#     Node 188, Type 1, BuildingBlock: KAKCAD_clean_linker_0, # of connection points: 3
#     Node 189, Type 1, BuildingBlock: KAKCAD_clean_linker_0, # of connection points: 3
#     Node 190, Type 1, BuildingBlock: KAKCAD_clean_linker_0, # of connection points: 3
#     Node 191, Type 1, BuildingBlock: KAKCAD_clean_linker_0, # of connection points: 3
#     Edge 192, Type (0, 1), BuildingBlock: AJUNOK_clean_linker_0, # of connection points: 2
#     Edge 193, Type (0, 1), BuildingBlock: AJUNOK_clean_linker_0, # of connection points: 2
#     Edge 194, Type (0, 1), BuildingBlock: AJUNOK_clean_linker_0, # of connection points: 2
#     Edge 195, Type (0, 1), BuildingBlock: AJUNOK_clean_linker_0, # of connection points: 2
#     Edge 196, Type (0, 1), BuildingBlock: AJUNOK_clean_linker_0, # of connection points: 2
#     Edge 197, Type (0, 1), BuildingBlock: AJUNOK_clean_linker_0, # of connection points: 2
#     Edge 198, Type (0, 1), BuildingBlock: AJUNOK_clean_linker_0, # of connection points: 2
#     Edge 199, Type (0, 1), BuildingBlock: AJUNOK_clean_linker_0, # of connection points: 2
#     Edge 200, Type (0, 1), BuildingBlock: AJUNOK_clean_linker_0, # of connection points: 2
#     Edge 201, Type (0, 1), BuildingBlock: AJUNOK_clean_linker_0, # of connection points: 2
#     Edge 202, Type (0, 1), BuildingBlock: AJUNOK_clean_linker_0, # of connection points: 2
#     Edge 203, Type (0, 1), BuildingBlock: AJUNOK_clean_linker_0, # of connection points: 2
#     Edge 204, Type (0, 1), BuildingBlock: AJUNOK_clean_linker_0, # of connection points: 2
#     Edge 205, Type (0, 1), BuildingBlock: AJUNOK_clean_linker_0, # of connection points: 2
#     Edge 206, Type (0, 1), BuildingBlock: AJUNOK_clean_linker_0, # of connection points: 2
#     Edge 207, Type (0, 1), BuildingBlock: AJUNOK_clean_linker_0, # of connection points: 2
#     Edge 208, Type (0, 1), BuildingBlock: AJUNOK_clean_linker_0, # of connection points: 2
#     Edge 209, Type (0, 1), BuildingBlock: AJUNOK_clean_linker_0, # of connection points: 2
#     Edge 210, Type (0, 1), BuildingBlock: AJUNOK_clean_linker_0, # of connection points: 2
#     Edge 211, Type (0, 1), BuildingBlock: AJUNOK_clean_linker_0, # of connection points: 2
#     Edge 212, Type (0, 1), BuildingBlock: AJUNOK_clean_linker_0, # of connection points: 2
#     Edge 213, Type (0, 1), BuildingBlock: AJUNOK_clean_linker_0, # of connection points: 2
#     Edge 214, Type (0, 1), BuildingBlock: AJUNOK_clean_linker_0, # of connection points: 2
#     Edge 215, Type (0, 1), BuildingBlock: AJUNOK_clean_linker_0, # of connection points: 2
#     Edge 216, Type (0, 1), BuildingBlock: AJUNOK_clean_linker_0, # of connection points: 2
#     Edge 217, Type (0, 1), BuildingBlock: AJUNOK_clean_linker_0, # of connection points: 2
#     Edge 218, Type (0, 1), BuildingBlock: AJUNOK_clean_linker_0, # of connection points: 2
#     Edge 219, Type (0, 1), BuildingBlock: AJUNOK_clean_linker_0, # of connection points: 2
#     Edge 220, Type (0, 1), BuildingBlock: AJUNOK_clean_linker_0, # of connection points: 2
#     Edge 221, Type (0, 1), BuildingBlock: AJUNOK_clean_linker_0, # of connection points: 2
#     Edge 222, Type (0, 1), BuildingBlock: AJUNOK_clean_linker_0, # of connection points: 2
#     Edge 223, Type (0, 1), BuildingBlock: AJUNOK_clean_linker_0, # of connection points: 2
#     Edge 224, Type (0, 1), BuildingBlock: AJUNOK_clean_linker_0, # of connection points: 2
#     Edge 225, Type (0, 1), BuildingBlock: AJUNOK_clean_linker_0, # of connection points: 2
#     Edge 226, Type (0, 1), BuildingBlock: AJUNOK_clean_linker_0, # of connection points: 2
#     Edge 227, Type (0, 1), BuildingBlock: AJUNOK_clean_linker_0, # of connection points: 2
#     Edge 228, Type (0, 1), BuildingBlock: AJUNOK_clean_linker_0, # of connection points: 2
#     Edge 229, Type (0, 1), BuildingBlock: AJUNOK_clean_linker_0, # of connection points: 2
#     Edge 230, Type (0, 1), BuildingBlock: AJUNOK_clean_linker_0, # of connection points: 2
#     Edge 231, Type (0, 1), BuildingBlock: AJUNOK_clean_linker_0, # of connection points: 2
#     Edge 232, Type (0, 1), BuildingBlock: AJUNOK_clean_linker_0, # of connection points: 2
#     Edge 233, Type (0, 1), BuildingBlock: AJUNOK_clean_linker_0, # of connection points: 2
#     Edge 234, Type (0, 1), BuildingBlock: AJUNOK_clean_linker_0, # of connection points: 2
#     Edge 235, Type (0, 1), BuildingBlock: AJUNOK_clean_linker_0, # of connection points: 2
#     Edge 236, Type (0, 1), BuildingBlock: AJUNOK_clean_linker_0, # of connection points: 2
#     Edge 237, Type (0, 1), BuildingBlock: AJUNOK_clean_linker_0, # of connection points: 2
#     Edge 238, Type (0, 1), BuildingBlock: AJUNOK_clean_linker_0, # of connection points: 2
#     Edge 239, Type (0, 1), BuildingBlock: AJUNOK_clean_linker_0, # of connection points: 2
#     Edge 240, Type (0, 1), BuildingBlock: AJUNOK_clean_linker_0, # of connection points: 2
#     Edge 241, Type (0, 1), BuildingBlock: AJUNOK_clean_linker_0, # of connection points: 2
#     Edge 242, Type (0, 1), BuildingBlock: AJUNOK_clean_linker_0, # of connection points: 2
#     Edge 243, Type (0, 1), BuildingBlock: AJUNOK_clean_linker_0, # of connection points: 2
#     Edge 244, Type (0, 1), BuildingBlock: AJUNOK_clean_linker_0, # of connection points: 2
#     Edge 245, Type (0, 1), BuildingBlock: AJUNOK_clean_linker_0, # of connection points: 2
#     Edge 246, Type (0, 1), BuildingBlock: AJUNOK_clean_linker_0, # of connection points: 2
#     Edge 247, Type (0, 1), BuildingBlock: AJUNOK_clean_linker_0, # of connection points: 2
#     Edge 248, Type (0, 1), BuildingBlock: AJUNOK_clean_linker_0, # of connection points: 2
#     Edge 249, Type (0, 1), BuildingBlock: AJUNOK_clean_linker_0, # of connection points: 2
#     Edge 250, Type (0, 1), BuildingBlock: AJUNOK_clean_linker_0, # of connection points: 2
#     Edge 251, Type (0, 1), BuildingBlock: AJUNOK_clean_linker_0, # of connection points: 2
#     Edge 252, Type (0, 1), BuildingBlock: AJUNOK_clean_linker_0, # of connection points: 2
#     Edge 253, Type (0, 1), BuildingBlock: AJUNOK_clean_linker_0, # of connection points: 2
#     Edge 254, Type (0, 1), BuildingBlock: AJUNOK_clean_linker_0, # of connection points: 2
#     Edge 255, Type (0, 1), BuildingBlock: AJUNOK_clean_linker_0, # of connection points: 2
#     Edge 256, Type (0, 1), BuildingBlock: AJUNOK_clean_linker_0, # of connection points: 2
#     Edge 257, Type (0, 1), BuildingBlock: AJUNOK_clean_linker_0, # of connection points: 2
#     Edge 258, Type (0, 1), BuildingBlock: AJUNOK_clean_linker_0, # of connection points: 2
#     Edge 259, Type (0, 1), BuildingBlock: AJUNOK_clean_linker_0, # of connection points: 2
#     Edge 260, Type (0, 1), BuildingBlock: AJUNOK_clean_linker_0, # of connection points: 2
#     Edge 261, Type (0, 1), BuildingBlock: AJUNOK_clean_linker_0, # of connection points: 2
#     Edge 262, Type (0, 1), BuildingBlock: AJUNOK_clean_linker_0, # of connection points: 2
#     Edge 263, Type (0, 1), BuildingBlock: AJUNOK_clean_linker_0, # of connection points: 2
#     Edge 264, Type (0, 1), BuildingBlock: AJUNOK_clean_linker_0, # of connection points: 2
#     Edge 265, Type (0, 1), BuildingBlock: AJUNOK_clean_linker_0, # of connection points: 2
#     Edge 266, Type (0, 1), BuildingBlock: AJUNOK_clean_linker_0, # of connection points: 2
#     Edge 267, Type (0, 1), BuildingBlock: AJUNOK_clean_linker_0, # of connection points: 2
#     Edge 268, Type (0, 1), BuildingBlock: AJUNOK_clean_linker_0, # of connection points: 2
#     Edge 269, Type (0, 1), BuildingBlock: AJUNOK_clean_linker_0, # of connection points: 2
#     Edge 270, Type (0, 1), BuildingBlock: AJUNOK_clean_linker_0, # of connection points: 2
#     Edge 271, Type (0, 1), BuildingBlock: AJUNOK_clean_linker_0, # of connection points: 2
#     Edge 272, Type (0, 1), BuildingBlock: AJUNOK_clean_linker_0, # of connection points: 2
#     Edge 273, Type (0, 1), BuildingBlock: AJUNOK_clean_linker_0, # of connection points: 2
#     Edge 274, Type (0, 1), BuildingBlock: AJUNOK_clean_linker_0, # of connection points: 2
#     Edge 275, Type (0, 1), BuildingBlock: AJUNOK_clean_linker_0, # of connection points: 2
#     Edge 276, Type (0, 1), BuildingBlock: AJUNOK_clean_linker_0, # of connection points: 2
#     Edge 277, Type (0, 1), BuildingBlock: AJUNOK_clean_linker_0, # of connection points: 2
#     Edge 278, Type (0, 1), BuildingBlock: AJUNOK_clean_linker_0, # of connection points: 2
#     Edge 279, Type (0, 1), BuildingBlock: AJUNOK_clean_linker_0, # of connection points: 2
#     Edge 280, Type (0, 1), BuildingBlock: AJUNOK_clean_linker_0, # of connection points: 2
#     Edge 281, Type (0, 1), BuildingBlock: AJUNOK_clean_linker_0, # of connection points: 2
#     Edge 282, Type (0, 1), BuildingBlock: AJUNOK_clean_linker_0, # of connection points: 2
#     Edge 283, Type (0, 1), BuildingBlock: AJUNOK_clean_linker_0, # of connection points: 2
#     Edge 284, Type (0, 1), BuildingBlock: AJUNOK_clean_linker_0, # of connection points: 2
#     Edge 285, Type (0, 1), BuildingBlock: AJUNOK_clean_linker_0, # of connection points: 2
#     Edge 286, Type (0, 1), BuildingBlock: AJUNOK_clean_linker_0, # of connection points: 2
#     Edge 287, Type (0, 1), BuildingBlock: AJUNOK_clean_linker_0, # of connection points: 2
#     Edge 288, Type (0, 1), BuildingBlock: AJUNOK_clean_linker_0, # of connection points: 2
#     Edge 289, Type (0, 1), BuildingBlock: AJUNOK_clean_linker_0, # of connection points: 2
#     Edge 290, Type (0, 1), BuildingBlock: AJUNOK_clean_linker_0, # of connection points: 2
#     Edge 291, Type (0, 1), BuildingBlock: AJUNOK_clean_linker_0, # of connection points: 2
#     Edge 292, Type (0, 1), BuildingBlock: AJUNOK_clean_linker_0, # of connection points: 2
#     Edge 293, Type (0, 1), BuildingBlock: AJUNOK_clean_linker_0, # of connection points: 2
#     Edge 294, Type (0, 1), BuildingBlock: AJUNOK_clean_linker_0, # of connection points: 2
#     Edge 295, Type (0, 1), BuildingBlock: AJUNOK_clean_linker_0, # of connection points: 2
#     Edge 296, Type (0, 1), BuildingBlock: AJUNOK_clean_linker_0, # of connection points: 2
#     Edge 297, Type (0, 1), BuildingBlock: AJUNOK_clean_linker_0, # of connection points: 2
#     Edge 298, Type (0, 1), BuildingBlock: AJUNOK_clean_linker_0, # of connection points: 2
#     Edge 299, Type (0, 1), BuildingBlock: AJUNOK_clean_linker_0, # of connection points: 2
#     Edge 300, Type (0, 1), BuildingBlock: AJUNOK_clean_linker_0, # of connection points: 2
#     Edge 301, Type (0, 1), BuildingBlock: AJUNOK_clean_linker_0, # of connection points: 2
#     Edge 302, Type (0, 1), BuildingBlock: AJUNOK_clean_linker_0, # of connection points: 2
#     Edge 303, Type (0, 1), BuildingBlock: AJUNOK_clean_linker_0, # of connection points: 2
#     Edge 304, Type (0, 1), BuildingBlock: AJUNOK_clean_linker_0, # of connection points: 2
#     Edge 305, Type (0, 1), BuildingBlock: AJUNOK_clean_linker_0, # of connection points: 2
#     Edge 306, Type (0, 1), BuildingBlock: AJUNOK_clean_linker_0, # of connection points: 2
#     Edge 307, Type (0, 1), BuildingBlock: AJUNOK_clean_linker_0, # of connection points: 2
#     Edge 308, Type (0, 1), BuildingBlock: AJUNOK_clean_linker_0, # of connection points: 2
#     Edge 309, Type (0, 1), BuildingBlock: AJUNOK_clean_linker_0, # of connection points: 2
#     Edge 310, Type (0, 1), BuildingBlock: AJUNOK_clean_linker_0, # of connection points: 2
#     Edge 311, Type (0, 1), BuildingBlock: AJUNOK_clean_linker_0, # of connection points: 2
#     Edge 312, Type (0, 1), BuildingBlock: AJUNOK_clean_linker_0, # of connection points: 2
#     Edge 313, Type (0, 1), BuildingBlock: AJUNOK_clean_linker_0, # of connection points: 2
#     Edge 314, Type (0, 1), BuildingBlock: AJUNOK_clean_linker_0, # of connection points: 2
#     Edge 315, Type (0, 1), BuildingBlock: AJUNOK_clean_linker_0, # of connection points: 2
#     Edge 316, Type (0, 1), BuildingBlock: AJUNOK_clean_linker_0, # of connection points: 2
#     Edge 317, Type (0, 1), BuildingBlock: AJUNOK_clean_linker_0, # of connection points: 2
#     Edge 318, Type (0, 1), BuildingBlock: AJUNOK_clean_linker_0, # of connection points: 2
#     Edge 319, Type (0, 1), BuildingBlock: AJUNOK_clean_linker_0, # of connection points: 2
#     Edge 320, Type (0, 1), BuildingBlock: AJUNOK_clean_linker_0, # of connection points: 2
#     Edge 321, Type (0, 1), BuildingBlock: AJUNOK_clean_linker_0, # of connection points: 2
#     Edge 322, Type (0, 1), BuildingBlock: AJUNOK_clean_linker_0, # of connection points: 2
#     Edge 323, Type (0, 1), BuildingBlock: AJUNOK_clean_linker_0, # of connection points: 2
#     Edge 324, Type (0, 1), BuildingBlock: AJUNOK_clean_linker_0, # of connection points: 2
#     Edge 325, Type (0, 1), BuildingBlock: AJUNOK_clean_linker_0, # of connection points: 2
#     Edge 326, Type (0, 1), BuildingBlock: AJUNOK_clean_linker_0, # of connection points: 2
#     Edge 327, Type (0, 1), BuildingBlock: AJUNOK_clean_linker_0, # of connection points: 2
#     Edge 328, Type (0, 1), BuildingBlock: AJUNOK_clean_linker_0, # of connection points: 2
#     Edge 329, Type (0, 1), BuildingBlock: AJUNOK_clean_linker_0, # of connection points: 2
#     Edge 330, Type (0, 1), BuildingBlock: AJUNOK_clean_linker_0, # of connection points: 2
#     Edge 331, Type (0, 1), BuildingBlock: AJUNOK_clean_linker_0, # of connection points: 2
#     Edge 332, Type (0, 1), BuildingBlock: AJUNOK_clean_linker_0, # of connection points: 2
#     Edge 333, Type (0, 1), BuildingBlock: AJUNOK_clean_linker_0, # of connection points: 2
#     Edge 334, Type (0, 1), BuildingBlock: AJUNOK_clean_linker_0, # of connection points: 2
#     Edge 335, Type (0, 1), BuildingBlock: AJUNOK_clean_linker_0, # of connection points: 2
#     Edge 336, Type (0, 1), BuildingBlock: AJUNOK_clean_linker_0, # of connection points: 2
#     Edge 337, Type (0, 1), BuildingBlock: AJUNOK_clean_linker_0, # of connection points: 2
#     Edge 338, Type (0, 1), BuildingBlock: AJUNOK_clean_linker_0, # of connection points: 2
#     Edge 339, Type (0, 1), BuildingBlock: AJUNOK_clean_linker_0, # of connection points: 2
#     Edge 340, Type (0, 1), BuildingBlock: AJUNOK_clean_linker_0, # of connection points: 2
#     Edge 341, Type (0, 1), BuildingBlock: AJUNOK_clean_linker_0, # of connection points: 2
#     Edge 342, Type (0, 1), BuildingBlock: AJUNOK_clean_linker_0, # of connection points: 2
#     Edge 343, Type (0, 1), BuildingBlock: AJUNOK_clean_linker_0, # of connection points: 2
#     Edge 344, Type (0, 1), BuildingBlock: AJUNOK_clean_linker_0, # of connection points: 2
#     Edge 345, Type (0, 1), BuildingBlock: AJUNOK_clean_linker_0, # of connection points: 2
#     Edge 346, Type (0, 1), BuildingBlock: AJUNOK_clean_linker_0, # of connection points: 2
#     Edge 347, Type (0, 1), BuildingBlock: AJUNOK_clean_linker_0, # of connection points: 2
#     Edge 348, Type (0, 1), BuildingBlock: AJUNOK_clean_linker_0, # of connection points: 2
#     Edge 349, Type (0, 1), BuildingBlock: AJUNOK_clean_linker_0, # of connection points: 2
#     Edge 350, Type (0, 1), BuildingBlock: AJUNOK_clean_linker_0, # of connection points: 2
#     Edge 351, Type (0, 1), BuildingBlock: AJUNOK_clean_linker_0, # of connection points: 2
#     Edge 352, Type (0, 1), BuildingBlock: AJUNOK_clean_linker_0, # of connection points: 2
#     Edge 353, Type (0, 1), BuildingBlock: AJUNOK_clean_linker_0, # of connection points: 2
#     Edge 354, Type (0, 1), BuildingBlock: AJUNOK_clean_linker_0, # of connection points: 2
#     Edge 355, Type (0, 1), BuildingBlock: AJUNOK_clean_linker_0, # of connection points: 2
#     Edge 356, Type (0, 1), BuildingBlock: AJUNOK_clean_linker_0, # of connection points: 2
#     Edge 357, Type (0, 1), BuildingBlock: AJUNOK_clean_linker_0, # of connection points: 2
#     Edge 358, Type (0, 1), BuildingBlock: AJUNOK_clean_linker_0, # of connection points: 2
#     Edge 359, Type (0, 1), BuildingBlock: AJUNOK_clean_linker_0, # of connection points: 2
#     Edge 360, Type (0, 1), BuildingBlock: AJUNOK_clean_linker_0, # of connection points: 2
#     Edge 361, Type (0, 1), BuildingBlock: AJUNOK_clean_linker_0, # of connection points: 2
#     Edge 362, Type (0, 1), BuildingBlock: AJUNOK_clean_linker_0, # of connection points: 2
#     Edge 363, Type (0, 1), BuildingBlock: AJUNOK_clean_linker_0, # of connection points: 2
#     Edge 364, Type (0, 1), BuildingBlock: AJUNOK_clean_linker_0, # of connection points: 2
#     Edge 365, Type (0, 1), BuildingBlock: AJUNOK_clean_linker_0, # of connection points: 2
#     Edge 366, Type (0, 1), BuildingBlock: AJUNOK_clean_linker_0, # of connection points: 2
#     Edge 367, Type (0, 1), BuildingBlock: AJUNOK_clean_linker_0, # of connection points: 2
#     Edge 368, Type (0, 1), BuildingBlock: AJUNOK_clean_linker_0, # of connection points: 2
#     Edge 369, Type (0, 1), BuildingBlock: AJUNOK_clean_linker_0, # of connection points: 2
#     Edge 370, Type (0, 1), BuildingBlock: AJUNOK_clean_linker_0, # of connection points: 2
#     Edge 371, Type (0, 1), BuildingBlock: AJUNOK_clean_linker_0, # of connection points: 2
#     Edge 372, Type (0, 1), BuildingBlock: AJUNOK_clean_linker_0, # of connection points: 2
#     Edge 373, Type (0, 1), BuildingBlock: AJUNOK_clean_linker_0, # of connection points: 2
#     Edge 374, Type (0, 1), BuildingBlock: AJUNOK_clean_linker_0, # of connection points: 2
#     Edge 375, Type (0, 1), BuildingBlock: AJUNOK_clean_linker_0, # of connection points: 2
#     Edge 376, Type (0, 1), BuildingBlock: AJUNOK_clean_linker_0, # of connection points: 2
#     Edge 377, Type (0, 1), BuildingBlock: AJUNOK_clean_linker_0, # of connection points: 2
#     Edge 378, Type (0, 1), BuildingBlock: AJUNOK_clean_linker_0, # of connection points: 2
#     Edge 379, Type (0, 1), BuildingBlock: AJUNOK_clean_linker_0, # of connection points: 2
#     Edge 380, Type (0, 1), BuildingBlock: AJUNOK_clean_linker_0, # of connection points: 2
#     Edge 381, Type (0, 1), BuildingBlock: AJUNOK_clean_linker_0, # of connection points: 2
#     Edge 382, Type (0, 1), BuildingBlock: AJUNOK_clean_linker_0, # of connection points: 2
#     Edge 383, Type (0, 1), BuildingBlock: AJUNOK_clean_linker_0, # of connection points: 2
#     Edge 384, Type (0, 1), BuildingBlock: AJUNOK_clean_linker_0, # of connection points: 2
#     Edge 385, Type (0, 1), BuildingBlock: AJUNOK_clean_linker_0, # of connection points: 2
#     Edge 386, Type (0, 1), BuildingBlock: AJUNOK_clean_linker_0, # of connection points: 2
#     Edge 387, Type (0, 1), BuildingBlock: AJUNOK_clean_linker_0, # of connection points: 2
#     Edge 388, Type (0, 1), BuildingBlock: AJUNOK_clean_linker_0, # of connection points: 2
#     Edge 389, Type (0, 1), BuildingBlock: AJUNOK_clean_linker_0, # of connection points: 2
#     Edge 390, Type (0, 1), BuildingBlock: AJUNOK_clean_linker_0, # of connection points: 2
#     Edge 391, Type (0, 1), BuildingBlock: AJUNOK_clean_linker_0, # of connection points: 2
#     Edge 392, Type (0, 1), BuildingBlock: AJUNOK_clean_linker_0, # of connection points: 2
#     Edge 393, Type (0, 1), BuildingBlock: AJUNOK_clean_linker_0, # of connection points: 2
#     Edge 394, Type (0, 1), BuildingBlock: AJUNOK_clean_linker_0, # of connection points: 2
#     Edge 395, Type (0, 1), BuildingBlock: AJUNOK_clean_linker_0, # of connection points: 2
#     Edge 396, Type (0, 1), BuildingBlock: AJUNOK_clean_linker_0, # of connection points: 2
#     Edge 397, Type (0, 1), BuildingBlock: AJUNOK_clean_linker_0, # of connection points: 2
#     Edge 398, Type (0, 1), BuildingBlock: AJUNOK_clean_linker_0, # of connection points: 2
#     Edge 399, Type (0, 1), BuildingBlock: AJUNOK_clean_linker_0, # of connection points: 2
#     Edge 400, Type (0, 1), BuildingBlock: AJUNOK_clean_linker_0, # of connection points: 2
#     Edge 401, Type (0, 1), BuildingBlock: AJUNOK_clean_linker_0, # of connection points: 2
#     Edge 402, Type (0, 1), BuildingBlock: AJUNOK_clean_linker_0, # of connection points: 2
#     Edge 403, Type (0, 1), BuildingBlock: AJUNOK_clean_linker_0, # of connection points: 2
#     Edge 404, Type (0, 1), BuildingBlock: AJUNOK_clean_linker_0, # of connection points: 2
#     Edge 405, Type (0, 1), BuildingBlock: AJUNOK_clean_linker_0, # of connection points: 2
#     Edge 406, Type (0, 1), BuildingBlock: AJUNOK_clean_linker_0, # of connection points: 2
#     Edge 407, Type (0, 1), BuildingBlock: AJUNOK_clean_linker_0, # of connection points: 2
#     Edge 408, Type (0, 1), BuildingBlock: AJUNOK_clean_linker_0, # of connection points: 2
#     Edge 409, Type (0, 1), BuildingBlock: AJUNOK_clean_linker_0, # of connection points: 2
#     Edge 410, Type (0, 1), BuildingBlock: AJUNOK_clean_linker_0, # of connection points: 2
#     Edge 411, Type (0, 1), BuildingBlock: AJUNOK_clean_linker_0, # of connection points: 2
#     Edge 412, Type (0, 1), BuildingBlock: AJUNOK_clean_linker_0, # of connection points: 2
#     Edge 413, Type (0, 1), BuildingBlock: AJUNOK_clean_linker_0, # of connection points: 2
#     Edge 414, Type (0, 1), BuildingBlock: AJUNOK_clean_linker_0, # of connection points: 2
#     Edge 415, Type (0, 1), BuildingBlock: AJUNOK_clean_linker_0, # of connection points: 2
#     Edge 416, Type (0, 1), BuildingBlock: AJUNOK_clean_linker_0, # of connection points: 2
#     Edge 417, Type (0, 1), BuildingBlock: AJUNOK_clean_linker_0, # of connection points: 2
#     Edge 418, Type (0, 1), BuildingBlock: AJUNOK_clean_linker_0, # of connection points: 2
#     Edge 419, Type (0, 1), BuildingBlock: AJUNOK_clean_linker_0, # of connection points: 2
#     Edge 420, Type (0, 1), BuildingBlock: AJUNOK_clean_linker_0, # of connection points: 2
#     Edge 421, Type (0, 1), BuildingBlock: AJUNOK_clean_linker_0, # of connection points: 2
#     Edge 422, Type (0, 1), BuildingBlock: AJUNOK_clean_linker_0, # of connection points: 2
#     Edge 423, Type (0, 1), BuildingBlock: AJUNOK_clean_linker_0, # of connection points: 2
#     Edge 424, Type (0, 1), BuildingBlock: AJUNOK_clean_linker_0, # of connection points: 2
#     Edge 425, Type (0, 1), BuildingBlock: AJUNOK_clean_linker_0, # of connection points: 2
#     Edge 426, Type (0, 1), BuildingBlock: AJUNOK_clean_linker_0, # of connection points: 2
#     Edge 427, Type (0, 1), BuildingBlock: AJUNOK_clean_linker_0, # of connection points: 2
#     Edge 428, Type (0, 1), BuildingBlock: AJUNOK_clean_linker_0, # of connection points: 2
#     Edge 429, Type (0, 1), BuildingBlock: AJUNOK_clean_linker_0, # of connection points: 2
#     Edge 430, Type (0, 1), BuildingBlock: AJUNOK_clean_linker_0, # of connection points: 2
#     Edge 431, Type (0, 1), BuildingBlock: AJUNOK_clean_linker_0, # of connection points: 2
#     Edge 432, Type (0, 1), BuildingBlock: AJUNOK_clean_linker_0, # of connection points: 2
#     Edge 433, Type (0, 1), BuildingBlock: AJUNOK_clean_linker_0, # of connection points: 2
#     Edge 434, Type (0, 1), BuildingBlock: AJUNOK_clean_linker_0, # of connection points: 2
#     Edge 435, Type (0, 1), BuildingBlock: AJUNOK_clean_linker_0, # of connection points: 2
#     Edge 436, Type (0, 1), BuildingBlock: AJUNOK_clean_linker_0, # of connection points: 2
#     Edge 437, Type (0, 1), BuildingBlock: AJUNOK_clean_linker_0, # of connection points: 2
#     Edge 438, Type (0, 1), BuildingBlock: AJUNOK_clean_linker_0, # of connection points: 2
#     Edge 439, Type (0, 1), BuildingBlock: AJUNOK_clean_linker_0, # of connection points: 2
#     Edge 440, Type (0, 1), BuildingBlock: AJUNOK_clean_linker_0, # of connection points: 2
#     Edge 441, Type (0, 1), BuildingBlock: AJUNOK_clean_linker_0, # of connection points: 2
#     Edge 442, Type (0, 1), BuildingBlock: AJUNOK_clean_linker_0, # of connection points: 2
#     Edge 443, Type (0, 1), BuildingBlock: AJUNOK_clean_linker_0, # of connection points: 2
#     Edge 444, Type (0, 1), BuildingBlock: AJUNOK_clean_linker_0, # of connection points: 2
#     Edge 445, Type (0, 1), BuildingBlock: AJUNOK_clean_linker_0, # of connection points: 2
#     Edge 446, Type (0, 1), BuildingBlock: AJUNOK_clean_linker_0, # of connection points: 2
#     Edge 447, Type (0, 1), BuildingBlock: AJUNOK_clean_linker_0, # of connection points: 2
#     Edge 448, Type (0, 1), BuildingBlock: AJUNOK_clean_linker_0, # of connection points: 2
#     Edge 449, Type (0, 1), BuildingBlock: AJUNOK_clean_linker_0, # of connection points: 2
#     Edge 450, Type (0, 1), BuildingBlock: AJUNOK_clean_linker_0, # of connection points: 2
#     Edge 451, Type (0, 1), BuildingBlock: AJUNOK_clean_linker_0, # of connection points: 2
#     Edge 452, Type (0, 1), BuildingBlock: AJUNOK_clean_linker_0, # of connection points: 2
#     Edge 453, Type (0, 1), BuildingBlock: AJUNOK_clean_linker_0, # of connection points: 2
#     Edge 454, Type (0, 1), BuildingBlock: AJUNOK_clean_linker_0, # of connection points: 2
#     Edge 455, Type (0, 1), BuildingBlock: AJUNOK_clean_linker_0, # of connection points: 2
#     Edge 456, Type (0, 1), BuildingBlock: AJUNOK_clean_linker_0, # of connection points: 2
#     Edge 457, Type (0, 1), BuildingBlock: AJUNOK_clean_linker_0, # of connection points: 2
#     Edge 458, Type (0, 1), BuildingBlock: AJUNOK_clean_linker_0, # of connection points: 2
#     Edge 459, Type (0, 1), BuildingBlock: AJUNOK_clean_linker_0, # of connection points: 2
#     Edge 460, Type (0, 1), BuildingBlock: AJUNOK_clean_linker_0, # of connection points: 2
#     Edge 461, Type (0, 1), BuildingBlock: AJUNOK_clean_linker_0, # of connection points: 2
#     Edge 462, Type (0, 1), BuildingBlock: AJUNOK_clean_linker_0, # of connection points: 2
#     Edge 463, Type (0, 1), BuildingBlock: AJUNOK_clean_linker_0, # of connection points: 2
#     Edge 464, Type (0, 1), BuildingBlock: AJUNOK_clean_linker_0, # of connection points: 2
#     Edge 465, Type (0, 1), BuildingBlock: AJUNOK_clean_linker_0, # of connection points: 2
#     Edge 466, Type (0, 1), BuildingBlock: AJUNOK_clean_linker_0, # of connection points: 2
#     Edge 467, Type (0, 1), BuildingBlock: AJUNOK_clean_linker_0, # of connection points: 2
#     Edge 468, Type (0, 1), BuildingBlock: AJUNOK_clean_linker_0, # of connection points: 2
#     Edge 469, Type (0, 1), BuildingBlock: AJUNOK_clean_linker_0, # of connection points: 2
#     Edge 470, Type (0, 1), BuildingBlock: AJUNOK_clean_linker_0, # of connection points: 2
#     Edge 471, Type (0, 1), BuildingBlock: AJUNOK_clean_linker_0, # of connection points: 2
#     Edge 472, Type (0, 1), BuildingBlock: AJUNOK_clean_linker_0, # of connection points: 2
#     Edge 473, Type (0, 1), BuildingBlock: AJUNOK_clean_linker_0, # of connection points: 2
#     Edge 474, Type (0, 1), BuildingBlock: AJUNOK_clean_linker_0, # of connection points: 2
#     Edge 475, Type (0, 1), BuildingBlock: AJUNOK_clean_linker_0, # of connection points: 2
#     Edge 476, Type (0, 1), BuildingBlock: AJUNOK_clean_linker_0, # of connection points: 2
#     Edge 477, Type (0, 1), BuildingBlock: AJUNOK_clean_linker_0, # of connection points: 2
#     Edge 478, Type (0, 1), BuildingBlock: AJUNOK_clean_linker_0, # of connection points: 2
#     Edge 479, Type (0, 1), BuildingBlock: AJUNOK_clean_linker_0, # of connection points: 2
# Relax obj value: 0.115
# Max RMSD: 0.095
# Mean RMSD: 0.092
data_MOF--net-ana-f--node1-WUSLED_clean_sbu_0--node2-KAKCAD_clean_linker_0--edge1-AJUNOK_clean_linker_0
_symmetry_space_group_name_H-M    P1
_symmetry_Int_Tables_number       1
_symmetry_cell_setting            triclinic
loop_
_symmetry_equiv_pos_as_xyz
'x, y, z'
_cell_length_a     170.53435
_cell_length_b     170.52173
_cell_length_c     170.50756
_cell_angle_alpha  89.951622
_cell_angle_beta   89.994562
_cell_angle_gamma 90.009682
loop_
_atom_site_label
_atom_site_type_symbol
_atom_site_fract_x
_atom_site_fract_y
_atom_site_fract_z
_atom_type_partial_charge
C0 C 0.07797 0.11488 0.40713 0.0
C1 C 0.0851 0.1129 0.40349 0.0
C2 C 0.0909 0.10986 0.41626 0.0
C3 C 0.09151 0.11038 0.40803 0.0
C4 C 0.08374 0.11191 0.41981 0.0
C5 C 0.07736 0.11431 0.41529 0.0
U6 U 0.06817 0.12682 0.39059 0.0
O7 O 0.0573 0.12454 0.38395 0.0
O8 O 0.05823 0.135 0.39143 0.0
C9 C 0.05383 0.13088 0.38664 0.0
C10 C 0.0711 0.11779 0.40273 0.0
C11 C 0.04536 0.13048 0.38842 0.0
C12 C 0.03396 0.12569 0.39564 0.0
C13 C 0.04212 0.12566 0.39429 0.0
C14 C 0.03234 0.13533 0.38534 0.0
C15 C 0.02899 0.13048 0.39109 0.0
C16 C 0.0404 0.13531 0.38401 0.0
C17 C 0.08243 0.13775 0.37628 0.0
C18 C 0.08056 0.14962 0.36859 0.0
C19 C 0.09298 0.14274 0.36811 0.0
C20 C 0.09003 0.13709 0.37326 0.0
C21 C 0.08834 0.14915 0.36583 0.0
C22 C 0.07762 0.14396 0.37379 0.0
C23 C 0.08016 0.13245 0.38271 0.0
O24 O 0.06981 0.12537 0.40329 0.0
O25 O 0.07 0.11504 0.3956 0.0
O26 O 0.07663 0.12586 0.38083 0.0
O27 O 0.07727 0.13577 0.38902 0.0
H28 H 0.08575 0.11335 0.39719 0.0
H29 H 0.09695 0.1089 0.40511 0.0
H30 H 0.08311 0.11192 0.42612 0.0
H31 H 0.07195 0.1159 0.41822 0.0
H32 H 0.03153 0.12191 0.40013 0.0
H33 H 0.04587 0.12192 0.39779 0.0
H34 H 0.02871 0.13922 0.38186 0.0
H35 H 0.04278 0.13911 0.37951 0.0
H36 H 0.07685 0.15449 0.36691 0.0
H37 H 0.09904 0.14229 0.36627 0.0
H38 H 0.09385 0.13239 0.37519 0.0
H39 H 0.07173 0.14459 0.37608 0.0
C40 C 0.11453 0.8131 0.68786 0.0
C41 C 0.11203 0.82059 0.68551 0.0
C42 C 0.12343 0.82643 0.69186 0.0
C43 C 0.11645 0.82723 0.68754 0.0
C44 C 0.12572 0.81894 0.6944 0.0
C45 C 0.12131 0.81234 0.69241 0.0
U46 U 0.09842 0.8018 0.6767 0.0
O47 O 0.09955 0.79119 0.66954 0.0
O48 O 0.09229 0.79093 0.68017 0.0
C49 C 0.09531 0.7869 0.67434 0.0
C50 C 0.11047 0.80591 0.68537 0.0
C51 C 0.09848 0.77907 0.67617 0.0
C52 C 0.10949 0.77032 0.67861 0.0
C53 C 0.10641 0.77793 0.67812 0.0
C54 C 0.09669 0.76494 0.67562 0.0
C55 C 0.10472 0.76375 0.67709 0.0
C56 C 0.09362 0.77252 0.67517 0.0
C57 C 0.0833 0.8146 0.66485 0.0
C58 C 0.07789 0.81558 0.65166 0.0
C59 C 0.07237 0.82334 0.66218 0.0
C60 C 0.07767 0.81999 0.66744 0.0
C61 C 0.07262 0.82141 0.65417 0.0
C62 C 0.08318 0.81219 0.65696 0.0
C63 C 0.08995 0.81283 0.67011 0.0
O64 O 0.10341 0.80476 0.68824 0.0
O65 O 0.11102 0.80422 0.67787 0.0
O66 O 0.09633 0.80991 0.66694 0.0
O67 O 0.08836 0.80993 0.67708 0.0
H68 H 0.10679 0.82128 0.68198 0.0
H69 H 0.11456 0.83296 0.68552 0.0
H70 H 0.13101 0.81818 0.69784 0.0
H71 H 0.12331 0.80661 0.6943 0.0
H72 H 0.11565 0.76959 0.67994 0.0
H73 H 0.11025 0.78291 0.67897 0.0
H74 H 0.09286 0.76001 0.67442 0.0
H75 H 0.08749 0.77328 0.67367 0.0
H76 H 0.07831 0.81405 0.64551 0.0
H77 H 0.06834 0.82775 0.66432 0.0
H78 H 0.07767 0.82199 0.67347 0.0
H79 H 0.08748 0.80806 0.65477 0.0
C80 C 0.42641 0.89375 0.90517 0.0
C81 C 0.41918 0.88987 0.90449 0.0
C82 C 0.41385 0.89804 0.91492 0.0
C83 C 0.41291 0.89203 0.90933 0.0
C84 C 0.42094 0.90219 0.91519 0.0
C85 C 0.42717 0.90004 0.91038 0.0
U86 U 0.43924 0.88192 0.89031 0.0
O87 O 0.45078 0.88567 0.88581 0.0
O88 O 0.44985 0.87529 0.8937 0.0
C89 C 0.45436 0.8799 0.88947 0.0
C90 C 0.43357 0.89087 0.90142 0.0
C91 C 0.46294 0.87955 0.89 0.0
C92 C 0.4754 0.88351 0.89562 0.0
C93 C 0.46729 0.8846 0.8948 0.0
C94 C 0.47486 0.87256 0.8866 0.0
C95 C 0.4793 0.87748 0.89152 0.0
C96 C 0.46677 0.87357 0.8859 0.0
C97 C 0.42728 0.86927 0.87453 0.0
C98 C 0.42886 0.85703 0.86739 0.0
C99 C 0.41668 0.86426 0.86641 0.0
C100 C 0.41976 0.87005 0.87131 0.0
C101 C 0.42113 0.8576 0.8645 0.0
C102 C 0.4319 0.86281 0.87241 0.0
C103 C 0.42943 0.87471 0.88089 0.0
O104 O 0.43512 0.88338 0.90237 0.0
O105 O 0.43523 0.89352 0.89438 0.0
O106 O 0.43258 0.88154 0.87916 0.0
O107 O 0.4319 0.87171 0.88754 0.0
H108 H 0.41851 0.88497 0.9005 0.0
H109 H 0.40748 0.88875 0.909 0.0
H110 H 0.42176 0.90695 0.91932 0.0
H111 H 0.43271 0.90309 0.91097 0.0
H112 H 0.47855 0.88724 0.89968 0.0
H113 H 0.46441 0.88919 0.8981 0.0
H114 H 0.47762 0.86789 0.88331 0.0
H115 H 0.46347 0.86959 0.88221 0.0
H116 H 0.43244 0.85198 0.86601 0.0
H117 H 0.41064 0.86481 0.86453 0.0
H118 H 0.41605 0.87493 0.87297 0.0
H119 H 0.43771 0.86206 0.87488 0.0
C120 C 0.39301 0.1942 0.18821 0.0
C121 C 0.39353 0.18733 0.1837 0.0
C122 C 0.3842 0.18084 0.19237 0.0
C123 C 0.38913 0.18071 0.18576 0.0
C124 C 0.3839 0.18765 0.19699 0.0
C125 C 0.38828 0.19426 0.19492 0.0
U126 U 0.40882 0.20556 0.17689 0.0
O127 O 0.40764 0.2161 0.16961 0.0
O128 O 0.41506 0.21643 0.18014 0.0
C129 C 0.41198 0.22042 0.17429 0.0
C130 C 0.3969 0.2015 0.18575 0.0
C131 C 0.40889 0.22829 0.17608 0.0
C132 C 0.39804 0.23713 0.17883 0.0
C133 C 0.40106 0.22949 0.17831 0.0
C134 C 0.41073 0.24239 0.17524 0.0
C135 C 0.40279 0.24366 0.17703 0.0
C136 C 0.41374 0.23479 0.17478 0.0
C137 C 0.42362 0.19262 0.16491 0.0
C138 C 0.42986 0.1938 0.15213 0.0
C139 C 0.43337 0.18309 0.16078 0.0
C140 C 0.42818 0.18595 0.16642 0.0
C141 C 0.43408 0.18684 0.15349 0.0
C142 C 0.42467 0.19669 0.15781 0.0
C143 C 0.41712 0.19438 0.17033 0.0
O144 O 0.40398 0.20272 0.18855 0.0
O145 O 0.39624 0.20328 0.17828 0.0
O146 O 0.4107 0.1973 0.16722 0.0
O147 O 0.41888 0.1974 0.1772 0.0
H148 H 0.39718 0.18715 0.1785 0.0
H149 H 0.38951 0.17551 0.18213 0.0
H150 H 0.38007 0.18797 0.20205 0.0
H151 H 0.38779 0.19952 0.19845 0.0
H152 H 0.39195 0.23791 0.18045 0.0
H153 H 0.39723 0.22454 0.1794 0.0
H154 H 0.41454 0.24727 0.17381 0.0
H155 H 0.4198 0.23397 0.17305 0.0
H156 H 0.43036 0.19683 0.14656 0.0
H157 H 0.4365 0.17768 0.16194 0.0
H158 H 0.42741 0.18269 0.17183 0.0
H159 H 0.42121 0.20185 0.15651 0.0
C160 C 0.07864 0.89379 0.10176 0.0
C161 C 0.08568 0.88955 0.1022 0.0
C162 C 0.09151 0.89797 0.0922 0.0
C163 C 0.09207 0.89162 0.09746 0.0
C164 C 0.08461 0.90248 0.09217 0.0
C165 C 0.07822 0.90038 0.09687 0.0
U166 U 0.06826 0.88125 0.11721 0.0
O167 O 0.05743 0.88326 0.12402 0.0
O168 O 0.05818 0.87334 0.11582 0.0
C169 C 0.05386 0.87718 0.1209 0.0
C170 C 0.07147 0.89104 0.10576 0.0
C171 C 0.04541 0.8778 0.11916 0.0
C172 C 0.03421 0.88227 0.11144 0.0
C173 C 0.0423 0.88252 0.11313 0.0
C174 C 0.03237 0.87275 0.12183 0.0
C175 C 0.02922 0.87722 0.11568 0.0
C176 C 0.04035 0.87304 0.12353 0.0
C177 C 0.0829 0.86879 0.13008 0.0
C178 C 0.08267 0.86208 0.14271 0.0
C179 C 0.09275 0.85902 0.13319 0.0
C180 C 0.08956 0.86446 0.12803 0.0
C181 C 0.0894 0.85776 0.14061 0.0
C182 C 0.07942 0.86757 0.13746 0.0
C183 C 0.08021 0.87472 0.1244 0.0
O184 O 0.06979 0.8836 0.10466 0.0
O185 O 0.07047 0.89332 0.11305 0.0
O186 O 0.07671 0.88108 0.12701 0.0
O187 O 0.07724 0.87205 0.11782 0.0
H188 H 0.08614 0.88445 0.10597 0.0
H189 H 0.0973 0.88803 0.09764 0.0
H190 H 0.08408 0.90755 0.08837 0.0
H191 H 0.07286 0.90376 0.09649 0.0
H192 H 0.0319 0.88579 0.10669 0.0
H193 H 0.04612 0.88624 0.10967 0.0
H194 H 0.02865 0.86891 0.12526 0.0
H195 H 0.04262 0.86938 0.12821 0.0
H196 H 0.08001 0.86134 0.14843 0.0
H197 H 0.09786 0.85573 0.13132 0.0
H198 H 0.09236 0.86535 0.12239 0.0
H199 H 0.0743 0.87089 0.1392 0.0
C200 C 0.3924 0.81292 0.31919 0.0
C201 C 0.39354 0.81998 0.32326 0.0
C202 C 0.38378 0.82641 0.315 0.0
C203 C 0.38925 0.82667 0.32118 0.0
C204 C 0.38284 0.81936 0.31083 0.0
C205 C 0.38714 0.8127 0.31289 0.0
U206 U 0.40799 0.80167 0.33082 0.0
O207 O 0.40679 0.79105 0.33798 0.0
O208 O 0.41453 0.79094 0.32766 0.0
C209 C 0.41133 0.78685 0.33337 0.0
C210 C 0.39624 0.80561 0.32169 0.0
C211 C 0.4085 0.7789 0.33145 0.0
C212 C 0.39791 0.7695 0.32955 0.0
C213 C 0.40054 0.77729 0.33002 0.0
C214 C 0.41121 0.76493 0.3315 0.0
C215 C 0.40321 0.76324 0.33052 0.0
C216 C 0.41383 0.77267 0.33195 0.0
C217 C 0.42204 0.81584 0.34274 0.0
C218 C 0.43174 0.81408 0.35307 0.0
C219 C 0.42882 0.82708 0.34813 0.0
C220 C 0.42342 0.82392 0.34293 0.0
C221 C 0.4331 0.82223 0.35324 0.0
C222 C 0.42623 0.81088 0.34783 0.0
C223 C 0.4158 0.81312 0.33746 0.0
O224 O 0.40339 0.80445 0.31906 0.0
O225 O 0.39542 0.80381 0.32914 0.0
O226 O 0.4096 0.80984 0.34064 0.0
O227 O 0.41785 0.81004 0.33069 0.0
H228 H 0.3976 0.82026 0.32814 0.0
H229 H 0.39015 0.83203 0.32448 0.0
H230 H 0.37856 0.8189 0.30616 0.0
H231 H 0.38617 0.80729 0.3097 0.0
H232 H 0.3917 0.76839 0.32888 0.0
H233 H 0.39633 0.78203 0.32962 0.0
H234 H 0.41543 0.76023 0.3322 0.0
H235 H 0.41998 0.77379 0.33305 0.0
H236 H 0.43491 0.81022 0.357 0.0
H237 H 0.42951 0.8334 0.34829 0.0
H238 H 0.42016 0.82784 0.33913 0.0
H239 H 0.42517 0.80462 0.3478 0.0
C240 C 0.42948 0.1148 0.60136 0.0
C241 C 0.42197 0.11727 0.60366 0.0
C242 C 0.41627 0.11091 0.59218 0.0
C243 C 0.41541 0.11533 0.5991 0.0
C244 C 0.42377 0.10821 0.59009 0.0
C245 C 0.43031 0.11014 0.59466 0.0
U246 U 0.43975 0.12648 0.61761 0.0
O247 O 0.45069 0.12401 0.62406 0.0
O248 O 0.44971 0.13461 0.61676 0.0
C249 C 0.45416 0.13037 0.6214 0.0
C250 C 0.43657 0.11756 0.60546 0.0
C251 C 0.46255 0.12991 0.61936 0.0
C252 C 0.47365 0.12494 0.61185 0.0
C253 C 0.4656 0.12478 0.61367 0.0
C254 C 0.47558 0.13526 0.62141 0.0
C255 C 0.47869 0.13028 0.61565 0.0
C256 C 0.46762 0.13506 0.62324 0.0
C257 C 0.4259 0.13749 0.63223 0.0
C258 C 0.42656 0.1503 0.63849 0.0
C259 C 0.41595 0.1414 0.64163 0.0
C260 C 0.41913 0.13581 0.63658 0.0
C261 C 0.41947 0.1488 0.64245 0.0
C262 C 0.42976 0.14468 0.63342 0.0
C263 C 0.42797 0.13217 0.62574 0.0
O264 O 0.43789 0.12513 0.60494 0.0
O265 O 0.43778 0.11474 0.61253 0.0
O266 O 0.43143 0.12552 0.62751 0.0
O267 O 0.43074 0.13547 0.61934 0.0
H268 H 0.42121 0.12089 0.60882 0.0
H269 H 0.4097 0.11747 0.60086 0.0
H270 H 0.42466 0.10494 0.58473 0.0
H271 H 0.43606 0.10823 0.59277 0.0
H272 H 0.47591 0.12105 0.60736 0.0
H273 H 0.46176 0.12076 0.6106 0.0
H274 H 0.47932 0.13937 0.62448 0.0
H275 H 0.46539 0.13905 0.62766 0.0
H276 H 0.42936 0.15598 0.6389 0.0
H277 H 0.41051 0.14007 0.64464 0.0
H278 H 0.41605 0.13032 0.63573 0.0
H279 H 0.43499 0.14612 0.6301 0.0
C280 C 0.11485 0.19396 0.81972 0.0
C281 C 0.11278 0.18666 0.82292 0.0
C282 C 0.12335 0.1804 0.8156 0.0
C283 C 0.11701 0.17991 0.82087 0.0
C284 C 0.12527 0.18771 0.81233 0.0
C285 C 0.12105 0.19442 0.81436 0.0
U286 U 0.09903 0.20543 0.83095 0.0
O287 O 0.10024 0.2161 0.83802 0.0
O288 O 0.09276 0.21625 0.82753 0.0
C289 C 0.0959 0.22034 0.83327 0.0
C290 C 0.11095 0.20126 0.82215 0.0
C291 C 0.09885 0.22826 0.83135 0.0
C292 C 0.10937 0.23793 0.83104 0.0
C293 C 0.10689 0.23009 0.83144 0.0
C294 C 0.09586 0.24213 0.82988 0.0
C295 C 0.10385 0.24405 0.83056 0.0
C296 C 0.09339 0.23432 0.83032 0.0
C297 C 0.08421 0.19251 0.84303 0.0
C298 C 0.07789 0.19372 0.85578 0.0
C299 C 0.07482 0.1827 0.84736 0.0
C300 C 0.07992 0.18563 0.84167 0.0
C301 C 0.07393 0.1866 0.85453 0.0
C302 C 0.08298 0.19669 0.85003 0.0
C303 C 0.09071 0.19433 0.83764 0.0
O304 O 0.10387 0.20246 0.81935 0.0
O305 O 0.1116 0.20303 0.82962 0.0
O306 O 0.09709 0.19733 0.84074 0.0
O307 O 0.08896 0.19727 0.83073 0.0
H308 H 0.10802 0.18621 0.82711 0.0
H309 H 0.11548 0.17437 0.82358 0.0
H310 H 0.13009 0.18825 0.80823 0.0
H311 H 0.12272 0.20001 0.81184 0.0
H312 H 0.11557 0.23922 0.83154 0.0
H313 H 0.11123 0.22552 0.8322 0.0
H314 H 0.09148 0.24669 0.82929 0.0
H315 H 0.08717 0.23305 0.83019 0.0
H316 H 0.07733 0.19676 0.86132 0.0
H317 H 0.07191 0.17714 0.84635 0.0
H318 H 0.08085 0.18227 0.83636 0.0
H319 H 0.08626 0.20199 0.85124 0.0
C320 C 0.40581 0.07868 0.11451 0.0
C321 C 0.40399 0.08602 0.11777 0.0
C322 C 0.41519 0.09186 0.11107 0.0
C323 C 0.40863 0.09256 0.11603 0.0
C324 C 0.41665 0.08463 0.10741 0.0
C325 C 0.41201 0.07809 0.10914 0.0
U326 U 0.39008 0.06848 0.1267 0.0
O327 O 0.38339 0.05759 0.1247 0.0
O328 O 0.39121 0.05861 0.13492 0.0
C329 C 0.3863 0.05417 0.13098 0.0
C330 C 0.40188 0.07151 0.11728 0.0
C331 C 0.38816 0.04575 0.13052 0.0
C332 C 0.39546 0.03448 0.12562 0.0
C333 C 0.39402 0.04261 0.12563 0.0
C334 C 0.38529 0.03269 0.13538 0.0
C335 C 0.39102 0.02944 0.13045 0.0
C336 C 0.38387 0.04073 0.13539 0.0
C337 C 0.37607 0.08274 0.13794 0.0
C338 C 0.36689 0.07994 0.14849 0.0
C339 C 0.36923 0.09336 0.14446 0.0
C340 C 0.37441 0.09074 0.13872 0.0
C341 C 0.36553 0.08803 0.14955 0.0
C342 C 0.37218 0.07731 0.14276 0.0
C343 C 0.38233 0.08048 0.13246 0.0
O344 O 0.40269 0.07012 0.12482 0.0
O345 O 0.3947 0.07031 0.11475 0.0
O346 O 0.38025 0.07686 0.12598 0.0
O347 O 0.38874 0.07764 0.13564 0.0
H348 H 0.3992 0.08661 0.1219 0.0
H349 H 0.4073 0.09811 0.11883 0.0
H350 H 0.42167 0.08393 0.10357 0.0
H351 H 0.41349 0.07247 0.10657 0.0
H352 H 0.39993 0.03211 0.12179 0.0
H353 H 0.39743 0.04642 0.12186 0.0
H354 H 0.38189 0.02899 0.13928 0.0
H355 H 0.37939 0.04304 0.13925 0.0
H356 H 0.36399 0.07566 0.15218 0.0
H357 H 0.3684 0.09962 0.14513 0.0
H358 H 0.37737 0.09501 0.13505 0.0
H359 H 0.37338 0.0711 0.14221 0.0
C360 C 0.1945 0.18777 0.39293 0.0
C361 C 0.18732 0.18425 0.3949 0.0
C362 C 0.18082 0.1914 0.38435 0.0
C363 C 0.18053 0.18609 0.39068 0.0
C364 C 0.18797 0.19512 0.38262 0.0
C365 C 0.19474 0.19332 0.38688 0.0
U366 U 0.20591 0.17641 0.40858 0.0
O367 O 0.21655 0.16929 0.40745 0.0
O368 O 0.21666 0.17972 0.41501 0.0
C369 C 0.22077 0.174 0.41186 0.0
C370 C 0.20186 0.18544 0.39677 0.0
C371 C 0.2286 0.176 0.40876 0.0
C372 C 0.23736 0.17851 0.39778 0.0
C373 C 0.22975 0.17796 0.40084 0.0
C374 C 0.24273 0.17565 0.41061 0.0
C375 C 0.24392 0.17711 0.40259 0.0
C376 C 0.23514 0.17508 0.41365 0.0
C377 C 0.19151 0.16436 0.42245 0.0
C378 C 0.19293 0.15462 0.43281 0.0
C379 C 0.18001 0.15858 0.42845 0.0
C380 C 0.18337 0.1637 0.42307 0.0
C381 C 0.18471 0.15404 0.43345 0.0
C382 C 0.19633 0.15978 0.42733 0.0
C383 C 0.19448 0.16966 0.41635 0.0
O384 O 0.20297 0.18811 0.40392 0.0
O385 O 0.20376 0.17801 0.39599 0.0
O386 O 0.1978 0.16651 0.41015 0.0
O387 O 0.19756 0.17641 0.41847 0.0
H388 H 0.18702 0.17999 0.39961 0.0
H389 H 0.17506 0.18331 0.39233 0.0
H390 H 0.18841 0.19924 0.3778 0.0
H391 H 0.20022 0.19611 0.3853 0.0
H392 H 0.23812 0.17977 0.3916 0.0
H393 H 0.22478 0.17873 0.39696 0.0
H394 H 0.24767 0.17453 0.41445 0.0
H395 H 0.23437 0.17356 0.41978 0.0
H396 H 0.19669 0.15112 0.43656 0.0
H397 H 0.17367 0.15809 0.4286 0.0
H398 H 0.17956 0.1671 0.41928 0.0
H399 H 0.20266 0.16017 0.42687 0.0
C400 C 0.10128 0.9293 0.61398 0.0
C401 C 0.1031 0.9218 0.61687 0.0
C402 C 0.09183 0.91635 0.61 0.0
C403 C 0.09838 0.91536 0.6149 0.0
C404 C 0.09025 0.92377 0.60684 0.0
C405 C 0.09494 0.9302 0.60883 0.0
U406 U 0.11712 0.93954 0.6263 0.0
O407 O 0.12398 0.9503 0.62399 0.0
O408 O 0.11596 0.94973 0.63408 0.0
C409 C 0.12085 0.95405 0.62996 0.0
C410 C 0.10537 0.93636 0.61684 0.0
C411 C 0.11888 0.96245 0.6289 0.0
C412 C 0.10989 0.97351 0.63024 0.0
C413 C 0.11122 0.96538 0.62981 0.0
C414 C 0.12377 0.97585 0.62849 0.0
C415 C 0.11621 0.97881 0.62987 0.0
C416 C 0.12509 0.96778 0.62803 0.0
C417 C 0.13101 0.92526 0.63788 0.0
C418 C 0.14017 0.92784 0.64849 0.0
C419 C 0.13786 0.9145 0.64419 0.0
C420 C 0.13265 0.91725 0.63851 0.0
C421 C 0.14155 0.91973 0.64936 0.0
C422 C 0.1349 0.93059 0.64279 0.0
C423 C 0.12476 0.92763 0.63242 0.0
O424 O 0.10451 0.9378 0.62436 0.0
O425 O 0.11259 0.93744 0.61436 0.0
O426 O 0.12687 0.93105 0.62584 0.0
O427 O 0.11842 0.93067 0.63556 0.0
H428 H 0.10796 0.92099 0.62089 0.0
H429 H 0.09962 0.90969 0.61748 0.0
H430 H 0.08514 0.92467 0.60316 0.0
H431 H 0.09341 0.93595 0.60659 0.0
H432 H 0.10399 0.97564 0.63127 0.0
H433 H 0.10631 0.96141 0.63051 0.0
H434 H 0.12874 0.97979 0.62802 0.0
H435 H 0.13105 0.96568 0.62735 0.0
H436 H 0.14304 0.93202 0.65232 0.0
H437 H 0.13874 0.90823 0.64474 0.0
H438 H 0.12969 0.91305 0.63478 0.0
H439 H 0.13371 0.93682 0.64236 0.0
C440 C 0.31246 0.81886 0.89279 0.0
C441 C 0.31959 0.82282 0.894 0.0
C442 C 0.32588 0.81467 0.8841 0.0
C443 C 0.32626 0.82072 0.88969 0.0
C444 C 0.31882 0.81054 0.88315 0.0
C445 C 0.31217 0.81264 0.88745 0.0
U446 U 0.30124 0.83023 0.9086 0.0
O447 O 0.29075 0.83759 0.90749 0.0
O448 O 0.29041 0.82706 0.91492 0.0
C449 C 0.28647 0.83299 0.91196 0.0
C450 C 0.30518 0.82136 0.89666 0.0
C451 C 0.27844 0.83147 0.90919 0.0
C452 C 0.2691 0.82706 0.89933 0.0
C453 C 0.27682 0.82741 0.9022 0.0
C454 C 0.26463 0.83452 0.91057 0.0
C455 C 0.26297 0.83082 0.9034 0.0
C456 C 0.27228 0.83483 0.91342 0.0
C457 C 0.31462 0.84204 0.9232 0.0
C458 C 0.31303 0.85432 0.93032 0.0
C459 C 0.32503 0.84682 0.93162 0.0
C460 C 0.32202 0.84111 0.92663 0.0
C461 C 0.32065 0.85355 0.93334 0.0
C462 C 0.31001 0.84858 0.92523 0.0
C463 C 0.31256 0.8367 0.91676 0.0
O464 O 0.30395 0.81857 0.90374 0.0
O465 O 0.30348 0.82885 0.896 0.0
O466 O 0.30954 0.83988 0.91043 0.0
O467 O 0.30948 0.82986 0.91859 0.0
H468 H 0.31993 0.82763 0.89813 0.0
H469 H 0.33164 0.82398 0.89055 0.0
H470 H 0.31841 0.80574 0.87901 0.0
H471 H 0.30674 0.80949 0.88648 0.0
H472 H 0.26798 0.82422 0.89376 0.0
H473 H 0.28153 0.8248 0.89885 0.0
H474 H 0.26002 0.83741 0.91385 0.0
H475 H 0.27342 0.83798 0.91882 0.0
H476 H 0.3096 0.85952 0.93154 0.0
H477 H 0.33095 0.84617 0.93385 0.0
H478 H 0.32568 0.83615 0.92508 0.0
H479 H 0.30429 0.84943 0.92261 0.0
C480 C 0.406 0.92952 0.39349 0.0
C481 C 0.40365 0.92185 0.39166 0.0
C482 C 0.41546 0.91665 0.39786 0.0
C483 C 0.40835 0.91545 0.39382 0.0
C484 C 0.41761 0.92434 0.39989 0.0
C485 C 0.41294 0.9307 0.39772 0.0
U486 U 0.38975 0.93939 0.38135 0.0
O487 O 0.38305 0.95023 0.38362 0.0
O488 O 0.39071 0.94938 0.37327 0.0
C489 C 0.38588 0.95376 0.37737 0.0
C490 C 0.40174 0.93644 0.39056 0.0
C491 C 0.38781 0.96217 0.37797 0.0
C492 C 0.3962 0.97312 0.38172 0.0
C493 C 0.39441 0.96506 0.38197 0.0
C494 C 0.38476 0.97538 0.37363 0.0
C495 C 0.39144 0.97834 0.37741 0.0
C496 C 0.38298 0.96741 0.37391 0.0
C497 C 0.37572 0.92513 0.37007 0.0
C498 C 0.36677 0.92788 0.3593 0.0
C499 C 0.36922 0.91446 0.36328 0.0
C500 C 0.37423 0.91711 0.36917 0.0
C501 C 0.36559 0.9198 0.3582 0.0
C502 C 0.37182 0.93055 0.36524 0.0
C503 C 0.38199 0.92741 0.37554 0.0
O504 O 0.40241 0.93773 0.38299 0.0
O505 O 0.39458 0.9375 0.3932 0.0
O506 O 0.37995 0.93096 0.38207 0.0
O507 O 0.38836 0.93032 0.37234 0.0
H508 H 0.39833 0.92083 0.38834 0.0
H509 H 0.40659 0.90962 0.39203 0.0
H510 H 0.42302 0.92546 0.40304 0.0
H511 H 0.41486 0.93658 0.39917 0.0
H512 H 0.40143 0.97523 0.38466 0.0
H513 H 0.39824 0.96109 0.38513 0.0
H514 H 0.38092 0.97924 0.37035 0.0
H515 H 0.37786 0.9653 0.37078 0.0
H516 H 0.3641 0.93208 0.35535 0.0
H517 H 0.36848 0.9082 0.36243 0.0
H518 H 0.37723 0.91284 0.3728 0.0
H519 H 0.37295 0.93678 0.36583 0.0
C520 C 0.313 0.18817 0.61548 0.0
C521 C 0.32053 0.18638 0.61267 0.0
C522 C 0.32635 0.19256 0.62416 0.0
C523 C 0.32717 0.18859 0.61698 0.0
C524 C 0.3188 0.19439 0.62689 0.0
C525 C 0.3122 0.19224 0.62256 0.0
U526 U 0.30197 0.17664 0.59949 0.0
O527 O 0.29127 0.1696 0.60061 0.0
O528 O 0.29128 0.18 0.59298 0.0
C529 C 0.28711 0.17435 0.59618 0.0
C530 C 0.30586 0.18564 0.61136 0.0
C531 C 0.27922 0.1764 0.59911 0.0
C532 C 0.26965 0.17708 0.60971 0.0
C533 C 0.27747 0.17664 0.60717 0.0
C534 C 0.26533 0.17763 0.5962 0.0
C535 C 0.2635 0.17725 0.60422 0.0
C536 C 0.27311 0.17718 0.59367 0.0
C537 C 0.316 0.16445 0.58549 0.0
C538 C 0.31405 0.15498 0.57498 0.0
C539 C 0.32717 0.15822 0.57934 0.0
C540 C 0.3241 0.16342 0.5848 0.0
C541 C 0.32223 0.15392 0.57434 0.0
C542 C 0.31094 0.16022 0.58055 0.0
C543 C 0.31333 0.16981 0.59169 0.0
O544 O 0.30489 0.1883 0.60419 0.0
O545 O 0.30408 0.17818 0.61211 0.0
O546 O 0.31002 0.1667 0.59791 0.0
O547 O 0.31034 0.17661 0.58962 0.0
H548 H 0.32125 0.18319 0.60722 0.0
H549 H 0.33293 0.18703 0.6148 0.0
H550 H 0.31802 0.19748 0.63238 0.0
H551 H 0.30643 0.19366 0.62482 0.0
H552 H 0.2684 0.1768 0.61593 0.0
H553 H 0.28209 0.1761 0.61149 0.0
H554 H 0.26071 0.17791 0.59185 0.0
H555 H 0.27433 0.17705 0.58744 0.0
H556 H 0.31009 0.15182 0.57116 0.0
H557 H 0.33348 0.15747 0.57912 0.0
H558 H 0.32809 0.16658 0.5886 0.0
H559 H 0.30465 0.16094 0.58103 0.0
C560 C 0.10138 0.07837 0.89323 0.0
C561 C 0.10249 0.08569 0.88961 0.0
C562 C 0.09221 0.0914 0.89778 0.0
C563 C 0.09792 0.09214 0.89185 0.0
C564 C 0.09141 0.08414 0.90161 0.0
C565 C 0.09594 0.0777 0.89936 0.0
U566 U 0.11711 0.06808 0.88095 0.0
O567 O 0.12352 0.05702 0.88295 0.0
O568 O 0.11589 0.0583 0.87262 0.0
C569 C 0.12065 0.05372 0.87659 0.0
C570 C 0.10526 0.07124 0.89027 0.0
C571 C 0.11871 0.04528 0.87685 0.0
C572 C 0.11239 0.0337 0.8824 0.0
C573 C 0.11373 0.04186 0.88247 0.0
C574 C 0.12089 0.03244 0.87111 0.0
C575 C 0.11607 0.02891 0.87677 0.0
C576 C 0.1222 0.0405 0.87116 0.0
C577 C 0.13143 0.08235 0.87001 0.0
C578 C 0.14037 0.0798 0.8592 0.0
C579 C 0.13846 0.09309 0.86384 0.0
C580 C 0.13329 0.09034 0.86954 0.0
C581 C 0.14191 0.08789 0.85847 0.0
C582 C 0.13512 0.07705 0.86491 0.0
C583 C 0.12512 0.08002 0.8754 0.0
O584 O 0.10452 0.07002 0.8827 0.0
O585 O 0.11238 0.06984 0.89287 0.0
O586 O 0.1271 0.07626 0.88183 0.0
O587 O 0.1187 0.07731 0.87212 0.0
H588 H 0.10665 0.08632 0.88485 0.0
H589 H 0.0986 0.0976 0.88866 0.0
H590 H 0.08711 0.08339 0.90623 0.0
H591 H 0.09501 0.0721 0.90222 0.0
H592 H 0.10863 0.03112 0.88682 0.0
H593 H 0.11096 0.04546 0.88691 0.0
H594 H 0.1237 0.02894 0.86661 0.0
H595 H 0.12602 0.04302 0.86675 0.0
H596 H 0.14306 0.07564 0.85523 0.0
H597 H 0.13948 0.09935 0.86341 0.0
H598 H 0.13048 0.09452 0.87342 0.0
H599 H 0.13376 0.07085 0.8652 0.0
C600 C 0.19404 0.81969 0.11487 0.0
C601 C 0.18715 0.82417 0.11428 0.0
C602 C 0.18064 0.81554 0.12364 0.0
C603 C 0.18048 0.82209 0.11862 0.0
C604 C 0.18743 0.81089 0.12392 0.0
C605 C 0.19407 0.81296 0.11959 0.0
U606 U 0.20573 0.83097 0.09923 0.0
O607 O 0.21642 0.83802 0.10056 0.0
O608 O 0.21657 0.82759 0.09301 0.0
C609 C 0.22064 0.83335 0.09612 0.0
C610 C 0.2014 0.82213 0.11107 0.0
C611 C 0.22856 0.83147 0.09904 0.0
C612 C 0.23762 0.82795 0.1095 0.0
C613 C 0.22992 0.82871 0.10668 0.0
C614 C 0.24263 0.8325 0.09702 0.0
C615 C 0.24407 0.82996 0.10473 0.0
C616 C 0.23497 0.8332 0.0942 0.0
C617 C 0.19261 0.84296 0.08436 0.0
C618 C 0.19336 0.85565 0.07783 0.0
C619 C 0.1824 0.84697 0.0753 0.0
C620 C 0.18565 0.84138 0.0803 0.0
C621 C 0.18611 0.85422 0.0742 0.0
C622 C 0.1966 0.85004 0.08293 0.0
C623 C 0.19467 0.83765 0.09087 0.0
O624 O 0.20271 0.81934 0.10401 0.0
O625 O 0.20323 0.82958 0.11177 0.0
O626 O 0.1977 0.84081 0.09721 0.0
O627 O 0.19762 0.83074 0.08913 0.0
H628 H 0.18699 0.82937 0.11062 0.0
H629 H 0.17531 0.82576 0.11828 0.0
H630 H 0.18765 0.80571 0.12759 0.0
H631 H 0.19931 0.8094 0.12008 0.0
H632 H 0.23853 0.82596 0.11547 0.0
H633 H 0.22504 0.82736 0.11052 0.0
H634 H 0.2474 0.83431 0.09324 0.0
H635 H 0.23404 0.83541 0.08832 0.0
H636 H 0.19626 0.86125 0.07709 0.0
H637 H 0.17678 0.84578 0.07259 0.0
H638 H 0.18245 0.83599 0.08137 0.0
H639 H 0.20197 0.8514 0.08604 0.0
C640 C 0.11439 0.40592 0.07815 0.0
C641 C 0.11752 0.40428 0.08559 0.0
C642 C 0.11004 0.41512 0.09122 0.0
C643 C 0.11537 0.40886 0.09208 0.0
C644 C 0.10672 0.4165 0.0838 0.0
C645 C 0.10888 0.41195 0.07734 0.0
U646 U 0.12703 0.39041 0.06794 0.0
O647 O 0.12508 0.38355 0.05715 0.0
O648 O 0.13496 0.39181 0.05787 0.0
C649 C 0.13114 0.3867 0.05356 0.0
C650 C 0.11731 0.40194 0.07105 0.0
C651 C 0.13041 0.38842 0.04511 0.0
C652 C 0.12647 0.39646 0.03395 0.0
C653 C 0.12655 0.39505 0.0421 0.0
C654 C 0.13411 0.38467 0.03189 0.0
C655 C 0.13022 0.39123 0.02876 0.0
C656 C 0.13416 0.38327 0.03994 0.0
C657 C 0.13891 0.37704 0.08258 0.0
C658 C 0.14622 0.36482 0.08137 0.0
C659 C 0.14766 0.37287 0.09297 0.0
C660 C 0.14235 0.37825 0.08992 0.0
C661 C 0.14967 0.36608 0.08878 0.0
C662 C 0.14086 0.37028 0.07828 0.0
C663 C 0.13323 0.38296 0.07991 0.0
O664 O 0.1248 0.40297 0.0696 0.0
O665 O 0.11498 0.39467 0.06995 0.0
O666 O 0.12683 0.38057 0.07635 0.0
O667 O 0.13615 0.38947 0.077 0.0
H668 H 0.12183 0.39967 0.08632 0.0
H669 H 0.11817 0.40773 0.09766 0.0
H670 H 0.10257 0.42123 0.08295 0.0
H671 H 0.10643 0.41331 0.07164 0.0
H672 H 0.12345 0.40158 0.03171 0.0
H673 H 0.12367 0.39914 0.04602 0.0
H674 H 0.13725 0.38065 0.02811 0.0
H675 H 0.13726 0.37818 0.04215 0.0
H676 H 0.1476 0.3596 0.07803 0.0
H677 H 0.15028 0.3741 0.09863 0.0
H678 H 0.14091 0.38341 0.09333 0.0
H679 H 0.13823 0.36921 0.07259 0.0
C680 C 0.61394 0.10227 0.92642 0.0
C681 C 0.61831 0.1024 0.91945 0.0
C682 C 0.60962 0.09257 0.91382 0.0
C683 C 0.61614 0.09758 0.91316 0.0
C684 C 0.60498 0.09288 0.92061 0.0
C685 C 0.60715 0.09768 0.92686 0.0
U686 U 0.6257 0.1171 0.93927 0.0
O687 O 0.62198 0.12158 0.95079 0.0
O688 O 0.63246 0.11381 0.94987 0.0
C689 C 0.62772 0.11787 0.95438 0.0
C690 C 0.61674 0.10594 0.93366 0.0
C691 C 0.62827 0.1178 0.96297 0.0
C692 C 0.62356 0.11366 0.97577 0.0
C693 C 0.62244 0.11437 0.96766 0.0
C694 C 0.6362 0.12005 0.97457 0.0
C695 C 0.63045 0.11649 0.97928 0.0
C696 C 0.63513 0.12064 0.96648 0.0
C697 C 0.63824 0.13268 0.92688 0.0
C698 C 0.64965 0.14101 0.92877 0.0
C699 C 0.64369 0.13998 0.91592 0.0
C700 C 0.63804 0.13492 0.91898 0.0
C701 C 0.64964 0.14303 0.92074 0.0
C702 C 0.644 0.13584 0.93182 0.0
C703 C 0.63286 0.12637 0.92929 0.0
O704 O 0.62421 0.10499 0.93528 0.0
O705 O 0.61408 0.11297 0.93534 0.0
O706 O 0.62607 0.12816 0.93248 0.0
O707 O 0.6359 0.11977 0.93185 0.0
H708 H 0.62359 0.10592 0.919 0.0
H709 H 0.6198 0.09745 0.90797 0.0
H710 H 0.59983 0.08921 0.9212 0.0
H711 H 0.6037 0.09752 0.9322 0.0
H712 H 0.61905 0.11092 0.97931 0.0
H713 H 0.61713 0.11206 0.96503 0.0
H714 H 0.64158 0.12224 0.97715 0.0
H715 H 0.63972 0.12323 0.96292 0.0
H716 H 0.65416 0.14326 0.93264 0.0
H717 H 0.64363 0.14114 0.90968 0.0
H718 H 0.6337 0.13245 0.91505 0.0
H719 H 0.64428 0.13412 0.93793 0.0
C720 C 0.18806 0.39251 0.19462 0.0
C721 C 0.18402 0.39362 0.18754 0.0
C722 C 0.19234 0.3839 0.18115 0.0
C723 C 0.18614 0.38935 0.18086 0.0
C724 C 0.19649 0.38298 0.18822 0.0
C725 C 0.19438 0.38727 0.19488 0.0
U726 U 0.1766 0.40831 0.20576 0.0
O727 O 0.1691 0.40726 0.21619 0.0
O728 O 0.17966 0.41465 0.2166 0.0
C729 C 0.17365 0.41176 0.22048 0.0
C730 C 0.1855 0.39635 0.20193 0.0
C731 C 0.17499 0.40915 0.22862 0.0
C732 C 0.18171 0.40142 0.23858 0.0
C733 C 0.18094 0.40385 0.23073 0.0
C734 C 0.17065 0.40956 0.24216 0.0
C735 C 0.17657 0.40428 0.24439 0.0
C736 C 0.16991 0.41199 0.23439 0.0
C737 C 0.16513 0.42299 0.1921 0.0
C738 C 0.15329 0.43079 0.19367 0.0
C739 C 0.16088 0.43171 0.1817 0.0
C740 C 0.16625 0.42633 0.18469 0.0
C741 C 0.1543 0.43398 0.18611 0.0
C742 C 0.15867 0.42531 0.19665 0.0
C743 C 0.17034 0.41647 0.19431 0.0
O744 O 0.1883 0.40341 0.20321 0.0
O745 O 0.178 0.39571 0.20356 0.0
O746 O 0.16704 0.41021 0.19736 0.0
O747 O 0.17715 0.41823 0.19745 0.0
H748 H 0.17913 0.39767 0.18722 0.0
H749 H 0.18287 0.39023 0.17548 0.0
H750 H 0.20117 0.37872 0.18871 0.0
H751 H 0.19754 0.38632 0.2003 0.0
H752 H 0.1863 0.3973 0.24011 0.0
H753 H 0.18491 0.40156 0.22634 0.0
H754 H 0.16641 0.41167 0.24639 0.0
H755 H 0.16524 0.41602 0.23286 0.0
H756 H 0.14826 0.43241 0.19719 0.0
H757 H 0.16171 0.4338 0.17576 0.0
H758 H 0.17112 0.42451 0.18104 0.0
H759 H 0.15767 0.42274 0.20237 0.0
C760 C 0.89332 0.90564 0.42885 0.0
C761 C 0.89023 0.90396 0.42139 0.0
C762 C 0.89706 0.91525 0.41591 0.0
C763 C 0.89212 0.90872 0.41494 0.0
C764 C 0.90044 0.91666 0.42328 0.0
C765 C 0.89859 0.91188 0.42968 0.0
U766 U 0.88094 0.89004 0.4394 0.0
O767 O 0.88309 0.88346 0.45035 0.0
O768 O 0.87304 0.89149 0.44948 0.0
C769 C 0.87696 0.88653 0.45388 0.0
C770 C 0.89053 0.9016 0.43597 0.0
C771 C 0.87753 0.88834 0.46232 0.0
C772 C 0.88204 0.89601 0.47353 0.0
C773 C 0.88225 0.89435 0.46543 0.0
C774 C 0.87255 0.88561 0.47539 0.0
C775 C 0.87709 0.8917 0.47858 0.0
C776 C 0.87277 0.88397 0.46739 0.0
C777 C 0.8688 0.87661 0.42497 0.0
C778 C 0.86154 0.86434 0.42607 0.0
C779 C 0.85981 0.87269 0.4147 0.0
C780 C 0.86517 0.87801 0.41776 0.0
C781 C 0.85793 0.86578 0.41877 0.0
C782 C 0.86697 0.86974 0.42916 0.0
C783 C 0.87456 0.88248 0.4276 0.0
O784 O 0.88306 0.90259 0.43755 0.0
O785 O 0.89293 0.89435 0.43707 0.0
O786 O 0.88097 0.88007 0.43115 0.0
O787 O 0.87171 0.88903 0.43046 0.0
H788 H 0.88611 0.89918 0.42063 0.0
H789 H 0.88941 0.90758 0.40931 0.0
H790 H 0.90424 0.92167 0.42416 0.0
H791 H 0.90102 0.91329 0.43538 0.0
H792 H 0.88556 0.90078 0.47579 0.0
H793 H 0.88595 0.89782 0.4616 0.0
H794 H 0.86876 0.88211 0.47909 0.0
H795 H 0.86909 0.87931 0.46512 0.0
H796 H 0.86026 0.85903 0.42931 0.0
H797 H 0.85705 0.87405 0.40914 0.0
H798 H 0.86651 0.88326 0.41443 0.0
H799 H 0.86975 0.86854 0.43475 0.0
C800 C 0.81894 0.11561 0.19493 0.0
C801 C 0.82233 0.11375 0.18767 0.0
C802 C 0.81474 0.12412 0.18139 0.0
C803 C 0.82024 0.11797 0.18094 0.0
C804 C 0.81125 0.12581 0.18866 0.0
C805 C 0.81331 0.12157 0.19536 0.0
U806 U 0.83067 0.09989 0.20574 0.0
O807 O 0.83841 0.1009 0.21597 0.0
O808 O 0.82791 0.09344 0.21661 0.0
C809 C 0.83393 0.09644 0.22038 0.0
C810 C 0.82153 0.11176 0.2022 0.0
C811 C 0.83269 0.09925 0.22846 0.0
C812 C 0.82493 0.10529 0.23883 0.0
C813 C 0.82568 0.10277 0.23101 0.0
C814 C 0.83816 0.10088 0.24148 0.0
C815 C 0.83121 0.10441 0.24415 0.0
C816 C 0.83886 0.09831 0.23377 0.0
C817 C 0.84223 0.08601 0.19123 0.0
C818 C 0.8528 0.07657 0.19291 0.0
C819 C 0.84771 0.07939 0.17994 0.0
C820 C 0.84239 0.08465 0.18315 0.0
C821 C 0.85295 0.07524 0.18475 0.0
C822 C 0.84745 0.08195 0.19615 0.0
C823 C 0.83691 0.09218 0.19399 0.0
O824 O 0.81887 0.10462 0.2034 0.0
O825 O 0.82903 0.11251 0.2038 0.0
O826 O 0.84012 0.09843 0.19713 0.0
O827 O 0.83029 0.09006 0.19733 0.0
H828 H 0.82669 0.10915 0.18723 0.0
H829 H 0.82299 0.1165 0.17541 0.0
H830 H 0.80714 0.13061 0.18925 0.0
H831 H 0.81068 0.1231 0.20093 0.0
H832 H 0.81942 0.10782 0.24071 0.0
H833 H 0.82082 0.10354 0.22701 0.0
H834 H 0.84317 0.1002 0.24533 0.0
H835 H 0.84431 0.09561 0.23192 0.0
H836 H 0.85682 0.07349 0.19674 0.0
H837 H 0.84786 0.07874 0.17362 0.0
H838 H 0.8385 0.08784 0.17926 0.0
H839 H 0.84746 0.08301 0.20241 0.0
C840 C 0.39279 0.60192 0.57937 0.0
C841 C 0.38784 0.60146 0.58595 0.0
C842 C 0.39697 0.59252 0.59238 0.0
C843 C 0.3899 0.59678 0.59238 0.0
C844 C 0.40217 0.59351 0.58605 0.0
C845 C 0.40006 0.5981 0.57958 0.0
U846 U 0.38109 0.61762 0.56841 0.0
O847 O 0.38355 0.62411 0.55746 0.0
O848 O 0.37323 0.6164 0.55827 0.0
C849 C 0.37736 0.62121 0.55389 0.0
C850 C 0.39022 0.60578 0.57205 0.0
C851 C 0.37801 0.61931 0.54547 0.0
C852 C 0.38094 0.61058 0.53452 0.0
C853 C 0.38126 0.61229 0.54261 0.0
C854 C 0.3743 0.62291 0.5322 0.0
C855 C 0.37731 0.61583 0.52927 0.0
C856 C 0.37466 0.62462 0.54018 0.0
C857 C 0.3697 0.63193 0.58236 0.0
C858 C 0.3588 0.64071 0.57961 0.0
C859 C 0.3632 0.6388 0.59299 0.0
C860 C 0.36902 0.63371 0.59035 0.0
C861 C 0.35795 0.6422 0.58767 0.0
C862 C 0.36469 0.63561 0.57695 0.0
C863 C 0.37512 0.62561 0.58014 0.0
O864 O 0.38274 0.60502 0.57037 0.0
O865 O 0.39293 0.61287 0.57072 0.0
O866 O 0.38169 0.62759 0.57664 0.0
O867 O 0.3719 0.61923 0.57727 0.0
H868 H 0.38223 0.60445 0.58597 0.0
H869 H 0.38577 0.5962 0.59717 0.0
H870 H 0.4078 0.59058 0.58599 0.0
H871 H 0.40401 0.59846 0.57462 0.0
H872 H 0.38327 0.60506 0.53244 0.0
H873 H 0.38384 0.60809 0.54661 0.0
H874 H 0.37155 0.62711 0.52831 0.0
H875 H 0.37211 0.63005 0.54226 0.0
H876 H 0.35471 0.64321 0.57544 0.0
H877 H 0.36253 0.63976 0.59924 0.0
H878 H 0.3728 0.63087 0.59461 0.0
H879 H 0.36511 0.63427 0.57075 0.0
C880 C 0.18842 0.61473 0.31298 0.0
C881 C 0.18482 0.61335 0.32026 0.0
C882 C 0.1927 0.62371 0.32616 0.0
C883 C 0.18697 0.61781 0.32682 0.0
C884 C 0.19648 0.62483 0.31892 0.0
C885 C 0.19434 0.62039 0.3124 0.0
U886 U 0.17687 0.5988 0.30197 0.0
O887 O 0.16962 0.59997 0.29141 0.0
O888 O 0.18005 0.59241 0.29118 0.0
C889 C 0.17423 0.59548 0.28717 0.0
C890 C 0.18582 0.61071 0.30581 0.0
C891 C 0.17597 0.59831 0.27919 0.0
C892 C 0.17873 0.6088 0.26989 0.0
C893 C 0.17834 0.60606 0.27765 0.0
C894 C 0.1748 0.59599 0.2652 0.0
C895 C 0.17673 0.60383 0.2636 0.0
C896 C 0.17442 0.59326 0.27291 0.0
C897 C 0.16486 0.5841 0.31501 0.0
C898 C 0.15206 0.57789 0.31393 0.0
C899 C 0.1608 0.57431 0.32454 0.0
C900 C 0.16642 0.57951 0.32165 0.0
C901 C 0.15347 0.57363 0.32086 0.0
C902 C 0.15772 0.5831 0.31101 0.0
C903 C 0.17028 0.5906 0.31323 0.0
O904 O 0.18856 0.60359 0.30469 0.0
O905 O 0.17833 0.61139 0.30416 0.0
O906 O 0.1672 0.59701 0.31025 0.0
O907 O 0.17716 0.58881 0.31024 0.0
H908 H 0.18025 0.60898 0.32082 0.0
H909 H 0.18398 0.61682 0.33234 0.0
H910 H 0.20103 0.62922 0.31829 0.0
H911 H 0.1972 0.62149 0.30683 0.0
H912 H 0.18017 0.6149 0.26883 0.0
H913 H 0.17955 0.61005 0.28244 0.0
H914 H 0.1733 0.59201 0.26048 0.0
H915 H 0.17259 0.58727 0.27398 0.0
H916 H 0.14646 0.57742 0.31096 0.0
H917 H 0.16201 0.57115 0.32992 0.0
H918 H 0.17186 0.58024 0.32486 0.0
H919 H 0.15638 0.58658 0.30587 0.0
C920 C 0.31907 0.3927 0.81265 0.0
C921 C 0.32315 0.39394 0.81969 0.0
C922 C 0.31539 0.38376 0.82607 0.0
C923 C 0.3213 0.38953 0.82636 0.0
C924 C 0.31108 0.38283 0.81911 0.0
C925 C 0.31292 0.38726 0.81246 0.0
U926 U 0.3309 0.40813 0.80143 0.0
O927 O 0.33797 0.40684 0.79078 0.0
O928 O 0.32785 0.4148 0.79074 0.0
C929 C 0.33344 0.41147 0.7866 0.0
C930 C 0.32149 0.39658 0.80533 0.0
C931 C 0.33133 0.40857 0.77873 0.0
C932 C 0.32843 0.3979 0.7697 0.0
C933 C 0.32922 0.40072 0.77739 0.0
C934 C 0.33151 0.41081 0.76465 0.0
C935 C 0.32974 0.40288 0.76323 0.0
C936 C 0.33226 0.41362 0.77231 0.0
C937 C 0.34337 0.42139 0.81607 0.0
C938 C 0.35283 0.43202 0.81487 0.0
C939 C 0.34963 0.42671 0.82766 0.0
C940 C 0.34445 0.42146 0.82419 0.0
C941 C 0.35381 0.43212 0.82308 0.0
C942 C 0.3476 0.42668 0.81137 0.0
C943 C 0.33788 0.41552 0.81297 0.0
O944 O 0.31905 0.40383 0.80435 0.0
O945 O 0.32887 0.39558 0.80338 0.0
O946 O 0.34083 0.40926 0.80959 0.0
O947 O 0.33123 0.41792 0.80988 0.0
H948 H 0.32788 0.39817 0.81996 0.0
H949 H 0.32457 0.39054 0.83171 0.0
H950 H 0.30649 0.37846 0.81871 0.0
H951 H 0.3097 0.38625 0.80707 0.0
H952 H 0.32702 0.39177 0.76881 0.0
H953 H 0.32847 0.39671 0.78226 0.0
H954 H 0.33275 0.41478 0.75984 0.0
H955 H 0.33394 0.41968 0.77322 0.0
H956 H 0.35604 0.4361 0.81121 0.0
H957 H 0.35041 0.42649 0.83396 0.0
H958 H 0.3413 0.41736 0.8279 0.0
H959 H 0.34687 0.42667 0.80506 0.0
C960 C 0.92951 0.89131 0.59958 0.0
C961 C 0.92232 0.88757 0.60101 0.0
C962 C 0.91621 0.89514 0.59052 0.0
C963 C 0.91572 0.88947 0.59651 0.0
C964 C 0.92334 0.89911 0.58937 0.0
C965 C 0.92993 0.89721 0.59387 0.0
U966 U 0.94001 0.87943 0.61538 0.0
O967 O 0.95025 0.87168 0.61442 0.0
O968 O 0.95069 0.88187 0.6223 0.0
C969 C 0.95447 0.87584 0.61935 0.0
C970 C 0.93675 0.88868 0.60351 0.0
C971 C 0.96286 0.87689 0.61746 0.0
C972 C 0.97368 0.87846 0.60825 0.0
C973 C 0.96559 0.8784 0.60982 0.0
C974 C 0.97634 0.87566 0.62191 0.0
C975 C 0.97916 0.87694 0.61427 0.0
C976 C 0.96831 0.87566 0.62347 0.0
C977 C 0.92596 0.86802 0.62951 0.0
C978 C 0.92755 0.85577 0.63662 0.0
C979 C 0.91569 0.86342 0.63824 0.0
C980 C 0.91865 0.86906 0.6331 0.0
C981 C 0.92003 0.85663 0.63993 0.0
C982 C 0.9305 0.86143 0.63144 0.0
C983 C 0.92814 0.87339 0.62312 0.0
O984 O 0.9379 0.8913 0.61067 0.0
O985 O 0.93832 0.88118 0.60275 0.0
O986 O 0.93117 0.87019 0.6168 0.0
O987 O 0.93145 0.88007 0.62508 0.0
H988 H 0.92187 0.88301 0.60541 0.0
H989 H 0.91029 0.88635 0.59756 0.0
H990 H 0.92395 0.90339 0.58472 0.0
H991 H 0.93544 0.90013 0.59268 0.0
H992 H 0.97564 0.87967 0.60233 0.0
H993 H 0.96148 0.87938 0.60508 0.0
H994 H 0.98035 0.87441 0.62668 0.0
H995 H 0.96633 0.87443 0.62939 0.0
H996 H 0.93103 0.8506 0.63785 0.0
H997 H 0.90982 0.86418 0.64053 0.0
H998 H 0.91504 0.87408 0.63162 0.0
H999 H 0.93616 0.8605 0.62871 0.0
C1000 C 0.89428 0.19472 0.31837 0.0
C1001 C 0.89798 0.18738 0.31875 0.0
C1002 C 0.88589 0.18099 0.31449 0.0
C1003 C 0.89383 0.18056 0.31677 0.0
C1004 C 0.8823 0.18839 0.314 0.0
C1005 C 0.88646 0.19518 0.31592 0.0
U1006 U 0.91032 0.20609 0.32941 0.0
O1007 O 0.91644 0.21701 0.32605 0.0
O1008 O 0.90921 0.21662 0.33669 0.0
C1009 C 0.91344 0.22097 0.33194 0.0
C1010 C 0.89828 0.202 0.32075 0.0
C1011 C 0.91027 0.22884 0.33022 0.0
C1012 C 0.89926 0.23761 0.32783 0.0
C1013 C 0.90237 0.23 0.32818 0.0
C1014 C 0.91198 0.24297 0.33116 0.0
C1015 C 0.90398 0.24416 0.32959 0.0
C1016 C 0.91508 0.23538 0.33148 0.0
C1017 C 0.92519 0.19307 0.34133 0.0
C1018 C 0.93137 0.19394 0.35417 0.0
C1019 C 0.93488 0.18342 0.34531 0.0
C1020 C 0.92973 0.18642 0.3397 0.0
C1021 C 0.93562 0.18704 0.35267 0.0
C1022 C 0.9262 0.19696 0.34853 0.0
C1023 C 0.91868 0.19493 0.33595 0.0
O1024 O 0.8977 0.20376 0.32822 0.0
O1025 O 0.90533 0.20318 0.31786 0.0
O1026 O 0.92041 0.19794 0.32906 0.0
O1027 O 0.91229 0.19787 0.33909 0.0
H1028 H 0.90403 0.18691 0.32062 0.0
H1029 H 0.89681 0.17496 0.31704 0.0
H1030 H 0.8762 0.18893 0.31232 0.0
H1031 H 0.88351 0.2008 0.31561 0.0
H1032 H 0.89312 0.23835 0.32642 0.0
H1033 H 0.89856 0.22503 0.32714 0.0
H1034 H 0.91577 0.24787 0.33255 0.0
H1035 H 0.92118 0.23461 0.33306 0.0
H1036 H 0.93183 0.19683 0.3598 0.0
H1037 H 0.93794 0.178 0.34405 0.0
H1038 H 0.92897 0.18327 0.33424 0.0
H1039 H 0.92273 0.20209 0.34994 0.0
C1040 C 0.57846 0.11628 0.10006 0.0
C1041 C 0.58577 0.11962 0.10189 0.0
C1042 C 0.59176 0.11263 0.09099 0.0
C1043 C 0.59239 0.11781 0.09736 0.0
C1044 C 0.58453 0.10907 0.08939 0.0
C1045 C 0.57793 0.11086 0.09391 0.0
U1046 U 0.56775 0.12812 0.1158 0.0
O1047 O 0.55739 0.1357 0.11472 0.0
O1048 O 0.55707 0.12555 0.12268 0.0
C1049 C 0.5532 0.1315 0.11965 0.0
C1050 C 0.57121 0.11888 0.10399 0.0
C1051 C 0.54478 0.13037 0.11783 0.0
C1052 C 0.53365 0.13068 0.10884 0.0
C1053 C 0.54179 0.13043 0.11014 0.0
C1054 C 0.53143 0.13051 0.12285 0.0
C1055 C 0.52841 0.13098 0.11521 0.0
C1056 C 0.53951 0.13022 0.12414 0.0
C1057 C 0.58181 0.13968 0.12987 0.0
C1058 C 0.57999 0.15166 0.13735 0.0
C1059 C 0.59236 0.14471 0.13799 0.0
C1060 C 0.58938 0.13899 0.13296 0.0
C1061 C 0.5878 0.15124 0.14004 0.0
C1062 C 0.57703 0.14594 0.13225 0.0
C1063 C 0.57954 0.1343 0.12353 0.0
O1064 O 0.57005 0.11627 0.11115 0.0
O1065 O 0.56957 0.12636 0.10318 0.0
O1066 O 0.57645 0.13748 0.11723 0.0
O1067 O 0.57627 0.12761 0.12553 0.0
H1068 H 0.58629 0.12385 0.1066 0.0
H1069 H 0.59791 0.12071 0.09859 0.0
H1070 H 0.58391 0.10516 0.08443 0.0
H1071 H 0.57234 0.10826 0.0924 0.0
H1072 H 0.53146 0.13101 0.10288 0.0
H1073 H 0.54574 0.13057 0.10516 0.0
H1074 H 0.52754 0.1306 0.12787 0.0
H1075 H 0.54167 0.1302 0.13012 0.0
H1076 H 0.57627 0.15653 0.13899 0.0
H1077 H 0.59839 0.14422 0.13992 0.0
H1078 H 0.59316 0.1342 0.13117 0.0
H1079 H 0.57114 0.14656 0.12995 0.0
C1080 C 0.61417 0.81238 0.8176 0.0
C1081 C 0.61112 0.81983 0.81935 0.0
C1082 C 0.6226 0.826 0.81344 0.0
C1083 C 0.61531 0.82661 0.81728 0.0
C1084 C 0.6255 0.81852 0.81157 0.0
C1085 C 0.62132 0.81179 0.81363 0.0
U1086 U 0.59828 0.80146 0.82912 0.0
O1087 O 0.59199 0.79051 0.82632 0.0
O1088 O 0.59932 0.79123 0.8369 0.0
C1089 C 0.59486 0.7868 0.83245 0.0
C1090 C 0.61028 0.80514 0.82022 0.0
C1091 C 0.5975 0.77864 0.83136 0.0
C1092 C 0.60532 0.76852 0.825 0.0
C1093 C 0.60284 0.77637 0.8255 0.0
C1094 C 0.59714 0.76523 0.83613 0.0
C1095 C 0.60247 0.76286 0.83032 0.0
C1096 C 0.59467 0.773 0.83661 0.0
C1097 C 0.58381 0.81547 0.8404 0.0
C1098 C 0.57528 0.81352 0.85166 0.0
C1099 C 0.57629 0.82633 0.8456 0.0
C1100 C 0.58147 0.82332 0.84007 0.0
C1101 C 0.57323 0.82154 0.85157 0.0
C1102 C 0.58061 0.81052 0.84615 0.0
C1103 C 0.5902 0.81307 0.83515 0.0
O1104 O 0.6109 0.80362 0.82774 0.0
O1105 O 0.60321 0.80384 0.81742 0.0
O1106 O 0.58832 0.80971 0.82847 0.0
O1107 O 0.59647 0.8101 0.83847 0.0
H1108 H 0.60561 0.8204 0.82247 0.0
H1109 H 0.61299 0.83228 0.81892 0.0
H1110 H 0.63107 0.81787 0.80858 0.0
H1111 H 0.62377 0.80609 0.81226 0.0
H1112 H 0.60948 0.76687 0.82049 0.0
H1113 H 0.60513 0.78065 0.8214 0.0
H1114 H 0.59502 0.7611 0.84047 0.0
H1115 H 0.59061 0.77465 0.84121 0.0
H1116 H 0.57286 0.8096 0.85604 0.0
H1117 H 0.57494 0.83253 0.84536 0.0
H1118 H 0.58393 0.82723 0.8357 0.0
H1119 H 0.58236 0.80442 0.84648 0.0
C1120 C 0.92979 0.11601 0.90836 0.0
C1121 C 0.92255 0.11982 0.90737 0.0
C1122 C 0.9168 0.11181 0.91774 0.0
C1123 C 0.9161 0.11773 0.91202 0.0
C1124 C 0.92393 0.10772 0.91836 0.0
C1125 C 0.93037 0.10984 0.91375 0.0
U1126 U 0.94013 0.12838 0.89273 0.0
O1127 O 0.95031 0.1362 0.89391 0.0
O1128 O 0.95086 0.12616 0.88583 0.0
C1129 C 0.95455 0.13222 0.88886 0.0
C1130 C 0.93694 0.11877 0.90434 0.0
C1131 C 0.963 0.13141 0.89061 0.0
C1132 C 0.97412 0.12663 0.89825 0.0
C1133 C 0.966 0.12669 0.89667 0.0
C1134 C 0.9762 0.13589 0.88769 0.0
C1135 C 0.97928 0.13135 0.89382 0.0
C1136 C 0.96818 0.13591 0.88611 0.0
C1137 C 0.92502 0.14027 0.87969 0.0
C1138 C 0.92551 0.14762 0.86745 0.0
C1139 C 0.91412 0.14857 0.87588 0.0
C1140 C 0.91758 0.14341 0.88116 0.0
C1141 C 0.91797 0.15067 0.86891 0.0
C1142 C 0.92902 0.14241 0.87281 0.0
C1143 C 0.92808 0.13468 0.88551 0.0
O1144 O 0.93797 0.11637 0.89709 0.0
O1145 O 0.93856 0.12624 0.90532 0.0
O1146 O 0.9312 0.13764 0.89189 0.0
O1147 O 0.93158 0.12828 0.88302 0.0
H1148 H 0.92198 0.1246 0.90321 0.0
H1149 H 0.91068 0.12098 0.91138 0.0
H1150 H 0.92459 0.10299 0.92255 0.0
H1151 H 0.93589 0.1068 0.91456 0.0
H1152 H 0.97632 0.1231 0.90306 0.0
H1153 H 0.96208 0.12318 0.90024 0.0
H1154 H 0.98001 0.13951 0.88411 0.0
H1155 H 0.966 0.13958 0.8814 0.0
H1156 H 0.92864 0.14921 0.86215 0.0
H1157 H 0.90845 0.15101 0.87734 0.0
H1158 H 0.91442 0.14186 0.88645 0.0
H1159 H 0.93478 0.14005 0.87158 0.0
C1160 C 0.61369 0.19485 0.6895 0.0
C1161 C 0.61101 0.18742 0.68715 0.0
C1162 C 0.62218 0.18127 0.69364 0.0
C1163 C 0.61523 0.18067 0.68921 0.0
C1164 C 0.6247 0.18871 0.6961 0.0
C1165 C 0.62049 0.19543 0.69405 0.0
U1166 U 0.59787 0.20603 0.67803 0.0
O1167 O 0.59145 0.21681 0.6812 0.0
O1168 O 0.59899 0.21661 0.67076 0.0
C1169 C 0.59444 0.22083 0.67533 0.0
C1170 C 0.60978 0.20212 0.68697 0.0
C1171 C 0.59713 0.22888 0.67696 0.0
C1172 C 0.60681 0.2383 0.68161 0.0
C1173 C 0.60415 0.23052 0.68094 0.0
C1174 C 0.59541 0.2428 0.67445 0.0
C1175 C 0.60251 0.24454 0.67829 0.0
C1176 C 0.59274 0.23509 0.67386 0.0
C1177 C 0.58344 0.19217 0.66631 0.0
C1178 C 0.57573 0.19334 0.65435 0.0
C1179 C 0.57514 0.18144 0.66207 0.0
C1180 C 0.58031 0.18468 0.66748 0.0
C1181 C 0.57278 0.18569 0.65541 0.0
C1182 C 0.58106 0.19656 0.65975 0.0
C1183 C 0.58984 0.19461 0.67155 0.0
O1184 O 0.61047 0.20381 0.67949 0.0
O1185 O 0.60267 0.20331 0.68971 0.0
O1186 O 0.58799 0.19767 0.67838 0.0
O1187 O 0.59607 0.1978 0.66831 0.0
H1188 H 0.60578 0.18687 0.68359 0.0
H1189 H 0.61321 0.17502 0.68712 0.0
H1190 H 0.63 0.18935 0.69954 0.0
H1191 H 0.62264 0.20111 0.69591 0.0
H1192 H 0.6123 0.23942 0.6846 0.0
H1193 H 0.60765 0.22579 0.68335 0.0
H1194 H 0.59206 0.24736 0.67157 0.0
H1195 H 0.58736 0.23394 0.67069 0.0
H1196 H 0.57405 0.19676 0.64926 0.0
H1197 H 0.57327 0.17543 0.66296 0.0
H1198 H 0.58219 0.18115 0.67243 0.0
H1199 H 0.58347 0.20234 0.6587 0.0
C1200 C 0.58049 0.89086 0.40756 0.0
C1201 C 0.588 0.89064 0.4042 0.0
C1202 C 0.59362 0.89538 0.4165 0.0
C1203 C 0.59455 0.89291 0.40866 0.0
C1204 C 0.58606 0.89553 0.41975 0.0
C1205 C 0.57959 0.89336 0.41531 0.0
U1206 U 0.56693 0.87962 0.39258 0.0
O1207 O 0.55593 0.87388 0.39624 0.0
O1208 O 0.55559 0.88418 0.3882 0.0
C1209 C 0.55168 0.87889 0.39223 0.0
C1210 C 0.57336 0.88837 0.40345 0.0
C1211 C 0.5431 0.87833 0.39197 0.0
C1212 C 0.53033 0.88353 0.39553 0.0
C1213 C 0.53847 0.8844 0.39501 0.0
C1214 C 0.53136 0.8706 0.38974 0.0
C1215 C 0.52669 0.87662 0.3929 0.0
C1216 C 0.53951 0.87143 0.38933 0.0
C1217 C 0.57998 0.86627 0.3777 0.0
C1218 C 0.5819 0.86053 0.36479 0.0
C1219 C 0.59063 0.85713 0.37547 0.0
C1220 C 0.58646 0.86208 0.38048 0.0
C1221 C 0.58832 0.85619 0.36761 0.0
C1222 C 0.57777 0.86555 0.3698 0.0
C1223 C 0.57531 0.87107 0.38312 0.0
O1224 O 0.57216 0.89087 0.39625 0.0
O1225 O 0.57113 0.8811 0.40463 0.0
O1226 O 0.57329 0.86859 0.39013 0.0
O1227 O 0.57295 0.87817 0.38123 0.0
H1228 H 0.5888 0.88868 0.39822 0.0
H1229 H 0.60032 0.89268 0.40602 0.0
H1230 H 0.58513 0.89709 0.42584 0.0
H1231 H 0.57383 0.89349 0.41801 0.0
H1232 H 0.52687 0.88825 0.39798 0.0
H1233 H 0.54117 0.88972 0.39718 0.0
H1234 H 0.52873 0.86515 0.38779 0.0
H1235 H 0.54301 0.86665 0.38706 0.0
H1236 H 0.58006 0.86004 0.35873 0.0
H1237 H 0.59553 0.85384 0.37783 0.0
H1238 H 0.58827 0.86258 0.38655 0.0
H1239 H 0.57275 0.86874 0.36756 0.0
C1240 C 0.89386 0.81242 0.18982 0.0
C1241 C 0.89693 0.81993 0.18833 0.0
C1242 C 0.88518 0.82591 0.19389 0.0
C1243 C 0.89262 0.82663 0.19036 0.0
C1244 C 0.88225 0.81838 0.19548 0.0
C1245 C 0.88655 0.81172 0.19346 0.0
U1246 U 0.91 0.80132 0.17861 0.0
O1247 O 0.91612 0.79036 0.18179 0.0
O1248 O 0.90894 0.79092 0.1711 0.0
C1249 C 0.91332 0.78655 0.1757 0.0
C1250 C 0.89791 0.80523 0.18731 0.0
C1251 C 0.91066 0.7784 0.17688 0.0
C1252 C 0.90172 0.76853 0.18212 0.0
C1253 C 0.90446 0.77633 0.18191 0.0
C1254 C 0.9115 0.76489 0.17249 0.0
C1255 C 0.90512 0.76279 0.17725 0.0
C1256 C 0.91423 0.77259 0.17232 0.0
C1257 C 0.92483 0.81452 0.16689 0.0
C1258 C 0.9316 0.81291 0.15443 0.0
C1259 C 0.93397 0.82447 0.16233 0.0
C1260 C 0.92879 0.82164 0.16801 0.0
C1261 C 0.93525 0.82024 0.1554 0.0
C1262 C 0.92643 0.81005 0.16016 0.0
C1263 C 0.91833 0.81263 0.17226 0.0
O1264 O 0.89738 0.80359 0.1798 0.0
O1265 O 0.90496 0.80404 0.19019 0.0
O1266 O 0.92006 0.80949 0.17909 0.0
O1267 O 0.91194 0.80973 0.16907 0.0
H1268 H 0.90256 0.82059 0.18546 0.0
H1269 H 0.89497 0.83236 0.18893 0.0
H1270 H 0.87657 0.81763 0.19823 0.0
H1271 H 0.88408 0.80598 0.19464 0.0
H1272 H 0.89674 0.76708 0.18579 0.0
H1273 H 0.9016 0.78074 0.18547 0.0
H1274 H 0.91426 0.76059 0.16872 0.0
H1275 H 0.91902 0.77407 0.16841 0.0
H1276 H 0.93251 0.80956 0.14911 0.0
H1277 H 0.93664 0.83017 0.16317 0.0
H1278 H 0.92757 0.82522 0.17312 0.0
H1279 H 0.92342 0.80454 0.15916 0.0
C1280 C 0.59989 0.92942 0.8914 0.0
C1281 C 0.60183 0.92195 0.88852 0.0
C1282 C 0.59058 0.91635 0.89532 0.0
C1283 C 0.5972 0.91543 0.8905 0.0
C1284 C 0.58892 0.92377 0.89848 0.0
C1285 C 0.59355 0.93024 0.89654 0.0
U1286 U 0.61588 0.93985 0.87953 0.0
O1287 O 0.6149 0.95 0.87162 0.0
O1288 O 0.6225 0.95069 0.88202 0.0
C1289 C 0.61972 0.95432 0.87581 0.0
C1290 C 0.60392 0.93655 0.88864 0.0
C1291 C 0.61786 0.96273 0.87648 0.0
C1292 C 0.60978 0.97377 0.88066 0.0
C1293 C 0.61145 0.96568 0.88076 0.0
C1294 C 0.62094 0.97594 0.87215 0.0
C1295 C 0.61447 0.97896 0.87624 0.0
C1296 C 0.6226 0.96794 0.87228 0.0
C1297 C 0.63027 0.92582 0.86831 0.0
C1298 C 0.63625 0.92574 0.85535 0.0
C1299 C 0.63979 0.91581 0.86488 0.0
C1300 C 0.63479 0.91927 0.87035 0.0
C1301 C 0.64032 0.91882 0.85723 0.0
C1302 C 0.63123 0.92922 0.86085 0.0
C1303 C 0.62383 0.92808 0.87361 0.0
O1304 O 0.61104 0.93775 0.89134 0.0
O1305 O 0.60325 0.93798 0.88109 0.0
O1306 O 0.61748 0.93099 0.87036 0.0
O1307 O 0.6257 0.93144 0.88029 0.0
H1308 H 0.60671 0.92121 0.88452 0.0
H1309 H 0.59855 0.90977 0.88796 0.0
H1310 H 0.58384 0.9246 0.9022 0.0
H1311 H 0.59197 0.93596 0.89882 0.0
H1312 H 0.60472 0.97593 0.88383 0.0
H1313 H 0.60769 0.96173 0.88403 0.0
H1314 H 0.62472 0.97978 0.86878 0.0
H1315 H 0.62757 0.9658 0.86895 0.0
H1316 H 0.63658 0.92818 0.84949 0.0
H1317 H 0.64298 0.91057 0.86652 0.0
H1318 H 0.63414 0.91656 0.87606 0.0
H1319 H 0.62779 0.93428 0.85914 0.0
C1320 C 0.81254 0.81774 0.61339 0.0
C1321 C 0.82004 0.81945 0.61043 0.0
C1322 C 0.826 0.81388 0.62218 0.0
C1323 C 0.82675 0.81748 0.61479 0.0
C1324 C 0.81849 0.81194 0.62494 0.0
C1325 C 0.81184 0.81386 0.62059 0.0
U1326 U 0.8012 0.82922 0.59755 0.0
O1327 O 0.79004 0.82627 0.59171 0.0
O1328 O 0.79093 0.83687 0.59898 0.0
C1329 C 0.78639 0.83239 0.59468 0.0
C1330 C 0.80532 0.82036 0.60946 0.0
C1331 C 0.77829 0.83129 0.59753 0.0
C1332 C 0.76828 0.82483 0.60544 0.0
C1333 C 0.7761 0.82535 0.60282 0.0
C1334 C 0.76489 0.83611 0.59749 0.0
C1335 C 0.76259 0.8302 0.60276 0.0
C1336 C 0.77263 0.83662 0.5949 0.0
C1337 C 0.81397 0.841 0.58236 0.0
C1338 C 0.81582 0.85437 0.57765 0.0
C1339 C 0.82206 0.84357 0.5709 0.0
C1340 C 0.81863 0.83829 0.57615 0.0
C1341 C 0.82104 0.85169 0.57186 0.0
C1342 C 0.81231 0.84907 0.58286 0.0
C1343 C 0.81226 0.83557 0.58891 0.0
O1344 O 0.80377 0.82787 0.6101 0.0
O1345 O 0.80397 0.81756 0.6024 0.0
O1346 O 0.80905 0.82876 0.58724 0.0
O1347 O 0.80968 0.83866 0.59548 0.0
H1348 H 0.82069 0.82247 0.60487 0.0
H1349 H 0.83248 0.81904 0.61254 0.0
H1350 H 0.81777 0.80907 0.63057 0.0
H1351 H 0.8061 0.81248 0.62296 0.0
H1352 H 0.76669 0.82025 0.60954 0.0
H1353 H 0.7804 0.8212 0.60495 0.0
H1354 H 0.76074 0.84048 0.5955 0.0
H1355 H 0.77422 0.84128 0.59088 0.0
H1356 H 0.81488 0.86059 0.5785 0.0
H1357 H 0.82587 0.84131 0.56635 0.0
H1358 H 0.82001 0.83211 0.57562 0.0
H1359 H 0.80873 0.85135 0.58758 0.0
C1360 C 0.90818 0.07794 0.39173 0.0
C1361 C 0.90464 0.08538 0.39205 0.0
C1362 C 0.9171 0.09126 0.39603 0.0
C1363 C 0.90906 0.09198 0.39421 0.0
C1364 C 0.92055 0.08377 0.39568 0.0
C1365 C 0.91613 0.0772 0.39362 0.0
U1366 U 0.89225 0.06773 0.37952 0.0
O1367 O 0.89332 0.05741 0.3719 0.0
O1368 O 0.88515 0.05714 0.38188 0.0
C1369 C 0.88828 0.05325 0.376 0.0
C1370 C 0.90394 0.07089 0.38904 0.0
C1371 C 0.8901 0.04484 0.3772 0.0
C1372 C 0.89914 0.03375 0.37693 0.0
C1373 C 0.89781 0.04188 0.37719 0.0
C1374 C 0.88514 0.03146 0.37706 0.0
C1375 C 0.8928 0.02847 0.37659 0.0
C1376 C 0.88381 0.03954 0.37735 0.0
C1377 C 0.87927 0.08261 0.36741 0.0
C1378 C 0.86701 0.08179 0.36016 0.0
C1379 C 0.87537 0.09319 0.35876 0.0
C1380 C 0.88067 0.08995 0.36405 0.0
C1381 C 0.86847 0.08918 0.35673 0.0
C1382 C 0.8724 0.0785 0.36546 0.0
C1383 C 0.88513 0.07974 0.37305 0.0
O1384 O 0.89666 0.07001 0.39146 0.0
O1385 O 0.90489 0.06917 0.38159 0.0
O1386 O 0.89147 0.07651 0.37011 0.0
O1387 O 0.88267 0.0764 0.37955 0.0
H1388 H 0.89852 0.0861 0.39052 0.0
H1389 H 0.90622 0.09766 0.39438 0.0
H1390 H 0.92676 0.08299 0.39672 0.0
H1391 H 0.91899 0.07154 0.39331 0.0
H1392 H 0.90511 0.0316 0.37661 0.0
H1393 H 0.90277 0.04585 0.37706 0.0
H1394 H 0.88014 0.02754 0.37696 0.0
H1395 H 0.87783 0.04167 0.37735 0.0
H1396 H 0.86168 0.07861 0.35884 0.0
H1397 H 0.87677 0.09882 0.35617 0.0
H1398 H 0.88592 0.09322 0.36551 0.0
H1399 H 0.8712 0.07283 0.36806 0.0
C1400 C 0.69532 0.18987 0.11407 0.0
C1401 C 0.68812 0.19027 0.11007 0.0
C1402 C 0.68148 0.19395 0.1222 0.0
C1403 C 0.68126 0.19235 0.1141 0.0
C1404 C 0.68872 0.19364 0.12611 0.0
C1405 C 0.69556 0.19162 0.12209 0.0
U1406 U 0.70644 0.17856 0.09817 0.0
O1407 O 0.71734 0.18153 0.09187 0.0
O1408 O 0.71677 0.17093 0.0992 0.0
C1409 C 0.72115 0.17547 0.09476 0.0
C1410 C 0.70262 0.18741 0.11016 0.0
C1411 C 0.72927 0.17671 0.09749 0.0
C1412 C 0.73929 0.1836 0.10499 0.0
C1413 C 0.73149 0.18296 0.10239 0.0
C1414 C 0.74265 0.17186 0.09778 0.0
C1415 C 0.74495 0.17798 0.10278 0.0
C1416 C 0.73493 0.17124 0.09517 0.0
C1417 C 0.69215 0.16701 0.08402 0.0
C1418 C 0.69398 0.15638 0.07469 0.0
C1419 C 0.68093 0.16124 0.0775 0.0
C1420 C 0.68407 0.16673 0.08264 0.0
C1421 C 0.6858 0.15592 0.07353 0.0
C1422 C 0.69714 0.16187 0.07997 0.0
C1423 C 0.69483 0.17231 0.09025 0.0
O1424 O 0.70433 0.17993 0.11081 0.0
O1425 O 0.70388 0.19022 0.10308 0.0
O1426 O 0.69813 0.17898 0.08824 0.0
O1427 O 0.69794 0.16904 0.09649 0.0
H1428 H 0.68781 0.18892 0.10387 0.0
H1429 H 0.6758 0.19269 0.11088 0.0
H1430 H 0.68908 0.19478 0.13235 0.0
H1431 H 0.70104 0.19132 0.12528 0.0
H1432 H 0.74089 0.18849 0.10872 0.0
H1433 H 0.7272 0.18727 0.10423 0.0
H1434 H 0.7468 0.16737 0.09602 0.0
H1435 H 0.73334 0.16638 0.0914 0.0
H1436 H 0.69792 0.15249 0.07159 0.0
H1437 H 0.67462 0.16101 0.07684 0.0
H1438 H 0.68013 0.17061 0.08576 0.0
H1439 H 0.70341 0.16201 0.08098 0.0
C1440 C 0.60045 0.07852 0.61641 0.0
C1441 C 0.60107 0.08523 0.62116 0.0
C1442 C 0.5915 0.09203 0.61302 0.0
C1443 C 0.59662 0.09191 0.61949 0.0
C1444 C 0.59121 0.08547 0.60805 0.0
C1445 C 0.59565 0.07876 0.60974 0.0
U1446 U 0.61558 0.06748 0.62846 0.0
O1447 O 0.61421 0.05711 0.63598 0.0
O1448 O 0.6226 0.05683 0.62618 0.0
C1449 C 0.61934 0.05295 0.632 0.0
C1450 C 0.60419 0.07108 0.61876 0.0
C1451 C 0.61754 0.04456 0.63077 0.0
C1452 C 0.6084 0.03365 0.62933 0.0
C1453 C 0.6099 0.04176 0.62943 0.0
C1454 C 0.62214 0.0311 0.63176 0.0
C1455 C 0.6145 0.02822 0.63067 0.0
C1456 C 0.62363 0.03915 0.63178 0.0
C1457 C 0.62847 0.08225 0.64084 0.0
C1458 C 0.64109 0.08202 0.6475 0.0
C1459 C 0.63197 0.09265 0.64986 0.0
C1460 C 0.62668 0.08928 0.64466 0.0
C1461 C 0.63926 0.08911 0.65135 0.0
C1462 C 0.63572 0.0786 0.64228 0.0
C1463 C 0.62271 0.07937 0.63512 0.0
O1464 O 0.61146 0.07002 0.61644 0.0
O1465 O 0.60304 0.06907 0.62611 0.0
O1466 O 0.61629 0.07618 0.63794 0.0
O1467 O 0.62526 0.07603 0.62866 0.0
H1468 H 0.60478 0.08519 0.62632 0.0
H1469 H 0.59698 0.09691 0.62339 0.0
H1470 H 0.58725 0.08535 0.60309 0.0
H1471 H 0.59509 0.07365 0.60602 0.0
H1472 H 0.60247 0.03165 0.62826 0.0
H1473 H 0.60509 0.04583 0.62862 0.0
H1474 H 0.62698 0.02713 0.63287 0.0
H1475 H 0.62956 0.04117 0.63288 0.0
H1476 H 0.64671 0.07921 0.64842 0.0
H1477 H 0.6303 0.09804 0.65278 0.0
H1478 H 0.62115 0.09222 0.64358 0.0
H1479 H 0.63724 0.07319 0.63932 0.0
C1480 C 0.69523 0.81712 0.39434 0.0
C1481 C 0.68774 0.81884 0.39732 0.0
C1482 C 0.68176 0.81343 0.38553 0.0
C1483 C 0.68103 0.81696 0.39294 0.0
C1484 C 0.68926 0.81146 0.38275 0.0
C1485 C 0.69592 0.81331 0.38711 0.0
U1486 U 0.70624 0.82869 0.4102 0.0
O1487 O 0.71715 0.82573 0.41651 0.0
O1488 O 0.71664 0.83619 0.40901 0.0
C1489 C 0.72101 0.83169 0.41348 0.0
C1490 C 0.70244 0.81967 0.39833 0.0
C1491 C 0.72903 0.8302 0.4106 0.0
C1492 C 0.73825 0.82531 0.40087 0.0
C1493 C 0.73057 0.82583 0.4038 0.0
C1494 C 0.74288 0.83337 0.41159 0.0
C1495 C 0.74448 0.82927 0.40462 0.0
C1496 C 0.73526 0.8338 0.41455 0.0
C1497 C 0.6925 0.84047 0.42454 0.0
C1498 C 0.69415 0.85245 0.4321 0.0
C1499 C 0.68188 0.84533 0.43265 0.0
C1500 C 0.68494 0.83967 0.42762 0.0
C1501 C 0.68636 0.8519 0.43482 0.0
C1502 C 0.69718 0.84681 0.42692 0.0
C1503 C 0.69477 0.83508 0.41821 0.0
O1504 O 0.7041 0.82716 0.3976 0.0
O1505 O 0.7036 0.81697 0.40546 0.0
O1506 O 0.69797 0.82835 0.42016 0.0
O1507 O 0.69781 0.83825 0.41188 0.0
H1508 H 0.6871 0.82182 0.40289 0.0
H1509 H 0.6753 0.81853 0.3952 0.0
H1510 H 0.68997 0.80865 0.3771 0.0
H1511 H 0.70165 0.81193 0.38474 0.0
H1512 H 0.73929 0.82188 0.39563 0.0
H1513 H 0.72582 0.82297 0.40068 0.0
H1514 H 0.74747 0.83653 0.41463 0.0
H1515 H 0.73418 0.83721 0.4198 0.0
H1516 H 0.69787 0.85729 0.43385 0.0
H1517 H 0.67585 0.8447 0.43455 0.0
H1518 H 0.68122 0.83484 0.42581 0.0
H1519 H 0.70305 0.84752 0.42461 0.0
C1520 C 0.90683 0.92685 0.11546 0.0
C1521 C 0.90588 0.91993 0.11979 0.0
C1522 C 0.91607 0.91366 0.11197 0.0
C1523 C 0.91046 0.91336 0.11804 0.0
C1524 C 0.91667 0.92049 0.10741 0.0
C1525 C 0.91206 0.92701 0.10914 0.0
U1526 U 0.89218 0.94016 0.1268 0.0
O1527 O 0.89545 0.95096 0.1331 0.0
O1528 O 0.88765 0.95157 0.12262 0.0
C1529 C 0.89162 0.95535 0.12807 0.0
C1530 C 0.90328 0.93427 0.11794 0.0
C1531 C 0.89129 0.96392 0.12882 0.0
C1532 C 0.89419 0.97672 0.12329 0.0
C1533 C 0.89336 0.96861 0.1224 0.0
C1534 C 0.89061 0.97555 0.13699 0.0
C1535 C 0.89283 0.98027 0.1306 0.0
C1536 C 0.8899 0.96742 0.13612 0.0
C1537 C 0.87701 0.92714 0.13953 0.0
C1538 C 0.86912 0.92739 0.15141 0.0
C1539 C 0.8705 0.91532 0.14405 0.0
C1540 C 0.87514 0.91921 0.13856 0.0
C1541 C 0.86765 0.9193 0.15066 0.0
C1542 C 0.87384 0.93129 0.14589 0.0
C1543 C 0.88299 0.93044 0.13428 0.0
O1544 O 0.89622 0.93586 0.1153 0.0
O1545 O 0.90429 0.93616 0.12533 0.0
O1546 O 0.88954 0.93316 0.13729 0.0
O1547 O 0.8811 0.93337 0.1274 0.0
H1548 H 0.90186 0.91971 0.12471 0.0
H1549 H 0.90985 0.90814 0.12162 0.0
H1550 H 0.92103 0.92096 0.10282 0.0
H1551 H 0.91289 0.93235 0.10578 0.0
H1552 H 0.8961 0.98017 0.1183 0.0
H1553 H 0.89466 0.96598 0.11677 0.0
H1554 H 0.88949 0.97814 0.14268 0.0
H1555 H 0.88838 0.96387 0.14117 0.0
H1556 H 0.86696 0.93059 0.15646 0.0
H1557 H 0.86935 0.90913 0.14326 0.0
H1558 H 0.87755 0.9159 0.1337 0.0
H1559 H 0.87526 0.93743 0.14675 0.0
C1560 C 0.81254 0.1899 0.89412 0.0
C1561 C 0.81987 0.18778 0.89721 0.0
C1562 C 0.82641 0.19341 0.88577 0.0
C1563 C 0.82676 0.18958 0.89309 0.0
C1564 C 0.81905 0.1957 0.88285 0.0
C1565 C 0.81219 0.19396 0.88699 0.0
U1566 U 0.80105 0.17849 0.9097 0.0
O1567 O 0.7903 0.18169 0.91617 0.0
O1568 O 0.79039 0.1714 0.90842 0.0
C1569 C 0.78623 0.17593 0.91306 0.0
C1570 C 0.80516 0.18758 0.89796 0.0
C1571 C 0.77815 0.17764 0.91046 0.0
C1572 C 0.76861 0.18115 0.9004 0.0
C1573 C 0.77642 0.18083 0.90305 0.0
C1574 C 0.76426 0.17544 0.91266 0.0
C1575 C 0.76249 0.17822 0.90511 0.0
C1576 C 0.77199 0.17517 0.9153 0.0
C1577 C 0.81544 0.16622 0.92342 0.0
C1578 C 0.81404 0.15692 0.93418 0.0
C1579 C 0.8269 0.15982 0.92887 0.0
C1580 C 0.82355 0.165 0.92354 0.0
C1581 C 0.82223 0.15577 0.93431 0.0
C1582 C 0.81065 0.16216 0.92876 0.0
C1583 C 0.81247 0.17163 0.91739 0.0
O1584 O 0.80321 0.18018 0.89711 0.0
O1585 O 0.80405 0.1902 0.90513 0.0
O1586 O 0.80938 0.17833 0.91961 0.0
O1587 O 0.80917 0.16857 0.91115 0.0
H1588 H 0.82025 0.18465 0.90273 0.0
H1589 H 0.83235 0.18793 0.89562 0.0
H1590 H 0.81856 0.19863 0.87724 0.0
H1591 H 0.80658 0.19563 0.88452 0.0
H1592 H 0.76741 0.18326 0.89453 0.0
H1593 H 0.78111 0.18274 0.89921 0.0
H1594 H 0.75966 0.17317 0.91641 0.0
H1595 H 0.7732 0.17268 0.92102 0.0
H1596 H 0.81031 0.15382 0.93828 0.0
H1597 H 0.83318 0.15889 0.92864 0.0
H1598 H 0.82733 0.16801 0.9194 0.0
H1599 H 0.80436 0.163 0.92871 0.0
C1600 C 0.891 0.59996 0.92883 0.0
C1601 C 0.88716 0.60138 0.92167 0.0
C1602 C 0.89471 0.59099 0.91547 0.0
C1603 C 0.88898 0.59688 0.91504 0.0
C1604 C 0.8988 0.58984 0.92251 0.0
C1605 C 0.89695 0.59429 0.92915 0.0
U1606 U 0.87932 0.61573 0.9396 0.0
O1607 O 0.87159 0.61473 0.94988 0.0
O1608 O 0.88186 0.62251 0.95034 0.0
C1609 C 0.87577 0.61963 0.9541 0.0
C1610 C 0.88845 0.60384 0.93613 0.0
C1611 C 0.8767 0.61778 0.96252 0.0
C1612 C 0.87952 0.60888 0.97336 0.0
C1613 C 0.87949 0.61052 0.96526 0.0
C1614 C 0.87421 0.62178 0.97598 0.0
C1615 C 0.87681 0.6145 0.97876 0.0
C1616 C 0.87413 0.62339 0.96795 0.0
C1617 C 0.86799 0.62986 0.92535 0.0
C1618 C 0.85691 0.63853 0.9276 0.0
C1619 C 0.86234 0.6372 0.91454 0.0
C1620 C 0.86796 0.63202 0.91742 0.0
C1621 C 0.85661 0.64036 0.91954 0.0
C1622 C 0.86254 0.63327 0.93049 0.0
C1623 C 0.8733 0.62352 0.92774 0.0
O1624 O 0.89113 0.61096 0.93735 0.0
O1625 O 0.88096 0.6031 0.93777 0.0
O1626 O 0.87003 0.61726 0.93082 0.0
O1627 O 0.87994 0.62549 0.93111 0.0
H1628 H 0.88255 0.60573 0.9213 0.0
H1629 H 0.88572 0.59779 0.90966 0.0
H1630 H 0.90318 0.58526 0.92297 0.0
H1631 H 0.89996 0.59311 0.93461 0.0
H1632 H 0.88154 0.60322 0.9754 0.0
H1633 H 0.88147 0.60609 0.96117 0.0
H1634 H 0.87203 0.62617 0.98003 0.0
H1635 H 0.87189 0.62899 0.96595 0.0
H1636 H 0.85267 0.641 0.93162 0.0
H1637 H 0.86225 0.63843 0.90831 0.0
H1638 H 0.87212 0.62942 0.91337 0.0
H1639 H 0.86249 0.63168 0.93664 0.0
C1640 C 0.39183 0.90618 0.08186 0.0
C1641 C 0.38674 0.90619 0.08834 0.0
C1642 C 0.39532 0.91535 0.0951 0.0
C1643 C 0.38847 0.91077 0.09491 0.0
C1644 C 0.40064 0.91491 0.08885 0.0
C1645 C 0.3989 0.91036 0.08227 0.0
U1646 U 0.3802 0.89244 0.06795 0.0
O1647 O 0.37411 0.8965 0.05733 0.0
O1648 O 0.38382 0.8878 0.05635 0.0
C1649 C 0.37859 0.8922 0.05277 0.0
C1650 C 0.38939 0.90305 0.07423 0.0
C1651 C 0.37774 0.89249 0.0442 0.0
C1652 C 0.37703 0.89993 0.03206 0.0
C1653 C 0.3777 0.8997 0.04024 0.0
C1654 C 0.3764 0.88573 0.03174 0.0
C1655 C 0.37627 0.89295 0.02775 0.0
C1656 C 0.37719 0.88551 0.0399 0.0
C1657 C 0.36755 0.87675 0.08036 0.0
C1658 C 0.35527 0.86951 0.08009 0.0
C1659 C 0.36358 0.86896 0.0916 0.0
C1660 C 0.36901 0.87381 0.08789 0.0
C1661 C 0.35657 0.8669 0.08782 0.0
C1662 C 0.36072 0.87446 0.07639 0.0
C1663 C 0.37283 0.88292 0.07746 0.0
O1664 O 0.39189 0.89603 0.07227 0.0
O1665 O 0.38204 0.90432 0.07233 0.0
O1666 O 0.36983 0.8896 0.07504 0.0
O1667 O 0.37964 0.88112 0.07433 0.0
H1668 H 0.38124 0.90301 0.08813 0.0
H1669 H 0.38429 0.91103 0.09969 0.0
H1670 H 0.40591 0.91846 0.08882 0.0
H1671 H 0.40285 0.91048 0.0773 0.0
H1672 H 0.37695 0.90556 0.02912 0.0
H1673 H 0.37823 0.90516 0.04345 0.0
H1674 H 0.37593 0.88027 0.02855 0.0
H1675 H 0.37729 0.8799 0.04287 0.0
H1676 H 0.34986 0.86809 0.07708 0.0
H1677 H 0.36476 0.86701 0.09753 0.0
H1678 H 0.37423 0.87557 0.09108 0.0
H1679 H 0.35946 0.87673 0.07059 0.0
C1680 C 0.81748 0.61346 0.81278 0.0
C1681 C 0.82095 0.61155 0.82001 0.0
C1682 C 0.81348 0.62192 0.82642 0.0
C1683 C 0.81896 0.61576 0.82679 0.0
C1684 C 0.8099 0.62364 0.81921 0.0
C1685 C 0.81187 0.61944 0.81246 0.0
U1686 U 0.829 0.59787 0.80144 0.0
O1687 O 0.82589 0.59145 0.79063 0.0
O1688 O 0.83626 0.59909 0.79088 0.0
C1689 C 0.83175 0.5945 0.78664 0.0
C1690 C 0.81992 0.60964 0.80543 0.0
C1691 C 0.83017 0.59716 0.77855 0.0
C1692 C 0.82595 0.60701 0.76908 0.0
C1693 C 0.82624 0.60421 0.77684 0.0
C1694 C 0.8332 0.59562 0.76472 0.0
C1695 C 0.82962 0.60282 0.76301 0.0
C1696 C 0.83345 0.59281 0.77241 0.0
C1697 C 0.84103 0.58399 0.81576 0.0
C1698 C 0.85131 0.57424 0.81408 0.0
C1699 C 0.84702 0.57788 0.82712 0.0
C1700 C 0.84159 0.58305 0.82389 0.0
C1701 C 0.85201 0.57346 0.82229 0.0
C1702 C 0.84587 0.57953 0.81082 0.0
C1703 C 0.83565 0.5901 0.81294 0.0
O1704 O 0.82735 0.61045 0.80361 0.0
O1705 O 0.81726 0.6025 0.80426 0.0
O1706 O 0.82895 0.58795 0.80977 0.0
O1707 O 0.83877 0.59635 0.8097 0.0
H1708 H 0.82532 0.60695 0.82036 0.0
H1709 H 0.82191 0.61437 0.83225 0.0
H1710 H 0.80562 0.62832 0.81876 0.0
H1711 H 0.80913 0.62099 0.80694 0.0
H1712 H 0.82325 0.61264 0.7679 0.0
H1713 H 0.8237 0.60767 0.78152 0.0
H1714 H 0.83615 0.59234 0.76015 0.0
H1715 H 0.83654 0.58739 0.77361 0.0
H1716 H 0.85497 0.57081 0.81019 0.0
H1717 H 0.84744 0.57752 0.83344 0.0
H1718 H 0.83794 0.58648 0.82779 0.0
H1719 H 0.84551 0.5802 0.80452 0.0
C1720 C 0.11605 0.09974 0.57817 0.0
C1721 C 0.12047 0.09997 0.58512 0.0
C1722 C 0.11158 0.09057 0.59124 0.0
C1723 C 0.11826 0.09541 0.59159 0.0
C1724 C 0.10692 0.09075 0.58443 0.0
C1725 C 0.10917 0.09526 0.57795 0.0
U1726 U 0.12846 0.11518 0.56768 0.0
O1727 O 0.13648 0.1139 0.55765 0.0
O1728 O 0.12644 0.12196 0.55684 0.0
C1729 C 0.13259 0.11893 0.55329 0.0
C1730 C 0.11883 0.10362 0.57093 0.0
C1731 C 0.13198 0.11719 0.54483 0.0
C1732 C 0.12649 0.11043 0.53348 0.0
C1733 C 0.12664 0.11179 0.54164 0.0
C1734 C 0.13701 0.1198 0.53175 0.0
C1735 C 0.13171 0.11443 0.52844 0.0
C1736 C 0.13713 0.12116 0.53981 0.0
C1737 C 0.14018 0.12842 0.58268 0.0
C1738 C 0.14739 0.14072 0.582 0.0
C1739 C 0.14871 0.13229 0.59336 0.0
C1740 C 0.14348 0.12699 0.59005 0.0
C1741 C 0.15076 0.13923 0.58942 0.0
C1742 C 0.14214 0.13533 0.57863 0.0
C1743 C 0.13458 0.12255 0.57973 0.0
O1744 O 0.11643 0.11085 0.56974 0.0
O1745 O 0.12631 0.10262 0.56935 0.0
O1746 O 0.13756 0.11611 0.57676 0.0
O1747 O 0.12823 0.12499 0.57611 0.0
H1748 H 0.12579 0.10344 0.58544 0.0
H1749 H 0.12197 0.09542 0.59675 0.0
H1750 H 0.10162 0.08728 0.58405 0.0
H1751 H 0.10564 0.09507 0.57267 0.0
H1752 H 0.12223 0.10635 0.53113 0.0
H1753 H 0.12259 0.10866 0.54541 0.0
H1754 H 0.14117 0.12292 0.5281 0.0
H1755 H 0.14131 0.12532 0.54215 0.0
H1756 H 0.1487 0.14608 0.57886 0.0
H1757 H 0.15125 0.13087 0.59901 0.0
H1758 H 0.14201 0.12172 0.59328 0.0
H1759 H 0.1396 0.13656 0.57295 0.0
C1760 C 0.19025 0.89425 0.81252 0.0
C1761 C 0.18796 0.89699 0.81996 0.0
C1762 C 0.19378 0.88545 0.82606 0.0
C1763 C 0.18977 0.89262 0.82671 0.0
C1764 C 0.19625 0.88289 0.81864 0.0
C1765 C 0.19451 0.88726 0.81194 0.0
U1766 U 0.17858 0.90981 0.80109 0.0
O1767 O 0.18166 0.91621 0.79024 0.0
O1768 O 0.17146 0.90834 0.79048 0.0
C1769 C 0.17591 0.91299 0.78624 0.0
C1770 C 0.18781 0.89819 0.80523 0.0
C1771 C 0.17758 0.91037 0.77816 0.0
C1772 C 0.18107 0.90029 0.76864 0.0
C1773 C 0.18078 0.90296 0.77644 0.0
C1774 C 0.17531 0.91251 0.76426 0.0
C1775 C 0.17811 0.90498 0.7625 0.0
C1776 C 0.17507 0.91517 0.772 0.0
C1777 C 0.16612 0.92349 0.81531 0.0
C1778 C 0.1572 0.93456 0.81385 0.0
C1779 C 0.15918 0.9286 0.8266 0.0
C1780 C 0.16442 0.92329 0.82333 0.0
C1781 C 0.15551 0.93432 0.82194 0.0
C1782 C 0.1625 0.92915 0.81053 0.0
C1783 C 0.17164 0.91753 0.81243 0.0
O1784 O 0.18042 0.89726 0.80331 0.0
O1785 O 0.19034 0.9054 0.80416 0.0
O1786 O 0.1783 0.91982 0.80928 0.0
O1787 O 0.16869 0.91117 0.80925 0.0
H1788 H 0.18462 0.90236 0.82051 0.0
H1789 H 0.18778 0.89467 0.83238 0.0
H1790 H 0.19936 0.87738 0.81802 0.0
H1791 H 0.19631 0.88506 0.80626 0.0
H1792 H 0.1832 0.89443 0.76745 0.0
H1793 H 0.18272 0.89914 0.78113 0.0
H1794 H 0.17301 0.91625 0.75966 0.0
H1795 H 0.17257 0.92089 0.77319 0.0
H1796 H 0.15451 0.93894 0.81012 0.0
H1797 H 0.15793 0.92816 0.83281 0.0
H1798 H 0.16712 0.91894 0.8271 0.0
H1799 H 0.16376 0.92939 0.80431 0.0
C1800 C 0.61484 0.40584 0.4262 0.0
C1801 C 0.61908 0.40473 0.41924 0.0
C1802 C 0.61185 0.41543 0.41312 0.0
C1803 C 0.61754 0.40946 0.41271 0.0
C1804 C 0.60726 0.41612 0.41991 0.0
C1805 C 0.60876 0.41135 0.42639 0.0
U1806 U 0.62708 0.39243 0.44023 0.0
O1807 O 0.63276 0.39718 0.45086 0.0
O1808 O 0.62353 0.38798 0.45186 0.0
C1809 C 0.62844 0.39272 0.45543 0.0
C1810 C 0.61744 0.40247 0.43367 0.0
C1811 C 0.62921 0.39288 0.464 0.0
C1812 C 0.62909 0.40022 0.47618 0.0
C1813 C 0.62823 0.39995 0.46804 0.0
C1814 C 0.63196 0.3863 0.47632 0.0
C1815 C 0.63108 0.39342 0.4804 0.0
C1816 C 0.631 0.38602 0.46817 0.0
C1817 C 0.64052 0.37757 0.42726 0.0
C1818 C 0.64772 0.36531 0.42623 0.0
C1819 C 0.64816 0.37474 0.41561 0.0
C1820 C 0.64324 0.37974 0.41982 0.0
C1821 C 0.65049 0.36749 0.41877 0.0
C1822 C 0.64272 0.37029 0.43042 0.0
C1823 C 0.63568 0.38304 0.43181 0.0
O1824 O 0.61537 0.39524 0.43537 0.0
O1825 O 0.62469 0.40414 0.43563 0.0
O1826 O 0.63793 0.39022 0.43345 0.0
O1827 O 0.62882 0.38092 0.43463 0.0
H1828 H 0.62384 0.40052 0.419 0.0
H1829 H 0.62106 0.40871 0.40748 0.0
H1830 H 0.60286 0.42067 0.42039 0.0
H1831 H 0.60548 0.41233 0.43175 0.0
H1832 H 0.62838 0.40577 0.47917 0.0
H1833 H 0.6268 0.40529 0.4649 0.0
H1834 H 0.63336 0.38094 0.47944 0.0
H1835 H 0.63176 0.3805 0.46513 0.0
H1836 H 0.64945 0.35977 0.42883 0.0
H1837 H 0.65035 0.37668 0.40997 0.0
H1838 H 0.64162 0.38535 0.41731 0.0
H1839 H 0.6407 0.36855 0.43619 0.0
C1840 C 0.81766 0.39389 0.69502 0.0
C1841 C 0.81955 0.39706 0.68766 0.0
C1842 C 0.81396 0.38557 0.68121 0.0
C1843 C 0.81766 0.39295 0.68079 0.0
C1844 C 0.81191 0.38256 0.68861 0.0
C1845 C 0.81374 0.38669 0.69543 0.0
U1846 U 0.8288 0.40971 0.70648 0.0
O1847 O 0.82549 0.41597 0.71734 0.0
O1848 O 0.83602 0.40855 0.71706 0.0
C1849 C 0.83132 0.4129 0.72134 0.0
C1850 C 0.82003 0.39774 0.70237 0.0
C1851 C 0.82961 0.41 0.72933 0.0
C1852 C 0.82889 0.39941 0.73891 0.0
C1853 C 0.82907 0.40195 0.73108 0.0
C1854 C 0.82924 0.4129 0.74329 0.0
C1855 C 0.82929 0.40486 0.7451 0.0
C1856 C 0.82944 0.41543 0.73549 0.0
C1857 C 0.84055 0.42433 0.69278 0.0
C1858 C 0.85305 0.43121 0.69347 0.0
C1859 C 0.8448 0.43259 0.68199 0.0
C1860 C 0.83919 0.42774 0.68543 0.0
C1861 C 0.85187 0.43416 0.68587 0.0
C1862 C 0.84743 0.42626 0.69691 0.0
C1863 C 0.83529 0.41792 0.69519 0.0
O1864 O 0.82749 0.39711 0.70415 0.0
O1865 O 0.8172 0.40481 0.70359 0.0
O1866 O 0.82845 0.41973 0.69825 0.0
O1867 O 0.83853 0.41166 0.6983 0.0
H1868 H 0.82256 0.40264 0.68723 0.0
H1869 H 0.81913 0.39553 0.67518 0.0
H1870 H 0.8091 0.3769 0.68914 0.0
H1871 H 0.81225 0.38416 0.70107 0.0
H1872 H 0.82889 0.39317 0.74013 0.0
H1873 H 0.82917 0.39764 0.72642 0.0
H1874 H 0.82935 0.41724 0.74792 0.0
H1875 H 0.82981 0.42166 0.73428 0.0
H1876 H 0.85851 0.43234 0.69653 0.0
H1877 H 0.84379 0.4348 0.67612 0.0
H1878 H 0.83396 0.42628 0.68213 0.0
H1879 H 0.84862 0.42365 0.70258 0.0
C1880 C 0.68939 0.61377 0.19517 0.0
C1881 C 0.68779 0.61047 0.18779 0.0
C1882 C 0.69314 0.62209 0.18133 0.0
C1883 C 0.68971 0.61458 0.18092 0.0
C1884 C 0.6949 0.62523 0.18874 0.0
C1885 C 0.69305 0.62111 0.19558 0.0
U1886 U 0.67801 0.59805 0.20656 0.0
O1887 O 0.68116 0.59166 0.21737 0.0
O1888 O 0.67078 0.59928 0.21714 0.0
C1889 C 0.67531 0.59471 0.22137 0.0
C1890 C 0.687 0.6099 0.20251 0.0
C1891 C 0.67694 0.59739 0.22943 0.0
C1892 C 0.68159 0.60706 0.23885 0.0
C1893 C 0.68097 0.60438 0.23108 0.0
C1894 C 0.67431 0.59573 0.24333 0.0
C1895 C 0.67818 0.6028 0.24507 0.0
C1896 C 0.67376 0.59304 0.23562 0.0
C1897 C 0.66608 0.58397 0.19236 0.0
C1898 C 0.65647 0.57354 0.19413 0.0
C1899 C 0.65995 0.57792 0.18107 0.0
C1900 C 0.66517 0.58331 0.18425 0.0
C1901 C 0.65551 0.57296 0.18594 0.0
C1902 C 0.66173 0.57905 0.19735 0.0
C1903 C 0.67139 0.59015 0.19514 0.0
O1904 O 0.67955 0.61065 0.20433 0.0
O1905 O 0.68969 0.60277 0.20369 0.0
O1906 O 0.67812 0.5881 0.19829 0.0
O1907 O 0.66822 0.59639 0.19834 0.0
H1908 H 0.68499 0.60479 0.18736 0.0
H1909 H 0.68847 0.61189 0.17531 0.0
H1910 H 0.6975 0.631 0.18927 0.0
H1911 H 0.69431 0.62375 0.20122 0.0
H1912 H 0.68461 0.61253 0.23998 0.0
H1913 H 0.68344 0.60785 0.22636 0.0
H1914 H 0.67137 0.59241 0.24788 0.0
H1915 H 0.67055 0.58768 0.23447 0.0
H1916 H 0.65321 0.56974 0.19804 0.0
H1917 H 0.65928 0.57775 0.17476 0.0
H1918 H 0.66843 0.58709 0.18031 0.0
H1919 H 0.66235 0.57949 0.20365 0.0
C1920 C 0.57822 0.61416 0.90634 0.0
C1921 C 0.58549 0.61775 0.90486 0.0
C1922 C 0.59134 0.61054 0.91571 0.0
C1923 C 0.592 0.61597 0.90954 0.0
C1924 C 0.5842 0.60661 0.91686 0.0
C1925 C 0.57768 0.60843 0.91222 0.0
U1926 U 0.56772 0.62633 0.89069 0.0
O1927 O 0.55695 0.62407 0.88386 0.0
O1928 O 0.55753 0.63412 0.89192 0.0
C1929 C 0.55326 0.63011 0.88692 0.0
C1930 C 0.57102 0.6169 0.90241 0.0
C1931 C 0.54483 0.62921 0.8887 0.0
C1932 C 0.53381 0.62726 0.89762 0.0
C1933 C 0.54195 0.62729 0.89619 0.0
C1934 C 0.53147 0.63106 0.88414 0.0
C1935 C 0.52848 0.62915 0.89159 0.0
C1936 C 0.53952 0.63102 0.88272 0.0
C1937 C 0.58167 0.63787 0.87647 0.0
C1938 C 0.58171 0.65094 0.87074 0.0
C1939 C 0.59144 0.64141 0.86672 0.0
C1940 C 0.58807 0.63587 0.87172 0.0
C1941 C 0.5885 0.64911 0.86644 0.0
C1942 C 0.57832 0.64537 0.87575 0.0
C1943 C 0.57949 0.63243 0.88284 0.0
O1944 O 0.56951 0.6244 0.90328 0.0
O1945 O 0.56984 0.61439 0.89522 0.0
O1946 O 0.57615 0.62578 0.88087 0.0
O1947 O 0.57658 0.63554 0.88927 0.0
H1948 H 0.58603 0.62219 0.90034 0.0
H1949 H 0.59745 0.61909 0.90858 0.0
H1950 H 0.58355 0.60248 0.92165 0.0
H1951 H 0.57212 0.60563 0.91346 0.0
H1952 H 0.53169 0.6258 0.90343 0.0
H1953 H 0.54596 0.62594 0.90093 0.0
H1954 H 0.5276 0.63281 0.87943 0.0
H1955 H 0.54162 0.63265 0.87694 0.0
H1956 H 0.57931 0.65682 0.87061 0.0
H1957 H 0.59656 0.63978 0.86333 0.0
H1958 H 0.59074 0.63012 0.87217 0.0
H1959 H 0.57336 0.64705 0.87934 0.0
C1960 C 0.6148 0.31366 0.18779 0.0
C1961 C 0.61295 0.32101 0.18455 0.0
C1962 C 0.62374 0.32697 0.19179 0.0
C1963 C 0.61739 0.32764 0.18657 0.0
C1964 C 0.62534 0.31966 0.19523 0.0
C1965 C 0.62092 0.31307 0.19323 0.0
U1966 U 0.59898 0.30212 0.17646 0.0
O1967 O 0.60036 0.29138 0.16952 0.0
O1968 O 0.5928 0.29128 0.17996 0.0
C1969 C 0.59595 0.28718 0.17424 0.0
C1970 C 0.61083 0.30643 0.1853 0.0
C1971 C 0.59887 0.27927 0.17618 0.0
C1972 C 0.60952 0.27 0.17834 0.0
C1973 C 0.6068 0.27776 0.17784 0.0
C1974 C 0.59636 0.26526 0.17593 0.0
C1975 C 0.60435 0.26368 0.17715 0.0
C1976 C 0.59365 0.27296 0.17546 0.0
C1977 C 0.5839 0.31456 0.16413 0.0
C1978 C 0.57934 0.3172 0.15084 0.0
C1979 C 0.57184 0.32185 0.16194 0.0
C1980 C 0.57724 0.31841 0.16705 0.0
C1981 C 0.57306 0.32164 0.15379 0.0
C1982 C 0.58472 0.31369 0.15596 0.0
C1983 C 0.59051 0.31297 0.16955 0.0
O1984 O 0.60373 0.30526 0.18806 0.0
O1985 O 0.61153 0.30465 0.17784 0.0
O1986 O 0.59699 0.31007 0.16654 0.0
O1987 O 0.58886 0.31018 0.17655 0.0
H1988 H 0.60823 0.32158 0.18033 0.0
H1989 H 0.61603 0.33323 0.18385 0.0
H1990 H 0.63009 0.31901 0.1994 0.0
H1991 H 0.62239 0.30746 0.19581 0.0
H1992 H 0.61573 0.26896 0.17921 0.0
H1993 H 0.61093 0.28255 0.17841 0.0
H1994 H 0.59223 0.26051 0.17506 0.0
H1995 H 0.58752 0.274 0.17418 0.0
H1996 H 0.58042 0.3169 0.14458 0.0
H1997 H 0.56692 0.32503 0.16438 0.0
H1998 H 0.57645 0.31921 0.1733 0.0
H1999 H 0.58979 0.31076 0.15351 0.0
C2000 C 0.92606 0.39439 0.40514 0.0
C2001 C 0.9183 0.39318 0.40265 0.0
C2002 C 0.91357 0.39855 0.41502 0.0
C2003 C 0.91205 0.39531 0.40758 0.0
C2004 C 0.92131 0.4 0.41729 0.0
C2005 C 0.92749 0.39798 0.41238 0.0
U2006 U 0.93932 0.38206 0.39055 0.0
O2007 O 0.95086 0.38597 0.38616 0.0
O2008 O 0.95007 0.37642 0.39506 0.0
C2009 C 0.95453 0.38098 0.39074 0.0
C2010 C 0.93292 0.39137 0.40095 0.0
C2011 C 0.96308 0.38034 0.39081 0.0
C2012 C 0.97546 0.38219 0.39757 0.0
C2013 C 0.96736 0.38335 0.39714 0.0
C2014 C 0.97507 0.3751 0.38526 0.0
C2015 C 0.97937 0.37792 0.39172 0.0
C2016 C 0.96697 0.3763 0.38482 0.0
C2017 C 0.92673 0.36834 0.37564 0.0
C2018 C 0.92616 0.36087 0.36351 0.0
C2019 C 0.91535 0.36034 0.37272 0.0
C2020 C 0.91933 0.36546 0.37771 0.0
C2021 C 0.91874 0.35795 0.36559 0.0
C2022 C 0.93011 0.36609 0.36848 0.0
C2023 C 0.93104 0.3733 0.38119 0.0
O2024 O 0.93481 0.38406 0.40239 0.0
O2025 O 0.93423 0.39358 0.39367 0.0
O2026 O 0.93362 0.38027 0.37912 0.0
O2027 O 0.93283 0.37102 0.38834 0.0
H2028 H 0.91711 0.39035 0.3971 0.0
H2029 H 0.90609 0.39405 0.40579 0.0
H2030 H 0.9226 0.40243 0.42302 0.0
H2031 H 0.93344 0.39891 0.4144 0.0
H2032 H 0.97862 0.38441 0.40261 0.0
H2033 H 0.96441 0.38646 0.40182 0.0
H2034 H 0.97796 0.37192 0.38059 0.0
H2035 H 0.96372 0.37394 0.37989 0.0
H2036 H 0.92892 0.35908 0.35807 0.0
H2037 H 0.90972 0.35805 0.37457 0.0
H2038 H 0.91667 0.3671 0.38324 0.0
H2039 H 0.93586 0.36821 0.36683 0.0
C2040 C 0.89296 0.69457 0.68808 0.0
C2041 C 0.89446 0.68733 0.68448 0.0
C2042 C 0.88411 0.68122 0.69225 0.0
C2043 C 0.89007 0.6807 0.68655 0.0
C2044 C 0.88278 0.68846 0.69594 0.0
C2045 C 0.88719 0.69506 0.6939 0.0
U2046 U 0.90885 0.70575 0.67665 0.0
O2047 O 0.90766 0.71629 0.66935 0.0
O2048 O 0.91511 0.71662 0.67984 0.0
C2049 C 0.91205 0.72059 0.67398 0.0
C2050 C 0.89691 0.7018 0.68553 0.0
C2051 C 0.90903 0.7285 0.67573 0.0
C2052 C 0.8986 0.73736 0.67977 0.0
C2053 C 0.90162 0.72973 0.6791 0.0
C2054 C 0.91047 0.74255 0.67396 0.0
C2055 C 0.90292 0.74385 0.67698 0.0
C2056 C 0.91349 0.73497 0.67335 0.0
C2057 C 0.9237 0.6928 0.66473 0.0
C2058 C 0.92984 0.69375 0.65188 0.0
C2059 C 0.93371 0.68344 0.66085 0.0
C2060 C 0.92844 0.6863 0.66642 0.0
C2061 C 0.93432 0.68701 0.65346 0.0
C2062 C 0.92459 0.69666 0.65749 0.0
C2063 C 0.91717 0.69456 0.67012 0.0
O2064 O 0.904 0.70298 0.68831 0.0
O2065 O 0.89627 0.70346 0.67804 0.0
O2066 O 0.91074 0.69747 0.66701 0.0
O2067 O 0.9189 0.69758 0.677 0.0
H2068 H 0.89891 0.68685 0.67996 0.0
H2069 H 0.89127 0.67519 0.68363 0.0
H2070 H 0.87812 0.68912 0.70021 0.0
H2071 H 0.88592 0.70062 0.6967 0.0
H2072 H 0.89285 0.73817 0.68232 0.0
H2073 H 0.8981 0.7248 0.68101 0.0
H2074 H 0.91395 0.74738 0.67172 0.0
H2075 H 0.91922 0.73413 0.67073 0.0
H2076 H 0.93021 0.69658 0.6462 0.0
H2077 H 0.93699 0.67815 0.66217 0.0
H2078 H 0.92778 0.68318 0.67192 0.0
H2079 H 0.92098 0.70167 0.65603 0.0
C2080 C 0.57784 0.39295 0.60101 0.0
C2081 C 0.58498 0.39486 0.60467 0.0
C2082 C 0.5909 0.39765 0.59192 0.0
C2083 C 0.59145 0.39721 0.60016 0.0
C2084 C 0.58374 0.39568 0.58834 0.0
C2085 C 0.57729 0.39343 0.59283 0.0
U2086 U 0.56785 0.38124 0.61755 0.0
O2087 O 0.55703 0.38374 0.62421 0.0
O2088 O 0.55779 0.37324 0.61677 0.0
C2089 C 0.55345 0.37746 0.62153 0.0
C2090 C 0.57091 0.39019 0.6054 0.0
C2091 C 0.54504 0.37806 0.61961 0.0
C2092 C 0.53406 0.38185 0.61125 0.0
C2093 C 0.54213 0.38213 0.61305 0.0
C2094 C 0.53186 0.3736 0.62261 0.0
C2095 C 0.52888 0.37745 0.61596 0.0
C2096 C 0.53982 0.37391 0.6244 0.0
C2097 C 0.58192 0.36999 0.6318 0.0
C2098 C 0.58094 0.35735 0.63836 0.0
C2099 C 0.59217 0.36572 0.64071 0.0
C2100 C 0.589 0.37138 0.63571 0.0
C2101 C 0.5883 0.35854 0.6419 0.0
C2102 C 0.57776 0.36304 0.63334 0.0
C2103 C 0.57973 0.37536 0.62539 0.0
O2104 O 0.56946 0.38265 0.60484 0.0
O2105 O 0.56987 0.39298 0.61252 0.0
O2106 O 0.57636 0.38203 0.62729 0.0
O2107 O 0.57678 0.37212 0.61905 0.0
H2108 H 0.58557 0.39446 0.61099 0.0
H2109 H 0.5969 0.39864 0.6031 0.0
H2110 H 0.58316 0.39561 0.58202 0.0
H2111 H 0.57187 0.39189 0.58989 0.0
H2112 H 0.53194 0.38483 0.60606 0.0
H2113 H 0.54608 0.38534 0.60925 0.0
H2114 H 0.52802 0.37025 0.62641 0.0
H2115 H 0.54195 0.37074 0.62948 0.0
H2116 H 0.57787 0.35184 0.63909 0.0
H2117 H 0.59781 0.36684 0.6434 0.0
H2118 H 0.59231 0.37669 0.63459 0.0
H2119 H 0.57229 0.36183 0.63035 0.0
C2120 C 0.89285 0.31297 0.8193 0.0
C2121 C 0.89461 0.32027 0.82267 0.0
C2122 C 0.88406 0.32637 0.81517 0.0
C2123 C 0.89025 0.32692 0.82062 0.0
C2124 C 0.88245 0.31906 0.81172 0.0
C2125 C 0.88682 0.31244 0.81375 0.0
U2126 U 0.90884 0.30188 0.83064 0.0
O2127 O 0.90776 0.29135 0.83796 0.0
O2128 O 0.91515 0.29104 0.82742 0.0
C2129 C 0.91213 0.28706 0.83329 0.0
C2130 C 0.89684 0.30575 0.82181 0.0
C2131 C 0.9091 0.27916 0.83154 0.0
C2132 C 0.89843 0.27029 0.82824 0.0
C2133 C 0.90145 0.27793 0.82878 0.0
C2134 C 0.91079 0.26508 0.83291 0.0
C2135 C 0.903 0.2638 0.83055 0.0
C2136 C 0.9138 0.27268 0.83339 0.0
C2137 C 0.92361 0.31488 0.84256 0.0
C2138 C 0.9298 0.3138 0.85537 0.0
C2139 C 0.93341 0.32439 0.84661 0.0
C2140 C 0.92822 0.3215 0.84098 0.0
C2141 C 0.93406 0.32073 0.85395 0.0
C2142 C 0.9246 0.31089 0.84971 0.0
C2143 C 0.91709 0.31312 0.83716 0.0
O2144 O 0.90393 0.30461 0.819 0.0
O2145 O 0.89623 0.30407 0.82931 0.0
O2146 O 0.91068 0.31018 0.84027 0.0
O2147 O 0.91884 0.31011 0.83028 0.0
H2148 H 0.89924 0.32078 0.82699 0.0
H2149 H 0.89166 0.33247 0.82334 0.0
H2150 H 0.87762 0.31838 0.80766 0.0
H2151 H 0.88536 0.30684 0.81113 0.0
H2152 H 0.89248 0.26949 0.82618 0.0
H2153 H 0.89774 0.28286 0.82728 0.0
H2154 H 0.91446 0.26024 0.83475 0.0
H2155 H 0.91972 0.27352 0.83553 0.0
H2156 H 0.93028 0.31082 0.86096 0.0
H2157 H 0.93657 0.32976 0.84538 0.0
H2158 H 0.9275 0.3247 0.83553 0.0
H2159 H 0.92111 0.30576 0.85106 0.0
C2160 C 0.92882 0.61447 0.10143 0.0
C2161 C 0.92131 0.61676 0.1039 0.0
C2162 C 0.91559 0.61096 0.09214 0.0
C2163 C 0.91474 0.61498 0.09931 0.0
C2164 C 0.92306 0.6083 0.08994 0.0
C2165 C 0.92962 0.61006 0.09454 0.0
U2166 U 0.93897 0.62629 0.11757 0.0
O2167 O 0.94984 0.62397 0.12421 0.0
O2168 O 0.94893 0.63441 0.11669 0.0
C2169 C 0.95333 0.63028 0.12147 0.0
C2170 C 0.93592 0.6172 0.10552 0.0
C2171 C 0.96174 0.62978 0.11956 0.0
C2172 C 0.97277 0.62596 0.1113 0.0
C2173 C 0.96471 0.62562 0.11308 0.0
C2174 C 0.97486 0.63443 0.12249 0.0
C2175 C 0.97789 0.63049 0.11593 0.0
C2176 C 0.9669 0.63407 0.12427 0.0
C2177 C 0.925 0.63745 0.13189 0.0
C2178 C 0.92747 0.64911 0.13969 0.0
C2179 C 0.91464 0.64301 0.13991 0.0
C2180 C 0.91733 0.63722 0.13479 0.0
C2181 C 0.91963 0.64912 0.14231 0.0
C2182 C 0.93014 0.64333 0.1345 0.0
C2183 C 0.92707 0.63205 0.12548 0.0
O2184 O 0.93729 0.62476 0.1049 0.0
O2185 O 0.93706 0.61449 0.11265 0.0
O2186 O 0.93055 0.62545 0.12738 0.0
O2187 O 0.92992 0.6353 0.1191 0.0
H2188 H 0.92057 0.62016 0.10922 0.0
H2189 H 0.90902 0.61697 0.10123 0.0
H2190 H 0.9239 0.60522 0.08446 0.0
H2191 H 0.93537 0.60825 0.09255 0.0
H2192 H 0.97494 0.6229 0.10617 0.0
H2193 H 0.9608 0.62229 0.10935 0.0
H2194 H 0.97866 0.63789 0.12623 0.0
H2195 H 0.96473 0.63731 0.12929 0.0
H2196 H 0.93145 0.65374 0.14144 0.0
H2197 H 0.90853 0.64293 0.14161 0.0
H2198 H 0.91326 0.63277 0.13277 0.0
H2199 H 0.93609 0.64361 0.1323 0.0
C2200 C 0.61466 0.69448 0.32007 0.0
C2201 C 0.61206 0.68717 0.32283 0.0
C2202 C 0.62309 0.68073 0.31637 0.0
C2203 C 0.61622 0.68034 0.32095 0.0
C2204 C 0.62549 0.68805 0.31344 0.0
C2205 C 0.6213 0.69485 0.31527 0.0
U2206 U 0.59884 0.70596 0.33119 0.0
O2207 O 0.59999 0.71658 0.33835 0.0
O2208 O 0.59259 0.71679 0.32781 0.0
C2209 C 0.59565 0.72084 0.33362 0.0
C2210 C 0.61079 0.70183 0.32241 0.0
C2211 C 0.59875 0.72869 0.33174 0.0
C2212 C 0.60957 0.73742 0.32851 0.0
C2213 C 0.60648 0.72982 0.32911 0.0
C2214 C 0.59711 0.74282 0.33268 0.0
C2215 C 0.60494 0.74396 0.33042 0.0
C2216 C 0.59406 0.73524 0.33336 0.0
C2217 C 0.58422 0.69253 0.34314 0.0
C2218 C 0.57684 0.69409 0.35527 0.0
C2219 C 0.57618 0.68187 0.34804 0.0
C2220 C 0.58114 0.68497 0.34234 0.0
C2221 C 0.57415 0.68632 0.35464 0.0
C2222 C 0.5819 0.69719 0.34954 0.0
C2223 C 0.59064 0.69475 0.33781 0.0
O2224 O 0.60372 0.70302 0.3196 0.0
O2225 O 0.61143 0.70364 0.32987 0.0
O2226 O 0.59693 0.69785 0.34099 0.0
O2227 O 0.58882 0.69775 0.33095 0.0
H2228 H 0.6069 0.68677 0.32652 0.0
H2229 H 0.61408 0.67476 0.32311 0.0
H2230 H 0.63075 0.68857 0.30991 0.0
H2231 H 0.62338 0.70045 0.31308 0.0
H2232 H 0.61563 0.7382 0.32677 0.0
H2233 H 0.6102 0.72483 0.32783 0.0
H2234 H 0.59347 0.74777 0.33427 0.0
H2235 H 0.5881 0.73449 0.33544 0.0
H2236 H 0.57537 0.69758 0.36037 0.0
H2237 H 0.57421 0.67586 0.34749 0.0
H2238 H 0.58291 0.68127 0.33748 0.0
H2239 H 0.58427 0.70303 0.3503 0.0
C2240 C 0.90617 0.57839 0.61471 0.0
C2241 C 0.90442 0.58596 0.61745 0.0
C2242 C 0.91583 0.59118 0.61055 0.0
C2243 C 0.90921 0.59232 0.61537 0.0
C2244 C 0.91722 0.58368 0.60745 0.0
C2245 C 0.91247 0.57734 0.60956 0.0
U2246 U 0.89003 0.56828 0.62681 0.0
O2247 O 0.88362 0.55725 0.62467 0.0
O2248 O 0.89113 0.55843 0.63509 0.0
C2249 C 0.88643 0.55389 0.63103 0.0
C2250 C 0.90203 0.57139 0.61767 0.0
C2251 C 0.88838 0.54546 0.63071 0.0
C2252 C 0.89508 0.53402 0.62532 0.0
C2253 C 0.89367 0.54217 0.6253 0.0
C2254 C 0.886 0.53251 0.63614 0.0
C2255 C 0.89115 0.52911 0.6307 0.0
C2256 C 0.88464 0.54057 0.63613 0.0
C2257 C 0.87565 0.58243 0.63779 0.0
C2258 C 0.86678 0.57965 0.64862 0.0
C2259 C 0.8689 0.59306 0.64441 0.0
C2260 C 0.87398 0.59043 0.63857 0.0
C2261 C 0.86541 0.58772 0.64959 0.0
C2262 C 0.87187 0.577 0.64271 0.0
C2263 C 0.88198 0.58018 0.63239 0.0
O2264 O 0.90266 0.57018 0.62525 0.0
O2265 O 0.89492 0.57014 0.61497 0.0
O2266 O 0.88005 0.57648 0.62591 0.0
O2267 O 0.8884 0.57746 0.63567 0.0
H2268 H 0.89956 0.58688 0.62144 0.0
H2269 H 0.90797 0.59804 0.61782 0.0
H2270 H 0.92212 0.58265 0.60355 0.0
H2271 H 0.91388 0.57156 0.60735 0.0
H2272 H 0.89909 0.53154 0.62107 0.0
H2273 H 0.89665 0.54586 0.62107 0.0
H2274 H 0.883 0.52892 0.64044 0.0
H2275 H 0.88058 0.54299 0.64038 0.0
H2276 H 0.86421 0.57546 0.65264 0.0
H2277 H 0.86803 0.59931 0.64517 0.0
H2278 H 0.87689 0.59471 0.63487 0.0
H2279 H 0.87313 0.5708 0.64222 0.0
C2280 C 0.69433 0.68736 0.89241 0.0
C2281 C 0.68694 0.68616 0.89584 0.0
C2282 C 0.68058 0.6914 0.88414 0.0
C2283 C 0.68011 0.68822 0.89175 0.0
C2284 C 0.68801 0.69272 0.88083 0.0
C2285 C 0.69481 0.69072 0.88493 0.0
U2286 U 0.70565 0.67623 0.90838 0.0
O2287 O 0.71634 0.66915 0.90737 0.0
O2288 O 0.71636 0.67968 0.91477 0.0
C2289 C 0.7205 0.67391 0.91178 0.0
C2290 C 0.70162 0.68496 0.89634 0.0
C2291 C 0.72841 0.67583 0.90885 0.0
C2292 C 0.73743 0.67912 0.89829 0.0
C2293 C 0.72974 0.67835 0.90112 0.0
C2294 C 0.74248 0.6751 0.91094 0.0
C2295 C 0.74389 0.67737 0.90313 0.0
C2296 C 0.73482 0.67438 0.91376 0.0
C2297 C 0.69199 0.66455 0.92304 0.0
C2298 C 0.6934 0.65286 0.93112 0.0
C2299 C 0.68137 0.66039 0.93154 0.0
C2300 C 0.68448 0.66568 0.92615 0.0
C2301 C 0.68576 0.6539 0.93409 0.0
C2302 C 0.6965 0.65815 0.92561 0.0
C2303 C 0.69434 0.66969 0.91652 0.0
O2304 O 0.70279 0.6878 0.90341 0.0
O2305 O 0.70339 0.67748 0.89575 0.0
O2306 O 0.69759 0.66638 0.91036 0.0
O2307 O 0.69727 0.67661 0.91823 0.0
H2308 H 0.68646 0.68359 0.90164 0.0
H2309 H 0.67448 0.68731 0.89454 0.0
H2310 H 0.68858 0.69512 0.87498 0.0
H2311 H 0.70046 0.69168 0.8822 0.0
H2312 H 0.73832 0.6809 0.89225 0.0
H2313 H 0.72485 0.67949 0.89723 0.0
H2314 H 0.74727 0.6735 0.91478 0.0
H2315 H 0.73391 0.67236 0.91972 0.0
H2316 H 0.6969 0.64788 0.93295 0.0
H2317 H 0.67538 0.66124 0.93345 0.0
H2318 H 0.68086 0.6705 0.92413 0.0
H2319 H 0.7023 0.65714 0.92321 0.0
C2320 C 0.60097 0.42957 0.11467 0.0
C2321 C 0.60466 0.42279 0.11175 0.0
C2322 C 0.59192 0.41639 0.11014 0.0
C2323 C 0.60016 0.41628 0.10944 0.0
C2324 C 0.58832 0.42323 0.11302 0.0
C2325 C 0.59278 0.42972 0.11521 0.0
U2326 U 0.61743 0.43966 0.12637 0.0
O2327 O 0.62411 0.4505 0.12396 0.0
O2328 O 0.6166 0.44969 0.13441 0.0
C2329 C 0.62138 0.45406 0.13023 0.0
C2330 C 0.60538 0.43656 0.11731 0.0
C2331 C 0.61945 0.46249 0.12967 0.0
C2332 C 0.61176 0.47361 0.12495 0.0
C2333 C 0.61356 0.46553 0.12476 0.0
C2334 C 0.62175 0.47555 0.13485 0.0
C2335 C 0.61577 0.47865 0.13013 0.0
C2336 C 0.62357 0.46759 0.13461 0.0
C2337 C 0.63096 0.42477 0.13781 0.0
C2338 C 0.64112 0.42673 0.14764 0.0
C2339 C 0.63598 0.41371 0.14521 0.0
C2340 C 0.63107 0.41672 0.13942 0.0
C2341 C 0.64093 0.41869 0.14946 0.0
C2342 C 0.63611 0.42979 0.14184 0.0
C2343 C 0.62492 0.42758 0.13234 0.0
O2344 O 0.60473 0.43818 0.12481 0.0
O2345 O 0.61253 0.43756 0.11459 0.0
O2346 O 0.62716 0.43112 0.12586 0.0
O2347 O 0.61862 0.43067 0.13551 0.0
H2348 H 0.61098 0.42251 0.11126 0.0
H2349 H 0.60314 0.41121 0.10707 0.0
H2350 H 0.58202 0.42353 0.11375 0.0
H2351 H 0.58981 0.43487 0.11744 0.0
H2352 H 0.60712 0.47587 0.12125 0.0
H2353 H 0.61029 0.46168 0.12091 0.0
H2354 H 0.62499 0.47931 0.13882 0.0
H2355 H 0.62814 0.46537 0.13843 0.0
H2356 H 0.64487 0.43066 0.15093 0.0
H2357 H 0.63572 0.4075 0.14656 0.0
H2358 H 0.62713 0.41278 0.13639 0.0
H2359 H 0.63607 0.43604 0.14069 0.0
C2360 C 0.81252 0.31923 0.39287 0.0
C2361 C 0.81973 0.32303 0.3941 0.0
C2362 C 0.82585 0.31479 0.38415 0.0
C2363 C 0.82636 0.32081 0.38978 0.0
C2364 C 0.81869 0.31085 0.38316 0.0
C2365 C 0.81209 0.31306 0.38747 0.0
U2366 U 0.80147 0.33093 0.40863 0.0
O2367 O 0.79089 0.33815 0.40753 0.0
O2368 O 0.79075 0.32777 0.41517 0.0
C2369 C 0.78667 0.33352 0.41203 0.0
C2370 C 0.8053 0.32181 0.39682 0.0
C2371 C 0.77879 0.33159 0.40907 0.0
C2372 C 0.76988 0.32881 0.39828 0.0
C2373 C 0.77753 0.32935 0.40124 0.0
C2374 C 0.76468 0.33222 0.41105 0.0
C2375 C 0.7634 0.33045 0.40312 0.0
C2376 C 0.77232 0.33281 0.41399 0.0
C2377 C 0.81567 0.34293 0.42255 0.0
C2378 C 0.81377 0.35261 0.43286 0.0
C2379 C 0.82689 0.34894 0.42883 0.0
C2380 C 0.82378 0.34374 0.42339 0.0
C2381 C 0.82196 0.35344 0.43365 0.0
C2382 C 0.81063 0.34738 0.42731 0.0
C2383 C 0.81297 0.33758 0.41637 0.0
O2384 O 0.8042 0.31918 0.40399 0.0
O2385 O 0.80356 0.32928 0.39603 0.0
O2386 O 0.8097 0.34073 0.41014 0.0
O2387 O 0.80987 0.33084 0.41846 0.0
H2388 H 0.82018 0.3278 0.39827 0.0
H2389 H 0.83181 0.32393 0.39067 0.0
H2390 H 0.81818 0.30608 0.379 0.0
H2391 H 0.80659 0.31004 0.38649 0.0
H2392 H 0.76902 0.3274 0.39215 0.0
H2393 H 0.78245 0.32836 0.39734 0.0
H2394 H 0.75979 0.33356 0.41488 0.0
H2395 H 0.77317 0.33457 0.42003 0.0
H2396 H 0.80983 0.35595 0.43655 0.0
H2397 H 0.83321 0.34951 0.42917 0.0
H2398 H 0.82775 0.3404 0.41972 0.0
H2399 H 0.80433 0.34683 0.42671 0.0
C2400 C 0.90636 0.42905 0.89288 0.0
C2401 C 0.90479 0.42158 0.88978 0.0
C2402 C 0.91557 0.41605 0.89741 0.0
C2403 C 0.90938 0.41513 0.89202 0.0
C2404 C 0.91687 0.42349 0.90072 0.0
C2405 C 0.91231 0.42991 0.89846 0.0
U2406 U 0.89053 0.43921 0.88052 0.0
O2407 O 0.8839 0.45012 0.88259 0.0
O2408 O 0.8917 0.44914 0.87236 0.0
C2409 C 0.88681 0.45357 0.87633 0.0
C2410 C 0.90235 0.43612 0.8899 0.0
C2411 C 0.88863 0.46201 0.8768 0.0
C2412 C 0.89576 0.47334 0.88185 0.0
C2413 C 0.89438 0.46519 0.88179 0.0
C2414 C 0.88573 0.47507 0.87195 0.0
C2415 C 0.89135 0.47836 0.87697 0.0
C2416 C 0.88438 0.46702 0.87189 0.0
C2417 C 0.87648 0.4248 0.86936 0.0
C2418 C 0.86625 0.42738 0.85974 0.0
C2419 C 0.87036 0.41404 0.86239 0.0
C2420 C 0.87566 0.41677 0.86795 0.0
C2421 C 0.86566 0.41929 0.8581 0.0
C2422 C 0.87168 0.43013 0.8653 0.0
C2423 C 0.88272 0.42724 0.87477 0.0
O2424 O 0.90314 0.43739 0.88234 0.0
O2425 O 0.89519 0.43737 0.89246 0.0
O2426 O 0.88065 0.43089 0.88124 0.0
O2427 O 0.88911 0.43008 0.87155 0.0
H2428 H 0.90024 0.4208 0.88542 0.0
H2429 H 0.90831 0.40953 0.88924 0.0
H2430 H 0.92154 0.42438 0.90492 0.0
H2431 H 0.9136 0.43563 0.90091 0.0
H2432 H 0.90015 0.47573 0.88577 0.0
H2433 H 0.89776 0.4614 0.88562 0.0
H2434 H 0.88237 0.47875 0.868 0.0
H2435 H 0.87997 0.46468 0.86795 0.0
H2436 H 0.8626 0.43158 0.85669 0.0
H2437 H 0.87016 0.4078 0.86124 0.0
H2438 H 0.87933 0.41258 0.87102 0.0
H2439 H 0.87222 0.43637 0.86634 0.0
C2440 C 0.81283 0.68796 0.11505 0.0
C2441 C 0.82028 0.68558 0.11248 0.0
C2442 C 0.82631 0.69228 0.12359 0.0
C2443 C 0.82698 0.68772 0.11674 0.0
C2444 C 0.81884 0.69471 0.12604 0.0
C2445 C 0.81217 0.69258 0.1218 0.0
U2446 U 0.8017 0.67667 0.099 0.0
O2447 O 0.7911 0.66945 0.10006 0.0
O2448 O 0.79092 0.68 0.09267 0.0
C2449 C 0.78687 0.67415 0.09566 0.0
C2450 C 0.80562 0.68545 0.11103 0.0
C2451 C 0.77896 0.67594 0.09863 0.0
C2452 C 0.77006 0.68015 0.10897 0.0
C2453 C 0.7777 0.67944 0.10598 0.0
C2454 C 0.76491 0.67413 0.09719 0.0
C2455 C 0.76359 0.67728 0.10469 0.0
C2456 C 0.7725 0.67348 0.0942 0.0
C2457 C 0.81519 0.66488 0.08438 0.0
C2458 C 0.81342 0.65296 0.07671 0.0
C2459 C 0.8258 0.65993 0.0763 0.0
C2460 C 0.8228 0.66558 0.08138 0.0
C2461 C 0.8212 0.65349 0.07407 0.0
C2462 C 0.81041 0.65864 0.08188 0.0
C2463 C 0.81301 0.67017 0.09083 0.0
O2464 O 0.80448 0.68827 0.10395 0.0
O2465 O 0.80394 0.67795 0.11162 0.0
O2466 O 0.8099 0.66695 0.0971 0.0
O2467 O 0.80999 0.67703 0.08904 0.0
H2468 H 0.82089 0.68196 0.1073 0.0
H2469 H 0.83266 0.68564 0.11478 0.0
H2470 H 0.81815 0.69826 0.13126 0.0
H2471 H 0.80646 0.69446 0.12386 0.0
H2472 H 0.76923 0.6828 0.11468 0.0
H2473 H 0.78262 0.68142 0.10948 0.0
H2474 H 0.7601 0.67183 0.09374 0.0
H2475 H 0.77336 0.67077 0.08852 0.0
H2476 H 0.80982 0.64798 0.07509 0.0
H2477 H 0.83183 0.66039 0.07437 0.0
H2478 H 0.8266 0.67031 0.08328 0.0
H2479 H 0.80453 0.65797 0.08418 0.0
C2480 C 0.60125 0.57818 0.39351 0.0
C2481 C 0.60331 0.58564 0.39069 0.0
C2482 C 0.59206 0.59138 0.39739 0.0
C2483 C 0.59875 0.59219 0.39262 0.0
C2484 C 0.59026 0.58396 0.40051 0.0
C2485 C 0.59482 0.57743 0.39858 0.0
U2486 U 0.61711 0.5681 0.38133 0.0
O2487 O 0.62356 0.55705 0.38325 0.0
O2488 O 0.61603 0.55843 0.37286 0.0
C2489 C 0.62075 0.55381 0.37684 0.0
C2490 C 0.60519 0.57107 0.39061 0.0
C2491 C 0.61879 0.54539 0.377 0.0
C2492 C 0.61311 0.53363 0.38286 0.0
C2493 C 0.61441 0.54179 0.383 0.0
C2494 C 0.62043 0.53272 0.37073 0.0
C2495 C 0.61625 0.52901 0.37677 0.0
C2496 C 0.62169 0.54079 0.37086 0.0
C2497 C 0.63138 0.58225 0.37033 0.0
C2498 C 0.6389 0.58001 0.35843 0.0
C2499 C 0.63926 0.59272 0.36474 0.0
C2500 C 0.6343 0.58992 0.37062 0.0
C2501 C 0.64141 0.58788 0.35844 0.0
C2502 C 0.63387 0.57722 0.36431 0.0
C2503 C 0.62508 0.58009 0.3758 0.0
O2504 O 0.60449 0.56986 0.38303 0.0
O2505 O 0.61233 0.56977 0.39323 0.0
O2506 O 0.62706 0.57635 0.38225 0.0
O2507 O 0.61861 0.57742 0.3726 0.0
H2508 H 0.60826 0.58634 0.38676 0.0
H2509 H 0.60029 0.59784 0.39016 0.0
H2510 H 0.58507 0.58312 0.40408 0.0
H2511 H 0.59312 0.57171 0.40077 0.0
H2512 H 0.60984 0.5309 0.38758 0.0
H2513 H 0.61209 0.54525 0.3878 0.0
H2514 H 0.62279 0.52935 0.36589 0.0
H2515 H 0.62504 0.54344 0.36615 0.0
H2516 H 0.64061 0.57609 0.35373 0.0
H2517 H 0.64106 0.59881 0.36491 0.0
H2518 H 0.63242 0.59389 0.37521 0.0
H2519 H 0.6317 0.57125 0.364 0.0
C2520 C 0.69412 0.31907 0.6151 0.0
C2521 C 0.68686 0.32255 0.6133 0.0
C2522 C 0.68063 0.315 0.62367 0.0
C2523 C 0.68014 0.32051 0.61756 0.0
C2524 C 0.68783 0.31141 0.62533 0.0
C2525 C 0.69452 0.31341 0.62105 0.0
U2526 U 0.70545 0.33039 0.59927 0.0
O2527 O 0.71605 0.33757 0.60043 0.0
O2528 O 0.71624 0.3271 0.59291 0.0
C2529 C 0.72027 0.33292 0.59596 0.0
C2530 C 0.70141 0.32153 0.61121 0.0
C2531 C 0.72826 0.33117 0.59876 0.0
C2532 C 0.73761 0.32861 0.60925 0.0
C2533 C 0.72983 0.32898 0.60655 0.0
C2534 C 0.74223 0.33222 0.59631 0.0
C2535 C 0.74387 0.33046 0.60419 0.0
C2536 C 0.73451 0.33257 0.59364 0.0
C2537 C 0.69214 0.3423 0.58464 0.0
C2538 C 0.69408 0.35429 0.57712 0.0
C2539 C 0.68167 0.34739 0.57649 0.0
C2540 C 0.68457 0.34167 0.58154 0.0
C2541 C 0.68632 0.35383 0.57439 0.0
C2542 C 0.69699 0.34853 0.58225 0.0
C2543 C 0.6942 0.33696 0.59109 0.0
O2544 O 0.70261 0.31874 0.60412 0.0
O2545 O 0.70316 0.329 0.61187 0.0
O2546 O 0.69728 0.34013 0.5974 0.0
O2547 O 0.69721 0.3301 0.58929 0.0
H2548 H 0.68645 0.32695 0.60872 0.0
H2549 H 0.67462 0.32335 0.61624 0.0
H2550 H 0.6883 0.30715 0.63003 0.0
H2551 H 0.70006 0.31068 0.62251 0.0
H2552 H 0.73869 0.3273 0.61537 0.0
H2553 H 0.72507 0.32789 0.61061 0.0
H2554 H 0.74693 0.33361 0.59227 0.0
H2555 H 0.73342 0.33427 0.58761 0.0
H2556 H 0.69772 0.35927 0.57561 0.0
H2557 H 0.67565 0.34699 0.5745 0.0
H2558 H 0.68072 0.33695 0.58337 0.0
H2559 H 0.70285 0.34914 0.58463 0.0
C2560 C 0.61449 0.9063 0.57826 0.0
C2561 C 0.61679 0.90421 0.58589 0.0
C2562 C 0.61061 0.91602 0.59107 0.0
C2563 C 0.61483 0.90903 0.59227 0.0
C2564 C 0.60795 0.91781 0.58348 0.0
C2565 C 0.60991 0.91302 0.57714 0.0
U2566 U 0.62693 0.89039 0.56828 0.0
O2567 O 0.6249 0.88358 0.55747 0.0
O2568 O 0.63495 0.89163 0.55826 0.0
C2569 C 0.63105 0.88661 0.55392 0.0
C2570 C 0.61739 0.90209 0.57129 0.0
C2571 C 0.63043 0.88835 0.54547 0.0
C2572 C 0.62601 0.89605 0.53425 0.0
C2573 C 0.62605 0.89464 0.54239 0.0
C2574 C 0.6347 0.88499 0.53232 0.0
C2575 C 0.6303 0.89118 0.52913 0.0
C2576 C 0.63473 0.88359 0.54037 0.0
C2577 C 0.63873 0.87697 0.58292 0.0
C2578 C 0.64587 0.86465 0.58177 0.0
C2579 C 0.64762 0.87287 0.59322 0.0
C2580 C 0.64232 0.87826 0.59017 0.0
C2581 C 0.64947 0.86599 0.5891 0.0
C2582 C 0.64051 0.87012 0.57869 0.0
C2583 C 0.63306 0.88292 0.58027 0.0
O2584 O 0.6249 0.90299 0.56985 0.0
O2585 O 0.61495 0.89484 0.57031 0.0
O2586 O 0.62664 0.88057 0.57671 0.0
O2587 O 0.63602 0.88941 0.57736 0.0
H2588 H 0.62035 0.89903 0.58687 0.0
H2589 H 0.61694 0.9075 0.59807 0.0
H2590 H 0.60453 0.92305 0.5824 0.0
H2591 H 0.60807 0.91471 0.5713 0.0
H2592 H 0.62259 0.90089 0.53194 0.0
H2593 H 0.62274 0.89843 0.54626 0.0
H2594 H 0.63823 0.88126 0.52859 0.0
H2595 H 0.63821 0.87878 0.54263 0.0
H2596 H 0.64713 0.85936 0.5785 0.0
H2597 H 0.65036 0.87416 0.5988 0.0
H2598 H 0.64101 0.8835 0.59353 0.0
H2599 H 0.63777 0.869 0.57308 0.0
C2600 C 0.115 0.60135 0.42913 0.0
C2601 C 0.11314 0.60513 0.42204 0.0
C2602 C 0.11071 0.59245 0.41579 0.0
C2603 C 0.11093 0.60072 0.41545 0.0
C2604 C 0.11245 0.58877 0.42297 0.0
C2605 C 0.11453 0.59316 0.42954 0.0
U2606 U 0.12656 0.61783 0.43933 0.0
O2607 O 0.12417 0.62415 0.45036 0.0
O2608 O 0.13484 0.61699 0.44918 0.0
C2609 C 0.13059 0.62152 0.45374 0.0
C2610 C 0.11772 0.60563 0.43615 0.0
C2611 C 0.13031 0.61941 0.46214 0.0
C2612 C 0.12413 0.61384 0.4738 0.0
C2613 C 0.12407 0.61531 0.46566 0.0
C2614 C 0.13665 0.62045 0.47485 0.0
C2615 C 0.13042 0.61647 0.47849 0.0
C2616 C 0.13657 0.62191 0.46681 0.0
C2617 C 0.13757 0.63226 0.42527 0.0
C2618 C 0.14887 0.64055 0.42794 0.0
C2619 C 0.14382 0.63949 0.4147 0.0
C2620 C 0.13795 0.63444 0.41735 0.0
C2621 C 0.14942 0.64243 0.41993 0.0
C2622 C 0.14294 0.63551 0.43062 0.0
C2623 C 0.13218 0.62589 0.42744 0.0
O2624 O 0.12528 0.60514 0.43754 0.0
O2625 O 0.11486 0.6127 0.43734 0.0
O2626 O 0.12564 0.62777 0.43105 0.0
O2627 O 0.13548 0.61951 0.43023 0.0
H2628 H 0.11345 0.61146 0.42158 0.0
H2629 H 0.10942 0.60379 0.4101 0.0
H2630 H 0.11245 0.58244 0.42347 0.0
H2631 H 0.11596 0.59013 0.43495 0.0
H2632 H 0.11919 0.61085 0.47642 0.0
H2633 H 0.11915 0.61333 0.46216 0.0
H2634 H 0.14164 0.62246 0.47823 0.0
H2635 H 0.14144 0.62508 0.46423 0.0
H2636 H 0.15322 0.6427 0.43204 0.0
H2637 H 0.14424 0.64075 0.40849 0.0
H2638 H 0.13391 0.63192 0.41314 0.0
H2639 H 0.14277 0.63385 0.43675 0.0
C2640 C 0.68796 0.89266 0.69458 0.0
C2641 C 0.68453 0.89437 0.68729 0.0
C2642 C 0.69237 0.88412 0.68113 0.0
C2643 C 0.68671 0.89011 0.68061 0.0
C2644 C 0.69586 0.88255 0.68842 0.0
C2645 C 0.69369 0.8868 0.69507 0.0
U2646 U 0.6766 0.90857 0.70578 0.0
O2647 O 0.66944 0.90746 0.71641 0.0
O2648 O 0.67994 0.91493 0.71655 0.0
C2649 C 0.67416 0.91185 0.72063 0.0
C2650 C 0.68543 0.8966 0.70181 0.0
C2651 C 0.67609 0.90884 0.72851 0.0
C2652 C 0.67876 0.89808 0.7375 0.0
C2653 C 0.67803 0.90094 0.72982 0.0
C2654 C 0.67591 0.91103 0.74258 0.0
C2655 C 0.67756 0.90307 0.74398 0.0
C2656 C 0.67522 0.91388 0.73493 0.0
C2657 C 0.66473 0.9234 0.69268 0.0
C2658 C 0.65227 0.93023 0.69402 0.0
C2659 C 0.66068 0.93292 0.6829 0.0
C2660 C 0.6662 0.92763 0.6858 0.0
C2661 C 0.65354 0.93413 0.68684 0.0
C2662 C 0.65781 0.92487 0.69691 0.0
C2663 C 0.67003 0.91684 0.69457 0.0
O2664 O 0.68823 0.90369 0.70298 0.0
O2665 O 0.67793 0.89598 0.70349 0.0
O2666 O 0.66685 0.91051 0.69761 0.0
O2667 O 0.67695 0.91855 0.69751 0.0
H2668 H 0.68007 0.89887 0.6868 0.0
H2669 H 0.68383 0.89137 0.67509 0.0
H2670 H 0.70026 0.878 0.68898 0.0
H2671 H 0.69639 0.88541 0.70065 0.0
H2672 H 0.68006 0.89193 0.73838 0.0
H2673 H 0.67872 0.89695 0.72493 0.0
H2674 H 0.67475 0.915 0.7474 0.0
H2675 H 0.67367 0.91997 0.73403 0.0
H2676 H 0.64691 0.93117 0.69729 0.0
H2677 H 0.66184 0.93576 0.67733 0.0
H2678 H 0.67148 0.92655 0.68243 0.0
H2679 H 0.65655 0.92168 0.70226 0.0
C2680 C 0.39299 0.40622 0.92889 0.0
C2681 C 0.39144 0.40339 0.9213 0.0
C2682 C 0.39666 0.41545 0.91567 0.0
C2683 C 0.3933 0.40799 0.91471 0.0
C2684 C 0.39843 0.41811 0.92324 0.0
C2685 C 0.39664 0.41352 0.92979 0.0
U2686 U 0.38127 0.39001 0.93928 0.0
O2687 O 0.38366 0.38366 0.95032 0.0
O2688 O 0.37311 0.391 0.94921 0.0
C2689 C 0.37729 0.38636 0.95373 0.0
C2690 C 0.39026 0.40209 0.93598 0.0
C2691 C 0.37761 0.38835 0.96215 0.0
C2692 C 0.38269 0.39544 0.97349 0.0
C2693 C 0.38295 0.39373 0.9654 0.0
C2694 C 0.37188 0.38637 0.97503 0.0
C2695 C 0.37708 0.39181 0.97838 0.0
C2696 C 0.37214 0.38469 0.96704 0.0
C2697 C 0.37011 0.37569 0.92516 0.0
C2698 C 0.35913 0.36697 0.9278 0.0
C2699 C 0.36349 0.3691 0.91444 0.0
C2700 C 0.3694 0.37405 0.91715 0.0
C2701 C 0.35821 0.36566 0.91972 0.0
C2702 C 0.36508 0.37197 0.93053 0.0
C2703 C 0.37553 0.38199 0.92745 0.0
O2704 O 0.38271 0.40266 0.93737 0.0
O2705 O 0.39303 0.39499 0.93718 0.0
O2706 O 0.38206 0.38004 0.93105 0.0
O2707 O 0.37227 0.38838 0.93024 0.0
H2708 H 0.38856 0.39779 0.92049 0.0
H2709 H 0.3918 0.40588 0.90891 0.0
H2710 H 0.40096 0.42388 0.9241 0.0
H2711 H 0.39784 0.41582 0.93559 0.0
H2712 H 0.38673 0.39972 0.97587 0.0
H2713 H 0.38723 0.39664 0.96171 0.0
H2714 H 0.36757 0.38337 0.97861 0.0
H2715 H 0.36799 0.38051 0.96466 0.0
H2716 H 0.35502 0.36445 0.93194 0.0
H2717 H 0.36278 0.36826 0.90818 0.0
H2718 H 0.37318 0.37692 0.91292 0.0
H2719 H 0.36551 0.37322 0.93674 0.0
C2720 C 0.31921 0.61577 0.69478 0.0
C2721 C 0.32117 0.6131 0.68724 0.0
C2722 C 0.31469 0.62447 0.6815 0.0
C2723 C 0.31888 0.61742 0.68062 0.0
C2724 C 0.31266 0.62703 0.68904 0.0
C2725 C 0.31487 0.62269 0.69562 0.0
U2726 U 0.33087 0.5997 0.70544 0.0
O2727 O 0.33868 0.60073 0.71563 0.0
O2728 O 0.32801 0.59352 0.71645 0.0
C2729 C 0.33411 0.59648 0.72015 0.0
C2730 C 0.32194 0.61173 0.70189 0.0
C2731 C 0.33297 0.59948 0.72819 0.0
C2732 C 0.3251 0.60487 0.73886 0.0
C2733 C 0.32576 0.60233 0.73103 0.0
C2734 C 0.33882 0.60189 0.74093 0.0
C2735 C 0.33166 0.60467 0.74391 0.0
C2736 C 0.33945 0.5993 0.73322 0.0
C2737 C 0.34229 0.58536 0.69131 0.0
C2738 C 0.35322 0.57637 0.69324 0.0
C2739 C 0.34768 0.57821 0.68028 0.0
C2740 C 0.34223 0.58344 0.68335 0.0
C2741 C 0.35332 0.57465 0.68514 0.0
C2742 C 0.34777 0.58175 0.6963 0.0
C2743 C 0.337 0.59167 0.69384 0.0
O2744 O 0.31917 0.60463 0.70309 0.0
O2745 O 0.32948 0.61233 0.70332 0.0
O2746 O 0.34027 0.59796 0.69683 0.0
O2747 O 0.33033 0.58973 0.6972 0.0
H2748 H 0.32456 0.60778 0.68649 0.0
H2749 H 0.32057 0.61537 0.67485 0.0
H2750 H 0.30941 0.63242 0.68984 0.0
H2751 H 0.31332 0.62483 0.7014 0.0
H2752 H 0.31945 0.60683 0.74098 0.0
H2753 H 0.32066 0.60251 0.72726 0.0
H2754 H 0.34403 0.60175 0.74456 0.0
H2755 H 0.34506 0.59713 0.73116 0.0
H2756 H 0.35734 0.5736 0.69719 0.0
H2757 H 0.34763 0.57714 0.67402 0.0
H2758 H 0.33809 0.58622 0.6794 0.0
H2759 H 0.34791 0.58318 0.70249 0.0
C2760 C 0.89275 0.1018 0.07896 0.0
C2761 C 0.88907 0.10363 0.0861 0.0
C2762 C 0.89614 0.09303 0.09258 0.0
C2763 C 0.89078 0.09929 0.09286 0.0
C2764 C 0.90014 0.09154 0.08553 0.0
C2765 C 0.89844 0.09588 0.07878 0.0
U2766 U 0.88085 0.11723 0.06809 0.0
O2767 O 0.88312 0.12385 0.05718 0.0
O2768 O 0.8729 0.11601 0.05802 0.0
C2769 C 0.87693 0.12091 0.05364 0.0
C2770 C 0.89021 0.10552 0.07157 0.0
C2771 C 0.87748 0.11911 0.0452 0.0
C2772 C 0.88165 0.11121 0.03403 0.0
C2773 C 0.8819 0.11286 0.04213 0.0
C2774 C 0.87274 0.12209 0.03211 0.0
C2775 C 0.87696 0.11576 0.02896 0.0
C2776 C 0.873 0.12373 0.04011 0.0
C2777 C 0.86936 0.13101 0.08267 0.0
C2778 C 0.85995 0.14152 0.08054 0.0
C2779 C 0.86238 0.13666 0.09367 0.0
C2780 C 0.86785 0.13138 0.09071 0.0
C2781 C 0.85836 0.14181 0.08865 0.0
C2782 C 0.86544 0.13614 0.07755 0.0
C2783 C 0.87481 0.12489 0.07999 0.0
O2784 O 0.88274 0.10464 0.06993 0.0
O2785 O 0.89276 0.11268 0.07028 0.0
O2786 O 0.88128 0.12709 0.07644 0.0
O2787 O 0.87165 0.11853 0.07702 0.0
H2788 H 0.88469 0.10823 0.08638 0.0
H2789 H 0.88772 0.10068 0.09826 0.0
H2790 H 0.9043 0.08675 0.08514 0.0
H2791 H 0.90134 0.0944 0.07332 0.0
H2792 H 0.88493 0.10626 0.03178 0.0
H2793 H 0.88538 0.1092 0.04598 0.0
H2794 H 0.86915 0.12578 0.02838 0.0
H2795 H 0.86956 0.12857 0.04236 0.0
H2796 H 0.85689 0.14537 0.07653 0.0
H2797 H 0.86111 0.13649 0.0999 0.0
H2798 H 0.87077 0.1274 0.09473 0.0
H2799 H 0.86651 0.13589 0.0713 0.0
C2800 C 0.68812 0.11476 0.8133 0.0
C2801 C 0.68449 0.11324 0.82053 0.0
C2802 C 0.69237 0.12345 0.8267 0.0
C2803 C 0.6866 0.11756 0.82718 0.0
C2804 C 0.69611 0.12479 0.81948 0.0
C2805 C 0.69402 0.12045 0.81285 0.0
U2806 U 0.67665 0.0989 0.80227 0.0
O2807 O 0.66886 0.10003 0.79208 0.0
O2808 O 0.67956 0.09287 0.7912 0.0
C2809 C 0.67344 0.09583 0.78753 0.0
C2810 C 0.6855 0.1109 0.80605 0.0
C2811 C 0.67457 0.09888 0.77951 0.0
C2812 C 0.68239 0.10452 0.76895 0.0
C2813 C 0.68172 0.10194 0.77676 0.0
C2814 C 0.66878 0.10113 0.76672 0.0
C2815 C 0.6759 0.10415 0.76384 0.0
C2816 C 0.66815 0.0985 0.77442 0.0
C2817 C 0.66515 0.08396 0.81544 0.0
C2818 C 0.65265 0.07721 0.81401 0.0
C2819 C 0.66105 0.07434 0.8251 0.0
C2820 C 0.66658 0.07966 0.82229 0.0
C2821 C 0.65396 0.07313 0.82107 0.0
C2822 C 0.65821 0.08259 0.8112 0.0
C2823 C 0.67049 0.09049 0.81361 0.0
O2824 O 0.68833 0.10385 0.80473 0.0
O2825 O 0.67797 0.11148 0.80456 0.0
O2826 O 0.66728 0.09693 0.81085 0.0
O2827 O 0.67726 0.08878 0.81035 0.0
H2828 H 0.67992 0.10885 0.82098 0.0
H2829 H 0.68365 0.11635 0.83268 0.0
H2830 H 0.70044 0.12939 0.81886 0.0
H2831 H 0.69685 0.12172 0.8073 0.0
H2832 H 0.688 0.10666 0.7669 0.0
H2833 H 0.68677 0.10227 0.7806 0.0
H2834 H 0.66362 0.10086 0.76303 0.0
H2835 H 0.66259 0.09615 0.77641 0.0
H2836 H 0.64724 0.0764 0.81079 0.0
H2837 H 0.66216 0.07149 0.83067 0.0
H2838 H 0.67184 0.08072 0.8257 0.0
H2839 H 0.65696 0.08589 0.80591 0.0
C2840 C 0.81893 0.89257 0.31279 0.0
C2841 C 0.82303 0.89352 0.31987 0.0
C2842 C 0.81459 0.88383 0.32614 0.0
C2843 C 0.82086 0.88919 0.32651 0.0
C2844 C 0.81033 0.88315 0.31912 0.0
C2845 C 0.8125 0.88747 0.31251 0.0
U2846 U 0.83083 0.90806 0.30163 0.0
O2847 O 0.83793 0.90676 0.29099 0.0
O2848 O 0.82777 0.91469 0.29093 0.0
C2849 C 0.83341 0.9114 0.28682 0.0
C2850 C 0.8215 0.89645 0.30552 0.0
C2851 C 0.83141 0.90864 0.27886 0.0
C2852 C 0.82911 0.89813 0.26946 0.0
C2853 C 0.82966 0.90074 0.27725 0.0
C2854 C 0.83161 0.91134 0.26488 0.0
C2855 C 0.83032 0.90337 0.2632 0.0
C2856 C 0.83214 0.91393 0.27263 0.0
C2857 C 0.84309 0.92173 0.31594 0.0
C2858 C 0.85289 0.93198 0.31421 0.0
C2859 C 0.84919 0.92776 0.32726 0.0
C2860 C 0.84392 0.92243 0.32406 0.0
C2861 C 0.85376 0.9326 0.32241 0.0
C2862 C 0.84758 0.92655 0.31097 0.0
C2863 C 0.83766 0.91567 0.31312 0.0
O2864 O 0.819 0.90366 0.30443 0.0
O2865 O 0.82893 0.89551 0.30372 0.0
O2866 O 0.84069 0.90941 0.30982 0.0
O2867 O 0.83096 0.9179 0.31002 0.0
H2868 H 0.828 0.89746 0.32021 0.0
H2869 H 0.82423 0.88983 0.33185 0.0
H2870 H 0.80536 0.87921 0.31873 0.0
H2871 H 0.80924 0.88671 0.30711 0.0
H2872 H 0.82819 0.89194 0.26835 0.0
H2873 H 0.82908 0.89654 0.28199 0.0
H2874 H 0.8325 0.91552 0.26018 0.0
H2875 H 0.83348 0.92004 0.27374 0.0
H2876 H 0.85625 0.93571 0.31031 0.0
H2877 H 0.84979 0.92798 0.33358 0.0
H2878 H 0.84054 0.91873 0.32798 0.0
H2879 H 0.847 0.92608 0.30466 0.0
C2880 C 0.42944 0.39113 0.09932 0.0
C2881 C 0.42243 0.38681 0.09966 0.0
C2882 C 0.41643 0.39559 0.09009 0.0
C2883 C 0.41598 0.38902 0.09508 0.0
C2884 C 0.42329 0.40016 0.09017 0.0
C2885 C 0.42975 0.39792 0.09471 0.0
U2886 U 0.4399 0.37918 0.11517 0.0
O2887 O 0.44989 0.37108 0.11415 0.0
O2888 O 0.45079 0.38144 0.12176 0.0
C2889 C 0.4543 0.37517 0.11897 0.0
C2890 C 0.43664 0.38834 0.10324 0.0
C2891 C 0.46274 0.37569 0.11712 0.0
C2892 C 0.47402 0.38098 0.11009 0.0
C2893 C 0.46588 0.38084 0.11149 0.0
C2894 C 0.47586 0.37085 0.11986 0.0
C2895 C 0.47911 0.37596 0.11428 0.0
C2896 C 0.4678 0.37073 0.12126 0.0
C2897 C 0.42577 0.3681 0.1295 0.0
C2898 C 0.42742 0.35588 0.13663 0.0
C2899 C 0.41533 0.36323 0.13788 0.0
C2900 C 0.41833 0.36898 0.13288 0.0
C2901 C 0.41973 0.35648 0.13959 0.0
C2902 C 0.43041 0.36163 0.13157 0.0
C2903 C 0.42799 0.37347 0.12312 0.0
O2904 O 0.43796 0.39104 0.11034 0.0
O2905 O 0.43806 0.3808 0.10255 0.0
O2906 O 0.43082 0.37021 0.11674 0.0
O2907 O 0.43154 0.38003 0.12504 0.0
H2908 H 0.42204 0.38157 0.10324 0.0
H2909 H 0.41078 0.38538 0.09517 0.0
H2910 H 0.42374 0.40539 0.08658 0.0
H2911 H 0.43507 0.40137 0.09443 0.0
H2912 H 0.47634 0.38508 0.10583 0.0
H2913 H 0.46207 0.38474 0.10824 0.0
H2914 H 0.47956 0.36685 0.12313 0.0
H2915 H 0.4655 0.3667 0.1256 0.0
H2916 H 0.43101 0.35082 0.13799 0.0
H2917 H 0.4094 0.36386 0.14005 0.0
H2918 H 0.41466 0.37393 0.13132 0.0
H2919 H 0.43618 0.36086 0.12904 0.0
C2920 C 0.39428 0.69498 0.81809 0.0
C2921 C 0.39625 0.6876 0.8212 0.0
C2922 C 0.38541 0.68163 0.81404 0.0
C2923 C 0.39185 0.68096 0.81915 0.0
C2924 C 0.38371 0.68897 0.8107 0.0
C2925 C 0.3881 0.69558 0.81273 0.0
U2926 U 0.41007 0.70623 0.82963 0.0
O2927 O 0.41618 0.71724 0.82663 0.0
O2928 O 0.40873 0.71663 0.83712 0.0
C2929 C 0.41317 0.72104 0.83262 0.0
C2930 C 0.39817 0.70223 0.82072 0.0
C2931 C 0.41039 0.72912 0.83125 0.0
C2932 C 0.40112 0.73866 0.82601 0.0
C2933 C 0.40382 0.73088 0.82659 0.0
C2934 C 0.41154 0.7429 0.83465 0.0
C2935 C 0.40494 0.74476 0.83008 0.0
C2936 C 0.41425 0.7352 0.83518 0.0
C2937 C 0.42499 0.6931 0.84133 0.0
C2938 C 0.43143 0.69425 0.85401 0.0
C2939 C 0.43452 0.68335 0.84546 0.0
C2940 C 0.42931 0.68627 0.83986 0.0
C2941 C 0.43549 0.6872 0.85266 0.0
C2942 C 0.42624 0.69722 0.84836 0.0
C2943 C 0.41848 0.69499 0.83596 0.0
O2944 O 0.39751 0.7038 0.82823 0.0
O2945 O 0.40524 0.70355 0.81794 0.0
O2946 O 0.42022 0.69819 0.82916 0.0
O2947 O 0.41205 0.6978 0.83914 0.0
H2948 H 0.40103 0.68703 0.82535 0.0
H2949 H 0.39329 0.67536 0.82179 0.0
H2950 H 0.37889 0.68963 0.80662 0.0
H2951 H 0.38652 0.70122 0.81025 0.0
H2952 H 0.39599 0.73988 0.82247 0.0
H2953 H 0.40073 0.72625 0.82354 0.0
H2954 H 0.41448 0.74736 0.83809 0.0
H2955 H 0.41927 0.73395 0.83887 0.0
H2956 H 0.43208 0.6973 0.85955 0.0
H2957 H 0.43747 0.67783 0.84434 0.0
H2958 H 0.42836 0.68295 0.83453 0.0
H2959 H 0.42294 0.70249 0.84964 0.0
C2960 C 0.07804 0.61676 0.59972 0.0
C2961 C 0.08558 0.61873 0.60242 0.0
C2962 C 0.09137 0.61282 0.59077 0.0
C2963 C 0.09222 0.61673 0.59797 0.0
C2964 C 0.08384 0.61065 0.58825 0.0
C2965 C 0.07725 0.61257 0.5927 0.0
U2966 U 0.06745 0.62864 0.61561 0.0
O2967 O 0.05714 0.63631 0.61453 0.0
O2968 O 0.05672 0.62611 0.62242 0.0
C2969 C 0.05293 0.63215 0.61948 0.0
C2970 C 0.07087 0.6195 0.60371 0.0
C2971 C 0.04449 0.63119 0.61776 0.0
C2972 C 0.0334 0.62948 0.60888 0.0
C2973 C 0.04155 0.62959 0.61022 0.0
C2974 C 0.03113 0.63257 0.62254 0.0
C2975 C 0.02809 0.63097 0.61505 0.0
C2976 C 0.0392 0.63261 0.62388 0.0
C2977 C 0.08156 0.63982 0.63002 0.0
C2978 C 0.08178 0.65269 0.63618 0.0
C2979 C 0.09169 0.64306 0.63948 0.0
C2980 C 0.08814 0.63768 0.63445 0.0
C2981 C 0.08874 0.65071 0.64014 0.0
C2982 C 0.07822 0.64728 0.63112 0.0
C2983 C 0.0792 0.63461 0.62355 0.0
O2984 O 0.06965 0.61683 0.61085 0.0
O2985 O 0.06939 0.62702 0.60299 0.0
O2986 O 0.0762 0.63792 0.61726 0.0
O2987 O 0.07591 0.62789 0.62539 0.0
H2988 H 0.08631 0.62201 0.60781 0.0
H2989 H 0.09798 0.61853 0.59997 0.0
H2990 H 0.08305 0.60766 0.5827 0.0
H2991 H 0.07149 0.61102 0.59053 0.0
H2992 H 0.03124 0.62826 0.60303 0.0
H2993 H 0.04553 0.62854 0.60538 0.0
H2994 H 0.02727 0.634 0.62738 0.0
H2995 H 0.04134 0.63399 0.6297 0.0
H2996 H 0.07938 0.65855 0.63662 0.0
H2997 H 0.09697 0.64135 0.64258 0.0
H2998 H 0.09081 0.63197 0.63369 0.0
H2999 H 0.07313 0.64907 0.62776 0.0
C3000 C 0.11377 0.31238 0.31757 0.0
C3001 C 0.11092 0.31978 0.31977 0.0
C3002 C 0.12218 0.32607 0.31356 0.0
C3003 C 0.11509 0.32658 0.31777 0.0
C3004 C 0.12495 0.31862 0.31137 0.0
C3005 C 0.12076 0.31186 0.31331 0.0
U3006 U 0.09777 0.30124 0.32873 0.0
O3007 O 0.09136 0.29045 0.32556 0.0
O3008 O 0.09869 0.29076 0.33615 0.0
C3009 C 0.09417 0.28652 0.33157 0.0
C3010 C 0.10983 0.30508 0.31997 0.0
C3011 C 0.0967 0.27836 0.33024 0.0
C3012 C 0.10614 0.26857 0.32586 0.0
C3013 C 0.10351 0.27639 0.32603 0.0
C3014 C 0.09504 0.26469 0.33382 0.0
C3015 C 0.10202 0.26269 0.32994 0.0
C3016 C 0.09242 0.27243 0.33395 0.0
C3017 C 0.0835 0.31531 0.34037 0.0
C3018 C 0.0756 0.31386 0.35218 0.0
C3019 C 0.07635 0.32643 0.34557 0.0
C3020 C 0.08118 0.32316 0.33986 0.0
C3021 C 0.0737 0.32188 0.35189 0.0
C3022 C 0.08055 0.31058 0.34646 0.0
C3023 C 0.08981 0.31277 0.33508 0.0
O3024 O 0.11041 0.30334 0.32745 0.0
O3025 O 0.10276 0.30392 0.31712 0.0
O3026 O 0.08789 0.30962 0.32832 0.0
O3027 O 0.09603 0.3096 0.33834 0.0
H3028 H 0.10553 0.32029 0.32311 0.0
H3029 H 0.11281 0.33223 0.31955 0.0
H3030 H 0.1305 0.31797 0.30835 0.0
H3031 H 0.12308 0.30619 0.31164 0.0
H3032 H 0.11159 0.2672 0.32289 0.0
H3033 H 0.10692 0.28091 0.32315 0.0
H3034 H 0.09172 0.26028 0.33698 0.0
H3035 H 0.08716 0.27383 0.33723 0.0
H3036 H 0.07364 0.31027 0.35704 0.0
H3037 H 0.07493 0.33261 0.34521 0.0
H3038 H 0.08343 0.3269 0.33524 0.0
H3039 H 0.08233 0.30451 0.34697 0.0
C3040 C 0.42931 0.61651 0.40845 0.0
C3041 C 0.42224 0.62066 0.40768 0.0
C3042 C 0.41603 0.6121 0.41733 0.0
C3043 C 0.41567 0.6185 0.41211 0.0
C3044 C 0.42304 0.60779 0.41783 0.0
C3045 C 0.42961 0.60998 0.41343 0.0
U3046 U 0.43989 0.62831 0.39261 0.0
O3047 O 0.45005 0.6362 0.39353 0.0
O3048 O 0.4507 0.6258 0.38593 0.0
C3049 C 0.45435 0.632 0.3887 0.0
C3050 C 0.43656 0.61921 0.40457 0.0
C3051 C 0.46278 0.63131 0.39053 0.0
C3052 C 0.47387 0.62685 0.3984 0.0
C3053 C 0.46576 0.62683 0.39679 0.0
C3054 C 0.47598 0.63569 0.38749 0.0
C3055 C 0.47905 0.63139 0.39381 0.0
C3056 C 0.46797 0.63564 0.38588 0.0
C3057 C 0.42548 0.63935 0.37837 0.0
C3058 C 0.42705 0.65101 0.3703 0.0
C3059 C 0.41464 0.64409 0.37045 0.0
C3060 C 0.41777 0.6386 0.37564 0.0
C3061 C 0.4192 0.65043 0.3678 0.0
C3062 C 0.43018 0.6455 0.37557 0.0
C3063 C 0.42797 0.63412 0.38476 0.0
O3064 O 0.43784 0.61649 0.39747 0.0
O3065 O 0.43805 0.62674 0.40525 0.0
O3066 O 0.43101 0.63748 0.391 0.0
O3067 O 0.43141 0.6275 0.38285 0.0
H3068 H 0.42188 0.62573 0.40387 0.0
H3069 H 0.41042 0.62204 0.41169 0.0
H3070 H 0.42349 0.60281 0.42175 0.0
H3071 H 0.43501 0.60669 0.41408 0.0
H3072 H 0.47606 0.62351 0.40335 0.0
H3073 H 0.46183 0.62346 0.40047 0.0
H3074 H 0.4798 0.63916 0.38378 0.0
H3075 H 0.4658 0.63912 0.38102 0.0
H3076 H 0.4307 0.65583 0.36835 0.0
H3077 H 0.40853 0.64358 0.36883 0.0
H3078 H 0.41403 0.63394 0.37781 0.0
H3079 H 0.43614 0.6462 0.37764 0.0
C3080 C 0.11361 0.69522 0.19014 0.0
C3081 C 0.11098 0.6877 0.18804 0.0
C3082 C 0.12257 0.6819 0.19408 0.0
C3083 C 0.11543 0.68106 0.19004 0.0
C3084 C 0.12497 0.68942 0.19642 0.0
C3085 C 0.12055 0.69601 0.19444 0.0
U3086 U 0.09767 0.7061 0.17852 0.0
O3087 O 0.09111 0.71683 0.18163 0.0
O3088 O 0.09871 0.71666 0.17123 0.0
C3089 C 0.09411 0.72085 0.17577 0.0
C3090 C 0.10955 0.70238 0.18757 0.0
C3091 C 0.09672 0.72894 0.17736 0.0
C3092 C 0.10674 0.73849 0.18092 0.0
C3093 C 0.10407 0.73068 0.18066 0.0
C3094 C 0.09461 0.7428 0.17492 0.0
C3095 C 0.10211 0.74459 0.17783 0.0
C3096 C 0.09195 0.73507 0.17471 0.0
C3097 C 0.08358 0.69198 0.16668 0.0
C3098 C 0.07535 0.69339 0.1551 0.0
C3099 C 0.07585 0.681 0.16204 0.0
C3100 C 0.08104 0.68423 0.16744 0.0
C3101 C 0.07291 0.68552 0.15579 0.0
C3102 C 0.08068 0.69661 0.16051 0.0
C3103 C 0.08988 0.69456 0.17197 0.0
O3104 O 0.11029 0.70409 0.18009 0.0
O3105 O 0.10239 0.70342 0.19024 0.0
O3106 O 0.08789 0.69761 0.17876 0.0
O3107 O 0.09608 0.69784 0.16878 0.0
H3108 H 0.10562 0.68698 0.18471 0.0
H3109 H 0.11344 0.67532 0.18818 0.0
H3110 H 0.13036 0.69022 0.19969 0.0
H3111 H 0.12264 0.70176 0.19614 0.0
H3112 H 0.11257 0.73969 0.18312 0.0
H3113 H 0.10786 0.72601 0.18271 0.0
H3114 H 0.09092 0.74739 0.17253 0.0
H3115 H 0.08627 0.73385 0.17214 0.0
H3116 H 0.07322 0.69701 0.15033 0.0
H3117 H 0.07439 0.67485 0.1626 0.0
H3118 H 0.08332 0.68053 0.17208 0.0
H3119 H 0.08265 0.7026 0.15977 0.0
C3120 C 0.07855 0.39078 0.90744 0.0
C3121 C 0.08521 0.38594 0.90705 0.0
C3122 C 0.09203 0.39436 0.91634 0.0
C3123 C 0.09187 0.38768 0.91152 0.0
C3124 C 0.08555 0.39944 0.91635 0.0
C3125 C 0.07885 0.39765 0.91195 0.0
U3126 U 0.06751 0.3792 0.89191 0.0
O3127 O 0.05732 0.37138 0.89302 0.0
O3128 O 0.05669 0.38163 0.88522 0.0
C3129 C 0.05302 0.3755 0.88812 0.0
C3130 C 0.0711 0.38841 0.9037 0.0
C3131 C 0.0446 0.3763 0.89001 0.0
C3132 C 0.03369 0.38051 0.89824 0.0
C3133 C 0.04179 0.38038 0.8966 0.0
C3134 C 0.03123 0.37257 0.88674 0.0
C3135 C 0.02838 0.37654 0.89333 0.0
C3136 C 0.03925 0.37246 0.88509 0.0
C3137 C 0.08247 0.36794 0.87819 0.0
C3138 C 0.08097 0.3577 0.86839 0.0
C3139 C 0.09394 0.36169 0.8726 0.0
C3140 C 0.09062 0.36724 0.87758 0.0
C3141 C 0.08916 0.35678 0.86808 0.0
C3142 C 0.07761 0.36325 0.87348 0.0
C3143 C 0.07947 0.37322 0.88429 0.0
O3144 O 0.06983 0.39106 0.89658 0.0
O3145 O 0.06928 0.38096 0.90452 0.0
O3146 O 0.07636 0.36995 0.89053 0.0
O3147 O 0.07595 0.37972 0.8821 0.0
H3148 H 0.08514 0.38064 0.90355 0.0
H3149 H 0.09681 0.38369 0.9114 0.0
H3150 H 0.08551 0.40458 0.92008 0.0
H3151 H 0.07379 0.40147 0.91231 0.0
H3152 H 0.03158 0.38362 0.90336 0.0
H3153 H 0.04583 0.38335 0.90049 0.0
H3154 H 0.02724 0.36949 0.88287 0.0
H3155 H 0.04129 0.36927 0.88 0.0
H3156 H 0.07719 0.3539 0.86497 0.0
H3157 H 0.10026 0.36107 0.87246 0.0
H3158 H 0.09445 0.37081 0.88118 0.0
H3159 H 0.07129 0.3637 0.87391 0.0
C3160 C 0.39416 0.3127 0.68956 0.0
C3161 C 0.39656 0.32008 0.68679 0.0
C3162 C 0.38563 0.32628 0.69363 0.0
C3163 C 0.39232 0.32683 0.68882 0.0
C3164 C 0.38341 0.31889 0.69652 0.0
C3165 C 0.38763 0.31218 0.69451 0.0
U3166 U 0.40996 0.30134 0.6782 0.0
O3167 O 0.41595 0.29028 0.68124 0.0
O3168 O 0.4087 0.291 0.67061 0.0
C3169 C 0.413 0.28653 0.67518 0.0
C3170 C 0.398 0.3054 0.68701 0.0
C3171 C 0.4101 0.27847 0.67643 0.0
C3172 C 0.40235 0.26861 0.68331 0.0
C3173 C 0.40507 0.27637 0.68262 0.0
C3174 C 0.40972 0.26504 0.67171 0.0
C3175 C 0.40459 0.26286 0.67778 0.0
C3176 C 0.41244 0.27272 0.67106 0.0
C3177 C 0.42469 0.31506 0.66668 0.0
C3178 C 0.43296 0.31315 0.6552 0.0
C3179 C 0.4319 0.326 0.66115 0.0
C3180 C 0.42691 0.32296 0.66686 0.0
C3181 C 0.43482 0.32118 0.65518 0.0
C3182 C 0.42786 0.31009 0.66093 0.0
C3183 C 0.41831 0.31268 0.67198 0.0
O3184 O 0.39739 0.3038 0.6795 0.0
O3185 O 0.40504 0.30404 0.68984 0.0
O3186 O 0.42014 0.30935 0.67869 0.0
O3187 O 0.41198 0.30978 0.6687 0.0
H3188 H 0.40157 0.32059 0.68291 0.0
H3189 H 0.3941 0.33243 0.6864 0.0
H3190 H 0.37831 0.31829 0.70028 0.0
H3191 H 0.3857 0.30653 0.69669 0.0
H3192 H 0.39853 0.26711 0.68815 0.0
H3193 H 0.40321 0.28072 0.68686 0.0
H3194 H 0.4115 0.26083 0.6673 0.0
H3195 H 0.41631 0.27422 0.66625 0.0
H3196 H 0.43512 0.30936 0.65058 0.0
H3197 H 0.43322 0.33222 0.66121 0.0
H3198 H 0.42447 0.3269 0.67122 0.0
H3199 H 0.42616 0.30398 0.66067 0.0
C3200 C 0.10001 0.42895 0.39048 0.0
C3201 C 0.09994 0.42233 0.38557 0.0
C3202 C 0.09145 0.41539 0.39477 0.0
C3203 C 0.09564 0.41565 0.38766 0.0
C3204 C 0.09186 0.4219 0.39983 0.0
C3205 C 0.09608 0.42861 0.39769 0.0
U3206 U 0.11562 0.44002 0.37896 0.0
O3207 O 0.11458 0.44994 0.37077 0.0
O3208 O 0.12191 0.45108 0.38133 0.0
C3209 C 0.11919 0.45448 0.37495 0.0
C3210 C 0.10366 0.43639 0.38793 0.0
C3211 C 0.11722 0.46292 0.37525 0.0
C3212 C 0.11198 0.47467 0.38152 0.0
C3213 C 0.1132 0.46649 0.38151 0.0
C3214 C 0.11863 0.47567 0.36902 0.0
C3215 C 0.11484 0.47936 0.37533 0.0
C3216 C 0.11983 0.46758 0.36901 0.0
C3217 C 0.12991 0.42519 0.36829 0.0
C3218 C 0.13887 0.42652 0.35728 0.0
C3219 C 0.13626 0.41371 0.36286 0.0
C3220 C 0.13132 0.41711 0.36839 0.0
C3221 C 0.13993 0.41833 0.35712 0.0
C3222 C 0.13383 0.42995 0.36282 0.0
C3223 C 0.12364 0.4281 0.37343 0.0
O3224 O 0.11068 0.43791 0.39075 0.0
O3225 O 0.10301 0.43799 0.38042 0.0
O3226 O 0.11739 0.43099 0.36998 0.0
O3227 O 0.12561 0.43181 0.37989 0.0
H3228 H 0.10295 0.42244 0.37998 0.0
H3229 H 0.09533 0.41085 0.38352 0.0
H3230 H 0.08875 0.42187 0.40537 0.0
H3231 H 0.09609 0.43363 0.40158 0.0
H3232 H 0.10899 0.47735 0.38644 0.0
H3233 H 0.11111 0.463 0.38639 0.0
H3234 H 0.12071 0.47905 0.36406 0.0
H3235 H 0.12291 0.46496 0.36411 0.0
H3236 H 0.14159 0.4302 0.35286 0.0
H3237 H 0.13701 0.4074 0.36289 0.0
H3238 H 0.12832 0.41336 0.37255 0.0
H3239 H 0.13276 0.43621 0.36265 0.0
C3240 C 0.31306 0.31787 0.11334 0.0
C3241 C 0.32015 0.32177 0.11181 0.0
C3242 C 0.3267 0.31395 0.12183 0.0
C3243 C 0.32693 0.31983 0.11603 0.0
C3244 C 0.31963 0.30992 0.12316 0.0
C3245 C 0.31288 0.31186 0.11894 0.0
U3246 U 0.30136 0.32902 0.09767 0.0
O3247 O 0.29044 0.32568 0.09153 0.0
O3248 O 0.29075 0.33618 0.09899 0.0
C3249 C 0.28644 0.33149 0.09464 0.0
C3250 C 0.30566 0.32025 0.10957 0.0
C3251 C 0.27847 0.32975 0.09756 0.0
C3252 C 0.2689 0.32901 0.10817 0.0
C3253 C 0.27673 0.32922 0.10561 0.0
C3254 C 0.26451 0.32936 0.09467 0.0
C3255 C 0.26271 0.32939 0.10272 0.0
C3256 C 0.2723 0.32957 0.09214 0.0
C3257 C 0.31458 0.3409 0.08282 0.0
C3258 C 0.31311 0.35325 0.0758 0.0
C3259 C 0.32497 0.34557 0.07426 0.0
C3260 C 0.32194 0.33988 0.07931 0.0
C3261 C 0.32066 0.35237 0.07262 0.0
C3262 C 0.31006 0.34752 0.08087 0.0
C3263 C 0.3125 0.33557 0.08929 0.0
O3264 O 0.30386 0.32771 0.11023 0.0
O3265 O 0.30434 0.31741 0.10252 0.0
O3266 O 0.30943 0.32872 0.08754 0.0
O3267 O 0.3095 0.33877 0.09563 0.0
H3268 H 0.32038 0.32645 0.10751 0.0
H3269 H 0.33226 0.3231 0.11496 0.0
H3270 H 0.3193 0.30534 0.12754 0.0
H3271 H 0.30747 0.30878 0.12018 0.0
H3272 H 0.26769 0.329 0.1144 0.0
H3273 H 0.28139 0.32932 0.10992 0.0
H3274 H 0.25988 0.32946 0.09033 0.0
H3275 H 0.2735 0.32994 0.08591 0.0
H3276 H 0.30976 0.35852 0.07467 0.0
H3277 H 0.33085 0.34486 0.07197 0.0
H3278 H 0.32555 0.33487 0.08081 0.0
H3279 H 0.30439 0.34845 0.08357 0.0
C3280 C 0.40792 0.57815 0.89157 0.0
C3281 C 0.40683 0.58537 0.88774 0.0
C3282 C 0.41701 0.59133 0.89584 0.0
C3283 C 0.41136 0.59189 0.88985 0.0
C3284 C 0.41786 0.58415 0.89983 0.0
C3285 C 0.41335 0.57764 0.89771 0.0
U3286 U 0.39229 0.56783 0.87928 0.0
O3287 O 0.39338 0.55757 0.87158 0.0
O3288 O 0.3852 0.55722 0.88154 0.0
C3289 C 0.38833 0.55338 0.87563 0.0
C3290 C 0.40393 0.57098 0.88886 0.0
C3291 C 0.39022 0.545 0.87684 0.0
C3292 C 0.3995 0.53419 0.878 0.0
C3293 C 0.39793 0.54228 0.87794 0.0
C3294 C 0.38571 0.5315 0.87606 0.0
C3295 C 0.39342 0.5287 0.87686 0.0
C3296 C 0.38414 0.53954 0.87607 0.0
C3297 C 0.3792 0.5828 0.86741 0.0
C3298 C 0.36718 0.58175 0.85979 0.0
C3299 C 0.37501 0.59359 0.85917 0.0
C3300 C 0.38031 0.59037 0.86446 0.0
C3301 C 0.36838 0.58935 0.85673 0.0
C3302 C 0.37259 0.57847 0.86508 0.0
C3303 C 0.38511 0.57989 0.87298 0.0
O3304 O 0.39667 0.56996 0.89127 0.0
O3305 O 0.40489 0.56934 0.8814 0.0
O3306 O 0.39143 0.57671 0.86997 0.0
O3307 O 0.38268 0.57647 0.87945 0.0
H3308 H 0.40268 0.58588 0.88296 0.0
H3309 H 0.41067 0.59728 0.88654 0.0
H3310 H 0.42212 0.58354 0.9045 0.0
H3311 H 0.41428 0.57212 0.90072 0.0
H3312 H 0.40548 0.53225 0.87886 0.0
H3313 H 0.40273 0.54639 0.87857 0.0
H3314 H 0.38088 0.52748 0.87514 0.0
H3315 H 0.37816 0.5415 0.87517 0.0
H3316 H 0.36205 0.57838 0.85818 0.0
H3317 H 0.37621 0.59939 0.85688 0.0
H3318 H 0.38536 0.59381 0.86622 0.0
H3319 H 0.37162 0.57262 0.86736 0.0
C3320 C 0.19516 0.69016 0.61317 0.0
C3321 C 0.18779 0.68709 0.61113 0.0
C3322 C 0.18177 0.69416 0.622 0.0
C3323 C 0.18112 0.68911 0.6155 0.0
C3324 C 0.18911 0.69746 0.62377 0.0
C3325 C 0.19574 0.69546 0.61941 0.0
U3326 U 0.20633 0.67856 0.59743 0.0
O3327 O 0.21727 0.68153 0.59118 0.0
O3328 O 0.21674 0.67109 0.59871 0.0
C3329 C 0.22112 0.67559 0.59424 0.0
C3330 C 0.20242 0.68757 0.60927 0.0
C3331 C 0.22915 0.67708 0.59711 0.0
C3332 C 0.23841 0.68225 0.60668 0.0
C3333 C 0.23071 0.68165 0.60378 0.0
C3334 C 0.24299 0.67386 0.5962 0.0
C3335 C 0.24462 0.67817 0.60303 0.0
C3336 C 0.23536 0.67335 0.59327 0.0
C3337 C 0.19245 0.66682 0.58305 0.0
C3338 C 0.19392 0.65483 0.57544 0.0
C3339 C 0.1815 0.66175 0.57551 0.0
C3340 C 0.18471 0.66746 0.58039 0.0
C3341 C 0.18602 0.65531 0.57315 0.0
C3342 C 0.19713 0.66057 0.58041 0.0
C3343 C 0.19489 0.67218 0.58934 0.0
O3344 O 0.20405 0.68008 0.61 0.0
O3345 O 0.20367 0.69029 0.60217 0.0
O3346 O 0.19814 0.6789 0.58739 0.0
O3347 O 0.19792 0.66899 0.59567 0.0
H3348 H 0.18724 0.683 0.60631 0.0
H3349 H 0.17553 0.6865 0.61401 0.0
H3350 H 0.18974 0.70149 0.62863 0.0
H3351 H 0.20137 0.69791 0.62103 0.0
H3352 H 0.23946 0.68583 0.61181 0.0
H3353 H 0.22598 0.68462 0.60681 0.0
H3354 H 0.24757 0.67059 0.59324 0.0
H3355 H 0.23427 0.6698 0.58812 0.0
H3356 H 0.19745 0.64985 0.57372 0.0
H3357 H 0.17538 0.66217 0.57386 0.0
H3358 H 0.18098 0.67219 0.58243 0.0
H3359 H 0.20312 0.65995 0.58245 0.0
C3360 C 0.10135 0.58161 0.11672 0.0
C3361 C 0.10026 0.58786 0.12196 0.0
C3362 C 0.09172 0.59435 0.11252 0.0
C3363 C 0.09549 0.5942 0.11986 0.0
C3364 C 0.09332 0.58836 0.1071 0.0
C3365 C 0.09806 0.58203 0.10921 0.0
U3366 U 0.11546 0.56708 0.12772 0.0
O3367 O 0.11136 0.55617 0.13339 0.0
O3368 O 0.11949 0.55565 0.12317 0.0
C3369 C 0.11531 0.55184 0.12841 0.0
C3370 C 0.10475 0.57409 0.1192 0.0
C3371 C 0.11527 0.54326 0.12884 0.0
C3372 C 0.10936 0.53083 0.12524 0.0
C3373 C 0.1099 0.53896 0.12435 0.0
C3374 C 0.11972 0.53121 0.13497 0.0
C3375 C 0.11421 0.52689 0.13063 0.0
C3376 C 0.12021 0.53935 0.13412 0.0
C3377 C 0.13109 0.57923 0.14102 0.0
C3378 C 0.13746 0.58054 0.15368 0.0
C3379 C 0.13952 0.5904 0.14365 0.0
C3380 C 0.1347 0.58619 0.13853 0.0
C3381 C 0.14089 0.58764 0.1513 0.0
C3382 C 0.13257 0.57638 0.14859 0.0
C3383 C 0.12546 0.57521 0.1359 0.0
O3384 O 0.11168 0.57218 0.11643 0.0
O3385 O 0.10368 0.57204 0.12655 0.0
O3386 O 0.11866 0.57292 0.1387 0.0
O3387 O 0.127 0.57312 0.12863 0.0
H3388 H 0.10276 0.58765 0.1278 0.0
H3389 H 0.09438 0.59875 0.12415 0.0
H3390 H 0.09069 0.58843 0.10132 0.0
H3391 H 0.09883 0.57726 0.10508 0.0
H3392 H 0.10515 0.52761 0.12175 0.0
H3393 H 0.10602 0.54191 0.12027 0.0
H3394 H 0.12351 0.5283 0.13916 0.0
H3395 H 0.12435 0.54262 0.13767 0.0
H3396 H 0.13831 0.57834 0.15958 0.0
H3397 H 0.14208 0.59587 0.14168 0.0
H3398 H 0.13359 0.58848 0.1327 0.0
H3399 H 0.12983 0.57102 0.15062 0.0
C3400 C 0.19499 0.31772 0.89399 0.0
C3401 C 0.18752 0.31968 0.89688 0.0
C3402 C 0.18142 0.31368 0.88541 0.0
C3403 C 0.18078 0.31766 0.89261 0.0
C3404 C 0.18891 0.31162 0.88266 0.0
C3405 C 0.19561 0.31362 0.88691 0.0
U3406 U 0.20622 0.32899 0.90997 0.0
O3407 O 0.21713 0.32576 0.91617 0.0
O3408 O 0.21672 0.33638 0.90887 0.0
C3409 C 0.22101 0.33179 0.91333 0.0
C3410 C 0.20224 0.32021 0.89797 0.0
C3411 C 0.22917 0.33054 0.91075 0.0
C3412 C 0.23905 0.32544 0.90175 0.0
C3413 C 0.23124 0.32564 0.90444 0.0
C3414 C 0.24272 0.33479 0.91179 0.0
C3415 C 0.24481 0.33019 0.90529 0.0
C3416 C 0.235 0.33495 0.91447 0.0
C3417 C 0.19273 0.34082 0.92461 0.0
C3418 C 0.19303 0.35369 0.93079 0.0
C3419 C 0.18245 0.34467 0.93367 0.0
C3420 C 0.18587 0.33908 0.92879 0.0
C3421 C 0.18585 0.35211 0.93453 0.0
C3422 C 0.19644 0.34809 0.92582 0.0
C3423 C 0.19493 0.33547 0.91818 0.0
O3424 O 0.20394 0.32769 0.89736 0.0
O3425 O 0.20343 0.31738 0.90505 0.0
O3426 O 0.198 0.32863 0.91999 0.0
O3427 O 0.19794 0.33864 0.91183 0.0
H3428 H 0.18693 0.3229 0.90232 0.0
H3429 H 0.1751 0.31945 0.89482 0.0
H3430 H 0.1896 0.30851 0.87717 0.0
H3431 H 0.20132 0.31208 0.88459 0.0
H3432 H 0.24051 0.32189 0.89669 0.0
H3433 H 0.22681 0.32221 0.90147 0.0
H3434 H 0.24703 0.33848 0.91464 0.0
H3435 H 0.23353 0.33876 0.91934 0.0
H3436 H 0.19573 0.35942 0.93133 0.0
H3437 H 0.17693 0.3433 0.93651 0.0
H3438 H 0.18289 0.33354 0.92791 0.0
H3439 H 0.20172 0.34958 0.92261 0.0
C3440 C 0.40839 0.42953 0.6169 0.0
C3441 C 0.40449 0.42253 0.61497 0.0
C3442 C 0.41704 0.41606 0.61254 0.0
C3443 C 0.40878 0.41587 0.61272 0.0
C3444 C 0.42086 0.42314 0.61437 0.0
C3445 C 0.41658 0.42978 0.61649 0.0
U3446 U 0.39195 0.43984 0.62832 0.0
O3447 O 0.3927 0.44972 0.63658 0.0
O3448 O 0.38561 0.45084 0.62586 0.0
C3449 C 0.38819 0.45425 0.63228 0.0
C3450 C 0.40421 0.43661 0.61959 0.0
C3451 C 0.39028 0.46265 0.63196 0.0
C3452 C 0.39542 0.47435 0.62551 0.0
C3453 C 0.39405 0.4662 0.62554 0.0
C3454 C 0.38939 0.47535 0.63832 0.0
C3455 C 0.39303 0.47903 0.63191 0.0
C3456 C 0.38803 0.4673 0.63833 0.0
C3457 C 0.37729 0.42577 0.6391 0.0
C3458 C 0.37139 0.42543 0.65209 0.0
C3459 C 0.36755 0.41589 0.64231 0.0
C3460 C 0.37259 0.4194 0.6369 0.0
C3461 C 0.36715 0.41866 0.65005 0.0
C3462 C 0.37645 0.42896 0.64666 0.0
C3463 C 0.3838 0.42801 0.63387 0.0
O3464 O 0.39718 0.4379 0.61667 0.0
O3465 O 0.40465 0.43798 0.62716 0.0
O3466 O 0.39015 0.43076 0.63724 0.0
O3467 O 0.38206 0.43153 0.62723 0.0
H3468 H 0.39815 0.42219 0.61523 0.0
H3469 H 0.40561 0.4106 0.61115 0.0
H3470 H 0.4272 0.42351 0.61439 0.0
H3471 H 0.41971 0.43511 0.61797 0.0
H3472 H 0.39814 0.477 0.62042 0.0
H3473 H 0.39582 0.46272 0.62053 0.0
H3474 H 0.38757 0.47872 0.64339 0.0
H3475 H 0.3851 0.46469 0.64334 0.0
H3476 H 0.37117 0.4277 0.65802 0.0
H3477 H 0.36422 0.41077 0.64054 0.0
H3478 H 0.37315 0.41684 0.63111 0.0
H3479 H 0.38001 0.43389 0.6485 0.0
C3480 C 0.31237 0.69013 0.39461 0.0
C3481 C 0.31977 0.6872 0.39675 0.0
C3482 C 0.32574 0.69408 0.38572 0.0
C3483 C 0.32643 0.68919 0.39235 0.0
C3484 C 0.31837 0.69723 0.38384 0.0
C3485 C 0.31175 0.69525 0.38823 0.0
U3486 U 0.30107 0.67857 0.41037 0.0
O3487 O 0.29018 0.68172 0.41666 0.0
O3488 O 0.29051 0.67134 0.40903 0.0
C3489 C 0.28621 0.67591 0.41352 0.0
C3490 C 0.30512 0.68758 0.39855 0.0
C3491 C 0.27819 0.67758 0.41071 0.0
C3492 C 0.26872 0.67961 0.40018 0.0
C3493 C 0.27653 0.67944 0.40284 0.0
C3494 C 0.26421 0.67651 0.41329 0.0
C3495 C 0.26252 0.67785 0.40534 0.0
C3496 C 0.27196 0.67637 0.41594 0.0
C3497 C 0.31485 0.66659 0.42473 0.0
C3498 C 0.31286 0.65534 0.43331 0.0
C3499 C 0.32586 0.66082 0.43162 0.0
C3500 C 0.32283 0.66652 0.42663 0.0
C3501 C 0.32095 0.65509 0.43488 0.0
C3502 C 0.3098 0.66107 0.42821 0.0
C3503 C 0.31239 0.67197 0.41845 0.0
O3504 O 0.3034 0.68011 0.3978 0.0
O3505 O 0.30394 0.69027 0.40568 0.0
O3506 O 0.30924 0.67873 0.42042 0.0
O3507 O 0.30928 0.66883 0.41214 0.0
H3508 H 0.32035 0.68323 0.40168 0.0
H3509 H 0.33205 0.6867 0.39393 0.0
H3510 H 0.3177 0.70114 0.37887 0.0
H3511 H 0.3061 0.69759 0.38651 0.0
H3512 H 0.26757 0.68065 0.39402 0.0
H3513 H 0.28125 0.6804 0.39871 0.0
H3514 H 0.25954 0.67522 0.4174 0.0
H3515 H 0.27311 0.67494 0.42202 0.0
H3516 H 0.309 0.65092 0.43574 0.0
H3517 H 0.33212 0.66069 0.43272 0.0
H3518 H 0.32681 0.6707 0.42396 0.0
H3519 H 0.30362 0.661 0.42677 0.0
C3520 C 0.39077 0.10008 0.42877 0.0
C3521 C 0.3854 0.09884 0.42264 0.0
C3522 C 0.39507 0.09108 0.41552 0.0
C3523 C 0.38752 0.09435 0.41611 0.0
C3524 C 0.40059 0.09282 0.42141 0.0
C3525 C 0.39844 0.09722 0.42799 0.0
U3526 U 0.37923 0.11569 0.43991 0.0
O3527 O 0.37173 0.11462 0.45033 0.0
O3528 O 0.38193 0.1225 0.4506 0.0
C3529 C 0.37599 0.1195 0.4545 0.0
C3530 C 0.38836 0.10389 0.43618 0.0
C3531 C 0.37715 0.11766 0.46291 0.0
C3532 C 0.37675 0.10864 0.47404 0.0
C3533 C 0.37698 0.10996 0.46589 0.0
C3534 C 0.37715 0.12265 0.47627 0.0
C3535 C 0.37658 0.11501 0.47929 0.0
C3536 C 0.37743 0.12395 0.46819 0.0
C3537 C 0.36771 0.12978 0.42575 0.0
C3538 C 0.35609 0.13779 0.42768 0.0
C3539 C 0.3625 0.13753 0.41499 0.0
C3540 C 0.36812 0.13238 0.41796 0.0
C3541 C 0.35636 0.14013 0.41978 0.0
C3542 C 0.36178 0.13266 0.43068 0.0
C3543 C 0.37304 0.12345 0.42813 0.0
O3544 O 0.39106 0.111 0.43743 0.0
O3545 O 0.38093 0.10308 0.43809 0.0
O3546 O 0.3698 0.1172 0.43129 0.0
O3547 O 0.37972 0.12544 0.4314 0.0
H3548 H 0.37947 0.10108 0.42303 0.0
H3549 H 0.38312 0.09316 0.41169 0.0
H3550 H 0.40655 0.09066 0.42101 0.0
H3551 H 0.40271 0.09821 0.43259 0.0
H3552 H 0.37634 0.10269 0.47622 0.0
H3553 H 0.37674 0.10499 0.46194 0.0
H3554 H 0.37716 0.12766 0.48017 0.0
H3555 H 0.37753 0.12993 0.46604 0.0
H3556 H 0.35135 0.13972 0.43144 0.0
H3557 H 0.36273 0.13917 0.40886 0.0
H3558 H 0.37262 0.13016 0.41406 0.0
H3559 H 0.36136 0.1307 0.43671 0.0
C3560 C 0.89081 0.40776 0.57836 0.0
C3561 C 0.88849 0.40537 0.58591 0.0
C3562 C 0.89483 0.41686 0.59156 0.0
C3563 C 0.89053 0.40989 0.59249 0.0
C3564 C 0.89738 0.41903 0.58404 0.0
C3565 C 0.89542 0.4145 0.57751 0.0
U3566 U 0.87892 0.39174 0.56802 0.0
O3567 O 0.87064 0.39271 0.55817 0.0
O3568 O 0.88118 0.38535 0.557 0.0
C3569 C 0.87482 0.38812 0.55361 0.0
C3570 C 0.88799 0.40376 0.57124 0.0
C3571 C 0.8752 0.39026 0.54521 0.0
C3572 C 0.88186 0.39508 0.53349 0.0
C3573 C 0.88179 0.39371 0.54164 0.0
C3574 C 0.86877 0.3897 0.53251 0.0
C3575 C 0.87535 0.39301 0.52881 0.0
C3576 C 0.86871 0.38834 0.54057 0.0
C3577 C 0.86818 0.37761 0.58287 0.0
C3578 C 0.85729 0.36853 0.58132 0.0
C3579 C 0.86238 0.37141 0.59427 0.0
C3580 C 0.86798 0.37634 0.59098 0.0
C3581 C 0.85686 0.3676 0.58951 0.0
C3582 C 0.86291 0.37357 0.578 0.0
C3583 C 0.8734 0.38384 0.58003 0.0
O3584 O 0.89073 0.39667 0.56993 0.0
O3585 O 0.88042 0.40438 0.56993 0.0
O3586 O 0.87001 0.39013 0.57715 0.0
O3587 O 0.87984 0.38182 0.57631 0.0
H3588 H 0.88489 0.40019 0.58668 0.0
H3589 H 0.88843 0.40815 0.59823 0.0
H3590 H 0.9007 0.42438 0.58319 0.0
H3591 H 0.89725 0.41643 0.57174 0.0
H3592 H 0.88708 0.39754 0.53083 0.0
H3593 H 0.88689 0.39522 0.54511 0.0
H3594 H 0.86361 0.38813 0.52915 0.0
H3595 H 0.86357 0.38566 0.54318 0.0
H3596 H 0.85304 0.36568 0.57755 0.0
H3597 H 0.86218 0.37077 0.60059 0.0
H3598 H 0.87198 0.37944 0.59482 0.0
H3599 H 0.86296 0.37453 0.57172 0.0
C3600 C 0.31745 0.11318 0.3125 0.0
C3601 C 0.31973 0.11042 0.31993 0.0
C3602 C 0.3137 0.12181 0.32607 0.0
C3603 C 0.31782 0.1147 0.3267 0.0
C3604 C 0.31123 0.1244 0.31866 0.0
C3605 C 0.31307 0.1201 0.31194 0.0
U3606 U 0.32901 0.09748 0.30127 0.0
O3607 O 0.32616 0.09144 0.29019 0.0
O3608 O 0.3367 0.0988 0.291 0.0
C3609 C 0.33223 0.09445 0.28649 0.0
C3610 C 0.32002 0.10934 0.30521 0.0
C3611 C 0.33105 0.09734 0.2784 0.0
C3612 C 0.3241 0.10479 0.26837 0.0
C3613 C 0.32471 0.1021 0.27616 0.0
C3614 C 0.33609 0.09795 0.26509 0.0
C3615 C 0.32985 0.1028 0.26276 0.0
C3616 C 0.33667 0.09526 0.27279 0.0
C3617 C 0.34053 0.08312 0.3155 0.0
C3618 C 0.35207 0.07481 0.31418 0.0
C3619 C 0.34584 0.07639 0.32685 0.0
C3620 C 0.34019 0.08122 0.32347 0.0
C3621 C 0.35194 0.07329 0.32229 0.0
C3622 C 0.34641 0.07977 0.31079 0.0
C3623 C 0.33523 0.08934 0.31275 0.0
O3624 O 0.32752 0.11005 0.30361 0.0
O3625 O 0.31729 0.10225 0.30389 0.0
O3626 O 0.32861 0.08734 0.30935 0.0
O3627 O 0.33848 0.09567 0.30979 0.0
H3628 H 0.32316 0.10509 0.32047 0.0
H3629 H 0.31982 0.11264 0.33237 0.0
H3630 H 0.30804 0.12986 0.31806 0.0
H3631 H 0.31127 0.12232 0.30626 0.0
H3632 H 0.31914 0.10841 0.26675 0.0
H3633 H 0.32029 0.10376 0.2804 0.0
H3634 H 0.34067 0.09636 0.26098 0.0
H3635 H 0.34161 0.0916 0.2744 0.0
H3636 H 0.35676 0.07251 0.31056 0.0
H3637 H 0.34559 0.07528 0.3331 0.0
H3638 H 0.33573 0.08378 0.3272 0.0
H3639 H 0.3468 0.08122 0.30461 0.0
C3640 C 0.61649 0.59949 0.07788 0.0
C3641 C 0.61996 0.6008 0.08524 0.0
C3642 C 0.6124 0.59 0.09084 0.0
C3643 C 0.61791 0.59609 0.09168 0.0
C3644 C 0.60863 0.58906 0.08357 0.0
C3645 C 0.6107 0.59372 0.07715 0.0
U3646 U 0.62834 0.61562 0.06763 0.0
O3647 O 0.63618 0.61479 0.05743 0.0
O3648 O 0.62586 0.62248 0.05693 0.0
C3649 C 0.632 0.61968 0.05319 0.0
C3650 C 0.61923 0.6036 0.07078 0.0
C3651 C 0.63109 0.61779 0.04478 0.0
C3652 C 0.62787 0.60898 0.034 0.0
C3653 C 0.62791 0.61068 0.04208 0.0
C3654 C 0.63396 0.62153 0.03131 0.0
C3655 C 0.63095 0.6144 0.02858 0.0
C3656 C 0.63404 0.6232 0.03933 0.0
C3657 C 0.63941 0.62951 0.08242 0.0
C3658 C 0.65072 0.63807 0.0809 0.0
C3659 C 0.64487 0.63619 0.09371 0.0
C3660 C 0.63922 0.63129 0.09043 0.0
C3661 C 0.65078 0.63945 0.08903 0.0
C3662 C 0.64507 0.63306 0.0776 0.0
C3663 C 0.63417 0.62324 0.07967 0.0
O3664 O 0.61653 0.61073 0.06966 0.0
O3665 O 0.62676 0.60295 0.06931 0.0
O3666 O 0.63752 0.61706 0.07653 0.0
O3667 O 0.62758 0.62528 0.07622 0.0
H3668 H 0.62443 0.60526 0.08594 0.0
H3669 H 0.6209 0.59698 0.09721 0.0
H3670 H 0.60419 0.58459 0.08278 0.0
H3671 H 0.60792 0.59267 0.07153 0.0
H3672 H 0.62554 0.60343 0.03199 0.0
H3673 H 0.62563 0.60641 0.04619 0.0
H3674 H 0.63642 0.62575 0.02725 0.0
H3675 H 0.63657 0.62869 0.04129 0.0
H3676 H 0.65529 0.6405 0.0772 0.0
H3677 H 0.64482 0.63718 0.09999 0.0
H3678 H 0.63492 0.62858 0.09424 0.0
H3679 H 0.64532 0.63172 0.07139 0.0
C3680 C 0.68952 0.39361 0.31254 0.0
C3681 C 0.68758 0.3965 0.32 0.0
C3682 C 0.69362 0.38504 0.3261 0.0
C3683 C 0.68962 0.39224 0.32674 0.0
C3684 C 0.69568 0.3823 0.31861 0.0
C3685 C 0.69365 0.38654 0.31191 0.0
U3686 U 0.67813 0.40956 0.30143 0.0
O3687 O 0.6812 0.4158 0.29051 0.0
O3688 O 0.67061 0.40848 0.29102 0.0
C3689 C 0.67518 0.41289 0.28666 0.0
C3690 C 0.68697 0.39756 0.3053 0.0
C3691 C 0.67653 0.41011 0.27859 0.0
C3692 C 0.68293 0.4018 0.26889 0.0
C3693 C 0.68226 0.40452 0.27665 0.0
C3694 C 0.67224 0.4103 0.26501 0.0
C3695 C 0.67781 0.40457 0.263 0.0
C3696 C 0.67163 0.41303 0.27269 0.0
C3697 C 0.66655 0.42411 0.31519 0.0
C3698 C 0.65556 0.43295 0.313 0.0
C3699 C 0.6612 0.43165 0.32597 0.0
C3700 C 0.66667 0.42634 0.32307 0.0
C3701 C 0.65549 0.43496 0.32103 0.0
C3702 C 0.66103 0.4275 0.3101 0.0
C3703 C 0.67182 0.4177 0.31286 0.0
O3704 O 0.67947 0.39695 0.30368 0.0
O3705 O 0.68978 0.40464 0.30407 0.0
O3706 O 0.67859 0.41955 0.30965 0.0
O3707 O 0.66855 0.41143 0.30982 0.0
H3708 H 0.68434 0.40193 0.3206 0.0
H3709 H 0.68784 0.39444 0.33243 0.0
H3710 H 0.69879 0.37681 0.31793 0.0
H3711 H 0.69518 0.38422 0.30619 0.0
H3712 H 0.68741 0.39752 0.26752 0.0
H3713 H 0.68613 0.40221 0.28113 0.0
H3714 H 0.66815 0.41252 0.26068 0.0
H3715 H 0.66717 0.41734 0.27407 0.0
H3716 H 0.65136 0.43552 0.30898 0.0
H3717 H 0.66128 0.43294 0.33219 0.0
H3718 H 0.67085 0.42374 0.3271 0.0
H3719 H 0.66085 0.42583 0.30398 0.0
C3720 C 0.11602 0.90833 0.92993 0.0
C3721 C 0.1155 0.90477 0.92252 0.0
C3722 C 0.11161 0.91726 0.91663 0.0
C3723 C 0.11328 0.90919 0.91593 0.0
C3724 C 0.11217 0.92074 0.92409 0.0
C3725 C 0.11427 0.91632 0.93065 0.0
U3726 U 0.12833 0.89245 0.94014 0.0
O3727 O 0.13599 0.89362 0.95043 0.0
O3728 O 0.12608 0.88537 0.95077 0.0
C3729 C 0.13195 0.88855 0.95463 0.0
C3730 C 0.11876 0.90409 0.93697 0.0
C3731 C 0.13073 0.89042 0.96301 0.0
C3732 C 0.12985 0.89961 0.97393 0.0
C3733 C 0.12998 0.89814 0.96582 0.0
C3734 C 0.13106 0.8857 0.97647 0.0
C3735 C 0.13043 0.89339 0.97935 0.0
C3736 C 0.13116 0.88424 0.96841 0.0
C3737 C 0.14043 0.8794 0.92536 0.0
C3738 C 0.14724 0.86686 0.92595 0.0
C3739 C 0.14941 0.87567 0.91501 0.0
C3740 C 0.14417 0.881 0.91825 0.0
C3741 C 0.15101 0.86852 0.91877 0.0
C3742 C 0.14198 0.87229 0.92924 0.0
C3743 C 0.13476 0.88526 0.92817 0.0
O3744 O 0.11637 0.89681 0.93788 0.0
O3745 O 0.12621 0.90507 0.93865 0.0
O3746 O 0.13768 0.89165 0.93132 0.0
O3747 O 0.12828 0.8828 0.93154 0.0
H3748 H 0.11692 0.89861 0.9218 0.0
H3749 H 0.11295 0.90631 0.91028 0.0
H3750 H 0.11128 0.92698 0.92486 0.0
H3751 H 0.11474 0.9192 0.93629 0.0
H3752 H 0.12936 0.9056 0.97598 0.0
H3753 H 0.12969 0.90302 0.96176 0.0
H3754 H 0.13174 0.88079 0.98044 0.0
H3755 H 0.13187 0.87826 0.96639 0.0
H3756 H 0.14824 0.86135 0.92894 0.0
H3757 H 0.15227 0.8772 0.90955 0.0
H3758 H 0.14303 0.88644 0.91515 0.0
H3759 H 0.13909 0.87091 0.93473 0.0
C3760 C 0.31721 0.89445 0.1952 0.0
C3761 C 0.32171 0.89506 0.18832 0.0
C3762 C 0.31313 0.88574 0.18178 0.0
C3763 C 0.31971 0.89069 0.18167 0.0
C3764 C 0.30844 0.8854 0.18853 0.0
C3765 C 0.3105 0.88971 0.19521 0.0
U3766 U 0.32887 0.90999 0.20641 0.0
O3767 O 0.32608 0.91629 0.21736 0.0
O3768 O 0.33647 0.90871 0.21673 0.0
C3769 C 0.33206 0.91323 0.22114 0.0
C3770 C 0.31973 0.89822 0.20256 0.0
C3771 C 0.3307 0.91044 0.22922 0.0
C3772 C 0.32469 0.90171 0.23881 0.0
C3773 C 0.3253 0.90449 0.23107 0.0
C3774 C 0.33476 0.91086 0.24287 0.0
C3775 C 0.32955 0.90476 0.24479 0.0
C3776 C 0.33531 0.91366 0.2352 0.0
C3777 C 0.34055 0.92404 0.19201 0.0
C3778 C 0.35163 0.93291 0.19354 0.0
C3779 C 0.34629 0.93033 0.18063 0.0
C3780 C 0.34065 0.92544 0.18393 0.0
C3781 C 0.35193 0.93398 0.18536 0.0
C3782 C 0.34598 0.9279 0.19687 0.0
C3783 C 0.33519 0.9179 0.19481 0.0
O3784 O 0.32719 0.89742 0.20428 0.0
O3785 O 0.31707 0.90534 0.20384 0.0
O3786 O 0.32858 0.92 0.19819 0.0
O3787 O 0.33837 0.91158 0.19788 0.0
H3788 H 0.3269 0.89873 0.18818 0.0
H3789 H 0.32338 0.89104 0.1765 0.0
H3790 H 0.30337 0.88159 0.18874 0.0
H3791 H 0.30696 0.88915 0.20046 0.0
H3792 H 0.32046 0.89715 0.2401 0.0
H3793 H 0.32167 0.90194 0.22653 0.0
H3794 H 0.33864 0.91331 0.24725 0.0
H3795 H 0.33951 0.91824 0.23389 0.0
H3796 H 0.35596 0.93564 0.19729 0.0
H3797 H 0.34638 0.9311 0.17432 0.0
H3798 H 0.33653 0.92249 0.18009 0.0
H3799 H 0.346 0.92684 0.20313 0.0
C3800 C 0.18931 0.11365 0.69506 0.0
C3801 C 0.18676 0.11091 0.68773 0.0
C3802 C 0.19298 0.12209 0.68128 0.0
C3803 C 0.18863 0.11507 0.68088 0.0
C3804 C 0.19574 0.12461 0.68862 0.0
C3805 C 0.19393 0.12043 0.69544 0.0
U3806 U 0.178 0.09789 0.70641 0.0
O3807 O 0.18121 0.09148 0.71719 0.0
O3808 O 0.17077 0.09901 0.71701 0.0
C3809 C 0.17536 0.09447 0.72121 0.0
C3810 C 0.18691 0.10981 0.70241 0.0
C3811 C 0.17701 0.09716 0.72927 0.0
C3812 C 0.18166 0.10687 0.73865 0.0
C3813 C 0.18098 0.10419 0.73088 0.0
C3814 C 0.17454 0.09545 0.74319 0.0
C3815 C 0.17835 0.10256 0.7449 0.0
C3816 C 0.17394 0.09277 0.73549 0.0
C3817 C 0.16631 0.08358 0.69228 0.0
C3818 C 0.15528 0.07462 0.69378 0.0
C3819 C 0.16153 0.07619 0.68112 0.0
C3820 C 0.16679 0.08152 0.68436 0.0
C3821 C 0.15572 0.07264 0.68576 0.0
C3822 C 0.16055 0.08008 0.69703 0.0
C3823 C 0.1715 0.08992 0.69497 0.0
O3824 O 0.17945 0.1105 0.70419 0.0
O3825 O 0.18966 0.1027 0.70361 0.0
O3826 O 0.1783 0.08802 0.69805 0.0
O3827 O 0.16822 0.09608 0.69821 0.0
H3828 H 0.18323 0.10564 0.68732 0.0
H3829 H 0.18661 0.11282 0.6753 0.0
H3830 H 0.19909 0.12998 0.68915 0.0
H3831 H 0.19596 0.12261 0.70104 0.0
H3832 H 0.18463 0.11237 0.73975 0.0
H3833 H 0.18337 0.10769 0.72614 0.0
H3834 H 0.17168 0.0921 0.74777 0.0
H3835 H 0.17078 0.08737 0.73435 0.0
H3836 H 0.15082 0.07203 0.69748 0.0
H3837 H 0.16188 0.07506 0.67488 0.0
H3838 H 0.1711 0.08426 0.68058 0.0
H3839 H 0.16004 0.08166 0.70316 0.0
C3840 C 0.1489 0.20402 0.36562 0.0
C3841 C 0.15394 0.19768 0.36403 0.0
C3842 C 0.14224 0.20531 0.36101 0.0
C3843 C 0.14044 0.20024 0.35479 0.0
C3844 C 0.14561 0.1941 0.353 0.0
C3845 C 0.15235 0.19291 0.35748 0.0
C3846 C 0.13285 0.20089 0.35065 0.0
C3847 C 0.13048 0.20796 0.34722 0.0
C3848 C 0.12298 0.20873 0.34382 0.0
C3849 C 0.11796 0.20213 0.34375 0.0
C3850 C 0.12031 0.19495 0.34714 0.0
C3851 C 0.12778 0.19446 0.35059 0.0
C3852 C 0.11488 0.18808 0.34772 0.0
C3853 C 0.10679 0.18913 0.34895 0.0
C3854 C 0.11789 0.18039 0.34778 0.0
C3855 C 0.1131 0.17401 0.34964 0.0
C3856 C 0.10508 0.17509 0.35119 0.0
C3857 C 0.12029 0.21654 0.34083 0.0
C3858 C 0.12284 0.22347 0.34452 0.0
C3859 C 0.11505 0.21721 0.33447 0.0
C3860 C 0.11229 0.22458 0.33203 0.0
C3861 C 0.11479 0.23145 0.33584 0.0
C3862 C 0.1202 0.23078 0.34201 0.0
C3863 C 0.10195 0.18271 0.35059 0.0
H3864 H 0.14995 0.20781 0.3706 0.0
H3865 H 0.1383 0.21006 0.36253 0.0
H3866 H 0.14437 0.19016 0.34817 0.0
H3867 H 0.15627 0.18819 0.35586 0.0
H3868 H 0.13454 0.21284 0.34723 0.0
H3869 H 0.12957 0.18917 0.35362 0.0
H3870 H 0.11216 0.20264 0.34123 0.0
H3871 H 0.10422 0.19493 0.34902 0.0
H3872 H 0.12404 0.17927 0.34665 0.0
H3873 H 0.1158 0.1683 0.35021 0.0
H3874 H 0.12671 0.22328 0.34954 0.0
H3875 H 0.11301 0.21204 0.33139 0.0
H3876 H 0.09578 0.18375 0.35167 0.0
H3877 H 0.12229 0.23596 0.34505 0.0
H3878 H 0.10804 0.22487 0.32732 0.0
C3879 C 0.05045 0.84109 0.62763 0.0
C3880 C 0.0579 0.84191 0.63108 0.0
C3881 C 0.04758 0.84683 0.62245 0.0
C3882 C 0.05201 0.85362 0.62078 0.0
C3883 C 0.05947 0.85431 0.62428 0.0
C3884 C 0.06242 0.84849 0.62914 0.0
C3885 C 0.04889 0.86022 0.61584 0.0
C3886 C 0.04081 0.86185 0.61526 0.0
C3887 C 0.03809 0.86877 0.61157 0.0
C3888 C 0.04364 0.87434 0.60894 0.0
C3889 C 0.05171 0.87282 0.6096 0.0
C3890 C 0.05415 0.86548 0.61233 0.0
C3891 C 0.05771 0.8791 0.60861 0.0
C3892 C 0.05744 0.88459 0.60246 0.0
C3893 C 0.06377 0.8797 0.6142 0.0
C3894 C 0.06935 0.88562 0.61371 0.0
C3895 C 0.069 0.8912 0.6077 0.0
C3896 C 0.02948 0.87034 0.611 0.0
C3897 C 0.02418 0.86419 0.60948 0.0
C3898 C 0.02645 0.87793 0.61217 0.0
C3899 C 0.01835 0.87929 0.61196 0.0
C3900 C 0.01306 0.87312 0.6106 0.0
C3901 C 0.01609 0.86555 0.60933 0.0
C3902 C 0.06309 0.89059 0.60198 0.0
H3903 H 0.04674 0.83615 0.62908 0.0
H3904 H 0.04185 0.84596 0.61987 0.0
H3905 H 0.06307 0.85948 0.62356 0.0
H3906 H 0.06823 0.84929 0.63158 0.0
H3907 H 0.0366 0.85797 0.61801 0.0
H3908 H 0.06035 0.86414 0.61213 0.0
H3909 H 0.04171 0.87991 0.60659 0.0
H3910 H 0.05288 0.88428 0.59806 0.0
H3911 H 0.0641 0.87569 0.61912 0.0
H3912 H 0.07385 0.88595 0.61818 0.0
H3913 H 0.02628 0.85829 0.60847 0.0
H3914 H 0.0303 0.8828 0.61347 0.0
H3915 H 0.06271 0.89487 0.5973 0.0
H3916 H 0.0122 0.86062 0.60844 0.0
H3917 H 0.01622 0.88519 0.61296 0.0
C3918 C 0.40249 0.82847 0.8447 0.0
C3919 C 0.40322 0.83132 0.85241 0.0
C3920 C 0.3975 0.82212 0.84308 0.0
C3921 C 0.3931 0.81866 0.84913 0.0
C3922 C 0.39387 0.82155 0.8568 0.0
C3923 C 0.39886 0.82779 0.85842 0.0
C3924 C 0.38741 0.81225 0.84765 0.0
C3925 C 0.38966 0.80518 0.84407 0.0
C3926 C 0.38451 0.79869 0.84401 0.0
C3927 C 0.37708 0.79944 0.84759 0.0
C3928 C 0.37479 0.80649 0.85119 0.0
C3929 C 0.3799 0.81292 0.85086 0.0
C3930 C 0.36742 0.80711 0.85588 0.0
C3931 C 0.36054 0.8031 0.85371 0.0
C3932 C 0.36727 0.81176 0.8627 0.0
C3933 C 0.36042 0.81263 0.86704 0.0
C3934 C 0.35353 0.8087 0.86487 0.0
C3935 C 0.38713 0.79094 0.84084 0.0
C3936 C 0.3919 0.79046 0.83411 0.0
C3937 C 0.38503 0.78394 0.84467 0.0
C3938 C 0.38769 0.77669 0.84195 0.0
C3939 C 0.39256 0.7762 0.83532 0.0
C3940 C 0.39456 0.78317 0.83137 0.0
C3941 C 0.35369 0.80383 0.8582 0.0
H3942 H 0.40584 0.83109 0.83998 0.0
H3943 H 0.39697 0.82001 0.83711 0.0
H3944 H 0.39059 0.81896 0.86159 0.0
H3945 H 0.39928 0.8299 0.8644 0.0
H3946 H 0.39557 0.8046 0.8418 0.0
H3947 H 0.37815 0.81848 0.85338 0.0
H3948 H 0.37316 0.79445 0.84777 0.0
H3949 H 0.3604 0.79946 0.84851 0.0
H3950 H 0.37248 0.81473 0.86477 0.0
H3951 H 0.36052 0.81645 0.87211 0.0
H3952 H 0.39355 0.7957 0.83093 0.0
H3953 H 0.38153 0.78404 0.84996 0.0
H3954 H 0.34855 0.80053 0.85647 0.0
H3955 H 0.39815 0.783 0.82613 0.0
H3956 H 0.38611 0.77147 0.8452 0.0
C3957 C 0.45671 0.16799 0.12688 0.0
C3958 C 0.44968 0.16693 0.13104 0.0
C3959 C 0.45974 0.16191 0.12223 0.0
C3960 C 0.45583 0.15464 0.12179 0.0
C3961 C 0.44891 0.15361 0.12621 0.0
C3962 C 0.44585 0.15969 0.13068 0.0
C3963 C 0.45884 0.14799 0.11696 0.0
C3964 C 0.46688 0.14635 0.11629 0.0
C3965 C 0.4695 0.13936 0.11271 0.0
C3966 C 0.46389 0.13373 0.11034 0.0
C3967 C 0.45579 0.1353 0.11102 0.0
C3968 C 0.45348 0.14274 0.11364 0.0
C3969 C 0.44964 0.12911 0.10991 0.0
C3970 C 0.4506 0.12276 0.1047 0.0
C3971 C 0.44274 0.1294 0.11445 0.0
C3972 C 0.43703 0.12363 0.11385 0.0
C3973 C 0.43817 0.1171 0.10902 0.0
C3974 C 0.47811 0.13785 0.11192 0.0
C3975 C 0.48325 0.14406 0.11011 0.0
C3976 C 0.48133 0.13036 0.11324 0.0
C3977 C 0.48947 0.1292 0.11308 0.0
C3978 C 0.49459 0.1355 0.11166 0.0
C3979 C 0.49136 0.1429 0.10997 0.0
C3980 C 0.44492 0.11679 0.10428 0.0
H3981 H 0.45978 0.17355 0.12714 0.0
H3982 H 0.46507 0.16292 0.11894 0.0
H3983 H 0.44587 0.14804 0.12633 0.0
H3984 H 0.44051 0.15869 0.13398 0.0
H3985 H 0.4711 0.15034 0.11885 0.0
H3986 H 0.44734 0.14434 0.1135 0.0
H3987 H 0.46582 0.12811 0.10812 0.0
H3988 H 0.45575 0.12233 0.10102 0.0
H3989 H 0.44175 0.13396 0.11874 0.0
H3990 H 0.4318 0.12416 0.11741 0.0
H3991 H 0.481 0.14986 0.10885 0.0
H3992 H 0.47759 0.12544 0.1147 0.0
H3993 H 0.44592 0.11183 0.10046 0.0
H3994 H 0.49513 0.14783 0.10863 0.0
H3995 H 0.49178 0.12343 0.1144 0.0
C3996 C 0.14909 0.80266 0.14278 0.0
C3997 C 0.15376 0.80937 0.1437 0.0
C3998 C 0.14239 0.80162 0.14739 0.0
C3999 C 0.14017 0.80733 0.15291 0.0
C4000 C 0.14494 0.81399 0.15389 0.0
C4001 C 0.15169 0.81498 0.14936 0.0
C4002 C 0.13263 0.80662 0.1572 0.0
C4003 C 0.13027 0.79944 0.16047 0.0
C4004 C 0.12278 0.79856 0.16386 0.0
C4005 C 0.11768 0.80507 0.164 0.0
C4006 C 0.12005 0.81233 0.16088 0.0
C4007 C 0.12753 0.81305 0.15756 0.0
C4008 C 0.11456 0.81905 0.16036 0.0
C4009 C 0.10716 0.81811 0.1569 0.0
C4010 C 0.11706 0.82662 0.16244 0.0
C4011 C 0.11239 0.83315 0.16078 0.0
C4012 C 0.10517 0.83228 0.15689 0.0
C4013 C 0.12016 0.79072 0.16678 0.0
C4014 C 0.12237 0.78387 0.16275 0.0
C4015 C 0.11531 0.78998 0.17343 0.0
C4016 C 0.11264 0.78259 0.17588 0.0
C4017 C 0.11476 0.7758 0.17173 0.0
C4018 C 0.11973 0.77653 0.16521 0.0
C4019 C 0.10255 0.82465 0.15511 0.0
H4020 H 0.15061 0.79827 0.13846 0.0
H4021 H 0.13879 0.79647 0.14644 0.0
H4022 H 0.1434 0.81847 0.15812 0.0
H4023 H 0.15522 0.82021 0.15014 0.0
H4024 H 0.1343 0.79453 0.16034 0.0
H4025 H 0.12922 0.81854 0.15483 0.0
H4026 H 0.11181 0.80446 0.16635 0.0
H4027 H 0.10515 0.81235 0.15512 0.0
H4028 H 0.12274 0.8275 0.16514 0.0
H4029 H 0.11457 0.83891 0.16232 0.0
H4030 H 0.12596 0.78417 0.15753 0.0
H4031 H 0.11355 0.79511 0.17673 0.0
H4032 H 0.09715 0.82373 0.1519 0.0
H4033 H 0.12149 0.7714 0.1619 0.0
H4034 H 0.10873 0.78222 0.18088 0.0
C4035 C 0.45509 0.83964 0.38144 0.0
C4036 C 0.44921 0.84124 0.3759 0.0
C4037 C 0.45778 0.8456 0.38643 0.0
C4038 C 0.45452 0.85318 0.386 0.0
C4039 C 0.44856 0.85465 0.3805 0.0
C4040 C 0.44594 0.84876 0.37553 0.0
C4041 C 0.45736 0.85971 0.39101 0.0
C4042 C 0.4654 0.86115 0.39196 0.0
C4043 C 0.46807 0.86802 0.3957 0.0
C4044 C 0.46248 0.87359 0.39824 0.0
C4045 C 0.45438 0.87227 0.39722 0.0
C4046 C 0.45196 0.86508 0.39404 0.0
C4047 C 0.44842 0.87854 0.39871 0.0
C4048 C 0.4495 0.88431 0.40453 0.0
C4049 C 0.44164 0.87898 0.39398 0.0
C4050 C 0.43613 0.8849 0.39504 0.0
C4051 C 0.43732 0.89071 0.40069 0.0
C4052 C 0.47669 0.86956 0.39636 0.0
C4053 C 0.48201 0.86329 0.39725 0.0
C4054 C 0.47973 0.87722 0.39569 0.0
C4055 C 0.48784 0.87852 0.39566 0.0
C4056 C 0.49305 0.8722 0.3962 0.0
C4057 C 0.4901 0.86459 0.39708 0.0
C4058 C 0.44404 0.8904 0.40544 0.0
H4059 H 0.4577 0.83386 0.38177 0.0
H4060 H 0.46237 0.8443 0.39062 0.0
H4061 H 0.44602 0.86045 0.37989 0.0
H4062 H 0.4414 0.8501 0.37128 0.0
H4063 H 0.46955 0.85711 0.38936 0.0
H4064 H 0.44577 0.86374 0.3936 0.0
H4065 H 0.46445 0.87904 0.40081 0.0
H4066 H 0.45456 0.88418 0.40835 0.0
H4067 H 0.44065 0.87491 0.38921 0.0
H4068 H 0.43106 0.88514 0.39121 0.0
H4069 H 0.47995 0.85733 0.39798 0.0
H4070 H 0.47591 0.88221 0.39486 0.0
H4071 H 0.44508 0.89489 0.4098 0.0
H4072 H 0.49406 0.85965 0.39752 0.0
H4073 H 0.49004 0.88444 0.39493 0.0
C4074 C 0.40219 0.17868 0.66227 0.0
C4075 C 0.40268 0.17587 0.65452 0.0
C4076 C 0.39768 0.18536 0.664 0.0
C4077 C 0.39358 0.18925 0.658 0.0
C4078 C 0.39435 0.18659 0.65025 0.0
C4079 C 0.39883 0.18001 0.64854 0.0
C4080 C 0.38788 0.19559 0.65968 0.0
C4081 C 0.39004 0.20253 0.66355 0.0
C4082 C 0.3847 0.20886 0.66415 0.0
C4083 C 0.37712 0.20799 0.66087 0.0
C4084 C 0.37503 0.20114 0.65682 0.0
C4085 C 0.38035 0.19491 0.65651 0.0
C4086 C 0.36768 0.20063 0.65218 0.0
C4087 C 0.36042 0.20301 0.65527 0.0
C4088 C 0.36795 0.19756 0.64453 0.0
C4089 C 0.36114 0.19676 0.64011 0.0
C4090 C 0.35387 0.19907 0.64319 0.0
C4091 C 0.38721 0.21659 0.66753 0.0
C4092 C 0.39292 0.21705 0.6735 0.0
C4093 C 0.38411 0.22366 0.66457 0.0
C4094 C 0.38662 0.2309 0.66744 0.0
C4095 C 0.39239 0.23134 0.67328 0.0
C4096 C 0.39554 0.22434 0.67628 0.0
C4097 C 0.35356 0.20218 0.65082 0.0
H4098 H 0.40505 0.17557 0.66702 0.0
H4099 H 0.39712 0.18727 0.67003 0.0
H4100 H 0.39132 0.18953 0.6455 0.0
H4101 H 0.39921 0.17808 0.6425 0.0
H4102 H 0.396 0.20312 0.66565 0.0
H4103 H 0.3787 0.18955 0.65353 0.0
H4104 H 0.37291 0.21272 0.66119 0.0
H4105 H 0.36004 0.20536 0.66115 0.0
H4106 H 0.37346 0.19578 0.64192 0.0
H4107 H 0.36154 0.19421 0.63431 0.0
H4108 H 0.39541 0.21178 0.67603 0.0
H4109 H 0.37992 0.22369 0.65981 0.0
H4110 H 0.34801 0.20399 0.65332 0.0
H4111 H 0.40002 0.2245 0.68077 0.0
H4112 H 0.38424 0.2362 0.66485 0.0
C4113 C 0.05244 0.16779 0.88199 0.0
C4114 C 0.05872 0.16627 0.87687 0.0
C4115 C 0.04924 0.16172 0.88656 0.0
C4116 C 0.05225 0.15405 0.886 0.0
C4117 C 0.05835 0.15257 0.88064 0.0
C4118 C 0.06155 0.15859 0.87618 0.0
C4119 C 0.04918 0.14745 0.89083 0.0
C4120 C 0.04112 0.14622 0.8919 0.0
C4121 C 0.03827 0.13911 0.89512 0.0
C4122 C 0.04377 0.13326 0.89728 0.0
C4123 C 0.05189 0.13456 0.89646 0.0
C4124 C 0.05446 0.14183 0.89363 0.0
C4125 C 0.05782 0.12824 0.89777 0.0
C4126 C 0.05707 0.12271 0.90386 0.0
C4127 C 0.06439 0.12774 0.89278 0.0
C4128 C 0.07013 0.12206 0.89394 0.0
C4129 C 0.06942 0.11658 0.90002 0.0
C4130 C 0.02959 0.13761 0.89567 0.0
C4131 C 0.02437 0.14118 0.89034 0.0
C4132 C 0.02641 0.13259 0.90145 0.0
C4133 C 0.0183 0.1312 0.90184 0.0
C4134 C 0.01316 0.13489 0.89656 0.0
C4135 C 0.0163 0.13991 0.89084 0.0
C4136 C 0.0628 0.1169 0.90494 0.0
H4137 H 0.05013 0.17367 0.88256 0.0
H4138 H 0.04453 0.16304 0.8906 0.0
H4139 H 0.06064 0.1467 0.87983 0.0
H4140 H 0.06625 0.15723 0.87212 0.0
H4141 H 0.03711 0.15074 0.89 0.0
H4142 H 0.06068 0.14304 0.89326 0.0
H4143 H 0.04174 0.12756 0.89922 0.0
H4144 H 0.05211 0.12292 0.90782 0.0
H4145 H 0.06507 0.13166 0.88783 0.0
H4146 H 0.07503 0.1218 0.8899 0.0
H4147 H 0.02647 0.14485 0.88562 0.0
H4148 H 0.03015 0.12981 0.90575 0.0
H4149 H 0.06209 0.11267 0.90963 0.0
H4150 H 0.0125 0.14276 0.88662 0.0
H4151 H 0.01603 0.12737 0.90637 0.0
C4152 C 0.34473 0.10407 0.17968 0.0
C4153 C 0.35209 0.10417 0.17599 0.0
C4154 C 0.34325 0.10902 0.18609 0.0
C4155 C 0.34911 0.11415 0.18881 0.0
C4156 C 0.35649 0.11409 0.18512 0.0
C4157 C 0.35795 0.10919 0.17878 0.0
C4158 C 0.34767 0.11979 0.1953 0.0
C4159 C 0.34421 0.1175 0.20242 0.0
C4160 C 0.34384 0.12275 0.20883 0.0
C4161 C 0.3472 0.1303 0.20796 0.0
C4162 C 0.35084 0.13256 0.20091 0.0
C4163 C 0.35059 0.12742 0.19453 0.0
C4164 C 0.35548 0.13996 0.20024 0.0
C4165 C 0.35331 0.14688 0.2042 0.0
C4166 C 0.3623 0.14009 0.19556 0.0
C4167 C 0.36662 0.14695 0.1946 0.0
C4168 C 0.36439 0.15381 0.19847 0.0
C4169 C 0.34047 0.12019 0.21657 0.0
C4170 C 0.3345 0.11447 0.21699 0.0
C4171 C 0.34335 0.1233 0.22367 0.0
C4172 C 0.34041 0.12079 0.23089 0.0
C4173 C 0.3346 0.11498 0.23127 0.0
C4174 C 0.33168 0.11183 0.22425 0.0
C4175 C 0.35777 0.15374 0.20336 0.0
H4176 H 0.34016 0.10018 0.1776 0.0
H4177 H 0.33751 0.10895 0.18881 0.0
H4178 H 0.36119 0.11786 0.18716 0.0
H4179 H 0.36368 0.10929 0.17604 0.0
H4180 H 0.3422 0.11151 0.20305 0.0
H4181 H 0.35296 0.12925 0.18893 0.0
H4182 H 0.34716 0.13437 0.21281 0.0
H4183 H 0.3481 0.14705 0.20782 0.0
H4184 H 0.36441 0.13485 0.19266 0.0
H4185 H 0.37177 0.14686 0.19088 0.0
H4186 H 0.33198 0.112 0.21172 0.0
H4187 H 0.3481 0.12751 0.22374 0.0
H4188 H 0.35598 0.15902 0.2064 0.0
H4189 H 0.32721 0.10732 0.22438 0.0
H4190 H 0.34291 0.12319 0.23621 0.0
C4191 C 0.16707 0.12656 0.45624 0.0
C4192 C 0.16541 0.13194 0.45021 0.0
C4193 C 0.16114 0.12159 0.4591 0.0
C4194 C 0.15353 0.12189 0.45591 0.0
C4195 C 0.152 0.12726 0.44983 0.0
C4196 C 0.15786 0.13216 0.447 0.0
C4197 C 0.14707 0.11676 0.4588 0.0
C4198 C 0.14581 0.11549 0.46686 0.0
C4199 C 0.13903 0.11151 0.46954 0.0
C4200 C 0.13349 0.10889 0.46395 0.0
C4201 C 0.13467 0.11026 0.45591 0.0
C4202 C 0.1416 0.11385 0.45342 0.0
C4203 C 0.12835 0.10905 0.45007 0.0
C4204 C 0.12463 0.10178 0.44905 0.0
C4205 C 0.1262 0.11534 0.44521 0.0
C4206 C 0.12049 0.11443 0.43946 0.0
C4207 C 0.11678 0.10716 0.4383 0.0
C4208 C 0.13749 0.11075 0.47817 0.0
C4209 C 0.14372 0.10982 0.48353 0.0
C4210 C 0.12981 0.11135 0.48119 0.0
C4211 C 0.12844 0.11127 0.4893 0.0
C4212 C 0.13471 0.11058 0.49457 0.0
C4213 C 0.14234 0.10977 0.49163 0.0
C4214 C 0.11897 0.10081 0.44315 0.0
H4215 H 0.17287 0.12632 0.45881 0.0
H4216 H 0.16252 0.11751 0.46377 0.0
H4217 H 0.14619 0.12782 0.44733 0.0
H4218 H 0.15646 0.13625 0.44233 0.0
H4219 H 0.14986 0.11802 0.47103 0.0
H4220 H 0.14254 0.11471 0.44719 0.0
H4221 H 0.12813 0.10604 0.46583 0.0
H4222 H 0.12626 0.09682 0.45268 0.0
H4223 H 0.12892 0.12105 0.44591 0.0
H4224 H 0.11889 0.11951 0.43599 0.0
H4225 H 0.14969 0.10919 0.48148 0.0
H4226 H 0.12484 0.11222 0.47733 0.0
H4227 H 0.11641 0.09506 0.44232 0.0
H4228 H 0.14726 0.10926 0.49562 0.0
H4229 H 0.12251 0.11196 0.49146 0.0
C4230 C 0.14337 0.85739 0.70509 0.0
C4231 C 0.14333 0.85354 0.6978 0.0
C4232 C 0.14779 0.86423 0.70616 0.0
C4233 C 0.15225 0.86735 0.69996 0.0
C4234 C 0.15233 0.86337 0.69274 0.0
C4235 C 0.14788 0.85661 0.69166 0.0
C4236 C 0.15641 0.87499 0.70078 0.0
C4237 C 0.16026 0.87707 0.70774 0.0
C4238 C 0.16387 0.88447 0.70855 0.0
C4239 C 0.16399 0.8896 0.70205 0.0
C4240 C 0.16017 0.8876 0.69497 0.0
C4241 C 0.15624 0.88036 0.69457 0.0
C4242 C 0.15974 0.89309 0.68811 0.0
C4243 C 0.1598 0.90129 0.6891 0.0
C4244 C 0.15869 0.89013 0.68046 0.0
C4245 C 0.15687 0.89511 0.67423 0.0
C4246 C 0.15643 0.90326 0.67532 0.0
C4247 C 0.16699 0.88697 0.71636 0.0
C4248 C 0.16298 0.8848 0.72325 0.0
C4249 C 0.1737 0.89175 0.71706 0.0
C4250 C 0.17621 0.89441 0.72445 0.0
C4251 C 0.17205 0.89235 0.73127 0.0
C4252 C 0.16549 0.88742 0.73057 0.0
C4253 C 0.15834 0.9063 0.68275 0.0
H4254 H 0.13993 0.85515 0.70993 0.0
H4255 H 0.14752 0.86719 0.71177 0.0
H4256 H 0.15578 0.86554 0.68787 0.0
H4257 H 0.14786 0.85387 0.68593 0.0
H4258 H 0.16043 0.87292 0.71255 0.0
H4259 H 0.15273 0.87895 0.68948 0.0
H4260 H 0.16686 0.89523 0.70259 0.0
H4261 H 0.16066 0.90389 0.69482 0.0
H4262 H 0.15901 0.88391 0.67927 0.0
H4263 H 0.15552 0.89248 0.66861 0.0
H4264 H 0.15772 0.88127 0.72299 0.0
H4265 H 0.17699 0.89348 0.71192 0.0
H4266 H 0.15852 0.91256 0.68376 0.0
H4267 H 0.16218 0.88571 0.73572 0.0
H4268 H 0.18123 0.89827 0.72479 0.0
C4269 C 0.33853 0.88196 0.95444 0.0
C4270 C 0.34047 0.87596 0.94912 0.0
C4271 C 0.34443 0.88664 0.95776 0.0
C4272 C 0.35231 0.88541 0.95571 0.0
C4273 C 0.35422 0.87927 0.95059 0.0
C4274 C 0.34839 0.8746 0.94736 0.0
C4275 C 0.35867 0.89056 0.95854 0.0
C4276 C 0.36008 0.89163 0.96655 0.0
C4277 C 0.36703 0.89528 0.96913 0.0
C4278 C 0.37262 0.89773 0.96353 0.0
C4279 C 0.37121 0.8967 0.95546 0.0
C4280 C 0.36403 0.89348 0.95308 0.0
C4281 C 0.3774 0.89817 0.94946 0.0
C4282 C 0.38287 0.90431 0.95024 0.0
C4283 C 0.37795 0.8932 0.94288 0.0
C4284 C 0.38368 0.89438 0.93721 0.0
C4285 C 0.38917 0.90041 0.93804 0.0
C4286 C 0.36869 0.89588 0.97768 0.0
C4287 C 0.36263 0.89766 0.98297 0.0
C4288 C 0.37621 0.89425 0.98067 0.0
C4289 C 0.37754 0.8941 0.98876 0.0
C4290 C 0.37138 0.89553 0.99403 0.0
C4291 C 0.36396 0.89751 0.99105 0.0
C4292 C 0.38874 0.90539 0.94459 0.0
H4293 H 0.33246 0.88317 0.95586 0.0
H4294 H 0.34284 0.89135 0.96171 0.0
H4295 H 0.36027 0.87811 0.94902 0.0
H4296 H 0.3501 0.86992 0.94342 0.0
H4297 H 0.35599 0.88918 0.97076 0.0
H4298 H 0.36272 0.89286 0.9469 0.0
H4299 H 0.37813 0.90022 0.96546 0.0
H4300 H 0.3826 0.90829 0.95518 0.0
H4301 H 0.37409 0.88821 0.94216 0.0
H4302 H 0.384 0.89036 0.9323 0.0
H4303 H 0.35681 0.89912 0.98087 0.0
H4304 H 0.381 0.89276 0.97678 0.0
H4305 H 0.39294 0.91009 0.94533 0.0
H4306 H 0.35916 0.89887 0.99498 0.0
H4307 H 0.38332 0.89257 0.9909 0.0
C4308 C 0.34588 0.90425 0.32735 0.0
C4309 C 0.35288 0.90313 0.3316 0.0
C4310 C 0.34391 0.89921 0.32113 0.0
C4311 C 0.34892 0.89297 0.31907 0.0
C4312 C 0.35591 0.89196 0.32335 0.0
C4313 C 0.35778 0.89686 0.32956 0.0
C4314 C 0.34715 0.88744 0.31253 0.0
C4315 C 0.34402 0.88996 0.30531 0.0
C4316 C 0.34373 0.88481 0.29881 0.0
C4317 C 0.34692 0.87719 0.29961 0.0
C4318 C 0.35013 0.87468 0.30676 0.0
C4319 C 0.34959 0.87963 0.31326 0.0
C4320 C 0.35483 0.86732 0.30742 0.0
C4321 C 0.35286 0.86046 0.30328 0.0
C4322 C 0.36154 0.86722 0.31225 0.0
C4323 C 0.36596 0.86044 0.31317 0.0
C4324 C 0.36394 0.85358 0.30914 0.0
C4325 C 0.34066 0.88752 0.29104 0.0
C4326 C 0.33429 0.89277 0.29053 0.0
C4327 C 0.34415 0.88492 0.28402 0.0
C4328 C 0.34134 0.88741 0.27675 0.0
C4329 C 0.33498 0.89261 0.27624 0.0
C4330 C 0.33152 0.89532 0.28321 0.0
C4331 C 0.3574 0.85365 0.30412 0.0
H4332 H 0.34202 0.9091 0.32874 0.0
H4333 H 0.33849 0.90016 0.31796 0.0
H4334 H 0.36007 0.88741 0.32185 0.0
H4335 H 0.36317 0.89576 0.33275 0.0
H4336 H 0.34223 0.89601 0.30463 0.0
H4337 H 0.35154 0.8775 0.31893 0.0
H4338 H 0.34709 0.87328 0.29462 0.0
H4339 H 0.34775 0.8603 0.29952 0.0
H4340 H 0.36347 0.87244 0.31531 0.0
H4341 H 0.37105 0.86057 0.31697 0.0
H4342 H 0.3314 0.89486 0.29578 0.0
H4343 H 0.34922 0.88111 0.2841 0.0
H4344 H 0.35572 0.84839 0.30098 0.0
H4345 H 0.32663 0.89937 0.283 0.0
H4346 H 0.34431 0.88542 0.2715 0.0
C4347 C 0.33954 0.12637 0.55119 0.0
C4348 C 0.34114 0.1317 0.55727 0.0
C4349 C 0.34547 0.12139 0.54837 0.0
C4350 C 0.35303 0.12161 0.55169 0.0
C4351 C 0.35451 0.12692 0.55782 0.0
C4352 C 0.34866 0.13186 0.56058 0.0
C4353 C 0.35957 0.1166 0.5488 0.0
C4354 C 0.36116 0.11578 0.54078 0.0
C4355 C 0.36819 0.11227 0.53819 0.0
C4356 C 0.37385 0.11002 0.54384 0.0
C4357 C 0.37232 0.11081 0.55196 0.0
C4358 C 0.36487 0.11351 0.55423 0.0
C4359 C 0.37853 0.1096 0.55811 0.0
C4360 C 0.38512 0.10474 0.55689 0.0
C4361 C 0.37807 0.1137 0.56529 0.0
C4362 C 0.38383 0.11295 0.571 0.0
C4363 C 0.39054 0.10841 0.56966 0.0
C4364 C 0.36972 0.11147 0.52959 0.0
C4365 C 0.36353 0.10967 0.52442 0.0
C4366 C 0.37722 0.1128 0.52638 0.0
C4367 C 0.3784 0.11269 0.51824 0.0
C4368 C 0.3721 0.1113 0.51311 0.0
C4369 C 0.3647 0.1096 0.51631 0.0
C4370 C 0.3911 0.10424 0.56255 0.0
H4371 H 0.33377 0.12618 0.54853 0.0
H4372 H 0.34416 0.11736 0.54364 0.0
H4373 H 0.36029 0.1274 0.56041 0.0
H4374 H 0.35003 0.13589 0.56529 0.0
H4375 H 0.35709 0.11823 0.53656 0.0
H4376 H 0.36324 0.11361 0.56036 0.0
H4377 H 0.37945 0.10781 0.54189 0.0
H4378 H 0.38576 0.1014 0.55155 0.0
H4379 H 0.3734 0.1178 0.56653 0.0
H4380 H 0.38311 0.11617 0.57643 0.0
H4381 H 0.35772 0.10839 0.52665 0.0
H4382 H 0.38214 0.11426 0.53012 0.0
H4383 H 0.39625 0.10079 0.56121 0.0
H4384 H 0.35977 0.1083 0.51252 0.0
H4385 H 0.38417 0.11401 0.51594 0.0
C4386 C 0.14255 0.14887 0.80223 0.0
C4387 C 0.14313 0.15333 0.80914 0.0
C4388 C 0.14714 0.14215 0.80122 0.0
C4389 C 0.15237 0.13975 0.80712 0.0
C4390 C 0.15314 0.14438 0.8139 0.0
C4391 C 0.14858 0.1511 0.81489 0.0
C4392 C 0.15662 0.13218 0.8065 0.0
C4393 C 0.16025 0.12987 0.79951 0.0
C4394 C 0.16397 0.12253 0.79889 0.0
C4395 C 0.16423 0.11759 0.80554 0.0
C4396 C 0.16052 0.11978 0.81262 0.0
C4397 C 0.15667 0.12707 0.81292 0.0
C4398 C 0.16007 0.11436 0.81954 0.0
C4399 C 0.16001 0.10616 0.8186 0.0
C4400 C 0.15906 0.11739 0.82717 0.0
C4401 C 0.15722 0.11248 0.83345 0.0
C4402 C 0.15667 0.10432 0.8324 0.0
C4403 C 0.16714 0.11988 0.79118 0.0
C4404 C 0.163 0.12155 0.78424 0.0
C4405 C 0.17416 0.11558 0.79063 0.0
C4406 C 0.17695 0.11301 0.78333 0.0
C4407 C 0.17272 0.1146 0.77641 0.0
C4408 C 0.16574 0.11895 0.77698 0.0
C4409 C 0.1585 0.10121 0.82498 0.0
H4410 H 0.13848 0.15055 0.79765 0.0
H4411 H 0.1464 0.13869 0.79595 0.0
H4412 H 0.15719 0.14272 0.81851 0.0
H4413 H 0.14916 0.15444 0.82026 0.0
H4414 H 0.16019 0.13383 0.79453 0.0
H4415 H 0.15334 0.1287 0.81807 0.0
H4416 H 0.16715 0.11198 0.8051 0.0
H4417 H 0.16079 0.1035 0.8129 0.0
H4418 H 0.15946 0.12362 0.82832 0.0
H4419 H 0.15593 0.11514 0.83906 0.0
H4420 H 0.15749 0.1247 0.78442 0.0
H4421 H 0.17757 0.11429 0.79583 0.0
H4422 H 0.15856 0.09494 0.82401 0.0
H4423 H 0.16227 0.1202 0.77182 0.0
H4424 H 0.18244 0.10985 0.7831 0.0
C4425 C 0.16762 0.88263 0.05354 0.0
C4426 C 0.16563 0.87602 0.05807 0.0
C4427 C 0.16173 0.88729 0.05015 0.0
C4428 C 0.1538 0.88543 0.05135 0.0
C4429 C 0.15185 0.87871 0.05566 0.0
C4430 C 0.15768 0.87404 0.05894 0.0
C4431 C 0.14741 0.89065 0.04869 0.0
C4432 C 0.14602 0.89203 0.04071 0.0
C4433 C 0.13917 0.89598 0.03822 0.0
C4434 C 0.13369 0.89841 0.04398 0.0
C4435 C 0.13498 0.89689 0.05201 0.0
C4436 C 0.14203 0.89333 0.05425 0.0
C4437 C 0.12878 0.89826 0.05806 0.0
C4438 C 0.12358 0.90466 0.05761 0.0
C4439 C 0.12794 0.89295 0.06434 0.0
C4440 C 0.12216 0.894 0.07001 0.0
C4441 C 0.11691 0.90029 0.06951 0.0
C4442 C 0.13748 0.89691 0.02962 0.0
C4443 C 0.14363 0.8976 0.02413 0.0
C4444 C 0.12973 0.89676 0.02675 0.0
C4445 C 0.12821 0.89703 0.01869 0.0
C4446 C 0.13438 0.89722 0.01322 0.0
C4447 C 0.14211 0.89767 0.01606 0.0
C4448 C 0.11768 0.90565 0.06328 0.0
H4449 H 0.17369 0.88437 0.05284 0.0
H4450 H 0.16335 0.89249 0.04686 0.0
H4451 H 0.14577 0.87713 0.05661 0.0
H4452 H 0.15593 0.86891 0.06225 0.0
H4453 H 0.15008 0.88961 0.03647 0.0
H4454 H 0.14327 0.8923 0.0604 0.0
H4455 H 0.12831 0.90126 0.04222 0.0
H4456 H 0.12407 0.90892 0.05293 0.0
H4457 H 0.1316 0.88779 0.0648 0.0
H4458 H 0.12162 0.88969 0.07466 0.0
H4459 H 0.14967 0.89797 0.02604 0.0
H4460 H 0.12479 0.89617 0.03067 0.0
H4461 H 0.11374 0.9106 0.06279 0.0
H4462 H 0.14702 0.89787 0.01204 0.0
H4463 H 0.12217 0.89698 0.01676 0.0
C4464 C 0.17958 0.34447 0.10414 0.0
C4465 C 0.17529 0.35145 0.10501 0.0
C4466 C 0.18615 0.34301 0.10893 0.0
C4467 C 0.1885 0.34856 0.11457 0.0
C4468 C 0.18433 0.35566 0.11511 0.0
C4469 C 0.17779 0.35704 0.11047 0.0
C4470 C 0.1951 0.34712 0.12012 0.0
C4471 C 0.20227 0.34384 0.11772 0.0
C4472 C 0.20878 0.34369 0.12287 0.0
C4473 C 0.20799 0.34706 0.1304 0.0
C4474 C 0.20087 0.35042 0.13282 0.0
C4475 C 0.19439 0.3499 0.12782 0.0
C4476 C 0.2002 0.35513 0.14016 0.0
C4477 C 0.20423 0.35308 0.14707 0.0
C4478 C 0.19544 0.36189 0.14022 0.0
C4479 C 0.19448 0.36628 0.14702 0.0
C4480 C 0.19839 0.36418 0.15393 0.0
C4481 C 0.21655 0.34064 0.12018 0.0
C4482 C 0.2171 0.33412 0.11512 0.0
C4483 C 0.22354 0.3444 0.1225 0.0
C4484 C 0.23081 0.34181 0.11978 0.0
C4485 C 0.2313 0.33542 0.11465 0.0
C4486 C 0.22441 0.33154 0.11238 0.0
C4487 C 0.20335 0.3576 0.15389 0.0
H4488 H 0.17777 0.3401 0.09991 0.0
H4489 H 0.18925 0.3375 0.10835 0.0
H4490 H 0.18611 0.36022 0.11916 0.0
H4491 H 0.17467 0.36254 0.11112 0.0
H4492 H 0.20291 0.34181 0.11174 0.0
H4493 H 0.18875 0.35203 0.12982 0.0
H4494 H 0.21298 0.34728 0.13431 0.0
H4495 H 0.20792 0.34792 0.14726 0.0
H4496 H 0.19247 0.36388 0.13497 0.0
H4497 H 0.19072 0.37141 0.14686 0.0
H4498 H 0.21187 0.33103 0.11326 0.0
H4499 H 0.22341 0.34953 0.12622 0.0
H4500 H 0.2064 0.35585 0.15918 0.0
H4501 H 0.22468 0.32664 0.10835 0.0
H4502 H 0.23606 0.34494 0.12151 0.0
C4503 C 0.67887 0.16351 0.90289 0.0
C4504 C 0.67591 0.15584 0.90353 0.0
C4505 C 0.68525 0.16509 0.89791 0.0
C4506 C 0.6886 0.15903 0.89344 0.0
C4507 C 0.68561 0.15139 0.89416 0.0
C4508 C 0.67936 0.14981 0.89916 0.0
C4509 C 0.69497 0.16051 0.88769 0.0
C4510 C 0.70206 0.1641 0.88985 0.0
C4511 C 0.70848 0.16419 0.8846 0.0
C4512 C 0.70762 0.16065 0.87716 0.0
C4513 C 0.70056 0.15701 0.87499 0.0
C4514 C 0.69421 0.1573 0.88018 0.0
C4515 C 0.6999 0.15227 0.86768 0.0
C4516 C 0.70359 0.15456 0.86065 0.0
C4517 C 0.6955 0.14528 0.86774 0.0
C4518 C 0.69458 0.14086 0.86095 0.0
C4519 C 0.69816 0.14319 0.85394 0.0
C4520 C 0.71631 0.16719 0.88715 0.0
C4521 C 0.71704 0.17387 0.89196 0.0
C4522 C 0.72318 0.16316 0.88498 0.0
C4523 C 0.73051 0.16564 0.88761 0.0
C4524 C 0.73123 0.17218 0.89254 0.0
C4525 C 0.72443 0.17634 0.89463 0.0
C4526 C 0.70275 0.15004 0.85384 0.0
H4527 H 0.67628 0.16823 0.90625 0.0
H4528 H 0.68744 0.17103 0.89742 0.0
H4529 H 0.68811 0.14659 0.89084 0.0
H4530 H 0.67715 0.14386 0.89956 0.0
H4531 H 0.70273 0.16635 0.89575 0.0
H4532 H 0.68864 0.15472 0.8785 0.0
H4533 H 0.71254 0.16049 0.87316 0.0
H4534 H 0.70699 0.15992 0.86037 0.0
H4535 H 0.6928 0.14314 0.87307 0.0
H4536 H 0.69112 0.13553 0.8612 0.0
H4537 H 0.71189 0.17715 0.89371 0.0
H4538 H 0.7229 0.1579 0.88144 0.0
H4539 H 0.70552 0.15198 0.84847 0.0
H4540 H 0.72479 0.18136 0.8985 0.0
H4541 H 0.73564 0.16231 0.88589 0.0
C4542 C 0.12579 0.4554 0.16829 0.0
C4543 C 0.13145 0.4496 0.16686 0.0
C4544 C 0.12098 0.45807 0.16217 0.0
C4545 C 0.12176 0.45491 0.15459 0.0
C4546 C 0.12745 0.44909 0.15325 0.0
C4547 C 0.13223 0.44647 0.15932 0.0
C4548 C 0.11689 0.45768 0.14792 0.0
C4549 C 0.11579 0.46569 0.14648 0.0
C4550 C 0.11236 0.46827 0.13943 0.0
C4551 C 0.11015 0.46269 0.13374 0.0
C4552 C 0.11113 0.4546 0.13515 0.0
C4553 C 0.11415 0.45222 0.14243 0.0
C4554 C 0.10971 0.44861 0.1289 0.0
C4555 C 0.10388 0.44961 0.12313 0.0
C4556 C 0.11444 0.44183 0.12856 0.0
C4557 C 0.11334 0.43622 0.12274 0.0
C4558 C 0.10761 0.43728 0.11696 0.0
C4559 C 0.11172 0.47683 0.13781 0.0
C4560 C 0.10929 0.48203 0.14373 0.0
C4561 C 0.11394 0.4799 0.13048 0.0
C4562 C 0.11397 0.488 0.12919 0.0
C4563 C 0.11168 0.49318 0.13516 0.0
C4564 C 0.10924 0.49013 0.14241 0.0
C4565 C 0.1029 0.44404 0.11717 0.0
H4566 H 0.12516 0.4579 0.17409 0.0
H4567 H 0.11665 0.46256 0.16336 0.0
H4568 H 0.12834 0.44666 0.14745 0.0
H4569 H 0.13662 0.44204 0.15811 0.0
H4570 H 0.11804 0.46994 0.15064 0.0
H4571 H 0.11466 0.44604 0.14379 0.0
H4572 H 0.10786 0.46467 0.12816 0.0
H4573 H 0.10007 0.45469 0.1232 0.0
H4574 H 0.11921 0.44091 0.13264 0.0
H4575 H 0.11719 0.43116 0.12258 0.0
H4576 H 0.10749 0.47985 0.14942 0.0
H4577 H 0.11593 0.47607 0.12583 0.0
H4578 H 0.09847 0.445 0.11272 0.0
H4579 H 0.10749 0.49402 0.14711 0.0
H4580 H 0.11586 0.49024 0.12355 0.0
C4581 C 0.82786 0.84443 0.40339 0.0
C4582 C 0.83219 0.85139 0.40252 0.0
C4583 C 0.82125 0.84303 0.39864 0.0
C4584 C 0.81891 0.84862 0.39303 0.0
C4585 C 0.82312 0.8557 0.39248 0.0
C4586 C 0.8297 0.85702 0.39709 0.0
C4587 C 0.81225 0.84727 0.38753 0.0
C4588 C 0.80506 0.84404 0.38999 0.0
C4589 C 0.79851 0.84405 0.38492 0.0
C4590 C 0.79924 0.84748 0.37741 0.0
C4591 C 0.80639 0.85071 0.3749 0.0
C4592 C 0.81291 0.85008 0.37984 0.0
C4593 C 0.80703 0.85536 0.36751 0.0
C4594 C 0.80271 0.85344 0.36075 0.0
C4595 C 0.81199 0.86197 0.36726 0.0
C4596 C 0.81283 0.86634 0.36042 0.0
C4597 C 0.80857 0.86442 0.35366 0.0
C4598 C 0.79073 0.84105 0.38762 0.0
C4599 C 0.79011 0.8342 0.39219 0.0
C4600 C 0.78383 0.8451 0.38564 0.0
C4601 C 0.77651 0.84235 0.38806 0.0
C4602 C 0.77586 0.83545 0.39252 0.0
C4603 C 0.78275 0.83144 0.39463 0.0
C4604 C 0.80342 0.85797 0.35392 0.0
H4605 H 0.82967 0.84002 0.40759 0.0
H4606 H 0.81812 0.83754 0.39922 0.0
H4607 H 0.82135 0.86028 0.38845 0.0
H4608 H 0.83284 0.86251 0.39643 0.0
H4609 H 0.80445 0.84194 0.39596 0.0
H4610 H 0.81857 0.85213 0.37778 0.0
H4611 H 0.79417 0.84782 0.3736 0.0
H4612 H 0.79883 0.84842 0.3607 0.0
H4613 H 0.81522 0.86385 0.37239 0.0
H4614 H 0.81687 0.87124 0.36045 0.0
H4615 H 0.7953 0.83092 0.39381 0.0
H4616 H 0.78406 0.85052 0.38234 0.0
H4617 H 0.79989 0.85644 0.34888 0.0
H4618 H 0.78244 0.82612 0.3981 0.0
H4619 H 0.77136 0.84576 0.38659 0.0
C4620 C 0.89724 0.06231 0.11562 0.0
C4621 C 0.89971 0.06995 0.11741 0.0
C4622 C 0.89693 0.05657 0.12144 0.0
C4623 C 0.89902 0.05837 0.12921 0.0
C4624 C 0.90183 0.06595 0.13092 0.0
C4625 C 0.9022 0.07168 0.12505 0.0
C4626 C 0.89744 0.05263 0.13558 0.0
C4627 C 0.89906 0.04462 0.13454 0.0
C4628 C 0.8965 0.03899 0.14005 0.0
C4629 C 0.89261 0.04166 0.14684 0.0
C4630 C 0.89108 0.04967 0.14807 0.0
C4631 C 0.89352 0.05509 0.14236 0.0
C4632 C 0.88636 0.05235 0.15494 0.0
C4633 C 0.8803 0.04763 0.15799 0.0
C4634 C 0.88756 0.05982 0.15824 0.0
C4635 C 0.88249 0.06271 0.164 0.0
C4636 C 0.8762 0.05813 0.16673 0.0
C4637 C 0.89732 0.03035 0.13849 0.0
C4638 C 0.8978 0.02744 0.13076 0.0
C4639 C 0.89714 0.02485 0.14467 0.0
C4640 C 0.89679 0.01681 0.14317 0.0
C4641 C 0.89698 0.01395 0.13544 0.0
C4642 C 0.89784 0.01937 0.12929 0.0
C4643 C 0.8754 0.05043 0.16391 0.0
H4644 H 0.89526 0.06088 0.10975 0.0
H4645 H 0.89465 0.05083 0.11995 0.0
H4646 H 0.90353 0.06749 0.13684 0.0
H4647 H 0.9041 0.07756 0.12655 0.0
H4648 H 0.90226 0.04284 0.12936 0.0
H4649 H 0.89193 0.06121 0.14294 0.0
H4650 H 0.89053 0.0375 0.15113 0.0
H4651 H 0.87907 0.04188 0.15563 0.0
H4652 H 0.89229 0.06355 0.15625 0.0
H4653 H 0.88332 0.06865 0.16608 0.0
H4654 H 0.89792 0.03131 0.12574 0.0
H4655 H 0.89715 0.02668 0.15074 0.0
H4656 H 0.87082 0.04663 0.16611 0.0
H4657 H 0.89843 0.01743 0.12328 0.0
H4658 H 0.8962 0.01285 0.1481 0.0
C4659 C 0.32748 0.66195 0.60379 0.0
C4660 C 0.3314 0.65472 0.60451 0.0
C4661 C 0.32123 0.66383 0.60884 0.0
C4662 C 0.31885 0.6585 0.61468 0.0
C4663 C 0.32281 0.65128 0.6153 0.0
C4664 C 0.32903 0.64948 0.61038 0.0
C4665 C 0.31234 0.66023 0.62025 0.0
C4666 C 0.30523 0.66365 0.6178 0.0
C4667 C 0.29873 0.66398 0.62294 0.0
C4668 C 0.29947 0.6608 0.63055 0.0
C4669 C 0.30651 0.65735 0.633 0.0
C4670 C 0.31298 0.6575 0.62798 0.0
C4671 C 0.30701 0.65271 0.64035 0.0
C4672 C 0.3041 0.65558 0.6475 0.0
C4673 C 0.31053 0.64525 0.64017 0.0
C4674 C 0.31124 0.64081 0.64698 0.0
C4675 C 0.30843 0.6437 0.65413 0.0
C4676 C 0.29096 0.66694 0.62019 0.0
C4677 C 0.29034 0.67361 0.61537 0.0
C4678 C 0.28405 0.66298 0.62235 0.0
C4679 C 0.27673 0.66565 0.61986 0.0
C4680 C 0.27607 0.6724 0.61516 0.0
C4681 C 0.28297 0.67631 0.61288 0.0
C4682 C 0.30487 0.65113 0.65437 0.0
H4683 H 0.32915 0.66608 0.59926 0.0
H4684 H 0.31831 0.66943 0.60821 0.0
H4685 H 0.32104 0.64691 0.61956 0.0
H4686 H 0.33196 0.64389 0.61114 0.0
H4687 H 0.3046 0.6656 0.61178 0.0
H4688 H 0.31849 0.65508 0.63002 0.0
H4689 H 0.29449 0.66075 0.63449 0.0
H4690 H 0.30137 0.66131 0.6478 0.0
H4691 H 0.31272 0.64282 0.63473 0.0
H4692 H 0.31407 0.63513 0.64667 0.0
H4693 H 0.29554 0.67681 0.61361 0.0
H4694 H 0.28428 0.65768 0.62584 0.0
H4695 H 0.30268 0.65346 0.65986 0.0
H4696 H 0.28266 0.68149 0.60922 0.0
H4697 H 0.27158 0.6623 0.62147 0.0
C4698 C 0.12676 0.55134 0.34006 0.0
C4699 C 0.13143 0.55803 0.34118 0.0
C4700 C 0.12225 0.54835 0.34627 0.0
C4701 C 0.12245 0.55194 0.35371 0.0
C4702 C 0.12738 0.55849 0.35478 0.0
C4703 C 0.13172 0.56154 0.34858 0.0
C4704 C 0.11759 0.54904 0.36039 0.0
C4705 C 0.1163 0.54099 0.36169 0.0
C4706 C 0.1123 0.53831 0.36846 0.0
C4707 C 0.10977 0.54391 0.37404 0.0
C4708 C 0.11121 0.55193 0.37286 0.0
C4709 C 0.11474 0.55442 0.3659 0.0
C4710 C 0.11019 0.55778 0.3792 0.0
C4711 C 0.10286 0.55933 0.38262 0.0
C4712 C 0.11671 0.56223 0.38151 0.0
C4713 C 0.11595 0.56821 0.387 0.0
C4714 C 0.10861 0.57001 0.39026 0.0
C4715 C 0.11138 0.52967 0.36993 0.0
C4716 C 0.11064 0.52437 0.36363 0.0
C4717 C 0.11166 0.52657 0.37761 0.0
C4718 C 0.1115 0.51845 0.3789 0.0
C4719 C 0.11111 0.51324 0.37256 0.0
C4720 C 0.1106 0.51626 0.36493 0.0
C4721 C 0.10207 0.56542 0.38811 0.0
H4722 H 0.12651 0.54853 0.33437 0.0
H4723 H 0.11852 0.54333 0.3452 0.0
H4724 H 0.12799 0.56126 0.36046 0.0
H4725 H 0.1354 0.56662 0.34959 0.0
H4726 H 0.11879 0.53681 0.35763 0.0
H4727 H 0.11554 0.56066 0.36497 0.0
H4728 H 0.10691 0.54208 0.37941 0.0
H4729 H 0.09775 0.55597 0.38091 0.0
H4730 H 0.12245 0.56108 0.37903 0.0
H4731 H 0.12117 0.57136 0.38876 0.0
H4732 H 0.1102 0.52645 0.35765 0.0
H4733 H 0.11237 0.53036 0.38264 0.0
H4734 H 0.09635 0.56662 0.39059 0.0
H4735 H 0.11033 0.51233 0.35995 0.0
H4736 H 0.112 0.51623 0.38483 0.0
C4737 C 0.39803 0.44648 0.89266 0.0
C4738 C 0.39954 0.43861 0.89072 0.0
C4739 C 0.39747 0.45221 0.88684 0.0
C4740 C 0.39851 0.45027 0.8789 0.0
C4741 C 0.4005 0.44247 0.877 0.0
C4742 C 0.40093 0.4367 0.88282 0.0
C4743 C 0.3968 0.45615 0.87263 0.0
C4744 C 0.3983 0.4642 0.87375 0.0
C4745 C 0.39585 0.46982 0.8682 0.0
C4746 C 0.39211 0.46722 0.8613 0.0
C4747 C 0.39066 0.4592 0.86001 0.0
C4748 C 0.39299 0.45376 0.86573 0.0
C4749 C 0.3861 0.45648 0.85306 0.0
C4750 C 0.37963 0.4608 0.85033 0.0
C4751 C 0.38781 0.44924 0.84949 0.0
C4752 C 0.38286 0.44615 0.84372 0.0
C4753 C 0.37613 0.45027 0.84135 0.0
C4754 C 0.39673 0.47841 0.86978 0.0
C4755 C 0.39583 0.48141 0.87743 0.0
C4756 C 0.39806 0.48376 0.86362 0.0
C4757 C 0.3982 0.49185 0.86502 0.0
C4758 C 0.39718 0.49483 0.87264 0.0
C4759 C 0.39608 0.48949 0.87883 0.0
C4760 C 0.37475 0.45776 0.84449 0.0
H4761 H 0.39704 0.44818 0.8987 0.0
H4762 H 0.39585 0.4581 0.88858 0.0
H4763 H 0.40151 0.44076 0.87097 0.0
H4764 H 0.402 0.43069 0.88108 0.0
H4765 H 0.40136 0.4661 0.87897 0.0
H4766 H 0.39141 0.44766 0.86501 0.0
H4767 H 0.39011 0.47145 0.85701 0.0
H4768 H 0.37809 0.46638 0.85293 0.0
H4769 H 0.39284 0.44583 0.85131 0.0
H4770 H 0.38411 0.44038 0.84139 0.0
H4771 H 0.39467 0.47754 0.88233 0.0
H4772 H 0.39889 0.48172 0.85767 0.0
H4773 H 0.36973 0.46117 0.84262 0.0
H4774 H 0.3953 0.49157 0.88478 0.0
H4775 H 0.39887 0.49576 0.86007 0.0
C4776 C 0.90586 0.82338 0.65507 0.0
C4777 C 0.90294 0.83108 0.6547 0.0
C4778 C 0.90089 0.8171 0.6568 0.0
C4779 C 0.89289 0.81839 0.65826 0.0
C4780 C 0.89008 0.82615 0.65837 0.0
C4781 C 0.89502 0.8324 0.65652 0.0
C4782 C 0.88733 0.81169 0.65892 0.0
C4783 C 0.88941 0.80472 0.66278 0.0
C4784 C 0.88428 0.79825 0.6629 0.0
C4785 C 0.87686 0.79894 0.65932 0.0
C4786 C 0.87467 0.80589 0.65542 0.0
C4787 C 0.88003 0.81214 0.65518 0.0
C4788 C 0.86701 0.80666 0.65126 0.0
C4789 C 0.86365 0.80028 0.64724 0.0
C4790 C 0.86324 0.81399 0.65084 0.0
C4791 C 0.85654 0.81502 0.64628 0.0
C4792 C 0.85321 0.80868 0.64222 0.0
C4793 C 0.88686 0.79065 0.66637 0.0
C4794 C 0.89455 0.78793 0.66517 0.0
C4795 C 0.88162 0.7859 0.67062 0.0
C4796 C 0.88395 0.77852 0.67339 0.0
C4797 C 0.89156 0.7757 0.67191 0.0
C4798 C 0.89687 0.78056 0.6679 0.0
C4799 C 0.85681 0.80128 0.6428 0.0
H4800 H 0.91196 0.82218 0.65374 0.0
H4801 H 0.90325 0.81121 0.65662 0.0
H4802 H 0.88397 0.82737 0.65961 0.0
H4803 H 0.89252 0.83823 0.65616 0.0
H4804 H 0.89504 0.80433 0.6657 0.0
H4805 H 0.87864 0.81731 0.65176 0.0
H4806 H 0.87286 0.79401 0.65941 0.0
H4807 H 0.8664 0.79456 0.64732 0.0
H4808 H 0.86553 0.81903 0.65396 0.0
H4809 H 0.85407 0.82084 0.64582 0.0
H4810 H 0.89873 0.79138 0.66184 0.0
H4811 H 0.87569 0.78787 0.6718 0.0
H4812 H 0.85437 0.79627 0.63975 0.0
H4813 H 0.90275 0.77856 0.66661 0.0
H4814 H 0.87978 0.77502 0.67665 0.0
C4815 C 0.94295 0.12028 0.40485 0.0
C4816 C 0.93934 0.11709 0.39812 0.0
C4817 C 0.94889 0.12594 0.40413 0.0
C4818 C 0.95119 0.12859 0.3967 0.0
C4819 C 0.94758 0.12547 0.39001 0.0
C4820 C 0.94179 0.11975 0.39071 0.0
C4821 C 0.9568 0.13512 0.39572 0.0
C4822 C 0.96489 0.134 0.39664 0.0
C4823 C 0.97025 0.13989 0.39434 0.0
C4824 C 0.96725 0.14691 0.39108 0.0
C4825 C 0.95914 0.14799 0.38993 0.0
C4826 C 0.95399 0.14216 0.39261 0.0
C4827 C 0.95603 0.15476 0.38526 0.0
C4828 C 0.95984 0.16211 0.38513 0.0
C4829 C 0.94929 0.15376 0.38056 0.0
C4830 C 0.9464 0.15989 0.376 0.0
C4831 C 0.95028 0.16711 0.3758 0.0
C4832 C 0.97893 0.13844 0.39462 0.0
C4833 C 0.98235 0.13355 0.40036 0.0
C4834 C 0.9839 0.14176 0.3889 0.0
C4835 C 0.99192 0.14019 0.38886 0.0
C4836 C 0.99526 0.13504 0.39436 0.0
C4837 C 0.99042 0.13186 0.40022 0.0
C4838 C 0.95703 0.1682 0.38036 0.0
H4839 H 0.94108 0.11856 0.41067 0.0
H4840 H 0.9515 0.12841 0.40937 0.0
H4841 H 0.94923 0.1275 0.38422 0.0
H4842 H 0.93926 0.11738 0.38539 0.0
H4843 H 0.96698 0.12836 0.3987 0.0
H4844 H 0.94771 0.1429 0.39201 0.0
H4845 H 0.97125 0.15143 0.38915 0.0
H4846 H 0.96497 0.16319 0.3887 0.0
H4847 H 0.94631 0.14818 0.38018 0.0
H4848 H 0.94125 0.1589 0.37242 0.0
H4849 H 0.97881 0.13099 0.40496 0.0
H4850 H 0.98161 0.14541 0.38424 0.0
H4851 H 0.9601 0.17376 0.38026 0.0
H4852 H 0.99283 0.12793 0.40459 0.0
H4853 H 0.99551 0.14293 0.3844 0.0
C4854 C 0.60225 0.18413 0.1563 0.0
C4855 C 0.6052 0.17655 0.15495 0.0
C4856 C 0.60731 0.19028 0.15821 0.0
C4857 C 0.61541 0.18897 0.159 0.0
C4858 C 0.61823 0.18124 0.15831 0.0
C4859 C 0.6132 0.17512 0.15624 0.0
C4860 C 0.62097 0.19568 0.1598 0.0
C4861 C 0.61887 0.20252 0.16388 0.0
C4862 C 0.62374 0.2092 0.16379 0.0
C4863 C 0.63105 0.20876 0.15994 0.0
C4864 C 0.63335 0.20188 0.15602 0.0
C4865 C 0.62819 0.19548 0.15587 0.0
C4866 C 0.6409 0.20137 0.15164 0.0
C4867 C 0.64382 0.20779 0.14734 0.0
C4868 C 0.645 0.19421 0.15132 0.0
C4869 C 0.65154 0.19335 0.14649 0.0
C4870 C 0.65423 0.19966 0.14195 0.0
C4871 C 0.62091 0.21678 0.16719 0.0
C4872 C 0.61292 0.21881 0.16667 0.0
C4873 C 0.62613 0.22223 0.17055 0.0
C4874 C 0.62349 0.22962 0.17298 0.0
C4875 C 0.61554 0.23169 0.17222 0.0
C4876 C 0.61028 0.22612 0.16921 0.0
C4877 C 0.65046 0.20695 0.14258 0.0
H4878 H 0.59606 0.18537 0.15562 0.0
H4879 H 0.60488 0.19613 0.15867 0.0
H4880 H 0.6244 0.17993 0.15912 0.0
H4881 H 0.61565 0.16934 0.15531 0.0
H4882 H 0.61339 0.20266 0.16707 0.0
H4883 H 0.62965 0.19041 0.15233 0.0
H4884 H 0.63487 0.21383 0.15981 0.0
H4885 H 0.64081 0.21338 0.14739 0.0
H4886 H 0.64308 0.1892 0.15472 0.0
H4887 H 0.65448 0.18772 0.14627 0.0
H4888 H 0.6087 0.21489 0.16402 0.0
H4889 H 0.63229 0.22085 0.17117 0.0
H4890 H 0.65248 0.21191 0.13916 0.0
H4891 H 0.60411 0.22749 0.16861 0.0
H4892 H 0.62773 0.2338 0.17517 0.0
C4893 C 0.5493 0.84266 0.87434 0.0
C4894 C 0.55699 0.83986 0.87525 0.0
C4895 C 0.54647 0.84868 0.87909 0.0
C4896 C 0.55122 0.85198 0.88498 0.0
C4897 C 0.55878 0.84891 0.88614 0.0
C4898 C 0.56167 0.843 0.88126 0.0
C4899 C 0.54848 0.85892 0.88952 0.0
C4900 C 0.54054 0.85979 0.89143 0.0
C4901 C 0.5377 0.86677 0.89473 0.0
C4902 C 0.54312 0.87259 0.89699 0.0
C4903 C 0.55123 0.87181 0.89537 0.0
C4904 C 0.55371 0.865 0.89137 0.0
C4905 C 0.55703 0.87826 0.89716 0.0
C4906 C 0.55456 0.88602 0.89864 0.0
C4907 C 0.5652 0.87683 0.89707 0.0
C4908 C 0.5706 0.88299 0.89746 0.0
C4909 C 0.56805 0.89075 0.8984 0.0
C4910 C 0.52905 0.86818 0.8951 0.0
C4911 C 0.52414 0.86509 0.88921 0.0
C4912 C 0.52563 0.87285 0.901 0.0
C4913 C 0.51756 0.87442 0.90093 0.0
C4914 C 0.51274 0.87127 0.89504 0.0
C4915 C 0.5161 0.86653 0.88924 0.0
C4916 C 0.55999 0.89209 0.89948 0.0
H4917 H 0.54553 0.84034 0.86979 0.0
H4918 H 0.54066 0.85095 0.87792 0.0
H4919 H 0.56257 0.85121 0.89068 0.0
H4920 H 0.5677 0.84116 0.88202 0.0
H4921 H 0.53652 0.85505 0.89016 0.0
H4922 H 0.55965 0.86451 0.88928 0.0
H4923 H 0.5409 0.8778 0.89977 0.0
H4924 H 0.54845 0.88762 0.89891 0.0
H4925 H 0.56756 0.87098 0.89652 0.0
H4926 H 0.57676 0.88164 0.89678 0.0
H4927 H 0.5265 0.86169 0.8844 0.0
H4928 H 0.52915 0.87526 0.90569 0.0
H4929 H 0.55779 0.8979 0.90077 0.0
H4930 H 0.51252 0.86412 0.88458 0.0
H4931 H 0.51507 0.87806 0.9055 0.0
C4932 C 0.90375 0.18332 0.8555 0.0
C4933 C 0.90175 0.17583 0.85265 0.0
C4934 C 0.89923 0.18988 0.8536 0.0
C4935 C 0.89252 0.18907 0.84893 0.0
C4936 C 0.89067 0.1817 0.84578 0.0
C4937 C 0.89534 0.17518 0.84748 0.0
C4938 C 0.88701 0.1957 0.84814 0.0
C4939 C 0.88939 0.20282 0.8448 0.0
C4940 C 0.88435 0.20936 0.84478 0.0
C4941 C 0.8769 0.20866 0.8483 0.0
C4942 C 0.87446 0.20155 0.85169 0.0
C4943 C 0.87953 0.19507 0.85147 0.0
C4944 C 0.86691 0.20092 0.85598 0.0
C4945 C 0.86458 0.20679 0.86129 0.0
C4946 C 0.86226 0.19416 0.85526 0.0
C4947 C 0.85563 0.19313 0.85995 0.0
C4948 C 0.85353 0.1988 0.86554 0.0
C4949 C 0.88697 0.21701 0.84142 0.0
C4950 C 0.89477 0.21956 0.84235 0.0
C4951 C 0.88166 0.22194 0.83748 0.0
C4952 C 0.88401 0.22933 0.83478 0.0
C4953 C 0.89172 0.23197 0.83599 0.0
C4954 C 0.89711 0.22693 0.83965 0.0
C4955 C 0.85796 0.20574 0.86602 0.0
H4956 H 0.9086 0.18409 0.85953 0.0
H4957 H 0.90071 0.19551 0.85614 0.0
H4958 H 0.88553 0.18098 0.84212 0.0
H4959 H 0.89381 0.16961 0.84486 0.0
H4960 H 0.89518 0.20321 0.8422 0.0
H4961 H 0.87785 0.18963 0.8543 0.0
H4962 H 0.87304 0.2137 0.84856 0.0
H4963 H 0.86807 0.21205 0.86203 0.0
H4964 H 0.86382 0.1896 0.85112 0.0
H4965 H 0.85217 0.18785 0.85922 0.0
H4966 H 0.89902 0.21598 0.84543 0.0
H4967 H 0.87566 0.22011 0.83648 0.0
H4968 H 0.85647 0.21023 0.87026 0.0
H4969 H 0.90309 0.22882 0.8407 0.0
H4970 H 0.87977 0.233 0.8318 0.0
C4971 C 0.54859 0.16501 0.63183 0.0
C4972 C 0.55658 0.16703 0.63179 0.0
C4973 C 0.54576 0.159 0.62703 0.0
C4974 C 0.55076 0.15508 0.62176 0.0
C4975 C 0.5586 0.15764 0.62121 0.0
C4976 C 0.56149 0.16343 0.62624 0.0
C4977 C 0.548 0.14797 0.61738 0.0
C4978 C 0.54002 0.14689 0.61558 0.0
C4979 C 0.53717 0.13966 0.61274 0.0
C4980 C 0.54263 0.1337 0.61099 0.0
C4981 C 0.55069 0.13483 0.61228 0.0
C4982 C 0.55327 0.14188 0.61561 0.0
C4983 C 0.55643 0.12841 0.61086 0.0
C4984 C 0.55471 0.1207 0.61318 0.0
C4985 C 0.5639 0.13006 0.60773 0.0
C4986 C 0.56962 0.12419 0.60727 0.0
C4987 C 0.56797 0.11657 0.60993 0.0
C4988 C 0.52851 0.13819 0.61214 0.0
C4989 C 0.52327 0.14202 0.61726 0.0
C4990 C 0.52538 0.13274 0.60675 0.0
C4991 C 0.51732 0.13109 0.60661 0.0
C4992 C 0.51218 0.13499 0.61172 0.0
C4993 C 0.51523 0.14052 0.61697 0.0
C4994 C 0.56042 0.11486 0.61274 0.0
H4995 H 0.54451 0.16792 0.63572 0.0
H4996 H 0.5397 0.15729 0.62774 0.0
H4997 H 0.56262 0.15506 0.61704 0.0
H4998 H 0.56767 0.16486 0.62594 0.0
H4999 H 0.53597 0.15168 0.6165 0.0
H5000 H 0.55939 0.1424 0.61723 0.0
H5001 H 0.54063 0.12808 0.60883 0.0
H5002 H 0.54906 0.11924 0.61569 0.0
H5003 H 0.56539 0.13593 0.60582 0.0
H5004 H 0.57542 0.12568 0.60514 0.0
H5005 H 0.52534 0.14606 0.62168 0.0
H5006 H 0.52911 0.12975 0.60259 0.0
H5007 H 0.55901 0.10901 0.6148 0.0
H5008 H 0.51139 0.14355 0.62103 0.0
H5009 H 0.51509 0.12686 0.60243 0.0
C5010 C 0.60294 0.82371 0.35331 0.0
C5011 C 0.60557 0.83141 0.35191 0.0
C5012 C 0.60768 0.81727 0.35151 0.0
C5013 C 0.61522 0.81841 0.34844 0.0
C5014 C 0.61777 0.82607 0.34677 0.0
C5015 C 0.61297 0.83249 0.34843 0.0
C5016 C 0.62075 0.81176 0.34794 0.0
C5017 C 0.61867 0.80474 0.3442 0.0
C5018 C 0.62369 0.79817 0.34439 0.0
C5019 C 0.63098 0.79889 0.34828 0.0
C5020 C 0.6332 0.80594 0.35197 0.0
C5021 C 0.62797 0.81229 0.35179 0.0
C5022 C 0.64076 0.80669 0.35632 0.0
C5023 C 0.644 0.80031 0.36046 0.0
C5024 C 0.64461 0.81399 0.35673 0.0
C5025 C 0.65127 0.81497 0.36136 0.0
C5026 C 0.65449 0.80861 0.36549 0.0
C5027 C 0.62118 0.7905 0.34089 0.0
C5028 C 0.61318 0.7884 0.34061 0.0
C5029 C 0.62674 0.78505 0.33811 0.0
C5030 C 0.62441 0.77762 0.33551 0.0
C5031 C 0.61646 0.77555 0.33539 0.0
C5032 C 0.61086 0.78105 0.33781 0.0
C5033 C 0.65081 0.80126 0.36494 0.0
H5034 H 0.5974 0.82263 0.35621 0.0
H5035 H 0.60564 0.81144 0.35298 0.0
H5036 H 0.62357 0.82708 0.34438 0.0
H5037 H 0.61516 0.83833 0.34721 0.0
H5038 H 0.61311 0.80448 0.34115 0.0
H5039 H 0.62932 0.81761 0.35498 0.0
H5040 H 0.63491 0.79392 0.34856 0.0
H5041 H 0.64119 0.79463 0.36042 0.0
H5042 H 0.64244 0.81903 0.35353 0.0
H5043 H 0.6538 0.82077 0.3618 0.0
H5044 H 0.60867 0.79226 0.34283 0.0
H5045 H 0.63293 0.78645 0.33796 0.0
H5046 H 0.65317 0.79623 0.36804 0.0
H5047 H 0.60469 0.77954 0.33788 0.0
H5048 H 0.62883 0.77347 0.33363 0.0
C5049 C 0.946 0.889 0.10478 0.0
C5050 C 0.93948 0.88897 0.10984 0.0
C5051 C 0.95173 0.88311 0.10536 0.0
C5052 C 0.95103 0.87715 0.11103 0.0
C5053 C 0.94443 0.87718 0.116 0.0
C5054 C 0.93871 0.88291 0.11533 0.0
C5055 C 0.95711 0.87097 0.11212 0.0
C5056 C 0.96518 0.87265 0.1117 0.0
C5057 C 0.97081 0.86703 0.11405 0.0
C5058 C 0.96813 0.85987 0.11731 0.0
C5059 C 0.96007 0.85825 0.11796 0.0
C5060 C 0.95475 0.86353 0.11464 0.0
C5061 C 0.95697 0.85165 0.12284 0.0
C5062 C 0.96086 0.84439 0.12347 0.0
C5063 C 0.95003 0.85277 0.1272 0.0
C5064 C 0.94692 0.84679 0.13178 0.0
C5065 C 0.95074 0.83956 0.13234 0.0
C5066 C 0.97942 0.86886 0.11359 0.0
C5067 C 0.98243 0.87398 0.1078 0.0
C5068 C 0.98474 0.86554 0.11898 0.0
C5069 C 0.99276 0.86712 0.11849 0.0
C5070 C 0.99571 0.87221 0.11273 0.0
C5071 C 0.99047 0.8757 0.10744 0.0
C5072 C 0.9578 0.8384 0.12824 0.0
H5073 H 0.94679 0.89367 0.10055 0.0
H5074 H 0.95671 0.88326 0.10143 0.0
H5075 H 0.94374 0.87287 0.12062 0.0
H5076 H 0.93373 0.8827 0.11928 0.0
H5077 H 0.96703 0.87846 0.10993 0.0
H5078 H 0.94858 0.86204 0.11451 0.0
H5079 H 0.97226 0.85561 0.11953 0.0
H5080 H 0.96621 0.84329 0.12023 0.0
H5081 H 0.947 0.85835 0.12722 0.0
H5082 H 0.94157 0.84787 0.13504 0.0
H5083 H 0.97862 0.87658 0.10344 0.0
H5084 H 0.98277 0.86181 0.12371 0.0
H5085 H 0.96086 0.83286 0.12866 0.0
H5086 H 0.99262 0.87963 0.10293 0.0
H5087 H 0.99668 0.86444 0.12271 0.0
C5088 C 0.65495 0.9046 0.82434 0.0
C5089 C 0.65516 0.90136 0.83192 0.0
C5090 C 0.65698 0.90004 0.81783 0.0
C5091 C 0.65924 0.89217 0.8188 0.0
C5092 C 0.66002 0.88915 0.82643 0.0
C5093 C 0.65804 0.89371 0.83292 0.0
C5094 C 0.65984 0.88686 0.81193 0.0
C5095 C 0.66357 0.8892 0.80497 0.0
C5096 C 0.66351 0.88432 0.79829 0.0
C5097 C 0.65972 0.87698 0.79876 0.0
C5098 C 0.65604 0.87453 0.80572 0.0
C5099 C 0.65611 0.87954 0.81223 0.0
C5100 C 0.65172 0.86696 0.8062 0.0
C5101 C 0.64706 0.86431 0.79993 0.0
C5102 C 0.65184 0.86255 0.81318 0.0
C5103 C 0.64718 0.85588 0.814 0.0
C5104 C 0.64234 0.85338 0.80783 0.0
C5105 C 0.66705 0.88702 0.79074 0.0
C5106 C 0.6667 0.89498 0.78853 0.0
C5107 C 0.67049 0.88165 0.7855 0.0
C5108 C 0.67319 0.88409 0.77815 0.0
C5109 C 0.67264 0.892 0.7759 0.0
C5110 C 0.66948 0.89743 0.78122 0.0
C5111 C 0.64245 0.85756 0.80073 0.0
H5112 H 0.65278 0.91049 0.8234 0.0
H5113 H 0.6563 0.90252 0.81202 0.0
H5114 H 0.66191 0.88316 0.82737 0.0
H5115 H 0.65849 0.89115 0.83872 0.0
H5116 H 0.66653 0.89481 0.8048 0.0
H5117 H 0.65291 0.8779 0.81747 0.0
H5118 H 0.65951 0.8732 0.79367 0.0
H5119 H 0.64678 0.86757 0.79449 0.0
H5120 H 0.65548 0.86432 0.81808 0.0
H5121 H 0.64725 0.85278 0.81954 0.0
H5122 H 0.66397 0.8993 0.7923 0.0
H5123 H 0.67106 0.87551 0.78703 0.0
H5124 H 0.63895 0.85566 0.79579 0.0
H5125 H 0.66883 0.90354 0.77959 0.0
H5126 H 0.67564 0.87979 0.77418 0.0
C5127 C 0.8906 0.90307 0.56156 0.0
C5128 C 0.89041 0.89823 0.56826 0.0
C5129 C 0.88456 0.90271 0.55597 0.0
C5130 C 0.87824 0.89749 0.55697 0.0
C5131 C 0.87808 0.89277 0.56376 0.0
C5132 C 0.884 0.89322 0.56934 0.0
C5133 C 0.87196 0.89649 0.55093 0.0
C5134 C 0.8736 0.89661 0.54285 0.0
C5135 C 0.8679 0.89418 0.53734 0.0
C5136 C 0.86074 0.89107 0.54016 0.0
C5137 C 0.8591 0.89076 0.54825 0.0
C5138 C 0.86444 0.89431 0.5534 0.0
C5139 C 0.85249 0.88592 0.55153 0.0
C5140 C 0.84574 0.88402 0.54713 0.0
C5141 C 0.85323 0.88258 0.55908 0.0
C5142 C 0.8476 0.8775 0.56203 0.0
C5143 C 0.8412 0.87519 0.55744 0.0
C5144 C 0.86962 0.89441 0.52871 0.0
C5145 C 0.87446 0.90029 0.52544 0.0
C5146 C 0.86642 0.88875 0.52361 0.0
C5147 C 0.86787 0.88904 0.51555 0.0
C5148 C 0.87269 0.89488 0.51233 0.0
C5149 C 0.87602 0.90049 0.51736 0.0
C5150 C 0.84018 0.87867 0.55003 0.0
H5151 H 0.89553 0.90693 0.56051 0.0
H5152 H 0.88488 0.90645 0.55084 0.0
H5153 H 0.87349 0.88849 0.56471 0.0
H5154 H 0.88364 0.88946 0.57445 0.0
H5155 H 0.87942 0.89821 0.54087 0.0
H5156 H 0.86296 0.89492 0.55953 0.0
H5157 H 0.85652 0.88873 0.53607 0.0
H5158 H 0.84476 0.88653 0.54138 0.0
H5159 H 0.85833 0.88354 0.5627 0.0
H5160 H 0.84843 0.87512 0.56787 0.0
H5161 H 0.87695 0.90484 0.5291 0.0
H5162 H 0.86289 0.88396 0.5258 0.0
H5163 H 0.83522 0.87707 0.5464 0.0
H5164 H 0.87969 0.90512 0.51503 0.0
H5165 H 0.8653 0.88458 0.51183 0.0
C5166 C 0.8544 0.10344 0.32402 0.0
C5167 C 0.85207 0.10544 0.33168 0.0
C5168 C 0.85247 0.10823 0.31766 0.0
C5169 C 0.84838 0.11525 0.31886 0.0
C5170 C 0.84589 0.11722 0.32644 0.0
C5171 C 0.84762 0.11232 0.33277 0.0
C5172 C 0.84756 0.12089 0.31234 0.0
C5173 C 0.84375 0.11876 0.30539 0.0
C5174 C 0.84378 0.12373 0.29873 0.0
C5175 C 0.84774 0.13102 0.29943 0.0
C5176 C 0.85145 0.13327 0.30646 0.0
C5177 C 0.8513 0.12813 0.31286 0.0
C5178 C 0.85592 0.14075 0.30707 0.0
C5179 C 0.8606 0.14347 0.30083 0.0
C5180 C 0.85594 0.14499 0.31415 0.0
C5181 C 0.86078 0.15151 0.3151 0.0
C5182 C 0.86569 0.15401 0.30898 0.0
C5183 C 0.84006 0.12118 0.29104 0.0
C5184 C 0.83729 0.11343 0.28993 0.0
C5185 C 0.83948 0.12633 0.28455 0.0
C5186 C 0.83685 0.12371 0.27724 0.0
C5187 C 0.83433 0.11595 0.27618 0.0
C5188 C 0.83438 0.11093 0.2827 0.0
C5189 C 0.8654 0.15006 0.30176 0.0
H5190 H 0.8581 0.09839 0.32293 0.0
H5191 H 0.85458 0.10668 0.31187 0.0
H5192 H 0.84275 0.12265 0.32747 0.0
H5193 H 0.84568 0.11403 0.33857 0.0
H5194 H 0.84084 0.11315 0.30539 0.0
H5195 H 0.85447 0.12957 0.31819 0.0
H5196 H 0.8481 0.13505 0.29459 0.0
H5197 H 0.8608 0.14033 0.29531 0.0
H5198 H 0.85227 0.14321 0.31902 0.0
H5199 H 0.86073 0.15459 0.32065 0.0
H5200 H 0.83746 0.10904 0.29447 0.0
H5201 H 0.84117 0.1324 0.28487 0.0
H5202 H 0.8691 0.1519 0.29694 0.0
H5203 H 0.83236 0.10493 0.28218 0.0
H5204 H 0.8371 0.12776 0.27236 0.0
C5205 C 0.66455 0.13327 0.04966 0.0
C5206 C 0.66764 0.13218 0.05721 0.0
C5207 C 0.65866 0.12834 0.04683 0.0
C5208 C 0.65576 0.12216 0.05147 0.0
C5209 C 0.65907 0.12088 0.05891 0.0
C5210 C 0.66492 0.12586 0.06177 0.0
C5211 C 0.64889 0.11752 0.04875 0.0
C5212 C 0.64807 0.11564 0.0408 0.0
C5213 C 0.64098 0.11266 0.03781 0.0
C5214 C 0.63501 0.11063 0.04318 0.0
C5215 C 0.63585 0.11207 0.0513 0.0
C5216 C 0.64278 0.1157 0.05394 0.0
C5217 C 0.6293 0.11053 0.05697 0.0
C5218 C 0.62141 0.11086 0.05455 0.0
C5219 C 0.63084 0.1092 0.065 0.0
C5220 C 0.62474 0.10892 0.07048 0.0
C5221 C 0.61691 0.10973 0.06806 0.0
C5222 C 0.63963 0.11245 0.0291 0.0
C5223 C 0.64367 0.11771 0.02416 0.0
C5224 C 0.63407 0.10739 0.02563 0.0
C5225 C 0.63241 0.10785 0.01758 0.0
C5226 C 0.63636 0.11327 0.01278 0.0
C5227 C 0.64222 0.11795 0.01614 0.0
C5228 C 0.61533 0.11029 0.05999 0.0
H5229 H 0.66653 0.13808 0.04601 0.0
H5230 H 0.65617 0.1296 0.04113 0.0
H5231 H 0.65701 0.11614 0.0626 0.0
H5232 H 0.66705 0.12496 0.06768 0.0
H5233 H 0.65296 0.11674 0.03693 0.0
H5234 H 0.64328 0.11754 0.05999 0.0
H5235 H 0.62961 0.10815 0.04101 0.0
H5236 H 0.61984 0.1119 0.0485 0.0
H5237 H 0.63678 0.10856 0.06713 0.0
H5238 H 0.62619 0.10835 0.07664 0.0
H5239 H 0.64785 0.12189 0.02643 0.0
H5240 H 0.63093 0.10309 0.02909 0.0
H5241 H 0.60935 0.11055 0.05787 0.0
H5242 H 0.64565 0.12194 0.01259 0.0
H5243 H 0.62791 0.10408 0.01516 0.0
C5244 C 0.65407 0.10336 0.68367 0.0
C5245 C 0.65592 0.10568 0.67596 0.0
C5246 C 0.656 0.10812 0.69004 0.0
C5247 C 0.65961 0.11541 0.68883 0.0
C5248 C 0.66165 0.11768 0.68119 0.0
C5249 C 0.65991 0.11282 0.67483 0.0
C5250 C 0.66033 0.12096 0.69544 0.0
C5251 C 0.66413 0.11876 0.70238 0.0
C5252 C 0.66381 0.12353 0.70916 0.0
C5253 C 0.65968 0.13072 0.70862 0.0
C5254 C 0.65613 0.13313 0.70156 0.0
C5255 C 0.65649 0.12818 0.69502 0.0
C5256 C 0.65163 0.14059 0.70103 0.0
C5257 C 0.64663 0.14298 0.70714 0.0
C5258 C 0.65199 0.14517 0.69418 0.0
C5259 C 0.64728 0.1518 0.69333 0.0
C5260 C 0.64212 0.15406 0.69933 0.0
C5261 C 0.6674 0.12084 0.7168 0.0
C5262 C 0.66928 0.11287 0.7181 0.0
C5263 C 0.66873 0.12611 0.72305 0.0
C5264 C 0.67124 0.12345 0.7304 0.0
C5265 C 0.67296 0.11548 0.73166 0.0
C5266 C 0.67218 0.1103 0.72531 0.0
C5267 C 0.64195 0.14966 0.70631 0.0
H5268 H 0.65073 0.09808 0.6848 0.0
H5269 H 0.65423 0.10633 0.69588 0.0
H5270 H 0.66441 0.12331 0.68014 0.0
H5271 H 0.66148 0.11478 0.66899 0.0
H5272 H 0.66728 0.11327 0.70234 0.0
H5273 H 0.6534 0.12974 0.68969 0.0
H5274 H 0.65906 0.13449 0.71366 0.0
H5275 H 0.64616 0.13957 0.71248 0.0
H5276 H 0.65587 0.14358 0.68941 0.0
H5277 H 0.64756 0.15508 0.68789 0.0
H5278 H 0.66832 0.10842 0.71372 0.0
H5279 H 0.66773 0.13233 0.72244 0.0
H5280 H 0.63816 0.15137 0.71111 0.0
H5281 H 0.67357 0.10414 0.72596 0.0
H5282 H 0.67153 0.12765 0.73513 0.0
C5283 C 0.66557 0.87505 0.45883 0.0
C5284 C 0.6679 0.87571 0.45094 0.0
C5285 C 0.65957 0.87976 0.46184 0.0
C5286 C 0.65585 0.88541 0.45709 0.0
C5287 C 0.65855 0.88638 0.44934 0.0
C5288 C 0.66433 0.88149 0.44626 0.0
C5289 C 0.64881 0.88979 0.45995 0.0
C5290 C 0.64775 0.89151 0.46794 0.0
C5291 C 0.64067 0.89476 0.47072 0.0
C5292 C 0.6349 0.89701 0.46522 0.0
C5293 C 0.63599 0.89563 0.45715 0.0
C5294 C 0.64282 0.89178 0.45468 0.0
C5295 C 0.62984 0.89759 0.45122 0.0
C5296 C 0.62181 0.89689 0.45299 0.0
C5297 C 0.63202 0.89958 0.44348 0.0
C5298 C 0.62639 0.90022 0.43758 0.0
C5299 C 0.61845 0.89918 0.43933 0.0
C5300 C 0.63909 0.89514 0.47936 0.0
C5301 C 0.64216 0.88932 0.48436 0.0
C5302 C 0.63427 0.90099 0.48268 0.0
C5303 C 0.6324 0.90085 0.49071 0.0
C5304 C 0.63532 0.89487 0.49558 0.0
C5305 C 0.64039 0.88926 0.49233 0.0
C5306 C 0.61617 0.89774 0.4471 0.0
H5307 H 0.66823 0.87072 0.46264 0.0
H5308 H 0.65766 0.8787 0.46779 0.0
H5309 H 0.65604 0.89079 0.44552 0.0
H5310 H 0.66573 0.88206 0.4401 0.0
H5311 H 0.65241 0.89021 0.47203 0.0
H5312 H 0.6433 0.88998 0.44861 0.0
H5313 H 0.62949 0.89962 0.46724 0.0
H5314 H 0.61987 0.8953 0.45882 0.0
H5315 H 0.63811 0.90043 0.44191 0.0
H5316 H 0.62825 0.90141 0.43162 0.0
H5317 H 0.64576 0.88461 0.4821 0.0
H5318 H 0.63189 0.90566 0.4791 0.0
H5319 H 0.61004 0.89688 0.44855 0.0
H5320 H 0.64289 0.88468 0.49596 0.0
H5321 H 0.62853 0.9053 0.49307 0.0
C5322 C 0.8517 0.9047 0.18296 0.0
C5323 C 0.85251 0.90145 0.17545 0.0
C5324 C 0.84964 0.89993 0.18933 0.0
C5325 C 0.8483 0.89186 0.18826 0.0
C5326 C 0.84852 0.8888 0.18059 0.0
C5327 C 0.85069 0.89353 0.17428 0.0
C5328 C 0.84757 0.88649 0.19512 0.0
C5329 C 0.84365 0.88878 0.20199 0.0
C5330 C 0.84371 0.88398 0.20874 0.0
C5331 C 0.84751 0.87664 0.20837 0.0
C5332 C 0.85131 0.87418 0.20148 0.0
C5333 C 0.85139 0.87921 0.19497 0.0
C5334 C 0.85563 0.8666 0.20105 0.0
C5335 C 0.86015 0.86388 0.2074 0.0
C5336 C 0.85567 0.86226 0.19404 0.0
C5337 C 0.86037 0.85562 0.19325 0.0
C5338 C 0.86509 0.85305 0.19949 0.0
C5339 C 0.84031 0.88688 0.21628 0.0
C5340 C 0.84083 0.89487 0.21827 0.0
C5341 C 0.83691 0.88169 0.22174 0.0
C5342 C 0.83446 0.88436 0.22912 0.0
C5343 C 0.83523 0.89231 0.23116 0.0
C5344 C 0.83827 0.89755 0.22556 0.0
C5345 C 0.86479 0.85715 0.20664 0.0
H5346 H 0.85313 0.9108 0.18399 0.0
H5347 H 0.84959 0.90249 0.19514 0.0
H5348 H 0.84733 0.88265 0.17951 0.0
H5349 H 0.85124 0.89093 0.16851 0.0
H5350 H 0.84059 0.89434 0.20208 0.0
H5351 H 0.85479 0.87759 0.18985 0.0
H5352 H 0.84767 0.87289 0.21349 0.0
H5353 H 0.8603 0.86708 0.21288 0.0
H5354 H 0.85214 0.86406 0.18908 0.0
H5355 H 0.86044 0.85259 0.18767 0.0
H5356 H 0.8435 0.89907 0.21433 0.0
H5357 H 0.83627 0.87552 0.2204 0.0
H5358 H 0.86818 0.8552 0.21164 0.0
H5359 H 0.83888 0.90372 0.22691 0.0
H5360 H 0.83225 0.88013 0.23331 0.0
C5361 C 0.89033 0.1039 0.94623 0.0
C5362 C 0.89077 0.10886 0.93964 0.0
C5363 C 0.88424 0.10474 0.9517 0.0
C5364 C 0.87848 0.11057 0.95069 0.0
C5365 C 0.87894 0.11544 0.94402 0.0
C5366 C 0.88494 0.11454 0.93855 0.0
C5367 C 0.87213 0.11187 0.95658 0.0
C5368 C 0.8735 0.11123 0.96471 0.0
C5369 C 0.86775 0.11356 0.9702 0.0
C5370 C 0.86066 0.11681 0.96737 0.0
C5371 C 0.8593 0.11765 0.95929 0.0
C5372 C 0.86482 0.11462 0.95402 0.0
C5373 C 0.85276 0.1226 0.95622 0.0
C5374 C 0.84529 0.12277 0.95975 0.0
C5375 C 0.8542 0.1276 0.94979 0.0
C5376 C 0.84842 0.13263 0.94702 0.0
C5377 C 0.84107 0.13295 0.95064 0.0
C5378 C 0.86937 0.11318 0.97884 0.0
C5379 C 0.87408 0.10719 0.98209 0.0
C5380 C 0.86627 0.11888 0.98394 0.0
C5381 C 0.86771 0.11856 0.992 0.0
C5382 C 0.87242 0.11262 0.99522 0.0
C5383 C 0.87562 0.10695 0.99018 0.0
C5384 C 0.83947 0.12789 0.95695 0.0
H5385 H 0.89471 0.09941 0.94717 0.0
H5386 H 0.88405 0.10083 0.9567 0.0
H5387 H 0.87481 0.12017 0.9431 0.0
H5388 H 0.88518 0.11853 0.93361 0.0
H5389 H 0.87921 0.10933 0.96675 0.0
H5390 H 0.86356 0.11481 0.9478 0.0
H5391 H 0.85628 0.11893 0.97144 0.0
H5392 H 0.84397 0.119 0.96468 0.0
H5393 H 0.8599 0.12784 0.94701 0.0
H5394 H 0.84978 0.13645 0.94212 0.0
H5395 H 0.87649 0.10262 0.97842 0.0
H5396 H 0.86284 0.12374 0.98175 0.0
H5397 H 0.83381 0.12806 0.95983 0.0
H5398 H 0.87919 0.10224 0.99251 0.0
H5399 H 0.86524 0.12308 0.99572 0.0
C5400 C 0.82373 0.65726 0.90543 0.0
C5401 C 0.83116 0.65534 0.90243 0.0
C5402 C 0.81748 0.65891 0.90039 0.0
C5403 C 0.81857 0.65899 0.8922 0.0
C5404 C 0.82622 0.65783 0.88928 0.0
C5405 C 0.83238 0.65589 0.8943 0.0
C5406 C 0.81174 0.65963 0.88673 0.0
C5407 C 0.80483 0.66363 0.88887 0.0
C5408 C 0.79812 0.66346 0.88404 0.0
C5409 C 0.79852 0.65954 0.87679 0.0
C5410 C 0.80543 0.65574 0.87444 0.0
C5411 C 0.81191 0.65572 0.87948 0.0
C5412 C 0.80589 0.65139 0.86691 0.0
C5413 C 0.79993 0.64616 0.86469 0.0
C5414 C 0.81261 0.65204 0.86217 0.0
C5415 C 0.81345 0.6474 0.85549 0.0
C5416 C 0.80763 0.64196 0.85343 0.0
C5417 C 0.79059 0.66698 0.88678 0.0
C5418 C 0.78832 0.66633 0.8947 0.0
C5419 C 0.78541 0.67063 0.88149 0.0
C5420 C 0.77808 0.67335 0.884 0.0
C5421 C 0.77578 0.67253 0.89187 0.0
C5422 C 0.78102 0.66907 0.8972 0.0
C5423 C 0.8008 0.64146 0.85802 0.0
H5424 H 0.82264 0.65726 0.91169 0.0
H5425 H 0.81174 0.65977 0.90295 0.0
H5426 H 0.82745 0.65817 0.88306 0.0
H5427 H 0.83804 0.65453 0.89176 0.0
H5428 H 0.80464 0.66687 0.89432 0.0
H5429 H 0.81699 0.65227 0.87784 0.0
H5430 H 0.79341 0.65929 0.87302 0.0
H5431 H 0.79471 0.64549 0.86826 0.0
H5432 H 0.81727 0.65608 0.86371 0.0
H5433 H 0.81876 0.64791 0.85204 0.0
H5434 H 0.79206 0.66342 0.89893 0.0
H5435 H 0.78699 0.67135 0.87538 0.0
H5436 H 0.79618 0.63739 0.85649 0.0
H5437 H 0.77935 0.66816 0.90326 0.0
H5438 H 0.77418 0.67603 0.87976 0.0
C5439 C 0.32401 0.85163 0.10254 0.0
C5440 C 0.33155 0.85223 0.1058 0.0
C5441 C 0.31756 0.84986 0.1073 0.0
C5442 C 0.31856 0.84864 0.1154 0.0
C5443 C 0.32621 0.84868 0.1185 0.0
C5444 C 0.33262 0.85052 0.11377 0.0
C5445 C 0.3117 0.84809 0.12076 0.0
C5446 C 0.30488 0.84399 0.11869 0.0
C5447 C 0.29834 0.84384 0.12373 0.0
C5448 C 0.29892 0.84746 0.13115 0.0
C5449 C 0.3057 0.85167 0.13336 0.0
C5450 C 0.31189 0.85212 0.12791 0.0
C5451 C 0.30635 0.85592 0.14108 0.0
C5452 C 0.29968 0.85812 0.14546 0.0
C5453 C 0.31376 0.85807 0.14407 0.0
C5454 C 0.31446 0.8628 0.15069 0.0
C5455 C 0.30781 0.86514 0.15495 0.0
C5456 C 0.29078 0.84034 0.12103 0.0
C5457 C 0.28835 0.8413 0.1132 0.0
C5458 C 0.28574 0.83641 0.12626 0.0
C5459 C 0.2784 0.8337 0.12377 0.0
C5460 C 0.27595 0.83479 0.11598 0.0
C5461 C 0.28104 0.83856 0.11071 0.0
C5462 C 0.30043 0.86247 0.15239 0.0
H5463 H 0.32303 0.85299 0.09641 0.0
H5464 H 0.31176 0.84991 0.10472 0.0
H5465 H 0.32722 0.84757 0.12468 0.0
H5466 H 0.33839 0.85087 0.1164 0.0
H5467 H 0.30466 0.84094 0.11312 0.0
H5468 H 0.31687 0.85587 0.12903 0.0
H5469 H 0.29397 0.84715 0.13508 0.0
H5470 H 0.29383 0.85666 0.14355 0.0
H5471 H 0.31916 0.8562 0.14133 0.0
H5472 H 0.32028 0.86467 0.15237 0.0
H5473 H 0.29195 0.84444 0.10902 0.0
H5474 H 0.28744 0.83544 0.1323 0.0
H5475 H 0.29516 0.86372 0.15569 0.0
H5476 H 0.27925 0.83969 0.10472 0.0
H5477 H 0.2746 0.83079 0.12796 0.0
C5478 C 0.87398 0.54907 0.84376 0.0
C5479 C 0.87534 0.5565 0.84049 0.0
C5480 C 0.87888 0.54613 0.84963 0.0
C5481 C 0.88529 0.55054 0.85236 0.0
C5482 C 0.88686 0.55784 0.84883 0.0
C5483 C 0.88192 0.5608 0.84299 0.0
C5484 C 0.88988 0.54782 0.85928 0.0
C5485 C 0.8915 0.53982 0.86035 0.0
C5486 C 0.89467 0.53699 0.86744 0.0
C5487 C 0.89683 0.54247 0.87325 0.0
C5488 C 0.89551 0.55058 0.87219 0.0
C5489 C 0.89194 0.55313 0.8652 0.0
C5490 C 0.89709 0.55636 0.87859 0.0
C5491 C 0.89596 0.55429 0.8865 0.0
C5492 C 0.89911 0.56419 0.87684 0.0
C5493 C 0.89948 0.56987 0.88275 0.0
C5494 C 0.89804 0.56783 0.8906 0.0
C5495 C 0.89503 0.52833 0.86897 0.0
C5496 C 0.88939 0.52332 0.86561 0.0
C5497 C 0.9007 0.52498 0.87398 0.0
C5498 C 0.90054 0.51692 0.87575 0.0
C5499 C 0.89475 0.51204 0.87252 0.0
C5500 C 0.88934 0.51532 0.86725 0.0
C5501 C 0.8965 0.55993 0.89241 0.0
H5502 H 0.86897 0.54561 0.84195 0.0
H5503 H 0.87741 0.54054 0.85227 0.0
H5504 H 0.89179 0.56136 0.85074 0.0
H5505 H 0.88306 0.56661 0.8407 0.0
H5506 H 0.89011 0.53578 0.85566 0.0
H5507 H 0.89032 0.55923 0.86455 0.0
H5508 H 0.89931 0.54041 0.87871 0.0
H5509 H 0.89431 0.5484 0.88815 0.0
H5510 H 0.90019 0.56601 0.87085 0.0
H5511 H 0.90058 0.5759 0.8811 0.0
H5512 H 0.88479 0.52556 0.86186 0.0
H5513 H 0.90525 0.52855 0.87659 0.0
H5514 H 0.89545 0.55814 0.89842 0.0
H5515 H 0.88493 0.51169 0.86446 0.0
H5516 H 0.90484 0.51456 0.87978 0.0
C5517 C 0.18334 0.15341 0.60385 0.0
C5518 C 0.17566 0.15564 0.6059 0.0
C5519 C 0.18969 0.15539 0.60861 0.0
C5520 C 0.1885 0.15943 0.61567 0.0
C5521 C 0.1809 0.16178 0.61772 0.0
C5522 C 0.17455 0.16 0.61283 0.0
C5523 C 0.1951 0.16035 0.62121 0.0
C5524 C 0.20212 0.16387 0.6188 0.0
C5525 C 0.20888 0.16362 0.62357 0.0
C5526 C 0.20835 0.15984 0.63094 0.0
C5527 C 0.20124 0.15655 0.63352 0.0
C5528 C 0.19464 0.15688 0.62863 0.0
C5529 C 0.20071 0.15221 0.64106 0.0
C5530 C 0.20636 0.14657 0.64309 0.0
C5531 C 0.19419 0.15326 0.64597 0.0
C5532 C 0.19317 0.14857 0.6526 0.0
C5533 C 0.19858 0.14261 0.6544 0.0
C5534 C 0.21654 0.16684 0.62066 0.0
C5535 C 0.21817 0.16716 0.61256 0.0
C5536 C 0.22241 0.16941 0.62589 0.0
C5537 C 0.2298 0.17173 0.62314 0.0
C5538 C 0.23146 0.17172 0.61506 0.0
C5539 C 0.22544 0.16973 0.60982 0.0
C5540 C 0.2053 0.1418 0.64969 0.0
H5541 H 0.18446 0.14976 0.59878 0.0
H5542 H 0.1955 0.15336 0.60701 0.0
H5543 H 0.17985 0.16488 0.62316 0.0
H5544 H 0.16874 0.16187 0.61459 0.0
H5545 H 0.20223 0.16673 0.61313 0.0
H5546 H 0.18925 0.154 0.63039 0.0
H5547 H 0.21347 0.15929 0.63464 0.0
H5548 H 0.21143 0.14559 0.63938 0.0
H5549 H 0.18981 0.15767 0.64463 0.0
H5550 H 0.18809 0.14956 0.65628 0.0
H5551 H 0.21398 0.16518 0.60824 0.0
H5552 H 0.22138 0.16955 0.63215 0.0
H5553 H 0.20959 0.13729 0.65094 0.0
H5554 H 0.22638 0.16996 0.60354 0.0
H5555 H 0.23428 0.17331 0.62735 0.0
C5556 C 0.10269 0.9433 0.88772 0.0
C5557 C 0.10937 0.93933 0.89058 0.0
C5558 C 0.10343 0.94918 0.882 0.0
C5559 C 0.11082 0.95103 0.8789 0.0
C5560 C 0.11745 0.94705 0.88168 0.0
C5561 C 0.11675 0.94134 0.88749 0.0
C5562 C 0.11176 0.95663 0.87234 0.0
C5563 C 0.11069 0.96473 0.87339 0.0
C5564 C 0.11285 0.9701 0.86743 0.0
C5565 C 0.11607 0.96707 0.86039 0.0
C5566 C 0.11746 0.959 0.85945 0.0
C5567 C 0.11494 0.95384 0.86533 0.0
C5568 C 0.12245 0.95597 0.85292 0.0
C5569 C 0.12223 0.9592 0.84531 0.0
C5570 C 0.12787 0.94994 0.85447 0.0
C5571 C 0.1329 0.94723 0.84866 0.0
C5572 C 0.13282 0.95054 0.84114 0.0
C5573 C 0.11252 0.97881 0.86884 0.0
C5574 C 0.10718 0.98217 0.87422 0.0
C5575 C 0.11783 0.98388 0.86503 0.0
C5576 C 0.11788 0.99191 0.86658 0.0
C5577 C 0.11287 0.99516 0.87225 0.0
C5578 C 0.10739 0.99023 0.87593 0.0
C5579 C 0.12737 0.9565 0.83946 0.0
H5580 H 0.09688 0.94178 0.88975 0.0
H5581 H 0.09823 0.9521 0.87981 0.0
H5582 H 0.12321 0.94836 0.87934 0.0
H5583 H 0.12204 0.93854 0.8896 0.0
H5584 H 0.10865 0.96679 0.87903 0.0
H5585 H 0.11579 0.94758 0.86465 0.0
H5586 H 0.11784 0.97099 0.85574 0.0
H5587 H 0.11812 0.96382 0.84388 0.0
H5588 H 0.12844 0.94742 0.86027 0.0
H5589 H 0.13699 0.94258 0.85012 0.0
H5590 H 0.10285 0.9786 0.87717 0.0
H5591 H 0.12219 0.98172 0.86098 0.0
H5592 H 0.12722 0.95919 0.83371 0.0
H5593 H 0.10339 0.99256 0.88027 0.0
H5594 H 0.12199 0.99557 0.8634 0.0
C5595 C 0.68308 0.3549 0.40355 0.0
C5596 C 0.67556 0.35212 0.40157 0.0
C5597 C 0.6896 0.35294 0.39901 0.0
C5598 C 0.68872 0.34828 0.3923 0.0
C5599 C 0.68131 0.34524 0.39044 0.0
C5600 C 0.67482 0.34701 0.39512 0.0
C5601 C 0.69534 0.34744 0.3868 0.0
C5602 C 0.70236 0.34388 0.38916 0.0
C5603 C 0.709 0.34396 0.38422 0.0
C5604 C 0.7084 0.34771 0.37685 0.0
C5605 C 0.70134 0.35123 0.37441 0.0
C5606 C 0.69484 0.351 0.37944 0.0
C5607 C 0.70082 0.35562 0.36687 0.0
C5608 C 0.70704 0.36039 0.3643 0.0
C5609 C 0.69387 0.35544 0.36243 0.0
C5610 C 0.69305 0.36014 0.35577 0.0
C5611 C 0.69917 0.36508 0.35334 0.0
C5612 C 0.71664 0.34055 0.3869 0.0
C5613 C 0.71875 0.3406 0.3949 0.0
C5614 C 0.72207 0.33752 0.38145 0.0
C5615 C 0.72951 0.33505 0.38387 0.0
C5616 C 0.73164 0.33537 0.39181 0.0
C5617 C 0.72612 0.33796 0.39732 0.0
C5618 C 0.70623 0.36504 0.35758 0.0
H5619 H 0.68391 0.35888 0.40842 0.0
H5620 H 0.69526 0.35541 0.40048 0.0
H5621 H 0.68054 0.34161 0.38529 0.0
H5622 H 0.6692 0.34449 0.39359 0.0
H5623 H 0.70259 0.34108 0.39485 0.0
H5624 H 0.68947 0.35399 0.37783 0.0
H5625 H 0.71346 0.34804 0.37304 0.0
H5626 H 0.71245 0.36074 0.36759 0.0
H5627 H 0.68901 0.35173 0.36415 0.0
H5628 H 0.68753 0.36002 0.35262 0.0
H5629 H 0.71486 0.34297 0.39931 0.0
H5630 H 0.72065 0.33712 0.37528 0.0
H5631 H 0.71114 0.36863 0.35574 0.0
H5632 H 0.72766 0.33831 0.40348 0.0
H5633 H 0.73365 0.33299 0.37952 0.0
C5634 C 0.8738 0.45731 0.66404 0.0
C5635 C 0.8756 0.44988 0.6671 0.0
C5636 C 0.87856 0.46069 0.65826 0.0
C5637 C 0.88521 0.45669 0.65546 0.0
C5638 C 0.88728 0.4495 0.65894 0.0
C5639 C 0.88253 0.44615 0.66471 0.0
C5640 C 0.88952 0.45957 0.64845 0.0
C5641 C 0.89112 0.46756 0.64741 0.0
C5642 C 0.89437 0.4704 0.64035 0.0
C5643 C 0.89664 0.4649 0.63457 0.0
C5644 C 0.89524 0.45678 0.63555 0.0
C5645 C 0.89147 0.4543 0.64247 0.0
C5646 C 0.89703 0.45088 0.62921 0.0
C5647 C 0.89761 0.45311 0.62128 0.0
C5648 C 0.89769 0.44281 0.63098 0.0
C5649 C 0.89806 0.43718 0.62504 0.0
C5650 C 0.89833 0.43942 0.61711 0.0
C5651 C 0.89477 0.47909 0.63884 0.0
C5652 C 0.88927 0.48415 0.64237 0.0
C5653 C 0.9003 0.48243 0.63365 0.0
C5654 C 0.90012 0.49048 0.63186 0.0
C5655 C 0.89445 0.4954 0.63527 0.0
C5656 C 0.88922 0.49216 0.64074 0.0
C5657 C 0.89842 0.44749 0.61537 0.0
H5658 H 0.86849 0.46031 0.66579 0.0
H5659 H 0.87679 0.46621 0.65568 0.0
H5660 H 0.89245 0.44635 0.65703 0.0
H5661 H 0.88416 0.4405 0.66712 0.0
H5662 H 0.88972 0.47155 0.65214 0.0
H5663 H 0.88964 0.44827 0.64314 0.0
H5664 H 0.8993 0.46701 0.62923 0.0
H5665 H 0.89714 0.45916 0.61947 0.0
H5666 H 0.89771 0.4407 0.63696 0.0
H5667 H 0.89779 0.43108 0.62674 0.0
H5668 H 0.88476 0.48196 0.64626 0.0
H5669 H 0.90478 0.47886 0.63092 0.0
H5670 H 0.89885 0.44952 0.60936 0.0
H5671 H 0.88495 0.49581 0.6437 0.0
H5672 H 0.9043 0.49282 0.62769 0.0
C5673 C 0.60466 0.56137 0.11716 0.0
C5674 C 0.60956 0.56801 0.11684 0.0
C5675 C 0.60548 0.55586 0.12322 0.0
C5676 C 0.61126 0.55684 0.12903 0.0
C5677 C 0.61608 0.56357 0.12867 0.0
C5678 C 0.61517 0.5691 0.12272 0.0
C5679 C 0.61252 0.55089 0.13535 0.0
C5680 C 0.61177 0.54278 0.13393 0.0
C5681 C 0.61382 0.53719 0.13973 0.0
C5682 C 0.61692 0.53995 0.14692 0.0
C5683 C 0.61799 0.54801 0.14827 0.0
C5684 C 0.61526 0.55336 0.14269 0.0
C5685 C 0.62293 0.55093 0.15486 0.0
C5686 C 0.62252 0.54774 0.16247 0.0
C5687 C 0.62842 0.5569 0.15336 0.0
C5688 C 0.63336 0.55961 0.15924 0.0
C5689 C 0.63304 0.55641 0.1668 0.0
C5690 C 0.61326 0.52853 0.13808 0.0
C5691 C 0.60777 0.5255 0.13266 0.0
C5692 C 0.61833 0.52317 0.14183 0.0
C5693 C 0.61785 0.51513 0.14034 0.0
C5694 C 0.61243 0.51218 0.13491 0.0
C5695 C 0.60744 0.51743 0.13102 0.0
C5696 C 0.62752 0.5505 0.16843 0.0
H5697 H 0.60024 0.56043 0.1127 0.0
H5698 H 0.6016 0.55084 0.12333 0.0
H5699 H 0.62078 0.56448 0.13284 0.0
H5700 H 0.61911 0.57409 0.12255 0.0
H5701 H 0.60999 0.54084 0.12816 0.0
H5702 H 0.61563 0.55957 0.14398 0.0
H5703 H 0.61877 0.53589 0.15142 0.0
H5704 H 0.61835 0.54314 0.16382 0.0
H5705 H 0.62906 0.55939 0.14755 0.0
H5706 H 0.63753 0.5642 0.15785 0.0
H5707 H 0.60363 0.52931 0.12972 0.0
H5708 H 0.62286 0.52512 0.14581 0.0
H5709 H 0.62719 0.54791 0.17422 0.0
H5710 H 0.60319 0.51529 0.12682 0.0
H5711 H 0.62184 0.5112 0.14334 0.0
C5712 C 0.64951 0.705 0.86446 0.0
C5713 C 0.65357 0.69784 0.86417 0.0
C5714 C 0.64285 0.70619 0.8598 0.0
C5715 C 0.64016 0.70025 0.85476 0.0
C5716 C 0.64451 0.69327 0.85417 0.0
C5717 C 0.65114 0.69209 0.85881 0.0
C5718 C 0.63249 0.70097 0.85069 0.0
C5719 C 0.63008 0.70805 0.84723 0.0
C5720 C 0.6225 0.70886 0.844 0.0
C5721 C 0.6174 0.70233 0.84415 0.0
C5722 C 0.61983 0.69515 0.84741 0.0
C5723 C 0.62733 0.69458 0.8507 0.0
C5724 C 0.61448 0.6883 0.84799 0.0
C5725 C 0.60679 0.68917 0.85081 0.0
C5726 C 0.61738 0.68071 0.84661 0.0
C5727 C 0.61291 0.67413 0.84852 0.0
C5728 C 0.60546 0.67499 0.85192 0.0
C5729 C 0.61984 0.71659 0.84078 0.0
C5730 C 0.62254 0.72365 0.8441 0.0
C5731 C 0.61448 0.71702 0.8345 0.0
C5732 C 0.61179 0.72429 0.83176 0.0
C5733 C 0.61441 0.7313 0.8352 0.0
C5734 C 0.61991 0.73089 0.84131 0.0
C5735 C 0.60232 0.68256 0.85276 0.0
H5736 H 0.65129 0.70956 0.8685 0.0
H5737 H 0.63961 0.71162 0.86042 0.0
H5738 H 0.64271 0.68864 0.85021 0.0
H5739 H 0.65432 0.68661 0.85827 0.0
H5740 H 0.63417 0.7129 0.84705 0.0
H5741 H 0.62904 0.6892 0.85363 0.0
H5742 H 0.6115 0.70283 0.84186 0.0
H5743 H 0.60441 0.69494 0.85197 0.0
H5744 H 0.62324 0.67985 0.84429 0.0
H5745 H 0.6154 0.66836 0.84758 0.0
H5746 H 0.62652 0.72364 0.84905 0.0
H5747 H 0.61239 0.71176 0.83165 0.0
H5748 H 0.59658 0.68339 0.85535 0.0
H5749 H 0.62198 0.73619 0.84414 0.0
H5750 H 0.60766 0.72442 0.82694 0.0
C5751 C 0.55081 0.34148 0.1276 0.0
C5752 C 0.5579 0.34272 0.13161 0.0
C5753 C 0.54789 0.3472 0.12241 0.0
C5754 C 0.552 0.35428 0.1212 0.0
C5755 C 0.55918 0.35534 0.12518 0.0
C5756 C 0.56216 0.34958 0.1301 0.0
C5757 C 0.54889 0.36075 0.11611 0.0
C5758 C 0.5408 0.36221 0.11529 0.0
C5759 C 0.53804 0.36902 0.11142 0.0
C5760 C 0.54358 0.37459 0.10873 0.0
C5761 C 0.55164 0.37322 0.10963 0.0
C5762 C 0.55417 0.36607 0.11272 0.0
C5763 C 0.55757 0.37953 0.10865 0.0
C5764 C 0.55838 0.38381 0.10166 0.0
C5765 C 0.56271 0.38107 0.11489 0.0
C5766 C 0.56864 0.38662 0.11416 0.0
C5767 C 0.56969 0.39075 0.10712 0.0
C5768 C 0.52941 0.37055 0.11078 0.0
C5769 C 0.52411 0.36432 0.10957 0.0
C5770 C 0.52634 0.37817 0.11166 0.0
C5771 C 0.51823 0.37949 0.11157 0.0
C5772 C 0.51301 0.37322 0.11055 0.0
C5773 C 0.516 0.36565 0.10946 0.0
C5774 C 0.56442 0.38937 0.10089 0.0
H5775 H 0.54744 0.3362 0.12861 0.0
H5776 H 0.54242 0.34608 0.11941 0.0
H5777 H 0.56249 0.36073 0.12476 0.0
H5778 H 0.56776 0.35062 0.1329 0.0
H5779 H 0.53662 0.35828 0.11802 0.0
H5780 H 0.56041 0.36494 0.11289 0.0
H5781 H 0.54166 0.38007 0.10615 0.0
H5782 H 0.55448 0.38273 0.09677 0.0
H5783 H 0.56212 0.37798 0.12042 0.0
H5784 H 0.57232 0.38777 0.11921 0.0
H5785 H 0.52622 0.35839 0.10874 0.0
H5786 H 0.53018 0.38312 0.11273 0.0
H5787 H 0.56503 0.39253 0.09541 0.0
H5788 H 0.51206 0.36073 0.1087 0.0
H5789 H 0.51602 0.38537 0.11248 0.0
C5790 C 0.90251 0.32809 0.34488 0.0
C5791 C 0.90172 0.33225 0.35194 0.0
C5792 C 0.89783 0.32146 0.34343 0.0
C5793 C 0.89239 0.31889 0.34908 0.0
C5794 C 0.89193 0.32293 0.35627 0.0
C5795 C 0.89646 0.32955 0.35763 0.0
C5796 C 0.88701 0.31214 0.34771 0.0
C5797 C 0.88951 0.30514 0.34416 0.0
C5798 C 0.88463 0.29841 0.34417 0.0
C5799 C 0.87726 0.29885 0.34797 0.0
C5800 C 0.87466 0.30588 0.35137 0.0
C5801 C 0.8794 0.31254 0.35076 0.0
C5802 C 0.86735 0.30633 0.35615 0.0
C5803 C 0.86049 0.3023 0.35403 0.0
C5804 C 0.86723 0.31103 0.36295 0.0
C5805 C 0.86039 0.31196 0.36728 0.0
C5806 C 0.85347 0.30806 0.36512 0.0
C5807 C 0.88738 0.2908 0.34073 0.0
C5808 C 0.89536 0.28867 0.3409 0.0
C5809 C 0.88198 0.28544 0.33751 0.0
C5810 C 0.88443 0.27805 0.33491 0.0
C5811 C 0.89235 0.27584 0.33539 0.0
C5812 C 0.89781 0.28131 0.33821 0.0
C5813 C 0.85363 0.30312 0.3585 0.0
H5814 H 0.90661 0.33006 0.34044 0.0
H5815 H 0.89835 0.31846 0.33786 0.0
H5816 H 0.88805 0.32098 0.3609 0.0
H5817 H 0.89589 0.33257 0.36319 0.0
H5818 H 0.8953 0.3049 0.34159 0.0
H5819 H 0.87726 0.31809 0.35301 0.0
H5820 H 0.8737 0.29363 0.34861 0.0
H5821 H 0.86037 0.29861 0.34886 0.0
H5822 H 0.87245 0.31404 0.36495 0.0
H5823 H 0.8605 0.31583 0.37231 0.0
H5824 H 0.89973 0.29253 0.3434 0.0
H5825 H 0.87582 0.2869 0.33703 0.0
H5826 H 0.84846 0.29985 0.35678 0.0
H5827 H 0.90396 0.27977 0.33868 0.0
H5828 H 0.8801 0.27404 0.33257 0.0
C5829 C 0.95666 0.66787 0.62673 0.0
C5830 C 0.94973 0.66689 0.63108 0.0
C5831 C 0.95956 0.66172 0.62209 0.0
C5832 C 0.95562 0.65446 0.62184 0.0
C5833 C 0.94879 0.65351 0.6264 0.0
C5834 C 0.94585 0.65966 0.63086 0.0
C5835 C 0.95852 0.64775 0.61701 0.0
C5836 C 0.96657 0.64614 0.61616 0.0
C5837 C 0.96914 0.6392 0.61246 0.0
C5838 C 0.96348 0.63368 0.60997 0.0
C5839 C 0.9554 0.63518 0.61084 0.0
C5840 C 0.95308 0.64248 0.61383 0.0
C5841 C 0.94931 0.62901 0.60942 0.0
C5842 C 0.9503 0.62311 0.60372 0.0
C5843 C 0.94248 0.6288 0.6141 0.0
C5844 C 0.93687 0.62294 0.61315 0.0
C5845 C 0.93801 0.61696 0.60766 0.0
C5846 C 0.97774 0.63751 0.61174 0.0
C5847 C 0.98315 0.6436 0.61036 0.0
C5848 C 0.98066 0.62984 0.61268 0.0
C5849 C 0.98872 0.62836 0.61247 0.0
C5850 C 0.99413 0.63451 0.61147 0.0
C5851 C 0.99123 0.64212 0.61024 0.0
C5852 C 0.94474 0.61711 0.60291 0.0
H5853 H 0.95975 0.67342 0.62685 0.0
H5854 H 0.96481 0.66268 0.61866 0.0
H5855 H 0.94573 0.64796 0.62665 0.0
H5856 H 0.94058 0.65872 0.63429 0.0
H5857 H 0.97082 0.6501 0.61872 0.0
H5858 H 0.94692 0.64397 0.61396 0.0
H5859 H 0.96536 0.62815 0.6075 0.0
H5860 H 0.95539 0.62308 0.59993 0.0
H5861 H 0.94153 0.633 0.61876 0.0
H5862 H 0.9318 0.62286 0.61699 0.0
H5863 H 0.98115 0.64956 0.60943 0.0
H5864 H 0.97675 0.62497 0.61382 0.0
H5865 H 0.94573 0.61252 0.59863 0.0
H5866 H 0.99522 0.647 0.60942 0.0
H5867 H 0.99073 0.62238 0.6132 0.0
C5868 C 0.65026 0.30154 0.64474 0.0
C5869 C 0.65363 0.309 0.64367 0.0
C5870 C 0.64339 0.30063 0.64913 0.0
C5871 C 0.63983 0.30713 0.65277 0.0
C5872 C 0.64352 0.31449 0.6521 0.0
C5873 C 0.65023 0.31543 0.64752 0.0
C5874 C 0.63211 0.30639 0.65687 0.0
C5875 C 0.62983 0.29941 0.66062 0.0
C5876 C 0.62232 0.29863 0.664 0.0
C5877 C 0.61719 0.30512 0.66393 0.0
C5878 C 0.61944 0.3122 0.66035 0.0
C5879 C 0.6268 0.31267 0.6567 0.0
C5880 C 0.6141 0.31908 0.65988 0.0
C5881 C 0.60617 0.31818 0.65781 0.0
C5882 C 0.61716 0.3267 0.66066 0.0
C5883 C 0.61261 0.33323 0.65883 0.0
C5884 C 0.60484 0.33233 0.65627 0.0
C5885 C 0.61973 0.29089 0.66717 0.0
C5886 C 0.62162 0.28396 0.66313 0.0
C5887 C 0.61527 0.29034 0.67408 0.0
C5888 C 0.61274 0.28302 0.67686 0.0
C5889 C 0.6145 0.2761 0.67272 0.0
C5890 C 0.61903 0.27669 0.66585 0.0
C5891 C 0.60158 0.32476 0.65601 0.0
H5892 H 0.65289 0.29638 0.64213 0.0
H5893 H 0.64078 0.29486 0.64946 0.0
H5894 H 0.64119 0.31961 0.65503 0.0
H5895 H 0.65266 0.32126 0.64687 0.0
H5896 H 0.63388 0.29454 0.66094 0.0
H5897 H 0.62824 0.31792 0.65343 0.0
H5898 H 0.61141 0.30461 0.66651 0.0
H5899 H 0.60365 0.3124 0.65711 0.0
H5900 H 0.6232 0.3276 0.6624 0.0
H5901 H 0.61524 0.33901 0.65917 0.0
H5902 H 0.62493 0.28416 0.65771 0.0
H5903 H 0.61381 0.29555 0.6774 0.0
H5904 H 0.59563 0.32388 0.65397 0.0
H5905 H 0.62043 0.27152 0.66244 0.0
H5906 H 0.60946 0.28279 0.68229 0.0
C5907 C 0.9566 0.34003 0.88032 0.0
C5908 C 0.94954 0.34096 0.87619 0.0
C5909 C 0.95958 0.34621 0.88487 0.0
C5910 C 0.9556 0.35344 0.88523 0.0
C5911 C 0.94865 0.35434 0.88086 0.0
C5912 C 0.94562 0.34816 0.87649 0.0
C5913 C 0.95856 0.36013 0.89004 0.0
C5914 C 0.9666 0.36181 0.8907 0.0
C5915 C 0.96928 0.36857 0.89471 0.0
C5916 C 0.96359 0.37395 0.89752 0.0
C5917 C 0.9555 0.37249 0.89661 0.0
C5918 C 0.95317 0.36527 0.89348 0.0
C5919 C 0.9494 0.37863 0.89815 0.0
C5920 C 0.95033 0.38442 0.90397 0.0
C5921 C 0.9426 0.37889 0.89344 0.0
C5922 C 0.93691 0.38464 0.89454 0.0
C5923 C 0.93791 0.39045 0.90024 0.0
C5924 C 0.97796 0.37013 0.89555 0.0
C5925 C 0.98344 0.36394 0.89521 0.0
C5926 C 0.98094 0.37779 0.8966 0.0
C5927 C 0.98902 0.37918 0.89714 0.0
C5928 C 0.99446 0.37303 0.8963 0.0
C5929 C 0.99152 0.36538 0.89542 0.0
C5930 C 0.94468 0.39032 0.90494 0.0
H5931 H 0.95972 0.3345 0.88012 0.0
H5932 H 0.96493 0.34528 0.88817 0.0
H5933 H 0.94554 0.35987 0.8807 0.0
H5934 H 0.94025 0.34905 0.87321 0.0
H5935 H 0.97072 0.35799 0.88777 0.0
H5936 H 0.947 0.36375 0.89342 0.0
H5937 H 0.96539 0.37935 0.90026 0.0
H5938 H 0.95542 0.38442 0.90776 0.0
H5939 H 0.94172 0.37481 0.88866 0.0
H5940 H 0.93186 0.38473 0.89068 0.0
H5941 H 0.98157 0.3579 0.89475 0.0
H5942 H 0.97711 0.38283 0.89686 0.0
H5943 H 0.94559 0.39479 0.90935 0.0
H5944 H 0.99546 0.36044 0.89477 0.0
H5945 H 0.99096 0.38512 0.89818 0.0
C5946 C 0.90252 0.67873 0.16276 0.0
C5947 C 0.90338 0.67609 0.15499 0.0
C5948 C 0.89765 0.68516 0.16444 0.0
C5949 C 0.89352 0.68892 0.15837 0.0
C5950 C 0.89449 0.6863 0.15063 0.0
C5951 C 0.89936 0.67998 0.14896 0.0
C5952 C 0.88772 0.69519 0.15995 0.0
C5953 C 0.8898 0.70225 0.16364 0.0
C5954 C 0.88442 0.70856 0.16403 0.0
C5955 C 0.87688 0.70754 0.1607 0.0
C5956 C 0.87487 0.70058 0.15679 0.0
C5957 C 0.88022 0.69437 0.15676 0.0
C5958 C 0.86757 0.69994 0.15204 0.0
C5959 C 0.86038 0.70297 0.15468 0.0
C5960 C 0.86784 0.69624 0.14467 0.0
C5961 C 0.86111 0.69543 0.14014 0.0
C5962 C 0.85392 0.69845 0.14274 0.0
C5963 C 0.88688 0.71642 0.16715 0.0
C5964 C 0.89267 0.71716 0.17302 0.0
C5965 C 0.88367 0.72335 0.16399 0.0
C5966 C 0.8862 0.73071 0.16649 0.0
C5967 C 0.8922 0.73145 0.17208 0.0
C5968 C 0.89535 0.72458 0.1754 0.0
C5969 C 0.8536 0.70221 0.15008 0.0
H5970 H 0.9056 0.67583 0.1675 0.0
H5971 H 0.89694 0.68706 0.17046 0.0
H5972 H 0.89139 0.6891 0.14584 0.0
H5973 H 0.89989 0.67803 0.14294 0.0
H5974 H 0.89575 0.70295 0.16574 0.0
H5975 H 0.87864 0.68889 0.15394 0.0
H5976 H 0.87265 0.71225 0.16085 0.0
H5977 H 0.85995 0.70582 0.16034 0.0
H5978 H 0.8733 0.69397 0.14234 0.0
H5979 H 0.86152 0.69233 0.13461 0.0
H5980 H 0.89524 0.71202 0.17571 0.0
H5981 H 0.87937 0.72319 0.15933 0.0
H5982 H 0.84812 0.70458 0.15224 0.0
H5983 H 0.90007 0.72491 0.17963 0.0
H5984 H 0.88358 0.73586 0.16386 0.0
C5985 C 0.55284 0.66833 0.38298 0.0
C5986 C 0.55837 0.66646 0.37714 0.0
C5987 C 0.5495 0.66239 0.38763 0.0
C5988 C 0.55174 0.65454 0.38654 0.0
C5989 C 0.55708 0.6527 0.38056 0.0
C5990 C 0.56033 0.65856 0.37592 0.0
C5991 C 0.54875 0.64807 0.39154 0.0
C5992 C 0.54071 0.64667 0.39243 0.0
C5993 C 0.53797 0.63945 0.39547 0.0
C5994 C 0.54355 0.63365 0.39756 0.0
C5995 C 0.55168 0.63512 0.39692 0.0
C5996 C 0.5541 0.64256 0.39437 0.0
C5997 C 0.55773 0.62883 0.39803 0.0
C5998 C 0.55662 0.62247 0.40319 0.0
C5999 C 0.56473 0.62908 0.39362 0.0
C6000 C 0.57044 0.62333 0.39443 0.0
C6001 C 0.56925 0.61685 0.39935 0.0
C6002 C 0.52933 0.6378 0.39587 0.0
C6003 C 0.52418 0.64118 0.39037 0.0
C6004 C 0.52612 0.63288 0.4017 0.0
C6005 C 0.51801 0.63146 0.40203 0.0
C6006 C 0.51292 0.63499 0.3966 0.0
C6007 C 0.51611 0.63986 0.39078 0.0
C6008 C 0.56228 0.6165 0.40379 0.0
H6009 H 0.55126 0.67438 0.3841 0.0
H6010 H 0.54537 0.66394 0.3922 0.0
H6011 H 0.55878 0.64668 0.37945 0.0
H6012 H 0.56442 0.65688 0.37136 0.0
H6013 H 0.53665 0.65113 0.39047 0.0
H6014 H 0.56027 0.64403 0.39412 0.0
H6015 H 0.54155 0.62788 0.39928 0.0
H6016 H 0.55137 0.62204 0.40673 0.0
H6017 H 0.56581 0.6336 0.38931 0.0
H6018 H 0.57575 0.62387 0.39098 0.0
H6019 H 0.52633 0.64477 0.3856 0.0
H6020 H 0.52984 0.63022 0.40611 0.0
H6021 H 0.56108 0.61152 0.40754 0.0
H6022 H 0.51235 0.64258 0.38644 0.0
H6023 H 0.51571 0.62774 0.40664 0.0
C6024 C 0.84571 0.60361 0.68026 0.0
C6025 C 0.85293 0.60437 0.67631 0.0
C6026 C 0.84381 0.60867 0.68649 0.0
C6027 C 0.8491 0.61457 0.68882 0.0
C6028 C 0.85632 0.61519 0.68487 0.0
C6029 C 0.85815 0.61025 0.67867 0.0
C6030 C 0.84728 0.62028 0.69517 0.0
C6031 C 0.84408 0.61797 0.70243 0.0
C6032 C 0.84349 0.62337 0.70874 0.0
C6033 C 0.84645 0.63106 0.70759 0.0
C6034 C 0.84995 0.63328 0.70048 0.0
C6035 C 0.84974 0.62805 0.69419 0.0
C6036 C 0.85467 0.64061 0.69972 0.0
C6037 C 0.85247 0.64766 0.70341 0.0
C6038 C 0.86167 0.64048 0.69532 0.0
C6039 C 0.86618 0.64721 0.6944 0.0
C6040 C 0.86395 0.65425 0.69798 0.0
C6041 C 0.84044 0.62085 0.71666 0.0
C6042 C 0.83538 0.61434 0.71753 0.0
C6043 C 0.84274 0.62483 0.72354 0.0
C6044 C 0.84023 0.62236 0.73092 0.0
C6045 C 0.83566 0.61557 0.73179 0.0
C6046 C 0.83309 0.61169 0.725 0.0
C6047 C 0.85709 0.65442 0.70256 0.0
H6048 H 0.8416 0.59906 0.67861 0.0
H6049 H 0.83821 0.60804 0.68942 0.0
H6050 H 0.86064 0.61952 0.68659 0.0
H6051 H 0.86372 0.61105 0.67572 0.0
H6052 H 0.84249 0.61189 0.70324 0.0
H6053 H 0.85194 0.62992 0.68853 0.0
H6054 H 0.8463 0.63532 0.71226 0.0
H6055 H 0.84714 0.648 0.70683 0.0
H6056 H 0.86376 0.63513 0.69263 0.0
H6057 H 0.8715 0.64689 0.69094 0.0
H6058 H 0.8332 0.61119 0.71247 0.0
H6059 H 0.84673 0.62974 0.72341 0.0
H6060 H 0.85522 0.65981 0.70534 0.0
H6061 H 0.82949 0.60648 0.72545 0.0
H6062 H 0.84207 0.6257 0.73599 0.0
C6063 C 0.6679 0.62583 0.95607 0.0
C6064 C 0.66635 0.63148 0.95029 0.0
C6065 C 0.66181 0.62111 0.95898 0.0
C6066 C 0.65415 0.62195 0.95605 0.0
C6067 C 0.65268 0.62764 0.95025 0.0
C6068 C 0.65872 0.63234 0.94741 0.0
C6069 C 0.64756 0.61702 0.95891 0.0
C6070 C 0.64613 0.61598 0.96695 0.0
C6071 C 0.63929 0.6121 0.96963 0.0
C6072 C 0.63372 0.60961 0.96396 0.0
C6073 C 0.635 0.61089 0.95589 0.0
C6074 C 0.64217 0.6141 0.95349 0.0
C6075 C 0.62868 0.60988 0.94992 0.0
C6076 C 0.62326 0.60365 0.95019 0.0
C6077 C 0.62797 0.61545 0.94386 0.0
C6078 C 0.62208 0.61486 0.93826 0.0
C6079 C 0.61651 0.60884 0.93867 0.0
C6080 C 0.63781 0.61121 0.97831 0.0
C6081 C 0.6441 0.61115 0.98368 0.0
C6082 C 0.63014 0.61073 0.98139 0.0
C6083 C 0.62884 0.61033 0.9895 0.0
C6084 C 0.63513 0.61058 0.99483 0.0
C6085 C 0.64278 0.61103 0.99178 0.0
C6086 C 0.61722 0.60312 0.94458 0.0
H6087 H 0.67378 0.62515 0.95839 0.0
H6088 H 0.6631 0.61677 0.96344 0.0
H6089 H 0.64682 0.62855 0.94798 0.0
H6090 H 0.65741 0.63672 0.94299 0.0
H6091 H 0.65018 0.6186 0.97106 0.0
H6092 H 0.64341 0.61474 0.94729 0.0
H6093 H 0.62828 0.60691 0.96577 0.0
H6094 H 0.62365 0.59922 0.95472 0.0
H6095 H 0.63186 0.62045 0.9435 0.0
H6096 H 0.62178 0.61927 0.9337 0.0
H6097 H 0.65012 0.61127 0.9817 0.0
H6098 H 0.62506 0.61089 0.97761 0.0
H6099 H 0.613 0.5984 0.945 0.0
H6100 H 0.6478 0.61149 0.99562 0.0
H6101 H 0.62286 0.60995 0.9916 0.0
C6102 C 0.64317 0.35828 0.20482 0.0
C6103 C 0.64385 0.3539 0.19787 0.0
C6104 C 0.6477 0.36503 0.20592 0.0
C6105 C 0.65292 0.36758 0.20007 0.0
C6106 C 0.65368 0.36311 0.19319 0.0
C6107 C 0.64918 0.35636 0.1921 0.0
C6108 C 0.65709 0.37519 0.20085 0.0
C6109 C 0.66053 0.37745 0.20798 0.0
C6110 C 0.66383 0.38498 0.20892 0.0
C6111 C 0.66372 0.39019 0.20249 0.0
C6112 C 0.66045 0.38793 0.19526 0.0
C6113 C 0.65718 0.38043 0.19452 0.0
C6114 C 0.65972 0.39353 0.18863 0.0
C6115 C 0.65672 0.40109 0.18991 0.0
C6116 C 0.66116 0.39107 0.18089 0.0
C6117 C 0.65924 0.3959 0.17455 0.0
C6118 C 0.6558 0.40326 0.17584 0.0
C6119 C 0.66705 0.38749 0.2167 0.0
C6120 C 0.6637 0.38467 0.22372 0.0
C6121 C 0.67334 0.39284 0.21724 0.0
C6122 C 0.6761 0.39535 0.22456 0.0
C6123 C 0.67274 0.39248 0.23152 0.0
C6124 C 0.66653 0.3871 0.231 0.0
C6125 C 0.65473 0.40589 0.18357 0.0
H6126 H 0.63911 0.3565 0.20936 0.0
H6127 H 0.64691 0.36841 0.21124 0.0
H6128 H 0.65768 0.3649 0.18858 0.0
H6129 H 0.64974 0.35316 0.18664 0.0
H6130 H 0.66065 0.37328 0.21277 0.0
H6131 H 0.65428 0.37882 0.18909 0.0
H6132 H 0.666 0.39609 0.20311 0.0
H6133 H 0.65548 0.40313 0.1958 0.0
H6134 H 0.66351 0.38528 0.17973 0.0
H6135 H 0.66004 0.39372 0.16864 0.0
H6136 H 0.65872 0.38075 0.22363 0.0
H6137 H 0.67617 0.39507 0.21202 0.0
H6138 H 0.65206 0.41154 0.18469 0.0
H6139 H 0.66367 0.38496 0.23625 0.0
H6140 H 0.68089 0.39952 0.22479 0.0
C6141 C 0.83923 0.381 0.45672 0.0
C6142 C 0.84099 0.37541 0.45091 0.0
C6143 C 0.84513 0.38597 0.45961 0.0
C6144 C 0.85281 0.38547 0.45664 0.0
C6145 C 0.85449 0.37987 0.45084 0.0
C6146 C 0.84866 0.37494 0.448 0.0
C6147 C 0.85919 0.39071 0.45941 0.0
C6148 C 0.86068 0.39185 0.46742 0.0
C6149 C 0.86746 0.39591 0.46997 0.0
C6150 C 0.87283 0.39863 0.46424 0.0
C6151 C 0.87145 0.39732 0.45622 0.0
C6152 C 0.86442 0.39378 0.45391 0.0
C6153 C 0.87762 0.39854 0.45019 0.0
C6154 C 0.88213 0.40543 0.4498 0.0
C6155 C 0.87898 0.39256 0.44466 0.0
C6156 C 0.88467 0.39343 0.4389 0.0
C6157 C 0.88917 0.40027 0.4385 0.0
C6158 C 0.86916 0.3967 0.47859 0.0
C6159 C 0.86297 0.39698 0.48407 0.0
C6160 C 0.87692 0.39676 0.48148 0.0
C6161 C 0.87841 0.39685 0.48957 0.0
C6162 C 0.87219 0.39672 0.49495 0.0
C6163 C 0.86447 0.39687 0.49213 0.0
C6164 C 0.88786 0.40631 0.44394 0.0
H6165 H 0.83335 0.38143 0.45908 0.0
H6166 H 0.84368 0.39024 0.46407 0.0
H6167 H 0.86037 0.37923 0.44852 0.0
H6168 H 0.85016 0.37072 0.4435 0.0
H6169 H 0.85678 0.38915 0.47164 0.0
H6170 H 0.86323 0.39299 0.44771 0.0
H6171 H 0.87821 0.40151 0.46597 0.0
H6172 H 0.8812 0.41012 0.45398 0.0
H6173 H 0.87574 0.3871 0.44488 0.0
H6174 H 0.88564 0.38868 0.43479 0.0
H6175 H 0.85692 0.3972 0.48217 0.0
H6176 H 0.88189 0.39642 0.47756 0.0
H6177 H 0.89137 0.41161 0.44376 0.0
H6178 H 0.85958 0.39682 0.49619 0.0
H6179 H 0.88441 0.39668 0.49163 0.0
C6180 C 0.84472 0.40386 0.82767 0.0
C6181 C 0.85168 0.40316 0.83201 0.0
C6182 C 0.84331 0.39888 0.82126 0.0
C6183 C 0.84889 0.39319 0.81911 0.0
C6184 C 0.85595 0.39274 0.82338 0.0
C6185 C 0.85727 0.3976 0.82979 0.0
C6186 C 0.84753 0.38757 0.81254 0.0
C6187 C 0.84412 0.3899 0.80539 0.0
C6188 C 0.84387 0.38469 0.79894 0.0
C6189 C 0.84723 0.37716 0.79975 0.0
C6190 C 0.85074 0.37484 0.80683 0.0
C6191 C 0.85042 0.37992 0.81326 0.0
C6192 C 0.85543 0.3675 0.80747 0.0
C6193 C 0.85304 0.36046 0.80391 0.0
C6194 C 0.86249 0.36757 0.81177 0.0
C6195 C 0.86688 0.36076 0.81272 0.0
C6196 C 0.86444 0.35371 0.80929 0.0
C6197 C 0.84073 0.38733 0.79118 0.0
C6198 C 0.83426 0.39246 0.79068 0.0
C6199 C 0.84437 0.38492 0.78417 0.0
C6200 C 0.84173 0.38764 0.77691 0.0
C6201 C 0.8354 0.39286 0.77646 0.0
C6202 C 0.83163 0.39521 0.78338 0.0
C6203 C 0.85751 0.35362 0.80481 0.0
H6204 H 0.84036 0.40819 0.8293 0.0
H6205 H 0.83783 0.39938 0.8181 0.0
H6206 H 0.86052 0.38865 0.82176 0.0
H6207 H 0.86274 0.39706 0.833 0.0
H6208 H 0.84206 0.39587 0.80472 0.0
H6209 H 0.85272 0.37796 0.81885 0.0
H6210 H 0.84734 0.37318 0.79482 0.0
H6211 H 0.84764 0.3602 0.80058 0.0
H6212 H 0.86467 0.37292 0.81439 0.0
H6213 H 0.87226 0.36103 0.81609 0.0
H6214 H 0.83125 0.39439 0.79593 0.0
H6215 H 0.84947 0.38114 0.78426 0.0
H6216 H 0.85547 0.34822 0.80216 0.0
H6217 H 0.82679 0.39931 0.78315 0.0
H6218 H 0.84478 0.38585 0.77163 0.0
C6219 C 0.83933 0.62604 0.05181 0.0
C6220 C 0.84105 0.63135 0.05789 0.0
C6221 C 0.84532 0.62148 0.04844 0.0
C6222 C 0.85306 0.62212 0.0512 0.0
C6223 C 0.85475 0.62759 0.05711 0.0
C6224 C 0.84885 0.63213 0.0604 0.0
C6225 C 0.8595 0.61707 0.04825 0.0
C6226 C 0.86124 0.61649 0.04026 0.0
C6227 C 0.86813 0.61267 0.03768 0.0
C6228 C 0.87357 0.61005 0.04343 0.0
C6229 C 0.87195 0.6108 0.05155 0.0
C6230 C 0.86453 0.61363 0.05371 0.0
C6231 C 0.87806 0.60945 0.05783 0.0
C6232 C 0.88495 0.60504 0.0565 0.0
C6233 C 0.87724 0.61307 0.06524 0.0
C6234 C 0.88296 0.61239 0.07099 0.0
C6235 C 0.89004 0.60855 0.06944 0.0
C6236 C 0.86973 0.61184 0.02903 0.0
C6237 C 0.86349 0.61162 0.02361 0.0
C6238 C 0.87743 0.61148 0.02602 0.0
C6239 C 0.8788 0.61101 0.01792 0.0
C6240 C 0.87255 0.61106 0.01255 0.0
C6241 C 0.86487 0.6114 0.01553 0.0
C6242 C 0.8909 0.60467 0.06221 0.0
H6243 H 0.83336 0.62527 0.04979 0.0
H6244 H 0.84387 0.6173 0.04389 0.0
H6245 H 0.86069 0.62834 0.05924 0.0
H6246 H 0.8504 0.63629 0.06495 0.0
H6247 H 0.85737 0.61934 0.03612 0.0
H6248 H 0.86267 0.6136 0.05976 0.0
H6249 H 0.87907 0.60755 0.04159 0.0
H6250 H 0.88589 0.60197 0.05104 0.0
H6251 H 0.87234 0.61679 0.0667 0.0
H6252 H 0.88195 0.61519 0.0766 0.0
H6253 H 0.85745 0.61166 0.02555 0.0
H6254 H 0.88248 0.61176 0.02984 0.0
H6255 H 0.89627 0.60156 0.06087 0.0
H6256 H 0.85987 0.6117 0.01163 0.0
H6257 H 0.8848 0.61073 0.01586 0.0
C6258 C 0.64203 0.64906 0.30331 0.0
C6259 C 0.64314 0.65367 0.31006 0.0
C6260 C 0.64663 0.64239 0.30202 0.0
C6261 C 0.65237 0.64017 0.30749 0.0
C6262 C 0.65371 0.64495 0.31405 0.0
C6263 C 0.64921 0.65168 0.31528 0.0
C6264 C 0.65649 0.63255 0.30676 0.0
C6265 C 0.65993 0.63021 0.29968 0.0
C6266 C 0.66353 0.62281 0.29898 0.0
C6267 C 0.66372 0.6178 0.30557 0.0
C6268 C 0.66018 0.62003 0.3127 0.0
C6269 C 0.6566 0.62743 0.31318 0.0
C6270 C 0.65957 0.61452 0.3195 0.0
C6271 C 0.65856 0.60641 0.31833 0.0
C6272 C 0.65926 0.61741 0.32724 0.0
C6273 C 0.65728 0.6125 0.33349 0.0
C6274 C 0.65577 0.6045 0.33223 0.0
C6275 C 0.66671 0.62018 0.29126 0.0
C6276 C 0.66265 0.62195 0.2843 0.0
C6277 C 0.67369 0.61581 0.29075 0.0
C6278 C 0.6765 0.61324 0.28346 0.0
C6279 C 0.67234 0.6149 0.27652 0.0
C6280 C 0.66542 0.61935 0.27705 0.0
C6281 C 0.65681 0.60146 0.32463 0.0
H6282 H 0.63742 0.65046 0.29917 0.0
H6283 H 0.64545 0.63877 0.29694 0.0
H6284 H 0.65819 0.64343 0.31829 0.0
H6285 H 0.65044 0.65527 0.32036 0.0
H6286 H 0.65983 0.63419 0.29472 0.0
H6287 H 0.6535 0.62913 0.31846 0.0
H6288 H 0.66644 0.61209 0.30506 0.0
H6289 H 0.65874 0.6039 0.31251 0.0
H6290 H 0.66029 0.62355 0.32847 0.0
H6291 H 0.65662 0.61506 0.33926 0.0
H6292 H 0.65719 0.62518 0.28446 0.0
H6293 H 0.67704 0.61445 0.29597 0.0
H6294 H 0.65602 0.59526 0.32349 0.0
H6295 H 0.66201 0.62066 0.27186 0.0
H6296 H 0.68196 0.61001 0.28327 0.0
C6297 C 0.66792 0.38181 0.55312 0.0
C6298 C 0.66632 0.37618 0.55894 0.0
C6299 C 0.66183 0.3864 0.55001 0.0
C6300 C 0.65409 0.38542 0.55271 0.0
C6301 C 0.65253 0.3796 0.55833 0.0
C6302 C 0.65856 0.37507 0.56141 0.0
C6303 C 0.64755 0.39041 0.54987 0.0
C6304 C 0.64646 0.39191 0.54185 0.0
C6305 C 0.6396 0.39566 0.53917 0.0
C6306 C 0.63387 0.39801 0.54465 0.0
C6307 C 0.63495 0.39656 0.55268 0.0
C6308 C 0.64188 0.39298 0.55522 0.0
C6309 C 0.62858 0.39778 0.55844 0.0
C6310 C 0.62502 0.40512 0.55948 0.0
C6311 C 0.62625 0.39147 0.56319 0.0
C6312 C 0.62048 0.39245 0.56887 0.0
C6313 C 0.61693 0.39979 0.57006 0.0
C6314 C 0.63813 0.39636 0.5306 0.0
C6315 C 0.64422 0.3985 0.52547 0.0
C6316 C 0.63079 0.39436 0.52743 0.0
C6317 C 0.62965 0.39419 0.51931 0.0
C6318 C 0.63583 0.39604 0.51418 0.0
C6319 C 0.64306 0.3984 0.51735 0.0
C6320 C 0.61931 0.40615 0.56532 0.0
H6321 H 0.67387 0.3828 0.55114 0.0
H6322 H 0.66319 0.39084 0.54567 0.0
H6323 H 0.64661 0.37851 0.56036 0.0
H6324 H 0.65713 0.37066 0.56576 0.0
H6325 H 0.6507 0.38969 0.53767 0.0
H6326 H 0.6427 0.3919 0.56144 0.0
H6327 H 0.62845 0.40069 0.54267 0.0
H6328 H 0.6268 0.41008 0.55594 0.0
H6329 H 0.62886 0.38573 0.56245 0.0
H6330 H 0.61872 0.38738 0.57227 0.0
H6331 H 0.6499 0.4002 0.52773 0.0
H6332 H 0.626 0.39259 0.53121 0.0
H6333 H 0.61687 0.41194 0.56619 0.0
H6334 H 0.64786 0.40012 0.51356 0.0
H6335 H 0.62401 0.39235 0.51705 0.0
C6336 C 0.67934 0.84434 0.60445 0.0
C6337 C 0.67511 0.85137 0.60524 0.0
C6338 C 0.68593 0.8429 0.6092 0.0
C6339 C 0.68836 0.8485 0.61475 0.0
C6340 C 0.68427 0.85565 0.61521 0.0
C6341 C 0.6777 0.85702 0.6106 0.0
C6342 C 0.69496 0.84707 0.6203 0.0
C6343 C 0.70212 0.84376 0.61791 0.0
C6344 C 0.70862 0.84354 0.62307 0.0
C6345 C 0.70783 0.84692 0.63061 0.0
C6346 C 0.70073 0.85036 0.63298 0.0
C6347 C 0.69425 0.84988 0.62798 0.0
C6348 C 0.70012 0.8552 0.64023 0.0
C6349 C 0.704 0.85315 0.64722 0.0
C6350 C 0.69556 0.86209 0.64012 0.0
C6351 C 0.69473 0.86668 0.64681 0.0
C6352 C 0.69865 0.86471 0.65376 0.0
C6353 C 0.71636 0.84037 0.62041 0.0
C6354 C 0.7168 0.83409 0.61505 0.0
C6355 C 0.72343 0.84371 0.62307 0.0
C6356 C 0.73067 0.84095 0.62043 0.0
C6357 C 0.73109 0.83484 0.61494 0.0
C6358 C 0.72407 0.83138 0.61233 0.0
C6359 C 0.70327 0.85787 0.65392 0.0
H6360 H 0.67745 0.83992 0.6003 0.0
H6361 H 0.68898 0.83735 0.60869 0.0
H6362 H 0.68611 0.86024 0.61919 0.0
H6363 H 0.67464 0.86256 0.6112 0.0
H6364 H 0.70274 0.84175 0.61192 0.0
H6365 H 0.68863 0.85208 0.62996 0.0
H6366 H 0.71278 0.84708 0.63457 0.0
H6367 H 0.70752 0.84788 0.64754 0.0
H6368 H 0.69262 0.86401 0.63483 0.0
H6369 H 0.69095 0.87177 0.64652 0.0
H6370 H 0.71154 0.83123 0.61296 0.0
H6371 H 0.72343 0.84867 0.62702 0.0
H6372 H 0.70635 0.85619 0.65922 0.0
H6373 H 0.72421 0.82656 0.6082 0.0
H6374 H 0.73596 0.8438 0.62248 0.0
C6375 C 0.17986 0.66215 0.40367 0.0
C6376 C 0.17603 0.65486 0.40304 0.0
C6377 C 0.1861 0.66404 0.3986 0.0
C6378 C 0.18854 0.65868 0.39283 0.0
C6379 C 0.1847 0.6514 0.39231 0.0
C6380 C 0.17851 0.64956 0.39727 0.0
C6381 C 0.195 0.66044 0.38721 0.0
C6382 C 0.20216 0.66378 0.38961 0.0
C6383 C 0.20863 0.66401 0.38444 0.0
C6384 C 0.20784 0.66075 0.37687 0.0
C6385 C 0.20073 0.65736 0.37445 0.0
C6386 C 0.19427 0.65774 0.37949 0.0
C6387 C 0.20014 0.65265 0.36712 0.0
C6388 C 0.20404 0.65485 0.36019 0.0
C6389 C 0.19565 0.64572 0.3671 0.0
C6390 C 0.19486 0.64125 0.36033 0.0
C6391 C 0.19867 0.64346 0.35338 0.0
C6392 C 0.21645 0.66688 0.38717 0.0
C6393 C 0.21716 0.67347 0.3921 0.0
C6394 C 0.22331 0.66285 0.38498 0.0
C6395 C 0.23063 0.66523 0.38774 0.0
C6396 C 0.23132 0.67166 0.39282 0.0
C6397 C 0.22454 0.67586 0.39488 0.0
C6398 C 0.20334 0.65027 0.3534 0.0
H6399 H 0.17812 0.66632 0.40813 0.0
H6400 H 0.18895 0.66969 0.39915 0.0
H6401 H 0.18652 0.64702 0.38809 0.0
H6402 H 0.17565 0.64393 0.39659 0.0
H6403 H 0.20283 0.66571 0.39562 0.0
H6404 H 0.18866 0.6555 0.37751 0.0
H6405 H 0.21283 0.66058 0.37295 0.0
H6406 H 0.20756 0.66013 0.35999 0.0
H6407 H 0.19276 0.64366 0.37237 0.0
H6408 H 0.19119 0.63607 0.36053 0.0
H6409 H 0.21201 0.67675 0.39384 0.0
H6410 H 0.22304 0.65767 0.38132 0.0
H6411 H 0.20652 0.65204 0.34819 0.0
H6412 H 0.22492 0.68083 0.39881 0.0
H6413 H 0.23578 0.66191 0.38605 0.0
C6414 C 0.62656 0.95671 0.66805 0.0
C6415 C 0.63139 0.95014 0.66696 0.0
C6416 C 0.62197 0.95955 0.66182 0.0
C6417 C 0.62221 0.95586 0.65444 0.0
C6418 C 0.6272 0.94935 0.65343 0.0
C6419 C 0.63166 0.94649 0.65963 0.0
C6420 C 0.61743 0.95868 0.64768 0.0
C6421 C 0.61642 0.96671 0.64613 0.0
C6422 C 0.61275 0.96927 0.63916 0.0
C6423 C 0.61038 0.9636 0.6336 0.0
C6424 C 0.6114 0.95553 0.63506 0.0
C6425 C 0.61446 0.95321 0.64233 0.0
C6426 C 0.60998 0.94945 0.62888 0.0
C6427 C 0.60411 0.95035 0.62313 0.0
C6428 C 0.61479 0.94272 0.62855 0.0
C6429 C 0.61379 0.9371 0.62271 0.0
C6430 C 0.60811 0.93813 0.6169 0.0
C6431 C 0.6119 0.97786 0.63753 0.0
C6432 C 0.61029 0.98316 0.64365 0.0
C6433 C 0.61298 0.98088 0.62992 0.0
C6434 C 0.61261 0.98897 0.62851 0.0
C6435 C 0.61119 0.99427 0.63466 0.0
C6436 C 0.61 0.99125 0.64225 0.0
C6437 C 0.60325 0.94478 0.61714 0.0
H6438 H 0.62631 0.9596 0.6737 0.0
H6439 H 0.6182 0.96455 0.66281 0.0
H6440 H 0.62776 0.94648 0.64779 0.0
H6441 H 0.63542 0.94146 0.65868 0.0
H6442 H 0.61884 0.97097 0.65017 0.0
H6443 H 0.61479 0.94703 0.64376 0.0
H6444 H 0.60791 0.96549 0.62807 0.0
H6445 H 0.60023 0.95537 0.6232 0.0
H6446 H 0.61957 0.94187 0.63264 0.0
H6447 H 0.61772 0.93211 0.62252 0.0
H6448 H 0.60933 0.98108 0.64958 0.0
H6449 H 0.61435 0.97705 0.62506 0.0
H6450 H 0.59886 0.9457 0.61264 0.0
H6451 H 0.60907 0.99514 0.64718 0.0
H6452 H 0.61354 0.99108 0.62259 0.0
C6453 C 0.3272 0.34623 0.90414 0.0
C6454 C 0.33163 0.35308 0.90282 0.0
C6455 C 0.32101 0.34422 0.89907 0.0
C6456 C 0.31913 0.34905 0.89263 0.0
C6457 C 0.32358 0.35591 0.89144 0.0
C6458 C 0.32979 0.35779 0.89634 0.0
C6459 C 0.31262 0.34721 0.88706 0.0
C6460 C 0.30535 0.34417 0.88956 0.0
C6461 C 0.29892 0.34371 0.88432 0.0
C6462 C 0.29985 0.34671 0.87663 0.0
C6463 C 0.307 0.34995 0.87418 0.0
C6464 C 0.31344 0.3495 0.87921 0.0
C6465 C 0.3077 0.35465 0.86683 0.0
C6466 C 0.30374 0.3526 0.85988 0.0
C6467 C 0.31237 0.36147 0.86684 0.0
C6468 C 0.31336 0.36589 0.86007 0.0
C6469 C 0.30962 0.36373 0.8531 0.0
C6470 C 0.29107 0.34077 0.88703 0.0
C6471 C 0.29039 0.33495 0.89288 0.0
C6472 C 0.28412 0.34391 0.88386 0.0
C6473 C 0.27679 0.34137 0.88645 0.0
C6474 C 0.2761 0.33578 0.89245 0.0
C6475 C 0.283 0.33254 0.89561 0.0
C6476 C 0.30467 0.35714 0.85307 0.0
H6477 H 0.32842 0.34252 0.90915 0.0
H6478 H 0.31772 0.3389 0.90017 0.0
H6479 H 0.32222 0.35997 0.88675 0.0
H6480 H 0.33311 0.36307 0.89509 0.0
H6481 H 0.3046 0.34256 0.89566 0.0
H6482 H 0.31912 0.35142 0.8771 0.0
H6483 H 0.29497 0.34674 0.87259 0.0
H6484 H 0.30008 0.34742 0.85965 0.0
H6485 H 0.31525 0.36347 0.87213 0.0
H6486 H 0.31706 0.37106 0.86028 0.0
H6487 H 0.29557 0.33229 0.89542 0.0
H6488 H 0.28424 0.34854 0.87953 0.0
H6489 H 0.30169 0.35539 0.84774 0.0
H6490 H 0.28272 0.32831 0.90034 0.0
H6491 H 0.27161 0.34396 0.88383 0.0
C6492 C 0.39622 0.56152 0.61528 0.0
C6493 C 0.39963 0.56885 0.61694 0.0
C6494 C 0.39554 0.5558 0.6211 0.0
C6495 C 0.39808 0.55731 0.62877 0.0
C6496 C 0.40151 0.56461 0.63047 0.0
C6497 C 0.40231 0.57031 0.6246 0.0
C6498 C 0.39649 0.55152 0.63508 0.0
C6499 C 0.39787 0.54348 0.6339 0.0
C6500 C 0.39548 0.53786 0.63948 0.0
C6501 C 0.39183 0.54052 0.64642 0.0
C6502 C 0.3905 0.54856 0.64776 0.0
C6503 C 0.39288 0.55399 0.64203 0.0
C6504 C 0.38606 0.55131 0.6548 0.0
C6505 C 0.37976 0.54691 0.6578 0.0
C6506 C 0.38772 0.55864 0.65821 0.0
C6507 C 0.38293 0.56168 0.66412 0.0
C6508 C 0.37648 0.55739 0.66694 0.0
C6509 C 0.39636 0.52924 0.63791 0.0
C6510 C 0.39605 0.52626 0.63019 0.0
C6511 C 0.39713 0.52384 0.64413 0.0
C6512 C 0.39716 0.51576 0.64272 0.0
C6513 C 0.39665 0.51287 0.63505 0.0
C6514 C 0.39626 0.51817 0.62878 0.0
C6515 C 0.37508 0.54988 0.66384 0.0
H6516 H 0.39381 0.56027 0.60955 0.0
H6517 H 0.39269 0.5503 0.61966 0.0
H6518 H 0.40352 0.56594 0.63635 0.0
H6519 H 0.40496 0.57589 0.62608 0.0
H6520 H 0.40079 0.54165 0.62857 0.0
H6521 H 0.39149 0.56015 0.64275 0.0
H6522 H 0.38983 0.53633 0.65073 0.0
H6523 H 0.3782 0.5413 0.65529 0.0
H6524 H 0.3926 0.56216 0.65617 0.0
H6525 H 0.3841 0.56756 0.66621 0.0
H6526 H 0.39531 0.53011 0.6252 0.0
H6527 H 0.39765 0.5258 0.65014 0.0
H6528 H 0.3702 0.54638 0.6659 0.0
H6529 H 0.3958 0.51604 0.62282 0.0
H6530 H 0.39748 0.51175 0.64764 0.0
C6531 C 0.82775 0.16259 0.10367 0.0
C6532 C 0.83204 0.15561 0.10447 0.0
C6533 C 0.82125 0.16403 0.10852 0.0
C6534 C 0.81896 0.15846 0.11419 0.0
C6535 C 0.82319 0.15138 0.11472 0.0
C6536 C 0.82969 0.15003 0.10999 0.0
C6537 C 0.81239 0.15992 0.11976 0.0
C6538 C 0.80526 0.16335 0.11738 0.0
C6539 C 0.79883 0.16383 0.12262 0.0
C6540 C 0.79966 0.1606 0.13022 0.0
C6541 C 0.80667 0.15698 0.13255 0.0
C6542 C 0.81309 0.15715 0.12745 0.0
C6543 C 0.80727 0.15236 0.13994 0.0
C6544 C 0.8037 0.15483 0.14696 0.0
C6545 C 0.81151 0.14527 0.13995 0.0
C6546 C 0.81242 0.14093 0.14679 0.0
C6547 C 0.80898 0.14345 0.15381 0.0
C6548 C 0.79112 0.16717 0.12 0.0
C6549 C 0.79073 0.17316 0.11431 0.0
C6550 C 0.78402 0.16424 0.12306 0.0
C6551 C 0.77681 0.1672 0.12055 0.0
C6552 C 0.77644 0.17308 0.11481 0.0
C6553 C 0.78347 0.17602 0.11168 0.0
C6554 C 0.80454 0.1504 0.15384 0.0
H6555 H 0.8295 0.16696 0.0994 0.0
H6556 H 0.81813 0.16953 0.10796 0.0
H6557 H 0.82149 0.14683 0.11881 0.0
H6558 H 0.83289 0.14457 0.11063 0.0
H6559 H 0.80463 0.16527 0.11137 0.0
H6560 H 0.81866 0.15482 0.12943 0.0
H6561 H 0.7948 0.16069 0.13429 0.0
H6562 H 0.80041 0.16025 0.14717 0.0
H6563 H 0.81413 0.14301 0.13462 0.0
H6564 H 0.81576 0.13553 0.14659 0.0
H6565 H 0.79602 0.17569 0.11186 0.0
H6566 H 0.78394 0.15947 0.12723 0.0
H6567 H 0.80188 0.15249 0.15921 0.0
H6568 H 0.78336 0.18054 0.10722 0.0
H6569 H 0.77148 0.16467 0.12292 0.0
C6570 C 0.62596 0.05096 0.83875 0.0
C6571 C 0.63088 0.05742 0.84006 0.0
C6572 C 0.62123 0.04805 0.84483 0.0
C6573 C 0.62143 0.05156 0.8523 0.0
C6574 C 0.62648 0.05798 0.85353 0.0
C6575 C 0.63108 0.06091 0.84747 0.0
C6576 C 0.61667 0.04854 0.85898 0.0
C6577 C 0.61578 0.04047 0.86038 0.0
C6578 C 0.61256 0.03771 0.86752 0.0
C6579 C 0.61025 0.04325 0.87323 0.0
C6580 C 0.61095 0.05134 0.87178 0.0
C6581 C 0.61375 0.05385 0.86448 0.0
C6582 C 0.60964 0.05729 0.87801 0.0
C6583 C 0.60341 0.05669 0.88338 0.0
C6584 C 0.61477 0.06374 0.87857 0.0
C6585 C 0.61365 0.06949 0.88422 0.0
C6586 C 0.60746 0.06892 0.88958 0.0
C6587 C 0.61215 0.02908 0.86919 0.0
C6588 C 0.61781 0.02395 0.86604 0.0
C6589 C 0.60619 0.02588 0.87395 0.0
C6590 C 0.6059 0.01779 0.87547 0.0
C6591 C 0.61149 0.01272 0.87218 0.0
C6592 C 0.61743 0.0159 0.86745 0.0
C6593 C 0.60233 0.06247 0.88913 0.0
H6594 H 0.6258 0.04816 0.83305 0.0
H6595 H 0.61741 0.04312 0.84367 0.0
H6596 H 0.62702 0.06069 0.85925 0.0
H6597 H 0.63495 0.06583 0.84861 0.0
H6598 H 0.61783 0.03637 0.856 0.0
H6599 H 0.614 0.06007 0.8632 0.0
H6600 H 0.60831 0.04128 0.87895 0.0
H6601 H 0.59934 0.05182 0.88309 0.0
H6602 H 0.61978 0.0643 0.87472 0.0
H6603 H 0.61778 0.07431 0.88454 0.0
H6604 H 0.62266 0.02612 0.86258 0.0
H6605 H 0.60167 0.02958 0.87642 0.0
H6606 H 0.59748 0.06191 0.8932 0.0
H6607 H 0.62189 0.01216 0.86493 0.0
H6608 H 0.6012 0.01548 0.87907 0.0
C6609 C 0.90059 0.94671 0.3925 0.0
C6610 C 0.89963 0.93867 0.39094 0.0
C6611 C 0.89972 0.95231 0.38657 0.0
C6612 C 0.89833 0.95005 0.37874 0.0
C6613 C 0.8983 0.94192 0.37708 0.0
C6614 C 0.89873 0.93635 0.38309 0.0
C6615 C 0.89648 0.95603 0.37247 0.0
C6616 C 0.89828 0.96408 0.3734 0.0
C6617 C 0.89581 0.96972 0.36787 0.0
C6618 C 0.89188 0.96718 0.36108 0.0
C6619 C 0.8902 0.95922 0.35989 0.0
C6620 C 0.89234 0.95377 0.36567 0.0
C6621 C 0.88571 0.95656 0.35289 0.0
C6622 C 0.87918 0.9608 0.35021 0.0
C6623 C 0.88762 0.94944 0.34918 0.0
C6624 C 0.88287 0.94645 0.3432 0.0
C6625 C 0.87616 0.95055 0.34074 0.0
C6626 C 0.89686 0.9783 0.36935 0.0
C6627 C 0.89568 0.98146 0.37689 0.0
C6628 C 0.8985 0.98348 0.36314 0.0
C6629 C 0.89854 0.9916 0.36434 0.0
C6630 C 0.89694 0.99476 0.37178 0.0
C6631 C 0.89574 0.9896 0.37809 0.0
C6632 C 0.87446 0.95783 0.3442 0.0
H6633 H 0.90183 0.94876 0.39838 0.0
H6634 H 0.89989 0.95839 0.38831 0.0
H6635 H 0.89777 0.93974 0.37116 0.0
H6636 H 0.89812 0.93022 0.38156 0.0
H6637 H 0.90162 0.96607 0.3784 0.0
H6638 H 0.89037 0.9478 0.36495 0.0
H6639 H 0.88995 0.97143 0.35677 0.0
H6640 H 0.87749 0.96626 0.35298 0.0
H6641 H 0.89267 0.94607 0.35104 0.0
H6642 H 0.88427 0.94076 0.34078 0.0
H6643 H 0.89434 0.97768 0.38182 0.0
H6644 H 0.89964 0.98128 0.35729 0.0
H6645 H 0.86933 0.96113 0.34242 0.0
H6646 H 0.89449 0.99185 0.38389 0.0
H6647 H 0.89972 0.99541 0.35939 0.0
C6648 C 0.40547 0.32339 0.15547 0.0
C6649 C 0.40253 0.33104 0.15456 0.0
C6650 C 0.40049 0.31721 0.15749 0.0
C6651 C 0.39246 0.31856 0.1588 0.0
C6652 C 0.38967 0.32633 0.15855 0.0
C6653 C 0.39463 0.33249 0.1564 0.0
C6654 C 0.38691 0.31186 0.15961 0.0
C6655 C 0.38911 0.30487 0.16341 0.0
C6656 C 0.38418 0.29823 0.16331 0.0
C6657 C 0.37687 0.29876 0.1595 0.0
C6658 C 0.3745 0.30576 0.15586 0.0
C6659 C 0.37956 0.31223 0.15592 0.0
C6660 C 0.36699 0.30627 0.1515 0.0
C6661 C 0.36482 0.30038 0.14617 0.0
C6662 C 0.36223 0.31297 0.15222 0.0
C6663 C 0.35555 0.31385 0.14756 0.0
C6664 C 0.35356 0.30809 0.14204 0.0
C6665 C 0.38683 0.29063 0.16676 0.0
C6666 C 0.39473 0.28827 0.16619 0.0
C6667 C 0.38144 0.28547 0.1703 0.0
C6668 C 0.3838 0.27805 0.17287 0.0
C6669 C 0.39161 0.27559 0.17198 0.0
C6670 C 0.39709 0.28086 0.16881 0.0
C6671 C 0.35817 0.3013 0.14145 0.0
H6672 H 0.41159 0.32213 0.15435 0.0
H6673 H 0.40287 0.31133 0.1576 0.0
H6674 H 0.38357 0.32764 0.15975 0.0
H6675 H 0.39219 0.33832 0.15582 0.0
H6676 H 0.39469 0.3046 0.16642 0.0
H6677 H 0.37791 0.31744 0.15268 0.0
H6678 H 0.37305 0.29369 0.15921 0.0
H6679 H 0.3684 0.29519 0.14544 0.0
H6680 H 0.36373 0.31758 0.15632 0.0
H6681 H 0.35206 0.31913 0.14812 0.0
H6682 H 0.39906 0.292 0.16343 0.0
H6683 H 0.37536 0.28714 0.17104 0.0
H6684 H 0.35668 0.29676 0.13727 0.0
H6685 H 0.40315 0.27912 0.16802 0.0
H6686 H 0.37948 0.27418 0.17548 0.0
C6687 C 0.44571 0.6174 0.90361 0.0
C6688 C 0.43915 0.61709 0.89862 0.0
C6689 C 0.45133 0.62336 0.90275 0.0
C6690 C 0.45052 0.62905 0.89682 0.0
C6691 C 0.44398 0.6286 0.8918 0.0
C6692 C 0.43836 0.62276 0.89272 0.0
C6693 C 0.45647 0.63536 0.89558 0.0
C6694 C 0.46457 0.63396 0.89635 0.0
C6695 C 0.47009 0.63964 0.89392 0.0
C6696 C 0.46737 0.64666 0.89047 0.0
C6697 C 0.4593 0.64813 0.88965 0.0
C6698 C 0.45399 0.64267 0.89274 0.0
C6699 C 0.45629 0.65488 0.88492 0.0
C6700 C 0.4603 0.6621 0.88451 0.0
C6701 C 0.44936 0.65399 0.88049 0.0
C6702 C 0.44644 0.66012 0.87596 0.0
C6703 C 0.45045 0.66726 0.87553 0.0
C6704 C 0.47868 0.63795 0.89431 0.0
C6705 C 0.48202 0.63412 0.90083 0.0
C6706 C 0.48361 0.64007 0.88804 0.0
C6707 C 0.4916 0.63833 0.88822 0.0
C6708 C 0.4949 0.63438 0.89465 0.0
C6709 C 0.49007 0.63239 0.90102 0.0
C6710 C 0.45743 0.66822 0.87979 0.0
H6711 H 0.44648 0.61305 0.90817 0.0
H6712 H 0.45627 0.62351 0.90673 0.0
H6713 H 0.44325 0.63266 0.88696 0.0
H6714 H 0.43351 0.62252 0.88863 0.0
H6715 H 0.4666 0.62831 0.89842 0.0
H6716 H 0.44777 0.64397 0.89263 0.0
H6717 H 0.47155 0.65087 0.88823 0.0
H6718 H 0.4656 0.66307 0.88785 0.0
H6719 H 0.44622 0.64847 0.88033 0.0
H6720 H 0.44112 0.6592 0.87261 0.0
H6721 H 0.47841 0.63246 0.90579 0.0
H6722 H 0.48127 0.64292 0.88287 0.0
H6723 H 0.46062 0.6737 0.87952 0.0
H6724 H 0.49248 0.62935 0.90605 0.0
H6725 H 0.49521 0.63998 0.88326 0.0
C6726 C 0.10329 0.68336 0.65485 0.0
C6727 C 0.10651 0.67578 0.65498 0.0
C6728 C 0.1079 0.68986 0.65683 0.0
C6729 C 0.1158 0.68887 0.65896 0.0
C6730 C 0.1188 0.68123 0.65968 0.0
C6731 C 0.1142 0.67475 0.65774 0.0
C6732 C 0.12113 0.69573 0.65948 0.0
C6733 C 0.1188 0.70273 0.66313 0.0
C6734 C 0.12365 0.70943 0.66294 0.0
C6735 C 0.13095 0.70895 0.65906 0.0
C6736 C 0.1334 0.70194 0.65551 0.0
C6737 C 0.12844 0.6954 0.65574 0.0
C6738 C 0.14096 0.7014 0.65121 0.0
C6739 C 0.14335 0.70737 0.64604 0.0
C6740 C 0.1456 0.69461 0.65187 0.0
C6741 C 0.15234 0.69372 0.64732 0.0
C6742 C 0.15466 0.69962 0.64207 0.0
C6743 C 0.12097 0.71701 0.66644 0.0
C6744 C 0.11301 0.7192 0.66623 0.0
C6745 C 0.1264 0.7223 0.66973 0.0
C6746 C 0.124 0.72968 0.67235 0.0
C6747 C 0.1161 0.73196 0.67181 0.0
C6748 C 0.1106 0.72656 0.66892 0.0
C6749 C 0.15012 0.70647 0.64149 0.0
H6750 H 0.09737 0.68432 0.65277 0.0
H6751 H 0.10542 0.69567 0.65619 0.0
H6752 H 0.12482 0.68027 0.66148 0.0
H6753 H 0.11675 0.66895 0.65812 0.0
H6754 H 0.11321 0.70292 0.66615 0.0
H6755 H 0.13012 0.69012 0.65264 0.0
H6756 H 0.1347 0.71406 0.65869 0.0
H6757 H 0.13985 0.71262 0.64533 0.0
H6758 H 0.14396 0.68993 0.65584 0.0
H6759 H 0.15565 0.68832 0.6478 0.0
H6760 H 0.10864 0.71537 0.66367 0.0
H6761 H 0.13254 0.72077 0.67024 0.0
H6762 H 0.15179 0.71111 0.63748 0.0
H6763 H 0.10448 0.72816 0.66841 0.0
H6764 H 0.12834 0.73366 0.67472 0.0
C6765 C 0.05069 0.34346 0.37401 0.0
C6766 C 0.05798 0.34014 0.3759 0.0
C6767 C 0.04751 0.34939 0.37868 0.0
C6768 C 0.05156 0.35212 0.38533 0.0
C6769 C 0.05868 0.34852 0.38741 0.0
C6770 C 0.06186 0.34261 0.38273 0.0
C6771 C 0.04869 0.35913 0.38965 0.0
C6772 C 0.04064 0.36036 0.39072 0.0
C6773 C 0.03779 0.36748 0.39376 0.0
C6774 C 0.04318 0.37327 0.39609 0.0
C6775 C 0.05129 0.37206 0.39525 0.0
C6776 C 0.05398 0.36498 0.39203 0.0
C6777 C 0.05699 0.37845 0.3969 0.0
C6778 C 0.05549 0.38611 0.39428 0.0
C6779 C 0.06422 0.37682 0.40052 0.0
C6780 C 0.06993 0.38266 0.40125 0.0
C6781 C 0.06858 0.39024 0.39826 0.0
C6782 C 0.02919 0.369 0.39391 0.0
C6783 C 0.02445 0.36633 0.38771 0.0
C6784 C 0.02566 0.37319 0.40008 0.0
C6785 C 0.01756 0.37458 0.40008 0.0
C6786 C 0.01285 0.37176 0.39393 0.0
C6787 C 0.0164 0.36769 0.38773 0.0
C6788 C 0.06122 0.39192 0.39493 0.0
H6789 H 0.04765 0.3418 0.36869 0.0
H6790 H 0.04208 0.35211 0.37682 0.0
H6791 H 0.06188 0.3504 0.39256 0.0
H6792 H 0.06747 0.34011 0.38434 0.0
H6793 H 0.03655 0.35579 0.38906 0.0
H6794 H 0.06019 0.36423 0.39093 0.0
H6795 H 0.04106 0.37883 0.39832 0.0
H6796 H 0.05003 0.38754 0.39138 0.0
H6797 H 0.06549 0.37099 0.4027 0.0
H6798 H 0.07541 0.38122 0.4041 0.0
H6799 H 0.02697 0.3633 0.38274 0.0
H6800 H 0.02913 0.3753 0.40496 0.0
H6801 H 0.05999 0.39767 0.39253 0.0
H6802 H 0.01295 0.36565 0.3828 0.0
H6803 H 0.01497 0.37776 0.40492 0.0
C6804 C 0.4049 0.68315 0.35153 0.0
C6805 C 0.4018 0.6756 0.35269 0.0
C6806 C 0.39997 0.68948 0.3498 0.0
C6807 C 0.39183 0.68839 0.34909 0.0
C6808 C 0.38881 0.68073 0.34975 0.0
C6809 C 0.39371 0.67445 0.35166 0.0
C6810 C 0.38643 0.69525 0.34843 0.0
C6811 C 0.38865 0.70211 0.34442 0.0
C6812 C 0.3839 0.70888 0.34457 0.0
C6813 C 0.37662 0.70854 0.3485 0.0
C6814 C 0.37419 0.70164 0.35228 0.0
C6815 C 0.37919 0.69512 0.35232 0.0
C6816 C 0.36659 0.70117 0.35653 0.0
C6817 C 0.36411 0.70726 0.3615 0.0
C6818 C 0.36202 0.69433 0.35603 0.0
C6819 C 0.35526 0.69348 0.36055 0.0
C6820 C 0.35284 0.6995 0.36562 0.0
C6821 C 0.38676 0.71641 0.34108 0.0
C6822 C 0.39478 0.71834 0.34133 0.0
C6823 C 0.38151 0.72192 0.33785 0.0
C6824 C 0.38417 0.72927 0.33531 0.0
C6825 C 0.39216 0.73125 0.3358 0.0
C6826 C 0.39744 0.72561 0.33867 0.0
C6827 C 0.35731 0.70641 0.36603 0.0
H6828 H 0.41112 0.68423 0.35221 0.0
H6829 H 0.40255 0.69527 0.34941 0.0
H6830 H 0.38261 0.67959 0.34906 0.0
H6831 H 0.39106 0.66877 0.35267 0.0
H6832 H 0.39412 0.70219 0.3412 0.0
H6833 H 0.37753 0.69002 0.35573 0.0
H6834 H 0.37289 0.71367 0.34875 0.0
H6835 H 0.36755 0.71257 0.36208 0.0
H6836 H 0.36374 0.68955 0.35221 0.0
H6837 H 0.35202 0.68803 0.3602 0.0
H6838 H 0.39903 0.71437 0.34387 0.0
H6839 H 0.37531 0.72063 0.3374 0.0
H6840 H 0.35556 0.71114 0.36989 0.0
H6841 H 0.40365 0.7269 0.33906 0.0
H6842 H 0.37991 0.7335 0.33325 0.0
C6843 C 0.04812 0.6653 0.13254 0.0
C6844 C 0.05607 0.66748 0.13217 0.0
C6845 C 0.04517 0.65943 0.12766 0.0
C6846 C 0.04998 0.6558 0.12201 0.0
C6847 C 0.05773 0.65855 0.12115 0.0
C6848 C 0.06076 0.66422 0.12624 0.0
C6849 C 0.04716 0.64877 0.11757 0.0
C6850 C 0.03913 0.6476 0.11603 0.0
C6851 C 0.03633 0.64043 0.113 0.0
C6852 C 0.04179 0.63459 0.11098 0.0
C6853 C 0.04986 0.63579 0.11212 0.0
C6854 C 0.05246 0.64281 0.11549 0.0
C6855 C 0.05561 0.62948 0.11051 0.0
C6856 C 0.05422 0.62183 0.1132 0.0
C6857 C 0.06282 0.63122 0.1069 0.0
C6858 C 0.0686 0.62546 0.10618 0.0
C6859 C 0.0673 0.61786 0.10908 0.0
C6860 C 0.02771 0.63888 0.11253 0.0
C6861 C 0.02263 0.642 0.11823 0.0
C6862 C 0.02449 0.63408 0.10661 0.0
C6863 C 0.01643 0.63246 0.10644 0.0
C6864 C 0.01141 0.63564 0.11214 0.0
C6865 C 0.01461 0.64045 0.118 0.0
C6866 C 0.06002 0.6161 0.11255 0.0
H6867 H 0.04421 0.66796 0.13677 0.0
H6868 H 0.03918 0.65754 0.1286 0.0
H6869 H 0.06157 0.65618 0.1167 0.0
H6870 H 0.06688 0.6658 0.12569 0.0
H6871 H 0.03501 0.65226 0.11727 0.0
H6872 H 0.05861 0.64338 0.11692 0.0
H6873 H 0.03979 0.629 0.10874 0.0
H6874 H 0.04879 0.62036 0.11615 0.0
H6875 H 0.06403 0.63707 0.10474 0.0
H6876 H 0.07414 0.62698 0.10346 0.0
H6877 H 0.02485 0.64553 0.12302 0.0
H6878 H 0.02817 0.63164 0.10205 0.0
H6879 H 0.05891 0.61038 0.11507 0.0
H6880 H 0.0109 0.64291 0.12253 0.0
H6881 H 0.01411 0.62882 0.10178 0.0
C6882 C 0.10283 0.324 0.85241 0.0
C6883 C 0.10571 0.33169 0.85233 0.0
C6884 C 0.10768 0.31775 0.85028 0.0
C6885 C 0.11553 0.31911 0.84814 0.0
C6886 C 0.11826 0.32688 0.84769 0.0
C6887 C 0.11338 0.33313 0.84977 0.0
C6888 C 0.12103 0.3124 0.84736 0.0
C6889 C 0.1188 0.30552 0.84345 0.0
C6890 C 0.12346 0.29868 0.84379 0.0
C6891 C 0.13069 0.29908 0.84784 0.0
C6892 C 0.13318 0.30607 0.85146 0.0
C6893 C 0.12825 0.31264 0.85124 0.0
C6894 C 0.1407 0.30651 0.8559 0.0
C6895 C 0.1432 0.30029 0.8607 0.0
C6896 C 0.1452 0.31342 0.85571 0.0
C6897 C 0.15184 0.31422 0.86042 0.0
C6898 C 0.15421 0.30811 0.8654 0.0
C6899 C 0.12054 0.29106 0.84039 0.0
C6900 C 0.11244 0.2897 0.83938 0.0
C6901 C 0.12574 0.28492 0.83842 0.0
C6902 C 0.12291 0.27756 0.83612 0.0
C6903 C 0.11482 0.27617 0.83549 0.0
C6904 C 0.10966 0.28246 0.83679 0.0
C6905 C 0.14991 0.30106 0.86537 0.0
H6906 H 0.09694 0.32279 0.85447 0.0
H6907 H 0.10543 0.31183 0.85079 0.0
H6908 H 0.12427 0.3281 0.84601 0.0
H6909 H 0.11571 0.33904 0.84975 0.0
H6910 H 0.11335 0.30558 0.84022 0.0
H6911 H 0.12985 0.31786 0.85449 0.0
H6912 H 0.13437 0.29395 0.84834 0.0
H6913 H 0.13987 0.2949 0.86104 0.0
H6914 H 0.14354 0.31829 0.85197 0.0
H6915 H 0.15503 0.31972 0.86029 0.0
H6916 H 0.10811 0.29407 0.84085 0.0
H6917 H 0.13202 0.28569 0.83875 0.0
H6918 H 0.1517 0.29616 0.86899 0.0
H6919 H 0.1034 0.28173 0.83602 0.0
H6920 H 0.12708 0.27289 0.83507 0.0
C6921 C 0.44349 0.388 0.60347 0.0
C6922 C 0.43899 0.39017 0.61006 0.0
C6923 C 0.44951 0.38242 0.60417 0.0
C6924 C 0.45106 0.37892 0.61146 0.0
C6925 C 0.4467 0.38123 0.61804 0.0
C6926 C 0.44081 0.38682 0.61737 0.0
C6927 C 0.45679 0.37247 0.61235 0.0
C6928 C 0.46485 0.37362 0.61111 0.0
C6929 C 0.47032 0.36781 0.61336 0.0
C6930 C 0.4675 0.3608 0.6168 0.0
C6931 C 0.45946 0.35971 0.61822 0.0
C6932 C 0.45418 0.36545 0.61566 0.0
C6933 C 0.45651 0.35315 0.62317 0.0
C6934 C 0.45937 0.34544 0.62245 0.0
C6935 C 0.45067 0.35469 0.62879 0.0
C6936 C 0.44756 0.3487 0.63334 0.0
C6937 C 0.45024 0.34097 0.63252 0.0
C6938 C 0.47896 0.36934 0.61284 0.0
C6939 C 0.48219 0.37396 0.60678 0.0
C6940 C 0.48406 0.36636 0.61861 0.0
C6941 C 0.4921 0.36784 0.61829 0.0
C6942 C 0.4953 0.37247 0.61228 0.0
C6943 C 0.49027 0.37554 0.60653 0.0
C6944 C 0.45625 0.33939 0.6271 0.0
H6945 H 0.44228 0.39054 0.59777 0.0
H6946 H 0.45279 0.38069 0.59902 0.0
H6947 H 0.44786 0.37867 0.62375 0.0
H6948 H 0.43771 0.38859 0.62262 0.0
H6949 H 0.46684 0.37923 0.60889 0.0
H6950 H 0.44794 0.36464 0.6166 0.0
H6951 H 0.47156 0.3563 0.6187 0.0
H6952 H 0.46388 0.34407 0.61819 0.0
H6953 H 0.4485 0.36059 0.62973 0.0
H6954 H 0.44305 0.35013 0.63759 0.0
H6955 H 0.4785 0.37631 0.60217 0.0
H6956 H 0.48187 0.363 0.62353 0.0
H6957 H 0.45841 0.33346 0.62633 0.0
H6958 H 0.49259 0.37905 0.60176 0.0
H6959 H 0.49581 0.36548 0.62288 0.0
C6960 C 0.15554 0.40494 0.3241 0.0
C6961 C 0.15522 0.40175 0.33168 0.0
C6962 C 0.15744 0.40018 0.3177 0.0
C6963 C 0.15911 0.39216 0.3188 0.0
C6964 C 0.15933 0.38918 0.3265 0.0
C6965 C 0.15731 0.3939 0.33286 0.0
C6966 C 0.15976 0.38674 0.31198 0.0
C6967 C 0.16335 0.38904 0.3049 0.0
C6968 C 0.16351 0.38398 0.29835 0.0
C6969 C 0.16005 0.37649 0.29907 0.0
C6970 C 0.15626 0.37421 0.30601 0.0
C6971 C 0.15619 0.37933 0.3124 0.0
C6972 C 0.15186 0.36671 0.30648 0.0
C6973 C 0.1467 0.36452 0.30045 0.0
C6974 C 0.1523 0.36203 0.31326 0.0
C6975 C 0.14757 0.35539 0.31405 0.0
C6976 C 0.14225 0.35329 0.30811 0.0
C6977 C 0.16687 0.38662 0.29065 0.0
C6978 C 0.17298 0.39219 0.29027 0.0
C6979 C 0.16379 0.38375 0.28354 0.0
C6980 C 0.16661 0.38642 0.27634 0.0
C6981 C 0.17249 0.39216 0.27598 0.0
C6982 C 0.17572 0.39496 0.28303 0.0
C6983 C 0.1419 0.35792 0.30128 0.0
H6984 H 0.15385 0.41098 0.32309 0.0
H6985 H 0.15714 0.40267 0.31187 0.0
H6986 H 0.16077 0.38309 0.3276 0.0
H6987 H 0.15708 0.39135 0.33868 0.0
H6988 H 0.16586 0.39486 0.30448 0.0
H6989 H 0.15297 0.37768 0.31763 0.0
H6990 H 0.16026 0.37238 0.29425 0.0
H6991 H 0.14613 0.36809 0.29523 0.0
H6992 H 0.15626 0.36355 0.31798 0.0
H6993 H 0.14805 0.35191 0.31934 0.0
H6994 H 0.17569 0.39443 0.29555 0.0
H6995 H 0.15897 0.37963 0.28346 0.0
H6996 H 0.13773 0.35661 0.29668 0.0
H6997 H 0.18038 0.39927 0.28295 0.0
H6998 H 0.16394 0.38422 0.27101 0.0
C6999 C 0.38988 0.40355 0.06159 0.0
C7000 C 0.39072 0.39822 0.06785 0.0
C7001 C 0.38393 0.40253 0.056 0.0
C7002 C 0.37871 0.39617 0.05658 0.0
C7003 C 0.37959 0.39089 0.06288 0.0
C7004 C 0.38546 0.39194 0.06845 0.0
C7005 C 0.37236 0.39485 0.05072 0.0
C7006 C 0.37363 0.39576 0.04262 0.0
C7007 C 0.36782 0.39356 0.03711 0.0
C7008 C 0.36075 0.39024 0.03995 0.0
C7009 C 0.35956 0.38907 0.04802 0.0
C7010 C 0.36517 0.39185 0.0533 0.0
C7011 C 0.353 0.38416 0.05106 0.0
C7012 C 0.34532 0.38469 0.04808 0.0
C7013 C 0.35454 0.37874 0.05709 0.0
C7014 C 0.34856 0.37421 0.06029 0.0
C7015 C 0.34086 0.3749 0.05752 0.0
C7016 C 0.36936 0.39415 0.02844 0.0
C7017 C 0.37449 0.39987 0.02534 0.0
C7018 C 0.36584 0.38885 0.02316 0.0
C7019 C 0.36731 0.38931 0.01512 0.0
C7020 C 0.3725 0.39492 0.01209 0.0
C7021 C 0.37611 0.40019 0.01727 0.0
C7022 C 0.33929 0.38007 0.05128 0.0
H7023 H 0.3938 0.40851 0.06103 0.0
H7024 H 0.38338 0.40673 0.05126 0.0
H7025 H 0.37584 0.3858 0.06344 0.0
H7026 H 0.38603 0.38765 0.0731 0.0
H7027 H 0.37931 0.39778 0.04062 0.0
H7028 H 0.36406 0.39133 0.05954 0.0
H7029 H 0.35624 0.38832 0.03593 0.0
H7030 H 0.34395 0.38877 0.04341 0.0
H7031 H 0.36042 0.37793 0.05935 0.0
H7032 H 0.34998 0.37011 0.06493 0.0
H7033 H 0.37723 0.40418 0.0291 0.0
H7034 H 0.36207 0.38418 0.02519 0.0
H7035 H 0.33339 0.38064 0.049 0.0
H7036 H 0.38007 0.40464 0.01507 0.0
H7037 H 0.3645 0.38511 0.01126 0.0
C7038 C 0.35478 0.60388 0.82395 0.0
C7039 C 0.35218 0.60568 0.83158 0.0
C7040 C 0.35283 0.60869 0.81762 0.0
C7041 C 0.34847 0.61554 0.8188 0.0
C7042 C 0.34576 0.61735 0.82634 0.0
C7043 C 0.34751 0.61241 0.83266 0.0
C7044 C 0.34757 0.62117 0.81229 0.0
C7045 C 0.34378 0.61897 0.80535 0.0
C7046 C 0.34401 0.62379 0.7986 0.0
C7047 C 0.34808 0.63102 0.79916 0.0
C7048 C 0.35161 0.63342 0.80622 0.0
C7049 C 0.35131 0.62843 0.81275 0.0
C7050 C 0.356 0.64094 0.80679 0.0
C7051 C 0.36119 0.6433 0.80083 0.0
C7052 C 0.35538 0.64557 0.81358 0.0
C7053 C 0.35996 0.6523 0.81447 0.0
C7054 C 0.36523 0.65459 0.80857 0.0
C7055 C 0.3404 0.62111 0.79097 0.0
C7056 C 0.33868 0.61312 0.78962 0.0
C7057 C 0.33885 0.62643 0.7848 0.0
C7058 C 0.33627 0.62379 0.77746 0.0
C7059 C 0.33472 0.6158 0.77614 0.0
C7060 C 0.33573 0.61057 0.78243 0.0
C7061 C 0.36578 0.65005 0.80173 0.0
H7062 H 0.35868 0.59899 0.82287 0.0
H7063 H 0.35512 0.60729 0.81185 0.0
H7064 H 0.34243 0.62266 0.82737 0.0
H7065 H 0.34536 0.61397 0.83842 0.0
H7066 H 0.34072 0.61343 0.80537 0.0
H7067 H 0.35437 0.63 0.81809 0.0
H7068 H 0.34865 0.63482 0.79412 0.0
H7069 H 0.36189 0.6398 0.79558 0.0
H7070 H 0.35141 0.64395 0.81826 0.0
H7071 H 0.35949 0.65561 0.81987 0.0
H7072 H 0.33983 0.60865 0.79394 0.0
H7073 H 0.33974 0.63266 0.78547 0.0
H7074 H 0.3698 0.6517 0.79709 0.0
H7075 H 0.33448 0.60438 0.78174 0.0
H7076 H 0.33579 0.62804 0.77278 0.0
C7077 C 0.16219 0.63513 0.55102 0.0
C7078 C 0.16665 0.63226 0.55735 0.0
C7079 C 0.15621 0.63057 0.54773 0.0
C7080 C 0.15453 0.6231 0.55075 0.0
C7081 C 0.15921 0.62009 0.55682 0.0
C7082 C 0.16527 0.62458 0.56001 0.0
C7083 C 0.14759 0.61866 0.54798 0.0
C7084 C 0.14616 0.6176 0.53996 0.0
C7085 C 0.13958 0.61333 0.53727 0.0
C7086 C 0.13438 0.61027 0.54299 0.0
C7087 C 0.13538 0.61184 0.55106 0.0
C7088 C 0.14213 0.61593 0.55344 0.0
C7089 C 0.1291 0.60995 0.55695 0.0
C7090 C 0.12115 0.6099 0.55473 0.0
C7091 C 0.13088 0.60899 0.56497 0.0
C7092 C 0.12494 0.6087 0.57062 0.0
C7093 C 0.117 0.60901 0.5684 0.0
C7094 C 0.13796 0.61247 0.52858 0.0
C7095 C 0.14389 0.6139 0.52296 0.0
C7096 C 0.13038 0.61062 0.52571 0.0
C7097 C 0.1288 0.61049 0.51764 0.0
C7098 C 0.13465 0.61243 0.5122 0.0
C7099 C 0.14222 0.61405 0.51494 0.0
C7100 C 0.11522 0.6093 0.56035 0.0
H7101 H 0.16308 0.64102 0.54883 0.0
H7102 H 0.15267 0.63305 0.54307 0.0
H7103 H 0.1581 0.61428 0.55917 0.0
H7104 H 0.16878 0.62207 0.56467 0.0
H7105 H 0.15023 0.62027 0.5359 0.0
H7106 H 0.14301 0.61742 0.55955 0.0
H7107 H 0.1295 0.60666 0.54122 0.0
H7108 H 0.11941 0.6107 0.54868 0.0
H7109 H 0.13689 0.60871 0.56699 0.0
H7110 H 0.12662 0.60861 0.57674 0.0
H7111 H 0.1499 0.61496 0.52463 0.0
H7112 H 0.12551 0.60957 0.5296 0.0
H7113 H 0.10919 0.60937 0.55836 0.0
H7114 H 0.14687 0.61546 0.51085 0.0
H7115 H 0.12289 0.60925 0.51566 0.0
C7116 C 0.1556 0.60309 0.18334 0.0
C7117 C 0.15558 0.60624 0.17572 0.0
C7118 C 0.1574 0.60781 0.18979 0.0
C7119 C 0.15919 0.61579 0.18874 0.0
C7120 C 0.15958 0.61882 0.18107 0.0
C7121 C 0.15776 0.6141 0.17464 0.0
C7122 C 0.1598 0.62112 0.1956 0.0
C7123 C 0.16354 0.61878 0.20255 0.0
C7124 C 0.16345 0.62362 0.20926 0.0
C7125 C 0.15977 0.63101 0.2088 0.0
C7126 C 0.1561 0.63348 0.20183 0.0
C7127 C 0.15609 0.62844 0.19534 0.0
C7128 C 0.1519 0.64112 0.20128 0.0
C7129 C 0.14726 0.64391 0.2075 0.0
C7130 C 0.15205 0.64539 0.19422 0.0
C7131 C 0.14747 0.65209 0.19328 0.0
C7132 C 0.14276 0.65484 0.19945 0.0
C7133 C 0.16673 0.62071 0.21684 0.0
C7134 C 0.16583 0.61278 0.21896 0.0
C7135 C 0.17042 0.62582 0.22217 0.0
C7136 C 0.17286 0.62313 0.22955 0.0
C7137 C 0.17171 0.61526 0.23173 0.0
C7138 C 0.16832 0.6101 0.22628 0.0
C7139 C 0.14274 0.65071 0.20659 0.0
H7140 H 0.1538 0.59709 0.18437 0.0
H7141 H 0.15695 0.60532 0.19561 0.0
H7142 H 0.16108 0.6249 0.18005 0.0
H7143 H 0.15787 0.61666 0.16882 0.0
H7144 H 0.16649 0.61316 0.20274 0.0
H7145 H 0.15284 0.63008 0.19013 0.0
H7146 H 0.1596 0.63478 0.2139 0.0
H7147 H 0.14692 0.64072 0.21298 0.0
H7148 H 0.15563 0.64349 0.18933 0.0
H7149 H 0.14749 0.65501 0.18764 0.0
H7150 H 0.16292 0.60867 0.2151 0.0
H7151 H 0.17132 0.63193 0.2207 0.0
H7152 H 0.13917 0.6527 0.21145 0.0
H7153 H 0.1674 0.60399 0.22776 0.0
H7154 H 0.17536 0.62728 0.23365 0.0
C7155 C 0.16456 0.37491 0.95767 0.0
C7156 C 0.16696 0.37595 0.94987 0.0
C7157 C 0.15869 0.37968 0.96087 0.0
C7158 C 0.1552 0.38567 0.95636 0.0
C7159 C 0.15804 0.38699 0.94871 0.0
C7160 C 0.16377 0.38212 0.94548 0.0
C7161 C 0.14819 0.39002 0.95932 0.0
C7162 C 0.14718 0.39154 0.96736 0.0
C7163 C 0.14011 0.3947 0.97027 0.0
C7164 C 0.13421 0.39683 0.9649 0.0
C7165 C 0.13518 0.39557 0.95679 0.0
C7166 C 0.14213 0.39207 0.95412 0.0
C7167 C 0.1287 0.39712 0.95112 0.0
C7168 C 0.1209 0.39537 0.9531 0.0
C7169 C 0.13035 0.3997 0.94343 0.0
C7170 C 0.12441 0.40009 0.93777 0.0
C7171 C 0.11669 0.39797 0.9397 0.0
C7172 C 0.13868 0.39508 0.97892 0.0
C7173 C 0.14166 0.38916 0.98385 0.0
C7174 C 0.13406 0.40104 0.98231 0.0
C7175 C 0.13231 0.40094 0.99036 0.0
C7176 C 0.13512 0.39487 0.99518 0.0
C7177 C 0.13997 0.38911 0.99185 0.0
C7178 C 0.11497 0.39581 0.94746 0.0
H7179 H 0.16689 0.37012 0.96114 0.0
H7180 H 0.15663 0.37837 0.96673 0.0
H7181 H 0.15569 0.39167 0.94511 0.0
H7182 H 0.16558 0.38305 0.93946 0.0
H7183 H 0.15188 0.39015 0.97139 0.0
H7184 H 0.14263 0.39053 0.94798 0.0
H7185 H 0.12874 0.39924 0.96703 0.0
H7186 H 0.11939 0.39328 0.9589 0.0
H7187 H 0.13627 0.40122 0.94172 0.0
H7188 H 0.12594 0.4017 0.93182 0.0
H7189 H 0.14512 0.38438 0.98152 0.0
H7190 H 0.13175 0.40576 0.97875 0.0
H7191 H 0.10905 0.3942 0.94912 0.0
H7192 H 0.14236 0.38444 0.99544 0.0
H7193 H 0.1286 0.40549 0.99278 0.0
C7194 C 0.35282 0.40419 0.68292 0.0
C7195 C 0.3524 0.40103 0.67532 0.0
C7196 C 0.3508 0.39964 0.68944 0.0
C7197 C 0.34834 0.39183 0.68847 0.0
C7198 C 0.34739 0.38887 0.68084 0.0
C7199 C 0.34935 0.39344 0.67434 0.0
C7200 C 0.34771 0.38652 0.69534 0.0
C7201 C 0.34406 0.3889 0.70232 0.0
C7202 C 0.34413 0.38405 0.70902 0.0
C7203 C 0.34792 0.3767 0.70857 0.0
C7204 C 0.35152 0.37421 0.70159 0.0
C7205 C 0.35136 0.37916 0.69503 0.0
C7206 C 0.35588 0.36668 0.70113 0.0
C7207 C 0.36101 0.36439 0.70717 0.0
C7208 C 0.35539 0.36201 0.69435 0.0
C7209 C 0.36011 0.35539 0.6935 0.0
C7210 C 0.36544 0.35326 0.6994 0.0
C7211 C 0.34059 0.38677 0.71656 0.0
C7212 C 0.34098 0.39471 0.71877 0.0
C7213 C 0.33708 0.38141 0.72178 0.0
C7214 C 0.33431 0.38387 0.7291 0.0
C7215 C 0.33488 0.39177 0.73135 0.0
C7216 C 0.33814 0.39718 0.72605 0.0
C7217 C 0.36574 0.35774 0.70632 0.0
H7218 H 0.35513 0.41003 0.68386 0.0
H7219 H 0.35162 0.40207 0.69525 0.0
H7220 H 0.34537 0.38292 0.67992 0.0
H7221 H 0.34872 0.39093 0.66854 0.0
H7222 H 0.34114 0.39454 0.70249 0.0
H7223 H 0.35447 0.37745 0.68975 0.0
H7224 H 0.34821 0.37295 0.71369 0.0
H7225 H 0.36157 0.36788 0.71244 0.0
H7226 H 0.35142 0.36356 0.68964 0.0
H7227 H 0.35973 0.35203 0.68812 0.0
H7228 H 0.34376 0.39901 0.71502 0.0
H7229 H 0.3365 0.37528 0.72025 0.0
H7230 H 0.36967 0.35614 0.71104 0.0
H7231 H 0.33882 0.40328 0.72768 0.0
H7232 H 0.33178 0.37958 0.73304 0.0
C7233 C 0.38984 0.60412 0.4459 0.0
C7234 C 0.39037 0.60935 0.43953 0.0
C7235 C 0.38396 0.60504 0.45159 0.0
C7236 C 0.37857 0.61126 0.45104 0.0
C7237 C 0.37926 0.61654 0.44472 0.0
C7238 C 0.38503 0.61557 0.43904 0.0
C7239 C 0.37225 0.61248 0.45697 0.0
C7240 C 0.37358 0.61154 0.46507 0.0
C7241 C 0.36785 0.61387 0.47059 0.0
C7242 C 0.3608 0.61726 0.46784 0.0
C7243 C 0.35948 0.61832 0.45978 0.0
C7244 C 0.36502 0.61545 0.45446 0.0
C7245 C 0.35288 0.62321 0.45679 0.0
C7246 C 0.34527 0.62278 0.45995 0.0
C7247 C 0.35432 0.6285 0.45062 0.0
C7248 C 0.34831 0.63303 0.44751 0.0
C7249 C 0.34067 0.6325 0.4505 0.0
C7250 C 0.36946 0.61339 0.4792 0.0
C7251 C 0.3737 0.60709 0.48247 0.0
C7252 C 0.36682 0.61935 0.48425 0.0
C7253 C 0.36827 0.61899 0.4923 0.0
C7254 C 0.37246 0.61271 0.49557 0.0
C7255 C 0.37519 0.60675 0.49056 0.0
C7256 C 0.3392 0.6274 0.45682 0.0
H7257 H 0.39395 0.59931 0.44644 0.0
H7258 H 0.38361 0.60088 0.45637 0.0
H7259 H 0.37543 0.62158 0.44422 0.0
H7260 H 0.38546 0.61986 0.43436 0.0
H7261 H 0.37922 0.60944 0.46708 0.0
H7262 H 0.36382 0.6159 0.44823 0.0
H7263 H 0.35644 0.61934 0.47196 0.0
H7264 H 0.34397 0.61877 0.4647 0.0
H7265 H 0.36015 0.62922 0.44821 0.0
H7266 H 0.34967 0.63704 0.44276 0.0
H7267 H 0.37577 0.60234 0.47879 0.0
H7268 H 0.36375 0.62443 0.48199 0.0
H7269 H 0.33334 0.62685 0.45921 0.0
H7270 H 0.37834 0.60176 0.49292 0.0
H7271 H 0.36618 0.62374 0.49596 0.0
C7272 C 0.32308 0.15457 0.40554 0.0
C7273 C 0.33088 0.15493 0.4029 0.0
C7274 C 0.3169 0.1565 0.40052 0.0
C7275 C 0.31841 0.15877 0.39275 0.0
C7276 C 0.32622 0.15953 0.39024 0.0
C7277 C 0.3324 0.15763 0.39527 0.0
C7278 C 0.31187 0.15945 0.38706 0.0
C7279 C 0.30491 0.16335 0.38903 0.0
C7280 C 0.2984 0.16325 0.38394 0.0
C7281 C 0.29915 0.15942 0.37662 0.0
C7282 C 0.30616 0.15559 0.3745 0.0
C7283 C 0.31241 0.15558 0.37986 0.0
C7284 C 0.30696 0.15124 0.36692 0.0
C7285 C 0.30052 0.14742 0.36343 0.0
C7286 C 0.31435 0.15051 0.3633 0.0
C7287 C 0.31535 0.14585 0.35667 0.0
C7288 C 0.30893 0.14204 0.35319 0.0
C7289 C 0.29073 0.16673 0.38646 0.0
C7290 C 0.28852 0.16672 0.39443 0.0
C7291 C 0.28537 0.16975 0.38093 0.0
C7292 C 0.27793 0.1723 0.38326 0.0
C7293 C 0.2757 0.17202 0.39118 0.0
C7294 C 0.28114 0.16941 0.39676 0.0
C7295 C 0.30149 0.14293 0.35662 0.0
H7296 H 0.32176 0.15253 0.41141 0.0
H7297 H 0.31094 0.15579 0.4026 0.0
H7298 H 0.32755 0.16132 0.38428 0.0
H7299 H 0.33835 0.15786 0.39304 0.0
H7300 H 0.3046 0.16643 0.39457 0.0
H7301 H 0.31764 0.1522 0.37862 0.0
H7302 H 0.29423 0.15928 0.37264 0.0
H7303 H 0.29474 0.1477 0.36604 0.0
H7304 H 0.31946 0.15348 0.36563 0.0
H7305 H 0.32122 0.14514 0.35435 0.0
H7306 H 0.29233 0.16433 0.3989 0.0
H7307 H 0.28687 0.17011 0.37478 0.0
H7308 H 0.29641 0.14009 0.35408 0.0
H7309 H 0.27954 0.16908 0.4029 0.0
H7310 H 0.27387 0.17441 0.37885 0.0
C7311 C 0.8239 0.35181 0.6029 0.0
C7312 C 0.8315 0.35211 0.606 0.0
C7313 C 0.81756 0.34982 0.60772 0.0
C7314 C 0.81876 0.3481 0.61571 0.0
C7315 C 0.82648 0.34791 0.61862 0.0
C7316 C 0.83278 0.34998 0.61382 0.0
C7317 C 0.81197 0.34739 0.62115 0.0
C7318 C 0.80498 0.34371 0.61884 0.0
C7319 C 0.79828 0.34386 0.62368 0.0
C7320 C 0.79876 0.34758 0.63104 0.0
C7321 C 0.80576 0.35115 0.63351 0.0
C7322 C 0.81229 0.35104 0.62851 0.0
C7323 C 0.80628 0.35548 0.64105 0.0
C7324 C 0.80036 0.36074 0.64333 0.0
C7325 C 0.81306 0.35485 0.6457 0.0
C7326 C 0.81406 0.35962 0.65226 0.0
C7327 C 0.80835 0.3652 0.6543 0.0
C7328 C 0.79068 0.34061 0.6208 0.0
C7329 C 0.78855 0.34146 0.61288 0.0
C7330 C 0.78534 0.33698 0.62596 0.0
C7331 C 0.77795 0.33455 0.62331 0.0
C7332 C 0.77577 0.33563 0.61543 0.0
C7333 C 0.78123 0.33896 0.61023 0.0
C7334 C 0.80139 0.36556 0.6499 0.0
H7335 H 0.82281 0.35355 0.59689 0.0
H7336 H 0.8117 0.35011 0.60529 0.0
H7337 H 0.82763 0.34648 0.6247 0.0
H7338 H 0.83863 0.35023 0.6163 0.0
H7339 H 0.80476 0.34076 0.61322 0.0
H7340 H 0.81753 0.35421 0.63021 0.0
H7341 H 0.79364 0.34789 0.63479 0.0
H7342 H 0.7951 0.36139 0.63984 0.0
H7343 H 0.81766 0.35074 0.64418 0.0
H7344 H 0.81937 0.359 0.6557 0.0
H7345 H 0.79242 0.34432 0.60873 0.0
H7346 H 0.78681 0.33612 0.63208 0.0
H7347 H 0.79687 0.36977 0.65136 0.0
H7348 H 0.77975 0.33983 0.60411 0.0
H7349 H 0.77385 0.3321 0.62749 0.0
C7350 C 0.37362 0.04988 0.34418 0.0
C7351 C 0.37559 0.05712 0.34076 0.0
C7352 C 0.37831 0.04664 0.35008 0.0
C7353 C 0.38505 0.0506 0.35273 0.0
C7354 C 0.38721 0.05765 0.34904 0.0
C7355 C 0.38253 0.06088 0.34314 0.0
C7356 C 0.38937 0.04776 0.35976 0.0
C7357 C 0.39061 0.03972 0.36102 0.0
C7358 C 0.39386 0.03694 0.36809 0.0
C7359 C 0.39616 0.04244 0.37382 0.0
C7360 C 0.39509 0.05054 0.37261 0.0
C7361 C 0.39168 0.05311 0.36557 0.0
C7362 C 0.39681 0.05633 0.37892 0.0
C7363 C 0.39494 0.05462 0.38676 0.0
C7364 C 0.39974 0.06384 0.3771 0.0
C7365 C 0.40054 0.06955 0.38293 0.0
C7366 C 0.39848 0.06787 0.39073 0.0
C7367 C 0.39437 0.02832 0.36965 0.0
C7368 C 0.38857 0.02324 0.36671 0.0
C7369 C 0.40048 0.02507 0.37419 0.0
C7370 C 0.40076 0.01698 0.37571 0.0
C7371 C 0.39496 0.01196 0.37268 0.0
C7372 C 0.38889 0.01519 0.36816 0.0
C7373 C 0.39573 0.06032 0.39258 0.0
H7374 H 0.36823 0.04692 0.3426 0.0
H7375 H 0.37641 0.04125 0.35286 0.0
H7376 H 0.39242 0.06079 0.35086 0.0
H7377 H 0.38423 0.06643 0.34057 0.0
H7378 H 0.38898 0.03562 0.35645 0.0
H7379 H 0.3904 0.05928 0.36479 0.0
H7380 H 0.39858 0.04041 0.37933 0.0
H7381 H 0.3925 0.04898 0.38838 0.0
H7382 H 0.40133 0.06534 0.37113 0.0
H7383 H 0.40269 0.07531 0.38133 0.0
H7384 H 0.38363 0.02547 0.3634 0.0
H7385 H 0.40512 0.02874 0.37648 0.0
H7386 H 0.39388 0.05889 0.39849 0.0
H7387 H 0.38429 0.01149 0.36583 0.0
H7388 H 0.40557 0.01464 0.37913 0.0
C7389 C 0.68392 0.65472 0.10252 0.0
C7390 C 0.67625 0.65479 0.10546 0.0
C7391 C 0.69022 0.65679 0.10735 0.0
C7392 C 0.68892 0.6589 0.11522 0.0
C7393 C 0.68116 0.65941 0.11798 0.0
C7394 C 0.67488 0.65732 0.11315 0.0
C7395 C 0.69563 0.65967 0.12075 0.0
C7396 C 0.70267 0.66329 0.11848 0.0
C7397 C 0.70921 0.66336 0.12352 0.0
C7398 C 0.70859 0.65979 0.13095 0.0
C7399 C 0.70157 0.65616 0.13331 0.0
C7400 C 0.69515 0.65615 0.12817 0.0
C7401 C 0.70095 0.6519 0.1409 0.0
C7402 C 0.70696 0.64683 0.14342 0.0
C7403 C 0.69404 0.65238 0.14536 0.0
C7404 C 0.693 0.64766 0.15197 0.0
C7405 C 0.69881 0.64229 0.15425 0.0
C7406 C 0.71681 0.66676 0.12087 0.0
C7407 C 0.7195 0.66548 0.11318 0.0
C7408 C 0.72157 0.67106 0.12606 0.0
C7409 C 0.72893 0.67381 0.12367 0.0
C7410 C 0.73175 0.67224 0.11608 0.0
C7411 C 0.72687 0.66818 0.11082 0.0
C7412 C 0.7059 0.64208 0.15003 0.0
H7413 H 0.68507 0.65266 0.09662 0.0
H7414 H 0.69611 0.65625 0.10506 0.0
H7415 H 0.67995 0.66111 0.12397 0.0
H7416 H 0.66899 0.65732 0.11553 0.0
H7417 H 0.70305 0.66607 0.11277 0.0
H7418 H 0.68988 0.65301 0.12981 0.0
H7419 H 0.71361 0.65967 0.13484 0.0
H7420 H 0.71233 0.64628 0.14008 0.0
H7421 H 0.68937 0.65634 0.14367 0.0
H7422 H 0.68759 0.64817 0.15526 0.0
H7423 H 0.71604 0.66212 0.10905 0.0
H7424 H 0.71961 0.6723 0.13197 0.0
H7425 H 0.7105 0.63803 0.15168 0.0
H7426 H 0.72887 0.66683 0.10495 0.0
H7427 H 0.73243 0.67713 0.1278 0.0
C7428 C 0.60484 0.44569 0.38884 0.0
C7429 C 0.6099 0.43918 0.38869 0.0
C7430 C 0.60521 0.45139 0.38289 0.0
C7431 C 0.61066 0.45065 0.37672 0.0
C7432 C 0.61559 0.44402 0.37661 0.0
C7433 C 0.61508 0.43831 0.38238 0.0
C7434 C 0.61149 0.4567 0.37043 0.0
C7435 C 0.61093 0.4648 0.372 0.0
C7436 C 0.61288 0.47044 0.3662 0.0
C7437 C 0.61574 0.46769 0.35889 0.0
C7438 C 0.61669 0.45966 0.35747 0.0
C7439 C 0.61389 0.45429 0.36296 0.0
C7440 C 0.62179 0.45674 0.35102 0.0
C7441 C 0.6213 0.45965 0.34332 0.0
C7442 C 0.62753 0.45107 0.35279 0.0
C7443 C 0.63262 0.44835 0.34704 0.0
C7444 C 0.63214 0.45122 0.33937 0.0
C7445 C 0.61266 0.47911 0.368 0.0
C7446 C 0.60791 0.4822 0.37405 0.0
C7447 C 0.61739 0.48443 0.36376 0.0
C7448 C 0.61744 0.4924 0.36554 0.0
C7449 C 0.61307 0.49536 0.37185 0.0
C7450 C 0.60817 0.4902 0.376 0.0
C7451 C 0.62641 0.45684 0.33749 0.0
H7452 H 0.60076 0.44647 0.39365 0.0
H7453 H 0.60127 0.45636 0.38314 0.0
H7454 H 0.62005 0.44327 0.37216 0.0
H7455 H 0.61894 0.43328 0.38202 0.0
H7456 H 0.60943 0.46664 0.37788 0.0
H7457 H 0.61416 0.4481 0.36155 0.0
H7458 H 0.61756 0.4717 0.35434 0.0
H7459 H 0.61697 0.46403 0.3418 0.0
H7460 H 0.6282 0.44882 0.3587 0.0
H7461 H 0.63699 0.44401 0.34861 0.0
H7462 H 0.60397 0.47848 0.37736 0.0
H7463 H 0.62131 0.48254 0.35918 0.0
H7464 H 0.62598 0.45913 0.33158 0.0
H7465 H 0.60465 0.49232 0.38084 0.0
H7466 H 0.62107 0.49625 0.36202 0.0
C7467 C 0.18354 0.85407 0.90466 0.0
C7468 C 0.17585 0.85196 0.90247 0.0
C7469 C 0.1899 0.85224 0.89985 0.0
C7470 C 0.18871 0.84848 0.89265 0.0
C7471 C 0.18111 0.84616 0.89052 0.0
C7472 C 0.17476 0.8478 0.89543 0.0
C7473 C 0.19524 0.84774 0.88701 0.0
C7474 C 0.20225 0.84408 0.88916 0.0
C7475 C 0.20869 0.84395 0.884 0.0
C7476 C 0.20793 0.84745 0.87654 0.0
C7477 C 0.20091 0.85126 0.87432 0.0
C7478 C 0.19463 0.85133 0.87967 0.0
C7479 C 0.20018 0.85558 0.86671 0.0
C7480 C 0.20666 0.8594 0.86329 0.0
C7481 C 0.19282 0.85637 0.86306 0.0
C7482 C 0.19188 0.8611 0.85645 0.0
C7483 C 0.19833 0.86493 0.85305 0.0
C7484 C 0.21635 0.84072 0.8867 0.0
C7485 C 0.21891 0.84217 0.8944 0.0
C7486 C 0.22128 0.83646 0.88162 0.0
C7487 C 0.22869 0.83393 0.88414 0.0
C7488 C 0.23129 0.83566 0.89176 0.0
C7489 C 0.22629 0.83967 0.89689 0.0
C7490 C 0.20575 0.86397 0.85652 0.0
H7491 H 0.18463 0.85752 0.90987 0.0
H7492 H 0.19571 0.85419 0.90153 0.0
H7493 H 0.18007 0.84324 0.88498 0.0
H7494 H 0.16895 0.84602 0.89358 0.0
H7495 H 0.20268 0.84137 0.8949 0.0
H7496 H 0.18931 0.85454 0.87833 0.0
H7497 H 0.21287 0.84739 0.87256 0.0
H7498 H 0.21242 0.85909 0.86594 0.0
H7499 H 0.18769 0.8534 0.86534 0.0
H7500 H 0.18603 0.86186 0.85411 0.0
H7501 H 0.21536 0.84552 0.89846 0.0
H7502 H 0.21945 0.83517 0.87568 0.0
H7503 H 0.21085 0.86683 0.85403 0.0
H7504 H 0.22818 0.84109 0.90279 0.0
H7505 H 0.23249 0.83089 0.88007 0.0
C7506 C 0.37358 0.95772 0.16376 0.0
C7507 C 0.37568 0.95065 0.16744 0.0
C7508 C 0.37845 0.96105 0.15805 0.0
C7509 C 0.38547 0.95733 0.15587 0.0
C7510 C 0.38771 0.95043 0.15977 0.0
C7511 C 0.38288 0.94714 0.16551 0.0
C7512 C 0.39001 0.9602 0.14901 0.0
C7513 C 0.39125 0.96824 0.14781 0.0
C7514 C 0.39457 0.97106 0.14077 0.0
C7515 C 0.39702 0.96558 0.13509 0.0
C7516 C 0.396 0.95747 0.13629 0.0
C7517 C 0.39246 0.95488 0.14326 0.0
C7518 C 0.39782 0.95167 0.13002 0.0
C7519 C 0.39614 0.95339 0.12213 0.0
C7520 C 0.4005 0.9441 0.13195 0.0
C7521 C 0.401 0.93826 0.12622 0.0
C7522 C 0.39893 0.93991 0.11843 0.0
C7523 C 0.39486 0.9797 0.13914 0.0
C7524 C 0.38907 0.98469 0.14228 0.0
C7525 C 0.40064 0.98303 0.13424 0.0
C7526 C 0.40046 0.99104 0.13234 0.0
C7527 C 0.39453 0.9959 0.13534 0.0
C7528 C 0.389 0.99266 0.14051 0.0
C7529 C 0.39671 0.94758 0.11641 0.0
H7530 H 0.36799 0.96048 0.16496 0.0
H7531 H 0.3765 0.9663 0.15506 0.0
H7532 H 0.39313 0.94747 0.15826 0.0
H7533 H 0.38468 0.94171 0.16829 0.0
H7534 H 0.38951 0.97228 0.15238 0.0
H7535 H 0.39116 0.9487 0.14402 0.0
H7536 H 0.39948 0.96761 0.1296 0.0
H7537 H 0.39397 0.95911 0.12041 0.0
H7538 H 0.40198 0.9426 0.13794 0.0
H7539 H 0.40264 0.93238 0.12798 0.0
H7540 H 0.3844 0.98245 0.14594 0.0
H7541 H 0.40531 0.97947 0.13183 0.0
H7542 H 0.39514 0.94901 0.11042 0.0
H7543 H 0.38449 0.99629 0.14312 0.0
H7544 H 0.40485 0.99339 0.12839 0.0
C7545 C 0.10323 0.06229 0.61798 0.0
C7546 C 0.10868 0.06843 0.61708 0.0
C7547 C 0.10417 0.05668 0.62394 0.0
C7548 C 0.11058 0.05713 0.62912 0.0
C7549 C 0.11596 0.06333 0.6282 0.0
C7550 C 0.115 0.0689 0.62231 0.0
C7551 C 0.1119 0.05118 0.63541 0.0
C7552 C 0.11069 0.04311 0.63413 0.0
C7553 C 0.11316 0.03749 0.63971 0.0
C7554 C 0.11697 0.04014 0.64659 0.0
C7555 C 0.11811 0.04817 0.64797 0.0
C7556 C 0.11521 0.0536 0.64253 0.0
C7557 C 0.12313 0.05102 0.65451 0.0
C7558 C 0.12259 0.04789 0.66213 0.0
C7559 C 0.12867 0.05696 0.65303 0.0
C7560 C 0.13353 0.05971 0.65897 0.0
C7561 C 0.13302 0.05659 0.66655 0.0
C7562 C 0.11239 0.02887 0.63816 0.0
C7563 C 0.11307 0.02581 0.63051 0.0
C7564 C 0.11133 0.02354 0.6444 0.0
C7565 C 0.11135 0.01545 0.64309 0.0
C7566 C 0.11235 0.01243 0.63549 0.0
C7567 C 0.113 0.01769 0.62919 0.0
C7568 C 0.12748 0.0507 0.66814 0.0
H7569 H 0.09823 0.06183 0.61409 0.0
H7570 H 0.09987 0.05204 0.62452 0.0
H7571 H 0.12111 0.06378 0.63189 0.0
H7572 H 0.11938 0.07346 0.6217 0.0
H7573 H 0.10803 0.04122 0.62869 0.0
H7574 H 0.11586 0.0598 0.64372 0.0
H7575 H 0.11945 0.03595 0.65067 0.0
H7576 H 0.11838 0.04333 0.66345 0.0
H7577 H 0.12938 0.0594 0.6472 0.0
H7578 H 0.13779 0.06423 0.65762 0.0
H7579 H 0.11399 0.02964 0.62553 0.0
H7580 H 0.11056 0.02562 0.65035 0.0
H7581 H 0.12705 0.0482 0.67396 0.0
H7582 H 0.11379 0.01553 0.62327 0.0
H7583 H 0.11066 0.01153 0.64804 0.0
C7584 C 0.01689 0.13202 0.39953 0.0
C7585 C 0.0203 0.13053 0.39215 0.0
C7586 C 0.00874 0.1332 0.4003 0.0
C7587 C 1.00374 0.13292 0.39373 0.0
H7588 H 0.02058 0.13262 0.40466 0.0
H7589 H 0.0064 0.13465 0.40602 0.0
S7590 S 0.00961 0.12787 0.3734 0.0
N7591 N 0.01792 0.12793 0.37836 0.0
N7592 N 1.0027 0.13003 0.37982 0.0
C7593 C 0.00704 0.13094 0.38644 0.0
C7594 C 0.01529 0.12977 0.38565 0.0
C7595 C 0.10437 0.74922 0.67976 0.0
C7596 C 0.10813 0.75574 0.67634 0.0
C7597 C 0.10708 0.74155 0.67845 0.0
C7598 C 0.11367 0.74011 0.67369 0.0
H7599 H 0.09923 0.75005 0.6834 0.0
H7600 H 0.10396 0.7367 0.68111 0.0
S7601 S 0.12535 0.75507 0.66306 0.0
N7602 N 0.11863 0.76017 0.66779 0.0
N7603 N 0.12374 0.74581 0.66539 0.0
C7604 C 0.11752 0.74657 0.67032 0.0
C7605 C 0.11475 0.75436 0.67163 0.0
C7606 C 0.49077 0.86835 0.89318 0.0
C7607 C 0.48788 0.87608 0.89258 0.0
C7608 C 0.49879 0.86686 0.89416 0.0
C7609 C 0.50424 0.87302 0.89469 0.0
H7610 H 0.48681 0.8634 0.89295 0.0
H7611 H 0.50076 0.86083 0.8945 0.0
S7612 S 0.49989 0.89423 0.89313 0.0
N7613 N 0.49126 0.88994 0.89223 0.0
N7614 N 0.50629 0.88709 0.8944 0.0
C7615 C 0.50147 0.88075 0.89417 0.0
C7616 C 0.49331 0.88228 0.89303 0.0
C7617 C 0.40351 0.25821 0.17945 0.0
C7618 C 0.39942 0.25171 0.17641 0.0
C7619 C 0.40085 0.26591 0.17819 0.0
C7620 C 0.39398 0.2674 0.17387 0.0
H7621 H 0.40887 0.25736 0.18274 0.0
H7622 H 0.40424 0.27073 0.18055 0.0
S7623 S 0.38129 0.25251 0.1644 0.0
N7624 N 0.38824 0.24735 0.16872 0.0
N7625 N 0.38323 0.26176 0.16643 0.0
C7626 C 0.38978 0.26096 0.17091 0.0
C7627 C 0.39249 0.25314 0.17216 0.0
C7628 C 0.0155 0.88253 0.11405 0.0
C7629 C 0.0208 0.87621 0.11365 0.0
C7630 C 0.00735 0.88129 0.11337 0.0
C7631 C 0.00428 0.87369 0.1123 0.0
H7632 H 0.01763 0.88838 0.11526 0.0
H7633 H 1.00342 0.88623 0.11405 0.0
S7634 S 0.01575 0.85545 0.10965 0.0
N7635 N 0.02243 0.86228 0.11122 0.0
N7636 N 0.0072 0.85997 0.11 0.0
C7637 C 0.00956 0.86745 0.11143 0.0
C7638 C 0.01779 0.8687 0.11209 0.0
C7639 C 0.40292 0.75063 0.33795 0.0
C7640 C 0.40039 0.75504 0.33145 0.0
C7641 C 0.40026 0.74298 0.33923 0.0
C7642 C 0.39497 0.73934 0.33404 0.0
H7643 H 0.40688 0.75319 0.34221 0.0
H7644 H 0.40225 0.73996 0.34445 0.0
S7645 S 0.38702 0.74813 0.31577 0.0
N7646 N 0.39256 0.75511 0.31956 0.0
N7647 N 0.38762 0.74062 0.32188 0.0
C7648 C 0.39248 0.74363 0.32743 0.0
C7649 C 0.39517 0.75149 0.32616 0.0
C7650 C 0.49023 0.13845 0.61186 0.0
C7651 C 0.48713 0.131 0.6136 0.0
C7652 C 0.49831 0.13961 0.61094 0.0
C7653 C 0.50363 0.13336 0.61171 0.0
H7654 H 0.48638 0.14348 0.6114 0.0
H7655 H 0.50044 0.14549 0.60981 0.0
S7656 S 0.49857 0.1127 0.61616 0.0
N7657 N 0.49002 0.11725 0.61595 0.0
N7658 N 0.50525 0.11943 0.61418 0.0
C7659 C 0.50061 0.12583 0.61318 0.0
C7660 C 0.49236 0.12465 0.61414 0.0
C7661 C 0.11273 0.25542 0.82726 0.0
C7662 C 0.10634 0.25237 0.8315 0.0
C7663 C 0.11536 0.26315 0.82844 0.0
C7664 C 0.11174 0.26811 0.83397 0.0
H7665 H 0.11573 0.2518 0.82299 0.0
H7666 H 0.12028 0.26524 0.82501 0.0
S7667 S 0.09511 0.26273 0.84699 0.0
N7668 N 0.09664 0.25483 0.84163 0.0
N7669 N 0.10164 0.26921 0.84399 0.0
C7670 C 0.10536 0.26509 0.83827 0.0
C7671 C 0.10266 0.25727 0.83701 0.0
C7672 C 0.39957 0.01748 0.13206 0.0
C7673 C 0.39218 0.0208 0.13047 0.0
C7674 C 0.4004 0.00935 0.13332 0.0
C7675 C 0.39387 0.0043 0.13302 0.0
H7676 H 0.40466 0.02122 0.1327 0.0
H7677 H 0.40612 0.00707 0.13488 0.0
S7678 S 0.37355 0.00994 0.12768 0.0
N7679 N 0.37844 0.01829 0.12772 0.0
N7680 N 0.38001 1.0031 0.12996 0.0
C7681 C 0.38658 0.00751 0.1309 0.0
C7682 C 0.38573 0.01573 0.12965 0.0
C7683 C 0.25834 0.18029 0.40255 0.0
C7684 C 0.25191 0.17636 0.39918 0.0
C7685 C 0.26601 0.17905 0.39981 0.0
C7686 C 0.26752 0.17384 0.39359 0.0
H7687 H 0.25743 0.18427 0.40742 0.0
H7688 H 0.27081 0.18211 0.40263 0.0
S7689 S 0.25283 0.16173 0.38313 0.0
N7690 N 0.24764 0.16682 0.38951 0.0
N7691 N 0.26201 0.16452 0.38436 0.0
C7692 C 0.26115 0.16992 0.39015 0.0
C7693 C 0.25336 0.17117 0.39294 0.0
C7694 C 0.10954 0.99178 0.62722 0.0
C7695 C 0.11508 0.98734 0.63144 0.0
C7696 C 0.10867 0.99989 0.62852 0.0
C7697 C 0.1132 0.00382 0.63421 0.0
H7698 H 0.10596 0.98898 0.62278 0.0
H7699 H 0.1044 1.00311 0.62509 0.0
S7700 S 0.12835 0.99483 0.64696 0.0
N7701 N 0.12501 0.98747 0.64165 0.0
N7702 N 0.12341 1.00263 0.64406 0.0
C7703 C 0.11867 0.99941 0.63852 0.0
C7704 C 0.1196 0.99121 0.63715 0.0
C7705 C 0.25175 0.83927 0.89946 0.0
C7706 C 0.25503 0.83172 0.89993 0.0
C7707 C 0.24413 0.84044 0.89667 0.0
C7708 C 0.23948 0.83411 0.8942 0.0
H7709 H 0.25509 0.84435 0.90131 0.0
H7710 H 0.24184 0.84636 0.89649 0.0
S7711 S 0.24521 0.81316 0.89435 0.0
N7712 N 0.25302 0.81779 0.89774 0.0
N7713 N 0.23864 0.82001 0.89241 0.0
C7714 C 0.2427 0.82653 0.8945 0.0
C7715 C 0.2505 0.82533 0.89738 0.0
C7716 C 0.39319 0.99013 0.36887 0.0
C7717 C 0.39343 0.98679 0.37642 0.0
C7718 C 0.39401 0.99821 0.36772 0.0
C7719 C 0.39514 1.00334 0.37407 0.0
H7720 H 0.39217 0.98645 0.36379 0.0
H7721 H 0.3936 1.00049 0.3618 0.0
S7722 S 0.39657 0.99761 0.39501 0.0
N7723 N 0.39518 0.98924 0.39035 0.0
N7724 N 0.39676 0.00449 0.38818 0.0
C7725 C 0.39574 1.00008 0.38163 0.0
C7726 C 0.39488 0.9918 0.38281 0.0
C7727 C 0.25188 0.18072 0.6127 0.0
C7728 C 0.25524 0.17607 0.60678 0.0
C7729 C 0.24416 0.17938 0.6153 0.0
C7730 C 0.23956 0.17328 0.61212 0.0
H7731 H 0.25522 0.18545 0.61531 0.0
H7732 H 0.24177 0.18316 0.6198 0.0
S7733 S 0.246 0.15899 0.59702 0.0
N7734 N 0.25356 0.16491 0.59811 0.0
N7735 N 0.23923 0.16224 0.60311 0.0
C7736 C 0.24295 0.16852 0.60629 0.0
C7737 C 0.25074 0.16995 0.6036 0.0
C7738 C 0.10773 0.01667 0.87617 0.0
C7739 C 0.11517 0.02021 0.87673 0.0
C7740 C 0.10696 0.00852 0.87499 0.0
C7741 C 0.11362 1.00364 0.87435 0.0
H7742 H 0.10249 0.02026 0.87629 0.0
H7743 H 0.10115 0.00608 0.87425 0.0
S7744 S 0.13431 0.00992 0.8768 0.0
N7745 N 0.12922 0.01812 0.87746 0.0
N7746 N 0.12781 1.00289 0.87544 0.0
C7747 C 0.12104 0.00709 0.87542 0.0
C7748 C 0.1218 0.01534 0.87656 0.0
C7749 C 0.25368 0.8336 0.11528 0.0
C7750 C 0.25221 0.83011 0.10794 0.0
C7751 C 0.26137 0.83478 0.11798 0.0
C7752 C 0.26789 0.83255 0.11345 0.0
H7753 H 0.24888 0.83577 0.11882 0.0
H7754 H 0.2622 0.8378 0.12351 0.0
S7755 S 0.26723 0.82203 0.09444 0.0
N7756 N 0.25794 0.82359 0.09663 0.0
N7757 N 0.27236 0.82587 0.10169 0.0
C7758 C 0.2665 0.82867 0.10631 0.0
C7759 C 0.25868 0.82744 0.10357 0.0
C7760 C 0.13268 0.39976 0.0169 0.0
C7761 C 0.13032 0.39252 0.02011 0.0
C7762 C 0.13393 0.40064 0.00877 0.0
C7763 C 0.13288 0.39428 1.0036 0.0
H7764 H 0.13392 0.40468 0.02072 0.0
H7765 H 0.13605 0.4062 0.00657 0.0
S7766 S 0.12542 0.37455 0.00888 0.0
N7767 N 0.12602 0.37923 0.01732 0.0
N7768 N 0.12839 0.38085 1.00216 0.0
C7769 C 0.13004 0.38719 0.00669 0.0
C7770 C 0.12876 0.38631 0.01491 0.0
C7771 C 0.63174 0.10833 0.99145 0.0
C7772 C 0.63167 0.11575 0.98784 0.0
C7773 C 0.63312 0.10755 0.99953 0.0
C7774 C 0.6344 0.11417 0.0043 0.0
H7775 H 0.63088 0.10309 0.98796 0.0
H7776 H 0.63337 0.10171 1.00202 0.0
S7777 S 0.63368 0.13494 0.99774 0.0
N7778 N 0.63242 0.12982 0.98963 0.0
N7779 N 0.63461 0.12844 0.00485 0.0
C7780 C 0.63398 0.12163 1.00076 0.0
C7781 C 0.63273 0.1224 0.99253 0.0
C7782 C 0.17729 0.39331 0.25422 0.0
C7783 C 0.1769 0.4014 0.25265 0.0
C7784 C 0.17625 0.39039 0.26185 0.0
C7785 C 0.17483 0.39544 0.26822 0.0
H7786 H 0.17798 0.38917 0.24946 0.0
H7787 H 0.1763 0.3841 0.26273 0.0
S7788 S 0.17426 0.41717 0.26741 0.0
N7789 N 0.17585 0.41447 0.25825 0.0
N7790 N 0.17369 0.40897 0.27253 0.0
C7791 C 0.17491 0.40356 0.26681 0.0
C7792 C 0.17598 0.40654 0.25905 0.0
C7793 C 0.86872 0.89389 0.49045 0.0
C7794 C 0.87627 0.89354 0.4871 0.0
C7795 C 0.86765 0.8946 0.49856 0.0
C7796 C 0.87407 0.89505 0.50371 0.0
H7797 H 0.86357 0.89344 0.48677 0.0
H7798 H 0.86172 0.89465 0.50085 0.0
S7799 S 0.89505 0.89471 0.49801 0.0
N7800 N 0.89029 0.89394 0.4896 0.0
N7801 N 0.88826 0.89537 0.50489 0.0
C7802 C 0.88165 0.89504 0.50045 0.0
C7803 C 0.88276 0.89427 0.49215 0.0
C7804 C 0.83416 0.1025 0.25841 0.0
C7805 C 0.83077 0.10713 0.25247 0.0
C7806 C 0.83503 0.10531 0.26606 0.0
C7807 C 0.83241 0.11284 0.26821 0.0
H7808 H 0.83641 0.09671 0.25709 0.0
H7809 H 0.83811 0.10163 0.27022 0.0
S7810 S 0.82199 0.12685 0.25519 0.0
N7811 N 0.82419 0.1194 0.24942 0.0
N7812 N 0.82532 0.12447 0.26396 0.0
C7813 C 0.82848 0.11732 0.26247 0.0
C7814 C 0.82774 0.1145 0.25459 0.0
C7815 C 0.36873 0.61496 0.51742 0.0
C7816 C 0.37619 0.61397 0.5208 0.0
C7817 C 0.36756 0.61422 0.50932 0.0
C7818 C 0.3738 0.61248 0.50422 0.0
H7819 H 0.36375 0.61648 0.52106 0.0
H7820 H 0.36171 0.61517 0.50702 0.0
S7821 S 0.39446 0.60905 0.5101 0.0
N7822 N 0.38989 0.61088 0.51845 0.0
N7823 N 0.3877 0.60952 0.50318 0.0
C7824 C 0.38125 0.61117 0.50754 0.0
C7825 C 0.38244 0.61191 0.51583 0.0
C7826 C 0.1688 0.6053 0.25141 0.0
C7827 C 0.17578 0.60691 0.25549 0.0
C7828 C 0.16759 0.60804 0.24378 0.0
C7829 C 0.17331 0.6125 0.23986 0.0
H7830 H 0.16415 0.60197 0.25419 0.0
H7831 H 0.16205 0.60673 0.24097 0.0
S7832 S 0.19281 0.61799 0.24777 0.0
N7833 N 0.18862 0.61305 0.25498 0.0
N7834 N 0.18637 0.61819 0.24054 0.0
C7835 C 0.18035 0.61414 0.24384 0.0
C7836 C 0.18158 0.61135 0.25167 0.0
C7837 C 0.33428 0.39273 0.7536 0.0
C7838 C 0.33008 0.39969 0.75509 0.0
C7839 C 0.33554 0.39007 0.74592 0.0
C7840 C 0.33268 0.39426 0.73941 0.0
H7841 H 0.33692 0.38949 0.75838 0.0
H7842 H 0.33907 0.38486 0.74507 0.0
S7843 S 0.32031 0.41212 0.74013 0.0
N7844 N 0.32231 0.41021 0.74942 0.0
N7845 N 0.32476 0.40524 0.73498 0.0
C7846 C 0.32815 0.401 0.74082 0.0
C7847 C 0.32683 0.4037 0.74865 0.0
C7848 C 0.99311 0.87989 0.61802 0.0
C7849 C 0.98778 0.87646 0.61272 0.0
C7850 C 1.00124 0.87893 0.61717 0.0
C7851 C 0.00442 0.8745 0.61098 0.0
H7852 H 0.99098 0.88327 0.62295 0.0
H7853 H 0.00505 0.8815 0.62155 0.0
S7854 S 0.9931 0.8647 0.5952 0.0
N7855 N 0.98633 0.86864 0.6009 0.0
N7856 N 1.00161 0.86706 0.59917 0.0
C7857 C 0.99919 0.87125 0.60549 0.0
C7858 C 0.99089 0.8722 0.60637 0.0
C7859 C 0.90429 0.25876 0.32726 0.0
C7860 C 0.90052 0.25215 0.33048 0.0
C7861 C 0.90152 0.2664 0.32869 0.0
C7862 C 0.89487 0.26771 0.3334 0.0
H7863 H 0.90948 0.25804 0.32367 0.0
H7864 H 0.90465 0.27131 0.32616 0.0
S7865 S 0.88312 0.25246 0.34353 0.0
N7866 N 0.88992 0.24749 0.33878 0.0
N7867 N 0.88472 0.26177 0.34144 0.0
C7868 C 0.89101 0.26115 0.33658 0.0
C7869 C 0.89383 0.2534 0.33513 0.0
C7870 C 0.51534 0.12728 0.10929 0.0
C7871 C 0.51985 0.13232 0.11402 0.0
C7872 C 0.50717 0.12831 0.10854 0.0
C7873 C 0.50325 0.1345 0.11237 0.0
H7874 H 0.51811 0.12242 0.10629 0.0
H7875 H 0.5039 0.12426 0.1049 0.0
S7876 S 0.51247 0.14942 0.12523 0.0
N7877 N 0.51983 0.14382 0.1224 0.0
N7878 N 0.50457 0.14571 0.12104 0.0
C7879 C 0.50775 0.13962 0.11701 0.0
C7880 C 0.51601 0.13854 0.11782 0.0
C7881 C 0.61347 0.75305 0.83021 0.0
C7882 C 0.60537 0.75461 0.83025 0.0
C7883 C 0.61634 0.74544 0.83148 0.0
C7884 C 0.61124 0.73907 0.83277 0.0
H7885 H 0.61763 0.75781 0.82959 0.0
H7886 H 0.62263 0.74456 0.83167 0.0
S7887 S 0.58951 0.73989 0.83257 0.0
N7888 N 0.59227 0.74903 0.83096 0.0
N7889 N 0.59767 0.73477 0.83348 0.0
C7890 C 0.60312 0.74048 0.83239 0.0
C7891 C 0.6002 0.74822 0.83111 0.0
C7892 C 0.99135 0.13937 0.89614 0.0
C7893 C 0.98783 0.13191 0.8956 0.0
C7894 C 0.99949 0.14023 0.89677 0.0
C7895 C 0.0045 0.13369 0.89691 0.0
H7896 H 0.98777 0.14461 0.89588 0.0
H7897 H 1.00191 0.14611 0.89697 0.0
S7898 S 0.99831 0.11287 0.89595 0.0
N7899 N 0.99 0.11784 0.8955 0.0
N7900 N 0.00536 0.11947 0.89672 0.0
C7901 C 1.00107 0.12618 0.89671 0.0
C7902 C 0.99274 0.1253 0.89605 0.0
C7903 C 0.61358 0.25402 0.67611 0.0
C7904 C 0.60568 0.25271 0.67812 0.0
C7905 C 0.61644 0.26161 0.67474 0.0
C7906 C 0.61154 0.26825 0.67529 0.0
H7907 H 0.61752 0.24912 0.67522 0.0
H7908 H 0.62253 0.26227 0.67304 0.0
S7909 S 0.59063 0.2681 0.68132 0.0
N7910 N 0.59323 0.25878 0.68148 0.0
N7911 N 0.5985 0.273 0.67854 0.0
C7912 C 0.60374 0.26706 0.6777 0.0
C7913 C 0.60084 0.25932 0.67919 0.0
C7914 C 0.51427 0.87709 0.4008 0.0
C7915 C 0.51806 0.87562 0.39361 0.0
C7916 C 0.50614 0.87603 0.40163 0.0
C7917 C 0.50157 0.87346 0.39529 0.0
H7918 H 0.51763 0.87897 0.40585 0.0
H7919 H 0.50343 0.87715 0.40726 0.0
S7920 S 0.50847 0.86934 0.37514 0.0
N7921 N 0.51649 0.87186 0.37995 0.0
N7922 N 0.50124 0.86979 0.38157 0.0
C7923 C 0.50523 0.87208 0.38807 0.0
C7924 C 0.51348 0.87317 0.38721 0.0
C7925 C 0.89982 0.75213 0.16879 0.0
C7926 C 0.90165 0.75483 0.17636 0.0
C7927 C 0.89683 0.7446 0.16754 0.0
C7928 C 0.89549 0.73939 0.1738 0.0
H7929 H 0.90071 0.7559 0.16374 0.0
H7930 H 0.89565 0.74283 0.16156 0.0
S7931 S 0.89936 0.74356 0.19481 0.0
N7932 N 0.902 0.75169 0.19024 0.0
N7933 N 0.89624 0.7375 0.18793 0.0
C7934 C 0.8973 0.74199 0.18144 0.0
C7935 C 0.90036 0.74972 0.18271 0.0
C7936 C 0.61256 0.99091 0.86797 0.0
C7937 C 0.61262 0.98747 0.87547 0.0
C7938 C 0.61187 0.99903 0.86698 0.0
C7939 C 0.61121 0.00408 0.87345 0.0
H7940 H 0.61322 0.98729 0.86279 0.0
H7941 H 0.61203 1.00139 0.86108 0.0
S7942 S 0.61079 0.99808 0.89435 0.0
N7943 N 0.61171 0.98974 0.8895 0.0
N7944 N 0.6104 0.00506 0.88764 0.0
C7945 C 0.61094 1.00073 0.88099 0.0
C7946 C 0.61165 0.99241 0.882 0.0
C7947 C 0.75286 0.82997 0.61383 0.0
C7948 C 0.75437 0.83007 0.60572 0.0
C7949 C 0.74526 0.83118 0.61677 0.0
C7950 C 0.73885 0.83246 0.61171 0.0
H7951 H 0.75765 0.82934 0.61796 0.0
H7952 H 0.74442 0.83133 0.62306 0.0
S7953 S 0.73955 0.83243 0.58997 0.0
N7954 N 0.7487 0.83085 0.59267 0.0
N7955 N 0.73447 0.83325 0.59817 0.0
C7956 C 0.74022 0.83214 0.60358 0.0
C7957 C 0.74795 0.83093 0.6006 0.0
C7958 C 0.89896 0.01548 0.38014 0.0
C7959 C 0.89406 0.01993 0.37521 0.0
C7960 C 0.89989 0.00734 0.37902 0.0
C7961 C 0.89606 1.0034 0.37285 0.0
H7962 H 0.90198 0.01827 0.38498 0.0
H7963 H 0.90365 0.00412 0.383 0.0
S7964 S 0.88276 0.01246 0.3582 0.0
N7965 N 0.88551 0.01983 0.36383 0.0
N7966 N 0.88718 0.00463 0.36177 0.0
C7967 C 0.89124 0.00783 0.36784 0.0
C7968 C 0.89025 0.01606 0.36901 0.0
C7969 C 0.75948 0.17642 0.10079 0.0
C7970 C 0.75316 0.17812 0.10585 0.0
C7971 C 0.76709 0.17524 0.10368 0.0
C7972 C 0.76869 0.17567 0.11175 0.0
H7973 H 0.75848 0.17575 0.09455 0.0
H7974 H 0.77168 0.17359 0.0996 0.0
S7975 S 0.75453 0.1809 0.12739 0.0
N7976 N 0.74923 0.18081 0.11929 0.0
N7977 N 0.76357 0.17872 0.12467 0.0
C7978 C 0.76256 0.17783 0.11682 0.0
C7979 C 0.7548 0.17905 0.11388 0.0
C7980 C 0.61831 0.01428 0.62769 0.0
C7981 C 0.61303 0.01958 0.6312 0.0
C7982 C 0.61755 0.00615 0.62869 0.0
C7983 C 0.61146 1.00292 0.63324 0.0
H7984 H 0.62316 0.01644 0.62421 0.0
H7985 H 0.62192 1.00237 0.62606 0.0
S7986 S 0.59575 0.01412 0.64328 0.0
N7987 N 0.60132 0.02093 0.63923 0.0
N7988 N 0.59974 0.00564 0.64087 0.0
C7989 C 0.60598 0.00811 0.63657 0.0
C7990 C 0.60678 0.01642 0.63558 0.0
C7991 C 0.7592 0.82927 0.40605 0.0
C7992 C 0.75254 0.82966 0.40115 0.0
C7993 C 0.76676 0.83078 0.40316 0.0
C7994 C 0.76799 0.83274 0.39524 0.0
H7995 H 0.75854 0.82799 0.41224 0.0
H7996 H 0.77163 0.83075 0.40723 0.0
S7997 S 0.75276 0.83362 0.37974 0.0
N7998 N 0.74784 0.83165 0.38783 0.0
N7999 N 0.76206 0.83412 0.38237 0.0
C8000 C 0.76147 0.83267 0.39018 0.0
C8001 C 0.75376 0.8312 0.39313 0.0
C8002 C 0.89833 0.99175 0.13794 0.0
C8003 C 0.89391 0.98886 0.13161 0.0
C8004 C 0.89943 0.99982 0.13902 0.0
C8005 C 0.89607 0.00537 0.13388 0.0
H8006 H 0.90104 0.98773 0.14205 0.0
H8007 H 0.90301 1.00171 0.14392 0.0
S8008 S 0.88365 1.00073 0.11658 0.0
N8009 N 0.88607 0.99209 0.1202 0.0
N8010 N 0.88785 0.00726 0.12235 0.0
C8011 C 0.8916 1.00251 0.12754 0.0
C8012 C 0.89058 0.99428 0.12638 0.0
C8013 C 0.75108 0.16956 0.90225 0.0
C8014 C 0.75444 0.17708 0.90194 0.0
C8015 C 0.74357 0.16811 0.89929 0.0
C8016 C 0.73905 0.17413 0.89592 0.0
H8017 H 0.75433 0.16469 0.90472 0.0
H8018 H 0.74127 0.1622 0.89965 0.0
S8019 S 0.74503 0.19495 0.8939 0.0
N8020 N 0.75263 0.19069 0.89815 0.0
N8021 N 0.73843 0.18798 0.89257 0.0
C8022 C 0.74227 0.18173 0.89567 0.0
C8023 C 0.74999 0.18319 0.89865 0.0
C8024 C 0.88111 0.61677 0.99263 0.0
C8025 C 0.87627 0.61279 0.98728 0.0
C8026 C 0.88004 0.61595 1.00076 0.0
C8027 C 0.87402 0.61119 0.00388 0.0
H8028 H 0.88562 0.6207 0.9905 0.0
H8029 H 0.88377 0.61934 0.00463 0.0
S8030 S 0.86004 0.59925 0.9922 0.0
N8031 N 0.86544 0.60377 0.98556 0.0
N8032 N 0.86347 0.60207 1.0008 0.0
C8033 C 0.86931 0.607 0.99853 0.0
C8034 C 0.87042 0.60784 0.99025 0.0
C8035 C 0.38024 0.8977 0.0144 0.0
C8036 C 0.37512 0.89328 0.01913 0.0
C8037 C 0.37905 0.89836 0.00628 0.0
C8038 C 0.37263 0.8947 1.00262 0.0
H8039 H 0.38521 0.90068 0.01701 0.0
H8040 H 0.38311 0.90185 1.00287 0.0
S8041 S 0.35755 0.88242 0.01238 0.0
N8042 N 0.36341 0.88519 0.01956 0.0
N8043 N 0.3612 0.88635 0.00432 0.0
C8044 C 0.3675 0.89022 0.00728 0.0
C8045 C 0.36875 0.88952 0.01552 0.0
C8046 C 0.82497 0.60672 0.7495 0.0
C8047 C 0.83092 0.6064 0.75519 0.0
C8048 C 0.8265 0.60965 0.74191 0.0
C8049 C 0.83402 0.61239 0.7398 0.0
H8050 H 0.81914 0.60461 0.75089 0.0
H8051 H 0.82175 0.60983 0.73769 0.0
S8052 S 0.8516 0.61246 0.75266 0.0
N8053 N 0.84455 0.60893 0.75826 0.0
N8054 N 0.84752 0.61422 0.74407 0.0
C8055 C 0.83999 0.61201 0.7455 0.0
C8056 C 0.83842 0.60907 0.75316 0.0
C8057 C 0.13242 0.11973 0.51469 0.0
C8058 C 0.13175 0.11321 0.51974 0.0
C8059 C 0.13322 0.11882 0.50655 0.0
C8060 C 0.13337 0.11134 0.50312 0.0
H8061 H 0.1324 0.12563 0.51705 0.0
H8062 H 0.13384 0.12399 0.50291 0.0
S8063 S 0.13164 0.09236 0.51351 0.0
N8064 N 0.13117 0.09898 0.52056 0.0
N8065 N 0.13259 0.09732 0.50523 0.0
C8066 C 0.13254 0.10478 0.50801 0.0
C8067 C 0.13171 0.10569 0.51632 0.0
C8068 C 0.16944 0.90209 0.7511 0.0
C8069 C 0.17696 0.90179 0.75446 0.0
C8070 C 0.168 0.89912 0.74359 0.0
C8071 C 0.17401 0.89574 0.73907 0.0
H8072 H 0.16458 0.90457 0.75435 0.0
H8073 H 0.16208 0.89948 0.7413 0.0
S8074 S 0.19482 0.89375 0.74506 0.0
N8075 N 0.19057 0.898 0.75265 0.0
N8076 N 0.18785 0.8924 0.73846 0.0
C8077 C 0.18161 0.89551 0.74229 0.0
C8078 C 0.18307 0.89849 0.75002 0.0
C8079 C 0.62677 0.3976 0.49382 0.0
C8080 C 0.63233 0.39386 0.48901 0.0
C8081 C 0.62794 0.39828 0.50193 0.0
C8082 C 0.63474 0.3953 0.50554 0.0
H8083 H 0.62146 0.4 0.49129 0.0
H8084 H 0.62352 0.40125 0.5054 0.0
S8085 S 0.65108 0.385 0.49552 0.0
N8086 N 0.64491 0.38723 0.4884 0.0
N8087 N 0.64704 0.38833 0.50366 0.0
C8088 C 0.64033 0.39153 0.50079 0.0
C8089 C 0.63913 0.39083 0.49253 0.0
C8090 C 0.82571 0.39629 0.75665 0.0
C8091 C 0.83048 0.40219 0.75334 0.0
C8092 C 0.82711 0.39346 0.76429 0.0
C8093 C 0.83335 0.39639 0.76881 0.0
H8094 H 0.82092 0.39382 0.7533 0.0
H8095 H 0.82343 0.38883 0.7666 0.0
S8096 S 0.84758 0.41166 0.7629 0.0
N8097 N 0.84172 0.41075 0.75524 0.0
N8098 N 0.84428 0.40542 0.76952 0.0
C8099 C 0.83808 0.4023 0.76562 0.0
C8100 C 0.83666 0.4052 0.7579 0.0
C8101 C 0.67593 0.61391 0.25449 0.0
C8102 C 0.67795 0.60601 0.25323 0.0
C8103 C 0.67449 0.6168 0.26205 0.0
C8104 C 0.67497 0.61191 0.26871 0.0
H8105 H 0.6751 0.61783 0.24956 0.0
H8106 H 0.67278 0.62288 0.26267 0.0
S8107 S 0.68096 0.59099 0.26872 0.0
N8108 N 0.68122 0.59356 0.25939 0.0
N8109 N 0.67816 0.59888 0.27355 0.0
C8110 C 0.67739 0.6041 0.26758 0.0
C8111 C 0.67894 0.60118 0.25987 0.0
C8112 C 0.51672 0.63351 0.89948 0.0
C8113 C 0.51983 0.62947 0.89297 0.0
C8114 C 0.50859 0.6348 0.90022 0.0
C8115 C 0.50332 0.63215 0.89445 0.0
H8116 H 0.52061 0.63598 0.90385 0.0
H8117 H 0.50645 0.63819 0.90515 0.0
S8118 S 0.50829 0.62021 0.87702 0.0
N8119 N 0.51683 0.62198 0.88122 0.0
N8120 N 0.50167 0.62459 0.88253 0.0
C8121 C 0.50631 0.62775 0.88818 0.0
C8122 C 0.51453 0.62636 0.88746 0.0
C8123 C 0.60506 0.25117 0.16962 0.0
C8124 C 0.60729 0.25551 0.17626 0.0
C8125 C 0.60776 0.24352 0.16842 0.0
C8126 C 0.61277 0.23983 0.17384 0.0
H8127 H 0.6013 0.25376 0.1652 0.0
H8128 H 0.60599 0.24053 0.16311 0.0
S8129 S 0.61993 0.24847 0.19248 0.0
N8130 N 0.61458 0.2555 0.18848 0.0
N8131 N 0.61959 0.24101 0.18631 0.0
C8132 C 0.615 0.24407 0.18057 0.0
C8133 C 0.61227 0.25192 0.18176 0.0
C8134 C 0.99319 0.38226 0.39429 0.0
C8135 C 0.98787 0.37622 0.39247 0.0
C8136 C 1.00126 0.38076 0.39496 0.0
C8137 C 0.00427 0.37316 0.39383 0.0
H8138 H 0.99113 0.38822 0.39506 0.0
H8139 H 0.00518 0.3856 0.39616 0.0
S8140 S 0.99268 0.35517 0.38999 0.0
N8141 N 0.9861 0.36226 0.39025 0.0
N8142 N 1.00123 0.35944 0.39151 0.0
C8143 C 0.99897 0.36704 0.39228 0.0
C8144 C 0.99078 0.36857 0.39159 0.0
C8145 C 0.90407 0.75847 0.67865 0.0
C8146 C 0.89947 0.75189 0.67667 0.0
C8147 C 0.90135 0.76613 0.67739 0.0
C8148 C 0.89391 0.76756 0.67411 0.0
H8149 H 0.9099 0.75768 0.68104 0.0
H8150 H 0.90518 0.77098 0.67887 0.0
S8151 S 0.87952 0.75244 0.66799 0.0
N8152 N 0.88704 0.74737 0.67137 0.0
N8153 N 0.88194 0.76175 0.66903 0.0
C8154 C 0.88915 0.76106 0.67236 0.0
C8155 C 0.89192 0.75325 0.67363 0.0
C8156 C 0.51718 0.36883 0.61407 0.0
C8157 C 0.52043 0.37641 0.61395 0.0
C8158 C 0.5091 0.36762 0.6132 0.0
C8159 C 0.50392 0.37394 0.61215 0.0
H8160 H 0.5209 0.36377 0.61502 0.0
H8161 H 0.50688 0.36167 0.61351 0.0
S8162 S 0.50944 0.39495 0.6111 0.0
N8163 N 0.51786 0.39034 0.61243 0.0
N8164 N 0.50263 0.38806 0.61078 0.0
C8165 C 0.5071 0.38154 0.61169 0.0
C8166 C 0.51537 0.38278 0.61259 0.0
C8167 C 0.90393 0.24918 0.82866 0.0
C8168 C 0.89958 0.25576 0.83112 0.0
C8169 C 0.90125 0.24152 0.83002 0.0
C8170 C 0.89408 0.24011 0.83387 0.0
H8171 H 0.90954 0.24997 0.82577 0.0
H8172 H 0.90486 0.23665 0.82813 0.0
S8173 S 0.8805 0.25524 0.84159 0.0
N8174 N 0.88775 0.2603 0.83765 0.0
N8175 N 0.88269 0.24593 0.84013 0.0
C8176 C 0.88958 0.24662 0.83618 0.0
C8177 C 0.89232 0.25442 0.83483 0.0
C8178 C 0.98952 0.63916 0.11389 0.0
C8179 C 0.98633 0.63155 0.11392 0.0
C8180 C 0.99758 0.64041 0.113 0.0
C8181 C 1.00282 0.63411 0.11209 0.0
H8182 H 0.98576 0.64421 0.11473 0.0
H8183 H 0.99976 0.64638 0.11318 0.0
S8184 S 0.99746 0.61304 0.11149 0.0
N8185 N 0.98901 0.61761 0.11271 0.0
N8186 N 0.00422 0.61997 0.11102 0.0
C8187 C 0.99969 0.62648 0.11179 0.0
C8188 C 0.99144 0.6252 0.11271 0.0
C8189 C 0.6141 0.75348 0.33666 0.0
C8190 C 0.60842 0.7519 0.33091 0.0
C8191 C 0.61687 0.76113 0.33789 0.0
C8192 C 0.61403 0.76745 0.33341 0.0
H8193 H 0.61622 0.74882 0.34041 0.0
H8194 H 0.62105 0.76215 0.34255 0.0
S8195 S 0.59977 0.76623 0.31707 0.0
N8196 N 0.60046 0.75713 0.32033 0.0
N8197 N 0.60569 0.77154 0.32261 0.0
C8198 C 0.60855 0.7659 0.32746 0.0
C8199 C 0.60574 0.75811 0.32622 0.0
C8200 C 0.89959 0.51696 0.63164 0.0
C8201 C 0.89215 0.52043 0.6307 0.0
C8202 C 0.90038 0.50881 0.63282 0.0
C8203 C 0.89375 0.50386 0.63308 0.0
H8204 H 0.90478 0.52061 0.63183 0.0
H8205 H 0.90617 0.50642 0.63387 0.0
S8206 S 0.87315 0.50993 0.62954 0.0
N8207 N 0.87819 0.51818 0.62918 0.0
N8208 N 0.87965 0.50296 0.63122 0.0
C8209 C 0.88637 0.50723 0.63161 0.0
C8210 C 0.88557 0.51548 0.63047 0.0
C8211 C 0.75351 0.67341 0.89271 0.0
C8212 C 0.75203 0.67716 0.89992 0.0
C8213 C 0.76119 0.67222 0.89001 0.0
C8214 C 0.76771 0.67472 0.89441 0.0
H8215 H 0.74871 0.67104 0.88929 0.0
H8216 H 0.76202 0.66901 0.8846 0.0
S8217 S 0.76702 0.68596 0.913 0.0
N8218 N 0.75773 0.68418 0.91093 0.0
N8219 N 0.77216 0.6819 0.90587 0.0
C8220 C 0.76631 0.67885 0.9014 0.0
C8221 C 0.75849 0.68008 0.90415 0.0
C8222 C 0.61459 0.49238 0.12474 0.0
C8223 C 0.61366 0.48707 0.13099 0.0
C8224 C 0.61381 0.50053 0.12592 0.0
C8225 C 0.61211 0.5036 0.1334 0.0
H8226 H 0.61627 0.49026 0.119 0.0
H8227 H 0.61489 0.50447 0.12105 0.0
S8228 S 0.60804 0.49209 0.15137 0.0
N8229 N 0.61015 0.48542 0.14469 0.0
N8230 N 0.60873 0.50065 0.1469 0.0
C8231 C 0.61075 0.49831 0.13956 0.0
C8232 C 0.61152 0.49007 0.13836 0.0
C8233 C 0.7491 0.32686 0.40282 0.0
C8234 C 0.75542 0.33121 0.39977 0.0
C8235 C 0.74141 0.32808 0.40011 0.0
C8236 C 0.7398 0.33369 0.39426 0.0
H8237 H 0.75011 0.32257 0.4074 0.0
H8238 H 0.73667 0.32468 0.40264 0.0
S8239 S 0.75419 0.34698 0.38486 0.0
N8240 N 0.75949 0.34156 0.39089 0.0
N8241 N 0.74508 0.34384 0.3858 0.0
C8242 C 0.74607 0.33805 0.39119 0.0
C8243 C 0.75387 0.33682 0.39394 0.0
C8244 C 0.89984 0.49043 0.87566 0.0
C8245 C 0.89244 0.48703 0.87701 0.0
C8246 C 0.90066 0.49858 0.87451 0.0
C8247 C 0.89409 0.50359 0.87469 0.0
H8248 H 0.90498 0.48673 0.87511 0.0
H8249 H 0.9064 0.50092 0.87314 0.0
S8250 S 0.87367 0.49774 0.8794 0.0
N8251 N 0.87861 0.48942 0.8794 0.0
N8252 N 0.88013 0.50464 0.87738 0.0
C8253 C 0.88676 0.50029 0.87657 0.0
C8254 C 0.88594 0.49205 0.87769 0.0
C8255 C 0.74897 0.67886 0.10348 0.0
C8256 C 0.75554 0.67699 0.10813 0.0
C8257 C 0.7413 0.67761 0.10621 0.0
C8258 C 0.73987 0.67443 0.11369 0.0
H8259 H 0.74975 0.68117 0.09762 0.0
H8260 H 0.73645 0.67901 0.10235 0.0
S8261 S 0.75501 0.66863 0.12822 0.0
N8262 N 0.76007 0.67191 0.12065 0.0
N8263 N 0.7457 0.66957 0.12576 0.0
C8264 C 0.74638 0.67279 0.1185 0.0
C8265 C 0.75419 0.67406 0.11572 0.0
C8266 C 0.60805 0.51666 0.37681 0.0
C8267 C 0.61546 0.52031 0.37665 0.0
C8268 C 0.60729 0.50852 0.37555 0.0
C8269 C 0.6139 0.50378 0.37411 0.0
H8270 H 0.60281 0.52016 0.37756 0.0
H8271 H 0.60146 0.506 0.37538 0.0
S8272 S 0.63465 0.51034 0.37447 0.0
N8273 N 0.62954 0.51844 0.37585 0.0
N8274 N 0.62814 0.50323 0.37365 0.0
C8275 C 0.62134 0.50732 0.37446 0.0
C8276 C 0.62211 0.51555 0.37569 0.0
C8277 C 0.75609 0.33839 0.60543 0.0
C8278 C 0.752 0.33145 0.6072 0.0
C8279 C 0.76373 0.33963 0.60813 0.0
C8280 C 0.76765 0.33399 0.61269 0.0
H8281 H 0.75331 0.34297 0.60202 0.0
H8282 H 0.76655 0.34515 0.60671 0.0
S8283 S 0.7597 0.3146 0.61857 0.0
N8284 N 0.75249 0.31872 0.61358 0.0
N8285 N 0.76695 0.32103 0.61862 0.0
C8286 C 0.76365 0.32698 0.61447 0.0
C8287 C 0.75581 0.32572 0.61174 0.0
C8288 C 0.63233 0.89978 0.51723 0.0
C8289 C 0.63038 0.89243 0.52047 0.0
C8290 C 0.63361 0.90066 0.50911 0.0
C8291 C 0.63299 0.89422 0.50398 0.0
H8292 H 0.63324 0.90479 0.52103 0.0
H8293 H 0.63543 0.90633 0.50689 0.0
S8294 S 0.62667 0.87412 0.50936 0.0
N8295 N 0.62693 0.87888 0.51777 0.0
N8296 N 0.62929 0.88054 0.50261 0.0
C8297 C 0.63053 0.887 0.50711 0.0
C8298 C 0.62924 0.88611 0.51532 0.0
C8299 C 0.13308 0.62159 0.49201 0.0
C8300 C 0.13062 0.61535 0.48719 0.0
C8301 C 0.13423 0.6206 0.50008 0.0
C8302 C 0.13284 0.61335 0.50373 0.0
H8303 H 0.13427 0.62731 0.4895 0.0
H8304 H 0.13628 0.62554 0.5035 0.0
S8305 S 0.12612 0.59516 0.49397 0.0
N8306 N 0.12672 0.60163 0.48678 0.0
N8307 N 0.12867 0.59986 0.50205 0.0
C8308 C 0.1301 0.60711 0.4991 0.0
C8309 C 0.12902 0.6081 0.49082 0.0
C8310 C 0.67292 0.893 0.75365 0.0
C8311 C 0.67724 0.89987 0.75211 0.0
C8312 C 0.67172 0.89035 0.76135 0.0
C8313 C 0.67475 0.89447 0.76781 0.0
H8314 H 0.67016 0.88982 0.74891 0.0
H8315 H 0.6681 0.8852 0.76225 0.0
S8316 S 0.68743 0.91211 0.76694 0.0
N8317 N 0.68527 0.91025 0.75768 0.0
N8318 N 0.68292 0.90529 0.77215 0.0
C8319 C 0.67938 0.90113 0.76635 0.0
C8320 C 0.68065 0.90382 0.75851 0.0
C8321 C 0.36881 0.39481 0.99015 0.0
C8322 C 0.37632 0.39365 0.98691 0.0
C8323 C 0.36768 0.3955 0.99826 0.0
C8324 C 0.37403 0.39515 1.0035 0.0
H8325 H 0.3637 0.39501 0.98638 0.0
H8326 H 0.36176 0.39616 1.00047 0.0
S8327 S 0.39492 0.39251 0.99814 0.0
N8328 N 0.39026 0.3924 0.98965 0.0
N8329 N 0.38813 0.39385 0.00492 0.0
C8330 C 0.38161 0.39434 1.00037 0.0
C8331 C 0.38276 0.39357 0.99208 0.0
C8332 C 0.33533 0.60285 0.75799 0.0
C8333 C 0.33127 0.60721 0.75228 0.0
C8334 C 0.33621 0.60558 0.76566 0.0
C8335 C 0.33289 0.61274 0.76811 0.0
H8336 H 0.3381 0.59734 0.75646 0.0
H8337 H 0.33982 0.60215 0.7696 0.0
S8338 S 0.32061 0.62585 0.75578 0.0
N8339 N 0.32335 0.61879 0.74975 0.0
N8340 N 0.32449 0.62366 0.76437 0.0
C8341 C 0.32832 0.61691 0.76261 0.0
C8342 C 0.32759 0.61419 0.75469 0.0
C8343 C 0.86851 0.11389 0.0171 0.0
C8344 C 0.87606 0.11394 0.02044 0.0
C8345 C 0.86741 0.11318 0.00899 0.0
C8346 C 0.8738 0.11244 0.00384 0.0
H8347 H 0.86338 0.11458 0.02078 0.0
H8348 H 0.86148 0.11336 0.00671 0.0
S8349 S 0.89478 0.11193 0.00955 0.0
N8350 N 0.89005 0.11294 0.01795 0.0
N8351 N 0.88797 0.11153 1.00267 0.0
C8352 C 0.88138 0.11215 0.0071 0.0
C8353 C 0.88251 0.11291 0.0154 0.0
C8354 C 0.67244 0.10235 0.7497 0.0
C8355 C 0.6763 0.10677 0.75549 0.0
C8356 C 0.67161 0.10512 0.74203 0.0
C8357 C 0.67477 0.11239 0.73969 0.0
H8358 H 0.6698 0.09676 0.75115 0.0
H8359 H 0.66814 0.10163 0.73802 0.0
S8360 S 0.68648 0.12574 0.75229 0.0
N8361 N 0.68384 0.11856 0.75822 0.0
N8362 N 0.68281 0.12351 0.74362 0.0
C8363 C 0.67914 0.11664 0.74528 0.0
C8364 C 0.67982 0.11388 0.75319 0.0
C8365 C 0.8378 0.90279 0.25064 0.0
C8366 C 0.83118 0.90052 0.255 0.0
C8367 C 0.83899 0.90013 0.24297 0.0
C8368 C 0.83358 0.8951 0.23928 0.0
H8369 H 0.84221 0.90655 0.25323 0.0
H8370 H 0.84429 0.90192 0.23998 0.0
S8371 S 0.81497 0.88788 0.24794 0.0
N8372 N 0.81896 0.89321 0.25498 0.0
N8373 N 0.82112 0.88827 0.24047 0.0
C8374 C 0.82686 0.89286 0.24353 0.0
C8375 C 0.82567 0.89555 0.2514 0.0
C8376 C 0.49286 0.37575 0.11959 0.0
C8377 C 0.4878 0.37597 0.11304 0.0
C8378 C 0.50101 0.37504 0.1187 0.0
C8379 C 0.50443 0.37448 0.11124 0.0
H8380 H 0.49049 0.37607 0.12547 0.0
H8381 H 0.50465 0.37478 0.1239 0.0
S8382 S 0.49401 0.37496 0.09221 0.0
N8383 N 0.48695 0.37572 0.09881 0.0
N8384 N 0.5023 0.3744 0.09719 0.0
C8385 C 0.49953 0.37484 0.10464 0.0
C8386 C 0.49121 0.37561 0.10553 0.0
C8387 C 0.3937 0.75421 0.83147 0.0
C8388 C 0.40175 0.75293 0.83016 0.0
C8389 C 0.39074 0.76178 0.83278 0.0
C8390 C 0.39569 0.7684 0.83284 0.0
H8391 H 0.3897 0.74929 0.83185 0.0
H8392 H 0.38454 0.76243 0.83397 0.0
S8393 S 0.41708 0.76833 0.8288 0.0
N8394 N 0.41448 0.75902 0.82817 0.0
N8395 N 0.40898 0.77319 0.83092 0.0
C8396 C 0.40368 0.76725 0.83112 0.0
C8397 C 0.40669 0.75954 0.82973 0.0
C8398 C 0.01619 0.63551 0.60749 0.0
C8399 C 0.01942 0.63118 0.61374 0.0
C8400 C 0.00803 0.63646 0.6067 0.0
C8401 C 1.00276 0.63307 0.6121 0.0
H8402 H 0.02001 0.63841 0.60332 0.0
H8403 H 0.00583 0.63994 0.60187 0.0
S8404 S 0.0082 0.62083 0.62927 0.0
N8405 N 0.01666 0.62309 0.62515 0.0
N8406 N 1.00142 0.62509 0.62384 0.0
C8407 C 0.00592 0.62856 0.61825 0.0
C8408 C 0.01421 0.62757 0.61903 0.0
C8409 C 0.10606 0.25172 0.33871 0.0
C8410 C 0.10532 0.25468 0.33105 0.0
C8411 C 0.10903 0.24421 0.34012 0.0
C8412 C 0.11142 0.2393 0.33394 0.0
H8413 H 0.10437 0.25527 0.3437 0.0
H8414 H 0.10942 0.24223 0.34615 0.0
S8415 S 0.11052 0.24419 0.31275 0.0
N8416 N 0.10705 0.25209 0.31716 0.0
N8417 N 0.11275 0.23793 0.3198 0.0
C8418 C 0.11065 0.24214 0.32622 0.0
C8419 C 0.10762 0.24985 0.32478 0.0
C8420 C 0.49112 0.63948 0.39581 0.0
C8421 C 0.48759 0.63201 0.39558 0.0
C8422 C 0.49926 0.64035 0.39645 0.0
C8423 C 0.50426 0.63381 0.39692 0.0
H8424 H 0.48756 0.64471 0.3953 0.0
H8425 H 0.50169 0.64623 0.39642 0.0
S8426 S 0.49802 0.61298 0.39684 0.0
N8427 N 0.48973 0.61794 0.39612 0.0
N8428 N 0.50508 0.6196 0.39735 0.0
C8429 C 0.50081 0.62631 0.39702 0.0
C8430 C 0.49248 0.62541 0.39635 0.0
C8431 C 0.10511 0.75593 0.16911 0.0
C8432 C 0.10532 0.75261 0.17666 0.0
C8433 C 0.1081 0.76343 0.16765 0.0
C8434 C 0.11139 0.76798 0.17369 0.0
H8435 H 0.1027 0.75264 0.16424 0.0
H8436 H 0.10781 0.76569 0.16172 0.0
S8437 S 0.11314 0.76212 0.19457 0.0
N8438 N 0.10893 0.7545 0.19031 0.0
N8439 N 0.11457 0.76868 0.18757 0.0
C8440 C 0.11154 0.7648 0.18131 0.0
C8441 C 0.10854 0.75709 0.18279 0.0
C8442 C 0.01654 0.36991 0.89891 0.0
C8443 C 0.01984 0.37635 0.89498 0.0
C8444 C 0.00837 0.36905 0.89955 0.0
C8445 C 1.00315 0.37451 0.89616 0.0
H8446 H 0.02031 0.36542 0.90135 0.0
H8447 H 0.00614 0.36397 0.90266 0.0
S8448 S 0.00905 0.39243 0.8852 0.0
N8449 N 0.01744 0.38836 0.8878 0.0
N8450 N 1.0021 0.38666 0.88868 0.0
C8451 C 0.00646 0.38107 0.89231 0.0
C8452 C 0.01479 0.38198 0.89178 0.0
C8453 C 0.40648 0.24829 0.67645 0.0
C8454 C 0.40145 0.25468 0.67799 0.0
C8455 C 0.40356 0.24068 0.67537 0.0
C8456 C 0.39547 0.23913 0.67575 0.0
H8457 H 0.41274 0.24923 0.67583 0.0
H8458 H 0.40762 0.23604 0.67384 0.0
S8459 S 0.37988 0.25348 0.68056 0.0
N8460 N 0.38801 0.25873 0.68046 0.0
N8461 N 0.38256 0.2444 0.67857 0.0
C8462 C 0.39042 0.24533 0.67775 0.0
C8463 C 0.3934 0.2531 0.67885 0.0
C8464 C 0.10669 0.49169 0.37665 0.0
C8465 C 0.11402 0.48809 0.37533 0.0
C8466 C 0.10576 0.49987 0.37589 0.0
C8467 C 0.11211 0.5047 0.3738 0.0
H8468 H 0.10161 0.48814 0.37804 0.0
H8469 H 0.10001 0.50242 0.37678 0.0
S8470 S 0.1326 0.49837 0.37054 0.0
N8471 N 0.12784 0.49017 0.37249 0.0
N8472 N 0.12599 0.50543 0.37092 0.0
C8473 C 0.11947 0.50122 0.37273 0.0
C8474 C 0.12045 0.49295 0.37354 0.0
C8475 C 0.25113 0.32575 0.11122 0.0
C8476 C 0.25446 0.33056 0.10538 0.0
C8477 C 0.24347 0.32712 0.11403 0.0
C8478 C 0.23897 0.33339 0.11114 0.0
H8479 H 0.25447 0.32093 0.11367 0.0
H8480 H 0.24114 0.32339 0.11861 0.0
S8481 S 0.24495 0.34775 0.096 0.0
N8482 N 0.2526 0.34188 0.0969 0.0
N8483 N 0.2383 0.3444 0.10219 0.0
C8484 C 0.24219 0.33817 0.10528 0.0
C8485 C 0.24991 0.33677 0.1024 0.0
C8486 C 0.38996 0.51468 0.87995 0.0
C8487 C 0.39499 0.52009 0.87624 0.0
C8488 C 0.39083 0.50657 0.8789 0.0
C8489 C 0.39677 0.50347 0.87408 0.0
H8490 H 0.38522 0.51674 0.88365 0.0
H8491 H 0.38665 0.5027 0.88172 0.0
S8492 S 0.41179 0.51502 0.86336 0.0
N8493 N 0.40627 0.5217 0.86767 0.0
N8494 N 0.40808 0.50646 0.86594 0.0
C8495 C 0.402 0.50878 0.87052 0.0
C8496 C 0.40108 0.51707 0.87156 0.0
C8497 C 0.25934 0.67813 0.60153 0.0
C8498 C 0.2527 0.67789 0.60647 0.0
C8499 C 0.26692 0.67672 0.60443 0.0
C8500 C 0.26819 0.67503 0.6124 0.0
H8501 H 0.25865 0.6792 0.5953 0.0
H8502 H 0.27176 0.67662 0.60032 0.0
S8503 S 0.25305 0.67466 0.628 0.0
N8504 N 0.24807 0.67636 0.61988 0.0
N8505 N 0.26233 0.67407 0.62534 0.0
C8506 C 0.2617 0.67526 0.61748 0.0
C8507 C 0.25397 0.67663 0.61453 0.0
C8508 C 0.12003 0.51341 0.13112 0.0
C8509 C 0.11343 0.5183 0.13179 0.0
C8510 C 0.11939 0.50526 0.13209 0.0
C8511 C 0.11215 0.50176 0.13393 0.0
H8512 H 0.12572 0.51589 0.12973 0.0
H8513 H 0.1246 0.50169 0.13151 0.0
S8514 S 0.09316 0.51198 0.13645 0.0
N8515 N 0.09945 0.51906 0.13444 0.0
N8516 N 0.09828 0.50376 0.13639 0.0
C8517 C 0.10553 0.50658 0.13468 0.0
C8518 C 0.10616 0.51485 0.13358 0.0
C8519 C 0.25536 0.33879 0.90002 0.0
C8520 C 0.25276 0.33118 0.90183 0.0
C8521 C 0.26288 0.34014 0.89705 0.0
C8522 C 0.26818 0.33395 0.89574 0.0
H8523 H 0.25153 0.34378 0.90091 0.0
H8524 H 0.26458 0.34615 0.89588 0.0
S8525 S 0.26426 0.31288 0.8996 0.0
N8526 N 0.25606 0.31734 0.9022 0.0
N8527 N 0.27024 0.31985 0.89649 0.0
C8528 C 0.26567 0.32628 0.89754 0.0
C8529 C 0.25794 0.3249 0.90057 0.0
C8530 C 0.38784 0.4925 0.63472 0.0
C8531 C 0.39403 0.48774 0.632 0.0
C8532 C 0.38874 0.50062 0.6356 0.0
C8533 C 0.39582 0.50434 0.63369 0.0
H8534 H 0.38225 0.48992 0.63627 0.0
H8535 H 0.38387 0.50403 0.63783 0.0
S8536 S 0.41381 0.49476 0.62624 0.0
N8537 N 0.40753 0.48747 0.62739 0.0
N8538 N 0.40909 0.50281 0.62884 0.0
C8539 C 0.402 0.49976 0.63077 0.0
C8540 C 0.40112 0.49144 0.62995 0.0
C8541 C 0.25032 0.68224 0.39813 0.0
C8542 C 0.25444 0.67645 0.40235 0.0
C8543 C 0.2427 0.6808 0.39526 0.0
C8544 C 0.23906 0.67348 0.39638 0.0
H8545 H 0.253 0.68791 0.39708 0.0
H8546 H 0.23973 0.68536 0.39198 0.0
S8547 S 0.24734 0.65644 0.40701 0.0
N8548 N 0.25426 0.66318 0.40751 0.0
N8549 N 0.24005 0.66049 0.4021 0.0
C8550 C 0.24311 0.66771 0.40063 0.0
C8551 C 0.25077 0.66918 0.4036 0.0
C8552 C 0.38024 0.10897 0.49232 0.0
C8553 C 0.37527 0.11381 0.48786 0.0
C8554 C 0.37923 0.10817 0.50049 0.0
C8555 C 0.37311 0.11208 0.50445 0.0
H8556 H 0.38504 0.1059 0.48951 0.0
H8557 H 0.38322 0.10444 0.50373 0.0
S8558 S 0.35838 0.12527 0.49538 0.0
N8559 N 0.36392 0.12241 0.48797 0.0
N8560 N 0.36204 0.12095 0.50323 0.0
C8561 C 0.36805 0.11684 0.50001 0.0
C8562 C 0.36912 0.1177 0.49175 0.0
C8563 C 0.87224 0.38794 0.51535 0.0
C8564 C 0.87531 0.39398 0.52009 0.0
C8565 C 0.87137 0.38886 0.50723 0.0
C8566 C 0.87365 0.39582 0.50347 0.0
H8567 H 0.87039 0.38245 0.51796 0.0
H8568 H 0.86884 0.38411 0.50387 0.0
S8569 S 0.88211 0.4134 0.51296 0.0
N8570 N 0.88065 0.40721 0.52028 0.0
N8571 N 0.87923 0.40881 0.50494 0.0
C8572 C 0.87694 0.40183 0.50802 0.0
C8573 C 0.87774 0.40094 0.51634 0.0
C8574 C 0.33155 0.10088 0.24824 0.0
C8575 C 0.32969 0.10588 0.25455 0.0
C8576 C 0.3327 0.10381 0.24063 0.0
C8577 C 0.33208 0.11187 0.23903 0.0
H8578 H 0.33236 0.09466 0.24923 0.0
H8579 H 0.33445 0.09977 0.23605 0.0
S8580 S 0.32641 0.12735 0.25317 0.0
N8581 N 0.32665 0.11925 0.25847 0.0
N8582 N 0.32871 0.12471 0.24415 0.0
C8583 C 0.32978 0.11687 0.24515 0.0
C8584 C 0.32858 0.1139 0.25291 0.0
C8585 C 0.62648 0.6163 0.01471 0.0
C8586 C 0.63148 0.61258 0.02009 0.0
C8587 C 0.62754 0.6154 0.00658 0.0
C8588 C 0.6337 0.61081 1.00351 0.0
H8589 H 0.62184 0.62009 0.0168 0.0
H8590 H 0.62367 0.6186 1.00269 0.0
S8591 S 0.64816 0.59955 0.01531 0.0
N8592 N 0.64264 0.60399 0.0219 0.0
N8593 N 0.64458 0.6021 0.00668 0.0
C8594 C 0.6386 0.60687 0.0089 0.0
C8595 C 0.6375 0.60781 0.01716 0.0
C8596 C 0.67687 0.40643 0.24839 0.0
C8597 C 0.67786 0.40135 0.25485 0.0
C8598 C 0.67562 0.40353 0.24079 0.0
C8599 C 0.67531 0.39542 0.23933 0.0
H8600 H 0.67681 0.41272 0.24925 0.0
H8601 H 0.67454 0.40767 0.23609 0.0
S8602 S 0.67853 0.37962 0.25391 0.0
N8603 N 0.67906 0.38778 0.25908 0.0
N8604 N 0.67693 0.38237 0.24476 0.0
C8605 C 0.67677 0.39029 0.24561 0.0
C8606 C 0.67802 0.39323 0.25336 0.0
C8607 C 0.13604 0.90041 0.99107 0.0
C8608 C 0.13078 0.89485 0.98798 0.0
C8609 C 0.13706 0.90126 0.99922 0.0
C8610 C 0.13283 0.89661 0.0046 0.0
H8611 H 0.13958 0.90396 0.98718 0.0
H8612 H 0.14124 0.90555 1.00131 0.0
S8613 S 0.11802 0.88149 0.99946 0.0
N8614 N 0.12098 0.88496 0.99092 0.0
N8615 N 0.12306 0.88633 0.00615 0.0
C8616 C 0.12741 0.89117 1.00155 0.0
C8617 C 0.12636 0.89034 0.99328 0.0
C8618 C 0.33029 0.90652 0.25943 0.0
C8619 C 0.32962 0.90146 0.25292 0.0
C8620 C 0.33162 0.90361 0.26702 0.0
C8621 C 0.33234 0.89551 0.26842 0.0
H8622 H 0.33002 0.91281 0.25863 0.0
H8623 H 0.33244 0.90775 0.27177 0.0
S8624 S 0.33007 0.87971 0.25367 0.0
N8625 N 0.32918 0.88789 0.24857 0.0
N8626 N 0.33142 0.88245 0.26286 0.0
C8627 C 0.33119 0.89038 0.26208 0.0
C8628 C 0.32988 0.89333 0.25434 0.0
C8629 C 0.1761 0.11365 0.75435 0.0
C8630 C 0.17818 0.10576 0.75307 0.0
C8631 C 0.17472 0.11652 0.76193 0.0
C8632 C 0.17532 0.11165 0.76858 0.0
H8633 H 0.17517 0.11756 0.74943 0.0
H8634 H 0.17295 0.12259 0.76256 0.0
S8635 S 0.18152 0.09078 0.76852 0.0
N8636 N 0.18163 0.09335 0.75919 0.0
N8637 N 0.17869 0.09865 0.77339 0.0
C8638 C 0.1778 0.10386 0.76742 0.0
C8639 C 0.17928 0.10095 0.7597 0.0
C8640 C 0.10516 0.11126 0.41969 0.0
C8641 C 0.09782 0.10785 0.42125 0.0
C8642 C 0.1114 0.11055 0.425 0.0
C8643 C 0.11054 0.10651 0.43217 0.0
H8644 H 0.10601 0.11484 0.41451 0.0
H8645 H 0.11686 0.11347 0.42359 0.0
S8646 S 0.0929 0.09539 0.43843 0.0
N8647 N 0.09043 0.09924 0.42989 0.0
N8648 N 0.10195 0.09835 0.44012 0.0
C8649 C 0.1034 0.10261 0.43355 0.0
C8650 C 0.09709 0.1032 0.42805 0.0
C8651 C 0.12559 0.83999 0.69716 0.0
C8652 C 0.12855 0.83328 0.69341 0.0
C8653 C 0.13045 0.84646 0.69873 0.0
C8654 C 0.1384 0.84647 0.69651 0.0
H8655 H 0.1195 0.84022 0.69894 0.0
H8656 H 0.12792 0.85155 0.70157 0.0
S8657 S 0.14895 0.83029 0.68653 0.0
N8658 N 0.13989 0.82703 0.68748 0.0
N8659 N 0.14903 0.83911 0.69051 0.0
C8660 C 0.14142 0.83977 0.69279 0.0
C8661 C 0.13649 0.8332 0.69122 0.0
C8662 C 0.39984 0.90043 0.91859 0.0
C8663 C 0.40771 0.89952 0.92087 0.0
C8664 C 0.39389 0.90116 0.9242 0.0
C8665 C 0.3956 0.90101 0.93227 0.0
H8666 H 0.39827 0.90044 0.91243 0.0
H8667 H 0.38787 0.90162 0.92222 0.0
S8668 S 0.4152 0.89859 0.94128 0.0
N8669 N 0.41688 0.89845 0.93174 0.0
N8670 N 0.40566 0.89986 0.94226 0.0
C8671 C 0.40344 0.90031 0.93462 0.0
C8672 C 0.4095 0.89954 0.92892 0.0
C8673 C 0.37449 0.17068 0.18819 0.0
C8674 C 0.37906 0.17404 0.19418 0.0
C8675 C 0.36959 0.16426 0.18969 0.0
C8676 C 0.36905 0.16101 0.19724 0.0
H8677 H 0.37468 0.17305 0.18229 0.0
H8678 H 0.36624 0.16177 0.1849 0.0
S8679 S 0.38004 0.16731 0.21484 0.0
N8680 N 0.38292 0.17343 0.20789 0.0
N8681 N 0.3736 0.16139 0.2107 0.0
C8682 C 0.37353 0.1643 0.20328 0.0
C8683 C 0.37856 0.17082 0.20176 0.0
C8684 C 0.10581 0.89932 0.08883 0.0
C8685 C 0.09792 0.89951 0.08644 0.0
C8686 C 0.11193 0.89996 0.08336 0.0
C8687 C 0.1104 0.90083 0.07529 0.0
H8688 H 0.10728 0.89853 0.09495 0.0
H8689 H 0.11792 0.89958 0.08544 0.0
S8690 S 0.09079 0.90164 0.06598 0.0
N8691 N 0.08893 0.90065 0.07542 0.0
N8692 N 0.10043 0.90192 0.0652 0.0
C8693 C 0.10255 0.90128 0.07285 0.0
C8694 C 0.09632 0.9006 0.07841 0.0
C8695 C 0.37511 0.83738 0.31947 0.0
C8696 C 0.37872 0.8333 0.31327 0.0
C8697 C 0.37023 0.84382 0.31806 0.0
C8698 C 0.3687 0.84642 0.31038 0.0
H8699 H 0.37601 0.83553 0.32549 0.0
H8700 H 0.36761 0.8468 0.32302 0.0
S8701 S 0.37698 0.83811 0.29211 0.0
N8702 N 0.38064 0.83256 0.29915 0.0
N8703 N 0.37134 0.84463 0.29652 0.0
C8704 C 0.37223 0.84242 0.30412 0.0
C8705 C 0.37726 0.83588 0.30556 0.0
C8706 C 0.405 0.11642 0.58465 0.0
C8707 C 0.40954 0.10987 0.58672 0.0
C8708 C 0.39897 0.11584 0.57913 0.0
C8709 C 0.39709 0.10866 0.57548 0.0
H8710 H 0.40627 0.12212 0.58714 0.0
H8711 H 0.39585 0.12116 0.5776 0.0
S8712 S 0.40685 0.0896 0.57933 0.0
N8713 N 0.4116 0.09589 0.58495 0.0
N8714 N 0.40007 0.09474 0.5747 0.0
C8715 C 0.4015 0.10201 0.5776 0.0
C8716 C 0.40774 0.10263 0.58319 0.0
C8717 C 0.13645 0.1739 0.8144 0.0
C8718 C 0.12824 0.17342 0.81377 0.0
C8719 C 0.14123 0.1674 0.81283 0.0
C8720 C 0.13797 0.1602 0.81049 0.0
H8721 H 0.13921 0.17932 0.81624 0.0
H8722 H 0.14752 0.16802 0.81345 0.0
S8723 S 0.11683 0.1559 0.80785 0.0
N8724 N 0.11707 0.1652 0.81053 0.0
N8725 N 0.12605 0.15295 0.80764 0.0
C8726 C 0.12978 0.15966 0.80977 0.0
C8727 C 0.12491 0.16626 0.81142 0.0
C8728 C 0.42371 0.10103 0.10315 0.0
C8729 C 0.421 0.09832 0.11048 0.0
C8730 C 0.42936 0.10703 0.10265 0.0
C8731 C 0.43252 0.11046 0.10947 0.0
H8732 H 0.42138 0.09855 0.09779 0.0
H8733 H 0.43118 0.10908 0.09692 0.0
S8734 S 0.42806 0.10475 0.13 0.0
N8735 N 0.42233 0.09911 0.12462 0.0
N8736 N 0.433 0.1102 0.12372 0.0
C8737 C 0.43002 0.10759 0.11679 0.0
C8738 C 0.42425 0.10158 0.11729 0.0
C8739 C 0.17188 0.20058 0.37704 0.0
C8740 C 0.17381 0.19289 0.37935 0.0
C8741 C 0.16547 0.20208 0.3721 0.0
C8742 C 0.16071 0.19596 0.36928 0.0
H8743 H 0.17535 0.2055 0.37906 0.0
H8744 H 0.16429 0.20809 0.37041 0.0
S8745 S 0.16318 0.17477 0.37368 0.0
N8746 N 0.1705 0.17907 0.37832 0.0
N8747 N 0.15823 0.18191 0.36942 0.0
C8748 C 0.16252 0.18825 0.37163 0.0
C8749 C 0.16909 0.18672 0.37658 0.0
C8750 C 0.08546 0.90538 0.60242 0.0
C8751 C 0.08596 0.91002 0.60923 0.0
C8752 C 0.07979 0.8994 0.60179 0.0
C8753 C 0.07448 0.89794 0.60795 0.0
H8754 H 0.08952 0.90633 0.59763 0.0
H8755 H 0.07968 0.89579 0.59657 0.0
S8756 S 0.07304 0.90894 0.62662 0.0
N8757 N 0.08046 0.91306 0.62197 0.0
N8758 N 0.06982 0.90192 0.62079 0.0
C8759 C 0.07483 0.90271 0.61465 0.0
C8760 C 0.08057 0.90873 0.61529 0.0
C8761 C 0.34017 0.81161 0.88252 0.0
C8762 C 0.33277 0.81282 0.87911 0.0
C8763 C 0.34677 0.81006 0.87789 0.0
C8764 C 0.34628 0.80977 0.86964 0.0
H8765 H 0.34085 0.81183 0.88884 0.0
H8766 H 0.35233 0.8091 0.88081 0.0
S8767 S 0.32826 0.81291 0.85784 0.0
N8768 N 0.32531 0.81375 0.86702 0.0
N8769 N 0.33775 0.81105 0.85827 0.0
C8770 C 0.33889 0.81096 0.86616 0.0
C8771 C 0.33214 0.81244 0.8709 0.0
C8772 C 0.42902 0.91099 0.39752 0.0
C8773 C 0.42101 0.91005 0.39934 0.0
C8774 C 0.43435 0.90479 0.39837 0.0
C8775 C 0.43186 0.89742 0.40103 0.0
H8776 H 0.43116 0.91648 0.39516 0.0
H8777 H 0.4404 0.90568 0.39663 0.0
S8778 S 0.41181 0.89203 0.40735 0.0
N8779 N 0.41104 0.90129 0.40457 0.0
N8780 N 0.42107 0.88957 0.40593 0.0
C8781 C 0.42396 0.89643 0.40309 0.0
C8782 C 0.41853 0.90276 0.4023 0.0
C8783 C 0.33364 0.19224 0.6369 0.0
C8784 C 0.33329 0.19458 0.62899 0.0
C8785 C 0.34022 0.19391 0.64155 0.0
C8786 C 0.34667 0.19799 0.63844 0.0
H8787 H 0.32885 0.18894 0.63948 0.0
H8788 H 0.34035 0.1918 0.64754 0.0
S8789 S 0.34826 0.20619 0.61836 0.0
N8790 N 0.33968 0.20169 0.61845 0.0
N8791 N 0.35204 0.20488 0.62718 0.0
C8792 C 0.34628 0.20059 0.63062 0.0
C8793 C 0.3396 0.19886 0.62589 0.0
C8794 C 0.0785 0.09631 0.89985 0.0
C8795 C 0.0866 0.0979 0.89942 0.0
C8796 C 0.07298 0.10237 0.90051 0.0
C8797 C 0.07535 0.11025 0.90073 0.0
H8798 H 0.07637 0.09035 0.89932 0.0
H8799 H 0.0668 0.10089 0.90044 0.0
S8800 S 0.09584 0.11752 0.90108 0.0
N8801 N 0.09671 0.10791 0.90023 0.0
N8802 N 0.08632 0.11931 0.90135 0.0
C8803 C 0.08343 0.11191 0.90075 0.0
C8804 C 0.08905 0.10574 0.90012 0.0
C8805 C 0.16622 0.81327 0.12568 0.0
C8806 C 0.17385 0.81373 0.1288 0.0
C8807 C 0.15975 0.81168 0.13052 0.0
C8808 C 0.16068 0.81064 0.13865 0.0
H8809 H 0.16526 0.81411 0.11946 0.0
H8810 H 0.15396 0.8114 0.12792 0.0
S8811 S 0.17933 0.8113 0.14972 0.0
N8812 N 0.18191 0.81301 0.14054 0.0
N8813 N 0.16972 0.8101 0.1496 0.0
C8814 C 0.16824 0.81108 0.14183 0.0
C8815 C 0.17483 0.8126 0.13692 0.0
C8816 C 0.10883 0.4288 0.09648 0.0
C8817 C 0.1085 0.42064 0.09781 0.0
C8818 C 0.10811 0.43417 0.10266 0.0
C8819 C 0.10709 0.43159 0.11041 0.0
H8820 H 0.10996 0.43106 0.09065 0.0
H8821 H 0.10873 0.44036 0.10141 0.0
S8822 S 0.10471 0.411 0.11694 0.0
N8823 N 0.10621 0.41033 0.1074 0.0
N8824 N 0.10502 0.42045 0.11903 0.0
C8825 C 0.10638 0.4235 0.1118 0.0
C8826 C 0.10706 0.41802 0.1055 0.0
C8827 C 0.60798 0.08865 0.89977 0.0
C8828 C 0.60806 0.08656 0.90774 0.0
C8829 C 0.60733 0.08292 0.89392 0.0
C8830 C 0.60677 0.07491 0.89583 0.0
H8831 H 0.60859 0.09473 0.89804 0.0
H8832 H 0.6075 0.08476 0.88784 0.0
S8833 S 0.60673 0.0664 0.91583 0.0
N8834 N 0.60746 0.07594 0.91725 0.0
N8835 N 0.60626 0.06519 0.90623 0.0
C8836 C 0.60659 0.07277 0.90378 0.0
C8837 C 0.60725 0.07859 0.90973 0.0
C8838 C 0.18795 0.37525 0.17012 0.0
C8839 C 0.19413 0.37884 0.17426 0.0
C8840 C 0.18941 0.3704 0.16366 0.0
C8841 C 0.1971 0.3689 0.16111 0.0
H8842 H 0.18193 0.37613 0.17193 0.0
H8843 H 0.18447 0.3678 0.16063 0.0
S8844 S 0.21531 0.37714 0.16957 0.0
N8845 N 0.20824 0.38078 0.1751 0.0
N8846 N 0.21095 0.37153 0.163 0.0
C8847 C 0.20334 0.37241 0.16517 0.0
C8848 C 0.20186 0.37741 0.17173 0.0
C8849 C 0.90153 0.91942 0.40244 0.0
C8850 C 0.89788 0.9212 0.4096 0.0
C8851 C 0.90225 0.92512 0.39651 0.0
C8852 C 0.89918 0.93276 0.39745 0.0
H8853 H 0.90393 0.91362 0.40147 0.0
H8854 H 0.90526 0.92351 0.39116 0.0
S8855 S 0.88844 0.93997 0.41501 0.0
N8856 N 0.89098 0.93093 0.41729 0.0
N8857 N 0.89182 0.94147 0.40607 0.0
C8858 C 0.89536 0.93449 0.40459 0.0
C8859 C 0.89482 0.92875 0.41066 0.0
C8860 C 0.81926 0.13177 0.1697 0.0
C8861 C 0.81304 0.12905 0.17439 0.0
C8862 C 0.81788 0.13653 0.16315 0.0
C8863 C 0.81024 0.13879 0.16105 0.0
H8864 H 0.82526 0.13029 0.17114 0.0
H8865 H 0.82286 0.13847 0.15971 0.0
S8866 S 0.79189 0.13294 0.17107 0.0
N8867 N 0.7989 0.12874 0.17627 0.0
N8868 N 0.79635 0.13778 0.16397 0.0
C8869 C 0.80396 0.13614 0.16566 0.0
C8870 C 0.80535 0.13125 0.17232 0.0
C8871 C 0.39691 0.58847 0.6066 0.0
C8872 C 0.39858 0.58668 0.59871 0.0
C8873 C 0.39757 0.58277 0.61252 0.0
C8874 C 0.39994 0.57506 0.61079 0.0
H8875 H 0.39491 0.59428 0.6082 0.0
H8876 H 0.39592 0.58436 0.61844 0.0
S8877 S 0.4057 0.56751 0.59123 0.0
N8878 N 0.40304 0.57666 0.58958 0.0
N8879 N 0.40468 0.56614 0.60075 0.0
C8880 C 0.40202 0.5733 0.603 0.0
C8881 C 0.40126 0.57906 0.59697 0.0
C8882 C 0.19622 0.62557 0.3403 0.0
C8883 C 0.19457 0.62885 0.33293 0.0
C8884 C 0.19778 0.63034 0.3468 0.0
C8885 C 0.19765 0.63858 0.34622 0.0
H8886 H 0.19634 0.61926 0.34104 0.0
H8887 H 0.19906 0.62753 0.35236 0.0
S8888 S 0.19326 0.65006 0.32826 0.0
N8889 N 0.19276 0.64082 0.32541 0.0
N8890 N 0.19551 0.6498 0.33767 0.0
C8891 C 0.19603 0.64193 0.33886 0.0
C8892 C 0.19452 0.63707 0.33222 0.0
C8893 C 0.30626 0.37691 0.83544 0.0
C8894 C 0.31395 0.37848 0.83286 0.0
C8895 C 0.30484 0.37193 0.84185 0.0
C8896 C 0.31107 0.36838 0.84591 0.0
H8897 H 0.30131 0.37966 0.83256 0.0
H8898 H 0.29885 0.37102 0.84378 0.0
S8899 S 0.33218 0.36984 0.84101 0.0
N8900 N 0.3278 0.37551 0.8345 0.0
N8901 N 0.32512 0.36629 0.8466 0.0
C8902 C 0.31875 0.36971 0.84327 0.0
C8903 C 0.32019 0.37473 0.83674 0.0
C8904 C 0.90591 0.88964 0.5817 0.0
C8905 C 0.90955 0.89626 0.58498 0.0
C8906 C 0.89984 0.89039 0.57625 0.0
C8907 C 0.89708 0.8978 0.57386 0.0
H8908 H 0.90788 0.8838 0.58323 0.0
H8909 H 0.89732 0.88509 0.57383 0.0
S8910 S 0.90432 0.917 0.58101 0.0
N8911 N 0.90982 0.9105 0.58563 0.0
N8912 N 0.89829 0.91191 0.5754 0.0
C8913 C 0.90063 0.90449 0.57711 0.0
C8914 C 0.90688 0.90372 0.58267 0.0
C8915 C 0.87621 0.17348 0.30631 0.0
C8916 C 0.88121 0.1738 0.31289 0.0
C8917 C 0.87132 0.167 0.30498 0.0
C8918 C 0.8712 0.16063 0.31021 0.0
H8919 H 0.87603 0.17831 0.30219 0.0
H8920 H 0.86748 0.16705 0.29992 0.0
S8921 S 0.88333 0.15839 0.32811 0.0
N8922 N 0.8858 0.16707 0.32459 0.0
N8923 N 0.87674 0.15484 0.32199 0.0
C8924 C 0.87628 0.16079 0.3167 0.0
C8925 C 0.88126 0.16737 0.31805 0.0
C8926 C 0.60422 0.10635 0.08625 0.0
C8927 C 0.59823 0.11191 0.08528 0.0
C8928 C 0.61025 0.10563 0.08066 0.0
C8929 C 0.61047 0.11046 0.07394 0.0
H8930 H 0.60421 0.10251 0.09132 0.0
H8931 H 0.61472 0.1012 0.08157 0.0
S8932 S 0.59627 0.12626 0.06913 0.0
N8933 N 0.59291 0.12241 0.07735 0.0
N8934 N 0.60431 0.12133 0.06701 0.0
C8935 C 0.60453 0.11613 0.07305 0.0
C8936 C 0.5984 0.11679 0.07868 0.0
C8937 C 0.63544 0.83308 0.8139 0.0
C8938 C 0.62746 0.83305 0.81178 0.0
C8939 C 0.6402 0.83962 0.81251 0.0
C8940 C 0.63719 0.84641 0.80892 0.0
H8941 H 0.63801 0.82802 0.81677 0.0
H8942 H 0.6463 0.83934 0.81426 0.0
S8943 S 0.61673 0.84932 0.80214 0.0
N8944 N 0.61681 0.84033 0.80575 0.0
N8945 N 0.62571 0.85273 0.8033 0.0
C8946 C 0.62924 0.84646 0.80672 0.0
C8947 C 0.62438 0.83977 0.80814 0.0
C8948 C 0.9025 0.10963 0.92069 0.0
C8949 C 0.91028 0.11027 0.92336 0.0
C8950 C 0.89624 0.10881 0.92597 0.0
C8951 C 0.89751 0.10861 0.93413 0.0
H8952 H 0.90123 0.10985 0.91447 0.0
H8953 H 0.89033 0.10849 0.92366 0.0
S8954 S 0.91671 0.11029 0.94415 0.0
N8955 N 0.91887 0.11076 0.93473 0.0
N8956 N 0.90711 0.10919 0.94461 0.0
C8957 C 0.90526 0.10908 0.93687 0.0
C8958 C 0.91163 0.10993 0.9315 0.0
C8959 C 0.6352 0.1745 0.69377 0.0
C8960 C 0.6271 0.17426 0.69532 0.0
C8961 C 0.64 0.16799 0.69516 0.0
C8962 C 0.63692 0.16097 0.69821 0.0
H8963 H 0.63784 0.17974 0.69133 0.0
H8964 H 0.6462 0.16845 0.69384 0.0
S8965 S 0.61611 0.15734 0.70343 0.0
N8966 N 0.61623 0.16649 0.70025 0.0
N8967 N 0.62523 0.15417 0.70274 0.0
C8968 C 0.62884 0.16066 0.69986 0.0
C8969 C 0.62394 0.16731 0.69843 0.0
C8970 C 0.60702 0.89218 0.42165 0.0
C8971 C 0.60048 0.89722 0.42157 0.0
C8972 C 0.61299 0.89307 0.42723 0.0
C8973 C 0.61258 0.89896 0.43296 0.0
H8974 H 0.60735 0.88728 0.41762 0.0
H8975 H 0.61778 0.8889 0.42728 0.0
S8976 S 0.59747 0.91442 0.43456 0.0
N8977 N 0.59456 0.90897 0.4271 0.0
N8978 N 0.60566 0.91039 0.43778 0.0
C8979 C 0.60634 0.90428 0.43272 0.0
C8980 C 0.60032 0.90347 0.42697 0.0
C8981 C 0.87232 0.83293 0.19319 0.0
C8982 C 0.88023 0.8329 0.19555 0.0
C8983 C 0.86747 0.83941 0.19459 0.0
C8984 C 0.87031 0.84614 0.19843 0.0
H8985 H 0.86987 0.82794 0.19013 0.0
H8986 H 0.86143 0.83913 0.19266 0.0
S8987 S 0.89055 0.84899 0.20589 0.0
N8988 N 0.89064 0.84009 0.20208 0.0
N8989 N 0.88159 0.85238 0.20453 0.0
C8990 C 0.8782 0.84617 0.20086 0.0
C8991 C 0.88314 0.83955 0.19944 0.0
C8992 C 0.5869 0.90285 0.90001 0.0
C8993 C 0.58485 0.9099 0.89628 0.0
C8994 C 0.58141 0.89675 0.90086 0.0
C8995 C 0.57372 0.89743 0.89784 0.0
H8996 H 0.59275 0.90209 0.90237 0.0
H8997 H 0.58321 0.89149 0.90391 0.0
S8998 S 0.56584 0.9146 0.88693 0.0
N8999 N 0.57483 0.9172 0.88935 0.0
N9000 N 0.56466 0.90567 0.89045 0.0
C9001 C 0.57172 0.90445 0.89395 0.0
C9002 C 0.57725 0.91069 0.89327 0.0
C9003 C 0.83932 0.80809 0.62469 0.0
C9004 C 0.83292 0.8126 0.62728 0.0
C9005 C 0.8458 0.80671 0.62961 0.0
C9006 C 0.84613 0.80986 0.63724 0.0
H9007 H 0.83929 0.80557 0.61886 0.0
H9008 H 0.85064 0.80328 0.62735 0.0
S9009 S 0.83082 0.82208 0.64671 0.0
N9010 N 0.82733 0.82027 0.63787 0.0
N9011 N 0.83936 0.81756 0.64715 0.0
C9012 C 0.83973 0.81435 0.63987 0.0
C9013 C 0.83317 0.81574 0.63488 0.0
C9014 C 0.92132 0.10501 0.39286 0.0
C9015 C 0.92207 0.0983 0.39761 0.0
C9016 C 0.92668 0.11122 0.3934 0.0
C9017 C 0.93309 0.11097 0.39862 0.0
H9018 H 0.91678 0.10533 0.38844 0.0
H9019 H 0.92592 0.11617 0.38949 0.0
S9020 S 0.93699 0.09523 0.41315 0.0
N9021 N 0.92906 0.09226 0.40846 0.0
N9022 N 0.93941 0.10369 0.40914 0.0
C9023 C 0.93362 0.1045 0.40373 0.0
C9024 C 0.92807 0.09823 0.40328 0.0
C9025 C 0.67413 0.20191 0.13219 0.0
C9026 C 0.67421 0.19572 0.1267 0.0
C9027 C 0.66756 0.20331 0.13695 0.0
C9028 C 0.66088 0.19852 0.13647 0.0
H9029 H 0.67921 0.20566 0.13285 0.0
H9030 H 0.6678 0.20803 0.1412 0.0
S9031 S 0.65792 0.18182 0.12289 0.0
N9032 N 0.66688 0.18492 0.12097 0.0
N9033 N 0.65454 0.18763 0.12985 0.0
C9034 C 0.66079 0.19246 0.1309 0.0
C9035 C 0.66745 0.19105 0.12602 0.0
C9036 C 0.58126 0.10094 0.61845 0.0
C9037 C 0.58586 0.09861 0.61202 0.0
C9038 C 0.57554 0.10677 0.61768 0.0
C9039 C 0.57423 0.11056 0.61048 0.0
H9040 H 0.58194 0.09811 0.6241 0.0
H9041 H 0.5721 0.10834 0.62279 0.0
S9042 S 0.58493 0.10687 0.59193 0.0
N9043 N 0.5889 0.10069 0.59825 0.0
N9044 N 0.57813 0.11173 0.59683 0.0
C9045 C 0.5789 0.10842 0.60403 0.0
C9046 C 0.58469 0.10241 0.60479 0.0
C9047 C 0.66839 0.80779 0.383 0.0
C9048 C 0.67483 0.81223 0.38042 0.0
C9049 C 0.66189 0.80652 0.37809 0.0
C9050 C 0.66158 0.80972 0.37047 0.0
H9051 H 0.6684 0.80523 0.38881 0.0
H9052 H 0.65701 0.80313 0.38034 0.0
S9053 S 0.67703 0.82183 0.36104 0.0
N9054 N 0.6805 0.81992 0.36987 0.0
N9055 N 0.66844 0.8174 0.36058 0.0
C9056 C 0.66803 0.81415 0.36785 0.0
C9057 C 0.67461 0.81544 0.37284 0.0
C9058 C 0.92574 0.90444 0.11781 0.0
C9059 C 0.92192 0.90729 0.11109 0.0
C9060 C 0.93151 0.89867 0.11726 0.0
C9061 C 0.93369 0.89546 0.10999 0.0
H9062 H 0.92436 0.90678 0.12355 0.0
H9063 H 0.93432 0.89672 0.12262 0.0
S9064 S 0.92538 0.90079 0.09063 0.0
N9065 N 0.92067 0.90646 0.09691 0.0
N9066 N 0.93154 0.89549 0.0959 0.0
C9067 C 0.92998 0.89828 0.1032 0.0
C9068 C 0.92408 0.90421 0.10375 0.0
C9069 C 0.83474 0.20204 0.87717 0.0
C9070 C 0.8336 0.1948 0.88099 0.0
C9071 C 0.84122 0.20333 0.87227 0.0
C9072 C 0.84682 0.19742 0.87096 0.0
H9073 H 0.83056 0.20676 0.87796 0.0
H9074 H 0.84178 0.20896 0.86937 0.0
S9075 S 0.84675 0.17751 0.87975 0.0
N9076 N 0.8387 0.18166 0.88314 0.0
N9077 N 0.85102 0.18418 0.87419 0.0
C9078 C 0.84585 0.19021 0.87486 0.0
C9079 C 0.83923 0.18889 0.87982 0.0
C9080 C 0.8903 0.57923 0.90812 0.0
C9081 C 0.8957 0.58537 0.90894 0.0
C9082 C 0.89115 0.57362 0.90219 0.0
C9083 C 0.89744 0.57393 0.89684 0.0
H9084 H 0.8854 0.57873 0.91213 0.0
H9085 H 0.88677 0.56904 0.90176 0.0
S9086 S 0.91318 0.58897 0.89659 0.0
N9087 N 0.90752 0.59155 0.90401 0.0
N9088 N 0.90919 0.58098 0.89283 0.0
C9089 C 0.90287 0.58011 0.89759 0.0
C9090 C 0.902 0.58582 0.90367 0.0
C9091 C 0.39046 0.92688 0.10256 0.0
C9092 C 0.3964 0.92132 0.1013 0.0
C9093 C 0.3914 0.93288 0.10807 0.0
C9094 C 0.39829 0.93353 0.11256 0.0
H9095 H 0.38509 0.92668 0.09918 0.0
H9096 H 0.38664 0.93701 0.10886 0.0
S9097 S 0.41555 0.92035 0.1115 0.0
N9098 N 0.40937 0.91675 0.10496 0.0
N9099 N 0.41115 0.92805 0.11538 0.0
C9100 C 0.40425 0.92795 0.11139 0.0
C9101 C 0.40332 0.92186 0.10573 0.0
C9102 C 0.8122 0.63509 0.83277 0.0
C9103 C 0.81179 0.62687 0.83339 0.0
C9104 C 0.81079 0.63993 0.83926 0.0
C9105 C 0.80882 0.63673 0.84659 0.0
H9106 H 0.81375 0.63781 0.82724 0.0
H9107 H 0.81124 0.64623 0.83853 0.0
S9108 S 0.80687 0.61561 0.85134 0.0
N9109 N 0.80918 0.61576 0.84194 0.0
N9110 N 0.80654 0.62487 0.85415 0.0
C9111 C 0.80831 0.62854 0.8473 0.0
C9112 C 0.80981 0.6236 0.8407 0.0
C9113 C 0.11033 0.08749 0.60562 0.0
C9114 C 0.10981 0.08501 0.59777 0.0
C9115 C 0.10954 0.08216 0.61184 0.0
C9116 C 0.10821 0.07412 0.61047 0.0
H9117 H 0.11151 0.09359 0.60696 0.0
H9118 H 0.11018 0.08432 0.61778 0.0
S9119 S 0.10628 0.06461 0.59103 0.0
N9120 N 0.10776 0.07396 0.589 0.0
N9121 N 0.10627 0.06398 0.60069 0.0
C9122 C 0.1074 0.07161 0.60267 0.0
C9123 C 0.10821 0.07703 0.59633 0.0
C9124 C 0.19972 0.8825 0.83922 0.0
C9125 C 0.19486 0.88027 0.83295 0.0
C9126 C 0.20092 0.87746 0.84564 0.0
C9127 C 0.19726 0.87005 0.84604 0.0
H9128 H 0.20264 0.88814 0.83913 0.0
H9129 H 0.20464 0.87944 0.85039 0.0
S9130 S 0.18404 0.86156 0.83096 0.0
N9131 N 0.18638 0.87028 0.82748 0.0
N9132 N 0.18871 0.86074 0.8394 0.0
C9133 C 0.19242 0.86779 0.83974 0.0
C9134 C 0.19121 0.87292 0.83324 0.0
C9135 C 0.60401 0.42381 0.4038 0.0
C9136 C 0.61131 0.4215 0.4069 0.0
C9137 C 0.6035 0.42969 0.39804 0.0
C9138 C 0.61028 0.43347 0.39524 0.0
H9139 H 0.59868 0.42097 0.40576 0.0
H9140 H 0.59781 0.43116 0.39563 0.0
S9141 S 0.63063 0.43035 0.40227 0.0
N9142 N 0.62533 0.42399 0.40728 0.0
N9143 N 0.62438 0.43502 0.39655 0.0
C9144 C 0.61755 0.43142 0.39854 0.0
C9145 C 0.61807 0.42544 0.40433 0.0
C9146 C 0.80527 0.37688 0.67306 0.0
C9147 C 0.81248 0.3808 0.67403 0.0
C9148 C 0.80392 0.37195 0.66661 0.0
C9149 C 0.80975 0.37071 0.66091 0.0
H9150 H 0.80063 0.3776 0.67734 0.0
H9151 H 0.79834 0.36895 0.66618 0.0
S9152 S 0.82951 0.3798 0.66053 0.0
N9153 N 0.82547 0.38315 0.66866 0.0
N9154 N 0.82284 0.37412 0.65642 0.0
C9155 C 0.8169 0.37473 0.66171 0.0
C9156 C 0.81829 0.37972 0.66828 0.0
C9157 C 0.70175 0.63098 0.17329 0.0
C9158 C 0.69466 0.62682 0.17413 0.0
C9159 C 0.70312 0.63587 0.1668 0.0
C9160 C 0.69742 0.63683 0.16092 0.0
H9161 H 0.70629 0.63048 0.1777 0.0
H9162 H 0.70861 0.63904 0.16647 0.0
S9163 S 0.67799 0.62707 0.16014 0.0
N9164 N 0.68191 0.62397 0.16843 0.0
N9165 N 0.68458 0.63293 0.15614 0.0
C9166 C 0.69038 0.63259 0.16159 0.0
C9167 C 0.68898 0.62763 0.1682 0.0
C9168 C 0.60177 0.60289 0.9229 0.0
C9169 C 0.59764 0.60993 0.92165 0.0
C9170 C 0.60777 0.60244 0.92856 0.0
C9171 C 0.60975 0.609 0.93317 0.0
H9172 H 0.60043 0.59777 0.91939 0.0
H9173 H 0.611 0.59701 0.92921 0.0
S9174 S 0.59996 0.62842 0.93277 0.0
N9175 N 0.59552 0.62334 0.92584 0.0
N9176 N 0.60659 0.62248 0.93655 0.0
C9177 C 0.60541 0.61594 0.93215 0.0
C9178 C 0.59942 0.61641 0.92637 0.0
C9179 C 0.62577 0.34098 0.19586 0.0
C9180 C 0.62893 0.33377 0.19341 0.0
C9181 C 0.63064 0.34743 0.19745 0.0
C9182 C 0.63883 0.34692 0.19654 0.0
H9183 H 0.6195 0.34162 0.1966 0.0
H9184 H 0.62797 0.3529 0.19927 0.0
S9185 S 0.65 0.32937 0.19027 0.0
N9186 N 0.64075 0.32652 0.19013 0.0
N9187 N 0.64988 0.3386 0.19316 0.0
C9188 C 0.64205 0.33974 0.19412 0.0
C9189 C 0.63711 0.33318 0.19255 0.0
C9190 C 0.90751 0.39456 0.42761 0.0
C9191 C 0.90731 0.39938 0.42093 0.0
C9192 C 0.90173 0.39512 0.43339 0.0
C9193 C 0.89562 0.40059 0.43276 0.0
H9194 H 0.91211 0.39024 0.4283 0.0
H9195 H 0.90198 0.39114 0.43835 0.0
S9196 S 0.89266 0.4148 0.41659 0.0
N9197 N 0.90067 0.40995 0.41408 0.0
N9198 N 0.88978 0.41106 0.42507 0.0
C9199 C 0.89544 0.40559 0.42621 0.0
C9200 C 0.90129 0.40495 0.42025 0.0
C9201 C 0.87593 0.66991 0.68771 0.0
C9202 C 0.87898 0.67437 0.69394 0.0
C9203 C 0.87097 0.66352 0.68908 0.0
C9204 C 0.86881 0.66134 0.69674 0.0
H9205 H 0.87732 0.67142 0.6817 0.0
H9206 H 0.86878 0.66025 0.68409 0.0
S9207 S 0.8755 0.67075 0.71513 0.0
N9208 N 0.87971 0.67593 0.70811 0.0
N9209 N 0.87028 0.66394 0.71065 0.0
C9210 C 0.87179 0.66572 0.70303 0.0
C9211 C 0.8769 0.67222 0.70165 0.0
C9212 C 0.60512 0.39592 0.58858 0.0
C9213 C 0.59787 0.39949 0.58697 0.0
C9214 C 0.6114 0.39648 0.5833 0.0
C9215 C 0.61067 0.40054 0.57613 0.0
H9216 H 0.60586 0.39232 0.59376 0.0
H9217 H 0.61679 0.39344 0.58474 0.0
S9218 S 0.5933 0.41201 0.56975 0.0
N9219 N 0.5907 0.40823 0.57827 0.0
N9220 N 0.60231 0.40887 0.56811 0.0
C9221 C 0.60362 0.40459 0.5747 0.0
C9222 C 0.59727 0.40414 0.58016 0.0
C9223 C 0.87631 0.338 0.81964 0.0
C9224 C 0.87903 0.33329 0.81344 0.0
C9225 C 0.87148 0.34449 0.81823 0.0
C9226 C 0.86915 0.34652 0.81058 0.0
H9227 H 0.87785 0.33662 0.82564 0.0
H9228 H 0.86954 0.34795 0.82319 0.0
S9229 S 0.87497 0.33639 0.79228 0.0
N9230 N 0.87926 0.3313 0.79932 0.0
N9231 N 0.8701 0.34348 0.79672 0.0
C9232 C 0.8718 0.34188 0.80433 0.0
C9233 C 0.87676 0.33527 0.80575 0.0
C9234 C 0.90717 0.6031 0.08284 0.0
C9235 C 0.90889 0.61026 0.08658 0.0
C9236 C 0.90111 0.60254 0.07727 0.0
C9237 C 0.89659 0.60914 0.0752 0.0
H9238 H 0.91052 0.59789 0.08426 0.0
H9239 H 0.89989 0.5969 0.07462 0.0
S9240 S 0.89933 0.6294 0.08271 0.0
N9241 N 0.90591 0.62415 0.08747 0.0
N9242 N 0.89471 0.62318 0.07694 0.0
C9243 C 0.89841 0.61636 0.07879 0.0
C9244 C 0.90449 0.6169 0.08449 0.0
C9245 C 0.63098 0.67222 0.30728 0.0
C9246 C 0.62794 0.67362 0.31483 0.0
C9247 C 0.63584 0.66575 0.30577 0.0
C9248 C 0.63787 0.66043 0.31175 0.0
H9249 H 0.6296 0.67615 0.30249 0.0
H9250 H 0.63812 0.66498 0.29989 0.0
S9251 S 0.63133 0.66137 0.3325 0.0
N9252 N 0.62737 0.66917 0.32836 0.0
N9253 N 0.63618 0.65684 0.32546 0.0
C9254 C 0.63477 0.6617 0.3193 0.0
C9255 C 0.62988 0.66832 0.32085 0.0
C9256 C 0.91906 0.60522 0.6072 0.0
C9257 C 0.92158 0.59763 0.60924 0.0
C9258 C 0.92443 0.61143 0.6064 0.0
C9259 C 0.93251 0.61023 0.60754 0.0
H9260 H 0.91288 0.60639 0.6063 0.0
H9261 H 0.92224 0.61722 0.60499 0.0
S9262 S 0.9421 0.59167 0.61344 0.0
N9263 N 0.93271 0.58942 0.61274 0.0
N9264 N 0.94275 0.60103 0.61106 0.0
C9265 C 0.93511 0.60269 0.60951 0.0
C9266 C 0.92967 0.5964 0.6104 0.0
C9267 C 0.67281 0.7002 0.87521 0.0
C9268 C 0.6734 0.69314 0.87947 0.0
C9269 C 0.66633 0.70175 0.87038 0.0
C9270 C 0.66023 0.69627 0.86958 0.0
H9271 H 0.67742 0.70456 0.87559 0.0
H9272 H 0.66618 0.70721 0.86713 0.0
S9273 S 0.65876 0.67705 0.87965 0.0
N9274 N 0.66723 0.68068 0.88262 0.0
N9275 N 0.65497 0.68369 0.87373 0.0
C9276 C 0.66065 0.68928 0.87392 0.0
C9277 C 0.66725 0.68769 0.87883 0.0
C9278 C 0.57964 0.4105 0.10448 0.0
C9279 C 0.58695 0.40943 0.1082 0.0
C9280 C 0.57426 0.40432 0.10372 0.0
C9281 C 0.57598 0.3968 0.10659 0.0
H9282 H 0.57793 0.41624 0.10236 0.0
H9283 H 0.56855 0.40557 0.10122 0.0
S9284 S 0.59474 0.39051 0.11566 0.0
N9285 N 0.59587 0.40001 0.11414 0.0
N9286 N 0.58594 0.38834 0.1123 0.0
C9287 C 0.5835 0.39548 0.10974 0.0
C9288 C 0.58894 0.4018 0.11063 0.0
C9289 C 0.84007 0.31139 0.38266 0.0
C9290 C 0.83273 0.31276 0.3792 0.0
C9291 C 0.84667 0.30964 0.37808 0.0
C9292 C 0.84621 0.30929 0.36983 0.0
H9293 H 0.84072 0.31164 0.38898 0.0
H9294 H 0.85218 0.30858 0.38105 0.0
S9295 S 0.82837 0.3128 0.35789 0.0
N9296 N 0.82537 0.31379 0.36704 0.0
N9297 N 0.8378 0.3107 0.35841 0.0
C9298 C 0.83888 0.31063 0.3663 0.0
C9299 C 0.83215 0.31233 0.37098 0.0
C9300 C 0.92927 0.41087 0.89886 0.0
C9301 C 0.92112 0.40949 0.89907 0.0
C9302 C 0.93468 0.40473 0.89968 0.0
C9303 C 0.93215 0.39696 0.9007 0.0
H9304 H 0.93151 0.41671 0.89774 0.0
H9305 H 0.94088 0.40603 0.89914 0.0
S9306 S 0.91157 0.3903 0.90277 0.0
N9307 N 0.91086 0.39984 0.90123 0.0
N9308 N 0.92104 0.38827 0.90262 0.0
C9309 C 0.92406 0.39553 0.90128 0.0
C9310 C 0.91854 0.40179 0.9005 0.0
C9311 C 0.83321 0.69302 0.13656 0.0
C9312 C 0.83332 0.69425 0.12839 0.0
C9313 C 0.83981 0.69459 0.1412 0.0
C9314 C 0.84678 0.69746 0.13785 0.0
H9315 H 0.82803 0.69063 0.13937 0.0
H9316 H 0.83953 0.69333 0.14742 0.0
S9317 S 0.84979 0.70259 0.11691 0.0
N9318 N 0.84076 0.6991 0.11726 0.0
N9319 N 0.85316 0.70212 0.12598 0.0
C9320 C 0.84687 0.69898 0.12974 0.0
C9321 C 0.84016 0.69735 0.12501 0.0
C9322 C 0.58401 0.60209 0.39156 0.0
C9323 C 0.58647 0.59801 0.39828 0.0
C9324 C 0.57841 0.60805 0.39202 0.0
C9325 C 0.57507 0.61031 0.39923 0.0
H9326 H 0.58628 0.60052 0.38584 0.0
H9327 H 0.5766 0.61082 0.38659 0.0
S9328 S 0.5799 0.60178 0.41866 0.0
N9329 N 0.58533 0.59675 0.41243 0.0
N9330 N 0.57493 0.60817 0.41333 0.0
C9331 C 0.57755 0.60635 0.40604 0.0
C9332 C 0.58322 0.60017 0.40555 0.0
C9333 C 0.67303 0.31695 0.63597 0.0
C9334 C 0.67376 0.3133 0.62864 0.0
C9335 C 0.66658 0.31543 0.64082 0.0
C9336 C 0.66061 0.31019 0.63852 0.0
H9337 H 0.67748 0.32103 0.63794 0.0
H9338 H 0.66631 0.31835 0.64645 0.0
S9339 S 0.65997 0.29911 0.61979 0.0
N9340 N 0.66821 0.30417 0.6193 0.0
N9341 N 0.65593 0.3014 0.62828 0.0
C9342 C 0.66135 0.30646 0.63118 0.0
C9343 C 0.66795 0.30801 0.62626 0.0
C9344 C 0.60673 0.91938 0.60495 0.0
C9345 C 0.60951 0.92178 0.59755 0.0
C9346 C 0.606 0.92475 0.61117 0.0
C9347 C 0.60797 0.9327 0.61015 0.0
H9348 H 0.60516 0.9133 0.60596 0.0
H9349 H 0.604 0.92267 0.61683 0.0
S9350 S 0.61608 0.94183 0.59222 0.0
N9351 N 0.61465 0.93258 0.58978 0.0
N9352 N 0.6131 0.94263 0.6014 0.0
C9353 C 0.61073 0.93516 0.60282 0.0
C9354 C 0.61154 0.92971 0.59654 0.0
C9355 C 0.10461 0.58061 0.40944 0.0
C9356 C 0.10911 0.58752 0.40872 0.0
C9357 C 0.10408 0.57517 0.40328 0.0
C9358 C 0.10799 0.57644 0.39614 0.0
H9359 H 0.10167 0.57925 0.4149 0.0
H9360 H 0.10092 0.56976 0.40429 0.0
S9361 S 0.1195 0.59411 0.39075 0.0
N9362 N 0.11697 0.5956 0.39997 0.0
N9363 N 0.11559 0.58561 0.3883 0.0
C9364 C 0.11198 0.5836 0.39512 0.0
C9365 C 0.11262 0.58909 0.40142 0.0
C9366 C 0.69445 0.87106 0.67472 0.0
C9367 C 0.69443 0.8793 0.67418 0.0
C9368 C 0.69605 0.86636 0.66815 0.0
C9369 C 0.69772 0.86974 0.66081 0.0
H9370 H 0.693 0.8682 0.68021 0.0
H9371 H 0.69572 0.86005 0.66878 0.0
S9372 S 0.69941 0.89103 0.65657 0.0
N9373 N 0.69686 0.89062 0.6659 0.0
N9374 N 0.7 0.88184 0.6536 0.0
C9375 C 0.69803 0.87798 0.66029 0.0
C9376 C 0.69635 0.88274 0.66695 0.0
C9377 C 0.39208 0.42714 0.90833 0.0
C9378 C 0.39741 0.42092 0.90899 0.0
C9379 C 0.3928 0.43274 0.90237 0.0
C9380 C 0.39897 0.43241 0.89687 0.0
H9381 H 0.3873 0.42769 0.91248 0.0
H9382 H 0.38845 0.43735 0.90205 0.0
S9383 S 0.41463 0.4173 0.89629 0.0
N9384 N 0.40906 0.41467 0.90377 0.0
N9385 N 0.41061 0.42532 0.89262 0.0
C9386 C 0.40435 0.42616 0.89747 0.0
C9387 C 0.40354 0.4204 0.90353 0.0
C9388 C 0.31532 0.63719 0.67424 0.0
C9389 C 0.31272 0.62937 0.67461 0.0
C9390 C 0.3137 0.6419 0.66769 0.0
C9391 C 0.30942 0.63894 0.66131 0.0
H9392 H 0.31876 0.63963 0.67899 0.0
H9393 H 0.31599 0.64783 0.66752 0.0
S9394 S 0.30062 0.61914 0.65977 0.0
N9395 N 0.30521 0.61906 0.6683 0.0
N9396 N 0.30216 0.62792 0.65598 0.0
C9397 C 0.3066 0.63121 0.66171 0.0
C9398 C 0.30826 0.62642 0.66836 0.0
C9399 C 0.90453 0.08541 0.10208 0.0
C9400 C 0.89704 0.0876 0.09935 0.0
C9401 C 0.90541 0.07985 0.10812 0.0
C9402 C 0.89883 0.07622 0.1115 0.0
H9403 H 0.90974 0.08797 0.09949 0.0
H9404 H 0.91126 0.07823 0.11001 0.0
S9405 S 0.87802 0.07989 0.10657 0.0
N9406 N 0.88297 0.0857 0.10061 0.0
N9407 N 0.88466 0.07529 0.1119 0.0
C9408 C 0.89135 0.07843 0.10892 0.0
C9409 C 0.89044 0.08411 0.10286 0.0
C9410 C 0.68786 0.1316 0.83804 0.0
C9411 C 0.69408 0.12852 0.83359 0.0
C9412 C 0.68924 0.13645 0.84451 0.0
C9413 C 0.69691 0.13845 0.84677 0.0
H9414 H 0.68184 0.13032 0.83647 0.0
H9415 H 0.68426 0.13866 0.84778 0.0
S9416 S 0.71528 0.13168 0.83738 0.0
N9417 N 0.70824 0.12763 0.8321 0.0
N9418 N 0.71082 0.13686 0.84423 0.0
C9419 C 0.7032 0.13547 0.84239 0.0
C9420 C 0.70179 0.13047 0.83581 0.0
C9421 C 0.81177 0.88215 0.34046 0.0
C9422 C 0.81265 0.87881 0.33299 0.0
C9423 C 0.81021 0.87748 0.34704 0.0
C9424 C 0.80958 0.86925 0.34644 0.0
H9425 H 0.81226 0.88844 0.34122 0.0
H9426 H 0.80952 0.88035 0.35266 0.0
S9427 S 0.81175 0.85762 0.32819 0.0
N9428 N 0.81289 0.8668 0.32534 0.0
N9429 N 0.81016 0.85799 0.33773 0.0
C9430 C 0.81042 0.86585 0.33897 0.0
C9431 C 0.81192 0.87063 0.33226 0.0
C9432 C 0.40208 0.39696 0.08697 0.0
C9433 C 0.40994 0.39732 0.08449 0.0
C9434 C 0.39589 0.39768 0.08161 0.0
C9435 C 0.3973 0.39878 0.07355 0.0
H9436 H 0.40071 0.39596 0.09309 0.0
H9437 H 0.38993 0.39717 0.08377 0.0
S9438 S 0.41678 0.40022 0.06402 0.0
N9439 N 0.41877 0.39897 0.07341 0.0
N9440 N 0.40713 0.40034 0.06337 0.0
C9441 C 0.40511 0.39943 0.07102 0.0
C9442 C 0.41142 0.39869 0.07648 0.0
C9443 C 0.38332 0.6676 0.81002 0.0
C9444 C 0.3802 0.67482 0.81249 0.0
C9445 C 0.37842 0.66113 0.80858 0.0
C9446 C 0.37026 0.66162 0.80967 0.0
H9447 H 0.38958 0.66696 0.80915 0.0
H9448 H 0.38107 0.65565 0.80675 0.0
S9449 S 0.3592 0.6792 0.81608 0.0
N9450 N 0.36844 0.68206 0.816 0.0
N9451 N 0.35927 0.66995 0.81323 0.0
C9452 C 0.36708 0.66882 0.81211 0.0
C9453 C 0.37204 0.6754 0.81353 0.0
C9454 C 0.09811 0.61574 0.57819 0.0
C9455 C 0.09811 0.61177 0.58539 0.0
C9456 C 0.10424 0.61482 0.57283 0.0
C9457 C 0.11059 0.60973 0.57434 0.0
H9458 H 0.09334 0.61968 0.57672 0.0
H9459 H 0.10402 0.61823 0.56747 0.0
S9460 S 0.11307 0.59765 0.59233 0.0
N9461 N 0.10483 0.60252 0.59384 0.0
N9462 N 0.11626 0.60043 0.58361 0.0
C9463 C 0.1106 0.60565 0.58155 0.0
C9464 C 0.10439 0.60674 0.5871 0.0
C9465 C 0.12824 0.33881 0.31774 0.0
C9466 C 0.12692 0.33321 0.31183 0.0
C9467 C 0.13314 0.34529 0.31646 0.0
C9468 C 0.13694 0.34644 0.30921 0.0
H9469 H 0.12562 0.33809 0.32348 0.0
H9470 H 0.13396 0.34943 0.3212 0.0
S9471 S 0.13517 0.33367 0.2917 0.0
N9472 N 0.12949 0.32947 0.29832 0.0
N9473 N 0.13896 0.34146 0.29601 0.0
C9474 C 0.13557 0.34096 0.30321 0.0
C9475 C 0.13053 0.33439 0.3045 0.0
C9476 C 0.41081 0.60922 0.43078 0.0
C9477 C 0.40938 0.61035 0.42272 0.0
C9478 C 0.40462 0.60844 0.43615 0.0
C9479 C 0.39678 0.60879 0.43366 0.0
H9480 H 0.41675 0.60929 0.43303 0.0
H9481 H 0.406 0.60797 0.44234 0.0
S9482 S 0.38989 0.61033 0.41309 0.0
N9483 N 0.39954 0.61081 0.41243 0.0
N9484 N 0.38791 0.60941 0.42253 0.0
C9485 C 0.39527 0.60945 0.42558 0.0
C9486 C 0.40157 0.61022 0.42011 0.0
C9487 C 0.12487 0.66823 0.19912 0.0
C9488 C 0.12776 0.67505 0.19549 0.0
C9489 C 0.12979 0.66177 0.20054 0.0
C9490 C 0.13775 0.66189 0.19832 0.0
H9491 H 0.11879 0.6679 0.2009 0.0
H9492 H 0.12731 0.65659 0.20326 0.0
S9493 S 0.14813 0.67837 0.18863 0.0
N9494 N 0.13903 0.6815 0.18963 0.0
N9495 N 0.1483 0.6695 0.19248 0.0
C9496 C 0.1407 0.6687 0.19474 0.0
C9497 C 0.1357 0.67525 0.19329 0.0
C9498 C 0.10018 0.3895 0.92744 0.0
C9499 C 0.09854 0.39547 0.922 0.0
C9500 C 0.10604 0.39041 0.93311 0.0
C9501 C 0.11055 0.3973 0.93355 0.0
H9502 H 0.09682 0.38411 0.92738 0.0
H9503 H 0.10708 0.38562 0.93716 0.0
S9504 S 0.10871 0.41461 0.92048 0.0
N9505 N 0.10194 0.40846 0.91728 0.0
N9506 N 0.11305 0.41017 0.92793 0.0
C9507 C 0.10905 0.40329 0.92806 0.0
C9508 C 0.103 0.40239 0.92232 0.0
C9509 C 0.37249 0.3328 0.69413 0.0
C9510 C 0.38065 0.33324 0.6953 0.0
C9511 C 0.36763 0.33927 0.69554 0.0
C9512 C 0.37071 0.34642 0.69824 0.0
H9513 H 0.36985 0.32744 0.692 0.0
H9514 H 0.36139 0.33865 0.69452 0.0
S9515 S 0.39165 0.35063 0.70231 0.0
N9516 N 0.39159 0.34139 0.69942 0.0
N9517 N 0.38244 0.35359 0.70198 0.0
C9518 C 0.37885 0.34694 0.69949 0.0
C9519 C 0.38382 0.34035 0.69801 0.0
C9520 C 0.07842 0.41022 0.39921 0.0
C9521 C 0.08609 0.40871 0.39655 0.0
C9522 C 0.07292 0.40417 0.40006 0.0
C9523 C 0.07483 0.39635 0.39827 0.0
H9524 H 0.07652 0.41618 0.40034 0.0
H9525 H 0.06706 0.40568 0.40198 0.0
S9526 S 0.09435 0.38915 0.39187 0.0
N9527 N 0.09553 0.3987 0.39287 0.0
N9528 N 0.08511 0.38737 0.39413 0.0
C9529 C 0.08258 0.3947 0.39594 0.0
C9530 C 0.08821 0.40087 0.39514 0.0
C9531 C 0.33284 0.31212 0.13504 0.0
C9532 C 0.33364 0.31227 0.12682 0.0
C9533 C 0.3393 0.31074 0.13993 0.0
C9534 C 0.34677 0.30932 0.13677 0.0
H9535 H 0.32719 0.31323 0.13772 0.0
H9536 H 0.33845 0.31076 0.14622 0.0
S9537 S 0.35201 0.30895 0.11569 0.0
N9538 N 0.34251 0.3108 0.11576 0.0
N9539 N 0.35465 0.30815 0.12498 0.0
C9540 C 0.34765 0.30937 0.12858 0.0
C9541 C 0.34109 0.31087 0.1236 0.0
C9542 C 0.43058 0.59657 0.89809 0.0
C9543 C 0.42245 0.59796 0.89751 0.0
C9544 C 0.43593 0.60277 0.89888 0.0
C9545 C 0.43336 0.6106 0.89908 0.0
H9546 H 0.43286 0.59067 0.8976 0.0
H9547 H 0.44214 0.60145 0.89894 0.0
S9548 S 0.41269 0.61733 0.89903 0.0
N9549 N 0.41208 0.60771 0.89812 0.0
N9550 N 0.42215 0.61936 0.89952 0.0
C9551 C 0.42525 0.61205 0.89894 0.0
C9552 C 0.4198 0.60574 0.89816 0.0
C9553 C 0.16774 0.6982 0.62403 0.0
C9554 C 0.17493 0.69568 0.62718 0.0
C9555 C 0.16125 0.69965 0.6289 0.0
C9556 C 0.1617 0.69851 0.63706 0.0
H9557 H 0.16714 0.69911 0.61777 0.0
H9558 H 0.15579 0.70151 0.62623 0.0
S9559 S 0.17919 0.69194 0.64818 0.0
N9560 N 0.1821 0.69206 0.63895 0.0
N9561 N 0.16996 0.69485 0.64808 0.0
C9562 C 0.16887 0.69602 0.64027 0.0
C9563 C 0.17547 0.69459 0.63533 0.0
C9564 C 0.08714 0.60832 0.11247 0.0
C9565 C 0.08568 0.60038 0.1108 0.0
C9566 C 0.08126 0.61399 0.11159 0.0
C9567 C 0.07368 0.61193 0.10903 0.0
H9568 H 0.09283 0.61014 0.11462 0.0
H9569 H 0.08257 0.61999 0.11322 0.0
S9570 S 0.06701 0.59205 0.10333 0.0
N9571 N 0.07617 0.5908 0.10618 0.0
N9572 N 0.06523 0.60151 0.10425 0.0
C9573 C 0.07225 0.60408 0.10702 0.0
C9574 C 0.07822 0.59829 0.10796 0.0
C9575 C 0.17453 0.31398 0.87245 0.0
C9576 C 0.17441 0.31203 0.88047 0.0
C9577 C 0.16802 0.3126 0.86763 0.0
C9578 C 0.16113 0.30918 0.87062 0.0
H9579 H 0.17966 0.31671 0.86989 0.0
H9580 H 0.16841 0.31422 0.8615 0.0
S9581 S 0.15785 0.30287 0.89119 0.0
N9582 N 0.1669 0.30634 0.89115 0.0
N9583 N 0.15458 0.3039 0.88213 0.0
C9584 C 0.16095 0.30715 0.87862 0.0
C9585 C 0.16759 0.30856 0.88353 0.0
C9586 C 0.42873 0.40957 0.60631 0.0
C9587 C 0.42183 0.40893 0.61084 0.0
C9588 C 0.43405 0.40332 0.60569 0.0
C9589 C 0.43267 0.39616 0.60953 0.0
H9590 H 0.43017 0.41504 0.60343 0.0
H9591 H 0.43947 0.40426 0.60251 0.0
S9592 S 0.41497 0.39096 0.62107 0.0
N9593 N 0.41363 0.40023 0.61864 0.0
N9594 N 0.42341 0.3884 0.6171 0.0
C9595 C 0.42552 0.39522 0.61354 0.0
C9596 C 0.42015 0.40161 0.61428 0.0
C9597 C 0.33971 0.69833 0.38364 0.0
C9598 C 0.33258 0.69558 0.38053 0.0
C9599 C 0.34619 0.69978 0.37876 0.0
C9600 C 0.34579 0.69842 0.37062 0.0
H9601 H 0.34026 0.69941 0.38987 0.0
H9602 H 0.3516 0.70181 0.38139 0.0
S9603 S 0.32847 0.69123 0.35962 0.0
N9604 N 0.32553 0.69152 0.36884 0.0
N9605 N 0.33764 0.69432 0.35968 0.0
C9606 C 0.33868 0.69571 0.36746 0.0
C9607 C 0.3321 0.69428 0.37241 0.0
C9608 C 0.39436 0.08703 0.40135 0.0
C9609 C 0.39693 0.08549 0.40905 0.0
C9610 C 0.3952 0.08145 0.39536 0.0
C9611 C 0.39864 0.07409 0.39684 0.0
H9612 H 0.3915 0.09254 0.39997 0.0
H9613 H 0.39284 0.08279 0.38962 0.0
S9614 S 0.40706 0.0674 0.41573 0.0
N9615 N 0.40347 0.07617 0.41766 0.0
N9616 N 0.40531 0.06586 0.40634 0.0
C9617 C 0.40161 0.07264 0.40438 0.0
C9618 C 0.40071 0.07829 0.41049 0.0
C9619 C 0.89268 0.4299 0.5977 0.0
C9620 C 0.89594 0.42236 0.59819 0.0
C9621 C 0.89352 0.43529 0.60382 0.0
C9622 C 0.89784 0.43349 0.61064 0.0
H9623 H 0.8893 0.43159 0.59259 0.0
H9624 H 0.89058 0.44088 0.60321 0.0
S9625 S 0.90807 0.41458 0.61442 0.0
N9626 N 0.90378 0.41331 0.60584 0.0
N9627 N 0.90584 0.42359 0.6172 0.0
C9628 C 0.9013 0.42596 0.6111 0.0
C9629 C 0.90025 0.42038 0.60491 0.0
C9630 C 0.30765 0.12463 0.33919 0.0
C9631 C 0.31255 0.12693 0.33298 0.0
C9632 C 0.3064 0.1296 0.34565 0.0
C9633 C 0.31006 0.137 0.34614 0.0
H9634 H 0.30474 0.11899 0.33903 0.0
H9635 H 0.30265 0.12756 0.35035 0.0
S9636 S 0.32339 0.14566 0.33123 0.0
N9637 N 0.32107 0.13697 0.32765 0.0
N9638 N 0.31865 0.14639 0.33964 0.0
C9639 C 0.31494 0.13933 0.33989 0.0
C9640 C 0.3162 0.13428 0.33336 0.0
C9641 C 0.60989 0.58698 0.10509 0.0
C9642 C 0.61098 0.58433 0.09735 0.0
C9643 C 0.60911 0.58167 0.11135 0.0
C9644 C 0.60935 0.57352 0.11009 0.0
H9645 H 0.60973 0.59321 0.10633 0.0
H9646 H 0.60844 0.58396 0.11723 0.0
S9647 S 0.61241 0.56354 0.09105 0.0
N9648 N 0.61247 0.57297 0.08886 0.0
N9649 N 0.6109 0.56305 0.10059 0.0
C9650 C 0.61031 0.57079 0.10239 0.0
C9651 C 0.61115 0.57618 0.09603 0.0
C9652 C 0.6933 0.3721 0.33301 0.0
C9653 C 0.69527 0.38012 0.33311 0.0
C9654 C 0.69466 0.36729 0.33953 0.0
C9655 C 0.69808 0.37028 0.34641 0.0
H9656 H 0.69057 0.36954 0.32789 0.0
H9657 H 0.69303 0.36116 0.33917 0.0
S9658 S 0.70445 0.39083 0.34964 0.0
N9659 N 0.70099 0.39079 0.34059 0.0
N9660 N 0.70339 0.38179 0.35294 0.0
C9661 C 0.70014 0.37827 0.34658 0.0
C9662 C 0.69875 0.38318 0.33992 0.0
C9663 C 0.11442 0.92125 0.90271 0.0
C9664 C 0.10995 0.92222 0.90958 0.0
C9665 C 0.11384 0.92655 0.89645 0.0
C9666 C 0.10887 0.93316 0.89681 0.0
H9667 H 0.11868 0.91656 0.90228 0.0
H9668 H 0.11752 0.92558 0.89137 0.0
S9669 S 0.09503 0.93769 0.913 0.0
N9670 N 0.09953 0.92963 0.91588 0.0
N9671 N 0.09885 0.93991 0.90439 0.0
C9672 C 0.10402 0.93393 0.90345 0.0
C9673 C 0.10449 0.92841 0.90976 0.0
C9674 C 0.31693 0.87472 0.17301 0.0
C9675 C 0.31148 0.88052 0.17506 0.0
C9676 C 0.31554 0.86964 0.16672 0.0
C9677 C 0.30875 0.8703 0.16201 0.0
H9678 H 0.32227 0.87403 0.17638 0.0
H9679 H 0.31986 0.86514 0.16558 0.0
S9680 S 0.29276 0.88484 0.16499 0.0
N9681 N 0.29901 0.88664 0.17216 0.0
N9682 N 0.29658 0.87753 0.15992 0.0
C9683 C 0.30325 0.87615 0.16405 0.0
C9684 C 0.30458 0.88116 0.17064 0.0
C9685 C 0.20182 0.13032 0.6728 0.0
C9686 C 0.19439 0.12698 0.67417 0.0
C9687 C 0.20316 0.13529 0.66637 0.0
C9688 C 0.19712 0.13715 0.66107 0.0
H9689 H 0.20665 0.1291 0.67674 0.0
H9690 H 0.20895 0.13781 0.66563 0.0
S9691 S 0.17665 0.12979 0.66188 0.0
N9692 N 0.18091 0.12591 0.66966 0.0
N9693 N 0.18351 0.13496 0.65742 0.0
C9694 C 0.1897 0.13374 0.66229 0.0
C9695 C 0.18833 0.12872 0.66885 0.0
C9696 C 0.09095 0.16347 0.36396 0.0
C9697 C 0.0919 0.15572 0.36131 0.0
C9698 C 0.09502 0.1697 0.36047 0.0
C9699 C 0.10018 0.16846 0.35414 0.0
H9700 H 0.08731 0.1647 0.36902 0.0
H9701 H 0.09435 0.17548 0.363 0.0
S9702 S 0.10387 0.14941 0.34429 0.0
N9703 N 0.09782 0.14723 0.35153 0.0
N9704 N 0.10535 0.15896 0.34485 0.0
C9705 C 0.10087 0.16079 0.35117 0.0
C9706 C 0.09677 0.15443 0.35478 0.0
C9707 C 0.06847 0.8345 0.64919 0.0
C9708 C 0.06822 0.8263 0.64843 0.0
C9709 C 0.06486 0.8394 0.64371 0.0
C9710 C 0.06095 0.83635 0.63711 0.0
H9711 H 0.07164 0.83721 0.65397 0.0
H9712 H 0.06524 0.84567 0.64464 0.0
S9713 S 0.05819 0.81525 0.63263 0.0
N9714 N 0.06331 0.81529 0.64085 0.0
N9715 N 0.05677 0.82454 0.6303 0.0
C9716 C 0.06047 0.82815 0.63636 0.0
C9717 C 0.06409 0.82312 0.64203 0.0
C9718 C 0.41827 0.84325 0.8635 0.0
C9719 C 0.41735 0.85085 0.86042 0.0
C9720 C 0.41395 0.83691 0.86058 0.0
C9721 C 0.40855 0.83789 0.85444 0.0
H9722 H 0.42208 0.84223 0.86848 0.0
H9723 H 0.41466 0.83123 0.86334 0.0
S9724 S 0.40435 0.85638 0.84384 0.0
N9725 N 0.41099 0.85885 0.85044 0.0
N9726 N 0.40276 0.8469 0.84507 0.0
C9727 C 0.4078 0.84535 0.85104 0.0
C9728 C 0.4122 0.85183 0.85402 0.0
C9729 C 0.44627 0.18041 0.14832 0.0
C9730 C 0.43851 0.18294 0.1471 0.0
C9731 C 0.45012 0.17567 0.1428 0.0
C9732 C 0.44626 0.1732 0.13595 0.0
H9733 H 0.4493 0.18191 0.15371 0.0
H9734 H 0.45597 0.17356 0.14409 0.0
S9735 S 0.42607 0.17838 0.12987 0.0
N9736 N 0.42724 0.18284 0.13839 0.0
N9737 N 0.43444 0.17386 0.12807 0.0
C9738 C 0.43862 0.17591 0.13454 0.0
C9739 C 0.43475 0.1808 0.14009 0.0
C9740 C 0.10133 0.85162 0.14654 0.0
C9741 C 0.0931 0.8519 0.14595 0.0
C9742 C 0.10514 0.84544 0.15037 0.0
C9743 C 0.10089 0.8393 0.15389 0.0
H9744 H 0.1049 0.85608 0.14375 0.0
H9745 H 0.11149 0.84532 0.15023 0.0
S9746 S 0.07921 0.83787 0.15508 0.0
N9747 N 0.0808 0.84585 0.14982 0.0
N9748 N 0.08796 0.83442 0.15739 0.0
C9749 C 0.09265 0.8398 0.15384 0.0
C9750 C 0.08876 0.84606 0.14983 0.0
C9751 C 0.43798 0.82429 0.367 0.0
C9752 C 0.43859 0.82591 0.35892 0.0
C9753 C 0.44193 0.82893 0.37256 0.0
C9754 C 0.44658 0.8353 0.37018 0.0
H9755 H 0.43404 0.81975 0.36906 0.0
H9756 H 0.44095 0.82784 0.37874 0.0
S9757 S 0.45111 0.84118 0.34979 0.0
N9758 N 0.44507 0.83368 0.34886 0.0
N9759 N 0.45228 0.84247 0.35931 0.0
C9760 C 0.44768 0.83661 0.36215 0.0
C9761 C 0.44375 0.83188 0.35651 0.0
C9762 C 0.40724 0.15654 0.64462 0.0
C9763 C 0.41517 0.15523 0.64648 0.0
C9764 C 0.40319 0.16302 0.64756 0.0
C9765 C 0.40688 0.16851 0.65249 0.0
H9766 H 0.40421 0.15268 0.64058 0.0
H9767 H 0.39715 0.16386 0.64578 0.0
S9768 S 0.4273 0.16734 0.65984 0.0
N9769 N 0.42637 0.15958 0.65413 0.0
N9770 N 0.41876 0.17191 0.65958 0.0
C9771 C 0.41468 0.16709 0.65473 0.0
C9772 C 0.41883 0.16045 0.65172 0.0
C9773 C 0.06171 0.1816 0.86101 0.0
C9774 C 0.0699 0.18255 0.86104 0.0
C9775 C 0.058 0.17672 0.86654 0.0
C9776 C 0.06241 0.17253 0.87211 0.0
H9777 H 0.0582 0.18444 0.85654 0.0
H9778 H 0.05172 0.17588 0.86617 0.0
S9779 S 0.08397 0.1733 0.87474 0.0
N9780 N 0.08224 0.1792 0.86725 0.0
N9781 N 0.07532 0.16997 0.87755 0.0
C9782 C 0.07056 0.17368 0.87234 0.0
C9783 C 0.0743 0.17869 0.86681 0.0
C9784 C 0.35584 0.09761 0.15521 0.0
C9785 C 0.36085 0.0911 0.15627 0.0
C9786 C 0.35249 0.10152 0.16163 0.0
C9787 C 0.35397 0.099 0.16933 0.0
H9788 H 0.35475 0.0999 0.14938 0.0
H9789 H 0.34906 0.10676 0.1606 0.0
S9790 S 0.36616 0.08213 0.17539 0.0
N9791 N 0.36678 0.0822 0.16573 0.0
N9792 N 0.36033 0.0895 0.17772 0.0
C9793 C 0.35858 0.09231 0.17048 0.0
C9794 C 0.36203 0.08835 0.16397 0.0
C9795 C 0.18274 0.14057 0.43921 0.0
C9796 C 0.18084 0.14861 0.43908 0.0
C9797 C 0.17803 0.13515 0.4433 0.0
C9798 C 0.1713 0.13764 0.44737 0.0
H9799 H 0.18759 0.13839 0.43574 0.0
H9800 H 0.17938 0.12896 0.4429 0.0
S9801 S 0.16455 0.15812 0.44989 0.0
N9802 N 0.17236 0.15884 0.44423 0.0
N9803 N 0.16349 0.14868 0.45176 0.0
C9804 C 0.16969 0.1457 0.44773 0.0
C9805 C 0.17447 0.15118 0.44364 0.0
C9806 C 0.15172 0.9105 0.65468 0.0
C9807 C 0.14626 0.91654 0.65599 0.0
C9808 C 0.15532 0.90657 0.66094 0.0
C9809 C 0.15351 0.90839 0.6688 0.0
H9810 H 0.15309 0.90869 0.64875 0.0
H9811 H 0.15943 0.90192 0.65957 0.0
S9812 S 0.13971 0.92393 0.67535 0.0
N9813 N 0.13946 0.92441 0.66569 0.0
N9814 N 0.14596 0.91686 0.67746 0.0
C9815 C 0.14826 0.91463 0.67017 0.0
C9816 C 0.14469 0.91872 0.66378 0.0
C9817 C 0.33042 0.86425 0.93321 0.0
C9818 C 0.3246 0.86013 0.93731 0.0
C9819 C 0.3352 0.8697 0.93702 0.0
C9820 C 0.33443 0.87115 0.94511 0.0
H9821 H 0.33144 0.86306 0.92705 0.0
H9822 H 0.33972 0.87262 0.93364 0.0
S9823 S 0.31973 0.86211 0.95835 0.0
N9824 N 0.31797 0.85809 0.94972 0.0
N9825 N 0.3271 0.86827 0.95701 0.0
C9826 C 0.32838 0.86731 0.94921 0.0
C9827 C 0.32345 0.86178 0.94528 0.0
C9828 C 0.36644 0.91496 0.34458 0.0
C9829 C 0.36174 0.91677 0.35107 0.0
C9830 C 0.36336 0.91096 0.33813 0.0
C9831 C 0.35547 0.9085 0.33796 0.0
H9832 H 0.37262 0.91642 0.34461 0.0
H9833 H 0.36727 0.90954 0.33333 0.0
S9834 S 0.34065 0.91224 0.35343 0.0
N9835 N 0.34878 0.91624 0.35689 0.0
N9836 N 0.34293 0.90856 0.34476 0.0
C9837 C 0.35062 0.91058 0.3443 0.0
C9838 C 0.35378 0.91472 0.35089 0.0
C9839 C 0.33262 0.15076 0.56452 0.0
C9840 C 0.32587 0.14838 0.56865 0.0
C9841 C 0.33722 0.14537 0.56042 0.0
C9842 C 0.33524 0.13739 0.56017 0.0
H9843 H 0.33457 0.1568 0.56476 0.0
H9844 H 0.34259 0.14742 0.55769 0.0
S9845 S 0.31771 0.12823 0.56913 0.0
N9846 N 0.31708 0.13756 0.57165 0.0
N9847 N 0.32573 0.12743 0.56375 0.0
C9848 C 0.32821 0.13499 0.56373 0.0
C9849 C 0.32352 0.1405 0.568 0.0
C9850 C 0.15211 0.09705 0.85306 0.0
C9851 C 0.14652 0.09112 0.85179 0.0
C9852 C 0.15566 0.10099 0.84678 0.0
C9853 C 0.1537 0.09926 0.83893 0.0
H9854 H 0.15363 0.09878 0.85898 0.0
H9855 H 0.15987 0.10556 0.8481 0.0
S9856 S 0.13944 0.08409 0.83248 0.0
N9857 N 0.13936 0.08351 0.84213 0.0
N9858 N 0.14581 0.09105 0.83032 0.0
C9859 C 0.14829 0.09315 0.83759 0.0
C9860 C 0.14476 0.08906 0.84401 0.0
C9861 C 0.17505 0.8636 0.07392 0.0
C9862 C 0.18173 0.86055 0.07023 0.0
C9863 C 0.17013 0.86889 0.07005 0.0
C9864 C 0.17162 0.87125 0.06227 0.0
H9865 H 0.17351 0.86174 0.0798 0.0
H9866 H 0.16499 0.87101 0.07313 0.0
S9867 S 0.18864 0.86514 0.05018 0.0
N9868 N 0.18988 0.86048 0.05859 0.0
N9869 N 0.18051 0.87032 0.05114 0.0
C9870 C 0.17848 0.86846 0.05862 0.0
C9871 C 0.18355 0.8631 0.06263 0.0
C9872 C 0.155 0.35878 0.10031 0.0
C9873 C 0.15551 0.36059 0.09227 0.0
C9874 C 0.16123 0.3552 0.10427 0.0
C9875 C 0.16818 0.3532 0.10033 0.0
H9876 H 0.1499 0.36052 0.10368 0.0
H9877 H 0.16078 0.35438 0.11056 0.0
S9878 S 0.17213 0.35568 0.07914 0.0
N9879 N 0.16327 0.3594 0.08037 0.0
N9880 N 0.17495 0.35253 0.08785 0.0
C9881 C 0.16853 0.35434 0.09219 0.0
C9882 C 0.16219 0.35806 0.08814 0.0
C9883 C 0.66403 0.14538 0.91904 0.0
C9884 C 0.65627 0.14748 0.91717 0.0
C9885 C 0.6704 0.14849 0.91487 0.0
C9886 C 0.66926 0.15387 0.90874 0.0
H9887 H 0.66519 0.14097 0.92345 0.0
H9888 H 0.67624 0.14642 0.91624 0.0
S9889 S 0.65026 0.16187 0.90194 0.0
N9890 N 0.64789 0.15579 0.90911 0.0
N9891 N 0.65992 0.16153 0.90124 0.0
C9892 C 0.66161 0.15635 0.90705 0.0
C9893 C 0.6551 0.15317 0.91127 0.0
C9894 C 0.14028 0.43687 0.18267 0.0
C9895 C 0.14824 0.43908 0.18245 0.0
C9896 C 0.13467 0.4407 0.17801 0.0
C9897 C 0.13685 0.44688 0.17302 0.0
H9898 H 0.13844 0.43183 0.18608 0.0
H9899 H 0.1287 0.43853 0.17796 0.0
S9900 S 0.15659 0.45563 0.17103 0.0
N9901 N 0.15775 0.44849 0.17746 0.0
N9902 N 0.14722 0.45549 0.16857 0.0
C9903 C 0.14463 0.44946 0.17309 0.0
C9904 C 0.15033 0.44562 0.17785 0.0
C9905 C 0.85251 0.85869 0.40716 0.0
C9906 C 0.85208 0.86033 0.41524 0.0
C9907 C 0.84625 0.85518 0.4032 0.0
C9908 C 0.83934 0.85308 0.40716 0.0
H9909 H 0.85756 0.86053 0.40377 0.0
H9910 H 0.84664 0.85449 0.39689 0.0
S9911 S 0.83562 0.85508 0.42845 0.0
N9912 N 0.84446 0.85885 0.4272 0.0
N9913 N 0.83271 0.85211 0.41971 0.0
C9914 C 0.83907 0.85404 0.41533 0.0
C9915 C 0.84545 0.85769 0.41939 0.0
C9916 C 0.86677 0.07057 0.18271 0.0
C9917 C 0.85873 0.06986 0.18105 0.0
C9918 C 0.8724 0.06653 0.17827 0.0
C9919 C 0.87018 0.06162 0.172 0.0
H9920 H 0.86876 0.07457 0.18723 0.0
H9921 H 0.87854 0.06739 0.17963 0.0
S9922 S 0.84977 0.05729 0.16574 0.0
N9923 N 0.84878 0.06334 0.17322 0.0
N9924 N 0.8593 0.05609 0.1646 0.0
C9925 C 0.86212 0.06062 0.17052 0.0
C9926 C 0.85642 0.06465 0.17511 0.0
C9927 C 0.34409 0.64164 0.59186 0.0
C9928 C 0.35089 0.64612 0.59076 0.0
C9929 C 0.33766 0.64467 0.59595 0.0
C9930 C 0.33781 0.65229 0.59913 0.0
H9931 H 0.34386 0.63563 0.58982 0.0
H9932 H 0.33262 0.64091 0.59685 0.0
S9933 S 0.35416 0.66652 0.59737 0.0
N9934 N 0.35735 0.65862 0.59276 0.0
N9935 N 0.34523 0.66439 0.6005 0.0
C9936 C 0.34447 0.65696 0.59775 0.0
C9937 C 0.35104 0.65384 0.59358 0.0
C9938 C 0.14839 0.56141 0.3273 0.0
C9939 C 0.14713 0.56919 0.32481 0.0
C9940 C 0.14296 0.55757 0.33217 0.0
C9941 C 0.13617 0.56143 0.33478 0.0
H9942 H 0.15374 0.55839 0.3257 0.0
H9943 H 0.14428 0.55171 0.33425 0.0
S9944 S 0.13 0.58163 0.32974 0.0
N9945 N 0.13841 0.58046 0.3251 0.0
N9946 N 0.1283 0.57326 0.33432 0.0
C9947 C 0.1347 0.56907 0.33211 0.0
C9948 C 0.14016 0.57294 0.32709 0.0
C9949 C 0.36718 0.43809 0.82486 0.0
C9950 C 0.35924 0.43768 0.82704 0.0
C9951 C 0.3726 0.44237 0.82937 0.0
C9952 C 0.37025 0.44644 0.83616 0.0
H9953 H 0.36928 0.43481 0.81985 0.0
H9954 H 0.37871 0.44236 0.82761 0.0
S9955 S 0.35 0.44757 0.84405 0.0
N9956 N 0.3492 0.4421 0.83612 0.0
N9957 N 0.35937 0.44992 0.84468 0.0
C9958 C 0.36226 0.44629 0.83821 0.0
C9959 C 0.35677 0.44197 0.83363 0.0
C9960 C 0.91661 0.84245 0.64132 0.0
C9961 C 0.91636 0.8501 0.64439 0.0
C9962 C 0.91247 0.83631 0.64486 0.0
C9963 C 0.90791 0.83755 0.65163 0.0
H9964 H 0.91976 0.84125 0.63594 0.0
H9965 H 0.91258 0.83061 0.64206 0.0
S9966 S 0.90607 0.85628 0.66252 0.0
N9967 N 0.91171 0.85845 0.65495 0.0
N9968 N 0.90396 0.84687 0.66166 0.0
C9969 C 0.90787 0.8451 0.65495 0.0
C9970 C 0.91208 0.85137 0.65132 0.0
C9971 C 0.93632 0.1814 0.36619 0.0
C9972 C 0.94006 0.18305 0.35902 0.0
C9973 C 0.93985 0.17654 0.37181 0.0
C9974 C 0.9473 0.17329 0.37051 0.0
H9975 H 0.93044 0.18352 0.36729 0.0
H9976 H 0.93662 0.17507 0.37708 0.0
S9977 S 0.95984 0.17628 0.35305 0.0
N9978 N 0.95184 0.18141 0.35116 0.0
N9979 N 0.95849 0.17233 0.36179 0.0
C9980 C 0.95128 0.17519 0.36357 0.0
C9981 C 0.94765 0.18006 0.3578 0.0
C9982 C 0.59637 0.15645 0.15084 0.0
C9983 C 0.59148 0.15788 0.14434 0.0
C9984 C 0.60059 0.16254 0.15442 0.0
C9985 C 0.60011 0.17029 0.15161 0.0
H9986 H 0.59702 0.15056 0.15312 0.0
H9987 H 0.60434 0.16115 0.15935 0.0
S9988 S 0.58844 0.17705 0.13452 0.0
N9989 N 0.58656 0.16759 0.13515 0.0
N9990 N 0.59451 0.17899 0.1418 0.0
C9991 C 0.59517 0.1718 0.14517 0.0
C9992 C 0.59086 0.16561 0.14156 0.0
C9993 C 0.56276 0.83097 0.8557 0.0
C9994 C 0.56826 0.82517 0.85778 0.0
C9995 C 0.55895 0.83546 0.86139 0.0
C9996 C 0.56036 0.83429 0.86944 0.0
H9997 H 0.56157 0.83224 0.84959 0.0
H9998 H 0.55511 0.84013 0.85943 0.0
S9999 S 0.5734 0.81916 0.87807 0.0
N10000 N 0.57451 0.81814 0.86851 0.0
N10001 N 0.56695 0.82629 0.87922 0.0
C10002 C 0.56544 0.82817 0.87163 0.0
C10003 C 0.56945 0.82366 0.86581 0.0
C10004 C 0.91814 0.16301 0.86086 0.0
C10005 C 0.91411 0.15631 0.86347 0.0
C10006 C 0.91419 0.1691 0.85697 0.0
C10007 C 0.90603 0.16876 0.85559 0.0
H10008 H 0.92431 0.16374 0.86218 0.0
H10009 H 0.91751 0.17423 0.85526 0.0
S10010 S 0.89304 0.15192 0.86038 0.0
N10011 N 0.90177 0.1492 0.86351 0.0
N10012 N 0.89423 0.16078 0.85669 0.0
C10013 C 0.90205 0.16185 0.85777 0.0
C10014 C 0.90611 0.15561 0.86159 0.0
C10015 C 0.56982 0.18232 0.64136 0.0
C10016 C 0.56779 0.18182 0.64935 0.0
C10017 C 0.56595 0.17778 0.63569 0.0
C10018 C 0.55994 0.17249 0.63777 0.0
H10019 H 0.57466 0.18599 0.6395 0.0
H10020 H 0.56782 0.1783 0.62964 0.0
S10021 S 0.55194 0.16955 0.65783 0.0
N10022 N 0.55882 0.17627 0.65893 0.0
N10023 N 0.55196 0.16732 0.64843 0.0
C10024 C 0.55766 0.17218 0.64571 0.0
C10025 C 0.56148 0.17693 0.65144 0.0
C10026 C 0.60079 0.85027 0.36268 0.0
C10027 C 0.59255 0.85048 0.36256 0.0
C10028 C 0.60495 0.84428 0.35892 0.0
C10029 C 0.60104 0.83826 0.35485 0.0
H10030 H 0.60406 0.85465 0.36592 0.0
H10031 H 0.61126 0.84419 0.35954 0.0
S10032 S 0.57954 0.83662 0.35199 0.0
N10033 N 0.58063 0.84445 0.35759 0.0
N10034 N 0.58847 0.83335 0.35024 0.0
C10035 C 0.59281 0.83866 0.35429 0.0
C10036 C 0.58857 0.84474 0.35818 0.0
C10037 C 0.94741 0.82653 0.15002 0.0
C10038 C 0.93965 0.82398 0.14891 0.0
C10039 C 0.95123 0.83113 0.14434 0.0
C10040 C 0.94733 0.83343 0.13745 0.0
H10041 H 0.95046 0.82517 0.15543 0.0
H10042 H 0.9571 0.83325 0.14553 0.0
S10043 S 0.92707 0.82815 0.13169 0.0
N10044 N 0.92831 0.82388 0.1403 0.0
N10045 N 0.93542 0.83263 0.12971 0.0
C10046 C 0.93967 0.83072 0.13617 0.0
C10047 C 0.93584 0.82596 0.14188 0.0
C10048 C 0.64992 0.91785 0.84606 0.0
C10049 C 0.6444 0.91427 0.85104 0.0
C10050 C 0.65352 0.91362 0.83997 0.0
C10051 C 0.6517 0.90568 0.83865 0.0
H10052 H 0.65145 0.92396 0.84688 0.0
H10053 H 0.65774 0.91659 0.83627 0.0
S10054 S 0.63712 0.89382 0.84963 0.0
N10055 N 0.637 0.90245 0.85399 0.0
N10056 N 0.64368 0.89455 0.84255 0.0
C10057 C 0.64614 0.90207 0.84355 0.0
C10058 C 0.64251 0.90635 0.84974 0.0
C10059 C 0.82292 0.86413 0.56404 0.0
C10060 C 0.82609 0.85734 0.56752 0.0
C10061 C 0.82778 0.86978 0.56047 0.0
C10062 C 0.83597 0.86885 0.56034 0.0
H10063 H 0.81665 0.86513 0.56417 0.0
H10064 H 0.82513 0.87502 0.55805 0.0
S10065 S 0.84719 0.85202 0.56839 0.0
N10066 N 0.83797 0.85003 0.57053 0.0
N10067 N 0.84699 0.86041 0.56358 0.0
C10068 C 0.83917 0.86196 0.56357 0.0
C10069 C 0.83427 0.85628 0.56723 0.0
C10070 C 0.86162 0.10097 0.35129 0.0
C10071 C 0.86305 0.09285 0.35093 0.0
C10072 C 0.85776 0.10492 0.34522 0.0
C10073 C 0.85501 0.1009 0.33856 0.0
H10074 H 0.86379 0.1044 0.35618 0.0
H10075 H 0.85729 0.11124 0.34561 0.0
S10076 S 0.85606 0.0794 0.33533 0.0
N10077 N 0.86077 0.0808 0.34367 0.0
N10078 N 0.85302 0.08814 0.3325 0.0
C10079 C 0.85583 0.09268 0.33841 0.0
C10080 C 0.85992 0.08867 0.34455 0.0
C10081 C 0.67573 0.15184 0.06366 0.0
C10082 C 0.68212 0.14981 0.06849 0.0
C10083 C 0.67128 0.14612 0.05984 0.0
C10084 C 0.67305 0.13811 0.06061 0.0
H10085 H 0.67399 0.15792 0.06302 0.0
H10086 H 0.6662 0.148 0.05651 0.0
S10087 S 0.68972 0.12967 0.07173 0.0
N10088 N 0.69031 0.13919 0.07336 0.0
N10089 N 0.6821 0.12845 0.06588 0.0
C10090 C 0.67969 0.13599 0.06502 0.0
C10091 C 0.6842 0.14184 0.069 0.0
C10092 C 0.6456 0.10116 0.65678 0.0
C10093 C 0.64471 0.09296 0.65697 0.0
C10094 C 0.64954 0.10517 0.66274 0.0
C10095 C 0.65289 0.10115 0.66912 0.0
H10096 H 0.64295 0.10457 0.65211 0.0
H10097 H 0.6496 0.11152 0.66252 0.0
S10098 S 0.65332 0.07954 0.67178 0.0
N10099 N 0.64811 0.08087 0.66373 0.0
N10100 N 0.65597 0.08838 0.67471 0.0
C10101 C 0.65258 0.09289 0.66908 0.0
C10102 C 0.64843 0.0888 0.66305 0.0
C10103 C 0.67742 0.85625 0.44567 0.0
C10104 C 0.68261 0.85823 0.43955 0.0
C10105 C 0.67291 0.86196 0.44947 0.0
C10106 C 0.67348 0.86994 0.44744 0.0
H10107 H 0.67665 0.85019 0.44739 0.0
H10108 H 0.66872 0.86002 0.45383 0.0
S10109 S 0.68684 0.87839 0.43246 0.0
N10110 N 0.68833 0.86884 0.43191 0.0
N10111 N 0.6803 0.87963 0.43947 0.0
C10112 C 0.679 0.87208 0.44167 0.0
C10113 C 0.68347 0.86623 0.43766 0.0
C10114 C 0.85641 0.91709 0.16 0.0
C10115 C 0.86377 0.91481 0.15703 0.0
C10116 C 0.85272 0.91274 0.16597 0.0
C10117 C 0.85627 0.906 0.16911 0.0
H10118 H 0.85347 0.9222 0.15764 0.0
H10119 H 0.84704 0.91463 0.16811 0.0
S10120 S 0.87576 0.898 0.16389 0.0
N10121 N 0.87466 0.90567 0.15808 0.0
N10122 N 0.86767 0.8975 0.16917 0.0
C10123 C 0.86365 0.90375 0.16628 0.0
C10124 C 0.86741 0.90816 0.16027 0.0
C10125 C 0.82368 0.14238 0.9404 0.0
C10126 C 0.82608 0.15027 0.93988 0.0
C10127 C 0.82827 0.13679 0.94439 0.0
C10128 C 0.83539 0.13894 0.94795 0.0
H10129 H 0.81848 0.14043 0.93731 0.0
H10130 H 0.8265 0.13069 0.94428 0.0
S10131 S 0.8436 0.15899 0.94938 0.0
N10132 N 0.83551 0.16006 0.94417 0.0
N10133 N 0.84414 0.14956 0.9515 0.0
C10134 C 0.83753 0.14688 0.94796 0.0
C10135 C 0.83288 0.15254 0.94396 0.0
C10136 C 0.85152 0.65072 0.91039 0.0
C10137 C 0.85004 0.64495 0.91611 0.0
C10138 C 0.84539 0.65432 0.90626 0.0
C10139 C 0.8375 0.65224 0.90761 0.0
H10140 H 0.8575 0.65236 0.90898 0.0
H10141 H 0.84685 0.65865 0.90185 0.0
S10142 S 0.8305 0.63744 0.922 0.0
N10143 N 0.84012 0.63743 0.92302 0.0
N10144 N 0.8286 0.64402 0.91517 0.0
C10145 C 0.83594 0.64663 0.91348 0.0
C10146 C 0.84219 0.64303 0.91774 0.0
C10147 C 0.34825 0.86555 0.09978 0.0
C10148 C 0.35036 0.86276 0.09231 0.0
C10149 C 0.34227 0.862 0.10413 0.0
C10150 C 0.33814 0.85551 0.10117 0.0
H10151 H 0.35114 0.87065 0.10224 0.0
H10152 H 0.34075 0.86448 0.10978 0.0
S10153 S 0.34188 0.84544 0.08231 0.0
N10154 N 0.3482 0.85278 0.08239 0.0
N10155 N 0.33687 0.84611 0.09058 0.0
C10156 C 0.34028 0.85254 0.0938 0.0
C10157 C 0.3464 0.85616 0.08937 0.0
C10158 C 0.85585 0.56376 0.83263 0.0
C10159 C 0.85797 0.56827 0.82604 0.0
C10160 C 0.86147 0.55977 0.83708 0.0
C10161 C 0.86947 0.56007 0.8351 0.0
H10162 H 0.84979 0.56349 0.83452 0.0
H10163 H 0.85955 0.55668 0.84229 0.0
S10164 S 0.87805 0.57029 0.81793 0.0
N10165 N 0.86861 0.57237 0.81748 0.0
N10166 N 0.87917 0.56462 0.82571 0.0
C10167 C 0.87165 0.5642 0.8283 0.0
C10168 C 0.8659 0.56832 0.82378 0.0
C10169 C 0.15612 0.146 0.6013 0.0
C10170 C 0.15652 0.14465 0.59316 0.0
C10171 C 0.16215 0.14987 0.60529 0.0
C10172 C 0.16881 0.1527 0.60131 0.0
H10173 H 0.15123 0.14378 0.60469 0.0
H10174 H 0.16173 0.15028 0.61161 0.0
S10175 S 0.17212 0.15187 0.57981 0.0
N10176 N 0.16381 0.14709 0.58115 0.0
N10177 N 0.17489 0.15486 0.58859 0.0
C10178 C 0.16898 0.15196 0.59308 0.0
C10179 C 0.1629 0.14786 0.58902 0.0
C10180 C 0.15208 0.94321 0.83303 0.0
C10181 C 0.14996 0.93986 0.82579 0.0
C10182 C 0.14658 0.94709 0.83769 0.0
C10183 C 0.13871 0.94781 0.83533 0.0
H10184 H 0.15798 0.94254 0.83527 0.0
H10185 H 0.14843 0.94927 0.84336 0.0
S10186 S 0.13035 0.94099 0.81648 0.0
N10187 N 0.13962 0.93818 0.81614 0.0
N10188 N 0.12924 0.94556 0.82494 0.0
C10189 C 0.13663 0.94504 0.82785 0.0
C10190 C 0.14227 0.94104 0.82307 0.0
C10191 C 0.66299 0.35978 0.41834 0.0
C10192 C 0.65623 0.36252 0.4145 0.0
C10193 C 0.66903 0.35607 0.41418 0.0
C10194 C 0.66858 0.35498 0.40599 0.0
H10195 H 0.66378 0.36081 0.42456 0.0
H10196 H 0.67419 0.35422 0.41738 0.0
S10197 S 0.6516 0.36027 0.39338 0.0
N10198 N 0.64899 0.3631 0.40226 0.0
N10199 N 0.66047 0.35651 0.39433 0.0
C10200 C 0.66164 0.35733 0.40216 0.0
C10201 C 0.65545 0.36102 0.40644 0.0
C10202 C 0.86095 0.44554 0.68346 0.0
C10203 C 0.8583 0.43799 0.68148 0.0
C10204 C 0.86663 0.44937 0.67884 0.0
C10205 C 0.86989 0.4457 0.67219 0.0
H10206 H 0.85849 0.44855 0.68847 0.0
H10207 H 0.86845 0.45523 0.68045 0.0
S10208 S 0.86488 0.42592 0.66467 0.0
N10209 N 0.85936 0.42698 0.67256 0.0
N10210 N 0.86997 0.43412 0.66389 0.0
C10211 C 0.86733 0.43811 0.67026 0.0
C10212 C 0.86155 0.43427 0.67491 0.0
C10213 C 0.6522 0.56333 0.17541 0.0
C10214 C 0.64988 0.56741 0.1822 0.0
C10215 C 0.64676 0.55936 0.17076 0.0
C10216 C 0.63876 0.55921 0.17273 0.0
H10217 H 0.65825 0.5635 0.17347 0.0
H10218 H 0.64877 0.55665 0.16537 0.0
S10219 S 0.62972 0.5681 0.19035 0.0
N10220 N 0.63909 0.57047 0.19101 0.0
N10221 N 0.62885 0.56283 0.18227 0.0
C10222 C 0.63642 0.56272 0.17979 0.0
C10223 C 0.64198 0.56685 0.18454 0.0
C10224 C 0.58915 0.66067 0.85727 0.0
C10225 C 0.59296 0.65537 0.86232 0.0
C10226 C 0.59324 0.66691 0.85377 0.0
C10227 C 0.60129 0.66807 0.85521 0.0
H10228 H 0.58295 0.66001 0.85606 0.0
H10229 H 0.59009 0.67088 0.84995 0.0
S10230 S 0.61384 0.65614 0.8684 0.0
N10231 N 0.60516 0.65188 0.86882 0.0
N10232 N 0.61282 0.66358 0.8623 0.0
C10233 C 0.60515 0.6628 0.86025 0.0
C10234 C 0.601 0.65647 0.86379 0.0
C10235 C 0.56546 0.32404 0.1413 0.0
C10236 C 0.56846 0.32683 0.14848 0.0
C10237 C 0.5617 0.32911 0.13597 0.0
C10238 C 0.56088 0.33715 0.13763 0.0
H10239 H 0.56614 0.31792 0.13974 0.0
H10240 H 0.5597 0.32678 0.13041 0.0
S10241 S 0.56744 0.34735 0.15568 0.0
N10242 N 0.57026 0.33818 0.15692 0.0
N10243 N 0.56292 0.34755 0.14714 0.0
C10244 C 0.5636 0.33993 0.14489 0.0
C10245 C 0.56746 0.33482 0.15025 0.0
C10246 C 0.91857 0.34512 0.35839 0.0
C10247 C 0.91468 0.35204 0.36066 0.0
C10248 C 0.91445 0.33886 0.35496 0.0
C10249 C 0.90633 0.33937 0.35367 0.0
H10250 H 0.92473 0.34434 0.35972 0.0
H10251 H 0.91752 0.33344 0.35376 0.0
S10252 S 0.89371 0.35666 0.3573 0.0
N10253 N 0.90247 0.35938 0.3604 0.0
N10254 N 0.89474 0.3476 0.35405 0.0
C10255 C 0.90251 0.34645 0.35538 0.0
C10256 C 0.90668 0.3528 0.35884 0.0
C10257 C 0.93495 0.68055 0.64037 0.0
C10258 C 0.93885 0.68308 0.64717 0.0
C10259 C 0.93868 0.67564 0.63494 0.0
C10260 C 0.94647 0.67319 0.63606 0.0
H10261 H 0.92884 0.68202 0.63945 0.0
H10262 H 0.93535 0.67349 0.62998 0.0
S10263 S 0.95945 0.67876 0.65254 0.0
N10264 N 0.95106 0.68319 0.65449 0.0
N10265 N 0.95812 0.67404 0.64419 0.0
C10266 C 0.95057 0.67603 0.6426 0.0
C10267 C 0.94674 0.68094 0.64819 0.0
C10268 C 0.60022 0.35031 0.64405 0.0
C10269 C 0.59241 0.35206 0.64605 0.0
C10270 C 0.60419 0.34402 0.6475 0.0
C10271 C 0.60052 0.33918 0.65308 0.0
H10272 H 0.60325 0.35372 0.63962 0.0
H10273 H 0.61014 0.34281 0.64561 0.0
S10274 S 0.58042 0.34168 0.66092 0.0
N10275 N 0.58132 0.34875 0.65436 0.0
N10276 N 0.58881 0.33685 0.66084 0.0
C10277 C 0.59278 0.34095 0.65528 0.0
C10278 C 0.58872 0.34739 0.65176 0.0
C10279 C 0.94619 0.32741 0.85897 0.0
C10280 C 0.93851 0.32468 0.86031 0.0
C10281 C 0.95 0.33225 0.86443 0.0
C10282 C 0.9462 0.3346 0.87134 0.0
H10283 H 0.94916 0.326 0.85353 0.0
H10284 H 0.95577 0.33451 0.86304 0.0
S10285 S 0.92629 0.32885 0.8778 0.0
N10286 N 0.92741 0.32446 0.86925 0.0
N10287 N 0.93456 0.3336 0.87945 0.0
C10288 C 0.93867 0.33168 0.8729 0.0
C10289 C 0.93483 0.3267 0.8674 0.0
C10290 C 0.91795 0.6636 0.1439 0.0
C10291 C 0.91636 0.65597 0.14663 0.0
C10292 C 0.91403 0.67012 0.14697 0.0
C10293 C 0.90839 0.6693 0.15293 0.0
H10294 H 0.92194 0.66451 0.13905 0.0
H10295 H 0.9152 0.67583 0.14445 0.0
S10296 S 0.90261 0.65076 0.16269 0.0
N10297 N 0.90921 0.64807 0.15614 0.0
N10298 N 0.90175 0.66037 0.16183 0.0
C10299 C 0.90703 0.66179 0.15603 0.0
C10300 C 0.91102 0.65512 0.15288 0.0
C10301 C 0.57427 0.67665 0.36546 0.0
C10302 C 0.57015 0.68236 0.36122 0.0
C10303 C 0.57047 0.67188 0.37094 0.0
C10304 C 0.56235 0.67253 0.3723 0.0
H10305 H 0.58046 0.6757 0.36435 0.0
H10306 H 0.57389 0.66744 0.37395 0.0
S10307 S 0.54901 0.68693 0.36292 0.0
N10308 N 0.55767 0.68878 0.35897 0.0
N10309 N 0.55039 0.67966 0.36918 0.0
C10310 C 0.55822 0.67848 0.36833 0.0
C10311 C 0.56215 0.68341 0.36278 0.0
C10312 C 0.86604 0.59191 0.66344 0.0
C10313 C 0.86151 0.59076 0.65669 0.0
C10314 C 0.86302 0.59594 0.66991 0.0
C10315 C 0.85536 0.59902 0.66986 0.0
H10316 H 0.87209 0.58995 0.66361 0.0
H10317 H 0.86682 0.59687 0.67492 0.0
S10318 S 0.84099 0.5971 0.65366 0.0
N10319 N 0.84891 0.59261 0.65037 0.0
N10320 N 0.84316 0.60024 0.66256 0.0
C10321 C 0.85064 0.59759 0.66325 0.0
C10322 C 0.85375 0.59348 0.65663 0.0
C10323 C 0.68231 0.63995 0.93742 0.0
C10324 C 0.68201 0.64798 0.93933 0.0
C10325 C 0.6776 0.63445 0.94138 0.0
C10326 C 0.67248 0.63684 0.94737 0.0
H10327 H 0.68583 0.63795 0.93253 0.0
H10328 H 0.67764 0.6284 0.93945 0.0
S10329 S 0.67026 0.65687 0.95534 0.0
N10330 N 0.67682 0.65781 0.94827 0.0
N10331 N 0.66783 0.6475 0.95549 0.0
C10332 C 0.67247 0.64472 0.94965 0.0
C10333 C 0.67728 0.65029 0.94569 0.0
C10334 C 0.64073 0.41308 0.16288 0.0
C10335 C 0.64512 0.41548 0.15633 0.0
C10336 C 0.64431 0.40933 0.16924 0.0
C10337 C 0.6524 0.40774 0.16923 0.0
H10338 H 0.63444 0.414 0.16302 0.0
H10339 H 0.64069 0.40746 0.17412 0.0
S10340 S 0.66648 0.41289 0.15351 0.0
N10341 N 0.65795 0.41614 0.15023 0.0
N10342 N 0.66471 0.40893 0.16218 0.0
C10343 C 0.65687 0.41015 0.16274 0.0
C10344 C 0.65322 0.41408 0.15629 0.0
C10345 C 0.8322 0.35648 0.44365 0.0
C10346 C 0.82563 0.35898 0.43932 0.0
C10347 C 0.83684 0.36181 0.4478 0.0
C10348 C 0.83506 0.36984 0.44787 0.0
H10349 H 0.83399 0.35038 0.44355 0.0
H10350 H 0.84206 0.35966 0.45071 0.0
S10351 S 0.81805 0.37934 0.43827 0.0
N10352 N 0.81723 0.36998 0.4359 0.0
N10353 N 0.82594 0.38 0.44386 0.0
C10354 C 0.8282 0.37237 0.44408 0.0
C10355 C 0.82348 0.36693 0.43977 0.0
C10356 C 0.8566 0.409 0.85271 0.0
C10357 C 0.8606 0.41617 0.85167 0.0
C10358 C 0.85317 0.40506 0.84637 0.0
C10359 C 0.85344 0.40823 0.83879 0.0
H10360 H 0.85644 0.40621 0.85842 0.0
H10361 H 0.85062 0.39932 0.84734 0.0
S10362 S 0.8625 0.42702 0.83288 0.0
N10363 N 0.8642 0.42642 0.84239 0.0
N10364 N 0.85747 0.41907 0.83056 0.0
C10365 C 0.85691 0.41559 0.83771 0.0
C10366 C 0.86052 0.41957 0.84413 0.0
C10367 C 0.83024 0.64213 0.07401 0.0
C10368 C 0.82503 0.64696 0.06986 0.0
C10369 C 0.83503 0.63676 0.07009 0.0
C10370 C 0.83489 0.63609 0.06186 0.0
H10371 H 0.83081 0.64273 0.08031 0.0
H10372 H 0.8391 0.6333 0.07353 0.0
S10373 S 0.82186 0.64714 0.0484 0.0
N10374 N 0.8196 0.65049 0.05721 0.0
N10375 N 0.82874 0.64045 0.04975 0.0
C10376 C 0.82941 0.64063 0.05768 0.0
C10377 C 0.82447 0.64609 0.06171 0.0
C10378 C 0.65205 0.59636 0.35273 0.0
C10379 C 0.6456 0.59133 0.3516 0.0
C10380 C 0.6555 0.60036 0.34641 0.0
C10381 C 0.6526 0.59956 0.33872 0.0
H10382 H 0.65438 0.59728 0.35856 0.0
H10383 H 0.66041 0.60421 0.3476 0.0
S10384 S 0.63561 0.58734 0.3327 0.0
N10385 N 0.6364 0.58585 0.34223 0.0
N10386 N 0.64275 0.59345 0.33041 0.0
C10387 C 0.64622 0.59446 0.33751 0.0
C10388 C 0.64275 0.59034 0.34393 0.0
C10389 C 0.67753 0.36533 0.57467 0.0
C10390 C 0.68255 0.36047 0.57034 0.0
C10391 C 0.67267 0.37076 0.57092 0.0
C10392 C 0.67259 0.37147 0.5627 0.0
H10393 H 0.67712 0.3647 0.58098 0.0
H10394 H 0.66869 0.37421 0.57447 0.0
S10395 S 0.68507 0.36038 0.5488 0.0
N10396 N 0.68756 0.35694 0.55751 0.0
N10397 N 0.67832 0.36714 0.55038 0.0
C10398 C 0.67789 0.36691 0.55833 0.0
C10399 C 0.68288 0.36138 0.56218 0.0
C10400 C 0.65484 0.85879 0.60067 0.0
C10401 C 0.65527 0.86048 0.5926 0.0
C10402 C 0.66108 0.85522 0.60461 0.0
C10403 C 0.66797 0.8531 0.60063 0.0
H10404 H 0.6498 0.86063 0.60407 0.0
H10405 H 0.66069 0.8545 0.61092 0.0
S10406 S 0.67168 0.85519 0.57935 0.0
N10407 N 0.66287 0.85902 0.58062 0.0
N10408 N 0.67458 0.85215 0.58808 0.0
C10409 C 0.66823 0.8541 0.59246 0.0
C10410 C 0.66188 0.85781 0.58843 0.0
C10411 C 0.16334 0.6419 0.41585 0.0
C10412 C 0.15647 0.64632 0.41675 0.0
C10413 C 0.16978 0.64491 0.41175 0.0
C10414 C 0.16959 0.65246 0.40839 0.0
H10415 H 0.16361 0.63594 0.41805 0.0
H10416 H 0.17487 0.64119 0.41099 0.0
S10417 S 0.15308 0.66654 0.40962 0.0
N10418 N 0.1499 0.6587 0.41437 0.0
N10419 N 0.16206 0.66444 0.40664 0.0
C10420 C 0.16286 0.65707 0.40958 0.0
C10421 C 0.15627 0.65397 0.41373 0.0
C10422 C 0.64929 0.94604 0.67928 0.0
C10423 C 0.64732 0.93893 0.68303 0.0
C10424 C 0.64388 0.94999 0.6745 0.0
C10425 C 0.63631 0.94698 0.67333 0.0
H10426 H 0.65515 0.94842 0.67981 0.0
H10427 H 0.64574 0.95521 0.67139 0.0
S10428 S 0.62802 0.9289 0.682 0.0
N10429 N 0.63708 0.92927 0.68541 0.0
N10430 N 0.62694 0.93678 0.67647 0.0
C10431 C 0.63413 0.94012 0.67729 0.0
C10432 C 0.63961 0.93608 0.68215 0.0
C10433 C 0.34483 0.36677 0.91429 0.0
C10434 C 0.35106 0.36194 0.91657 0.0
C10435 C 0.33839 0.36372 0.91024 0.0
C10436 C 0.33798 0.35573 0.9082 0.0
H10437 H 0.34505 0.37302 0.91543 0.0
H10438 H 0.33378 0.36773 0.9085 0.0
S10439 S 0.35275 0.34057 0.91322 0.0
N10440 N 0.35639 0.34876 0.91691 0.0
N10441 N 0.3443 0.34297 0.90913 0.0
C10442 C 0.34407 0.35076 0.91073 0.0
C10443 C 0.35064 0.35389 0.91492 0.0
C10444 C 0.35709 0.56426 0.67547 0.0
C10445 C 0.35934 0.56943 0.6815 0.0
C10446 C 0.36266 0.5602 0.67102 0.0
C10447 C 0.37074 0.56102 0.67245 0.0
H10448 H 0.35096 0.56351 0.67399 0.0
H10449 H 0.36058 0.55664 0.66619 0.0
S10450 S 0.37972 0.57299 0.68824 0.0
N10451 N 0.37023 0.57471 0.68904 0.0
N10452 N 0.38068 0.56671 0.68094 0.0
C10453 C 0.37306 0.56577 0.67879 0.0
C10454 C 0.36738 0.57002 0.68327 0.0
C10455 C 0.84459 0.14701 0.08843 0.0
C10456 C 0.85208 0.14692 0.09192 0.0
C10457 C 0.83816 0.15044 0.09226 0.0
C10458 C 0.83902 0.15392 0.09967 0.0
H10459 H 0.84357 0.14395 0.08296 0.0
H10460 H 0.83239 0.14994 0.08964 0.0
S10461 S 0.85749 0.15628 0.1108 0.0
N10462 N 0.8601 0.15152 0.10279 0.0
N10463 N 0.84794 0.15773 0.11004 0.0
C10464 C 0.84653 0.15434 0.10298 0.0
C10465 C 0.85307 0.15091 0.09908 0.0
C10466 C 0.64007 0.07132 0.82551 0.0
C10467 C 0.6477 0.06826 0.8247 0.0
C10468 C 0.63443 0.0675 0.83011 0.0
C10469 C 0.63619 0.06044 0.83395 0.0
H10470 H 0.63859 0.07695 0.82295 0.0
H10471 H 0.62877 0.07026 0.83097 0.0
S10472 S 0.65494 0.04957 0.83318 0.0
N10473 N 0.65646 0.05739 0.82767 0.0
N10474 N 0.64582 0.05028 0.83637 0.0
C10475 C 0.64361 0.0571 0.83288 0.0
C10476 C 0.64937 0.06099 0.82824 0.0
C10477 C 0.85707 0.94245 0.33275 0.0
C10478 C 0.85943 0.9381 0.32614 0.0
C10479 C 0.86247 0.9467 0.33722 0.0
C10480 C 0.87048 0.94684 0.33525 0.0
H10481 H 0.85101 0.94235 0.33466 0.0
H10482 H 0.86039 0.94963 0.34246 0.0
S10483 S 0.87957 0.93724 0.318 0.0
N10484 N 0.87025 0.93467 0.31753 0.0
N10485 N 0.88039 0.94289 0.32582 0.0
C10486 C 0.87286 0.94289 0.32841 0.0
C10487 C 0.86734 0.93851 0.32386 0.0
C10488 C 0.41153 0.35111 0.15062 0.0
C10489 C 0.41598 0.34982 0.14379 0.0
C10490 C 0.40736 0.34498 0.15422 0.0
C10491 C 0.40746 0.33734 0.15109 0.0
H10492 H 0.41122 0.35692 0.15318 0.0
H10493 H 0.40399 0.34625 0.15945 0.0
S10494 S 0.4177 0.33105 0.13295 0.0
N10495 N 0.41994 0.34042 0.13386 0.0
N10496 N 0.41208 0.32895 0.14054 0.0
C10497 C 0.41188 0.336 0.14426 0.0
C10498 C 0.41614 0.34221 0.14063 0.0
C10499 C 0.43599 0.68106 0.86591 0.0
C10500 C 0.43993 0.6833 0.85902 0.0
C10501 C 0.4396 0.67618 0.87146 0.0
C10502 C 0.44732 0.67349 0.87037 0.0
H10503 H 0.42993 0.68274 0.86682 0.0
H10504 H 0.43625 0.67426 0.8765 0.0
S10505 S 0.46034 0.67819 0.85363 0.0
N10506 N 0.45207 0.68282 0.85161 0.0
N10507 N 0.45893 0.67376 0.86213 0.0
C10508 C 0.45146 0.67602 0.86372 0.0
C10509 C 0.44774 0.68089 0.85801 0.0
C10510 C 0.08991 0.66172 0.64989 0.0
C10511 C 0.09338 0.65682 0.64424 0.0
C10512 C 0.09422 0.66775 0.6535 0.0
C10513 C 0.10213 0.66909 0.65154 0.0
H10514 H 0.08383 0.66089 0.65152 0.0
H10515 H 0.09134 0.6714 0.65781 0.0
S10516 S 0.1137 0.65829 0.63662 0.0
N10517 N 0.10505 0.65395 0.63659 0.0
N10518 N 0.1131 0.66528 0.64328 0.0
C10519 C 0.10563 0.66425 0.64586 0.0
C10520 C 0.10127 0.65813 0.64223 0.0
C10521 C 0.07349 0.33215 0.3622 0.0
C10522 C 0.0697 0.32586 0.35848 0.0
C10523 C 0.06972 0.33654 0.368 0.0
C10524 C 0.06199 0.33484 0.37028 0.0
H10525 H 0.0794 0.33379 0.36051 0.0
H10526 H 0.07282 0.34148 0.37053 0.0
S10527 S 0.04961 0.31871 0.36257 0.0
N10528 N 0.05791 0.31794 0.35763 0.0
N10529 N 0.05076 0.32621 0.36859 0.0
C10530 C 0.05818 0.32844 0.36674 0.0
C10531 C 0.06206 0.32392 0.36084 0.0
C10532 C 0.41648 0.66464 0.3654 0.0
C10533 C 0.41548 0.65679 0.36312 0.0
C10534 C 0.41224 0.67069 0.3618 0.0
C10535 C 0.40685 0.66915 0.35573 0.0
H10536 H 0.42028 0.66611 0.37027 0.0
H10537 H 0.41295 0.67659 0.36405 0.0
S10538 S 0.40293 0.64969 0.34683 0.0
N10539 N 0.40928 0.64786 0.35391 0.0
N10540 N 0.40139 0.65924 0.34705 0.0
C10541 C 0.4061 0.66136 0.35312 0.0
C10542 C 0.41039 0.65519 0.35682 0.0
C10543 C 0.06933 0.68274 0.14176 0.0
C10544 C 0.06777 0.68175 0.14981 0.0
C10545 C 0.06531 0.67833 0.13608 0.0
C10546 C 0.05961 0.67273 0.13821 0.0
H10547 H 0.07391 0.6867 0.13984 0.0
H10548 H 0.06681 0.67922 0.12997 0.0
S10549 S 0.05294 0.6684 0.1585 0.0
N10550 N 0.05961 0.67533 0.15957 0.0
N10551 N 0.05248 0.66668 0.149 0.0
C10552 C 0.05782 0.67191 0.14623 0.0
C10553 C 0.06179 0.6765 0.15199 0.0
C10554 C 0.09697 0.3445 0.86808 0.0
C10555 C 0.09285 0.35021 0.8638 0.0
C10556 C 0.10101 0.33846 0.86427 0.0
C10557 C 0.10114 0.338 0.85606 0.0
H10558 H 0.09711 0.34473 0.87442 0.0
H10559 H 0.10415 0.33419 0.86777 0.0
S10560 S 0.09142 0.35155 0.84217 0.0
N10561 N 0.08914 0.35505 0.85092 0.0
N10562 N 0.0969 0.34371 0.84373 0.0
C10563 C 0.09706 0.34365 0.85169 0.0
C10564 C 0.09285 0.34976 0.85558 0.0
C10565 C 0.43458 0.32967 0.64341 0.0
C10566 C 0.43892 0.32491 0.64853 0.0
C10567 C 0.43831 0.33446 0.6379 0.0
C10568 C 0.44654 0.33474 0.63735 0.0
H10569 H 0.42825 0.32992 0.64389 0.0
H10570 H 0.43473 0.33823 0.63424 0.0
S10571 S 0.46052 0.32303 0.64919 0.0
N10572 N 0.4518 0.3204 0.6525 0.0
N10573 N 0.4589 0.32951 0.64216 0.0
C10574 C 0.45094 0.32971 0.64219 0.0
C10575 C 0.44711 0.32478 0.6478 0.0
C10576 C 0.14015 0.40846 0.34639 0.0
C10577 C 0.14406 0.4144 0.35057 0.0
C10578 C 0.14385 0.40443 0.34028 0.0
C10579 C 0.15159 0.40621 0.33813 0.0
H10580 H 0.13416 0.40693 0.34783 0.0
H10581 H 0.14064 0.3999 0.3372 0.0
S10582 S 0.16455 0.42091 0.34741 0.0
N10583 N 0.1562 0.42166 0.35228 0.0
N10584 N 0.16316 0.41406 0.3407 0.0
C10585 C 0.1556 0.41209 0.34223 0.0
C10586 C 0.15183 0.41621 0.34848 0.0
C10587 C 0.32538 0.35916 0.06044 0.0
C10588 C 0.32465 0.35895 0.06865 0.0
C10589 C 0.33026 0.36471 0.05677 0.0
C10590 C 0.33463 0.3701 0.06122 0.0
H10591 H 0.3224 0.35482 0.05688 0.0
H10592 H 0.33094 0.3645 0.05045 0.0
S10593 S 0.33433 0.37217 0.08286 0.0
N10594 N 0.32833 0.36479 0.08107 0.0
N10595 N 0.3375 0.37518 0.07422 0.0
C10596 C 0.33366 0.37012 0.06941 0.0
C10597 C 0.32868 0.36454 0.07311 0.0
C10598 C 0.36124 0.60103 0.85139 0.0
C10599 C 0.363 0.59298 0.85086 0.0
C10600 C 0.35743 0.605 0.8453 0.0
C10601 C 0.35505 0.60107 0.83845 0.0
H10602 H 0.36311 0.6044 0.85644 0.0
H10603 H 0.35672 0.61129 0.84584 0.0
S10604 S 0.35699 0.57971 0.8347 0.0
N10605 N 0.3614 0.58106 0.84321 0.0
N10606 N 0.3537 0.58841 0.83202 0.0
C10607 C 0.35617 0.59289 0.83812 0.0
C10608 C 0.36023 0.58887 0.84427 0.0
C10609 C 0.18205 0.64809 0.56098 0.0
C10610 C 0.18205 0.64872 0.56919 0.0
C10611 C 0.17727 0.64256 0.55718 0.0
C10612 C 0.1723 0.63751 0.56147 0.0
H10613 H 0.18557 0.65206 0.55749 0.0
H10614 H 0.17734 0.64233 0.55084 0.0
S10615 S 0.17031 0.63697 0.58316 0.0
N10616 N 0.17691 0.64386 0.5815 0.0
N10617 N 0.16778 0.6336 0.57445 0.0
C10618 C 0.17243 0.63802 0.56971 0.0
C10619 C 0.17732 0.64361 0.57354 0.0
C10620 C 0.14329 0.60036 0.15815 0.0
C10621 C 0.14535 0.59246 0.157 0.0
C10622 C 0.14682 0.60484 0.16405 0.0
C10623 C 0.15256 0.60159 0.16902 0.0
H10624 H 0.1387 0.60302 0.15466 0.0
H10625 H 0.14482 0.6108 0.16492 0.0
S10626 S 0.16079 0.58152 0.16769 0.0
N10627 N 0.154 0.5818 0.16079 0.0
N10628 N 0.16068 0.59025 0.17189 0.0
C10629 C 0.15492 0.59381 0.1677 0.0
C10630 C 0.15131 0.58925 0.16169 0.0
C10631 C 0.17371 0.36009 0.93594 0.0
C10632 C 0.18136 0.35839 0.93852 0.0
C10633 C 0.16918 0.36587 0.93959 0.0
C10634 C 0.17208 0.3701 0.94603 0.0
H10635 H 0.17121 0.35693 0.93103 0.0
H10636 H 0.1633 0.36696 0.93743 0.0
S10637 S 0.19173 0.36796 0.95503 0.0
N10638 N 0.19168 0.36147 0.94783 0.0
N10639 N 0.18306 0.37229 0.95482 0.0
C10640 C 0.17971 0.36849 0.94868 0.0
C10641 C 0.18439 0.36266 0.94487 0.0
C10642 C 0.35775 0.41766 0.66137 0.0
C10643 C 0.36301 0.41404 0.65616 0.0
C10644 C 0.35417 0.41339 0.66745 0.0
C10645 C 0.35577 0.40537 0.66855 0.0
H10646 H 0.35641 0.42384 0.66076 0.0
H10647 H 0.35017 0.41641 0.67135 0.0
S10648 S 0.3696 0.39332 0.65684 0.0
N10649 N 0.3699 0.40206 0.65269 0.0
N10650 N 0.36328 0.39408 0.66412 0.0
C10651 C 0.36105 0.4017 0.66338 0.0
C10652 C 0.36465 0.40603 0.65719 0.0
C10653 C 0.3291 0.64308 0.4348 0.0
C10654 C 0.3246 0.64846 0.43909 0.0
C10655 C 0.33388 0.63759 0.43858 0.0
C10656 C 0.33442 0.63734 0.44682 0.0
H10657 H 0.32917 0.64333 0.42845 0.0
H10658 H 0.33744 0.63372 0.43502 0.0
S10659 S 0.32345 0.64994 0.46071 0.0
N10660 N 0.32061 0.653 0.45196 0.0
N10661 N 0.32971 0.64271 0.45915 0.0
C10662 C 0.32964 0.64244 0.45119 0.0
C10663 C 0.32473 0.64803 0.44731 0.0
C10664 C 0.34255 0.14059 0.41521 0.0
C10665 C 0.34976 0.14443 0.4162 0.0
C10666 C 0.33642 0.14414 0.41107 0.0
C10667 C 0.33728 0.15167 0.40779 0.0
H10668 H 0.34174 0.13469 0.41744 0.0
H10669 H 0.33106 0.14085 0.41021 0.0
S10670 S 0.35485 0.16437 0.40932 0.0
N10671 N 0.35737 0.15623 0.41393 0.0
N10672 N 0.34577 0.16302 0.40624 0.0
C10673 C 0.34441 0.15565 0.40893 0.0
C10674 C 0.35067 0.152 0.41312 0.0
C10675 C 0.84567 0.36749 0.59885 0.0
C10676 C 0.85024 0.36345 0.5933 0.0
C10677 C 0.83959 0.36374 0.60287 0.0
C10678 C 0.83786 0.35582 0.60149 0.0
H10679 H 0.84682 0.37361 0.60011 0.0
H10680 H 0.83622 0.36704 0.60712 0.0
S10681 S 0.84817 0.34255 0.58778 0.0
N10682 N 0.8527 0.35106 0.58673 0.0
N10683 N 0.84118 0.34399 0.59434 0.0
C10684 C 0.84233 0.3517 0.59596 0.0
C10685 C 0.84854 0.35553 0.59183 0.0
C10686 C 0.36238 0.07295 0.33247 0.0
C10687 C 0.35844 0.06915 0.32631 0.0
C10688 C 0.36807 0.06906 0.33692 0.0
C10689 C 0.37002 0.06119 0.33543 0.0
H10690 H 0.36094 0.07896 0.33395 0.0
H10691 H 0.37076 0.07219 0.34175 0.0
S10692 S 0.36168 0.04873 0.31969 0.0
N10693 N 0.35705 0.05719 0.31873 0.0
N10694 N 0.36781 0.04984 0.3271 0.0
C10695 C 0.36627 0.05737 0.32915 0.0
C10696 C 0.36048 0.06137 0.32457 0.0
C10697 C 0.65887 0.65146 0.09188 0.0
C10698 C 0.65748 0.64339 0.09287 0.0
C10699 C 0.665 0.65521 0.09595 0.0
C10700 C 0.6699 0.65095 0.10103 0.0
H10701 H 0.65512 0.65489 0.08807 0.0
H10702 H 0.66588 0.66146 0.09517 0.0
S10703 S 0.66883 0.62972 0.10537 0.0
N10704 N 0.66159 0.63129 0.09914 0.0
N10705 N 0.67309 0.63831 0.1067 0.0
C10706 C 0.66862 0.6429 0.10195 0.0
C10707 C 0.6624 0.63911 0.09789 0.0
C10708 C 0.65154 0.44554 0.33042 0.0
C10709 C 0.64938 0.44018 0.32451 0.0
C10710 C 0.64588 0.44947 0.33489 0.0
C10711 C 0.63785 0.44832 0.33353 0.0
H10712 H 0.65766 0.4465 0.33183 0.0
H10713 H 0.64781 0.4532 0.33965 0.0
S10714 S 0.629 0.43551 0.31844 0.0
N10715 N 0.63855 0.43429 0.31733 0.0
N10716 N 0.62795 0.44192 0.32561 0.0
C10717 C 0.63557 0.44341 0.32735 0.0
C10718 C 0.64133 0.4393 0.32285 0.0
C10719 C 0.15646 0.86191 0.90688 0.0
C10720 C 0.15669 0.86302 0.91505 0.0
C10721 C 0.16249 0.85801 0.90293 0.0
C10722 C 0.16897 0.85492 0.90699 0.0
H10723 H 0.15172 0.86437 0.90343 0.0
H10724 H 0.16223 0.8578 0.89659 0.0
S10725 S 0.17174 0.85504 0.92858 0.0
N10726 N 0.16357 0.86004 0.92718 0.0
N10727 N 0.17469 0.85226 0.91979 0.0
C10728 C 0.16896 0.85542 0.91523 0.0
C10729 C 0.16286 0.85953 0.91926 0.0
C10730 C 0.3629 0.93446 0.17576 0.0
C10731 C 0.35843 0.93829 0.18151 0.0
C10732 C 0.36861 0.93846 0.17143 0.0
C10733 C 0.37004 0.94649 0.17265 0.0
H10734 H 0.36189 0.92831 0.17449 0.0
H10735 H 0.37172 0.93528 0.1669 0.0
S10736 S 0.36013 0.95915 0.1873 0.0
N10737 N 0.35594 0.95048 0.18841 0.0
N10738 N 0.36675 0.95806 0.1803 0.0
C10739 C 0.36574 0.95036 0.17853 0.0
C10740 C 0.35993 0.94625 0.18298 0.0
C10741 C 0.1418 0.06846 0.68314 0.0
C10742 C 0.14991 0.06733 0.68198 0.0
C10743 C 0.13624 0.06453 0.67848 0.0
C10744 C 0.13863 0.05936 0.67253 0.0
H10745 H 0.13975 0.07276 0.68734 0.0
H10746 H 0.13008 0.06589 0.67922 0.0
S10747 S 0.15897 0.05344 0.6679 0.0
N10748 N 0.15991 0.05986 0.67508 0.0
N10749 N 0.14947 0.05271 0.66622 0.0
C10750 C 0.14664 0.0578 0.67166 0.0
C10751 C 0.15228 0.06171 0.67642 0.0
loop_
_geom_bond_atom_site_label_1
_geom_bond_atom_site_label_2
_geom_bond_distance
_geom_bond_site_symmetry_2
_ccdc_geom_bond_type
C0 C1 1.264 . S
C0 C5 1.479 . S
C0 C10 1.465 . S
C1 C0 1.264 . S
C1 C3 1.339 . S
C1 H28 0.931 . S
C2 C3 1.395 . S
C2 C4 1.320 . S
C3 C1 1.339 . S
C3 C2 1.395 . S
C3 H29 0.929 . S
C4 C2 1.320 . S
C4 C5 1.405 . S
C4 H30 0.930 . S
C5 C0 1.479 . S
C5 C4 1.405 . S
C5 H31 0.931 . S
U6 O7 2.454 . S
U6 O8 2.458 . S
U6 C9 2.984 . S
U6 C10 2.847 . S
U6 C23 2.882 . S
U6 O24 2.441 . S
U6 O25 2.420 . S
U6 O26 2.455 . S
U6 O27 2.449 . S
O7 U6 2.454 . S
O7 C9 1.353 . S
O8 U6 2.458 . S
O8 C9 1.286 . S
C9 U6 2.984 . S
C9 O7 1.353 . S
C9 O8 1.286 . S
C9 C11 1.363 . S
C10 C0 1.465 . S
C10 U6 2.847 . S
C10 O24 1.249 . S
C10 O25 1.202 . S
C11 C9 1.363 . S
C11 C13 1.408 . S
C11 C16 1.342 . S
C12 C13 1.310 . S
C12 C15 1.461 . S
C12 H32 0.932 . S
C13 C11 1.408 . S
C13 C12 1.310 . S
C13 H33 0.930 . S
C14 C15 1.474 . S
C14 C16 1.285 . S
C14 H34 0.929 . S
C15 C12 1.461 . S
C15 C14 1.474 . S
C16 C11 1.342 . S
C16 C14 1.285 . S
C16 H35 0.930 . S
C17 C20 1.424 . S
C17 C22 1.245 . S
C17 C23 1.428 . S
C18 C21 1.260 . S
C18 C22 1.477 . S
C18 H36 0.932 . S
C19 C20 1.384 . S
C19 C21 1.479 . S
C19 H37 0.929 . S
C20 C17 1.424 . S
C20 C19 1.384 . S
C20 H38 0.928 . S
C21 C18 1.260 . S
C21 C19 1.479 . S
C22 C17 1.245 . S
C22 C18 1.477 . S
C22 H39 0.932 . S
C23 U6 2.882 . S
C23 C17 1.428 . S
C23 O26 1.301 . S
C23 O27 1.282 . S
O24 U6 2.441 . S
O24 C10 1.249 . S
O25 U6 2.420 . S
O25 C10 1.202 . S
O26 U6 2.455 . S
O26 C23 1.301 . S
O27 U6 2.449 . S
O27 C23 1.282 . S
H28 C1 0.931 . S
H29 C3 0.929 . S
H30 C4 0.930 . S
H31 C5 0.931 . S
H32 C12 0.932 . S
H33 C13 0.930 . S
H34 C14 0.929 . S
H35 C16 0.930 . S
H36 C18 0.932 . S
H37 C19 0.929 . S
H38 C20 0.928 . S
H39 C22 0.932 . S
C40 C41 1.264 . S
C40 C45 1.479 . S
C40 C50 1.465 . S
C41 C40 1.264 . S
C41 C43 1.339 . S
C41 H68 0.931 . S
C42 C43 1.395 . S
C42 C44 1.320 . S
C43 C41 1.339 . S
C43 C42 1.395 . S
C43 H69 0.929 . S
C44 C42 1.320 . S
C44 C45 1.405 . S
C44 H70 0.930 . S
C45 C40 1.479 . S
C45 C44 1.405 . S
C45 H71 0.931 . S
U46 O47 2.454 . S
U46 O48 2.458 . S
U46 C49 2.984 . S
U46 C50 2.847 . S
U46 C63 2.882 . S
U46 O64 2.441 . S
U46 O65 2.420 . S
U46 O66 2.455 . S
U46 O67 2.449 . S
O47 U46 2.454 . S
O47 C49 1.353 . S
O48 U46 2.458 . S
O48 C49 1.286 . S
C49 U46 2.984 . S
C49 O47 1.353 . S
C49 O48 1.286 . S
C49 C51 1.363 . S
C50 C40 1.465 . S
C50 U46 2.847 . S
C50 O64 1.249 . S
C50 O65 1.202 . S
C51 C49 1.363 . S
C51 C53 1.408 . S
C51 C56 1.342 . S
C52 C53 1.310 . S
C52 C55 1.461 . S
C52 H72 0.932 . S
C53 C51 1.408 . S
C53 C52 1.310 . S
C53 H73 0.930 . S
C54 C55 1.474 . S
C54 C56 1.285 . S
C54 H74 0.929 . S
C55 C52 1.461 . S
C55 C54 1.474 . S
C56 C51 1.342 . S
C56 C54 1.285 . S
C56 H75 0.930 . S
C57 C60 1.424 . S
C57 C62 1.245 . S
C57 C63 1.428 . S
C58 C61 1.260 . S
C58 C62 1.477 . S
C58 H76 0.932 . S
C59 C60 1.384 . S
C59 C61 1.479 . S
C59 H77 0.929 . S
C60 C57 1.424 . S
C60 C59 1.384 . S
C60 H78 0.928 . S
C61 C58 1.260 . S
C61 C59 1.479 . S
C62 C57 1.245 . S
C62 C58 1.477 . S
C62 H79 0.932 . S
C63 U46 2.882 . S
C63 C57 1.428 . S
C63 O66 1.301 . S
C63 O67 1.282 . S
O64 U46 2.441 . S
O64 C50 1.249 . S
O65 U46 2.420 . S
O65 C50 1.202 . S
O66 U46 2.455 . S
O66 C63 1.301 . S
O67 U46 2.449 . S
O67 C63 1.282 . S
H68 C41 0.931 . S
H69 C43 0.929 . S
H70 C44 0.930 . S
H71 C45 0.931 . S
H72 C52 0.932 . S
H73 C53 0.930 . S
H74 C54 0.929 . S
H75 C56 0.930 . S
H76 C58 0.932 . S
H77 C59 0.929 . S
H78 C60 0.928 . S
H79 C62 0.932 . S
C80 C81 1.264 . S
C80 C85 1.479 . S
C80 C90 1.465 . S
C81 C80 1.264 . S
C81 C83 1.339 . S
C81 H108 0.931 . S
C82 C83 1.395 . S
C82 C84 1.320 . S
C83 C81 1.339 . S
C83 C82 1.395 . S
C83 H109 0.929 . S
C84 C82 1.320 . S
C84 C85 1.405 . S
C84 H110 0.930 . S
C85 C80 1.479 . S
C85 C84 1.405 . S
C85 H111 0.931 . S
U86 O87 2.454 . S
U86 O88 2.458 . S
U86 C89 2.984 . S
U86 C90 2.847 . S
U86 C103 2.882 . S
U86 O104 2.441 . S
U86 O105 2.420 . S
U86 O106 2.455 . S
U86 O107 2.449 . S
O87 U86 2.454 . S
O87 C89 1.353 . S
O88 U86 2.458 . S
O88 C89 1.286 . S
C89 U86 2.984 . S
C89 O87 1.353 . S
C89 O88 1.286 . S
C89 C91 1.363 . S
C90 C80 1.465 . S
C90 U86 2.847 . S
C90 O104 1.249 . S
C90 O105 1.202 . S
C91 C89 1.363 . S
C91 C93 1.408 . S
C91 C96 1.342 . S
C92 C93 1.310 . S
C92 C95 1.461 . S
C92 H112 0.932 . S
C93 C91 1.408 . S
C93 C92 1.310 . S
C93 H113 0.930 . S
C94 C95 1.474 . S
C94 C96 1.285 . S
C94 H114 0.929 . S
C95 C92 1.461 . S
C95 C94 1.474 . S
C96 C91 1.342 . S
C96 C94 1.285 . S
C96 H115 0.930 . S
C97 C100 1.424 . S
C97 C102 1.245 . S
C97 C103 1.428 . S
C98 C101 1.260 . S
C98 C102 1.477 . S
C98 H116 0.932 . S
C99 C100 1.384 . S
C99 C101 1.479 . S
C99 H117 0.929 . S
C100 C97 1.424 . S
C100 C99 1.384 . S
C100 H118 0.928 . S
C101 C98 1.260 . S
C101 C99 1.479 . S
C102 C97 1.245 . S
C102 C98 1.477 . S
C102 H119 0.932 . S
C103 U86 2.882 . S
C103 C97 1.428 . S
C103 O106 1.301 . S
C103 O107 1.282 . S
O104 U86 2.441 . S
O104 C90 1.249 . S
O105 U86 2.420 . S
O105 C90 1.202 . S
O106 U86 2.455 . S
O106 C103 1.301 . S
O107 U86 2.449 . S
O107 C103 1.282 . S
H108 C81 0.931 . S
H109 C83 0.929 . S
H110 C84 0.930 . S
H111 C85 0.931 . S
H112 C92 0.932 . S
H113 C93 0.930 . S
H114 C94 0.929 . S
H115 C96 0.930 . S
H116 C98 0.932 . S
H117 C99 0.929 . S
H118 C100 0.928 . S
H119 C102 0.932 . S
C120 C121 1.264 . S
C120 C125 1.479 . S
C120 C130 1.465 . S
C121 C120 1.264 . S
C121 C123 1.339 . S
C121 H148 0.931 . S
C122 C123 1.395 . S
C122 C124 1.320 . S
C123 C121 1.339 . S
C123 C122 1.395 . S
C123 H149 0.929 . S
C124 C122 1.320 . S
C124 C125 1.405 . S
C124 H150 0.930 . S
C125 C120 1.479 . S
C125 C124 1.405 . S
C125 H151 0.931 . S
U126 O127 2.454 . S
U126 O128 2.458 . S
U126 C129 2.984 . S
U126 C130 2.847 . S
U126 C143 2.882 . S
U126 O144 2.441 . S
U126 O145 2.420 . S
U126 O146 2.455 . S
U126 O147 2.449 . S
O127 U126 2.454 . S
O127 C129 1.353 . S
O128 U126 2.458 . S
O128 C129 1.286 . S
C129 U126 2.984 . S
C129 O127 1.353 . S
C129 O128 1.286 . S
C129 C131 1.363 . S
C130 C120 1.465 . S
C130 U126 2.847 . S
C130 O144 1.249 . S
C130 O145 1.202 . S
C131 C129 1.363 . S
C131 C133 1.408 . S
C131 C136 1.342 . S
C132 C133 1.310 . S
C132 C135 1.461 . S
C132 H152 0.932 . S
C133 C131 1.408 . S
C133 C132 1.310 . S
C133 H153 0.930 . S
C134 C135 1.474 . S
C134 C136 1.285 . S
C134 H154 0.929 . S
C135 C132 1.461 . S
C135 C134 1.474 . S
C136 C131 1.342 . S
C136 C134 1.285 . S
C136 H155 0.930 . S
C137 C140 1.424 . S
C137 C142 1.245 . S
C137 C143 1.428 . S
C138 C141 1.260 . S
C138 C142 1.477 . S
C138 H156 0.932 . S
C139 C140 1.384 . S
C139 C141 1.479 . S
C139 H157 0.929 . S
C140 C137 1.424 . S
C140 C139 1.384 . S
C140 H158 0.928 . S
C141 C138 1.260 . S
C141 C139 1.479 . S
C142 C137 1.245 . S
C142 C138 1.477 . S
C142 H159 0.932 . S
C143 U126 2.882 . S
C143 C137 1.428 . S
C143 O146 1.301 . S
C143 O147 1.282 . S
O144 U126 2.441 . S
O144 C130 1.249 . S
O145 U126 2.420 . S
O145 C130 1.202 . S
O146 U126 2.455 . S
O146 C143 1.301 . S
O147 U126 2.449 . S
O147 C143 1.282 . S
H148 C121 0.931 . S
H149 C123 0.929 . S
H150 C124 0.930 . S
H151 C125 0.931 . S
H152 C132 0.932 . S
H153 C133 0.930 . S
H154 C134 0.929 . S
H155 C136 0.930 . S
H156 C138 0.932 . S
H157 C139 0.929 . S
H158 C140 0.928 . S
H159 C142 0.932 . S
C160 C161 1.264 . S
C160 C165 1.479 . S
C160 C170 1.465 . S
C161 C160 1.264 . S
C161 C163 1.339 . S
C161 H188 0.931 . S
C162 C163 1.395 . S
C162 C164 1.320 . S
C163 C161 1.339 . S
C163 C162 1.395 . S
C163 H189 0.929 . S
C164 C162 1.320 . S
C164 C165 1.405 . S
C164 H190 0.930 . S
C165 C160 1.479 . S
C165 C164 1.405 . S
C165 H191 0.931 . S
U166 O167 2.454 . S
U166 O168 2.458 . S
U166 C169 2.984 . S
U166 C170 2.847 . S
U166 C183 2.882 . S
U166 O184 2.441 . S
U166 O185 2.420 . S
U166 O186 2.455 . S
U166 O187 2.449 . S
O167 U166 2.454 . S
O167 C169 1.353 . S
O168 U166 2.458 . S
O168 C169 1.286 . S
C169 U166 2.984 . S
C169 O167 1.353 . S
C169 O168 1.286 . S
C169 C171 1.363 . S
C170 C160 1.465 . S
C170 U166 2.847 . S
C170 O184 1.249 . S
C170 O185 1.202 . S
C171 C169 1.363 . S
C171 C173 1.408 . S
C171 C176 1.342 . S
C172 C173 1.310 . S
C172 C175 1.461 . S
C172 H192 0.932 . S
C173 C171 1.408 . S
C173 C172 1.310 . S
C173 H193 0.930 . S
C174 C175 1.474 . S
C174 C176 1.285 . S
C174 H194 0.929 . S
C175 C172 1.461 . S
C175 C174 1.474 . S
C176 C171 1.342 . S
C176 C174 1.285 . S
C176 H195 0.930 . S
C177 C180 1.424 . S
C177 C182 1.245 . S
C177 C183 1.428 . S
C178 C181 1.260 . S
C178 C182 1.477 . S
C178 H196 0.932 . S
C179 C180 1.384 . S
C179 C181 1.479 . S
C179 H197 0.929 . S
C180 C177 1.424 . S
C180 C179 1.384 . S
C180 H198 0.928 . S
C181 C178 1.260 . S
C181 C179 1.479 . S
C182 C177 1.245 . S
C182 C178 1.477 . S
C182 H199 0.932 . S
C183 U166 2.882 . S
C183 C177 1.428 . S
C183 O186 1.301 . S
C183 O187 1.282 . S
O184 U166 2.441 . S
O184 C170 1.249 . S
O185 U166 2.420 . S
O185 C170 1.202 . S
O186 U166 2.455 . S
O186 C183 1.301 . S
O187 U166 2.449 . S
O187 C183 1.282 . S
H188 C161 0.931 . S
H189 C163 0.929 . S
H190 C164 0.930 . S
H191 C165 0.931 . S
H192 C172 0.932 . S
H193 C173 0.930 . S
H194 C174 0.929 . S
H195 C176 0.930 . S
H196 C178 0.932 . S
H197 C179 0.929 . S
H198 C180 0.928 . S
H199 C182 0.932 . S
C200 C201 1.264 . S
C200 C205 1.479 . S
C200 C210 1.465 . S
C201 C200 1.264 . S
C201 C203 1.339 . S
C201 H228 0.931 . S
C202 C203 1.395 . S
C202 C204 1.320 . S
C203 C201 1.339 . S
C203 C202 1.395 . S
C203 H229 0.929 . S
C204 C202 1.320 . S
C204 C205 1.405 . S
C204 H230 0.930 . S
C205 C200 1.479 . S
C205 C204 1.405 . S
C205 H231 0.931 . S
U206 O207 2.454 . S
U206 O208 2.458 . S
U206 C209 2.984 . S
U206 C210 2.847 . S
U206 C223 2.882 . S
U206 O224 2.441 . S
U206 O225 2.420 . S
U206 O226 2.455 . S
U206 O227 2.449 . S
O207 U206 2.454 . S
O207 C209 1.353 . S
O208 U206 2.458 . S
O208 C209 1.286 . S
C209 U206 2.984 . S
C209 O207 1.353 . S
C209 O208 1.286 . S
C209 C211 1.363 . S
C210 C200 1.465 . S
C210 U206 2.847 . S
C210 O224 1.249 . S
C210 O225 1.202 . S
C211 C209 1.363 . S
C211 C213 1.408 . S
C211 C216 1.342 . S
C212 C213 1.310 . S
C212 C215 1.461 . S
C212 H232 0.932 . S
C213 C211 1.408 . S
C213 C212 1.310 . S
C213 H233 0.930 . S
C214 C215 1.474 . S
C214 C216 1.285 . S
C214 H234 0.929 . S
C215 C212 1.461 . S
C215 C214 1.474 . S
C216 C211 1.342 . S
C216 C214 1.285 . S
C216 H235 0.930 . S
C217 C220 1.424 . S
C217 C222 1.245 . S
C217 C223 1.428 . S
C218 C221 1.260 . S
C218 C222 1.477 . S
C218 H236 0.932 . S
C219 C220 1.384 . S
C219 C221 1.479 . S
C219 H237 0.929 . S
C220 C217 1.424 . S
C220 C219 1.384 . S
C220 H238 0.928 . S
C221 C218 1.260 . S
C221 C219 1.479 . S
C222 C217 1.245 . S
C222 C218 1.477 . S
C222 H239 0.932 . S
C223 U206 2.882 . S
C223 C217 1.428 . S
C223 O226 1.301 . S
C223 O227 1.282 . S
O224 U206 2.441 . S
O224 C210 1.249 . S
O225 U206 2.420 . S
O225 C210 1.202 . S
O226 U206 2.455 . S
O226 C223 1.301 . S
O227 U206 2.449 . S
O227 C223 1.282 . S
H228 C201 0.931 . S
H229 C203 0.929 . S
H230 C204 0.930 . S
H231 C205 0.931 . S
H232 C212 0.932 . S
H233 C213 0.930 . S
H234 C214 0.929 . S
H235 C216 0.930 . S
H236 C218 0.932 . S
H237 C219 0.929 . S
H238 C220 0.928 . S
H239 C222 0.932 . S
C240 C241 1.264 . S
C240 C245 1.479 . S
C240 C250 1.465 . S
C241 C240 1.264 . S
C241 C243 1.339 . S
C241 H268 0.931 . S
C242 C243 1.395 . S
C242 C244 1.320 . S
C243 C241 1.339 . S
C243 C242 1.395 . S
C243 H269 0.929 . S
C244 C242 1.320 . S
C244 C245 1.405 . S
C244 H270 0.930 . S
C245 C240 1.479 . S
C245 C244 1.405 . S
C245 H271 0.931 . S
U246 O247 2.454 . S
U246 O248 2.458 . S
U246 C249 2.984 . S
U246 C250 2.847 . S
U246 C263 2.882 . S
U246 O264 2.441 . S
U246 O265 2.420 . S
U246 O266 2.455 . S
U246 O267 2.449 . S
O247 U246 2.454 . S
O247 C249 1.353 . S
O248 U246 2.458 . S
O248 C249 1.286 . S
C249 U246 2.984 . S
C249 O247 1.353 . S
C249 O248 1.286 . S
C249 C251 1.363 . S
C250 C240 1.465 . S
C250 U246 2.847 . S
C250 O264 1.249 . S
C250 O265 1.202 . S
C251 C249 1.363 . S
C251 C253 1.408 . S
C251 C256 1.342 . S
C252 C253 1.310 . S
C252 C255 1.461 . S
C252 H272 0.932 . S
C253 C251 1.408 . S
C253 C252 1.310 . S
C253 H273 0.930 . S
C254 C255 1.474 . S
C254 C256 1.285 . S
C254 H274 0.929 . S
C255 C252 1.461 . S
C255 C254 1.474 . S
C256 C251 1.342 . S
C256 C254 1.285 . S
C256 H275 0.930 . S
C257 C260 1.424 . S
C257 C262 1.245 . S
C257 C263 1.428 . S
C258 C261 1.260 . S
C258 C262 1.477 . S
C258 H276 0.932 . S
C259 C260 1.384 . S
C259 C261 1.479 . S
C259 H277 0.929 . S
C260 C257 1.424 . S
C260 C259 1.384 . S
C260 H278 0.928 . S
C261 C258 1.260 . S
C261 C259 1.479 . S
C262 C257 1.245 . S
C262 C258 1.477 . S
C262 H279 0.932 . S
C263 U246 2.882 . S
C263 C257 1.428 . S
C263 O266 1.301 . S
C263 O267 1.282 . S
O264 U246 2.441 . S
O264 C250 1.249 . S
O265 U246 2.420 . S
O265 C250 1.202 . S
O266 U246 2.455 . S
O266 C263 1.301 . S
O267 U246 2.449 . S
O267 C263 1.282 . S
H268 C241 0.931 . S
H269 C243 0.929 . S
H270 C244 0.930 . S
H271 C245 0.931 . S
H272 C252 0.932 . S
H273 C253 0.930 . S
H274 C254 0.929 . S
H275 C256 0.930 . S
H276 C258 0.932 . S
H277 C259 0.929 . S
H278 C260 0.928 . S
H279 C262 0.932 . S
C280 C281 1.264 . S
C280 C285 1.479 . S
C280 C290 1.465 . S
C281 C280 1.264 . S
C281 C283 1.339 . S
C281 H308 0.931 . S
C282 C283 1.395 . S
C282 C284 1.320 . S
C283 C281 1.339 . S
C283 C282 1.395 . S
C283 H309 0.929 . S
C284 C282 1.320 . S
C284 C285 1.405 . S
C284 H310 0.930 . S
C285 C280 1.479 . S
C285 C284 1.405 . S
C285 H311 0.931 . S
U286 O287 2.454 . S
U286 O288 2.458 . S
U286 C289 2.984 . S
U286 C290 2.847 . S
U286 C303 2.882 . S
U286 O304 2.441 . S
U286 O305 2.420 . S
U286 O306 2.455 . S
U286 O307 2.449 . S
O287 U286 2.454 . S
O287 C289 1.353 . S
O288 U286 2.458 . S
O288 C289 1.286 . S
C289 U286 2.984 . S
C289 O287 1.353 . S
C289 O288 1.286 . S
C289 C291 1.363 . S
C290 C280 1.465 . S
C290 U286 2.847 . S
C290 O304 1.249 . S
C290 O305 1.202 . S
C291 C289 1.363 . S
C291 C293 1.408 . S
C291 C296 1.342 . S
C292 C293 1.310 . S
C292 C295 1.461 . S
C292 H312 0.932 . S
C293 C291 1.408 . S
C293 C292 1.310 . S
C293 H313 0.930 . S
C294 C295 1.474 . S
C294 C296 1.285 . S
C294 H314 0.929 . S
C295 C292 1.461 . S
C295 C294 1.474 . S
C296 C291 1.342 . S
C296 C294 1.285 . S
C296 H315 0.930 . S
C297 C300 1.424 . S
C297 C302 1.245 . S
C297 C303 1.428 . S
C298 C301 1.260 . S
C298 C302 1.477 . S
C298 H316 0.932 . S
C299 C300 1.384 . S
C299 C301 1.479 . S
C299 H317 0.929 . S
C300 C297 1.424 . S
C300 C299 1.384 . S
C300 H318 0.928 . S
C301 C298 1.260 . S
C301 C299 1.479 . S
C302 C297 1.245 . S
C302 C298 1.477 . S
C302 H319 0.932 . S
C303 U286 2.882 . S
C303 C297 1.428 . S
C303 O306 1.301 . S
C303 O307 1.282 . S
O304 U286 2.441 . S
O304 C290 1.249 . S
O305 U286 2.420 . S
O305 C290 1.202 . S
O306 U286 2.455 . S
O306 C303 1.301 . S
O307 U286 2.449 . S
O307 C303 1.282 . S
H308 C281 0.931 . S
H309 C283 0.929 . S
H310 C284 0.930 . S
H311 C285 0.931 . S
H312 C292 0.932 . S
H313 C293 0.930 . S
H314 C294 0.929 . S
H315 C296 0.930 . S
H316 C298 0.932 . S
H317 C299 0.929 . S
H318 C300 0.928 . S
H319 C302 0.932 . S
C320 C321 1.264 . S
C320 C325 1.479 . S
C320 C330 1.465 . S
C321 C320 1.264 . S
C321 C323 1.339 . S
C321 H348 0.931 . S
C322 C323 1.395 . S
C322 C324 1.320 . S
C323 C321 1.339 . S
C323 C322 1.395 . S
C323 H349 0.929 . S
C324 C322 1.320 . S
C324 C325 1.405 . S
C324 H350 0.930 . S
C325 C320 1.479 . S
C325 C324 1.405 . S
C325 H351 0.931 . S
U326 O327 2.454 . S
U326 O328 2.458 . S
U326 C329 2.984 . S
U326 C330 2.847 . S
U326 C343 2.882 . S
U326 O344 2.441 . S
U326 O345 2.420 . S
U326 O346 2.455 . S
U326 O347 2.449 . S
O327 U326 2.454 . S
O327 C329 1.353 . S
O328 U326 2.458 . S
O328 C329 1.286 . S
C329 U326 2.984 . S
C329 O327 1.353 . S
C329 O328 1.286 . S
C329 C331 1.363 . S
C330 C320 1.465 . S
C330 U326 2.847 . S
C330 O344 1.249 . S
C330 O345 1.202 . S
C331 C329 1.363 . S
C331 C333 1.408 . S
C331 C336 1.342 . S
C332 C333 1.310 . S
C332 C335 1.461 . S
C332 H352 0.932 . S
C333 C331 1.408 . S
C333 C332 1.310 . S
C333 H353 0.930 . S
C334 C335 1.474 . S
C334 C336 1.285 . S
C334 H354 0.929 . S
C335 C332 1.461 . S
C335 C334 1.474 . S
C336 C331 1.342 . S
C336 C334 1.285 . S
C336 H355 0.930 . S
C337 C340 1.424 . S
C337 C342 1.245 . S
C337 C343 1.428 . S
C338 C341 1.260 . S
C338 C342 1.477 . S
C338 H356 0.932 . S
C339 C340 1.384 . S
C339 C341 1.479 . S
C339 H357 0.929 . S
C340 C337 1.424 . S
C340 C339 1.384 . S
C340 H358 0.928 . S
C341 C338 1.260 . S
C341 C339 1.479 . S
C342 C337 1.245 . S
C342 C338 1.477 . S
C342 H359 0.932 . S
C343 U326 2.882 . S
C343 C337 1.428 . S
C343 O346 1.301 . S
C343 O347 1.282 . S
O344 U326 2.441 . S
O344 C330 1.249 . S
O345 U326 2.420 . S
O345 C330 1.202 . S
O346 U326 2.455 . S
O346 C343 1.301 . S
O347 U326 2.449 . S
O347 C343 1.282 . S
H348 C321 0.931 . S
H349 C323 0.929 . S
H350 C324 0.930 . S
H351 C325 0.931 . S
H352 C332 0.932 . S
H353 C333 0.930 . S
H354 C334 0.929 . S
H355 C336 0.930 . S
H356 C338 0.932 . S
H357 C339 0.929 . S
H358 C340 0.928 . S
H359 C342 0.932 . S
C360 C361 1.264 . S
C360 C365 1.479 . S
C360 C370 1.465 . S
C361 C360 1.264 . S
C361 C363 1.339 . S
C361 H388 0.931 . S
C362 C363 1.395 . S
C362 C364 1.320 . S
C363 C361 1.339 . S
C363 C362 1.395 . S
C363 H389 0.929 . S
C364 C362 1.320 . S
C364 C365 1.405 . S
C364 H390 0.930 . S
C365 C360 1.479 . S
C365 C364 1.405 . S
C365 H391 0.931 . S
U366 O367 2.454 . S
U366 O368 2.458 . S
U366 C369 2.984 . S
U366 C370 2.847 . S
U366 C383 2.882 . S
U366 O384 2.441 . S
U366 O385 2.420 . S
U366 O386 2.455 . S
U366 O387 2.449 . S
O367 U366 2.454 . S
O367 C369 1.353 . S
O368 U366 2.458 . S
O368 C369 1.286 . S
C369 U366 2.984 . S
C369 O367 1.353 . S
C369 O368 1.286 . S
C369 C371 1.363 . S
C370 C360 1.465 . S
C370 U366 2.847 . S
C370 O384 1.249 . S
C370 O385 1.202 . S
C371 C369 1.363 . S
C371 C373 1.408 . S
C371 C376 1.342 . S
C372 C373 1.310 . S
C372 C375 1.461 . S
C372 H392 0.932 . S
C373 C371 1.408 . S
C373 C372 1.310 . S
C373 H393 0.930 . S
C374 C375 1.474 . S
C374 C376 1.285 . S
C374 H394 0.929 . S
C375 C372 1.461 . S
C375 C374 1.474 . S
C376 C371 1.342 . S
C376 C374 1.285 . S
C376 H395 0.930 . S
C377 C380 1.424 . S
C377 C382 1.245 . S
C377 C383 1.428 . S
C378 C381 1.260 . S
C378 C382 1.477 . S
C378 H396 0.932 . S
C379 C380 1.384 . S
C379 C381 1.479 . S
C379 H397 0.929 . S
C380 C377 1.424 . S
C380 C379 1.384 . S
C380 H398 0.928 . S
C381 C378 1.260 . S
C381 C379 1.479 . S
C382 C377 1.245 . S
C382 C378 1.477 . S
C382 H399 0.932 . S
C383 U366 2.882 . S
C383 C377 1.428 . S
C383 O386 1.301 . S
C383 O387 1.282 . S
O384 U366 2.441 . S
O384 C370 1.249 . S
O385 U366 2.420 . S
O385 C370 1.202 . S
O386 U366 2.455 . S
O386 C383 1.301 . S
O387 U366 2.449 . S
O387 C383 1.282 . S
H388 C361 0.931 . S
H389 C363 0.929 . S
H390 C364 0.930 . S
H391 C365 0.931 . S
H392 C372 0.932 . S
H393 C373 0.930 . S
H394 C374 0.929 . S
H395 C376 0.930 . S
H396 C378 0.932 . S
H397 C379 0.929 . S
H398 C380 0.928 . S
H399 C382 0.932 . S
C400 C401 1.264 . S
C400 C405 1.479 . S
C400 C410 1.465 . S
C401 C400 1.264 . S
C401 C403 1.339 . S
C401 H428 0.931 . S
C402 C403 1.395 . S
C402 C404 1.320 . S
C403 C401 1.339 . S
C403 C402 1.395 . S
C403 H429 0.929 . S
C404 C402 1.320 . S
C404 C405 1.405 . S
C404 H430 0.930 . S
C405 C400 1.479 . S
C405 C404 1.405 . S
C405 H431 0.931 . S
U406 O407 2.454 . S
U406 O408 2.458 . S
U406 C409 2.984 . S
U406 C410 2.847 . S
U406 C423 2.882 . S
U406 O424 2.441 . S
U406 O425 2.420 . S
U406 O426 2.455 . S
U406 O427 2.449 . S
O407 U406 2.454 . S
O407 C409 1.353 . S
O408 U406 2.458 . S
O408 C409 1.286 . S
C409 U406 2.984 . S
C409 O407 1.353 . S
C409 O408 1.286 . S
C409 C411 1.363 . S
C410 C400 1.465 . S
C410 U406 2.847 . S
C410 O424 1.249 . S
C410 O425 1.202 . S
C411 C409 1.363 . S
C411 C413 1.408 . S
C411 C416 1.342 . S
C412 C413 1.310 . S
C412 C415 1.461 . S
C412 H432 0.932 . S
C413 C411 1.408 . S
C413 C412 1.310 . S
C413 H433 0.930 . S
C414 C415 1.474 . S
C414 C416 1.285 . S
C414 H434 0.929 . S
C415 C412 1.461 . S
C415 C414 1.474 . S
C416 C411 1.342 . S
C416 C414 1.285 . S
C416 H435 0.930 . S
C417 C420 1.424 . S
C417 C422 1.245 . S
C417 C423 1.428 . S
C418 C421 1.260 . S
C418 C422 1.477 . S
C418 H436 0.932 . S
C419 C420 1.384 . S
C419 C421 1.479 . S
C419 H437 0.929 . S
C420 C417 1.424 . S
C420 C419 1.384 . S
C420 H438 0.928 . S
C421 C418 1.260 . S
C421 C419 1.479 . S
C422 C417 1.245 . S
C422 C418 1.477 . S
C422 H439 0.932 . S
C423 U406 2.882 . S
C423 C417 1.428 . S
C423 O426 1.301 . S
C423 O427 1.282 . S
O424 U406 2.441 . S
O424 C410 1.249 . S
O425 U406 2.420 . S
O425 C410 1.202 . S
O426 U406 2.455 . S
O426 C423 1.301 . S
O427 U406 2.449 . S
O427 C423 1.282 . S
H428 C401 0.931 . S
H429 C403 0.929 . S
H430 C404 0.930 . S
H431 C405 0.931 . S
H432 C412 0.932 . S
H433 C413 0.930 . S
H434 C414 0.929 . S
H435 C416 0.930 . S
H436 C418 0.932 . S
H437 C419 0.929 . S
H438 C420 0.928 . S
H439 C422 0.932 . S
C440 C441 1.264 . S
C440 C445 1.479 . S
C440 C450 1.465 . S
C441 C440 1.264 . S
C441 C443 1.339 . S
C441 H468 0.931 . S
C442 C443 1.395 . S
C442 C444 1.320 . S
C443 C441 1.339 . S
C443 C442 1.395 . S
C443 H469 0.929 . S
C444 C442 1.320 . S
C444 C445 1.405 . S
C444 H470 0.930 . S
C445 C440 1.479 . S
C445 C444 1.405 . S
C445 H471 0.931 . S
U446 O447 2.454 . S
U446 O448 2.458 . S
U446 C449 2.984 . S
U446 C450 2.847 . S
U446 C463 2.882 . S
U446 O464 2.441 . S
U446 O465 2.420 . S
U446 O466 2.455 . S
U446 O467 2.449 . S
O447 U446 2.454 . S
O447 C449 1.353 . S
O448 U446 2.458 . S
O448 C449 1.286 . S
C449 U446 2.984 . S
C449 O447 1.353 . S
C449 O448 1.286 . S
C449 C451 1.363 . S
C450 C440 1.465 . S
C450 U446 2.847 . S
C450 O464 1.249 . S
C450 O465 1.202 . S
C451 C449 1.363 . S
C451 C453 1.408 . S
C451 C456 1.342 . S
C452 C453 1.310 . S
C452 C455 1.461 . S
C452 H472 0.932 . S
C453 C451 1.408 . S
C453 C452 1.310 . S
C453 H473 0.930 . S
C454 C455 1.474 . S
C454 C456 1.285 . S
C454 H474 0.929 . S
C455 C452 1.461 . S
C455 C454 1.474 . S
C456 C451 1.342 . S
C456 C454 1.285 . S
C456 H475 0.930 . S
C457 C460 1.424 . S
C457 C462 1.245 . S
C457 C463 1.428 . S
C458 C461 1.260 . S
C458 C462 1.477 . S
C458 H476 0.932 . S
C459 C460 1.384 . S
C459 C461 1.479 . S
C459 H477 0.929 . S
C460 C457 1.424 . S
C460 C459 1.384 . S
C460 H478 0.928 . S
C461 C458 1.260 . S
C461 C459 1.479 . S
C462 C457 1.245 . S
C462 C458 1.477 . S
C462 H479 0.932 . S
C463 U446 2.882 . S
C463 C457 1.428 . S
C463 O466 1.301 . S
C463 O467 1.282 . S
O464 U446 2.441 . S
O464 C450 1.249 . S
O465 U446 2.420 . S
O465 C450 1.202 . S
O466 U446 2.455 . S
O466 C463 1.301 . S
O467 U446 2.449 . S
O467 C463 1.282 . S
H468 C441 0.931 . S
H469 C443 0.929 . S
H470 C444 0.930 . S
H471 C445 0.931 . S
H472 C452 0.932 . S
H473 C453 0.930 . S
H474 C454 0.929 . S
H475 C456 0.930 . S
H476 C458 0.932 . S
H477 C459 0.929 . S
H478 C460 0.928 . S
H479 C462 0.932 . S
C480 C481 1.264 . S
C480 C485 1.479 . S
C480 C490 1.465 . S
C481 C480 1.264 . S
C481 C483 1.339 . S
C481 H508 0.931 . S
C482 C483 1.395 . S
C482 C484 1.320 . S
C483 C481 1.339 . S
C483 C482 1.395 . S
C483 H509 0.929 . S
C484 C482 1.320 . S
C484 C485 1.405 . S
C484 H510 0.930 . S
C485 C480 1.479 . S
C485 C484 1.405 . S
C485 H511 0.931 . S
U486 O487 2.454 . S
U486 O488 2.458 . S
U486 C489 2.984 . S
U486 C490 2.847 . S
U486 C503 2.882 . S
U486 O504 2.441 . S
U486 O505 2.420 . S
U486 O506 2.455 . S
U486 O507 2.449 . S
O487 U486 2.454 . S
O487 C489 1.353 . S
O488 U486 2.458 . S
O488 C489 1.286 . S
C489 U486 2.984 . S
C489 O487 1.353 . S
C489 O488 1.286 . S
C489 C491 1.363 . S
C490 C480 1.465 . S
C490 U486 2.847 . S
C490 O504 1.249 . S
C490 O505 1.202 . S
C491 C489 1.363 . S
C491 C493 1.408 . S
C491 C496 1.342 . S
C492 C493 1.310 . S
C492 C495 1.461 . S
C492 H512 0.932 . S
C493 C491 1.408 . S
C493 C492 1.310 . S
C493 H513 0.930 . S
C494 C495 1.474 . S
C494 C496 1.285 . S
C494 H514 0.929 . S
C495 C492 1.461 . S
C495 C494 1.474 . S
C496 C491 1.342 . S
C496 C494 1.285 . S
C496 H515 0.930 . S
C497 C500 1.424 . S
C497 C502 1.245 . S
C497 C503 1.428 . S
C498 C501 1.260 . S
C498 C502 1.477 . S
C498 H516 0.932 . S
C499 C500 1.384 . S
C499 C501 1.479 . S
C499 H517 0.929 . S
C500 C497 1.424 . S
C500 C499 1.384 . S
C500 H518 0.928 . S
C501 C498 1.260 . S
C501 C499 1.479 . S
C502 C497 1.245 . S
C502 C498 1.477 . S
C502 H519 0.932 . S
C503 U486 2.882 . S
C503 C497 1.428 . S
C503 O506 1.301 . S
C503 O507 1.282 . S
O504 U486 2.441 . S
O504 C490 1.249 . S
O505 U486 2.420 . S
O505 C490 1.202 . S
O506 U486 2.455 . S
O506 C503 1.301 . S
O507 U486 2.449 . S
O507 C503 1.282 . S
H508 C481 0.931 . S
H509 C483 0.929 . S
H510 C484 0.930 . S
H511 C485 0.931 . S
H512 C492 0.932 . S
H513 C493 0.930 . S
H514 C494 0.929 . S
H515 C496 0.930 . S
H516 C498 0.932 . S
H517 C499 0.929 . S
H518 C500 0.928 . S
H519 C502 0.932 . S
C520 C521 1.264 . S
C520 C525 1.479 . S
C520 C530 1.465 . S
C521 C520 1.264 . S
C521 C523 1.339 . S
C521 H548 0.931 . S
C522 C523 1.395 . S
C522 C524 1.320 . S
C523 C521 1.339 . S
C523 C522 1.395 . S
C523 H549 0.929 . S
C524 C522 1.320 . S
C524 C525 1.405 . S
C524 H550 0.930 . S
C525 C520 1.479 . S
C525 C524 1.405 . S
C525 H551 0.931 . S
U526 O527 2.454 . S
U526 O528 2.458 . S
U526 C529 2.984 . S
U526 C530 2.847 . S
U526 C543 2.882 . S
U526 O544 2.441 . S
U526 O545 2.420 . S
U526 O546 2.455 . S
U526 O547 2.449 . S
O527 U526 2.454 . S
O527 C529 1.353 . S
O528 U526 2.458 . S
O528 C529 1.286 . S
C529 U526 2.984 . S
C529 O527 1.353 . S
C529 O528 1.286 . S
C529 C531 1.363 . S
C530 C520 1.465 . S
C530 U526 2.847 . S
C530 O544 1.249 . S
C530 O545 1.202 . S
C531 C529 1.363 . S
C531 C533 1.408 . S
C531 C536 1.342 . S
C532 C533 1.310 . S
C532 C535 1.461 . S
C532 H552 0.932 . S
C533 C531 1.408 . S
C533 C532 1.310 . S
C533 H553 0.930 . S
C534 C535 1.474 . S
C534 C536 1.285 . S
C534 H554 0.929 . S
C535 C532 1.461 . S
C535 C534 1.474 . S
C536 C531 1.342 . S
C536 C534 1.285 . S
C536 H555 0.930 . S
C537 C540 1.424 . S
C537 C542 1.245 . S
C537 C543 1.428 . S
C538 C541 1.260 . S
C538 C542 1.477 . S
C538 H556 0.932 . S
C539 C540 1.384 . S
C539 C541 1.479 . S
C539 H557 0.929 . S
C540 C537 1.424 . S
C540 C539 1.384 . S
C540 H558 0.928 . S
C541 C538 1.260 . S
C541 C539 1.479 . S
C542 C537 1.245 . S
C542 C538 1.477 . S
C542 H559 0.932 . S
C543 U526 2.882 . S
C543 C537 1.428 . S
C543 O546 1.301 . S
C543 O547 1.282 . S
O544 U526 2.441 . S
O544 C530 1.249 . S
O545 U526 2.420 . S
O545 C530 1.202 . S
O546 U526 2.455 . S
O546 C543 1.301 . S
O547 U526 2.449 . S
O547 C543 1.282 . S
H548 C521 0.931 . S
H549 C523 0.929 . S
H550 C524 0.930 . S
H551 C525 0.931 . S
H552 C532 0.932 . S
H553 C533 0.930 . S
H554 C534 0.929 . S
H555 C536 0.930 . S
H556 C538 0.932 . S
H557 C539 0.929 . S
H558 C540 0.928 . S
H559 C542 0.932 . S
C560 C561 1.264 . S
C560 C565 1.479 . S
C560 C570 1.465 . S
C561 C560 1.264 . S
C561 C563 1.339 . S
C561 H588 0.931 . S
C562 C563 1.395 . S
C562 C564 1.320 . S
C563 C561 1.339 . S
C563 C562 1.395 . S
C563 H589 0.929 . S
C564 C562 1.320 . S
C564 C565 1.405 . S
C564 H590 0.930 . S
C565 C560 1.479 . S
C565 C564 1.405 . S
C565 H591 0.931 . S
U566 O567 2.454 . S
U566 O568 2.458 . S
U566 C569 2.984 . S
U566 C570 2.847 . S
U566 C583 2.882 . S
U566 O584 2.441 . S
U566 O585 2.420 . S
U566 O586 2.455 . S
U566 O587 2.449 . S
O567 U566 2.454 . S
O567 C569 1.353 . S
O568 U566 2.458 . S
O568 C569 1.286 . S
C569 U566 2.984 . S
C569 O567 1.353 . S
C569 O568 1.286 . S
C569 C571 1.363 . S
C570 C560 1.465 . S
C570 U566 2.847 . S
C570 O584 1.249 . S
C570 O585 1.202 . S
C571 C569 1.363 . S
C571 C573 1.408 . S
C571 C576 1.342 . S
C572 C573 1.310 . S
C572 C575 1.461 . S
C572 H592 0.932 . S
C573 C571 1.408 . S
C573 C572 1.310 . S
C573 H593 0.930 . S
C574 C575 1.474 . S
C574 C576 1.285 . S
C574 H594 0.929 . S
C575 C572 1.461 . S
C575 C574 1.474 . S
C576 C571 1.342 . S
C576 C574 1.285 . S
C576 H595 0.930 . S
C577 C580 1.424 . S
C577 C582 1.245 . S
C577 C583 1.428 . S
C578 C581 1.260 . S
C578 C582 1.477 . S
C578 H596 0.932 . S
C579 C580 1.384 . S
C579 C581 1.479 . S
C579 H597 0.929 . S
C580 C577 1.424 . S
C580 C579 1.384 . S
C580 H598 0.928 . S
C581 C578 1.260 . S
C581 C579 1.479 . S
C582 C577 1.245 . S
C582 C578 1.477 . S
C582 H599 0.932 . S
C583 U566 2.882 . S
C583 C577 1.428 . S
C583 O586 1.301 . S
C583 O587 1.282 . S
O584 U566 2.441 . S
O584 C570 1.249 . S
O585 U566 2.420 . S
O585 C570 1.202 . S
O586 U566 2.455 . S
O586 C583 1.301 . S
O587 U566 2.449 . S
O587 C583 1.282 . S
H588 C561 0.931 . S
H589 C563 0.929 . S
H590 C564 0.930 . S
H591 C565 0.931 . S
H592 C572 0.932 . S
H593 C573 0.930 . S
H594 C574 0.929 . S
H595 C576 0.930 . S
H596 C578 0.932 . S
H597 C579 0.929 . S
H598 C580 0.928 . S
H599 C582 0.932 . S
C600 C601 1.264 . S
C600 C605 1.479 . S
C600 C610 1.465 . S
C601 C600 1.264 . S
C601 C603 1.339 . S
C601 H628 0.931 . S
C602 C603 1.395 . S
C602 C604 1.320 . S
C603 C601 1.339 . S
C603 C602 1.395 . S
C603 H629 0.929 . S
C604 C602 1.320 . S
C604 C605 1.405 . S
C604 H630 0.930 . S
C605 C600 1.479 . S
C605 C604 1.405 . S
C605 H631 0.931 . S
U606 O607 2.454 . S
U606 O608 2.458 . S
U606 C609 2.984 . S
U606 C610 2.847 . S
U606 C623 2.882 . S
U606 O624 2.441 . S
U606 O625 2.420 . S
U606 O626 2.455 . S
U606 O627 2.449 . S
O607 U606 2.454 . S
O607 C609 1.353 . S
O608 U606 2.458 . S
O608 C609 1.286 . S
C609 U606 2.984 . S
C609 O607 1.353 . S
C609 O608 1.286 . S
C609 C611 1.363 . S
C610 C600 1.465 . S
C610 U606 2.847 . S
C610 O624 1.249 . S
C610 O625 1.202 . S
C611 C609 1.363 . S
C611 C613 1.408 . S
C611 C616 1.342 . S
C612 C613 1.310 . S
C612 C615 1.461 . S
C612 H632 0.932 . S
C613 C611 1.408 . S
C613 C612 1.310 . S
C613 H633 0.930 . S
C614 C615 1.474 . S
C614 C616 1.285 . S
C614 H634 0.929 . S
C615 C612 1.461 . S
C615 C614 1.474 . S
C616 C611 1.342 . S
C616 C614 1.285 . S
C616 H635 0.930 . S
C617 C620 1.424 . S
C617 C622 1.245 . S
C617 C623 1.428 . S
C618 C621 1.260 . S
C618 C622 1.477 . S
C618 H636 0.932 . S
C619 C620 1.384 . S
C619 C621 1.479 . S
C619 H637 0.929 . S
C620 C617 1.424 . S
C620 C619 1.384 . S
C620 H638 0.928 . S
C621 C618 1.260 . S
C621 C619 1.479 . S
C622 C617 1.245 . S
C622 C618 1.477 . S
C622 H639 0.932 . S
C623 U606 2.882 . S
C623 C617 1.428 . S
C623 O626 1.301 . S
C623 O627 1.282 . S
O624 U606 2.441 . S
O624 C610 1.249 . S
O625 U606 2.420 . S
O625 C610 1.202 . S
O626 U606 2.455 . S
O626 C623 1.301 . S
O627 U606 2.449 . S
O627 C623 1.282 . S
H628 C601 0.931 . S
H629 C603 0.929 . S
H630 C604 0.930 . S
H631 C605 0.931 . S
H632 C612 0.932 . S
H633 C613 0.930 . S
H634 C614 0.929 . S
H635 C616 0.930 . S
H636 C618 0.932 . S
H637 C619 0.929 . S
H638 C620 0.928 . S
H639 C622 0.932 . S
C640 C641 1.264 . S
C640 C645 1.479 . S
C640 C650 1.465 . S
C641 C640 1.264 . S
C641 C643 1.339 . S
C641 H668 0.931 . S
C642 C643 1.395 . S
C642 C644 1.320 . S
C643 C641 1.339 . S
C643 C642 1.395 . S
C643 H669 0.929 . S
C644 C642 1.320 . S
C644 C645 1.405 . S
C644 H670 0.930 . S
C645 C640 1.479 . S
C645 C644 1.405 . S
C645 H671 0.931 . S
U646 O647 2.454 . S
U646 O648 2.458 . S
U646 C649 2.984 . S
U646 C650 2.847 . S
U646 C663 2.882 . S
U646 O664 2.441 . S
U646 O665 2.420 . S
U646 O666 2.455 . S
U646 O667 2.449 . S
O647 U646 2.454 . S
O647 C649 1.353 . S
O648 U646 2.458 . S
O648 C649 1.286 . S
C649 U646 2.984 . S
C649 O647 1.353 . S
C649 O648 1.286 . S
C649 C651 1.363 . S
C650 C640 1.465 . S
C650 U646 2.847 . S
C650 O664 1.249 . S
C650 O665 1.202 . S
C651 C649 1.363 . S
C651 C653 1.408 . S
C651 C656 1.342 . S
C652 C653 1.310 . S
C652 C655 1.461 . S
C652 H672 0.932 . S
C653 C651 1.408 . S
C653 C652 1.310 . S
C653 H673 0.930 . S
C654 C655 1.474 . S
C654 C656 1.285 . S
C654 H674 0.929 . S
C655 C652 1.461 . S
C655 C654 1.474 . S
C656 C651 1.342 . S
C656 C654 1.285 . S
C656 H675 0.930 . S
C657 C660 1.424 . S
C657 C662 1.245 . S
C657 C663 1.428 . S
C658 C661 1.260 . S
C658 C662 1.477 . S
C658 H676 0.932 . S
C659 C660 1.384 . S
C659 C661 1.479 . S
C659 H677 0.929 . S
C660 C657 1.424 . S
C660 C659 1.384 . S
C660 H678 0.928 . S
C661 C658 1.260 . S
C661 C659 1.479 . S
C662 C657 1.245 . S
C662 C658 1.477 . S
C662 H679 0.932 . S
C663 U646 2.882 . S
C663 C657 1.428 . S
C663 O666 1.301 . S
C663 O667 1.282 . S
O664 U646 2.441 . S
O664 C650 1.249 . S
O665 U646 2.420 . S
O665 C650 1.202 . S
O666 U646 2.455 . S
O666 C663 1.301 . S
O667 U646 2.449 . S
O667 C663 1.282 . S
H668 C641 0.931 . S
H669 C643 0.929 . S
H670 C644 0.930 . S
H671 C645 0.931 . S
H672 C652 0.932 . S
H673 C653 0.930 . S
H674 C654 0.929 . S
H675 C656 0.930 . S
H676 C658 0.932 . S
H677 C659 0.929 . S
H678 C660 0.928 . S
H679 C662 0.932 . S
C680 C681 1.264 . S
C680 C685 1.479 . S
C680 C690 1.465 . S
C681 C680 1.264 . S
C681 C683 1.339 . S
C681 H708 0.931 . S
C682 C683 1.395 . S
C682 C684 1.320 . S
C683 C681 1.339 . S
C683 C682 1.395 . S
C683 H709 0.929 . S
C684 C682 1.320 . S
C684 C685 1.405 . S
C684 H710 0.930 . S
C685 C680 1.479 . S
C685 C684 1.405 . S
C685 H711 0.931 . S
U686 O687 2.454 . S
U686 O688 2.458 . S
U686 C689 2.984 . S
U686 C690 2.847 . S
U686 C703 2.882 . S
U686 O704 2.441 . S
U686 O705 2.420 . S
U686 O706 2.455 . S
U686 O707 2.449 . S
O687 U686 2.454 . S
O687 C689 1.353 . S
O688 U686 2.458 . S
O688 C689 1.286 . S
C689 U686 2.984 . S
C689 O687 1.353 . S
C689 O688 1.286 . S
C689 C691 1.363 . S
C690 C680 1.465 . S
C690 U686 2.847 . S
C690 O704 1.249 . S
C690 O705 1.202 . S
C691 C689 1.363 . S
C691 C693 1.408 . S
C691 C696 1.342 . S
C692 C693 1.310 . S
C692 C695 1.461 . S
C692 H712 0.932 . S
C693 C691 1.408 . S
C693 C692 1.310 . S
C693 H713 0.930 . S
C694 C695 1.474 . S
C694 C696 1.285 . S
C694 H714 0.929 . S
C695 C692 1.461 . S
C695 C694 1.474 . S
C696 C691 1.342 . S
C696 C694 1.285 . S
C696 H715 0.930 . S
C697 C700 1.424 . S
C697 C702 1.245 . S
C697 C703 1.428 . S
C698 C701 1.260 . S
C698 C702 1.477 . S
C698 H716 0.932 . S
C699 C700 1.384 . S
C699 C701 1.479 . S
C699 H717 0.929 . S
C700 C697 1.424 . S
C700 C699 1.384 . S
C700 H718 0.928 . S
C701 C698 1.260 . S
C701 C699 1.479 . S
C702 C697 1.245 . S
C702 C698 1.477 . S
C702 H719 0.932 . S
C703 U686 2.882 . S
C703 C697 1.428 . S
C703 O706 1.301 . S
C703 O707 1.282 . S
O704 U686 2.441 . S
O704 C690 1.249 . S
O705 U686 2.420 . S
O705 C690 1.202 . S
O706 U686 2.455 . S
O706 C703 1.301 . S
O707 U686 2.449 . S
O707 C703 1.282 . S
H708 C681 0.931 . S
H709 C683 0.929 . S
H710 C684 0.930 . S
H711 C685 0.931 . S
H712 C692 0.932 . S
H713 C693 0.930 . S
H714 C694 0.929 . S
H715 C696 0.930 . S
H716 C698 0.932 . S
H717 C699 0.929 . S
H718 C700 0.928 . S
H719 C702 0.932 . S
C720 C721 1.264 . S
C720 C725 1.479 . S
C720 C730 1.465 . S
C721 C720 1.264 . S
C721 C723 1.339 . S
C721 H748 0.931 . S
C722 C723 1.395 . S
C722 C724 1.320 . S
C723 C721 1.339 . S
C723 C722 1.395 . S
C723 H749 0.929 . S
C724 C722 1.320 . S
C724 C725 1.405 . S
C724 H750 0.930 . S
C725 C720 1.479 . S
C725 C724 1.405 . S
C725 H751 0.931 . S
U726 O727 2.454 . S
U726 O728 2.458 . S
U726 C729 2.984 . S
U726 C730 2.847 . S
U726 C743 2.882 . S
U726 O744 2.441 . S
U726 O745 2.420 . S
U726 O746 2.455 . S
U726 O747 2.449 . S
O727 U726 2.454 . S
O727 C729 1.353 . S
O728 U726 2.458 . S
O728 C729 1.286 . S
C729 U726 2.984 . S
C729 O727 1.353 . S
C729 O728 1.286 . S
C729 C731 1.363 . S
C730 C720 1.465 . S
C730 U726 2.847 . S
C730 O744 1.249 . S
C730 O745 1.202 . S
C731 C729 1.363 . S
C731 C733 1.408 . S
C731 C736 1.342 . S
C732 C733 1.310 . S
C732 C735 1.461 . S
C732 H752 0.932 . S
C733 C731 1.408 . S
C733 C732 1.310 . S
C733 H753 0.930 . S
C734 C735 1.474 . S
C734 C736 1.285 . S
C734 H754 0.929 . S
C735 C732 1.461 . S
C735 C734 1.474 . S
C736 C731 1.342 . S
C736 C734 1.285 . S
C736 H755 0.930 . S
C737 C740 1.424 . S
C737 C742 1.245 . S
C737 C743 1.428 . S
C738 C741 1.260 . S
C738 C742 1.477 . S
C738 H756 0.932 . S
C739 C740 1.384 . S
C739 C741 1.479 . S
C739 H757 0.929 . S
C740 C737 1.424 . S
C740 C739 1.384 . S
C740 H758 0.928 . S
C741 C738 1.260 . S
C741 C739 1.479 . S
C742 C737 1.245 . S
C742 C738 1.477 . S
C742 H759 0.932 . S
C743 U726 2.882 . S
C743 C737 1.428 . S
C743 O746 1.301 . S
C743 O747 1.282 . S
O744 U726 2.441 . S
O744 C730 1.249 . S
O745 U726 2.420 . S
O745 C730 1.202 . S
O746 U726 2.455 . S
O746 C743 1.301 . S
O747 U726 2.449 . S
O747 C743 1.282 . S
H748 C721 0.931 . S
H749 C723 0.929 . S
H750 C724 0.930 . S
H751 C725 0.931 . S
H752 C732 0.932 . S
H753 C733 0.930 . S
H754 C734 0.929 . S
H755 C736 0.930 . S
H756 C738 0.932 . S
H757 C739 0.929 . S
H758 C740 0.928 . S
H759 C742 0.932 . S
C760 C761 1.264 . S
C760 C765 1.479 . S
C760 C770 1.465 . S
C761 C760 1.264 . S
C761 C763 1.339 . S
C761 H788 0.931 . S
C762 C763 1.395 . S
C762 C764 1.320 . S
C763 C761 1.339 . S
C763 C762 1.395 . S
C763 H789 0.929 . S
C764 C762 1.320 . S
C764 C765 1.405 . S
C764 H790 0.930 . S
C765 C760 1.479 . S
C765 C764 1.405 . S
C765 H791 0.931 . S
U766 O767 2.454 . S
U766 O768 2.458 . S
U766 C769 2.984 . S
U766 C770 2.847 . S
U766 C783 2.882 . S
U766 O784 2.441 . S
U766 O785 2.420 . S
U766 O786 2.455 . S
U766 O787 2.449 . S
O767 U766 2.454 . S
O767 C769 1.353 . S
O768 U766 2.458 . S
O768 C769 1.286 . S
C769 U766 2.984 . S
C769 O767 1.353 . S
C769 O768 1.286 . S
C769 C771 1.363 . S
C770 C760 1.465 . S
C770 U766 2.847 . S
C770 O784 1.249 . S
C770 O785 1.202 . S
C771 C769 1.363 . S
C771 C773 1.408 . S
C771 C776 1.342 . S
C772 C773 1.310 . S
C772 C775 1.461 . S
C772 H792 0.932 . S
C773 C771 1.408 . S
C773 C772 1.310 . S
C773 H793 0.930 . S
C774 C775 1.474 . S
C774 C776 1.285 . S
C774 H794 0.929 . S
C775 C772 1.461 . S
C775 C774 1.474 . S
C776 C771 1.342 . S
C776 C774 1.285 . S
C776 H795 0.930 . S
C777 C780 1.424 . S
C777 C782 1.245 . S
C777 C783 1.428 . S
C778 C781 1.260 . S
C778 C782 1.477 . S
C778 H796 0.932 . S
C779 C780 1.384 . S
C779 C781 1.479 . S
C779 H797 0.929 . S
C780 C777 1.424 . S
C780 C779 1.384 . S
C780 H798 0.928 . S
C781 C778 1.260 . S
C781 C779 1.479 . S
C782 C777 1.245 . S
C782 C778 1.477 . S
C782 H799 0.932 . S
C783 U766 2.882 . S
C783 C777 1.428 . S
C783 O786 1.301 . S
C783 O787 1.282 . S
O784 U766 2.441 . S
O784 C770 1.249 . S
O785 U766 2.420 . S
O785 C770 1.202 . S
O786 U766 2.455 . S
O786 C783 1.301 . S
O787 U766 2.449 . S
O787 C783 1.282 . S
H788 C761 0.931 . S
H789 C763 0.929 . S
H790 C764 0.930 . S
H791 C765 0.931 . S
H792 C772 0.932 . S
H793 C773 0.930 . S
H794 C774 0.929 . S
H795 C776 0.930 . S
H796 C778 0.932 . S
H797 C779 0.929 . S
H798 C780 0.928 . S
H799 C782 0.932 . S
C800 C801 1.264 . S
C800 C805 1.479 . S
C800 C810 1.465 . S
C801 C800 1.264 . S
C801 C803 1.339 . S
C801 H828 0.931 . S
C802 C803 1.395 . S
C802 C804 1.320 . S
C803 C801 1.339 . S
C803 C802 1.395 . S
C803 H829 0.929 . S
C804 C802 1.320 . S
C804 C805 1.405 . S
C804 H830 0.930 . S
C805 C800 1.479 . S
C805 C804 1.405 . S
C805 H831 0.931 . S
U806 O807 2.454 . S
U806 O808 2.458 . S
U806 C809 2.984 . S
U806 C810 2.847 . S
U806 C823 2.882 . S
U806 O824 2.441 . S
U806 O825 2.420 . S
U806 O826 2.455 . S
U806 O827 2.449 . S
O807 U806 2.454 . S
O807 C809 1.353 . S
O808 U806 2.458 . S
O808 C809 1.286 . S
C809 U806 2.984 . S
C809 O807 1.353 . S
C809 O808 1.286 . S
C809 C811 1.363 . S
C810 C800 1.465 . S
C810 U806 2.847 . S
C810 O824 1.249 . S
C810 O825 1.202 . S
C811 C809 1.363 . S
C811 C813 1.408 . S
C811 C816 1.342 . S
C812 C813 1.310 . S
C812 C815 1.461 . S
C812 H832 0.932 . S
C813 C811 1.408 . S
C813 C812 1.310 . S
C813 H833 0.930 . S
C814 C815 1.474 . S
C814 C816 1.285 . S
C814 H834 0.929 . S
C815 C812 1.461 . S
C815 C814 1.474 . S
C816 C811 1.342 . S
C816 C814 1.285 . S
C816 H835 0.930 . S
C817 C820 1.424 . S
C817 C822 1.245 . S
C817 C823 1.428 . S
C818 C821 1.260 . S
C818 C822 1.477 . S
C818 H836 0.932 . S
C819 C820 1.384 . S
C819 C821 1.479 . S
C819 H837 0.929 . S
C820 C817 1.424 . S
C820 C819 1.384 . S
C820 H838 0.928 . S
C821 C818 1.260 . S
C821 C819 1.479 . S
C822 C817 1.245 . S
C822 C818 1.477 . S
C822 H839 0.932 . S
C823 U806 2.882 . S
C823 C817 1.428 . S
C823 O826 1.301 . S
C823 O827 1.282 . S
O824 U806 2.441 . S
O824 C810 1.249 . S
O825 U806 2.420 . S
O825 C810 1.202 . S
O826 U806 2.455 . S
O826 C823 1.301 . S
O827 U806 2.449 . S
O827 C823 1.282 . S
H828 C801 0.931 . S
H829 C803 0.929 . S
H830 C804 0.930 . S
H831 C805 0.931 . S
H832 C812 0.932 . S
H833 C813 0.930 . S
H834 C814 0.929 . S
H835 C816 0.930 . S
H836 C818 0.932 . S
H837 C819 0.929 . S
H838 C820 0.928 . S
H839 C822 0.932 . S
C840 C841 1.264 . S
C840 C845 1.479 . S
C840 C850 1.465 . S
C841 C840 1.264 . S
C841 C843 1.339 . S
C841 H868 0.931 . S
C842 C843 1.395 . S
C842 C844 1.320 . S
C843 C841 1.339 . S
C843 C842 1.395 . S
C843 H869 0.929 . S
C844 C842 1.320 . S
C844 C845 1.405 . S
C844 H870 0.930 . S
C845 C840 1.479 . S
C845 C844 1.405 . S
C845 H871 0.931 . S
U846 O847 2.454 . S
U846 O848 2.458 . S
U846 C849 2.984 . S
U846 C850 2.847 . S
U846 C863 2.882 . S
U846 O864 2.441 . S
U846 O865 2.420 . S
U846 O866 2.455 . S
U846 O867 2.449 . S
O847 U846 2.454 . S
O847 C849 1.353 . S
O848 U846 2.458 . S
O848 C849 1.286 . S
C849 U846 2.984 . S
C849 O847 1.353 . S
C849 O848 1.286 . S
C849 C851 1.363 . S
C850 C840 1.465 . S
C850 U846 2.847 . S
C850 O864 1.249 . S
C850 O865 1.202 . S
C851 C849 1.363 . S
C851 C853 1.408 . S
C851 C856 1.342 . S
C852 C853 1.310 . S
C852 C855 1.461 . S
C852 H872 0.932 . S
C853 C851 1.408 . S
C853 C852 1.310 . S
C853 H873 0.930 . S
C854 C855 1.474 . S
C854 C856 1.285 . S
C854 H874 0.929 . S
C855 C852 1.461 . S
C855 C854 1.474 . S
C856 C851 1.342 . S
C856 C854 1.285 . S
C856 H875 0.930 . S
C857 C860 1.424 . S
C857 C862 1.245 . S
C857 C863 1.428 . S
C858 C861 1.260 . S
C858 C862 1.477 . S
C858 H876 0.932 . S
C859 C860 1.384 . S
C859 C861 1.479 . S
C859 H877 0.929 . S
C860 C857 1.424 . S
C860 C859 1.384 . S
C860 H878 0.928 . S
C861 C858 1.260 . S
C861 C859 1.479 . S
C862 C857 1.245 . S
C862 C858 1.477 . S
C862 H879 0.932 . S
C863 U846 2.882 . S
C863 C857 1.428 . S
C863 O866 1.301 . S
C863 O867 1.282 . S
O864 U846 2.441 . S
O864 C850 1.249 . S
O865 U846 2.420 . S
O865 C850 1.202 . S
O866 U846 2.455 . S
O866 C863 1.301 . S
O867 U846 2.449 . S
O867 C863 1.282 . S
H868 C841 0.931 . S
H869 C843 0.929 . S
H870 C844 0.930 . S
H871 C845 0.931 . S
H872 C852 0.932 . S
H873 C853 0.930 . S
H874 C854 0.929 . S
H875 C856 0.930 . S
H876 C858 0.932 . S
H877 C859 0.929 . S
H878 C860 0.928 . S
H879 C862 0.932 . S
C880 C881 1.264 . S
C880 C885 1.479 . S
C880 C890 1.465 . S
C881 C880 1.264 . S
C881 C883 1.339 . S
C881 H908 0.931 . S
C882 C883 1.395 . S
C882 C884 1.320 . S
C883 C881 1.339 . S
C883 C882 1.395 . S
C883 H909 0.929 . S
C884 C882 1.320 . S
C884 C885 1.405 . S
C884 H910 0.930 . S
C885 C880 1.479 . S
C885 C884 1.405 . S
C885 H911 0.931 . S
U886 O887 2.454 . S
U886 O888 2.458 . S
U886 C889 2.984 . S
U886 C890 2.847 . S
U886 C903 2.882 . S
U886 O904 2.441 . S
U886 O905 2.420 . S
U886 O906 2.455 . S
U886 O907 2.449 . S
O887 U886 2.454 . S
O887 C889 1.353 . S
O888 U886 2.458 . S
O888 C889 1.286 . S
C889 U886 2.984 . S
C889 O887 1.353 . S
C889 O888 1.286 . S
C889 C891 1.363 . S
C890 C880 1.465 . S
C890 U886 2.847 . S
C890 O904 1.249 . S
C890 O905 1.202 . S
C891 C889 1.363 . S
C891 C893 1.408 . S
C891 C896 1.342 . S
C892 C893 1.310 . S
C892 C895 1.461 . S
C892 H912 0.932 . S
C893 C891 1.408 . S
C893 C892 1.310 . S
C893 H913 0.930 . S
C894 C895 1.474 . S
C894 C896 1.285 . S
C894 H914 0.929 . S
C895 C892 1.461 . S
C895 C894 1.474 . S
C896 C891 1.342 . S
C896 C894 1.285 . S
C896 H915 0.930 . S
C897 C900 1.424 . S
C897 C902 1.245 . S
C897 C903 1.428 . S
C898 C901 1.260 . S
C898 C902 1.477 . S
C898 H916 0.932 . S
C899 C900 1.384 . S
C899 C901 1.479 . S
C899 H917 0.929 . S
C900 C897 1.424 . S
C900 C899 1.384 . S
C900 H918 0.928 . S
C901 C898 1.260 . S
C901 C899 1.479 . S
C902 C897 1.245 . S
C902 C898 1.477 . S
C902 H919 0.932 . S
C903 U886 2.882 . S
C903 C897 1.428 . S
C903 O906 1.301 . S
C903 O907 1.282 . S
O904 U886 2.441 . S
O904 C890 1.249 . S
O905 U886 2.420 . S
O905 C890 1.202 . S
O906 U886 2.455 . S
O906 C903 1.301 . S
O907 U886 2.449 . S
O907 C903 1.282 . S
H908 C881 0.931 . S
H909 C883 0.929 . S
H910 C884 0.930 . S
H911 C885 0.931 . S
H912 C892 0.932 . S
H913 C893 0.930 . S
H914 C894 0.929 . S
H915 C896 0.930 . S
H916 C898 0.932 . S
H917 C899 0.929 . S
H918 C900 0.928 . S
H919 C902 0.932 . S
C920 C921 1.264 . S
C920 C925 1.479 . S
C920 C930 1.465 . S
C921 C920 1.264 . S
C921 C923 1.339 . S
C921 H948 0.931 . S
C922 C923 1.395 . S
C922 C924 1.320 . S
C923 C921 1.339 . S
C923 C922 1.395 . S
C923 H949 0.929 . S
C924 C922 1.320 . S
C924 C925 1.405 . S
C924 H950 0.930 . S
C925 C920 1.479 . S
C925 C924 1.405 . S
C925 H951 0.931 . S
U926 O927 2.454 . S
U926 O928 2.458 . S
U926 C929 2.984 . S
U926 C930 2.847 . S
U926 C943 2.882 . S
U926 O944 2.441 . S
U926 O945 2.420 . S
U926 O946 2.455 . S
U926 O947 2.449 . S
O927 U926 2.454 . S
O927 C929 1.353 . S
O928 U926 2.458 . S
O928 C929 1.286 . S
C929 U926 2.984 . S
C929 O927 1.353 . S
C929 O928 1.286 . S
C929 C931 1.363 . S
C930 C920 1.465 . S
C930 U926 2.847 . S
C930 O944 1.249 . S
C930 O945 1.202 . S
C931 C929 1.363 . S
C931 C933 1.408 . S
C931 C936 1.342 . S
C932 C933 1.310 . S
C932 C935 1.461 . S
C932 H952 0.932 . S
C933 C931 1.408 . S
C933 C932 1.310 . S
C933 H953 0.930 . S
C934 C935 1.474 . S
C934 C936 1.285 . S
C934 H954 0.929 . S
C935 C932 1.461 . S
C935 C934 1.474 . S
C936 C931 1.342 . S
C936 C934 1.285 . S
C936 H955 0.930 . S
C937 C940 1.424 . S
C937 C942 1.245 . S
C937 C943 1.428 . S
C938 C941 1.260 . S
C938 C942 1.477 . S
C938 H956 0.932 . S
C939 C940 1.384 . S
C939 C941 1.479 . S
C939 H957 0.929 . S
C940 C937 1.424 . S
C940 C939 1.384 . S
C940 H958 0.928 . S
C941 C938 1.260 . S
C941 C939 1.479 . S
C942 C937 1.245 . S
C942 C938 1.477 . S
C942 H959 0.932 . S
C943 U926 2.882 . S
C943 C937 1.428 . S
C943 O946 1.301 . S
C943 O947 1.282 . S
O944 U926 2.441 . S
O944 C930 1.249 . S
O945 U926 2.420 . S
O945 C930 1.202 . S
O946 U926 2.455 . S
O946 C943 1.301 . S
O947 U926 2.449 . S
O947 C943 1.282 . S
H948 C921 0.931 . S
H949 C923 0.929 . S
H950 C924 0.930 . S
H951 C925 0.931 . S
H952 C932 0.932 . S
H953 C933 0.930 . S
H954 C934 0.929 . S
H955 C936 0.930 . S
H956 C938 0.932 . S
H957 C939 0.929 . S
H958 C940 0.928 . S
H959 C942 0.932 . S
C960 C961 1.264 . S
C960 C965 1.479 . S
C960 C970 1.465 . S
C961 C960 1.264 . S
C961 C963 1.339 . S
C961 H988 0.931 . S
C962 C963 1.395 . S
C962 C964 1.320 . S
C963 C961 1.339 . S
C963 C962 1.395 . S
C963 H989 0.929 . S
C964 C962 1.320 . S
C964 C965 1.405 . S
C964 H990 0.930 . S
C965 C960 1.479 . S
C965 C964 1.405 . S
C965 H991 0.931 . S
U966 O967 2.454 . S
U966 O968 2.458 . S
U966 C969 2.984 . S
U966 C970 2.847 . S
U966 C983 2.882 . S
U966 O984 2.441 . S
U966 O985 2.420 . S
U966 O986 2.455 . S
U966 O987 2.449 . S
O967 U966 2.454 . S
O967 C969 1.353 . S
O968 U966 2.458 . S
O968 C969 1.286 . S
C969 U966 2.984 . S
C969 O967 1.353 . S
C969 O968 1.286 . S
C969 C971 1.363 . S
C970 C960 1.465 . S
C970 U966 2.847 . S
C970 O984 1.249 . S
C970 O985 1.202 . S
C971 C969 1.363 . S
C971 C973 1.408 . S
C971 C976 1.342 . S
C972 C973 1.310 . S
C972 C975 1.461 . S
C972 H992 0.932 . S
C973 C971 1.408 . S
C973 C972 1.310 . S
C973 H993 0.930 . S
C974 C975 1.474 . S
C974 C976 1.285 . S
C974 H994 0.929 . S
C975 C972 1.461 . S
C975 C974 1.474 . S
C976 C971 1.342 . S
C976 C974 1.285 . S
C976 H995 0.930 . S
C977 C980 1.424 . S
C977 C982 1.245 . S
C977 C983 1.428 . S
C978 C981 1.260 . S
C978 C982 1.477 . S
C978 H996 0.932 . S
C979 C980 1.384 . S
C979 C981 1.479 . S
C979 H997 0.929 . S
C980 C977 1.424 . S
C980 C979 1.384 . S
C980 H998 0.928 . S
C981 C978 1.260 . S
C981 C979 1.479 . S
C982 C977 1.245 . S
C982 C978 1.477 . S
C982 H999 0.932 . S
C983 U966 2.882 . S
C983 C977 1.428 . S
C983 O986 1.301 . S
C983 O987 1.282 . S
O984 U966 2.441 . S
O984 C970 1.249 . S
O985 U966 2.420 . S
O985 C970 1.202 . S
O986 U966 2.455 . S
O986 C983 1.301 . S
O987 U966 2.449 . S
O987 C983 1.282 . S
H988 C961 0.931 . S
H989 C963 0.929 . S
H990 C964 0.930 . S
H991 C965 0.931 . S
H992 C972 0.932 . S
H993 C973 0.930 . S
H994 C974 0.929 . S
H995 C976 0.930 . S
H996 C978 0.932 . S
H997 C979 0.929 . S
H998 C980 0.928 . S
H999 C982 0.932 . S
C1000 C1001 1.264 . S
C1000 C1005 1.479 . S
C1000 C1010 1.465 . S
C1001 C1000 1.264 . S
C1001 C1003 1.339 . S
C1001 H1028 0.931 . S
C1002 C1003 1.395 . S
C1002 C1004 1.320 . S
C1003 C1001 1.339 . S
C1003 C1002 1.395 . S
C1003 H1029 0.929 . S
C1004 C1002 1.320 . S
C1004 C1005 1.405 . S
C1004 H1030 0.930 . S
C1005 C1000 1.479 . S
C1005 C1004 1.405 . S
C1005 H1031 0.931 . S
U1006 O1007 2.454 . S
U1006 O1008 2.458 . S
U1006 C1009 2.984 . S
U1006 C1010 2.847 . S
U1006 C1023 2.882 . S
U1006 O1024 2.441 . S
U1006 O1025 2.420 . S
U1006 O1026 2.455 . S
U1006 O1027 2.449 . S
O1007 U1006 2.454 . S
O1007 C1009 1.353 . S
O1008 U1006 2.458 . S
O1008 C1009 1.286 . S
C1009 U1006 2.984 . S
C1009 O1007 1.353 . S
C1009 O1008 1.286 . S
C1009 C1011 1.363 . S
C1010 C1000 1.465 . S
C1010 U1006 2.847 . S
C1010 O1024 1.249 . S
C1010 O1025 1.202 . S
C1011 C1009 1.363 . S
C1011 C1013 1.408 . S
C1011 C1016 1.342 . S
C1012 C1013 1.310 . S
C1012 C1015 1.461 . S
C1012 H1032 0.932 . S
C1013 C1011 1.408 . S
C1013 C1012 1.310 . S
C1013 H1033 0.930 . S
C1014 C1015 1.474 . S
C1014 C1016 1.285 . S
C1014 H1034 0.929 . S
C1015 C1012 1.461 . S
C1015 C1014 1.474 . S
C1016 C1011 1.342 . S
C1016 C1014 1.285 . S
C1016 H1035 0.930 . S
C1017 C1020 1.424 . S
C1017 C1022 1.245 . S
C1017 C1023 1.428 . S
C1018 C1021 1.260 . S
C1018 C1022 1.477 . S
C1018 H1036 0.932 . S
C1019 C1020 1.384 . S
C1019 C1021 1.479 . S
C1019 H1037 0.929 . S
C1020 C1017 1.424 . S
C1020 C1019 1.384 . S
C1020 H1038 0.928 . S
C1021 C1018 1.260 . S
C1021 C1019 1.479 . S
C1022 C1017 1.245 . S
C1022 C1018 1.477 . S
C1022 H1039 0.932 . S
C1023 U1006 2.882 . S
C1023 C1017 1.428 . S
C1023 O1026 1.301 . S
C1023 O1027 1.282 . S
O1024 U1006 2.441 . S
O1024 C1010 1.249 . S
O1025 U1006 2.420 . S
O1025 C1010 1.202 . S
O1026 U1006 2.455 . S
O1026 C1023 1.301 . S
O1027 U1006 2.449 . S
O1027 C1023 1.282 . S
H1028 C1001 0.931 . S
H1029 C1003 0.929 . S
H1030 C1004 0.930 . S
H1031 C1005 0.931 . S
H1032 C1012 0.932 . S
H1033 C1013 0.930 . S
H1034 C1014 0.929 . S
H1035 C1016 0.930 . S
H1036 C1018 0.932 . S
H1037 C1019 0.929 . S
H1038 C1020 0.928 . S
H1039 C1022 0.932 . S
C1040 C1041 1.264 . S
C1040 C1045 1.479 . S
C1040 C1050 1.465 . S
C1041 C1040 1.264 . S
C1041 C1043 1.339 . S
C1041 H1068 0.931 . S
C1042 C1043 1.395 . S
C1042 C1044 1.320 . S
C1043 C1041 1.339 . S
C1043 C1042 1.395 . S
C1043 H1069 0.929 . S
C1044 C1042 1.320 . S
C1044 C1045 1.405 . S
C1044 H1070 0.930 . S
C1045 C1040 1.479 . S
C1045 C1044 1.405 . S
C1045 H1071 0.931 . S
U1046 O1047 2.454 . S
U1046 O1048 2.458 . S
U1046 C1049 2.984 . S
U1046 C1050 2.847 . S
U1046 C1063 2.882 . S
U1046 O1064 2.441 . S
U1046 O1065 2.420 . S
U1046 O1066 2.455 . S
U1046 O1067 2.449 . S
O1047 U1046 2.454 . S
O1047 C1049 1.353 . S
O1048 U1046 2.458 . S
O1048 C1049 1.286 . S
C1049 U1046 2.984 . S
C1049 O1047 1.353 . S
C1049 O1048 1.286 . S
C1049 C1051 1.363 . S
C1050 C1040 1.465 . S
C1050 U1046 2.847 . S
C1050 O1064 1.249 . S
C1050 O1065 1.202 . S
C1051 C1049 1.363 . S
C1051 C1053 1.408 . S
C1051 C1056 1.342 . S
C1052 C1053 1.310 . S
C1052 C1055 1.461 . S
C1052 H1072 0.932 . S
C1053 C1051 1.408 . S
C1053 C1052 1.310 . S
C1053 H1073 0.930 . S
C1054 C1055 1.474 . S
C1054 C1056 1.285 . S
C1054 H1074 0.929 . S
C1055 C1052 1.461 . S
C1055 C1054 1.474 . S
C1056 C1051 1.342 . S
C1056 C1054 1.285 . S
C1056 H1075 0.930 . S
C1057 C1060 1.424 . S
C1057 C1062 1.245 . S
C1057 C1063 1.428 . S
C1058 C1061 1.260 . S
C1058 C1062 1.477 . S
C1058 H1076 0.932 . S
C1059 C1060 1.384 . S
C1059 C1061 1.479 . S
C1059 H1077 0.929 . S
C1060 C1057 1.424 . S
C1060 C1059 1.384 . S
C1060 H1078 0.928 . S
C1061 C1058 1.260 . S
C1061 C1059 1.479 . S
C1062 C1057 1.245 . S
C1062 C1058 1.477 . S
C1062 H1079 0.932 . S
C1063 U1046 2.882 . S
C1063 C1057 1.428 . S
C1063 O1066 1.301 . S
C1063 O1067 1.282 . S
O1064 U1046 2.441 . S
O1064 C1050 1.249 . S
O1065 U1046 2.420 . S
O1065 C1050 1.202 . S
O1066 U1046 2.455 . S
O1066 C1063 1.301 . S
O1067 U1046 2.449 . S
O1067 C1063 1.282 . S
H1068 C1041 0.931 . S
H1069 C1043 0.929 . S
H1070 C1044 0.930 . S
H1071 C1045 0.931 . S
H1072 C1052 0.932 . S
H1073 C1053 0.930 . S
H1074 C1054 0.929 . S
H1075 C1056 0.930 . S
H1076 C1058 0.932 . S
H1077 C1059 0.929 . S
H1078 C1060 0.928 . S
H1079 C1062 0.932 . S
C1080 C1081 1.264 . S
C1080 C1085 1.479 . S
C1080 C1090 1.465 . S
C1081 C1080 1.264 . S
C1081 C1083 1.339 . S
C1081 H1108 0.931 . S
C1082 C1083 1.395 . S
C1082 C1084 1.320 . S
C1083 C1081 1.339 . S
C1083 C1082 1.395 . S
C1083 H1109 0.929 . S
C1084 C1082 1.320 . S
C1084 C1085 1.405 . S
C1084 H1110 0.930 . S
C1085 C1080 1.479 . S
C1085 C1084 1.405 . S
C1085 H1111 0.931 . S
U1086 O1087 2.454 . S
U1086 O1088 2.458 . S
U1086 C1089 2.984 . S
U1086 C1090 2.847 . S
U1086 C1103 2.882 . S
U1086 O1104 2.441 . S
U1086 O1105 2.420 . S
U1086 O1106 2.455 . S
U1086 O1107 2.449 . S
O1087 U1086 2.454 . S
O1087 C1089 1.353 . S
O1088 U1086 2.458 . S
O1088 C1089 1.286 . S
C1089 U1086 2.984 . S
C1089 O1087 1.353 . S
C1089 O1088 1.286 . S
C1089 C1091 1.363 . S
C1090 C1080 1.465 . S
C1090 U1086 2.847 . S
C1090 O1104 1.249 . S
C1090 O1105 1.202 . S
C1091 C1089 1.363 . S
C1091 C1093 1.408 . S
C1091 C1096 1.342 . S
C1092 C1093 1.310 . S
C1092 C1095 1.461 . S
C1092 H1112 0.932 . S
C1093 C1091 1.408 . S
C1093 C1092 1.310 . S
C1093 H1113 0.930 . S
C1094 C1095 1.474 . S
C1094 C1096 1.285 . S
C1094 H1114 0.929 . S
C1095 C1092 1.461 . S
C1095 C1094 1.474 . S
C1096 C1091 1.342 . S
C1096 C1094 1.285 . S
C1096 H1115 0.930 . S
C1097 C1100 1.424 . S
C1097 C1102 1.245 . S
C1097 C1103 1.428 . S
C1098 C1101 1.260 . S
C1098 C1102 1.477 . S
C1098 H1116 0.932 . S
C1099 C1100 1.384 . S
C1099 C1101 1.479 . S
C1099 H1117 0.929 . S
C1100 C1097 1.424 . S
C1100 C1099 1.384 . S
C1100 H1118 0.928 . S
C1101 C1098 1.260 . S
C1101 C1099 1.479 . S
C1102 C1097 1.245 . S
C1102 C1098 1.477 . S
C1102 H1119 0.932 . S
C1103 U1086 2.882 . S
C1103 C1097 1.428 . S
C1103 O1106 1.301 . S
C1103 O1107 1.282 . S
O1104 U1086 2.441 . S
O1104 C1090 1.249 . S
O1105 U1086 2.420 . S
O1105 C1090 1.202 . S
O1106 U1086 2.455 . S
O1106 C1103 1.301 . S
O1107 U1086 2.449 . S
O1107 C1103 1.282 . S
H1108 C1081 0.931 . S
H1109 C1083 0.929 . S
H1110 C1084 0.930 . S
H1111 C1085 0.931 . S
H1112 C1092 0.932 . S
H1113 C1093 0.930 . S
H1114 C1094 0.929 . S
H1115 C1096 0.930 . S
H1116 C1098 0.932 . S
H1117 C1099 0.929 . S
H1118 C1100 0.928 . S
H1119 C1102 0.932 . S
C1120 C1121 1.264 . S
C1120 C1125 1.479 . S
C1120 C1130 1.465 . S
C1121 C1120 1.264 . S
C1121 C1123 1.339 . S
C1121 H1148 0.931 . S
C1122 C1123 1.395 . S
C1122 C1124 1.320 . S
C1123 C1121 1.339 . S
C1123 C1122 1.395 . S
C1123 H1149 0.929 . S
C1124 C1122 1.320 . S
C1124 C1125 1.405 . S
C1124 H1150 0.930 . S
C1125 C1120 1.479 . S
C1125 C1124 1.405 . S
C1125 H1151 0.931 . S
U1126 O1127 2.454 . S
U1126 O1128 2.458 . S
U1126 C1129 2.984 . S
U1126 C1130 2.847 . S
U1126 C1143 2.882 . S
U1126 O1144 2.441 . S
U1126 O1145 2.420 . S
U1126 O1146 2.455 . S
U1126 O1147 2.449 . S
O1127 U1126 2.454 . S
O1127 C1129 1.353 . S
O1128 U1126 2.458 . S
O1128 C1129 1.286 . S
C1129 U1126 2.984 . S
C1129 O1127 1.353 . S
C1129 O1128 1.286 . S
C1129 C1131 1.363 . S
C1130 C1120 1.465 . S
C1130 U1126 2.847 . S
C1130 O1144 1.249 . S
C1130 O1145 1.202 . S
C1131 C1129 1.363 . S
C1131 C1133 1.408 . S
C1131 C1136 1.342 . S
C1132 C1133 1.310 . S
C1132 C1135 1.461 . S
C1132 H1152 0.932 . S
C1133 C1131 1.408 . S
C1133 C1132 1.310 . S
C1133 H1153 0.930 . S
C1134 C1135 1.474 . S
C1134 C1136 1.285 . S
C1134 H1154 0.929 . S
C1135 C1132 1.461 . S
C1135 C1134 1.474 . S
C1136 C1131 1.342 . S
C1136 C1134 1.285 . S
C1136 H1155 0.930 . S
C1137 C1140 1.424 . S
C1137 C1142 1.245 . S
C1137 C1143 1.428 . S
C1138 C1141 1.260 . S
C1138 C1142 1.477 . S
C1138 H1156 0.932 . S
C1139 C1140 1.384 . S
C1139 C1141 1.479 . S
C1139 H1157 0.929 . S
C1140 C1137 1.424 . S
C1140 C1139 1.384 . S
C1140 H1158 0.928 . S
C1141 C1138 1.260 . S
C1141 C1139 1.479 . S
C1142 C1137 1.245 . S
C1142 C1138 1.477 . S
C1142 H1159 0.932 . S
C1143 U1126 2.882 . S
C1143 C1137 1.428 . S
C1143 O1146 1.301 . S
C1143 O1147 1.282 . S
O1144 U1126 2.441 . S
O1144 C1130 1.249 . S
O1145 U1126 2.420 . S
O1145 C1130 1.202 . S
O1146 U1126 2.455 . S
O1146 C1143 1.301 . S
O1147 U1126 2.449 . S
O1147 C1143 1.282 . S
H1148 C1121 0.931 . S
H1149 C1123 0.929 . S
H1150 C1124 0.930 . S
H1151 C1125 0.931 . S
H1152 C1132 0.932 . S
H1153 C1133 0.930 . S
H1154 C1134 0.929 . S
H1155 C1136 0.930 . S
H1156 C1138 0.932 . S
H1157 C1139 0.929 . S
H1158 C1140 0.928 . S
H1159 C1142 0.932 . S
C1160 C1161 1.264 . S
C1160 C1165 1.479 . S
C1160 C1170 1.465 . S
C1161 C1160 1.264 . S
C1161 C1163 1.339 . S
C1161 H1188 0.931 . S
C1162 C1163 1.395 . S
C1162 C1164 1.320 . S
C1163 C1161 1.339 . S
C1163 C1162 1.395 . S
C1163 H1189 0.929 . S
C1164 C1162 1.320 . S
C1164 C1165 1.405 . S
C1164 H1190 0.930 . S
C1165 C1160 1.479 . S
C1165 C1164 1.405 . S
C1165 H1191 0.931 . S
U1166 O1167 2.454 . S
U1166 O1168 2.458 . S
U1166 C1169 2.984 . S
U1166 C1170 2.847 . S
U1166 C1183 2.882 . S
U1166 O1184 2.441 . S
U1166 O1185 2.420 . S
U1166 O1186 2.455 . S
U1166 O1187 2.449 . S
O1167 U1166 2.454 . S
O1167 C1169 1.353 . S
O1168 U1166 2.458 . S
O1168 C1169 1.286 . S
C1169 U1166 2.984 . S
C1169 O1167 1.353 . S
C1169 O1168 1.286 . S
C1169 C1171 1.363 . S
C1170 C1160 1.465 . S
C1170 U1166 2.847 . S
C1170 O1184 1.249 . S
C1170 O1185 1.202 . S
C1171 C1169 1.363 . S
C1171 C1173 1.408 . S
C1171 C1176 1.342 . S
C1172 C1173 1.310 . S
C1172 C1175 1.461 . S
C1172 H1192 0.932 . S
C1173 C1171 1.408 . S
C1173 C1172 1.310 . S
C1173 H1193 0.930 . S
C1174 C1175 1.474 . S
C1174 C1176 1.285 . S
C1174 H1194 0.929 . S
C1175 C1172 1.461 . S
C1175 C1174 1.474 . S
C1176 C1171 1.342 . S
C1176 C1174 1.285 . S
C1176 H1195 0.930 . S
C1177 C1180 1.424 . S
C1177 C1182 1.245 . S
C1177 C1183 1.428 . S
C1178 C1181 1.260 . S
C1178 C1182 1.477 . S
C1178 H1196 0.932 . S
C1179 C1180 1.384 . S
C1179 C1181 1.479 . S
C1179 H1197 0.929 . S
C1180 C1177 1.424 . S
C1180 C1179 1.384 . S
C1180 H1198 0.928 . S
C1181 C1178 1.260 . S
C1181 C1179 1.479 . S
C1182 C1177 1.245 . S
C1182 C1178 1.477 . S
C1182 H1199 0.932 . S
C1183 U1166 2.882 . S
C1183 C1177 1.428 . S
C1183 O1186 1.301 . S
C1183 O1187 1.282 . S
O1184 U1166 2.441 . S
O1184 C1170 1.249 . S
O1185 U1166 2.420 . S
O1185 C1170 1.202 . S
O1186 U1166 2.455 . S
O1186 C1183 1.301 . S
O1187 U1166 2.449 . S
O1187 C1183 1.282 . S
H1188 C1161 0.931 . S
H1189 C1163 0.929 . S
H1190 C1164 0.930 . S
H1191 C1165 0.931 . S
H1192 C1172 0.932 . S
H1193 C1173 0.930 . S
H1194 C1174 0.929 . S
H1195 C1176 0.930 . S
H1196 C1178 0.932 . S
H1197 C1179 0.929 . S
H1198 C1180 0.928 . S
H1199 C1182 0.932 . S
C1200 C1201 1.264 . S
C1200 C1205 1.479 . S
C1200 C1210 1.465 . S
C1201 C1200 1.264 . S
C1201 C1203 1.339 . S
C1201 H1228 0.931 . S
C1202 C1203 1.395 . S
C1202 C1204 1.320 . S
C1203 C1201 1.339 . S
C1203 C1202 1.395 . S
C1203 H1229 0.929 . S
C1204 C1202 1.320 . S
C1204 C1205 1.405 . S
C1204 H1230 0.930 . S
C1205 C1200 1.479 . S
C1205 C1204 1.405 . S
C1205 H1231 0.931 . S
U1206 O1207 2.454 . S
U1206 O1208 2.458 . S
U1206 C1209 2.984 . S
U1206 C1210 2.847 . S
U1206 C1223 2.882 . S
U1206 O1224 2.441 . S
U1206 O1225 2.420 . S
U1206 O1226 2.455 . S
U1206 O1227 2.449 . S
O1207 U1206 2.454 . S
O1207 C1209 1.353 . S
O1208 U1206 2.458 . S
O1208 C1209 1.286 . S
C1209 U1206 2.984 . S
C1209 O1207 1.353 . S
C1209 O1208 1.286 . S
C1209 C1211 1.363 . S
C1210 C1200 1.465 . S
C1210 U1206 2.847 . S
C1210 O1224 1.249 . S
C1210 O1225 1.202 . S
C1211 C1209 1.363 . S
C1211 C1213 1.408 . S
C1211 C1216 1.342 . S
C1212 C1213 1.310 . S
C1212 C1215 1.461 . S
C1212 H1232 0.932 . S
C1213 C1211 1.408 . S
C1213 C1212 1.310 . S
C1213 H1233 0.930 . S
C1214 C1215 1.474 . S
C1214 C1216 1.285 . S
C1214 H1234 0.929 . S
C1215 C1212 1.461 . S
C1215 C1214 1.474 . S
C1216 C1211 1.342 . S
C1216 C1214 1.285 . S
C1216 H1235 0.930 . S
C1217 C1220 1.424 . S
C1217 C1222 1.245 . S
C1217 C1223 1.428 . S
C1218 C1221 1.260 . S
C1218 C1222 1.477 . S
C1218 H1236 0.932 . S
C1219 C1220 1.384 . S
C1219 C1221 1.479 . S
C1219 H1237 0.929 . S
C1220 C1217 1.424 . S
C1220 C1219 1.384 . S
C1220 H1238 0.928 . S
C1221 C1218 1.260 . S
C1221 C1219 1.479 . S
C1222 C1217 1.245 . S
C1222 C1218 1.477 . S
C1222 H1239 0.932 . S
C1223 U1206 2.882 . S
C1223 C1217 1.428 . S
C1223 O1226 1.301 . S
C1223 O1227 1.282 . S
O1224 U1206 2.441 . S
O1224 C1210 1.249 . S
O1225 U1206 2.420 . S
O1225 C1210 1.202 . S
O1226 U1206 2.455 . S
O1226 C1223 1.301 . S
O1227 U1206 2.449 . S
O1227 C1223 1.282 . S
H1228 C1201 0.931 . S
H1229 C1203 0.929 . S
H1230 C1204 0.930 . S
H1231 C1205 0.931 . S
H1232 C1212 0.932 . S
H1233 C1213 0.930 . S
H1234 C1214 0.929 . S
H1235 C1216 0.930 . S
H1236 C1218 0.932 . S
H1237 C1219 0.929 . S
H1238 C1220 0.928 . S
H1239 C1222 0.932 . S
C1240 C1241 1.264 . S
C1240 C1245 1.479 . S
C1240 C1250 1.465 . S
C1241 C1240 1.264 . S
C1241 C1243 1.339 . S
C1241 H1268 0.931 . S
C1242 C1243 1.395 . S
C1242 C1244 1.320 . S
C1243 C1241 1.339 . S
C1243 C1242 1.395 . S
C1243 H1269 0.929 . S
C1244 C1242 1.320 . S
C1244 C1245 1.405 . S
C1244 H1270 0.930 . S
C1245 C1240 1.479 . S
C1245 C1244 1.405 . S
C1245 H1271 0.931 . S
U1246 O1247 2.454 . S
U1246 O1248 2.458 . S
U1246 C1249 2.984 . S
U1246 C1250 2.847 . S
U1246 C1263 2.882 . S
U1246 O1264 2.441 . S
U1246 O1265 2.420 . S
U1246 O1266 2.455 . S
U1246 O1267 2.449 . S
O1247 U1246 2.454 . S
O1247 C1249 1.353 . S
O1248 U1246 2.458 . S
O1248 C1249 1.286 . S
C1249 U1246 2.984 . S
C1249 O1247 1.353 . S
C1249 O1248 1.286 . S
C1249 C1251 1.363 . S
C1250 C1240 1.465 . S
C1250 U1246 2.847 . S
C1250 O1264 1.249 . S
C1250 O1265 1.202 . S
C1251 C1249 1.363 . S
C1251 C1253 1.408 . S
C1251 C1256 1.342 . S
C1252 C1253 1.310 . S
C1252 C1255 1.461 . S
C1252 H1272 0.932 . S
C1253 C1251 1.408 . S
C1253 C1252 1.310 . S
C1253 H1273 0.930 . S
C1254 C1255 1.474 . S
C1254 C1256 1.285 . S
C1254 H1274 0.929 . S
C1255 C1252 1.461 . S
C1255 C1254 1.474 . S
C1256 C1251 1.342 . S
C1256 C1254 1.285 . S
C1256 H1275 0.930 . S
C1257 C1260 1.424 . S
C1257 C1262 1.245 . S
C1257 C1263 1.428 . S
C1258 C1261 1.260 . S
C1258 C1262 1.477 . S
C1258 H1276 0.932 . S
C1259 C1260 1.384 . S
C1259 C1261 1.479 . S
C1259 H1277 0.929 . S
C1260 C1257 1.424 . S
C1260 C1259 1.384 . S
C1260 H1278 0.928 . S
C1261 C1258 1.260 . S
C1261 C1259 1.479 . S
C1262 C1257 1.245 . S
C1262 C1258 1.477 . S
C1262 H1279 0.932 . S
C1263 U1246 2.882 . S
C1263 C1257 1.428 . S
C1263 O1266 1.301 . S
C1263 O1267 1.282 . S
O1264 U1246 2.441 . S
O1264 C1250 1.249 . S
O1265 U1246 2.420 . S
O1265 C1250 1.202 . S
O1266 U1246 2.455 . S
O1266 C1263 1.301 . S
O1267 U1246 2.449 . S
O1267 C1263 1.282 . S
H1268 C1241 0.931 . S
H1269 C1243 0.929 . S
H1270 C1244 0.930 . S
H1271 C1245 0.931 . S
H1272 C1252 0.932 . S
H1273 C1253 0.930 . S
H1274 C1254 0.929 . S
H1275 C1256 0.930 . S
H1276 C1258 0.932 . S
H1277 C1259 0.929 . S
H1278 C1260 0.928 . S
H1279 C1262 0.932 . S
C1280 C1281 1.264 . S
C1280 C1285 1.479 . S
C1280 C1290 1.465 . S
C1281 C1280 1.264 . S
C1281 C1283 1.339 . S
C1281 H1308 0.931 . S
C1282 C1283 1.395 . S
C1282 C1284 1.320 . S
C1283 C1281 1.339 . S
C1283 C1282 1.395 . S
C1283 H1309 0.929 . S
C1284 C1282 1.320 . S
C1284 C1285 1.405 . S
C1284 H1310 0.930 . S
C1285 C1280 1.479 . S
C1285 C1284 1.405 . S
C1285 H1311 0.931 . S
U1286 O1287 2.454 . S
U1286 O1288 2.458 . S
U1286 C1289 2.984 . S
U1286 C1290 2.847 . S
U1286 C1303 2.882 . S
U1286 O1304 2.441 . S
U1286 O1305 2.420 . S
U1286 O1306 2.455 . S
U1286 O1307 2.449 . S
O1287 U1286 2.454 . S
O1287 C1289 1.353 . S
O1288 U1286 2.458 . S
O1288 C1289 1.286 . S
C1289 U1286 2.984 . S
C1289 O1287 1.353 . S
C1289 O1288 1.286 . S
C1289 C1291 1.363 . S
C1290 C1280 1.465 . S
C1290 U1286 2.847 . S
C1290 O1304 1.249 . S
C1290 O1305 1.202 . S
C1291 C1289 1.363 . S
C1291 C1293 1.408 . S
C1291 C1296 1.342 . S
C1292 C1293 1.310 . S
C1292 C1295 1.461 . S
C1292 H1312 0.932 . S
C1293 C1291 1.408 . S
C1293 C1292 1.310 . S
C1293 H1313 0.930 . S
C1294 C1295 1.474 . S
C1294 C1296 1.285 . S
C1294 H1314 0.929 . S
C1295 C1292 1.461 . S
C1295 C1294 1.474 . S
C1296 C1291 1.342 . S
C1296 C1294 1.285 . S
C1296 H1315 0.930 . S
C1297 C1300 1.424 . S
C1297 C1302 1.245 . S
C1297 C1303 1.428 . S
C1298 C1301 1.260 . S
C1298 C1302 1.477 . S
C1298 H1316 0.932 . S
C1299 C1300 1.384 . S
C1299 C1301 1.479 . S
C1299 H1317 0.929 . S
C1300 C1297 1.424 . S
C1300 C1299 1.384 . S
C1300 H1318 0.928 . S
C1301 C1298 1.260 . S
C1301 C1299 1.479 . S
C1302 C1297 1.245 . S
C1302 C1298 1.477 . S
C1302 H1319 0.932 . S
C1303 U1286 2.882 . S
C1303 C1297 1.428 . S
C1303 O1306 1.301 . S
C1303 O1307 1.282 . S
O1304 U1286 2.441 . S
O1304 C1290 1.249 . S
O1305 U1286 2.420 . S
O1305 C1290 1.202 . S
O1306 U1286 2.455 . S
O1306 C1303 1.301 . S
O1307 U1286 2.449 . S
O1307 C1303 1.282 . S
H1308 C1281 0.931 . S
H1309 C1283 0.929 . S
H1310 C1284 0.930 . S
H1311 C1285 0.931 . S
H1312 C1292 0.932 . S
H1313 C1293 0.930 . S
H1314 C1294 0.929 . S
H1315 C1296 0.930 . S
H1316 C1298 0.932 . S
H1317 C1299 0.929 . S
H1318 C1300 0.928 . S
H1319 C1302 0.932 . S
C1320 C1321 1.264 . S
C1320 C1325 1.479 . S
C1320 C1330 1.465 . S
C1321 C1320 1.264 . S
C1321 C1323 1.339 . S
C1321 H1348 0.931 . S
C1322 C1323 1.395 . S
C1322 C1324 1.320 . S
C1323 C1321 1.339 . S
C1323 C1322 1.395 . S
C1323 H1349 0.929 . S
C1324 C1322 1.320 . S
C1324 C1325 1.405 . S
C1324 H1350 0.930 . S
C1325 C1320 1.479 . S
C1325 C1324 1.405 . S
C1325 H1351 0.931 . S
U1326 O1327 2.454 . S
U1326 O1328 2.458 . S
U1326 C1329 2.984 . S
U1326 C1330 2.847 . S
U1326 C1343 2.882 . S
U1326 O1344 2.441 . S
U1326 O1345 2.420 . S
U1326 O1346 2.455 . S
U1326 O1347 2.449 . S
O1327 U1326 2.454 . S
O1327 C1329 1.353 . S
O1328 U1326 2.458 . S
O1328 C1329 1.286 . S
C1329 U1326 2.984 . S
C1329 O1327 1.353 . S
C1329 O1328 1.286 . S
C1329 C1331 1.363 . S
C1330 C1320 1.465 . S
C1330 U1326 2.847 . S
C1330 O1344 1.249 . S
C1330 O1345 1.202 . S
C1331 C1329 1.363 . S
C1331 C1333 1.408 . S
C1331 C1336 1.342 . S
C1332 C1333 1.310 . S
C1332 C1335 1.461 . S
C1332 H1352 0.932 . S
C1333 C1331 1.408 . S
C1333 C1332 1.310 . S
C1333 H1353 0.930 . S
C1334 C1335 1.474 . S
C1334 C1336 1.285 . S
C1334 H1354 0.929 . S
C1335 C1332 1.461 . S
C1335 C1334 1.474 . S
C1336 C1331 1.342 . S
C1336 C1334 1.285 . S
C1336 H1355 0.930 . S
C1337 C1340 1.424 . S
C1337 C1342 1.245 . S
C1337 C1343 1.428 . S
C1338 C1341 1.260 . S
C1338 C1342 1.477 . S
C1338 H1356 0.932 . S
C1339 C1340 1.384 . S
C1339 C1341 1.479 . S
C1339 H1357 0.929 . S
C1340 C1337 1.424 . S
C1340 C1339 1.384 . S
C1340 H1358 0.928 . S
C1341 C1338 1.260 . S
C1341 C1339 1.479 . S
C1342 C1337 1.245 . S
C1342 C1338 1.477 . S
C1342 H1359 0.932 . S
C1343 U1326 2.882 . S
C1343 C1337 1.428 . S
C1343 O1346 1.301 . S
C1343 O1347 1.282 . S
O1344 U1326 2.441 . S
O1344 C1330 1.249 . S
O1345 U1326 2.420 . S
O1345 C1330 1.202 . S
O1346 U1326 2.455 . S
O1346 C1343 1.301 . S
O1347 U1326 2.449 . S
O1347 C1343 1.282 . S
H1348 C1321 0.931 . S
H1349 C1323 0.929 . S
H1350 C1324 0.930 . S
H1351 C1325 0.931 . S
H1352 C1332 0.932 . S
H1353 C1333 0.930 . S
H1354 C1334 0.929 . S
H1355 C1336 0.930 . S
H1356 C1338 0.932 . S
H1357 C1339 0.929 . S
H1358 C1340 0.928 . S
H1359 C1342 0.932 . S
C1360 C1361 1.264 . S
C1360 C1365 1.479 . S
C1360 C1370 1.465 . S
C1361 C1360 1.264 . S
C1361 C1363 1.339 . S
C1361 H1388 0.931 . S
C1362 C1363 1.395 . S
C1362 C1364 1.320 . S
C1363 C1361 1.339 . S
C1363 C1362 1.395 . S
C1363 H1389 0.929 . S
C1364 C1362 1.320 . S
C1364 C1365 1.405 . S
C1364 H1390 0.930 . S
C1365 C1360 1.479 . S
C1365 C1364 1.405 . S
C1365 H1391 0.931 . S
U1366 O1367 2.454 . S
U1366 O1368 2.458 . S
U1366 C1369 2.984 . S
U1366 C1370 2.847 . S
U1366 C1383 2.882 . S
U1366 O1384 2.441 . S
U1366 O1385 2.420 . S
U1366 O1386 2.455 . S
U1366 O1387 2.449 . S
O1367 U1366 2.454 . S
O1367 C1369 1.353 . S
O1368 U1366 2.458 . S
O1368 C1369 1.286 . S
C1369 U1366 2.984 . S
C1369 O1367 1.353 . S
C1369 O1368 1.286 . S
C1369 C1371 1.363 . S
C1370 C1360 1.465 . S
C1370 U1366 2.847 . S
C1370 O1384 1.249 . S
C1370 O1385 1.202 . S
C1371 C1369 1.363 . S
C1371 C1373 1.408 . S
C1371 C1376 1.342 . S
C1372 C1373 1.310 . S
C1372 C1375 1.461 . S
C1372 H1392 0.932 . S
C1373 C1371 1.408 . S
C1373 C1372 1.310 . S
C1373 H1393 0.930 . S
C1374 C1375 1.474 . S
C1374 C1376 1.285 . S
C1374 H1394 0.929 . S
C1375 C1372 1.461 . S
C1375 C1374 1.474 . S
C1376 C1371 1.342 . S
C1376 C1374 1.285 . S
C1376 H1395 0.930 . S
C1377 C1380 1.424 . S
C1377 C1382 1.245 . S
C1377 C1383 1.428 . S
C1378 C1381 1.260 . S
C1378 C1382 1.477 . S
C1378 H1396 0.932 . S
C1379 C1380 1.384 . S
C1379 C1381 1.479 . S
C1379 H1397 0.929 . S
C1380 C1377 1.424 . S
C1380 C1379 1.384 . S
C1380 H1398 0.928 . S
C1381 C1378 1.260 . S
C1381 C1379 1.479 . S
C1382 C1377 1.245 . S
C1382 C1378 1.477 . S
C1382 H1399 0.932 . S
C1383 U1366 2.882 . S
C1383 C1377 1.428 . S
C1383 O1386 1.301 . S
C1383 O1387 1.282 . S
O1384 U1366 2.441 . S
O1384 C1370 1.249 . S
O1385 U1366 2.420 . S
O1385 C1370 1.202 . S
O1386 U1366 2.455 . S
O1386 C1383 1.301 . S
O1387 U1366 2.449 . S
O1387 C1383 1.282 . S
H1388 C1361 0.931 . S
H1389 C1363 0.929 . S
H1390 C1364 0.930 . S
H1391 C1365 0.931 . S
H1392 C1372 0.932 . S
H1393 C1373 0.930 . S
H1394 C1374 0.929 . S
H1395 C1376 0.930 . S
H1396 C1378 0.932 . S
H1397 C1379 0.929 . S
H1398 C1380 0.928 . S
H1399 C1382 0.932 . S
C1400 C1401 1.264 . S
C1400 C1405 1.479 . S
C1400 C1410 1.465 . S
C1401 C1400 1.264 . S
C1401 C1403 1.339 . S
C1401 H1428 0.931 . S
C1402 C1403 1.395 . S
C1402 C1404 1.320 . S
C1403 C1401 1.339 . S
C1403 C1402 1.395 . S
C1403 H1429 0.929 . S
C1404 C1402 1.320 . S
C1404 C1405 1.405 . S
C1404 H1430 0.930 . S
C1405 C1400 1.479 . S
C1405 C1404 1.405 . S
C1405 H1431 0.931 . S
U1406 O1407 2.454 . S
U1406 O1408 2.458 . S
U1406 C1409 2.984 . S
U1406 C1410 2.847 . S
U1406 C1423 2.882 . S
U1406 O1424 2.441 . S
U1406 O1425 2.420 . S
U1406 O1426 2.455 . S
U1406 O1427 2.449 . S
O1407 U1406 2.454 . S
O1407 C1409 1.353 . S
O1408 U1406 2.458 . S
O1408 C1409 1.286 . S
C1409 U1406 2.984 . S
C1409 O1407 1.353 . S
C1409 O1408 1.286 . S
C1409 C1411 1.363 . S
C1410 C1400 1.465 . S
C1410 U1406 2.847 . S
C1410 O1424 1.249 . S
C1410 O1425 1.202 . S
C1411 C1409 1.363 . S
C1411 C1413 1.408 . S
C1411 C1416 1.342 . S
C1412 C1413 1.310 . S
C1412 C1415 1.461 . S
C1412 H1432 0.932 . S
C1413 C1411 1.408 . S
C1413 C1412 1.310 . S
C1413 H1433 0.930 . S
C1414 C1415 1.474 . S
C1414 C1416 1.285 . S
C1414 H1434 0.929 . S
C1415 C1412 1.461 . S
C1415 C1414 1.474 . S
C1416 C1411 1.342 . S
C1416 C1414 1.285 . S
C1416 H1435 0.930 . S
C1417 C1420 1.424 . S
C1417 C1422 1.245 . S
C1417 C1423 1.428 . S
C1418 C1421 1.260 . S
C1418 C1422 1.477 . S
C1418 H1436 0.932 . S
C1419 C1420 1.384 . S
C1419 C1421 1.479 . S
C1419 H1437 0.929 . S
C1420 C1417 1.424 . S
C1420 C1419 1.384 . S
C1420 H1438 0.928 . S
C1421 C1418 1.260 . S
C1421 C1419 1.479 . S
C1422 C1417 1.245 . S
C1422 C1418 1.477 . S
C1422 H1439 0.932 . S
C1423 U1406 2.882 . S
C1423 C1417 1.428 . S
C1423 O1426 1.301 . S
C1423 O1427 1.282 . S
O1424 U1406 2.441 . S
O1424 C1410 1.249 . S
O1425 U1406 2.420 . S
O1425 C1410 1.202 . S
O1426 U1406 2.455 . S
O1426 C1423 1.301 . S
O1427 U1406 2.449 . S
O1427 C1423 1.282 . S
H1428 C1401 0.931 . S
H1429 C1403 0.929 . S
H1430 C1404 0.930 . S
H1431 C1405 0.931 . S
H1432 C1412 0.932 . S
H1433 C1413 0.930 . S
H1434 C1414 0.929 . S
H1435 C1416 0.930 . S
H1436 C1418 0.932 . S
H1437 C1419 0.929 . S
H1438 C1420 0.928 . S
H1439 C1422 0.932 . S
C1440 C1441 1.264 . S
C1440 C1445 1.479 . S
C1440 C1450 1.465 . S
C1441 C1440 1.264 . S
C1441 C1443 1.339 . S
C1441 H1468 0.931 . S
C1442 C1443 1.395 . S
C1442 C1444 1.320 . S
C1443 C1441 1.339 . S
C1443 C1442 1.395 . S
C1443 H1469 0.929 . S
C1444 C1442 1.320 . S
C1444 C1445 1.405 . S
C1444 H1470 0.930 . S
C1445 C1440 1.479 . S
C1445 C1444 1.405 . S
C1445 H1471 0.931 . S
U1446 O1447 2.454 . S
U1446 O1448 2.458 . S
U1446 C1449 2.984 . S
U1446 C1450 2.847 . S
U1446 C1463 2.882 . S
U1446 O1464 2.441 . S
U1446 O1465 2.420 . S
U1446 O1466 2.455 . S
U1446 O1467 2.449 . S
O1447 U1446 2.454 . S
O1447 C1449 1.353 . S
O1448 U1446 2.458 . S
O1448 C1449 1.286 . S
C1449 U1446 2.984 . S
C1449 O1447 1.353 . S
C1449 O1448 1.286 . S
C1449 C1451 1.363 . S
C1450 C1440 1.465 . S
C1450 U1446 2.847 . S
C1450 O1464 1.249 . S
C1450 O1465 1.202 . S
C1451 C1449 1.363 . S
C1451 C1453 1.408 . S
C1451 C1456 1.342 . S
C1452 C1453 1.310 . S
C1452 C1455 1.461 . S
C1452 H1472 0.932 . S
C1453 C1451 1.408 . S
C1453 C1452 1.310 . S
C1453 H1473 0.930 . S
C1454 C1455 1.474 . S
C1454 C1456 1.285 . S
C1454 H1474 0.929 . S
C1455 C1452 1.461 . S
C1455 C1454 1.474 . S
C1456 C1451 1.342 . S
C1456 C1454 1.285 . S
C1456 H1475 0.930 . S
C1457 C1460 1.424 . S
C1457 C1462 1.245 . S
C1457 C1463 1.428 . S
C1458 C1461 1.260 . S
C1458 C1462 1.477 . S
C1458 H1476 0.932 . S
C1459 C1460 1.384 . S
C1459 C1461 1.479 . S
C1459 H1477 0.929 . S
C1460 C1457 1.424 . S
C1460 C1459 1.384 . S
C1460 H1478 0.928 . S
C1461 C1458 1.260 . S
C1461 C1459 1.479 . S
C1462 C1457 1.245 . S
C1462 C1458 1.477 . S
C1462 H1479 0.932 . S
C1463 U1446 2.882 . S
C1463 C1457 1.428 . S
C1463 O1466 1.301 . S
C1463 O1467 1.282 . S
O1464 U1446 2.441 . S
O1464 C1450 1.249 . S
O1465 U1446 2.420 . S
O1465 C1450 1.202 . S
O1466 U1446 2.455 . S
O1466 C1463 1.301 . S
O1467 U1446 2.449 . S
O1467 C1463 1.282 . S
H1468 C1441 0.931 . S
H1469 C1443 0.929 . S
H1470 C1444 0.930 . S
H1471 C1445 0.931 . S
H1472 C1452 0.932 . S
H1473 C1453 0.930 . S
H1474 C1454 0.929 . S
H1475 C1456 0.930 . S
H1476 C1458 0.932 . S
H1477 C1459 0.929 . S
H1478 C1460 0.928 . S
H1479 C1462 0.932 . S
C1480 C1481 1.264 . S
C1480 C1485 1.479 . S
C1480 C1490 1.465 . S
C1481 C1480 1.264 . S
C1481 C1483 1.339 . S
C1481 H1508 0.931 . S
C1482 C1483 1.395 . S
C1482 C1484 1.320 . S
C1483 C1481 1.339 . S
C1483 C1482 1.395 . S
C1483 H1509 0.929 . S
C1484 C1482 1.320 . S
C1484 C1485 1.405 . S
C1484 H1510 0.930 . S
C1485 C1480 1.479 . S
C1485 C1484 1.405 . S
C1485 H1511 0.931 . S
U1486 O1487 2.454 . S
U1486 O1488 2.458 . S
U1486 C1489 2.984 . S
U1486 C1490 2.847 . S
U1486 C1503 2.882 . S
U1486 O1504 2.441 . S
U1486 O1505 2.420 . S
U1486 O1506 2.455 . S
U1486 O1507 2.449 . S
O1487 U1486 2.454 . S
O1487 C1489 1.353 . S
O1488 U1486 2.458 . S
O1488 C1489 1.286 . S
C1489 U1486 2.984 . S
C1489 O1487 1.353 . S
C1489 O1488 1.286 . S
C1489 C1491 1.363 . S
C1490 C1480 1.465 . S
C1490 U1486 2.847 . S
C1490 O1504 1.249 . S
C1490 O1505 1.202 . S
C1491 C1489 1.363 . S
C1491 C1493 1.408 . S
C1491 C1496 1.342 . S
C1492 C1493 1.310 . S
C1492 C1495 1.461 . S
C1492 H1512 0.932 . S
C1493 C1491 1.408 . S
C1493 C1492 1.310 . S
C1493 H1513 0.930 . S
C1494 C1495 1.474 . S
C1494 C1496 1.285 . S
C1494 H1514 0.929 . S
C1495 C1492 1.461 . S
C1495 C1494 1.474 . S
C1496 C1491 1.342 . S
C1496 C1494 1.285 . S
C1496 H1515 0.930 . S
C1497 C1500 1.424 . S
C1497 C1502 1.245 . S
C1497 C1503 1.428 . S
C1498 C1501 1.260 . S
C1498 C1502 1.477 . S
C1498 H1516 0.932 . S
C1499 C1500 1.384 . S
C1499 C1501 1.479 . S
C1499 H1517 0.929 . S
C1500 C1497 1.424 . S
C1500 C1499 1.384 . S
C1500 H1518 0.928 . S
C1501 C1498 1.260 . S
C1501 C1499 1.479 . S
C1502 C1497 1.245 . S
C1502 C1498 1.477 . S
C1502 H1519 0.932 . S
C1503 U1486 2.882 . S
C1503 C1497 1.428 . S
C1503 O1506 1.301 . S
C1503 O1507 1.282 . S
O1504 U1486 2.441 . S
O1504 C1490 1.249 . S
O1505 U1486 2.420 . S
O1505 C1490 1.202 . S
O1506 U1486 2.455 . S
O1506 C1503 1.301 . S
O1507 U1486 2.449 . S
O1507 C1503 1.282 . S
H1508 C1481 0.931 . S
H1509 C1483 0.929 . S
H1510 C1484 0.930 . S
H1511 C1485 0.931 . S
H1512 C1492 0.932 . S
H1513 C1493 0.930 . S
H1514 C1494 0.929 . S
H1515 C1496 0.930 . S
H1516 C1498 0.932 . S
H1517 C1499 0.929 . S
H1518 C1500 0.928 . S
H1519 C1502 0.932 . S
C1520 C1521 1.264 . S
C1520 C1525 1.479 . S
C1520 C1530 1.465 . S
C1521 C1520 1.264 . S
C1521 C1523 1.339 . S
C1521 H1548 0.931 . S
C1522 C1523 1.395 . S
C1522 C1524 1.320 . S
C1523 C1521 1.339 . S
C1523 C1522 1.395 . S
C1523 H1549 0.929 . S
C1524 C1522 1.320 . S
C1524 C1525 1.405 . S
C1524 H1550 0.930 . S
C1525 C1520 1.479 . S
C1525 C1524 1.405 . S
C1525 H1551 0.931 . S
U1526 O1527 2.454 . S
U1526 O1528 2.458 . S
U1526 C1529 2.984 . S
U1526 C1530 2.847 . S
U1526 C1543 2.882 . S
U1526 O1544 2.441 . S
U1526 O1545 2.420 . S
U1526 O1546 2.455 . S
U1526 O1547 2.449 . S
O1527 U1526 2.454 . S
O1527 C1529 1.353 . S
O1528 U1526 2.458 . S
O1528 C1529 1.286 . S
C1529 U1526 2.984 . S
C1529 O1527 1.353 . S
C1529 O1528 1.286 . S
C1529 C1531 1.363 . S
C1530 C1520 1.465 . S
C1530 U1526 2.847 . S
C1530 O1544 1.249 . S
C1530 O1545 1.202 . S
C1531 C1529 1.363 . S
C1531 C1533 1.408 . S
C1531 C1536 1.342 . S
C1532 C1533 1.310 . S
C1532 C1535 1.461 . S
C1532 H1552 0.932 . S
C1533 C1531 1.408 . S
C1533 C1532 1.310 . S
C1533 H1553 0.930 . S
C1534 C1535 1.474 . S
C1534 C1536 1.285 . S
C1534 H1554 0.929 . S
C1535 C1532 1.461 . S
C1535 C1534 1.474 . S
C1536 C1531 1.342 . S
C1536 C1534 1.285 . S
C1536 H1555 0.930 . S
C1537 C1540 1.424 . S
C1537 C1542 1.245 . S
C1537 C1543 1.428 . S
C1538 C1541 1.260 . S
C1538 C1542 1.477 . S
C1538 H1556 0.932 . S
C1539 C1540 1.384 . S
C1539 C1541 1.479 . S
C1539 H1557 0.929 . S
C1540 C1537 1.424 . S
C1540 C1539 1.384 . S
C1540 H1558 0.928 . S
C1541 C1538 1.260 . S
C1541 C1539 1.479 . S
C1542 C1537 1.245 . S
C1542 C1538 1.477 . S
C1542 H1559 0.932 . S
C1543 U1526 2.882 . S
C1543 C1537 1.428 . S
C1543 O1546 1.301 . S
C1543 O1547 1.282 . S
O1544 U1526 2.441 . S
O1544 C1530 1.249 . S
O1545 U1526 2.420 . S
O1545 C1530 1.202 . S
O1546 U1526 2.455 . S
O1546 C1543 1.301 . S
O1547 U1526 2.449 . S
O1547 C1543 1.282 . S
H1548 C1521 0.931 . S
H1549 C1523 0.929 . S
H1550 C1524 0.930 . S
H1551 C1525 0.931 . S
H1552 C1532 0.932 . S
H1553 C1533 0.930 . S
H1554 C1534 0.929 . S
H1555 C1536 0.930 . S
H1556 C1538 0.932 . S
H1557 C1539 0.929 . S
H1558 C1540 0.928 . S
H1559 C1542 0.932 . S
C1560 C1561 1.264 . S
C1560 C1565 1.479 . S
C1560 C1570 1.465 . S
C1561 C1560 1.264 . S
C1561 C1563 1.339 . S
C1561 H1588 0.931 . S
C1562 C1563 1.395 . S
C1562 C1564 1.320 . S
C1563 C1561 1.339 . S
C1563 C1562 1.395 . S
C1563 H1589 0.929 . S
C1564 C1562 1.320 . S
C1564 C1565 1.405 . S
C1564 H1590 0.930 . S
C1565 C1560 1.479 . S
C1565 C1564 1.405 . S
C1565 H1591 0.931 . S
U1566 O1567 2.454 . S
U1566 O1568 2.458 . S
U1566 C1569 2.984 . S
U1566 C1570 2.847 . S
U1566 C1583 2.882 . S
U1566 O1584 2.441 . S
U1566 O1585 2.420 . S
U1566 O1586 2.455 . S
U1566 O1587 2.449 . S
O1567 U1566 2.454 . S
O1567 C1569 1.353 . S
O1568 U1566 2.458 . S
O1568 C1569 1.286 . S
C1569 U1566 2.984 . S
C1569 O1567 1.353 . S
C1569 O1568 1.286 . S
C1569 C1571 1.363 . S
C1570 C1560 1.465 . S
C1570 U1566 2.847 . S
C1570 O1584 1.249 . S
C1570 O1585 1.202 . S
C1571 C1569 1.363 . S
C1571 C1573 1.408 . S
C1571 C1576 1.342 . S
C1572 C1573 1.310 . S
C1572 C1575 1.461 . S
C1572 H1592 0.932 . S
C1573 C1571 1.408 . S
C1573 C1572 1.310 . S
C1573 H1593 0.930 . S
C1574 C1575 1.474 . S
C1574 C1576 1.285 . S
C1574 H1594 0.929 . S
C1575 C1572 1.461 . S
C1575 C1574 1.474 . S
C1576 C1571 1.342 . S
C1576 C1574 1.285 . S
C1576 H1595 0.930 . S
C1577 C1580 1.424 . S
C1577 C1582 1.245 . S
C1577 C1583 1.428 . S
C1578 C1581 1.260 . S
C1578 C1582 1.477 . S
C1578 H1596 0.932 . S
C1579 C1580 1.384 . S
C1579 C1581 1.479 . S
C1579 H1597 0.929 . S
C1580 C1577 1.424 . S
C1580 C1579 1.384 . S
C1580 H1598 0.928 . S
C1581 C1578 1.260 . S
C1581 C1579 1.479 . S
C1582 C1577 1.245 . S
C1582 C1578 1.477 . S
C1582 H1599 0.932 . S
C1583 U1566 2.882 . S
C1583 C1577 1.428 . S
C1583 O1586 1.301 . S
C1583 O1587 1.282 . S
O1584 U1566 2.441 . S
O1584 C1570 1.249 . S
O1585 U1566 2.420 . S
O1585 C1570 1.202 . S
O1586 U1566 2.455 . S
O1586 C1583 1.301 . S
O1587 U1566 2.449 . S
O1587 C1583 1.282 . S
H1588 C1561 0.931 . S
H1589 C1563 0.929 . S
H1590 C1564 0.930 . S
H1591 C1565 0.931 . S
H1592 C1572 0.932 . S
H1593 C1573 0.930 . S
H1594 C1574 0.929 . S
H1595 C1576 0.930 . S
H1596 C1578 0.932 . S
H1597 C1579 0.929 . S
H1598 C1580 0.928 . S
H1599 C1582 0.932 . S
C1600 C1601 1.264 . S
C1600 C1605 1.479 . S
C1600 C1610 1.465 . S
C1601 C1600 1.264 . S
C1601 C1603 1.339 . S
C1601 H1628 0.931 . S
C1602 C1603 1.395 . S
C1602 C1604 1.320 . S
C1603 C1601 1.339 . S
C1603 C1602 1.395 . S
C1603 H1629 0.929 . S
C1604 C1602 1.320 . S
C1604 C1605 1.405 . S
C1604 H1630 0.930 . S
C1605 C1600 1.479 . S
C1605 C1604 1.405 . S
C1605 H1631 0.931 . S
U1606 O1607 2.454 . S
U1606 O1608 2.458 . S
U1606 C1609 2.984 . S
U1606 C1610 2.847 . S
U1606 C1623 2.882 . S
U1606 O1624 2.441 . S
U1606 O1625 2.420 . S
U1606 O1626 2.455 . S
U1606 O1627 2.449 . S
O1607 U1606 2.454 . S
O1607 C1609 1.353 . S
O1608 U1606 2.458 . S
O1608 C1609 1.286 . S
C1609 U1606 2.984 . S
C1609 O1607 1.353 . S
C1609 O1608 1.286 . S
C1609 C1611 1.363 . S
C1610 C1600 1.465 . S
C1610 U1606 2.847 . S
C1610 O1624 1.249 . S
C1610 O1625 1.202 . S
C1611 C1609 1.363 . S
C1611 C1613 1.408 . S
C1611 C1616 1.342 . S
C1612 C1613 1.310 . S
C1612 C1615 1.461 . S
C1612 H1632 0.932 . S
C1613 C1611 1.408 . S
C1613 C1612 1.310 . S
C1613 H1633 0.930 . S
C1614 C1615 1.474 . S
C1614 C1616 1.285 . S
C1614 H1634 0.929 . S
C1615 C1612 1.461 . S
C1615 C1614 1.474 . S
C1616 C1611 1.342 . S
C1616 C1614 1.285 . S
C1616 H1635 0.930 . S
C1617 C1620 1.424 . S
C1617 C1622 1.245 . S
C1617 C1623 1.428 . S
C1618 C1621 1.260 . S
C1618 C1622 1.477 . S
C1618 H1636 0.932 . S
C1619 C1620 1.384 . S
C1619 C1621 1.479 . S
C1619 H1637 0.929 . S
C1620 C1617 1.424 . S
C1620 C1619 1.384 . S
C1620 H1638 0.928 . S
C1621 C1618 1.260 . S
C1621 C1619 1.479 . S
C1622 C1617 1.245 . S
C1622 C1618 1.477 . S
C1622 H1639 0.932 . S
C1623 U1606 2.882 . S
C1623 C1617 1.428 . S
C1623 O1626 1.301 . S
C1623 O1627 1.282 . S
O1624 U1606 2.441 . S
O1624 C1610 1.249 . S
O1625 U1606 2.420 . S
O1625 C1610 1.202 . S
O1626 U1606 2.455 . S
O1626 C1623 1.301 . S
O1627 U1606 2.449 . S
O1627 C1623 1.282 . S
H1628 C1601 0.931 . S
H1629 C1603 0.929 . S
H1630 C1604 0.930 . S
H1631 C1605 0.931 . S
H1632 C1612 0.932 . S
H1633 C1613 0.930 . S
H1634 C1614 0.929 . S
H1635 C1616 0.930 . S
H1636 C1618 0.932 . S
H1637 C1619 0.929 . S
H1638 C1620 0.928 . S
H1639 C1622 0.932 . S
C1640 C1641 1.264 . S
C1640 C1645 1.479 . S
C1640 C1650 1.465 . S
C1641 C1640 1.264 . S
C1641 C1643 1.339 . S
C1641 H1668 0.931 . S
C1642 C1643 1.395 . S
C1642 C1644 1.320 . S
C1643 C1641 1.339 . S
C1643 C1642 1.395 . S
C1643 H1669 0.929 . S
C1644 C1642 1.320 . S
C1644 C1645 1.405 . S
C1644 H1670 0.930 . S
C1645 C1640 1.479 . S
C1645 C1644 1.405 . S
C1645 H1671 0.931 . S
U1646 O1647 2.454 . S
U1646 O1648 2.458 . S
U1646 C1649 2.984 . S
U1646 C1650 2.847 . S
U1646 C1663 2.882 . S
U1646 O1664 2.441 . S
U1646 O1665 2.420 . S
U1646 O1666 2.455 . S
U1646 O1667 2.449 . S
O1647 U1646 2.454 . S
O1647 C1649 1.353 . S
O1648 U1646 2.458 . S
O1648 C1649 1.286 . S
C1649 U1646 2.984 . S
C1649 O1647 1.353 . S
C1649 O1648 1.286 . S
C1649 C1651 1.363 . S
C1650 C1640 1.465 . S
C1650 U1646 2.847 . S
C1650 O1664 1.249 . S
C1650 O1665 1.202 . S
C1651 C1649 1.363 . S
C1651 C1653 1.408 . S
C1651 C1656 1.342 . S
C1652 C1653 1.310 . S
C1652 C1655 1.461 . S
C1652 H1672 0.932 . S
C1653 C1651 1.408 . S
C1653 C1652 1.310 . S
C1653 H1673 0.930 . S
C1654 C1655 1.474 . S
C1654 C1656 1.285 . S
C1654 H1674 0.929 . S
C1655 C1652 1.461 . S
C1655 C1654 1.474 . S
C1656 C1651 1.342 . S
C1656 C1654 1.285 . S
C1656 H1675 0.930 . S
C1657 C1660 1.424 . S
C1657 C1662 1.245 . S
C1657 C1663 1.428 . S
C1658 C1661 1.260 . S
C1658 C1662 1.477 . S
C1658 H1676 0.932 . S
C1659 C1660 1.384 . S
C1659 C1661 1.479 . S
C1659 H1677 0.929 . S
C1660 C1657 1.424 . S
C1660 C1659 1.384 . S
C1660 H1678 0.928 . S
C1661 C1658 1.260 . S
C1661 C1659 1.479 . S
C1662 C1657 1.245 . S
C1662 C1658 1.477 . S
C1662 H1679 0.932 . S
C1663 U1646 2.882 . S
C1663 C1657 1.428 . S
C1663 O1666 1.301 . S
C1663 O1667 1.282 . S
O1664 U1646 2.441 . S
O1664 C1650 1.249 . S
O1665 U1646 2.420 . S
O1665 C1650 1.202 . S
O1666 U1646 2.455 . S
O1666 C1663 1.301 . S
O1667 U1646 2.449 . S
O1667 C1663 1.282 . S
H1668 C1641 0.931 . S
H1669 C1643 0.929 . S
H1670 C1644 0.930 . S
H1671 C1645 0.931 . S
H1672 C1652 0.932 . S
H1673 C1653 0.930 . S
H1674 C1654 0.929 . S
H1675 C1656 0.930 . S
H1676 C1658 0.932 . S
H1677 C1659 0.929 . S
H1678 C1660 0.928 . S
H1679 C1662 0.932 . S
C1680 C1681 1.264 . S
C1680 C1685 1.479 . S
C1680 C1690 1.465 . S
C1681 C1680 1.264 . S
C1681 C1683 1.339 . S
C1681 H1708 0.931 . S
C1682 C1683 1.395 . S
C1682 C1684 1.320 . S
C1683 C1681 1.339 . S
C1683 C1682 1.395 . S
C1683 H1709 0.929 . S
C1684 C1682 1.320 . S
C1684 C1685 1.405 . S
C1684 H1710 0.930 . S
C1685 C1680 1.479 . S
C1685 C1684 1.405 . S
C1685 H1711 0.931 . S
U1686 O1687 2.454 . S
U1686 O1688 2.458 . S
U1686 C1689 2.984 . S
U1686 C1690 2.847 . S
U1686 C1703 2.882 . S
U1686 O1704 2.441 . S
U1686 O1705 2.420 . S
U1686 O1706 2.455 . S
U1686 O1707 2.449 . S
O1687 U1686 2.454 . S
O1687 C1689 1.353 . S
O1688 U1686 2.458 . S
O1688 C1689 1.286 . S
C1689 U1686 2.984 . S
C1689 O1687 1.353 . S
C1689 O1688 1.286 . S
C1689 C1691 1.363 . S
C1690 C1680 1.465 . S
C1690 U1686 2.847 . S
C1690 O1704 1.249 . S
C1690 O1705 1.202 . S
C1691 C1689 1.363 . S
C1691 C1693 1.408 . S
C1691 C1696 1.342 . S
C1692 C1693 1.310 . S
C1692 C1695 1.461 . S
C1692 H1712 0.932 . S
C1693 C1691 1.408 . S
C1693 C1692 1.310 . S
C1693 H1713 0.930 . S
C1694 C1695 1.474 . S
C1694 C1696 1.285 . S
C1694 H1714 0.929 . S
C1695 C1692 1.461 . S
C1695 C1694 1.474 . S
C1696 C1691 1.342 . S
C1696 C1694 1.285 . S
C1696 H1715 0.930 . S
C1697 C1700 1.424 . S
C1697 C1702 1.245 . S
C1697 C1703 1.428 . S
C1698 C1701 1.260 . S
C1698 C1702 1.477 . S
C1698 H1716 0.932 . S
C1699 C1700 1.384 . S
C1699 C1701 1.479 . S
C1699 H1717 0.929 . S
C1700 C1697 1.424 . S
C1700 C1699 1.384 . S
C1700 H1718 0.928 . S
C1701 C1698 1.260 . S
C1701 C1699 1.479 . S
C1702 C1697 1.245 . S
C1702 C1698 1.477 . S
C1702 H1719 0.932 . S
C1703 U1686 2.882 . S
C1703 C1697 1.428 . S
C1703 O1706 1.301 . S
C1703 O1707 1.282 . S
O1704 U1686 2.441 . S
O1704 C1690 1.249 . S
O1705 U1686 2.420 . S
O1705 C1690 1.202 . S
O1706 U1686 2.455 . S
O1706 C1703 1.301 . S
O1707 U1686 2.449 . S
O1707 C1703 1.282 . S
H1708 C1681 0.931 . S
H1709 C1683 0.929 . S
H1710 C1684 0.930 . S
H1711 C1685 0.931 . S
H1712 C1692 0.932 . S
H1713 C1693 0.930 . S
H1714 C1694 0.929 . S
H1715 C1696 0.930 . S
H1716 C1698 0.932 . S
H1717 C1699 0.929 . S
H1718 C1700 0.928 . S
H1719 C1702 0.932 . S
C1720 C1721 1.264 . S
C1720 C1725 1.479 . S
C1720 C1730 1.465 . S
C1721 C1720 1.264 . S
C1721 C1723 1.339 . S
C1721 H1748 0.931 . S
C1722 C1723 1.395 . S
C1722 C1724 1.320 . S
C1723 C1721 1.339 . S
C1723 C1722 1.395 . S
C1723 H1749 0.929 . S
C1724 C1722 1.320 . S
C1724 C1725 1.405 . S
C1724 H1750 0.930 . S
C1725 C1720 1.479 . S
C1725 C1724 1.405 . S
C1725 H1751 0.931 . S
U1726 O1727 2.454 . S
U1726 O1728 2.458 . S
U1726 C1729 2.984 . S
U1726 C1730 2.847 . S
U1726 C1743 2.882 . S
U1726 O1744 2.441 . S
U1726 O1745 2.420 . S
U1726 O1746 2.455 . S
U1726 O1747 2.449 . S
O1727 U1726 2.454 . S
O1727 C1729 1.353 . S
O1728 U1726 2.458 . S
O1728 C1729 1.286 . S
C1729 U1726 2.984 . S
C1729 O1727 1.353 . S
C1729 O1728 1.286 . S
C1729 C1731 1.363 . S
C1730 C1720 1.465 . S
C1730 U1726 2.847 . S
C1730 O1744 1.249 . S
C1730 O1745 1.202 . S
C1731 C1729 1.363 . S
C1731 C1733 1.408 . S
C1731 C1736 1.342 . S
C1732 C1733 1.310 . S
C1732 C1735 1.461 . S
C1732 H1752 0.932 . S
C1733 C1731 1.408 . S
C1733 C1732 1.310 . S
C1733 H1753 0.930 . S
C1734 C1735 1.474 . S
C1734 C1736 1.285 . S
C1734 H1754 0.929 . S
C1735 C1732 1.461 . S
C1735 C1734 1.474 . S
C1736 C1731 1.342 . S
C1736 C1734 1.285 . S
C1736 H1755 0.930 . S
C1737 C1740 1.424 . S
C1737 C1742 1.245 . S
C1737 C1743 1.428 . S
C1738 C1741 1.260 . S
C1738 C1742 1.477 . S
C1738 H1756 0.932 . S
C1739 C1740 1.384 . S
C1739 C1741 1.479 . S
C1739 H1757 0.929 . S
C1740 C1737 1.424 . S
C1740 C1739 1.384 . S
C1740 H1758 0.928 . S
C1741 C1738 1.260 . S
C1741 C1739 1.479 . S
C1742 C1737 1.245 . S
C1742 C1738 1.477 . S
C1742 H1759 0.932 . S
C1743 U1726 2.882 . S
C1743 C1737 1.428 . S
C1743 O1746 1.301 . S
C1743 O1747 1.282 . S
O1744 U1726 2.441 . S
O1744 C1730 1.249 . S
O1745 U1726 2.420 . S
O1745 C1730 1.202 . S
O1746 U1726 2.455 . S
O1746 C1743 1.301 . S
O1747 U1726 2.449 . S
O1747 C1743 1.282 . S
H1748 C1721 0.931 . S
H1749 C1723 0.929 . S
H1750 C1724 0.930 . S
H1751 C1725 0.931 . S
H1752 C1732 0.932 . S
H1753 C1733 0.930 . S
H1754 C1734 0.929 . S
H1755 C1736 0.930 . S
H1756 C1738 0.932 . S
H1757 C1739 0.929 . S
H1758 C1740 0.928 . S
H1759 C1742 0.932 . S
C1760 C1761 1.264 . S
C1760 C1765 1.479 . S
C1760 C1770 1.465 . S
C1761 C1760 1.264 . S
C1761 C1763 1.339 . S
C1761 H1788 0.931 . S
C1762 C1763 1.395 . S
C1762 C1764 1.320 . S
C1763 C1761 1.339 . S
C1763 C1762 1.395 . S
C1763 H1789 0.929 . S
C1764 C1762 1.320 . S
C1764 C1765 1.405 . S
C1764 H1790 0.930 . S
C1765 C1760 1.479 . S
C1765 C1764 1.405 . S
C1765 H1791 0.931 . S
U1766 O1767 2.454 . S
U1766 O1768 2.458 . S
U1766 C1769 2.984 . S
U1766 C1770 2.847 . S
U1766 C1783 2.882 . S
U1766 O1784 2.441 . S
U1766 O1785 2.420 . S
U1766 O1786 2.455 . S
U1766 O1787 2.449 . S
O1767 U1766 2.454 . S
O1767 C1769 1.353 . S
O1768 U1766 2.458 . S
O1768 C1769 1.286 . S
C1769 U1766 2.984 . S
C1769 O1767 1.353 . S
C1769 O1768 1.286 . S
C1769 C1771 1.363 . S
C1770 C1760 1.465 . S
C1770 U1766 2.847 . S
C1770 O1784 1.249 . S
C1770 O1785 1.202 . S
C1771 C1769 1.363 . S
C1771 C1773 1.408 . S
C1771 C1776 1.342 . S
C1772 C1773 1.310 . S
C1772 C1775 1.461 . S
C1772 H1792 0.932 . S
C1773 C1771 1.408 . S
C1773 C1772 1.310 . S
C1773 H1793 0.930 . S
C1774 C1775 1.474 . S
C1774 C1776 1.285 . S
C1774 H1794 0.929 . S
C1775 C1772 1.461 . S
C1775 C1774 1.474 . S
C1776 C1771 1.342 . S
C1776 C1774 1.285 . S
C1776 H1795 0.930 . S
C1777 C1780 1.424 . S
C1777 C1782 1.245 . S
C1777 C1783 1.428 . S
C1778 C1781 1.260 . S
C1778 C1782 1.477 . S
C1778 H1796 0.932 . S
C1779 C1780 1.384 . S
C1779 C1781 1.479 . S
C1779 H1797 0.929 . S
C1780 C1777 1.424 . S
C1780 C1779 1.384 . S
C1780 H1798 0.928 . S
C1781 C1778 1.260 . S
C1781 C1779 1.479 . S
C1782 C1777 1.245 . S
C1782 C1778 1.477 . S
C1782 H1799 0.932 . S
C1783 U1766 2.882 . S
C1783 C1777 1.428 . S
C1783 O1786 1.301 . S
C1783 O1787 1.282 . S
O1784 U1766 2.441 . S
O1784 C1770 1.249 . S
O1785 U1766 2.420 . S
O1785 C1770 1.202 . S
O1786 U1766 2.455 . S
O1786 C1783 1.301 . S
O1787 U1766 2.449 . S
O1787 C1783 1.282 . S
H1788 C1761 0.931 . S
H1789 C1763 0.929 . S
H1790 C1764 0.930 . S
H1791 C1765 0.931 . S
H1792 C1772 0.932 . S
H1793 C1773 0.930 . S
H1794 C1774 0.929 . S
H1795 C1776 0.930 . S
H1796 C1778 0.932 . S
H1797 C1779 0.929 . S
H1798 C1780 0.928 . S
H1799 C1782 0.932 . S
C1800 C1801 1.264 . S
C1800 C1805 1.479 . S
C1800 C1810 1.465 . S
C1801 C1800 1.264 . S
C1801 C1803 1.339 . S
C1801 H1828 0.931 . S
C1802 C1803 1.395 . S
C1802 C1804 1.320 . S
C1803 C1801 1.339 . S
C1803 C1802 1.395 . S
C1803 H1829 0.929 . S
C1804 C1802 1.320 . S
C1804 C1805 1.405 . S
C1804 H1830 0.930 . S
C1805 C1800 1.479 . S
C1805 C1804 1.405 . S
C1805 H1831 0.931 . S
U1806 O1807 2.454 . S
U1806 O1808 2.458 . S
U1806 C1809 2.984 . S
U1806 C1810 2.847 . S
U1806 C1823 2.882 . S
U1806 O1824 2.441 . S
U1806 O1825 2.420 . S
U1806 O1826 2.455 . S
U1806 O1827 2.449 . S
O1807 U1806 2.454 . S
O1807 C1809 1.353 . S
O1808 U1806 2.458 . S
O1808 C1809 1.286 . S
C1809 U1806 2.984 . S
C1809 O1807 1.353 . S
C1809 O1808 1.286 . S
C1809 C1811 1.363 . S
C1810 C1800 1.465 . S
C1810 U1806 2.847 . S
C1810 O1824 1.249 . S
C1810 O1825 1.202 . S
C1811 C1809 1.363 . S
C1811 C1813 1.408 . S
C1811 C1816 1.342 . S
C1812 C1813 1.310 . S
C1812 C1815 1.461 . S
C1812 H1832 0.932 . S
C1813 C1811 1.408 . S
C1813 C1812 1.310 . S
C1813 H1833 0.930 . S
C1814 C1815 1.474 . S
C1814 C1816 1.285 . S
C1814 H1834 0.929 . S
C1815 C1812 1.461 . S
C1815 C1814 1.474 . S
C1816 C1811 1.342 . S
C1816 C1814 1.285 . S
C1816 H1835 0.930 . S
C1817 C1820 1.424 . S
C1817 C1822 1.245 . S
C1817 C1823 1.428 . S
C1818 C1821 1.260 . S
C1818 C1822 1.477 . S
C1818 H1836 0.932 . S
C1819 C1820 1.384 . S
C1819 C1821 1.479 . S
C1819 H1837 0.929 . S
C1820 C1817 1.424 . S
C1820 C1819 1.384 . S
C1820 H1838 0.928 . S
C1821 C1818 1.260 . S
C1821 C1819 1.479 . S
C1822 C1817 1.245 . S
C1822 C1818 1.477 . S
C1822 H1839 0.932 . S
C1823 U1806 2.882 . S
C1823 C1817 1.428 . S
C1823 O1826 1.301 . S
C1823 O1827 1.282 . S
O1824 U1806 2.441 . S
O1824 C1810 1.249 . S
O1825 U1806 2.420 . S
O1825 C1810 1.202 . S
O1826 U1806 2.455 . S
O1826 C1823 1.301 . S
O1827 U1806 2.449 . S
O1827 C1823 1.282 . S
H1828 C1801 0.931 . S
H1829 C1803 0.929 . S
H1830 C1804 0.930 . S
H1831 C1805 0.931 . S
H1832 C1812 0.932 . S
H1833 C1813 0.930 . S
H1834 C1814 0.929 . S
H1835 C1816 0.930 . S
H1836 C1818 0.932 . S
H1837 C1819 0.929 . S
H1838 C1820 0.928 . S
H1839 C1822 0.932 . S
C1840 C1841 1.264 . S
C1840 C1845 1.479 . S
C1840 C1850 1.465 . S
C1841 C1840 1.264 . S
C1841 C1843 1.339 . S
C1841 H1868 0.931 . S
C1842 C1843 1.395 . S
C1842 C1844 1.320 . S
C1843 C1841 1.339 . S
C1843 C1842 1.395 . S
C1843 H1869 0.929 . S
C1844 C1842 1.320 . S
C1844 C1845 1.405 . S
C1844 H1870 0.930 . S
C1845 C1840 1.479 . S
C1845 C1844 1.405 . S
C1845 H1871 0.931 . S
U1846 O1847 2.454 . S
U1846 O1848 2.458 . S
U1846 C1849 2.984 . S
U1846 C1850 2.847 . S
U1846 C1863 2.882 . S
U1846 O1864 2.441 . S
U1846 O1865 2.420 . S
U1846 O1866 2.455 . S
U1846 O1867 2.449 . S
O1847 U1846 2.454 . S
O1847 C1849 1.353 . S
O1848 U1846 2.458 . S
O1848 C1849 1.286 . S
C1849 U1846 2.984 . S
C1849 O1847 1.353 . S
C1849 O1848 1.286 . S
C1849 C1851 1.363 . S
C1850 C1840 1.465 . S
C1850 U1846 2.847 . S
C1850 O1864 1.249 . S
C1850 O1865 1.202 . S
C1851 C1849 1.363 . S
C1851 C1853 1.408 . S
C1851 C1856 1.342 . S
C1852 C1853 1.310 . S
C1852 C1855 1.461 . S
C1852 H1872 0.932 . S
C1853 C1851 1.408 . S
C1853 C1852 1.310 . S
C1853 H1873 0.930 . S
C1854 C1855 1.474 . S
C1854 C1856 1.285 . S
C1854 H1874 0.929 . S
C1855 C1852 1.461 . S
C1855 C1854 1.474 . S
C1856 C1851 1.342 . S
C1856 C1854 1.285 . S
C1856 H1875 0.930 . S
C1857 C1860 1.424 . S
C1857 C1862 1.245 . S
C1857 C1863 1.428 . S
C1858 C1861 1.260 . S
C1858 C1862 1.477 . S
C1858 H1876 0.932 . S
C1859 C1860 1.384 . S
C1859 C1861 1.479 . S
C1859 H1877 0.929 . S
C1860 C1857 1.424 . S
C1860 C1859 1.384 . S
C1860 H1878 0.928 . S
C1861 C1858 1.260 . S
C1861 C1859 1.479 . S
C1862 C1857 1.245 . S
C1862 C1858 1.477 . S
C1862 H1879 0.932 . S
C1863 U1846 2.882 . S
C1863 C1857 1.428 . S
C1863 O1866 1.301 . S
C1863 O1867 1.282 . S
O1864 U1846 2.441 . S
O1864 C1850 1.249 . S
O1865 U1846 2.420 . S
O1865 C1850 1.202 . S
O1866 U1846 2.455 . S
O1866 C1863 1.301 . S
O1867 U1846 2.449 . S
O1867 C1863 1.282 . S
H1868 C1841 0.931 . S
H1869 C1843 0.929 . S
H1870 C1844 0.930 . S
H1871 C1845 0.931 . S
H1872 C1852 0.932 . S
H1873 C1853 0.930 . S
H1874 C1854 0.929 . S
H1875 C1856 0.930 . S
H1876 C1858 0.932 . S
H1877 C1859 0.929 . S
H1878 C1860 0.928 . S
H1879 C1862 0.932 . S
C1880 C1881 1.264 . S
C1880 C1885 1.479 . S
C1880 C1890 1.465 . S
C1881 C1880 1.264 . S
C1881 C1883 1.339 . S
C1881 H1908 0.931 . S
C1882 C1883 1.395 . S
C1882 C1884 1.320 . S
C1883 C1881 1.339 . S
C1883 C1882 1.395 . S
C1883 H1909 0.929 . S
C1884 C1882 1.320 . S
C1884 C1885 1.405 . S
C1884 H1910 0.930 . S
C1885 C1880 1.479 . S
C1885 C1884 1.405 . S
C1885 H1911 0.931 . S
U1886 O1887 2.454 . S
U1886 O1888 2.458 . S
U1886 C1889 2.984 . S
U1886 C1890 2.847 . S
U1886 C1903 2.882 . S
U1886 O1904 2.441 . S
U1886 O1905 2.420 . S
U1886 O1906 2.455 . S
U1886 O1907 2.449 . S
O1887 U1886 2.454 . S
O1887 C1889 1.353 . S
O1888 U1886 2.458 . S
O1888 C1889 1.286 . S
C1889 U1886 2.984 . S
C1889 O1887 1.353 . S
C1889 O1888 1.286 . S
C1889 C1891 1.363 . S
C1890 C1880 1.465 . S
C1890 U1886 2.847 . S
C1890 O1904 1.249 . S
C1890 O1905 1.202 . S
C1891 C1889 1.363 . S
C1891 C1893 1.408 . S
C1891 C1896 1.342 . S
C1892 C1893 1.310 . S
C1892 C1895 1.461 . S
C1892 H1912 0.932 . S
C1893 C1891 1.408 . S
C1893 C1892 1.310 . S
C1893 H1913 0.930 . S
C1894 C1895 1.474 . S
C1894 C1896 1.285 . S
C1894 H1914 0.929 . S
C1895 C1892 1.461 . S
C1895 C1894 1.474 . S
C1896 C1891 1.342 . S
C1896 C1894 1.285 . S
C1896 H1915 0.930 . S
C1897 C1900 1.424 . S
C1897 C1902 1.245 . S
C1897 C1903 1.428 . S
C1898 C1901 1.260 . S
C1898 C1902 1.477 . S
C1898 H1916 0.932 . S
C1899 C1900 1.384 . S
C1899 C1901 1.479 . S
C1899 H1917 0.929 . S
C1900 C1897 1.424 . S
C1900 C1899 1.384 . S
C1900 H1918 0.928 . S
C1901 C1898 1.260 . S
C1901 C1899 1.479 . S
C1902 C1897 1.245 . S
C1902 C1898 1.477 . S
C1902 H1919 0.932 . S
C1903 U1886 2.882 . S
C1903 C1897 1.428 . S
C1903 O1906 1.301 . S
C1903 O1907 1.282 . S
O1904 U1886 2.441 . S
O1904 C1890 1.249 . S
O1905 U1886 2.420 . S
O1905 C1890 1.202 . S
O1906 U1886 2.455 . S
O1906 C1903 1.301 . S
O1907 U1886 2.449 . S
O1907 C1903 1.282 . S
H1908 C1881 0.931 . S
H1909 C1883 0.929 . S
H1910 C1884 0.930 . S
H1911 C1885 0.931 . S
H1912 C1892 0.932 . S
H1913 C1893 0.930 . S
H1914 C1894 0.929 . S
H1915 C1896 0.930 . S
H1916 C1898 0.932 . S
H1917 C1899 0.929 . S
H1918 C1900 0.928 . S
H1919 C1902 0.932 . S
C1920 C1921 1.264 . S
C1920 C1925 1.479 . S
C1920 C1930 1.465 . S
C1921 C1920 1.264 . S
C1921 C1923 1.339 . S
C1921 H1948 0.931 . S
C1922 C1923 1.395 . S
C1922 C1924 1.320 . S
C1923 C1921 1.339 . S
C1923 C1922 1.395 . S
C1923 H1949 0.929 . S
C1924 C1922 1.320 . S
C1924 C1925 1.405 . S
C1924 H1950 0.930 . S
C1925 C1920 1.479 . S
C1925 C1924 1.405 . S
C1925 H1951 0.931 . S
U1926 O1927 2.454 . S
U1926 O1928 2.458 . S
U1926 C1929 2.984 . S
U1926 C1930 2.847 . S
U1926 C1943 2.882 . S
U1926 O1944 2.441 . S
U1926 O1945 2.420 . S
U1926 O1946 2.455 . S
U1926 O1947 2.449 . S
O1927 U1926 2.454 . S
O1927 C1929 1.353 . S
O1928 U1926 2.458 . S
O1928 C1929 1.286 . S
C1929 U1926 2.984 . S
C1929 O1927 1.353 . S
C1929 O1928 1.286 . S
C1929 C1931 1.363 . S
C1930 C1920 1.465 . S
C1930 U1926 2.847 . S
C1930 O1944 1.249 . S
C1930 O1945 1.202 . S
C1931 C1929 1.363 . S
C1931 C1933 1.408 . S
C1931 C1936 1.342 . S
C1932 C1933 1.310 . S
C1932 C1935 1.461 . S
C1932 H1952 0.932 . S
C1933 C1931 1.408 . S
C1933 C1932 1.310 . S
C1933 H1953 0.930 . S
C1934 C1935 1.474 . S
C1934 C1936 1.285 . S
C1934 H1954 0.929 . S
C1935 C1932 1.461 . S
C1935 C1934 1.474 . S
C1936 C1931 1.342 . S
C1936 C1934 1.285 . S
C1936 H1955 0.930 . S
C1937 C1940 1.424 . S
C1937 C1942 1.245 . S
C1937 C1943 1.428 . S
C1938 C1941 1.260 . S
C1938 C1942 1.477 . S
C1938 H1956 0.932 . S
C1939 C1940 1.384 . S
C1939 C1941 1.479 . S
C1939 H1957 0.929 . S
C1940 C1937 1.424 . S
C1940 C1939 1.384 . S
C1940 H1958 0.928 . S
C1941 C1938 1.260 . S
C1941 C1939 1.479 . S
C1942 C1937 1.245 . S
C1942 C1938 1.477 . S
C1942 H1959 0.932 . S
C1943 U1926 2.882 . S
C1943 C1937 1.428 . S
C1943 O1946 1.301 . S
C1943 O1947 1.282 . S
O1944 U1926 2.441 . S
O1944 C1930 1.249 . S
O1945 U1926 2.420 . S
O1945 C1930 1.202 . S
O1946 U1926 2.455 . S
O1946 C1943 1.301 . S
O1947 U1926 2.449 . S
O1947 C1943 1.282 . S
H1948 C1921 0.931 . S
H1949 C1923 0.929 . S
H1950 C1924 0.930 . S
H1951 C1925 0.931 . S
H1952 C1932 0.932 . S
H1953 C1933 0.930 . S
H1954 C1934 0.929 . S
H1955 C1936 0.930 . S
H1956 C1938 0.932 . S
H1957 C1939 0.929 . S
H1958 C1940 0.928 . S
H1959 C1942 0.932 . S
C1960 C1961 1.264 . S
C1960 C1965 1.479 . S
C1960 C1970 1.465 . S
C1961 C1960 1.264 . S
C1961 C1963 1.339 . S
C1961 H1988 0.931 . S
C1962 C1963 1.395 . S
C1962 C1964 1.320 . S
C1963 C1961 1.339 . S
C1963 C1962 1.395 . S
C1963 H1989 0.929 . S
C1964 C1962 1.320 . S
C1964 C1965 1.405 . S
C1964 H1990 0.930 . S
C1965 C1960 1.479 . S
C1965 C1964 1.405 . S
C1965 H1991 0.931 . S
U1966 O1967 2.454 . S
U1966 O1968 2.458 . S
U1966 C1969 2.984 . S
U1966 C1970 2.847 . S
U1966 C1983 2.882 . S
U1966 O1984 2.441 . S
U1966 O1985 2.420 . S
U1966 O1986 2.455 . S
U1966 O1987 2.449 . S
O1967 U1966 2.454 . S
O1967 C1969 1.353 . S
O1968 U1966 2.458 . S
O1968 C1969 1.286 . S
C1969 U1966 2.984 . S
C1969 O1967 1.353 . S
C1969 O1968 1.286 . S
C1969 C1971 1.363 . S
C1970 C1960 1.465 . S
C1970 U1966 2.847 . S
C1970 O1984 1.249 . S
C1970 O1985 1.202 . S
C1971 C1969 1.363 . S
C1971 C1973 1.408 . S
C1971 C1976 1.342 . S
C1972 C1973 1.310 . S
C1972 C1975 1.461 . S
C1972 H1992 0.932 . S
C1973 C1971 1.408 . S
C1973 C1972 1.310 . S
C1973 H1993 0.930 . S
C1974 C1975 1.474 . S
C1974 C1976 1.285 . S
C1974 H1994 0.929 . S
C1975 C1972 1.461 . S
C1975 C1974 1.474 . S
C1976 C1971 1.342 . S
C1976 C1974 1.285 . S
C1976 H1995 0.930 . S
C1977 C1980 1.424 . S
C1977 C1982 1.245 . S
C1977 C1983 1.428 . S
C1978 C1981 1.260 . S
C1978 C1982 1.477 . S
C1978 H1996 0.932 . S
C1979 C1980 1.384 . S
C1979 C1981 1.479 . S
C1979 H1997 0.929 . S
C1980 C1977 1.424 . S
C1980 C1979 1.384 . S
C1980 H1998 0.928 . S
C1981 C1978 1.260 . S
C1981 C1979 1.479 . S
C1982 C1977 1.245 . S
C1982 C1978 1.477 . S
C1982 H1999 0.932 . S
C1983 U1966 2.882 . S
C1983 C1977 1.428 . S
C1983 O1986 1.301 . S
C1983 O1987 1.282 . S
O1984 U1966 2.441 . S
O1984 C1970 1.249 . S
O1985 U1966 2.420 . S
O1985 C1970 1.202 . S
O1986 U1966 2.455 . S
O1986 C1983 1.301 . S
O1987 U1966 2.449 . S
O1987 C1983 1.282 . S
H1988 C1961 0.931 . S
H1989 C1963 0.929 . S
H1990 C1964 0.930 . S
H1991 C1965 0.931 . S
H1992 C1972 0.932 . S
H1993 C1973 0.930 . S
H1994 C1974 0.929 . S
H1995 C1976 0.930 . S
H1996 C1978 0.932 . S
H1997 C1979 0.929 . S
H1998 C1980 0.928 . S
H1999 C1982 0.932 . S
C2000 C2001 1.264 . S
C2000 C2005 1.479 . S
C2000 C2010 1.465 . S
C2001 C2000 1.264 . S
C2001 C2003 1.339 . S
C2001 H2028 0.931 . S
C2002 C2003 1.395 . S
C2002 C2004 1.320 . S
C2003 C2001 1.339 . S
C2003 C2002 1.395 . S
C2003 H2029 0.929 . S
C2004 C2002 1.320 . S
C2004 C2005 1.405 . S
C2004 H2030 0.930 . S
C2005 C2000 1.479 . S
C2005 C2004 1.405 . S
C2005 H2031 0.931 . S
U2006 O2007 2.454 . S
U2006 O2008 2.458 . S
U2006 C2009 2.984 . S
U2006 C2010 2.847 . S
U2006 C2023 2.882 . S
U2006 O2024 2.441 . S
U2006 O2025 2.420 . S
U2006 O2026 2.455 . S
U2006 O2027 2.449 . S
O2007 U2006 2.454 . S
O2007 C2009 1.353 . S
O2008 U2006 2.458 . S
O2008 C2009 1.286 . S
C2009 U2006 2.984 . S
C2009 O2007 1.353 . S
C2009 O2008 1.286 . S
C2009 C2011 1.363 . S
C2010 C2000 1.465 . S
C2010 U2006 2.847 . S
C2010 O2024 1.249 . S
C2010 O2025 1.202 . S
C2011 C2009 1.363 . S
C2011 C2013 1.408 . S
C2011 C2016 1.342 . S
C2012 C2013 1.310 . S
C2012 C2015 1.461 . S
C2012 H2032 0.932 . S
C2013 C2011 1.408 . S
C2013 C2012 1.310 . S
C2013 H2033 0.930 . S
C2014 C2015 1.474 . S
C2014 C2016 1.285 . S
C2014 H2034 0.929 . S
C2015 C2012 1.461 . S
C2015 C2014 1.474 . S
C2016 C2011 1.342 . S
C2016 C2014 1.285 . S
C2016 H2035 0.930 . S
C2017 C2020 1.424 . S
C2017 C2022 1.245 . S
C2017 C2023 1.428 . S
C2018 C2021 1.260 . S
C2018 C2022 1.477 . S
C2018 H2036 0.932 . S
C2019 C2020 1.384 . S
C2019 C2021 1.479 . S
C2019 H2037 0.929 . S
C2020 C2017 1.424 . S
C2020 C2019 1.384 . S
C2020 H2038 0.928 . S
C2021 C2018 1.260 . S
C2021 C2019 1.479 . S
C2022 C2017 1.245 . S
C2022 C2018 1.477 . S
C2022 H2039 0.932 . S
C2023 U2006 2.882 . S
C2023 C2017 1.428 . S
C2023 O2026 1.301 . S
C2023 O2027 1.282 . S
O2024 U2006 2.441 . S
O2024 C2010 1.249 . S
O2025 U2006 2.420 . S
O2025 C2010 1.202 . S
O2026 U2006 2.455 . S
O2026 C2023 1.301 . S
O2027 U2006 2.449 . S
O2027 C2023 1.282 . S
H2028 C2001 0.931 . S
H2029 C2003 0.929 . S
H2030 C2004 0.930 . S
H2031 C2005 0.931 . S
H2032 C2012 0.932 . S
H2033 C2013 0.930 . S
H2034 C2014 0.929 . S
H2035 C2016 0.930 . S
H2036 C2018 0.932 . S
H2037 C2019 0.929 . S
H2038 C2020 0.928 . S
H2039 C2022 0.932 . S
C2040 C2041 1.264 . S
C2040 C2045 1.479 . S
C2040 C2050 1.465 . S
C2041 C2040 1.264 . S
C2041 C2043 1.339 . S
C2041 H2068 0.931 . S
C2042 C2043 1.395 . S
C2042 C2044 1.320 . S
C2043 C2041 1.339 . S
C2043 C2042 1.395 . S
C2043 H2069 0.929 . S
C2044 C2042 1.320 . S
C2044 C2045 1.405 . S
C2044 H2070 0.930 . S
C2045 C2040 1.479 . S
C2045 C2044 1.405 . S
C2045 H2071 0.931 . S
U2046 O2047 2.454 . S
U2046 O2048 2.458 . S
U2046 C2049 2.984 . S
U2046 C2050 2.847 . S
U2046 C2063 2.882 . S
U2046 O2064 2.441 . S
U2046 O2065 2.420 . S
U2046 O2066 2.455 . S
U2046 O2067 2.449 . S
O2047 U2046 2.454 . S
O2047 C2049 1.353 . S
O2048 U2046 2.458 . S
O2048 C2049 1.286 . S
C2049 U2046 2.984 . S
C2049 O2047 1.353 . S
C2049 O2048 1.286 . S
C2049 C2051 1.363 . S
C2050 C2040 1.465 . S
C2050 U2046 2.847 . S
C2050 O2064 1.249 . S
C2050 O2065 1.202 . S
C2051 C2049 1.363 . S
C2051 C2053 1.408 . S
C2051 C2056 1.342 . S
C2052 C2053 1.310 . S
C2052 C2055 1.461 . S
C2052 H2072 0.932 . S
C2053 C2051 1.408 . S
C2053 C2052 1.310 . S
C2053 H2073 0.930 . S
C2054 C2055 1.474 . S
C2054 C2056 1.285 . S
C2054 H2074 0.929 . S
C2055 C2052 1.461 . S
C2055 C2054 1.474 . S
C2056 C2051 1.342 . S
C2056 C2054 1.285 . S
C2056 H2075 0.930 . S
C2057 C2060 1.424 . S
C2057 C2062 1.245 . S
C2057 C2063 1.428 . S
C2058 C2061 1.260 . S
C2058 C2062 1.477 . S
C2058 H2076 0.932 . S
C2059 C2060 1.384 . S
C2059 C2061 1.479 . S
C2059 H2077 0.929 . S
C2060 C2057 1.424 . S
C2060 C2059 1.384 . S
C2060 H2078 0.928 . S
C2061 C2058 1.260 . S
C2061 C2059 1.479 . S
C2062 C2057 1.245 . S
C2062 C2058 1.477 . S
C2062 H2079 0.932 . S
C2063 U2046 2.882 . S
C2063 C2057 1.428 . S
C2063 O2066 1.301 . S
C2063 O2067 1.282 . S
O2064 U2046 2.441 . S
O2064 C2050 1.249 . S
O2065 U2046 2.420 . S
O2065 C2050 1.202 . S
O2066 U2046 2.455 . S
O2066 C2063 1.301 . S
O2067 U2046 2.449 . S
O2067 C2063 1.282 . S
H2068 C2041 0.931 . S
H2069 C2043 0.929 . S
H2070 C2044 0.930 . S
H2071 C2045 0.931 . S
H2072 C2052 0.932 . S
H2073 C2053 0.930 . S
H2074 C2054 0.929 . S
H2075 C2056 0.930 . S
H2076 C2058 0.932 . S
H2077 C2059 0.929 . S
H2078 C2060 0.928 . S
H2079 C2062 0.932 . S
C2080 C2081 1.264 . S
C2080 C2085 1.479 . S
C2080 C2090 1.465 . S
C2081 C2080 1.264 . S
C2081 C2083 1.339 . S
C2081 H2108 0.931 . S
C2082 C2083 1.395 . S
C2082 C2084 1.320 . S
C2083 C2081 1.339 . S
C2083 C2082 1.395 . S
C2083 H2109 0.929 . S
C2084 C2082 1.320 . S
C2084 C2085 1.405 . S
C2084 H2110 0.930 . S
C2085 C2080 1.479 . S
C2085 C2084 1.405 . S
C2085 H2111 0.931 . S
U2086 O2087 2.454 . S
U2086 O2088 2.458 . S
U2086 C2089 2.984 . S
U2086 C2090 2.847 . S
U2086 C2103 2.882 . S
U2086 O2104 2.441 . S
U2086 O2105 2.420 . S
U2086 O2106 2.455 . S
U2086 O2107 2.449 . S
O2087 U2086 2.454 . S
O2087 C2089 1.353 . S
O2088 U2086 2.458 . S
O2088 C2089 1.286 . S
C2089 U2086 2.984 . S
C2089 O2087 1.353 . S
C2089 O2088 1.286 . S
C2089 C2091 1.363 . S
C2090 C2080 1.465 . S
C2090 U2086 2.847 . S
C2090 O2104 1.249 . S
C2090 O2105 1.202 . S
C2091 C2089 1.363 . S
C2091 C2093 1.408 . S
C2091 C2096 1.342 . S
C2092 C2093 1.310 . S
C2092 C2095 1.461 . S
C2092 H2112 0.932 . S
C2093 C2091 1.408 . S
C2093 C2092 1.310 . S
C2093 H2113 0.930 . S
C2094 C2095 1.474 . S
C2094 C2096 1.285 . S
C2094 H2114 0.929 . S
C2095 C2092 1.461 . S
C2095 C2094 1.474 . S
C2096 C2091 1.342 . S
C2096 C2094 1.285 . S
C2096 H2115 0.930 . S
C2097 C2100 1.424 . S
C2097 C2102 1.245 . S
C2097 C2103 1.428 . S
C2098 C2101 1.260 . S
C2098 C2102 1.477 . S
C2098 H2116 0.932 . S
C2099 C2100 1.384 . S
C2099 C2101 1.479 . S
C2099 H2117 0.929 . S
C2100 C2097 1.424 . S
C2100 C2099 1.384 . S
C2100 H2118 0.928 . S
C2101 C2098 1.260 . S
C2101 C2099 1.479 . S
C2102 C2097 1.245 . S
C2102 C2098 1.477 . S
C2102 H2119 0.932 . S
C2103 U2086 2.882 . S
C2103 C2097 1.428 . S
C2103 O2106 1.301 . S
C2103 O2107 1.282 . S
O2104 U2086 2.441 . S
O2104 C2090 1.249 . S
O2105 U2086 2.420 . S
O2105 C2090 1.202 . S
O2106 U2086 2.455 . S
O2106 C2103 1.301 . S
O2107 U2086 2.449 . S
O2107 C2103 1.282 . S
H2108 C2081 0.931 . S
H2109 C2083 0.929 . S
H2110 C2084 0.930 . S
H2111 C2085 0.931 . S
H2112 C2092 0.932 . S
H2113 C2093 0.930 . S
H2114 C2094 0.929 . S
H2115 C2096 0.930 . S
H2116 C2098 0.932 . S
H2117 C2099 0.929 . S
H2118 C2100 0.928 . S
H2119 C2102 0.932 . S
C2120 C2121 1.264 . S
C2120 C2125 1.479 . S
C2120 C2130 1.465 . S
C2121 C2120 1.264 . S
C2121 C2123 1.339 . S
C2121 H2148 0.931 . S
C2122 C2123 1.395 . S
C2122 C2124 1.320 . S
C2123 C2121 1.339 . S
C2123 C2122 1.395 . S
C2123 H2149 0.929 . S
C2124 C2122 1.320 . S
C2124 C2125 1.405 . S
C2124 H2150 0.930 . S
C2125 C2120 1.479 . S
C2125 C2124 1.405 . S
C2125 H2151 0.931 . S
U2126 O2127 2.454 . S
U2126 O2128 2.458 . S
U2126 C2129 2.984 . S
U2126 C2130 2.847 . S
U2126 C2143 2.882 . S
U2126 O2144 2.441 . S
U2126 O2145 2.420 . S
U2126 O2146 2.455 . S
U2126 O2147 2.449 . S
O2127 U2126 2.454 . S
O2127 C2129 1.353 . S
O2128 U2126 2.458 . S
O2128 C2129 1.286 . S
C2129 U2126 2.984 . S
C2129 O2127 1.353 . S
C2129 O2128 1.286 . S
C2129 C2131 1.363 . S
C2130 C2120 1.465 . S
C2130 U2126 2.847 . S
C2130 O2144 1.249 . S
C2130 O2145 1.202 . S
C2131 C2129 1.363 . S
C2131 C2133 1.408 . S
C2131 C2136 1.342 . S
C2132 C2133 1.310 . S
C2132 C2135 1.461 . S
C2132 H2152 0.932 . S
C2133 C2131 1.408 . S
C2133 C2132 1.310 . S
C2133 H2153 0.930 . S
C2134 C2135 1.474 . S
C2134 C2136 1.285 . S
C2134 H2154 0.929 . S
C2135 C2132 1.461 . S
C2135 C2134 1.474 . S
C2136 C2131 1.342 . S
C2136 C2134 1.285 . S
C2136 H2155 0.930 . S
C2137 C2140 1.424 . S
C2137 C2142 1.245 . S
C2137 C2143 1.428 . S
C2138 C2141 1.260 . S
C2138 C2142 1.477 . S
C2138 H2156 0.932 . S
C2139 C2140 1.384 . S
C2139 C2141 1.479 . S
C2139 H2157 0.929 . S
C2140 C2137 1.424 . S
C2140 C2139 1.384 . S
C2140 H2158 0.928 . S
C2141 C2138 1.260 . S
C2141 C2139 1.479 . S
C2142 C2137 1.245 . S
C2142 C2138 1.477 . S
C2142 H2159 0.932 . S
C2143 U2126 2.882 . S
C2143 C2137 1.428 . S
C2143 O2146 1.301 . S
C2143 O2147 1.282 . S
O2144 U2126 2.441 . S
O2144 C2130 1.249 . S
O2145 U2126 2.420 . S
O2145 C2130 1.202 . S
O2146 U2126 2.455 . S
O2146 C2143 1.301 . S
O2147 U2126 2.449 . S
O2147 C2143 1.282 . S
H2148 C2121 0.931 . S
H2149 C2123 0.929 . S
H2150 C2124 0.930 . S
H2151 C2125 0.931 . S
H2152 C2132 0.932 . S
H2153 C2133 0.930 . S
H2154 C2134 0.929 . S
H2155 C2136 0.930 . S
H2156 C2138 0.932 . S
H2157 C2139 0.929 . S
H2158 C2140 0.928 . S
H2159 C2142 0.932 . S
C2160 C2161 1.264 . S
C2160 C2165 1.479 . S
C2160 C2170 1.465 . S
C2161 C2160 1.264 . S
C2161 C2163 1.339 . S
C2161 H2188 0.931 . S
C2162 C2163 1.395 . S
C2162 C2164 1.320 . S
C2163 C2161 1.339 . S
C2163 C2162 1.395 . S
C2163 H2189 0.929 . S
C2164 C2162 1.320 . S
C2164 C2165 1.405 . S
C2164 H2190 0.930 . S
C2165 C2160 1.479 . S
C2165 C2164 1.405 . S
C2165 H2191 0.931 . S
U2166 O2167 2.454 . S
U2166 O2168 2.458 . S
U2166 C2169 2.984 . S
U2166 C2170 2.847 . S
U2166 C2183 2.882 . S
U2166 O2184 2.441 . S
U2166 O2185 2.420 . S
U2166 O2186 2.455 . S
U2166 O2187 2.449 . S
O2167 U2166 2.454 . S
O2167 C2169 1.353 . S
O2168 U2166 2.458 . S
O2168 C2169 1.286 . S
C2169 U2166 2.984 . S
C2169 O2167 1.353 . S
C2169 O2168 1.286 . S
C2169 C2171 1.363 . S
C2170 C2160 1.465 . S
C2170 U2166 2.847 . S
C2170 O2184 1.249 . S
C2170 O2185 1.202 . S
C2171 C2169 1.363 . S
C2171 C2173 1.408 . S
C2171 C2176 1.342 . S
C2172 C2173 1.310 . S
C2172 C2175 1.461 . S
C2172 H2192 0.932 . S
C2173 C2171 1.408 . S
C2173 C2172 1.310 . S
C2173 H2193 0.930 . S
C2174 C2175 1.474 . S
C2174 C2176 1.285 . S
C2174 H2194 0.929 . S
C2175 C2172 1.461 . S
C2175 C2174 1.474 . S
C2176 C2171 1.342 . S
C2176 C2174 1.285 . S
C2176 H2195 0.930 . S
C2177 C2180 1.424 . S
C2177 C2182 1.245 . S
C2177 C2183 1.428 . S
C2178 C2181 1.260 . S
C2178 C2182 1.477 . S
C2178 H2196 0.932 . S
C2179 C2180 1.384 . S
C2179 C2181 1.479 . S
C2179 H2197 0.929 . S
C2180 C2177 1.424 . S
C2180 C2179 1.384 . S
C2180 H2198 0.928 . S
C2181 C2178 1.260 . S
C2181 C2179 1.479 . S
C2182 C2177 1.245 . S
C2182 C2178 1.477 . S
C2182 H2199 0.932 . S
C2183 U2166 2.882 . S
C2183 C2177 1.428 . S
C2183 O2186 1.301 . S
C2183 O2187 1.282 . S
O2184 U2166 2.441 . S
O2184 C2170 1.249 . S
O2185 U2166 2.420 . S
O2185 C2170 1.202 . S
O2186 U2166 2.455 . S
O2186 C2183 1.301 . S
O2187 U2166 2.449 . S
O2187 C2183 1.282 . S
H2188 C2161 0.931 . S
H2189 C2163 0.929 . S
H2190 C2164 0.930 . S
H2191 C2165 0.931 . S
H2192 C2172 0.932 . S
H2193 C2173 0.930 . S
H2194 C2174 0.929 . S
H2195 C2176 0.930 . S
H2196 C2178 0.932 . S
H2197 C2179 0.929 . S
H2198 C2180 0.928 . S
H2199 C2182 0.932 . S
C2200 C2201 1.264 . S
C2200 C2205 1.479 . S
C2200 C2210 1.465 . S
C2201 C2200 1.264 . S
C2201 C2203 1.339 . S
C2201 H2228 0.931 . S
C2202 C2203 1.395 . S
C2202 C2204 1.320 . S
C2203 C2201 1.339 . S
C2203 C2202 1.395 . S
C2203 H2229 0.929 . S
C2204 C2202 1.320 . S
C2204 C2205 1.405 . S
C2204 H2230 0.930 . S
C2205 C2200 1.479 . S
C2205 C2204 1.405 . S
C2205 H2231 0.931 . S
U2206 O2207 2.454 . S
U2206 O2208 2.458 . S
U2206 C2209 2.984 . S
U2206 C2210 2.847 . S
U2206 C2223 2.882 . S
U2206 O2224 2.441 . S
U2206 O2225 2.420 . S
U2206 O2226 2.455 . S
U2206 O2227 2.449 . S
O2207 U2206 2.454 . S
O2207 C2209 1.353 . S
O2208 U2206 2.458 . S
O2208 C2209 1.286 . S
C2209 U2206 2.984 . S
C2209 O2207 1.353 . S
C2209 O2208 1.286 . S
C2209 C2211 1.363 . S
C2210 C2200 1.465 . S
C2210 U2206 2.847 . S
C2210 O2224 1.249 . S
C2210 O2225 1.202 . S
C2211 C2209 1.363 . S
C2211 C2213 1.408 . S
C2211 C2216 1.342 . S
C2212 C2213 1.310 . S
C2212 C2215 1.461 . S
C2212 H2232 0.932 . S
C2213 C2211 1.408 . S
C2213 C2212 1.310 . S
C2213 H2233 0.930 . S
C2214 C2215 1.474 . S
C2214 C2216 1.285 . S
C2214 H2234 0.929 . S
C2215 C2212 1.461 . S
C2215 C2214 1.474 . S
C2216 C2211 1.342 . S
C2216 C2214 1.285 . S
C2216 H2235 0.930 . S
C2217 C2220 1.424 . S
C2217 C2222 1.245 . S
C2217 C2223 1.428 . S
C2218 C2221 1.260 . S
C2218 C2222 1.477 . S
C2218 H2236 0.932 . S
C2219 C2220 1.384 . S
C2219 C2221 1.479 . S
C2219 H2237 0.929 . S
C2220 C2217 1.424 . S
C2220 C2219 1.384 . S
C2220 H2238 0.928 . S
C2221 C2218 1.260 . S
C2221 C2219 1.479 . S
C2222 C2217 1.245 . S
C2222 C2218 1.477 . S
C2222 H2239 0.932 . S
C2223 U2206 2.882 . S
C2223 C2217 1.428 . S
C2223 O2226 1.301 . S
C2223 O2227 1.282 . S
O2224 U2206 2.441 . S
O2224 C2210 1.249 . S
O2225 U2206 2.420 . S
O2225 C2210 1.202 . S
O2226 U2206 2.455 . S
O2226 C2223 1.301 . S
O2227 U2206 2.449 . S
O2227 C2223 1.282 . S
H2228 C2201 0.931 . S
H2229 C2203 0.929 . S
H2230 C2204 0.930 . S
H2231 C2205 0.931 . S
H2232 C2212 0.932 . S
H2233 C2213 0.930 . S
H2234 C2214 0.929 . S
H2235 C2216 0.930 . S
H2236 C2218 0.932 . S
H2237 C2219 0.929 . S
H2238 C2220 0.928 . S
H2239 C2222 0.932 . S
C2240 C2241 1.264 . S
C2240 C2245 1.479 . S
C2240 C2250 1.465 . S
C2241 C2240 1.264 . S
C2241 C2243 1.339 . S
C2241 H2268 0.931 . S
C2242 C2243 1.395 . S
C2242 C2244 1.320 . S
C2243 C2241 1.339 . S
C2243 C2242 1.395 . S
C2243 H2269 0.929 . S
C2244 C2242 1.320 . S
C2244 C2245 1.405 . S
C2244 H2270 0.930 . S
C2245 C2240 1.479 . S
C2245 C2244 1.405 . S
C2245 H2271 0.931 . S
U2246 O2247 2.454 . S
U2246 O2248 2.458 . S
U2246 C2249 2.984 . S
U2246 C2250 2.847 . S
U2246 C2263 2.882 . S
U2246 O2264 2.441 . S
U2246 O2265 2.420 . S
U2246 O2266 2.455 . S
U2246 O2267 2.449 . S
O2247 U2246 2.454 . S
O2247 C2249 1.353 . S
O2248 U2246 2.458 . S
O2248 C2249 1.286 . S
C2249 U2246 2.984 . S
C2249 O2247 1.353 . S
C2249 O2248 1.286 . S
C2249 C2251 1.363 . S
C2250 C2240 1.465 . S
C2250 U2246 2.847 . S
C2250 O2264 1.249 . S
C2250 O2265 1.202 . S
C2251 C2249 1.363 . S
C2251 C2253 1.408 . S
C2251 C2256 1.342 . S
C2252 C2253 1.310 . S
C2252 C2255 1.461 . S
C2252 H2272 0.932 . S
C2253 C2251 1.408 . S
C2253 C2252 1.310 . S
C2253 H2273 0.930 . S
C2254 C2255 1.474 . S
C2254 C2256 1.285 . S
C2254 H2274 0.929 . S
C2255 C2252 1.461 . S
C2255 C2254 1.474 . S
C2256 C2251 1.342 . S
C2256 C2254 1.285 . S
C2256 H2275 0.930 . S
C2257 C2260 1.424 . S
C2257 C2262 1.245 . S
C2257 C2263 1.428 . S
C2258 C2261 1.260 . S
C2258 C2262 1.477 . S
C2258 H2276 0.932 . S
C2259 C2260 1.384 . S
C2259 C2261 1.479 . S
C2259 H2277 0.929 . S
C2260 C2257 1.424 . S
C2260 C2259 1.384 . S
C2260 H2278 0.928 . S
C2261 C2258 1.260 . S
C2261 C2259 1.479 . S
C2262 C2257 1.245 . S
C2262 C2258 1.477 . S
C2262 H2279 0.932 . S
C2263 U2246 2.882 . S
C2263 C2257 1.428 . S
C2263 O2266 1.301 . S
C2263 O2267 1.282 . S
O2264 U2246 2.441 . S
O2264 C2250 1.249 . S
O2265 U2246 2.420 . S
O2265 C2250 1.202 . S
O2266 U2246 2.455 . S
O2266 C2263 1.301 . S
O2267 U2246 2.449 . S
O2267 C2263 1.282 . S
H2268 C2241 0.931 . S
H2269 C2243 0.929 . S
H2270 C2244 0.930 . S
H2271 C2245 0.931 . S
H2272 C2252 0.932 . S
H2273 C2253 0.930 . S
H2274 C2254 0.929 . S
H2275 C2256 0.930 . S
H2276 C2258 0.932 . S
H2277 C2259 0.929 . S
H2278 C2260 0.928 . S
H2279 C2262 0.932 . S
C2280 C2281 1.264 . S
C2280 C2285 1.479 . S
C2280 C2290 1.465 . S
C2281 C2280 1.264 . S
C2281 C2283 1.339 . S
C2281 H2308 0.931 . S
C2282 C2283 1.395 . S
C2282 C2284 1.320 . S
C2283 C2281 1.339 . S
C2283 C2282 1.395 . S
C2283 H2309 0.929 . S
C2284 C2282 1.320 . S
C2284 C2285 1.405 . S
C2284 H2310 0.930 . S
C2285 C2280 1.479 . S
C2285 C2284 1.405 . S
C2285 H2311 0.931 . S
U2286 O2287 2.454 . S
U2286 O2288 2.458 . S
U2286 C2289 2.984 . S
U2286 C2290 2.847 . S
U2286 C2303 2.882 . S
U2286 O2304 2.441 . S
U2286 O2305 2.420 . S
U2286 O2306 2.455 . S
U2286 O2307 2.449 . S
O2287 U2286 2.454 . S
O2287 C2289 1.353 . S
O2288 U2286 2.458 . S
O2288 C2289 1.286 . S
C2289 U2286 2.984 . S
C2289 O2287 1.353 . S
C2289 O2288 1.286 . S
C2289 C2291 1.363 . S
C2290 C2280 1.465 . S
C2290 U2286 2.847 . S
C2290 O2304 1.249 . S
C2290 O2305 1.202 . S
C2291 C2289 1.363 . S
C2291 C2293 1.408 . S
C2291 C2296 1.342 . S
C2292 C2293 1.310 . S
C2292 C2295 1.461 . S
C2292 H2312 0.932 . S
C2293 C2291 1.408 . S
C2293 C2292 1.310 . S
C2293 H2313 0.930 . S
C2294 C2295 1.474 . S
C2294 C2296 1.285 . S
C2294 H2314 0.929 . S
C2295 C2292 1.461 . S
C2295 C2294 1.474 . S
C2296 C2291 1.342 . S
C2296 C2294 1.285 . S
C2296 H2315 0.930 . S
C2297 C2300 1.424 . S
C2297 C2302 1.245 . S
C2297 C2303 1.428 . S
C2298 C2301 1.260 . S
C2298 C2302 1.477 . S
C2298 H2316 0.932 . S
C2299 C2300 1.384 . S
C2299 C2301 1.479 . S
C2299 H2317 0.929 . S
C2300 C2297 1.424 . S
C2300 C2299 1.384 . S
C2300 H2318 0.928 . S
C2301 C2298 1.260 . S
C2301 C2299 1.479 . S
C2302 C2297 1.245 . S
C2302 C2298 1.477 . S
C2302 H2319 0.932 . S
C2303 U2286 2.882 . S
C2303 C2297 1.428 . S
C2303 O2306 1.301 . S
C2303 O2307 1.282 . S
O2304 U2286 2.441 . S
O2304 C2290 1.249 . S
O2305 U2286 2.420 . S
O2305 C2290 1.202 . S
O2306 U2286 2.455 . S
O2306 C2303 1.301 . S
O2307 U2286 2.449 . S
O2307 C2303 1.282 . S
H2308 C2281 0.931 . S
H2309 C2283 0.929 . S
H2310 C2284 0.930 . S
H2311 C2285 0.931 . S
H2312 C2292 0.932 . S
H2313 C2293 0.930 . S
H2314 C2294 0.929 . S
H2315 C2296 0.930 . S
H2316 C2298 0.932 . S
H2317 C2299 0.929 . S
H2318 C2300 0.928 . S
H2319 C2302 0.932 . S
C2320 C2321 1.264 . S
C2320 C2325 1.479 . S
C2320 C2330 1.465 . S
C2321 C2320 1.264 . S
C2321 C2323 1.339 . S
C2321 H2348 0.931 . S
C2322 C2323 1.395 . S
C2322 C2324 1.320 . S
C2323 C2321 1.339 . S
C2323 C2322 1.395 . S
C2323 H2349 0.929 . S
C2324 C2322 1.320 . S
C2324 C2325 1.405 . S
C2324 H2350 0.930 . S
C2325 C2320 1.479 . S
C2325 C2324 1.405 . S
C2325 H2351 0.931 . S
U2326 O2327 2.454 . S
U2326 O2328 2.458 . S
U2326 C2329 2.984 . S
U2326 C2330 2.847 . S
U2326 C2343 2.882 . S
U2326 O2344 2.441 . S
U2326 O2345 2.420 . S
U2326 O2346 2.455 . S
U2326 O2347 2.449 . S
O2327 U2326 2.454 . S
O2327 C2329 1.353 . S
O2328 U2326 2.458 . S
O2328 C2329 1.286 . S
C2329 U2326 2.984 . S
C2329 O2327 1.353 . S
C2329 O2328 1.286 . S
C2329 C2331 1.363 . S
C2330 C2320 1.465 . S
C2330 U2326 2.847 . S
C2330 O2344 1.249 . S
C2330 O2345 1.202 . S
C2331 C2329 1.363 . S
C2331 C2333 1.408 . S
C2331 C2336 1.342 . S
C2332 C2333 1.310 . S
C2332 C2335 1.461 . S
C2332 H2352 0.932 . S
C2333 C2331 1.408 . S
C2333 C2332 1.310 . S
C2333 H2353 0.930 . S
C2334 C2335 1.474 . S
C2334 C2336 1.285 . S
C2334 H2354 0.929 . S
C2335 C2332 1.461 . S
C2335 C2334 1.474 . S
C2336 C2331 1.342 . S
C2336 C2334 1.285 . S
C2336 H2355 0.930 . S
C2337 C2340 1.424 . S
C2337 C2342 1.245 . S
C2337 C2343 1.428 . S
C2338 C2341 1.260 . S
C2338 C2342 1.477 . S
C2338 H2356 0.932 . S
C2339 C2340 1.384 . S
C2339 C2341 1.479 . S
C2339 H2357 0.929 . S
C2340 C2337 1.424 . S
C2340 C2339 1.384 . S
C2340 H2358 0.928 . S
C2341 C2338 1.260 . S
C2341 C2339 1.479 . S
C2342 C2337 1.245 . S
C2342 C2338 1.477 . S
C2342 H2359 0.932 . S
C2343 U2326 2.882 . S
C2343 C2337 1.428 . S
C2343 O2346 1.301 . S
C2343 O2347 1.282 . S
O2344 U2326 2.441 . S
O2344 C2330 1.249 . S
O2345 U2326 2.420 . S
O2345 C2330 1.202 . S
O2346 U2326 2.455 . S
O2346 C2343 1.301 . S
O2347 U2326 2.449 . S
O2347 C2343 1.282 . S
H2348 C2321 0.931 . S
H2349 C2323 0.929 . S
H2350 C2324 0.930 . S
H2351 C2325 0.931 . S
H2352 C2332 0.932 . S
H2353 C2333 0.930 . S
H2354 C2334 0.929 . S
H2355 C2336 0.930 . S
H2356 C2338 0.932 . S
H2357 C2339 0.929 . S
H2358 C2340 0.928 . S
H2359 C2342 0.932 . S
C2360 C2361 1.264 . S
C2360 C2365 1.479 . S
C2360 C2370 1.465 . S
C2361 C2360 1.264 . S
C2361 C2363 1.339 . S
C2361 H2388 0.931 . S
C2362 C2363 1.395 . S
C2362 C2364 1.320 . S
C2363 C2361 1.339 . S
C2363 C2362 1.395 . S
C2363 H2389 0.929 . S
C2364 C2362 1.320 . S
C2364 C2365 1.405 . S
C2364 H2390 0.930 . S
C2365 C2360 1.479 . S
C2365 C2364 1.405 . S
C2365 H2391 0.931 . S
U2366 O2367 2.454 . S
U2366 O2368 2.458 . S
U2366 C2369 2.984 . S
U2366 C2370 2.847 . S
U2366 C2383 2.882 . S
U2366 O2384 2.441 . S
U2366 O2385 2.420 . S
U2366 O2386 2.455 . S
U2366 O2387 2.449 . S
O2367 U2366 2.454 . S
O2367 C2369 1.353 . S
O2368 U2366 2.458 . S
O2368 C2369 1.286 . S
C2369 U2366 2.984 . S
C2369 O2367 1.353 . S
C2369 O2368 1.286 . S
C2369 C2371 1.363 . S
C2370 C2360 1.465 . S
C2370 U2366 2.847 . S
C2370 O2384 1.249 . S
C2370 O2385 1.202 . S
C2371 C2369 1.363 . S
C2371 C2373 1.408 . S
C2371 C2376 1.342 . S
C2372 C2373 1.310 . S
C2372 C2375 1.461 . S
C2372 H2392 0.932 . S
C2373 C2371 1.408 . S
C2373 C2372 1.310 . S
C2373 H2393 0.930 . S
C2374 C2375 1.474 . S
C2374 C2376 1.285 . S
C2374 H2394 0.929 . S
C2375 C2372 1.461 . S
C2375 C2374 1.474 . S
C2376 C2371 1.342 . S
C2376 C2374 1.285 . S
C2376 H2395 0.930 . S
C2377 C2380 1.424 . S
C2377 C2382 1.245 . S
C2377 C2383 1.428 . S
C2378 C2381 1.260 . S
C2378 C2382 1.477 . S
C2378 H2396 0.932 . S
C2379 C2380 1.384 . S
C2379 C2381 1.479 . S
C2379 H2397 0.929 . S
C2380 C2377 1.424 . S
C2380 C2379 1.384 . S
C2380 H2398 0.928 . S
C2381 C2378 1.260 . S
C2381 C2379 1.479 . S
C2382 C2377 1.245 . S
C2382 C2378 1.477 . S
C2382 H2399 0.932 . S
C2383 U2366 2.882 . S
C2383 C2377 1.428 . S
C2383 O2386 1.301 . S
C2383 O2387 1.282 . S
O2384 U2366 2.441 . S
O2384 C2370 1.249 . S
O2385 U2366 2.420 . S
O2385 C2370 1.202 . S
O2386 U2366 2.455 . S
O2386 C2383 1.301 . S
O2387 U2366 2.449 . S
O2387 C2383 1.282 . S
H2388 C2361 0.931 . S
H2389 C2363 0.929 . S
H2390 C2364 0.930 . S
H2391 C2365 0.931 . S
H2392 C2372 0.932 . S
H2393 C2373 0.930 . S
H2394 C2374 0.929 . S
H2395 C2376 0.930 . S
H2396 C2378 0.932 . S
H2397 C2379 0.929 . S
H2398 C2380 0.928 . S
H2399 C2382 0.932 . S
C2400 C2401 1.264 . S
C2400 C2405 1.479 . S
C2400 C2410 1.465 . S
C2401 C2400 1.264 . S
C2401 C2403 1.339 . S
C2401 H2428 0.931 . S
C2402 C2403 1.395 . S
C2402 C2404 1.320 . S
C2403 C2401 1.339 . S
C2403 C2402 1.395 . S
C2403 H2429 0.929 . S
C2404 C2402 1.320 . S
C2404 C2405 1.405 . S
C2404 H2430 0.930 . S
C2405 C2400 1.479 . S
C2405 C2404 1.405 . S
C2405 H2431 0.931 . S
U2406 O2407 2.454 . S
U2406 O2408 2.458 . S
U2406 C2409 2.984 . S
U2406 C2410 2.847 . S
U2406 C2423 2.882 . S
U2406 O2424 2.441 . S
U2406 O2425 2.420 . S
U2406 O2426 2.455 . S
U2406 O2427 2.449 . S
O2407 U2406 2.454 . S
O2407 C2409 1.353 . S
O2408 U2406 2.458 . S
O2408 C2409 1.286 . S
C2409 U2406 2.984 . S
C2409 O2407 1.353 . S
C2409 O2408 1.286 . S
C2409 C2411 1.363 . S
C2410 C2400 1.465 . S
C2410 U2406 2.847 . S
C2410 O2424 1.249 . S
C2410 O2425 1.202 . S
C2411 C2409 1.363 . S
C2411 C2413 1.408 . S
C2411 C2416 1.342 . S
C2412 C2413 1.310 . S
C2412 C2415 1.461 . S
C2412 H2432 0.932 . S
C2413 C2411 1.408 . S
C2413 C2412 1.310 . S
C2413 H2433 0.930 . S
C2414 C2415 1.474 . S
C2414 C2416 1.285 . S
C2414 H2434 0.929 . S
C2415 C2412 1.461 . S
C2415 C2414 1.474 . S
C2416 C2411 1.342 . S
C2416 C2414 1.285 . S
C2416 H2435 0.930 . S
C2417 C2420 1.424 . S
C2417 C2422 1.245 . S
C2417 C2423 1.428 . S
C2418 C2421 1.260 . S
C2418 C2422 1.477 . S
C2418 H2436 0.932 . S
C2419 C2420 1.384 . S
C2419 C2421 1.479 . S
C2419 H2437 0.929 . S
C2420 C2417 1.424 . S
C2420 C2419 1.384 . S
C2420 H2438 0.928 . S
C2421 C2418 1.260 . S
C2421 C2419 1.479 . S
C2422 C2417 1.245 . S
C2422 C2418 1.477 . S
C2422 H2439 0.932 . S
C2423 U2406 2.882 . S
C2423 C2417 1.428 . S
C2423 O2426 1.301 . S
C2423 O2427 1.282 . S
O2424 U2406 2.441 . S
O2424 C2410 1.249 . S
O2425 U2406 2.420 . S
O2425 C2410 1.202 . S
O2426 U2406 2.455 . S
O2426 C2423 1.301 . S
O2427 U2406 2.449 . S
O2427 C2423 1.282 . S
H2428 C2401 0.931 . S
H2429 C2403 0.929 . S
H2430 C2404 0.930 . S
H2431 C2405 0.931 . S
H2432 C2412 0.932 . S
H2433 C2413 0.930 . S
H2434 C2414 0.929 . S
H2435 C2416 0.930 . S
H2436 C2418 0.932 . S
H2437 C2419 0.929 . S
H2438 C2420 0.928 . S
H2439 C2422 0.932 . S
C2440 C2441 1.264 . S
C2440 C2445 1.479 . S
C2440 C2450 1.465 . S
C2441 C2440 1.264 . S
C2441 C2443 1.339 . S
C2441 H2468 0.931 . S
C2442 C2443 1.395 . S
C2442 C2444 1.320 . S
C2443 C2441 1.339 . S
C2443 C2442 1.395 . S
C2443 H2469 0.929 . S
C2444 C2442 1.320 . S
C2444 C2445 1.405 . S
C2444 H2470 0.930 . S
C2445 C2440 1.479 . S
C2445 C2444 1.405 . S
C2445 H2471 0.931 . S
U2446 O2447 2.454 . S
U2446 O2448 2.458 . S
U2446 C2449 2.984 . S
U2446 C2450 2.847 . S
U2446 C2463 2.882 . S
U2446 O2464 2.441 . S
U2446 O2465 2.420 . S
U2446 O2466 2.455 . S
U2446 O2467 2.449 . S
O2447 U2446 2.454 . S
O2447 C2449 1.353 . S
O2448 U2446 2.458 . S
O2448 C2449 1.286 . S
C2449 U2446 2.984 . S
C2449 O2447 1.353 . S
C2449 O2448 1.286 . S
C2449 C2451 1.363 . S
C2450 C2440 1.465 . S
C2450 U2446 2.847 . S
C2450 O2464 1.249 . S
C2450 O2465 1.202 . S
C2451 C2449 1.363 . S
C2451 C2453 1.408 . S
C2451 C2456 1.342 . S
C2452 C2453 1.310 . S
C2452 C2455 1.461 . S
C2452 H2472 0.932 . S
C2453 C2451 1.408 . S
C2453 C2452 1.310 . S
C2453 H2473 0.930 . S
C2454 C2455 1.474 . S
C2454 C2456 1.285 . S
C2454 H2474 0.929 . S
C2455 C2452 1.461 . S
C2455 C2454 1.474 . S
C2456 C2451 1.342 . S
C2456 C2454 1.285 . S
C2456 H2475 0.930 . S
C2457 C2460 1.424 . S
C2457 C2462 1.245 . S
C2457 C2463 1.428 . S
C2458 C2461 1.260 . S
C2458 C2462 1.477 . S
C2458 H2476 0.932 . S
C2459 C2460 1.384 . S
C2459 C2461 1.479 . S
C2459 H2477 0.929 . S
C2460 C2457 1.424 . S
C2460 C2459 1.384 . S
C2460 H2478 0.928 . S
C2461 C2458 1.260 . S
C2461 C2459 1.479 . S
C2462 C2457 1.245 . S
C2462 C2458 1.477 . S
C2462 H2479 0.932 . S
C2463 U2446 2.882 . S
C2463 C2457 1.428 . S
C2463 O2466 1.301 . S
C2463 O2467 1.282 . S
O2464 U2446 2.441 . S
O2464 C2450 1.249 . S
O2465 U2446 2.420 . S
O2465 C2450 1.202 . S
O2466 U2446 2.455 . S
O2466 C2463 1.301 . S
O2467 U2446 2.449 . S
O2467 C2463 1.282 . S
H2468 C2441 0.931 . S
H2469 C2443 0.929 . S
H2470 C2444 0.930 . S
H2471 C2445 0.931 . S
H2472 C2452 0.932 . S
H2473 C2453 0.930 . S
H2474 C2454 0.929 . S
H2475 C2456 0.930 . S
H2476 C2458 0.932 . S
H2477 C2459 0.929 . S
H2478 C2460 0.928 . S
H2479 C2462 0.932 . S
C2480 C2481 1.264 . S
C2480 C2485 1.479 . S
C2480 C2490 1.465 . S
C2481 C2480 1.264 . S
C2481 C2483 1.339 . S
C2481 H2508 0.931 . S
C2482 C2483 1.395 . S
C2482 C2484 1.320 . S
C2483 C2481 1.339 . S
C2483 C2482 1.395 . S
C2483 H2509 0.929 . S
C2484 C2482 1.320 . S
C2484 C2485 1.405 . S
C2484 H2510 0.930 . S
C2485 C2480 1.479 . S
C2485 C2484 1.405 . S
C2485 H2511 0.931 . S
U2486 O2487 2.454 . S
U2486 O2488 2.458 . S
U2486 C2489 2.984 . S
U2486 C2490 2.847 . S
U2486 C2503 2.882 . S
U2486 O2504 2.441 . S
U2486 O2505 2.420 . S
U2486 O2506 2.455 . S
U2486 O2507 2.449 . S
O2487 U2486 2.454 . S
O2487 C2489 1.353 . S
O2488 U2486 2.458 . S
O2488 C2489 1.286 . S
C2489 U2486 2.984 . S
C2489 O2487 1.353 . S
C2489 O2488 1.286 . S
C2489 C2491 1.363 . S
C2490 C2480 1.465 . S
C2490 U2486 2.847 . S
C2490 O2504 1.249 . S
C2490 O2505 1.202 . S
C2491 C2489 1.363 . S
C2491 C2493 1.408 . S
C2491 C2496 1.342 . S
C2492 C2493 1.310 . S
C2492 C2495 1.461 . S
C2492 H2512 0.932 . S
C2493 C2491 1.408 . S
C2493 C2492 1.310 . S
C2493 H2513 0.930 . S
C2494 C2495 1.474 . S
C2494 C2496 1.285 . S
C2494 H2514 0.929 . S
C2495 C2492 1.461 . S
C2495 C2494 1.474 . S
C2496 C2491 1.342 . S
C2496 C2494 1.285 . S
C2496 H2515 0.930 . S
C2497 C2500 1.424 . S
C2497 C2502 1.245 . S
C2497 C2503 1.428 . S
C2498 C2501 1.260 . S
C2498 C2502 1.477 . S
C2498 H2516 0.932 . S
C2499 C2500 1.384 . S
C2499 C2501 1.479 . S
C2499 H2517 0.929 . S
C2500 C2497 1.424 . S
C2500 C2499 1.384 . S
C2500 H2518 0.928 . S
C2501 C2498 1.260 . S
C2501 C2499 1.479 . S
C2502 C2497 1.245 . S
C2502 C2498 1.477 . S
C2502 H2519 0.932 . S
C2503 U2486 2.882 . S
C2503 C2497 1.428 . S
C2503 O2506 1.301 . S
C2503 O2507 1.282 . S
O2504 U2486 2.441 . S
O2504 C2490 1.249 . S
O2505 U2486 2.420 . S
O2505 C2490 1.202 . S
O2506 U2486 2.455 . S
O2506 C2503 1.301 . S
O2507 U2486 2.449 . S
O2507 C2503 1.282 . S
H2508 C2481 0.931 . S
H2509 C2483 0.929 . S
H2510 C2484 0.930 . S
H2511 C2485 0.931 . S
H2512 C2492 0.932 . S
H2513 C2493 0.930 . S
H2514 C2494 0.929 . S
H2515 C2496 0.930 . S
H2516 C2498 0.932 . S
H2517 C2499 0.929 . S
H2518 C2500 0.928 . S
H2519 C2502 0.932 . S
C2520 C2521 1.264 . S
C2520 C2525 1.479 . S
C2520 C2530 1.465 . S
C2521 C2520 1.264 . S
C2521 C2523 1.339 . S
C2521 H2548 0.931 . S
C2522 C2523 1.395 . S
C2522 C2524 1.320 . S
C2523 C2521 1.339 . S
C2523 C2522 1.395 . S
C2523 H2549 0.929 . S
C2524 C2522 1.320 . S
C2524 C2525 1.405 . S
C2524 H2550 0.930 . S
C2525 C2520 1.479 . S
C2525 C2524 1.405 . S
C2525 H2551 0.931 . S
U2526 O2527 2.454 . S
U2526 O2528 2.458 . S
U2526 C2529 2.984 . S
U2526 C2530 2.847 . S
U2526 C2543 2.882 . S
U2526 O2544 2.441 . S
U2526 O2545 2.420 . S
U2526 O2546 2.455 . S
U2526 O2547 2.449 . S
O2527 U2526 2.454 . S
O2527 C2529 1.353 . S
O2528 U2526 2.458 . S
O2528 C2529 1.286 . S
C2529 U2526 2.984 . S
C2529 O2527 1.353 . S
C2529 O2528 1.286 . S
C2529 C2531 1.363 . S
C2530 C2520 1.465 . S
C2530 U2526 2.847 . S
C2530 O2544 1.249 . S
C2530 O2545 1.202 . S
C2531 C2529 1.363 . S
C2531 C2533 1.408 . S
C2531 C2536 1.342 . S
C2532 C2533 1.310 . S
C2532 C2535 1.461 . S
C2532 H2552 0.932 . S
C2533 C2531 1.408 . S
C2533 C2532 1.310 . S
C2533 H2553 0.930 . S
C2534 C2535 1.474 . S
C2534 C2536 1.285 . S
C2534 H2554 0.929 . S
C2535 C2532 1.461 . S
C2535 C2534 1.474 . S
C2536 C2531 1.342 . S
C2536 C2534 1.285 . S
C2536 H2555 0.930 . S
C2537 C2540 1.424 . S
C2537 C2542 1.245 . S
C2537 C2543 1.428 . S
C2538 C2541 1.260 . S
C2538 C2542 1.477 . S
C2538 H2556 0.932 . S
C2539 C2540 1.384 . S
C2539 C2541 1.479 . S
C2539 H2557 0.929 . S
C2540 C2537 1.424 . S
C2540 C2539 1.384 . S
C2540 H2558 0.928 . S
C2541 C2538 1.260 . S
C2541 C2539 1.479 . S
C2542 C2537 1.245 . S
C2542 C2538 1.477 . S
C2542 H2559 0.932 . S
C2543 U2526 2.882 . S
C2543 C2537 1.428 . S
C2543 O2546 1.301 . S
C2543 O2547 1.282 . S
O2544 U2526 2.441 . S
O2544 C2530 1.249 . S
O2545 U2526 2.420 . S
O2545 C2530 1.202 . S
O2546 U2526 2.455 . S
O2546 C2543 1.301 . S
O2547 U2526 2.449 . S
O2547 C2543 1.282 . S
H2548 C2521 0.931 . S
H2549 C2523 0.929 . S
H2550 C2524 0.930 . S
H2551 C2525 0.931 . S
H2552 C2532 0.932 . S
H2553 C2533 0.930 . S
H2554 C2534 0.929 . S
H2555 C2536 0.930 . S
H2556 C2538 0.932 . S
H2557 C2539 0.929 . S
H2558 C2540 0.928 . S
H2559 C2542 0.932 . S
C2560 C2561 1.264 . S
C2560 C2565 1.479 . S
C2560 C2570 1.465 . S
C2561 C2560 1.264 . S
C2561 C2563 1.339 . S
C2561 H2588 0.931 . S
C2562 C2563 1.395 . S
C2562 C2564 1.320 . S
C2563 C2561 1.339 . S
C2563 C2562 1.395 . S
C2563 H2589 0.929 . S
C2564 C2562 1.320 . S
C2564 C2565 1.405 . S
C2564 H2590 0.930 . S
C2565 C2560 1.479 . S
C2565 C2564 1.405 . S
C2565 H2591 0.931 . S
U2566 O2567 2.454 . S
U2566 O2568 2.458 . S
U2566 C2569 2.984 . S
U2566 C2570 2.847 . S
U2566 C2583 2.882 . S
U2566 O2584 2.441 . S
U2566 O2585 2.420 . S
U2566 O2586 2.455 . S
U2566 O2587 2.449 . S
O2567 U2566 2.454 . S
O2567 C2569 1.353 . S
O2568 U2566 2.458 . S
O2568 C2569 1.286 . S
C2569 U2566 2.984 . S
C2569 O2567 1.353 . S
C2569 O2568 1.286 . S
C2569 C2571 1.363 . S
C2570 C2560 1.465 . S
C2570 U2566 2.847 . S
C2570 O2584 1.249 . S
C2570 O2585 1.202 . S
C2571 C2569 1.363 . S
C2571 C2573 1.408 . S
C2571 C2576 1.342 . S
C2572 C2573 1.310 . S
C2572 C2575 1.461 . S
C2572 H2592 0.932 . S
C2573 C2571 1.408 . S
C2573 C2572 1.310 . S
C2573 H2593 0.930 . S
C2574 C2575 1.474 . S
C2574 C2576 1.285 . S
C2574 H2594 0.929 . S
C2575 C2572 1.461 . S
C2575 C2574 1.474 . S
C2576 C2571 1.342 . S
C2576 C2574 1.285 . S
C2576 H2595 0.930 . S
C2577 C2580 1.424 . S
C2577 C2582 1.245 . S
C2577 C2583 1.428 . S
C2578 C2581 1.260 . S
C2578 C2582 1.477 . S
C2578 H2596 0.932 . S
C2579 C2580 1.384 . S
C2579 C2581 1.479 . S
C2579 H2597 0.929 . S
C2580 C2577 1.424 . S
C2580 C2579 1.384 . S
C2580 H2598 0.928 . S
C2581 C2578 1.260 . S
C2581 C2579 1.479 . S
C2582 C2577 1.245 . S
C2582 C2578 1.477 . S
C2582 H2599 0.932 . S
C2583 U2566 2.882 . S
C2583 C2577 1.428 . S
C2583 O2586 1.301 . S
C2583 O2587 1.282 . S
O2584 U2566 2.441 . S
O2584 C2570 1.249 . S
O2585 U2566 2.420 . S
O2585 C2570 1.202 . S
O2586 U2566 2.455 . S
O2586 C2583 1.301 . S
O2587 U2566 2.449 . S
O2587 C2583 1.282 . S
H2588 C2561 0.931 . S
H2589 C2563 0.929 . S
H2590 C2564 0.930 . S
H2591 C2565 0.931 . S
H2592 C2572 0.932 . S
H2593 C2573 0.930 . S
H2594 C2574 0.929 . S
H2595 C2576 0.930 . S
H2596 C2578 0.932 . S
H2597 C2579 0.929 . S
H2598 C2580 0.928 . S
H2599 C2582 0.932 . S
C2600 C2601 1.264 . S
C2600 C2605 1.479 . S
C2600 C2610 1.465 . S
C2601 C2600 1.264 . S
C2601 C2603 1.339 . S
C2601 H2628 0.931 . S
C2602 C2603 1.395 . S
C2602 C2604 1.320 . S
C2603 C2601 1.339 . S
C2603 C2602 1.395 . S
C2603 H2629 0.929 . S
C2604 C2602 1.320 . S
C2604 C2605 1.405 . S
C2604 H2630 0.930 . S
C2605 C2600 1.479 . S
C2605 C2604 1.405 . S
C2605 H2631 0.931 . S
U2606 O2607 2.454 . S
U2606 O2608 2.458 . S
U2606 C2609 2.984 . S
U2606 C2610 2.847 . S
U2606 C2623 2.882 . S
U2606 O2624 2.441 . S
U2606 O2625 2.420 . S
U2606 O2626 2.455 . S
U2606 O2627 2.449 . S
O2607 U2606 2.454 . S
O2607 C2609 1.353 . S
O2608 U2606 2.458 . S
O2608 C2609 1.286 . S
C2609 U2606 2.984 . S
C2609 O2607 1.353 . S
C2609 O2608 1.286 . S
C2609 C2611 1.363 . S
C2610 C2600 1.465 . S
C2610 U2606 2.847 . S
C2610 O2624 1.249 . S
C2610 O2625 1.202 . S
C2611 C2609 1.363 . S
C2611 C2613 1.408 . S
C2611 C2616 1.342 . S
C2612 C2613 1.310 . S
C2612 C2615 1.461 . S
C2612 H2632 0.932 . S
C2613 C2611 1.408 . S
C2613 C2612 1.310 . S
C2613 H2633 0.930 . S
C2614 C2615 1.474 . S
C2614 C2616 1.285 . S
C2614 H2634 0.929 . S
C2615 C2612 1.461 . S
C2615 C2614 1.474 . S
C2616 C2611 1.342 . S
C2616 C2614 1.285 . S
C2616 H2635 0.930 . S
C2617 C2620 1.424 . S
C2617 C2622 1.245 . S
C2617 C2623 1.428 . S
C2618 C2621 1.260 . S
C2618 C2622 1.477 . S
C2618 H2636 0.932 . S
C2619 C2620 1.384 . S
C2619 C2621 1.479 . S
C2619 H2637 0.929 . S
C2620 C2617 1.424 . S
C2620 C2619 1.384 . S
C2620 H2638 0.928 . S
C2621 C2618 1.260 . S
C2621 C2619 1.479 . S
C2622 C2617 1.245 . S
C2622 C2618 1.477 . S
C2622 H2639 0.932 . S
C2623 U2606 2.882 . S
C2623 C2617 1.428 . S
C2623 O2626 1.301 . S
C2623 O2627 1.282 . S
O2624 U2606 2.441 . S
O2624 C2610 1.249 . S
O2625 U2606 2.420 . S
O2625 C2610 1.202 . S
O2626 U2606 2.455 . S
O2626 C2623 1.301 . S
O2627 U2606 2.449 . S
O2627 C2623 1.282 . S
H2628 C2601 0.931 . S
H2629 C2603 0.929 . S
H2630 C2604 0.930 . S
H2631 C2605 0.931 . S
H2632 C2612 0.932 . S
H2633 C2613 0.930 . S
H2634 C2614 0.929 . S
H2635 C2616 0.930 . S
H2636 C2618 0.932 . S
H2637 C2619 0.929 . S
H2638 C2620 0.928 . S
H2639 C2622 0.932 . S
C2640 C2641 1.264 . S
C2640 C2645 1.479 . S
C2640 C2650 1.465 . S
C2641 C2640 1.264 . S
C2641 C2643 1.339 . S
C2641 H2668 0.931 . S
C2642 C2643 1.395 . S
C2642 C2644 1.320 . S
C2643 C2641 1.339 . S
C2643 C2642 1.395 . S
C2643 H2669 0.929 . S
C2644 C2642 1.320 . S
C2644 C2645 1.405 . S
C2644 H2670 0.930 . S
C2645 C2640 1.479 . S
C2645 C2644 1.405 . S
C2645 H2671 0.931 . S
U2646 O2647 2.454 . S
U2646 O2648 2.458 . S
U2646 C2649 2.984 . S
U2646 C2650 2.847 . S
U2646 C2663 2.882 . S
U2646 O2664 2.441 . S
U2646 O2665 2.420 . S
U2646 O2666 2.455 . S
U2646 O2667 2.449 . S
O2647 U2646 2.454 . S
O2647 C2649 1.353 . S
O2648 U2646 2.458 . S
O2648 C2649 1.286 . S
C2649 U2646 2.984 . S
C2649 O2647 1.353 . S
C2649 O2648 1.286 . S
C2649 C2651 1.363 . S
C2650 C2640 1.465 . S
C2650 U2646 2.847 . S
C2650 O2664 1.249 . S
C2650 O2665 1.202 . S
C2651 C2649 1.363 . S
C2651 C2653 1.408 . S
C2651 C2656 1.342 . S
C2652 C2653 1.310 . S
C2652 C2655 1.461 . S
C2652 H2672 0.932 . S
C2653 C2651 1.408 . S
C2653 C2652 1.310 . S
C2653 H2673 0.930 . S
C2654 C2655 1.474 . S
C2654 C2656 1.285 . S
C2654 H2674 0.929 . S
C2655 C2652 1.461 . S
C2655 C2654 1.474 . S
C2656 C2651 1.342 . S
C2656 C2654 1.285 . S
C2656 H2675 0.930 . S
C2657 C2660 1.424 . S
C2657 C2662 1.245 . S
C2657 C2663 1.428 . S
C2658 C2661 1.260 . S
C2658 C2662 1.477 . S
C2658 H2676 0.932 . S
C2659 C2660 1.384 . S
C2659 C2661 1.479 . S
C2659 H2677 0.929 . S
C2660 C2657 1.424 . S
C2660 C2659 1.384 . S
C2660 H2678 0.928 . S
C2661 C2658 1.260 . S
C2661 C2659 1.479 . S
C2662 C2657 1.245 . S
C2662 C2658 1.477 . S
C2662 H2679 0.932 . S
C2663 U2646 2.882 . S
C2663 C2657 1.428 . S
C2663 O2666 1.301 . S
C2663 O2667 1.282 . S
O2664 U2646 2.441 . S
O2664 C2650 1.249 . S
O2665 U2646 2.420 . S
O2665 C2650 1.202 . S
O2666 U2646 2.455 . S
O2666 C2663 1.301 . S
O2667 U2646 2.449 . S
O2667 C2663 1.282 . S
H2668 C2641 0.931 . S
H2669 C2643 0.929 . S
H2670 C2644 0.930 . S
H2671 C2645 0.931 . S
H2672 C2652 0.932 . S
H2673 C2653 0.930 . S
H2674 C2654 0.929 . S
H2675 C2656 0.930 . S
H2676 C2658 0.932 . S
H2677 C2659 0.929 . S
H2678 C2660 0.928 . S
H2679 C2662 0.932 . S
C2680 C2681 1.264 . S
C2680 C2685 1.479 . S
C2680 C2690 1.465 . S
C2681 C2680 1.264 . S
C2681 C2683 1.339 . S
C2681 H2708 0.931 . S
C2682 C2683 1.395 . S
C2682 C2684 1.320 . S
C2683 C2681 1.339 . S
C2683 C2682 1.395 . S
C2683 H2709 0.929 . S
C2684 C2682 1.320 . S
C2684 C2685 1.405 . S
C2684 H2710 0.930 . S
C2685 C2680 1.479 . S
C2685 C2684 1.405 . S
C2685 H2711 0.931 . S
U2686 O2687 2.454 . S
U2686 O2688 2.458 . S
U2686 C2689 2.984 . S
U2686 C2690 2.847 . S
U2686 C2703 2.882 . S
U2686 O2704 2.441 . S
U2686 O2705 2.420 . S
U2686 O2706 2.455 . S
U2686 O2707 2.449 . S
O2687 U2686 2.454 . S
O2687 C2689 1.353 . S
O2688 U2686 2.458 . S
O2688 C2689 1.286 . S
C2689 U2686 2.984 . S
C2689 O2687 1.353 . S
C2689 O2688 1.286 . S
C2689 C2691 1.363 . S
C2690 C2680 1.465 . S
C2690 U2686 2.847 . S
C2690 O2704 1.249 . S
C2690 O2705 1.202 . S
C2691 C2689 1.363 . S
C2691 C2693 1.408 . S
C2691 C2696 1.342 . S
C2692 C2693 1.310 . S
C2692 C2695 1.461 . S
C2692 H2712 0.932 . S
C2693 C2691 1.408 . S
C2693 C2692 1.310 . S
C2693 H2713 0.930 . S
C2694 C2695 1.474 . S
C2694 C2696 1.285 . S
C2694 H2714 0.929 . S
C2695 C2692 1.461 . S
C2695 C2694 1.474 . S
C2696 C2691 1.342 . S
C2696 C2694 1.285 . S
C2696 H2715 0.930 . S
C2697 C2700 1.424 . S
C2697 C2702 1.245 . S
C2697 C2703 1.428 . S
C2698 C2701 1.260 . S
C2698 C2702 1.477 . S
C2698 H2716 0.932 . S
C2699 C2700 1.384 . S
C2699 C2701 1.479 . S
C2699 H2717 0.929 . S
C2700 C2697 1.424 . S
C2700 C2699 1.384 . S
C2700 H2718 0.928 . S
C2701 C2698 1.260 . S
C2701 C2699 1.479 . S
C2702 C2697 1.245 . S
C2702 C2698 1.477 . S
C2702 H2719 0.932 . S
C2703 U2686 2.882 . S
C2703 C2697 1.428 . S
C2703 O2706 1.301 . S
C2703 O2707 1.282 . S
O2704 U2686 2.441 . S
O2704 C2690 1.249 . S
O2705 U2686 2.420 . S
O2705 C2690 1.202 . S
O2706 U2686 2.455 . S
O2706 C2703 1.301 . S
O2707 U2686 2.449 . S
O2707 C2703 1.282 . S
H2708 C2681 0.931 . S
H2709 C2683 0.929 . S
H2710 C2684 0.930 . S
H2711 C2685 0.931 . S
H2712 C2692 0.932 . S
H2713 C2693 0.930 . S
H2714 C2694 0.929 . S
H2715 C2696 0.930 . S
H2716 C2698 0.932 . S
H2717 C2699 0.929 . S
H2718 C2700 0.928 . S
H2719 C2702 0.932 . S
C2720 C2721 1.264 . S
C2720 C2725 1.479 . S
C2720 C2730 1.465 . S
C2721 C2720 1.264 . S
C2721 C2723 1.339 . S
C2721 H2748 0.931 . S
C2722 C2723 1.395 . S
C2722 C2724 1.320 . S
C2723 C2721 1.339 . S
C2723 C2722 1.395 . S
C2723 H2749 0.929 . S
C2724 C2722 1.320 . S
C2724 C2725 1.405 . S
C2724 H2750 0.930 . S
C2725 C2720 1.479 . S
C2725 C2724 1.405 . S
C2725 H2751 0.931 . S
U2726 O2727 2.454 . S
U2726 O2728 2.458 . S
U2726 C2729 2.984 . S
U2726 C2730 2.847 . S
U2726 C2743 2.882 . S
U2726 O2744 2.441 . S
U2726 O2745 2.420 . S
U2726 O2746 2.455 . S
U2726 O2747 2.449 . S
O2727 U2726 2.454 . S
O2727 C2729 1.353 . S
O2728 U2726 2.458 . S
O2728 C2729 1.286 . S
C2729 U2726 2.984 . S
C2729 O2727 1.353 . S
C2729 O2728 1.286 . S
C2729 C2731 1.363 . S
C2730 C2720 1.465 . S
C2730 U2726 2.847 . S
C2730 O2744 1.249 . S
C2730 O2745 1.202 . S
C2731 C2729 1.363 . S
C2731 C2733 1.408 . S
C2731 C2736 1.342 . S
C2732 C2733 1.310 . S
C2732 C2735 1.461 . S
C2732 H2752 0.932 . S
C2733 C2731 1.408 . S
C2733 C2732 1.310 . S
C2733 H2753 0.930 . S
C2734 C2735 1.474 . S
C2734 C2736 1.285 . S
C2734 H2754 0.929 . S
C2735 C2732 1.461 . S
C2735 C2734 1.474 . S
C2736 C2731 1.342 . S
C2736 C2734 1.285 . S
C2736 H2755 0.930 . S
C2737 C2740 1.424 . S
C2737 C2742 1.245 . S
C2737 C2743 1.428 . S
C2738 C2741 1.260 . S
C2738 C2742 1.477 . S
C2738 H2756 0.932 . S
C2739 C2740 1.384 . S
C2739 C2741 1.479 . S
C2739 H2757 0.929 . S
C2740 C2737 1.424 . S
C2740 C2739 1.384 . S
C2740 H2758 0.928 . S
C2741 C2738 1.260 . S
C2741 C2739 1.479 . S
C2742 C2737 1.245 . S
C2742 C2738 1.477 . S
C2742 H2759 0.932 . S
C2743 U2726 2.882 . S
C2743 C2737 1.428 . S
C2743 O2746 1.301 . S
C2743 O2747 1.282 . S
O2744 U2726 2.441 . S
O2744 C2730 1.249 . S
O2745 U2726 2.420 . S
O2745 C2730 1.202 . S
O2746 U2726 2.455 . S
O2746 C2743 1.301 . S
O2747 U2726 2.449 . S
O2747 C2743 1.282 . S
H2748 C2721 0.931 . S
H2749 C2723 0.929 . S
H2750 C2724 0.930 . S
H2751 C2725 0.931 . S
H2752 C2732 0.932 . S
H2753 C2733 0.930 . S
H2754 C2734 0.929 . S
H2755 C2736 0.930 . S
H2756 C2738 0.932 . S
H2757 C2739 0.929 . S
H2758 C2740 0.928 . S
H2759 C2742 0.932 . S
C2760 C2761 1.264 . S
C2760 C2765 1.479 . S
C2760 C2770 1.465 . S
C2761 C2760 1.264 . S
C2761 C2763 1.339 . S
C2761 H2788 0.931 . S
C2762 C2763 1.395 . S
C2762 C2764 1.320 . S
C2763 C2761 1.339 . S
C2763 C2762 1.395 . S
C2763 H2789 0.929 . S
C2764 C2762 1.320 . S
C2764 C2765 1.405 . S
C2764 H2790 0.930 . S
C2765 C2760 1.479 . S
C2765 C2764 1.405 . S
C2765 H2791 0.931 . S
U2766 O2767 2.454 . S
U2766 O2768 2.458 . S
U2766 C2769 2.984 . S
U2766 C2770 2.847 . S
U2766 C2783 2.882 . S
U2766 O2784 2.441 . S
U2766 O2785 2.420 . S
U2766 O2786 2.455 . S
U2766 O2787 2.449 . S
O2767 U2766 2.454 . S
O2767 C2769 1.353 . S
O2768 U2766 2.458 . S
O2768 C2769 1.286 . S
C2769 U2766 2.984 . S
C2769 O2767 1.353 . S
C2769 O2768 1.286 . S
C2769 C2771 1.363 . S
C2770 C2760 1.465 . S
C2770 U2766 2.847 . S
C2770 O2784 1.249 . S
C2770 O2785 1.202 . S
C2771 C2769 1.363 . S
C2771 C2773 1.408 . S
C2771 C2776 1.342 . S
C2772 C2773 1.310 . S
C2772 C2775 1.461 . S
C2772 H2792 0.932 . S
C2773 C2771 1.408 . S
C2773 C2772 1.310 . S
C2773 H2793 0.930 . S
C2774 C2775 1.474 . S
C2774 C2776 1.285 . S
C2774 H2794 0.929 . S
C2775 C2772 1.461 . S
C2775 C2774 1.474 . S
C2776 C2771 1.342 . S
C2776 C2774 1.285 . S
C2776 H2795 0.930 . S
C2777 C2780 1.424 . S
C2777 C2782 1.245 . S
C2777 C2783 1.428 . S
C2778 C2781 1.260 . S
C2778 C2782 1.477 . S
C2778 H2796 0.932 . S
C2779 C2780 1.384 . S
C2779 C2781 1.479 . S
C2779 H2797 0.929 . S
C2780 C2777 1.424 . S
C2780 C2779 1.384 . S
C2780 H2798 0.928 . S
C2781 C2778 1.260 . S
C2781 C2779 1.479 . S
C2782 C2777 1.245 . S
C2782 C2778 1.477 . S
C2782 H2799 0.932 . S
C2783 U2766 2.882 . S
C2783 C2777 1.428 . S
C2783 O2786 1.301 . S
C2783 O2787 1.282 . S
O2784 U2766 2.441 . S
O2784 C2770 1.249 . S
O2785 U2766 2.420 . S
O2785 C2770 1.202 . S
O2786 U2766 2.455 . S
O2786 C2783 1.301 . S
O2787 U2766 2.449 . S
O2787 C2783 1.282 . S
H2788 C2761 0.931 . S
H2789 C2763 0.929 . S
H2790 C2764 0.930 . S
H2791 C2765 0.931 . S
H2792 C2772 0.932 . S
H2793 C2773 0.930 . S
H2794 C2774 0.929 . S
H2795 C2776 0.930 . S
H2796 C2778 0.932 . S
H2797 C2779 0.929 . S
H2798 C2780 0.928 . S
H2799 C2782 0.932 . S
C2800 C2801 1.264 . S
C2800 C2805 1.479 . S
C2800 C2810 1.465 . S
C2801 C2800 1.264 . S
C2801 C2803 1.339 . S
C2801 H2828 0.931 . S
C2802 C2803 1.395 . S
C2802 C2804 1.320 . S
C2803 C2801 1.339 . S
C2803 C2802 1.395 . S
C2803 H2829 0.929 . S
C2804 C2802 1.320 . S
C2804 C2805 1.405 . S
C2804 H2830 0.930 . S
C2805 C2800 1.479 . S
C2805 C2804 1.405 . S
C2805 H2831 0.931 . S
U2806 O2807 2.454 . S
U2806 O2808 2.458 . S
U2806 C2809 2.984 . S
U2806 C2810 2.847 . S
U2806 C2823 2.882 . S
U2806 O2824 2.441 . S
U2806 O2825 2.420 . S
U2806 O2826 2.455 . S
U2806 O2827 2.449 . S
O2807 U2806 2.454 . S
O2807 C2809 1.353 . S
O2808 U2806 2.458 . S
O2808 C2809 1.286 . S
C2809 U2806 2.984 . S
C2809 O2807 1.353 . S
C2809 O2808 1.286 . S
C2809 C2811 1.363 . S
C2810 C2800 1.465 . S
C2810 U2806 2.847 . S
C2810 O2824 1.249 . S
C2810 O2825 1.202 . S
C2811 C2809 1.363 . S
C2811 C2813 1.408 . S
C2811 C2816 1.342 . S
C2812 C2813 1.310 . S
C2812 C2815 1.461 . S
C2812 H2832 0.932 . S
C2813 C2811 1.408 . S
C2813 C2812 1.310 . S
C2813 H2833 0.930 . S
C2814 C2815 1.474 . S
C2814 C2816 1.285 . S
C2814 H2834 0.929 . S
C2815 C2812 1.461 . S
C2815 C2814 1.474 . S
C2816 C2811 1.342 . S
C2816 C2814 1.285 . S
C2816 H2835 0.930 . S
C2817 C2820 1.424 . S
C2817 C2822 1.245 . S
C2817 C2823 1.428 . S
C2818 C2821 1.260 . S
C2818 C2822 1.477 . S
C2818 H2836 0.932 . S
C2819 C2820 1.384 . S
C2819 C2821 1.479 . S
C2819 H2837 0.929 . S
C2820 C2817 1.424 . S
C2820 C2819 1.384 . S
C2820 H2838 0.928 . S
C2821 C2818 1.260 . S
C2821 C2819 1.479 . S
C2822 C2817 1.245 . S
C2822 C2818 1.477 . S
C2822 H2839 0.932 . S
C2823 U2806 2.882 . S
C2823 C2817 1.428 . S
C2823 O2826 1.301 . S
C2823 O2827 1.282 . S
O2824 U2806 2.441 . S
O2824 C2810 1.249 . S
O2825 U2806 2.420 . S
O2825 C2810 1.202 . S
O2826 U2806 2.455 . S
O2826 C2823 1.301 . S
O2827 U2806 2.449 . S
O2827 C2823 1.282 . S
H2828 C2801 0.931 . S
H2829 C2803 0.929 . S
H2830 C2804 0.930 . S
H2831 C2805 0.931 . S
H2832 C2812 0.932 . S
H2833 C2813 0.930 . S
H2834 C2814 0.929 . S
H2835 C2816 0.930 . S
H2836 C2818 0.932 . S
H2837 C2819 0.929 . S
H2838 C2820 0.928 . S
H2839 C2822 0.932 . S
C2840 C2841 1.264 . S
C2840 C2845 1.479 . S
C2840 C2850 1.465 . S
C2841 C2840 1.264 . S
C2841 C2843 1.339 . S
C2841 H2868 0.931 . S
C2842 C2843 1.395 . S
C2842 C2844 1.320 . S
C2843 C2841 1.339 . S
C2843 C2842 1.395 . S
C2843 H2869 0.929 . S
C2844 C2842 1.320 . S
C2844 C2845 1.405 . S
C2844 H2870 0.930 . S
C2845 C2840 1.479 . S
C2845 C2844 1.405 . S
C2845 H2871 0.931 . S
U2846 O2847 2.454 . S
U2846 O2848 2.458 . S
U2846 C2849 2.984 . S
U2846 C2850 2.847 . S
U2846 C2863 2.882 . S
U2846 O2864 2.441 . S
U2846 O2865 2.420 . S
U2846 O2866 2.455 . S
U2846 O2867 2.449 . S
O2847 U2846 2.454 . S
O2847 C2849 1.353 . S
O2848 U2846 2.458 . S
O2848 C2849 1.286 . S
C2849 U2846 2.984 . S
C2849 O2847 1.353 . S
C2849 O2848 1.286 . S
C2849 C2851 1.363 . S
C2850 C2840 1.465 . S
C2850 U2846 2.847 . S
C2850 O2864 1.249 . S
C2850 O2865 1.202 . S
C2851 C2849 1.363 . S
C2851 C2853 1.408 . S
C2851 C2856 1.342 . S
C2852 C2853 1.310 . S
C2852 C2855 1.461 . S
C2852 H2872 0.932 . S
C2853 C2851 1.408 . S
C2853 C2852 1.310 . S
C2853 H2873 0.930 . S
C2854 C2855 1.474 . S
C2854 C2856 1.285 . S
C2854 H2874 0.929 . S
C2855 C2852 1.461 . S
C2855 C2854 1.474 . S
C2856 C2851 1.342 . S
C2856 C2854 1.285 . S
C2856 H2875 0.930 . S
C2857 C2860 1.424 . S
C2857 C2862 1.245 . S
C2857 C2863 1.428 . S
C2858 C2861 1.260 . S
C2858 C2862 1.477 . S
C2858 H2876 0.932 . S
C2859 C2860 1.384 . S
C2859 C2861 1.479 . S
C2859 H2877 0.929 . S
C2860 C2857 1.424 . S
C2860 C2859 1.384 . S
C2860 H2878 0.928 . S
C2861 C2858 1.260 . S
C2861 C2859 1.479 . S
C2862 C2857 1.245 . S
C2862 C2858 1.477 . S
C2862 H2879 0.932 . S
C2863 U2846 2.882 . S
C2863 C2857 1.428 . S
C2863 O2866 1.301 . S
C2863 O2867 1.282 . S
O2864 U2846 2.441 . S
O2864 C2850 1.249 . S
O2865 U2846 2.420 . S
O2865 C2850 1.202 . S
O2866 U2846 2.455 . S
O2866 C2863 1.301 . S
O2867 U2846 2.449 . S
O2867 C2863 1.282 . S
H2868 C2841 0.931 . S
H2869 C2843 0.929 . S
H2870 C2844 0.930 . S
H2871 C2845 0.931 . S
H2872 C2852 0.932 . S
H2873 C2853 0.930 . S
H2874 C2854 0.929 . S
H2875 C2856 0.930 . S
H2876 C2858 0.932 . S
H2877 C2859 0.929 . S
H2878 C2860 0.928 . S
H2879 C2862 0.932 . S
C2880 C2881 1.264 . S
C2880 C2885 1.479 . S
C2880 C2890 1.465 . S
C2881 C2880 1.264 . S
C2881 C2883 1.339 . S
C2881 H2908 0.931 . S
C2882 C2883 1.395 . S
C2882 C2884 1.320 . S
C2883 C2881 1.339 . S
C2883 C2882 1.395 . S
C2883 H2909 0.929 . S
C2884 C2882 1.320 . S
C2884 C2885 1.405 . S
C2884 H2910 0.930 . S
C2885 C2880 1.479 . S
C2885 C2884 1.405 . S
C2885 H2911 0.931 . S
U2886 O2887 2.454 . S
U2886 O2888 2.458 . S
U2886 C2889 2.984 . S
U2886 C2890 2.847 . S
U2886 C2903 2.882 . S
U2886 O2904 2.441 . S
U2886 O2905 2.420 . S
U2886 O2906 2.455 . S
U2886 O2907 2.449 . S
O2887 U2886 2.454 . S
O2887 C2889 1.353 . S
O2888 U2886 2.458 . S
O2888 C2889 1.286 . S
C2889 U2886 2.984 . S
C2889 O2887 1.353 . S
C2889 O2888 1.286 . S
C2889 C2891 1.363 . S
C2890 C2880 1.465 . S
C2890 U2886 2.847 . S
C2890 O2904 1.249 . S
C2890 O2905 1.202 . S
C2891 C2889 1.363 . S
C2891 C2893 1.408 . S
C2891 C2896 1.342 . S
C2892 C2893 1.310 . S
C2892 C2895 1.461 . S
C2892 H2912 0.932 . S
C2893 C2891 1.408 . S
C2893 C2892 1.310 . S
C2893 H2913 0.930 . S
C2894 C2895 1.474 . S
C2894 C2896 1.285 . S
C2894 H2914 0.929 . S
C2895 C2892 1.461 . S
C2895 C2894 1.474 . S
C2896 C2891 1.342 . S
C2896 C2894 1.285 . S
C2896 H2915 0.930 . S
C2897 C2900 1.424 . S
C2897 C2902 1.245 . S
C2897 C2903 1.428 . S
C2898 C2901 1.260 . S
C2898 C2902 1.477 . S
C2898 H2916 0.932 . S
C2899 C2900 1.384 . S
C2899 C2901 1.479 . S
C2899 H2917 0.929 . S
C2900 C2897 1.424 . S
C2900 C2899 1.384 . S
C2900 H2918 0.928 . S
C2901 C2898 1.260 . S
C2901 C2899 1.479 . S
C2902 C2897 1.245 . S
C2902 C2898 1.477 . S
C2902 H2919 0.932 . S
C2903 U2886 2.882 . S
C2903 C2897 1.428 . S
C2903 O2906 1.301 . S
C2903 O2907 1.282 . S
O2904 U2886 2.441 . S
O2904 C2890 1.249 . S
O2905 U2886 2.420 . S
O2905 C2890 1.202 . S
O2906 U2886 2.455 . S
O2906 C2903 1.301 . S
O2907 U2886 2.449 . S
O2907 C2903 1.282 . S
H2908 C2881 0.931 . S
H2909 C2883 0.929 . S
H2910 C2884 0.930 . S
H2911 C2885 0.931 . S
H2912 C2892 0.932 . S
H2913 C2893 0.930 . S
H2914 C2894 0.929 . S
H2915 C2896 0.930 . S
H2916 C2898 0.932 . S
H2917 C2899 0.929 . S
H2918 C2900 0.928 . S
H2919 C2902 0.932 . S
C2920 C2921 1.264 . S
C2920 C2925 1.479 . S
C2920 C2930 1.465 . S
C2921 C2920 1.264 . S
C2921 C2923 1.339 . S
C2921 H2948 0.931 . S
C2922 C2923 1.395 . S
C2922 C2924 1.320 . S
C2923 C2921 1.339 . S
C2923 C2922 1.395 . S
C2923 H2949 0.929 . S
C2924 C2922 1.320 . S
C2924 C2925 1.405 . S
C2924 H2950 0.930 . S
C2925 C2920 1.479 . S
C2925 C2924 1.405 . S
C2925 H2951 0.931 . S
U2926 O2927 2.454 . S
U2926 O2928 2.458 . S
U2926 C2929 2.984 . S
U2926 C2930 2.847 . S
U2926 C2943 2.882 . S
U2926 O2944 2.441 . S
U2926 O2945 2.420 . S
U2926 O2946 2.455 . S
U2926 O2947 2.449 . S
O2927 U2926 2.454 . S
O2927 C2929 1.353 . S
O2928 U2926 2.458 . S
O2928 C2929 1.286 . S
C2929 U2926 2.984 . S
C2929 O2927 1.353 . S
C2929 O2928 1.286 . S
C2929 C2931 1.363 . S
C2930 C2920 1.465 . S
C2930 U2926 2.847 . S
C2930 O2944 1.249 . S
C2930 O2945 1.202 . S
C2931 C2929 1.363 . S
C2931 C2933 1.408 . S
C2931 C2936 1.342 . S
C2932 C2933 1.310 . S
C2932 C2935 1.461 . S
C2932 H2952 0.932 . S
C2933 C2931 1.408 . S
C2933 C2932 1.310 . S
C2933 H2953 0.930 . S
C2934 C2935 1.474 . S
C2934 C2936 1.285 . S
C2934 H2954 0.929 . S
C2935 C2932 1.461 . S
C2935 C2934 1.474 . S
C2936 C2931 1.342 . S
C2936 C2934 1.285 . S
C2936 H2955 0.930 . S
C2937 C2940 1.424 . S
C2937 C2942 1.245 . S
C2937 C2943 1.428 . S
C2938 C2941 1.260 . S
C2938 C2942 1.477 . S
C2938 H2956 0.932 . S
C2939 C2940 1.384 . S
C2939 C2941 1.479 . S
C2939 H2957 0.929 . S
C2940 C2937 1.424 . S
C2940 C2939 1.384 . S
C2940 H2958 0.928 . S
C2941 C2938 1.260 . S
C2941 C2939 1.479 . S
C2942 C2937 1.245 . S
C2942 C2938 1.477 . S
C2942 H2959 0.932 . S
C2943 U2926 2.882 . S
C2943 C2937 1.428 . S
C2943 O2946 1.301 . S
C2943 O2947 1.282 . S
O2944 U2926 2.441 . S
O2944 C2930 1.249 . S
O2945 U2926 2.420 . S
O2945 C2930 1.202 . S
O2946 U2926 2.455 . S
O2946 C2943 1.301 . S
O2947 U2926 2.449 . S
O2947 C2943 1.282 . S
H2948 C2921 0.931 . S
H2949 C2923 0.929 . S
H2950 C2924 0.930 . S
H2951 C2925 0.931 . S
H2952 C2932 0.932 . S
H2953 C2933 0.930 . S
H2954 C2934 0.929 . S
H2955 C2936 0.930 . S
H2956 C2938 0.932 . S
H2957 C2939 0.929 . S
H2958 C2940 0.928 . S
H2959 C2942 0.932 . S
C2960 C2961 1.264 . S
C2960 C2965 1.479 . S
C2960 C2970 1.465 . S
C2961 C2960 1.264 . S
C2961 C2963 1.339 . S
C2961 H2988 0.931 . S
C2962 C2963 1.395 . S
C2962 C2964 1.320 . S
C2963 C2961 1.339 . S
C2963 C2962 1.395 . S
C2963 H2989 0.929 . S
C2964 C2962 1.320 . S
C2964 C2965 1.405 . S
C2964 H2990 0.930 . S
C2965 C2960 1.479 . S
C2965 C2964 1.405 . S
C2965 H2991 0.931 . S
U2966 O2967 2.454 . S
U2966 O2968 2.458 . S
U2966 C2969 2.984 . S
U2966 C2970 2.847 . S
U2966 C2983 2.882 . S
U2966 O2984 2.441 . S
U2966 O2985 2.420 . S
U2966 O2986 2.455 . S
U2966 O2987 2.449 . S
O2967 U2966 2.454 . S
O2967 C2969 1.353 . S
O2968 U2966 2.458 . S
O2968 C2969 1.286 . S
C2969 U2966 2.984 . S
C2969 O2967 1.353 . S
C2969 O2968 1.286 . S
C2969 C2971 1.363 . S
C2970 C2960 1.465 . S
C2970 U2966 2.847 . S
C2970 O2984 1.249 . S
C2970 O2985 1.202 . S
C2971 C2969 1.363 . S
C2971 C2973 1.408 . S
C2971 C2976 1.342 . S
C2972 C2973 1.310 . S
C2972 C2975 1.461 . S
C2972 H2992 0.932 . S
C2973 C2971 1.408 . S
C2973 C2972 1.310 . S
C2973 H2993 0.930 . S
C2974 C2975 1.474 . S
C2974 C2976 1.285 . S
C2974 H2994 0.929 . S
C2975 C2972 1.461 . S
C2975 C2974 1.474 . S
C2976 C2971 1.342 . S
C2976 C2974 1.285 . S
C2976 H2995 0.930 . S
C2977 C2980 1.424 . S
C2977 C2982 1.245 . S
C2977 C2983 1.428 . S
C2978 C2981 1.260 . S
C2978 C2982 1.477 . S
C2978 H2996 0.932 . S
C2979 C2980 1.384 . S
C2979 C2981 1.479 . S
C2979 H2997 0.929 . S
C2980 C2977 1.424 . S
C2980 C2979 1.384 . S
C2980 H2998 0.928 . S
C2981 C2978 1.260 . S
C2981 C2979 1.479 . S
C2982 C2977 1.245 . S
C2982 C2978 1.477 . S
C2982 H2999 0.932 . S
C2983 U2966 2.882 . S
C2983 C2977 1.428 . S
C2983 O2986 1.301 . S
C2983 O2987 1.282 . S
O2984 U2966 2.441 . S
O2984 C2970 1.249 . S
O2985 U2966 2.420 . S
O2985 C2970 1.202 . S
O2986 U2966 2.455 . S
O2986 C2983 1.301 . S
O2987 U2966 2.449 . S
O2987 C2983 1.282 . S
H2988 C2961 0.931 . S
H2989 C2963 0.929 . S
H2990 C2964 0.930 . S
H2991 C2965 0.931 . S
H2992 C2972 0.932 . S
H2993 C2973 0.930 . S
H2994 C2974 0.929 . S
H2995 C2976 0.930 . S
H2996 C2978 0.932 . S
H2997 C2979 0.929 . S
H2998 C2980 0.928 . S
H2999 C2982 0.932 . S
C3000 C3001 1.264 . S
C3000 C3005 1.479 . S
C3000 C3010 1.465 . S
C3001 C3000 1.264 . S
C3001 C3003 1.339 . S
C3001 H3028 0.931 . S
C3002 C3003 1.395 . S
C3002 C3004 1.320 . S
C3003 C3001 1.339 . S
C3003 C3002 1.395 . S
C3003 H3029 0.929 . S
C3004 C3002 1.320 . S
C3004 C3005 1.405 . S
C3004 H3030 0.930 . S
C3005 C3000 1.479 . S
C3005 C3004 1.405 . S
C3005 H3031 0.931 . S
U3006 O3007 2.454 . S
U3006 O3008 2.458 . S
U3006 C3009 2.984 . S
U3006 C3010 2.847 . S
U3006 C3023 2.882 . S
U3006 O3024 2.441 . S
U3006 O3025 2.420 . S
U3006 O3026 2.455 . S
U3006 O3027 2.449 . S
O3007 U3006 2.454 . S
O3007 C3009 1.353 . S
O3008 U3006 2.458 . S
O3008 C3009 1.286 . S
C3009 U3006 2.984 . S
C3009 O3007 1.353 . S
C3009 O3008 1.286 . S
C3009 C3011 1.363 . S
C3010 C3000 1.465 . S
C3010 U3006 2.847 . S
C3010 O3024 1.249 . S
C3010 O3025 1.202 . S
C3011 C3009 1.363 . S
C3011 C3013 1.408 . S
C3011 C3016 1.342 . S
C3012 C3013 1.310 . S
C3012 C3015 1.461 . S
C3012 H3032 0.932 . S
C3013 C3011 1.408 . S
C3013 C3012 1.310 . S
C3013 H3033 0.930 . S
C3014 C3015 1.474 . S
C3014 C3016 1.285 . S
C3014 H3034 0.929 . S
C3015 C3012 1.461 . S
C3015 C3014 1.474 . S
C3016 C3011 1.342 . S
C3016 C3014 1.285 . S
C3016 H3035 0.930 . S
C3017 C3020 1.424 . S
C3017 C3022 1.245 . S
C3017 C3023 1.428 . S
C3018 C3021 1.260 . S
C3018 C3022 1.477 . S
C3018 H3036 0.932 . S
C3019 C3020 1.384 . S
C3019 C3021 1.479 . S
C3019 H3037 0.929 . S
C3020 C3017 1.424 . S
C3020 C3019 1.384 . S
C3020 H3038 0.928 . S
C3021 C3018 1.260 . S
C3021 C3019 1.479 . S
C3022 C3017 1.245 . S
C3022 C3018 1.477 . S
C3022 H3039 0.932 . S
C3023 U3006 2.882 . S
C3023 C3017 1.428 . S
C3023 O3026 1.301 . S
C3023 O3027 1.282 . S
O3024 U3006 2.441 . S
O3024 C3010 1.249 . S
O3025 U3006 2.420 . S
O3025 C3010 1.202 . S
O3026 U3006 2.455 . S
O3026 C3023 1.301 . S
O3027 U3006 2.449 . S
O3027 C3023 1.282 . S
H3028 C3001 0.931 . S
H3029 C3003 0.929 . S
H3030 C3004 0.930 . S
H3031 C3005 0.931 . S
H3032 C3012 0.932 . S
H3033 C3013 0.930 . S
H3034 C3014 0.929 . S
H3035 C3016 0.930 . S
H3036 C3018 0.932 . S
H3037 C3019 0.929 . S
H3038 C3020 0.928 . S
H3039 C3022 0.932 . S
C3040 C3041 1.264 . S
C3040 C3045 1.479 . S
C3040 C3050 1.465 . S
C3041 C3040 1.264 . S
C3041 C3043 1.339 . S
C3041 H3068 0.931 . S
C3042 C3043 1.395 . S
C3042 C3044 1.320 . S
C3043 C3041 1.339 . S
C3043 C3042 1.395 . S
C3043 H3069 0.929 . S
C3044 C3042 1.320 . S
C3044 C3045 1.405 . S
C3044 H3070 0.930 . S
C3045 C3040 1.479 . S
C3045 C3044 1.405 . S
C3045 H3071 0.931 . S
U3046 O3047 2.454 . S
U3046 O3048 2.458 . S
U3046 C3049 2.984 . S
U3046 C3050 2.847 . S
U3046 C3063 2.882 . S
U3046 O3064 2.441 . S
U3046 O3065 2.420 . S
U3046 O3066 2.455 . S
U3046 O3067 2.449 . S
O3047 U3046 2.454 . S
O3047 C3049 1.353 . S
O3048 U3046 2.458 . S
O3048 C3049 1.286 . S
C3049 U3046 2.984 . S
C3049 O3047 1.353 . S
C3049 O3048 1.286 . S
C3049 C3051 1.363 . S
C3050 C3040 1.465 . S
C3050 U3046 2.847 . S
C3050 O3064 1.249 . S
C3050 O3065 1.202 . S
C3051 C3049 1.363 . S
C3051 C3053 1.408 . S
C3051 C3056 1.342 . S
C3052 C3053 1.310 . S
C3052 C3055 1.461 . S
C3052 H3072 0.932 . S
C3053 C3051 1.408 . S
C3053 C3052 1.310 . S
C3053 H3073 0.930 . S
C3054 C3055 1.474 . S
C3054 C3056 1.285 . S
C3054 H3074 0.929 . S
C3055 C3052 1.461 . S
C3055 C3054 1.474 . S
C3056 C3051 1.342 . S
C3056 C3054 1.285 . S
C3056 H3075 0.930 . S
C3057 C3060 1.424 . S
C3057 C3062 1.245 . S
C3057 C3063 1.428 . S
C3058 C3061 1.260 . S
C3058 C3062 1.477 . S
C3058 H3076 0.932 . S
C3059 C3060 1.384 . S
C3059 C3061 1.479 . S
C3059 H3077 0.929 . S
C3060 C3057 1.424 . S
C3060 C3059 1.384 . S
C3060 H3078 0.928 . S
C3061 C3058 1.260 . S
C3061 C3059 1.479 . S
C3062 C3057 1.245 . S
C3062 C3058 1.477 . S
C3062 H3079 0.932 . S
C3063 U3046 2.882 . S
C3063 C3057 1.428 . S
C3063 O3066 1.301 . S
C3063 O3067 1.282 . S
O3064 U3046 2.441 . S
O3064 C3050 1.249 . S
O3065 U3046 2.420 . S
O3065 C3050 1.202 . S
O3066 U3046 2.455 . S
O3066 C3063 1.301 . S
O3067 U3046 2.449 . S
O3067 C3063 1.282 . S
H3068 C3041 0.931 . S
H3069 C3043 0.929 . S
H3070 C3044 0.930 . S
H3071 C3045 0.931 . S
H3072 C3052 0.932 . S
H3073 C3053 0.930 . S
H3074 C3054 0.929 . S
H3075 C3056 0.930 . S
H3076 C3058 0.932 . S
H3077 C3059 0.929 . S
H3078 C3060 0.928 . S
H3079 C3062 0.932 . S
C3080 C3081 1.264 . S
C3080 C3085 1.479 . S
C3080 C3090 1.465 . S
C3081 C3080 1.264 . S
C3081 C3083 1.339 . S
C3081 H3108 0.931 . S
C3082 C3083 1.395 . S
C3082 C3084 1.320 . S
C3083 C3081 1.339 . S
C3083 C3082 1.395 . S
C3083 H3109 0.929 . S
C3084 C3082 1.320 . S
C3084 C3085 1.405 . S
C3084 H3110 0.930 . S
C3085 C3080 1.479 . S
C3085 C3084 1.405 . S
C3085 H3111 0.931 . S
U3086 O3087 2.454 . S
U3086 O3088 2.458 . S
U3086 C3089 2.984 . S
U3086 C3090 2.847 . S
U3086 C3103 2.882 . S
U3086 O3104 2.441 . S
U3086 O3105 2.420 . S
U3086 O3106 2.455 . S
U3086 O3107 2.449 . S
O3087 U3086 2.454 . S
O3087 C3089 1.353 . S
O3088 U3086 2.458 . S
O3088 C3089 1.286 . S
C3089 U3086 2.984 . S
C3089 O3087 1.353 . S
C3089 O3088 1.286 . S
C3089 C3091 1.363 . S
C3090 C3080 1.465 . S
C3090 U3086 2.847 . S
C3090 O3104 1.249 . S
C3090 O3105 1.202 . S
C3091 C3089 1.363 . S
C3091 C3093 1.408 . S
C3091 C3096 1.342 . S
C3092 C3093 1.310 . S
C3092 C3095 1.461 . S
C3092 H3112 0.932 . S
C3093 C3091 1.408 . S
C3093 C3092 1.310 . S
C3093 H3113 0.930 . S
C3094 C3095 1.474 . S
C3094 C3096 1.285 . S
C3094 H3114 0.929 . S
C3095 C3092 1.461 . S
C3095 C3094 1.474 . S
C3096 C3091 1.342 . S
C3096 C3094 1.285 . S
C3096 H3115 0.930 . S
C3097 C3100 1.424 . S
C3097 C3102 1.245 . S
C3097 C3103 1.428 . S
C3098 C3101 1.260 . S
C3098 C3102 1.477 . S
C3098 H3116 0.932 . S
C3099 C3100 1.384 . S
C3099 C3101 1.479 . S
C3099 H3117 0.929 . S
C3100 C3097 1.424 . S
C3100 C3099 1.384 . S
C3100 H3118 0.928 . S
C3101 C3098 1.260 . S
C3101 C3099 1.479 . S
C3102 C3097 1.245 . S
C3102 C3098 1.477 . S
C3102 H3119 0.932 . S
C3103 U3086 2.882 . S
C3103 C3097 1.428 . S
C3103 O3106 1.301 . S
C3103 O3107 1.282 . S
O3104 U3086 2.441 . S
O3104 C3090 1.249 . S
O3105 U3086 2.420 . S
O3105 C3090 1.202 . S
O3106 U3086 2.455 . S
O3106 C3103 1.301 . S
O3107 U3086 2.449 . S
O3107 C3103 1.282 . S
H3108 C3081 0.931 . S
H3109 C3083 0.929 . S
H3110 C3084 0.930 . S
H3111 C3085 0.931 . S
H3112 C3092 0.932 . S
H3113 C3093 0.930 . S
H3114 C3094 0.929 . S
H3115 C3096 0.930 . S
H3116 C3098 0.932 . S
H3117 C3099 0.929 . S
H3118 C3100 0.928 . S
H3119 C3102 0.932 . S
C3120 C3121 1.264 . S
C3120 C3125 1.479 . S
C3120 C3130 1.465 . S
C3121 C3120 1.264 . S
C3121 C3123 1.339 . S
C3121 H3148 0.931 . S
C3122 C3123 1.395 . S
C3122 C3124 1.320 . S
C3123 C3121 1.339 . S
C3123 C3122 1.395 . S
C3123 H3149 0.929 . S
C3124 C3122 1.320 . S
C3124 C3125 1.405 . S
C3124 H3150 0.930 . S
C3125 C3120 1.479 . S
C3125 C3124 1.405 . S
C3125 H3151 0.931 . S
U3126 O3127 2.454 . S
U3126 O3128 2.458 . S
U3126 C3129 2.984 . S
U3126 C3130 2.847 . S
U3126 C3143 2.882 . S
U3126 O3144 2.441 . S
U3126 O3145 2.420 . S
U3126 O3146 2.455 . S
U3126 O3147 2.449 . S
O3127 U3126 2.454 . S
O3127 C3129 1.353 . S
O3128 U3126 2.458 . S
O3128 C3129 1.286 . S
C3129 U3126 2.984 . S
C3129 O3127 1.353 . S
C3129 O3128 1.286 . S
C3129 C3131 1.363 . S
C3130 C3120 1.465 . S
C3130 U3126 2.847 . S
C3130 O3144 1.249 . S
C3130 O3145 1.202 . S
C3131 C3129 1.363 . S
C3131 C3133 1.408 . S
C3131 C3136 1.342 . S
C3132 C3133 1.310 . S
C3132 C3135 1.461 . S
C3132 H3152 0.932 . S
C3133 C3131 1.408 . S
C3133 C3132 1.310 . S
C3133 H3153 0.930 . S
C3134 C3135 1.474 . S
C3134 C3136 1.285 . S
C3134 H3154 0.929 . S
C3135 C3132 1.461 . S
C3135 C3134 1.474 . S
C3136 C3131 1.342 . S
C3136 C3134 1.285 . S
C3136 H3155 0.930 . S
C3137 C3140 1.424 . S
C3137 C3142 1.245 . S
C3137 C3143 1.428 . S
C3138 C3141 1.260 . S
C3138 C3142 1.477 . S
C3138 H3156 0.932 . S
C3139 C3140 1.384 . S
C3139 C3141 1.479 . S
C3139 H3157 0.929 . S
C3140 C3137 1.424 . S
C3140 C3139 1.384 . S
C3140 H3158 0.928 . S
C3141 C3138 1.260 . S
C3141 C3139 1.479 . S
C3142 C3137 1.245 . S
C3142 C3138 1.477 . S
C3142 H3159 0.932 . S
C3143 U3126 2.882 . S
C3143 C3137 1.428 . S
C3143 O3146 1.301 . S
C3143 O3147 1.282 . S
O3144 U3126 2.441 . S
O3144 C3130 1.249 . S
O3145 U3126 2.420 . S
O3145 C3130 1.202 . S
O3146 U3126 2.455 . S
O3146 C3143 1.301 . S
O3147 U3126 2.449 . S
O3147 C3143 1.282 . S
H3148 C3121 0.931 . S
H3149 C3123 0.929 . S
H3150 C3124 0.930 . S
H3151 C3125 0.931 . S
H3152 C3132 0.932 . S
H3153 C3133 0.930 . S
H3154 C3134 0.929 . S
H3155 C3136 0.930 . S
H3156 C3138 0.932 . S
H3157 C3139 0.929 . S
H3158 C3140 0.928 . S
H3159 C3142 0.932 . S
C3160 C3161 1.264 . S
C3160 C3165 1.479 . S
C3160 C3170 1.465 . S
C3161 C3160 1.264 . S
C3161 C3163 1.339 . S
C3161 H3188 0.931 . S
C3162 C3163 1.395 . S
C3162 C3164 1.320 . S
C3163 C3161 1.339 . S
C3163 C3162 1.395 . S
C3163 H3189 0.929 . S
C3164 C3162 1.320 . S
C3164 C3165 1.405 . S
C3164 H3190 0.930 . S
C3165 C3160 1.479 . S
C3165 C3164 1.405 . S
C3165 H3191 0.931 . S
U3166 O3167 2.454 . S
U3166 O3168 2.458 . S
U3166 C3169 2.984 . S
U3166 C3170 2.847 . S
U3166 C3183 2.882 . S
U3166 O3184 2.441 . S
U3166 O3185 2.420 . S
U3166 O3186 2.455 . S
U3166 O3187 2.449 . S
O3167 U3166 2.454 . S
O3167 C3169 1.353 . S
O3168 U3166 2.458 . S
O3168 C3169 1.286 . S
C3169 U3166 2.984 . S
C3169 O3167 1.353 . S
C3169 O3168 1.286 . S
C3169 C3171 1.363 . S
C3170 C3160 1.465 . S
C3170 U3166 2.847 . S
C3170 O3184 1.249 . S
C3170 O3185 1.202 . S
C3171 C3169 1.363 . S
C3171 C3173 1.408 . S
C3171 C3176 1.342 . S
C3172 C3173 1.310 . S
C3172 C3175 1.461 . S
C3172 H3192 0.932 . S
C3173 C3171 1.408 . S
C3173 C3172 1.310 . S
C3173 H3193 0.930 . S
C3174 C3175 1.474 . S
C3174 C3176 1.285 . S
C3174 H3194 0.929 . S
C3175 C3172 1.461 . S
C3175 C3174 1.474 . S
C3176 C3171 1.342 . S
C3176 C3174 1.285 . S
C3176 H3195 0.930 . S
C3177 C3180 1.424 . S
C3177 C3182 1.245 . S
C3177 C3183 1.428 . S
C3178 C3181 1.260 . S
C3178 C3182 1.477 . S
C3178 H3196 0.932 . S
C3179 C3180 1.384 . S
C3179 C3181 1.479 . S
C3179 H3197 0.929 . S
C3180 C3177 1.424 . S
C3180 C3179 1.384 . S
C3180 H3198 0.928 . S
C3181 C3178 1.260 . S
C3181 C3179 1.479 . S
C3182 C3177 1.245 . S
C3182 C3178 1.477 . S
C3182 H3199 0.932 . S
C3183 U3166 2.882 . S
C3183 C3177 1.428 . S
C3183 O3186 1.301 . S
C3183 O3187 1.282 . S
O3184 U3166 2.441 . S
O3184 C3170 1.249 . S
O3185 U3166 2.420 . S
O3185 C3170 1.202 . S
O3186 U3166 2.455 . S
O3186 C3183 1.301 . S
O3187 U3166 2.449 . S
O3187 C3183 1.282 . S
H3188 C3161 0.931 . S
H3189 C3163 0.929 . S
H3190 C3164 0.930 . S
H3191 C3165 0.931 . S
H3192 C3172 0.932 . S
H3193 C3173 0.930 . S
H3194 C3174 0.929 . S
H3195 C3176 0.930 . S
H3196 C3178 0.932 . S
H3197 C3179 0.929 . S
H3198 C3180 0.928 . S
H3199 C3182 0.932 . S
C3200 C3201 1.264 . S
C3200 C3205 1.479 . S
C3200 C3210 1.465 . S
C3201 C3200 1.264 . S
C3201 C3203 1.339 . S
C3201 H3228 0.931 . S
C3202 C3203 1.395 . S
C3202 C3204 1.320 . S
C3203 C3201 1.339 . S
C3203 C3202 1.395 . S
C3203 H3229 0.929 . S
C3204 C3202 1.320 . S
C3204 C3205 1.405 . S
C3204 H3230 0.930 . S
C3205 C3200 1.479 . S
C3205 C3204 1.405 . S
C3205 H3231 0.931 . S
U3206 O3207 2.454 . S
U3206 O3208 2.458 . S
U3206 C3209 2.984 . S
U3206 C3210 2.847 . S
U3206 C3223 2.882 . S
U3206 O3224 2.441 . S
U3206 O3225 2.420 . S
U3206 O3226 2.455 . S
U3206 O3227 2.449 . S
O3207 U3206 2.454 . S
O3207 C3209 1.353 . S
O3208 U3206 2.458 . S
O3208 C3209 1.286 . S
C3209 U3206 2.984 . S
C3209 O3207 1.353 . S
C3209 O3208 1.286 . S
C3209 C3211 1.363 . S
C3210 C3200 1.465 . S
C3210 U3206 2.847 . S
C3210 O3224 1.249 . S
C3210 O3225 1.202 . S
C3211 C3209 1.363 . S
C3211 C3213 1.408 . S
C3211 C3216 1.342 . S
C3212 C3213 1.310 . S
C3212 C3215 1.461 . S
C3212 H3232 0.932 . S
C3213 C3211 1.408 . S
C3213 C3212 1.310 . S
C3213 H3233 0.930 . S
C3214 C3215 1.474 . S
C3214 C3216 1.285 . S
C3214 H3234 0.929 . S
C3215 C3212 1.461 . S
C3215 C3214 1.474 . S
C3216 C3211 1.342 . S
C3216 C3214 1.285 . S
C3216 H3235 0.930 . S
C3217 C3220 1.424 . S
C3217 C3222 1.245 . S
C3217 C3223 1.428 . S
C3218 C3221 1.260 . S
C3218 C3222 1.477 . S
C3218 H3236 0.932 . S
C3219 C3220 1.384 . S
C3219 C3221 1.479 . S
C3219 H3237 0.929 . S
C3220 C3217 1.424 . S
C3220 C3219 1.384 . S
C3220 H3238 0.928 . S
C3221 C3218 1.260 . S
C3221 C3219 1.479 . S
C3222 C3217 1.245 . S
C3222 C3218 1.477 . S
C3222 H3239 0.932 . S
C3223 U3206 2.882 . S
C3223 C3217 1.428 . S
C3223 O3226 1.301 . S
C3223 O3227 1.282 . S
O3224 U3206 2.441 . S
O3224 C3210 1.249 . S
O3225 U3206 2.420 . S
O3225 C3210 1.202 . S
O3226 U3206 2.455 . S
O3226 C3223 1.301 . S
O3227 U3206 2.449 . S
O3227 C3223 1.282 . S
H3228 C3201 0.931 . S
H3229 C3203 0.929 . S
H3230 C3204 0.930 . S
H3231 C3205 0.931 . S
H3232 C3212 0.932 . S
H3233 C3213 0.930 . S
H3234 C3214 0.929 . S
H3235 C3216 0.930 . S
H3236 C3218 0.932 . S
H3237 C3219 0.929 . S
H3238 C3220 0.928 . S
H3239 C3222 0.932 . S
C3240 C3241 1.264 . S
C3240 C3245 1.479 . S
C3240 C3250 1.465 . S
C3241 C3240 1.264 . S
C3241 C3243 1.339 . S
C3241 H3268 0.931 . S
C3242 C3243 1.395 . S
C3242 C3244 1.320 . S
C3243 C3241 1.339 . S
C3243 C3242 1.395 . S
C3243 H3269 0.929 . S
C3244 C3242 1.320 . S
C3244 C3245 1.405 . S
C3244 H3270 0.930 . S
C3245 C3240 1.479 . S
C3245 C3244 1.405 . S
C3245 H3271 0.931 . S
U3246 O3247 2.454 . S
U3246 O3248 2.458 . S
U3246 C3249 2.984 . S
U3246 C3250 2.847 . S
U3246 C3263 2.882 . S
U3246 O3264 2.441 . S
U3246 O3265 2.420 . S
U3246 O3266 2.455 . S
U3246 O3267 2.449 . S
O3247 U3246 2.454 . S
O3247 C3249 1.353 . S
O3248 U3246 2.458 . S
O3248 C3249 1.286 . S
C3249 U3246 2.984 . S
C3249 O3247 1.353 . S
C3249 O3248 1.286 . S
C3249 C3251 1.363 . S
C3250 C3240 1.465 . S
C3250 U3246 2.847 . S
C3250 O3264 1.249 . S
C3250 O3265 1.202 . S
C3251 C3249 1.363 . S
C3251 C3253 1.408 . S
C3251 C3256 1.342 . S
C3252 C3253 1.310 . S
C3252 C3255 1.461 . S
C3252 H3272 0.932 . S
C3253 C3251 1.408 . S
C3253 C3252 1.310 . S
C3253 H3273 0.930 . S
C3254 C3255 1.474 . S
C3254 C3256 1.285 . S
C3254 H3274 0.929 . S
C3255 C3252 1.461 . S
C3255 C3254 1.474 . S
C3256 C3251 1.342 . S
C3256 C3254 1.285 . S
C3256 H3275 0.930 . S
C3257 C3260 1.424 . S
C3257 C3262 1.245 . S
C3257 C3263 1.428 . S
C3258 C3261 1.260 . S
C3258 C3262 1.477 . S
C3258 H3276 0.932 . S
C3259 C3260 1.384 . S
C3259 C3261 1.479 . S
C3259 H3277 0.929 . S
C3260 C3257 1.424 . S
C3260 C3259 1.384 . S
C3260 H3278 0.928 . S
C3261 C3258 1.260 . S
C3261 C3259 1.479 . S
C3262 C3257 1.245 . S
C3262 C3258 1.477 . S
C3262 H3279 0.932 . S
C3263 U3246 2.882 . S
C3263 C3257 1.428 . S
C3263 O3266 1.301 . S
C3263 O3267 1.282 . S
O3264 U3246 2.441 . S
O3264 C3250 1.249 . S
O3265 U3246 2.420 . S
O3265 C3250 1.202 . S
O3266 U3246 2.455 . S
O3266 C3263 1.301 . S
O3267 U3246 2.449 . S
O3267 C3263 1.282 . S
H3268 C3241 0.931 . S
H3269 C3243 0.929 . S
H3270 C3244 0.930 . S
H3271 C3245 0.931 . S
H3272 C3252 0.932 . S
H3273 C3253 0.930 . S
H3274 C3254 0.929 . S
H3275 C3256 0.930 . S
H3276 C3258 0.932 . S
H3277 C3259 0.929 . S
H3278 C3260 0.928 . S
H3279 C3262 0.932 . S
C3280 C3281 1.264 . S
C3280 C3285 1.479 . S
C3280 C3290 1.465 . S
C3281 C3280 1.264 . S
C3281 C3283 1.339 . S
C3281 H3308 0.931 . S
C3282 C3283 1.395 . S
C3282 C3284 1.320 . S
C3283 C3281 1.339 . S
C3283 C3282 1.395 . S
C3283 H3309 0.929 . S
C3284 C3282 1.320 . S
C3284 C3285 1.405 . S
C3284 H3310 0.930 . S
C3285 C3280 1.479 . S
C3285 C3284 1.405 . S
C3285 H3311 0.931 . S
U3286 O3287 2.454 . S
U3286 O3288 2.458 . S
U3286 C3289 2.984 . S
U3286 C3290 2.847 . S
U3286 C3303 2.882 . S
U3286 O3304 2.441 . S
U3286 O3305 2.420 . S
U3286 O3306 2.455 . S
U3286 O3307 2.449 . S
O3287 U3286 2.454 . S
O3287 C3289 1.353 . S
O3288 U3286 2.458 . S
O3288 C3289 1.286 . S
C3289 U3286 2.984 . S
C3289 O3287 1.353 . S
C3289 O3288 1.286 . S
C3289 C3291 1.363 . S
C3290 C3280 1.465 . S
C3290 U3286 2.847 . S
C3290 O3304 1.249 . S
C3290 O3305 1.202 . S
C3291 C3289 1.363 . S
C3291 C3293 1.408 . S
C3291 C3296 1.342 . S
C3292 C3293 1.310 . S
C3292 C3295 1.461 . S
C3292 H3312 0.932 . S
C3293 C3291 1.408 . S
C3293 C3292 1.310 . S
C3293 H3313 0.930 . S
C3294 C3295 1.474 . S
C3294 C3296 1.285 . S
C3294 H3314 0.929 . S
C3295 C3292 1.461 . S
C3295 C3294 1.474 . S
C3296 C3291 1.342 . S
C3296 C3294 1.285 . S
C3296 H3315 0.930 . S
C3297 C3300 1.424 . S
C3297 C3302 1.245 . S
C3297 C3303 1.428 . S
C3298 C3301 1.260 . S
C3298 C3302 1.477 . S
C3298 H3316 0.932 . S
C3299 C3300 1.384 . S
C3299 C3301 1.479 . S
C3299 H3317 0.929 . S
C3300 C3297 1.424 . S
C3300 C3299 1.384 . S
C3300 H3318 0.928 . S
C3301 C3298 1.260 . S
C3301 C3299 1.479 . S
C3302 C3297 1.245 . S
C3302 C3298 1.477 . S
C3302 H3319 0.932 . S
C3303 U3286 2.882 . S
C3303 C3297 1.428 . S
C3303 O3306 1.301 . S
C3303 O3307 1.282 . S
O3304 U3286 2.441 . S
O3304 C3290 1.249 . S
O3305 U3286 2.420 . S
O3305 C3290 1.202 . S
O3306 U3286 2.455 . S
O3306 C3303 1.301 . S
O3307 U3286 2.449 . S
O3307 C3303 1.282 . S
H3308 C3281 0.931 . S
H3309 C3283 0.929 . S
H3310 C3284 0.930 . S
H3311 C3285 0.931 . S
H3312 C3292 0.932 . S
H3313 C3293 0.930 . S
H3314 C3294 0.929 . S
H3315 C3296 0.930 . S
H3316 C3298 0.932 . S
H3317 C3299 0.929 . S
H3318 C3300 0.928 . S
H3319 C3302 0.932 . S
C3320 C3321 1.264 . S
C3320 C3325 1.479 . S
C3320 C3330 1.465 . S
C3321 C3320 1.264 . S
C3321 C3323 1.339 . S
C3321 H3348 0.931 . S
C3322 C3323 1.395 . S
C3322 C3324 1.320 . S
C3323 C3321 1.339 . S
C3323 C3322 1.395 . S
C3323 H3349 0.929 . S
C3324 C3322 1.320 . S
C3324 C3325 1.405 . S
C3324 H3350 0.930 . S
C3325 C3320 1.479 . S
C3325 C3324 1.405 . S
C3325 H3351 0.931 . S
U3326 O3327 2.454 . S
U3326 O3328 2.458 . S
U3326 C3329 2.984 . S
U3326 C3330 2.847 . S
U3326 C3343 2.882 . S
U3326 O3344 2.441 . S
U3326 O3345 2.420 . S
U3326 O3346 2.455 . S
U3326 O3347 2.449 . S
O3327 U3326 2.454 . S
O3327 C3329 1.353 . S
O3328 U3326 2.458 . S
O3328 C3329 1.286 . S
C3329 U3326 2.984 . S
C3329 O3327 1.353 . S
C3329 O3328 1.286 . S
C3329 C3331 1.363 . S
C3330 C3320 1.465 . S
C3330 U3326 2.847 . S
C3330 O3344 1.249 . S
C3330 O3345 1.202 . S
C3331 C3329 1.363 . S
C3331 C3333 1.408 . S
C3331 C3336 1.342 . S
C3332 C3333 1.310 . S
C3332 C3335 1.461 . S
C3332 H3352 0.932 . S
C3333 C3331 1.408 . S
C3333 C3332 1.310 . S
C3333 H3353 0.930 . S
C3334 C3335 1.474 . S
C3334 C3336 1.285 . S
C3334 H3354 0.929 . S
C3335 C3332 1.461 . S
C3335 C3334 1.474 . S
C3336 C3331 1.342 . S
C3336 C3334 1.285 . S
C3336 H3355 0.930 . S
C3337 C3340 1.424 . S
C3337 C3342 1.245 . S
C3337 C3343 1.428 . S
C3338 C3341 1.260 . S
C3338 C3342 1.477 . S
C3338 H3356 0.932 . S
C3339 C3340 1.384 . S
C3339 C3341 1.479 . S
C3339 H3357 0.929 . S
C3340 C3337 1.424 . S
C3340 C3339 1.384 . S
C3340 H3358 0.928 . S
C3341 C3338 1.260 . S
C3341 C3339 1.479 . S
C3342 C3337 1.245 . S
C3342 C3338 1.477 . S
C3342 H3359 0.932 . S
C3343 U3326 2.882 . S
C3343 C3337 1.428 . S
C3343 O3346 1.301 . S
C3343 O3347 1.282 . S
O3344 U3326 2.441 . S
O3344 C3330 1.249 . S
O3345 U3326 2.420 . S
O3345 C3330 1.202 . S
O3346 U3326 2.455 . S
O3346 C3343 1.301 . S
O3347 U3326 2.449 . S
O3347 C3343 1.282 . S
H3348 C3321 0.931 . S
H3349 C3323 0.929 . S
H3350 C3324 0.930 . S
H3351 C3325 0.931 . S
H3352 C3332 0.932 . S
H3353 C3333 0.930 . S
H3354 C3334 0.929 . S
H3355 C3336 0.930 . S
H3356 C3338 0.932 . S
H3357 C3339 0.929 . S
H3358 C3340 0.928 . S
H3359 C3342 0.932 . S
C3360 C3361 1.264 . S
C3360 C3365 1.479 . S
C3360 C3370 1.465 . S
C3361 C3360 1.264 . S
C3361 C3363 1.339 . S
C3361 H3388 0.931 . S
C3362 C3363 1.395 . S
C3362 C3364 1.320 . S
C3363 C3361 1.339 . S
C3363 C3362 1.395 . S
C3363 H3389 0.929 . S
C3364 C3362 1.320 . S
C3364 C3365 1.405 . S
C3364 H3390 0.930 . S
C3365 C3360 1.479 . S
C3365 C3364 1.405 . S
C3365 H3391 0.931 . S
U3366 O3367 2.454 . S
U3366 O3368 2.458 . S
U3366 C3369 2.984 . S
U3366 C3370 2.847 . S
U3366 C3383 2.882 . S
U3366 O3384 2.441 . S
U3366 O3385 2.420 . S
U3366 O3386 2.455 . S
U3366 O3387 2.449 . S
O3367 U3366 2.454 . S
O3367 C3369 1.353 . S
O3368 U3366 2.458 . S
O3368 C3369 1.286 . S
C3369 U3366 2.984 . S
C3369 O3367 1.353 . S
C3369 O3368 1.286 . S
C3369 C3371 1.363 . S
C3370 C3360 1.465 . S
C3370 U3366 2.847 . S
C3370 O3384 1.249 . S
C3370 O3385 1.202 . S
C3371 C3369 1.363 . S
C3371 C3373 1.408 . S
C3371 C3376 1.342 . S
C3372 C3373 1.310 . S
C3372 C3375 1.461 . S
C3372 H3392 0.932 . S
C3373 C3371 1.408 . S
C3373 C3372 1.310 . S
C3373 H3393 0.930 . S
C3374 C3375 1.474 . S
C3374 C3376 1.285 . S
C3374 H3394 0.929 . S
C3375 C3372 1.461 . S
C3375 C3374 1.474 . S
C3376 C3371 1.342 . S
C3376 C3374 1.285 . S
C3376 H3395 0.930 . S
C3377 C3380 1.424 . S
C3377 C3382 1.245 . S
C3377 C3383 1.428 . S
C3378 C3381 1.260 . S
C3378 C3382 1.477 . S
C3378 H3396 0.932 . S
C3379 C3380 1.384 . S
C3379 C3381 1.479 . S
C3379 H3397 0.929 . S
C3380 C3377 1.424 . S
C3380 C3379 1.384 . S
C3380 H3398 0.928 . S
C3381 C3378 1.260 . S
C3381 C3379 1.479 . S
C3382 C3377 1.245 . S
C3382 C3378 1.477 . S
C3382 H3399 0.932 . S
C3383 U3366 2.882 . S
C3383 C3377 1.428 . S
C3383 O3386 1.301 . S
C3383 O3387 1.282 . S
O3384 U3366 2.441 . S
O3384 C3370 1.249 . S
O3385 U3366 2.420 . S
O3385 C3370 1.202 . S
O3386 U3366 2.455 . S
O3386 C3383 1.301 . S
O3387 U3366 2.449 . S
O3387 C3383 1.282 . S
H3388 C3361 0.931 . S
H3389 C3363 0.929 . S
H3390 C3364 0.930 . S
H3391 C3365 0.931 . S
H3392 C3372 0.932 . S
H3393 C3373 0.930 . S
H3394 C3374 0.929 . S
H3395 C3376 0.930 . S
H3396 C3378 0.932 . S
H3397 C3379 0.929 . S
H3398 C3380 0.928 . S
H3399 C3382 0.932 . S
C3400 C3401 1.264 . S
C3400 C3405 1.479 . S
C3400 C3410 1.465 . S
C3401 C3400 1.264 . S
C3401 C3403 1.339 . S
C3401 H3428 0.931 . S
C3402 C3403 1.395 . S
C3402 C3404 1.320 . S
C3403 C3401 1.339 . S
C3403 C3402 1.395 . S
C3403 H3429 0.929 . S
C3404 C3402 1.320 . S
C3404 C3405 1.405 . S
C3404 H3430 0.930 . S
C3405 C3400 1.479 . S
C3405 C3404 1.405 . S
C3405 H3431 0.931 . S
U3406 O3407 2.454 . S
U3406 O3408 2.458 . S
U3406 C3409 2.984 . S
U3406 C3410 2.847 . S
U3406 C3423 2.882 . S
U3406 O3424 2.441 . S
U3406 O3425 2.420 . S
U3406 O3426 2.455 . S
U3406 O3427 2.449 . S
O3407 U3406 2.454 . S
O3407 C3409 1.353 . S
O3408 U3406 2.458 . S
O3408 C3409 1.286 . S
C3409 U3406 2.984 . S
C3409 O3407 1.353 . S
C3409 O3408 1.286 . S
C3409 C3411 1.363 . S
C3410 C3400 1.465 . S
C3410 U3406 2.847 . S
C3410 O3424 1.249 . S
C3410 O3425 1.202 . S
C3411 C3409 1.363 . S
C3411 C3413 1.408 . S
C3411 C3416 1.342 . S
C3412 C3413 1.310 . S
C3412 C3415 1.461 . S
C3412 H3432 0.932 . S
C3413 C3411 1.408 . S
C3413 C3412 1.310 . S
C3413 H3433 0.930 . S
C3414 C3415 1.474 . S
C3414 C3416 1.285 . S
C3414 H3434 0.929 . S
C3415 C3412 1.461 . S
C3415 C3414 1.474 . S
C3416 C3411 1.342 . S
C3416 C3414 1.285 . S
C3416 H3435 0.930 . S
C3417 C3420 1.424 . S
C3417 C3422 1.245 . S
C3417 C3423 1.428 . S
C3418 C3421 1.260 . S
C3418 C3422 1.477 . S
C3418 H3436 0.932 . S
C3419 C3420 1.384 . S
C3419 C3421 1.479 . S
C3419 H3437 0.929 . S
C3420 C3417 1.424 . S
C3420 C3419 1.384 . S
C3420 H3438 0.928 . S
C3421 C3418 1.260 . S
C3421 C3419 1.479 . S
C3422 C3417 1.245 . S
C3422 C3418 1.477 . S
C3422 H3439 0.932 . S
C3423 U3406 2.882 . S
C3423 C3417 1.428 . S
C3423 O3426 1.301 . S
C3423 O3427 1.282 . S
O3424 U3406 2.441 . S
O3424 C3410 1.249 . S
O3425 U3406 2.420 . S
O3425 C3410 1.202 . S
O3426 U3406 2.455 . S
O3426 C3423 1.301 . S
O3427 U3406 2.449 . S
O3427 C3423 1.282 . S
H3428 C3401 0.931 . S
H3429 C3403 0.929 . S
H3430 C3404 0.930 . S
H3431 C3405 0.931 . S
H3432 C3412 0.932 . S
H3433 C3413 0.930 . S
H3434 C3414 0.929 . S
H3435 C3416 0.930 . S
H3436 C3418 0.932 . S
H3437 C3419 0.929 . S
H3438 C3420 0.928 . S
H3439 C3422 0.932 . S
C3440 C3441 1.264 . S
C3440 C3445 1.479 . S
C3440 C3450 1.465 . S
C3441 C3440 1.264 . S
C3441 C3443 1.339 . S
C3441 H3468 0.931 . S
C3442 C3443 1.395 . S
C3442 C3444 1.320 . S
C3443 C3441 1.339 . S
C3443 C3442 1.395 . S
C3443 H3469 0.929 . S
C3444 C3442 1.320 . S
C3444 C3445 1.405 . S
C3444 H3470 0.930 . S
C3445 C3440 1.479 . S
C3445 C3444 1.405 . S
C3445 H3471 0.931 . S
U3446 O3447 2.454 . S
U3446 O3448 2.458 . S
U3446 C3449 2.984 . S
U3446 C3450 2.847 . S
U3446 C3463 2.882 . S
U3446 O3464 2.441 . S
U3446 O3465 2.420 . S
U3446 O3466 2.455 . S
U3446 O3467 2.449 . S
O3447 U3446 2.454 . S
O3447 C3449 1.353 . S
O3448 U3446 2.458 . S
O3448 C3449 1.286 . S
C3449 U3446 2.984 . S
C3449 O3447 1.353 . S
C3449 O3448 1.286 . S
C3449 C3451 1.363 . S
C3450 C3440 1.465 . S
C3450 U3446 2.847 . S
C3450 O3464 1.249 . S
C3450 O3465 1.202 . S
C3451 C3449 1.363 . S
C3451 C3453 1.408 . S
C3451 C3456 1.342 . S
C3452 C3453 1.310 . S
C3452 C3455 1.461 . S
C3452 H3472 0.932 . S
C3453 C3451 1.408 . S
C3453 C3452 1.310 . S
C3453 H3473 0.930 . S
C3454 C3455 1.474 . S
C3454 C3456 1.285 . S
C3454 H3474 0.929 . S
C3455 C3452 1.461 . S
C3455 C3454 1.474 . S
C3456 C3451 1.342 . S
C3456 C3454 1.285 . S
C3456 H3475 0.930 . S
C3457 C3460 1.424 . S
C3457 C3462 1.245 . S
C3457 C3463 1.428 . S
C3458 C3461 1.260 . S
C3458 C3462 1.477 . S
C3458 H3476 0.932 . S
C3459 C3460 1.384 . S
C3459 C3461 1.479 . S
C3459 H3477 0.929 . S
C3460 C3457 1.424 . S
C3460 C3459 1.384 . S
C3460 H3478 0.928 . S
C3461 C3458 1.260 . S
C3461 C3459 1.479 . S
C3462 C3457 1.245 . S
C3462 C3458 1.477 . S
C3462 H3479 0.932 . S
C3463 U3446 2.882 . S
C3463 C3457 1.428 . S
C3463 O3466 1.301 . S
C3463 O3467 1.282 . S
O3464 U3446 2.441 . S
O3464 C3450 1.249 . S
O3465 U3446 2.420 . S
O3465 C3450 1.202 . S
O3466 U3446 2.455 . S
O3466 C3463 1.301 . S
O3467 U3446 2.449 . S
O3467 C3463 1.282 . S
H3468 C3441 0.931 . S
H3469 C3443 0.929 . S
H3470 C3444 0.930 . S
H3471 C3445 0.931 . S
H3472 C3452 0.932 . S
H3473 C3453 0.930 . S
H3474 C3454 0.929 . S
H3475 C3456 0.930 . S
H3476 C3458 0.932 . S
H3477 C3459 0.929 . S
H3478 C3460 0.928 . S
H3479 C3462 0.932 . S
C3480 C3481 1.264 . S
C3480 C3485 1.479 . S
C3480 C3490 1.465 . S
C3481 C3480 1.264 . S
C3481 C3483 1.339 . S
C3481 H3508 0.931 . S
C3482 C3483 1.395 . S
C3482 C3484 1.320 . S
C3483 C3481 1.339 . S
C3483 C3482 1.395 . S
C3483 H3509 0.929 . S
C3484 C3482 1.320 . S
C3484 C3485 1.405 . S
C3484 H3510 0.930 . S
C3485 C3480 1.479 . S
C3485 C3484 1.405 . S
C3485 H3511 0.931 . S
U3486 O3487 2.454 . S
U3486 O3488 2.458 . S
U3486 C3489 2.984 . S
U3486 C3490 2.847 . S
U3486 C3503 2.882 . S
U3486 O3504 2.441 . S
U3486 O3505 2.420 . S
U3486 O3506 2.455 . S
U3486 O3507 2.449 . S
O3487 U3486 2.454 . S
O3487 C3489 1.353 . S
O3488 U3486 2.458 . S
O3488 C3489 1.286 . S
C3489 U3486 2.984 . S
C3489 O3487 1.353 . S
C3489 O3488 1.286 . S
C3489 C3491 1.363 . S
C3490 C3480 1.465 . S
C3490 U3486 2.847 . S
C3490 O3504 1.249 . S
C3490 O3505 1.202 . S
C3491 C3489 1.363 . S
C3491 C3493 1.408 . S
C3491 C3496 1.342 . S
C3492 C3493 1.310 . S
C3492 C3495 1.461 . S
C3492 H3512 0.932 . S
C3493 C3491 1.408 . S
C3493 C3492 1.310 . S
C3493 H3513 0.930 . S
C3494 C3495 1.474 . S
C3494 C3496 1.285 . S
C3494 H3514 0.929 . S
C3495 C3492 1.461 . S
C3495 C3494 1.474 . S
C3496 C3491 1.342 . S
C3496 C3494 1.285 . S
C3496 H3515 0.930 . S
C3497 C3500 1.424 . S
C3497 C3502 1.245 . S
C3497 C3503 1.428 . S
C3498 C3501 1.260 . S
C3498 C3502 1.477 . S
C3498 H3516 0.932 . S
C3499 C3500 1.384 . S
C3499 C3501 1.479 . S
C3499 H3517 0.929 . S
C3500 C3497 1.424 . S
C3500 C3499 1.384 . S
C3500 H3518 0.928 . S
C3501 C3498 1.260 . S
C3501 C3499 1.479 . S
C3502 C3497 1.245 . S
C3502 C3498 1.477 . S
C3502 H3519 0.932 . S
C3503 U3486 2.882 . S
C3503 C3497 1.428 . S
C3503 O3506 1.301 . S
C3503 O3507 1.282 . S
O3504 U3486 2.441 . S
O3504 C3490 1.249 . S
O3505 U3486 2.420 . S
O3505 C3490 1.202 . S
O3506 U3486 2.455 . S
O3506 C3503 1.301 . S
O3507 U3486 2.449 . S
O3507 C3503 1.282 . S
H3508 C3481 0.931 . S
H3509 C3483 0.929 . S
H3510 C3484 0.930 . S
H3511 C3485 0.931 . S
H3512 C3492 0.932 . S
H3513 C3493 0.930 . S
H3514 C3494 0.929 . S
H3515 C3496 0.930 . S
H3516 C3498 0.932 . S
H3517 C3499 0.929 . S
H3518 C3500 0.928 . S
H3519 C3502 0.932 . S
C3520 C3521 1.264 . S
C3520 C3525 1.479 . S
C3520 C3530 1.465 . S
C3521 C3520 1.264 . S
C3521 C3523 1.339 . S
C3521 H3548 0.931 . S
C3522 C3523 1.395 . S
C3522 C3524 1.320 . S
C3523 C3521 1.339 . S
C3523 C3522 1.395 . S
C3523 H3549 0.929 . S
C3524 C3522 1.320 . S
C3524 C3525 1.405 . S
C3524 H3550 0.930 . S
C3525 C3520 1.479 . S
C3525 C3524 1.405 . S
C3525 H3551 0.931 . S
U3526 O3527 2.454 . S
U3526 O3528 2.458 . S
U3526 C3529 2.984 . S
U3526 C3530 2.847 . S
U3526 C3543 2.882 . S
U3526 O3544 2.441 . S
U3526 O3545 2.420 . S
U3526 O3546 2.455 . S
U3526 O3547 2.449 . S
O3527 U3526 2.454 . S
O3527 C3529 1.353 . S
O3528 U3526 2.458 . S
O3528 C3529 1.286 . S
C3529 U3526 2.984 . S
C3529 O3527 1.353 . S
C3529 O3528 1.286 . S
C3529 C3531 1.363 . S
C3530 C3520 1.465 . S
C3530 U3526 2.847 . S
C3530 O3544 1.249 . S
C3530 O3545 1.202 . S
C3531 C3529 1.363 . S
C3531 C3533 1.408 . S
C3531 C3536 1.342 . S
C3532 C3533 1.310 . S
C3532 C3535 1.461 . S
C3532 H3552 0.932 . S
C3533 C3531 1.408 . S
C3533 C3532 1.310 . S
C3533 H3553 0.930 . S
C3534 C3535 1.474 . S
C3534 C3536 1.285 . S
C3534 H3554 0.929 . S
C3535 C3532 1.461 . S
C3535 C3534 1.474 . S
C3536 C3531 1.342 . S
C3536 C3534 1.285 . S
C3536 H3555 0.930 . S
C3537 C3540 1.424 . S
C3537 C3542 1.245 . S
C3537 C3543 1.428 . S
C3538 C3541 1.260 . S
C3538 C3542 1.477 . S
C3538 H3556 0.932 . S
C3539 C3540 1.384 . S
C3539 C3541 1.479 . S
C3539 H3557 0.929 . S
C3540 C3537 1.424 . S
C3540 C3539 1.384 . S
C3540 H3558 0.928 . S
C3541 C3538 1.260 . S
C3541 C3539 1.479 . S
C3542 C3537 1.245 . S
C3542 C3538 1.477 . S
C3542 H3559 0.932 . S
C3543 U3526 2.882 . S
C3543 C3537 1.428 . S
C3543 O3546 1.301 . S
C3543 O3547 1.282 . S
O3544 U3526 2.441 . S
O3544 C3530 1.249 . S
O3545 U3526 2.420 . S
O3545 C3530 1.202 . S
O3546 U3526 2.455 . S
O3546 C3543 1.301 . S
O3547 U3526 2.449 . S
O3547 C3543 1.282 . S
H3548 C3521 0.931 . S
H3549 C3523 0.929 . S
H3550 C3524 0.930 . S
H3551 C3525 0.931 . S
H3552 C3532 0.932 . S
H3553 C3533 0.930 . S
H3554 C3534 0.929 . S
H3555 C3536 0.930 . S
H3556 C3538 0.932 . S
H3557 C3539 0.929 . S
H3558 C3540 0.928 . S
H3559 C3542 0.932 . S
C3560 C3561 1.264 . S
C3560 C3565 1.479 . S
C3560 C3570 1.465 . S
C3561 C3560 1.264 . S
C3561 C3563 1.339 . S
C3561 H3588 0.931 . S
C3562 C3563 1.395 . S
C3562 C3564 1.320 . S
C3563 C3561 1.339 . S
C3563 C3562 1.395 . S
C3563 H3589 0.929 . S
C3564 C3562 1.320 . S
C3564 C3565 1.405 . S
C3564 H3590 0.930 . S
C3565 C3560 1.479 . S
C3565 C3564 1.405 . S
C3565 H3591 0.931 . S
U3566 O3567 2.454 . S
U3566 O3568 2.458 . S
U3566 C3569 2.984 . S
U3566 C3570 2.847 . S
U3566 C3583 2.882 . S
U3566 O3584 2.441 . S
U3566 O3585 2.420 . S
U3566 O3586 2.455 . S
U3566 O3587 2.449 . S
O3567 U3566 2.454 . S
O3567 C3569 1.353 . S
O3568 U3566 2.458 . S
O3568 C3569 1.286 . S
C3569 U3566 2.984 . S
C3569 O3567 1.353 . S
C3569 O3568 1.286 . S
C3569 C3571 1.363 . S
C3570 C3560 1.465 . S
C3570 U3566 2.847 . S
C3570 O3584 1.249 . S
C3570 O3585 1.202 . S
C3571 C3569 1.363 . S
C3571 C3573 1.408 . S
C3571 C3576 1.342 . S
C3572 C3573 1.310 . S
C3572 C3575 1.461 . S
C3572 H3592 0.932 . S
C3573 C3571 1.408 . S
C3573 C3572 1.310 . S
C3573 H3593 0.930 . S
C3574 C3575 1.474 . S
C3574 C3576 1.285 . S
C3574 H3594 0.929 . S
C3575 C3572 1.461 . S
C3575 C3574 1.474 . S
C3576 C3571 1.342 . S
C3576 C3574 1.285 . S
C3576 H3595 0.930 . S
C3577 C3580 1.424 . S
C3577 C3582 1.245 . S
C3577 C3583 1.428 . S
C3578 C3581 1.260 . S
C3578 C3582 1.477 . S
C3578 H3596 0.932 . S
C3579 C3580 1.384 . S
C3579 C3581 1.479 . S
C3579 H3597 0.929 . S
C3580 C3577 1.424 . S
C3580 C3579 1.384 . S
C3580 H3598 0.928 . S
C3581 C3578 1.260 . S
C3581 C3579 1.479 . S
C3582 C3577 1.245 . S
C3582 C3578 1.477 . S
C3582 H3599 0.932 . S
C3583 U3566 2.882 . S
C3583 C3577 1.428 . S
C3583 O3586 1.301 . S
C3583 O3587 1.282 . S
O3584 U3566 2.441 . S
O3584 C3570 1.249 . S
O3585 U3566 2.420 . S
O3585 C3570 1.202 . S
O3586 U3566 2.455 . S
O3586 C3583 1.301 . S
O3587 U3566 2.449 . S
O3587 C3583 1.282 . S
H3588 C3561 0.931 . S
H3589 C3563 0.929 . S
H3590 C3564 0.930 . S
H3591 C3565 0.931 . S
H3592 C3572 0.932 . S
H3593 C3573 0.930 . S
H3594 C3574 0.929 . S
H3595 C3576 0.930 . S
H3596 C3578 0.932 . S
H3597 C3579 0.929 . S
H3598 C3580 0.928 . S
H3599 C3582 0.932 . S
C3600 C3601 1.264 . S
C3600 C3605 1.479 . S
C3600 C3610 1.465 . S
C3601 C3600 1.264 . S
C3601 C3603 1.339 . S
C3601 H3628 0.931 . S
C3602 C3603 1.395 . S
C3602 C3604 1.320 . S
C3603 C3601 1.339 . S
C3603 C3602 1.395 . S
C3603 H3629 0.929 . S
C3604 C3602 1.320 . S
C3604 C3605 1.405 . S
C3604 H3630 0.930 . S
C3605 C3600 1.479 . S
C3605 C3604 1.405 . S
C3605 H3631 0.931 . S
U3606 O3607 2.454 . S
U3606 O3608 2.458 . S
U3606 C3609 2.984 . S
U3606 C3610 2.847 . S
U3606 C3623 2.882 . S
U3606 O3624 2.441 . S
U3606 O3625 2.420 . S
U3606 O3626 2.455 . S
U3606 O3627 2.449 . S
O3607 U3606 2.454 . S
O3607 C3609 1.353 . S
O3608 U3606 2.458 . S
O3608 C3609 1.286 . S
C3609 U3606 2.984 . S
C3609 O3607 1.353 . S
C3609 O3608 1.286 . S
C3609 C3611 1.363 . S
C3610 C3600 1.465 . S
C3610 U3606 2.847 . S
C3610 O3624 1.249 . S
C3610 O3625 1.202 . S
C3611 C3609 1.363 . S
C3611 C3613 1.408 . S
C3611 C3616 1.342 . S
C3612 C3613 1.310 . S
C3612 C3615 1.461 . S
C3612 H3632 0.932 . S
C3613 C3611 1.408 . S
C3613 C3612 1.310 . S
C3613 H3633 0.930 . S
C3614 C3615 1.474 . S
C3614 C3616 1.285 . S
C3614 H3634 0.929 . S
C3615 C3612 1.461 . S
C3615 C3614 1.474 . S
C3616 C3611 1.342 . S
C3616 C3614 1.285 . S
C3616 H3635 0.930 . S
C3617 C3620 1.424 . S
C3617 C3622 1.245 . S
C3617 C3623 1.428 . S
C3618 C3621 1.260 . S
C3618 C3622 1.477 . S
C3618 H3636 0.932 . S
C3619 C3620 1.384 . S
C3619 C3621 1.479 . S
C3619 H3637 0.929 . S
C3620 C3617 1.424 . S
C3620 C3619 1.384 . S
C3620 H3638 0.928 . S
C3621 C3618 1.260 . S
C3621 C3619 1.479 . S
C3622 C3617 1.245 . S
C3622 C3618 1.477 . S
C3622 H3639 0.932 . S
C3623 U3606 2.882 . S
C3623 C3617 1.428 . S
C3623 O3626 1.301 . S
C3623 O3627 1.282 . S
O3624 U3606 2.441 . S
O3624 C3610 1.249 . S
O3625 U3606 2.420 . S
O3625 C3610 1.202 . S
O3626 U3606 2.455 . S
O3626 C3623 1.301 . S
O3627 U3606 2.449 . S
O3627 C3623 1.282 . S
H3628 C3601 0.931 . S
H3629 C3603 0.929 . S
H3630 C3604 0.930 . S
H3631 C3605 0.931 . S
H3632 C3612 0.932 . S
H3633 C3613 0.930 . S
H3634 C3614 0.929 . S
H3635 C3616 0.930 . S
H3636 C3618 0.932 . S
H3637 C3619 0.929 . S
H3638 C3620 0.928 . S
H3639 C3622 0.932 . S
C3640 C3641 1.264 . S
C3640 C3645 1.479 . S
C3640 C3650 1.465 . S
C3641 C3640 1.264 . S
C3641 C3643 1.339 . S
C3641 H3668 0.931 . S
C3642 C3643 1.395 . S
C3642 C3644 1.320 . S
C3643 C3641 1.339 . S
C3643 C3642 1.395 . S
C3643 H3669 0.929 . S
C3644 C3642 1.320 . S
C3644 C3645 1.405 . S
C3644 H3670 0.930 . S
C3645 C3640 1.479 . S
C3645 C3644 1.405 . S
C3645 H3671 0.931 . S
U3646 O3647 2.454 . S
U3646 O3648 2.458 . S
U3646 C3649 2.984 . S
U3646 C3650 2.847 . S
U3646 C3663 2.882 . S
U3646 O3664 2.441 . S
U3646 O3665 2.420 . S
U3646 O3666 2.455 . S
U3646 O3667 2.449 . S
O3647 U3646 2.454 . S
O3647 C3649 1.353 . S
O3648 U3646 2.458 . S
O3648 C3649 1.286 . S
C3649 U3646 2.984 . S
C3649 O3647 1.353 . S
C3649 O3648 1.286 . S
C3649 C3651 1.363 . S
C3650 C3640 1.465 . S
C3650 U3646 2.847 . S
C3650 O3664 1.249 . S
C3650 O3665 1.202 . S
C3651 C3649 1.363 . S
C3651 C3653 1.408 . S
C3651 C3656 1.342 . S
C3652 C3653 1.310 . S
C3652 C3655 1.461 . S
C3652 H3672 0.932 . S
C3653 C3651 1.408 . S
C3653 C3652 1.310 . S
C3653 H3673 0.930 . S
C3654 C3655 1.474 . S
C3654 C3656 1.285 . S
C3654 H3674 0.929 . S
C3655 C3652 1.461 . S
C3655 C3654 1.474 . S
C3656 C3651 1.342 . S
C3656 C3654 1.285 . S
C3656 H3675 0.930 . S
C3657 C3660 1.424 . S
C3657 C3662 1.245 . S
C3657 C3663 1.428 . S
C3658 C3661 1.260 . S
C3658 C3662 1.477 . S
C3658 H3676 0.932 . S
C3659 C3660 1.384 . S
C3659 C3661 1.479 . S
C3659 H3677 0.929 . S
C3660 C3657 1.424 . S
C3660 C3659 1.384 . S
C3660 H3678 0.928 . S
C3661 C3658 1.260 . S
C3661 C3659 1.479 . S
C3662 C3657 1.245 . S
C3662 C3658 1.477 . S
C3662 H3679 0.932 . S
C3663 U3646 2.882 . S
C3663 C3657 1.428 . S
C3663 O3666 1.301 . S
C3663 O3667 1.282 . S
O3664 U3646 2.441 . S
O3664 C3650 1.249 . S
O3665 U3646 2.420 . S
O3665 C3650 1.202 . S
O3666 U3646 2.455 . S
O3666 C3663 1.301 . S
O3667 U3646 2.449 . S
O3667 C3663 1.282 . S
H3668 C3641 0.931 . S
H3669 C3643 0.929 . S
H3670 C3644 0.930 . S
H3671 C3645 0.931 . S
H3672 C3652 0.932 . S
H3673 C3653 0.930 . S
H3674 C3654 0.929 . S
H3675 C3656 0.930 . S
H3676 C3658 0.932 . S
H3677 C3659 0.929 . S
H3678 C3660 0.928 . S
H3679 C3662 0.932 . S
C3680 C3681 1.264 . S
C3680 C3685 1.479 . S
C3680 C3690 1.465 . S
C3681 C3680 1.264 . S
C3681 C3683 1.339 . S
C3681 H3708 0.931 . S
C3682 C3683 1.395 . S
C3682 C3684 1.320 . S
C3683 C3681 1.339 . S
C3683 C3682 1.395 . S
C3683 H3709 0.929 . S
C3684 C3682 1.320 . S
C3684 C3685 1.405 . S
C3684 H3710 0.930 . S
C3685 C3680 1.479 . S
C3685 C3684 1.405 . S
C3685 H3711 0.931 . S
U3686 O3687 2.454 . S
U3686 O3688 2.458 . S
U3686 C3689 2.984 . S
U3686 C3690 2.847 . S
U3686 C3703 2.882 . S
U3686 O3704 2.441 . S
U3686 O3705 2.420 . S
U3686 O3706 2.455 . S
U3686 O3707 2.449 . S
O3687 U3686 2.454 . S
O3687 C3689 1.353 . S
O3688 U3686 2.458 . S
O3688 C3689 1.286 . S
C3689 U3686 2.984 . S
C3689 O3687 1.353 . S
C3689 O3688 1.286 . S
C3689 C3691 1.363 . S
C3690 C3680 1.465 . S
C3690 U3686 2.847 . S
C3690 O3704 1.249 . S
C3690 O3705 1.202 . S
C3691 C3689 1.363 . S
C3691 C3693 1.408 . S
C3691 C3696 1.342 . S
C3692 C3693 1.310 . S
C3692 C3695 1.461 . S
C3692 H3712 0.932 . S
C3693 C3691 1.408 . S
C3693 C3692 1.310 . S
C3693 H3713 0.930 . S
C3694 C3695 1.474 . S
C3694 C3696 1.285 . S
C3694 H3714 0.929 . S
C3695 C3692 1.461 . S
C3695 C3694 1.474 . S
C3696 C3691 1.342 . S
C3696 C3694 1.285 . S
C3696 H3715 0.930 . S
C3697 C3700 1.424 . S
C3697 C3702 1.245 . S
C3697 C3703 1.428 . S
C3698 C3701 1.260 . S
C3698 C3702 1.477 . S
C3698 H3716 0.932 . S
C3699 C3700 1.384 . S
C3699 C3701 1.479 . S
C3699 H3717 0.929 . S
C3700 C3697 1.424 . S
C3700 C3699 1.384 . S
C3700 H3718 0.928 . S
C3701 C3698 1.260 . S
C3701 C3699 1.479 . S
C3702 C3697 1.245 . S
C3702 C3698 1.477 . S
C3702 H3719 0.932 . S
C3703 U3686 2.882 . S
C3703 C3697 1.428 . S
C3703 O3706 1.301 . S
C3703 O3707 1.282 . S
O3704 U3686 2.441 . S
O3704 C3690 1.249 . S
O3705 U3686 2.420 . S
O3705 C3690 1.202 . S
O3706 U3686 2.455 . S
O3706 C3703 1.301 . S
O3707 U3686 2.449 . S
O3707 C3703 1.282 . S
H3708 C3681 0.931 . S
H3709 C3683 0.929 . S
H3710 C3684 0.930 . S
H3711 C3685 0.931 . S
H3712 C3692 0.932 . S
H3713 C3693 0.930 . S
H3714 C3694 0.929 . S
H3715 C3696 0.930 . S
H3716 C3698 0.932 . S
H3717 C3699 0.929 . S
H3718 C3700 0.928 . S
H3719 C3702 0.932 . S
C3720 C3721 1.264 . S
C3720 C3725 1.479 . S
C3720 C3730 1.465 . S
C3721 C3720 1.264 . S
C3721 C3723 1.339 . S
C3721 H3748 0.931 . S
C3722 C3723 1.395 . S
C3722 C3724 1.320 . S
C3723 C3721 1.339 . S
C3723 C3722 1.395 . S
C3723 H3749 0.929 . S
C3724 C3722 1.320 . S
C3724 C3725 1.405 . S
C3724 H3750 0.930 . S
C3725 C3720 1.479 . S
C3725 C3724 1.405 . S
C3725 H3751 0.931 . S
U3726 O3727 2.454 . S
U3726 O3728 2.458 . S
U3726 C3729 2.984 . S
U3726 C3730 2.847 . S
U3726 C3743 2.882 . S
U3726 O3744 2.441 . S
U3726 O3745 2.420 . S
U3726 O3746 2.455 . S
U3726 O3747 2.449 . S
O3727 U3726 2.454 . S
O3727 C3729 1.353 . S
O3728 U3726 2.458 . S
O3728 C3729 1.286 . S
C3729 U3726 2.984 . S
C3729 O3727 1.353 . S
C3729 O3728 1.286 . S
C3729 C3731 1.363 . S
C3730 C3720 1.465 . S
C3730 U3726 2.847 . S
C3730 O3744 1.249 . S
C3730 O3745 1.202 . S
C3731 C3729 1.363 . S
C3731 C3733 1.408 . S
C3731 C3736 1.342 . S
C3732 C3733 1.310 . S
C3732 C3735 1.461 . S
C3732 H3752 0.932 . S
C3733 C3731 1.408 . S
C3733 C3732 1.310 . S
C3733 H3753 0.930 . S
C3734 C3735 1.474 . S
C3734 C3736 1.285 . S
C3734 H3754 0.929 . S
C3735 C3732 1.461 . S
C3735 C3734 1.474 . S
C3736 C3731 1.342 . S
C3736 C3734 1.285 . S
C3736 H3755 0.930 . S
C3737 C3740 1.424 . S
C3737 C3742 1.245 . S
C3737 C3743 1.428 . S
C3738 C3741 1.260 . S
C3738 C3742 1.477 . S
C3738 H3756 0.932 . S
C3739 C3740 1.384 . S
C3739 C3741 1.479 . S
C3739 H3757 0.929 . S
C3740 C3737 1.424 . S
C3740 C3739 1.384 . S
C3740 H3758 0.928 . S
C3741 C3738 1.260 . S
C3741 C3739 1.479 . S
C3742 C3737 1.245 . S
C3742 C3738 1.477 . S
C3742 H3759 0.932 . S
C3743 U3726 2.882 . S
C3743 C3737 1.428 . S
C3743 O3746 1.301 . S
C3743 O3747 1.282 . S
O3744 U3726 2.441 . S
O3744 C3730 1.249 . S
O3745 U3726 2.420 . S
O3745 C3730 1.202 . S
O3746 U3726 2.455 . S
O3746 C3743 1.301 . S
O3747 U3726 2.449 . S
O3747 C3743 1.282 . S
H3748 C3721 0.931 . S
H3749 C3723 0.929 . S
H3750 C3724 0.930 . S
H3751 C3725 0.931 . S
H3752 C3732 0.932 . S
H3753 C3733 0.930 . S
H3754 C3734 0.929 . S
H3755 C3736 0.930 . S
H3756 C3738 0.932 . S
H3757 C3739 0.929 . S
H3758 C3740 0.928 . S
H3759 C3742 0.932 . S
C3760 C3761 1.264 . S
C3760 C3765 1.479 . S
C3760 C3770 1.465 . S
C3761 C3760 1.264 . S
C3761 C3763 1.339 . S
C3761 H3788 0.931 . S
C3762 C3763 1.395 . S
C3762 C3764 1.320 . S
C3763 C3761 1.339 . S
C3763 C3762 1.395 . S
C3763 H3789 0.929 . S
C3764 C3762 1.320 . S
C3764 C3765 1.405 . S
C3764 H3790 0.930 . S
C3765 C3760 1.479 . S
C3765 C3764 1.405 . S
C3765 H3791 0.931 . S
U3766 O3767 2.454 . S
U3766 O3768 2.458 . S
U3766 C3769 2.984 . S
U3766 C3770 2.847 . S
U3766 C3783 2.882 . S
U3766 O3784 2.441 . S
U3766 O3785 2.420 . S
U3766 O3786 2.455 . S
U3766 O3787 2.449 . S
O3767 U3766 2.454 . S
O3767 C3769 1.353 . S
O3768 U3766 2.458 . S
O3768 C3769 1.286 . S
C3769 U3766 2.984 . S
C3769 O3767 1.353 . S
C3769 O3768 1.286 . S
C3769 C3771 1.363 . S
C3770 C3760 1.465 . S
C3770 U3766 2.847 . S
C3770 O3784 1.249 . S
C3770 O3785 1.202 . S
C3771 C3769 1.363 . S
C3771 C3773 1.408 . S
C3771 C3776 1.342 . S
C3772 C3773 1.310 . S
C3772 C3775 1.461 . S
C3772 H3792 0.932 . S
C3773 C3771 1.408 . S
C3773 C3772 1.310 . S
C3773 H3793 0.930 . S
C3774 C3775 1.474 . S
C3774 C3776 1.285 . S
C3774 H3794 0.929 . S
C3775 C3772 1.461 . S
C3775 C3774 1.474 . S
C3776 C3771 1.342 . S
C3776 C3774 1.285 . S
C3776 H3795 0.930 . S
C3777 C3780 1.424 . S
C3777 C3782 1.245 . S
C3777 C3783 1.428 . S
C3778 C3781 1.260 . S
C3778 C3782 1.477 . S
C3778 H3796 0.932 . S
C3779 C3780 1.384 . S
C3779 C3781 1.479 . S
C3779 H3797 0.929 . S
C3780 C3777 1.424 . S
C3780 C3779 1.384 . S
C3780 H3798 0.928 . S
C3781 C3778 1.260 . S
C3781 C3779 1.479 . S
C3782 C3777 1.245 . S
C3782 C3778 1.477 . S
C3782 H3799 0.932 . S
C3783 U3766 2.882 . S
C3783 C3777 1.428 . S
C3783 O3786 1.301 . S
C3783 O3787 1.282 . S
O3784 U3766 2.441 . S
O3784 C3770 1.249 . S
O3785 U3766 2.420 . S
O3785 C3770 1.202 . S
O3786 U3766 2.455 . S
O3786 C3783 1.301 . S
O3787 U3766 2.449 . S
O3787 C3783 1.282 . S
H3788 C3761 0.931 . S
H3789 C3763 0.929 . S
H3790 C3764 0.930 . S
H3791 C3765 0.931 . S
H3792 C3772 0.932 . S
H3793 C3773 0.930 . S
H3794 C3774 0.929 . S
H3795 C3776 0.930 . S
H3796 C3778 0.932 . S
H3797 C3779 0.929 . S
H3798 C3780 0.928 . S
H3799 C3782 0.932 . S
C3800 C3801 1.264 . S
C3800 C3805 1.479 . S
C3800 C3810 1.465 . S
C3801 C3800 1.264 . S
C3801 C3803 1.339 . S
C3801 H3828 0.931 . S
C3802 C3803 1.395 . S
C3802 C3804 1.320 . S
C3803 C3801 1.339 . S
C3803 C3802 1.395 . S
C3803 H3829 0.929 . S
C3804 C3802 1.320 . S
C3804 C3805 1.405 . S
C3804 H3830 0.930 . S
C3805 C3800 1.479 . S
C3805 C3804 1.405 . S
C3805 H3831 0.931 . S
U3806 O3807 2.454 . S
U3806 O3808 2.458 . S
U3806 C3809 2.984 . S
U3806 C3810 2.847 . S
U3806 C3823 2.882 . S
U3806 O3824 2.441 . S
U3806 O3825 2.420 . S
U3806 O3826 2.455 . S
U3806 O3827 2.449 . S
O3807 U3806 2.454 . S
O3807 C3809 1.353 . S
O3808 U3806 2.458 . S
O3808 C3809 1.286 . S
C3809 U3806 2.984 . S
C3809 O3807 1.353 . S
C3809 O3808 1.286 . S
C3809 C3811 1.363 . S
C3810 C3800 1.465 . S
C3810 U3806 2.847 . S
C3810 O3824 1.249 . S
C3810 O3825 1.202 . S
C3811 C3809 1.363 . S
C3811 C3813 1.408 . S
C3811 C3816 1.342 . S
C3812 C3813 1.310 . S
C3812 C3815 1.461 . S
C3812 H3832 0.932 . S
C3813 C3811 1.408 . S
C3813 C3812 1.310 . S
C3813 H3833 0.930 . S
C3814 C3815 1.474 . S
C3814 C3816 1.285 . S
C3814 H3834 0.929 . S
C3815 C3812 1.461 . S
C3815 C3814 1.474 . S
C3816 C3811 1.342 . S
C3816 C3814 1.285 . S
C3816 H3835 0.930 . S
C3817 C3820 1.424 . S
C3817 C3822 1.245 . S
C3817 C3823 1.428 . S
C3818 C3821 1.260 . S
C3818 C3822 1.477 . S
C3818 H3836 0.932 . S
C3819 C3820 1.384 . S
C3819 C3821 1.479 . S
C3819 H3837 0.929 . S
C3820 C3817 1.424 . S
C3820 C3819 1.384 . S
C3820 H3838 0.928 . S
C3821 C3818 1.260 . S
C3821 C3819 1.479 . S
C3822 C3817 1.245 . S
C3822 C3818 1.477 . S
C3822 H3839 0.932 . S
C3823 U3806 2.882 . S
C3823 C3817 1.428 . S
C3823 O3826 1.301 . S
C3823 O3827 1.282 . S
O3824 U3806 2.441 . S
O3824 C3810 1.249 . S
O3825 U3806 2.420 . S
O3825 C3810 1.202 . S
O3826 U3806 2.455 . S
O3826 C3823 1.301 . S
O3827 U3806 2.449 . S
O3827 C3823 1.282 . S
H3828 C3801 0.931 . S
H3829 C3803 0.929 . S
H3830 C3804 0.930 . S
H3831 C3805 0.931 . S
H3832 C3812 0.932 . S
H3833 C3813 0.930 . S
H3834 C3814 0.929 . S
H3835 C3816 0.930 . S
H3836 C3818 0.932 . S
H3837 C3819 0.929 . S
H3838 C3820 0.928 . S
H3839 C3822 0.932 . S
C3840 C3841 1.386 . S
C3840 C3842 1.397 . S
C3840 H3864 0.931 . S
C3841 C3840 1.386 . S
C3841 C3845 1.397 . S
C3842 C3840 1.397 . S
C3842 C3843 1.384 . S
C3842 H3865 0.930 . S
C3843 C3842 1.384 . S
C3843 C3844 1.377 . S
C3843 C3846 1.481 . S
C3844 C3843 1.377 . S
C3844 C3845 1.389 . S
C3844 H3866 0.929 . S
C3845 C3841 1.397 . S
C3845 C3844 1.389 . S
C3845 H3867 0.931 . S
C3846 C3843 1.481 . S
C3846 C3847 1.387 . S
C3846 C3851 1.390 . S
C3847 C3846 1.387 . S
C3847 C3848 1.401 . S
C3847 H3868 0.930 . S
C3848 C3847 1.401 . S
C3848 C3849 1.376 . S
C3848 C3857 1.511 . S
C3849 C3848 1.376 . S
C3849 C3850 1.392 . S
C3849 H3870 0.931 . S
C3850 C3849 1.392 . S
C3850 C3851 1.361 . S
C3850 C3852 1.500 . S
C3851 C3846 1.390 . S
C3851 C3850 1.361 . S
C3851 H3869 0.931 . S
C3852 C3850 1.500 . S
C3852 C3853 1.371 . S
C3852 C3854 1.365 . S
C3853 C3852 1.371 . S
C3853 C3863 1.386 . S
C3853 H3871 0.931 . S
C3854 C3852 1.365 . S
C3854 C3855 1.409 . S
C3854 H3872 0.929 . S
C3855 C3854 1.409 . S
C3855 C3856 1.380 . S
C3855 H3873 0.930 . S
C3856 C3855 1.380 . S
C3856 C3863 1.357 . S
C3857 C3848 1.511 . S
C3857 C3858 1.341 . S
C3857 C3859 1.371 . S
C3858 C3857 1.341 . S
C3858 C3862 1.394 . S
C3858 H3874 0.930 . S
C3859 C3857 1.371 . S
C3859 C3860 1.392 . S
C3859 H3875 0.931 . S
C3860 C3859 1.392 . S
C3860 C3861 1.331 . S
C3860 H3878 0.932 . S
C3861 C3860 1.331 . S
C3861 C3862 1.336 . S
C3862 C3858 1.394 . S
C3862 C3861 1.336 . S
C3862 H3877 0.929 . S
C3863 C3853 1.386 . S
C3863 C3856 1.357 . S
C3863 H3876 0.928 . S
H3864 C3840 0.931 . S
H3865 C3842 0.930 . S
H3866 C3844 0.929 . S
H3867 C3845 0.931 . S
H3868 C3847 0.930 . S
H3869 C3851 0.931 . S
H3870 C3849 0.931 . S
H3871 C3853 0.931 . S
H3872 C3854 0.929 . S
H3873 C3855 0.930 . S
H3874 C3858 0.930 . S
H3875 C3859 0.931 . S
H3876 C3863 0.928 . S
H3877 C3862 0.929 . S
H3878 C3860 0.932 . S
C3879 C3880 1.386 . S
C3879 C3881 1.397 . S
C3879 H3903 0.931 . S
C3880 C3879 1.386 . S
C3880 C3884 1.397 . S
C3881 C3879 1.397 . S
C3881 C3882 1.384 . S
C3881 H3904 0.930 . S
C3882 C3881 1.384 . S
C3882 C3883 1.377 . S
C3882 C3885 1.481 . S
C3883 C3882 1.377 . S
C3883 C3884 1.389 . S
C3883 H3905 0.929 . S
C3884 C3880 1.397 . S
C3884 C3883 1.389 . S
C3884 H3906 0.931 . S
C3885 C3882 1.481 . S
C3885 C3886 1.387 . S
C3885 C3890 1.390 . S
C3886 C3885 1.387 . S
C3886 C3887 1.401 . S
C3886 H3907 0.930 . S
C3887 C3886 1.401 . S
C3887 C3888 1.376 . S
C3887 C3896 1.511 . S
C3888 C3887 1.376 . S
C3888 C3889 1.392 . S
C3888 H3909 0.931 . S
C3889 C3888 1.392 . S
C3889 C3890 1.361 . S
C3889 C3891 1.500 . S
C3890 C3885 1.390 . S
C3890 C3889 1.361 . S
C3890 H3908 0.931 . S
C3891 C3889 1.500 . S
C3891 C3892 1.371 . S
C3891 C3893 1.365 . S
C3892 C3891 1.371 . S
C3892 C3902 1.386 . S
C3892 H3910 0.931 . S
C3893 C3891 1.365 . S
C3893 C3894 1.409 . S
C3893 H3911 0.929 . S
C3894 C3893 1.409 . S
C3894 C3895 1.380 . S
C3894 H3912 0.930 . S
C3895 C3894 1.380 . S
C3895 C3902 1.357 . S
C3896 C3887 1.511 . S
C3896 C3897 1.341 . S
C3896 C3898 1.371 . S
C3897 C3896 1.341 . S
C3897 C3901 1.394 . S
C3897 H3913 0.930 . S
C3898 C3896 1.371 . S
C3898 C3899 1.392 . S
C3898 H3914 0.931 . S
C3899 C3898 1.392 . S
C3899 C3900 1.331 . S
C3899 H3917 0.932 . S
C3900 C3899 1.331 . S
C3900 C3901 1.336 . S
C3901 C3897 1.394 . S
C3901 C3900 1.336 . S
C3901 H3916 0.929 . S
C3902 C3892 1.386 . S
C3902 C3895 1.357 . S
C3902 H3915 0.928 . S
H3903 C3879 0.931 . S
H3904 C3881 0.930 . S
H3905 C3883 0.929 . S
H3906 C3884 0.931 . S
H3907 C3886 0.930 . S
H3908 C3890 0.931 . S
H3909 C3888 0.931 . S
H3910 C3892 0.931 . S
H3911 C3893 0.929 . S
H3912 C3894 0.930 . S
H3913 C3897 0.930 . S
H3914 C3898 0.931 . S
H3915 C3902 0.928 . S
H3916 C3901 0.929 . S
H3917 C3899 0.932 . S
C3918 C3919 1.386 . S
C3918 C3920 1.397 . S
C3918 H3942 0.931 . S
C3919 C3918 1.386 . S
C3919 C3923 1.397 . S
C3920 C3918 1.397 . S
C3920 C3921 1.384 . S
C3920 H3943 0.930 . S
C3921 C3920 1.384 . S
C3921 C3922 1.377 . S
C3921 C3924 1.481 . S
C3922 C3921 1.377 . S
C3922 C3923 1.389 . S
C3922 H3944 0.929 . S
C3923 C3919 1.397 . S
C3923 C3922 1.389 . S
C3923 H3945 0.931 . S
C3924 C3921 1.481 . S
C3924 C3925 1.387 . S
C3924 C3929 1.390 . S
C3925 C3924 1.387 . S
C3925 C3926 1.401 . S
C3925 H3946 0.930 . S
C3926 C3925 1.401 . S
C3926 C3927 1.376 . S
C3926 C3935 1.511 . S
C3927 C3926 1.376 . S
C3927 C3928 1.392 . S
C3927 H3948 0.931 . S
C3928 C3927 1.392 . S
C3928 C3929 1.361 . S
C3928 C3930 1.500 . S
C3929 C3924 1.390 . S
C3929 C3928 1.361 . S
C3929 H3947 0.931 . S
C3930 C3928 1.500 . S
C3930 C3931 1.371 . S
C3930 C3932 1.365 . S
C3931 C3930 1.371 . S
C3931 C3941 1.386 . S
C3931 H3949 0.931 . S
C3932 C3930 1.365 . S
C3932 C3933 1.409 . S
C3932 H3950 0.929 . S
C3933 C3932 1.409 . S
C3933 C3934 1.380 . S
C3933 H3951 0.930 . S
C3934 C3933 1.380 . S
C3934 C3941 1.357 . S
C3935 C3926 1.511 . S
C3935 C3936 1.341 . S
C3935 C3937 1.371 . S
C3936 C3935 1.341 . S
C3936 C3940 1.394 . S
C3936 H3952 0.930 . S
C3937 C3935 1.371 . S
C3937 C3938 1.392 . S
C3937 H3953 0.931 . S
C3938 C3937 1.392 . S
C3938 C3939 1.331 . S
C3938 H3956 0.932 . S
C3939 C3938 1.331 . S
C3939 C3940 1.336 . S
C3940 C3936 1.394 . S
C3940 C3939 1.336 . S
C3940 H3955 0.929 . S
C3941 C3931 1.386 . S
C3941 C3934 1.357 . S
C3941 H3954 0.928 . S
H3942 C3918 0.931 . S
H3943 C3920 0.930 . S
H3944 C3922 0.929 . S
H3945 C3923 0.931 . S
H3946 C3925 0.930 . S
H3947 C3929 0.931 . S
H3948 C3927 0.931 . S
H3949 C3931 0.931 . S
H3950 C3932 0.929 . S
H3951 C3933 0.930 . S
H3952 C3936 0.930 . S
H3953 C3937 0.931 . S
H3954 C3941 0.928 . S
H3955 C3940 0.929 . S
H3956 C3938 0.932 . S
C3957 C3958 1.386 . S
C3957 C3959 1.397 . S
C3957 H3981 0.931 . S
C3958 C3957 1.386 . S
C3958 C3962 1.397 . S
C3959 C3957 1.397 . S
C3959 C3960 1.384 . S
C3959 H3982 0.930 . S
C3960 C3959 1.384 . S
C3960 C3961 1.377 . S
C3960 C3963 1.481 . S
C3961 C3960 1.377 . S
C3961 C3962 1.389 . S
C3961 H3983 0.929 . S
C3962 C3958 1.397 . S
C3962 C3961 1.389 . S
C3962 H3984 0.931 . S
C3963 C3960 1.481 . S
C3963 C3964 1.387 . S
C3963 C3968 1.390 . S
C3964 C3963 1.387 . S
C3964 C3965 1.401 . S
C3964 H3985 0.930 . S
C3965 C3964 1.401 . S
C3965 C3966 1.376 . S
C3965 C3974 1.511 . S
C3966 C3965 1.376 . S
C3966 C3967 1.392 . S
C3966 H3987 0.931 . S
C3967 C3966 1.392 . S
C3967 C3968 1.361 . S
C3967 C3969 1.500 . S
C3968 C3963 1.390 . S
C3968 C3967 1.361 . S
C3968 H3986 0.931 . S
C3969 C3967 1.500 . S
C3969 C3970 1.371 . S
C3969 C3971 1.365 . S
C3970 C3969 1.371 . S
C3970 C3980 1.386 . S
C3970 H3988 0.931 . S
C3971 C3969 1.365 . S
C3971 C3972 1.409 . S
C3971 H3989 0.929 . S
C3972 C3971 1.409 . S
C3972 C3973 1.380 . S
C3972 H3990 0.930 . S
C3973 C3972 1.380 . S
C3973 C3980 1.357 . S
C3974 C3965 1.511 . S
C3974 C3975 1.341 . S
C3974 C3976 1.371 . S
C3975 C3974 1.341 . S
C3975 C3979 1.394 . S
C3975 H3991 0.930 . S
C3976 C3974 1.371 . S
C3976 C3977 1.392 . S
C3976 H3992 0.931 . S
C3977 C3976 1.392 . S
C3977 C3978 1.331 . S
C3977 H3995 0.932 . S
C3978 C3977 1.331 . S
C3978 C3979 1.336 . S
C3979 C3975 1.394 . S
C3979 C3978 1.336 . S
C3979 H3994 0.929 . S
C3980 C3970 1.386 . S
C3980 C3973 1.357 . S
C3980 H3993 0.928 . S
H3981 C3957 0.931 . S
H3982 C3959 0.930 . S
H3983 C3961 0.929 . S
H3984 C3962 0.931 . S
H3985 C3964 0.930 . S
H3986 C3968 0.931 . S
H3987 C3966 0.931 . S
H3988 C3970 0.931 . S
H3989 C3971 0.929 . S
H3990 C3972 0.930 . S
H3991 C3975 0.930 . S
H3992 C3976 0.931 . S
H3993 C3980 0.928 . S
H3994 C3979 0.929 . S
H3995 C3977 0.932 . S
C3996 C3997 1.386 . S
C3996 C3998 1.397 . S
C3996 H4020 0.931 . S
C3997 C3996 1.386 . S
C3997 C4001 1.397 . S
C3998 C3996 1.397 . S
C3998 C3999 1.384 . S
C3998 H4021 0.930 . S
C3999 C3998 1.384 . S
C3999 C4000 1.377 . S
C3999 C4002 1.481 . S
C4000 C3999 1.377 . S
C4000 C4001 1.389 . S
C4000 H4022 0.929 . S
C4001 C3997 1.397 . S
C4001 C4000 1.389 . S
C4001 H4023 0.931 . S
C4002 C3999 1.481 . S
C4002 C4003 1.387 . S
C4002 C4007 1.390 . S
C4003 C4002 1.387 . S
C4003 C4004 1.401 . S
C4003 H4024 0.930 . S
C4004 C4003 1.401 . S
C4004 C4005 1.376 . S
C4004 C4013 1.511 . S
C4005 C4004 1.376 . S
C4005 C4006 1.392 . S
C4005 H4026 0.931 . S
C4006 C4005 1.392 . S
C4006 C4007 1.361 . S
C4006 C4008 1.500 . S
C4007 C4002 1.390 . S
C4007 C4006 1.361 . S
C4007 H4025 0.931 . S
C4008 C4006 1.500 . S
C4008 C4009 1.371 . S
C4008 C4010 1.365 . S
C4009 C4008 1.371 . S
C4009 C4019 1.386 . S
C4009 H4027 0.931 . S
C4010 C4008 1.365 . S
C4010 C4011 1.409 . S
C4010 H4028 0.929 . S
C4011 C4010 1.409 . S
C4011 C4012 1.380 . S
C4011 H4029 0.930 . S
C4012 C4011 1.380 . S
C4012 C4019 1.357 . S
C4013 C4004 1.511 . S
C4013 C4014 1.341 . S
C4013 C4015 1.371 . S
C4014 C4013 1.341 . S
C4014 C4018 1.394 . S
C4014 H4030 0.930 . S
C4015 C4013 1.371 . S
C4015 C4016 1.392 . S
C4015 H4031 0.931 . S
C4016 C4015 1.392 . S
C4016 C4017 1.331 . S
C4016 H4034 0.932 . S
C4017 C4016 1.331 . S
C4017 C4018 1.336 . S
C4018 C4014 1.394 . S
C4018 C4017 1.336 . S
C4018 H4033 0.929 . S
C4019 C4009 1.386 . S
C4019 C4012 1.357 . S
C4019 H4032 0.928 . S
H4020 C3996 0.931 . S
H4021 C3998 0.930 . S
H4022 C4000 0.929 . S
H4023 C4001 0.931 . S
H4024 C4003 0.930 . S
H4025 C4007 0.931 . S
H4026 C4005 0.931 . S
H4027 C4009 0.931 . S
H4028 C4010 0.929 . S
H4029 C4011 0.930 . S
H4030 C4014 0.930 . S
H4031 C4015 0.931 . S
H4032 C4019 0.928 . S
H4033 C4018 0.929 . S
H4034 C4016 0.932 . S
C4035 C4036 1.386 . S
C4035 C4037 1.397 . S
C4035 H4059 0.931 . S
C4036 C4035 1.386 . S
C4036 C4040 1.397 . S
C4037 C4035 1.397 . S
C4037 C4038 1.384 . S
C4037 H4060 0.930 . S
C4038 C4037 1.384 . S
C4038 C4039 1.377 . S
C4038 C4041 1.481 . S
C4039 C4038 1.377 . S
C4039 C4040 1.389 . S
C4039 H4061 0.929 . S
C4040 C4036 1.397 . S
C4040 C4039 1.389 . S
C4040 H4062 0.931 . S
C4041 C4038 1.481 . S
C4041 C4042 1.387 . S
C4041 C4046 1.390 . S
C4042 C4041 1.387 . S
C4042 C4043 1.401 . S
C4042 H4063 0.930 . S
C4043 C4042 1.401 . S
C4043 C4044 1.376 . S
C4043 C4052 1.511 . S
C4044 C4043 1.376 . S
C4044 C4045 1.392 . S
C4044 H4065 0.931 . S
C4045 C4044 1.392 . S
C4045 C4046 1.361 . S
C4045 C4047 1.500 . S
C4046 C4041 1.390 . S
C4046 C4045 1.361 . S
C4046 H4064 0.931 . S
C4047 C4045 1.500 . S
C4047 C4048 1.371 . S
C4047 C4049 1.365 . S
C4048 C4047 1.371 . S
C4048 C4058 1.386 . S
C4048 H4066 0.931 . S
C4049 C4047 1.365 . S
C4049 C4050 1.409 . S
C4049 H4067 0.929 . S
C4050 C4049 1.409 . S
C4050 C4051 1.380 . S
C4050 H4068 0.930 . S
C4051 C4050 1.380 . S
C4051 C4058 1.357 . S
C4052 C4043 1.511 . S
C4052 C4053 1.341 . S
C4052 C4054 1.371 . S
C4053 C4052 1.341 . S
C4053 C4057 1.394 . S
C4053 H4069 0.930 . S
C4054 C4052 1.371 . S
C4054 C4055 1.392 . S
C4054 H4070 0.931 . S
C4055 C4054 1.392 . S
C4055 C4056 1.331 . S
C4055 H4073 0.932 . S
C4056 C4055 1.331 . S
C4056 C4057 1.336 . S
C4057 C4053 1.394 . S
C4057 C4056 1.336 . S
C4057 H4072 0.929 . S
C4058 C4048 1.386 . S
C4058 C4051 1.357 . S
C4058 H4071 0.928 . S
H4059 C4035 0.931 . S
H4060 C4037 0.930 . S
H4061 C4039 0.929 . S
H4062 C4040 0.931 . S
H4063 C4042 0.930 . S
H4064 C4046 0.931 . S
H4065 C4044 0.931 . S
H4066 C4048 0.931 . S
H4067 C4049 0.929 . S
H4068 C4050 0.930 . S
H4069 C4053 0.930 . S
H4070 C4054 0.931 . S
H4071 C4058 0.928 . S
H4072 C4057 0.929 . S
H4073 C4055 0.932 . S
C4074 C4075 1.386 . S
C4074 C4076 1.397 . S
C4074 H4098 0.931 . S
C4075 C4074 1.386 . S
C4075 C4079 1.397 . S
C4076 C4074 1.397 . S
C4076 C4077 1.384 . S
C4076 H4099 0.930 . S
C4077 C4076 1.384 . S
C4077 C4078 1.377 . S
C4077 C4080 1.481 . S
C4078 C4077 1.377 . S
C4078 C4079 1.389 . S
C4078 H4100 0.929 . S
C4079 C4075 1.397 . S
C4079 C4078 1.389 . S
C4079 H4101 0.931 . S
C4080 C4077 1.481 . S
C4080 C4081 1.387 . S
C4080 C4085 1.390 . S
C4081 C4080 1.387 . S
C4081 C4082 1.401 . S
C4081 H4102 0.930 . S
C4082 C4081 1.401 . S
C4082 C4083 1.376 . S
C4082 C4091 1.511 . S
C4083 C4082 1.376 . S
C4083 C4084 1.392 . S
C4083 H4104 0.931 . S
C4084 C4083 1.392 . S
C4084 C4085 1.361 . S
C4084 C4086 1.500 . S
C4085 C4080 1.390 . S
C4085 C4084 1.361 . S
C4085 H4103 0.931 . S
C4086 C4084 1.500 . S
C4086 C4087 1.371 . S
C4086 C4088 1.365 . S
C4087 C4086 1.371 . S
C4087 C4097 1.386 . S
C4087 H4105 0.931 . S
C4088 C4086 1.365 . S
C4088 C4089 1.409 . S
C4088 H4106 0.929 . S
C4089 C4088 1.409 . S
C4089 C4090 1.380 . S
C4089 H4107 0.930 . S
C4090 C4089 1.380 . S
C4090 C4097 1.357 . S
C4091 C4082 1.511 . S
C4091 C4092 1.341 . S
C4091 C4093 1.371 . S
C4092 C4091 1.341 . S
C4092 C4096 1.394 . S
C4092 H4108 0.930 . S
C4093 C4091 1.371 . S
C4093 C4094 1.392 . S
C4093 H4109 0.931 . S
C4094 C4093 1.392 . S
C4094 C4095 1.331 . S
C4094 H4112 0.932 . S
C4095 C4094 1.331 . S
C4095 C4096 1.336 . S
C4096 C4092 1.394 . S
C4096 C4095 1.336 . S
C4096 H4111 0.929 . S
C4097 C4087 1.386 . S
C4097 C4090 1.357 . S
C4097 H4110 0.928 . S
H4098 C4074 0.931 . S
H4099 C4076 0.930 . S
H4100 C4078 0.929 . S
H4101 C4079 0.931 . S
H4102 C4081 0.930 . S
H4103 C4085 0.931 . S
H4104 C4083 0.931 . S
H4105 C4087 0.931 . S
H4106 C4088 0.929 . S
H4107 C4089 0.930 . S
H4108 C4092 0.930 . S
H4109 C4093 0.931 . S
H4110 C4097 0.928 . S
H4111 C4096 0.929 . S
H4112 C4094 0.932 . S
C4113 C4114 1.386 . S
C4113 C4115 1.397 . S
C4113 H4137 0.931 . S
C4114 C4113 1.386 . S
C4114 C4118 1.397 . S
C4115 C4113 1.397 . S
C4115 C4116 1.384 . S
C4115 H4138 0.930 . S
C4116 C4115 1.384 . S
C4116 C4117 1.377 . S
C4116 C4119 1.481 . S
C4117 C4116 1.377 . S
C4117 C4118 1.389 . S
C4117 H4139 0.929 . S
C4118 C4114 1.397 . S
C4118 C4117 1.389 . S
C4118 H4140 0.931 . S
C4119 C4116 1.481 . S
C4119 C4120 1.387 . S
C4119 C4124 1.390 . S
C4120 C4119 1.387 . S
C4120 C4121 1.401 . S
C4120 H4141 0.930 . S
C4121 C4120 1.401 . S
C4121 C4122 1.376 . S
C4121 C4130 1.511 . S
C4122 C4121 1.376 . S
C4122 C4123 1.392 . S
C4122 H4143 0.931 . S
C4123 C4122 1.392 . S
C4123 C4124 1.361 . S
C4123 C4125 1.500 . S
C4124 C4119 1.390 . S
C4124 C4123 1.361 . S
C4124 H4142 0.931 . S
C4125 C4123 1.500 . S
C4125 C4126 1.371 . S
C4125 C4127 1.365 . S
C4126 C4125 1.371 . S
C4126 C4136 1.386 . S
C4126 H4144 0.931 . S
C4127 C4125 1.365 . S
C4127 C4128 1.409 . S
C4127 H4145 0.929 . S
C4128 C4127 1.409 . S
C4128 C4129 1.380 . S
C4128 H4146 0.930 . S
C4129 C4128 1.380 . S
C4129 C4136 1.357 . S
C4130 C4121 1.511 . S
C4130 C4131 1.341 . S
C4130 C4132 1.371 . S
C4131 C4130 1.341 . S
C4131 C4135 1.394 . S
C4131 H4147 0.930 . S
C4132 C4130 1.371 . S
C4132 C4133 1.392 . S
C4132 H4148 0.931 . S
C4133 C4132 1.392 . S
C4133 C4134 1.331 . S
C4133 H4151 0.932 . S
C4134 C4133 1.331 . S
C4134 C4135 1.336 . S
C4135 C4131 1.394 . S
C4135 C4134 1.336 . S
C4135 H4150 0.929 . S
C4136 C4126 1.386 . S
C4136 C4129 1.357 . S
C4136 H4149 0.928 . S
H4137 C4113 0.931 . S
H4138 C4115 0.930 . S
H4139 C4117 0.929 . S
H4140 C4118 0.931 . S
H4141 C4120 0.930 . S
H4142 C4124 0.931 . S
H4143 C4122 0.931 . S
H4144 C4126 0.931 . S
H4145 C4127 0.929 . S
H4146 C4128 0.930 . S
H4147 C4131 0.930 . S
H4148 C4132 0.931 . S
H4149 C4136 0.928 . S
H4150 C4135 0.929 . S
H4151 C4133 0.932 . S
C4152 C4153 1.386 . S
C4152 C4154 1.397 . S
C4152 H4176 0.931 . S
C4153 C4152 1.386 . S
C4153 C4157 1.397 . S
C4154 C4152 1.397 . S
C4154 C4155 1.384 . S
C4154 H4177 0.930 . S
C4155 C4154 1.384 . S
C4155 C4156 1.377 . S
C4155 C4158 1.481 . S
C4156 C4155 1.377 . S
C4156 C4157 1.389 . S
C4156 H4178 0.929 . S
C4157 C4153 1.397 . S
C4157 C4156 1.389 . S
C4157 H4179 0.931 . S
C4158 C4155 1.481 . S
C4158 C4159 1.387 . S
C4158 C4163 1.390 . S
C4159 C4158 1.387 . S
C4159 C4160 1.401 . S
C4159 H4180 0.930 . S
C4160 C4159 1.401 . S
C4160 C4161 1.376 . S
C4160 C4169 1.511 . S
C4161 C4160 1.376 . S
C4161 C4162 1.392 . S
C4161 H4182 0.931 . S
C4162 C4161 1.392 . S
C4162 C4163 1.361 . S
C4162 C4164 1.500 . S
C4163 C4158 1.390 . S
C4163 C4162 1.361 . S
C4163 H4181 0.931 . S
C4164 C4162 1.500 . S
C4164 C4165 1.371 . S
C4164 C4166 1.365 . S
C4165 C4164 1.371 . S
C4165 C4175 1.386 . S
C4165 H4183 0.931 . S
C4166 C4164 1.365 . S
C4166 C4167 1.409 . S
C4166 H4184 0.929 . S
C4167 C4166 1.409 . S
C4167 C4168 1.380 . S
C4167 H4185 0.930 . S
C4168 C4167 1.380 . S
C4168 C4175 1.357 . S
C4169 C4160 1.511 . S
C4169 C4170 1.341 . S
C4169 C4171 1.371 . S
C4170 C4169 1.341 . S
C4170 C4174 1.394 . S
C4170 H4186 0.930 . S
C4171 C4169 1.371 . S
C4171 C4172 1.392 . S
C4171 H4187 0.931 . S
C4172 C4171 1.392 . S
C4172 C4173 1.331 . S
C4172 H4190 0.932 . S
C4173 C4172 1.331 . S
C4173 C4174 1.336 . S
C4174 C4170 1.394 . S
C4174 C4173 1.336 . S
C4174 H4189 0.929 . S
C4175 C4165 1.386 . S
C4175 C4168 1.357 . S
C4175 H4188 0.928 . S
H4176 C4152 0.931 . S
H4177 C4154 0.930 . S
H4178 C4156 0.929 . S
H4179 C4157 0.931 . S
H4180 C4159 0.930 . S
H4181 C4163 0.931 . S
H4182 C4161 0.931 . S
H4183 C4165 0.931 . S
H4184 C4166 0.929 . S
H4185 C4167 0.930 . S
H4186 C4170 0.930 . S
H4187 C4171 0.931 . S
H4188 C4175 0.928 . S
H4189 C4174 0.929 . S
H4190 C4172 0.932 . S
C4191 C4192 1.386 . S
C4191 C4193 1.397 . S
C4191 H4215 0.931 . S
C4192 C4191 1.386 . S
C4192 C4196 1.397 . S
C4193 C4191 1.397 . S
C4193 C4194 1.384 . S
C4193 H4216 0.930 . S
C4194 C4193 1.384 . S
C4194 C4195 1.377 . S
C4194 C4197 1.481 . S
C4195 C4194 1.377 . S
C4195 C4196 1.389 . S
C4195 H4217 0.929 . S
C4196 C4192 1.397 . S
C4196 C4195 1.389 . S
C4196 H4218 0.931 . S
C4197 C4194 1.481 . S
C4197 C4198 1.387 . S
C4197 C4202 1.390 . S
C4198 C4197 1.387 . S
C4198 C4199 1.401 . S
C4198 H4219 0.930 . S
C4199 C4198 1.401 . S
C4199 C4200 1.376 . S
C4199 C4208 1.511 . S
C4200 C4199 1.376 . S
C4200 C4201 1.392 . S
C4200 H4221 0.931 . S
C4201 C4200 1.392 . S
C4201 C4202 1.361 . S
C4201 C4203 1.500 . S
C4202 C4197 1.390 . S
C4202 C4201 1.361 . S
C4202 H4220 0.931 . S
C4203 C4201 1.500 . S
C4203 C4204 1.371 . S
C4203 C4205 1.365 . S
C4204 C4203 1.371 . S
C4204 C4214 1.386 . S
C4204 H4222 0.931 . S
C4205 C4203 1.365 . S
C4205 C4206 1.409 . S
C4205 H4223 0.929 . S
C4206 C4205 1.409 . S
C4206 C4207 1.380 . S
C4206 H4224 0.930 . S
C4207 C4206 1.380 . S
C4207 C4214 1.357 . S
C4208 C4199 1.511 . S
C4208 C4209 1.341 . S
C4208 C4210 1.371 . S
C4209 C4208 1.341 . S
C4209 C4213 1.394 . S
C4209 H4225 0.930 . S
C4210 C4208 1.371 . S
C4210 C4211 1.392 . S
C4210 H4226 0.931 . S
C4211 C4210 1.392 . S
C4211 C4212 1.331 . S
C4211 H4229 0.932 . S
C4212 C4211 1.331 . S
C4212 C4213 1.336 . S
C4213 C4209 1.394 . S
C4213 C4212 1.336 . S
C4213 H4228 0.929 . S
C4214 C4204 1.386 . S
C4214 C4207 1.357 . S
C4214 H4227 0.928 . S
H4215 C4191 0.931 . S
H4216 C4193 0.930 . S
H4217 C4195 0.929 . S
H4218 C4196 0.931 . S
H4219 C4198 0.930 . S
H4220 C4202 0.931 . S
H4221 C4200 0.931 . S
H4222 C4204 0.931 . S
H4223 C4205 0.929 . S
H4224 C4206 0.930 . S
H4225 C4209 0.930 . S
H4226 C4210 0.931 . S
H4227 C4214 0.928 . S
H4228 C4213 0.929 . S
H4229 C4211 0.932 . S
C4230 C4231 1.386 . S
C4230 C4232 1.397 . S
C4230 H4254 0.931 . S
C4231 C4230 1.386 . S
C4231 C4235 1.397 . S
C4232 C4230 1.397 . S
C4232 C4233 1.384 . S
C4232 H4255 0.930 . S
C4233 C4232 1.384 . S
C4233 C4234 1.377 . S
C4233 C4236 1.481 . S
C4234 C4233 1.377 . S
C4234 C4235 1.389 . S
C4234 H4256 0.929 . S
C4235 C4231 1.397 . S
C4235 C4234 1.389 . S
C4235 H4257 0.931 . S
C4236 C4233 1.481 . S
C4236 C4237 1.387 . S
C4236 C4241 1.390 . S
C4237 C4236 1.387 . S
C4237 C4238 1.401 . S
C4237 H4258 0.930 . S
C4238 C4237 1.401 . S
C4238 C4239 1.376 . S
C4238 C4247 1.511 . S
C4239 C4238 1.376 . S
C4239 C4240 1.392 . S
C4239 H4260 0.931 . S
C4240 C4239 1.392 . S
C4240 C4241 1.361 . S
C4240 C4242 1.500 . S
C4241 C4236 1.390 . S
C4241 C4240 1.361 . S
C4241 H4259 0.931 . S
C4242 C4240 1.500 . S
C4242 C4243 1.371 . S
C4242 C4244 1.365 . S
C4243 C4242 1.371 . S
C4243 C4253 1.386 . S
C4243 H4261 0.931 . S
C4244 C4242 1.365 . S
C4244 C4245 1.409 . S
C4244 H4262 0.929 . S
C4245 C4244 1.409 . S
C4245 C4246 1.380 . S
C4245 H4263 0.930 . S
C4246 C4245 1.380 . S
C4246 C4253 1.357 . S
C4247 C4238 1.511 . S
C4247 C4248 1.341 . S
C4247 C4249 1.371 . S
C4248 C4247 1.341 . S
C4248 C4252 1.394 . S
C4248 H4264 0.930 . S
C4249 C4247 1.371 . S
C4249 C4250 1.392 . S
C4249 H4265 0.931 . S
C4250 C4249 1.392 . S
C4250 C4251 1.331 . S
C4250 H4268 0.932 . S
C4251 C4250 1.331 . S
C4251 C4252 1.336 . S
C4252 C4248 1.394 . S
C4252 C4251 1.336 . S
C4252 H4267 0.929 . S
C4253 C4243 1.386 . S
C4253 C4246 1.357 . S
C4253 H4266 0.928 . S
H4254 C4230 0.931 . S
H4255 C4232 0.930 . S
H4256 C4234 0.929 . S
H4257 C4235 0.931 . S
H4258 C4237 0.930 . S
H4259 C4241 0.931 . S
H4260 C4239 0.931 . S
H4261 C4243 0.931 . S
H4262 C4244 0.929 . S
H4263 C4245 0.930 . S
H4264 C4248 0.930 . S
H4265 C4249 0.931 . S
H4266 C4253 0.928 . S
H4267 C4252 0.929 . S
H4268 C4250 0.932 . S
C4269 C4270 1.386 . S
C4269 C4271 1.397 . S
C4269 H4293 0.931 . S
C4270 C4269 1.386 . S
C4270 C4274 1.397 . S
C4271 C4269 1.397 . S
C4271 C4272 1.384 . S
C4271 H4294 0.930 . S
C4272 C4271 1.384 . S
C4272 C4273 1.377 . S
C4272 C4275 1.481 . S
C4273 C4272 1.377 . S
C4273 C4274 1.389 . S
C4273 H4295 0.929 . S
C4274 C4270 1.397 . S
C4274 C4273 1.389 . S
C4274 H4296 0.931 . S
C4275 C4272 1.481 . S
C4275 C4276 1.387 . S
C4275 C4280 1.390 . S
C4276 C4275 1.387 . S
C4276 C4277 1.401 . S
C4276 H4297 0.930 . S
C4277 C4276 1.401 . S
C4277 C4278 1.376 . S
C4277 C4286 1.511 . S
C4278 C4277 1.376 . S
C4278 C4279 1.392 . S
C4278 H4299 0.931 . S
C4279 C4278 1.392 . S
C4279 C4280 1.361 . S
C4279 C4281 1.500 . S
C4280 C4275 1.390 . S
C4280 C4279 1.361 . S
C4280 H4298 0.931 . S
C4281 C4279 1.500 . S
C4281 C4282 1.371 . S
C4281 C4283 1.365 . S
C4282 C4281 1.371 . S
C4282 C4292 1.386 . S
C4282 H4300 0.931 . S
C4283 C4281 1.365 . S
C4283 C4284 1.409 . S
C4283 H4301 0.929 . S
C4284 C4283 1.409 . S
C4284 C4285 1.380 . S
C4284 H4302 0.930 . S
C4285 C4284 1.380 . S
C4285 C4292 1.357 . S
C4286 C4277 1.511 . S
C4286 C4287 1.341 . S
C4286 C4288 1.371 . S
C4287 C4286 1.341 . S
C4287 C4291 1.394 . S
C4287 H4303 0.930 . S
C4288 C4286 1.371 . S
C4288 C4289 1.392 . S
C4288 H4304 0.931 . S
C4289 C4288 1.392 . S
C4289 C4290 1.331 . S
C4289 H4307 0.932 . S
C4290 C4289 1.331 . S
C4290 C4291 1.336 . S
C4291 C4287 1.394 . S
C4291 C4290 1.336 . S
C4291 H4306 0.929 . S
C4292 C4282 1.386 . S
C4292 C4285 1.357 . S
C4292 H4305 0.928 . S
H4293 C4269 0.931 . S
H4294 C4271 0.930 . S
H4295 C4273 0.929 . S
H4296 C4274 0.931 . S
H4297 C4276 0.930 . S
H4298 C4280 0.931 . S
H4299 C4278 0.931 . S
H4300 C4282 0.931 . S
H4301 C4283 0.929 . S
H4302 C4284 0.930 . S
H4303 C4287 0.930 . S
H4304 C4288 0.931 . S
H4305 C4292 0.928 . S
H4306 C4291 0.929 . S
H4307 C4289 0.932 . S
C4308 C4309 1.386 . S
C4308 C4310 1.397 . S
C4308 H4332 0.931 . S
C4309 C4308 1.386 . S
C4309 C4313 1.397 . S
C4310 C4308 1.397 . S
C4310 C4311 1.384 . S
C4310 H4333 0.930 . S
C4311 C4310 1.384 . S
C4311 C4312 1.377 . S
C4311 C4314 1.481 . S
C4312 C4311 1.377 . S
C4312 C4313 1.389 . S
C4312 H4334 0.929 . S
C4313 C4309 1.397 . S
C4313 C4312 1.389 . S
C4313 H4335 0.931 . S
C4314 C4311 1.481 . S
C4314 C4315 1.387 . S
C4314 C4319 1.390 . S
C4315 C4314 1.387 . S
C4315 C4316 1.401 . S
C4315 H4336 0.930 . S
C4316 C4315 1.401 . S
C4316 C4317 1.376 . S
C4316 C4325 1.511 . S
C4317 C4316 1.376 . S
C4317 C4318 1.392 . S
C4317 H4338 0.931 . S
C4318 C4317 1.392 . S
C4318 C4319 1.361 . S
C4318 C4320 1.500 . S
C4319 C4314 1.390 . S
C4319 C4318 1.361 . S
C4319 H4337 0.931 . S
C4320 C4318 1.500 . S
C4320 C4321 1.371 . S
C4320 C4322 1.365 . S
C4321 C4320 1.371 . S
C4321 C4331 1.386 . S
C4321 H4339 0.931 . S
C4322 C4320 1.365 . S
C4322 C4323 1.409 . S
C4322 H4340 0.929 . S
C4323 C4322 1.409 . S
C4323 C4324 1.380 . S
C4323 H4341 0.930 . S
C4324 C4323 1.380 . S
C4324 C4331 1.357 . S
C4325 C4316 1.511 . S
C4325 C4326 1.341 . S
C4325 C4327 1.371 . S
C4326 C4325 1.341 . S
C4326 C4330 1.394 . S
C4326 H4342 0.930 . S
C4327 C4325 1.371 . S
C4327 C4328 1.392 . S
C4327 H4343 0.931 . S
C4328 C4327 1.392 . S
C4328 C4329 1.331 . S
C4328 H4346 0.932 . S
C4329 C4328 1.331 . S
C4329 C4330 1.336 . S
C4330 C4326 1.394 . S
C4330 C4329 1.336 . S
C4330 H4345 0.929 . S
C4331 C4321 1.386 . S
C4331 C4324 1.357 . S
C4331 H4344 0.928 . S
H4332 C4308 0.931 . S
H4333 C4310 0.930 . S
H4334 C4312 0.929 . S
H4335 C4313 0.931 . S
H4336 C4315 0.930 . S
H4337 C4319 0.931 . S
H4338 C4317 0.931 . S
H4339 C4321 0.931 . S
H4340 C4322 0.929 . S
H4341 C4323 0.930 . S
H4342 C4326 0.930 . S
H4343 C4327 0.931 . S
H4344 C4331 0.928 . S
H4345 C4330 0.929 . S
H4346 C4328 0.932 . S
C4347 C4348 1.386 . S
C4347 C4349 1.397 . S
C4347 H4371 0.931 . S
C4348 C4347 1.386 . S
C4348 C4352 1.397 . S
C4349 C4347 1.397 . S
C4349 C4350 1.384 . S
C4349 H4372 0.930 . S
C4350 C4349 1.384 . S
C4350 C4351 1.377 . S
C4350 C4353 1.481 . S
C4351 C4350 1.377 . S
C4351 C4352 1.389 . S
C4351 H4373 0.929 . S
C4352 C4348 1.397 . S
C4352 C4351 1.389 . S
C4352 H4374 0.931 . S
C4353 C4350 1.481 . S
C4353 C4354 1.387 . S
C4353 C4358 1.390 . S
C4354 C4353 1.387 . S
C4354 C4355 1.401 . S
C4354 H4375 0.930 . S
C4355 C4354 1.401 . S
C4355 C4356 1.376 . S
C4355 C4364 1.511 . S
C4356 C4355 1.376 . S
C4356 C4357 1.392 . S
C4356 H4377 0.931 . S
C4357 C4356 1.392 . S
C4357 C4358 1.361 . S
C4357 C4359 1.500 . S
C4358 C4353 1.390 . S
C4358 C4357 1.361 . S
C4358 H4376 0.931 . S
C4359 C4357 1.500 . S
C4359 C4360 1.371 . S
C4359 C4361 1.365 . S
C4360 C4359 1.371 . S
C4360 C4370 1.386 . S
C4360 H4378 0.931 . S
C4361 C4359 1.365 . S
C4361 C4362 1.409 . S
C4361 H4379 0.929 . S
C4362 C4361 1.409 . S
C4362 C4363 1.380 . S
C4362 H4380 0.930 . S
C4363 C4362 1.380 . S
C4363 C4370 1.357 . S
C4364 C4355 1.511 . S
C4364 C4365 1.341 . S
C4364 C4366 1.371 . S
C4365 C4364 1.341 . S
C4365 C4369 1.394 . S
C4365 H4381 0.930 . S
C4366 C4364 1.371 . S
C4366 C4367 1.392 . S
C4366 H4382 0.931 . S
C4367 C4366 1.392 . S
C4367 C4368 1.331 . S
C4367 H4385 0.932 . S
C4368 C4367 1.331 . S
C4368 C4369 1.336 . S
C4369 C4365 1.394 . S
C4369 C4368 1.336 . S
C4369 H4384 0.929 . S
C4370 C4360 1.386 . S
C4370 C4363 1.357 . S
C4370 H4383 0.928 . S
H4371 C4347 0.931 . S
H4372 C4349 0.930 . S
H4373 C4351 0.929 . S
H4374 C4352 0.931 . S
H4375 C4354 0.930 . S
H4376 C4358 0.931 . S
H4377 C4356 0.931 . S
H4378 C4360 0.931 . S
H4379 C4361 0.929 . S
H4380 C4362 0.930 . S
H4381 C4365 0.930 . S
H4382 C4366 0.931 . S
H4383 C4370 0.928 . S
H4384 C4369 0.929 . S
H4385 C4367 0.932 . S
C4386 C4387 1.386 . S
C4386 C4388 1.397 . S
C4386 H4410 0.931 . S
C4387 C4386 1.386 . S
C4387 C4391 1.397 . S
C4388 C4386 1.397 . S
C4388 C4389 1.384 . S
C4388 H4411 0.930 . S
C4389 C4388 1.384 . S
C4389 C4390 1.377 . S
C4389 C4392 1.481 . S
C4390 C4389 1.377 . S
C4390 C4391 1.389 . S
C4390 H4412 0.929 . S
C4391 C4387 1.397 . S
C4391 C4390 1.389 . S
C4391 H4413 0.931 . S
C4392 C4389 1.481 . S
C4392 C4393 1.387 . S
C4392 C4397 1.390 . S
C4393 C4392 1.387 . S
C4393 C4394 1.401 . S
C4393 H4414 0.930 . S
C4394 C4393 1.401 . S
C4394 C4395 1.376 . S
C4394 C4403 1.511 . S
C4395 C4394 1.376 . S
C4395 C4396 1.392 . S
C4395 H4416 0.931 . S
C4396 C4395 1.392 . S
C4396 C4397 1.361 . S
C4396 C4398 1.500 . S
C4397 C4392 1.390 . S
C4397 C4396 1.361 . S
C4397 H4415 0.931 . S
C4398 C4396 1.500 . S
C4398 C4399 1.371 . S
C4398 C4400 1.365 . S
C4399 C4398 1.371 . S
C4399 C4409 1.386 . S
C4399 H4417 0.931 . S
C4400 C4398 1.365 . S
C4400 C4401 1.409 . S
C4400 H4418 0.929 . S
C4401 C4400 1.409 . S
C4401 C4402 1.380 . S
C4401 H4419 0.930 . S
C4402 C4401 1.380 . S
C4402 C4409 1.357 . S
C4403 C4394 1.511 . S
C4403 C4404 1.341 . S
C4403 C4405 1.371 . S
C4404 C4403 1.341 . S
C4404 C4408 1.394 . S
C4404 H4420 0.930 . S
C4405 C4403 1.371 . S
C4405 C4406 1.392 . S
C4405 H4421 0.931 . S
C4406 C4405 1.392 . S
C4406 C4407 1.331 . S
C4406 H4424 0.932 . S
C4407 C4406 1.331 . S
C4407 C4408 1.336 . S
C4408 C4404 1.394 . S
C4408 C4407 1.336 . S
C4408 H4423 0.929 . S
C4409 C4399 1.386 . S
C4409 C4402 1.357 . S
C4409 H4422 0.928 . S
H4410 C4386 0.931 . S
H4411 C4388 0.930 . S
H4412 C4390 0.929 . S
H4413 C4391 0.931 . S
H4414 C4393 0.930 . S
H4415 C4397 0.931 . S
H4416 C4395 0.931 . S
H4417 C4399 0.931 . S
H4418 C4400 0.929 . S
H4419 C4401 0.930 . S
H4420 C4404 0.930 . S
H4421 C4405 0.931 . S
H4422 C4409 0.928 . S
H4423 C4408 0.929 . S
H4424 C4406 0.932 . S
C4425 C4426 1.386 . S
C4425 C4427 1.397 . S
C4425 H4449 0.931 . S
C4426 C4425 1.386 . S
C4426 C4430 1.397 . S
C4427 C4425 1.397 . S
C4427 C4428 1.384 . S
C4427 H4450 0.930 . S
C4428 C4427 1.384 . S
C4428 C4429 1.377 . S
C4428 C4431 1.481 . S
C4429 C4428 1.377 . S
C4429 C4430 1.389 . S
C4429 H4451 0.929 . S
C4430 C4426 1.397 . S
C4430 C4429 1.389 . S
C4430 H4452 0.931 . S
C4431 C4428 1.481 . S
C4431 C4432 1.387 . S
C4431 C4436 1.390 . S
C4432 C4431 1.387 . S
C4432 C4433 1.401 . S
C4432 H4453 0.930 . S
C4433 C4432 1.401 . S
C4433 C4434 1.376 . S
C4433 C4442 1.511 . S
C4434 C4433 1.376 . S
C4434 C4435 1.392 . S
C4434 H4455 0.931 . S
C4435 C4434 1.392 . S
C4435 C4436 1.361 . S
C4435 C4437 1.500 . S
C4436 C4431 1.390 . S
C4436 C4435 1.361 . S
C4436 H4454 0.931 . S
C4437 C4435 1.500 . S
C4437 C4438 1.371 . S
C4437 C4439 1.365 . S
C4438 C4437 1.371 . S
C4438 C4448 1.386 . S
C4438 H4456 0.931 . S
C4439 C4437 1.365 . S
C4439 C4440 1.409 . S
C4439 H4457 0.929 . S
C4440 C4439 1.409 . S
C4440 C4441 1.380 . S
C4440 H4458 0.930 . S
C4441 C4440 1.380 . S
C4441 C4448 1.357 . S
C4442 C4433 1.511 . S
C4442 C4443 1.341 . S
C4442 C4444 1.371 . S
C4443 C4442 1.341 . S
C4443 C4447 1.394 . S
C4443 H4459 0.930 . S
C4444 C4442 1.371 . S
C4444 C4445 1.392 . S
C4444 H4460 0.931 . S
C4445 C4444 1.392 . S
C4445 C4446 1.331 . S
C4445 H4463 0.932 . S
C4446 C4445 1.331 . S
C4446 C4447 1.336 . S
C4447 C4443 1.394 . S
C4447 C4446 1.336 . S
C4447 H4462 0.929 . S
C4448 C4438 1.386 . S
C4448 C4441 1.357 . S
C4448 H4461 0.928 . S
H4449 C4425 0.931 . S
H4450 C4427 0.930 . S
H4451 C4429 0.929 . S
H4452 C4430 0.931 . S
H4453 C4432 0.930 . S
H4454 C4436 0.931 . S
H4455 C4434 0.931 . S
H4456 C4438 0.931 . S
H4457 C4439 0.929 . S
H4458 C4440 0.930 . S
H4459 C4443 0.930 . S
H4460 C4444 0.931 . S
H4461 C4448 0.928 . S
H4462 C4447 0.929 . S
H4463 C4445 0.932 . S
C4464 C4465 1.386 . S
C4464 C4466 1.397 . S
C4464 H4488 0.931 . S
C4465 C4464 1.386 . S
C4465 C4469 1.397 . S
C4466 C4464 1.397 . S
C4466 C4467 1.384 . S
C4466 H4489 0.930 . S
C4467 C4466 1.384 . S
C4467 C4468 1.377 . S
C4467 C4470 1.481 . S
C4468 C4467 1.377 . S
C4468 C4469 1.389 . S
C4468 H4490 0.929 . S
C4469 C4465 1.397 . S
C4469 C4468 1.389 . S
C4469 H4491 0.931 . S
C4470 C4467 1.481 . S
C4470 C4471 1.387 . S
C4470 C4475 1.390 . S
C4471 C4470 1.387 . S
C4471 C4472 1.401 . S
C4471 H4492 0.930 . S
C4472 C4471 1.401 . S
C4472 C4473 1.376 . S
C4472 C4481 1.511 . S
C4473 C4472 1.376 . S
C4473 C4474 1.392 . S
C4473 H4494 0.931 . S
C4474 C4473 1.392 . S
C4474 C4475 1.361 . S
C4474 C4476 1.500 . S
C4475 C4470 1.390 . S
C4475 C4474 1.361 . S
C4475 H4493 0.931 . S
C4476 C4474 1.500 . S
C4476 C4477 1.371 . S
C4476 C4478 1.365 . S
C4477 C4476 1.371 . S
C4477 C4487 1.386 . S
C4477 H4495 0.931 . S
C4478 C4476 1.365 . S
C4478 C4479 1.409 . S
C4478 H4496 0.929 . S
C4479 C4478 1.409 . S
C4479 C4480 1.380 . S
C4479 H4497 0.930 . S
C4480 C4479 1.380 . S
C4480 C4487 1.357 . S
C4481 C4472 1.511 . S
C4481 C4482 1.341 . S
C4481 C4483 1.371 . S
C4482 C4481 1.341 . S
C4482 C4486 1.394 . S
C4482 H4498 0.930 . S
C4483 C4481 1.371 . S
C4483 C4484 1.392 . S
C4483 H4499 0.931 . S
C4484 C4483 1.392 . S
C4484 C4485 1.331 . S
C4484 H4502 0.932 . S
C4485 C4484 1.331 . S
C4485 C4486 1.336 . S
C4486 C4482 1.394 . S
C4486 C4485 1.336 . S
C4486 H4501 0.929 . S
C4487 C4477 1.386 . S
C4487 C4480 1.357 . S
C4487 H4500 0.928 . S
H4488 C4464 0.931 . S
H4489 C4466 0.930 . S
H4490 C4468 0.929 . S
H4491 C4469 0.931 . S
H4492 C4471 0.930 . S
H4493 C4475 0.931 . S
H4494 C4473 0.931 . S
H4495 C4477 0.931 . S
H4496 C4478 0.929 . S
H4497 C4479 0.930 . S
H4498 C4482 0.930 . S
H4499 C4483 0.931 . S
H4500 C4487 0.928 . S
H4501 C4486 0.929 . S
H4502 C4484 0.932 . S
C4503 C4504 1.386 . S
C4503 C4505 1.397 . S
C4503 H4527 0.931 . S
C4504 C4503 1.386 . S
C4504 C4508 1.397 . S
C4505 C4503 1.397 . S
C4505 C4506 1.384 . S
C4505 H4528 0.930 . S
C4506 C4505 1.384 . S
C4506 C4507 1.377 . S
C4506 C4509 1.481 . S
C4507 C4506 1.377 . S
C4507 C4508 1.389 . S
C4507 H4529 0.929 . S
C4508 C4504 1.397 . S
C4508 C4507 1.389 . S
C4508 H4530 0.931 . S
C4509 C4506 1.481 . S
C4509 C4510 1.387 . S
C4509 C4514 1.390 . S
C4510 C4509 1.387 . S
C4510 C4511 1.401 . S
C4510 H4531 0.930 . S
C4511 C4510 1.401 . S
C4511 C4512 1.376 . S
C4511 C4520 1.511 . S
C4512 C4511 1.376 . S
C4512 C4513 1.392 . S
C4512 H4533 0.931 . S
C4513 C4512 1.392 . S
C4513 C4514 1.361 . S
C4513 C4515 1.500 . S
C4514 C4509 1.390 . S
C4514 C4513 1.361 . S
C4514 H4532 0.931 . S
C4515 C4513 1.500 . S
C4515 C4516 1.371 . S
C4515 C4517 1.365 . S
C4516 C4515 1.371 . S
C4516 C4526 1.386 . S
C4516 H4534 0.931 . S
C4517 C4515 1.365 . S
C4517 C4518 1.409 . S
C4517 H4535 0.929 . S
C4518 C4517 1.409 . S
C4518 C4519 1.380 . S
C4518 H4536 0.930 . S
C4519 C4518 1.380 . S
C4519 C4526 1.357 . S
C4520 C4511 1.511 . S
C4520 C4521 1.341 . S
C4520 C4522 1.371 . S
C4521 C4520 1.341 . S
C4521 C4525 1.394 . S
C4521 H4537 0.930 . S
C4522 C4520 1.371 . S
C4522 C4523 1.392 . S
C4522 H4538 0.931 . S
C4523 C4522 1.392 . S
C4523 C4524 1.331 . S
C4523 H4541 0.932 . S
C4524 C4523 1.331 . S
C4524 C4525 1.336 . S
C4525 C4521 1.394 . S
C4525 C4524 1.336 . S
C4525 H4540 0.929 . S
C4526 C4516 1.386 . S
C4526 C4519 1.357 . S
C4526 H4539 0.928 . S
H4527 C4503 0.931 . S
H4528 C4505 0.930 . S
H4529 C4507 0.929 . S
H4530 C4508 0.931 . S
H4531 C4510 0.930 . S
H4532 C4514 0.931 . S
H4533 C4512 0.931 . S
H4534 C4516 0.931 . S
H4535 C4517 0.929 . S
H4536 C4518 0.930 . S
H4537 C4521 0.930 . S
H4538 C4522 0.931 . S
H4539 C4526 0.928 . S
H4540 C4525 0.929 . S
H4541 C4523 0.932 . S
C4542 C4543 1.386 . S
C4542 C4544 1.397 . S
C4542 H4566 0.931 . S
C4543 C4542 1.386 . S
C4543 C4547 1.397 . S
C4544 C4542 1.397 . S
C4544 C4545 1.384 . S
C4544 H4567 0.930 . S
C4545 C4544 1.384 . S
C4545 C4546 1.377 . S
C4545 C4548 1.481 . S
C4546 C4545 1.377 . S
C4546 C4547 1.389 . S
C4546 H4568 0.929 . S
C4547 C4543 1.397 . S
C4547 C4546 1.389 . S
C4547 H4569 0.931 . S
C4548 C4545 1.481 . S
C4548 C4549 1.387 . S
C4548 C4553 1.390 . S
C4549 C4548 1.387 . S
C4549 C4550 1.401 . S
C4549 H4570 0.930 . S
C4550 C4549 1.401 . S
C4550 C4551 1.376 . S
C4550 C4559 1.511 . S
C4551 C4550 1.376 . S
C4551 C4552 1.392 . S
C4551 H4572 0.931 . S
C4552 C4551 1.392 . S
C4552 C4553 1.361 . S
C4552 C4554 1.500 . S
C4553 C4548 1.390 . S
C4553 C4552 1.361 . S
C4553 H4571 0.931 . S
C4554 C4552 1.500 . S
C4554 C4555 1.371 . S
C4554 C4556 1.365 . S
C4555 C4554 1.371 . S
C4555 C4565 1.386 . S
C4555 H4573 0.931 . S
C4556 C4554 1.365 . S
C4556 C4557 1.409 . S
C4556 H4574 0.929 . S
C4557 C4556 1.409 . S
C4557 C4558 1.380 . S
C4557 H4575 0.930 . S
C4558 C4557 1.380 . S
C4558 C4565 1.357 . S
C4559 C4550 1.511 . S
C4559 C4560 1.341 . S
C4559 C4561 1.371 . S
C4560 C4559 1.341 . S
C4560 C4564 1.394 . S
C4560 H4576 0.930 . S
C4561 C4559 1.371 . S
C4561 C4562 1.392 . S
C4561 H4577 0.931 . S
C4562 C4561 1.392 . S
C4562 C4563 1.331 . S
C4562 H4580 0.932 . S
C4563 C4562 1.331 . S
C4563 C4564 1.336 . S
C4564 C4560 1.394 . S
C4564 C4563 1.336 . S
C4564 H4579 0.929 . S
C4565 C4555 1.386 . S
C4565 C4558 1.357 . S
C4565 H4578 0.928 . S
H4566 C4542 0.931 . S
H4567 C4544 0.930 . S
H4568 C4546 0.929 . S
H4569 C4547 0.931 . S
H4570 C4549 0.930 . S
H4571 C4553 0.931 . S
H4572 C4551 0.931 . S
H4573 C4555 0.931 . S
H4574 C4556 0.929 . S
H4575 C4557 0.930 . S
H4576 C4560 0.930 . S
H4577 C4561 0.931 . S
H4578 C4565 0.928 . S
H4579 C4564 0.929 . S
H4580 C4562 0.932 . S
C4581 C4582 1.386 . S
C4581 C4583 1.397 . S
C4581 H4605 0.931 . S
C4582 C4581 1.386 . S
C4582 C4586 1.397 . S
C4583 C4581 1.397 . S
C4583 C4584 1.384 . S
C4583 H4606 0.930 . S
C4584 C4583 1.384 . S
C4584 C4585 1.377 . S
C4584 C4587 1.481 . S
C4585 C4584 1.377 . S
C4585 C4586 1.389 . S
C4585 H4607 0.929 . S
C4586 C4582 1.397 . S
C4586 C4585 1.389 . S
C4586 H4608 0.931 . S
C4587 C4584 1.481 . S
C4587 C4588 1.387 . S
C4587 C4592 1.390 . S
C4588 C4587 1.387 . S
C4588 C4589 1.401 . S
C4588 H4609 0.930 . S
C4589 C4588 1.401 . S
C4589 C4590 1.376 . S
C4589 C4598 1.511 . S
C4590 C4589 1.376 . S
C4590 C4591 1.392 . S
C4590 H4611 0.931 . S
C4591 C4590 1.392 . S
C4591 C4592 1.361 . S
C4591 C4593 1.500 . S
C4592 C4587 1.390 . S
C4592 C4591 1.361 . S
C4592 H4610 0.931 . S
C4593 C4591 1.500 . S
C4593 C4594 1.371 . S
C4593 C4595 1.365 . S
C4594 C4593 1.371 . S
C4594 C4604 1.386 . S
C4594 H4612 0.931 . S
C4595 C4593 1.365 . S
C4595 C4596 1.409 . S
C4595 H4613 0.929 . S
C4596 C4595 1.409 . S
C4596 C4597 1.380 . S
C4596 H4614 0.930 . S
C4597 C4596 1.380 . S
C4597 C4604 1.357 . S
C4598 C4589 1.511 . S
C4598 C4599 1.341 . S
C4598 C4600 1.371 . S
C4599 C4598 1.341 . S
C4599 C4603 1.394 . S
C4599 H4615 0.930 . S
C4600 C4598 1.371 . S
C4600 C4601 1.392 . S
C4600 H4616 0.931 . S
C4601 C4600 1.392 . S
C4601 C4602 1.331 . S
C4601 H4619 0.932 . S
C4602 C4601 1.331 . S
C4602 C4603 1.336 . S
C4603 C4599 1.394 . S
C4603 C4602 1.336 . S
C4603 H4618 0.929 . S
C4604 C4594 1.386 . S
C4604 C4597 1.357 . S
C4604 H4617 0.928 . S
H4605 C4581 0.931 . S
H4606 C4583 0.930 . S
H4607 C4585 0.929 . S
H4608 C4586 0.931 . S
H4609 C4588 0.930 . S
H4610 C4592 0.931 . S
H4611 C4590 0.931 . S
H4612 C4594 0.931 . S
H4613 C4595 0.929 . S
H4614 C4596 0.930 . S
H4615 C4599 0.930 . S
H4616 C4600 0.931 . S
H4617 C4604 0.928 . S
H4618 C4603 0.929 . S
H4619 C4601 0.932 . S
C4620 C4621 1.386 . S
C4620 C4622 1.397 . S
C4620 H4644 0.931 . S
C4621 C4620 1.386 . S
C4621 C4625 1.397 . S
C4622 C4620 1.397 . S
C4622 C4623 1.384 . S
C4622 H4645 0.930 . S
C4623 C4622 1.384 . S
C4623 C4624 1.377 . S
C4623 C4626 1.481 . S
C4624 C4623 1.377 . S
C4624 C4625 1.389 . S
C4624 H4646 0.929 . S
C4625 C4621 1.397 . S
C4625 C4624 1.389 . S
C4625 H4647 0.931 . S
C4626 C4623 1.481 . S
C4626 C4627 1.387 . S
C4626 C4631 1.390 . S
C4627 C4626 1.387 . S
C4627 C4628 1.401 . S
C4627 H4648 0.930 . S
C4628 C4627 1.401 . S
C4628 C4629 1.376 . S
C4628 C4637 1.511 . S
C4629 C4628 1.376 . S
C4629 C4630 1.392 . S
C4629 H4650 0.931 . S
C4630 C4629 1.392 . S
C4630 C4631 1.361 . S
C4630 C4632 1.500 . S
C4631 C4626 1.390 . S
C4631 C4630 1.361 . S
C4631 H4649 0.931 . S
C4632 C4630 1.500 . S
C4632 C4633 1.371 . S
C4632 C4634 1.365 . S
C4633 C4632 1.371 . S
C4633 C4643 1.386 . S
C4633 H4651 0.931 . S
C4634 C4632 1.365 . S
C4634 C4635 1.409 . S
C4634 H4652 0.929 . S
C4635 C4634 1.409 . S
C4635 C4636 1.380 . S
C4635 H4653 0.930 . S
C4636 C4635 1.380 . S
C4636 C4643 1.357 . S
C4637 C4628 1.511 . S
C4637 C4638 1.341 . S
C4637 C4639 1.371 . S
C4638 C4637 1.341 . S
C4638 C4642 1.394 . S
C4638 H4654 0.930 . S
C4639 C4637 1.371 . S
C4639 C4640 1.392 . S
C4639 H4655 0.931 . S
C4640 C4639 1.392 . S
C4640 C4641 1.331 . S
C4640 H4658 0.932 . S
C4641 C4640 1.331 . S
C4641 C4642 1.336 . S
C4642 C4638 1.394 . S
C4642 C4641 1.336 . S
C4642 H4657 0.929 . S
C4643 C4633 1.386 . S
C4643 C4636 1.357 . S
C4643 H4656 0.928 . S
H4644 C4620 0.931 . S
H4645 C4622 0.930 . S
H4646 C4624 0.929 . S
H4647 C4625 0.931 . S
H4648 C4627 0.930 . S
H4649 C4631 0.931 . S
H4650 C4629 0.931 . S
H4651 C4633 0.931 . S
H4652 C4634 0.929 . S
H4653 C4635 0.930 . S
H4654 C4638 0.930 . S
H4655 C4639 0.931 . S
H4656 C4643 0.928 . S
H4657 C4642 0.929 . S
H4658 C4640 0.932 . S
C4659 C4660 1.386 . S
C4659 C4661 1.397 . S
C4659 H4683 0.931 . S
C4660 C4659 1.386 . S
C4660 C4664 1.397 . S
C4661 C4659 1.397 . S
C4661 C4662 1.384 . S
C4661 H4684 0.930 . S
C4662 C4661 1.384 . S
C4662 C4663 1.377 . S
C4662 C4665 1.481 . S
C4663 C4662 1.377 . S
C4663 C4664 1.389 . S
C4663 H4685 0.929 . S
C4664 C4660 1.397 . S
C4664 C4663 1.389 . S
C4664 H4686 0.931 . S
C4665 C4662 1.481 . S
C4665 C4666 1.387 . S
C4665 C4670 1.390 . S
C4666 C4665 1.387 . S
C4666 C4667 1.401 . S
C4666 H4687 0.930 . S
C4667 C4666 1.401 . S
C4667 C4668 1.376 . S
C4667 C4676 1.511 . S
C4668 C4667 1.376 . S
C4668 C4669 1.392 . S
C4668 H4689 0.931 . S
C4669 C4668 1.392 . S
C4669 C4670 1.361 . S
C4669 C4671 1.500 . S
C4670 C4665 1.390 . S
C4670 C4669 1.361 . S
C4670 H4688 0.931 . S
C4671 C4669 1.500 . S
C4671 C4672 1.371 . S
C4671 C4673 1.365 . S
C4672 C4671 1.371 . S
C4672 C4682 1.386 . S
C4672 H4690 0.931 . S
C4673 C4671 1.365 . S
C4673 C4674 1.409 . S
C4673 H4691 0.929 . S
C4674 C4673 1.409 . S
C4674 C4675 1.380 . S
C4674 H4692 0.930 . S
C4675 C4674 1.380 . S
C4675 C4682 1.357 . S
C4676 C4667 1.511 . S
C4676 C4677 1.341 . S
C4676 C4678 1.371 . S
C4677 C4676 1.341 . S
C4677 C4681 1.394 . S
C4677 H4693 0.930 . S
C4678 C4676 1.371 . S
C4678 C4679 1.392 . S
C4678 H4694 0.931 . S
C4679 C4678 1.392 . S
C4679 C4680 1.331 . S
C4679 H4697 0.932 . S
C4680 C4679 1.331 . S
C4680 C4681 1.336 . S
C4681 C4677 1.394 . S
C4681 C4680 1.336 . S
C4681 H4696 0.929 . S
C4682 C4672 1.386 . S
C4682 C4675 1.357 . S
C4682 H4695 0.928 . S
H4683 C4659 0.931 . S
H4684 C4661 0.930 . S
H4685 C4663 0.929 . S
H4686 C4664 0.931 . S
H4687 C4666 0.930 . S
H4688 C4670 0.931 . S
H4689 C4668 0.931 . S
H4690 C4672 0.931 . S
H4691 C4673 0.929 . S
H4692 C4674 0.930 . S
H4693 C4677 0.930 . S
H4694 C4678 0.931 . S
H4695 C4682 0.928 . S
H4696 C4681 0.929 . S
H4697 C4679 0.932 . S
C4698 C4699 1.386 . S
C4698 C4700 1.397 . S
C4698 H4722 0.931 . S
C4699 C4698 1.386 . S
C4699 C4703 1.397 . S
C4700 C4698 1.397 . S
C4700 C4701 1.384 . S
C4700 H4723 0.930 . S
C4701 C4700 1.384 . S
C4701 C4702 1.377 . S
C4701 C4704 1.481 . S
C4702 C4701 1.377 . S
C4702 C4703 1.389 . S
C4702 H4724 0.929 . S
C4703 C4699 1.397 . S
C4703 C4702 1.389 . S
C4703 H4725 0.931 . S
C4704 C4701 1.481 . S
C4704 C4705 1.387 . S
C4704 C4709 1.390 . S
C4705 C4704 1.387 . S
C4705 C4706 1.401 . S
C4705 H4726 0.930 . S
C4706 C4705 1.401 . S
C4706 C4707 1.376 . S
C4706 C4715 1.511 . S
C4707 C4706 1.376 . S
C4707 C4708 1.392 . S
C4707 H4728 0.931 . S
C4708 C4707 1.392 . S
C4708 C4709 1.361 . S
C4708 C4710 1.500 . S
C4709 C4704 1.390 . S
C4709 C4708 1.361 . S
C4709 H4727 0.931 . S
C4710 C4708 1.500 . S
C4710 C4711 1.371 . S
C4710 C4712 1.365 . S
C4711 C4710 1.371 . S
C4711 C4721 1.386 . S
C4711 H4729 0.931 . S
C4712 C4710 1.365 . S
C4712 C4713 1.409 . S
C4712 H4730 0.929 . S
C4713 C4712 1.409 . S
C4713 C4714 1.380 . S
C4713 H4731 0.930 . S
C4714 C4713 1.380 . S
C4714 C4721 1.357 . S
C4715 C4706 1.511 . S
C4715 C4716 1.341 . S
C4715 C4717 1.371 . S
C4716 C4715 1.341 . S
C4716 C4720 1.394 . S
C4716 H4732 0.930 . S
C4717 C4715 1.371 . S
C4717 C4718 1.392 . S
C4717 H4733 0.931 . S
C4718 C4717 1.392 . S
C4718 C4719 1.331 . S
C4718 H4736 0.932 . S
C4719 C4718 1.331 . S
C4719 C4720 1.336 . S
C4720 C4716 1.394 . S
C4720 C4719 1.336 . S
C4720 H4735 0.929 . S
C4721 C4711 1.386 . S
C4721 C4714 1.357 . S
C4721 H4734 0.928 . S
H4722 C4698 0.931 . S
H4723 C4700 0.930 . S
H4724 C4702 0.929 . S
H4725 C4703 0.931 . S
H4726 C4705 0.930 . S
H4727 C4709 0.931 . S
H4728 C4707 0.931 . S
H4729 C4711 0.931 . S
H4730 C4712 0.929 . S
H4731 C4713 0.930 . S
H4732 C4716 0.930 . S
H4733 C4717 0.931 . S
H4734 C4721 0.928 . S
H4735 C4720 0.929 . S
H4736 C4718 0.932 . S
C4737 C4738 1.386 . S
C4737 C4739 1.397 . S
C4737 H4761 0.931 . S
C4738 C4737 1.386 . S
C4738 C4742 1.397 . S
C4739 C4737 1.397 . S
C4739 C4740 1.384 . S
C4739 H4762 0.930 . S
C4740 C4739 1.384 . S
C4740 C4741 1.377 . S
C4740 C4743 1.481 . S
C4741 C4740 1.377 . S
C4741 C4742 1.389 . S
C4741 H4763 0.929 . S
C4742 C4738 1.397 . S
C4742 C4741 1.389 . S
C4742 H4764 0.931 . S
C4743 C4740 1.481 . S
C4743 C4744 1.387 . S
C4743 C4748 1.390 . S
C4744 C4743 1.387 . S
C4744 C4745 1.401 . S
C4744 H4765 0.930 . S
C4745 C4744 1.401 . S
C4745 C4746 1.376 . S
C4745 C4754 1.511 . S
C4746 C4745 1.376 . S
C4746 C4747 1.392 . S
C4746 H4767 0.931 . S
C4747 C4746 1.392 . S
C4747 C4748 1.361 . S
C4747 C4749 1.500 . S
C4748 C4743 1.390 . S
C4748 C4747 1.361 . S
C4748 H4766 0.931 . S
C4749 C4747 1.500 . S
C4749 C4750 1.371 . S
C4749 C4751 1.365 . S
C4750 C4749 1.371 . S
C4750 C4760 1.386 . S
C4750 H4768 0.931 . S
C4751 C4749 1.365 . S
C4751 C4752 1.409 . S
C4751 H4769 0.929 . S
C4752 C4751 1.409 . S
C4752 C4753 1.380 . S
C4752 H4770 0.930 . S
C4753 C4752 1.380 . S
C4753 C4760 1.357 . S
C4754 C4745 1.511 . S
C4754 C4755 1.341 . S
C4754 C4756 1.371 . S
C4755 C4754 1.341 . S
C4755 C4759 1.394 . S
C4755 H4771 0.930 . S
C4756 C4754 1.371 . S
C4756 C4757 1.392 . S
C4756 H4772 0.931 . S
C4757 C4756 1.392 . S
C4757 C4758 1.331 . S
C4757 H4775 0.932 . S
C4758 C4757 1.331 . S
C4758 C4759 1.336 . S
C4759 C4755 1.394 . S
C4759 C4758 1.336 . S
C4759 H4774 0.929 . S
C4760 C4750 1.386 . S
C4760 C4753 1.357 . S
C4760 H4773 0.928 . S
H4761 C4737 0.931 . S
H4762 C4739 0.930 . S
H4763 C4741 0.929 . S
H4764 C4742 0.931 . S
H4765 C4744 0.930 . S
H4766 C4748 0.931 . S
H4767 C4746 0.931 . S
H4768 C4750 0.931 . S
H4769 C4751 0.929 . S
H4770 C4752 0.930 . S
H4771 C4755 0.930 . S
H4772 C4756 0.931 . S
H4773 C4760 0.928 . S
H4774 C4759 0.929 . S
H4775 C4757 0.932 . S
C4776 C4777 1.386 . S
C4776 C4778 1.397 . S
C4776 H4800 0.931 . S
C4777 C4776 1.386 . S
C4777 C4781 1.397 . S
C4778 C4776 1.397 . S
C4778 C4779 1.384 . S
C4778 H4801 0.930 . S
C4779 C4778 1.384 . S
C4779 C4780 1.377 . S
C4779 C4782 1.481 . S
C4780 C4779 1.377 . S
C4780 C4781 1.389 . S
C4780 H4802 0.929 . S
C4781 C4777 1.397 . S
C4781 C4780 1.389 . S
C4781 H4803 0.931 . S
C4782 C4779 1.481 . S
C4782 C4783 1.387 . S
C4782 C4787 1.390 . S
C4783 C4782 1.387 . S
C4783 C4784 1.401 . S
C4783 H4804 0.930 . S
C4784 C4783 1.401 . S
C4784 C4785 1.376 . S
C4784 C4793 1.511 . S
C4785 C4784 1.376 . S
C4785 C4786 1.392 . S
C4785 H4806 0.931 . S
C4786 C4785 1.392 . S
C4786 C4787 1.361 . S
C4786 C4788 1.500 . S
C4787 C4782 1.390 . S
C4787 C4786 1.361 . S
C4787 H4805 0.931 . S
C4788 C4786 1.500 . S
C4788 C4789 1.371 . S
C4788 C4790 1.365 . S
C4789 C4788 1.371 . S
C4789 C4799 1.386 . S
C4789 H4807 0.931 . S
C4790 C4788 1.365 . S
C4790 C4791 1.409 . S
C4790 H4808 0.929 . S
C4791 C4790 1.409 . S
C4791 C4792 1.380 . S
C4791 H4809 0.930 . S
C4792 C4791 1.380 . S
C4792 C4799 1.357 . S
C4793 C4784 1.511 . S
C4793 C4794 1.341 . S
C4793 C4795 1.371 . S
C4794 C4793 1.341 . S
C4794 C4798 1.394 . S
C4794 H4810 0.930 . S
C4795 C4793 1.371 . S
C4795 C4796 1.392 . S
C4795 H4811 0.931 . S
C4796 C4795 1.392 . S
C4796 C4797 1.331 . S
C4796 H4814 0.932 . S
C4797 C4796 1.331 . S
C4797 C4798 1.336 . S
C4798 C4794 1.394 . S
C4798 C4797 1.336 . S
C4798 H4813 0.929 . S
C4799 C4789 1.386 . S
C4799 C4792 1.357 . S
C4799 H4812 0.928 . S
H4800 C4776 0.931 . S
H4801 C4778 0.930 . S
H4802 C4780 0.929 . S
H4803 C4781 0.931 . S
H4804 C4783 0.930 . S
H4805 C4787 0.931 . S
H4806 C4785 0.931 . S
H4807 C4789 0.931 . S
H4808 C4790 0.929 . S
H4809 C4791 0.930 . S
H4810 C4794 0.930 . S
H4811 C4795 0.931 . S
H4812 C4799 0.928 . S
H4813 C4798 0.929 . S
H4814 C4796 0.932 . S
C4815 C4816 1.386 . S
C4815 C4817 1.397 . S
C4815 H4839 0.931 . S
C4816 C4815 1.386 . S
C4816 C4820 1.397 . S
C4817 C4815 1.397 . S
C4817 C4818 1.384 . S
C4817 H4840 0.930 . S
C4818 C4817 1.384 . S
C4818 C4819 1.377 . S
C4818 C4821 1.481 . S
C4819 C4818 1.377 . S
C4819 C4820 1.389 . S
C4819 H4841 0.929 . S
C4820 C4816 1.397 . S
C4820 C4819 1.389 . S
C4820 H4842 0.931 . S
C4821 C4818 1.481 . S
C4821 C4822 1.387 . S
C4821 C4826 1.390 . S
C4822 C4821 1.387 . S
C4822 C4823 1.401 . S
C4822 H4843 0.930 . S
C4823 C4822 1.401 . S
C4823 C4824 1.376 . S
C4823 C4832 1.511 . S
C4824 C4823 1.376 . S
C4824 C4825 1.392 . S
C4824 H4845 0.931 . S
C4825 C4824 1.392 . S
C4825 C4826 1.361 . S
C4825 C4827 1.500 . S
C4826 C4821 1.390 . S
C4826 C4825 1.361 . S
C4826 H4844 0.931 . S
C4827 C4825 1.500 . S
C4827 C4828 1.371 . S
C4827 C4829 1.365 . S
C4828 C4827 1.371 . S
C4828 C4838 1.386 . S
C4828 H4846 0.931 . S
C4829 C4827 1.365 . S
C4829 C4830 1.409 . S
C4829 H4847 0.929 . S
C4830 C4829 1.409 . S
C4830 C4831 1.380 . S
C4830 H4848 0.930 . S
C4831 C4830 1.380 . S
C4831 C4838 1.357 . S
C4832 C4823 1.511 . S
C4832 C4833 1.341 . S
C4832 C4834 1.371 . S
C4833 C4832 1.341 . S
C4833 C4837 1.394 . S
C4833 H4849 0.930 . S
C4834 C4832 1.371 . S
C4834 C4835 1.392 . S
C4834 H4850 0.931 . S
C4835 C4834 1.392 . S
C4835 C4836 1.331 . S
C4835 H4853 0.932 . S
C4836 C4835 1.331 . S
C4836 C4837 1.336 . S
C4837 C4833 1.394 . S
C4837 C4836 1.336 . S
C4837 H4852 0.929 . S
C4838 C4828 1.386 . S
C4838 C4831 1.357 . S
C4838 H4851 0.928 . S
H4839 C4815 0.931 . S
H4840 C4817 0.930 . S
H4841 C4819 0.929 . S
H4842 C4820 0.931 . S
H4843 C4822 0.930 . S
H4844 C4826 0.931 . S
H4845 C4824 0.931 . S
H4846 C4828 0.931 . S
H4847 C4829 0.929 . S
H4848 C4830 0.930 . S
H4849 C4833 0.930 . S
H4850 C4834 0.931 . S
H4851 C4838 0.928 . S
H4852 C4837 0.929 . S
H4853 C4835 0.932 . S
C4854 C4855 1.386 . S
C4854 C4856 1.397 . S
C4854 H4878 0.931 . S
C4855 C4854 1.386 . S
C4855 C4859 1.397 . S
C4856 C4854 1.397 . S
C4856 C4857 1.384 . S
C4856 H4879 0.930 . S
C4857 C4856 1.384 . S
C4857 C4858 1.377 . S
C4857 C4860 1.481 . S
C4858 C4857 1.377 . S
C4858 C4859 1.389 . S
C4858 H4880 0.929 . S
C4859 C4855 1.397 . S
C4859 C4858 1.389 . S
C4859 H4881 0.931 . S
C4860 C4857 1.481 . S
C4860 C4861 1.387 . S
C4860 C4865 1.390 . S
C4861 C4860 1.387 . S
C4861 C4862 1.401 . S
C4861 H4882 0.930 . S
C4862 C4861 1.401 . S
C4862 C4863 1.376 . S
C4862 C4871 1.511 . S
C4863 C4862 1.376 . S
C4863 C4864 1.392 . S
C4863 H4884 0.931 . S
C4864 C4863 1.392 . S
C4864 C4865 1.361 . S
C4864 C4866 1.500 . S
C4865 C4860 1.390 . S
C4865 C4864 1.361 . S
C4865 H4883 0.931 . S
C4866 C4864 1.500 . S
C4866 C4867 1.371 . S
C4866 C4868 1.365 . S
C4867 C4866 1.371 . S
C4867 C4877 1.386 . S
C4867 H4885 0.931 . S
C4868 C4866 1.365 . S
C4868 C4869 1.409 . S
C4868 H4886 0.929 . S
C4869 C4868 1.409 . S
C4869 C4870 1.380 . S
C4869 H4887 0.930 . S
C4870 C4869 1.380 . S
C4870 C4877 1.357 . S
C4871 C4862 1.511 . S
C4871 C4872 1.341 . S
C4871 C4873 1.371 . S
C4872 C4871 1.341 . S
C4872 C4876 1.394 . S
C4872 H4888 0.930 . S
C4873 C4871 1.371 . S
C4873 C4874 1.392 . S
C4873 H4889 0.931 . S
C4874 C4873 1.392 . S
C4874 C4875 1.331 . S
C4874 H4892 0.932 . S
C4875 C4874 1.331 . S
C4875 C4876 1.336 . S
C4876 C4872 1.394 . S
C4876 C4875 1.336 . S
C4876 H4891 0.929 . S
C4877 C4867 1.386 . S
C4877 C4870 1.357 . S
C4877 H4890 0.928 . S
H4878 C4854 0.931 . S
H4879 C4856 0.930 . S
H4880 C4858 0.929 . S
H4881 C4859 0.931 . S
H4882 C4861 0.930 . S
H4883 C4865 0.931 . S
H4884 C4863 0.931 . S
H4885 C4867 0.931 . S
H4886 C4868 0.929 . S
H4887 C4869 0.930 . S
H4888 C4872 0.930 . S
H4889 C4873 0.931 . S
H4890 C4877 0.928 . S
H4891 C4876 0.929 . S
H4892 C4874 0.932 . S
C4893 C4894 1.386 . S
C4893 C4895 1.397 . S
C4893 H4917 0.931 . S
C4894 C4893 1.386 . S
C4894 C4898 1.397 . S
C4895 C4893 1.397 . S
C4895 C4896 1.384 . S
C4895 H4918 0.930 . S
C4896 C4895 1.384 . S
C4896 C4897 1.377 . S
C4896 C4899 1.481 . S
C4897 C4896 1.377 . S
C4897 C4898 1.389 . S
C4897 H4919 0.929 . S
C4898 C4894 1.397 . S
C4898 C4897 1.389 . S
C4898 H4920 0.931 . S
C4899 C4896 1.481 . S
C4899 C4900 1.387 . S
C4899 C4904 1.390 . S
C4900 C4899 1.387 . S
C4900 C4901 1.401 . S
C4900 H4921 0.930 . S
C4901 C4900 1.401 . S
C4901 C4902 1.376 . S
C4901 C4910 1.511 . S
C4902 C4901 1.376 . S
C4902 C4903 1.392 . S
C4902 H4923 0.931 . S
C4903 C4902 1.392 . S
C4903 C4904 1.361 . S
C4903 C4905 1.500 . S
C4904 C4899 1.390 . S
C4904 C4903 1.361 . S
C4904 H4922 0.931 . S
C4905 C4903 1.500 . S
C4905 C4906 1.371 . S
C4905 C4907 1.365 . S
C4906 C4905 1.371 . S
C4906 C4916 1.386 . S
C4906 H4924 0.931 . S
C4907 C4905 1.365 . S
C4907 C4908 1.409 . S
C4907 H4925 0.929 . S
C4908 C4907 1.409 . S
C4908 C4909 1.380 . S
C4908 H4926 0.930 . S
C4909 C4908 1.380 . S
C4909 C4916 1.357 . S
C4910 C4901 1.511 . S
C4910 C4911 1.341 . S
C4910 C4912 1.371 . S
C4911 C4910 1.341 . S
C4911 C4915 1.394 . S
C4911 H4927 0.930 . S
C4912 C4910 1.371 . S
C4912 C4913 1.392 . S
C4912 H4928 0.931 . S
C4913 C4912 1.392 . S
C4913 C4914 1.331 . S
C4913 H4931 0.932 . S
C4914 C4913 1.331 . S
C4914 C4915 1.336 . S
C4915 C4911 1.394 . S
C4915 C4914 1.336 . S
C4915 H4930 0.929 . S
C4916 C4906 1.386 . S
C4916 C4909 1.357 . S
C4916 H4929 0.928 . S
H4917 C4893 0.931 . S
H4918 C4895 0.930 . S
H4919 C4897 0.929 . S
H4920 C4898 0.931 . S
H4921 C4900 0.930 . S
H4922 C4904 0.931 . S
H4923 C4902 0.931 . S
H4924 C4906 0.931 . S
H4925 C4907 0.929 . S
H4926 C4908 0.930 . S
H4927 C4911 0.930 . S
H4928 C4912 0.931 . S
H4929 C4916 0.928 . S
H4930 C4915 0.929 . S
H4931 C4913 0.932 . S
C4932 C4933 1.386 . S
C4932 C4934 1.397 . S
C4932 H4956 0.931 . S
C4933 C4932 1.386 . S
C4933 C4937 1.397 . S
C4934 C4932 1.397 . S
C4934 C4935 1.384 . S
C4934 H4957 0.930 . S
C4935 C4934 1.384 . S
C4935 C4936 1.377 . S
C4935 C4938 1.481 . S
C4936 C4935 1.377 . S
C4936 C4937 1.389 . S
C4936 H4958 0.929 . S
C4937 C4933 1.397 . S
C4937 C4936 1.389 . S
C4937 H4959 0.931 . S
C4938 C4935 1.481 . S
C4938 C4939 1.387 . S
C4938 C4943 1.390 . S
C4939 C4938 1.387 . S
C4939 C4940 1.401 . S
C4939 H4960 0.930 . S
C4940 C4939 1.401 . S
C4940 C4941 1.376 . S
C4940 C4949 1.511 . S
C4941 C4940 1.376 . S
C4941 C4942 1.392 . S
C4941 H4962 0.931 . S
C4942 C4941 1.392 . S
C4942 C4943 1.361 . S
C4942 C4944 1.500 . S
C4943 C4938 1.390 . S
C4943 C4942 1.361 . S
C4943 H4961 0.931 . S
C4944 C4942 1.500 . S
C4944 C4945 1.371 . S
C4944 C4946 1.365 . S
C4945 C4944 1.371 . S
C4945 C4955 1.386 . S
C4945 H4963 0.931 . S
C4946 C4944 1.365 . S
C4946 C4947 1.409 . S
C4946 H4964 0.929 . S
C4947 C4946 1.409 . S
C4947 C4948 1.380 . S
C4947 H4965 0.930 . S
C4948 C4947 1.380 . S
C4948 C4955 1.357 . S
C4949 C4940 1.511 . S
C4949 C4950 1.341 . S
C4949 C4951 1.371 . S
C4950 C4949 1.341 . S
C4950 C4954 1.394 . S
C4950 H4966 0.930 . S
C4951 C4949 1.371 . S
C4951 C4952 1.392 . S
C4951 H4967 0.931 . S
C4952 C4951 1.392 . S
C4952 C4953 1.331 . S
C4952 H4970 0.932 . S
C4953 C4952 1.331 . S
C4953 C4954 1.336 . S
C4954 C4950 1.394 . S
C4954 C4953 1.336 . S
C4954 H4969 0.929 . S
C4955 C4945 1.386 . S
C4955 C4948 1.357 . S
C4955 H4968 0.928 . S
H4956 C4932 0.931 . S
H4957 C4934 0.930 . S
H4958 C4936 0.929 . S
H4959 C4937 0.931 . S
H4960 C4939 0.930 . S
H4961 C4943 0.931 . S
H4962 C4941 0.931 . S
H4963 C4945 0.931 . S
H4964 C4946 0.929 . S
H4965 C4947 0.930 . S
H4966 C4950 0.930 . S
H4967 C4951 0.931 . S
H4968 C4955 0.928 . S
H4969 C4954 0.929 . S
H4970 C4952 0.932 . S
C4971 C4972 1.386 . S
C4971 C4973 1.397 . S
C4971 H4995 0.931 . S
C4972 C4971 1.386 . S
C4972 C4976 1.397 . S
C4973 C4971 1.397 . S
C4973 C4974 1.384 . S
C4973 H4996 0.930 . S
C4974 C4973 1.384 . S
C4974 C4975 1.377 . S
C4974 C4977 1.481 . S
C4975 C4974 1.377 . S
C4975 C4976 1.389 . S
C4975 H4997 0.929 . S
C4976 C4972 1.397 . S
C4976 C4975 1.389 . S
C4976 H4998 0.931 . S
C4977 C4974 1.481 . S
C4977 C4978 1.387 . S
C4977 C4982 1.390 . S
C4978 C4977 1.387 . S
C4978 C4979 1.401 . S
C4978 H4999 0.930 . S
C4979 C4978 1.401 . S
C4979 C4980 1.376 . S
C4979 C4988 1.511 . S
C4980 C4979 1.376 . S
C4980 C4981 1.392 . S
C4980 H5001 0.931 . S
C4981 C4980 1.392 . S
C4981 C4982 1.361 . S
C4981 C4983 1.500 . S
C4982 C4977 1.390 . S
C4982 C4981 1.361 . S
C4982 H5000 0.931 . S
C4983 C4981 1.500 . S
C4983 C4984 1.371 . S
C4983 C4985 1.365 . S
C4984 C4983 1.371 . S
C4984 C4994 1.386 . S
C4984 H5002 0.931 . S
C4985 C4983 1.365 . S
C4985 C4986 1.409 . S
C4985 H5003 0.929 . S
C4986 C4985 1.409 . S
C4986 C4987 1.380 . S
C4986 H5004 0.930 . S
C4987 C4986 1.380 . S
C4987 C4994 1.357 . S
C4988 C4979 1.511 . S
C4988 C4989 1.341 . S
C4988 C4990 1.371 . S
C4989 C4988 1.341 . S
C4989 C4993 1.394 . S
C4989 H5005 0.930 . S
C4990 C4988 1.371 . S
C4990 C4991 1.392 . S
C4990 H5006 0.931 . S
C4991 C4990 1.392 . S
C4991 C4992 1.331 . S
C4991 H5009 0.932 . S
C4992 C4991 1.331 . S
C4992 C4993 1.336 . S
C4993 C4989 1.394 . S
C4993 C4992 1.336 . S
C4993 H5008 0.929 . S
C4994 C4984 1.386 . S
C4994 C4987 1.357 . S
C4994 H5007 0.928 . S
H4995 C4971 0.931 . S
H4996 C4973 0.930 . S
H4997 C4975 0.929 . S
H4998 C4976 0.931 . S
H4999 C4978 0.930 . S
H5000 C4982 0.931 . S
H5001 C4980 0.931 . S
H5002 C4984 0.931 . S
H5003 C4985 0.929 . S
H5004 C4986 0.930 . S
H5005 C4989 0.930 . S
H5006 C4990 0.931 . S
H5007 C4994 0.928 . S
H5008 C4993 0.929 . S
H5009 C4991 0.932 . S
C5010 C5011 1.386 . S
C5010 C5012 1.397 . S
C5010 H5034 0.931 . S
C5011 C5010 1.386 . S
C5011 C5015 1.397 . S
C5012 C5010 1.397 . S
C5012 C5013 1.384 . S
C5012 H5035 0.930 . S
C5013 C5012 1.384 . S
C5013 C5014 1.377 . S
C5013 C5016 1.481 . S
C5014 C5013 1.377 . S
C5014 C5015 1.389 . S
C5014 H5036 0.929 . S
C5015 C5011 1.397 . S
C5015 C5014 1.389 . S
C5015 H5037 0.931 . S
C5016 C5013 1.481 . S
C5016 C5017 1.387 . S
C5016 C5021 1.390 . S
C5017 C5016 1.387 . S
C5017 C5018 1.401 . S
C5017 H5038 0.930 . S
C5018 C5017 1.401 . S
C5018 C5019 1.376 . S
C5018 C5027 1.511 . S
C5019 C5018 1.376 . S
C5019 C5020 1.392 . S
C5019 H5040 0.931 . S
C5020 C5019 1.392 . S
C5020 C5021 1.361 . S
C5020 C5022 1.500 . S
C5021 C5016 1.390 . S
C5021 C5020 1.361 . S
C5021 H5039 0.931 . S
C5022 C5020 1.500 . S
C5022 C5023 1.371 . S
C5022 C5024 1.365 . S
C5023 C5022 1.371 . S
C5023 C5033 1.386 . S
C5023 H5041 0.931 . S
C5024 C5022 1.365 . S
C5024 C5025 1.409 . S
C5024 H5042 0.929 . S
C5025 C5024 1.409 . S
C5025 C5026 1.380 . S
C5025 H5043 0.930 . S
C5026 C5025 1.380 . S
C5026 C5033 1.357 . S
C5027 C5018 1.511 . S
C5027 C5028 1.341 . S
C5027 C5029 1.371 . S
C5028 C5027 1.341 . S
C5028 C5032 1.394 . S
C5028 H5044 0.930 . S
C5029 C5027 1.371 . S
C5029 C5030 1.392 . S
C5029 H5045 0.931 . S
C5030 C5029 1.392 . S
C5030 C5031 1.331 . S
C5030 H5048 0.932 . S
C5031 C5030 1.331 . S
C5031 C5032 1.336 . S
C5032 C5028 1.394 . S
C5032 C5031 1.336 . S
C5032 H5047 0.929 . S
C5033 C5023 1.386 . S
C5033 C5026 1.357 . S
C5033 H5046 0.928 . S
H5034 C5010 0.931 . S
H5035 C5012 0.930 . S
H5036 C5014 0.929 . S
H5037 C5015 0.931 . S
H5038 C5017 0.930 . S
H5039 C5021 0.931 . S
H5040 C5019 0.931 . S
H5041 C5023 0.931 . S
H5042 C5024 0.929 . S
H5043 C5025 0.930 . S
H5044 C5028 0.930 . S
H5045 C5029 0.931 . S
H5046 C5033 0.928 . S
H5047 C5032 0.929 . S
H5048 C5030 0.932 . S
C5049 C5050 1.386 . S
C5049 C5051 1.397 . S
C5049 H5073 0.931 . S
C5050 C5049 1.386 . S
C5050 C5054 1.397 . S
C5051 C5049 1.397 . S
C5051 C5052 1.384 . S
C5051 H5074 0.930 . S
C5052 C5051 1.384 . S
C5052 C5053 1.377 . S
C5052 C5055 1.481 . S
C5053 C5052 1.377 . S
C5053 C5054 1.389 . S
C5053 H5075 0.929 . S
C5054 C5050 1.397 . S
C5054 C5053 1.389 . S
C5054 H5076 0.931 . S
C5055 C5052 1.481 . S
C5055 C5056 1.387 . S
C5055 C5060 1.390 . S
C5056 C5055 1.387 . S
C5056 C5057 1.401 . S
C5056 H5077 0.930 . S
C5057 C5056 1.401 . S
C5057 C5058 1.376 . S
C5057 C5066 1.511 . S
C5058 C5057 1.376 . S
C5058 C5059 1.392 . S
C5058 H5079 0.931 . S
C5059 C5058 1.392 . S
C5059 C5060 1.361 . S
C5059 C5061 1.500 . S
C5060 C5055 1.390 . S
C5060 C5059 1.361 . S
C5060 H5078 0.931 . S
C5061 C5059 1.500 . S
C5061 C5062 1.371 . S
C5061 C5063 1.365 . S
C5062 C5061 1.371 . S
C5062 C5072 1.386 . S
C5062 H5080 0.931 . S
C5063 C5061 1.365 . S
C5063 C5064 1.409 . S
C5063 H5081 0.929 . S
C5064 C5063 1.409 . S
C5064 C5065 1.380 . S
C5064 H5082 0.930 . S
C5065 C5064 1.380 . S
C5065 C5072 1.357 . S
C5066 C5057 1.511 . S
C5066 C5067 1.341 . S
C5066 C5068 1.371 . S
C5067 C5066 1.341 . S
C5067 C5071 1.394 . S
C5067 H5083 0.930 . S
C5068 C5066 1.371 . S
C5068 C5069 1.392 . S
C5068 H5084 0.931 . S
C5069 C5068 1.392 . S
C5069 C5070 1.331 . S
C5069 H5087 0.932 . S
C5070 C5069 1.331 . S
C5070 C5071 1.336 . S
C5071 C5067 1.394 . S
C5071 C5070 1.336 . S
C5071 H5086 0.929 . S
C5072 C5062 1.386 . S
C5072 C5065 1.357 . S
C5072 H5085 0.928 . S
H5073 C5049 0.931 . S
H5074 C5051 0.930 . S
H5075 C5053 0.929 . S
H5076 C5054 0.931 . S
H5077 C5056 0.930 . S
H5078 C5060 0.931 . S
H5079 C5058 0.931 . S
H5080 C5062 0.931 . S
H5081 C5063 0.929 . S
H5082 C5064 0.930 . S
H5083 C5067 0.930 . S
H5084 C5068 0.931 . S
H5085 C5072 0.928 . S
H5086 C5071 0.929 . S
H5087 C5069 0.932 . S
C5088 C5089 1.386 . S
C5088 C5090 1.397 . S
C5088 H5112 0.931 . S
C5089 C5088 1.386 . S
C5089 C5093 1.397 . S
C5090 C5088 1.397 . S
C5090 C5091 1.384 . S
C5090 H5113 0.930 . S
C5091 C5090 1.384 . S
C5091 C5092 1.377 . S
C5091 C5094 1.481 . S
C5092 C5091 1.377 . S
C5092 C5093 1.389 . S
C5092 H5114 0.929 . S
C5093 C5089 1.397 . S
C5093 C5092 1.389 . S
C5093 H5115 0.931 . S
C5094 C5091 1.481 . S
C5094 C5095 1.387 . S
C5094 C5099 1.390 . S
C5095 C5094 1.387 . S
C5095 C5096 1.401 . S
C5095 H5116 0.930 . S
C5096 C5095 1.401 . S
C5096 C5097 1.376 . S
C5096 C5105 1.511 . S
C5097 C5096 1.376 . S
C5097 C5098 1.392 . S
C5097 H5118 0.931 . S
C5098 C5097 1.392 . S
C5098 C5099 1.361 . S
C5098 C5100 1.500 . S
C5099 C5094 1.390 . S
C5099 C5098 1.361 . S
C5099 H5117 0.931 . S
C5100 C5098 1.500 . S
C5100 C5101 1.371 . S
C5100 C5102 1.365 . S
C5101 C5100 1.371 . S
C5101 C5111 1.386 . S
C5101 H5119 0.931 . S
C5102 C5100 1.365 . S
C5102 C5103 1.409 . S
C5102 H5120 0.929 . S
C5103 C5102 1.409 . S
C5103 C5104 1.380 . S
C5103 H5121 0.930 . S
C5104 C5103 1.380 . S
C5104 C5111 1.357 . S
C5105 C5096 1.511 . S
C5105 C5106 1.341 . S
C5105 C5107 1.371 . S
C5106 C5105 1.341 . S
C5106 C5110 1.394 . S
C5106 H5122 0.930 . S
C5107 C5105 1.371 . S
C5107 C5108 1.392 . S
C5107 H5123 0.931 . S
C5108 C5107 1.392 . S
C5108 C5109 1.331 . S
C5108 H5126 0.932 . S
C5109 C5108 1.331 . S
C5109 C5110 1.336 . S
C5110 C5106 1.394 . S
C5110 C5109 1.336 . S
C5110 H5125 0.929 . S
C5111 C5101 1.386 . S
C5111 C5104 1.357 . S
C5111 H5124 0.928 . S
H5112 C5088 0.931 . S
H5113 C5090 0.930 . S
H5114 C5092 0.929 . S
H5115 C5093 0.931 . S
H5116 C5095 0.930 . S
H5117 C5099 0.931 . S
H5118 C5097 0.931 . S
H5119 C5101 0.931 . S
H5120 C5102 0.929 . S
H5121 C5103 0.930 . S
H5122 C5106 0.930 . S
H5123 C5107 0.931 . S
H5124 C5111 0.928 . S
H5125 C5110 0.929 . S
H5126 C5108 0.932 . S
C5127 C5128 1.386 . S
C5127 C5129 1.397 . S
C5127 H5151 0.931 . S
C5128 C5127 1.386 . S
C5128 C5132 1.397 . S
C5129 C5127 1.397 . S
C5129 C5130 1.384 . S
C5129 H5152 0.930 . S
C5130 C5129 1.384 . S
C5130 C5131 1.377 . S
C5130 C5133 1.481 . S
C5131 C5130 1.377 . S
C5131 C5132 1.389 . S
C5131 H5153 0.929 . S
C5132 C5128 1.397 . S
C5132 C5131 1.389 . S
C5132 H5154 0.931 . S
C5133 C5130 1.481 . S
C5133 C5134 1.387 . S
C5133 C5138 1.390 . S
C5134 C5133 1.387 . S
C5134 C5135 1.401 . S
C5134 H5155 0.930 . S
C5135 C5134 1.401 . S
C5135 C5136 1.376 . S
C5135 C5144 1.511 . S
C5136 C5135 1.376 . S
C5136 C5137 1.392 . S
C5136 H5157 0.931 . S
C5137 C5136 1.392 . S
C5137 C5138 1.361 . S
C5137 C5139 1.500 . S
C5138 C5133 1.390 . S
C5138 C5137 1.361 . S
C5138 H5156 0.931 . S
C5139 C5137 1.500 . S
C5139 C5140 1.371 . S
C5139 C5141 1.365 . S
C5140 C5139 1.371 . S
C5140 C5150 1.386 . S
C5140 H5158 0.931 . S
C5141 C5139 1.365 . S
C5141 C5142 1.409 . S
C5141 H5159 0.929 . S
C5142 C5141 1.409 . S
C5142 C5143 1.380 . S
C5142 H5160 0.930 . S
C5143 C5142 1.380 . S
C5143 C5150 1.357 . S
C5144 C5135 1.511 . S
C5144 C5145 1.341 . S
C5144 C5146 1.371 . S
C5145 C5144 1.341 . S
C5145 C5149 1.394 . S
C5145 H5161 0.930 . S
C5146 C5144 1.371 . S
C5146 C5147 1.392 . S
C5146 H5162 0.931 . S
C5147 C5146 1.392 . S
C5147 C5148 1.331 . S
C5147 H5165 0.932 . S
C5148 C5147 1.331 . S
C5148 C5149 1.336 . S
C5149 C5145 1.394 . S
C5149 C5148 1.336 . S
C5149 H5164 0.929 . S
C5150 C5140 1.386 . S
C5150 C5143 1.357 . S
C5150 H5163 0.928 . S
H5151 C5127 0.931 . S
H5152 C5129 0.930 . S
H5153 C5131 0.929 . S
H5154 C5132 0.931 . S
H5155 C5134 0.930 . S
H5156 C5138 0.931 . S
H5157 C5136 0.931 . S
H5158 C5140 0.931 . S
H5159 C5141 0.929 . S
H5160 C5142 0.930 . S
H5161 C5145 0.930 . S
H5162 C5146 0.931 . S
H5163 C5150 0.928 . S
H5164 C5149 0.929 . S
H5165 C5147 0.932 . S
C5166 C5167 1.386 . S
C5166 C5168 1.397 . S
C5166 H5190 0.931 . S
C5167 C5166 1.386 . S
C5167 C5171 1.397 . S
C5168 C5166 1.397 . S
C5168 C5169 1.384 . S
C5168 H5191 0.930 . S
C5169 C5168 1.384 . S
C5169 C5170 1.377 . S
C5169 C5172 1.481 . S
C5170 C5169 1.377 . S
C5170 C5171 1.389 . S
C5170 H5192 0.929 . S
C5171 C5167 1.397 . S
C5171 C5170 1.389 . S
C5171 H5193 0.931 . S
C5172 C5169 1.481 . S
C5172 C5173 1.387 . S
C5172 C5177 1.390 . S
C5173 C5172 1.387 . S
C5173 C5174 1.401 . S
C5173 H5194 0.930 . S
C5174 C5173 1.401 . S
C5174 C5175 1.376 . S
C5174 C5183 1.511 . S
C5175 C5174 1.376 . S
C5175 C5176 1.392 . S
C5175 H5196 0.931 . S
C5176 C5175 1.392 . S
C5176 C5177 1.361 . S
C5176 C5178 1.500 . S
C5177 C5172 1.390 . S
C5177 C5176 1.361 . S
C5177 H5195 0.931 . S
C5178 C5176 1.500 . S
C5178 C5179 1.371 . S
C5178 C5180 1.365 . S
C5179 C5178 1.371 . S
C5179 C5189 1.386 . S
C5179 H5197 0.931 . S
C5180 C5178 1.365 . S
C5180 C5181 1.409 . S
C5180 H5198 0.929 . S
C5181 C5180 1.409 . S
C5181 C5182 1.380 . S
C5181 H5199 0.930 . S
C5182 C5181 1.380 . S
C5182 C5189 1.357 . S
C5183 C5174 1.511 . S
C5183 C5184 1.341 . S
C5183 C5185 1.371 . S
C5184 C5183 1.341 . S
C5184 C5188 1.394 . S
C5184 H5200 0.930 . S
C5185 C5183 1.371 . S
C5185 C5186 1.392 . S
C5185 H5201 0.931 . S
C5186 C5185 1.392 . S
C5186 C5187 1.331 . S
C5186 H5204 0.932 . S
C5187 C5186 1.331 . S
C5187 C5188 1.336 . S
C5188 C5184 1.394 . S
C5188 C5187 1.336 . S
C5188 H5203 0.929 . S
C5189 C5179 1.386 . S
C5189 C5182 1.357 . S
C5189 H5202 0.928 . S
H5190 C5166 0.931 . S
H5191 C5168 0.930 . S
H5192 C5170 0.929 . S
H5193 C5171 0.931 . S
H5194 C5173 0.930 . S
H5195 C5177 0.931 . S
H5196 C5175 0.931 . S
H5197 C5179 0.931 . S
H5198 C5180 0.929 . S
H5199 C5181 0.930 . S
H5200 C5184 0.930 . S
H5201 C5185 0.931 . S
H5202 C5189 0.928 . S
H5203 C5188 0.929 . S
H5204 C5186 0.932 . S
C5205 C5206 1.386 . S
C5205 C5207 1.397 . S
C5205 H5229 0.931 . S
C5206 C5205 1.386 . S
C5206 C5210 1.397 . S
C5207 C5205 1.397 . S
C5207 C5208 1.384 . S
C5207 H5230 0.930 . S
C5208 C5207 1.384 . S
C5208 C5209 1.377 . S
C5208 C5211 1.481 . S
C5209 C5208 1.377 . S
C5209 C5210 1.389 . S
C5209 H5231 0.929 . S
C5210 C5206 1.397 . S
C5210 C5209 1.389 . S
C5210 H5232 0.931 . S
C5211 C5208 1.481 . S
C5211 C5212 1.387 . S
C5211 C5216 1.390 . S
C5212 C5211 1.387 . S
C5212 C5213 1.401 . S
C5212 H5233 0.930 . S
C5213 C5212 1.401 . S
C5213 C5214 1.376 . S
C5213 C5222 1.511 . S
C5214 C5213 1.376 . S
C5214 C5215 1.392 . S
C5214 H5235 0.931 . S
C5215 C5214 1.392 . S
C5215 C5216 1.361 . S
C5215 C5217 1.500 . S
C5216 C5211 1.390 . S
C5216 C5215 1.361 . S
C5216 H5234 0.931 . S
C5217 C5215 1.500 . S
C5217 C5218 1.371 . S
C5217 C5219 1.365 . S
C5218 C5217 1.371 . S
C5218 C5228 1.386 . S
C5218 H5236 0.931 . S
C5219 C5217 1.365 . S
C5219 C5220 1.409 . S
C5219 H5237 0.929 . S
C5220 C5219 1.409 . S
C5220 C5221 1.380 . S
C5220 H5238 0.930 . S
C5221 C5220 1.380 . S
C5221 C5228 1.357 . S
C5222 C5213 1.511 . S
C5222 C5223 1.341 . S
C5222 C5224 1.371 . S
C5223 C5222 1.341 . S
C5223 C5227 1.394 . S
C5223 H5239 0.930 . S
C5224 C5222 1.371 . S
C5224 C5225 1.392 . S
C5224 H5240 0.931 . S
C5225 C5224 1.392 . S
C5225 C5226 1.331 . S
C5225 H5243 0.932 . S
C5226 C5225 1.331 . S
C5226 C5227 1.336 . S
C5227 C5223 1.394 . S
C5227 C5226 1.336 . S
C5227 H5242 0.929 . S
C5228 C5218 1.386 . S
C5228 C5221 1.357 . S
C5228 H5241 0.928 . S
H5229 C5205 0.931 . S
H5230 C5207 0.930 . S
H5231 C5209 0.929 . S
H5232 C5210 0.931 . S
H5233 C5212 0.930 . S
H5234 C5216 0.931 . S
H5235 C5214 0.931 . S
H5236 C5218 0.931 . S
H5237 C5219 0.929 . S
H5238 C5220 0.930 . S
H5239 C5223 0.930 . S
H5240 C5224 0.931 . S
H5241 C5228 0.928 . S
H5242 C5227 0.929 . S
H5243 C5225 0.932 . S
C5244 C5245 1.386 . S
C5244 C5246 1.397 . S
C5244 H5268 0.931 . S
C5245 C5244 1.386 . S
C5245 C5249 1.397 . S
C5246 C5244 1.397 . S
C5246 C5247 1.384 . S
C5246 H5269 0.930 . S
C5247 C5246 1.384 . S
C5247 C5248 1.377 . S
C5247 C5250 1.481 . S
C5248 C5247 1.377 . S
C5248 C5249 1.389 . S
C5248 H5270 0.929 . S
C5249 C5245 1.397 . S
C5249 C5248 1.389 . S
C5249 H5271 0.931 . S
C5250 C5247 1.481 . S
C5250 C5251 1.387 . S
C5250 C5255 1.390 . S
C5251 C5250 1.387 . S
C5251 C5252 1.401 . S
C5251 H5272 0.930 . S
C5252 C5251 1.401 . S
C5252 C5253 1.376 . S
C5252 C5261 1.511 . S
C5253 C5252 1.376 . S
C5253 C5254 1.392 . S
C5253 H5274 0.931 . S
C5254 C5253 1.392 . S
C5254 C5255 1.361 . S
C5254 C5256 1.500 . S
C5255 C5250 1.390 . S
C5255 C5254 1.361 . S
C5255 H5273 0.931 . S
C5256 C5254 1.500 . S
C5256 C5257 1.371 . S
C5256 C5258 1.365 . S
C5257 C5256 1.371 . S
C5257 C5267 1.386 . S
C5257 H5275 0.931 . S
C5258 C5256 1.365 . S
C5258 C5259 1.409 . S
C5258 H5276 0.929 . S
C5259 C5258 1.409 . S
C5259 C5260 1.380 . S
C5259 H5277 0.930 . S
C5260 C5259 1.380 . S
C5260 C5267 1.357 . S
C5261 C5252 1.511 . S
C5261 C5262 1.341 . S
C5261 C5263 1.371 . S
C5262 C5261 1.341 . S
C5262 C5266 1.394 . S
C5262 H5278 0.930 . S
C5263 C5261 1.371 . S
C5263 C5264 1.392 . S
C5263 H5279 0.931 . S
C5264 C5263 1.392 . S
C5264 C5265 1.331 . S
C5264 H5282 0.932 . S
C5265 C5264 1.331 . S
C5265 C5266 1.336 . S
C5266 C5262 1.394 . S
C5266 C5265 1.336 . S
C5266 H5281 0.929 . S
C5267 C5257 1.386 . S
C5267 C5260 1.357 . S
C5267 H5280 0.928 . S
H5268 C5244 0.931 . S
H5269 C5246 0.930 . S
H5270 C5248 0.929 . S
H5271 C5249 0.931 . S
H5272 C5251 0.930 . S
H5273 C5255 0.931 . S
H5274 C5253 0.931 . S
H5275 C5257 0.931 . S
H5276 C5258 0.929 . S
H5277 C5259 0.930 . S
H5278 C5262 0.930 . S
H5279 C5263 0.931 . S
H5280 C5267 0.928 . S
H5281 C5266 0.929 . S
H5282 C5264 0.932 . S
C5283 C5284 1.386 . S
C5283 C5285 1.397 . S
C5283 H5307 0.931 . S
C5284 C5283 1.386 . S
C5284 C5288 1.397 . S
C5285 C5283 1.397 . S
C5285 C5286 1.384 . S
C5285 H5308 0.930 . S
C5286 C5285 1.384 . S
C5286 C5287 1.377 . S
C5286 C5289 1.481 . S
C5287 C5286 1.377 . S
C5287 C5288 1.389 . S
C5287 H5309 0.929 . S
C5288 C5284 1.397 . S
C5288 C5287 1.389 . S
C5288 H5310 0.931 . S
C5289 C5286 1.481 . S
C5289 C5290 1.387 . S
C5289 C5294 1.390 . S
C5290 C5289 1.387 . S
C5290 C5291 1.401 . S
C5290 H5311 0.930 . S
C5291 C5290 1.401 . S
C5291 C5292 1.376 . S
C5291 C5300 1.511 . S
C5292 C5291 1.376 . S
C5292 C5293 1.392 . S
C5292 H5313 0.931 . S
C5293 C5292 1.392 . S
C5293 C5294 1.361 . S
C5293 C5295 1.500 . S
C5294 C5289 1.390 . S
C5294 C5293 1.361 . S
C5294 H5312 0.931 . S
C5295 C5293 1.500 . S
C5295 C5296 1.371 . S
C5295 C5297 1.365 . S
C5296 C5295 1.371 . S
C5296 C5306 1.386 . S
C5296 H5314 0.931 . S
C5297 C5295 1.365 . S
C5297 C5298 1.409 . S
C5297 H5315 0.929 . S
C5298 C5297 1.409 . S
C5298 C5299 1.380 . S
C5298 H5316 0.930 . S
C5299 C5298 1.380 . S
C5299 C5306 1.357 . S
C5300 C5291 1.511 . S
C5300 C5301 1.341 . S
C5300 C5302 1.371 . S
C5301 C5300 1.341 . S
C5301 C5305 1.394 . S
C5301 H5317 0.930 . S
C5302 C5300 1.371 . S
C5302 C5303 1.392 . S
C5302 H5318 0.931 . S
C5303 C5302 1.392 . S
C5303 C5304 1.331 . S
C5303 H5321 0.932 . S
C5304 C5303 1.331 . S
C5304 C5305 1.336 . S
C5305 C5301 1.394 . S
C5305 C5304 1.336 . S
C5305 H5320 0.929 . S
C5306 C5296 1.386 . S
C5306 C5299 1.357 . S
C5306 H5319 0.928 . S
H5307 C5283 0.931 . S
H5308 C5285 0.930 . S
H5309 C5287 0.929 . S
H5310 C5288 0.931 . S
H5311 C5290 0.930 . S
H5312 C5294 0.931 . S
H5313 C5292 0.931 . S
H5314 C5296 0.931 . S
H5315 C5297 0.929 . S
H5316 C5298 0.930 . S
H5317 C5301 0.930 . S
H5318 C5302 0.931 . S
H5319 C5306 0.928 . S
H5320 C5305 0.929 . S
H5321 C5303 0.932 . S
C5322 C5323 1.386 . S
C5322 C5324 1.397 . S
C5322 H5346 0.931 . S
C5323 C5322 1.386 . S
C5323 C5327 1.397 . S
C5324 C5322 1.397 . S
C5324 C5325 1.384 . S
C5324 H5347 0.930 . S
C5325 C5324 1.384 . S
C5325 C5326 1.377 . S
C5325 C5328 1.481 . S
C5326 C5325 1.377 . S
C5326 C5327 1.389 . S
C5326 H5348 0.929 . S
C5327 C5323 1.397 . S
C5327 C5326 1.389 . S
C5327 H5349 0.931 . S
C5328 C5325 1.481 . S
C5328 C5329 1.387 . S
C5328 C5333 1.390 . S
C5329 C5328 1.387 . S
C5329 C5330 1.401 . S
C5329 H5350 0.930 . S
C5330 C5329 1.401 . S
C5330 C5331 1.376 . S
C5330 C5339 1.511 . S
C5331 C5330 1.376 . S
C5331 C5332 1.392 . S
C5331 H5352 0.931 . S
C5332 C5331 1.392 . S
C5332 C5333 1.361 . S
C5332 C5334 1.500 . S
C5333 C5328 1.390 . S
C5333 C5332 1.361 . S
C5333 H5351 0.931 . S
C5334 C5332 1.500 . S
C5334 C5335 1.371 . S
C5334 C5336 1.365 . S
C5335 C5334 1.371 . S
C5335 C5345 1.386 . S
C5335 H5353 0.931 . S
C5336 C5334 1.365 . S
C5336 C5337 1.409 . S
C5336 H5354 0.929 . S
C5337 C5336 1.409 . S
C5337 C5338 1.380 . S
C5337 H5355 0.930 . S
C5338 C5337 1.380 . S
C5338 C5345 1.357 . S
C5339 C5330 1.511 . S
C5339 C5340 1.341 . S
C5339 C5341 1.371 . S
C5340 C5339 1.341 . S
C5340 C5344 1.394 . S
C5340 H5356 0.930 . S
C5341 C5339 1.371 . S
C5341 C5342 1.392 . S
C5341 H5357 0.931 . S
C5342 C5341 1.392 . S
C5342 C5343 1.331 . S
C5342 H5360 0.932 . S
C5343 C5342 1.331 . S
C5343 C5344 1.336 . S
C5344 C5340 1.394 . S
C5344 C5343 1.336 . S
C5344 H5359 0.929 . S
C5345 C5335 1.386 . S
C5345 C5338 1.357 . S
C5345 H5358 0.928 . S
H5346 C5322 0.931 . S
H5347 C5324 0.930 . S
H5348 C5326 0.929 . S
H5349 C5327 0.931 . S
H5350 C5329 0.930 . S
H5351 C5333 0.931 . S
H5352 C5331 0.931 . S
H5353 C5335 0.931 . S
H5354 C5336 0.929 . S
H5355 C5337 0.930 . S
H5356 C5340 0.930 . S
H5357 C5341 0.931 . S
H5358 C5345 0.928 . S
H5359 C5344 0.929 . S
H5360 C5342 0.932 . S
C5361 C5362 1.386 . S
C5361 C5363 1.397 . S
C5361 H5385 0.931 . S
C5362 C5361 1.386 . S
C5362 C5366 1.397 . S
C5363 C5361 1.397 . S
C5363 C5364 1.384 . S
C5363 H5386 0.930 . S
C5364 C5363 1.384 . S
C5364 C5365 1.377 . S
C5364 C5367 1.481 . S
C5365 C5364 1.377 . S
C5365 C5366 1.389 . S
C5365 H5387 0.929 . S
C5366 C5362 1.397 . S
C5366 C5365 1.389 . S
C5366 H5388 0.931 . S
C5367 C5364 1.481 . S
C5367 C5368 1.387 . S
C5367 C5372 1.390 . S
C5368 C5367 1.387 . S
C5368 C5369 1.401 . S
C5368 H5389 0.930 . S
C5369 C5368 1.401 . S
C5369 C5370 1.376 . S
C5369 C5378 1.511 . S
C5370 C5369 1.376 . S
C5370 C5371 1.392 . S
C5370 H5391 0.931 . S
C5371 C5370 1.392 . S
C5371 C5372 1.361 . S
C5371 C5373 1.500 . S
C5372 C5367 1.390 . S
C5372 C5371 1.361 . S
C5372 H5390 0.931 . S
C5373 C5371 1.500 . S
C5373 C5374 1.371 . S
C5373 C5375 1.365 . S
C5374 C5373 1.371 . S
C5374 C5384 1.386 . S
C5374 H5392 0.931 . S
C5375 C5373 1.365 . S
C5375 C5376 1.409 . S
C5375 H5393 0.929 . S
C5376 C5375 1.409 . S
C5376 C5377 1.380 . S
C5376 H5394 0.930 . S
C5377 C5376 1.380 . S
C5377 C5384 1.357 . S
C5378 C5369 1.511 . S
C5378 C5379 1.341 . S
C5378 C5380 1.371 . S
C5379 C5378 1.341 . S
C5379 C5383 1.394 . S
C5379 H5395 0.930 . S
C5380 C5378 1.371 . S
C5380 C5381 1.392 . S
C5380 H5396 0.931 . S
C5381 C5380 1.392 . S
C5381 C5382 1.331 . S
C5381 H5399 0.932 . S
C5382 C5381 1.331 . S
C5382 C5383 1.336 . S
C5383 C5379 1.394 . S
C5383 C5382 1.336 . S
C5383 H5398 0.929 . S
C5384 C5374 1.386 . S
C5384 C5377 1.357 . S
C5384 H5397 0.928 . S
H5385 C5361 0.931 . S
H5386 C5363 0.930 . S
H5387 C5365 0.929 . S
H5388 C5366 0.931 . S
H5389 C5368 0.930 . S
H5390 C5372 0.931 . S
H5391 C5370 0.931 . S
H5392 C5374 0.931 . S
H5393 C5375 0.929 . S
H5394 C5376 0.930 . S
H5395 C5379 0.930 . S
H5396 C5380 0.931 . S
H5397 C5384 0.928 . S
H5398 C5383 0.929 . S
H5399 C5381 0.932 . S
C5400 C5401 1.386 . S
C5400 C5402 1.397 . S
C5400 H5424 0.931 . S
C5401 C5400 1.386 . S
C5401 C5405 1.397 . S
C5402 C5400 1.397 . S
C5402 C5403 1.384 . S
C5402 H5425 0.930 . S
C5403 C5402 1.384 . S
C5403 C5404 1.377 . S
C5403 C5406 1.481 . S
C5404 C5403 1.377 . S
C5404 C5405 1.389 . S
C5404 H5426 0.929 . S
C5405 C5401 1.397 . S
C5405 C5404 1.389 . S
C5405 H5427 0.931 . S
C5406 C5403 1.481 . S
C5406 C5407 1.387 . S
C5406 C5411 1.390 . S
C5407 C5406 1.387 . S
C5407 C5408 1.401 . S
C5407 H5428 0.930 . S
C5408 C5407 1.401 . S
C5408 C5409 1.376 . S
C5408 C5417 1.511 . S
C5409 C5408 1.376 . S
C5409 C5410 1.392 . S
C5409 H5430 0.931 . S
C5410 C5409 1.392 . S
C5410 C5411 1.361 . S
C5410 C5412 1.500 . S
C5411 C5406 1.390 . S
C5411 C5410 1.361 . S
C5411 H5429 0.931 . S
C5412 C5410 1.500 . S
C5412 C5413 1.371 . S
C5412 C5414 1.365 . S
C5413 C5412 1.371 . S
C5413 C5423 1.386 . S
C5413 H5431 0.931 . S
C5414 C5412 1.365 . S
C5414 C5415 1.409 . S
C5414 H5432 0.929 . S
C5415 C5414 1.409 . S
C5415 C5416 1.380 . S
C5415 H5433 0.930 . S
C5416 C5415 1.380 . S
C5416 C5423 1.357 . S
C5417 C5408 1.511 . S
C5417 C5418 1.341 . S
C5417 C5419 1.371 . S
C5418 C5417 1.341 . S
C5418 C5422 1.394 . S
C5418 H5434 0.930 . S
C5419 C5417 1.371 . S
C5419 C5420 1.392 . S
C5419 H5435 0.931 . S
C5420 C5419 1.392 . S
C5420 C5421 1.331 . S
C5420 H5438 0.932 . S
C5421 C5420 1.331 . S
C5421 C5422 1.336 . S
C5422 C5418 1.394 . S
C5422 C5421 1.336 . S
C5422 H5437 0.929 . S
C5423 C5413 1.386 . S
C5423 C5416 1.357 . S
C5423 H5436 0.928 . S
H5424 C5400 0.931 . S
H5425 C5402 0.930 . S
H5426 C5404 0.929 . S
H5427 C5405 0.931 . S
H5428 C5407 0.930 . S
H5429 C5411 0.931 . S
H5430 C5409 0.931 . S
H5431 C5413 0.931 . S
H5432 C5414 0.929 . S
H5433 C5415 0.930 . S
H5434 C5418 0.930 . S
H5435 C5419 0.931 . S
H5436 C5423 0.928 . S
H5437 C5422 0.929 . S
H5438 C5420 0.932 . S
C5439 C5440 1.386 . S
C5439 C5441 1.397 . S
C5439 H5463 0.931 . S
C5440 C5439 1.386 . S
C5440 C5444 1.397 . S
C5441 C5439 1.397 . S
C5441 C5442 1.384 . S
C5441 H5464 0.930 . S
C5442 C5441 1.384 . S
C5442 C5443 1.377 . S
C5442 C5445 1.481 . S
C5443 C5442 1.377 . S
C5443 C5444 1.389 . S
C5443 H5465 0.929 . S
C5444 C5440 1.397 . S
C5444 C5443 1.389 . S
C5444 H5466 0.931 . S
C5445 C5442 1.481 . S
C5445 C5446 1.387 . S
C5445 C5450 1.390 . S
C5446 C5445 1.387 . S
C5446 C5447 1.401 . S
C5446 H5467 0.930 . S
C5447 C5446 1.401 . S
C5447 C5448 1.376 . S
C5447 C5456 1.511 . S
C5448 C5447 1.376 . S
C5448 C5449 1.392 . S
C5448 H5469 0.931 . S
C5449 C5448 1.392 . S
C5449 C5450 1.361 . S
C5449 C5451 1.500 . S
C5450 C5445 1.390 . S
C5450 C5449 1.361 . S
C5450 H5468 0.931 . S
C5451 C5449 1.500 . S
C5451 C5452 1.371 . S
C5451 C5453 1.365 . S
C5452 C5451 1.371 . S
C5452 C5462 1.386 . S
C5452 H5470 0.931 . S
C5453 C5451 1.365 . S
C5453 C5454 1.409 . S
C5453 H5471 0.929 . S
C5454 C5453 1.409 . S
C5454 C5455 1.380 . S
C5454 H5472 0.930 . S
C5455 C5454 1.380 . S
C5455 C5462 1.357 . S
C5456 C5447 1.511 . S
C5456 C5457 1.341 . S
C5456 C5458 1.371 . S
C5457 C5456 1.341 . S
C5457 C5461 1.394 . S
C5457 H5473 0.930 . S
C5458 C5456 1.371 . S
C5458 C5459 1.392 . S
C5458 H5474 0.931 . S
C5459 C5458 1.392 . S
C5459 C5460 1.331 . S
C5459 H5477 0.932 . S
C5460 C5459 1.331 . S
C5460 C5461 1.336 . S
C5461 C5457 1.394 . S
C5461 C5460 1.336 . S
C5461 H5476 0.929 . S
C5462 C5452 1.386 . S
C5462 C5455 1.357 . S
C5462 H5475 0.928 . S
H5463 C5439 0.931 . S
H5464 C5441 0.930 . S
H5465 C5443 0.929 . S
H5466 C5444 0.931 . S
H5467 C5446 0.930 . S
H5468 C5450 0.931 . S
H5469 C5448 0.931 . S
H5470 C5452 0.931 . S
H5471 C5453 0.929 . S
H5472 C5454 0.930 . S
H5473 C5457 0.930 . S
H5474 C5458 0.931 . S
H5475 C5462 0.928 . S
H5476 C5461 0.929 . S
H5477 C5459 0.932 . S
C5478 C5479 1.386 . S
C5478 C5480 1.397 . S
C5478 H5502 0.931 . S
C5479 C5478 1.386 . S
C5479 C5483 1.397 . S
C5480 C5478 1.397 . S
C5480 C5481 1.384 . S
C5480 H5503 0.930 . S
C5481 C5480 1.384 . S
C5481 C5482 1.377 . S
C5481 C5484 1.481 . S
C5482 C5481 1.377 . S
C5482 C5483 1.389 . S
C5482 H5504 0.929 . S
C5483 C5479 1.397 . S
C5483 C5482 1.389 . S
C5483 H5505 0.931 . S
C5484 C5481 1.481 . S
C5484 C5485 1.387 . S
C5484 C5489 1.390 . S
C5485 C5484 1.387 . S
C5485 C5486 1.401 . S
C5485 H5506 0.930 . S
C5486 C5485 1.401 . S
C5486 C5487 1.376 . S
C5486 C5495 1.511 . S
C5487 C5486 1.376 . S
C5487 C5488 1.392 . S
C5487 H5508 0.931 . S
C5488 C5487 1.392 . S
C5488 C5489 1.361 . S
C5488 C5490 1.500 . S
C5489 C5484 1.390 . S
C5489 C5488 1.361 . S
C5489 H5507 0.931 . S
C5490 C5488 1.500 . S
C5490 C5491 1.371 . S
C5490 C5492 1.365 . S
C5491 C5490 1.371 . S
C5491 C5501 1.386 . S
C5491 H5509 0.931 . S
C5492 C5490 1.365 . S
C5492 C5493 1.409 . S
C5492 H5510 0.929 . S
C5493 C5492 1.409 . S
C5493 C5494 1.380 . S
C5493 H5511 0.930 . S
C5494 C5493 1.380 . S
C5494 C5501 1.357 . S
C5495 C5486 1.511 . S
C5495 C5496 1.341 . S
C5495 C5497 1.371 . S
C5496 C5495 1.341 . S
C5496 C5500 1.394 . S
C5496 H5512 0.930 . S
C5497 C5495 1.371 . S
C5497 C5498 1.392 . S
C5497 H5513 0.931 . S
C5498 C5497 1.392 . S
C5498 C5499 1.331 . S
C5498 H5516 0.932 . S
C5499 C5498 1.331 . S
C5499 C5500 1.336 . S
C5500 C5496 1.394 . S
C5500 C5499 1.336 . S
C5500 H5515 0.929 . S
C5501 C5491 1.386 . S
C5501 C5494 1.357 . S
C5501 H5514 0.928 . S
H5502 C5478 0.931 . S
H5503 C5480 0.930 . S
H5504 C5482 0.929 . S
H5505 C5483 0.931 . S
H5506 C5485 0.930 . S
H5507 C5489 0.931 . S
H5508 C5487 0.931 . S
H5509 C5491 0.931 . S
H5510 C5492 0.929 . S
H5511 C5493 0.930 . S
H5512 C5496 0.930 . S
H5513 C5497 0.931 . S
H5514 C5501 0.928 . S
H5515 C5500 0.929 . S
H5516 C5498 0.932 . S
C5517 C5518 1.386 . S
C5517 C5519 1.397 . S
C5517 H5541 0.931 . S
C5518 C5517 1.386 . S
C5518 C5522 1.397 . S
C5519 C5517 1.397 . S
C5519 C5520 1.384 . S
C5519 H5542 0.930 . S
C5520 C5519 1.384 . S
C5520 C5521 1.377 . S
C5520 C5523 1.481 . S
C5521 C5520 1.377 . S
C5521 C5522 1.389 . S
C5521 H5543 0.929 . S
C5522 C5518 1.397 . S
C5522 C5521 1.389 . S
C5522 H5544 0.931 . S
C5523 C5520 1.481 . S
C5523 C5524 1.387 . S
C5523 C5528 1.390 . S
C5524 C5523 1.387 . S
C5524 C5525 1.401 . S
C5524 H5545 0.930 . S
C5525 C5524 1.401 . S
C5525 C5526 1.376 . S
C5525 C5534 1.511 . S
C5526 C5525 1.376 . S
C5526 C5527 1.392 . S
C5526 H5547 0.931 . S
C5527 C5526 1.392 . S
C5527 C5528 1.361 . S
C5527 C5529 1.500 . S
C5528 C5523 1.390 . S
C5528 C5527 1.361 . S
C5528 H5546 0.931 . S
C5529 C5527 1.500 . S
C5529 C5530 1.371 . S
C5529 C5531 1.365 . S
C5530 C5529 1.371 . S
C5530 C5540 1.386 . S
C5530 H5548 0.931 . S
C5531 C5529 1.365 . S
C5531 C5532 1.409 . S
C5531 H5549 0.929 . S
C5532 C5531 1.409 . S
C5532 C5533 1.380 . S
C5532 H5550 0.930 . S
C5533 C5532 1.380 . S
C5533 C5540 1.357 . S
C5534 C5525 1.511 . S
C5534 C5535 1.341 . S
C5534 C5536 1.371 . S
C5535 C5534 1.341 . S
C5535 C5539 1.394 . S
C5535 H5551 0.930 . S
C5536 C5534 1.371 . S
C5536 C5537 1.392 . S
C5536 H5552 0.931 . S
C5537 C5536 1.392 . S
C5537 C5538 1.331 . S
C5537 H5555 0.932 . S
C5538 C5537 1.331 . S
C5538 C5539 1.336 . S
C5539 C5535 1.394 . S
C5539 C5538 1.336 . S
C5539 H5554 0.929 . S
C5540 C5530 1.386 . S
C5540 C5533 1.357 . S
C5540 H5553 0.928 . S
H5541 C5517 0.931 . S
H5542 C5519 0.930 . S
H5543 C5521 0.929 . S
H5544 C5522 0.931 . S
H5545 C5524 0.930 . S
H5546 C5528 0.931 . S
H5547 C5526 0.931 . S
H5548 C5530 0.931 . S
H5549 C5531 0.929 . S
H5550 C5532 0.930 . S
H5551 C5535 0.930 . S
H5552 C5536 0.931 . S
H5553 C5540 0.928 . S
H5554 C5539 0.929 . S
H5555 C5537 0.932 . S
C5556 C5557 1.386 . S
C5556 C5558 1.397 . S
C5556 H5580 0.931 . S
C5557 C5556 1.386 . S
C5557 C5561 1.397 . S
C5558 C5556 1.397 . S
C5558 C5559 1.384 . S
C5558 H5581 0.930 . S
C5559 C5558 1.384 . S
C5559 C5560 1.377 . S
C5559 C5562 1.481 . S
C5560 C5559 1.377 . S
C5560 C5561 1.389 . S
C5560 H5582 0.929 . S
C5561 C5557 1.397 . S
C5561 C5560 1.389 . S
C5561 H5583 0.931 . S
C5562 C5559 1.481 . S
C5562 C5563 1.387 . S
C5562 C5567 1.390 . S
C5563 C5562 1.387 . S
C5563 C5564 1.401 . S
C5563 H5584 0.930 . S
C5564 C5563 1.401 . S
C5564 C5565 1.376 . S
C5564 C5573 1.511 . S
C5565 C5564 1.376 . S
C5565 C5566 1.392 . S
C5565 H5586 0.931 . S
C5566 C5565 1.392 . S
C5566 C5567 1.361 . S
C5566 C5568 1.500 . S
C5567 C5562 1.390 . S
C5567 C5566 1.361 . S
C5567 H5585 0.931 . S
C5568 C5566 1.500 . S
C5568 C5569 1.371 . S
C5568 C5570 1.365 . S
C5569 C5568 1.371 . S
C5569 C5579 1.386 . S
C5569 H5587 0.931 . S
C5570 C5568 1.365 . S
C5570 C5571 1.409 . S
C5570 H5588 0.929 . S
C5571 C5570 1.409 . S
C5571 C5572 1.380 . S
C5571 H5589 0.930 . S
C5572 C5571 1.380 . S
C5572 C5579 1.357 . S
C5573 C5564 1.511 . S
C5573 C5574 1.341 . S
C5573 C5575 1.371 . S
C5574 C5573 1.341 . S
C5574 C5578 1.394 . S
C5574 H5590 0.930 . S
C5575 C5573 1.371 . S
C5575 C5576 1.392 . S
C5575 H5591 0.931 . S
C5576 C5575 1.392 . S
C5576 C5577 1.331 . S
C5576 H5594 0.932 . S
C5577 C5576 1.331 . S
C5577 C5578 1.336 . S
C5578 C5574 1.394 . S
C5578 C5577 1.336 . S
C5578 H5593 0.929 . S
C5579 C5569 1.386 . S
C5579 C5572 1.357 . S
C5579 H5592 0.928 . S
H5580 C5556 0.931 . S
H5581 C5558 0.930 . S
H5582 C5560 0.929 . S
H5583 C5561 0.931 . S
H5584 C5563 0.930 . S
H5585 C5567 0.931 . S
H5586 C5565 0.931 . S
H5587 C5569 0.931 . S
H5588 C5570 0.929 . S
H5589 C5571 0.930 . S
H5590 C5574 0.930 . S
H5591 C5575 0.931 . S
H5592 C5579 0.928 . S
H5593 C5578 0.929 . S
H5594 C5576 0.932 . S
C5595 C5596 1.386 . S
C5595 C5597 1.397 . S
C5595 H5619 0.931 . S
C5596 C5595 1.386 . S
C5596 C5600 1.397 . S
C5597 C5595 1.397 . S
C5597 C5598 1.384 . S
C5597 H5620 0.930 . S
C5598 C5597 1.384 . S
C5598 C5599 1.377 . S
C5598 C5601 1.481 . S
C5599 C5598 1.377 . S
C5599 C5600 1.389 . S
C5599 H5621 0.929 . S
C5600 C5596 1.397 . S
C5600 C5599 1.389 . S
C5600 H5622 0.931 . S
C5601 C5598 1.481 . S
C5601 C5602 1.387 . S
C5601 C5606 1.390 . S
C5602 C5601 1.387 . S
C5602 C5603 1.401 . S
C5602 H5623 0.930 . S
C5603 C5602 1.401 . S
C5603 C5604 1.376 . S
C5603 C5612 1.511 . S
C5604 C5603 1.376 . S
C5604 C5605 1.392 . S
C5604 H5625 0.931 . S
C5605 C5604 1.392 . S
C5605 C5606 1.361 . S
C5605 C5607 1.500 . S
C5606 C5601 1.390 . S
C5606 C5605 1.361 . S
C5606 H5624 0.931 . S
C5607 C5605 1.500 . S
C5607 C5608 1.371 . S
C5607 C5609 1.365 . S
C5608 C5607 1.371 . S
C5608 C5618 1.386 . S
C5608 H5626 0.931 . S
C5609 C5607 1.365 . S
C5609 C5610 1.409 . S
C5609 H5627 0.929 . S
C5610 C5609 1.409 . S
C5610 C5611 1.380 . S
C5610 H5628 0.930 . S
C5611 C5610 1.380 . S
C5611 C5618 1.357 . S
C5612 C5603 1.511 . S
C5612 C5613 1.341 . S
C5612 C5614 1.371 . S
C5613 C5612 1.341 . S
C5613 C5617 1.394 . S
C5613 H5629 0.930 . S
C5614 C5612 1.371 . S
C5614 C5615 1.392 . S
C5614 H5630 0.931 . S
C5615 C5614 1.392 . S
C5615 C5616 1.331 . S
C5615 H5633 0.932 . S
C5616 C5615 1.331 . S
C5616 C5617 1.336 . S
C5617 C5613 1.394 . S
C5617 C5616 1.336 . S
C5617 H5632 0.929 . S
C5618 C5608 1.386 . S
C5618 C5611 1.357 . S
C5618 H5631 0.928 . S
H5619 C5595 0.931 . S
H5620 C5597 0.930 . S
H5621 C5599 0.929 . S
H5622 C5600 0.931 . S
H5623 C5602 0.930 . S
H5624 C5606 0.931 . S
H5625 C5604 0.931 . S
H5626 C5608 0.931 . S
H5627 C5609 0.929 . S
H5628 C5610 0.930 . S
H5629 C5613 0.930 . S
H5630 C5614 0.931 . S
H5631 C5618 0.928 . S
H5632 C5617 0.929 . S
H5633 C5615 0.932 . S
C5634 C5635 1.386 . S
C5634 C5636 1.397 . S
C5634 H5658 0.931 . S
C5635 C5634 1.386 . S
C5635 C5639 1.397 . S
C5636 C5634 1.397 . S
C5636 C5637 1.384 . S
C5636 H5659 0.930 . S
C5637 C5636 1.384 . S
C5637 C5638 1.377 . S
C5637 C5640 1.481 . S
C5638 C5637 1.377 . S
C5638 C5639 1.389 . S
C5638 H5660 0.929 . S
C5639 C5635 1.397 . S
C5639 C5638 1.389 . S
C5639 H5661 0.931 . S
C5640 C5637 1.481 . S
C5640 C5641 1.387 . S
C5640 C5645 1.390 . S
C5641 C5640 1.387 . S
C5641 C5642 1.401 . S
C5641 H5662 0.930 . S
C5642 C5641 1.401 . S
C5642 C5643 1.376 . S
C5642 C5651 1.511 . S
C5643 C5642 1.376 . S
C5643 C5644 1.392 . S
C5643 H5664 0.931 . S
C5644 C5643 1.392 . S
C5644 C5645 1.361 . S
C5644 C5646 1.500 . S
C5645 C5640 1.390 . S
C5645 C5644 1.361 . S
C5645 H5663 0.931 . S
C5646 C5644 1.500 . S
C5646 C5647 1.371 . S
C5646 C5648 1.365 . S
C5647 C5646 1.371 . S
C5647 C5657 1.386 . S
C5647 H5665 0.931 . S
C5648 C5646 1.365 . S
C5648 C5649 1.409 . S
C5648 H5666 0.929 . S
C5649 C5648 1.409 . S
C5649 C5650 1.380 . S
C5649 H5667 0.930 . S
C5650 C5649 1.380 . S
C5650 C5657 1.357 . S
C5651 C5642 1.511 . S
C5651 C5652 1.341 . S
C5651 C5653 1.371 . S
C5652 C5651 1.341 . S
C5652 C5656 1.394 . S
C5652 H5668 0.930 . S
C5653 C5651 1.371 . S
C5653 C5654 1.392 . S
C5653 H5669 0.931 . S
C5654 C5653 1.392 . S
C5654 C5655 1.331 . S
C5654 H5672 0.932 . S
C5655 C5654 1.331 . S
C5655 C5656 1.336 . S
C5656 C5652 1.394 . S
C5656 C5655 1.336 . S
C5656 H5671 0.929 . S
C5657 C5647 1.386 . S
C5657 C5650 1.357 . S
C5657 H5670 0.928 . S
H5658 C5634 0.931 . S
H5659 C5636 0.930 . S
H5660 C5638 0.929 . S
H5661 C5639 0.931 . S
H5662 C5641 0.930 . S
H5663 C5645 0.931 . S
H5664 C5643 0.931 . S
H5665 C5647 0.931 . S
H5666 C5648 0.929 . S
H5667 C5649 0.930 . S
H5668 C5652 0.930 . S
H5669 C5653 0.931 . S
H5670 C5657 0.928 . S
H5671 C5656 0.929 . S
H5672 C5654 0.932 . S
C5673 C5674 1.386 . S
C5673 C5675 1.397 . S
C5673 H5697 0.931 . S
C5674 C5673 1.386 . S
C5674 C5678 1.397 . S
C5675 C5673 1.397 . S
C5675 C5676 1.384 . S
C5675 H5698 0.930 . S
C5676 C5675 1.384 . S
C5676 C5677 1.377 . S
C5676 C5679 1.481 . S
C5677 C5676 1.377 . S
C5677 C5678 1.389 . S
C5677 H5699 0.929 . S
C5678 C5674 1.397 . S
C5678 C5677 1.389 . S
C5678 H5700 0.931 . S
C5679 C5676 1.481 . S
C5679 C5680 1.387 . S
C5679 C5684 1.390 . S
C5680 C5679 1.387 . S
C5680 C5681 1.401 . S
C5680 H5701 0.930 . S
C5681 C5680 1.401 . S
C5681 C5682 1.376 . S
C5681 C5690 1.511 . S
C5682 C5681 1.376 . S
C5682 C5683 1.392 . S
C5682 H5703 0.931 . S
C5683 C5682 1.392 . S
C5683 C5684 1.361 . S
C5683 C5685 1.500 . S
C5684 C5679 1.390 . S
C5684 C5683 1.361 . S
C5684 H5702 0.931 . S
C5685 C5683 1.500 . S
C5685 C5686 1.371 . S
C5685 C5687 1.365 . S
C5686 C5685 1.371 . S
C5686 C5696 1.386 . S
C5686 H5704 0.931 . S
C5687 C5685 1.365 . S
C5687 C5688 1.409 . S
C5687 H5705 0.929 . S
C5688 C5687 1.409 . S
C5688 C5689 1.380 . S
C5688 H5706 0.930 . S
C5689 C5688 1.380 . S
C5689 C5696 1.357 . S
C5690 C5681 1.511 . S
C5690 C5691 1.341 . S
C5690 C5692 1.371 . S
C5691 C5690 1.341 . S
C5691 C5695 1.394 . S
C5691 H5707 0.930 . S
C5692 C5690 1.371 . S
C5692 C5693 1.392 . S
C5692 H5708 0.931 . S
C5693 C5692 1.392 . S
C5693 C5694 1.331 . S
C5693 H5711 0.932 . S
C5694 C5693 1.331 . S
C5694 C5695 1.336 . S
C5695 C5691 1.394 . S
C5695 C5694 1.336 . S
C5695 H5710 0.929 . S
C5696 C5686 1.386 . S
C5696 C5689 1.357 . S
C5696 H5709 0.928 . S
H5697 C5673 0.931 . S
H5698 C5675 0.930 . S
H5699 C5677 0.929 . S
H5700 C5678 0.931 . S
H5701 C5680 0.930 . S
H5702 C5684 0.931 . S
H5703 C5682 0.931 . S
H5704 C5686 0.931 . S
H5705 C5687 0.929 . S
H5706 C5688 0.930 . S
H5707 C5691 0.930 . S
H5708 C5692 0.931 . S
H5709 C5696 0.928 . S
H5710 C5695 0.929 . S
H5711 C5693 0.932 . S
C5712 C5713 1.386 . S
C5712 C5714 1.397 . S
C5712 H5736 0.931 . S
C5713 C5712 1.386 . S
C5713 C5717 1.397 . S
C5714 C5712 1.397 . S
C5714 C5715 1.384 . S
C5714 H5737 0.930 . S
C5715 C5714 1.384 . S
C5715 C5716 1.377 . S
C5715 C5718 1.481 . S
C5716 C5715 1.377 . S
C5716 C5717 1.389 . S
C5716 H5738 0.929 . S
C5717 C5713 1.397 . S
C5717 C5716 1.389 . S
C5717 H5739 0.931 . S
C5718 C5715 1.481 . S
C5718 C5719 1.387 . S
C5718 C5723 1.390 . S
C5719 C5718 1.387 . S
C5719 C5720 1.401 . S
C5719 H5740 0.930 . S
C5720 C5719 1.401 . S
C5720 C5721 1.376 . S
C5720 C5729 1.511 . S
C5721 C5720 1.376 . S
C5721 C5722 1.392 . S
C5721 H5742 0.931 . S
C5722 C5721 1.392 . S
C5722 C5723 1.361 . S
C5722 C5724 1.500 . S
C5723 C5718 1.390 . S
C5723 C5722 1.361 . S
C5723 H5741 0.931 . S
C5724 C5722 1.500 . S
C5724 C5725 1.371 . S
C5724 C5726 1.365 . S
C5725 C5724 1.371 . S
C5725 C5735 1.386 . S
C5725 H5743 0.931 . S
C5726 C5724 1.365 . S
C5726 C5727 1.409 . S
C5726 H5744 0.929 . S
C5727 C5726 1.409 . S
C5727 C5728 1.380 . S
C5727 H5745 0.930 . S
C5728 C5727 1.380 . S
C5728 C5735 1.357 . S
C5729 C5720 1.511 . S
C5729 C5730 1.341 . S
C5729 C5731 1.371 . S
C5730 C5729 1.341 . S
C5730 C5734 1.394 . S
C5730 H5746 0.930 . S
C5731 C5729 1.371 . S
C5731 C5732 1.392 . S
C5731 H5747 0.931 . S
C5732 C5731 1.392 . S
C5732 C5733 1.331 . S
C5732 H5750 0.932 . S
C5733 C5732 1.331 . S
C5733 C5734 1.336 . S
C5734 C5730 1.394 . S
C5734 C5733 1.336 . S
C5734 H5749 0.929 . S
C5735 C5725 1.386 . S
C5735 C5728 1.357 . S
C5735 H5748 0.928 . S
H5736 C5712 0.931 . S
H5737 C5714 0.930 . S
H5738 C5716 0.929 . S
H5739 C5717 0.931 . S
H5740 C5719 0.930 . S
H5741 C5723 0.931 . S
H5742 C5721 0.931 . S
H5743 C5725 0.931 . S
H5744 C5726 0.929 . S
H5745 C5727 0.930 . S
H5746 C5730 0.930 . S
H5747 C5731 0.931 . S
H5748 C5735 0.928 . S
H5749 C5734 0.929 . S
H5750 C5732 0.932 . S
C5751 C5752 1.386 . S
C5751 C5753 1.397 . S
C5751 H5775 0.931 . S
C5752 C5751 1.386 . S
C5752 C5756 1.397 . S
C5753 C5751 1.397 . S
C5753 C5754 1.384 . S
C5753 H5776 0.930 . S
C5754 C5753 1.384 . S
C5754 C5755 1.377 . S
C5754 C5757 1.481 . S
C5755 C5754 1.377 . S
C5755 C5756 1.389 . S
C5755 H5777 0.929 . S
C5756 C5752 1.397 . S
C5756 C5755 1.389 . S
C5756 H5778 0.931 . S
C5757 C5754 1.481 . S
C5757 C5758 1.387 . S
C5757 C5762 1.390 . S
C5758 C5757 1.387 . S
C5758 C5759 1.401 . S
C5758 H5779 0.930 . S
C5759 C5758 1.401 . S
C5759 C5760 1.376 . S
C5759 C5768 1.511 . S
C5760 C5759 1.376 . S
C5760 C5761 1.392 . S
C5760 H5781 0.931 . S
C5761 C5760 1.392 . S
C5761 C5762 1.361 . S
C5761 C5763 1.500 . S
C5762 C5757 1.390 . S
C5762 C5761 1.361 . S
C5762 H5780 0.931 . S
C5763 C5761 1.500 . S
C5763 C5764 1.371 . S
C5763 C5765 1.365 . S
C5764 C5763 1.371 . S
C5764 C5774 1.386 . S
C5764 H5782 0.931 . S
C5765 C5763 1.365 . S
C5765 C5766 1.409 . S
C5765 H5783 0.929 . S
C5766 C5765 1.409 . S
C5766 C5767 1.380 . S
C5766 H5784 0.930 . S
C5767 C5766 1.380 . S
C5767 C5774 1.357 . S
C5768 C5759 1.511 . S
C5768 C5769 1.341 . S
C5768 C5770 1.371 . S
C5769 C5768 1.341 . S
C5769 C5773 1.394 . S
C5769 H5785 0.930 . S
C5770 C5768 1.371 . S
C5770 C5771 1.392 . S
C5770 H5786 0.931 . S
C5771 C5770 1.392 . S
C5771 C5772 1.331 . S
C5771 H5789 0.932 . S
C5772 C5771 1.331 . S
C5772 C5773 1.336 . S
C5773 C5769 1.394 . S
C5773 C5772 1.336 . S
C5773 H5788 0.929 . S
C5774 C5764 1.386 . S
C5774 C5767 1.357 . S
C5774 H5787 0.928 . S
H5775 C5751 0.931 . S
H5776 C5753 0.930 . S
H5777 C5755 0.929 . S
H5778 C5756 0.931 . S
H5779 C5758 0.930 . S
H5780 C5762 0.931 . S
H5781 C5760 0.931 . S
H5782 C5764 0.931 . S
H5783 C5765 0.929 . S
H5784 C5766 0.930 . S
H5785 C5769 0.930 . S
H5786 C5770 0.931 . S
H5787 C5774 0.928 . S
H5788 C5773 0.929 . S
H5789 C5771 0.932 . S
C5790 C5791 1.386 . S
C5790 C5792 1.397 . S
C5790 H5814 0.931 . S
C5791 C5790 1.386 . S
C5791 C5795 1.397 . S
C5792 C5790 1.397 . S
C5792 C5793 1.384 . S
C5792 H5815 0.930 . S
C5793 C5792 1.384 . S
C5793 C5794 1.377 . S
C5793 C5796 1.481 . S
C5794 C5793 1.377 . S
C5794 C5795 1.389 . S
C5794 H5816 0.929 . S
C5795 C5791 1.397 . S
C5795 C5794 1.389 . S
C5795 H5817 0.931 . S
C5796 C5793 1.481 . S
C5796 C5797 1.387 . S
C5796 C5801 1.390 . S
C5797 C5796 1.387 . S
C5797 C5798 1.401 . S
C5797 H5818 0.930 . S
C5798 C5797 1.401 . S
C5798 C5799 1.376 . S
C5798 C5807 1.511 . S
C5799 C5798 1.376 . S
C5799 C5800 1.392 . S
C5799 H5820 0.931 . S
C5800 C5799 1.392 . S
C5800 C5801 1.361 . S
C5800 C5802 1.500 . S
C5801 C5796 1.390 . S
C5801 C5800 1.361 . S
C5801 H5819 0.931 . S
C5802 C5800 1.500 . S
C5802 C5803 1.371 . S
C5802 C5804 1.365 . S
C5803 C5802 1.371 . S
C5803 C5813 1.386 . S
C5803 H5821 0.931 . S
C5804 C5802 1.365 . S
C5804 C5805 1.409 . S
C5804 H5822 0.929 . S
C5805 C5804 1.409 . S
C5805 C5806 1.380 . S
C5805 H5823 0.930 . S
C5806 C5805 1.380 . S
C5806 C5813 1.357 . S
C5807 C5798 1.511 . S
C5807 C5808 1.341 . S
C5807 C5809 1.371 . S
C5808 C5807 1.341 . S
C5808 C5812 1.394 . S
C5808 H5824 0.930 . S
C5809 C5807 1.371 . S
C5809 C5810 1.392 . S
C5809 H5825 0.931 . S
C5810 C5809 1.392 . S
C5810 C5811 1.331 . S
C5810 H5828 0.932 . S
C5811 C5810 1.331 . S
C5811 C5812 1.336 . S
C5812 C5808 1.394 . S
C5812 C5811 1.336 . S
C5812 H5827 0.929 . S
C5813 C5803 1.386 . S
C5813 C5806 1.357 . S
C5813 H5826 0.928 . S
H5814 C5790 0.931 . S
H5815 C5792 0.930 . S
H5816 C5794 0.929 . S
H5817 C5795 0.931 . S
H5818 C5797 0.930 . S
H5819 C5801 0.931 . S
H5820 C5799 0.931 . S
H5821 C5803 0.931 . S
H5822 C5804 0.929 . S
H5823 C5805 0.930 . S
H5824 C5808 0.930 . S
H5825 C5809 0.931 . S
H5826 C5813 0.928 . S
H5827 C5812 0.929 . S
H5828 C5810 0.932 . S
C5829 C5830 1.386 . S
C5829 C5831 1.397 . S
C5829 H5853 0.931 . S
C5830 C5829 1.386 . S
C5830 C5834 1.397 . S
C5831 C5829 1.397 . S
C5831 C5832 1.384 . S
C5831 H5854 0.930 . S
C5832 C5831 1.384 . S
C5832 C5833 1.377 . S
C5832 C5835 1.481 . S
C5833 C5832 1.377 . S
C5833 C5834 1.389 . S
C5833 H5855 0.929 . S
C5834 C5830 1.397 . S
C5834 C5833 1.389 . S
C5834 H5856 0.931 . S
C5835 C5832 1.481 . S
C5835 C5836 1.387 . S
C5835 C5840 1.390 . S
C5836 C5835 1.387 . S
C5836 C5837 1.401 . S
C5836 H5857 0.930 . S
C5837 C5836 1.401 . S
C5837 C5838 1.376 . S
C5837 C5846 1.511 . S
C5838 C5837 1.376 . S
C5838 C5839 1.392 . S
C5838 H5859 0.931 . S
C5839 C5838 1.392 . S
C5839 C5840 1.361 . S
C5839 C5841 1.500 . S
C5840 C5835 1.390 . S
C5840 C5839 1.361 . S
C5840 H5858 0.931 . S
C5841 C5839 1.500 . S
C5841 C5842 1.371 . S
C5841 C5843 1.365 . S
C5842 C5841 1.371 . S
C5842 C5852 1.386 . S
C5842 H5860 0.931 . S
C5843 C5841 1.365 . S
C5843 C5844 1.409 . S
C5843 H5861 0.929 . S
C5844 C5843 1.409 . S
C5844 C5845 1.380 . S
C5844 H5862 0.930 . S
C5845 C5844 1.380 . S
C5845 C5852 1.357 . S
C5846 C5837 1.511 . S
C5846 C5847 1.341 . S
C5846 C5848 1.371 . S
C5847 C5846 1.341 . S
C5847 C5851 1.394 . S
C5847 H5863 0.930 . S
C5848 C5846 1.371 . S
C5848 C5849 1.392 . S
C5848 H5864 0.931 . S
C5849 C5848 1.392 . S
C5849 C5850 1.331 . S
C5849 H5867 0.932 . S
C5850 C5849 1.331 . S
C5850 C5851 1.336 . S
C5851 C5847 1.394 . S
C5851 C5850 1.336 . S
C5851 H5866 0.929 . S
C5852 C5842 1.386 . S
C5852 C5845 1.357 . S
C5852 H5865 0.928 . S
H5853 C5829 0.931 . S
H5854 C5831 0.930 . S
H5855 C5833 0.929 . S
H5856 C5834 0.931 . S
H5857 C5836 0.930 . S
H5858 C5840 0.931 . S
H5859 C5838 0.931 . S
H5860 C5842 0.931 . S
H5861 C5843 0.929 . S
H5862 C5844 0.930 . S
H5863 C5847 0.930 . S
H5864 C5848 0.931 . S
H5865 C5852 0.928 . S
H5866 C5851 0.929 . S
H5867 C5849 0.932 . S
C5868 C5869 1.386 . S
C5868 C5870 1.397 . S
C5868 H5892 0.931 . S
C5869 C5868 1.386 . S
C5869 C5873 1.397 . S
C5870 C5868 1.397 . S
C5870 C5871 1.384 . S
C5870 H5893 0.930 . S
C5871 C5870 1.384 . S
C5871 C5872 1.377 . S
C5871 C5874 1.481 . S
C5872 C5871 1.377 . S
C5872 C5873 1.389 . S
C5872 H5894 0.929 . S
C5873 C5869 1.397 . S
C5873 C5872 1.389 . S
C5873 H5895 0.931 . S
C5874 C5871 1.481 . S
C5874 C5875 1.387 . S
C5874 C5879 1.390 . S
C5875 C5874 1.387 . S
C5875 C5876 1.401 . S
C5875 H5896 0.930 . S
C5876 C5875 1.401 . S
C5876 C5877 1.376 . S
C5876 C5885 1.511 . S
C5877 C5876 1.376 . S
C5877 C5878 1.392 . S
C5877 H5898 0.931 . S
C5878 C5877 1.392 . S
C5878 C5879 1.361 . S
C5878 C5880 1.500 . S
C5879 C5874 1.390 . S
C5879 C5878 1.361 . S
C5879 H5897 0.931 . S
C5880 C5878 1.500 . S
C5880 C5881 1.371 . S
C5880 C5882 1.365 . S
C5881 C5880 1.371 . S
C5881 C5891 1.386 . S
C5881 H5899 0.931 . S
C5882 C5880 1.365 . S
C5882 C5883 1.409 . S
C5882 H5900 0.929 . S
C5883 C5882 1.409 . S
C5883 C5884 1.380 . S
C5883 H5901 0.930 . S
C5884 C5883 1.380 . S
C5884 C5891 1.357 . S
C5885 C5876 1.511 . S
C5885 C5886 1.341 . S
C5885 C5887 1.371 . S
C5886 C5885 1.341 . S
C5886 C5890 1.394 . S
C5886 H5902 0.930 . S
C5887 C5885 1.371 . S
C5887 C5888 1.392 . S
C5887 H5903 0.931 . S
C5888 C5887 1.392 . S
C5888 C5889 1.331 . S
C5888 H5906 0.932 . S
C5889 C5888 1.331 . S
C5889 C5890 1.336 . S
C5890 C5886 1.394 . S
C5890 C5889 1.336 . S
C5890 H5905 0.929 . S
C5891 C5881 1.386 . S
C5891 C5884 1.357 . S
C5891 H5904 0.928 . S
H5892 C5868 0.931 . S
H5893 C5870 0.930 . S
H5894 C5872 0.929 . S
H5895 C5873 0.931 . S
H5896 C5875 0.930 . S
H5897 C5879 0.931 . S
H5898 C5877 0.931 . S
H5899 C5881 0.931 . S
H5900 C5882 0.929 . S
H5901 C5883 0.930 . S
H5902 C5886 0.930 . S
H5903 C5887 0.931 . S
H5904 C5891 0.928 . S
H5905 C5890 0.929 . S
H5906 C5888 0.932 . S
C5907 C5908 1.386 . S
C5907 C5909 1.397 . S
C5907 H5931 0.931 . S
C5908 C5907 1.386 . S
C5908 C5912 1.397 . S
C5909 C5907 1.397 . S
C5909 C5910 1.384 . S
C5909 H5932 0.930 . S
C5910 C5909 1.384 . S
C5910 C5911 1.377 . S
C5910 C5913 1.481 . S
C5911 C5910 1.377 . S
C5911 C5912 1.389 . S
C5911 H5933 0.929 . S
C5912 C5908 1.397 . S
C5912 C5911 1.389 . S
C5912 H5934 0.931 . S
C5913 C5910 1.481 . S
C5913 C5914 1.387 . S
C5913 C5918 1.390 . S
C5914 C5913 1.387 . S
C5914 C5915 1.401 . S
C5914 H5935 0.930 . S
C5915 C5914 1.401 . S
C5915 C5916 1.376 . S
C5915 C5924 1.511 . S
C5916 C5915 1.376 . S
C5916 C5917 1.392 . S
C5916 H5937 0.931 . S
C5917 C5916 1.392 . S
C5917 C5918 1.361 . S
C5917 C5919 1.500 . S
C5918 C5913 1.390 . S
C5918 C5917 1.361 . S
C5918 H5936 0.931 . S
C5919 C5917 1.500 . S
C5919 C5920 1.371 . S
C5919 C5921 1.365 . S
C5920 C5919 1.371 . S
C5920 C5930 1.386 . S
C5920 H5938 0.931 . S
C5921 C5919 1.365 . S
C5921 C5922 1.409 . S
C5921 H5939 0.929 . S
C5922 C5921 1.409 . S
C5922 C5923 1.380 . S
C5922 H5940 0.930 . S
C5923 C5922 1.380 . S
C5923 C5930 1.357 . S
C5924 C5915 1.511 . S
C5924 C5925 1.341 . S
C5924 C5926 1.371 . S
C5925 C5924 1.341 . S
C5925 C5929 1.394 . S
C5925 H5941 0.930 . S
C5926 C5924 1.371 . S
C5926 C5927 1.392 . S
C5926 H5942 0.931 . S
C5927 C5926 1.392 . S
C5927 C5928 1.331 . S
C5927 H5945 0.932 . S
C5928 C5927 1.331 . S
C5928 C5929 1.336 . S
C5929 C5925 1.394 . S
C5929 C5928 1.336 . S
C5929 H5944 0.929 . S
C5930 C5920 1.386 . S
C5930 C5923 1.357 . S
C5930 H5943 0.928 . S
H5931 C5907 0.931 . S
H5932 C5909 0.930 . S
H5933 C5911 0.929 . S
H5934 C5912 0.931 . S
H5935 C5914 0.930 . S
H5936 C5918 0.931 . S
H5937 C5916 0.931 . S
H5938 C5920 0.931 . S
H5939 C5921 0.929 . S
H5940 C5922 0.930 . S
H5941 C5925 0.930 . S
H5942 C5926 0.931 . S
H5943 C5930 0.928 . S
H5944 C5929 0.929 . S
H5945 C5927 0.932 . S
C5946 C5947 1.386 . S
C5946 C5948 1.397 . S
C5946 H5970 0.931 . S
C5947 C5946 1.386 . S
C5947 C5951 1.397 . S
C5948 C5946 1.397 . S
C5948 C5949 1.384 . S
C5948 H5971 0.930 . S
C5949 C5948 1.384 . S
C5949 C5950 1.377 . S
C5949 C5952 1.481 . S
C5950 C5949 1.377 . S
C5950 C5951 1.389 . S
C5950 H5972 0.929 . S
C5951 C5947 1.397 . S
C5951 C5950 1.389 . S
C5951 H5973 0.931 . S
C5952 C5949 1.481 . S
C5952 C5953 1.387 . S
C5952 C5957 1.390 . S
C5953 C5952 1.387 . S
C5953 C5954 1.401 . S
C5953 H5974 0.930 . S
C5954 C5953 1.401 . S
C5954 C5955 1.376 . S
C5954 C5963 1.511 . S
C5955 C5954 1.376 . S
C5955 C5956 1.392 . S
C5955 H5976 0.931 . S
C5956 C5955 1.392 . S
C5956 C5957 1.361 . S
C5956 C5958 1.500 . S
C5957 C5952 1.390 . S
C5957 C5956 1.361 . S
C5957 H5975 0.931 . S
C5958 C5956 1.500 . S
C5958 C5959 1.371 . S
C5958 C5960 1.365 . S
C5959 C5958 1.371 . S
C5959 C5969 1.386 . S
C5959 H5977 0.931 . S
C5960 C5958 1.365 . S
C5960 C5961 1.409 . S
C5960 H5978 0.929 . S
C5961 C5960 1.409 . S
C5961 C5962 1.380 . S
C5961 H5979 0.930 . S
C5962 C5961 1.380 . S
C5962 C5969 1.357 . S
C5963 C5954 1.511 . S
C5963 C5964 1.341 . S
C5963 C5965 1.371 . S
C5964 C5963 1.341 . S
C5964 C5968 1.394 . S
C5964 H5980 0.930 . S
C5965 C5963 1.371 . S
C5965 C5966 1.392 . S
C5965 H5981 0.931 . S
C5966 C5965 1.392 . S
C5966 C5967 1.331 . S
C5966 H5984 0.932 . S
C5967 C5966 1.331 . S
C5967 C5968 1.336 . S
C5968 C5964 1.394 . S
C5968 C5967 1.336 . S
C5968 H5983 0.929 . S
C5969 C5959 1.386 . S
C5969 C5962 1.357 . S
C5969 H5982 0.928 . S
H5970 C5946 0.931 . S
H5971 C5948 0.930 . S
H5972 C5950 0.929 . S
H5973 C5951 0.931 . S
H5974 C5953 0.930 . S
H5975 C5957 0.931 . S
H5976 C5955 0.931 . S
H5977 C5959 0.931 . S
H5978 C5960 0.929 . S
H5979 C5961 0.930 . S
H5980 C5964 0.930 . S
H5981 C5965 0.931 . S
H5982 C5969 0.928 . S
H5983 C5968 0.929 . S
H5984 C5966 0.932 . S
C5985 C5986 1.386 . S
C5985 C5987 1.397 . S
C5985 H6009 0.931 . S
C5986 C5985 1.386 . S
C5986 C5990 1.397 . S
C5987 C5985 1.397 . S
C5987 C5988 1.384 . S
C5987 H6010 0.930 . S
C5988 C5987 1.384 . S
C5988 C5989 1.377 . S
C5988 C5991 1.481 . S
C5989 C5988 1.377 . S
C5989 C5990 1.389 . S
C5989 H6011 0.929 . S
C5990 C5986 1.397 . S
C5990 C5989 1.389 . S
C5990 H6012 0.931 . S
C5991 C5988 1.481 . S
C5991 C5992 1.387 . S
C5991 C5996 1.390 . S
C5992 C5991 1.387 . S
C5992 C5993 1.401 . S
C5992 H6013 0.930 . S
C5993 C5992 1.401 . S
C5993 C5994 1.376 . S
C5993 C6002 1.511 . S
C5994 C5993 1.376 . S
C5994 C5995 1.392 . S
C5994 H6015 0.931 . S
C5995 C5994 1.392 . S
C5995 C5996 1.361 . S
C5995 C5997 1.500 . S
C5996 C5991 1.390 . S
C5996 C5995 1.361 . S
C5996 H6014 0.931 . S
C5997 C5995 1.500 . S
C5997 C5998 1.371 . S
C5997 C5999 1.365 . S
C5998 C5997 1.371 . S
C5998 C6008 1.386 . S
C5998 H6016 0.931 . S
C5999 C5997 1.365 . S
C5999 C6000 1.409 . S
C5999 H6017 0.929 . S
C6000 C5999 1.409 . S
C6000 C6001 1.380 . S
C6000 H6018 0.930 . S
C6001 C6000 1.380 . S
C6001 C6008 1.357 . S
C6002 C5993 1.511 . S
C6002 C6003 1.341 . S
C6002 C6004 1.371 . S
C6003 C6002 1.341 . S
C6003 C6007 1.394 . S
C6003 H6019 0.930 . S
C6004 C6002 1.371 . S
C6004 C6005 1.392 . S
C6004 H6020 0.931 . S
C6005 C6004 1.392 . S
C6005 C6006 1.331 . S
C6005 H6023 0.932 . S
C6006 C6005 1.331 . S
C6006 C6007 1.336 . S
C6007 C6003 1.394 . S
C6007 C6006 1.336 . S
C6007 H6022 0.929 . S
C6008 C5998 1.386 . S
C6008 C6001 1.357 . S
C6008 H6021 0.928 . S
H6009 C5985 0.931 . S
H6010 C5987 0.930 . S
H6011 C5989 0.929 . S
H6012 C5990 0.931 . S
H6013 C5992 0.930 . S
H6014 C5996 0.931 . S
H6015 C5994 0.931 . S
H6016 C5998 0.931 . S
H6017 C5999 0.929 . S
H6018 C6000 0.930 . S
H6019 C6003 0.930 . S
H6020 C6004 0.931 . S
H6021 C6008 0.928 . S
H6022 C6007 0.929 . S
H6023 C6005 0.932 . S
C6024 C6025 1.386 . S
C6024 C6026 1.397 . S
C6024 H6048 0.931 . S
C6025 C6024 1.386 . S
C6025 C6029 1.397 . S
C6026 C6024 1.397 . S
C6026 C6027 1.384 . S
C6026 H6049 0.930 . S
C6027 C6026 1.384 . S
C6027 C6028 1.377 . S
C6027 C6030 1.481 . S
C6028 C6027 1.377 . S
C6028 C6029 1.389 . S
C6028 H6050 0.929 . S
C6029 C6025 1.397 . S
C6029 C6028 1.389 . S
C6029 H6051 0.931 . S
C6030 C6027 1.481 . S
C6030 C6031 1.387 . S
C6030 C6035 1.390 . S
C6031 C6030 1.387 . S
C6031 C6032 1.401 . S
C6031 H6052 0.930 . S
C6032 C6031 1.401 . S
C6032 C6033 1.376 . S
C6032 C6041 1.511 . S
C6033 C6032 1.376 . S
C6033 C6034 1.392 . S
C6033 H6054 0.931 . S
C6034 C6033 1.392 . S
C6034 C6035 1.361 . S
C6034 C6036 1.500 . S
C6035 C6030 1.390 . S
C6035 C6034 1.361 . S
C6035 H6053 0.931 . S
C6036 C6034 1.500 . S
C6036 C6037 1.371 . S
C6036 C6038 1.365 . S
C6037 C6036 1.371 . S
C6037 C6047 1.386 . S
C6037 H6055 0.931 . S
C6038 C6036 1.365 . S
C6038 C6039 1.409 . S
C6038 H6056 0.929 . S
C6039 C6038 1.409 . S
C6039 C6040 1.380 . S
C6039 H6057 0.930 . S
C6040 C6039 1.380 . S
C6040 C6047 1.357 . S
C6041 C6032 1.511 . S
C6041 C6042 1.341 . S
C6041 C6043 1.371 . S
C6042 C6041 1.341 . S
C6042 C6046 1.394 . S
C6042 H6058 0.930 . S
C6043 C6041 1.371 . S
C6043 C6044 1.392 . S
C6043 H6059 0.931 . S
C6044 C6043 1.392 . S
C6044 C6045 1.331 . S
C6044 H6062 0.932 . S
C6045 C6044 1.331 . S
C6045 C6046 1.336 . S
C6046 C6042 1.394 . S
C6046 C6045 1.336 . S
C6046 H6061 0.929 . S
C6047 C6037 1.386 . S
C6047 C6040 1.357 . S
C6047 H6060 0.928 . S
H6048 C6024 0.931 . S
H6049 C6026 0.930 . S
H6050 C6028 0.929 . S
H6051 C6029 0.931 . S
H6052 C6031 0.930 . S
H6053 C6035 0.931 . S
H6054 C6033 0.931 . S
H6055 C6037 0.931 . S
H6056 C6038 0.929 . S
H6057 C6039 0.930 . S
H6058 C6042 0.930 . S
H6059 C6043 0.931 . S
H6060 C6047 0.928 . S
H6061 C6046 0.929 . S
H6062 C6044 0.932 . S
C6063 C6064 1.386 . S
C6063 C6065 1.397 . S
C6063 H6087 0.931 . S
C6064 C6063 1.386 . S
C6064 C6068 1.397 . S
C6065 C6063 1.397 . S
C6065 C6066 1.384 . S
C6065 H6088 0.930 . S
C6066 C6065 1.384 . S
C6066 C6067 1.377 . S
C6066 C6069 1.481 . S
C6067 C6066 1.377 . S
C6067 C6068 1.389 . S
C6067 H6089 0.929 . S
C6068 C6064 1.397 . S
C6068 C6067 1.389 . S
C6068 H6090 0.931 . S
C6069 C6066 1.481 . S
C6069 C6070 1.387 . S
C6069 C6074 1.390 . S
C6070 C6069 1.387 . S
C6070 C6071 1.401 . S
C6070 H6091 0.930 . S
C6071 C6070 1.401 . S
C6071 C6072 1.376 . S
C6071 C6080 1.511 . S
C6072 C6071 1.376 . S
C6072 C6073 1.392 . S
C6072 H6093 0.931 . S
C6073 C6072 1.392 . S
C6073 C6074 1.361 . S
C6073 C6075 1.500 . S
C6074 C6069 1.390 . S
C6074 C6073 1.361 . S
C6074 H6092 0.931 . S
C6075 C6073 1.500 . S
C6075 C6076 1.371 . S
C6075 C6077 1.365 . S
C6076 C6075 1.371 . S
C6076 C6086 1.386 . S
C6076 H6094 0.931 . S
C6077 C6075 1.365 . S
C6077 C6078 1.409 . S
C6077 H6095 0.929 . S
C6078 C6077 1.409 . S
C6078 C6079 1.380 . S
C6078 H6096 0.930 . S
C6079 C6078 1.380 . S
C6079 C6086 1.357 . S
C6080 C6071 1.511 . S
C6080 C6081 1.341 . S
C6080 C6082 1.371 . S
C6081 C6080 1.341 . S
C6081 C6085 1.394 . S
C6081 H6097 0.930 . S
C6082 C6080 1.371 . S
C6082 C6083 1.392 . S
C6082 H6098 0.931 . S
C6083 C6082 1.392 . S
C6083 C6084 1.331 . S
C6083 H6101 0.932 . S
C6084 C6083 1.331 . S
C6084 C6085 1.336 . S
C6085 C6081 1.394 . S
C6085 C6084 1.336 . S
C6085 H6100 0.929 . S
C6086 C6076 1.386 . S
C6086 C6079 1.357 . S
C6086 H6099 0.928 . S
H6087 C6063 0.931 . S
H6088 C6065 0.930 . S
H6089 C6067 0.929 . S
H6090 C6068 0.931 . S
H6091 C6070 0.930 . S
H6092 C6074 0.931 . S
H6093 C6072 0.931 . S
H6094 C6076 0.931 . S
H6095 C6077 0.929 . S
H6096 C6078 0.930 . S
H6097 C6081 0.930 . S
H6098 C6082 0.931 . S
H6099 C6086 0.928 . S
H6100 C6085 0.929 . S
H6101 C6083 0.932 . S
C6102 C6103 1.386 . S
C6102 C6104 1.397 . S
C6102 H6126 0.931 . S
C6103 C6102 1.386 . S
C6103 C6107 1.397 . S
C6104 C6102 1.397 . S
C6104 C6105 1.384 . S
C6104 H6127 0.930 . S
C6105 C6104 1.384 . S
C6105 C6106 1.377 . S
C6105 C6108 1.481 . S
C6106 C6105 1.377 . S
C6106 C6107 1.389 . S
C6106 H6128 0.929 . S
C6107 C6103 1.397 . S
C6107 C6106 1.389 . S
C6107 H6129 0.931 . S
C6108 C6105 1.481 . S
C6108 C6109 1.387 . S
C6108 C6113 1.390 . S
C6109 C6108 1.387 . S
C6109 C6110 1.401 . S
C6109 H6130 0.930 . S
C6110 C6109 1.401 . S
C6110 C6111 1.376 . S
C6110 C6119 1.511 . S
C6111 C6110 1.376 . S
C6111 C6112 1.392 . S
C6111 H6132 0.931 . S
C6112 C6111 1.392 . S
C6112 C6113 1.361 . S
C6112 C6114 1.500 . S
C6113 C6108 1.390 . S
C6113 C6112 1.361 . S
C6113 H6131 0.931 . S
C6114 C6112 1.500 . S
C6114 C6115 1.371 . S
C6114 C6116 1.365 . S
C6115 C6114 1.371 . S
C6115 C6125 1.386 . S
C6115 H6133 0.931 . S
C6116 C6114 1.365 . S
C6116 C6117 1.409 . S
C6116 H6134 0.929 . S
C6117 C6116 1.409 . S
C6117 C6118 1.380 . S
C6117 H6135 0.930 . S
C6118 C6117 1.380 . S
C6118 C6125 1.357 . S
C6119 C6110 1.511 . S
C6119 C6120 1.341 . S
C6119 C6121 1.371 . S
C6120 C6119 1.341 . S
C6120 C6124 1.394 . S
C6120 H6136 0.930 . S
C6121 C6119 1.371 . S
C6121 C6122 1.392 . S
C6121 H6137 0.931 . S
C6122 C6121 1.392 . S
C6122 C6123 1.331 . S
C6122 H6140 0.932 . S
C6123 C6122 1.331 . S
C6123 C6124 1.336 . S
C6124 C6120 1.394 . S
C6124 C6123 1.336 . S
C6124 H6139 0.929 . S
C6125 C6115 1.386 . S
C6125 C6118 1.357 . S
C6125 H6138 0.928 . S
H6126 C6102 0.931 . S
H6127 C6104 0.930 . S
H6128 C6106 0.929 . S
H6129 C6107 0.931 . S
H6130 C6109 0.930 . S
H6131 C6113 0.931 . S
H6132 C6111 0.931 . S
H6133 C6115 0.931 . S
H6134 C6116 0.929 . S
H6135 C6117 0.930 . S
H6136 C6120 0.930 . S
H6137 C6121 0.931 . S
H6138 C6125 0.928 . S
H6139 C6124 0.929 . S
H6140 C6122 0.932 . S
C6141 C6142 1.386 . S
C6141 C6143 1.397 . S
C6141 H6165 0.931 . S
C6142 C6141 1.386 . S
C6142 C6146 1.397 . S
C6143 C6141 1.397 . S
C6143 C6144 1.384 . S
C6143 H6166 0.930 . S
C6144 C6143 1.384 . S
C6144 C6145 1.377 . S
C6144 C6147 1.481 . S
C6145 C6144 1.377 . S
C6145 C6146 1.389 . S
C6145 H6167 0.929 . S
C6146 C6142 1.397 . S
C6146 C6145 1.389 . S
C6146 H6168 0.931 . S
C6147 C6144 1.481 . S
C6147 C6148 1.387 . S
C6147 C6152 1.390 . S
C6148 C6147 1.387 . S
C6148 C6149 1.401 . S
C6148 H6169 0.930 . S
C6149 C6148 1.401 . S
C6149 C6150 1.376 . S
C6149 C6158 1.511 . S
C6150 C6149 1.376 . S
C6150 C6151 1.392 . S
C6150 H6171 0.931 . S
C6151 C6150 1.392 . S
C6151 C6152 1.361 . S
C6151 C6153 1.500 . S
C6152 C6147 1.390 . S
C6152 C6151 1.361 . S
C6152 H6170 0.931 . S
C6153 C6151 1.500 . S
C6153 C6154 1.371 . S
C6153 C6155 1.365 . S
C6154 C6153 1.371 . S
C6154 C6164 1.386 . S
C6154 H6172 0.931 . S
C6155 C6153 1.365 . S
C6155 C6156 1.409 . S
C6155 H6173 0.929 . S
C6156 C6155 1.409 . S
C6156 C6157 1.380 . S
C6156 H6174 0.930 . S
C6157 C6156 1.380 . S
C6157 C6164 1.357 . S
C6158 C6149 1.511 . S
C6158 C6159 1.341 . S
C6158 C6160 1.371 . S
C6159 C6158 1.341 . S
C6159 C6163 1.394 . S
C6159 H6175 0.930 . S
C6160 C6158 1.371 . S
C6160 C6161 1.392 . S
C6160 H6176 0.931 . S
C6161 C6160 1.392 . S
C6161 C6162 1.331 . S
C6161 H6179 0.932 . S
C6162 C6161 1.331 . S
C6162 C6163 1.336 . S
C6163 C6159 1.394 . S
C6163 C6162 1.336 . S
C6163 H6178 0.929 . S
C6164 C6154 1.386 . S
C6164 C6157 1.357 . S
C6164 H6177 0.928 . S
H6165 C6141 0.931 . S
H6166 C6143 0.930 . S
H6167 C6145 0.929 . S
H6168 C6146 0.931 . S
H6169 C6148 0.930 . S
H6170 C6152 0.931 . S
H6171 C6150 0.931 . S
H6172 C6154 0.931 . S
H6173 C6155 0.929 . S
H6174 C6156 0.930 . S
H6175 C6159 0.930 . S
H6176 C6160 0.931 . S
H6177 C6164 0.928 . S
H6178 C6163 0.929 . S
H6179 C6161 0.932 . S
C6180 C6181 1.386 . S
C6180 C6182 1.397 . S
C6180 H6204 0.931 . S
C6181 C6180 1.386 . S
C6181 C6185 1.397 . S
C6182 C6180 1.397 . S
C6182 C6183 1.384 . S
C6182 H6205 0.930 . S
C6183 C6182 1.384 . S
C6183 C6184 1.377 . S
C6183 C6186 1.481 . S
C6184 C6183 1.377 . S
C6184 C6185 1.389 . S
C6184 H6206 0.929 . S
C6185 C6181 1.397 . S
C6185 C6184 1.389 . S
C6185 H6207 0.931 . S
C6186 C6183 1.481 . S
C6186 C6187 1.387 . S
C6186 C6191 1.390 . S
C6187 C6186 1.387 . S
C6187 C6188 1.401 . S
C6187 H6208 0.930 . S
C6188 C6187 1.401 . S
C6188 C6189 1.376 . S
C6188 C6197 1.511 . S
C6189 C6188 1.376 . S
C6189 C6190 1.392 . S
C6189 H6210 0.931 . S
C6190 C6189 1.392 . S
C6190 C6191 1.361 . S
C6190 C6192 1.500 . S
C6191 C6186 1.390 . S
C6191 C6190 1.361 . S
C6191 H6209 0.931 . S
C6192 C6190 1.500 . S
C6192 C6193 1.371 . S
C6192 C6194 1.365 . S
C6193 C6192 1.371 . S
C6193 C6203 1.386 . S
C6193 H6211 0.931 . S
C6194 C6192 1.365 . S
C6194 C6195 1.409 . S
C6194 H6212 0.929 . S
C6195 C6194 1.409 . S
C6195 C6196 1.380 . S
C6195 H6213 0.930 . S
C6196 C6195 1.380 . S
C6196 C6203 1.357 . S
C6197 C6188 1.511 . S
C6197 C6198 1.341 . S
C6197 C6199 1.371 . S
C6198 C6197 1.341 . S
C6198 C6202 1.394 . S
C6198 H6214 0.930 . S
C6199 C6197 1.371 . S
C6199 C6200 1.392 . S
C6199 H6215 0.931 . S
C6200 C6199 1.392 . S
C6200 C6201 1.331 . S
C6200 H6218 0.932 . S
C6201 C6200 1.331 . S
C6201 C6202 1.336 . S
C6202 C6198 1.394 . S
C6202 C6201 1.336 . S
C6202 H6217 0.929 . S
C6203 C6193 1.386 . S
C6203 C6196 1.357 . S
C6203 H6216 0.928 . S
H6204 C6180 0.931 . S
H6205 C6182 0.930 . S
H6206 C6184 0.929 . S
H6207 C6185 0.931 . S
H6208 C6187 0.930 . S
H6209 C6191 0.931 . S
H6210 C6189 0.931 . S
H6211 C6193 0.931 . S
H6212 C6194 0.929 . S
H6213 C6195 0.930 . S
H6214 C6198 0.930 . S
H6215 C6199 0.931 . S
H6216 C6203 0.928 . S
H6217 C6202 0.929 . S
H6218 C6200 0.932 . S
C6219 C6220 1.386 . S
C6219 C6221 1.397 . S
C6219 H6243 0.931 . S
C6220 C6219 1.386 . S
C6220 C6224 1.397 . S
C6221 C6219 1.397 . S
C6221 C6222 1.384 . S
C6221 H6244 0.930 . S
C6222 C6221 1.384 . S
C6222 C6223 1.377 . S
C6222 C6225 1.481 . S
C6223 C6222 1.377 . S
C6223 C6224 1.389 . S
C6223 H6245 0.929 . S
C6224 C6220 1.397 . S
C6224 C6223 1.389 . S
C6224 H6246 0.931 . S
C6225 C6222 1.481 . S
C6225 C6226 1.387 . S
C6225 C6230 1.390 . S
C6226 C6225 1.387 . S
C6226 C6227 1.401 . S
C6226 H6247 0.930 . S
C6227 C6226 1.401 . S
C6227 C6228 1.376 . S
C6227 C6236 1.511 . S
C6228 C6227 1.376 . S
C6228 C6229 1.392 . S
C6228 H6249 0.931 . S
C6229 C6228 1.392 . S
C6229 C6230 1.361 . S
C6229 C6231 1.500 . S
C6230 C6225 1.390 . S
C6230 C6229 1.361 . S
C6230 H6248 0.931 . S
C6231 C6229 1.500 . S
C6231 C6232 1.371 . S
C6231 C6233 1.365 . S
C6232 C6231 1.371 . S
C6232 C6242 1.386 . S
C6232 H6250 0.931 . S
C6233 C6231 1.365 . S
C6233 C6234 1.409 . S
C6233 H6251 0.929 . S
C6234 C6233 1.409 . S
C6234 C6235 1.380 . S
C6234 H6252 0.930 . S
C6235 C6234 1.380 . S
C6235 C6242 1.357 . S
C6236 C6227 1.511 . S
C6236 C6237 1.341 . S
C6236 C6238 1.371 . S
C6237 C6236 1.341 . S
C6237 C6241 1.394 . S
C6237 H6253 0.930 . S
C6238 C6236 1.371 . S
C6238 C6239 1.392 . S
C6238 H6254 0.931 . S
C6239 C6238 1.392 . S
C6239 C6240 1.331 . S
C6239 H6257 0.932 . S
C6240 C6239 1.331 . S
C6240 C6241 1.336 . S
C6241 C6237 1.394 . S
C6241 C6240 1.336 . S
C6241 H6256 0.929 . S
C6242 C6232 1.386 . S
C6242 C6235 1.357 . S
C6242 H6255 0.928 . S
H6243 C6219 0.931 . S
H6244 C6221 0.930 . S
H6245 C6223 0.929 . S
H6246 C6224 0.931 . S
H6247 C6226 0.930 . S
H6248 C6230 0.931 . S
H6249 C6228 0.931 . S
H6250 C6232 0.931 . S
H6251 C6233 0.929 . S
H6252 C6234 0.930 . S
H6253 C6237 0.930 . S
H6254 C6238 0.931 . S
H6255 C6242 0.928 . S
H6256 C6241 0.929 . S
H6257 C6239 0.932 . S
C6258 C6259 1.386 . S
C6258 C6260 1.397 . S
C6258 H6282 0.931 . S
C6259 C6258 1.386 . S
C6259 C6263 1.397 . S
C6260 C6258 1.397 . S
C6260 C6261 1.384 . S
C6260 H6283 0.930 . S
C6261 C6260 1.384 . S
C6261 C6262 1.377 . S
C6261 C6264 1.481 . S
C6262 C6261 1.377 . S
C6262 C6263 1.389 . S
C6262 H6284 0.929 . S
C6263 C6259 1.397 . S
C6263 C6262 1.389 . S
C6263 H6285 0.931 . S
C6264 C6261 1.481 . S
C6264 C6265 1.387 . S
C6264 C6269 1.390 . S
C6265 C6264 1.387 . S
C6265 C6266 1.401 . S
C6265 H6286 0.930 . S
C6266 C6265 1.401 . S
C6266 C6267 1.376 . S
C6266 C6275 1.511 . S
C6267 C6266 1.376 . S
C6267 C6268 1.392 . S
C6267 H6288 0.931 . S
C6268 C6267 1.392 . S
C6268 C6269 1.361 . S
C6268 C6270 1.500 . S
C6269 C6264 1.390 . S
C6269 C6268 1.361 . S
C6269 H6287 0.931 . S
C6270 C6268 1.500 . S
C6270 C6271 1.371 . S
C6270 C6272 1.365 . S
C6271 C6270 1.371 . S
C6271 C6281 1.386 . S
C6271 H6289 0.931 . S
C6272 C6270 1.365 . S
C6272 C6273 1.409 . S
C6272 H6290 0.929 . S
C6273 C6272 1.409 . S
C6273 C6274 1.380 . S
C6273 H6291 0.930 . S
C6274 C6273 1.380 . S
C6274 C6281 1.357 . S
C6275 C6266 1.511 . S
C6275 C6276 1.341 . S
C6275 C6277 1.371 . S
C6276 C6275 1.341 . S
C6276 C6280 1.394 . S
C6276 H6292 0.930 . S
C6277 C6275 1.371 . S
C6277 C6278 1.392 . S
C6277 H6293 0.931 . S
C6278 C6277 1.392 . S
C6278 C6279 1.331 . S
C6278 H6296 0.932 . S
C6279 C6278 1.331 . S
C6279 C6280 1.336 . S
C6280 C6276 1.394 . S
C6280 C6279 1.336 . S
C6280 H6295 0.929 . S
C6281 C6271 1.386 . S
C6281 C6274 1.357 . S
C6281 H6294 0.928 . S
H6282 C6258 0.931 . S
H6283 C6260 0.930 . S
H6284 C6262 0.929 . S
H6285 C6263 0.931 . S
H6286 C6265 0.930 . S
H6287 C6269 0.931 . S
H6288 C6267 0.931 . S
H6289 C6271 0.931 . S
H6290 C6272 0.929 . S
H6291 C6273 0.930 . S
H6292 C6276 0.930 . S
H6293 C6277 0.931 . S
H6294 C6281 0.928 . S
H6295 C6280 0.929 . S
H6296 C6278 0.932 . S
C6297 C6298 1.386 . S
C6297 C6299 1.397 . S
C6297 H6321 0.931 . S
C6298 C6297 1.386 . S
C6298 C6302 1.397 . S
C6299 C6297 1.397 . S
C6299 C6300 1.384 . S
C6299 H6322 0.930 . S
C6300 C6299 1.384 . S
C6300 C6301 1.377 . S
C6300 C6303 1.481 . S
C6301 C6300 1.377 . S
C6301 C6302 1.389 . S
C6301 H6323 0.929 . S
C6302 C6298 1.397 . S
C6302 C6301 1.389 . S
C6302 H6324 0.931 . S
C6303 C6300 1.481 . S
C6303 C6304 1.387 . S
C6303 C6308 1.390 . S
C6304 C6303 1.387 . S
C6304 C6305 1.401 . S
C6304 H6325 0.930 . S
C6305 C6304 1.401 . S
C6305 C6306 1.376 . S
C6305 C6314 1.511 . S
C6306 C6305 1.376 . S
C6306 C6307 1.392 . S
C6306 H6327 0.931 . S
C6307 C6306 1.392 . S
C6307 C6308 1.361 . S
C6307 C6309 1.500 . S
C6308 C6303 1.390 . S
C6308 C6307 1.361 . S
C6308 H6326 0.931 . S
C6309 C6307 1.500 . S
C6309 C6310 1.371 . S
C6309 C6311 1.365 . S
C6310 C6309 1.371 . S
C6310 C6320 1.386 . S
C6310 H6328 0.931 . S
C6311 C6309 1.365 . S
C6311 C6312 1.409 . S
C6311 H6329 0.929 . S
C6312 C6311 1.409 . S
C6312 C6313 1.380 . S
C6312 H6330 0.930 . S
C6313 C6312 1.380 . S
C6313 C6320 1.357 . S
C6314 C6305 1.511 . S
C6314 C6315 1.341 . S
C6314 C6316 1.371 . S
C6315 C6314 1.341 . S
C6315 C6319 1.394 . S
C6315 H6331 0.930 . S
C6316 C6314 1.371 . S
C6316 C6317 1.392 . S
C6316 H6332 0.931 . S
C6317 C6316 1.392 . S
C6317 C6318 1.331 . S
C6317 H6335 0.932 . S
C6318 C6317 1.331 . S
C6318 C6319 1.336 . S
C6319 C6315 1.394 . S
C6319 C6318 1.336 . S
C6319 H6334 0.929 . S
C6320 C6310 1.386 . S
C6320 C6313 1.357 . S
C6320 H6333 0.928 . S
H6321 C6297 0.931 . S
H6322 C6299 0.930 . S
H6323 C6301 0.929 . S
H6324 C6302 0.931 . S
H6325 C6304 0.930 . S
H6326 C6308 0.931 . S
H6327 C6306 0.931 . S
H6328 C6310 0.931 . S
H6329 C6311 0.929 . S
H6330 C6312 0.930 . S
H6331 C6315 0.930 . S
H6332 C6316 0.931 . S
H6333 C6320 0.928 . S
H6334 C6319 0.929 . S
H6335 C6317 0.932 . S
C6336 C6337 1.386 . S
C6336 C6338 1.397 . S
C6336 H6360 0.931 . S
C6337 C6336 1.386 . S
C6337 C6341 1.397 . S
C6338 C6336 1.397 . S
C6338 C6339 1.384 . S
C6338 H6361 0.930 . S
C6339 C6338 1.384 . S
C6339 C6340 1.377 . S
C6339 C6342 1.481 . S
C6340 C6339 1.377 . S
C6340 C6341 1.389 . S
C6340 H6362 0.929 . S
C6341 C6337 1.397 . S
C6341 C6340 1.389 . S
C6341 H6363 0.931 . S
C6342 C6339 1.481 . S
C6342 C6343 1.387 . S
C6342 C6347 1.390 . S
C6343 C6342 1.387 . S
C6343 C6344 1.401 . S
C6343 H6364 0.930 . S
C6344 C6343 1.401 . S
C6344 C6345 1.376 . S
C6344 C6353 1.511 . S
C6345 C6344 1.376 . S
C6345 C6346 1.392 . S
C6345 H6366 0.931 . S
C6346 C6345 1.392 . S
C6346 C6347 1.361 . S
C6346 C6348 1.500 . S
C6347 C6342 1.390 . S
C6347 C6346 1.361 . S
C6347 H6365 0.931 . S
C6348 C6346 1.500 . S
C6348 C6349 1.371 . S
C6348 C6350 1.365 . S
C6349 C6348 1.371 . S
C6349 C6359 1.386 . S
C6349 H6367 0.931 . S
C6350 C6348 1.365 . S
C6350 C6351 1.409 . S
C6350 H6368 0.929 . S
C6351 C6350 1.409 . S
C6351 C6352 1.380 . S
C6351 H6369 0.930 . S
C6352 C6351 1.380 . S
C6352 C6359 1.357 . S
C6353 C6344 1.511 . S
C6353 C6354 1.341 . S
C6353 C6355 1.371 . S
C6354 C6353 1.341 . S
C6354 C6358 1.394 . S
C6354 H6370 0.930 . S
C6355 C6353 1.371 . S
C6355 C6356 1.392 . S
C6355 H6371 0.931 . S
C6356 C6355 1.392 . S
C6356 C6357 1.331 . S
C6356 H6374 0.932 . S
C6357 C6356 1.331 . S
C6357 C6358 1.336 . S
C6358 C6354 1.394 . S
C6358 C6357 1.336 . S
C6358 H6373 0.929 . S
C6359 C6349 1.386 . S
C6359 C6352 1.357 . S
C6359 H6372 0.928 . S
H6360 C6336 0.931 . S
H6361 C6338 0.930 . S
H6362 C6340 0.929 . S
H6363 C6341 0.931 . S
H6364 C6343 0.930 . S
H6365 C6347 0.931 . S
H6366 C6345 0.931 . S
H6367 C6349 0.931 . S
H6368 C6350 0.929 . S
H6369 C6351 0.930 . S
H6370 C6354 0.930 . S
H6371 C6355 0.931 . S
H6372 C6359 0.928 . S
H6373 C6358 0.929 . S
H6374 C6356 0.932 . S
C6375 C6376 1.386 . S
C6375 C6377 1.397 . S
C6375 H6399 0.931 . S
C6376 C6375 1.386 . S
C6376 C6380 1.397 . S
C6377 C6375 1.397 . S
C6377 C6378 1.384 . S
C6377 H6400 0.930 . S
C6378 C6377 1.384 . S
C6378 C6379 1.377 . S
C6378 C6381 1.481 . S
C6379 C6378 1.377 . S
C6379 C6380 1.389 . S
C6379 H6401 0.929 . S
C6380 C6376 1.397 . S
C6380 C6379 1.389 . S
C6380 H6402 0.931 . S
C6381 C6378 1.481 . S
C6381 C6382 1.387 . S
C6381 C6386 1.390 . S
C6382 C6381 1.387 . S
C6382 C6383 1.401 . S
C6382 H6403 0.930 . S
C6383 C6382 1.401 . S
C6383 C6384 1.376 . S
C6383 C6392 1.511 . S
C6384 C6383 1.376 . S
C6384 C6385 1.392 . S
C6384 H6405 0.931 . S
C6385 C6384 1.392 . S
C6385 C6386 1.361 . S
C6385 C6387 1.500 . S
C6386 C6381 1.390 . S
C6386 C6385 1.361 . S
C6386 H6404 0.931 . S
C6387 C6385 1.500 . S
C6387 C6388 1.371 . S
C6387 C6389 1.365 . S
C6388 C6387 1.371 . S
C6388 C6398 1.386 . S
C6388 H6406 0.931 . S
C6389 C6387 1.365 . S
C6389 C6390 1.409 . S
C6389 H6407 0.929 . S
C6390 C6389 1.409 . S
C6390 C6391 1.380 . S
C6390 H6408 0.930 . S
C6391 C6390 1.380 . S
C6391 C6398 1.357 . S
C6392 C6383 1.511 . S
C6392 C6393 1.341 . S
C6392 C6394 1.371 . S
C6393 C6392 1.341 . S
C6393 C6397 1.394 . S
C6393 H6409 0.930 . S
C6394 C6392 1.371 . S
C6394 C6395 1.392 . S
C6394 H6410 0.931 . S
C6395 C6394 1.392 . S
C6395 C6396 1.331 . S
C6395 H6413 0.932 . S
C6396 C6395 1.331 . S
C6396 C6397 1.336 . S
C6397 C6393 1.394 . S
C6397 C6396 1.336 . S
C6397 H6412 0.929 . S
C6398 C6388 1.386 . S
C6398 C6391 1.357 . S
C6398 H6411 0.928 . S
H6399 C6375 0.931 . S
H6400 C6377 0.930 . S
H6401 C6379 0.929 . S
H6402 C6380 0.931 . S
H6403 C6382 0.930 . S
H6404 C6386 0.931 . S
H6405 C6384 0.931 . S
H6406 C6388 0.931 . S
H6407 C6389 0.929 . S
H6408 C6390 0.930 . S
H6409 C6393 0.930 . S
H6410 C6394 0.931 . S
H6411 C6398 0.928 . S
H6412 C6397 0.929 . S
H6413 C6395 0.932 . S
C6414 C6415 1.386 . S
C6414 C6416 1.397 . S
C6414 H6438 0.931 . S
C6415 C6414 1.386 . S
C6415 C6419 1.397 . S
C6416 C6414 1.397 . S
C6416 C6417 1.384 . S
C6416 H6439 0.930 . S
C6417 C6416 1.384 . S
C6417 C6418 1.377 . S
C6417 C6420 1.481 . S
C6418 C6417 1.377 . S
C6418 C6419 1.389 . S
C6418 H6440 0.929 . S
C6419 C6415 1.397 . S
C6419 C6418 1.389 . S
C6419 H6441 0.931 . S
C6420 C6417 1.481 . S
C6420 C6421 1.387 . S
C6420 C6425 1.390 . S
C6421 C6420 1.387 . S
C6421 C6422 1.401 . S
C6421 H6442 0.930 . S
C6422 C6421 1.401 . S
C6422 C6423 1.376 . S
C6422 C6431 1.511 . S
C6423 C6422 1.376 . S
C6423 C6424 1.392 . S
C6423 H6444 0.931 . S
C6424 C6423 1.392 . S
C6424 C6425 1.361 . S
C6424 C6426 1.500 . S
C6425 C6420 1.390 . S
C6425 C6424 1.361 . S
C6425 H6443 0.931 . S
C6426 C6424 1.500 . S
C6426 C6427 1.371 . S
C6426 C6428 1.365 . S
C6427 C6426 1.371 . S
C6427 C6437 1.386 . S
C6427 H6445 0.931 . S
C6428 C6426 1.365 . S
C6428 C6429 1.409 . S
C6428 H6446 0.929 . S
C6429 C6428 1.409 . S
C6429 C6430 1.380 . S
C6429 H6447 0.930 . S
C6430 C6429 1.380 . S
C6430 C6437 1.357 . S
C6431 C6422 1.511 . S
C6431 C6432 1.341 . S
C6431 C6433 1.371 . S
C6432 C6431 1.341 . S
C6432 C6436 1.394 . S
C6432 H6448 0.930 . S
C6433 C6431 1.371 . S
C6433 C6434 1.392 . S
C6433 H6449 0.931 . S
C6434 C6433 1.392 . S
C6434 C6435 1.331 . S
C6434 H6452 0.932 . S
C6435 C6434 1.331 . S
C6435 C6436 1.336 . S
C6436 C6432 1.394 . S
C6436 C6435 1.336 . S
C6436 H6451 0.929 . S
C6437 C6427 1.386 . S
C6437 C6430 1.357 . S
C6437 H6450 0.928 . S
H6438 C6414 0.931 . S
H6439 C6416 0.930 . S
H6440 C6418 0.929 . S
H6441 C6419 0.931 . S
H6442 C6421 0.930 . S
H6443 C6425 0.931 . S
H6444 C6423 0.931 . S
H6445 C6427 0.931 . S
H6446 C6428 0.929 . S
H6447 C6429 0.930 . S
H6448 C6432 0.930 . S
H6449 C6433 0.931 . S
H6450 C6437 0.928 . S
H6451 C6436 0.929 . S
H6452 C6434 0.932 . S
C6453 C6454 1.386 . S
C6453 C6455 1.397 . S
C6453 H6477 0.931 . S
C6454 C6453 1.386 . S
C6454 C6458 1.397 . S
C6455 C6453 1.397 . S
C6455 C6456 1.384 . S
C6455 H6478 0.930 . S
C6456 C6455 1.384 . S
C6456 C6457 1.377 . S
C6456 C6459 1.481 . S
C6457 C6456 1.377 . S
C6457 C6458 1.389 . S
C6457 H6479 0.929 . S
C6458 C6454 1.397 . S
C6458 C6457 1.389 . S
C6458 H6480 0.931 . S
C6459 C6456 1.481 . S
C6459 C6460 1.387 . S
C6459 C6464 1.390 . S
C6460 C6459 1.387 . S
C6460 C6461 1.401 . S
C6460 H6481 0.930 . S
C6461 C6460 1.401 . S
C6461 C6462 1.376 . S
C6461 C6470 1.511 . S
C6462 C6461 1.376 . S
C6462 C6463 1.392 . S
C6462 H6483 0.931 . S
C6463 C6462 1.392 . S
C6463 C6464 1.361 . S
C6463 C6465 1.500 . S
C6464 C6459 1.390 . S
C6464 C6463 1.361 . S
C6464 H6482 0.931 . S
C6465 C6463 1.500 . S
C6465 C6466 1.371 . S
C6465 C6467 1.365 . S
C6466 C6465 1.371 . S
C6466 C6476 1.386 . S
C6466 H6484 0.931 . S
C6467 C6465 1.365 . S
C6467 C6468 1.409 . S
C6467 H6485 0.929 . S
C6468 C6467 1.409 . S
C6468 C6469 1.380 . S
C6468 H6486 0.930 . S
C6469 C6468 1.380 . S
C6469 C6476 1.357 . S
C6470 C6461 1.511 . S
C6470 C6471 1.341 . S
C6470 C6472 1.371 . S
C6471 C6470 1.341 . S
C6471 C6475 1.394 . S
C6471 H6487 0.930 . S
C6472 C6470 1.371 . S
C6472 C6473 1.392 . S
C6472 H6488 0.931 . S
C6473 C6472 1.392 . S
C6473 C6474 1.331 . S
C6473 H6491 0.932 . S
C6474 C6473 1.331 . S
C6474 C6475 1.336 . S
C6475 C6471 1.394 . S
C6475 C6474 1.336 . S
C6475 H6490 0.929 . S
C6476 C6466 1.386 . S
C6476 C6469 1.357 . S
C6476 H6489 0.928 . S
H6477 C6453 0.931 . S
H6478 C6455 0.930 . S
H6479 C6457 0.929 . S
H6480 C6458 0.931 . S
H6481 C6460 0.930 . S
H6482 C6464 0.931 . S
H6483 C6462 0.931 . S
H6484 C6466 0.931 . S
H6485 C6467 0.929 . S
H6486 C6468 0.930 . S
H6487 C6471 0.930 . S
H6488 C6472 0.931 . S
H6489 C6476 0.928 . S
H6490 C6475 0.929 . S
H6491 C6473 0.932 . S
C6492 C6493 1.386 . S
C6492 C6494 1.397 . S
C6492 H6516 0.931 . S
C6493 C6492 1.386 . S
C6493 C6497 1.397 . S
C6494 C6492 1.397 . S
C6494 C6495 1.384 . S
C6494 H6517 0.930 . S
C6495 C6494 1.384 . S
C6495 C6496 1.377 . S
C6495 C6498 1.481 . S
C6496 C6495 1.377 . S
C6496 C6497 1.389 . S
C6496 H6518 0.929 . S
C6497 C6493 1.397 . S
C6497 C6496 1.389 . S
C6497 H6519 0.931 . S
C6498 C6495 1.481 . S
C6498 C6499 1.387 . S
C6498 C6503 1.390 . S
C6499 C6498 1.387 . S
C6499 C6500 1.401 . S
C6499 H6520 0.930 . S
C6500 C6499 1.401 . S
C6500 C6501 1.376 . S
C6500 C6509 1.511 . S
C6501 C6500 1.376 . S
C6501 C6502 1.392 . S
C6501 H6522 0.931 . S
C6502 C6501 1.392 . S
C6502 C6503 1.361 . S
C6502 C6504 1.500 . S
C6503 C6498 1.390 . S
C6503 C6502 1.361 . S
C6503 H6521 0.931 . S
C6504 C6502 1.500 . S
C6504 C6505 1.371 . S
C6504 C6506 1.365 . S
C6505 C6504 1.371 . S
C6505 C6515 1.386 . S
C6505 H6523 0.931 . S
C6506 C6504 1.365 . S
C6506 C6507 1.409 . S
C6506 H6524 0.929 . S
C6507 C6506 1.409 . S
C6507 C6508 1.380 . S
C6507 H6525 0.930 . S
C6508 C6507 1.380 . S
C6508 C6515 1.357 . S
C6509 C6500 1.511 . S
C6509 C6510 1.341 . S
C6509 C6511 1.371 . S
C6510 C6509 1.341 . S
C6510 C6514 1.394 . S
C6510 H6526 0.930 . S
C6511 C6509 1.371 . S
C6511 C6512 1.392 . S
C6511 H6527 0.931 . S
C6512 C6511 1.392 . S
C6512 C6513 1.331 . S
C6512 H6530 0.932 . S
C6513 C6512 1.331 . S
C6513 C6514 1.336 . S
C6514 C6510 1.394 . S
C6514 C6513 1.336 . S
C6514 H6529 0.929 . S
C6515 C6505 1.386 . S
C6515 C6508 1.357 . S
C6515 H6528 0.928 . S
H6516 C6492 0.931 . S
H6517 C6494 0.930 . S
H6518 C6496 0.929 . S
H6519 C6497 0.931 . S
H6520 C6499 0.930 . S
H6521 C6503 0.931 . S
H6522 C6501 0.931 . S
H6523 C6505 0.931 . S
H6524 C6506 0.929 . S
H6525 C6507 0.930 . S
H6526 C6510 0.930 . S
H6527 C6511 0.931 . S
H6528 C6515 0.928 . S
H6529 C6514 0.929 . S
H6530 C6512 0.932 . S
C6531 C6532 1.386 . S
C6531 C6533 1.397 . S
C6531 H6555 0.931 . S
C6532 C6531 1.386 . S
C6532 C6536 1.397 . S
C6533 C6531 1.397 . S
C6533 C6534 1.384 . S
C6533 H6556 0.930 . S
C6534 C6533 1.384 . S
C6534 C6535 1.377 . S
C6534 C6537 1.481 . S
C6535 C6534 1.377 . S
C6535 C6536 1.389 . S
C6535 H6557 0.929 . S
C6536 C6532 1.397 . S
C6536 C6535 1.389 . S
C6536 H6558 0.931 . S
C6537 C6534 1.481 . S
C6537 C6538 1.387 . S
C6537 C6542 1.390 . S
C6538 C6537 1.387 . S
C6538 C6539 1.401 . S
C6538 H6559 0.930 . S
C6539 C6538 1.401 . S
C6539 C6540 1.376 . S
C6539 C6548 1.511 . S
C6540 C6539 1.376 . S
C6540 C6541 1.392 . S
C6540 H6561 0.931 . S
C6541 C6540 1.392 . S
C6541 C6542 1.361 . S
C6541 C6543 1.500 . S
C6542 C6537 1.390 . S
C6542 C6541 1.361 . S
C6542 H6560 0.931 . S
C6543 C6541 1.500 . S
C6543 C6544 1.371 . S
C6543 C6545 1.365 . S
C6544 C6543 1.371 . S
C6544 C6554 1.386 . S
C6544 H6562 0.931 . S
C6545 C6543 1.365 . S
C6545 C6546 1.409 . S
C6545 H6563 0.929 . S
C6546 C6545 1.409 . S
C6546 C6547 1.380 . S
C6546 H6564 0.930 . S
C6547 C6546 1.380 . S
C6547 C6554 1.357 . S
C6548 C6539 1.511 . S
C6548 C6549 1.341 . S
C6548 C6550 1.371 . S
C6549 C6548 1.341 . S
C6549 C6553 1.394 . S
C6549 H6565 0.930 . S
C6550 C6548 1.371 . S
C6550 C6551 1.392 . S
C6550 H6566 0.931 . S
C6551 C6550 1.392 . S
C6551 C6552 1.331 . S
C6551 H6569 0.932 . S
C6552 C6551 1.331 . S
C6552 C6553 1.336 . S
C6553 C6549 1.394 . S
C6553 C6552 1.336 . S
C6553 H6568 0.929 . S
C6554 C6544 1.386 . S
C6554 C6547 1.357 . S
C6554 H6567 0.928 . S
H6555 C6531 0.931 . S
H6556 C6533 0.930 . S
H6557 C6535 0.929 . S
H6558 C6536 0.931 . S
H6559 C6538 0.930 . S
H6560 C6542 0.931 . S
H6561 C6540 0.931 . S
H6562 C6544 0.931 . S
H6563 C6545 0.929 . S
H6564 C6546 0.930 . S
H6565 C6549 0.930 . S
H6566 C6550 0.931 . S
H6567 C6554 0.928 . S
H6568 C6553 0.929 . S
H6569 C6551 0.932 . S
C6570 C6571 1.386 . S
C6570 C6572 1.397 . S
C6570 H6594 0.931 . S
C6571 C6570 1.386 . S
C6571 C6575 1.397 . S
C6572 C6570 1.397 . S
C6572 C6573 1.384 . S
C6572 H6595 0.930 . S
C6573 C6572 1.384 . S
C6573 C6574 1.377 . S
C6573 C6576 1.481 . S
C6574 C6573 1.377 . S
C6574 C6575 1.389 . S
C6574 H6596 0.929 . S
C6575 C6571 1.397 . S
C6575 C6574 1.389 . S
C6575 H6597 0.931 . S
C6576 C6573 1.481 . S
C6576 C6577 1.387 . S
C6576 C6581 1.390 . S
C6577 C6576 1.387 . S
C6577 C6578 1.401 . S
C6577 H6598 0.930 . S
C6578 C6577 1.401 . S
C6578 C6579 1.376 . S
C6578 C6587 1.511 . S
C6579 C6578 1.376 . S
C6579 C6580 1.392 . S
C6579 H6600 0.931 . S
C6580 C6579 1.392 . S
C6580 C6581 1.361 . S
C6580 C6582 1.500 . S
C6581 C6576 1.390 . S
C6581 C6580 1.361 . S
C6581 H6599 0.931 . S
C6582 C6580 1.500 . S
C6582 C6583 1.371 . S
C6582 C6584 1.365 . S
C6583 C6582 1.371 . S
C6583 C6593 1.386 . S
C6583 H6601 0.931 . S
C6584 C6582 1.365 . S
C6584 C6585 1.409 . S
C6584 H6602 0.929 . S
C6585 C6584 1.409 . S
C6585 C6586 1.380 . S
C6585 H6603 0.930 . S
C6586 C6585 1.380 . S
C6586 C6593 1.357 . S
C6587 C6578 1.511 . S
C6587 C6588 1.341 . S
C6587 C6589 1.371 . S
C6588 C6587 1.341 . S
C6588 C6592 1.394 . S
C6588 H6604 0.930 . S
C6589 C6587 1.371 . S
C6589 C6590 1.392 . S
C6589 H6605 0.931 . S
C6590 C6589 1.392 . S
C6590 C6591 1.331 . S
C6590 H6608 0.932 . S
C6591 C6590 1.331 . S
C6591 C6592 1.336 . S
C6592 C6588 1.394 . S
C6592 C6591 1.336 . S
C6592 H6607 0.929 . S
C6593 C6583 1.386 . S
C6593 C6586 1.357 . S
C6593 H6606 0.928 . S
H6594 C6570 0.931 . S
H6595 C6572 0.930 . S
H6596 C6574 0.929 . S
H6597 C6575 0.931 . S
H6598 C6577 0.930 . S
H6599 C6581 0.931 . S
H6600 C6579 0.931 . S
H6601 C6583 0.931 . S
H6602 C6584 0.929 . S
H6603 C6585 0.930 . S
H6604 C6588 0.930 . S
H6605 C6589 0.931 . S
H6606 C6593 0.928 . S
H6607 C6592 0.929 . S
H6608 C6590 0.932 . S
C6609 C6610 1.386 . S
C6609 C6611 1.397 . S
C6609 H6633 0.931 . S
C6610 C6609 1.386 . S
C6610 C6614 1.397 . S
C6611 C6609 1.397 . S
C6611 C6612 1.384 . S
C6611 H6634 0.930 . S
C6612 C6611 1.384 . S
C6612 C6613 1.377 . S
C6612 C6615 1.481 . S
C6613 C6612 1.377 . S
C6613 C6614 1.389 . S
C6613 H6635 0.929 . S
C6614 C6610 1.397 . S
C6614 C6613 1.389 . S
C6614 H6636 0.931 . S
C6615 C6612 1.481 . S
C6615 C6616 1.387 . S
C6615 C6620 1.390 . S
C6616 C6615 1.387 . S
C6616 C6617 1.401 . S
C6616 H6637 0.930 . S
C6617 C6616 1.401 . S
C6617 C6618 1.376 . S
C6617 C6626 1.511 . S
C6618 C6617 1.376 . S
C6618 C6619 1.392 . S
C6618 H6639 0.931 . S
C6619 C6618 1.392 . S
C6619 C6620 1.361 . S
C6619 C6621 1.500 . S
C6620 C6615 1.390 . S
C6620 C6619 1.361 . S
C6620 H6638 0.931 . S
C6621 C6619 1.500 . S
C6621 C6622 1.371 . S
C6621 C6623 1.365 . S
C6622 C6621 1.371 . S
C6622 C6632 1.386 . S
C6622 H6640 0.931 . S
C6623 C6621 1.365 . S
C6623 C6624 1.409 . S
C6623 H6641 0.929 . S
C6624 C6623 1.409 . S
C6624 C6625 1.380 . S
C6624 H6642 0.930 . S
C6625 C6624 1.380 . S
C6625 C6632 1.357 . S
C6626 C6617 1.511 . S
C6626 C6627 1.341 . S
C6626 C6628 1.371 . S
C6627 C6626 1.341 . S
C6627 C6631 1.394 . S
C6627 H6643 0.930 . S
C6628 C6626 1.371 . S
C6628 C6629 1.392 . S
C6628 H6644 0.931 . S
C6629 C6628 1.392 . S
C6629 C6630 1.331 . S
C6629 H6647 0.932 . S
C6630 C6629 1.331 . S
C6630 C6631 1.336 . S
C6631 C6627 1.394 . S
C6631 C6630 1.336 . S
C6631 H6646 0.929 . S
C6632 C6622 1.386 . S
C6632 C6625 1.357 . S
C6632 H6645 0.928 . S
H6633 C6609 0.931 . S
H6634 C6611 0.930 . S
H6635 C6613 0.929 . S
H6636 C6614 0.931 . S
H6637 C6616 0.930 . S
H6638 C6620 0.931 . S
H6639 C6618 0.931 . S
H6640 C6622 0.931 . S
H6641 C6623 0.929 . S
H6642 C6624 0.930 . S
H6643 C6627 0.930 . S
H6644 C6628 0.931 . S
H6645 C6632 0.928 . S
H6646 C6631 0.929 . S
H6647 C6629 0.932 . S
C6648 C6649 1.386 . S
C6648 C6650 1.397 . S
C6648 H6672 0.931 . S
C6649 C6648 1.386 . S
C6649 C6653 1.397 . S
C6650 C6648 1.397 . S
C6650 C6651 1.384 . S
C6650 H6673 0.930 . S
C6651 C6650 1.384 . S
C6651 C6652 1.377 . S
C6651 C6654 1.481 . S
C6652 C6651 1.377 . S
C6652 C6653 1.389 . S
C6652 H6674 0.929 . S
C6653 C6649 1.397 . S
C6653 C6652 1.389 . S
C6653 H6675 0.931 . S
C6654 C6651 1.481 . S
C6654 C6655 1.387 . S
C6654 C6659 1.390 . S
C6655 C6654 1.387 . S
C6655 C6656 1.401 . S
C6655 H6676 0.930 . S
C6656 C6655 1.401 . S
C6656 C6657 1.376 . S
C6656 C6665 1.511 . S
C6657 C6656 1.376 . S
C6657 C6658 1.392 . S
C6657 H6678 0.931 . S
C6658 C6657 1.392 . S
C6658 C6659 1.361 . S
C6658 C6660 1.500 . S
C6659 C6654 1.390 . S
C6659 C6658 1.361 . S
C6659 H6677 0.931 . S
C6660 C6658 1.500 . S
C6660 C6661 1.371 . S
C6660 C6662 1.365 . S
C6661 C6660 1.371 . S
C6661 C6671 1.386 . S
C6661 H6679 0.931 . S
C6662 C6660 1.365 . S
C6662 C6663 1.409 . S
C6662 H6680 0.929 . S
C6663 C6662 1.409 . S
C6663 C6664 1.380 . S
C6663 H6681 0.930 . S
C6664 C6663 1.380 . S
C6664 C6671 1.357 . S
C6665 C6656 1.511 . S
C6665 C6666 1.341 . S
C6665 C6667 1.371 . S
C6666 C6665 1.341 . S
C6666 C6670 1.394 . S
C6666 H6682 0.930 . S
C6667 C6665 1.371 . S
C6667 C6668 1.392 . S
C6667 H6683 0.931 . S
C6668 C6667 1.392 . S
C6668 C6669 1.331 . S
C6668 H6686 0.932 . S
C6669 C6668 1.331 . S
C6669 C6670 1.336 . S
C6670 C6666 1.394 . S
C6670 C6669 1.336 . S
C6670 H6685 0.929 . S
C6671 C6661 1.386 . S
C6671 C6664 1.357 . S
C6671 H6684 0.928 . S
H6672 C6648 0.931 . S
H6673 C6650 0.930 . S
H6674 C6652 0.929 . S
H6675 C6653 0.931 . S
H6676 C6655 0.930 . S
H6677 C6659 0.931 . S
H6678 C6657 0.931 . S
H6679 C6661 0.931 . S
H6680 C6662 0.929 . S
H6681 C6663 0.930 . S
H6682 C6666 0.930 . S
H6683 C6667 0.931 . S
H6684 C6671 0.928 . S
H6685 C6670 0.929 . S
H6686 C6668 0.932 . S
C6687 C6688 1.386 . S
C6687 C6689 1.397 . S
C6687 H6711 0.931 . S
C6688 C6687 1.386 . S
C6688 C6692 1.397 . S
C6689 C6687 1.397 . S
C6689 C6690 1.384 . S
C6689 H6712 0.930 . S
C6690 C6689 1.384 . S
C6690 C6691 1.377 . S
C6690 C6693 1.481 . S
C6691 C6690 1.377 . S
C6691 C6692 1.389 . S
C6691 H6713 0.929 . S
C6692 C6688 1.397 . S
C6692 C6691 1.389 . S
C6692 H6714 0.931 . S
C6693 C6690 1.481 . S
C6693 C6694 1.387 . S
C6693 C6698 1.390 . S
C6694 C6693 1.387 . S
C6694 C6695 1.401 . S
C6694 H6715 0.930 . S
C6695 C6694 1.401 . S
C6695 C6696 1.376 . S
C6695 C6704 1.511 . S
C6696 C6695 1.376 . S
C6696 C6697 1.392 . S
C6696 H6717 0.931 . S
C6697 C6696 1.392 . S
C6697 C6698 1.361 . S
C6697 C6699 1.500 . S
C6698 C6693 1.390 . S
C6698 C6697 1.361 . S
C6698 H6716 0.931 . S
C6699 C6697 1.500 . S
C6699 C6700 1.371 . S
C6699 C6701 1.365 . S
C6700 C6699 1.371 . S
C6700 C6710 1.386 . S
C6700 H6718 0.931 . S
C6701 C6699 1.365 . S
C6701 C6702 1.409 . S
C6701 H6719 0.929 . S
C6702 C6701 1.409 . S
C6702 C6703 1.380 . S
C6702 H6720 0.930 . S
C6703 C6702 1.380 . S
C6703 C6710 1.357 . S
C6704 C6695 1.511 . S
C6704 C6705 1.341 . S
C6704 C6706 1.371 . S
C6705 C6704 1.341 . S
C6705 C6709 1.394 . S
C6705 H6721 0.930 . S
C6706 C6704 1.371 . S
C6706 C6707 1.392 . S
C6706 H6722 0.931 . S
C6707 C6706 1.392 . S
C6707 C6708 1.331 . S
C6707 H6725 0.932 . S
C6708 C6707 1.331 . S
C6708 C6709 1.336 . S
C6709 C6705 1.394 . S
C6709 C6708 1.336 . S
C6709 H6724 0.929 . S
C6710 C6700 1.386 . S
C6710 C6703 1.357 . S
C6710 H6723 0.928 . S
H6711 C6687 0.931 . S
H6712 C6689 0.930 . S
H6713 C6691 0.929 . S
H6714 C6692 0.931 . S
H6715 C6694 0.930 . S
H6716 C6698 0.931 . S
H6717 C6696 0.931 . S
H6718 C6700 0.931 . S
H6719 C6701 0.929 . S
H6720 C6702 0.930 . S
H6721 C6705 0.930 . S
H6722 C6706 0.931 . S
H6723 C6710 0.928 . S
H6724 C6709 0.929 . S
H6725 C6707 0.932 . S
C6726 C6727 1.386 . S
C6726 C6728 1.397 . S
C6726 H6750 0.931 . S
C6727 C6726 1.386 . S
C6727 C6731 1.397 . S
C6728 C6726 1.397 . S
C6728 C6729 1.384 . S
C6728 H6751 0.930 . S
C6729 C6728 1.384 . S
C6729 C6730 1.377 . S
C6729 C6732 1.481 . S
C6730 C6729 1.377 . S
C6730 C6731 1.389 . S
C6730 H6752 0.929 . S
C6731 C6727 1.397 . S
C6731 C6730 1.389 . S
C6731 H6753 0.931 . S
C6732 C6729 1.481 . S
C6732 C6733 1.387 . S
C6732 C6737 1.390 . S
C6733 C6732 1.387 . S
C6733 C6734 1.401 . S
C6733 H6754 0.930 . S
C6734 C6733 1.401 . S
C6734 C6735 1.376 . S
C6734 C6743 1.511 . S
C6735 C6734 1.376 . S
C6735 C6736 1.392 . S
C6735 H6756 0.931 . S
C6736 C6735 1.392 . S
C6736 C6737 1.361 . S
C6736 C6738 1.500 . S
C6737 C6732 1.390 . S
C6737 C6736 1.361 . S
C6737 H6755 0.931 . S
C6738 C6736 1.500 . S
C6738 C6739 1.371 . S
C6738 C6740 1.365 . S
C6739 C6738 1.371 . S
C6739 C6749 1.386 . S
C6739 H6757 0.931 . S
C6740 C6738 1.365 . S
C6740 C6741 1.409 . S
C6740 H6758 0.929 . S
C6741 C6740 1.409 . S
C6741 C6742 1.380 . S
C6741 H6759 0.930 . S
C6742 C6741 1.380 . S
C6742 C6749 1.357 . S
C6743 C6734 1.511 . S
C6743 C6744 1.341 . S
C6743 C6745 1.371 . S
C6744 C6743 1.341 . S
C6744 C6748 1.394 . S
C6744 H6760 0.930 . S
C6745 C6743 1.371 . S
C6745 C6746 1.392 . S
C6745 H6761 0.931 . S
C6746 C6745 1.392 . S
C6746 C6747 1.331 . S
C6746 H6764 0.932 . S
C6747 C6746 1.331 . S
C6747 C6748 1.336 . S
C6748 C6744 1.394 . S
C6748 C6747 1.336 . S
C6748 H6763 0.929 . S
C6749 C6739 1.386 . S
C6749 C6742 1.357 . S
C6749 H6762 0.928 . S
H6750 C6726 0.931 . S
H6751 C6728 0.930 . S
H6752 C6730 0.929 . S
H6753 C6731 0.931 . S
H6754 C6733 0.930 . S
H6755 C6737 0.931 . S
H6756 C6735 0.931 . S
H6757 C6739 0.931 . S
H6758 C6740 0.929 . S
H6759 C6741 0.930 . S
H6760 C6744 0.930 . S
H6761 C6745 0.931 . S
H6762 C6749 0.928 . S
H6763 C6748 0.929 . S
H6764 C6746 0.932 . S
C6765 C6766 1.386 . S
C6765 C6767 1.397 . S
C6765 H6789 0.931 . S
C6766 C6765 1.386 . S
C6766 C6770 1.397 . S
C6767 C6765 1.397 . S
C6767 C6768 1.384 . S
C6767 H6790 0.930 . S
C6768 C6767 1.384 . S
C6768 C6769 1.377 . S
C6768 C6771 1.481 . S
C6769 C6768 1.377 . S
C6769 C6770 1.389 . S
C6769 H6791 0.929 . S
C6770 C6766 1.397 . S
C6770 C6769 1.389 . S
C6770 H6792 0.931 . S
C6771 C6768 1.481 . S
C6771 C6772 1.387 . S
C6771 C6776 1.390 . S
C6772 C6771 1.387 . S
C6772 C6773 1.401 . S
C6772 H6793 0.930 . S
C6773 C6772 1.401 . S
C6773 C6774 1.376 . S
C6773 C6782 1.511 . S
C6774 C6773 1.376 . S
C6774 C6775 1.392 . S
C6774 H6795 0.931 . S
C6775 C6774 1.392 . S
C6775 C6776 1.361 . S
C6775 C6777 1.500 . S
C6776 C6771 1.390 . S
C6776 C6775 1.361 . S
C6776 H6794 0.931 . S
C6777 C6775 1.500 . S
C6777 C6778 1.371 . S
C6777 C6779 1.365 . S
C6778 C6777 1.371 . S
C6778 C6788 1.386 . S
C6778 H6796 0.931 . S
C6779 C6777 1.365 . S
C6779 C6780 1.409 . S
C6779 H6797 0.929 . S
C6780 C6779 1.409 . S
C6780 C6781 1.380 . S
C6780 H6798 0.930 . S
C6781 C6780 1.380 . S
C6781 C6788 1.357 . S
C6782 C6773 1.511 . S
C6782 C6783 1.341 . S
C6782 C6784 1.371 . S
C6783 C6782 1.341 . S
C6783 C6787 1.394 . S
C6783 H6799 0.930 . S
C6784 C6782 1.371 . S
C6784 C6785 1.392 . S
C6784 H6800 0.931 . S
C6785 C6784 1.392 . S
C6785 C6786 1.331 . S
C6785 H6803 0.932 . S
C6786 C6785 1.331 . S
C6786 C6787 1.336 . S
C6787 C6783 1.394 . S
C6787 C6786 1.336 . S
C6787 H6802 0.929 . S
C6788 C6778 1.386 . S
C6788 C6781 1.357 . S
C6788 H6801 0.928 . S
H6789 C6765 0.931 . S
H6790 C6767 0.930 . S
H6791 C6769 0.929 . S
H6792 C6770 0.931 . S
H6793 C6772 0.930 . S
H6794 C6776 0.931 . S
H6795 C6774 0.931 . S
H6796 C6778 0.931 . S
H6797 C6779 0.929 . S
H6798 C6780 0.930 . S
H6799 C6783 0.930 . S
H6800 C6784 0.931 . S
H6801 C6788 0.928 . S
H6802 C6787 0.929 . S
H6803 C6785 0.932 . S
C6804 C6805 1.386 . S
C6804 C6806 1.397 . S
C6804 H6828 0.931 . S
C6805 C6804 1.386 . S
C6805 C6809 1.397 . S
C6806 C6804 1.397 . S
C6806 C6807 1.384 . S
C6806 H6829 0.930 . S
C6807 C6806 1.384 . S
C6807 C6808 1.377 . S
C6807 C6810 1.481 . S
C6808 C6807 1.377 . S
C6808 C6809 1.389 . S
C6808 H6830 0.929 . S
C6809 C6805 1.397 . S
C6809 C6808 1.389 . S
C6809 H6831 0.931 . S
C6810 C6807 1.481 . S
C6810 C6811 1.387 . S
C6810 C6815 1.390 . S
C6811 C6810 1.387 . S
C6811 C6812 1.401 . S
C6811 H6832 0.930 . S
C6812 C6811 1.401 . S
C6812 C6813 1.376 . S
C6812 C6821 1.511 . S
C6813 C6812 1.376 . S
C6813 C6814 1.392 . S
C6813 H6834 0.931 . S
C6814 C6813 1.392 . S
C6814 C6815 1.361 . S
C6814 C6816 1.500 . S
C6815 C6810 1.390 . S
C6815 C6814 1.361 . S
C6815 H6833 0.931 . S
C6816 C6814 1.500 . S
C6816 C6817 1.371 . S
C6816 C6818 1.365 . S
C6817 C6816 1.371 . S
C6817 C6827 1.386 . S
C6817 H6835 0.931 . S
C6818 C6816 1.365 . S
C6818 C6819 1.409 . S
C6818 H6836 0.929 . S
C6819 C6818 1.409 . S
C6819 C6820 1.380 . S
C6819 H6837 0.930 . S
C6820 C6819 1.380 . S
C6820 C6827 1.357 . S
C6821 C6812 1.511 . S
C6821 C6822 1.341 . S
C6821 C6823 1.371 . S
C6822 C6821 1.341 . S
C6822 C6826 1.394 . S
C6822 H6838 0.930 . S
C6823 C6821 1.371 . S
C6823 C6824 1.392 . S
C6823 H6839 0.931 . S
C6824 C6823 1.392 . S
C6824 C6825 1.331 . S
C6824 H6842 0.932 . S
C6825 C6824 1.331 . S
C6825 C6826 1.336 . S
C6826 C6822 1.394 . S
C6826 C6825 1.336 . S
C6826 H6841 0.929 . S
C6827 C6817 1.386 . S
C6827 C6820 1.357 . S
C6827 H6840 0.928 . S
H6828 C6804 0.931 . S
H6829 C6806 0.930 . S
H6830 C6808 0.929 . S
H6831 C6809 0.931 . S
H6832 C6811 0.930 . S
H6833 C6815 0.931 . S
H6834 C6813 0.931 . S
H6835 C6817 0.931 . S
H6836 C6818 0.929 . S
H6837 C6819 0.930 . S
H6838 C6822 0.930 . S
H6839 C6823 0.931 . S
H6840 C6827 0.928 . S
H6841 C6826 0.929 . S
H6842 C6824 0.932 . S
C6843 C6844 1.386 . S
C6843 C6845 1.397 . S
C6843 H6867 0.931 . S
C6844 C6843 1.386 . S
C6844 C6848 1.397 . S
C6845 C6843 1.397 . S
C6845 C6846 1.384 . S
C6845 H6868 0.930 . S
C6846 C6845 1.384 . S
C6846 C6847 1.377 . S
C6846 C6849 1.481 . S
C6847 C6846 1.377 . S
C6847 C6848 1.389 . S
C6847 H6869 0.929 . S
C6848 C6844 1.397 . S
C6848 C6847 1.389 . S
C6848 H6870 0.931 . S
C6849 C6846 1.481 . S
C6849 C6850 1.387 . S
C6849 C6854 1.390 . S
C6850 C6849 1.387 . S
C6850 C6851 1.401 . S
C6850 H6871 0.930 . S
C6851 C6850 1.401 . S
C6851 C6852 1.376 . S
C6851 C6860 1.511 . S
C6852 C6851 1.376 . S
C6852 C6853 1.392 . S
C6852 H6873 0.931 . S
C6853 C6852 1.392 . S
C6853 C6854 1.361 . S
C6853 C6855 1.500 . S
C6854 C6849 1.390 . S
C6854 C6853 1.361 . S
C6854 H6872 0.931 . S
C6855 C6853 1.500 . S
C6855 C6856 1.371 . S
C6855 C6857 1.365 . S
C6856 C6855 1.371 . S
C6856 C6866 1.386 . S
C6856 H6874 0.931 . S
C6857 C6855 1.365 . S
C6857 C6858 1.409 . S
C6857 H6875 0.929 . S
C6858 C6857 1.409 . S
C6858 C6859 1.380 . S
C6858 H6876 0.930 . S
C6859 C6858 1.380 . S
C6859 C6866 1.357 . S
C6860 C6851 1.511 . S
C6860 C6861 1.341 . S
C6860 C6862 1.371 . S
C6861 C6860 1.341 . S
C6861 C6865 1.394 . S
C6861 H6877 0.930 . S
C6862 C6860 1.371 . S
C6862 C6863 1.392 . S
C6862 H6878 0.931 . S
C6863 C6862 1.392 . S
C6863 C6864 1.331 . S
C6863 H6881 0.932 . S
C6864 C6863 1.331 . S
C6864 C6865 1.336 . S
C6865 C6861 1.394 . S
C6865 C6864 1.336 . S
C6865 H6880 0.929 . S
C6866 C6856 1.386 . S
C6866 C6859 1.357 . S
C6866 H6879 0.928 . S
H6867 C6843 0.931 . S
H6868 C6845 0.930 . S
H6869 C6847 0.929 . S
H6870 C6848 0.931 . S
H6871 C6850 0.930 . S
H6872 C6854 0.931 . S
H6873 C6852 0.931 . S
H6874 C6856 0.931 . S
H6875 C6857 0.929 . S
H6876 C6858 0.930 . S
H6877 C6861 0.930 . S
H6878 C6862 0.931 . S
H6879 C6866 0.928 . S
H6880 C6865 0.929 . S
H6881 C6863 0.932 . S
C6882 C6883 1.386 . S
C6882 C6884 1.397 . S
C6882 H6906 0.931 . S
C6883 C6882 1.386 . S
C6883 C6887 1.397 . S
C6884 C6882 1.397 . S
C6884 C6885 1.384 . S
C6884 H6907 0.930 . S
C6885 C6884 1.384 . S
C6885 C6886 1.377 . S
C6885 C6888 1.481 . S
C6886 C6885 1.377 . S
C6886 C6887 1.389 . S
C6886 H6908 0.929 . S
C6887 C6883 1.397 . S
C6887 C6886 1.389 . S
C6887 H6909 0.931 . S
C6888 C6885 1.481 . S
C6888 C6889 1.387 . S
C6888 C6893 1.390 . S
C6889 C6888 1.387 . S
C6889 C6890 1.401 . S
C6889 H6910 0.930 . S
C6890 C6889 1.401 . S
C6890 C6891 1.376 . S
C6890 C6899 1.511 . S
C6891 C6890 1.376 . S
C6891 C6892 1.392 . S
C6891 H6912 0.931 . S
C6892 C6891 1.392 . S
C6892 C6893 1.361 . S
C6892 C6894 1.500 . S
C6893 C6888 1.390 . S
C6893 C6892 1.361 . S
C6893 H6911 0.931 . S
C6894 C6892 1.500 . S
C6894 C6895 1.371 . S
C6894 C6896 1.365 . S
C6895 C6894 1.371 . S
C6895 C6905 1.386 . S
C6895 H6913 0.931 . S
C6896 C6894 1.365 . S
C6896 C6897 1.409 . S
C6896 H6914 0.929 . S
C6897 C6896 1.409 . S
C6897 C6898 1.380 . S
C6897 H6915 0.930 . S
C6898 C6897 1.380 . S
C6898 C6905 1.357 . S
C6899 C6890 1.511 . S
C6899 C6900 1.341 . S
C6899 C6901 1.371 . S
C6900 C6899 1.341 . S
C6900 C6904 1.394 . S
C6900 H6916 0.930 . S
C6901 C6899 1.371 . S
C6901 C6902 1.392 . S
C6901 H6917 0.931 . S
C6902 C6901 1.392 . S
C6902 C6903 1.331 . S
C6902 H6920 0.932 . S
C6903 C6902 1.331 . S
C6903 C6904 1.336 . S
C6904 C6900 1.394 . S
C6904 C6903 1.336 . S
C6904 H6919 0.929 . S
C6905 C6895 1.386 . S
C6905 C6898 1.357 . S
C6905 H6918 0.928 . S
H6906 C6882 0.931 . S
H6907 C6884 0.930 . S
H6908 C6886 0.929 . S
H6909 C6887 0.931 . S
H6910 C6889 0.930 . S
H6911 C6893 0.931 . S
H6912 C6891 0.931 . S
H6913 C6895 0.931 . S
H6914 C6896 0.929 . S
H6915 C6897 0.930 . S
H6916 C6900 0.930 . S
H6917 C6901 0.931 . S
H6918 C6905 0.928 . S
H6919 C6904 0.929 . S
H6920 C6902 0.932 . S
C6921 C6922 1.386 . S
C6921 C6923 1.397 . S
C6921 H6945 0.931 . S
C6922 C6921 1.386 . S
C6922 C6926 1.397 . S
C6923 C6921 1.397 . S
C6923 C6924 1.384 . S
C6923 H6946 0.930 . S
C6924 C6923 1.384 . S
C6924 C6925 1.377 . S
C6924 C6927 1.481 . S
C6925 C6924 1.377 . S
C6925 C6926 1.389 . S
C6925 H6947 0.929 . S
C6926 C6922 1.397 . S
C6926 C6925 1.389 . S
C6926 H6948 0.931 . S
C6927 C6924 1.481 . S
C6927 C6928 1.387 . S
C6927 C6932 1.390 . S
C6928 C6927 1.387 . S
C6928 C6929 1.401 . S
C6928 H6949 0.930 . S
C6929 C6928 1.401 . S
C6929 C6930 1.376 . S
C6929 C6938 1.511 . S
C6930 C6929 1.376 . S
C6930 C6931 1.392 . S
C6930 H6951 0.931 . S
C6931 C6930 1.392 . S
C6931 C6932 1.361 . S
C6931 C6933 1.500 . S
C6932 C6927 1.390 . S
C6932 C6931 1.361 . S
C6932 H6950 0.931 . S
C6933 C6931 1.500 . S
C6933 C6934 1.371 . S
C6933 C6935 1.365 . S
C6934 C6933 1.371 . S
C6934 C6944 1.386 . S
C6934 H6952 0.931 . S
C6935 C6933 1.365 . S
C6935 C6936 1.409 . S
C6935 H6953 0.929 . S
C6936 C6935 1.409 . S
C6936 C6937 1.380 . S
C6936 H6954 0.930 . S
C6937 C6936 1.380 . S
C6937 C6944 1.357 . S
C6938 C6929 1.511 . S
C6938 C6939 1.341 . S
C6938 C6940 1.371 . S
C6939 C6938 1.341 . S
C6939 C6943 1.394 . S
C6939 H6955 0.930 . S
C6940 C6938 1.371 . S
C6940 C6941 1.392 . S
C6940 H6956 0.931 . S
C6941 C6940 1.392 . S
C6941 C6942 1.331 . S
C6941 H6959 0.932 . S
C6942 C6941 1.331 . S
C6942 C6943 1.336 . S
C6943 C6939 1.394 . S
C6943 C6942 1.336 . S
C6943 H6958 0.929 . S
C6944 C6934 1.386 . S
C6944 C6937 1.357 . S
C6944 H6957 0.928 . S
H6945 C6921 0.931 . S
H6946 C6923 0.930 . S
H6947 C6925 0.929 . S
H6948 C6926 0.931 . S
H6949 C6928 0.930 . S
H6950 C6932 0.931 . S
H6951 C6930 0.931 . S
H6952 C6934 0.931 . S
H6953 C6935 0.929 . S
H6954 C6936 0.930 . S
H6955 C6939 0.930 . S
H6956 C6940 0.931 . S
H6957 C6944 0.928 . S
H6958 C6943 0.929 . S
H6959 C6941 0.932 . S
C6960 C6961 1.386 . S
C6960 C6962 1.397 . S
C6960 H6984 0.931 . S
C6961 C6960 1.386 . S
C6961 C6965 1.397 . S
C6962 C6960 1.397 . S
C6962 C6963 1.384 . S
C6962 H6985 0.930 . S
C6963 C6962 1.384 . S
C6963 C6964 1.377 . S
C6963 C6966 1.481 . S
C6964 C6963 1.377 . S
C6964 C6965 1.389 . S
C6964 H6986 0.929 . S
C6965 C6961 1.397 . S
C6965 C6964 1.389 . S
C6965 H6987 0.931 . S
C6966 C6963 1.481 . S
C6966 C6967 1.387 . S
C6966 C6971 1.390 . S
C6967 C6966 1.387 . S
C6967 C6968 1.401 . S
C6967 H6988 0.930 . S
C6968 C6967 1.401 . S
C6968 C6969 1.376 . S
C6968 C6977 1.511 . S
C6969 C6968 1.376 . S
C6969 C6970 1.392 . S
C6969 H6990 0.931 . S
C6970 C6969 1.392 . S
C6970 C6971 1.361 . S
C6970 C6972 1.500 . S
C6971 C6966 1.390 . S
C6971 C6970 1.361 . S
C6971 H6989 0.931 . S
C6972 C6970 1.500 . S
C6972 C6973 1.371 . S
C6972 C6974 1.365 . S
C6973 C6972 1.371 . S
C6973 C6983 1.386 . S
C6973 H6991 0.931 . S
C6974 C6972 1.365 . S
C6974 C6975 1.409 . S
C6974 H6992 0.929 . S
C6975 C6974 1.409 . S
C6975 C6976 1.380 . S
C6975 H6993 0.930 . S
C6976 C6975 1.380 . S
C6976 C6983 1.357 . S
C6977 C6968 1.511 . S
C6977 C6978 1.341 . S
C6977 C6979 1.371 . S
C6978 C6977 1.341 . S
C6978 C6982 1.394 . S
C6978 H6994 0.930 . S
C6979 C6977 1.371 . S
C6979 C6980 1.392 . S
C6979 H6995 0.931 . S
C6980 C6979 1.392 . S
C6980 C6981 1.331 . S
C6980 H6998 0.932 . S
C6981 C6980 1.331 . S
C6981 C6982 1.336 . S
C6982 C6978 1.394 . S
C6982 C6981 1.336 . S
C6982 H6997 0.929 . S
C6983 C6973 1.386 . S
C6983 C6976 1.357 . S
C6983 H6996 0.928 . S
H6984 C6960 0.931 . S
H6985 C6962 0.930 . S
H6986 C6964 0.929 . S
H6987 C6965 0.931 . S
H6988 C6967 0.930 . S
H6989 C6971 0.931 . S
H6990 C6969 0.931 . S
H6991 C6973 0.931 . S
H6992 C6974 0.929 . S
H6993 C6975 0.930 . S
H6994 C6978 0.930 . S
H6995 C6979 0.931 . S
H6996 C6983 0.928 . S
H6997 C6982 0.929 . S
H6998 C6980 0.932 . S
C6999 C7000 1.386 . S
C6999 C7001 1.397 . S
C6999 H7023 0.931 . S
C7000 C6999 1.386 . S
C7000 C7004 1.397 . S
C7001 C6999 1.397 . S
C7001 C7002 1.384 . S
C7001 H7024 0.930 . S
C7002 C7001 1.384 . S
C7002 C7003 1.377 . S
C7002 C7005 1.481 . S
C7003 C7002 1.377 . S
C7003 C7004 1.389 . S
C7003 H7025 0.929 . S
C7004 C7000 1.397 . S
C7004 C7003 1.389 . S
C7004 H7026 0.931 . S
C7005 C7002 1.481 . S
C7005 C7006 1.387 . S
C7005 C7010 1.390 . S
C7006 C7005 1.387 . S
C7006 C7007 1.401 . S
C7006 H7027 0.930 . S
C7007 C7006 1.401 . S
C7007 C7008 1.376 . S
C7007 C7016 1.511 . S
C7008 C7007 1.376 . S
C7008 C7009 1.392 . S
C7008 H7029 0.931 . S
C7009 C7008 1.392 . S
C7009 C7010 1.361 . S
C7009 C7011 1.500 . S
C7010 C7005 1.390 . S
C7010 C7009 1.361 . S
C7010 H7028 0.931 . S
C7011 C7009 1.500 . S
C7011 C7012 1.371 . S
C7011 C7013 1.365 . S
C7012 C7011 1.371 . S
C7012 C7022 1.386 . S
C7012 H7030 0.931 . S
C7013 C7011 1.365 . S
C7013 C7014 1.409 . S
C7013 H7031 0.929 . S
C7014 C7013 1.409 . S
C7014 C7015 1.380 . S
C7014 H7032 0.930 . S
C7015 C7014 1.380 . S
C7015 C7022 1.357 . S
C7016 C7007 1.511 . S
C7016 C7017 1.341 . S
C7016 C7018 1.371 . S
C7017 C7016 1.341 . S
C7017 C7021 1.394 . S
C7017 H7033 0.930 . S
C7018 C7016 1.371 . S
C7018 C7019 1.392 . S
C7018 H7034 0.931 . S
C7019 C7018 1.392 . S
C7019 C7020 1.331 . S
C7019 H7037 0.932 . S
C7020 C7019 1.331 . S
C7020 C7021 1.336 . S
C7021 C7017 1.394 . S
C7021 C7020 1.336 . S
C7021 H7036 0.929 . S
C7022 C7012 1.386 . S
C7022 C7015 1.357 . S
C7022 H7035 0.928 . S
H7023 C6999 0.931 . S
H7024 C7001 0.930 . S
H7025 C7003 0.929 . S
H7026 C7004 0.931 . S
H7027 C7006 0.930 . S
H7028 C7010 0.931 . S
H7029 C7008 0.931 . S
H7030 C7012 0.931 . S
H7031 C7013 0.929 . S
H7032 C7014 0.930 . S
H7033 C7017 0.930 . S
H7034 C7018 0.931 . S
H7035 C7022 0.928 . S
H7036 C7021 0.929 . S
H7037 C7019 0.932 . S
C7038 C7039 1.386 . S
C7038 C7040 1.397 . S
C7038 H7062 0.931 . S
C7039 C7038 1.386 . S
C7039 C7043 1.397 . S
C7040 C7038 1.397 . S
C7040 C7041 1.384 . S
C7040 H7063 0.930 . S
C7041 C7040 1.384 . S
C7041 C7042 1.377 . S
C7041 C7044 1.481 . S
C7042 C7041 1.377 . S
C7042 C7043 1.389 . S
C7042 H7064 0.929 . S
C7043 C7039 1.397 . S
C7043 C7042 1.389 . S
C7043 H7065 0.931 . S
C7044 C7041 1.481 . S
C7044 C7045 1.387 . S
C7044 C7049 1.390 . S
C7045 C7044 1.387 . S
C7045 C7046 1.401 . S
C7045 H7066 0.930 . S
C7046 C7045 1.401 . S
C7046 C7047 1.376 . S
C7046 C7055 1.511 . S
C7047 C7046 1.376 . S
C7047 C7048 1.392 . S
C7047 H7068 0.931 . S
C7048 C7047 1.392 . S
C7048 C7049 1.361 . S
C7048 C7050 1.500 . S
C7049 C7044 1.390 . S
C7049 C7048 1.361 . S
C7049 H7067 0.931 . S
C7050 C7048 1.500 . S
C7050 C7051 1.371 . S
C7050 C7052 1.365 . S
C7051 C7050 1.371 . S
C7051 C7061 1.386 . S
C7051 H7069 0.931 . S
C7052 C7050 1.365 . S
C7052 C7053 1.409 . S
C7052 H7070 0.929 . S
C7053 C7052 1.409 . S
C7053 C7054 1.380 . S
C7053 H7071 0.930 . S
C7054 C7053 1.380 . S
C7054 C7061 1.357 . S
C7055 C7046 1.511 . S
C7055 C7056 1.341 . S
C7055 C7057 1.371 . S
C7056 C7055 1.341 . S
C7056 C7060 1.394 . S
C7056 H7072 0.930 . S
C7057 C7055 1.371 . S
C7057 C7058 1.392 . S
C7057 H7073 0.931 . S
C7058 C7057 1.392 . S
C7058 C7059 1.331 . S
C7058 H7076 0.932 . S
C7059 C7058 1.331 . S
C7059 C7060 1.336 . S
C7060 C7056 1.394 . S
C7060 C7059 1.336 . S
C7060 H7075 0.929 . S
C7061 C7051 1.386 . S
C7061 C7054 1.357 . S
C7061 H7074 0.928 . S
H7062 C7038 0.931 . S
H7063 C7040 0.930 . S
H7064 C7042 0.929 . S
H7065 C7043 0.931 . S
H7066 C7045 0.930 . S
H7067 C7049 0.931 . S
H7068 C7047 0.931 . S
H7069 C7051 0.931 . S
H7070 C7052 0.929 . S
H7071 C7053 0.930 . S
H7072 C7056 0.930 . S
H7073 C7057 0.931 . S
H7074 C7061 0.928 . S
H7075 C7060 0.929 . S
H7076 C7058 0.932 . S
C7077 C7078 1.386 . S
C7077 C7079 1.397 . S
C7077 H7101 0.931 . S
C7078 C7077 1.386 . S
C7078 C7082 1.397 . S
C7079 C7077 1.397 . S
C7079 C7080 1.384 . S
C7079 H7102 0.930 . S
C7080 C7079 1.384 . S
C7080 C7081 1.377 . S
C7080 C7083 1.481 . S
C7081 C7080 1.377 . S
C7081 C7082 1.389 . S
C7081 H7103 0.929 . S
C7082 C7078 1.397 . S
C7082 C7081 1.389 . S
C7082 H7104 0.931 . S
C7083 C7080 1.481 . S
C7083 C7084 1.387 . S
C7083 C7088 1.390 . S
C7084 C7083 1.387 . S
C7084 C7085 1.401 . S
C7084 H7105 0.930 . S
C7085 C7084 1.401 . S
C7085 C7086 1.376 . S
C7085 C7094 1.511 . S
C7086 C7085 1.376 . S
C7086 C7087 1.392 . S
C7086 H7107 0.931 . S
C7087 C7086 1.392 . S
C7087 C7088 1.361 . S
C7087 C7089 1.500 . S
C7088 C7083 1.390 . S
C7088 C7087 1.361 . S
C7088 H7106 0.931 . S
C7089 C7087 1.500 . S
C7089 C7090 1.371 . S
C7089 C7091 1.365 . S
C7090 C7089 1.371 . S
C7090 C7100 1.386 . S
C7090 H7108 0.931 . S
C7091 C7089 1.365 . S
C7091 C7092 1.409 . S
C7091 H7109 0.929 . S
C7092 C7091 1.409 . S
C7092 C7093 1.380 . S
C7092 H7110 0.930 . S
C7093 C7092 1.380 . S
C7093 C7100 1.357 . S
C7094 C7085 1.511 . S
C7094 C7095 1.341 . S
C7094 C7096 1.371 . S
C7095 C7094 1.341 . S
C7095 C7099 1.394 . S
C7095 H7111 0.930 . S
C7096 C7094 1.371 . S
C7096 C7097 1.392 . S
C7096 H7112 0.931 . S
C7097 C7096 1.392 . S
C7097 C7098 1.331 . S
C7097 H7115 0.932 . S
C7098 C7097 1.331 . S
C7098 C7099 1.336 . S
C7099 C7095 1.394 . S
C7099 C7098 1.336 . S
C7099 H7114 0.929 . S
C7100 C7090 1.386 . S
C7100 C7093 1.357 . S
C7100 H7113 0.928 . S
H7101 C7077 0.931 . S
H7102 C7079 0.930 . S
H7103 C7081 0.929 . S
H7104 C7082 0.931 . S
H7105 C7084 0.930 . S
H7106 C7088 0.931 . S
H7107 C7086 0.931 . S
H7108 C7090 0.931 . S
H7109 C7091 0.929 . S
H7110 C7092 0.930 . S
H7111 C7095 0.930 . S
H7112 C7096 0.931 . S
H7113 C7100 0.928 . S
H7114 C7099 0.929 . S
H7115 C7097 0.932 . S
C7116 C7117 1.386 . S
C7116 C7118 1.397 . S
C7116 H7140 0.931 . S
C7117 C7116 1.386 . S
C7117 C7121 1.397 . S
C7118 C7116 1.397 . S
C7118 C7119 1.384 . S
C7118 H7141 0.930 . S
C7119 C7118 1.384 . S
C7119 C7120 1.377 . S
C7119 C7122 1.481 . S
C7120 C7119 1.377 . S
C7120 C7121 1.389 . S
C7120 H7142 0.929 . S
C7121 C7117 1.397 . S
C7121 C7120 1.389 . S
C7121 H7143 0.931 . S
C7122 C7119 1.481 . S
C7122 C7123 1.387 . S
C7122 C7127 1.390 . S
C7123 C7122 1.387 . S
C7123 C7124 1.401 . S
C7123 H7144 0.930 . S
C7124 C7123 1.401 . S
C7124 C7125 1.376 . S
C7124 C7133 1.511 . S
C7125 C7124 1.376 . S
C7125 C7126 1.392 . S
C7125 H7146 0.931 . S
C7126 C7125 1.392 . S
C7126 C7127 1.361 . S
C7126 C7128 1.500 . S
C7127 C7122 1.390 . S
C7127 C7126 1.361 . S
C7127 H7145 0.931 . S
C7128 C7126 1.500 . S
C7128 C7129 1.371 . S
C7128 C7130 1.365 . S
C7129 C7128 1.371 . S
C7129 C7139 1.386 . S
C7129 H7147 0.931 . S
C7130 C7128 1.365 . S
C7130 C7131 1.409 . S
C7130 H7148 0.929 . S
C7131 C7130 1.409 . S
C7131 C7132 1.380 . S
C7131 H7149 0.930 . S
C7132 C7131 1.380 . S
C7132 C7139 1.357 . S
C7133 C7124 1.511 . S
C7133 C7134 1.341 . S
C7133 C7135 1.371 . S
C7134 C7133 1.341 . S
C7134 C7138 1.394 . S
C7134 H7150 0.930 . S
C7135 C7133 1.371 . S
C7135 C7136 1.392 . S
C7135 H7151 0.931 . S
C7136 C7135 1.392 . S
C7136 C7137 1.331 . S
C7136 H7154 0.932 . S
C7137 C7136 1.331 . S
C7137 C7138 1.336 . S
C7138 C7134 1.394 . S
C7138 C7137 1.336 . S
C7138 H7153 0.929 . S
C7139 C7129 1.386 . S
C7139 C7132 1.357 . S
C7139 H7152 0.928 . S
H7140 C7116 0.931 . S
H7141 C7118 0.930 . S
H7142 C7120 0.929 . S
H7143 C7121 0.931 . S
H7144 C7123 0.930 . S
H7145 C7127 0.931 . S
H7146 C7125 0.931 . S
H7147 C7129 0.931 . S
H7148 C7130 0.929 . S
H7149 C7131 0.930 . S
H7150 C7134 0.930 . S
H7151 C7135 0.931 . S
H7152 C7139 0.928 . S
H7153 C7138 0.929 . S
H7154 C7136 0.932 . S
C7155 C7156 1.386 . S
C7155 C7157 1.397 . S
C7155 H7179 0.931 . S
C7156 C7155 1.386 . S
C7156 C7160 1.397 . S
C7157 C7155 1.397 . S
C7157 C7158 1.384 . S
C7157 H7180 0.930 . S
C7158 C7157 1.384 . S
C7158 C7159 1.377 . S
C7158 C7161 1.481 . S
C7159 C7158 1.377 . S
C7159 C7160 1.389 . S
C7159 H7181 0.929 . S
C7160 C7156 1.397 . S
C7160 C7159 1.389 . S
C7160 H7182 0.931 . S
C7161 C7158 1.481 . S
C7161 C7162 1.387 . S
C7161 C7166 1.390 . S
C7162 C7161 1.387 . S
C7162 C7163 1.401 . S
C7162 H7183 0.930 . S
C7163 C7162 1.401 . S
C7163 C7164 1.376 . S
C7163 C7172 1.511 . S
C7164 C7163 1.376 . S
C7164 C7165 1.392 . S
C7164 H7185 0.931 . S
C7165 C7164 1.392 . S
C7165 C7166 1.361 . S
C7165 C7167 1.500 . S
C7166 C7161 1.390 . S
C7166 C7165 1.361 . S
C7166 H7184 0.931 . S
C7167 C7165 1.500 . S
C7167 C7168 1.371 . S
C7167 C7169 1.365 . S
C7168 C7167 1.371 . S
C7168 C7178 1.386 . S
C7168 H7186 0.931 . S
C7169 C7167 1.365 . S
C7169 C7170 1.409 . S
C7169 H7187 0.929 . S
C7170 C7169 1.409 . S
C7170 C7171 1.380 . S
C7170 H7188 0.930 . S
C7171 C7170 1.380 . S
C7171 C7178 1.357 . S
C7172 C7163 1.511 . S
C7172 C7173 1.341 . S
C7172 C7174 1.371 . S
C7173 C7172 1.341 . S
C7173 C7177 1.394 . S
C7173 H7189 0.930 . S
C7174 C7172 1.371 . S
C7174 C7175 1.392 . S
C7174 H7190 0.931 . S
C7175 C7174 1.392 . S
C7175 C7176 1.331 . S
C7175 H7193 0.932 . S
C7176 C7175 1.331 . S
C7176 C7177 1.336 . S
C7177 C7173 1.394 . S
C7177 C7176 1.336 . S
C7177 H7192 0.929 . S
C7178 C7168 1.386 . S
C7178 C7171 1.357 . S
C7178 H7191 0.928 . S
H7179 C7155 0.931 . S
H7180 C7157 0.930 . S
H7181 C7159 0.929 . S
H7182 C7160 0.931 . S
H7183 C7162 0.930 . S
H7184 C7166 0.931 . S
H7185 C7164 0.931 . S
H7186 C7168 0.931 . S
H7187 C7169 0.929 . S
H7188 C7170 0.930 . S
H7189 C7173 0.930 . S
H7190 C7174 0.931 . S
H7191 C7178 0.928 . S
H7192 C7177 0.929 . S
H7193 C7175 0.932 . S
C7194 C7195 1.386 . S
C7194 C7196 1.397 . S
C7194 H7218 0.931 . S
C7195 C7194 1.386 . S
C7195 C7199 1.397 . S
C7196 C7194 1.397 . S
C7196 C7197 1.384 . S
C7196 H7219 0.930 . S
C7197 C7196 1.384 . S
C7197 C7198 1.377 . S
C7197 C7200 1.481 . S
C7198 C7197 1.377 . S
C7198 C7199 1.389 . S
C7198 H7220 0.929 . S
C7199 C7195 1.397 . S
C7199 C7198 1.389 . S
C7199 H7221 0.931 . S
C7200 C7197 1.481 . S
C7200 C7201 1.387 . S
C7200 C7205 1.390 . S
C7201 C7200 1.387 . S
C7201 C7202 1.401 . S
C7201 H7222 0.930 . S
C7202 C7201 1.401 . S
C7202 C7203 1.376 . S
C7202 C7211 1.511 . S
C7203 C7202 1.376 . S
C7203 C7204 1.392 . S
C7203 H7224 0.931 . S
C7204 C7203 1.392 . S
C7204 C7205 1.361 . S
C7204 C7206 1.500 . S
C7205 C7200 1.390 . S
C7205 C7204 1.361 . S
C7205 H7223 0.931 . S
C7206 C7204 1.500 . S
C7206 C7207 1.371 . S
C7206 C7208 1.365 . S
C7207 C7206 1.371 . S
C7207 C7217 1.386 . S
C7207 H7225 0.931 . S
C7208 C7206 1.365 . S
C7208 C7209 1.409 . S
C7208 H7226 0.929 . S
C7209 C7208 1.409 . S
C7209 C7210 1.380 . S
C7209 H7227 0.930 . S
C7210 C7209 1.380 . S
C7210 C7217 1.357 . S
C7211 C7202 1.511 . S
C7211 C7212 1.341 . S
C7211 C7213 1.371 . S
C7212 C7211 1.341 . S
C7212 C7216 1.394 . S
C7212 H7228 0.930 . S
C7213 C7211 1.371 . S
C7213 C7214 1.392 . S
C7213 H7229 0.931 . S
C7214 C7213 1.392 . S
C7214 C7215 1.331 . S
C7214 H7232 0.932 . S
C7215 C7214 1.331 . S
C7215 C7216 1.336 . S
C7216 C7212 1.394 . S
C7216 C7215 1.336 . S
C7216 H7231 0.929 . S
C7217 C7207 1.386 . S
C7217 C7210 1.357 . S
C7217 H7230 0.928 . S
H7218 C7194 0.931 . S
H7219 C7196 0.930 . S
H7220 C7198 0.929 . S
H7221 C7199 0.931 . S
H7222 C7201 0.930 . S
H7223 C7205 0.931 . S
H7224 C7203 0.931 . S
H7225 C7207 0.931 . S
H7226 C7208 0.929 . S
H7227 C7209 0.930 . S
H7228 C7212 0.930 . S
H7229 C7213 0.931 . S
H7230 C7217 0.928 . S
H7231 C7216 0.929 . S
H7232 C7214 0.932 . S
C7233 C7234 1.386 . S
C7233 C7235 1.397 . S
C7233 H7257 0.931 . S
C7234 C7233 1.386 . S
C7234 C7238 1.397 . S
C7235 C7233 1.397 . S
C7235 C7236 1.384 . S
C7235 H7258 0.930 . S
C7236 C7235 1.384 . S
C7236 C7237 1.377 . S
C7236 C7239 1.481 . S
C7237 C7236 1.377 . S
C7237 C7238 1.389 . S
C7237 H7259 0.929 . S
C7238 C7234 1.397 . S
C7238 C7237 1.389 . S
C7238 H7260 0.931 . S
C7239 C7236 1.481 . S
C7239 C7240 1.387 . S
C7239 C7244 1.390 . S
C7240 C7239 1.387 . S
C7240 C7241 1.401 . S
C7240 H7261 0.930 . S
C7241 C7240 1.401 . S
C7241 C7242 1.376 . S
C7241 C7250 1.511 . S
C7242 C7241 1.376 . S
C7242 C7243 1.392 . S
C7242 H7263 0.931 . S
C7243 C7242 1.392 . S
C7243 C7244 1.361 . S
C7243 C7245 1.500 . S
C7244 C7239 1.390 . S
C7244 C7243 1.361 . S
C7244 H7262 0.931 . S
C7245 C7243 1.500 . S
C7245 C7246 1.371 . S
C7245 C7247 1.365 . S
C7246 C7245 1.371 . S
C7246 C7256 1.386 . S
C7246 H7264 0.931 . S
C7247 C7245 1.365 . S
C7247 C7248 1.409 . S
C7247 H7265 0.929 . S
C7248 C7247 1.409 . S
C7248 C7249 1.380 . S
C7248 H7266 0.930 . S
C7249 C7248 1.380 . S
C7249 C7256 1.357 . S
C7250 C7241 1.511 . S
C7250 C7251 1.341 . S
C7250 C7252 1.371 . S
C7251 C7250 1.341 . S
C7251 C7255 1.394 . S
C7251 H7267 0.930 . S
C7252 C7250 1.371 . S
C7252 C7253 1.392 . S
C7252 H7268 0.931 . S
C7253 C7252 1.392 . S
C7253 C7254 1.331 . S
C7253 H7271 0.932 . S
C7254 C7253 1.331 . S
C7254 C7255 1.336 . S
C7255 C7251 1.394 . S
C7255 C7254 1.336 . S
C7255 H7270 0.929 . S
C7256 C7246 1.386 . S
C7256 C7249 1.357 . S
C7256 H7269 0.928 . S
H7257 C7233 0.931 . S
H7258 C7235 0.930 . S
H7259 C7237 0.929 . S
H7260 C7238 0.931 . S
H7261 C7240 0.930 . S
H7262 C7244 0.931 . S
H7263 C7242 0.931 . S
H7264 C7246 0.931 . S
H7265 C7247 0.929 . S
H7266 C7248 0.930 . S
H7267 C7251 0.930 . S
H7268 C7252 0.931 . S
H7269 C7256 0.928 . S
H7270 C7255 0.929 . S
H7271 C7253 0.932 . S
C7272 C7273 1.386 . S
C7272 C7274 1.397 . S
C7272 H7296 0.931 . S
C7273 C7272 1.386 . S
C7273 C7277 1.397 . S
C7274 C7272 1.397 . S
C7274 C7275 1.384 . S
C7274 H7297 0.930 . S
C7275 C7274 1.384 . S
C7275 C7276 1.377 . S
C7275 C7278 1.481 . S
C7276 C7275 1.377 . S
C7276 C7277 1.389 . S
C7276 H7298 0.929 . S
C7277 C7273 1.397 . S
C7277 C7276 1.389 . S
C7277 H7299 0.931 . S
C7278 C7275 1.481 . S
C7278 C7279 1.387 . S
C7278 C7283 1.390 . S
C7279 C7278 1.387 . S
C7279 C7280 1.401 . S
C7279 H7300 0.930 . S
C7280 C7279 1.401 . S
C7280 C7281 1.376 . S
C7280 C7289 1.511 . S
C7281 C7280 1.376 . S
C7281 C7282 1.392 . S
C7281 H7302 0.931 . S
C7282 C7281 1.392 . S
C7282 C7283 1.361 . S
C7282 C7284 1.500 . S
C7283 C7278 1.390 . S
C7283 C7282 1.361 . S
C7283 H7301 0.931 . S
C7284 C7282 1.500 . S
C7284 C7285 1.371 . S
C7284 C7286 1.365 . S
C7285 C7284 1.371 . S
C7285 C7295 1.386 . S
C7285 H7303 0.931 . S
C7286 C7284 1.365 . S
C7286 C7287 1.409 . S
C7286 H7304 0.929 . S
C7287 C7286 1.409 . S
C7287 C7288 1.380 . S
C7287 H7305 0.930 . S
C7288 C7287 1.380 . S
C7288 C7295 1.357 . S
C7289 C7280 1.511 . S
C7289 C7290 1.341 . S
C7289 C7291 1.371 . S
C7290 C7289 1.341 . S
C7290 C7294 1.394 . S
C7290 H7306 0.930 . S
C7291 C7289 1.371 . S
C7291 C7292 1.392 . S
C7291 H7307 0.931 . S
C7292 C7291 1.392 . S
C7292 C7293 1.331 . S
C7292 H7310 0.932 . S
C7293 C7292 1.331 . S
C7293 C7294 1.336 . S
C7294 C7290 1.394 . S
C7294 C7293 1.336 . S
C7294 H7309 0.929 . S
C7295 C7285 1.386 . S
C7295 C7288 1.357 . S
C7295 H7308 0.928 . S
H7296 C7272 0.931 . S
H7297 C7274 0.930 . S
H7298 C7276 0.929 . S
H7299 C7277 0.931 . S
H7300 C7279 0.930 . S
H7301 C7283 0.931 . S
H7302 C7281 0.931 . S
H7303 C7285 0.931 . S
H7304 C7286 0.929 . S
H7305 C7287 0.930 . S
H7306 C7290 0.930 . S
H7307 C7291 0.931 . S
H7308 C7295 0.928 . S
H7309 C7294 0.929 . S
H7310 C7292 0.932 . S
C7311 C7312 1.386 . S
C7311 C7313 1.397 . S
C7311 H7335 0.931 . S
C7312 C7311 1.386 . S
C7312 C7316 1.397 . S
C7313 C7311 1.397 . S
C7313 C7314 1.384 . S
C7313 H7336 0.930 . S
C7314 C7313 1.384 . S
C7314 C7315 1.377 . S
C7314 C7317 1.481 . S
C7315 C7314 1.377 . S
C7315 C7316 1.389 . S
C7315 H7337 0.929 . S
C7316 C7312 1.397 . S
C7316 C7315 1.389 . S
C7316 H7338 0.931 . S
C7317 C7314 1.481 . S
C7317 C7318 1.387 . S
C7317 C7322 1.390 . S
C7318 C7317 1.387 . S
C7318 C7319 1.401 . S
C7318 H7339 0.930 . S
C7319 C7318 1.401 . S
C7319 C7320 1.376 . S
C7319 C7328 1.511 . S
C7320 C7319 1.376 . S
C7320 C7321 1.392 . S
C7320 H7341 0.931 . S
C7321 C7320 1.392 . S
C7321 C7322 1.361 . S
C7321 C7323 1.500 . S
C7322 C7317 1.390 . S
C7322 C7321 1.361 . S
C7322 H7340 0.931 . S
C7323 C7321 1.500 . S
C7323 C7324 1.371 . S
C7323 C7325 1.365 . S
C7324 C7323 1.371 . S
C7324 C7334 1.386 . S
C7324 H7342 0.931 . S
C7325 C7323 1.365 . S
C7325 C7326 1.409 . S
C7325 H7343 0.929 . S
C7326 C7325 1.409 . S
C7326 C7327 1.380 . S
C7326 H7344 0.930 . S
C7327 C7326 1.380 . S
C7327 C7334 1.357 . S
C7328 C7319 1.511 . S
C7328 C7329 1.341 . S
C7328 C7330 1.371 . S
C7329 C7328 1.341 . S
C7329 C7333 1.394 . S
C7329 H7345 0.930 . S
C7330 C7328 1.371 . S
C7330 C7331 1.392 . S
C7330 H7346 0.931 . S
C7331 C7330 1.392 . S
C7331 C7332 1.331 . S
C7331 H7349 0.932 . S
C7332 C7331 1.331 . S
C7332 C7333 1.336 . S
C7333 C7329 1.394 . S
C7333 C7332 1.336 . S
C7333 H7348 0.929 . S
C7334 C7324 1.386 . S
C7334 C7327 1.357 . S
C7334 H7347 0.928 . S
H7335 C7311 0.931 . S
H7336 C7313 0.930 . S
H7337 C7315 0.929 . S
H7338 C7316 0.931 . S
H7339 C7318 0.930 . S
H7340 C7322 0.931 . S
H7341 C7320 0.931 . S
H7342 C7324 0.931 . S
H7343 C7325 0.929 . S
H7344 C7326 0.930 . S
H7345 C7329 0.930 . S
H7346 C7330 0.931 . S
H7347 C7334 0.928 . S
H7348 C7333 0.929 . S
H7349 C7331 0.932 . S
C7350 C7351 1.386 . S
C7350 C7352 1.397 . S
C7350 H7374 0.931 . S
C7351 C7350 1.386 . S
C7351 C7355 1.397 . S
C7352 C7350 1.397 . S
C7352 C7353 1.384 . S
C7352 H7375 0.930 . S
C7353 C7352 1.384 . S
C7353 C7354 1.377 . S
C7353 C7356 1.481 . S
C7354 C7353 1.377 . S
C7354 C7355 1.389 . S
C7354 H7376 0.929 . S
C7355 C7351 1.397 . S
C7355 C7354 1.389 . S
C7355 H7377 0.931 . S
C7356 C7353 1.481 . S
C7356 C7357 1.387 . S
C7356 C7361 1.390 . S
C7357 C7356 1.387 . S
C7357 C7358 1.401 . S
C7357 H7378 0.930 . S
C7358 C7357 1.401 . S
C7358 C7359 1.376 . S
C7358 C7367 1.511 . S
C7359 C7358 1.376 . S
C7359 C7360 1.392 . S
C7359 H7380 0.931 . S
C7360 C7359 1.392 . S
C7360 C7361 1.361 . S
C7360 C7362 1.500 . S
C7361 C7356 1.390 . S
C7361 C7360 1.361 . S
C7361 H7379 0.931 . S
C7362 C7360 1.500 . S
C7362 C7363 1.371 . S
C7362 C7364 1.365 . S
C7363 C7362 1.371 . S
C7363 C7373 1.386 . S
C7363 H7381 0.931 . S
C7364 C7362 1.365 . S
C7364 C7365 1.409 . S
C7364 H7382 0.929 . S
C7365 C7364 1.409 . S
C7365 C7366 1.380 . S
C7365 H7383 0.930 . S
C7366 C7365 1.380 . S
C7366 C7373 1.357 . S
C7367 C7358 1.511 . S
C7367 C7368 1.341 . S
C7367 C7369 1.371 . S
C7368 C7367 1.341 . S
C7368 C7372 1.394 . S
C7368 H7384 0.930 . S
C7369 C7367 1.371 . S
C7369 C7370 1.392 . S
C7369 H7385 0.931 . S
C7370 C7369 1.392 . S
C7370 C7371 1.331 . S
C7370 H7388 0.932 . S
C7371 C7370 1.331 . S
C7371 C7372 1.336 . S
C7372 C7368 1.394 . S
C7372 C7371 1.336 . S
C7372 H7387 0.929 . S
C7373 C7363 1.386 . S
C7373 C7366 1.357 . S
C7373 H7386 0.928 . S
H7374 C7350 0.931 . S
H7375 C7352 0.930 . S
H7376 C7354 0.929 . S
H7377 C7355 0.931 . S
H7378 C7357 0.930 . S
H7379 C7361 0.931 . S
H7380 C7359 0.931 . S
H7381 C7363 0.931 . S
H7382 C7364 0.929 . S
H7383 C7365 0.930 . S
H7384 C7368 0.930 . S
H7385 C7369 0.931 . S
H7386 C7373 0.928 . S
H7387 C7372 0.929 . S
H7388 C7370 0.932 . S
C7389 C7390 1.386 . S
C7389 C7391 1.397 . S
C7389 H7413 0.931 . S
C7390 C7389 1.386 . S
C7390 C7394 1.397 . S
C7391 C7389 1.397 . S
C7391 C7392 1.384 . S
C7391 H7414 0.930 . S
C7392 C7391 1.384 . S
C7392 C7393 1.377 . S
C7392 C7395 1.481 . S
C7393 C7392 1.377 . S
C7393 C7394 1.389 . S
C7393 H7415 0.929 . S
C7394 C7390 1.397 . S
C7394 C7393 1.389 . S
C7394 H7416 0.931 . S
C7395 C7392 1.481 . S
C7395 C7396 1.387 . S
C7395 C7400 1.390 . S
C7396 C7395 1.387 . S
C7396 C7397 1.401 . S
C7396 H7417 0.930 . S
C7397 C7396 1.401 . S
C7397 C7398 1.376 . S
C7397 C7406 1.511 . S
C7398 C7397 1.376 . S
C7398 C7399 1.392 . S
C7398 H7419 0.931 . S
C7399 C7398 1.392 . S
C7399 C7400 1.361 . S
C7399 C7401 1.500 . S
C7400 C7395 1.390 . S
C7400 C7399 1.361 . S
C7400 H7418 0.931 . S
C7401 C7399 1.500 . S
C7401 C7402 1.371 . S
C7401 C7403 1.365 . S
C7402 C7401 1.371 . S
C7402 C7412 1.386 . S
C7402 H7420 0.931 . S
C7403 C7401 1.365 . S
C7403 C7404 1.409 . S
C7403 H7421 0.929 . S
C7404 C7403 1.409 . S
C7404 C7405 1.380 . S
C7404 H7422 0.930 . S
C7405 C7404 1.380 . S
C7405 C7412 1.357 . S
C7406 C7397 1.511 . S
C7406 C7407 1.341 . S
C7406 C7408 1.371 . S
C7407 C7406 1.341 . S
C7407 C7411 1.394 . S
C7407 H7423 0.930 . S
C7408 C7406 1.371 . S
C7408 C7409 1.392 . S
C7408 H7424 0.931 . S
C7409 C7408 1.392 . S
C7409 C7410 1.331 . S
C7409 H7427 0.932 . S
C7410 C7409 1.331 . S
C7410 C7411 1.336 . S
C7411 C7407 1.394 . S
C7411 C7410 1.336 . S
C7411 H7426 0.929 . S
C7412 C7402 1.386 . S
C7412 C7405 1.357 . S
C7412 H7425 0.928 . S
H7413 C7389 0.931 . S
H7414 C7391 0.930 . S
H7415 C7393 0.929 . S
H7416 C7394 0.931 . S
H7417 C7396 0.930 . S
H7418 C7400 0.931 . S
H7419 C7398 0.931 . S
H7420 C7402 0.931 . S
H7421 C7403 0.929 . S
H7422 C7404 0.930 . S
H7423 C7407 0.930 . S
H7424 C7408 0.931 . S
H7425 C7412 0.928 . S
H7426 C7411 0.929 . S
H7427 C7409 0.932 . S
C7428 C7429 1.386 . S
C7428 C7430 1.397 . S
C7428 H7452 0.931 . S
C7429 C7428 1.386 . S
C7429 C7433 1.397 . S
C7430 C7428 1.397 . S
C7430 C7431 1.384 . S
C7430 H7453 0.930 . S
C7431 C7430 1.384 . S
C7431 C7432 1.377 . S
C7431 C7434 1.481 . S
C7432 C7431 1.377 . S
C7432 C7433 1.389 . S
C7432 H7454 0.929 . S
C7433 C7429 1.397 . S
C7433 C7432 1.389 . S
C7433 H7455 0.931 . S
C7434 C7431 1.481 . S
C7434 C7435 1.387 . S
C7434 C7439 1.390 . S
C7435 C7434 1.387 . S
C7435 C7436 1.401 . S
C7435 H7456 0.930 . S
C7436 C7435 1.401 . S
C7436 C7437 1.376 . S
C7436 C7445 1.511 . S
C7437 C7436 1.376 . S
C7437 C7438 1.392 . S
C7437 H7458 0.931 . S
C7438 C7437 1.392 . S
C7438 C7439 1.361 . S
C7438 C7440 1.500 . S
C7439 C7434 1.390 . S
C7439 C7438 1.361 . S
C7439 H7457 0.931 . S
C7440 C7438 1.500 . S
C7440 C7441 1.371 . S
C7440 C7442 1.365 . S
C7441 C7440 1.371 . S
C7441 C7451 1.386 . S
C7441 H7459 0.931 . S
C7442 C7440 1.365 . S
C7442 C7443 1.409 . S
C7442 H7460 0.929 . S
C7443 C7442 1.409 . S
C7443 C7444 1.380 . S
C7443 H7461 0.930 . S
C7444 C7443 1.380 . S
C7444 C7451 1.357 . S
C7445 C7436 1.511 . S
C7445 C7446 1.341 . S
C7445 C7447 1.371 . S
C7446 C7445 1.341 . S
C7446 C7450 1.394 . S
C7446 H7462 0.930 . S
C7447 C7445 1.371 . S
C7447 C7448 1.392 . S
C7447 H7463 0.931 . S
C7448 C7447 1.392 . S
C7448 C7449 1.331 . S
C7448 H7466 0.932 . S
C7449 C7448 1.331 . S
C7449 C7450 1.336 . S
C7450 C7446 1.394 . S
C7450 C7449 1.336 . S
C7450 H7465 0.929 . S
C7451 C7441 1.386 . S
C7451 C7444 1.357 . S
C7451 H7464 0.928 . S
H7452 C7428 0.931 . S
H7453 C7430 0.930 . S
H7454 C7432 0.929 . S
H7455 C7433 0.931 . S
H7456 C7435 0.930 . S
H7457 C7439 0.931 . S
H7458 C7437 0.931 . S
H7459 C7441 0.931 . S
H7460 C7442 0.929 . S
H7461 C7443 0.930 . S
H7462 C7446 0.930 . S
H7463 C7447 0.931 . S
H7464 C7451 0.928 . S
H7465 C7450 0.929 . S
H7466 C7448 0.932 . S
C7467 C7468 1.386 . S
C7467 C7469 1.397 . S
C7467 H7491 0.931 . S
C7468 C7467 1.386 . S
C7468 C7472 1.397 . S
C7469 C7467 1.397 . S
C7469 C7470 1.384 . S
C7469 H7492 0.930 . S
C7470 C7469 1.384 . S
C7470 C7471 1.377 . S
C7470 C7473 1.481 . S
C7471 C7470 1.377 . S
C7471 C7472 1.389 . S
C7471 H7493 0.929 . S
C7472 C7468 1.397 . S
C7472 C7471 1.389 . S
C7472 H7494 0.931 . S
C7473 C7470 1.481 . S
C7473 C7474 1.387 . S
C7473 C7478 1.390 . S
C7474 C7473 1.387 . S
C7474 C7475 1.401 . S
C7474 H7495 0.930 . S
C7475 C7474 1.401 . S
C7475 C7476 1.376 . S
C7475 C7484 1.511 . S
C7476 C7475 1.376 . S
C7476 C7477 1.392 . S
C7476 H7497 0.931 . S
C7477 C7476 1.392 . S
C7477 C7478 1.361 . S
C7477 C7479 1.500 . S
C7478 C7473 1.390 . S
C7478 C7477 1.361 . S
C7478 H7496 0.931 . S
C7479 C7477 1.500 . S
C7479 C7480 1.371 . S
C7479 C7481 1.365 . S
C7480 C7479 1.371 . S
C7480 C7490 1.386 . S
C7480 H7498 0.931 . S
C7481 C7479 1.365 . S
C7481 C7482 1.409 . S
C7481 H7499 0.929 . S
C7482 C7481 1.409 . S
C7482 C7483 1.380 . S
C7482 H7500 0.930 . S
C7483 C7482 1.380 . S
C7483 C7490 1.357 . S
C7484 C7475 1.511 . S
C7484 C7485 1.341 . S
C7484 C7486 1.371 . S
C7485 C7484 1.341 . S
C7485 C7489 1.394 . S
C7485 H7501 0.930 . S
C7486 C7484 1.371 . S
C7486 C7487 1.392 . S
C7486 H7502 0.931 . S
C7487 C7486 1.392 . S
C7487 C7488 1.331 . S
C7487 H7505 0.932 . S
C7488 C7487 1.331 . S
C7488 C7489 1.336 . S
C7489 C7485 1.394 . S
C7489 C7488 1.336 . S
C7489 H7504 0.929 . S
C7490 C7480 1.386 . S
C7490 C7483 1.357 . S
C7490 H7503 0.928 . S
H7491 C7467 0.931 . S
H7492 C7469 0.930 . S
H7493 C7471 0.929 . S
H7494 C7472 0.931 . S
H7495 C7474 0.930 . S
H7496 C7478 0.931 . S
H7497 C7476 0.931 . S
H7498 C7480 0.931 . S
H7499 C7481 0.929 . S
H7500 C7482 0.930 . S
H7501 C7485 0.930 . S
H7502 C7486 0.931 . S
H7503 C7490 0.928 . S
H7504 C7489 0.929 . S
H7505 C7487 0.932 . S
C7506 C7507 1.386 . S
C7506 C7508 1.397 . S
C7506 H7530 0.931 . S
C7507 C7506 1.386 . S
C7507 C7511 1.397 . S
C7508 C7506 1.397 . S
C7508 C7509 1.384 . S
C7508 H7531 0.930 . S
C7509 C7508 1.384 . S
C7509 C7510 1.377 . S
C7509 C7512 1.481 . S
C7510 C7509 1.377 . S
C7510 C7511 1.389 . S
C7510 H7532 0.929 . S
C7511 C7507 1.397 . S
C7511 C7510 1.389 . S
C7511 H7533 0.931 . S
C7512 C7509 1.481 . S
C7512 C7513 1.387 . S
C7512 C7517 1.390 . S
C7513 C7512 1.387 . S
C7513 C7514 1.401 . S
C7513 H7534 0.930 . S
C7514 C7513 1.401 . S
C7514 C7515 1.376 . S
C7514 C7523 1.511 . S
C7515 C7514 1.376 . S
C7515 C7516 1.392 . S
C7515 H7536 0.931 . S
C7516 C7515 1.392 . S
C7516 C7517 1.361 . S
C7516 C7518 1.500 . S
C7517 C7512 1.390 . S
C7517 C7516 1.361 . S
C7517 H7535 0.931 . S
C7518 C7516 1.500 . S
C7518 C7519 1.371 . S
C7518 C7520 1.365 . S
C7519 C7518 1.371 . S
C7519 C7529 1.386 . S
C7519 H7537 0.931 . S
C7520 C7518 1.365 . S
C7520 C7521 1.409 . S
C7520 H7538 0.929 . S
C7521 C7520 1.409 . S
C7521 C7522 1.380 . S
C7521 H7539 0.930 . S
C7522 C7521 1.380 . S
C7522 C7529 1.357 . S
C7523 C7514 1.511 . S
C7523 C7524 1.341 . S
C7523 C7525 1.371 . S
C7524 C7523 1.341 . S
C7524 C7528 1.394 . S
C7524 H7540 0.930 . S
C7525 C7523 1.371 . S
C7525 C7526 1.392 . S
C7525 H7541 0.931 . S
C7526 C7525 1.392 . S
C7526 C7527 1.331 . S
C7526 H7544 0.932 . S
C7527 C7526 1.331 . S
C7527 C7528 1.336 . S
C7528 C7524 1.394 . S
C7528 C7527 1.336 . S
C7528 H7543 0.929 . S
C7529 C7519 1.386 . S
C7529 C7522 1.357 . S
C7529 H7542 0.928 . S
H7530 C7506 0.931 . S
H7531 C7508 0.930 . S
H7532 C7510 0.929 . S
H7533 C7511 0.931 . S
H7534 C7513 0.930 . S
H7535 C7517 0.931 . S
H7536 C7515 0.931 . S
H7537 C7519 0.931 . S
H7538 C7520 0.929 . S
H7539 C7521 0.930 . S
H7540 C7524 0.930 . S
H7541 C7525 0.931 . S
H7542 C7529 0.928 . S
H7543 C7528 0.929 . S
H7544 C7526 0.932 . S
C7545 C7546 1.386 . S
C7545 C7547 1.397 . S
C7545 H7569 0.931 . S
C7546 C7545 1.386 . S
C7546 C7550 1.397 . S
C7547 C7545 1.397 . S
C7547 C7548 1.384 . S
C7547 H7570 0.930 . S
C7548 C7547 1.384 . S
C7548 C7549 1.377 . S
C7548 C7551 1.481 . S
C7549 C7548 1.377 . S
C7549 C7550 1.389 . S
C7549 H7571 0.929 . S
C7550 C7546 1.397 . S
C7550 C7549 1.389 . S
C7550 H7572 0.931 . S
C7551 C7548 1.481 . S
C7551 C7552 1.387 . S
C7551 C7556 1.390 . S
C7552 C7551 1.387 . S
C7552 C7553 1.401 . S
C7552 H7573 0.930 . S
C7553 C7552 1.401 . S
C7553 C7554 1.376 . S
C7553 C7562 1.511 . S
C7554 C7553 1.376 . S
C7554 C7555 1.392 . S
C7554 H7575 0.931 . S
C7555 C7554 1.392 . S
C7555 C7556 1.361 . S
C7555 C7557 1.500 . S
C7556 C7551 1.390 . S
C7556 C7555 1.361 . S
C7556 H7574 0.931 . S
C7557 C7555 1.500 . S
C7557 C7558 1.371 . S
C7557 C7559 1.365 . S
C7558 C7557 1.371 . S
C7558 C7568 1.386 . S
C7558 H7576 0.931 . S
C7559 C7557 1.365 . S
C7559 C7560 1.409 . S
C7559 H7577 0.929 . S
C7560 C7559 1.409 . S
C7560 C7561 1.380 . S
C7560 H7578 0.930 . S
C7561 C7560 1.380 . S
C7561 C7568 1.357 . S
C7562 C7553 1.511 . S
C7562 C7563 1.341 . S
C7562 C7564 1.371 . S
C7563 C7562 1.341 . S
C7563 C7567 1.394 . S
C7563 H7579 0.930 . S
C7564 C7562 1.371 . S
C7564 C7565 1.392 . S
C7564 H7580 0.931 . S
C7565 C7564 1.392 . S
C7565 C7566 1.331 . S
C7565 H7583 0.932 . S
C7566 C7565 1.331 . S
C7566 C7567 1.336 . S
C7567 C7563 1.394 . S
C7567 C7566 1.336 . S
C7567 H7582 0.929 . S
C7568 C7558 1.386 . S
C7568 C7561 1.357 . S
C7568 H7581 0.928 . S
H7569 C7545 0.931 . S
H7570 C7547 0.930 . S
H7571 C7549 0.929 . S
H7572 C7550 0.931 . S
H7573 C7552 0.930 . S
H7574 C7556 0.931 . S
H7575 C7554 0.931 . S
H7576 C7558 0.931 . S
H7577 C7559 0.929 . S
H7578 C7560 0.930 . S
H7579 C7563 0.930 . S
H7580 C7564 0.931 . S
H7581 C7568 0.928 . S
H7582 C7567 0.929 . S
H7583 C7565 0.932 . S
C7584 C7585 1.369 . S
C7584 C7586 1.419 . S
C7584 H7588 0.930 . S
C7585 C7584 1.369 . S
C7585 C7594 1.429 . S
C7586 C7584 1.419 . S
C7586 C7587 1.363 . S
C7586 H7589 0.929 . S
C7587 C7586 1.363 . S
C7587 C7593 1.432 . S
H7588 C7584 0.930 . S
H7589 C7586 0.929 . S
S7590 N7591 1.613 1_655 S
S7590 N7592 1.610 . S
N7591 S7590 1.613 1_455 S
N7591 C7594 1.350 . S
N7592 S7590 1.610 . S
N7592 C7593 1.326 1_655 S
C7593 C7587 1.432 . S
C7593 N7592 1.326 1_455 S
C7593 C7594 1.459 . S
C7594 C7585 1.429 . S
C7594 N7591 1.350 . S
C7594 C7593 1.459 . S
C7595 C7596 1.369 . S
C7595 C7597 1.419 . S
C7595 H7599 0.930 . S
C7596 C7595 1.369 . S
C7596 C7605 1.429 . S
C7597 C7595 1.419 . S
C7597 C7598 1.363 . S
C7597 H7600 0.929 . S
C7598 C7597 1.363 . S
C7598 C7604 1.428 . S
H7599 C7595 0.930 . S
H7600 C7597 0.929 . S
S7601 N7602 1.613 . S
S7601 N7603 1.610 . S
N7602 S7601 1.613 . S
N7602 C7605 1.350 . S
N7603 S7601 1.610 . S
N7603 C7604 1.351 . S
C7604 C7598 1.428 . S
C7604 N7603 1.351 . S
C7604 C7605 1.434 . S
C7605 C7596 1.429 . S
C7605 N7602 1.350 . S
C7605 C7604 1.434 . S
C7606 C7607 1.369 . S
C7606 C7608 1.419 . S
C7606 H7610 0.930 . S
C7607 C7606 1.369 . S
C7607 C7616 1.429 . S
C7608 C7606 1.419 . S
C7608 C7609 1.363 . S
C7608 H7611 0.929 . S
C7609 C7608 1.363 . S
C7609 C7615 1.428 . S
H7610 C7606 0.930 . S
H7611 C7608 0.929 . S
S7612 N7613 1.613 . S
S7612 N7614 1.610 . S
N7613 S7612 1.613 . S
N7613 C7616 1.350 . S
N7614 S7612 1.610 . S
N7614 C7615 1.351 . S
C7615 C7609 1.428 . S
C7615 N7614 1.351 . S
C7615 C7616 1.434 . S
C7616 C7607 1.429 . S
C7616 N7613 1.350 . S
C7616 C7615 1.434 . S
C7617 C7618 1.369 . S
C7617 C7619 1.419 . S
C7617 H7621 0.930 . S
C7618 C7617 1.369 . S
C7618 C7627 1.429 . S
C7619 C7617 1.419 . S
C7619 C7620 1.363 . S
C7619 H7622 0.929 . S
C7620 C7619 1.363 . S
C7620 C7626 1.428 . S
H7621 C7617 0.930 . S
H7622 C7619 0.929 . S
S7623 N7624 1.613 . S
S7623 N7625 1.610 . S
N7624 S7623 1.613 . S
N7624 C7627 1.350 . S
N7625 S7623 1.610 . S
N7625 C7626 1.351 . S
C7626 C7620 1.428 . S
C7626 N7625 1.351 . S
C7626 C7627 1.434 . S
C7627 C7618 1.429 . S
C7627 N7624 1.350 . S
C7627 C7626 1.434 . S
C7628 C7629 1.369 . S
C7628 C7630 1.419 1_455 S
C7628 H7632 0.930 . S
C7629 C7628 1.369 . S
C7629 C7638 1.429 . S
C7630 C7628 1.419 1_655 S
C7630 C7631 1.363 1_655 S
C7630 H7633 0.929 . S
C7631 C7630 1.363 1_455 S
C7631 C7637 1.428 . S
H7632 C7628 0.930 . S
H7633 C7630 0.929 . S
S7634 N7635 1.613 . S
S7634 N7636 1.610 . S
N7635 S7634 1.613 . S
N7635 C7638 1.350 . S
N7636 S7634 1.610 . S
N7636 C7637 1.351 . S
C7637 C7631 1.428 . S
C7637 N7636 1.351 . S
C7637 C7638 1.434 . S
C7638 C7629 1.429 . S
C7638 N7635 1.350 . S
C7638 C7637 1.434 . S
C7639 C7640 1.369 . S
C7639 C7641 1.419 . S
C7639 H7643 0.930 . S
C7640 C7639 1.369 . S
C7640 C7649 1.429 . S
C7641 C7639 1.419 . S
C7641 C7642 1.363 . S
C7641 H7644 0.929 . S
C7642 C7641 1.363 . S
C7642 C7648 1.428 . S
H7643 C7639 0.930 . S
H7644 C7641 0.929 . S
S7645 N7646 1.613 . S
S7645 N7647 1.610 . S
N7646 S7645 1.613 . S
N7646 C7649 1.350 . S
N7647 S7645 1.610 . S
N7647 C7648 1.351 . S
C7648 C7642 1.428 . S
C7648 N7647 1.351 . S
C7648 C7649 1.434 . S
C7649 C7640 1.429 . S
C7649 N7646 1.350 . S
C7649 C7648 1.434 . S
C7650 C7651 1.369 . S
C7650 C7652 1.419 . S
C7650 H7654 0.930 . S
C7651 C7650 1.369 . S
C7651 C7660 1.429 . S
C7652 C7650 1.419 . S
C7652 C7653 1.363 . S
C7652 H7655 0.929 . S
C7653 C7652 1.363 . S
C7653 C7659 1.428 . S
H7654 C7650 0.930 . S
H7655 C7652 0.929 . S
S7656 N7657 1.613 . S
S7656 N7658 1.610 . S
N7657 S7656 1.613 . S
N7657 C7660 1.350 . S
N7658 S7656 1.610 . S
N7658 C7659 1.351 . S
C7659 C7653 1.428 . S
C7659 N7658 1.351 . S
C7659 C7660 1.434 . S
C7660 C7651 1.429 . S
C7660 N7657 1.350 . S
C7660 C7659 1.434 . S
C7661 C7662 1.369 . S
C7661 C7663 1.419 . S
C7661 H7665 0.930 . S
C7662 C7661 1.369 . S
C7662 C7671 1.429 . S
C7663 C7661 1.419 . S
C7663 C7664 1.363 . S
C7663 H7666 0.929 . S
C7664 C7663 1.363 . S
C7664 C7670 1.428 . S
H7665 C7661 0.930 . S
H7666 C7663 0.929 . S
S7667 N7668 1.613 . S
S7667 N7669 1.610 . S
N7668 S7667 1.613 . S
N7668 C7671 1.350 . S
N7669 S7667 1.610 . S
N7669 C7670 1.351 . S
C7670 C7664 1.428 . S
C7670 N7669 1.351 . S
C7670 C7671 1.434 . S
C7671 C7662 1.429 . S
C7671 N7668 1.350 . S
C7671 C7670 1.434 . S
C7672 C7673 1.369 . S
C7672 C7674 1.419 . S
C7672 H7676 0.930 . S
C7673 C7672 1.369 . S
C7673 C7682 1.429 . S
C7674 C7672 1.419 . S
C7674 C7675 1.477 . S
C7674 H7677 0.929 . S
C7675 C7674 1.477 . S
C7675 C7681 1.424 . S
H7676 C7672 0.930 . S
H7677 C7674 0.929 . S
S7678 N7679 1.613 1_565 S
S7678 N7680 1.610 . S
N7679 S7678 1.613 1_545 S
N7679 C7682 1.350 . S
N7680 S7678 1.610 . S
N7680 C7681 1.330 1_565 S
C7681 C7675 1.424 . S
C7681 N7680 1.330 1_545 S
C7681 C7682 1.454 . S
C7682 C7673 1.429 . S
C7682 N7679 1.350 . S
C7682 C7681 1.454 . S
C7683 C7684 1.369 . S
C7683 C7685 1.419 . S
C7683 H7687 0.930 . S
C7684 C7683 1.369 . S
C7684 C7693 1.429 . S
C7685 C7683 1.419 . S
C7685 C7686 1.363 . S
C7685 H7688 0.929 . S
C7686 C7685 1.363 . S
C7686 C7692 1.428 . S
H7687 C7683 0.930 . S
H7688 C7685 0.929 . S
S7689 N7690 1.613 . S
S7689 N7691 1.610 . S
N7690 S7689 1.613 . S
N7690 C7693 1.350 . S
N7691 S7689 1.610 . S
N7691 C7692 1.351 . S
C7692 C7686 1.428 . S
C7692 N7691 1.351 . S
C7692 C7693 1.434 . S
C7693 C7684 1.429 . S
C7693 N7690 1.350 . S
C7693 C7692 1.434 . S
C7694 C7695 1.369 . S
C7694 C7696 1.419 . S
C7694 H7698 0.930 . S
C7695 C7694 1.369 . S
C7695 C7704 1.429 . S
C7696 C7694 1.419 . S
C7696 C7697 1.423 . S
C7696 H7699 0.929 . S
C7697 C7696 1.423 . S
C7697 C7703 1.473 . S
H7698 C7694 0.930 . S
H7699 C7696 0.929 . S
S7700 N7701 1.613 . S
S7700 N7702 1.610 . S
N7701 S7700 1.613 . S
N7701 C7704 1.350 . S
N7702 S7700 1.610 . S
N7702 C7703 1.351 . S
C7703 C7697 1.473 . S
C7703 N7702 1.351 . S
C7703 C7704 1.434 . S
C7704 C7695 1.429 . S
C7704 N7701 1.350 . S
C7704 C7703 1.434 . S
C7705 C7706 1.369 . S
C7705 C7707 1.419 . S
C7705 H7709 0.930 . S
C7706 C7705 1.369 . S
C7706 C7715 1.429 . S
C7707 C7705 1.419 . S
C7707 C7708 1.363 . S
C7707 H7710 0.929 . S
C7708 C7707 1.363 . S
C7708 C7714 1.428 . S
H7709 C7705 0.930 . S
H7710 C7707 0.929 . S
S7711 N7712 1.613 . S
S7711 N7713 1.610 . S
N7712 S7711 1.613 . S
N7712 C7715 1.350 . S
N7713 S7711 1.610 . S
N7713 C7714 1.351 . S
C7714 C7708 1.428 . S
C7714 N7713 1.351 . S
C7714 C7715 1.434 . S
C7715 C7706 1.429 . S
C7715 N7712 1.350 . S
C7715 C7714 1.434 . S
C7716 C7717 1.369 . S
C7716 C7718 1.419 . S
C7716 H7720 0.930 . S
C7717 C7716 1.369 . S
C7717 C7726 1.429 . S
C7718 C7716 1.419 . S
C7718 C7719 1.479 . S
C7718 H7721 0.929 . S
C7719 C7718 1.479 . S
C7719 C7725 1.412 1_565 S
H7720 C7716 0.930 . S
H7721 C7718 0.929 . S
S7722 N7723 1.613 1_545 S
S7722 N7724 1.610 . S
N7723 S7722 1.613 1_565 S
N7723 C7726 1.350 . S
N7724 S7722 1.610 . S
N7724 C7725 1.381 . S
C7725 C7719 1.412 1_545 S
C7725 N7724 1.381 . S
C7725 C7726 1.410 1_545 S
C7726 C7717 1.429 . S
C7726 N7723 1.350 . S
C7726 C7725 1.410 1_565 S
C7727 C7728 1.369 . S
C7727 C7729 1.419 . S
C7727 H7731 0.930 . S
C7728 C7727 1.369 . S
C7728 C7737 1.429 . S
C7729 C7727 1.419 . S
C7729 C7730 1.363 . S
C7729 H7732 0.929 . S
C7730 C7729 1.363 . S
C7730 C7736 1.428 . S
H7731 C7727 0.930 . S
H7732 C7729 0.929 . S
S7733 N7734 1.613 . S
S7733 N7735 1.610 . S
N7734 S7733 1.613 . S
N7734 C7737 1.350 . S
N7735 S7733 1.610 . S
N7735 C7736 1.351 . S
C7736 C7730 1.428 . S
C7736 N7735 1.351 . S
C7736 C7737 1.434 . S
C7737 C7728 1.429 . S
C7737 N7734 1.350 . S
C7737 C7736 1.434 . S
C7738 C7739 1.369 . S
C7738 C7740 1.419 . S
C7738 H7742 0.930 . S
C7739 C7738 1.369 . S
C7739 C7748 1.429 . S
C7740 C7738 1.419 . S
C7740 C7741 1.448 . S
C7740 H7743 0.929 . S
C7741 C7740 1.448 . S
C7741 C7747 1.444 . S
H7742 C7738 0.930 . S
H7743 C7740 0.929 . S
S7744 N7745 1.680 . S
S7744 N7746 1.581 1_545 S
N7745 S7744 1.680 . S
N7745 C7748 1.350 . S
N7746 S7744 1.581 1_565 S
N7746 C7747 1.351 1_565 S
C7747 C7741 1.444 . S
C7747 N7746 1.351 1_545 S
C7747 C7748 1.434 . S
C7748 C7739 1.429 . S
C7748 N7745 1.350 . S
C7748 C7747 1.434 . S
C7749 C7750 1.369 . S
C7749 C7751 1.419 . S
C7749 H7753 0.930 . S
C7750 C7749 1.369 . S
C7750 C7759 1.429 . S
C7751 C7749 1.419 . S
C7751 C7752 1.363 . S
C7751 H7754 0.929 . S
C7752 C7751 1.363 . S
C7752 C7758 1.428 . S
H7753 C7749 0.930 . S
H7754 C7751 0.929 . S
S7755 N7756 1.613 . S
S7755 N7757 1.610 . S
N7756 S7755 1.613 . S
N7756 C7759 1.350 . S
N7757 S7755 1.610 . S
N7757 C7758 1.351 . S
C7758 C7752 1.428 . S
C7758 N7757 1.351 . S
C7758 C7759 1.434 . S
C7759 C7750 1.429 . S
C7759 N7756 1.350 . S
C7759 C7758 1.434 . S
C7760 C7761 1.369 . S
C7760 C7762 1.419 . S
C7760 H7764 0.930 . S
C7761 C7760 1.369 . S
C7761 C7770 1.429 . S
C7762 C7760 1.419 . S
C7762 C7763 1.493 . S
C7762 H7765 0.929 . S
C7763 C7762 1.493 . S
C7763 C7769 1.393 1_554 S
H7764 C7760 0.930 . S
H7765 C7762 0.929 . S
S7766 N7767 1.613 1_556 S
S7766 N7768 1.610 . S
N7767 S7766 1.613 1_554 S
N7767 C7770 1.350 . S
N7768 S7766 1.610 . S
N7768 C7769 1.467 . S
C7769 C7763 1.393 1_556 S
C7769 N7768 1.467 . S
C7769 C7770 1.351 1_556 S
C7770 C7761 1.429 . S
C7770 N7767 1.350 . S
C7770 C7769 1.351 1_554 S
C7771 C7772 1.369 . S
C7771 C7773 1.419 . S
C7771 H7775 0.930 . S
C7772 C7771 1.369 . S
C7772 C7781 1.429 . S
C7773 C7771 1.419 . S
C7773 C7774 1.468 . S
C7773 H7776 0.929 . S
C7774 C7773 1.468 . S
C7774 C7780 1.428 . S
H7775 C7771 0.930 . S
H7776 C7773 0.929 . S
S7777 N7778 1.509 1_554 S
S7777 N7779 1.658 . S
N7778 S7777 1.509 1_556 S
N7778 C7781 1.350 . S
N7779 S7777 1.658 . S
N7779 C7780 1.273 1_554 S
C7780 C7774 1.428 . S
C7780 N7779 1.273 1_556 S
C7780 C7781 1.532 . S
C7781 C7772 1.429 . S
C7781 N7778 1.350 . S
C7781 C7780 1.532 . S
C7782 C7783 1.369 . S
C7782 C7784 1.419 . S
C7782 H7786 0.930 . S
C7783 C7782 1.369 . S
C7783 C7792 1.429 . S
C7784 C7782 1.419 . S
C7784 C7785 1.363 . S
C7784 H7787 0.929 . S
C7785 C7784 1.363 . S
C7785 C7791 1.428 . S
H7786 C7782 0.930 . S
H7787 C7784 0.929 . S
S7788 N7789 1.613 . S
S7788 N7790 1.610 . S
N7789 S7788 1.613 . S
N7789 C7792 1.350 . S
N7790 S7788 1.610 . S
N7790 C7791 1.351 . S
C7791 C7785 1.428 . S
C7791 N7790 1.351 . S
C7791 C7792 1.434 . S
C7792 C7783 1.429 . S
C7792 N7789 1.350 . S
C7792 C7791 1.434 . S
C7793 C7794 1.369 . S
C7793 C7795 1.419 . S
C7793 H7797 0.930 . S
C7794 C7793 1.369 . S
C7794 C7803 1.429 . S
C7795 C7793 1.419 . S
C7795 C7796 1.363 . S
C7795 H7798 0.929 . S
C7796 C7795 1.363 . S
C7796 C7802 1.428 . S
H7797 C7793 0.930 . S
H7798 C7795 0.929 . S
S7799 N7800 1.613 . S
S7799 N7801 1.610 . S
N7800 S7799 1.613 . S
N7800 C7803 1.350 . S
N7801 S7799 1.610 . S
N7801 C7802 1.351 . S
C7802 C7796 1.428 . S
C7802 N7801 1.351 . S
C7802 C7803 1.434 . S
C7803 C7794 1.429 . S
C7803 N7800 1.350 . S
C7803 C7802 1.434 . S
C7804 C7805 1.369 . S
C7804 C7806 1.419 . S
C7804 H7808 0.930 . S
C7805 C7804 1.369 . S
C7805 C7814 1.429 . S
C7806 C7804 1.419 . S
C7806 C7807 1.363 . S
C7806 H7809 0.929 . S
C7807 C7806 1.363 . S
C7807 C7813 1.428 . S
H7808 C7804 0.930 . S
H7809 C7806 0.929 . S
S7810 N7811 1.613 . S
S7810 N7812 1.610 . S
N7811 S7810 1.613 . S
N7811 C7814 1.350 . S
N7812 S7810 1.610 . S
N7812 C7813 1.351 . S
C7813 C7807 1.428 . S
C7813 N7812 1.351 . S
C7813 C7814 1.434 . S
C7814 C7805 1.429 . S
C7814 N7811 1.350 . S
C7814 C7813 1.434 . S
C7815 C7816 1.369 . S
C7815 C7817 1.419 . S
C7815 H7819 0.930 . S
C7816 C7815 1.369 . S
C7816 C7825 1.429 . S
C7817 C7815 1.419 . S
C7817 C7818 1.363 . S
C7817 H7820 0.929 . S
C7818 C7817 1.363 . S
C7818 C7824 1.428 . S
H7819 C7815 0.930 . S
H7820 C7817 0.929 . S
S7821 N7822 1.613 . S
S7821 N7823 1.610 . S
N7822 S7821 1.613 . S
N7822 C7825 1.350 . S
N7823 S7821 1.610 . S
N7823 C7824 1.351 . S
C7824 C7818 1.428 . S
C7824 N7823 1.351 . S
C7824 C7825 1.434 . S
C7825 C7816 1.429 . S
C7825 N7822 1.350 . S
C7825 C7824 1.434 . S
C7826 C7827 1.369 . S
C7826 C7828 1.419 . S
C7826 H7830 0.930 . S
C7827 C7826 1.369 . S
C7827 C7836 1.429 . S
C7828 C7826 1.419 . S
C7828 C7829 1.363 . S
C7828 H7831 0.929 . S
C7829 C7828 1.363 . S
C7829 C7835 1.428 . S
H7830 C7826 0.930 . S
H7831 C7828 0.929 . S
S7832 N7833 1.613 . S
S7832 N7834 1.610 . S
N7833 S7832 1.613 . S
N7833 C7836 1.350 . S
N7834 S7832 1.610 . S
N7834 C7835 1.351 . S
C7835 C7829 1.428 . S
C7835 N7834 1.351 . S
C7835 C7836 1.434 . S
C7836 C7827 1.429 . S
C7836 N7833 1.350 . S
C7836 C7835 1.434 . S
C7837 C7838 1.369 . S
C7837 C7839 1.419 . S
C7837 H7841 0.930 . S
C7838 C7837 1.369 . S
C7838 C7847 1.429 . S
C7839 C7837 1.419 . S
C7839 C7840 1.363 . S
C7839 H7842 0.929 . S
C7840 C7839 1.363 . S
C7840 C7846 1.428 . S
H7841 C7837 0.930 . S
H7842 C7839 0.929 . S
S7843 N7844 1.613 . S
S7843 N7845 1.610 . S
N7844 S7843 1.613 . S
N7844 C7847 1.350 . S
N7845 S7843 1.610 . S
N7845 C7846 1.351 . S
C7846 C7840 1.428 . S
C7846 N7845 1.351 . S
C7846 C7847 1.434 . S
C7847 C7838 1.429 . S
C7847 N7844 1.350 . S
C7847 C7846 1.434 . S
C7848 C7849 1.369 . S
C7848 C7850 1.419 1_655 S
C7848 H7852 0.930 . S
C7849 C7848 1.369 . S
C7849 C7858 1.429 . S
C7850 C7848 1.419 1_455 S
C7850 C7851 1.327 1_455 S
C7850 H7853 0.929 . S
C7851 C7850 1.327 1_655 S
C7851 C7857 1.578 . S
H7852 C7848 0.930 . S
H7853 C7850 0.929 . S
S7854 N7855 1.613 . S
S7854 N7856 1.610 . S
N7855 S7854 1.613 . S
N7855 C7858 1.350 . S
N7856 S7854 1.610 . S
N7856 C7857 1.351 . S
C7857 C7851 1.578 . S
C7857 N7856 1.351 . S
C7857 C7858 1.434 . S
C7858 C7849 1.429 . S
C7858 N7855 1.350 . S
C7858 C7857 1.434 . S
C7859 C7860 1.369 . S
C7859 C7861 1.419 . S
C7859 H7863 0.930 . S
C7860 C7859 1.369 . S
C7860 C7869 1.429 . S
C7861 C7859 1.419 . S
C7861 C7862 1.363 . S
C7861 H7864 0.929 . S
C7862 C7861 1.363 . S
C7862 C7868 1.428 . S
H7863 C7859 0.930 . S
H7864 C7861 0.929 . S
S7865 N7866 1.613 . S
S7865 N7867 1.610 . S
N7866 S7865 1.613 . S
N7866 C7869 1.350 . S
N7867 S7865 1.610 . S
N7867 C7868 1.351 . S
C7868 C7862 1.428 . S
C7868 N7867 1.351 . S
C7868 C7869 1.434 . S
C7869 C7860 1.429 . S
C7869 N7866 1.350 . S
C7869 C7868 1.434 . S
C7870 C7871 1.369 . S
C7870 C7872 1.419 . S
C7870 H7874 0.930 . S
C7871 C7870 1.369 . S
C7871 C7880 1.429 . S
C7872 C7870 1.419 . S
C7872 C7873 1.363 . S
C7872 H7875 0.929 . S
C7873 C7872 1.363 . S
C7873 C7879 1.428 . S
H7874 C7870 0.930 . S
H7875 C7872 0.929 . S
S7876 N7877 1.613 . S
S7876 N7878 1.610 . S
N7877 S7876 1.613 . S
N7877 C7880 1.350 . S
N7878 S7876 1.610 . S
N7878 C7879 1.351 . S
C7879 C7873 1.428 . S
C7879 N7878 1.351 . S
C7879 C7880 1.434 . S
C7880 C7871 1.429 . S
C7880 N7877 1.350 . S
C7880 C7879 1.434 . S
C7881 C7882 1.369 . S
C7881 C7883 1.419 . S
C7881 H7885 0.930 . S
C7882 C7881 1.369 . S
C7882 C7891 1.429 . S
C7883 C7881 1.419 . S
C7883 C7884 1.363 . S
C7883 H7886 0.929 . S
C7884 C7883 1.363 . S
C7884 C7890 1.428 . S
H7885 C7881 0.930 . S
H7886 C7883 0.929 . S
S7887 N7888 1.613 . S
S7887 N7889 1.610 . S
N7888 S7887 1.613 . S
N7888 C7891 1.350 . S
N7889 S7887 1.610 . S
N7889 C7890 1.351 . S
C7890 C7884 1.428 . S
C7890 N7889 1.351 . S
C7890 C7891 1.434 . S
C7891 C7882 1.429 . S
C7891 N7888 1.350 . S
C7891 C7890 1.434 . S
C7892 C7893 1.369 . S
C7892 C7894 1.419 . S
C7892 H7896 0.930 . S
C7893 C7892 1.369 . S
C7893 C7902 1.429 . S
C7894 C7892 1.419 . S
C7894 C7895 1.482 . S
C7894 H7897 0.929 . S
C7895 C7894 1.482 . S
C7895 C7901 1.403 1_655 S
H7896 C7892 0.930 . S
H7897 C7894 0.929 . S
S7898 N7899 1.613 1_455 S
S7898 N7900 1.610 . S
N7899 S7898 1.613 1_655 S
N7899 C7902 1.350 . S
N7900 S7898 1.610 . S
N7900 C7901 1.430 . S
C7901 C7895 1.403 1_455 S
C7901 N7900 1.430 . S
C7901 C7902 1.373 1_455 S
C7902 C7893 1.429 . S
C7902 N7899 1.350 . S
C7902 C7901 1.373 1_655 S
C7903 C7904 1.369 . S
C7903 C7905 1.419 . S
C7903 H7907 0.930 . S
C7904 C7903 1.369 . S
C7904 C7913 1.429 . S
C7905 C7903 1.419 . S
C7905 C7906 1.363 . S
C7905 H7908 0.929 . S
C7906 C7905 1.363 . S
C7906 C7912 1.428 . S
H7907 C7903 0.930 . S
H7908 C7905 0.929 . S
S7909 N7910 1.613 . S
S7909 N7911 1.610 . S
N7910 S7909 1.613 . S
N7910 C7913 1.350 . S
N7911 S7909 1.610 . S
N7911 C7912 1.351 . S
C7912 C7906 1.428 . S
C7912 N7911 1.351 . S
C7912 C7913 1.434 . S
C7913 C7904 1.429 . S
C7913 N7910 1.350 . S
C7913 C7912 1.434 . S
C7914 C7915 1.369 . S
C7914 C7916 1.419 . S
C7914 H7918 0.930 . S
C7915 C7914 1.369 . S
C7915 C7924 1.429 . S
C7916 C7914 1.419 . S
C7916 C7917 1.363 . S
C7916 H7919 0.929 . S
C7917 C7916 1.363 . S
C7917 C7923 1.428 . S
H7918 C7914 0.930 . S
H7919 C7916 0.929 . S
S7920 N7921 1.613 . S
S7920 N7922 1.610 . S
N7921 S7920 1.613 . S
N7921 C7924 1.350 . S
N7922 S7920 1.610 . S
N7922 C7923 1.351 . S
C7923 C7917 1.428 . S
C7923 N7922 1.351 . S
C7923 C7924 1.434 . S
C7924 C7915 1.429 . S
C7924 N7921 1.350 . S
C7924 C7923 1.434 . S
C7925 C7926 1.369 . S
C7925 C7927 1.419 . S
C7925 H7929 0.930 . S
C7926 C7925 1.369 . S
C7926 C7935 1.429 . S
C7927 C7925 1.419 . S
C7927 C7928 1.363 . S
C7927 H7930 0.929 . S
C7928 C7927 1.363 . S
C7928 C7934 1.428 . S
H7929 C7925 0.930 . S
H7930 C7927 0.929 . S
S7931 N7932 1.613 . S
S7931 N7933 1.610 . S
N7932 S7931 1.613 . S
N7932 C7935 1.350 . S
N7933 S7931 1.610 . S
N7933 C7934 1.351 . S
C7934 C7928 1.428 . S
C7934 N7933 1.351 . S
C7934 C7935 1.434 . S
C7935 C7926 1.429 . S
C7935 N7932 1.350 . S
C7935 C7934 1.434 . S
C7936 C7937 1.369 . S
C7936 C7938 1.419 . S
C7936 H7940 0.930 . S
C7937 C7936 1.369 . S
C7937 C7946 1.429 . S
C7938 C7936 1.419 . S
C7938 C7939 1.363 . S
C7938 H7941 0.929 . S
C7939 C7938 1.363 . S
C7939 C7945 1.430 1_565 S
H7940 C7936 0.930 . S
H7941 C7938 0.929 . S
S7942 N7943 1.613 1_545 S
S7942 N7944 1.610 . S
N7943 S7942 1.613 1_565 S
N7943 C7946 1.350 . S
N7944 S7942 1.610 . S
N7944 C7945 1.344 . S
C7945 C7939 1.430 1_545 S
C7945 N7944 1.344 . S
C7945 C7946 1.441 1_545 S
C7946 C7937 1.429 . S
C7946 N7943 1.350 . S
C7946 C7945 1.441 1_565 S
C7947 C7948 1.369 . S
C7947 C7949 1.419 . S
C7947 H7951 0.930 . S
C7948 C7947 1.369 . S
C7948 C7957 1.429 . S
C7949 C7947 1.419 . S
C7949 C7950 1.363 . S
C7949 H7952 0.929 . S
C7950 C7949 1.363 . S
C7950 C7956 1.428 . S
H7951 C7947 0.930 . S
H7952 C7949 0.929 . S
S7953 N7954 1.613 . S
S7953 N7955 1.610 . S
N7954 S7953 1.613 . S
N7954 C7957 1.350 . S
N7955 S7953 1.610 . S
N7955 C7956 1.351 . S
C7956 C7950 1.428 . S
C7956 N7955 1.351 . S
C7956 C7957 1.434 . S
C7957 C7948 1.429 . S
C7957 N7954 1.350 . S
C7957 C7956 1.434 . S
C7958 C7959 1.369 . S
C7958 C7960 1.419 . S
C7958 H7962 0.930 . S
C7959 C7958 1.369 . S
C7959 C7968 1.429 . S
C7960 C7958 1.419 . S
C7960 C7961 1.412 . S
C7960 H7963 0.929 . S
C7961 C7960 1.412 . S
C7961 C7967 1.494 . S
H7962 C7958 0.930 . S
H7963 C7960 0.929 . S
S7964 N7965 1.613 . S
S7964 N7966 1.610 . S
N7965 S7964 1.613 . S
N7965 C7968 1.350 . S
N7966 S7964 1.610 . S
N7966 C7967 1.351 . S
C7967 C7961 1.494 . S
C7967 N7966 1.351 . S
C7967 C7968 1.434 . S
C7968 C7959 1.429 . S
C7968 N7965 1.350 . S
C7968 C7967 1.434 . S
C7969 C7970 1.369 . S
C7969 C7971 1.419 . S
C7969 H7973 0.930 . S
C7970 C7969 1.369 . S
C7970 C7979 1.429 . S
C7971 C7969 1.419 . S
C7971 C7972 1.363 . S
C7971 H7974 0.929 . S
C7972 C7971 1.363 . S
C7972 C7978 1.428 . S
H7973 C7969 0.930 . S
H7974 C7971 0.929 . S
S7975 N7976 1.613 . S
S7975 N7977 1.610 . S
N7976 S7975 1.613 . S
N7976 C7979 1.350 . S
N7977 S7975 1.610 . S
N7977 C7978 1.351 . S
C7978 C7972 1.428 . S
C7978 N7977 1.351 . S
C7978 C7979 1.434 . S
C7979 C7970 1.429 . S
C7979 N7976 1.350 . S
C7979 C7978 1.434 . S
C7980 C7981 1.369 . S
C7980 C7982 1.419 1_545 S
C7980 H7984 0.930 . S
C7981 C7980 1.369 . S
C7981 C7990 1.429 . S
C7982 C7980 1.419 1_565 S
C7982 C7983 1.363 1_565 S
C7982 H7985 0.929 . S
C7983 C7982 1.363 1_545 S
C7983 C7989 1.428 . S
H7984 C7980 0.930 . S
H7985 C7982 0.929 . S
S7986 N7987 1.613 . S
S7986 N7988 1.610 . S
N7987 S7986 1.613 . S
N7987 C7990 1.350 . S
N7988 S7986 1.610 . S
N7988 C7989 1.351 . S
C7989 C7983 1.428 . S
C7989 N7988 1.351 . S
C7989 C7990 1.434 . S
C7990 C7981 1.429 . S
C7990 N7987 1.350 . S
C7990 C7989 1.434 . S
C7991 C7992 1.369 . S
C7991 C7993 1.419 . S
C7991 H7995 0.930 . S
C7992 C7991 1.369 . S
C7992 C8001 1.429 . S
C7993 C7991 1.419 . S
C7993 C7994 1.363 . S
C7993 H7996 0.929 . S
C7994 C7993 1.363 . S
C7994 C8000 1.428 . S
H7995 C7991 0.930 . S
H7996 C7993 0.929 . S
S7997 N7998 1.613 . S
S7997 N7999 1.610 . S
N7998 S7997 1.613 . S
N7998 C8001 1.350 . S
N7999 S7997 1.610 . S
N7999 C8000 1.351 . S
C8000 C7994 1.428 . S
C8000 N7999 1.351 . S
C8000 C8001 1.434 . S
C8001 C7992 1.429 . S
C8001 N7998 1.350 . S
C8001 C8000 1.434 . S
C8002 C8003 1.369 . S
C8002 C8004 1.419 . S
C8002 H8006 0.930 . S
C8003 C8002 1.369 . S
C8003 C8012 1.429 . S
C8004 C8002 1.419 . S
C8004 C8005 1.507 . S
C8004 H8007 0.929 . S
C8005 C8004 1.507 . S
C8005 C8011 1.387 1_565 S
H8006 C8002 0.930 . S
H8007 C8004 0.929 . S
S8008 N8009 1.598 . S
S8008 N8010 1.610 . S
N8009 S8008 1.598 . S
N8009 C8012 1.357 1_545 S
N8010 S8008 1.610 . S
N8010 C8011 1.351 . S
C8011 C8005 1.387 1_545 S
C8011 N8010 1.351 . S
C8011 C8012 1.434 1_545 S
C8012 C8003 1.429 . S
C8012 N8009 1.357 1_565 S
C8012 C8011 1.434 1_565 S
C8013 C8014 1.369 . S
C8013 C8015 1.419 . S
C8013 H8017 0.930 . S
C8014 C8013 1.369 . S
C8014 C8023 1.429 . S
C8015 C8013 1.419 . S
C8015 C8016 1.363 . S
C8015 H8018 0.929 . S
C8016 C8015 1.363 . S
C8016 C8022 1.428 . S
H8017 C8013 0.930 . S
H8018 C8015 0.929 . S
S8019 N8020 1.613 . S
S8019 N8021 1.610 . S
N8020 S8019 1.613 . S
N8020 C8023 1.350 . S
N8021 S8019 1.610 . S
N8021 C8022 1.351 . S
C8022 C8016 1.428 . S
C8022 N8021 1.351 . S
C8022 C8023 1.434 . S
C8023 C8014 1.429 . S
C8023 N8020 1.350 . S
C8023 C8022 1.434 . S
C8024 C8025 1.369 . S
C8024 C8026 1.333 1_556 S
C8024 H8028 0.930 . S
C8025 C8024 1.369 . S
C8025 C8034 1.429 . S
C8026 C8024 1.333 1_554 S
C8026 C8027 1.334 1_554 S
C8026 H8029 1.063 . S
C8027 C8026 1.334 1_556 S
C8027 C8033 1.428 . S
H8028 C8024 0.930 . S
H8029 C8026 1.063 . S
S8030 N8031 1.613 . S
S8030 N8032 1.610 . S
N8031 S8030 1.613 . S
N8031 C8034 1.350 . S
N8032 S8030 1.610 . S
N8032 C8033 1.351 . S
C8033 C8027 1.428 . S
C8033 N8032 1.351 . S
C8033 C8034 1.434 . S
C8034 C8025 1.429 . S
C8034 N8031 1.350 . S
C8034 C8033 1.434 . S
C8035 C8036 1.369 . S
C8035 C8037 1.419 . S
C8035 H8039 0.930 . S
C8036 C8035 1.369 . S
C8036 C8045 1.429 . S
C8037 C8035 1.419 . S
C8037 C8038 1.363 . S
C8037 H8040 0.929 . S
C8038 C8037 1.363 . S
C8038 C8044 1.428 . S
H8039 C8035 0.930 . S
H8040 C8037 0.929 . S
S8041 N8042 1.613 . S
S8041 N8043 1.610 . S
N8042 S8041 1.613 . S
N8042 C8045 1.350 . S
N8043 S8041 1.610 . S
N8043 C8044 1.351 . S
C8044 C8038 1.428 . S
C8044 N8043 1.351 . S
C8044 C8045 1.434 . S
C8045 C8036 1.429 . S
C8045 N8042 1.350 . S
C8045 C8044 1.434 . S
C8046 C8047 1.369 . S
C8046 C8048 1.419 . S
C8046 H8050 0.930 . S
C8047 C8046 1.369 . S
C8047 C8056 1.429 . S
C8048 C8046 1.419 . S
C8048 C8049 1.363 . S
C8048 H8051 0.929 . S
C8049 C8048 1.363 . S
C8049 C8055 1.428 . S
H8050 C8046 0.930 . S
H8051 C8048 0.929 . S
S8052 N8053 1.613 . S
S8052 N8054 1.610 . S
N8053 S8052 1.613 . S
N8053 C8056 1.350 . S
N8054 S8052 1.610 . S
N8054 C8055 1.351 . S
C8055 C8049 1.428 . S
C8055 N8054 1.351 . S
C8055 C8056 1.434 . S
C8056 C8047 1.429 . S
C8056 N8053 1.350 . S
C8056 C8055 1.434 . S
C8057 C8058 1.369 . S
C8057 C8059 1.419 . S
C8057 H8061 0.930 . S
C8058 C8057 1.369 . S
C8058 C8067 1.429 . S
C8059 C8057 1.419 . S
C8059 C8060 1.363 . S
C8059 H8062 0.929 . S
C8060 C8059 1.363 . S
C8060 C8066 1.428 . S
H8061 C8057 0.930 . S
H8062 C8059 0.929 . S
S8063 N8064 1.613 . S
S8063 N8065 1.610 . S
N8064 S8063 1.613 . S
N8064 C8067 1.350 . S
N8065 S8063 1.610 . S
N8065 C8066 1.351 . S
C8066 C8060 1.428 . S
C8066 N8065 1.351 . S
C8066 C8067 1.434 . S
C8067 C8058 1.429 . S
C8067 N8064 1.350 . S
C8067 C8066 1.434 . S
C8068 C8069 1.369 . S
C8068 C8070 1.419 . S
C8068 H8072 0.930 . S
C8069 C8068 1.369 . S
C8069 C8078 1.429 . S
C8070 C8068 1.419 . S
C8070 C8071 1.363 . S
C8070 H8073 0.929 . S
C8071 C8070 1.363 . S
C8071 C8077 1.428 . S
H8072 C8068 0.930 . S
H8073 C8070 0.929 . S
S8074 N8075 1.613 . S
S8074 N8076 1.610 . S
N8075 S8074 1.613 . S
N8075 C8078 1.350 . S
N8076 S8074 1.610 . S
N8076 C8077 1.351 . S
C8077 C8071 1.428 . S
C8077 N8076 1.351 . S
C8077 C8078 1.434 . S
C8078 C8069 1.429 . S
C8078 N8075 1.350 . S
C8078 C8077 1.434 . S
C8079 C8080 1.369 . S
C8079 C8081 1.419 . S
C8079 H8083 0.930 . S
C8080 C8079 1.369 . S
C8080 C8089 1.429 . S
C8081 C8079 1.419 . S
C8081 C8082 1.363 . S
C8081 H8084 0.929 . S
C8082 C8081 1.363 . S
C8082 C8088 1.428 . S
H8083 C8079 0.930 . S
H8084 C8081 0.929 . S
S8085 N8086 1.613 . S
S8085 N8087 1.610 . S
N8086 S8085 1.613 . S
N8086 C8089 1.350 . S
N8087 S8085 1.610 . S
N8087 C8088 1.351 . S
C8088 C8082 1.428 . S
C8088 N8087 1.351 . S
C8088 C8089 1.434 . S
C8089 C8080 1.429 . S
C8089 N8086 1.350 . S
C8089 C8088 1.434 . S
C8090 C8091 1.369 . S
C8090 C8092 1.419 . S
C8090 H8094 0.930 . S
C8091 C8090 1.369 . S
C8091 C8100 1.429 . S
C8092 C8090 1.419 . S
C8092 C8093 1.363 . S
C8092 H8095 0.929 . S
C8093 C8092 1.363 . S
C8093 C8099 1.428 . S
H8094 C8090 0.930 . S
H8095 C8092 0.929 . S
S8096 N8097 1.613 . S
S8096 N8098 1.610 . S
N8097 S8096 1.613 . S
N8097 C8100 1.350 . S
N8098 S8096 1.610 . S
N8098 C8099 1.351 . S
C8099 C8093 1.428 . S
C8099 N8098 1.351 . S
C8099 C8100 1.434 . S
C8100 C8091 1.429 . S
C8100 N8097 1.350 . S
C8100 C8099 1.434 . S
C8101 C8102 1.369 . S
C8101 C8103 1.419 . S
C8101 H8105 0.930 . S
C8102 C8101 1.369 . S
C8102 C8111 1.429 . S
C8103 C8101 1.419 . S
C8103 C8104 1.363 . S
C8103 H8106 0.929 . S
C8104 C8103 1.363 . S
C8104 C8110 1.428 . S
H8105 C8101 0.930 . S
H8106 C8103 0.929 . S
S8107 N8108 1.613 . S
S8107 N8109 1.610 . S
N8108 S8107 1.613 . S
N8108 C8111 1.350 . S
N8109 S8107 1.610 . S
N8109 C8110 1.351 . S
C8110 C8104 1.428 . S
C8110 N8109 1.351 . S
C8110 C8111 1.434 . S
C8111 C8102 1.429 . S
C8111 N8108 1.350 . S
C8111 C8110 1.434 . S
C8112 C8113 1.369 . S
C8112 C8114 1.419 . S
C8112 H8116 0.930 . S
C8113 C8112 1.369 . S
C8113 C8122 1.429 . S
C8114 C8112 1.419 . S
C8114 C8115 1.363 . S
C8114 H8117 0.929 . S
C8115 C8114 1.363 . S
C8115 C8121 1.428 . S
H8116 C8112 0.930 . S
H8117 C8114 0.929 . S
S8118 N8119 1.613 . S
S8118 N8120 1.610 . S
N8119 S8118 1.613 . S
N8119 C8122 1.350 . S
N8120 S8118 1.610 . S
N8120 C8121 1.351 . S
C8121 C8115 1.428 . S
C8121 N8120 1.351 . S
C8121 C8122 1.434 . S
C8122 C8113 1.429 . S
C8122 N8119 1.350 . S
C8122 C8121 1.434 . S
C8123 C8124 1.369 . S
C8123 C8125 1.419 . S
C8123 H8127 0.930 . S
C8124 C8123 1.369 . S
C8124 C8133 1.429 . S
C8125 C8123 1.419 . S
C8125 C8126 1.363 . S
C8125 H8128 0.929 . S
C8126 C8125 1.363 . S
C8126 C8132 1.428 . S
H8127 C8123 0.930 . S
H8128 C8125 0.929 . S
S8129 N8130 1.613 . S
S8129 N8131 1.610 . S
N8130 S8129 1.613 . S
N8130 C8133 1.350 . S
N8131 S8129 1.610 . S
N8131 C8132 1.351 . S
C8132 C8126 1.428 . S
C8132 N8131 1.351 . S
C8132 C8133 1.434 . S
C8133 C8124 1.429 . S
C8133 N8130 1.350 . S
C8133 C8132 1.434 . S
C8134 C8135 1.369 . S
C8134 C8136 1.419 . S
C8134 H8138 0.930 . S
C8135 C8134 1.369 . S
C8135 C8144 1.429 . S
C8136 C8134 1.419 . S
C8136 C8137 1.363 . S
C8136 H8139 0.954 . S
C8137 C8136 1.363 . S
C8137 C8143 1.428 . S
H8138 C8134 0.930 . S
H8139 C8136 0.954 . S
S8140 N8141 1.613 . S
S8140 N8142 1.610 . S
N8141 S8140 1.613 . S
N8141 C8144 1.350 . S
N8142 S8140 1.610 . S
N8142 C8143 1.351 . S
C8143 C8137 1.428 . S
C8143 N8142 1.351 . S
C8143 C8144 1.434 . S
C8144 C8135 1.429 . S
C8144 N8141 1.350 . S
C8144 C8143 1.434 . S
C8145 C8146 1.369 . S
C8145 C8147 1.419 . S
C8145 H8149 0.930 . S
C8146 C8145 1.369 . S
C8146 C8155 1.429 . S
C8147 C8145 1.419 . S
C8147 C8148 1.363 . S
C8147 H8150 0.929 . S
C8148 C8147 1.363 . S
C8148 C8154 1.428 . S
H8149 C8145 0.930 . S
H8150 C8147 0.929 . S
S8151 N8152 1.613 . S
S8151 N8153 1.610 . S
N8152 S8151 1.613 . S
N8152 C8155 1.350 . S
N8153 S8151 1.610 . S
N8153 C8154 1.351 . S
C8154 C8148 1.428 . S
C8154 N8153 1.351 . S
C8154 C8155 1.434 . S
C8155 C8146 1.429 . S
C8155 N8152 1.350 . S
C8155 C8154 1.434 . S
C8156 C8157 1.369 . S
C8156 C8158 1.419 . S
C8156 H8160 0.930 . S
C8157 C8156 1.369 . S
C8157 C8166 1.429 . S
C8158 C8156 1.419 . S
C8158 C8159 1.363 . S
C8158 H8161 0.929 . S
C8159 C8158 1.363 . S
C8159 C8165 1.428 . S
H8160 C8156 0.930 . S
H8161 C8158 0.929 . S
S8162 N8163 1.613 . S
S8162 N8164 1.610 . S
N8163 S8162 1.613 . S
N8163 C8166 1.350 . S
N8164 S8162 1.610 . S
N8164 C8165 1.351 . S
C8165 C8159 1.428 . S
C8165 N8164 1.351 . S
C8165 C8166 1.434 . S
C8166 C8157 1.429 . S
C8166 N8163 1.350 . S
C8166 C8165 1.434 . S
C8167 C8168 1.369 . S
C8167 C8169 1.419 . S
C8167 H8171 0.930 . S
C8168 C8167 1.369 . S
C8168 C8177 1.429 . S
C8169 C8167 1.419 . S
C8169 C8170 1.363 . S
C8169 H8172 0.929 . S
C8170 C8169 1.363 . S
C8170 C8176 1.428 . S
H8171 C8167 0.930 . S
H8172 C8169 0.929 . S
S8173 N8174 1.613 . S
S8173 N8175 1.610 . S
N8174 S8173 1.613 . S
N8174 C8177 1.350 . S
N8175 S8173 1.610 . S
N8175 C8176 1.351 . S
C8176 C8170 1.428 . S
C8176 N8175 1.351 . S
C8176 C8177 1.434 . S
C8177 C8168 1.429 . S
C8177 N8174 1.350 . S
C8177 C8176 1.434 . S
C8178 C8179 1.369 . S
C8178 C8180 1.419 . S
C8178 H8182 0.930 . S
C8179 C8178 1.369 . S
C8179 C8188 1.429 . S
C8180 C8178 1.419 . S
C8180 C8181 1.490 . S
C8180 H8183 0.929 . S
C8181 C8180 1.490 . S
C8181 C8187 1.401 1_655 S
H8182 C8178 0.930 . S
H8183 C8180 0.929 . S
S8184 N8185 1.613 1_455 S
S8184 N8186 1.610 . S
N8185 S8184 1.613 1_655 S
N8185 C8188 1.350 . S
N8186 S8184 1.610 . S
N8186 C8187 1.431 . S
C8187 C8181 1.401 1_455 S
C8187 N8186 1.431 . S
C8187 C8188 1.376 1_455 S
C8188 C8179 1.429 . S
C8188 N8185 1.350 . S
C8188 C8187 1.376 1_655 S
C8189 C8190 1.369 . S
C8189 C8191 1.419 . S
C8189 H8193 0.930 . S
C8190 C8189 1.369 . S
C8190 C8199 1.429 . S
C8191 C8189 1.419 . S
C8191 C8192 1.363 . S
C8191 H8194 0.929 . S
C8192 C8191 1.363 . S
C8192 C8198 1.428 . S
H8193 C8189 0.930 . S
H8194 C8191 0.929 . S
S8195 N8196 1.613 . S
S8195 N8197 1.610 . S
N8196 S8195 1.613 . S
N8196 C8199 1.350 . S
N8197 S8195 1.610 . S
N8197 C8198 1.351 . S
C8198 C8192 1.428 . S
C8198 N8197 1.351 . S
C8198 C8199 1.434 . S
C8199 C8190 1.429 . S
C8199 N8196 1.350 . S
C8199 C8198 1.434 . S
C8200 C8201 1.369 . S
C8200 C8202 1.419 . S
C8200 H8204 0.930 . S
C8201 C8200 1.369 . S
C8201 C8210 1.429 . S
C8202 C8200 1.419 . S
C8202 C8203 1.363 . S
C8202 H8205 0.929 . S
C8203 C8202 1.363 . S
C8203 C8209 1.428 . S
H8204 C8200 0.930 . S
H8205 C8202 0.929 . S
S8206 N8207 1.613 . S
S8206 N8208 1.610 . S
N8207 S8206 1.613 . S
N8207 C8210 1.350 . S
N8208 S8206 1.610 . S
N8208 C8209 1.351 . S
C8209 C8203 1.428 . S
C8209 N8208 1.351 . S
C8209 C8210 1.434 . S
C8210 C8201 1.429 . S
C8210 N8207 1.350 . S
C8210 C8209 1.434 . S
C8211 C8212 1.369 . S
C8211 C8213 1.419 . S
C8211 H8215 0.930 . S
C8212 C8211 1.369 . S
C8212 C8221 1.429 . S
C8213 C8211 1.419 . S
C8213 C8214 1.363 . S
C8213 H8216 0.929 . S
C8214 C8213 1.363 . S
C8214 C8220 1.428 . S
H8215 C8211 0.930 . S
H8216 C8213 0.929 . S
S8217 N8218 1.613 . S
S8217 N8219 1.610 . S
N8218 S8217 1.613 . S
N8218 C8221 1.350 . S
N8219 S8217 1.610 . S
N8219 C8220 1.351 . S
C8220 C8214 1.428 . S
C8220 N8219 1.351 . S
C8220 C8221 1.434 . S
C8221 C8212 1.429 . S
C8221 N8218 1.350 . S
C8221 C8220 1.434 . S
C8222 C8223 1.369 . S
C8222 C8224 1.419 . S
C8222 H8226 0.930 . S
C8223 C8222 1.369 . S
C8223 C8232 1.429 . S
C8224 C8222 1.419 . S
C8224 C8225 1.363 . S
C8224 H8227 0.929 . S
C8225 C8224 1.363 . S
C8225 C8231 1.428 . S
H8226 C8222 0.930 . S
H8227 C8224 0.929 . S
S8228 N8229 1.613 . S
S8228 N8230 1.610 . S
N8229 S8228 1.613 . S
N8229 C8232 1.350 . S
N8230 S8228 1.610 . S
N8230 C8231 1.351 . S
C8231 C8225 1.428 . S
C8231 N8230 1.351 . S
C8231 C8232 1.434 . S
C8232 C8223 1.429 . S
C8232 N8229 1.350 . S
C8232 C8231 1.434 . S
C8233 C8234 1.369 . S
C8233 C8235 1.419 . S
C8233 H8237 0.930 . S
C8234 C8233 1.369 . S
C8234 C8243 1.429 . S
C8235 C8233 1.419 . S
C8235 C8236 1.363 . S
C8235 H8238 0.929 . S
C8236 C8235 1.363 . S
C8236 C8242 1.428 . S
H8237 C8233 0.930 . S
H8238 C8235 0.929 . S
S8239 N8240 1.613 . S
S8239 N8241 1.610 . S
N8240 S8239 1.613 . S
N8240 C8243 1.350 . S
N8241 S8239 1.610 . S
N8241 C8242 1.351 . S
C8242 C8236 1.428 . S
C8242 N8241 1.351 . S
C8242 C8243 1.434 . S
C8243 C8234 1.429 . S
C8243 N8240 1.350 . S
C8243 C8242 1.434 . S
C8244 C8245 1.369 . S
C8244 C8246 1.419 . S
C8244 H8248 0.930 . S
C8245 C8244 1.369 . S
C8245 C8254 1.429 . S
C8246 C8244 1.419 . S
C8246 C8247 1.363 . S
C8246 H8249 0.929 . S
C8247 C8246 1.363 . S
C8247 C8253 1.428 . S
H8248 C8244 0.930 . S
H8249 C8246 0.929 . S
S8250 N8251 1.613 . S
S8250 N8252 1.610 . S
N8251 S8250 1.613 . S
N8251 C8254 1.350 . S
N8252 S8250 1.610 . S
N8252 C8253 1.351 . S
C8253 C8247 1.428 . S
C8253 N8252 1.351 . S
C8253 C8254 1.434 . S
C8254 C8245 1.429 . S
C8254 N8251 1.350 . S
C8254 C8253 1.434 . S
C8255 C8256 1.369 . S
C8255 C8257 1.419 . S
C8255 H8259 0.930 . S
C8256 C8255 1.369 . S
C8256 C8265 1.429 . S
C8257 C8255 1.419 . S
C8257 C8258 1.363 . S
C8257 H8260 0.929 . S
C8258 C8257 1.363 . S
C8258 C8264 1.428 . S
H8259 C8255 0.930 . S
H8260 C8257 0.929 . S
S8261 N8262 1.613 . S
S8261 N8263 1.610 . S
N8262 S8261 1.613 . S
N8262 C8265 1.350 . S
N8263 S8261 1.610 . S
N8263 C8264 1.351 . S
C8264 C8258 1.428 . S
C8264 N8263 1.351 . S
C8264 C8265 1.434 . S
C8265 C8256 1.429 . S
C8265 N8262 1.350 . S
C8265 C8264 1.434 . S
C8266 C8267 1.369 . S
C8266 C8268 1.419 . S
C8266 H8270 0.930 . S
C8267 C8266 1.369 . S
C8267 C8276 1.429 . S
C8268 C8266 1.419 . S
C8268 C8269 1.363 . S
C8268 H8271 0.929 . S
C8269 C8268 1.363 . S
C8269 C8275 1.428 . S
H8270 C8266 0.930 . S
H8271 C8268 0.929 . S
S8272 N8273 1.613 . S
S8272 N8274 1.610 . S
N8273 S8272 1.613 . S
N8273 C8276 1.350 . S
N8274 S8272 1.610 . S
N8274 C8275 1.351 . S
C8275 C8269 1.428 . S
C8275 N8274 1.351 . S
C8275 C8276 1.434 . S
C8276 C8267 1.429 . S
C8276 N8273 1.350 . S
C8276 C8275 1.434 . S
C8277 C8278 1.369 . S
C8277 C8279 1.419 . S
C8277 H8281 0.930 . S
C8278 C8277 1.369 . S
C8278 C8287 1.429 . S
C8279 C8277 1.419 . S
C8279 C8280 1.363 . S
C8279 H8282 0.929 . S
C8280 C8279 1.363 . S
C8280 C8286 1.428 . S
H8281 C8277 0.930 . S
H8282 C8279 0.929 . S
S8283 N8284 1.613 . S
S8283 N8285 1.610 . S
N8284 S8283 1.613 . S
N8284 C8287 1.350 . S
N8285 S8283 1.610 . S
N8285 C8286 1.351 . S
C8286 C8280 1.428 . S
C8286 N8285 1.351 . S
C8286 C8287 1.434 . S
C8287 C8278 1.429 . S
C8287 N8284 1.350 . S
C8287 C8286 1.434 . S
C8288 C8289 1.369 . S
C8288 C8290 1.419 . S
C8288 H8292 0.930 . S
C8289 C8288 1.369 . S
C8289 C8298 1.429 . S
C8290 C8288 1.419 . S
C8290 C8291 1.363 . S
C8290 H8293 0.929 . S
C8291 C8290 1.363 . S
C8291 C8297 1.428 . S
H8292 C8288 0.930 . S
H8293 C8290 0.929 . S
S8294 N8295 1.613 . S
S8294 N8296 1.610 . S
N8295 S8294 1.613 . S
N8295 C8298 1.350 . S
N8296 S8294 1.610 . S
N8296 C8297 1.351 . S
C8297 C8291 1.428 . S
C8297 N8296 1.351 . S
C8297 C8298 1.434 . S
C8298 C8289 1.429 . S
C8298 N8295 1.350 . S
C8298 C8297 1.434 . S
C8299 C8300 1.369 . S
C8299 C8301 1.419 . S
C8299 H8303 0.930 . S
C8300 C8299 1.369 . S
C8300 C8309 1.429 . S
C8301 C8299 1.419 . S
C8301 C8302 1.363 . S
C8301 H8304 0.929 . S
C8302 C8301 1.363 . S
C8302 C8308 1.428 . S
H8303 C8299 0.930 . S
H8304 C8301 0.929 . S
S8305 N8306 1.613 . S
S8305 N8307 1.610 . S
N8306 S8305 1.613 . S
N8306 C8309 1.350 . S
N8307 S8305 1.610 . S
N8307 C8308 1.351 . S
C8308 C8302 1.428 . S
C8308 N8307 1.351 . S
C8308 C8309 1.434 . S
C8309 C8300 1.429 . S
C8309 N8306 1.350 . S
C8309 C8308 1.434 . S
C8310 C8311 1.369 . S
C8310 C8312 1.419 . S
C8310 H8314 0.930 . S
C8311 C8310 1.369 . S
C8311 C8320 1.429 . S
C8312 C8310 1.419 . S
C8312 C8313 1.363 . S
C8312 H8315 0.929 . S
C8313 C8312 1.363 . S
C8313 C8319 1.428 . S
H8314 C8310 0.930 . S
H8315 C8312 0.929 . S
S8316 N8317 1.613 . S
S8316 N8318 1.610 . S
N8317 S8316 1.613 . S
N8317 C8320 1.350 . S
N8318 S8316 1.610 . S
N8318 C8319 1.351 . S
C8319 C8313 1.428 . S
C8319 N8318 1.351 . S
C8319 C8320 1.434 . S
C8320 C8311 1.429 . S
C8320 N8317 1.350 . S
C8320 C8319 1.434 . S
C8321 C8322 1.369 . S
C8321 C8323 1.419 . S
C8321 H8325 0.930 . S
C8322 C8321 1.369 . S
C8322 C8331 1.429 . S
C8323 C8321 1.419 . S
C8323 C8324 1.363 . S
C8323 H8326 0.929 . S
C8324 C8323 1.363 . S
C8324 C8330 1.428 1_556 S
H8325 C8321 0.930 . S
H8326 C8323 0.929 . S
S8327 N8328 1.611 1_554 S
S8327 N8329 1.610 . S
N8328 S8327 1.611 1_556 S
N8328 C8331 1.351 . S
N8329 S8327 1.610 . S
N8329 C8330 1.351 . S
C8330 C8324 1.428 1_554 S
C8330 N8329 1.351 . S
C8330 C8331 1.434 1_554 S
C8331 C8322 1.429 . S
C8331 N8328 1.351 . S
C8331 C8330 1.434 1_556 S
C8332 C8333 1.369 . S
C8332 C8334 1.419 . S
C8332 H8336 0.930 . S
C8333 C8332 1.369 . S
C8333 C8342 1.429 . S
C8334 C8332 1.419 . S
C8334 C8335 1.363 . S
C8334 H8337 0.929 . S
C8335 C8334 1.363 . S
C8335 C8341 1.428 . S
H8336 C8332 0.930 . S
H8337 C8334 0.929 . S
S8338 N8339 1.613 . S
S8338 N8340 1.610 . S
N8339 S8338 1.613 . S
N8339 C8342 1.350 . S
N8340 S8338 1.610 . S
N8340 C8341 1.351 . S
C8341 C8335 1.428 . S
C8341 N8340 1.351 . S
C8341 C8342 1.434 . S
C8342 C8333 1.429 . S
C8342 N8339 1.350 . S
C8342 C8341 1.434 . S
C8343 C8344 1.369 . S
C8343 C8345 1.419 . S
C8343 H8347 0.930 . S
C8344 C8343 1.369 . S
C8344 C8353 1.429 . S
C8345 C8343 1.419 . S
C8345 C8346 1.363 . S
C8345 H8348 0.929 . S
C8346 C8345 1.363 . S
C8346 C8352 1.406 1_554 S
H8347 C8343 0.930 . S
H8348 C8345 0.929 . S
S8349 N8350 1.613 1_556 S
S8349 N8351 1.610 . S
N8350 S8349 1.613 1_554 S
N8350 C8353 1.350 . S
N8351 S8349 1.610 . S
N8351 C8352 1.452 . S
C8352 C8346 1.406 1_556 S
C8352 N8351 1.452 . S
C8352 C8353 1.364 1_556 S
C8353 C8344 1.429 . S
C8353 N8350 1.350 . S
C8353 C8352 1.364 1_554 S
C8354 C8355 1.369 . S
C8354 C8356 1.419 . S
C8354 H8358 0.930 . S
C8355 C8354 1.369 . S
C8355 C8364 1.429 . S
C8356 C8354 1.419 . S
C8356 C8357 1.363 . S
C8356 H8359 0.929 . S
C8357 C8356 1.363 . S
C8357 C8363 1.428 . S
H8358 C8354 0.930 . S
H8359 C8356 0.929 . S
S8360 N8361 1.613 . S
S8360 N8362 1.610 . S
N8361 S8360 1.613 . S
N8361 C8364 1.350 . S
N8362 S8360 1.610 . S
N8362 C8363 1.351 . S
C8363 C8357 1.428 . S
C8363 N8362 1.351 . S
C8363 C8364 1.434 . S
C8364 C8355 1.429 . S
C8364 N8361 1.350 . S
C8364 C8363 1.434 . S
C8365 C8366 1.369 . S
C8365 C8367 1.419 . S
C8365 H8369 0.930 . S
C8366 C8365 1.369 . S
C8366 C8375 1.429 . S
C8367 C8365 1.419 . S
C8367 C8368 1.363 . S
C8367 H8370 0.929 . S
C8368 C8367 1.363 . S
C8368 C8374 1.428 . S
H8369 C8365 0.930 . S
H8370 C8367 0.929 . S
S8371 N8372 1.613 . S
S8371 N8373 1.610 . S
N8372 S8371 1.613 . S
N8372 C8375 1.350 . S
N8373 S8371 1.610 . S
N8373 C8374 1.351 . S
C8374 C8368 1.428 . S
C8374 N8373 1.351 . S
C8374 C8375 1.434 . S
C8375 C8366 1.429 . S
C8375 N8372 1.350 . S
C8375 C8374 1.434 . S
C8376 C8377 1.369 . S
C8376 C8378 1.419 . S
C8376 H8380 0.930 . S
C8377 C8376 1.369 . S
C8377 C8386 1.429 . S
C8378 C8376 1.419 . S
C8378 C8379 1.363 . S
C8378 H8381 0.929 . S
C8379 C8378 1.363 . S
C8379 C8385 1.428 . S
H8380 C8376 0.930 . S
H8381 C8378 0.929 . S
S8382 N8383 1.613 . S
S8382 N8384 1.610 . S
N8383 S8382 1.613 . S
N8383 C8386 1.350 . S
N8384 S8382 1.610 . S
N8384 C8385 1.351 . S
C8385 C8379 1.428 . S
C8385 N8384 1.351 . S
C8385 C8386 1.434 . S
C8386 C8377 1.429 . S
C8386 N8383 1.350 . S
C8386 C8385 1.434 . S
C8387 C8388 1.369 . S
C8387 C8389 1.419 . S
C8387 H8391 0.930 . S
C8388 C8387 1.369 . S
C8388 C8397 1.429 . S
C8389 C8387 1.419 . S
C8389 C8390 1.363 . S
C8389 H8392 0.929 . S
C8390 C8389 1.363 . S
C8390 C8396 1.428 . S
H8391 C8387 0.930 . S
H8392 C8389 0.929 . S
S8393 N8394 1.613 . S
S8393 N8395 1.610 . S
N8394 S8393 1.613 . S
N8394 C8397 1.350 . S
N8395 S8393 1.610 . S
N8395 C8396 1.351 . S
C8396 C8390 1.428 . S
C8396 N8395 1.351 . S
C8396 C8397 1.434 . S
C8397 C8388 1.429 . S
C8397 N8394 1.350 . S
C8397 C8396 1.434 . S
C8398 C8399 1.369 . S
C8398 C8400 1.419 . S
C8398 H8402 0.930 . S
C8399 C8398 1.369 . S
C8399 C8408 1.429 . S
C8400 C8398 1.419 . S
C8400 C8401 1.363 . S
C8400 H8403 0.929 . S
C8401 C8400 1.363 . S
C8401 C8407 1.428 1_455 S
H8402 C8398 0.930 . S
H8403 C8400 0.929 . S
S8404 N8405 1.603 1_655 S
S8404 N8406 1.610 . S
N8405 S8404 1.603 1_455 S
N8405 C8408 1.355 . S
N8406 S8404 1.610 . S
N8406 C8407 1.351 . S
C8407 C8401 1.428 1_655 S
C8407 N8406 1.351 . S
C8407 C8408 1.434 1_655 S
C8408 C8399 1.429 . S
C8408 N8405 1.355 . S
C8408 C8407 1.434 1_455 S
C8409 C8410 1.369 . S
C8409 C8411 1.419 . S
C8409 H8413 0.930 . S
C8410 C8409 1.369 . S
C8410 C8419 1.429 . S
C8411 C8409 1.419 . S
C8411 C8412 1.363 . S
C8411 H8414 0.929 . S
C8412 C8411 1.363 . S
C8412 C8418 1.428 . S
H8413 C8409 0.930 . S
H8414 C8411 0.929 . S
S8415 N8416 1.613 . S
S8415 N8417 1.610 . S
N8416 S8415 1.613 . S
N8416 C8419 1.350 . S
N8417 S8415 1.610 . S
N8417 C8418 1.351 . S
C8418 C8412 1.428 . S
C8418 N8417 1.351 . S
C8418 C8419 1.434 . S
C8419 C8410 1.429 . S
C8419 N8416 1.350 . S
C8419 C8418 1.434 . S
C8420 C8421 1.369 . S
C8420 C8422 1.419 . S
C8420 H8424 0.930 . S
C8421 C8420 1.369 . S
C8421 C8430 1.429 . S
C8422 C8420 1.419 . S
C8422 C8423 1.363 . S
C8422 H8425 0.929 . S
C8423 C8422 1.363 . S
C8423 C8429 1.428 . S
H8424 C8420 0.930 . S
H8425 C8422 0.929 . S
S8426 N8427 1.613 . S
S8426 N8428 1.610 . S
N8427 S8426 1.613 . S
N8427 C8430 1.350 . S
N8428 S8426 1.610 . S
N8428 C8429 1.351 . S
C8429 C8423 1.428 . S
C8429 N8428 1.351 . S
C8429 C8430 1.434 . S
C8430 C8421 1.429 . S
C8430 N8427 1.350 . S
C8430 C8429 1.434 . S
C8431 C8432 1.369 . S
C8431 C8433 1.419 . S
C8431 H8435 0.930 . S
C8432 C8431 1.369 . S
C8432 C8441 1.429 . S
C8433 C8431 1.419 . S
C8433 C8434 1.363 . S
C8433 H8436 0.929 . S
C8434 C8433 1.363 . S
C8434 C8440 1.428 . S
H8435 C8431 0.930 . S
H8436 C8433 0.929 . S
S8437 N8438 1.613 . S
S8437 N8439 1.610 . S
N8438 S8437 1.613 . S
N8438 C8441 1.350 . S
N8439 S8437 1.610 . S
N8439 C8440 1.351 . S
C8440 C8434 1.428 . S
C8440 N8439 1.351 . S
C8440 C8441 1.434 . S
C8441 C8432 1.429 . S
C8441 N8438 1.350 . S
C8441 C8440 1.434 . S
C8442 C8443 1.369 . S
C8442 C8444 1.419 . S
C8442 H8446 0.930 . S
C8443 C8442 1.369 . S
C8443 C8452 1.429 . S
C8444 C8442 1.419 . S
C8444 C8445 1.363 . S
C8444 H8447 0.929 . S
C8445 C8444 1.363 . S
C8445 C8451 1.428 1_455 S
H8446 C8442 0.930 . S
H8447 C8444 0.929 . S
S8448 N8449 1.554 1_655 S
S8448 N8450 1.610 . S
N8449 S8448 1.554 1_455 S
N8449 C8452 1.377 . S
N8450 S8448 1.610 . S
N8450 C8451 1.351 . S
C8451 C8445 1.428 1_655 S
C8451 N8450 1.351 . S
C8451 C8452 1.434 1_655 S
C8452 C8443 1.429 . S
C8452 N8449 1.377 . S
C8452 C8451 1.434 1_455 S
C8453 C8454 1.369 . S
C8453 C8455 1.419 . S
C8453 H8457 0.930 . S
C8454 C8453 1.369 . S
C8454 C8463 1.429 . S
C8455 C8453 1.419 . S
C8455 C8456 1.363 . S
C8455 H8458 0.929 . S
C8456 C8455 1.363 . S
C8456 C8462 1.428 . S
H8457 C8453 0.930 . S
H8458 C8455 0.929 . S
S8459 N8460 1.613 . S
S8459 N8461 1.610 . S
N8460 S8459 1.613 . S
N8460 C8463 1.350 . S
N8461 S8459 1.610 . S
N8461 C8462 1.351 . S
C8462 C8456 1.428 . S
C8462 N8461 1.351 . S
C8462 C8463 1.434 . S
C8463 C8454 1.429 . S
C8463 N8460 1.350 . S
C8463 C8462 1.434 . S
C8464 C8465 1.369 . S
C8464 C8466 1.419 . S
C8464 H8468 0.930 . S
C8465 C8464 1.369 . S
C8465 C8474 1.429 . S
C8466 C8464 1.419 . S
C8466 C8467 1.363 . S
C8466 H8469 0.929 . S
C8467 C8466 1.363 . S
C8467 C8473 1.428 . S
H8468 C8464 0.930 . S
H8469 C8466 0.929 . S
S8470 N8471 1.613 . S
S8470 N8472 1.610 . S
N8471 S8470 1.613 . S
N8471 C8474 1.350 . S
N8472 S8470 1.610 . S
N8472 C8473 1.351 . S
C8473 C8467 1.428 . S
C8473 N8472 1.351 . S
C8473 C8474 1.434 . S
C8474 C8465 1.429 . S
C8474 N8471 1.350 . S
C8474 C8473 1.434 . S
C8475 C8476 1.369 . S
C8475 C8477 1.419 . S
C8475 H8479 0.930 . S
C8476 C8475 1.369 . S
C8476 C8485 1.429 . S
C8477 C8475 1.419 . S
C8477 C8478 1.363 . S
C8477 H8480 0.929 . S
C8478 C8477 1.363 . S
C8478 C8484 1.428 . S
H8479 C8475 0.930 . S
H8480 C8477 0.929 . S
S8481 N8482 1.613 . S
S8481 N8483 1.610 . S
N8482 S8481 1.613 . S
N8482 C8485 1.350 . S
N8483 S8481 1.610 . S
N8483 C8484 1.351 . S
C8484 C8478 1.428 . S
C8484 N8483 1.351 . S
C8484 C8485 1.434 . S
C8485 C8476 1.429 . S
C8485 N8482 1.350 . S
C8485 C8484 1.434 . S
C8486 C8487 1.369 . S
C8486 C8488 1.419 . S
C8486 H8490 0.930 . S
C8487 C8486 1.369 . S
C8487 C8496 1.429 . S
C8488 C8486 1.419 . S
C8488 C8489 1.363 . S
C8488 H8491 0.929 . S
C8489 C8488 1.363 . S
C8489 C8495 1.428 . S
H8490 C8486 0.930 . S
H8491 C8488 0.929 . S
S8492 N8493 1.613 . S
S8492 N8494 1.610 . S
N8493 S8492 1.613 . S
N8493 C8496 1.350 . S
N8494 S8492 1.610 . S
N8494 C8495 1.351 . S
C8495 C8489 1.428 . S
C8495 N8494 1.351 . S
C8495 C8496 1.434 . S
C8496 C8487 1.429 . S
C8496 N8493 1.350 . S
C8496 C8495 1.434 . S
C8497 C8498 1.369 . S
C8497 C8499 1.419 . S
C8497 H8501 0.930 . S
C8498 C8497 1.369 . S
C8498 C8507 1.429 . S
C8499 C8497 1.419 . S
C8499 C8500 1.363 . S
C8499 H8502 0.929 . S
C8500 C8499 1.363 . S
C8500 C8506 1.428 . S
H8501 C8497 0.930 . S
H8502 C8499 0.929 . S
S8503 N8504 1.613 . S
S8503 N8505 1.610 . S
N8504 S8503 1.613 . S
N8504 C8507 1.350 . S
N8505 S8503 1.610 . S
N8505 C8506 1.351 . S
C8506 C8500 1.428 . S
C8506 N8505 1.351 . S
C8506 C8507 1.434 . S
C8507 C8498 1.429 . S
C8507 N8504 1.350 . S
C8507 C8506 1.434 . S
C8508 C8509 1.369 . S
C8508 C8510 1.419 . S
C8508 H8512 0.930 . S
C8509 C8508 1.369 . S
C8509 C8518 1.429 . S
C8510 C8508 1.419 . S
C8510 C8511 1.363 . S
C8510 H8513 0.929 . S
C8511 C8510 1.363 . S
C8511 C8517 1.428 . S
H8512 C8508 0.930 . S
H8513 C8510 0.929 . S
S8514 N8515 1.613 . S
S8514 N8516 1.610 . S
N8515 S8514 1.613 . S
N8515 C8518 1.350 . S
N8516 S8514 1.610 . S
N8516 C8517 1.351 . S
C8517 C8511 1.428 . S
C8517 N8516 1.351 . S
C8517 C8518 1.434 . S
C8518 C8509 1.429 . S
C8518 N8515 1.350 . S
C8518 C8517 1.434 . S
C8519 C8520 1.369 . S
C8519 C8521 1.419 . S
C8519 H8523 0.930 . S
C8520 C8519 1.369 . S
C8520 C8529 1.429 . S
C8521 C8519 1.419 . S
C8521 C8522 1.363 . S
C8521 H8524 0.929 . S
C8522 C8521 1.363 . S
C8522 C8528 1.428 . S
H8523 C8519 0.930 . S
H8524 C8521 0.929 . S
S8525 N8526 1.613 . S
S8525 N8527 1.610 . S
N8526 S8525 1.613 . S
N8526 C8529 1.350 . S
N8527 S8525 1.610 . S
N8527 C8528 1.351 . S
C8528 C8522 1.428 . S
C8528 N8527 1.351 . S
C8528 C8529 1.434 . S
C8529 C8520 1.429 . S
C8529 N8526 1.350 . S
C8529 C8528 1.434 . S
C8530 C8531 1.369 . S
C8530 C8532 1.419 . S
C8530 H8534 0.930 . S
C8531 C8530 1.369 . S
C8531 C8540 1.429 . S
C8532 C8530 1.419 . S
C8532 C8533 1.363 . S
C8532 H8535 0.929 . S
C8533 C8532 1.363 . S
C8533 C8539 1.428 . S
H8534 C8530 0.930 . S
H8535 C8532 0.929 . S
S8536 N8537 1.613 . S
S8536 N8538 1.610 . S
N8537 S8536 1.613 . S
N8537 C8540 1.350 . S
N8538 S8536 1.610 . S
N8538 C8539 1.351 . S
C8539 C8533 1.428 . S
C8539 N8538 1.351 . S
C8539 C8540 1.434 . S
C8540 C8531 1.429 . S
C8540 N8537 1.350 . S
C8540 C8539 1.434 . S
C8541 C8542 1.369 . S
C8541 C8543 1.419 . S
C8541 H8545 0.930 . S
C8542 C8541 1.369 . S
C8542 C8551 1.429 . S
C8543 C8541 1.419 . S
C8543 C8544 1.363 . S
C8543 H8546 0.929 . S
C8544 C8543 1.363 . S
C8544 C8550 1.428 . S
H8545 C8541 0.930 . S
H8546 C8543 0.929 . S
S8547 N8548 1.613 . S
S8547 N8549 1.610 . S
N8548 S8547 1.613 . S
N8548 C8551 1.350 . S
N8549 S8547 1.610 . S
N8549 C8550 1.351 . S
C8550 C8544 1.428 . S
C8550 N8549 1.351 . S
C8550 C8551 1.434 . S
C8551 C8542 1.429 . S
C8551 N8548 1.350 . S
C8551 C8550 1.434 . S
C8552 C8553 1.369 . S
C8552 C8554 1.419 . S
C8552 H8556 0.930 . S
C8553 C8552 1.369 . S
C8553 C8562 1.429 . S
C8554 C8552 1.419 . S
C8554 C8555 1.363 . S
C8554 H8557 0.929 . S
C8555 C8554 1.363 . S
C8555 C8561 1.428 . S
H8556 C8552 0.930 . S
H8557 C8554 0.929 . S
S8558 N8559 1.613 . S
S8558 N8560 1.610 . S
N8559 S8558 1.613 . S
N8559 C8562 1.350 . S
N8560 S8558 1.610 . S
N8560 C8561 1.351 . S
C8561 C8555 1.428 . S
C8561 N8560 1.351 . S
C8561 C8562 1.434 . S
C8562 C8553 1.429 . S
C8562 N8559 1.350 . S
C8562 C8561 1.434 . S
C8563 C8564 1.369 . S
C8563 C8565 1.419 . S
C8563 H8567 0.930 . S
C8564 C8563 1.369 . S
C8564 C8573 1.429 . S
C8565 C8563 1.419 . S
C8565 C8566 1.363 . S
C8565 H8568 0.929 . S
C8566 C8565 1.363 . S
C8566 C8572 1.428 . S
H8567 C8563 0.930 . S
H8568 C8565 0.929 . S
S8569 N8570 1.613 . S
S8569 N8571 1.610 . S
N8570 S8569 1.613 . S
N8570 C8573 1.350 . S
N8571 S8569 1.610 . S
N8571 C8572 1.351 . S
C8572 C8566 1.428 . S
C8572 N8571 1.351 . S
C8572 C8573 1.434 . S
C8573 C8564 1.429 . S
C8573 N8570 1.350 . S
C8573 C8572 1.434 . S
C8574 C8575 1.369 . S
C8574 C8576 1.419 . S
C8574 H8578 0.930 . S
C8575 C8574 1.369 . S
C8575 C8584 1.429 . S
C8576 C8574 1.419 . S
C8576 C8577 1.363 . S
C8576 H8579 0.929 . S
C8577 C8576 1.363 . S
C8577 C8583 1.428 . S
H8578 C8574 0.930 . S
H8579 C8576 0.929 . S
S8580 N8581 1.613 . S
S8580 N8582 1.610 . S
N8581 S8580 1.613 . S
N8581 C8584 1.350 . S
N8582 S8580 1.610 . S
N8582 C8583 1.351 . S
C8583 C8577 1.428 . S
C8583 N8582 1.351 . S
C8583 C8584 1.434 . S
C8584 C8575 1.429 . S
C8584 N8581 1.350 . S
C8584 C8583 1.434 . S
C8585 C8586 1.369 . S
C8585 C8587 1.336 1_554 S
C8585 H8589 0.930 . S
C8586 C8585 1.369 . S
C8586 C8595 1.429 . S
C8587 C8585 1.336 1_556 S
C8587 C8588 1.335 1_556 S
C8587 H8590 1.058 . S
C8588 C8587 1.335 1_554 S
C8588 C8594 1.428 . S
H8589 C8585 0.930 . S
H8590 C8587 1.058 . S
S8591 N8592 1.613 . S
S8591 N8593 1.610 . S
N8592 S8591 1.613 . S
N8592 C8595 1.350 . S
N8593 S8591 1.610 . S
N8593 C8594 1.351 . S
C8594 C8588 1.428 . S
C8594 N8593 1.351 . S
C8594 C8595 1.434 . S
C8595 C8586 1.429 . S
C8595 N8592 1.350 . S
C8595 C8594 1.434 . S
C8596 C8597 1.369 . S
C8596 C8598 1.419 . S
C8596 H8600 0.930 . S
C8597 C8596 1.369 . S
C8597 C8606 1.429 . S
C8598 C8596 1.419 . S
C8598 C8599 1.363 . S
C8598 H8601 0.929 . S
C8599 C8598 1.363 . S
C8599 C8605 1.428 . S
H8600 C8596 0.930 . S
H8601 C8598 0.929 . S
S8602 N8603 1.613 . S
S8602 N8604 1.610 . S
N8603 S8602 1.613 . S
N8603 C8606 1.350 . S
N8604 S8602 1.610 . S
N8604 C8605 1.351 . S
C8605 C8599 1.428 . S
C8605 N8604 1.351 . S
C8605 C8606 1.434 . S
C8606 C8597 1.429 . S
C8606 N8603 1.350 . S
C8606 C8605 1.434 . S
C8607 C8608 1.369 . S
C8607 C8609 1.419 . S
C8607 H8611 0.930 . S
C8608 C8607 1.369 . S
C8608 C8617 1.429 . S
C8609 C8607 1.419 . S
C8609 C8610 1.363 . S
C8609 H8612 0.929 . S
C8610 C8609 1.363 . S
C8610 C8616 1.428 1_556 S
H8611 C8607 0.930 . S
H8612 C8609 0.929 . S
S8613 N8614 1.627 . S
S8613 N8615 1.610 . S
N8614 S8613 1.627 . S
N8614 C8617 1.343 1_554 S
N8615 S8613 1.610 . S
N8615 C8616 1.351 . S
C8616 C8610 1.428 1_554 S
C8616 N8615 1.351 . S
C8616 C8617 1.434 1_554 S
C8617 C8608 1.429 . S
C8617 N8614 1.343 1_556 S
C8617 C8616 1.434 1_556 S
C8618 C8619 1.369 . S
C8618 C8620 1.419 . S
C8618 H8622 0.930 . S
C8619 C8618 1.369 . S
C8619 C8628 1.429 . S
C8620 C8618 1.419 . S
C8620 C8621 1.363 . S
C8620 H8623 0.929 . S
C8621 C8620 1.363 . S
C8621 C8627 1.428 . S
H8622 C8618 0.930 . S
H8623 C8620 0.929 . S
S8624 N8625 1.613 . S
S8624 N8626 1.610 . S
N8625 S8624 1.613 . S
N8625 C8628 1.350 . S
N8626 S8624 1.610 . S
N8626 C8627 1.351 . S
C8627 C8621 1.428 . S
C8627 N8626 1.351 . S
C8627 C8628 1.434 . S
C8628 C8619 1.429 . S
C8628 N8625 1.350 . S
C8628 C8627 1.434 . S
C8629 C8630 1.369 . S
C8629 C8631 1.419 . S
C8629 H8633 0.930 . S
C8630 C8629 1.369 . S
C8630 C8639 1.429 . S
C8631 C8629 1.419 . S
C8631 C8632 1.363 . S
C8631 H8634 0.929 . S
C8632 C8631 1.363 . S
C8632 C8638 1.428 . S
H8633 C8629 0.930 . S
H8634 C8631 0.929 . S
S8635 N8636 1.613 . S
S8635 N8637 1.610 . S
N8636 S8635 1.613 . S
N8636 C8639 1.350 . S
N8637 S8635 1.610 . S
N8637 C8638 1.351 . S
C8638 C8632 1.428 . S
C8638 N8637 1.351 . S
C8638 C8639 1.434 . S
C8639 C8630 1.429 . S
C8639 N8636 1.350 . S
C8639 C8638 1.434 . S
C8640 C8641 1.369 . S
C8640 C8642 1.419 . S
C8640 H8644 0.930 . S
C8641 C8640 1.369 . S
C8641 C8650 1.429 . S
C8642 C8640 1.419 . S
C8642 C8643 1.363 . S
C8642 H8645 0.929 . S
C8643 C8642 1.363 . S
C8643 C8649 1.428 . S
H8644 C8640 0.930 . S
H8645 C8642 0.929 . S
S8646 N8647 1.613 . S
S8646 N8648 1.610 . S
N8647 S8646 1.613 . S
N8647 C8650 1.350 . S
N8648 S8646 1.610 . S
N8648 C8649 1.351 . S
C8649 C8643 1.428 . S
C8649 N8648 1.351 . S
C8649 C8650 1.434 . S
C8650 C8641 1.429 . S
C8650 N8647 1.350 . S
C8650 C8649 1.434 . S
C8651 C8652 1.369 . S
C8651 C8653 1.419 . S
C8651 H8655 0.930 . S
C8652 C8651 1.369 . S
C8652 C8661 1.429 . S
C8653 C8651 1.419 . S
C8653 C8654 1.363 . S
C8653 H8656 0.929 . S
C8654 C8653 1.363 . S
C8654 C8660 1.428 . S
H8655 C8651 0.930 . S
H8656 C8653 0.929 . S
S8657 N8658 1.613 . S
S8657 N8659 1.610 . S
N8658 S8657 1.613 . S
N8658 C8661 1.350 . S
N8659 S8657 1.610 . S
N8659 C8660 1.351 . S
C8660 C8654 1.428 . S
C8660 N8659 1.351 . S
C8660 C8661 1.434 . S
C8661 C8652 1.429 . S
C8661 N8658 1.350 . S
C8661 C8660 1.434 . S
C8662 C8663 1.369 . S
C8662 C8664 1.419 . S
C8662 H8666 0.930 . S
C8663 C8662 1.369 . S
C8663 C8672 1.429 . S
C8664 C8662 1.419 . S
C8664 C8665 1.363 . S
C8664 H8667 0.929 . S
C8665 C8664 1.363 . S
C8665 C8671 1.428 . S
H8666 C8662 0.930 . S
H8667 C8664 0.929 . S
S8668 N8669 1.613 . S
S8668 N8670 1.610 . S
N8669 S8668 1.613 . S
N8669 C8672 1.350 . S
N8670 S8668 1.610 . S
N8670 C8671 1.351 . S
C8671 C8665 1.428 . S
C8671 N8670 1.351 . S
C8671 C8672 1.434 . S
C8672 C8663 1.429 . S
C8672 N8669 1.350 . S
C8672 C8671 1.434 . S
C8673 C8674 1.369 . S
C8673 C8675 1.419 . S
C8673 H8677 0.930 . S
C8674 C8673 1.369 . S
C8674 C8683 1.429 . S
C8675 C8673 1.419 . S
C8675 C8676 1.363 . S
C8675 H8678 0.929 . S
C8676 C8675 1.363 . S
C8676 C8682 1.428 . S
H8677 C8673 0.930 . S
H8678 C8675 0.929 . S
S8679 N8680 1.613 . S
S8679 N8681 1.610 . S
N8680 S8679 1.613 . S
N8680 C8683 1.350 . S
N8681 S8679 1.610 . S
N8681 C8682 1.351 . S
C8682 C8676 1.428 . S
C8682 N8681 1.351 . S
C8682 C8683 1.434 . S
C8683 C8674 1.429 . S
C8683 N8680 1.350 . S
C8683 C8682 1.434 . S
C8684 C8685 1.369 . S
C8684 C8686 1.419 . S
C8684 H8688 0.930 . S
C8685 C8684 1.369 . S
C8685 C8694 1.429 . S
C8686 C8684 1.419 . S
C8686 C8687 1.363 . S
C8686 H8689 0.929 . S
C8687 C8686 1.363 . S
C8687 C8693 1.428 . S
H8688 C8684 0.930 . S
H8689 C8686 0.929 . S
S8690 N8691 1.613 . S
S8690 N8692 1.610 . S
N8691 S8690 1.613 . S
N8691 C8694 1.350 . S
N8692 S8690 1.610 . S
N8692 C8693 1.351 . S
C8693 C8687 1.428 . S
C8693 N8692 1.351 . S
C8693 C8694 1.434 . S
C8694 C8685 1.429 . S
C8694 N8691 1.350 . S
C8694 C8693 1.434 . S
C8695 C8696 1.369 . S
C8695 C8697 1.419 . S
C8695 H8699 0.930 . S
C8696 C8695 1.369 . S
C8696 C8705 1.429 . S
C8697 C8695 1.419 . S
C8697 C8698 1.363 . S
C8697 H8700 0.929 . S
C8698 C8697 1.363 . S
C8698 C8704 1.428 . S
H8699 C8695 0.930 . S
H8700 C8697 0.929 . S
S8701 N8702 1.613 . S
S8701 N8703 1.610 . S
N8702 S8701 1.613 . S
N8702 C8705 1.350 . S
N8703 S8701 1.610 . S
N8703 C8704 1.351 . S
C8704 C8698 1.428 . S
C8704 N8703 1.351 . S
C8704 C8705 1.434 . S
C8705 C8696 1.429 . S
C8705 N8702 1.350 . S
C8705 C8704 1.434 . S
C8706 C8707 1.369 . S
C8706 C8708 1.419 . S
C8706 H8710 0.930 . S
C8707 C8706 1.369 . S
C8707 C8716 1.429 . S
C8708 C8706 1.419 . S
C8708 C8709 1.363 . S
C8708 H8711 0.929 . S
C8709 C8708 1.363 . S
C8709 C8715 1.428 . S
H8710 C8706 0.930 . S
H8711 C8708 0.929 . S
S8712 N8713 1.613 . S
S8712 N8714 1.610 . S
N8713 S8712 1.613 . S
N8713 C8716 1.350 . S
N8714 S8712 1.610 . S
N8714 C8715 1.351 . S
C8715 C8709 1.428 . S
C8715 N8714 1.351 . S
C8715 C8716 1.434 . S
C8716 C8707 1.429 . S
C8716 N8713 1.350 . S
C8716 C8715 1.434 . S
C8717 C8718 1.369 . S
C8717 C8719 1.419 . S
C8717 H8721 0.930 . S
C8718 C8717 1.369 . S
C8718 C8727 1.429 . S
C8719 C8717 1.419 . S
C8719 C8720 1.363 . S
C8719 H8722 0.929 . S
C8720 C8719 1.363 . S
C8720 C8726 1.428 . S
H8721 C8717 0.930 . S
H8722 C8719 0.929 . S
S8723 N8724 1.613 . S
S8723 N8725 1.610 . S
N8724 S8723 1.613 . S
N8724 C8727 1.350 . S
N8725 S8723 1.610 . S
N8725 C8726 1.351 . S
C8726 C8720 1.428 . S
C8726 N8725 1.351 . S
C8726 C8727 1.434 . S
C8727 C8718 1.429 . S
C8727 N8724 1.350 . S
C8727 C8726 1.434 . S
C8728 C8729 1.369 . S
C8728 C8730 1.419 . S
C8728 H8732 0.930 . S
C8729 C8728 1.369 . S
C8729 C8738 1.429 . S
C8730 C8728 1.419 . S
C8730 C8731 1.363 . S
C8730 H8733 0.929 . S
C8731 C8730 1.363 . S
C8731 C8737 1.428 . S
H8732 C8728 0.930 . S
H8733 C8730 0.929 . S
S8734 N8735 1.613 . S
S8734 N8736 1.610 . S
N8735 S8734 1.613 . S
N8735 C8738 1.350 . S
N8736 S8734 1.610 . S
N8736 C8737 1.351 . S
C8737 C8731 1.428 . S
C8737 N8736 1.351 . S
C8737 C8738 1.434 . S
C8738 C8729 1.429 . S
C8738 N8735 1.350 . S
C8738 C8737 1.434 . S
C8739 C8740 1.369 . S
C8739 C8741 1.419 . S
C8739 H8743 0.930 . S
C8740 C8739 1.369 . S
C8740 C8749 1.429 . S
C8741 C8739 1.419 . S
C8741 C8742 1.363 . S
C8741 H8744 0.929 . S
C8742 C8741 1.363 . S
C8742 C8748 1.428 . S
H8743 C8739 0.930 . S
H8744 C8741 0.929 . S
S8745 N8746 1.613 . S
S8745 N8747 1.610 . S
N8746 S8745 1.613 . S
N8746 C8749 1.350 . S
N8747 S8745 1.610 . S
N8747 C8748 1.351 . S
C8748 C8742 1.428 . S
C8748 N8747 1.351 . S
C8748 C8749 1.434 . S
C8749 C8740 1.429 . S
C8749 N8746 1.350 . S
C8749 C8748 1.434 . S
C8750 C8751 1.369 . S
C8750 C8752 1.419 . S
C8750 H8754 0.930 . S
C8751 C8750 1.369 . S
C8751 C8760 1.429 . S
C8752 C8750 1.419 . S
C8752 C8753 1.363 . S
C8752 H8755 0.929 . S
C8753 C8752 1.363 . S
C8753 C8759 1.428 . S
H8754 C8750 0.930 . S
H8755 C8752 0.929 . S
S8756 N8757 1.613 . S
S8756 N8758 1.610 . S
N8757 S8756 1.613 . S
N8757 C8760 1.350 . S
N8758 S8756 1.610 . S
N8758 C8759 1.351 . S
C8759 C8753 1.428 . S
C8759 N8758 1.351 . S
C8759 C8760 1.434 . S
C8760 C8751 1.429 . S
C8760 N8757 1.350 . S
C8760 C8759 1.434 . S
C8761 C8762 1.369 . S
C8761 C8763 1.419 . S
C8761 H8765 0.930 . S
C8762 C8761 1.369 . S
C8762 C8771 1.429 . S
C8763 C8761 1.419 . S
C8763 C8764 1.363 . S
C8763 H8766 0.929 . S
C8764 C8763 1.363 . S
C8764 C8770 1.428 . S
H8765 C8761 0.930 . S
H8766 C8763 0.929 . S
S8767 N8768 1.613 . S
S8767 N8769 1.610 . S
N8768 S8767 1.613 . S
N8768 C8771 1.350 . S
N8769 S8767 1.610 . S
N8769 C8770 1.351 . S
C8770 C8764 1.428 . S
C8770 N8769 1.351 . S
C8770 C8771 1.434 . S
C8771 C8762 1.429 . S
C8771 N8768 1.350 . S
C8771 C8770 1.434 . S
C8772 C8773 1.369 . S
C8772 C8774 1.419 . S
C8772 H8776 0.930 . S
C8773 C8772 1.369 . S
C8773 C8782 1.429 . S
C8774 C8772 1.419 . S
C8774 C8775 1.363 . S
C8774 H8777 0.929 . S
C8775 C8774 1.363 . S
C8775 C8781 1.428 . S
H8776 C8772 0.930 . S
H8777 C8774 0.929 . S
S8778 N8779 1.613 . S
S8778 N8780 1.610 . S
N8779 S8778 1.613 . S
N8779 C8782 1.350 . S
N8780 S8778 1.610 . S
N8780 C8781 1.351 . S
C8781 C8775 1.428 . S
C8781 N8780 1.351 . S
C8781 C8782 1.434 . S
C8782 C8773 1.429 . S
C8782 N8779 1.350 . S
C8782 C8781 1.434 . S
C8783 C8784 1.369 . S
C8783 C8785 1.419 . S
C8783 H8787 0.930 . S
C8784 C8783 1.369 . S
C8784 C8793 1.429 . S
C8785 C8783 1.419 . S
C8785 C8786 1.363 . S
C8785 H8788 0.929 . S
C8786 C8785 1.363 . S
C8786 C8792 1.428 . S
H8787 C8783 0.930 . S
H8788 C8785 0.929 . S
S8789 N8790 1.613 . S
S8789 N8791 1.610 . S
N8790 S8789 1.613 . S
N8790 C8793 1.350 . S
N8791 S8789 1.610 . S
N8791 C8792 1.351 . S
C8792 C8786 1.428 . S
C8792 N8791 1.351 . S
C8792 C8793 1.434 . S
C8793 C8784 1.429 . S
C8793 N8790 1.350 . S
C8793 C8792 1.434 . S
C8794 C8795 1.369 . S
C8794 C8796 1.419 . S
C8794 H8798 0.930 . S
C8795 C8794 1.369 . S
C8795 C8804 1.429 . S
C8796 C8794 1.419 . S
C8796 C8797 1.363 . S
C8796 H8799 0.929 . S
C8797 C8796 1.363 . S
C8797 C8803 1.428 . S
H8798 C8794 0.930 . S
H8799 C8796 0.929 . S
S8800 N8801 1.613 . S
S8800 N8802 1.610 . S
N8801 S8800 1.613 . S
N8801 C8804 1.350 . S
N8802 S8800 1.610 . S
N8802 C8803 1.351 . S
C8803 C8797 1.428 . S
C8803 N8802 1.351 . S
C8803 C8804 1.434 . S
C8804 C8795 1.429 . S
C8804 N8801 1.350 . S
C8804 C8803 1.434 . S
C8805 C8806 1.369 . S
C8805 C8807 1.419 . S
C8805 H8809 0.930 . S
C8806 C8805 1.369 . S
C8806 C8815 1.429 . S
C8807 C8805 1.419 . S
C8807 C8808 1.363 . S
C8807 H8810 0.929 . S
C8808 C8807 1.363 . S
C8808 C8814 1.428 . S
H8809 C8805 0.930 . S
H8810 C8807 0.929 . S
S8811 N8812 1.613 . S
S8811 N8813 1.610 . S
N8812 S8811 1.613 . S
N8812 C8815 1.350 . S
N8813 S8811 1.610 . S
N8813 C8814 1.351 . S
C8814 C8808 1.428 . S
C8814 N8813 1.351 . S
C8814 C8815 1.434 . S
C8815 C8806 1.429 . S
C8815 N8812 1.350 . S
C8815 C8814 1.434 . S
C8816 C8817 1.369 . S
C8816 C8818 1.419 . S
C8816 H8820 0.930 . S
C8817 C8816 1.369 . S
C8817 C8826 1.429 . S
C8818 C8816 1.419 . S
C8818 C8819 1.363 . S
C8818 H8821 0.929 . S
C8819 C8818 1.363 . S
C8819 C8825 1.428 . S
H8820 C8816 0.930 . S
H8821 C8818 0.929 . S
S8822 N8823 1.613 . S
S8822 N8824 1.610 . S
N8823 S8822 1.613 . S
N8823 C8826 1.350 . S
N8824 S8822 1.610 . S
N8824 C8825 1.351 . S
C8825 C8819 1.428 . S
C8825 N8824 1.351 . S
C8825 C8826 1.434 . S
C8826 C8817 1.429 . S
C8826 N8823 1.350 . S
C8826 C8825 1.434 . S
C8827 C8828 1.369 . S
C8827 C8829 1.419 . S
C8827 H8831 0.930 . S
C8828 C8827 1.369 . S
C8828 C8837 1.429 . S
C8829 C8827 1.419 . S
C8829 C8830 1.363 . S
C8829 H8832 0.929 . S
C8830 C8829 1.363 . S
C8830 C8836 1.428 . S
H8831 C8827 0.930 . S
H8832 C8829 0.929 . S
S8833 N8834 1.613 . S
S8833 N8835 1.610 . S
N8834 S8833 1.613 . S
N8834 C8837 1.350 . S
N8835 S8833 1.610 . S
N8835 C8836 1.351 . S
C8836 C8830 1.428 . S
C8836 N8835 1.351 . S
C8836 C8837 1.434 . S
C8837 C8828 1.429 . S
C8837 N8834 1.350 . S
C8837 C8836 1.434 . S
C8838 C8839 1.369 . S
C8838 C8840 1.419 . S
C8838 H8842 0.930 . S
C8839 C8838 1.369 . S
C8839 C8848 1.429 . S
C8840 C8838 1.419 . S
C8840 C8841 1.363 . S
C8840 H8843 0.929 . S
C8841 C8840 1.363 . S
C8841 C8847 1.428 . S
H8842 C8838 0.930 . S
H8843 C8840 0.929 . S
S8844 N8845 1.613 . S
S8844 N8846 1.610 . S
N8845 S8844 1.613 . S
N8845 C8848 1.350 . S
N8846 S8844 1.610 . S
N8846 C8847 1.351 . S
C8847 C8841 1.428 . S
C8847 N8846 1.351 . S
C8847 C8848 1.434 . S
C8848 C8839 1.429 . S
C8848 N8845 1.350 . S
C8848 C8847 1.434 . S
C8849 C8850 1.369 . S
C8849 C8851 1.419 . S
C8849 H8853 0.930 . S
C8850 C8849 1.369 . S
C8850 C8859 1.429 . S
C8851 C8849 1.419 . S
C8851 C8852 1.363 . S
C8851 H8854 0.929 . S
C8852 C8851 1.363 . S
C8852 C8858 1.428 . S
H8853 C8849 0.930 . S
H8854 C8851 0.929 . S
S8855 N8856 1.613 . S
S8855 N8857 1.610 . S
N8856 S8855 1.613 . S
N8856 C8859 1.350 . S
N8857 S8855 1.610 . S
N8857 C8858 1.351 . S
C8858 C8852 1.428 . S
C8858 N8857 1.351 . S
C8858 C8859 1.434 . S
C8859 C8850 1.429 . S
C8859 N8856 1.350 . S
C8859 C8858 1.434 . S
C8860 C8861 1.369 . S
C8860 C8862 1.419 . S
C8860 H8864 0.930 . S
C8861 C8860 1.369 . S
C8861 C8870 1.429 . S
C8862 C8860 1.419 . S
C8862 C8863 1.363 . S
C8862 H8865 0.929 . S
C8863 C8862 1.363 . S
C8863 C8869 1.428 . S
H8864 C8860 0.930 . S
H8865 C8862 0.929 . S
S8866 N8867 1.613 . S
S8866 N8868 1.610 . S
N8867 S8866 1.613 . S
N8867 C8870 1.350 . S
N8868 S8866 1.610 . S
N8868 C8869 1.351 . S
C8869 C8863 1.428 . S
C8869 N8868 1.351 . S
C8869 C8870 1.434 . S
C8870 C8861 1.429 . S
C8870 N8867 1.350 . S
C8870 C8869 1.434 . S
C8871 C8872 1.369 . S
C8871 C8873 1.419 . S
C8871 H8875 0.930 . S
C8872 C8871 1.369 . S
C8872 C8881 1.429 . S
C8873 C8871 1.419 . S
C8873 C8874 1.363 . S
C8873 H8876 0.929 . S
C8874 C8873 1.363 . S
C8874 C8880 1.428 . S
H8875 C8871 0.930 . S
H8876 C8873 0.929 . S
S8877 N8878 1.613 . S
S8877 N8879 1.610 . S
N8878 S8877 1.613 . S
N8878 C8881 1.350 . S
N8879 S8877 1.610 . S
N8879 C8880 1.351 . S
C8880 C8874 1.428 . S
C8880 N8879 1.351 . S
C8880 C8881 1.434 . S
C8881 C8872 1.429 . S
C8881 N8878 1.350 . S
C8881 C8880 1.434 . S
C8882 C8883 1.369 . S
C8882 C8884 1.419 . S
C8882 H8886 0.930 . S
C8883 C8882 1.369 . S
C8883 C8892 1.429 . S
C8884 C8882 1.419 . S
C8884 C8885 1.363 . S
C8884 H8887 0.929 . S
C8885 C8884 1.363 . S
C8885 C8891 1.428 . S
H8886 C8882 0.930 . S
H8887 C8884 0.929 . S
S8888 N8889 1.613 . S
S8888 N8890 1.610 . S
N8889 S8888 1.613 . S
N8889 C8892 1.350 . S
N8890 S8888 1.610 . S
N8890 C8891 1.351 . S
C8891 C8885 1.428 . S
C8891 N8890 1.351 . S
C8891 C8892 1.434 . S
C8892 C8883 1.429 . S
C8892 N8889 1.350 . S
C8892 C8891 1.434 . S
C8893 C8894 1.369 . S
C8893 C8895 1.419 . S
C8893 H8897 0.930 . S
C8894 C8893 1.369 . S
C8894 C8903 1.429 . S
C8895 C8893 1.419 . S
C8895 C8896 1.363 . S
C8895 H8898 0.929 . S
C8896 C8895 1.363 . S
C8896 C8902 1.428 . S
H8897 C8893 0.930 . S
H8898 C8895 0.929 . S
S8899 N8900 1.613 . S
S8899 N8901 1.610 . S
N8900 S8899 1.613 . S
N8900 C8903 1.350 . S
N8901 S8899 1.610 . S
N8901 C8902 1.351 . S
C8902 C8896 1.428 . S
C8902 N8901 1.351 . S
C8902 C8903 1.434 . S
C8903 C8894 1.429 . S
C8903 N8900 1.350 . S
C8903 C8902 1.434 . S
C8904 C8905 1.369 . S
C8904 C8906 1.419 . S
C8904 H8908 0.930 . S
C8905 C8904 1.369 . S
C8905 C8914 1.429 . S
C8906 C8904 1.419 . S
C8906 C8907 1.363 . S
C8906 H8909 0.929 . S
C8907 C8906 1.363 . S
C8907 C8913 1.428 . S
H8908 C8904 0.930 . S
H8909 C8906 0.929 . S
S8910 N8911 1.613 . S
S8910 N8912 1.610 . S
N8911 S8910 1.613 . S
N8911 C8914 1.350 . S
N8912 S8910 1.610 . S
N8912 C8913 1.351 . S
C8913 C8907 1.428 . S
C8913 N8912 1.351 . S
C8913 C8914 1.434 . S
C8914 C8905 1.429 . S
C8914 N8911 1.350 . S
C8914 C8913 1.434 . S
C8915 C8916 1.369 . S
C8915 C8917 1.419 . S
C8915 H8919 0.930 . S
C8916 C8915 1.369 . S
C8916 C8925 1.429 . S
C8917 C8915 1.419 . S
C8917 C8918 1.363 . S
C8917 H8920 0.929 . S
C8918 C8917 1.363 . S
C8918 C8924 1.428 . S
H8919 C8915 0.930 . S
H8920 C8917 0.929 . S
S8921 N8922 1.613 . S
S8921 N8923 1.610 . S
N8922 S8921 1.613 . S
N8922 C8925 1.350 . S
N8923 S8921 1.610 . S
N8923 C8924 1.351 . S
C8924 C8918 1.428 . S
C8924 N8923 1.351 . S
C8924 C8925 1.434 . S
C8925 C8916 1.429 . S
C8925 N8922 1.350 . S
C8925 C8924 1.434 . S
C8926 C8927 1.369 . S
C8926 C8928 1.419 . S
C8926 H8930 0.930 . S
C8927 C8926 1.369 . S
C8927 C8936 1.429 . S
C8928 C8926 1.419 . S
C8928 C8929 1.363 . S
C8928 H8931 0.929 . S
C8929 C8928 1.363 . S
C8929 C8935 1.428 . S
H8930 C8926 0.930 . S
H8931 C8928 0.929 . S
S8932 N8933 1.613 . S
S8932 N8934 1.610 . S
N8933 S8932 1.613 . S
N8933 C8936 1.350 . S
N8934 S8932 1.610 . S
N8934 C8935 1.351 . S
C8935 C8929 1.428 . S
C8935 N8934 1.351 . S
C8935 C8936 1.434 . S
C8936 C8927 1.429 . S
C8936 N8933 1.350 . S
C8936 C8935 1.434 . S
C8937 C8938 1.369 . S
C8937 C8939 1.419 . S
C8937 H8941 0.930 . S
C8938 C8937 1.369 . S
C8938 C8947 1.429 . S
C8939 C8937 1.419 . S
C8939 C8940 1.363 . S
C8939 H8942 0.929 . S
C8940 C8939 1.363 . S
C8940 C8946 1.428 . S
H8941 C8937 0.930 . S
H8942 C8939 0.929 . S
S8943 N8944 1.613 . S
S8943 N8945 1.610 . S
N8944 S8943 1.613 . S
N8944 C8947 1.350 . S
N8945 S8943 1.610 . S
N8945 C8946 1.351 . S
C8946 C8940 1.428 . S
C8946 N8945 1.351 . S
C8946 C8947 1.434 . S
C8947 C8938 1.429 . S
C8947 N8944 1.350 . S
C8947 C8946 1.434 . S
C8948 C8949 1.369 . S
C8948 C8950 1.419 . S
C8948 H8952 0.930 . S
C8949 C8948 1.369 . S
C8949 C8958 1.429 . S
C8950 C8948 1.419 . S
C8950 C8951 1.363 . S
C8950 H8953 0.929 . S
C8951 C8950 1.363 . S
C8951 C8957 1.428 . S
H8952 C8948 0.930 . S
H8953 C8950 0.929 . S
S8954 N8955 1.613 . S
S8954 N8956 1.610 . S
N8955 S8954 1.613 . S
N8955 C8958 1.350 . S
N8956 S8954 1.610 . S
N8956 C8957 1.351 . S
C8957 C8951 1.428 . S
C8957 N8956 1.351 . S
C8957 C8958 1.434 . S
C8958 C8949 1.429 . S
C8958 N8955 1.350 . S
C8958 C8957 1.434 . S
C8959 C8960 1.369 . S
C8959 C8961 1.419 . S
C8959 H8963 0.930 . S
C8960 C8959 1.369 . S
C8960 C8969 1.429 . S
C8961 C8959 1.419 . S
C8961 C8962 1.363 . S
C8961 H8964 0.929 . S
C8962 C8961 1.363 . S
C8962 C8968 1.428 . S
H8963 C8959 0.930 . S
H8964 C8961 0.929 . S
S8965 N8966 1.613 . S
S8965 N8967 1.610 . S
N8966 S8965 1.613 . S
N8966 C8969 1.350 . S
N8967 S8965 1.610 . S
N8967 C8968 1.351 . S
C8968 C8962 1.428 . S
C8968 N8967 1.351 . S
C8968 C8969 1.434 . S
C8969 C8960 1.429 . S
C8969 N8966 1.350 . S
C8969 C8968 1.434 . S
C8970 C8971 1.369 . S
C8970 C8972 1.419 . S
C8970 H8974 0.930 . S
C8971 C8970 1.369 . S
C8971 C8980 1.429 . S
C8972 C8970 1.419 . S
C8972 C8973 1.363 . S
C8972 H8975 0.929 . S
C8973 C8972 1.363 . S
C8973 C8979 1.428 . S
H8974 C8970 0.930 . S
H8975 C8972 0.929 . S
S8976 N8977 1.613 . S
S8976 N8978 1.610 . S
N8977 S8976 1.613 . S
N8977 C8980 1.350 . S
N8978 S8976 1.610 . S
N8978 C8979 1.351 . S
C8979 C8973 1.428 . S
C8979 N8978 1.351 . S
C8979 C8980 1.434 . S
C8980 C8971 1.429 . S
C8980 N8977 1.350 . S
C8980 C8979 1.434 . S
C8981 C8982 1.369 . S
C8981 C8983 1.419 . S
C8981 H8985 0.930 . S
C8982 C8981 1.369 . S
C8982 C8991 1.429 . S
C8983 C8981 1.419 . S
C8983 C8984 1.363 . S
C8983 H8986 0.929 . S
C8984 C8983 1.363 . S
C8984 C8990 1.428 . S
H8985 C8981 0.930 . S
H8986 C8983 0.929 . S
S8987 N8988 1.613 . S
S8987 N8989 1.610 . S
N8988 S8987 1.613 . S
N8988 C8991 1.350 . S
N8989 S8987 1.610 . S
N8989 C8990 1.351 . S
C8990 C8984 1.428 . S
C8990 N8989 1.351 . S
C8990 C8991 1.434 . S
C8991 C8982 1.429 . S
C8991 N8988 1.350 . S
C8991 C8990 1.434 . S
C8992 C8993 1.369 . S
C8992 C8994 1.419 . S
C8992 H8996 0.930 . S
C8993 C8992 1.369 . S
C8993 C9002 1.429 . S
C8994 C8992 1.419 . S
C8994 C8995 1.363 . S
C8994 H8997 0.929 . S
C8995 C8994 1.363 . S
C8995 C9001 1.428 . S
H8996 C8992 0.930 . S
H8997 C8994 0.929 . S
S8998 N8999 1.613 . S
S8998 N9000 1.610 . S
N8999 S8998 1.613 . S
N8999 C9002 1.350 . S
N9000 S8998 1.610 . S
N9000 C9001 1.351 . S
C9001 C8995 1.428 . S
C9001 N9000 1.351 . S
C9001 C9002 1.434 . S
C9002 C8993 1.429 . S
C9002 N8999 1.350 . S
C9002 C9001 1.434 . S
C9003 C9004 1.369 . S
C9003 C9005 1.419 . S
C9003 H9007 0.930 . S
C9004 C9003 1.369 . S
C9004 C9013 1.429 . S
C9005 C9003 1.419 . S
C9005 C9006 1.363 . S
C9005 H9008 0.929 . S
C9006 C9005 1.363 . S
C9006 C9012 1.428 . S
H9007 C9003 0.930 . S
H9008 C9005 0.929 . S
S9009 N9010 1.613 . S
S9009 N9011 1.610 . S
N9010 S9009 1.613 . S
N9010 C9013 1.350 . S
N9011 S9009 1.610 . S
N9011 C9012 1.351 . S
C9012 C9006 1.428 . S
C9012 N9011 1.351 . S
C9012 C9013 1.434 . S
C9013 C9004 1.429 . S
C9013 N9010 1.350 . S
C9013 C9012 1.434 . S
C9014 C9015 1.369 . S
C9014 C9016 1.419 . S
C9014 H9018 0.930 . S
C9015 C9014 1.369 . S
C9015 C9024 1.429 . S
C9016 C9014 1.419 . S
C9016 C9017 1.363 . S
C9016 H9019 0.929 . S
C9017 C9016 1.363 . S
C9017 C9023 1.428 . S
H9018 C9014 0.930 . S
H9019 C9016 0.929 . S
S9020 N9021 1.613 . S
S9020 N9022 1.610 . S
N9021 S9020 1.613 . S
N9021 C9024 1.350 . S
N9022 S9020 1.610 . S
N9022 C9023 1.351 . S
C9023 C9017 1.428 . S
C9023 N9022 1.351 . S
C9023 C9024 1.434 . S
C9024 C9015 1.429 . S
C9024 N9021 1.350 . S
C9024 C9023 1.434 . S
C9025 C9026 1.369 . S
C9025 C9027 1.419 . S
C9025 H9029 0.930 . S
C9026 C9025 1.369 . S
C9026 C9035 1.429 . S
C9027 C9025 1.419 . S
C9027 C9028 1.363 . S
C9027 H9030 0.929 . S
C9028 C9027 1.363 . S
C9028 C9034 1.428 . S
H9029 C9025 0.930 . S
H9030 C9027 0.929 . S
S9031 N9032 1.613 . S
S9031 N9033 1.610 . S
N9032 S9031 1.613 . S
N9032 C9035 1.350 . S
N9033 S9031 1.610 . S
N9033 C9034 1.351 . S
C9034 C9028 1.428 . S
C9034 N9033 1.351 . S
C9034 C9035 1.434 . S
C9035 C9026 1.429 . S
C9035 N9032 1.350 . S
C9035 C9034 1.434 . S
C9036 C9037 1.369 . S
C9036 C9038 1.419 . S
C9036 H9040 0.930 . S
C9037 C9036 1.369 . S
C9037 C9046 1.429 . S
C9038 C9036 1.419 . S
C9038 C9039 1.363 . S
C9038 H9041 0.929 . S
C9039 C9038 1.363 . S
C9039 C9045 1.428 . S
H9040 C9036 0.930 . S
H9041 C9038 0.929 . S
S9042 N9043 1.613 . S
S9042 N9044 1.610 . S
N9043 S9042 1.613 . S
N9043 C9046 1.350 . S
N9044 S9042 1.610 . S
N9044 C9045 1.351 . S
C9045 C9039 1.428 . S
C9045 N9044 1.351 . S
C9045 C9046 1.434 . S
C9046 C9037 1.429 . S
C9046 N9043 1.350 . S
C9046 C9045 1.434 . S
C9047 C9048 1.369 . S
C9047 C9049 1.419 . S
C9047 H9051 0.930 . S
C9048 C9047 1.369 . S
C9048 C9057 1.429 . S
C9049 C9047 1.419 . S
C9049 C9050 1.363 . S
C9049 H9052 0.929 . S
C9050 C9049 1.363 . S
C9050 C9056 1.428 . S
H9051 C9047 0.930 . S
H9052 C9049 0.929 . S
S9053 N9054 1.613 . S
S9053 N9055 1.610 . S
N9054 S9053 1.613 . S
N9054 C9057 1.350 . S
N9055 S9053 1.610 . S
N9055 C9056 1.351 . S
C9056 C9050 1.428 . S
C9056 N9055 1.351 . S
C9056 C9057 1.434 . S
C9057 C9048 1.429 . S
C9057 N9054 1.350 . S
C9057 C9056 1.434 . S
C9058 C9059 1.369 . S
C9058 C9060 1.419 . S
C9058 H9062 0.930 . S
C9059 C9058 1.369 . S
C9059 C9068 1.429 . S
C9060 C9058 1.419 . S
C9060 C9061 1.363 . S
C9060 H9063 0.929 . S
C9061 C9060 1.363 . S
C9061 C9067 1.428 . S
H9062 C9058 0.930 . S
H9063 C9060 0.929 . S
S9064 N9065 1.613 . S
S9064 N9066 1.610 . S
N9065 S9064 1.613 . S
N9065 C9068 1.350 . S
N9066 S9064 1.610 . S
N9066 C9067 1.351 . S
C9067 C9061 1.428 . S
C9067 N9066 1.351 . S
C9067 C9068 1.434 . S
C9068 C9059 1.429 . S
C9068 N9065 1.350 . S
C9068 C9067 1.434 . S
C9069 C9070 1.369 . S
C9069 C9071 1.419 . S
C9069 H9073 0.930 . S
C9070 C9069 1.369 . S
C9070 C9079 1.429 . S
C9071 C9069 1.419 . S
C9071 C9072 1.363 . S
C9071 H9074 0.929 . S
C9072 C9071 1.363 . S
C9072 C9078 1.428 . S
H9073 C9069 0.930 . S
H9074 C9071 0.929 . S
S9075 N9076 1.613 . S
S9075 N9077 1.610 . S
N9076 S9075 1.613 . S
N9076 C9079 1.350 . S
N9077 S9075 1.610 . S
N9077 C9078 1.351 . S
C9078 C9072 1.428 . S
C9078 N9077 1.351 . S
C9078 C9079 1.434 . S
C9079 C9070 1.429 . S
C9079 N9076 1.350 . S
C9079 C9078 1.434 . S
C9080 C9081 1.369 . S
C9080 C9082 1.419 . S
C9080 H9084 0.930 . S
C9081 C9080 1.369 . S
C9081 C9090 1.429 . S
C9082 C9080 1.419 . S
C9082 C9083 1.363 . S
C9082 H9085 0.929 . S
C9083 C9082 1.363 . S
C9083 C9089 1.428 . S
H9084 C9080 0.930 . S
H9085 C9082 0.929 . S
S9086 N9087 1.613 . S
S9086 N9088 1.610 . S
N9087 S9086 1.613 . S
N9087 C9090 1.350 . S
N9088 S9086 1.610 . S
N9088 C9089 1.351 . S
C9089 C9083 1.428 . S
C9089 N9088 1.351 . S
C9089 C9090 1.434 . S
C9090 C9081 1.429 . S
C9090 N9087 1.350 . S
C9090 C9089 1.434 . S
C9091 C9092 1.369 . S
C9091 C9093 1.419 . S
C9091 H9095 0.930 . S
C9092 C9091 1.369 . S
C9092 C9101 1.429 . S
C9093 C9091 1.419 . S
C9093 C9094 1.363 . S
C9093 H9096 0.929 . S
C9094 C9093 1.363 . S
C9094 C9100 1.428 . S
H9095 C9091 0.930 . S
H9096 C9093 0.929 . S
S9097 N9098 1.613 . S
S9097 N9099 1.610 . S
N9098 S9097 1.613 . S
N9098 C9101 1.350 . S
N9099 S9097 1.610 . S
N9099 C9100 1.351 . S
C9100 C9094 1.428 . S
C9100 N9099 1.351 . S
C9100 C9101 1.434 . S
C9101 C9092 1.429 . S
C9101 N9098 1.350 . S
C9101 C9100 1.434 . S
C9102 C9103 1.369 . S
C9102 C9104 1.419 . S
C9102 H9106 0.930 . S
C9103 C9102 1.369 . S
C9103 C9112 1.429 . S
C9104 C9102 1.419 . S
C9104 C9105 1.363 . S
C9104 H9107 0.929 . S
C9105 C9104 1.363 . S
C9105 C9111 1.428 . S
H9106 C9102 0.930 . S
H9107 C9104 0.929 . S
S9108 N9109 1.613 . S
S9108 N9110 1.610 . S
N9109 S9108 1.613 . S
N9109 C9112 1.350 . S
N9110 S9108 1.610 . S
N9110 C9111 1.351 . S
C9111 C9105 1.428 . S
C9111 N9110 1.351 . S
C9111 C9112 1.434 . S
C9112 C9103 1.429 . S
C9112 N9109 1.350 . S
C9112 C9111 1.434 . S
C9113 C9114 1.369 . S
C9113 C9115 1.419 . S
C9113 H9117 0.930 . S
C9114 C9113 1.369 . S
C9114 C9123 1.429 . S
C9115 C9113 1.419 . S
C9115 C9116 1.363 . S
C9115 H9118 0.929 . S
C9116 C9115 1.363 . S
C9116 C9122 1.428 . S
H9117 C9113 0.930 . S
H9118 C9115 0.929 . S
S9119 N9120 1.613 . S
S9119 N9121 1.610 . S
N9120 S9119 1.613 . S
N9120 C9123 1.350 . S
N9121 S9119 1.610 . S
N9121 C9122 1.351 . S
C9122 C9116 1.428 . S
C9122 N9121 1.351 . S
C9122 C9123 1.434 . S
C9123 C9114 1.429 . S
C9123 N9120 1.350 . S
C9123 C9122 1.434 . S
C9124 C9125 1.369 . S
C9124 C9126 1.419 . S
C9124 H9128 0.930 . S
C9125 C9124 1.369 . S
C9125 C9134 1.429 . S
C9126 C9124 1.419 . S
C9126 C9127 1.363 . S
C9126 H9129 0.929 . S
C9127 C9126 1.363 . S
C9127 C9133 1.428 . S
H9128 C9124 0.930 . S
H9129 C9126 0.929 . S
S9130 N9131 1.613 . S
S9130 N9132 1.610 . S
N9131 S9130 1.613 . S
N9131 C9134 1.350 . S
N9132 S9130 1.610 . S
N9132 C9133 1.351 . S
C9133 C9127 1.428 . S
C9133 N9132 1.351 . S
C9133 C9134 1.434 . S
C9134 C9125 1.429 . S
C9134 N9131 1.350 . S
C9134 C9133 1.434 . S
C9135 C9136 1.369 . S
C9135 C9137 1.419 . S
C9135 H9139 0.930 . S
C9136 C9135 1.369 . S
C9136 C9145 1.429 . S
C9137 C9135 1.419 . S
C9137 C9138 1.363 . S
C9137 H9140 0.929 . S
C9138 C9137 1.363 . S
C9138 C9144 1.428 . S
H9139 C9135 0.930 . S
H9140 C9137 0.929 . S
S9141 N9142 1.613 . S
S9141 N9143 1.610 . S
N9142 S9141 1.613 . S
N9142 C9145 1.350 . S
N9143 S9141 1.610 . S
N9143 C9144 1.351 . S
C9144 C9138 1.428 . S
C9144 N9143 1.351 . S
C9144 C9145 1.434 . S
C9145 C9136 1.429 . S
C9145 N9142 1.350 . S
C9145 C9144 1.434 . S
C9146 C9147 1.369 . S
C9146 C9148 1.419 . S
C9146 H9150 0.930 . S
C9147 C9146 1.369 . S
C9147 C9156 1.429 . S
C9148 C9146 1.419 . S
C9148 C9149 1.363 . S
C9148 H9151 0.929 . S
C9149 C9148 1.363 . S
C9149 C9155 1.428 . S
H9150 C9146 0.930 . S
H9151 C9148 0.929 . S
S9152 N9153 1.613 . S
S9152 N9154 1.610 . S
N9153 S9152 1.613 . S
N9153 C9156 1.350 . S
N9154 S9152 1.610 . S
N9154 C9155 1.351 . S
C9155 C9149 1.428 . S
C9155 N9154 1.351 . S
C9155 C9156 1.434 . S
C9156 C9147 1.429 . S
C9156 N9153 1.350 . S
C9156 C9155 1.434 . S
C9157 C9158 1.369 . S
C9157 C9159 1.419 . S
C9157 H9161 0.930 . S
C9158 C9157 1.369 . S
C9158 C9167 1.429 . S
C9159 C9157 1.419 . S
C9159 C9160 1.363 . S
C9159 H9162 0.929 . S
C9160 C9159 1.363 . S
C9160 C9166 1.428 . S
H9161 C9157 0.930 . S
H9162 C9159 0.929 . S
S9163 N9164 1.613 . S
S9163 N9165 1.610 . S
N9164 S9163 1.613 . S
N9164 C9167 1.350 . S
N9165 S9163 1.610 . S
N9165 C9166 1.351 . S
C9166 C9160 1.428 . S
C9166 N9165 1.351 . S
C9166 C9167 1.434 . S
C9167 C9158 1.429 . S
C9167 N9164 1.350 . S
C9167 C9166 1.434 . S
C9168 C9169 1.369 . S
C9168 C9170 1.419 . S
C9168 H9172 0.930 . S
C9169 C9168 1.369 . S
C9169 C9178 1.429 . S
C9170 C9168 1.419 . S
C9170 C9171 1.363 . S
C9170 H9173 0.929 . S
C9171 C9170 1.363 . S
C9171 C9177 1.428 . S
H9172 C9168 0.930 . S
H9173 C9170 0.929 . S
S9174 N9175 1.613 . S
S9174 N9176 1.610 . S
N9175 S9174 1.613 . S
N9175 C9178 1.350 . S
N9176 S9174 1.610 . S
N9176 C9177 1.351 . S
C9177 C9171 1.428 . S
C9177 N9176 1.351 . S
C9177 C9178 1.434 . S
C9178 C9169 1.429 . S
C9178 N9175 1.350 . S
C9178 C9177 1.434 . S
C9179 C9180 1.369 . S
C9179 C9181 1.419 . S
C9179 H9183 0.930 . S
C9180 C9179 1.369 . S
C9180 C9189 1.429 . S
C9181 C9179 1.419 . S
C9181 C9182 1.363 . S
C9181 H9184 0.929 . S
C9182 C9181 1.363 . S
C9182 C9188 1.428 . S
H9183 C9179 0.930 . S
H9184 C9181 0.929 . S
S9185 N9186 1.613 . S
S9185 N9187 1.610 . S
N9186 S9185 1.613 . S
N9186 C9189 1.350 . S
N9187 S9185 1.610 . S
N9187 C9188 1.351 . S
C9188 C9182 1.428 . S
C9188 N9187 1.351 . S
C9188 C9189 1.434 . S
C9189 C9180 1.429 . S
C9189 N9186 1.350 . S
C9189 C9188 1.434 . S
C9190 C9191 1.369 . S
C9190 C9192 1.419 . S
C9190 H9194 0.930 . S
C9191 C9190 1.369 . S
C9191 C9200 1.429 . S
C9192 C9190 1.419 . S
C9192 C9193 1.363 . S
C9192 H9195 0.929 . S
C9193 C9192 1.363 . S
C9193 C9199 1.428 . S
H9194 C9190 0.930 . S
H9195 C9192 0.929 . S
S9196 N9197 1.613 . S
S9196 N9198 1.610 . S
N9197 S9196 1.613 . S
N9197 C9200 1.350 . S
N9198 S9196 1.610 . S
N9198 C9199 1.351 . S
C9199 C9193 1.428 . S
C9199 N9198 1.351 . S
C9199 C9200 1.434 . S
C9200 C9191 1.429 . S
C9200 N9197 1.350 . S
C9200 C9199 1.434 . S
C9201 C9202 1.369 . S
C9201 C9203 1.419 . S
C9201 H9205 0.930 . S
C9202 C9201 1.369 . S
C9202 C9211 1.429 . S
C9203 C9201 1.419 . S
C9203 C9204 1.363 . S
C9203 H9206 0.929 . S
C9204 C9203 1.363 . S
C9204 C9210 1.428 . S
H9205 C9201 0.930 . S
H9206 C9203 0.929 . S
S9207 N9208 1.613 . S
S9207 N9209 1.610 . S
N9208 S9207 1.613 . S
N9208 C9211 1.350 . S
N9209 S9207 1.610 . S
N9209 C9210 1.351 . S
C9210 C9204 1.428 . S
C9210 N9209 1.351 . S
C9210 C9211 1.434 . S
C9211 C9202 1.429 . S
C9211 N9208 1.350 . S
C9211 C9210 1.434 . S
C9212 C9213 1.369 . S
C9212 C9214 1.419 . S
C9212 H9216 0.930 . S
C9213 C9212 1.369 . S
C9213 C9222 1.429 . S
C9214 C9212 1.419 . S
C9214 C9215 1.363 . S
C9214 H9217 0.929 . S
C9215 C9214 1.363 . S
C9215 C9221 1.428 . S
H9216 C9212 0.930 . S
H9217 C9214 0.929 . S
S9218 N9219 1.613 . S
S9218 N9220 1.610 . S
N9219 S9218 1.613 . S
N9219 C9222 1.350 . S
N9220 S9218 1.610 . S
N9220 C9221 1.351 . S
C9221 C9215 1.428 . S
C9221 N9220 1.351 . S
C9221 C9222 1.434 . S
C9222 C9213 1.429 . S
C9222 N9219 1.350 . S
C9222 C9221 1.434 . S
C9223 C9224 1.369 . S
C9223 C9225 1.419 . S
C9223 H9227 0.930 . S
C9224 C9223 1.369 . S
C9224 C9233 1.429 . S
C9225 C9223 1.419 . S
C9225 C9226 1.363 . S
C9225 H9228 0.929 . S
C9226 C9225 1.363 . S
C9226 C9232 1.428 . S
H9227 C9223 0.930 . S
H9228 C9225 0.929 . S
S9229 N9230 1.613 . S
S9229 N9231 1.610 . S
N9230 S9229 1.613 . S
N9230 C9233 1.350 . S
N9231 S9229 1.610 . S
N9231 C9232 1.351 . S
C9232 C9226 1.428 . S
C9232 N9231 1.351 . S
C9232 C9233 1.434 . S
C9233 C9224 1.429 . S
C9233 N9230 1.350 . S
C9233 C9232 1.434 . S
C9234 C9235 1.369 . S
C9234 C9236 1.419 . S
C9234 H9238 0.930 . S
C9235 C9234 1.369 . S
C9235 C9244 1.429 . S
C9236 C9234 1.419 . S
C9236 C9237 1.363 . S
C9236 H9239 0.929 . S
C9237 C9236 1.363 . S
C9237 C9243 1.428 . S
H9238 C9234 0.930 . S
H9239 C9236 0.929 . S
S9240 N9241 1.613 . S
S9240 N9242 1.610 . S
N9241 S9240 1.613 . S
N9241 C9244 1.350 . S
N9242 S9240 1.610 . S
N9242 C9243 1.351 . S
C9243 C9237 1.428 . S
C9243 N9242 1.351 . S
C9243 C9244 1.434 . S
C9244 C9235 1.429 . S
C9244 N9241 1.350 . S
C9244 C9243 1.434 . S
C9245 C9246 1.369 . S
C9245 C9247 1.419 . S
C9245 H9249 0.930 . S
C9246 C9245 1.369 . S
C9246 C9255 1.429 . S
C9247 C9245 1.419 . S
C9247 C9248 1.363 . S
C9247 H9250 0.929 . S
C9248 C9247 1.363 . S
C9248 C9254 1.428 . S
H9249 C9245 0.930 . S
H9250 C9247 0.929 . S
S9251 N9252 1.613 . S
S9251 N9253 1.610 . S
N9252 S9251 1.613 . S
N9252 C9255 1.350 . S
N9253 S9251 1.610 . S
N9253 C9254 1.351 . S
C9254 C9248 1.428 . S
C9254 N9253 1.351 . S
C9254 C9255 1.434 . S
C9255 C9246 1.429 . S
C9255 N9252 1.350 . S
C9255 C9254 1.434 . S
C9256 C9257 1.369 . S
C9256 C9258 1.419 . S
C9256 H9260 0.930 . S
C9257 C9256 1.369 . S
C9257 C9266 1.429 . S
C9258 C9256 1.419 . S
C9258 C9259 1.363 . S
C9258 H9261 0.929 . S
C9259 C9258 1.363 . S
C9259 C9265 1.428 . S
H9260 C9256 0.930 . S
H9261 C9258 0.929 . S
S9262 N9263 1.613 . S
S9262 N9264 1.610 . S
N9263 S9262 1.613 . S
N9263 C9266 1.350 . S
N9264 S9262 1.610 . S
N9264 C9265 1.351 . S
C9265 C9259 1.428 . S
C9265 N9264 1.351 . S
C9265 C9266 1.434 . S
C9266 C9257 1.429 . S
C9266 N9263 1.350 . S
C9266 C9265 1.434 . S
C9267 C9268 1.369 . S
C9267 C9269 1.419 . S
C9267 H9271 0.930 . S
C9268 C9267 1.369 . S
C9268 C9277 1.429 . S
C9269 C9267 1.419 . S
C9269 C9270 1.363 . S
C9269 H9272 0.929 . S
C9270 C9269 1.363 . S
C9270 C9276 1.428 . S
H9271 C9267 0.930 . S
H9272 C9269 0.929 . S
S9273 N9274 1.613 . S
S9273 N9275 1.610 . S
N9274 S9273 1.613 . S
N9274 C9277 1.350 . S
N9275 S9273 1.610 . S
N9275 C9276 1.351 . S
C9276 C9270 1.428 . S
C9276 N9275 1.351 . S
C9276 C9277 1.434 . S
C9277 C9268 1.429 . S
C9277 N9274 1.350 . S
C9277 C9276 1.434 . S
C9278 C9279 1.369 . S
C9278 C9280 1.419 . S
C9278 H9282 0.930 . S
C9279 C9278 1.369 . S
C9279 C9288 1.429 . S
C9280 C9278 1.419 . S
C9280 C9281 1.363 . S
C9280 H9283 0.929 . S
C9281 C9280 1.363 . S
C9281 C9287 1.428 . S
H9282 C9278 0.930 . S
H9283 C9280 0.929 . S
S9284 N9285 1.613 . S
S9284 N9286 1.610 . S
N9285 S9284 1.613 . S
N9285 C9288 1.350 . S
N9286 S9284 1.610 . S
N9286 C9287 1.351 . S
C9287 C9281 1.428 . S
C9287 N9286 1.351 . S
C9287 C9288 1.434 . S
C9288 C9279 1.429 . S
C9288 N9285 1.350 . S
C9288 C9287 1.434 . S
C9289 C9290 1.369 . S
C9289 C9291 1.419 . S
C9289 H9293 0.930 . S
C9290 C9289 1.369 . S
C9290 C9299 1.429 . S
C9291 C9289 1.419 . S
C9291 C9292 1.363 . S
C9291 H9294 0.929 . S
C9292 C9291 1.363 . S
C9292 C9298 1.428 . S
H9293 C9289 0.930 . S
H9294 C9291 0.929 . S
S9295 N9296 1.613 . S
S9295 N9297 1.610 . S
N9296 S9295 1.613 . S
N9296 C9299 1.350 . S
N9297 S9295 1.610 . S
N9297 C9298 1.351 . S
C9298 C9292 1.428 . S
C9298 N9297 1.351 . S
C9298 C9299 1.434 . S
C9299 C9290 1.429 . S
C9299 N9296 1.350 . S
C9299 C9298 1.434 . S
C9300 C9301 1.369 . S
C9300 C9302 1.419 . S
C9300 H9304 0.930 . S
C9301 C9300 1.369 . S
C9301 C9310 1.429 . S
C9302 C9300 1.419 . S
C9302 C9303 1.363 . S
C9302 H9305 0.929 . S
C9303 C9302 1.363 . S
C9303 C9309 1.428 . S
H9304 C9300 0.930 . S
H9305 C9302 0.929 . S
S9306 N9307 1.613 . S
S9306 N9308 1.610 . S
N9307 S9306 1.613 . S
N9307 C9310 1.350 . S
N9308 S9306 1.610 . S
N9308 C9309 1.351 . S
C9309 C9303 1.428 . S
C9309 N9308 1.351 . S
C9309 C9310 1.434 . S
C9310 C9301 1.429 . S
C9310 N9307 1.350 . S
C9310 C9309 1.434 . S
C9311 C9312 1.369 . S
C9311 C9313 1.419 . S
C9311 H9315 0.930 . S
C9312 C9311 1.369 . S
C9312 C9321 1.429 . S
C9313 C9311 1.419 . S
C9313 C9314 1.363 . S
C9313 H9316 0.929 . S
C9314 C9313 1.363 . S
C9314 C9320 1.428 . S
H9315 C9311 0.930 . S
H9316 C9313 0.929 . S
S9317 N9318 1.613 . S
S9317 N9319 1.610 . S
N9318 S9317 1.613 . S
N9318 C9321 1.350 . S
N9319 S9317 1.610 . S
N9319 C9320 1.351 . S
C9320 C9314 1.428 . S
C9320 N9319 1.351 . S
C9320 C9321 1.434 . S
C9321 C9312 1.429 . S
C9321 N9318 1.350 . S
C9321 C9320 1.434 . S
C9322 C9323 1.369 . S
C9322 C9324 1.419 . S
C9322 H9326 0.930 . S
C9323 C9322 1.369 . S
C9323 C9332 1.429 . S
C9324 C9322 1.419 . S
C9324 C9325 1.363 . S
C9324 H9327 0.929 . S
C9325 C9324 1.363 . S
C9325 C9331 1.428 . S
H9326 C9322 0.930 . S
H9327 C9324 0.929 . S
S9328 N9329 1.613 . S
S9328 N9330 1.610 . S
N9329 S9328 1.613 . S
N9329 C9332 1.350 . S
N9330 S9328 1.610 . S
N9330 C9331 1.351 . S
C9331 C9325 1.428 . S
C9331 N9330 1.351 . S
C9331 C9332 1.434 . S
C9332 C9323 1.429 . S
C9332 N9329 1.350 . S
C9332 C9331 1.434 . S
C9333 C9334 1.369 . S
C9333 C9335 1.419 . S
C9333 H9337 0.930 . S
C9334 C9333 1.369 . S
C9334 C9343 1.429 . S
C9335 C9333 1.419 . S
C9335 C9336 1.363 . S
C9335 H9338 0.929 . S
C9336 C9335 1.363 . S
C9336 C9342 1.428 . S
H9337 C9333 0.930 . S
H9338 C9335 0.929 . S
S9339 N9340 1.613 . S
S9339 N9341 1.610 . S
N9340 S9339 1.613 . S
N9340 C9343 1.350 . S
N9341 S9339 1.610 . S
N9341 C9342 1.351 . S
C9342 C9336 1.428 . S
C9342 N9341 1.351 . S
C9342 C9343 1.434 . S
C9343 C9334 1.429 . S
C9343 N9340 1.350 . S
C9343 C9342 1.434 . S
C9344 C9345 1.369 . S
C9344 C9346 1.419 . S
C9344 H9348 0.930 . S
C9345 C9344 1.369 . S
C9345 C9354 1.429 . S
C9346 C9344 1.419 . S
C9346 C9347 1.363 . S
C9346 H9349 0.929 . S
C9347 C9346 1.363 . S
C9347 C9353 1.428 . S
H9348 C9344 0.930 . S
H9349 C9346 0.929 . S
S9350 N9351 1.613 . S
S9350 N9352 1.610 . S
N9351 S9350 1.613 . S
N9351 C9354 1.350 . S
N9352 S9350 1.610 . S
N9352 C9353 1.351 . S
C9353 C9347 1.428 . S
C9353 N9352 1.351 . S
C9353 C9354 1.434 . S
C9354 C9345 1.429 . S
C9354 N9351 1.350 . S
C9354 C9353 1.434 . S
C9355 C9356 1.369 . S
C9355 C9357 1.419 . S
C9355 H9359 0.930 . S
C9356 C9355 1.369 . S
C9356 C9365 1.429 . S
C9357 C9355 1.419 . S
C9357 C9358 1.363 . S
C9357 H9360 0.929 . S
C9358 C9357 1.363 . S
C9358 C9364 1.428 . S
H9359 C9355 0.930 . S
H9360 C9357 0.929 . S
S9361 N9362 1.613 . S
S9361 N9363 1.610 . S
N9362 S9361 1.613 . S
N9362 C9365 1.350 . S
N9363 S9361 1.610 . S
N9363 C9364 1.351 . S
C9364 C9358 1.428 . S
C9364 N9363 1.351 . S
C9364 C9365 1.434 . S
C9365 C9356 1.429 . S
C9365 N9362 1.350 . S
C9365 C9364 1.434 . S
C9366 C9367 1.369 . S
C9366 C9368 1.419 . S
C9366 H9370 0.930 . S
C9367 C9366 1.369 . S
C9367 C9376 1.429 . S
C9368 C9366 1.419 . S
C9368 C9369 1.363 . S
C9368 H9371 0.929 . S
C9369 C9368 1.363 . S
C9369 C9375 1.428 . S
H9370 C9366 0.930 . S
H9371 C9368 0.929 . S
S9372 N9373 1.613 . S
S9372 N9374 1.610 . S
N9373 S9372 1.613 . S
N9373 C9376 1.350 . S
N9374 S9372 1.610 . S
N9374 C9375 1.351 . S
C9375 C9369 1.428 . S
C9375 N9374 1.351 . S
C9375 C9376 1.434 . S
C9376 C9367 1.429 . S
C9376 N9373 1.350 . S
C9376 C9375 1.434 . S
C9377 C9378 1.369 . S
C9377 C9379 1.419 . S
C9377 H9381 0.930 . S
C9378 C9377 1.369 . S
C9378 C9387 1.429 . S
C9379 C9377 1.419 . S
C9379 C9380 1.363 . S
C9379 H9382 0.929 . S
C9380 C9379 1.363 . S
C9380 C9386 1.428 . S
H9381 C9377 0.930 . S
H9382 C9379 0.929 . S
S9383 N9384 1.613 . S
S9383 N9385 1.610 . S
N9384 S9383 1.613 . S
N9384 C9387 1.350 . S
N9385 S9383 1.610 . S
N9385 C9386 1.351 . S
C9386 C9380 1.428 . S
C9386 N9385 1.351 . S
C9386 C9387 1.434 . S
C9387 C9378 1.429 . S
C9387 N9384 1.350 . S
C9387 C9386 1.434 . S
C9388 C9389 1.369 . S
C9388 C9390 1.419 . S
C9388 H9392 0.930 . S
C9389 C9388 1.369 . S
C9389 C9398 1.429 . S
C9390 C9388 1.419 . S
C9390 C9391 1.363 . S
C9390 H9393 0.929 . S
C9391 C9390 1.363 . S
C9391 C9397 1.428 . S
H9392 C9388 0.930 . S
H9393 C9390 0.929 . S
S9394 N9395 1.613 . S
S9394 N9396 1.610 . S
N9395 S9394 1.613 . S
N9395 C9398 1.350 . S
N9396 S9394 1.610 . S
N9396 C9397 1.351 . S
C9397 C9391 1.428 . S
C9397 N9396 1.351 . S
C9397 C9398 1.434 . S
C9398 C9389 1.429 . S
C9398 N9395 1.350 . S
C9398 C9397 1.434 . S
C9399 C9400 1.369 . S
C9399 C9401 1.419 . S
C9399 H9403 0.930 . S
C9400 C9399 1.369 . S
C9400 C9409 1.429 . S
C9401 C9399 1.419 . S
C9401 C9402 1.363 . S
C9401 H9404 0.929 . S
C9402 C9401 1.363 . S
C9402 C9408 1.428 . S
H9403 C9399 0.930 . S
H9404 C9401 0.929 . S
S9405 N9406 1.613 . S
S9405 N9407 1.610 . S
N9406 S9405 1.613 . S
N9406 C9409 1.350 . S
N9407 S9405 1.610 . S
N9407 C9408 1.351 . S
C9408 C9402 1.428 . S
C9408 N9407 1.351 . S
C9408 C9409 1.434 . S
C9409 C9400 1.429 . S
C9409 N9406 1.350 . S
C9409 C9408 1.434 . S
C9410 C9411 1.369 . S
C9410 C9412 1.419 . S
C9410 H9414 0.930 . S
C9411 C9410 1.369 . S
C9411 C9420 1.429 . S
C9412 C9410 1.419 . S
C9412 C9413 1.363 . S
C9412 H9415 0.929 . S
C9413 C9412 1.363 . S
C9413 C9419 1.428 . S
H9414 C9410 0.930 . S
H9415 C9412 0.929 . S
S9416 N9417 1.613 . S
S9416 N9418 1.610 . S
N9417 S9416 1.613 . S
N9417 C9420 1.350 . S
N9418 S9416 1.610 . S
N9418 C9419 1.351 . S
C9419 C9413 1.428 . S
C9419 N9418 1.351 . S
C9419 C9420 1.434 . S
C9420 C9411 1.429 . S
C9420 N9417 1.350 . S
C9420 C9419 1.434 . S
C9421 C9422 1.369 . S
C9421 C9423 1.419 . S
C9421 H9425 0.930 . S
C9422 C9421 1.369 . S
C9422 C9431 1.429 . S
C9423 C9421 1.419 . S
C9423 C9424 1.363 . S
C9423 H9426 0.929 . S
C9424 C9423 1.363 . S
C9424 C9430 1.428 . S
H9425 C9421 0.930 . S
H9426 C9423 0.929 . S
S9427 N9428 1.613 . S
S9427 N9429 1.610 . S
N9428 S9427 1.613 . S
N9428 C9431 1.350 . S
N9429 S9427 1.610 . S
N9429 C9430 1.351 . S
C9430 C9424 1.428 . S
C9430 N9429 1.351 . S
C9430 C9431 1.434 . S
C9431 C9422 1.429 . S
C9431 N9428 1.350 . S
C9431 C9430 1.434 . S
C9432 C9433 1.369 . S
C9432 C9434 1.419 . S
C9432 H9436 0.930 . S
C9433 C9432 1.369 . S
C9433 C9442 1.429 . S
C9434 C9432 1.419 . S
C9434 C9435 1.363 . S
C9434 H9437 0.929 . S
C9435 C9434 1.363 . S
C9435 C9441 1.428 . S
H9436 C9432 0.930 . S
H9437 C9434 0.929 . S
S9438 N9439 1.613 . S
S9438 N9440 1.610 . S
N9439 S9438 1.613 . S
N9439 C9442 1.350 . S
N9440 S9438 1.610 . S
N9440 C9441 1.351 . S
C9441 C9435 1.428 . S
C9441 N9440 1.351 . S
C9441 C9442 1.434 . S
C9442 C9433 1.429 . S
C9442 N9439 1.350 . S
C9442 C9441 1.434 . S
C9443 C9444 1.369 . S
C9443 C9445 1.419 . S
C9443 H9447 0.930 . S
C9444 C9443 1.369 . S
C9444 C9453 1.429 . S
C9445 C9443 1.419 . S
C9445 C9446 1.363 . S
C9445 H9448 0.929 . S
C9446 C9445 1.363 . S
C9446 C9452 1.428 . S
H9447 C9443 0.930 . S
H9448 C9445 0.929 . S
S9449 N9450 1.613 . S
S9449 N9451 1.610 . S
N9450 S9449 1.613 . S
N9450 C9453 1.350 . S
N9451 S9449 1.610 . S
N9451 C9452 1.351 . S
C9452 C9446 1.428 . S
C9452 N9451 1.351 . S
C9452 C9453 1.434 . S
C9453 C9444 1.429 . S
C9453 N9450 1.350 . S
C9453 C9452 1.434 . S
C9454 C9455 1.369 . S
C9454 C9456 1.419 . S
C9454 H9458 0.930 . S
C9455 C9454 1.369 . S
C9455 C9464 1.429 . S
C9456 C9454 1.419 . S
C9456 C9457 1.363 . S
C9456 H9459 0.929 . S
C9457 C9456 1.363 . S
C9457 C9463 1.428 . S
H9458 C9454 0.930 . S
H9459 C9456 0.929 . S
S9460 N9461 1.613 . S
S9460 N9462 1.610 . S
N9461 S9460 1.613 . S
N9461 C9464 1.350 . S
N9462 S9460 1.610 . S
N9462 C9463 1.351 . S
C9463 C9457 1.428 . S
C9463 N9462 1.351 . S
C9463 C9464 1.434 . S
C9464 C9455 1.429 . S
C9464 N9461 1.350 . S
C9464 C9463 1.434 . S
C9465 C9466 1.369 . S
C9465 C9467 1.419 . S
C9465 H9469 0.930 . S
C9466 C9465 1.369 . S
C9466 C9475 1.429 . S
C9467 C9465 1.419 . S
C9467 C9468 1.363 . S
C9467 H9470 0.929 . S
C9468 C9467 1.363 . S
C9468 C9474 1.428 . S
H9469 C9465 0.930 . S
H9470 C9467 0.929 . S
S9471 N9472 1.613 . S
S9471 N9473 1.610 . S
N9472 S9471 1.613 . S
N9472 C9475 1.350 . S
N9473 S9471 1.610 . S
N9473 C9474 1.351 . S
C9474 C9468 1.428 . S
C9474 N9473 1.351 . S
C9474 C9475 1.434 . S
C9475 C9466 1.429 . S
C9475 N9472 1.350 . S
C9475 C9474 1.434 . S
C9476 C9477 1.369 . S
C9476 C9478 1.419 . S
C9476 H9480 0.930 . S
C9477 C9476 1.369 . S
C9477 C9486 1.429 . S
C9478 C9476 1.419 . S
C9478 C9479 1.363 . S
C9478 H9481 0.929 . S
C9479 C9478 1.363 . S
C9479 C9485 1.428 . S
H9480 C9476 0.930 . S
H9481 C9478 0.929 . S
S9482 N9483 1.613 . S
S9482 N9484 1.610 . S
N9483 S9482 1.613 . S
N9483 C9486 1.350 . S
N9484 S9482 1.610 . S
N9484 C9485 1.351 . S
C9485 C9479 1.428 . S
C9485 N9484 1.351 . S
C9485 C9486 1.434 . S
C9486 C9477 1.429 . S
C9486 N9483 1.350 . S
C9486 C9485 1.434 . S
C9487 C9488 1.369 . S
C9487 C9489 1.419 . S
C9487 H9491 0.930 . S
C9488 C9487 1.369 . S
C9488 C9497 1.429 . S
C9489 C9487 1.419 . S
C9489 C9490 1.363 . S
C9489 H9492 0.929 . S
C9490 C9489 1.363 . S
C9490 C9496 1.428 . S
H9491 C9487 0.930 . S
H9492 C9489 0.929 . S
S9493 N9494 1.613 . S
S9493 N9495 1.610 . S
N9494 S9493 1.613 . S
N9494 C9497 1.350 . S
N9495 S9493 1.610 . S
N9495 C9496 1.351 . S
C9496 C9490 1.428 . S
C9496 N9495 1.351 . S
C9496 C9497 1.434 . S
C9497 C9488 1.429 . S
C9497 N9494 1.350 . S
C9497 C9496 1.434 . S
C9498 C9499 1.369 . S
C9498 C9500 1.419 . S
C9498 H9502 0.930 . S
C9499 C9498 1.369 . S
C9499 C9508 1.429 . S
C9500 C9498 1.419 . S
C9500 C9501 1.363 . S
C9500 H9503 0.929 . S
C9501 C9500 1.363 . S
C9501 C9507 1.428 . S
H9502 C9498 0.930 . S
H9503 C9500 0.929 . S
S9504 N9505 1.613 . S
S9504 N9506 1.610 . S
N9505 S9504 1.613 . S
N9505 C9508 1.350 . S
N9506 S9504 1.610 . S
N9506 C9507 1.351 . S
C9507 C9501 1.428 . S
C9507 N9506 1.351 . S
C9507 C9508 1.434 . S
C9508 C9499 1.429 . S
C9508 N9505 1.350 . S
C9508 C9507 1.434 . S
C9509 C9510 1.369 . S
C9509 C9511 1.419 . S
C9509 H9513 0.930 . S
C9510 C9509 1.369 . S
C9510 C9519 1.429 . S
C9511 C9509 1.419 . S
C9511 C9512 1.363 . S
C9511 H9514 0.929 . S
C9512 C9511 1.363 . S
C9512 C9518 1.428 . S
H9513 C9509 0.930 . S
H9514 C9511 0.929 . S
S9515 N9516 1.613 . S
S9515 N9517 1.610 . S
N9516 S9515 1.613 . S
N9516 C9519 1.350 . S
N9517 S9515 1.610 . S
N9517 C9518 1.351 . S
C9518 C9512 1.428 . S
C9518 N9517 1.351 . S
C9518 C9519 1.434 . S
C9519 C9510 1.429 . S
C9519 N9516 1.350 . S
C9519 C9518 1.434 . S
C9520 C9521 1.369 . S
C9520 C9522 1.419 . S
C9520 H9524 0.930 . S
C9521 C9520 1.369 . S
C9521 C9530 1.429 . S
C9522 C9520 1.419 . S
C9522 C9523 1.363 . S
C9522 H9525 0.929 . S
C9523 C9522 1.363 . S
C9523 C9529 1.428 . S
H9524 C9520 0.930 . S
H9525 C9522 0.929 . S
S9526 N9527 1.613 . S
S9526 N9528 1.610 . S
N9527 S9526 1.613 . S
N9527 C9530 1.350 . S
N9528 S9526 1.610 . S
N9528 C9529 1.351 . S
C9529 C9523 1.428 . S
C9529 N9528 1.351 . S
C9529 C9530 1.434 . S
C9530 C9521 1.429 . S
C9530 N9527 1.350 . S
C9530 C9529 1.434 . S
C9531 C9532 1.369 . S
C9531 C9533 1.419 . S
C9531 H9535 0.930 . S
C9532 C9531 1.369 . S
C9532 C9541 1.429 . S
C9533 C9531 1.419 . S
C9533 C9534 1.363 . S
C9533 H9536 0.929 . S
C9534 C9533 1.363 . S
C9534 C9540 1.428 . S
H9535 C9531 0.930 . S
H9536 C9533 0.929 . S
S9537 N9538 1.613 . S
S9537 N9539 1.610 . S
N9538 S9537 1.613 . S
N9538 C9541 1.350 . S
N9539 S9537 1.610 . S
N9539 C9540 1.351 . S
C9540 C9534 1.428 . S
C9540 N9539 1.351 . S
C9540 C9541 1.434 . S
C9541 C9532 1.429 . S
C9541 N9538 1.350 . S
C9541 C9540 1.434 . S
C9542 C9543 1.369 . S
C9542 C9544 1.419 . S
C9542 H9546 0.930 . S
C9543 C9542 1.369 . S
C9543 C9552 1.429 . S
C9544 C9542 1.419 . S
C9544 C9545 1.363 . S
C9544 H9547 0.929 . S
C9545 C9544 1.363 . S
C9545 C9551 1.428 . S
H9546 C9542 0.930 . S
H9547 C9544 0.929 . S
S9548 N9549 1.613 . S
S9548 N9550 1.610 . S
N9549 S9548 1.613 . S
N9549 C9552 1.350 . S
N9550 S9548 1.610 . S
N9550 C9551 1.351 . S
C9551 C9545 1.428 . S
C9551 N9550 1.351 . S
C9551 C9552 1.434 . S
C9552 C9543 1.429 . S
C9552 N9549 1.350 . S
C9552 C9551 1.434 . S
C9553 C9554 1.369 . S
C9553 C9555 1.419 . S
C9553 H9557 0.930 . S
C9554 C9553 1.369 . S
C9554 C9563 1.429 . S
C9555 C9553 1.419 . S
C9555 C9556 1.363 . S
C9555 H9558 0.929 . S
C9556 C9555 1.363 . S
C9556 C9562 1.428 . S
H9557 C9553 0.930 . S
H9558 C9555 0.929 . S
S9559 N9560 1.613 . S
S9559 N9561 1.610 . S
N9560 S9559 1.613 . S
N9560 C9563 1.350 . S
N9561 S9559 1.610 . S
N9561 C9562 1.351 . S
C9562 C9556 1.428 . S
C9562 N9561 1.351 . S
C9562 C9563 1.434 . S
C9563 C9554 1.429 . S
C9563 N9560 1.350 . S
C9563 C9562 1.434 . S
C9564 C9565 1.369 . S
C9564 C9566 1.419 . S
C9564 H9568 0.930 . S
C9565 C9564 1.369 . S
C9565 C9574 1.429 . S
C9566 C9564 1.419 . S
C9566 C9567 1.363 . S
C9566 H9569 0.929 . S
C9567 C9566 1.363 . S
C9567 C9573 1.428 . S
H9568 C9564 0.930 . S
H9569 C9566 0.929 . S
S9570 N9571 1.613 . S
S9570 N9572 1.610 . S
N9571 S9570 1.613 . S
N9571 C9574 1.350 . S
N9572 S9570 1.610 . S
N9572 C9573 1.351 . S
C9573 C9567 1.428 . S
C9573 N9572 1.351 . S
C9573 C9574 1.434 . S
C9574 C9565 1.429 . S
C9574 N9571 1.350 . S
C9574 C9573 1.434 . S
C9575 C9576 1.369 . S
C9575 C9577 1.419 . S
C9575 H9579 0.930 . S
C9576 C9575 1.369 . S
C9576 C9585 1.429 . S
C9577 C9575 1.419 . S
C9577 C9578 1.363 . S
C9577 H9580 0.929 . S
C9578 C9577 1.363 . S
C9578 C9584 1.428 . S
H9579 C9575 0.930 . S
H9580 C9577 0.929 . S
S9581 N9582 1.613 . S
S9581 N9583 1.610 . S
N9582 S9581 1.613 . S
N9582 C9585 1.350 . S
N9583 S9581 1.610 . S
N9583 C9584 1.351 . S
C9584 C9578 1.428 . S
C9584 N9583 1.351 . S
C9584 C9585 1.434 . S
C9585 C9576 1.429 . S
C9585 N9582 1.350 . S
C9585 C9584 1.434 . S
C9586 C9587 1.369 . S
C9586 C9588 1.419 . S
C9586 H9590 0.930 . S
C9587 C9586 1.369 . S
C9587 C9596 1.429 . S
C9588 C9586 1.419 . S
C9588 C9589 1.363 . S
C9588 H9591 0.929 . S
C9589 C9588 1.363 . S
C9589 C9595 1.428 . S
H9590 C9586 0.930 . S
H9591 C9588 0.929 . S
S9592 N9593 1.613 . S
S9592 N9594 1.610 . S
N9593 S9592 1.613 . S
N9593 C9596 1.350 . S
N9594 S9592 1.610 . S
N9594 C9595 1.351 . S
C9595 C9589 1.428 . S
C9595 N9594 1.351 . S
C9595 C9596 1.434 . S
C9596 C9587 1.429 . S
C9596 N9593 1.350 . S
C9596 C9595 1.434 . S
C9597 C9598 1.369 . S
C9597 C9599 1.419 . S
C9597 H9601 0.930 . S
C9598 C9597 1.369 . S
C9598 C9607 1.429 . S
C9599 C9597 1.419 . S
C9599 C9600 1.363 . S
C9599 H9602 0.929 . S
C9600 C9599 1.363 . S
C9600 C9606 1.428 . S
H9601 C9597 0.930 . S
H9602 C9599 0.929 . S
S9603 N9604 1.613 . S
S9603 N9605 1.610 . S
N9604 S9603 1.613 . S
N9604 C9607 1.350 . S
N9605 S9603 1.610 . S
N9605 C9606 1.351 . S
C9606 C9600 1.428 . S
C9606 N9605 1.351 . S
C9606 C9607 1.434 . S
C9607 C9598 1.429 . S
C9607 N9604 1.350 . S
C9607 C9606 1.434 . S
C9608 C9609 1.369 . S
C9608 C9610 1.419 . S
C9608 H9612 0.930 . S
C9609 C9608 1.369 . S
C9609 C9618 1.429 . S
C9610 C9608 1.419 . S
C9610 C9611 1.363 . S
C9610 H9613 0.929 . S
C9611 C9610 1.363 . S
C9611 C9617 1.428 . S
H9612 C9608 0.930 . S
H9613 C9610 0.929 . S
S9614 N9615 1.613 . S
S9614 N9616 1.610 . S
N9615 S9614 1.613 . S
N9615 C9618 1.350 . S
N9616 S9614 1.610 . S
N9616 C9617 1.351 . S
C9617 C9611 1.428 . S
C9617 N9616 1.351 . S
C9617 C9618 1.434 . S
C9618 C9609 1.429 . S
C9618 N9615 1.350 . S
C9618 C9617 1.434 . S
C9619 C9620 1.369 . S
C9619 C9621 1.419 . S
C9619 H9623 0.930 . S
C9620 C9619 1.369 . S
C9620 C9629 1.429 . S
C9621 C9619 1.419 . S
C9621 C9622 1.363 . S
C9621 H9624 0.929 . S
C9622 C9621 1.363 . S
C9622 C9628 1.428 . S
H9623 C9619 0.930 . S
H9624 C9621 0.929 . S
S9625 N9626 1.613 . S
S9625 N9627 1.610 . S
N9626 S9625 1.613 . S
N9626 C9629 1.350 . S
N9627 S9625 1.610 . S
N9627 C9628 1.351 . S
C9628 C9622 1.428 . S
C9628 N9627 1.351 . S
C9628 C9629 1.434 . S
C9629 C9620 1.429 . S
C9629 N9626 1.350 . S
C9629 C9628 1.434 . S
C9630 C9631 1.369 . S
C9630 C9632 1.419 . S
C9630 H9634 0.930 . S
C9631 C9630 1.369 . S
C9631 C9640 1.429 . S
C9632 C9630 1.419 . S
C9632 C9633 1.363 . S
C9632 H9635 0.929 . S
C9633 C9632 1.363 . S
C9633 C9639 1.428 . S
H9634 C9630 0.930 . S
H9635 C9632 0.929 . S
S9636 N9637 1.613 . S
S9636 N9638 1.610 . S
N9637 S9636 1.613 . S
N9637 C9640 1.350 . S
N9638 S9636 1.610 . S
N9638 C9639 1.351 . S
C9639 C9633 1.428 . S
C9639 N9638 1.351 . S
C9639 C9640 1.434 . S
C9640 C9631 1.429 . S
C9640 N9637 1.350 . S
C9640 C9639 1.434 . S
C9641 C9642 1.369 . S
C9641 C9643 1.419 . S
C9641 H9645 0.930 . S
C9642 C9641 1.369 . S
C9642 C9651 1.429 . S
C9643 C9641 1.419 . S
C9643 C9644 1.363 . S
C9643 H9646 0.929 . S
C9644 C9643 1.363 . S
C9644 C9650 1.428 . S
H9645 C9641 0.930 . S
H9646 C9643 0.929 . S
S9647 N9648 1.613 . S
S9647 N9649 1.610 . S
N9648 S9647 1.613 . S
N9648 C9651 1.350 . S
N9649 S9647 1.610 . S
N9649 C9650 1.351 . S
C9650 C9644 1.428 . S
C9650 N9649 1.351 . S
C9650 C9651 1.434 . S
C9651 C9642 1.429 . S
C9651 N9648 1.350 . S
C9651 C9650 1.434 . S
C9652 C9653 1.369 . S
C9652 C9654 1.419 . S
C9652 H9656 0.930 . S
C9653 C9652 1.369 . S
C9653 C9662 1.429 . S
C9654 C9652 1.419 . S
C9654 C9655 1.363 . S
C9654 H9657 0.929 . S
C9655 C9654 1.363 . S
C9655 C9661 1.428 . S
H9656 C9652 0.930 . S
H9657 C9654 0.929 . S
S9658 N9659 1.613 . S
S9658 N9660 1.610 . S
N9659 S9658 1.613 . S
N9659 C9662 1.350 . S
N9660 S9658 1.610 . S
N9660 C9661 1.351 . S
C9661 C9655 1.428 . S
C9661 N9660 1.351 . S
C9661 C9662 1.434 . S
C9662 C9653 1.429 . S
C9662 N9659 1.350 . S
C9662 C9661 1.434 . S
C9663 C9664 1.369 . S
C9663 C9665 1.419 . S
C9663 H9667 0.930 . S
C9664 C9663 1.369 . S
C9664 C9673 1.429 . S
C9665 C9663 1.419 . S
C9665 C9666 1.363 . S
C9665 H9668 0.929 . S
C9666 C9665 1.363 . S
C9666 C9672 1.428 . S
H9667 C9663 0.930 . S
H9668 C9665 0.929 . S
S9669 N9670 1.613 . S
S9669 N9671 1.610 . S
N9670 S9669 1.613 . S
N9670 C9673 1.350 . S
N9671 S9669 1.610 . S
N9671 C9672 1.351 . S
C9672 C9666 1.428 . S
C9672 N9671 1.351 . S
C9672 C9673 1.434 . S
C9673 C9664 1.429 . S
C9673 N9670 1.350 . S
C9673 C9672 1.434 . S
C9674 C9675 1.369 . S
C9674 C9676 1.419 . S
C9674 H9678 0.930 . S
C9675 C9674 1.369 . S
C9675 C9684 1.429 . S
C9676 C9674 1.419 . S
C9676 C9677 1.363 . S
C9676 H9679 0.929 . S
C9677 C9676 1.363 . S
C9677 C9683 1.428 . S
H9678 C9674 0.930 . S
H9679 C9676 0.929 . S
S9680 N9681 1.613 . S
S9680 N9682 1.610 . S
N9681 S9680 1.613 . S
N9681 C9684 1.350 . S
N9682 S9680 1.610 . S
N9682 C9683 1.351 . S
C9683 C9677 1.428 . S
C9683 N9682 1.351 . S
C9683 C9684 1.434 . S
C9684 C9675 1.429 . S
C9684 N9681 1.350 . S
C9684 C9683 1.434 . S
C9685 C9686 1.369 . S
C9685 C9687 1.419 . S
C9685 H9689 0.930 . S
C9686 C9685 1.369 . S
C9686 C9695 1.429 . S
C9687 C9685 1.419 . S
C9687 C9688 1.363 . S
C9687 H9690 0.929 . S
C9688 C9687 1.363 . S
C9688 C9694 1.428 . S
H9689 C9685 0.930 . S
H9690 C9687 0.929 . S
S9691 N9692 1.613 . S
S9691 N9693 1.610 . S
N9692 S9691 1.613 . S
N9692 C9695 1.350 . S
N9693 S9691 1.610 . S
N9693 C9694 1.351 . S
C9694 C9688 1.428 . S
C9694 N9693 1.351 . S
C9694 C9695 1.434 . S
C9695 C9686 1.429 . S
C9695 N9692 1.350 . S
C9695 C9694 1.434 . S
C9696 C9697 1.369 . S
C9696 C9698 1.419 . S
C9696 H9700 0.930 . S
C9697 C9696 1.369 . S
C9697 C9706 1.429 . S
C9698 C9696 1.419 . S
C9698 C9699 1.363 . S
C9698 H9701 0.929 . S
C9699 C9698 1.363 . S
C9699 C9705 1.428 . S
H9700 C9696 0.930 . S
H9701 C9698 0.929 . S
S9702 N9703 1.613 . S
S9702 N9704 1.610 . S
N9703 S9702 1.613 . S
N9703 C9706 1.350 . S
N9704 S9702 1.610 . S
N9704 C9705 1.351 . S
C9705 C9699 1.428 . S
C9705 N9704 1.351 . S
C9705 C9706 1.434 . S
C9706 C9697 1.429 . S
C9706 N9703 1.350 . S
C9706 C9705 1.434 . S
C9707 C9708 1.369 . S
C9707 C9709 1.419 . S
C9707 H9711 0.930 . S
C9708 C9707 1.369 . S
C9708 C9717 1.429 . S
C9709 C9707 1.419 . S
C9709 C9710 1.363 . S
C9709 H9712 0.929 . S
C9710 C9709 1.363 . S
C9710 C9716 1.428 . S
H9711 C9707 0.930 . S
H9712 C9709 0.929 . S
S9713 N9714 1.613 . S
S9713 N9715 1.610 . S
N9714 S9713 1.613 . S
N9714 C9717 1.350 . S
N9715 S9713 1.610 . S
N9715 C9716 1.351 . S
C9716 C9710 1.428 . S
C9716 N9715 1.351 . S
C9716 C9717 1.434 . S
C9717 C9708 1.429 . S
C9717 N9714 1.350 . S
C9717 C9716 1.434 . S
C9718 C9719 1.369 . S
C9718 C9720 1.419 . S
C9718 H9722 0.930 . S
C9719 C9718 1.369 . S
C9719 C9728 1.429 . S
C9720 C9718 1.419 . S
C9720 C9721 1.363 . S
C9720 H9723 0.929 . S
C9721 C9720 1.363 . S
C9721 C9727 1.428 . S
H9722 C9718 0.930 . S
H9723 C9720 0.929 . S
S9724 N9725 1.613 . S
S9724 N9726 1.610 . S
N9725 S9724 1.613 . S
N9725 C9728 1.350 . S
N9726 S9724 1.610 . S
N9726 C9727 1.351 . S
C9727 C9721 1.428 . S
C9727 N9726 1.351 . S
C9727 C9728 1.434 . S
C9728 C9719 1.429 . S
C9728 N9725 1.350 . S
C9728 C9727 1.434 . S
C9729 C9730 1.369 . S
C9729 C9731 1.419 . S
C9729 H9733 0.930 . S
C9730 C9729 1.369 . S
C9730 C9739 1.429 . S
C9731 C9729 1.419 . S
C9731 C9732 1.363 . S
C9731 H9734 0.929 . S
C9732 C9731 1.363 . S
C9732 C9738 1.428 . S
H9733 C9729 0.930 . S
H9734 C9731 0.929 . S
S9735 N9736 1.613 . S
S9735 N9737 1.610 . S
N9736 S9735 1.613 . S
N9736 C9739 1.350 . S
N9737 S9735 1.610 . S
N9737 C9738 1.351 . S
C9738 C9732 1.428 . S
C9738 N9737 1.351 . S
C9738 C9739 1.434 . S
C9739 C9730 1.429 . S
C9739 N9736 1.350 . S
C9739 C9738 1.434 . S
C9740 C9741 1.369 . S
C9740 C9742 1.419 . S
C9740 H9744 0.930 . S
C9741 C9740 1.369 . S
C9741 C9750 1.429 . S
C9742 C9740 1.419 . S
C9742 C9743 1.363 . S
C9742 H9745 0.929 . S
C9743 C9742 1.363 . S
C9743 C9749 1.428 . S
H9744 C9740 0.930 . S
H9745 C9742 0.929 . S
S9746 N9747 1.613 . S
S9746 N9748 1.610 . S
N9747 S9746 1.613 . S
N9747 C9750 1.350 . S
N9748 S9746 1.610 . S
N9748 C9749 1.351 . S
C9749 C9743 1.428 . S
C9749 N9748 1.351 . S
C9749 C9750 1.434 . S
C9750 C9741 1.429 . S
C9750 N9747 1.350 . S
C9750 C9749 1.434 . S
C9751 C9752 1.369 . S
C9751 C9753 1.419 . S
C9751 H9755 0.930 . S
C9752 C9751 1.369 . S
C9752 C9761 1.429 . S
C9753 C9751 1.419 . S
C9753 C9754 1.363 . S
C9753 H9756 0.929 . S
C9754 C9753 1.363 . S
C9754 C9760 1.428 . S
H9755 C9751 0.930 . S
H9756 C9753 0.929 . S
S9757 N9758 1.613 . S
S9757 N9759 1.610 . S
N9758 S9757 1.613 . S
N9758 C9761 1.350 . S
N9759 S9757 1.610 . S
N9759 C9760 1.351 . S
C9760 C9754 1.428 . S
C9760 N9759 1.351 . S
C9760 C9761 1.434 . S
C9761 C9752 1.429 . S
C9761 N9758 1.350 . S
C9761 C9760 1.434 . S
C9762 C9763 1.369 . S
C9762 C9764 1.419 . S
C9762 H9766 0.930 . S
C9763 C9762 1.369 . S
C9763 C9772 1.429 . S
C9764 C9762 1.419 . S
C9764 C9765 1.363 . S
C9764 H9767 0.929 . S
C9765 C9764 1.363 . S
C9765 C9771 1.428 . S
H9766 C9762 0.930 . S
H9767 C9764 0.929 . S
S9768 N9769 1.613 . S
S9768 N9770 1.610 . S
N9769 S9768 1.613 . S
N9769 C9772 1.350 . S
N9770 S9768 1.610 . S
N9770 C9771 1.351 . S
C9771 C9765 1.428 . S
C9771 N9770 1.351 . S
C9771 C9772 1.434 . S
C9772 C9763 1.429 . S
C9772 N9769 1.350 . S
C9772 C9771 1.434 . S
C9773 C9774 1.369 . S
C9773 C9775 1.419 . S
C9773 H9777 0.930 . S
C9774 C9773 1.369 . S
C9774 C9783 1.429 . S
C9775 C9773 1.419 . S
C9775 C9776 1.363 . S
C9775 H9778 0.929 . S
C9776 C9775 1.363 . S
C9776 C9782 1.428 . S
H9777 C9773 0.930 . S
H9778 C9775 0.929 . S
S9779 N9780 1.613 . S
S9779 N9781 1.610 . S
N9780 S9779 1.613 . S
N9780 C9783 1.350 . S
N9781 S9779 1.610 . S
N9781 C9782 1.351 . S
C9782 C9776 1.428 . S
C9782 N9781 1.351 . S
C9782 C9783 1.434 . S
C9783 C9774 1.429 . S
C9783 N9780 1.350 . S
C9783 C9782 1.434 . S
C9784 C9785 1.369 . S
C9784 C9786 1.419 . S
C9784 H9788 0.930 . S
C9785 C9784 1.369 . S
C9785 C9794 1.429 . S
C9786 C9784 1.419 . S
C9786 C9787 1.363 . S
C9786 H9789 0.929 . S
C9787 C9786 1.363 . S
C9787 C9793 1.428 . S
H9788 C9784 0.930 . S
H9789 C9786 0.929 . S
S9790 N9791 1.613 . S
S9790 N9792 1.610 . S
N9791 S9790 1.613 . S
N9791 C9794 1.350 . S
N9792 S9790 1.610 . S
N9792 C9793 1.351 . S
C9793 C9787 1.428 . S
C9793 N9792 1.351 . S
C9793 C9794 1.434 . S
C9794 C9785 1.429 . S
C9794 N9791 1.350 . S
C9794 C9793 1.434 . S
C9795 C9796 1.369 . S
C9795 C9797 1.419 . S
C9795 H9799 0.930 . S
C9796 C9795 1.369 . S
C9796 C9805 1.429 . S
C9797 C9795 1.419 . S
C9797 C9798 1.363 . S
C9797 H9800 0.929 . S
C9798 C9797 1.363 . S
C9798 C9804 1.428 . S
H9799 C9795 0.930 . S
H9800 C9797 0.929 . S
S9801 N9802 1.613 . S
S9801 N9803 1.610 . S
N9802 S9801 1.613 . S
N9802 C9805 1.350 . S
N9803 S9801 1.610 . S
N9803 C9804 1.351 . S
C9804 C9798 1.428 . S
C9804 N9803 1.351 . S
C9804 C9805 1.434 . S
C9805 C9796 1.429 . S
C9805 N9802 1.350 . S
C9805 C9804 1.434 . S
C9806 C9807 1.369 . S
C9806 C9808 1.419 . S
C9806 H9810 0.930 . S
C9807 C9806 1.369 . S
C9807 C9816 1.429 . S
C9808 C9806 1.419 . S
C9808 C9809 1.363 . S
C9808 H9811 0.929 . S
C9809 C9808 1.363 . S
C9809 C9815 1.428 . S
H9810 C9806 0.930 . S
H9811 C9808 0.929 . S
S9812 N9813 1.613 . S
S9812 N9814 1.610 . S
N9813 S9812 1.613 . S
N9813 C9816 1.350 . S
N9814 S9812 1.610 . S
N9814 C9815 1.351 . S
C9815 C9809 1.428 . S
C9815 N9814 1.351 . S
C9815 C9816 1.434 . S
C9816 C9807 1.429 . S
C9816 N9813 1.350 . S
C9816 C9815 1.434 . S
C9817 C9818 1.369 . S
C9817 C9819 1.419 . S
C9817 H9821 0.930 . S
C9818 C9817 1.369 . S
C9818 C9827 1.429 . S
C9819 C9817 1.419 . S
C9819 C9820 1.363 . S
C9819 H9822 0.929 . S
C9820 C9819 1.363 . S
C9820 C9826 1.428 . S
H9821 C9817 0.930 . S
H9822 C9819 0.929 . S
S9823 N9824 1.613 . S
S9823 N9825 1.610 . S
N9824 S9823 1.613 . S
N9824 C9827 1.350 . S
N9825 S9823 1.610 . S
N9825 C9826 1.351 . S
C9826 C9820 1.428 . S
C9826 N9825 1.351 . S
C9826 C9827 1.434 . S
C9827 C9818 1.429 . S
C9827 N9824 1.350 . S
C9827 C9826 1.434 . S
C9828 C9829 1.369 . S
C9828 C9830 1.419 . S
C9828 H9832 0.930 . S
C9829 C9828 1.369 . S
C9829 C9838 1.429 . S
C9830 C9828 1.419 . S
C9830 C9831 1.363 . S
C9830 H9833 0.929 . S
C9831 C9830 1.363 . S
C9831 C9837 1.428 . S
H9832 C9828 0.930 . S
H9833 C9830 0.929 . S
S9834 N9835 1.613 . S
S9834 N9836 1.610 . S
N9835 S9834 1.613 . S
N9835 C9838 1.350 . S
N9836 S9834 1.610 . S
N9836 C9837 1.351 . S
C9837 C9831 1.428 . S
C9837 N9836 1.351 . S
C9837 C9838 1.434 . S
C9838 C9829 1.429 . S
C9838 N9835 1.350 . S
C9838 C9837 1.434 . S
C9839 C9840 1.369 . S
C9839 C9841 1.419 . S
C9839 H9843 0.930 . S
C9840 C9839 1.369 . S
C9840 C9849 1.429 . S
C9841 C9839 1.419 . S
C9841 C9842 1.363 . S
C9841 H9844 0.929 . S
C9842 C9841 1.363 . S
C9842 C9848 1.428 . S
H9843 C9839 0.930 . S
H9844 C9841 0.929 . S
S9845 N9846 1.613 . S
S9845 N9847 1.610 . S
N9846 S9845 1.613 . S
N9846 C9849 1.350 . S
N9847 S9845 1.610 . S
N9847 C9848 1.351 . S
C9848 C9842 1.428 . S
C9848 N9847 1.351 . S
C9848 C9849 1.434 . S
C9849 C9840 1.429 . S
C9849 N9846 1.350 . S
C9849 C9848 1.434 . S
C9850 C9851 1.369 . S
C9850 C9852 1.419 . S
C9850 H9854 0.930 . S
C9851 C9850 1.369 . S
C9851 C9860 1.429 . S
C9852 C9850 1.419 . S
C9852 C9853 1.363 . S
C9852 H9855 0.929 . S
C9853 C9852 1.363 . S
C9853 C9859 1.428 . S
H9854 C9850 0.930 . S
H9855 C9852 0.929 . S
S9856 N9857 1.613 . S
S9856 N9858 1.610 . S
N9857 S9856 1.613 . S
N9857 C9860 1.350 . S
N9858 S9856 1.610 . S
N9858 C9859 1.351 . S
C9859 C9853 1.428 . S
C9859 N9858 1.351 . S
C9859 C9860 1.434 . S
C9860 C9851 1.429 . S
C9860 N9857 1.350 . S
C9860 C9859 1.434 . S
C9861 C9862 1.369 . S
C9861 C9863 1.419 . S
C9861 H9865 0.930 . S
C9862 C9861 1.369 . S
C9862 C9871 1.429 . S
C9863 C9861 1.419 . S
C9863 C9864 1.363 . S
C9863 H9866 0.929 . S
C9864 C9863 1.363 . S
C9864 C9870 1.428 . S
H9865 C9861 0.930 . S
H9866 C9863 0.929 . S
S9867 N9868 1.613 . S
S9867 N9869 1.610 . S
N9868 S9867 1.613 . S
N9868 C9871 1.350 . S
N9869 S9867 1.610 . S
N9869 C9870 1.351 . S
C9870 C9864 1.428 . S
C9870 N9869 1.351 . S
C9870 C9871 1.434 . S
C9871 C9862 1.429 . S
C9871 N9868 1.350 . S
C9871 C9870 1.434 . S
C9872 C9873 1.369 . S
C9872 C9874 1.419 . S
C9872 H9876 0.930 . S
C9873 C9872 1.369 . S
C9873 C9882 1.429 . S
C9874 C9872 1.419 . S
C9874 C9875 1.363 . S
C9874 H9877 0.929 . S
C9875 C9874 1.363 . S
C9875 C9881 1.428 . S
H9876 C9872 0.930 . S
H9877 C9874 0.929 . S
S9878 N9879 1.613 . S
S9878 N9880 1.610 . S
N9879 S9878 1.613 . S
N9879 C9882 1.350 . S
N9880 S9878 1.610 . S
N9880 C9881 1.351 . S
C9881 C9875 1.428 . S
C9881 N9880 1.351 . S
C9881 C9882 1.434 . S
C9882 C9873 1.429 . S
C9882 N9879 1.350 . S
C9882 C9881 1.434 . S
C9883 C9884 1.369 . S
C9883 C9885 1.419 . S
C9883 H9887 0.930 . S
C9884 C9883 1.369 . S
C9884 C9893 1.429 . S
C9885 C9883 1.419 . S
C9885 C9886 1.363 . S
C9885 H9888 0.929 . S
C9886 C9885 1.363 . S
C9886 C9892 1.428 . S
H9887 C9883 0.930 . S
H9888 C9885 0.929 . S
S9889 N9890 1.613 . S
S9889 N9891 1.610 . S
N9890 S9889 1.613 . S
N9890 C9893 1.350 . S
N9891 S9889 1.610 . S
N9891 C9892 1.351 . S
C9892 C9886 1.428 . S
C9892 N9891 1.351 . S
C9892 C9893 1.434 . S
C9893 C9884 1.429 . S
C9893 N9890 1.350 . S
C9893 C9892 1.434 . S
C9894 C9895 1.369 . S
C9894 C9896 1.419 . S
C9894 H9898 0.930 . S
C9895 C9894 1.369 . S
C9895 C9904 1.429 . S
C9896 C9894 1.419 . S
C9896 C9897 1.363 . S
C9896 H9899 0.929 . S
C9897 C9896 1.363 . S
C9897 C9903 1.428 . S
H9898 C9894 0.930 . S
H9899 C9896 0.929 . S
S9900 N9901 1.613 . S
S9900 N9902 1.610 . S
N9901 S9900 1.613 . S
N9901 C9904 1.350 . S
N9902 S9900 1.610 . S
N9902 C9903 1.351 . S
C9903 C9897 1.428 . S
C9903 N9902 1.351 . S
C9903 C9904 1.434 . S
C9904 C9895 1.429 . S
C9904 N9901 1.350 . S
C9904 C9903 1.434 . S
C9905 C9906 1.369 . S
C9905 C9907 1.419 . S
C9905 H9909 0.930 . S
C9906 C9905 1.369 . S
C9906 C9915 1.429 . S
C9907 C9905 1.419 . S
C9907 C9908 1.363 . S
C9907 H9910 0.929 . S
C9908 C9907 1.363 . S
C9908 C9914 1.428 . S
H9909 C9905 0.930 . S
H9910 C9907 0.929 . S
S9911 N9912 1.613 . S
S9911 N9913 1.610 . S
N9912 S9911 1.613 . S
N9912 C9915 1.350 . S
N9913 S9911 1.610 . S
N9913 C9914 1.351 . S
C9914 C9908 1.428 . S
C9914 N9913 1.351 . S
C9914 C9915 1.434 . S
C9915 C9906 1.429 . S
C9915 N9912 1.350 . S
C9915 C9914 1.434 . S
C9916 C9917 1.369 . S
C9916 C9918 1.419 . S
C9916 H9920 0.930 . S
C9917 C9916 1.369 . S
C9917 C9926 1.429 . S
C9918 C9916 1.419 . S
C9918 C9919 1.363 . S
C9918 H9921 0.929 . S
C9919 C9918 1.363 . S
C9919 C9925 1.428 . S
H9920 C9916 0.930 . S
H9921 C9918 0.929 . S
S9922 N9923 1.613 . S
S9922 N9924 1.610 . S
N9923 S9922 1.613 . S
N9923 C9926 1.350 . S
N9924 S9922 1.610 . S
N9924 C9925 1.351 . S
C9925 C9919 1.428 . S
C9925 N9924 1.351 . S
C9925 C9926 1.434 . S
C9926 C9917 1.429 . S
C9926 N9923 1.350 . S
C9926 C9925 1.434 . S
C9927 C9928 1.369 . S
C9927 C9929 1.419 . S
C9927 H9931 0.930 . S
C9928 C9927 1.369 . S
C9928 C9937 1.429 . S
C9929 C9927 1.419 . S
C9929 C9930 1.363 . S
C9929 H9932 0.929 . S
C9930 C9929 1.363 . S
C9930 C9936 1.428 . S
H9931 C9927 0.930 . S
H9932 C9929 0.929 . S
S9933 N9934 1.613 . S
S9933 N9935 1.610 . S
N9934 S9933 1.613 . S
N9934 C9937 1.350 . S
N9935 S9933 1.610 . S
N9935 C9936 1.351 . S
C9936 C9930 1.428 . S
C9936 N9935 1.351 . S
C9936 C9937 1.434 . S
C9937 C9928 1.429 . S
C9937 N9934 1.350 . S
C9937 C9936 1.434 . S
C9938 C9939 1.369 . S
C9938 C9940 1.419 . S
C9938 H9942 0.930 . S
C9939 C9938 1.369 . S
C9939 C9948 1.429 . S
C9940 C9938 1.419 . S
C9940 C9941 1.363 . S
C9940 H9943 0.929 . S
C9941 C9940 1.363 . S
C9941 C9947 1.428 . S
H9942 C9938 0.930 . S
H9943 C9940 0.929 . S
S9944 N9945 1.613 . S
S9944 N9946 1.610 . S
N9945 S9944 1.613 . S
N9945 C9948 1.350 . S
N9946 S9944 1.610 . S
N9946 C9947 1.351 . S
C9947 C9941 1.428 . S
C9947 N9946 1.351 . S
C9947 C9948 1.434 . S
C9948 C9939 1.429 . S
C9948 N9945 1.350 . S
C9948 C9947 1.434 . S
C9949 C9950 1.369 . S
C9949 C9951 1.419 . S
C9949 H9953 0.930 . S
C9950 C9949 1.369 . S
C9950 C9959 1.429 . S
C9951 C9949 1.419 . S
C9951 C9952 1.363 . S
C9951 H9954 0.929 . S
C9952 C9951 1.363 . S
C9952 C9958 1.428 . S
H9953 C9949 0.930 . S
H9954 C9951 0.929 . S
S9955 N9956 1.613 . S
S9955 N9957 1.610 . S
N9956 S9955 1.613 . S
N9956 C9959 1.350 . S
N9957 S9955 1.610 . S
N9957 C9958 1.351 . S
C9958 C9952 1.428 . S
C9958 N9957 1.351 . S
C9958 C9959 1.434 . S
C9959 C9950 1.429 . S
C9959 N9956 1.350 . S
C9959 C9958 1.434 . S
C9960 C9961 1.369 . S
C9960 C9962 1.419 . S
C9960 H9964 0.930 . S
C9961 C9960 1.369 . S
C9961 C9970 1.429 . S
C9962 C9960 1.419 . S
C9962 C9963 1.363 . S
C9962 H9965 0.929 . S
C9963 C9962 1.363 . S
C9963 C9969 1.428 . S
H9964 C9960 0.930 . S
H9965 C9962 0.929 . S
S9966 N9967 1.613 . S
S9966 N9968 1.610 . S
N9967 S9966 1.613 . S
N9967 C9970 1.350 . S
N9968 S9966 1.610 . S
N9968 C9969 1.351 . S
C9969 C9963 1.428 . S
C9969 N9968 1.351 . S
C9969 C9970 1.434 . S
C9970 C9961 1.429 . S
C9970 N9967 1.350 . S
C9970 C9969 1.434 . S
C9971 C9972 1.369 . S
C9971 C9973 1.419 . S
C9971 H9975 0.930 . S
C9972 C9971 1.369 . S
C9972 C9981 1.429 . S
C9973 C9971 1.419 . S
C9973 C9974 1.363 . S
C9973 H9976 0.929 . S
C9974 C9973 1.363 . S
C9974 C9980 1.428 . S
H9975 C9971 0.930 . S
H9976 C9973 0.929 . S
S9977 N9978 1.613 . S
S9977 N9979 1.610 . S
N9978 S9977 1.613 . S
N9978 C9981 1.350 . S
N9979 S9977 1.610 . S
N9979 C9980 1.351 . S
C9980 C9974 1.428 . S
C9980 N9979 1.351 . S
C9980 C9981 1.434 . S
C9981 C9972 1.429 . S
C9981 N9978 1.350 . S
C9981 C9980 1.434 . S
C9982 C9983 1.369 . S
C9982 C9984 1.419 . S
C9982 H9986 0.930 . S
C9983 C9982 1.369 . S
C9983 C9992 1.429 . S
C9984 C9982 1.419 . S
C9984 C9985 1.363 . S
C9984 H9987 0.929 . S
C9985 C9984 1.363 . S
C9985 C9991 1.428 . S
H9986 C9982 0.930 . S
H9987 C9984 0.929 . S
S9988 N9989 1.613 . S
S9988 N9990 1.610 . S
N9989 S9988 1.613 . S
N9989 C9992 1.350 . S
N9990 S9988 1.610 . S
N9990 C9991 1.351 . S
C9991 C9985 1.428 . S
C9991 N9990 1.351 . S
C9991 C9992 1.434 . S
C9992 C9983 1.429 . S
C9992 N9989 1.350 . S
C9992 C9991 1.434 . S
C9993 C9994 1.369 . S
C9993 C9995 1.419 . S
C9993 H9997 0.930 . S
C9994 C9993 1.369 . S
C9994 C10003 1.429 . S
C9995 C9993 1.419 . S
C9995 C9996 1.363 . S
C9995 H9998 0.929 . S
C9996 C9995 1.363 . S
C9996 C10002 1.428 . S
H9997 C9993 0.930 . S
H9998 C9995 0.929 . S
S9999 N10000 1.613 . S
S9999 N10001 1.610 . S
N10000 S9999 1.613 . S
N10000 C10003 1.350 . S
N10001 S9999 1.610 . S
N10001 C10002 1.351 . S
C10002 C9996 1.428 . S
C10002 N10001 1.351 . S
C10002 C10003 1.434 . S
C10003 C9994 1.429 . S
C10003 N10000 1.350 . S
C10003 C10002 1.434 . S
C10004 C10005 1.369 . S
C10004 C10006 1.419 . S
C10004 H10008 0.930 . S
C10005 C10004 1.369 . S
C10005 C10014 1.429 . S
C10006 C10004 1.419 . S
C10006 C10007 1.363 . S
C10006 H10009 0.929 . S
C10007 C10006 1.363 . S
C10007 C10013 1.428 . S
H10008 C10004 0.930 . S
H10009 C10006 0.929 . S
S10010 N10011 1.613 . S
S10010 N10012 1.610 . S
N10011 S10010 1.613 . S
N10011 C10014 1.350 . S
N10012 S10010 1.610 . S
N10012 C10013 1.351 . S
C10013 C10007 1.428 . S
C10013 N10012 1.351 . S
C10013 C10014 1.434 . S
C10014 C10005 1.429 . S
C10014 N10011 1.350 . S
C10014 C10013 1.434 . S
C10015 C10016 1.369 . S
C10015 C10017 1.419 . S
C10015 H10019 0.930 . S
C10016 C10015 1.369 . S
C10016 C10025 1.429 . S
C10017 C10015 1.419 . S
C10017 C10018 1.363 . S
C10017 H10020 0.929 . S
C10018 C10017 1.363 . S
C10018 C10024 1.428 . S
H10019 C10015 0.930 . S
H10020 C10017 0.929 . S
S10021 N10022 1.613 . S
S10021 N10023 1.610 . S
N10022 S10021 1.613 . S
N10022 C10025 1.350 . S
N10023 S10021 1.610 . S
N10023 C10024 1.351 . S
C10024 C10018 1.428 . S
C10024 N10023 1.351 . S
C10024 C10025 1.434 . S
C10025 C10016 1.429 . S
C10025 N10022 1.350 . S
C10025 C10024 1.434 . S
C10026 C10027 1.369 . S
C10026 C10028 1.419 . S
C10026 H10030 0.930 . S
C10027 C10026 1.369 . S
C10027 C10036 1.429 . S
C10028 C10026 1.419 . S
C10028 C10029 1.363 . S
C10028 H10031 0.929 . S
C10029 C10028 1.363 . S
C10029 C10035 1.428 . S
H10030 C10026 0.930 . S
H10031 C10028 0.929 . S
S10032 N10033 1.613 . S
S10032 N10034 1.610 . S
N10033 S10032 1.613 . S
N10033 C10036 1.350 . S
N10034 S10032 1.610 . S
N10034 C10035 1.351 . S
C10035 C10029 1.428 . S
C10035 N10034 1.351 . S
C10035 C10036 1.434 . S
C10036 C10027 1.429 . S
C10036 N10033 1.350 . S
C10036 C10035 1.434 . S
C10037 C10038 1.369 . S
C10037 C10039 1.419 . S
C10037 H10041 0.930 . S
C10038 C10037 1.369 . S
C10038 C10047 1.429 . S
C10039 C10037 1.419 . S
C10039 C10040 1.363 . S
C10039 H10042 0.929 . S
C10040 C10039 1.363 . S
C10040 C10046 1.428 . S
H10041 C10037 0.930 . S
H10042 C10039 0.929 . S
S10043 N10044 1.613 . S
S10043 N10045 1.610 . S
N10044 S10043 1.613 . S
N10044 C10047 1.350 . S
N10045 S10043 1.610 . S
N10045 C10046 1.351 . S
C10046 C10040 1.428 . S
C10046 N10045 1.351 . S
C10046 C10047 1.434 . S
C10047 C10038 1.429 . S
C10047 N10044 1.350 . S
C10047 C10046 1.434 . S
C10048 C10049 1.369 . S
C10048 C10050 1.419 . S
C10048 H10052 0.930 . S
C10049 C10048 1.369 . S
C10049 C10058 1.429 . S
C10050 C10048 1.419 . S
C10050 C10051 1.363 . S
C10050 H10053 0.929 . S
C10051 C10050 1.363 . S
C10051 C10057 1.428 . S
H10052 C10048 0.930 . S
H10053 C10050 0.929 . S
S10054 N10055 1.613 . S
S10054 N10056 1.610 . S
N10055 S10054 1.613 . S
N10055 C10058 1.350 . S
N10056 S10054 1.610 . S
N10056 C10057 1.351 . S
C10057 C10051 1.428 . S
C10057 N10056 1.351 . S
C10057 C10058 1.434 . S
C10058 C10049 1.429 . S
C10058 N10055 1.350 . S
C10058 C10057 1.434 . S
C10059 C10060 1.369 . S
C10059 C10061 1.419 . S
C10059 H10063 0.930 . S
C10060 C10059 1.369 . S
C10060 C10069 1.429 . S
C10061 C10059 1.419 . S
C10061 C10062 1.363 . S
C10061 H10064 0.929 . S
C10062 C10061 1.363 . S
C10062 C10068 1.428 . S
H10063 C10059 0.930 . S
H10064 C10061 0.929 . S
S10065 N10066 1.613 . S
S10065 N10067 1.610 . S
N10066 S10065 1.613 . S
N10066 C10069 1.350 . S
N10067 S10065 1.610 . S
N10067 C10068 1.351 . S
C10068 C10062 1.428 . S
C10068 N10067 1.351 . S
C10068 C10069 1.434 . S
C10069 C10060 1.429 . S
C10069 N10066 1.350 . S
C10069 C10068 1.434 . S
C10070 C10071 1.369 . S
C10070 C10072 1.419 . S
C10070 H10074 0.930 . S
C10071 C10070 1.369 . S
C10071 C10080 1.429 . S
C10072 C10070 1.419 . S
C10072 C10073 1.363 . S
C10072 H10075 0.929 . S
C10073 C10072 1.363 . S
C10073 C10079 1.428 . S
H10074 C10070 0.930 . S
H10075 C10072 0.929 . S
S10076 N10077 1.613 . S
S10076 N10078 1.610 . S
N10077 S10076 1.613 . S
N10077 C10080 1.350 . S
N10078 S10076 1.610 . S
N10078 C10079 1.351 . S
C10079 C10073 1.428 . S
C10079 N10078 1.351 . S
C10079 C10080 1.434 . S
C10080 C10071 1.429 . S
C10080 N10077 1.350 . S
C10080 C10079 1.434 . S
C10081 C10082 1.369 . S
C10081 C10083 1.419 . S
C10081 H10085 0.930 . S
C10082 C10081 1.369 . S
C10082 C10091 1.429 . S
C10083 C10081 1.419 . S
C10083 C10084 1.363 . S
C10083 H10086 0.929 . S
C10084 C10083 1.363 . S
C10084 C10090 1.428 . S
H10085 C10081 0.930 . S
H10086 C10083 0.929 . S
S10087 N10088 1.613 . S
S10087 N10089 1.610 . S
N10088 S10087 1.613 . S
N10088 C10091 1.350 . S
N10089 S10087 1.610 . S
N10089 C10090 1.351 . S
C10090 C10084 1.428 . S
C10090 N10089 1.351 . S
C10090 C10091 1.434 . S
C10091 C10082 1.429 . S
C10091 N10088 1.350 . S
C10091 C10090 1.434 . S
C10092 C10093 1.369 . S
C10092 C10094 1.419 . S
C10092 H10096 0.930 . S
C10093 C10092 1.369 . S
C10093 C10102 1.429 . S
C10094 C10092 1.419 . S
C10094 C10095 1.363 . S
C10094 H10097 0.929 . S
C10095 C10094 1.363 . S
C10095 C10101 1.428 . S
H10096 C10092 0.930 . S
H10097 C10094 0.929 . S
S10098 N10099 1.613 . S
S10098 N10100 1.610 . S
N10099 S10098 1.613 . S
N10099 C10102 1.350 . S
N10100 S10098 1.610 . S
N10100 C10101 1.351 . S
C10101 C10095 1.428 . S
C10101 N10100 1.351 . S
C10101 C10102 1.434 . S
C10102 C10093 1.429 . S
C10102 N10099 1.350 . S
C10102 C10101 1.434 . S
C10103 C10104 1.369 . S
C10103 C10105 1.419 . S
C10103 H10107 0.930 . S
C10104 C10103 1.369 . S
C10104 C10113 1.429 . S
C10105 C10103 1.419 . S
C10105 C10106 1.363 . S
C10105 H10108 0.929 . S
C10106 C10105 1.363 . S
C10106 C10112 1.428 . S
H10107 C10103 0.930 . S
H10108 C10105 0.929 . S
S10109 N10110 1.613 . S
S10109 N10111 1.610 . S
N10110 S10109 1.613 . S
N10110 C10113 1.350 . S
N10111 S10109 1.610 . S
N10111 C10112 1.351 . S
C10112 C10106 1.428 . S
C10112 N10111 1.351 . S
C10112 C10113 1.434 . S
C10113 C10104 1.429 . S
C10113 N10110 1.350 . S
C10113 C10112 1.434 . S
C10114 C10115 1.369 . S
C10114 C10116 1.419 . S
C10114 H10118 0.930 . S
C10115 C10114 1.369 . S
C10115 C10124 1.429 . S
C10116 C10114 1.419 . S
C10116 C10117 1.363 . S
C10116 H10119 0.929 . S
C10117 C10116 1.363 . S
C10117 C10123 1.428 . S
H10118 C10114 0.930 . S
H10119 C10116 0.929 . S
S10120 N10121 1.613 . S
S10120 N10122 1.610 . S
N10121 S10120 1.613 . S
N10121 C10124 1.350 . S
N10122 S10120 1.610 . S
N10122 C10123 1.351 . S
C10123 C10117 1.428 . S
C10123 N10122 1.351 . S
C10123 C10124 1.434 . S
C10124 C10115 1.429 . S
C10124 N10121 1.350 . S
C10124 C10123 1.434 . S
C10125 C10126 1.369 . S
C10125 C10127 1.419 . S
C10125 H10129 0.930 . S
C10126 C10125 1.369 . S
C10126 C10135 1.429 . S
C10127 C10125 1.419 . S
C10127 C10128 1.363 . S
C10127 H10130 0.929 . S
C10128 C10127 1.363 . S
C10128 C10134 1.428 . S
H10129 C10125 0.930 . S
H10130 C10127 0.929 . S
S10131 N10132 1.613 . S
S10131 N10133 1.610 . S
N10132 S10131 1.613 . S
N10132 C10135 1.350 . S
N10133 S10131 1.610 . S
N10133 C10134 1.351 . S
C10134 C10128 1.428 . S
C10134 N10133 1.351 . S
C10134 C10135 1.434 . S
C10135 C10126 1.429 . S
C10135 N10132 1.350 . S
C10135 C10134 1.434 . S
C10136 C10137 1.369 . S
C10136 C10138 1.419 . S
C10136 H10140 0.930 . S
C10137 C10136 1.369 . S
C10137 C10146 1.429 . S
C10138 C10136 1.419 . S
C10138 C10139 1.363 . S
C10138 H10141 0.929 . S
C10139 C10138 1.363 . S
C10139 C10145 1.428 . S
H10140 C10136 0.930 . S
H10141 C10138 0.929 . S
S10142 N10143 1.613 . S
S10142 N10144 1.610 . S
N10143 S10142 1.613 . S
N10143 C10146 1.350 . S
N10144 S10142 1.610 . S
N10144 C10145 1.351 . S
C10145 C10139 1.428 . S
C10145 N10144 1.351 . S
C10145 C10146 1.434 . S
C10146 C10137 1.429 . S
C10146 N10143 1.350 . S
C10146 C10145 1.434 . S
C10147 C10148 1.369 . S
C10147 C10149 1.419 . S
C10147 H10151 0.930 . S
C10148 C10147 1.369 . S
C10148 C10157 1.429 . S
C10149 C10147 1.419 . S
C10149 C10150 1.363 . S
C10149 H10152 0.929 . S
C10150 C10149 1.363 . S
C10150 C10156 1.428 . S
H10151 C10147 0.930 . S
H10152 C10149 0.929 . S
S10153 N10154 1.613 . S
S10153 N10155 1.610 . S
N10154 S10153 1.613 . S
N10154 C10157 1.350 . S
N10155 S10153 1.610 . S
N10155 C10156 1.351 . S
C10156 C10150 1.428 . S
C10156 N10155 1.351 . S
C10156 C10157 1.434 . S
C10157 C10148 1.429 . S
C10157 N10154 1.350 . S
C10157 C10156 1.434 . S
C10158 C10159 1.369 . S
C10158 C10160 1.419 . S
C10158 H10162 0.930 . S
C10159 C10158 1.369 . S
C10159 C10168 1.429 . S
C10160 C10158 1.419 . S
C10160 C10161 1.363 . S
C10160 H10163 0.929 . S
C10161 C10160 1.363 . S
C10161 C10167 1.428 . S
H10162 C10158 0.930 . S
H10163 C10160 0.929 . S
S10164 N10165 1.613 . S
S10164 N10166 1.610 . S
N10165 S10164 1.613 . S
N10165 C10168 1.350 . S
N10166 S10164 1.610 . S
N10166 C10167 1.351 . S
C10167 C10161 1.428 . S
C10167 N10166 1.351 . S
C10167 C10168 1.434 . S
C10168 C10159 1.429 . S
C10168 N10165 1.350 . S
C10168 C10167 1.434 . S
C10169 C10170 1.369 . S
C10169 C10171 1.419 . S
C10169 H10173 0.930 . S
C10170 C10169 1.369 . S
C10170 C10179 1.429 . S
C10171 C10169 1.419 . S
C10171 C10172 1.363 . S
C10171 H10174 0.929 . S
C10172 C10171 1.363 . S
C10172 C10178 1.428 . S
H10173 C10169 0.930 . S
H10174 C10171 0.929 . S
S10175 N10176 1.613 . S
S10175 N10177 1.610 . S
N10176 S10175 1.613 . S
N10176 C10179 1.350 . S
N10177 S10175 1.610 . S
N10177 C10178 1.351 . S
C10178 C10172 1.428 . S
C10178 N10177 1.351 . S
C10178 C10179 1.434 . S
C10179 C10170 1.429 . S
C10179 N10176 1.350 . S
C10179 C10178 1.434 . S
C10180 C10181 1.369 . S
C10180 C10182 1.419 . S
C10180 H10184 0.930 . S
C10181 C10180 1.369 . S
C10181 C10190 1.429 . S
C10182 C10180 1.419 . S
C10182 C10183 1.363 . S
C10182 H10185 0.929 . S
C10183 C10182 1.363 . S
C10183 C10189 1.428 . S
H10184 C10180 0.930 . S
H10185 C10182 0.929 . S
S10186 N10187 1.613 . S
S10186 N10188 1.610 . S
N10187 S10186 1.613 . S
N10187 C10190 1.350 . S
N10188 S10186 1.610 . S
N10188 C10189 1.351 . S
C10189 C10183 1.428 . S
C10189 N10188 1.351 . S
C10189 C10190 1.434 . S
C10190 C10181 1.429 . S
C10190 N10187 1.350 . S
C10190 C10189 1.434 . S
C10191 C10192 1.369 . S
C10191 C10193 1.419 . S
C10191 H10195 0.930 . S
C10192 C10191 1.369 . S
C10192 C10201 1.429 . S
C10193 C10191 1.419 . S
C10193 C10194 1.363 . S
C10193 H10196 0.929 . S
C10194 C10193 1.363 . S
C10194 C10200 1.428 . S
H10195 C10191 0.930 . S
H10196 C10193 0.929 . S
S10197 N10198 1.613 . S
S10197 N10199 1.610 . S
N10198 S10197 1.613 . S
N10198 C10201 1.350 . S
N10199 S10197 1.610 . S
N10199 C10200 1.351 . S
C10200 C10194 1.428 . S
C10200 N10199 1.351 . S
C10200 C10201 1.434 . S
C10201 C10192 1.429 . S
C10201 N10198 1.350 . S
C10201 C10200 1.434 . S
C10202 C10203 1.369 . S
C10202 C10204 1.419 . S
C10202 H10206 0.930 . S
C10203 C10202 1.369 . S
C10203 C10212 1.429 . S
C10204 C10202 1.419 . S
C10204 C10205 1.363 . S
C10204 H10207 0.929 . S
C10205 C10204 1.363 . S
C10205 C10211 1.428 . S
H10206 C10202 0.930 . S
H10207 C10204 0.929 . S
S10208 N10209 1.613 . S
S10208 N10210 1.610 . S
N10209 S10208 1.613 . S
N10209 C10212 1.350 . S
N10210 S10208 1.610 . S
N10210 C10211 1.351 . S
C10211 C10205 1.428 . S
C10211 N10210 1.351 . S
C10211 C10212 1.434 . S
C10212 C10203 1.429 . S
C10212 N10209 1.350 . S
C10212 C10211 1.434 . S
C10213 C10214 1.369 . S
C10213 C10215 1.419 . S
C10213 H10217 0.930 . S
C10214 C10213 1.369 . S
C10214 C10223 1.429 . S
C10215 C10213 1.419 . S
C10215 C10216 1.363 . S
C10215 H10218 0.929 . S
C10216 C10215 1.363 . S
C10216 C10222 1.428 . S
H10217 C10213 0.930 . S
H10218 C10215 0.929 . S
S10219 N10220 1.613 . S
S10219 N10221 1.610 . S
N10220 S10219 1.613 . S
N10220 C10223 1.350 . S
N10221 S10219 1.610 . S
N10221 C10222 1.351 . S
C10222 C10216 1.428 . S
C10222 N10221 1.351 . S
C10222 C10223 1.434 . S
C10223 C10214 1.429 . S
C10223 N10220 1.350 . S
C10223 C10222 1.434 . S
C10224 C10225 1.369 . S
C10224 C10226 1.419 . S
C10224 H10228 0.930 . S
C10225 C10224 1.369 . S
C10225 C10234 1.429 . S
C10226 C10224 1.419 . S
C10226 C10227 1.363 . S
C10226 H10229 0.929 . S
C10227 C10226 1.363 . S
C10227 C10233 1.428 . S
H10228 C10224 0.930 . S
H10229 C10226 0.929 . S
S10230 N10231 1.613 . S
S10230 N10232 1.610 . S
N10231 S10230 1.613 . S
N10231 C10234 1.350 . S
N10232 S10230 1.610 . S
N10232 C10233 1.351 . S
C10233 C10227 1.428 . S
C10233 N10232 1.351 . S
C10233 C10234 1.434 . S
C10234 C10225 1.429 . S
C10234 N10231 1.350 . S
C10234 C10233 1.434 . S
C10235 C10236 1.369 . S
C10235 C10237 1.419 . S
C10235 H10239 0.930 . S
C10236 C10235 1.369 . S
C10236 C10245 1.429 . S
C10237 C10235 1.419 . S
C10237 C10238 1.363 . S
C10237 H10240 0.929 . S
C10238 C10237 1.363 . S
C10238 C10244 1.428 . S
H10239 C10235 0.930 . S
H10240 C10237 0.929 . S
S10241 N10242 1.613 . S
S10241 N10243 1.610 . S
N10242 S10241 1.613 . S
N10242 C10245 1.350 . S
N10243 S10241 1.610 . S
N10243 C10244 1.351 . S
C10244 C10238 1.428 . S
C10244 N10243 1.351 . S
C10244 C10245 1.434 . S
C10245 C10236 1.429 . S
C10245 N10242 1.350 . S
C10245 C10244 1.434 . S
C10246 C10247 1.369 . S
C10246 C10248 1.419 . S
C10246 H10250 0.930 . S
C10247 C10246 1.369 . S
C10247 C10256 1.429 . S
C10248 C10246 1.419 . S
C10248 C10249 1.363 . S
C10248 H10251 0.929 . S
C10249 C10248 1.363 . S
C10249 C10255 1.428 . S
H10250 C10246 0.930 . S
H10251 C10248 0.929 . S
S10252 N10253 1.613 . S
S10252 N10254 1.610 . S
N10253 S10252 1.613 . S
N10253 C10256 1.350 . S
N10254 S10252 1.610 . S
N10254 C10255 1.351 . S
C10255 C10249 1.428 . S
C10255 N10254 1.351 . S
C10255 C10256 1.434 . S
C10256 C10247 1.429 . S
C10256 N10253 1.350 . S
C10256 C10255 1.434 . S
C10257 C10258 1.369 . S
C10257 C10259 1.419 . S
C10257 H10261 0.930 . S
C10258 C10257 1.369 . S
C10258 C10267 1.429 . S
C10259 C10257 1.419 . S
C10259 C10260 1.363 . S
C10259 H10262 0.929 . S
C10260 C10259 1.363 . S
C10260 C10266 1.428 . S
H10261 C10257 0.930 . S
H10262 C10259 0.929 . S
S10263 N10264 1.613 . S
S10263 N10265 1.610 . S
N10264 S10263 1.613 . S
N10264 C10267 1.350 . S
N10265 S10263 1.610 . S
N10265 C10266 1.351 . S
C10266 C10260 1.428 . S
C10266 N10265 1.351 . S
C10266 C10267 1.434 . S
C10267 C10258 1.429 . S
C10267 N10264 1.350 . S
C10267 C10266 1.434 . S
C10268 C10269 1.369 . S
C10268 C10270 1.419 . S
C10268 H10272 0.930 . S
C10269 C10268 1.369 . S
C10269 C10278 1.429 . S
C10270 C10268 1.419 . S
C10270 C10271 1.363 . S
C10270 H10273 0.929 . S
C10271 C10270 1.363 . S
C10271 C10277 1.428 . S
H10272 C10268 0.930 . S
H10273 C10270 0.929 . S
S10274 N10275 1.613 . S
S10274 N10276 1.610 . S
N10275 S10274 1.613 . S
N10275 C10278 1.350 . S
N10276 S10274 1.610 . S
N10276 C10277 1.351 . S
C10277 C10271 1.428 . S
C10277 N10276 1.351 . S
C10277 C10278 1.434 . S
C10278 C10269 1.429 . S
C10278 N10275 1.350 . S
C10278 C10277 1.434 . S
C10279 C10280 1.369 . S
C10279 C10281 1.419 . S
C10279 H10283 0.930 . S
C10280 C10279 1.369 . S
C10280 C10289 1.429 . S
C10281 C10279 1.419 . S
C10281 C10282 1.363 . S
C10281 H10284 0.929 . S
C10282 C10281 1.363 . S
C10282 C10288 1.428 . S
H10283 C10279 0.930 . S
H10284 C10281 0.929 . S
S10285 N10286 1.613 . S
S10285 N10287 1.610 . S
N10286 S10285 1.613 . S
N10286 C10289 1.350 . S
N10287 S10285 1.610 . S
N10287 C10288 1.351 . S
C10288 C10282 1.428 . S
C10288 N10287 1.351 . S
C10288 C10289 1.434 . S
C10289 C10280 1.429 . S
C10289 N10286 1.350 . S
C10289 C10288 1.434 . S
C10290 C10291 1.369 . S
C10290 C10292 1.419 . S
C10290 H10294 0.930 . S
C10291 C10290 1.369 . S
C10291 C10300 1.429 . S
C10292 C10290 1.419 . S
C10292 C10293 1.363 . S
C10292 H10295 0.929 . S
C10293 C10292 1.363 . S
C10293 C10299 1.428 . S
H10294 C10290 0.930 . S
H10295 C10292 0.929 . S
S10296 N10297 1.613 . S
S10296 N10298 1.610 . S
N10297 S10296 1.613 . S
N10297 C10300 1.350 . S
N10298 S10296 1.610 . S
N10298 C10299 1.351 . S
C10299 C10293 1.428 . S
C10299 N10298 1.351 . S
C10299 C10300 1.434 . S
C10300 C10291 1.429 . S
C10300 N10297 1.350 . S
C10300 C10299 1.434 . S
C10301 C10302 1.369 . S
C10301 C10303 1.419 . S
C10301 H10305 0.930 . S
C10302 C10301 1.369 . S
C10302 C10311 1.429 . S
C10303 C10301 1.419 . S
C10303 C10304 1.363 . S
C10303 H10306 0.929 . S
C10304 C10303 1.363 . S
C10304 C10310 1.428 . S
H10305 C10301 0.930 . S
H10306 C10303 0.929 . S
S10307 N10308 1.613 . S
S10307 N10309 1.610 . S
N10308 S10307 1.613 . S
N10308 C10311 1.350 . S
N10309 S10307 1.610 . S
N10309 C10310 1.351 . S
C10310 C10304 1.428 . S
C10310 N10309 1.351 . S
C10310 C10311 1.434 . S
C10311 C10302 1.429 . S
C10311 N10308 1.350 . S
C10311 C10310 1.434 . S
C10312 C10313 1.369 . S
C10312 C10314 1.419 . S
C10312 H10316 0.930 . S
C10313 C10312 1.369 . S
C10313 C10322 1.429 . S
C10314 C10312 1.419 . S
C10314 C10315 1.363 . S
C10314 H10317 0.929 . S
C10315 C10314 1.363 . S
C10315 C10321 1.428 . S
H10316 C10312 0.930 . S
H10317 C10314 0.929 . S
S10318 N10319 1.613 . S
S10318 N10320 1.610 . S
N10319 S10318 1.613 . S
N10319 C10322 1.350 . S
N10320 S10318 1.610 . S
N10320 C10321 1.351 . S
C10321 C10315 1.428 . S
C10321 N10320 1.351 . S
C10321 C10322 1.434 . S
C10322 C10313 1.429 . S
C10322 N10319 1.350 . S
C10322 C10321 1.434 . S
C10323 C10324 1.369 . S
C10323 C10325 1.419 . S
C10323 H10327 0.930 . S
C10324 C10323 1.369 . S
C10324 C10333 1.429 . S
C10325 C10323 1.419 . S
C10325 C10326 1.363 . S
C10325 H10328 0.929 . S
C10326 C10325 1.363 . S
C10326 C10332 1.428 . S
H10327 C10323 0.930 . S
H10328 C10325 0.929 . S
S10329 N10330 1.613 . S
S10329 N10331 1.610 . S
N10330 S10329 1.613 . S
N10330 C10333 1.350 . S
N10331 S10329 1.610 . S
N10331 C10332 1.351 . S
C10332 C10326 1.428 . S
C10332 N10331 1.351 . S
C10332 C10333 1.434 . S
C10333 C10324 1.429 . S
C10333 N10330 1.350 . S
C10333 C10332 1.434 . S
C10334 C10335 1.369 . S
C10334 C10336 1.419 . S
C10334 H10338 0.930 . S
C10335 C10334 1.369 . S
C10335 C10344 1.429 . S
C10336 C10334 1.419 . S
C10336 C10337 1.363 . S
C10336 H10339 0.929 . S
C10337 C10336 1.363 . S
C10337 C10343 1.428 . S
H10338 C10334 0.930 . S
H10339 C10336 0.929 . S
S10340 N10341 1.613 . S
S10340 N10342 1.610 . S
N10341 S10340 1.613 . S
N10341 C10344 1.350 . S
N10342 S10340 1.610 . S
N10342 C10343 1.351 . S
C10343 C10337 1.428 . S
C10343 N10342 1.351 . S
C10343 C10344 1.434 . S
C10344 C10335 1.429 . S
C10344 N10341 1.350 . S
C10344 C10343 1.434 . S
C10345 C10346 1.369 . S
C10345 C10347 1.419 . S
C10345 H10349 0.930 . S
C10346 C10345 1.369 . S
C10346 C10355 1.429 . S
C10347 C10345 1.419 . S
C10347 C10348 1.363 . S
C10347 H10350 0.929 . S
C10348 C10347 1.363 . S
C10348 C10354 1.428 . S
H10349 C10345 0.930 . S
H10350 C10347 0.929 . S
S10351 N10352 1.613 . S
S10351 N10353 1.610 . S
N10352 S10351 1.613 . S
N10352 C10355 1.350 . S
N10353 S10351 1.610 . S
N10353 C10354 1.351 . S
C10354 C10348 1.428 . S
C10354 N10353 1.351 . S
C10354 C10355 1.434 . S
C10355 C10346 1.429 . S
C10355 N10352 1.350 . S
C10355 C10354 1.434 . S
C10356 C10357 1.369 . S
C10356 C10358 1.419 . S
C10356 H10360 0.930 . S
C10357 C10356 1.369 . S
C10357 C10366 1.429 . S
C10358 C10356 1.419 . S
C10358 C10359 1.363 . S
C10358 H10361 0.929 . S
C10359 C10358 1.363 . S
C10359 C10365 1.428 . S
H10360 C10356 0.930 . S
H10361 C10358 0.929 . S
S10362 N10363 1.613 . S
S10362 N10364 1.610 . S
N10363 S10362 1.613 . S
N10363 C10366 1.350 . S
N10364 S10362 1.610 . S
N10364 C10365 1.351 . S
C10365 C10359 1.428 . S
C10365 N10364 1.351 . S
C10365 C10366 1.434 . S
C10366 C10357 1.429 . S
C10366 N10363 1.350 . S
C10366 C10365 1.434 . S
C10367 C10368 1.369 . S
C10367 C10369 1.419 . S
C10367 H10371 0.930 . S
C10368 C10367 1.369 . S
C10368 C10377 1.429 . S
C10369 C10367 1.419 . S
C10369 C10370 1.363 . S
C10369 H10372 0.929 . S
C10370 C10369 1.363 . S
C10370 C10376 1.428 . S
H10371 C10367 0.930 . S
H10372 C10369 0.929 . S
S10373 N10374 1.613 . S
S10373 N10375 1.610 . S
N10374 S10373 1.613 . S
N10374 C10377 1.350 . S
N10375 S10373 1.610 . S
N10375 C10376 1.351 . S
C10376 C10370 1.428 . S
C10376 N10375 1.351 . S
C10376 C10377 1.434 . S
C10377 C10368 1.429 . S
C10377 N10374 1.350 . S
C10377 C10376 1.434 . S
C10378 C10379 1.369 . S
C10378 C10380 1.419 . S
C10378 H10382 0.930 . S
C10379 C10378 1.369 . S
C10379 C10388 1.429 . S
C10380 C10378 1.419 . S
C10380 C10381 1.363 . S
C10380 H10383 0.929 . S
C10381 C10380 1.363 . S
C10381 C10387 1.428 . S
H10382 C10378 0.930 . S
H10383 C10380 0.929 . S
S10384 N10385 1.613 . S
S10384 N10386 1.610 . S
N10385 S10384 1.613 . S
N10385 C10388 1.350 . S
N10386 S10384 1.610 . S
N10386 C10387 1.351 . S
C10387 C10381 1.428 . S
C10387 N10386 1.351 . S
C10387 C10388 1.434 . S
C10388 C10379 1.429 . S
C10388 N10385 1.350 . S
C10388 C10387 1.434 . S
C10389 C10390 1.369 . S
C10389 C10391 1.419 . S
C10389 H10393 0.930 . S
C10390 C10389 1.369 . S
C10390 C10399 1.429 . S
C10391 C10389 1.419 . S
C10391 C10392 1.363 . S
C10391 H10394 0.929 . S
C10392 C10391 1.363 . S
C10392 C10398 1.428 . S
H10393 C10389 0.930 . S
H10394 C10391 0.929 . S
S10395 N10396 1.613 . S
S10395 N10397 1.610 . S
N10396 S10395 1.613 . S
N10396 C10399 1.350 . S
N10397 S10395 1.610 . S
N10397 C10398 1.351 . S
C10398 C10392 1.428 . S
C10398 N10397 1.351 . S
C10398 C10399 1.434 . S
C10399 C10390 1.429 . S
C10399 N10396 1.350 . S
C10399 C10398 1.434 . S
C10400 C10401 1.369 . S
C10400 C10402 1.419 . S
C10400 H10404 0.930 . S
C10401 C10400 1.369 . S
C10401 C10410 1.429 . S
C10402 C10400 1.419 . S
C10402 C10403 1.363 . S
C10402 H10405 0.929 . S
C10403 C10402 1.363 . S
C10403 C10409 1.428 . S
H10404 C10400 0.930 . S
H10405 C10402 0.929 . S
S10406 N10407 1.613 . S
S10406 N10408 1.610 . S
N10407 S10406 1.613 . S
N10407 C10410 1.350 . S
N10408 S10406 1.610 . S
N10408 C10409 1.351 . S
C10409 C10403 1.428 . S
C10409 N10408 1.351 . S
C10409 C10410 1.434 . S
C10410 C10401 1.429 . S
C10410 N10407 1.350 . S
C10410 C10409 1.434 . S
C10411 C10412 1.369 . S
C10411 C10413 1.419 . S
C10411 H10415 0.930 . S
C10412 C10411 1.369 . S
C10412 C10421 1.429 . S
C10413 C10411 1.419 . S
C10413 C10414 1.363 . S
C10413 H10416 0.929 . S
C10414 C10413 1.363 . S
C10414 C10420 1.428 . S
H10415 C10411 0.930 . S
H10416 C10413 0.929 . S
S10417 N10418 1.613 . S
S10417 N10419 1.610 . S
N10418 S10417 1.613 . S
N10418 C10421 1.350 . S
N10419 S10417 1.610 . S
N10419 C10420 1.351 . S
C10420 C10414 1.428 . S
C10420 N10419 1.351 . S
C10420 C10421 1.434 . S
C10421 C10412 1.429 . S
C10421 N10418 1.350 . S
C10421 C10420 1.434 . S
C10422 C10423 1.369 . S
C10422 C10424 1.419 . S
C10422 H10426 0.930 . S
C10423 C10422 1.369 . S
C10423 C10432 1.429 . S
C10424 C10422 1.419 . S
C10424 C10425 1.363 . S
C10424 H10427 0.929 . S
C10425 C10424 1.363 . S
C10425 C10431 1.428 . S
H10426 C10422 0.930 . S
H10427 C10424 0.929 . S
S10428 N10429 1.613 . S
S10428 N10430 1.610 . S
N10429 S10428 1.613 . S
N10429 C10432 1.350 . S
N10430 S10428 1.610 . S
N10430 C10431 1.351 . S
C10431 C10425 1.428 . S
C10431 N10430 1.351 . S
C10431 C10432 1.434 . S
C10432 C10423 1.429 . S
C10432 N10429 1.350 . S
C10432 C10431 1.434 . S
C10433 C10434 1.369 . S
C10433 C10435 1.419 . S
C10433 H10437 0.930 . S
C10434 C10433 1.369 . S
C10434 C10443 1.429 . S
C10435 C10433 1.419 . S
C10435 C10436 1.363 . S
C10435 H10438 0.929 . S
C10436 C10435 1.363 . S
C10436 C10442 1.428 . S
H10437 C10433 0.930 . S
H10438 C10435 0.929 . S
S10439 N10440 1.613 . S
S10439 N10441 1.610 . S
N10440 S10439 1.613 . S
N10440 C10443 1.350 . S
N10441 S10439 1.610 . S
N10441 C10442 1.351 . S
C10442 C10436 1.428 . S
C10442 N10441 1.351 . S
C10442 C10443 1.434 . S
C10443 C10434 1.429 . S
C10443 N10440 1.350 . S
C10443 C10442 1.434 . S
C10444 C10445 1.369 . S
C10444 C10446 1.419 . S
C10444 H10448 0.930 . S
C10445 C10444 1.369 . S
C10445 C10454 1.429 . S
C10446 C10444 1.419 . S
C10446 C10447 1.363 . S
C10446 H10449 0.929 . S
C10447 C10446 1.363 . S
C10447 C10453 1.428 . S
H10448 C10444 0.930 . S
H10449 C10446 0.929 . S
S10450 N10451 1.613 . S
S10450 N10452 1.610 . S
N10451 S10450 1.613 . S
N10451 C10454 1.350 . S
N10452 S10450 1.610 . S
N10452 C10453 1.351 . S
C10453 C10447 1.428 . S
C10453 N10452 1.351 . S
C10453 C10454 1.434 . S
C10454 C10445 1.429 . S
C10454 N10451 1.350 . S
C10454 C10453 1.434 . S
C10455 C10456 1.369 . S
C10455 C10457 1.419 . S
C10455 H10459 0.930 . S
C10456 C10455 1.369 . S
C10456 C10465 1.429 . S
C10457 C10455 1.419 . S
C10457 C10458 1.363 . S
C10457 H10460 0.929 . S
C10458 C10457 1.363 . S
C10458 C10464 1.428 . S
H10459 C10455 0.930 . S
H10460 C10457 0.929 . S
S10461 N10462 1.613 . S
S10461 N10463 1.610 . S
N10462 S10461 1.613 . S
N10462 C10465 1.350 . S
N10463 S10461 1.610 . S
N10463 C10464 1.351 . S
C10464 C10458 1.428 . S
C10464 N10463 1.351 . S
C10464 C10465 1.434 . S
C10465 C10456 1.429 . S
C10465 N10462 1.350 . S
C10465 C10464 1.434 . S
C10466 C10467 1.369 . S
C10466 C10468 1.419 . S
C10466 H10470 0.930 . S
C10467 C10466 1.369 . S
C10467 C10476 1.429 . S
C10468 C10466 1.419 . S
C10468 C10469 1.363 . S
C10468 H10471 0.929 . S
C10469 C10468 1.363 . S
C10469 C10475 1.428 . S
H10470 C10466 0.930 . S
H10471 C10468 0.929 . S
S10472 N10473 1.613 . S
S10472 N10474 1.610 . S
N10473 S10472 1.613 . S
N10473 C10476 1.350 . S
N10474 S10472 1.610 . S
N10474 C10475 1.351 . S
C10475 C10469 1.428 . S
C10475 N10474 1.351 . S
C10475 C10476 1.434 . S
C10476 C10467 1.429 . S
C10476 N10473 1.350 . S
C10476 C10475 1.434 . S
C10477 C10478 1.369 . S
C10477 C10479 1.419 . S
C10477 H10481 0.930 . S
C10478 C10477 1.369 . S
C10478 C10487 1.429 . S
C10479 C10477 1.419 . S
C10479 C10480 1.363 . S
C10479 H10482 0.929 . S
C10480 C10479 1.363 . S
C10480 C10486 1.428 . S
H10481 C10477 0.930 . S
H10482 C10479 0.929 . S
S10483 N10484 1.613 . S
S10483 N10485 1.610 . S
N10484 S10483 1.613 . S
N10484 C10487 1.350 . S
N10485 S10483 1.610 . S
N10485 C10486 1.351 . S
C10486 C10480 1.428 . S
C10486 N10485 1.351 . S
C10486 C10487 1.434 . S
C10487 C10478 1.429 . S
C10487 N10484 1.350 . S
C10487 C10486 1.434 . S
C10488 C10489 1.369 . S
C10488 C10490 1.419 . S
C10488 H10492 0.930 . S
C10489 C10488 1.369 . S
C10489 C10498 1.429 . S
C10490 C10488 1.419 . S
C10490 C10491 1.363 . S
C10490 H10493 0.929 . S
C10491 C10490 1.363 . S
C10491 C10497 1.428 . S
H10492 C10488 0.930 . S
H10493 C10490 0.929 . S
S10494 N10495 1.613 . S
S10494 N10496 1.610 . S
N10495 S10494 1.613 . S
N10495 C10498 1.350 . S
N10496 S10494 1.610 . S
N10496 C10497 1.351 . S
C10497 C10491 1.428 . S
C10497 N10496 1.351 . S
C10497 C10498 1.434 . S
C10498 C10489 1.429 . S
C10498 N10495 1.350 . S
C10498 C10497 1.434 . S
C10499 C10500 1.369 . S
C10499 C10501 1.419 . S
C10499 H10503 0.930 . S
C10500 C10499 1.369 . S
C10500 C10509 1.429 . S
C10501 C10499 1.419 . S
C10501 C10502 1.363 . S
C10501 H10504 0.929 . S
C10502 C10501 1.363 . S
C10502 C10508 1.428 . S
H10503 C10499 0.930 . S
H10504 C10501 0.929 . S
S10505 N10506 1.613 . S
S10505 N10507 1.610 . S
N10506 S10505 1.613 . S
N10506 C10509 1.350 . S
N10507 S10505 1.610 . S
N10507 C10508 1.351 . S
C10508 C10502 1.428 . S
C10508 N10507 1.351 . S
C10508 C10509 1.434 . S
C10509 C10500 1.429 . S
C10509 N10506 1.350 . S
C10509 C10508 1.434 . S
C10510 C10511 1.369 . S
C10510 C10512 1.419 . S
C10510 H10514 0.930 . S
C10511 C10510 1.369 . S
C10511 C10520 1.429 . S
C10512 C10510 1.419 . S
C10512 C10513 1.363 . S
C10512 H10515 0.929 . S
C10513 C10512 1.363 . S
C10513 C10519 1.428 . S
H10514 C10510 0.930 . S
H10515 C10512 0.929 . S
S10516 N10517 1.613 . S
S10516 N10518 1.610 . S
N10517 S10516 1.613 . S
N10517 C10520 1.350 . S
N10518 S10516 1.610 . S
N10518 C10519 1.351 . S
C10519 C10513 1.428 . S
C10519 N10518 1.351 . S
C10519 C10520 1.434 . S
C10520 C10511 1.429 . S
C10520 N10517 1.350 . S
C10520 C10519 1.434 . S
C10521 C10522 1.369 . S
C10521 C10523 1.419 . S
C10521 H10525 0.930 . S
C10522 C10521 1.369 . S
C10522 C10531 1.429 . S
C10523 C10521 1.419 . S
C10523 C10524 1.363 . S
C10523 H10526 0.929 . S
C10524 C10523 1.363 . S
C10524 C10530 1.428 . S
H10525 C10521 0.930 . S
H10526 C10523 0.929 . S
S10527 N10528 1.613 . S
S10527 N10529 1.610 . S
N10528 S10527 1.613 . S
N10528 C10531 1.350 . S
N10529 S10527 1.610 . S
N10529 C10530 1.351 . S
C10530 C10524 1.428 . S
C10530 N10529 1.351 . S
C10530 C10531 1.434 . S
C10531 C10522 1.429 . S
C10531 N10528 1.350 . S
C10531 C10530 1.434 . S
C10532 C10533 1.369 . S
C10532 C10534 1.419 . S
C10532 H10536 0.930 . S
C10533 C10532 1.369 . S
C10533 C10542 1.429 . S
C10534 C10532 1.419 . S
C10534 C10535 1.363 . S
C10534 H10537 0.929 . S
C10535 C10534 1.363 . S
C10535 C10541 1.428 . S
H10536 C10532 0.930 . S
H10537 C10534 0.929 . S
S10538 N10539 1.613 . S
S10538 N10540 1.610 . S
N10539 S10538 1.613 . S
N10539 C10542 1.350 . S
N10540 S10538 1.610 . S
N10540 C10541 1.351 . S
C10541 C10535 1.428 . S
C10541 N10540 1.351 . S
C10541 C10542 1.434 . S
C10542 C10533 1.429 . S
C10542 N10539 1.350 . S
C10542 C10541 1.434 . S
C10543 C10544 1.369 . S
C10543 C10545 1.419 . S
C10543 H10547 0.930 . S
C10544 C10543 1.369 . S
C10544 C10553 1.429 . S
C10545 C10543 1.419 . S
C10545 C10546 1.363 . S
C10545 H10548 0.929 . S
C10546 C10545 1.363 . S
C10546 C10552 1.428 . S
H10547 C10543 0.930 . S
H10548 C10545 0.929 . S
S10549 N10550 1.613 . S
S10549 N10551 1.610 . S
N10550 S10549 1.613 . S
N10550 C10553 1.350 . S
N10551 S10549 1.610 . S
N10551 C10552 1.351 . S
C10552 C10546 1.428 . S
C10552 N10551 1.351 . S
C10552 C10553 1.434 . S
C10553 C10544 1.429 . S
C10553 N10550 1.350 . S
C10553 C10552 1.434 . S
C10554 C10555 1.369 . S
C10554 C10556 1.419 . S
C10554 H10558 0.930 . S
C10555 C10554 1.369 . S
C10555 C10564 1.429 . S
C10556 C10554 1.419 . S
C10556 C10557 1.363 . S
C10556 H10559 0.929 . S
C10557 C10556 1.363 . S
C10557 C10563 1.428 . S
H10558 C10554 0.930 . S
H10559 C10556 0.929 . S
S10560 N10561 1.613 . S
S10560 N10562 1.610 . S
N10561 S10560 1.613 . S
N10561 C10564 1.350 . S
N10562 S10560 1.610 . S
N10562 C10563 1.351 . S
C10563 C10557 1.428 . S
C10563 N10562 1.351 . S
C10563 C10564 1.434 . S
C10564 C10555 1.429 . S
C10564 N10561 1.350 . S
C10564 C10563 1.434 . S
C10565 C10566 1.369 . S
C10565 C10567 1.419 . S
C10565 H10569 0.930 . S
C10566 C10565 1.369 . S
C10566 C10575 1.429 . S
C10567 C10565 1.419 . S
C10567 C10568 1.363 . S
C10567 H10570 0.929 . S
C10568 C10567 1.363 . S
C10568 C10574 1.428 . S
H10569 C10565 0.930 . S
H10570 C10567 0.929 . S
S10571 N10572 1.613 . S
S10571 N10573 1.610 . S
N10572 S10571 1.613 . S
N10572 C10575 1.350 . S
N10573 S10571 1.610 . S
N10573 C10574 1.351 . S
C10574 C10568 1.428 . S
C10574 N10573 1.351 . S
C10574 C10575 1.434 . S
C10575 C10566 1.429 . S
C10575 N10572 1.350 . S
C10575 C10574 1.434 . S
C10576 C10577 1.369 . S
C10576 C10578 1.419 . S
C10576 H10580 0.930 . S
C10577 C10576 1.369 . S
C10577 C10586 1.429 . S
C10578 C10576 1.419 . S
C10578 C10579 1.363 . S
C10578 H10581 0.929 . S
C10579 C10578 1.363 . S
C10579 C10585 1.428 . S
H10580 C10576 0.930 . S
H10581 C10578 0.929 . S
S10582 N10583 1.613 . S
S10582 N10584 1.610 . S
N10583 S10582 1.613 . S
N10583 C10586 1.350 . S
N10584 S10582 1.610 . S
N10584 C10585 1.351 . S
C10585 C10579 1.428 . S
C10585 N10584 1.351 . S
C10585 C10586 1.434 . S
C10586 C10577 1.429 . S
C10586 N10583 1.350 . S
C10586 C10585 1.434 . S
C10587 C10588 1.369 . S
C10587 C10589 1.419 . S
C10587 H10591 0.930 . S
C10588 C10587 1.369 . S
C10588 C10597 1.429 . S
C10589 C10587 1.419 . S
C10589 C10590 1.363 . S
C10589 H10592 0.929 . S
C10590 C10589 1.363 . S
C10590 C10596 1.428 . S
H10591 C10587 0.930 . S
H10592 C10589 0.929 . S
S10593 N10594 1.613 . S
S10593 N10595 1.610 . S
N10594 S10593 1.613 . S
N10594 C10597 1.350 . S
N10595 S10593 1.610 . S
N10595 C10596 1.351 . S
C10596 C10590 1.428 . S
C10596 N10595 1.351 . S
C10596 C10597 1.434 . S
C10597 C10588 1.429 . S
C10597 N10594 1.350 . S
C10597 C10596 1.434 . S
C10598 C10599 1.369 . S
C10598 C10600 1.419 . S
C10598 H10602 0.930 . S
C10599 C10598 1.369 . S
C10599 C10608 1.429 . S
C10600 C10598 1.419 . S
C10600 C10601 1.363 . S
C10600 H10603 0.929 . S
C10601 C10600 1.363 . S
C10601 C10607 1.428 . S
H10602 C10598 0.930 . S
H10603 C10600 0.929 . S
S10604 N10605 1.613 . S
S10604 N10606 1.610 . S
N10605 S10604 1.613 . S
N10605 C10608 1.350 . S
N10606 S10604 1.610 . S
N10606 C10607 1.351 . S
C10607 C10601 1.428 . S
C10607 N10606 1.351 . S
C10607 C10608 1.434 . S
C10608 C10599 1.429 . S
C10608 N10605 1.350 . S
C10608 C10607 1.434 . S
C10609 C10610 1.369 . S
C10609 C10611 1.419 . S
C10609 H10613 0.930 . S
C10610 C10609 1.369 . S
C10610 C10619 1.429 . S
C10611 C10609 1.419 . S
C10611 C10612 1.363 . S
C10611 H10614 0.929 . S
C10612 C10611 1.363 . S
C10612 C10618 1.428 . S
H10613 C10609 0.930 . S
H10614 C10611 0.929 . S
S10615 N10616 1.613 . S
S10615 N10617 1.610 . S
N10616 S10615 1.613 . S
N10616 C10619 1.350 . S
N10617 S10615 1.610 . S
N10617 C10618 1.351 . S
C10618 C10612 1.428 . S
C10618 N10617 1.351 . S
C10618 C10619 1.434 . S
C10619 C10610 1.429 . S
C10619 N10616 1.350 . S
C10619 C10618 1.434 . S
C10620 C10621 1.369 . S
C10620 C10622 1.419 . S
C10620 H10624 0.930 . S
C10621 C10620 1.369 . S
C10621 C10630 1.429 . S
C10622 C10620 1.419 . S
C10622 C10623 1.363 . S
C10622 H10625 0.929 . S
C10623 C10622 1.363 . S
C10623 C10629 1.428 . S
H10624 C10620 0.930 . S
H10625 C10622 0.929 . S
S10626 N10627 1.613 . S
S10626 N10628 1.610 . S
N10627 S10626 1.613 . S
N10627 C10630 1.350 . S
N10628 S10626 1.610 . S
N10628 C10629 1.351 . S
C10629 C10623 1.428 . S
C10629 N10628 1.351 . S
C10629 C10630 1.434 . S
C10630 C10621 1.429 . S
C10630 N10627 1.350 . S
C10630 C10629 1.434 . S
C10631 C10632 1.369 . S
C10631 C10633 1.419 . S
C10631 H10635 0.930 . S
C10632 C10631 1.369 . S
C10632 C10641 1.429 . S
C10633 C10631 1.419 . S
C10633 C10634 1.363 . S
C10633 H10636 0.929 . S
C10634 C10633 1.363 . S
C10634 C10640 1.428 . S
H10635 C10631 0.930 . S
H10636 C10633 0.929 . S
S10637 N10638 1.613 . S
S10637 N10639 1.610 . S
N10638 S10637 1.613 . S
N10638 C10641 1.350 . S
N10639 S10637 1.610 . S
N10639 C10640 1.351 . S
C10640 C10634 1.428 . S
C10640 N10639 1.351 . S
C10640 C10641 1.434 . S
C10641 C10632 1.429 . S
C10641 N10638 1.350 . S
C10641 C10640 1.434 . S
C10642 C10643 1.369 . S
C10642 C10644 1.419 . S
C10642 H10646 0.930 . S
C10643 C10642 1.369 . S
C10643 C10652 1.429 . S
C10644 C10642 1.419 . S
C10644 C10645 1.363 . S
C10644 H10647 0.929 . S
C10645 C10644 1.363 . S
C10645 C10651 1.428 . S
H10646 C10642 0.930 . S
H10647 C10644 0.929 . S
S10648 N10649 1.613 . S
S10648 N10650 1.610 . S
N10649 S10648 1.613 . S
N10649 C10652 1.350 . S
N10650 S10648 1.610 . S
N10650 C10651 1.351 . S
C10651 C10645 1.428 . S
C10651 N10650 1.351 . S
C10651 C10652 1.434 . S
C10652 C10643 1.429 . S
C10652 N10649 1.350 . S
C10652 C10651 1.434 . S
C10653 C10654 1.369 . S
C10653 C10655 1.419 . S
C10653 H10657 0.930 . S
C10654 C10653 1.369 . S
C10654 C10663 1.429 . S
C10655 C10653 1.419 . S
C10655 C10656 1.363 . S
C10655 H10658 0.929 . S
C10656 C10655 1.363 . S
C10656 C10662 1.428 . S
H10657 C10653 0.930 . S
H10658 C10655 0.929 . S
S10659 N10660 1.613 . S
S10659 N10661 1.610 . S
N10660 S10659 1.613 . S
N10660 C10663 1.350 . S
N10661 S10659 1.610 . S
N10661 C10662 1.351 . S
C10662 C10656 1.428 . S
C10662 N10661 1.351 . S
C10662 C10663 1.434 . S
C10663 C10654 1.429 . S
C10663 N10660 1.350 . S
C10663 C10662 1.434 . S
C10664 C10665 1.369 . S
C10664 C10666 1.419 . S
C10664 H10668 0.930 . S
C10665 C10664 1.369 . S
C10665 C10674 1.429 . S
C10666 C10664 1.419 . S
C10666 C10667 1.363 . S
C10666 H10669 0.929 . S
C10667 C10666 1.363 . S
C10667 C10673 1.428 . S
H10668 C10664 0.930 . S
H10669 C10666 0.929 . S
S10670 N10671 1.613 . S
S10670 N10672 1.610 . S
N10671 S10670 1.613 . S
N10671 C10674 1.350 . S
N10672 S10670 1.610 . S
N10672 C10673 1.351 . S
C10673 C10667 1.428 . S
C10673 N10672 1.351 . S
C10673 C10674 1.434 . S
C10674 C10665 1.429 . S
C10674 N10671 1.350 . S
C10674 C10673 1.434 . S
C10675 C10676 1.369 . S
C10675 C10677 1.419 . S
C10675 H10679 0.930 . S
C10676 C10675 1.369 . S
C10676 C10685 1.429 . S
C10677 C10675 1.419 . S
C10677 C10678 1.363 . S
C10677 H10680 0.929 . S
C10678 C10677 1.363 . S
C10678 C10684 1.428 . S
H10679 C10675 0.930 . S
H10680 C10677 0.929 . S
S10681 N10682 1.613 . S
S10681 N10683 1.610 . S
N10682 S10681 1.613 . S
N10682 C10685 1.350 . S
N10683 S10681 1.610 . S
N10683 C10684 1.351 . S
C10684 C10678 1.428 . S
C10684 N10683 1.351 . S
C10684 C10685 1.434 . S
C10685 C10676 1.429 . S
C10685 N10682 1.350 . S
C10685 C10684 1.434 . S
C10686 C10687 1.369 . S
C10686 C10688 1.419 . S
C10686 H10690 0.930 . S
C10687 C10686 1.369 . S
C10687 C10696 1.429 . S
C10688 C10686 1.419 . S
C10688 C10689 1.363 . S
C10688 H10691 0.929 . S
C10689 C10688 1.363 . S
C10689 C10695 1.428 . S
H10690 C10686 0.930 . S
H10691 C10688 0.929 . S
S10692 N10693 1.613 . S
S10692 N10694 1.610 . S
N10693 S10692 1.613 . S
N10693 C10696 1.350 . S
N10694 S10692 1.610 . S
N10694 C10695 1.351 . S
C10695 C10689 1.428 . S
C10695 N10694 1.351 . S
C10695 C10696 1.434 . S
C10696 C10687 1.429 . S
C10696 N10693 1.350 . S
C10696 C10695 1.434 . S
C10697 C10698 1.369 . S
C10697 C10699 1.419 . S
C10697 H10701 0.930 . S
C10698 C10697 1.369 . S
C10698 C10707 1.429 . S
C10699 C10697 1.419 . S
C10699 C10700 1.363 . S
C10699 H10702 0.929 . S
C10700 C10699 1.363 . S
C10700 C10706 1.428 . S
H10701 C10697 0.930 . S
H10702 C10699 0.929 . S
S10703 N10704 1.613 . S
S10703 N10705 1.610 . S
N10704 S10703 1.613 . S
N10704 C10707 1.350 . S
N10705 S10703 1.610 . S
N10705 C10706 1.351 . S
C10706 C10700 1.428 . S
C10706 N10705 1.351 . S
C10706 C10707 1.434 . S
C10707 C10698 1.429 . S
C10707 N10704 1.350 . S
C10707 C10706 1.434 . S
C10708 C10709 1.369 . S
C10708 C10710 1.419 . S
C10708 H10712 0.930 . S
C10709 C10708 1.369 . S
C10709 C10718 1.429 . S
C10710 C10708 1.419 . S
C10710 C10711 1.363 . S
C10710 H10713 0.929 . S
C10711 C10710 1.363 . S
C10711 C10717 1.428 . S
H10712 C10708 0.930 . S
H10713 C10710 0.929 . S
S10714 N10715 1.613 . S
S10714 N10716 1.610 . S
N10715 S10714 1.613 . S
N10715 C10718 1.350 . S
N10716 S10714 1.610 . S
N10716 C10717 1.351 . S
C10717 C10711 1.428 . S
C10717 N10716 1.351 . S
C10717 C10718 1.434 . S
C10718 C10709 1.429 . S
C10718 N10715 1.350 . S
C10718 C10717 1.434 . S
C10719 C10720 1.369 . S
C10719 C10721 1.419 . S
C10719 H10723 0.930 . S
C10720 C10719 1.369 . S
C10720 C10729 1.429 . S
C10721 C10719 1.419 . S
C10721 C10722 1.363 . S
C10721 H10724 0.929 . S
C10722 C10721 1.363 . S
C10722 C10728 1.428 . S
H10723 C10719 0.930 . S
H10724 C10721 0.929 . S
S10725 N10726 1.613 . S
S10725 N10727 1.610 . S
N10726 S10725 1.613 . S
N10726 C10729 1.350 . S
N10727 S10725 1.610 . S
N10727 C10728 1.351 . S
C10728 C10722 1.428 . S
C10728 N10727 1.351 . S
C10728 C10729 1.434 . S
C10729 C10720 1.429 . S
C10729 N10726 1.350 . S
C10729 C10728 1.434 . S
C10730 C10731 1.369 . S
C10730 C10732 1.419 . S
C10730 H10734 0.930 . S
C10731 C10730 1.369 . S
C10731 C10740 1.429 . S
C10732 C10730 1.419 . S
C10732 C10733 1.363 . S
C10732 H10735 0.929 . S
C10733 C10732 1.363 . S
C10733 C10739 1.428 . S
H10734 C10730 0.930 . S
H10735 C10732 0.929 . S
S10736 N10737 1.613 . S
S10736 N10738 1.610 . S
N10737 S10736 1.613 . S
N10737 C10740 1.350 . S
N10738 S10736 1.610 . S
N10738 C10739 1.351 . S
C10739 C10733 1.428 . S
C10739 N10738 1.351 . S
C10739 C10740 1.434 . S
C10740 C10731 1.429 . S
C10740 N10737 1.350 . S
C10740 C10739 1.434 . S
C10741 C10742 1.369 . S
C10741 C10743 1.419 . S
C10741 H10745 0.930 . S
C10742 C10741 1.369 . S
C10742 C10751 1.429 . S
C10743 C10741 1.419 . S
C10743 C10744 1.363 . S
C10743 H10746 0.929 . S
C10744 C10743 1.363 . S
C10744 C10750 1.428 . S
H10745 C10741 0.930 . S
H10746 C10743 0.929 . S
S10747 N10748 1.613 . S
S10747 N10749 1.610 . S
N10748 S10747 1.613 . S
N10748 C10751 1.350 . S
N10749 S10747 1.610 . S
N10749 C10750 1.351 . S
C10750 C10744 1.428 . S
C10750 N10749 1.351 . S
C10750 C10751 1.434 . S
C10751 C10742 1.429 . S
C10751 N10748 1.350 . S
C10751 C10750 1.434 . S
C7587 C4836 2.285 1_455 S
C7585 C15 2.298 . S
C7598 C6747 1.909 . S
C7596 C55 1.882 . S
C7609 C4914 2.236 . S
C7607 C95 2.298 . S
C7620 C6669 1.908 . S
C7618 C135 1.881 . S
C7631 C5070 2.290 1_455 S
C7629 C175 2.292 . S
C7640 C215 1.880 . S
C7642 C6825 1.912 . S
C7653 C4992 2.235 . S
C7651 C255 2.298 . S
C7664 C6903 1.908 . S
C7662 C295 1.888 . S
C7675 C7527 2.115 1_545 S
C7673 C335 2.291 . S
C7684 C375 1.883 . S
C7686 C7293 1.910 . S
C7697 C7566 2.179 1_565 S
C7695 C415 2.297 . S
C7706 C455 1.886 . S
C7708 C7488 1.913 . S
C7719 C7371 2.119 1_565 S
C7717 C495 2.295 . S
C7730 C5538 1.909 . S
C7728 C535 1.889 . S
C7741 C5577 2.180 1_545 S
C7739 C575 2.298 . S
C7750 C615 1.889 . S
C7752 C5460 1.911 . S
C7761 C655 2.295 . S
C7763 C7176 2.118 1_554 S
C7774 C5226 2.116 1_556 S
C7772 C695 2.293 . S
C7785 C6981 1.909 . S
C7783 C735 1.889 . S
C7796 C5148 2.275 . S
C7794 C775 2.294 . S
C7805 C815 1.879 . S
C7807 C5187 1.911 . S
C7818 C7254 2.276 . S
C7816 C855 2.293 . S
C7829 C7137 1.913 . S
C7827 C895 1.883 . S
C7838 C935 1.886 . S
C7840 C7215 1.910 . S
C7849 C975 2.261 . S
C7851 C3900 2.148 1_655 S
C7860 C1015 1.884 . S
C7862 C5811 1.920 . S
C7873 C3978 2.272 . S
C7871 C1055 2.272 . S
C7882 C1095 1.897 . S
C7884 C5733 1.900 . S
C7895 C4134 2.157 1_655 S
C7893 C1135 2.268 . S
C7904 C1175 1.899 . S
C7906 C5889 1.901 . S
C7917 C4056 2.271 . S
C7915 C1215 2.275 . S
C7928 C5967 1.919 . S
C7926 C1255 1.892 . S
C7937 C1295 2.274 . S
C7939 C6591 2.274 1_565 S
C7950 C6357 1.918 . S
C7948 C1335 1.891 . S
C7959 C1375 2.272 . S
C7961 C6630 2.117 1_545 S
C7972 C6552 1.930 . S
C7970 C1415 1.894 . S
C7983 C6435 2.278 1_545 S
C7981 C1455 2.267 . S
C7992 C1495 1.892 . S
C7994 C4602 1.929 . S
C8003 C1535 2.275 . S
C8005 C4641 2.122 1_565 S
C8016 C4524 1.922 . S
C8014 C1575 1.891 . S
C8025 C1615 2.268 . S
C8027 C6240 2.276 1_556 S
C8038 C4290 2.272 1_554 S
C8036 C1655 2.272 . S
C8047 C1695 1.890 . S
C8049 C6045 1.925 . S
C8060 C4212 2.276 . S
C8058 C1735 2.266 . S
C8069 C1775 1.891 . S
C8071 C4251 1.899 . S
C8082 C6318 2.272 . S
C8080 C1815 2.270 . S
C8093 C6201 1.923 . S
C8091 C1855 1.894 . S
C8104 C6279 1.894 . S
C8102 C1895 1.894 . S
C8113 C1935 2.301 . S
C8115 C6708 2.283 . S
C8126 C4875 1.913 . S
C8124 C1975 1.882 . S
C8137 C6786 2.240 1_655 S
C8135 C2015 2.291 . S
C8148 C4797 1.909 . S
C8146 C2055 1.879 . S
C8157 C2095 2.301 . S
C8159 C6942 2.284 . S
C8170 C4953 1.909 . S
C8168 C2135 1.880 . S
C8181 C6864 2.117 1_655 S
C8179 C2175 2.298 . S
C8192 C5031 1.912 . S
C8190 C2215 1.885 . S
C8201 C2255 2.291 . S
C8203 C5655 2.234 . S
C8214 C5421 1.911 . S
C8212 C2295 1.889 . S
C8225 C5694 2.292 . S
C8223 C2335 2.294 . S
C8234 C2375 1.884 . S
C8236 C5616 1.909 . S
C8245 C2415 2.291 . S
C8247 C5499 2.234 . S
C8256 C2455 1.882 . S
C8258 C7410 1.912 . S
C8267 C2495 2.298 . S
C8269 C7449 2.287 . S
C8280 C7332 1.914 . S
C8278 C2535 1.883 . S
C8289 C2575 2.294 . S
C8291 C5304 2.236 . S
C8302 C7098 2.238 . S
C8300 C2615 2.294 . S
C8313 C5109 1.912 . S
C8311 C2655 1.887 . S
C8324 C7020 2.274 1_556 S
C8322 C2695 2.294 . S
C8333 C2735 1.879 . S
C8335 C7059 1.911 . S
C8344 C2775 2.294 . S
C8346 C5382 2.275 1_554 S
C8357 C5265 1.913 . S
C8355 C2815 1.881 . S
C8366 C2855 1.880 . S
C8368 C5343 1.911 . S
C8377 C2895 2.262 . S
C8379 C5772 2.271 . S
C8390 C3939 1.917 . S
C8388 C2935 1.891 . S
C8401 C5850 2.270 1_455 S
C8399 C2975 2.276 . S
C8410 C3015 1.898 . S
C8412 C3861 1.904 . S
C8423 C6006 2.267 . S
C8421 C3055 2.268 . S
C8434 C4017 1.905 . S
C8432 C3095 1.897 . S
C8443 C3135 2.275 . S
C8445 C5928 2.272 1_455 S
C8454 C3175 1.886 . S
C8456 C4095 1.922 . S
C8467 C4719 2.272 . S
C8465 C3215 2.275 . S
C8476 C3255 1.890 . S
C8478 C4485 1.918 . S
C8489 C4758 2.245 . S
C8487 C3295 2.266 . S
C8500 C4680 1.929 . S
C8498 C3335 1.892 . S
C8509 C3375 2.267 . S
C8511 C4563 2.278 . S
C8520 C3415 1.899 . S
C8522 C6474 1.927 . S
C8533 C6513 2.245 . S
C8531 C3455 2.268 . S
C8542 C3495 1.889 . S
C8544 C6396 1.919 . S
C8555 C4368 2.272 . S
C8553 C3535 2.273 . S
C8566 C6162 2.276 . S
C8564 C3575 2.268 . S
C8575 C3615 1.892 . S
C8577 C4173 1.927 . S
C8586 C3655 2.267 . S
C8588 C6084 2.275 1_554 S
C8597 C3695 1.887 . S
C8599 C6123 1.899 . S
C8608 C3735 2.274 . S
C8610 C4446 2.270 1_556 S
C8619 C3775 1.890 . S
C8621 C4329 1.927 . S
C8632 C4407 1.894 . S
C8630 C3815 1.894 . S
C8643 C4207 1.985 . S
C8641 C2 2.006 . S
C8654 C4231 2.168 . S
C8652 C42 2.042 . S
C8663 C82 2.005 . S
C8665 C4285 1.983 . S
C8674 C122 2.050 . S
C8676 C4168 2.163 . S
C8685 C162 2.005 . S
C8687 C4441 1.984 . S
C8698 C4324 2.163 . S
C8696 C202 2.050 . S
C8709 C4363 1.985 . S
C8707 C242 2.006 . S
C8718 C282 2.048 . S
C8720 C4387 2.163 . S
C8729 C322 2.003 . S
C8731 C3973 1.981 . S
C8740 C362 2.043 . S
C8742 C3841 2.170 . S
C8751 C402 2.004 . S
C8753 C3895 1.983 . S
C8764 C3934 2.167 . S
C8762 C442 2.043 . S
C8773 C482 2.005 . S
C8775 C4051 1.984 . S
C8784 C522 2.048 . S
C8786 C4090 2.161 . S
C8795 C562 2.005 . S
C8797 C4129 1.985 . S
C8806 C602 2.049 . S
C8808 C3997 2.169 . S
C8819 C4558 1.984 . S
C8817 C642 2.005 . S
C8828 C682 2.005 . S
C8830 C6586 1.983 . S
C8841 C4480 2.163 . S
C8839 C722 2.050 . S
C8852 C6610 1.984 . S
C8850 C762 2.007 . S
C8861 C802 2.048 . S
C8863 C6547 2.162 . S
C8872 C842 2.007 . S
C8874 C6493 1.985 . S
C8885 C6391 2.169 . S
C8883 C882 2.042 . S
C8896 C6469 2.167 . S
C8894 C922 2.037 . S
C8907 C5128 1.990 . S
C8905 C962 1.944 . S
C8918 C5182 2.169 . S
C8916 C1002 2.226 . S
C8929 C5221 1.985 . S
C8927 C1042 1.937 . S
C8938 C1082 2.229 . S
C8940 C5104 2.169 . S
C8949 C1122 1.939 . S
C8951 C5362 1.988 . S
C8962 C5260 2.169 . S
C8960 C1162 2.229 . S
C8971 C1202 1.942 . S
C8973 C5299 1.988 . S
C8984 C5338 2.168 . S
C8982 C1242 2.228 . S
C8993 C1282 1.939 . S
C8995 C4909 1.987 . S
C9006 C4792 2.173 . S
C9004 C1322 2.222 . S
C9015 C1362 1.944 . S
C9017 C4816 1.992 . S
C9028 C4870 2.173 . S
C9026 C1402 2.230 . S
C9039 C4987 1.988 . S
C9037 C1442 1.943 . S
C9048 C1482 2.226 . S
C9050 C5026 2.177 . S
C9061 C5050 1.992 . S
C9059 C1522 1.944 . S
C9072 C4948 2.171 . S
C9070 C1562 2.223 . S
C9083 C5494 1.986 . S
C9081 C1602 1.941 . S
C9094 C7522 1.986 . S
C9092 C1642 1.941 . S
C9105 C5416 2.173 . S
C9103 C1682 2.232 . S
C9114 C1722 1.941 . S
C9116 C7546 1.990 . S
C9125 C1762 2.220 . S
C9127 C7483 2.170 . S
C9138 C7429 1.987 . S
C9136 C1802 1.937 . S
C9149 C7327 2.175 . S
C9147 C1842 2.228 . S
C9160 C7405 2.168 . S
C9158 C1882 2.222 . S
C9169 C1922 2.004 . S
C9171 C6079 1.983 . S
C9182 C6103 2.168 . S
C9180 C1962 2.044 . S
C9191 C2002 2.006 . S
C9193 C6157 1.985 . S
C9204 C6040 2.164 . S
C9202 C2042 2.050 . S
C9213 C2082 2.006 . S
C9215 C6313 1.985 . S
C9224 C2122 2.050 . S
C9226 C6196 2.164 . S
C9235 C2162 2.004 . S
C9237 C6235 1.983 . S
C9246 C2202 2.041 . S
C9248 C6259 2.167 . S
C9257 C2242 2.004 . S
C9259 C5845 1.982 . S
C9270 C5713 2.167 . S
C9268 C2282 2.044 . S
C9281 C5767 1.984 . S
C9279 C2322 2.004 . S
C9290 C2362 2.042 . S
C9292 C5806 2.167 . S
C9301 C2402 2.004 . S
C9303 C5923 1.984 . S
C9312 C2442 2.046 . S
C9314 C5962 2.161 . S
C9323 C2482 2.006 . S
C9325 C6001 1.986 . S
C9334 C2522 2.054 . S
C9336 C5869 2.163 . S
C9347 C6430 1.982 . S
C9345 C2562 2.004 . S
C9358 C4714 1.982 . S
C9356 C2602 2.003 . S
C9369 C6352 2.164 . S
C9367 C2642 2.044 . S
C9380 C4738 1.987 . S
C9378 C2682 2.008 . S
C9391 C4675 2.161 . S
C9389 C2722 2.047 . S
C9402 C4621 1.984 . S
C9400 C2762 2.006 . S
C9411 C2802 2.050 . S
C9413 C4519 2.163 . S
C9424 C4597 2.166 . S
C9422 C2842 2.042 . S
C9433 C2882 1.941 . S
C9435 C7000 1.989 . S
C9444 C2922 2.222 . S
C9446 C7054 2.175 . S
C9457 C7093 1.987 . S
C9455 C2962 1.941 . S
C9466 C3002 2.227 . S
C9468 C6976 2.172 . S
C9479 C7234 1.987 . S
C9477 C3042 1.938 . S
C9488 C3082 2.222 . S
C9490 C7132 2.175 . S
C9499 C3122 1.942 . S
C9501 C7171 1.987 . S
C9512 C7210 2.168 . S
C9510 C3162 2.228 . S
C9523 C6781 1.985 . S
C9521 C3202 1.937 . S
C9534 C6664 2.168 . S
C9532 C3242 2.227 . S
C9545 C6688 1.990 . S
C9543 C3282 1.940 . S
C9556 C6742 2.179 . S
C9554 C3322 2.225 . S
C9565 C3362 1.940 . S
C9567 C6859 1.987 . S
C9578 C6898 2.173 . S
C9576 C3402 2.232 . S
C9587 C3442 1.938 . S
C9589 C6922 1.989 . S
C9598 C3482 2.221 . S
C9600 C6820 2.174 . S
C9609 C3522 1.941 . S
C9611 C7366 1.987 . S
C9620 C3562 1.939 . S
C9622 C5650 1.985 . S
C9631 C3602 2.226 . S
C9633 C7288 2.177 . S
C9644 C5674 1.989 . S
C9642 C3642 1.939 . S
C9653 C3682 2.226 . S
C9655 C5611 2.165 . S
C9664 C3722 1.943 . S
C9666 C5557 1.990 . S
C9675 C3762 2.231 . S
C9677 C5455 2.175 . S
C9688 C5533 2.169 . S
C9686 C3802 2.221 . S
C9697 C21 1.877 . S
C9699 C3856 1.861 . S
C9708 C61 2.177 . S
C9710 C3880 2.319 . S
C9719 C101 1.873 . S
C9721 C3919 1.860 . S
C9732 C3958 2.316 . S
C9730 C141 2.169 . S
C9743 C4012 1.862 . S
C9741 C181 1.879 . S
C9752 C221 2.177 . S
C9754 C4036 2.312 . S
C9763 C261 1.875 . S
C9765 C4075 1.861 . S
C9774 C301 2.174 . S
C9776 C4114 2.317 . S
C9787 C4153 1.860 . S
C9785 C341 1.875 . S
C9798 C4192 2.315 . S
C9796 C381 2.179 . S
C9807 C421 1.877 . S
C9809 C4246 1.860 . S
C9820 C4270 2.315 . S
C9818 C461 2.176 . S
C9829 C501 1.875 . S
C9831 C4309 1.861 . S
C9840 C541 2.171 . S
C9842 C4348 2.317 . S
C9851 C581 1.877 . S
C9853 C4402 1.860 . S
C9862 C621 2.177 . S
C9864 C4426 2.319 . S
C9873 C661 1.875 . S
C9875 C4465 1.861 . S
C9884 C701 1.874 . S
C9886 C4504 1.860 . S
C9897 C4543 2.312 . S
C9895 C741 2.180 . S
C9908 C4582 1.866 . S
C9906 C781 1.880 . S
C9919 C4636 2.308 . S
C9917 C821 2.177 . S
C9930 C4660 1.865 . S
C9928 C861 1.880 . S
C9939 C901 2.170 . S
C9941 C4699 2.316 . S
C9952 C4753 2.308 . S
C9950 C941 2.175 . S
C9961 C981 1.803 . S
C9963 C4777 1.858 . S
C9972 C1021 2.376 . S
C9974 C4831 2.298 . S
C9983 C1061 1.794 . S
C9985 C4855 1.855 . S
C9996 C4894 2.301 . S
C9994 C1101 2.374 . S
C10005 C1141 1.801 . S
C10007 C4933 1.856 . S
C10018 C4972 2.295 . S
C10016 C1181 2.377 . S
C10027 C1221 1.797 . S
C10029 C5011 1.857 . S
C10038 C1261 2.371 . S
C10040 C5065 2.303 . S
C10051 C5089 1.855 . S
C10049 C1301 1.797 . S
C10060 C1341 2.371 . S
C10062 C5143 2.299 . S
C10073 C5167 1.860 . S
C10071 C1381 1.800 . S
C10082 C1421 2.378 . S
C10084 C5206 2.304 . S
C10095 C5245 1.857 . S
C10093 C1461 1.796 . S
C10106 C5284 2.304 . S
C10104 C1501 2.375 . S
C10117 C5323 1.858 . S
C10115 C1541 1.800 . S
C10126 C1581 2.372 . S
C10128 C5377 2.299 . S
C10137 C1621 1.794 . S
C10139 C5401 1.855 . S
C10148 C1661 1.799 . S
C10150 C5440 1.858 . S
C10159 C1701 2.377 . S
C10161 C5479 2.303 . S
C10170 C1741 1.799 . S
C10172 C5518 1.859 . S
C10181 C1781 2.373 . S
C10183 C5572 2.299 . S
C10194 C5596 1.859 . S
C10192 C1821 1.804 . S
C10203 C1861 2.374 . S
C10205 C5635 2.301 . S
C10216 C5689 2.300 . S
C10214 C1901 2.372 . S
C10225 C1941 1.876 . S
C10227 C5728 1.859 . S
C10238 C5752 2.315 . S
C10236 C1981 2.179 . S
C10249 C5791 1.858 . S
C10247 C2021 1.872 . S
C10260 C5830 2.313 . S
C10258 C2061 2.179 . S
C10269 C2101 1.879 . S
C10271 C5884 1.862 . S
C10280 C2141 2.169 . S
C10282 C5908 2.316 . S
C10293 C5947 1.859 . S
C10291 C2181 1.873 . S
C10304 C5986 2.318 . S
C10302 C2221 2.180 . S
C10313 C2261 1.875 . S
C10315 C6025 1.861 . S
C10324 C2301 2.182 . S
C10326 C6064 2.314 . S
C10335 C2341 1.877 . S
C10337 C6118 1.861 . S
C10346 C2381 2.171 . S
C10348 C6142 2.317 . S
C10357 C2421 1.875 . S
C10359 C6181 1.860 . S
C10370 C6220 2.315 . S
C10368 C2461 2.177 . S
C10381 C6274 1.859 . S
C10379 C2501 1.876 . S
C10392 C6298 2.317 . S
C10390 C2541 2.181 . S
C10403 C6337 1.861 . S
C10401 C2581 1.875 . S
C10412 C2621 1.875 . S
C10414 C6376 1.861 . S
C10423 C2661 2.169 . S
C10425 C6415 2.317 . S
C10436 C6454 1.866 . S
C10434 C2701 1.880 . S
C10445 C2741 2.169 . S
C10447 C6508 2.314 . S
C10458 C6532 1.863 . S
C10456 C2781 1.878 . S
C10469 C6571 2.313 . S
C10467 C2821 2.180 . S
C10480 C6625 2.314 . S
C10478 C2861 2.170 . S
C10489 C2901 1.795 . S
C10491 C6649 1.854 . S
C10500 C2941 2.376 . S
C10502 C6703 2.298 . S
C10511 C2981 1.797 . S
C10513 C6727 1.855 . S
C10522 C3021 2.378 . S
C10524 C6766 2.296 . S
C10535 C6805 1.857 . S
C10533 C3061 1.803 . S
C10546 C6844 2.295 . S
C10544 C3101 2.376 . S
C10557 C6883 1.858 . S
C10555 C3141 1.801 . S
C10566 C3181 2.376 . S
C10568 C6937 2.299 . S
C10577 C3221 1.801 . S
C10579 C6961 1.858 . S
C10590 C7015 2.302 . S
C10588 C3261 2.370 . S
C10601 C7039 1.860 . S
C10599 C3301 1.799 . S
C10612 C7078 2.304 . S
C10610 C3341 2.375 . S
C10623 C7117 1.858 . S
C10621 C3381 1.798 . S
C10634 C7156 2.303 . S
C10632 C3421 2.380 . S
C10645 C7195 1.859 . S
C10643 C3461 1.802 . S
C10656 C7249 2.298 . S
C10654 C3501 2.376 . S
C10667 C7273 1.858 . S
C10665 C3541 1.802 . S
C10678 C7312 1.858 . S
C10676 C3581 1.801 . S
C10689 C7351 2.298 . S
C10687 C3621 2.380 . S
C10698 C3661 1.798 . S
C10700 C7390 1.857 . S
C10711 C7444 2.301 . S
C10709 C3701 2.370 . S
C10720 C3741 1.799 . S
C10722 C7468 1.859 . S
C10733 C7507 2.298 . S
C10731 C3781 2.379 . S
C10744 C7561 2.295 . S
C10742 C3821 2.372 . S
