# Generated by pormake.
# Topology ctn, (3,4)-cn, num edge types: 1
# Building blocks:
#     Node 0, Type 0, BuildingBlock: CUQRIR_clean_linker_1, # of connection points: 3
#     Node 1, Type 0, BuildingBlock: CUQRIR_clean_linker_1, # of connection points: 3
#     Node 2, Type 0, BuildingBlock: CUQRIR_clean_linker_1, # of connection points: 3
#     Node 3, Type 0, BuildingBlock: CUQRIR_clean_linker_1, # of connection points: 3
#     Node 4, Type 0, BuildingBlock: CUQRIR_clean_linker_1, # of connection points: 3
#     Node 5, Type 0, BuildingBlock: CUQRIR_clean_linker_1, # of connection points: 3
#     Node 6, Type 0, BuildingBlock: CUQRIR_clean_linker_1, # of connection points: 3
#     Node 7, Type 0, BuildingBlock: CUQRIR_clean_linker_1, # of connection points: 3
#     Node 8, Type 0, BuildingBlock: CUQRIR_clean_linker_1, # of connection points: 3
#     Node 9, Type 0, BuildingBlock: CUQRIR_clean_linker_1, # of connection points: 3
#     Node 10, Type 0, BuildingBlock: CUQRIR_clean_linker_1, # of connection points: 3
#     Node 11, Type 0, BuildingBlock: CUQRIR_clean_linker_1, # of connection points: 3
#     Node 12, Type 0, BuildingBlock: CUQRIR_clean_linker_1, # of connection points: 3
#     Node 13, Type 0, BuildingBlock: CUQRIR_clean_linker_1, # of connection points: 3
#     Node 14, Type 0, BuildingBlock: CUQRIR_clean_linker_1, # of connection points: 3
#     Node 15, Type 0, BuildingBlock: CUQRIR_clean_linker_1, # of connection points: 3
#     Node 16, Type 1, BuildingBlock: KUFVIS_clean_sbu_0, # of connection points: 4
#     Node 17, Type 1, BuildingBlock: KUFVIS_clean_sbu_0, # of connection points: 4
#     Node 18, Type 1, BuildingBlock: KUFVIS_clean_sbu_0, # of connection points: 4
#     Node 19, Type 1, BuildingBlock: KUFVIS_clean_sbu_0, # of connection points: 4
#     Node 20, Type 1, BuildingBlock: KUFVIS_clean_sbu_0, # of connection points: 4
#     Node 21, Type 1, BuildingBlock: KUFVIS_clean_sbu_0, # of connection points: 4
#     Node 22, Type 1, BuildingBlock: KUFVIS_clean_sbu_0, # of connection points: 4
#     Node 23, Type 1, BuildingBlock: KUFVIS_clean_sbu_0, # of connection points: 4
#     Node 24, Type 1, BuildingBlock: KUFVIS_clean_sbu_0, # of connection points: 4
#     Node 25, Type 1, BuildingBlock: KUFVIS_clean_sbu_0, # of connection points: 4
#     Node 26, Type 1, BuildingBlock: KUFVIS_clean_sbu_0, # of connection points: 4
#     Node 27, Type 1, BuildingBlock: KUFVIS_clean_sbu_0, # of connection points: 4
#     Edge 28, Type (0, 1), BuildingBlock: UVAHIK_clean_linker_0, # of connection points: 2
#     Edge 29, Type (0, 1), BuildingBlock: UVAHIK_clean_linker_0, # of connection points: 2
#     Edge 30, Type (0, 1), BuildingBlock: UVAHIK_clean_linker_0, # of connection points: 2
#     Edge 31, Type (0, 1), BuildingBlock: UVAHIK_clean_linker_0, # of connection points: 2
#     Edge 32, Type (0, 1), BuildingBlock: UVAHIK_clean_linker_0, # of connection points: 2
#     Edge 33, Type (0, 1), BuildingBlock: UVAHIK_clean_linker_0, # of connection points: 2
#     Edge 34, Type (0, 1), BuildingBlock: UVAHIK_clean_linker_0, # of connection points: 2
#     Edge 35, Type (0, 1), BuildingBlock: UVAHIK_clean_linker_0, # of connection points: 2
#     Edge 36, Type (0, 1), BuildingBlock: UVAHIK_clean_linker_0, # of connection points: 2
#     Edge 37, Type (0, 1), BuildingBlock: UVAHIK_clean_linker_0, # of connection points: 2
#     Edge 38, Type (0, 1), BuildingBlock: UVAHIK_clean_linker_0, # of connection points: 2
#     Edge 39, Type (0, 1), BuildingBlock: UVAHIK_clean_linker_0, # of connection points: 2
#     Edge 40, Type (0, 1), BuildingBlock: UVAHIK_clean_linker_0, # of connection points: 2
#     Edge 41, Type (0, 1), BuildingBlock: UVAHIK_clean_linker_0, # of connection points: 2
#     Edge 42, Type (0, 1), BuildingBlock: UVAHIK_clean_linker_0, # of connection points: 2
#     Edge 43, Type (0, 1), BuildingBlock: UVAHIK_clean_linker_0, # of connection points: 2
#     Edge 44, Type (0, 1), BuildingBlock: UVAHIK_clean_linker_0, # of connection points: 2
#     Edge 45, Type (0, 1), BuildingBlock: UVAHIK_clean_linker_0, # of connection points: 2
#     Edge 46, Type (0, 1), BuildingBlock: UVAHIK_clean_linker_0, # of connection points: 2
#     Edge 47, Type (0, 1), BuildingBlock: UVAHIK_clean_linker_0, # of connection points: 2
#     Edge 48, Type (0, 1), BuildingBlock: UVAHIK_clean_linker_0, # of connection points: 2
#     Edge 49, Type (0, 1), BuildingBlock: UVAHIK_clean_linker_0, # of connection points: 2
#     Edge 50, Type (0, 1), BuildingBlock: UVAHIK_clean_linker_0, # of connection points: 2
#     Edge 51, Type (0, 1), BuildingBlock: UVAHIK_clean_linker_0, # of connection points: 2
#     Edge 52, Type (0, 1), BuildingBlock: UVAHIK_clean_linker_0, # of connection points: 2
#     Edge 53, Type (0, 1), BuildingBlock: UVAHIK_clean_linker_0, # of connection points: 2
#     Edge 54, Type (0, 1), BuildingBlock: UVAHIK_clean_linker_0, # of connection points: 2
#     Edge 55, Type (0, 1), BuildingBlock: UVAHIK_clean_linker_0, # of connection points: 2
#     Edge 56, Type (0, 1), BuildingBlock: UVAHIK_clean_linker_0, # of connection points: 2
#     Edge 57, Type (0, 1), BuildingBlock: UVAHIK_clean_linker_0, # of connection points: 2
#     Edge 58, Type (0, 1), BuildingBlock: UVAHIK_clean_linker_0, # of connection points: 2
#     Edge 59, Type (0, 1), BuildingBlock: UVAHIK_clean_linker_0, # of connection points: 2
#     Edge 60, Type (0, 1), BuildingBlock: UVAHIK_clean_linker_0, # of connection points: 2
#     Edge 61, Type (0, 1), BuildingBlock: UVAHIK_clean_linker_0, # of connection points: 2
#     Edge 62, Type (0, 1), BuildingBlock: UVAHIK_clean_linker_0, # of connection points: 2
#     Edge 63, Type (0, 1), BuildingBlock: UVAHIK_clean_linker_0, # of connection points: 2
#     Edge 64, Type (0, 1), BuildingBlock: UVAHIK_clean_linker_0, # of connection points: 2
#     Edge 65, Type (0, 1), BuildingBlock: UVAHIK_clean_linker_0, # of connection points: 2
#     Edge 66, Type (0, 1), BuildingBlock: UVAHIK_clean_linker_0, # of connection points: 2
#     Edge 67, Type (0, 1), BuildingBlock: UVAHIK_clean_linker_0, # of connection points: 2
#     Edge 68, Type (0, 1), BuildingBlock: UVAHIK_clean_linker_0, # of connection points: 2
#     Edge 69, Type (0, 1), BuildingBlock: UVAHIK_clean_linker_0, # of connection points: 2
#     Edge 70, Type (0, 1), BuildingBlock: UVAHIK_clean_linker_0, # of connection points: 2
#     Edge 71, Type (0, 1), BuildingBlock: UVAHIK_clean_linker_0, # of connection points: 2
#     Edge 72, Type (0, 1), BuildingBlock: UVAHIK_clean_linker_0, # of connection points: 2
#     Edge 73, Type (0, 1), BuildingBlock: UVAHIK_clean_linker_0, # of connection points: 2
#     Edge 74, Type (0, 1), BuildingBlock: UVAHIK_clean_linker_0, # of connection points: 2
#     Edge 75, Type (0, 1), BuildingBlock: UVAHIK_clean_linker_0, # of connection points: 2
# Relax obj value: 0.090
# Max RMSD: 0.207
# Mean RMSD: 0.138
data_MOF--net-ctn--node1-KUFVIS_clean_sbu_0--node2-CUQRIR_clean_linker_1--edge1-UVAHIK_clean_linker_0
_symmetry_space_group_name_H-M    P1
_symmetry_Int_Tables_number       1
_symmetry_cell_setting            triclinic
loop_
_symmetry_equiv_pos_as_xyz
'x, y, z'
_cell_length_a     67.977718
_cell_length_b     63.414046
_cell_length_c     65.373861
_cell_angle_alpha  97.195796
_cell_angle_beta   89.282496
_cell_angle_gamma 93.970782
loop_
_atom_site_label
_atom_site_type_symbol
_atom_site_fract_x
_atom_site_fract_y
_atom_site_fract_z
_atom_type_partial_charge
C0 C 0.04579 0.02599 0.07727 0.0
N1 N 0.05401 0.03427 0.06079 0.0
N2 N 0.03053 0.03726 0.08492 0.0
C3 C 0.05352 0.00774 0.08671 0.0
C4 C 0.02989 0.05282 0.07254 0.0
N5 N 0.0443 0.05117 0.05803 0.0
C6 C 0.01429 0.06866 0.07363 0.0
H7 H 0.04658 0.99255 0.0789 0.0
H8 H 0.04999 0.00885 0.10341 0.0
H9 H 0.06973 0.00743 0.08462 0.0
H10 H 0.01976 0.08347 0.08333 0.0
H11 H 1.00047 0.06235 0.08057 0.0
H12 H 0.01101 0.07276 0.05808 0.0
C13 C 0.31039 0.71529 0.2025 0.0
N14 N 0.31679 0.70589 0.21843 0.0
N15 N 0.32105 0.73385 0.20098 0.0
C16 C 0.29246 0.7074 0.1898 0.0
C17 C 0.33409 0.73551 0.21667 0.0
N18 N 0.33148 0.71852 0.2274 0.0
C19 C 0.3496 0.75353 0.2211 0.0
H20 H 0.2906 0.68974 0.18808 0.0
H21 H 0.29338 0.71286 0.17434 0.0
H22 H 0.27924 0.71377 0.19782 0.0
H23 H 0.34367 0.76603 0.23245 0.0
H24 H 0.35363 0.76073 0.20687 0.0
H25 H 0.36299 0.74794 0.22768 0.0
C26 C 0.97329 0.49826 0.07338 0.0
N27 N 0.98578 0.48245 0.07323 0.0
N28 N 0.96242 0.49572 0.05585 0.0
C29 C 0.97181 0.51632 0.09049 0.0
C30 C 0.96891 0.47786 0.04501 0.0
N31 N 0.98322 0.46992 0.05547 0.0
C32 C 0.96101 0.46792 0.02435 0.0
H33 H 0.95669 0.52195 0.09148 0.0
H34 H 0.98225 0.52974 0.08727 0.0
H35 H 0.97571 0.51163 0.1056 0.0
H36 H 0.95468 0.47994 0.01589 0.0
H37 H 0.94929 0.4554 0.02678 0.0
H38 H 0.97271 0.46031 0.01472 0.0
C39 C 0.67519 0.79856 0.21669 0.0
N40 N 0.69228 0.80664 0.20883 0.0
N41 N 0.67205 0.80818 0.23604 0.0
C42 C 0.66259 0.77991 0.20635 0.0
C43 C 0.68783 0.82228 0.23974 0.0
N44 N 0.70023 0.82124 0.22332 0.0
C45 C 0.69055 0.8378 0.25905 0.0
H46 H 0.65201 0.78581 0.19597 0.0
H47 H 0.6541 0.77144 0.21781 0.0
H48 H 0.67176 0.76851 0.19694 0.0
H49 H 0.69952 0.83073 0.27016 0.0
H50 H 0.67612 0.84127 0.26638 0.0
H51 H 0.69836 0.85292 0.25563 0.0
C52 C 0.03155 0.98265 0.49316 0.0
N53 N 0.04774 0.98218 0.50499 0.0
N54 N 0.03332 0.99929 0.48203 0.0
C55 C 0.01377 0.96708 0.49255 0.0
C56 C 0.05116 0.009 0.48748 0.0
N57 N 0.05989 0.99875 0.50156 0.0
C58 C 0.06104 0.02699 0.47736 0.0
H59 H 1.00043 0.97452 0.48807 0.0
H60 H 0.01124 0.96131 0.50777 0.0
H61 H 0.01625 0.95322 0.4809 0.0
H62 H 0.07063 0.03751 0.48851 0.0
H63 H 0.05006 0.03653 0.471 0.0
H64 H 0.07045 0.02025 0.46452 0.0
C65 C 0.18306 0.71217 0.82193 0.0
N66 N 0.1986 0.70511 0.83127 0.0
N67 N 0.18057 0.7018 0.80263 0.0
C68 C 0.17175 0.73088 0.83067 0.0
C69 C 0.19538 0.68843 0.80041 0.0
N70 N 0.20642 0.69056 0.81776 0.0
C71 C 0.19853 0.67263 0.78172 0.0
H72 H 0.15923 0.72515 0.84004 0.0
H73 H 0.16578 0.73895 0.81822 0.0
H74 H 0.18127 0.74268 0.84072 0.0
H75 H 0.20895 0.6801 0.7711 0.0
H76 H 0.18446 0.66782 0.77346 0.0
H77 H 0.20504 0.65826 0.78609 0.0
C78 C 0.96744 0.53236 0.46669 0.0
N79 N 0.98256 0.54755 0.46775 0.0
N80 N 0.95593 0.53494 0.48374 0.0
C81 C 0.96452 0.51423 0.44957 0.0
C82 C 0.96461 0.55221 0.4953 0.0
N83 N 0.98096 0.55976 0.48571 0.0
C84 C 0.95594 0.56297 0.51488 0.0
H85 H 0.95555 0.51935 0.43725 0.0
H86 H 0.95664 0.50017 0.45523 0.0
H87 H 0.97889 0.50961 0.44281 0.0
H88 H 0.96264 0.55702 0.52825 0.0
H89 H 0.93975 0.55944 0.5155 0.0
H90 H 0.95907 0.58049 0.51624 0.0
C91 C 0.80365 0.82022 0.83623 0.0
N92 N 0.82002 0.80917 0.83318 0.0
N93 N 0.80491 0.83735 0.82573 0.0
C94 C 0.78677 0.81486 0.85021 0.0
C95 C 0.8227 0.8364 0.81622 0.0
N96 N 0.83206 0.81939 0.82093 0.0
C97 C 0.83004 0.85085 0.80074 0.0
H98 H 0.77627 0.80295 0.84153 0.0
H99 H 0.77883 0.82921 0.85577 0.0
H100 H 0.79211 0.80786 0.86367 0.0
H101 H 0.84035 0.86359 0.80852 0.0
H102 H 0.81773 0.8584 0.79417 0.0
H103 H 0.83809 0.84191 0.78797 0.0
C104 C 0.30804 0.3288 0.34481 0.0
N105 N 0.32338 0.31629 0.34081 0.0
N106 N 0.30554 0.34051 0.32919 0.0
C107 C 0.29464 0.32835 0.36325 0.0
C108 C 0.31983 0.3346 0.31548 0.0
N109 N 0.33057 0.31979 0.32244 0.0
C110 C 0.32341 0.34344 0.29536 0.0
H111 H 0.28062 0.33568 0.36096 0.0
H112 H 0.30228 0.33728 0.3769 0.0
H113 H 0.29133 0.31171 0.36653 0.0
H114 H 0.31752 0.35937 0.29578 0.0
H115 H 0.31586 0.33247 0.28288 0.0
H116 H 0.3394 0.34461 0.29166 0.0
C117 C 0.47427 0.99678 0.57171 0.0
N118 N 0.48606 0.98041 0.57196 0.0
N119 N 0.46222 0.99347 0.55502 0.0
C120 C 0.47568 0.01676 0.58684 0.0
C121 C 0.46729 0.97451 0.54509 0.0
N122 N 0.48193 0.96675 0.55522 0.0
C123 C 0.45686 0.96266 0.52648 0.0
H124 H 0.46585 0.01446 0.60016 0.0
H125 H 0.47109 0.03059 0.57966 0.0
H126 H 0.49096 0.0203 0.59267 0.0
H127 H 0.46455 0.96697 0.51236 0.0
H128 H 0.44132 0.96686 0.52597 0.0
H129 H 0.45711 0.94518 0.52646 0.0
C130 C 0.17513 0.29889 0.71628 0.0
N131 N 0.19056 0.30835 0.70685 0.0
N132 N 0.16849 0.31227 0.73223 0.0
C133 C 0.16642 0.27666 0.70976 0.0
C134 C 0.18049 0.33024 0.73218 0.0
N135 N 0.19383 0.32795 0.71658 0.0
C136 C 0.1805 0.3491 0.74866 0.0
H137 H 0.1508 0.27483 0.71475 0.0
H138 H 0.17494 0.26526 0.71698 0.0
H139 H 0.16737 0.27263 0.69278 0.0
H140 H 0.1958 0.3555 0.75247 0.0
H141 H 0.17306 0.34485 0.76292 0.0
H142 H 0.17257 0.36184 0.74285 0.0
C143 C 0.80731 0.2189 0.70655 0.0
N144 N 0.81355 0.20913 0.72235 0.0
N145 N 0.8172 0.2381 0.70622 0.0
C146 C 0.79045 0.21053 0.69241 0.0
C147 C 0.82958 0.23984 0.72249 0.0
N148 N 0.82728 0.22227 0.73248 0.0
C149 C 0.84486 0.25799 0.72758 0.0
H150 H 0.79615 0.19984 0.67926 0.0
H151 H 0.78348 0.22371 0.68621 0.0
H152 H 0.77909 0.2013 0.70058 0.0
H153 H 0.83875 0.26998 0.73933 0.0
H154 H 0.84887 0.26585 0.71372 0.0
H155 H 0.85834 0.25235 0.73392 0.0
C156 C 0.54805 0.5263 0.58068 0.0
N157 N 0.55433 0.53328 0.56281 0.0
N158 N 0.53195 0.53625 0.58803 0.0
C159 C 0.55795 0.51007 0.59114 0.0
C160 C 0.52864 0.54954 0.57393 0.0
N161 N 0.54226 0.54774 0.55855 0.0
C162 C 0.51195 0.56409 0.5752 0.0
H163 H 0.55201 0.4939 0.58469 0.0
H164 H 0.55512 0.51226 0.608 0.0
H165 H 0.57409 0.51117 0.58829 0.0
H166 H 0.51606 0.57852 0.58611 0.0
H167 H 0.49843 0.5561 0.5812 0.0
H168 H 0.50867 0.5693 0.56014 0.0
C169 C 0.53239 0.48455 0.99546 0.0
N170 N 0.54871 0.48452 0.00721 0.0
N171 N 0.53611 0.49624 0.97966 0.0
C172 C 0.51339 0.47153 0.99827 0.0
C173 C 0.55534 0.50314 0.98213 0.0
N174 N 0.56307 0.49585 0.9987 0.0
C175 C 0.56633 0.51798 0.96902 0.0
H176 H 0.51612 0.45682 0.00506 0.0
H177 H 0.50563 0.46703 0.98337 0.0
H178 H 0.50367 0.48113 0.00892 0.0
H179 H 0.57717 0.52888 0.9784 0.0
H180 H 0.55605 0.52756 0.96164 0.0
H181 H 0.57453 0.50844 0.95678 0.0
C182 C 0.67856 0.2048 0.32245 0.0
N183 N 0.69421 0.19861 0.33229 0.0
N184 N 0.67829 0.19625 0.30244 0.0
C185 C 0.66452 0.22074 0.3318 0.0
C186 C 0.69447 0.18488 0.30028 0.0
N187 N 0.70427 0.1864 0.31842 0.0
C188 C 0.70008 0.17147 0.28075 0.0
H189 H 0.65271 0.21236 0.34019 0.0
H190 H 0.65756 0.22861 0.31978 0.0
H191 H 0.67226 0.23313 0.3429 0.0
H192 H 0.71141 0.18065 0.27248 0.0
H193 H 0.68716 0.16723 0.2705 0.0
H194 H 0.70646 0.15669 0.28427 0.0
C195 C 0.47617 0.03244 0.97196 0.0
N196 N 0.48941 0.04923 0.97054 0.0
N197 N 0.4619 0.03782 0.98599 0.0
C198 C 0.47669 0.01112 0.959 0.0
C199 C 0.4669 0.05851 0.99293 0.0
N200 N 0.48348 0.06545 0.98345 0.0
C201 C 0.45528 0.07201 0.0087 0.0
H202 H 0.47195 0.01266 0.9431 0.0
H203 H 0.4669 0.99878 0.96534 0.0
H204 H 0.49185 0.0057 0.95807 0.0
H205 H 0.45945 0.06886 0.02432 0.0
H206 H 0.43924 0.06786 0.0067 0.0
H207 H 0.45826 0.08925 0.00778 0.0
Mn208 Mn 0.2514 0.88544 0.02853 0.0
Mn209 Mn 0.25205 0.89902 0.98017 0.0
C210 C 0.23854 0.86167 1.00136 0.0
C211 C 0.26591 0.87013 0.05493 0.0
C212 C 0.22335 0.91605 0.01307 0.0
O213 O 0.2725 0.91011 0.03023 0.0
O214 O 0.27215 0.91733 0.99723 0.0
C215 C 0.29167 0.88583 0.96698 0.0
N216 N 0.27179 0.88447 0.96409 0.0
C217 C 0.27459 0.86018 0.93298 0.0
C218 C 0.2951 0.86141 0.93556 0.0
C219 C 0.30366 0.87423 0.95268 0.0
C220 C 0.26339 0.8721 0.94773 0.0
H221 H 0.29831 0.89569 0.98009 0.0
C222 C 0.27885 0.92052 0.01568 0.0
O223 O 0.25265 0.88388 0.05887 0.0
O224 O 0.27113 0.86583 0.03581 0.0
N225 N 0.23347 0.88224 0.96209 0.0
C226 C 0.21339 0.8816 0.96269 0.0
C227 C 0.2025 0.86876 0.94714 0.0
C228 C 0.21236 0.8569 0.93106 0.0
C229 C 0.23302 0.85793 0.93072 0.0
C230 C 0.24309 0.87095 0.94666 0.0
H231 H 0.20575 0.89073 0.97499 0.0
O232 O 0.23261 0.86012 0.0201 0.0
O233 O 0.25137 0.87736 0.99911 0.0
O234 O 0.2293 0.90605 0.02738 0.0
O235 O 0.23102 0.91453 0.99508 0.0
C236 C 0.24403 0.84631 0.91536 0.0
C237 C 0.26479 0.84738 0.91652 0.0
H238 H 0.30441 0.85245 0.92459 0.0
H239 H 0.31948 0.87518 0.95482 0.0
H240 H 0.18655 0.86802 0.94754 0.0
H241 H 0.2039 0.84696 0.91914 0.0
H242 H 0.23665 0.83621 0.90277 0.0
H243 H 0.27307 0.83805 0.90482 0.0
Mn244 Mn 0.15186 0.51569 0.27143 0.0
Mn245 Mn 0.14016 0.56626 0.26931 0.0
C246 C 0.17366 0.53973 0.25703 0.0
C247 C 0.16637 0.48973 0.28756 0.0
C248 C 0.1223 0.52841 0.24079 0.0
O249 O 0.12963 0.51931 0.29293 0.0
O250 O 0.12458 0.55385 0.29126 0.0
C251 C 0.15567 0.5859 0.30992 0.0
N252 N 0.15546 0.58518 0.28901 0.0
C253 C 0.1792 0.61527 0.29021 0.0
C254 C 0.17958 0.61641 0.31176 0.0
C255 C 0.16781 0.60161 0.32165 0.0
C256 C 0.16686 0.59922 0.27934 0.0
H257 H 0.14666 0.57456 0.31759 0.0
C258 C 0.12118 0.53643 0.29916 0.0
O259 O 0.15278 0.48472 0.27369 0.0
O260 O 0.17081 0.5099 0.29284 0.0
N261 N 0.15457 0.58021 0.24889 0.0
C262 C 0.15304 0.57646 0.22796 0.0
C263 C 0.16416 0.58964 0.21574 0.0
C264 C 0.17659 0.60662 0.22515 0.0
C265 C 0.17777 0.61029 0.24671 0.0
C266 C 0.16629 0.59668 0.25809 0.0
H267 H 0.14345 0.56349 0.22064 0.0
O268 O 0.17471 0.51939 0.252 0.0
O269 O 0.1598 0.54526 0.26998 0.0
O270 O 0.13203 0.51442 0.24781 0.0
O271 O 0.12396 0.54814 0.24802 0.0
C272 C 0.19002 0.6268 0.25735 0.0
C273 C 0.19075 0.62928 0.27908 0.0
H274 H 0.18893 0.6285 0.32086 0.0
H275 H 0.16809 0.60233 0.33827 0.0
H276 H 0.16316 0.5867 0.19911 0.0
H277 H 0.18524 0.61667 0.21567 0.0
H278 H 0.19912 0.63754 0.24896 0.0
H279 H 0.2004 0.64188 0.28708 0.0
Mn280 Mn 0.77459 0.63885 0.01064 0.0
Mn281 Mn 0.73261 0.65063 0.98864 0.0
C282 C 0.74513 0.61883 0.01512 0.0
C283 C 0.80382 0.62131 0.01023 0.0
C284 C 0.75007 0.67616 0.02735 0.0
O285 O 0.78484 0.65774 0.98892 0.0
O286 O 0.75595 0.66269 0.97428 0.0
C287 C 0.73711 0.6247 0.94812 0.0
N288 N 0.7263 0.62982 0.96549 0.0
C289 C 0.69975 0.60454 0.95316 0.0
C290 C 0.71052 0.59913 0.93505 0.0
C291 C 0.72932 0.60919 0.93257 0.0
C292 C 0.70833 0.62002 0.96816 0.0
H293 H 0.75158 0.63235 0.94617 0.0
C294 C 0.77481 0.66513 0.97532 0.0
O295 O 0.80149 0.63877 0.02235 0.0
O296 O 0.78943 0.61436 0.99775 0.0
N297 N 0.70872 0.63988 1.00062 0.0
C298 C 0.70047 0.64647 0.01923 0.0
C299 C 0.68176 0.6377 0.02428 0.0
C300 C 0.67161 0.62249 0.01004 0.0
C301 C 0.68025 0.61622 0.99085 0.0
C302 C 0.69892 0.62552 0.98667 0.0
H303 H 0.70811 0.65828 0.03019 0.0
O304 O 0.75955 0.61916 0.028 0.0
O305 O 0.74841 0.63003 0.99992 0.0
O306 O 0.76464 0.66477 0.02858 0.0
O307 O 0.73749 0.67263 0.01274 0.0
C308 C 0.67111 0.60103 0.97574 0.0
C309 C 0.68092 0.59506 0.95697 0.0
H310 H 0.70455 0.5872 0.923 0.0
H311 H 0.73778 0.60501 0.91869 0.0
H312 H 0.67518 0.64267 0.0391 0.0
H313 H 0.65723 0.61568 0.01402 0.0
H314 H 0.65665 0.59362 0.97851 0.0
H315 H 0.67387 0.5831 0.94562 0.0
Mn316 Mn 0.87143 0.01201 0.28598 0.0
Mn317 Mn 0.88801 0.96255 0.28156 0.0
C318 C 0.8528 0.98323 0.2688 0.0
C319 C 0.85393 0.03999 0.30225 0.0
C320 C 0.90274 0.99557 0.25456 0.0
O321 O 0.89259 0.01536 0.30837 0.0
O322 O 0.90296 0.98218 0.30282 0.0
C323 C 0.87529 0.95216 0.32284 0.0
N324 N 0.87532 0.9472 0.30195 0.0
C325 C 0.85679 0.91387 0.30431 0.0
C326 C 0.85665 0.91856 0.32585 0.0
C327 C 0.86585 0.93784 0.33514 0.0
C328 C 0.86631 0.92881 0.29285 0.0
H329 H 0.88246 0.9669 0.33006 0.0
C330 C 0.90398 1.00116 0.3123 0.0
O331 O 0.86813 0.04319 0.28933 0.0
O332 O 0.85048 0.02061 0.30653 0.0
N333 N 0.87507 0.94145 0.26184 0.0
C334 C 0.87567 0.93984 0.24086 0.0
C335 C 0.86662 0.92174 0.22918 0.0
C336 C 0.85743 0.90531 0.23917 0.0
C337 C 0.85725 0.90718 0.26078 0.0
C338 C 0.86638 0.92565 0.27159 0.0
H339 H 0.88289 0.95234 0.23311 0.0
O340 O 0.85053 1.00248 0.26496 0.0
O341 O 0.86592 0.9812 0.28265 0.0
O342 O 0.89281 0.01046 0.26346 0.0
O343 O 0.90169 0.97676 0.25969 0.0
C344 C 0.84817 0.89158 0.27202 0.0
C345 C 0.84779 0.895 0.29375 0.0
H346 H 0.84944 0.90752 0.33539 0.0
H347 H 0.86576 0.94161 0.35175 0.0
H348 H 0.86681 0.92042 0.21252 0.0
H349 H 0.85046 0.89138 0.23011 0.0
H350 H 0.84124 0.87697 0.2641 0.0
H351 H 0.84047 0.88304 0.3022 0.0
Mn352 Mn 0.27445 0.13715 0.51098 0.0
Mn353 Mn 0.23355 0.14965 0.48746 0.0
C354 C 0.24504 0.11645 0.51316 0.0
C355 C 0.30399 0.1203 0.51149 0.0
C356 C 0.24915 0.1736 0.52778 0.0
O357 O 0.28545 0.15777 0.49109 0.0
O358 O 0.25748 0.1621 0.47435 0.0
C359 C 0.23947 0.12461 0.44675 0.0
N360 N 0.22799 0.12943 0.46368 0.0
C361 C 0.20185 0.10436 0.44985 0.0
C362 C 0.2133 0.09933 0.43214 0.0
C363 C 0.23223 0.10942 0.43064 0.0
C364 C 0.20989 0.11956 0.46543 0.0
H365 H 0.25407 0.13222 0.44561 0.0
C366 C 0.27617 0.16517 0.47693 0.0
O367 O 0.30052 0.13696 0.52428 0.0
O368 O 0.29059 0.11382 0.49767 0.0
N369 N 0.20916 0.13863 0.49822 0.0
C370 C 0.20022 0.14483 0.51656 0.0
C371 C 0.18131 0.13594 0.52067 0.0
C372 C 0.17165 0.12102 0.50578 0.0
C373 C 0.18098 0.1152 0.48687 0.0
C374 C 0.19982 0.12463 0.48362 0.0
H375 H 0.20748 0.15642 0.52802 0.0
O376 O 0.259 0.1161 0.52643 0.0
O377 O 0.24883 0.1285 0.49868 0.0
O378 O 0.26322 0.16172 0.52956 0.0
O379 O 0.23765 0.17115 0.5122 0.0
C380 C 0.17239 0.10028 0.47118 0.0
C381 C 0.18288 0.09473 0.45274 0.0
H382 H 0.20776 0.08762 0.41968 0.0
H383 H 0.24122 0.1055 0.4171 0.0
H384 H 0.17418 0.14058 0.53528 0.0
H385 H 0.15711 0.1141 0.50905 0.0
H386 H 0.15782 0.09277 0.47323 0.0
H387 H 0.17624 0.08298 0.44093 0.0
Mn388 Mn 0.3703 0.51214 0.78584 0.0
Mn389 Mn 0.38292 0.46108 0.78016 0.0
C390 C 0.35049 0.48543 0.76694 0.0
C391 C 0.35413 0.54088 0.80258 0.0
C392 C 0.40252 0.49485 0.75632 0.0
O393 O 0.39047 0.51243 0.80898 0.0
O394 O 0.3967 0.47768 0.8042 0.0
C395 C 0.36465 0.44802 0.81839 0.0
N396 N 0.36659 0.44502 0.79748 0.0
C397 C 0.3442 0.41372 0.79483 0.0
C398 C 0.34205 0.41638 0.81635 0.0
C399 C 0.35226 0.43366 0.82816 0.0
C400 C 0.35667 0.42859 0.78596 0.0
H401 H 0.37248 0.46125 0.82752 0.0
C402 C 0.39907 0.49649 0.81399 0.0
O403 O 0.36913 0.54361 0.79051 0.0
O404 O 0.34916 0.52143 0.80588 0.0
N405 N 0.3705 0.44307 0.75764 0.0
C406 C 0.37344 0.44335 0.73701 0.0
C407 C 0.36387 0.42744 0.723 0.0
C408 C 0.35159 0.41127 0.73034 0.0
C409 C 0.34898 0.41117 0.75164 0.0
C410 C 0.35887 0.42746 0.76486 0.0
H411 H 0.38294 0.45567 0.73128 0.0
O412 O 0.34973 0.50515 0.76379 0.0
O413 O 0.3628 0.48189 0.78095 0.0
O414 O 0.39234 0.50995 0.76425 0.0
O415 O 0.40031 0.47597 0.76126 0.0
C416 C 0.33682 0.39566 0.76026 0.0
C417 C 0.33432 0.39701 0.78184 0.0
H418 H 0.33252 0.40533 0.82394 0.0
H419 H 0.35061 0.43588 0.84476 0.0
H420 H 0.36597 0.42763 0.70659 0.0
H421 H 0.34418 0.39907 0.71949 0.0
H422 H 0.32907 0.38281 0.75042 0.0
H423 H 0.32464 0.38521 0.78826 0.0
Mn424 Mn 0.74742 0.37996 0.52675 0.0
Mn425 Mn 0.7443 0.3876 0.4767 0.0
C426 C 0.7326 0.35364 0.50293 0.0
C427 C 0.76405 0.36756 0.55356 0.0
C428 C 0.71828 0.40868 0.51029 0.0
O429 O 0.76826 0.40437 0.52436 0.0
O430 O 0.76585 0.40688 0.49034 0.0
C431 C 0.78258 0.37196 0.46167 0.0
N432 N 0.76253 0.37086 0.46049 0.0
C433 C 0.76261 0.34286 0.43201 0.0
C434 C 0.78326 0.34378 0.43285 0.0
C435 C 0.79327 0.35837 0.44777 0.0
C436 C 0.75275 0.35689 0.44619 0.0
H437 H 0.79033 0.38312 0.47314 0.0
C438 C 0.7738 0.41245 0.50807 0.0
O439 O 0.75107 0.38167 0.55728 0.0
O440 O 0.76788 0.36141 0.53436 0.0
N441 N 0.72419 0.36957 0.46177 0.0
C442 C 0.70423 0.36971 0.46394 0.0
C443 C 0.69203 0.35549 0.45067 0.0
C444 C 0.70044 0.34139 0.43526 0.0
C445 C 0.72101 0.34163 0.43324 0.0
C446 C 0.73243 0.35624 0.44683 0.0
H447 H 0.69768 0.3805 0.47577 0.0
O448 O 0.72826 0.35425 0.52237 0.0
O449 O 0.74506 0.36866 0.49807 0.0
O450 O 0.72512 0.40014 0.52518 0.0
O451 O 0.72467 0.40519 0.49181 0.0
C452 C 0.73063 0.32764 0.41858 0.0
C453 C 0.75142 0.32825 0.41797 0.0
H454 H 0.79156 0.33323 0.42224 0.0
H455 H 0.8092 0.3591 0.44857 0.0
H456 H 0.67616 0.35536 0.45236 0.0
H457 H 0.69098 0.33031 0.42518 0.0
H458 H 0.72219 0.31611 0.40793 0.0
H459 H 0.75864 0.31718 0.40685 0.0
Mn460 Mn 0.65268 0.01448 0.76968 0.0
Mn461 Mn 0.63941 0.06441 0.76686 0.0
C462 C 0.67409 0.03906 0.7558 0.0
C463 C 0.66765 0.98915 0.78622 0.0
C464 C 0.62352 0.02602 0.73791 0.0
O465 O 0.63019 0.01741 0.79072 0.0
O466 O 0.62303 0.0512 0.78797 0.0
C467 C 0.65221 0.08458 0.8083 0.0
N468 N 0.65309 0.08391 0.78741 0.0
C469 C 0.676 0.11481 0.78994 0.0
C470 C 0.67525 0.11589 0.81148 0.0
C471 C 0.66332 0.1007 0.8207 0.0
C472 C 0.6645 0.09848 0.77838 0.0
H473 H 0.64312 0.0729 0.81546 0.0
C474 C 0.6204 0.03377 0.79605 0.0
O475 O 0.65429 0.98364 0.77219 0.0
O476 O 0.67161 0.00942 0.79136 0.0
N477 N 0.6544 0.07901 0.74729 0.0
C478 C 0.65449 0.07489 0.72632 0.0
C479 C 0.66623 0.0882 0.71475 0.0
C480 C 0.67766 0.10564 0.72483 0.0
C481 C 0.67724 0.10964 0.74641 0.0
C482 C 0.66515 0.09592 0.75713 0.0
H483 H 0.6458 0.06146 0.71849 0.0
O484 O 0.6756 0.0188 0.75066 0.0
O485 O 0.65983 0.04427 0.76841 0.0
O486 O 0.63306 0.01236 0.74571 0.0
O487 O 0.62479 0.04583 0.74472 0.0
C488 C 0.68867 0.12642 0.75773 0.0
C489 C 0.68805 0.12899 0.77947 0.0
H490 H 0.6839 0.12821 0.8211 0.0
H491 H 0.66274 0.10137 0.83732 0.0
H492 H 0.66653 0.08496 0.69811 0.0
H493 H 0.68686 0.11573 0.71587 0.0
H494 H 0.69823 0.13721 0.74986 0.0
H495 H 0.69714 0.14175 0.788 0.0
Mn496 Mn 1.0025 0.23944 0.90337 0.0
Mn497 Mn 0.95921 0.23442 0.92877 0.0
C498 C 0.97448 0.22381 0.88607 0.0
C499 C 0.02596 0.25704 0.88396 0.0
C500 C 0.99297 0.2066 0.93349 0.0
O501 O 0.00656 0.26157 0.92885 0.0
O502 O 0.97674 0.25743 0.94408 0.0
C503 C 0.9438 0.2761 0.92404 0.0
N504 N 0.94169 0.25441 0.92117 0.0
C505 C 0.90991 0.25485 0.90545 0.0
C506 C 0.91171 0.27719 0.90835 0.0
C507 C 0.92875 0.28785 0.91764 0.0
C508 C 0.92534 0.24399 0.91226 0.0
H509 H 0.95689 0.28436 0.93113 0.0
C510 C 0.9941 0.26666 0.94318 0.0
O511 O 0.03059 0.24273 0.89522 0.0
O512 O 0.00766 0.26186 0.88454 0.0
N513 N 0.94096 0.213 0.9152 0.0
C514 C 0.94223 0.19149 0.91205 0.0
C515 C 0.92676 0.17851 0.90209 0.0
C516 C 0.91012 0.18776 0.89555 0.0
C517 C 0.90912 0.20993 0.89902 0.0
C518 C 0.92496 0.22206 0.9091 0.0
H519 H 0.95502 0.1843 0.91698 0.0
O520 O 0.99191 0.21922 0.8793 0.0
O521 O 0.97402 0.23686 0.90303 0.0
O522 O 0.00442 0.21505 0.92081 0.0
O523 O 0.97572 0.21269 0.93771 0.0
C524 C 0.89321 0.2205 0.8925 0.0
C525 C 0.89362 0.24295 0.89569 0.0
H526 H 0.90019 0.28631 0.90331 0.0
H527 H 0.93028 0.30508 0.91984 0.0
H528 H 0.92767 0.16141 0.8994 0.0
H529 H 0.89828 0.17771 0.88773 0.0
H530 H 0.88075 0.21154 0.88469 0.0
H531 H 0.88146 0.25091 0.89026 0.0
Mn532 Mn 0.50201 0.73662 0.40374 0.0
Mn533 Mn 0.45807 0.73168 0.42789 0.0
C534 C 0.47444 0.72076 0.38581 0.0
C535 C 0.52571 0.75418 0.38457 0.0
C536 C 0.49146 0.7038 0.43368 0.0
O537 O 0.50543 0.75905 0.42895 0.0
O538 O 0.47557 0.7543 0.44392 0.0
C539 C 0.44363 0.7738 0.42312 0.0
N540 N 0.44117 0.75214 0.42002 0.0
C541 C 0.40994 0.75337 0.40342 0.0
C542 C 0.41209 0.77569 0.40655 0.0
C543 C 0.42903 0.78594 0.41641 0.0
C544 C 0.42491 0.74211 0.41057 0.0
H545 H 0.45664 0.78177 0.43064 0.0
C546 C 0.49285 0.76378 0.44323 0.0
O547 O 0.53032 0.74017 0.39621 0.0
O548 O 0.50734 0.75865 0.3846 0.0
N549 N 0.43979 0.71071 0.41367 0.0
C550 C 0.44076 0.68916 0.4103 0.0
C551 C 0.42533 0.67656 0.39983 0.0
C552 C 0.40908 0.68623 0.39296 0.0
C553 C 0.40842 0.70843 0.39661 0.0
C554 C 0.42417 0.72016 0.40723 0.0
H555 H 0.45329 0.68166 0.41538 0.0
O556 O 0.49201 0.71602 0.37965 0.0
O557 O 0.47357 0.73397 0.40261 0.0
O558 O 0.50357 0.71263 0.42183 0.0
O559 O 0.47393 0.70947 0.4369 0.0
C560 C 0.39296 0.71941 0.38973 0.0
C561 C 0.39373 0.74187 0.3931 0.0
H562 H 0.40092 0.78511 0.40127 0.0
H563 H 0.43084 0.80316 0.41879 0.0
H564 H 0.42602 0.65945 0.39695 0.0
H565 H 0.3973 0.67647 0.38473 0.0
H566 H 0.38057 0.71076 0.3815 0.0
H567 H 0.38192 0.75014 0.38741 0.0
Mn568 Mn 0.01308 0.77823 0.63861 0.0
Mn569 Mn 0.99183 0.72899 0.64274 0.0
C570 C 0.01776 0.75006 0.61295 0.0
C571 C 0.01353 0.81195 0.62728 0.0
C572 C 0.0286 0.74724 0.66616 0.0
O573 O 0.99191 0.7845 0.66092 0.0
O574 O 0.97872 0.75096 0.66136 0.0
C575 C 0.95298 0.7348 0.62503 0.0
N576 N 0.96939 0.72365 0.62508 0.0
C577 C 0.95663 0.69766 0.59762 0.0
C578 C 0.93953 0.70879 0.59736 0.0
C579 C 0.93774 0.72749 0.61108 0.0
C580 C 0.97134 0.70576 0.61182 0.0
H581 H 0.95155 0.74916 0.63557 0.0
C582 C 0.9794 0.77095 0.66769 0.0
O583 O 0.02453 0.8084 0.6424 0.0
O584 O 1.00133 0.79636 0.61973 0.0
N585 N 1.0027 0.70584 0.6257 0.0
C586 C 0.02048 0.69749 0.62733 0.0
C587 C 0.02469 0.67882 0.61459 0.0
C588 C 0.01053 0.66879 0.60048 0.0
C589 C 0.9923 0.6776 0.59916 0.0
C590 C 0.98887 0.69614 0.61237 0.0
H591 H 0.03137 0.70503 0.63824 0.0
O592 O 0.03019 0.76662 0.61523 0.0
O593 O 1.00289 0.75037 0.62568 0.0
O594 O 0.02969 0.76524 0.65925 0.0
O595 O 0.01501 0.73268 0.66104 0.0
C596 C 0.97754 0.66892 0.585 0.0
C597 C 0.95975 0.67901 0.58416 0.0
H598 H 0.92774 0.70321 0.58662 0.0
H599 H 0.92462 0.73621 0.61091 0.0
H600 H 0.03882 0.67215 0.61565 0.0
H601 H 0.01385 0.65441 0.59065 0.0
H602 H 0.97984 0.65469 0.57448 0.0
H603 H 0.94863 0.67236 0.57302 0.0
Mn604 Mn 0.51394 0.28179 0.14178 0.0
Mn605 Mn 0.49063 0.23361 0.146 0.0
C606 C 0.51699 0.25348 0.11582 0.0
C607 C 0.51518 0.3159 0.13123 0.0
C608 C 0.52805 0.25022 0.16928 0.0
O609 O 0.49356 0.28867 0.16493 0.0
O610 O 0.47759 0.25616 0.16383 0.0
C611 C 0.45285 0.24053 0.12663 0.0
N612 N 0.46881 0.22883 0.12747 0.0
C613 C 0.45643 0.20312 0.09961 0.0
C614 C 0.43973 0.21476 0.09861 0.0
C615 C 0.43801 0.23362 0.11209 0.0
C616 C 0.47083 0.21093 0.11427 0.0
H617 H 0.45151 0.25506 0.13694 0.0
C618 C 0.4797 0.27597 0.17077 0.0
O619 O 0.52658 0.31139 0.14562 0.0
O620 O 0.50224 0.30096 0.12383 0.0
N621 N 0.50144 0.21002 0.12956 0.0
C622 C 0.5186 0.20082 0.13232 0.0
C623 C 0.52271 0.18193 0.11988 0.0
C624 C 0.50901 0.17246 0.105 0.0
C625 C 0.49128 0.18197 0.10275 0.0
C626 C 0.488 0.20081 0.11555 0.0
H627 H 0.52907 0.20784 0.14392 0.0
O628 O 0.5299 0.26962 0.11757 0.0
O629 O 0.50257 0.2545 0.12904 0.0
O630 O 0.53054 0.26759 0.16134 0.0
O631 O 0.51324 0.23684 0.16525 0.0
C632 C 0.47672 0.17348 0.08829 0.0
C633 C 0.45939 0.18415 0.08659 0.0
H634 H 0.42821 0.20943 0.08747 0.0
H635 H 0.42524 0.24278 0.11132 0.0
H636 H 0.53639 0.17463 0.12179 0.0
H637 H 0.51225 0.15792 0.09539 0.0
H638 H 0.47882 0.15888 0.07823 0.0
H639 H 0.44846 0.17765 0.07518 0.0
C640 C 0.19321 0.71563 0.86828 0.0
C641 C 0.20615 0.71334 0.8514 0.0
C642 C 0.19899 0.72816 0.88658 0.0
C643 C 0.23571 0.77276 0.90408 0.0
H644 H 0.20946 0.76907 0.95663 0.0
C645 C 0.25226 0.83494 0.97499 0.0
C646 C 0.23575 0.84316 0.9854 0.0
C647 C 0.2501 0.81713 0.96012 0.0
C648 C 0.21686 0.77032 0.94202 0.0
H649 H 0.23587 0.72047 0.84096 0.0
H650 H 0.24666 0.74101 0.87344 0.0
H651 H 0.20464 0.73972 0.9289 0.0
H652 H 0.20424 0.83847 0.9897 0.0
H653 H 0.20029 0.80718 0.96346 0.0
H654 H 0.24847 0.80293 0.91752 0.0
C655 C 0.23163 0.73414 0.8723 0.0
C656 C 0.21407 0.75351 0.92604 0.0
C657 C 0.22564 0.72198 0.85379 0.0
C658 C 0.21711 0.83263 0.98151 0.0
C659 C 0.21492 0.81469 0.96664 0.0
C660 C 0.23885 0.78925 0.9202 0.0
C661 C 0.21809 0.73829 0.88862 0.0
C662 C 0.22308 0.75471 0.90663 0.0
C663 C 0.23139 0.80688 0.95565 0.0
C664 C 0.22908 0.7885 0.93916 0.0
H665 H 0.17817 0.70884 0.86678 0.0
H666 H 0.188 0.73091 0.89855 0.0
H667 H 0.24268 0.77467 0.88939 0.0
H668 H 0.26691 0.8423 0.97838 0.0
H669 H 0.26312 0.81131 0.9522 0.0
C670 C 0.99175 0.55133 0.43186 0.0
C671 C 0.99742 0.54998 0.45216 0.0
C672 C 0.00568 0.55055 0.41596 0.0
C673 C 0.05524 0.53217 0.4022 0.0
H674 H 0.04985 0.56503 0.35669 0.0
C675 C 0.10079 0.51867 0.32582 0.0
C676 C 0.10726 0.53708 0.31698 0.0
C677 C 0.08776 0.52001 0.34273 0.0
C678 C 0.05172 0.55583 0.36932 0.0
H679 H 0.02204 0.54763 0.47211 0.0
H680 H 0.04679 0.54679 0.44431 0.0
H681 H 0.02753 0.56962 0.38591 0.0
H682 H 0.10539 0.57143 0.31959 0.0
H683 H 0.0833 0.57367 0.34882 0.0
H684 H 0.07984 0.51878 0.38567 0.0
C685 C 0.03147 0.54801 0.44057 0.0
C686 C 0.03873 0.55831 0.38603 0.0
C687 C 0.01743 0.54878 0.45652 0.0
C688 C 0.10059 0.55678 0.32566 0.0
C689 C 0.08776 0.55811 0.34249 0.0
C690 C 0.06833 0.52974 0.38545 0.0
C691 C 0.0257 0.54853 0.42001 0.0
C692 C 0.04024 0.54648 0.40269 0.0
C693 C 0.08098 0.53978 0.35118 0.0
C694 C 0.06677 0.5416 0.36881 0.0
H695 H 0.97637 0.55234 0.42824 0.0
H696 H 1.00059 0.55078 0.40036 0.0
H697 H 0.05668 0.52258 0.41462 0.0
H698 H 0.10567 0.50325 0.31961 0.0
H699 H 0.08275 0.50553 0.34897 0.0
C700 C 0.83795 0.79156 0.85812 0.0
C701 C 0.82377 0.79045 0.84256 0.0
C702 C 0.83802 0.77549 0.87109 0.0
C703 C 0.81549 0.72105 0.87826 0.0
H704 H 0.81926 0.74218 0.93647 0.0
C705 C 0.77545 0.67848 0.94086 0.0
C706 C 0.78505 0.67698 0.95953 0.0
C707 C 0.78424 0.69027 0.92612 0.0
C708 C 0.8185 0.73593 0.92028 0.0
H709 H 0.79941 0.77138 0.82741 0.0
H710 H 0.79935 0.74336 0.84974 0.0
H711 H 0.82798 0.76615 0.91083 0.0
H712 H 0.81165 0.6867 0.97715 0.0
H713 H 0.82692 0.70788 0.95136 0.0
H714 H 0.80503 0.69112 0.88779 0.0
C715 C 0.81062 0.75635 0.85206 0.0
C716 C 0.82356 0.74967 0.90552 0.0
C717 C 0.81059 0.77238 0.83921 0.0
C718 C 0.80388 0.68747 0.96293 0.0
C719 C 0.81258 0.69966 0.94822 0.0
C720 C 0.81028 0.7074 0.893 0.0
C721 C 0.82389 0.75799 0.86866 0.0
C722 C 0.82159 0.74258 0.88428 0.0
C723 C 0.8028 0.7012 0.92964 0.0
C724 C 0.81121 0.71481 0.91418 0.0
H725 H 0.84809 0.80552 0.86109 0.0
H726 H 0.84866 0.77718 0.88348 0.0
H727 H 0.8142 0.71483 0.8621 0.0
H728 H 0.76098 0.6706 0.93761 0.0
H729 H 0.77618 0.69132 0.91213 0.0
C730 C 0.01998 0.98811 0.44731 0.0
C731 C 0.02113 1.00288 0.46515 0.0
C732 C 0.00826 0.99145 0.43077 0.0
C733 C 0.96523 0.01875 0.41721 0.0
H734 H 0.9855 0.00629 0.36163 0.0
C735 C 0.91793 0.02369 0.34425 0.0
C736 C 0.9189 0.00606 0.32897 0.0
C737 C 0.93132 0.02677 0.36076 0.0
C738 C 0.97956 0.00977 0.37704 0.0
H739 H 0.01095 0.03249 0.48008 0.0
H740 H 0.99009 0.03843 0.45107 0.0
H741 H 0.0069 0.00466 0.39091 0.0
H742 H 0.93518 0.9783 0.31881 0.0
H743 H 0.95807 0.98358 0.34726 0.0
H744 H 0.93766 0.02319 0.40325 0.0
C745 C 0.99831 0.02428 0.44984 0.0
C746 C 0.99184 0.00883 0.39383 0.0
C747 C 0.01024 0.02099 0.46634 0.0
C748 C 0.93387 0.99204 0.33028 0.0
C749 C 0.94719 0.99517 0.34657 0.0
C750 C 0.95286 0.01959 0.40035 0.0
C751 C 0.99728 0.00958 0.4318 0.0
C752 C 0.98471 0.0128 0.41411 0.0
C753 C 0.94604 0.01243 0.36215 0.0
C754 C 0.95975 0.01457 0.38005 0.0
H755 H 0.02828 0.97403 0.44621 0.0
H756 H 0.00757 0.97966 0.41724 0.0
H757 H 0.95928 0.02183 0.43265 0.0
H758 H 0.90657 0.03476 0.34376 0.0
H759 H 0.9301 0.04031 0.37246 0.0
C760 C 0.21267 0.28207 0.69062 0.0
C761 C 0.20095 0.29908 0.68905 0.0
C762 C 0.22015 0.27061 0.6729 0.0
C763 C 0.22614 0.26993 0.61562 0.0
H764 H 0.22669 0.20911 0.61754 0.0
C765 C 0.23192 0.2058 0.54358 0.0
C766 C 0.24544 0.19027 0.54526 0.0
C767 C 0.22778 0.22062 0.56061 0.0
C768 C 0.22676 0.22609 0.6168 0.0
H769 H 0.18802 0.31795 0.66819 0.0
H770 H 0.20044 0.29759 0.63694 0.0
H771 H 0.21758 0.23219 0.64816 0.0
H772 H 0.26541 0.17848 0.56623 0.0
H773 H 0.25793 0.204 0.59576 0.0
H774 H 0.23464 0.26335 0.5838 0.0
C775 C 0.20447 0.29332 0.65177 0.0
C776 C 0.22167 0.23942 0.63444 0.0
C777 C 0.19731 0.30501 0.6696 0.0
C778 C 0.25492 0.19017 0.56427 0.0
C779 C 0.25058 0.20474 0.58128 0.0
C780 C 0.23096 0.25648 0.59784 0.0
C781 C 0.2156 0.2756 0.65314 0.0
C782 C 0.22141 0.26158 0.63421 0.0
C783 C 0.23683 0.21998 0.57972 0.0
C784 C 0.23143 0.23443 0.59831 0.0
H785 H 0.21553 0.27731 0.70558 0.0
H786 H 0.2291 0.25751 0.67472 0.0
H787 H 0.22633 0.28689 0.61482 0.0
H788 H 0.22436 0.20638 0.52919 0.0
H789 H 0.21704 0.23215 0.55902 0.0
C790 C 0.5127 0.51158 0.60819 0.0
C791 C 0.52011 0.53234 0.60578 0.0
C792 C 0.50091 0.50775 0.62519 0.0
C793 C 0.46753 0.53366 0.66341 0.0
H794 H 0.47635 0.48655 0.69392 0.0
C795 C 0.42289 0.52042 0.73695 0.0
C796 C 0.41723 0.49933 0.74016 0.0
C797 C 0.43621 0.52467 0.72127 0.0
C798 C 0.47349 0.49961 0.68542 0.0
H799 H 0.52136 0.56531 0.61929 0.0
H800 H 0.50031 0.55877 0.64888 0.0
H801 H 0.49798 0.49344 0.6651 0.0
H802 H 0.4213 0.46614 0.72934 0.0
H803 H 0.44405 0.47351 0.70169 0.0
H804 H 0.44277 0.53959 0.68326 0.0
C805 C 0.50357 0.54546 0.63759 0.0
C806 C 0.48595 0.50359 0.66895 0.0
C807 C 0.51555 0.54922 0.62069 0.0
C808 C 0.42539 0.48259 0.7274 0.0
C809 C 0.43856 0.48684 0.71158 0.0
C810 C 0.45494 0.52957 0.67974 0.0
C811 C 0.4961 0.52467 0.64001 0.0
C812 C 0.4831 0.52065 0.65775 0.0
C813 C 0.44409 0.50794 0.70822 0.0
C814 C 0.45773 0.51247 0.69099 0.0
H815 H 0.51582 0.49837 0.59672 0.0
H816 H 0.49518 0.4916 0.6265 0.0
H817 H 0.46479 0.54675 0.65489 0.0
H818 H 0.41705 0.53373 0.74659 0.0
H819 H 0.4404 0.54112 0.71947 0.0
C820 C 0.80857 0.27336 0.69827 0.0
C821 C 0.81493 0.25304 0.69169 0.0
C822 C 0.80463 0.28712 0.68387 0.0
C823 C 0.79334 0.28582 0.62808 0.0
H824 H 0.80224 0.34722 0.63944 0.0
C825 C 0.78448 0.33999 0.56515 0.0
C826 C 0.77279 0.35735 0.57021 0.0
C827 C 0.79093 0.32859 0.58046 0.0
C828 C 0.79959 0.3301 0.63613 0.0
H829 H 0.82298 0.23132 0.66532 0.0
H830 H 0.81687 0.25545 0.64008 0.0
H831 H 0.81147 0.32475 0.6651 0.0
H832 H 0.75944 0.37693 0.59548 0.0
H833 H 0.77098 0.35709 0.62235 0.0
H834 H 0.78174 0.29115 0.59903 0.0
C835 C 0.81426 0.2607 0.65623 0.0
C836 C 0.80481 0.31719 0.65084 0.0
C837 C 0.81794 0.24692 0.67061 0.0
C838 C 0.76842 0.36363 0.59108 0.0
C839 C 0.77506 0.35231 0.60647 0.0
C840 C 0.78835 0.29867 0.61334 0.0
C841 C 0.80716 0.28086 0.66258 0.0
C842 C 0.80179 0.29483 0.647 0.0
C843 C 0.786 0.33436 0.60125 0.0
C844 C 0.79144 0.32094 0.61714 0.0
H845 H 0.80604 0.27824 0.71451 0.0
H846 H 0.799 0.30236 0.6894 0.0
H847 H 0.79026 0.26876 0.62469 0.0
H848 H 0.78818 0.33473 0.54925 0.0
H849 H 0.79958 0.31503 0.57598 0.0
C850 C 0.49527 0.97926 0.60808 0.0
C851 C 0.50072 0.97854 0.58725 0.0
C852 C 0.50963 0.98093 0.62345 0.0
C853 C 0.54325 0.97655 0.6529 0.0
H854 H 0.58572 0.01972 0.648 0.0
C855 C 0.60562 0.99684 0.71389 0.0
C856 C 0.61043 0.01868 0.71992 0.0
C857 C 0.59316 0.99009 0.69704 0.0
C858 C 0.57396 0.00762 0.64962 0.0
H859 H 0.52522 0.97817 0.56592 0.0
H860 H 0.55059 0.98105 0.5928 0.0
H861 H 0.56238 0.01012 0.61976 0.0
H862 H 0.60594 0.05047 0.71264 0.0
H863 H 0.58439 0.0387 0.68336 0.0
H864 H 0.5546 0.97444 0.68299 0.0
C865 C 0.5352 0.98043 0.5973 0.0
C866 C 0.5607 1.00193 0.63332 0.0
C867 C 0.52076 0.97856 0.58191 0.0
C868 C 0.60258 0.03354 0.70854 0.0
C869 C 0.59031 0.02678 0.69161 0.0
C870 C 0.55663 0.98211 0.66915 0.0
C871 C 0.52981 0.98209 0.6183 0.0
C872 C 0.54499 0.98655 0.63486 0.0
C873 C 0.58539 0.00499 0.68566 0.0
C874 C 0.57196 0.99797 0.66784 0.0
H875 H 0.47986 0.97932 0.61246 0.0
H876 H 0.50493 0.98234 0.63942 0.0
H877 H 0.53141 0.96454 0.65455 0.0
H878 H 0.61136 0.98493 0.72226 0.0
H879 H 0.58978 0.97318 0.69279 0.0
C880 C 0.84855 0.19941 0.74931 0.0
C881 C 0.83844 0.21805 0.75 0.0
C882 C 0.86128 0.19661 0.76534 0.0
C883 C 0.87627 0.21954 0.81918 0.0
H884 H 0.92586 0.19515 0.80361 0.0
C885 C 0.94615 0.23701 0.86886 0.0
C886 C 0.95739 0.21996 0.87199 0.0
C887 C 0.93037 0.23408 0.85509 0.0
C888 C 0.91197 0.20173 0.80826 0.0
H889 H 0.83276 0.24777 0.76836 0.0
H890 H 0.85536 0.24349 0.79589 0.0
H891 H 0.9002 0.19473 0.77777 0.0
H892 H 0.9619 0.18679 0.86213 0.0
H893 H 0.93427 0.1816 0.8376 0.0
H894 H 0.88855 0.22758 0.84936 0.0
C895 C 0.85342 0.23074 0.78328 0.0
C896 C 0.89717 0.20144 0.79345 0.0
C897 C 0.8406 0.23339 0.76738 0.0
C898 C 0.95314 0.20006 0.86031 0.0
C899 C 0.93741 0.19714 0.84629 0.0
C900 C 0.89116 0.22012 0.83385 0.0
C901 C 0.86424 0.21247 0.78238 0.0
C902 C 0.87921 0.21071 0.7986 0.0
C903 C 0.92577 0.21412 0.84364 0.0
C904 C 0.9093 0.21152 0.82851 0.0
H905 H 0.84714 0.18738 0.73602 0.0
H906 H 0.86901 0.18215 0.7642 0.0
H907 H 0.86252 0.22635 0.82397 0.0
H908 H 0.94967 0.25275 0.87699 0.0
H909 H 0.92202 0.24761 0.85307 0.0
C910 C 0.50058 0.94285 0.53095 0.0
C911 C 0.49021 0.94655 0.54959 0.0
C912 C 0.50498 0.92219 0.523 0.0
C913 C 0.48384 0.86794 0.52235 0.0
H914 H 0.53192 0.85193 0.4938 0.0
C915 C 0.48771 0.78408 0.47809 0.0
C916 C 0.49751 0.78241 0.45895 0.0
C917 C 0.48982 0.80285 0.49183 0.0
C918 C 0.5183 0.85614 0.50153 0.0
H919 H 0.47693 0.93205 0.57502 0.0
H920 H 0.48448 0.89562 0.56113 0.0
H921 H 0.53067 0.88734 0.51325 0.0
H922 H 0.51773 0.79897 0.43955 0.0
H923 H 0.52089 0.83197 0.4631 0.0
H924 H 0.47098 0.83748 0.50989 0.0
C925 C 0.48931 0.9087 0.55268 0.0
C926 C 0.51766 0.87642 0.51279 0.0
C927 C 0.48516 0.92946 0.56074 0.0
C928 C 0.51011 0.79967 0.45424 0.0
C929 C 0.51195 0.81863 0.46784 0.0
C930 C 0.48437 0.84783 0.51089 0.0
C931 C 0.49879 0.90477 0.53343 0.0
C932 C 0.50035 0.8826 0.52318 0.0
C933 C 0.50146 0.82069 0.48666 0.0
C934 C 0.50154 0.84165 0.50011 0.0
H935 H 0.50434 0.95588 0.52207 0.0
H936 H 0.51212 0.9197 0.50808 0.0
H937 H 0.47015 0.87234 0.52985 0.0
H938 H 0.47804 0.77099 0.48228 0.0
H939 H 0.48195 0.80347 0.50637 0.0
C940 C 0.13728 0.31995 0.75038 0.0
C941 C 0.15364 0.30763 0.7472 0.0
C942 C 0.12291 0.31548 0.76506 0.0
C943 C 0.10453 0.2725 0.79586 0.0
H944 H 0.07946 0.3182 0.82913 0.0
C945 C 0.05954 0.25801 0.86809 0.0
C946 C 0.04067 0.26587 0.86982 0.0
C947 C 0.07292 0.26432 0.8533 0.0
C948 C 0.08623 0.30529 0.81982 0.0
H949 H 0.1683 0.28147 0.75692 0.0
H950 H 0.14359 0.2738 0.78292 0.0
H951 H 0.10366 0.32663 0.80284 0.0
H952 H 0.02137 0.28723 0.85791 0.0
H953 H 0.04504 0.29857 0.83212 0.0
H954 H 0.08748 0.25123 0.81318 0.0
C955 C 0.14138 0.28654 0.77378 0.0
C956 C 0.10006 0.31008 0.8047 0.0
C957 C 0.15559 0.29092 0.75899 0.0
C958 C 0.03579 0.2809 0.85695 0.0
C959 C 0.04933 0.2874 0.84222 0.0
C960 C 0.09092 0.26776 0.81107 0.0
C961 C 0.12476 0.29868 0.77696 0.0
C962 C 0.10952 0.29373 0.79263 0.0
C963 C 0.06787 0.27879 0.83997 0.0
C964 C 0.08175 0.28409 0.82334 0.0
H965 H 0.13559 0.33291 0.74135 0.0
H966 H 0.11025 0.32501 0.76686 0.0
H967 H 0.11108 0.25943 0.78656 0.0
H968 H 0.06384 0.24647 0.87778 0.0
H969 H 0.08721 0.25768 0.85214 0.0
C970 C 0.52734 0.55335 0.52587 0.0
C971 C 0.54251 0.5584 0.54037 0.0
C972 C 0.52375 0.5673 0.5116 0.0
C973 C 0.54228 0.61177 0.48494 0.0
H974 H 0.49013 0.63232 0.49437 0.0
C975 C 0.51817 0.68487 0.44856 0.0
C976 C 0.4981 0.68615 0.44428 0.0
C977 C 0.52438 0.66853 0.45901 0.0
C978 C 0.50458 0.62655 0.49106 0.0
H979 H 0.56678 0.58089 0.55047 0.0
H980 H 0.56108 0.60509 0.52477 0.0
H981 H 0.50039 0.6041 0.51291 0.0
H982 H 0.46889 0.67081 0.4471 0.0
H983 H 0.47968 0.64175 0.46413 0.0
H984 H 0.54637 0.63361 0.46258 0.0
C985 C 0.55183 0.59046 0.52463 0.0
C986 C 0.51049 0.61041 0.50187 0.0
C987 C 0.55519 0.57663 0.5392 0.0
C988 C 0.48444 0.67044 0.45033 0.0
C989 C 0.49068 0.65381 0.46031 0.0
C990 C 0.53621 0.62763 0.4737 0.0
C991 C 0.53555 0.58635 0.51131 0.0
C992 C 0.5294 0.60292 0.49901 0.0
C993 C 0.51074 0.65269 0.46509 0.0
C994 C 0.51726 0.63538 0.47666 0.0
H995 H 0.51732 0.53945 0.52674 0.0
H996 H 0.51118 0.56372 0.50143 0.0
H997 H 0.55694 0.60623 0.48245 0.0
H998 H 0.52907 0.69683 0.44426 0.0
H999 H 0.53987 0.66865 0.46265 0.0
C1000 C 0.8498 0.79275 0.79848 0.0
C1001 C 0.85007 0.8121 0.8115 0.0
C1002 C 0.86576 0.78809 0.78527 0.0
C1003 C 0.90589 0.81614 0.75844 0.0
H1004 H 0.92284 0.75928 0.74275 0.0
C1005 C 0.96801 0.79707 0.69736 0.0
C1006 C 0.96497 0.77788 0.68411 0.0
C1007 C 0.95515 0.80193 0.71407 0.0
C1008 C 0.91817 0.77526 0.74679 0.0
H1009 H 0.86755 0.84105 0.82209 0.0
H1010 H 0.89563 0.83289 0.79932 0.0
H1011 H 0.89905 0.76546 0.77068 0.0
H1012 H 0.94531 0.74939 0.67748 0.0
H1013 H 0.92303 0.758 0.70599 0.0
H1014 H 0.92475 0.82585 0.73427 0.0
C1015 C 0.88301 0.82145 0.79893 0.0
C1016 C 0.90453 0.77879 0.76288 0.0
C1017 C 0.86708 0.82604 0.81213 0.0
C1018 C 0.94838 0.76417 0.68751 0.0
C1019 C 0.9356 0.76903 0.70403 0.0
C1020 C 0.91952 0.8126 0.74229 0.0
C1021 C 0.8823 0.80274 0.78482 0.0
C1022 C 0.898 0.79923 0.76876 0.0
C1023 C 0.93898 0.78773 0.71783 0.0
C1024 C 0.9256 0.79203 0.73601 0.0
H1025 H 0.8367 0.78196 0.79752 0.0
H1026 H 0.86461 0.77359 0.77456 0.0
H1027 H 0.90101 0.83206 0.76233 0.0
H1028 H 0.98064 0.80796 0.69525 0.0
H1029 H 0.95821 0.8165 0.72439 0.0
C1030 C 0.04905 0.94455 0.51024 0.0
C1031 C 0.05123 0.96617 0.51815 0.0
C1032 C 0.04777 0.92878 0.52343 0.0
C1033 C 0.03545 0.92184 0.57815 0.0
H1034 H 0.04789 0.8638 0.55949 0.0
C1035 C 0.02772 0.8497 0.62699 0.0
C1036 C 0.01675 0.83167 0.61722 0.0
C1037 C 0.0328 0.86722 0.61635 0.0
C1038 C 0.04433 0.87995 0.56489 0.0
H1039 H 0.05531 0.98832 0.54588 0.0
H1040 H 0.05421 0.96076 0.56915 0.0
H1041 H 0.05789 0.89201 0.5387 0.0
H1042 H 1.00226 0.81813 0.58874 0.0
H1043 H 0.01156 0.84843 0.57012 0.0
H1044 H 0.02236 0.90948 0.60472 0.0
C1045 C 0.05268 0.95588 0.55275 0.0
C1046 C 0.04995 0.89619 0.55292 0.0
C1047 C 0.0537 0.97171 0.53945 0.0
C1048 C 0.01059 0.83179 0.59678 0.0
C1049 C 0.01604 0.84906 0.58605 0.0
C1050 C 0.0302 0.90561 0.59035 0.0
C1051 C 0.04902 0.93418 0.54498 0.0
C1052 C 0.04518 0.91734 0.55906 0.0
C1053 C 0.02741 0.86683 0.59562 0.0
C1054 C 0.03419 0.88443 0.5836 0.0
H1055 H 0.04723 0.93993 0.49382 0.0
H1056 H 0.04474 0.91244 0.51664 0.0
H1057 H 0.0312 0.93775 0.58341 0.0
H1058 H 0.03274 0.85007 0.6427 0.0
H1059 H 0.04158 0.88073 0.62408 0.0
C1060 C 0.14565 0.70409 0.79415 0.0
C1061 C 0.16552 0.70458 0.78806 0.0
C1062 C 0.13106 0.70824 0.78064 0.0
C1063 C 0.12405 0.73332 0.73306 0.0
H1064 H 0.07217 0.70405 0.73448 0.0
C1065 C 0.05778 0.75872 0.68928 0.0
C1066 C 0.0442 0.74254 0.68032 0.0
C1067 C 0.07265 0.75401 0.70229 0.0
C1068 C 0.08661 0.71224 0.73367 0.0
H1069 H 0.18579 0.70945 0.76309 0.0
H1070 H 0.16023 0.71589 0.73899 0.0
H1071 H 0.09808 0.69487 0.75628 0.0
H1072 H 0.03586 0.70864 0.67793 0.0
H1073 H 0.06196 0.70042 0.69997 0.0
H1074 H 0.11272 0.75014 0.70986 0.0
C1075 C 0.1559 0.71279 0.75439 0.0
C1076 C 0.10145 0.70718 0.74644 0.0
C1077 C 0.17052 0.70882 0.76803 0.0
C1078 C 0.04592 0.72158 0.68466 0.0
C1079 C 0.06088 0.71685 0.69745 0.0
C1080 C 0.10923 0.73826 0.72013 0.0
C1081 C 0.13597 0.71276 0.76059 0.0
C1082 C 0.12036 0.71772 0.74642 0.0
C1083 C 0.07443 0.73299 0.70651 0.0
C1084 C 0.09028 0.72782 0.72029 0.0
H1085 H 0.14149 0.70075 0.80951 0.0
H1086 H 0.11597 0.70836 0.78613 0.0
H1087 H 0.13832 0.74199 0.73278 0.0
H1088 H 0.05686 0.77506 0.68635 0.0
H1089 H 0.08261 0.76693 0.70922 0.0
C1090 C 0.99447 0.59606 0.48119 0.0
C1091 C 0.99294 0.57886 0.49279 0.0
C1092 C 1.00244 0.61608 0.49 0.0
C1093 C 0.02812 0.6444 0.5374 0.0
H1094 H 0.99814 0.69124 0.52576 0.0
C1095 C 0.03666 0.72459 0.58936 0.0
C1096 C 0.01895 0.73398 0.59472 0.0
C1097 C 0.03723 0.70821 0.5729 0.0
C1098 C 0.00662 0.67837 0.52936 0.0
H1099 H 0.99968 0.56843 0.52193 0.0
H1100 H 0.01299 0.6032 0.53764 0.0
H1101 H 0.99284 0.65682 0.50518 0.0
H1102 H 0.98878 0.73605 0.58558 0.0
H1103 H 0.98931 0.70706 0.55754 0.0
H1104 H 0.04075 0.66535 0.56258 0.0
C1105 C 0.00846 0.60152 0.52167 0.0
C1106 C 1.00383 0.65859 0.51722 0.0
C1107 C 1.00071 0.58156 0.51277 0.0
C1108 C 1.00238 0.72834 0.5822 0.0
C1109 C 1.00287 0.71194 0.56582 0.0
C1110 C 0.03071 0.66406 0.54971 0.0
C1111 C 0.00888 0.61927 0.51066 0.0
C1112 C 0.01414 0.64113 0.52143 0.0
C1113 C 0.02011 0.70105 0.56138 0.0
C1114 C 0.01957 0.6812 0.54627 0.0
H1115 H 0.98846 0.59432 0.46576 0.0
H1116 H 1.00289 0.6292 0.48085 0.0
H1117 H 0.0367 0.63153 0.54087 0.0
H1118 H 0.04983 0.72928 0.59842 0.0
H1119 H 0.05099 0.70084 0.56957 0.0
C1120 C 0.72168 0.84725 0.20669 0.0
C1121 C 0.71863 0.83369 0.22198 0.0
C1122 C 0.73814 0.86195 0.20761 0.0
C1123 C 0.78606 0.87692 0.23538 0.0
H1124 H 0.77615 0.93413 0.22499 0.0
C1125 C 0.82979 0.95196 0.27385 0.0
C1126 C 0.83855 0.96569 0.26062 0.0
C1127 C 0.81628 0.93529 0.26626 0.0
C1128 C 0.77917 0.91816 0.22772 0.0
H1129 H 0.73073 0.82363 0.24925 0.0
H1130 H 0.75901 0.84943 0.25139 0.0
H1131 H 0.7511 0.90496 0.21602 0.0
H1132 H 0.83875 0.97421 0.22957 0.0
H1133 H 0.81461 0.94517 0.21626 0.0
H1134 H 0.81356 0.89049 0.24818 0.0
C1135 C 0.74908 0.84882 0.23848 0.0
C1136 C 0.76489 0.90139 0.22247 0.0
C1137 C 0.73279 0.83412 0.23743 0.0
C1138 C 0.83254 0.96343 0.23993 0.0
C1139 C 0.81876 0.94691 0.23236 0.0
C1140 C 0.80009 0.89372 0.24094 0.0
C1141 C 0.75179 0.86332 0.22387 0.0
C1142 C 0.76796 0.8806 0.22669 0.0
C1143 C 0.81078 0.9325 0.24541 0.0
C1144 C 0.79665 0.91455 0.23754 0.0
H1145 H 0.71088 0.84711 0.19464 0.0
H1146 H 0.7399 0.87258 0.19588 0.0
H1147 H 0.78925 0.8611 0.23837 0.0
H1148 H 0.83349 0.95404 0.29008 0.0
H1149 H 0.81003 0.92464 0.27673 0.0
C1150 C 0.72006 0.16052 0.33691 0.0
C1151 C 0.72123 0.17518 0.32249 0.0
C1152 C 0.73559 0.14752 0.3389 0.0
C1153 C 0.78843 0.14103 0.32679 0.0
H1154 H 0.77351 0.08061 0.32369 0.0
C1155 C 0.84333 0.07704 0.30229 0.0
C1156 C 0.84103 0.05726 0.30994 0.0
C1157 C 0.82976 0.09249 0.30736 0.0
C1158 C 0.77803 0.09743 0.32501 0.0
H1159 H 0.73969 0.18871 0.29966 0.0
H1160 H 0.76703 0.16619 0.30317 0.0
H1161 H 0.74807 0.10601 0.32657 0.0
H1162 H 0.82316 0.0386 0.32974 0.0
H1163 H 0.79977 0.06579 0.33909 0.0
H1164 H 0.81838 0.13252 0.32513 0.0
C1165 C 0.75415 0.16461 0.31293 0.0
C1166 C 0.76338 0.11202 0.32662 0.0
C1167 C 0.73853 0.17741 0.31081 0.0
C1168 C 0.82531 0.05364 0.32352 0.0
C1169 C 0.81179 0.06919 0.32872 0.0
C1170 C 0.8031 0.12646 0.32539 0.0
C1171 C 0.75269 0.14916 0.32667 0.0
C1172 C 0.76839 0.13396 0.32713 0.0
C1173 C 0.81358 0.08867 0.32036 0.0
C1174 C 0.79811 0.1044 0.32406 0.0
H1175 H 0.70678 0.15856 0.34599 0.0
H1176 H 0.7341 0.13592 0.34975 0.0
H1177 H 0.79277 0.15786 0.32743 0.0
H1178 H 0.85521 0.08034 0.29172 0.0
H1179 H 0.83157 0.10709 0.30034 0.0
C1180 C 0.43894 0.02363 0.01134 0.0
C1181 C 0.4442 0.02548 0.99078 0.0
C1182 C 0.42097 0.01317 0.01608 0.0
C1183 C 0.38588 0.98247 0.02271 0.0
H1184 H 0.34205 0.98409 0.9858 0.0
C1185 C 0.31351 0.92929 0.02741 0.0
C1186 C 0.29621 0.93571 0.0193 0.0
C1187 C 0.3313 0.94167 0.02642 0.0
C1188 C 0.35392 0.98376 0.99661 0.0
H1189 H 0.43507 0.01758 0.95905 0.0
H1190 H 0.40445 0.99797 0.96701 0.0
H1191 H 0.37316 1.00268 0.97916 0.0
H1192 H 0.28339 0.96063 0.00527 0.0
H1193 H 0.31391 0.98309 0.005 0.0
H1194 H 0.3662 0.96451 0.04081 0.0
C1195 C 0.41369 0.00526 0.97967 0.0
C1196 C 0.37207 0.99409 0.99248 0.0
C1197 C 0.43143 0.01615 0.97501 0.0
C1198 C 0.29661 0.95537 0.01157 0.0
C1199 C 0.31422 0.96804 0.01113 0.0
C1200 C 0.36755 0.97249 0.02711 0.0
C1201 C 0.40798 0.00393 1.00031 0.0
C1202 C 0.38844 0.99336 0.00526 0.0
C1203 C 0.33203 0.96096 0.0177 0.0
C1204 C 0.35132 0.97279 0.014 0.0
H1205 H 0.44863 0.0306 0.02375 0.0
H1206 H 0.41713 0.0128 0.03215 0.0
H1207 H 0.39809 0.98129 0.03287 0.0
H1208 H 0.31359 0.91399 0.03315 0.0
H1209 H 0.34459 0.93544 0.03146 0.0
C1210 C 0.27681 0.34977 0.31044 0.0
C1211 C 0.29022 0.35456 0.32673 0.0
C1212 C 0.26224 0.36363 0.3076 0.0
C1213 C 0.23683 0.41028 0.33375 0.0
H1214 H 0.22294 0.41671 0.27764 0.0
C1215 C 0.19215 0.47881 0.31061 0.0
C1216 C 0.17778 0.47322 0.29523 0.0
C1217 C 0.20459 0.46366 0.31597 0.0
C1218 C 0.22649 0.41493 0.29341 0.0
H1219 H 0.29909 0.37728 0.3529 0.0
H1220 H 0.27402 0.40207 0.34773 0.0
H1221 H 0.2474 0.39204 0.28378 0.0
H1222 H 0.16478 0.44715 0.27394 0.0
H1223 H 0.18656 0.42084 0.28317 0.0
H1224 H 0.21624 0.43385 0.34321 0.0
C1225 C 0.27433 0.3874 0.33735 0.0
C1226 C 0.24051 0.40069 0.29698 0.0
C1227 C 0.28877 0.37334 0.3403 0.0
C1228 C 0.17568 0.452 0.28585 0.0
C1229 C 0.18825 0.43695 0.29103 0.0
C1230 C 0.22295 0.42474 0.33015 0.0
C1231 C 0.2609 0.38281 0.32086 0.0
C1232 C 0.24586 0.39807 0.3172 0.0
C1233 C 0.20309 0.44269 0.30587 0.0
C1234 C 0.21758 0.42716 0.30993 0.0
H1235 H 0.27764 0.33522 0.29995 0.0
H1236 H 0.25196 0.35923 0.29503 0.0
H1237 H 0.24029 0.40852 0.34955 0.0
H1238 H 0.19417 0.49502 0.31812 0.0
H1239 H 0.21593 0.46859 0.32741 0.0
C1240 C 0.08521 0.01822 0.52445 0.0
C1241 C 0.08017 1.00271 0.50779 0.0
C1242 C 0.10469 0.02694 0.52696 0.0
C1243 C 0.14942 0.03855 0.53145 0.0
H1244 H 0.17027 0.05655 0.48052 0.0
C1245 C 0.2156 0.10131 0.53102 0.0
C1246 C 0.22741 0.10148 0.51331 0.0
C1247 C 0.19882 0.08718 0.53114 0.0
C1248 C 0.165 0.05147 0.49491 0.0
H1249 H 0.0913 0.98355 0.48113 0.0
H1250 H 0.12546 0.99851 0.48548 0.0
H1251 H 0.13951 0.03484 0.48015 0.0
H1252 H 0.23235 0.08567 0.48262 0.0
H1253 H 0.20373 0.0603 0.48296 0.0
H1254 H 0.17495 0.05499 0.54625 0.0
C1255 C 0.11446 0.00398 0.49668 0.0
C1256 C 0.14723 0.03891 0.49465 0.0
C1257 C 0.09504 0.99517 0.49433 0.0
C1258 C 0.22301 0.08631 0.4962 0.0
C1259 C 0.20651 0.07182 0.49644 0.0
C1260 C 0.16736 0.05094 0.53169 0.0
C1261 C 0.11939 0.02051 0.5126 0.0
C1262 C 0.1391 0.03247 0.51293 0.0
C1263 C 0.19386 0.07229 0.51376 0.0
C1264 C 0.17532 0.0579 0.51345 0.0
H1265 H 0.07381 0.02461 0.53464 0.0
H1266 H 0.10792 0.03975 0.53928 0.0
H1267 H 0.14364 0.03369 0.54578 0.0
H1268 H 0.21897 0.11264 0.54455 0.0
H1269 H 0.1895 0.08842 0.54471 0.0
C1270 C 0.80375 0.17108 0.7132 0.0
C1271 C 0.80533 0.18911 0.72805 0.0
C1272 C 0.79208 0.15295 0.71694 0.0
C1273 C 0.76707 0.12437 0.75648 0.0
H1274 H 0.72782 0.10693 0.71404 0.0
C1275 C 0.69905 0.06769 0.76939 0.0
C1276 C 0.69086 0.05429 0.75249 0.0
C1277 C 0.71467 0.08257 0.76664 0.0
C1278 C 0.73889 0.11121 0.72587 0.0
H1279 H 0.79725 0.20194 0.75895 0.0
H1280 H 0.77715 0.16985 0.76589 0.0
H1281 H 0.75287 0.13526 0.70933 0.0
H1282 H 0.69369 0.04428 0.71982 0.0
H1283 H 0.72131 0.07009 0.71484 0.0
H1284 H 0.75334 0.10016 0.77294 0.0
C1285 C 0.78479 0.16984 0.75125 0.0
C1286 C 0.75321 0.12756 0.7232 0.0
C1287 C 0.79633 0.18813 0.74737 0.0
C1288 C 0.69944 0.05492 0.73297 0.0
C1289 C 0.71516 0.0698 0.73016 0.0
C1290 C 0.75291 0.10777 0.75904 0.0
C1291 C 0.78198 0.15238 0.73577 0.0
C1292 C 0.76738 0.1344 0.7385 0.0
C1293 C 0.72276 0.08412 0.74692 0.0
C1294 C 0.73852 0.10105 0.74382 0.0
H1295 H 0.81078 0.17148 0.69829 0.0
H1296 H 0.79045 0.1396 0.70487 0.0
H1297 H 0.77789 0.12925 0.76847 0.0
H1298 H 0.69308 0.06694 0.78475 0.0
H1299 H 0.71992 0.09332 0.77992 0.0
C1300 C 0.43358 0.01491 0.56425 0.0
C1301 C 0.44715 0.0067 0.54944 0.0
C1302 C 0.41904 0.02779 0.5589 0.0
C1303 C 0.38732 0.03766 0.51854 0.0
H1304 H 0.38681 0.09581 0.54502 0.0
C1305 C 0.32814 0.09341 0.49801 0.0
C1306 C 0.3217 0.10842 0.51386 0.0
C1307 C 0.34442 0.08167 0.50098 0.0
C1308 C 0.38642 0.07952 0.53769 0.0
H1309 H 0.4561 0.00561 0.51745 0.0
H1310 H 0.42992 0.02729 0.50783 0.0
H1311 H 0.41264 0.07356 0.55338 0.0
H1312 H 0.32709 0.12268 0.54535 0.0
H1313 H 0.3545 0.10174 0.55092 0.0
H1314 H 0.36059 0.04295 0.50367 0.0
C1315 C 0.4308 0.0239 0.52362 0.0
C1316 C 0.40138 0.06686 0.5424 0.0
C1317 C 0.44567 0.01145 0.52909 0.0
C1318 C 0.33183 0.11144 0.5327 0.0
C1319 C 0.34776 0.09945 0.53583 0.0
C1320 C 0.37204 0.05014 0.51418 0.0
C1321 C 0.41745 0.03229 0.53852 0.0
C1322 C 0.40193 0.04582 0.53294 0.0
C1323 C 0.35438 0.08436 0.52005 0.0
C1324 C 0.37124 0.07126 0.5238 0.0
H1325 H 0.43413 0.01119 0.57993 0.0
H1326 H 0.40881 0.03399 0.57062 0.0
H1327 H 0.38742 0.02139 0.51113 0.0
H1328 H 0.32065 0.09076 0.48329 0.0
H1329 H 0.34917 0.07054 0.48827 0.0
C1330 C 0.58924 0.53562 0.5527 0.0
C1331 C 0.57039 0.52521 0.55039 0.0
C1332 C 0.60592 0.525 0.5457 0.0
C1333 C 0.63738 0.493 0.54582 0.0
H1334 H 0.63831 0.4518 0.4968 0.0
C1335 C 0.69418 0.42819 0.53423 0.0
C1336 C 0.70199 0.42327 0.5143 0.0
C1337 C 0.67873 0.44179 0.53767 0.0
C1338 C 0.63842 0.46336 0.51047 0.0
H1339 H 0.5539 0.49609 0.53849 0.0
H1340 H 0.58284 0.47747 0.52589 0.0
H1341 H 0.61077 0.47451 0.50265 0.0
H1342 H 0.69955 0.42908 0.48239 0.0
H1343 H 0.67294 0.45276 0.48846 0.0
H1344 H 0.66506 0.48189 0.55362 0.0
C1345 C 0.58493 0.49388 0.53284 0.0
C1346 C 0.62251 0.47629 0.51391 0.0
C1347 C 0.56832 0.50451 0.53991 0.0
C1348 C 0.69396 0.43239 0.49797 0.0
C1349 C 0.67855 0.44592 0.50141 0.0
C1350 C 0.65327 0.48004 0.54241 0.0
C1351 C 0.60401 0.50371 0.53629 0.0
C1352 C 0.6217 0.49117 0.53171 0.0
C1353 C 0.67066 0.45077 0.52128 0.0
C1354 C 0.65394 0.46493 0.52476 0.0
H1355 H 0.5911 0.55143 0.56117 0.0
H1356 H 0.62036 0.53316 0.54837 0.0
H1357 H 0.63715 0.50405 0.55985 0.0
H1358 H 0.69992 0.42147 0.54718 0.0
H1359 H 0.67287 0.44496 0.55315 0.0
C1360 C 0.68672 0.20606 0.36931 0.0
C1361 C 0.70032 0.2065 0.35302 0.0
C1362 C 0.69071 0.21817 0.38833 0.0
C1363 C 0.72859 0.24754 0.422 0.0
H1364 H 0.6892 0.2886 0.43528 0.0
C1365 C 0.74417 0.32422 0.47813 0.0
C1366 C 0.72851 0.33387 0.48887 0.0
C1367 C 0.74066 0.30597 0.46404 0.0
C1368 C 0.70015 0.27699 0.43222 0.0
H1369 H 0.72937 0.21833 0.34419 0.0
H1370 H 0.73679 0.23901 0.37784 0.0
H1371 H 0.68378 0.26055 0.40657 0.0
H1372 H 0.69725 0.33091 0.49527 0.0
H1373 H 0.69093 0.29861 0.47085 0.0
H1374 H 0.7449 0.26369 0.44774 0.0
C1375 C 0.72292 0.22953 0.37578 0.0
C1376 C 0.69707 0.26096 0.41565 0.0
C1377 C 0.71876 0.21764 0.35661 0.0
C1378 C 0.70944 0.32403 0.48662 0.0
C1379 C 0.70588 0.30563 0.47255 0.0
C1380 C 0.73153 0.26334 0.43886 0.0
C1381 C 0.70859 0.23058 0.39151 0.0
C1382 C 0.71136 0.24628 0.41021 0.0
C1383 C 0.7214 0.29666 0.46067 0.0
C1384 C 0.71749 0.27852 0.44401 0.0
H1385 H 0.67252 0.19732 0.36688 0.0
H1386 H 0.67953 0.21852 0.4003 0.0
H1387 H 0.73979 0.23633 0.41815 0.0
H1388 H 0.75914 0.33116 0.48023 0.0
H1389 H 0.75302 0.29978 0.45519 0.0
C1390 C 0.52045 0.03704 0.95477 0.0
C1391 C 0.50482 0.05042 0.95534 0.0
C1392 C 0.53359 0.0356 0.93808 0.0
C1393 C 0.53625 0.04517 0.8832 0.0
H1394 H 0.59144 0.03491 0.88831 0.0
C1395 C 0.59195 0.04891 0.81621 0.0
C1396 C 0.60595 0.03344 0.81327 0.0
C1397 C 0.57946 0.05014 0.83338 0.0
C1398 C 0.57599 0.03751 0.88662 0.0
H1399 H 0.49122 0.07374 0.93985 0.0
H1400 H 0.51457 0.07201 0.91096 0.0
H1401 H 0.57098 0.04044 0.91923 0.0
H1402 H 0.61748 0.00688 0.82606 0.0
H1403 H 0.5956 0.0091 0.85621 0.0
H1404 H 0.54137 0.04257 0.85062 0.0
C1405 C 0.51642 0.06205 0.923 0.0
C1406 C 0.56425 0.04072 0.90436 0.0
C1407 C 0.50322 0.06333 0.93965 0.0
C1408 C 0.60682 0.01891 0.82777 0.0
C1409 C 0.59442 0.0203 0.84514 0.0
C1410 C 0.54801 0.04213 0.86552 0.0
C1411 C 0.53146 0.04771 0.92169 0.0
C1412 C 0.54421 0.04466 0.9029 0.0
C1413 C 0.58071 0.03606 0.84821 0.0
C1414 C 0.56804 0.03832 0.86701 0.0
H1415 H 0.52201 0.02713 0.96691 0.0
H1416 H 0.54489 0.02433 0.93765 0.0
H1417 H 0.5208 0.04762 0.88136 0.0
H1418 H 0.59082 0.06036 0.80537 0.0
H1419 H 0.5692 0.06257 0.83535 0.0
C1420 C 0.33566 0.30383 0.37214 0.0
C1421 C 0.32786 0.29923 0.35221 0.0
C1422 C 0.33548 0.28801 0.38533 0.0
C1423 C 0.32331 0.22924 0.38754 0.0
H1424 H 0.31091 0.24876 0.44454 0.0
C1425 C 0.28012 0.17796 0.44233 0.0
C1426 C 0.28714 0.17815 0.46252 0.0
C1427 C 0.28914 0.19131 0.42899 0.0
C1428 C 0.31466 0.24307 0.42875 0.0
H1429 H 0.31417 0.27466 0.33014 0.0
H1430 H 0.3132 0.24707 0.35307 0.0
H1431 H 0.31945 0.27468 0.42085 0.0
H1432 H 0.30935 0.19245 0.48442 0.0
H1433 H 0.3248 0.2165 0.46116 0.0
H1434 H 0.31712 0.19757 0.39541 0.0
C1435 C 0.32014 0.26258 0.35858 0.0
C1436 C 0.31968 0.25795 0.41508 0.0
C1437 C 0.32068 0.27835 0.34532 0.0
C1438 C 0.30368 0.19183 0.46893 0.0
C1439 C 0.31245 0.20564 0.45567 0.0
C1440 C 0.31792 0.2144 0.40114 0.0
C1441 C 0.327 0.2673 0.37905 0.0
C1442 C 0.32377 0.25131 0.39412 0.0
C1443 C 0.30517 0.20559 0.43559 0.0
C1444 C 0.31325 0.22115 0.42182 0.0
H1445 H 0.34103 0.31996 0.37778 0.0
H1446 H 0.34139 0.29228 0.4007 0.0
H1447 H 0.32679 0.22333 0.37175 0.0
H1448 H 0.26741 0.16764 0.43687 0.0
H1449 H 0.28307 0.19104 0.4137 0.0
C1450 C 0.52905 0.49461 0.94252 0.0
C1451 C 0.5231 0.49921 0.96313 0.0
C1452 C 0.51629 0.49681 0.92643 0.0
C1453 C 0.46948 0.52009 0.91408 0.0
H1454 H 0.46951 0.47609 0.86726 0.0
C1455 C 0.42061 0.51934 0.8407 0.0
C1456 C 0.41251 0.49922 0.83206 0.0
C1457 C 0.43427 0.5211 0.85691 0.0
C1458 C 0.46918 0.48847 0.88026 0.0
H1459 H 0.49936 0.51009 0.98315 0.0
H1460 H 0.47665 0.51329 0.95508 0.0
H1461 H 0.49275 0.4758 0.89501 0.0
H1462 H 0.4117 0.46531 0.83456 0.0
H1463 H 0.43488 0.46844 0.86266 0.0
H1464 H 0.44526 0.5322 0.89946 0.0
C1465 C 0.49132 0.50837 0.95126 0.0
C1466 C 0.48276 0.48848 0.8961 0.0
C1467 C 0.5042 0.50632 0.96736 0.0
C1468 C 0.41785 0.48108 0.84049 0.0
C1469 C 0.43129 0.48284 0.85662 0.0
C1470 C 0.45578 0.52002 0.89819 0.0
C1471 C 0.49713 0.50344 0.93055 0.0
C1472 C 0.48304 0.50418 0.91333 0.0
C1473 C 0.44002 0.50278 0.86481 0.0
C1474 C 0.45529 0.50401 0.8812 0.0
H1475 H 0.5435 0.48895 0.93888 0.0
H1476 H 0.52145 0.49319 0.91073 0.0
H1477 H 0.46941 0.53259 0.92698 0.0
H1478 H 0.41681 0.53364 0.83461 0.0
H1479 H 0.44073 0.53673 0.86285 0.0
C1480 C 0.69081 0.79735 0.17109 0.0
C1481 C 0.70138 0.79887 0.18957 0.0
C1482 C 0.6984 0.78708 0.1528 0.0
C1483 C 0.72066 0.7709 0.11392 0.0
H1484 H 0.74454 0.71807 0.11916 0.0
C1485 C 0.72998 0.70509 0.04512 0.0
C1486 C 0.74696 0.6935 0.04442 0.0
C1487 C 0.72626 0.72007 0.06211 0.0
C1488 C 0.7382 0.73294 0.11738 0.0
H1489 H 0.72843 0.79171 0.20342 0.0
H1490 H 0.74209 0.77419 0.17136 0.0
H1491 H 0.73518 0.7408 0.14999 0.0
H1492 H 0.77371 0.68935 0.06086 0.0
H1493 H 0.76728 0.71554 0.09026 0.0
H1494 H 0.72332 0.76271 0.08122 0.0
C1495 C 0.72776 0.78058 0.17099 0.0
C1496 C 0.73284 0.74603 0.13512 0.0
C1497 C 0.72011 0.79084 0.18929 0.0
C1498 C 0.76041 0.69782 0.06086 0.0
C1499 C 0.75667 0.71278 0.07782 0.0
C1500 C 0.72599 0.75777 0.09615 0.0
C1501 C 0.71679 0.77812 0.15259 0.0
C1502 C 0.72382 0.76509 0.13365 0.0
C1503 C 0.7394 0.72386 0.07883 0.0
C1504 C 0.73467 0.73851 0.09766 0.0
H1505 H 0.67636 0.80352 0.17101 0.0
H1506 H 0.68944 0.78536 0.13904 0.0
H1507 H 0.714 0.7856 0.11219 0.0
H1508 H 0.71925 0.7022 0.03281 0.0
H1509 H 0.71271 0.72815 0.06244 0.0
C1510 C 0.0142 0.04993 0.1177 0.0
C1511 C 0.01777 0.03338 0.10202 0.0
C1512 C 1.00175 0.04618 0.13424 0.0
C1513 C 0.98215 0.00388 0.16367 0.0
H1514 H 0.94084 0.04172 0.18033 0.0
C1515 C 0.92313 0.98351 0.22358 0.0
C1516 C 0.91603 1.00021 0.23726 0.0
C1517 C 0.93551 0.98779 0.20716 0.0
C1518 C 0.95248 0.03116 0.17614 0.0
H1519 H 0.01105 1.00007 0.09112 0.0
H1520 H 0.98967 0.99326 0.12037 0.0
H1521 H 0.96271 0.04892 0.15179 0.0
H1522 H 0.91667 0.03457 0.24451 0.0
H1523 H 0.93877 0.04206 0.21632 0.0
H1524 H 0.97239 0.98637 0.18821 0.0
C1525 C 0.99651 0.00913 0.11988 0.0
C1526 C 0.96496 0.03527 0.15971 0.0
C1527 C 0.00873 0.01298 0.1032 0.0
C1528 C 0.92174 0.02132 0.23418 0.0
C1529 C 0.93435 0.02561 0.2179 0.0
C1530 C 0.96986 0.99992 0.18026 0.0
C1531 C 0.99285 0.0257 0.13555 0.0
C1532 C 0.97983 0.02159 0.15323 0.0
C1533 C 0.94139 0.0089 0.20412 0.0
C1534 C 0.95476 0.01342 0.18667 0.0
H1535 H 0.0212 0.06572 0.1172 0.0
H1536 H 0.99934 0.05919 0.14621 0.0
H1537 H 0.99367 0.99323 0.15917 0.0
H1538 H 0.91892 0.96705 0.22536 0.0
H1539 H 0.94026 0.97449 0.19669 0.0
C1540 C 0.32141 0.74503 0.16623 0.0
C1541 C 0.31764 0.74939 0.1874 0.0
C1542 C 0.3173 0.75975 0.15286 0.0
C1543 C 0.28578 0.80357 0.14784 0.0
H1544 H 0.32208 0.81601 0.10405 0.0
C1545 C 0.2689 0.86408 0.09205 0.0
C1546 C 0.27389 0.85878 0.0712 0.0
C1547 C 0.27548 0.85234 0.10711 0.0
C1548 C 0.31165 0.81257 0.11604 0.0
H1549 H 0.30699 0.77233 0.21147 0.0
H1550 H 0.29959 0.79822 0.18811 0.0
H1551 H 0.33116 0.7923 0.12848 0.0
H1552 H 0.28987 0.8371 0.04987 0.0
H1553 H 0.30089 0.81641 0.07589 0.0
H1554 H 0.266 0.82326 0.13514 0.0
C1555 C 0.30565 0.78343 0.18177 0.0
C1556 C 0.31691 0.799 0.13008 0.0
C1557 C 0.30996 0.76877 0.19513 0.0
C1558 C 0.28585 0.84172 0.06581 0.0
C1559 C 0.29228 0.82989 0.08081 0.0
C1560 C 0.28043 0.81699 0.13369 0.0
C1561 C 0.30919 0.77904 0.16045 0.0
C1562 C 0.30398 0.79422 0.14606 0.0
C1563 C 0.28708 0.83491 0.10167 0.0
C1564 C 0.29322 0.82154 0.11746 0.0
H1565 H 0.32734 0.73011 0.16008 0.0
H1566 H 0.32002 0.75579 0.13652 0.0
H1567 H 0.27539 0.80001 0.15984 0.0
H1568 H 0.25976 0.87719 0.09672 0.0
H1569 H 0.27142 0.85693 0.12304 0.0
C1570 C 0.99547 0.47676 0.10825 0.0
C1571 C 1.00074 0.48095 0.08828 0.0
C1572 C 0.00962 0.47906 0.12391 0.0
C1573 C 0.04404 0.47825 0.15341 0.0
H1574 H 0.08004 0.52852 0.15425 0.0
C1575 C 0.10551 0.49995 0.21514 0.0
C1576 C 0.10867 0.52159 0.22313 0.0
C1577 C 0.09294 0.49365 0.19832 0.0
C1578 C 0.07005 0.51447 0.15434 0.0
H1579 H 0.02484 0.48948 0.06848 0.0
H1580 H 0.04986 0.49318 0.09568 0.0
H1581 H 0.05739 0.51894 0.12552 0.0
H1582 H 0.10082 0.55352 0.2195 0.0
H1583 H 0.07888 0.54253 0.19041 0.0
H1584 H 0.05638 0.47417 0.18257 0.0
C1585 C 0.03475 0.48854 0.09947 0.0
C1586 C 0.05721 0.50879 0.13768 0.0
C1587 C 0.02056 0.48621 0.08384 0.0
C1588 C 0.09883 0.53672 0.21384 0.0
C1589 C 0.08632 0.53042 0.197 0.0
C1590 C 0.05695 0.48391 0.17008 0.0
C1591 C 0.02937 0.48559 0.11986 0.0
C1592 C 0.04391 0.4907 0.13704 0.0
C1593 C 0.08324 0.50882 0.18895 0.0
C1594 C 0.06999 0.50223 0.17086 0.0
H1595 H 0.9802 0.47269 0.11189 0.0
H1596 H 0.00487 0.47676 0.13939 0.0
H1597 H 0.03412 0.46413 0.15339 0.0
H1598 H 0.11282 0.48781 0.22182 0.0
H1599 H 0.09108 0.4769 0.19243 0.0
C1600 C 0.3443 0.73077 0.26234 0.0
C1601 C 0.34228 0.71491 0.24537 0.0
C1602 C 0.35674 0.72851 0.27869 0.0
C1603 C 0.39975 0.699 0.29085 0.0
H1604 H 0.39001 0.7261 0.34618 0.0
C1605 C 0.45365 0.69728 0.35934 0.0
C1606 C 0.45781 0.71713 0.37113 0.0
C1607 C 0.43832 0.69457 0.34485 0.0
C1608 C 0.39293 0.71838 0.33083 0.0
H1609 H 0.35113 0.68398 0.2324 0.0
H1610 H 0.37216 0.67935 0.26138 0.0
H1611 H 0.36478 0.72502 0.31992 0.0
H1612 H 0.4504 0.75004 0.3759 0.0
H1613 H 0.42348 0.74527 0.35111 0.0
H1614 H 0.42794 0.69233 0.30199 0.0
C1615 C 0.36457 0.69387 0.26192 0.0
C1616 C 0.3785 0.71788 0.31567 0.0
C1617 C 0.35225 0.69629 0.24545 0.0
C1618 C 0.44692 0.73434 0.36766 0.0
C1619 C 0.43155 0.73162 0.3534 0.0
C1620 C 0.41409 0.69924 0.30612 0.0
C1621 C 0.36732 0.71015 0.27861 0.0
C1622 C 0.38185 0.70863 0.29531 0.0
C1623 C 0.42702 0.71171 0.34183 0.0
C1624 C 0.41101 0.70934 0.32618 0.0
H1625 H 0.33663 0.74521 0.26265 0.0
H1626 H 0.35857 0.74156 0.29101 0.0
H1627 H 0.40309 0.69198 0.27535 0.0
H1628 H 0.46215 0.68389 0.36144 0.0
H1629 H 0.43522 0.67905 0.3361 0.0
C1630 C 0.98397 0.43203 0.05955 0.0
C1631 C 0.99131 0.44958 0.05005 0.0
C1632 C 0.98811 0.41136 0.05128 0.0
C1633 C 0.01891 0.37935 0.01309 0.0
H1634 H 0.97146 0.34162 0.00668 0.0
C1635 C 0.01193 0.30237 0.95412 0.0
C1636 C 0.99896 0.28537 0.95878 0.0
C1637 C 0.01376 0.32149 0.96754 0.0
C1638 C 0.98501 0.35167 0.00864 0.0
H1639 H 0.00974 0.45977 0.02553 0.0
H1640 H 0.01717 0.42363 0.01092 0.0
H1641 H 0.97032 0.37639 0.02665 0.0
H1642 H 0.9789 0.27455 0.98193 0.0
H1643 H 0.98264 0.30734 0.00557 0.0
H1644 H 0.03353 0.35458 0.99478 0.0
C1645 C 0.00826 0.42569 0.02479 0.0
C1646 C 0.98433 0.37172 0.02014 0.0
C1647 C 0.00405 0.44635 0.03308 0.0
C1648 C 0.98884 0.28743 0.97774 0.0
C1649 C 0.99086 0.30635 0.99124 0.0
C1650 C 0.01964 0.35914 1.00165 0.0
C1651 C 0.99972 0.40788 0.03333 0.0
C1652 C 1.0012 0.38592 0.0224 0.0
C1653 C 1.00281 0.32394 0.98604 0.0
C1654 C 1.00264 0.34506 0.99914 0.0
H1655 H 0.97404 0.43429 0.07262 0.0
H1656 H 0.98157 0.39805 0.05846 0.0
H1657 H 0.03221 0.38985 0.01462 0.0
H1658 H 0.01984 0.30136 0.93957 0.0
H1659 H 0.02301 0.33466 0.96289 0.0
C1660 C 0.66187 0.79643 0.26926 0.0
C1661 C 0.65683 0.80297 0.25042 0.0
C1662 C 0.64725 0.79177 0.28353 0.0
C1663 C 0.59653 0.80237 0.29962 0.0
H1664 H 0.5995 0.75186 0.32695 0.0
C1665 C 0.53475 0.77301 0.35384 0.0
C1666 C 0.54054 0.76312 0.37066 0.0
C1667 C 0.54869 0.77896 0.33927 0.0
C1668 C 0.59857 0.76622 0.31974 0.0
H1669 H 0.63282 0.80981 0.2315 0.0
H1670 H 0.60696 0.80171 0.25659 0.0
H1671 H 0.62403 0.75963 0.30106 0.0
H1672 H 0.56559 0.75279 0.38603 0.0
H1673 H 0.58988 0.76376 0.36115 0.0
H1674 H 0.57122 0.80914 0.31854 0.0
C1675 C 0.62224 0.80026 0.26036 0.0
C1676 C 0.61262 0.77061 0.3048 0.0
C1677 C 0.63692 0.80473 0.24598 0.0
C1678 C 0.56062 0.7602 0.37313 0.0
C1679 C 0.57454 0.76632 0.35873 0.0
C1680 C 0.58253 0.79807 0.31472 0.0
C1681 C 0.62727 0.79369 0.27929 0.0
C1682 C 0.61184 0.78878 0.29465 0.0
C1683 C 0.56873 0.77529 0.34132 0.0
C1684 C 0.58344 0.78 0.32509 0.0
H1685 H 0.67717 0.79491 0.27287 0.0
H1686 H 0.65162 0.78694 0.29804 0.0
H1687 H 0.59566 0.81661 0.29219 0.0
H1688 H 0.51936 0.77537 0.35147 0.0
H1689 H 0.54362 0.7857 0.32602 0.0
C1690 C 0.04074 0.05648 0.02168 0.0
C1691 C 0.0471 0.06431 0.04168 0.0
C1692 C 0.0379 0.07055 0.00722 0.0
C1693 C 0.04713 0.12687 0.99656 0.0
H1694 H 0.99613 0.11719 0.96983 0.0
C1695 C 0.98759 0.17764 0.95654 0.0
C1696 C 1.00018 0.18901 0.94391 0.0
C1697 C 0.99456 0.16136 0.96657 0.0
C1698 C 0.0104 0.12016 0.9772 0.0
H1699 H 0.05653 0.0925 0.06207 0.0
H1700 H 0.05206 0.11718 0.03687 0.0
H1701 H 0.0076 0.09061 0.98999 0.0
H1702 H 0.03004 0.19187 0.93187 0.0
H1703 H 0.04208 0.16356 0.94931 0.0
H1704 H 0.04965 0.15673 0.98429 0.0
C1705 C 0.04929 0.10026 0.03214 0.0
C1706 C 0.01711 0.10477 0.98854 0.0
C1707 C 0.05195 0.08619 0.04657 0.0
C1708 C 0.01988 0.18354 0.94148 0.0
C1709 C 0.02685 0.16735 0.95159 0.0
C1710 C 0.04047 0.14221 0.98512 0.0
C1711 C 0.04151 0.09271 0.01253 0.0
C1712 C 0.03545 0.10805 0.99862 0.0
C1713 C 0.01431 0.15608 0.96432 0.0
C1714 C 0.02188 0.1392 0.97553 0.0
H1715 H 0.03661 0.03966 0.01778 0.0
H1716 H 0.03213 0.06418 0.99218 0.0
H1717 H 0.06136 0.12987 0.00402 0.0
H1718 H 0.97234 0.18135 0.95878 0.0
H1719 H 0.98453 0.15319 0.97644 0.0
C1720 C 0.34525 0.29636 0.29448 0.0
C1721 C 0.34762 0.31104 0.31231 0.0
C1722 C 0.3613 0.29191 0.28141 0.0
C1723 C 0.40811 0.3173 0.26504 0.0
H1724 H 0.41566 0.26106 0.23662 0.0
C1725 C 0.47028 0.29929 0.20329 0.0
C1726 C 0.46515 0.2836 0.1867 0.0
C1727 C 0.45709 0.30343 0.21987 0.0
C1728 C 0.41366 0.27695 0.24423 0.0
H1729 H 0.36841 0.33235 0.3308 0.0
H1730 H 0.39676 0.32453 0.30803 0.0
H1731 H 0.3911 0.26535 0.26395 0.0
H1732 H 0.44165 0.2611 0.1739 0.0
H1733 H 0.41874 0.26875 0.20204 0.0
H1734 H 0.43037 0.32896 0.24488 0.0
C1735 C 0.38252 0.31636 0.30414 0.0
C1736 C 0.39961 0.27936 0.26 0.0
C1737 C 0.36645 0.3206 0.31733 0.0
C1738 C 0.44623 0.2731 0.18652 0.0
C1739 C 0.4331 0.27733 0.20284 0.0
C1740 C 0.42214 0.3149 0.24911 0.0
C1741 C 0.38003 0.30235 0.28574 0.0
C1742 C 0.3964 0.29959 0.2704 0.0
C1743 C 0.43851 0.29203 0.22008 0.0
C1744 C 0.42482 0.29473 0.23819 0.0
H1745 H 0.3307 0.28929 0.29013 0.0
H1746 H 0.35877 0.28122 0.26728 0.0
H1747 H 0.4059 0.33316 0.27261 0.0
H1748 H 0.48479 0.30755 0.20394 0.0
H1749 H 0.46175 0.31491 0.23287 0.0
C1750 C 0.5376 0.47585 0.04127 0.0
C1751 C 0.55041 0.47254 0.02437 0.0
C1752 C 0.53547 0.46115 0.05554 0.0
C1753 C 0.55638 0.41377 0.07338 0.0
H1754 H 0.50179 0.39928 0.08691 0.0
C1755 C 0.53423 0.35085 0.12836 0.0
C1756 C 0.51827 0.33623 0.12212 0.0
C1757 C 0.53852 0.36883 0.11819 0.0
C1758 C 0.51711 0.40306 0.08326 0.0
H1759 H 0.5718 0.452 0.00957 0.0
H1760 H 0.56826 0.42613 0.03456 0.0
H1761 H 0.50979 0.42822 0.0664 0.0
H1762 H 0.49403 0.32939 0.10055 0.0
H1763 H 0.50143 0.3607 0.08288 0.0
H1764 H 0.56358 0.38811 0.08979 0.0
C1765 C 0.55992 0.44018 0.03697 0.0
C1766 C 0.52175 0.41988 0.07169 0.0
C1767 C 0.56207 0.45499 0.02269 0.0
C1768 C 0.50636 0.34037 0.10585 0.0
C1769 C 0.5106 0.35838 0.09573 0.0
C1770 C 0.55173 0.39696 0.08505 0.0
C1771 C 0.54605 0.44268 0.05316 0.0
C1772 C 0.54144 0.42541 0.06646 0.0
C1773 C 0.5269 0.3727 0.10156 0.0
C1774 C 0.532 0.39126 0.08999 0.0
H1775 H 0.52845 0.48928 0.04275 0.0
H1776 H 0.52498 0.46388 0.06804 0.0
H1777 H 0.57169 0.41763 0.06975 0.0
H1778 H 0.54374 0.34816 0.14081 0.0
H1779 H 0.55101 0.37965 0.12329 0.0
C1780 C 0.6696 0.21025 0.2705 0.0
C1781 C 0.66408 0.19914 0.28712 0.0
C1782 C 0.65532 0.21506 0.25686 0.0
C1783 C 0.60534 0.19948 0.23731 0.0
H1784 H 0.60429 0.25844 0.22752 0.0
C1785 C 0.53968 0.22897 0.19619 0.0
C1786 C 0.54354 0.24482 0.18317 0.0
C1787 C 0.55455 0.22331 0.20866 0.0
C1788 C 0.6045 0.24183 0.22975 0.0
H1789 H 0.63978 0.18383 0.30249 0.0
H1790 H 0.61471 0.19172 0.27836 0.0
H1791 H 0.63042 0.24789 0.24848 0.0
H1792 H 0.56618 0.26701 0.17294 0.0
H1793 H 0.59218 0.25671 0.19407 0.0
H1794 H 0.57974 0.19319 0.21828 0.0
C1795 C 0.63 0.1968 0.27584 0.0
C1796 C 0.61948 0.23582 0.24183 0.0
C1797 C 0.64424 0.1923 0.28962 0.0
C1798 C 0.56261 0.2549 0.18296 0.0
C1799 C 0.57754 0.24903 0.19519 0.0
C1800 C 0.59051 0.20541 0.22496 0.0
C1801 C 0.63534 0.20853 0.25952 0.0
C1802 C 0.61998 0.21462 0.24585 0.0
C1803 C 0.57376 0.23312 0.2082 0.0
C1804 C 0.58977 0.22671 0.22113 0.0
H1805 H 0.68486 0.21575 0.2685 0.0
H1806 H 0.65985 0.22401 0.24434 0.0
H1807 H 0.60548 0.18299 0.24002 0.0
H1808 H 0.52513 0.22096 0.19683 0.0
H1809 H 0.55088 0.21132 0.21876 0.0
C1810 C 0.48504 0.10384 0.98111 0.0
C1811 C 0.49343 0.08626 0.98763 0.0
C1812 C 0.49097 0.12449 0.98994 0.0
C1813 C 0.49197 0.1594 0.02617 0.0
H1814 H 0.54452 0.18316 0.04142 0.0
C1815 C 0.50091 0.23535 0.08385 0.0
C1816 C 0.51686 0.23747 0.09745 0.0
C1817 C 0.50027 0.21982 0.06666 0.0
C1818 C 0.52968 0.17672 0.03762 0.0
H1819 H 0.51549 0.07615 0.00702 0.0
H1820 H 0.52625 0.11237 0.0224 0.0
H1821 H 0.54032 0.15025 0.01779 0.0
H1822 H 0.54536 0.22637 0.10319 0.0
H1823 H 0.54367 0.19798 0.07438 0.0
H1824 H 0.481 0.18467 0.04645 0.0
C1825 C 0.51512 0.1103 0.01047 0.0
C1826 C 0.52734 0.1579 0.02386 0.0
C1827 C 0.50905 0.08962 1.00169 0.0
C1828 C 0.53272 0.22467 0.09303 0.0
C1829 C 0.5318 0.20855 0.07625 0.0
C1830 C 0.49426 0.17795 0.04009 0.0
C1831 C 0.50548 0.12786 0.00539 0.0
C1832 C 0.50843 0.14893 0.01817 0.0
C1833 C 0.51532 0.20553 0.06298 0.0
C1834 C 0.51314 0.1868 0.04643 0.0
H1835 H 0.47285 0.10142 0.97037 0.0
H1836 H 0.48342 0.13773 0.98556 0.0
H1837 H 0.47717 0.1527 0.0224 0.0
H1838 H 0.48881 0.24562 0.08663 0.0
H1839 H 0.48771 0.21893 0.05653 0.0
C1840 C 0.20832 0.36377 0.71198 0.0
C1841 C 0.21075 0.3423 0.71384 0.0
C1842 C 0.22451 0.37873 0.71379 0.0
C1843 C 0.27239 0.38664 0.73969 0.0
H1844 H 0.27898 0.43712 0.71177 0.0
C1845 C 0.32357 0.45827 0.77264 0.0
C1846 C 0.33488 0.46937 0.75888 0.0
C1847 C 0.30874 0.44293 0.76537 0.0
C1848 C 0.27752 0.42302 0.71959 0.0
H1849 H 0.23194 0.31931 0.71785 0.0
H1850 H 0.26044 0.34526 0.72045 0.0
H1851 H 0.25355 0.40918 0.70021 0.0
H1852 H 0.33888 0.47438 0.72695 0.0
H1853 H 0.31337 0.4469 0.71395 0.0
H1854 H 0.29595 0.40033 0.75923 0.0
C1855 C 0.246 0.35067 0.71792 0.0
C1856 C 0.26281 0.40708 0.71305 0.0
C1857 C 0.22978 0.33575 0.71613 0.0
C1858 C 0.33051 0.46568 0.73778 0.0
C1859 C 0.31582 0.45006 0.73041 0.0
C1860 C 0.28695 0.40255 0.74627 0.0
C1861 C 0.24346 0.37247 0.71752 0.0
C1862 C 0.26001 0.38874 0.72312 0.0
C1863 C 0.30488 0.43828 0.74411 0.0
C1864 C 0.28967 0.42106 0.73644 0.0
H1865 H 0.1937 0.36908 0.71023 0.0
H1866 H 0.22198 0.39537 0.71352 0.0
H1867 H 0.27045 0.37295 0.74807 0.0
H1868 H 0.32625 0.46142 0.78908 0.0
H1869 H 0.30029 0.43474 0.77651 0.0
C1870 C 0.2404 0.68191 0.80905 0.0
C1871 C 0.2234 0.67906 0.82095 0.0
C1872 C 0.25611 0.66901 0.81016 0.0
C1873 C 0.27598 0.62811 0.83972 0.0
H1874 H 0.30201 0.61191 0.78757 0.0
C1875 C 0.3247 0.55552 0.82173 0.0
C1876 C 0.34185 0.55878 0.80995 0.0
C1877 C 0.31158 0.57166 0.82587 0.0
C1878 C 0.29506 0.61646 0.80232 0.0
H1879 H 0.20933 0.6611 0.84365 0.0
H1880 H 0.23646 0.6378 0.84523 0.0
H1881 H 0.27661 0.63712 0.78934 0.0
H1882 H 0.35918 0.58197 0.79427 0.0
H1883 H 0.33629 0.60993 0.80137 0.0
H1884 H 0.29412 0.60649 0.85233 0.0
C1885 C 0.23806 0.65033 0.83539 0.0
C1886 C 0.28051 0.63105 0.8034 0.0
C1887 C 0.22248 0.66356 0.8345 0.0
C1888 C 0.34608 0.57886 0.80331 0.0
C1889 C 0.33291 0.59487 0.80727 0.0
C1890 C 0.29042 0.61322 0.83856 0.0
C1891 C 0.25495 0.65257 0.82288 0.0
C1892 C 0.27078 0.63721 0.82212 0.0
C1893 C 0.31527 0.59128 0.81813 0.0
C1894 C 0.30017 0.60732 0.81984 0.0
H1895 H 0.24131 0.6939 0.79859 0.0
H1896 H 0.26902 0.67172 0.80073 0.0
H1897 H 0.26902 0.63257 0.85447 0.0
H1898 H 0.32101 0.54023 0.82706 0.0
H1899 H 0.29807 0.56841 0.83423 0.0
C1900 C 0.92237 0.52108 0.47329 0.0
C1901 C 0.93766 0.52327 0.48773 0.0
C1902 C 0.90462 0.50973 0.477 0.0
C1903 C 0.87374 0.48936 0.51826 0.0
H1904 H 0.84959 0.45248 0.47229 0.0
C1905 C 0.79514 0.43983 0.49234 0.0
C1906 C 0.79119 0.42804 0.50894 0.0
C1907 C 0.81273 0.45235 0.4914 0.0
C1908 C 0.85601 0.46288 0.48526 0.0
H1909 H 0.94655 0.51564 0.51741 0.0
H1910 H 0.91543 0.49552 0.52402 0.0
H1911 H 0.88094 0.47205 0.46736 0.0
H1912 H 0.8023 0.42107 0.53815 0.0
H1913 H 0.83326 0.44301 0.53643 0.0
H1914 H 0.84865 0.47999 0.53614 0.0
C1915 C 0.91707 0.50274 0.50988 0.0
C1916 C 0.874 0.47412 0.48242 0.0
C1917 C 0.93486 0.51413 0.50611 0.0
C1918 C 0.80487 0.42997 0.52515 0.0
C1919 C 0.8226 0.44254 0.52418 0.0
C1920 C 0.85566 0.47804 0.52111 0.0
C1921 C 0.90178 0.50028 0.49528 0.0
C1922 C 0.883 0.48771 0.49879 0.0
C1923 C 0.82693 0.45339 0.50698 0.0
C1924 C 0.84647 0.4649 0.50454 0.0
H1925 H 0.92414 0.52836 0.45919 0.0
H1926 H 0.89303 0.50853 0.46561 0.0
H1927 H 0.88022 0.4998 0.53116 0.0
H1928 H 0.78485 0.439 0.4797 0.0
H1929 H 0.81538 0.46094 0.4782 0.0
C1930 C 0.79449 0.87414 0.82883 0.0
C1931 C 0.79011 0.85218 0.82381 0.0
C1932 C 0.78021 0.88856 0.82656 0.0
C1933 C 0.73496 0.89388 0.79782 0.0
H1934 H 0.7277 0.94209 0.83926 0.0
C1935 C 0.67427 0.95121 0.7891 0.0
C1936 C 0.67928 0.97308 0.79429 0.0
C1937 C 0.68659 0.93604 0.79454 0.0
C1938 C 0.72965 0.92884 0.82743 0.0
H1939 H 0.76763 0.82792 0.8125 0.0
H1940 H 0.74253 0.85304 0.80849 0.0
H1941 H 0.75183 0.91664 0.84488 0.0
H1942 H 0.70088 0.99615 0.80988 0.0
H1943 H 0.72254 0.9698 0.81902 0.0
H1944 H 0.71324 0.90622 0.78009 0.0
C1945 C 0.75698 0.8592 0.81414 0.0
C1946 C 0.74348 0.91423 0.83068 0.0
C1947 C 0.77122 0.84481 0.81656 0.0
C1948 C 0.69653 0.97942 0.80572 0.0
C1949 C 0.70894 0.96425 0.81103 0.0
C1950 C 0.72125 0.90855 0.7945 0.0
C1951 C 0.76131 0.88126 0.81905 0.0
C1952 C 0.74633 0.89661 0.81588 0.0
C1953 C 0.70434 0.94235 0.80517 0.0
C1954 C 0.71842 0.92628 0.80922 0.0
H1955 H 0.80899 0.88008 0.83446 0.0
H1956 H 0.78409 0.90545 0.83029 0.0
H1957 H 0.737 0.88065 0.78597 0.0
H1958 H 0.66103 0.94579 0.78039 0.0
H1959 H 0.68231 0.91934 0.79015 0.0
C1960 C 0.5986 0.49393 0.99277 0.0
C1961 C 0.58305 0.50041 0.00582 0.0
C1962 C 0.6177 0.50327 0.99619 0.0
C1963 C 0.6493 0.53909 0.99583 0.0
H1964 H 0.67559 0.55574 0.04816 0.0
C1965 C 0.72405 0.58783 0.99862 0.0
C1966 C 0.72806 0.60318 0.01566 0.0
C1967 C 0.70789 0.57295 0.99883 0.0
C1968 C 0.66839 0.5515 0.03341 0.0
H1969 H 0.57525 0.52058 0.03337 0.0
H1970 H 0.60882 0.53697 0.03967 0.0
H1971 H 0.64469 0.53353 0.04682 0.0
H1972 H 0.71931 0.61427 0.04682 0.0
H1973 H 0.69029 0.58928 0.0469 0.0
H1974 H 0.67229 0.55724 0.98231 0.0
C1975 C 0.60633 0.52457 0.02682 0.0
C1976 C 0.65068 0.53862 0.03267 0.0
C1977 C 0.58715 0.51515 0.02334 0.0
C1978 C 0.71624 0.60277 0.03335 0.0
C1979 C 0.69972 0.58823 0.03341 0.0
C1980 C 0.66682 0.55203 0.99657 0.0
C1981 C 0.62164 0.51939 0.01274 0.0
C1982 C 0.64092 0.53226 0.01384 0.0
C1983 C 0.69509 0.57323 0.01601 0.0
C1984 C 0.67667 0.55861 0.01536 0.0
H1985 H 0.59564 0.48269 0.97909 0.0
H1986 H 0.6292 0.4986 0.98527 0.0
H1987 H 0.642 0.53492 0.9811 0.0
H1988 H 0.7334 0.58739 0.98505 0.0
H1989 H 0.70544 0.56131 0.98536 0.0
C1990 C 0.31148 0.6674 0.22031 0.0
C1991 C 0.30652 0.68827 0.22673 0.0
C1992 C 0.29932 0.65005 0.22536 0.0
C1993 C 0.25579 0.63576 0.25802 0.0
H1994 H 0.24958 0.58665 0.21638 0.0
C1995 C 0.20068 0.56563 0.27081 0.0
C1996 C 0.19069 0.55458 0.25368 0.0
C1997 C 0.21662 0.58015 0.26821 0.0
C1998 C 0.25086 0.6003 0.22812 0.0
H1999 H 0.2852 0.7077 0.2431 0.0
H2000 H 0.26352 0.67768 0.25153 0.0
H2001 H 0.2735 0.61566 0.21114 0.0
H2002 H 0.19002 0.54888 0.22043 0.0
H2003 H 0.217 0.57536 0.21562 0.0
H2004 H 0.23244 0.62122 0.27443 0.0
C2005 C 0.2771 0.67438 0.24331 0.0
C2006 C 0.26496 0.61687 0.22528 0.0
C2007 C 0.28945 0.69164 0.23852 0.0
C2008 C 0.1974 0.55752 0.23384 0.0
C2009 C 0.21304 0.57256 0.23118 0.0
C2010 C 0.2415 0.61939 0.2607 0.0
C2011 C 0.28167 0.65328 0.23652 0.0
C2012 C 0.26753 0.63494 0.24012 0.0
C2013 C 0.22276 0.58435 0.24836 0.0
C2014 C 0.23866 0.60143 0.24573 0.0
H2015 H 0.32439 0.66458 0.21075 0.0
H2016 H 0.30357 0.63413 0.22012 0.0
H2017 H 0.25749 0.64914 0.27003 0.0
H2018 H 0.19607 0.56311 0.28629 0.0
H2019 H 0.224 0.58814 0.28189 0.0
C2020 C 0.92838 0.49922 0.0444 0.0
C2021 C 0.9471 0.50862 0.0503 0.0
C2022 C 0.91357 0.51166 0.03881 0.0
C2023 C 0.89671 0.56546 0.04692 0.0
H2024 H 0.86742 0.54908 0.99625 0.0
C2025 C 0.83854 0.619 0.02172 0.0
C2026 C 0.82148 0.60913 0.01184 0.0
C2027 C 0.85459 0.60716 0.025 0.0
C2028 C 0.8752 0.55379 0.01062 0.0
H2029 H 0.96505 0.53832 0.05494 0.0
H2030 H 0.93891 0.5603 0.04591 0.0
H2031 H 0.89353 0.5274 0.00523 0.0
H2032 H 0.80793 0.57912 0.9974 0.0
H2033 H 0.83549 0.55827 0.00377 0.0
H2034 H 0.87804 0.59128 0.05292 0.0
C2035 C 0.93575 0.54327 0.04548 0.0
C2036 C 0.89026 0.54137 0.01569 0.0
C2037 C 0.95066 0.53075 0.05071 0.0
C2038 C 0.82096 0.58723 0.0049 0.0
C2039 C 0.83687 0.57528 0.00851 0.0
C2040 C 0.88144 0.57768 0.04206 0.0
C2041 C 0.91707 0.53383 0.03938 0.0
C2042 C 0.90119 0.5471 0.03387 0.0
C2043 C 0.85386 0.58501 0.01885 0.0
C2044 C 0.87043 0.57208 0.02381 0.0
H2045 H 0.92518 0.48225 0.04427 0.0
H2046 H 0.89925 0.50399 0.0344 0.0
H2047 H 0.90473 0.57012 0.06117 0.0
H2048 H 0.83945 0.6359 0.02711 0.0
H2049 H 0.86753 0.61544 0.03249 0.0
C2050 C 0.06981 0.00609 0.03874 0.0
C2051 C 0.07094 0.0267 0.04947 0.0
C2052 C 0.08696 0.99609 0.03245 0.0
C2053 C 0.13877 0.9963 0.04794 0.0
H2054 H 0.14295 0.95708 0.99785 0.0
C2055 C 0.19763 0.93339 0.03662 0.0
C2056 C 0.20656 0.92997 0.01705 0.0
C2057 C 0.18169 0.94637 0.03992 0.0
C2058 C 0.14213 0.96809 0.01186 0.0
H2059 H 0.09057 0.05347 0.06141 0.0
H2060 H 0.12084 0.0362 0.05016 0.0
H2061 H 0.11461 0.97873 1.00301 0.0
H2062 H 0.20557 0.93781 0.98566 0.0
H2063 H 0.17811 0.96031 0.99149 0.0
H2064 H 0.16631 0.98562 0.05679 0.0
C2065 C 0.10669 0.02765 0.04667 0.0
C2066 C 0.12578 0.9804 0.01487 0.0
C2067 C 0.08945 0.03769 0.05282 0.0
C2068 C 0.19914 0.93995 1.00096 0.0
C2069 C 0.18324 0.95281 0.00424 0.0
C2070 C 0.1551 0.9839 0.04497 0.0
C2071 C 0.10566 0.00647 0.03697 0.0
C2072 C 0.12381 0.99458 0.033 0.0
C2073 C 0.17422 0.95615 0.02373 0.0
C2074 C 0.15695 0.96955 0.02692 0.0
H2075 H 0.05563 0.99726 0.0364 0.0
H2076 H 0.08556 0.97974 0.02521 0.0
H2077 H 0.13763 0.00683 0.06222 0.0
H2078 H 0.20289 0.92599 0.04938 0.0
H2079 H 0.17498 0.94842 0.05509 0.0
loop_
_geom_bond_atom_site_label_1
_geom_bond_atom_site_label_2
_geom_bond_distance
_geom_bond_site_symmetry_2
_ccdc_geom_bond_type
C0 N1 1.317 . S
C0 N2 1.348 . S
C0 C3 1.485 1_545 S
N1 C0 1.317 . S
N1 N5 1.370 . S
N2 C0 1.348 . S
N2 C4 1.346 . S
C3 C0 1.485 1_565 S
C3 H7 0.960 . S
C3 H8 0.961 . S
C3 H9 0.960 . S
C4 N2 1.346 . S
C4 N5 1.307 . S
C4 C6 1.486 1_455 S
N5 N1 1.370 . S
N5 C4 1.307 . S
C6 C4 1.486 1_655 S
C6 H10 0.960 . S
C6 H11 0.960 . S
C6 H12 0.959 . S
H7 C3 0.960 . S
H8 C3 0.961 . S
H9 C3 0.960 . S
H10 C6 0.960 . S
H11 C6 0.960 . S
H12 C6 0.959 . S
C13 N14 1.317 . S
C13 N15 1.348 . S
C13 C16 1.485 . S
N14 C13 1.317 . S
N14 N18 1.370 . S
N15 C13 1.348 . S
N15 C17 1.346 . S
C16 C13 1.485 . S
C16 H20 0.960 . S
C16 H21 0.961 . S
C16 H22 0.960 . S
C17 N15 1.346 . S
C17 N18 1.307 . S
C17 C19 1.486 . S
N18 N14 1.370 . S
N18 C17 1.307 . S
C19 C17 1.486 . S
C19 H23 0.960 . S
C19 H24 0.960 . S
C19 H25 0.959 . S
H20 C16 0.960 . S
H21 C16 0.961 . S
H22 C16 0.960 . S
H23 C19 0.960 . S
H24 C19 0.960 . S
H25 C19 0.959 . S
C26 N27 1.317 . S
C26 N28 1.348 . S
C26 C29 1.485 . S
N27 C26 1.317 . S
N27 N31 1.370 . S
N28 C26 1.348 . S
N28 C30 1.346 . S
C29 C26 1.485 . S
C29 H33 0.960 . S
C29 H34 0.961 . S
C29 H35 0.960 . S
C30 N28 1.346 . S
C30 N31 1.307 . S
C30 C32 1.486 . S
N31 N27 1.370 . S
N31 C30 1.307 . S
C32 C30 1.486 . S
C32 H36 0.960 . S
C32 H37 0.960 . S
C32 H38 0.959 . S
H33 C29 0.960 . S
H34 C29 0.961 . S
H35 C29 0.960 . S
H36 C32 0.960 . S
H37 C32 0.960 . S
H38 C32 0.959 . S
C39 N40 1.317 . S
C39 N41 1.348 . S
C39 C42 1.485 . S
N40 C39 1.317 . S
N40 N44 1.370 . S
N41 C39 1.348 . S
N41 C43 1.346 . S
C42 C39 1.485 . S
C42 H46 0.960 . S
C42 H47 0.961 . S
C42 H48 0.960 . S
C43 N41 1.346 . S
C43 N44 1.307 . S
C43 C45 1.486 . S
N44 N40 1.370 . S
N44 C43 1.307 . S
C45 C43 1.486 . S
C45 H49 0.960 . S
C45 H50 0.960 . S
C45 H51 0.959 . S
H46 C42 0.960 . S
H47 C42 0.961 . S
H48 C42 0.960 . S
H49 C45 0.960 . S
H50 C45 0.960 . S
H51 C45 0.959 . S
C52 N53 1.317 . S
C52 N54 1.348 . S
C52 C55 1.485 . S
N53 C52 1.317 . S
N53 N57 1.370 . S
N54 C52 1.348 . S
N54 C56 1.353 . S
C55 C52 1.485 . S
C55 H59 0.960 . S
C55 H60 0.961 1_455 S
C55 H61 0.960 . S
C56 N54 1.353 . S
C56 N57 1.314 . S
C56 C58 1.473 1_565 S
N57 N53 1.370 . S
N57 C56 1.314 . S
C58 C56 1.473 1_545 S
C58 H62 0.960 . S
C58 H63 0.960 . S
C58 H64 0.959 . S
H59 C55 0.960 . S
H60 C55 0.961 1_655 S
H61 C55 0.960 . S
H62 C58 0.960 . S
H63 C58 0.960 . S
H64 C58 0.959 . S
C65 N66 1.317 . S
C65 N67 1.348 . S
C65 C68 1.485 . S
N66 C65 1.317 . S
N66 N70 1.370 . S
N67 C65 1.348 . S
N67 C69 1.346 . S
C68 C65 1.485 . S
C68 H72 0.960 . S
C68 H73 0.961 . S
C68 H74 0.960 . S
C69 N67 1.346 . S
C69 N70 1.307 . S
C69 C71 1.486 . S
N70 N66 1.370 . S
N70 C69 1.307 . S
C71 C69 1.486 . S
C71 H75 0.960 . S
C71 H76 0.960 . S
C71 H77 0.959 . S
H72 C68 0.960 . S
H73 C68 0.961 . S
H74 C68 0.960 . S
H75 C71 0.960 . S
H76 C71 0.960 . S
H77 C71 0.959 . S
C78 N79 1.317 . S
C78 N80 1.348 . S
C78 C81 1.485 . S
N79 C78 1.317 . S
N79 N83 1.370 . S
N80 C78 1.348 . S
N80 C82 1.346 . S
C81 C78 1.485 . S
C81 H85 0.960 . S
C81 H86 0.961 . S
C81 H87 0.960 . S
C82 N80 1.346 . S
C82 N83 1.307 . S
C82 C84 1.486 . S
N83 N79 1.370 . S
N83 C82 1.307 . S
C84 C82 1.486 . S
C84 H88 0.960 . S
C84 H89 0.960 . S
C84 H90 0.959 . S
H85 C81 0.960 . S
H86 C81 0.961 . S
H87 C81 0.960 . S
H88 C84 0.960 . S
H89 C84 0.960 . S
H90 C84 0.959 . S
C91 N92 1.317 . S
C91 N93 1.348 . S
C91 C94 1.485 . S
N92 C91 1.317 . S
N92 N96 1.370 . S
N93 C91 1.348 . S
N93 C95 1.346 . S
C94 C91 1.485 . S
C94 H98 0.960 . S
C94 H99 0.961 . S
C94 H100 0.960 . S
C95 N93 1.346 . S
C95 N96 1.307 . S
C95 C97 1.486 . S
N96 N92 1.370 . S
N96 C95 1.307 . S
C97 C95 1.486 . S
C97 H101 0.960 . S
C97 H102 0.960 . S
C97 H103 0.959 . S
H98 C94 0.960 . S
H99 C94 0.961 . S
H100 C94 0.960 . S
H101 C97 0.960 . S
H102 C97 0.960 . S
H103 C97 0.959 . S
C104 N105 1.317 . S
C104 N106 1.348 . S
C104 C107 1.485 . S
N105 C104 1.317 . S
N105 N109 1.370 . S
N106 C104 1.348 . S
N106 C108 1.346 . S
C107 C104 1.485 . S
C107 H111 0.960 . S
C107 H112 0.961 . S
C107 H113 0.960 . S
C108 N106 1.346 . S
C108 N109 1.307 . S
C108 C110 1.486 . S
N109 N105 1.370 . S
N109 C108 1.307 . S
C110 C108 1.486 . S
C110 H114 0.960 . S
C110 H115 0.960 . S
C110 H116 0.959 . S
H111 C107 0.960 . S
H112 C107 0.961 . S
H113 C107 0.960 . S
H114 C110 0.960 . S
H115 C110 0.960 . S
H116 C110 0.959 . S
C117 N118 1.317 . S
C117 N119 1.348 . S
C117 C120 1.485 1_565 S
N118 C117 1.317 . S
N118 N122 1.370 . S
N119 C117 1.348 . S
N119 C121 1.346 . S
C120 C117 1.485 1_545 S
C120 H124 0.960 . S
C120 H125 0.961 . S
C120 H126 0.960 . S
C121 N119 1.346 . S
C121 N122 1.307 . S
C121 C123 1.486 . S
N122 N118 1.370 . S
N122 C121 1.307 . S
C123 C121 1.486 . S
C123 H127 0.960 . S
C123 H128 0.960 . S
C123 H129 0.959 . S
H124 C120 0.960 . S
H125 C120 0.961 . S
H126 C120 0.960 . S
H127 C123 0.960 . S
H128 C123 0.960 . S
H129 C123 0.959 . S
C130 N131 1.317 . S
C130 N132 1.348 . S
C130 C133 1.485 . S
N131 C130 1.317 . S
N131 N135 1.370 . S
N132 C130 1.348 . S
N132 C134 1.346 . S
C133 C130 1.485 . S
C133 H137 0.960 . S
C133 H138 0.961 . S
C133 H139 0.960 . S
C134 N132 1.346 . S
C134 N135 1.307 . S
C134 C136 1.486 . S
N135 N131 1.370 . S
N135 C134 1.307 . S
C136 C134 1.486 . S
C136 H140 0.960 . S
C136 H141 0.960 . S
C136 H142 0.959 . S
H137 C133 0.960 . S
H138 C133 0.961 . S
H139 C133 0.960 . S
H140 C136 0.960 . S
H141 C136 0.960 . S
H142 C136 0.959 . S
C143 N144 1.317 . S
C143 N145 1.348 . S
C143 C146 1.485 . S
N144 C143 1.317 . S
N144 N148 1.370 . S
N145 C143 1.348 . S
N145 C147 1.346 . S
C146 C143 1.485 . S
C146 H150 0.960 . S
C146 H151 0.961 . S
C146 H152 0.960 . S
C147 N145 1.346 . S
C147 N148 1.307 . S
C147 C149 1.486 . S
N148 N144 1.370 . S
N148 C147 1.307 . S
C149 C147 1.486 . S
C149 H153 0.960 . S
C149 H154 0.960 . S
C149 H155 0.959 . S
H150 C146 0.960 . S
H151 C146 0.961 . S
H152 C146 0.960 . S
H153 C149 0.960 . S
H154 C149 0.960 . S
H155 C149 0.959 . S
C156 N157 1.317 . S
C156 N158 1.348 . S
C156 C159 1.485 . S
N157 C156 1.317 . S
N157 N161 1.370 . S
N158 C156 1.348 . S
N158 C160 1.346 . S
C159 C156 1.485 . S
C159 H163 0.960 . S
C159 H164 0.961 . S
C159 H165 0.960 . S
C160 N158 1.346 . S
C160 N161 1.307 . S
C160 C162 1.486 . S
N161 N157 1.370 . S
N161 C160 1.307 . S
C162 C160 1.486 . S
C162 H166 0.960 . S
C162 H167 0.960 . S
C162 H168 0.959 . S
H163 C159 0.960 . S
H164 C159 0.961 . S
H165 C159 0.960 . S
H166 C162 0.960 . S
H167 C162 0.960 . S
H168 C162 0.959 . S
C169 N170 1.317 . S
C169 N171 1.348 . S
C169 C172 1.485 . S
N170 C169 1.317 . S
N170 N174 1.370 . S
N171 C169 1.348 . S
N171 C173 1.346 . S
C172 C169 1.485 . S
C172 H176 0.960 . S
C172 H177 0.961 . S
C172 H178 0.960 . S
C173 N171 1.346 . S
C173 N174 1.307 . S
C173 C175 1.486 . S
N174 N170 1.370 . S
N174 C173 1.307 . S
C175 C173 1.486 . S
C175 H179 0.960 . S
C175 H180 0.960 . S
C175 H181 0.959 . S
H176 C172 0.960 . S
H177 C172 0.961 . S
H178 C172 0.960 . S
H179 C175 0.960 . S
H180 C175 0.960 . S
H181 C175 0.959 . S
C182 N183 1.317 . S
C182 N184 1.348 . S
C182 C185 1.485 . S
N183 C182 1.317 . S
N183 N187 1.370 . S
N184 C182 1.348 . S
N184 C186 1.346 . S
C185 C182 1.485 . S
C185 H189 0.960 . S
C185 H190 0.961 . S
C185 H191 0.960 . S
C186 N184 1.346 . S
C186 N187 1.307 . S
C186 C188 1.486 . S
N187 N183 1.370 . S
N187 C186 1.307 . S
C188 C186 1.486 . S
C188 H192 0.960 . S
C188 H193 0.960 . S
C188 H194 0.959 . S
H189 C185 0.960 . S
H190 C185 0.961 . S
H191 C185 0.960 . S
H192 C188 0.960 . S
H193 C188 0.960 . S
H194 C188 0.959 . S
C195 N196 1.317 . S
C195 N197 1.348 . S
C195 C198 1.485 . S
N196 C195 1.317 . S
N196 N200 1.370 . S
N197 C195 1.348 . S
N197 C199 1.346 . S
C198 C195 1.485 . S
C198 H202 0.960 . S
C198 H203 0.961 1_545 S
C198 H204 0.960 . S
C199 N197 1.346 . S
C199 N200 1.307 . S
C199 C201 1.486 1_556 S
N200 N196 1.370 . S
N200 C199 1.307 . S
C201 C199 1.486 1_554 S
C201 H205 0.960 . S
C201 H206 0.960 . S
C201 H207 0.959 . S
H202 C198 0.960 . S
H203 C198 0.961 1_565 S
H204 C198 0.960 . S
H205 C201 0.960 . S
H206 C201 0.960 . S
H207 C201 0.959 . S
Mn208 O213 2.095 . S
Mn208 O223 2.162 . S
Mn208 O224 2.297 . S
Mn208 O232 2.385 . S
Mn208 O233 2.209 1_554 S
Mn208 O234 2.094 . S
Mn209 O214 2.121 . S
Mn209 N216 2.257 . S
Mn209 N225 2.282 . S
Mn209 O233 2.215 . S
Mn209 O235 2.117 1_556 S
C210 O232 1.234 1_556 S
C210 O233 1.283 . S
C211 O223 1.281 . S
C211 O224 1.236 . S
C212 O234 1.240 . S
C212 O235 1.264 . S
O213 Mn208 2.095 . S
O213 C222 1.250 . S
O214 Mn209 2.121 . S
O214 C222 1.258 1_556 S
C215 N216 1.326 . S
C215 C219 1.460 . S
C215 H221 0.929 . S
N216 Mn209 2.257 . S
N216 C215 1.326 . S
N216 C220 1.362 . S
C217 C218 1.258 . S
C217 C220 1.431 . S
C217 C237 1.449 . S
C218 C217 1.258 . S
C218 C219 1.477 . S
C218 H238 0.931 . S
C219 C215 1.460 . S
C219 C218 1.477 . S
C219 H239 0.930 . S
C220 N216 1.362 . S
C220 C217 1.431 . S
C220 C230 1.476 . S
H221 C215 0.929 . S
C222 O213 1.250 . S
C222 O214 1.258 1_554 S
O223 Mn208 2.162 . S
O223 C211 1.281 . S
O224 Mn208 2.297 . S
O224 C211 1.236 . S
N225 Mn209 2.282 . S
N225 C226 1.328 . S
N225 C230 1.318 . S
C226 N225 1.328 . S
C226 C227 1.457 . S
C226 H231 0.929 . S
C227 C226 1.457 . S
C227 C228 1.291 . S
C227 H240 0.931 . S
C228 C227 1.291 . S
C228 C229 1.373 . S
C228 H241 0.929 . S
C229 C228 1.373 . S
C229 C230 1.396 . S
C229 C236 1.403 . S
C230 C220 1.476 . S
C230 N225 1.318 . S
C230 C229 1.396 . S
H231 C226 0.929 . S
O232 Mn208 2.385 . S
O232 C210 1.234 1_554 S
O233 Mn208 2.209 1_556 S
O233 Mn209 2.215 . S
O233 C210 1.283 . S
O234 Mn208 2.094 . S
O234 C212 1.240 . S
O235 Mn209 2.117 1_554 S
O235 C212 1.264 . S
C236 C229 1.403 . S
C236 C237 1.399 . S
C236 H242 0.929 . S
C237 C217 1.449 . S
C237 C236 1.399 . S
C237 H243 0.930 . S
H238 C218 0.931 . S
H239 C219 0.930 . S
H240 C227 0.931 . S
H241 C228 0.929 . S
H242 C236 0.929 . S
H243 C237 0.930 . S
Mn244 O249 2.095 . S
Mn244 O259 2.162 . S
Mn244 O260 2.297 . S
Mn244 O268 2.385 . S
Mn244 O269 2.209 . S
Mn244 O270 2.094 . S
Mn245 O250 2.121 . S
Mn245 N252 2.257 . S
Mn245 N261 2.282 . S
Mn245 O269 2.215 . S
Mn245 O271 2.117 . S
C246 O268 1.234 . S
C246 O269 1.283 . S
C247 O259 1.281 . S
C247 O260 1.236 . S
C248 O270 1.240 . S
C248 O271 1.264 . S
O249 Mn244 2.095 . S
O249 C258 1.250 . S
O250 Mn245 2.121 . S
O250 C258 1.258 . S
C251 N252 1.326 . S
C251 C255 1.460 . S
C251 H257 0.929 . S
N252 Mn245 2.257 . S
N252 C251 1.326 . S
N252 C256 1.362 . S
C253 C254 1.258 . S
C253 C256 1.431 . S
C253 C273 1.449 . S
C254 C253 1.258 . S
C254 C255 1.477 . S
C254 H274 0.931 . S
C255 C251 1.460 . S
C255 C254 1.477 . S
C255 H275 0.930 . S
C256 N252 1.362 . S
C256 C253 1.431 . S
C256 C266 1.476 . S
H257 C251 0.929 . S
C258 O249 1.250 . S
C258 O250 1.258 . S
O259 Mn244 2.162 . S
O259 C247 1.281 . S
O260 Mn244 2.297 . S
O260 C247 1.236 . S
N261 Mn245 2.282 . S
N261 C262 1.328 . S
N261 C266 1.318 . S
C262 N261 1.328 . S
C262 C263 1.457 . S
C262 H267 0.929 . S
C263 C262 1.457 . S
C263 C264 1.291 . S
C263 H276 0.931 . S
C264 C263 1.291 . S
C264 C265 1.373 . S
C264 H277 0.929 . S
C265 C264 1.373 . S
C265 C266 1.396 . S
C265 C272 1.403 . S
C266 C256 1.476 . S
C266 N261 1.318 . S
C266 C265 1.396 . S
H267 C262 0.929 . S
O268 Mn244 2.385 . S
O268 C246 1.234 . S
O269 Mn244 2.209 . S
O269 Mn245 2.215 . S
O269 C246 1.283 . S
O270 Mn244 2.094 . S
O270 C248 1.240 . S
O271 Mn245 2.117 . S
O271 C248 1.264 . S
C272 C265 1.403 . S
C272 C273 1.399 . S
C272 H278 0.929 . S
C273 C253 1.449 . S
C273 C272 1.399 . S
C273 H279 0.930 . S
H274 C254 0.931 . S
H275 C255 0.930 . S
H276 C263 0.931 . S
H277 C264 0.929 . S
H278 C272 0.929 . S
H279 C273 0.930 . S
Mn280 O285 2.115 . S
Mn280 O295 2.162 . S
Mn280 O296 2.297 1_554 S
Mn280 O304 2.385 . S
Mn280 O305 2.209 1_554 S
Mn280 O306 2.094 . S
Mn281 O286 2.121 . S
Mn281 N288 2.257 . S
Mn281 N297 2.282 1_556 S
Mn281 O305 2.215 . S
Mn281 O307 2.117 1_556 S
C282 O304 1.234 . S
C282 O305 1.283 1_554 S
C283 O295 1.281 . S
C283 O296 1.236 1_554 S
C284 O306 1.240 . S
C284 O307 1.264 . S
O285 Mn280 2.115 . S
O285 C294 1.220 1_554 S
O286 Mn281 2.121 . S
O286 C294 1.258 . S
C287 N288 1.326 . S
C287 C291 1.460 . S
C287 H293 0.929 . S
N288 Mn281 2.257 . S
N288 C287 1.326 . S
N288 C292 1.362 . S
C289 C290 1.258 . S
C289 C292 1.431 . S
C289 C309 1.449 . S
C290 C289 1.258 . S
C290 C291 1.477 . S
C290 H310 0.931 . S
C291 C287 1.460 . S
C291 C290 1.477 . S
C291 H311 0.930 . S
C292 N288 1.362 . S
C292 C289 1.431 . S
C292 C302 1.476 . S
H293 C287 0.929 . S
C294 O285 1.220 1_556 S
C294 O286 1.258 . S
O295 Mn280 2.162 . S
O295 C283 1.281 . S
O296 Mn280 2.297 1_556 S
O296 C283 1.236 1_556 S
N297 Mn281 2.282 1_554 S
N297 C298 1.328 . S
N297 C302 1.318 1_554 S
C298 N297 1.328 . S
C298 C299 1.457 . S
C298 H303 0.929 . S
C299 C298 1.457 . S
C299 C300 1.291 . S
C299 H312 0.931 . S
C300 C299 1.291 . S
C300 C301 1.373 1_554 S
C300 H313 0.929 . S
C301 C300 1.373 1_556 S
C301 C302 1.396 . S
C301 C308 1.403 . S
C302 C292 1.476 . S
C302 N297 1.318 1_556 S
C302 C301 1.396 . S
H303 C298 0.929 . S
O304 Mn280 2.385 . S
O304 C282 1.234 . S
O305 Mn280 2.209 1_556 S
O305 Mn281 2.215 . S
O305 C282 1.283 1_556 S
O306 Mn280 2.094 . S
O306 C284 1.240 . S
O307 Mn281 2.117 1_554 S
O307 C284 1.264 . S
C308 C301 1.403 . S
C308 C309 1.399 . S
C308 H314 0.929 . S
C309 C289 1.449 . S
C309 C308 1.399 . S
C309 H315 0.930 . S
H310 C290 0.931 . S
H311 C291 0.930 . S
H312 C299 0.931 . S
H313 C300 0.929 . S
H314 C308 0.929 . S
H315 C309 0.930 . S
Mn316 O321 2.095 . S
Mn316 O331 2.162 . S
Mn316 O332 2.297 . S
Mn316 O340 2.385 1_545 S
Mn316 O341 2.209 1_545 S
Mn316 O342 2.094 . S
Mn317 O322 2.121 . S
Mn317 N324 2.257 . S
Mn317 N333 2.282 . S
Mn317 O341 2.215 . S
Mn317 O343 2.117 . S
C318 O340 1.234 . S
C318 O341 1.283 . S
C319 O331 1.281 . S
C319 O332 1.236 . S
C320 O342 1.240 . S
C320 O343 1.264 1_545 S
O321 Mn316 2.095 . S
O321 C330 1.250 . S
O322 Mn317 2.121 . S
O322 C330 1.258 1_565 S
C323 N324 1.326 . S
C323 C327 1.460 . S
C323 H329 0.929 . S
N324 Mn317 2.257 . S
N324 C323 1.326 . S
N324 C328 1.362 . S
C325 C326 1.258 . S
C325 C328 1.431 . S
C325 C345 1.449 . S
C326 C325 1.258 . S
C326 C327 1.477 . S
C326 H346 0.931 . S
C327 C323 1.460 . S
C327 C326 1.477 . S
C327 H347 0.930 . S
C328 N324 1.362 . S
C328 C325 1.431 . S
C328 C338 1.476 . S
H329 C323 0.929 . S
C330 O321 1.250 . S
C330 O322 1.258 1_545 S
O331 Mn316 2.162 . S
O331 C319 1.281 . S
O332 Mn316 2.297 . S
O332 C319 1.236 . S
N333 Mn317 2.282 . S
N333 C334 1.328 . S
N333 C338 1.318 . S
C334 N333 1.328 . S
C334 C335 1.457 . S
C334 H339 0.929 . S
C335 C334 1.457 . S
C335 C336 1.291 . S
C335 H348 0.931 . S
C336 C335 1.291 . S
C336 C337 1.373 . S
C336 H349 0.929 . S
C337 C336 1.373 . S
C337 C338 1.396 . S
C337 C344 1.403 . S
C338 C328 1.476 . S
C338 N333 1.318 . S
C338 C337 1.396 . S
H339 C334 0.929 . S
O340 Mn316 2.385 1_565 S
O340 C318 1.234 . S
O341 Mn316 2.209 1_565 S
O341 Mn317 2.215 . S
O341 C318 1.283 . S
O342 Mn316 2.094 . S
O342 C320 1.240 . S
O343 Mn317 2.117 . S
O343 C320 1.264 1_565 S
C344 C337 1.403 . S
C344 C345 1.399 . S
C344 H350 0.929 . S
C345 C325 1.449 . S
C345 C344 1.399 . S
C345 H351 0.930 . S
H346 C326 0.931 . S
H347 C327 0.930 . S
H348 C335 0.931 . S
H349 C336 0.929 . S
H350 C344 0.929 . S
H351 C345 0.930 . S
Mn352 O357 2.095 . S
Mn352 O367 2.162 . S
Mn352 O368 2.297 . S
Mn352 O376 2.385 . S
Mn352 O377 2.209 . S
Mn352 O378 2.094 . S
Mn353 O358 2.121 . S
Mn353 N360 2.257 . S
Mn353 N369 2.282 . S
Mn353 O377 2.215 . S
Mn353 O379 2.117 . S
C354 O376 1.234 . S
C354 O377 1.283 . S
C355 O367 1.281 . S
C355 O368 1.236 . S
C356 O378 1.240 . S
C356 O379 1.264 . S
O357 Mn352 2.095 . S
O357 C366 1.250 . S
O358 Mn353 2.121 . S
O358 C366 1.258 . S
C359 N360 1.326 . S
C359 C363 1.460 . S
C359 H365 0.929 . S
N360 Mn353 2.257 . S
N360 C359 1.326 . S
N360 C364 1.362 . S
C361 C362 1.258 . S
C361 C364 1.431 . S
C361 C381 1.449 . S
C362 C361 1.258 . S
C362 C363 1.477 . S
C362 H382 0.931 . S
C363 C359 1.460 . S
C363 C362 1.477 . S
C363 H383 0.930 . S
C364 N360 1.362 . S
C364 C361 1.431 . S
C364 C374 1.476 . S
H365 C359 0.929 . S
C366 O357 1.250 . S
C366 O358 1.258 . S
O367 Mn352 2.162 . S
O367 C355 1.281 . S
O368 Mn352 2.297 . S
O368 C355 1.236 . S
N369 Mn353 2.282 . S
N369 C370 1.328 . S
N369 C374 1.318 . S
C370 N369 1.328 . S
C370 C371 1.457 . S
C370 H375 0.929 . S
C371 C370 1.457 . S
C371 C372 1.291 . S
C371 H384 0.931 . S
C372 C371 1.291 . S
C372 C373 1.373 . S
C372 H385 0.929 . S
C373 C372 1.373 . S
C373 C374 1.396 . S
C373 C380 1.403 . S
C374 C364 1.476 . S
C374 N369 1.318 . S
C374 C373 1.396 . S
H375 C370 0.929 . S
O376 Mn352 2.385 . S
O376 C354 1.234 . S
O377 Mn352 2.209 . S
O377 Mn353 2.215 . S
O377 C354 1.283 . S
O378 Mn352 2.094 . S
O378 C356 1.240 . S
O379 Mn353 2.117 . S
O379 C356 1.264 . S
C380 C373 1.403 . S
C380 C381 1.399 . S
C380 H386 0.929 . S
C381 C361 1.449 . S
C381 C380 1.399 . S
C381 H387 0.930 . S
H382 C362 0.931 . S
H383 C363 0.930 . S
H384 C371 0.931 . S
H385 C372 0.929 . S
H386 C380 0.929 . S
H387 C381 0.930 . S
Mn388 O393 2.095 . S
Mn388 O403 2.162 . S
Mn388 O404 2.297 . S
Mn388 O412 2.385 . S
Mn388 O413 2.209 . S
Mn388 O414 2.094 . S
Mn389 O394 2.121 . S
Mn389 N396 2.257 . S
Mn389 N405 2.282 . S
Mn389 O413 2.215 . S
Mn389 O415 2.117 . S
C390 O412 1.234 . S
C390 O413 1.283 . S
C391 O403 1.281 . S
C391 O404 1.236 . S
C392 O414 1.240 . S
C392 O415 1.264 . S
O393 Mn388 2.095 . S
O393 C402 1.250 . S
O394 Mn389 2.121 . S
O394 C402 1.258 . S
C395 N396 1.326 . S
C395 C399 1.460 . S
C395 H401 0.929 . S
N396 Mn389 2.257 . S
N396 C395 1.326 . S
N396 C400 1.362 . S
C397 C398 1.258 . S
C397 C400 1.431 . S
C397 C417 1.449 . S
C398 C397 1.258 . S
C398 C399 1.477 . S
C398 H418 0.931 . S
C399 C395 1.460 . S
C399 C398 1.477 . S
C399 H419 0.930 . S
C400 N396 1.362 . S
C400 C397 1.431 . S
C400 C410 1.476 . S
H401 C395 0.929 . S
C402 O393 1.250 . S
C402 O394 1.258 . S
O403 Mn388 2.162 . S
O403 C391 1.281 . S
O404 Mn388 2.297 . S
O404 C391 1.236 . S
N405 Mn389 2.282 . S
N405 C406 1.328 . S
N405 C410 1.318 . S
C406 N405 1.328 . S
C406 C407 1.457 . S
C406 H411 0.929 . S
C407 C406 1.457 . S
C407 C408 1.291 . S
C407 H420 0.931 . S
C408 C407 1.291 . S
C408 C409 1.373 . S
C408 H421 0.929 . S
C409 C408 1.373 . S
C409 C410 1.396 . S
C409 C416 1.403 . S
C410 C400 1.476 . S
C410 N405 1.318 . S
C410 C409 1.396 . S
H411 C406 0.929 . S
O412 Mn388 2.385 . S
O412 C390 1.234 . S
O413 Mn388 2.209 . S
O413 Mn389 2.215 . S
O413 C390 1.283 . S
O414 Mn388 2.094 . S
O414 C392 1.240 . S
O415 Mn389 2.117 . S
O415 C392 1.264 . S
C416 C409 1.403 . S
C416 C417 1.399 . S
C416 H422 0.929 . S
C417 C397 1.449 . S
C417 C416 1.399 . S
C417 H423 0.930 . S
H418 C398 0.931 . S
H419 C399 0.930 . S
H420 C407 0.931 . S
H421 C408 0.929 . S
H422 C416 0.929 . S
H423 C417 0.930 . S
Mn424 O429 2.095 . S
Mn424 O439 2.162 . S
Mn424 O440 2.297 . S
Mn424 O448 2.385 . S
Mn424 O449 2.209 . S
Mn424 O450 2.094 . S
Mn425 O430 2.121 . S
Mn425 N432 2.257 . S
Mn425 N441 2.282 . S
Mn425 O449 2.215 . S
Mn425 O451 2.117 . S
C426 O448 1.234 . S
C426 O449 1.283 . S
C427 O439 1.281 . S
C427 O440 1.236 . S
C428 O450 1.240 . S
C428 O451 1.264 . S
O429 Mn424 2.095 . S
O429 C438 1.250 . S
O430 Mn425 2.121 . S
O430 C438 1.258 . S
C431 N432 1.326 . S
C431 C435 1.460 . S
C431 H437 0.929 . S
N432 Mn425 2.257 . S
N432 C431 1.326 . S
N432 C436 1.362 . S
C433 C434 1.258 . S
C433 C436 1.431 . S
C433 C453 1.449 . S
C434 C433 1.258 . S
C434 C435 1.477 . S
C434 H454 0.931 . S
C435 C431 1.460 . S
C435 C434 1.477 . S
C435 H455 0.930 . S
C436 N432 1.362 . S
C436 C433 1.431 . S
C436 C446 1.476 . S
H437 C431 0.929 . S
C438 O429 1.250 . S
C438 O430 1.258 . S
O439 Mn424 2.162 . S
O439 C427 1.281 . S
O440 Mn424 2.297 . S
O440 C427 1.236 . S
N441 Mn425 2.282 . S
N441 C442 1.328 . S
N441 C446 1.318 . S
C442 N441 1.328 . S
C442 C443 1.457 . S
C442 H447 0.929 . S
C443 C442 1.457 . S
C443 C444 1.291 . S
C443 H456 0.931 . S
C444 C443 1.291 . S
C444 C445 1.373 . S
C444 H457 0.929 . S
C445 C444 1.373 . S
C445 C446 1.396 . S
C445 C452 1.403 . S
C446 C436 1.476 . S
C446 N441 1.318 . S
C446 C445 1.396 . S
H447 C442 0.929 . S
O448 Mn424 2.385 . S
O448 C426 1.234 . S
O449 Mn424 2.209 . S
O449 Mn425 2.215 . S
O449 C426 1.283 . S
O450 Mn424 2.094 . S
O450 C428 1.240 . S
O451 Mn425 2.117 . S
O451 C428 1.264 . S
C452 C445 1.403 . S
C452 C453 1.399 . S
C452 H458 0.929 . S
C453 C433 1.449 . S
C453 C452 1.399 . S
C453 H459 0.930 . S
H454 C434 0.931 . S
H455 C435 0.930 . S
H456 C443 0.931 . S
H457 C444 0.929 . S
H458 C452 0.929 . S
H459 C453 0.930 . S
Mn460 O465 2.095 . S
Mn460 O475 2.162 1_545 S
Mn460 O476 2.297 . S
Mn460 O484 2.385 . S
Mn460 O485 2.209 . S
Mn460 O486 2.095 1_545 S
Mn461 O466 2.121 . S
Mn461 N468 2.257 . S
Mn461 N477 2.282 . S
Mn461 O485 2.215 . S
Mn461 O487 2.117 . S
C462 O484 1.234 . S
C462 O485 1.283 . S
C463 O475 1.281 . S
C463 O476 1.236 1_565 S
C464 O486 1.244 1_545 S
C464 O487 1.264 . S
O465 Mn460 2.095 . S
O465 C474 1.250 . S
O466 Mn461 2.121 . S
O466 C474 1.258 . S
C467 N468 1.326 . S
C467 C471 1.460 . S
C467 H473 0.929 . S
N468 Mn461 2.257 . S
N468 C467 1.326 . S
N468 C472 1.362 . S
C469 C470 1.258 . S
C469 C472 1.431 . S
C469 C489 1.449 . S
C470 C469 1.258 . S
C470 C471 1.477 . S
C470 H490 0.931 . S
C471 C467 1.460 . S
C471 C470 1.477 . S
C471 H491 0.930 . S
C472 N468 1.362 . S
C472 C469 1.431 . S
C472 C482 1.476 . S
H473 C467 0.929 . S
C474 O465 1.250 . S
C474 O466 1.258 . S
O475 Mn460 2.162 1_565 S
O475 C463 1.281 . S
O476 Mn460 2.297 . S
O476 C463 1.236 1_545 S
N477 Mn461 2.282 . S
N477 C478 1.328 . S
N477 C482 1.318 . S
C478 N477 1.328 . S
C478 C479 1.457 . S
C478 H483 0.929 . S
C479 C478 1.457 . S
C479 C480 1.291 . S
C479 H492 0.931 . S
C480 C479 1.291 . S
C480 C481 1.373 . S
C480 H493 0.929 . S
C481 C480 1.373 . S
C481 C482 1.396 . S
C481 C488 1.403 . S
C482 C472 1.476 . S
C482 N477 1.318 . S
C482 C481 1.396 . S
H483 C478 0.929 . S
O484 Mn460 2.385 . S
O484 C462 1.234 . S
O485 Mn460 2.209 . S
O485 Mn461 2.215 . S
O485 C462 1.283 . S
O486 Mn460 2.095 1_565 S
O486 C464 1.244 1_565 S
O487 Mn461 2.117 . S
O487 C464 1.264 . S
C488 C481 1.403 . S
C488 C489 1.399 . S
C488 H494 0.929 . S
C489 C469 1.449 . S
C489 C488 1.399 . S
C489 H495 0.930 . S
H490 C470 0.931 . S
H491 C471 0.930 . S
H492 C479 0.931 . S
H493 C480 0.929 . S
H494 C488 0.929 . S
H495 C489 0.930 . S
Mn496 O501 2.095 . S
Mn496 O511 2.162 . S
Mn496 O512 2.297 . S
Mn496 O520 2.383 . S
Mn496 O521 2.209 1_455 S
Mn496 O522 2.094 . S
Mn497 O502 2.121 . S
Mn497 N504 2.257 . S
Mn497 N513 2.282 . S
Mn497 O521 2.215 . S
Mn497 O523 2.117 . S
C498 O520 1.238 1_655 S
C498 O521 1.283 . S
C499 O511 1.281 . S
C499 O512 1.236 . S
C500 O522 1.240 . S
C500 O523 1.264 1_455 S
O501 Mn496 2.095 . S
O501 C510 1.250 . S
O502 Mn497 2.121 . S
O502 C510 1.258 1_655 S
C503 N504 1.326 . S
C503 C507 1.460 . S
C503 H509 0.929 . S
N504 Mn497 2.257 . S
N504 C503 1.326 . S
N504 C508 1.362 . S
C505 C506 1.258 . S
C505 C508 1.431 . S
C505 C525 1.449 . S
C506 C505 1.258 . S
C506 C507 1.477 . S
C506 H526 0.931 . S
C507 C503 1.460 . S
C507 C506 1.477 . S
C507 H527 0.930 . S
C508 N504 1.362 . S
C508 C505 1.431 . S
C508 C518 1.476 . S
H509 C503 0.929 . S
C510 O501 1.250 . S
C510 O502 1.258 1_455 S
O511 Mn496 2.162 . S
O511 C499 1.281 . S
O512 Mn496 2.297 . S
O512 C499 1.236 . S
N513 Mn497 2.282 . S
N513 C514 1.328 . S
N513 C518 1.318 . S
C514 N513 1.328 . S
C514 C515 1.457 . S
C514 H519 0.929 . S
C515 C514 1.457 . S
C515 C516 1.291 . S
C515 H528 0.931 . S
C516 C515 1.291 . S
C516 C517 1.373 . S
C516 H529 0.929 . S
C517 C516 1.373 . S
C517 C518 1.396 . S
C517 C524 1.403 . S
C518 C508 1.476 . S
C518 N513 1.318 . S
C518 C517 1.396 . S
H519 C514 0.929 . S
O520 Mn496 2.383 . S
O520 C498 1.238 1_455 S
O521 Mn496 2.209 1_655 S
O521 Mn497 2.215 . S
O521 C498 1.283 . S
O522 Mn496 2.094 . S
O522 C500 1.240 . S
O523 Mn497 2.117 . S
O523 C500 1.264 1_655 S
C524 C517 1.403 . S
C524 C525 1.399 . S
C524 H530 0.929 . S
C525 C505 1.449 . S
C525 C524 1.399 . S
C525 H531 0.930 . S
H526 C506 0.931 . S
H527 C507 0.930 . S
H528 C515 0.931 . S
H529 C516 0.929 . S
H530 C524 0.929 . S
H531 C525 0.930 . S
Mn532 O537 2.095 . S
Mn532 O547 2.162 . S
Mn532 O548 2.297 . S
Mn532 O556 2.385 . S
Mn532 O557 2.209 . S
Mn532 O558 2.094 . S
Mn533 O538 2.121 . S
Mn533 N540 2.257 . S
Mn533 N549 2.282 . S
Mn533 O557 2.215 . S
Mn533 O559 2.117 . S
C534 O556 1.234 . S
C534 O557 1.283 . S
C535 O547 1.281 . S
C535 O548 1.236 . S
C536 O558 1.240 . S
C536 O559 1.264 . S
O537 Mn532 2.095 . S
O537 C546 1.250 . S
O538 Mn533 2.121 . S
O538 C546 1.258 . S
C539 N540 1.326 . S
C539 C543 1.460 . S
C539 H545 0.929 . S
N540 Mn533 2.257 . S
N540 C539 1.326 . S
N540 C544 1.362 . S
C541 C542 1.258 . S
C541 C544 1.431 . S
C541 C561 1.449 . S
C542 C541 1.258 . S
C542 C543 1.477 . S
C542 H562 0.931 . S
C543 C539 1.460 . S
C543 C542 1.477 . S
C543 H563 0.930 . S
C544 N540 1.362 . S
C544 C541 1.431 . S
C544 C554 1.476 . S
H545 C539 0.929 . S
C546 O537 1.250 . S
C546 O538 1.258 . S
O547 Mn532 2.162 . S
O547 C535 1.281 . S
O548 Mn532 2.297 . S
O548 C535 1.236 . S
N549 Mn533 2.282 . S
N549 C550 1.328 . S
N549 C554 1.318 . S
C550 N549 1.328 . S
C550 C551 1.457 . S
C550 H555 0.929 . S
C551 C550 1.457 . S
C551 C552 1.291 . S
C551 H564 0.931 . S
C552 C551 1.291 . S
C552 C553 1.373 . S
C552 H565 0.929 . S
C553 C552 1.373 . S
C553 C554 1.396 . S
C553 C560 1.403 . S
C554 C544 1.476 . S
C554 N549 1.318 . S
C554 C553 1.396 . S
H555 C550 0.929 . S
O556 Mn532 2.385 . S
O556 C534 1.234 . S
O557 Mn532 2.209 . S
O557 Mn533 2.215 . S
O557 C534 1.283 . S
O558 Mn532 2.094 . S
O558 C536 1.240 . S
O559 Mn533 2.117 . S
O559 C536 1.264 . S
C560 C553 1.403 . S
C560 C561 1.399 . S
C560 H566 0.929 . S
C561 C541 1.449 . S
C561 C560 1.399 . S
C561 H567 0.930 . S
H562 C542 0.931 . S
H563 C543 0.930 . S
H564 C551 0.931 . S
H565 C552 0.929 . S
H566 C560 0.929 . S
H567 C561 0.930 . S
Mn568 O573 2.095 . S
Mn568 O583 2.162 . S
Mn568 O584 2.297 . S
Mn568 O592 2.385 . S
Mn568 O593 2.209 . S
Mn568 O594 2.094 . S
Mn569 O574 2.121 1_455 S
Mn569 N576 2.257 1_455 S
Mn569 N585 2.282 . S
Mn569 O593 2.215 . S
Mn569 O595 2.117 . S
C570 O592 1.234 . S
C570 O593 1.283 . S
C571 O583 1.281 . S
C571 O584 1.236 . S
C572 O594 1.240 . S
C572 O595 1.264 . S
O573 Mn568 2.095 . S
O573 C582 1.250 1_455 S
O574 Mn569 2.121 1_655 S
O574 C582 1.258 . S
C575 N576 1.326 . S
C575 C579 1.460 . S
C575 H581 0.929 . S
N576 Mn569 2.257 1_655 S
N576 C575 1.326 . S
N576 C580 1.362 . S
C577 C578 1.258 . S
C577 C580 1.431 . S
C577 C597 1.449 . S
C578 C577 1.258 . S
C578 C579 1.477 . S
C578 H598 0.931 . S
C579 C575 1.460 . S
C579 C578 1.477 . S
C579 H599 0.930 . S
C580 N576 1.362 . S
C580 C577 1.431 . S
C580 C590 1.476 1_655 S
H581 C575 0.929 . S
C582 O573 1.250 1_655 S
C582 O574 1.258 . S
O583 Mn568 2.162 . S
O583 C571 1.281 . S
O584 Mn568 2.297 . S
O584 C571 1.236 . S
N585 Mn569 2.282 . S
N585 C586 1.328 . S
N585 C590 1.318 . S
C586 N585 1.328 . S
C586 C587 1.457 . S
C586 H591 0.929 . S
C587 C586 1.457 . S
C587 C588 1.291 . S
C587 H600 0.931 . S
C588 C587 1.291 . S
C588 C589 1.373 . S
C588 H601 0.929 . S
C589 C588 1.373 . S
C589 C590 1.396 . S
C589 C596 1.403 1_455 S
C590 C580 1.476 1_455 S
C590 N585 1.318 . S
C590 C589 1.396 . S
H591 C586 0.929 . S
O592 Mn568 2.385 . S
O592 C570 1.234 . S
O593 Mn568 2.209 . S
O593 Mn569 2.215 . S
O593 C570 1.283 . S
O594 Mn568 2.094 . S
O594 C572 1.240 . S
O595 Mn569 2.117 . S
O595 C572 1.264 . S
C596 C589 1.403 1_655 S
C596 C597 1.399 . S
C596 H602 0.929 . S
C597 C577 1.449 . S
C597 C596 1.399 . S
C597 H603 0.930 . S
H598 C578 0.931 . S
H599 C579 0.930 . S
H600 C587 0.931 . S
H601 C588 0.929 . S
H602 C596 0.929 . S
H603 C597 0.930 . S
Mn604 O609 2.095 . S
Mn604 O619 2.162 . S
Mn604 O620 2.297 . S
Mn604 O628 2.385 . S
Mn604 O629 2.209 . S
Mn604 O630 2.094 . S
Mn605 O610 2.121 . S
Mn605 N612 2.257 . S
Mn605 N621 2.282 . S
Mn605 O629 2.215 . S
Mn605 O631 2.117 . S
C606 O628 1.234 . S
C606 O629 1.283 . S
C607 O619 1.281 . S
C607 O620 1.236 . S
C608 O630 1.240 . S
C608 O631 1.264 . S
O609 Mn604 2.095 . S
O609 C618 1.250 . S
O610 Mn605 2.121 . S
O610 C618 1.258 . S
C611 N612 1.326 . S
C611 C615 1.460 . S
C611 H617 0.929 . S
N612 Mn605 2.257 . S
N612 C611 1.326 . S
N612 C616 1.362 . S
C613 C614 1.258 . S
C613 C616 1.431 . S
C613 C633 1.449 . S
C614 C613 1.258 . S
C614 C615 1.477 . S
C614 H634 0.931 . S
C615 C611 1.460 . S
C615 C614 1.477 . S
C615 H635 0.930 . S
C616 N612 1.362 . S
C616 C613 1.431 . S
C616 C626 1.476 . S
H617 C611 0.929 . S
C618 O609 1.250 . S
C618 O610 1.258 . S
O619 Mn604 2.162 . S
O619 C607 1.281 . S
O620 Mn604 2.297 . S
O620 C607 1.236 . S
N621 Mn605 2.282 . S
N621 C622 1.328 . S
N621 C626 1.318 . S
C622 N621 1.328 . S
C622 C623 1.457 . S
C622 H627 0.929 . S
C623 C622 1.457 . S
C623 C624 1.291 . S
C623 H636 0.931 . S
C624 C623 1.291 . S
C624 C625 1.373 . S
C624 H637 0.929 . S
C625 C624 1.373 . S
C625 C626 1.396 . S
C625 C632 1.403 . S
C626 C616 1.476 . S
C626 N621 1.318 . S
C626 C625 1.396 . S
H627 C622 0.929 . S
O628 Mn604 2.385 . S
O628 C606 1.234 . S
O629 Mn604 2.209 . S
O629 Mn605 2.215 . S
O629 C606 1.283 . S
O630 Mn604 2.094 . S
O630 C608 1.240 . S
O631 Mn605 2.117 . S
O631 C608 1.264 . S
C632 C625 1.403 . S
C632 C633 1.399 . S
C632 H638 0.929 . S
C633 C613 1.449 . S
C633 C632 1.399 . S
C633 H639 0.930 . S
H634 C614 0.931 . S
H635 C615 0.930 . S
H636 C623 0.931 . S
H637 C624 0.929 . S
H638 C632 0.929 . S
H639 C633 0.930 . S
C640 C641 1.349 . S
C640 C642 1.327 . S
C640 H665 0.950 . S
C641 C640 1.349 . S
C641 C657 1.349 . S
C642 C640 1.327 . S
C642 C661 1.429 . S
C642 H666 0.950 . S
C643 C660 1.574 . S
C643 C662 1.368 . S
C643 H667 0.949 . S
H644 C648 0.949 . S
C645 C646 1.349 . S
C645 C647 1.327 . S
C645 H668 0.950 . S
C646 C645 1.349 . S
C646 C658 1.349 . S
C647 C645 1.327 . S
C647 C663 1.429 . S
C647 H669 0.950 . S
C648 H644 0.949 . S
C648 C656 1.574 . S
C648 C664 1.368 . S
H649 C657 0.950 . S
H650 C655 0.950 . S
H651 C656 0.949 . S
H652 C658 0.950 . S
H653 C659 0.950 . S
H654 C660 0.949 . S
C655 H650 0.950 . S
C655 C657 1.327 . S
C655 C661 1.429 . S
C656 C648 1.574 . S
C656 H651 0.949 . S
C656 C662 1.368 . S
C657 C641 1.349 . S
C657 H649 0.950 . S
C657 C655 1.327 . S
C658 C646 1.349 . S
C658 H652 0.950 . S
C658 C659 1.327 . S
C659 H653 0.950 . S
C659 C658 1.327 . S
C659 C663 1.429 . S
C660 C643 1.574 . S
C660 H654 0.949 . S
C660 C664 1.368 . S
C661 C642 1.429 . S
C661 C655 1.429 . S
C661 C662 1.523 . S
C662 C643 1.368 . S
C662 C656 1.368 . S
C662 C661 1.523 . S
C663 C647 1.429 . S
C663 C659 1.429 . S
C663 C664 1.523 . S
C664 C648 1.368 . S
C664 C660 1.368 . S
C664 C663 1.523 . S
H665 C640 0.950 . S
H666 C642 0.950 . S
H667 C643 0.949 . S
H668 C645 0.950 . S
H669 C647 0.950 . S
C670 C671 1.349 1_455 S
C670 C672 1.327 . S
C670 H695 0.950 . S
C671 C670 1.349 1_655 S
C671 C687 1.349 . S
C672 C670 1.327 . S
C672 C691 1.429 . S
C672 H696 0.950 . S
C673 C690 1.574 . S
C673 C692 1.368 . S
C673 H697 0.949 . S
H674 C678 0.949 . S
C675 C676 1.349 . S
C675 C677 1.327 . S
C675 H698 0.950 . S
C676 C675 1.349 . S
C676 C688 1.349 . S
C677 C675 1.327 . S
C677 C693 1.429 . S
C677 H699 0.950 . S
C678 H674 0.949 . S
C678 C686 1.574 . S
C678 C694 1.368 . S
H679 C687 0.950 . S
H680 C685 0.950 . S
H681 C686 0.949 . S
H682 C688 0.950 . S
H683 C689 0.950 . S
H684 C690 0.949 . S
C685 H680 0.950 . S
C685 C687 1.327 1_455 S
C685 C691 1.429 . S
C686 C678 1.574 . S
C686 H681 0.949 . S
C686 C692 1.368 . S
C687 C671 1.349 . S
C687 H679 0.950 . S
C687 C685 1.327 1_655 S
C688 C676 1.349 . S
C688 H682 0.950 . S
C688 C689 1.327 . S
C689 H683 0.950 . S
C689 C688 1.327 . S
C689 C693 1.429 . S
C690 C673 1.574 . S
C690 H684 0.949 . S
C690 C694 1.368 . S
C691 C672 1.429 . S
C691 C685 1.429 . S
C691 C692 1.523 . S
C692 C673 1.368 . S
C692 C686 1.368 . S
C692 C691 1.523 . S
C693 C677 1.429 . S
C693 C689 1.429 . S
C693 C694 1.523 . S
C694 C678 1.368 . S
C694 C690 1.368 . S
C694 C693 1.523 . S
H695 C670 0.950 . S
H696 C672 0.950 . S
H697 C673 0.949 . S
H698 C675 0.950 . S
H699 C677 0.950 . S
C700 C701 1.349 . S
C700 C702 1.327 . S
C700 H725 0.950 . S
C701 C700 1.349 . S
C701 C717 1.349 . S
C702 C700 1.327 . S
C702 C721 1.429 . S
C702 H726 0.950 . S
C703 C720 1.574 . S
C703 C722 1.368 . S
C703 H727 0.949 . S
H704 C708 0.949 . S
C705 C706 1.349 . S
C705 C707 1.327 . S
C705 H728 0.950 . S
C706 C705 1.349 . S
C706 C718 1.349 . S
C707 C705 1.327 . S
C707 C723 1.429 . S
C707 H729 0.950 . S
C708 H704 0.949 . S
C708 C716 1.574 . S
C708 C724 1.368 . S
H709 C717 0.950 . S
H710 C715 0.950 . S
H711 C716 0.949 . S
H712 C718 0.950 . S
H713 C719 0.950 . S
H714 C720 0.949 . S
C715 H710 0.950 . S
C715 C717 1.327 . S
C715 C721 1.429 . S
C716 C708 1.574 . S
C716 H711 0.949 . S
C716 C722 1.368 . S
C717 C701 1.349 . S
C717 H709 0.950 . S
C717 C715 1.327 . S
C718 C706 1.349 . S
C718 H712 0.950 . S
C718 C719 1.327 . S
C719 H713 0.950 . S
C719 C718 1.327 . S
C719 C723 1.429 . S
C720 C703 1.574 . S
C720 H714 0.949 . S
C720 C724 1.368 . S
C721 C702 1.429 . S
C721 C715 1.429 . S
C721 C722 1.523 . S
C722 C703 1.368 . S
C722 C716 1.368 . S
C722 C721 1.523 . S
C723 C707 1.429 . S
C723 C719 1.429 . S
C723 C724 1.523 . S
C724 C708 1.368 . S
C724 C720 1.368 . S
C724 C723 1.523 . S
H725 C700 0.950 . S
H726 C702 0.950 . S
H727 C703 0.949 . S
H728 C705 0.950 . S
H729 C707 0.950 . S
C730 C731 1.349 . S
C730 C732 1.320 1_565 S
C730 H755 0.950 1_565 S
C731 C730 1.349 . S
C731 C747 1.349 1_455 S
C732 C730 1.320 1_545 S
C732 C751 1.424 1_445 S
C732 H756 0.962 . S
C733 C750 1.574 . S
C733 C752 1.368 . S
C733 H757 0.949 . S
H734 C738 0.949 . S
C735 C736 1.349 . S
C735 C737 1.327 . S
C735 H758 0.951 . S
C736 C735 1.349 . S
C736 C748 1.349 . S
C737 C735 1.327 . S
C737 C753 1.429 . S
C737 H759 0.950 1_545 S
C738 H734 0.949 . S
C738 C746 1.574 . S
C738 C754 1.368 . S
H739 C747 0.950 . S
H740 C745 0.950 . S
H741 C746 0.949 . S
H742 C748 0.950 . S
H743 C749 0.950 . S
H744 C750 0.949 . S
C745 H740 0.950 . S
C745 C747 1.327 . S
C745 C751 1.429 . S
C746 C738 1.574 . S
C746 H741 0.949 . S
C746 C752 1.368 1_545 S
C747 C731 1.349 1_655 S
C747 H739 0.950 . S
C747 C745 1.327 . S
C748 C736 1.349 . S
C748 H742 0.950 . S
C748 C749 1.327 . S
C749 H743 0.950 . S
C749 C748 1.327 . S
C749 C753 1.429 . S
C750 C733 1.574 . S
C750 H744 0.949 . S
C750 C754 1.368 1_565 S
C751 C732 1.424 1_665 S
C751 C745 1.429 . S
C751 C752 1.523 . S
C752 C733 1.368 . S
C752 C746 1.368 1_565 S
C752 C751 1.523 . S
C753 C737 1.429 . S
C753 C749 1.429 . S
C753 C754 1.523 . S
C754 C738 1.368 . S
C754 C750 1.368 1_545 S
C754 C753 1.523 . S
H755 C730 0.950 1_545 S
H756 C732 0.962 . S
H757 C733 0.949 . S
H758 C735 0.951 . S
H759 C737 0.950 1_565 S
C760 C761 1.349 . S
C760 C762 1.327 . S
C760 H785 0.950 . S
C761 C760 1.349 . S
C761 C777 1.349 . S
C762 C760 1.327 . S
C762 C781 1.429 . S
C762 H786 0.950 . S
C763 C780 1.574 . S
C763 C782 1.368 . S
C763 H787 0.949 . S
H764 C768 0.949 . S
C765 C766 1.349 . S
C765 C767 1.327 . S
C765 H788 0.950 . S
C766 C765 1.349 . S
C766 C778 1.349 . S
C767 C765 1.327 . S
C767 C783 1.429 . S
C767 H789 0.950 . S
C768 H764 0.949 . S
C768 C776 1.574 . S
C768 C784 1.368 . S
H769 C777 0.950 . S
H770 C775 0.950 . S
H771 C776 0.949 . S
H772 C778 0.950 . S
H773 C779 0.950 . S
H774 C780 0.949 . S
C775 H770 0.950 . S
C775 C777 1.327 . S
C775 C781 1.429 . S
C776 C768 1.574 . S
C776 H771 0.949 . S
C776 C782 1.368 . S
C777 C761 1.349 . S
C777 H769 0.950 . S
C777 C775 1.327 . S
C778 C766 1.349 . S
C778 H772 0.950 . S
C778 C779 1.327 . S
C779 H773 0.950 . S
C779 C778 1.327 . S
C779 C783 1.429 . S
C780 C763 1.574 . S
C780 H774 0.949 . S
C780 C784 1.368 . S
C781 C762 1.429 . S
C781 C775 1.429 . S
C781 C782 1.523 . S
C782 C763 1.368 . S
C782 C776 1.368 . S
C782 C781 1.523 . S
C783 C767 1.429 . S
C783 C779 1.429 . S
C783 C784 1.523 . S
C784 C768 1.368 . S
C784 C780 1.368 . S
C784 C783 1.523 . S
H785 C760 0.950 . S
H786 C762 0.950 . S
H787 C763 0.949 . S
H788 C765 0.950 . S
H789 C767 0.950 . S
C790 C791 1.349 . S
C790 C792 1.327 . S
C790 H815 0.950 . S
C791 C790 1.349 . S
C791 C807 1.349 . S
C792 C790 1.327 . S
C792 C811 1.429 . S
C792 H816 0.950 . S
C793 C810 1.574 . S
C793 C812 1.368 . S
C793 H817 0.949 . S
H794 C798 0.949 . S
C795 C796 1.349 . S
C795 C797 1.327 . S
C795 H818 0.950 . S
C796 C795 1.349 . S
C796 C808 1.349 . S
C797 C795 1.327 . S
C797 C813 1.429 . S
C797 H819 0.950 . S
C798 H794 0.949 . S
C798 C806 1.574 . S
C798 C814 1.368 . S
H799 C807 0.950 . S
H800 C805 0.950 . S
H801 C806 0.949 . S
H802 C808 0.950 . S
H803 C809 0.950 . S
H804 C810 0.949 . S
C805 H800 0.950 . S
C805 C807 1.327 . S
C805 C811 1.429 . S
C806 C798 1.574 . S
C806 H801 0.949 . S
C806 C812 1.368 . S
C807 C791 1.349 . S
C807 H799 0.950 . S
C807 C805 1.327 . S
C808 C796 1.349 . S
C808 H802 0.950 . S
C808 C809 1.327 . S
C809 H803 0.950 . S
C809 C808 1.327 . S
C809 C813 1.429 . S
C810 C793 1.574 . S
C810 H804 0.949 . S
C810 C814 1.368 . S
C811 C792 1.429 . S
C811 C805 1.429 . S
C811 C812 1.523 . S
C812 C793 1.368 . S
C812 C806 1.368 . S
C812 C811 1.523 . S
C813 C797 1.429 . S
C813 C809 1.429 . S
C813 C814 1.523 . S
C814 C798 1.368 . S
C814 C810 1.368 . S
C814 C813 1.523 . S
H815 C790 0.950 . S
H816 C792 0.950 . S
H817 C793 0.949 . S
H818 C795 0.950 . S
H819 C797 0.950 . S
C820 C821 1.349 . S
C820 C822 1.327 . S
C820 H845 0.950 . S
C821 C820 1.349 . S
C821 C837 1.349 . S
C822 C820 1.327 . S
C822 C841 1.429 . S
C822 H846 0.950 . S
C823 C840 1.574 . S
C823 C842 1.368 . S
C823 H847 0.949 . S
H824 C828 0.949 . S
C825 C826 1.349 . S
C825 C827 1.327 . S
C825 H848 0.950 . S
C826 C825 1.349 . S
C826 C838 1.349 . S
C827 C825 1.327 . S
C827 C843 1.429 . S
C827 H849 0.950 . S
C828 H824 0.949 . S
C828 C836 1.574 . S
C828 C844 1.368 . S
H829 C837 0.950 . S
H830 C835 0.950 . S
H831 C836 0.949 . S
H832 C838 0.950 . S
H833 C839 0.950 . S
H834 C840 0.949 . S
C835 H830 0.950 . S
C835 C837 1.327 . S
C835 C841 1.429 . S
C836 C828 1.574 . S
C836 H831 0.949 . S
C836 C842 1.368 . S
C837 C821 1.349 . S
C837 H829 0.950 . S
C837 C835 1.327 . S
C838 C826 1.349 . S
C838 H832 0.950 . S
C838 C839 1.327 . S
C839 H833 0.950 . S
C839 C838 1.327 . S
C839 C843 1.429 . S
C840 C823 1.574 . S
C840 H834 0.949 . S
C840 C844 1.368 . S
C841 C822 1.429 . S
C841 C835 1.429 . S
C841 C842 1.523 . S
C842 C823 1.368 . S
C842 C836 1.368 . S
C842 C841 1.523 . S
C843 C827 1.429 . S
C843 C839 1.429 . S
C843 C844 1.523 . S
C844 C828 1.368 . S
C844 C840 1.368 . S
C844 C843 1.523 . S
H845 C820 0.950 . S
H846 C822 0.950 . S
H847 C823 0.949 . S
H848 C825 0.950 . S
H849 C827 0.950 . S
C850 C851 1.349 . S
C850 C852 1.327 . S
C850 H875 0.950 1_565 S
C851 C850 1.349 . S
C851 C867 1.349 . S
C852 C850 1.327 . S
C852 C871 1.429 . S
C852 H876 0.950 1_565 S
C853 C870 1.574 . S
C853 C872 1.368 . S
C853 H877 0.949 . S
H854 C858 0.949 . S
C855 C856 1.349 1_565 S
C855 C857 1.327 . S
C855 H878 0.950 . S
C856 C855 1.349 1_545 S
C856 C868 1.349 . S
C857 C855 1.327 . S
C857 C873 1.429 . S
C857 H879 0.950 . S
C858 H854 0.949 . S
C858 C866 1.574 . S
C858 C874 1.368 1_545 S
H859 C867 0.950 . S
H860 C865 0.950 . S
H861 C866 0.949 . S
H862 C868 0.950 . S
H863 C869 0.950 . S
H864 C870 0.949 . S
C865 H860 0.950 . S
C865 C867 1.327 . S
C865 C871 1.429 . S
C866 C858 1.574 . S
C866 H861 0.949 . S
C866 C872 1.368 1_545 S
C867 C851 1.349 . S
C867 H859 0.950 . S
C867 C865 1.327 . S
C868 C856 1.349 . S
C868 H862 0.950 . S
C868 C869 1.327 . S
C869 H863 0.950 . S
C869 C868 1.327 . S
C869 C873 1.429 1_545 S
C870 C853 1.574 . S
C870 H864 0.949 . S
C870 C874 1.368 . S
C871 C852 1.429 . S
C871 C865 1.429 . S
C871 C872 1.523 . S
C872 C853 1.368 . S
C872 C866 1.368 1_565 S
C872 C871 1.523 . S
C873 C857 1.429 . S
C873 C869 1.429 1_565 S
C873 C874 1.523 . S
C874 C858 1.368 1_565 S
C874 C870 1.368 . S
C874 C873 1.523 . S
H875 C850 0.950 1_545 S
H876 C852 0.950 1_545 S
H877 C853 0.949 . S
H878 C855 0.950 . S
H879 C857 0.950 . S
C880 C881 1.349 . S
C880 C882 1.327 . S
C880 H905 0.950 . S
C881 C880 1.349 . S
C881 C897 1.349 . S
C882 C880 1.327 . S
C882 C901 1.429 . S
C882 H906 0.950 . S
C883 C900 1.574 . S
C883 C902 1.368 . S
C883 H907 0.949 . S
H884 C888 0.949 . S
C885 C886 1.349 . S
C885 C887 1.327 . S
C885 H908 0.950 . S
C886 C885 1.349 . S
C886 C898 1.349 . S
C887 C885 1.327 . S
C887 C903 1.429 . S
C887 H909 0.950 . S
C888 H884 0.949 . S
C888 C896 1.574 . S
C888 C904 1.368 . S
H889 C897 0.950 . S
H890 C895 0.950 . S
H891 C896 0.949 . S
H892 C898 0.950 . S
H893 C899 0.950 . S
H894 C900 0.949 . S
C895 H890 0.950 . S
C895 C897 1.327 . S
C895 C901 1.429 . S
C896 C888 1.574 . S
C896 H891 0.949 . S
C896 C902 1.368 . S
C897 C881 1.349 . S
C897 H889 0.950 . S
C897 C895 1.327 . S
C898 C886 1.349 . S
C898 H892 0.950 . S
C898 C899 1.327 . S
C899 H893 0.950 . S
C899 C898 1.327 . S
C899 C903 1.429 . S
C900 C883 1.574 . S
C900 H894 0.949 . S
C900 C904 1.368 . S
C901 C882 1.429 . S
C901 C895 1.429 . S
C901 C902 1.523 . S
C902 C883 1.368 . S
C902 C896 1.368 . S
C902 C901 1.523 . S
C903 C887 1.429 . S
C903 C899 1.429 . S
C903 C904 1.523 . S
C904 C888 1.368 . S
C904 C900 1.368 . S
C904 C903 1.523 . S
H905 C880 0.950 . S
H906 C882 0.950 . S
H907 C883 0.949 . S
H908 C885 0.950 . S
H909 C887 0.950 . S
C910 C911 1.349 . S
C910 C912 1.327 . S
C910 H935 0.950 . S
C911 C910 1.349 . S
C911 C927 1.349 . S
C912 C910 1.327 . S
C912 C931 1.429 . S
C912 H936 0.950 . S
C913 C930 1.574 . S
C913 C932 1.368 . S
C913 H937 0.949 . S
H914 C918 0.949 . S
C915 C916 1.349 . S
C915 C917 1.327 . S
C915 H938 0.950 . S
C916 C915 1.349 . S
C916 C928 1.349 . S
C917 C915 1.327 . S
C917 C933 1.429 . S
C917 H939 0.950 . S
C918 H914 0.949 . S
C918 C926 1.574 . S
C918 C934 1.368 . S
H919 C927 0.950 . S
H920 C925 0.950 . S
H921 C926 0.949 . S
H922 C928 0.950 . S
H923 C929 0.950 . S
H924 C930 0.949 . S
C925 H920 0.950 . S
C925 C927 1.327 . S
C925 C931 1.429 . S
C926 C918 1.574 . S
C926 H921 0.949 . S
C926 C932 1.368 . S
C927 C911 1.349 . S
C927 H919 0.950 . S
C927 C925 1.327 . S
C928 C916 1.349 . S
C928 H922 0.950 . S
C928 C929 1.327 . S
C929 H923 0.950 . S
C929 C928 1.327 . S
C929 C933 1.429 . S
C930 C913 1.574 . S
C930 H924 0.949 . S
C930 C934 1.368 . S
C931 C912 1.429 . S
C931 C925 1.429 . S
C931 C932 1.523 . S
C932 C913 1.368 . S
C932 C926 1.368 . S
C932 C931 1.523 . S
C933 C917 1.429 . S
C933 C929 1.429 . S
C933 C934 1.523 . S
C934 C918 1.368 . S
C934 C930 1.368 . S
C934 C933 1.523 . S
H935 C910 0.950 . S
H936 C912 0.950 . S
H937 C913 0.949 . S
H938 C915 0.950 . S
H939 C917 0.950 . S
C940 C941 1.349 . S
C940 C942 1.327 . S
C940 H965 0.950 . S
C941 C940 1.349 . S
C941 C957 1.349 . S
C942 C940 1.327 . S
C942 C961 1.429 . S
C942 H966 0.950 . S
C943 C960 1.574 . S
C943 C962 1.368 . S
C943 H967 0.949 . S
H944 C948 0.949 . S
C945 C946 1.349 . S
C945 C947 1.327 . S
C945 H968 0.950 . S
C946 C945 1.349 . S
C946 C958 1.349 . S
C947 C945 1.327 . S
C947 C963 1.429 . S
C947 H969 0.950 . S
C948 H944 0.949 . S
C948 C956 1.574 . S
C948 C964 1.368 . S
H949 C957 0.950 . S
H950 C955 0.950 . S
H951 C956 0.949 . S
H952 C958 0.950 . S
H953 C959 0.950 . S
H954 C960 0.949 . S
C955 H950 0.950 . S
C955 C957 1.327 . S
C955 C961 1.429 . S
C956 C948 1.574 . S
C956 H951 0.949 . S
C956 C962 1.368 . S
C957 C941 1.349 . S
C957 H949 0.950 . S
C957 C955 1.327 . S
C958 C946 1.349 . S
C958 H952 0.950 . S
C958 C959 1.327 . S
C959 H953 0.950 . S
C959 C958 1.327 . S
C959 C963 1.429 . S
C960 C943 1.574 . S
C960 H954 0.949 . S
C960 C964 1.368 . S
C961 C942 1.429 . S
C961 C955 1.429 . S
C961 C962 1.523 . S
C962 C943 1.368 . S
C962 C956 1.368 . S
C962 C961 1.523 . S
C963 C947 1.429 . S
C963 C959 1.429 . S
C963 C964 1.523 . S
C964 C948 1.368 . S
C964 C960 1.368 . S
C964 C963 1.523 . S
H965 C940 0.950 . S
H966 C942 0.950 . S
H967 C943 0.949 . S
H968 C945 0.950 . S
H969 C947 0.950 . S
C970 C971 1.349 . S
C970 C972 1.327 . S
C970 H995 0.950 . S
C971 C970 1.349 . S
C971 C987 1.349 . S
C972 C970 1.327 . S
C972 C991 1.429 . S
C972 H996 0.950 . S
C973 C990 1.574 . S
C973 C992 1.368 . S
C973 H997 0.949 . S
H974 C978 0.949 . S
C975 C976 1.349 . S
C975 C977 1.327 . S
C975 H998 0.950 . S
C976 C975 1.349 . S
C976 C988 1.349 . S
C977 C975 1.327 . S
C977 C993 1.429 . S
C977 H999 0.950 . S
C978 H974 0.949 . S
C978 C986 1.574 . S
C978 C994 1.368 . S
H979 C987 0.950 . S
H980 C985 0.950 . S
H981 C986 0.949 . S
H982 C988 0.950 . S
H983 C989 0.950 . S
H984 C990 0.949 . S
C985 H980 0.950 . S
C985 C987 1.327 . S
C985 C991 1.429 . S
C986 C978 1.574 . S
C986 H981 0.949 . S
C986 C992 1.368 . S
C987 C971 1.349 . S
C987 H979 0.950 . S
C987 C985 1.327 . S
C988 C976 1.349 . S
C988 H982 0.950 . S
C988 C989 1.327 . S
C989 H983 0.950 . S
C989 C988 1.327 . S
C989 C993 1.429 . S
C990 C973 1.574 . S
C990 H984 0.949 . S
C990 C994 1.368 . S
C991 C972 1.429 . S
C991 C985 1.429 . S
C991 C992 1.523 . S
C992 C973 1.368 . S
C992 C986 1.368 . S
C992 C991 1.523 . S
C993 C977 1.429 . S
C993 C989 1.429 . S
C993 C994 1.523 . S
C994 C978 1.368 . S
C994 C990 1.368 . S
C994 C993 1.523 . S
H995 C970 0.950 . S
H996 C972 0.950 . S
H997 C973 0.949 . S
H998 C975 0.950 . S
H999 C977 0.950 . S
C1000 C1001 1.349 . S
C1000 C1002 1.327 . S
C1000 H1025 0.950 . S
C1001 C1000 1.349 . S
C1001 C1017 1.349 . S
C1002 C1000 1.327 . S
C1002 C1021 1.429 . S
C1002 H1026 0.950 . S
C1003 C1020 1.574 . S
C1003 C1022 1.368 . S
C1003 H1027 0.949 . S
H1004 C1008 0.949 . S
C1005 C1006 1.349 . S
C1005 C1007 1.327 . S
C1005 H1028 0.950 . S
C1006 C1005 1.349 . S
C1006 C1018 1.349 . S
C1007 C1005 1.327 . S
C1007 C1023 1.429 . S
C1007 H1029 0.950 . S
C1008 H1004 0.949 . S
C1008 C1016 1.574 . S
C1008 C1024 1.368 . S
H1009 C1017 0.950 . S
H1010 C1015 0.950 . S
H1011 C1016 0.949 . S
H1012 C1018 0.950 . S
H1013 C1019 0.950 . S
H1014 C1020 0.949 . S
C1015 H1010 0.950 . S
C1015 C1017 1.327 . S
C1015 C1021 1.429 . S
C1016 C1008 1.574 . S
C1016 H1011 0.949 . S
C1016 C1022 1.368 . S
C1017 C1001 1.349 . S
C1017 H1009 0.950 . S
C1017 C1015 1.327 . S
C1018 C1006 1.349 . S
C1018 H1012 0.950 . S
C1018 C1019 1.327 . S
C1019 H1013 0.950 . S
C1019 C1018 1.327 . S
C1019 C1023 1.429 . S
C1020 C1003 1.574 . S
C1020 H1014 0.949 . S
C1020 C1024 1.368 . S
C1021 C1002 1.429 . S
C1021 C1015 1.429 . S
C1021 C1022 1.523 . S
C1022 C1003 1.368 . S
C1022 C1016 1.368 . S
C1022 C1021 1.523 . S
C1023 C1007 1.429 . S
C1023 C1019 1.429 . S
C1023 C1024 1.523 . S
C1024 C1008 1.368 . S
C1024 C1020 1.368 . S
C1024 C1023 1.523 . S
H1025 C1000 0.950 . S
H1026 C1002 0.950 . S
H1027 C1003 0.949 . S
H1028 C1005 0.950 . S
H1029 C1007 0.950 . S
C1030 C1031 1.349 . S
C1030 C1032 1.327 . S
C1030 H1055 0.950 . S
C1031 C1030 1.349 . S
C1031 C1047 1.349 . S
C1032 C1030 1.327 . S
C1032 C1051 1.429 . S
C1032 H1056 0.950 . S
C1033 C1050 1.574 . S
C1033 C1052 1.368 . S
C1033 H1057 0.949 . S
H1034 C1038 0.949 . S
C1035 C1036 1.349 . S
C1035 C1037 1.327 . S
C1035 H1058 0.950 . S
C1036 C1035 1.349 . S
C1036 C1048 1.349 . S
C1037 C1035 1.327 . S
C1037 C1053 1.429 . S
C1037 H1059 0.950 . S
C1038 H1034 0.949 . S
C1038 C1046 1.574 . S
C1038 C1054 1.368 . S
H1039 C1047 0.950 . S
H1040 C1045 0.950 . S
H1041 C1046 0.949 . S
H1042 C1048 0.950 . S
H1043 C1049 0.950 . S
H1044 C1050 0.949 . S
C1045 H1040 0.950 . S
C1045 C1047 1.327 . S
C1045 C1051 1.429 . S
C1046 C1038 1.574 . S
C1046 H1041 0.949 . S
C1046 C1052 1.368 . S
C1047 C1031 1.349 . S
C1047 H1039 0.950 . S
C1047 C1045 1.327 . S
C1048 C1036 1.349 . S
C1048 H1042 0.950 . S
C1048 C1049 1.327 . S
C1049 H1043 0.950 . S
C1049 C1048 1.327 . S
C1049 C1053 1.429 . S
C1050 C1033 1.574 . S
C1050 H1044 0.949 . S
C1050 C1054 1.368 . S
C1051 C1032 1.429 . S
C1051 C1045 1.429 . S
C1051 C1052 1.523 . S
C1052 C1033 1.368 . S
C1052 C1046 1.368 . S
C1052 C1051 1.523 . S
C1053 C1037 1.429 . S
C1053 C1049 1.429 . S
C1053 C1054 1.523 . S
C1054 C1038 1.368 . S
C1054 C1050 1.368 . S
C1054 C1053 1.523 . S
H1055 C1030 0.950 . S
H1056 C1032 0.950 . S
H1057 C1033 0.949 . S
H1058 C1035 0.950 . S
H1059 C1037 0.950 . S
C1060 C1061 1.349 . S
C1060 C1062 1.327 . S
C1060 H1085 0.950 . S
C1061 C1060 1.349 . S
C1061 C1077 1.349 . S
C1062 C1060 1.327 . S
C1062 C1081 1.429 . S
C1062 H1086 0.950 . S
C1063 C1080 1.574 . S
C1063 C1082 1.368 . S
C1063 H1087 0.949 . S
H1064 C1068 0.949 . S
C1065 C1066 1.349 . S
C1065 C1067 1.327 . S
C1065 H1088 0.950 . S
C1066 C1065 1.349 . S
C1066 C1078 1.349 . S
C1067 C1065 1.327 . S
C1067 C1083 1.429 . S
C1067 H1089 0.950 . S
C1068 H1064 0.949 . S
C1068 C1076 1.574 . S
C1068 C1084 1.368 . S
H1069 C1077 0.950 . S
H1070 C1075 0.950 . S
H1071 C1076 0.949 . S
H1072 C1078 0.950 . S
H1073 C1079 0.950 . S
H1074 C1080 0.949 . S
C1075 H1070 0.950 . S
C1075 C1077 1.327 . S
C1075 C1081 1.429 . S
C1076 C1068 1.574 . S
C1076 H1071 0.949 . S
C1076 C1082 1.368 . S
C1077 C1061 1.349 . S
C1077 H1069 0.950 . S
C1077 C1075 1.327 . S
C1078 C1066 1.349 . S
C1078 H1072 0.950 . S
C1078 C1079 1.327 . S
C1079 H1073 0.950 . S
C1079 C1078 1.327 . S
C1079 C1083 1.429 . S
C1080 C1063 1.574 . S
C1080 H1074 0.949 . S
C1080 C1084 1.368 . S
C1081 C1062 1.429 . S
C1081 C1075 1.429 . S
C1081 C1082 1.523 . S
C1082 C1063 1.368 . S
C1082 C1076 1.368 . S
C1082 C1081 1.523 . S
C1083 C1067 1.429 . S
C1083 C1079 1.429 . S
C1083 C1084 1.523 . S
C1084 C1068 1.368 . S
C1084 C1080 1.368 . S
C1084 C1083 1.523 . S
H1085 C1060 0.950 . S
H1086 C1062 0.950 . S
H1087 C1063 0.949 . S
H1088 C1065 0.950 . S
H1089 C1067 0.950 . S
C1090 C1091 1.349 . S
C1090 C1092 1.327 . S
C1090 H1115 0.950 . S
C1091 C1090 1.349 . S
C1091 C1107 1.349 . S
C1092 C1090 1.327 . S
C1092 C1111 1.429 . S
C1092 H1116 0.950 . S
C1093 C1110 1.574 . S
C1093 C1112 1.368 1_455 S
C1093 H1117 0.949 . S
H1094 C1098 0.949 . S
C1095 C1096 1.349 . S
C1095 C1097 1.327 . S
C1095 H1118 0.950 . S
C1096 C1095 1.349 . S
C1096 C1108 1.349 . S
C1097 C1095 1.327 . S
C1097 C1113 1.429 . S
C1097 H1119 0.950 . S
C1098 H1094 0.949 . S
C1098 C1106 1.574 . S
C1098 C1114 1.358 1_655 S
H1099 C1107 0.950 . S
H1100 C1105 0.950 . S
H1101 C1106 0.949 . S
H1102 C1108 0.950 1_655 S
H1103 C1109 0.969 . S
H1104 C1110 0.949 . S
C1105 H1100 0.950 . S
C1105 C1107 1.327 . S
C1105 C1111 1.429 . S
C1106 C1098 1.574 . S
C1106 H1101 0.949 . S
C1106 C1112 1.368 . S
C1107 C1091 1.349 . S
C1107 H1099 0.950 . S
C1107 C1105 1.327 . S
C1108 C1096 1.349 . S
C1108 H1102 0.950 1_455 S
C1108 C1109 1.321 1_455 S
C1109 H1103 0.969 . S
C1109 C1108 1.321 1_655 S
C1109 C1113 1.417 1_655 S
C1110 C1093 1.574 . S
C1110 H1104 0.949 . S
C1110 C1114 1.376 . S
C1111 C1092 1.429 . S
C1111 C1105 1.429 . S
C1111 C1112 1.523 . S
C1112 C1093 1.368 1_655 S
C1112 C1106 1.368 . S
C1112 C1111 1.523 . S
C1113 C1097 1.429 . S
C1113 C1109 1.417 1_455 S
C1113 C1114 1.526 . S
C1114 C1098 1.358 1_455 S
C1114 C1110 1.376 . S
C1114 C1113 1.526 . S
H1115 C1090 0.950 . S
H1116 C1092 0.950 . S
H1117 C1093 0.949 . S
H1118 C1095 0.950 . S
H1119 C1097 0.950 . S
C1120 C1121 1.349 . S
C1120 C1122 1.327 . S
C1120 H1145 0.950 . S
C1121 C1120 1.349 . S
C1121 C1137 1.349 . S
C1122 C1120 1.327 . S
C1122 C1141 1.429 . S
C1122 H1146 0.950 . S
C1123 C1140 1.574 . S
C1123 C1142 1.368 . S
C1123 H1147 0.949 . S
H1124 C1128 0.949 . S
C1125 C1126 1.349 . S
C1125 C1127 1.327 . S
C1125 H1148 0.950 . S
C1126 C1125 1.349 . S
C1126 C1138 1.349 . S
C1127 C1125 1.327 . S
C1127 C1143 1.429 . S
C1127 H1149 0.950 . S
C1128 H1124 0.949 . S
C1128 C1136 1.574 . S
C1128 C1144 1.368 . S
H1129 C1137 0.950 . S
H1130 C1135 0.950 . S
H1131 C1136 0.949 . S
H1132 C1138 0.950 . S
H1133 C1139 0.950 . S
H1134 C1140 0.949 . S
C1135 H1130 0.950 . S
C1135 C1137 1.327 . S
C1135 C1141 1.429 . S
C1136 C1128 1.574 . S
C1136 H1131 0.949 . S
C1136 C1142 1.368 . S
C1137 C1121 1.349 . S
C1137 H1129 0.950 . S
C1137 C1135 1.327 . S
C1138 C1126 1.349 . S
C1138 H1132 0.950 . S
C1138 C1139 1.327 . S
C1139 H1133 0.950 . S
C1139 C1138 1.327 . S
C1139 C1143 1.429 . S
C1140 C1123 1.574 . S
C1140 H1134 0.949 . S
C1140 C1144 1.368 . S
C1141 C1122 1.429 . S
C1141 C1135 1.429 . S
C1141 C1142 1.523 . S
C1142 C1123 1.368 . S
C1142 C1136 1.368 . S
C1142 C1141 1.523 . S
C1143 C1127 1.429 . S
C1143 C1139 1.429 . S
C1143 C1144 1.523 . S
C1144 C1128 1.368 . S
C1144 C1140 1.368 . S
C1144 C1143 1.523 . S
H1145 C1120 0.950 . S
H1146 C1122 0.950 . S
H1147 C1123 0.949 . S
H1148 C1125 0.950 . S
H1149 C1127 0.950 . S
C1150 C1151 1.349 . S
C1150 C1152 1.327 . S
C1150 H1175 0.950 . S
C1151 C1150 1.349 . S
C1151 C1167 1.349 . S
C1152 C1150 1.327 . S
C1152 C1171 1.429 . S
C1152 H1176 0.950 . S
C1153 C1170 1.574 . S
C1153 C1172 1.368 . S
C1153 H1177 0.949 . S
H1154 C1158 0.949 . S
C1155 C1156 1.349 . S
C1155 C1157 1.327 . S
C1155 H1178 0.950 . S
C1156 C1155 1.349 . S
C1156 C1168 1.349 . S
C1157 C1155 1.327 . S
C1157 C1173 1.429 . S
C1157 H1179 0.950 . S
C1158 H1154 0.949 . S
C1158 C1166 1.574 . S
C1158 C1174 1.368 . S
H1159 C1167 0.950 . S
H1160 C1165 0.950 . S
H1161 C1166 0.949 . S
H1162 C1168 0.950 . S
H1163 C1169 0.950 . S
H1164 C1170 0.949 . S
C1165 H1160 0.950 . S
C1165 C1167 1.327 . S
C1165 C1171 1.429 . S
C1166 C1158 1.574 . S
C1166 H1161 0.949 . S
C1166 C1172 1.368 . S
C1167 C1151 1.349 . S
C1167 H1159 0.950 . S
C1167 C1165 1.327 . S
C1168 C1156 1.349 . S
C1168 H1162 0.950 . S
C1168 C1169 1.327 . S
C1169 H1163 0.950 . S
C1169 C1168 1.327 . S
C1169 C1173 1.429 . S
C1170 C1153 1.574 . S
C1170 H1164 0.949 . S
C1170 C1174 1.368 . S
C1171 C1152 1.429 . S
C1171 C1165 1.429 . S
C1171 C1172 1.523 . S
C1172 C1153 1.368 . S
C1172 C1166 1.368 . S
C1172 C1171 1.523 . S
C1173 C1157 1.429 . S
C1173 C1169 1.429 . S
C1173 C1174 1.523 . S
C1174 C1158 1.368 . S
C1174 C1170 1.368 . S
C1174 C1173 1.523 . S
H1175 C1150 0.950 . S
H1176 C1152 0.950 . S
H1177 C1153 0.949 . S
H1178 C1155 0.950 . S
H1179 C1157 0.950 . S
C1180 C1181 1.352 1_554 S
C1180 C1182 1.326 . S
C1180 H1205 0.948 . S
C1181 C1180 1.352 1_556 S
C1181 C1197 1.314 1_545 S
C1182 C1180 1.326 . S
C1182 C1201 1.429 1_544 S
C1182 H1206 0.950 . S
C1183 C1200 1.574 . S
C1183 C1202 1.368 . S
C1183 H1207 0.949 . S
H1184 C1188 0.949 . S
C1185 C1186 1.349 1_556 S
C1185 C1187 1.327 . S
C1185 H1208 0.950 . S
C1186 C1185 1.349 1_554 S
C1186 C1198 1.349 . S
C1187 C1185 1.327 . S
C1187 C1203 1.429 1_556 S
C1187 H1209 0.950 . S
C1188 H1184 0.949 . S
C1188 C1196 1.574 . S
C1188 C1204 1.368 . S
H1189 C1197 0.962 . S
H1190 C1195 0.950 . S
H1191 C1196 0.949 1_545 S
H1192 C1198 0.950 . S
H1193 C1199 0.950 . S
H1194 C1200 0.949 . S
C1195 H1190 0.950 . S
C1195 C1197 1.351 . S
C1195 C1201 1.429 . S
C1196 C1188 1.574 . S
C1196 H1191 0.949 1_565 S
C1196 C1202 1.368 1_554 S
C1197 C1181 1.314 1_565 S
C1197 H1189 0.962 . S
C1197 C1195 1.351 . S
C1198 C1186 1.349 . S
C1198 H1192 0.950 . S
C1198 C1199 1.327 . S
C1199 H1193 0.950 . S
C1199 C1198 1.327 . S
C1199 C1203 1.429 . S
C1200 C1183 1.574 . S
C1200 H1194 0.949 . S
C1200 C1204 1.368 1_556 S
C1201 C1182 1.429 1_566 S
C1201 C1195 1.429 . S
C1201 C1202 1.523 . S
C1202 C1183 1.368 . S
C1202 C1196 1.368 1_556 S
C1202 C1201 1.523 . S
C1203 C1187 1.429 1_554 S
C1203 C1199 1.429 . S
C1203 C1204 1.523 . S
C1204 C1188 1.368 . S
C1204 C1200 1.368 1_554 S
C1204 C1203 1.523 . S
H1205 C1180 0.948 . S
H1206 C1182 0.950 . S
H1207 C1183 0.949 . S
H1208 C1185 0.950 . S
H1209 C1187 0.950 . S
C1210 C1211 1.349 . S
C1210 C1212 1.327 . S
C1210 H1235 0.950 . S
C1211 C1210 1.349 . S
C1211 C1227 1.349 . S
C1212 C1210 1.327 . S
C1212 C1231 1.429 . S
C1212 H1236 0.950 . S
C1213 C1230 1.574 . S
C1213 C1232 1.368 . S
C1213 H1237 0.949 . S
H1214 C1218 0.949 . S
C1215 C1216 1.349 . S
C1215 C1217 1.327 . S
C1215 H1238 0.950 . S
C1216 C1215 1.349 . S
C1216 C1228 1.349 . S
C1217 C1215 1.327 . S
C1217 C1233 1.429 . S
C1217 H1239 0.950 . S
C1218 H1214 0.949 . S
C1218 C1226 1.574 . S
C1218 C1234 1.368 . S
H1219 C1227 0.950 . S
H1220 C1225 0.950 . S
H1221 C1226 0.949 . S
H1222 C1228 0.950 . S
H1223 C1229 0.950 . S
H1224 C1230 0.949 . S
C1225 H1220 0.950 . S
C1225 C1227 1.327 . S
C1225 C1231 1.429 . S
C1226 C1218 1.574 . S
C1226 H1221 0.949 . S
C1226 C1232 1.368 . S
C1227 C1211 1.349 . S
C1227 H1219 0.950 . S
C1227 C1225 1.327 . S
C1228 C1216 1.349 . S
C1228 H1222 0.950 . S
C1228 C1229 1.327 . S
C1229 H1223 0.950 . S
C1229 C1228 1.327 . S
C1229 C1233 1.429 . S
C1230 C1213 1.574 . S
C1230 H1224 0.949 . S
C1230 C1234 1.368 . S
C1231 C1212 1.429 . S
C1231 C1225 1.429 . S
C1231 C1232 1.523 . S
C1232 C1213 1.368 . S
C1232 C1226 1.368 . S
C1232 C1231 1.523 . S
C1233 C1217 1.429 . S
C1233 C1229 1.429 . S
C1233 C1234 1.523 . S
C1234 C1218 1.368 . S
C1234 C1230 1.368 . S
C1234 C1233 1.523 . S
H1235 C1210 0.950 . S
H1236 C1212 0.950 . S
H1237 C1213 0.949 . S
H1238 C1215 0.950 . S
H1239 C1217 0.950 . S
C1240 C1241 1.349 . S
C1240 C1242 1.327 . S
C1240 H1265 0.950 . S
C1241 C1240 1.349 . S
C1241 C1257 1.349 . S
C1242 C1240 1.327 . S
C1242 C1261 1.429 . S
C1242 H1266 0.950 . S
C1243 C1260 1.574 . S
C1243 C1262 1.368 . S
C1243 H1267 0.949 . S
H1244 C1248 0.949 . S
C1245 C1246 1.349 . S
C1245 C1247 1.327 . S
C1245 H1268 0.950 . S
C1246 C1245 1.349 . S
C1246 C1258 1.349 . S
C1247 C1245 1.327 . S
C1247 C1263 1.429 . S
C1247 H1269 0.950 . S
C1248 H1244 0.949 . S
C1248 C1256 1.574 . S
C1248 C1264 1.368 . S
H1249 C1257 0.950 1_565 S
H1250 C1255 0.950 . S
H1251 C1256 0.949 . S
H1252 C1258 0.950 . S
H1253 C1259 0.950 . S
H1254 C1260 0.949 . S
C1255 H1250 0.950 . S
C1255 C1257 1.327 . S
C1255 C1261 1.429 . S
C1256 C1248 1.574 . S
C1256 H1251 0.949 . S
C1256 C1262 1.368 . S
C1257 C1241 1.349 . S
C1257 H1249 0.950 1_545 S
C1257 C1255 1.327 . S
C1258 C1246 1.349 . S
C1258 H1252 0.950 . S
C1258 C1259 1.327 . S
C1259 H1253 0.950 . S
C1259 C1258 1.327 . S
C1259 C1263 1.429 . S
C1260 C1243 1.574 . S
C1260 H1254 0.949 . S
C1260 C1264 1.368 . S
C1261 C1242 1.429 . S
C1261 C1255 1.429 . S
C1261 C1262 1.523 . S
C1262 C1243 1.368 . S
C1262 C1256 1.368 . S
C1262 C1261 1.523 . S
C1263 C1247 1.429 . S
C1263 C1259 1.429 . S
C1263 C1264 1.523 . S
C1264 C1248 1.368 . S
C1264 C1260 1.368 . S
C1264 C1263 1.523 . S
H1265 C1240 0.950 . S
H1266 C1242 0.950 . S
H1267 C1243 0.949 . S
H1268 C1245 0.950 . S
H1269 C1247 0.950 . S
C1270 C1271 1.349 . S
C1270 C1272 1.327 . S
C1270 H1295 0.950 . S
C1271 C1270 1.349 . S
C1271 C1287 1.349 . S
C1272 C1270 1.327 . S
C1272 C1291 1.429 . S
C1272 H1296 0.950 . S
C1273 C1290 1.574 . S
C1273 C1292 1.368 . S
C1273 H1297 0.949 . S
H1274 C1278 0.949 . S
C1275 C1276 1.349 . S
C1275 C1277 1.327 . S
C1275 H1298 0.950 . S
C1276 C1275 1.349 . S
C1276 C1288 1.349 . S
C1277 C1275 1.327 . S
C1277 C1293 1.429 . S
C1277 H1299 0.950 . S
C1278 H1274 0.949 . S
C1278 C1286 1.574 . S
C1278 C1294 1.368 . S
H1279 C1287 0.950 . S
H1280 C1285 0.950 . S
H1281 C1286 0.949 . S
H1282 C1288 0.950 . S
H1283 C1289 0.950 . S
H1284 C1290 0.949 . S
C1285 H1280 0.950 . S
C1285 C1287 1.327 . S
C1285 C1291 1.429 . S
C1286 C1278 1.574 . S
C1286 H1281 0.949 . S
C1286 C1292 1.368 . S
C1287 C1271 1.349 . S
C1287 H1279 0.950 . S
C1287 C1285 1.327 . S
C1288 C1276 1.349 . S
C1288 H1282 0.950 . S
C1288 C1289 1.327 . S
C1289 H1283 0.950 . S
C1289 C1288 1.327 . S
C1289 C1293 1.429 . S
C1290 C1273 1.574 . S
C1290 H1284 0.949 . S
C1290 C1294 1.368 . S
C1291 C1272 1.429 . S
C1291 C1285 1.429 . S
C1291 C1292 1.523 . S
C1292 C1273 1.368 . S
C1292 C1286 1.368 . S
C1292 C1291 1.523 . S
C1293 C1277 1.429 . S
C1293 C1289 1.429 . S
C1293 C1294 1.523 . S
C1294 C1278 1.368 . S
C1294 C1290 1.368 . S
C1294 C1293 1.523 . S
H1295 C1270 0.950 . S
H1296 C1272 0.950 . S
H1297 C1273 0.949 . S
H1298 C1275 0.950 . S
H1299 C1277 0.950 . S
C1300 C1301 1.349 . S
C1300 C1302 1.327 . S
C1300 H1325 0.950 . S
C1301 C1300 1.349 . S
C1301 C1317 1.349 1_545 S
C1302 C1300 1.327 . S
C1302 C1321 1.429 . S
C1302 H1326 0.950 . S
C1303 C1320 1.574 . S
C1303 C1322 1.368 . S
C1303 H1327 0.949 . S
H1304 C1308 0.949 . S
C1305 C1306 1.349 . S
C1305 C1307 1.327 . S
C1305 H1328 0.950 . S
C1306 C1305 1.349 . S
C1306 C1318 1.349 . S
C1307 C1305 1.327 . S
C1307 C1323 1.429 . S
C1307 H1329 0.950 . S
C1308 H1304 0.949 . S
C1308 C1316 1.574 . S
C1308 C1324 1.368 . S
H1309 C1317 0.950 . S
H1310 C1315 0.950 . S
H1311 C1316 0.949 . S
H1312 C1318 0.950 . S
H1313 C1319 0.950 . S
H1314 C1320 0.949 . S
C1315 H1310 0.950 . S
C1315 C1317 1.327 1_545 S
C1315 C1321 1.429 . S
C1316 C1308 1.574 . S
C1316 H1311 0.949 . S
C1316 C1322 1.368 . S
C1317 C1301 1.349 1_565 S
C1317 H1309 0.950 . S
C1317 C1315 1.327 1_565 S
C1318 C1306 1.349 . S
C1318 H1312 0.950 . S
C1318 C1319 1.327 . S
C1319 H1313 0.950 . S
C1319 C1318 1.327 . S
C1319 C1323 1.429 . S
C1320 C1303 1.574 . S
C1320 H1314 0.949 . S
C1320 C1324 1.368 . S
C1321 C1302 1.429 . S
C1321 C1315 1.429 . S
C1321 C1322 1.523 . S
C1322 C1303 1.368 . S
C1322 C1316 1.368 . S
C1322 C1321 1.523 . S
C1323 C1307 1.429 . S
C1323 C1319 1.429 . S
C1323 C1324 1.523 . S
C1324 C1308 1.368 . S
C1324 C1320 1.368 . S
C1324 C1323 1.523 . S
H1325 C1300 0.950 . S
H1326 C1302 0.950 . S
H1327 C1303 0.949 . S
H1328 C1305 0.950 . S
H1329 C1307 0.950 . S
C1330 C1331 1.349 . S
C1330 C1332 1.327 . S
C1330 H1355 0.950 . S
C1331 C1330 1.349 . S
C1331 C1347 1.349 . S
C1332 C1330 1.327 . S
C1332 C1351 1.429 . S
C1332 H1356 0.950 . S
C1333 C1350 1.574 . S
C1333 C1352 1.368 . S
C1333 H1357 0.949 . S
H1334 C1338 0.949 . S
C1335 C1336 1.349 . S
C1335 C1337 1.327 . S
C1335 H1358 0.950 . S
C1336 C1335 1.349 . S
C1336 C1348 1.349 . S
C1337 C1335 1.327 . S
C1337 C1353 1.429 . S
C1337 H1359 0.950 . S
C1338 H1334 0.949 . S
C1338 C1346 1.574 . S
C1338 C1354 1.368 . S
H1339 C1347 0.950 . S
H1340 C1345 0.950 . S
H1341 C1346 0.949 . S
H1342 C1348 0.950 . S
H1343 C1349 0.950 . S
H1344 C1350 0.949 . S
C1345 H1340 0.950 . S
C1345 C1347 1.327 . S
C1345 C1351 1.429 . S
C1346 C1338 1.574 . S
C1346 H1341 0.949 . S
C1346 C1352 1.368 . S
C1347 C1331 1.349 . S
C1347 H1339 0.950 . S
C1347 C1345 1.327 . S
C1348 C1336 1.349 . S
C1348 H1342 0.950 . S
C1348 C1349 1.327 . S
C1349 H1343 0.950 . S
C1349 C1348 1.327 . S
C1349 C1353 1.429 . S
C1350 C1333 1.574 . S
C1350 H1344 0.949 . S
C1350 C1354 1.368 . S
C1351 C1332 1.429 . S
C1351 C1345 1.429 . S
C1351 C1352 1.523 . S
C1352 C1333 1.368 . S
C1352 C1346 1.368 . S
C1352 C1351 1.523 . S
C1353 C1337 1.429 . S
C1353 C1349 1.429 . S
C1353 C1354 1.523 . S
C1354 C1338 1.368 . S
C1354 C1350 1.368 . S
C1354 C1353 1.523 . S
H1355 C1330 0.950 . S
H1356 C1332 0.950 . S
H1357 C1333 0.949 . S
H1358 C1335 0.950 . S
H1359 C1337 0.950 . S
C1360 C1361 1.349 . S
C1360 C1362 1.327 . S
C1360 H1385 0.950 . S
C1361 C1360 1.349 . S
C1361 C1377 1.349 . S
C1362 C1360 1.327 . S
C1362 C1381 1.429 . S
C1362 H1386 0.950 . S
C1363 C1380 1.574 . S
C1363 C1382 1.368 . S
C1363 H1387 0.949 . S
H1364 C1368 0.949 . S
C1365 C1366 1.349 . S
C1365 C1367 1.327 . S
C1365 H1388 0.950 . S
C1366 C1365 1.349 . S
C1366 C1378 1.349 . S
C1367 C1365 1.327 . S
C1367 C1383 1.429 . S
C1367 H1389 0.950 . S
C1368 H1364 0.949 . S
C1368 C1376 1.574 . S
C1368 C1384 1.368 . S
H1369 C1377 0.950 . S
H1370 C1375 0.950 . S
H1371 C1376 0.949 . S
H1372 C1378 0.950 . S
H1373 C1379 0.950 . S
H1374 C1380 0.949 . S
C1375 H1370 0.950 . S
C1375 C1377 1.327 . S
C1375 C1381 1.429 . S
C1376 C1368 1.574 . S
C1376 H1371 0.949 . S
C1376 C1382 1.368 . S
C1377 C1361 1.349 . S
C1377 H1369 0.950 . S
C1377 C1375 1.327 . S
C1378 C1366 1.349 . S
C1378 H1372 0.950 . S
C1378 C1379 1.327 . S
C1379 H1373 0.950 . S
C1379 C1378 1.327 . S
C1379 C1383 1.429 . S
C1380 C1363 1.574 . S
C1380 H1374 0.949 . S
C1380 C1384 1.368 . S
C1381 C1362 1.429 . S
C1381 C1375 1.429 . S
C1381 C1382 1.523 . S
C1382 C1363 1.368 . S
C1382 C1376 1.368 . S
C1382 C1381 1.523 . S
C1383 C1367 1.429 . S
C1383 C1379 1.429 . S
C1383 C1384 1.523 . S
C1384 C1368 1.368 . S
C1384 C1380 1.368 . S
C1384 C1383 1.523 . S
H1385 C1360 0.950 . S
H1386 C1362 0.950 . S
H1387 C1363 0.949 . S
H1388 C1365 0.950 . S
H1389 C1367 0.950 . S
C1390 C1391 1.349 . S
C1390 C1392 1.327 . S
C1390 H1415 0.950 . S
C1391 C1390 1.349 . S
C1391 C1407 1.349 . S
C1392 C1390 1.327 . S
C1392 C1411 1.429 . S
C1392 H1416 0.950 . S
C1393 C1410 1.574 . S
C1393 C1412 1.368 . S
C1393 H1417 0.949 . S
H1394 C1398 0.949 . S
C1395 C1396 1.349 . S
C1395 C1397 1.327 . S
C1395 H1418 0.950 . S
C1396 C1395 1.349 . S
C1396 C1408 1.349 . S
C1397 C1395 1.327 . S
C1397 C1413 1.429 . S
C1397 H1419 0.950 . S
C1398 H1394 0.949 . S
C1398 C1406 1.574 . S
C1398 C1414 1.368 . S
H1399 C1407 0.950 . S
H1400 C1405 0.950 . S
H1401 C1406 0.949 . S
H1402 C1408 0.950 . S
H1403 C1409 0.950 . S
H1404 C1410 0.949 . S
C1405 H1400 0.950 . S
C1405 C1407 1.327 . S
C1405 C1411 1.429 . S
C1406 C1398 1.574 . S
C1406 H1401 0.949 . S
C1406 C1412 1.368 . S
C1407 C1391 1.349 . S
C1407 H1399 0.950 . S
C1407 C1405 1.327 . S
C1408 C1396 1.349 . S
C1408 H1402 0.950 . S
C1408 C1409 1.327 . S
C1409 H1403 0.950 . S
C1409 C1408 1.327 . S
C1409 C1413 1.429 . S
C1410 C1393 1.574 . S
C1410 H1404 0.949 . S
C1410 C1414 1.368 . S
C1411 C1392 1.429 . S
C1411 C1405 1.429 . S
C1411 C1412 1.523 . S
C1412 C1393 1.368 . S
C1412 C1406 1.368 . S
C1412 C1411 1.523 . S
C1413 C1397 1.429 . S
C1413 C1409 1.429 . S
C1413 C1414 1.523 . S
C1414 C1398 1.368 . S
C1414 C1410 1.368 . S
C1414 C1413 1.523 . S
H1415 C1390 0.950 . S
H1416 C1392 0.950 . S
H1417 C1393 0.949 . S
H1418 C1395 0.950 . S
H1419 C1397 0.950 . S
C1420 C1421 1.349 . S
C1420 C1422 1.327 . S
C1420 H1445 0.950 . S
C1421 C1420 1.349 . S
C1421 C1437 1.349 . S
C1422 C1420 1.327 . S
C1422 C1441 1.429 . S
C1422 H1446 0.950 . S
C1423 C1440 1.574 . S
C1423 C1442 1.368 . S
C1423 H1447 0.949 . S
H1424 C1428 0.949 . S
C1425 C1426 1.349 . S
C1425 C1427 1.327 . S
C1425 H1448 0.950 . S
C1426 C1425 1.349 . S
C1426 C1438 1.349 . S
C1427 C1425 1.327 . S
C1427 C1443 1.429 . S
C1427 H1449 0.950 . S
C1428 H1424 0.949 . S
C1428 C1436 1.574 . S
C1428 C1444 1.368 . S
H1429 C1437 0.950 . S
H1430 C1435 0.950 . S
H1431 C1436 0.949 . S
H1432 C1438 0.950 . S
H1433 C1439 0.950 . S
H1434 C1440 0.949 . S
C1435 H1430 0.950 . S
C1435 C1437 1.327 . S
C1435 C1441 1.429 . S
C1436 C1428 1.574 . S
C1436 H1431 0.949 . S
C1436 C1442 1.368 . S
C1437 C1421 1.349 . S
C1437 H1429 0.950 . S
C1437 C1435 1.327 . S
C1438 C1426 1.349 . S
C1438 H1432 0.950 . S
C1438 C1439 1.327 . S
C1439 H1433 0.950 . S
C1439 C1438 1.327 . S
C1439 C1443 1.429 . S
C1440 C1423 1.574 . S
C1440 H1434 0.949 . S
C1440 C1444 1.368 . S
C1441 C1422 1.429 . S
C1441 C1435 1.429 . S
C1441 C1442 1.523 . S
C1442 C1423 1.368 . S
C1442 C1436 1.368 . S
C1442 C1441 1.523 . S
C1443 C1427 1.429 . S
C1443 C1439 1.429 . S
C1443 C1444 1.523 . S
C1444 C1428 1.368 . S
C1444 C1440 1.368 . S
C1444 C1443 1.523 . S
H1445 C1420 0.950 . S
H1446 C1422 0.950 . S
H1447 C1423 0.949 . S
H1448 C1425 0.950 . S
H1449 C1427 0.950 . S
C1450 C1451 1.349 . S
C1450 C1452 1.327 . S
C1450 H1475 0.950 . S
C1451 C1450 1.349 . S
C1451 C1467 1.349 . S
C1452 C1450 1.327 . S
C1452 C1471 1.429 . S
C1452 H1476 0.950 . S
C1453 C1470 1.574 . S
C1453 C1472 1.368 . S
C1453 H1477 0.949 . S
H1454 C1458 0.949 . S
C1455 C1456 1.349 . S
C1455 C1457 1.327 . S
C1455 H1478 0.950 . S
C1456 C1455 1.349 . S
C1456 C1468 1.349 . S
C1457 C1455 1.327 . S
C1457 C1473 1.429 . S
C1457 H1479 0.950 . S
C1458 H1454 0.949 . S
C1458 C1466 1.574 . S
C1458 C1474 1.368 . S
H1459 C1467 0.950 . S
H1460 C1465 0.950 . S
H1461 C1466 0.949 . S
H1462 C1468 0.950 . S
H1463 C1469 0.950 . S
H1464 C1470 0.949 . S
C1465 H1460 0.950 . S
C1465 C1467 1.327 . S
C1465 C1471 1.429 . S
C1466 C1458 1.574 . S
C1466 H1461 0.949 . S
C1466 C1472 1.368 . S
C1467 C1451 1.349 . S
C1467 H1459 0.950 . S
C1467 C1465 1.327 . S
C1468 C1456 1.349 . S
C1468 H1462 0.950 . S
C1468 C1469 1.327 . S
C1469 H1463 0.950 . S
C1469 C1468 1.327 . S
C1469 C1473 1.429 . S
C1470 C1453 1.574 . S
C1470 H1464 0.949 . S
C1470 C1474 1.368 . S
C1471 C1452 1.429 . S
C1471 C1465 1.429 . S
C1471 C1472 1.523 . S
C1472 C1453 1.368 . S
C1472 C1466 1.368 . S
C1472 C1471 1.523 . S
C1473 C1457 1.429 . S
C1473 C1469 1.429 . S
C1473 C1474 1.523 . S
C1474 C1458 1.368 . S
C1474 C1470 1.368 . S
C1474 C1473 1.523 . S
H1475 C1450 0.950 . S
H1476 C1452 0.950 . S
H1477 C1453 0.949 . S
H1478 C1455 0.950 . S
H1479 C1457 0.950 . S
C1480 C1481 1.349 . S
C1480 C1482 1.327 . S
C1480 H1505 0.950 . S
C1481 C1480 1.349 . S
C1481 C1497 1.349 . S
C1482 C1480 1.327 . S
C1482 C1501 1.429 . S
C1482 H1506 0.950 . S
C1483 C1500 1.574 . S
C1483 C1502 1.368 . S
C1483 H1507 0.949 . S
H1484 C1488 0.949 . S
C1485 C1486 1.349 . S
C1485 C1487 1.327 . S
C1485 H1508 0.950 . S
C1486 C1485 1.349 . S
C1486 C1498 1.349 . S
C1487 C1485 1.327 . S
C1487 C1503 1.429 . S
C1487 H1509 0.950 . S
C1488 H1484 0.949 . S
C1488 C1496 1.574 . S
C1488 C1504 1.368 . S
H1489 C1497 0.950 . S
H1490 C1495 0.950 . S
H1491 C1496 0.949 . S
H1492 C1498 0.950 . S
H1493 C1499 0.950 . S
H1494 C1500 0.949 . S
C1495 H1490 0.950 . S
C1495 C1497 1.327 . S
C1495 C1501 1.429 . S
C1496 C1488 1.574 . S
C1496 H1491 0.949 . S
C1496 C1502 1.368 . S
C1497 C1481 1.349 . S
C1497 H1489 0.950 . S
C1497 C1495 1.327 . S
C1498 C1486 1.349 . S
C1498 H1492 0.950 . S
C1498 C1499 1.327 . S
C1499 H1493 0.950 . S
C1499 C1498 1.327 . S
C1499 C1503 1.429 . S
C1500 C1483 1.574 . S
C1500 H1494 0.949 . S
C1500 C1504 1.368 . S
C1501 C1482 1.429 . S
C1501 C1495 1.429 . S
C1501 C1502 1.523 . S
C1502 C1483 1.368 . S
C1502 C1496 1.368 . S
C1502 C1501 1.523 . S
C1503 C1487 1.429 . S
C1503 C1499 1.429 . S
C1503 C1504 1.523 . S
C1504 C1488 1.368 . S
C1504 C1500 1.368 . S
C1504 C1503 1.523 . S
H1505 C1480 0.950 . S
H1506 C1482 0.950 . S
H1507 C1483 0.949 . S
H1508 C1485 0.950 . S
H1509 C1487 0.950 . S
C1510 C1511 1.349 . S
C1510 C1512 1.327 . S
C1510 H1535 0.950 . S
C1511 C1510 1.349 . S
C1511 C1527 1.349 1_545 S
C1512 C1510 1.327 . S
C1512 C1531 1.429 . S
C1512 H1536 0.950 . S
C1513 C1530 1.574 . S
C1513 C1532 1.368 1_565 S
C1513 H1537 0.949 . S
H1514 C1518 0.949 . S
C1515 C1516 1.349 1_565 S
C1515 C1517 1.327 . S
C1515 H1538 0.950 . S
C1516 C1515 1.349 1_545 S
C1516 C1528 1.349 . S
C1517 C1515 1.327 . S
C1517 C1533 1.429 1_565 S
C1517 H1539 0.950 . S
C1518 H1514 0.949 . S
C1518 C1526 1.574 . S
C1518 C1534 1.368 . S
H1519 C1527 0.950 1_455 S
H1520 C1525 0.950 . S
H1521 C1526 0.949 . S
H1522 C1528 0.950 . S
H1523 C1529 0.950 . S
H1524 C1530 0.949 . S
C1525 H1520 0.950 . S
C1525 C1527 1.327 . S
C1525 C1531 1.429 1_565 S
C1526 C1518 1.574 . S
C1526 H1521 0.949 . S
C1526 C1532 1.368 . S
C1527 C1511 1.349 1_565 S
C1527 H1519 0.950 1_655 S
C1527 C1525 1.327 . S
C1528 C1516 1.349 . S
C1528 H1522 0.950 . S
C1528 C1529 1.327 . S
C1529 H1523 0.950 . S
C1529 C1528 1.327 . S
C1529 C1533 1.429 . S
C1530 C1513 1.574 . S
C1530 H1524 0.949 . S
C1530 C1534 1.368 1_565 S
C1531 C1512 1.429 . S
C1531 C1525 1.429 1_545 S
C1531 C1532 1.523 . S
C1532 C1513 1.368 1_545 S
C1532 C1526 1.368 . S
C1532 C1531 1.523 . S
C1533 C1517 1.429 1_545 S
C1533 C1529 1.429 . S
C1533 C1534 1.523 . S
C1534 C1518 1.368 . S
C1534 C1530 1.368 1_545 S
C1534 C1533 1.523 . S
H1535 C1510 0.950 . S
H1536 C1512 0.950 . S
H1537 C1513 0.949 . S
H1538 C1515 0.950 . S
H1539 C1517 0.950 . S
C1540 C1541 1.349 . S
C1540 C1542 1.327 . S
C1540 H1565 0.950 . S
C1541 C1540 1.349 . S
C1541 C1557 1.349 . S
C1542 C1540 1.327 . S
C1542 C1561 1.429 . S
C1542 H1566 0.950 . S
C1543 C1560 1.574 . S
C1543 C1562 1.368 . S
C1543 H1567 0.949 . S
H1544 C1548 0.949 . S
C1545 C1546 1.349 . S
C1545 C1547 1.327 . S
C1545 H1568 0.950 . S
C1546 C1545 1.349 . S
C1546 C1558 1.349 . S
C1547 C1545 1.327 . S
C1547 C1563 1.429 . S
C1547 H1569 0.950 . S
C1548 H1544 0.949 . S
C1548 C1556 1.574 . S
C1548 C1564 1.368 . S
H1549 C1557 0.950 . S
H1550 C1555 0.950 . S
H1551 C1556 0.949 . S
H1552 C1558 0.950 . S
H1553 C1559 0.950 . S
H1554 C1560 0.949 . S
C1555 H1550 0.950 . S
C1555 C1557 1.327 . S
C1555 C1561 1.429 . S
C1556 C1548 1.574 . S
C1556 H1551 0.949 . S
C1556 C1562 1.368 . S
C1557 C1541 1.349 . S
C1557 H1549 0.950 . S
C1557 C1555 1.327 . S
C1558 C1546 1.349 . S
C1558 H1552 0.950 . S
C1558 C1559 1.327 . S
C1559 H1553 0.950 . S
C1559 C1558 1.327 . S
C1559 C1563 1.429 . S
C1560 C1543 1.574 . S
C1560 H1554 0.949 . S
C1560 C1564 1.368 . S
C1561 C1542 1.429 . S
C1561 C1555 1.429 . S
C1561 C1562 1.523 . S
C1562 C1543 1.368 . S
C1562 C1556 1.368 . S
C1562 C1561 1.523 . S
C1563 C1547 1.429 . S
C1563 C1559 1.429 . S
C1563 C1564 1.523 . S
C1564 C1548 1.368 . S
C1564 C1560 1.368 . S
C1564 C1563 1.523 . S
H1565 C1540 0.950 . S
H1566 C1542 0.950 . S
H1567 C1543 0.949 . S
H1568 C1545 0.950 . S
H1569 C1547 0.950 . S
C1570 C1571 1.344 1_655 S
C1570 C1572 1.327 1_655 S
C1570 H1595 0.950 . S
C1571 C1570 1.344 1_455 S
C1571 C1587 1.376 . S
C1572 C1570 1.327 1_455 S
C1572 C1591 1.429 . S
C1572 H1596 0.950 . S
C1573 C1590 1.574 . S
C1573 C1592 1.368 . S
C1573 H1597 0.949 . S
H1574 C1578 0.949 . S
C1575 C1576 1.349 . S
C1575 C1577 1.327 . S
C1575 H1598 0.950 . S
C1576 C1575 1.349 . S
C1576 C1588 1.349 . S
C1577 C1575 1.327 . S
C1577 C1593 1.429 . S
C1577 H1599 0.950 . S
C1578 H1574 0.949 . S
C1578 C1586 1.574 . S
C1578 C1594 1.368 . S
H1579 C1587 0.950 . S
H1580 C1585 0.950 . S
H1581 C1586 0.949 . S
H1582 C1588 0.950 . S
H1583 C1589 0.950 . S
H1584 C1590 0.949 . S
C1585 H1580 0.950 . S
C1585 C1587 1.327 . S
C1585 C1591 1.429 . S
C1586 C1578 1.574 . S
C1586 H1581 0.949 . S
C1586 C1592 1.368 . S
C1587 C1571 1.376 . S
C1587 H1579 0.950 . S
C1587 C1585 1.327 . S
C1588 C1576 1.349 . S
C1588 H1582 0.950 . S
C1588 C1589 1.327 . S
C1589 H1583 0.950 . S
C1589 C1588 1.327 . S
C1589 C1593 1.429 . S
C1590 C1573 1.574 . S
C1590 H1584 0.949 . S
C1590 C1594 1.368 . S
C1591 C1572 1.429 . S
C1591 C1585 1.429 . S
C1591 C1592 1.523 . S
C1592 C1573 1.368 . S
C1592 C1586 1.368 . S
C1592 C1591 1.523 . S
C1593 C1577 1.429 . S
C1593 C1589 1.429 . S
C1593 C1594 1.523 . S
C1594 C1578 1.368 . S
C1594 C1590 1.368 . S
C1594 C1593 1.523 . S
H1595 C1570 0.950 . S
H1596 C1572 0.950 . S
H1597 C1573 0.949 . S
H1598 C1575 0.950 . S
H1599 C1577 0.950 . S
C1600 C1601 1.349 . S
C1600 C1602 1.327 . S
C1600 H1625 0.950 . S
C1601 C1600 1.349 . S
C1601 C1617 1.349 . S
C1602 C1600 1.327 . S
C1602 C1621 1.429 . S
C1602 H1626 0.950 . S
C1603 C1620 1.574 . S
C1603 C1622 1.368 . S
C1603 H1627 0.949 . S
H1604 C1608 0.949 . S
C1605 C1606 1.349 . S
C1605 C1607 1.327 . S
C1605 H1628 0.950 . S
C1606 C1605 1.349 . S
C1606 C1618 1.349 . S
C1607 C1605 1.327 . S
C1607 C1623 1.429 . S
C1607 H1629 0.950 . S
C1608 H1604 0.949 . S
C1608 C1616 1.574 . S
C1608 C1624 1.368 . S
H1609 C1617 0.950 . S
H1610 C1615 0.950 . S
H1611 C1616 0.949 . S
H1612 C1618 0.950 . S
H1613 C1619 0.950 . S
H1614 C1620 0.949 . S
C1615 H1610 0.950 . S
C1615 C1617 1.327 . S
C1615 C1621 1.429 . S
C1616 C1608 1.574 . S
C1616 H1611 0.949 . S
C1616 C1622 1.368 . S
C1617 C1601 1.349 . S
C1617 H1609 0.950 . S
C1617 C1615 1.327 . S
C1618 C1606 1.349 . S
C1618 H1612 0.950 . S
C1618 C1619 1.327 . S
C1619 H1613 0.950 . S
C1619 C1618 1.327 . S
C1619 C1623 1.429 . S
C1620 C1603 1.574 . S
C1620 H1614 0.949 . S
C1620 C1624 1.368 . S
C1621 C1602 1.429 . S
C1621 C1615 1.429 . S
C1621 C1622 1.523 . S
C1622 C1603 1.368 . S
C1622 C1616 1.368 . S
C1622 C1621 1.523 . S
C1623 C1607 1.429 . S
C1623 C1619 1.429 . S
C1623 C1624 1.523 . S
C1624 C1608 1.368 . S
C1624 C1620 1.368 . S
C1624 C1623 1.523 . S
H1625 C1600 0.950 . S
H1626 C1602 0.950 . S
H1627 C1603 0.949 . S
H1628 C1605 0.950 . S
H1629 C1607 0.950 . S
C1630 C1631 1.349 . S
C1630 C1632 1.327 . S
C1630 H1655 0.950 . S
C1631 C1630 1.349 . S
C1631 C1647 1.349 . S
C1632 C1630 1.327 . S
C1632 C1651 1.429 . S
C1632 H1656 0.950 . S
C1633 C1650 1.574 . S
C1633 C1652 1.363 1_456 S
C1633 H1657 0.949 . S
H1634 C1638 0.949 . S
C1635 C1636 1.349 . S
C1635 C1637 1.327 . S
C1635 H1658 0.950 . S
C1636 C1635 1.349 . S
C1636 C1648 1.349 1_455 S
C1637 C1635 1.327 . S
C1637 C1653 1.405 1_455 S
C1637 H1659 0.950 . S
C1638 H1634 0.949 . S
C1638 C1646 1.574 1_556 S
C1638 C1654 1.368 . S
H1639 C1647 0.950 1_455 S
H1640 C1645 0.991 . S
H1641 C1646 0.949 . S
H1642 C1648 0.950 . S
H1643 C1649 0.950 . S
H1644 C1650 0.949 . S
C1645 H1640 0.991 . S
C1645 C1647 1.317 1_455 S
C1645 C1651 1.400 1_455 S
C1646 C1638 1.574 1_554 S
C1646 H1641 0.949 . S
C1646 C1652 1.371 . S
C1647 C1631 1.349 . S
C1647 H1639 0.950 1_655 S
C1647 C1645 1.317 1_655 S
C1648 C1636 1.349 1_655 S
C1648 H1642 0.950 . S
C1648 C1649 1.327 . S
C1649 H1643 0.950 . S
C1649 C1648 1.327 . S
C1649 C1653 1.446 . S
C1650 C1633 1.574 . S
C1650 H1644 0.949 . S
C1650 C1654 1.368 1_455 S
C1651 C1632 1.429 . S
C1651 C1645 1.400 1_655 S
C1651 C1652 1.526 . S
C1652 C1633 1.363 1_654 S
C1652 C1646 1.371 . S
C1652 C1651 1.526 . S
C1653 C1637 1.405 1_655 S
C1653 C1649 1.446 . S
C1653 C1654 1.529 . S
C1654 C1638 1.368 . S
C1654 C1650 1.368 1_655 S
C1654 C1653 1.529 . S
H1655 C1630 0.950 . S
H1656 C1632 0.950 . S
H1657 C1633 0.949 . S
H1658 C1635 0.950 . S
H1659 C1637 0.950 . S
C1660 C1661 1.349 . S
C1660 C1662 1.327 . S
C1660 H1685 0.950 . S
C1661 C1660 1.349 . S
C1661 C1677 1.349 . S
C1662 C1660 1.327 . S
C1662 C1681 1.429 . S
C1662 H1686 0.950 . S
C1663 C1680 1.574 . S
C1663 C1682 1.368 . S
C1663 H1687 0.949 . S
H1664 C1668 0.949 . S
C1665 C1666 1.349 . S
C1665 C1667 1.327 . S
C1665 H1688 0.950 . S
C1666 C1665 1.349 . S
C1666 C1678 1.349 . S
C1667 C1665 1.327 . S
C1667 C1683 1.429 . S
C1667 H1689 0.950 . S
C1668 H1664 0.949 . S
C1668 C1676 1.574 . S
C1668 C1684 1.368 . S
H1669 C1677 0.950 . S
H1670 C1675 0.950 . S
H1671 C1676 0.949 . S
H1672 C1678 0.950 . S
H1673 C1679 0.950 . S
H1674 C1680 0.949 . S
C1675 H1670 0.950 . S
C1675 C1677 1.327 . S
C1675 C1681 1.429 . S
C1676 C1668 1.574 . S
C1676 H1671 0.949 . S
C1676 C1682 1.368 . S
C1677 C1661 1.349 . S
C1677 H1669 0.950 . S
C1677 C1675 1.327 . S
C1678 C1666 1.349 . S
C1678 H1672 0.950 . S
C1678 C1679 1.327 . S
C1679 H1673 0.950 . S
C1679 C1678 1.327 . S
C1679 C1683 1.429 . S
C1680 C1663 1.574 . S
C1680 H1674 0.949 . S
C1680 C1684 1.368 . S
C1681 C1662 1.429 . S
C1681 C1675 1.429 . S
C1681 C1682 1.523 . S
C1682 C1663 1.368 . S
C1682 C1676 1.368 . S
C1682 C1681 1.523 . S
C1683 C1667 1.429 . S
C1683 C1679 1.429 . S
C1683 C1684 1.523 . S
C1684 C1668 1.368 . S
C1684 C1680 1.368 . S
C1684 C1683 1.523 . S
H1685 C1660 0.950 . S
H1686 C1662 0.950 . S
H1687 C1663 0.949 . S
H1688 C1665 0.950 . S
H1689 C1667 0.950 . S
C1690 C1691 1.349 . S
C1690 C1692 1.327 . S
C1690 H1715 0.950 . S
C1691 C1690 1.349 . S
C1691 C1707 1.349 . S
C1692 C1690 1.327 . S
C1692 C1711 1.429 . S
C1692 H1716 0.950 1_554 S
C1693 C1710 1.574 1_554 S
C1693 C1712 1.368 1_554 S
C1693 H1717 0.949 . S
H1694 C1698 0.949 . S
C1695 C1696 1.349 . S
C1695 C1697 1.327 . S
C1695 H1718 0.950 . S
C1696 C1695 1.349 . S
C1696 C1708 1.349 . S
C1697 C1695 1.327 . S
C1697 C1713 1.429 . S
C1697 H1719 0.950 . S
C1698 H1694 0.949 . S
C1698 C1706 1.574 . S
C1698 C1714 1.368 . S
H1699 C1707 0.950 . S
H1700 C1705 0.950 . S
H1701 C1706 0.949 . S
H1702 C1708 0.950 1_655 S
H1703 C1709 0.950 1_655 S
H1704 C1710 0.949 . S
C1705 H1700 0.950 . S
C1705 C1707 1.327 . S
C1705 C1711 1.429 . S
C1706 C1698 1.574 . S
C1706 H1701 0.949 . S
C1706 C1712 1.368 . S
C1707 C1691 1.349 . S
C1707 H1699 0.950 . S
C1707 C1705 1.327 . S
C1708 C1696 1.349 . S
C1708 H1702 0.950 1_455 S
C1708 C1709 1.327 . S
C1709 H1703 0.950 1_455 S
C1709 C1708 1.327 . S
C1709 C1713 1.429 . S
C1710 C1693 1.574 1_556 S
C1710 H1704 0.949 . S
C1710 C1714 1.368 . S
C1711 C1692 1.429 . S
C1711 C1705 1.429 . S
C1711 C1712 1.523 1_554 S
C1712 C1693 1.368 1_556 S
C1712 C1706 1.368 . S
C1712 C1711 1.523 1_556 S
C1713 C1697 1.429 . S
C1713 C1709 1.429 . S
C1713 C1714 1.523 . S
C1714 C1698 1.368 . S
C1714 C1710 1.368 . S
C1714 C1713 1.523 . S
H1715 C1690 0.950 . S
H1716 C1692 0.950 1_556 S
H1717 C1693 0.949 . S
H1718 C1695 0.950 . S
H1719 C1697 0.950 . S
C1720 C1721 1.349 . S
C1720 C1722 1.327 . S
C1720 H1745 0.950 . S
C1721 C1720 1.349 . S
C1721 C1737 1.349 . S
C1722 C1720 1.327 . S
C1722 C1741 1.429 . S
C1722 H1746 0.950 . S
C1723 C1740 1.574 . S
C1723 C1742 1.368 . S
C1723 H1747 0.949 . S
H1724 C1728 0.949 . S
C1725 C1726 1.349 . S
C1725 C1727 1.327 . S
C1725 H1748 0.950 . S
C1726 C1725 1.349 . S
C1726 C1738 1.349 . S
C1727 C1725 1.327 . S
C1727 C1743 1.429 . S
C1727 H1749 0.950 . S
C1728 H1724 0.949 . S
C1728 C1736 1.574 . S
C1728 C1744 1.368 . S
H1729 C1737 0.950 . S
H1730 C1735 0.950 . S
H1731 C1736 0.949 . S
H1732 C1738 0.950 . S
H1733 C1739 0.950 . S
H1734 C1740 0.949 . S
C1735 H1730 0.950 . S
C1735 C1737 1.327 . S
C1735 C1741 1.429 . S
C1736 C1728 1.574 . S
C1736 H1731 0.949 . S
C1736 C1742 1.368 . S
C1737 C1721 1.349 . S
C1737 H1729 0.950 . S
C1737 C1735 1.327 . S
C1738 C1726 1.349 . S
C1738 H1732 0.950 . S
C1738 C1739 1.327 . S
C1739 H1733 0.950 . S
C1739 C1738 1.327 . S
C1739 C1743 1.429 . S
C1740 C1723 1.574 . S
C1740 H1734 0.949 . S
C1740 C1744 1.368 . S
C1741 C1722 1.429 . S
C1741 C1735 1.429 . S
C1741 C1742 1.523 . S
C1742 C1723 1.368 . S
C1742 C1736 1.368 . S
C1742 C1741 1.523 . S
C1743 C1727 1.429 . S
C1743 C1739 1.429 . S
C1743 C1744 1.523 . S
C1744 C1728 1.368 . S
C1744 C1740 1.368 . S
C1744 C1743 1.523 . S
H1745 C1720 0.950 . S
H1746 C1722 0.950 . S
H1747 C1723 0.949 . S
H1748 C1725 0.950 . S
H1749 C1727 0.950 . S
C1750 C1751 1.350 1_554 S
C1750 C1752 1.327 . S
C1750 H1775 0.950 . S
C1751 C1750 1.350 1_556 S
C1751 C1767 1.350 1_556 S
C1752 C1750 1.327 . S
C1752 C1771 1.429 . S
C1752 H1776 0.950 . S
C1753 C1770 1.574 . S
C1753 C1772 1.368 . S
C1753 H1777 0.949 . S
H1754 C1758 0.949 . S
C1755 C1756 1.349 . S
C1755 C1757 1.327 . S
C1755 H1778 0.950 . S
C1756 C1755 1.349 . S
C1756 C1768 1.349 . S
C1757 C1755 1.327 . S
C1757 C1773 1.429 . S
C1757 H1779 0.950 . S
C1758 H1754 0.949 . S
C1758 C1766 1.574 . S
C1758 C1774 1.368 . S
H1759 C1767 0.942 1_556 S
H1760 C1765 0.950 . S
H1761 C1766 0.949 . S
H1762 C1768 0.950 . S
H1763 C1769 0.950 . S
H1764 C1770 0.949 . S
C1765 H1760 0.950 . S
C1765 C1767 1.327 . S
C1765 C1771 1.429 . S
C1766 C1758 1.574 . S
C1766 H1761 0.949 . S
C1766 C1772 1.368 . S
C1767 C1751 1.350 1_554 S
C1767 H1759 0.942 1_554 S
C1767 C1765 1.327 . S
C1768 C1756 1.349 . S
C1768 H1762 0.950 . S
C1768 C1769 1.327 . S
C1769 H1763 0.950 . S
C1769 C1768 1.327 . S
C1769 C1773 1.429 . S
C1770 C1753 1.574 . S
C1770 H1764 0.949 . S
C1770 C1774 1.368 . S
C1771 C1752 1.429 . S
C1771 C1765 1.429 . S
C1771 C1772 1.523 . S
C1772 C1753 1.368 . S
C1772 C1766 1.368 . S
C1772 C1771 1.523 . S
C1773 C1757 1.429 . S
C1773 C1769 1.429 . S
C1773 C1774 1.523 . S
C1774 C1758 1.368 . S
C1774 C1770 1.368 . S
C1774 C1773 1.523 . S
H1775 C1750 0.950 . S
H1776 C1752 0.950 . S
H1777 C1753 0.949 . S
H1778 C1755 0.950 . S
H1779 C1757 0.950 . S
C1780 C1781 1.349 . S
C1780 C1782 1.327 . S
C1780 H1805 0.950 . S
C1781 C1780 1.349 . S
C1781 C1797 1.349 . S
C1782 C1780 1.327 . S
C1782 C1801 1.429 . S
C1782 H1806 0.950 . S
C1783 C1800 1.574 . S
C1783 C1802 1.368 . S
C1783 H1807 0.949 . S
H1784 C1788 0.949 . S
C1785 C1786 1.349 . S
C1785 C1787 1.327 . S
C1785 H1808 0.950 . S
C1786 C1785 1.349 . S
C1786 C1798 1.349 . S
C1787 C1785 1.327 . S
C1787 C1803 1.429 . S
C1787 H1809 0.950 . S
C1788 H1784 0.949 . S
C1788 C1796 1.574 . S
C1788 C1804 1.368 . S
H1789 C1797 0.950 . S
H1790 C1795 0.950 . S
H1791 C1796 0.949 . S
H1792 C1798 0.950 . S
H1793 C1799 0.950 . S
H1794 C1800 0.949 . S
C1795 H1790 0.950 . S
C1795 C1797 1.327 . S
C1795 C1801 1.429 . S
C1796 C1788 1.574 . S
C1796 H1791 0.949 . S
C1796 C1802 1.368 . S
C1797 C1781 1.349 . S
C1797 H1789 0.950 . S
C1797 C1795 1.327 . S
C1798 C1786 1.349 . S
C1798 H1792 0.950 . S
C1798 C1799 1.327 . S
C1799 H1793 0.950 . S
C1799 C1798 1.327 . S
C1799 C1803 1.429 . S
C1800 C1783 1.574 . S
C1800 H1794 0.949 . S
C1800 C1804 1.368 . S
C1801 C1782 1.429 . S
C1801 C1795 1.429 . S
C1801 C1802 1.523 . S
C1802 C1783 1.368 . S
C1802 C1796 1.368 . S
C1802 C1801 1.523 . S
C1803 C1787 1.429 . S
C1803 C1799 1.429 . S
C1803 C1804 1.523 . S
C1804 C1788 1.368 . S
C1804 C1800 1.368 . S
C1804 C1803 1.523 . S
H1805 C1780 0.950 . S
H1806 C1782 0.950 . S
H1807 C1783 0.949 . S
H1808 C1785 0.950 . S
H1809 C1787 0.950 . S
C1810 C1811 1.328 1_556 S
C1810 C1812 1.327 1_556 S
C1810 H1835 0.950 . S
C1811 C1810 1.328 1_554 S
C1811 C1827 1.394 . S
C1812 C1810 1.327 1_554 S
C1812 C1831 1.429 . S
C1812 H1836 0.933 1_554 S
C1813 C1830 1.574 . S
C1813 C1832 1.368 . S
C1813 H1837 0.949 . S
H1814 C1818 0.949 . S
C1815 C1816 1.349 . S
C1815 C1817 1.327 . S
C1815 H1838 0.950 . S
C1816 C1815 1.349 . S
C1816 C1828 1.349 . S
C1817 C1815 1.327 . S
C1817 C1833 1.429 . S
C1817 H1839 0.950 . S
C1818 H1814 0.949 . S
C1818 C1826 1.574 . S
C1818 C1834 1.368 . S
H1819 C1827 0.950 . S
H1820 C1825 0.950 . S
H1821 C1826 0.949 . S
H1822 C1828 0.950 . S
H1823 C1829 0.950 . S
H1824 C1830 0.949 . S
C1825 H1820 0.950 . S
C1825 C1827 1.327 . S
C1825 C1831 1.429 . S
C1826 C1818 1.574 . S
C1826 H1821 0.949 . S
C1826 C1832 1.368 . S
C1827 C1811 1.394 . S
C1827 H1819 0.950 . S
C1827 C1825 1.327 . S
C1828 C1816 1.349 . S
C1828 H1822 0.950 . S
C1828 C1829 1.327 . S
C1829 H1823 0.950 . S
C1829 C1828 1.327 . S
C1829 C1833 1.429 . S
C1830 C1813 1.574 . S
C1830 H1824 0.949 . S
C1830 C1834 1.368 . S
C1831 C1812 1.429 . S
C1831 C1825 1.429 . S
C1831 C1832 1.523 . S
C1832 C1813 1.368 . S
C1832 C1826 1.368 . S
C1832 C1831 1.523 . S
C1833 C1817 1.429 . S
C1833 C1829 1.429 . S
C1833 C1834 1.523 . S
C1834 C1818 1.368 . S
C1834 C1830 1.368 . S
C1834 C1833 1.523 . S
H1835 C1810 0.950 . S
H1836 C1812 0.933 1_556 S
H1837 C1813 0.949 . S
H1838 C1815 0.950 . S
H1839 C1817 0.950 . S
C1840 C1841 1.349 . S
C1840 C1842 1.327 . S
C1840 H1865 0.950 . S
C1841 C1840 1.349 . S
C1841 C1857 1.349 . S
C1842 C1840 1.327 . S
C1842 C1861 1.429 . S
C1842 H1866 0.950 . S
C1843 C1860 1.574 . S
C1843 C1862 1.368 . S
C1843 H1867 0.949 . S
H1844 C1848 0.949 . S
C1845 C1846 1.349 . S
C1845 C1847 1.327 . S
C1845 H1868 0.950 . S
C1846 C1845 1.349 . S
C1846 C1858 1.349 . S
C1847 C1845 1.327 . S
C1847 C1863 1.429 . S
C1847 H1869 0.950 . S
C1848 H1844 0.949 . S
C1848 C1856 1.574 . S
C1848 C1864 1.368 . S
H1849 C1857 0.950 . S
H1850 C1855 0.950 . S
H1851 C1856 0.949 . S
H1852 C1858 0.950 . S
H1853 C1859 0.950 . S
H1854 C1860 0.949 . S
C1855 H1850 0.950 . S
C1855 C1857 1.327 . S
C1855 C1861 1.429 . S
C1856 C1848 1.574 . S
C1856 H1851 0.949 . S
C1856 C1862 1.368 . S
C1857 C1841 1.349 . S
C1857 H1849 0.950 . S
C1857 C1855 1.327 . S
C1858 C1846 1.349 . S
C1858 H1852 0.950 . S
C1858 C1859 1.327 . S
C1859 H1853 0.950 . S
C1859 C1858 1.327 . S
C1859 C1863 1.429 . S
C1860 C1843 1.574 . S
C1860 H1854 0.949 . S
C1860 C1864 1.368 . S
C1861 C1842 1.429 . S
C1861 C1855 1.429 . S
C1861 C1862 1.523 . S
C1862 C1843 1.368 . S
C1862 C1856 1.368 . S
C1862 C1861 1.523 . S
C1863 C1847 1.429 . S
C1863 C1859 1.429 . S
C1863 C1864 1.523 . S
C1864 C1848 1.368 . S
C1864 C1860 1.368 . S
C1864 C1863 1.523 . S
H1865 C1840 0.950 . S
H1866 C1842 0.950 . S
H1867 C1843 0.949 . S
H1868 C1845 0.950 . S
H1869 C1847 0.950 . S
C1870 C1871 1.349 . S
C1870 C1872 1.327 . S
C1870 H1895 0.950 . S
C1871 C1870 1.349 . S
C1871 C1887 1.349 . S
C1872 C1870 1.327 . S
C1872 C1891 1.429 . S
C1872 H1896 0.950 . S
C1873 C1890 1.574 . S
C1873 C1892 1.368 . S
C1873 H1897 0.949 . S
H1874 C1878 0.949 . S
C1875 C1876 1.349 . S
C1875 C1877 1.327 . S
C1875 H1898 0.950 . S
C1876 C1875 1.349 . S
C1876 C1888 1.349 . S
C1877 C1875 1.327 . S
C1877 C1893 1.429 . S
C1877 H1899 0.950 . S
C1878 H1874 0.949 . S
C1878 C1886 1.574 . S
C1878 C1894 1.368 . S
H1879 C1887 0.950 . S
H1880 C1885 0.950 . S
H1881 C1886 0.949 . S
H1882 C1888 0.950 . S
H1883 C1889 0.950 . S
H1884 C1890 0.949 . S
C1885 H1880 0.950 . S
C1885 C1887 1.327 . S
C1885 C1891 1.429 . S
C1886 C1878 1.574 . S
C1886 H1881 0.949 . S
C1886 C1892 1.368 . S
C1887 C1871 1.349 . S
C1887 H1879 0.950 . S
C1887 C1885 1.327 . S
C1888 C1876 1.349 . S
C1888 H1882 0.950 . S
C1888 C1889 1.327 . S
C1889 H1883 0.950 . S
C1889 C1888 1.327 . S
C1889 C1893 1.429 . S
C1890 C1873 1.574 . S
C1890 H1884 0.949 . S
C1890 C1894 1.368 . S
C1891 C1872 1.429 . S
C1891 C1885 1.429 . S
C1891 C1892 1.523 . S
C1892 C1873 1.368 . S
C1892 C1886 1.368 . S
C1892 C1891 1.523 . S
C1893 C1877 1.429 . S
C1893 C1889 1.429 . S
C1893 C1894 1.523 . S
C1894 C1878 1.368 . S
C1894 C1890 1.368 . S
C1894 C1893 1.523 . S
H1895 C1870 0.950 . S
H1896 C1872 0.950 . S
H1897 C1873 0.949 . S
H1898 C1875 0.950 . S
H1899 C1877 0.950 . S
C1900 C1901 1.349 . S
C1900 C1902 1.327 . S
C1900 H1925 0.950 . S
C1901 C1900 1.349 . S
C1901 C1917 1.349 . S
C1902 C1900 1.327 . S
C1902 C1921 1.429 . S
C1902 H1926 0.950 . S
C1903 C1920 1.574 . S
C1903 C1922 1.368 . S
C1903 H1927 0.949 . S
H1904 C1908 0.949 . S
C1905 C1906 1.349 . S
C1905 C1907 1.327 . S
C1905 H1928 0.950 . S
C1906 C1905 1.349 . S
C1906 C1918 1.349 . S
C1907 C1905 1.327 . S
C1907 C1923 1.429 . S
C1907 H1929 0.950 . S
C1908 H1904 0.949 . S
C1908 C1916 1.574 . S
C1908 C1924 1.368 . S
H1909 C1917 0.950 . S
H1910 C1915 0.950 . S
H1911 C1916 0.949 . S
H1912 C1918 0.950 . S
H1913 C1919 0.950 . S
H1914 C1920 0.949 . S
C1915 H1910 0.950 . S
C1915 C1917 1.327 . S
C1915 C1921 1.429 . S
C1916 C1908 1.574 . S
C1916 H1911 0.949 . S
C1916 C1922 1.368 . S
C1917 C1901 1.349 . S
C1917 H1909 0.950 . S
C1917 C1915 1.327 . S
C1918 C1906 1.349 . S
C1918 H1912 0.950 . S
C1918 C1919 1.327 . S
C1919 H1913 0.950 . S
C1919 C1918 1.327 . S
C1919 C1923 1.429 . S
C1920 C1903 1.574 . S
C1920 H1914 0.949 . S
C1920 C1924 1.368 . S
C1921 C1902 1.429 . S
C1921 C1915 1.429 . S
C1921 C1922 1.523 . S
C1922 C1903 1.368 . S
C1922 C1916 1.368 . S
C1922 C1921 1.523 . S
C1923 C1907 1.429 . S
C1923 C1919 1.429 . S
C1923 C1924 1.523 . S
C1924 C1908 1.368 . S
C1924 C1920 1.368 . S
C1924 C1923 1.523 . S
H1925 C1900 0.950 . S
H1926 C1902 0.950 . S
H1927 C1903 0.949 . S
H1928 C1905 0.950 . S
H1929 C1907 0.950 . S
C1930 C1931 1.349 . S
C1930 C1932 1.327 . S
C1930 H1955 0.950 . S
C1931 C1930 1.349 . S
C1931 C1947 1.349 . S
C1932 C1930 1.327 . S
C1932 C1951 1.429 . S
C1932 H1956 0.950 . S
C1933 C1950 1.574 . S
C1933 C1952 1.368 . S
C1933 H1957 0.949 . S
H1934 C1938 0.949 . S
C1935 C1936 1.349 . S
C1935 C1937 1.327 . S
C1935 H1958 0.950 . S
C1936 C1935 1.349 . S
C1936 C1948 1.349 . S
C1937 C1935 1.327 . S
C1937 C1953 1.429 . S
C1937 H1959 0.950 . S
C1938 H1934 0.949 . S
C1938 C1946 1.574 . S
C1938 C1954 1.368 . S
H1939 C1947 0.950 . S
H1940 C1945 0.950 . S
H1941 C1946 0.949 . S
H1942 C1948 0.950 . S
H1943 C1949 0.950 . S
H1944 C1950 0.949 . S
C1945 H1940 0.950 . S
C1945 C1947 1.327 . S
C1945 C1951 1.429 . S
C1946 C1938 1.574 . S
C1946 H1941 0.949 . S
C1946 C1952 1.368 . S
C1947 C1931 1.349 . S
C1947 H1939 0.950 . S
C1947 C1945 1.327 . S
C1948 C1936 1.349 . S
C1948 H1942 0.950 . S
C1948 C1949 1.327 . S
C1949 H1943 0.950 . S
C1949 C1948 1.327 . S
C1949 C1953 1.429 . S
C1950 C1933 1.574 . S
C1950 H1944 0.949 . S
C1950 C1954 1.368 . S
C1951 C1932 1.429 . S
C1951 C1945 1.429 . S
C1951 C1952 1.523 . S
C1952 C1933 1.368 . S
C1952 C1946 1.368 . S
C1952 C1951 1.523 . S
C1953 C1937 1.429 . S
C1953 C1949 1.429 . S
C1953 C1954 1.523 . S
C1954 C1938 1.368 . S
C1954 C1950 1.368 . S
C1954 C1953 1.523 . S
H1955 C1930 0.950 . S
H1956 C1932 0.950 . S
H1957 C1933 0.949 . S
H1958 C1935 0.950 . S
H1959 C1937 0.950 . S
C1960 C1961 1.349 . S
C1960 C1962 1.327 . S
C1960 H1985 0.953 1_556 S
C1961 C1960 1.349 . S
C1961 C1977 1.349 . S
C1962 C1960 1.327 . S
C1962 C1981 1.429 . S
C1962 H1986 0.950 1_556 S
C1963 C1980 1.574 . S
C1963 C1982 1.368 . S
C1963 H1987 0.949 . S
H1964 C1968 0.949 . S
C1965 C1966 1.382 . S
C1965 C1967 1.327 . S
C1965 H1988 0.950 . S
C1966 C1965 1.382 . S
C1966 C1978 1.319 1_556 S
C1967 C1965 1.327 . S
C1967 C1983 1.429 . S
C1967 H1989 0.950 . S
C1968 H1964 0.949 . S
C1968 C1976 1.576 . S
C1968 C1984 1.368 1_554 S
H1969 C1977 0.950 . S
H1970 C1975 0.950 . S
H1971 C1976 0.969 . S
H1972 C1978 0.950 . S
H1973 C1979 0.950 . S
H1974 C1980 0.949 . S
C1975 H1970 0.950 . S
C1975 C1977 1.327 . S
C1975 C1981 1.429 . S
C1976 C1968 1.576 . S
C1976 H1971 0.969 . S
C1976 C1982 1.346 1_554 S
C1977 C1961 1.349 . S
C1977 H1969 0.950 . S
C1977 C1975 1.327 . S
C1978 C1966 1.319 1_554 S
C1978 H1972 0.950 . S
C1978 C1979 1.327 . S
C1979 H1973 0.950 . S
C1979 C1978 1.327 . S
C1979 C1983 1.429 1_554 S
C1980 C1963 1.574 . S
C1980 H1974 0.949 . S
C1980 C1984 1.368 . S
C1981 C1962 1.429 . S
C1981 C1975 1.429 . S
C1981 C1982 1.523 . S
C1982 C1963 1.368 . S
C1982 C1976 1.346 1_556 S
C1982 C1981 1.523 . S
C1983 C1967 1.429 . S
C1983 C1979 1.429 1_556 S
C1983 C1984 1.523 . S
C1984 C1968 1.368 1_556 S
C1984 C1980 1.368 . S
C1984 C1983 1.523 . S
H1985 C1960 0.953 1_554 S
H1986 C1962 0.950 1_554 S
H1987 C1963 0.949 . S
H1988 C1965 0.950 . S
H1989 C1967 0.950 . S
C1990 C1991 1.349 . S
C1990 C1992 1.327 . S
C1990 H2015 0.950 . S
C1991 C1990 1.349 . S
C1991 C2007 1.349 . S
C1992 C1990 1.327 . S
C1992 C2011 1.429 . S
C1992 H2016 0.950 . S
C1993 C2010 1.574 . S
C1993 C2012 1.368 . S
C1993 H2017 0.949 . S
H1994 C1998 0.949 . S
C1995 C1996 1.349 . S
C1995 C1997 1.327 . S
C1995 H2018 0.950 . S
C1996 C1995 1.349 . S
C1996 C2008 1.349 . S
C1997 C1995 1.327 . S
C1997 C2013 1.429 . S
C1997 H2019 0.950 . S
C1998 H1994 0.949 . S
C1998 C2006 1.574 . S
C1998 C2014 1.368 . S
H1999 C2007 0.950 . S
H2000 C2005 0.950 . S
H2001 C2006 0.949 . S
H2002 C2008 0.950 . S
H2003 C2009 0.950 . S
H2004 C2010 0.949 . S
C2005 H2000 0.950 . S
C2005 C2007 1.327 . S
C2005 C2011 1.429 . S
C2006 C1998 1.574 . S
C2006 H2001 0.949 . S
C2006 C2012 1.368 . S
C2007 C1991 1.349 . S
C2007 H1999 0.950 . S
C2007 C2005 1.327 . S
C2008 C1996 1.349 . S
C2008 H2002 0.950 . S
C2008 C2009 1.327 . S
C2009 H2003 0.950 . S
C2009 C2008 1.327 . S
C2009 C2013 1.429 . S
C2010 C1993 1.574 . S
C2010 H2004 0.949 . S
C2010 C2014 1.368 . S
C2011 C1992 1.429 . S
C2011 C2005 1.429 . S
C2011 C2012 1.523 . S
C2012 C1993 1.368 . S
C2012 C2006 1.368 . S
C2012 C2011 1.523 . S
C2013 C1997 1.429 . S
C2013 C2009 1.429 . S
C2013 C2014 1.523 . S
C2014 C1998 1.368 . S
C2014 C2010 1.368 . S
C2014 C2013 1.523 . S
H2015 C1990 0.950 . S
H2016 C1992 0.950 . S
H2017 C1993 0.949 . S
H2018 C1995 0.950 . S
H2019 C1997 0.950 . S
C2020 C2021 1.349 . S
C2020 C2022 1.327 . S
C2020 H2045 0.950 . S
C2021 C2020 1.349 . S
C2021 C2037 1.349 . S
C2022 C2020 1.327 . S
C2022 C2041 1.429 . S
C2022 H2046 0.950 . S
C2023 C2040 1.574 . S
C2023 C2042 1.368 . S
C2023 H2047 0.949 . S
H2024 C2028 0.949 . S
C2025 C2026 1.349 . S
C2025 C2027 1.327 . S
C2025 H2048 0.950 . S
C2026 C2025 1.349 . S
C2026 C2038 1.349 . S
C2027 C2025 1.327 . S
C2027 C2043 1.429 . S
C2027 H2049 0.950 . S
C2028 H2024 0.949 . S
C2028 C2036 1.574 . S
C2028 C2044 1.368 . S
H2029 C2037 0.950 . S
H2030 C2035 0.950 . S
H2031 C2036 0.949 . S
H2032 C2038 0.950 1_556 S
H2033 C2039 0.931 1_556 S
H2034 C2040 0.949 . S
C2035 H2030 0.950 . S
C2035 C2037 1.327 . S
C2035 C2041 1.429 . S
C2036 C2028 1.574 . S
C2036 H2031 0.949 . S
C2036 C2042 1.368 . S
C2037 C2021 1.349 . S
C2037 H2029 0.950 . S
C2037 C2035 1.327 . S
C2038 C2026 1.349 . S
C2038 H2032 0.950 1_554 S
C2038 C2039 1.327 . S
C2039 H2033 0.931 1_554 S
C2039 C2038 1.327 . S
C2039 C2043 1.429 . S
C2040 C2023 1.574 . S
C2040 H2034 0.949 . S
C2040 C2044 1.368 . S
C2041 C2022 1.429 . S
C2041 C2035 1.429 . S
C2041 C2042 1.523 . S
C2042 C2023 1.368 . S
C2042 C2036 1.368 . S
C2042 C2041 1.523 . S
C2043 C2027 1.429 . S
C2043 C2039 1.429 . S
C2043 C2044 1.523 . S
C2044 C2028 1.368 . S
C2044 C2040 1.368 . S
C2044 C2043 1.523 . S
H2045 C2020 0.950 . S
H2046 C2022 0.950 . S
H2047 C2023 0.949 . S
H2048 C2025 0.950 . S
H2049 C2027 0.950 . S
C2050 C2051 1.349 . S
C2050 C2052 1.327 . S
C2050 H2075 0.950 1_565 S
C2051 C2050 1.349 . S
C2051 C2067 1.349 . S
C2052 C2050 1.327 . S
C2052 C2071 1.429 . S
C2052 H2076 0.950 . S
C2053 C2070 1.574 . S
C2053 C2072 1.368 . S
C2053 H2077 0.949 . S
H2054 C2058 0.949 . S
C2055 C2056 1.349 . S
C2055 C2057 1.327 . S
C2055 H2078 0.950 . S
C2056 C2055 1.349 . S
C2056 C2068 1.349 . S
C2057 C2055 1.327 . S
C2057 C2073 1.429 . S
C2057 H2079 0.950 . S
C2058 H2054 0.949 . S
C2058 C2066 1.574 . S
C2058 C2074 1.368 . S
H2059 C2067 0.950 . S
H2060 C2065 0.950 . S
H2061 C2066 0.949 . S
H2062 C2068 0.950 1_556 S
H2063 C2069 0.998 . S
H2064 C2070 0.949 . S
C2065 H2060 0.950 . S
C2065 C2067 1.327 . S
C2065 C2071 1.429 . S
C2066 C2058 1.574 . S
C2066 H2061 0.949 . S
C2066 C2072 1.368 . S
C2067 C2051 1.349 . S
C2067 H2059 0.950 . S
C2067 C2065 1.327 . S
C2068 C2056 1.349 . S
C2068 H2062 0.950 1_554 S
C2068 C2069 1.327 . S
C2069 H2063 0.998 . S
C2069 C2068 1.327 . S
C2069 C2073 1.429 . S
C2070 C2053 1.574 . S
C2070 H2064 0.949 . S
C2070 C2074 1.368 . S
C2071 C2052 1.429 . S
C2071 C2065 1.429 . S
C2071 C2072 1.523 . S
C2072 C2053 1.368 . S
C2072 C2066 1.368 . S
C2072 C2071 1.523 . S
C2073 C2057 1.429 . S
C2073 C2069 1.429 . S
C2073 C2074 1.523 . S
C2074 C2058 1.368 . S
C2074 C2070 1.368 . S
C2074 C2073 1.523 . S
H2075 C2050 0.950 1_545 S
H2076 C2052 0.950 . S
H2077 C2053 0.949 . S
H2078 C2055 0.950 . S
H2079 C2057 0.950 . S
C646 C210 1.079 . S
C641 N66 1.057 . S
C676 C258 1.639 . S
C671 N79 1.681 . S
C701 N92 1.823 . S
C706 C294 1.756 . S
C736 C330 1.372 . S
C731 N54 1.449 . S
C766 C356 1.364 . S
C761 N131 1.346 . S
C796 C392 1.222 . S
C791 N158 1.220 . S
C821 N145 1.548 . S
C826 C427 1.556 . S
C856 C464 1.888 . S
C851 N118 1.867 . S
C881 N148 1.935 . S
C886 C498 1.943 . S
C916 C546 1.715 . S
C911 N122 1.744 . S
C941 N132 1.054 . S
C946 C499 1.060 . S
C976 C536 1.548 . S
C971 N161 1.513 . S
C1001 N96 1.928 . S
C1006 C582 1.877 . S
C1031 N53 1.815 . S
C1036 C571 1.841 . S
C1061 N67 0.981 . S
C1066 C572 0.980 . S
C1091 N83 1.515 . S
C1096 C570 1.533 . S
C1121 N44 1.255 . S
C1126 C318 1.264 . S
C1151 N187 1.409 . S
C1156 C319 1.423 . S
C1186 C222 1.232 . S
C1181 N197 1.270 . S
C1216 C247 1.244 . S
C1211 N106 1.243 . S
C1241 N57 1.995 1_545 S
C1246 C354 2.001 . S
C1276 C462 1.337 . S
C1271 N144 1.324 . S
C1306 C355 1.423 . S
C1301 N119 1.435 1_545 S
C1336 C428 1.953 . S
C1331 N157 1.927 . S
C1366 C426 1.079 . S
C1361 N183 1.057 . S
C1391 N196 1.681 . S
C1396 C474 1.639 . S
C1421 N105 1.823 . S
C1426 C366 1.756 . S
C1456 C402 1.372 . S
C1451 N171 1.449 . S
C1481 N40 1.346 . S
C1486 C284 1.364 . S
C1516 C320 1.222 . S
C1511 N2 1.220 1_655 S
C1546 C211 1.556 . S
C1541 N15 1.548 . S
C1576 C248 1.888 . S
C1571 N27 1.844 1_455 S
C1601 N18 1.935 . S
C1606 C534 1.943 . S
C1631 N31 1.744 . S
C1636 C510 1.715 . S
C1661 N41 1.054 . S
C1666 C535 1.060 . S
C1691 N5 1.513 . S
C1696 C500 1.548 . S
C1726 C618 1.877 . S
C1721 N109 1.928 . S
C1756 C607 1.841 . S
C1751 N170 1.812 . S
C1786 C608 0.980 . S
C1781 N184 0.981 . S
C1811 N200 1.497 1_554 S
C1816 C606 1.533 . S
C1841 N135 1.255 . S
C1846 C390 1.264 . S
C1876 C391 1.423 . S
C1871 N70 1.409 . S
C1906 C438 1.232 . S
C1901 N80 1.270 . S
C1936 C463 1.244 . S
C1931 N93 1.243 . S
C1961 N174 1.995 . S
C1966 C282 1.994 1_556 S
C1996 C246 1.337 . S
C1991 N14 1.324 . S
C2021 N28 1.435 . S
C2026 C283 1.423 . S
C2056 C212 1.953 . S
C2051 N1 1.927 1_565 S
