# Generated by pormake.
# Topology anh, (6,3)-cn, num edge types: 1
# Building blocks:
#     Node 0, Type 0, BuildingBlock: PAMTOO_clean_sbu_0, # of connection points: 6
#     Node 1, Type 0, BuildingBlock: PAMTOO_clean_sbu_0, # of connection points: 6
#     Node 2, Type 0, BuildingBlock: PAMTOO_clean_sbu_0, # of connection points: 6
#     Node 3, Type 1, BuildingBlock: KAKCAD_clean_linker_0, # of connection points: 3
#     Node 4, Type 1, BuildingBlock: KAKCAD_clean_linker_0, # of connection points: 3
#     Node 5, Type 1, BuildingBlock: KAKCAD_clean_linker_0, # of connection points: 3
#     Node 6, Type 1, BuildingBlock: KAKCAD_clean_linker_0, # of connection points: 3
#     Node 7, Type 1, BuildingBlock: KAKCAD_clean_linker_0, # of connection points: 3
#     Node 8, Type 1, BuildingBlock: KAKCAD_clean_linker_0, # of connection points: 3
#     Edge 9, Type (0, 1), BuildingBlock: OJICUG_clean_linker_0, # of connection points: 2
#     Edge 10, Type (0, 1), BuildingBlock: OJICUG_clean_linker_0, # of connection points: 2
#     Edge 11, Type (0, 1), BuildingBlock: OJICUG_clean_linker_0, # of connection points: 2
#     Edge 12, Type (0, 1), BuildingBlock: OJICUG_clean_linker_0, # of connection points: 2
#     Edge 13, Type (0, 1), BuildingBlock: OJICUG_clean_linker_0, # of connection points: 2
#     Edge 14, Type (0, 1), BuildingBlock: OJICUG_clean_linker_0, # of connection points: 2
#     Edge 15, Type (0, 1), BuildingBlock: OJICUG_clean_linker_0, # of connection points: 2
#     Edge 16, Type (0, 1), BuildingBlock: OJICUG_clean_linker_0, # of connection points: 2
#     Edge 17, Type (0, 1), BuildingBlock: OJICUG_clean_linker_0, # of connection points: 2
#     Edge 18, Type (0, 1), BuildingBlock: OJICUG_clean_linker_0, # of connection points: 2
#     Edge 19, Type (0, 1), BuildingBlock: OJICUG_clean_linker_0, # of connection points: 2
#     Edge 20, Type (0, 1), BuildingBlock: OJICUG_clean_linker_0, # of connection points: 2
#     Edge 21, Type (0, 1), BuildingBlock: OJICUG_clean_linker_0, # of connection points: 2
#     Edge 22, Type (0, 1), BuildingBlock: OJICUG_clean_linker_0, # of connection points: 2
#     Edge 23, Type (0, 1), BuildingBlock: OJICUG_clean_linker_0, # of connection points: 2
#     Edge 24, Type (0, 1), BuildingBlock: OJICUG_clean_linker_0, # of connection points: 2
#     Edge 25, Type (0, 1), BuildingBlock: OJICUG_clean_linker_0, # of connection points: 2
#     Edge 26, Type (0, 1), BuildingBlock: OJICUG_clean_linker_0, # of connection points: 2
# Relax obj value: 0.212
# Max RMSD: 0.209
# Mean RMSD: 0.164
data_MOF--net-anh--node1-PAMTOO_clean_sbu_0--node2-KAKCAD_clean_linker_0--edge1-OJICUG_clean_linker_0
_symmetry_space_group_name_H-M    P1
_symmetry_Int_Tables_number       1
_symmetry_cell_setting            triclinic
loop_
_symmetry_equiv_pos_as_xyz
'x, y, z'
_cell_length_a     28.147874
_cell_length_b     27.459514
_cell_length_c     52.78268
_cell_angle_alpha  89.77159
_cell_angle_beta   94.534758
_cell_angle_gamma 101.24449
loop_
_atom_site_label
_atom_site_type_symbol
_atom_site_fract_x
_atom_site_fract_y
_atom_site_fract_z
_atom_type_partial_charge
Dy0 Dy 0.10949 0.62891 0.14909 0.0
Dy1 Dy 1.08146 0.51088 0.1329 0.0
C2 C 0.09428 0.59561 0.09227 0.0
O3 O 1.02916 0.60825 0.15484 0.0
O4 O 1.01015 0.53656 0.13066 0.0
O5 O 0.1293 0.70453 0.13698 0.0
O6 O 0.12146 0.68892 0.17688 0.0
O7 O 1.07086 0.51741 0.17424 0.0
O8 O 0.13016 0.58574 0.18242 0.0
O9 O 0.16308 0.52573 0.14002 0.0
O10 O 0.18023 0.61103 0.13793 0.0
O11 O 0.08802 0.43502 0.14022 0.0
O12 O 1.04061 0.45177 0.10844 0.0
C13 C 0.99673 0.57243 0.14314 0.0
O14 O 1.07798 0.62126 0.10924 0.0
O15 O 0.10578 0.55266 0.09812 0.0
C16 C 0.18408 0.75488 0.16653 0.0
C17 C 0.27486 0.81732 0.17905 0.0
C18 C 0.2704 0.77895 0.16099 0.0
C19 C 0.2255 0.74781 0.1549 0.0
C20 C 0.18833 0.79327 0.18447 0.0
C21 C 0.23342 0.82416 0.19077 0.0
C22 C 0.13659 0.7223 0.16013 0.0
C23 C 0.102 0.54586 0.19029 0.0
C24 C 0.19449 0.56795 0.13855 0.0
C25 C 1.01261 0.38162 0.13266 0.0
C26 C 0.93753 0.31365 0.15328 0.0
C27 C 0.94837 0.36357 0.16138 0.0
C28 C 0.98545 0.39722 0.15113 0.0
C29 C 1.00152 0.33213 0.12411 0.0
C30 C 0.96403 0.29835 0.13429 0.0
C31 C 1.05306 0.41717 0.12307 0.0
H32 H 0.30186 0.77236 0.15196 0.0
H33 H 0.22322 0.71811 0.14114 0.0
H34 H 0.15682 0.79925 0.19365 0.0
H35 H 0.23584 0.85361 0.20469 0.0
H36 H 0.92812 0.37666 0.17568 0.0
H37 H 0.9933 0.43542 0.15782 0.0
H38 H 1.02216 0.31953 0.10985 0.0
H39 H 0.95658 0.26006 0.12777 0.0
Dy40 Dy 0.55532 0.01687 0.51394 0.0
Dy41 Dy 0.67422 0.04372 0.5268 0.0
C42 C 0.60219 0.01451 0.57019 0.0
O43 O 0.57367 0.09692 0.52622 0.0
O44 O 0.65165 0.11432 0.51441 0.0
O45 O 0.48235 1.00726 0.52602 0.0
O46 O 0.49381 0.9981 0.48639 0.0
O47 O 0.66338 0.03289 0.4848 0.0
O48 O 0.58601 0.04794 0.47831 0.0
O49 O 0.65308 0.96159 0.53268 0.0
O50 O 0.58127 0.94627 0.5074 0.0
O51 O 0.74696 0.03323 0.52154 0.0
O52 O 0.73552 0.08795 0.5486 0.0
C53 C 0.61234 0.12911 0.52049 0.0
O54 O 0.56969 0.99033 0.55325 0.0
O55 O 0.64006 0.04623 0.56341 0.0
C56 C 0.42617 0.94665 0.50153 0.0
C57 C 0.36269 0.85516 0.49093 0.0
C58 C 0.4047 0.85748 0.50752 0.0
C59 C 0.43646 0.90294 0.51265 0.0
C60 C 0.38322 0.94471 0.48593 0.0
C61 C 0.35174 0.89934 0.48064 0.0
C62 C 0.46226 0.99319 0.50344 0.0
C63 C 0.62731 0.04295 0.46975 0.0
C64 C 0.61727 0.93057 0.52026 0.0
C65 C 0.80257 0.10923 0.52458 0.0
C66 C 0.86832 0.18704 0.50392 0.0
C67 C 0.82033 0.17329 0.493 0.0
C68 C 0.78776 0.1348 0.50326 0.0
C69 C 0.85045 0.12218 0.53539 0.0
C70 C 0.88319 0.16076 0.5251 0.0
C71 C 0.76717 0.071 0.53616 0.0
H72 H 0.4142 0.82391 0.51549 0.0
H73 H 0.46987 0.90371 0.52448 0.0
H74 H 0.37494 0.97805 0.47706 0.0
H75 H 0.31941 0.89859 0.46794 0.0
H76 H 0.80793 0.19221 0.47646 0.0
H77 H 0.7508 0.1253 0.49472 0.0
H78 H 0.86228 0.103 0.55198 0.0
H79 H 0.91976 0.17075 0.53406 0.0
Dy80 Dy 0.62491 0.4479 0.83394 0.0
Dy81 Dy 0.50741 0.42571 0.83725 0.0
C82 C 0.55423 0.43855 0.78544 0.0
O83 O 0.60282 0.52083 0.82636 0.0
O84 O 0.52909 0.50797 0.84367 0.0
O85 O 0.69993 0.46327 0.84957 0.0
O86 O 0.68273 0.45809 0.80888 0.0
O87 O 0.54075 0.41769 0.87651 0.0
O88 O 0.61177 0.47283 0.87257 0.0
O89 O 0.52737 0.35184 0.83055 0.0
O90 O 0.60724 0.36922 0.84656 0.0
O91 O 0.44377 0.41898 0.85817 0.0
O92 O 0.43587 0.40386 0.81765 0.0
C93 C 0.56658 0.53779 0.83503 0.0
O94 O 0.5875 0.41739 0.79697 0.0
O95 O 0.52406 0.45582 0.79889 0.0
C96 C 0.74694 0.52105 0.82402 0.0
C97 C 0.80402 0.6168 0.82116 0.0
C98 C 0.75367 0.60904 0.81527 0.0
C99 C 0.72546 0.56144 0.81646 0.0
C100 C 0.79733 0.52842 0.82931 0.0
C101 C 0.82576 0.57597 0.82775 0.0
C102 C 0.71634 0.47197 0.82722 0.0
C103 C 0.57872 0.4489 0.88671 0.0
C104 C 0.5673 0.33716 0.83943 0.0
C105 C 0.3843 0.45167 0.83373 0.0
C106 C 0.33021 0.52695 0.82449 0.0
C107 C 0.37612 0.5375 0.83799 0.0
C108 C 0.40283 0.50037 0.8425 0.0
C109 C 0.33867 0.44077 0.82007 0.0
C110 C 0.31163 0.47816 0.81555 0.0
C111 C 0.41447 0.41378 0.8375 0.0
H112 H 0.73612 0.63985 0.81011 0.0
H113 H 0.68672 0.55634 0.81182 0.0
H114 H 0.81449 0.49769 0.83515 0.0
H115 H 0.86451 0.58117 0.83276 0.0
H116 H 0.39107 0.57429 0.84569 0.0
H117 H 0.43805 0.50988 0.853 0.0
H118 H 0.3241 0.40354 0.81284 0.0
H119 H 0.27636 0.46898 0.80505 0.0
C120 C 0.66643 0.09779 0.34953 0.0
C121 C 0.64808 0.05382 0.36208 0.0
C122 C 0.66642 0.09811 0.323 0.0
C123 C 0.64868 0.05425 0.30868 0.0
C124 C 0.63274 0.00985 0.32163 0.0
C125 C 0.6319 0.0098 0.34799 0.0
C126 C 0.64412 0.05479 0.28038 0.0
C127 C 0.67911 0.08482 0.26659 0.0
C128 C 0.67403 0.08518 0.23983 0.0
C129 C 0.63373 0.05433 0.22681 0.0
C130 C 0.59849 0.02402 0.24037 0.0
C131 C 0.6037 0.02527 0.26702 0.0
C132 C 0.55522 0.99146 0.22731 0.0
C133 C 0.52747 0.00921 0.20729 0.0
C134 C 0.53898 0.94346 0.2365 0.0
C135 C 0.49456 0.9151 0.22711 0.0
C136 C 0.46552 0.93382 0.20811 0.0
C137 C 0.71091 0.11818 0.22572 0.0
C138 C 0.72773 0.1677 0.23368 0.0
C139 C 0.73034 0.10039 0.20468 0.0
C140 C 0.76684 0.1312 0.1923 0.0
C141 C 0.78441 0.18054 0.20061 0.0
C142 C 0.76385 0.19853 0.22123 0.0
C143 C 0.48297 0.9805 0.19772 0.0
H144 H 0.67897 0.13218 0.36016 0.0
H145 H 0.67861 0.13303 0.3137 0.0
H146 H 0.62014 0.97508 0.31136 0.0
H147 H 0.61815 0.97537 0.35741 0.0
H148 H 0.71086 0.10733 0.27663 0.0
H149 H 0.57526 1.00382 0.27746 0.0
H150 H 0.62967 0.05416 0.20622 0.0
H151 H 0.53896 0.04612 0.19991 0.0
H152 H 0.56007 0.92831 0.25153 0.0
H153 H 0.48244 0.87878 0.23507 0.0
H154 H 0.71279 0.1827 0.24954 0.0
H155 H 0.71828 0.06225 0.19824 0.0
H156 H 0.4612 0.99574 0.18303 0.0
H157 H 0.77556 0.23663 0.22778 0.0
H158 H 0.78212 0.11597 0.17664 0.0
C159 C 0.53867 0.50655 0.6641 0.0
C160 C 0.5743 0.48853 0.67967 0.0
C161 C 0.54587 0.51818 0.63866 0.0
C162 C 0.58848 0.51136 0.62825 0.0
C163 C 0.62455 0.49465 0.64385 0.0
C164 C 0.61778 0.48383 0.6693 0.0
C165 C 0.59413 0.51801 0.60077 0.0
C166 C 0.59084 0.56306 0.58887 0.0
C167 C 0.5976 0.56929 0.5628 0.0
C168 C 0.606 0.52883 0.54847 0.0
C169 C 0.60847 0.48321 0.56033 0.0
C170 C 0.60315 0.47856 0.58644 0.0
C171 C 0.61506 0.43872 0.54626 0.0
C172 C 0.57696 0.41252 0.52992 0.0
C173 C 0.65506 0.41668 0.55337 0.0
C174 C 0.65585 0.36835 0.54543 0.0
C175 C 0.6163 0.34063 0.53043 0.0
C176 C 0.59759 0.61893 0.55134 0.0
C177 C 0.56039 0.64466 0.55571 0.0
C178 C 0.63704 0.64304 0.53829 0.0
C179 C 0.64024 0.69262 0.53081 0.0
C180 C 0.60366 0.71881 0.53585 0.0
C181 C 0.56322 0.69384 0.54792 0.0
C182 C 0.57747 0.36383 0.52214 0.0
H183 H 0.50456 0.51027 0.67128 0.0
H184 H 0.51741 0.53067 0.62686 0.0
H185 H 0.65793 0.48958 0.63624 0.0
H186 H 0.64669 0.47155 0.68081 0.0
H187 H 0.58477 0.59386 0.60016 0.0
H188 H 0.60482 0.4434 0.59559 0.0
H189 H 0.61058 0.5328 0.52833 0.0
H190 H 0.54535 0.42844 0.52455 0.0
H191 H 0.68448 0.43589 0.56632 0.0
H192 H 0.68612 0.35164 0.55239 0.0
H193 H 0.52954 0.62701 0.56571 0.0
H194 H 0.66643 0.62428 0.53487 0.0
H195 H 0.54669 0.3437 0.51037 0.0
H196 H 0.53459 0.71297 0.55226 0.0
H197 H 0.67167 0.71069 0.52138 0.0
C198 C 0.16505 0.72765 0.99157 0.0
C199 C 0.12329 0.69242 -0.00376 0.0
C200 C 0.16708 0.75401 0.96879 0.0
C201 C 0.12683 0.74647 0.9508 0.0
C202 C 1.08509 0.71143 0.95561 0.0
C203 C 1.08348 0.68438 0.97803 0.0
C204 C 0.12888 0.77112 0.92589 0.0
C205 C 0.16151 0.76035 0.90908 0.0
C206 C 0.15447 0.76956 0.88303 0.0
C207 C 0.11517 0.79112 0.87408 0.0
C208 C 1.08198 0.80252 0.89073 0.0
C209 C 0.0911 0.7948 0.91692 0.0
C210 C 1.03282 0.80947 0.88016 0.0
C211 C 1.02571 0.82695 0.85524 0.0
C212 C 0.9914 0.78806 0.89262 0.0
C213 C 0.94585 0.7772 0.87935 0.0
C214 C 0.94075 0.78632 0.85323 0.0
C215 C 0.18139 0.74637 0.865 0.0
C216 C 0.23172 0.74951 0.8694 0.0
C217 C 0.15563 0.71478 0.84553 0.0
C218 C 0.17906 0.68403 0.8321 0.0
C219 C 0.22867 0.68444 0.83785 0.0
C220 C 0.25522 0.71894 0.85586 0.0
C221 C 0.98018 0.81446 0.84168 0.0
H222 H 0.19611 0.73446 0.00547 0.0
H223 H 0.19983 0.78033 0.96525 0.0
H224 H 1.05397 0.70429 0.94174 0.0
H225 H 1.05076 0.65781 0.98137 0.0
H226 H 0.18904 0.73966 0.91583 0.0
H227 H 1.06633 0.80281 0.9303 0.0
H228 H 0.10828 0.7944 0.85374 0.0
H229 H 1.05607 0.84597 0.84533 0.0
H230 H 0.99413 0.77396 0.91171 0.0
H231 H 0.91609 0.75558 0.88883 0.0
H232 H 0.25235 0.77363 0.88427 0.0
H233 H 0.11667 0.7111 0.84189 0.0
H234 H 0.97688 0.82274 0.8216 0.0
H235 H 0.29344 0.71977 0.86086 0.0
H236 H 0.15786 0.65799 0.81821 0.0
C237 C 1.06929 0.4927 0.31078 0.0
C238 C 0.11208 0.50504 0.29812 0.0
C239 C 1.07163 0.48888 0.33728 0.0
C240 C 0.11679 0.49741 0.35162 0.0
C241 C 0.15951 0.50784 0.33887 0.0
C242 C 0.15719 0.51154 0.31244 0.0
C243 C 0.11956 0.49786 0.37983 0.0
C244 C 0.08969 0.46124 0.39309 0.0
C245 C 0.09192 0.46222 0.41981 0.0
C246 C 0.12476 0.5004 0.43326 0.0
C247 C 0.15482 0.53753 0.42024 0.0
C248 C 0.15172 0.53589 0.39354 0.0
C249 C 0.18842 0.57922 0.43411 0.0
C250 C 0.17379 0.60292 0.45492 0.0
C251 C 0.23442 0.59777 0.42546 0.0
C252 C 0.26382 0.64054 0.43634 0.0
C253 C 0.24825 0.66547 0.45632 0.0
C254 C 1.05954 0.42347 0.43351 0.0
C255 C 1.01051 0.40816 0.42461 0.0
C256 C 1.07738 0.40102 0.45528 0.0
C257 C 1.04695 0.3636 0.46767 0.0
C258 C 0.99799 0.34806 0.45862 0.0
C259 C 0.98011 0.37092 0.437 0.0
C260 C 0.20357 0.64557 0.466 0.0
H261 H 1.03398 0.48791 0.30032 0.0
H262 H 1.03809 0.48113 0.3466 0.0
H263 H 0.19484 0.51365 0.34937 0.0
H264 H 0.19082 0.52006 0.30323 0.0
H265 H 1.06529 0.43138 0.3826 0.0
H266 H 0.17336 0.56531 0.38326 0.0
H267 H 0.1266 0.50143 0.45383 0.0
H268 H 0.13846 0.58986 0.46193 0.0
H269 H 0.24737 0.57976 0.4099 0.0
H270 H 0.29851 0.65469 0.42881 0.0
H271 H 0.99552 0.42511 0.40805 0.0
H272 H 0.11508 0.41177 0.46249 0.0
H273 H 0.19068 0.66428 0.48134 0.0
H274 H 0.94273 0.35946 0.42938 0.0
H275 H 1.06169 0.34702 0.48441 0.0
C276 C 0.54641 0.94484 0.6866 0.0
C277 C 0.58761 0.97538 0.67746 0.0
C278 C 0.54396 0.93594 0.71262 0.0
C279 C 0.58218 0.95816 0.73 0.0
C280 C 0.62337 0.98835 0.72106 0.0
C281 C 0.62633 0.99643 0.69507 0.0
C282 C 0.57873 0.95123 0.75755 0.0
C283 C 0.57451 0.90399 0.76814 0.0
C284 C 0.57358 0.89754 0.79459 0.0
C285 C 0.57418 0.93923 0.81033 0.0
C286 C 0.57849 0.98692 0.79966 0.0
C287 C 0.58115 0.99241 0.77336 0.0
C288 C 0.58102 0.03234 0.81513 0.0
C289 C 0.54 0.04096 0.82652 0.0
C290 C 0.62132 0.07132 0.81409 0.0
C291 C 0.61956 0.11887 0.82275 0.0
C292 C 0.57727 0.12869 0.83251 0.0
C293 C 0.57494 0.84746 0.80519 0.0
C294 C 0.54281 0.82567 0.82298 0.0
C295 C 0.60729 0.81983 0.79613 0.0
C296 C 0.60648 0.77109 0.80384 0.0
C297 C 0.57347 0.74841 0.82102 0.0
C298 C 0.54189 0.77647 0.83072 0.0
C299 C 0.53807 0.08879 0.8351 0.0
H300 H 0.51552 0.92857 0.67378 0.0
H301 H 0.51171 0.91278 0.71923 0.0
H302 H 0.65343 1.00547 0.73423 0.0
H303 H 0.6592 0.01903 0.68885 0.0
H304 H 0.5732 0.87228 0.75573 0.0
H305 H 0.58444 0.02903 0.76506 0.0
H306 H 0.5734 0.93498 0.83072 0.0
H307 H 0.50827 0.01158 0.82723 0.0
H308 H 0.65315 0.06562 0.80512 0.0
H309 H 0.65025 0.14857 0.82019 0.0
H310 H 0.51743 0.84607 0.83026 0.0
H311 H 0.63292 0.83573 0.78264 0.0
H312 H 0.50519 0.09494 0.84282 0.0
H313 H 0.51632 0.76034 0.84417 0.0
H314 H 0.6309 0.75069 0.79564 0.0
C315 C 0.60225 0.46701 0.01253 0.0
C316 C 0.58542 0.49694 -0.00643 0.0
C317 C 0.60351 0.48015 0.03818 0.0
C318 C 0.58691 0.52276 0.04529 0.0
C319 C 0.56931 0.55223 0.02636 0.0
C320 C 0.5691 0.53973 0.00068 0.0
C321 C 0.58846 0.53672 0.07243 0.0
C322 C 0.63259 0.54477 0.08737 0.0
C323 C 0.63516 0.55798 0.11315 0.0
C324 C 0.59161 0.56222 0.12429 0.0
C325 C 0.5462 0.55312 0.10935 0.0
C326 C 0.54585 0.54137 0.08337 0.0
C327 C 0.49787 0.55365 0.11971 0.0
C328 C 0.45871 0.51382 0.11385 0.0
C329 C 0.48802 0.59566 0.13193 0.0
C330 C 0.43998 0.59842 0.13706 0.0
C331 C 0.40043 0.5591 0.13024 0.0
C332 C 0.68448 0.56555 0.12719 0.0
C333 C 0.70217 0.52444 0.13725 0.0
C334 C 0.71822 0.60989 0.12411 0.0
C335 C 0.76841 0.61247 0.12996 0.0
C336 C 0.78655 0.57047 0.13868 0.0
C337 C 0.75232 0.52687 0.143 0.0
C338 C 0.4111 0.51647 0.11894 0.0
H339 H 0.61513 0.43394 0.00746 0.0
H340 H 0.61709 0.45683 0.05252 0.0
H341 H 0.55648 0.58532 0.03144 0.0
H342 H 0.55575 0.5632 0.98636 0.0
H343 H 0.66549 0.54109 0.07875 0.0
H344 H 0.51186 0.53494 0.07155 0.0
H345 H 0.5929 0.57143 0.1443 0.0
H346 H 0.4647 0.48087 0.10436 0.0
H347 H 0.51705 0.62726 0.1365 0.0
H348 H 0.43384 0.6317 0.14611 0.0
H349 H 0.67741 0.48932 0.13915 0.0
H350 H 0.70604 0.64171 0.11557 0.0
H351 H 0.38233 0.48551 0.11297 0.0
H352 H 0.76439 0.49385 0.15002 0.0
H353 H 0.79318 0.64658 0.12607 0.0
C354 C 0.26436 0.5217 0.14068 0.0
C355 C 0.24759 0.56659 0.13739 0.0
H356 H 0.32448 0.48427 0.14197 0.0
C357 C 0.28219 0.6097 0.13287 0.0
H358 H 0.23934 0.48769 0.14449 0.0
C359 C 0.33157 0.60766 0.13111 0.0
C360 C 0.34821 0.56246 0.13391 0.0
H361 H 0.27103 0.64508 0.13026 0.0
H362 H 0.35643 0.64146 0.12686 0.0
C363 C 0.31361 0.51971 0.13908 0.0
C364 C 0.95089 0.22582 0.49051 0.0
C365 C 0.90233 0.22901 0.49332 0.0
H366 H 1.01902 0.26064 0.47709 0.0
C367 C 0.88611 0.27241 0.48553 0.0
H368 H 0.96436 0.1927 0.49611 0.0
C369 C 0.91736 0.31127 0.47468 0.0
C370 C 0.96562 0.30771 0.47137 0.0
H371 H 0.84921 0.27647 0.48791 0.0
H372 H 0.90372 0.34423 0.46895 0.0
C373 C 0.9822 0.26476 0.47964 0.0
C374 C 0.52493 0.61119 0.8326 0.0
C375 C 0.56789 0.59202 0.83412 0.0
H376 H 0.49279 0.67551 0.82699 0.0
C377 C 0.61261 0.6252 0.83366 0.0
H378 H 0.4899 0.58657 0.83288 0.0
C379 C 0.61437 0.67605 0.83064 0.0
C380 C 0.5714 0.69518 0.82772 0.0
H381 H 0.64642 0.61184 0.83544 0.0
H382 H 0.64958 0.70033 0.83018 0.0
C383 C 0.52664 0.66224 0.82933 0.0
C384 C 0.92536 0.61351 0.15141 0.0
C385 C 0.94313 0.57206 0.14331 0.0
H386 H 0.86287 0.64577 0.1565 0.0
C387 C 0.90875 0.52984 0.13458 0.0
H388 H 0.95043 0.64674 0.15827 0.0
C389 C 0.85858 0.52919 0.13364 0.0
C390 C 0.8406 0.57083 0.14127 0.0
H391 H 0.92056 0.497 0.12821 0.0
H392 H 0.83386 0.4962 0.12622 0.0
C393 C 0.87494 0.61301 0.15026 0.0
C394 C 0.31658 0.76965 0.50016 0.0
C395 C 0.33254 0.80663 0.48256 0.0
H396 H 0.27663 0.69577 0.50563 0.0
C397 C 0.32048 0.7968 0.45651 0.0
H398 H 0.32538 0.77639 0.52035 0.0
C399 C 0.29334 0.75089 0.44816 0.0
C400 C 0.27717 0.7139 0.46567 0.0
H401 H 0.33276 0.82442 0.44252 0.0
H402 H 0.2846 0.74444 0.42794 0.0
C403 C 0.28864 0.72377 0.49178 0.0
C404 C 0.61048 0.26644 0.84918 0.0
C405 C 0.56821 0.28319 0.84006 0.0
H406 H 0.64614 0.20461 0.85461 0.0
C407 C 0.52755 0.24795 0.83057 0.0
H408 H 0.64237 0.29238 0.85686 0.0
C409 C 0.5298 0.19754 0.82922 0.0
C410 C 0.57274 0.18105 0.83736 0.0
H411 H 0.49432 0.25938 0.82344 0.0
H412 H 0.4985 0.17184 0.82073 0.0
C413 C 0.6127 0.21604 0.84786 0.0
C414 C 0.65555 0.85737 0.53269 0.0
C415 C 0.61522 0.87612 0.52233 0.0
H416 H 0.68365 0.79313 0.54484 0.0
C417 C 0.57187 0.84229 0.51516 0.0
H418 H 0.68949 0.88227 0.53841 0.0
C419 C 0.56847 0.79127 0.519 0.0
C420 C 0.60847 0.77262 0.52983 0.0
H421 H 0.53999 0.85526 0.50718 0.0
H422 H 0.5343 0.76638 0.51369 0.0
C423 C 0.6523 0.80622 0.53624 0.0
C424 C 0.87871 0.67841 0.81276 0.0
C425 C 0.83344 0.66765 0.82304 0.0
H426 H 0.94812 0.72671 0.81366 0.0
C427 C 0.81965 0.70346 0.83835 0.0
H428 H 0.88981 0.6516 0.80064 0.0
C429 C 0.853 0.7466 0.84581 0.0
C430 C 0.90034 0.75457 0.83787 0.0
H431 H 0.78481 0.69603 0.84646 0.0
H432 H 0.84337 0.7713 0.85965 0.0
C433 C 0.91179 0.72179 0.81995 0.0
C434 C 0.35393 0.86906 0.16758 0.0
C435 C 0.32299 0.84895 0.18626 0.0
H436 H 0.42339 0.91221 0.15986 0.0
C437 C 0.33882 0.85801 0.21199 0.0
H438 H 0.34243 0.86287 0.14759 0.0
C439 C 0.38499 0.8858 0.21896 0.0
C440 C 0.41616 0.90552 0.20034 0.0
H441 H 0.3159 0.84267 0.22678 0.0
H442 H 0.39634 0.89196 0.23897 0.0
C443 C 0.40001 0.89745 0.17457 0.0
C444 C 0.65481 0.21822 0.51752 0.0
C445 C 0.61226 0.18328 0.52131 0.0
H446 H 0.68928 0.29501 0.51701 0.0
C447 C 0.57024 0.20077 0.5265 0.0
H448 H 0.68785 0.20625 0.51337 0.0
C449 C 0.5711 0.25183 0.5285 0.0
C450 C 0.61406 0.2867 0.52549 0.0
H451 H 0.5368 0.17503 0.52946 0.0
H452 H 0.5385 0.2639 0.53333 0.0
C453 C 0.65572 0.26922 0.51967 0.0
C454 C 0.2518 0.55592 0.82702 0.0
C455 C 0.30091 0.56632 0.82187 0.0
H456 H 0.19036 0.58553 0.83605 0.0
C457 C 0.3234 0.61581 0.81768 0.0
H458 H 0.23353 0.51827 0.83051 0.0
C459 C 0.29876 0.65447 0.82105 0.0
C460 C 0.25101 0.64425 0.82837 0.0
H461 H 0.36093 0.62486 0.81309 0.0
H462 H 0.31779 0.69243 0.81916 0.0
C463 C 0.22706 0.59454 0.8302 0.0
C464 C 0.89731 0.27812 0.19169 0.0
C465 C 0.89939 0.27784 0.16519 0.0
H466 H 0.86048 0.24704 0.22359 0.0
C467 C 0.86433 0.24404 0.15034 0.0
H468 H 0.92437 0.30306 0.20368 0.0
C469 C 0.8272 0.2121 0.16176 0.0
C470 C 0.82458 0.21311 0.18828 0.0
H471 H 0.86487 0.24323 0.12986 0.0
H472 H 0.79991 0.1875 0.14975 0.0
C473 C 0.86054 0.24608 0.20309 0.0
C474 C 0.09959 0.59058 0.04507 0.0
C475 C 0.10407 0.61881 0.06753 0.0
H476 H 0.10159 0.59223 0.00443 0.0
C477 C 0.1177 0.67079 0.06645 0.0
H478 H 0.08926 0.55048 0.04547 0.0
C479 C 0.12587 0.69432 0.04334 0.0
C480 C 0.11961 0.66646 0.02076 0.0
H481 H 0.12203 0.69345 0.08354 0.0
H482 H 0.13551 0.73449 0.04302 0.0
C483 C 0.10661 0.61437 0.02172 0.0
C484 C 0.67926 0.062 0.43317 0.0
C485 C 0.63296 0.04813 0.44227 0.0
H486 H 0.72024 0.07576 0.40031 0.0
C487 C 0.59186 0.03803 0.42482 0.0
H488 H 0.71152 0.07028 0.44624 0.0
C489 C 0.597 0.04034 0.39875 0.0
C490 C 0.64321 0.05383 0.38968 0.0
H491 H 0.55577 0.02708 0.43129 0.0
H492 H 0.56487 0.03141 0.38562 0.0
C493 C 0.68429 0.06538 0.40701 0.0
C494 C 0.57963 0.42142 0.74264 0.0
C495 C 0.55534 0.44857 0.75796 0.0
H496 H 0.60307 0.41141 0.70589 0.0
C497 C 0.53525 0.4876 0.74717 0.0
H498 H 0.59516 0.39088 0.75041 0.0
C499 C 0.5409 0.50037 0.72174 0.0
C500 C 0.56621 0.47392 0.70647 0.0
H501 H 0.51671 0.5095 0.75861 0.0
H502 H 0.52667 0.53192 0.71432 0.0
C503 C 0.58459 0.43361 0.71716 0.0
C504 C 0.61845 0.04129 0.61566 0.0
C505 C 0.59701 1.00496 0.59743 0.0
H506 H 0.63058 0.06145 0.65496 0.0
C507 C 0.57162 0.95911 0.60549 0.0
H508 H 0.63781 0.07719 0.60994 0.0
C509 C 0.56866 0.94936 0.6314 0.0
C510 C 0.5902 0.98568 0.64979 0.0
H511 H 0.55512 0.93025 0.5918 0.0
H512 H 0.55027 0.91298 0.63693 0.0
C513 C 0.61461 0.03201 0.64151 0.0
C514 C 0.60815 0.50613 0.92381 0.0
C515 C 0.58241 0.45995 0.91427 0.0
H516 H 0.6285 0.55425 0.95643 0.0
C517 C 0.55854 0.42554 0.93112 0.0
H518 H 0.62659 0.53355 0.91125 0.0
C519 C 0.56037 0.43713 0.95702 0.0
C520 C 0.5851 0.48378 0.96638 0.0
H521 H 0.53845 0.38966 0.92429 0.0
H522 H 0.54157 0.41012 0.96965 0.0
C523 C 0.60902 0.51814 0.94958 0.0
C524 C 1.07356 0.49313 0.22731 0.0
C525 C 0.10492 0.53403 0.21769 0.0
H526 H 1.05145 0.45151 0.2603 0.0
C527 C 0.13893 0.5645 0.23463 0.0
H528 H 1.04698 0.46889 0.21475 0.0
C529 C 0.14136 0.55466 0.26058 0.0
C530 C 0.1099 0.51404 0.27031 0.0
H531 H 0.16357 0.59641 0.22793 0.0
H532 H 0.16735 0.5796 0.27311 0.0
C533 C 1.07596 0.4833 0.25339 0.0
loop_
_geom_bond_atom_site_label_1
_geom_bond_atom_site_label_2
_geom_bond_distance
_geom_bond_site_symmetry_2
_ccdc_geom_bond_type
Dy0 O3 2.307 1_455 S
Dy0 O5 2.395 . S
Dy0 O6 2.379 . S
Dy0 O8 2.339 . S
Dy0 O10 2.298 . S
Dy0 O14 2.275 . S
Dy0 C22 2.738 . S
Dy1 O4 2.298 . S
Dy1 O7 2.274 1_655 S
Dy1 O9 2.307 1_655 S
Dy1 O11 2.395 . S
Dy1 O12 2.379 . S
Dy1 O15 2.339 . S
Dy1 C31 2.738 . S
C2 O14 1.254 . S
C2 O15 1.257 1_455 S
O3 Dy0 2.307 1_655 S
O3 C13 1.266 . S
O4 Dy1 2.298 . S
O4 C13 1.236 . S
O5 Dy0 2.395 . S
O5 C22 1.255 . S
O6 Dy0 2.379 . S
O6 C22 1.249 . S
O7 Dy1 2.274 1_455 S
O7 C23 1.254 . S
O8 Dy0 2.339 . S
O8 C23 1.257 . S
O9 Dy1 2.307 1_455 S
O9 C24 1.266 . S
O10 Dy0 2.298 . S
O10 C24 1.236 . S
O11 Dy1 2.395 . S
O11 C31 1.255 . S
O12 Dy1 2.379 . S
O12 C31 1.249 . S
C13 O3 1.266 . S
C13 O4 1.236 . S
O14 Dy0 2.275 . S
O14 C2 1.254 . S
O15 Dy1 2.339 . S
O15 C2 1.257 1_655 S
C16 C19 1.344 . S
C16 C20 1.328 . S
C16 C22 1.516 . S
C17 C18 1.304 . S
C17 C21 1.323 . S
C18 C17 1.304 . S
C18 C19 1.371 . S
C18 H32 0.930 . S
C19 C16 1.344 . S
C19 C18 1.371 . S
C19 H33 0.931 . S
C20 C16 1.328 . S
C20 C21 1.433 . S
C20 H34 0.931 . S
C21 C17 1.323 . S
C21 C20 1.433 . S
C21 H35 0.933 . S
C22 Dy0 2.738 . S
C22 O5 1.255 . S
C22 O6 1.249 . S
C22 C16 1.516 . S
C23 O7 1.254 . S
C23 O8 1.257 . S
C24 O9 1.266 . S
C24 O10 1.236 . S
C25 C28 1.344 . S
C25 C29 1.328 . S
C25 C31 1.516 . S
C26 C27 1.304 . S
C26 C30 1.323 . S
C27 C26 1.304 . S
C27 C28 1.371 . S
C27 H36 0.930 . S
C28 C25 1.344 . S
C28 C27 1.371 . S
C28 H37 0.931 . S
C29 C25 1.328 . S
C29 C30 1.433 . S
C29 H38 0.931 . S
C30 C26 1.323 . S
C30 C29 1.433 . S
C30 H39 0.933 . S
C31 Dy1 2.738 . S
C31 O11 1.255 . S
C31 O12 1.249 . S
C31 C25 1.516 . S
H32 C18 0.930 . S
H33 C19 0.931 . S
H34 C20 0.931 . S
H35 C21 0.933 . S
H36 C27 0.930 . S
H37 C28 0.931 . S
H38 C29 0.931 . S
H39 C30 0.933 . S
Dy40 O43 2.307 1_565 S
Dy40 O45 2.395 . S
Dy40 O46 2.379 . S
Dy40 O48 2.339 1_565 S
Dy40 O50 2.298 . S
Dy40 O54 2.275 1_565 S
Dy40 C62 2.738 . S
Dy41 O44 2.298 . S
Dy41 O47 2.275 . S
Dy41 O49 2.307 1_545 S
Dy41 O51 2.395 . S
Dy41 O52 2.379 . S
Dy41 O55 2.339 . S
Dy41 C71 2.738 . S
C42 O54 1.254 . S
C42 O55 1.257 . S
O43 Dy40 2.307 1_545 S
O43 C53 1.266 . S
O44 Dy41 2.298 . S
O44 C53 1.236 . S
O45 Dy40 2.395 . S
O45 C62 1.255 . S
O46 Dy40 2.379 . S
O46 C62 1.249 . S
O47 Dy41 2.275 . S
O47 C63 1.254 . S
O48 Dy40 2.339 1_545 S
O48 C63 1.257 . S
O49 Dy41 2.307 1_565 S
O49 C64 1.266 . S
O50 Dy40 2.298 . S
O50 C64 1.236 . S
O51 Dy41 2.395 . S
O51 C71 1.255 . S
O52 Dy41 2.379 . S
O52 C71 1.249 . S
C53 O43 1.266 . S
C53 O44 1.236 . S
O54 Dy40 2.275 1_545 S
O54 C42 1.254 . S
O55 Dy41 2.339 . S
O55 C42 1.257 . S
C56 C59 1.344 . S
C56 C60 1.328 . S
C56 C62 1.516 . S
C57 C58 1.304 . S
C57 C61 1.323 . S
C58 C57 1.304 . S
C58 C59 1.371 . S
C58 H72 0.930 . S
C59 C56 1.344 . S
C59 C58 1.371 . S
C59 H73 0.931 . S
C60 C56 1.328 . S
C60 C61 1.433 . S
C60 H74 0.931 . S
C61 C57 1.323 . S
C61 C60 1.433 . S
C61 H75 0.933 . S
C62 Dy40 2.738 . S
C62 O45 1.255 . S
C62 O46 1.249 . S
C62 C56 1.516 . S
C63 O47 1.254 . S
C63 O48 1.257 . S
C64 O49 1.266 . S
C64 O50 1.236 . S
C65 C68 1.344 . S
C65 C69 1.328 . S
C65 C71 1.516 . S
C66 C67 1.304 . S
C66 C70 1.323 . S
C67 C66 1.304 . S
C67 C68 1.371 . S
C67 H76 0.930 . S
C68 C65 1.344 . S
C68 C67 1.371 . S
C68 H77 0.931 . S
C69 C65 1.328 . S
C69 C70 1.433 . S
C69 H78 0.931 . S
C70 C66 1.323 . S
C70 C69 1.433 . S
C70 H79 0.933 . S
C71 Dy41 2.738 . S
C71 O51 1.255 . S
C71 O52 1.249 . S
C71 C65 1.516 . S
H72 C58 0.930 . S
H73 C59 0.931 . S
H74 C60 0.931 . S
H75 C61 0.933 . S
H76 C67 0.930 . S
H77 C68 0.931 . S
H78 C69 0.931 . S
H79 C70 0.933 . S
Dy80 O83 2.307 . S
Dy80 O85 2.395 . S
Dy80 O86 2.379 . S
Dy80 O88 2.339 . S
Dy80 O90 2.298 . S
Dy80 O94 2.275 . S
Dy80 C102 2.738 . S
Dy81 O84 2.298 . S
Dy81 O87 2.275 . S
Dy81 O89 2.307 . S
Dy81 O91 2.395 . S
Dy81 O92 2.379 . S
Dy81 O95 2.339 . S
Dy81 C111 2.738 . S
C82 O94 1.254 . S
C82 O95 1.257 . S
O83 Dy80 2.307 . S
O83 C93 1.266 . S
O84 Dy81 2.298 . S
O84 C93 1.236 . S
O85 Dy80 2.395 . S
O85 C102 1.255 . S
O86 Dy80 2.379 . S
O86 C102 1.249 . S
O87 Dy81 2.275 . S
O87 C103 1.254 . S
O88 Dy80 2.339 . S
O88 C103 1.257 . S
O89 Dy81 2.307 . S
O89 C104 1.266 . S
O90 Dy80 2.298 . S
O90 C104 1.236 . S
O91 Dy81 2.395 . S
O91 C111 1.255 . S
O92 Dy81 2.379 . S
O92 C111 1.249 . S
C93 O83 1.266 . S
C93 O84 1.236 . S
O94 Dy80 2.275 . S
O94 C82 1.254 . S
O95 Dy81 2.339 . S
O95 C82 1.257 . S
C96 C99 1.344 . S
C96 C100 1.328 . S
C96 C102 1.516 . S
C97 C98 1.304 . S
C97 C101 1.323 . S
C98 C97 1.304 . S
C98 C99 1.371 . S
C98 H112 0.930 . S
C99 C96 1.344 . S
C99 C98 1.371 . S
C99 H113 0.931 . S
C100 C96 1.328 . S
C100 C101 1.433 . S
C100 H114 0.931 . S
C101 C97 1.323 . S
C101 C100 1.433 . S
C101 H115 0.933 . S
C102 Dy80 2.738 . S
C102 O85 1.255 . S
C102 O86 1.249 . S
C102 C96 1.516 . S
C103 O87 1.254 . S
C103 O88 1.257 . S
C104 O89 1.266 . S
C104 O90 1.236 . S
C105 C108 1.344 . S
C105 C109 1.328 . S
C105 C111 1.516 . S
C106 C107 1.304 . S
C106 C110 1.323 . S
C107 C106 1.304 . S
C107 C108 1.371 . S
C107 H116 0.930 . S
C108 C105 1.344 . S
C108 C107 1.371 . S
C108 H117 0.931 . S
C109 C105 1.328 . S
C109 C110 1.433 . S
C109 H118 0.931 . S
C110 C106 1.323 . S
C110 C109 1.433 . S
C110 H119 0.933 . S
C111 Dy81 2.738 . S
C111 O91 1.255 . S
C111 O92 1.249 . S
C111 C105 1.516 . S
H112 C98 0.930 . S
H113 C99 0.931 . S
H114 C100 0.931 . S
H115 C101 0.933 . S
H116 C107 0.930 . S
H117 C108 0.931 . S
H118 C109 0.931 . S
H119 C110 0.933 . S
C120 C121 1.386 . S
C120 C122 1.397 . S
C120 H144 0.931 . S
C121 C120 1.386 . S
C121 C125 1.397 . S
C122 C120 1.397 . S
C122 C123 1.384 . S
C122 H145 0.930 . S
C123 C122 1.384 . S
C123 C124 1.377 . S
C123 C126 1.481 . S
C124 C123 1.377 . S
C124 C125 1.389 . S
C124 H146 0.929 1_545 S
C125 C121 1.397 . S
C125 C124 1.389 . S
C125 H147 0.931 1_545 S
C126 C123 1.481 . S
C126 C127 1.387 . S
C126 C131 1.390 . S
C127 C126 1.387 . S
C127 C128 1.401 . S
C127 H148 0.930 . S
C128 C127 1.401 . S
C128 C129 1.376 . S
C128 C137 1.511 . S
C129 C128 1.376 . S
C129 C130 1.392 . S
C129 H150 0.931 . S
C130 C129 1.392 . S
C130 C131 1.361 . S
C130 C132 1.500 1_545 S
C131 C126 1.390 . S
C131 C130 1.361 . S
C131 H149 0.924 1_545 S
C132 C130 1.500 1_565 S
C132 C133 1.371 . S
C132 C134 1.365 . S
C133 C132 1.371 . S
C133 C143 1.386 . S
C133 H151 0.931 1_565 S
C134 C132 1.365 . S
C134 C135 1.409 . S
C134 H152 0.929 . S
C135 C134 1.409 . S
C135 C136 1.380 . S
C135 H153 0.930 . S
C136 C135 1.380 . S
C136 C143 1.357 . S
C137 C128 1.511 . S
C137 C138 1.341 . S
C137 C139 1.371 . S
C138 C137 1.341 . S
C138 C142 1.394 . S
C138 H154 0.930 . S
C139 C137 1.371 . S
C139 C140 1.392 . S
C139 H155 0.931 . S
C140 C139 1.392 . S
C140 C141 1.331 . S
C140 H158 0.932 . S
C141 C140 1.331 . S
C141 C142 1.336 . S
C142 C138 1.394 . S
C142 C141 1.336 . S
C142 H157 0.929 . S
C143 C133 1.386 . S
C143 C136 1.357 . S
C143 H156 0.928 . S
H144 C120 0.931 . S
H145 C122 0.930 . S
H146 C124 0.929 1_565 S
H147 C125 0.931 1_565 S
H148 C127 0.930 . S
H149 C131 0.924 1_565 S
H150 C129 0.931 . S
H151 C133 0.931 1_545 S
H152 C134 0.929 . S
H153 C135 0.930 . S
H154 C138 0.930 . S
H155 C139 0.931 . S
H156 C143 0.928 . S
H157 C142 0.929 . S
H158 C140 0.932 . S
C159 C160 1.386 . S
C159 C161 1.397 . S
C159 H183 0.931 . S
C160 C159 1.386 . S
C160 C164 1.397 . S
C161 C159 1.397 . S
C161 C162 1.384 . S
C161 H184 0.930 . S
C162 C161 1.384 . S
C162 C163 1.377 . S
C162 C165 1.481 . S
C163 C162 1.377 . S
C163 C164 1.389 . S
C163 H185 0.929 . S
C164 C160 1.397 . S
C164 C163 1.389 . S
C164 H186 0.931 . S
C165 C162 1.481 . S
C165 C166 1.387 . S
C165 C170 1.390 . S
C166 C165 1.387 . S
C166 C167 1.401 . S
C166 H187 0.930 . S
C167 C166 1.401 . S
C167 C168 1.376 . S
C167 C176 1.511 . S
C168 C167 1.376 . S
C168 C169 1.392 . S
C168 H189 0.931 . S
C169 C168 1.392 . S
C169 C170 1.361 . S
C169 C171 1.500 . S
C170 C165 1.390 . S
C170 C169 1.361 . S
C170 H188 0.931 . S
C171 C169 1.500 . S
C171 C172 1.371 . S
C171 C173 1.365 . S
C172 C171 1.371 . S
C172 C182 1.386 . S
C172 H190 0.931 . S
C173 C171 1.365 . S
C173 C174 1.409 . S
C173 H191 0.929 . S
C174 C173 1.409 . S
C174 C175 1.380 . S
C174 H192 0.930 . S
C175 C174 1.380 . S
C175 C182 1.357 . S
C176 C167 1.511 . S
C176 C177 1.341 . S
C176 C178 1.371 . S
C177 C176 1.341 . S
C177 C181 1.394 . S
C177 H193 0.930 . S
C178 C176 1.371 . S
C178 C179 1.392 . S
C178 H194 0.931 . S
C179 C178 1.392 . S
C179 C180 1.331 . S
C179 H197 0.932 . S
C180 C179 1.331 . S
C180 C181 1.336 . S
C181 C177 1.394 . S
C181 C180 1.336 . S
C181 H196 0.929 . S
C182 C172 1.386 . S
C182 C175 1.357 . S
C182 H195 0.928 . S
H183 C159 0.931 . S
H184 C161 0.930 . S
H185 C163 0.929 . S
H186 C164 0.931 . S
H187 C166 0.930 . S
H188 C170 0.931 . S
H189 C168 0.931 . S
H190 C172 0.931 . S
H191 C173 0.929 . S
H192 C174 0.930 . S
H193 C177 0.930 . S
H194 C178 0.931 . S
H195 C182 0.928 . S
H196 C181 0.929 . S
H197 C179 0.932 . S
C198 C199 1.386 . S
C198 C200 1.397 1_554 S
C198 H222 0.931 . S
C199 C198 1.386 . S
C199 C203 1.397 1_455 S
C200 C198 1.397 1_556 S
C200 C201 1.384 . S
C200 H223 0.930 . S
C201 C200 1.384 . S
C201 C202 1.377 1_455 S
C201 C204 1.481 . S
C202 C201 1.377 1_655 S
C202 C203 1.389 1_556 S
C202 H224 0.929 . S
C203 C199 1.397 1_655 S
C203 C202 1.389 1_554 S
C203 H225 0.931 . S
C204 C201 1.481 . S
C204 C205 1.387 . S
C204 C209 1.390 1_455 S
C205 C204 1.387 . S
C205 C206 1.401 . S
C205 H226 0.930 . S
C206 C205 1.401 . S
C206 C207 1.376 . S
C206 C215 1.511 . S
C207 C206 1.376 . S
C207 C208 1.392 1_455 S
C207 H228 0.931 . S
C208 C207 1.392 1_655 S
C208 C209 1.361 . S
C208 C210 1.500 . S
C209 C204 1.390 1_655 S
C209 C208 1.361 . S
C209 H227 0.931 . S
C210 C208 1.500 . S
C210 C211 1.371 . S
C210 C212 1.365 . S
C211 C210 1.371 . S
C211 C221 1.386 . S
C211 H229 0.931 . S
C212 C210 1.365 . S
C212 C213 1.409 . S
C212 H230 0.929 . S
C213 C212 1.409 . S
C213 C214 1.380 . S
C213 H231 0.930 . S
C214 C213 1.380 . S
C214 C221 1.357 . S
C215 C206 1.511 . S
C215 C216 1.341 . S
C215 C217 1.371 . S
C216 C215 1.341 . S
C216 C220 1.394 . S
C216 H232 0.930 . S
C217 C215 1.371 . S
C217 C218 1.392 . S
C217 H233 0.931 . S
C218 C217 1.392 . S
C218 C219 1.331 . S
C218 H236 0.932 . S
C219 C218 1.331 . S
C219 C220 1.336 . S
C220 C216 1.394 . S
C220 C219 1.336 . S
C220 H235 0.929 . S
C221 C211 1.386 . S
C221 C214 1.357 . S
C221 H234 0.928 . S
H222 C198 0.931 . S
H223 C200 0.930 . S
H224 C202 0.929 . S
H225 C203 0.931 . S
H226 C205 0.930 . S
H227 C209 0.931 . S
H228 C207 0.931 . S
H229 C211 0.931 . S
H230 C212 0.929 . S
H231 C213 0.930 . S
H232 C216 0.930 . S
H233 C217 0.931 . S
H234 C221 0.928 . S
H235 C220 0.929 . S
H236 C218 0.932 . S
C237 C238 1.386 . S
C237 C239 1.397 . S
C237 H261 0.931 . S
C238 C237 1.386 . S
C238 C242 1.397 1_655 S
C239 C237 1.397 . S
C239 C240 1.403 . S
C239 H262 0.930 . S
C240 C239 1.403 . S
C240 C241 1.359 1_655 S
C240 C243 1.481 1_655 S
C241 C240 1.359 1_455 S
C241 C242 1.389 . S
C241 H263 0.929 . S
C242 C238 1.397 1_455 S
C242 C241 1.389 . S
C242 H264 0.931 . S
C243 C240 1.481 1_455 S
C243 C244 1.387 1_455 S
C243 C248 1.390 . S
C244 C243 1.387 1_655 S
C244 C245 1.401 . S
C244 H265 0.930 . S
C245 C244 1.401 . S
C245 C246 1.376 1_655 S
C245 C254 1.511 . S
C246 C245 1.376 1_455 S
C246 C247 1.392 . S
C246 H267 0.931 . S
C247 C246 1.392 . S
C247 C248 1.361 . S
C247 C249 1.500 . S
C248 C243 1.390 . S
C248 C247 1.361 . S
C248 H266 0.931 . S
C249 C247 1.500 . S
C249 C250 1.371 . S
C249 C251 1.365 . S
C250 C249 1.371 . S
C250 C260 1.386 . S
C250 H268 0.931 . S
C251 C249 1.365 . S
C251 C252 1.409 . S
C251 H269 0.929 . S
C252 C251 1.409 . S
C252 C253 1.380 . S
C252 H270 0.930 . S
C253 C252 1.380 . S
C253 C260 1.357 . S
C254 C245 1.511 . S
C254 C255 1.341 . S
C254 C256 1.371 . S
C255 C254 1.341 . S
C255 C259 1.394 . S
C255 H271 0.930 . S
C256 C254 1.371 . S
C256 C257 1.392 . S
C256 H272 0.931 . S
C257 C256 1.392 . S
C257 C258 1.331 . S
C257 H275 0.932 . S
C258 C257 1.331 . S
C258 C259 1.336 . S
C259 C255 1.394 . S
C259 C258 1.336 . S
C259 H274 0.929 . S
C260 C250 1.386 . S
C260 C253 1.357 . S
C260 H273 0.928 . S
H261 C237 0.931 . S
H262 C239 0.930 . S
H263 C241 0.929 . S
H264 C242 0.931 . S
H265 C244 0.930 . S
H266 C248 0.931 . S
H267 C246 0.931 . S
H268 C250 0.931 . S
H269 C251 0.929 . S
H270 C252 0.930 . S
H271 C255 0.930 . S
H272 C256 0.931 . S
H273 C260 0.928 . S
H274 C259 0.929 . S
H275 C257 0.932 . S
C276 C277 1.386 1_565 S
C276 C278 1.397 . S
C276 H300 0.931 . S
C277 C276 1.386 1_545 S
C277 C281 1.397 . S
C278 C276 1.397 . S
C278 C279 1.384 1_565 S
C278 H301 0.930 . S
C279 C278 1.384 1_545 S
C279 C280 1.377 . S
C279 C282 1.481 . S
C280 C279 1.377 . S
C280 C281 1.389 . S
C280 H302 0.929 . S
C281 C277 1.397 . S
C281 C280 1.389 . S
C281 H303 0.931 . S
C282 C279 1.481 . S
C282 C283 1.387 1_545 S
C282 C287 1.390 . S
C283 C282 1.387 1_565 S
C283 C284 1.401 . S
C283 H304 0.930 . S
C284 C283 1.401 . S
C284 C285 1.376 1_565 S
C284 C293 1.511 . S
C285 C284 1.376 1_545 S
C285 C286 1.392 . S
C285 H306 0.931 . S
C286 C285 1.392 . S
C286 C287 1.361 . S
C286 C288 1.500 . S
C287 C282 1.390 . S
C287 C286 1.361 . S
C287 H305 0.931 . S
C288 C286 1.500 . S
C288 C289 1.371 . S
C288 C290 1.365 . S
C289 C288 1.371 . S
C289 C299 1.386 . S
C289 H307 0.931 . S
C290 C288 1.365 . S
C290 C291 1.409 . S
C290 H308 0.929 . S
C291 C290 1.409 . S
C291 C292 1.380 . S
C291 H309 0.930 . S
C292 C291 1.380 . S
C292 C299 1.357 . S
C293 C284 1.511 . S
C293 C294 1.341 . S
C293 C295 1.371 . S
C294 C293 1.341 . S
C294 C298 1.394 . S
C294 H310 0.930 . S
C295 C293 1.371 . S
C295 C296 1.392 . S
C295 H311 0.931 . S
C296 C295 1.392 . S
C296 C297 1.331 . S
C296 H314 0.932 . S
C297 C296 1.331 . S
C297 C298 1.336 . S
C298 C294 1.394 . S
C298 C297 1.336 . S
C298 H313 0.929 . S
C299 C289 1.386 . S
C299 C292 1.357 . S
C299 H312 0.928 . S
H300 C276 0.931 . S
H301 C278 0.930 . S
H302 C280 0.929 . S
H303 C281 0.931 . S
H304 C283 0.930 . S
H305 C287 0.931 . S
H306 C285 0.931 . S
H307 C289 0.931 . S
H308 C290 0.929 . S
H309 C291 0.930 . S
H310 C294 0.930 . S
H311 C295 0.931 . S
H312 C299 0.928 . S
H313 C298 0.929 . S
H314 C296 0.932 . S
C315 C316 1.386 1_554 S
C315 C317 1.397 . S
C315 H339 0.931 . S
C316 C315 1.386 1_556 S
C316 C320 1.397 1_556 S
C317 C315 1.397 . S
C317 C318 1.384 . S
C317 H340 0.930 . S
C318 C317 1.384 . S
C318 C319 1.377 . S
C318 C321 1.481 . S
C319 C318 1.377 . S
C319 C320 1.389 . S
C319 H341 0.929 . S
C320 C316 1.397 1_554 S
C320 C319 1.389 . S
C320 H342 0.932 . S
C321 C318 1.481 . S
C321 C322 1.387 . S
C321 C326 1.390 . S
C322 C321 1.387 . S
C322 C323 1.401 . S
C322 H343 0.930 . S
C323 C322 1.401 . S
C323 C324 1.376 . S
C323 C332 1.511 . S
C324 C323 1.376 . S
C324 C325 1.392 . S
C324 H345 0.931 . S
C325 C324 1.392 . S
C325 C326 1.361 . S
C325 C327 1.500 . S
C326 C321 1.390 . S
C326 C325 1.361 . S
C326 H344 0.931 . S
C327 C325 1.500 . S
C327 C328 1.371 . S
C327 C329 1.365 . S
C328 C327 1.371 . S
C328 C338 1.386 . S
C328 H346 0.931 . S
C329 C327 1.365 . S
C329 C330 1.409 . S
C329 H347 0.929 . S
C330 C329 1.409 . S
C330 C331 1.380 . S
C330 H348 0.930 . S
C331 C330 1.380 . S
C331 C338 1.357 . S
C332 C323 1.511 . S
C332 C333 1.341 . S
C332 C334 1.371 . S
C333 C332 1.341 . S
C333 C337 1.394 . S
C333 H349 0.930 . S
C334 C332 1.371 . S
C334 C335 1.392 . S
C334 H350 0.931 . S
C335 C334 1.392 . S
C335 C336 1.331 . S
C335 H353 0.932 . S
C336 C335 1.331 . S
C336 C337 1.336 . S
C337 C333 1.394 . S
C337 C336 1.336 . S
C337 H352 0.929 . S
C338 C328 1.386 . S
C338 C331 1.357 . S
C338 H351 0.928 . S
H339 C315 0.931 . S
H340 C317 0.930 . S
H341 C319 0.929 . S
H342 C320 0.932 . S
H343 C322 0.930 . S
H344 C326 0.931 . S
H345 C324 0.931 . S
H346 C328 0.931 . S
H347 C329 0.929 . S
H348 C330 0.930 . S
H349 C333 0.930 . S
H350 C334 0.931 . S
H351 C338 0.928 . S
H352 C337 0.929 . S
H353 C335 0.932 . S
C354 C355 1.387 . S
C354 H358 0.950 . S
C354 C363 1.390 . S
C355 C354 1.387 . S
C355 C357 1.387 . S
H356 C363 0.950 . S
C357 C355 1.387 . S
C357 C359 1.390 . S
C357 H361 0.950 . S
H358 C354 0.950 . S
C359 C357 1.390 . S
C359 C360 1.387 . S
C359 H362 0.950 . S
C360 C359 1.387 . S
C360 C363 1.387 . S
H361 C357 0.950 . S
H362 C359 0.950 . S
C363 C354 1.390 . S
C363 H356 0.950 . S
C363 C360 1.387 . S
C364 C365 1.387 . S
C364 H368 0.950 . S
C364 C373 1.390 . S
C365 C364 1.387 . S
C365 C367 1.387 . S
H366 C373 0.950 . S
C367 C365 1.387 . S
C367 C369 1.390 . S
C367 H371 0.950 . S
H368 C364 0.950 . S
C369 C367 1.390 . S
C369 C370 1.387 . S
C369 H372 0.950 . S
C370 C369 1.387 . S
C370 C373 1.387 . S
H371 C367 0.950 . S
H372 C369 0.950 . S
C373 C364 1.390 . S
C373 H366 0.950 . S
C373 C370 1.387 . S
C374 C375 1.387 . S
C374 H378 0.950 . S
C374 C383 1.390 . S
C375 C374 1.387 . S
C375 C377 1.387 . S
H376 C383 0.950 . S
C377 C375 1.387 . S
C377 C379 1.390 . S
C377 H381 0.950 . S
H378 C374 0.950 . S
C379 C377 1.390 . S
C379 C380 1.387 . S
C379 H382 0.950 . S
C380 C379 1.387 . S
C380 C383 1.387 . S
H381 C377 0.950 . S
H382 C379 0.950 . S
C383 C374 1.390 . S
C383 H376 0.950 . S
C383 C380 1.387 . S
C384 C385 1.387 . S
C384 H388 0.950 . S
C384 C393 1.390 . S
C385 C384 1.387 . S
C385 C387 1.387 . S
H386 C393 0.950 . S
C387 C385 1.387 . S
C387 C389 1.390 . S
C387 H391 0.950 . S
H388 C384 0.950 . S
C389 C387 1.390 . S
C389 C390 1.387 . S
C389 H392 0.950 . S
C390 C389 1.387 . S
C390 C393 1.387 . S
H391 C387 0.950 . S
H392 C389 0.950 . S
C393 C384 1.390 . S
C393 H386 0.950 . S
C393 C390 1.387 . S
C394 C395 1.387 . S
C394 H398 0.950 . S
C394 C403 1.390 . S
C395 C394 1.387 . S
C395 C397 1.387 . S
H396 C403 0.950 . S
C397 C395 1.387 . S
C397 C399 1.390 . S
C397 H401 0.950 . S
H398 C394 0.950 . S
C399 C397 1.390 . S
C399 C400 1.387 . S
C399 H402 0.950 . S
C400 C399 1.387 . S
C400 C403 1.387 . S
H401 C397 0.950 . S
H402 C399 0.950 . S
C403 C394 1.390 . S
C403 H396 0.950 . S
C403 C400 1.387 . S
C404 C405 1.387 . S
C404 H408 0.950 . S
C404 C413 1.390 . S
C405 C404 1.387 . S
C405 C407 1.387 . S
H406 C413 0.950 . S
C407 C405 1.387 . S
C407 C409 1.390 . S
C407 H411 0.950 . S
H408 C404 0.950 . S
C409 C407 1.390 . S
C409 C410 1.387 . S
C409 H412 0.950 . S
C410 C409 1.387 . S
C410 C413 1.387 . S
H411 C407 0.950 . S
H412 C409 0.950 . S
C413 C404 1.390 . S
C413 H406 0.950 . S
C413 C410 1.387 . S
C414 C415 1.387 . S
C414 H418 0.950 . S
C414 C423 1.390 . S
C415 C414 1.387 . S
C415 C417 1.387 . S
H416 C423 0.950 . S
C417 C415 1.387 . S
C417 C419 1.390 . S
C417 H421 0.950 . S
H418 C414 0.950 . S
C419 C417 1.390 . S
C419 C420 1.387 . S
C419 H422 0.950 . S
C420 C419 1.387 . S
C420 C423 1.387 . S
H421 C417 0.950 . S
H422 C419 0.950 . S
C423 C414 1.390 . S
C423 H416 0.950 . S
C423 C420 1.387 . S
C424 C425 1.387 . S
C424 H428 0.950 . S
C424 C433 1.390 . S
C425 C424 1.387 . S
C425 C427 1.387 . S
H426 C433 0.950 . S
C427 C425 1.387 . S
C427 C429 1.390 . S
C427 H431 0.950 . S
H428 C424 0.950 . S
C429 C427 1.390 . S
C429 C430 1.387 . S
C429 H432 0.950 . S
C430 C429 1.387 . S
C430 C433 1.387 . S
H431 C427 0.950 . S
H432 C429 0.950 . S
C433 C424 1.390 . S
C433 H426 0.950 . S
C433 C430 1.387 . S
C434 C435 1.387 . S
C434 H438 0.950 . S
C434 C443 1.390 . S
C435 C434 1.387 . S
C435 C437 1.387 . S
H436 C443 0.950 . S
C437 C435 1.387 . S
C437 C439 1.390 . S
C437 H441 0.950 . S
H438 C434 0.950 . S
C439 C437 1.390 . S
C439 C440 1.387 . S
C439 H442 0.950 . S
C440 C439 1.387 . S
C440 C443 1.387 . S
H441 C437 0.950 . S
H442 C439 0.950 . S
C443 C434 1.390 . S
C443 H436 0.950 . S
C443 C440 1.387 . S
C444 C445 1.387 . S
C444 H448 0.950 . S
C444 C453 1.390 . S
C445 C444 1.387 . S
C445 C447 1.387 . S
H446 C453 0.950 . S
C447 C445 1.387 . S
C447 C449 1.390 . S
C447 H451 0.950 . S
H448 C444 0.950 . S
C449 C447 1.390 . S
C449 C450 1.387 . S
C449 H452 0.950 . S
C450 C449 1.387 . S
C450 C453 1.387 . S
H451 C447 0.950 . S
H452 C449 0.950 . S
C453 C444 1.390 . S
C453 H446 0.950 . S
C453 C450 1.387 . S
C454 C455 1.387 . S
C454 H458 0.950 . S
C454 C463 1.390 . S
C455 C454 1.387 . S
C455 C457 1.387 . S
H456 C463 0.950 . S
C457 C455 1.387 . S
C457 C459 1.390 . S
C457 H461 0.950 . S
H458 C454 0.950 . S
C459 C457 1.390 . S
C459 C460 1.387 . S
C459 H462 0.950 . S
C460 C459 1.387 . S
C460 C463 1.387 . S
H461 C457 0.950 . S
H462 C459 0.950 . S
C463 C454 1.390 . S
C463 H456 0.950 . S
C463 C460 1.387 . S
C464 C465 1.387 . S
C464 H468 0.950 . S
C464 C473 1.390 . S
C465 C464 1.387 . S
C465 C467 1.387 . S
H466 C473 0.950 . S
C467 C465 1.387 . S
C467 C469 1.390 . S
C467 H471 0.950 . S
H468 C464 0.950 . S
C469 C467 1.390 . S
C469 C470 1.387 . S
C469 H472 0.950 . S
C470 C469 1.387 . S
C470 C473 1.387 . S
H471 C467 0.950 . S
H472 C469 0.950 . S
C473 C464 1.390 . S
C473 H466 0.950 . S
C473 C470 1.387 . S
C474 C475 1.387 . S
C474 H478 0.950 . S
C474 C483 1.390 . S
C475 C474 1.387 . S
C475 C477 1.387 1_455 S
H476 C483 0.950 . S
C477 C475 1.387 1_655 S
C477 C479 1.390 1_655 S
C477 H481 0.950 . S
H478 C474 0.950 . S
C479 C477 1.390 1_455 S
C479 C480 1.387 . S
C479 H482 0.950 1_455 S
C480 C479 1.387 . S
C480 C483 1.387 . S
H481 C477 0.950 . S
H482 C479 0.950 1_655 S
C483 C474 1.390 . S
C483 H476 0.950 . S
C483 C480 1.387 . S
C484 C485 1.387 . S
C484 H488 0.950 . S
C484 C493 1.390 . S
C485 C484 1.387 . S
C485 C487 1.385 1_545 S
H486 C493 0.950 . S
C487 C485 1.385 1_565 S
C487 C489 1.389 1_565 S
C487 H491 0.953 . S
H488 C484 0.950 . S
C489 C487 1.389 1_545 S
C489 C490 1.387 . S
C489 H492 0.950 1_545 S
C490 C489 1.387 . S
C490 C493 1.387 . S
H491 C487 0.953 . S
H492 C489 0.950 1_565 S
C493 C484 1.390 . S
C493 H486 0.950 . S
C493 C490 1.387 . S
C494 C495 1.387 . S
C494 H498 0.950 . S
C494 C503 1.390 . S
C495 C494 1.387 . S
C495 C497 1.387 . S
H496 C503 0.950 . S
C497 C495 1.387 . S
C497 C499 1.390 . S
C497 H501 0.950 . S
H498 C494 0.950 . S
C499 C497 1.390 . S
C499 C500 1.387 . S
C499 H502 0.950 . S
C500 C499 1.387 . S
C500 C503 1.387 . S
H501 C497 0.950 . S
H502 C499 0.950 . S
C503 C494 1.390 . S
C503 H496 0.950 . S
C503 C500 1.387 . S
C504 C505 1.387 . S
C504 H508 0.950 . S
C504 C513 1.390 . S
C505 C504 1.387 . S
C505 C507 1.387 1_545 S
H506 C513 0.950 . S
C507 C505 1.387 1_565 S
C507 C509 1.390 . S
C507 H511 0.950 . S
H508 C504 0.950 . S
C509 C507 1.390 . S
C509 C510 1.387 1_565 S
C509 H512 0.950 . S
C510 C509 1.387 1_545 S
C510 C513 1.387 . S
H511 C507 0.950 . S
H512 C509 0.950 . S
C513 C504 1.390 . S
C513 H506 0.950 . S
C513 C510 1.387 . S
C514 C515 1.387 . S
C514 H518 0.950 . S
C514 C523 1.390 . S
C515 C514 1.387 . S
C515 C517 1.387 . S
H516 C523 0.950 . S
C517 C515 1.387 . S
C517 C519 1.390 . S
C517 H521 0.950 . S
H518 C514 0.950 . S
C519 C517 1.390 . S
C519 C520 1.387 . S
C519 H522 0.950 . S
C520 C519 1.387 . S
C520 C523 1.387 . S
H521 C517 0.950 . S
H522 C519 0.950 . S
C523 C514 1.390 . S
C523 H516 0.950 . S
C523 C520 1.387 . S
C524 C525 1.377 1_655 S
C524 H528 0.950 . S
C524 C533 1.390 . S
C525 C524 1.377 1_455 S
C525 C527 1.396 . S
H526 C533 0.950 . S
C527 C525 1.396 . S
C527 C529 1.390 . S
C527 H531 0.950 . S
H528 C524 0.950 . S
C529 C527 1.390 . S
C529 C530 1.387 1_455 S
C529 H532 0.950 . S
C530 C529 1.387 1_655 S
C530 C533 1.387 . S
H531 C527 0.950 . S
H532 C529 0.950 . S
C533 C524 1.390 . S
C533 H526 0.950 . S
C533 C530 1.387 . S
C355 C24 3.062 . S
C360 C331 3.008 . S
C365 C66 1.250 . S
C370 C258 1.320 . S
C375 C93 2.002 . S
C380 C297 1.916 . S
C385 C13 3.193 . S
C390 C336 3.109 . S
C400 C253 1.361 . S
C395 C57 1.350 . S
C410 C292 2.015 . S
C405 C104 2.092 . S
C415 C64 2.075 . S
C420 C180 1.992 . S
C425 C97 0.889 . S
C430 C214 0.913 . S
C435 C17 1.398 . S
C440 C136 1.447 . S
C450 C175 1.907 . S
C445 C53 2.001 . S
C460 C219 0.486 . S
C455 C106 0.635 . S
C465 C26 1.278 . S
C470 C141 1.346 . S
C480 C199 1.059 . S
C475 C2 1.069 . S
C485 C63 1.454 . S
C490 C121 1.494 . S
C495 C82 1.368 . S
C500 C160 1.377 . S
C510 C277 1.399 . S
C505 C42 1.383 . S
C520 C316 1.808 . S
C515 C103 1.765 . S
C525 C23 1.484 . S
C530 C238 1.508 . S
