# Generated by pormake.
# Topology apo, (3,6)-cn, num edge types: 1
# Building blocks:
#     Node 0, Type 0, BuildingBlock: VETTIZ_charged_linker_0, # of connection points: 3
#     Node 1, Type 0, BuildingBlock: VETTIZ_charged_linker_0, # of connection points: 3
#     Node 2, Type 0, BuildingBlock: VETTIZ_charged_linker_0, # of connection points: 3
#     Node 3, Type 0, BuildingBlock: VETTIZ_charged_linker_0, # of connection points: 3
#     Node 4, Type 0, BuildingBlock: VETTIZ_charged_linker_0, # of connection points: 3
#     Node 5, Type 0, BuildingBlock: VETTIZ_charged_linker_0, # of connection points: 3
#     Node 6, Type 0, BuildingBlock: VETTIZ_charged_linker_0, # of connection points: 3
#     Node 7, Type 0, BuildingBlock: VETTIZ_charged_linker_0, # of connection points: 3
#     Node 8, Type 1, BuildingBlock: KUMBOL_clean_sbu_1, # of connection points: 6
#     Node 9, Type 1, BuildingBlock: KUMBOL_clean_sbu_1, # of connection points: 6
#     Node 10, Type 1, BuildingBlock: KUMBOL_clean_sbu_1, # of connection points: 6
#     Node 11, Type 1, BuildingBlock: KUMBOL_clean_sbu_1, # of connection points: 6
#     Edge 12, Type (0, 1), BuildingBlock: AJUNOK_clean_linker_0, # of connection points: 2
#     Edge 13, Type (0, 1), BuildingBlock: AJUNOK_clean_linker_0, # of connection points: 2
#     Edge 14, Type (0, 1), BuildingBlock: AJUNOK_clean_linker_0, # of connection points: 2
#     Edge 15, Type (0, 1), BuildingBlock: AJUNOK_clean_linker_0, # of connection points: 2
#     Edge 16, Type (0, 1), BuildingBlock: AJUNOK_clean_linker_0, # of connection points: 2
#     Edge 17, Type (0, 1), BuildingBlock: AJUNOK_clean_linker_0, # of connection points: 2
#     Edge 18, Type (0, 1), BuildingBlock: AJUNOK_clean_linker_0, # of connection points: 2
#     Edge 19, Type (0, 1), BuildingBlock: AJUNOK_clean_linker_0, # of connection points: 2
#     Edge 20, Type (0, 1), BuildingBlock: AJUNOK_clean_linker_0, # of connection points: 2
#     Edge 21, Type (0, 1), BuildingBlock: AJUNOK_clean_linker_0, # of connection points: 2
#     Edge 22, Type (0, 1), BuildingBlock: AJUNOK_clean_linker_0, # of connection points: 2
#     Edge 23, Type (0, 1), BuildingBlock: AJUNOK_clean_linker_0, # of connection points: 2
#     Edge 24, Type (0, 1), BuildingBlock: AJUNOK_clean_linker_0, # of connection points: 2
#     Edge 25, Type (0, 1), BuildingBlock: AJUNOK_clean_linker_0, # of connection points: 2
#     Edge 26, Type (0, 1), BuildingBlock: AJUNOK_clean_linker_0, # of connection points: 2
#     Edge 27, Type (0, 1), BuildingBlock: AJUNOK_clean_linker_0, # of connection points: 2
#     Edge 28, Type (0, 1), BuildingBlock: AJUNOK_clean_linker_0, # of connection points: 2
#     Edge 29, Type (0, 1), BuildingBlock: AJUNOK_clean_linker_0, # of connection points: 2
#     Edge 30, Type (0, 1), BuildingBlock: AJUNOK_clean_linker_0, # of connection points: 2
#     Edge 31, Type (0, 1), BuildingBlock: AJUNOK_clean_linker_0, # of connection points: 2
#     Edge 32, Type (0, 1), BuildingBlock: AJUNOK_clean_linker_0, # of connection points: 2
#     Edge 33, Type (0, 1), BuildingBlock: AJUNOK_clean_linker_0, # of connection points: 2
#     Edge 34, Type (0, 1), BuildingBlock: AJUNOK_clean_linker_0, # of connection points: 2
#     Edge 35, Type (0, 1), BuildingBlock: AJUNOK_clean_linker_0, # of connection points: 2
# Relax obj value: 0.009
# Max RMSD: 0.111
# Mean RMSD: 0.086
data_MOF--net-apo--node1-KUMBOL_clean_sbu_1--node2-VETTIZ_charged_linker_0--edge1-AJUNOK_clean_linker_0
_symmetry_space_group_name_H-M    P1
_symmetry_Int_Tables_number       1
_symmetry_cell_setting            triclinic
loop_
_symmetry_equiv_pos_as_xyz
'x, y, z'
_cell_length_a     23.03029
_cell_length_b     40.51134
_cell_length_c     51.253365
_cell_angle_alpha  90.069439
_cell_angle_beta   89.983548
_cell_angle_gamma 90.477449
loop_
_atom_site_label
_atom_site_type_symbol
_atom_site_fract_x
_atom_site_fract_y
_atom_site_fract_z
_atom_type_partial_charge
C0 C 0.26146 0.37054 0.50684 0.0
C1 C 0.28534 0.39568 0.5226 0.0
C2 C 0.30794 0.42431 0.51065 0.0
C3 C 0.28242 0.40283 0.46791 0.0
C4 C 0.2601 0.37472 0.47963 0.0
C5 C 0.23356 0.35129 0.46003 0.0
H6 H 0.17618 0.31325 0.33342 0.0
C7 C 0.27291 0.39999 0.43942 0.0
C8 C 0.24394 0.36987 0.43466 0.0
H9 H 0.1295 0.2569 0.40176 0.0
H10 H 0.17301 0.29884 0.42964 0.0
H11 H 0.13544 0.38077 0.35544 0.0
H12 H 0.30472 0.33699 0.35315 0.0
H13 H 0.31219 0.37851 0.34361 0.0
H14 H 0.26693 0.35107 0.32468 0.0
H15 H 0.17923 0.38175 0.32651 0.0
H16 H 0.1846 0.4136 0.35112 0.0
C17 C 0.16799 0.34746 0.46623 0.0
C18 C 0.26777 0.3186 0.46097 0.0
C19 C 0.34745 0.49024 0.37842 0.0
C20 C 0.34503 0.49399 0.35121 0.0
C21 C 0.31607 0.4701 0.33602 0.0
C22 C 0.29045 0.44235 0.34773 0.0
C23 C 0.29397 0.43841 0.37494 0.0
C24 C 0.32143 0.46233 0.38987 0.0
C25 C 0.31996 0.45411 0.41853 0.0
C26 C 0.28768 0.42119 0.41827 0.0
C27 C 0.27306 0.41206 0.39266 0.0
C28 C 0.28519 0.48132 0.4328 0.0
C29 C 0.38335 0.4504 0.42808 0.0
C30 C 0.17563 0.31003 0.35441 0.0
C31 C 0.14996 0.28189 0.36556 0.0
C32 C 0.14916 0.27853 0.39289 0.0
C33 C 0.17449 0.30285 0.40896 0.0
C34 C 0.20031 0.33096 0.39753 0.0
C35 C 0.19988 0.33429 0.37067 0.0
C36 C 0.22685 0.36628 0.36186 0.0
C37 C 0.24435 0.3815 0.38779 0.0
C38 C 0.22936 0.36061 0.40866 0.0
C39 C 0.17954 0.38675 0.34782 0.0
C40 C 0.28034 0.35807 0.34477 0.0
H41 H 0.32485 0.45034 0.47559 0.0
H42 H 0.2428 0.34854 0.51556 0.0
H43 H 0.31527 0.32366 0.46205 0.0
H44 H 0.26155 0.30323 0.44341 0.0
H45 H 0.25547 0.30385 0.47841 0.0
H46 H 0.15019 0.37065 0.47457 0.0
H47 H 0.16016 0.32744 0.48063 0.0
H48 H 0.14146 0.34268 0.44865 0.0
H49 H 0.36997 0.5083 0.39039 0.0
H50 H 0.31441 0.47263 0.31498 0.0
H51 H 0.26961 0.42483 0.33506 0.0
H52 H 0.25113 0.49181 0.41992 0.0
H53 H 0.31401 0.50198 0.43904 0.0
H54 H 0.2611 0.47183 0.44991 0.0
H55 H 0.40971 0.43693 0.41338 0.0
H56 H 0.38694 0.43583 0.44617 0.0
H57 H 0.40413 0.47492 0.43126 0.0
H58 H 0.32647 0.44395 0.52245 0.0
C59 C 0.30691 0.42795 0.48345 0.0
C60 C 0.32959 0.20334 0.85482 0.0
C61 C 0.34879 0.23347 0.86526 0.0
C62 C 0.33758 0.24065 0.8917 0.0
C63 C 0.28703 0.18811 0.89659 0.0
C64 C 0.2984 0.18136 0.87062 0.0
C65 C 0.27128 0.14951 0.86172 0.0
H66 H 0.099 0.01743 0.88554 0.0
C67 C 0.25118 0.16055 0.90707 0.0
C68 C 0.24146 0.13816 0.88654 0.0
H69 H 0.18896 0.04298 0.81432 0.0
H70 H 0.23094 0.09096 0.83507 0.0
H71 H 0.20739 0.03149 0.92202 0.0
H72 H 0.06114 0.09192 0.90241 0.0
H73 H 0.0732 0.09549 0.93622 0.0
H74 H 0.05561 0.05569 0.92244 0.0
H75 H 0.13781 0.02563 0.93712 0.0
H76 H 0.19097 0.05422 0.95015 0.0
C77 C 0.3207 0.12588 0.85349 0.0
C78 C 0.22708 0.1575 0.83981 0.0
C79 C 0.19667 0.15572 1.00352 0.0
C80 C 0.16528 0.13241 0.01843 0.0
C81 C 0.13801 0.10574 1.00551 0.0
C82 C 0.14299 0.10179 0.97845 0.0
C83 C 0.17602 0.12458 0.96396 0.0
C84 C 0.20138 0.15136 0.97638 0.0
C85 C 0.23457 0.17309 0.95757 0.0
C86 C 0.22728 0.15399 0.93219 0.0
C87 C 0.19274 0.12563 0.93611 0.0
C88 C 0.29878 0.17472 0.96638 0.0
C89 C 0.20441 0.20708 0.95652 0.0
C90 C 0.12744 0.03365 0.87451 0.0
C91 C 0.14037 0.02689 0.84825 0.0
C92 C 0.17849 0.04792 0.83457 0.0
C93 C 0.20265 0.07578 0.84666 0.0
C94 C 0.18889 0.08262 0.87283 0.0
C95 C 0.15256 0.06149 0.88645 0.0
C96 C 0.14557 0.0719 0.9145 0.0
C97 C 0.18212 0.10336 0.91514 0.0
C98 C 0.20696 0.10949 0.89063 0.0
C99 C 0.17126 0.04447 0.93203 0.0
C100 C 0.08051 0.07898 0.91941 0.0
H101 H 0.2997 0.22478 0.92745 0.0
H102 H 0.33683 0.19751 0.83444 0.0
H103 H 0.20538 0.18149 0.84357 0.0
H104 H 0.19114 0.13939 0.83847 0.0
H105 H 0.24888 0.1593 0.82052 0.0
H106 H 0.36063 0.13039 0.86523 0.0
H107 H 0.3324 0.12931 0.83263 0.0
H108 H 0.30983 0.09962 0.85696 0.0
H109 H 0.21816 0.17646 1.01287 0.0
H110 H 0.11482 0.08698 0.01649 0.0
H111 H 0.122 0.08064 0.96995 0.0
H112 H 0.3143 0.14975 0.97187 0.0
H113 H 0.30407 0.19111 0.98362 0.0
H114 H 0.32836 0.18342 0.95088 0.0
H115 H 0.15665 0.20441 0.95922 0.0
H116 H 0.20946 0.21936 0.93741 0.0
H117 H 0.22092 0.22375 0.97211 0.0
H118 H 0.35216 0.26385 0.90005 0.0
C119 C 0.30706 0.21802 0.90748 0.0
C120 C 0.82121 0.16369 0.52586 0.0
C121 C 0.84681 0.14044 0.50907 0.0
C122 C 0.86749 0.11071 0.51985 0.0
C123 C 0.83589 0.12764 0.56313 0.0
C124 C 0.81633 0.15691 0.55257 0.0
C125 C 0.79071 0.17943 0.57281 0.0
H126 H 0.69495 0.20032 0.69638 0.0
C127 C 0.8237 0.1283 0.59158 0.0
C128 C 0.79722 0.15874 0.59726 0.0
H129 H 0.69369 0.27213 0.63396 0.0
H130 H 0.74265 0.23364 0.60566 0.0
H131 H 0.67082 0.13513 0.66437 0.0
H132 H 0.82428 0.18653 0.68899 0.0
H133 H 0.84651 0.14534 0.68685 0.0
H134 H 0.78987 0.15653 0.70957 0.0
H135 H 0.69564 0.13767 0.69752 0.0
H136 H 0.71889 0.10513 0.67612 0.0
C137 C 0.72621 0.18513 0.5658 0.0
C138 C 0.82794 0.21144 0.57404 0.0
C139 C 0.87251 0.0303 0.65064 0.0
C140 C 0.86525 0.02539 0.67774 0.0
C141 C 0.84122 0.05085 0.69288 0.0
C142 C 0.82254 0.07999 0.6814 0.0
C143 C 0.82879 0.08441 0.65442 0.0
C144 C 0.85407 0.06013 0.6394 0.0
C145 C 0.85901 0.07047 0.61112 0.0
C146 C 0.83252 0.10487 0.61192 0.0
C147 C 0.81448 0.11238 0.63738 0.0
C148 C 0.8223 0.04622 0.5945 0.0
C149 C 0.92409 0.0716 0.60369 0.0
C150 C 0.70537 0.2081 0.67671 0.0
C151 C 0.68811 0.23902 0.6673 0.0
C152 C 0.70368 0.2479 0.64152 0.0
C153 C 0.73292 0.22567 0.62515 0.0
C154 C 0.74829 0.19448 0.6348 0.0
C155 C 0.73602 0.18675 0.66045 0.0
C156 C 0.76041 0.15416 0.66843 0.0
C157 C 0.78673 0.14262 0.64292 0.0
C158 C 0.77901 0.16601 0.62314 0.0
C159 C 0.70917 0.13171 0.67726 0.0
C160 C 0.80742 0.16071 0.68965 0.0
H161 H 0.87858 0.08114 0.55371 0.0
H162 H 0.80466 0.18674 0.51831 0.0
H163 H 0.87401 0.20652 0.56889 0.0
H164 H 0.82986 0.22213 0.59388 0.0
H165 H 0.81156 0.23032 0.56024 0.0
H166 H 0.70466 0.16139 0.56043 0.0
H167 H 0.7223 0.20214 0.54893 0.0
H168 H 0.70071 0.1952 0.58212 0.0
H169 H 0.89184 0.0114 0.63855 0.0
H170 H 0.83745 0.04844 0.71386 0.0
H171 H 0.80387 0.0979 0.69416 0.0
H172 H 0.78012 0.04078 0.60425 0.0
H173 H 0.84529 0.02246 0.59178 0.0
H174 H 0.81095 0.05623 0.57519 0.0
H175 H 0.95062 0.08149 0.62012 0.0
H176 H 0.93329 0.08821 0.58712 0.0
H177 H 0.94029 0.04654 0.59898 0.0
H178 H 0.88855 0.09264 0.50756 0.0
C179 C 0.86204 0.10417 0.54672 0.0
C180 C 0.83403 0.30674 0.17371 0.0
C181 C 0.84302 0.27407 0.1654 0.0
C182 C 0.8196 0.26397 0.14117 0.0
C183 C 0.78059 0.3187 0.13403 0.0
C184 C 0.80224 0.32829 0.15802 0.0
C185 C 0.78484 0.36279 0.16519 0.0
H186 H 0.61862 0.49571 0.14166 0.0
C187 C 0.74848 0.34692 0.12294 0.0
C188 C 0.75027 0.37265 0.14127 0.0
H189 H 0.72625 0.47551 0.20875 0.0
H190 H 0.76343 0.42692 0.18783 0.0
H191 H 0.72096 0.4783 0.10022 0.0
H192 H 0.57557 0.4212 0.12851 0.0
H193 H 0.57897 0.41887 0.09405 0.0
H194 H 0.5692 0.45823 0.10947 0.0
H195 H 0.65009 0.48224 0.08616 0.0
H196 H 0.70064 0.45149 0.07482 0.0
C197 C 0.84076 0.38401 0.16824 0.0
C198 C 0.7465 0.3607 0.19007 0.0
C199 C 0.66497 0.33937 0.03133 0.0
C200 C 0.63641 0.3622 0.0154 0.0
C201 C 0.62295 0.39359 0.02537 0.0
C202 C 0.63792 0.40222 0.05107 0.0
C203 C 0.66714 0.37927 0.0668 0.0
C204 C 0.68042 0.3485 0.0568 0.0
C205 C 0.7135 0.32774 0.07594 0.0
C206 C 0.71931 0.35142 0.09879 0.0
C207 C 0.6913 0.3814 0.09351 0.0
C208 C 0.77321 0.31949 0.06379 0.0
C209 C 0.67581 0.29709 0.08287 0.0
C210 C 0.65058 0.48087 0.15163 0.0
C211 C 0.66797 0.48867 0.17726 0.0
C212 C 0.71071 0.4693 0.18939 0.0
C213 C 0.73227 0.44109 0.1772 0.0
C214 C 0.71126 0.43209 0.15247 0.0
C215 C 0.67293 0.45247 0.13958 0.0
C216 C 0.65847 0.43955 0.11269 0.0
C217 C 0.69088 0.40692 0.1126 0.0
C218 C 0.72124 0.40272 0.13608 0.0
C219 C 0.68332 0.46411 0.09229 0.0
C220 C 0.592 0.43425 0.11086 0.0
H221 H 0.77236 0.27694 0.1072 0.0
H222 H 0.85091 0.3154 0.19224 0.0
H223 H 0.72023 0.33751 0.19029 0.0
H224 H 0.71408 0.38052 0.19136 0.0
H225 H 0.77352 0.361 0.20802 0.0
H226 H 0.87474 0.37607 0.15418 0.0
H227 H 0.85914 0.38173 0.18819 0.0
H228 H 0.83377 0.41038 0.16383 0.0
H229 H 0.67616 0.3152 0.02389 0.0
H230 H 0.60114 0.41146 1.01319 0.0
H231 H 0.62647 0.42644 0.05768 0.0
H232 H 0.79245 0.34169 0.05425 0.0
H233 H 0.76882 0.29989 0.04872 0.0
H234 H 0.80551 0.31156 0.07831 0.0
H235 H 0.62868 0.30254 0.08121 0.0
H236 H 0.68159 0.28909 0.10332 0.0
H237 H 0.68519 0.27608 0.06962 0.0
H238 H 0.82375 0.2387 0.13461 0.0
C239 C 0.78899 0.28614 0.12538 0.0
C240 C 0.66755 0.53998 0.67939 0.0
C241 C 0.63245 0.51422 0.6697 0.0
C242 C 0.61726 0.51414 0.64305 0.0
C243 C 0.66962 0.56571 0.63667 0.0
C244 C 0.68481 0.56553 0.66272 0.0
C245 C 0.71885 0.59576 0.67046 0.0
H246 H 0.84535 0.74131 0.63864 0.0
C247 C 0.69387 0.59618 0.62492 0.0
C248 C 0.72241 0.61395 0.64463 0.0
H249 H 0.83281 0.69424 0.71412 0.0
H250 H 0.77978 0.64894 0.6953 0.0
H251 H 0.87153 0.67378 0.6056 0.0
H252 H 0.70894 0.72325 0.6202 0.0
H253 H 0.71501 0.71318 0.58681 0.0
H254 H 0.76611 0.74171 0.60115 0.0
H255 H 0.85511 0.71293 0.59107 0.0
H256 H 0.83041 0.67469 0.57667 0.0
C257 C 0.77944 0.58449 0.67995 0.0
C258 C 0.68296 0.61497 0.69109 0.0
C259 C 0.66344 0.61719 0.52864 0.0
C260 C 0.68164 0.6421 0.51144 0.0
C261 C 0.71617 0.66832 0.52108 0.0
C262 C 0.73151 0.66982 0.54767 0.0
C263 C 0.71246 0.64468 0.56471 0.0
C264 C 0.67946 0.61882 0.55489 0.0
C265 C 0.66413 0.59367 0.57525 0.0
C266 C 0.69281 0.60865 0.59909 0.0
C267 C 0.72086 0.6387 0.59304 0.0
C268 C 0.69222 0.56046 0.56734 0.0
C269 C 0.59705 0.59239 0.57792 0.0
C270 C 0.83076 0.72119 0.65097 0.0
C271 C 0.84408 0.72095 0.67782 0.0
C272 C 0.82422 0.69455 0.69333 0.0
C273 C 0.79307 0.66831 0.68236 0.0
C274 C 0.78096 0.66839 0.65552 0.0
C275 C 0.79924 0.69455 0.64021 0.0
C276 C 0.78161 0.68995 0.61201 0.0
C277 C 0.74942 0.65696 0.61317 0.0
C278 C 0.7497 0.64457 0.63877 0.0
C279 C 0.83733 0.68792 0.59526 0.0
C280 C 0.74098 0.71854 0.6044 0.0
H281 H 0.62223 0.53833 0.60648 0.0
H282 H 0.681 0.54048 0.69964 0.0
H283 H 0.63561 0.60986 0.68906 0.0
H284 H 0.68689 0.64206 0.68886 0.0
H285 H 0.69562 0.60804 0.71125 0.0
H286 H 0.7957 0.56381 0.66772 0.0
H287 H 0.77758 0.5757 0.70046 0.0
H288 H 0.81307 0.60396 0.67836 0.0
H289 H 0.63755 0.59652 0.5217 0.0
H290 H 0.73057 0.68782 0.5081 0.0
H291 H 0.75748 0.69044 0.55398 0.0
H292 H 0.73508 0.56466 0.55783 0.0
H293 H 0.66432 0.54667 0.55333 0.0
H294 H 0.70169 0.54443 0.58419 0.0
H295 H 0.57788 0.61717 0.57463 0.0
H296 H 0.58245 0.58531 0.59769 0.0
H297 H 0.57746 0.57517 0.56346 0.0
H298 H 0.59001 0.49464 0.63513 0.0
C299 C 0.63571 0.53968 0.62649 0.0
C300 C 0.68542 0.80719 0.1739 0.0
C301 C 0.66587 0.77729 0.1631 0.0
C302 C 0.6734 0.77147 0.13623 0.0
C303 C 0.71948 0.82526 0.13129 0.0
C304 C 0.71252 0.83055 0.15776 0.0
C305 C 0.73865 0.86281 0.16648 0.0
H306 H 0.88353 0.00431 0.13883 0.0
C307 C 0.74989 0.85445 0.12023 0.0
C308 C 0.76161 0.87635 0.14082 0.0
H309 H 0.8275 0.96745 0.21383 0.0
H310 H 0.78484 0.91954 0.19333 0.0
H311 H 0.92941 0.93449 0.11756 0.0
H312 H 0.76381 0.98149 0.10586 0.0
H313 H 0.78882 0.96584 0.07584 0.0
H314 H 0.83008 0.99762 0.09226 0.0
H315 H 0.92186 0.97038 0.09735 0.0
H316 H 0.90885 0.92941 0.08475 0.0
C317 C 0.78827 0.85531 0.18607 0.0
C318 C 0.68919 0.88435 0.17765 0.0
C319 C 0.78731 0.86092 0.02259 0.0
C320 C 0.8144 0.88446 1.00636 0.0
C321 C 0.83801 0.91324 0.01792 0.0
C322 C 0.83399 0.91863 0.04499 0.0
C323 C 0.80645 0.89489 0.06087 0.0
C324 C 0.78396 0.86654 0.04955 0.0
C325 C 0.75729 0.84356 0.06932 0.0
C326 C 0.76665 0.8629 0.09436 0.0
C327 C 0.79546 0.89305 0.0894 0.0
C328 C 0.79192 0.8109 0.06912 0.0
C329 C 0.69199 0.83944 0.06278 0.0
C330 C 0.86144 0.98593 0.15061 0.0
C331 C 0.85839 0.98947 0.17792 0.0
C332 C 0.8302 0.96503 0.1928 0.0
C333 C 0.8056 0.93722 0.18082 0.0
C334 C 0.80971 0.93351 0.15362 0.0
C335 C 0.83714 0.95759 0.13888 0.0
C336 C 0.83865 0.94855 0.11028 0.0
C337 C 0.80788 0.9151 0.11042 0.0
C338 C 0.79094 0.90666 0.13591 0.0
C339 C 0.90292 0.94571 0.10179 0.0
C340 C 0.80391 0.97474 0.09505 0.0
H341 H 0.70414 0.7896 0.09988 0.0
H342 H 0.68079 0.81197 0.1946 0.0
H343 H 0.649 0.88147 0.16579 0.0
H344 H 0.69926 0.91103 0.1772 0.0
H345 H 0.6785 0.87708 0.198 0.0
H346 H 0.80714 0.83049 0.18259 0.0
H347 H 0.77238 0.85585 0.20652 0.0
H348 H 0.82559 0.87249 0.1841 0.0
H349 H 0.76858 0.83856 0.01446 0.0
H350 H 0.8604 0.93144 1.00608 0.0
H351 H 0.85281 0.94099 0.05255 0.0
H352 H 0.83833 0.81541 0.06411 0.0
H353 H 0.774 0.79325 0.05454 0.0
H354 H 0.79315 0.79884 0.08844 0.0
H355 H 0.67299 0.8635 0.05698 0.0
H356 H 0.66579 0.83097 0.07954 0.0
H357 H 0.68552 0.82192 0.04632 0.0
H358 H 0.65846 0.74849 0.12762 0.0
C359 C 0.69985 0.79537 0.12022 0.0
C360 C 0.16243 0.96505 0.35165 0.0
C361 C 0.12923 0.99071 0.36224 0.0
C362 C 0.11123 0.98842 0.38853 0.0
C363 C 0.16029 0.93587 0.393 0.0
C364 C 0.17677 0.93798 0.36714 0.0
C365 C 0.20888 0.90805 0.35804 0.0
H366 H 0.34212 0.76473 0.38481 0.0
C367 C 0.18317 0.90447 0.40352 0.0
C368 C 0.21157 0.88818 0.38304 0.0
H369 H 0.31418 0.81095 0.30972 0.0
H370 H 0.26265 0.8548 0.33033 0.0
H371 H 0.3644 0.82967 0.41877 0.0
H372 H 0.20579 0.77586 0.40318 0.0
H373 H 0.20761 0.78594 0.43654 0.0
H374 H 0.26274 0.75956 0.42317 0.0
H375 H 0.34923 0.79024 0.43332 0.0
H376 H 0.32395 0.82809 0.44785 0.0
C377 C 0.26998 0.9193 0.34879 0.0
C378 C 0.17164 0.89055 0.33675 0.0
C379 C 0.15108 0.87372 0.49877 0.0
C380 C 0.17115 0.8476 0.51425 0.0
C381 C 0.20842 0.82404 0.50316 0.0
C382 C 0.2246 0.82603 0.47682 0.0
C383 C 0.20351 0.85197 0.46139 0.0
C384 C 0.16834 0.87566 0.47255 0.0
C385 C 0.15271 0.90242 0.4535 0.0
C386 C 0.18241 0.89025 0.42888 0.0
C387 C 0.21172 0.86048 0.43354 0.0
C388 C 0.17949 0.9353 0.46345 0.0
C389 C 0.08584 0.90288 0.45053 0.0
C390 C 0.32401 0.78393 0.37271 0.0
C391 C 0.33308 0.78426 0.34545 0.0
C392 C 0.30929 0.81025 0.33073 0.0
C393 C 0.27862 0.83567 0.34274 0.0
C394 C 0.27028 0.83513 0.36983 0.0
C395 C 0.29162 0.80925 0.38436 0.0
C396 C 0.27463 0.81198 0.41272 0.0
C397 C 0.24039 0.844 0.4127 0.0
C398 C 0.2391 0.85756 0.38755 0.0
C399 C 0.33073 0.81493 0.42923 0.0
C400 C 0.23594 0.78175 0.41953 0.0
H401 H 0.11171 0.96088 0.4238 0.0
H402 H 0.17679 0.96583 0.33154 0.0
H403 H 0.1251 0.89758 0.33793 0.0
H404 H 0.17118 0.86335 0.33898 0.0
H405 H 0.18707 0.89694 0.31683 0.0
H406 H 0.28896 0.93759 0.36266 0.0
H407 H 0.26775 0.93118 0.3293 0.0
H408 H 0.30152 0.899 0.34785 0.0
H409 H 0.1229 0.89234 0.50697 0.0
H410 H 0.22419 0.8037 0.51482 0.0
H411 H 0.25275 0.80722 0.46946 0.0
H412 H 0.22275 0.93111 0.47246 0.0
H413 H 0.15133 0.94684 0.47844 0.0
H414 H 0.18769 0.95327 0.44769 0.0
H415 H 0.06777 0.87732 0.4505 0.0
H416 H 0.07158 0.91377 0.43189 0.0
H417 H 0.06529 0.9165 0.46688 0.0
H418 H 0.08401 0.00726 0.39702 0.0
C419 C 0.12688 0.96127 0.40399 0.0
C420 C 0.21888 0.71506 0.8486 0.0
C421 C 0.19389 0.74365 0.85906 0.0
C422 C 0.19543 0.74828 0.88641 0.0
C423 C 0.24587 0.69625 0.89185 0.0
C424 C 0.2429 0.6916 0.86519 0.0
C425 C 0.26379 0.65834 0.85689 0.0
H426 H 0.39956 0.51647 0.88387 0.0
C427 C 0.27339 0.66658 0.90325 0.0
C428 C 0.28333 0.64432 0.88279 0.0
H429 H 0.3176 0.54714 0.81185 0.0
H430 H 0.28793 0.59727 0.83193 0.0
H431 H 0.44919 0.58798 0.90271 0.0
H432 H 0.28714 0.53805 0.91944 0.0
H433 H 0.31243 0.55656 0.94835 0.0
H434 H 0.3548 0.52468 0.93305 0.0
H435 H 0.44523 0.55139 0.92241 0.0
H436 H 0.4341 0.59174 0.93627 0.0
C437 C 0.31521 0.66349 0.83775 0.0
C438 C 0.21118 0.63887 0.84535 0.0
C439 C 0.32167 0.66223 0.99998 0.0
C440 C 0.35018 0.63901 0.01576 0.0
C441 C 0.37075 0.60976 1.00418 0.0
C442 C 0.36358 0.60392 0.97733 0.0
C443 C 0.33515 0.62746 0.96185 0.0
C444 C 0.315 0.65612 0.97324 0.0
C445 C 0.28586 0.67845 0.95388 0.0
C446 C 0.29172 0.65853 0.92896 0.0
C447 C 0.32039 0.62852 0.93372 0.0
C448 C 0.32072 0.71123 0.95272 0.0
C449 C 0.22154 0.68252 0.96201 0.0
C450 C 0.37417 0.53367 0.87257 0.0
C451 C 0.36172 0.52776 0.84596 0.0
C452 C 0.3292 0.55122 0.83209 0.0
C453 C 0.31117 0.58033 0.84394 0.0
C454 C 0.32432 0.5861 0.87025 0.0
C455 C 0.35404 0.56273 0.8844 0.0
C456 C 0.36008 0.57258 0.91272 0.0
C457 C 0.3298 0.6059 0.91288 0.0
C458 C 0.31018 0.61368 0.88777 0.0
C459 C 0.4255 0.57597 0.91911 0.0
C460 C 0.32738 0.54665 0.92947 0.0
H461 H 0.22139 0.72971 0.92341 0.0
H462 H 0.2185 0.71041 0.82779 0.0
H463 H 0.16888 0.64935 0.85161 0.0
H464 H 0.20946 0.61295 0.85222 0.0
H465 H 0.21181 0.63916 0.82368 0.0
H466 H 0.34469 0.68346 0.84487 0.0
H467 H 0.2994 0.67068 0.81811 0.0
H468 H 0.34285 0.64155 0.83567 0.0
H469 H 0.30393 0.68454 1.00835 0.0
H470 H 0.39272 0.59149 0.01592 0.0
H471 H 0.38042 0.58128 0.96966 0.0
H472 H 0.36818 0.70631 0.95222 0.0
H473 H 0.3118 0.72674 0.97013 0.0
H474 H 0.31167 0.72582 0.93507 0.0
H475 H 0.2042 0.65941 0.9709 0.0
H476 H 0.19271 0.68736 0.94525 0.0
H477 H 0.21668 0.70263 0.97658 0.0
H478 H 0.17474 0.76938 0.89528 0.0
C479 C 0.22184 0.72493 0.9028 0.0
C480 C 0.82977 0.09856 0.26871 0.0
C481 C 0.84216 0.0428 0.2847 0.0
C482 C 0.86184 0.07577 0.28271 0.0
C483 C 0.79203 0.03274 0.27112 0.0
C484 C 0.77858 0.08884 0.25564 0.0
C485 C 0.76035 0.05571 0.25661 0.0
N486 N 0.8496 0.13022 0.2674 0.0
C487 C 0.81907 0.15373 0.25441 0.0
C488 C 0.74744 0.11274 0.2419 0.0
C489 C 0.76758 0.14538 0.24144 0.0
Gd490 Gd 0.08246 0.13746 0.24231 0.0
Gd491 Gd 0.93827 0.14173 0.28812 0.0
N492 N 0.91076 0.08617 0.2953 0.0
C493 C 0.87233 0.02122 0.30099 0.0
C494 C 0.93577 0.06628 0.31352 0.0
C495 C 0.9184 0.03328 0.31601 0.0
H496 H 0.96782 0.07591 0.32684 0.0
H497 H 0.93975 0.01738 0.32993 0.0
H498 H 0.05699 0.21477 0.21945 0.0
H499 H 0.83459 0.1789 0.25408 0.0
H500 H 0.10731 0.26819 0.21778 0.0
H501 H 0.85861 0.99571 0.30311 0.0
H502 H 0.77673 0.00741 0.27216 0.0
H503 H 0.17187 0.08643 0.27396 0.0
H504 H 0.70783 0.10628 0.23162 0.0
H505 H 0.74367 0.16405 0.23098 0.0
H506 H 0.29145 0.24805 0.25799 0.0
H507 H 0.72142 0.04768 0.24648 0.0
H508 H 0.32805 0.13992 0.29155 0.0
H509 H 0.2699 0.08836 0.2934 0.0
N510 N 0.17381 0.13671 0.26214 0.0
C511 C 0.20519 0.16521 0.26058 0.0
C512 C 0.19633 0.10927 0.2736 0.0
C513 C 0.28489 0.13929 0.28315 0.0
C514 C 0.2521 0.11017 0.28435 0.0
C515 C 0.26157 0.1673 0.27122 0.0
H516 H 0.33586 0.19932 0.27807 0.0
N517 N 0.12424 0.19055 0.24023 0.0
C518 C 0.17975 0.19288 0.24934 0.0
C519 C 0.18388 0.25048 0.23714 0.0
C520 C 0.21069 0.22307 0.24833 0.0
C521 C 0.09889 0.21692 0.22842 0.0
C522 C 0.12791 0.24731 0.227 0.0
O523 O 0.93096 0.11859 0.2478 0.0
O524 O 0.01972 0.09445 0.24298 0.0
O525 O 0.09172 0.14078 0.1995 0.0
O526 O 0.14466 0.10694 0.22246 0.0
O527 O 0.02101 0.11961 0.30446 0.0
O528 O 0.06356 0.09462 0.26897 0.0
O529 O 0.09138 0.16487 0.2809 0.0
O530 O -5e-05 0.18516 0.28667 0.0
O531 O 0.92786 0.14295 0.3306 0.0
O532 O 0.87129 0.1722 0.30557 0.0
O533 O 0.00336 0.16302 0.22561 0.0
O534 O 0.94987 0.18435 0.26011 0.0
C535 C 0.96437 0.09612 0.23732 0.0
C536 C 0.05522 0.09716 0.29425 0.0
C537 C 0.1631 0.10657 0.17599 0.0
C538 C 0.1848 0.10856 0.12921 0.0
C539 C 0.23474 0.06967 0.15727 0.0
C540 C 0.20402 0.08122 0.17876 0.0
C541 C 0.22538 0.08321 0.13272 0.0
C542 C 0.1533 0.12015 0.151 0.0
C543 C 0.13258 0.11867 0.19955 0.0
C544 C 0.26713 0.22505 0.25862 0.0
C545 C 0.29247 0.19727 0.27002 0.0
H546 H 0.20621 0.27408 0.236 0.0
C547 C 0.05504 0.18457 0.29298 0.0
C548 C 0.96369 0.18315 0.23509 0.0
C549 C 0.85425 0.17652 0.35239 0.0
C550 C 0.83771 0.17818 0.39961 0.0
C551 C 0.78767 0.21639 0.37101 0.0
C552 C 0.81497 0.20259 0.34936 0.0
C553 C 0.79909 0.20443 0.39596 0.0
C554 C 0.86523 0.16415 0.37768 0.0
C555 C 0.88508 0.16365 0.3292 0.0
H556 H 0.26602 0.0501 0.15967 0.0
H557 H 0.21256 0.07025 0.19762 0.0
H558 H 0.24954 0.07354 0.11629 0.0
H559 H 0.12222 0.13985 0.14858 0.0
H560 H 0.75771 0.23657 0.36846 0.0
H561 H 0.80587 0.21269 0.33025 0.0
H562 H 0.77728 0.21553 0.41248 0.0
H563 H 0.89563 0.14417 0.38038 0.0
C564 C 0.68535 0.39902 0.77332 0.0
C565 C 0.68614 0.4578 0.78238 0.0
C566 C 0.65781 0.42685 0.78266 0.0
C567 C 0.74148 0.46066 0.77103 0.0
C568 C 0.74239 0.40137 0.76346 0.0
C569 C 0.76955 0.43248 0.76155 0.0
N570 N 0.65836 0.36928 0.7761 0.0
C571 C 0.68856 0.34086 0.77242 0.0
C572 C 0.7714 0.37224 0.75703 0.0
C573 C 0.74482 0.3418 0.76213 0.0
Gd574 Gd 0.42843 0.36696 0.73793 0.0
Gd575 Gd 0.56181 0.37034 0.7912 0.0
N576 N 0.60412 0.42325 0.79329 0.0
C577 C 0.65887 0.4846 0.79441 0.0
C578 C 0.57927 0.44858 0.80675 0.0
C579 C 0.6058 0.47977 0.80717 0.0
H580 H 0.53869 0.44473 0.81687 0.0
H581 H 0.58525 0.50006 0.81724 0.0
H582 H 0.45856 0.28817 0.72 0.0
H583 H 0.66976 0.31753 0.77814 0.0
H584 H 0.41178 0.23363 0.72241 0.0
H585 H 0.67927 0.50879 0.79469 0.0
H586 H 0.76372 0.48431 0.7703 0.0
H587 H 0.33163 0.42039 0.76216 0.0
H588 H 0.8153 0.37294 0.74943 0.0
H589 H 0.76804 0.31909 0.75865 0.0
H590 H 0.22652 0.25438 0.76155 0.0
H591 H 0.81309 0.43484 0.75373 0.0
H592 H 0.18054 0.36561 0.78501 0.0
H593 H 0.2336 0.41873 0.78137 0.0
N594 N 0.33547 0.36845 0.75625 0.0
C595 C 0.30633 0.33912 0.75715 0.0
C596 C 0.30972 0.39691 0.76429 0.0
C597 C 0.22385 0.36612 0.77675 0.0
C598 C 0.25376 0.39614 0.77485 0.0
C599 C 0.24992 0.33714 0.76777 0.0
H600 H 0.17822 0.30443 0.77743 0.0
N601 N 0.38856 0.31336 0.73819 0.0
C602 C 0.33366 0.31081 0.74799 0.0
C603 C 0.33387 0.25192 0.74037 0.0
C604 C 0.30511 0.27994 0.74952 0.0
C605 C 0.41621 0.2862 0.7287 0.0
C606 C 0.3895 0.25512 0.72981 0.0
O607 O 0.5505 0.41237 0.76277 0.0
O608 O 0.51749 0.38546 0.72649 0.0
O609 O 0.40201 0.35501 0.69839 0.0
O610 O 0.38883 0.40439 0.71341 0.0
O611 O 0.47367 0.39153 0.80073 0.0
O612 O 0.43694 0.4131 0.76244 0.0
O613 O 0.41777 0.34453 0.77804 0.0
O614 O 0.50814 0.32407 0.78601 0.0
O615 O 0.53833 0.37375 0.83218 0.0
O616 O 0.62096 0.35327 0.82126 0.0
O617 O 0.50929 0.33987 0.72641 0.0
O618 O 0.57069 0.32824 0.76149 0.0
C619 C 0.54525 0.4101 0.73741 0.0
C620 C 0.44454 0.41413 0.78793 0.0
C621 C 0.32765 0.38595 0.67869 0.0
C622 C 0.27935 0.38817 0.63624 0.0
C623 C 0.22269 0.38915 0.6763 0.0
C624 C 0.27348 0.38718 0.69111 0.0
C625 C 0.22551 0.38986 0.64905 0.0
C626 C 0.33036 0.38617 0.65125 0.0
C627 C 0.3821 0.38434 0.69365 0.0
C628 C 0.24901 0.27791 0.76019 0.0
C629 C 0.22149 0.30642 0.76925 0.0
H630 H 0.31341 0.22777 0.74123 0.0
C631 C 0.45202 0.32388 0.79019 0.0
C632 C 0.55386 0.32448 0.73685 0.0
C633 C 0.5805 0.33613 0.86146 0.0
C634 C 0.58704 0.32382 0.90804 0.0
C635 C 0.56226 0.28049 0.87684 0.0
C636 C 0.56677 0.30302 0.85631 0.0
C637 C 0.5725 0.29072 0.90254 0.0
C638 C 0.58979 0.3465 0.88727 0.0
C639 C 0.58606 0.36038 0.84034 0.0
H640 H 0.18097 0.39022 0.68598 0.0
H641 H 0.27036 0.38675 0.71215 0.0
H642 H 0.18561 0.39145 0.63796 0.0
H643 H 0.37223 0.38536 0.6416 0.0
H644 H 0.55148 0.25493 0.87281 0.0
H645 H 0.55996 0.29468 0.83648 0.0
H646 H 0.57007 0.27261 0.91803 0.0
H647 H 0.59913 0.37232 0.89111 0.0
C648 C 0.85639 0.80252 0.77127 0.0
C649 C 0.89548 0.75311 0.79076 0.0
C650 C 0.89803 0.7875 0.78655 0.0
C651 C 0.85436 0.73383 0.77722 0.0
C652 C 0.81282 0.78357 0.75884 0.0
C653 C 0.81316 0.74905 0.76123 0.0
N654 N 0.85755 0.8359 0.76916 0.0
C655 C 0.81464 0.85212 0.75616 0.0
C656 C 0.76983 0.79995 0.74467 0.0
C657 C 0.77037 0.83441 0.7436 0.0
Gd658 Gd 0.07826 0.86766 0.73864 0.0
Gd659 Gd 0.93749 0.86348 0.78789 0.0
N660 N 0.9374 0.80686 0.79926 0.0
C661 C 0.932 0.73943 0.80959 0.0
C662 C 0.96686 0.79426 0.82009 0.0
C663 C 0.96626 0.76029 0.82499 0.0
H664 H 0.99124 0.81026 0.83301 0.0
H665 H 0.99178 0.75029 0.84081 0.0
H666 H 0.08263 0.94956 0.73078 0.0
H667 H 0.81565 0.87869 0.75498 0.0
H668 H 0.15222 0.99564 0.73754 0.0
H669 H 0.93131 0.71315 0.81351 0.0
H670 H 0.85262 0.7073 0.77978 0.0
H671 H 0.15256 0.79802 0.74817 0.0
H672 H 0.7357 0.78626 0.73479 0.0
H673 H 0.737 0.84733 0.73292 0.0
H674 H 0.32459 0.94275 0.76898 0.0
H675 H 0.7807 0.734 0.75145 0.0
H676 H 0.3231 0.82453 0.77473 0.0
H677 H 0.24962 0.78168 0.764 0.0
N678 N 0.17031 0.84945 0.75128 0.0
C679 C 0.21042 0.87333 0.75638 0.0
C680 C 0.1841 0.81686 0.75327 0.0
C681 C 0.28043 0.83181 0.76809 0.0
C682 C 0.23908 0.80755 0.76204 0.0
C683 C 0.26665 0.86518 0.76495 0.0
H684 H 0.35075 0.88472 0.77646 0.0
N685 N 0.14102 0.91295 0.74412 0.0
C686 C 0.19565 0.90603 0.7523 0.0
C687 C 0.22054 0.96407 0.75135 0.0
C688 C 0.23674 0.93147 0.75647 0.0
C689 C 0.12564 0.94448 0.73799 0.0
C690 C 0.1649 0.97056 0.74185 0.0
O691 O 0.93214 0.84784 0.74527 0.0
O692 O 0.01964 0.82326 0.73998 0.0
O693 O 0.05387 0.87672 0.69841 0.0
O694 O 0.13418 0.85162 0.70696 0.0
O695 O 0.02775 0.84991 0.80167 0.0
O696 O 0.06198 0.82473 0.76517 0.0
O697 O 0.08243 0.90008 0.77476 0.0
O698 O 0.98839 0.91113 0.78859 0.0
O699 O 0.93227 0.87351 0.82947 0.0
O700 O 0.85751 0.8817 0.80545 0.0
O701 O 0.00594 0.90324 0.72959 0.0
O702 O 0.92788 0.90525 0.75902 0.0
C703 C 0.96442 0.8252 0.73433 0.0
C704 C 0.06436 0.82988 0.79031 0.0
C705 C 0.08743 0.83856 0.66726 0.0
C706 C 0.09368 0.82522 0.62088 0.0
C707 C 0.0444 0.78779 0.65083 0.0
C708 C 0.05736 0.80887 0.67164 0.0
C709 C 0.06216 0.79595 0.62555 0.0
C710 C 0.10589 0.84658 0.64189 0.0
C711 C 0.09894 0.86165 0.68883 0.0
C712 C 0.29251 0.92354 0.76548 0.0
C713 C 0.30739 0.89048 0.76976 0.0
H714 H 0.2508 0.98434 0.75438 0.0
C715 C 0.04465 0.91696 0.78869 0.0
C716 C 0.95571 0.91505 0.73767 0.0
C717 C 0.84205 0.86284 0.84886 0.0
C718 C 0.81521 0.85452 0.89467 0.0
C719 C 0.77926 0.81701 0.8611 0.0
C720 C 0.80905 0.83488 0.84199 0.0
C721 C 0.78243 0.82661 0.88725 0.0
C722 C 0.84486 0.87266 0.87525 0.0
C723 C 0.8774 0.88033 0.82914 0.0
H724 H 0.02074 0.76502 0.65433 0.0
H725 H 0.04401 0.80206 0.69111 0.0
H726 H 0.05219 0.77912 0.60969 0.0
H727 H 0.12921 0.86953 0.63847 0.0
H728 H 0.754 0.79542 0.85566 0.0
H729 H 0.80687 0.82658 0.82193 0.0
H730 H 0.75904 0.81227 0.90172 0.0
H731 H 0.8714 0.89378 0.88073 0.0
C732 C 0.70691 0.65997 0.26584 0.0
C733 C 0.71345 0.71987 0.26531 0.0
C734 C 0.68199 0.69062 0.27051 0.0
C735 C 0.7703 0.71793 0.25553 0.0
C736 C 0.76381 0.65796 0.25587 0.0
C737 C 0.79541 0.68708 0.25086 0.0
N738 N 0.67479 0.63219 0.27023 0.0
C739 C 0.69705 0.60167 0.26551 0.0
C740 C 0.7869 0.62672 0.25084 0.0
C741 C 0.75339 0.59847 0.2557 0.0
Gd742 Gd 0.44068 0.6383 0.23863 0.0
Gd743 Gd 0.58094 0.64039 0.28624 0.0
N744 N 0.62597 0.69175 0.27899 0.0
C745 C 0.68658 0.75021 0.26987 0.0
C746 C 0.60041 0.72117 0.28446 0.0
C747 C 0.63 0.75084 0.27969 0.0
H748 H 0.55746 0.7219 0.29261 0.0
H749 H 0.60923 0.77418 0.28368 0.0
H750 H 0.47293 0.56601 0.20804 0.0
H751 H 0.67158 0.57975 0.26959 0.0
H752 H 0.43926 0.50844 0.20871 0.0
H753 H 0.70925 0.77325 0.26607 0.0
H754 H 0.7951 0.74015 0.25137 0.0
H755 H 0.34082 0.68172 0.27061 0.0
H756 H 0.83045 0.62414 0.24313 0.0
H757 H 0.77095 0.57423 0.25193 0.0
H758 H 0.26583 0.51112 0.26033 0.0
H759 H 0.83916 0.68602 0.24314 0.0
H760 H 0.20432 0.61561 0.29391 0.0
H761 H 0.2471 0.67185 0.29296 0.0
N762 N 0.35125 0.63153 0.25972 0.0
C763 C 0.32793 0.60059 0.25939 0.0
C764 C 0.32268 0.65707 0.27121 0.0
C765 C 0.24536 0.61982 0.28407 0.0
C766 C 0.26946 0.65159 0.28367 0.0
C767 C 0.27455 0.59384 0.27185 0.0
H768 H 0.21198 0.55567 0.28187 0.0
N769 N 0.41045 0.58266 0.23561 0.0
C770 C 0.3589 0.57537 0.24745 0.0
C771 C 0.36686 0.51837 0.23404 0.0
C772 C 0.3363 0.54288 0.24735 0.0
C773 C 0.43719 0.55948 0.22056 0.0
C774 C 0.41692 0.52686 0.22017 0.0
O775 O 0.59084 0.6616 0.24549 0.0
O776 O 0.50102 0.6822 0.2358 0.0
O777 O 0.42914 0.63445 0.19598 0.0
O778 O 0.37351 0.66615 0.21957 0.0
O779 O 0.49949 0.66638 0.29973 0.0
O780 O 0.4538 0.68467 0.26232 0.0
O781 O 0.43221 0.61833 0.28009 0.0
O782 O 0.52123 0.59613 0.2893 0.0
O783 O 0.58466 0.65811 0.32618 0.0
O784 O 0.63817 0.61716 0.31439 0.0
O785 O 0.52388 0.61362 0.22496 0.0
O786 O 0.56583 0.59397 0.26285 0.0
C787 C 0.55713 0.68098 0.23182 0.0
C788 C 0.46277 0.68574 0.28763 0.0
C789 C 0.35276 0.66574 0.17328 0.0
C790 C 0.33685 0.66775 0.12613 0.0
C791 C 0.27502 0.69905 0.15526 0.0
C792 C 0.30586 0.68738 0.17668 0.0
C793 C 0.29052 0.68946 0.13014 0.0
C794 C 0.36781 0.65561 0.14779 0.0
C795 C 0.38602 0.65508 0.19649 0.0
C796 C 0.28351 0.53598 0.26004 0.0
C797 C 0.25268 0.56139 0.27221 0.0
H798 H 0.351 0.49312 0.23352 0.0
C799 C 0.46451 0.59637 0.29201 0.0
C800 C 0.55835 0.59304 0.23737 0.0
C801 C 0.60433 0.61807 0.35793 0.0
C802 C 0.60735 0.61354 0.40547 0.0
C803 C 0.54926 0.57494 0.37977 0.0
C804 C 0.56639 0.59093 0.35694 0.0
C805 C 0.56957 0.5861 0.40388 0.0
C806 C 0.62466 0.62947 0.38225 0.0
C807 C 0.62061 0.63541 0.33376 0.0
H808 H 0.23914 0.71576 0.15815 0.0
H809 H 0.29308 0.69556 0.19596 0.0
H810 H 0.26616 0.69893 0.11372 0.0
H811 H 0.40386 0.63902 0.14473 0.0
H812 H 0.52 0.55392 0.37876 0.0
H813 H 0.54989 0.58233 0.33847 0.0
H814 H 0.55591 0.57314 0.42134 0.0
H815 H 0.65282 0.65102 0.38308 0.0
C816 C 0.09339 0.0125 0.31949 0.0
C817 C 0.11172 0.01875 0.34529 0.0
C818 C 0.07735 0.03817 0.30281 0.0
C819 C 0.0778 0.07106 0.31143 0.0
H820 H 0.09044 0.98744 0.31218 0.0
H821 H 0.06248 0.03206 0.28332 0.0
S822 S 0.12555 0.10136 0.37625 0.0
N823 N 0.13286 0.06089 0.37793 0.0
N824 N 0.1 0.10901 0.34679 0.0
C825 C 0.09638 0.07789 0.33696 0.0
C826 C 0.11382 0.05178 0.35387 0.0
C827 C 0.40292 0.50108 0.80603 0.0
C828 C 0.38303 0.498 0.83196 0.0
C829 C 0.42044 0.47361 0.79163 0.0
C830 C 0.42111 0.44211 0.80286 0.0
H831 H 0.40526 0.52502 0.79668 0.0
H832 H 0.43478 0.47724 0.77173 0.0
S833 S 0.37074 0.41976 0.86931 0.0
N834 N 0.36148 0.46008 0.86757 0.0
N835 N 0.39871 0.40875 0.84098 0.0
C836 C 0.40167 0.43843 0.8287 0.0
C837 C 0.38192 0.4663 0.84318 0.0
C838 C 0.61242 0.45459 0.67972 0.0
C839 C 0.61055 0.48794 0.6874 0.0
C840 C 0.59123 0.42948 0.69605 0.0
C841 C 0.5681 0.43683 0.72073 0.0
H842 H 0.63072 0.4478 0.66101 0.0
H843 H 0.5935 0.40412 0.68941 0.0
S844 S 0.54834 0.5202 0.74911 0.0
N845 N 0.57974 0.527 0.72065 0.0
N846 N 0.5416 0.47973 0.7515 0.0
C847 C 0.56564 0.46999 0.72859 0.0
C848 C 0.58645 0.49557 0.71189 0.0
C849 C 0.9331 0.01163 0.20857 0.0
C850 C 0.88664 0.01756 0.19148 0.0
C851 C 0.95863 0.03734 0.22298 0.0
C852 C 0.93776 0.06978 0.2212 0.0
H853 H 0.94959 0.98683 0.21091 0.0
H854 H 0.99407 0.03161 0.23607 0.0
S855 S 0.81738 0.09819 0.17901 0.0
N856 N 0.82121 0.05812 0.17325 0.0
N857 N 0.86867 0.10657 0.20061 0.0
C858 C 0.8914 0.07606 0.20411 0.0
C859 C 0.866 0.04991 0.18914 0.0
C860 C 0.94045 0.98241 0.68633 0.0
C861 C 0.88466 0.9948 0.69098 0.0
C862 C 0.96252 0.9564 0.70126 0.0
C863 C 0.92996 0.94191 0.72168 0.0
H864 H 0.96813 0.99366 0.67168 0.0
H865 H 0.00608 0.94816 0.69697 0.0
S866 S 0.77834 0.96312 0.73954 0.0
N867 N 0.79474 0.98847 0.71542 0.0
N868 N 0.83697 0.94082 0.74433 0.0
C869 C 0.87317 0.95342 0.72586 0.0
C870 C 0.85037 0.97948 0.71031 0.0
C871 C 0.63332 0.54724 0.18211 0.0
C872 C 0.63913 0.51522 0.19236 0.0
C873 C 0.60722 0.57245 0.1968 0.0
C874 C 0.58649 0.56647 0.22223 0.0
H875 H 0.64968 0.55291 0.1628 0.0
H876 H 0.60387 0.59686 0.18835 0.0
S877 S 0.58463 0.48593 0.25642 0.0
N878 N 0.61702 0.47829 0.22839 0.0
N879 N 0.56937 0.52565 0.25602 0.0
C880 C 0.59093 0.53443 0.23235 0.0
C881 C 0.61681 0.50881 0.21739 0.0
C882 C 0.34962 0.55078 0.33202 0.0
C883 C 0.37704 0.52098 0.33814 0.0
C884 C 0.3789 0.57543 0.31778 0.0
C885 C 0.43594 0.57073 0.30854 0.0
H886 H 0.3052 0.55492 0.33808 0.0
H887 H 0.35652 0.59828 0.31395 0.0
S888 S 0.52712 0.49719 0.32142 0.0
N889 N 0.46468 0.48862 0.33577 0.0
N890 N 0.51922 0.53396 0.30809 0.0
C891 C 0.46393 0.54108 0.31523 0.0
C892 C 0.43448 0.51641 0.33016 0.0
C893 C 0.15074 0.97432 0.82345 0.0
C894 C 0.11452 0.99806 0.83477 0.0
C895 C 0.12754 0.9479 0.80915 0.0
C896 C 0.06728 0.94464 0.80495 0.0
H897 H 0.19744 0.97621 0.8257 0.0
H898 H 0.15736 0.92992 0.80136 0.0
S899 S 0.95402 1.0006 0.83111 0.0
N900 N 0.01584 0.01659 0.84171 0.0
N901 N 0.97175 0.9675 0.81416 0.0
C902 C 0.0305 0.96812 0.81662 0.0
C903 C 0.05427 0.99473 0.83162 0.0
C904 C 0.22028 0.13627 0.06041 0.0
C905 C 0.1666 0.13327 0.04751 0.0
C906 C 0.22496 0.13056 0.08729 0.0
C907 C 0.17615 0.12176 0.10241 0.0
H908 H 0.25966 0.141 0.04942 0.0
H909 H 0.26769 0.13143 0.09612 0.0
S910 S 0.02434 0.11556 0.07879 0.0
N911 N 0.06246 0.12486 0.05246 0.0
N912 N 0.07154 0.11366 0.103 0.0
C913 C 0.12157 0.12117 0.09018 0.0
C914 C 0.11676 0.12692 0.06272 0.0
C915 C 0.25755 0.4176 0.56651 0.0
C916 C 0.28455 0.39298 0.55152 0.0
C917 C 0.25585 0.41572 0.59384 0.0
C918 C 0.28202 0.38946 0.60725 0.0
H919 H 0.23702 0.43832 0.55699 0.0
H920 H 0.23436 0.43515 0.6046 0.0
S921 S 0.35908 0.31901 0.57711 0.0
N922 N 0.33823 0.34163 0.55205 0.0
N923 N 0.33587 0.33834 0.60348 0.0
C924 C 0.30964 0.36484 0.59252 0.0
C925 C 0.31058 0.36649 0.56464 0.0
C926 C 0.57575 0.33305 0.98197 0.0
C927 C 0.62317 0.35367 0.98799 0.0
C928 C 0.56405 0.32376 0.95607 0.0
C929 C 0.59972 0.33454 0.93534 0.0
H930 H 0.5476 0.32407 0.99738 0.0
H931 H 0.52662 0.30812 0.95226 0.0
S932 S 0.73169 0.38735 0.94165 0.0
N933 N 0.70679 0.38397 0.97176 0.0
N934 N 0.68636 0.36584 0.92319 0.0
C935 C 0.64774 0.35498 0.94137 0.0
C936 C 0.65912 0.36466 0.96768 0.0
C937 C 0.86856 0.17954 0.47228 0.0
C938 C 0.85149 0.14774 0.48054 0.0
C939 C 0.86673 0.1886 0.4459 0.0
C940 C 0.84841 0.16616 0.42657 0.0
H941 H 0.88217 0.19793 0.48643 0.0
H942 H 0.87826 0.2137 0.44062 0.0
S943 S 0.80123 0.07959 0.43735 0.0
N944 N 0.81694 0.09347 0.46685 0.0
N945 N 0.81486 0.11048 0.41718 0.0
C946 C 0.8338 0.13387 0.43426 0.0
C947 C 0.83507 0.12466 0.46123 0.0
C948 C 0.83318 0.8469 0.96823 0.0
C949 C 0.81824 0.87843 0.97761 0.0
C950 C 0.83337 0.83971 0.94144 0.0
C951 C 0.81906 0.86377 0.92279 0.0
H952 H 0.8445 0.82746 0.98175 0.0
H953 H 0.84449 0.81497 0.93527 0.0
S954 S 0.77615 0.95002 0.93676 0.0
N955 N 0.78819 0.93389 0.96582 0.0
N956 N 0.78962 0.92041 0.91547 0.0
C957 C 0.8053 0.89558 0.93174 0.0
C958 C 0.80466 0.9029 0.9591 0.0
C959 C 0.60477 0.63542 0.47751 0.0
C960 C 0.6638 0.63999 0.48365 0.0
C961 C 0.5869 0.62832 0.45199 0.0
C962 C 0.62736 0.62528 0.43154 0.0
H963 H 0.57222 0.63644 0.49276 0.0
H964 H 0.54103 0.62438 0.44834 0.0
S965 S 0.78707 0.63583 0.43731 0.0
N966 N 0.76263 0.64209 0.4672 0.0
N967 N 0.72921 0.62835 0.41912 0.0
C968 C 0.6864 0.63107 0.43722 0.0
C969 C 0.70458 0.63849 0.4633 0.0
C970 C 0.33906 0.62045 0.06235 0.0
C971 C 0.3562 0.64494 0.04433 0.0
C972 C 0.33679 0.62718 0.08926 0.0
C973 C 0.35173 0.65856 0.09899 0.0
H974 H 0.32442 0.59648 0.0555 0.0
H975 H 0.32024 0.60834 0.10235 0.0
S976 S 0.40734 0.72957 0.06069 0.0
N977 N 0.39478 0.70055 0.03869 0.0
N978 N 0.38927 0.71323 0.0891 0.0
C979 C 0.37217 0.68253 0.08144 0.0
C980 C 0.37474 0.67572 0.05415 0.0
C981 C 0.0929 0.83931 0.54752 0.0
C982 C 0.15204 0.84418 0.54174 0.0
C983 C 0.07426 0.83354 0.57321 0.0
C984 C 0.114 0.83309 0.59407 0.0
H985 H 0.06105 0.83908 0.53196 0.0
H986 H 0.02845 0.82926 0.57679 0.0
S987 S 0.27326 0.84594 0.58926 0.0
N988 N 0.25 0.84902 0.55887 0.0
N989 N 0.21497 0.83876 0.60724 0.0
C990 C 0.17305 0.83881 0.58859 0.0
C991 C 0.19208 0.84416 0.5624 0.0
C992 C 0.16122 0.23766 0.33211 0.0
C993 C 0.1248 0.25604 0.34844 0.0
C994 C 0.13837 0.21407 0.31482 0.0
C995 C 0.07805 0.20872 0.31247 0.0
H996 H 0.20782 0.2415 0.33276 0.0
H997 H 0.16853 0.20024 0.30314 0.0
S998 S 0.96449 0.24989 0.3522 0.0
N999 N 0.0261 0.26653 0.36247 0.0
N1000 N 0.98253 0.22313 0.32931 0.0
C1001 C 0.04122 0.22677 0.32914 0.0
C1002 C 0.06475 0.25023 0.34723 0.0
C1003 C 0.42764 0.24942 0.83395 0.0
C1004 C 0.37723 0.25789 0.84786 0.0
C1005 C 0.45226 0.27114 0.81563 0.0
C1006 C 0.42686 0.30186 0.81034 0.0
H1007 H 0.44778 0.22568 0.83709 0.0
H1008 H 0.49069 0.2635 0.80511 0.0
S1009 S 0.29399 0.33532 0.8414 0.0
N1010 N 0.30259 0.29882 0.85512 0.0
N1011 N 0.34846 0.33965 0.82072 0.0
C1012 C 0.37648 0.3106 0.82424 0.0
C1013 C 0.35187 0.28865 0.84305 0.0
C1014 C 0.66563 0.26316 0.71147 0.0
C1015 C 0.65385 0.26143 0.6845 0.0
C1016 C 0.63213 0.28256 0.72831 0.0
C1017 C 0.58701 0.30241 0.71889 0.0
H1018 H 0.70098 0.24926 0.71983 0.0
H1019 H 0.64149 0.28146 0.74888 0.0
S1020 S 0.53508 0.30478 0.64997 0.0
N1021 N 0.58975 0.27878 0.64954 0.0
N1022 N 0.53048 0.31764 0.68041 0.0
C1023 C 0.57442 0.30071 0.69185 0.0
C1024 C 0.60716 0.27993 0.67488 0.0
C1025 C 0.86458 0.25062 0.20963 0.0
C1026 C 0.8747 0.25053 0.18253 0.0
C1027 C 0.89403 0.22918 0.22636 0.0
C1028 C 0.93411 0.2061 0.21675 0.0
H1029 H 0.83318 0.26727 0.21809 0.0
H1030 H 0.88489 0.23077 0.24705 0.0
S1031 S 0.97835 0.19667 0.14731 0.0
N1032 N 0.93024 0.22662 0.14696 0.0
N1033 N 0.98321 0.18503 0.17806 0.0
C1034 C 0.94477 0.20573 0.18961 0.0
C1035 C 0.91554 0.22811 0.17262 0.0
C1036 C 0.86045 0.7808 0.6884 0.0
C1037 C 0.87854 0.74781 0.69017 0.0
C1038 C 0.88885 0.80589 0.70255 0.0
C1039 C 0.93653 0.79881 0.7187 0.0
H1040 H 0.8229 0.78706 0.67674 0.0
H1041 H 0.873 0.83092 0.70108 0.0
S1042 S 0.00224 0.71661 0.72909 0.0
N1043 N 0.94843 0.70965 0.70848 0.0
N1044 N 0.00132 0.75661 0.73516 0.0
C1045 C 0.95592 0.76608 0.72005 0.0
C1046 C 0.92701 0.74063 0.70578 0.0
C1047 C 0.58601 0.75921 0.19301 0.0
C1048 C 0.63821 0.75212 0.18002 0.0
C1049 C 0.55938 0.73583 0.20938 0.0
C1050 C 0.58472 0.70482 0.2137 0.0
H1051 H 0.56555 0.78296 0.19038 0.0
H1052 H 0.51929 0.74235 0.21909 0.0
S1053 S 0.72196 0.67466 0.18452 0.0
N1054 N 0.71454 0.71226 0.1726 0.0
N1055 N 0.66505 0.66834 0.20353 0.0
C1056 C 0.63717 0.69758 0.2009 0.0
C1057 C 0.66377 0.72122 0.18399 0.0
C1058 C 0.40507 0.76744 0.31125 0.0
C1059 C 0.36768 0.75835 0.33192 0.0
C1060 C 0.43536 0.74378 0.29686 0.0
C1061 C 0.4312 0.71023 0.30319 0.0
H1062 H 0.41094 0.79314 0.30599 0.0
H1063 H 0.46278 0.75183 0.28085 0.0
S1064 S 0.33891 0.67258 0.35445 0.0
N1065 N 0.32651 0.71258 0.35685 0.0
N1066 N 0.38727 0.66849 0.3309 0.0
C1067 C 0.39532 0.70058 0.32397 0.0
C1068 C 0.36277 0.72454 0.33813 0.0
C1069 C 0.13038 0.75406 0.82021 0.0
C1070 C 0.16307 0.76683 0.84131 0.0
C1071 C 0.10109 0.7748 0.80297 0.0
C1072 C 0.10118 0.80904 0.80677 0.0
H1073 H 0.1262 0.7277 0.81718 0.0
H1074 H 0.07587 0.76385 0.78729 0.0
S1075 S 0.18323 0.85577 0.85692 0.0
N1076 N 0.1978 0.81669 0.86314 0.0
N1077 N 0.13855 0.85541 0.83173 0.0
C1078 C 0.13386 0.82241 0.82735 0.0
C1079 C 0.16555 0.80138 0.84445 0.0
loop_
_geom_bond_atom_site_label_1
_geom_bond_atom_site_label_2
_geom_bond_distance
_geom_bond_site_symmetry_2
_ccdc_geom_bond_type
C0 C1 1.391 . S
C0 C4 1.391 . S
C0 H42 0.948 . S
C1 C0 1.391 . S
C1 C2 1.391 . S
C2 C1 1.391 . S
C2 H58 0.947 . S
C2 C59 1.392 . S
C3 C4 1.391 . S
C3 C7 1.397 . S
C3 C59 1.419 . S
C4 C0 1.391 . S
C4 C3 1.391 . S
C4 C5 1.399 . S
C5 C4 1.399 . S
C5 C8 1.396 . S
C5 C17 1.453 . S
C5 C18 1.684 . S
H6 C30 0.948 . S
C7 C3 1.397 . S
C7 C8 1.394 . S
C7 C26 1.723 . S
C8 C5 1.396 . S
C8 C7 1.394 . S
C8 C38 1.723 . S
H9 C32 0.947 . S
H10 C33 0.948 . S
H11 C39 0.982 . S
H12 C40 0.979 . S
H13 C40 0.980 . S
H14 C40 0.983 . S
H15 C39 0.979 . S
H16 C39 0.977 . S
C17 C5 1.453 . S
C17 H46 0.982 . S
C17 H47 0.979 . S
C17 H48 0.977 . S
C18 C5 1.684 . S
C18 H43 0.979 . S
C18 H44 0.980 . S
C18 H45 0.983 . S
C19 C20 1.391 . S
C19 C24 1.391 . S
C19 H49 0.948 . S
C20 C19 1.391 . S
C20 C21 1.391 . S
C21 C20 1.391 . S
C21 C22 1.392 . S
C21 H50 0.947 . S
C22 C21 1.392 . S
C22 C23 1.419 . S
C22 H51 0.948 . S
C23 C22 1.419 . S
C23 C24 1.391 . S
C23 C27 1.397 . S
C24 C19 1.391 . S
C24 C23 1.391 . S
C24 C25 1.399 . S
C25 C24 1.399 . S
C25 C26 1.396 . S
C25 C28 1.453 . S
C25 C29 1.684 . S
C26 C7 1.723 . S
C26 C25 1.396 . S
C26 C27 1.394 . S
C27 C23 1.397 . S
C27 C26 1.394 . S
C27 C37 1.723 . S
C28 C25 1.453 . S
C28 H52 0.982 . S
C28 H53 0.979 . S
C28 H54 0.977 . S
C29 C25 1.684 . S
C29 H55 0.979 . S
C29 H56 0.980 . S
C29 H57 0.983 . S
C30 H6 0.948 . S
C30 C31 1.391 . S
C30 C35 1.391 . S
C31 C30 1.391 . S
C31 C32 1.391 . S
C32 H9 0.947 . S
C32 C31 1.391 . S
C32 C33 1.392 . S
C33 H10 0.948 . S
C33 C32 1.392 . S
C33 C34 1.419 . S
C34 C33 1.419 . S
C34 C35 1.391 . S
C34 C38 1.397 . S
C35 C30 1.391 . S
C35 C34 1.391 . S
C35 C36 1.399 . S
C36 C35 1.399 . S
C36 C37 1.396 . S
C36 C39 1.453 . S
C36 C40 1.684 . S
C37 C27 1.723 . S
C37 C36 1.396 . S
C37 C38 1.394 . S
C38 C8 1.723 . S
C38 C34 1.397 . S
C38 C37 1.394 . S
C39 H11 0.982 . S
C39 H15 0.979 . S
C39 H16 0.977 . S
C39 C36 1.453 . S
C40 H12 0.979 . S
C40 H13 0.980 . S
C40 H14 0.983 . S
C40 C36 1.684 . S
H41 C59 0.948 . S
H42 C0 0.948 . S
H43 C18 0.979 . S
H44 C18 0.980 . S
H45 C18 0.983 . S
H46 C17 0.982 . S
H47 C17 0.979 . S
H48 C17 0.977 . S
H49 C19 0.948 . S
H50 C21 0.947 . S
H51 C22 0.948 . S
H52 C28 0.982 . S
H53 C28 0.979 . S
H54 C28 0.977 . S
H55 C29 0.979 . S
H56 C29 0.980 . S
H57 C29 0.983 . S
H58 C2 0.947 . S
C59 C2 1.392 . S
C59 C3 1.419 . S
C59 H41 0.948 . S
C60 C61 1.391 . S
C60 C64 1.391 . S
C60 H102 0.948 . S
C61 C60 1.391 . S
C61 C62 1.391 . S
C62 C61 1.391 . S
C62 H118 0.947 . S
C62 C119 1.392 . S
C63 C64 1.391 . S
C63 C67 1.397 . S
C63 C119 1.419 . S
C64 C60 1.391 . S
C64 C63 1.391 . S
C64 C65 1.399 . S
C65 C64 1.399 . S
C65 C68 1.396 . S
C65 C77 1.453 . S
C65 C78 1.684 . S
H66 C90 0.948 1_565 S
C67 C63 1.397 . S
C67 C68 1.394 . S
C67 C86 1.723 . S
C68 C65 1.396 . S
C68 C67 1.394 . S
C68 C98 1.723 . S
H69 C92 0.947 . S
H70 C93 0.948 . S
H71 C99 0.982 . S
H72 C100 0.979 . S
H73 C100 0.980 . S
H74 C100 0.983 . S
H75 C99 0.979 . S
H76 C99 0.977 . S
C77 C65 1.453 . S
C77 H106 0.982 . S
C77 H107 0.979 . S
C77 H108 0.977 . S
C78 C65 1.684 . S
C78 H103 0.979 . S
C78 H104 0.980 . S
C78 H105 0.983 . S
C79 C80 1.391 1_556 S
C79 C84 1.391 . S
C79 H109 0.948 . S
C80 C79 1.391 1_554 S
C80 C81 1.391 1_554 S
C81 C80 1.391 1_556 S
C81 C82 1.392 . S
C81 H110 0.947 1_556 S
C82 C81 1.392 . S
C82 C83 1.419 . S
C82 H111 0.948 . S
C83 C82 1.419 . S
C83 C84 1.391 . S
C83 C87 1.397 . S
C84 C79 1.391 . S
C84 C83 1.391 . S
C84 C85 1.399 . S
C85 C84 1.399 . S
C85 C86 1.396 . S
C85 C88 1.453 . S
C85 C89 1.684 . S
C86 C67 1.723 . S
C86 C85 1.396 . S
C86 C87 1.394 . S
C87 C83 1.397 . S
C87 C86 1.394 . S
C87 C97 1.723 . S
C88 C85 1.453 . S
C88 H112 0.982 . S
C88 H113 0.979 . S
C88 H114 0.977 . S
C89 C85 1.684 . S
C89 H115 0.979 . S
C89 H116 0.980 . S
C89 H117 0.983 . S
C90 H66 0.948 1_545 S
C90 C91 1.391 . S
C90 C95 1.391 . S
C91 C90 1.391 . S
C91 C92 1.391 . S
C92 H69 0.947 . S
C92 C91 1.391 . S
C92 C93 1.392 . S
C93 H70 0.948 . S
C93 C92 1.392 . S
C93 C94 1.419 . S
C94 C93 1.419 . S
C94 C95 1.391 . S
C94 C98 1.397 . S
C95 C90 1.391 . S
C95 C94 1.391 . S
C95 C96 1.399 . S
C96 C95 1.399 . S
C96 C97 1.396 . S
C96 C99 1.453 . S
C96 C100 1.684 . S
C97 C87 1.723 . S
C97 C96 1.396 . S
C97 C98 1.394 . S
C98 C68 1.723 . S
C98 C94 1.397 . S
C98 C97 1.394 . S
C99 H71 0.982 . S
C99 H75 0.979 . S
C99 H76 0.977 . S
C99 C96 1.453 . S
C100 H72 0.979 . S
C100 H73 0.980 . S
C100 H74 0.983 . S
C100 C96 1.684 . S
H101 C119 0.948 . S
H102 C60 0.948 . S
H103 C78 0.979 . S
H104 C78 0.980 . S
H105 C78 0.983 . S
H106 C77 0.982 . S
H107 C77 0.979 . S
H108 C77 0.977 . S
H109 C79 0.948 . S
H110 C81 0.947 1_554 S
H111 C82 0.948 . S
H112 C88 0.982 . S
H113 C88 0.979 . S
H114 C88 0.977 . S
H115 C89 0.979 . S
H116 C89 0.980 . S
H117 C89 0.983 . S
H118 C62 0.947 . S
C119 C62 1.392 . S
C119 C63 1.419 . S
C119 H101 0.948 . S
C120 C121 1.391 . S
C120 C124 1.391 . S
C120 H162 0.948 . S
C121 C120 1.391 . S
C121 C122 1.391 . S
C122 C121 1.391 . S
C122 H178 0.947 . S
C122 C179 1.392 . S
C123 C124 1.391 . S
C123 C127 1.397 . S
C123 C179 1.419 . S
C124 C120 1.391 . S
C124 C123 1.391 . S
C124 C125 1.399 . S
C125 C124 1.399 . S
C125 C128 1.396 . S
C125 C137 1.453 . S
C125 C138 1.684 . S
H126 C150 0.948 . S
C127 C123 1.397 . S
C127 C128 1.394 . S
C127 C146 1.723 . S
C128 C125 1.396 . S
C128 C127 1.394 . S
C128 C158 1.723 . S
H129 C152 0.947 . S
H130 C153 0.948 . S
H131 C159 0.982 . S
H132 C160 0.979 . S
H133 C160 0.980 . S
H134 C160 0.983 . S
H135 C159 0.979 . S
H136 C159 0.977 . S
C137 C125 1.453 . S
C137 H166 0.982 . S
C137 H167 0.979 . S
C137 H168 0.977 . S
C138 C125 1.684 . S
C138 H163 0.979 . S
C138 H164 0.980 . S
C138 H165 0.983 . S
C139 C140 1.391 . S
C139 C144 1.391 . S
C139 H169 0.936 1_545 S
C140 C139 1.391 . S
C140 C141 1.391 . S
C141 C140 1.391 . S
C141 C142 1.392 . S
C141 H170 0.947 . S
C142 C141 1.392 . S
C142 C143 1.419 . S
C142 H171 0.948 . S
C143 C142 1.419 . S
C143 C144 1.391 . S
C143 C147 1.397 . S
C144 C139 1.391 . S
C144 C143 1.391 . S
C144 C145 1.399 . S
C145 C144 1.399 . S
C145 C146 1.396 . S
C145 C148 1.453 . S
C145 C149 1.684 . S
C146 C127 1.723 . S
C146 C145 1.396 . S
C146 C147 1.394 . S
C147 C143 1.397 . S
C147 C146 1.394 . S
C147 C157 1.723 . S
C148 C145 1.453 . S
C148 H172 0.982 . S
C148 H173 0.979 . S
C148 H174 0.977 . S
C149 C145 1.684 . S
C149 H175 0.979 . S
C149 H176 0.980 . S
C149 H177 0.983 . S
C150 H126 0.948 . S
C150 C151 1.391 . S
C150 C155 1.391 . S
C151 C150 1.391 . S
C151 C152 1.391 . S
C152 H129 0.947 . S
C152 C151 1.391 . S
C152 C153 1.392 . S
C153 H130 0.948 . S
C153 C152 1.392 . S
C153 C154 1.419 . S
C154 C153 1.419 . S
C154 C155 1.391 . S
C154 C158 1.397 . S
C155 C150 1.391 . S
C155 C154 1.391 . S
C155 C156 1.399 . S
C156 C155 1.399 . S
C156 C157 1.396 . S
C156 C159 1.453 . S
C156 C160 1.684 . S
C157 C147 1.723 . S
C157 C156 1.396 . S
C157 C158 1.394 . S
C158 C128 1.723 . S
C158 C154 1.397 . S
C158 C157 1.394 . S
C159 H131 0.982 . S
C159 H135 0.979 . S
C159 H136 0.977 . S
C159 C156 1.453 . S
C160 H132 0.979 . S
C160 H133 0.980 . S
C160 H134 0.983 . S
C160 C156 1.684 . S
H161 C179 0.948 . S
H162 C120 0.948 . S
H163 C138 0.979 . S
H164 C138 0.980 . S
H165 C138 0.983 . S
H166 C137 0.982 . S
H167 C137 0.979 . S
H168 C137 0.977 . S
H169 C139 0.936 1_565 S
H170 C141 0.947 . S
H171 C142 0.948 . S
H172 C148 0.982 . S
H173 C148 0.979 . S
H174 C148 0.977 . S
H175 C149 0.979 . S
H176 C149 0.980 . S
H177 C149 0.983 . S
H178 C122 0.947 . S
C179 C122 1.392 . S
C179 C123 1.419 . S
C179 H161 0.948 . S
C180 C181 1.391 . S
C180 C184 1.391 . S
C180 H222 0.948 . S
C181 C180 1.391 . S
C181 C182 1.391 . S
C182 C181 1.391 . S
C182 H238 0.947 . S
C182 C239 1.392 . S
C183 C184 1.391 . S
C183 C187 1.397 . S
C183 C239 1.419 . S
C184 C180 1.391 . S
C184 C183 1.391 . S
C184 C185 1.399 . S
C185 C184 1.399 . S
C185 C188 1.396 . S
C185 C197 1.453 . S
C185 C198 1.684 . S
H186 C210 0.948 . S
C187 C183 1.397 . S
C187 C188 1.394 . S
C187 C206 1.723 . S
C188 C185 1.396 . S
C188 C187 1.394 . S
C188 C218 1.723 . S
H189 C212 0.947 . S
H190 C213 0.948 . S
H191 C219 0.982 . S
H192 C220 0.979 . S
H193 C220 0.980 . S
H194 C220 0.983 . S
H195 C219 0.979 . S
H196 C219 0.977 . S
C197 C185 1.453 . S
C197 H226 0.982 . S
C197 H227 0.979 . S
C197 H228 0.977 . S
C198 C185 1.684 . S
C198 H223 0.979 . S
C198 H224 0.980 . S
C198 H225 0.983 . S
C199 C200 1.389 1_554 S
C199 C204 1.391 . S
C199 H229 0.948 . S
C200 C199 1.389 1_556 S
C200 C201 1.389 1_556 S
C201 C200 1.389 1_554 S
C201 C202 1.392 . S
C201 H230 0.947 . S
C202 C201 1.392 . S
C202 C203 1.419 . S
C202 H231 0.948 . S
C203 C202 1.419 . S
C203 C204 1.391 . S
C203 C207 1.397 . S
C204 C199 1.391 . S
C204 C203 1.391 . S
C204 C205 1.399 . S
C205 C204 1.399 . S
C205 C206 1.396 . S
C205 C208 1.453 . S
C205 C209 1.684 . S
C206 C187 1.723 . S
C206 C205 1.396 . S
C206 C207 1.394 . S
C207 C203 1.397 . S
C207 C206 1.394 . S
C207 C217 1.723 . S
C208 C205 1.453 . S
C208 H232 0.982 . S
C208 H233 0.979 . S
C208 H234 0.977 . S
C209 C205 1.684 . S
C209 H235 0.979 . S
C209 H236 0.980 . S
C209 H237 0.983 . S
C210 H186 0.948 . S
C210 C211 1.391 . S
C210 C215 1.391 . S
C211 C210 1.391 . S
C211 C212 1.391 . S
C212 H189 0.947 . S
C212 C211 1.391 . S
C212 C213 1.392 . S
C213 H190 0.948 . S
C213 C212 1.392 . S
C213 C214 1.419 . S
C214 C213 1.419 . S
C214 C215 1.391 . S
C214 C218 1.397 . S
C215 C210 1.391 . S
C215 C214 1.391 . S
C215 C216 1.399 . S
C216 C215 1.399 . S
C216 C217 1.396 . S
C216 C219 1.453 . S
C216 C220 1.684 . S
C217 C207 1.723 . S
C217 C216 1.396 . S
C217 C218 1.394 . S
C218 C188 1.723 . S
C218 C214 1.397 . S
C218 C217 1.394 . S
C219 H191 0.982 . S
C219 H195 0.979 . S
C219 H196 0.977 . S
C219 C216 1.453 . S
C220 H192 0.979 . S
C220 H193 0.980 . S
C220 H194 0.983 . S
C220 C216 1.684 . S
H221 C239 0.948 . S
H222 C180 0.948 . S
H223 C198 0.979 . S
H224 C198 0.980 . S
H225 C198 0.983 . S
H226 C197 0.982 . S
H227 C197 0.979 . S
H228 C197 0.977 . S
H229 C199 0.948 . S
H230 C201 0.947 . S
H231 C202 0.948 . S
H232 C208 0.982 . S
H233 C208 0.979 . S
H234 C208 0.977 . S
H235 C209 0.979 . S
H236 C209 0.980 . S
H237 C209 0.983 . S
H238 C182 0.947 . S
C239 C182 1.392 . S
C239 C183 1.419 . S
C239 H221 0.948 . S
C240 C241 1.391 . S
C240 C244 1.391 . S
C240 H282 0.948 . S
C241 C240 1.391 . S
C241 C242 1.391 . S
C242 C241 1.391 . S
C242 H298 0.947 . S
C242 C299 1.392 . S
C243 C244 1.391 . S
C243 C247 1.397 . S
C243 C299 1.419 . S
C244 C240 1.391 . S
C244 C243 1.391 . S
C244 C245 1.399 . S
C245 C244 1.399 . S
C245 C248 1.396 . S
C245 C257 1.453 . S
C245 C258 1.684 . S
H246 C270 0.948 . S
C247 C243 1.397 . S
C247 C248 1.394 . S
C247 C266 1.723 . S
C248 C245 1.396 . S
C248 C247 1.394 . S
C248 C278 1.723 . S
H249 C272 0.947 . S
H250 C273 0.948 . S
H251 C279 0.982 . S
H252 C280 0.979 . S
H253 C280 0.980 . S
H254 C280 0.983 . S
H255 C279 0.979 . S
H256 C279 0.977 . S
C257 C245 1.453 . S
C257 H286 0.982 . S
C257 H287 0.979 . S
C257 H288 0.977 . S
C258 C245 1.684 . S
C258 H283 0.979 . S
C258 H284 0.980 . S
C258 H285 0.983 . S
C259 C260 1.391 . S
C259 C264 1.391 . S
C259 H289 0.948 . S
C260 C259 1.391 . S
C260 C261 1.391 . S
C261 C260 1.391 . S
C261 C262 1.392 . S
C261 H290 0.947 . S
C262 C261 1.392 . S
C262 C263 1.419 . S
C262 H291 0.948 . S
C263 C262 1.419 . S
C263 C264 1.391 . S
C263 C267 1.397 . S
C264 C259 1.391 . S
C264 C263 1.391 . S
C264 C265 1.399 . S
C265 C264 1.399 . S
C265 C266 1.396 . S
C265 C268 1.453 . S
C265 C269 1.684 . S
C266 C247 1.723 . S
C266 C265 1.396 . S
C266 C267 1.394 . S
C267 C263 1.397 . S
C267 C266 1.394 . S
C267 C277 1.723 . S
C268 C265 1.453 . S
C268 H292 0.982 . S
C268 H293 0.979 . S
C268 H294 0.977 . S
C269 C265 1.684 . S
C269 H295 0.979 . S
C269 H296 0.980 . S
C269 H297 0.983 . S
C270 H246 0.948 . S
C270 C271 1.391 . S
C270 C275 1.391 . S
C271 C270 1.391 . S
C271 C272 1.391 . S
C272 H249 0.947 . S
C272 C271 1.391 . S
C272 C273 1.392 . S
C273 H250 0.948 . S
C273 C272 1.392 . S
C273 C274 1.419 . S
C274 C273 1.419 . S
C274 C275 1.391 . S
C274 C278 1.397 . S
C275 C270 1.391 . S
C275 C274 1.391 . S
C275 C276 1.399 . S
C276 C275 1.399 . S
C276 C277 1.396 . S
C276 C279 1.453 . S
C276 C280 1.684 . S
C277 C267 1.723 . S
C277 C276 1.396 . S
C277 C278 1.394 . S
C278 C248 1.723 . S
C278 C274 1.397 . S
C278 C277 1.394 . S
C279 H251 0.982 . S
C279 H255 0.979 . S
C279 H256 0.977 . S
C279 C276 1.453 . S
C280 H252 0.979 . S
C280 H253 0.980 . S
C280 H254 0.983 . S
C280 C276 1.684 . S
H281 C299 0.948 . S
H282 C240 0.948 . S
H283 C258 0.979 . S
H284 C258 0.980 . S
H285 C258 0.983 . S
H286 C257 0.982 . S
H287 C257 0.979 . S
H288 C257 0.977 . S
H289 C259 0.948 . S
H290 C261 0.947 . S
H291 C262 0.948 . S
H292 C268 0.982 . S
H293 C268 0.979 . S
H294 C268 0.977 . S
H295 C269 0.979 . S
H296 C269 0.980 . S
H297 C269 0.983 . S
H298 C242 0.947 . S
C299 C242 1.392 . S
C299 C243 1.419 . S
C299 H281 0.948 . S
C300 C301 1.391 . S
C300 C304 1.391 . S
C300 H342 0.948 . S
C301 C300 1.391 . S
C301 C302 1.391 . S
C302 C301 1.391 . S
C302 H358 0.947 . S
C302 C359 1.392 . S
C303 C304 1.391 . S
C303 C307 1.397 . S
C303 C359 1.419 . S
C304 C300 1.391 . S
C304 C303 1.391 . S
C304 C305 1.399 . S
C305 C304 1.399 . S
C305 C308 1.396 . S
C305 C317 1.453 . S
C305 C318 1.684 . S
H306 C330 0.948 1_545 S
C307 C303 1.397 . S
C307 C308 1.394 . S
C307 C326 1.723 . S
C308 C305 1.396 . S
C308 C307 1.394 . S
C308 C338 1.723 . S
H309 C332 0.947 . S
H310 C333 0.948 . S
H311 C339 0.982 . S
H312 C340 0.979 . S
H313 C340 0.980 . S
H314 C340 0.984 . S
H315 C339 0.979 . S
H316 C339 0.977 . S
C317 C305 1.453 . S
C317 H346 0.982 . S
C317 H347 0.979 . S
C317 H348 0.977 . S
C318 C305 1.684 . S
C318 H343 0.979 . S
C318 H344 0.980 . S
C318 H345 0.983 . S
C319 C320 1.391 1_554 S
C319 C324 1.391 . S
C319 H349 0.962 . S
C320 C319 1.391 1_556 S
C320 C321 1.391 1_556 S
C321 C320 1.391 1_554 S
C321 C322 1.392 . S
C321 H350 0.947 1_554 S
C322 C321 1.392 . S
C322 C323 1.419 . S
C322 H351 0.948 . S
C323 C322 1.419 . S
C323 C324 1.391 . S
C323 C327 1.397 . S
C324 C319 1.391 . S
C324 C323 1.391 . S
C324 C325 1.399 . S
C325 C324 1.399 . S
C325 C326 1.396 . S
C325 C328 1.453 . S
C325 C329 1.684 . S
C326 C307 1.723 . S
C326 C325 1.396 . S
C326 C327 1.394 . S
C327 C323 1.397 . S
C327 C326 1.394 . S
C327 C337 1.723 . S
C328 C325 1.453 . S
C328 H352 0.982 . S
C328 H353 0.979 . S
C328 H354 0.977 . S
C329 C325 1.684 . S
C329 H355 0.979 . S
C329 H356 0.980 . S
C329 H357 0.983 . S
C330 H306 0.948 1_565 S
C330 C331 1.391 . S
C330 C335 1.391 . S
C331 C330 1.391 . S
C331 C332 1.391 . S
C332 H309 0.947 . S
C332 C331 1.391 . S
C332 C333 1.392 . S
C333 H310 0.948 . S
C333 C332 1.392 . S
C333 C334 1.419 . S
C334 C333 1.419 . S
C334 C335 1.391 . S
C334 C338 1.397 . S
C335 C330 1.391 . S
C335 C334 1.391 . S
C335 C336 1.399 . S
C336 C335 1.399 . S
C336 C337 1.396 . S
C336 C339 1.453 . S
C336 C340 1.684 . S
C337 C327 1.723 . S
C337 C336 1.396 . S
C337 C338 1.394 . S
C338 C308 1.723 . S
C338 C334 1.397 . S
C338 C337 1.394 . S
C339 H311 0.982 . S
C339 H315 0.979 . S
C339 H316 0.977 . S
C339 C336 1.453 . S
C340 H312 0.979 . S
C340 H313 0.980 . S
C340 H314 0.984 . S
C340 C336 1.684 . S
H341 C359 0.948 . S
H342 C300 0.948 . S
H343 C318 0.979 . S
H344 C318 0.980 . S
H345 C318 0.983 . S
H346 C317 0.982 . S
H347 C317 0.979 . S
H348 C317 0.977 . S
H349 C319 0.962 . S
H350 C321 0.947 1_556 S
H351 C322 0.948 . S
H352 C328 0.982 . S
H353 C328 0.979 . S
H354 C328 0.977 . S
H355 C329 0.979 . S
H356 C329 0.980 . S
H357 C329 0.983 . S
H358 C302 0.947 . S
C359 C302 1.392 . S
C359 C303 1.419 . S
C359 H341 0.948 . S
C360 C361 1.391 . S
C360 C364 1.391 . S
C360 H402 0.948 . S
C361 C360 1.391 . S
C361 C362 1.391 . S
C362 C361 1.391 . S
C362 H418 0.947 1_565 S
C362 C419 1.392 . S
C363 C364 1.391 . S
C363 C367 1.397 . S
C363 C419 1.419 . S
C364 C360 1.391 . S
C364 C363 1.391 . S
C364 C365 1.399 . S
C365 C364 1.399 . S
C365 C368 1.396 . S
C365 C377 1.453 . S
C365 C378 1.684 . S
H366 C390 0.948 . S
C367 C363 1.397 . S
C367 C368 1.394 . S
C367 C386 1.723 . S
C368 C365 1.396 . S
C368 C367 1.394 . S
C368 C398 1.723 . S
H369 C392 0.947 . S
H370 C393 0.948 . S
H371 C399 0.982 . S
H372 C400 0.979 . S
H373 C400 0.980 . S
H374 C400 0.983 . S
H375 C399 0.979 . S
H376 C399 0.977 . S
C377 C365 1.453 . S
C377 H406 0.982 . S
C377 H407 0.979 . S
C377 H408 0.977 . S
C378 C365 1.684 . S
C378 H403 0.979 . S
C378 H404 0.980 . S
C378 H405 0.983 . S
C379 C380 1.391 . S
C379 C384 1.391 . S
C379 H409 0.948 . S
C380 C379 1.391 . S
C380 C381 1.391 . S
C381 C380 1.391 . S
C381 C382 1.392 . S
C381 H410 0.947 . S
C382 C381 1.392 . S
C382 C383 1.419 . S
C382 H411 0.948 . S
C383 C382 1.419 . S
C383 C384 1.391 . S
C383 C387 1.397 . S
C384 C379 1.391 . S
C384 C383 1.391 . S
C384 C385 1.399 . S
C385 C384 1.399 . S
C385 C386 1.396 . S
C385 C388 1.453 . S
C385 C389 1.684 . S
C386 C367 1.723 . S
C386 C385 1.396 . S
C386 C387 1.394 . S
C387 C383 1.397 . S
C387 C386 1.394 . S
C387 C397 1.723 . S
C388 C385 1.453 . S
C388 H412 0.982 . S
C388 H413 0.979 . S
C388 H414 0.977 . S
C389 C385 1.684 . S
C389 H415 0.979 . S
C389 H416 0.980 . S
C389 H417 0.983 . S
C390 H366 0.948 . S
C390 C391 1.391 . S
C390 C395 1.391 . S
C391 C390 1.391 . S
C391 C392 1.391 . S
C392 H369 0.947 . S
C392 C391 1.391 . S
C392 C393 1.392 . S
C393 H370 0.948 . S
C393 C392 1.392 . S
C393 C394 1.419 . S
C394 C393 1.419 . S
C394 C395 1.391 . S
C394 C398 1.397 . S
C395 C390 1.391 . S
C395 C394 1.391 . S
C395 C396 1.399 . S
C396 C395 1.399 . S
C396 C397 1.396 . S
C396 C399 1.453 . S
C396 C400 1.684 . S
C397 C387 1.723 . S
C397 C396 1.396 . S
C397 C398 1.394 . S
C398 C368 1.723 . S
C398 C394 1.397 . S
C398 C397 1.394 . S
C399 H371 0.982 . S
C399 H375 0.979 . S
C399 H376 0.977 . S
C399 C396 1.453 . S
C400 H372 0.979 . S
C400 H373 0.980 . S
C400 H374 0.983 . S
C400 C396 1.684 . S
H401 C419 0.948 . S
H402 C360 0.948 . S
H403 C378 0.979 . S
H404 C378 0.980 . S
H405 C378 0.983 . S
H406 C377 0.982 . S
H407 C377 0.979 . S
H408 C377 0.977 . S
H409 C379 0.948 . S
H410 C381 0.947 . S
H411 C382 0.948 . S
H412 C388 0.982 . S
H413 C388 0.979 . S
H414 C388 0.977 . S
H415 C389 0.979 . S
H416 C389 0.980 . S
H417 C389 0.983 . S
H418 C362 0.947 1_545 S
C419 C362 1.392 . S
C419 C363 1.419 . S
C419 H401 0.948 . S
C420 C421 1.391 . S
C420 C424 1.391 . S
C420 H462 0.948 . S
C421 C420 1.391 . S
C421 C422 1.391 . S
C422 C421 1.391 . S
C422 H478 0.947 . S
C422 C479 1.392 . S
C423 C424 1.391 . S
C423 C427 1.397 . S
C423 C479 1.419 . S
C424 C420 1.391 . S
C424 C423 1.391 . S
C424 C425 1.399 . S
C425 C424 1.399 . S
C425 C428 1.396 . S
C425 C437 1.453 . S
C425 C438 1.684 . S
H426 C450 0.948 . S
C427 C423 1.397 . S
C427 C428 1.394 . S
C427 C446 1.723 . S
C428 C425 1.396 . S
C428 C427 1.394 . S
C428 C458 1.723 . S
H429 C452 0.947 . S
H430 C453 0.948 . S
H431 C459 0.982 . S
H432 C460 0.979 . S
H433 C460 0.980 . S
H434 C460 0.983 . S
H435 C459 0.979 . S
H436 C459 0.977 . S
C437 C425 1.453 . S
C437 H466 0.982 . S
C437 H467 0.979 . S
C437 H468 0.977 . S
C438 C425 1.684 . S
C438 H463 0.979 . S
C438 H464 0.980 . S
C438 H465 0.983 . S
C439 C440 1.391 1_556 S
C439 C444 1.391 . S
C439 H469 0.948 . S
C440 C439 1.391 1_554 S
C440 C441 1.391 1_554 S
C441 C440 1.391 1_556 S
C441 C442 1.392 . S
C441 H470 0.947 . S
C442 C441 1.392 . S
C442 C443 1.419 . S
C442 H471 0.948 . S
C443 C442 1.419 . S
C443 C444 1.391 . S
C443 C447 1.397 . S
C444 C439 1.391 . S
C444 C443 1.391 . S
C444 C445 1.399 . S
C445 C444 1.399 . S
C445 C446 1.396 . S
C445 C448 1.453 . S
C445 C449 1.684 . S
C446 C427 1.723 . S
C446 C445 1.396 . S
C446 C447 1.394 . S
C447 C443 1.397 . S
C447 C446 1.394 . S
C447 C457 1.723 . S
C448 C445 1.453 . S
C448 H472 0.982 . S
C448 H473 0.979 . S
C448 H474 0.977 . S
C449 C445 1.684 . S
C449 H475 0.979 . S
C449 H476 0.980 . S
C449 H477 0.983 . S
C450 H426 0.948 . S
C450 C451 1.391 . S
C450 C455 1.391 . S
C451 C450 1.391 . S
C451 C452 1.391 . S
C452 H429 0.947 . S
C452 C451 1.391 . S
C452 C453 1.392 . S
C453 H430 0.948 . S
C453 C452 1.392 . S
C453 C454 1.419 . S
C454 C453 1.419 . S
C454 C455 1.391 . S
C454 C458 1.397 . S
C455 C450 1.391 . S
C455 C454 1.391 . S
C455 C456 1.399 . S
C456 C455 1.399 . S
C456 C457 1.396 . S
C456 C459 1.453 . S
C456 C460 1.684 . S
C457 C447 1.723 . S
C457 C456 1.396 . S
C457 C458 1.394 . S
C458 C428 1.723 . S
C458 C454 1.397 . S
C458 C457 1.394 . S
C459 H431 0.982 . S
C459 H435 0.979 . S
C459 H436 0.977 . S
C459 C456 1.453 . S
C460 H432 0.979 . S
C460 H433 0.980 . S
C460 H434 0.983 . S
C460 C456 1.684 . S
H461 C479 0.948 . S
H462 C420 0.948 . S
H463 C438 0.979 . S
H464 C438 0.980 . S
H465 C438 0.983 . S
H466 C437 0.982 . S
H467 C437 0.979 . S
H468 C437 0.977 . S
H469 C439 0.948 . S
H470 C441 0.947 . S
H471 C442 0.948 . S
H472 C448 0.982 . S
H473 C448 0.979 . S
H474 C448 0.977 . S
H475 C449 0.979 . S
H476 C449 0.980 . S
H477 C449 0.983 . S
H478 C422 0.947 . S
C479 C422 1.392 . S
C479 C423 1.419 . S
C479 H461 0.948 . S
C480 C482 1.422 . S
C480 C484 1.415 . S
C480 N486 1.369 . S
C481 C482 1.421 . S
C481 C483 1.417 . S
C481 C493 1.422 . S
C482 C480 1.422 . S
C482 C481 1.421 . S
C482 N492 1.359 . S
C483 C481 1.417 . S
C483 C485 1.329 . S
C483 H502 0.930 . S
C484 C480 1.415 . S
C484 C485 1.437 . S
C484 C488 1.413 . S
C485 C483 1.329 . S
C485 C484 1.437 . S
C485 H507 0.929 . S
N486 C480 1.369 . S
N486 C487 1.338 . S
N486 Gd491 2.622 . S
C487 N486 1.338 . S
C487 C489 1.378 . S
C487 H499 0.929 . S
C488 C484 1.413 . S
C488 C489 1.348 . S
C488 H504 0.931 . S
C489 C487 1.378 . S
C489 C488 1.348 . S
C489 H505 0.930 . S
Gd490 N510 2.622 . S
Gd490 N517 2.570 . S
Gd490 O524 2.366 . S
Gd490 O525 2.468 . S
Gd490 O526 2.427 . S
Gd490 O528 2.388 . S
Gd490 O529 2.386 . S
Gd490 O533 2.304 1_455 S
Gd490 C543 2.805 . S
Gd491 N486 2.622 . S
Gd491 N492 2.570 . S
Gd491 O523 2.386 . S
Gd491 O527 2.307 1_655 S
Gd491 O530 2.353 1_655 S
Gd491 O531 2.468 . S
Gd491 O532 2.427 . S
Gd491 O534 2.388 . S
Gd491 C555 2.805 . S
N492 C482 1.359 . S
N492 Gd491 2.570 . S
N492 C494 1.343 . S
C493 C481 1.422 . S
C493 C495 1.321 . S
C493 H501 0.931 . S
C494 N492 1.343 . S
C494 C495 1.390 . S
C494 H496 0.931 . S
C495 C493 1.321 . S
C495 C494 1.390 . S
C495 H497 0.930 . S
H496 C494 0.931 . S
H497 C495 0.930 . S
H498 C521 0.931 . S
H499 C487 0.929 . S
H500 C522 0.930 . S
H501 C493 0.931 . S
H502 C483 0.930 . S
H503 C512 0.929 . S
H504 C488 0.931 . S
H505 C489 0.930 . S
H506 C544 0.930 . S
H507 C485 0.929 . S
H508 C513 0.931 . S
H509 C514 0.930 . S
N510 Gd490 2.622 . S
N510 C511 1.369 . S
N510 C512 1.338 . S
C511 N510 1.369 . S
C511 C515 1.415 . S
C511 C518 1.422 . S
C512 H503 0.929 . S
C512 N510 1.338 . S
C512 C514 1.378 . S
C513 H508 0.931 . S
C513 C514 1.348 . S
C513 C515 1.413 . S
C514 H509 0.930 . S
C514 C512 1.378 . S
C514 C513 1.348 . S
C515 C511 1.415 . S
C515 C513 1.413 . S
C515 C545 1.437 . S
H516 C545 0.929 . S
N517 Gd490 2.570 . S
N517 C518 1.359 . S
N517 C521 1.343 . S
C518 C511 1.422 . S
C518 N517 1.359 . S
C518 C520 1.421 . S
C519 C520 1.422 . S
C519 C522 1.321 . S
C519 H546 0.931 . S
C520 C518 1.421 . S
C520 C519 1.422 . S
C520 C544 1.417 . S
C521 H498 0.931 . S
C521 N517 1.343 . S
C521 C522 1.390 . S
C522 H500 0.930 . S
C522 C519 1.321 . S
C522 C521 1.390 . S
O523 Gd491 2.386 . S
O523 C535 1.265 . S
O524 Gd490 2.366 . S
O524 C535 1.225 1_455 S
O525 Gd490 2.468 . S
O525 C543 1.263 . S
O526 Gd490 2.427 . S
O526 C543 1.252 . S
O527 Gd491 2.307 1_455 S
O527 C536 1.261 . S
O528 Gd490 2.388 . S
O528 C536 1.252 . S
O529 Gd490 2.386 . S
O529 C547 1.265 . S
O530 Gd491 2.353 1_455 S
O530 C547 1.242 . S
O531 Gd491 2.468 . S
O531 C555 1.263 . S
O532 Gd491 2.427 . S
O532 C555 1.252 . S
O533 Gd490 2.304 1_655 S
O533 C548 1.265 . S
O534 Gd491 2.388 . S
O534 C548 1.252 . S
C535 O523 1.265 . S
C535 O524 1.225 1_655 S
C536 O527 1.261 . S
C536 O528 1.252 . S
C537 C540 1.394 . S
C537 C542 1.370 . S
C537 C543 1.500 . S
C538 C541 1.383 . S
C538 C542 1.395 . S
C539 C540 1.396 . S
C539 C541 1.365 . S
C539 H556 0.929 . S
C540 C537 1.394 . S
C540 C539 1.396 . S
C540 H557 0.930 . S
C541 C538 1.383 . S
C541 C539 1.365 . S
C541 H558 0.931 . S
C542 C537 1.370 . S
C542 C538 1.395 . S
C542 H559 0.930 . S
C543 Gd490 2.805 . S
C543 O525 1.263 . S
C543 O526 1.252 . S
C543 C537 1.500 . S
C544 H506 0.930 . S
C544 C520 1.417 . S
C544 C545 1.329 . S
C545 C515 1.437 . S
C545 H516 0.929 . S
C545 C544 1.329 . S
H546 C519 0.931 . S
C547 O529 1.265 . S
C547 O530 1.242 . S
C548 O533 1.265 . S
C548 O534 1.252 . S
C549 C552 1.394 . S
C549 C554 1.370 . S
C549 C555 1.500 . S
C550 C553 1.383 . S
C550 C554 1.395 . S
C551 C552 1.396 . S
C551 C553 1.365 . S
C551 H560 0.929 . S
C552 C549 1.394 . S
C552 C551 1.396 . S
C552 H561 0.930 . S
C553 C550 1.383 . S
C553 C551 1.365 . S
C553 H562 0.931 . S
C554 C549 1.370 . S
C554 C550 1.395 . S
C554 H563 0.930 . S
C555 Gd491 2.805 . S
C555 O531 1.263 . S
C555 O532 1.252 . S
C555 C549 1.500 . S
H556 C539 0.929 . S
H557 C540 0.930 . S
H558 C541 0.931 . S
H559 C542 0.930 . S
H560 C551 0.929 . S
H561 C552 0.930 . S
H562 C553 0.931 . S
H563 C554 0.930 . S
C564 C566 1.422 . S
C564 C568 1.415 . S
C564 N570 1.369 . S
C565 C566 1.421 . S
C565 C567 1.417 . S
C565 C577 1.422 . S
C566 C564 1.422 . S
C566 C565 1.421 . S
C566 N576 1.359 . S
C567 C565 1.417 . S
C567 C569 1.329 . S
C567 H586 0.930 . S
C568 C564 1.415 . S
C568 C569 1.437 . S
C568 C572 1.413 . S
C569 C567 1.329 . S
C569 C568 1.437 . S
C569 H591 0.929 . S
N570 C564 1.369 . S
N570 C571 1.338 . S
N570 Gd575 2.622 . S
C571 N570 1.338 . S
C571 C573 1.378 . S
C571 H583 0.929 . S
C572 C568 1.413 . S
C572 C573 1.348 . S
C572 H588 0.931 . S
C573 C571 1.378 . S
C573 C572 1.348 . S
C573 H589 0.930 . S
Gd574 N594 2.622 . S
Gd574 N601 2.570 . S
Gd574 O608 2.353 . S
Gd574 O609 2.468 . S
Gd574 O610 2.427 . S
Gd574 O612 2.388 . S
Gd574 O613 2.386 . S
Gd574 O617 2.307 . S
Gd574 C627 2.805 . S
Gd575 N570 2.622 . S
Gd575 N576 2.570 . S
Gd575 O607 2.386 . S
Gd575 O611 2.307 . S
Gd575 O614 2.353 . S
Gd575 O615 2.468 . S
Gd575 O616 2.427 . S
Gd575 O618 2.388 . S
Gd575 C639 2.805 . S
N576 C566 1.359 . S
N576 Gd575 2.570 . S
N576 C578 1.343 . S
C577 C565 1.422 . S
C577 C579 1.321 . S
C577 H585 0.931 . S
C578 N576 1.343 . S
C578 C579 1.390 . S
C578 H580 0.931 . S
C579 C577 1.321 . S
C579 C578 1.390 . S
C579 H581 0.930 . S
H580 C578 0.931 . S
H581 C579 0.930 . S
H582 C605 0.931 . S
H583 C571 0.929 . S
H584 C606 0.930 . S
H585 C577 0.931 . S
H586 C567 0.930 . S
H587 C596 0.929 . S
H588 C572 0.931 . S
H589 C573 0.930 . S
H590 C628 0.930 . S
H591 C569 0.929 . S
H592 C597 0.931 . S
H593 C598 0.930 . S
N594 Gd574 2.622 . S
N594 C595 1.369 . S
N594 C596 1.338 . S
C595 N594 1.369 . S
C595 C599 1.415 . S
C595 C602 1.422 . S
C596 H587 0.929 . S
C596 N594 1.338 . S
C596 C598 1.378 . S
C597 H592 0.931 . S
C597 C598 1.348 . S
C597 C599 1.413 . S
C598 H593 0.930 . S
C598 C596 1.378 . S
C598 C597 1.348 . S
C599 C595 1.415 . S
C599 C597 1.413 . S
C599 C629 1.437 . S
H600 C629 0.929 . S
N601 Gd574 2.570 . S
N601 C602 1.359 . S
N601 C605 1.343 . S
C602 C595 1.422 . S
C602 N601 1.359 . S
C602 C604 1.421 . S
C603 C604 1.422 . S
C603 C606 1.321 . S
C603 H630 0.931 . S
C604 C602 1.421 . S
C604 C603 1.422 . S
C604 C628 1.417 . S
C605 H582 0.931 . S
C605 N601 1.343 . S
C605 C606 1.390 . S
C606 H584 0.930 . S
C606 C603 1.321 . S
C606 C605 1.390 . S
O607 Gd575 2.386 . S
O607 C619 1.265 . S
O608 Gd574 2.353 . S
O608 C619 1.242 . S
O609 Gd574 2.468 . S
O609 C627 1.263 . S
O610 Gd574 2.427 . S
O610 C627 1.252 . S
O611 Gd575 2.307 . S
O611 C620 1.261 . S
O612 Gd574 2.388 . S
O612 C620 1.252 . S
O613 Gd574 2.386 . S
O613 C631 1.265 . S
O614 Gd575 2.353 . S
O614 C631 1.242 . S
O615 Gd575 2.468 . S
O615 C639 1.263 . S
O616 Gd575 2.427 . S
O616 C639 1.252 . S
O617 Gd574 2.307 . S
O617 C632 1.261 . S
O618 Gd575 2.388 . S
O618 C632 1.252 . S
C619 O607 1.265 . S
C619 O608 1.242 . S
C620 O611 1.261 . S
C620 O612 1.252 . S
C621 C624 1.394 . S
C621 C626 1.370 . S
C621 C627 1.500 . S
C622 C625 1.383 . S
C622 C626 1.395 . S
C623 C624 1.396 . S
C623 C625 1.365 . S
C623 H640 0.929 . S
C624 C621 1.394 . S
C624 C623 1.396 . S
C624 H641 0.930 . S
C625 C622 1.383 . S
C625 C623 1.365 . S
C625 H642 0.931 . S
C626 C621 1.370 . S
C626 C622 1.395 . S
C626 H643 0.930 . S
C627 Gd574 2.805 . S
C627 O609 1.263 . S
C627 O610 1.252 . S
C627 C621 1.500 . S
C628 H590 0.930 . S
C628 C604 1.417 . S
C628 C629 1.329 . S
C629 C599 1.437 . S
C629 H600 0.929 . S
C629 C628 1.329 . S
H630 C603 0.931 . S
C631 O613 1.265 . S
C631 O614 1.242 . S
C632 O617 1.261 . S
C632 O618 1.252 . S
C633 C636 1.394 . S
C633 C638 1.370 . S
C633 C639 1.500 . S
C634 C637 1.383 . S
C634 C638 1.395 . S
C635 C636 1.396 . S
C635 C637 1.365 . S
C635 H644 0.929 . S
C636 C633 1.394 . S
C636 C635 1.396 . S
C636 H645 0.930 . S
C637 C634 1.383 . S
C637 C635 1.365 . S
C637 H646 0.931 . S
C638 C633 1.370 . S
C638 C634 1.395 . S
C638 H647 0.930 . S
C639 Gd575 2.805 . S
C639 O615 1.263 . S
C639 O616 1.252 . S
C639 C633 1.500 . S
H640 C623 0.929 . S
H641 C624 0.930 . S
H642 C625 0.931 . S
H643 C626 0.930 . S
H644 C635 0.929 . S
H645 C636 0.930 . S
H646 C637 0.931 . S
H647 C638 0.930 . S
C648 C650 1.422 . S
C648 C652 1.415 . S
C648 N654 1.369 . S
C649 C650 1.421 . S
C649 C651 1.417 . S
C649 C661 1.422 . S
C650 C648 1.422 . S
C650 C649 1.421 . S
C650 N660 1.359 . S
C651 C649 1.417 . S
C651 C653 1.329 . S
C651 H670 0.930 . S
C652 C648 1.415 . S
C652 C653 1.437 . S
C652 C656 1.413 . S
C653 C651 1.329 . S
C653 C652 1.437 . S
C653 H675 0.929 . S
N654 C648 1.369 . S
N654 C655 1.338 . S
N654 Gd659 2.622 . S
C655 N654 1.338 . S
C655 C657 1.378 . S
C655 H667 0.929 . S
C656 C652 1.413 . S
C656 C657 1.348 . S
C656 H672 0.931 . S
C657 C655 1.378 . S
C657 C656 1.348 . S
C657 H673 0.930 . S
Gd658 N678 2.622 . S
Gd658 N685 2.570 . S
Gd658 O692 2.353 . S
Gd658 O693 2.468 . S
Gd658 O694 2.427 . S
Gd658 O696 2.388 . S
Gd658 O697 2.386 . S
Gd658 O701 2.307 . S
Gd658 C711 2.805 . S
Gd659 N654 2.622 . S
Gd659 N660 2.570 . S
Gd659 O691 2.386 . S
Gd659 O695 2.307 1_655 S
Gd659 O698 2.353 1_655 S
Gd659 O699 2.468 . S
Gd659 O700 2.427 . S
Gd659 O702 2.388 . S
Gd659 C723 2.805 . S
N660 C650 1.359 . S
N660 Gd659 2.570 . S
N660 C662 1.343 . S
C661 C649 1.422 . S
C661 C663 1.321 . S
C661 H669 0.931 . S
C662 N660 1.343 . S
C662 C663 1.390 . S
C662 H664 0.931 . S
C663 C661 1.321 . S
C663 C662 1.390 . S
C663 H665 0.930 . S
H664 C662 0.931 . S
H665 C663 0.930 . S
H666 C689 0.931 . S
H667 C655 0.929 . S
H668 C690 0.930 . S
H669 C661 0.931 . S
H670 C651 0.930 . S
H671 C680 0.929 . S
H672 C656 0.931 . S
H673 C657 0.930 . S
H674 C712 0.930 . S
H675 C653 0.929 . S
H676 C681 0.931 . S
H677 C682 0.930 . S
N678 Gd658 2.622 . S
N678 C679 1.369 . S
N678 C680 1.338 . S
C679 N678 1.369 . S
C679 C683 1.415 . S
C679 C686 1.422 . S
C680 H671 0.929 . S
C680 N678 1.338 . S
C680 C682 1.378 . S
C681 H676 0.931 . S
C681 C682 1.348 . S
C681 C683 1.413 . S
C682 H677 0.930 . S
C682 C680 1.378 . S
C682 C681 1.348 . S
C683 C679 1.415 . S
C683 C681 1.413 . S
C683 C713 1.437 . S
H684 C713 0.929 . S
N685 Gd658 2.570 . S
N685 C686 1.359 . S
N685 C689 1.343 . S
C686 C679 1.422 . S
C686 N685 1.359 . S
C686 C688 1.421 . S
C687 C688 1.422 . S
C687 C690 1.321 . S
C687 H714 0.931 . S
C688 C686 1.421 . S
C688 C687 1.422 . S
C688 C712 1.417 . S
C689 H666 0.931 . S
C689 N685 1.343 . S
C689 C690 1.390 . S
C690 H668 0.930 . S
C690 C687 1.321 . S
C690 C689 1.390 . S
O691 Gd659 2.386 . S
O691 C703 1.265 . S
O692 Gd658 2.353 . S
O692 C703 1.242 1_455 S
O693 Gd658 2.468 . S
O693 C711 1.263 . S
O694 Gd658 2.427 . S
O694 C711 1.252 . S
O695 Gd659 2.307 1_455 S
O695 C704 1.261 . S
O696 Gd658 2.388 . S
O696 C704 1.252 . S
O697 Gd658 2.386 . S
O697 C715 1.265 . S
O698 Gd659 2.353 1_455 S
O698 C715 1.242 . S
O699 Gd659 2.468 . S
O699 C723 1.263 . S
O700 Gd659 2.427 . S
O700 C723 1.252 . S
O701 Gd658 2.307 . S
O701 C716 1.261 1_455 S
O702 Gd659 2.388 . S
O702 C716 1.252 . S
C703 O691 1.265 . S
C703 O692 1.242 1_655 S
C704 O695 1.261 . S
C704 O696 1.252 . S
C705 C708 1.394 . S
C705 C710 1.370 . S
C705 C711 1.500 . S
C706 C709 1.383 . S
C706 C710 1.395 . S
C707 C708 1.396 . S
C707 C709 1.365 . S
C707 H724 0.929 . S
C708 C705 1.394 . S
C708 C707 1.396 . S
C708 H725 0.930 . S
C709 C706 1.383 . S
C709 C707 1.365 . S
C709 H726 0.931 . S
C710 C705 1.370 . S
C710 C706 1.395 . S
C710 H727 0.930 . S
C711 Gd658 2.805 . S
C711 O693 1.263 . S
C711 O694 1.252 . S
C711 C705 1.500 . S
C712 H674 0.930 . S
C712 C688 1.417 . S
C712 C713 1.329 . S
C713 C683 1.437 . S
C713 H684 0.929 . S
C713 C712 1.329 . S
H714 C687 0.931 . S
C715 O697 1.265 . S
C715 O698 1.242 . S
C716 O701 1.261 1_655 S
C716 O702 1.252 . S
C717 C720 1.394 . S
C717 C722 1.370 . S
C717 C723 1.500 . S
C718 C721 1.383 . S
C718 C722 1.395 . S
C719 C720 1.396 . S
C719 C721 1.365 . S
C719 H728 0.929 . S
C720 C717 1.394 . S
C720 C719 1.396 . S
C720 H729 0.930 . S
C721 C718 1.383 . S
C721 C719 1.365 . S
C721 H730 0.931 . S
C722 C717 1.370 . S
C722 C718 1.395 . S
C722 H731 0.930 . S
C723 Gd659 2.805 . S
C723 O699 1.263 . S
C723 O700 1.252 . S
C723 C717 1.500 . S
H724 C707 0.929 . S
H725 C708 0.930 . S
H726 C709 0.931 . S
H727 C710 0.930 . S
H728 C719 0.929 . S
H729 C720 0.930 . S
H730 C721 0.931 . S
H731 C722 0.930 . S
C732 C734 1.422 . S
C732 C736 1.415 . S
C732 N738 1.369 . S
C733 C734 1.421 . S
C733 C735 1.417 . S
C733 C745 1.422 . S
C734 C732 1.422 . S
C734 C733 1.421 . S
C734 N744 1.359 . S
C735 C733 1.417 . S
C735 C737 1.329 . S
C735 H754 0.930 . S
C736 C732 1.415 . S
C736 C737 1.437 . S
C736 C740 1.413 . S
C737 C735 1.329 . S
C737 C736 1.437 . S
C737 H759 0.929 . S
N738 C732 1.369 . S
N738 C739 1.338 . S
N738 Gd743 2.622 . S
C739 N738 1.338 . S
C739 C741 1.378 . S
C739 H751 0.929 . S
C740 C736 1.413 . S
C740 C741 1.348 . S
C740 H756 0.931 . S
C741 C739 1.378 . S
C741 C740 1.348 . S
C741 H757 0.930 . S
Gd742 N762 2.622 . S
Gd742 N769 2.570 . S
Gd742 O776 2.353 . S
Gd742 O777 2.468 . S
Gd742 O778 2.427 . S
Gd742 O780 2.388 . S
Gd742 O781 2.386 . S
Gd742 O785 2.307 . S
Gd742 C795 2.805 . S
Gd743 N738 2.622 . S
Gd743 N744 2.570 . S
Gd743 O775 2.386 . S
Gd743 O779 2.307 . S
Gd743 O782 2.353 . S
Gd743 O783 2.468 . S
Gd743 O784 2.427 . S
Gd743 O786 2.388 . S
Gd743 C807 2.805 . S
N744 C734 1.359 . S
N744 Gd743 2.570 . S
N744 C746 1.343 . S
C745 C733 1.422 . S
C745 C747 1.321 . S
C745 H753 0.931 . S
C746 N744 1.343 . S
C746 C747 1.390 . S
C746 H748 0.931 . S
C747 C745 1.321 . S
C747 C746 1.390 . S
C747 H749 0.930 . S
H748 C746 0.931 . S
H749 C747 0.930 . S
H750 C773 0.931 . S
H751 C739 0.929 . S
H752 C774 0.930 . S
H753 C745 0.931 . S
H754 C735 0.930 . S
H755 C764 0.929 . S
H756 C740 0.931 . S
H757 C741 0.930 . S
H758 C796 0.930 . S
H759 C737 0.929 . S
H760 C765 0.931 . S
H761 C766 0.930 . S
N762 Gd742 2.622 . S
N762 C763 1.369 . S
N762 C764 1.338 . S
C763 N762 1.369 . S
C763 C767 1.415 . S
C763 C770 1.422 . S
C764 H755 0.929 . S
C764 N762 1.338 . S
C764 C766 1.378 . S
C765 H760 0.931 . S
C765 C766 1.348 . S
C765 C767 1.413 . S
C766 H761 0.930 . S
C766 C764 1.378 . S
C766 C765 1.348 . S
C767 C763 1.415 . S
C767 C765 1.413 . S
C767 C797 1.437 . S
H768 C797 0.929 . S
N769 Gd742 2.570 . S
N769 C770 1.359 . S
N769 C773 1.343 . S
C770 C763 1.422 . S
C770 N769 1.359 . S
C770 C772 1.421 . S
C771 C772 1.422 . S
C771 C774 1.321 . S
C771 H798 0.931 . S
C772 C770 1.421 . S
C772 C771 1.422 . S
C772 C796 1.417 . S
C773 H750 0.931 . S
C773 N769 1.343 . S
C773 C774 1.390 . S
C774 H752 0.930 . S
C774 C771 1.321 . S
C774 C773 1.390 . S
O775 Gd743 2.386 . S
O775 C787 1.265 . S
O776 Gd742 2.353 . S
O776 C787 1.242 . S
O777 Gd742 2.468 . S
O777 C795 1.263 . S
O778 Gd742 2.427 . S
O778 C795 1.252 . S
O779 Gd743 2.307 . S
O779 C788 1.261 . S
O780 Gd742 2.388 . S
O780 C788 1.252 . S
O781 Gd742 2.386 . S
O781 C799 1.265 . S
O782 Gd743 2.353 . S
O782 C799 1.242 . S
O783 Gd743 2.468 . S
O783 C807 1.263 . S
O784 Gd743 2.427 . S
O784 C807 1.252 . S
O785 Gd742 2.307 . S
O785 C800 1.261 . S
O786 Gd743 2.388 . S
O786 C800 1.252 . S
C787 O775 1.265 . S
C787 O776 1.242 . S
C788 O779 1.261 . S
C788 O780 1.252 . S
C789 C792 1.394 . S
C789 C794 1.370 . S
C789 C795 1.500 . S
C790 C793 1.383 . S
C790 C794 1.395 . S
C791 C792 1.396 . S
C791 C793 1.365 . S
C791 H808 0.929 . S
C792 C789 1.394 . S
C792 C791 1.396 . S
C792 H809 0.930 . S
C793 C790 1.383 . S
C793 C791 1.365 . S
C793 H810 0.931 . S
C794 C789 1.370 . S
C794 C790 1.395 . S
C794 H811 0.930 . S
C795 Gd742 2.805 . S
C795 O777 1.263 . S
C795 O778 1.252 . S
C795 C789 1.500 . S
C796 H758 0.930 . S
C796 C772 1.417 . S
C796 C797 1.329 . S
C797 C767 1.437 . S
C797 H768 0.929 . S
C797 C796 1.329 . S
H798 C771 0.931 . S
C799 O781 1.265 . S
C799 O782 1.242 . S
C800 O785 1.261 . S
C800 O786 1.252 . S
C801 C804 1.394 . S
C801 C806 1.370 . S
C801 C807 1.500 . S
C802 C805 1.383 . S
C802 C806 1.395 . S
C803 C804 1.396 . S
C803 C805 1.365 . S
C803 H812 0.929 . S
C804 C801 1.394 . S
C804 C803 1.396 . S
C804 H813 0.930 . S
C805 C802 1.383 . S
C805 C803 1.365 . S
C805 H814 0.931 . S
C806 C801 1.370 . S
C806 C802 1.395 . S
C806 H815 0.930 . S
C807 Gd743 2.805 . S
C807 O783 1.263 . S
C807 O784 1.252 . S
C807 C801 1.500 . S
H808 C791 0.929 . S
H809 C792 0.930 . S
H810 C793 0.931 . S
H811 C794 0.930 . S
H812 C803 0.929 . S
H813 C804 0.930 . S
H814 C805 0.931 . S
H815 C806 0.930 . S
C816 C817 1.369 . S
C816 C818 1.419 . S
C816 H820 0.930 1_545 S
C817 C816 1.369 . S
C817 C826 1.429 . S
C818 C816 1.419 . S
C818 C819 1.363 . S
C818 H821 0.929 . S
C819 C818 1.363 . S
C819 C825 1.428 . S
H820 C816 0.930 1_565 S
H821 C818 0.929 . S
S822 N823 1.613 . S
S822 N824 1.610 . S
N823 S822 1.613 . S
N823 C826 1.350 . S
N824 S822 1.610 . S
N824 C825 1.351 . S
C825 C819 1.428 . S
C825 N824 1.351 . S
C825 C826 1.434 . S
C826 C817 1.429 . S
C826 N823 1.350 . S
C826 C825 1.434 . S
C827 C828 1.369 . S
C827 C829 1.419 . S
C827 H831 0.930 . S
C828 C827 1.369 . S
C828 C837 1.429 . S
C829 C827 1.419 . S
C829 C830 1.363 . S
C829 H832 0.929 . S
C830 C829 1.363 . S
C830 C836 1.428 . S
H831 C827 0.930 . S
H832 C829 0.929 . S
S833 N834 1.613 . S
S833 N835 1.610 . S
N834 S833 1.613 . S
N834 C837 1.350 . S
N835 S833 1.610 . S
N835 C836 1.351 . S
C836 C830 1.428 . S
C836 N835 1.351 . S
C836 C837 1.434 . S
C837 C828 1.429 . S
C837 N834 1.350 . S
C837 C836 1.434 . S
C838 C839 1.369 . S
C838 C840 1.419 . S
C838 H842 0.930 . S
C839 C838 1.369 . S
C839 C848 1.429 . S
C840 C838 1.419 . S
C840 C841 1.363 . S
C840 H843 0.929 . S
C841 C840 1.363 . S
C841 C847 1.428 . S
H842 C838 0.930 . S
H843 C840 0.929 . S
S844 N845 1.613 . S
S844 N846 1.610 . S
N845 S844 1.613 . S
N845 C848 1.350 . S
N846 S844 1.610 . S
N846 C847 1.351 . S
C847 C841 1.428 . S
C847 N846 1.351 . S
C847 C848 1.434 . S
C848 C839 1.429 . S
C848 N845 1.350 . S
C848 C847 1.434 . S
C849 C850 1.369 . S
C849 C851 1.419 . S
C849 H853 0.930 . S
C850 C849 1.369 . S
C850 C859 1.429 . S
C851 C849 1.419 . S
C851 C852 1.363 . S
C851 H854 0.929 . S
C852 C851 1.363 . S
C852 C858 1.428 . S
H853 C849 0.930 . S
H854 C851 0.929 . S
S855 N856 1.613 . S
S855 N857 1.610 . S
N856 S855 1.613 . S
N856 C859 1.350 . S
N857 S855 1.610 . S
N857 C858 1.351 . S
C858 C852 1.428 . S
C858 N857 1.351 . S
C858 C859 1.434 . S
C859 C850 1.429 . S
C859 N856 1.350 . S
C859 C858 1.434 . S
C860 C861 1.369 . S
C860 C862 1.419 . S
C860 H864 0.930 . S
C861 C860 1.369 . S
C861 C870 1.429 . S
C862 C860 1.419 . S
C862 C863 1.363 . S
C862 H865 0.929 . S
C863 C862 1.363 . S
C863 C869 1.428 . S
H864 C860 0.930 . S
H865 C862 0.929 . S
S866 N867 1.613 . S
S866 N868 1.610 . S
N867 S866 1.613 . S
N867 C870 1.350 . S
N868 S866 1.610 . S
N868 C869 1.351 . S
C869 C863 1.428 . S
C869 N868 1.351 . S
C869 C870 1.434 . S
C870 C861 1.429 . S
C870 N867 1.350 . S
C870 C869 1.434 . S
C871 C872 1.369 . S
C871 C873 1.419 . S
C871 H875 0.930 . S
C872 C871 1.369 . S
C872 C881 1.429 . S
C873 C871 1.419 . S
C873 C874 1.363 . S
C873 H876 0.929 . S
C874 C873 1.363 . S
C874 C880 1.428 . S
H875 C871 0.930 . S
H876 C873 0.929 . S
S877 N878 1.613 . S
S877 N879 1.610 . S
N878 S877 1.613 . S
N878 C881 1.350 . S
N879 S877 1.610 . S
N879 C880 1.351 . S
C880 C874 1.428 . S
C880 N879 1.351 . S
C880 C881 1.434 . S
C881 C872 1.429 . S
C881 N878 1.350 . S
C881 C880 1.434 . S
C882 C883 1.369 . S
C882 C884 1.419 . S
C882 H886 0.930 . S
C883 C882 1.369 . S
C883 C892 1.429 . S
C884 C882 1.419 . S
C884 C885 1.363 . S
C884 H887 0.929 . S
C885 C884 1.363 . S
C885 C891 1.428 . S
H886 C882 0.930 . S
H887 C884 0.929 . S
S888 N889 1.613 . S
S888 N890 1.610 . S
N889 S888 1.613 . S
N889 C892 1.350 . S
N890 S888 1.610 . S
N890 C891 1.351 . S
C891 C885 1.428 . S
C891 N890 1.351 . S
C891 C892 1.434 . S
C892 C883 1.429 . S
C892 N889 1.350 . S
C892 C891 1.434 . S
C893 C894 1.369 . S
C893 C895 1.419 . S
C893 H897 0.930 . S
C894 C893 1.369 . S
C894 C903 1.429 . S
C895 C893 1.419 . S
C895 C896 1.363 . S
C895 H898 0.929 . S
C896 C895 1.363 . S
C896 C902 1.428 . S
H897 C893 0.930 . S
H898 C895 0.929 . S
S899 N900 1.613 1_655 S
S899 N901 1.610 . S
N900 S899 1.613 1_455 S
N900 C903 1.350 . S
N901 S899 1.610 . S
N901 C902 1.351 1_655 S
C902 C896 1.428 . S
C902 N901 1.351 1_455 S
C902 C903 1.434 . S
C903 C894 1.429 . S
C903 N900 1.350 . S
C903 C902 1.434 . S
C904 C905 1.369 . S
C904 C906 1.419 . S
C904 H908 0.930 . S
C905 C904 1.369 . S
C905 C914 1.429 . S
C906 C904 1.419 . S
C906 C907 1.363 . S
C906 H909 0.929 . S
C907 C906 1.363 . S
C907 C913 1.428 . S
H908 C904 0.930 . S
H909 C906 0.929 . S
S910 N911 1.613 . S
S910 N912 1.610 . S
N911 S910 1.613 . S
N911 C914 1.350 . S
N912 S910 1.610 . S
N912 C913 1.351 . S
C913 C907 1.428 . S
C913 N912 1.351 . S
C913 C914 1.434 . S
C914 C905 1.429 . S
C914 N911 1.350 . S
C914 C913 1.434 . S
C915 C916 1.369 . S
C915 C917 1.419 . S
C915 H919 0.930 . S
C916 C915 1.369 . S
C916 C925 1.429 . S
C917 C915 1.419 . S
C917 C918 1.363 . S
C917 H920 0.929 . S
C918 C917 1.363 . S
C918 C924 1.428 . S
H919 C915 0.930 . S
H920 C917 0.929 . S
S921 N922 1.613 . S
S921 N923 1.610 . S
N922 S921 1.613 . S
N922 C925 1.350 . S
N923 S921 1.610 . S
N923 C924 1.351 . S
C924 C918 1.428 . S
C924 N923 1.351 . S
C924 C925 1.434 . S
C925 C916 1.429 . S
C925 N922 1.350 . S
C925 C924 1.434 . S
C926 C927 1.369 . S
C926 C928 1.419 . S
C926 H930 0.930 . S
C927 C926 1.369 . S
C927 C936 1.429 . S
C928 C926 1.419 . S
C928 C929 1.363 . S
C928 H931 0.929 . S
C929 C928 1.363 . S
C929 C935 1.428 . S
H930 C926 0.930 . S
H931 C928 0.929 . S
S932 N933 1.613 . S
S932 N934 1.610 . S
N933 S932 1.613 . S
N933 C936 1.350 . S
N934 S932 1.610 . S
N934 C935 1.351 . S
C935 C929 1.428 . S
C935 N934 1.351 . S
C935 C936 1.434 . S
C936 C927 1.429 . S
C936 N933 1.350 . S
C936 C935 1.434 . S
C937 C938 1.369 . S
C937 C939 1.419 . S
C937 H941 0.930 . S
C938 C937 1.369 . S
C938 C947 1.429 . S
C939 C937 1.419 . S
C939 C940 1.363 . S
C939 H942 0.929 . S
C940 C939 1.363 . S
C940 C946 1.428 . S
H941 C937 0.930 . S
H942 C939 0.929 . S
S943 N944 1.613 . S
S943 N945 1.610 . S
N944 S943 1.613 . S
N944 C947 1.350 . S
N945 S943 1.610 . S
N945 C946 1.351 . S
C946 C940 1.428 . S
C946 N945 1.351 . S
C946 C947 1.434 . S
C947 C938 1.429 . S
C947 N944 1.350 . S
C947 C946 1.434 . S
C948 C949 1.369 . S
C948 C950 1.419 . S
C948 H952 0.930 . S
C949 C948 1.369 . S
C949 C958 1.429 . S
C950 C948 1.419 . S
C950 C951 1.363 . S
C950 H953 0.929 . S
C951 C950 1.363 . S
C951 C957 1.428 . S
H952 C948 0.930 . S
H953 C950 0.929 . S
S954 N955 1.613 . S
S954 N956 1.610 . S
N955 S954 1.613 . S
N955 C958 1.350 . S
N956 S954 1.610 . S
N956 C957 1.351 . S
C957 C951 1.428 . S
C957 N956 1.351 . S
C957 C958 1.434 . S
C958 C949 1.429 . S
C958 N955 1.350 . S
C958 C957 1.434 . S
C959 C960 1.369 . S
C959 C961 1.419 . S
C959 H963 0.930 . S
C960 C959 1.369 . S
C960 C969 1.429 . S
C961 C959 1.419 . S
C961 C962 1.363 . S
C961 H964 0.929 . S
C962 C961 1.363 . S
C962 C968 1.428 . S
H963 C959 0.930 . S
H964 C961 0.929 . S
S965 N966 1.613 . S
S965 N967 1.610 . S
N966 S965 1.613 . S
N966 C969 1.350 . S
N967 S965 1.610 . S
N967 C968 1.351 . S
C968 C962 1.428 . S
C968 N967 1.351 . S
C968 C969 1.434 . S
C969 C960 1.429 . S
C969 N966 1.350 . S
C969 C968 1.434 . S
C970 C971 1.369 . S
C970 C972 1.419 . S
C970 H974 0.930 . S
C971 C970 1.369 . S
C971 C980 1.429 . S
C972 C970 1.419 . S
C972 C973 1.363 . S
C972 H975 0.929 . S
C973 C972 1.363 . S
C973 C979 1.428 . S
H974 C970 0.930 . S
H975 C972 0.929 . S
S976 N977 1.613 . S
S976 N978 1.610 . S
N977 S976 1.613 . S
N977 C980 1.350 . S
N978 S976 1.610 . S
N978 C979 1.351 . S
C979 C973 1.428 . S
C979 N978 1.351 . S
C979 C980 1.434 . S
C980 C971 1.429 . S
C980 N977 1.350 . S
C980 C979 1.434 . S
C981 C982 1.369 . S
C981 C983 1.419 . S
C981 H985 0.930 . S
C982 C981 1.369 . S
C982 C991 1.429 . S
C983 C981 1.419 . S
C983 C984 1.363 . S
C983 H986 0.929 . S
C984 C983 1.363 . S
C984 C990 1.428 . S
H985 C981 0.930 . S
H986 C983 0.929 . S
S987 N988 1.613 . S
S987 N989 1.610 . S
N988 S987 1.613 . S
N988 C991 1.350 . S
N989 S987 1.610 . S
N989 C990 1.351 . S
C990 C984 1.428 . S
C990 N989 1.351 . S
C990 C991 1.434 . S
C991 C982 1.429 . S
C991 N988 1.350 . S
C991 C990 1.434 . S
C992 C993 1.369 . S
C992 C994 1.419 . S
C992 H996 0.930 . S
C993 C992 1.369 . S
C993 C1002 1.429 . S
C994 C992 1.419 . S
C994 C995 1.363 . S
C994 H997 0.929 . S
C995 C994 1.363 . S
C995 C1001 1.428 . S
H996 C992 0.930 . S
H997 C994 0.929 . S
S998 N999 1.613 1_655 S
S998 N1000 1.610 . S
N999 S998 1.613 1_455 S
N999 C1002 1.350 . S
N1000 S998 1.610 . S
N1000 C1001 1.351 1_655 S
C1001 C995 1.428 . S
C1001 N1000 1.351 1_455 S
C1001 C1002 1.434 . S
C1002 C993 1.429 . S
C1002 N999 1.350 . S
C1002 C1001 1.434 . S
C1003 C1004 1.369 . S
C1003 C1005 1.419 . S
C1003 H1007 0.930 . S
C1004 C1003 1.369 . S
C1004 C1013 1.429 . S
C1005 C1003 1.419 . S
C1005 C1006 1.363 . S
C1005 H1008 0.929 . S
C1006 C1005 1.363 . S
C1006 C1012 1.428 . S
H1007 C1003 0.930 . S
H1008 C1005 0.929 . S
S1009 N1010 1.613 . S
S1009 N1011 1.610 . S
N1010 S1009 1.613 . S
N1010 C1013 1.350 . S
N1011 S1009 1.610 . S
N1011 C1012 1.351 . S
C1012 C1006 1.428 . S
C1012 N1011 1.351 . S
C1012 C1013 1.434 . S
C1013 C1004 1.429 . S
C1013 N1010 1.350 . S
C1013 C1012 1.434 . S
C1014 C1015 1.369 . S
C1014 C1016 1.419 . S
C1014 H1018 0.930 . S
C1015 C1014 1.369 . S
C1015 C1024 1.429 . S
C1016 C1014 1.419 . S
C1016 C1017 1.363 . S
C1016 H1019 0.929 . S
C1017 C1016 1.363 . S
C1017 C1023 1.428 . S
H1018 C1014 0.930 . S
H1019 C1016 0.929 . S
S1020 N1021 1.613 . S
S1020 N1022 1.610 . S
N1021 S1020 1.613 . S
N1021 C1024 1.350 . S
N1022 S1020 1.610 . S
N1022 C1023 1.351 . S
C1023 C1017 1.428 . S
C1023 N1022 1.351 . S
C1023 C1024 1.434 . S
C1024 C1015 1.429 . S
C1024 N1021 1.350 . S
C1024 C1023 1.434 . S
C1025 C1026 1.369 . S
C1025 C1027 1.419 . S
C1025 H1029 0.930 . S
C1026 C1025 1.369 . S
C1026 C1035 1.429 . S
C1027 C1025 1.419 . S
C1027 C1028 1.363 . S
C1027 H1030 0.929 . S
C1028 C1027 1.363 . S
C1028 C1034 1.428 . S
H1029 C1025 0.930 . S
H1030 C1027 0.929 . S
S1031 N1032 1.613 1_455 S
S1031 N1033 1.610 . S
N1032 S1031 1.613 1_655 S
N1032 C1035 1.350 . S
N1033 S1031 1.610 . S
N1033 C1034 1.351 1_455 S
C1034 C1028 1.428 . S
C1034 N1033 1.351 1_655 S
C1034 C1035 1.434 . S
C1035 C1026 1.429 . S
C1035 N1032 1.350 . S
C1035 C1034 1.434 . S
C1036 C1037 1.369 . S
C1036 C1038 1.419 . S
C1036 H1040 0.930 . S
C1037 C1036 1.369 . S
C1037 C1046 1.429 . S
C1038 C1036 1.419 . S
C1038 C1039 1.363 . S
C1038 H1041 0.929 . S
C1039 C1038 1.363 . S
C1039 C1045 1.428 . S
H1040 C1036 0.930 . S
H1041 C1038 0.929 . S
S1042 N1043 1.613 . S
S1042 N1044 1.610 . S
N1043 S1042 1.613 . S
N1043 C1046 1.350 . S
N1044 S1042 1.610 . S
N1044 C1045 1.351 . S
C1045 C1039 1.428 . S
C1045 N1044 1.351 . S
C1045 C1046 1.434 . S
C1046 C1037 1.429 . S
C1046 N1043 1.350 . S
C1046 C1045 1.434 . S
C1047 C1048 1.369 . S
C1047 C1049 1.419 . S
C1047 H1051 0.930 . S
C1048 C1047 1.369 . S
C1048 C1057 1.429 . S
C1049 C1047 1.419 . S
C1049 C1050 1.363 . S
C1049 H1052 0.929 . S
C1050 C1049 1.363 . S
C1050 C1056 1.428 . S
H1051 C1047 0.930 . S
H1052 C1049 0.929 . S
S1053 N1054 1.613 . S
S1053 N1055 1.610 . S
N1054 S1053 1.613 . S
N1054 C1057 1.350 . S
N1055 S1053 1.610 . S
N1055 C1056 1.351 . S
C1056 C1050 1.428 . S
C1056 N1055 1.351 . S
C1056 C1057 1.434 . S
C1057 C1048 1.429 . S
C1057 N1054 1.350 . S
C1057 C1056 1.434 . S
C1058 C1059 1.369 . S
C1058 C1060 1.419 . S
C1058 H1062 0.930 . S
C1059 C1058 1.369 . S
C1059 C1068 1.429 . S
C1060 C1058 1.419 . S
C1060 C1061 1.363 . S
C1060 H1063 0.929 . S
C1061 C1060 1.363 . S
C1061 C1067 1.428 . S
H1062 C1058 0.930 . S
H1063 C1060 0.929 . S
S1064 N1065 1.613 . S
S1064 N1066 1.610 . S
N1065 S1064 1.613 . S
N1065 C1068 1.350 . S
N1066 S1064 1.610 . S
N1066 C1067 1.351 . S
C1067 C1061 1.428 . S
C1067 N1066 1.351 . S
C1067 C1068 1.434 . S
C1068 C1059 1.429 . S
C1068 N1065 1.350 . S
C1068 C1067 1.434 . S
C1069 C1070 1.369 . S
C1069 C1071 1.419 . S
C1069 H1073 0.930 . S
C1070 C1069 1.369 . S
C1070 C1079 1.429 . S
C1071 C1069 1.419 . S
C1071 C1072 1.363 . S
C1071 H1074 0.929 . S
C1072 C1071 1.363 . S
C1072 C1078 1.428 . S
H1073 C1069 0.930 . S
H1074 C1071 0.929 . S
S1075 N1076 1.613 . S
S1075 N1077 1.610 . S
N1076 S1075 1.613 . S
N1076 C1079 1.350 . S
N1077 S1075 1.610 . S
N1077 C1078 1.351 . S
C1078 C1072 1.428 . S
C1078 N1077 1.351 . S
C1078 C1079 1.434 . S
C1079 C1070 1.429 . S
C1079 N1076 1.350 . S
C1079 C1078 1.434 . S
C817 C361 1.447 1_545 S
C819 C536 1.467 . S
C830 C620 1.467 . S
C828 C451 1.464 . S
C841 C619 1.474 . S
C839 C241 1.446 . S
C850 C331 1.455 1_545 S
C852 C535 1.473 . S
C863 C716 1.463 . S
C861 C140 1.437 1_565 S
C874 C800 1.465 . S
C872 C211 1.438 . S
C883 C20 1.432 . S
C885 C799 1.472 . S
C894 C91 1.429 1_565 S
C896 C715 1.474 . S
C907 C538 1.323 . S
C905 C80 1.472 . S
C918 C622 1.323 . S
C916 C1 1.476 . S
C929 C634 1.404 . S
C927 C200 1.504 . S
C940 C550 1.403 . S
C938 C121 1.500 . S
C951 C718 1.312 . S
C949 C320 1.506 . S
C960 C260 1.484 . S
C962 C802 1.318 . S
C973 C790 1.401 . S
C971 C440 1.527 . S
C982 C380 1.508 . S
C984 C706 1.404 . S
C995 C547 1.579 . S
C993 C31 1.556 . S
C1006 C631 1.582 . S
C1004 C61 1.552 . S
C1015 C151 1.547 . S
C1017 C632 1.564 . S
C1028 C548 1.564 . S
C1026 C181 1.546 . S
C1039 C703 1.579 . S
C1037 C271 1.507 . S
C1048 C301 1.588 . S
C1050 C787 1.582 . S
C1059 C391 1.492 . S
C1061 C788 1.564 . S
C1070 C421 1.572 . S
C1072 C704 1.565 . S
