# Generated by pormake.
# Topology apo, (3,6)-cn, num edge types: 1
# Building blocks:
#     Node 0, Type 0, BuildingBlock: VETTIZ_charged_linker_0, # of connection points: 3
#     Node 1, Type 0, BuildingBlock: VETTIZ_charged_linker_0, # of connection points: 3
#     Node 2, Type 0, BuildingBlock: VETTIZ_charged_linker_0, # of connection points: 3
#     Node 3, Type 0, BuildingBlock: VETTIZ_charged_linker_0, # of connection points: 3
#     Node 4, Type 0, BuildingBlock: VETTIZ_charged_linker_0, # of connection points: 3
#     Node 5, Type 0, BuildingBlock: VETTIZ_charged_linker_0, # of connection points: 3
#     Node 6, Type 0, BuildingBlock: VETTIZ_charged_linker_0, # of connection points: 3
#     Node 7, Type 0, BuildingBlock: VETTIZ_charged_linker_0, # of connection points: 3
#     Node 8, Type 1, BuildingBlock: KUMBOL_clean_sbu_1, # of connection points: 6
#     Node 9, Type 1, BuildingBlock: KUMBOL_clean_sbu_1, # of connection points: 6
#     Node 10, Type 1, BuildingBlock: KUMBOL_clean_sbu_1, # of connection points: 6
#     Node 11, Type 1, BuildingBlock: KUMBOL_clean_sbu_1, # of connection points: 6
#     Edge 12, Type (0, 1), BuildingBlock: XIVTED_clean_linker_0, # of connection points: 2
#     Edge 13, Type (0, 1), BuildingBlock: XIVTED_clean_linker_0, # of connection points: 2
#     Edge 14, Type (0, 1), BuildingBlock: XIVTED_clean_linker_0, # of connection points: 2
#     Edge 15, Type (0, 1), BuildingBlock: XIVTED_clean_linker_0, # of connection points: 2
#     Edge 16, Type (0, 1), BuildingBlock: XIVTED_clean_linker_0, # of connection points: 2
#     Edge 17, Type (0, 1), BuildingBlock: XIVTED_clean_linker_0, # of connection points: 2
#     Edge 18, Type (0, 1), BuildingBlock: XIVTED_clean_linker_0, # of connection points: 2
#     Edge 19, Type (0, 1), BuildingBlock: XIVTED_clean_linker_0, # of connection points: 2
#     Edge 20, Type (0, 1), BuildingBlock: XIVTED_clean_linker_0, # of connection points: 2
#     Edge 21, Type (0, 1), BuildingBlock: XIVTED_clean_linker_0, # of connection points: 2
#     Edge 22, Type (0, 1), BuildingBlock: XIVTED_clean_linker_0, # of connection points: 2
#     Edge 23, Type (0, 1), BuildingBlock: XIVTED_clean_linker_0, # of connection points: 2
#     Edge 24, Type (0, 1), BuildingBlock: XIVTED_clean_linker_0, # of connection points: 2
#     Edge 25, Type (0, 1), BuildingBlock: XIVTED_clean_linker_0, # of connection points: 2
#     Edge 26, Type (0, 1), BuildingBlock: XIVTED_clean_linker_0, # of connection points: 2
#     Edge 27, Type (0, 1), BuildingBlock: XIVTED_clean_linker_0, # of connection points: 2
#     Edge 28, Type (0, 1), BuildingBlock: XIVTED_clean_linker_0, # of connection points: 2
#     Edge 29, Type (0, 1), BuildingBlock: XIVTED_clean_linker_0, # of connection points: 2
#     Edge 30, Type (0, 1), BuildingBlock: XIVTED_clean_linker_0, # of connection points: 2
#     Edge 31, Type (0, 1), BuildingBlock: XIVTED_clean_linker_0, # of connection points: 2
#     Edge 32, Type (0, 1), BuildingBlock: XIVTED_clean_linker_0, # of connection points: 2
#     Edge 33, Type (0, 1), BuildingBlock: XIVTED_clean_linker_0, # of connection points: 2
#     Edge 34, Type (0, 1), BuildingBlock: XIVTED_clean_linker_0, # of connection points: 2
#     Edge 35, Type (0, 1), BuildingBlock: XIVTED_clean_linker_0, # of connection points: 2
# Relax obj value: 0.010
# Max RMSD: 0.096
# Mean RMSD: 0.076
data_MOF--net-apo--node1-KUMBOL_clean_sbu_1--node2-VETTIZ_charged_linker_0--edge1-XIVTED_clean_linker_0
_symmetry_space_group_name_H-M    P1
_symmetry_Int_Tables_number       1
_symmetry_cell_setting            triclinic
loop_
_symmetry_equiv_pos_as_xyz
'x, y, z'
_cell_length_a     29.159016
_cell_length_b     52.193044
_cell_length_c     63.859948
_cell_angle_alpha  89.924117
_cell_angle_beta   90.008628
_cell_angle_gamma 90.28906
loop_
_atom_site_label
_atom_site_type_symbol
_atom_site_fract_x
_atom_site_fract_y
_atom_site_fract_z
_atom_type_partial_charge
C0 C 0.27575 0.36914 0.48942 0.0
C1 C 0.30134 0.3867 0.5015 0.0
C2 C 0.32173 0.40792 0.49133 0.0
C3 C 0.29196 0.39356 0.45783 0.0
C4 C 0.27181 0.37282 0.46774 0.0
C5 C 0.24717 0.35545 0.4526 0.0
H6 H 0.1987 0.32398 0.35201 0.0
C7 C 0.28253 0.39139 0.43513 0.0
C8 C 0.2565 0.36897 0.43196 0.0
H9 H 0.15477 0.28446 0.40802 0.0
H10 H 0.1919 0.31679 0.4295 0.0
H11 H 0.17225 0.37885 0.3685 0.0
H12 H 0.29992 0.33824 0.36697 0.0
H13 H 0.31216 0.37007 0.35988 0.0
H14 H 0.27341 0.35135 0.34399 0.0
H15 H 0.20562 0.37617 0.34502 0.0
H16 H 0.21448 0.40203 0.36336 0.0
C17 C 0.19546 0.35533 0.45817 0.0
C18 C 0.27004 0.32876 0.45356 0.0
C19 C 0.34269 0.45924 0.38439 0.0
C20 C 0.34158 0.46115 0.3624 0.0
C21 C 0.31983 0.4417 0.35075 0.0
C22 C 0.29942 0.42068 0.36073 0.0
C23 C 0.30092 0.41889 0.38267 0.0
C24 C 0.32247 0.43787 0.39416 0.0
C25 C 0.32209 0.43205 0.41729 0.0
C26 C 0.29556 0.40688 0.41775 0.0
C27 C 0.2833 0.39937 0.39742 0.0
C28 C 0.29583 0.45372 0.42856 0.0
C29 C 0.3724 0.42875 0.42466 0.0
C30 C 0.19737 0.32225 0.36892 0.0
C31 C 0.17446 0.30158 0.37841 0.0
C32 C 0.17239 0.30026 0.40043 0.0
C33 C 0.19411 0.31896 0.41282 0.0
C34 C 0.21774 0.33931 0.40306 0.0
C35 C 0.21822 0.3409 0.38145 0.0
C36 C 0.24262 0.36446 0.37369 0.0
C37 C 0.25774 0.37652 0.39416 0.0
C38 C 0.24368 0.3616 0.41133 0.0
C39 C 0.20731 0.3813 0.36188 0.0
C40 C 0.28409 0.35581 0.36029 0.0
H41 H 0.33356 0.42794 0.4629 0.0
H42 H 0.25892 0.35284 0.49663 0.0
H43 H 0.30803 0.33073 0.4542 0.0
H44 H 0.26296 0.31689 0.43966 0.0
H45 H 0.25888 0.31805 0.46773 0.0
H46 H 0.1847 0.37421 0.46452 0.0
H47 H 0.1875 0.34057 0.47019 0.0
H48 H 0.17329 0.35222 0.44436 0.0
H49 H 0.35976 0.47374 0.39372 0.0
H50 H 0.31827 0.44287 0.33382 0.0
H51 H 0.28342 0.40658 0.35091 0.0
H52 H 0.26448 0.45896 0.41962 0.0
H53 H 0.31749 0.4712 0.43 0.0
H54 H 0.28361 0.44814 0.44428 0.0
H55 H 0.39442 0.42133 0.41182 0.0
H56 H 0.37588 0.41448 0.43735 0.0
H57 H 0.38736 0.44728 0.42989 0.0
H58 H 0.34219 0.4216 0.50005 0.0
C59 C 0.31705 0.41148 0.46965 0.0
C60 C 0.29037 0.18457 0.86952 0.0
C61 C 0.30535 0.20761 0.8786 0.0
C62 C 0.29587 0.21222 0.89992 0.0
C63 C 0.25827 0.17072 0.9028 0.0
C64 C 0.26678 0.16661 0.88178 0.0
C65 C 0.24749 0.14157 0.8742 0.0
H66 H 0.13276 0.03135 0.89384 0.0
C67 C 0.23345 0.14797 0.911 0.0
C68 C 0.22683 0.13097 0.89421 0.0
H69 H 0.18678 0.05888 0.83484 0.0
H70 H 0.21577 0.0968 0.85171 0.0
H71 H 0.21868 0.0454 0.92032 0.0
H72 H 0.09386 0.08723 0.91038 0.0
H73 H 0.10691 0.0878 0.93733 0.0
H74 H 0.09688 0.05755 0.92458 0.0
H75 H 0.16762 0.03828 0.9349 0.0
H76 H 0.20841 0.06216 0.94362 0.0
C77 C 0.28785 0.12495 0.86628 0.0
C78 C 0.21034 0.14739 0.85746 0.0
C79 C 0.19515 0.14077 0.98864 0.0
C80 C 0.17622 0.12086 1.00079 0.0
C81 C 0.1613 0.09826 0.99081 0.0
C82 C 0.16526 0.09542 0.96908 0.0
C83 C 0.18489 0.11527 0.95714 0.0
C84 C 0.19965 0.13745 0.96693 0.0
C85 C 0.22178 0.15592 0.95179 0.0
C86 C 0.21787 0.14114 0.93137 0.0
C87 C 0.19581 0.11745 0.93461 0.0
C88 C 0.27236 0.15986 0.95851 0.0
C89 C 0.19307 0.18078 0.9514 0.0
C90 C 0.15049 0.04571 0.88457 0.0
C91 C 0.15751 0.04211 0.86297 0.0
C92 C 0.1814 0.06104 0.85153 0.0
C93 C 0.19798 0.08316 0.86135 0.0
C94 C 0.19082 0.0865 0.88292 0.0
C95 C 0.16757 0.06794 0.8942 0.0
C96 C 0.16426 0.0746 0.91709 0.0
C97 C 0.18831 0.10052 0.91752 0.0
C98 C 0.20376 0.1073 0.89746 0.0
C99 C 0.19074 0.05407 0.92979 0.0
C100 C 0.11286 0.07681 0.92285 0.0
H101 H 0.26663 0.19836 0.92825 0.0
H102 H 0.29624 0.18073 0.85307 0.0
H103 H 0.19316 0.16598 0.86064 0.0
H104 H 0.18212 0.13318 0.8574 0.0
H105 H 0.22553 0.14856 0.84154 0.0
H106 H 0.31876 0.12777 0.87626 0.0
H107 H 0.29738 0.13012 0.84997 0.0
H108 H 0.28061 0.10419 0.86706 0.0
H109 H 0.2075 0.1582 0.99597 0.0
H110 H 0.14648 0.08274 0.99989 0.0
H111 H 0.15324 0.07776 0.96245 0.0
H112 H 0.28755 0.14146 0.96386 0.0
H113 H 0.27499 0.17372 0.97165 0.0
H114 H 0.29463 0.16644 0.94561 0.0
H115 H 0.15585 0.17636 0.95293 0.0
H116 H 0.19621 0.19136 0.93648 0.0
H117 H 0.20274 0.19368 0.96452 0.0
H118 H 0.30707 0.22988 0.90724 0.0
C119 C 0.27256 0.19386 0.91209 0.0
C120 C 0.80678 0.14644 0.52712 0.0
C121 C 0.83268 0.12936 0.51488 0.0
C122 C 0.852 0.1077 0.5247 0.0
C123 C 0.82051 0.12074 0.55826 0.0
C124 C 0.80132 0.14186 0.54861 0.0
C125 C 0.77528 0.15842 0.56373 0.0
H126 H 0.71154 0.18309 0.66365 0.0
C127 C 0.80895 0.12186 0.58086 0.0
C128 C 0.78255 0.14403 0.58412 0.0
H129 H 0.67503 0.2257 0.60794 0.0
H130 H 0.71836 0.19617 0.58673 0.0
H131 H 0.68889 0.13014 0.64459 0.0
H132 H 0.81521 0.17161 0.65164 0.0
H133 H 0.82737 0.13952 0.6577 0.0
H134 H 0.78566 0.15662 0.67308 0.0
H135 H 0.71971 0.13062 0.66887 0.0
H136 H 0.73034 0.10662 0.64914 0.0
C137 C 0.72417 0.15855 0.55711 0.0
C138 C 0.79822 0.18524 0.56408 0.0
C139 C 0.86159 0.05165 0.63129 0.0
C140 C 0.85508 0.04812 0.65301 0.0
C141 C 0.83184 0.06713 0.66444 0.0
C142 C 0.81451 0.08889 0.65454 0.0
C143 C 0.82025 0.09193 0.63286 0.0
C144 C 0.84373 0.07365 0.62155 0.0
C145 C 0.84642 0.08053 0.5986 0.0
C146 C 0.81988 0.10561 0.59808 0.0
C147 C 0.80484 0.11206 0.61826 0.0
C148 C 0.82197 0.05921 0.58593 0.0
C149 C 0.89753 0.08446 0.59282 0.0
C150 C 0.71218 0.18607 0.64687 0.0
C151 C 0.68953 0.20696 0.63762 0.0
C152 C 0.69255 0.21008 0.61567 0.0
C153 C 0.7175 0.19276 0.60331 0.0
C154 C 0.73959 0.17191 0.6129 0.0
C155 C 0.73627 0.16882 0.63432 0.0
C156 C 0.75995 0.14511 0.64191 0.0
C157 C 0.77864 0.13452 0.62155 0.0
C158 C 0.76711 0.15034 0.60459 0.0
C159 C 0.7232 0.12714 0.6518 0.0
C160 C 0.79895 0.15341 0.65701 0.0
H161 H 0.8618 0.08657 0.55278 0.0
H162 H 0.79066 0.16302 0.52012 0.0
H163 H 0.83624 0.1835 0.56384 0.0
H164 H 0.79037 0.19622 0.57837 0.0
H165 H 0.78792 0.19671 0.55021 0.0
H166 H 0.71389 0.13978 0.55028 0.0
H167 H 0.71757 0.17355 0.54513 0.0
H168 H 0.70064 0.16134 0.57046 0.0
H169 H 0.87933 0.03741 0.62205 0.0
H170 H 0.82725 0.06526 0.68121 0.0
H171 H 0.79715 0.10248 0.66425 0.0
H172 H 0.79011 0.05286 0.59404 0.0
H173 H 0.8444 0.04222 0.58411 0.0
H174 H 0.81077 0.06564 0.57029 0.0
H175 H 0.91661 0.09358 0.60596 0.0
H176 H 0.90249 0.09754 0.57941 0.0
H177 H 0.9143 0.06588 0.58935 0.0
H178 H 0.87244 0.09431 0.51579 0.0
C179 C 0.84607 0.10331 0.54626 0.0
C180 C 0.79972 0.31877 0.14379 0.0
C181 C 0.81591 0.29558 0.13553 0.0
C182 C 0.81 0.29081 0.11392 0.0
C183 C 0.7707 0.33149 0.10968 0.0
C184 C 0.77717 0.33616 0.13076 0.0
C185 C 0.75649 0.36101 0.13764 0.0
H186 H 0.6272 0.46474 0.11709 0.0
C187 C 0.74448 0.35331 0.10086 0.0
C188 C 0.73597 0.3705 0.11727 0.0
H189 H 0.69264 0.4427 0.1752 0.0
H190 H 0.7259 0.40629 0.1585 0.0
H191 H 0.71818 0.45253 0.08834 0.0
H192 H 0.59672 0.40825 0.10226 0.0
H193 H 0.60873 0.40512 0.07539 0.0
H194 H 0.59557 0.43626 0.08591 0.0
H195 H 0.66328 0.46015 0.07732 0.0
H196 H 0.70081 0.43714 0.0652 0.0
C197 C 0.79582 0.37874 0.14546 0.0
C198 C 0.71911 0.35484 0.15424 0.0
C199 C 0.70453 0.3561 0.0233 0.0
C200 C 0.68001 0.3736 0.01083 0.0
C201 C 0.65981 0.39503 0.02052 0.0
C202 C 0.66471 0.39923 0.04212 0.0
C203 C 0.68994 0.38179 0.05428 0.0
C204 C 0.70895 0.3605 0.04486 0.0
C205 C 0.73372 0.34369 0.06031 0.0
C206 C 0.72771 0.35879 0.08042 0.0
C207 C 0.70196 0.38112 0.07681 0.0
C208 C 0.78468 0.3421 0.0537 0.0
C209 C 0.70871 0.31746 0.0612 0.0
C210 C 0.64892 0.45211 0.12614 0.0
C211 C 0.65626 0.45636 0.1477 0.0
C212 C 0.68511 0.43952 0.1588 0.0
C213 C 0.70478 0.41838 0.149 0.0
C214 C 0.69591 0.41383 0.12774 0.0
C215 C 0.66917 0.43075 0.1165 0.0
C216 C 0.66517 0.42299 0.09381 0.0
C217 C 0.69294 0.39834 0.09357 0.0
C218 C 0.71045 0.39311 0.11356 0.0
C219 C 0.68766 0.44427 0.0803 0.0
C220 C 0.61392 0.41801 0.08887 0.0
H221 H 0.78379 0.30383 0.08471 0.0
H222 H 0.8044 0.32342 0.16018 0.0
H223 H 0.70101 0.33661 0.15044 0.0
H224 H 0.69167 0.3693 0.15491 0.0
H225 H 0.73439 0.3527 0.17007 0.0
H226 H 0.82863 0.37451 0.13729 0.0
H227 H 0.80183 0.37626 0.16251 0.0
H228 H 0.78948 0.39921 0.14209 0.0
H229 H 0.71979 0.3392 0.01643 0.0
H230 H 0.641 0.40888 0.0113 0.0
H231 H 0.64884 0.416 0.0485 0.0
H232 H 0.7975 0.3612 0.04852 0.0
H233 H 0.78917 0.32853 0.04048 0.0
H234 H 0.8075 0.33633 0.06663 0.0
H235 H 0.67107 0.31983 0.05913 0.0
H236 H 0.71243 0.30778 0.07649 0.0
H237 H 0.721 0.3045 0.04863 0.0
H238 H 0.82187 0.27306 0.10709 0.0
C239 C 0.78754 0.30863 0.10097 0.0
C240 C 0.67452 0.5523 0.64315 0.0
C241 C 0.65235 0.5309 0.63446 0.0
C242 C 0.64617 0.52973 0.61258 0.0
C243 C 0.68204 0.57165 0.60869 0.0
C244 C 0.68915 0.57221 0.63008 0.0
C245 C 0.71367 0.59601 0.6371 0.0
H246 H 0.8124 0.71005 0.61493 0.0
C247 C 0.70047 0.59592 0.59985 0.0
C248 C 0.71923 0.61008 0.61648 0.0
H249 H 0.80327 0.67069 0.67444 0.0
H250 H 0.7616 0.63624 0.65839 0.0
H251 H 0.83602 0.65974 0.58766 0.0
H252 H 0.70735 0.69705 0.60006 0.0
H253 H 0.70738 0.6877 0.57364 0.0
H254 H 0.74951 0.71057 0.58274 0.0
H255 H 0.82174 0.69039 0.57672 0.0
H256 H 0.80479 0.66095 0.56413 0.0
C257 C 0.76054 0.588 0.64657 0.0
C258 C 0.6817 0.61057 0.65237 0.0
C259 C 0.68607 0.61506 0.52188 0.0
C260 C 0.69988 0.63596 0.50935 0.0
C261 C 0.72107 0.6572 0.5191 0.0
C262 C 0.7291 0.65747 0.54075 0.0
C263 C 0.71593 0.63627 0.55296 0.0
C264 C 0.69444 0.61561 0.54353 0.0
C265 C 0.68289 0.59476 0.55902 0.0
C266 C 0.70106 0.60629 0.57924 0.0
C267 C 0.72053 0.63063 0.57558 0.0
C268 C 0.70932 0.57027 0.55277 0.0
C269 C 0.63013 0.59144 0.55946 0.0
C270 C 0.80105 0.69403 0.62444 0.0
C271 C 0.81155 0.69296 0.64597 0.0
C272 C 0.79638 0.67176 0.65779 0.0
C273 C 0.77197 0.65175 0.64842 0.0
C274 C 0.76251 0.65272 0.62689 0.0
C275 C 0.77677 0.6736 0.61521 0.0
C276 C 0.76396 0.67081 0.59242 0.0
C277 C 0.74018 0.64475 0.59244 0.0
C278 C 0.73943 0.63443 0.61272 0.0
C279 C 0.80873 0.67061 0.57938 0.0
C280 C 0.73054 0.6927 0.58671 0.0
H281 H 0.65457 0.54826 0.58314 0.0
H282 H 0.68052 0.55351 0.65987 0.0
H283 H 0.64529 0.60902 0.64727 0.0
H284 H 0.68877 0.63136 0.65295 0.0
H285 H 0.684 0.60259 0.66846 0.0
H286 H 0.77297 0.56974 0.63967 0.0
H287 H 0.75803 0.58514 0.66377 0.0
H288 H 0.78824 0.60196 0.64319 0.0
H289 H 0.67018 0.59831 0.51493 0.0
H290 H 0.73145 0.67372 0.50994 0.0
H291 H 0.74554 0.67415 0.54712 0.0
H292 H 0.74369 0.57521 0.54631 0.0
H293 H 0.69043 0.55927 0.54061 0.0
H294 H 0.71636 0.55758 0.56623 0.0
H295 H 0.61291 0.6104 0.55888 0.0
H296 H 0.61755 0.58223 0.57392 0.0
H297 H 0.61805 0.58012 0.54578 0.0
H298 H 0.62912 0.51338 0.60557 0.0
C299 C 0.66072 0.55006 0.59964 0.0
C300 C 0.70277 0.81824 0.13881 0.0
C301 C 0.68653 0.79577 0.12926 0.0
C302 C 0.6944 0.79214 0.10767 0.0
C303 C 0.73295 0.83352 0.10556 0.0
C304 C 0.72589 0.83661 0.12681 0.0
C305 C 0.74613 0.86109 0.135 0.0
H306 H 0.85856 0.97259 0.11835 0.0
C307 C 0.75796 0.85651 0.09783 0.0
C308 C 0.76589 0.87255 0.11513 0.0
H309 H 0.81077 0.94045 0.17688 0.0
H310 H 0.78072 0.90369 0.1588 0.0
H311 H 0.89917 0.92082 0.10068 0.0
H312 H 0.76777 0.95598 0.09052 0.0
H313 H 0.78755 0.9446 0.06628 0.0
H314 H 0.82009 0.96882 0.07994 0.0
H315 H 0.89239 0.94822 0.08397 0.0
H316 H 0.88492 0.91599 0.07427 0.0
C317 C 0.78408 0.85421 0.15109 0.0
C318 C 0.7065 0.87751 0.14391 0.0
C319 C 0.79285 0.86773 0.02001 0.0
C320 C 0.81374 0.88765 0.00846 0.0
C321 C 0.83175 0.90893 0.01938 0.0
C322 C 0.82803 0.91074 0.04119 0.0
C323 C 0.80606 0.89108 0.05244 0.0
C324 C 0.78931 0.86987 0.0419 0.0
C325 C 0.76714 0.85084 0.0566 0.0
C326 C 0.77282 0.86432 0.07755 0.0
C327 C 0.79566 0.88794 0.07497 0.0
C328 C 0.79467 0.82559 0.05568 0.0
C329 C 0.71609 0.84794 0.05038 0.0
C330 C 0.84118 0.95768 0.12715 0.0
C331 C 0.83701 0.95935 0.14907 0.0
C332 C 0.81475 0.93945 0.16003 0.0
C333 C 0.79725 0.9181 0.14947 0.0
C334 C 0.8022 0.9164 0.12763 0.0
C335 C 0.82389 0.93593 0.1168 0.0
C336 C 0.82703 0.93023 0.09369 0.0
C337 C 0.80378 0.90407 0.09256 0.0
C338 C 0.78909 0.89628 0.11249 0.0
C339 C 0.87843 0.92888 0.08763 0.0
C340 C 0.79953 0.95098 0.08181 0.0
H341 H 0.72198 0.80724 0.07935 0.0
H342 H 0.69824 0.82134 0.15545 0.0
H343 H 0.67526 0.87567 0.134 0.0
H344 H 0.71432 0.89822 0.1441 0.0
H345 H 0.69723 0.87128 0.16001 0.0
H346 H 0.7994 0.83517 0.1477 0.0
H347 H 0.77019 0.85347 0.16728 0.0
H348 H 0.81352 0.86765 0.15061 0.0
H349 H 0.77843 0.85116 0.01217 0.0
H350 H 0.84885 0.92431 0.01102 0.0
H351 H 0.84221 0.92753 0.04845 0.0
H352 H 0.83199 0.82958 0.05388 0.0
H353 H 0.7837 0.81363 0.04218 0.0
H354 H 0.79182 0.81419 0.07019 0.0
H355 H 0.70112 0.86692 0.04648 0.0
H356 H 0.69457 0.8402 0.06312 0.0
H357 H 0.71224 0.83543 0.03642 0.0
H358 H 0.68223 0.77492 0.09997 0.0
C359 C 0.71734 0.81095 0.09574 0.0
C360 C 0.17056 0.94405 0.36916 0.0
C361 C 0.14157 0.96276 0.37773 0.0
C362 C 0.12851 0.96056 0.39894 0.0
C363 C 0.17242 0.92134 0.40235 0.0
C364 C 0.18527 0.92365 0.38161 0.0
C365 C 0.21529 0.90205 0.37453 0.0
H366 H 0.32919 0.79278 0.39589 0.0
C367 C 0.19391 0.89782 0.41078 0.0
C368 C 0.21909 0.88653 0.39453 0.0
H369 H 0.31499 0.83234 0.33658 0.0
H370 H 0.26955 0.8646 0.35295 0.0
H371 H 0.34261 0.84258 0.42453 0.0
H372 H 0.22066 0.79957 0.40899 0.0
H373 H 0.22033 0.80593 0.43604 0.0
H374 H 0.26565 0.78687 0.4251 0.0
H375 H 0.33069 0.8118 0.43593 0.0
H376 H 0.30837 0.84093 0.44713 0.0
C377 C 0.26219 0.91354 0.36783 0.0
C378 C 0.1896 0.88717 0.35701 0.0
C379 C 0.16584 0.87118 0.48632 0.0
C380 C 0.18281 0.85112 0.49876 0.0
C381 C 0.21466 0.83393 0.49004 0.0
C382 C 0.22864 0.83634 0.4691 0.0
C383 C 0.21086 0.85627 0.45675 0.0
C384 C 0.18061 0.87354 0.46552 0.0
C385 C 0.16707 0.89427 0.45037 0.0
C386 C 0.19312 0.8862 0.43091 0.0
C387 C 0.21844 0.86378 0.43466 0.0
C388 C 0.18452 0.92026 0.45905 0.0
C389 C 0.1145 0.89278 0.44711 0.0
C390 C 0.31608 0.80831 0.3864 0.0
C391 C 0.32663 0.81003 0.36487 0.0
C392 C 0.30879 0.83073 0.35325 0.0
C393 C 0.28179 0.84943 0.36276 0.0
C394 C 0.27172 0.84752 0.38418 0.0
C395 C 0.28844 0.82716 0.39566 0.0
C396 C 0.27277 0.8281 0.41816 0.0
C397 C 0.24389 0.85233 0.41815 0.0
C398 C 0.2438 0.86361 0.3982 0.0
C399 C 0.31563 0.83081 0.43233 0.0
C400 C 0.2435 0.80384 0.42252 0.0
H401 H 0.13236 0.93927 0.42724 0.0
H402 H 0.18193 0.94526 0.35304 0.0
H403 H 0.15175 0.88905 0.35857 0.0
H404 H 0.19567 0.86628 0.35769 0.0
H405 H 0.19918 0.89441 0.34123 0.0
H406 H 0.27268 0.92928 0.37858 0.0
H407 H 0.26046 0.92161 0.35175 0.0
H408 H 0.29048 0.89959 0.36856 0.0
H409 H 0.14197 0.88494 0.49273 0.0
H410 H 0.22812 0.81831 0.49935 0.0
H411 H 0.25263 0.82254 0.46332 0.0
H412 H 0.21736 0.91788 0.4677 0.0
H413 H 0.1593 0.92874 0.47005 0.0
H414 H 0.19246 0.9343 0.4466 0.0
H415 H 0.10282 0.87248 0.44622 0.0
H416 H 0.10321 0.90161 0.43228 0.0
H417 H 0.09601 0.90199 0.46029 0.0
H418 H 0.10584 0.97452 0.40592 0.0
C419 C 0.14376 0.93998 0.41128 0.0
C420 C 0.22306 0.68877 0.86992 0.0
C421 C 0.20535 0.71151 0.87842 0.0
C422 C 0.21202 0.71639 0.89995 0.0
C423 C 0.25198 0.67592 0.90399 0.0
C424 C 0.2457 0.67134 0.88289 0.0
C425 C 0.26498 0.64606 0.87614 0.0
H426 H 0.38099 0.53786 0.89857 0.0
C427 C 0.27627 0.65354 0.91297 0.0
C428 C 0.28369 0.636 0.89671 0.0
H429 H 0.3242 0.56266 0.83932 0.0
H430 H 0.29392 0.60021 0.85553 0.0
H431 H 0.41642 0.59446 0.91462 0.0
H432 H 0.29061 0.55266 0.92547 0.0
H433 H 0.30477 0.56874 0.94873 0.0
H434 H 0.34285 0.54449 0.93869 0.0
H435 H 0.41392 0.56497 0.92914 0.0
H436 H 0.403 0.59523 0.94155 0.0
C437 C 0.30367 0.65146 0.86003 0.0
C438 C 0.22488 0.62925 0.86778 0.0
C439 C 0.31673 0.65179 0.99032 0.0
C440 C 0.33611 0.63314 1.0036 0.0
C441 C 0.35054 0.60978 0.99464 0.0
C442 C 0.34555 0.6051 0.97309 0.0
C443 C 0.3255 0.62383 0.96022 0.0
C444 C 0.31118 0.64663 0.96896 0.0
C445 C 0.28829 0.66383 0.95323 0.0
C446 C 0.29165 0.64774 0.93354 0.0
C447 C 0.31391 0.62439 0.93764 0.0
C448 C 0.31674 0.68886 0.95147 0.0
C449 C 0.23784 0.6678 0.96012 0.0
C450 C 0.3618 0.55135 0.88917 0.0
C451 C 0.35601 0.54747 0.86747 0.0
C452 C 0.33048 0.56546 0.85588 0.0
C453 C 0.31255 0.58729 0.86538 0.0
C454 C 0.31975 0.59136 0.88683 0.0
C455 C 0.34339 0.57345 0.8985 0.0
C456 C 0.34632 0.58102 0.92128 0.0
C457 C 0.32168 0.6067 0.92107 0.0
C458 C 0.3064 0.61254 0.90079 0.0
C459 C 0.39754 0.58399 0.92715 0.0
C460 C 0.32015 0.56069 0.93438 0.0
H461 H 0.23902 0.70352 0.92901 0.0
H462 H 0.21954 0.6845 0.8534 0.0
H463 H 0.19203 0.63404 0.8757 0.0
H464 H 0.22966 0.60861 0.87099 0.0
H465 H 0.2198 0.63211 0.8507 0.0
H466 H 0.32284 0.66926 0.86411 0.0
H467 H 0.28947 0.65402 0.84403 0.0
H468 H 0.33004 0.63637 0.85965 0.0
H469 H 0.3058 0.67015 0.99632 0.0
H470 H 0.36483 0.59477 1.00432 0.0
H471 H 0.35703 0.58694 0.96731 0.0
H472 H 0.3541 0.68462 0.9517 0.0
H473 H 0.30937 0.70191 0.96476 0.0
H474 H 0.31085 0.69923 0.93666 0.0
H475 H 0.22408 0.65043 0.96811 0.0
H476 H 0.21439 0.67094 0.94679 0.0
H477 H 0.23488 0.68409 0.97121 0.0
H478 H 0.19849 0.73361 0.90703 0.0
C479 C 0.23528 0.69877 0.91275 0.0
C480 C 0.8606 0.10204 0.257 0.0
C481 C 0.87014 0.05911 0.27083 0.0
C482 C 0.88472 0.08488 0.26944 0.0
C483 C 0.83278 0.05063 0.25875 0.0
C484 C 0.82245 0.09376 0.24521 0.0
C485 C 0.809 0.06791 0.24597 0.0
N486 N 0.87534 0.12678 0.256 0.0
C487 C 0.85229 0.14449 0.24438 0.0
C488 C 0.79918 0.11171 0.23288 0.0
C489 C 0.81399 0.13721 0.23258 0.0
Gd490 Gd 0.05785 0.13513 0.2413 0.0
Gd491 Gd 0.94075 0.13709 0.27565 0.0
N492 N 0.92119 0.09358 0.28077 0.0
C493 C 0.89264 0.04281 0.28483 0.0
C494 C 0.93952 0.07849 0.29608 0.0
C495 C 0.92674 0.05273 0.29787 0.0
H496 H 0.96286 0.08634 0.30746 0.0
H497 H 0.94247 0.0407 0.30965 0.0
H498 H 0.04463 0.1975 0.22898 0.0
H499 H 0.86372 0.16418 0.24416 0.0
H500 H 0.0884 0.23773 0.23194 0.0
H501 H 0.88247 0.02291 0.28638 0.0
H502 H 0.82146 0.03085 0.25947 0.0
H503 H 0.12525 0.08916 0.26067 0.0
H504 H 0.7697 0.10609 0.2236 0.0
H505 H 0.79602 0.15125 0.22322 0.0
H506 H 0.23033 0.21272 0.26386 0.0
H507 H 0.78 0.06113 0.23689 0.0
H508 H 0.25065 0.12408 0.28112 0.0
H509 H 0.20188 0.08548 0.2769 0.0
N510 N 0.12998 0.12949 0.25664 0.0
C511 C 0.15636 0.15089 0.25858 0.0
C512 C 0.14584 0.10618 0.26293 0.0
C513 C 0.21687 0.12583 0.27421 0.0
C514 C 0.1894 0.10401 0.2719 0.0
C515 C 0.20057 0.14964 0.26745 0.0
H516 H 0.26106 0.17151 0.27607 0.0
N517 N 0.09568 0.17484 0.24372 0.0
C518 C 0.13898 0.17419 0.25168 0.0
C519 C 0.14675 0.21986 0.24647 0.0
C520 C 0.16546 0.19675 0.25349 0.0
C521 C 0.07785 0.19716 0.23626 0.0
C522 C 0.10287 0.22002 0.23771 0.0
O523 O 0.94071 0.12106 0.24247 0.0
O524 O 0.01003 0.10127 0.24117 0.0
O525 O 0.06007 0.14127 0.20754 0.0
O526 O 0.10451 0.11327 0.22194 0.0
O527 O 0.00528 0.12036 0.29032 0.0
O528 O 0.04159 0.10163 0.26227 0.0
O529 O 0.06152 0.15643 0.27216 0.0
O530 O 0.98839 0.17104 0.27909 0.0
O531 O 0.92294 0.13672 0.30908 0.0
O532 O 0.88368 0.15974 0.2869 0.0
O533 O 0.99757 0.15715 0.22797 0.0
O534 O 0.95187 0.17184 0.25523 0.0
C535 C 0.96694 0.10257 0.23564 0.0
C536 C 0.03399 0.10344 0.28251 0.0
C537 C 0.13236 0.13427 0.19165 0.0
C538 C 0.16714 0.13903 0.15707 0.0
C539 C 0.21007 0.15075 0.18825 0.0
C540 C 0.1729 0.14366 0.20077 0.0
C541 C 0.20743 0.14827 0.16654 0.0
C542 C 0.1294 0.13231 0.16972 0.0
C543 C 0.09384 0.12535 0.2048 0.0
C544 C 0.20952 0.19557 0.26232 0.0
C545 C 0.22701 0.17209 0.26928 0.0
H546 H 0.16599 0.23762 0.24759 0.0
C547 C 0.03293 0.17145 0.28222 0.0
C548 C 0.96622 0.1727 0.23565 0.0
C549 C 0.85876 0.16165 0.3232 0.0
C550 C 0.83835 0.16499 0.36034 0.0
C551 C 0.7938 0.1875 0.33395 0.0
C552 C 0.822 0.17788 0.31824 0.0
C553 C 0.80193 0.18122 0.35483 0.0
C554 C 0.86654 0.15499 0.34436 0.0
C555 C 0.88905 0.15247 0.3062 0.0
H556 H 0.24124 0.15788 0.19543 0.0
H557 H 0.17624 0.14515 0.21753 0.0
H558 H 0.23684 0.15362 0.15709 0.0
H559 H 0.09838 0.12483 0.16257 0.0
H560 H 0.76557 0.19997 0.32993 0.0
H561 H 0.81505 0.18327 0.30217 0.0
H562 H 0.77935 0.18891 0.36671 0.0
H563 H 0.89492 0.14262 0.34844 0.0
C564 C 0.64078 0.39339 0.7548 0.0
C565 C 0.63866 0.43666 0.76855 0.0
C566 C 0.61992 0.41173 0.76734 0.0
C567 C 0.677 0.44316 0.75628 0.0
C568 C 0.67973 0.3997 0.74276 0.0
C569 C 0.69745 0.42475 0.74342 0.0
N570 N 0.62204 0.36949 0.75395 0.0
C571 C 0.64177 0.35066 0.74226 0.0
C572 C 0.69954 0.38065 0.7303 0.0
C573 C 0.68065 0.35599 0.73017 0.0
Gd574 Gd 0.43873 0.36697 0.74046 0.0
Gd575 Gd 0.5561 0.36253 0.77419 0.0
N576 N 0.58242 0.40496 0.77887 0.0
C577 C 0.61911 0.45413 0.78249 0.0
C578 C 0.56646 0.42113 0.79396 0.0
C579 C 0.58349 0.44613 0.79558 0.0
H580 H 0.54167 0.4147 0.80531 0.0
H581 H 0.56979 0.45904 0.80724 0.0
H582 H 0.45187 0.30549 0.72417 0.0
H583 H 0.62744 0.33155 0.74229 0.0
H584 H 0.41211 0.26426 0.72806 0.0
H585 H 0.63252 0.47345 0.78391 0.0
H586 H 0.69156 0.46229 0.7569 0.0
H587 H 0.37124 0.41051 0.76285 0.0
H588 H 0.72952 0.38475 0.72083 0.0
H589 H 0.69599 0.34109 0.72075 0.0
H590 H 0.27579 0.28453 0.76648 0.0
H591 H 0.72721 0.43001 0.73417 0.0
H592 H 0.25155 0.37203 0.78613 0.0
H593 H 0.29684 0.41184 0.78139 0.0
N594 N 0.36815 0.37038 0.75757 0.0
C595 C 0.34373 0.34828 0.75983 0.0
C596 C 0.35189 0.39302 0.76508 0.0
C597 C 0.28419 0.37133 0.77805 0.0
C598 C 0.3097 0.39384 0.77544 0.0
C599 C 0.30107 0.34817 0.77021 0.0
H600 H 0.24405 0.32455 0.78053 0.0
N601 N 0.40379 0.32626 0.74248 0.0
C602 C 0.36198 0.3256 0.75204 0.0
C603 C 0.35629 0.28004 0.74585 0.0
C604 C 0.33749 0.30239 0.75424 0.0
C605 C 0.42102 0.30476 0.73333 0.0
C606 C 0.39796 0.28131 0.73514 0.0
O607 O 0.55727 0.37944 0.74124 0.0
O608 O 0.48842 0.4 0.73946 0.0
O609 O 0.43469 0.36326 0.70662 0.0
O610 O 0.3881 0.3885 0.72276 0.0
O611 O 0.49463 0.38264 0.78885 0.0
O612 O 0.45709 0.4009 0.76064 0.0
O613 O 0.43489 0.34888 0.77266 0.0
O614 O 0.50514 0.33002 0.77734 0.0
O615 O 0.57421 0.36191 0.80771 0.0
O616 O 0.61053 0.33801 0.78515 0.0
O617 O 0.49828 0.34494 0.72648 0.0
O618 O 0.53929 0.32814 0.75428 0.0
C619 C 0.53158 0.39805 0.73409 0.0
C620 C 0.46724 0.40014 0.78075 0.0
C621 C 0.36114 0.36808 0.69197 0.0
C622 C 0.32695 0.36161 0.65739 0.0
C623 C 0.29051 0.34367 0.68842 0.0
C624 C 0.32512 0.35397 0.70097 0.0
C625 C 0.29141 0.34735 0.66678 0.0
C626 C 0.36178 0.37201 0.67017 0.0
C627 C 0.399 0.37803 0.70497 0.0
C628 C 0.29499 0.30221 0.7646 0.0
C629 C 0.27686 0.32502 0.77256 0.0
H630 H 0.33851 0.26183 0.74719 0.0
C631 C 0.4613 0.33183 0.78163 0.0
C632 C 0.52814 0.32865 0.73433 0.0
C633 C 0.63559 0.33407 0.82118 0.0
C634 C 0.66483 0.33325 0.85717 0.0
C635 C 0.69196 0.30235 0.83155 0.0
C636 C 0.66391 0.31319 0.81633 0.0
C637 C 0.69248 0.31224 0.85178 0.0
C638 C 0.63589 0.34398 0.84175 0.0
C639 C 0.60617 0.34501 0.80454 0.0
H640 H 0.26286 0.3328 0.69551 0.0
H641 H 0.32369 0.35087 0.71766 0.0
H642 H 0.26392 0.33934 0.65739 0.0
H643 H 0.38977 0.38274 0.66315 0.0
H644 H 0.71338 0.28616 0.82765 0.0
H645 H 0.66428 0.30506 0.80073 0.0
H646 H 0.71431 0.30319 0.86333 0.0
H647 H 0.61447 0.3602 0.84563 0.0
C648 C 0.87302 0.81224 0.7562 0.0
C649 C 0.89689 0.77154 0.77065 0.0
C650 C 0.90201 0.79838 0.76906 0.0
C651 C 0.86448 0.75884 0.75805 0.0
C652 C 0.83891 0.79976 0.74427 0.0
C653 C 0.83553 0.77293 0.74489 0.0
N654 N 0.87789 0.83806 0.75552 0.0
C655 C 0.84798 0.85286 0.74444 0.0
C656 C 0.80911 0.8147 0.7322 0.0
C657 C 0.81334 0.84139 0.73248 0.0
Gd658 Gd 0.05744 0.85694 0.73914 0.0
Gd659 Gd 0.93828 0.85597 0.7748 0.0
N660 N 0.93297 0.81129 0.78105 0.0
C661 C 0.92311 0.75842 0.78549 0.0
C662 C 0.95428 0.79891 0.7972 0.0
C663 C 0.95099 0.77228 0.79921 0.0
H664 H 0.97329 0.80941 0.80888 0.0
H665 H 0.96928 0.76252 0.81161 0.0
H666 H 0.09108 0.9171 0.73066 0.0
H667 H 0.85172 0.87348 0.7445 0.0
H668 H 0.15853 0.94482 0.73804 0.0
H669 H 0.92022 0.73783 0.78723 0.0
H670 H 0.86058 0.73821 0.75883 0.0
H671 H 0.09449 0.79684 0.74298 0.0
H672 H 0.78249 0.80584 0.72279 0.0
H673 H 0.79017 0.85311 0.72338 0.0
H674 H 0.26648 0.88782 0.77052 0.0
H675 H 0.81004 0.76294 0.73558 0.0
H676 H 0.22871 0.7982 0.77047 0.0
H677 H 0.16215 0.77375 0.75681 0.0
N678 N 0.12173 0.83364 0.75001 0.0
C679 C 0.15868 0.84738 0.75639 0.0
C680 C 0.12326 0.80755 0.74922 0.0
C681 C 0.19895 0.80835 0.76469 0.0
C682 C 0.16151 0.79448 0.75692 0.0
C683 C 0.19834 0.83517 0.76399 0.0
H684 H 0.26728 0.84106 0.77584 0.0
N685 N 0.12031 0.88423 0.74492 0.0
C686 C 0.15811 0.8736 0.75359 0.0
C687 C 0.19696 0.91456 0.75279 0.0
C688 C 0.19735 0.88849 0.75803 0.0
C689 C 0.12072 0.9092 0.73848 0.0
C690 C 0.15874 0.92486 0.74264 0.0
O691 O 0.94257 0.84653 0.7401 0.0
O692 O 0.00839 0.82383 0.73976 0.0
O693 O 0.03143 0.86043 0.70738 0.0
O694 O 0.10162 0.84896 0.71259 0.0
O695 O 0.00516 0.8453 0.79052 0.0
O696 O 0.03709 0.8264 0.7622 0.0
O697 O 0.05421 0.88852 0.76334 0.0
O698 O 0.99285 0.88299 0.78687 0.0
O699 O 0.89974 0.85103 0.8042 0.0
O700 O 0.88873 0.88451 0.78428 0.0
O701 O 0.00979 0.89028 0.73355 0.0
O702 O 0.94035 0.88925 0.75235 0.0
C703 C 0.96669 0.82733 0.73293 0.0
C704 C 0.0376 0.8312 0.78229 0.0
C705 C 0.06501 0.83316 0.68239 0.0
C706 C 0.07263 0.8209 0.6457 0.0
C707 C 0.04217 0.7906 0.67118 0.0
C708 C 0.04814 0.80864 0.68708 0.0
C709 C 0.05405 0.7967 0.65056 0.0
C710 C 0.07779 0.83913 0.66175 0.0
C711 C 0.06945 0.85266 0.69882 0.0
C712 C 0.23616 0.87668 0.76673 0.0
C713 C 0.23661 0.85004 0.76976 0.0
H714 H 0.22644 0.92668 0.75592 0.0
C715 C 0.03082 0.89446 0.78039 0.0
C716 C 0.96886 0.89933 0.73845 0.0
C717 C 0.84185 0.88201 0.81546 0.0
C718 C 0.81192 0.89016 0.85063 0.0
C719 C 0.7693 0.90391 0.81984 0.0
C720 C 0.80341 0.89418 0.80686 0.0
C721 C 0.7735 0.90201 0.84153 0.0
C722 C 0.84578 0.87969 0.8374 0.0
C723 C 0.87773 0.87231 0.8013 0.0
H724 H 0.02865 0.77177 0.67487 0.0
H725 H 0.03984 0.8035 0.70304 0.0
H726 H 0.0498 0.78231 0.6385 0.0
H727 H 0.09141 0.85801 0.65816 0.0
H728 H 0.7396 0.91311 0.81306 0.0
H729 H 0.79963 0.89603 0.79004 0.0
H730 H 0.74652 0.90983 0.85124 0.0
H731 H 0.87577 0.87065 0.84412 0.0
C732 C 0.65386 0.6697 0.24953 0.0
C733 C 0.65127 0.71367 0.26168 0.0
C734 C 0.63321 0.68853 0.26165 0.0
C735 C 0.6887 0.7198 0.24873 0.0
C736 C 0.69186 0.67568 0.23675 0.0
C737 C 0.70892 0.70087 0.23629 0.0
N738 N 0.63577 0.64563 0.24974 0.0
C739 C 0.65485 0.62643 0.23822 0.0
C740 C 0.71131 0.65618 0.22466 0.0
C741 C 0.69284 0.63143 0.22547 0.0
Gd742 Gd 0.4498 0.64074 0.24088 0.0
Gd743 Gd 0.57189 0.63907 0.27133 0.0
N744 N 0.59657 0.68211 0.27389 0.0
C745 C 0.63199 0.73177 0.27515 0.0
C746 C 0.58092 0.69905 0.2885 0.0
C747 C 0.59732 0.72426 0.28893 0.0
H748 H 0.55692 0.69319 0.3004 0.0
H749 H 0.58389 0.73773 0.30022 0.0
H750 H 0.46145 0.5852 0.21341 0.0
H751 H 0.6406 0.6073 0.23888 0.0
H752 H 0.43174 0.54122 0.21479 0.0
H753 H 0.64492 0.75126 0.27566 0.0
H754 H 0.70272 0.73907 0.24844 0.0
H755 H 0.38387 0.67501 0.27298 0.0
H756 H 0.74055 0.66002 0.21465 0.0
H757 H 0.70777 0.61623 0.21624 0.0
H758 H 0.31307 0.54432 0.26659 0.0
H759 H 0.73792 0.70588 0.22648 0.0
H760 H 0.28161 0.6251 0.29899 0.0
H761 H 0.31733 0.6681 0.29636 0.0
N762 N 0.38629 0.63624 0.26304 0.0
C763 C 0.36636 0.61263 0.26372 0.0
C764 C 0.36882 0.65614 0.27428 0.0
C765 C 0.31078 0.62803 0.28873 0.0
C766 C 0.33095 0.65232 0.28736 0.0
C767 C 0.32837 0.60782 0.27683 0.0
H768 H 0.28058 0.57894 0.28794 0.0
N769 N 0.42226 0.59818 0.23942 0.0
C770 C 0.3853 0.59299 0.25184 0.0
C771 C 0.38388 0.5492 0.23957 0.0
C772 C 0.36575 0.56821 0.25253 0.0
C773 C 0.43704 0.58031 0.22539 0.0
C774 C 0.41907 0.55543 0.22565 0.0
O775 O 0.5693 0.65418 0.23798 0.0
O776 O 0.49913 0.67361 0.23554 0.0
O777 O 0.42861 0.63909 0.20774 0.0
O778 O 0.39275 0.66344 0.23021 0.0
O779 O 0.51144 0.65872 0.28694 0.0
O780 O 0.47027 0.67572 0.25934 0.0
O781 O 0.45365 0.62432 0.2738 0.0
O782 O 0.52426 0.60538 0.27581 0.0
O783 O 0.59241 0.6398 0.30454 0.0
O784 O 0.62908 0.61624 0.28187 0.0
O785 O 0.50881 0.61995 0.22504 0.0
O786 O 0.55377 0.60423 0.25213 0.0
C787 C 0.54232 0.67171 0.23003 0.0
C788 C 0.48258 0.67564 0.27915 0.0
C789 C 0.36213 0.66365 0.19503 0.0
C790 C 0.33706 0.66752 0.15851 0.0
C791 C 0.28876 0.68305 0.18687 0.0
C792 C 0.3214 0.67552 0.2015 0.0
C793 C 0.29629 0.67901 0.16561 0.0
C794 C 0.36988 0.65963 0.17347 0.0
C795 C 0.39515 0.65503 0.21112 0.0
C796 C 0.32824 0.56329 0.26576 0.0
C797 C 0.30959 0.58303 0.27786 0.0
H798 H 0.36982 0.52994 0.23964 0.0
C799 C 0.4804 0.60585 0.28029 0.0
C800 C 0.53876 0.60348 0.23267 0.0
C801 C 0.65761 0.61443 0.3175 0.0
C802 C 0.68596 0.61362 0.35359 0.0
C803 C 0.72472 0.58924 0.32652 0.0
C804 C 0.69327 0.59784 0.31171 0.0
C805 C 0.7213 0.59714 0.34727 0.0
C806 C 0.65374 0.62209 0.33864 0.0
C807 C 0.62573 0.62381 0.30116 0.0
H808 H 0.25725 0.6919 0.19206 0.0
H809 H 0.31435 0.67868 0.21795 0.0
H810 H 0.26964 0.6846 0.15474 0.0
H811 H 0.40146 0.65074 0.16839 0.0
H812 H 0.75204 0.57649 0.32186 0.0
H813 H 0.69715 0.59156 0.29565 0.0
H814 H 0.7462 0.59017 0.35849 0.0
H815 H 0.62655 0.63494 0.34335 0.0
H816 H 0.13015 0.01352 0.3883 0.0
H817 H 0.06157 0.05536 0.27187 0.0
H818 H 0.11482 0.96088 0.33664 0.0
H819 H 0.0484 0.10594 0.3249 0.0
H820 H 0.08801 0.02157 0.29526 0.0
H821 H 0.10512 0.04845 0.36538 0.0
C822 C 0.12126 0.00924 0.37222 0.0
C823 C 0.12493 0.98419 0.36439 0.0
C824 C 0.07948 0.04006 0.30182 0.0
C825 C 0.09701 0.02414 0.33803 0.0
C826 C 0.06472 0.05944 0.28844 0.0
C827 C 0.05285 0.0835 0.29647 0.0
C828 C 0.08266 0.04474 0.32343 0.0
C829 C 0.05711 0.0876 0.31811 0.0
C830 C 0.10725 0.02923 0.35912 0.0
C831 C 0.11347 0.97991 0.34331 0.0
N832 N 0.07167 0.06839 0.33087 0.0
N833 N 0.10022 0.99965 0.33089 0.0
H834 H 0.36207 0.49712 0.88066 0.0
H835 H 0.44356 0.4482 0.7685 0.0
H836 H 0.39734 0.54706 0.82912 0.0
H837 H 0.4543 0.40037 0.82343 0.0
H838 H 0.41906 0.48363 0.79051 0.0
H839 H 0.39062 0.46053 0.86033 0.0
C840 C 0.37615 0.50045 0.8652 0.0
C841 C 0.37658 0.52518 0.85647 0.0
C842 C 0.4268 0.46542 0.79782 0.0
C843 C 0.40847 0.48349 0.83311 0.0
C844 C 0.44048 0.44511 0.78522 0.0
C845 C 0.45097 0.42131 0.79416 0.0
C846 C 0.42301 0.46195 0.81956 0.0
C847 C 0.44668 0.41848 0.81595 0.0
C848 C 0.39221 0.47956 0.85359 0.0
C849 C 0.39508 0.52831 0.83631 0.0
N850 N 0.43283 0.43857 0.82796 0.0
N851 N 0.40984 0.50774 0.82531 0.0
H852 H 0.66412 0.47879 0.63136 0.0
H853 H 0.50345 0.44719 0.72918 0.0
H854 H 0.60072 0.53674 0.66957 0.0
H855 H 0.60395 0.39338 0.70682 0.0
H856 H 0.53337 0.47917 0.70479 0.0
H857 H 0.63662 0.44587 0.65607 0.0
C858 C 0.64419 0.48452 0.64486 0.0
C859 C 0.6347 0.51047 0.6485 0.0
C860 C 0.54906 0.46041 0.70525 0.0
C861 C 0.60327 0.47317 0.67663 0.0
C862 C 0.53189 0.44212 0.71911 0.0
C863 C 0.55124 0.41762 0.71996 0.0
C864 C 0.58544 0.45409 0.69185 0.0
C865 C 0.58827 0.41214 0.70669 0.0
C866 C 0.62888 0.46581 0.659 0.0
C867 C 0.60908 0.51696 0.66629 0.0
N868 N 0.60401 0.4302 0.69301 0.0
N869 N 0.5941 0.49845 0.67961 0.0
H870 H 0.82695 0.01086 0.1415 0.0
H871 H 0.99458 0.053 0.23428 0.0
H872 H 0.89185 0.95741 0.18352 0.0
H873 H 0.89477 0.10467 0.2081 0.0
H874 H 0.96313 0.01847 0.2128 0.0
H875 H 0.85766 0.04644 0.16263 0.0
C876 C 0.84791 0.00667 0.15507 0.0
C877 C 0.8568 0.98122 0.16085 0.0
C878 C 0.94799 0.03733 0.21176 0.0
C879 C 0.89192 0.02156 0.18492 0.0
C880 C 0.96607 0.05707 0.22393 0.0
C881 C 0.94723 0.08168 0.2229 0.0
C882 C 0.91121 0.04229 0.19817 0.0
C883 C 0.91006 0.08587 0.20938 0.0
C884 C 0.86507 0.0269 0.16718 0.0
C885 C 0.88384 0.97676 0.17865 0.0
N886 N 0.89336 0.06637 0.19741 0.0
N887 N 0.90056 0.9967 0.18998 0.0
H888 H 0.93803 0.02367 0.64869 0.0
H889 H 0.88604 0.92396 0.74152 0.0
H890 H 0.81029 0.0197 0.68266 0.0
H891 H 0.01421 0.9262 0.70757 0.0
H892 H 0.85826 0.95921 0.72003 0.0
H893 H 0.96644 0.98743 0.6694 0.0
C894 C 0.91583 0.01504 0.66035 0.0
C895 C 0.87188 0.0249 0.66408 0.0
C896 C 0.89252 0.95204 0.7173 0.0
C897 C 0.90426 0.98369 0.68798 0.0
C898 C 0.90855 0.9319 0.72966 0.0
C899 C 0.95265 0.92195 0.72644 0.0
C900 C 0.92067 0.96243 0.70153 0.0
C901 C 0.97999 0.93316 0.7107 0.0
C902 C 0.93216 0.99449 0.67228 0.0
C903 C 0.84471 0.01306 0.67951 0.0
N904 N 0.96354 0.95273 0.69884 0.0
N905 N 0.86137 0.99321 0.6909 0.0
H906 H 0.619 0.45556 0.18693 0.0
H907 H 0.54322 0.60217 0.18973 0.0
H908 H 0.64211 0.5061 0.13436 0.0
H909 H 0.57065 0.55684 0.24484 0.0
H910 H 0.56891 0.56627 0.16786 0.0
H911 H 0.58938 0.49149 0.20691 0.0
C912 C 0.61801 0.47426 0.17957 0.0
C913 C 0.63401 0.47787 0.15903 0.0
C914 C 0.56933 0.56429 0.18474 0.0
C915 C 0.59918 0.51917 0.18185 0.0
C916 C 0.55463 0.58468 0.1972 0.0
C917 C 0.55492 0.58245 0.21912 0.0
C918 C 0.58367 0.54145 0.1943 0.0
C919 C 0.57016 0.55945 0.22802 0.0
C920 C 0.60092 0.49477 0.191 0.0
C921 C 0.63024 0.50242 0.15014 0.0
N922 N 0.58365 0.53983 0.21559 0.0
N923 N 0.61337 0.52222 0.16165 0.0
H924 H 0.33279 0.51243 0.37072 0.0
H925 H 0.50768 0.55614 0.281 0.0
H926 H 0.39968 0.45956 0.32898 0.0
H927 H 0.40873 0.60762 0.30795 0.0
H928 H 0.47466 0.52101 0.30153 0.0
H929 H 0.36675 0.54826 0.35099 0.0
C930 C 0.3549 0.50841 0.35751 0.0
C931 C 0.36339 0.48306 0.3514 0.0
C932 C 0.46011 0.53998 0.30295 0.0
C933 C 0.40222 0.52373 0.32888 0.0
C934 C 0.47909 0.56003 0.29134 0.0
C935 C 0.46079 0.58473 0.2928 0.0
C936 C 0.42297 0.54474 0.31637 0.0
C937 C 0.42352 0.58875 0.30628 0.0
C938 C 0.37395 0.5288 0.34619 0.0
C939 C 0.39195 0.47884 0.33407 0.0
N940 N 0.4059 0.56895 0.31764 0.0
N941 N 0.41045 0.49895 0.32347 0.0
H942 H 0.20231 0.01232 0.83447 0.0
H943 H 0.9842 0.92451 0.8083 0.0
H944 H 0.07312 0.01907 0.86688 0.0
H945 H 0.1196 0.91123 0.78359 0.0
H946 H 0.01533 0.95936 0.82972 0.0
H947 H 0.17186 0.97559 0.81527 0.0
C948 C 0.16748 0.00604 0.83754 0.0
C949 C 0.1401 0.01886 0.8522 0.0
C950 C 0.0382 0.94883 0.81956 0.0
C951 C 0.10495 0.97672 0.83028 0.0
C952 C 0.02048 0.92893 0.80733 0.0
C953 C 0.04922 0.91527 0.79373 0.0
C954 C 0.08502 0.9551 0.8182 0.0
C955 C 0.09592 0.92177 0.79322 0.0
C956 C 0.15017 0.98499 0.82664 0.0
C957 C 0.09546 0.00964 0.85579 0.0
N958 N 0.11231 0.94126 0.80518 0.0
N959 N 0.07914 0.98924 0.84479 0.0
H960 H 0.2079 0.08712 0.0299 0.0
H961 H 0.10487 0.15871 0.12931 0.0
H962 H 0.13862 0.15955 0.02404 0.0
H963 H 0.22597 0.11187 0.13271 0.0
H964 H 0.10565 0.15429 0.0909 0.0
H965 H 0.20386 0.09094 0.06811 0.0
C966 C 0.19163 0.10376 0.03671 0.0
C967 C 0.1736 0.12307 0.02389 0.0
C968 C 0.13194 0.14498 0.10012 0.0
C969 C 0.16845 0.12744 0.06745 0.0
C970 C 0.13134 0.14736 0.12194 0.0
C971 C 0.1655 0.13569 0.13406 0.0
C972 C 0.16634 0.13036 0.0905 0.0
C973 C 0.19923 0.12128 0.12385 0.0
C974 C 0.18951 0.10598 0.05846 0.0
C975 C 0.15315 0.14435 0.03345 0.0
N976 N 0.19866 0.11889 0.10267 0.0
N977 N 0.15082 0.1459 0.05471 0.0
H978 H 0.31171 0.34127 0.52287 0.0
H979 H 0.34267 0.40615 0.63558 0.0
H980 H 0.30498 0.42301 0.53281 0.0
H981 H 0.31169 0.32599 0.62672 0.0
H982 H 0.33875 0.41242 0.59754 0.0
H983 H 0.32026 0.33513 0.56055 0.0
C984 C 0.3117 0.35796 0.53293 0.0
C985 C 0.30727 0.38273 0.52451 0.0
C986 C 0.3329 0.39346 0.60394 0.0
C987 C 0.31814 0.37576 0.56782 0.0
C988 C 0.33545 0.38984 0.62561 0.0
C989 C 0.32726 0.36554 0.63432 0.0
C990 C 0.32261 0.37257 0.59086 0.0
C991 C 0.31766 0.34512 0.62068 0.0
C992 C 0.31691 0.35441 0.55447 0.0
C993 C 0.30879 0.40358 0.53844 0.0
N994 N 0.31565 0.34908 0.59966 0.0
N995 N 0.3141 0.39962 0.55936 0.0
H996 H 0.60453 0.37965 0.98537 0.0
H997 H 0.74102 0.34164 0.88111 0.0
H998 H 0.74762 0.35913 0.98367 0.0
H999 H 0.59363 0.34804 0.88291 0.0
H1000 H 0.74433 0.35327 0.918 0.0
H1001 H 0.60016 0.37292 0.94738 0.0
C1002 C 0.63507 0.37386 0.97701 0.0
C1003 C 0.67647 0.36981 0.98777 0.0
C1004 C 0.7112 0.35224 0.91038 0.0
C1005 C 0.6717 0.36214 0.94432 0.0
C1006 C 0.70927 0.34555 0.88928 0.0
C1007 C 0.66691 0.34345 0.87894 0.0
C1008 C 0.67049 0.35698 0.9214 0.0
C1009 C 0.62702 0.34942 0.89024 0.0
C1010 C 0.63248 0.36993 0.95535 0.0
C1011 C 0.71483 0.36212 0.97613 0.0
N1012 N 0.62974 0.35572 0.91093 0.0
N1013 N 0.7115 0.35857 0.95511 0.0
H1014 H 0.84758 0.17547 0.49526 0.0
H1015 H 0.85227 0.11793 0.37878 0.0
H1016 H 0.83408 0.09464 0.48228 0.0
H1017 H 0.8416 0.19838 0.39314 0.0
H1018 H 0.85614 0.10857 0.41651 0.0
H1019 H 0.85492 0.1837 0.45783 0.0
C1020 C 0.84596 0.15941 0.48456 0.0
C1021 C 0.8396 0.13432 0.49204 0.0
C1022 C 0.85327 0.12827 0.41136 0.0
C1023 C 0.84875 0.14366 0.4489 0.0
C1024 C 0.85141 0.13362 0.38985 0.0
C1025 C 0.8462 0.15895 0.38283 0.0
C1026 C 0.85035 0.14843 0.4259 0.0
C1027 C 0.84496 0.17855 0.39786 0.0
C1028 C 0.85047 0.16413 0.46314 0.0
C1029 C 0.83913 0.11428 0.47732 0.0
N1030 N 0.84683 0.17288 0.41861 0.0
N1031 N 0.84337 0.11939 0.45647 0.0
H1032 H 0.83185 0.84666 0.9824 0.0
H1033 H 0.79716 0.92949 0.87779 0.0
H1034 H 0.79906 0.92718 0.98114 0.0
H1035 H 0.83731 0.85009 0.87643 0.0
H1036 H 0.7991 0.92846 0.91587 0.0
H1037 H 0.8344 0.84678 0.94394 0.0
C1038 C 0.82509 0.86433 0.97408 0.0
C1039 C 0.81547 0.88698 0.98511 0.0
C1040 C 0.80763 0.91121 0.90734 0.0
C1041 C 0.8186 0.88727 0.94112 0.0
C1042 C 0.80636 0.91177 0.88554 0.0
C1043 C 0.8166 0.88977 0.87387 0.0
C1044 C 0.81907 0.88842 0.91779 0.0
C1045 C 0.82924 0.86751 0.88481 0.0
C1046 C 0.82684 0.86441 0.95213 0.0
C1047 C 0.8074 0.90934 0.97344 0.0
N1048 N 0.82979 0.86733 0.90618 0.0
N1049 N 0.80909 0.90889 0.95219 0.0
H1050 H 0.62619 0.61805 0.48645 0.0
H1051 H 0.75463 0.63487 0.37664 0.0
H1052 H 0.7604 0.65217 0.47927 0.0
H1053 H 0.61365 0.61031 0.38117 0.0
H1054 H 0.75549 0.64283 0.41428 0.0
H1055 H 0.61933 0.6158 0.4482 0.0
C1056 C 0.65419 0.62509 0.47686 0.0
C1057 C 0.69398 0.6353 0.48616 0.0
C1058 C 0.72413 0.63593 0.40711 0.0
C1059 C 0.68622 0.63289 0.44236 0.0
C1060 C 0.72365 0.63141 0.3856 0.0
C1061 C 0.68408 0.62182 0.37583 0.0
C1062 C 0.68489 0.63052 0.41912 0.0
C1063 C 0.64479 0.61781 0.38813 0.0
C1064 C 0.6501 0.62396 0.45502 0.0
C1065 C 0.72886 0.64443 0.47289 0.0
N1066 N 0.64631 0.62189 0.40921 0.0
N1067 N 0.72426 0.64286 0.45176 0.0
H1068 H 0.402 0.61571 0.03151 0.0
H1069 H 0.31288 0.69978 0.1265 0.0
H1070 H 0.27865 0.66124 0.02884 0.0
H1071 H 0.37764 0.62682 0.13789 0.0
H1072 H 0.31519 0.69125 0.08905 0.0
H1073 H 0.40651 0.62405 0.06923 0.0
C1074 C 0.37576 0.62735 0.0387 0.0
C1075 C 0.33999 0.63789 0.02666 0.0
C1076 C 0.32901 0.67715 0.09976 0.0
C1077 C 0.34613 0.64809 0.06975 0.0
C1078 C 0.32757 0.68191 0.12119 0.0
C1079 C 0.34406 0.66371 0.13555 0.0
C1080 C 0.34786 0.65423 0.0924 0.0
C1081 C 0.36441 0.6414 0.12749 0.0
C1082 C 0.37865 0.63219 0.06024 0.0
C1083 C 0.30764 0.65321 0.03707 0.0
N1084 N 0.36558 0.63721 0.10641 0.0
N1085 N 0.31171 0.65796 0.05789 0.0
H1086 H 0.235 0.84419 0.53392 0.0
H1087 H 0.02424 0.81437 0.60937 0.0
H1088 H 0.09468 0.85064 0.51333 0.0
H1089 H 0.15493 0.84063 0.63281 0.0
H1090 H 0.05071 0.82287 0.57354 0.0
H1091 H 0.20779 0.83809 0.56996 0.0
C1092 C 0.19847 0.84428 0.53702 0.0
C1093 C 0.16699 0.84791 0.52068 0.0
C1094 C 0.07348 0.82689 0.58654 0.0
C1095 C 0.1357 0.84075 0.5617 0.0
C1096 C 0.05849 0.82194 0.60693 0.0
C1097 C 0.08747 0.82684 0.62401 0.0
C1098 C 0.11809 0.83631 0.5832 0.0
C1099 C 0.13144 0.83678 0.62005 0.0
C1100 C 0.183 0.84095 0.55755 0.0
C1101 C 0.12004 0.84806 0.52553 0.0
N1102 N 0.1456 0.84097 0.60003 0.0
N1103 N 0.10577 0.8443 0.54558 0.0
H1104 H 0.21538 0.2746 0.34724 0.0
H1105 H 0.98779 0.20879 0.30449 0.0
H1106 H 0.08633 0.28298 0.37939 0.0
H1107 H 0.12227 0.17654 0.295 0.0
H1108 H 0.02157 0.23985 0.3289 0.0
H1109 H 0.18021 0.24242 0.32437 0.0
C1110 C 0.1796 0.26959 0.34946 0.0
C1111 C 0.15364 0.28135 0.36518 0.0
C1112 C 0.04353 0.22596 0.32136 0.0
C1113 C 0.1131 0.24487 0.33899 0.0
C1114 C 0.02438 0.20828 0.30738 0.0
C1115 C 0.05235 0.1903 0.29722 0.0
C1116 C 0.091 0.22586 0.32499 0.0
C1117 C 0.09946 0.19045 0.30184 0.0
C1118 C 0.15962 0.2512 0.33649 0.0
C1119 C 0.10748 0.27416 0.36751 0.0
N1120 N 0.11732 0.20807 0.3152 0.0
N1121 N 0.08846 0.2565 0.3544 0.0
H1122 H 0.29021 0.25927 0.87576 0.0
H1123 H 0.49386 0.28515 0.79433 0.0
H1124 H 0.37697 0.19933 0.8519 0.0
H1125 H 0.38064 0.33704 0.80296 0.0
H1126 H 0.45738 0.25517 0.81882 0.0
H1127 H 0.32936 0.28998 0.8527 0.0
C1128 C 0.31779 0.25266 0.86581 0.0
C1129 C 0.33031 0.22675 0.86567 0.0
C1130 C 0.44056 0.27312 0.81532 0.0
C1131 C 0.37512 0.26165 0.83929 0.0
C1132 C 0.46142 0.29027 0.80142 0.0
C1133 C 0.44016 0.31357 0.79653 0.0
C1134 C 0.39847 0.27949 0.82462 0.0
C1135 C 0.39804 0.31917 0.80612 0.0
C1136 C 0.33987 0.27011 0.85256 0.0
C1137 C 0.36599 0.21911 0.85233 0.0
N1138 N 0.37865 0.3023 0.81975 0.0
N1139 N 0.38721 0.23648 0.83971 0.0
H1140 H 0.6783 0.25914 0.63249 0.0
H1141 H 0.56371 0.28159 0.74373 0.0
H1142 H 0.63972 0.19653 0.67332 0.0
H1143 H 0.54295 0.33397 0.69231 0.0
H1144 H 0.60126 0.25179 0.71963 0.0
H1145 H 0.63701 0.28855 0.65548 0.0
C1146 C 0.66096 0.25145 0.64612 0.0
C1147 C 0.66303 0.22518 0.65093 0.0
C1148 C 0.58829 0.26977 0.71363 0.0
C1149 C 0.61674 0.25901 0.6776 0.0
C1150 C 0.56704 0.2868 0.72737 0.0
C1151 C 0.55004 0.3102 0.71996 0.0
C1152 C 0.59339 0.27644 0.69244 0.0
C1153 C 0.55522 0.316 0.69861 0.0
C1154 C 0.63762 0.26833 0.6593 0.0
C1155 C 0.64034 0.21662 0.66913 0.0
N1156 N 0.57679 0.29932 0.68561 0.0
N1157 N 0.61856 0.23348 0.68185 0.0
H1158 H 0.89041 0.26472 0.12757 0.0
H1159 H 0.90089 0.20895 0.24443 0.0
H1160 H 0.79199 0.28287 0.17577 0.0
H1161 H 0.98338 0.17962 0.19374 0.0
H1162 H 0.86423 0.23831 0.21988 0.0
H1163 H 0.92764 0.23492 0.1518 0.0
C1164 C 0.8764 0.26235 0.14316 0.0
C1165 C 0.83814 0.27654 0.14963 0.0
C1166 C 0.89035 0.22543 0.21413 0.0
C1167 C 0.88106 0.24273 0.17756 0.0
C1168 C 0.9114 0.20866 0.22816 0.0
C1169 C 0.94509 0.19156 0.22118 0.0
C1170 C 0.90328 0.22536 0.19293 0.0
C1171 C 0.95745 0.19232 0.19989 0.0
C1172 C 0.89786 0.24544 0.15703 0.0
C1173 C 0.82193 0.27281 0.17016 0.0
N1174 N 0.93656 0.2089 0.18654 0.0
N1175 N 0.84352 0.2564 0.18336 0.0
H1176 H 0.88345 0.68711 0.67274 0.0
H1177 H 0.9007 0.8356 0.70326 0.0
H1178 H 0.80113 0.74524 0.64312 0.0
H1179 H 0.98503 0.77642 0.73008 0.0
H1180 H 0.86509 0.80353 0.68024 0.0
H1181 H 0.92306 0.72025 0.6927 0.0
C1182 C 0.87382 0.70693 0.67041 0.0
C1183 C 0.83863 0.71342 0.65642 0.0
C1184 C 0.8916 0.7976 0.69106 0.0
C1185 C 0.88392 0.75163 0.67929 0.0
C1186 C 0.91176 0.81586 0.70421 0.0
C1187 C 0.94579 0.80857 0.71851 0.0
C1188 C 0.90559 0.77191 0.69231 0.0
C1189 C 0.95909 0.78283 0.71915 0.0
C1190 C 0.89652 0.72588 0.68178 0.0
C1191 C 0.82812 0.73944 0.65373 0.0
N1192 N 0.93888 0.76544 0.70629 0.0
N1193 N 0.85041 0.75762 0.66522 0.0
H1194 H 0.69988 0.74375 0.13047 0.0
H1195 H 0.51167 0.7196 0.22002 0.0
H1196 H 0.61772 0.80371 0.15748 0.0
H1197 H 0.61528 0.66437 0.20382 0.0
H1198 H 0.54426 0.74922 0.19418 0.0
H1199 H 0.663 0.71278 0.15413 0.0
C1200 C 0.6737 0.75031 0.1412 0.0
C1201 C 0.66197 0.77632 0.1421 0.0
C1202 C 0.5599 0.73062 0.19629 0.0
C1203 C 0.61986 0.74115 0.16922 0.0
C1204 C 0.54121 0.71369 0.21097 0.0
C1205 C 0.56108 0.6896 0.21419 0.0
C1206 C 0.59844 0.72331 0.18455 0.0
C1207 C 0.59937 0.68293 0.20207 0.0
C1208 C 0.65293 0.7327 0.1548 0.0
C1209 C 0.62813 0.78387 0.15644 0.0
N1210 N 0.6168 0.69968 0.18777 0.0
N1211 N 0.60831 0.76639 0.16942 0.0
H1212 H 0.38938 0.8172 0.33332 0.0
H1213 H 0.46247 0.67131 0.32087 0.0
H1214 H 0.32957 0.7578 0.37197 0.0
H1215 H 0.45806 0.72437 0.26909 0.0
H1216 H 0.42752 0.70407 0.3434 0.0
H1217 H 0.42938 0.78448 0.31332 0.0
C1218 C 0.38448 0.7973 0.33763 0.0
C1219 C 0.35511 0.79033 0.35417 0.0
C1220 C 0.43439 0.70847 0.32712 0.0
C1221 C 0.40217 0.75277 0.33155 0.0
C1222 C 0.45446 0.68991 0.31432 0.0
C1223 C 0.46297 0.69522 0.29313 0.0
C1224 C 0.4239 0.73261 0.31871 0.0
C1225 C 0.45172 0.7195 0.28532 0.0
C1226 C 0.40759 0.77866 0.32623 0.0
C1227 C 0.3518 0.76419 0.35942 0.0
N1228 N 0.43303 0.73736 0.29815 0.0
N1229 N 0.37494 0.74633 0.3481 0.0
H1230 H 0.14574 0.69995 0.84657 0.0
H1231 H 0.07734 0.84412 0.81955 0.0
H1232 H 0.20539 0.76444 0.8792 0.0
H1233 H 0.05712 0.78061 0.77741 0.0
H1234 H 0.11864 0.81548 0.84362 0.0
H1235 H 0.10674 0.72947 0.82315 0.0
C1236 C 0.15098 0.72032 0.84876 0.0
C1237 C 0.17955 0.72963 0.86479 0.0
C1238 C 0.10549 0.80792 0.82901 0.0
C1239 C 0.13387 0.7637 0.83811 0.0
C1240 C 0.08197 0.82419 0.81535 0.0
C1241 C 0.06457 0.81472 0.7964 0.0
C1242 C 0.11064 0.78193 0.82382 0.0
C1243 C 0.07096 0.78878 0.79167 0.0
C1244 C 0.12845 0.73719 0.83539 0.0
C1245 C 0.18358 0.75633 0.86718 0.0
N1246 N 0.09326 0.77327 0.80532 0.0
N1247 N 0.16101 0.77245 0.85397 0.0
loop_
_geom_bond_atom_site_label_1
_geom_bond_atom_site_label_2
_geom_bond_distance
_geom_bond_site_symmetry_2
_ccdc_geom_bond_type
C0 C1 1.391 . S
C0 C4 1.391 . S
C0 H42 0.948 . S
C1 C0 1.391 . S
C1 C2 1.391 . S
C2 C1 1.391 . S
C2 H58 0.947 . S
C2 C59 1.392 . S
C3 C4 1.391 . S
C3 C7 1.397 . S
C3 C59 1.419 . S
C4 C0 1.391 . S
C4 C3 1.391 . S
C4 C5 1.399 . S
C5 C4 1.399 . S
C5 C8 1.396 . S
C5 C17 1.453 . S
C5 C18 1.684 . S
H6 C30 0.948 . S
C7 C3 1.397 . S
C7 C8 1.394 . S
C7 C26 1.723 . S
C8 C5 1.396 . S
C8 C7 1.394 . S
C8 C38 1.723 . S
H9 C32 0.947 . S
H10 C33 0.948 . S
H11 C39 0.982 . S
H12 C40 0.979 . S
H13 C40 0.980 . S
H14 C40 0.983 . S
H15 C39 0.979 . S
H16 C39 0.977 . S
C17 C5 1.453 . S
C17 H46 0.982 . S
C17 H47 0.979 . S
C17 H48 0.977 . S
C18 C5 1.684 . S
C18 H43 0.979 . S
C18 H44 0.980 . S
C18 H45 0.983 . S
C19 C20 1.391 . S
C19 C24 1.391 . S
C19 H49 0.948 . S
C20 C19 1.391 . S
C20 C21 1.391 . S
C21 C20 1.391 . S
C21 C22 1.392 . S
C21 H50 0.947 . S
C22 C21 1.392 . S
C22 C23 1.419 . S
C22 H51 0.948 . S
C23 C22 1.419 . S
C23 C24 1.391 . S
C23 C27 1.397 . S
C24 C19 1.391 . S
C24 C23 1.391 . S
C24 C25 1.399 . S
C25 C24 1.399 . S
C25 C26 1.396 . S
C25 C28 1.453 . S
C25 C29 1.684 . S
C26 C7 1.723 . S
C26 C25 1.396 . S
C26 C27 1.394 . S
C27 C23 1.397 . S
C27 C26 1.394 . S
C27 C37 1.723 . S
C28 C25 1.453 . S
C28 H52 0.982 . S
C28 H53 0.979 . S
C28 H54 0.977 . S
C29 C25 1.684 . S
C29 H55 0.979 . S
C29 H56 0.980 . S
C29 H57 0.983 . S
C30 H6 0.948 . S
C30 C31 1.391 . S
C30 C35 1.391 . S
C31 C30 1.391 . S
C31 C32 1.391 . S
C32 H9 0.947 . S
C32 C31 1.391 . S
C32 C33 1.392 . S
C33 H10 0.948 . S
C33 C32 1.392 . S
C33 C34 1.419 . S
C34 C33 1.419 . S
C34 C35 1.391 . S
C34 C38 1.397 . S
C35 C30 1.391 . S
C35 C34 1.391 . S
C35 C36 1.399 . S
C36 C35 1.399 . S
C36 C37 1.396 . S
C36 C39 1.453 . S
C36 C40 1.684 . S
C37 C27 1.723 . S
C37 C36 1.396 . S
C37 C38 1.394 . S
C38 C8 1.723 . S
C38 C34 1.397 . S
C38 C37 1.394 . S
C39 H11 0.982 . S
C39 H15 0.979 . S
C39 H16 0.977 . S
C39 C36 1.453 . S
C40 H12 0.979 . S
C40 H13 0.980 . S
C40 H14 0.983 . S
C40 C36 1.684 . S
H41 C59 0.948 . S
H42 C0 0.948 . S
H43 C18 0.979 . S
H44 C18 0.980 . S
H45 C18 0.983 . S
H46 C17 0.982 . S
H47 C17 0.979 . S
H48 C17 0.977 . S
H49 C19 0.948 . S
H50 C21 0.947 . S
H51 C22 0.948 . S
H52 C28 0.982 . S
H53 C28 0.979 . S
H54 C28 0.977 . S
H55 C29 0.979 . S
H56 C29 0.980 . S
H57 C29 0.983 . S
H58 C2 0.947 . S
C59 C2 1.392 . S
C59 C3 1.419 . S
C59 H41 0.948 . S
C60 C61 1.391 . S
C60 C64 1.391 . S
C60 H102 0.948 . S
C61 C60 1.391 . S
C61 C62 1.391 . S
C62 C61 1.391 . S
C62 H118 0.947 . S
C62 C119 1.392 . S
C63 C64 1.391 . S
C63 C67 1.397 . S
C63 C119 1.419 . S
C64 C60 1.391 . S
C64 C63 1.391 . S
C64 C65 1.399 . S
C65 C64 1.399 . S
C65 C68 1.396 . S
C65 C77 1.453 . S
C65 C78 1.684 . S
H66 C90 0.948 . S
C67 C63 1.397 . S
C67 C68 1.394 . S
C67 C86 1.723 . S
C68 C65 1.396 . S
C68 C67 1.394 . S
C68 C98 1.723 . S
H69 C92 0.947 . S
H70 C93 0.948 . S
H71 C99 0.982 . S
H72 C100 0.979 . S
H73 C100 0.980 . S
H74 C100 0.983 . S
H75 C99 0.979 . S
H76 C99 0.977 . S
C77 C65 1.453 . S
C77 H106 0.982 . S
C77 H107 0.979 . S
C77 H108 0.977 . S
C78 C65 1.684 . S
C78 H103 0.979 . S
C78 H104 0.980 . S
C78 H105 0.983 . S
C79 C80 1.391 . S
C79 C84 1.391 . S
C79 H109 0.948 . S
C80 C79 1.391 . S
C80 C81 1.391 . S
C81 C80 1.391 . S
C81 C82 1.392 . S
C81 H110 0.947 . S
C82 C81 1.392 . S
C82 C83 1.419 . S
C82 H111 0.948 . S
C83 C82 1.419 . S
C83 C84 1.391 . S
C83 C87 1.397 . S
C84 C79 1.391 . S
C84 C83 1.391 . S
C84 C85 1.399 . S
C85 C84 1.399 . S
C85 C86 1.396 . S
C85 C88 1.453 . S
C85 C89 1.684 . S
C86 C67 1.723 . S
C86 C85 1.396 . S
C86 C87 1.394 . S
C87 C83 1.397 . S
C87 C86 1.394 . S
C87 C97 1.723 . S
C88 C85 1.453 . S
C88 H112 0.982 . S
C88 H113 0.979 . S
C88 H114 0.977 . S
C89 C85 1.684 . S
C89 H115 0.979 . S
C89 H116 0.980 . S
C89 H117 0.983 . S
C90 H66 0.948 . S
C90 C91 1.391 . S
C90 C95 1.391 . S
C91 C90 1.391 . S
C91 C92 1.391 . S
C92 H69 0.947 . S
C92 C91 1.391 . S
C92 C93 1.392 . S
C93 H70 0.948 . S
C93 C92 1.392 . S
C93 C94 1.419 . S
C94 C93 1.419 . S
C94 C95 1.391 . S
C94 C98 1.397 . S
C95 C90 1.391 . S
C95 C94 1.391 . S
C95 C96 1.399 . S
C96 C95 1.399 . S
C96 C97 1.396 . S
C96 C99 1.453 . S
C96 C100 1.684 . S
C97 C87 1.723 . S
C97 C96 1.396 . S
C97 C98 1.394 . S
C98 C68 1.723 . S
C98 C94 1.397 . S
C98 C97 1.394 . S
C99 H71 0.982 . S
C99 H75 0.979 . S
C99 H76 0.977 . S
C99 C96 1.453 . S
C100 H72 0.979 . S
C100 H73 0.980 . S
C100 H74 0.983 . S
C100 C96 1.684 . S
H101 C119 0.948 . S
H102 C60 0.948 . S
H103 C78 0.979 . S
H104 C78 0.980 . S
H105 C78 0.983 . S
H106 C77 0.982 . S
H107 C77 0.979 . S
H108 C77 0.977 . S
H109 C79 0.948 . S
H110 C81 0.947 . S
H111 C82 0.948 . S
H112 C88 0.982 . S
H113 C88 0.979 . S
H114 C88 0.977 . S
H115 C89 0.979 . S
H116 C89 0.980 . S
H117 C89 0.983 . S
H118 C62 0.947 . S
C119 C62 1.392 . S
C119 C63 1.419 . S
C119 H101 0.948 . S
C120 C121 1.391 . S
C120 C124 1.391 . S
C120 H162 0.948 . S
C121 C120 1.391 . S
C121 C122 1.391 . S
C122 C121 1.391 . S
C122 H178 0.947 . S
C122 C179 1.392 . S
C123 C124 1.391 . S
C123 C127 1.397 . S
C123 C179 1.419 . S
C124 C120 1.391 . S
C124 C123 1.391 . S
C124 C125 1.399 . S
C125 C124 1.399 . S
C125 C128 1.396 . S
C125 C137 1.453 . S
C125 C138 1.684 . S
H126 C150 0.948 . S
C127 C123 1.397 . S
C127 C128 1.394 . S
C127 C146 1.723 . S
C128 C125 1.396 . S
C128 C127 1.394 . S
C128 C158 1.723 . S
H129 C152 0.947 . S
H130 C153 0.948 . S
H131 C159 0.982 . S
H132 C160 0.979 . S
H133 C160 0.980 . S
H134 C160 0.983 . S
H135 C159 0.979 . S
H136 C159 0.977 . S
C137 C125 1.453 . S
C137 H166 0.982 . S
C137 H167 0.979 . S
C137 H168 0.977 . S
C138 C125 1.684 . S
C138 H163 0.979 . S
C138 H164 0.980 . S
C138 H165 0.983 . S
C139 C140 1.391 . S
C139 C144 1.391 . S
C139 H169 0.948 . S
C140 C139 1.391 . S
C140 C141 1.391 . S
C141 C140 1.391 . S
C141 C142 1.392 . S
C141 H170 0.947 . S
C142 C141 1.392 . S
C142 C143 1.419 . S
C142 H171 0.948 . S
C143 C142 1.419 . S
C143 C144 1.391 . S
C143 C147 1.397 . S
C144 C139 1.391 . S
C144 C143 1.391 . S
C144 C145 1.399 . S
C145 C144 1.399 . S
C145 C146 1.396 . S
C145 C148 1.453 . S
C145 C149 1.684 . S
C146 C127 1.723 . S
C146 C145 1.396 . S
C146 C147 1.394 . S
C147 C143 1.397 . S
C147 C146 1.394 . S
C147 C157 1.723 . S
C148 C145 1.453 . S
C148 H172 0.982 . S
C148 H173 0.979 . S
C148 H174 0.977 . S
C149 C145 1.684 . S
C149 H175 0.979 . S
C149 H176 0.980 . S
C149 H177 0.983 . S
C150 H126 0.948 . S
C150 C151 1.391 . S
C150 C155 1.391 . S
C151 C150 1.391 . S
C151 C152 1.391 . S
C152 H129 0.947 . S
C152 C151 1.391 . S
C152 C153 1.392 . S
C153 H130 0.948 . S
C153 C152 1.392 . S
C153 C154 1.419 . S
C154 C153 1.419 . S
C154 C155 1.391 . S
C154 C158 1.397 . S
C155 C150 1.391 . S
C155 C154 1.391 . S
C155 C156 1.399 . S
C156 C155 1.399 . S
C156 C157 1.396 . S
C156 C159 1.453 . S
C156 C160 1.684 . S
C157 C147 1.723 . S
C157 C156 1.396 . S
C157 C158 1.394 . S
C158 C128 1.723 . S
C158 C154 1.397 . S
C158 C157 1.394 . S
C159 H131 0.982 . S
C159 H135 0.979 . S
C159 H136 0.977 . S
C159 C156 1.453 . S
C160 H132 0.979 . S
C160 H133 0.980 . S
C160 H134 0.983 . S
C160 C156 1.684 . S
H161 C179 0.948 . S
H162 C120 0.948 . S
H163 C138 0.979 . S
H164 C138 0.980 . S
H165 C138 0.983 . S
H166 C137 0.982 . S
H167 C137 0.979 . S
H168 C137 0.977 . S
H169 C139 0.948 . S
H170 C141 0.947 . S
H171 C142 0.948 . S
H172 C148 0.982 . S
H173 C148 0.979 . S
H174 C148 0.977 . S
H175 C149 0.979 . S
H176 C149 0.980 . S
H177 C149 0.983 . S
H178 C122 0.947 . S
C179 C122 1.392 . S
C179 C123 1.419 . S
C179 H161 0.948 . S
C180 C181 1.391 . S
C180 C184 1.391 . S
C180 H222 0.948 . S
C181 C180 1.391 . S
C181 C182 1.391 . S
C182 C181 1.391 . S
C182 H238 0.947 . S
C182 C239 1.392 . S
C183 C184 1.391 . S
C183 C187 1.397 . S
C183 C239 1.419 . S
C184 C180 1.391 . S
C184 C183 1.391 . S
C184 C185 1.399 . S
C185 C184 1.399 . S
C185 C188 1.396 . S
C185 C197 1.453 . S
C185 C198 1.684 . S
H186 C210 0.948 . S
C187 C183 1.397 . S
C187 C188 1.394 . S
C187 C206 1.723 . S
C188 C185 1.396 . S
C188 C187 1.394 . S
C188 C218 1.723 . S
H189 C212 0.947 . S
H190 C213 0.948 . S
H191 C219 0.982 . S
H192 C220 0.979 . S
H193 C220 0.980 . S
H194 C220 0.983 . S
H195 C219 0.979 . S
H196 C219 0.977 . S
C197 C185 1.453 . S
C197 H226 0.982 . S
C197 H227 0.979 . S
C197 H228 0.977 . S
C198 C185 1.684 . S
C198 H223 0.979 . S
C198 H224 0.980 . S
C198 H225 0.983 . S
C199 C200 1.391 . S
C199 C204 1.391 . S
C199 H229 0.948 . S
C200 C199 1.391 . S
C200 C201 1.391 . S
C201 C200 1.391 . S
C201 C202 1.392 . S
C201 H230 0.947 . S
C202 C201 1.392 . S
C202 C203 1.419 . S
C202 H231 0.948 . S
C203 C202 1.419 . S
C203 C204 1.391 . S
C203 C207 1.397 . S
C204 C199 1.391 . S
C204 C203 1.391 . S
C204 C205 1.399 . S
C205 C204 1.399 . S
C205 C206 1.396 . S
C205 C208 1.453 . S
C205 C209 1.684 . S
C206 C187 1.723 . S
C206 C205 1.396 . S
C206 C207 1.394 . S
C207 C203 1.397 . S
C207 C206 1.394 . S
C207 C217 1.723 . S
C208 C205 1.453 . S
C208 H232 0.982 . S
C208 H233 0.979 . S
C208 H234 0.977 . S
C209 C205 1.684 . S
C209 H235 0.979 . S
C209 H236 0.980 . S
C209 H237 0.983 . S
C210 H186 0.948 . S
C210 C211 1.391 . S
C210 C215 1.391 . S
C211 C210 1.391 . S
C211 C212 1.391 . S
C212 H189 0.947 . S
C212 C211 1.391 . S
C212 C213 1.392 . S
C213 H190 0.948 . S
C213 C212 1.392 . S
C213 C214 1.419 . S
C214 C213 1.419 . S
C214 C215 1.391 . S
C214 C218 1.397 . S
C215 C210 1.391 . S
C215 C214 1.391 . S
C215 C216 1.399 . S
C216 C215 1.399 . S
C216 C217 1.396 . S
C216 C219 1.453 . S
C216 C220 1.684 . S
C217 C207 1.723 . S
C217 C216 1.396 . S
C217 C218 1.394 . S
C218 C188 1.723 . S
C218 C214 1.397 . S
C218 C217 1.394 . S
C219 H191 0.982 . S
C219 H195 0.979 . S
C219 H196 0.977 . S
C219 C216 1.453 . S
C220 H192 0.979 . S
C220 H193 0.980 . S
C220 H194 0.983 . S
C220 C216 1.684 . S
H221 C239 0.948 . S
H222 C180 0.948 . S
H223 C198 0.979 . S
H224 C198 0.980 . S
H225 C198 0.983 . S
H226 C197 0.982 . S
H227 C197 0.979 . S
H228 C197 0.977 . S
H229 C199 0.948 . S
H230 C201 0.947 . S
H231 C202 0.948 . S
H232 C208 0.982 . S
H233 C208 0.979 . S
H234 C208 0.977 . S
H235 C209 0.979 . S
H236 C209 0.980 . S
H237 C209 0.983 . S
H238 C182 0.947 . S
C239 C182 1.392 . S
C239 C183 1.419 . S
C239 H221 0.948 . S
C240 C241 1.391 . S
C240 C244 1.391 . S
C240 H282 0.948 . S
C241 C240 1.391 . S
C241 C242 1.391 . S
C242 C241 1.391 . S
C242 H298 0.947 . S
C242 C299 1.392 . S
C243 C244 1.391 . S
C243 C247 1.397 . S
C243 C299 1.419 . S
C244 C240 1.391 . S
C244 C243 1.391 . S
C244 C245 1.399 . S
C245 C244 1.399 . S
C245 C248 1.396 . S
C245 C257 1.453 . S
C245 C258 1.684 . S
H246 C270 0.948 . S
C247 C243 1.397 . S
C247 C248 1.394 . S
C247 C266 1.723 . S
C248 C245 1.396 . S
C248 C247 1.394 . S
C248 C278 1.723 . S
H249 C272 0.947 . S
H250 C273 0.948 . S
H251 C279 0.982 . S
H252 C280 0.979 . S
H253 C280 0.980 . S
H254 C280 0.983 . S
H255 C279 0.979 . S
H256 C279 0.977 . S
C257 C245 1.453 . S
C257 H286 0.982 . S
C257 H287 0.979 . S
C257 H288 0.977 . S
C258 C245 1.684 . S
C258 H283 0.979 . S
C258 H284 0.980 . S
C258 H285 0.983 . S
C259 C260 1.391 . S
C259 C264 1.391 . S
C259 H289 0.948 . S
C260 C259 1.391 . S
C260 C261 1.391 . S
C261 C260 1.391 . S
C261 C262 1.392 . S
C261 H290 0.947 . S
C262 C261 1.392 . S
C262 C263 1.419 . S
C262 H291 0.948 . S
C263 C262 1.419 . S
C263 C264 1.391 . S
C263 C267 1.397 . S
C264 C259 1.391 . S
C264 C263 1.391 . S
C264 C265 1.399 . S
C265 C264 1.399 . S
C265 C266 1.396 . S
C265 C268 1.453 . S
C265 C269 1.684 . S
C266 C247 1.723 . S
C266 C265 1.396 . S
C266 C267 1.394 . S
C267 C263 1.397 . S
C267 C266 1.394 . S
C267 C277 1.723 . S
C268 C265 1.453 . S
C268 H292 0.982 . S
C268 H293 0.979 . S
C268 H294 0.977 . S
C269 C265 1.684 . S
C269 H295 0.979 . S
C269 H296 0.980 . S
C269 H297 0.983 . S
C270 H246 0.948 . S
C270 C271 1.391 . S
C270 C275 1.391 . S
C271 C270 1.391 . S
C271 C272 1.391 . S
C272 H249 0.947 . S
C272 C271 1.391 . S
C272 C273 1.392 . S
C273 H250 0.948 . S
C273 C272 1.392 . S
C273 C274 1.419 . S
C274 C273 1.419 . S
C274 C275 1.391 . S
C274 C278 1.397 . S
C275 C270 1.391 . S
C275 C274 1.391 . S
C275 C276 1.399 . S
C276 C275 1.399 . S
C276 C277 1.396 . S
C276 C279 1.453 . S
C276 C280 1.684 . S
C277 C267 1.723 . S
C277 C276 1.396 . S
C277 C278 1.394 . S
C278 C248 1.723 . S
C278 C274 1.397 . S
C278 C277 1.394 . S
C279 H251 0.982 . S
C279 H255 0.979 . S
C279 H256 0.977 . S
C279 C276 1.453 . S
C280 H252 0.979 . S
C280 H253 0.980 . S
C280 H254 0.983 . S
C280 C276 1.684 . S
H281 C299 0.948 . S
H282 C240 0.948 . S
H283 C258 0.979 . S
H284 C258 0.980 . S
H285 C258 0.983 . S
H286 C257 0.982 . S
H287 C257 0.979 . S
H288 C257 0.977 . S
H289 C259 0.948 . S
H290 C261 0.947 . S
H291 C262 0.948 . S
H292 C268 0.982 . S
H293 C268 0.979 . S
H294 C268 0.977 . S
H295 C269 0.979 . S
H296 C269 0.980 . S
H297 C269 0.983 . S
H298 C242 0.947 . S
C299 C242 1.392 . S
C299 C243 1.419 . S
C299 H281 0.948 . S
C300 C301 1.391 . S
C300 C304 1.391 . S
C300 H342 0.948 . S
C301 C300 1.391 . S
C301 C302 1.391 . S
C302 C301 1.391 . S
C302 H358 0.947 . S
C302 C359 1.392 . S
C303 C304 1.391 . S
C303 C307 1.397 . S
C303 C359 1.419 . S
C304 C300 1.391 . S
C304 C303 1.391 . S
C304 C305 1.399 . S
C305 C304 1.399 . S
C305 C308 1.396 . S
C305 C317 1.453 . S
C305 C318 1.684 . S
H306 C330 0.948 . S
C307 C303 1.397 . S
C307 C308 1.394 . S
C307 C326 1.723 . S
C308 C305 1.396 . S
C308 C307 1.394 . S
C308 C338 1.723 . S
H309 C332 0.947 . S
H310 C333 0.948 . S
H311 C339 0.982 . S
H312 C340 0.979 . S
H313 C340 0.980 . S
H314 C340 0.983 . S
H315 C339 0.979 . S
H316 C339 0.977 . S
C317 C305 1.453 . S
C317 H346 0.982 . S
C317 H347 0.979 . S
C317 H348 0.977 . S
C318 C305 1.684 . S
C318 H343 0.979 . S
C318 H344 0.980 . S
C318 H345 0.983 . S
C319 C320 1.391 . S
C319 C324 1.391 . S
C319 H349 0.948 . S
C320 C319 1.391 . S
C320 C321 1.391 . S
C321 C320 1.391 . S
C321 C322 1.392 . S
C321 H350 0.947 . S
C322 C321 1.392 . S
C322 C323 1.419 . S
C322 H351 0.948 . S
C323 C322 1.419 . S
C323 C324 1.391 . S
C323 C327 1.397 . S
C324 C319 1.391 . S
C324 C323 1.391 . S
C324 C325 1.399 . S
C325 C324 1.399 . S
C325 C326 1.396 . S
C325 C328 1.453 . S
C325 C329 1.684 . S
C326 C307 1.723 . S
C326 C325 1.396 . S
C326 C327 1.394 . S
C327 C323 1.397 . S
C327 C326 1.394 . S
C327 C337 1.723 . S
C328 C325 1.453 . S
C328 H352 0.982 . S
C328 H353 0.979 . S
C328 H354 0.977 . S
C329 C325 1.684 . S
C329 H355 0.979 . S
C329 H356 0.980 . S
C329 H357 0.983 . S
C330 H306 0.948 . S
C330 C331 1.391 . S
C330 C335 1.391 . S
C331 C330 1.391 . S
C331 C332 1.391 . S
C332 H309 0.947 . S
C332 C331 1.391 . S
C332 C333 1.392 . S
C333 H310 0.948 . S
C333 C332 1.392 . S
C333 C334 1.419 . S
C334 C333 1.419 . S
C334 C335 1.391 . S
C334 C338 1.397 . S
C335 C330 1.391 . S
C335 C334 1.391 . S
C335 C336 1.399 . S
C336 C335 1.399 . S
C336 C337 1.396 . S
C336 C339 1.453 . S
C336 C340 1.684 . S
C337 C327 1.723 . S
C337 C336 1.396 . S
C337 C338 1.394 . S
C338 C308 1.723 . S
C338 C334 1.397 . S
C338 C337 1.394 . S
C339 H311 0.982 . S
C339 H315 0.979 . S
C339 H316 0.977 . S
C339 C336 1.453 . S
C340 H312 0.979 . S
C340 H313 0.980 . S
C340 H314 0.983 . S
C340 C336 1.684 . S
H341 C359 0.948 . S
H342 C300 0.948 . S
H343 C318 0.979 . S
H344 C318 0.980 . S
H345 C318 0.983 . S
H346 C317 0.982 . S
H347 C317 0.979 . S
H348 C317 0.977 . S
H349 C319 0.948 . S
H350 C321 0.947 . S
H351 C322 0.948 . S
H352 C328 0.982 . S
H353 C328 0.979 . S
H354 C328 0.977 . S
H355 C329 0.979 . S
H356 C329 0.980 . S
H357 C329 0.983 . S
H358 C302 0.947 . S
C359 C302 1.392 . S
C359 C303 1.419 . S
C359 H341 0.948 . S
C360 C361 1.391 . S
C360 C364 1.391 . S
C360 H402 0.948 . S
C361 C360 1.391 . S
C361 C362 1.391 . S
C362 C361 1.391 . S
C362 H418 0.947 . S
C362 C419 1.392 . S
C363 C364 1.391 . S
C363 C367 1.397 . S
C363 C419 1.419 . S
C364 C360 1.391 . S
C364 C363 1.391 . S
C364 C365 1.399 . S
C365 C364 1.399 . S
C365 C368 1.396 . S
C365 C377 1.453 . S
C365 C378 1.684 . S
H366 C390 0.948 . S
C367 C363 1.397 . S
C367 C368 1.394 . S
C367 C386 1.723 . S
C368 C365 1.396 . S
C368 C367 1.394 . S
C368 C398 1.723 . S
H369 C392 0.947 . S
H370 C393 0.948 . S
H371 C399 0.982 . S
H372 C400 0.979 . S
H373 C400 0.980 . S
H374 C400 0.983 . S
H375 C399 0.979 . S
H376 C399 0.977 . S
C377 C365 1.453 . S
C377 H406 0.982 . S
C377 H407 0.979 . S
C377 H408 0.977 . S
C378 C365 1.684 . S
C378 H403 0.979 . S
C378 H404 0.980 . S
C378 H405 0.983 . S
C379 C380 1.391 . S
C379 C384 1.391 . S
C379 H409 0.948 . S
C380 C379 1.391 . S
C380 C381 1.391 . S
C381 C380 1.391 . S
C381 C382 1.392 . S
C381 H410 0.947 . S
C382 C381 1.392 . S
C382 C383 1.419 . S
C382 H411 0.948 . S
C383 C382 1.419 . S
C383 C384 1.391 . S
C383 C387 1.397 . S
C384 C379 1.391 . S
C384 C383 1.391 . S
C384 C385 1.399 . S
C385 C384 1.399 . S
C385 C386 1.396 . S
C385 C388 1.453 . S
C385 C389 1.684 . S
C386 C367 1.723 . S
C386 C385 1.396 . S
C386 C387 1.394 . S
C387 C383 1.397 . S
C387 C386 1.394 . S
C387 C397 1.723 . S
C388 C385 1.453 . S
C388 H412 0.982 . S
C388 H413 0.979 . S
C388 H414 0.977 . S
C389 C385 1.684 . S
C389 H415 0.979 . S
C389 H416 0.980 . S
C389 H417 0.983 . S
C390 H366 0.948 . S
C390 C391 1.391 . S
C390 C395 1.391 . S
C391 C390 1.391 . S
C391 C392 1.391 . S
C392 H369 0.947 . S
C392 C391 1.391 . S
C392 C393 1.392 . S
C393 H370 0.948 . S
C393 C392 1.392 . S
C393 C394 1.419 . S
C394 C393 1.419 . S
C394 C395 1.391 . S
C394 C398 1.397 . S
C395 C390 1.391 . S
C395 C394 1.391 . S
C395 C396 1.399 . S
C396 C395 1.399 . S
C396 C397 1.396 . S
C396 C399 1.453 . S
C396 C400 1.684 . S
C397 C387 1.723 . S
C397 C396 1.396 . S
C397 C398 1.394 . S
C398 C368 1.723 . S
C398 C394 1.397 . S
C398 C397 1.394 . S
C399 H371 0.982 . S
C399 H375 0.979 . S
C399 H376 0.977 . S
C399 C396 1.453 . S
C400 H372 0.979 . S
C400 H373 0.980 . S
C400 H374 0.983 . S
C400 C396 1.684 . S
H401 C419 0.948 . S
H402 C360 0.948 . S
H403 C378 0.979 . S
H404 C378 0.980 . S
H405 C378 0.983 . S
H406 C377 0.982 . S
H407 C377 0.979 . S
H408 C377 0.977 . S
H409 C379 0.948 . S
H410 C381 0.947 . S
H411 C382 0.948 . S
H412 C388 0.982 . S
H413 C388 0.979 . S
H414 C388 0.977 . S
H415 C389 0.979 . S
H416 C389 0.980 . S
H417 C389 0.983 . S
H418 C362 0.947 . S
C419 C362 1.392 . S
C419 C363 1.419 . S
C419 H401 0.948 . S
C420 C421 1.391 . S
C420 C424 1.391 . S
C420 H462 0.948 . S
C421 C420 1.391 . S
C421 C422 1.391 . S
C422 C421 1.391 . S
C422 H478 0.947 . S
C422 C479 1.392 . S
C423 C424 1.391 . S
C423 C427 1.397 . S
C423 C479 1.419 . S
C424 C420 1.391 . S
C424 C423 1.391 . S
C424 C425 1.399 . S
C425 C424 1.399 . S
C425 C428 1.396 . S
C425 C437 1.453 . S
C425 C438 1.684 . S
H426 C450 0.948 . S
C427 C423 1.397 . S
C427 C428 1.394 . S
C427 C446 1.723 . S
C428 C425 1.396 . S
C428 C427 1.394 . S
C428 C458 1.723 . S
H429 C452 0.947 . S
H430 C453 0.948 . S
H431 C459 0.982 . S
H432 C460 0.979 . S
H433 C460 0.980 . S
H434 C460 0.983 . S
H435 C459 0.979 . S
H436 C459 0.977 . S
C437 C425 1.453 . S
C437 H466 0.982 . S
C437 H467 0.979 . S
C437 H468 0.977 . S
C438 C425 1.684 . S
C438 H463 0.979 . S
C438 H464 0.980 . S
C438 H465 0.983 . S
C439 C440 1.391 . S
C439 C444 1.391 . S
C439 H469 0.948 . S
C440 C439 1.391 . S
C440 C441 1.391 . S
C441 C440 1.391 . S
C441 C442 1.392 . S
C441 H470 0.947 . S
C442 C441 1.392 . S
C442 C443 1.419 . S
C442 H471 0.948 . S
C443 C442 1.419 . S
C443 C444 1.391 . S
C443 C447 1.397 . S
C444 C439 1.391 . S
C444 C443 1.391 . S
C444 C445 1.399 . S
C445 C444 1.399 . S
C445 C446 1.396 . S
C445 C448 1.453 . S
C445 C449 1.684 . S
C446 C427 1.723 . S
C446 C445 1.396 . S
C446 C447 1.394 . S
C447 C443 1.397 . S
C447 C446 1.394 . S
C447 C457 1.723 . S
C448 C445 1.453 . S
C448 H472 0.982 . S
C448 H473 0.979 . S
C448 H474 0.977 . S
C449 C445 1.684 . S
C449 H475 0.979 . S
C449 H476 0.980 . S
C449 H477 0.983 . S
C450 H426 0.948 . S
C450 C451 1.391 . S
C450 C455 1.391 . S
C451 C450 1.391 . S
C451 C452 1.391 . S
C452 H429 0.947 . S
C452 C451 1.391 . S
C452 C453 1.392 . S
C453 H430 0.948 . S
C453 C452 1.392 . S
C453 C454 1.419 . S
C454 C453 1.419 . S
C454 C455 1.391 . S
C454 C458 1.397 . S
C455 C450 1.391 . S
C455 C454 1.391 . S
C455 C456 1.399 . S
C456 C455 1.399 . S
C456 C457 1.396 . S
C456 C459 1.453 . S
C456 C460 1.684 . S
C457 C447 1.723 . S
C457 C456 1.396 . S
C457 C458 1.394 . S
C458 C428 1.723 . S
C458 C454 1.397 . S
C458 C457 1.394 . S
C459 H431 0.982 . S
C459 H435 0.979 . S
C459 H436 0.977 . S
C459 C456 1.453 . S
C460 H432 0.979 . S
C460 H433 0.980 . S
C460 H434 0.983 . S
C460 C456 1.684 . S
H461 C479 0.948 . S
H462 C420 0.948 . S
H463 C438 0.979 . S
H464 C438 0.980 . S
H465 C438 0.983 . S
H466 C437 0.982 . S
H467 C437 0.979 . S
H468 C437 0.977 . S
H469 C439 0.948 . S
H470 C441 0.947 . S
H471 C442 0.948 . S
H472 C448 0.982 . S
H473 C448 0.979 . S
H474 C448 0.977 . S
H475 C449 0.979 . S
H476 C449 0.980 . S
H477 C449 0.983 . S
H478 C422 0.947 . S
C479 C422 1.392 . S
C479 C423 1.419 . S
C479 H461 0.948 . S
C480 C482 1.422 . S
C480 C484 1.415 . S
C480 N486 1.369 . S
C481 C482 1.421 . S
C481 C483 1.417 . S
C481 C493 1.422 . S
C482 C480 1.422 . S
C482 C481 1.421 . S
C482 N492 1.359 . S
C483 C481 1.417 . S
C483 C485 1.329 . S
C483 H502 0.930 . S
C484 C480 1.415 . S
C484 C485 1.437 . S
C484 C488 1.413 . S
C485 C483 1.329 . S
C485 C484 1.437 . S
C485 H507 0.929 . S
N486 C480 1.369 . S
N486 C487 1.338 . S
N486 Gd491 2.622 . S
C487 N486 1.338 . S
C487 C489 1.378 . S
C487 H499 0.929 . S
C488 C484 1.413 . S
C488 C489 1.348 . S
C488 H504 0.931 . S
C489 C487 1.378 . S
C489 C488 1.348 . S
C489 H505 0.930 . S
Gd490 N510 2.622 . S
Gd490 N517 2.570 . S
Gd490 O524 2.353 . S
Gd490 O525 2.468 . S
Gd490 O526 2.427 . S
Gd490 O528 2.388 . S
Gd490 O529 2.386 . S
Gd490 O533 2.310 . S
Gd490 C543 2.805 . S
Gd491 N486 2.622 . S
Gd491 N492 2.570 . S
Gd491 O523 2.386 . S
Gd491 O527 2.307 1_655 S
Gd491 O530 2.344 1_655 S
Gd491 O531 2.468 . S
Gd491 O532 2.427 . S
Gd491 O534 2.388 . S
Gd491 C555 2.805 . S
N492 C482 1.359 . S
N492 Gd491 2.570 . S
N492 C494 1.343 . S
C493 C481 1.422 . S
C493 C495 1.321 . S
C493 H501 0.931 . S
C494 N492 1.343 . S
C494 C495 1.390 . S
C494 H496 0.931 . S
C495 C493 1.321 . S
C495 C494 1.390 . S
C495 H497 0.930 . S
H496 C494 0.931 . S
H497 C495 0.930 . S
H498 C521 0.931 . S
H499 C487 0.929 . S
H500 C522 0.930 . S
H501 C493 0.931 . S
H502 C483 0.930 . S
H503 C512 0.929 . S
H504 C488 0.931 . S
H505 C489 0.930 . S
H506 C544 0.930 . S
H507 C485 0.929 . S
H508 C513 0.931 . S
H509 C514 0.930 . S
N510 Gd490 2.622 . S
N510 C511 1.369 . S
N510 C512 1.338 . S
C511 N510 1.369 . S
C511 C515 1.415 . S
C511 C518 1.422 . S
C512 H503 0.929 . S
C512 N510 1.338 . S
C512 C514 1.378 . S
C513 H508 0.931 . S
C513 C514 1.348 . S
C513 C515 1.413 . S
C514 H509 0.930 . S
C514 C512 1.378 . S
C514 C513 1.348 . S
C515 C511 1.415 . S
C515 C513 1.413 . S
C515 C545 1.437 . S
H516 C545 0.929 . S
N517 Gd490 2.570 . S
N517 C518 1.359 . S
N517 C521 1.343 . S
C518 C511 1.422 . S
C518 N517 1.359 . S
C518 C520 1.421 . S
C519 C520 1.422 . S
C519 C522 1.321 . S
C519 H546 0.931 . S
C520 C518 1.421 . S
C520 C519 1.422 . S
C520 C544 1.417 . S
C521 H498 0.931 . S
C521 N517 1.343 . S
C521 C522 1.390 . S
C522 H500 0.930 . S
C522 C519 1.321 . S
C522 C521 1.390 . S
O523 Gd491 2.386 . S
O523 C535 1.265 . S
O524 Gd490 2.353 . S
O524 C535 1.242 1_455 S
O525 Gd490 2.468 . S
O525 C543 1.263 . S
O526 Gd490 2.427 . S
O526 C543 1.252 . S
O527 Gd491 2.307 1_455 S
O527 C536 1.261 . S
O528 Gd490 2.388 . S
O528 C536 1.252 . S
O529 Gd490 2.386 . S
O529 C547 1.265 . S
O530 Gd491 2.344 1_455 S
O530 C547 1.253 . S
O531 Gd491 2.468 . S
O531 C555 1.263 . S
O532 Gd491 2.427 . S
O532 C555 1.252 . S
O533 Gd490 2.310 . S
O533 C548 1.257 1_455 S
O534 Gd491 2.388 . S
O534 C548 1.252 . S
C535 O523 1.265 . S
C535 O524 1.242 1_655 S
C536 O527 1.261 . S
C536 O528 1.252 . S
C537 C540 1.394 . S
C537 C542 1.370 . S
C537 C543 1.500 . S
C538 C541 1.383 . S
C538 C542 1.395 . S
C539 C540 1.396 . S
C539 C541 1.365 . S
C539 H556 0.929 . S
C540 C537 1.394 . S
C540 C539 1.396 . S
C540 H557 0.930 . S
C541 C538 1.383 . S
C541 C539 1.365 . S
C541 H558 0.931 . S
C542 C537 1.370 . S
C542 C538 1.395 . S
C542 H559 0.930 . S
C543 Gd490 2.805 . S
C543 O525 1.263 . S
C543 O526 1.252 . S
C543 C537 1.500 . S
C544 H506 0.930 . S
C544 C520 1.417 . S
C544 C545 1.329 . S
C545 C515 1.437 . S
C545 H516 0.929 . S
C545 C544 1.329 . S
H546 C519 0.931 . S
C547 O529 1.265 . S
C547 O530 1.253 . S
C548 O533 1.257 1_655 S
C548 O534 1.252 . S
C549 C552 1.394 . S
C549 C554 1.370 . S
C549 C555 1.500 . S
C550 C553 1.383 . S
C550 C554 1.395 . S
C551 C552 1.396 . S
C551 C553 1.365 . S
C551 H560 0.929 . S
C552 C549 1.394 . S
C552 C551 1.396 . S
C552 H561 0.930 . S
C553 C550 1.383 . S
C553 C551 1.365 . S
C553 H562 0.931 . S
C554 C549 1.370 . S
C554 C550 1.395 . S
C554 H563 0.930 . S
C555 Gd491 2.805 . S
C555 O531 1.263 . S
C555 O532 1.252 . S
C555 C549 1.500 . S
H556 C539 0.929 . S
H557 C540 0.930 . S
H558 C541 0.931 . S
H559 C542 0.930 . S
H560 C551 0.929 . S
H561 C552 0.930 . S
H562 C553 0.931 . S
H563 C554 0.930 . S
C564 C566 1.422 . S
C564 C568 1.415 . S
C564 N570 1.369 . S
C565 C566 1.421 . S
C565 C567 1.417 . S
C565 C577 1.422 . S
C566 C564 1.422 . S
C566 C565 1.421 . S
C566 N576 1.359 . S
C567 C565 1.417 . S
C567 C569 1.329 . S
C567 H586 0.930 . S
C568 C564 1.415 . S
C568 C569 1.437 . S
C568 C572 1.413 . S
C569 C567 1.329 . S
C569 C568 1.437 . S
C569 H591 0.929 . S
N570 C564 1.369 . S
N570 C571 1.338 . S
N570 Gd575 2.622 . S
C571 N570 1.338 . S
C571 C573 1.378 . S
C571 H583 0.929 . S
C572 C568 1.413 . S
C572 C573 1.348 . S
C572 H588 0.931 . S
C573 C571 1.378 . S
C573 C572 1.348 . S
C573 H589 0.930 . S
Gd574 N594 2.622 . S
Gd574 N601 2.570 . S
Gd574 O608 2.353 . S
Gd574 O609 2.468 . S
Gd574 O610 2.427 . S
Gd574 O612 2.388 . S
Gd574 O613 2.386 . S
Gd574 O617 2.307 . S
Gd574 C627 2.805 . S
Gd575 N570 2.622 . S
Gd575 N576 2.570 . S
Gd575 O607 2.386 . S
Gd575 O611 2.307 . S
Gd575 O614 2.353 . S
Gd575 O615 2.468 . S
Gd575 O616 2.427 . S
Gd575 O618 2.388 . S
Gd575 C639 2.805 . S
N576 C566 1.359 . S
N576 Gd575 2.570 . S
N576 C578 1.343 . S
C577 C565 1.422 . S
C577 C579 1.321 . S
C577 H585 0.931 . S
C578 N576 1.343 . S
C578 C579 1.390 . S
C578 H580 0.931 . S
C579 C577 1.321 . S
C579 C578 1.390 . S
C579 H581 0.930 . S
H580 C578 0.931 . S
H581 C579 0.930 . S
H582 C605 0.931 . S
H583 C571 0.929 . S
H584 C606 0.930 . S
H585 C577 0.931 . S
H586 C567 0.930 . S
H587 C596 0.929 . S
H588 C572 0.931 . S
H589 C573 0.930 . S
H590 C628 0.930 . S
H591 C569 0.929 . S
H592 C597 0.931 . S
H593 C598 0.930 . S
N594 Gd574 2.622 . S
N594 C595 1.369 . S
N594 C596 1.338 . S
C595 N594 1.369 . S
C595 C599 1.415 . S
C595 C602 1.422 . S
C596 H587 0.929 . S
C596 N594 1.338 . S
C596 C598 1.378 . S
C597 H592 0.931 . S
C597 C598 1.348 . S
C597 C599 1.413 . S
C598 H593 0.930 . S
C598 C596 1.378 . S
C598 C597 1.348 . S
C599 C595 1.415 . S
C599 C597 1.413 . S
C599 C629 1.437 . S
H600 C629 0.929 . S
N601 Gd574 2.570 . S
N601 C602 1.359 . S
N601 C605 1.343 . S
C602 C595 1.422 . S
C602 N601 1.359 . S
C602 C604 1.421 . S
C603 C604 1.422 . S
C603 C606 1.321 . S
C603 H630 0.931 . S
C604 C602 1.421 . S
C604 C603 1.422 . S
C604 C628 1.417 . S
C605 H582 0.931 . S
C605 N601 1.343 . S
C605 C606 1.390 . S
C606 H584 0.930 . S
C606 C603 1.321 . S
C606 C605 1.390 . S
O607 Gd575 2.386 . S
O607 C619 1.265 . S
O608 Gd574 2.353 . S
O608 C619 1.242 . S
O609 Gd574 2.468 . S
O609 C627 1.263 . S
O610 Gd574 2.427 . S
O610 C627 1.252 . S
O611 Gd575 2.307 . S
O611 C620 1.261 . S
O612 Gd574 2.388 . S
O612 C620 1.252 . S
O613 Gd574 2.386 . S
O613 C631 1.265 . S
O614 Gd575 2.353 . S
O614 C631 1.242 . S
O615 Gd575 2.468 . S
O615 C639 1.263 . S
O616 Gd575 2.427 . S
O616 C639 1.252 . S
O617 Gd574 2.307 . S
O617 C632 1.261 . S
O618 Gd575 2.388 . S
O618 C632 1.252 . S
C619 O607 1.265 . S
C619 O608 1.242 . S
C620 O611 1.261 . S
C620 O612 1.252 . S
C621 C624 1.394 . S
C621 C626 1.370 . S
C621 C627 1.500 . S
C622 C625 1.383 . S
C622 C626 1.395 . S
C623 C624 1.396 . S
C623 C625 1.365 . S
C623 H640 0.929 . S
C624 C621 1.394 . S
C624 C623 1.396 . S
C624 H641 0.930 . S
C625 C622 1.383 . S
C625 C623 1.365 . S
C625 H642 0.931 . S
C626 C621 1.370 . S
C626 C622 1.395 . S
C626 H643 0.930 . S
C627 Gd574 2.805 . S
C627 O609 1.263 . S
C627 O610 1.252 . S
C627 C621 1.500 . S
C628 H590 0.930 . S
C628 C604 1.417 . S
C628 C629 1.329 . S
C629 C599 1.437 . S
C629 H600 0.929 . S
C629 C628 1.329 . S
H630 C603 0.931 . S
C631 O613 1.265 . S
C631 O614 1.242 . S
C632 O617 1.261 . S
C632 O618 1.252 . S
C633 C636 1.394 . S
C633 C638 1.370 . S
C633 C639 1.500 . S
C634 C637 1.383 . S
C634 C638 1.395 . S
C635 C636 1.396 . S
C635 C637 1.365 . S
C635 H644 0.929 . S
C636 C633 1.394 . S
C636 C635 1.396 . S
C636 H645 0.930 . S
C637 C634 1.383 . S
C637 C635 1.365 . S
C637 H646 0.931 . S
C638 C633 1.370 . S
C638 C634 1.395 . S
C638 H647 0.930 . S
C639 Gd575 2.805 . S
C639 O615 1.263 . S
C639 O616 1.252 . S
C639 C633 1.500 . S
H640 C623 0.929 . S
H641 C624 0.930 . S
H642 C625 0.931 . S
H643 C626 0.930 . S
H644 C635 0.929 . S
H645 C636 0.930 . S
H646 C637 0.931 . S
H647 C638 0.930 . S
C648 C650 1.422 . S
C648 C652 1.415 . S
C648 N654 1.369 . S
C649 C650 1.421 . S
C649 C651 1.417 . S
C649 C661 1.422 . S
C650 C648 1.422 . S
C650 C649 1.421 . S
C650 N660 1.359 . S
C651 C649 1.417 . S
C651 C653 1.329 . S
C651 H670 0.930 . S
C652 C648 1.415 . S
C652 C653 1.437 . S
C652 C656 1.413 . S
C653 C651 1.329 . S
C653 C652 1.437 . S
C653 H675 0.929 . S
N654 C648 1.369 . S
N654 C655 1.338 . S
N654 Gd659 2.622 . S
C655 N654 1.338 . S
C655 C657 1.378 . S
C655 H667 0.929 . S
C656 C652 1.413 . S
C656 C657 1.348 . S
C656 H672 0.931 . S
C657 C655 1.378 . S
C657 C656 1.348 . S
C657 H673 0.930 . S
Gd658 N678 2.622 . S
Gd658 N685 2.570 . S
Gd658 O692 2.353 . S
Gd658 O693 2.468 . S
Gd658 O694 2.427 . S
Gd658 O696 2.388 . S
Gd658 O697 2.386 . S
Gd658 O701 2.307 . S
Gd658 C711 2.805 . S
Gd659 N654 2.622 . S
Gd659 N660 2.570 . S
Gd659 O691 2.386 . S
Gd659 O695 2.307 1_655 S
Gd659 O698 2.353 1_655 S
Gd659 O699 2.468 . S
Gd659 O700 2.427 . S
Gd659 O702 2.388 . S
Gd659 C723 2.805 . S
N660 C650 1.359 . S
N660 Gd659 2.570 . S
N660 C662 1.343 . S
C661 C649 1.422 . S
C661 C663 1.321 . S
C661 H669 0.931 . S
C662 N660 1.343 . S
C662 C663 1.390 . S
C662 H664 0.931 . S
C663 C661 1.321 . S
C663 C662 1.390 . S
C663 H665 0.930 . S
H664 C662 0.931 . S
H665 C663 0.930 . S
H666 C689 0.931 . S
H667 C655 0.929 . S
H668 C690 0.930 . S
H669 C661 0.931 . S
H670 C651 0.930 . S
H671 C680 0.929 . S
H672 C656 0.931 . S
H673 C657 0.930 . S
H674 C712 0.930 . S
H675 C653 0.929 . S
H676 C681 0.931 . S
H677 C682 0.930 . S
N678 Gd658 2.622 . S
N678 C679 1.369 . S
N678 C680 1.338 . S
C679 N678 1.369 . S
C679 C683 1.415 . S
C679 C686 1.422 . S
C680 H671 0.929 . S
C680 N678 1.338 . S
C680 C682 1.378 . S
C681 H676 0.931 . S
C681 C682 1.348 . S
C681 C683 1.413 . S
C682 H677 0.930 . S
C682 C680 1.378 . S
C682 C681 1.348 . S
C683 C679 1.415 . S
C683 C681 1.413 . S
C683 C713 1.437 . S
H684 C713 0.929 . S
N685 Gd658 2.570 . S
N685 C686 1.359 . S
N685 C689 1.343 . S
C686 C679 1.422 . S
C686 N685 1.359 . S
C686 C688 1.421 . S
C687 C688 1.422 . S
C687 C690 1.321 . S
C687 H714 0.931 . S
C688 C686 1.421 . S
C688 C687 1.422 . S
C688 C712 1.417 . S
C689 H666 0.931 . S
C689 N685 1.343 . S
C689 C690 1.390 . S
C690 H668 0.930 . S
C690 C687 1.321 . S
C690 C689 1.390 . S
O691 Gd659 2.386 . S
O691 C703 1.265 . S
O692 Gd658 2.353 . S
O692 C703 1.242 1_455 S
O693 Gd658 2.468 . S
O693 C711 1.263 . S
O694 Gd658 2.427 . S
O694 C711 1.252 . S
O695 Gd659 2.307 1_455 S
O695 C704 1.261 . S
O696 Gd658 2.388 . S
O696 C704 1.252 . S
O697 Gd658 2.386 . S
O697 C715 1.265 . S
O698 Gd659 2.353 1_455 S
O698 C715 1.242 . S
O699 Gd659 2.468 . S
O699 C723 1.263 . S
O700 Gd659 2.427 . S
O700 C723 1.252 . S
O701 Gd658 2.307 . S
O701 C716 1.261 1_455 S
O702 Gd659 2.388 . S
O702 C716 1.252 . S
C703 O691 1.265 . S
C703 O692 1.242 1_655 S
C704 O695 1.261 . S
C704 O696 1.252 . S
C705 C708 1.394 . S
C705 C710 1.370 . S
C705 C711 1.500 . S
C706 C709 1.383 . S
C706 C710 1.395 . S
C707 C708 1.396 . S
C707 C709 1.365 . S
C707 H724 0.929 . S
C708 C705 1.394 . S
C708 C707 1.396 . S
C708 H725 0.930 . S
C709 C706 1.383 . S
C709 C707 1.365 . S
C709 H726 0.931 . S
C710 C705 1.370 . S
C710 C706 1.395 . S
C710 H727 0.930 . S
C711 Gd658 2.805 . S
C711 O693 1.263 . S
C711 O694 1.252 . S
C711 C705 1.500 . S
C712 H674 0.930 . S
C712 C688 1.417 . S
C712 C713 1.329 . S
C713 C683 1.437 . S
C713 H684 0.929 . S
C713 C712 1.329 . S
H714 C687 0.931 . S
C715 O697 1.265 . S
C715 O698 1.242 . S
C716 O701 1.261 1_655 S
C716 O702 1.252 . S
C717 C720 1.394 . S
C717 C722 1.370 . S
C717 C723 1.500 . S
C718 C721 1.383 . S
C718 C722 1.395 . S
C719 C720 1.396 . S
C719 C721 1.365 . S
C719 H728 0.929 . S
C720 C717 1.394 . S
C720 C719 1.396 . S
C720 H729 0.930 . S
C721 C718 1.383 . S
C721 C719 1.365 . S
C721 H730 0.931 . S
C722 C717 1.370 . S
C722 C718 1.395 . S
C722 H731 0.930 . S
C723 Gd659 2.805 . S
C723 O699 1.263 . S
C723 O700 1.252 . S
C723 C717 1.500 . S
H724 C707 0.929 . S
H725 C708 0.930 . S
H726 C709 0.931 . S
H727 C710 0.930 . S
H728 C719 0.929 . S
H729 C720 0.930 . S
H730 C721 0.931 . S
H731 C722 0.930 . S
C732 C734 1.422 . S
C732 C736 1.415 . S
C732 N738 1.369 . S
C733 C734 1.421 . S
C733 C735 1.417 . S
C733 C745 1.422 . S
C734 C732 1.422 . S
C734 C733 1.421 . S
C734 N744 1.359 . S
C735 C733 1.417 . S
C735 C737 1.329 . S
C735 H754 0.930 . S
C736 C732 1.415 . S
C736 C737 1.437 . S
C736 C740 1.413 . S
C737 C735 1.329 . S
C737 C736 1.437 . S
C737 H759 0.929 . S
N738 C732 1.369 . S
N738 C739 1.338 . S
N738 Gd743 2.622 . S
C739 N738 1.338 . S
C739 C741 1.378 . S
C739 H751 0.929 . S
C740 C736 1.413 . S
C740 C741 1.348 . S
C740 H756 0.931 . S
C741 C739 1.378 . S
C741 C740 1.348 . S
C741 H757 0.930 . S
Gd742 N762 2.622 . S
Gd742 N769 2.570 . S
Gd742 O776 2.353 . S
Gd742 O777 2.468 . S
Gd742 O778 2.427 . S
Gd742 O780 2.388 . S
Gd742 O781 2.386 . S
Gd742 O785 2.307 . S
Gd742 C795 2.805 . S
Gd743 N738 2.622 . S
Gd743 N744 2.570 . S
Gd743 O775 2.386 . S
Gd743 O779 2.307 . S
Gd743 O782 2.353 . S
Gd743 O783 2.468 . S
Gd743 O784 2.427 . S
Gd743 O786 2.388 . S
Gd743 C807 2.805 . S
N744 C734 1.359 . S
N744 Gd743 2.570 . S
N744 C746 1.343 . S
C745 C733 1.422 . S
C745 C747 1.321 . S
C745 H753 0.931 . S
C746 N744 1.343 . S
C746 C747 1.390 . S
C746 H748 0.931 . S
C747 C745 1.321 . S
C747 C746 1.390 . S
C747 H749 0.930 . S
H748 C746 0.931 . S
H749 C747 0.930 . S
H750 C773 0.931 . S
H751 C739 0.929 . S
H752 C774 0.930 . S
H753 C745 0.931 . S
H754 C735 0.930 . S
H755 C764 0.929 . S
H756 C740 0.931 . S
H757 C741 0.930 . S
H758 C796 0.930 . S
H759 C737 0.929 . S
H760 C765 0.931 . S
H761 C766 0.930 . S
N762 Gd742 2.622 . S
N762 C763 1.369 . S
N762 C764 1.338 . S
C763 N762 1.369 . S
C763 C767 1.415 . S
C763 C770 1.422 . S
C764 H755 0.929 . S
C764 N762 1.338 . S
C764 C766 1.378 . S
C765 H760 0.931 . S
C765 C766 1.348 . S
C765 C767 1.413 . S
C766 H761 0.930 . S
C766 C764 1.378 . S
C766 C765 1.348 . S
C767 C763 1.415 . S
C767 C765 1.413 . S
C767 C797 1.437 . S
H768 C797 0.929 . S
N769 Gd742 2.570 . S
N769 C770 1.359 . S
N769 C773 1.343 . S
C770 C763 1.422 . S
C770 N769 1.359 . S
C770 C772 1.421 . S
C771 C772 1.422 . S
C771 C774 1.321 . S
C771 H798 0.931 . S
C772 C770 1.421 . S
C772 C771 1.422 . S
C772 C796 1.417 . S
C773 H750 0.931 . S
C773 N769 1.343 . S
C773 C774 1.390 . S
C774 H752 0.930 . S
C774 C771 1.321 . S
C774 C773 1.390 . S
O775 Gd743 2.386 . S
O775 C787 1.265 . S
O776 Gd742 2.353 . S
O776 C787 1.242 . S
O777 Gd742 2.468 . S
O777 C795 1.263 . S
O778 Gd742 2.427 . S
O778 C795 1.252 . S
O779 Gd743 2.307 . S
O779 C788 1.261 . S
O780 Gd742 2.388 . S
O780 C788 1.252 . S
O781 Gd742 2.386 . S
O781 C799 1.265 . S
O782 Gd743 2.353 . S
O782 C799 1.242 . S
O783 Gd743 2.468 . S
O783 C807 1.263 . S
O784 Gd743 2.427 . S
O784 C807 1.252 . S
O785 Gd742 2.307 . S
O785 C800 1.261 . S
O786 Gd743 2.388 . S
O786 C800 1.252 . S
C787 O775 1.265 . S
C787 O776 1.242 . S
C788 O779 1.261 . S
C788 O780 1.252 . S
C789 C792 1.394 . S
C789 C794 1.370 . S
C789 C795 1.500 . S
C790 C793 1.383 . S
C790 C794 1.395 . S
C791 C792 1.396 . S
C791 C793 1.365 . S
C791 H808 0.929 . S
C792 C789 1.394 . S
C792 C791 1.396 . S
C792 H809 0.930 . S
C793 C790 1.383 . S
C793 C791 1.365 . S
C793 H810 0.931 . S
C794 C789 1.370 . S
C794 C790 1.395 . S
C794 H811 0.930 . S
C795 Gd742 2.805 . S
C795 O777 1.263 . S
C795 O778 1.252 . S
C795 C789 1.500 . S
C796 H758 0.930 . S
C796 C772 1.417 . S
C796 C797 1.329 . S
C797 C767 1.437 . S
C797 H768 0.929 . S
C797 C796 1.329 . S
H798 C771 0.931 . S
C799 O781 1.265 . S
C799 O782 1.242 . S
C800 O785 1.261 . S
C800 O786 1.252 . S
C801 C804 1.394 . S
C801 C806 1.370 . S
C801 C807 1.500 . S
C802 C805 1.383 . S
C802 C806 1.395 . S
C803 C804 1.396 . S
C803 C805 1.365 . S
C803 H812 0.929 . S
C804 C801 1.394 . S
C804 C803 1.396 . S
C804 H813 0.930 . S
C805 C802 1.383 . S
C805 C803 1.365 . S
C805 H814 0.931 . S
C806 C801 1.370 . S
C806 C802 1.395 . S
C806 H815 0.930 . S
C807 Gd743 2.805 . S
C807 O783 1.263 . S
C807 O784 1.252 . S
C807 C801 1.500 . S
H808 C791 0.929 . S
H809 C792 0.930 . S
H810 C793 0.931 . S
H811 C794 0.930 . S
H812 C803 0.929 . S
H813 C804 0.930 . S
H814 C805 0.931 . S
H815 C806 0.930 . S
H816 C822 0.930 . S
H817 C826 0.930 . S
H818 C831 0.929 . S
H819 C829 0.929 . S
H820 C824 0.929 . S
H821 C830 0.929 . S
C822 H816 0.930 . S
C822 C823 1.367 1_545 S
C822 C830 1.378 . S
C823 C822 1.367 1_565 S
C823 C831 1.433 . S
C824 H820 0.929 . S
C824 C826 1.378 . S
C824 C828 1.350 . S
C825 C828 1.463 . S
C825 C830 1.350 . S
C825 N833 1.427 . S
C826 H817 0.930 . S
C826 C824 1.378 . S
C826 C827 1.367 . S
C827 C826 1.367 . S
C827 C829 1.433 . S
C828 C824 1.350 . S
C828 C825 1.463 . S
C828 N832 1.427 . S
C829 H819 0.929 . S
C829 C827 1.433 . S
C829 N832 1.384 . S
C830 H821 0.929 . S
C830 C822 1.378 . S
C830 C825 1.350 . S
C831 H818 0.929 . S
C831 C823 1.433 . S
C831 N833 1.384 1_565 S
N832 C828 1.427 . S
N832 C829 1.384 . S
N833 C825 1.427 . S
N833 C831 1.384 1_545 S
H834 C840 0.930 . S
H835 C844 0.930 . S
H836 C849 0.929 . S
H837 C847 0.929 . S
H838 C842 0.929 . S
H839 C848 0.929 . S
C840 H834 0.930 . S
C840 C841 1.367 . S
C840 C848 1.378 . S
C841 C840 1.367 . S
C841 C849 1.433 . S
C842 H838 0.929 . S
C842 C844 1.378 . S
C842 C846 1.350 . S
C843 C846 1.463 . S
C843 C848 1.350 . S
C843 N851 1.427 . S
C844 H835 0.930 . S
C844 C842 1.378 . S
C844 C845 1.367 . S
C845 C844 1.367 . S
C845 C847 1.433 . S
C846 C842 1.350 . S
C846 C843 1.463 . S
C846 N850 1.427 . S
C847 H837 0.929 . S
C847 C845 1.433 . S
C847 N850 1.384 . S
C848 H839 0.929 . S
C848 C840 1.378 . S
C848 C843 1.350 . S
C849 H836 0.929 . S
C849 C841 1.433 . S
C849 N851 1.384 . S
N850 C846 1.427 . S
N850 C847 1.384 . S
N851 C843 1.427 . S
N851 C849 1.384 . S
H852 C858 0.930 . S
H853 C862 0.930 . S
H854 C867 0.929 . S
H855 C865 0.929 . S
H856 C860 0.929 . S
H857 C866 0.929 . S
C858 H852 0.930 . S
C858 C859 1.367 . S
C858 C866 1.378 . S
C859 C858 1.367 . S
C859 C867 1.433 . S
C860 H856 0.929 . S
C860 C862 1.378 . S
C860 C864 1.350 . S
C861 C864 1.463 . S
C861 C866 1.350 . S
C861 N869 1.427 . S
C862 H853 0.930 . S
C862 C860 1.378 . S
C862 C863 1.367 . S
C863 C862 1.367 . S
C863 C865 1.433 . S
C864 C860 1.350 . S
C864 C861 1.463 . S
C864 N868 1.427 . S
C865 H855 0.929 . S
C865 C863 1.433 . S
C865 N868 1.384 . S
C866 H857 0.929 . S
C866 C858 1.378 . S
C866 C861 1.350 . S
C867 H854 0.929 . S
C867 C859 1.433 . S
C867 N869 1.384 . S
N868 C864 1.427 . S
N868 C865 1.384 . S
N869 C861 1.427 . S
N869 C867 1.384 . S
H870 C876 0.930 . S
H871 C880 0.930 . S
H872 C885 0.929 . S
H873 C883 0.929 . S
H874 C878 0.929 . S
H875 C884 0.929 . S
C876 H870 0.930 . S
C876 C877 1.367 1_545 S
C876 C884 1.378 . S
C877 C876 1.367 1_565 S
C877 C885 1.433 . S
C878 H874 0.929 . S
C878 C880 1.378 . S
C878 C882 1.350 . S
C879 C882 1.463 . S
C879 C884 1.350 . S
C879 N887 1.427 . S
C880 H871 0.930 . S
C880 C878 1.378 . S
C880 C881 1.367 . S
C881 C880 1.367 . S
C881 C883 1.433 . S
C882 C878 1.350 . S
C882 C879 1.463 . S
C882 N886 1.427 . S
C883 H873 0.929 . S
C883 C881 1.433 . S
C883 N886 1.384 . S
C884 H875 0.929 . S
C884 C876 1.378 . S
C884 C879 1.350 . S
C885 H872 0.929 . S
C885 C877 1.433 . S
C885 N887 1.384 1_565 S
N886 C882 1.427 . S
N886 C883 1.384 . S
N887 C879 1.427 . S
N887 C885 1.384 1_545 S
H888 C894 0.926 1_545 S
H889 C898 0.930 . S
H890 C903 0.929 . S
H891 C901 0.929 . S
H892 C896 0.929 . S
H893 C902 0.929 . S
C894 H888 0.926 1_565 S
C894 C895 1.361 1_565 S
C894 C902 1.389 . S
C895 C894 1.361 1_545 S
C895 C903 1.433 . S
C896 H892 0.929 . S
C896 C898 1.378 . S
C896 C900 1.350 . S
C897 C900 1.463 . S
C897 C902 1.350 . S
C897 N905 1.427 . S
C898 H889 0.930 . S
C898 C896 1.378 . S
C898 C899 1.367 . S
C899 C898 1.367 . S
C899 C901 1.433 . S
C900 C896 1.350 . S
C900 C897 1.463 . S
C900 N904 1.427 . S
C901 H891 0.929 . S
C901 C899 1.433 . S
C901 N904 1.384 . S
C902 H893 0.929 . S
C902 C894 1.389 . S
C902 C897 1.350 . S
C903 H890 0.929 . S
C903 C895 1.433 . S
C903 N905 1.384 1_545 S
N904 C900 1.427 . S
N904 C901 1.384 . S
N905 C897 1.427 . S
N905 C903 1.384 1_565 S
H906 C912 0.930 . S
H907 C916 0.930 . S
H908 C921 0.929 . S
H909 C919 0.929 . S
H910 C914 0.929 . S
H911 C920 0.929 . S
C912 H906 0.930 . S
C912 C913 1.367 . S
C912 C920 1.378 . S
C913 C912 1.367 . S
C913 C921 1.433 . S
C914 H910 0.929 . S
C914 C916 1.378 . S
C914 C918 1.350 . S
C915 C918 1.463 . S
C915 C920 1.350 . S
C915 N923 1.427 . S
C916 H907 0.930 . S
C916 C914 1.378 . S
C916 C917 1.367 . S
C917 C916 1.367 . S
C917 C919 1.433 . S
C918 C914 1.350 . S
C918 C915 1.463 . S
C918 N922 1.427 . S
C919 H909 0.929 . S
C919 C917 1.433 . S
C919 N922 1.384 . S
C920 H911 0.929 . S
C920 C912 1.378 . S
C920 C915 1.350 . S
C921 H908 0.929 . S
C921 C913 1.433 . S
C921 N923 1.384 . S
N922 C918 1.427 . S
N922 C919 1.384 . S
N923 C915 1.427 . S
N923 C921 1.384 . S
H924 C930 0.930 . S
H925 C934 0.930 . S
H926 C939 0.929 . S
H927 C937 0.929 . S
H928 C932 0.929 . S
H929 C938 0.929 . S
C930 H924 0.930 . S
C930 C931 1.367 . S
C930 C938 1.378 . S
C931 C930 1.367 . S
C931 C939 1.433 . S
C932 H928 0.929 . S
C932 C934 1.378 . S
C932 C936 1.350 . S
C933 C936 1.463 . S
C933 C938 1.350 . S
C933 N941 1.427 . S
C934 H925 0.930 . S
C934 C932 1.378 . S
C934 C935 1.367 . S
C935 C934 1.367 . S
C935 C937 1.433 . S
C936 C932 1.350 . S
C936 C933 1.463 . S
C936 N940 1.427 . S
C937 H927 0.929 . S
C937 C935 1.433 . S
C937 N940 1.384 . S
C938 H929 0.929 . S
C938 C930 1.378 . S
C938 C933 1.350 . S
C939 H926 0.929 . S
C939 C931 1.433 . S
C939 N941 1.384 . S
N940 C936 1.427 . S
N940 C937 1.384 . S
N941 C933 1.427 . S
N941 C939 1.384 . S
H942 C948 0.930 . S
H943 C952 0.930 . S
H944 C957 0.929 . S
H945 C955 0.929 . S
H946 C950 0.929 . S
H947 C956 0.929 . S
C948 H942 0.930 . S
C948 C949 1.367 1_565 S
C948 C956 1.378 . S
C949 C948 1.367 1_545 S
C949 C957 1.433 . S
C950 H946 0.929 . S
C950 C952 1.378 . S
C950 C954 1.350 . S
C951 C954 1.463 . S
C951 C956 1.350 . S
C951 N959 1.427 . S
C952 H943 0.930 . S
C952 C950 1.378 . S
C952 C953 1.367 . S
C953 C952 1.367 . S
C953 C955 1.433 . S
C954 C950 1.350 . S
C954 C951 1.463 . S
C954 N958 1.427 . S
C955 H945 0.929 . S
C955 C953 1.433 . S
C955 N958 1.384 . S
C956 H947 0.929 . S
C956 C948 1.378 . S
C956 C951 1.350 . S
C957 H944 0.929 . S
C957 C949 1.433 . S
C957 N959 1.384 1_545 S
N958 C954 1.427 . S
N958 C955 1.384 . S
N959 C951 1.427 . S
N959 C957 1.384 1_565 S
H960 C966 0.930 . S
H961 C970 0.930 . S
H962 C975 0.929 . S
H963 C973 0.929 . S
H964 C968 0.929 . S
H965 C974 0.929 . S
C966 H960 0.930 . S
C966 C967 1.367 . S
C966 C974 1.378 . S
C967 C966 1.367 . S
C967 C975 1.433 . S
C968 H964 0.929 . S
C968 C970 1.378 . S
C968 C972 1.350 . S
C969 C972 1.463 . S
C969 C974 1.350 . S
C969 N977 1.427 . S
C970 H961 0.930 . S
C970 C968 1.378 . S
C970 C971 1.367 . S
C971 C970 1.367 . S
C971 C973 1.433 . S
C972 C968 1.350 . S
C972 C969 1.463 . S
C972 N976 1.427 . S
C973 H963 0.929 . S
C973 C971 1.433 . S
C973 N976 1.384 . S
C974 H965 0.929 . S
C974 C966 1.378 . S
C974 C969 1.350 . S
C975 H962 0.929 . S
C975 C967 1.433 . S
C975 N977 1.384 . S
N976 C972 1.427 . S
N976 C973 1.384 . S
N977 C969 1.427 . S
N977 C975 1.384 . S
H978 C984 0.930 . S
H979 C988 0.930 . S
H980 C993 0.929 . S
H981 C991 0.929 . S
H982 C986 0.929 . S
H983 C992 0.929 . S
C984 H978 0.930 . S
C984 C985 1.367 . S
C984 C992 1.378 . S
C985 C984 1.367 . S
C985 C993 1.433 . S
C986 H982 0.929 . S
C986 C988 1.378 . S
C986 C990 1.350 . S
C987 C990 1.463 . S
C987 C992 1.350 . S
C987 N995 1.427 . S
C988 H979 0.930 . S
C988 C986 1.378 . S
C988 C989 1.367 . S
C989 C988 1.367 . S
C989 C991 1.433 . S
C990 C986 1.350 . S
C990 C987 1.463 . S
C990 N994 1.427 . S
C991 H981 0.929 . S
C991 C989 1.433 . S
C991 N994 1.384 . S
C992 H983 0.929 . S
C992 C984 1.378 . S
C992 C987 1.350 . S
C993 H980 0.929 . S
C993 C985 1.433 . S
C993 N995 1.384 . S
N994 C990 1.427 . S
N994 C991 1.384 . S
N995 C987 1.427 . S
N995 C993 1.384 . S
H996 C1002 0.930 . S
H997 C1006 0.930 . S
H998 C1011 0.929 . S
H999 C1009 0.929 . S
H1000 C1004 0.929 . S
H1001 C1010 0.929 . S
C1002 H996 0.930 . S
C1002 C1003 1.367 . S
C1002 C1010 1.378 . S
C1003 C1002 1.367 . S
C1003 C1011 1.433 . S
C1004 H1000 0.929 . S
C1004 C1006 1.378 . S
C1004 C1008 1.350 . S
C1005 C1008 1.463 . S
C1005 C1010 1.350 . S
C1005 N1013 1.427 . S
C1006 H997 0.930 . S
C1006 C1004 1.378 . S
C1006 C1007 1.367 . S
C1007 C1006 1.367 . S
C1007 C1009 1.433 . S
C1008 C1004 1.350 . S
C1008 C1005 1.463 . S
C1008 N1012 1.427 . S
C1009 H999 0.929 . S
C1009 C1007 1.433 . S
C1009 N1012 1.384 . S
C1010 H1001 0.929 . S
C1010 C1002 1.378 . S
C1010 C1005 1.350 . S
C1011 H998 0.929 . S
C1011 C1003 1.433 . S
C1011 N1013 1.384 . S
N1012 C1008 1.427 . S
N1012 C1009 1.384 . S
N1013 C1005 1.427 . S
N1013 C1011 1.384 . S
H1014 C1020 0.930 . S
H1015 C1024 0.930 . S
H1016 C1029 0.929 . S
H1017 C1027 0.929 . S
H1018 C1022 0.929 . S
H1019 C1028 0.929 . S
C1020 H1014 0.930 . S
C1020 C1021 1.367 . S
C1020 C1028 1.378 . S
C1021 C1020 1.367 . S
C1021 C1029 1.433 . S
C1022 H1018 0.929 . S
C1022 C1024 1.378 . S
C1022 C1026 1.350 . S
C1023 C1026 1.463 . S
C1023 C1028 1.350 . S
C1023 N1031 1.427 . S
C1024 H1015 0.930 . S
C1024 C1022 1.378 . S
C1024 C1025 1.367 . S
C1025 C1024 1.367 . S
C1025 C1027 1.433 . S
C1026 C1022 1.350 . S
C1026 C1023 1.463 . S
C1026 N1030 1.427 . S
C1027 H1017 0.929 . S
C1027 C1025 1.433 . S
C1027 N1030 1.384 . S
C1028 H1019 0.929 . S
C1028 C1020 1.378 . S
C1028 C1023 1.350 . S
C1029 H1016 0.929 . S
C1029 C1021 1.433 . S
C1029 N1031 1.384 . S
N1030 C1026 1.427 . S
N1030 C1027 1.384 . S
N1031 C1023 1.427 . S
N1031 C1029 1.384 . S
H1032 C1038 0.930 . S
H1033 C1042 0.930 . S
H1034 C1047 0.929 . S
H1035 C1045 0.929 . S
H1036 C1040 0.929 . S
H1037 C1046 0.929 . S
C1038 H1032 0.930 . S
C1038 C1039 1.367 . S
C1038 C1046 1.378 . S
C1039 C1038 1.367 . S
C1039 C1047 1.433 . S
C1040 H1036 0.929 . S
C1040 C1042 1.378 . S
C1040 C1044 1.350 . S
C1041 C1044 1.463 . S
C1041 C1046 1.350 . S
C1041 N1049 1.427 . S
C1042 H1033 0.930 . S
C1042 C1040 1.378 . S
C1042 C1043 1.367 . S
C1043 C1042 1.367 . S
C1043 C1045 1.433 . S
C1044 C1040 1.350 . S
C1044 C1041 1.463 . S
C1044 N1048 1.427 . S
C1045 H1035 0.929 . S
C1045 C1043 1.433 . S
C1045 N1048 1.384 . S
C1046 H1037 0.929 . S
C1046 C1038 1.378 . S
C1046 C1041 1.350 . S
C1047 H1034 0.929 . S
C1047 C1039 1.433 . S
C1047 N1049 1.384 . S
N1048 C1044 1.427 . S
N1048 C1045 1.384 . S
N1049 C1041 1.427 . S
N1049 C1047 1.384 . S
H1050 C1056 0.930 . S
H1051 C1060 0.930 . S
H1052 C1065 0.929 . S
H1053 C1063 0.929 . S
H1054 C1058 0.929 . S
H1055 C1064 0.929 . S
C1056 H1050 0.930 . S
C1056 C1057 1.367 . S
C1056 C1064 1.378 . S
C1057 C1056 1.367 . S
C1057 C1065 1.433 . S
C1058 H1054 0.929 . S
C1058 C1060 1.378 . S
C1058 C1062 1.350 . S
C1059 C1062 1.463 . S
C1059 C1064 1.350 . S
C1059 N1067 1.427 . S
C1060 H1051 0.930 . S
C1060 C1058 1.378 . S
C1060 C1061 1.367 . S
C1061 C1060 1.367 . S
C1061 C1063 1.433 . S
C1062 C1058 1.350 . S
C1062 C1059 1.463 . S
C1062 N1066 1.427 . S
C1063 H1053 0.929 . S
C1063 C1061 1.433 . S
C1063 N1066 1.384 . S
C1064 H1055 0.929 . S
C1064 C1056 1.378 . S
C1064 C1059 1.350 . S
C1065 H1052 0.929 . S
C1065 C1057 1.433 . S
C1065 N1067 1.384 . S
N1066 C1062 1.427 . S
N1066 C1063 1.384 . S
N1067 C1059 1.427 . S
N1067 C1065 1.384 . S
H1068 C1074 0.930 . S
H1069 C1078 0.930 . S
H1070 C1083 0.929 . S
H1071 C1081 0.929 . S
H1072 C1076 0.929 . S
H1073 C1082 0.929 . S
C1074 H1068 0.930 . S
C1074 C1075 1.367 . S
C1074 C1082 1.378 . S
C1075 C1074 1.367 . S
C1075 C1083 1.433 . S
C1076 H1072 0.929 . S
C1076 C1078 1.378 . S
C1076 C1080 1.350 . S
C1077 C1080 1.463 . S
C1077 C1082 1.350 . S
C1077 N1085 1.427 . S
C1078 H1069 0.930 . S
C1078 C1076 1.378 . S
C1078 C1079 1.367 . S
C1079 C1078 1.367 . S
C1079 C1081 1.433 . S
C1080 C1076 1.350 . S
C1080 C1077 1.463 . S
C1080 N1084 1.427 . S
C1081 H1071 0.929 . S
C1081 C1079 1.433 . S
C1081 N1084 1.384 . S
C1082 H1073 0.929 . S
C1082 C1074 1.378 . S
C1082 C1077 1.350 . S
C1083 H1070 0.929 . S
C1083 C1075 1.433 . S
C1083 N1085 1.384 . S
N1084 C1080 1.427 . S
N1084 C1081 1.384 . S
N1085 C1077 1.427 . S
N1085 C1083 1.384 . S
H1086 C1092 0.930 . S
H1087 C1096 0.930 . S
H1088 C1101 0.929 . S
H1089 C1099 0.929 . S
H1090 C1094 0.929 . S
H1091 C1100 0.929 . S
C1092 H1086 0.930 . S
C1092 C1093 1.367 . S
C1092 C1100 1.378 . S
C1093 C1092 1.367 . S
C1093 C1101 1.433 . S
C1094 H1090 0.929 . S
C1094 C1096 1.378 . S
C1094 C1098 1.350 . S
C1095 C1098 1.463 . S
C1095 C1100 1.350 . S
C1095 N1103 1.427 . S
C1096 H1087 0.930 . S
C1096 C1094 1.378 . S
C1096 C1097 1.367 . S
C1097 C1096 1.367 . S
C1097 C1099 1.433 . S
C1098 C1094 1.350 . S
C1098 C1095 1.463 . S
C1098 N1102 1.427 . S
C1099 H1089 0.929 . S
C1099 C1097 1.433 . S
C1099 N1102 1.384 . S
C1100 H1091 0.929 . S
C1100 C1092 1.378 . S
C1100 C1095 1.350 . S
C1101 H1088 0.929 . S
C1101 C1093 1.433 . S
C1101 N1103 1.384 . S
N1102 C1098 1.427 . S
N1102 C1099 1.384 . S
N1103 C1095 1.427 . S
N1103 C1101 1.384 . S
H1104 C1110 0.930 . S
H1105 C1114 0.930 1_655 S
H1106 C1119 0.929 . S
H1107 C1117 0.929 . S
H1108 C1112 0.929 . S
H1109 C1118 0.929 . S
C1110 H1104 0.930 . S
C1110 C1111 1.367 . S
C1110 C1118 1.378 . S
C1111 C1110 1.367 . S
C1111 C1119 1.433 . S
C1112 H1108 0.929 . S
C1112 C1114 1.378 . S
C1112 C1116 1.350 . S
C1113 C1116 1.463 . S
C1113 C1118 1.350 . S
C1113 N1121 1.427 . S
C1114 H1105 0.930 1_455 S
C1114 C1112 1.378 . S
C1114 C1115 1.367 . S
C1115 C1114 1.367 . S
C1115 C1117 1.433 . S
C1116 C1112 1.350 . S
C1116 C1113 1.463 . S
C1116 N1120 1.427 . S
C1117 H1107 0.929 . S
C1117 C1115 1.433 . S
C1117 N1120 1.384 . S
C1118 H1109 0.929 . S
C1118 C1110 1.378 . S
C1118 C1113 1.350 . S
C1119 H1106 0.929 . S
C1119 C1111 1.433 . S
C1119 N1121 1.384 . S
N1120 C1116 1.427 . S
N1120 C1117 1.384 . S
N1121 C1113 1.427 . S
N1121 C1119 1.384 . S
H1122 C1128 0.930 . S
H1123 C1132 0.930 . S
H1124 C1137 0.929 . S
H1125 C1135 0.929 . S
H1126 C1130 0.929 . S
H1127 C1136 0.929 . S
C1128 H1122 0.930 . S
C1128 C1129 1.367 . S
C1128 C1136 1.378 . S
C1129 C1128 1.367 . S
C1129 C1137 1.433 . S
C1130 H1126 0.929 . S
C1130 C1132 1.378 . S
C1130 C1134 1.350 . S
C1131 C1134 1.463 . S
C1131 C1136 1.350 . S
C1131 N1139 1.427 . S
C1132 H1123 0.930 . S
C1132 C1130 1.378 . S
C1132 C1133 1.367 . S
C1133 C1132 1.367 . S
C1133 C1135 1.433 . S
C1134 C1130 1.350 . S
C1134 C1131 1.463 . S
C1134 N1138 1.427 . S
C1135 H1125 0.929 . S
C1135 C1133 1.433 . S
C1135 N1138 1.384 . S
C1136 H1127 0.929 . S
C1136 C1128 1.378 . S
C1136 C1131 1.350 . S
C1137 H1124 0.929 . S
C1137 C1129 1.433 . S
C1137 N1139 1.384 . S
N1138 C1134 1.427 . S
N1138 C1135 1.384 . S
N1139 C1131 1.427 . S
N1139 C1137 1.384 . S
H1140 C1146 0.930 . S
H1141 C1150 0.930 . S
H1142 C1155 0.929 . S
H1143 C1153 0.929 . S
H1144 C1148 0.929 . S
H1145 C1154 0.929 . S
C1146 H1140 0.930 . S
C1146 C1147 1.367 . S
C1146 C1154 1.378 . S
C1147 C1146 1.367 . S
C1147 C1155 1.433 . S
C1148 H1144 0.929 . S
C1148 C1150 1.378 . S
C1148 C1152 1.350 . S
C1149 C1152 1.463 . S
C1149 C1154 1.350 . S
C1149 N1157 1.427 . S
C1150 H1141 0.930 . S
C1150 C1148 1.378 . S
C1150 C1151 1.367 . S
C1151 C1150 1.367 . S
C1151 C1153 1.433 . S
C1152 C1148 1.350 . S
C1152 C1149 1.463 . S
C1152 N1156 1.427 . S
C1153 H1143 0.929 . S
C1153 C1151 1.433 . S
C1153 N1156 1.384 . S
C1154 H1145 0.929 . S
C1154 C1146 1.378 . S
C1154 C1149 1.350 . S
C1155 H1142 0.929 . S
C1155 C1147 1.433 . S
C1155 N1157 1.384 . S
N1156 C1152 1.427 . S
N1156 C1153 1.384 . S
N1157 C1149 1.427 . S
N1157 C1155 1.384 . S
H1158 C1164 0.930 . S
H1159 C1168 0.930 . S
H1160 C1173 0.929 . S
H1161 C1171 0.929 . S
H1162 C1166 0.929 . S
H1163 C1172 0.929 . S
C1164 H1158 0.930 . S
C1164 C1165 1.367 . S
C1164 C1172 1.378 . S
C1165 C1164 1.367 . S
C1165 C1173 1.433 . S
C1166 H1162 0.929 . S
C1166 C1168 1.378 . S
C1166 C1170 1.350 . S
C1167 C1170 1.463 . S
C1167 C1172 1.350 . S
C1167 N1175 1.427 . S
C1168 H1159 0.930 . S
C1168 C1166 1.378 . S
C1168 C1169 1.367 . S
C1169 C1168 1.367 . S
C1169 C1171 1.433 . S
C1170 C1166 1.350 . S
C1170 C1167 1.463 . S
C1170 N1174 1.427 . S
C1171 H1161 0.929 . S
C1171 C1169 1.433 . S
C1171 N1174 1.384 . S
C1172 H1163 0.929 . S
C1172 C1164 1.378 . S
C1172 C1167 1.350 . S
C1173 H1160 0.929 . S
C1173 C1165 1.433 . S
C1173 N1175 1.384 . S
N1174 C1170 1.427 . S
N1174 C1171 1.384 . S
N1175 C1167 1.427 . S
N1175 C1173 1.384 . S
H1176 C1182 0.930 . S
H1177 C1186 0.930 . S
H1178 C1191 0.929 . S
H1179 C1189 0.929 . S
H1180 C1184 0.929 . S
H1181 C1190 0.929 . S
C1182 H1176 0.930 . S
C1182 C1183 1.367 . S
C1182 C1190 1.378 . S
C1183 C1182 1.367 . S
C1183 C1191 1.433 . S
C1184 H1180 0.929 . S
C1184 C1186 1.378 . S
C1184 C1188 1.350 . S
C1185 C1188 1.463 . S
C1185 C1190 1.350 . S
C1185 N1193 1.427 . S
C1186 H1177 0.930 . S
C1186 C1184 1.378 . S
C1186 C1187 1.367 . S
C1187 C1186 1.367 . S
C1187 C1189 1.433 . S
C1188 C1184 1.350 . S
C1188 C1185 1.463 . S
C1188 N1192 1.427 . S
C1189 H1179 0.929 . S
C1189 C1187 1.433 . S
C1189 N1192 1.384 . S
C1190 H1181 0.929 . S
C1190 C1182 1.378 . S
C1190 C1185 1.350 . S
C1191 H1178 0.929 . S
C1191 C1183 1.433 . S
C1191 N1193 1.384 . S
N1192 C1188 1.427 . S
N1192 C1189 1.384 . S
N1193 C1185 1.427 . S
N1193 C1191 1.384 . S
H1194 C1200 0.930 . S
H1195 C1204 0.930 . S
H1196 C1209 0.929 . S
H1197 C1207 0.929 . S
H1198 C1202 0.929 . S
H1199 C1208 0.929 . S
C1200 H1194 0.930 . S
C1200 C1201 1.367 . S
C1200 C1208 1.378 . S
C1201 C1200 1.367 . S
C1201 C1209 1.433 . S
C1202 H1198 0.929 . S
C1202 C1204 1.378 . S
C1202 C1206 1.350 . S
C1203 C1206 1.463 . S
C1203 C1208 1.350 . S
C1203 N1211 1.427 . S
C1204 H1195 0.930 . S
C1204 C1202 1.378 . S
C1204 C1205 1.367 . S
C1205 C1204 1.367 . S
C1205 C1207 1.433 . S
C1206 C1202 1.350 . S
C1206 C1203 1.463 . S
C1206 N1210 1.427 . S
C1207 H1197 0.929 . S
C1207 C1205 1.433 . S
C1207 N1210 1.384 . S
C1208 H1199 0.929 . S
C1208 C1200 1.378 . S
C1208 C1203 1.350 . S
C1209 H1196 0.929 . S
C1209 C1201 1.433 . S
C1209 N1211 1.384 . S
N1210 C1206 1.427 . S
N1210 C1207 1.384 . S
N1211 C1203 1.427 . S
N1211 C1209 1.384 . S
H1212 C1218 0.930 . S
H1213 C1222 0.930 . S
H1214 C1227 0.929 . S
H1215 C1225 0.929 . S
H1216 C1220 0.929 . S
H1217 C1226 0.929 . S
C1218 H1212 0.930 . S
C1218 C1219 1.367 . S
C1218 C1226 1.378 . S
C1219 C1218 1.367 . S
C1219 C1227 1.433 . S
C1220 H1216 0.929 . S
C1220 C1222 1.378 . S
C1220 C1224 1.350 . S
C1221 C1224 1.463 . S
C1221 C1226 1.350 . S
C1221 N1229 1.427 . S
C1222 H1213 0.930 . S
C1222 C1220 1.378 . S
C1222 C1223 1.367 . S
C1223 C1222 1.367 . S
C1223 C1225 1.433 . S
C1224 C1220 1.350 . S
C1224 C1221 1.463 . S
C1224 N1228 1.427 . S
C1225 H1215 0.929 . S
C1225 C1223 1.433 . S
C1225 N1228 1.384 . S
C1226 H1217 0.929 . S
C1226 C1218 1.378 . S
C1226 C1221 1.350 . S
C1227 H1214 0.929 . S
C1227 C1219 1.433 . S
C1227 N1229 1.384 . S
N1228 C1224 1.427 . S
N1228 C1225 1.384 . S
N1229 C1221 1.427 . S
N1229 C1227 1.384 . S
H1230 C1236 0.930 . S
H1231 C1240 0.930 . S
H1232 C1245 0.929 . S
H1233 C1243 0.943 . S
H1234 C1238 0.929 . S
H1235 C1244 0.929 . S
C1236 H1230 0.930 . S
C1236 C1237 1.367 . S
C1236 C1244 1.378 . S
C1237 C1236 1.367 . S
C1237 C1245 1.433 . S
C1238 H1234 0.929 . S
C1238 C1240 1.378 . S
C1238 C1242 1.350 . S
C1239 C1242 1.463 . S
C1239 C1244 1.350 . S
C1239 N1247 1.427 . S
C1240 H1231 0.930 . S
C1240 C1238 1.378 . S
C1240 C1241 1.367 . S
C1241 C1240 1.367 . S
C1241 C1243 1.433 . S
C1242 C1238 1.350 . S
C1242 C1239 1.463 . S
C1242 N1246 1.427 . S
C1243 H1233 0.943 . S
C1243 C1241 1.433 . S
C1243 N1246 1.384 . S
C1244 H1235 0.929 . S
C1244 C1236 1.378 . S
C1244 C1239 1.350 . S
C1245 H1232 0.929 . S
C1245 C1237 1.433 . S
C1245 N1247 1.384 . S
N1246 C1242 1.427 . S
N1246 C1243 1.384 . S
N1247 C1239 1.427 . S
N1247 C1245 1.384 . S
C823 C361 1.443 . S
C827 C536 1.451 . S
C845 C620 1.454 . S
C841 C451 1.454 . S
C863 C619 1.465 . S
C859 C241 1.438 . S
C877 C331 1.446 . S
C881 C535 1.465 . S
C899 C716 1.452 . S
C895 C140 1.438 . S
C917 C800 1.454 . S
C913 C211 1.434 . S
C931 C20 1.430 . S
C935 C799 1.466 . S
C949 C91 1.429 . S
C953 C715 1.465 . S
C971 C538 1.346 . S
C967 C80 1.475 1_554 S
C989 C622 1.321 . S
C985 C1 1.473 . S
C1007 C634 1.397 . S
C1003 C200 1.495 1_556 S
C1025 C550 1.400 . S
C1021 C121 1.496 . S
C1043 C718 1.322 . S
C1039 C320 1.502 1_556 S
C1057 C260 1.491 . S
C1061 C802 1.336 . S
C1079 C790 1.394 . S
C1075 C440 1.515 1_554 S
C1093 C380 1.509 . S
C1097 C706 1.416 . S
C1115 C547 1.583 . S
C1111 C31 1.556 . S
C1133 C631 1.585 . S
C1129 C61 1.555 . S
C1147 C151 1.544 . S
C1151 C632 1.557 . S
C1169 C548 1.556 . S
C1165 C181 1.549 . S
C1187 C703 1.582 . S
C1183 C271 1.516 . S
C1201 C301 1.584 . S
C1205 C787 1.585 . S
C1219 C391 1.505 . S
C1223 C788 1.563 . S
C1237 C421 1.570 . S
C1241 C704 1.560 . S
