# Generated by pormake.
# Topology ssb, (4,4)-cn, num edge types: 1
# Building blocks:
#     Node 0, Type 0, BuildingBlock: NAHDIM_clean_linker_0, # of connection points: 4
#     Node 1, Type 0, BuildingBlock: NAHDIM_clean_linker_0, # of connection points: 4
#     Node 2, Type 0, BuildingBlock: NAHDIM_clean_linker_0, # of connection points: 4
#     Node 3, Type 0, BuildingBlock: NAHDIM_clean_linker_0, # of connection points: 4
#     Node 4, Type 0, BuildingBlock: NAHDIM_clean_linker_0, # of connection points: 4
#     Node 5, Type 0, BuildingBlock: NAHDIM_clean_linker_0, # of connection points: 4
#     Node 6, Type 0, BuildingBlock: NAHDIM_clean_linker_0, # of connection points: 4
#     Node 7, Type 0, BuildingBlock: NAHDIM_clean_linker_0, # of connection points: 4
#     Node 8, Type 1, BuildingBlock: NAWXER_clean_sbu_0, # of connection points: 4
#     Node 9, Type 1, BuildingBlock: NAWXER_clean_sbu_0, # of connection points: 4
#     Node 10, Type 1, BuildingBlock: NAWXER_clean_sbu_0, # of connection points: 4
#     Node 11, Type 1, BuildingBlock: NAWXER_clean_sbu_0, # of connection points: 4
#     Node 12, Type 1, BuildingBlock: NAWXER_clean_sbu_0, # of connection points: 4
#     Node 13, Type 1, BuildingBlock: NAWXER_clean_sbu_0, # of connection points: 4
#     Node 14, Type 1, BuildingBlock: NAWXER_clean_sbu_0, # of connection points: 4
#     Node 15, Type 1, BuildingBlock: NAWXER_clean_sbu_0, # of connection points: 4
#     Edge 16, Type (0, 1), BuildingBlock: KIFKEQ_clean_linker_1, # of connection points: 2
#     Edge 17, Type (0, 1), BuildingBlock: KIFKEQ_clean_linker_1, # of connection points: 2
#     Edge 18, Type (0, 1), BuildingBlock: KIFKEQ_clean_linker_1, # of connection points: 2
#     Edge 19, Type (0, 1), BuildingBlock: KIFKEQ_clean_linker_1, # of connection points: 2
#     Edge 20, Type (0, 1), BuildingBlock: KIFKEQ_clean_linker_1, # of connection points: 2
#     Edge 21, Type (0, 1), BuildingBlock: KIFKEQ_clean_linker_1, # of connection points: 2
#     Edge 22, Type (0, 1), BuildingBlock: KIFKEQ_clean_linker_1, # of connection points: 2
#     Edge 23, Type (0, 1), BuildingBlock: KIFKEQ_clean_linker_1, # of connection points: 2
#     Edge 24, Type (0, 1), BuildingBlock: KIFKEQ_clean_linker_1, # of connection points: 2
#     Edge 25, Type (0, 1), BuildingBlock: KIFKEQ_clean_linker_1, # of connection points: 2
#     Edge 26, Type (0, 1), BuildingBlock: KIFKEQ_clean_linker_1, # of connection points: 2
#     Edge 27, Type (0, 1), BuildingBlock: KIFKEQ_clean_linker_1, # of connection points: 2
#     Edge 28, Type (0, 1), BuildingBlock: KIFKEQ_clean_linker_1, # of connection points: 2
#     Edge 29, Type (0, 1), BuildingBlock: KIFKEQ_clean_linker_1, # of connection points: 2
#     Edge 30, Type (0, 1), BuildingBlock: KIFKEQ_clean_linker_1, # of connection points: 2
#     Edge 31, Type (0, 1), BuildingBlock: KIFKEQ_clean_linker_1, # of connection points: 2
#     Edge 32, Type (0, 1), BuildingBlock: KIFKEQ_clean_linker_1, # of connection points: 2
#     Edge 33, Type (0, 1), BuildingBlock: KIFKEQ_clean_linker_1, # of connection points: 2
#     Edge 34, Type (0, 1), BuildingBlock: KIFKEQ_clean_linker_1, # of connection points: 2
#     Edge 35, Type (0, 1), BuildingBlock: KIFKEQ_clean_linker_1, # of connection points: 2
#     Edge 36, Type (0, 1), BuildingBlock: KIFKEQ_clean_linker_1, # of connection points: 2
#     Edge 37, Type (0, 1), BuildingBlock: KIFKEQ_clean_linker_1, # of connection points: 2
#     Edge 38, Type (0, 1), BuildingBlock: KIFKEQ_clean_linker_1, # of connection points: 2
#     Edge 39, Type (0, 1), BuildingBlock: KIFKEQ_clean_linker_1, # of connection points: 2
#     Edge 40, Type (0, 1), BuildingBlock: KIFKEQ_clean_linker_1, # of connection points: 2
#     Edge 41, Type (0, 1), BuildingBlock: KIFKEQ_clean_linker_1, # of connection points: 2
#     Edge 42, Type (0, 1), BuildingBlock: KIFKEQ_clean_linker_1, # of connection points: 2
#     Edge 43, Type (0, 1), BuildingBlock: KIFKEQ_clean_linker_1, # of connection points: 2
#     Edge 44, Type (0, 1), BuildingBlock: KIFKEQ_clean_linker_1, # of connection points: 2
#     Edge 45, Type (0, 1), BuildingBlock: KIFKEQ_clean_linker_1, # of connection points: 2
#     Edge 46, Type (0, 1), BuildingBlock: KIFKEQ_clean_linker_1, # of connection points: 2
#     Edge 47, Type (0, 1), BuildingBlock: KIFKEQ_clean_linker_1, # of connection points: 2
# Relax obj value: 0.005
# Max RMSD: 0.044
# Mean RMSD: 0.033
data_MOF--net-ssb--node1-NAWXER_clean_sbu_0--node2-NAHDIM_clean_linker_0--edge1-KIFKEQ_clean_linker_1
_symmetry_space_group_name_H-M    P1
_symmetry_Int_Tables_number       1
_symmetry_cell_setting            triclinic
loop_
_symmetry_equiv_pos_as_xyz
'x, y, z'
_cell_length_a     63.097802
_cell_length_b     63.114895
_cell_length_c     54.17481
_cell_angle_alpha  90.020976
_cell_angle_beta   90.019328
_cell_angle_gamma 90.005438
loop_
_atom_site_label
_atom_site_type_symbol
_atom_site_fract_x
_atom_site_fract_y
_atom_site_fract_z
_atom_type_partial_charge
C0 C 0.34143 0.1384 0.33957 0.0
C1 C 0.33295 0.14818 0.36356 0.0
C2 C 0.31267 0.1771 0.34554 0.0
C3 C 0.32548 0.19471 0.3506 0.0
C4 C 0.32407 0.21309 0.33609 0.0
C5 C 0.30986 0.21361 0.31585 0.0
C6 C 0.29667 0.1959 0.31103 0.0
C7 C 0.29793 0.17805 0.32637 0.0
C8 C 0.338 0.23181 0.34219 0.0
C9 C 0.28175 0.19548 0.28924 0.0
C10 C 0.42937 0.2243 0.21772 0.0
C11 C 0.41225 0.23044 0.199 0.0
C12 C 0.38377 0.24961 0.21932 0.0
C13 C 0.36617 0.23739 0.21231 0.0
C14 C 0.34756 0.23752 0.22648 0.0
C15 C 0.34653 0.25024 0.24794 0.0
C16 C 0.36392 0.26327 0.25442 0.0
C17 C 0.38228 0.26294 0.23981 0.0
C18 C 0.32906 0.22391 0.2187 0.0
C19 C 0.36327 0.27715 0.27709 0.0
C20 C 0.25701 0.34883 0.1937 0.0
C21 C 0.24924 0.328 0.19176 0.0
C22 C 0.24922 0.31443 0.21225 0.0
C23 C 0.25731 0.32173 0.23507 0.0
C24 C 0.26464 0.3428 0.23728 0.0
C25 C 0.26431 0.35611 0.21653 0.0
C26 C 0.24097 0.2921 0.20938 0.0
C27 C 0.27331 0.35106 0.26138 0.0
C28 C 0.18754 0.28866 0.4035 0.0
C29 C 0.17513 0.30271 0.38547 0.0
C30 C 0.19219 0.29411 0.34576 0.0
C31 C 0.18997 0.28255 0.3239 0.0
C32 C 0.20645 0.28152 0.30654 0.0
C33 C 0.22559 0.29247 0.31114 0.0
C34 C 0.22791 0.30443 0.33306 0.0
C35 C 0.21123 0.3051 0.35018 0.0
C36 C 0.20345 0.26866 0.28331 0.0
C37 C 0.24807 0.31649 0.33838 0.0
C38 C 0.30998 0.2319 0.29859 0.0
C39 C 0.32688 0.23337 0.282 0.0
C40 C 0.32762 0.24932 0.26418 0.0
C41 C 0.31075 0.26392 0.26221 0.0
C42 C 0.31047 0.27947 0.24366 0.0
C43 C 0.29362 0.29355 0.24163 0.0
C44 C 0.27654 0.29281 0.25829 0.0
C45 C 0.25919 0.30685 0.25613 0.0
C46 C 0.24287 0.30629 0.27353 0.0
C47 C 0.24315 0.29169 0.29293 0.0
C48 C 0.25993 0.2769 0.29483 0.0
C49 C 0.26035 0.26148 0.31357 0.0
C50 C 0.27679 0.2468 0.31498 0.0
C51 C 0.29348 0.24705 0.29778 0.0
C52 C 0.29368 0.26287 0.2792 0.0
C53 C 0.27673 0.27757 0.27748 0.0
C54 C 0.27178 0.34528 0.13793 0.0
C55 C 0.25358 0.35786 0.14964 0.0
O56 O 0.31422 0.15894 0.35877 0.0
O57 O 0.17567 0.29408 0.36192 0.0
O58 O 0.25805 0.36233 0.17415 0.0
O59 O 0.40231 0.24889 0.20668 0.0
H60 H 0.34502 0.15928 0.37109 0.0
H61 H 0.34472 0.15103 0.32583 0.0
H62 H 0.32963 0.12725 0.33161 0.0
H63 H 0.35648 0.12975 0.34299 0.0
H64 H 0.33644 0.1942 0.36595 0.0
H65 H 0.28802 0.16436 0.32283 0.0
H66 H 0.35095 0.2329 0.32839 0.0
H67 H 0.34524 0.23039 0.36081 0.0
H68 H 0.32876 0.24676 0.34131 0.0
H69 H 0.27493 0.17948 0.28608 0.0
H70 H 0.29009 0.2006 0.2722 0.0
H71 H 0.2685 0.20669 0.2925 0.0
H72 H 0.40092 0.21694 0.19845 0.0
H73 H 0.43796 0.20991 0.21142 0.0
H74 H 0.4219 0.22076 0.23582 0.0
H75 H 0.44092 0.23739 0.2204 0.0
H76 H 0.36693 0.22781 0.19575 0.0
H77 H 0.39584 0.27258 0.24479 0.0
H78 H 0.32611 0.21161 0.23294 0.0
H79 H 0.33186 0.21593 0.20071 0.0
H80 H 0.31452 0.23374 0.21726 0.0
H81 H 0.3782 0.28622 0.27972 0.0
H82 H 0.36045 0.26726 0.29371 0.0
H83 H 0.3499 0.28851 0.2756 0.0
H84 H 0.23871 0.34846 0.14839 0.0
H85 H 0.24337 0.32202 0.17436 0.0
H86 H 0.27017 0.37221 0.21792 0.0
H87 H 0.25428 0.28073 0.21137 0.0
H88 H 0.23335 0.28947 0.19115 0.0
H89 H 0.22929 0.28854 0.22413 0.0
H90 H 0.27844 0.36786 0.26007 0.0
H91 H 0.28705 0.34126 0.2672 0.0
H92 H 0.26103 0.34971 0.27597 0.0
H93 H 0.18216 0.31887 0.38518 0.0
H94 H 0.18694 0.29546 0.42241 0.0
H95 H 0.20442 0.28755 0.39794 0.0
H96 H 0.18079 0.2724 0.4039 0.0
H97 H 0.17526 0.27416 0.32058 0.0
H98 H 0.2133 0.31423 0.36689 0.0
H99 H 0.21631 0.25672 0.2817 0.0
H100 H 0.20452 0.27921 0.26697 0.0
H101 H 0.18792 0.26037 0.28291 0.0
H102 H 0.24715 0.32565 0.35586 0.0
H103 H 0.2515 0.32759 0.32299 0.0
H104 H 0.26155 0.30525 0.33966 0.0
H105 H 0.33962 0.22184 0.28288 0.0
H106 H 0.32319 0.28077 0.23032 0.0
H107 H 0.29421 0.30509 0.22686 0.0
H108 H 0.22972 0.31728 0.27188 0.0
H109 H 0.24787 0.26047 0.32723 0.0
H110 H 0.27628 0.23523 0.32972 0.0
H111 H 0.26834 0.34212 0.11815 0.0
H112 H 0.27381 0.32981 0.14736 0.0
H113 H 0.28692 0.3542 0.13936 0.0
C114 C 0.65467 0.13232 0.15623 0.0
C115 C 0.65184 0.15639 0.15521 0.0
C116 C 0.68215 0.17842 0.166 0.0
C117 C 0.67206 0.19384 0.1805 0.0
C118 C 0.68348 0.20544 0.19819 0.0
C119 C 0.70537 0.20143 0.20145 0.0
C120 C 0.71576 0.18669 0.18587 0.0
C121 C 0.70401 0.17563 0.16803 0.0
C122 C 0.67203 0.22149 0.21393 0.0
C123 C 0.73905 0.18183 0.18885 0.0
C124 C 0.66682 0.1521 0.36602 0.0
C125 C 0.68846 0.14765 0.35442 0.0
C126 C 0.70758 0.17592 0.33418 0.0
C127 C 0.71939 0.16492 0.31646 0.0
C128 C 0.72603 0.17502 0.29471 0.0
C129 C 0.72022 0.1964 0.29047 0.0
C130 C 0.70848 0.20756 0.30861 0.0
C131 C 0.70276 0.19725 0.33055 0.0
C132 C 0.73899 0.16274 0.27619 0.0
C133 C 0.70142 0.23017 0.30461 0.0
C134 C 0.83146 0.27638 0.31785 0.0
C135 C 0.8356 0.26213 0.29858 0.0
C136 C 0.82204 0.26089 0.27811 0.0
C137 C 0.80401 0.27419 0.27692 0.0
C138 C 0.80056 0.28948 0.2956 0.0
C139 C 0.81451 0.29051 0.31579 0.0
C140 C 0.82659 0.24484 0.25813 0.0
C141 C 0.78164 0.30406 0.29471 0.0
C142 C 0.76633 0.31816 0.08974 0.0
C143 C 0.7651 0.33228 0.11269 0.0
C144 C 0.77999 0.3156 0.14954 0.0
C145 C 0.79516 0.30007 0.15451 0.0
C146 C 0.79399 0.28769 0.17598 0.0
C147 C 0.77753 0.29144 0.19318 0.0
C148 C 0.76268 0.30783 0.18875 0.0
C149 C 0.764 0.31969 0.16687 0.0
C150 C 0.81018 0.27045 0.18011 0.0
C151 C 0.74541 0.31283 0.20712 0.0
C152 C 0.71682 0.21051 0.22296 0.0
C153 C 0.71367 0.20077 0.24583 0.0
C154 C 0.72538 0.20674 0.26658 0.0
C155 C 0.74116 0.22252 0.2644 0.0
C156 C 0.75447 0.22767 0.28432 0.0
C157 C 0.76983 0.24334 0.28205 0.0
C158 C 0.77226 0.25469 0.25987 0.0
C159 C 0.78789 0.2706 0.25739 0.0
C160 C 0.78913 0.28238 0.23559 0.0
C161 C 0.77568 0.27808 0.21564 0.0
C162 C 0.7609 0.26125 0.21722 0.0
C163 C 0.74815 0.25545 0.19697 0.0
C164 C 0.73376 0.23877 0.19873 0.0
C165 C 0.73131 0.22751 0.22091 0.0
C166 C 0.74375 0.23331 0.24165 0.0
C167 C 0.75893 0.24982 0.2396 0.0
C168 C 0.83004 0.25344 0.36985 0.0
C169 C 0.84841 0.25873 0.35243 0.0
O170 O 0.67121 0.16582 0.15017 0.0
O171 O 0.78167 0.32682 0.12829 0.0
O172 O 0.84342 0.27661 0.33869 0.0
O173 O 0.70033 0.16612 0.35473 0.0
H174 H 0.64594 0.1611 0.17381 0.0
H175 H 0.66555 0.12814 0.17161 0.0
H176 H 0.66159 0.12618 0.13879 0.0
H177 H 0.63919 0.12444 0.15956 0.0
H178 H 0.65524 0.19665 0.17819 0.0
H179 H 0.71167 0.16394 0.1564 0.0
H180 H 0.67009 0.21508 0.23287 0.0
H181 H 0.65608 0.22533 0.20647 0.0
H182 H 0.68145 0.23632 0.21532 0.0
H183 H 0.74452 0.1693 0.17594 0.0
H184 H 0.74231 0.1766 0.20805 0.0
H185 H 0.74849 0.19638 0.18547 0.0
H186 H 0.68551 0.1424 0.33504 0.0
H187 H 0.65681 0.13762 0.36564 0.0
H188 H 0.65858 0.16473 0.35544 0.0
H189 H 0.66865 0.15747 0.38545 0.0
H190 H 0.72338 0.14845 0.31969 0.0
H191 H 0.69369 0.20555 0.34452 0.0
H192 H 0.75242 0.1725 0.26938 0.0
H193 H 0.7289 0.15865 0.2601 0.0
H194 H 0.74536 0.14781 0.28413 0.0
H195 H 0.68958 0.2353 0.31856 0.0
H196 H 0.69442 0.23208 0.28593 0.0
H197 H 0.71532 0.24087 0.3059 0.0
H198 H 0.85081 0.24482 0.34014 0.0
H199 H 0.84932 0.25188 0.29956 0.0
H200 H 0.8117 0.30172 0.33058 0.0
H201 H 0.81426 0.2323 0.25849 0.0
H202 H 0.84235 0.23726 0.26045 0.0
H203 H 0.82594 0.25253 0.23971 0.0
H204 H 0.78163 0.31566 0.31014 0.0
H205 H 0.76686 0.29455 0.29563 0.0
H206 H 0.78147 0.31283 0.27694 0.0
H207 H 0.74947 0.32937 0.12158 0.0
H208 H 0.75279 0.32127 0.07715 0.0
H209 H 0.7657 0.30123 0.09529 0.0
H210 H 0.7814 0.32099 0.07963 0.0
H211 H 0.80767 0.29735 0.14118 0.0
H212 H 0.75279 0.33236 0.16354 0.0
H213 H 0.80211 0.2552 0.18418 0.0
H214 H 0.82011 0.27453 0.19634 0.0
H215 H 0.82072 0.26823 0.16389 0.0
H216 H 0.73673 0.32759 0.20236 0.0
H217 H 0.75224 0.31452 0.22592 0.0
H218 H 0.73388 0.29955 0.20765 0.0
H219 H 0.70203 0.18819 0.24746 0.0
H220 H 0.75327 0.2195 0.30184 0.0
H221 H 0.77963 0.24658 0.29802 0.0
H222 H 0.8009 0.29484 0.23399 0.0
H223 H 0.74932 0.2636 0.17944 0.0
H224 H 0.72441 0.23491 0.18257 0.0
H225 H 0.82654 0.26703 0.38225 0.0
H226 H 0.83397 0.23933 0.38123 0.0
H227 H 0.81557 0.2498 0.35895 0.0
C228 C 0.65813 0.84874 0.36637 0.0
C229 C 0.68006 0.84742 0.3785 0.0
C230 C 0.70036 0.82961 0.34547 0.0
C231 C 0.69191 0.80918 0.34882 0.0
C232 C 0.69657 0.79278 0.33212 0.0
C233 C 0.70979 0.7969 0.31158 0.0
C234 C 0.71862 0.81733 0.30843 0.0
C235 C 0.71395 0.83333 0.32559 0.0
C236 C 0.68709 0.77111 0.3362 0.0
C237 C 0.73258 0.82242 0.2866 0.0
C238 C 0.59485 0.76032 0.21432 0.0
C239 C 0.61117 0.76685 0.19486 0.0
C240 C 0.64554 0.75472 0.20849 0.0
C241 C 0.65886 0.77226 0.20533 0.0
C242 C 0.67699 0.77482 0.22007 0.0
C243 C 0.68161 0.75963 0.23855 0.0
C244 C 0.66823 0.74177 0.24151 0.0
C245 C 0.65056 0.73934 0.22603 0.0
C246 C 0.69109 0.79381 0.21603 0.0
C247 C 0.67228 0.72547 0.26136 0.0
C248 C 0.78805 0.67164 0.18916 0.0
C249 C 0.79471 0.69287 0.18771 0.0
C250 C 0.79058 0.70709 0.20708 0.0
C251 C 0.77976 0.69991 0.22836 0.0
C252 C 0.7734 0.67848 0.23006 0.0
C253 C 0.77767 0.66463 0.21041 0.0
C254 C 0.79773 0.72983 0.20483 0.0
C255 C 0.76204 0.67024 0.2526 0.0
C256 C 0.83462 0.72643 0.40483 0.0
C257 C 0.84848 0.71442 0.38624 0.0
C258 C 0.83369 0.72592 0.34626 0.0
C259 C 0.83705 0.73904 0.32587 0.0
C260 C 0.82194 0.74068 0.30694 0.0
C261 C 0.80303 0.72875 0.30845 0.0
C262 C 0.79949 0.71537 0.32899 0.0
C263 C 0.8148 0.71414 0.34773 0.0
C264 C 0.82619 0.75508 0.28529 0.0
C265 C 0.77956 0.70223 0.33104 0.0
C266 C 0.71326 0.78032 0.29249 0.0
C267 C 0.69741 0.77742 0.27478 0.0
C268 C 0.69984 0.76286 0.25553 0.0
C269 C 0.71889 0.7512 0.25339 0.0
C270 C 0.7224 0.73736 0.23346 0.0
C271 C 0.74099 0.72557 0.23183 0.0
C272 C 0.75668 0.72703 0.25019 0.0
C273 C 0.7754 0.71474 0.24903 0.0
C274 C 0.79031 0.71604 0.26802 0.0
C275 C 0.78725 0.72954 0.28816 0.0
C276 C 0.76902 0.74255 0.28923 0.0
C277 C 0.76578 0.75686 0.30878 0.0
C278 C 0.74762 0.76939 0.30981 0.0
C279 C 0.73189 0.76786 0.2915 0.0
C280 C 0.73479 0.75343 0.27171 0.0
C281 C 0.75355 0.74106 0.27032 0.0
C282 C 0.78135 0.67307 0.1319 0.0
C283 C 0.79829 0.66121 0.14685 0.0
O284 O 0.69576 0.84623 0.36061 0.0
O285 O 0.84904 0.72519 0.36392 0.0
O286 O 0.79114 0.65738 0.17065 0.0
O287 O 0.62772 0.75241 0.19481 0.0
H288 H 0.68083 0.83319 0.39056 0.0
H289 H 0.65487 0.83427 0.35537 0.0
H290 H 0.6572 0.8627 0.35392 0.0
H291 H 0.6456 0.8501 0.3807 0.0
H292 H 0.68156 0.80589 0.36425 0.0
H293 H 0.72049 0.84908 0.3232 0.0
H294 H 0.67519 0.76785 0.32159 0.0
H295 H 0.67921 0.76975 0.35446 0.0
H296 H 0.69958 0.75878 0.33482 0.0
H297 H 0.73738 0.83935 0.28619 0.0
H298 H 0.72412 0.81861 0.26917 0.0
H299 H 0.74708 0.81249 0.28725 0.0
H300 H 0.6171 0.78294 0.19981 0.0
H301 H 0.58151 0.77181 0.21474 0.0
H302 H 0.60237 0.7601 0.23286 0.0
H303 H 0.58853 0.74425 0.21029 0.0
H304 H 0.65505 0.78387 0.19129 0.0
H305 H 0.64016 0.7258 0.22813 0.0
H306 H 0.70794 0.78881 0.21506 0.0
H307 H 0.68947 0.80484 0.23188 0.0
H308 H 0.68698 0.8025 0.19885 0.0
H309 H 0.65897 0.71407 0.2632 0.0
H310 H 0.67485 0.73337 0.27943 0.0
H311 H 0.68687 0.71645 0.25687 0.0
H312 H 0.81311 0.67076 0.14757 0.0
H313 H 0.80307 0.69852 0.17159 0.0
H314 H 0.77272 0.64821 0.21145 0.0
H315 H 0.78379 0.74051 0.20608 0.0
H316 H 0.8061 0.73295 0.18717 0.0
H317 H 0.80849 0.73383 0.22038 0.0
H318 H 0.75772 0.65324 0.25084 0.0
H319 H 0.74739 0.67959 0.25579 0.0
H320 H 0.7723 0.67222 0.26909 0.0
H321 H 0.84199 0.69822 0.38336 0.0
H322 H 0.83422 0.71787 0.42274 0.0
H323 H 0.81811 0.72777 0.39796 0.0
H324 H 0.84092 0.74266 0.40791 0.0
H325 H 0.85164 0.74808 0.32485 0.0
H326 H 0.81182 0.70387 0.36331 0.0
H327 H 0.81276 0.76626 0.28284 0.0
H328 H 0.82743 0.74549 0.26816 0.0
H329 H 0.84105 0.76432 0.28759 0.0
H330 H 0.77952 0.692 0.34772 0.0
H331 H 0.77785 0.69203 0.31445 0.0
H332 H 0.76553 0.71283 0.33177 0.0
H333 H 0.6829 0.78659 0.27605 0.0
H334 H 0.71082 0.73552 0.21887 0.0
H335 H 0.74281 0.71513 0.21611 0.0
H336 H 0.80439 0.70618 0.2673 0.0
H337 H 0.7773 0.75859 0.32346 0.0
H338 H 0.74594 0.78012 0.32528 0.0
H339 H 0.76637 0.66381 0.13133 0.0
H340 H 0.78694 0.67575 0.11271 0.0
H341 H 0.77791 0.68876 0.14018 0.0
C342 C 0.34894 0.87095 0.14387 0.0
C343 C 0.35466 0.84737 0.14365 0.0
C344 C 0.32464 0.82481 0.15249 0.0
C345 C 0.33326 0.81014 0.16911 0.0
C346 C 0.3206 0.80088 0.18747 0.0
C347 C 0.29897 0.80664 0.18933 0.0
C348 C 0.28999 0.82045 0.17154 0.0
C349 C 0.30295 0.82908 0.15303 0.0
C350 C 0.33059 0.7858 0.20565 0.0
C351 C 0.26706 0.82716 0.17297 0.0
C352 C 0.28578 0.90536 0.35305 0.0
C353 C 0.28658 0.89444 0.3287 0.0
C354 C 0.28727 0.85862 0.31157 0.0
C355 C 0.27713 0.86393 0.2893 0.0
C356 C 0.27408 0.84875 0.27077 0.0
C357 C 0.28215 0.82801 0.27403 0.0
C358 C 0.29318 0.82283 0.29599 0.0
C359 C 0.29512 0.8381 0.31472 0.0
C360 C 0.26215 0.85498 0.24769 0.0
C361 C 0.30288 0.80121 0.29971 0.0
C362 C 0.17751 0.74831 0.32572 0.0
C363 C 0.17181 0.76222 0.30664 0.0
C364 C 0.18297 0.76231 0.28425 0.0
C365 C 0.20016 0.74818 0.28092 0.0
C366 C 0.20516 0.73335 0.2996 0.0
C367 C 0.19358 0.73348 0.32173 0.0
C368 C 0.17682 0.77794 0.26444 0.0
C369 C 0.22324 0.71795 0.29653 0.0
C370 C 0.20136 0.70256 0.08998 0.0
C371 C 0.20798 0.68924 0.11225 0.0
C372 C 0.20142 0.70465 0.15254 0.0
C373 C 0.18988 0.72224 0.16039 0.0
C374 C 0.19639 0.73406 0.18096 0.0
C375 C 0.21448 0.72757 0.1945 0.0
C376 C 0.22568 0.70914 0.18721 0.0
C377 C 0.21916 0.69801 0.16606 0.0
C378 C 0.1839 0.7535 0.18814 0.0
C379 C 0.24444 0.70118 0.20178 0.0
C380 C 0.28693 0.80139 0.21208 0.0
C381 C 0.29088 0.81404 0.23275 0.0
C382 C 0.27897 0.81196 0.25431 0.0
C383 C 0.26301 0.7963 0.25573 0.0
C384 C 0.25056 0.79392 0.27705 0.0
C385 C 0.23484 0.77858 0.27829 0.0
C386 C 0.2305 0.76536 0.258 0.0
C387 C 0.21398 0.75026 0.25886 0.0
C388 C 0.20971 0.7377 0.23822 0.0
C389 C 0.22137 0.73998 0.2164 0.0
C390 C 0.23814 0.7549 0.21525 0.0
C391 C 0.2502 0.75774 0.19364 0.0
C392 C 0.26649 0.77265 0.19268 0.0
C393 C 0.27101 0.78562 0.2131 0.0
C394 C 0.25908 0.78302 0.23508 0.0
C395 C 0.24269 0.76761 0.23618 0.0
C396 C 0.18265 0.77339 0.37653 0.0
C397 C 0.16316 0.76683 0.36151 0.0
O398 O 0.33712 0.83562 0.13649 0.0
O399 O 0.19497 0.69418 0.13203 0.0
O400 O 0.16772 0.74869 0.34803 0.0
O401 O 0.28958 0.87271 0.33039 0.0
H402 H 0.35941 0.84334 0.16291 0.0
H403 H 0.33638 0.87389 0.15781 0.0
H404 H 0.34291 0.87614 0.12558 0.0
H405 H 0.36303 0.88062 0.14885 0.0
H406 H 0.35 0.8064 0.16809 0.0
H407 H 0.29647 0.84022 0.13982 0.0
H408 H 0.33311 0.79412 0.22347 0.0
H409 H 0.34615 0.77982 0.19904 0.0
H410 H 0.31993 0.77212 0.20915 0.0
H411 H 0.26275 0.83857 0.1582 0.0
H412 H 0.26382 0.8346 0.19116 0.0
H413 H 0.25666 0.81306 0.17133 0.0
H414 H 0.29709 0.90191 0.3146 0.0
H415 H 0.25474 0.91743 0.3546 0.0
H416 H 0.30021 0.91585 0.35335 0.0
H417 H 0.29219 0.89385 0.3671 0.0
H418 H 0.27124 0.87979 0.28628 0.0
H419 H 0.30309 0.83415 0.33185 0.0
H420 H 0.25025 0.84271 0.2428 0.0
H421 H 0.27346 0.85633 0.23208 0.0
H422 H 0.25389 0.87042 0.24979 0.0
H423 H 0.31407 0.80096 0.31555 0.0
H424 H 0.31144 0.79608 0.28283 0.0
H425 H 0.29016 0.78948 0.30335 0.0
H426 H 0.15909 0.78022 0.34907 0.0
H427 H 0.15863 0.77298 0.30911 0.0
H428 H 0.19755 0.72251 0.33641 0.0
H429 H 0.18962 0.78986 0.26222 0.0
H430 H 0.16184 0.78638 0.26885 0.0
H431 H 0.17493 0.76967 0.24649 0.0
H432 H 0.22471 0.70697 0.31247 0.0
H433 H 0.23833 0.72683 0.29447 0.0
H434 H 0.22092 0.70849 0.27946 0.0
H435 H 0.22478 0.69336 0.1165 0.0
H436 H 0.21175 0.69908 0.07391 0.0
H437 H 0.20285 0.71967 0.0945 0.0
H438 H 0.18463 0.69923 0.08484 0.0
H439 H 0.17604 0.727 0.14992 0.0
H440 H 0.22769 0.68397 0.16022 0.0
H441 H 0.19469 0.76703 0.19183 0.0
H442 H 0.17497 0.75018 0.20536 0.0
H443 H 0.17239 0.75822 0.17363 0.0
H444 H 0.2497 0.68526 0.19554 0.0
H445 H 0.24043 0.70039 0.22172 0.0
H446 H 0.25788 0.71237 0.19969 0.0
H447 H 0.30284 0.82637 0.23169 0.0
H448 H 0.25283 0.80388 0.2931 0.0
H449 H 0.22595 0.77741 0.29532 0.0
H450 H 0.19675 0.72641 0.23892 0.0
H451 H 0.24719 0.74847 0.1772 0.0
H452 H 0.27535 0.77409 0.17565 0.0
H453 H 0.18769 0.76038 0.38905 0.0
H454 H 0.17911 0.78773 0.3877 0.0
H455 H 0.19599 0.77716 0.36389 0.0
C456 C 0.16937 0.63626 0.65327 0.0
C457 C 0.16566 0.66022 0.65325 0.0
C458 C 0.1961 0.68258 0.66205 0.0
C459 C 0.1868 0.69762 0.67773 0.0
C460 C 0.19907 0.70857 0.69518 0.0
C461 C 0.22104 0.70429 0.697 0.0
C462 C 0.23062 0.69 0.68021 0.0
C463 C 0.21801 0.67957 0.66264 0.0
C464 C 0.18841 0.72408 0.71236 0.0
C465 C 0.25395 0.68487 0.68168 0.0
C466 C 0.25696 0.62096 0.86786 0.0
C467 C 0.26226 0.63551 0.84719 0.0
C468 C 0.24666 0.66448 0.82351 0.0
C469 C 0.2617 0.66344 0.8044 0.0
C470 C 0.26034 0.67692 0.78394 0.0
C471 C 0.24369 0.69188 0.78255 0.0
C472 C 0.22842 0.69292 0.80161 0.0
C473 C 0.23013 0.67916 0.8219 0.0
C474 C 0.27689 0.67529 0.76387 0.0
C475 C 0.21055 0.70875 0.80064 0.0
C476 C 0.3334 0.78633 0.82452 0.0
C477 C 0.34048 0.77102 0.80771 0.0
C478 C 0.33049 0.76851 0.78477 0.0
C479 C 0.31303 0.78159 0.77864 0.0
C480 C 0.3069 0.79808 0.79484 0.0
C481 C 0.31736 0.80037 0.81758 0.0
C482 C 0.33787 0.75113 0.76769 0.0
C483 C 0.28854 0.81244 0.78874 0.0
C484 C 0.31164 0.80739 0.57726 0.0
C485 C 0.30442 0.818 0.6012 0.0
C486 C 0.31147 0.80501 0.64283 0.0
C487 C 0.32342 0.78936 0.65448 0.0
C488 C 0.31725 0.78109 0.67737 0.0
C489 C 0.29902 0.78927 0.68928 0.0
C490 C 0.28742 0.80591 0.6781 0.0
C491 C 0.29365 0.81348 0.65481 0.0
C492 C 0.33024 0.76352 0.68873 0.0
C493 C 0.26842 0.81557 0.69071 0.0
C494 C 0.23322 0.71239 0.71849 0.0
C495 C 0.23153 0.70096 0.74053 0.0
C496 C 0.24298 0.70684 0.76147 0.0
C497 C 0.25583 0.72512 0.76092 0.0
C498 C 0.26674 0.73194 0.78208 0.0
C499 C 0.2805 0.74907 0.78105 0.0
C500 C 0.28425 0.75976 0.75868 0.0
C501 C 0.29953 0.77609 0.7571 0.0
C502 C 0.30324 0.7861 0.73452 0.0
C503 C 0.29214 0.78012 0.71323 0.0
C504 C 0.27652 0.76401 0.71455 0.0
C505 C 0.26492 0.75761 0.69361 0.0
C506 C 0.25018 0.74119 0.695 0.0
C507 C 0.24702 0.73006 0.71715 0.0
C508 C 0.25832 0.73644 0.73853 0.0
C509 C 0.27281 0.75363 0.73732 0.0
C510 C 0.32566 0.77039 0.88221 0.0
C511 C 0.34377 0.77037 0.86343 0.0
O512 O 0.18428 0.67044 0.64661 0.0
O513 O 0.31771 0.81162 0.62014 0.0
O514 O 0.34148 0.78756 0.84768 0.0
O515 O 0.24756 0.65157 0.8436 0.0
H516 H 0.16097 0.66441 0.67247 0.0
H517 H 0.18153 0.63218 0.66732 0.0
H518 H 0.17508 0.6307 0.63499 0.0
H519 H 0.15447 0.62777 0.65799 0.0
H520 H 0.1699 0.70052 0.67659 0.0
H521 H 0.22504 0.66815 0.65014 0.0
H522 H 0.1876 0.71713 0.73117 0.0
H523 H 0.17206 0.728 0.70629 0.0
H524 H 0.19781 0.73892 0.71359 0.0
H525 H 0.25892 0.67332 0.66732 0.0
H526 H 0.25771 0.67818 0.70011 0.0
H527 H 0.26342 0.69955 0.67945 0.0
H528 H 0.27895 0.64136 0.84705 0.0
H529 H 0.25141 0.59195 0.85022 0.0
H530 H 0.2446 0.62924 0.87937 0.0
H531 H 0.27006 0.62323 0.88173 0.0
H532 H 0.27462 0.65221 0.80532 0.0
H533 H 0.21857 0.67985 0.83668 0.0
H534 H 0.26911 0.67324 0.74565 0.0
H535 H 0.28796 0.66185 0.76688 0.0
H536 H 0.28625 0.69017 0.76316 0.0
H537 H 0.19992 0.70757 0.81692 0.0
H538 H 0.20106 0.70621 0.78363 0.0
H539 H 0.21714 0.72505 0.79975 0.0
H540 H 0.34262 0.75516 0.8531 0.0
H541 H 0.35355 0.76076 0.81273 0.0
H542 H 0.31232 0.81243 0.83056 0.0
H543 H 0.32602 0.73812 0.76761 0.0
H544 H 0.35341 0.74447 0.77342 0.0
H545 H 0.33922 0.75719 0.74854 0.0
H546 H 0.28651 0.82527 0.80259 0.0
H547 H 0.27371 0.80299 0.78792 0.0
H548 H 0.29094 0.81969 0.77028 0.0
H549 H 0.28791 0.81247 0.60475 0.0
H550 H 0.30101 0.81189 0.56177 0.0
H551 H 0.3111 0.78989 0.57939 0.0
H552 H 0.32814 0.81212 0.57265 0.0
H553 H 0.33733 0.7832 0.64519 0.0
H554 H 0.28475 0.82612 0.64612 0.0
H555 H 0.31981 0.75046 0.69513 0.0
H556 H 0.33883 0.76981 0.70504 0.0
H557 H 0.34207 0.75696 0.67562 0.0
H558 H 0.26249 0.82982 0.68086 0.0
H559 H 0.27252 0.82004 0.70996 0.0
H560 H 0.25545 0.80373 0.69161 0.0
H561 H 0.22178 0.6868 0.74111 0.0
H562 H 0.26484 0.72404 0.79967 0.0
H563 H 0.28848 0.75351 0.79797 0.0
H564 H 0.31547 0.79814 0.73329 0.0
H565 H 0.26715 0.76518 0.67588 0.0
H566 H 0.24169 0.73694 0.67834 0.0
H567 H 0.32547 0.7854 0.89294 0.0
H568 H 0.32735 0.75684 0.89516 0.0
H569 H 0.31026 0.7688 0.87245 0.0
C570 C 0.17875 0.38065 0.8259 0.0
C571 C 0.18613 0.36981 0.84975 0.0
C572 C 0.20746 0.34132 0.83275 0.0
C573 C 0.19623 0.32305 0.83941 0.0
C574 C 0.19812 0.30438 0.82549 0.0
C575 C 0.21123 0.30418 0.80427 0.0
C576 C 0.22293 0.32252 0.79788 0.0
C577 C 0.22121 0.34076 0.81258 0.0
C578 C 0.18578 0.285 0.83322 0.0
C579 C 0.23671 0.32312 0.77512 0.0
C580 C 0.08509 0.27294 0.71693 0.0
C581 C 0.10276 0.27502 0.69776 0.0
C582 C 0.13534 0.25999 0.71336 0.0
C583 C 0.15106 0.27438 0.70621 0.0
C584 C 0.17003 0.27606 0.71962 0.0
C585 C 0.17308 0.26328 0.74082 0.0
C586 C 0.15713 0.24871 0.748 0.0
C587 C 0.13862 0.24695 0.73379 0.0
C588 C 0.18678 0.29151 0.71119 0.0
C589 C 0.15946 0.23523 0.77085 0.0
C590 C 0.2529 0.15148 0.70584 0.0
C591 C 0.26111 0.17059 0.69684 0.0
C592 C 0.26401 0.18798 0.71264 0.0
C593 C 0.25819 0.1862 0.7378 0.0
C594 C 0.25066 0.16662 0.74705 0.0
C595 C 0.24841 0.14936 0.73093 0.0
C596 C 0.27288 0.20835 0.70238 0.0
C597 C 0.24443 0.16409 0.77378 0.0
C598 C 0.34044 0.25174 0.8834 0.0
C599 C 0.3457 0.22831 0.87902 0.0
C600 C 0.32926 0.22394 0.8383 0.0
C601 C 0.33239 0.23007 0.8138 0.0
C602 C 0.31547 0.23071 0.79699 0.0
C603 C 0.295 0.22441 0.80476 0.0
C604 C 0.29185 0.21748 0.82934 0.0
C605 C 0.30894 0.21759 0.84594 0.0
C606 C 0.31946 0.23816 0.77093 0.0
C607 C 0.27049 0.20969 0.83803 0.0
C608 C 0.21132 0.2854 0.78773 0.0
C609 C 0.19392 0.28274 0.77205 0.0
C610 C 0.19263 0.26554 0.7559 0.0
C611 C 0.20933 0.25064 0.75497 0.0
C612 C 0.20876 0.23342 0.73855 0.0
C613 C 0.22492 0.21846 0.73828 0.0
C614 C 0.24247 0.22031 0.75416 0.0
C615 C 0.25888 0.20506 0.75414 0.0
C616 C 0.2759 0.20714 0.77045 0.0
C617 C 0.27708 0.22414 0.78695 0.0
C618 C 0.26097 0.23977 0.787 0.0
C619 C 0.26173 0.25725 0.80309 0.0
C620 C 0.24547 0.27219 0.80346 0.0
C621 C 0.22797 0.27037 0.78751 0.0
C622 C 0.22698 0.25297 0.77098 0.0
C623 C 0.24354 0.23773 0.77063 0.0
C624 C 0.21319 0.13274 0.67765 0.0
C625 C 0.23634 0.13573 0.66995 0.0
O626 O 0.2053 0.35967 0.84549 0.0
O627 O 0.34621 0.22421 0.85385 0.0
O628 O 0.24922 0.13483 0.69066 0.0
O629 O 0.11691 0.25842 0.70068 0.0
H630 H 0.1739 0.35811 0.85548 0.0
H631 H 0.17674 0.36871 0.81102 0.0
H632 H 0.19061 0.39257 0.81979 0.0
H633 H 0.16325 0.38863 0.82868 0.0
H634 H 0.18609 0.32337 0.85553 0.0
H635 H 0.22995 0.35497 0.80782 0.0
H636 H 0.17253 0.28239 0.82008 0.0
H637 H 0.17906 0.28666 0.85207 0.0
H638 H 0.19609 0.27074 0.83269 0.0
H639 H 0.24329 0.33916 0.77159 0.0
H640 H 0.22744 0.31804 0.75872 0.0
H641 H 0.2501 0.31188 0.7773 0.0
H642 H 0.11087 0.29049 0.70093 0.0
H643 H 0.0737 0.28629 0.71523 0.0
H644 H 0.09197 0.27331 0.7358 0.0
H645 H 0.07644 0.25774 0.71449 0.0
H646 H 0.1485 0.28415 0.69004 0.0
H647 H 0.12632 0.23583 0.73899 0.0
H648 H 0.20246 0.28355 0.7103 0.0
H649 H 0.18804 0.30463 0.72476 0.0
H650 H 0.1831 0.29838 0.69281 0.0
H651 H 0.14449 0.22696 0.77571 0.0
H652 H 0.16447 0.24512 0.78678 0.0
H653 H 0.17192 0.22311 0.76776 0.0
H654 H 0.23785 0.15145 0.66079 0.0
H655 H 0.26528 0.17189 0.67751 0.0
H656 H 0.24238 0.13436 0.73766 0.0
H657 H 0.26018 0.2205 0.70176 0.0
H658 H 0.27931 0.20629 0.68344 0.0
H659 H 0.28567 0.21446 0.71456 0.0
H660 H 0.23776 0.14816 0.77773 0.0
H661 H 0.2325 0.17627 0.77886 0.0
H662 H 0.25853 0.16657 0.7857 0.0
H663 H 0.33349 0.21833 0.8881 0.0
H664 H 0.33986 0.25531 0.90347 0.0
H665 H 0.32468 0.2556 0.87544 0.0
H666 H 0.35254 0.26204 0.87456 0.0
H667 H 0.34814 0.23478 0.80801 0.0
H668 H 0.3063 0.21224 0.86463 0.0
H669 H 0.30761 0.25036 0.76565 0.0
H670 H 0.31764 0.22461 0.75803 0.0
H671 H 0.33561 0.24488 0.76862 0.0
H672 H 0.2713 0.2023 0.85662 0.0
H673 H 0.26397 0.19791 0.82482 0.0
H674 H 0.25924 0.22318 0.83887 0.0
H675 H 0.18107 0.29416 0.77258 0.0
H676 H 0.19572 0.23121 0.72581 0.0
H677 H 0.22342 0.2054 0.72545 0.0
H678 H 0.28822 0.19514 0.7706 0.0
H679 H 0.27486 0.25951 0.81569 0.0
H680 H 0.24677 0.28518 0.81643 0.0
H681 H 0.20262 0.13348 0.66126 0.0
H682 H 0.20843 0.14554 0.69059 0.0
H683 H 0.21101 0.11722 0.68701 0.0
C684 C 0.84893 0.37912 0.64102 0.0
C685 C 0.85377 0.35537 0.64205 0.0
C686 C 0.82536 0.33127 0.65277 0.0
C687 C 0.83637 0.31632 0.66696 0.0
C688 C 0.82606 0.30505 0.68578 0.0
C689 C 0.80438 0.30909 0.69064 0.0
C690 C 0.79296 0.32321 0.67524 0.0
C691 C 0.80359 0.33383 0.65613 0.0
C692 C 0.83861 0.2897 0.70131 0.0
C693 C 0.76992 0.32821 0.67996 0.0
C694 C 0.81818 0.39921 0.85665 0.0
C695 C 0.8127 0.38848 0.83294 0.0
C696 C 0.80884 0.35303 0.81534 0.0
C697 C 0.79435 0.35912 0.79691 0.0
C698 C 0.7875 0.34468 0.77895 0.0
C699 C 0.79586 0.32387 0.77875 0.0
C700 C 0.81049 0.31766 0.7972 0.0
C701 C 0.81648 0.33225 0.81553 0.0
C702 C 0.77162 0.35186 0.75983 0.0
C703 C 0.82017 0.2958 0.79719 0.0
C704 C 0.69166 0.23857 0.83155 0.0
C705 C 0.68668 0.25514 0.81535 0.0
C706 C 0.69762 0.25749 0.79297 0.0
C707 C 0.71411 0.24315 0.78695 0.0
C708 C 0.7187 0.22605 0.80298 0.0
C709 C 0.70715 0.22382 0.82496 0.0
C710 C 0.69166 0.27538 0.77584 0.0
C711 C 0.73604 0.21039 0.79711 0.0
C712 C 0.70948 0.19655 0.59876 0.0
C713 C 0.71786 0.18246 0.61956 0.0
C714 C 0.71282 0.19839 0.65983 0.0
C715 C 0.70024 0.21531 0.66757 0.0
C716 C 0.70673 0.22849 0.68704 0.0
C717 C 0.72595 0.22409 0.69958 0.0
C718 C 0.7384 0.20648 0.69226 0.0
C719 C 0.7318 0.19396 0.67222 0.0
C720 C 0.69301 0.24709 0.69419 0.0
C721 C 0.7585 0.20072 0.70578 0.0
C722 C 0.79486 0.30181 0.71423 0.0
C723 C 0.80029 0.31326 0.73537 0.0
C724 C 0.79051 0.3094 0.75802 0.0
C725 C 0.77495 0.29337 0.75987 0.0
C726 C 0.76432 0.28946 0.78219 0.0
C727 C 0.74879 0.27388 0.78374 0.0
C728 C 0.7431 0.26178 0.76295 0.0
C729 C 0.72685 0.24639 0.7642 0.0
C730 C 0.72195 0.23426 0.74339 0.0
C731 C 0.73249 0.23738 0.72096 0.0
C732 C 0.74836 0.25318 0.71913 0.0
C733 C 0.75877 0.25738 0.69668 0.0
C734 C 0.77421 0.27312 0.69507 0.0
C735 C 0.77971 0.28534 0.71579 0.0
C736 C 0.76962 0.28122 0.73869 0.0
C737 C 0.75377 0.26529 0.74029 0.0
C738 C 0.69555 0.24935 0.89076 0.0
C739 C 0.67853 0.2519 0.87083 0.0
O740 O 0.83554 0.34404 0.63651 0.0
O741 O 0.70612 0.18622 0.64074 0.0
O742 O 0.68136 0.23612 0.8533 0.0
O743 O 0.81583 0.36671 0.83304 0.0
H744 H 0.85899 0.35218 0.66137 0.0
H745 H 0.83705 0.38319 0.65538 0.0
H746 H 0.84235 0.3837 0.62277 0.0
H747 H 0.86354 0.38846 0.64463 0.0
H748 H 0.85315 0.31391 0.66373 0.0
H749 H 0.79523 0.34522 0.64476 0.0
H750 H 0.84249 0.29725 0.71927 0.0
H751 H 0.85368 0.28503 0.69221 0.0
H752 H 0.82914 0.27524 0.70516 0.0
H753 H 0.76365 0.34032 0.66699 0.0
H754 H 0.76784 0.33409 0.69913 0.0
H755 H 0.76029 0.3136 0.67799 0.0
H756 H 0.81907 0.39616 0.81595 0.0
H757 H 0.83192 0.40988 0.85204 0.0
H758 H 0.828 0.38762 0.86759 0.0
H759 H 0.78893 0.41088 0.86909 0.0
H760 H 0.78827 0.37512 0.79631 0.0
H761 H 0.82764 0.32765 0.82977 0.0
H762 H 0.75919 0.33963 0.75709 0.0
H763 H 0.77982 0.35422 0.74192 0.0
H764 H 0.76386 0.36701 0.76507 0.0
H765 H 0.83235 0.2939 0.81184 0.0
H766 H 0.8276 0.29254 0.77899 0.0
H767 H 0.80761 0.28376 0.80008 0.0
H768 H 0.68045 0.2679 0.86246 0.0
H769 H 0.67407 0.26606 0.82008 0.0
H770 H 0.71056 0.21086 0.83747 0.0
H771 H 0.70449 0.2874 0.77574 0.0
H772 H 0.67669 0.28327 0.78152 0.0
H773 H 0.68983 0.26941 0.75667 0.0
H774 H 0.73855 0.19879 0.81225 0.0
H775 H 0.75115 0.21892 0.79362 0.0
H776 H 0.73193 0.20158 0.78002 0.0
H777 H 0.73481 0.18671 0.6226 0.0
H778 H 0.71887 0.19409 0.58165 0.0
H779 H 0.71083 0.21348 0.60418 0.0
H780 H 0.69255 0.19296 0.59491 0.0
H781 H 0.6855 0.21842 0.65796 0.0
H782 H 0.7412 0.18046 0.66649 0.0
H783 H 0.7028 0.26163 0.69612 0.0
H784 H 0.68551 0.24391 0.71235 0.0
H785 H 0.68028 0.25012 0.68047 0.0
H786 H 0.76498 0.18521 0.69967 0.0
H787 H 0.75553 0.20006 0.72597 0.0
H788 H 0.77068 0.21308 0.70248 0.0
H789 H 0.81178 0.32601 0.73397 0.0
H790 H 0.76786 0.29844 0.79871 0.0
H791 H 0.74121 0.27154 0.80145 0.0
H792 H 0.70954 0.2224 0.74457 0.0
H793 H 0.75502 0.24861 0.68007 0.0
H794 H 0.78174 0.2757 0.67736 0.0
H795 H 0.69438 0.26221 0.9047 0.0
H796 H 0.71153 0.25016 0.88223 0.0
H797 H 0.69386 0.23379 0.90018 0.0
C798 C 0.79161 0.62332 0.8079 0.0
C799 C 0.78677 0.63741 0.83023 0.0
C800 C 0.77084 0.66951 0.81491 0.0
C801 C 0.78281 0.6855 0.82619 0.0
C802 C 0.78608 0.70499 0.81432 0.0
C803 C 0.77729 0.70842 0.79061 0.0
C804 C 0.76442 0.6926 0.77969 0.0
C805 C 0.76112 0.67337 0.79219 0.0
C806 C 0.79949 0.72166 0.82678 0.0
C807 C 0.75486 0.69568 0.75442 0.0
C808 C 0.91398 0.70853 0.71844 0.0
C809 C 0.89917 0.71883 0.69956 0.0
C810 C 0.87132 0.74006 0.71827 0.0
C811 C 0.85347 0.73246 0.70558 0.0
C812 C 0.83312 0.73446 0.71577 0.0
C813 C 0.83063 0.7443 0.73907 0.0
C814 C 0.84855 0.75259 0.75149 0.0
C815 C 0.86868 0.75061 0.74071 0.0
C816 C 0.81428 0.72594 0.70177 0.0
C817 C 0.8465 0.76317 0.77636 0.0
C818 C 0.78161 0.87313 0.70811 0.0
C819 C 0.77103 0.85699 0.69525 0.0
C820 C 0.76235 0.83961 0.70792 0.0
C821 C 0.76463 0.83827 0.73388 0.0
C822 C 0.77452 0.85502 0.74692 0.0
C823 C 0.7826 0.87241 0.73383 0.0
C824 C 0.75114 0.82249 0.69351 0.0
C825 C 0.77709 0.85427 0.77461 0.0
C826 C 0.65272 0.76412 0.84222 0.0
C827 C 0.65719 0.78627 0.85257 0.0
C828 C 0.67611 0.80291 0.81905 0.0
C829 C 0.6744 0.79991 0.79359 0.0
C830 C 0.69251 0.80001 0.77851 0.0
C831 C 0.71262 0.8037 0.78925 0.0
C832 C 0.71419 0.8081 0.81482 0.0
C833 C 0.69589 0.80752 0.82949 0.0
C834 C 0.69026 0.79542 0.75131 0.0
C835 C 0.73528 0.81284 0.82676 0.0
C836 C 0.78306 0.72775 0.77647 0.0
C837 C 0.80248 0.72769 0.76406 0.0
C838 C 0.8094 0.74536 0.7508 0.0
C839 C 0.7965 0.76363 0.7495 0.0
C840 C 0.80289 0.78159 0.73611 0.0
C841 C 0.79031 0.79967 0.73535 0.0
C842 C 0.77074 0.80044 0.74777 0.0
C843 C 0.75791 0.81883 0.74725 0.0
C844 C 0.73885 0.81926 0.76043 0.0
C845 C 0.73217 0.80173 0.77417 0.0
C846 C 0.74454 0.78301 0.77441 0.0
C847 C 0.73809 0.76493 0.78765 0.0
C848 C 0.75063 0.7468 0.78832 0.0
C849 C 0.77007 0.746 0.7757 0.0
C850 C 0.7768 0.76398 0.76208 0.0
C851 C 0.76396 0.78245 0.7613 0.0
C852 C 0.82526 0.89553 0.68019 0.0
C853 C 0.80255 0.88849 0.67471 0.0
O854 O 0.76927 0.64998 0.82522 0.0
O855 O 0.6586 0.80071 0.83334 0.0
O856 O 0.79081 0.88971 0.69632 0.0
O857 O 0.89122 0.73753 0.70927 0.0
H858 H 0.80107 0.64746 0.83323 0.0
H859 H 0.79575 0.63335 0.79176 0.0
H860 H 0.77766 0.61347 0.80292 0.0
H861 H 0.80528 0.61277 0.81193 0.0
H862 H 0.78986 0.68256 0.8441 0.0
H863 H 0.75177 0.66091 0.78376 0.0
H864 H 0.81474 0.72328 0.81674 0.0
H865 H 0.80297 0.71763 0.84633 0.0
H866 H 0.79136 0.73726 0.82613 0.0
H867 H 0.74537 0.68178 0.7484 0.0
H868 H 0.76765 0.6985 0.74072 0.0
H869 H 0.7445 0.70989 0.75446 0.0
H870 H 0.88623 0.70722 0.69608 0.0
H871 H 0.92075 0.69363 0.71086 0.0
H872 H 0.90497 0.7046 0.73545 0.0
H873 H 0.92713 0.71941 0.7235 0.0
H874 H 0.85543 0.72506 0.68769 0.0
H875 H 0.88256 0.75669 0.75014 0.0
H876 H 0.80711 0.71264 0.71226 0.0
H877 H 0.81866 0.72016 0.68309 0.0
H878 H 0.80202 0.73846 0.6999 0.0
H879 H 0.8621 0.76786 0.78413 0.0
H880 H 0.83853 0.75231 0.78955 0.0
H881 H 0.83647 0.77754 0.77464 0.0
H882 H 0.80341 0.87184 0.66793 0.0
H883 H 0.7695 0.85799 0.67537 0.0
H884 H 0.79045 0.8852 0.74357 0.0
H885 H 0.7611 0.808 0.69322 0.0
H886 H 0.74794 0.82733 0.67415 0.0
H887 H 0.73589 0.81835 0.70256 0.0
H888 H 0.7863 0.86795 0.7818 0.0
H889 H 0.78522 0.83939 0.78009 0.0
H890 H 0.76124 0.8543 0.78349 0.0
H891 H 0.67245 0.78566 0.86287 0.0
H892 H 0.65148 0.75239 0.85745 0.0
H893 H 0.66587 0.75912 0.8299 0.0
H894 H 0.63773 0.76406 0.83145 0.0
H895 H 0.65895 0.79659 0.78573 0.0
H896 H 0.69702 0.81053 0.84913 0.0
H897 H 0.69977 0.78121 0.74643 0.0
H898 H 0.69657 0.80893 0.74045 0.0
H899 H 0.67352 0.79263 0.74585 0.0
H900 H 0.73348 0.81854 0.84605 0.0
H901 H 0.74397 0.825 0.81594 0.0
H902 H 0.7451 0.79825 0.82696 0.0
H903 H 0.8125 0.71373 0.76498 0.0
H904 H 0.81776 0.78192 0.72615 0.0
H905 H 0.7962 0.81306 0.72494 0.0
H906 H 0.72931 0.83356 0.76039 0.0
H907 H 0.72327 0.7646 0.79771 0.0
H908 H 0.74494 0.73342 0.79893 0.0
H909 H 0.82552 0.91214 0.68699 0.0
H910 H 0.83518 0.89436 0.6633 0.0
H911 H 0.83227 0.88513 0.69457 0.0
C912 C 0.97285 0.31746 0.5252 0.0
C913 C 0.03214 0.30674 0.46894 0.0
O914 O 0.98335 0.3315 0.51366 0.0
Zn915 Zn 0.00199 0.31229 0.49639 0.0
O916 O 0.97724 0.29782 0.52197 0.0
Zn917 Zn 0.99915 0.27911 0.50078 0.0
O918 O 0.01397 0.26424 0.52658 0.0
O919 O 0.02033 0.29866 0.52615 0.0
O920 O 0.02459 0.28919 0.47706 0.0
O921 O 0.0235 0.32408 0.47525 0.0
O922 O 0.98056 0.29729 0.47107 0.0
O923 O 0.98068 0.26311 0.47936 0.0
C924 C 0.02336 0.28027 0.53566 0.0
C925 C 0.97376 0.27853 0.46663 0.0
C926 C 0.71117 0.03743 0.54175 0.0
C927 C 0.70449 0.97629 0.48664 0.0
O928 O 0.72869 0.03214 0.53148 0.0
Zn929 Zn 0.74005 0.00908 0.50559 0.0
O930 O 0.69443 0.02696 0.53706 0.0
Zn931 Zn 0.70731 0.00661 0.5147 0.0
O932 O 0.72839 0.98911 0.53826 0.0
O933 O 0.76096 0.99376 0.52446 0.0
O934 O 0.69013 0.98443 0.5001 0.0
O935 O 0.72326 0.98408 0.48713 0.0
O936 O 0.74925 0.02695 0.47855 0.0
O937 O 0.71452 0.02624 0.48351 0.0
C938 C 0.74833 0.98543 0.53994 0.0
C939 C 0.73089 0.03284 0.47178 0.0
C940 C 0.99248 0.73049 0.54867 0.0
C941 C 0.04322 0.73892 0.48131 0.0
O942 O 0.00082 0.74764 0.54109 0.0
Zn943 Zn 0.0175 0.73525 0.51485 0.0
O944 O 0.99712 0.71296 0.53793 0.0
Zn945 Zn 0.01657 0.70209 0.50788 0.0
O946 O 0.03612 0.68316 0.52424 0.0
O947 O 0.04008 0.71663 0.53514 0.0
O948 O 0.0373 0.71967 0.48433 0.0
O949 O 0.03552 0.75333 0.49504 0.0
O950 O 0.99344 0.72515 0.48944 0.0
O951 O 0.99598 0.69049 0.48517 0.0
C952 C 0.0456 0.69714 0.53704 0.0
C953 C 0.98684 0.70782 0.47974 0.0
C954 C 0.27103 0.02275 0.54404 0.0
C955 C 0.27705 0.97451 0.47466 0.0
O956 O 0.29044 0.01791 0.53971 0.0
Zn957 Zn 0.30742 0.99854 0.51355 0.0
O958 O 0.25646 0.01465 0.53094 0.0
Zn959 Zn 0.27416 0.99799 0.50981 0.0
O960 O 0.28684 0.97409 0.53364 0.0
O961 O 0.32161 0.97759 0.53365 0.0
O962 O 0.26035 0.9812 0.48516 0.0
O963 O 0.29531 0.97983 0.48308 0.0
O964 O 0.32451 0.01935 0.49672 0.0
O965 O 0.29036 0.02156 0.48801 0.0
C966 C 0.30514 0.96788 0.54094 0.0
C967 C 0.30945 0.02803 0.48487 0.0
C968 C 0.47657 0.81534 0.02841 0.0
C969 C 0.53412 0.80387 0.96969 0.0
O970 O 0.48705 0.8294 0.01686 0.0
Zn971 Zn 0.5051 0.81009 0.99862 0.0
O972 O 0.48058 0.7957 0.02467 0.0
Zn973 Zn 0.50147 0.77678 0.00262 0.0
O974 O 0.51672 0.76136 0.02763 0.0
O975 O 0.52381 0.79564 0.02745 0.0
O976 O 0.5263 0.78653 0.97805 0.0
O977 O 0.5263 0.82147 0.97653 0.0
O978 O 0.48286 0.79584 0.97381 0.0
O979 O 0.48192 0.76157 0.98157 0.0
C980 C 0.52669 0.77709 0.03659 0.0
C981 C 0.47535 0.77738 0.96925 0.0
C982 C 0.20348 0.5434 0.03835 0.0
C983 C 0.20081 0.48508 0.97922 0.0
O984 O 0.2219 0.53665 0.03226 0.0
Zn985 Zn 0.23526 0.51305 0.00872 0.0
O986 O 0.18711 0.53463 0.02929 0.0
Zn987 Zn 0.20166 0.51367 0.00932 0.0
O988 O 0.2161 0.49265 0.03563 0.0
O989 O 0.25074 0.49509 0.03095 0.0
O990 O 0.18516 0.49396 0.98979 0.0
O991 O 0.21977 0.49077 0.98464 0.0
O992 O 0.25111 0.52983 0.98567 0.0
O993 O 0.21644 0.53271 0.98104 0.0
C994 C 0.23489 0.48694 0.04181 0.0
C995 C 0.23531 0.53746 0.97414 0.0
C996 C 0.5438 0.23753 0.97055 0.0
C997 C 0.49253 0.2346 0.03799 0.0
O998 O 0.53625 0.25303 0.98266 0.0
Zn999 Zn 0.51705 0.2369 0.00346 0.0
O1000 O 0.53672 0.21882 0.9745 0.0
Zn1001 Zn 0.51405 0.20362 0.99763 0.0
O1002 O 0.49261 0.1932 0.97493 0.0
O1003 O 0.49178 0.22792 0.97943 0.0
O1004 O 0.49581 0.21657 0.02769 0.0
O1005 O 0.50168 0.25106 0.02957 0.0
O1006 O 0.53809 0.21716 0.02473 0.0
O1007 O 0.53194 0.1837 0.01504 0.0
C1008 C 0.48408 0.21094 0.97003 0.0
C1009 C 0.54216 0.19739 0.02754 0.0
C1010 C 0.80992 0.53288 0.03687 0.0
C1011 C 0.8154 0.47779 0.97363 0.0
O1012 O 0.8269 0.52485 0.02837 0.0
Zn1013 Zn 0.81373 0.50545 0.0049 0.0
O1014 O 0.792 0.52645 0.02864 0.0
Zn1015 Zn 0.77971 0.50457 0.00252 0.0
O1016 O 0.76373 0.48516 0.02305 0.0
O1017 O 0.79839 0.48233 0.02785 0.0
O1018 O 0.79633 0.48287 0.97919 0.0
O1019 O 0.83092 0.48743 0.9836 0.0
O1020 O 0.80011 0.52638 0.9784 0.0
O1021 O 0.76534 0.52296 0.9789 0.0
C1022 C 0.77957 0.47605 0.03301 0.0
C1023 C 0.78186 0.53167 0.97007 0.0
H1024 H 0.15792 0.33342 0.4149 0.0
H1025 H 0.14156 0.27557 0.3769 0.0
H1026 H 0.12243 0.33494 0.43262 0.0
H1027 H 0.1058 0.2774 0.39388 0.0
H1028 H 0.05605 0.2726 0.45558 0.0
H1029 H 0.08937 0.27245 0.43316 0.0
H1030 H 0.08535 0.34038 0.42428 0.0
H1031 H 0.05217 0.3406 0.44743 0.0
C1032 C 0.14654 0.3213 0.4099 0.0
C1033 C 0.1524 0.30461 0.39417 0.0
C1034 C 0.12617 0.3222 0.41996 0.0
C1035 C 0.1112 0.30633 0.41463 0.0
C1036 C 0.11698 0.28979 0.39857 0.0
C1037 C 0.1374 0.28884 0.38861 0.0
C1038 C 0.06215 0.28751 0.44869 0.0
C1039 C 0.05148 0.30663 0.45344 0.0
C1040 C 0.08123 0.2874 0.43566 0.0
C1041 C 0.0901 0.30641 0.42692 0.0
C1042 C 0.07912 0.32549 0.43106 0.0
C1043 C 0.06004 0.32561 0.44421 0.0
H1044 H 0.71337 0.1505 0.39632 0.0
H1045 H 0.6874 0.10526 0.34474 0.0
H1046 H 0.72689 0.12142 0.42169 0.0
H1047 H 0.70081 0.07621 0.37014 0.0
H1048 H 0.69569 0.03785 0.4437 0.0
H1049 H 0.68892 0.06481 0.41261 0.0
H1050 H 0.7523 0.08923 0.42234 0.0
H1051 H 0.75922 0.06191 0.45359 0.0
C1052 C 0.71105 0.13436 0.39009 0.0
C1053 C 0.69958 0.13012 0.36838 0.0
C1054 C 0.71881 0.11773 0.40457 0.0
C1055 C 0.71489 0.09659 0.39785 0.0
C1056 C 0.704 0.09238 0.37577 0.0
C1057 C 0.69642 0.10897 0.36121 0.0
C1058 C 0.7083 0.04878 0.43901 0.0
C1059 C 0.72796 0.04783 0.45113 0.0
C1060 C 0.70446 0.06414 0.42109 0.0
C1061 C 0.72009 0.0791 0.41507 0.0
C1062 C 0.73997 0.0779 0.42673 0.0
C1063 C 0.74395 0.06223 0.44446 0.0
H1064 H 0.88203 0.74241 0.38274 0.0
H1065 H 0.86449 0.68207 0.41416 0.0
H1066 H 0.91675 0.73987 0.40224 0.0
H1067 H 0.89891 0.67984 0.43453 0.0
H1068 H 0.96854 0.67463 0.45473 0.0
H1069 H 0.93657 0.67549 0.42927 0.0
H1070 H 0.93053 0.74269 0.44295 0.0
H1071 H 0.9626 0.74196 0.46758 0.0
C1072 C 0.88572 0.72846 0.39355 0.0
C1073 C 0.87069 0.71221 0.39651 0.0
C1074 C 0.90553 0.72709 0.40497 0.0
C1075 C 0.91065 0.70966 0.42002 0.0
C1076 C 0.89569 0.6933 0.42273 0.0
C1077 C 0.87593 0.6946 0.41116 0.0
C1078 C 0.96047 0.6896 0.45208 0.0
C1079 C 0.96812 0.7082 0.46324 0.0
C1080 C 0.94208 0.69008 0.43761 0.0
C1081 C 0.93094 0.70916 0.43404 0.0
C1082 C 0.93886 0.72778 0.44489 0.0
C1083 C 0.95722 0.72732 0.45922 0.0
H1084 H 0.24967 0.87023 0.35504 0.0
H1085 H 0.27443 0.93764 0.31008 0.0
H1086 H 0.25498 0.89243 0.40141 0.0
H1087 H 0.27888 0.95806 0.35755 0.0
H1088 H 0.30486 0.9729 0.43638 0.0
H1089 H 0.30124 0.95283 0.39792 0.0
H1090 H 0.24246 0.92616 0.42418 0.0
H1091 H 0.2457 0.94669 0.46239 0.0
C1092 C 0.25423 0.88675 0.35549 0.0
C1093 C 0.2652 0.90054 0.32793 0.0
C1094 C 0.25856 0.90037 0.38423 0.0
C1095 C 0.26883 0.92708 0.38458 0.0
C1096 C 0.27369 0.94176 0.35655 0.0
C1097 C 0.26984 0.92961 0.32689 0.0
C1098 C 0.29125 0.96263 0.43399 0.0
C1099 C 0.27551 0.96136 0.45226 0.0
C1100 C 0.28915 0.95126 0.412 0.0
C1101 C 0.27161 0.93801 0.40827 0.0
C1102 C 0.25623 0.93615 0.42681 0.0
C1103 C 0.25801 0.94798 0.44854 0.0
H1104 H 0.12722 0.67819 0.6642 0.0
H1105 H 0.16443 0.65573 0.60266 0.0
H1106 H 0.09813 0.68671 0.63613 0.0
H1107 H 0.13517 0.66402 0.57456 0.0
H1108 H 0.06789 0.65985 0.53911 0.0
H1109 H 0.09715 0.65102 0.56701 0.0
H1110 H 0.09173 0.71256 0.60124 0.0
H1111 H 0.06268 0.72144 0.57349 0.0
C1112 C 0.12917 0.67511 0.64467 0.0
C1113 C 0.14803 0.66618 0.63563 0.0
C1114 C 0.11255 0.68001 0.62861 0.0
C1115 C 0.11437 0.67591 0.60321 0.0
C1116 C 0.13326 0.66708 0.59411 0.0
C1117 C 0.14999 0.66242 0.61014 0.0
C1118 C 0.07292 0.67144 0.55264 0.0
C1119 C 0.06298 0.69133 0.55408 0.0
C1120 C 0.08973 0.66644 0.56847 0.0
C1121 C 0.09668 0.68112 0.58626 0.0
C1122 C 0.08659 0.70089 0.58784 0.0
C1123 C 0.07002 0.70598 0.57185 0.0
H1124 H 0.23121 0.13633 0.61998 0.0
H1125 H 0.25432 0.09638 0.67883 0.0
H1126 H 0.23939 0.1085 0.59002 0.0
H1127 H 0.2628 0.06872 0.64882 0.0
H1128 H 0.29665 0.03708 0.58114 0.0
H1129 H 0.28849 0.06413 0.61202 0.0
H1130 H 0.22567 0.07094 0.58146 0.0
H1131 H 0.23368 0.04382 0.55068 0.0
C1132 C 0.23827 0.1217 0.62643 0.0
C1133 C 0.2426 0.11875 0.65163 0.0
C1134 C 0.2428 0.10575 0.60936 0.0
C1135 C 0.2518 0.08654 0.61715 0.0
C1136 C 0.25612 0.08352 0.64233 0.0
C1137 C 0.25132 0.09936 0.65946 0.0
C1138 C 0.28106 0.04426 0.58109 0.0
C1139 C 0.26581 0.03833 0.56347 0.0
C1140 C 0.27639 0.05967 0.59881 0.0
C1141 C 0.2565 0.06964 0.59901 0.0
C1142 C 0.2412 0.06361 0.58154 0.0
C1143 C 0.24575 0.048 0.56405 0.0
H1144 H 0.85482 0.35984 0.5914 0.0
H1145 H 0.89211 0.33714 0.65281 0.0
H1146 H 0.88395 0.35138 0.56321 0.0
H1147 H 0.92099 0.3283 0.62457 0.0
H1148 H 0.95502 0.2929 0.56084 0.0
H1149 H 0.92623 0.3021 0.58887 0.0
H1150 H 0.92269 0.36445 0.55641 0.0
H1151 H 0.95176 0.35534 0.52834 0.0
C1152 C 0.86926 0.35313 0.59885 0.0
C1153 C 0.87133 0.34944 0.62434 0.0
C1154 C 0.8859 0.34833 0.58276 0.0
C1155 C 0.90472 0.33934 0.59178 0.0
C1156 C 0.90661 0.3352 0.61716 0.0
C1157 C 0.89012 0.34029 0.63329 0.0
C1158 C 0.94814 0.30859 0.55966 0.0
C1159 C 0.95565 0.32341 0.54237 0.0
C1160 C 0.93174 0.31386 0.57579 0.0
C1161 C 0.92226 0.33396 0.57475 0.0
C1162 C 0.92966 0.34879 0.55743 0.0
C1163 C 0.94634 0.34363 0.54151 0.0
H1164 H 0.78022 0.926 0.67982 0.0
H1165 H 0.80475 0.88303 0.62478 0.0
H1166 H 0.76716 0.94933 0.64722 0.0
H1167 H 0.79187 0.90652 0.59211 0.0
H1168 H 0.78765 0.96732 0.54408 0.0
H1169 H 0.80027 0.94363 0.57667 0.0
H1170 H 0.73962 0.94824 0.61314 0.0
H1171 H 0.72696 0.97181 0.58067 0.0
C1172 C 0.78252 0.92138 0.66076 0.0
C1173 C 0.79304 0.9024 0.65482 0.0
C1174 C 0.7751 0.93476 0.64211 0.0
C1175 C 0.77846 0.9297 0.61715 0.0
C1176 C 0.78916 0.91086 0.6112 0.0
C1177 C 0.79634 0.89735 0.62985 0.0
C1178 C 0.77704 0.96331 0.55908 0.0
C1179 C 0.75631 0.97143 0.55978 0.0
C1180 C 0.78422 0.94966 0.57763 0.0
C1181 C 0.7709 0.9441 0.5974 0.0
C1182 C 0.75027 0.95239 0.59822 0.0
C1183 C 0.74301 0.9658 0.57955 0.0
H1184 H 0.89427 0.69903 0.6549 0.0
H1185 H 0.93055 0.74822 0.69067 0.0
H1186 H 0.91513 0.70362 0.61744 0.0
H1187 H 0.95201 0.75239 0.65342 0.0
H1188 H 0.97723 0.76437 0.57524 0.0
H1189 H 0.95291 0.7634 0.6104 0.0
H1190 H 0.95057 0.69511 0.60538 0.0
H1191 H 0.97422 0.69609 0.57019 0.0
C1192 C 0.90664 0.71093 0.65466 0.0
C1193 C 0.91085 0.72321 0.67571 0.0
C1194 C 0.91871 0.71347 0.63327 0.0
C1195 C 0.93543 0.7282 0.6325 0.0
C1196 C 0.93916 0.74102 0.65329 0.0
C1197 C 0.92697 0.73857 0.67467 0.0
C1198 C 0.97142 0.74919 0.58162 0.0
C1199 C 0.97766 0.73032 0.56987 0.0
C1200 C 0.95756 0.74862 0.60182 0.0
C1201 C 0.94967 0.72918 0.61064 0.0
C1202 C 0.95595 0.71039 0.5988 0.0
C1203 C 0.96969 0.71095 0.57868 0.0
H1204 H 0.33771 0.84591 0.60846 0.0
H1205 H 0.27223 0.84342 0.58569 0.0
H1206 H 0.3387 0.88378 0.59925 0.0
H1207 H 0.27334 0.88089 0.57543 0.0
H1208 H 0.27476 0.95057 0.57026 0.0
H1209 H 0.27525 0.91596 0.59005 0.0
H1210 H 0.33924 0.906 0.56396 0.0
H1211 H 0.339 0.94109 0.54516 0.0
C1212 C 0.32344 0.85356 0.60185 0.0
C1213 C 0.30474 0.84183 0.59823 0.0
C1214 C 0.32405 0.8752 0.5963 0.0
C1215 C 0.3061 0.88549 0.58662 0.0
C1216 C 0.28735 0.87372 0.58338 0.0
C1217 C 0.2867 0.85219 0.58913 0.0
C1218 C 0.28906 0.94112 0.56915 0.0
C1219 C 0.30676 0.94842 0.55596 0.0
C1220 C 0.2893 0.9212 0.58034 0.0
C1221 C 0.30712 0.90795 0.57823 0.0
C1222 C 0.32528 0.91579 0.56617 0.0
C1223 C 0.32514 0.93589 0.55529 0.0
H1224 H 0.0877 0.30884 0.672 0.0
H1225 H 0.09554 0.2411 0.66622 0.0
H1226 H 0.06978 0.30934 0.63223 0.0
H1227 H 0.07857 0.24161 0.62577 0.0
H1228 H 0.02456 0.2477 0.56898 0.0
H1229 H 0.04504 0.24591 0.60709 0.0
H1230 H 0.07437 0.30595 0.58943 0.0
H1231 H 0.05319 0.30812 0.55201 0.0
C1232 C 0.086 0.29413 0.66189 0.0
C1233 C 0.09343 0.27505 0.672 0.0
C1234 C 0.07582 0.29438 0.63902 0.0
C1235 C 0.07284 0.27553 0.62556 0.0
C1236 C 0.08039 0.25641 0.63565 0.0
C1237 C 0.09037 0.25614 0.65871 0.0
C1238 C 0.03551 0.26043 0.5732 0.0
C1239 C 0.03712 0.27814 0.55762 0.0
C1240 C 0.04736 0.25936 0.595 0.0
C1241 C 0.06129 0.27587 0.60155 0.0
C1242 C 0.06345 0.29318 0.58538 0.0
C1243 C 0.0514 0.29437 0.5638 0.0
H1244 H 0.74775 0.1593 0.59542 0.0
H1245 H 0.68452 0.15413 0.6251 0.0
H1246 H 0.74526 0.12343 0.5794 0.0
H1247 H 0.68224 0.11768 0.61002 0.0
H1248 H 0.67764 0.06379 0.5515 0.0
H1249 H 0.6788 0.09789 0.57286 0.0
H1250 H 0.7449 0.08747 0.59015 0.0
H1251 H 0.74387 0.05406 0.56787 0.0
C1252 C 0.7335 0.15024 0.59903 0.0
C1253 C 0.71656 0.15937 0.61201 0.0
C1254 C 0.73206 0.1296 0.58995 0.0
C1255 C 0.71362 0.11743 0.59363 0.0
C1256 C 0.69664 0.12656 0.60671 0.0
C1257 C 0.69803 0.14736 0.61562 0.0
C1258 C 0.6923 0.06872 0.56018 0.0
C1259 C 0.71072 0.05641 0.55777 0.0
C1260 C 0.69299 0.08825 0.57251 0.0
C1261 C 0.71206 0.09568 0.58294 0.0
C1262 C 0.73009 0.08262 0.58175 0.0
C1263 C 0.72948 0.06336 0.56913 0.0
H1264 H 0.88212 0.23181 0.35833 0.0
H1265 H 0.85945 0.29349 0.38034 0.0
H1266 H 0.91356 0.23652 0.384 0.0
H1267 H 0.89061 0.29808 0.40656 0.0
H1268 H 0.95752 0.30777 0.43466 0.0
H1269 H 0.92853 0.30322 0.40548 0.0
H1270 H 0.92273 0.2376 0.4272 0.0
H1271 H 0.95209 0.24202 0.45599 0.0
C1272 C 0.88398 0.24646 0.36853 0.0
C1273 C 0.8685 0.26242 0.36707 0.0
C1274 C 0.90188 0.24909 0.38341 0.0
C1275 C 0.90463 0.26767 0.39736 0.0
C1276 C 0.88919 0.28371 0.39575 0.0
C1277 C 0.87131 0.28109 0.38081 0.0
C1278 C 0.95018 0.29231 0.43309 0.0
C1279 C 0.9571 0.27526 0.44773 0.0
C1280 C 0.93346 0.28975 0.41645 0.0
C1281 C 0.92319 0.27009 0.41408 0.0
C1282 C 0.93043 0.25291 0.42833 0.0
C1283 C 0.94722 0.25545 0.44493 0.0
H1284 H 0.69499 0.88683 0.3647 0.0
H1285 H 0.6717 0.85224 0.42784 0.0
H1286 H 0.69982 0.91824 0.39044 0.0
H1287 H 0.67651 0.88371 0.45366 0.0
H1288 H 0.6688 0.95132 0.48543 0.0
H1289 H 0.6622 0.92052 0.45902 0.0
H1290 H 0.72348 0.92896 0.42496 0.0
H1291 H 0.73005 0.95961 0.45108 0.0
C1292 C 0.69115 0.88588 0.38415 0.0
C1293 C 0.68358 0.86687 0.39444 0.0
C1294 C 0.69386 0.90387 0.39888 0.0
C1295 C 0.6887 0.9034 0.42412 0.0
C1296 C 0.68055 0.88459 0.43425 0.0
C1297 C 0.678 0.86653 0.41956 0.0
C1298 C 0.68081 0.94663 0.47224 0.0
C1299 C 0.69996 0.95791 0.47042 0.0
C1300 C 0.67708 0.92893 0.45722 0.0
C1301 C 0.69232 0.92233 0.4399 0.0
C1302 C 0.71133 0.93378 0.43792 0.0
C1303 C 0.71513 0.95129 0.45303 0.0
H1304 H 0.12922 0.79274 0.37115 0.0
H1305 H 0.15586 0.7321 0.39095 0.0
H1306 H 0.09957 0.78656 0.39926 0.0
H1307 H 0.12649 0.72603 0.41941 0.0
H1308 H 0.06049 0.71188 0.44768 0.0
H1309 H 0.08871 0.71893 0.41832 0.0
H1310 H 0.09177 0.78387 0.44333 0.0
H1311 H 0.06309 0.77691 0.47256 0.0
C1312 C 0.12865 0.77805 0.38145 0.0
C1313 C 0.1446 0.76271 0.37851 0.0
C1314 C 0.11179 0.77459 0.39769 0.0
C1315 C 0.11059 0.75575 0.41146 0.0
C1316 C 0.12671 0.74053 0.40872 0.0
C1317 C 0.14355 0.744 0.39249 0.0
C1318 C 0.06707 0.72772 0.44689 0.0
C1319 C 0.05958 0.74382 0.46256 0.0
C1320 C 0.08337 0.73171 0.43014 0.0
C1321 C 0.09264 0.7519 0.42863 0.0
C1322 C 0.08485 0.76817 0.44391 0.0
C1323 C 0.06847 0.76418 0.46071 0.0
H1324 H 0.29497 0.13048 0.37985 0.0
H1325 H 0.36278 0.12639 0.38971 0.0
H1326 H 0.28998 0.10244 0.40973 0.0
H1327 H 0.35794 0.097 0.41831 0.0
H1328 H 0.34175 0.05693 0.48569 0.0
H1329 H 0.34731 0.0865 0.4574 0.0
H1330 H 0.29273 0.06646 0.41496 0.0
H1331 H 0.28655 0.03797 0.44415 0.0
C1332 C 0.30888 0.12358 0.38837 0.0
C1333 C 0.32934 0.13091 0.3826 0.0
C1334 C 0.30602 0.10718 0.40533 0.0
C1335 C 0.32354 0.09718 0.41646 0.0
C1336 C 0.34401 0.10447 0.41056 0.0
C1337 C 0.34683 0.12121 0.394 0.0
C1338 C 0.33099 0.05896 0.47028 0.0
C1339 C 0.31363 0.04531 0.4672 0.0
C1340 C 0.33421 0.07583 0.45394 0.0
C1341 C 0.32039 0.07911 0.43385 0.0
C1342 C 0.30338 0.06496 0.43053 0.0
C1343 C 0.2999 0.04846 0.44717 0.0
H1344 H 0.61877 0.80595 0.84292 0.0
H1345 H 0.65599 0.77932 0.90217 0.0
H1346 H 0.58947 0.81213 0.87172 0.0
H1347 H 0.62671 0.78531 0.93081 0.0
H1348 H 0.56003 0.77029 0.96105 0.0
H1349 H 0.59021 0.76837 0.9332 0.0
H1350 H 0.57996 0.83339 0.9116 0.0
H1351 H 0.54959 0.83547 0.93981 0.0
C1352 C 0.62085 0.80185 0.86218 0.0
C1353 C 0.63982 0.7925 0.87043 0.0
C1354 C 0.6041 0.80538 0.87862 0.0
C1355 C 0.60586 0.79918 0.90345 0.0
C1356 C 0.62491 0.79014 0.91173 0.0
C1357 C 0.64169 0.78684 0.89541 0.0
C1358 C 0.56416 0.78422 0.9504 0.0
C1359 C 0.55241 0.80305 0.95264 0.0
C1360 C 0.58154 0.78314 0.93457 0.0
C1361 C 0.58747 0.80076 0.92037 0.0
C1362 C 0.57566 0.81957 0.92234 0.0
C1363 C 0.55837 0.82076 0.93852 0.0
H1364 H 0.29636 0.60297 0.83774 0.0
H1365 H 0.21695 0.62068 0.8321 0.0
H1366 H 0.28783 0.57913 0.88197 0.0
H1367 H 0.21025 0.597 0.87692 0.0
H1368 H 0.20627 0.54734 0.93879 0.0
H1369 H 0.21181 0.56744 0.90121 0.0
H1370 H 0.27681 0.57898 0.92265 0.0
H1371 H 0.27149 0.55787 0.95973 0.0
C1372 C 0.28032 0.60099 0.8444 0.0
C1373 C 0.25807 0.61747 0.8328 0.0
C1374 C 0.27496 0.58719 0.87275 0.0
C1375 C 0.24841 0.58645 0.88544 0.0
C1376 C 0.22605 0.59811 0.86936 0.0
C1377 C 0.22985 0.61224 0.84083 0.0
C1378 C 0.22173 0.55427 0.93553 0.0
C1379 C 0.23848 0.55093 0.95217 0.0
C1380 C 0.22489 0.56597 0.91398 0.0
C1381 C 0.2448 0.57483 0.90875 0.0
C1382 C 0.2614 0.57196 0.92572 0.0
C1383 C 0.25833 0.56 0.94713 0.0
H1384 H 0.38574 0.22376 0.85755 0.0
H1385 H 0.35332 0.22168 0.92776 0.0
H1386 H 0.41955 0.21751 0.87861 0.0
H1387 H 0.38723 0.21621 0.9487 0.0
H1388 H 0.45501 0.24256 0.97041 0.0
H1389 H 0.42187 0.24467 0.94741 0.0
H1390 H 0.43562 0.18486 0.91238 0.0
H1391 H 0.46886 0.18232 0.93604 0.0
C1392 C 0.38575 0.22168 0.87738 0.0
C1393 C 0.36676 0.22295 0.89101 0.0
C1394 C 0.40509 0.2181 0.88937 0.0
C1395 C 0.40584 0.21632 0.91517 0.0
C1396 C 0.38696 0.21746 0.92876 0.0
C1397 C 0.36763 0.22058 0.9168 0.0
C1398 C 0.4511 0.22987 0.95774 0.0
C1399 C 0.46455 0.21226 0.95502 0.0
C1400 C 0.4321 0.23107 0.94468 0.0
C1401 C 0.42632 0.21492 0.92825 0.0
C1402 C 0.43988 0.1975 0.92497 0.0
C1403 C 0.45877 0.19605 0.93851 0.0
H1404 H 0.79577 0.43174 0.82006 0.0
H1405 H 0.78441 0.36366 0.87057 0.0
H1406 H 0.81164 0.45199 0.86415 0.0
H1407 H 0.801 0.38555 0.91335 0.0
H1408 H 0.79593 0.43993 0.97328 0.0
H1409 H 0.79341 0.41537 0.93888 0.0
H1410 H 0.83829 0.45314 0.89778 0.0
H1411 H 0.84085 0.47786 0.93272 0.0
C1412 C 0.79603 0.42347 0.83754 0.0
C1413 C 0.79207 0.39435 0.83971 0.0
C1414 C 0.80719 0.43546 0.86468 0.0
C1415 C 0.80985 0.42057 0.89301 0.0
C1416 C 0.80029 0.39362 0.89577 0.0
C1417 C 0.78887 0.38019 0.86964 0.0
C1418 C 0.8058 0.44256 0.95719 0.0
C1419 C 0.81851 0.46074 0.95549 0.0
C1420 C 0.80448 0.42841 0.9375 0.0
C1421 C 0.81555 0.43239 0.91554 0.0
C1422 C 0.82945 0.4498 0.91446 0.0
C1423 C 0.83108 0.46383 0.93446 0.0
H1424 H 0.6537 0.15008 0.10488 0.0
H1425 H 0.61395 0.1769 0.16173 0.0
H1426 H 0.62705 0.15922 0.07376 0.0
H1427 H 0.58752 0.1863 0.13063 0.0
H1428 H 0.55943 0.22166 0.06382 0.0
H1429 H 0.586 0.21157 0.09419 0.0
H1430 H 0.58844 0.14862 0.06316 0.0
H1431 H 0.56158 0.15866 0.03259 0.0
C1432 C 0.63925 0.15786 0.1107 0.0
C1433 C 0.63579 0.1626 0.13575 0.0
C1434 C 0.62401 0.16302 0.09294 0.0
C1435 C 0.60522 0.17336 0.09983 0.0
C1436 C 0.60192 0.1784 0.12481 0.0
C1437 C 0.61701 0.173 0.14259 0.0
C1438 C 0.56561 0.20565 0.06338 0.0
C1439 C 0.55839 0.19094 0.04578 0.0
C1440 C 0.58075 0.19987 0.08088 0.0
C1441 C 0.58922 0.17932 0.08104 0.0
C1442 C 0.58222 0.16461 0.06332 0.0
C1443 C 0.5668 0.17032 0.04595 0.0
H1444 H 0.77833 0.62262 0.15271 0.0
H1445 H 0.82817 0.65315 0.11133 0.0
H1446 H 0.78358 0.59028 0.12909 0.0
H1447 H 0.83291 0.62092 0.08685 0.0
H1448 H 0.77596 0.55093 0.05931 0.0
H1449 H 0.77535 0.58044 0.08771 0.0
H1450 H 0.84375 0.58357 0.08581 0.0
H1451 H 0.84436 0.55395 0.05649 0.0
C1452 C 0.79067 0.6223 0.13883 0.0
C1453 C 0.80311 0.64035 0.13417 0.0
C1454 C 0.79354 0.60382 0.12508 0.0
C1455 C 0.80858 0.60302 0.10594 0.0
C1456 C 0.8214 0.62087 0.10167 0.0
C1457 C 0.81865 0.63936 0.1156 0.0
C1458 C 0.79096 0.55774 0.06498 0.0
C1459 C 0.81024 0.55005 0.05554 0.0
C1460 C 0.7906 0.57462 0.08151 0.0
C1461 C 0.8095 0.58432 0.08923 0.0
C1462 C 0.82889 0.57652 0.0801 0.0
C1463 C 0.82926 0.55949 0.06343 0.0
H1464 H 0.39373 0.83119 0.15527 0.0
H1465 H 0.35691 0.85347 0.09329 0.0
H1466 H 0.42373 0.82453 0.12785 0.0
H1467 H 0.38712 0.8471 0.06589 0.0
H1468 H 0.4549 0.85296 0.03186 0.0
H1469 H 0.42546 0.86129 0.05982 0.0
H1470 H 0.43061 0.79905 0.09227 0.0
H1471 H 0.45971 0.79066 0.06444 0.0
C1472 C 0.39208 0.83472 0.1358 0.0
C1473 C 0.37304 0.843 0.12645 0.0
C1474 C 0.40923 0.83089 0.12013 0.0
C1475 C 0.40776 0.83544 0.09481 0.0
C1476 C 0.38875 0.84375 0.0854 0.0
C1477 C 0.37148 0.84731 0.10104 0.0
C1478 C 0.4498 0.84114 0.04508 0.0
C1479 C 0.45958 0.82115 0.04593 0.0
C1480 C 0.43291 0.84585 0.06093 0.0
C1481 C 0.42579 0.83079 0.07816 0.0
C1482 C 0.43587 0.811 0.0793 0.0
C1483 C 0.45247 0.80618 0.06327 0.0
H1484 H 0.27732 0.39445 0.15188 0.0
H1485 H 0.22316 0.36697 0.11518 0.0
H1486 H 0.27277 0.42701 0.12795 0.0
H1487 H 0.21877 0.39926 0.09101 0.0
H1488 H 0.20427 0.46637 0.06809 0.0
H1489 H 0.20868 0.43643 0.09593 0.0
H1490 H 0.27645 0.43877 0.08493 0.0
H1491 H 0.27211 0.469 0.05734 0.0
C1492 C 0.26434 0.39548 0.13884 0.0
C1493 C 0.25034 0.37836 0.13569 0.0
C1494 C 0.26183 0.41402 0.12503 0.0
C1495 C 0.24532 0.41575 0.10772 0.0
C1496 C 0.23138 0.39858 0.10455 0.0
C1497 C 0.23392 0.38007 0.11831 0.0
C1498 C 0.22015 0.46065 0.07177 0.0
C1499 C 0.23784 0.47 0.06036 0.0
C1500 C 0.22265 0.44341 0.08762 0.0
C1501 C 0.24289 0.43511 0.09245 0.0
C1502 C 0.26066 0.4449 0.08172 0.0
C1503 C 0.25816 0.46217 0.06583 0.0
H1504 H 0.44168 0.26004 0.18389 0.0
H1505 H 0.40369 0.20815 0.15674 0.0
H1506 H 0.45951 0.26243 0.14398 0.0
H1507 H 0.42065 0.21114 0.11653 0.0
H1508 H 0.4751 0.20153 0.06287 0.0
H1509 H 0.45425 0.20239 0.10031 0.0
H1510 H 0.45737 0.27081 0.10083 0.0
H1511 H 0.47909 0.26989 0.06342 0.0
C1512 C 0.437 0.24932 0.16926 0.0
C1513 C 0.42166 0.23359 0.17358 0.0
C1514 C 0.44704 0.25081 0.14631 0.0
C1515 C 0.44175 0.23677 0.12709 0.0
C1516 C 0.42553 0.22185 0.13108 0.0
C1517 C 0.4157 0.22021 0.15408 0.0
C1518 C 0.47127 0.21682 0.0708 0.0
C1519 C 0.47881 0.23566 0.06012 0.0
C1520 C 0.45912 0.21731 0.09226 0.0
C1521 C 0.45396 0.23667 0.10358 0.0
C1522 C 0.46123 0.2556 0.09274 0.0
C1523 C 0.47358 0.2551 0.07124 0.0
H1524 H 0.73511 0.35559 0.08867 0.0
H1525 H 0.79784 0.36141 0.11992 0.0
H1526 H 0.73785 0.39137 0.07219 0.0
H1527 H 0.79998 0.39757 0.10515 0.0
H1528 H 0.80989 0.4478 0.04636 0.0
H1529 H 0.80558 0.41473 0.06819 0.0
H1530 H 0.73885 0.42806 0.07791 0.0
H1531 H 0.74309 0.46096 0.05462 0.0
C1532 C 0.74932 0.36469 0.09241 0.0
C1533 C 0.76628 0.35548 0.10537 0.0
C1534 C 0.75083 0.38532 0.08318 0.0
C1535 C 0.76924 0.39745 0.08706 0.0
C1536 C 0.78577 0.38859 0.10117 0.0
C1537 C 0.78444 0.36782 0.10992 0.0
C1538 C 0.7943 0.44384 0.05335 0.0
C1539 C 0.77681 0.45702 0.04868 0.0
C1540 C 0.79184 0.42483 0.06612 0.0
C1541 C 0.77186 0.41857 0.075 0.0
C1542 C 0.75443 0.43213 0.07103 0.0
C1543 C 0.75686 0.45108 0.05784 0.0
H1544 H 0.59285 0.80113 0.17292 0.0
H1545 H 0.60494 0.73463 0.16093 0.0
H1546 H 0.5736 0.80288 0.13402 0.0
H1547 H 0.58639 0.73645 0.12141 0.0
H1548 H 0.5299 0.743 0.06768 0.0
H1549 H 0.55148 0.74011 0.1049 0.0
H1550 H 0.57792 0.80208 0.09057 0.0
H1551 H 0.55582 0.80525 0.05398 0.0
C1552 C 0.59176 0.78699 0.16165 0.0
C1553 C 0.60082 0.7679 0.16969 0.0
C1554 C 0.5808 0.78797 0.13929 0.0
C1555 C 0.57859 0.76984 0.12438 0.0
C1556 C 0.58766 0.75069 0.13246 0.0
C1557 C 0.59851 0.74969 0.15496 0.0
C1558 C 0.54044 0.75593 0.07242 0.0
C1559 C 0.54101 0.77443 0.05801 0.0
C1560 C 0.55291 0.75424 0.0937 0.0
C1561 C 0.56635 0.77094 0.1009 0.0
C1562 C 0.56742 0.78911 0.08593 0.0
C1563 C 0.55482 0.79087 0.06484 0.0
H1564 H 0.17299 0.66281 0.11393 0.0
H1565 H 0.23941 0.66362 0.09501 0.0
H1566 H 0.17055 0.62592 0.10037 0.0
H1567 H 0.23693 0.62722 0.08063 0.0
H1568 H 0.17066 0.57169 0.04162 0.0
H1569 H 0.17091 0.60584 0.06284 0.0
H1570 H 0.23273 0.59151 0.09294 0.0
H1571 H 0.23278 0.55791 0.07096 0.0
C1572 C 0.18713 0.65497 0.1072 0.0
C1573 C 0.20653 0.66591 0.10604 0.0
C1574 C 0.18569 0.63393 0.09919 0.0
C1575 C 0.20357 0.62348 0.08953 0.0
C1576 C 0.22295 0.6345 0.08851 0.0
C1577 C 0.22439 0.65542 0.09664 0.0
C1578 C 0.18412 0.57573 0.05311 0.0
C1579 C 0.20182 0.56229 0.05436 0.0
C1580 C 0.18426 0.59529 0.06535 0.0
C1581 C 0.20201 0.60163 0.0793 0.0
C1582 C 0.21906 0.58744 0.08182 0.0
C1583 C 0.21903 0.5681 0.06935 0.0
H1584 H 0.3617 0.80423 0.88754 0.0
H1585 H 0.37312 0.73866 0.86928 0.0
H1586 H 0.39454 0.80514 0.91127 0.0
H1587 H 0.40637 0.73965 0.89235 0.0
H1588 H 0.44923 0.74328 0.96165 0.0
H1589 H 0.4185 0.74142 0.93437 0.0
H1590 H 0.43229 0.80442 0.90756 0.0
H1591 H 0.46252 0.8065 0.93529 0.0
C1592 C 0.37145 0.79012 0.88831 0.0
C1593 C 0.36495 0.77143 0.87645 0.0
C1594 C 0.39032 0.79063 0.90178 0.0
C1595 C 0.40317 0.77246 0.90367 0.0
C1596 C 0.39676 0.75385 0.89152 0.0
C1597 C 0.37782 0.75332 0.87813 0.0
C1598 C 0.44582 0.75662 0.94973 0.0
C1599 C 0.4582 0.7751 0.9508 0.0
C1600 C 0.42824 0.75555 0.93401 0.0
C1601 C 0.42278 0.77287 0.91892 0.0
C1602 C 0.43574 0.79098 0.91931 0.0
C1603 C 0.45318 0.79211 0.93511 0.0
H1604 H 0.15442 0.3902 0.8744 0.0
H1605 H 0.22272 0.38656 0.87109 0.0
H1606 H 0.15702 0.41831 0.90509 0.0
H1607 H 0.22538 0.41326 0.90298 0.0
H1608 H 0.22619 0.47653 0.94025 0.0
H1609 H 0.22209 0.44902 0.90936 0.0
H1610 H 0.16474 0.42777 0.94553 0.0
H1611 H 0.16831 0.45644 0.97558 0.0
C1612 C 0.16998 0.39519 0.88054 0.0
C1613 C 0.18829 0.38608 0.87026 0.0
C1614 C 0.1715 0.4112 0.89831 0.0
C1615 C 0.19143 0.41828 0.90659 0.0
C1616 C 0.20974 0.40871 0.89672 0.0
C1617 C 0.20821 0.39308 0.87857 0.0
C1618 C 0.21267 0.466 0.94152 0.0
C1619 C 0.19761 0.46853 0.96034 0.0
C1620 C 0.21039 0.45004 0.92392 0.0
C1621 C 0.19324 0.4358 0.925 0.0
C1622 C 0.17803 0.43851 0.94381 0.0
C1623 C 0.18008 0.45487 0.96114 0.0
H1624 H 0.65915 0.28138 0.89987 0.0
H1625 H 0.64846 0.21955 0.86799 0.0
H1626 H 0.62574 0.27869 0.92215 0.0
H1627 H 0.61448 0.21749 0.88866 0.0
H1628 H 0.57037 0.20714 0.95339 0.0
H1629 H 0.60139 0.21138 0.92771 0.0
H1630 H 0.58871 0.27857 0.92192 0.0
H1631 H 0.55805 0.27434 0.94905 0.0
C1632 C 0.64944 0.26739 0.89729 0.0
C1633 C 0.65659 0.2507 0.88226 0.0
C1634 C 0.63016 0.26591 0.90987 0.0
C1635 C 0.61733 0.24779 0.90744 0.0
C1636 C 0.6241 0.23148 0.89155 0.0
C1637 C 0.64358 0.23276 0.87939 0.0
C1638 C 0.57407 0.22282 0.94651 0.0
C1639 C 0.56174 0.24042 0.95328 0.0
C1640 C 0.59186 0.22526 0.93154 0.0
C1641 C 0.59766 0.24532 0.92249 0.0
C1642 C 0.58499 0.26291 0.92882 0.0
C1643 C 0.56732 0.2605 0.94423 0.0
H1644 H 0.81053 0.63616 0.87249 0.0
H1645 H 0.7546 0.60872 0.83954 0.0
H1646 H 0.8073 0.61214 0.90736 0.0
H1647 H 0.7518 0.58389 0.87412 0.0
H1648 H 0.74643 0.5511 0.95048 0.0
H1649 H 0.74551 0.57841 0.91827 0.0
H1650 H 0.81373 0.57518 0.91234 0.0
H1651 H 0.81469 0.54867 0.9445 0.0
C1652 C 0.79745 0.62504 0.87279 0.0
C1653 C 0.783 0.62412 0.85311 0.0
C1654 C 0.79568 0.61114 0.89269 0.0
C1655 C 0.77954 0.59575 0.89332 0.0
C1656 C 0.7644 0.59554 0.87425 0.0
C1657 C 0.76607 0.60965 0.85438 0.0
C1658 C 0.76119 0.55631 0.94228 0.0
C1659 C 0.78063 0.5478 0.95022 0.0
C1660 C 0.76067 0.57189 0.92379 0.0
C1661 C 0.77958 0.57922 0.91294 0.0
C1662 C 0.79889 0.57038 0.9207 0.0
C1663 C 0.79942 0.55499 0.9391 0.0
loop_
_geom_bond_atom_site_label_1
_geom_bond_atom_site_label_2
_geom_bond_distance
_geom_bond_site_symmetry_2
_ccdc_geom_bond_type
C0 C1 1.560 . S
C0 H61 0.959 . S
C0 H62 0.959 . S
C0 H63 0.960 . S
C1 C0 1.560 . S
C1 O56 1.426 . S
C1 H60 0.980 . S
C2 C3 1.407 . S
C2 C7 1.418 . S
C2 O56 1.334 . S
C3 C2 1.407 . S
C3 C4 1.360 . S
C3 H64 0.929 . S
C4 C3 1.360 . S
C4 C5 1.401 . S
C4 C8 1.527 . S
C5 C4 1.401 . S
C5 C6 1.405 . S
C5 C38 1.587 . S
C6 C5 1.405 . S
C6 C7 1.332 . S
C6 C9 1.496 . S
C7 C2 1.418 . S
C7 C6 1.332 . S
C7 H65 0.929 . S
C8 C4 1.527 . S
C8 H66 0.959 . S
C8 H67 0.961 . S
C8 H68 0.961 . S
C9 C6 1.496 . S
C9 H69 0.960 . S
C9 H70 0.960 . S
C9 H71 0.961 . S
C10 C11 1.517 . S
C10 H73 0.961 . S
C10 H74 0.960 . S
C10 H75 0.959 . S
C11 C10 1.517 . S
C11 O59 1.468 . S
C11 H72 0.980 . S
C12 C13 1.349 . S
C12 C17 1.367 . S
C12 O59 1.408 . S
C13 C12 1.349 . S
C13 C14 1.407 . S
C13 H76 0.930 . S
C14 C13 1.407 . S
C14 C15 1.449 . S
C14 C18 1.535 . S
C15 C14 1.449 . S
C15 C16 1.384 . S
C15 C40 1.553 . S
C16 C15 1.384 . S
C16 C17 1.364 . S
C16 C19 1.450 . S
C17 C12 1.367 . S
C17 C16 1.364 . S
C17 H77 0.931 . S
C18 C14 1.535 . S
C18 H78 0.959 . S
C18 H79 0.961 . S
C18 H80 0.959 . S
C19 C16 1.450 . S
C19 H81 0.960 . S
C19 H82 0.960 . S
C19 H83 0.960 . S
C20 C21 1.309 . S
C20 C25 1.304 . S
C20 O58 1.435 . S
C21 C20 1.309 . S
C21 C22 1.476 . S
C21 H85 0.930 . S
C22 C21 1.476 . S
C22 C23 1.400 . S
C22 C26 1.567 . S
C23 C22 1.400 . S
C23 C24 1.373 . S
C23 C45 1.432 . S
C24 C23 1.373 . S
C24 C25 1.339 . S
C24 C27 1.530 . S
C25 C20 1.304 . S
C25 C24 1.339 . S
C25 H86 0.930 . S
C26 C22 1.567 . S
C26 H87 0.961 . S
C26 H88 0.960 . S
C26 H89 0.958 . S
C27 C24 1.530 . S
C27 H90 0.961 . S
C27 H91 0.960 . S
C27 H92 0.960 . S
C28 C29 1.530 . S
C28 H94 0.961 . S
C28 H95 0.961 . S
C28 H96 0.959 . S
C29 C28 1.530 . S
C29 O57 1.412 . S
C29 H93 0.980 . S
C30 C31 1.288 . S
C30 C35 1.377 . S
C30 O57 1.393 . S
C31 C30 1.288 . S
C31 C32 1.369 . S
C31 H97 0.932 . S
C32 C31 1.369 . S
C32 C33 1.398 . S
C32 C36 1.527 . S
C33 C32 1.398 . S
C33 C34 1.380 . S
C33 C47 1.497 . S
C34 C33 1.380 . S
C34 C35 1.383 . S
C34 C37 1.603 . S
C35 C30 1.377 . S
C35 C34 1.383 . S
C35 H98 0.929 . S
C36 C32 1.527 . S
C36 H99 0.961 . S
C36 H100 0.959 . S
C36 H101 0.959 . S
C37 C34 1.603 . S
C37 H102 0.960 . S
C37 H103 0.962 . S
C37 H104 0.961 . S
C38 C5 1.587 . S
C38 C39 1.360 . S
C38 C51 1.412 . S
C39 C38 1.360 . S
C39 C40 1.365 . S
C39 H105 0.929 . S
C40 C15 1.553 . S
C40 C39 1.365 . S
C40 C41 1.404 . S
C41 C40 1.404 . S
C41 C42 1.395 . S
C41 C52 1.451 . S
C42 C41 1.395 . S
C42 C43 1.322 . S
C42 H106 0.930 . S
C43 C42 1.322 . S
C43 C44 1.459 . S
C43 H107 0.929 . S
C44 C43 1.459 . S
C44 C45 1.445 . S
C44 C53 1.395 . S
C45 C23 1.432 . S
C45 C44 1.445 . S
C45 C46 1.370 . S
C46 C45 1.370 . S
C46 C47 1.438 . S
C46 H108 0.930 . S
C47 C33 1.497 . S
C47 C46 1.438 . S
C47 C48 1.360 . S
C48 C47 1.360 . S
C48 C49 1.401 . S
C48 C53 1.446 . S
C49 C48 1.401 . S
C49 C50 1.347 . S
C49 H109 0.929 . S
C50 C49 1.347 . S
C50 C51 1.455 . S
C50 H110 0.930 . S
C51 C38 1.412 . S
C51 C50 1.455 . S
C51 C52 1.331 . S
C52 C41 1.451 . S
C52 C51 1.331 . S
C52 C53 1.497 . S
C53 C44 1.395 . S
C53 C48 1.446 . S
C53 C52 1.497 . S
C54 C55 1.582 . S
C54 H111 0.962 . S
C54 H112 0.959 . S
C54 H113 0.958 . S
C55 C54 1.582 . S
C55 O58 1.458 . S
C55 H84 0.980 . S
O56 C1 1.426 . S
O56 C2 1.334 . S
O57 C29 1.412 . S
O57 C30 1.393 . S
O58 C20 1.435 . S
O58 C55 1.458 . S
O59 C11 1.468 . S
O59 C12 1.408 . S
H60 C1 0.980 . S
H61 C0 0.959 . S
H62 C0 0.959 . S
H63 C0 0.960 . S
H64 C3 0.929 . S
H65 C7 0.929 . S
H66 C8 0.959 . S
H67 C8 0.961 . S
H68 C8 0.961 . S
H69 C9 0.960 . S
H70 C9 0.960 . S
H71 C9 0.961 . S
H72 C11 0.980 . S
H73 C10 0.961 . S
H74 C10 0.960 . S
H75 C10 0.959 . S
H76 C13 0.930 . S
H77 C17 0.931 . S
H78 C18 0.959 . S
H79 C18 0.961 . S
H80 C18 0.959 . S
H81 C19 0.960 . S
H82 C19 0.960 . S
H83 C19 0.960 . S
H84 C55 0.980 . S
H85 C21 0.930 . S
H86 C25 0.930 . S
H87 C26 0.961 . S
H88 C26 0.960 . S
H89 C26 0.958 . S
H90 C27 0.961 . S
H91 C27 0.960 . S
H92 C27 0.960 . S
H93 C29 0.980 . S
H94 C28 0.961 . S
H95 C28 0.961 . S
H96 C28 0.959 . S
H97 C31 0.932 . S
H98 C35 0.929 . S
H99 C36 0.961 . S
H100 C36 0.959 . S
H101 C36 0.959 . S
H102 C37 0.960 . S
H103 C37 0.962 . S
H104 C37 0.961 . S
H105 C39 0.929 . S
H106 C42 0.930 . S
H107 C43 0.929 . S
H108 C46 0.930 . S
H109 C49 0.929 . S
H110 C50 0.930 . S
H111 C54 0.962 . S
H112 C54 0.959 . S
H113 C54 0.958 . S
C114 C115 1.560 . S
C114 H175 0.959 . S
C114 H176 0.959 . S
C114 H177 0.960 . S
C115 C114 1.560 . S
C115 O170 1.426 . S
C115 H174 0.980 . S
C116 C117 1.407 . S
C116 C121 1.418 . S
C116 O170 1.334 . S
C117 C116 1.407 . S
C117 C118 1.360 . S
C117 H178 0.929 . S
C118 C117 1.360 . S
C118 C119 1.401 . S
C118 C122 1.527 . S
C119 C118 1.401 . S
C119 C120 1.405 . S
C119 C152 1.587 . S
C120 C119 1.405 . S
C120 C121 1.332 . S
C120 C123 1.496 . S
C121 C116 1.418 . S
C121 C120 1.332 . S
C121 H179 0.929 . S
C122 C118 1.527 . S
C122 H180 0.959 . S
C122 H181 0.961 . S
C122 H182 0.961 . S
C123 C120 1.496 . S
C123 H183 0.960 . S
C123 H184 0.960 . S
C123 H185 0.961 . S
C124 C125 1.517 . S
C124 H187 0.961 . S
C124 H188 0.960 . S
C124 H189 0.959 . S
C125 C124 1.517 . S
C125 O173 1.468 . S
C125 H186 0.980 . S
C126 C127 1.349 . S
C126 C131 1.367 . S
C126 O173 1.408 . S
C127 C126 1.349 . S
C127 C128 1.407 . S
C127 H190 0.930 . S
C128 C127 1.407 . S
C128 C129 1.449 . S
C128 C132 1.535 . S
C129 C128 1.449 . S
C129 C130 1.384 . S
C129 C154 1.553 . S
C130 C129 1.384 . S
C130 C131 1.364 . S
C130 C133 1.450 . S
C131 C126 1.367 . S
C131 C130 1.364 . S
C131 H191 0.931 . S
C132 C128 1.535 . S
C132 H192 0.959 . S
C132 H193 0.961 . S
C132 H194 0.959 . S
C133 C130 1.450 . S
C133 H195 0.960 . S
C133 H196 0.960 . S
C133 H197 0.960 . S
C134 C135 1.309 . S
C134 C139 1.304 . S
C134 O172 1.435 . S
C135 C134 1.309 . S
C135 C136 1.476 . S
C135 H199 0.930 . S
C136 C135 1.476 . S
C136 C137 1.400 . S
C136 C140 1.567 . S
C137 C136 1.400 . S
C137 C138 1.373 . S
C137 C159 1.432 . S
C138 C137 1.373 . S
C138 C139 1.339 . S
C138 C141 1.530 . S
C139 C134 1.304 . S
C139 C138 1.339 . S
C139 H200 0.930 . S
C140 C136 1.567 . S
C140 H201 0.961 . S
C140 H202 0.960 . S
C140 H203 0.958 . S
C141 C138 1.530 . S
C141 H204 0.961 . S
C141 H205 0.960 . S
C141 H206 0.960 . S
C142 C143 1.530 . S
C142 H208 0.961 . S
C142 H209 0.961 . S
C142 H210 0.959 . S
C143 C142 1.530 . S
C143 O171 1.412 . S
C143 H207 0.980 . S
C144 C145 1.288 . S
C144 C149 1.377 . S
C144 O171 1.393 . S
C145 C144 1.288 . S
C145 C146 1.369 . S
C145 H211 0.932 . S
C146 C145 1.369 . S
C146 C147 1.398 . S
C146 C150 1.527 . S
C147 C146 1.398 . S
C147 C148 1.380 . S
C147 C161 1.497 . S
C148 C147 1.380 . S
C148 C149 1.383 . S
C148 C151 1.603 . S
C149 C144 1.377 . S
C149 C148 1.383 . S
C149 H212 0.929 . S
C150 C146 1.527 . S
C150 H213 0.961 . S
C150 H214 0.959 . S
C150 H215 0.959 . S
C151 C148 1.603 . S
C151 H216 0.960 . S
C151 H217 0.962 . S
C151 H218 0.961 . S
C152 C119 1.587 . S
C152 C153 1.360 . S
C152 C165 1.412 . S
C153 C152 1.360 . S
C153 C154 1.365 . S
C153 H219 0.929 . S
C154 C129 1.553 . S
C154 C153 1.365 . S
C154 C155 1.404 . S
C155 C154 1.404 . S
C155 C156 1.395 . S
C155 C166 1.451 . S
C156 C155 1.395 . S
C156 C157 1.322 . S
C156 H220 0.930 . S
C157 C156 1.322 . S
C157 C158 1.459 . S
C157 H221 0.929 . S
C158 C157 1.459 . S
C158 C159 1.445 . S
C158 C167 1.395 . S
C159 C137 1.432 . S
C159 C158 1.445 . S
C159 C160 1.370 . S
C160 C159 1.370 . S
C160 C161 1.438 . S
C160 H222 0.930 . S
C161 C147 1.497 . S
C161 C160 1.438 . S
C161 C162 1.360 . S
C162 C161 1.360 . S
C162 C163 1.401 . S
C162 C167 1.446 . S
C163 C162 1.401 . S
C163 C164 1.347 . S
C163 H223 0.929 . S
C164 C163 1.347 . S
C164 C165 1.455 . S
C164 H224 0.930 . S
C165 C152 1.412 . S
C165 C164 1.455 . S
C165 C166 1.331 . S
C166 C155 1.451 . S
C166 C165 1.331 . S
C166 C167 1.497 . S
C167 C158 1.395 . S
C167 C162 1.446 . S
C167 C166 1.497 . S
C168 C169 1.582 . S
C168 H225 0.962 . S
C168 H226 0.959 . S
C168 H227 0.958 . S
C169 C168 1.582 . S
C169 O172 1.458 . S
C169 H198 0.980 . S
O170 C115 1.426 . S
O170 C116 1.334 . S
O171 C143 1.412 . S
O171 C144 1.393 . S
O172 C134 1.435 . S
O172 C169 1.458 . S
O173 C125 1.468 . S
O173 C126 1.408 . S
H174 C115 0.980 . S
H175 C114 0.959 . S
H176 C114 0.959 . S
H177 C114 0.960 . S
H178 C117 0.929 . S
H179 C121 0.929 . S
H180 C122 0.959 . S
H181 C122 0.961 . S
H182 C122 0.961 . S
H183 C123 0.960 . S
H184 C123 0.960 . S
H185 C123 0.961 . S
H186 C125 0.980 . S
H187 C124 0.961 . S
H188 C124 0.960 . S
H189 C124 0.959 . S
H190 C127 0.930 . S
H191 C131 0.931 . S
H192 C132 0.959 . S
H193 C132 0.961 . S
H194 C132 0.959 . S
H195 C133 0.960 . S
H196 C133 0.960 . S
H197 C133 0.960 . S
H198 C169 0.980 . S
H199 C135 0.930 . S
H200 C139 0.930 . S
H201 C140 0.961 . S
H202 C140 0.960 . S
H203 C140 0.958 . S
H204 C141 0.961 . S
H205 C141 0.960 . S
H206 C141 0.960 . S
H207 C143 0.980 . S
H208 C142 0.961 . S
H209 C142 0.961 . S
H210 C142 0.959 . S
H211 C145 0.932 . S
H212 C149 0.929 . S
H213 C150 0.961 . S
H214 C150 0.959 . S
H215 C150 0.959 . S
H216 C151 0.960 . S
H217 C151 0.962 . S
H218 C151 0.961 . S
H219 C153 0.929 . S
H220 C156 0.930 . S
H221 C157 0.929 . S
H222 C160 0.930 . S
H223 C163 0.929 . S
H224 C164 0.930 . S
H225 C168 0.962 . S
H226 C168 0.959 . S
H227 C168 0.958 . S
C228 C229 1.560 . S
C228 H289 0.959 . S
C228 H290 0.959 . S
C228 H291 0.960 . S
C229 C228 1.560 . S
C229 O284 1.426 . S
C229 H288 0.980 . S
C230 C231 1.407 . S
C230 C235 1.418 . S
C230 O284 1.334 . S
C231 C230 1.407 . S
C231 C232 1.360 . S
C231 H292 0.929 . S
C232 C231 1.360 . S
C232 C233 1.401 . S
C232 C236 1.527 . S
C233 C232 1.401 . S
C233 C234 1.405 . S
C233 C266 1.587 . S
C234 C233 1.405 . S
C234 C235 1.332 . S
C234 C237 1.496 . S
C235 C230 1.418 . S
C235 C234 1.332 . S
C235 H293 0.929 . S
C236 C232 1.527 . S
C236 H294 0.959 . S
C236 H295 0.961 . S
C236 H296 0.961 . S
C237 C234 1.496 . S
C237 H297 0.960 . S
C237 H298 0.960 . S
C237 H299 0.961 . S
C238 C239 1.517 . S
C238 H301 0.961 . S
C238 H302 0.960 . S
C238 H303 0.959 . S
C239 C238 1.517 . S
C239 O287 1.468 . S
C239 H300 0.980 . S
C240 C241 1.349 . S
C240 C245 1.367 . S
C240 O287 1.408 . S
C241 C240 1.349 . S
C241 C242 1.407 . S
C241 H304 0.930 . S
C242 C241 1.407 . S
C242 C243 1.449 . S
C242 C246 1.535 . S
C243 C242 1.449 . S
C243 C244 1.384 . S
C243 C268 1.553 . S
C244 C243 1.384 . S
C244 C245 1.364 . S
C244 C247 1.450 . S
C245 C240 1.367 . S
C245 C244 1.364 . S
C245 H305 0.931 . S
C246 C242 1.535 . S
C246 H306 0.959 . S
C246 H307 0.961 . S
C246 H308 0.959 . S
C247 C244 1.450 . S
C247 H309 0.960 . S
C247 H310 0.960 . S
C247 H311 0.960 . S
C248 C249 1.309 . S
C248 C253 1.304 . S
C248 O286 1.435 . S
C249 C248 1.309 . S
C249 C250 1.476 . S
C249 H313 0.930 . S
C250 C249 1.476 . S
C250 C251 1.400 . S
C250 C254 1.567 . S
C251 C250 1.400 . S
C251 C252 1.373 . S
C251 C273 1.432 . S
C252 C251 1.373 . S
C252 C253 1.339 . S
C252 C255 1.530 . S
C253 C248 1.304 . S
C253 C252 1.339 . S
C253 H314 0.930 . S
C254 C250 1.567 . S
C254 H315 0.961 . S
C254 H316 0.960 . S
C254 H317 0.958 . S
C255 C252 1.530 . S
C255 H318 0.961 . S
C255 H319 0.960 . S
C255 H320 0.960 . S
C256 C257 1.530 . S
C256 H322 0.961 . S
C256 H323 0.961 . S
C256 H324 0.959 . S
C257 C256 1.530 . S
C257 O285 1.412 . S
C257 H321 0.980 . S
C258 C259 1.288 . S
C258 C263 1.377 . S
C258 O285 1.393 . S
C259 C258 1.288 . S
C259 C260 1.369 . S
C259 H325 0.932 . S
C260 C259 1.369 . S
C260 C261 1.398 . S
C260 C264 1.527 . S
C261 C260 1.398 . S
C261 C262 1.380 . S
C261 C275 1.497 . S
C262 C261 1.380 . S
C262 C263 1.383 . S
C262 C265 1.603 . S
C263 C258 1.377 . S
C263 C262 1.383 . S
C263 H326 0.929 . S
C264 C260 1.527 . S
C264 H327 0.961 . S
C264 H328 0.959 . S
C264 H329 0.959 . S
C265 C262 1.603 . S
C265 H330 0.960 . S
C265 H331 0.962 . S
C265 H332 0.961 . S
C266 C233 1.587 . S
C266 C267 1.360 . S
C266 C279 1.412 . S
C267 C266 1.360 . S
C267 C268 1.365 . S
C267 H333 0.929 . S
C268 C243 1.553 . S
C268 C267 1.365 . S
C268 C269 1.404 . S
C269 C268 1.404 . S
C269 C270 1.395 . S
C269 C280 1.451 . S
C270 C269 1.395 . S
C270 C271 1.322 . S
C270 H334 0.930 . S
C271 C270 1.322 . S
C271 C272 1.459 . S
C271 H335 0.929 . S
C272 C271 1.459 . S
C272 C273 1.445 . S
C272 C281 1.395 . S
C273 C251 1.432 . S
C273 C272 1.445 . S
C273 C274 1.370 . S
C274 C273 1.370 . S
C274 C275 1.438 . S
C274 H336 0.930 . S
C275 C261 1.497 . S
C275 C274 1.438 . S
C275 C276 1.360 . S
C276 C275 1.360 . S
C276 C277 1.401 . S
C276 C281 1.446 . S
C277 C276 1.401 . S
C277 C278 1.347 . S
C277 H337 0.929 . S
C278 C277 1.347 . S
C278 C279 1.455 . S
C278 H338 0.930 . S
C279 C266 1.412 . S
C279 C278 1.455 . S
C279 C280 1.331 . S
C280 C269 1.451 . S
C280 C279 1.331 . S
C280 C281 1.497 . S
C281 C272 1.395 . S
C281 C276 1.446 . S
C281 C280 1.497 . S
C282 C283 1.582 . S
C282 H339 0.962 . S
C282 H340 0.959 . S
C282 H341 0.958 . S
C283 C282 1.582 . S
C283 O286 1.458 . S
C283 H312 0.980 . S
O284 C229 1.426 . S
O284 C230 1.334 . S
O285 C257 1.412 . S
O285 C258 1.393 . S
O286 C248 1.435 . S
O286 C283 1.458 . S
O287 C239 1.468 . S
O287 C240 1.408 . S
H288 C229 0.980 . S
H289 C228 0.959 . S
H290 C228 0.959 . S
H291 C228 0.960 . S
H292 C231 0.929 . S
H293 C235 0.929 . S
H294 C236 0.959 . S
H295 C236 0.961 . S
H296 C236 0.961 . S
H297 C237 0.960 . S
H298 C237 0.960 . S
H299 C237 0.961 . S
H300 C239 0.980 . S
H301 C238 0.961 . S
H302 C238 0.960 . S
H303 C238 0.959 . S
H304 C241 0.930 . S
H305 C245 0.931 . S
H306 C246 0.959 . S
H307 C246 0.961 . S
H308 C246 0.959 . S
H309 C247 0.960 . S
H310 C247 0.960 . S
H311 C247 0.960 . S
H312 C283 0.980 . S
H313 C249 0.930 . S
H314 C253 0.930 . S
H315 C254 0.961 . S
H316 C254 0.960 . S
H317 C254 0.958 . S
H318 C255 0.961 . S
H319 C255 0.960 . S
H320 C255 0.960 . S
H321 C257 0.980 . S
H322 C256 0.961 . S
H323 C256 0.961 . S
H324 C256 0.959 . S
H325 C259 0.932 . S
H326 C263 0.929 . S
H327 C264 0.961 . S
H328 C264 0.959 . S
H329 C264 0.959 . S
H330 C265 0.960 . S
H331 C265 0.962 . S
H332 C265 0.961 . S
H333 C267 0.929 . S
H334 C270 0.930 . S
H335 C271 0.929 . S
H336 C274 0.930 . S
H337 C277 0.929 . S
H338 C278 0.930 . S
H339 C282 0.962 . S
H340 C282 0.959 . S
H341 C282 0.958 . S
C342 C343 1.560 . S
C342 H403 0.959 . S
C342 H404 0.959 . S
C342 H405 0.960 . S
C343 C342 1.560 . S
C343 O398 1.426 . S
C343 H402 0.980 . S
C344 C345 1.407 . S
C344 C349 1.418 . S
C344 O398 1.334 . S
C345 C344 1.407 . S
C345 C346 1.360 . S
C345 H406 0.929 . S
C346 C345 1.360 . S
C346 C347 1.401 . S
C346 C350 1.527 . S
C347 C346 1.401 . S
C347 C348 1.405 . S
C347 C380 1.587 . S
C348 C347 1.405 . S
C348 C349 1.332 . S
C348 C351 1.496 . S
C349 C344 1.418 . S
C349 C348 1.332 . S
C349 H407 0.929 . S
C350 C346 1.527 . S
C350 H408 0.959 . S
C350 H409 0.961 . S
C350 H410 0.961 . S
C351 C348 1.496 . S
C351 H411 0.960 . S
C351 H412 0.960 . S
C351 H413 0.961 . S
C352 C353 1.517 . S
C352 H415 0.961 . S
C352 H416 0.960 . S
C352 H417 0.959 . S
C353 C352 1.517 . S
C353 O401 1.468 . S
C353 H414 0.980 . S
C354 C355 1.349 . S
C354 C359 1.367 . S
C354 O401 1.408 . S
C355 C354 1.349 . S
C355 C356 1.407 . S
C355 H418 0.930 . S
C356 C355 1.407 . S
C356 C357 1.449 . S
C356 C360 1.535 . S
C357 C356 1.449 . S
C357 C358 1.384 . S
C357 C382 1.553 . S
C358 C357 1.384 . S
C358 C359 1.364 . S
C358 C361 1.450 . S
C359 C354 1.367 . S
C359 C358 1.364 . S
C359 H419 0.931 . S
C360 C356 1.535 . S
C360 H420 0.959 . S
C360 H421 0.961 . S
C360 H422 0.959 . S
C361 C358 1.450 . S
C361 H423 0.960 . S
C361 H424 0.960 . S
C361 H425 0.960 . S
C362 C363 1.309 . S
C362 C367 1.304 . S
C362 O400 1.435 . S
C363 C362 1.309 . S
C363 C364 1.476 . S
C363 H427 0.930 . S
C364 C363 1.476 . S
C364 C365 1.400 . S
C364 C368 1.567 . S
C365 C364 1.400 . S
C365 C366 1.373 . S
C365 C387 1.432 . S
C366 C365 1.373 . S
C366 C367 1.339 . S
C366 C369 1.530 . S
C367 C362 1.304 . S
C367 C366 1.339 . S
C367 H428 0.930 . S
C368 C364 1.567 . S
C368 H429 0.961 . S
C368 H430 0.960 . S
C368 H431 0.958 . S
C369 C366 1.530 . S
C369 H432 0.961 . S
C369 H433 0.960 . S
C369 H434 0.960 . S
C370 C371 1.530 . S
C370 H436 0.961 . S
C370 H437 0.961 . S
C370 H438 0.959 . S
C371 C370 1.530 . S
C371 O399 1.412 . S
C371 H435 0.980 . S
C372 C373 1.288 . S
C372 C377 1.377 . S
C372 O399 1.393 . S
C373 C372 1.288 . S
C373 C374 1.369 . S
C373 H439 0.932 . S
C374 C373 1.369 . S
C374 C375 1.398 . S
C374 C378 1.527 . S
C375 C374 1.398 . S
C375 C376 1.380 . S
C375 C389 1.497 . S
C376 C375 1.380 . S
C376 C377 1.383 . S
C376 C379 1.603 . S
C377 C372 1.377 . S
C377 C376 1.383 . S
C377 H440 0.929 . S
C378 C374 1.527 . S
C378 H441 0.961 . S
C378 H442 0.959 . S
C378 H443 0.959 . S
C379 C376 1.603 . S
C379 H444 0.960 . S
C379 H445 0.962 . S
C379 H446 0.961 . S
C380 C347 1.587 . S
C380 C381 1.360 . S
C380 C393 1.412 . S
C381 C380 1.360 . S
C381 C382 1.365 . S
C381 H447 0.929 . S
C382 C357 1.553 . S
C382 C381 1.365 . S
C382 C383 1.404 . S
C383 C382 1.404 . S
C383 C384 1.395 . S
C383 C394 1.451 . S
C384 C383 1.395 . S
C384 C385 1.322 . S
C384 H448 0.930 . S
C385 C384 1.322 . S
C385 C386 1.459 . S
C385 H449 0.929 . S
C386 C385 1.459 . S
C386 C387 1.445 . S
C386 C395 1.395 . S
C387 C365 1.432 . S
C387 C386 1.445 . S
C387 C388 1.370 . S
C388 C387 1.370 . S
C388 C389 1.438 . S
C388 H450 0.930 . S
C389 C375 1.497 . S
C389 C388 1.438 . S
C389 C390 1.360 . S
C390 C389 1.360 . S
C390 C391 1.401 . S
C390 C395 1.446 . S
C391 C390 1.401 . S
C391 C392 1.347 . S
C391 H451 0.929 . S
C392 C391 1.347 . S
C392 C393 1.455 . S
C392 H452 0.930 . S
C393 C380 1.412 . S
C393 C392 1.455 . S
C393 C394 1.331 . S
C394 C383 1.451 . S
C394 C393 1.331 . S
C394 C395 1.497 . S
C395 C386 1.395 . S
C395 C390 1.446 . S
C395 C394 1.497 . S
C396 C397 1.582 . S
C396 H453 0.962 . S
C396 H454 0.959 . S
C396 H455 0.958 . S
C397 C396 1.582 . S
C397 O400 1.458 . S
C397 H426 0.980 . S
O398 C343 1.426 . S
O398 C344 1.334 . S
O399 C371 1.412 . S
O399 C372 1.393 . S
O400 C362 1.435 . S
O400 C397 1.458 . S
O401 C353 1.468 . S
O401 C354 1.408 . S
H402 C343 0.980 . S
H403 C342 0.959 . S
H404 C342 0.959 . S
H405 C342 0.960 . S
H406 C345 0.929 . S
H407 C349 0.929 . S
H408 C350 0.959 . S
H409 C350 0.961 . S
H410 C350 0.961 . S
H411 C351 0.960 . S
H412 C351 0.960 . S
H413 C351 0.961 . S
H414 C353 0.980 . S
H415 C352 0.961 . S
H416 C352 0.960 . S
H417 C352 0.959 . S
H418 C355 0.930 . S
H419 C359 0.931 . S
H420 C360 0.959 . S
H421 C360 0.961 . S
H422 C360 0.959 . S
H423 C361 0.960 . S
H424 C361 0.960 . S
H425 C361 0.960 . S
H426 C397 0.980 . S
H427 C363 0.930 . S
H428 C367 0.930 . S
H429 C368 0.961 . S
H430 C368 0.960 . S
H431 C368 0.958 . S
H432 C369 0.961 . S
H433 C369 0.960 . S
H434 C369 0.960 . S
H435 C371 0.980 . S
H436 C370 0.961 . S
H437 C370 0.961 . S
H438 C370 0.959 . S
H439 C373 0.932 . S
H440 C377 0.929 . S
H441 C378 0.961 . S
H442 C378 0.959 . S
H443 C378 0.959 . S
H444 C379 0.960 . S
H445 C379 0.962 . S
H446 C379 0.961 . S
H447 C381 0.929 . S
H448 C384 0.930 . S
H449 C385 0.929 . S
H450 C388 0.930 . S
H451 C391 0.929 . S
H452 C392 0.930 . S
H453 C396 0.962 . S
H454 C396 0.959 . S
H455 C396 0.958 . S
C456 C457 1.560 . S
C456 H517 0.959 . S
C456 H518 0.959 . S
C456 H519 0.960 . S
C457 C456 1.560 . S
C457 O512 1.426 . S
C457 H516 0.980 . S
C458 C459 1.407 . S
C458 C463 1.418 . S
C458 O512 1.334 . S
C459 C458 1.407 . S
C459 C460 1.360 . S
C459 H520 0.929 . S
C460 C459 1.360 . S
C460 C461 1.401 . S
C460 C464 1.527 . S
C461 C460 1.401 . S
C461 C462 1.405 . S
C461 C494 1.587 . S
C462 C461 1.405 . S
C462 C463 1.332 . S
C462 C465 1.496 . S
C463 C458 1.418 . S
C463 C462 1.332 . S
C463 H521 0.929 . S
C464 C460 1.527 . S
C464 H522 0.959 . S
C464 H523 0.961 . S
C464 H524 0.961 . S
C465 C462 1.496 . S
C465 H525 0.960 . S
C465 H526 0.960 . S
C465 H527 0.961 . S
C466 C467 1.517 . S
C466 H529 0.961 . S
C466 H530 0.960 . S
C466 H531 0.959 . S
C467 C466 1.517 . S
C467 O515 1.468 . S
C467 H528 0.980 . S
C468 C469 1.349 . S
C468 C473 1.367 . S
C468 O515 1.408 . S
C469 C468 1.349 . S
C469 C470 1.407 . S
C469 H532 0.930 . S
C470 C469 1.407 . S
C470 C471 1.449 . S
C470 C474 1.535 . S
C471 C470 1.449 . S
C471 C472 1.384 . S
C471 C496 1.553 . S
C472 C471 1.384 . S
C472 C473 1.364 . S
C472 C475 1.450 . S
C473 C468 1.367 . S
C473 C472 1.364 . S
C473 H533 0.931 . S
C474 C470 1.535 . S
C474 H534 0.959 . S
C474 H535 0.961 . S
C474 H536 0.959 . S
C475 C472 1.450 . S
C475 H537 0.960 . S
C475 H538 0.960 . S
C475 H539 0.960 . S
C476 C477 1.309 . S
C476 C481 1.304 . S
C476 O514 1.435 . S
C477 C476 1.309 . S
C477 C478 1.476 . S
C477 H541 0.930 . S
C478 C477 1.476 . S
C478 C479 1.400 . S
C478 C482 1.567 . S
C479 C478 1.400 . S
C479 C480 1.373 . S
C479 C501 1.432 . S
C480 C479 1.373 . S
C480 C481 1.339 . S
C480 C483 1.530 . S
C481 C476 1.304 . S
C481 C480 1.339 . S
C481 H542 0.930 . S
C482 C478 1.567 . S
C482 H543 0.961 . S
C482 H544 0.960 . S
C482 H545 0.958 . S
C483 C480 1.530 . S
C483 H546 0.961 . S
C483 H547 0.960 . S
C483 H548 0.960 . S
C484 C485 1.530 . S
C484 H550 0.961 . S
C484 H551 0.961 . S
C484 H552 0.959 . S
C485 C484 1.530 . S
C485 O513 1.412 . S
C485 H549 0.980 . S
C486 C487 1.288 . S
C486 C491 1.377 . S
C486 O513 1.393 . S
C487 C486 1.288 . S
C487 C488 1.369 . S
C487 H553 0.932 . S
C488 C487 1.369 . S
C488 C489 1.398 . S
C488 C492 1.527 . S
C489 C488 1.398 . S
C489 C490 1.380 . S
C489 C503 1.497 . S
C490 C489 1.380 . S
C490 C491 1.383 . S
C490 C493 1.603 . S
C491 C486 1.377 . S
C491 C490 1.383 . S
C491 H554 0.929 . S
C492 C488 1.527 . S
C492 H555 0.961 . S
C492 H556 0.959 . S
C492 H557 0.959 . S
C493 C490 1.603 . S
C493 H558 0.960 . S
C493 H559 0.962 . S
C493 H560 0.961 . S
C494 C461 1.587 . S
C494 C495 1.360 . S
C494 C507 1.412 . S
C495 C494 1.360 . S
C495 C496 1.365 . S
C495 H561 0.929 . S
C496 C471 1.553 . S
C496 C495 1.365 . S
C496 C497 1.404 . S
C497 C496 1.404 . S
C497 C498 1.395 . S
C497 C508 1.451 . S
C498 C497 1.395 . S
C498 C499 1.322 . S
C498 H562 0.930 . S
C499 C498 1.322 . S
C499 C500 1.459 . S
C499 H563 0.929 . S
C500 C499 1.459 . S
C500 C501 1.445 . S
C500 C509 1.395 . S
C501 C479 1.432 . S
C501 C500 1.445 . S
C501 C502 1.370 . S
C502 C501 1.370 . S
C502 C503 1.438 . S
C502 H564 0.930 . S
C503 C489 1.497 . S
C503 C502 1.438 . S
C503 C504 1.360 . S
C504 C503 1.360 . S
C504 C505 1.401 . S
C504 C509 1.446 . S
C505 C504 1.401 . S
C505 C506 1.347 . S
C505 H565 0.929 . S
C506 C505 1.347 . S
C506 C507 1.455 . S
C506 H566 0.930 . S
C507 C494 1.412 . S
C507 C506 1.455 . S
C507 C508 1.331 . S
C508 C497 1.451 . S
C508 C507 1.331 . S
C508 C509 1.497 . S
C509 C500 1.395 . S
C509 C504 1.446 . S
C509 C508 1.497 . S
C510 C511 1.582 . S
C510 H567 0.962 . S
C510 H568 0.959 . S
C510 H569 0.958 . S
C511 C510 1.582 . S
C511 O514 1.458 . S
C511 H540 0.980 . S
O512 C457 1.426 . S
O512 C458 1.334 . S
O513 C485 1.412 . S
O513 C486 1.393 . S
O514 C476 1.435 . S
O514 C511 1.458 . S
O515 C467 1.468 . S
O515 C468 1.408 . S
H516 C457 0.980 . S
H517 C456 0.959 . S
H518 C456 0.959 . S
H519 C456 0.960 . S
H520 C459 0.929 . S
H521 C463 0.929 . S
H522 C464 0.959 . S
H523 C464 0.961 . S
H524 C464 0.961 . S
H525 C465 0.960 . S
H526 C465 0.960 . S
H527 C465 0.961 . S
H528 C467 0.980 . S
H529 C466 0.961 . S
H530 C466 0.960 . S
H531 C466 0.959 . S
H532 C469 0.930 . S
H533 C473 0.931 . S
H534 C474 0.959 . S
H535 C474 0.961 . S
H536 C474 0.959 . S
H537 C475 0.960 . S
H538 C475 0.960 . S
H539 C475 0.960 . S
H540 C511 0.980 . S
H541 C477 0.930 . S
H542 C481 0.930 . S
H543 C482 0.961 . S
H544 C482 0.960 . S
H545 C482 0.958 . S
H546 C483 0.961 . S
H547 C483 0.960 . S
H548 C483 0.960 . S
H549 C485 0.980 . S
H550 C484 0.961 . S
H551 C484 0.961 . S
H552 C484 0.959 . S
H553 C487 0.932 . S
H554 C491 0.929 . S
H555 C492 0.961 . S
H556 C492 0.959 . S
H557 C492 0.959 . S
H558 C493 0.960 . S
H559 C493 0.962 . S
H560 C493 0.961 . S
H561 C495 0.929 . S
H562 C498 0.930 . S
H563 C499 0.929 . S
H564 C502 0.930 . S
H565 C505 0.929 . S
H566 C506 0.930 . S
H567 C510 0.962 . S
H568 C510 0.959 . S
H569 C510 0.958 . S
C570 C571 1.560 . S
C570 H631 0.959 . S
C570 H632 0.959 . S
C570 H633 0.960 . S
C571 C570 1.560 . S
C571 O626 1.426 . S
C571 H630 0.980 . S
C572 C573 1.407 . S
C572 C577 1.418 . S
C572 O626 1.334 . S
C573 C572 1.407 . S
C573 C574 1.360 . S
C573 H634 0.929 . S
C574 C573 1.360 . S
C574 C575 1.401 . S
C574 C578 1.527 . S
C575 C574 1.401 . S
C575 C576 1.405 . S
C575 C608 1.587 . S
C576 C575 1.405 . S
C576 C577 1.332 . S
C576 C579 1.496 . S
C577 C572 1.418 . S
C577 C576 1.332 . S
C577 H635 0.929 . S
C578 C574 1.527 . S
C578 H636 0.959 . S
C578 H637 0.961 . S
C578 H638 0.961 . S
C579 C576 1.496 . S
C579 H639 0.960 . S
C579 H640 0.960 . S
C579 H641 0.961 . S
C580 C581 1.517 . S
C580 H643 0.961 . S
C580 H644 0.960 . S
C580 H645 0.959 . S
C581 C580 1.517 . S
C581 O629 1.468 . S
C581 H642 0.980 . S
C582 C583 1.349 . S
C582 C587 1.367 . S
C582 O629 1.408 . S
C583 C582 1.349 . S
C583 C584 1.407 . S
C583 H646 0.930 . S
C584 C583 1.407 . S
C584 C585 1.449 . S
C584 C588 1.535 . S
C585 C584 1.449 . S
C585 C586 1.384 . S
C585 C610 1.553 . S
C586 C585 1.384 . S
C586 C587 1.364 . S
C586 C589 1.450 . S
C587 C582 1.367 . S
C587 C586 1.364 . S
C587 H647 0.931 . S
C588 C584 1.535 . S
C588 H648 0.959 . S
C588 H649 0.961 . S
C588 H650 0.959 . S
C589 C586 1.450 . S
C589 H651 0.960 . S
C589 H652 0.960 . S
C589 H653 0.960 . S
C590 C591 1.309 . S
C590 C595 1.304 . S
C590 O628 1.435 . S
C591 C590 1.309 . S
C591 C592 1.476 . S
C591 H655 0.930 . S
C592 C591 1.476 . S
C592 C593 1.400 . S
C592 C596 1.567 . S
C593 C592 1.400 . S
C593 C594 1.373 . S
C593 C615 1.432 . S
C594 C593 1.373 . S
C594 C595 1.339 . S
C594 C597 1.530 . S
C595 C590 1.304 . S
C595 C594 1.339 . S
C595 H656 0.930 . S
C596 C592 1.567 . S
C596 H657 0.961 . S
C596 H658 0.960 . S
C596 H659 0.958 . S
C597 C594 1.530 . S
C597 H660 0.961 . S
C597 H661 0.960 . S
C597 H662 0.960 . S
C598 C599 1.530 . S
C598 H664 0.961 . S
C598 H665 0.961 . S
C598 H666 0.959 . S
C599 C598 1.530 . S
C599 O627 1.412 . S
C599 H663 0.980 . S
C600 C601 1.288 . S
C600 C605 1.377 . S
C600 O627 1.393 . S
C601 C600 1.288 . S
C601 C602 1.369 . S
C601 H667 0.932 . S
C602 C601 1.369 . S
C602 C603 1.398 . S
C602 C606 1.527 . S
C603 C602 1.398 . S
C603 C604 1.380 . S
C603 C617 1.497 . S
C604 C603 1.380 . S
C604 C605 1.383 . S
C604 C607 1.603 . S
C605 C600 1.377 . S
C605 C604 1.383 . S
C605 H668 0.929 . S
C606 C602 1.527 . S
C606 H669 0.961 . S
C606 H670 0.959 . S
C606 H671 0.959 . S
C607 C604 1.603 . S
C607 H672 0.960 . S
C607 H673 0.962 . S
C607 H674 0.961 . S
C608 C575 1.587 . S
C608 C609 1.360 . S
C608 C621 1.412 . S
C609 C608 1.360 . S
C609 C610 1.365 . S
C609 H675 0.929 . S
C610 C585 1.553 . S
C610 C609 1.365 . S
C610 C611 1.404 . S
C611 C610 1.404 . S
C611 C612 1.395 . S
C611 C622 1.451 . S
C612 C611 1.395 . S
C612 C613 1.322 . S
C612 H676 0.930 . S
C613 C612 1.322 . S
C613 C614 1.459 . S
C613 H677 0.929 . S
C614 C613 1.459 . S
C614 C615 1.445 . S
C614 C623 1.395 . S
C615 C593 1.432 . S
C615 C614 1.445 . S
C615 C616 1.370 . S
C616 C615 1.370 . S
C616 C617 1.438 . S
C616 H678 0.930 . S
C617 C603 1.497 . S
C617 C616 1.438 . S
C617 C618 1.360 . S
C618 C617 1.360 . S
C618 C619 1.401 . S
C618 C623 1.446 . S
C619 C618 1.401 . S
C619 C620 1.347 . S
C619 H679 0.929 . S
C620 C619 1.347 . S
C620 C621 1.455 . S
C620 H680 0.930 . S
C621 C608 1.412 . S
C621 C620 1.455 . S
C621 C622 1.331 . S
C622 C611 1.451 . S
C622 C621 1.331 . S
C622 C623 1.497 . S
C623 C614 1.395 . S
C623 C618 1.446 . S
C623 C622 1.497 . S
C624 C625 1.582 . S
C624 H681 0.962 . S
C624 H682 0.959 . S
C624 H683 0.958 . S
C625 C624 1.582 . S
C625 O628 1.458 . S
C625 H654 0.980 . S
O626 C571 1.426 . S
O626 C572 1.334 . S
O627 C599 1.412 . S
O627 C600 1.393 . S
O628 C590 1.435 . S
O628 C625 1.458 . S
O629 C581 1.468 . S
O629 C582 1.408 . S
H630 C571 0.980 . S
H631 C570 0.959 . S
H632 C570 0.959 . S
H633 C570 0.960 . S
H634 C573 0.929 . S
H635 C577 0.929 . S
H636 C578 0.959 . S
H637 C578 0.961 . S
H638 C578 0.961 . S
H639 C579 0.960 . S
H640 C579 0.960 . S
H641 C579 0.961 . S
H642 C581 0.980 . S
H643 C580 0.961 . S
H644 C580 0.960 . S
H645 C580 0.959 . S
H646 C583 0.930 . S
H647 C587 0.931 . S
H648 C588 0.959 . S
H649 C588 0.961 . S
H650 C588 0.959 . S
H651 C589 0.960 . S
H652 C589 0.960 . S
H653 C589 0.960 . S
H654 C625 0.980 . S
H655 C591 0.930 . S
H656 C595 0.930 . S
H657 C596 0.961 . S
H658 C596 0.960 . S
H659 C596 0.958 . S
H660 C597 0.961 . S
H661 C597 0.960 . S
H662 C597 0.960 . S
H663 C599 0.980 . S
H664 C598 0.961 . S
H665 C598 0.961 . S
H666 C598 0.959 . S
H667 C601 0.932 . S
H668 C605 0.929 . S
H669 C606 0.961 . S
H670 C606 0.959 . S
H671 C606 0.959 . S
H672 C607 0.960 . S
H673 C607 0.962 . S
H674 C607 0.961 . S
H675 C609 0.929 . S
H676 C612 0.930 . S
H677 C613 0.929 . S
H678 C616 0.930 . S
H679 C619 0.929 . S
H680 C620 0.930 . S
H681 C624 0.962 . S
H682 C624 0.959 . S
H683 C624 0.958 . S
C684 C685 1.560 . S
C684 H745 0.959 . S
C684 H746 0.959 . S
C684 H747 0.960 . S
C685 C684 1.560 . S
C685 O740 1.426 . S
C685 H744 0.980 . S
C686 C687 1.407 . S
C686 C691 1.418 . S
C686 O740 1.334 . S
C687 C686 1.407 . S
C687 C688 1.360 . S
C687 H748 0.929 . S
C688 C687 1.360 . S
C688 C689 1.401 . S
C688 C692 1.527 . S
C689 C688 1.401 . S
C689 C690 1.405 . S
C689 C722 1.587 . S
C690 C689 1.405 . S
C690 C691 1.332 . S
C690 C693 1.496 . S
C691 C686 1.418 . S
C691 C690 1.332 . S
C691 H749 0.929 . S
C692 C688 1.527 . S
C692 H750 0.959 . S
C692 H751 0.961 . S
C692 H752 0.961 . S
C693 C690 1.496 . S
C693 H753 0.960 . S
C693 H754 0.960 . S
C693 H755 0.961 . S
C694 C695 1.517 . S
C694 H757 0.961 . S
C694 H758 0.960 . S
C694 H759 0.959 . S
C695 C694 1.517 . S
C695 O743 1.468 . S
C695 H756 0.980 . S
C696 C697 1.349 . S
C696 C701 1.367 . S
C696 O743 1.408 . S
C697 C696 1.349 . S
C697 C698 1.407 . S
C697 H760 0.930 . S
C698 C697 1.407 . S
C698 C699 1.449 . S
C698 C702 1.535 . S
C699 C698 1.449 . S
C699 C700 1.384 . S
C699 C724 1.553 . S
C700 C699 1.384 . S
C700 C701 1.364 . S
C700 C703 1.450 . S
C701 C696 1.367 . S
C701 C700 1.364 . S
C701 H761 0.931 . S
C702 C698 1.535 . S
C702 H762 0.959 . S
C702 H763 0.961 . S
C702 H764 0.959 . S
C703 C700 1.450 . S
C703 H765 0.960 . S
C703 H766 0.960 . S
C703 H767 0.960 . S
C704 C705 1.309 . S
C704 C709 1.304 . S
C704 O742 1.435 . S
C705 C704 1.309 . S
C705 C706 1.476 . S
C705 H769 0.930 . S
C706 C705 1.476 . S
C706 C707 1.400 . S
C706 C710 1.567 . S
C707 C706 1.400 . S
C707 C708 1.373 . S
C707 C729 1.432 . S
C708 C707 1.373 . S
C708 C709 1.339 . S
C708 C711 1.530 . S
C709 C704 1.304 . S
C709 C708 1.339 . S
C709 H770 0.930 . S
C710 C706 1.567 . S
C710 H771 0.961 . S
C710 H772 0.960 . S
C710 H773 0.958 . S
C711 C708 1.530 . S
C711 H774 0.961 . S
C711 H775 0.960 . S
C711 H776 0.960 . S
C712 C713 1.530 . S
C712 H778 0.961 . S
C712 H779 0.961 . S
C712 H780 0.959 . S
C713 C712 1.530 . S
C713 O741 1.412 . S
C713 H777 0.980 . S
C714 C715 1.288 . S
C714 C719 1.377 . S
C714 O741 1.393 . S
C715 C714 1.288 . S
C715 C716 1.369 . S
C715 H781 0.932 . S
C716 C715 1.369 . S
C716 C717 1.398 . S
C716 C720 1.527 . S
C717 C716 1.398 . S
C717 C718 1.380 . S
C717 C731 1.497 . S
C718 C717 1.380 . S
C718 C719 1.383 . S
C718 C721 1.603 . S
C719 C714 1.377 . S
C719 C718 1.383 . S
C719 H782 0.929 . S
C720 C716 1.527 . S
C720 H783 0.961 . S
C720 H784 0.959 . S
C720 H785 0.959 . S
C721 C718 1.603 . S
C721 H786 0.960 . S
C721 H787 0.962 . S
C721 H788 0.961 . S
C722 C689 1.587 . S
C722 C723 1.360 . S
C722 C735 1.412 . S
C723 C722 1.360 . S
C723 C724 1.365 . S
C723 H789 0.929 . S
C724 C699 1.553 . S
C724 C723 1.365 . S
C724 C725 1.404 . S
C725 C724 1.404 . S
C725 C726 1.395 . S
C725 C736 1.451 . S
C726 C725 1.395 . S
C726 C727 1.322 . S
C726 H790 0.930 . S
C727 C726 1.322 . S
C727 C728 1.459 . S
C727 H791 0.929 . S
C728 C727 1.459 . S
C728 C729 1.445 . S
C728 C737 1.395 . S
C729 C707 1.432 . S
C729 C728 1.445 . S
C729 C730 1.370 . S
C730 C729 1.370 . S
C730 C731 1.438 . S
C730 H792 0.930 . S
C731 C717 1.497 . S
C731 C730 1.438 . S
C731 C732 1.360 . S
C732 C731 1.360 . S
C732 C733 1.401 . S
C732 C737 1.446 . S
C733 C732 1.401 . S
C733 C734 1.347 . S
C733 H793 0.929 . S
C734 C733 1.347 . S
C734 C735 1.455 . S
C734 H794 0.930 . S
C735 C722 1.412 . S
C735 C734 1.455 . S
C735 C736 1.331 . S
C736 C725 1.451 . S
C736 C735 1.331 . S
C736 C737 1.497 . S
C737 C728 1.395 . S
C737 C732 1.446 . S
C737 C736 1.497 . S
C738 C739 1.582 . S
C738 H795 0.962 . S
C738 H796 0.959 . S
C738 H797 0.958 . S
C739 C738 1.582 . S
C739 O742 1.458 . S
C739 H768 0.980 . S
O740 C685 1.426 . S
O740 C686 1.334 . S
O741 C713 1.412 . S
O741 C714 1.393 . S
O742 C704 1.435 . S
O742 C739 1.458 . S
O743 C695 1.468 . S
O743 C696 1.408 . S
H744 C685 0.980 . S
H745 C684 0.959 . S
H746 C684 0.959 . S
H747 C684 0.960 . S
H748 C687 0.929 . S
H749 C691 0.929 . S
H750 C692 0.959 . S
H751 C692 0.961 . S
H752 C692 0.961 . S
H753 C693 0.960 . S
H754 C693 0.960 . S
H755 C693 0.961 . S
H756 C695 0.980 . S
H757 C694 0.961 . S
H758 C694 0.960 . S
H759 C694 0.959 . S
H760 C697 0.930 . S
H761 C701 0.931 . S
H762 C702 0.959 . S
H763 C702 0.961 . S
H764 C702 0.959 . S
H765 C703 0.960 . S
H766 C703 0.960 . S
H767 C703 0.960 . S
H768 C739 0.980 . S
H769 C705 0.930 . S
H770 C709 0.930 . S
H771 C710 0.961 . S
H772 C710 0.960 . S
H773 C710 0.958 . S
H774 C711 0.961 . S
H775 C711 0.960 . S
H776 C711 0.960 . S
H777 C713 0.980 . S
H778 C712 0.961 . S
H779 C712 0.961 . S
H780 C712 0.959 . S
H781 C715 0.932 . S
H782 C719 0.929 . S
H783 C720 0.961 . S
H784 C720 0.959 . S
H785 C720 0.959 . S
H786 C721 0.960 . S
H787 C721 0.962 . S
H788 C721 0.961 . S
H789 C723 0.929 . S
H790 C726 0.930 . S
H791 C727 0.929 . S
H792 C730 0.930 . S
H793 C733 0.929 . S
H794 C734 0.930 . S
H795 C738 0.962 . S
H796 C738 0.959 . S
H797 C738 0.958 . S
C798 C799 1.560 . S
C798 H859 0.959 . S
C798 H860 0.959 . S
C798 H861 0.960 . S
C799 C798 1.560 . S
C799 O854 1.426 . S
C799 H858 0.980 . S
C800 C801 1.407 . S
C800 C805 1.418 . S
C800 O854 1.334 . S
C801 C800 1.407 . S
C801 C802 1.360 . S
C801 H862 0.929 . S
C802 C801 1.360 . S
C802 C803 1.401 . S
C802 C806 1.527 . S
C803 C802 1.401 . S
C803 C804 1.405 . S
C803 C836 1.587 . S
C804 C803 1.405 . S
C804 C805 1.332 . S
C804 C807 1.496 . S
C805 C800 1.418 . S
C805 C804 1.332 . S
C805 H863 0.929 . S
C806 C802 1.527 . S
C806 H864 0.959 . S
C806 H865 0.961 . S
C806 H866 0.961 . S
C807 C804 1.496 . S
C807 H867 0.960 . S
C807 H868 0.960 . S
C807 H869 0.961 . S
C808 C809 1.517 . S
C808 H871 0.961 . S
C808 H872 0.960 . S
C808 H873 0.959 . S
C809 C808 1.517 . S
C809 O857 1.468 . S
C809 H870 0.980 . S
C810 C811 1.349 . S
C810 C815 1.367 . S
C810 O857 1.408 . S
C811 C810 1.349 . S
C811 C812 1.407 . S
C811 H874 0.930 . S
C812 C811 1.407 . S
C812 C813 1.449 . S
C812 C816 1.535 . S
C813 C812 1.449 . S
C813 C814 1.384 . S
C813 C838 1.553 . S
C814 C813 1.384 . S
C814 C815 1.364 . S
C814 C817 1.450 . S
C815 C810 1.367 . S
C815 C814 1.364 . S
C815 H875 0.931 . S
C816 C812 1.535 . S
C816 H876 0.959 . S
C816 H877 0.961 . S
C816 H878 0.959 . S
C817 C814 1.450 . S
C817 H879 0.960 . S
C817 H880 0.960 . S
C817 H881 0.960 . S
C818 C819 1.309 . S
C818 C823 1.304 . S
C818 O856 1.435 . S
C819 C818 1.309 . S
C819 C820 1.476 . S
C819 H883 0.930 . S
C820 C819 1.476 . S
C820 C821 1.400 . S
C820 C824 1.567 . S
C821 C820 1.400 . S
C821 C822 1.373 . S
C821 C843 1.432 . S
C822 C821 1.373 . S
C822 C823 1.339 . S
C822 C825 1.530 . S
C823 C818 1.304 . S
C823 C822 1.339 . S
C823 H884 0.930 . S
C824 C820 1.567 . S
C824 H885 0.961 . S
C824 H886 0.960 . S
C824 H887 0.958 . S
C825 C822 1.530 . S
C825 H888 0.961 . S
C825 H889 0.960 . S
C825 H890 0.960 . S
C826 C827 1.530 . S
C826 H892 0.961 . S
C826 H893 0.961 . S
C826 H894 0.959 . S
C827 C826 1.530 . S
C827 O855 1.412 . S
C827 H891 0.980 . S
C828 C829 1.288 . S
C828 C833 1.377 . S
C828 O855 1.393 . S
C829 C828 1.288 . S
C829 C830 1.369 . S
C829 H895 0.932 . S
C830 C829 1.369 . S
C830 C831 1.398 . S
C830 C834 1.527 . S
C831 C830 1.398 . S
C831 C832 1.380 . S
C831 C845 1.497 . S
C832 C831 1.380 . S
C832 C833 1.383 . S
C832 C835 1.603 . S
C833 C828 1.377 . S
C833 C832 1.383 . S
C833 H896 0.929 . S
C834 C830 1.527 . S
C834 H897 0.961 . S
C834 H898 0.959 . S
C834 H899 0.959 . S
C835 C832 1.603 . S
C835 H900 0.960 . S
C835 H901 0.962 . S
C835 H902 0.961 . S
C836 C803 1.587 . S
C836 C837 1.360 . S
C836 C849 1.412 . S
C837 C836 1.360 . S
C837 C838 1.365 . S
C837 H903 0.929 . S
C838 C813 1.553 . S
C838 C837 1.365 . S
C838 C839 1.404 . S
C839 C838 1.404 . S
C839 C840 1.395 . S
C839 C850 1.451 . S
C840 C839 1.395 . S
C840 C841 1.322 . S
C840 H904 0.930 . S
C841 C840 1.322 . S
C841 C842 1.459 . S
C841 H905 0.929 . S
C842 C841 1.459 . S
C842 C843 1.445 . S
C842 C851 1.395 . S
C843 C821 1.432 . S
C843 C842 1.445 . S
C843 C844 1.370 . S
C844 C843 1.370 . S
C844 C845 1.438 . S
C844 H906 0.930 . S
C845 C831 1.497 . S
C845 C844 1.438 . S
C845 C846 1.360 . S
C846 C845 1.360 . S
C846 C847 1.401 . S
C846 C851 1.446 . S
C847 C846 1.401 . S
C847 C848 1.347 . S
C847 H907 0.929 . S
C848 C847 1.347 . S
C848 C849 1.455 . S
C848 H908 0.930 . S
C849 C836 1.412 . S
C849 C848 1.455 . S
C849 C850 1.331 . S
C850 C839 1.451 . S
C850 C849 1.331 . S
C850 C851 1.497 . S
C851 C842 1.395 . S
C851 C846 1.446 . S
C851 C850 1.497 . S
C852 C853 1.582 . S
C852 H909 0.962 . S
C852 H910 0.959 . S
C852 H911 0.958 . S
C853 C852 1.582 . S
C853 O856 1.458 . S
C853 H882 0.980 . S
O854 C799 1.426 . S
O854 C800 1.334 . S
O855 C827 1.412 . S
O855 C828 1.393 . S
O856 C818 1.435 . S
O856 C853 1.458 . S
O857 C809 1.468 . S
O857 C810 1.408 . S
H858 C799 0.980 . S
H859 C798 0.959 . S
H860 C798 0.959 . S
H861 C798 0.960 . S
H862 C801 0.929 . S
H863 C805 0.929 . S
H864 C806 0.959 . S
H865 C806 0.961 . S
H866 C806 0.961 . S
H867 C807 0.960 . S
H868 C807 0.960 . S
H869 C807 0.961 . S
H870 C809 0.980 . S
H871 C808 0.961 . S
H872 C808 0.960 . S
H873 C808 0.959 . S
H874 C811 0.930 . S
H875 C815 0.931 . S
H876 C816 0.959 . S
H877 C816 0.961 . S
H878 C816 0.959 . S
H879 C817 0.960 . S
H880 C817 0.960 . S
H881 C817 0.960 . S
H882 C853 0.980 . S
H883 C819 0.930 . S
H884 C823 0.930 . S
H885 C824 0.961 . S
H886 C824 0.960 . S
H887 C824 0.958 . S
H888 C825 0.961 . S
H889 C825 0.960 . S
H890 C825 0.960 . S
H891 C827 0.980 . S
H892 C826 0.961 . S
H893 C826 0.961 . S
H894 C826 0.959 . S
H895 C829 0.932 . S
H896 C833 0.929 . S
H897 C834 0.961 . S
H898 C834 0.959 . S
H899 C834 0.959 . S
H900 C835 0.960 . S
H901 C835 0.962 . S
H902 C835 0.961 . S
H903 C837 0.929 . S
H904 C840 0.930 . S
H905 C841 0.929 . S
H906 C844 0.930 . S
H907 C847 0.929 . S
H908 C848 0.930 . S
H909 C852 0.962 . S
H910 C852 0.959 . S
H911 C852 0.958 . S
C912 O914 1.247 . S
C912 O916 1.258 . S
C913 O920 1.247 . S
C913 O921 1.258 . S
O914 C912 1.247 . S
O914 Zn915 2.028 1_655 S
Zn915 O914 2.028 1_455 S
Zn915 O919 2.035 . S
Zn915 O921 2.035 . S
Zn915 O922 2.028 1_455 S
O916 C912 1.258 . S
O916 Zn917 2.035 1_655 S
Zn917 O916 2.035 1_455 S
Zn917 O918 2.028 . S
Zn917 O920 2.028 . S
Zn917 O923 2.035 1_455 S
O918 Zn917 2.028 . S
O918 C924 1.247 . S
O919 Zn915 2.035 . S
O919 C924 1.258 . S
O920 C913 1.247 . S
O920 Zn917 2.028 . S
O921 C913 1.258 . S
O921 Zn915 2.035 . S
O922 Zn915 2.028 1_655 S
O922 C925 1.247 . S
O923 Zn917 2.035 1_655 S
O923 C925 1.258 . S
C924 O918 1.247 . S
C924 O919 1.258 . S
C925 O922 1.247 . S
C925 O923 1.258 . S
C926 O928 1.247 . S
C926 O930 1.258 . S
C927 O934 1.247 . S
C927 O935 1.258 . S
O928 C926 1.247 . S
O928 Zn929 2.028 . S
Zn929 O928 2.028 . S
Zn929 O933 2.035 1_545 S
Zn929 O935 2.035 1_545 S
Zn929 O936 2.028 . S
O930 C926 1.258 . S
O930 Zn931 2.035 . S
Zn931 O930 2.035 . S
Zn931 O932 2.028 1_545 S
Zn931 O934 2.028 1_545 S
Zn931 O937 2.035 . S
O932 Zn931 2.028 1_565 S
O932 C938 1.247 . S
O933 Zn929 2.035 1_565 S
O933 C938 1.258 . S
O934 C927 1.247 . S
O934 Zn931 2.028 1_565 S
O935 C927 1.258 . S
O935 Zn929 2.035 1_565 S
O936 Zn929 2.028 . S
O936 C939 1.247 . S
O937 Zn931 2.035 . S
O937 C939 1.258 . S
C938 O932 1.247 . S
C938 O933 1.258 . S
C939 O936 1.247 . S
C939 O937 1.258 . S
C940 O942 1.247 . S
C940 O944 1.258 . S
C941 O948 1.247 . S
C941 O949 1.258 . S
O942 C940 1.247 . S
O942 Zn943 2.028 1_655 S
Zn943 O942 2.028 1_455 S
Zn943 O947 2.035 . S
Zn943 O949 2.035 . S
Zn943 O950 2.028 1_455 S
O944 C940 1.258 . S
O944 Zn945 2.035 1_655 S
Zn945 O944 2.035 1_455 S
Zn945 O946 2.028 . S
Zn945 O948 2.028 . S
Zn945 O951 2.035 1_455 S
O946 Zn945 2.028 . S
O946 C952 1.247 . S
O947 Zn943 2.035 . S
O947 C952 1.258 . S
O948 C941 1.247 . S
O948 Zn945 2.028 . S
O949 C941 1.258 . S
O949 Zn943 2.035 . S
O950 Zn943 2.028 1_655 S
O950 C953 1.247 . S
O951 Zn945 2.035 1_655 S
O951 C953 1.258 . S
C952 O946 1.247 . S
C952 O947 1.258 . S
C953 O950 1.247 . S
C953 O951 1.258 . S
C954 O956 1.247 . S
C954 O958 1.258 . S
C955 O962 1.247 . S
C955 O963 1.258 . S
O956 C954 1.247 . S
O956 Zn957 2.028 . S
Zn957 O956 2.028 . S
Zn957 O961 2.035 1_545 S
Zn957 O963 2.035 1_545 S
Zn957 O964 2.028 . S
O958 C954 1.258 . S
O958 Zn959 2.035 . S
Zn959 O958 2.035 . S
Zn959 O960 2.028 1_545 S
Zn959 O962 2.028 1_545 S
Zn959 O965 2.035 . S
O960 Zn959 2.028 1_565 S
O960 C966 1.247 . S
O961 Zn957 2.035 1_565 S
O961 C966 1.258 . S
O962 C955 1.247 . S
O962 Zn959 2.028 1_565 S
O963 C955 1.258 . S
O963 Zn957 2.035 1_565 S
O964 Zn957 2.028 . S
O964 C967 1.247 . S
O965 Zn959 2.035 . S
O965 C967 1.258 . S
C966 O960 1.247 . S
C966 O961 1.258 . S
C967 O964 1.247 . S
C967 O965 1.258 . S
C968 O970 1.247 . S
C968 O972 1.258 . S
C969 O976 1.247 . S
C969 O977 1.258 . S
O970 C968 1.247 . S
O970 Zn971 2.031 . S
Zn971 O970 2.031 . S
Zn971 O975 2.038 . S
Zn971 O977 2.032 1_554 S
Zn971 O978 2.025 1_554 S
O972 C968 1.258 . S
O972 Zn973 2.041 . S
Zn973 O972 2.041 . S
Zn973 O974 2.034 . S
Zn973 O976 2.022 1_554 S
Zn973 O979 2.029 1_554 S
O974 Zn973 2.034 . S
O974 C980 1.247 . S
O975 Zn971 2.038 . S
O975 C980 1.258 . S
O976 C969 1.247 . S
O976 Zn973 2.022 1_556 S
O977 C969 1.258 . S
O977 Zn971 2.032 1_556 S
O978 Zn971 2.025 1_556 S
O978 C981 1.247 . S
O979 Zn973 2.029 1_556 S
O979 C981 1.258 . S
C980 O974 1.247 . S
C980 O975 1.258 . S
C981 O978 1.247 . S
C981 O979 1.258 . S
C982 O984 1.247 . S
C982 O986 1.258 . S
C983 O990 1.247 . S
C983 O991 1.258 . S
O984 C982 1.247 . S
O984 Zn985 2.028 . S
Zn985 O984 2.028 . S
Zn985 O989 2.035 . S
Zn985 O991 2.035 1_554 S
Zn985 O992 2.028 1_554 S
O986 C982 1.258 . S
O986 Zn987 2.035 . S
Zn987 O986 2.035 . S
Zn987 O988 2.028 . S
Zn987 O990 2.028 1_554 S
Zn987 O993 2.035 1_554 S
O988 Zn987 2.028 . S
O988 C994 1.247 . S
O989 Zn985 2.035 . S
O989 C994 1.258 . S
O990 C983 1.247 . S
O990 Zn987 2.028 1_556 S
O991 C983 1.258 . S
O991 Zn985 2.035 1_556 S
O992 Zn985 2.028 1_556 S
O992 C995 1.247 . S
O993 Zn987 2.035 1_556 S
O993 C995 1.258 . S
C994 O988 1.247 . S
C994 O989 1.258 . S
C995 O992 1.247 . S
C995 O993 1.258 . S
C996 O998 1.247 . S
C996 O1000 1.258 . S
C997 O1004 1.247 . S
C997 O1005 1.258 . S
O998 C996 1.247 . S
O998 Zn999 2.022 1_556 S
Zn999 O998 2.022 1_554 S
Zn999 O1003 2.029 1_554 S
Zn999 O1005 2.041 . S
Zn999 O1006 2.034 . S
O1000 C996 1.258 . S
O1000 Zn1001 2.031 1_556 S
Zn1001 O1000 2.031 1_554 S
Zn1001 O1002 2.024 1_554 S
Zn1001 O1004 2.032 . S
Zn1001 O1007 2.039 . S
O1002 Zn1001 2.024 1_556 S
O1002 C1008 1.247 . S
O1003 Zn999 2.029 1_556 S
O1003 C1008 1.258 . S
O1004 C997 1.247 . S
O1004 Zn1001 2.032 . S
O1005 C997 1.258 . S
O1005 Zn999 2.041 . S
O1006 Zn999 2.034 . S
O1006 C1009 1.247 . S
O1007 Zn1001 2.039 . S
O1007 C1009 1.258 . S
C1008 O1002 1.247 . S
C1008 O1003 1.258 . S
C1009 O1006 1.247 . S
C1009 O1007 1.258 . S
C1010 O1012 1.247 . S
C1010 O1014 1.258 . S
C1011 O1018 1.247 . S
C1011 O1019 1.258 . S
O1012 C1010 1.247 . S
O1012 Zn1013 2.028 . S
Zn1013 O1012 2.028 . S
Zn1013 O1017 2.035 . S
Zn1013 O1019 2.035 1_554 S
Zn1013 O1020 2.028 1_554 S
O1014 C1010 1.258 . S
O1014 Zn1015 2.035 . S
Zn1015 O1014 2.035 . S
Zn1015 O1016 2.028 . S
Zn1015 O1018 2.028 1_554 S
Zn1015 O1021 2.035 1_554 S
O1016 Zn1015 2.028 . S
O1016 C1022 1.247 . S
O1017 Zn1013 2.035 . S
O1017 C1022 1.258 . S
O1018 C1011 1.247 . S
O1018 Zn1015 2.028 1_556 S
O1019 C1011 1.258 . S
O1019 Zn1013 2.035 1_556 S
O1020 Zn1013 2.028 1_556 S
O1020 C1023 1.247 . S
O1021 Zn1015 2.035 1_556 S
O1021 C1023 1.258 . S
C1022 O1016 1.247 . S
C1022 O1017 1.258 . S
C1023 O1020 1.247 . S
C1023 O1021 1.258 . S
H1024 C1032 0.950 . S
H1025 C1037 0.950 . S
H1026 C1034 0.950 . S
H1027 C1036 0.950 . S
H1028 C1038 0.950 . S
H1029 C1040 0.950 . S
H1030 C1042 0.950 . S
H1031 C1043 0.950 . S
C1032 H1024 0.950 . S
C1032 C1033 1.386 . S
C1032 C1034 1.391 . S
C1033 C1032 1.386 . S
C1033 C1037 1.393 . S
C1034 H1026 0.950 . S
C1034 C1032 1.391 . S
C1034 C1035 1.400 . S
C1035 C1034 1.400 . S
C1035 C1036 1.398 . S
C1035 C1041 1.491 . S
C1036 H1027 0.950 . S
C1036 C1035 1.398 . S
C1036 C1037 1.391 . S
C1037 H1025 0.950 . S
C1037 C1033 1.393 . S
C1037 C1036 1.391 . S
C1038 H1028 0.950 . S
C1038 C1039 1.386 . S
C1038 C1040 1.391 . S
C1039 C1038 1.386 . S
C1039 C1043 1.393 . S
C1040 H1029 0.950 . S
C1040 C1038 1.391 . S
C1040 C1041 1.400 . S
C1041 C1035 1.491 . S
C1041 C1040 1.400 . S
C1041 C1042 1.398 . S
C1042 H1030 0.950 . S
C1042 C1041 1.398 . S
C1042 C1043 1.391 . S
C1043 H1031 0.950 . S
C1043 C1039 1.393 . S
C1043 C1042 1.391 . S
H1044 C1052 0.950 . S
H1045 C1057 0.950 . S
H1046 C1054 0.950 . S
H1047 C1056 0.950 . S
H1048 C1058 0.950 . S
H1049 C1060 0.950 . S
H1050 C1062 0.950 . S
H1051 C1063 0.950 . S
C1052 H1044 0.950 . S
C1052 C1053 1.386 . S
C1052 C1054 1.391 . S
C1053 C1052 1.386 . S
C1053 C1057 1.393 . S
C1054 H1046 0.950 . S
C1054 C1052 1.391 . S
C1054 C1055 1.400 . S
C1055 C1054 1.400 . S
C1055 C1056 1.398 . S
C1055 C1061 1.491 . S
C1056 H1047 0.950 . S
C1056 C1055 1.398 . S
C1056 C1057 1.391 . S
C1057 H1045 0.950 . S
C1057 C1053 1.393 . S
C1057 C1056 1.391 . S
C1058 H1048 0.950 . S
C1058 C1059 1.386 . S
C1058 C1060 1.391 . S
C1059 C1058 1.386 . S
C1059 C1063 1.393 . S
C1060 H1049 0.950 . S
C1060 C1058 1.391 . S
C1060 C1061 1.400 . S
C1061 C1055 1.491 . S
C1061 C1060 1.400 . S
C1061 C1062 1.398 . S
C1062 H1050 0.950 . S
C1062 C1061 1.398 . S
C1062 C1063 1.391 . S
C1063 H1051 0.950 . S
C1063 C1059 1.393 . S
C1063 C1062 1.391 . S
H1064 C1072 0.950 . S
H1065 C1077 0.950 . S
H1066 C1074 0.950 . S
H1067 C1076 0.950 . S
H1068 C1078 0.950 . S
H1069 C1080 0.950 . S
H1070 C1082 0.950 . S
H1071 C1083 0.950 . S
C1072 H1064 0.950 . S
C1072 C1073 1.386 . S
C1072 C1074 1.391 . S
C1073 C1072 1.386 . S
C1073 C1077 1.393 . S
C1074 H1066 0.950 . S
C1074 C1072 1.391 . S
C1074 C1075 1.400 . S
C1075 C1074 1.400 . S
C1075 C1076 1.398 . S
C1075 C1081 1.491 . S
C1076 H1067 0.950 . S
C1076 C1075 1.398 . S
C1076 C1077 1.391 . S
C1077 H1065 0.950 . S
C1077 C1073 1.393 . S
C1077 C1076 1.391 . S
C1078 H1068 0.950 . S
C1078 C1079 1.386 . S
C1078 C1080 1.391 . S
C1079 C1078 1.386 . S
C1079 C1083 1.393 . S
C1080 H1069 0.950 . S
C1080 C1078 1.391 . S
C1080 C1081 1.400 . S
C1081 C1075 1.491 . S
C1081 C1080 1.400 . S
C1081 C1082 1.398 . S
C1082 H1070 0.950 . S
C1082 C1081 1.398 . S
C1082 C1083 1.391 . S
C1083 H1071 0.950 . S
C1083 C1079 1.393 . S
C1083 C1082 1.391 . S
H1084 C1092 0.950 . S
H1085 C1097 0.950 . S
H1086 C1094 0.950 . S
H1087 C1096 0.950 . S
H1088 C1098 0.950 . S
H1089 C1100 0.950 . S
H1090 C1102 0.950 . S
H1091 C1103 0.950 . S
C1092 H1084 0.950 . S
C1092 C1093 1.386 . S
C1092 C1094 1.391 . S
C1093 C1092 1.386 . S
C1093 C1097 1.393 . S
C1094 H1086 0.950 . S
C1094 C1092 1.391 . S
C1094 C1095 1.400 . S
C1095 C1094 1.400 . S
C1095 C1096 1.398 . S
C1095 C1101 1.491 . S
C1096 H1087 0.950 . S
C1096 C1095 1.398 . S
C1096 C1097 1.391 . S
C1097 H1085 0.950 . S
C1097 C1093 1.393 . S
C1097 C1096 1.391 . S
C1098 H1088 0.950 . S
C1098 C1099 1.386 . S
C1098 C1100 1.391 . S
C1099 C1098 1.386 . S
C1099 C1103 1.393 . S
C1100 H1089 0.950 . S
C1100 C1098 1.391 . S
C1100 C1101 1.400 . S
C1101 C1095 1.491 . S
C1101 C1100 1.400 . S
C1101 C1102 1.398 . S
C1102 H1090 0.950 . S
C1102 C1101 1.398 . S
C1102 C1103 1.391 . S
C1103 H1091 0.950 . S
C1103 C1099 1.393 . S
C1103 C1102 1.391 . S
H1104 C1112 0.950 . S
H1105 C1117 0.950 . S
H1106 C1114 0.950 . S
H1107 C1116 0.950 . S
H1108 C1118 0.950 . S
H1109 C1120 0.950 . S
H1110 C1122 0.950 . S
H1111 C1123 0.950 . S
C1112 H1104 0.950 . S
C1112 C1113 1.386 . S
C1112 C1114 1.391 . S
C1113 C1112 1.386 . S
C1113 C1117 1.393 . S
C1114 H1106 0.950 . S
C1114 C1112 1.391 . S
C1114 C1115 1.400 . S
C1115 C1114 1.400 . S
C1115 C1116 1.398 . S
C1115 C1121 1.491 . S
C1116 H1107 0.950 . S
C1116 C1115 1.398 . S
C1116 C1117 1.391 . S
C1117 H1105 0.950 . S
C1117 C1113 1.393 . S
C1117 C1116 1.391 . S
C1118 H1108 0.950 . S
C1118 C1119 1.386 . S
C1118 C1120 1.391 . S
C1119 C1118 1.386 . S
C1119 C1123 1.393 . S
C1120 H1109 0.950 . S
C1120 C1118 1.391 . S
C1120 C1121 1.400 . S
C1121 C1115 1.491 . S
C1121 C1120 1.400 . S
C1121 C1122 1.398 . S
C1122 H1110 0.950 . S
C1122 C1121 1.398 . S
C1122 C1123 1.391 . S
C1123 H1111 0.950 . S
C1123 C1119 1.393 . S
C1123 C1122 1.391 . S
H1124 C1132 0.950 . S
H1125 C1137 0.950 . S
H1126 C1134 0.950 . S
H1127 C1136 0.950 . S
H1128 C1138 0.950 . S
H1129 C1140 0.950 . S
H1130 C1142 0.950 . S
H1131 C1143 0.950 . S
C1132 H1124 0.950 . S
C1132 C1133 1.386 . S
C1132 C1134 1.391 . S
C1133 C1132 1.386 . S
C1133 C1137 1.393 . S
C1134 H1126 0.950 . S
C1134 C1132 1.391 . S
C1134 C1135 1.400 . S
C1135 C1134 1.400 . S
C1135 C1136 1.398 . S
C1135 C1141 1.491 . S
C1136 H1127 0.950 . S
C1136 C1135 1.398 . S
C1136 C1137 1.391 . S
C1137 H1125 0.950 . S
C1137 C1133 1.393 . S
C1137 C1136 1.391 . S
C1138 H1128 0.950 . S
C1138 C1139 1.386 . S
C1138 C1140 1.391 . S
C1139 C1138 1.386 . S
C1139 C1143 1.393 . S
C1140 H1129 0.950 . S
C1140 C1138 1.391 . S
C1140 C1141 1.400 . S
C1141 C1135 1.491 . S
C1141 C1140 1.400 . S
C1141 C1142 1.398 . S
C1142 H1130 0.950 . S
C1142 C1141 1.398 . S
C1142 C1143 1.391 . S
C1143 H1131 0.950 . S
C1143 C1139 1.393 . S
C1143 C1142 1.391 . S
H1144 C1152 0.950 . S
H1145 C1157 0.950 . S
H1146 C1154 0.950 . S
H1147 C1156 0.950 . S
H1148 C1158 0.950 . S
H1149 C1160 0.950 . S
H1150 C1162 0.950 . S
H1151 C1163 0.950 . S
C1152 H1144 0.950 . S
C1152 C1153 1.386 . S
C1152 C1154 1.391 . S
C1153 C1152 1.386 . S
C1153 C1157 1.393 . S
C1154 H1146 0.950 . S
C1154 C1152 1.391 . S
C1154 C1155 1.400 . S
C1155 C1154 1.400 . S
C1155 C1156 1.398 . S
C1155 C1161 1.491 . S
C1156 H1147 0.950 . S
C1156 C1155 1.398 . S
C1156 C1157 1.391 . S
C1157 H1145 0.950 . S
C1157 C1153 1.393 . S
C1157 C1156 1.391 . S
C1158 H1148 0.950 . S
C1158 C1159 1.386 . S
C1158 C1160 1.391 . S
C1159 C1158 1.386 . S
C1159 C1163 1.393 . S
C1160 H1149 0.950 . S
C1160 C1158 1.391 . S
C1160 C1161 1.400 . S
C1161 C1155 1.491 . S
C1161 C1160 1.400 . S
C1161 C1162 1.398 . S
C1162 H1150 0.950 . S
C1162 C1161 1.398 . S
C1162 C1163 1.391 . S
C1163 H1151 0.950 . S
C1163 C1159 1.393 . S
C1163 C1162 1.391 . S
H1164 C1172 0.950 . S
H1165 C1177 0.950 . S
H1166 C1174 0.950 . S
H1167 C1176 0.950 . S
H1168 C1178 0.950 . S
H1169 C1180 0.950 . S
H1170 C1182 0.950 . S
H1171 C1183 0.950 . S
C1172 H1164 0.950 . S
C1172 C1173 1.386 . S
C1172 C1174 1.391 . S
C1173 C1172 1.386 . S
C1173 C1177 1.393 . S
C1174 H1166 0.950 . S
C1174 C1172 1.391 . S
C1174 C1175 1.400 . S
C1175 C1174 1.400 . S
C1175 C1176 1.398 . S
C1175 C1181 1.491 . S
C1176 H1167 0.950 . S
C1176 C1175 1.398 . S
C1176 C1177 1.391 . S
C1177 H1165 0.950 . S
C1177 C1173 1.393 . S
C1177 C1176 1.391 . S
C1178 H1168 0.950 . S
C1178 C1179 1.386 . S
C1178 C1180 1.391 . S
C1179 C1178 1.386 . S
C1179 C1183 1.393 . S
C1180 H1169 0.950 . S
C1180 C1178 1.391 . S
C1180 C1181 1.400 . S
C1181 C1175 1.491 . S
C1181 C1180 1.400 . S
C1181 C1182 1.398 . S
C1182 H1170 0.950 . S
C1182 C1181 1.398 . S
C1182 C1183 1.391 . S
C1183 H1171 0.950 . S
C1183 C1179 1.393 . S
C1183 C1182 1.391 . S
H1184 C1192 0.950 . S
H1185 C1197 0.950 . S
H1186 C1194 0.950 . S
H1187 C1196 0.950 . S
H1188 C1198 0.950 . S
H1189 C1200 0.950 . S
H1190 C1202 0.950 . S
H1191 C1203 0.950 . S
C1192 H1184 0.950 . S
C1192 C1193 1.386 . S
C1192 C1194 1.391 . S
C1193 C1192 1.386 . S
C1193 C1197 1.393 . S
C1194 H1186 0.950 . S
C1194 C1192 1.391 . S
C1194 C1195 1.400 . S
C1195 C1194 1.400 . S
C1195 C1196 1.398 . S
C1195 C1201 1.491 . S
C1196 H1187 0.950 . S
C1196 C1195 1.398 . S
C1196 C1197 1.391 . S
C1197 H1185 0.950 . S
C1197 C1193 1.393 . S
C1197 C1196 1.391 . S
C1198 H1188 0.950 . S
C1198 C1199 1.386 . S
C1198 C1200 1.391 . S
C1199 C1198 1.386 . S
C1199 C1203 1.393 . S
C1200 H1189 0.950 . S
C1200 C1198 1.391 . S
C1200 C1201 1.400 . S
C1201 C1195 1.491 . S
C1201 C1200 1.400 . S
C1201 C1202 1.398 . S
C1202 H1190 0.950 . S
C1202 C1201 1.398 . S
C1202 C1203 1.391 . S
C1203 H1191 0.950 . S
C1203 C1199 1.393 . S
C1203 C1202 1.391 . S
H1204 C1212 0.950 . S
H1205 C1217 0.950 . S
H1206 C1214 0.950 . S
H1207 C1216 0.950 . S
H1208 C1218 0.950 . S
H1209 C1220 0.950 . S
H1210 C1222 0.950 . S
H1211 C1223 0.950 . S
C1212 H1204 0.950 . S
C1212 C1213 1.386 . S
C1212 C1214 1.391 . S
C1213 C1212 1.386 . S
C1213 C1217 1.393 . S
C1214 H1206 0.950 . S
C1214 C1212 1.391 . S
C1214 C1215 1.400 . S
C1215 C1214 1.400 . S
C1215 C1216 1.398 . S
C1215 C1221 1.491 . S
C1216 H1207 0.950 . S
C1216 C1215 1.398 . S
C1216 C1217 1.391 . S
C1217 H1205 0.950 . S
C1217 C1213 1.393 . S
C1217 C1216 1.391 . S
C1218 H1208 0.950 . S
C1218 C1219 1.386 . S
C1218 C1220 1.391 . S
C1219 C1218 1.386 . S
C1219 C1223 1.393 . S
C1220 H1209 0.950 . S
C1220 C1218 1.391 . S
C1220 C1221 1.400 . S
C1221 C1215 1.491 . S
C1221 C1220 1.400 . S
C1221 C1222 1.398 . S
C1222 H1210 0.950 . S
C1222 C1221 1.398 . S
C1222 C1223 1.391 . S
C1223 H1211 0.950 . S
C1223 C1219 1.393 . S
C1223 C1222 1.391 . S
H1224 C1232 0.950 . S
H1225 C1237 0.950 . S
H1226 C1234 0.950 . S
H1227 C1236 0.950 . S
H1228 C1238 0.950 . S
H1229 C1240 0.950 . S
H1230 C1242 0.950 . S
H1231 C1243 0.950 . S
C1232 H1224 0.950 . S
C1232 C1233 1.386 . S
C1232 C1234 1.391 . S
C1233 C1232 1.386 . S
C1233 C1237 1.393 . S
C1234 H1226 0.950 . S
C1234 C1232 1.391 . S
C1234 C1235 1.400 . S
C1235 C1234 1.400 . S
C1235 C1236 1.398 . S
C1235 C1241 1.491 . S
C1236 H1227 0.950 . S
C1236 C1235 1.398 . S
C1236 C1237 1.391 . S
C1237 H1225 0.950 . S
C1237 C1233 1.393 . S
C1237 C1236 1.391 . S
C1238 H1228 0.950 . S
C1238 C1239 1.386 . S
C1238 C1240 1.391 . S
C1239 C1238 1.386 . S
C1239 C1243 1.393 . S
C1240 H1229 0.950 . S
C1240 C1238 1.391 . S
C1240 C1241 1.400 . S
C1241 C1235 1.491 . S
C1241 C1240 1.400 . S
C1241 C1242 1.398 . S
C1242 H1230 0.950 . S
C1242 C1241 1.398 . S
C1242 C1243 1.391 . S
C1243 H1231 0.950 . S
C1243 C1239 1.393 . S
C1243 C1242 1.391 . S
H1244 C1252 0.950 . S
H1245 C1257 0.950 . S
H1246 C1254 0.950 . S
H1247 C1256 0.950 . S
H1248 C1258 0.950 . S
H1249 C1260 0.950 . S
H1250 C1262 0.950 . S
H1251 C1263 0.950 . S
C1252 H1244 0.950 . S
C1252 C1253 1.386 . S
C1252 C1254 1.391 . S
C1253 C1252 1.386 . S
C1253 C1257 1.393 . S
C1254 H1246 0.950 . S
C1254 C1252 1.391 . S
C1254 C1255 1.400 . S
C1255 C1254 1.400 . S
C1255 C1256 1.398 . S
C1255 C1261 1.491 . S
C1256 H1247 0.950 . S
C1256 C1255 1.398 . S
C1256 C1257 1.391 . S
C1257 H1245 0.950 . S
C1257 C1253 1.393 . S
C1257 C1256 1.391 . S
C1258 H1248 0.950 . S
C1258 C1259 1.386 . S
C1258 C1260 1.391 . S
C1259 C1258 1.386 . S
C1259 C1263 1.393 . S
C1260 H1249 0.950 . S
C1260 C1258 1.391 . S
C1260 C1261 1.400 . S
C1261 C1255 1.491 . S
C1261 C1260 1.400 . S
C1261 C1262 1.398 . S
C1262 H1250 0.950 . S
C1262 C1261 1.398 . S
C1262 C1263 1.391 . S
C1263 H1251 0.950 . S
C1263 C1259 1.393 . S
C1263 C1262 1.391 . S
H1264 C1272 0.950 . S
H1265 C1277 0.950 . S
H1266 C1274 0.950 . S
H1267 C1276 0.950 . S
H1268 C1278 0.950 . S
H1269 C1280 0.950 . S
H1270 C1282 0.950 . S
H1271 C1283 0.950 . S
C1272 H1264 0.950 . S
C1272 C1273 1.386 . S
C1272 C1274 1.391 . S
C1273 C1272 1.386 . S
C1273 C1277 1.393 . S
C1274 H1266 0.950 . S
C1274 C1272 1.391 . S
C1274 C1275 1.400 . S
C1275 C1274 1.400 . S
C1275 C1276 1.398 . S
C1275 C1281 1.491 . S
C1276 H1267 0.950 . S
C1276 C1275 1.398 . S
C1276 C1277 1.391 . S
C1277 H1265 0.950 . S
C1277 C1273 1.393 . S
C1277 C1276 1.391 . S
C1278 H1268 0.950 . S
C1278 C1279 1.386 . S
C1278 C1280 1.391 . S
C1279 C1278 1.386 . S
C1279 C1283 1.393 . S
C1280 H1269 0.950 . S
C1280 C1278 1.391 . S
C1280 C1281 1.400 . S
C1281 C1275 1.491 . S
C1281 C1280 1.400 . S
C1281 C1282 1.398 . S
C1282 H1270 0.950 . S
C1282 C1281 1.398 . S
C1282 C1283 1.391 . S
C1283 H1271 0.950 . S
C1283 C1279 1.393 . S
C1283 C1282 1.391 . S
H1284 C1292 0.950 . S
H1285 C1297 0.950 . S
H1286 C1294 0.950 . S
H1287 C1296 0.950 . S
H1288 C1298 0.950 . S
H1289 C1300 0.950 . S
H1290 C1302 0.950 . S
H1291 C1303 0.950 . S
C1292 H1284 0.950 . S
C1292 C1293 1.386 . S
C1292 C1294 1.391 . S
C1293 C1292 1.386 . S
C1293 C1297 1.393 . S
C1294 H1286 0.950 . S
C1294 C1292 1.391 . S
C1294 C1295 1.400 . S
C1295 C1294 1.400 . S
C1295 C1296 1.398 . S
C1295 C1301 1.491 . S
C1296 H1287 0.950 . S
C1296 C1295 1.398 . S
C1296 C1297 1.391 . S
C1297 H1285 0.950 . S
C1297 C1293 1.393 . S
C1297 C1296 1.391 . S
C1298 H1288 0.950 . S
C1298 C1299 1.386 . S
C1298 C1300 1.391 . S
C1299 C1298 1.386 . S
C1299 C1303 1.393 . S
C1300 H1289 0.950 . S
C1300 C1298 1.391 . S
C1300 C1301 1.400 . S
C1301 C1295 1.491 . S
C1301 C1300 1.400 . S
C1301 C1302 1.398 . S
C1302 H1290 0.950 . S
C1302 C1301 1.398 . S
C1302 C1303 1.391 . S
C1303 H1291 0.950 . S
C1303 C1299 1.393 . S
C1303 C1302 1.391 . S
H1304 C1312 0.950 . S
H1305 C1317 0.950 . S
H1306 C1314 0.950 . S
H1307 C1316 0.950 . S
H1308 C1318 0.950 . S
H1309 C1320 0.950 . S
H1310 C1322 0.950 . S
H1311 C1323 0.950 . S
C1312 H1304 0.950 . S
C1312 C1313 1.386 . S
C1312 C1314 1.391 . S
C1313 C1312 1.386 . S
C1313 C1317 1.393 . S
C1314 H1306 0.950 . S
C1314 C1312 1.391 . S
C1314 C1315 1.400 . S
C1315 C1314 1.400 . S
C1315 C1316 1.398 . S
C1315 C1321 1.491 . S
C1316 H1307 0.950 . S
C1316 C1315 1.398 . S
C1316 C1317 1.391 . S
C1317 H1305 0.950 . S
C1317 C1313 1.393 . S
C1317 C1316 1.391 . S
C1318 H1308 0.950 . S
C1318 C1319 1.386 . S
C1318 C1320 1.391 . S
C1319 C1318 1.386 . S
C1319 C1323 1.393 . S
C1320 H1309 0.950 . S
C1320 C1318 1.391 . S
C1320 C1321 1.400 . S
C1321 C1315 1.491 . S
C1321 C1320 1.400 . S
C1321 C1322 1.398 . S
C1322 H1310 0.950 . S
C1322 C1321 1.398 . S
C1322 C1323 1.391 . S
C1323 H1311 0.950 . S
C1323 C1319 1.393 . S
C1323 C1322 1.391 . S
H1324 C1332 0.950 . S
H1325 C1337 0.950 . S
H1326 C1334 0.950 . S
H1327 C1336 0.950 . S
H1328 C1338 0.950 . S
H1329 C1340 0.950 . S
H1330 C1342 0.950 . S
H1331 C1343 0.950 . S
C1332 H1324 0.950 . S
C1332 C1333 1.386 . S
C1332 C1334 1.391 . S
C1333 C1332 1.386 . S
C1333 C1337 1.393 . S
C1334 H1326 0.950 . S
C1334 C1332 1.391 . S
C1334 C1335 1.400 . S
C1335 C1334 1.400 . S
C1335 C1336 1.398 . S
C1335 C1341 1.491 . S
C1336 H1327 0.950 . S
C1336 C1335 1.398 . S
C1336 C1337 1.391 . S
C1337 H1325 0.950 . S
C1337 C1333 1.393 . S
C1337 C1336 1.391 . S
C1338 H1328 0.950 . S
C1338 C1339 1.386 . S
C1338 C1340 1.391 . S
C1339 C1338 1.386 . S
C1339 C1343 1.393 . S
C1340 H1329 0.950 . S
C1340 C1338 1.391 . S
C1340 C1341 1.400 . S
C1341 C1335 1.491 . S
C1341 C1340 1.400 . S
C1341 C1342 1.398 . S
C1342 H1330 0.950 . S
C1342 C1341 1.398 . S
C1342 C1343 1.391 . S
C1343 H1331 0.950 . S
C1343 C1339 1.393 . S
C1343 C1342 1.391 . S
H1344 C1352 0.950 . S
H1345 C1357 0.950 . S
H1346 C1354 0.950 . S
H1347 C1356 0.950 . S
H1348 C1358 0.950 . S
H1349 C1360 0.950 . S
H1350 C1362 0.950 . S
H1351 C1363 0.950 . S
C1352 H1344 0.950 . S
C1352 C1353 1.386 . S
C1352 C1354 1.391 . S
C1353 C1352 1.386 . S
C1353 C1357 1.393 . S
C1354 H1346 0.950 . S
C1354 C1352 1.391 . S
C1354 C1355 1.400 . S
C1355 C1354 1.400 . S
C1355 C1356 1.398 . S
C1355 C1361 1.491 . S
C1356 H1347 0.950 . S
C1356 C1355 1.398 . S
C1356 C1357 1.391 . S
C1357 H1345 0.950 . S
C1357 C1353 1.393 . S
C1357 C1356 1.391 . S
C1358 H1348 0.950 . S
C1358 C1359 1.386 . S
C1358 C1360 1.391 . S
C1359 C1358 1.386 . S
C1359 C1363 1.393 . S
C1360 H1349 0.950 . S
C1360 C1358 1.391 . S
C1360 C1361 1.400 . S
C1361 C1355 1.491 . S
C1361 C1360 1.400 . S
C1361 C1362 1.398 . S
C1362 H1350 0.950 . S
C1362 C1361 1.398 . S
C1362 C1363 1.391 . S
C1363 H1351 0.950 . S
C1363 C1359 1.393 . S
C1363 C1362 1.391 . S
H1364 C1372 0.950 . S
H1365 C1377 0.950 . S
H1366 C1374 0.950 . S
H1367 C1376 0.950 . S
H1368 C1378 0.950 . S
H1369 C1380 0.950 . S
H1370 C1382 0.950 . S
H1371 C1383 0.950 . S
C1372 H1364 0.950 . S
C1372 C1373 1.386 . S
C1372 C1374 1.391 . S
C1373 C1372 1.386 . S
C1373 C1377 1.393 . S
C1374 H1366 0.950 . S
C1374 C1372 1.391 . S
C1374 C1375 1.400 . S
C1375 C1374 1.400 . S
C1375 C1376 1.398 . S
C1375 C1381 1.491 . S
C1376 H1367 0.950 . S
C1376 C1375 1.398 . S
C1376 C1377 1.391 . S
C1377 H1365 0.950 . S
C1377 C1373 1.393 . S
C1377 C1376 1.391 . S
C1378 H1368 0.950 . S
C1378 C1379 1.386 . S
C1378 C1380 1.391 . S
C1379 C1378 1.386 . S
C1379 C1383 1.393 . S
C1380 H1369 0.950 . S
C1380 C1378 1.391 . S
C1380 C1381 1.400 . S
C1381 C1375 1.491 . S
C1381 C1380 1.400 . S
C1381 C1382 1.398 . S
C1382 H1370 0.950 . S
C1382 C1381 1.398 . S
C1382 C1383 1.391 . S
C1383 H1371 0.950 . S
C1383 C1379 1.393 . S
C1383 C1382 1.391 . S
H1384 C1392 0.950 . S
H1385 C1397 0.950 . S
H1386 C1394 0.950 . S
H1387 C1396 0.950 . S
H1388 C1398 0.950 . S
H1389 C1400 0.950 . S
H1390 C1402 0.950 . S
H1391 C1403 0.950 . S
C1392 H1384 0.950 . S
C1392 C1393 1.386 . S
C1392 C1394 1.391 . S
C1393 C1392 1.386 . S
C1393 C1397 1.393 . S
C1394 H1386 0.950 . S
C1394 C1392 1.391 . S
C1394 C1395 1.400 . S
C1395 C1394 1.400 . S
C1395 C1396 1.398 . S
C1395 C1401 1.491 . S
C1396 H1387 0.950 . S
C1396 C1395 1.398 . S
C1396 C1397 1.391 . S
C1397 H1385 0.950 . S
C1397 C1393 1.393 . S
C1397 C1396 1.391 . S
C1398 H1388 0.950 . S
C1398 C1399 1.386 . S
C1398 C1400 1.391 . S
C1399 C1398 1.386 . S
C1399 C1403 1.393 . S
C1400 H1389 0.950 . S
C1400 C1398 1.391 . S
C1400 C1401 1.400 . S
C1401 C1395 1.491 . S
C1401 C1400 1.400 . S
C1401 C1402 1.398 . S
C1402 H1390 0.950 . S
C1402 C1401 1.398 . S
C1402 C1403 1.391 . S
C1403 H1391 0.950 . S
C1403 C1399 1.393 . S
C1403 C1402 1.391 . S
H1404 C1412 0.950 . S
H1405 C1417 0.950 . S
H1406 C1414 0.950 . S
H1407 C1416 0.950 . S
H1408 C1418 0.950 . S
H1409 C1420 0.950 . S
H1410 C1422 0.950 . S
H1411 C1423 0.950 . S
C1412 H1404 0.950 . S
C1412 C1413 1.386 . S
C1412 C1414 1.391 . S
C1413 C1412 1.386 . S
C1413 C1417 1.393 . S
C1414 H1406 0.950 . S
C1414 C1412 1.391 . S
C1414 C1415 1.400 . S
C1415 C1414 1.400 . S
C1415 C1416 1.398 . S
C1415 C1421 1.491 . S
C1416 H1407 0.950 . S
C1416 C1415 1.398 . S
C1416 C1417 1.391 . S
C1417 H1405 0.950 . S
C1417 C1413 1.393 . S
C1417 C1416 1.391 . S
C1418 H1408 0.950 . S
C1418 C1419 1.386 . S
C1418 C1420 1.391 . S
C1419 C1418 1.386 . S
C1419 C1423 1.393 . S
C1420 H1409 0.950 . S
C1420 C1418 1.391 . S
C1420 C1421 1.400 . S
C1421 C1415 1.491 . S
C1421 C1420 1.400 . S
C1421 C1422 1.398 . S
C1422 H1410 0.950 . S
C1422 C1421 1.398 . S
C1422 C1423 1.391 . S
C1423 H1411 0.950 . S
C1423 C1419 1.393 . S
C1423 C1422 1.391 . S
H1424 C1432 0.950 . S
H1425 C1437 0.950 . S
H1426 C1434 0.950 . S
H1427 C1436 0.950 . S
H1428 C1438 0.950 . S
H1429 C1440 0.950 . S
H1430 C1442 0.950 . S
H1431 C1443 0.950 . S
C1432 H1424 0.950 . S
C1432 C1433 1.386 . S
C1432 C1434 1.391 . S
C1433 C1432 1.386 . S
C1433 C1437 1.393 . S
C1434 H1426 0.950 . S
C1434 C1432 1.391 . S
C1434 C1435 1.400 . S
C1435 C1434 1.400 . S
C1435 C1436 1.398 . S
C1435 C1441 1.491 . S
C1436 H1427 0.950 . S
C1436 C1435 1.398 . S
C1436 C1437 1.391 . S
C1437 H1425 0.950 . S
C1437 C1433 1.393 . S
C1437 C1436 1.391 . S
C1438 H1428 0.950 . S
C1438 C1439 1.386 . S
C1438 C1440 1.391 . S
C1439 C1438 1.386 . S
C1439 C1443 1.393 . S
C1440 H1429 0.950 . S
C1440 C1438 1.391 . S
C1440 C1441 1.400 . S
C1441 C1435 1.491 . S
C1441 C1440 1.400 . S
C1441 C1442 1.398 . S
C1442 H1430 0.950 . S
C1442 C1441 1.398 . S
C1442 C1443 1.391 . S
C1443 H1431 0.950 . S
C1443 C1439 1.393 . S
C1443 C1442 1.391 . S
H1444 C1452 0.950 . S
H1445 C1457 0.950 . S
H1446 C1454 0.950 . S
H1447 C1456 0.950 . S
H1448 C1458 0.950 . S
H1449 C1460 0.950 . S
H1450 C1462 0.950 . S
H1451 C1463 0.950 . S
C1452 H1444 0.950 . S
C1452 C1453 1.386 . S
C1452 C1454 1.391 . S
C1453 C1452 1.386 . S
C1453 C1457 1.393 . S
C1454 H1446 0.950 . S
C1454 C1452 1.391 . S
C1454 C1455 1.400 . S
C1455 C1454 1.400 . S
C1455 C1456 1.398 . S
C1455 C1461 1.491 . S
C1456 H1447 0.950 . S
C1456 C1455 1.398 . S
C1456 C1457 1.391 . S
C1457 H1445 0.950 . S
C1457 C1453 1.393 . S
C1457 C1456 1.391 . S
C1458 H1448 0.950 . S
C1458 C1459 1.386 . S
C1458 C1460 1.391 . S
C1459 C1458 1.386 . S
C1459 C1463 1.393 . S
C1460 H1449 0.950 . S
C1460 C1458 1.391 . S
C1460 C1461 1.400 . S
C1461 C1455 1.491 . S
C1461 C1460 1.400 . S
C1461 C1462 1.398 . S
C1462 H1450 0.950 . S
C1462 C1461 1.398 . S
C1462 C1463 1.391 . S
C1463 H1451 0.950 . S
C1463 C1459 1.393 . S
C1463 C1462 1.391 . S
H1464 C1472 0.950 . S
H1465 C1477 0.950 . S
H1466 C1474 0.950 . S
H1467 C1476 0.950 . S
H1468 C1478 0.950 . S
H1469 C1480 0.950 . S
H1470 C1482 0.950 . S
H1471 C1483 0.950 . S
C1472 H1464 0.950 . S
C1472 C1473 1.386 . S
C1472 C1474 1.391 . S
C1473 C1472 1.386 . S
C1473 C1477 1.393 . S
C1474 H1466 0.950 . S
C1474 C1472 1.391 . S
C1474 C1475 1.400 . S
C1475 C1474 1.400 . S
C1475 C1476 1.398 . S
C1475 C1481 1.491 . S
C1476 H1467 0.950 . S
C1476 C1475 1.398 . S
C1476 C1477 1.391 . S
C1477 H1465 0.950 . S
C1477 C1473 1.393 . S
C1477 C1476 1.391 . S
C1478 H1468 0.950 . S
C1478 C1479 1.386 . S
C1478 C1480 1.391 . S
C1479 C1478 1.386 . S
C1479 C1483 1.393 . S
C1480 H1469 0.950 . S
C1480 C1478 1.391 . S
C1480 C1481 1.400 . S
C1481 C1475 1.491 . S
C1481 C1480 1.400 . S
C1481 C1482 1.398 . S
C1482 H1470 0.950 . S
C1482 C1481 1.398 . S
C1482 C1483 1.391 . S
C1483 H1471 0.950 . S
C1483 C1479 1.393 . S
C1483 C1482 1.391 . S
H1484 C1492 0.950 . S
H1485 C1497 0.950 . S
H1486 C1494 0.950 . S
H1487 C1496 0.950 . S
H1488 C1498 0.950 . S
H1489 C1500 0.950 . S
H1490 C1502 0.950 . S
H1491 C1503 0.950 . S
C1492 H1484 0.950 . S
C1492 C1493 1.386 . S
C1492 C1494 1.391 . S
C1493 C1492 1.386 . S
C1493 C1497 1.393 . S
C1494 H1486 0.950 . S
C1494 C1492 1.391 . S
C1494 C1495 1.400 . S
C1495 C1494 1.400 . S
C1495 C1496 1.398 . S
C1495 C1501 1.491 . S
C1496 H1487 0.950 . S
C1496 C1495 1.398 . S
C1496 C1497 1.391 . S
C1497 H1485 0.950 . S
C1497 C1493 1.393 . S
C1497 C1496 1.391 . S
C1498 H1488 0.950 . S
C1498 C1499 1.386 . S
C1498 C1500 1.391 . S
C1499 C1498 1.386 . S
C1499 C1503 1.393 . S
C1500 H1489 0.950 . S
C1500 C1498 1.391 . S
C1500 C1501 1.400 . S
C1501 C1495 1.491 . S
C1501 C1500 1.400 . S
C1501 C1502 1.398 . S
C1502 H1490 0.950 . S
C1502 C1501 1.398 . S
C1502 C1503 1.391 . S
C1503 H1491 0.950 . S
C1503 C1499 1.393 . S
C1503 C1502 1.391 . S
H1504 C1512 0.950 . S
H1505 C1517 0.950 . S
H1506 C1514 0.950 . S
H1507 C1516 0.950 . S
H1508 C1518 0.950 . S
H1509 C1520 0.950 . S
H1510 C1522 0.950 . S
H1511 C1523 0.950 . S
C1512 H1504 0.950 . S
C1512 C1513 1.386 . S
C1512 C1514 1.391 . S
C1513 C1512 1.386 . S
C1513 C1517 1.393 . S
C1514 H1506 0.950 . S
C1514 C1512 1.391 . S
C1514 C1515 1.400 . S
C1515 C1514 1.400 . S
C1515 C1516 1.398 . S
C1515 C1521 1.491 . S
C1516 H1507 0.950 . S
C1516 C1515 1.398 . S
C1516 C1517 1.391 . S
C1517 H1505 0.950 . S
C1517 C1513 1.393 . S
C1517 C1516 1.391 . S
C1518 H1508 0.950 . S
C1518 C1519 1.386 . S
C1518 C1520 1.391 . S
C1519 C1518 1.386 . S
C1519 C1523 1.393 . S
C1520 H1509 0.950 . S
C1520 C1518 1.391 . S
C1520 C1521 1.400 . S
C1521 C1515 1.491 . S
C1521 C1520 1.400 . S
C1521 C1522 1.398 . S
C1522 H1510 0.950 . S
C1522 C1521 1.398 . S
C1522 C1523 1.391 . S
C1523 H1511 0.950 . S
C1523 C1519 1.393 . S
C1523 C1522 1.391 . S
H1524 C1532 0.950 . S
H1525 C1537 0.950 . S
H1526 C1534 0.950 . S
H1527 C1536 0.950 . S
H1528 C1538 0.950 . S
H1529 C1540 0.950 . S
H1530 C1542 0.950 . S
H1531 C1543 0.950 . S
C1532 H1524 0.950 . S
C1532 C1533 1.386 . S
C1532 C1534 1.391 . S
C1533 C1532 1.386 . S
C1533 C1537 1.393 . S
C1534 H1526 0.950 . S
C1534 C1532 1.391 . S
C1534 C1535 1.400 . S
C1535 C1534 1.400 . S
C1535 C1536 1.398 . S
C1535 C1541 1.491 . S
C1536 H1527 0.950 . S
C1536 C1535 1.398 . S
C1536 C1537 1.391 . S
C1537 H1525 0.950 . S
C1537 C1533 1.393 . S
C1537 C1536 1.391 . S
C1538 H1528 0.950 . S
C1538 C1539 1.386 . S
C1538 C1540 1.391 . S
C1539 C1538 1.386 . S
C1539 C1543 1.393 . S
C1540 H1529 0.950 . S
C1540 C1538 1.391 . S
C1540 C1541 1.400 . S
C1541 C1535 1.491 . S
C1541 C1540 1.400 . S
C1541 C1542 1.398 . S
C1542 H1530 0.950 . S
C1542 C1541 1.398 . S
C1542 C1543 1.391 . S
C1543 H1531 0.950 . S
C1543 C1539 1.393 . S
C1543 C1542 1.391 . S
H1544 C1552 0.950 . S
H1545 C1557 0.950 . S
H1546 C1554 0.950 . S
H1547 C1556 0.950 . S
H1548 C1558 0.950 . S
H1549 C1560 0.950 . S
H1550 C1562 0.950 . S
H1551 C1563 0.950 . S
C1552 H1544 0.950 . S
C1552 C1553 1.386 . S
C1552 C1554 1.391 . S
C1553 C1552 1.386 . S
C1553 C1557 1.393 . S
C1554 H1546 0.950 . S
C1554 C1552 1.391 . S
C1554 C1555 1.400 . S
C1555 C1554 1.400 . S
C1555 C1556 1.398 . S
C1555 C1561 1.491 . S
C1556 H1547 0.950 . S
C1556 C1555 1.398 . S
C1556 C1557 1.391 . S
C1557 H1545 0.950 . S
C1557 C1553 1.393 . S
C1557 C1556 1.391 . S
C1558 H1548 0.950 . S
C1558 C1559 1.386 . S
C1558 C1560 1.391 . S
C1559 C1558 1.386 . S
C1559 C1563 1.393 . S
C1560 H1549 0.950 . S
C1560 C1558 1.391 . S
C1560 C1561 1.400 . S
C1561 C1555 1.491 . S
C1561 C1560 1.400 . S
C1561 C1562 1.398 . S
C1562 H1550 0.950 . S
C1562 C1561 1.398 . S
C1562 C1563 1.391 . S
C1563 H1551 0.950 . S
C1563 C1559 1.393 . S
C1563 C1562 1.391 . S
H1564 C1572 0.950 . S
H1565 C1577 0.950 . S
H1566 C1574 0.950 . S
H1567 C1576 0.950 . S
H1568 C1578 0.950 . S
H1569 C1580 0.950 . S
H1570 C1582 0.950 . S
H1571 C1583 0.950 . S
C1572 H1564 0.950 . S
C1572 C1573 1.386 . S
C1572 C1574 1.391 . S
C1573 C1572 1.386 . S
C1573 C1577 1.393 . S
C1574 H1566 0.950 . S
C1574 C1572 1.391 . S
C1574 C1575 1.400 . S
C1575 C1574 1.400 . S
C1575 C1576 1.398 . S
C1575 C1581 1.491 . S
C1576 H1567 0.950 . S
C1576 C1575 1.398 . S
C1576 C1577 1.391 . S
C1577 H1565 0.950 . S
C1577 C1573 1.393 . S
C1577 C1576 1.391 . S
C1578 H1568 0.950 . S
C1578 C1579 1.386 . S
C1578 C1580 1.391 . S
C1579 C1578 1.386 . S
C1579 C1583 1.393 . S
C1580 H1569 0.950 . S
C1580 C1578 1.391 . S
C1580 C1581 1.400 . S
C1581 C1575 1.491 . S
C1581 C1580 1.400 . S
C1581 C1582 1.398 . S
C1582 H1570 0.950 . S
C1582 C1581 1.398 . S
C1582 C1583 1.391 . S
C1583 H1571 0.950 . S
C1583 C1579 1.393 . S
C1583 C1582 1.391 . S
H1584 C1592 0.950 . S
H1585 C1597 0.950 . S
H1586 C1594 0.950 . S
H1587 C1596 0.950 . S
H1588 C1598 0.950 . S
H1589 C1600 0.950 . S
H1590 C1602 0.950 . S
H1591 C1603 0.950 . S
C1592 H1584 0.950 . S
C1592 C1593 1.386 . S
C1592 C1594 1.391 . S
C1593 C1592 1.386 . S
C1593 C1597 1.393 . S
C1594 H1586 0.950 . S
C1594 C1592 1.391 . S
C1594 C1595 1.400 . S
C1595 C1594 1.400 . S
C1595 C1596 1.398 . S
C1595 C1601 1.491 . S
C1596 H1587 0.950 . S
C1596 C1595 1.398 . S
C1596 C1597 1.391 . S
C1597 H1585 0.950 . S
C1597 C1593 1.393 . S
C1597 C1596 1.391 . S
C1598 H1588 0.950 . S
C1598 C1599 1.386 . S
C1598 C1600 1.391 . S
C1599 C1598 1.386 . S
C1599 C1603 1.393 . S
C1600 H1589 0.950 . S
C1600 C1598 1.391 . S
C1600 C1601 1.400 . S
C1601 C1595 1.491 . S
C1601 C1600 1.400 . S
C1601 C1602 1.398 . S
C1602 H1590 0.950 . S
C1602 C1601 1.398 . S
C1602 C1603 1.391 . S
C1603 H1591 0.950 . S
C1603 C1599 1.393 . S
C1603 C1602 1.391 . S
H1604 C1612 0.950 . S
H1605 C1617 0.950 . S
H1606 C1614 0.950 . S
H1607 C1616 0.950 . S
H1608 C1618 0.950 . S
H1609 C1620 0.950 . S
H1610 C1622 0.950 . S
H1611 C1623 0.950 . S
C1612 H1604 0.950 . S
C1612 C1613 1.386 . S
C1612 C1614 1.391 . S
C1613 C1612 1.386 . S
C1613 C1617 1.393 . S
C1614 H1606 0.950 . S
C1614 C1612 1.391 . S
C1614 C1615 1.400 . S
C1615 C1614 1.400 . S
C1615 C1616 1.398 . S
C1615 C1621 1.491 . S
C1616 H1607 0.950 . S
C1616 C1615 1.398 . S
C1616 C1617 1.391 . S
C1617 H1605 0.950 . S
C1617 C1613 1.393 . S
C1617 C1616 1.391 . S
C1618 H1608 0.950 . S
C1618 C1619 1.386 . S
C1618 C1620 1.391 . S
C1619 C1618 1.386 . S
C1619 C1623 1.393 . S
C1620 H1609 0.950 . S
C1620 C1618 1.391 . S
C1620 C1621 1.400 . S
C1621 C1615 1.491 . S
C1621 C1620 1.400 . S
C1621 C1622 1.398 . S
C1622 H1610 0.950 . S
C1622 C1621 1.398 . S
C1622 C1623 1.391 . S
C1623 H1611 0.950 . S
C1623 C1619 1.393 . S
C1623 C1622 1.391 . S
H1624 C1632 0.950 . S
H1625 C1637 0.950 . S
H1626 C1634 0.950 . S
H1627 C1636 0.950 . S
H1628 C1638 0.950 . S
H1629 C1640 0.950 . S
H1630 C1642 0.950 . S
H1631 C1643 0.950 . S
C1632 H1624 0.950 . S
C1632 C1633 1.386 . S
C1632 C1634 1.391 . S
C1633 C1632 1.386 . S
C1633 C1637 1.393 . S
C1634 H1626 0.950 . S
C1634 C1632 1.391 . S
C1634 C1635 1.400 . S
C1635 C1634 1.400 . S
C1635 C1636 1.398 . S
C1635 C1641 1.491 . S
C1636 H1627 0.950 . S
C1636 C1635 1.398 . S
C1636 C1637 1.391 . S
C1637 H1625 0.950 . S
C1637 C1633 1.393 . S
C1637 C1636 1.391 . S
C1638 H1628 0.950 . S
C1638 C1639 1.386 . S
C1638 C1640 1.391 . S
C1639 C1638 1.386 . S
C1639 C1643 1.393 . S
C1640 H1629 0.950 . S
C1640 C1638 1.391 . S
C1640 C1641 1.400 . S
C1641 C1635 1.491 . S
C1641 C1640 1.400 . S
C1641 C1642 1.398 . S
C1642 H1630 0.950 . S
C1642 C1641 1.398 . S
C1642 C1643 1.391 . S
C1643 H1631 0.950 . S
C1643 C1639 1.393 . S
C1643 C1642 1.391 . S
H1644 C1652 0.950 . S
H1645 C1657 0.950 . S
H1646 C1654 0.950 . S
H1647 C1656 0.950 . S
H1648 C1658 0.950 . S
H1649 C1660 0.950 . S
H1650 C1662 0.950 . S
H1651 C1663 0.950 . S
C1652 H1644 0.950 . S
C1652 C1653 1.386 . S
C1652 C1654 1.391 . S
C1653 C1652 1.386 . S
C1653 C1657 1.393 . S
C1654 H1646 0.950 . S
C1654 C1652 1.391 . S
C1654 C1655 1.400 . S
C1655 C1654 1.400 . S
C1655 C1656 1.398 . S
C1655 C1661 1.491 . S
C1656 H1647 0.950 . S
C1656 C1655 1.398 . S
C1656 C1657 1.391 . S
C1657 H1645 0.950 . S
C1657 C1653 1.393 . S
C1657 C1656 1.391 . S
C1658 H1648 0.950 . S
C1658 C1659 1.386 . S
C1658 C1660 1.391 . S
C1659 C1658 1.386 . S
C1659 C1663 1.393 . S
C1660 H1649 0.950 . S
C1660 C1658 1.391 . S
C1660 C1661 1.400 . S
C1661 C1655 1.491 . S
C1661 C1660 1.400 . S
C1661 C1662 1.398 . S
C1662 H1650 0.950 . S
C1662 C1661 1.398 . S
C1662 C1663 1.391 . S
C1663 H1651 0.950 . S
C1663 C1659 1.393 . S
C1663 C1662 1.391 . S
C1039 C913 1.518 . S
C1033 C29 1.232 . S
C1059 C939 1.669 . S
C1053 C125 0.936 . S
C1079 C953 1.521 . S
C1073 C257 1.197 . S
C1099 C955 1.671 . S
C1093 C353 0.951 . S
C1113 C457 1.176 . S
C1119 C952 1.480 . S
C1139 C954 1.654 . S
C1133 C625 1.333 . S
C1159 C912 1.478 . S
C1153 C685 1.136 . S
C1179 C938 1.666 . S
C1173 C853 1.280 . S
C1199 C940 1.694 . S
C1193 C809 1.121 . S
C1219 C966 1.507 . S
C1213 C485 1.226 . S
C1239 C924 1.698 . S
C1233 C581 1.128 . S
C1259 C926 1.499 . S
C1253 C713 1.240 . S
C1279 C925 1.685 . S
C1273 C169 1.259 . S
C1299 C927 1.473 . S
C1293 C229 1.119 . S
C1319 C941 1.685 . S
C1313 C397 1.261 . S
C1339 C967 1.470 . S
C1333 C1 1.117 . S
C1359 C969 1.521 . S
C1353 C827 1.203 . S
C1373 C467 0.958 . S
C1379 C995 1.672 . S
C1393 C599 1.200 . S
C1399 C1008 1.522 . S
C1413 C695 0.990 . S
C1419 C1011 1.679 . S
C1433 C115 1.138 . S
C1439 C1009 1.477 . S
C1453 C283 1.284 . S
C1459 C1010 1.665 . S
C1473 C343 1.196 . S
C1479 C968 1.484 . S
C1499 C994 1.666 . S
C1493 C55 1.280 . S
C1519 C997 1.706 . S
C1513 C11 1.066 . S
C1533 C143 1.266 . S
C1539 C1022 1.504 . S
C1553 C239 1.118 . S
C1559 C980 1.705 . S
C1573 C371 1.219 . S
C1579 C982 1.499 . S
C1599 C981 1.674 . S
C1593 C511 1.209 . S
C1619 C983 1.470 . S
C1613 C571 1.179 . S
C1633 C739 1.254 . S
C1639 C996 1.672 . S
C1659 C1023 1.465 . S
C1653 C799 1.148 . S
