# Generated by pormake.
# Topology anh, (6,3)-cn, num edge types: 1
# Building blocks:
#     Node 0, Type 0, BuildingBlock: CUKXOW_clean_sbu_0, # of connection points: 6
#     Node 1, Type 0, BuildingBlock: CUKXOW_clean_sbu_0, # of connection points: 6
#     Node 2, Type 0, BuildingBlock: CUKXOW_clean_sbu_0, # of connection points: 6
#     Node 3, Type 1, BuildingBlock: BETDAH_clean_linker_0, # of connection points: 3
#     Node 4, Type 1, BuildingBlock: BETDAH_clean_linker_0, # of connection points: 3
#     Node 5, Type 1, BuildingBlock: BETDAH_clean_linker_0, # of connection points: 3
#     Node 6, Type 1, BuildingBlock: BETDAH_clean_linker_0, # of connection points: 3
#     Node 7, Type 1, BuildingBlock: BETDAH_clean_linker_0, # of connection points: 3
#     Node 8, Type 1, BuildingBlock: BETDAH_clean_linker_0, # of connection points: 3
#     Edge 9, Type (0, 1), BuildingBlock: MIFKUJ_clean_linker_0, # of connection points: 2
#     Edge 10, Type (0, 1), BuildingBlock: MIFKUJ_clean_linker_0, # of connection points: 2
#     Edge 11, Type (0, 1), BuildingBlock: MIFKUJ_clean_linker_0, # of connection points: 2
#     Edge 12, Type (0, 1), BuildingBlock: MIFKUJ_clean_linker_0, # of connection points: 2
#     Edge 13, Type (0, 1), BuildingBlock: MIFKUJ_clean_linker_0, # of connection points: 2
#     Edge 14, Type (0, 1), BuildingBlock: MIFKUJ_clean_linker_0, # of connection points: 2
#     Edge 15, Type (0, 1), BuildingBlock: MIFKUJ_clean_linker_0, # of connection points: 2
#     Edge 16, Type (0, 1), BuildingBlock: MIFKUJ_clean_linker_0, # of connection points: 2
#     Edge 17, Type (0, 1), BuildingBlock: MIFKUJ_clean_linker_0, # of connection points: 2
#     Edge 18, Type (0, 1), BuildingBlock: MIFKUJ_clean_linker_0, # of connection points: 2
#     Edge 19, Type (0, 1), BuildingBlock: MIFKUJ_clean_linker_0, # of connection points: 2
#     Edge 20, Type (0, 1), BuildingBlock: MIFKUJ_clean_linker_0, # of connection points: 2
#     Edge 21, Type (0, 1), BuildingBlock: MIFKUJ_clean_linker_0, # of connection points: 2
#     Edge 22, Type (0, 1), BuildingBlock: MIFKUJ_clean_linker_0, # of connection points: 2
#     Edge 23, Type (0, 1), BuildingBlock: MIFKUJ_clean_linker_0, # of connection points: 2
#     Edge 24, Type (0, 1), BuildingBlock: MIFKUJ_clean_linker_0, # of connection points: 2
#     Edge 25, Type (0, 1), BuildingBlock: MIFKUJ_clean_linker_0, # of connection points: 2
#     Edge 26, Type (0, 1), BuildingBlock: MIFKUJ_clean_linker_0, # of connection points: 2
# Relax obj value: 0.068
# Max RMSD: 0.140
# Mean RMSD: 0.087
data_MOF--net-anh--node1-CUKXOW_clean_sbu_0--node2-BETDAH_clean_linker_0--edge1-MIFKUJ_clean_linker_0
_symmetry_space_group_name_H-M    P1
_symmetry_Int_Tables_number       1
_symmetry_cell_setting            triclinic
loop_
_symmetry_equiv_pos_as_xyz
'x, y, z'
_cell_length_a     38.555341
_cell_length_b     37.673709
_cell_length_c     63.052791
_cell_angle_alpha  98.46565
_cell_angle_beta   92.297012
_cell_angle_gamma 115.89177
loop_
_atom_site_label
_atom_site_type_symbol
_atom_site_fract_x
_atom_site_fract_y
_atom_site_fract_z
_atom_type_partial_charge
Tb0 Tb 0.07664 0.55013 0.15445 0.0
C1 C 0.04898 0.51424 0.19586 0.0
Tb2 Tb 0.02364 0.45915 0.14969 0.0
O3 O 0.03086 0.57038 0.15122 0.0
O4 O 0.01678 0.51132 0.14996 0.0
O5 O 0.07743 0.54255 0.18804 0.0
C6 C 0.96408 0.38833 0.15026 0.0
O7 O 0.02195 0.48148 0.18334 0.0
C8 C 0.09831 0.47918 0.14691 0.0
C9 C 0.04654 0.4956 0.108 0.0
O10 O 0.99709 0.40328 0.16237 0.0
O11 O 0.96508 0.41291 0.13761 0.0
O12 O 0.06971 0.44496 0.13798 0.0
O13 O 0.08442 0.49871 0.15889 0.0
O14 O 0.0202 0.46629 0.11631 0.0
O15 O 0.07375 0.52905 0.12001 0.0
C16 C 0.13814 0.62125 0.15885 0.0
O17 O 0.13148 0.59029 0.14414 0.0
O18 O 0.11039 0.61204 0.17109 0.0
C19 C 1.0018 0.53498 0.14934 0.0
Tb20 Tb 0.53758 0.04669 0.50389 0.0
C21 C 0.58468 0.07048 0.46577 0.0
Tb22 Tb 0.62225 0.10446 0.51436 0.0
O23 O 0.52495 0.09239 0.49237 0.0
O24 O 0.56975 0.10897 0.51681 0.0
O25 O 0.55692 0.03971 0.47235 0.0
C26 C 0.69053 0.16895 0.51695 0.0
O27 O 0.61015 0.10205 0.47975 0.0
C28 C 0.60598 0.02948 0.51502 0.0
C29 C 0.57547 0.07868 0.55326 0.0
O30 O 0.68318 0.13257 0.5083 0.0
O31 O 0.65962 0.1688 0.52442 0.0
O32 O 0.63523 0.05995 0.52676 0.0
O33 O 0.59003 0.04181 0.50194 0.0
O34 O 0.60834 0.10452 0.54734 0.0
O35 O 0.54502 0.05326 0.53917 0.0
C36 C 0.46677 0.98533 0.49996 0.0
O37 O 0.49712 0.98878 0.51145 0.0
O38 O 0.47641 0.01606 0.49054 0.0
C39 C 0.55403 0.12228 0.50433 0.0
Tb40 Tb 0.54378 0.58726 0.83321 0.0
C41 C 0.58555 0.58966 0.87815 0.0
Tb42 Tb 0.63467 0.60676 0.83801 0.0
O43 O 0.52159 0.52084 0.82733 0.0
O44 O 0.57924 0.55848 0.8314 0.0
O45 O 0.55633 0.59275 0.8679 0.0
C46 C 0.69557 0.59201 0.83408 0.0
O47 O 0.61635 0.59009 0.86899 0.0
C48 C 0.62377 0.67215 0.84308 0.0
C49 C 0.59405 0.61055 0.79409 0.0
O50 O 0.69175 0.61454 0.85068 0.0
O51 O 0.6652 0.57794 0.81993 0.0
O52 O 0.65801 0.673 0.84421 0.0
O53 O 0.59946 0.63586 0.83993 0.0
O54 O 0.62287 0.60611 0.80378 0.0
O55 O 0.56326 0.60908 0.80352 0.0
C56 C 0.47575 0.58918 0.83078 0.0
O57 O 0.48872 0.57345 0.81525 0.0
O58 O 0.50153 0.6046 0.84773 0.0
C59 C 0.55582 0.52208 0.82849 0.0
H60 H 0.48517 0.98252 0.24135 0.0
H61 H 0.58131 0.08783 0.22797 0.0
H62 H 0.48668 0.01369 0.17851 0.0
C63 C 0.49966 1.00231 0.2303 0.0
C64 C 0.48211 0.99365 0.20906 0.0
C65 C 0.53555 0.03614 0.23738 0.0
C66 C 0.55368 0.0617 0.22278 0.0
C67 C 0.53582 0.05344 0.20151 0.0
C68 C 0.50025 0.01964 0.19488 0.0
N69 N 0.55221 0.07851 0.18628 0.0
C70 C 0.59043 0.10758 0.18834 0.0
H71 H 0.59858 0.52937 0.57412 0.0
H72 H 0.57711 0.62351 0.55546 0.0
H73 H 0.56006 0.52178 0.50768 0.0
C74 C 0.58994 0.54158 0.56155 0.0
C75 C 0.57926 0.52008 0.54018 0.0
C76 C 0.58834 0.57827 0.56723 0.0
C77 C 0.5782 0.59515 0.55108 0.0
C78 C 0.56914 0.57519 0.52945 0.0
C79 C 0.56896 0.53754 0.52424 0.0
N80 N 0.55918 0.59152 0.51257 0.0
C81 C 0.56198 0.63007 0.5149 0.0
H82 H 0.9758 0.46191 0.88391 0.0
H83 H 0.04485 0.40067 0.86716 0.0
H84 H 0.97543 0.41518 0.81721 0.0
C85 C 0.98585 0.44645 0.87164 0.0
C86 C 0.97241 0.44063 0.84978 0.0
C87 C 1.01183 0.43214 0.87799 0.0
C88 C 0.02441 0.41144 0.86234 0.0
C89 C 1.0112 0.40537 0.84038 0.0
C90 C 0.98467 0.41921 0.83422 0.0
N91 N 0.02653 0.38808 0.82421 0.0
C92 C 0.0663 0.40115 0.8251 0.0
H93 H 0.10787 0.643 0.4222 0.0
H94 H 1.00234 0.54514 0.43354 0.0
H95 H 0.07109 0.64247 0.48555 0.0
C96 C 0.08715 0.62852 0.43303 0.0
C97 C 0.09364 0.64682 0.45478 0.0
C98 C 0.05444 0.59174 0.42513 0.0
C99 C 0.02763 0.57348 0.4394 0.0
C100 C 0.03377 0.59197 0.46126 0.0
C101 C 0.06664 0.62842 0.46873 0.0
N102 N 1.0076 0.57531 0.47631 0.0
C103 C 0.97795 0.5364 0.47296 0.0
H104 H 0.56795 0.15046 0.77681 0.0
H105 H 0.58712 0.0512 0.78976 0.0
H106 H 0.59986 0.14543 0.84203 0.0
C107 C 0.57467 0.13494 0.78831 0.0
C108 C 0.58352 0.15229 0.81028 0.0
C109 C 0.57641 0.09888 0.78085 0.0
C110 C 0.58588 0.07909 0.79562 0.0
C111 C 0.59369 0.09546 0.81785 0.0
C112 C 0.59324 0.13246 0.82498 0.0
N113 N 0.60227 0.07585 0.83347 0.0
C114 C 0.60061 0.03771 0.82916 0.0
H115 H 0.6362 0.5293 0.09587 0.0
H116 H 0.52451 0.52446 0.10605 0.0
H117 H 0.58958 0.5026 0.15546 0.0
C118 C 0.61342 0.52542 0.10616 0.0
C119 C 0.61773 0.51662 0.12668 0.0
C120 C 0.5801 0.52831 0.09848 0.0
C121 C 0.55 0.52178 0.11169 0.0
C122 C 0.55298 0.51235 0.13227 0.0
C123 C 0.58691 0.5095 0.13958 0.0
N124 N 0.52285 0.50591 0.14607 0.0
C125 C 0.48803 0.50872 0.14189 0.0
H126 H 0.16449 0.53933 0.17247 0.0
H127 H 0.23187 0.54877 0.17204 0.0
H128 H 0.19419 0.44908 0.11883 0.0
H129 H 0.12745 0.43903 0.11973 0.0
H130 H 0.24 0.44031 0.14478 0.0
H131 H 0.24965 0.55599 0.11635 0.0
H132 H 0.24827 0.62063 0.11552 0.0
H133 H 0.33133 0.67545 0.17221 0.0
H134 H 0.33268 0.61097 0.17365 0.0
H135 H 0.42274 0.46184 0.11364 0.0
H136 H 0.35858 0.46079 0.11441 0.0
H137 H 0.40368 0.5567 0.16983 0.0
H138 H 0.46791 0.55808 0.16875 0.0
H139 H 0.35559 0.56918 0.14472 0.0
H140 H 0.34596 0.45517 0.17363 0.0
H141 H 0.35075 0.39214 0.17419 0.0
H142 H 0.26875 0.33527 0.11711 0.0
H143 H 0.26385 0.39816 0.11606 0.0
C144 C 0.17072 0.51965 0.16061 0.0
C145 C 0.14028 0.48825 0.14621 0.0
C146 C 0.20946 0.52516 0.16027 0.0
C147 C 0.21891 0.49978 0.14531 0.0
C148 C 0.18836 0.46907 0.1307 0.0
C149 C 0.1499 0.4634 0.13117 0.0
C150 C 0.25974 0.50347 0.14512 0.0
C151 C 0.26503 0.46857 0.14445 0.0
C152 C 0.29334 0.54032 0.14546 0.0
C153 C 0.29095 0.5785 0.14523 0.0
C154 C 0.26718 0.58165 0.12883 0.0
C155 C 0.26649 0.6183 0.12822 0.0
C156 C 0.28974 0.65207 0.1438 0.0
C157 C 0.31335 0.64922 0.16017 0.0
C158 C 0.31405 0.61264 0.1609 0.0
C159 C 0.41901 0.48297 0.12583 0.0
C160 C 0.45047 0.51016 0.14107 0.0
C161 C 0.38212 0.48217 0.12641 0.0
C162 C 0.37551 0.50824 0.14242 0.0
C163 C 0.40746 0.53615 0.1573 0.0
C164 C 0.44432 0.53695 0.15668 0.0
C165 C 0.33544 0.50596 0.14393 0.0
C166 C 0.3304 0.54101 0.145 0.0
C167 C 0.30201 0.46934 0.14405 0.0
C168 C 0.30484 0.43148 0.14465 0.0
C169 C 0.32917 0.4293 0.16111 0.0
C170 C 0.33187 0.39359 0.16153 0.0
C171 C 0.31015 0.35975 0.14566 0.0
C172 C 0.2856 0.36153 0.12937 0.0
C173 C 0.28283 0.39718 0.12887 0.0
H174 H 0.31228 0.33213 0.14602 0.0
H175 H 0.28977 0.68055 0.14309 0.0
H176 H 0.75151 0.174 0.49493 0.0
H177 H 0.80386 0.23516 0.4868 0.0
H178 H 0.76037 0.30691 0.52623 0.0
H179 H 0.70773 0.24597 0.53409 0.0
H180 H 0.76762 0.32186 0.48471 0.0
H181 H 0.84481 0.30886 0.54244 0.0
H182 H 0.87374 0.27359 0.56132 0.0
H183 H 0.9329 0.26119 0.50654 0.0
H184 H 0.90388 0.29592 0.4872 0.0
H185 H 0.91263 0.52034 0.49125 0.0
H186 H 0.86427 0.45448 0.49646 0.0
H187 H 0.92652 0.39847 0.46109 0.0
H188 H 0.97547 0.46488 0.45629 0.0
H189 H 0.91009 0.37132 0.49725 0.0
H190 H 0.83769 0.38859 0.44043 0.0
H191 H 0.8065 0.41999 0.42 0.0
H192 H 0.7355 0.42026 0.47071 0.0
H193 H 0.76686 0.38974 0.4917 0.0
C194 C 0.75367 0.2029 0.50221 0.0
C195 C 0.72557 0.20539 0.51504 0.0
C196 C 0.78357 0.23776 0.49758 0.0
C197 C 0.78584 0.2755 0.50585 0.0
C198 C 0.75902 0.27803 0.51964 0.0
C199 C 0.72906 0.24325 0.52417 0.0
C200 C 0.81376 0.31205 0.49862 0.0
C201 C 0.79879 0.33311 0.48772 0.0
C202 C 0.85432 0.3254 0.50166 0.0
C203 C 0.87184 0.3046 0.51329 0.0
C204 C 0.86371 0.29829 0.53434 0.0
C205 C 0.88018 0.27847 0.54514 0.0
C206 C 0.90505 0.26505 0.53511 0.0
C207 C 0.91358 0.27154 0.51428 0.0
C208 C 0.89716 0.29132 0.5034 0.0
C209 C 0.91542 0.49379 0.48425 0.0
C210 C 0.94721 0.49717 0.47324 0.0
C211 C 0.88781 0.45621 0.48717 0.0
C212 C 0.89149 0.4214 0.47898 0.0
C213 C 0.92302 0.42487 0.4675 0.0
C214 C 0.95076 0.46261 0.46464 0.0
C215 C 0.86392 0.38202 0.4838 0.0
C216 C 0.8789 0.36018 0.49414 0.0
C217 C 0.82318 0.36771 0.4801 0.0
C218 C 0.80508 0.3873 0.46779 0.0
C219 C 0.81585 0.39588 0.44739 0.0
C220 C 0.79805 0.41344 0.43567 0.0
C221 C 0.76915 0.42227 0.44409 0.0
C222 C 0.75801 0.41357 0.46424 0.0
C223 C 0.77583 0.39618 0.47607 0.0
H224 H 0.75531 0.43573 0.43495 0.0
H225 H 0.91778 0.24972 0.5435 0.0
H226 H 0.55474 0.67362 0.83197 0.0
H227 H 0.54502 0.73313 0.82891 0.0
H228 H 0.6668 0.80913 0.84961 0.0
H229 H 0.67647 0.75014 0.85272 0.0
H230 H 0.62204 0.83961 0.86944 0.0
H231 H 0.6313 0.78415 0.79698 0.0
H232 H 0.61129 0.73002 0.76513 0.0
H233 H 0.49786 0.72498 0.7589 0.0
H234 H 0.51694 0.77855 0.79101 0.0
H235 H 0.66134 0.02336 0.8386 0.0
H236 H 0.66001 0.95799 0.83977 0.0
H237 H 0.53727 0.89903 0.81796 0.0
H238 H 0.5388 0.96473 0.81662 0.0
H239 H 0.57484 0.85652 0.79902 0.0
H240 H 0.56618 0.91379 0.87029 0.0
H241 H 0.58505 0.9662 0.90287 0.0
H242 H 0.69617 0.96647 0.91176 0.0
H243 H 0.67817 0.91444 0.87903 0.0
C244 C 0.57924 0.7031 0.83606 0.0
C245 C 0.61634 0.70735 0.8426 0.0
C246 C 0.57375 0.73703 0.83419 0.0
C247 C 0.60528 0.77565 0.83887 0.0
C248 C 0.64205 0.77975 0.84593 0.0
C249 C 0.64755 0.74599 0.84766 0.0
C250 C 0.60069 0.81205 0.83617 0.0
C251 C 0.61198 0.84338 0.854 0.0
C252 C 0.58661 0.81662 0.81615 0.0
C253 C 0.57542 0.78508 0.79654 0.0
C254 C 0.602 0.77132 0.78892 0.0
C255 C 0.59084 0.74074 0.77081 0.0
C256 C 0.55331 0.72402 0.76003 0.0
C257 C 0.5269 0.73792 0.7673 0.0
C258 C 0.53787 0.76839 0.78545 0.0
C259 C 0.63425 0.99634 0.83377 0.0
C260 C 0.6002 0.99878 0.82752 0.0
C261 C 0.63343 0.95905 0.83453 0.0
C262 C 0.59841 0.92353 0.82924 0.0
C263 C 0.56458 0.92594 0.82214 0.0
C264 C 0.56544 0.96338 0.8214 0.0
C265 C 0.59706 0.88442 0.83223 0.0
C266 C 0.5846 0.8526 0.81449 0.0
C267 C 0.61002 0.87924 0.85237 0.0
C268 C 0.62094 0.91046 0.8721 0.0
C269 C 0.59475 0.92524 0.8791 0.0
C270 C 0.60527 0.95484 0.89761 0.0
C271 C 0.64182 0.96972 0.90935 0.0
C272 C 0.66789 0.95495 0.90263 0.0
C273 C 0.65753 0.92538 0.88411 0.0
H274 H 0.64991 0.99263 0.92368 0.0
H275 H 0.54472 0.70038 0.74602 0.0
H276 H 0.97283 0.58643 0.1422 0.0
H277 H 0.9062 0.57722 0.14119 0.0
H278 H 0.86814 0.45618 0.15215 0.0
H279 H 0.93565 0.46528 0.15275 0.0
H280 H 0.81449 0.45748 0.12446 0.0
H281 H 0.87636 0.53272 0.19301 0.0
H282 H 0.92739 0.5857 0.22003 0.0
H283 H 0.90931 0.67575 0.19347 0.0
H284 H 0.8586 0.62324 0.16595 0.0
H285 H 0.62918 0.45708 0.14256 0.0
H286 H 0.69111 0.45385 0.14941 0.0
H287 H 0.75292 0.57126 0.13334 0.0
H288 H 0.69159 0.57446 0.12656 0.0
H289 H 0.79144 0.56423 0.16814 0.0
H290 H 0.73136 0.48261 0.09697 0.0
H291 H 0.67901 0.42589 0.07214 0.0
H292 H 0.69124 0.34302 0.10825 0.0
H293 H 0.74336 0.39932 0.13345 0.0
C294 C 0.95037 0.55767 0.14431 0.0
C295 C 0.95988 0.52666 0.1476 0.0
C296 C 0.91203 0.55249 0.14386 0.0
C297 C 0.88162 0.51626 0.14705 0.0
C298 C 0.89076 0.48459 0.14974 0.0
C299 C 0.92946 0.48976 0.15006 0.0
C300 C 0.84094 0.51247 0.14781 0.0
C301 C 0.80948 0.48052 0.13433 0.0
C302 C 0.83357 0.54218 0.1607 0.0
C303 C 0.86385 0.57401 0.17729 0.0
C304 C 0.88343 0.56383 0.19282 0.0
C305 C 0.9123 0.59379 0.20825 0.0
C306 C 0.92164 0.6341 0.20848 0.0
C307 C 0.90206 0.64451 0.19327 0.0
C308 C 0.87322 0.61464 0.17775 0.0
C309 C 0.65605 0.48244 0.14086 0.0
C310 C 0.65521 0.51603 0.13399 0.0
C311 C 0.69154 0.48044 0.14456 0.0
C312 C 0.72714 0.51212 0.14165 0.0
C313 C 0.72624 0.54627 0.13568 0.0
C314 C 0.69097 0.54808 0.13179 0.0
C315 C 0.76537 0.51007 0.14426 0.0
C316 C 0.79643 0.54101 0.15843 0.0
C317 C 0.77204 0.47893 0.13242 0.0
C318 C 0.74095 0.44517 0.1172 0.0
C319 C 0.7227 0.45231 0.09969 0.0
C320 C 0.6931 0.42024 0.08554 0.0
C321 C 0.68174 0.38089 0.08865 0.0
C322 C 0.70003 0.37352 0.10588 0.0
C323 C 0.72961 0.40549 0.12009 0.0
H324 H 0.65882 0.3561 0.07768 0.0
H325 H 0.94401 0.65727 0.22044 0.0
H326 H 0.40512 0.96893 0.47118 0.0
H327 H 0.33962 0.91382 0.46797 0.0
H328 H 0.37357 0.87392 0.52239 0.0
H329 H 0.43956 0.92861 0.52527 0.0
H330 H 0.33572 0.81263 0.48899 0.0
H331 H 0.31438 0.91855 0.52768 0.0
H332 H 0.31676 0.98569 0.53554 0.0
H333 H 0.247 0.96079 0.47538 0.0
H334 H 0.24466 0.89368 0.467 0.0
H335 H 0.14312 0.66466 0.49126 0.0
H336 H 0.20473 0.72487 0.50314 0.0
H337 H 0.18652 0.7738 0.4484 0.0
H338 H 0.12463 0.71398 0.43664 0.0
H339 H 0.21581 0.83083 0.48589 0.0
H340 H 0.24243 0.72758 0.44615 0.0
H341 H 0.24066 0.66072 0.43811 0.0
H342 H 0.30149 0.68145 0.50071 0.0
H343 H 0.30306 0.74823 0.50926 0.0
C344 C 0.39854 0.94839 0.48246 0.0
C345 C 0.4273 0.95255 0.49833 0.0
C346 C 0.36109 0.91713 0.48071 0.0
C347 C 0.35167 0.88992 0.49503 0.0
C348 C 0.3803 0.8945 0.51113 0.0
C349 C 0.41791 0.92555 0.51273 0.0
C350 C 0.3125 0.85555 0.49241 0.0
C351 C 0.30952 0.81663 0.48879 0.0
C352 C 0.27833 0.86082 0.49166 0.0
C353 C 0.27962 0.90117 0.49663 0.0
C354 C 0.29981 0.9275 0.51604 0.0
C355 C 0.3011 0.96554 0.52061 0.0
C356 C 0.28211 0.97754 0.50595 0.0
C357 C 0.26172 0.95147 0.48671 0.0
C358 C 0.26037 0.91341 0.48206 0.0
C359 C 0.15197 0.68857 0.48198 0.0
C360 C 0.12927 0.68458 0.46295 0.0
C361 C 0.18723 0.72278 0.4887 0.0
C362 C 0.2003 0.75352 0.47651 0.0
C363 C 0.17694 0.75034 0.458 0.0
C364 C 0.1418 0.71607 0.45121 0.0
C365 C 0.2392 0.78809 0.48234 0.0
C366 C 0.24209 0.82696 0.48646 0.0
C367 C 0.27335 0.78283 0.48358 0.0
C368 C 0.27237 0.74267 0.47846 0.0
C369 C 0.25507 0.71772 0.45829 0.0
C370 C 0.25417 0.67987 0.45362 0.0
C371 C 0.27082 0.66678 0.46892 0.0
C372 C 0.28851 0.69158 0.48889 0.0
C373 C 0.2894 0.72943 0.49366 0.0
H374 H 0.27013 0.63747 0.46526 0.0
H375 H 0.28314 0.007 0.50952 0.0
H376 H 0.62486 0.52093 0.84046 0.0
H377 H 0.63601 0.46153 0.84089 0.0
H378 H 0.51527 0.38496 0.81767 0.0
H379 H 0.50437 0.44393 0.817 0.0
H380 H 0.53699 0.35967 0.85047 0.0
H381 H 0.58736 0.40282 0.78577 0.0
H382 H 0.62937 0.44678 0.76259 0.0
H383 H 0.72946 0.44749 0.79536 0.0
H384 H 0.68835 0.40503 0.81947 0.0
H385 H 0.52462 0.17169 0.80256 0.0
H386 H 0.52607 0.23797 0.81053 0.0
H387 H 0.64385 0.28839 0.84092 0.0
H388 H 0.64224 0.22164 0.83321 0.0
H389 H 0.63177 0.33089 0.80951 0.0
H390 H 0.57855 0.28257 0.87241 0.0
H391 H 0.53401 0.23384 0.89273 0.0
H392 H 0.43667 0.2383 0.85987 0.0
H393 H 0.48058 0.28663 0.8391 0.0
C394 C 0.60102 0.49143 0.83504 0.0
C395 C 0.56394 0.48707 0.82833 0.0
C396 C 0.6073 0.45747 0.83544 0.0
C397 C 0.57649 0.41862 0.82923 0.0
C398 C 0.53949 0.41449 0.82261 0.0
C399 C 0.53332 0.44826 0.82215 0.0
C400 C 0.58201 0.38193 0.8298 0.0
C401 C 0.55767 0.35342 0.84142 0.0
C402 C 0.60969 0.37403 0.81849 0.0
C403 C 0.63477 0.40133 0.80475 0.0
C404 C 0.61843 0.41308 0.78841 0.0
C405 C 0.6421 0.4377 0.77507 0.0
C406 C 0.6821 0.45015 0.77761 0.0
C407 C 0.69852 0.43813 0.79357 0.0
C408 C 0.67508 0.41397 0.80715 0.0
C409 C 0.5506 0.19682 0.81123 0.0
C410 C 0.58324 0.19156 0.81737 0.0
C411 C 0.55141 0.23464 0.81579 0.0
C412 C 0.58502 0.26813 0.82638 0.0
C413 C 0.61758 0.26293 0.83279 0.0
C414 C 0.61655 0.22483 0.82853 0.0
C415 C 0.58624 0.30861 0.82975 0.0
C416 C 0.61174 0.3377 0.81889 0.0
C417 C 0.55941 0.31696 0.84154 0.0
C418 C 0.53287 0.28804 0.85408 0.0
C419 C 0.54762 0.27294 0.86939 0.0
C420 C 0.52248 0.24542 0.88101 0.0
C421 C 0.48253 0.23293 0.87757 0.0
C422 C 0.46763 0.248 0.86251 0.0
C423 C 0.49264 0.2755 0.85083 0.0
H424 H 0.46311 0.21162 0.88658 0.0
H425 H 0.70034 0.46896 0.76715 0.0
H426 H 0.55907 0.96253 0.485 0.0
H427 H 0.54855 0.89331 0.48468 0.0
H428 H 0.62067 0.9318 0.54576 0.0
H429 H 0.63238 1.00087 0.5456 0.0
H430 H 0.64122 0.88662 0.52102 0.0
H431 H 0.51503 0.87198 0.5389 0.0
H432 H 0.4515 0.87271 0.53452 0.0
H433 H 0.42351 0.79587 0.4725 0.0
H434 H 0.4868 0.79447 0.47658 0.0
H435 H 0.59723 0.69509 0.54692 0.0
H436 H 0.6024 0.76244 0.5468 0.0
H437 H 0.538 0.72104 0.48325 0.0
H438 H 0.53235 0.65366 0.4836 0.0
H439 H 0.51319 0.76661 0.5079 0.0
H440 H 0.63724 0.77833 0.49072 0.0
H441 H 0.69843 0.77305 0.49596 0.0
H442 H 0.7302 0.85484 0.55651 0.0
H443 H 0.66893 0.86021 0.55176 0.0
C444 C 0.57241 0.95602 0.49839 0.0
C445 C 0.59678 0.98707 0.51524 0.0
C446 C 0.56619 0.91639 0.4983 0.0
C447 C 0.58358 0.90699 0.51529 0.0
C448 C 0.60707 0.93806 0.53238 0.0
C449 C 0.61371 0.97759 0.53231 0.0
C450 C 0.57933 0.8655 0.51492 0.0
C451 C 0.61308 0.86053 0.51847 0.0
C452 C 0.54288 0.83097 0.51086 0.0
C453 C 0.50576 0.83348 0.50795 0.0
C454 C 0.49551 0.85564 0.52422 0.0
C455 C 0.45949 0.85605 0.52182 0.0
C456 C 0.43359 0.8345 0.50319 0.0
C457 C 0.44365 0.81258 0.4869 0.0
C458 C 0.47951 0.81188 0.48927 0.0
C459 C 0.58413 0.70053 0.53301 0.0
C460 C 0.56442 0.66956 0.51527 0.0
C461 C 0.58725 0.73898 0.53287 0.0
C462 C 0.57099 0.74704 0.51488 0.0
C463 C 0.5508 0.71566 0.49729 0.0
C464 C 0.54764 0.67726 0.49747 0.0
C465 C 0.57492 0.78806 0.51437 0.0
C466 C 0.54123 0.79284 0.51051 0.0
C467 C 0.61141 0.82241 0.51812 0.0
C468 C 0.64833 0.81936 0.52098 0.0
C469 C 0.65714 0.79496 0.50523 0.0
C470 C 0.69186 0.79199 0.5081 0.0
C471 C 0.71814 0.81351 0.52659 0.0
C472 C 0.7098 0.83815 0.54222 0.0
C473 C 0.6751 0.84119 0.53943 0.0
H474 H 0.745 0.81118 0.52878 0.0
H475 H 0.4056 0.83448 0.5014 0.0
H476 H 0.76 0.61662 0.86284 0.0
H477 H 0.81094 0.59415 0.86004 0.0
H478 H 0.75497 0.52206 0.79766 0.0
H479 H 0.70364 0.54357 0.80044 0.0
H480 H 0.76992 0.48154 0.8321 0.0
H481 H 0.8308 0.59189 0.79469 0.0
H482 H 0.85652 0.66254 0.7903 0.0
H483 H 0.93785 0.69869 0.84707 0.0
H484 H 0.91219 0.62827 0.85199 0.0
H485 H 0.9096 0.40769 0.81852 0.0
H486 H 0.86528 0.43583 0.81018 0.0
H487 H 0.932 0.54051 0.8592 0.0
H488 H 0.97756 0.51398 0.86655 0.0
H489 H 0.9099 0.56318 0.82718 0.0
H490 H 0.84691 0.45759 0.86758 0.0
H491 H 0.81963 0.3889 0.87536 0.0
H492 H 0.74096 0.34549 0.81694 0.0
H493 H 0.76836 0.41379 0.80859 0.0
C494 C 0.75879 0.5962 0.84849 0.0
C495 C 0.72788 0.58151 0.83194 0.0
C496 C 0.78785 0.58356 0.84688 0.0
C497 C 0.78619 0.55617 0.82872 0.0
C498 C 0.75611 0.54264 0.81189 0.0
C499 C 0.72708 0.55516 0.81348 0.0
C500 C 0.814 0.53905 0.8281 0.0
C501 C 0.80043 0.499 0.83056 0.0
C502 C 0.85378 0.56248 0.82676 0.0
C503 C 0.86929 0.60484 0.82383 0.0
C504 C 0.85389 0.61494 0.80636 0.0
C505 C 0.86853 0.65494 0.80375 0.0
C506 C 0.89873 0.6851 0.81843 0.0
C507 C 0.91443 0.6753 0.83573 0.0
C508 C 0.89987 0.63534 0.83842 0.0
C509 C 0.91519 0.43703 0.82722 0.0
C510 C 0.94669 0.45825 0.84349 0.0
C511 C 0.88963 0.45289 0.82259 0.0
C512 C 0.89483 0.4899 0.8344 0.0
C513 C 0.92719 0.5118 0.84996 0.0
C514 C 0.95295 0.4963 0.85436 0.0
C515 C 0.86601 0.50541 0.83137 0.0
C516 C 0.87931 0.54529 0.82832 0.0
C517 C 0.82594 0.48196 0.83254 0.0
C518 C 0.81005 0.44072 0.83732 0.0
C519 C 0.82411 0.43332 0.85627 0.0
C520 C 0.80859 0.39446 0.8608 0.0
C521 C 0.77869 0.36282 0.84661 0.0
C522 C 0.76422 0.36999 0.82787 0.0
C523 C 0.77976 0.40876 0.82323 0.0
H524 H 0.76664 0.33278 0.85018 0.0
H525 H 0.91003 0.71605 0.81638 0.0
H526 H 0.15779 0.68465 0.19143 0.0
H527 H 0.21458 0.75011 0.19626 0.0
H528 H 0.24993 0.71323 0.13628 0.0
H529 H 0.19382 0.64693 0.13178 0.0
H530 H 0.30893 0.74591 0.16959 0.0
H531 H 0.21515 0.78017 0.13869 0.0
H532 H 0.15311 0.78409 0.13471 0.0
H533 H 0.17959 0.85462 0.1985 0.0
H534 H 0.24157 0.85064 0.20299 0.0
H535 H 0.46375 0.93953 0.17153 0.0
H536 H 0.40357 0.87771 0.15984 0.0
H537 H 0.35729 0.90305 0.2182 0.0
H538 H 0.4171 0.96534 0.22978 0.0
H539 H 0.30368 0.87651 0.18251 0.0
H540 H 0.39511 0.83852 0.21412 0.0
H541 H 0.45642 0.8333 0.21864 0.0
H542 H 0.4334 0.76818 0.15366 0.0
H543 H 0.37224 0.77363 0.14862 0.0
C544 C 0.17769 0.69055 0.17928 0.0
C545 C 0.17172 0.66085 0.16131 0.0
C546 C 0.20992 0.72798 0.18198 0.0
C547 C 0.23636 0.73643 0.16659 0.0
C548 C 0.23001 0.70701 0.14841 0.0
C549 C 0.198 0.66934 0.14584 0.0
C550 C 0.27179 0.77516 0.17023 0.0
C551 C 0.30786 0.77451 0.17193 0.0
C552 C 0.27015 0.81231 0.17388 0.0
C553 C 0.23289 0.81481 0.17124 0.0
C554 C 0.20761 0.79623 0.15194 0.0
C555 C 0.17248 0.79852 0.14958 0.0
C556 C 0.16238 0.81952 0.16635 0.0
C557 C 0.18744 0.83834 0.18552 0.0
C558 C 0.2226 0.83612 0.18797 0.0
C559 C 0.44054 0.93214 0.18173 0.0
C560 C 0.44512 0.95709 0.2016 0.0
C561 C 0.40634 0.89674 0.1751 0.0
C562 C 0.37622 0.8857 0.18827 0.0
C563 C 0.38029 0.91106 0.20785 0.0
C564 C 0.41453 0.9464 0.21451 0.0
C565 C 0.34078 0.8472 0.18193 0.0
C566 C 0.30474 0.8479 0.17982 0.0
C567 C 0.34241 0.81003 0.17792 0.0
C568 C 0.37938 0.80705 0.18088 0.0
C569 C 0.40334 0.82352 0.2007 0.0
C570 C 0.43802 0.82043 0.20338 0.0
C571 C 0.44888 0.80057 0.18642 0.0
C572 C 0.42502 0.78367 0.16676 0.0
C573 C 0.39035 0.78677 0.16398 0.0
H574 H 0.47572 0.79816 0.18853 0.0
H575 H 0.13517 0.82126 0.16449 0.0
H576 H 0.53299 0.15616 0.47421 0.0
H577 H 0.54151 0.22544 0.47794 0.0
H578 H 0.59904 0.25254 0.54243 0.0
H579 H 0.59183 0.18371 0.53853 0.0
H580 H 0.52084 0.26426 0.52946 0.0
H581 H 0.65365 0.28989 0.51594 0.0
H582 H 0.70031 0.28047 0.49312 0.0
H583 H 0.66343 0.32704 0.44335 0.0
H584 H 0.61476 0.33455 0.46532 0.0
H585 H 0.56335 0.46343 0.56638 0.0
H586 H 0.56367 0.39895 0.55864 0.0
H587 H 0.58619 0.4151 0.49338 0.0
H588 H 0.59122 0.4825 0.50187 0.0
H589 H 0.62261 0.37944 0.50366 0.0
H590 H 0.49172 0.35099 0.50937 0.0
H591 H 0.43525 0.3545 0.52473 0.0
H592 H 0.45722 0.30909 0.57971 0.0
H593 H 0.51416 0.3058 0.56482 0.0
C594 C 0.54795 0.17711 0.48906 0.0
C595 C 0.56171 0.16468 0.50611 0.0
C596 C 0.55288 0.21661 0.49113 0.0
C597 C 0.57112 0.24406 0.51039 0.0
C598 C 0.5852 0.23181 0.52737 0.0
C599 C 0.58109 0.19258 0.52513 0.0
C600 C 0.57248 0.28443 0.51352 0.0
C601 C 0.54334 0.2897 0.5241 0.0
C602 C 0.60052 0.31674 0.5053 0.0
C603 C 0.62992 0.31206 0.49218 0.0
C604 C 0.65479 0.29732 0.49997 0.0
C605 C 0.68178 0.29247 0.4872 0.0
C606 C 0.68491 0.30317 0.46682 0.0
C607 C 0.6609 0.31861 0.45911 0.0
C608 C 0.63345 0.32297 0.47167 0.0
C609 C 0.56953 0.4542 0.5505 0.0
C610 C 0.57765 0.47912 0.53488 0.0
C611 C 0.56866 0.41641 0.5459 0.0
C612 C 0.57382 0.40119 0.52519 0.0
C613 C 0.58184 0.42576 0.50948 0.0
C614 C 0.5841 0.46432 0.51431 0.0
C615 C 0.57133 0.35999 0.5202 0.0
C616 C 0.59999 0.35427 0.50911 0.0
C617 C 0.54167 0.32657 0.52699 0.0
C618 C 0.50744 0.32849 0.53605 0.0
C619 C 0.48468 0.34201 0.52481 0.0
C620 C 0.45256 0.34393 0.53342 0.0
C621 C 0.44271 0.33212 0.55321 0.0
C622 C 0.46491 0.31827 0.5644 0.0
C623 C 0.49709 0.31633 0.55586 0.0
H624 H 0.41783 0.33363 0.55985 0.0
H625 H 0.70601 0.29962 0.45704 0.0
H626 H 0.43962 0.60566 0.8645 0.0
H627 H 0.36944 0.58152 0.86507 0.0
H628 H 0.35044 0.53176 0.79705 0.0
H629 H 0.42031 0.5562 0.79637 0.0
H630 H 0.30008 0.5621 0.80779 0.0
H631 H 0.34686 0.47456 0.83409 0.0
H632 H 0.38821 0.45888 0.85814 0.0
H633 H 0.34144 0.49517 0.91322 0.0
H634 H 0.30019 0.51161 0.88949 0.0
H635 H 0.11061 0.4028 0.79297 0.0
H636 H 0.18148 0.44144 0.79545 0.0
H637 H 0.18576 0.48255 0.86358 0.0
H638 H 0.11501 0.44354 0.86109 0.0
H639 H 0.24353 0.46206 0.85539 0.0
H640 H 0.19169 0.54335 0.82824 0.0
H641 H 0.15024 0.55814 0.80377 0.0
H642 H 0.20607 0.53303 0.75002 0.0
H643 H 0.24751 0.51751 0.77412 0.0
C644 C 0.42047 0.59048 0.84959 0.0
C645 C 0.43516 0.58236 0.83044 0.0
C646 C 0.38046 0.57654 0.84995 0.0
C647 C 0.35478 0.5542 0.83118 0.0
C648 C 0.36975 0.54879 0.81172 0.0
C649 C 0.40965 0.56269 0.81136 0.0
C650 C 0.31239 0.53318 0.83204 0.0
C651 C 0.28766 0.54011 0.81812 0.0
C652 C 0.2963 0.50497 0.8458 0.0
C653 C 0.3208 0.49475 0.86005 0.0
C654 C 0.34561 0.47946 0.85134 0.0
C655 C 0.369 0.47041 0.86491 0.0
C656 C 0.36755 0.47615 0.8872 0.0
C657 C 0.3426 0.49083 0.89596 0.0
C658 C 0.3192 0.5 0.88246 0.0
C659 C 0.12694 0.41971 0.80847 0.0
C660 C 0.10795 0.42028 0.82687 0.0
C661 C 0.16721 0.44196 0.80986 0.0
C662 C 0.18875 0.46532 0.82965 0.0
C663 C 0.16966 0.46482 0.84818 0.0
C664 C 0.12941 0.44254 0.84676 0.0
C665 C 0.23114 0.49063 0.83094 0.0
C666 C 0.25588 0.48442 0.84525 0.0
C667 C 0.2472 0.51941 0.8175 0.0
C668 C 0.22248 0.52895 0.80297 0.0
C669 C 0.19494 0.54069 0.81118 0.0
C670 C 0.17147 0.54926 0.79738 0.0
C671 C 0.17546 0.54644 0.77535 0.0
C672 C 0.20299 0.53516 0.76708 0.0
C673 C 0.2265 0.52652 0.78081 0.0
H674 H 0.15726 0.55308 0.76469 0.0
H675 H 0.38568 0.46913 0.89769 0.0
H676 H 0.95303 0.34454 0.18237 0.0
H677 H 0.89091 0.29426 0.19048 0.0
H678 H 0.83319 0.30382 0.13305 0.0
H679 H 0.89492 0.35461 0.12521 0.0
H680 H 0.79837 0.31299 0.16727 0.0
H681 H 0.8458 0.21957 0.13732 0.0
H682 H 0.89266 0.19133 0.13424 0.0
H683 H 0.88345 0.17214 0.19967 0.0
H684 H 0.83689 0.20078 0.20323 0.0
H685 H 0.61278 0.1502 0.15696 0.0
H686 H 0.67889 0.19782 0.15276 0.0
H687 H 0.72123 0.17868 0.21238 0.0
H688 H 0.65469 0.13019 0.21633 0.0
H689 H 0.76601 0.17638 0.18107 0.0
H690 H 0.71426 0.26522 0.20977 0.0
H691 H 0.66793 0.29412 0.21267 0.0
H692 H 0.68586 0.32302 0.14936 0.0
H693 H 0.73174 0.2936 0.14589 0.0
C694 C 0.92716 0.33521 0.17127 0.0
C695 C 0.92859 0.35339 0.15321 0.0
C696 C 0.89173 0.3065 0.1759 0.0
C697 C 0.85742 0.29532 0.16237 0.0
C698 C 0.85928 0.31216 0.14376 0.0
C699 C 0.89455 0.34099 0.13923 0.0
C700 C 0.81911 0.26858 0.16833 0.0
C701 C 0.7911 0.28289 0.17001 0.0
C702 C 0.81026 0.23001 0.17276 0.0
C703 C 0.83818 0.21272 0.17062 0.0
C704 C 0.85401 0.20965 0.15111 0.0
C705 C 0.88047 0.1935 0.14927 0.0
C706 C 0.89111 0.18006 0.16677 0.0
C707 C 0.87523 0.18263 0.18614 0.0
C708 C 0.84878 0.19878 0.18807 0.0
C709 C 0.63626 0.15656 0.16923 0.0
C710 C 0.62914 0.13717 0.18701 0.0
C711 C 0.6739 0.18378 0.16688 0.0
C712 C 0.70491 0.19224 0.18242 0.0
C713 C 0.69767 0.17271 0.20028 0.0
C714 C 0.65985 0.14529 0.20258 0.0
C715 C 0.74492 0.22041 0.17941 0.0
C716 C 0.77333 0.20653 0.17843 0.0
C717 C 0.75418 0.25945 0.17555 0.0
C718 C 0.72623 0.27683 0.1775 0.0
C719 C 0.70804 0.27735 0.19637 0.0
C720 C 0.68189 0.29389 0.19813 0.0
C721 C 0.67387 0.31029 0.18119 0.0
C722 C 0.69203 0.31023 0.16246 0.0
C723 C 0.71813 0.29363 0.16059 0.0
H724 H 0.65366 0.32314 0.1826 0.0
H725 H 0.9116 0.16757 0.16531 0.0
H726 H 0.08277 0.55308 0.08377 0.0
H727 H 0.08312 0.54349 0.04454 0.0
H728 H 1.01147 0.41639 0.03954 0.0
H729 H 1.01058 0.42562 0.0787 0.0
H730 H 0.07722 0.43777 0.01497 0.0
H731 H 0.96878 0.46759 0.02743 0.0
H732 H 0.93796 0.50818 0.04422 0.0
H733 H 0.01465 0.6086 0.01737 0.0
H734 H 0.04632 0.56875 0.00068 0.0
H735 H 1.00421 0.37708 0.90329 0.0
H736 H 0.01766 0.38972 0.94272 0.0
H737 H 0.06454 0.51724 0.94384 0.0
H738 H 0.04959 0.50435 0.90457 0.0
H739 H 0.01531 0.49822 0.9711 0.0
H740 H 0.12202 0.47008 0.95678 0.0
H741 H 0.15573 0.43227 0.94039 0.0
H742 H 0.0878 0.3331 0.97073 0.0
H743 H 0.05326 0.37009 0.98706 0.0
C744 C 0.06708 0.52308 0.07433 0.0
C745 C 0.04644 0.49013 0.08431 0.0
C746 C 0.06735 0.51769 0.05196 0.0
C747 C 0.04731 0.47926 0.03924 0.0
C748 C 0.02718 0.44625 0.04915 0.0
C749 C 0.02647 0.45166 0.07148 0.0
C750 C 0.04636 0.4736 0.0155 0.0
C751 C 0.06343 0.45061 0.00526 0.0
C752 C 0.02937 0.49144 0.00308 0.0
C753 C 1.0102 0.51534 0.01301 0.0
C754 C 0.9793 0.49844 0.02527 0.0
C755 C 0.96163 0.52128 0.03473 0.0
C756 C 0.97441 0.56098 0.03191 0.0
C757 C 1.00482 0.57787 0.01957 0.0
C758 C 0.02262 0.55516 0.01009 0.0
C759 C 0.01814 0.40775 0.91201 0.0
C760 C 0.02583 0.43977 0.90109 0.0
C761 C 0.02593 0.41503 0.9345 0.0
C762 C 0.04229 0.4545 0.94629 0.0
C763 C 0.05174 0.48655 0.93514 0.0
C764 C 0.04337 0.47924 0.91275 0.0
C765 C 0.04626 0.46224 0.97026 0.0
C766 C 0.02956 0.48557 0.98064 0.0
C767 C 0.0641 0.44513 0.98278 0.0
C768 C 0.08479 0.42275 0.97299 0.0
C769 C 0.11403 0.44008 0.95981 0.0
C770 C 0.13334 0.41882 0.95056 0.0
C771 C 0.12385 0.38027 0.95447 0.0
C772 C 0.09509 0.36295 0.96769 0.0
C773 C 0.07567 0.38407 0.97697 0.0
H774 H 0.13884 0.36386 0.94729 0.0
H775 H 0.96069 0.57862 0.03925 0.0
H776 H 0.55283 0.00576 0.43273 0.0
H777 H 0.5552 0.006 0.39397 0.0
H778 H 0.62305 0.13465 0.40724 0.0
H779 H 0.62141 0.13467 0.44603 0.0
H780 H 0.55575 0.10351 0.3752 0.0
H781 H 0.66891 0.08533 0.39211 0.0
H782 H 0.70486 0.05298 0.40761 0.0
H783 H 0.63085 0.94099 0.36606 0.0
H784 H 0.59407 0.97254 0.35053 0.0
H785 H 0.57298 0.10923 0.26472 0.0
H786 H 0.5932 0.12156 0.30344 0.0
H787 H 0.55493 0.99468 0.30064 0.0
H788 H 0.53739 0.98258 0.26185 0.0
H789 H 0.61493 0.0324 0.32846 0.0
H790 H 0.49665 0.04403 0.31514 0.0
H791 H 0.45526 0.07127 0.30018 0.0
H792 H 0.53185 0.18901 0.33528 0.0
H793 H 0.57398 0.16252 0.35024 0.0
C794 C 0.56844 0.03406 0.4274 0.0
C795 C 0.58699 0.07018 0.44241 0.0
C796 C 0.56988 0.03414 0.40529 0.0
C797 C 0.58946 0.07034 0.39782 0.0
C798 C 0.60792 0.10643 0.41274 0.0
C799 C 0.60704 0.10633 0.43486 0.0
C800 C 0.58941 0.07051 0.37436 0.0
C801 C 0.5693 0.08865 0.36498 0.0
C802 C 0.60627 0.05021 0.36109 0.0
C803 C 0.62854 0.03124 0.37028 0.0
C804 C 0.6601 0.05373 0.3864 0.0
C805 C 0.68067 0.03555 0.39517 0.0
C806 C 0.6701 0.99494 0.38786 0.0
C807 C 0.63899 0.97244 0.37172 0.0
C808 C 0.6183 0.99047 0.36291 0.0
C809 C 0.56984 0.0841 0.27224 0.0
C810 C 0.55278 0.04478 0.26022 0.0
C811 C 0.58097 0.09112 0.29445 0.0
C812 C 0.57455 0.05891 0.30513 0.0
C813 C 0.55985 0.02004 0.29289 0.0
C814 C 0.54935 0.01309 0.2707 0.0
C815 C 0.58064 0.06489 0.32909 0.0
C816 C 0.60182 0.04782 0.33863 0.0
C817 C 0.56402 0.08545 0.34251 0.0
C818 C 0.53869 0.1014 0.33359 0.0
C819 C 0.5048 0.07578 0.31954 0.0
C820 C 0.48119 0.09107 0.31108 0.0
C821 C 0.49098 0.13187 0.31672 0.0
C822 C 0.52435 0.15743 0.33089 0.0
C823 C 0.5481 0.1423 0.33937 0.0
H824 H 0.47267 0.14365 0.31016 0.0
H825 H 0.68605 0.98092 0.39467 0.0
H826 H 0.54325 0.6243 0.76879 0.0
H827 H 0.54475 0.63089 0.73084 0.0
H828 H 0.65102 0.61905 0.73016 0.0
H829 H 0.64999 0.61259 0.76812 0.0
H830 H 0.6523 0.67618 0.70728 0.0
H831 H 0.56666 0.53917 0.7116 0.0
H832 H 0.51134 0.48537 0.72392 0.0
H833 H 0.43304 0.5231 0.69537 0.0
H834 H 0.48804 0.57752 0.68313 0.0
H835 H 0.64766 0.59277 0.5977 0.0
H836 H 0.65081 0.61149 0.63683 0.0
H837 H 0.54477 0.62286 0.62824 0.0
H838 H 0.54138 0.60384 0.58905 0.0
H839 H 0.54109 0.5726 0.65603 0.0
H840 H 0.62768 0.70479 0.64745 0.0
H841 H 0.68383 0.75693 0.63475 0.0
H842 H 0.76127 0.72708 0.67062 0.0
H843 H 0.70553 0.67431 0.6833 0.0
C844 C 0.5671 0.62329 0.76065 0.0
C845 C 0.59623 0.61733 0.77149 0.0
C846 C 0.56792 0.62714 0.73894 0.0
C847 C 0.59777 0.62501 0.72762 0.0
C848 C 0.62772 0.62077 0.7386 0.0
C849 C 0.62693 0.61687 0.7603 0.0
C850 C 0.59655 0.62461 0.70403 0.0
C851 C 0.62812 0.65344 0.69603 0.0
C852 C 0.5646 0.59545 0.68942 0.0
C853 C 0.53149 0.56269 0.69669 0.0
C854 C 0.53768 0.5362 0.70811 0.0
C855 C 0.50639 0.50556 0.71505 0.0
C856 C 0.46871 0.5009 0.71049 0.0
C857 C 0.46225 0.5268 0.69893 0.0
C858 C 0.49347 0.55754 0.69198 0.0
C859 C 0.62546 0.60004 0.60416 0.0
C860 C 0.59421 0.59673 0.59037 0.0
C861 C 0.62738 0.61094 0.62649 0.0
C862 C 0.59805 0.61864 0.63545 0.0
C863 C 0.56774 0.61713 0.62165 0.0
C864 C 0.56598 0.60654 0.59928 0.0
C865 C 0.597 0.62399 0.65917 0.0
C866 C 0.56502 0.59586 0.66723 0.0
C867 C 0.6287 0.65363 0.67377 0.0
C868 C 0.66236 0.68535 0.66619 0.0
C869 C 0.65665 0.70909 0.65249 0.0
C870 C 0.68842 0.73882 0.64532 0.0
C871 C 0.72609 0.74526 0.65184 0.0
C872 C 0.73207 0.72204 0.66558 0.0
C873 C 0.70039 0.69225 0.67278 0.0
H874 H 0.75064 0.7683 0.64627 0.0
H875 H 0.44452 0.47715 0.71587 0.0
H876 H 0.5099 0.04937 0.57353 0.0
H877 H 0.50594 0.04573 0.61192 0.0
H878 H 0.63083 0.09981 0.62362 0.0
H879 H 0.63515 0.10432 0.58539 0.0
H880 H 0.58722 0.02667 0.64227 0.0
H881 H 0.59486 0.15752 0.63772 0.0
H882 H 0.57335 0.20282 0.62315 0.0
H883 H 0.46039 0.13992 0.64297 0.0
H884 H 0.4811 0.09384 0.65738 0.0
H885 H 0.62859 0.08936 0.75592 0.0
H886 H 0.62356 0.07758 0.71647 0.0
H887 H 0.50586 0.06306 0.71352 0.0
H888 H 0.51187 0.07706 0.75304 0.0
H889 H 0.54092 0.11093 0.68911 0.0
H890 H 0.53134 0.9832 0.69618 0.0
H891 H 0.54877 0.93439 0.70987 0.0
H892 H 0.65842 0.98453 0.68458 0.0
H893 H 0.6419 0.03405 0.671 0.0
C894 C 0.53652 0.0606 0.58429 0.0
C895 C 0.57285 0.07739 0.57648 0.0
C896 C 0.53419 0.05843 0.60617 0.0
C897 C 0.5681 0.07242 0.6205 0.0
C898 C 0.60437 0.08876 0.61274 0.0
C899 C 0.60676 0.09161 0.59095 0.0
C900 C 0.56585 0.07091 0.64374 0.0
C901 C 0.57743 0.04525 0.65265 0.0
C902 C 0.55175 0.09414 0.65694 0.0
C903 C 0.53938 0.12196 0.64839 0.0
C904 C 0.56532 0.15311 0.63878 0.0
C905 C 0.5533 0.17898 0.6306 0.0
C906 C 0.51549 0.17417 0.63207 0.0
C907 C 0.48965 0.14356 0.6418 0.0
C908 C 0.50152 0.11757 0.64999 0.0
C909 C 0.6014 0.08265 0.74676 0.0
C910 C 0.57054 0.08388 0.75736 0.0
C911 C 0.59843 0.07579 0.72421 0.0
C912 C 0.56417 0.06905 0.71188 0.0
C913 C 0.53264 0.0683 0.72259 0.0
C914 C 0.53592 0.076 0.74513 0.0
C915 C 0.56254 0.06668 0.68805 0.0
C916 C 0.55031 0.09178 0.6789 0.0
C917 C 0.57538 0.0423 0.67458 0.0
C918 C 0.58548 0.01258 0.68273 0.0
C919 C 0.5593 0.98404 0.69368 0.0
C920 C 0.569 0.9562 0.7014 0.0
C921 C 0.60472 0.95642 0.69814 0.0
C922 C 0.63078 0.98442 0.68711 0.0
C923 C 0.62124 0.01235 0.67938 0.0
H924 H 0.61217 0.93484 0.70412 0.0
H925 H 0.50624 0.19424 0.62573 0.0
H926 H 0.64525 0.60743 0.90913 0.0
H927 H 0.64124 0.59788 0.94657 0.0
H928 H 0.5164 0.54874 0.93603 0.0
H929 H 0.52047 0.56009 0.89882 0.0
H930 H 0.53873 0.59262 0.97346 0.0
H931 H 0.56623 0.48879 0.93806 0.0
H932 H 0.60078 0.45872 0.91547 0.0
H933 H 0.70478 0.52653 0.95968 0.0
H934 H 0.67101 0.55747 0.98239 0.0
H935 H 0.51583 0.49742 0.06809 0.0
H936 H 0.51334 0.50919 0.03094 0.0
H937 H 0.63546 0.59077 0.04154 0.0
H938 H 0.63798 0.58087 0.07882 0.0
H939 H 0.61047 0.5263 0.00393 0.0
H940 H 0.57846 0.63004 0.03879 0.0
H941 H 0.53961 0.65501 0.06088 0.0
H942 H 0.43754 0.57857 0.01657 0.0
H943 H 0.47571 0.5527 0.99437 0.0
C944 C 0.61694 0.59462 0.91479 0.0
C945 C 0.58318 0.58436 0.90096 0.0
C946 C 0.61463 0.58894 0.93621 0.0
C947 C 0.57842 0.57172 0.94412 0.0
C948 C 0.54469 0.56198 0.93039 0.0
C949 C 0.54706 0.56843 0.90907 0.0
C950 C 0.57582 0.56396 0.96668 0.0
C951 C 0.55398 0.57755 0.97995 0.0
C952 C 0.59577 0.54443 0.97537 0.0
C953 C 0.61616 0.52572 0.96183 0.0
C954 C 0.59654 0.4975 0.94289 0.0
C955 C 0.61598 0.48027 0.93008 0.0
C956 C 0.65497 0.49078 0.93611 0.0
C957 C 0.67459 0.51846 0.95501 0.0
C958 C 0.6553 0.53582 0.96787 0.0
C959 C 0.54199 0.51853 0.0627 0.0
C960 C 0.57723 0.53777 0.07647 0.0
C961 C 0.54054 0.525 0.04141 0.0
C962 C 0.57431 0.55057 0.03348 0.0
C963 C 0.60918 0.57059 0.04729 0.0
C964 C 0.61055 0.56466 0.06859 0.0
C965 C 0.57395 0.55545 0.01056 0.0
C966 C 0.59513 0.54115 0.99726 0.0
C967 C 0.55272 0.57345 0.00176 0.0
C968 C 0.52984 0.5891 0.01506 0.0
C969 C 0.54766 0.61827 0.03387 0.0
C970 C 0.52578 0.63265 0.04639 0.0
C971 C 0.48611 0.6183 0.04018 0.0
C972 C 0.46826 0.58961 0.02139 0.0
C973 C 0.49 0.5751 0.00883 0.0
H974 H 0.46922 0.62947 0.04989 0.0
H975 H 0.66997 0.47741 0.92617 0.0
H976 H 0.98481 0.48164 0.21662 0.0
H977 H 0.98128 0.48938 0.25562 0.0
H978 H 0.10487 0.56443 0.26727 0.0
H979 H 0.10858 0.55776 0.22821 0.0
H980 H 0.06877 0.49436 0.29147 0.0
H981 H 0.06002 0.61219 0.27473 0.0
H982 H 0.03211 0.64765 0.25527 0.0
H983 H 0.92104 0.58047 0.27611 0.0
H984 H 0.94821 0.54417 0.29546 0.0
H985 H 0.10923 0.58675 0.4004 0.0
H986 H 0.10257 0.56645 0.36146 0.0
H987 H 0.97996 0.5332 0.35808 0.0
H988 H 0.98699 0.5559 0.39719 0.0
H989 H 1.00881 0.57525 0.32869 0.0
H990 H 0.01629 0.46185 0.34828 0.0
H991 H 0.04145 0.42425 0.36778 0.0
H992 H 0.14961 0.47706 0.34127 0.0
H993 H 0.12533 0.51544 0.32184 0.0
C994 C 1.01125 0.49981 0.22748 0.0
C995 C 0.04701 0.51909 0.21939 0.0
C996 C 1.00913 0.50423 0.24972 0.0
C997 C 0.0428 0.5274 0.26422 0.0
C998 C 0.0786 0.54639 0.25624 0.0
C999 C 0.08064 0.54269 0.23398 0.0
C1000 C 0.04065 0.53173 0.28775 0.0
C1001 C 0.05603 0.51232 0.29973 0.0
C1002 C 0.02252 0.55377 0.2982 0.0
C1003 C 1.00603 0.57512 0.28631 0.0
C1004 C 0.02953 0.60461 0.27494 0.0
C1005 C 0.01389 0.62497 0.26399 0.0
C1006 C 0.97483 0.6163 0.26444 0.0
C1007 C 0.95129 0.58715 0.27578 0.0
C1008 C 0.9668 0.56669 0.28674 0.0
C1009 C 0.08077 0.57506 0.39141 0.0
C1010 C 0.04872 0.57344 0.4019 0.0
C1011 C 0.07689 0.5629 0.36911 0.0
C1012 C 0.04067 0.54786 0.35675 0.0
C1013 C 1.00822 0.54466 0.36726 0.0
C1014 C 1.01218 0.55728 0.38964 0.0
C1015 C 0.03766 0.53844 0.33278 0.0
C1016 C 0.0212 0.55682 0.32058 0.0
C1017 C 0.05428 0.51486 0.32208 0.0
C1018 C 0.06905 0.49176 0.3337 0.0
C1019 C 0.04555 0.46568 0.34672 0.0
C1020 C 0.05963 0.44418 0.35775 0.0
C1021 C 0.09712 0.44832 0.3558 0.0
C1022 C 0.12058 0.4739 0.34277 0.0
C1023 C 0.10664 0.49549 0.33172 0.0
H1024 H 0.10798 0.43165 0.36435 0.0
H1025 H 0.96284 0.63228 0.25609 0.0
loop_
_geom_bond_atom_site_label_1
_geom_bond_atom_site_label_2
_geom_bond_distance
_geom_bond_site_symmetry_2
_ccdc_geom_bond_type
Tb0 O3 2.453 1_455 S
Tb0 O4 2.596 . S
Tb0 O5 2.374 . S
Tb0 O13 2.343 . S
Tb0 O15 2.353 . S
Tb0 O17 2.427 . S
Tb0 O18 2.513 . S
C1 O5 1.251 . S
C1 O7 1.263 . S
Tb2 O4 2.343 . S
Tb2 O7 2.353 . S
Tb2 O10 2.427 1_455 S
Tb2 O11 2.513 1_455 S
Tb2 O12 2.453 . S
Tb2 O13 2.596 . S
Tb2 O14 2.374 . S
O3 Tb0 2.453 1_655 S
O3 C19 1.245 . S
O4 Tb0 2.596 . S
O4 Tb2 2.343 . S
O4 C19 1.259 1_455 S
O5 Tb0 2.374 . S
O5 C1 1.251 . S
C6 O10 1.275 . S
C6 O11 1.246 . S
O7 C1 1.263 . S
O7 Tb2 2.353 . S
C8 O12 1.245 . S
C8 O13 1.259 . S
C9 O14 1.250 . S
C9 O15 1.263 . S
O10 Tb2 2.427 1_655 S
O10 C6 1.275 . S
O11 Tb2 2.513 1_655 S
O11 C6 1.246 . S
O12 Tb2 2.453 . S
O12 C8 1.245 . S
O13 Tb0 2.343 . S
O13 Tb2 2.596 . S
O13 C8 1.259 . S
O14 Tb2 2.374 . S
O14 C9 1.250 . S
O15 Tb0 2.353 . S
O15 C9 1.263 . S
C16 O17 1.275 . S
C16 O18 1.246 . S
O17 Tb0 2.427 . S
O17 C16 1.275 . S
O18 Tb0 2.513 . S
O18 C16 1.246 . S
C19 O3 1.245 . S
C19 O4 1.259 1_655 S
Tb20 O23 2.453 . S
Tb20 O24 2.596 . S
Tb20 O25 2.374 . S
Tb20 O33 2.343 . S
Tb20 O35 2.353 . S
Tb20 O37 2.427 1_545 S
Tb20 O38 2.513 1_545 S
C21 O25 1.251 . S
C21 O27 1.263 . S
Tb22 O24 2.343 . S
Tb22 O27 2.353 . S
Tb22 O30 2.427 . S
Tb22 O31 2.513 . S
Tb22 O32 2.453 . S
Tb22 O33 2.596 . S
Tb22 O34 2.374 . S
O23 Tb20 2.453 . S
O23 C39 1.245 . S
O24 Tb20 2.596 . S
O24 Tb22 2.343 . S
O24 C39 1.259 . S
O25 Tb20 2.374 . S
O25 C21 1.251 . S
C26 O30 1.275 . S
C26 O31 1.246 . S
O27 C21 1.263 . S
O27 Tb22 2.353 . S
C28 O32 1.245 1_565 S
C28 O33 1.259 1_565 S
C29 O34 1.250 . S
C29 O35 1.263 . S
O30 Tb22 2.427 . S
O30 C26 1.275 . S
O31 Tb22 2.513 . S
O31 C26 1.246 . S
O32 Tb22 2.453 . S
O32 C28 1.245 1_545 S
O33 Tb20 2.343 . S
O33 Tb22 2.596 . S
O33 C28 1.259 1_545 S
O34 Tb22 2.374 . S
O34 C29 1.250 . S
O35 Tb20 2.353 . S
O35 C29 1.263 . S
C36 O37 1.275 . S
C36 O38 1.246 . S
O37 Tb20 2.427 1_565 S
O37 C36 1.275 . S
O38 Tb20 2.513 1_565 S
O38 C36 1.246 . S
C39 O23 1.245 . S
C39 O24 1.259 . S
Tb40 O43 2.453 . S
Tb40 O44 2.596 . S
Tb40 O45 2.374 . S
Tb40 O53 2.343 . S
Tb40 O55 2.353 . S
Tb40 O57 2.427 . S
Tb40 O58 2.513 . S
C41 O45 1.251 . S
C41 O47 1.263 . S
Tb42 O44 2.343 . S
Tb42 O47 2.353 . S
Tb42 O50 2.427 . S
Tb42 O51 2.513 . S
Tb42 O52 2.453 . S
Tb42 O53 2.596 . S
Tb42 O54 2.374 . S
O43 Tb40 2.453 . S
O43 C59 1.245 . S
O44 Tb40 2.596 . S
O44 Tb42 2.343 . S
O44 C59 1.259 . S
O45 Tb40 2.374 . S
O45 C41 1.251 . S
C46 O50 1.275 . S
C46 O51 1.246 . S
O47 C41 1.263 . S
O47 Tb42 2.353 . S
C48 O52 1.245 . S
C48 O53 1.259 . S
C49 O54 1.250 . S
C49 O55 1.263 . S
O50 Tb42 2.427 . S
O50 C46 1.275 . S
O51 Tb42 2.513 . S
O51 C46 1.246 . S
O52 Tb42 2.453 . S
O52 C48 1.245 . S
O53 Tb40 2.343 . S
O53 Tb42 2.596 . S
O53 C48 1.259 . S
O54 Tb42 2.374 . S
O54 C49 1.250 . S
O55 Tb40 2.353 . S
O55 C49 1.263 . S
C56 O57 1.275 . S
C56 O58 1.246 . S
O57 Tb40 2.427 . S
O57 C56 1.275 . S
O58 Tb40 2.513 . S
O58 C56 1.246 . S
C59 O43 1.245 . S
C59 O44 1.259 . S
H60 C63 0.929 . S
H61 C66 0.929 . S
H62 C68 0.930 . S
C63 H60 0.929 . S
C63 C64 1.398 . S
C63 C65 1.396 . S
C64 C63 1.398 . S
C64 C68 1.407 . S
C65 C63 1.396 . S
C65 C66 1.394 . S
C66 H61 0.929 . S
C66 C65 1.394 . S
C66 C67 1.382 . S
C67 C66 1.382 . S
C67 C68 1.392 . S
C67 N69 1.420 . S
C68 H62 0.930 . S
C68 C64 1.407 . S
C68 C67 1.392 . S
N69 C67 1.420 . S
N69 C70 1.244 . S
C70 N69 1.244 . S
H71 C74 0.929 . S
H72 C77 0.929 . S
H73 C79 0.930 . S
C74 H71 0.929 . S
C74 C75 1.398 . S
C74 C76 1.396 . S
C75 C74 1.398 . S
C75 C79 1.407 . S
C76 C74 1.396 . S
C76 C77 1.394 . S
C77 H72 0.929 . S
C77 C76 1.394 . S
C77 C78 1.382 . S
C78 C77 1.382 . S
C78 C79 1.392 . S
C78 N80 1.420 . S
C79 H73 0.930 . S
C79 C75 1.407 . S
C79 C78 1.392 . S
N80 C78 1.420 . S
N80 C81 1.244 . S
C81 N80 1.244 . S
H82 C85 0.929 . S
H83 C88 0.929 . S
H84 C90 0.930 . S
C85 H82 0.929 . S
C85 C86 1.398 . S
C85 C87 1.396 . S
C86 C85 1.398 . S
C86 C90 1.407 . S
C87 C85 1.396 . S
C87 C88 1.394 . S
C88 H83 0.929 . S
C88 C87 1.394 . S
C88 C89 1.382 . S
C89 C88 1.382 . S
C89 C90 1.392 . S
C89 N91 1.420 . S
C90 H84 0.930 . S
C90 C86 1.407 . S
C90 C89 1.392 . S
N91 C89 1.420 . S
N91 C92 1.244 . S
C92 N91 1.244 . S
H93 C96 0.929 . S
H94 C99 0.929 . S
H95 C101 0.930 . S
C96 H93 0.929 . S
C96 C97 1.398 . S
C96 C98 1.396 . S
C97 C96 1.398 . S
C97 C101 1.407 . S
C98 C96 1.396 . S
C98 C99 1.394 1_455 S
C99 H94 0.929 . S
C99 C98 1.394 1_655 S
C99 C100 1.382 . S
C100 C99 1.382 . S
C100 C101 1.392 1_655 S
C100 N102 1.420 . S
C101 H95 0.930 . S
C101 C97 1.407 . S
C101 C100 1.392 1_455 S
N102 C100 1.420 . S
N102 C103 1.244 . S
C103 N102 1.244 . S
H104 C107 0.929 . S
H105 C110 0.929 1_565 S
H106 C112 0.930 . S
C107 H104 0.929 . S
C107 C108 1.398 . S
C107 C109 1.396 . S
C108 C107 1.398 . S
C108 C112 1.407 . S
C109 C107 1.396 . S
C109 C110 1.394 . S
C110 H105 0.929 1_545 S
C110 C109 1.394 . S
C110 C111 1.382 . S
C111 C110 1.382 . S
C111 C112 1.392 . S
C111 N113 1.420 . S
C112 H106 0.930 . S
C112 C108 1.407 . S
C112 C111 1.392 . S
N113 C111 1.420 . S
N113 C114 1.244 1_545 S
C114 N113 1.244 1_565 S
H115 C118 0.929 . S
H116 C121 0.929 . S
H117 C123 0.930 . S
C118 H115 0.929 . S
C118 C119 1.398 . S
C118 C120 1.396 . S
C119 C118 1.398 . S
C119 C123 1.407 . S
C120 C118 1.396 . S
C120 C121 1.394 . S
C121 H116 0.929 . S
C121 C120 1.394 . S
C121 C122 1.382 . S
C122 C121 1.382 . S
C122 C123 1.392 . S
C122 N124 1.420 . S
C123 H117 0.930 . S
C123 C119 1.407 . S
C123 C122 1.392 . S
N124 C122 1.420 . S
N124 C125 1.244 . S
C125 N124 1.244 . S
H126 C144 0.951 . S
H127 C146 0.951 . S
H128 C148 0.950 . S
H129 C149 0.950 . S
H130 C151 0.950 . S
H131 C154 0.950 . S
H132 C155 0.950 . S
H133 C157 0.950 . S
H134 C158 0.950 . S
H135 C159 0.951 . S
H136 C161 0.951 . S
H137 C163 0.950 . S
H138 C164 0.950 . S
H139 C166 0.950 . S
H140 C169 0.950 . S
H141 C170 0.950 . S
H142 C172 0.950 . S
H143 C173 0.950 . S
C144 H126 0.951 . S
C144 C145 1.366 . S
C144 C146 1.388 . S
C145 C144 1.366 . S
C145 C149 1.385 . S
C146 H127 0.951 . S
C146 C144 1.388 . S
C146 C147 1.366 . S
C147 C146 1.366 . S
C147 C148 1.414 . S
C147 C150 1.499 . S
C148 H128 0.950 . S
C148 C147 1.414 . S
C148 C149 1.374 . S
C149 H129 0.950 . S
C149 C145 1.385 . S
C149 C148 1.374 . S
C150 C147 1.499 . S
C150 C151 1.373 . S
C150 C152 1.389 . S
C151 H130 0.950 . S
C151 C150 1.373 . S
C151 C167 1.377 . S
C152 C150 1.389 . S
C152 C153 1.524 . S
C152 C166 1.377 . S
C153 C152 1.524 . S
C153 C154 1.397 . S
C153 C158 1.363 . S
C154 H131 0.950 . S
C154 C153 1.397 . S
C154 C155 1.334 . S
C155 H132 0.950 . S
C155 C154 1.334 . S
C155 C156 1.287 . S
C156 C155 1.287 . S
C156 C157 1.524 . S
C156 H175 0.913 . S
C157 H133 0.950 . S
C157 C156 1.524 . S
C157 C158 1.415 . S
C158 H134 0.950 . S
C158 C153 1.363 . S
C158 C157 1.415 . S
C159 H135 0.951 . S
C159 C160 1.366 . S
C159 C161 1.388 . S
C160 C159 1.366 . S
C160 C164 1.385 . S
C161 H136 0.951 . S
C161 C159 1.388 . S
C161 C162 1.366 . S
C162 C161 1.366 . S
C162 C163 1.414 . S
C162 C165 1.499 . S
C163 H137 0.950 . S
C163 C162 1.414 . S
C163 C164 1.374 . S
C164 H138 0.950 . S
C164 C160 1.385 . S
C164 C163 1.374 . S
C165 C162 1.499 . S
C165 C166 1.373 . S
C165 C167 1.389 . S
C166 H139 0.950 . S
C166 C152 1.377 . S
C166 C165 1.373 . S
C167 C151 1.377 . S
C167 C165 1.389 . S
C167 C168 1.524 . S
C168 C167 1.524 . S
C168 C169 1.397 . S
C168 C173 1.363 . S
C169 H140 0.950 . S
C169 C168 1.397 . S
C169 C170 1.334 . S
C170 H141 0.950 . S
C170 C169 1.334 . S
C170 C171 1.287 . S
C171 C170 1.287 . S
C171 C172 1.524 . S
C171 H174 0.999 . S
C172 H142 0.950 . S
C172 C171 1.524 . S
C172 C173 1.415 . S
C173 H143 0.950 . S
C173 C168 1.363 . S
C173 C172 1.415 . S
H174 C171 0.999 . S
H175 C156 0.913 . S
H176 C194 0.951 . S
H177 C196 0.951 . S
H178 C198 0.950 . S
H179 C199 0.950 . S
H180 C201 0.950 . S
H181 C204 0.950 . S
H182 C205 0.950 . S
H183 C207 0.950 . S
H184 C208 0.950 . S
H185 C209 0.951 . S
H186 C211 0.951 . S
H187 C213 0.950 . S
H188 C214 0.950 . S
H189 C216 0.950 . S
H190 C219 0.950 . S
H191 C220 0.950 . S
H192 C222 0.950 . S
H193 C223 0.950 . S
C194 H176 0.951 . S
C194 C195 1.366 . S
C194 C196 1.388 . S
C195 C194 1.366 . S
C195 C199 1.385 . S
C196 H177 0.951 . S
C196 C194 1.388 . S
C196 C197 1.366 . S
C197 C196 1.366 . S
C197 C198 1.414 . S
C197 C200 1.499 . S
C198 H178 0.950 . S
C198 C197 1.414 . S
C198 C199 1.374 . S
C199 H179 0.950 . S
C199 C195 1.385 . S
C199 C198 1.374 . S
C200 C197 1.499 . S
C200 C201 1.373 . S
C200 C202 1.389 . S
C201 H180 0.950 . S
C201 C200 1.373 . S
C201 C217 1.377 . S
C202 C200 1.389 . S
C202 C203 1.524 . S
C202 C216 1.377 . S
C203 C202 1.524 . S
C203 C204 1.397 . S
C203 C208 1.363 . S
C204 H181 0.950 . S
C204 C203 1.397 . S
C204 C205 1.334 . S
C205 H182 0.950 . S
C205 C204 1.334 . S
C205 C206 1.287 . S
C206 C205 1.287 . S
C206 C207 1.524 . S
C206 H225 0.913 . S
C207 H183 0.950 . S
C207 C206 1.524 . S
C207 C208 1.415 . S
C208 H184 0.950 . S
C208 C203 1.363 . S
C208 C207 1.415 . S
C209 H185 0.951 . S
C209 C210 1.366 . S
C209 C211 1.388 . S
C210 C209 1.366 . S
C210 C214 1.385 . S
C211 H186 0.951 . S
C211 C209 1.388 . S
C211 C212 1.366 . S
C212 C211 1.366 . S
C212 C213 1.414 . S
C212 C215 1.499 . S
C213 H187 0.950 . S
C213 C212 1.414 . S
C213 C214 1.374 . S
C214 H188 0.950 . S
C214 C210 1.385 . S
C214 C213 1.374 . S
C215 C212 1.499 . S
C215 C216 1.373 . S
C215 C217 1.389 . S
C216 H189 0.950 . S
C216 C202 1.377 . S
C216 C215 1.373 . S
C217 C201 1.377 . S
C217 C215 1.389 . S
C217 C218 1.524 . S
C218 C217 1.524 . S
C218 C219 1.397 . S
C218 C223 1.363 . S
C219 H190 0.950 . S
C219 C218 1.397 . S
C219 C220 1.334 . S
C220 H191 0.950 . S
C220 C219 1.334 . S
C220 C221 1.287 . S
C221 C220 1.287 . S
C221 C222 1.524 . S
C221 H224 0.999 . S
C222 H192 0.950 . S
C222 C221 1.524 . S
C222 C223 1.415 . S
C223 H193 0.950 . S
C223 C218 1.363 . S
C223 C222 1.415 . S
H224 C221 0.999 . S
H225 C206 0.913 . S
H226 C244 0.951 . S
H227 C246 0.951 . S
H228 C248 0.950 . S
H229 C249 0.950 . S
H230 C251 0.950 . S
H231 C254 0.950 . S
H232 C255 0.950 . S
H233 C257 0.950 . S
H234 C258 0.950 . S
H235 C259 0.951 . S
H236 C261 0.951 . S
H237 C263 0.950 . S
H238 C264 0.950 . S
H239 C266 0.950 . S
H240 C269 0.950 . S
H241 C270 0.950 . S
H242 C272 0.950 . S
H243 C273 0.950 . S
C244 H226 0.951 . S
C244 C245 1.366 . S
C244 C246 1.388 . S
C245 C244 1.366 . S
C245 C249 1.385 . S
C246 H227 0.951 . S
C246 C244 1.388 . S
C246 C247 1.366 . S
C247 C246 1.366 . S
C247 C248 1.414 . S
C247 C250 1.499 . S
C248 H228 0.950 . S
C248 C247 1.414 . S
C248 C249 1.374 . S
C249 H229 0.950 . S
C249 C245 1.385 . S
C249 C248 1.374 . S
C250 C247 1.499 . S
C250 C251 1.373 . S
C250 C252 1.389 . S
C251 H230 0.950 . S
C251 C250 1.373 . S
C251 C267 1.377 . S
C252 C250 1.389 . S
C252 C253 1.524 . S
C252 C266 1.377 . S
C253 C252 1.524 . S
C253 C254 1.397 . S
C253 C258 1.363 . S
C254 H231 0.950 . S
C254 C253 1.397 . S
C254 C255 1.334 . S
C255 H232 0.950 . S
C255 C254 1.334 . S
C255 C256 1.287 . S
C256 C255 1.287 . S
C256 C257 1.524 . S
C256 H275 0.913 . S
C257 H233 0.950 . S
C257 C256 1.524 . S
C257 C258 1.415 . S
C258 H234 0.950 . S
C258 C253 1.363 . S
C258 C257 1.415 . S
C259 H235 0.951 . S
C259 C260 1.366 . S
C259 C261 1.388 . S
C260 C259 1.366 . S
C260 C264 1.385 . S
C261 H236 0.951 . S
C261 C259 1.388 . S
C261 C262 1.366 . S
C262 C261 1.366 . S
C262 C263 1.414 . S
C262 C265 1.499 . S
C263 H237 0.950 . S
C263 C262 1.414 . S
C263 C264 1.374 . S
C264 H238 0.950 . S
C264 C260 1.385 . S
C264 C263 1.374 . S
C265 C262 1.499 . S
C265 C266 1.373 . S
C265 C267 1.389 . S
C266 H239 0.950 . S
C266 C252 1.377 . S
C266 C265 1.373 . S
C267 C251 1.377 . S
C267 C265 1.389 . S
C267 C268 1.524 . S
C268 C267 1.524 . S
C268 C269 1.397 . S
C268 C273 1.363 . S
C269 H240 0.950 . S
C269 C268 1.397 . S
C269 C270 1.334 . S
C270 H241 0.950 . S
C270 C269 1.334 . S
C270 C271 1.287 . S
C271 C270 1.287 . S
C271 C272 1.524 . S
C271 H274 0.999 . S
C272 H242 0.950 . S
C272 C271 1.524 . S
C272 C273 1.415 . S
C273 H243 0.950 . S
C273 C268 1.363 . S
C273 C272 1.415 . S
H274 C271 0.999 . S
H275 C256 0.913 . S
H276 C294 0.951 . S
H277 C296 0.951 . S
H278 C298 0.950 . S
H279 C299 0.950 . S
H280 C301 0.950 . S
H281 C304 0.950 . S
H282 C305 0.950 . S
H283 C307 0.950 . S
H284 C308 0.950 . S
H285 C309 0.951 . S
H286 C311 0.951 . S
H287 C313 0.950 . S
H288 C314 0.950 . S
H289 C316 0.950 . S
H290 C319 0.950 . S
H291 C320 0.950 . S
H292 C322 0.950 . S
H293 C323 0.950 . S
C294 H276 0.951 . S
C294 C295 1.366 . S
C294 C296 1.388 . S
C295 C294 1.366 . S
C295 C299 1.385 . S
C296 H277 0.951 . S
C296 C294 1.388 . S
C296 C297 1.366 . S
C297 C296 1.366 . S
C297 C298 1.414 . S
C297 C300 1.499 . S
C298 H278 0.950 . S
C298 C297 1.414 . S
C298 C299 1.374 . S
C299 H279 0.950 . S
C299 C295 1.385 . S
C299 C298 1.374 . S
C300 C297 1.499 . S
C300 C301 1.373 . S
C300 C302 1.389 . S
C301 H280 0.950 . S
C301 C300 1.373 . S
C301 C317 1.377 . S
C302 C300 1.389 . S
C302 C303 1.524 . S
C302 C316 1.377 . S
C303 C302 1.524 . S
C303 C304 1.397 . S
C303 C308 1.363 . S
C304 H281 0.950 . S
C304 C303 1.397 . S
C304 C305 1.334 . S
C305 H282 0.950 . S
C305 C304 1.334 . S
C305 C306 1.287 . S
C306 C305 1.287 . S
C306 C307 1.524 . S
C306 H325 0.913 . S
C307 H283 0.950 . S
C307 C306 1.524 . S
C307 C308 1.415 . S
C308 H284 0.950 . S
C308 C303 1.363 . S
C308 C307 1.415 . S
C309 H285 0.951 . S
C309 C310 1.366 . S
C309 C311 1.388 . S
C310 C309 1.366 . S
C310 C314 1.385 . S
C311 H286 0.951 . S
C311 C309 1.388 . S
C311 C312 1.366 . S
C312 C311 1.366 . S
C312 C313 1.414 . S
C312 C315 1.499 . S
C313 H287 0.950 . S
C313 C312 1.414 . S
C313 C314 1.374 . S
C314 H288 0.950 . S
C314 C310 1.385 . S
C314 C313 1.374 . S
C315 C312 1.499 . S
C315 C316 1.373 . S
C315 C317 1.389 . S
C316 H289 0.950 . S
C316 C302 1.377 . S
C316 C315 1.373 . S
C317 C301 1.377 . S
C317 C315 1.389 . S
C317 C318 1.524 . S
C318 C317 1.524 . S
C318 C319 1.397 . S
C318 C323 1.363 . S
C319 H290 0.950 . S
C319 C318 1.397 . S
C319 C320 1.334 . S
C320 H291 0.950 . S
C320 C319 1.334 . S
C320 C321 1.287 . S
C321 C320 1.287 . S
C321 C322 1.524 . S
C321 H324 0.999 . S
C322 H292 0.950 . S
C322 C321 1.524 . S
C322 C323 1.415 . S
C323 H293 0.950 . S
C323 C318 1.363 . S
C323 C322 1.415 . S
H324 C321 0.999 . S
H325 C306 0.913 . S
H326 C344 0.951 . S
H327 C346 0.951 . S
H328 C348 0.950 . S
H329 C349 0.950 . S
H330 C351 0.950 . S
H331 C354 0.950 . S
H332 C355 0.950 . S
H333 C357 0.950 . S
H334 C358 0.950 . S
H335 C359 0.951 . S
H336 C361 0.951 . S
H337 C363 0.950 . S
H338 C364 0.950 . S
H339 C366 0.950 . S
H340 C369 0.950 . S
H341 C370 0.950 . S
H342 C372 0.950 . S
H343 C373 0.950 . S
C344 H326 0.951 . S
C344 C345 1.366 . S
C344 C346 1.388 . S
C345 C344 1.366 . S
C345 C349 1.385 . S
C346 H327 0.951 . S
C346 C344 1.388 . S
C346 C347 1.366 . S
C347 C346 1.366 . S
C347 C348 1.414 . S
C347 C350 1.499 . S
C348 H328 0.950 . S
C348 C347 1.414 . S
C348 C349 1.374 . S
C349 H329 0.950 . S
C349 C345 1.385 . S
C349 C348 1.374 . S
C350 C347 1.499 . S
C350 C351 1.373 . S
C350 C352 1.389 . S
C351 H330 0.950 . S
C351 C350 1.373 . S
C351 C367 1.377 . S
C352 C350 1.389 . S
C352 C353 1.524 . S
C352 C366 1.377 . S
C353 C352 1.524 . S
C353 C354 1.397 . S
C353 C358 1.363 . S
C354 H331 0.950 . S
C354 C353 1.397 . S
C354 C355 1.334 . S
C355 H332 0.950 . S
C355 C354 1.334 . S
C355 C356 1.287 . S
C356 C355 1.287 . S
C356 C357 1.524 . S
C356 H375 0.913 . S
C357 H333 0.950 . S
C357 C356 1.524 . S
C357 C358 1.415 . S
C358 H334 0.950 . S
C358 C353 1.363 . S
C358 C357 1.415 . S
C359 H335 0.951 . S
C359 C360 1.366 . S
C359 C361 1.388 . S
C360 C359 1.366 . S
C360 C364 1.385 . S
C361 H336 0.951 . S
C361 C359 1.388 . S
C361 C362 1.366 . S
C362 C361 1.366 . S
C362 C363 1.414 . S
C362 C365 1.499 . S
C363 H337 0.950 . S
C363 C362 1.414 . S
C363 C364 1.374 . S
C364 H338 0.950 . S
C364 C360 1.385 . S
C364 C363 1.374 . S
C365 C362 1.499 . S
C365 C366 1.373 . S
C365 C367 1.389 . S
C366 H339 0.950 . S
C366 C352 1.377 . S
C366 C365 1.373 . S
C367 C351 1.377 . S
C367 C365 1.389 . S
C367 C368 1.524 . S
C368 C367 1.524 . S
C368 C369 1.397 . S
C368 C373 1.363 . S
C369 H340 0.950 . S
C369 C368 1.397 . S
C369 C370 1.334 . S
C370 H341 0.950 . S
C370 C369 1.334 . S
C370 C371 1.287 . S
C371 C370 1.287 . S
C371 C372 1.524 . S
C371 H374 0.999 . S
C372 H342 0.950 . S
C372 C371 1.524 . S
C372 C373 1.415 . S
C373 H343 0.950 . S
C373 C368 1.363 . S
C373 C372 1.415 . S
H374 C371 0.999 . S
H375 C356 0.913 . S
H376 C394 0.951 . S
H377 C396 0.951 . S
H378 C398 0.950 . S
H379 C399 0.950 . S
H380 C401 0.950 . S
H381 C404 0.950 . S
H382 C405 0.950 . S
H383 C407 0.950 . S
H384 C408 0.950 . S
H385 C409 0.951 . S
H386 C411 0.951 . S
H387 C413 0.950 . S
H388 C414 0.950 . S
H389 C416 0.950 . S
H390 C419 0.950 . S
H391 C420 0.950 . S
H392 C422 0.950 . S
H393 C423 0.950 . S
C394 H376 0.951 . S
C394 C395 1.366 . S
C394 C396 1.388 . S
C395 C394 1.366 . S
C395 C399 1.385 . S
C396 H377 0.951 . S
C396 C394 1.388 . S
C396 C397 1.366 . S
C397 C396 1.366 . S
C397 C398 1.414 . S
C397 C400 1.499 . S
C398 H378 0.950 . S
C398 C397 1.414 . S
C398 C399 1.374 . S
C399 H379 0.950 . S
C399 C395 1.385 . S
C399 C398 1.374 . S
C400 C397 1.499 . S
C400 C401 1.373 . S
C400 C402 1.389 . S
C401 H380 0.950 . S
C401 C400 1.373 . S
C401 C417 1.377 . S
C402 C400 1.389 . S
C402 C403 1.524 . S
C402 C416 1.377 . S
C403 C402 1.524 . S
C403 C404 1.397 . S
C403 C408 1.363 . S
C404 H381 0.950 . S
C404 C403 1.397 . S
C404 C405 1.334 . S
C405 H382 0.950 . S
C405 C404 1.334 . S
C405 C406 1.287 . S
C406 C405 1.287 . S
C406 C407 1.524 . S
C406 H425 0.913 . S
C407 H383 0.950 . S
C407 C406 1.524 . S
C407 C408 1.415 . S
C408 H384 0.950 . S
C408 C403 1.363 . S
C408 C407 1.415 . S
C409 H385 0.951 . S
C409 C410 1.366 . S
C409 C411 1.388 . S
C410 C409 1.366 . S
C410 C414 1.385 . S
C411 H386 0.951 . S
C411 C409 1.388 . S
C411 C412 1.366 . S
C412 C411 1.366 . S
C412 C413 1.414 . S
C412 C415 1.499 . S
C413 H387 0.950 . S
C413 C412 1.414 . S
C413 C414 1.374 . S
C414 H388 0.950 . S
C414 C410 1.385 . S
C414 C413 1.374 . S
C415 C412 1.499 . S
C415 C416 1.373 . S
C415 C417 1.389 . S
C416 H389 0.950 . S
C416 C402 1.377 . S
C416 C415 1.373 . S
C417 C401 1.377 . S
C417 C415 1.389 . S
C417 C418 1.524 . S
C418 C417 1.524 . S
C418 C419 1.397 . S
C418 C423 1.363 . S
C419 H390 0.950 . S
C419 C418 1.397 . S
C419 C420 1.334 . S
C420 H391 0.950 . S
C420 C419 1.334 . S
C420 C421 1.287 . S
C421 C420 1.287 . S
C421 C422 1.524 . S
C421 H424 0.999 . S
C422 H392 0.950 . S
C422 C421 1.524 . S
C422 C423 1.415 . S
C423 H393 0.950 . S
C423 C418 1.363 . S
C423 C422 1.415 . S
H424 C421 0.999 . S
H425 C406 0.913 . S
H426 C444 0.951 . S
H427 C446 0.951 . S
H428 C448 0.950 . S
H429 C449 0.950 . S
H430 C451 0.950 . S
H431 C454 0.950 . S
H432 C455 0.950 . S
H433 C457 0.950 . S
H434 C458 0.950 . S
H435 C459 0.951 . S
H436 C461 0.951 . S
H437 C463 0.950 . S
H438 C464 0.950 . S
H439 C466 0.950 . S
H440 C469 0.950 . S
H441 C470 0.950 . S
H442 C472 0.950 . S
H443 C473 0.950 . S
C444 H426 0.951 . S
C444 C445 1.366 . S
C444 C446 1.388 . S
C445 C444 1.366 . S
C445 C449 1.385 . S
C446 H427 0.951 . S
C446 C444 1.388 . S
C446 C447 1.366 . S
C447 C446 1.366 . S
C447 C448 1.414 . S
C447 C450 1.499 . S
C448 H428 0.950 . S
C448 C447 1.414 . S
C448 C449 1.374 . S
C449 H429 0.950 . S
C449 C445 1.385 . S
C449 C448 1.374 . S
C450 C447 1.499 . S
C450 C451 1.373 . S
C450 C452 1.389 . S
C451 H430 0.950 . S
C451 C450 1.373 . S
C451 C467 1.377 . S
C452 C450 1.389 . S
C452 C453 1.524 . S
C452 C466 1.377 . S
C453 C452 1.524 . S
C453 C454 1.397 . S
C453 C458 1.363 . S
C454 H431 0.950 . S
C454 C453 1.397 . S
C454 C455 1.334 . S
C455 H432 0.950 . S
C455 C454 1.334 . S
C455 C456 1.287 . S
C456 C455 1.287 . S
C456 C457 1.524 . S
C456 H475 0.913 . S
C457 H433 0.950 . S
C457 C456 1.524 . S
C457 C458 1.415 . S
C458 H434 0.950 . S
C458 C453 1.363 . S
C458 C457 1.415 . S
C459 H435 0.951 . S
C459 C460 1.366 . S
C459 C461 1.388 . S
C460 C459 1.366 . S
C460 C464 1.385 . S
C461 H436 0.951 . S
C461 C459 1.388 . S
C461 C462 1.366 . S
C462 C461 1.366 . S
C462 C463 1.414 . S
C462 C465 1.499 . S
C463 H437 0.950 . S
C463 C462 1.414 . S
C463 C464 1.374 . S
C464 H438 0.950 . S
C464 C460 1.385 . S
C464 C463 1.374 . S
C465 C462 1.499 . S
C465 C466 1.373 . S
C465 C467 1.389 . S
C466 H439 0.950 . S
C466 C452 1.377 . S
C466 C465 1.373 . S
C467 C451 1.377 . S
C467 C465 1.389 . S
C467 C468 1.524 . S
C468 C467 1.524 . S
C468 C469 1.397 . S
C468 C473 1.363 . S
C469 H440 0.950 . S
C469 C468 1.397 . S
C469 C470 1.334 . S
C470 H441 0.950 . S
C470 C469 1.334 . S
C470 C471 1.287 . S
C471 C470 1.287 . S
C471 C472 1.524 . S
C471 H474 0.999 . S
C472 H442 0.950 . S
C472 C471 1.524 . S
C472 C473 1.415 . S
C473 H443 0.950 . S
C473 C468 1.363 . S
C473 C472 1.415 . S
H474 C471 0.999 . S
H475 C456 0.913 . S
H476 C494 0.951 . S
H477 C496 0.951 . S
H478 C498 0.950 . S
H479 C499 0.950 . S
H480 C501 0.950 . S
H481 C504 0.950 . S
H482 C505 0.950 . S
H483 C507 0.950 . S
H484 C508 0.950 . S
H485 C509 0.951 1_455 S
H486 C511 0.951 . S
H487 C513 0.950 . S
H488 C514 0.950 . S
H489 C516 0.950 . S
H490 C519 0.950 . S
H491 C520 0.950 . S
H492 C522 0.950 . S
H493 C523 0.950 . S
C494 H476 0.951 . S
C494 C495 1.366 . S
C494 C496 1.388 . S
C495 C494 1.366 . S
C495 C499 1.385 . S
C496 H477 0.951 . S
C496 C494 1.388 . S
C496 C497 1.366 . S
C497 C496 1.366 . S
C497 C498 1.414 . S
C497 C500 1.499 . S
C498 H478 0.950 . S
C498 C497 1.414 . S
C498 C499 1.374 . S
C499 H479 0.950 . S
C499 C495 1.385 . S
C499 C498 1.374 . S
C500 C497 1.499 . S
C500 C501 1.373 . S
C500 C502 1.389 . S
C501 H480 0.950 . S
C501 C500 1.373 . S
C501 C517 1.377 . S
C502 C500 1.389 . S
C502 C503 1.524 . S
C502 C516 1.377 . S
C503 C502 1.524 . S
C503 C504 1.397 . S
C503 C508 1.363 . S
C504 H481 0.950 . S
C504 C503 1.397 . S
C504 C505 1.334 . S
C505 H482 0.950 . S
C505 C504 1.334 . S
C505 C506 1.287 . S
C506 C505 1.287 . S
C506 C507 1.524 . S
C506 H525 0.913 . S
C507 H483 0.950 . S
C507 C506 1.524 . S
C507 C508 1.415 . S
C508 H484 0.950 . S
C508 C503 1.363 . S
C508 C507 1.415 . S
C509 H485 0.951 1_655 S
C509 C510 1.366 1_655 S
C509 C511 1.388 . S
C510 C509 1.366 1_455 S
C510 C514 1.385 . S
C511 H486 0.951 . S
C511 C509 1.388 . S
C511 C512 1.366 . S
C512 C511 1.366 . S
C512 C513 1.414 . S
C512 C515 1.499 . S
C513 H487 0.950 . S
C513 C512 1.414 . S
C513 C514 1.374 1_655 S
C514 H488 0.950 . S
C514 C510 1.385 . S
C514 C513 1.374 1_455 S
C515 C512 1.499 . S
C515 C516 1.373 . S
C515 C517 1.389 . S
C516 H489 0.950 . S
C516 C502 1.377 . S
C516 C515 1.373 . S
C517 C501 1.377 . S
C517 C515 1.389 . S
C517 C518 1.524 . S
C518 C517 1.524 . S
C518 C519 1.397 . S
C518 C523 1.363 . S
C519 H490 0.950 . S
C519 C518 1.397 . S
C519 C520 1.334 . S
C520 H491 0.950 . S
C520 C519 1.334 . S
C520 C521 1.287 . S
C521 C520 1.287 . S
C521 C522 1.524 . S
C521 H524 0.999 . S
C522 H492 0.950 . S
C522 C521 1.524 . S
C522 C523 1.415 . S
C523 H493 0.950 . S
C523 C518 1.363 . S
C523 C522 1.415 . S
H524 C521 0.999 . S
H525 C506 0.913 . S
H526 C544 0.951 . S
H527 C546 0.951 . S
H528 C548 0.950 . S
H529 C549 0.950 . S
H530 C551 0.950 . S
H531 C554 0.950 . S
H532 C555 0.950 . S
H533 C557 0.950 . S
H534 C558 0.950 . S
H535 C559 0.951 . S
H536 C561 0.951 . S
H537 C563 0.950 . S
H538 C564 0.950 1_545 S
H539 C566 0.950 . S
H540 C569 0.950 . S
H541 C570 0.950 . S
H542 C572 0.950 . S
H543 C573 0.950 . S
C544 H526 0.951 . S
C544 C545 1.366 . S
C544 C546 1.388 . S
C545 C544 1.366 . S
C545 C549 1.385 . S
C546 H527 0.951 . S
C546 C544 1.388 . S
C546 C547 1.366 . S
C547 C546 1.366 . S
C547 C548 1.414 . S
C547 C550 1.499 . S
C548 H528 0.950 . S
C548 C547 1.414 . S
C548 C549 1.374 . S
C549 H529 0.950 . S
C549 C545 1.385 . S
C549 C548 1.374 . S
C550 C547 1.499 . S
C550 C551 1.373 . S
C550 C552 1.389 . S
C551 H530 0.950 . S
C551 C550 1.373 . S
C551 C567 1.377 . S
C552 C550 1.389 . S
C552 C553 1.524 . S
C552 C566 1.377 . S
C553 C552 1.524 . S
C553 C554 1.397 . S
C553 C558 1.363 . S
C554 H531 0.950 . S
C554 C553 1.397 . S
C554 C555 1.334 . S
C555 H532 0.950 . S
C555 C554 1.334 . S
C555 C556 1.287 . S
C556 C555 1.287 . S
C556 C557 1.524 . S
C556 H575 0.913 . S
C557 H533 0.950 . S
C557 C556 1.524 . S
C557 C558 1.415 . S
C558 H534 0.950 . S
C558 C553 1.363 . S
C558 C557 1.415 . S
C559 H535 0.951 . S
C559 C560 1.366 . S
C559 C561 1.388 . S
C560 C559 1.366 . S
C560 C564 1.385 . S
C561 H536 0.951 . S
C561 C559 1.388 . S
C561 C562 1.366 . S
C562 C561 1.366 . S
C562 C563 1.414 . S
C562 C565 1.499 . S
C563 H537 0.950 . S
C563 C562 1.414 . S
C563 C564 1.374 . S
C564 H538 0.950 1_565 S
C564 C560 1.385 . S
C564 C563 1.374 . S
C565 C562 1.499 . S
C565 C566 1.373 . S
C565 C567 1.389 . S
C566 H539 0.950 . S
C566 C552 1.377 . S
C566 C565 1.373 . S
C567 C551 1.377 . S
C567 C565 1.389 . S
C567 C568 1.524 . S
C568 C567 1.524 . S
C568 C569 1.397 . S
C568 C573 1.363 . S
C569 H540 0.950 . S
C569 C568 1.397 . S
C569 C570 1.334 . S
C570 H541 0.950 . S
C570 C569 1.334 . S
C570 C571 1.287 . S
C571 C570 1.287 . S
C571 C572 1.524 . S
C571 H574 0.999 . S
C572 H542 0.950 . S
C572 C571 1.524 . S
C572 C573 1.415 . S
C573 H543 0.950 . S
C573 C568 1.363 . S
C573 C572 1.415 . S
H574 C571 0.999 . S
H575 C556 0.913 . S
H576 C594 0.951 . S
H577 C596 0.951 . S
H578 C598 0.950 . S
H579 C599 0.950 . S
H580 C601 0.950 . S
H581 C604 0.950 . S
H582 C605 0.950 . S
H583 C607 0.950 . S
H584 C608 0.950 . S
H585 C609 0.951 . S
H586 C611 0.951 . S
H587 C613 0.950 . S
H588 C614 0.950 . S
H589 C616 0.950 . S
H590 C619 0.950 . S
H591 C620 0.950 . S
H592 C622 0.950 . S
H593 C623 0.950 . S
C594 H576 0.951 . S
C594 C595 1.366 . S
C594 C596 1.388 . S
C595 C594 1.366 . S
C595 C599 1.385 . S
C596 H577 0.951 . S
C596 C594 1.388 . S
C596 C597 1.366 . S
C597 C596 1.366 . S
C597 C598 1.414 . S
C597 C600 1.499 . S
C598 H578 0.950 . S
C598 C597 1.414 . S
C598 C599 1.374 . S
C599 H579 0.950 . S
C599 C595 1.385 . S
C599 C598 1.374 . S
C600 C597 1.499 . S
C600 C601 1.373 . S
C600 C602 1.389 . S
C601 H580 0.950 . S
C601 C600 1.373 . S
C601 C617 1.377 . S
C602 C600 1.389 . S
C602 C603 1.524 . S
C602 C616 1.377 . S
C603 C602 1.524 . S
C603 C604 1.397 . S
C603 C608 1.363 . S
C604 H581 0.950 . S
C604 C603 1.397 . S
C604 C605 1.334 . S
C605 H582 0.950 . S
C605 C604 1.334 . S
C605 C606 1.287 . S
C606 C605 1.287 . S
C606 C607 1.524 . S
C606 H625 0.913 . S
C607 H583 0.950 . S
C607 C606 1.524 . S
C607 C608 1.415 . S
C608 H584 0.950 . S
C608 C603 1.363 . S
C608 C607 1.415 . S
C609 H585 0.951 . S
C609 C610 1.366 . S
C609 C611 1.388 . S
C610 C609 1.366 . S
C610 C614 1.385 . S
C611 H586 0.951 . S
C611 C609 1.388 . S
C611 C612 1.366 . S
C612 C611 1.366 . S
C612 C613 1.414 . S
C612 C615 1.499 . S
C613 H587 0.950 . S
C613 C612 1.414 . S
C613 C614 1.374 . S
C614 H588 0.950 . S
C614 C610 1.385 . S
C614 C613 1.374 . S
C615 C612 1.499 . S
C615 C616 1.373 . S
C615 C617 1.389 . S
C616 H589 0.950 . S
C616 C602 1.377 . S
C616 C615 1.373 . S
C617 C601 1.377 . S
C617 C615 1.389 . S
C617 C618 1.524 . S
C618 C617 1.524 . S
C618 C619 1.397 . S
C618 C623 1.363 . S
C619 H590 0.950 . S
C619 C618 1.397 . S
C619 C620 1.334 . S
C620 H591 0.950 . S
C620 C619 1.334 . S
C620 C621 1.287 . S
C621 C620 1.287 . S
C621 C622 1.524 . S
C621 H624 0.999 . S
C622 H592 0.950 . S
C622 C621 1.524 . S
C622 C623 1.415 . S
C623 H593 0.950 . S
C623 C618 1.363 . S
C623 C622 1.415 . S
H624 C621 0.999 . S
H625 C606 0.913 . S
H626 C644 0.951 . S
H627 C646 0.951 . S
H628 C648 0.950 . S
H629 C649 0.950 . S
H630 C651 0.950 . S
H631 C654 0.950 . S
H632 C655 0.950 . S
H633 C657 0.950 . S
H634 C658 0.950 . S
H635 C659 0.951 . S
H636 C661 0.951 . S
H637 C663 0.950 . S
H638 C664 0.950 . S
H639 C666 0.950 . S
H640 C669 0.950 . S
H641 C670 0.950 . S
H642 C672 0.950 . S
H643 C673 0.950 . S
C644 H626 0.951 . S
C644 C645 1.366 . S
C644 C646 1.388 . S
C645 C644 1.366 . S
C645 C649 1.385 . S
C646 H627 0.951 . S
C646 C644 1.388 . S
C646 C647 1.366 . S
C647 C646 1.366 . S
C647 C648 1.414 . S
C647 C650 1.499 . S
C648 H628 0.950 . S
C648 C647 1.414 . S
C648 C649 1.374 . S
C649 H629 0.950 . S
C649 C645 1.385 . S
C649 C648 1.374 . S
C650 C647 1.499 . S
C650 C651 1.373 . S
C650 C652 1.389 . S
C651 H630 0.950 . S
C651 C650 1.373 . S
C651 C667 1.377 . S
C652 C650 1.389 . S
C652 C653 1.524 . S
C652 C666 1.377 . S
C653 C652 1.524 . S
C653 C654 1.397 . S
C653 C658 1.363 . S
C654 H631 0.950 . S
C654 C653 1.397 . S
C654 C655 1.334 . S
C655 H632 0.950 . S
C655 C654 1.334 . S
C655 C656 1.287 . S
C656 C655 1.287 . S
C656 C657 1.524 . S
C656 H675 0.913 . S
C657 H633 0.950 . S
C657 C656 1.524 . S
C657 C658 1.415 . S
C658 H634 0.950 . S
C658 C653 1.363 . S
C658 C657 1.415 . S
C659 H635 0.951 . S
C659 C660 1.366 . S
C659 C661 1.388 . S
C660 C659 1.366 . S
C660 C664 1.385 . S
C661 H636 0.951 . S
C661 C659 1.388 . S
C661 C662 1.366 . S
C662 C661 1.366 . S
C662 C663 1.414 . S
C662 C665 1.499 . S
C663 H637 0.950 . S
C663 C662 1.414 . S
C663 C664 1.374 . S
C664 H638 0.950 . S
C664 C660 1.385 . S
C664 C663 1.374 . S
C665 C662 1.499 . S
C665 C666 1.373 . S
C665 C667 1.389 . S
C666 H639 0.950 . S
C666 C652 1.377 . S
C666 C665 1.373 . S
C667 C651 1.377 . S
C667 C665 1.389 . S
C667 C668 1.524 . S
C668 C667 1.524 . S
C668 C669 1.397 . S
C668 C673 1.363 . S
C669 H640 0.950 . S
C669 C668 1.397 . S
C669 C670 1.334 . S
C670 H641 0.950 . S
C670 C669 1.334 . S
C670 C671 1.287 . S
C671 C670 1.287 . S
C671 C672 1.524 . S
C671 H674 0.999 . S
C672 H642 0.950 . S
C672 C671 1.524 . S
C672 C673 1.415 . S
C673 H643 0.950 . S
C673 C668 1.363 . S
C673 C672 1.415 . S
H674 C671 0.999 . S
H675 C656 0.913 . S
H676 C694 0.951 . S
H677 C696 0.951 . S
H678 C698 0.950 . S
H679 C699 0.950 . S
H680 C701 0.950 . S
H681 C704 0.950 . S
H682 C705 0.950 . S
H683 C707 0.950 . S
H684 C708 0.950 . S
H685 C709 0.951 . S
H686 C711 0.951 . S
H687 C713 0.950 . S
H688 C714 0.950 . S
H689 C716 0.950 . S
H690 C719 0.950 . S
H691 C720 0.950 . S
H692 C722 0.950 . S
H693 C723 0.950 . S
C694 H676 0.951 . S
C694 C695 1.366 . S
C694 C696 1.388 . S
C695 C694 1.366 . S
C695 C699 1.385 . S
C696 H677 0.951 . S
C696 C694 1.388 . S
C696 C697 1.366 . S
C697 C696 1.366 . S
C697 C698 1.414 . S
C697 C700 1.499 . S
C698 H678 0.950 . S
C698 C697 1.414 . S
C698 C699 1.374 . S
C699 H679 0.950 . S
C699 C695 1.385 . S
C699 C698 1.374 . S
C700 C697 1.499 . S
C700 C701 1.373 . S
C700 C702 1.389 . S
C701 H680 0.950 . S
C701 C700 1.373 . S
C701 C717 1.377 . S
C702 C700 1.389 . S
C702 C703 1.524 . S
C702 C716 1.377 . S
C703 C702 1.524 . S
C703 C704 1.397 . S
C703 C708 1.363 . S
C704 H681 0.950 . S
C704 C703 1.397 . S
C704 C705 1.334 . S
C705 H682 0.950 . S
C705 C704 1.334 . S
C705 C706 1.287 . S
C706 C705 1.287 . S
C706 C707 1.524 . S
C706 H725 0.913 . S
C707 H683 0.950 . S
C707 C706 1.524 . S
C707 C708 1.415 . S
C708 H684 0.950 . S
C708 C703 1.363 . S
C708 C707 1.415 . S
C709 H685 0.951 . S
C709 C710 1.366 . S
C709 C711 1.388 . S
C710 C709 1.366 . S
C710 C714 1.385 . S
C711 H686 0.951 . S
C711 C709 1.388 . S
C711 C712 1.366 . S
C712 C711 1.366 . S
C712 C713 1.414 . S
C712 C715 1.499 . S
C713 H687 0.950 . S
C713 C712 1.414 . S
C713 C714 1.374 . S
C714 H688 0.950 . S
C714 C710 1.385 . S
C714 C713 1.374 . S
C715 C712 1.499 . S
C715 C716 1.373 . S
C715 C717 1.389 . S
C716 H689 0.950 . S
C716 C702 1.377 . S
C716 C715 1.373 . S
C717 C701 1.377 . S
C717 C715 1.389 . S
C717 C718 1.524 . S
C718 C717 1.524 . S
C718 C719 1.397 . S
C718 C723 1.363 . S
C719 H690 0.950 . S
C719 C718 1.397 . S
C719 C720 1.334 . S
C720 H691 0.950 . S
C720 C719 1.334 . S
C720 C721 1.287 . S
C721 C720 1.287 . S
C721 C722 1.524 . S
C721 H724 0.999 . S
C722 H692 0.950 . S
C722 C721 1.524 . S
C722 C723 1.415 . S
C723 H693 0.950 . S
C723 C718 1.363 . S
C723 C722 1.415 . S
H724 C721 0.999 . S
H725 C706 0.913 . S
H726 C744 0.951 . S
H727 C746 0.951 . S
H728 C748 0.950 . S
H729 C749 0.950 . S
H730 C751 0.950 . S
H731 C754 0.950 1_655 S
H732 C755 0.950 . S
H733 C757 0.950 . S
H734 C758 0.950 . S
H735 C759 0.951 . S
H736 C761 0.951 . S
H737 C763 0.950 . S
H738 C764 0.950 . S
H739 C766 0.950 . S
H740 C769 0.950 . S
H741 C770 0.950 . S
H742 C772 0.950 . S
H743 C773 0.950 . S
C744 H726 0.951 . S
C744 C745 1.366 . S
C744 C746 1.388 . S
C745 C744 1.366 . S
C745 C749 1.385 . S
C746 H727 0.951 . S
C746 C744 1.388 . S
C746 C747 1.366 . S
C747 C746 1.366 . S
C747 C748 1.414 . S
C747 C750 1.499 . S
C748 H728 0.950 . S
C748 C747 1.414 . S
C748 C749 1.374 . S
C749 H729 0.950 . S
C749 C745 1.385 . S
C749 C748 1.374 . S
C750 C747 1.499 . S
C750 C751 1.373 . S
C750 C752 1.389 . S
C751 H730 0.950 . S
C751 C750 1.373 . S
C751 C767 1.322 1_554 S
C752 C750 1.389 . S
C752 C753 1.524 . S
C752 C766 1.377 1_554 S
C753 C752 1.524 . S
C753 C754 1.397 . S
C753 C758 1.363 . S
C754 H731 0.950 1_455 S
C754 C753 1.397 . S
C754 C755 1.334 1_455 S
C755 H732 0.950 . S
C755 C754 1.334 1_655 S
C755 C756 1.289 1_655 S
C756 C755 1.289 1_455 S
C756 C757 1.547 . S
C756 H775 0.887 1_455 S
C757 H733 0.950 . S
C757 C756 1.547 . S
C757 C758 1.415 . S
C758 H734 0.950 . S
C758 C753 1.363 . S
C758 C757 1.415 . S
C759 H735 0.951 . S
C759 C760 1.366 . S
C759 C761 1.388 . S
C760 C759 1.366 . S
C760 C764 1.385 . S
C761 H736 0.951 . S
C761 C759 1.388 . S
C761 C762 1.366 . S
C762 C761 1.366 . S
C762 C763 1.414 . S
C762 C765 1.499 . S
C763 H737 0.950 . S
C763 C762 1.414 . S
C763 C764 1.374 . S
C764 H738 0.950 . S
C764 C760 1.385 . S
C764 C763 1.374 . S
C765 C762 1.499 . S
C765 C766 1.373 . S
C765 C767 1.425 . S
C766 H739 0.950 . S
C766 C752 1.377 1_556 S
C766 C765 1.373 . S
C767 C751 1.322 1_556 S
C767 C765 1.425 . S
C767 C768 1.543 . S
C768 C767 1.543 . S
C768 C769 1.397 . S
C768 C773 1.363 . S
C769 H740 0.950 . S
C769 C768 1.397 . S
C769 C770 1.334 . S
C770 H741 0.950 . S
C770 C769 1.334 . S
C770 C771 1.287 . S
C771 C770 1.287 . S
C771 C772 1.524 . S
C771 H774 0.999 . S
C772 H742 0.950 . S
C772 C771 1.524 . S
C772 C773 1.415 . S
C773 H743 0.950 . S
C773 C768 1.363 . S
C773 C772 1.415 . S
H774 C771 0.999 . S
H775 C756 0.887 1_655 S
H776 C794 0.951 . S
H777 C796 0.951 . S
H778 C798 0.950 . S
H779 C799 0.950 . S
H780 C801 0.950 . S
H781 C804 0.950 . S
H782 C805 0.950 . S
H783 C807 0.950 1_565 S
H784 C808 0.950 1_565 S
H785 C809 0.951 . S
H786 C811 0.951 . S
H787 C813 0.950 . S
H788 C814 0.950 . S
H789 C816 0.950 . S
H790 C819 0.950 . S
H791 C820 0.950 . S
H792 C822 0.950 . S
H793 C823 0.950 . S
C794 H776 0.951 . S
C794 C795 1.366 . S
C794 C796 1.388 . S
C795 C794 1.366 . S
C795 C799 1.385 . S
C796 H777 0.951 . S
C796 C794 1.388 . S
C796 C797 1.366 . S
C797 C796 1.366 . S
C797 C798 1.414 . S
C797 C800 1.499 . S
C798 H778 0.950 . S
C798 C797 1.414 . S
C798 C799 1.374 . S
C799 H779 0.950 . S
C799 C795 1.385 . S
C799 C798 1.374 . S
C800 C797 1.499 . S
C800 C801 1.373 . S
C800 C802 1.389 . S
C801 H780 0.950 . S
C801 C800 1.373 . S
C801 C817 1.377 . S
C802 C800 1.389 . S
C802 C803 1.524 . S
C802 C816 1.377 . S
C803 C802 1.524 . S
C803 C804 1.397 . S
C803 C808 1.363 . S
C804 H781 0.950 . S
C804 C803 1.397 . S
C804 C805 1.334 . S
C805 H782 0.950 . S
C805 C804 1.334 . S
C805 C806 1.287 . S
C806 C805 1.287 . S
C806 C807 1.524 . S
C806 H825 0.913 . S
C807 H783 0.950 1_545 S
C807 C806 1.524 . S
C807 C808 1.415 . S
C808 H784 0.950 1_545 S
C808 C803 1.363 . S
C808 C807 1.415 . S
C809 H785 0.951 . S
C809 C810 1.366 . S
C809 C811 1.388 . S
C810 C809 1.366 . S
C810 C814 1.385 . S
C811 H786 0.951 . S
C811 C809 1.388 . S
C811 C812 1.366 . S
C812 C811 1.366 . S
C812 C813 1.414 . S
C812 C815 1.499 . S
C813 H787 0.950 . S
C813 C812 1.414 . S
C813 C814 1.374 . S
C814 H788 0.950 . S
C814 C810 1.385 . S
C814 C813 1.374 . S
C815 C812 1.499 . S
C815 C816 1.373 . S
C815 C817 1.389 . S
C816 H789 0.950 . S
C816 C802 1.377 . S
C816 C815 1.373 . S
C817 C801 1.377 . S
C817 C815 1.389 . S
C817 C818 1.524 . S
C818 C817 1.524 . S
C818 C819 1.397 . S
C818 C823 1.363 . S
C819 H790 0.950 . S
C819 C818 1.397 . S
C819 C820 1.334 . S
C820 H791 0.950 . S
C820 C819 1.334 . S
C820 C821 1.287 . S
C821 C820 1.287 . S
C821 C822 1.524 . S
C821 H824 0.999 . S
C822 H792 0.950 . S
C822 C821 1.524 . S
C822 C823 1.415 . S
C823 H793 0.950 . S
C823 C818 1.363 . S
C823 C822 1.415 . S
H824 C821 0.999 . S
H825 C806 0.913 . S
H826 C844 0.951 . S
H827 C846 0.951 . S
H828 C848 0.950 . S
H829 C849 0.950 . S
H830 C851 0.950 . S
H831 C854 0.950 . S
H832 C855 0.950 . S
H833 C857 0.950 . S
H834 C858 0.950 . S
H835 C859 0.951 . S
H836 C861 0.951 . S
H837 C863 0.950 . S
H838 C864 0.950 . S
H839 C866 0.950 . S
H840 C869 0.950 . S
H841 C870 0.950 . S
H842 C872 0.950 . S
H843 C873 0.950 . S
C844 H826 0.951 . S
C844 C845 1.366 . S
C844 C846 1.388 . S
C845 C844 1.366 . S
C845 C849 1.385 . S
C846 H827 0.951 . S
C846 C844 1.388 . S
C846 C847 1.366 . S
C847 C846 1.366 . S
C847 C848 1.414 . S
C847 C850 1.499 . S
C848 H828 0.950 . S
C848 C847 1.414 . S
C848 C849 1.374 . S
C849 H829 0.950 . S
C849 C845 1.385 . S
C849 C848 1.374 . S
C850 C847 1.499 . S
C850 C851 1.373 . S
C850 C852 1.389 . S
C851 H830 0.950 . S
C851 C850 1.373 . S
C851 C867 1.377 . S
C852 C850 1.389 . S
C852 C853 1.524 . S
C852 C866 1.377 . S
C853 C852 1.524 . S
C853 C854 1.397 . S
C853 C858 1.363 . S
C854 H831 0.950 . S
C854 C853 1.397 . S
C854 C855 1.334 . S
C855 H832 0.950 . S
C855 C854 1.334 . S
C855 C856 1.287 . S
C856 C855 1.287 . S
C856 C857 1.524 . S
C856 H875 0.913 . S
C857 H833 0.950 . S
C857 C856 1.524 . S
C857 C858 1.415 . S
C858 H834 0.950 . S
C858 C853 1.363 . S
C858 C857 1.415 . S
C859 H835 0.951 . S
C859 C860 1.366 . S
C859 C861 1.388 . S
C860 C859 1.366 . S
C860 C864 1.385 . S
C861 H836 0.951 . S
C861 C859 1.388 . S
C861 C862 1.366 . S
C862 C861 1.366 . S
C862 C863 1.414 . S
C862 C865 1.499 . S
C863 H837 0.950 . S
C863 C862 1.414 . S
C863 C864 1.374 . S
C864 H838 0.950 . S
C864 C860 1.385 . S
C864 C863 1.374 . S
C865 C862 1.499 . S
C865 C866 1.373 . S
C865 C867 1.389 . S
C866 H839 0.950 . S
C866 C852 1.377 . S
C866 C865 1.373 . S
C867 C851 1.377 . S
C867 C865 1.389 . S
C867 C868 1.524 . S
C868 C867 1.524 . S
C868 C869 1.397 . S
C868 C873 1.363 . S
C869 H840 0.950 . S
C869 C868 1.397 . S
C869 C870 1.334 . S
C870 H841 0.950 . S
C870 C869 1.334 . S
C870 C871 1.287 . S
C871 C870 1.287 . S
C871 C872 1.524 . S
C871 H874 0.999 . S
C872 H842 0.950 . S
C872 C871 1.524 . S
C872 C873 1.415 . S
C873 H843 0.950 . S
C873 C868 1.363 . S
C873 C872 1.415 . S
H874 C871 0.999 . S
H875 C856 0.913 . S
H876 C894 0.951 . S
H877 C896 0.951 . S
H878 C898 0.950 . S
H879 C899 0.950 . S
H880 C901 0.950 1_565 S
H881 C904 0.950 . S
H882 C905 0.950 . S
H883 C907 0.950 . S
H884 C908 0.950 . S
H885 C909 0.951 . S
H886 C911 0.951 . S
H887 C913 0.950 . S
H888 C914 0.950 . S
H889 C916 0.950 . S
H890 C919 0.950 . S
H891 C920 0.950 . S
H892 C922 0.950 . S
H893 C923 0.950 . S
C894 H876 0.951 . S
C894 C895 1.366 . S
C894 C896 1.388 . S
C895 C894 1.366 . S
C895 C899 1.385 . S
C896 H877 0.951 . S
C896 C894 1.388 . S
C896 C897 1.366 . S
C897 C896 1.366 . S
C897 C898 1.414 . S
C897 C900 1.499 . S
C898 H878 0.950 . S
C898 C897 1.414 . S
C898 C899 1.374 . S
C899 H879 0.950 . S
C899 C895 1.385 . S
C899 C898 1.374 . S
C900 C897 1.499 . S
C900 C901 1.373 . S
C900 C902 1.389 . S
C901 H880 0.950 1_545 S
C901 C900 1.373 . S
C901 C917 1.377 . S
C902 C900 1.389 . S
C902 C903 1.524 . S
C902 C916 1.377 . S
C903 C902 1.524 . S
C903 C904 1.397 . S
C903 C908 1.363 . S
C904 H881 0.950 . S
C904 C903 1.397 . S
C904 C905 1.334 . S
C905 H882 0.950 . S
C905 C904 1.334 . S
C905 C906 1.287 . S
C906 C905 1.287 . S
C906 C907 1.524 . S
C906 H925 0.913 . S
C907 H883 0.950 . S
C907 C906 1.524 . S
C907 C908 1.415 . S
C908 H884 0.950 . S
C908 C903 1.363 . S
C908 C907 1.415 . S
C909 H885 0.951 . S
C909 C910 1.366 . S
C909 C911 1.388 . S
C910 C909 1.366 . S
C910 C914 1.385 . S
C911 H886 0.951 . S
C911 C909 1.388 . S
C911 C912 1.366 . S
C912 C911 1.366 . S
C912 C913 1.414 . S
C912 C915 1.499 . S
C913 H887 0.950 . S
C913 C912 1.414 . S
C913 C914 1.374 . S
C914 H888 0.950 . S
C914 C910 1.385 . S
C914 C913 1.374 . S
C915 C912 1.499 . S
C915 C916 1.373 . S
C915 C917 1.389 . S
C916 H889 0.950 . S
C916 C902 1.377 . S
C916 C915 1.373 . S
C917 C901 1.377 . S
C917 C915 1.389 . S
C917 C918 1.524 1_545 S
C918 C917 1.524 1_565 S
C918 C919 1.397 . S
C918 C923 1.363 . S
C919 H890 0.950 . S
C919 C918 1.397 . S
C919 C920 1.334 . S
C920 H891 0.950 . S
C920 C919 1.334 . S
C920 C921 1.287 . S
C921 C920 1.287 . S
C921 C922 1.524 . S
C921 H924 0.999 . S
C922 H892 0.950 . S
C922 C921 1.524 . S
C922 C923 1.415 . S
C923 H893 0.950 . S
C923 C918 1.363 . S
C923 C922 1.415 . S
H924 C921 0.999 . S
H925 C906 0.913 . S
H926 C944 0.951 . S
H927 C946 0.951 . S
H928 C948 0.950 . S
H929 C949 0.950 . S
H930 C951 0.950 . S
H931 C954 0.950 . S
H932 C955 0.950 . S
H933 C957 0.950 . S
H934 C958 0.950 . S
H935 C959 0.951 . S
H936 C961 0.951 . S
H937 C963 0.950 . S
H938 C964 0.950 . S
H939 C966 0.950 . S
H940 C969 0.950 . S
H941 C970 0.950 . S
H942 C972 0.950 . S
H943 C973 0.950 . S
C944 H926 0.951 . S
C944 C945 1.366 . S
C944 C946 1.388 . S
C945 C944 1.366 . S
C945 C949 1.385 . S
C946 H927 0.951 . S
C946 C944 1.388 . S
C946 C947 1.366 . S
C947 C946 1.366 . S
C947 C948 1.414 . S
C947 C950 1.499 . S
C948 H928 0.950 . S
C948 C947 1.414 . S
C948 C949 1.374 . S
C949 H929 0.950 . S
C949 C945 1.385 . S
C949 C948 1.374 . S
C950 C947 1.499 . S
C950 C951 1.373 . S
C950 C952 1.389 . S
C951 H930 0.950 . S
C951 C950 1.373 . S
C951 C967 1.377 . S
C952 C950 1.389 . S
C952 C953 1.524 . S
C952 C966 1.377 1_556 S
C953 C952 1.524 . S
C953 C954 1.397 . S
C953 C958 1.363 . S
C954 H931 0.950 . S
C954 C953 1.397 . S
C954 C955 1.334 . S
C955 H932 0.950 . S
C955 C954 1.334 . S
C955 C956 1.287 . S
C956 C955 1.287 . S
C956 C957 1.524 . S
C956 H975 0.913 . S
C957 H933 0.950 . S
C957 C956 1.524 . S
C957 C958 1.415 . S
C958 H934 0.950 . S
C958 C953 1.363 . S
C958 C957 1.415 . S
C959 H935 0.951 . S
C959 C960 1.366 . S
C959 C961 1.388 . S
C960 C959 1.366 . S
C960 C964 1.385 . S
C961 H936 0.951 . S
C961 C959 1.388 . S
C961 C962 1.366 . S
C962 C961 1.366 . S
C962 C963 1.414 . S
C962 C965 1.499 . S
C963 H937 0.950 . S
C963 C962 1.414 . S
C963 C964 1.374 . S
C964 H938 0.950 . S
C964 C960 1.385 . S
C964 C963 1.374 . S
C965 C962 1.499 . S
C965 C966 1.373 . S
C965 C967 1.389 1_554 S
C966 H939 0.950 . S
C966 C952 1.377 1_554 S
C966 C965 1.373 . S
C967 C951 1.377 . S
C967 C965 1.389 1_556 S
C967 C968 1.524 . S
C968 C967 1.524 . S
C968 C969 1.397 1_556 S
C968 C973 1.363 . S
C969 H940 0.950 . S
C969 C968 1.397 1_554 S
C969 C970 1.334 . S
C970 H941 0.950 . S
C970 C969 1.334 . S
C970 C971 1.287 . S
C971 C970 1.287 . S
C971 C972 1.524 1_554 S
C971 H974 0.999 . S
C972 H942 0.950 . S
C972 C971 1.524 1_556 S
C972 C973 1.415 . S
C973 H943 0.950 . S
C973 C968 1.363 . S
C973 C972 1.415 . S
H974 C971 0.999 . S
H975 C956 0.913 . S
H976 C994 0.934 1_655 S
H977 C996 0.951 . S
H978 C998 0.950 . S
H979 C999 0.950 . S
H980 C1001 0.950 . S
H981 C1004 0.950 . S
H982 C1005 0.950 1_455 S
H983 C1007 0.950 . S
H984 C1008 0.950 . S
H985 C1009 0.951 . S
H986 C1011 0.951 . S
H987 C1013 0.950 . S
H988 C1014 0.950 . S
H989 C1016 0.975 . S
H990 C1019 0.950 . S
H991 C1020 0.950 . S
H992 C1022 0.950 . S
H993 C1023 0.950 . S
C994 H976 0.934 1_455 S
C994 C995 1.386 . S
C994 C996 1.385 1_455 S
C995 C994 1.386 . S
C995 C999 1.385 . S
C996 H977 0.951 . S
C996 C994 1.385 1_655 S
C996 C997 1.366 1_655 S
C997 C996 1.366 1_455 S
C997 C998 1.414 . S
C997 C1000 1.499 . S
C998 H978 0.950 . S
C998 C997 1.414 . S
C998 C999 1.374 . S
C999 H979 0.950 . S
C999 C995 1.385 . S
C999 C998 1.374 . S
C1000 C997 1.499 . S
C1000 C1001 1.373 . S
C1000 C1002 1.389 . S
C1001 H980 0.950 . S
C1001 C1000 1.373 . S
C1001 C1017 1.377 . S
C1002 C1000 1.389 . S
C1002 C1003 1.524 1_455 S
C1002 C1016 1.373 1_455 S
C1003 C1002 1.524 1_655 S
C1003 C1004 1.397 1_655 S
C1003 C1008 1.363 . S
C1004 H981 0.950 . S
C1004 C1003 1.397 1_455 S
C1004 C1005 1.334 1_455 S
C1005 H982 0.950 1_655 S
C1005 C1004 1.334 1_655 S
C1005 C1006 1.287 . S
C1006 C1005 1.287 . S
C1006 C1007 1.524 . S
C1006 H1025 0.913 . S
C1007 H983 0.950 . S
C1007 C1006 1.524 . S
C1007 C1008 1.415 . S
C1008 H984 0.950 . S
C1008 C1003 1.363 . S
C1008 C1007 1.415 . S
C1009 H985 0.951 . S
C1009 C1010 1.366 . S
C1009 C1011 1.388 . S
C1010 C1009 1.366 . S
C1010 C1014 1.385 1_455 S
C1011 H986 0.951 . S
C1011 C1009 1.388 . S
C1011 C1012 1.366 . S
C1012 C1011 1.366 . S
C1012 C1013 1.414 1_455 S
C1012 C1015 1.499 . S
C1013 H987 0.950 . S
C1013 C1012 1.414 1_655 S
C1013 C1014 1.374 . S
C1014 H988 0.950 . S
C1014 C1010 1.385 1_655 S
C1014 C1013 1.374 . S
C1015 C1012 1.499 . S
C1015 C1016 1.353 1_455 S
C1015 C1017 1.389 . S
C1016 H989 0.975 . S
C1016 C1002 1.373 1_655 S
C1016 C1015 1.353 1_655 S
C1017 C1001 1.377 . S
C1017 C1015 1.389 . S
C1017 C1018 1.524 . S
C1018 C1017 1.524 . S
C1018 C1019 1.397 . S
C1018 C1023 1.363 . S
C1019 H990 0.950 . S
C1019 C1018 1.397 . S
C1019 C1020 1.334 . S
C1020 H991 0.950 . S
C1020 C1019 1.334 . S
C1020 C1021 1.287 . S
C1021 C1020 1.287 . S
C1021 C1022 1.524 . S
C1021 H1024 0.999 . S
C1022 H992 0.950 . S
C1022 C1021 1.524 . S
C1022 C1023 1.415 . S
C1023 H993 0.950 . S
C1023 C1018 1.363 . S
C1023 C1022 1.415 . S
H1024 C1021 0.999 . S
H1025 C1006 0.913 . S
C145 C8 2.067 . S
C160 C125 2.108 . S
C195 C26 1.365 . S
C210 C103 1.362 . S
C245 C48 1.541 . S
C260 C114 1.569 . S
C295 C19 1.641 . S
C310 C119 1.682 . S
C360 C97 1.344 . S
C345 C36 1.340 . S
C410 C108 1.543 . S
C395 C59 1.490 . S
C445 C28 1.559 . S
C460 C81 1.596 . S
C495 C46 1.102 . S
C510 C86 1.104 . S
C545 C16 1.358 . S
C560 C64 1.357 1_565 S
C610 C75 1.519 . S
C595 C39 1.479 . S
C660 C92 1.020 . S
C645 C56 1.014 . S
C695 C6 1.380 . S
C710 C70 1.371 . S
C760 C87 1.451 . S
C745 C9 1.443 . S
C795 C21 1.528 . S
C810 C65 1.539 . S
C845 C49 1.515 . S
C860 C76 1.510 . S
C910 C109 1.501 . S
C895 C29 1.508 . S
C960 C120 1.615 . S
C945 C41 1.585 . S
C995 C1 1.500 . S
C1010 C98 1.506 . S
