# Generated by pormake.
# Topology sqc, (4,8)-cn, num edge types: 1
# Building blocks:
#     Node 0, Type 0, BuildingBlock: KUFVIS_clean_linker_0, # of connection points: 4
#     Node 1, Type 0, BuildingBlock: KUFVIS_clean_linker_0, # of connection points: 4
#     Node 2, Type 0, BuildingBlock: KUFVIS_clean_linker_0, # of connection points: 4
#     Node 3, Type 0, BuildingBlock: KUFVIS_clean_linker_0, # of connection points: 4
#     Node 4, Type 0, BuildingBlock: KUFVIS_clean_linker_0, # of connection points: 4
#     Node 5, Type 0, BuildingBlock: KUFVIS_clean_linker_0, # of connection points: 4
#     Node 6, Type 0, BuildingBlock: KUFVIS_clean_linker_0, # of connection points: 4
#     Node 7, Type 0, BuildingBlock: KUFVIS_clean_linker_0, # of connection points: 4
#     Node 8, Type 1, BuildingBlock: TAGTUT_clean_sbu_3, # of connection points: 8
#     Node 9, Type 1, BuildingBlock: TAGTUT_clean_sbu_3, # of connection points: 8
#     Node 10, Type 1, BuildingBlock: TAGTUT_clean_sbu_3, # of connection points: 8
#     Node 11, Type 1, BuildingBlock: TAGTUT_clean_sbu_3, # of connection points: 8
#     Edge 12, Type (0, 1), BuildingBlock: TEMPAE_clean_linker_10, # of connection points: 2
#     Edge 13, Type (0, 1), BuildingBlock: TEMPAE_clean_linker_10, # of connection points: 2
#     Edge 14, Type (0, 1), BuildingBlock: TEMPAE_clean_linker_10, # of connection points: 2
#     Edge 15, Type (0, 1), BuildingBlock: TEMPAE_clean_linker_10, # of connection points: 2
#     Edge 16, Type (0, 1), BuildingBlock: TEMPAE_clean_linker_10, # of connection points: 2
#     Edge 17, Type (0, 1), BuildingBlock: TEMPAE_clean_linker_10, # of connection points: 2
#     Edge 18, Type (0, 1), BuildingBlock: TEMPAE_clean_linker_10, # of connection points: 2
#     Edge 19, Type (0, 1), BuildingBlock: TEMPAE_clean_linker_10, # of connection points: 2
#     Edge 20, Type (0, 1), BuildingBlock: TEMPAE_clean_linker_10, # of connection points: 2
#     Edge 21, Type (0, 1), BuildingBlock: TEMPAE_clean_linker_10, # of connection points: 2
#     Edge 22, Type (0, 1), BuildingBlock: TEMPAE_clean_linker_10, # of connection points: 2
#     Edge 23, Type (0, 1), BuildingBlock: TEMPAE_clean_linker_10, # of connection points: 2
#     Edge 24, Type (0, 1), BuildingBlock: TEMPAE_clean_linker_10, # of connection points: 2
#     Edge 25, Type (0, 1), BuildingBlock: TEMPAE_clean_linker_10, # of connection points: 2
#     Edge 26, Type (0, 1), BuildingBlock: TEMPAE_clean_linker_10, # of connection points: 2
#     Edge 27, Type (0, 1), BuildingBlock: TEMPAE_clean_linker_10, # of connection points: 2
#     Edge 28, Type (0, 1), BuildingBlock: TEMPAE_clean_linker_10, # of connection points: 2
#     Edge 29, Type (0, 1), BuildingBlock: TEMPAE_clean_linker_10, # of connection points: 2
#     Edge 30, Type (0, 1), BuildingBlock: TEMPAE_clean_linker_10, # of connection points: 2
#     Edge 31, Type (0, 1), BuildingBlock: TEMPAE_clean_linker_10, # of connection points: 2
#     Edge 32, Type (0, 1), BuildingBlock: TEMPAE_clean_linker_10, # of connection points: 2
#     Edge 33, Type (0, 1), BuildingBlock: TEMPAE_clean_linker_10, # of connection points: 2
#     Edge 34, Type (0, 1), BuildingBlock: TEMPAE_clean_linker_10, # of connection points: 2
#     Edge 35, Type (0, 1), BuildingBlock: TEMPAE_clean_linker_10, # of connection points: 2
#     Edge 36, Type (0, 1), BuildingBlock: TEMPAE_clean_linker_10, # of connection points: 2
#     Edge 37, Type (0, 1), BuildingBlock: TEMPAE_clean_linker_10, # of connection points: 2
#     Edge 38, Type (0, 1), BuildingBlock: TEMPAE_clean_linker_10, # of connection points: 2
#     Edge 39, Type (0, 1), BuildingBlock: TEMPAE_clean_linker_10, # of connection points: 2
#     Edge 40, Type (0, 1), BuildingBlock: TEMPAE_clean_linker_10, # of connection points: 2
#     Edge 41, Type (0, 1), BuildingBlock: TEMPAE_clean_linker_10, # of connection points: 2
#     Edge 42, Type (0, 1), BuildingBlock: TEMPAE_clean_linker_10, # of connection points: 2
#     Edge 43, Type (0, 1), BuildingBlock: TEMPAE_clean_linker_10, # of connection points: 2
# Relax obj value: 0.176
# Max RMSD: 0.271
# Mean RMSD: 0.222
data_MOF--net-sqc--node1-TAGTUT_clean_sbu_3--node2-KUFVIS_clean_linker_0--edge1-TEMPAE_clean_linker_10
_symmetry_space_group_name_H-M    P1
_symmetry_Int_Tables_number       1
_symmetry_cell_setting            triclinic
loop_
_symmetry_equiv_pos_as_xyz
'x, y, z'
_cell_length_a     24.970978
_cell_length_b     24.886695
_cell_length_c     71.313532
_cell_angle_alpha  91.066305
_cell_angle_beta   90.136511
_cell_angle_gamma 89.990065
loop_
_atom_site_label
_atom_site_type_symbol
_atom_site_fract_x
_atom_site_fract_y
_atom_site_fract_z
_atom_type_partial_charge
H0 H 0.84129 0.96638 0.5044 0.0
H1 H 0.99528 0.98138 0.53064 0.0
H2 H 0.98237 0.95272 0.47062 0.0
H3 H 0.06054 0.90433 0.47685 0.0
H4 H 0.21214 0.97134 0.49288 0.0
H5 H 0.06968 0.02942 0.51994 0.0
C6 C 0.88466 0.96622 0.5033 0.0
C7 C 0.90825 0.95884 0.48576 0.0
C8 C 0.91544 0.97436 0.51944 0.0
C9 C 0.97166 0.97498 0.51804 0.0
C10 C 0.99698 0.96614 0.50045 0.0
C11 C 0.9644 0.95799 0.48434 0.0
C12 C 0.05693 0.96656 0.49874 0.0
C13 C 0.08319 0.93243 0.48552 0.0
C14 C 0.1391 0.93447 0.48348 0.0
C15 C 0.16893 0.97013 0.49454 0.0
C16 C 0.14435 0.00421 0.50765 0.0
C17 C 0.08844 0.00214 0.50993 0.0
H18 H 0.28055 0.86564 0.73803 0.0
H19 H 0.3202 0.73686 0.77485 0.0
H20 H 0.35857 0.72622 0.71567 0.0
H21 H 0.42705 0.68135 0.72638 0.0
H22 H 0.42738 0.52556 0.75011 0.0
H23 H 0.31258 0.64282 0.76941 0.0
C24 C 0.29558 0.82519 0.73999 0.0
C25 C 0.32018 0.79819 0.72506 0.0
C26 C 0.29506 0.80315 0.75788 0.0
C27 C 0.31881 0.75265 0.7608 0.0
C28 C 0.3419 0.72361 0.74564 0.0
C29 C 0.34148 0.74696 0.72772 0.0
C30 C 0.36802 0.6701 0.74831 0.0
C31 C 0.41061 0.65413 0.73653 0.0
C32 C 0.42973 0.60138 0.73645 0.0
C33 C 0.41155 0.56609 0.75003 0.0
C34 C 0.3689 0.58012 0.76191 0.0
C35 C 0.34739 0.63253 0.76106 0.0
H36 H 0.83582 0.0253 0.00271 0.0
H37 H 0.69425 0.02176 0.03627 0.0
H38 H 0.6903 0.08566 0.98002 0.0
H39 H 0.61749 0.12276 0.98844 0.0
H40 H 0.46735 0.07031 0.00995 0.0
H41 H 0.61155 0.00197 0.0313 0.0
C42 C 0.79324 0.03294 0.00423 0.0
C43 C 0.76557 0.0591 0.99009 0.0
C44 C 0.76701 0.01867 0.02068 0.0
C45 C 0.71272 0.03117 0.02304 0.0
C46 C 0.68298 0.05441 0.00836 0.0
C47 C 0.71063 0.06838 -0.00814 0.0
C48 C 0.62346 0.06193 0.00988 0.0
C49 C 0.59607 0.09705 -0.00212 0.0
C50 C 0.54005 0.09835 -0.00274 0.0
C51 C 0.51072 0.0688 0.01021 0.0
C52 C 0.53684 0.03552 0.02296 0.0
C53 C 0.59282 0.03119 0.02239 0.0
H54 H 0.3637 0.45155 0.23583 0.0
H55 H 0.36435 0.31926 0.27284 0.0
H56 H 0.26341 0.31477 0.22339 0.0
H57 H 0.28476 0.21946 0.22776 0.0
H58 H 0.24932 0.11732 0.27413 0.0
H59 H 0.29204 0.28083 0.28485 0.0
C60 C 0.35078 0.41102 0.23888 0.0
C61 C 0.31389 0.3849 0.22702 0.0
C62 C 0.36784 0.38785 0.25547 0.0
C63 C 0.3493 0.33695 0.26011 0.0
C64 C 0.31093 0.30993 0.24884 0.0
C65 C 0.29343 0.33431 0.23213 0.0
C66 C 0.28855 0.2577 0.2553 0.0
C67 C 0.27829 0.21448 0.24265 0.0
C68 C 0.26408 0.16346 0.24941 0.0
C69 C 0.25866 0.15673 0.26879 0.0
C70 C 0.27133 0.19815 0.28149 0.0
C71 C 0.28338 0.24901 0.27472 0.0
H72 H 0.85392 0.39974 0.23124 0.0
H73 H 0.79454 0.26795 0.26301 0.0
H74 H 0.91702 0.24401 0.2204 0.0
H75 H 0.89148 0.16418 0.21836 0.0
H76 H 0.86536 0.03166 0.25389 0.0
H77 H 0.81697 0.18829 0.27294 0.0
C78 C 0.85436 0.35728 0.23445 0.0
C79 C 0.88714 0.32284 0.22403 0.0
C80 C 0.8214 0.33793 0.24862 0.0
C81 C 0.82157 0.28236 0.25242 0.0
C82 C 0.85514 0.24622 0.24212 0.0
C83 C 0.88868 0.26825 0.22819 0.0
C84 C 0.85563 0.18615 0.24543 0.0
C85 C 0.87799 0.15036 0.23179 0.0
C86 C 0.88393 0.09545 0.23523 0.0
C87 C 0.86341 0.07467 0.25168 0.0
C88 C 0.83842 0.10765 0.26501 0.0
C89 C 0.83494 0.16344 0.26208 0.0
H90 H 0.88861 0.972 0.74033 0.0
H91 H 0.90642 0.8142 0.76179 0.0
H92 H 0.78052 0.8474 0.72185 0.0
H93 H 0.79291 0.75616 0.7148 0.0
H94 H 0.77629 0.61717 0.74905 0.0
H95 H 0.84626 0.75946 0.77272 0.0
C96 C 0.87594 0.93034 0.74039 0.0
C97 C 0.83249 0.91376 0.72923 0.0
C98 C 0.90103 0.89502 0.75261 0.0
C99 C 0.88508 0.84113 0.75268 0.0
C100 C 0.8415 0.82273 0.74162 0.0
C101 C 0.8155 0.85972 0.72983 0.0
C102 C 0.8214 0.76623 0.74354 0.0
C103 C 0.79707 0.73778 0.72837 0.0
C104 C 0.77953 0.68448 0.73061 0.0
C105 C 0.78715 0.65918 0.74772 0.0
C106 C 0.81274 0.68582 0.76256 0.0
C107 C 0.82818 0.73944 0.76069 0.0
H108 H 0.74271 0.5472 0.98488 0.0
H109 H 0.59791 0.48694 0.96003 0.0
H110 H 0.59466 0.62549 -0.002 0.0
H111 H 0.51266 0.59499 0.00418 0.0
H112 H 0.37185 0.56118 0.97184 0.0
H113 H 0.52488 0.52673 0.94783 0.0
C114 C 0.69959 0.54988 0.98308 0.0
C115 C 0.67139 0.58981 -0.00724 0.0
C116 C 0.67342 0.51312 0.97128 0.0
C117 C 0.61757 0.51663 0.96893 0.0
C118 C 0.58751 0.55689 0.97857 0.0
C119 C 0.61555 0.59361 -0.00946 0.0
C120 C 0.52739 0.5598 0.97643 0.0
C121 C 0.49486 0.58084 -0.00884 0.0
C122 C 0.43878 0.58354 0.9892 0.0
C123 C 0.4152 0.56272 0.97291 0.0
C124 C 0.44562 0.54331 0.95794 0.0
C125 C 0.50173 0.54148 0.95966 0.0
H126 H 0.31054 0.49285 0.48399 0.0
H127 H 0.17486 0.40514 0.50304 0.0
H128 H 0.15847 0.52196 0.45888 0.0
H129 H 0.08329 0.48561 0.45318 0.0
H130 H 0.94169 0.44177 0.48269 0.0
H131 H 0.09349 0.42307 0.50936 0.0
C132 C 0.26782 0.48495 0.48338 0.0
C133 C 0.2365 0.50934 0.46975 0.0
C134 C 0.24503 0.44823 0.49555 0.0
C135 C 0.19048 0.43576 0.49401 0.0
C136 C 0.15706 0.46306 0.48124 0.0
C137 C 0.18138 0.49984 0.46901 0.0
C138 C 0.09743 0.45454 0.48112 0.0
C139 C 0.06546 0.46991 0.46571 0.0
C140 C 0.00939 0.46741 0.46653 0.0
C141 C 0.98499 0.44453 0.48212 0.0
C142 C 0.01563 0.42719 0.4973 0.0
C143 C 0.07131 0.43373 0.49696 0.0
C144 C 0.1629 0.64424 0.1351 0.0
C145 C 0.97728 0.57701 0.12607 0.0
C146 C 0.96017 0.69316 0.08112 0.0
Mg147 Mg 0.22012 0.75876 0.12951 0.0
Mg148 Mg 0.1564 0.87353 0.12254 0.0
O149 O 0.16094 0.80026 0.11745 0.0
Mg150 Mg 0.1013 0.74825 0.11967 0.0
O151 O 0.04666 0.69108 0.12148 0.0
Mg152 Mg 0.07283 0.64047 0.10138 0.0
Mg153 Mg 0.97304 0.70104 0.12398 0.0
C154 C 0.04549 0.85689 0.10171 0.0
O155 O 0.06224 0.79139 0.14515 0.0
O156 O 0.2783 0.82191 0.1172 0.0
O157 O 0.97476 0.76817 0.14381 0.0
O158 O 0.2165 0.81092 0.15732 0.0
O159 O 0.2311 0.89596 0.11028 0.0
O160 O 0.16458 0.88245 0.15199 0.0
O161 O 0.13449 0.70624 0.09258 0.0
O162 O 0.22011 0.71357 0.10212 0.0
C163 C 0.18506 0.69835 0.09005 0.0
C164 C 0.27486 0.86909 0.11026 0.0
O165 O 0.04785 0.80548 0.10295 0.0
O166 O 0.01624 0.57725 0.11434 0.0
O167 O 0.08079 0.88885 0.10877 0.0
O168 O 0.00414 0.66622 0.08036 0.0
O169 O 0.95492 0.62036 0.1321 0.0
O170 O 0.94297 0.71357 0.09648 0.0
O171 O 0.15667 0.69516 0.13798 0.0
O172 O 0.13585 0.61873 0.12255 0.0
C173 C 0.19326 0.8544 0.16286 0.0
C174 C 0.01336 0.79659 0.15061 0.0
C175 C 0.65488 0.81982 0.39182 0.0
C176 C 0.74274 0.63252 0.37965 0.0
C177 C 0.66307 0.63543 0.32689 0.0
Mg178 Mg 0.54094 0.86892 0.37773 0.0
Mg179 Mg 0.44785 0.8004 0.35465 0.0
O180 O 0.52046 0.81403 0.35812 0.0
Mg181 Mg 0.57437 0.7579 0.36405 0.0
O182 O 0.63234 0.70656 0.37032 0.0
Mg183 Mg 0.69352 0.74073 0.35695 0.0
Mg184 Mg 0.62404 0.63261 0.36737 0.0
C185 C 0.49331 0.69876 0.33286 0.0
O186 O 0.51695 0.70897 0.38239 0.0
O187 O 0.47953 0.92668 0.36377 0.0
O188 O 0.54814 0.62375 0.38138 0.0
O189 O 0.47148 0.84403 0.3984 0.0
O190 O 0.4241 0.87802 0.34518 0.0
O191 O 0.41462 0.7926 0.38179 0.0
O192 O 0.6333 0.8048 0.34526 0.0
O193 O 0.60642 0.88571 0.35668 0.0
C194 C 0.63783 0.85672 0.34642 0.0
C195 C 0.44085 0.9231 0.35188 0.0
O196 O 0.54018 0.70536 0.34 0.0
O197 O 0.74866 0.67843 0.3719 0.0
O198 O 0.45328 0.72912 0.33691 0.0
O199 O 0.68885 0.67889 0.33105 0.0
O200 O 0.69752 0.60832 0.38004 0.0
O201 O 0.63071 0.6144 0.33841 0.0
O202 O 0.60489 0.80942 0.38882 0.0
O203 O 0.69244 0.79723 0.38226 0.0
C204 C 0.42829 0.81597 0.39711 0.0
C205 C 0.51323 0.65898 0.38636 0.0
C206 C 0.62845 0.15955 0.64682 0.0
C207 C 0.43545 0.08778 0.64079 0.0
C208 C 0.43534 0.1605 0.58728 0.0
Mg209 Mg 0.69128 0.25952 0.62694 0.0
Mg210 Mg 0.63077 0.3541 0.60251 0.0
O211 O 0.63456 0.2823 0.60893 0.0
Mg212 Mg 0.57364 0.23862 0.61783 0.0
O213 O 0.51724 0.18952 0.62718 0.0
Mg214 Mg 0.54158 0.12221 0.61413 0.0
Mg215 Mg 0.44417 0.20459 0.62784 0.0
C216 C 0.52235 0.31439 0.58406 0.0
O217 O 0.53556 0.30623 0.63578 0.0
O218 O 0.7528 0.30396 0.60804 0.0
O219 O 0.4487 0.2847 0.64028 0.0
O220 O 0.68211 0.33984 0.6453 0.0
O221 O 0.70718 0.36071 0.58974 0.0
O222 O 0.63636 0.39851 0.628 0.0
O223 O 0.60919 0.16979 0.59978 0.0
O224 O 0.69478 0.18515 0.60845 0.0
C225 C 0.65924 0.15663 0.59992 0.0
C226 C 0.75088 0.33836 0.59483 0.0
O227 O 0.52236 0.27102 0.59354 0.0
O228 O 0.47682 0.07723 0.63076 0.0
O229 O 0.55811 0.35113 0.58593 0.0
O230 O 0.47749 0.13171 0.58993 0.0
O231 O 0.41704 0.13552 0.64302 0.0
O232 O 0.41864 0.19426 0.59962 0.0
O233 O 0.62565 0.20949 0.64223 0.0
O234 O 0.60034 0.12267 0.63862 0.0
C235 C 0.66126 0.38661 0.64298 0.0
C236 C 0.48864 0.31684 0.64222 0.0
C237 C 0.18454 0.33649 0.88637 0.0
C238 C 0.27731 0.16137 0.89618 0.0
C239 C 0.19352 0.10321 0.84687 0.0
Mg240 Mg 0.06849 0.36905 0.87057 0.0
Mg241 Mg 0.97191 0.28545 0.85786 0.0
O242 O 0.04493 0.30064 0.85785 0.0
Mg243 Mg 0.10068 0.25193 0.86813 0.0
O244 O 0.16098 0.20948 0.87834 0.0
Mg245 Mg 0.21992 0.23195 0.86136 0.0
Mg246 Mg 0.15925 0.13916 0.88655 0.0
C247 C 0.01611 0.17263 0.84349 0.0
O248 O 0.04728 0.22062 0.89191 0.0
O249 O 0.00424 0.41253 0.85315 0.0
O250 O 0.08405 0.14268 0.90146 0.0
O251 O 0.00371 0.36239 0.89448 0.0
O252 O 0.94376 0.35295 0.84206 0.0
O253 O 0.94595 0.29764 0.88595 0.0
O254 O 0.15552 0.27947 0.84437 0.0
O255 O 0.12881 0.36628 0.84666 0.0
C256 C 0.15811 0.329 0.83929 0.0
C257 C 0.96237 0.40082 0.84346 0.0
O258 O 0.06359 0.18262 0.84978 0.0
O259 O 0.27964 0.1925 0.88205 0.0
O260 O 0.97667 0.20512 0.84594 0.0
O261 O 0.21356 0.15008 0.84417 0.0
O262 O 0.23403 0.13801 0.90106 0.0
O263 O 0.16821 0.09207 0.86181 0.0
O264 O 0.13468 0.32269 0.88599 0.0
O265 O 0.22103 0.30743 0.87876 0.0
C266 C 0.96197 0.33363 0.89763 0.0
C267 C 0.04701 0.1784 0.902 0.0
C268 C 0.1844 0.92708 0.45282 0.0
C269 C 0.16876 0.9023 0.46937 0.0
C270 C 0.2263 0.90601 0.44187 0.0
C271 C 0.2532 0.85893 0.44765 0.0
C272 C 0.23538 0.832 0.46381 0.0
C273 C 0.19347 0.85429 0.47459 0.0
C274 C 0.24361 0.93579 0.42464 0.0
C275 C 0.26196 0.78098 0.47012 0.0
C276 C 0.33688 0.79482 0.40911 0.0
C277 C 0.38759 0.81786 0.41237 0.0
C278 C 0.29354 0.80516 0.42109 0.0
C279 C 0.30079 0.83936 0.43691 0.0
C280 C 0.35258 0.85991 0.44108 0.0
C281 C 0.39542 0.84897 0.42875 0.0
C282 C 0.23921 0.78207 0.41618 0.0
C283 C 0.36194 0.8964 0.4579 0.0
H284 H 0.16612 0.965 0.44912 0.0
H285 H 0.18212 0.83599 0.48767 0.0
H286 H 0.28513 0.95079 0.42658 0.0
H287 H 0.24363 0.90827 0.41222 0.0
H288 H 0.21714 0.9705 0.42165 0.0
H289 H 0.24515 0.7664 0.48351 0.0
H290 H 0.25667 0.74911 0.45921 0.0
H291 H 0.30565 0.78745 0.47194 0.0
H292 H 0.32987 0.77132 0.39644 0.0
H293 H 0.4342 0.8671 0.43145 0.0
H294 H 0.20904 0.81464 0.41517 0.0
H295 H 0.22596 0.75495 0.42743 0.0
H296 H 0.23945 0.75909 0.40268 0.0
H297 H 0.34128 0.9353 0.45576 0.0
H298 H 0.40519 0.90443 0.46034 0.0
H299 H 0.3448 0.87844 0.47069 0.0
C300 C 0.38586 0.8398 0.70392 0.0
C301 C 0.33231 0.82841 0.708 0.0
C302 C 0.39908 0.87926 0.69098 0.0
C303 C 0.3576 0.90685 0.6816 0.0
C304 C 0.3035 0.89223 0.68454 0.0
C305 C 0.29139 0.8537 0.69801 0.0
C306 C 0.45722 0.89436 0.68853 0.0
C307 C 0.25836 0.91941 0.67429 0.0
C308 C 0.39118 0.05002 0.66886 0.0
C309 C 0.40968 0.04302 0.65048 0.0
C310 C 0.3726 0.00608 0.67901 0.0
C311 C 0.37098 0.95443 0.67029 0.0
C312 C 0.38654 0.9479 0.65133 0.0
C313 C 0.40667 0.99219 0.64174 0.0
C314 C 0.35747 0.01442 0.69935 0.0
C315 C 0.38359 0.89389 0.64138 0.0
H316 H 0.41736 0.82073 0.71191 0.0
H317 H 0.24998 0.84487 0.7013 0.0
H318 H 0.46802 0.89391 0.67346 0.0
H319 H 0.46385 0.93585 0.69403 0.0
H320 H 0.48466 0.86683 0.696 0.0
H321 H 0.21994 0.89738 0.67573 0.0
H322 H 0.25289 0.96076 0.68004 0.0
H323 H 0.26789 0.92276 0.65916 0.0
H324 H 0.39383 0.08934 0.67561 0.0
H325 H 0.42047 0.98702 0.62741 0.0
H326 H 0.38494 0.99106 0.70835 0.0
H327 H 0.31633 0.99945 0.70183 0.0
H328 H 0.35943 0.05737 0.70384 0.0
H329 H 0.41457 0.86675 0.64711 0.0
H330 H 0.39007 0.89712 0.62604 0.0
H331 H 0.34406 0.87487 0.64378 0.0
C332 C 0.5288 0.1117 0.96299 0.0
C333 C 0.51209 0.12366 0.98137 0.0
C334 C 0.49672 0.12468 0.9476 0.0
C335 C 0.44694 0.15034 0.95072 0.0
C336 C 0.43223 0.16696 0.9691 0.0
C337 C 0.46492 0.15308 0.98427 0.0
C338 C 0.5139 0.10663 0.9282 0.0
C339 C 0.37999 0.19562 0.97289 0.0
C340 C 0.36218 0.19787 0.90997 0.0
C341 C 0.32467 0.15605 0.90838 0.0
C342 C 0.40317 0.19636 0.92346 0.0
C343 C 0.40674 0.15176 0.93541 0.0
C344 C 0.37041 0.10838 0.93325 0.0
C345 C 0.3296 0.11125 0.91984 0.0
C346 C 0.44081 0.24358 0.92546 0.0
C347 C 0.37356 0.05957 0.9455 0.0
H348 H 0.56512 0.08864 0.96068 0.0
H349 H 0.45238 0.163 -0.00154 0.0
H350 H 0.48933 0.07161 0.92361 0.0
H351 H 0.5073 0.13899 0.91796 0.0
H352 H 0.55676 0.09465 0.9278 0.0
H353 H 0.37812 0.21255 0.9874 0.0
H354 H 0.37411 0.22863 0.96285 0.0
H355 H 0.3463 0.16697 0.97093 0.0
H356 H 0.35808 0.23292 0.90128 0.0
H357 H 0.30085 0.07873 0.91854 0.0
H358 H 0.48266 0.22998 0.92759 0.0
H359 H 0.42928 0.26807 0.93797 0.0
H360 H 0.4394 0.2697 0.913 0.0
H361 H 0.41427 0.04176 0.94479 0.0
H362 H 0.34399 0.02818 0.94134 0.0
H363 H 0.36608 0.07153 0.96033 0.0
C364 C 0.23231 0.1159 0.21993 0.0
C365 C 0.26051 0.11494 0.23692 0.0
C366 C 0.22505 0.06857 0.20912 0.0
C367 C 0.24605 0.01921 0.21557 0.0
C368 C 0.27549 0.01829 0.23249 0.0
C369 C 0.28321 0.06621 0.24273 0.0
C370 C 0.19388 0.07111 0.191 0.0
C371 C 0.29728 0.96642 0.24011 0.0
C372 C 0.17583 0.89782 0.19391 0.0
C373 C 0.21205 0.88263 0.17985 0.0
C374 C 0.18855 0.93936 0.20679 0.0
C375 C 0.23683 0.96853 0.20462 0.0
C376 C 0.27454 0.95145 0.19098 0.0
C377 C 0.26206 0.9079 0.179 0.0
C378 C 0.1488 0.95387 0.22194 0.0
C379 C 0.32591 0.98202 0.18788 0.0
H380 H 0.21469 0.15327 0.21537 0.0
H381 H 0.30644 0.06527 0.25559 0.0
H382 H 0.21731 0.05252 0.17937 0.0
H383 H 0.1562 0.04787 0.19228 0.0
H384 H 0.18362 0.11301 0.18725 0.0
H385 H 0.31899 0.9726 0.2536 0.0
H386 H 0.26389 0.93783 0.24236 0.0
H387 H 0.32493 0.94726 0.22985 0.0
H388 H 0.13664 0.87908 0.19428 0.0
H389 H 0.28931 0.8971 0.16772 0.0
H390 H 0.12195 0.98606 0.2169 0.0
H391 H 0.169 0.96893 0.23487 0.0
H392 H 0.12399 0.91859 0.22558 0.0
H393 H 0.31633 0.02211 0.18218 0.0
H394 H 0.35303 0.96075 0.1779 0.0
H395 H 0.34754 0.98879 0.20131 0.0
C396 C 0.18424 0.0345 0.53816 0.0
C397 C 0.1793 0.04074 0.51879 0.0
C398 C 0.22682 0.05869 0.54811 0.0
C399 C 0.26495 0.08997 0.5384 0.0
C400 C 0.25797 0.09907 0.51903 0.0
C401 C 0.21534 0.07416 0.50946 0.0
C402 C 0.23262 0.04845 0.56881 0.0
C403 C 0.29728 0.13193 0.508 0.0
C404 C 0.35283 0.18032 0.56879 0.0
C405 C 0.39839 0.14802 0.57142 0.0
C406 C 0.30981 0.1626 0.55762 0.0
C407 C 0.31269 0.11185 0.5485 0.0
C408 C 0.36023 0.08099 0.54978 0.0
C409 C 0.40256 0.09938 0.56127 0.0
C410 C 0.26011 0.19694 0.55631 0.0
C411 C 0.36515 0.02715 0.53985 0.0
H412 H 0.15684 0.00801 0.54529 0.0
H413 H 0.21172 0.07857 0.4944 0.0
H414 H 0.26987 0.02532 0.57135 0.0
H415 H 0.23617 0.08707 0.57674 0.0
H416 H 0.19821 0.02561 0.57446 0.0
H417 H 0.27812 0.14913 0.49538 0.0
H418 H 0.31476 0.16511 0.51659 0.0
H419 H 0.33056 0.10553 0.50322 0.0
H420 H 0.3493 0.21826 0.57636 0.0
H421 H 0.43745 0.07412 0.56316 0.0
H422 H 0.22488 0.17456 0.5615 0.0
H423 H 0.25204 0.20656 0.54143 0.0
H424 H 0.26364 0.23498 0.56457 0.0
H425 H 0.33537 0.99881 0.54562 0.0
H426 H 0.40573 0.00945 0.54139 0.0
H427 H 0.35622 0.03128 0.5247 0.0
C428 C 0.31082 0.85619 0.78726 0.0
C429 C 0.27519 0.83744 0.77346 0.0
C430 C 0.29653 0.89891 0.79938 0.0
C431 C 0.24529 0.92289 0.79767 0.0
C432 C 0.20831 0.90225 0.78428 0.0
C433 C 0.2238 0.85974 0.77233 0.0
C434 C 0.33714 0.92002 0.8134 0.0
C435 C 0.1527 0.92538 0.78233 0.0
C436 C 0.19566 0.00505 0.8393 0.0
C437 C 0.20454 0.05806 0.83355 0.0
C438 C 0.20785 0.96091 0.82764 0.0
C439 C 0.23059 0.96965 0.80987 0.0
C440 C 0.23999 0.02288 0.80391 0.0
C441 C 0.22672 0.06658 0.81582 0.0
C442 C 0.19587 0.90492 0.83431 0.0
C443 C 0.26446 0.03355 0.78501 0.0
H444 H 0.35093 0.83958 0.78783 0.0
H445 H 0.1965 0.84522 0.76152 0.0
H446 H 0.34707 0.96237 0.81025 0.0
H447 H 0.32017 0.91966 0.82776 0.0
H448 H 0.37471 0.8961 0.81325 0.0
H449 H 0.13235 0.91096 0.76931 0.0
H450 H 0.12818 0.91314 0.79446 0.0
H451 H 0.15389 0.96992 0.7823 0.0
H452 H 0.1791 0.99771 0.85305 0.0
H453 H 0.23415 0.10726 0.81133 0.0
H454 H 0.23325 0.88088 0.83477 0.0
H455 H 0.16825 0.88433 0.82431 0.0
H456 H 0.17731 0.90509 0.84845 0.0
H457 H 0.30409 0.01356 0.78392 0.0
H458 H 0.26971 0.07716 0.78252 0.0
H459 H 0.23868 0.01622 0.77373 0.0
C460 C 0.45842 0.97753 0.03072 0.0
C461 C 0.50532 0.00405 0.03651 0.0
C462 C 0.42567 0.95171 0.04369 0.0
C463 C 0.44036 0.95229 0.06287 0.0
C464 C 0.48902 0.97662 0.06866 0.0
C465 C 0.52094 0.00236 0.05539 0.0
C466 C 0.37423 0.92579 0.03695 0.0
C467 C 0.50617 0.97748 0.08898 0.0
C468 C 0.32269 0.9461 0.09601 0.0
C469 C 0.32146 0.89139 0.10032 0.0
C470 C 0.36264 0.96677 0.08445 0.0
C471 C 0.40223 0.93183 0.07697 0.0
C472 C 0.40269 0.87703 0.08192 0.0
C473 C 0.36227 0.85743 0.0936 0.0
C474 C 0.36093 0.02554 0.07953 0.0
C475 C 0.44419 0.83856 0.07416 0.0
H476 H 0.44687 0.97768 0.01606 0.0
H477 H 0.55716 0.02288 0.05991 0.0
H478 H 0.37186 0.88373 0.04176 0.0
H479 H 0.33952 0.94778 0.04304 0.0
H480 H 0.37046 0.92571 0.02143 0.0
H481 H 0.5476 0.99294 0.09087 0.0
H482 H 0.47857 0.00348 0.09728 0.0
H483 H 0.50387 0.93653 0.09481 0.0
H484 H 0.2915 0.97263 0.10127 0.0
H485 H 0.36136 0.815 0.09676 0.0
H486 H 0.35271 0.02948 0.06431 0.0
H487 H 0.40026 0.04469 0.08243 0.0
H488 H 0.3296 0.04795 0.08747 0.0
H489 H 0.43683 0.83151 0.05897 0.0
H490 H 0.44319 0.79917 0.08123 0.0
H491 H 0.48493 0.85592 0.07567 0.0
C492 C 0.34146 0.18912 0.30563 0.0
C493 C 0.28743 0.18295 0.30065 0.0
C494 C 0.36529 0.15489 0.31859 0.0
C495 C 0.33381 0.11469 0.32697 0.0
C496 C 0.27754 0.11495 0.32448 0.0
C497 C 0.25491 0.14879 0.31109 0.0
C498 C 0.42533 0.15652 0.32102 0.0
C499 C 0.24225 0.07476 0.33408 0.0
C500 C 0.39579 0.97602 0.32728 0.0
C501 C 0.41417 0.97256 0.34575 0.0
C502 C 0.36984 0.02228 0.32109 0.0
C503 C 0.36042 0.06552 0.33392 0.0
C504 C 0.37771 0.0617 0.35276 0.0
C505 C 0.40551 0.01556 0.35837 0.0
C506 C 0.35299 0.02495 0.30074 0.0
C507 C 0.36731 0.10606 0.36701 0.0
H508 H 0.36674 0.21565 0.29762 0.0
H509 H 0.21294 0.14453 0.30741 0.0
H510 H 0.43661 0.15088 0.33588 0.0
H511 H 0.44356 0.12323 0.31265 0.0
H512 H 0.44257 0.19505 0.31622 0.0
H513 H 0.19977 0.08804 0.33429 0.0
H514 H 0.24441 0.03561 0.32641 0.0
H515 H 0.25593 0.06833 0.34869 0.0
H516 H 0.40266 0.94277 0.31753 0.0
H517 H 0.41927 0.01256 0.37274 0.0
H518 H 0.37067 0.06093 0.29418 0.0
H519 H 0.30881 0.02867 0.29973 0.0
H520 H 0.36548 0.98881 0.29247 0.0
H521 H 0.39884 0.13719 0.36587 0.0
H522 H 0.36829 0.09076 0.38154 0.0
H523 H 0.32801 0.12561 0.36459 0.0
C524 C 0.84478 0.95116 0.5424 0.0
C525 C 0.88604 0.98599 0.53706 0.0
C526 C 0.80366 0.96874 0.5544 0.0
C527 C 0.80418 0.02231 0.56135 0.0
C528 C 0.84859 0.05594 0.55747 0.0
C529 C 0.88905 0.03734 0.54531 0.0
C530 C 0.75748 0.93145 0.55826 0.0
C531 C 0.85127 0.11303 0.56497 0.0
C532 C 0.67851 0.10411 0.57084 0.0
C533 C 0.67977 0.10799 0.59041 0.0
C534 C 0.7166 0.07265 0.56112 0.0
C535 C 0.75664 0.04496 0.57132 0.0
C536 C 0.75417 0.04435 0.59111 0.0
C537 C 0.71561 0.07582 0.60041 0.0
C538 C 0.7171 0.07324 0.53997 0.0
C539 C 0.79549 0.01512 0.60257 0.0
H540 H 0.84234 0.91146 0.53591 0.0
H541 H 0.92051 0.06448 0.54102 0.0
H542 H 0.7459 0.93366 0.57326 0.0
H543 H 0.72219 0.9439 0.54991 0.0
H544 H 0.76715 0.88906 0.55446 0.0
H545 H 0.89069 0.13203 0.56225 0.0
H546 H 0.81964 0.13742 0.55824 0.0
H547 H 0.84375 0.1142 0.5803 0.0
H548 H 0.65143 0.12967 0.56312 0.0
H549 H 0.7168 0.07934 0.6156 0.0
H550 H 0.72229 0.03195 0.53412 0.0
H551 H 0.75148 0.09762 0.53517 0.0
H552 H 0.67971 0.09059 0.53416 0.0
H553 H 0.80373 0.97464 0.59648 0.0
H554 H 0.78266 0.0108 0.61738 0.0
H555 H 0.83361 0.03803 0.60248 0.0
C556 C 0.84585 0.04574 0.29184 0.0
C557 C 0.81416 0.08056 0.28122 0.0
C558 C 0.82251 0.00676 0.30319 0.0
C559 C 0.76608 0.00266 0.304 0.0
C560 C 0.73391 0.03991 0.2942 0.0
C561 C 0.75841 0.0785 0.2829 0.0
C562 C 0.85822 0.96843 0.3136 0.0
C563 C 0.67355 0.03747 0.295 0.0
C564 C 0.69594 0.87322 0.31819 0.0
C565 C 0.67981 0.88695 0.33644 0.0
C566 C 0.72605 0.90976 0.30757 0.0
C567 C 0.74048 0.96053 0.31554 0.0
C568 C 0.72745 0.9726 0.33438 0.0
C569 C 0.69713 0.93599 0.34448 0.0
C570 C 0.73983 0.89537 0.28752 0.0
C571 C 0.74251 0.02571 0.34358 0.0
H572 H 0.88904 0.04693 0.29031 0.0
H573 H 0.73395 0.10463 0.2744 0.0
H574 H 0.84758 0.96832 0.32869 0.0
H575 H 0.85216 0.92696 0.30802 0.0
H576 H 0.90129 0.97885 0.31229 0.0
H577 H 0.65436 0.0701 0.28696 0.0
H578 H 0.65949 0.99821 0.28923 0.0
H579 H 0.65987 0.04048 0.30977 0.0
H580 H 0.68227 0.83574 0.31185 0.0
H581 H 0.68448 0.94732 0.35852 0.0
H582 H 0.78304 0.90233 0.28492 0.0
H583 H 0.7171 0.92168 0.27795 0.0
H584 H 0.73019 0.85282 0.28393 0.0
H585 H 0.78562 0.03435 0.34147 0.0
H586 H 0.73418 0.0265 0.35888 0.0
H587 H 0.71947 0.05857 0.33703 0.0
C588 C 0.80316 0.01363 0.05321 0.0
C589 C 0.79736 0.99069 0.03526 0.0
C590 C 0.83882 0.99134 0.06616 0.0
C591 C 0.86866 0.9451 0.06091 0.0
C592 C 0.85998 0.91984 0.04322 0.0
C593 C 0.82461 0.94324 0.03054 0.0
C594 C 0.84703 0.01926 0.08492 0.0
C595 C 0.89047 0.87 0.03721 0.0
C596 C 0.00811 0.92351 0.0799 0.0
C597 C 0.99983 0.88062 0.09194 0.0
C598 C 0.96526 0.94601 0.07011 0.0
C599 C 0.9129 0.9259 0.07289 0.0
C600 C 0.90402 0.88438 0.0858 0.0
C601 C 0.94791 0.86145 0.09498 0.0
C602 C 0.97627 0.99013 0.05638 0.0
C603 C 0.84829 0.86443 0.0899 0.0
H604 H 0.78199 0.05048 0.05675 0.0
H605 H 0.81948 0.92544 0.01665 0.0
H606 H 0.84891 0.98974 0.09636 0.0
H607 H 0.88575 0.04111 0.08486 0.0
H608 H 0.81465 0.04866 0.08808 0.0
H609 H 0.87354 0.85113 0.02425 0.0
H610 H 0.93286 0.88073 0.03451 0.0
H611 H 0.89025 0.83991 0.04849 0.0
H612 H 0.0484 0.93838 0.07773 0.0
H613 H 0.94164 0.82915 0.10473 0.0
H614 H 0.9505 0.02546 0.05951 0.0
H615 H 0.96639 0.97582 0.04195 0.0
H616 H 0.0188 0.00324 0.05668 0.0
H617 H 0.82512 0.89674 0.09708 0.0
H618 H 0.84852 0.82867 0.09899 0.0
H619 H 0.82695 0.85435 0.07665 0.0
C620 C 0.97632 0.95488 0.76299 0.0
C621 C 0.9365 0.91759 0.76746 0.0
C622 C 0.99835 0.98891 0.77688 0.0
C623 C 0.97925 0.98601 0.7955 0.0
C624 C 0.944 0.94413 0.80044 0.0
C625 C 0.923 0.91023 0.78632 0.0
C626 C 0.03812 0.03129 0.7713 0.0
C627 C 0.92456 0.93841 0.82031 0.0
C628 C 0.04141 0.07934 0.8325 0.0
C629 C 0.00628 0.12328 0.83204 0.0
C630 C 0.03236 0.03335 0.82117 0.0
C631 C 0.98813 0.03202 0.80874 0.0
C632 C 0.9521 0.0759 0.80847 0.0
C633 C 0.96143 0.12071 0.82017 0.0
C634 C 0.07125 0.98732 0.82226 0.0
C635 C 0.90395 0.07598 0.79557 0.0
H636 H 0.98743 0.95996 0.74844 0.0
H637 H 0.89233 0.8813 0.78985 0.0
H638 H 0.0557 0.02252 0.75728 0.0
H639 H 0.01773 0.07089 0.77087 0.0
H640 H 0.07095 0.0345 0.78178 0.0
H641 H 0.90387 0.89946 0.82239 0.0
H642 H 0.95858 0.94169 0.83032 0.0
H643 H 0.89613 0.97143 0.82374 0.0
H644 H 0.07585 0.08067 0.84175 0.0
H645 H 0.93401 0.15442 0.81965 0.0
H646 H 0.05395 0.94855 0.8173 0.0
H647 H 0.08544 0.98249 0.83689 0.0
H648 H 0.10625 0.99664 0.81337 0.0
H649 H 0.91727 0.07332 0.78075 0.0
H650 H 0.87907 0.1127 0.79743 0.0
H651 H 0.87849 0.04037 0.79819 0.0
C652 C 0.82851 0.9861 0.46712 0.0
C653 C 0.87223 0.95126 0.46938 0.0
C654 C 0.78688 0.97357 0.45457 0.0
C655 C 0.7893 0.92524 0.4439 0.0
C656 C 0.83494 0.89149 0.44528 0.0
C657 C 0.87596 0.90495 0.45805 0.0
C658 C 0.73927 0.01078 0.45338 0.0
C659 C 0.83937 0.84 0.43385 0.0
C660 C 0.66783 0.85041 0.42484 0.0
C661 C 0.67287 0.86024 0.40569 0.0
C662 C 0.70324 0.87472 0.43783 0.0
C663 C 0.74414 0.90933 0.43135 0.0
C664 C 0.7454 0.92353 0.41227 0.0
C665 C 0.70989 0.89853 0.39969 0.0
C666 C 0.70011 0.85934 0.45816 0.0
C667 C 0.78781 0.96055 0.40472 0.0
H668 H 0.82579 0.02216 0.47584 0.0
H669 H 0.90944 0.8778 0.45992 0.0
H670 H 0.73095 0.02087 0.43857 0.0
H671 H 0.70318 0.99032 0.45883 0.0
H672 H 0.74541 0.04868 0.46158 0.0
H673 H 0.8783 0.81937 0.43602 0.0
H674 H 0.80664 0.81221 0.43773 0.0
H675 H 0.8348 0.84843 0.41871 0.0
H676 H 0.63999 0.81993 0.42941 0.0
H677 H 0.71471 0.9049 0.38482 0.0
H678 H 0.70398 0.8954 0.46745 0.0
H679 H 0.73379 0.83198 0.46147 0.0
H680 H 0.66193 0.83859 0.4614 0.0
H681 H 0.79305 0.99636 0.41403 0.0
H682 H 0.77796 0.97417 0.39037 0.0
H683 H 0.82672 0.93904 0.40417 0.0
C684 C 0.9475 0.02038 0.22866 0.0
C685 C 0.9112 0.05837 0.22183 0.0
C686 C 0.96789 0.9795 0.21702 0.0
C687 C 0.9521 0.97687 0.19798 0.0
C688 C 0.91802 0.01697 0.19068 0.0
C689 C 0.89777 0.05734 0.20274 0.0
C690 C 0.00347 0.9374 0.22557 0.0
C691 C 0.90088 0.01566 0.17037 0.0
C692 C 0.03149 0.88734 0.16462 0.0
C693 C 0.99976 0.84092 0.16381 0.0
C694 C 0.0168 0.93186 0.17577 0.0
C695 C 0.96854 0.93022 0.18608 0.0
C696 C 0.93647 0.88329 0.18547 0.0
C697 C 0.95245 0.83919 0.17431 0.0
C698 C 0.05246 0.98086 0.17623 0.0
C699 C 0.88517 0.87978 0.19655 0.0
H700 H 0.95862 0.02153 0.24338 0.0
H701 H 0.86955 0.0865 0.19743 0.0
H702 H 0.97821 0.90368 0.23037 0.0
H703 H 0.03269 0.92088 0.21531 0.0
H704 H 0.02562 0.95383 0.23793 0.0
H705 H 0.87754 0.05189 0.16657 0.0
H706 H 0.93643 0.01261 0.16111 0.0
H707 H 0.87583 0.97956 0.16756 0.0
H708 H 0.06678 0.8897 0.15597 0.0
H709 H 0.92761 0.80347 0.17367 0.0
H710 H 0.05872 0.99544 0.19086 0.0
H711 H 0.03282 0.01371 0.16847 0.0
H712 H 0.09218 0.97271 0.16978 0.0
H713 H 0.89393 0.88503 0.21174 0.0
H714 H 0.86437 0.84072 0.1943 0.0
H715 H 0.85761 0.91262 0.19254 0.0
C716 C 0.82096 0.04458 0.96155 0.0
C717 C 0.7956 0.07997 0.97411 0.0
C718 C 0.8569 0.06389 0.94821 0.0
C719 C 0.86863 0.11955 0.94795 0.0
C720 C 0.84108 0.15562 0.96009 0.0
C721 C 0.8044 0.1353 0.97299 0.0
C722 C 0.8845 0.02444 0.93512 0.0
C723 C 0.85314 0.21504 0.9605 0.0
C724 C 0.00961 0.15121 0.93249 0.0
C725 C 0.00107 0.16883 0.91423 0.0
C726 C 0.96644 0.1371 0.94386 0.0
C727 C 0.91379 0.13902 0.93648 0.0
C728 C 0.90493 0.15762 0.91809 0.0
C729 C 0.94886 0.17302 0.90722 0.0
C730 C 0.97732 0.11889 0.96359 0.0
C731 C 0.84961 0.15856 0.90954 0.0
H732 H 0.81391 0.00174 0.96259 0.0
H733 H 0.78499 0.16233 0.98296 0.0
H734 H 0.88294 0.03887 0.9205 0.0
H735 H 0.92733 0.021 0.9391 0.0
H736 H 0.86615 0.98381 0.93554 0.0
H737 H 0.82092 0.23844 0.9676 0.0
H738 H 0.89111 0.22218 0.96827 0.0
H739 H 0.85857 0.23034 0.94614 0.0
H740 H 0.05019 0.14819 0.93782 0.0
H741 H 0.94262 0.18581 0.89292 0.0
H742 H 0.96582 0.07607 0.96492 0.0
H743 H 0.95275 0.14253 0.97373 0.0
H744 H 0.02017 0.12323 0.96757 0.0
H745 H 0.83801 0.117 0.90534 0.0
H746 H 0.84798 0.18395 0.8969 0.0
H747 H 0.81956 0.17341 0.91982 0.0
C748 C 0.78601 0.94313 0.69977 0.0
C749 C 0.80326 0.95462 0.71813 0.0
C750 C 0.76037 0.98254 0.68908 0.0
C751 C 0.7522 0.03473 0.6969 0.0
C752 C 0.76961 0.04656 0.71538 0.0
C753 C 0.79422 0.00627 0.72582 0.0
C754 C 0.74146 0.96817 0.6695 0.0
C755 C 0.76168 0.10162 0.72421 0.0
C756 C 0.71704 0.14263 0.66174 0.0
C757 C 0.66112 0.14161 0.66263 0.0
C758 C 0.74779 0.10997 0.67357 0.0
C759 C 0.7216 0.0755 0.68626 0.0
C760 C 0.66523 0.07741 0.68799 0.0
C761 C 0.63578 0.11058 0.67618 0.0
C762 C 0.80791 0.10965 0.67158 0.0
C763 C 0.63556 0.04133 0.70125 0.0
H764 H 0.7931 0.90353 0.6937 0.0
H765 H 0.80613 0.01527 0.74016 0.0
H766 H 0.69735 0.97293 0.66859 0.0
H767 H 0.75945 0.99589 0.65926 0.0
H768 H 0.75192 0.92625 0.66532 0.0
H769 H 0.78107 0.10546 0.73821 0.0
H770 H 0.77829 0.13289 0.71498 0.0
H771 H 0.71828 0.10997 0.72583 0.0
H772 H 0.73642 0.16575 0.65095 0.0
H773 H 0.59236 0.10941 0.67661 0.0
H774 H 0.8207 0.07151 0.66464 0.0
H775 H 0.82742 0.11172 0.68557 0.0
H776 H 0.82239 0.14366 0.66309 0.0
H777 H 0.64024 0.99881 0.69657 0.0
H778 H 0.5921 0.05077 0.7019 0.0
H779 H 0.65251 0.04497 0.7156 0.0
C780 C 0.74062 0.43935 0.97181 0.0
C781 C 0.7067 0.47244 0.96138 0.0
C782 C 0.78235 0.41047 0.96318 0.0
C783 C 0.7907 0.41538 0.94367 0.0
C784 C 0.75455 0.44631 0.93291 0.0
C785 C 0.71274 0.47438 0.94192 0.0
C786 C 0.81946 0.37768 0.97517 0.0
C787 C 0.76193 0.45235 0.91205 0.0
C788 C 0.92931 0.39887 0.92232 0.0
C789 C 0.92451 0.34895 0.91301 0.0
C790 C 0.88687 0.41994 0.93311 0.0
C791 C 0.83854 0.39044 0.93458 0.0
C792 C 0.83493 0.33848 0.92637 0.0
C793 C 0.87808 0.31815 0.91585 0.0
C794 C 0.89248 0.47528 0.94192 0.0
C795 C 0.78423 0.30572 0.92777 0.0
H796 H 0.73616 0.43833 0.98693 0.0
H797 H 0.68703 0.50066 0.93394 0.0
H798 H 0.83006 0.33914 0.96807 0.0
H799 H 0.85717 0.40035 0.9776 0.0
H800 H 0.80148 0.36897 0.98902 0.0
H801 H 0.72845 0.47479 0.90554 0.0
H802 H 0.79984 0.47413 0.90936 0.0
H803 H 0.7651 0.4123 0.90505 0.0
H804 H 0.96484 0.42303 0.92027 0.0
H805 H 0.874 0.2793 0.9089 0.0
H806 H 0.88149 0.47446 0.95698 0.0
H807 H 0.86456 0.50339 0.93498 0.0
H808 H 0.93384 0.49127 0.9407 0.0
H809 H 0.77334 0.30059 0.9427 0.0
H810 H 0.78814 0.26548 0.92096 0.0
H811 H 0.75062 0.3272 0.921 0.0
C812 C 0.94749 0.39028 0.20975 0.0
C813 C 0.91562 0.34431 0.20765 0.0
C814 C 0.96319 0.41953 0.1941 0.0
C815 C 0.9458 0.40263 0.176 0.0
C816 C 0.91787 0.35346 0.1737 0.0
C817 C 0.90316 0.32466 0.18962 0.0
C818 C 0.99423 0.47106 0.19713 0.0
C819 C 0.89927 0.33375 0.15464 0.0
C820 C 0.91656 0.52215 0.14576 0.0
C821 C 0.96394 0.52617 0.13541 0.0
C822 C 0.90871 0.47978 0.15811 0.0
C823 C 0.94945 0.44071 0.16027 0.0
C824 C 0.99563 0.44228 0.14885 0.0
C825 C 0.00223 0.48493 0.13645 0.0
C826 C 0.85843 0.47909 0.16985 0.0
C827 C 0.03989 0.40139 0.15072 0.0
H828 H 0.95736 0.4051 0.22373 0.0
H829 H 0.8783 0.28913 0.18804 0.0
H830 H 0.02766 0.47364 0.18697 0.0
H831 H 0.96739 0.50586 0.19478 0.0
H832 H 0.01088 0.47457 0.21156 0.0
H833 H 0.8876 0.29068 0.15475 0.0
H834 H 0.86396 0.35757 0.15026 0.0
H835 H 0.93096 0.33924 0.14397 0.0
H836 H 0.88666 0.5536 0.14489 0.0
H837 H 0.03914 0.48781 0.12856 0.0
H838 H 0.86876 0.48795 0.18474 0.0
H839 H 0.83964 0.43871 0.16921 0.0
H840 H 0.82857 0.50919 0.16522 0.0
H841 H 0.06269 0.40982 0.16382 0.0
H842 H 0.06824 0.40251 0.13875 0.0
H843 H 0.02325 0.36021 0.15169 0.0
C844 C 0.98623 0.48447 0.43279 0.0
C845 C 0.9758 0.4927 0.45194 0.0
C846 C 0.95351 0.50795 0.41912 0.0
C847 C 0.90953 0.54023 0.42481 0.0
C848 C 0.89979 0.54975 0.44413 0.0
C849 C 0.9331 0.52602 0.45742 0.0
C850 C 0.96513 0.49717 0.39864 0.0
C851 C 0.85336 0.584 0.4508 0.0
C852 C 0.83579 0.63622 0.39308 0.0
C853 C 0.7888 0.60714 0.38918 0.0
C854 C 0.87707 0.61387 0.40385 0.0
C855 C 0.87111 0.56131 0.41083 0.0
C856 C 0.8251 0.5308 0.40608 0.0
C857 C 0.78457 0.55406 0.39533 0.0
C858 C 0.92573 0.64752 0.40858 0.0
C859 C 0.81724 0.47457 0.41322 0.0
H860 H 0.01922 0.45877 0.42851 0.0
H861 H 0.9257 0.53358 0.47221 0.0
H862 H 0.93208 0.47324 0.39227 0.0
H863 H 0.96729 0.53554 0.391 0.0
H864 H 0.00326 0.47489 0.39652 0.0
H865 H 0.8527 0.5892 0.4663 0.0
H866 H 0.85535 0.62428 0.44443 0.0
H867 H 0.81505 0.56524 0.44625 0.0
H868 H 0.83954 0.67715 0.38831 0.0
H869 H 0.74878 0.53091 0.39219 0.0
H870 H 0.96292 0.62396 0.40625 0.0
H871 H 0.92466 0.65951 0.42364 0.0
H872 H 0.92763 0.68451 0.40012 0.0
H873 H 0.85314 0.44959 0.41026 0.0
H874 H 0.78174 0.45445 0.40682 0.0
H875 H 0.81183 0.47617 0.42866 0.0
C876 C 0.79357 0.6226 0.70346 0.0
C877 C 0.75805 0.65136 0.71498 0.0
C878 C 0.77541 0.57996 0.69193 0.0
C879 C 0.72034 0.56604 0.69191 0.0
C880 C 0.68401 0.59687 0.70294 0.0
C881 C 0.70348 0.63871 0.71455 0.0
C882 C 0.81552 0.54843 0.68035 0.0
C883 C 0.62505 0.5841 0.70337 0.0
C884 C 0.67364 0.48437 0.64958 0.0
C885 C 0.67284 0.43166 0.65636 0.0
C886 C 0.68709 0.52836 0.66117 0.0
C887 C 0.70119 0.5198 0.68006 0.0
C888 C 0.69998 0.46688 0.68717 0.0
C889 C 0.68602 0.42327 0.67519 0.0
C890 C 0.6865 0.58409 0.65313 0.0
C891 C 0.71428 0.45632 0.70732 0.0
H892 H 0.83602 0.63157 0.70427 0.0
H893 H 0.6764 0.66008 0.72393 0.0
H894 H 0.81577 0.50589 0.68475 0.0
H895 H 0.8039 0.54873 0.66533 0.0
H896 H 0.85675 0.56479 0.68177 0.0
H897 H 0.60963 0.57396 0.68916 0.0
H898 H 0.61887 0.54888 0.71237 0.0
H899 H 0.60117 0.61806 0.70927 0.0
H900 H 0.66431 0.49146 0.63498 0.0
H901 H 0.68572 0.38276 0.68051 0.0
H902 H 0.72742 0.60144 0.65361 0.0
H903 H 0.66027 0.61081 0.6617 0.0
H904 H 0.67204 0.58421 0.63838 0.0
H905 H 0.75596 0.46966 0.71019 0.0
H906 H 0.71074 0.41312 0.71078 0.0
H907 H 0.68763 0.47993 0.71678 0.0
C908 C 0.73776 0.66257 -0.001 0.0
C909 C 0.70236 0.6241 0.00598 0.0
C910 C 0.77985 0.6831 0.01016 0.0
C911 C 0.78743 0.66341 0.02846 0.0
C912 C 0.74948 0.62731 0.03595 0.0
C913 C 0.70731 0.60813 0.02461 0.0
C914 C 0.81771 0.72378 0.00209 0.0
C915 C 0.75509 0.60677 0.05564 0.0
C916 C 0.92542 0.65319 0.05085 0.0
C917 C 0.92285 0.69349 0.06482 0.0
C918 C 0.88266 0.64495 0.03822 0.0
C919 C 0.83632 0.67785 0.03954 0.0
C920 C 0.83527 0.72102 0.05272 0.0
C921 C 0.8787 0.72851 0.06504 0.0
C922 C 0.88549 0.59855 0.02431 0.0
C923 C 0.78786 0.7585 0.05451 0.0
H924 H 0.73435 0.67419 0.98447 0.0
H925 H 0.68052 0.57761 0.02984 0.0
H926 H 0.82149 0.75891 0.01183 0.0
H927 H 0.85815 0.70578 0.00052 0.0
H928 H 0.80414 0.73801 0.98819 0.0
H929 H 0.72109 0.5806 0.05963 0.0
H930 H 0.79282 0.58351 0.05688 0.0
H931 H 0.75745 0.6411 0.06578 0.0
H932 H 0.95918 0.62581 0.05055 0.0
H933 H 0.8767 0.76028 0.07557 0.0
H934 H 0.87543 0.6123 0.01002 0.0
H935 H 0.85557 0.56763 0.02809 0.0
H936 H 0.92574 0.57954 0.02397 0.0
H937 H 0.7962 0.7954 0.04653 0.0
H938 H 0.78139 0.77064 0.0694 0.0
H939 H 0.7501 0.74074 0.04904 0.0
C940 C 0.79075 0.38234 0.27864 0.0
C941 C 0.78769 0.37768 0.25907 0.0
C942 C 0.76782 0.42667 0.28822 0.0
C943 C 0.74143 0.46727 0.27795 0.0
C944 C 0.73618 0.46137 0.25828 0.0
C945 C 0.75898 0.41655 0.24912 0.0
C946 C 0.77327 0.43092 0.30928 0.0
C947 C 0.70816 0.50338 0.2468 0.0
C948 C 0.64563 0.5575 0.30524 0.0
C949 C 0.67852 0.60116 0.31045 0.0
C950 C 0.66525 0.51428 0.29437 0.0
C951 C 0.7186 0.51546 0.28785 0.0
C952 C 0.75052 0.56167 0.2915 0.0
C953 C 0.73024 0.6039 0.30287 0.0
C954 C 0.63017 0.4656 0.29099 0.0
C955 C 0.80722 0.56503 0.28436 0.0
H956 H 0.81326 0.35273 0.28636 0.0
H957 H 0.75616 0.41288 0.23398 0.0
H958 H 0.79744 0.46686 0.31316 0.0
H959 H 0.73328 0.43615 0.31581 0.0
H960 H 0.79272 0.39492 0.31527 0.0
H961 H 0.70664 0.49228 0.23164 0.0
H962 H 0.66664 0.50949 0.2519 0.0
H963 H 0.72929 0.54242 0.24844 0.0
H964 H 0.60541 0.55542 0.31073 0.0
H965 H 0.75614 0.63719 0.30683 0.0
H966 H 0.64809 0.43021 0.29786 0.0
H967 H 0.62748 0.45596 0.27577 0.0
H968 H 0.58915 0.4714 0.29654 0.0
H969 H 0.83252 0.53525 0.29165 0.0
H970 H 0.82482 0.6056 0.28671 0.0
H971 H 0.80857 0.55496 0.26915 0.0
C972 C 0.00148 0.4241 0.53203 0.0
C973 C 0.98855 0.40517 0.51393 0.0
C974 C 0.97104 0.40885 0.54755 0.0
C975 C 0.92652 0.37444 0.54478 0.0
C976 C 0.91575 0.35224 0.52675 0.0
C977 C 0.94703 0.36782 0.51154 0.0
C978 C 0.98419 0.4326 0.56664 0.0
C979 C 0.86872 0.31519 0.52324 0.0
C980 C 0.84389 0.31592 0.58404 0.0
C981 C 0.79984 0.35093 0.58421 0.0
C982 C 0.88722 0.32435 0.57192 0.0
C983 C 0.88608 0.36871 0.55978 0.0
C984 C 0.84316 0.40576 0.56071 0.0
C985 C 0.80066 0.39643 0.57293 0.0
C986 C 0.93259 0.28429 0.5714 0.0
C987 C 0.84055 0.45378 0.54806 0.0
H988 H 0.03353 0.45307 0.53394 0.0
H989 H 0.93775 0.35227 0.4976 0.0
H990 H 0.95477 0.46457 0.57022 0.0
H991 H 0.98141 0.40158 0.57757 0.0
H992 H 0.02493 0.45052 0.56707 0.0
H993 H 0.8695 0.29673 0.50894 0.0
H994 H 0.86817 0.28266 0.53366 0.0
H995 H 0.83088 0.3382 0.52486 0.0
H996 H 0.8435 0.28068 0.59276 0.0
H997 H 0.76713 0.42412 0.5732 0.0
H998 H 0.9718 0.30507 0.57059 0.0
H999 H 0.92864 0.25817 0.5587 0.0
H1000 H 0.93253 0.25827 0.58389 0.0
H1001 H 0.87787 0.47775 0.54929 0.0
H1002 H 0.80602 0.48043 0.55138 0.0
H1003 H 0.83693 0.43987 0.53323 0.0
C1004 C 0.79495 0.62562 0.78945 0.0
C1005 C 0.83135 0.65421 0.77856 0.0
C1006 C 0.81308 0.58739 0.80221 0.0
C1007 C 0.86862 0.57644 0.80349 0.0
C1008 C 0.90554 0.60691 0.79303 0.0
C1009 C 0.88638 0.646 0.78085 0.0
C1010 C 0.77274 0.55697 0.81362 0.0
C1011 C 0.96497 0.59567 0.79368 0.0
C1012 C 0.93137 0.49561 0.84228 0.0
C1013 C 0.93487 0.44455 0.83374 0.0
C1014 C 0.90732 0.53846 0.83296 0.0
C1015 C 0.88813 0.53029 0.81445 0.0
C1016 C 0.89091 0.47851 0.80588 0.0
C1017 C 0.91351 0.43594 0.81579 0.0
C1018 C 0.90338 0.59262 0.84276 0.0
C1019 C 0.87203 0.46857 0.78598 0.0
H1020 H 0.75235 0.63201 0.78751 0.0
H1021 H 0.91429 0.66767 0.77215 0.0
H1022 H 0.76957 0.51507 0.80816 0.0
H1023 H 0.78585 0.55505 0.82848 0.0
H1024 H 0.73237 0.57566 0.8131 0.0
H1025 H 0.98841 0.62477 0.78539 0.0
H1026 H 0.97968 0.59711 0.80836 0.0
H1027 H 0.97287 0.55458 0.78803 0.0
H1028 H 0.94733 0.50195 0.8563 0.0
H1029 H 0.91646 0.39641 0.80921 0.0
H1030 H 0.86189 0.60834 0.84179 0.0
H1031 H 0.92995 0.62178 0.83578 0.0
H1032 H 0.91498 0.59081 0.85778 0.0
H1033 H 0.82939 0.48025 0.78454 0.0
H1034 H 0.87637 0.42582 0.78148 0.0
H1035 H 0.89544 0.49381 0.77629 0.0
C1036 C 0.40852 0.59554 0.02276 0.0
C1037 C 0.40262 0.60727 0.00373 0.0
C1038 C 0.36926 0.61155 0.03585 0.0
C1039 C 0.32255 0.63849 0.02963 0.0
C1040 C 0.31714 0.65151 0.01054 0.0
C1041 C 0.35785 0.63719 -0.00201 0.0
C1042 C 0.37743 0.59918 0.0563 0.0
C1043 C 0.26775 0.67947 0.00327 0.0
C1044 C 0.20308 0.63612 0.06281 0.0
C1045 C 0.20764 0.68683 0.0714 0.0
C1046 C 0.23883 0.6205 0.04844 0.0
C1047 C 0.28064 0.6559 0.0432 0.0
C1048 C 0.28325 0.70815 0.05123 0.0
C1049 C 0.24595 0.72326 0.06489 0.0
C1050 C 0.2336 0.56528 0.03954 0.0
C1051 C 0.32779 0.7468 0.04651 0.0
H1052 H 0.44283 0.57247 0.02731 0.0
H1053 H 0.35365 0.64786 0.98339 0.0
H1054 H 0.37451 0.63667 0.06491 0.0
H1055 H 0.34545 0.57175 0.06108 0.0
H1056 H 0.41689 0.58015 0.05897 0.0
H1057 H 0.26837 0.68369 0.98779 0.0
H1058 H 0.23138 0.65661 0.00714 0.0
H1059 H 0.26417 0.72008 0.0098 0.0
H1060 H 0.17403 0.60777 0.06805 0.0
H1061 H 0.24958 0.76247 0.0717 0.0
H1062 H 0.26753 0.53976 0.04404 0.0
H1063 H 0.23537 0.56783 0.02404 0.0
H1064 H 0.19559 0.5453 0.0435 0.0
H1065 H 0.3669 0.72945 0.05068 0.0
H1066 H 0.32313 0.78645 0.05375 0.0
H1067 H 0.32931 0.7533 0.03119 0.0
C1068 C 0.33862 0.48474 0.76582 0.0
C1069 C 0.34313 0.53741 0.77322 0.0
C1070 C 0.31494 0.44362 0.77605 0.0
C1071 C 0.293 0.4556 0.79386 0.0
C1072 C 0.29715 0.50849 0.80149 0.0
C1073 C 0.32257 0.54869 0.79114 0.0
C1074 C 0.31182 0.3877 0.76749 0.0
C1075 C 0.27303 0.52308 0.82029 0.0
C1076 C 0.17303 0.37671 0.8101 0.0
C1077 C 0.19483 0.34667 0.82465 0.0
C1078 C 0.20505 0.41074 0.79951 0.0
C1079 C 0.26043 0.4145 0.80352 0.0
C1080 C 0.28344 0.3811 0.8173 0.0
C1081 C 0.25011 0.34756 0.82785 0.0
C1082 C 0.17872 0.44569 0.78503 0.0
C1083 C 0.34248 0.38345 0.82175 0.0
H1084 H 0.35251 0.47554 0.75174 0.0
H1085 H 0.32602 0.589 0.79703 0.0
H1086 H 0.32537 0.35754 0.77775 0.0
H1087 H 0.26969 0.3781 0.7638 0.0
H1088 H 0.33655 0.38349 0.75462 0.0
H1089 H 0.28365 0.56455 0.82499 0.0
H1090 H 0.22876 0.51995 0.81941 0.0
H1091 H 0.28661 0.49456 0.83106 0.0
H1092 H 0.13 0.37654 0.80794 0.0
H1093 H 0.26659 0.32536 0.83946 0.0
H1094 H 0.19944 0.44131 0.77135 0.0
H1095 H 0.18185 0.48852 0.7895 0.0
H1096 H 0.13572 0.43573 0.78295 0.0
H1097 H 0.36643 0.3822 0.80866 0.0
H1098 H 0.35522 0.34986 0.83079 0.0
H1099 H 0.35172 0.42191 0.82919 0.0
C1100 C 0.30685 0.45588 0.52274 0.0
C1101 C 0.27901 0.42318 0.50987 0.0
C1102 C 0.34307 0.43368 0.53544 0.0
C1103 C 0.35228 0.37755 0.53494 0.0
C1104 C 0.32297 0.34414 0.52232 0.0
C1105 C 0.28626 0.36744 0.50995 0.0
C1106 C 0.37269 0.47051 0.54896 0.0
C1107 C 0.33217 0.28427 0.52123 0.0
C1108 C 0.48989 0.34027 0.55266 0.0
C1109 C 0.47844 0.32377 0.57085 0.0
C1110 C 0.44866 0.35485 0.54042 0.0
C1111 C 0.39506 0.35472 0.54685 0.0
C1112 C 0.38327 0.33686 0.56513 0.0
C1113 C 0.42525 0.32073 0.57686 0.0
C1114 C 0.46266 0.37246 0.52089 0.0
C1115 C 0.32695 0.33824 0.57274 0.0
H1116 H 0.30072 0.49903 0.52266 0.0
H1117 H 0.26481 0.34239 0.49985 0.0
H1118 H 0.36883 0.45579 0.56349 0.0
H1119 H 0.41597 0.47064 0.54547 0.0
H1120 H 0.35766 0.51249 0.54857 0.0
H1121 H 0.29941 0.26323 0.51352 0.0
H1122 H 0.37039 0.27605 0.51381 0.0
H1123 H 0.3357 0.26727 0.53545 0.0
H1124 H 0.53124 0.34236 0.54811 0.0
H1125 H 0.41675 0.30861 0.59108 0.0
H1126 H 0.45405 0.41595 0.51951 0.0
H1127 H 0.43769 0.35056 0.51037 0.0
H1128 H 0.50554 0.36546 0.51751 0.0
H1129 H 0.31658 0.38023 0.57678 0.0
H1130 H 0.3227 0.31302 0.58534 0.0
H1131 H 0.29762 0.32467 0.56196 0.0
C1132 C 0.44413 0.44843 0.26367 0.0
C1133 C 0.39778 0.42134 0.26915 0.0
C1134 C 0.4656 0.48994 0.27489 0.0
C1135 C 0.43907 0.50531 0.29169 0.0
C1136 C 0.39397 0.47594 0.29777 0.0
C1137 C 0.37425 0.43371 0.28649 0.0
C1138 C 0.51408 0.51963 0.26785 0.0
C1139 C 0.36409 0.49168 0.31542 0.0
C1140 C 0.50299 0.60071 0.32726 0.0
C1141 C 0.48316 0.65028 0.32138 0.0
C1142 C 0.48925 0.55291 0.31776 0.0
C1143 C 0.45508 0.55511 0.30193 0.0
C1144 C 0.43475 0.60523 0.296 0.0
C1145 C 0.44896 0.65231 0.30587 0.0
C1146 C 0.50927 0.50048 0.32552 0.0
C1147 C 0.39646 0.60896 0.27964 0.0
H1148 H 0.46207 0.43886 0.25018 0.0
H1149 H 0.33792 0.41309 0.29054 0.0
H1150 H 0.5008 0.55156 0.25824 0.0
H1151 H 0.5374 0.53884 0.27941 0.0
H1152 H 0.54083 0.49213 0.25976 0.0
H1153 H 0.32905 0.46529 0.31793 0.0
H1154 H 0.3912 0.48965 0.3277 0.0
H1155 H 0.34984 0.53381 0.31448 0.0
H1156 H 0.52728 0.59896 0.33984 0.0
H1157 H 0.43283 0.69069 0.30163 0.0
H1158 H 0.50917 0.46724 0.31495 0.0
H1159 H 0.48315 0.48877 0.33732 0.0
H1160 H 0.55034 0.50509 0.33133 0.0
H1161 H 0.41644 0.59481 0.26659 0.0
H1162 H 0.38196 0.65063 0.27754 0.0
H1163 H 0.36134 0.58253 0.28191 0.0
C1164 C 0.37497 0.55686 0.93394 0.0
C1165 C 0.41552 0.52394 0.94117 0.0
C1166 C 0.33251 0.53511 0.92339 0.0
C1167 C 0.33155 0.47928 0.91942 0.0
C1168 C 0.3755 0.44685 0.92491 0.0
C1169 C 0.41685 0.46954 0.93592 0.0
C1170 C 0.28641 0.57111 0.9181 0.0
C1171 C 0.37706 0.38742 0.9203 0.0
C1172 C 0.20417 0.39706 0.91351 0.0
C1173 C 0.20378 0.38814 0.8941 0.0
C1174 C 0.24332 0.43045 0.9219 0.0
C1175 C 0.28337 0.45403 0.91057 0.0
C1176 C 0.27968 0.44917 0.89084 0.0
C1177 C 0.23918 0.41718 0.88285 0.0
C1178 C 0.24467 0.43654 0.94298 0.0
C1179 C 0.32173 0.47282 0.87824 0.0
H1180 H 0.3739 0.59903 0.93806 0.0
H1181 H 0.44782 0.44396 0.94161 0.0
H1182 H 0.27334 0.56309 0.90345 0.0
H1183 H 0.25179 0.56272 0.92733 0.0
H1184 H 0.29684 0.61436 0.91969 0.0
H1185 H 0.41697 0.3697 0.92324 0.0
H1186 H 0.34675 0.36632 0.92881 0.0
H1187 H 0.36705 0.3799 0.90531 0.0
H1188 H 0.17748 0.374 0.92223 0.0
H1189 H 0.23912 0.40974 0.8678 0.0
H1190 H 0.25172 0.47912 0.94719 0.0
H1191 H 0.27822 0.41247 0.94865 0.0
H1192 H 0.20685 0.42271 0.94949 0.0
H1193 H 0.32782 0.51604 0.88163 0.0
H1194 H 0.31103 0.4684 0.86317 0.0
H1195 H 0.36052 0.45219 0.88057 0.0
C1196 C 0.4285 0.58423 0.7022 0.0
C1197 C 0.45503 0.57814 0.7194 0.0
C1198 C 0.43742 0.54825 0.68723 0.0
C1199 C 0.4744 0.50587 0.6895 0.0
C1200 C 0.50595 0.50346 0.70599 0.0
C1201 C 0.49573 0.53968 0.72085 0.0
C1202 C 0.40243 0.55196 0.67 0.0
C1203 C 0.54699 0.45959 0.70855 0.0
C1204 C 0.44477 0.3691 0.66797 0.0
C1205 C 0.48112 0.36714 0.65307 0.0
C1206 C 0.44105 0.41491 0.6796 0.0
C1207 C 0.47432 0.4597 0.6761 0.0
C1208 C 0.50867 0.45909 0.66041 0.0
C1209 C 0.51193 0.41256 0.64911 0.0
C1210 C 0.40269 0.41472 0.69595 0.0
C1211 C 0.54306 0.50689 0.65594 0.0
H1212 H 0.39654 0.61351 0.70104 0.0
H1213 H 0.51654 0.53528 0.73409 0.0
H1214 H 0.42459 0.54065 0.65707 0.0
H1215 H 0.36834 0.52368 0.67131 0.0
H1216 H 0.38589 0.59309 0.66842 0.0
H1217 H 0.5709 0.46556 0.72158 0.0
H1218 H 0.52662 0.42005 0.70922 0.0
H1219 H 0.57457 0.45797 0.69637 0.0
H1220 H 0.42063 0.3341 0.67098 0.0
H1221 H 0.53859 0.41162 0.63717 0.0
H1222 H 0.37636 0.45061 0.6956 0.0
H1223 H 0.4255 0.41673 0.70932 0.0
H1224 H 0.37716 0.37816 0.69597 0.0
H1225 H 0.5192 0.54447 0.65627 0.0
H1226 H 0.56232 0.50267 0.64197 0.0
H1227 H 0.57443 0.51121 0.66685 0.0
C1228 C 0.27238 0.51484 0.4377 0.0
C1229 C 0.26326 0.5399 0.45511 0.0
C1230 C 0.30815 0.53705 0.42492 0.0
C1231 C 0.33451 0.58576 0.42971 0.0
C1232 C 0.32205 0.6133 0.44671 0.0
C1233 C 0.28686 0.58954 0.45939 0.0
C1234 C 0.32111 0.50586 0.40713 0.0
C1235 C 0.34839 0.66612 0.45194 0.0
C1236 C 0.47537 0.60454 0.41178 0.0
C1237 C 0.46727 0.64091 0.39733 0.0
C1238 C 0.4323 0.58633 0.42242 0.0
C1239 C 0.37991 0.60425 0.41821 0.0
C1240 C 0.3713 0.63968 0.40323 0.0
C1241 C 0.4154 0.65838 0.39309 0.0
C1242 C 0.4429 0.54802 0.4382 0.0
C1243 C 0.31555 0.65698 0.39785 0.0
H1244 H 0.25434 0.47599 0.43466 0.0
H1245 H 0.27955 0.60847 0.47297 0.0
H1246 H 0.32485 0.53287 0.39502 0.0
H1247 H 0.36016 0.48523 0.40887 0.0
H1248 H 0.29024 0.47495 0.40382 0.0
H1249 H 0.33411 0.68237 0.46565 0.0
H1250 H 0.39246 0.66092 0.45274 0.0
H1251 H 0.34018 0.69608 0.44096 0.0
H1252 H 0.51562 0.59096 0.41492 0.0
H1253 H 0.40925 0.68536 0.38153 0.0
H1254 H 0.41936 0.51062 0.436 0.0
H1255 H 0.42983 0.56645 0.45172 0.0
H1256 H 0.48592 0.5372 0.43937 0.0
H1257 H 0.29001 0.62134 0.39495 0.0
H1258 H 0.31528 0.68246 0.38523 0.0
H1259 H 0.29702 0.6793 0.40976 0.0
C1260 C 0.33098 0.44392 0.19981 0.0
C1261 C 0.29427 0.4148 0.21053 0.0
C1262 C 0.31375 0.48292 0.18725 0.0
C1263 C 0.2583 0.49194 0.18486 0.0
C1264 C 0.22084 0.46001 0.1946 0.0
C1265 C 0.23931 0.422 0.20747 0.0
C1266 C 0.35497 0.51597 0.17713 0.0
C1267 C 0.16128 0.4673 0.19191 0.0
C1268 C 0.20714 0.62492 0.16601 0.0
C1269 C 0.19685 0.61069 0.14726 0.0
C1270 C 0.22873 0.58703 0.17838 0.0
C1271 C 0.23961 0.53395 0.1718 0.0
C1272 C 0.23193 0.52051 0.15267 0.0
C1273 C 0.21141 0.55916 0.14063 0.0
C1274 C 0.23783 0.60305 0.19865 0.0
C1275 C 0.24263 0.46443 0.14506 0.0
H1276 H 0.37356 0.43799 0.20198 0.0
H1277 H 0.21078 0.39998 0.2158 0.0
H1278 H 0.34882 0.5125 0.16175 0.0
H1279 H 0.35027 0.55903 0.18112 0.0
H1280 H 0.39661 0.50345 0.18041 0.0
H1281 H 0.13756 0.43697 0.19955 0.0
H1282 H 0.14925 0.50794 0.19697 0.0
H1283 H 0.15088 0.46435 0.17678 0.0
H1284 H 0.19582 0.6645 0.17122 0.0
H1285 H 0.20422 0.54798 0.12608 0.0
H1286 H 0.27922 0.59264 0.20297 0.0
H1287 H 0.21006 0.58036 0.20768 0.0
H1288 H 0.23135 0.64673 0.20123 0.0
H1289 H 0.2841 0.45187 0.14843 0.0
H1290 H 0.23689 0.46128 0.12963 0.0
H1291 H 0.21516 0.43559 0.15181 0.0
loop_
_geom_bond_atom_site_label_1
_geom_bond_atom_site_label_2
_geom_bond_distance
_geom_bond_site_symmetry_2
_ccdc_geom_bond_type
H0 C6 0.930 . S
H1 C9 0.931 . S
H2 C11 0.931 . S
H3 C13 0.930 . S
H4 C15 0.930 . S
H5 C17 0.931 . S
C6 H0 0.930 . S
C6 C7 1.380 1_545 S
C6 C8 1.394 . S
C7 C6 1.380 1_565 S
C7 C11 1.382 . S
C8 C6 1.394 . S
C8 C9 1.400 . S
C9 H1 0.931 . S
C9 C8 1.400 . S
C9 C10 1.375 1_545 S
C10 C9 1.375 1_565 S
C10 C11 1.415 . S
C10 C12 1.501 1_655 S
C11 H2 0.931 . S
C11 C7 1.382 . S
C11 C10 1.415 . S
C12 C10 1.501 1_455 S
C12 C13 1.384 . S
C12 C17 1.408 1_565 S
C13 H3 0.930 . S
C13 C12 1.384 . S
C13 C14 1.389 . S
C14 C13 1.389 . S
C14 C15 1.405 . S
C15 H4 0.930 . S
C15 C14 1.405 . S
C15 C16 1.364 1_565 S
C16 C15 1.364 1_545 S
C16 C17 1.400 . S
C17 H5 0.931 . S
C17 C12 1.408 1_545 S
C17 C16 1.400 . S
H18 C24 0.930 . S
H19 C27 0.931 . S
H20 C29 0.931 . S
H21 C31 0.930 . S
H22 C33 0.930 . S
H23 C35 0.931 . S
C24 H18 0.930 . S
C24 C25 1.380 . S
C24 C26 1.394 . S
C25 C24 1.380 . S
C25 C29 1.382 . S
C26 C24 1.394 . S
C26 C27 1.400 . S
C27 H19 0.931 . S
C27 C26 1.400 . S
C27 C28 1.375 . S
C28 C27 1.375 . S
C28 C29 1.415 . S
C28 C30 1.501 . S
C29 H20 0.931 . S
C29 C25 1.382 . S
C29 C28 1.415 . S
C30 C28 1.501 . S
C30 C31 1.384 . S
C30 C35 1.408 . S
C31 H21 0.930 . S
C31 C30 1.384 . S
C31 C32 1.389 . S
C32 C31 1.389 . S
C32 C33 1.405 . S
C33 H22 0.930 . S
C33 C32 1.405 . S
C33 C34 1.364 . S
C34 C33 1.364 . S
C34 C35 1.400 . S
C35 H23 0.931 . S
C35 C30 1.408 . S
C35 C34 1.400 . S
H36 C42 0.930 . S
H37 C45 0.931 . S
H38 C47 0.931 . S
H39 C49 0.930 . S
H40 C51 0.930 . S
H41 C53 0.931 . S
C42 H36 0.930 . S
C42 C43 1.380 1_564 S
C42 C44 1.394 . S
C43 C42 1.380 1_546 S
C43 C47 1.382 . S
C44 C42 1.394 . S
C44 C45 1.400 . S
C45 H37 0.931 . S
C45 C44 1.400 . S
C45 C46 1.375 1_565 S
C46 C45 1.375 1_545 S
C46 C47 1.415 1_554 S
C46 C48 1.501 . S
C47 H38 0.931 . S
C47 C43 1.382 . S
C47 C46 1.415 1_556 S
C48 C46 1.501 . S
C48 C49 1.384 1_554 S
C48 C53 1.408 1_545 S
C49 H39 0.930 . S
C49 C48 1.384 1_556 S
C49 C50 1.389 . S
C50 C49 1.389 . S
C50 C51 1.405 1_556 S
C51 H40 0.930 . S
C51 C50 1.405 1_554 S
C51 C52 1.364 1_545 S
C52 C51 1.364 1_565 S
C52 C53 1.400 . S
C53 H41 0.931 . S
C53 C48 1.408 1_565 S
C53 C52 1.400 . S
H54 C60 0.930 . S
H55 C63 0.931 . S
H56 C65 0.931 . S
H57 C67 0.930 . S
H58 C69 0.930 . S
H59 C71 0.931 . S
C60 H54 0.930 . S
C60 C61 1.380 . S
C60 C62 1.394 . S
C61 C60 1.380 . S
C61 C65 1.382 . S
C62 C60 1.394 . S
C62 C63 1.400 . S
C63 H55 0.931 . S
C63 C62 1.400 . S
C63 C64 1.375 . S
C64 C63 1.375 . S
C64 C65 1.415 . S
C64 C66 1.501 . S
C65 H56 0.931 . S
C65 C61 1.382 . S
C65 C64 1.415 . S
C66 C64 1.501 . S
C66 C67 1.384 . S
C66 C71 1.408 . S
C67 H57 0.930 . S
C67 C66 1.384 . S
C67 C68 1.389 . S
C68 C67 1.389 . S
C68 C69 1.405 . S
C69 H58 0.930 . S
C69 C68 1.405 . S
C69 C70 1.364 . S
C70 C69 1.364 . S
C70 C71 1.400 . S
C71 H59 0.931 . S
C71 C66 1.408 . S
C71 C70 1.400 . S
H72 C78 0.930 . S
H73 C81 0.931 . S
H74 C83 0.931 . S
H75 C85 0.930 . S
H76 C87 0.930 . S
H77 C89 0.931 . S
C78 H72 0.930 . S
C78 C79 1.380 . S
C78 C80 1.394 . S
C79 C78 1.380 . S
C79 C83 1.382 . S
C80 C78 1.394 . S
C80 C81 1.400 . S
C81 H73 0.931 . S
C81 C80 1.400 . S
C81 C82 1.375 . S
C82 C81 1.375 . S
C82 C83 1.415 . S
C82 C84 1.501 . S
C83 H74 0.931 . S
C83 C79 1.382 . S
C83 C82 1.415 . S
C84 C82 1.501 . S
C84 C85 1.384 . S
C84 C89 1.408 . S
C85 H75 0.930 . S
C85 C84 1.384 . S
C85 C86 1.389 . S
C86 C85 1.389 . S
C86 C87 1.405 . S
C87 H76 0.930 . S
C87 C86 1.405 . S
C87 C88 1.364 . S
C88 C87 1.364 . S
C88 C89 1.400 . S
C89 H77 0.931 . S
C89 C84 1.408 . S
C89 C88 1.400 . S
H90 C96 0.930 . S
H91 C99 0.931 . S
H92 C101 0.931 . S
H93 C103 0.930 . S
H94 C105 0.930 . S
H95 C107 0.931 . S
C96 H90 0.930 . S
C96 C97 1.380 . S
C96 C98 1.394 . S
C97 C96 1.380 . S
C97 C101 1.382 . S
C98 C96 1.394 . S
C98 C99 1.400 . S
C99 H91 0.931 . S
C99 C98 1.400 . S
C99 C100 1.375 . S
C100 C99 1.375 . S
C100 C101 1.415 . S
C100 C102 1.501 . S
C101 H92 0.931 . S
C101 C97 1.382 . S
C101 C100 1.415 . S
C102 C100 1.501 . S
C102 C103 1.384 . S
C102 C107 1.408 . S
C103 H93 0.930 . S
C103 C102 1.384 . S
C103 C104 1.389 . S
C104 C103 1.389 . S
C104 C105 1.405 . S
C105 H94 0.930 . S
C105 C104 1.405 . S
C105 C106 1.364 . S
C106 C105 1.364 . S
C106 C107 1.400 . S
C107 H95 0.931 . S
C107 C102 1.408 . S
C107 C106 1.400 . S
H108 C114 0.930 . S
H109 C117 0.931 . S
H110 C119 0.931 . S
H111 C121 0.930 . S
H112 C123 0.930 . S
H113 C125 0.931 . S
C114 H108 0.930 . S
C114 C115 1.380 . S
C114 C116 1.394 1_554 S
C115 C114 1.380 . S
C115 C119 1.382 . S
C116 C114 1.394 1_556 S
C116 C117 1.400 . S
C117 H109 0.931 . S
C117 C116 1.400 . S
C117 C118 1.375 1_556 S
C118 C117 1.375 1_554 S
C118 C119 1.415 . S
C118 C120 1.501 . S
C119 H110 0.931 . S
C119 C115 1.382 . S
C119 C118 1.415 . S
C120 C118 1.501 . S
C120 C121 1.384 . S
C120 C125 1.408 1_554 S
C121 H111 0.930 . S
C121 C120 1.384 . S
C121 C122 1.389 . S
C122 C121 1.389 . S
C122 C123 1.405 . S
C123 H112 0.930 . S
C123 C122 1.405 . S
C123 C124 1.364 1_554 S
C124 C123 1.364 1_556 S
C124 C125 1.400 . S
C125 H113 0.931 . S
C125 C120 1.408 1_556 S
C125 C124 1.400 . S
H126 C132 0.930 . S
H127 C135 0.931 . S
H128 C137 0.931 . S
H129 C139 0.930 . S
H130 C141 0.930 1_655 S
H131 C143 0.931 . S
C132 H126 0.930 . S
C132 C133 1.380 . S
C132 C134 1.394 . S
C133 C132 1.380 . S
C133 C137 1.382 . S
C134 C132 1.394 . S
C134 C135 1.400 . S
C135 H127 0.931 . S
C135 C134 1.400 . S
C135 C136 1.375 . S
C136 C135 1.375 . S
C136 C137 1.415 . S
C136 C138 1.501 . S
C137 H128 0.931 . S
C137 C133 1.382 . S
C137 C136 1.415 . S
C138 C136 1.501 . S
C138 C139 1.384 . S
C138 C143 1.408 . S
C139 H129 0.930 . S
C139 C138 1.384 . S
C139 C140 1.389 . S
C140 C139 1.389 . S
C140 C141 1.405 . S
C141 H130 0.930 1_455 S
C141 C140 1.405 . S
C141 C142 1.364 . S
C142 C141 1.364 . S
C142 C143 1.400 . S
C143 H131 0.931 . S
C143 C138 1.408 . S
C143 C142 1.400 . S
C144 O171 1.312 . S
C144 O172 1.208 . S
C145 O166 1.331 1_655 S
C145 O169 1.244 . S
C146 O168 1.264 1_655 S
C146 O170 1.273 . S
Mg147 O149 1.936 . S
Mg147 O156 2.081 . S
Mg147 O158 2.023 . S
Mg147 O162 2.031 . S
Mg147 O171 2.291 . S
Mg148 O149 1.963 . S
Mg148 O159 1.942 . S
Mg148 O160 1.955 . S
Mg148 O167 1.986 . S
O149 Mg147 1.936 . S
O149 Mg148 1.963 . S
O149 Mg150 1.915 . S
Mg150 O149 1.915 . S
Mg150 O151 1.915 . S
Mg150 O155 2.013 . S
Mg150 O161 2.114 . S
Mg150 O165 2.013 . S
Mg150 O171 2.114 . S
O151 Mg150 1.915 . S
O151 Mg152 1.936 . S
O151 Mg153 1.963 1_455 S
Mg152 O151 1.936 . S
Mg152 O161 2.291 . S
Mg152 O166 2.081 . S
Mg152 O168 2.023 . S
Mg152 O172 2.031 . S
Mg153 O151 1.963 1_655 S
Mg153 O157 1.986 . S
Mg153 O169 1.942 . S
Mg153 O170 1.955 . S
C154 O165 1.191 . S
C154 O167 1.307 . S
O155 Mg150 2.013 . S
O155 C174 1.191 . S
O156 Mg147 2.081 . S
O156 C164 1.331 . S
O157 Mg153 1.986 . S
O157 C174 1.307 1_655 S
O158 Mg147 2.023 . S
O158 C173 1.264 . S
O159 Mg148 1.942 . S
O159 C164 1.244 . S
O160 Mg148 1.955 . S
O160 C173 1.273 . S
O161 Mg150 2.114 . S
O161 Mg152 2.291 . S
O161 C163 1.312 . S
O162 Mg147 2.031 . S
O162 C163 1.208 . S
C163 O161 1.312 . S
C163 O162 1.208 . S
C164 O156 1.331 . S
C164 O159 1.244 . S
O165 Mg150 2.013 . S
O165 C154 1.191 . S
O166 C145 1.331 1_455 S
O166 Mg152 2.081 . S
O167 Mg148 1.986 . S
O167 C154 1.307 . S
O168 C146 1.264 1_455 S
O168 Mg152 2.023 . S
O169 C145 1.244 . S
O169 Mg153 1.942 . S
O170 C146 1.273 . S
O170 Mg153 1.955 . S
O171 C144 1.312 . S
O171 Mg147 2.291 . S
O171 Mg150 2.114 . S
O172 C144 1.208 . S
O172 Mg152 2.031 . S
C173 O158 1.264 . S
C173 O160 1.273 . S
C174 O155 1.191 . S
C174 O157 1.307 1_455 S
C175 O202 1.312 . S
C175 O203 1.208 . S
C176 O197 1.331 . S
C176 O200 1.244 . S
C177 O199 1.264 . S
C177 O201 1.273 . S
Mg178 O180 1.936 . S
Mg178 O187 2.081 . S
Mg178 O189 2.023 . S
Mg178 O193 2.031 . S
Mg178 O202 2.291 . S
Mg179 O180 1.963 . S
Mg179 O190 1.942 . S
Mg179 O191 1.955 . S
Mg179 O198 1.986 . S
O180 Mg178 1.936 . S
O180 Mg179 1.963 . S
O180 Mg181 1.915 . S
Mg181 O180 1.915 . S
Mg181 O182 1.915 . S
Mg181 O186 2.013 . S
Mg181 O192 2.114 . S
Mg181 O196 2.013 . S
Mg181 O202 2.114 . S
O182 Mg181 1.915 . S
O182 Mg183 1.936 . S
O182 Mg184 1.963 . S
Mg183 O182 1.936 . S
Mg183 O192 2.291 . S
Mg183 O197 2.081 . S
Mg183 O199 2.023 . S
Mg183 O203 2.031 . S
Mg184 O182 1.963 . S
Mg184 O188 1.986 . S
Mg184 O200 1.942 . S
Mg184 O201 1.955 . S
C185 O196 1.191 . S
C185 O198 1.307 . S
O186 Mg181 2.013 . S
O186 C205 1.191 . S
O187 Mg178 2.081 . S
O187 C195 1.331 . S
O188 Mg184 1.986 . S
O188 C205 1.307 . S
O189 Mg178 2.023 . S
O189 C204 1.264 . S
O190 Mg179 1.942 . S
O190 C195 1.244 . S
O191 Mg179 1.955 . S
O191 C204 1.273 . S
O192 Mg181 2.114 . S
O192 Mg183 2.291 . S
O192 C194 1.312 . S
O193 Mg178 2.031 . S
O193 C194 1.208 . S
C194 O192 1.312 . S
C194 O193 1.208 . S
C195 O187 1.331 . S
C195 O190 1.244 . S
O196 Mg181 2.013 . S
O196 C185 1.191 . S
O197 C176 1.331 . S
O197 Mg183 2.081 . S
O198 Mg179 1.986 . S
O198 C185 1.307 . S
O199 C177 1.264 . S
O199 Mg183 2.023 . S
O200 C176 1.244 . S
O200 Mg184 1.942 . S
O201 C177 1.273 . S
O201 Mg184 1.955 . S
O202 C175 1.312 . S
O202 Mg178 2.291 . S
O202 Mg181 2.114 . S
O203 C175 1.208 . S
O203 Mg183 2.031 . S
C204 O189 1.264 . S
C204 O191 1.273 . S
C205 O186 1.191 . S
C205 O188 1.307 . S
C206 O233 1.312 . S
C206 O234 1.208 . S
C207 O228 1.331 . S
C207 O231 1.244 . S
C208 O230 1.264 . S
C208 O232 1.273 . S
Mg209 O211 1.936 . S
Mg209 O218 2.081 . S
Mg209 O220 2.023 . S
Mg209 O224 2.031 . S
Mg209 O233 2.291 . S
Mg210 O211 1.963 . S
Mg210 O221 1.942 . S
Mg210 O222 1.955 . S
Mg210 O229 1.986 . S
O211 Mg209 1.936 . S
O211 Mg210 1.963 . S
O211 Mg212 1.915 . S
Mg212 O211 1.915 . S
Mg212 O213 1.915 . S
Mg212 O217 2.013 . S
Mg212 O223 2.114 . S
Mg212 O227 2.013 . S
Mg212 O233 2.114 . S
O213 Mg212 1.915 . S
O213 Mg214 1.936 . S
O213 Mg215 1.963 . S
Mg214 O213 1.936 . S
Mg214 O223 2.291 . S
Mg214 O228 2.081 . S
Mg214 O230 2.023 . S
Mg214 O234 2.031 . S
Mg215 O213 1.963 . S
Mg215 O219 1.986 . S
Mg215 O231 1.942 . S
Mg215 O232 1.955 . S
C216 O227 1.191 . S
C216 O229 1.307 . S
O217 Mg212 2.013 . S
O217 C236 1.191 . S
O218 Mg209 2.081 . S
O218 C226 1.331 . S
O219 Mg215 1.986 . S
O219 C236 1.307 . S
O220 Mg209 2.023 . S
O220 C235 1.264 . S
O221 Mg210 1.942 . S
O221 C226 1.244 . S
O222 Mg210 1.955 . S
O222 C235 1.273 . S
O223 Mg212 2.114 . S
O223 Mg214 2.291 . S
O223 C225 1.312 . S
O224 Mg209 2.031 . S
O224 C225 1.208 . S
C225 O223 1.312 . S
C225 O224 1.208 . S
C226 O218 1.331 . S
C226 O221 1.244 . S
O227 Mg212 2.013 . S
O227 C216 1.191 . S
O228 C207 1.331 . S
O228 Mg214 2.081 . S
O229 Mg210 1.986 . S
O229 C216 1.307 . S
O230 C208 1.264 . S
O230 Mg214 2.023 . S
O231 C207 1.244 . S
O231 Mg215 1.942 . S
O232 C208 1.273 . S
O232 Mg215 1.955 . S
O233 C206 1.312 . S
O233 Mg209 2.291 . S
O233 Mg212 2.114 . S
O234 C206 1.208 . S
O234 Mg214 2.031 . S
C235 O220 1.264 . S
C235 O222 1.273 . S
C236 O217 1.191 . S
C236 O219 1.307 . S
C237 O264 1.312 . S
C237 O265 1.208 . S
C238 O259 1.331 . S
C238 O262 1.244 . S
C239 O261 1.264 . S
C239 O263 1.273 . S
Mg240 O242 1.936 . S
Mg240 O249 2.081 . S
Mg240 O251 2.023 . S
Mg240 O255 2.031 . S
Mg240 O264 2.291 . S
Mg241 O242 1.963 1_655 S
Mg241 O252 1.942 . S
Mg241 O253 1.955 . S
Mg241 O260 1.986 . S
O242 Mg240 1.936 . S
O242 Mg241 1.963 1_455 S
O242 Mg243 1.915 . S
Mg243 O242 1.915 . S
Mg243 O244 1.915 . S
Mg243 O248 2.013 . S
Mg243 O254 2.114 . S
Mg243 O258 2.013 . S
Mg243 O264 2.114 . S
O244 Mg243 1.915 . S
O244 Mg245 1.936 . S
O244 Mg246 1.963 . S
Mg245 O244 1.936 . S
Mg245 O254 2.291 . S
Mg245 O259 2.081 . S
Mg245 O261 2.023 . S
Mg245 O265 2.031 . S
Mg246 O244 1.963 . S
Mg246 O250 1.986 . S
Mg246 O262 1.942 . S
Mg246 O263 1.955 . S
C247 O258 1.191 . S
C247 O260 1.307 1_455 S
O248 Mg243 2.013 . S
O248 C267 1.191 . S
O249 Mg240 2.081 . S
O249 C257 1.331 1_455 S
O250 Mg246 1.986 . S
O250 C267 1.307 . S
O251 Mg240 2.023 . S
O251 C266 1.264 1_455 S
O252 Mg241 1.942 . S
O252 C257 1.244 . S
O253 Mg241 1.955 . S
O253 C266 1.273 . S
O254 Mg243 2.114 . S
O254 Mg245 2.291 . S
O254 C256 1.312 . S
O255 Mg240 2.031 . S
O255 C256 1.208 . S
C256 O254 1.312 . S
C256 O255 1.208 . S
C257 O249 1.331 1_655 S
C257 O252 1.244 . S
O258 Mg243 2.013 . S
O258 C247 1.191 . S
O259 C238 1.331 . S
O259 Mg245 2.081 . S
O260 Mg241 1.986 . S
O260 C247 1.307 1_655 S
O261 C239 1.264 . S
O261 Mg245 2.023 . S
O262 C238 1.244 . S
O262 Mg246 1.942 . S
O263 C239 1.273 . S
O263 Mg246 1.955 . S
O264 C237 1.312 . S
O264 Mg240 2.291 . S
O264 Mg243 2.114 . S
O265 C237 1.208 . S
O265 Mg245 2.031 . S
C266 O251 1.264 1_655 S
C266 O253 1.273 . S
C267 O248 1.191 . S
C267 O250 1.307 . S
C268 C269 1.391 . S
C268 C270 1.394 . S
C268 H284 0.931 1_565 S
C269 C268 1.391 . S
C269 C273 1.376 . S
C270 C268 1.394 . S
C270 C271 1.369 . S
C270 C274 1.531 . S
C271 C270 1.369 . S
C271 C272 1.410 . S
C271 C279 1.503 . S
C272 C271 1.410 . S
C272 C273 1.392 . S
C272 C275 1.511 . S
C273 C269 1.376 . S
C273 C272 1.392 . S
C273 H285 0.929 . S
C274 C270 1.531 . S
C274 H286 0.960 . S
C274 H287 0.962 1_565 S
C274 H288 0.960 1_565 S
C275 C272 1.511 . S
C275 H289 0.961 . S
C275 H290 0.961 . S
C275 H291 0.961 . S
C276 C277 1.370 . S
C276 C278 1.363 . S
C276 H292 0.931 . S
C277 C276 1.370 . S
C277 C281 1.408 . S
C278 C276 1.363 . S
C278 C279 1.370 . S
C278 C282 1.524 . S
C279 C271 1.503 . S
C279 C278 1.370 . S
C279 C280 1.403 . S
C280 C279 1.403 . S
C280 C281 1.404 . S
C280 C283 1.539 . S
C281 C277 1.408 . S
C281 C280 1.404 . S
C281 H293 0.930 . S
C282 C278 1.524 . S
C282 H294 0.956 . S
C282 H295 0.961 . S
C282 H296 0.961 . S
C283 C280 1.539 . S
C283 H297 0.958 . S
C283 H298 0.961 . S
C283 H299 0.960 . S
H284 C268 0.931 1_545 S
H285 C273 0.929 . S
H286 C274 0.960 . S
H287 C274 0.962 1_545 S
H288 C274 0.960 1_545 S
H289 C275 0.961 . S
H290 C275 0.961 . S
H291 C275 0.961 . S
H292 C276 0.931 . S
H293 C281 0.930 . S
H294 C282 0.956 . S
H295 C282 0.961 . S
H296 C282 0.961 . S
H297 C283 0.958 . S
H298 C283 0.961 . S
H299 C283 0.960 . S
C300 C301 1.391 . S
C300 C302 1.394 . S
C300 H316 0.931 . S
C301 C300 1.391 . S
C301 C305 1.376 . S
C302 C300 1.394 . S
C302 C303 1.369 . S
C302 C306 1.531 . S
C303 C302 1.369 . S
C303 C304 1.410 . S
C303 C311 1.503 . S
C304 C303 1.410 . S
C304 C305 1.392 . S
C304 C307 1.511 . S
C305 C301 1.376 . S
C305 C304 1.392 . S
C305 H317 0.929 . S
C306 C302 1.531 . S
C306 H318 0.960 . S
C306 H319 0.962 . S
C306 H320 0.960 . S
C307 C304 1.511 . S
C307 H321 0.961 . S
C307 H322 0.961 . S
C307 H323 0.961 . S
C308 C309 1.370 . S
C308 C310 1.363 . S
C308 H324 0.931 . S
C309 C308 1.370 . S
C309 C313 1.408 . S
C310 C308 1.363 . S
C310 C311 1.370 1_545 S
C310 C314 1.524 . S
C311 C303 1.503 . S
C311 C310 1.370 1_565 S
C311 C312 1.403 . S
C312 C311 1.403 . S
C312 C313 1.404 1_565 S
C312 C315 1.539 . S
C313 C309 1.408 . S
C313 C312 1.404 1_545 S
C313 H325 0.930 . S
C314 C310 1.524 . S
C314 H326 0.956 . S
C314 H327 0.961 . S
C314 H328 0.961 . S
C315 C312 1.539 . S
C315 H329 0.958 . S
C315 H330 0.961 . S
C315 H331 0.960 . S
H316 C300 0.931 . S
H317 C305 0.929 . S
H318 C306 0.960 . S
H319 C306 0.962 . S
H320 C306 0.960 . S
H321 C307 0.961 . S
H322 C307 0.961 . S
H323 C307 0.961 . S
H324 C308 0.931 . S
H325 C313 0.930 . S
H326 C314 0.956 . S
H327 C314 0.961 . S
H328 C314 0.961 . S
H329 C315 0.958 . S
H330 C315 0.961 . S
H331 C315 0.960 . S
C332 C333 1.391 . S
C332 C334 1.394 . S
C332 H348 0.931 . S
C333 C332 1.391 . S
C333 C337 1.376 . S
C334 C332 1.394 . S
C334 C335 1.369 . S
C334 C338 1.531 . S
C335 C334 1.369 . S
C335 C336 1.410 . S
C335 C343 1.503 . S
C336 C335 1.410 . S
C336 C337 1.392 . S
C336 C339 1.511 . S
C337 C333 1.376 . S
C337 C336 1.392 . S
C337 H349 0.929 . S
C338 C334 1.531 . S
C338 H350 0.960 . S
C338 H351 0.962 . S
C338 H352 0.960 1_545 S
C339 C336 1.511 . S
C339 H353 0.961 . S
C339 H354 0.961 . S
C339 H355 0.961 . S
C340 C341 1.370 . S
C340 C342 1.363 . S
C340 H356 0.931 . S
C341 C340 1.370 . S
C341 C345 1.408 . S
C342 C340 1.363 . S
C342 C343 1.370 . S
C342 C346 1.524 . S
C343 C335 1.503 . S
C343 C342 1.370 . S
C343 C344 1.403 . S
C344 C343 1.403 . S
C344 C345 1.404 . S
C344 C347 1.539 . S
C345 C341 1.408 . S
C345 C344 1.404 . S
C345 H357 0.930 . S
C346 C342 1.524 . S
C346 H358 0.956 . S
C346 H359 0.961 . S
C346 H360 0.961 . S
C347 C344 1.539 . S
C347 H361 0.958 1_545 S
C347 H362 0.961 . S
C347 H363 0.960 . S
H348 C332 0.931 . S
H349 C337 0.929 . S
H350 C338 0.960 . S
H351 C338 0.962 . S
H352 C338 0.960 1_565 S
H353 C339 0.961 . S
H354 C339 0.961 . S
H355 C339 0.961 . S
H356 C340 0.931 . S
H357 C345 0.930 . S
H358 C346 0.956 . S
H359 C346 0.961 . S
H360 C346 0.961 . S
H361 C347 0.958 1_565 S
H362 C347 0.961 . S
H363 C347 0.960 . S
C364 C365 1.391 . S
C364 C366 1.394 . S
C364 H380 0.931 . S
C365 C364 1.391 . S
C365 C369 1.376 . S
C366 C364 1.394 . S
C366 C367 1.369 . S
C366 C370 1.531 . S
C367 C366 1.369 . S
C367 C368 1.410 . S
C367 C375 1.503 . S
C368 C367 1.410 . S
C368 C369 1.392 . S
C368 C371 1.511 . S
C369 C365 1.376 . S
C369 C368 1.392 . S
C369 H381 0.929 . S
C370 C366 1.531 . S
C370 H382 0.960 . S
C370 H383 0.962 . S
C370 H384 0.960 . S
C371 C368 1.511 . S
C371 H385 0.961 . S
C371 H386 0.961 1_545 S
C371 H387 0.961 . S
C372 C373 1.370 . S
C372 C374 1.363 . S
C372 H388 0.931 . S
C373 C372 1.370 . S
C373 C377 1.408 . S
C374 C372 1.363 . S
C374 C375 1.370 1_565 S
C374 C378 1.524 . S
C375 C367 1.503 . S
C375 C374 1.370 1_545 S
C375 C376 1.403 1_545 S
C376 C375 1.403 1_565 S
C376 C377 1.404 . S
C376 C379 1.539 1_565 S
C377 C373 1.408 . S
C377 C376 1.404 . S
C377 H389 0.930 . S
C378 C374 1.524 . S
C378 H390 0.956 1_565 S
C378 H391 0.961 1_565 S
C378 H392 0.961 . S
C379 C376 1.539 1_545 S
C379 H393 0.958 . S
C379 H394 0.961 1_545 S
C379 H395 0.960 . S
H380 C364 0.931 . S
H381 C369 0.929 . S
H382 C370 0.960 . S
H383 C370 0.962 . S
H384 C370 0.960 . S
H385 C371 0.961 . S
H386 C371 0.961 1_565 S
H387 C371 0.961 . S
H388 C372 0.931 . S
H389 C377 0.930 . S
H390 C378 0.956 1_545 S
H391 C378 0.961 1_545 S
H392 C378 0.961 . S
H393 C379 0.958 . S
H394 C379 0.961 1_565 S
H395 C379 0.960 . S
C396 C397 1.391 . S
C396 C398 1.394 . S
C396 H412 0.931 1_545 S
C397 C396 1.391 . S
C397 C401 1.376 . S
C398 C396 1.394 . S
C398 C399 1.369 . S
C398 C402 1.531 1_545 S
C399 C398 1.369 . S
C399 C400 1.410 . S
C399 C407 1.503 . S
C400 C399 1.410 . S
C400 C401 1.392 . S
C400 C403 1.511 . S
C401 C397 1.376 . S
C401 C400 1.392 . S
C401 H413 0.929 . S
C402 C398 1.531 1_565 S
C402 H414 0.960 . S
C402 H415 0.962 . S
C402 H416 0.960 . S
C403 C400 1.511 . S
C403 H417 0.961 . S
C403 H418 0.961 . S
C403 H419 0.961 . S
C404 C405 1.370 . S
C404 C406 1.363 . S
C404 H420 0.931 . S
C405 C404 1.370 . S
C405 C409 1.408 . S
C406 C404 1.363 . S
C406 C407 1.370 . S
C406 C410 1.524 . S
C407 C399 1.503 . S
C407 C406 1.370 . S
C407 C408 1.403 . S
C408 C407 1.403 . S
C408 C409 1.404 . S
C408 C411 1.539 . S
C409 C405 1.408 . S
C409 C408 1.404 . S
C409 H421 0.930 . S
C410 C406 1.524 . S
C410 H422 0.956 . S
C410 H423 0.961 . S
C410 H424 0.961 . S
C411 C408 1.539 . S
C411 H425 0.958 . S
C411 H426 0.961 . S
C411 H427 0.960 . S
H412 C396 0.931 1_565 S
H413 C401 0.929 . S
H414 C402 0.960 . S
H415 C402 0.962 . S
H416 C402 0.960 . S
H417 C403 0.961 . S
H418 C403 0.961 . S
H419 C403 0.961 . S
H420 C404 0.931 . S
H421 C409 0.930 . S
H422 C410 0.956 . S
H423 C410 0.961 . S
H424 C410 0.961 . S
H425 C411 0.958 . S
H426 C411 0.961 . S
H427 C411 0.960 . S
C428 C429 1.391 . S
C428 C430 1.394 . S
C428 H444 0.931 . S
C429 C428 1.391 . S
C429 C433 1.376 . S
C430 C428 1.394 . S
C430 C431 1.369 . S
C430 C434 1.531 . S
C431 C430 1.369 . S
C431 C432 1.410 . S
C431 C439 1.503 . S
C432 C431 1.410 . S
C432 C433 1.392 . S
C432 C435 1.511 . S
C433 C429 1.376 . S
C433 C432 1.392 . S
C433 H445 0.929 . S
C434 C430 1.531 . S
C434 H446 0.960 . S
C434 H447 0.962 . S
C434 H448 0.960 . S
C435 C432 1.511 . S
C435 H449 0.961 . S
C435 H450 0.961 1_565 S
C435 H451 0.961 1_565 S
C436 C437 1.370 . S
C436 C438 1.347 1_545 S
C436 H452 0.931 . S
C437 C436 1.370 . S
C437 C441 1.408 . S
C438 C436 1.347 1_565 S
C438 C439 1.371 . S
C438 C442 1.539 . S
C439 C431 1.503 . S
C439 C438 1.371 . S
C439 C440 1.403 1_565 S
C440 C439 1.403 1_545 S
C440 C441 1.404 . S
C440 C443 1.539 . S
C441 C437 1.408 . S
C441 C440 1.404 . S
C441 H453 0.930 . S
C442 C438 1.539 . S
C442 H454 0.956 . S
C442 H455 0.961 . S
C442 H456 0.961 . S
C443 C440 1.539 . S
C443 H457 0.958 . S
C443 H458 0.961 . S
C443 H459 0.960 . S
H444 C428 0.931 . S
H445 C433 0.929 . S
H446 C434 0.960 . S
H447 C434 0.962 . S
H448 C434 0.960 . S
H449 C435 0.961 . S
H450 C435 0.961 1_545 S
H451 C435 0.961 1_545 S
H452 C436 0.931 . S
H453 C441 0.930 . S
H454 C442 0.956 . S
H455 C442 0.961 . S
H456 C442 0.961 . S
H457 C443 0.958 . S
H458 C443 0.961 . S
H459 C443 0.960 . S
C460 C461 1.391 . S
C460 C462 1.394 . S
C460 H476 0.931 . S
C461 C460 1.391 . S
C461 C465 1.376 . S
C462 C460 1.394 . S
C462 C463 1.369 . S
C462 C466 1.531 . S
C463 C462 1.369 . S
C463 C464 1.410 . S
C463 C471 1.503 . S
C464 C463 1.410 . S
C464 C465 1.392 . S
C464 C467 1.511 . S
C465 C461 1.376 . S
C465 C464 1.392 . S
C465 H477 0.929 . S
C466 C462 1.531 . S
C466 H478 0.960 . S
C466 H479 0.962 . S
C466 H480 0.960 . S
C467 C464 1.511 . S
C467 H481 0.961 . S
C467 H482 0.961 . S
C467 H483 0.961 . S
C468 C469 1.370 . S
C468 C470 1.363 . S
C468 H484 0.931 . S
C469 C468 1.370 . S
C469 C473 1.408 . S
C470 C468 1.363 . S
C470 C471 1.370 . S
C470 C474 1.524 . S
C471 C463 1.503 . S
C471 C470 1.370 . S
C471 C472 1.403 . S
C472 C471 1.403 . S
C472 C473 1.404 . S
C472 C475 1.539 . S
C473 C469 1.408 . S
C473 C472 1.404 . S
C473 H485 0.930 . S
C474 C470 1.524 . S
C474 H486 0.956 1_565 S
C474 H487 0.961 1_565 S
C474 H488 0.961 1_565 S
C475 C472 1.539 . S
C475 H489 0.958 . S
C475 H490 0.961 . S
C475 H491 0.960 . S
H476 C460 0.931 . S
H477 C465 0.929 . S
H478 C466 0.960 . S
H479 C466 0.962 . S
H480 C466 0.960 . S
H481 C467 0.961 . S
H482 C467 0.961 . S
H483 C467 0.961 . S
H484 C468 0.931 . S
H485 C473 0.930 . S
H486 C474 0.956 1_545 S
H487 C474 0.961 1_545 S
H488 C474 0.961 1_545 S
H489 C475 0.958 . S
H490 C475 0.961 . S
H491 C475 0.960 . S
C492 C493 1.391 . S
C492 C494 1.394 . S
C492 H508 0.931 . S
C493 C492 1.391 . S
C493 C497 1.376 . S
C494 C492 1.394 . S
C494 C495 1.369 . S
C494 C498 1.531 . S
C495 C494 1.369 . S
C495 C496 1.410 . S
C495 C503 1.503 . S
C496 C495 1.410 . S
C496 C497 1.392 . S
C496 C499 1.511 . S
C497 C493 1.376 . S
C497 C496 1.392 . S
C497 H509 0.929 . S
C498 C494 1.531 . S
C498 H510 0.960 . S
C498 H511 0.962 . S
C498 H512 0.960 . S
C499 C496 1.511 . S
C499 H513 0.961 . S
C499 H514 0.961 1_545 S
C499 H515 0.961 . S
C500 C501 1.370 . S
C500 C502 1.363 . S
C500 H516 0.931 . S
C501 C500 1.370 . S
C501 C505 1.408 . S
C502 C500 1.363 . S
C502 C503 1.370 1_565 S
C502 C506 1.524 . S
C503 C495 1.503 . S
C503 C502 1.370 1_545 S
C503 C504 1.403 . S
C504 C503 1.403 . S
C504 C505 1.404 1_545 S
C504 C507 1.539 . S
C505 C501 1.408 . S
C505 C504 1.404 1_565 S
C505 H517 0.930 . S
C506 C502 1.524 . S
C506 H518 0.956 1_565 S
C506 H519 0.961 . S
C506 H520 0.961 . S
C507 C504 1.539 . S
C507 H521 0.958 . S
C507 H522 0.961 . S
C507 H523 0.960 . S
H508 C492 0.931 . S
H509 C497 0.929 . S
H510 C498 0.960 . S
H511 C498 0.962 . S
H512 C498 0.960 . S
H513 C499 0.961 . S
H514 C499 0.961 1_565 S
H515 C499 0.961 . S
H516 C500 0.931 . S
H517 C505 0.930 . S
H518 C506 0.956 1_545 S
H519 C506 0.961 . S
H520 C506 0.961 . S
H521 C507 0.958 . S
H522 C507 0.961 . S
H523 C507 0.960 . S
C524 C525 1.391 . S
C524 C526 1.394 . S
C524 H540 0.931 1_545 S
C525 C524 1.391 . S
C525 C529 1.376 . S
C526 C524 1.394 . S
C526 C527 1.369 . S
C526 C530 1.531 . S
C527 C526 1.369 . S
C527 C528 1.410 . S
C527 C535 1.503 . S
C528 C527 1.410 . S
C528 C529 1.392 . S
C528 C531 1.511 . S
C529 C525 1.376 . S
C529 C528 1.392 . S
C529 H541 0.929 . S
C530 C526 1.531 . S
C530 H542 0.960 . S
C530 H543 0.962 . S
C530 H544 0.960 1_545 S
C531 C528 1.511 . S
C531 H545 0.961 . S
C531 H546 0.961 . S
C531 H547 0.961 . S
C532 C533 1.370 . S
C532 C534 1.363 . S
C532 H548 0.931 . S
C533 C532 1.370 . S
C533 C537 1.408 . S
C534 C532 1.363 . S
C534 C535 1.370 . S
C534 C538 1.524 . S
C535 C527 1.503 . S
C535 C534 1.370 . S
C535 C536 1.403 . S
C536 C535 1.403 . S
C536 C537 1.404 . S
C536 C539 1.539 . S
C537 C533 1.408 . S
C537 C536 1.404 . S
C537 H549 0.930 . S
C538 C534 1.524 . S
C538 H550 0.956 . S
C538 H551 0.961 . S
C538 H552 0.961 . S
C539 C536 1.539 . S
C539 H553 0.958 . S
C539 H554 0.961 . S
C539 H555 0.960 . S
H540 C524 0.931 1_565 S
H541 C529 0.929 . S
H542 C530 0.960 . S
H543 C530 0.962 . S
H544 C530 0.960 1_565 S
H545 C531 0.961 . S
H546 C531 0.961 . S
H547 C531 0.961 . S
H548 C532 0.931 . S
H549 C537 0.930 . S
H550 C538 0.956 . S
H551 C538 0.961 . S
H552 C538 0.961 . S
H553 C539 0.958 . S
H554 C539 0.961 . S
H555 C539 0.960 . S
C556 C557 1.391 . S
C556 C558 1.394 1_545 S
C556 H572 0.931 . S
C557 C556 1.391 . S
C557 C561 1.376 . S
C558 C556 1.394 1_565 S
C558 C559 1.369 . S
C558 C562 1.531 . S
C559 C558 1.369 . S
C559 C560 1.410 . S
C559 C567 1.503 . S
C560 C559 1.410 . S
C560 C561 1.392 1_565 S
C560 C563 1.511 . S
C561 C557 1.376 . S
C561 C560 1.392 1_545 S
C561 H573 0.929 . S
C562 C558 1.531 . S
C562 H574 0.960 . S
C562 H575 0.962 . S
C562 H576 0.960 . S
C563 C560 1.511 . S
C563 H577 0.961 . S
C563 H578 0.961 . S
C563 H579 0.961 . S
C564 C565 1.370 . S
C564 C566 1.363 . S
C564 H580 0.931 . S
C565 C564 1.370 . S
C565 C569 1.408 . S
C566 C564 1.363 . S
C566 C567 1.370 . S
C566 C570 1.524 . S
C567 C559 1.503 . S
C567 C566 1.370 . S
C567 C568 1.403 . S
C568 C567 1.403 . S
C568 C569 1.404 . S
C568 C571 1.539 . S
C569 C565 1.408 . S
C569 C568 1.404 . S
C569 H581 0.930 . S
C570 C566 1.524 . S
C570 H582 0.956 . S
C570 H583 0.961 . S
C570 H584 0.961 . S
C571 C568 1.539 . S
C571 H585 0.958 1_565 S
C571 H586 0.961 . S
C571 H587 0.960 1_565 S
H572 C556 0.931 . S
H573 C561 0.929 . S
H574 C562 0.960 . S
H575 C562 0.962 . S
H576 C562 0.960 . S
H577 C563 0.961 . S
H578 C563 0.961 . S
H579 C563 0.961 . S
H580 C564 0.931 . S
H581 C569 0.930 . S
H582 C570 0.956 . S
H583 C570 0.961 . S
H584 C570 0.961 . S
H585 C571 0.958 1_545 S
H586 C571 0.961 . S
H587 C571 0.960 1_545 S
C588 C589 1.391 . S
C588 C590 1.394 . S
C588 H604 0.931 1_565 S
C589 C588 1.391 . S
C589 C593 1.376 . S
C590 C588 1.394 . S
C590 C591 1.369 . S
C590 C594 1.531 . S
C591 C590 1.369 . S
C591 C592 1.410 . S
C591 C599 1.503 . S
C592 C591 1.410 . S
C592 C593 1.392 . S
C592 C595 1.511 . S
C593 C589 1.376 . S
C593 C592 1.392 . S
C593 H605 0.929 . S
C594 C590 1.531 . S
C594 H606 0.960 . S
C594 H607 0.962 1_565 S
C594 H608 0.960 1_565 S
C595 C592 1.511 . S
C595 H609 0.961 . S
C595 H610 0.961 . S
C595 H611 0.961 . S
C596 C597 1.370 . S
C596 C598 1.363 1_455 S
C596 H612 0.931 . S
C597 C596 1.370 . S
C597 C601 1.408 1_455 S
C598 C596 1.363 1_655 S
C598 C599 1.370 . S
C598 C602 1.524 . S
C599 C591 1.503 . S
C599 C598 1.370 . S
C599 C600 1.403 . S
C600 C599 1.403 . S
C600 C601 1.404 . S
C600 C603 1.539 . S
C601 C597 1.408 1_655 S
C601 C600 1.404 . S
C601 H613 0.930 . S
C602 C598 1.524 . S
C602 H614 0.956 . S
C602 H615 0.961 . S
C602 H616 0.961 1_655 S
C603 C600 1.539 . S
C603 H617 0.958 . S
C603 H618 0.961 . S
C603 H619 0.960 . S
H604 C588 0.931 1_545 S
H605 C593 0.929 . S
H606 C594 0.960 . S
H607 C594 0.962 1_545 S
H608 C594 0.960 1_545 S
H609 C595 0.961 . S
H610 C595 0.961 . S
H611 C595 0.961 . S
H612 C596 0.931 . S
H613 C601 0.930 . S
H614 C602 0.956 . S
H615 C602 0.961 . S
H616 C602 0.961 1_455 S
H617 C603 0.958 . S
H618 C603 0.961 . S
H619 C603 0.960 . S
C620 C621 1.391 1_545 S
C620 C622 1.394 . S
C620 H636 0.931 . S
C621 C620 1.391 1_565 S
C621 C625 1.376 . S
C622 C620 1.394 . S
C622 C623 1.369 . S
C622 C626 1.531 . S
C623 C622 1.369 . S
C623 C624 1.410 . S
C623 C631 1.503 . S
C624 C623 1.410 . S
C624 C625 1.392 1_545 S
C624 C627 1.511 1_545 S
C625 C621 1.376 . S
C625 C624 1.392 1_565 S
C625 H637 0.929 . S
C626 C622 1.531 . S
C626 H638 0.960 . S
C626 H639 0.962 . S
C626 H640 0.960 . S
C627 C624 1.511 1_565 S
C627 H641 0.961 . S
C627 H642 0.961 1_565 S
C627 H643 0.961 1_565 S
C628 C629 1.380 . S
C628 C630 1.365 . S
C628 H644 0.931 . S
C629 C628 1.380 . S
C629 C633 1.389 1_455 S
C630 C628 1.365 . S
C630 C631 1.367 1_455 S
C630 C634 1.526 . S
C631 C623 1.503 . S
C631 C630 1.367 1_655 S
C631 C632 1.403 . S
C632 C631 1.403 . S
C632 C633 1.404 . S
C632 C635 1.539 . S
C633 C629 1.389 1_655 S
C633 C632 1.404 . S
C633 H645 0.930 . S
C634 C630 1.526 . S
C634 H646 0.956 . S
C634 H647 0.961 . S
C634 H648 0.961 . S
C635 C632 1.539 . S
C635 H649 0.958 . S
C635 H650 0.961 . S
C635 H651 0.960 . S
H636 C620 0.931 . S
H637 C625 0.929 . S
H638 C626 0.960 . S
H639 C626 0.962 . S
H640 C626 0.960 . S
H641 C627 0.961 . S
H642 C627 0.961 1_545 S
H643 C627 0.961 1_545 S
H644 C628 0.931 . S
H645 C633 0.930 . S
H646 C634 0.956 . S
H647 C634 0.961 . S
H648 C634 0.961 . S
H649 C635 0.958 . S
H650 C635 0.961 . S
H651 C635 0.960 . S
C652 C653 1.391 . S
C652 C654 1.394 . S
C652 H668 0.931 1_565 S
C653 C652 1.391 . S
C653 C657 1.376 . S
C654 C652 1.394 . S
C654 C655 1.369 . S
C654 C658 1.531 . S
C655 C654 1.369 . S
C655 C656 1.410 . S
C655 C663 1.503 . S
C656 C655 1.410 . S
C656 C657 1.392 . S
C656 C659 1.511 . S
C657 C653 1.376 . S
C657 C656 1.392 . S
C657 H669 0.929 . S
C658 C654 1.531 . S
C658 H670 0.960 . S
C658 H671 0.962 1_565 S
C658 H672 0.960 1_565 S
C659 C656 1.511 . S
C659 H673 0.961 . S
C659 H674 0.961 . S
C659 H675 0.961 . S
C660 C661 1.370 . S
C660 C662 1.363 . S
C660 H676 0.931 . S
C661 C660 1.370 . S
C661 C665 1.408 . S
C662 C660 1.363 . S
C662 C663 1.370 . S
C662 C666 1.524 . S
C663 C655 1.503 . S
C663 C662 1.370 . S
C663 C664 1.403 . S
C664 C663 1.403 . S
C664 C665 1.404 . S
C664 C667 1.539 . S
C665 C661 1.408 . S
C665 C664 1.404 . S
C665 H677 0.930 . S
C666 C662 1.524 . S
C666 H678 0.956 . S
C666 H679 0.961 . S
C666 H680 0.961 . S
C667 C664 1.539 . S
C667 H681 0.958 . S
C667 H682 0.961 . S
C667 H683 0.960 . S
H668 C652 0.931 1_545 S
H669 C657 0.929 . S
H670 C658 0.960 . S
H671 C658 0.962 1_545 S
H672 C658 0.960 1_545 S
H673 C659 0.961 . S
H674 C659 0.961 . S
H675 C659 0.961 . S
H676 C660 0.931 . S
H677 C665 0.930 . S
H678 C666 0.956 . S
H679 C666 0.961 . S
H680 C666 0.961 . S
H681 C667 0.958 . S
H682 C667 0.961 . S
H683 C667 0.960 . S
C684 C685 1.391 . S
C684 C686 1.394 1_545 S
C684 H700 0.931 . S
C685 C684 1.391 . S
C685 C689 1.376 . S
C686 C684 1.394 1_565 S
C686 C687 1.369 . S
C686 C690 1.531 1_655 S
C687 C686 1.369 . S
C687 C688 1.410 . S
C687 C695 1.503 . S
C688 C687 1.410 . S
C688 C689 1.392 1_565 S
C688 C691 1.511 . S
C689 C685 1.376 . S
C689 C688 1.392 1_545 S
C689 H701 0.929 . S
C690 C686 1.531 1_455 S
C690 H702 0.960 . S
C690 H703 0.962 . S
C690 H704 0.960 . S
C691 C688 1.511 . S
C691 H705 0.961 . S
C691 H706 0.961 . S
C691 H707 0.961 . S
C692 C693 1.370 1_655 S
C692 C694 1.363 . S
C692 H708 0.931 1_655 S
C693 C692 1.370 1_455 S
C693 C697 1.408 1_455 S
C694 C692 1.363 . S
C694 C695 1.370 . S
C694 C698 1.524 . S
C695 C687 1.503 . S
C695 C694 1.370 . S
C695 C696 1.403 . S
C696 C695 1.403 . S
C696 C697 1.404 . S
C696 C699 1.539 . S
C697 C693 1.408 1_655 S
C697 C696 1.404 . S
C697 H709 0.930 . S
C698 C694 1.524 . S
C698 H710 0.956 1_565 S
C698 H711 0.961 . S
C698 H712 0.961 . S
C699 C696 1.539 . S
C699 H713 0.958 . S
C699 H714 0.961 . S
C699 H715 0.960 . S
H700 C684 0.931 . S
H701 C689 0.929 . S
H702 C690 0.960 . S
H703 C690 0.962 . S
H704 C690 0.960 . S
H705 C691 0.961 . S
H706 C691 0.961 . S
H707 C691 0.961 . S
H708 C692 0.931 1_455 S
H709 C697 0.930 . S
H710 C698 0.956 1_545 S
H711 C698 0.961 . S
H712 C698 0.961 . S
H713 C699 0.958 . S
H714 C699 0.961 . S
H715 C699 0.960 . S
C716 C717 1.391 . S
C716 C718 1.394 . S
C716 H732 0.931 1_545 S
C717 C716 1.391 . S
C717 C721 1.376 . S
C718 C716 1.394 . S
C718 C719 1.369 . S
C718 C722 1.531 . S
C719 C718 1.369 . S
C719 C720 1.410 . S
C719 C727 1.503 . S
C720 C719 1.410 . S
C720 C721 1.392 . S
C720 C723 1.511 . S
C721 C717 1.376 . S
C721 C720 1.392 . S
C721 H733 0.929 . S
C722 C718 1.531 . S
C722 H734 0.960 . S
C722 H735 0.966 . S
C722 H736 0.951 1_545 S
C723 C720 1.511 . S
C723 H737 0.961 . S
C723 H738 0.961 . S
C723 H739 0.961 . S
C724 C725 1.373 . S
C724 C726 1.363 1_455 S
C724 H740 0.931 . S
C725 C724 1.373 . S
C725 C729 1.395 1_455 S
C726 C724 1.363 1_655 S
C726 C727 1.370 . S
C726 C730 1.524 . S
C727 C719 1.503 . S
C727 C726 1.370 . S
C727 C728 1.403 . S
C728 C727 1.403 . S
C728 C729 1.404 . S
C728 C731 1.539 . S
C729 C725 1.395 1_655 S
C729 C728 1.404 . S
C729 H741 0.930 . S
C730 C726 1.524 . S
C730 H742 0.956 . S
C730 H743 0.961 . S
C730 H744 0.961 1_655 S
C731 C728 1.539 . S
C731 H745 0.958 . S
C731 H746 0.961 . S
C731 H747 0.960 . S
H732 C716 0.931 1_565 S
H733 C721 0.929 . S
H734 C722 0.960 . S
H735 C722 0.966 . S
H736 C722 0.951 1_565 S
H737 C723 0.961 . S
H738 C723 0.961 . S
H739 C723 0.961 . S
H740 C724 0.931 . S
H741 C729 0.930 . S
H742 C730 0.956 . S
H743 C730 0.961 . S
H744 C730 0.961 1_455 S
H745 C731 0.958 . S
H746 C731 0.961 . S
H747 C731 0.960 . S
C748 C749 1.391 . S
C748 C750 1.394 1_565 S
C748 H764 0.931 . S
C749 C748 1.391 . S
C749 C753 1.376 . S
C750 C748 1.394 1_545 S
C750 C751 1.369 . S
C750 C754 1.531 . S
C751 C750 1.369 . S
C751 C752 1.410 . S
C751 C759 1.503 . S
C752 C751 1.410 . S
C752 C753 1.392 1_545 S
C752 C755 1.511 . S
C753 C749 1.376 . S
C753 C752 1.392 1_565 S
C753 H765 0.929 . S
C754 C750 1.531 . S
C754 H766 0.960 . S
C754 H767 0.962 . S
C754 H768 0.960 1_545 S
C755 C752 1.511 . S
C755 H769 0.961 . S
C755 H770 0.961 . S
C755 H771 0.961 . S
C756 C757 1.370 . S
C756 C758 1.363 . S
C756 H772 0.931 . S
C757 C756 1.370 . S
C757 C761 1.408 . S
C758 C756 1.363 . S
C758 C759 1.370 . S
C758 C762 1.524 . S
C759 C751 1.503 . S
C759 C758 1.370 . S
C759 C760 1.403 . S
C760 C759 1.403 . S
C760 C761 1.404 . S
C760 C763 1.539 . S
C761 C757 1.408 . S
C761 C760 1.404 . S
C761 H773 0.930 . S
C762 C758 1.524 . S
C762 H774 0.956 . S
C762 H775 0.961 . S
C762 H776 0.961 . S
C763 C760 1.539 . S
C763 H777 0.958 1_545 S
C763 H778 0.961 . S
C763 H779 0.960 1_545 S
H764 C748 0.931 . S
H765 C753 0.929 . S
H766 C754 0.960 . S
H767 C754 0.962 . S
H768 C754 0.960 1_565 S
H769 C755 0.961 . S
H770 C755 0.961 . S
H771 C755 0.961 . S
H772 C756 0.931 . S
H773 C761 0.930 . S
H774 C762 0.956 . S
H775 C762 0.961 . S
H776 C762 0.961 . S
H777 C763 0.958 1_565 S
H778 C763 0.961 . S
H779 C763 0.960 1_565 S
C780 C781 1.391 . S
C780 C782 1.394 . S
C780 H796 0.931 . S
C781 C780 1.391 . S
C781 C785 1.376 . S
C782 C780 1.394 . S
C782 C783 1.369 . S
C782 C786 1.531 . S
C783 C782 1.369 . S
C783 C784 1.410 . S
C783 C791 1.503 . S
C784 C783 1.410 . S
C784 C785 1.392 . S
C784 C787 1.511 . S
C785 C781 1.376 . S
C785 C784 1.392 . S
C785 H797 0.929 . S
C786 C782 1.531 . S
C786 H798 0.960 . S
C786 H799 0.962 . S
C786 H800 0.960 . S
C787 C784 1.511 . S
C787 H801 0.961 . S
C787 H802 0.961 . S
C787 H803 0.961 . S
C788 C789 1.370 . S
C788 C790 1.363 . S
C788 H804 0.931 . S
C789 C788 1.370 . S
C789 C793 1.408 . S
C790 C788 1.363 . S
C790 C791 1.370 . S
C790 C794 1.524 . S
C791 C783 1.503 . S
C791 C790 1.370 . S
C791 C792 1.403 . S
C792 C791 1.403 . S
C792 C793 1.404 . S
C792 C795 1.539 . S
C793 C789 1.408 . S
C793 C792 1.404 . S
C793 H805 0.930 . S
C794 C790 1.524 . S
C794 H806 0.956 . S
C794 H807 0.961 . S
C794 H808 0.961 . S
C795 C792 1.539 . S
C795 H809 0.958 . S
C795 H810 0.961 . S
C795 H811 0.960 . S
H796 C780 0.931 . S
H797 C785 0.929 . S
H798 C786 0.960 . S
H799 C786 0.962 . S
H800 C786 0.960 . S
H801 C787 0.961 . S
H802 C787 0.961 . S
H803 C787 0.961 . S
H804 C788 0.931 . S
H805 C793 0.930 . S
H806 C794 0.956 . S
H807 C794 0.961 . S
H808 C794 0.961 . S
H809 C795 0.958 . S
H810 C795 0.961 . S
H811 C795 0.960 . S
C812 C813 1.391 . S
C812 C814 1.394 . S
C812 H828 0.931 . S
C813 C812 1.391 . S
C813 C817 1.376 . S
C814 C812 1.394 . S
C814 C815 1.369 . S
C814 C818 1.531 . S
C815 C814 1.369 . S
C815 C816 1.410 . S
C815 C823 1.503 . S
C816 C815 1.410 . S
C816 C817 1.392 . S
C816 C819 1.511 . S
C817 C813 1.376 . S
C817 C816 1.392 . S
C817 H829 0.929 . S
C818 C814 1.531 . S
C818 H830 0.960 . S
C818 H831 0.962 . S
C818 H832 0.960 . S
C819 C816 1.511 . S
C819 H833 0.961 . S
C819 H834 0.961 . S
C819 H835 0.961 1_655 S
C820 C821 1.370 . S
C820 C822 1.363 . S
C820 H836 0.931 . S
C821 C820 1.370 . S
C821 C825 1.408 . S
C822 C820 1.363 . S
C822 C823 1.370 . S
C822 C826 1.524 . S
C823 C815 1.503 . S
C823 C822 1.370 . S
C823 C824 1.403 . S
C824 C823 1.403 . S
C824 C825 1.404 . S
C824 C827 1.539 1_655 S
C825 C821 1.408 . S
C825 C824 1.404 . S
C825 H837 0.930 1_655 S
C826 C822 1.524 . S
C826 H838 0.956 . S
C826 H839 0.961 . S
C826 H840 0.961 . S
C827 C824 1.539 1_455 S
C827 H841 0.958 . S
C827 H842 0.961 . S
C827 H843 0.960 . S
H828 C812 0.931 . S
H829 C817 0.929 . S
H830 C818 0.960 . S
H831 C818 0.962 . S
H832 C818 0.960 . S
H833 C819 0.961 . S
H834 C819 0.961 . S
H835 C819 0.961 1_455 S
H836 C820 0.931 . S
H837 C825 0.930 1_455 S
H838 C826 0.956 . S
H839 C826 0.961 . S
H840 C826 0.961 . S
H841 C827 0.958 . S
H842 C827 0.961 . S
H843 C827 0.960 . S
C844 C845 1.391 . S
C844 C846 1.394 . S
C844 H860 0.931 1_655 S
C845 C844 1.391 . S
C845 C849 1.376 . S
C846 C844 1.394 . S
C846 C847 1.369 . S
C846 C850 1.531 . S
C847 C846 1.369 . S
C847 C848 1.410 . S
C847 C855 1.503 . S
C848 C847 1.410 . S
C848 C849 1.392 . S
C848 C851 1.511 . S
C849 C845 1.376 . S
C849 C848 1.392 . S
C849 H861 0.929 . S
C850 C846 1.531 . S
C850 H862 0.960 . S
C850 H863 0.962 . S
C850 H864 0.960 . S
C851 C848 1.511 . S
C851 H865 0.961 . S
C851 H866 0.961 . S
C851 H867 0.961 . S
C852 C853 1.370 . S
C852 C854 1.363 . S
C852 H868 0.931 . S
C853 C852 1.370 . S
C853 C857 1.408 . S
C854 C852 1.363 . S
C854 C855 1.370 . S
C854 C858 1.524 . S
C855 C847 1.503 . S
C855 C854 1.370 . S
C855 C856 1.403 . S
C856 C855 1.403 . S
C856 C857 1.404 . S
C856 C859 1.539 . S
C857 C853 1.408 . S
C857 C856 1.404 . S
C857 H869 0.930 . S
C858 C854 1.524 . S
C858 H870 0.956 . S
C858 H871 0.961 . S
C858 H872 0.961 . S
C859 C856 1.539 . S
C859 H873 0.958 . S
C859 H874 0.961 . S
C859 H875 0.960 . S
H860 C844 0.931 1_455 S
H861 C849 0.929 . S
H862 C850 0.960 . S
H863 C850 0.962 . S
H864 C850 0.960 . S
H865 C851 0.961 . S
H866 C851 0.961 . S
H867 C851 0.961 . S
H868 C852 0.931 . S
H869 C857 0.930 . S
H870 C858 0.956 . S
H871 C858 0.961 . S
H872 C858 0.961 . S
H873 C859 0.958 . S
H874 C859 0.961 . S
H875 C859 0.960 . S
C876 C877 1.391 . S
C876 C878 1.394 . S
C876 H892 0.931 . S
C877 C876 1.391 . S
C877 C881 1.376 . S
C878 C876 1.394 . S
C878 C879 1.369 . S
C878 C882 1.531 . S
C879 C878 1.369 . S
C879 C880 1.410 . S
C879 C887 1.503 . S
C880 C879 1.410 . S
C880 C881 1.392 . S
C880 C883 1.511 . S
C881 C877 1.376 . S
C881 C880 1.392 . S
C881 H893 0.929 . S
C882 C878 1.531 . S
C882 H894 0.960 . S
C882 H895 0.962 . S
C882 H896 0.960 . S
C883 C880 1.511 . S
C883 H897 0.961 . S
C883 H898 0.961 . S
C883 H899 0.961 . S
C884 C885 1.370 . S
C884 C886 1.363 . S
C884 H900 0.931 . S
C885 C884 1.370 . S
C885 C889 1.408 . S
C886 C884 1.363 . S
C886 C887 1.370 . S
C886 C890 1.524 . S
C887 C879 1.503 . S
C887 C886 1.370 . S
C887 C888 1.403 . S
C888 C887 1.403 . S
C888 C889 1.404 . S
C888 C891 1.539 . S
C889 C885 1.408 . S
C889 C888 1.404 . S
C889 H901 0.930 . S
C890 C886 1.524 . S
C890 H902 0.956 . S
C890 H903 0.961 . S
C890 H904 0.961 . S
C891 C888 1.539 . S
C891 H905 0.958 . S
C891 H906 0.961 . S
C891 H907 0.960 . S
H892 C876 0.931 . S
H893 C881 0.929 . S
H894 C882 0.960 . S
H895 C882 0.962 . S
H896 C882 0.960 . S
H897 C883 0.961 . S
H898 C883 0.961 . S
H899 C883 0.961 . S
H900 C884 0.931 . S
H901 C889 0.930 . S
H902 C890 0.956 . S
H903 C890 0.961 . S
H904 C890 0.961 . S
H905 C891 0.958 . S
H906 C891 0.961 . S
H907 C891 0.960 . S
C908 C909 1.391 . S
C908 C910 1.394 . S
C908 H924 0.931 . S
C909 C908 1.391 . S
C909 C913 1.376 . S
C910 C908 1.394 . S
C910 C911 1.369 . S
C910 C914 1.531 . S
C911 C910 1.369 . S
C911 C912 1.410 . S
C911 C919 1.503 . S
C912 C911 1.410 . S
C912 C913 1.392 . S
C912 C915 1.511 . S
C913 C909 1.376 . S
C913 C912 1.392 . S
C913 H925 0.929 . S
C914 C910 1.531 . S
C914 H926 0.960 . S
C914 H927 0.962 . S
C914 H928 0.960 . S
C915 C912 1.511 . S
C915 H929 0.961 . S
C915 H930 0.961 . S
C915 H931 0.961 . S
C916 C917 1.370 . S
C916 C918 1.363 . S
C916 H932 0.931 . S
C917 C916 1.370 . S
C917 C921 1.408 . S
C918 C916 1.363 . S
C918 C919 1.370 . S
C918 C922 1.524 . S
C919 C911 1.503 . S
C919 C918 1.370 . S
C919 C920 1.403 . S
C920 C919 1.403 . S
C920 C921 1.404 . S
C920 C923 1.539 . S
C921 C917 1.408 . S
C921 C920 1.404 . S
C921 H933 0.930 . S
C922 C918 1.524 . S
C922 H934 0.956 . S
C922 H935 0.961 . S
C922 H936 0.961 . S
C923 C920 1.539 . S
C923 H937 0.958 . S
C923 H938 0.961 . S
C923 H939 0.960 . S
H924 C908 0.931 . S
H925 C913 0.929 . S
H926 C914 0.960 . S
H927 C914 0.962 . S
H928 C914 0.960 . S
H929 C915 0.961 . S
H930 C915 0.961 . S
H931 C915 0.961 . S
H932 C916 0.931 . S
H933 C921 0.930 . S
H934 C922 0.956 . S
H935 C922 0.961 . S
H936 C922 0.961 . S
H937 C923 0.958 . S
H938 C923 0.961 . S
H939 C923 0.960 . S
C940 C941 1.391 . S
C940 C942 1.394 . S
C940 H956 0.931 . S
C941 C940 1.391 . S
C941 C945 1.376 . S
C942 C940 1.394 . S
C942 C943 1.369 . S
C942 C946 1.531 . S
C943 C942 1.369 . S
C943 C944 1.410 . S
C943 C951 1.503 . S
C944 C943 1.410 . S
C944 C945 1.392 . S
C944 C947 1.511 . S
C945 C941 1.376 . S
C945 C944 1.392 . S
C945 H957 0.929 . S
C946 C942 1.531 . S
C946 H958 0.960 . S
C946 H959 0.962 . S
C946 H960 0.960 . S
C947 C944 1.511 . S
C947 H961 0.961 . S
C947 H962 0.961 . S
C947 H963 0.961 . S
C948 C949 1.370 . S
C948 C950 1.363 . S
C948 H964 0.931 . S
C949 C948 1.370 . S
C949 C953 1.408 . S
C950 C948 1.363 . S
C950 C951 1.370 . S
C950 C954 1.524 . S
C951 C943 1.503 . S
C951 C950 1.370 . S
C951 C952 1.403 . S
C952 C951 1.403 . S
C952 C953 1.404 . S
C952 C955 1.539 . S
C953 C949 1.408 . S
C953 C952 1.404 . S
C953 H965 0.930 . S
C954 C950 1.524 . S
C954 H966 0.956 . S
C954 H967 0.961 . S
C954 H968 0.961 . S
C955 C952 1.539 . S
C955 H969 0.958 . S
C955 H970 0.961 . S
C955 H971 0.960 . S
H956 C940 0.931 . S
H957 C945 0.929 . S
H958 C946 0.960 . S
H959 C946 0.962 . S
H960 C946 0.960 . S
H961 C947 0.961 . S
H962 C947 0.961 . S
H963 C947 0.961 . S
H964 C948 0.931 . S
H965 C953 0.930 . S
H966 C954 0.956 . S
H967 C954 0.961 . S
H968 C954 0.961 . S
H969 C955 0.958 . S
H970 C955 0.961 . S
H971 C955 0.960 . S
C972 C973 1.391 . S
C972 C974 1.394 . S
C972 H988 0.931 . S
C973 C972 1.391 . S
C973 C977 1.376 . S
C974 C972 1.394 . S
C974 C975 1.369 . S
C974 C978 1.531 . S
C975 C974 1.369 . S
C975 C976 1.410 . S
C975 C983 1.503 . S
C976 C975 1.410 . S
C976 C977 1.392 . S
C976 C979 1.511 . S
C977 C973 1.376 . S
C977 C976 1.392 . S
C977 H989 0.923 1_655 S
C978 C974 1.531 . S
C978 H990 0.960 . S
C978 H991 0.962 . S
C978 H992 0.960 . S
C979 C976 1.511 . S
C979 H993 0.961 . S
C979 H994 0.961 . S
C979 H995 0.961 . S
C980 C981 1.370 . S
C980 C982 1.363 . S
C980 H996 0.931 . S
C981 C980 1.370 . S
C981 C985 1.408 . S
C982 C980 1.363 . S
C982 C983 1.370 . S
C982 C986 1.524 . S
C983 C975 1.503 . S
C983 C982 1.370 . S
C983 C984 1.403 . S
C984 C983 1.403 . S
C984 C985 1.404 . S
C984 C987 1.539 . S
C985 C981 1.408 . S
C985 C984 1.404 . S
C985 H997 0.930 . S
C986 C982 1.524 . S
C986 H998 0.956 . S
C986 H999 0.961 . S
C986 H1000 0.961 . S
C987 C984 1.539 . S
C987 H1001 0.958 . S
C987 H1002 0.961 . S
C987 H1003 0.960 . S
H988 C972 0.931 . S
H989 C977 0.923 1_455 S
H990 C978 0.960 . S
H991 C978 0.962 . S
H992 C978 0.960 . S
H993 C979 0.961 . S
H994 C979 0.961 . S
H995 C979 0.961 . S
H996 C980 0.931 . S
H997 C985 0.930 . S
H998 C986 0.956 . S
H999 C986 0.961 . S
H1000 C986 0.961 . S
H1001 C987 0.958 . S
H1002 C987 0.961 . S
H1003 C987 0.960 . S
C1004 C1005 1.391 . S
C1004 C1006 1.394 . S
C1004 H1020 0.931 . S
C1005 C1004 1.391 . S
C1005 C1009 1.376 . S
C1006 C1004 1.394 . S
C1006 C1007 1.369 . S
C1006 C1010 1.531 . S
C1007 C1006 1.369 . S
C1007 C1008 1.410 . S
C1007 C1015 1.503 . S
C1008 C1007 1.410 . S
C1008 C1009 1.392 . S
C1008 C1011 1.511 1_655 S
C1009 C1005 1.376 . S
C1009 C1008 1.392 . S
C1009 H1021 0.929 . S
C1010 C1006 1.531 . S
C1010 H1022 0.960 . S
C1010 H1023 0.962 . S
C1010 H1024 0.960 . S
C1011 C1008 1.511 1_455 S
C1011 H1025 0.961 . S
C1011 H1026 0.961 1_455 S
C1011 H1027 0.961 . S
C1012 C1013 1.370 . S
C1012 C1014 1.363 . S
C1012 H1028 0.931 . S
C1013 C1012 1.370 . S
C1013 C1017 1.408 . S
C1014 C1012 1.363 . S
C1014 C1015 1.370 . S
C1014 C1018 1.524 . S
C1015 C1007 1.503 . S
C1015 C1014 1.370 . S
C1015 C1016 1.403 . S
C1016 C1015 1.403 . S
C1016 C1017 1.404 . S
C1016 C1019 1.540 . S
C1017 C1013 1.408 . S
C1017 C1016 1.404 . S
C1017 H1029 0.930 1_655 S
C1018 C1014 1.524 . S
C1018 H1030 0.956 . S
C1018 H1031 0.961 . S
C1018 H1032 0.961 . S
C1019 C1016 1.540 . S
C1019 H1033 0.959 . S
C1019 H1034 0.959 1_655 S
C1019 H1035 0.959 1_655 S
H1020 C1004 0.931 . S
H1021 C1009 0.929 . S
H1022 C1010 0.960 . S
H1023 C1010 0.962 . S
H1024 C1010 0.960 . S
H1025 C1011 0.961 . S
H1026 C1011 0.961 1_655 S
H1027 C1011 0.961 . S
H1028 C1012 0.931 . S
H1029 C1017 0.930 1_455 S
H1030 C1018 0.956 . S
H1031 C1018 0.961 . S
H1032 C1018 0.961 . S
H1033 C1019 0.959 . S
H1034 C1019 0.959 1_455 S
H1035 C1019 0.959 1_455 S
C1036 C1037 1.391 . S
C1036 C1038 1.394 . S
C1036 H1052 0.931 . S
C1037 C1036 1.391 . S
C1037 C1041 1.376 . S
C1038 C1036 1.394 . S
C1038 C1039 1.369 . S
C1038 C1042 1.531 . S
C1039 C1038 1.369 . S
C1039 C1040 1.410 . S
C1039 C1047 1.503 . S
C1040 C1039 1.410 . S
C1040 C1041 1.392 . S
C1040 C1043 1.511 . S
C1041 C1037 1.376 . S
C1041 C1040 1.392 . S
C1041 H1053 0.929 . S
C1042 C1038 1.531 . S
C1042 H1054 0.960 . S
C1042 H1055 0.962 . S
C1042 H1056 0.960 . S
C1043 C1040 1.511 . S
C1043 H1057 0.961 . S
C1043 H1058 0.961 . S
C1043 H1059 0.961 . S
C1044 C1045 1.370 . S
C1044 C1046 1.363 . S
C1044 H1060 0.931 . S
C1045 C1044 1.370 . S
C1045 C1049 1.408 . S
C1046 C1044 1.363 . S
C1046 C1047 1.370 . S
C1046 C1050 1.524 . S
C1047 C1039 1.503 . S
C1047 C1046 1.370 . S
C1047 C1048 1.403 . S
C1048 C1047 1.403 . S
C1048 C1049 1.404 . S
C1048 C1051 1.539 . S
C1049 C1045 1.408 . S
C1049 C1048 1.404 . S
C1049 H1061 0.930 . S
C1050 C1046 1.524 . S
C1050 H1062 0.956 . S
C1050 H1063 0.961 . S
C1050 H1064 0.961 . S
C1051 C1048 1.539 . S
C1051 H1065 0.958 . S
C1051 H1066 0.961 . S
C1051 H1067 0.960 . S
H1052 C1036 0.931 . S
H1053 C1041 0.929 . S
H1054 C1042 0.960 . S
H1055 C1042 0.962 . S
H1056 C1042 0.960 . S
H1057 C1043 0.961 . S
H1058 C1043 0.961 . S
H1059 C1043 0.961 . S
H1060 C1044 0.931 . S
H1061 C1049 0.930 . S
H1062 C1050 0.956 . S
H1063 C1050 0.961 . S
H1064 C1050 0.961 . S
H1065 C1051 0.958 . S
H1066 C1051 0.961 . S
H1067 C1051 0.960 . S
C1068 C1069 1.391 . S
C1068 C1070 1.394 . S
C1068 H1084 0.931 . S
C1069 C1068 1.391 . S
C1069 C1073 1.376 . S
C1070 C1068 1.394 . S
C1070 C1071 1.369 . S
C1070 C1074 1.531 . S
C1071 C1070 1.369 . S
C1071 C1072 1.410 . S
C1071 C1079 1.503 . S
C1072 C1071 1.410 . S
C1072 C1073 1.392 . S
C1072 C1075 1.511 . S
C1073 C1069 1.376 . S
C1073 C1072 1.392 . S
C1073 H1085 0.929 . S
C1074 C1070 1.531 . S
C1074 H1086 0.960 . S
C1074 H1087 0.962 . S
C1074 H1088 0.960 . S
C1075 C1072 1.511 . S
C1075 H1089 0.961 . S
C1075 H1090 0.961 . S
C1075 H1091 0.961 . S
C1076 C1077 1.370 . S
C1076 C1078 1.363 . S
C1076 H1092 0.931 . S
C1077 C1076 1.370 . S
C1077 C1081 1.408 . S
C1078 C1076 1.363 . S
C1078 C1079 1.370 . S
C1078 C1082 1.524 . S
C1079 C1071 1.503 . S
C1079 C1078 1.370 . S
C1079 C1080 1.403 . S
C1080 C1079 1.403 . S
C1080 C1081 1.404 . S
C1080 C1083 1.539 . S
C1081 C1077 1.408 . S
C1081 C1080 1.404 . S
C1081 H1093 0.930 . S
C1082 C1078 1.524 . S
C1082 H1094 0.956 . S
C1082 H1095 0.961 . S
C1082 H1096 0.961 . S
C1083 C1080 1.539 . S
C1083 H1097 0.958 . S
C1083 H1098 0.961 . S
C1083 H1099 0.960 . S
H1084 C1068 0.931 . S
H1085 C1073 0.929 . S
H1086 C1074 0.960 . S
H1087 C1074 0.962 . S
H1088 C1074 0.960 . S
H1089 C1075 0.961 . S
H1090 C1075 0.961 . S
H1091 C1075 0.961 . S
H1092 C1076 0.931 . S
H1093 C1081 0.930 . S
H1094 C1082 0.956 . S
H1095 C1082 0.961 . S
H1096 C1082 0.961 . S
H1097 C1083 0.958 . S
H1098 C1083 0.961 . S
H1099 C1083 0.960 . S
C1100 C1101 1.391 . S
C1100 C1102 1.394 . S
C1100 H1116 0.931 . S
C1101 C1100 1.391 . S
C1101 C1105 1.376 . S
C1102 C1100 1.394 . S
C1102 C1103 1.369 . S
C1102 C1106 1.531 . S
C1103 C1102 1.369 . S
C1103 C1104 1.410 . S
C1103 C1111 1.503 . S
C1104 C1103 1.410 . S
C1104 C1105 1.392 . S
C1104 C1107 1.511 . S
C1105 C1101 1.376 . S
C1105 C1104 1.392 . S
C1105 H1117 0.929 . S
C1106 C1102 1.531 . S
C1106 H1118 0.960 . S
C1106 H1119 0.962 . S
C1106 H1120 0.960 . S
C1107 C1104 1.511 . S
C1107 H1121 0.961 . S
C1107 H1122 0.961 . S
C1107 H1123 0.961 . S
C1108 C1109 1.370 . S
C1108 C1110 1.363 . S
C1108 H1124 0.931 . S
C1109 C1108 1.370 . S
C1109 C1113 1.408 . S
C1110 C1108 1.363 . S
C1110 C1111 1.370 . S
C1110 C1114 1.524 . S
C1111 C1103 1.503 . S
C1111 C1110 1.370 . S
C1111 C1112 1.403 . S
C1112 C1111 1.403 . S
C1112 C1113 1.404 . S
C1112 C1115 1.539 . S
C1113 C1109 1.408 . S
C1113 C1112 1.404 . S
C1113 H1125 0.930 . S
C1114 C1110 1.524 . S
C1114 H1126 0.956 . S
C1114 H1127 0.961 . S
C1114 H1128 0.961 . S
C1115 C1112 1.539 . S
C1115 H1129 0.958 . S
C1115 H1130 0.961 . S
C1115 H1131 0.960 . S
H1116 C1100 0.931 . S
H1117 C1105 0.929 . S
H1118 C1106 0.960 . S
H1119 C1106 0.962 . S
H1120 C1106 0.960 . S
H1121 C1107 0.961 . S
H1122 C1107 0.961 . S
H1123 C1107 0.961 . S
H1124 C1108 0.931 . S
H1125 C1113 0.930 . S
H1126 C1114 0.956 . S
H1127 C1114 0.961 . S
H1128 C1114 0.961 . S
H1129 C1115 0.958 . S
H1130 C1115 0.961 . S
H1131 C1115 0.960 . S
C1132 C1133 1.391 . S
C1132 C1134 1.394 . S
C1132 H1148 0.931 . S
C1133 C1132 1.391 . S
C1133 C1137 1.376 . S
C1134 C1132 1.394 . S
C1134 C1135 1.369 . S
C1134 C1138 1.531 . S
C1135 C1134 1.369 . S
C1135 C1136 1.410 . S
C1135 C1143 1.503 . S
C1136 C1135 1.410 . S
C1136 C1137 1.392 . S
C1136 C1139 1.511 . S
C1137 C1133 1.376 . S
C1137 C1136 1.392 . S
C1137 H1149 0.929 . S
C1138 C1134 1.531 . S
C1138 H1150 0.960 . S
C1138 H1151 0.962 . S
C1138 H1152 0.960 . S
C1139 C1136 1.511 . S
C1139 H1153 0.961 . S
C1139 H1154 0.961 . S
C1139 H1155 0.961 . S
C1140 C1141 1.370 . S
C1140 C1142 1.363 . S
C1140 H1156 0.931 . S
C1141 C1140 1.370 . S
C1141 C1145 1.408 . S
C1142 C1140 1.363 . S
C1142 C1143 1.370 . S
C1142 C1146 1.524 . S
C1143 C1135 1.503 . S
C1143 C1142 1.370 . S
C1143 C1144 1.403 . S
C1144 C1143 1.403 . S
C1144 C1145 1.404 . S
C1144 C1147 1.539 . S
C1145 C1141 1.408 . S
C1145 C1144 1.404 . S
C1145 H1157 0.930 . S
C1146 C1142 1.524 . S
C1146 H1158 0.956 . S
C1146 H1159 0.961 . S
C1146 H1160 0.961 . S
C1147 C1144 1.539 . S
C1147 H1161 0.958 . S
C1147 H1162 0.961 . S
C1147 H1163 0.960 . S
H1148 C1132 0.931 . S
H1149 C1137 0.929 . S
H1150 C1138 0.960 . S
H1151 C1138 0.962 . S
H1152 C1138 0.960 . S
H1153 C1139 0.961 . S
H1154 C1139 0.961 . S
H1155 C1139 0.961 . S
H1156 C1140 0.931 . S
H1157 C1145 0.930 . S
H1158 C1146 0.956 . S
H1159 C1146 0.961 . S
H1160 C1146 0.961 . S
H1161 C1147 0.958 . S
H1162 C1147 0.961 . S
H1163 C1147 0.960 . S
C1164 C1165 1.391 . S
C1164 C1166 1.394 . S
C1164 H1180 0.931 . S
C1165 C1164 1.391 . S
C1165 C1169 1.376 . S
C1166 C1164 1.394 . S
C1166 C1167 1.369 . S
C1166 C1170 1.531 . S
C1167 C1166 1.369 . S
C1167 C1168 1.410 . S
C1167 C1175 1.503 . S
C1168 C1167 1.410 . S
C1168 C1169 1.392 . S
C1168 C1171 1.511 . S
C1169 C1165 1.376 . S
C1169 C1168 1.392 . S
C1169 H1181 0.929 . S
C1170 C1166 1.531 . S
C1170 H1182 0.960 . S
C1170 H1183 0.962 . S
C1170 H1184 0.960 . S
C1171 C1168 1.511 . S
C1171 H1185 0.961 . S
C1171 H1186 0.961 . S
C1171 H1187 0.961 . S
C1172 C1173 1.370 . S
C1172 C1174 1.363 . S
C1172 H1188 0.931 . S
C1173 C1172 1.370 . S
C1173 C1177 1.408 . S
C1174 C1172 1.363 . S
C1174 C1175 1.370 . S
C1174 C1178 1.524 . S
C1175 C1167 1.503 . S
C1175 C1174 1.370 . S
C1175 C1176 1.403 . S
C1176 C1175 1.403 . S
C1176 C1177 1.404 . S
C1176 C1179 1.539 . S
C1177 C1173 1.408 . S
C1177 C1176 1.404 . S
C1177 H1189 0.930 . S
C1178 C1174 1.524 . S
C1178 H1190 0.956 . S
C1178 H1191 0.961 . S
C1178 H1192 0.961 . S
C1179 C1176 1.539 . S
C1179 H1193 0.958 . S
C1179 H1194 0.961 . S
C1179 H1195 0.960 . S
H1180 C1164 0.931 . S
H1181 C1169 0.929 . S
H1182 C1170 0.960 . S
H1183 C1170 0.962 . S
H1184 C1170 0.960 . S
H1185 C1171 0.961 . S
H1186 C1171 0.961 . S
H1187 C1171 0.961 . S
H1188 C1172 0.931 . S
H1189 C1177 0.930 . S
H1190 C1178 0.956 . S
H1191 C1178 0.961 . S
H1192 C1178 0.961 . S
H1193 C1179 0.958 . S
H1194 C1179 0.961 . S
H1195 C1179 0.960 . S
C1196 C1197 1.391 . S
C1196 C1198 1.394 . S
C1196 H1212 0.931 . S
C1197 C1196 1.391 . S
C1197 C1201 1.376 . S
C1198 C1196 1.394 . S
C1198 C1199 1.369 . S
C1198 C1202 1.531 . S
C1199 C1198 1.369 . S
C1199 C1200 1.410 . S
C1199 C1207 1.503 . S
C1200 C1199 1.410 . S
C1200 C1201 1.392 . S
C1200 C1203 1.511 . S
C1201 C1197 1.376 . S
C1201 C1200 1.392 . S
C1201 H1213 0.929 . S
C1202 C1198 1.531 . S
C1202 H1214 0.960 . S
C1202 H1215 0.962 . S
C1202 H1216 0.960 . S
C1203 C1200 1.511 . S
C1203 H1217 0.961 . S
C1203 H1218 0.961 . S
C1203 H1219 0.961 . S
C1204 C1205 1.370 . S
C1204 C1206 1.363 . S
C1204 H1220 0.931 . S
C1205 C1204 1.370 . S
C1205 C1209 1.408 . S
C1206 C1204 1.363 . S
C1206 C1207 1.370 . S
C1206 C1210 1.524 . S
C1207 C1199 1.503 . S
C1207 C1206 1.370 . S
C1207 C1208 1.403 . S
C1208 C1207 1.403 . S
C1208 C1209 1.404 . S
C1208 C1211 1.539 . S
C1209 C1205 1.408 . S
C1209 C1208 1.404 . S
C1209 H1221 0.930 . S
C1210 C1206 1.524 . S
C1210 H1222 0.956 . S
C1210 H1223 0.961 . S
C1210 H1224 0.961 . S
C1211 C1208 1.539 . S
C1211 H1225 0.958 . S
C1211 H1226 0.961 . S
C1211 H1227 0.960 . S
H1212 C1196 0.931 . S
H1213 C1201 0.929 . S
H1214 C1202 0.960 . S
H1215 C1202 0.962 . S
H1216 C1202 0.960 . S
H1217 C1203 0.961 . S
H1218 C1203 0.961 . S
H1219 C1203 0.961 . S
H1220 C1204 0.931 . S
H1221 C1209 0.930 . S
H1222 C1210 0.956 . S
H1223 C1210 0.961 . S
H1224 C1210 0.961 . S
H1225 C1211 0.958 . S
H1226 C1211 0.961 . S
H1227 C1211 0.960 . S
C1228 C1229 1.391 . S
C1228 C1230 1.394 . S
C1228 H1244 0.931 . S
C1229 C1228 1.391 . S
C1229 C1233 1.376 . S
C1230 C1228 1.394 . S
C1230 C1231 1.369 . S
C1230 C1234 1.531 . S
C1231 C1230 1.369 . S
C1231 C1232 1.410 . S
C1231 C1239 1.503 . S
C1232 C1231 1.410 . S
C1232 C1233 1.392 . S
C1232 C1235 1.511 . S
C1233 C1229 1.376 . S
C1233 C1232 1.392 . S
C1233 H1245 0.929 . S
C1234 C1230 1.531 . S
C1234 H1246 0.960 . S
C1234 H1247 0.962 . S
C1234 H1248 0.960 . S
C1235 C1232 1.511 . S
C1235 H1249 0.961 . S
C1235 H1250 0.961 . S
C1235 H1251 0.961 . S
C1236 C1237 1.370 . S
C1236 C1238 1.363 . S
C1236 H1252 0.931 . S
C1237 C1236 1.370 . S
C1237 C1241 1.408 . S
C1238 C1236 1.363 . S
C1238 C1239 1.370 . S
C1238 C1242 1.524 . S
C1239 C1231 1.503 . S
C1239 C1238 1.370 . S
C1239 C1240 1.403 . S
C1240 C1239 1.403 . S
C1240 C1241 1.404 . S
C1240 C1243 1.539 . S
C1241 C1237 1.408 . S
C1241 C1240 1.404 . S
C1241 H1253 0.930 . S
C1242 C1238 1.524 . S
C1242 H1254 0.956 . S
C1242 H1255 0.961 . S
C1242 H1256 0.961 . S
C1243 C1240 1.539 . S
C1243 H1257 0.958 . S
C1243 H1258 0.961 . S
C1243 H1259 0.960 . S
H1244 C1228 0.931 . S
H1245 C1233 0.929 . S
H1246 C1234 0.960 . S
H1247 C1234 0.962 . S
H1248 C1234 0.960 . S
H1249 C1235 0.961 . S
H1250 C1235 0.961 . S
H1251 C1235 0.961 . S
H1252 C1236 0.931 . S
H1253 C1241 0.930 . S
H1254 C1242 0.956 . S
H1255 C1242 0.961 . S
H1256 C1242 0.961 . S
H1257 C1243 0.958 . S
H1258 C1243 0.961 . S
H1259 C1243 0.960 . S
C1260 C1261 1.391 . S
C1260 C1262 1.394 . S
C1260 H1276 0.931 . S
C1261 C1260 1.391 . S
C1261 C1265 1.376 . S
C1262 C1260 1.394 . S
C1262 C1263 1.369 . S
C1262 C1266 1.531 . S
C1263 C1262 1.369 . S
C1263 C1264 1.410 . S
C1263 C1271 1.503 . S
C1264 C1263 1.410 . S
C1264 C1265 1.392 . S
C1264 C1267 1.511 . S
C1265 C1261 1.376 . S
C1265 C1264 1.392 . S
C1265 H1277 0.929 . S
C1266 C1262 1.531 . S
C1266 H1278 0.960 . S
C1266 H1279 0.962 . S
C1266 H1280 0.960 . S
C1267 C1264 1.511 . S
C1267 H1281 0.961 . S
C1267 H1282 0.961 . S
C1267 H1283 0.961 . S
C1268 C1269 1.370 . S
C1268 C1270 1.363 . S
C1268 H1284 0.931 . S
C1269 C1268 1.370 . S
C1269 C1273 1.408 . S
C1270 C1268 1.363 . S
C1270 C1271 1.370 . S
C1270 C1274 1.524 . S
C1271 C1263 1.503 . S
C1271 C1270 1.370 . S
C1271 C1272 1.403 . S
C1272 C1271 1.403 . S
C1272 C1273 1.404 . S
C1272 C1275 1.539 . S
C1273 C1269 1.408 . S
C1273 C1272 1.404 . S
C1273 H1285 0.930 . S
C1274 C1270 1.524 . S
C1274 H1286 0.956 . S
C1274 H1287 0.961 . S
C1274 H1288 0.961 . S
C1275 C1272 1.539 . S
C1275 H1289 0.958 . S
C1275 H1290 0.961 . S
C1275 H1291 0.960 . S
H1276 C1260 0.931 . S
H1277 C1265 0.929 . S
H1278 C1266 0.960 . S
H1279 C1266 0.962 . S
H1280 C1266 0.960 . S
H1281 C1267 0.961 . S
H1282 C1267 0.961 . S
H1283 C1267 0.961 . S
H1284 C1268 0.931 . S
H1285 C1273 0.930 . S
H1286 C1274 0.956 . S
H1287 C1274 0.961 . S
H1288 C1274 0.961 . S
H1289 C1275 0.958 . S
H1290 C1275 0.961 . S
H1291 C1275 0.960 . S
C277 C204 1.778 . S
C269 C14 1.781 . S
C301 C25 1.712 . S
C309 C207 1.702 . S
C333 C50 1.664 . S
C341 C238 1.700 . S
C373 C173 1.749 . S
C365 C68 1.764 . S
C405 C208 1.782 . S
C397 C16 1.760 . S
C437 C239 1.755 . S
C429 C26 1.739 . S
C469 C164 1.689 . S
C461 C52 1.699 . S
C501 C195 1.703 . S
C493 C70 1.697 . S
C525 C8 1.388 . S
C533 C225 1.270 . S
C557 C88 1.372 . S
C565 C194 1.254 . S
C589 C44 1.294 . S
C597 C154 1.258 . S
C629 C247 1.284 . S
C621 C98 1.291 . S
C661 C175 1.276 . S
C653 C7 1.400 . S
C685 C86 1.290 . S
C693 C174 1.300 . S
C717 C43 1.301 . S
C725 C267 1.283 . S
C757 C206 1.258 . S
C749 C97 1.378 . S
C781 C116 1.801 . S
C789 C266 1.756 . S
C813 C79 1.712 . S
C821 C145 1.712 . S
C845 C140 1.663 1_655 S
C853 C176 1.701 . S
C877 C104 1.746 . S
C885 C235 1.760 . S
C917 C146 1.764 . S
C909 C115 1.793 . S
C941 C80 1.744 . S
C949 C177 1.757 . S
C973 C142 1.661 1_655 S
C981 C226 1.701 . S
C1013 C257 1.716 . S
C1005 C106 1.699 . S
C1037 C122 1.385 . S
C1045 C163 1.293 . S
C1069 C34 1.352 . S
C1077 C256 1.279 . S
C1101 C134 1.294 . S
C1109 C216 1.264 . S
C1141 C185 1.289 . S
C1133 C62 1.281 . S
C1173 C237 1.280 . S
C1165 C124 1.396 . S
C1205 C236 1.287 . S
C1197 C32 1.322 . S
C1237 C205 1.271 . S
C1229 C133 1.302 . S
C1269 C144 1.258 . S
C1261 C61 1.378 . S
