# Generated by pormake.
# Topology anh, (6,3)-cn, num edge types: 1
# Building blocks:
#     Node 0, Type 0, BuildingBlock: INOVEN_clean_sbu_0, # of connection points: 6
#     Node 1, Type 0, BuildingBlock: INOVEN_clean_sbu_0, # of connection points: 6
#     Node 2, Type 0, BuildingBlock: INOVEN_clean_sbu_0, # of connection points: 6
#     Node 3, Type 1, BuildingBlock: ESEHIV_clean_linker_0, # of connection points: 3
#     Node 4, Type 1, BuildingBlock: ESEHIV_clean_linker_0, # of connection points: 3
#     Node 5, Type 1, BuildingBlock: ESEHIV_clean_linker_0, # of connection points: 3
#     Node 6, Type 1, BuildingBlock: ESEHIV_clean_linker_0, # of connection points: 3
#     Node 7, Type 1, BuildingBlock: ESEHIV_clean_linker_0, # of connection points: 3
#     Node 8, Type 1, BuildingBlock: ESEHIV_clean_linker_0, # of connection points: 3
#     Edge 9, Type (0, 1), BuildingBlock: AJUNOK_clean_linker_0, # of connection points: 2
#     Edge 10, Type (0, 1), BuildingBlock: AJUNOK_clean_linker_0, # of connection points: 2
#     Edge 11, Type (0, 1), BuildingBlock: AJUNOK_clean_linker_0, # of connection points: 2
#     Edge 12, Type (0, 1), BuildingBlock: AJUNOK_clean_linker_0, # of connection points: 2
#     Edge 13, Type (0, 1), BuildingBlock: AJUNOK_clean_linker_0, # of connection points: 2
#     Edge 14, Type (0, 1), BuildingBlock: AJUNOK_clean_linker_0, # of connection points: 2
#     Edge 15, Type (0, 1), BuildingBlock: AJUNOK_clean_linker_0, # of connection points: 2
#     Edge 16, Type (0, 1), BuildingBlock: AJUNOK_clean_linker_0, # of connection points: 2
#     Edge 17, Type (0, 1), BuildingBlock: AJUNOK_clean_linker_0, # of connection points: 2
#     Edge 18, Type (0, 1), BuildingBlock: AJUNOK_clean_linker_0, # of connection points: 2
#     Edge 19, Type (0, 1), BuildingBlock: AJUNOK_clean_linker_0, # of connection points: 2
#     Edge 20, Type (0, 1), BuildingBlock: AJUNOK_clean_linker_0, # of connection points: 2
#     Edge 21, Type (0, 1), BuildingBlock: AJUNOK_clean_linker_0, # of connection points: 2
#     Edge 22, Type (0, 1), BuildingBlock: AJUNOK_clean_linker_0, # of connection points: 2
#     Edge 23, Type (0, 1), BuildingBlock: AJUNOK_clean_linker_0, # of connection points: 2
#     Edge 24, Type (0, 1), BuildingBlock: AJUNOK_clean_linker_0, # of connection points: 2
#     Edge 25, Type (0, 1), BuildingBlock: AJUNOK_clean_linker_0, # of connection points: 2
#     Edge 26, Type (0, 1), BuildingBlock: AJUNOK_clean_linker_0, # of connection points: 2
# Relax obj value: 0.277
# Max RMSD: 0.263
# Mean RMSD: 0.182
data_MOF--net-anh--node1-INOVEN_clean_sbu_0--node2-ESEHIV_clean_linker_0--edge1-AJUNOK_clean_linker_0
_symmetry_space_group_name_H-M    P1
_symmetry_Int_Tables_number       1
_symmetry_cell_setting            triclinic
loop_
_symmetry_equiv_pos_as_xyz
'x, y, z'
_cell_length_a     21.948563
_cell_length_b     26.738416
_cell_length_c     37.606713
_cell_angle_alpha  92.050336
_cell_angle_beta   89.398729
_cell_angle_gamma 133.28855
loop_
_atom_site_label
_atom_site_type_symbol
_atom_site_fract_x
_atom_site_fract_y
_atom_site_fract_z
_atom_type_partial_charge
Gd0 Gd 0.24998 0.59891 0.14908 0.0
Gd1 Gd 0.14164 0.6326 0.16872 0.0
C2 C 0.34306 0.76204 0.16025 0.0
C3 C 0.329 0.57094 0.119 0.0
C4 C 0.30481 0.50437 0.11619 0.0
C5 C 0.22027 0.44283 0.111 0.0
C6 C 0.36504 0.50149 0.12208 0.0
C7 C 0.25693 0.3764 0.11758 0.0
C8 C 0.34139 0.43809 0.12269 0.0
C9 C 0.1965 0.37923 0.11161 0.0
C10 C 0.21613 0.59405 0.21858 0.0
C11 C 1.0503 0.47039 0.16084 0.0
C12 C 1.04626 0.64132 0.20109 0.0
C13 C 0.95706 0.59824 0.19234 0.0
C14 C 0.93188 0.58695 0.15646 0.0
C15 C 0.89656 0.55529 0.21801 0.0
C16 C 0.79083 0.48421 0.17127 0.0
C17 C 0.81344 0.49876 0.20753 0.0
C18 C 0.84969 0.5302 0.14604 0.0
C19 C 0.13542 0.60756 0.09668 0.0
O20 O 0.3489 0.71741 0.1491 0.0
O21 O 0.27074 0.74076 0.17097 0.0
O22 O 0.28162 0.57494 0.10104 0.0
O23 O 0.34814 0.59852 0.15133 0.0
O24 O 0.22212 0.55363 0.20271 0.0
O25 O 0.23311 0.63761 0.19734 0.0
O26 O 1.0484 0.51621 0.17373 0.0
O27 O 0.11935 0.49046 0.14642 0.0
O28 O 0.09971 0.68547 0.17719 0.0
O29 O 1.06316 0.60662 0.21348 0.0
O30 O 1.0939 0.62051 0.1117 0.0
O31 O 0.17445 0.60844 0.121 0.0
H32 H 0.17238 0.44375 0.10671 0.0
H33 H 0.43022 0.54823 0.1265 0.0
H34 H 0.38962 0.43734 0.12656 0.0
H35 H 0.13123 0.3325 0.1075 0.0
H36 H 0.97667 0.619 0.13596 0.0
H37 H 0.91476 0.56253 0.24576 0.0
H38 H 0.76826 0.46419 0.22741 0.0
H39 H 0.8327 0.52081 0.11799 0.0
Gd40 Gd 0.76223 0.10323 0.47143 0.0
Gd41 Gd 0.6526 0.12681 0.4653 0.0
C42 C 0.55965 0.97038 0.46056 0.0
C43 C 0.83235 0.06067 0.49082 0.0
C44 C 0.80502 0.99789 0.50596 0.0
C45 C 0.80684 0.95448 0.48495 0.0
C46 C 0.77866 0.98127 0.54138 0.0
C47 C 0.757 0.87918 0.53441 0.0
C48 C 0.75532 0.92269 0.55549 0.0
C49 C 0.78277 0.89559 0.49897 0.0
C50 C 0.74654 0.12429 0.40377 0.0
C51 C 0.85781 0.26169 0.46756 0.0
C52 C 0.57937 0.17022 0.45441 0.0
C53 C 0.59514 0.23034 0.46875 0.0
C54 C 0.5278 0.22259 0.47959 0.0
C55 C 0.67724 0.29384 0.47513 0.0
C56 C 0.62466 0.3396 0.50507 0.0
C57 C 0.69188 0.3481 0.49286 0.0
C58 C 0.54239 0.27682 0.49755 0.0
C59 C 0.66976 0.10398 0.53242 0.0
O60 O 0.63022 0.99411 0.47566 0.0
O61 O 0.55799 1.01478 0.44765 0.0
O62 O 0.8084 0.05482 0.45803 0.0
O63 O 0.82839 0.09885 0.5114 0.0
O64 O 0.81601 0.14844 0.41828 0.0
O65 O 0.68714 0.08804 0.42537 0.0
O66 O 0.78153 0.23652 0.46149 0.0
O67 O 0.86756 0.2196 0.47524 0.0
O68 O 0.5541 0.12457 0.47767 0.0
O69 O 0.63543 0.1823 0.43311 0.0
O70 O 0.59952 0.07764 0.51816 0.0
O71 O 0.72857 0.14276 0.51109 0.0
H72 H 0.82726 0.96624 0.45765 0.0
H73 H 0.77688 1.0138 0.55839 0.0
H74 H 0.73774 0.91236 0.58314 0.0
H75 H 0.78447 0.8629 0.48209 0.0
H76 H 0.46397 0.17385 0.47521 0.0
H77 H 0.73023 0.30107 0.46731 0.0
H78 H 0.7559 0.39639 0.49754 0.0
H79 H 0.4894 0.26886 0.50667 0.0
Gd80 Gd 0.65506 0.6005 0.86902 0.0
Gd81 Gd 0.53065 0.45164 0.85718 0.0
C82 C 0.44485 0.52002 0.86719 0.0
C83 C 0.74187 0.72909 0.85706 0.0
C84 C 0.72413 0.76885 0.8424 0.0
C85 C 0.78675 0.84091 0.8429 0.0
C86 C 0.64686 0.73539 0.82569 0.0
C87 C 0.69587 0.84547 0.80925 0.0
C88 C 0.63249 0.7732 0.80973 0.0
C89 C 0.77288 0.87881 0.8265 0.0
C90 C 0.60301 0.53024 0.92884 0.0
C91 C 0.74187 0.53318 0.8664 0.0
C92 C 0.45294 0.32283 0.85672 0.0
C93 C 0.47413 0.28492 0.84066 0.0
C94 C 0.51088 0.30131 0.807 0.0
C95 C 0.46127 0.23406 0.85958 0.0
C96 C 0.51992 0.21568 0.81116 0.0
C97 C 0.48406 0.19982 0.84502 0.0
C98 C 0.53289 0.26675 0.79235 0.0
C99 C 0.58067 0.52029 0.7969 0.0
O100 O 0.5274 0.57832 0.86514 0.0
O101 O 0.42979 0.46145 0.86769 0.0
O102 O 0.71138 0.70268 0.88823 0.0
O103 O 0.73339 0.68637 0.83438 0.0
O104 O 0.68037 0.5875 0.92446 0.0
O105 O 0.55773 0.51629 0.90266 0.0
O106 O 0.65956 0.47487 0.86108 0.0
O107 O 0.75692 0.59146 0.87023 0.0
O108 O 0.43479 0.34791 0.83462 0.0
O109 O 0.50152 0.36606 0.88312 0.0
O110 O 0.50397 0.46499 0.80277 0.0
O111 O 0.6275 0.53492 0.82263 0.0
H112 H 0.84716 0.86789 0.85531 0.0
H113 H 0.59792 0.67988 0.82441 0.0
H114 H 0.57158 0.74559 0.79773 0.0
H115 H 0.8233 0.93427 0.82659 0.0
H116 H 0.52312 0.34119 0.79202 0.0
H117 H 0.43384 0.22097 0.88571 0.0
H118 H 0.47268 0.16036 0.86003 0.0
H119 H 0.56117 0.28061 0.76638 0.0
H120 H 0.60855 1.00834 0.24445 0.0
H121 H 0.82045 0.22637 0.24578 0.0
H122 H 0.69886 0.11482 0.14584 0.0
C123 C 0.65244 0.05551 0.23022 0.0
C124 C 0.64529 0.05294 0.19298 0.0
C125 C 0.71479 0.1176 0.24939 0.0
C126 C 0.77266 0.17833 0.23088 0.0
C127 C 0.76899 0.17894 0.19363 0.0
C128 C 0.70425 0.11542 0.17447 0.0
H129 H 0.67848 0.67629 0.65012 0.0
H130 H 0.64941 0.50037 0.64075 0.0
H131 H 0.69217 0.60866 0.54729 0.0
C132 C 0.67635 0.64093 0.63368 0.0
C133 C 0.68674 0.64871 0.5968 0.0
C134 C 0.6645 0.58833 0.64959 0.0
C135 C 0.66199 0.54266 0.62845 0.0
C136 C 0.67164 0.54941 0.59143 0.0
C137 C 0.68456 0.60294 0.57582 0.0
H138 H 1.02085 0.55787 0.93922 0.0
H139 H 0.20151 0.54056 0.94032 0.0
H140 H 1.08635 0.51765 0.84002 0.0
C141 C 1.05482 0.5487 0.92402 0.0
C142 C 1.03834 0.53546 0.88712 0.0
C143 C 0.11219 0.55061 0.94273 0.0
C144 C 0.16037 0.54057 0.92467 0.0
C145 C 0.15786 0.52998 0.88753 0.0
C146 C 1.09307 0.52633 0.8686 0.0
H147 H 1.09535 0.4991 0.37817 0.0
H148 H 0.31506 0.71485 0.37713 0.0
H149 H 0.21058 0.6168 0.47741 0.0
C150 C 0.14425 0.54744 0.39261 0.0
C151 C 0.14517 0.54922 0.43004 0.0
C152 C 0.20449 0.60669 0.37341 0.0
C153 C 0.26757 0.66929 0.39196 0.0
C154 C 0.27102 0.6747 0.42931 0.0
C155 C 0.20963 0.61375 0.44861 0.0
H156 H 0.63811 0.13124 0.69061 0.0
H157 H 0.69327 1.0054 0.68582 0.0
H158 H 0.61037 0.02873 0.78399 0.0
C159 C 0.64244 0.09837 0.70382 0.0
C160 C 0.62307 0.08533 0.74012 0.0
C161 C 0.66518 0.06805 0.68391 0.0
C162 C 0.67239 0.02635 0.70099 0.0
C163 C 0.65372 1.01231 0.73734 0.0
C164 C 0.62831 0.04164 0.75651 0.0
H165 H 0.35664 0.30337 0.03437 0.0
H166 H 0.58634 0.35531 0.05167 0.0
H167 H 0.38506 0.22469 0.12389 0.0
C168 C 0.39044 0.29362 0.04814 0.0
C169 C 0.35645 0.25406 0.07884 0.0
C170 C 0.47297 0.33021 0.03797 0.0
C171 C 0.5216 0.32547 0.05842 0.0
C172 C 0.49174 0.29151 0.09065 0.0
C173 C 0.4071 0.25053 0.0989 0.0
C174 C 0.27193 0.29974 0.1407 0.0
C175 C 0.23609 0.31082 0.11537 0.0
C176 C 0.29415 0.26316 0.13111 0.0
C177 C 0.2836 0.23926 0.09557 0.0
H178 H 0.29365 0.3275 0.16625 0.0
H179 H 0.33211 0.26468 0.15003 0.0
S180 S 0.14972 0.22159 0.02692 0.0
N181 N 0.16024 0.27135 0.05879 0.0
N182 N 0.19957 0.20001 0.04146 0.0
C183 C 0.22604 0.23259 0.07409 0.0
C184 C 0.20429 0.27069 0.08354 0.0
C185 C 0.92258 0.37979 0.44852 0.0
C186 C 0.93322 0.33818 0.46321 0.0
C187 C 0.9912 0.44936 0.44078 0.0
C188 C 1.07487 0.48207 0.44751 0.0
H189 H 0.86063 0.3578 0.4413 0.0
H190 H 0.97869 0.4771 0.42775 0.0
S191 S 0.13974 0.39911 0.48701 0.0
N192 N 1.03644 0.33752 0.48542 0.0
N193 N 0.16425 0.46745 0.47066 0.0
C194 C 1.08687 0.4423 0.46333 0.0
C195 C 1.01676 0.37098 0.47117 0.0
C196 C 0.70996 0.94732 0.80659 0.0
C197 C 0.6825 0.88612 0.79059 0.0
C198 C 0.69955 0.98703 0.78945 0.0
C199 C 0.66127 0.96754 0.75544 0.0
H200 H 0.73959 0.96471 0.83275 0.0
H201 H 0.72303 0.03413 0.80279 0.0
S202 S 0.57705 0.81127 0.7019 0.0
N203 N 0.61597 0.80851 0.73827 0.0
N204 N 0.59303 0.88111 0.70693 0.0
C205 C 0.63249 0.90596 0.73929 0.0
C206 C 0.64372 0.8658 0.75663 0.0
C207 C 0.69876 0.37743 0.13274 0.0
C208 C 0.70678 0.4209 0.15876 0.0
C209 C 0.6237 0.32768 0.11348 0.0
C210 C 0.55471 0.3204 0.11949 0.0
H211 H 0.75269 0.38529 0.12553 0.0
H212 H 0.62208 0.29929 0.09159 0.0
S213 S 0.5425 0.41753 0.1875 0.0
N214 N 0.63826 0.44917 0.19219 0.0
N215 N 0.4975 0.35703 0.15564 0.0
C216 C 0.56001 0.35942 0.14781 0.0
C217 C 0.63623 0.40959 0.16753 0.0
C218 C 0.48534 0.84372 0.46431 0.0
C219 C 0.4822 0.89364 0.45726 0.0
C220 C 0.41485 0.77206 0.45833 0.0
C221 C 0.33725 0.74666 0.44569 0.0
H222 H 0.54373 0.86015 0.47317 0.0
H223 H 0.42245 0.73657 0.4619 0.0
S224 S 0.29215 0.8535 0.42541 0.0
N225 N 0.39128 0.91013 0.43863 0.0
N226 N 0.26115 0.77741 0.42783 0.0
C227 C 0.33236 0.79567 0.44012 0.0
C228 C 0.40377 0.86824 0.44582 0.0
C229 C 0.51538 0.15003 0.76011 0.0
C230 C 0.54305 0.17892 0.7949 0.0
C231 C 0.53976 0.11856 0.74321 0.0
C232 C 0.5944 0.11562 0.76002 0.0
H233 H 0.47427 0.1517 0.74578 0.0
H234 H 0.51554 0.09645 0.71659 0.0
S235 S 0.68603 0.18508 0.85118 0.0
N236 N 0.62667 0.20154 0.846 0.0
N237 N 0.67627 0.1458 0.81371 0.0
C238 C 0.62202 0.14392 0.79504 0.0
C239 C 0.59556 0.17472 0.81254 0.0
C240 C 0.78842 0.80661 0.54391 0.0
C241 C 0.73566 0.81848 0.5497 0.0
C242 C 0.77139 0.75097 0.55882 0.0
C243 C 0.70133 0.70544 0.58025 0.0
H244 H 0.8443 0.84139 0.5283 0.0
H245 H 0.81437 0.74437 0.55418 0.0
S246 S 0.53984 0.71014 0.60123 0.0
N247 N 0.60742 0.77731 0.5765 0.0
N248 N 0.57632 0.67328 0.60503 0.0
C249 C 0.64724 0.71585 0.5858 0.0
C250 C 0.66421 0.77225 0.57042 0.0
C251 C 0.90273 0.59074 0.88094 0.0
C252 C 0.8182 0.53323 0.8683 0.0
C253 C 0.97049 0.59144 0.88416 0.0
C254 C 0.96559 0.53571 0.87425 0.0
H255 H 0.91735 0.63702 0.88968 0.0
H256 H 1.0292 0.63787 0.89577 0.0
S257 S 0.76065 0.3695 0.83846 0.0
N258 N 0.73775 0.41642 0.84522 0.0
N259 N 0.85975 0.41819 0.85072 0.0
C260 C 0.88145 0.4778 0.86108 0.0
C261 C 0.81151 0.47667 0.8582 0.0
C262 C 0.50242 0.86349 0.16156 0.0
C263 C 0.42115 0.83874 0.16302 0.0
C264 C 0.57561 0.93402 0.16819 0.0
C265 C 0.5716 0.98382 0.1758 0.0
H266 H 0.5097 0.82764 0.15691 0.0
H267 H 0.63571 0.94916 0.1691 0.0
S268 S 0.37652 0.94884 0.18089 0.0
N269 N 0.34327 0.87267 0.17122 0.0
N270 N 0.47963 1.00338 0.18337 0.0
C271 C 0.49142 0.96046 0.17588 0.0
C272 C 0.41691 0.88882 0.16951 0.0
C273 C 0.59758 0.41541 0.51833 0.0
C274 C 0.64011 0.39509 0.52667 0.0
C275 C 0.60952 0.46636 0.53898 0.0
C276 C 0.6639 0.49848 0.5689 0.0
H277 H 0.55473 0.39172 0.49567 0.0
H278 H 0.5745 0.47965 0.5319 0.0
S279 S 0.79063 0.46428 0.60191 0.0
N280 N 0.73865 0.41096 0.56698 0.0
N281 N 0.76226 0.50765 0.60529 0.0
C282 C 0.70745 0.47916 0.57731 0.0
C283 C 0.69539 0.42737 0.55629 0.0
C284 C 0.28052 0.46274 0.87194 0.0
C285 C 0.36979 0.52173 0.86929 0.0
C286 C 0.21452 0.46475 0.87485 0.0
C287 C 0.22743 0.52575 0.87441 0.0
H288 H 0.26022 0.41276 0.87264 0.0
H289 H 0.1511 0.41632 0.87855 0.0
S290 S 0.44742 0.69807 0.87039 0.0
N291 N 0.46294 0.64571 0.86809 0.0
N292 N 0.34529 0.64899 0.87321 0.0
C293 C 0.31647 0.585 0.87219 0.0
C294 C 0.38377 0.58313 0.86947 0.0
C295 C 0.97497 0.343 0.15559 0.0
C296 C 0.97317 0.39399 0.16438 0.0
C297 C 0.90618 0.27226 0.1621 0.0
C298 C 0.83156 0.24867 0.17725 0.0
H299 H 1.0313 0.35802 0.14489 0.0
H300 H 0.91318 0.23634 0.15692 0.0
S301 S 0.79082 0.3581 0.204 0.0
N302 N 0.88633 0.41293 0.18807 0.0
N303 N 0.75956 0.28179 0.19992 0.0
C304 C 0.82768 0.29837 0.18482 0.0
C305 C 0.89734 0.37013 0.17847 0.0
C306 C 1.05412 0.546 0.03995 0.0
C307 C 0.13155 0.59029 0.05828 0.0
C308 C 1.04855 0.53173 0.00316 0.0
C309 C 0.12052 0.56301 0.98265 0.0
H310 H 0.99711 0.52189 0.05424 0.0
H311 H 0.98693 0.49615 0.99064 0.0
S312 S 0.3394 0.68669 0.01835 0.0
N313 N 0.28189 0.66579 0.05374 0.0
N314 N 0.27283 0.64287 0.98433 0.0
C315 C 0.19871 0.60774 0.00096 0.0
C316 C 0.20386 0.62055 0.03874 0.0
C317 C 0.80591 0.15655 0.34286 0.0
C318 C 0.73602 0.12359 0.36479 0.0
C319 C 0.79834 0.15447 0.30576 0.0
C320 C 0.72055 0.11942 0.28896 0.0
H321 H 0.86716 0.18364 0.35436 0.0
H322 H 0.85381 0.17966 0.29005 0.0
S323 S 0.51903 0.02875 0.33438 0.0
N324 N 0.58689 0.05723 0.3671 0.0
N325 N 0.57273 0.05405 0.29733 0.0
C326 C 0.65029 0.08737 0.3106 0.0
C327 C 0.65803 0.08942 0.34849 0.0
C328 C 0.55657 0.54284 0.73779 0.0
C329 C 0.6095 0.54644 0.7609 0.0
C330 C 0.57669 0.55926 0.70203 0.0
C331 C 0.64943 0.57827 0.6881 0.0
H332 H 0.49835 0.52592 0.74728 0.0
H333 H 0.53359 0.55462 0.68484 0.0
S334 S 0.81012 0.59789 0.73767 0.0
N335 N 0.73964 0.57351 0.76774 0.0
N336 N 0.77608 0.60234 0.70004 0.0
C337 C 0.7039 0.58366 0.71102 0.0
C338 C 0.68436 0.56839 0.74765 0.0
C339 C 0.73295 0.1515 0.59373 0.0
C340 C 0.67849 0.09459 0.56993 0.0
C341 C 0.73065 0.14267 0.63059 0.0
C342 C 0.67545 0.07659 0.64469 0.0
H343 H 0.77424 0.20315 0.58405 0.0
H344 H 0.77079 0.18784 0.64829 0.0
S345 S 0.52628 0.91111 0.59276 0.0
N346 N 0.57156 0.97026 0.56256 0.0
N347 N 0.56912 0.95344 0.63141 0.0
C348 C 0.62423 1.01937 0.62078 0.0
C349 C 0.62523 0.02846 0.5835 0.0
C350 C 0.49246 0.41519 0.95419 0.0
C351 C 0.57298 0.48161 0.95737 0.0
C352 C 0.46294 0.36594 0.97932 0.0
C353 C 0.51094 0.38188 0.00978 0.0
H354 H 0.45165 0.40062 0.93187 0.0
H355 H 0.40118 0.31509 0.97503 0.0
S356 S 0.72224 0.55244 0.03304 0.0
N357 N 0.69922 0.56238 0.99386 0.0
N358 N 0.64097 0.47225 0.04322 0.0
C359 C 0.59076 0.44939 0.01402 0.0
C360 C 0.62215 0.49875 0.98747 0.0
C361 C 0.1959 0.54776 0.27845 0.0
C362 C 0.20817 0.59671 0.25767 0.0
C363 C 0.19331 0.55074 0.31566 0.0
C364 C 0.20276 0.60277 0.33371 0.0
H365 H 0.18963 0.50727 0.26593 0.0
H366 H 0.18593 0.5129 0.33047 0.0
S367 S 0.22983 0.74036 0.29159 0.0
N368 N 0.22623 0.69716 0.2578 0.0
N369 N 0.21926 0.70184 0.32773 0.0
C370 C 0.21254 0.65092 0.3132 0.0
C371 C 0.21559 0.64805 0.27522 0.0
loop_
_geom_bond_atom_site_label_1
_geom_bond_atom_site_label_2
_geom_bond_distance
_geom_bond_site_symmetry_2
_ccdc_geom_bond_type
Gd0 C3 2.818 . S
Gd0 O20 2.377 . S
Gd0 O22 2.448 . S
Gd0 O23 2.506 . S
Gd0 O24 2.435 . S
Gd0 O25 2.717 . S
Gd0 O27 2.395 1_455 S
Gd0 O31 2.327 . S
Gd1 C12 2.818 . S
Gd1 O21 2.395 1_655 S
Gd1 O25 2.327 1_655 S
Gd1 O26 2.377 . S
Gd1 O28 2.448 . S
Gd1 O29 2.506 . S
Gd1 O30 2.435 1_655 S
Gd1 O31 2.717 1_655 S
C2 O20 1.240 . S
C2 O21 1.240 . S
C3 Gd0 2.818 . S
C3 C4 1.510 . S
C3 O22 1.249 . S
C3 O23 1.252 . S
C4 C3 1.510 . S
C4 C5 1.404 . S
C4 C6 1.352 . S
C5 C4 1.404 . S
C5 C9 1.389 . S
C5 H32 0.930 . S
C6 C4 1.352 . S
C6 C8 1.374 . S
C6 H33 0.931 . S
C7 C8 1.359 . S
C7 C9 1.364 . S
C8 C6 1.374 . S
C8 C7 1.359 . S
C8 H34 0.931 . S
C9 C5 1.389 . S
C9 C7 1.364 . S
C9 H35 0.931 . S
C10 O24 1.256 . S
C10 O25 1.257 . S
C11 O26 1.240 . S
C11 O27 1.240 . S
C12 Gd1 2.818 . S
C12 C13 1.510 . S
C12 O28 1.249 . S
C12 O29 1.252 . S
C13 C12 1.510 . S
C13 C14 1.404 . S
C13 C15 1.352 . S
C14 C13 1.404 . S
C14 C18 1.389 . S
C14 H36 0.930 . S
C15 C13 1.352 . S
C15 C17 1.374 . S
C15 H37 0.931 . S
C16 C17 1.359 . S
C16 C18 1.364 . S
C17 C15 1.374 . S
C17 C16 1.359 . S
C17 H38 0.931 . S
C18 C14 1.389 . S
C18 C16 1.364 . S
C18 H39 0.931 . S
C19 O30 1.256 . S
C19 O31 1.257 . S
O20 Gd0 2.377 . S
O20 C2 1.240 . S
O21 Gd1 2.395 1_455 S
O21 C2 1.240 . S
O22 Gd0 2.448 . S
O22 C3 1.249 . S
O23 Gd0 2.506 . S
O23 C3 1.252 . S
O24 Gd0 2.435 . S
O24 C10 1.256 . S
O25 Gd0 2.717 . S
O25 Gd1 2.327 1_455 S
O25 C10 1.257 . S
O26 Gd1 2.377 . S
O26 C11 1.240 . S
O27 Gd0 2.395 1_655 S
O27 C11 1.240 . S
O28 Gd1 2.448 . S
O28 C12 1.249 . S
O29 Gd1 2.506 . S
O29 C12 1.252 . S
O30 Gd1 2.435 1_455 S
O30 C19 1.256 . S
O31 Gd0 2.327 . S
O31 Gd1 2.717 1_455 S
O31 C19 1.257 . S
H32 C5 0.930 . S
H33 C6 0.931 . S
H34 C8 0.931 . S
H35 C9 0.931 . S
H36 C14 0.930 . S
H37 C15 0.931 . S
H38 C17 0.931 . S
H39 C18 0.931 . S
Gd40 C43 2.818 . S
Gd40 O60 2.377 . S
Gd40 O62 2.448 . S
Gd40 O63 2.506 . S
Gd40 O64 2.435 . S
Gd40 O65 2.717 1_565 S
Gd40 O67 2.395 1_565 S
Gd40 O71 2.327 1_565 S
Gd41 C52 2.818 . S
Gd41 O61 2.395 1_545 S
Gd41 O65 2.327 . S
Gd41 O66 2.377 . S
Gd41 O68 2.448 . S
Gd41 O69 2.506 . S
Gd41 O70 2.435 . S
Gd41 O71 2.717 . S
C42 O60 1.240 . S
C42 O61 1.240 . S
C43 Gd40 2.818 . S
C43 C44 1.510 . S
C43 O62 1.249 . S
C43 O63 1.252 . S
C44 C43 1.510 . S
C44 C45 1.404 . S
C44 C46 1.352 . S
C45 C44 1.404 . S
C45 C49 1.389 . S
C45 H72 0.930 . S
C46 C44 1.352 . S
C46 C48 1.374 . S
C46 H73 0.931 . S
C47 C48 1.359 . S
C47 C49 1.364 . S
C48 C46 1.374 . S
C48 C47 1.359 . S
C48 H74 0.931 . S
C49 C45 1.389 . S
C49 C47 1.364 . S
C49 H75 0.931 . S
C50 O64 1.256 1_545 S
C50 O65 1.257 . S
C51 O66 1.240 . S
C51 O67 1.240 . S
C52 Gd41 2.818 . S
C52 C53 1.510 . S
C52 O68 1.249 . S
C52 O69 1.252 . S
C53 C52 1.510 . S
C53 C54 1.404 . S
C53 C55 1.352 . S
C54 C53 1.404 . S
C54 C58 1.389 . S
C54 H76 0.930 . S
C55 C53 1.352 . S
C55 C57 1.374 . S
C55 H77 0.931 . S
C56 C57 1.359 . S
C56 C58 1.364 . S
C57 C55 1.374 . S
C57 C56 1.359 . S
C57 H78 0.931 . S
C58 C54 1.389 . S
C58 C56 1.364 . S
C58 H79 0.931 . S
C59 O70 1.256 . S
C59 O71 1.257 . S
O60 Gd40 2.377 . S
O60 C42 1.240 . S
O61 Gd41 2.395 1_565 S
O61 C42 1.240 . S
O62 Gd40 2.448 . S
O62 C43 1.249 . S
O63 Gd40 2.506 . S
O63 C43 1.252 . S
O64 Gd40 2.435 . S
O64 C50 1.256 1_565 S
O65 Gd40 2.717 1_545 S
O65 Gd41 2.327 . S
O65 C50 1.257 . S
O66 Gd41 2.377 . S
O66 C51 1.240 . S
O67 Gd40 2.395 1_545 S
O67 C51 1.240 . S
O68 Gd41 2.448 . S
O68 C52 1.249 . S
O69 Gd41 2.506 . S
O69 C52 1.252 . S
O70 Gd41 2.435 . S
O70 C59 1.256 . S
O71 Gd40 2.327 1_545 S
O71 Gd41 2.717 . S
O71 C59 1.257 . S
H72 C45 0.930 . S
H73 C46 0.931 . S
H74 C48 0.931 . S
H75 C49 0.931 . S
H76 C54 0.930 . S
H77 C55 0.931 . S
H78 C57 0.931 . S
H79 C58 0.931 . S
Gd80 C83 2.818 . S
Gd80 O100 2.377 . S
Gd80 O102 2.448 . S
Gd80 O103 2.506 . S
Gd80 O104 2.435 . S
Gd80 O105 2.717 . S
Gd80 O107 2.395 . S
Gd80 O111 2.327 . S
Gd81 C92 2.818 . S
Gd81 O101 2.395 . S
Gd81 O105 2.327 . S
Gd81 O106 2.377 . S
Gd81 O108 2.448 . S
Gd81 O109 2.506 . S
Gd81 O110 2.435 . S
Gd81 O111 2.717 . S
C82 O100 1.240 . S
C82 O101 1.240 . S
C83 Gd80 2.818 . S
C83 C84 1.510 . S
C83 O102 1.249 . S
C83 O103 1.252 . S
C84 C83 1.510 . S
C84 C85 1.404 . S
C84 C86 1.352 . S
C85 C84 1.404 . S
C85 C89 1.389 . S
C85 H112 0.930 . S
C86 C84 1.352 . S
C86 C88 1.374 . S
C86 H113 0.931 . S
C87 C88 1.359 . S
C87 C89 1.364 . S
C88 C86 1.374 . S
C88 C87 1.359 . S
C88 H114 0.931 . S
C89 C85 1.389 . S
C89 C87 1.364 . S
C89 H115 0.931 . S
C90 O104 1.256 . S
C90 O105 1.257 . S
C91 O106 1.240 . S
C91 O107 1.240 . S
C92 Gd81 2.818 . S
C92 C93 1.510 . S
C92 O108 1.249 . S
C92 O109 1.252 . S
C93 C92 1.510 . S
C93 C94 1.404 . S
C93 C95 1.352 . S
C94 C93 1.404 . S
C94 C98 1.389 . S
C94 H116 0.930 . S
C95 C93 1.352 . S
C95 C97 1.374 . S
C95 H117 0.931 . S
C96 C97 1.359 . S
C96 C98 1.364 . S
C97 C95 1.374 . S
C97 C96 1.359 . S
C97 H118 0.931 . S
C98 C94 1.389 . S
C98 C96 1.364 . S
C98 H119 0.931 . S
C99 O110 1.256 . S
C99 O111 1.257 . S
O100 Gd80 2.377 . S
O100 C82 1.240 . S
O101 Gd81 2.395 . S
O101 C82 1.240 . S
O102 Gd80 2.448 . S
O102 C83 1.249 . S
O103 Gd80 2.506 . S
O103 C83 1.252 . S
O104 Gd80 2.435 . S
O104 C90 1.256 . S
O105 Gd80 2.717 . S
O105 Gd81 2.327 . S
O105 C90 1.257 . S
O106 Gd81 2.377 . S
O106 C91 1.240 . S
O107 Gd80 2.395 . S
O107 C91 1.240 . S
O108 Gd81 2.448 . S
O108 C92 1.249 . S
O109 Gd81 2.506 . S
O109 C92 1.252 . S
O110 Gd81 2.435 . S
O110 C99 1.256 . S
O111 Gd80 2.327 . S
O111 Gd81 2.717 . S
O111 C99 1.257 . S
H112 C85 0.930 . S
H113 C86 0.931 . S
H114 C88 0.931 . S
H115 C89 0.931 . S
H116 C94 0.930 . S
H117 C95 0.931 . S
H118 C97 0.931 . S
H119 C98 0.931 . S
H120 C123 0.931 . S
H121 C126 0.928 . S
H122 C128 0.930 . S
C123 H120 0.931 . S
C123 C124 1.413 . S
C123 C125 1.360 1_565 S
C124 C123 1.413 . S
C124 C128 1.429 1_565 S
C125 C123 1.360 1_545 S
C125 C126 1.372 . S
C126 H121 0.928 . S
C126 C125 1.372 . S
C126 C127 1.404 . S
C127 C126 1.404 . S
C127 C128 1.391 . S
C128 H122 0.930 . S
C128 C124 1.429 1_545 S
C128 C127 1.391 . S
H129 C132 0.931 . S
H130 C135 0.928 . S
H131 C137 0.930 . S
C132 H129 0.931 . S
C132 C133 1.413 . S
C132 C134 1.360 . S
C133 C132 1.413 . S
C133 C137 1.429 . S
C134 C132 1.360 . S
C134 C135 1.372 . S
C135 H130 0.928 . S
C135 C134 1.372 . S
C135 C136 1.404 . S
C136 C135 1.404 . S
C136 C137 1.391 . S
C137 H131 0.930 . S
C137 C133 1.429 . S
C137 C136 1.391 . S
H138 C141 0.931 1_655 S
H139 C144 0.928 . S
H140 C146 0.930 . S
C141 H138 0.931 1_455 S
C141 C142 1.413 . S
C141 C143 1.360 . S
C142 C141 1.413 . S
C142 C146 1.429 . S
C143 C141 1.360 . S
C143 C144 1.372 . S
C144 H139 0.928 . S
C144 C143 1.372 . S
C144 C145 1.404 . S
C145 C144 1.404 . S
C145 C146 1.391 . S
C146 H140 0.930 . S
C146 C142 1.429 . S
C146 C145 1.391 . S
H147 C150 0.931 . S
H148 C153 0.928 . S
H149 C155 0.930 . S
C150 H147 0.931 . S
C150 C151 1.413 . S
C150 C152 1.358 1_655 S
C151 C150 1.413 . S
C151 C155 1.429 1_655 S
C152 C150 1.358 1_455 S
C152 C153 1.374 . S
C153 H148 0.928 . S
C153 C152 1.374 . S
C153 C154 1.404 . S
C154 C153 1.404 . S
C154 C155 1.391 . S
C155 H149 0.930 . S
C155 C151 1.429 1_455 S
C155 C154 1.391 . S
H156 C159 0.931 . S
H157 C162 0.928 . S
H158 C164 0.930 . S
C159 H156 0.931 . S
C159 C160 1.413 . S
C159 C161 1.360 1_545 S
C160 C159 1.413 . S
C160 C164 1.429 . S
C161 C159 1.360 1_565 S
C161 C162 1.372 . S
C162 H157 0.928 . S
C162 C161 1.372 . S
C162 C163 1.404 . S
C163 C162 1.404 . S
C163 C164 1.391 1_565 S
C164 H158 0.930 . S
C164 C160 1.429 . S
C164 C163 1.391 1_545 S
H165 C168 0.931 . S
H166 C171 0.928 . S
H167 C173 0.930 . S
C168 H165 0.931 . S
C168 C169 1.413 . S
C168 C170 1.360 . S
C169 C168 1.413 . S
C169 C173 1.429 . S
C170 C168 1.360 . S
C170 C171 1.372 . S
C171 H166 0.928 . S
C171 C170 1.372 . S
C171 C172 1.404 . S
C172 C171 1.404 . S
C172 C173 1.391 . S
C173 H167 0.930 . S
C173 C169 1.429 . S
C173 C172 1.391 . S
C174 C175 1.369 . S
C174 C176 1.419 . S
C174 H178 0.930 . S
C175 C174 1.369 . S
C175 C184 1.429 . S
C176 C174 1.419 . S
C176 C177 1.363 . S
C176 H179 0.929 . S
C177 C176 1.363 . S
C177 C183 1.428 . S
H178 C174 0.930 . S
H179 C176 0.929 . S
S180 N181 1.613 . S
S180 N182 1.610 . S
N181 S180 1.613 . S
N181 C184 1.350 . S
N182 S180 1.610 . S
N182 C183 1.351 . S
C183 C177 1.428 . S
C183 N182 1.351 . S
C183 C184 1.434 . S
C184 C175 1.429 . S
C184 N181 1.350 . S
C184 C183 1.434 . S
C185 C186 1.369 . S
C185 C187 1.419 . S
C185 H189 0.930 . S
C186 C185 1.369 . S
C186 C195 1.429 . S
C187 C185 1.419 . S
C187 C188 1.363 . S
C187 H190 0.929 . S
C188 C187 1.363 . S
C188 C194 1.428 . S
H189 C185 0.930 . S
H190 C187 0.929 . S
S191 N192 1.613 . S
S191 N193 1.610 . S
N192 S191 1.613 . S
N192 C195 1.350 . S
N193 S191 1.610 . S
N193 C194 1.351 . S
C194 C188 1.428 . S
C194 N193 1.351 . S
C194 C195 1.434 . S
C195 C186 1.429 . S
C195 N192 1.350 . S
C195 C194 1.434 . S
C196 C197 1.369 . S
C196 C198 1.419 . S
C196 H200 0.930 . S
C197 C196 1.369 . S
C197 C206 1.429 . S
C198 C196 1.419 . S
C198 C199 1.363 . S
C198 H201 0.929 . S
C199 C198 1.363 . S
C199 C205 1.428 . S
H200 C196 0.930 . S
H201 C198 0.929 . S
S202 N203 1.613 . S
S202 N204 1.610 . S
N203 S202 1.613 . S
N203 C206 1.350 . S
N204 S202 1.610 . S
N204 C205 1.351 . S
C205 C199 1.428 . S
C205 N204 1.351 . S
C205 C206 1.434 . S
C206 C197 1.429 . S
C206 N203 1.350 . S
C206 C205 1.434 . S
C207 C208 1.369 . S
C207 C209 1.419 . S
C207 H211 0.930 . S
C208 C207 1.369 . S
C208 C217 1.429 . S
C209 C207 1.419 . S
C209 C210 1.363 . S
C209 H212 0.929 . S
C210 C209 1.363 . S
C210 C216 1.428 . S
H211 C207 0.930 . S
H212 C209 0.929 . S
S213 N214 1.613 . S
S213 N215 1.610 . S
N214 S213 1.613 . S
N214 C217 1.350 . S
N215 S213 1.610 . S
N215 C216 1.351 . S
C216 C210 1.428 . S
C216 N215 1.351 . S
C216 C217 1.434 . S
C217 C208 1.429 . S
C217 N214 1.350 . S
C217 C216 1.434 . S
C218 C219 1.369 . S
C218 C220 1.419 . S
C218 H222 0.930 . S
C219 C218 1.369 . S
C219 C228 1.429 . S
C220 C218 1.419 . S
C220 C221 1.363 . S
C220 H223 0.929 . S
C221 C220 1.363 . S
C221 C227 1.428 . S
H222 C218 0.930 . S
H223 C220 0.929 . S
S224 N225 1.613 . S
S224 N226 1.610 . S
N225 S224 1.613 . S
N225 C228 1.350 . S
N226 S224 1.610 . S
N226 C227 1.351 . S
C227 C221 1.428 . S
C227 N226 1.351 . S
C227 C228 1.434 . S
C228 C219 1.429 . S
C228 N225 1.350 . S
C228 C227 1.434 . S
C229 C230 1.369 . S
C229 C231 1.419 . S
C229 H233 0.930 . S
C230 C229 1.369 . S
C230 C239 1.429 . S
C231 C229 1.419 . S
C231 C232 1.363 . S
C231 H234 0.929 . S
C232 C231 1.363 . S
C232 C238 1.428 . S
H233 C229 0.930 . S
H234 C231 0.929 . S
S235 N236 1.613 . S
S235 N237 1.610 . S
N236 S235 1.613 . S
N236 C239 1.350 . S
N237 S235 1.610 . S
N237 C238 1.351 . S
C238 C232 1.428 . S
C238 N237 1.351 . S
C238 C239 1.434 . S
C239 C230 1.429 . S
C239 N236 1.350 . S
C239 C238 1.434 . S
C240 C241 1.369 . S
C240 C242 1.419 . S
C240 H244 0.930 . S
C241 C240 1.369 . S
C241 C250 1.429 . S
C242 C240 1.419 . S
C242 C243 1.363 . S
C242 H245 0.929 . S
C243 C242 1.363 . S
C243 C249 1.428 . S
H244 C240 0.930 . S
H245 C242 0.929 . S
S246 N247 1.613 . S
S246 N248 1.610 . S
N247 S246 1.613 . S
N247 C250 1.350 . S
N248 S246 1.610 . S
N248 C249 1.351 . S
C249 C243 1.428 . S
C249 N248 1.351 . S
C249 C250 1.434 . S
C250 C241 1.429 . S
C250 N247 1.350 . S
C250 C249 1.434 . S
C251 C252 1.369 . S
C251 C253 1.419 . S
C251 H255 0.930 . S
C252 C251 1.369 . S
C252 C261 1.429 . S
C253 C251 1.419 . S
C253 C254 1.363 . S
C253 H256 0.929 . S
C254 C253 1.363 . S
C254 C260 1.428 . S
H255 C251 0.930 . S
H256 C253 0.929 . S
S257 N258 1.613 . S
S257 N259 1.610 . S
N258 S257 1.613 . S
N258 C261 1.350 . S
N259 S257 1.610 . S
N259 C260 1.351 . S
C260 C254 1.428 . S
C260 N259 1.351 . S
C260 C261 1.434 . S
C261 C252 1.429 . S
C261 N258 1.350 . S
C261 C260 1.434 . S
C262 C263 1.369 . S
C262 C264 1.419 . S
C262 H266 0.930 . S
C263 C262 1.369 . S
C263 C272 1.429 . S
C264 C262 1.419 . S
C264 C265 1.363 . S
C264 H267 0.929 . S
C265 C264 1.363 . S
C265 C271 1.428 . S
H266 C262 0.930 . S
H267 C264 0.929 . S
S268 N269 1.613 . S
S268 N270 1.610 . S
N269 S268 1.613 . S
N269 C272 1.350 . S
N270 S268 1.610 . S
N270 C271 1.351 . S
C271 C265 1.428 . S
C271 N270 1.351 . S
C271 C272 1.434 . S
C272 C263 1.429 . S
C272 N269 1.350 . S
C272 C271 1.434 . S
C273 C274 1.369 . S
C273 C275 1.419 . S
C273 H277 0.930 . S
C274 C273 1.369 . S
C274 C283 1.429 . S
C275 C273 1.419 . S
C275 C276 1.363 . S
C275 H278 0.929 . S
C276 C275 1.363 . S
C276 C282 1.428 . S
H277 C273 0.930 . S
H278 C275 0.929 . S
S279 N280 1.613 . S
S279 N281 1.610 . S
N280 S279 1.613 . S
N280 C283 1.350 . S
N281 S279 1.610 . S
N281 C282 1.351 . S
C282 C276 1.428 . S
C282 N281 1.351 . S
C282 C283 1.434 . S
C283 C274 1.429 . S
C283 N280 1.350 . S
C283 C282 1.434 . S
C284 C285 1.369 . S
C284 C286 1.419 . S
C284 H288 0.930 . S
C285 C284 1.369 . S
C285 C294 1.429 . S
C286 C284 1.419 . S
C286 C287 1.363 . S
C286 H289 0.929 . S
C287 C286 1.363 . S
C287 C293 1.428 . S
H288 C284 0.930 . S
H289 C286 0.929 . S
S290 N291 1.613 . S
S290 N292 1.610 . S
N291 S290 1.613 . S
N291 C294 1.350 . S
N292 S290 1.610 . S
N292 C293 1.351 . S
C293 C287 1.428 . S
C293 N292 1.351 . S
C293 C294 1.434 . S
C294 C285 1.429 . S
C294 N291 1.350 . S
C294 C293 1.434 . S
C295 C296 1.369 . S
C295 C297 1.419 . S
C295 H299 0.930 . S
C296 C295 1.369 . S
C296 C305 1.429 . S
C297 C295 1.419 . S
C297 C298 1.363 . S
C297 H300 0.929 . S
C298 C297 1.363 . S
C298 C304 1.428 . S
H299 C295 0.930 . S
H300 C297 0.929 . S
S301 N302 1.613 . S
S301 N303 1.610 . S
N302 S301 1.613 . S
N302 C305 1.350 . S
N303 S301 1.610 . S
N303 C304 1.351 . S
C304 C298 1.428 . S
C304 N303 1.351 . S
C304 C305 1.434 . S
C305 C296 1.429 . S
C305 N302 1.350 . S
C305 C304 1.434 . S
C306 C307 1.369 . S
C306 C308 1.419 . S
C306 H310 0.931 1_455 S
C307 C306 1.369 . S
C307 C316 1.429 . S
C308 C306 1.419 . S
C308 C309 1.363 1_554 S
C308 H311 0.929 1_454 S
C309 C308 1.363 1_556 S
C309 C315 1.428 1_556 S
H310 C306 0.931 1_655 S
H311 C308 0.929 1_656 S
S312 N313 1.613 . S
S312 N314 1.610 . S
N313 S312 1.613 . S
N313 C316 1.350 . S
N314 S312 1.610 . S
N314 C315 1.351 . S
C315 C309 1.428 1_554 S
C315 N314 1.351 . S
C315 C316 1.434 . S
C316 C307 1.429 . S
C316 N313 1.350 . S
C316 C315 1.434 . S
C317 C318 1.369 . S
C317 C319 1.419 . S
C317 H321 0.930 . S
C318 C317 1.369 . S
C318 C327 1.429 . S
C319 C317 1.419 . S
C319 C320 1.363 . S
C319 H322 0.929 . S
C320 C319 1.363 . S
C320 C326 1.428 . S
H321 C317 0.930 . S
H322 C319 0.929 . S
S323 N324 1.613 . S
S323 N325 1.610 . S
N324 S323 1.613 . S
N324 C327 1.350 . S
N325 S323 1.610 . S
N325 C326 1.351 . S
C326 C320 1.428 . S
C326 N325 1.351 . S
C326 C327 1.434 . S
C327 C318 1.429 . S
C327 N324 1.350 . S
C327 C326 1.434 . S
C328 C329 1.369 . S
C328 C330 1.419 . S
C328 H332 0.930 . S
C329 C328 1.369 . S
C329 C338 1.429 . S
C330 C328 1.419 . S
C330 C331 1.363 . S
C330 H333 0.929 . S
C331 C330 1.363 . S
C331 C337 1.428 . S
H332 C328 0.930 . S
H333 C330 0.929 . S
S334 N335 1.613 . S
S334 N336 1.610 . S
N335 S334 1.613 . S
N335 C338 1.350 . S
N336 S334 1.610 . S
N336 C337 1.351 . S
C337 C331 1.428 . S
C337 N336 1.351 . S
C337 C338 1.434 . S
C338 C329 1.429 . S
C338 N335 1.350 . S
C338 C337 1.434 . S
C339 C340 1.369 . S
C339 C341 1.419 . S
C339 H343 0.930 . S
C340 C339 1.369 . S
C340 C349 1.429 1_545 S
C341 C339 1.419 . S
C341 C342 1.363 1_545 S
C341 H344 0.929 . S
C342 C341 1.363 1_565 S
C342 C348 1.428 . S
H343 C339 0.930 . S
H344 C341 0.929 . S
S345 N346 1.613 . S
S345 N347 1.610 . S
N346 S345 1.613 . S
N346 C349 1.350 . S
N347 S345 1.610 . S
N347 C348 1.351 . S
C348 C342 1.428 . S
C348 N347 1.351 . S
C348 C349 1.434 . S
C349 C340 1.429 1_565 S
C349 N346 1.350 . S
C349 C348 1.434 . S
C350 C351 1.369 . S
C350 C352 1.419 . S
C350 H354 0.930 . S
C351 C350 1.369 . S
C351 C360 1.429 . S
C352 C350 1.419 . S
C352 C353 1.363 1_556 S
C352 H355 0.929 . S
C353 C352 1.363 1_554 S
C353 C359 1.428 1_554 S
H354 C350 0.930 . S
H355 C352 0.929 . S
S356 N357 1.613 . S
S356 N358 1.610 1_556 S
N357 S356 1.613 . S
N357 C360 1.350 . S
N358 S356 1.610 1_554 S
N358 C359 1.351 1_554 S
C359 C353 1.428 1_556 S
C359 N358 1.351 1_556 S
C359 C360 1.434 . S
C360 C351 1.429 . S
C360 N357 1.350 . S
C360 C359 1.434 . S
C361 C362 1.369 . S
C361 C363 1.419 . S
C361 H365 0.930 . S
C362 C361 1.369 . S
C362 C371 1.429 . S
C363 C361 1.419 . S
C363 C364 1.363 . S
C363 H366 0.929 . S
C364 C363 1.363 . S
C364 C370 1.428 1_455 S
H365 C361 0.930 . S
H366 C363 0.929 . S
S367 N368 1.613 . S
S367 N369 1.610 . S
N368 S367 1.613 . S
N368 C371 1.350 1_655 S
N369 S367 1.610 . S
N369 C370 1.351 . S
C370 C364 1.428 1_655 S
C370 N369 1.351 . S
C370 C371 1.434 1_655 S
C371 C362 1.429 . S
C371 N368 1.350 1_455 S
C371 C370 1.434 1_455 S
C175 C7 1.228 . S
C177 C169 1.441 . S
C186 C51 1.867 . S
C188 C151 1.841 . S
C197 C87 1.623 . S
C199 C163 1.776 . S
C208 C16 0.988 . S
C210 C172 1.140 . S
C221 C154 1.864 . S
C219 C42 1.901 . S
C232 C160 1.594 . S
C230 C96 1.516 . S
C241 C47 1.435 . S
C243 C133 1.543 . S
C252 C91 3.036 . S
C254 C142 2.996 1_655 S
C263 C2 1.942 . S
C265 C124 1.946 . S
C276 C136 1.674 . S
C274 C56 1.555 . S
C287 C145 2.969 . S
C285 C82 2.970 . S
C296 C11 1.869 . S
C298 C127 1.854 . S
C309 C143 1.808 . S
C307 C19 1.737 . S
C318 C50 1.300 . S
C320 C125 1.340 . S
C329 C99 1.440 . S
C331 C134 1.503 . S
C342 C161 1.463 . S
C340 C59 1.422 . S
C353 C170 1.039 . S
C351 C90 1.053 . S
C362 C10 1.285 . S
C364 C152 1.314 . S
