# Generated by pormake.
# Topology zzz, (3,6)-cn, num edge types: 1
# Building blocks:
#     Node 0, Type 0, BuildingBlock: BELTOD_clean_linker_0, # of connection points: 3
#     Node 1, Type 0, BuildingBlock: BELTOD_clean_linker_0, # of connection points: 3
#     Node 2, Type 0, BuildingBlock: BELTOD_clean_linker_0, # of connection points: 3
#     Node 3, Type 0, BuildingBlock: BELTOD_clean_linker_0, # of connection points: 3
#     Node 4, Type 0, BuildingBlock: BELTOD_clean_linker_0, # of connection points: 3
#     Node 5, Type 0, BuildingBlock: BELTOD_clean_linker_0, # of connection points: 3
#     Node 6, Type 0, BuildingBlock: BELTOD_clean_linker_0, # of connection points: 3
#     Node 7, Type 0, BuildingBlock: BELTOD_clean_linker_0, # of connection points: 3
#     Node 8, Type 1, BuildingBlock: KUMBOL_clean_sbu_1, # of connection points: 6
#     Node 9, Type 1, BuildingBlock: KUMBOL_clean_sbu_1, # of connection points: 6
#     Node 10, Type 1, BuildingBlock: KUMBOL_clean_sbu_1, # of connection points: 6
#     Node 11, Type 1, BuildingBlock: KUMBOL_clean_sbu_1, # of connection points: 6
#     Edge 12, Type (0, 1), BuildingBlock: MIFKUJ_clean_linker_0, # of connection points: 2
#     Edge 13, Type (0, 1), BuildingBlock: MIFKUJ_clean_linker_0, # of connection points: 2
#     Edge 14, Type (0, 1), BuildingBlock: MIFKUJ_clean_linker_0, # of connection points: 2
#     Edge 15, Type (0, 1), BuildingBlock: MIFKUJ_clean_linker_0, # of connection points: 2
#     Edge 16, Type (0, 1), BuildingBlock: MIFKUJ_clean_linker_0, # of connection points: 2
#     Edge 17, Type (0, 1), BuildingBlock: MIFKUJ_clean_linker_0, # of connection points: 2
#     Edge 18, Type (0, 1), BuildingBlock: MIFKUJ_clean_linker_0, # of connection points: 2
#     Edge 19, Type (0, 1), BuildingBlock: MIFKUJ_clean_linker_0, # of connection points: 2
#     Edge 20, Type (0, 1), BuildingBlock: MIFKUJ_clean_linker_0, # of connection points: 2
#     Edge 21, Type (0, 1), BuildingBlock: MIFKUJ_clean_linker_0, # of connection points: 2
#     Edge 22, Type (0, 1), BuildingBlock: MIFKUJ_clean_linker_0, # of connection points: 2
#     Edge 23, Type (0, 1), BuildingBlock: MIFKUJ_clean_linker_0, # of connection points: 2
#     Edge 24, Type (0, 1), BuildingBlock: MIFKUJ_clean_linker_0, # of connection points: 2
#     Edge 25, Type (0, 1), BuildingBlock: MIFKUJ_clean_linker_0, # of connection points: 2
#     Edge 26, Type (0, 1), BuildingBlock: MIFKUJ_clean_linker_0, # of connection points: 2
#     Edge 27, Type (0, 1), BuildingBlock: MIFKUJ_clean_linker_0, # of connection points: 2
#     Edge 28, Type (0, 1), BuildingBlock: MIFKUJ_clean_linker_0, # of connection points: 2
#     Edge 29, Type (0, 1), BuildingBlock: MIFKUJ_clean_linker_0, # of connection points: 2
#     Edge 30, Type (0, 1), BuildingBlock: MIFKUJ_clean_linker_0, # of connection points: 2
#     Edge 31, Type (0, 1), BuildingBlock: MIFKUJ_clean_linker_0, # of connection points: 2
#     Edge 32, Type (0, 1), BuildingBlock: MIFKUJ_clean_linker_0, # of connection points: 2
#     Edge 33, Type (0, 1), BuildingBlock: MIFKUJ_clean_linker_0, # of connection points: 2
#     Edge 34, Type (0, 1), BuildingBlock: MIFKUJ_clean_linker_0, # of connection points: 2
#     Edge 35, Type (0, 1), BuildingBlock: MIFKUJ_clean_linker_0, # of connection points: 2
# Relax obj value: 0.272
# Max RMSD: 0.195
# Mean RMSD: 0.170
data_MOF--net-zzz--node1-KUMBOL_clean_sbu_1--node2-BELTOD_clean_linker_0--edge1-MIFKUJ_clean_linker_0
_symmetry_space_group_name_H-M    P1
_symmetry_Int_Tables_number       1
_symmetry_cell_setting            triclinic
loop_
_symmetry_equiv_pos_as_xyz
'x, y, z'
_cell_length_a     67.541061
_cell_length_b     67.704549
_cell_length_c     24.821926
_cell_angle_alpha  90.100358
_cell_angle_beta   89.799119
_cell_angle_gamma 90.456456
loop_
_atom_site_label
_atom_site_type_symbol
_atom_site_fract_x
_atom_site_fract_y
_atom_site_fract_z
_atom_type_partial_charge
P0 P 0.74171 0.50351 0.17639 0.0
H1 H 0.75026 0.48875 0.28447 0.0
H2 H 0.7778 0.49601 0.34447 0.0
H3 H 0.79119 0.54871 0.25295 0.0
H4 H 0.76383 0.54099 0.19215 0.0
H5 H 0.71163 0.47697 0.13548 0.0
H6 H 0.68012 0.48245 0.09301 0.0
H7 H 0.68204 0.5436 0.14294 0.0
H8 H 0.71431 0.53785 0.18594 0.0
H9 H 0.77746 0.48962 0.12335 0.0
H10 H 0.73443 0.53543 0.09768 0.0
O11 O 0.74512 0.47916 0.18099 0.0
H12 H 0.7945 0.4994 0.04055 0.0
H13 H 0.7513 0.5451 0.01494 0.0
C14 C 0.75502 0.51412 0.2331 0.0
C15 C 0.75863 0.50227 0.27832 0.0
C16 C 0.77457 0.50644 0.31274 0.0
C17 C 0.78723 0.5227 0.303 0.0
C18 C 0.78222 0.53571 0.26094 0.0
C19 C 0.76628 0.53148 0.22646 0.0
C20 C 0.71541 0.50691 0.16481 0.0
C21 C 0.70506 0.49142 0.13954 0.0
C22 C 0.68685 0.49462 0.11478 0.0
C23 C 0.67837 0.51351 0.11405 0.0
C24 C 0.68817 0.52887 0.14218 0.0
C25 C 0.70648 0.52556 0.16762 0.0
C26 C 0.75429 0.51131 0.11593 0.0
C27 C 0.7716 0.5017 0.09987 0.0
C28 C 0.78142 0.50742 0.05283 0.0
C29 C 0.77411 0.52295 0.02124 0.0
C30 C 0.75705 0.5329 0.03814 0.0
C31 C 0.74734 0.52726 0.08547 0.0
P32 P 0.01446 0.73657 0.19679 0.0
H33 H 0.02614 0.74462 0.30836 0.0
H34 H 0.01718 0.77193 0.36694 0.0
H35 H 0.96686 0.78423 0.26587 0.0
H36 H 0.97614 0.75682 0.20669 0.0
H37 H 0.03334 0.69818 0.18473 0.0
H38 H 0.02588 0.67013 0.12689 0.0
H39 H 0.96864 0.6947 0.09146 0.0
H40 H 0.97624 0.72309 0.15015 0.0
H41 H 0.01889 0.7795 0.1946 0.0
H42 H 0.01164 0.73255 0.07813 0.0
O43 O 0.03814 0.7338 0.21415 0.0
H44 H 0.01579 0.80385 0.12326 0.0
H45 H 0.00913 0.75685 0.00647 0.0
C46 C 1.00197 0.74868 0.25253 0.0
C47 C 0.01267 0.75258 0.29983 0.0
C48 C 0.00755 0.76839 0.33346 0.0
C49 C 0.99157 0.78071 0.32054 0.0
C50 C 0.97953 0.77536 0.27645 0.0
C51 C 0.9846 0.75939 0.24304 0.0
C52 C 0.00538 0.7129 0.17205 0.0
C53 C 0.01889 0.69738 0.16614 0.0
C54 C 0.0147 0.68135 0.13237 0.0
C55 C 0.99686 0.68036 0.1035 0.0
C56 C 0.98255 0.69501 0.11305 0.0
C57 C 0.9868 0.71119 0.14701 0.0
C58 C 0.01446 0.75417 0.14235 0.0
C59 C 0.01652 0.77438 0.15377 0.0
C60 C 0.01494 0.78833 0.1128 0.0
C61 C 0.01177 0.78229 0.05932 0.0
C62 C 0.01088 0.76198 0.04754 0.0
C63 C 0.01234 0.74804 0.08867 0.0
P64 P 0.78123 0.02483 0.1853 0.0
H65 H 0.77519 0.03831 0.29657 0.0
H66 H 0.74833 0.0312 0.35951 0.0
H67 H 0.73133 0.98056 0.26388 0.0
H68 H 0.75827 0.98783 0.20077 0.0
H69 H 0.81193 0.0476 0.13288 0.0
H70 H 0.84075 0.03875 0.07995 0.0
H71 H 0.83313 0.97776 0.12618 0.0
H72 H 0.80379 0.98686 0.18036 0.0
H73 H 0.7457 0.04548 0.15278 0.0
H74 H 0.77898 0.99497 0.09887 0.0
O75 O 0.78212 0.04913 0.19703 0.0
H76 H 0.71965 0.03733 0.08838 0.0
H77 H 0.75289 0.98662 0.03513 0.0
C78 C 0.76875 0.01382 0.24315 0.0
C79 C 0.76623 0.0252 0.29005 0.0
C80 C 0.75067 0.02116 0.32614 0.0
C81 C 0.73719 0.0056 0.31622 0.0
C82 C 0.74104 0.99299 0.27218 0.0
C83 C 0.75671 0.99698 0.23631 0.0
C84 C 0.80573 0.01799 0.16159 0.0
C85 C 0.81668 0.03237 0.13344 0.0
C86 C 0.83311 0.02725 0.10235 0.0
C87 C 0.83909 0.00751 0.09804 0.0
C88 C 0.8289 0.99312 0.12876 0.0
C89 C 0.81223 0.99831 0.16006 0.0
C90 C 0.76446 0.02107 0.1301 0.0
C91 C 0.74766 0.03295 0.12617 0.0
C92 C 0.73271 0.02816 0.08972 0.0
C93 C 0.73421 0.01125 0.05704 0.0
C94 C 0.75145 0.99986 0.05935 0.0
C95 C 0.76641 0.00467 0.09588 0.0
P96 P 0.49495 0.78074 0.19257 0.0
H97 H 0.4772 0.77271 0.29841 0.0
H98 H 0.48388 0.74592 0.36101 0.0
H99 H 0.54024 0.73618 0.28352 0.0
H100 H 0.5337 0.76333 0.22158 0.0
H101 H 0.46986 0.8105 0.14522 0.0
H102 H 0.47675 0.83952 0.09159 0.0
H103 H 0.53892 0.83498 0.12898 0.0
H104 H 0.53171 0.80585 0.18544 0.0
H105 H 0.47589 0.74617 0.14447 0.0
H106 H 0.53125 0.7778 0.12721 0.0
O107 O 0.47032 0.77889 0.19744 0.0
H108 H 0.48755 0.72118 0.08171 0.0
H109 H 0.54341 0.75242 0.06681 0.0
C110 C 0.50466 0.76985 0.25389 0.0
C111 C 0.49141 0.76546 0.29609 0.0
C112 C 0.49519 0.74995 0.33192 0.0
C113 C 0.51233 0.73844 0.32625 0.0
C114 C 0.52664 0.74439 0.28809 0.0
C115 C 0.52296 0.76012 0.25281 0.0
C116 C 0.50024 0.80574 0.16963 0.0
C117 C 0.48496 0.81593 0.1437 0.0
C118 C 0.48897 0.83249 0.11201 0.0
C119 C 0.50847 0.83932 0.10441 0.0
C120 C 0.52371 0.83006 0.13358 0.0
C121 C 0.51961 0.8134 0.16599 0.0
C122 C 0.50248 0.76414 0.1398 0.0
C123 C 0.49045 0.74792 0.12669 0.0
C124 C 0.49732 0.73342 0.09146 0.0
C125 C 0.51656 0.73463 0.06967 0.0
C126 C 0.52844 0.75112 0.08222 0.0
C127 C 0.52143 0.76575 0.1168 0.0
P128 P 0.27915 0.46019 0.03611 0.0
H129 H 0.26962 0.45229 0.92288 0.0
H130 H 0.24264 0.46367 0.86643 0.0
H131 H 0.22871 0.50849 0.9844 0.0
H132 H 0.2557 0.49671 0.04133 0.0
H133 H 0.31874 0.44331 0.04131 0.0
H134 H 0.34803 0.45284 0.09133 0.0
H135 H 0.32148 0.50913 0.12863 0.0
H136 H 0.29166 0.49906 0.07921 0.0
H137 H 0.23666 0.45351 0.0524 0.0
H138 H 0.28859 0.45959 0.15227 0.0
O139 O 0.28282 0.43742 0.01236 0.0
H140 H 0.21574 0.45349 0.13285 0.0
H141 H 0.26779 0.45936 0.23246 0.0
C142 C 0.26469 0.47352 0.98672 0.0
C143 C 0.26122 0.46498 0.93601 0.0
C144 C 0.24566 0.47154 0.90355 0.0
C145 C 0.23315 0.4868 0.9211 0.0
C146 C 0.23775 0.49643 0.96997 0.0
C147 C 0.25341 0.48991 1.0023 0.0
C148 C 0.30295 0.47053 0.0557 0.0
C149 C 0.31936 0.45799 0.05856 0.0
C150 C 0.33626 0.4635 0.08754 0.0
C151 C 0.33725 0.48175 0.11474 0.0
C152 C 0.32122 0.49483 0.10902 0.0
C153 C 0.30424 0.48926 0.07987 0.0
C154 C 0.26413 0.45755 0.09596 0.0
C155 C 0.24359 0.45481 0.09152 0.0
C156 C 0.23165 0.45458 0.13759 0.0
C157 C 0.24012 0.45681 0.18891 0.0
C158 C 0.26082 0.45813 0.19335 0.0
C159 C 0.27273 0.45835 0.14731 0.0
P160 P 0.06232 0.26554 0.06965 0.0
H161 H 0.06973 0.26301 0.9537 0.0
H162 H 0.05902 0.23944 0.88505 0.0
H163 H 0.01798 0.21341 0.99905 0.0
H164 H 0.02824 0.23765 0.0667 0.0
H165 H 0.08288 0.30369 0.071 0.0
H166 H 0.07531 0.33437 0.11744 0.0
H167 H 0.01602 0.31309 0.14937 0.0
H168 H 0.02371 0.28216 0.10197 0.0
H169 H 0.06579 0.22342 0.09583 0.0
H170 H 0.0589 0.27812 0.18339 0.0
O171 O 0.08625 0.26681 0.05284 0.0
H172 H 0.0641 0.20516 0.18081 0.0
H173 H 0.05719 0.26003 0.26754 0.0
C174 C 0.05011 0.25192 0.01584 0.0
C175 C 0.05807 0.25255 0.96358 0.0
C176 C 0.05209 0.23881 0.92442 0.0
C177 C 0.03797 0.22401 0.93653 0.0
C178 C 0.02889 0.22446 0.98783 0.0
C179 C 0.03479 0.23836 0.02687 0.0
C180 C 0.05387 0.2905 0.08272 0.0
C181 C 0.06799 0.30577 0.08607 0.0
C182 C 0.06372 0.32331 0.11342 0.0
C183 C 0.04521 0.32604 0.13833 0.0
C184 C 0.03044 0.31149 0.13069 0.0
C185 C 0.03475 0.29384 0.10314 0.0
C186 C 0.06139 0.25208 0.13252 0.0
C187 C 0.06367 0.23151 0.13305 0.0
C188 C 0.06296 0.2211 0.18171 0.0
C189 C 0.0602 0.23116 0.23079 0.0
C190 C 0.05883 0.25184 0.23029 0.0
C191 C 0.05965 0.26219 0.18178 0.0
P192 P 0.23211 0.06863 0.00608 0.0
H193 H 0.24292 0.07466 0.8928 0.0
H194 H 0.27042 0.06217 0.83973 0.0
H195 H 0.28148 0.01815 0.96154 0.0
H196 H 0.25407 0.03114 0.01524 0.0
H197 H 0.19681 0.09144 0.02807 0.0
H198 H 0.16691 0.08445 0.07885 0.0
H199 H 0.18326 0.02301 0.08888 0.0
H200 H 0.21299 0.03005 0.03459 0.0
H201 H 0.26465 0.09519 0.0358 0.0
H202 H 0.23394 0.04529 0.10575 0.0
O203 O 0.23041 0.09132 0.9803 0.0
H204 H 0.28837 0.09472 0.11011 0.0
H205 H 0.25749 0.04444 0.17836 0.0
C206 C 0.24639 0.05403 0.95853 0.0
C207 C 0.2508 0.06191 0.90754 0.0
C208 C 0.26669 0.05471 0.87699 0.0
C209 C 0.27862 0.03934 0.89656 0.0
C210 C 0.27303 0.03032 0.94559 0.0
C211 C 0.25709 0.03756 0.97614 0.0
C212 C 0.20732 0.0613 0.02728 0.0
C213 C 0.19375 0.07628 0.03934 0.0
C214 C 0.17669 0.07231 0.06951 0.0
C215 C 0.17284 0.05327 0.0898 0.0
C216 C 0.18568 0.03789 0.07424 0.0
C217 C 0.20271 0.04187 0.04298 0.0
C218 C 0.24722 0.07054 0.06551 0.0
C219 C 0.26268 0.08446 0.0677 0.0
C220 C 0.27631 0.08409 0.11 0.0
C221 C 0.2748 0.0696 0.15041 0.0
C222 C 0.25887 0.05613 0.14884 0.0
C223 C 0.2453 0.05656 0.1068 0.0
P224 P 0.46566 0.24119 0.05334 0.0
H225 H 0.45561 0.25165 0.94238 0.0
H226 H 0.46428 0.28005 0.88682 0.0
H227 H 0.5083 0.29785 1.00329 0.0
H228 H 0.49959 0.26908 0.0589 0.0
H229 H 0.45563 0.19915 0.048 0.0
H230 H 0.46734 0.17136 0.1007 0.0
H231 H 0.5165 0.20669 0.15732 0.0
H232 H 0.50461 0.23474 0.10411 0.0
H233 H 0.45616 0.28269 0.07609 0.0
H234 H 0.46245 0.22871 0.16675 0.0
O235 O 0.44367 0.23418 0.02905 0.0
H236 H 0.45414 0.30136 0.16016 0.0
H237 H 0.46056 0.24737 0.25058 0.0
C238 C 0.47686 0.25816 0.00516 0.0
C239 C 0.4675 0.2613 0.95556 0.0
C240 C 0.47231 0.27777 0.92396 0.0
C241 C 0.48667 0.29158 0.94106 0.0
C242 C 0.49715 0.28758 0.9888 0.0
C243 C 0.49228 0.27102 0.02055 0.0
C244 C 0.47923 0.21916 0.07172 0.0
C245 C 0.46936 0.20085 0.06995 0.0
C246 C 0.47594 0.18494 0.1008 0.0
C247 C 0.49262 0.18691 0.13418 0.0
C248 C 0.50361 0.20467 0.13204 0.0
C249 C 0.49693 0.22069 0.10114 0.0
C250 C 0.46069 0.25445 0.11494 0.0
C251 C 0.45707 0.27481 0.1139 0.0
C252 C 0.45562 0.28545 0.162 0.0
C253 C 0.45755 0.2758 0.21177 0.0
C254 C 0.45942 0.25518 0.21267 0.0
C255 C 0.46071 0.24456 0.16461 0.0
C256 C 0.05277 0.02833 0.71356 0.0
C257 C 0.04092 0.02228 0.8042 0.0
C258 C 0.04052 0.01808 0.74855 0.0
C259 C 0.05302 0.03773 0.8234 0.0
C260 C 0.0659 0.04295 0.73293 0.0
C261 C 0.06551 0.04803 0.78781 0.0
N262 N 0.05272 0.02307 0.66087 0.0
C263 C 0.06669 0.03037 0.62614 0.0
C264 C 0.07951 0.05144 0.69687 0.0
C265 C 0.08015 0.04485 0.64345 0.0
Gd266 Gd 0.98158 0.01951 0.55618 0.0
Gd267 Gd 0.02933 0.99925 0.63426 0.0
N268 N 0.02951 1.00289 0.72873 0.0
C269 C 0.02983 0.01026 0.83905 0.0
C270 C 0.02012 0.9901 0.76302 0.0
C271 C 0.01971 0.99385 0.81841 0.0
H272 H 0.01291 0.97693 0.74786 0.0
H273 H 0.01182 0.9839 0.84509 0.0
H274 H 0.99278 0.01764 0.42622 0.0
H275 H 0.06701 0.02536 0.58476 0.0
H276 H 0.98432 0.99741 0.34602 0.0
H277 H 0.02973 0.013 0.88205 0.0
H278 H 0.05333 0.04135 0.86593 0.0
H279 H 0.94519 0.00962 0.64812 0.0
H280 H 0.0899 0.06269 0.71018 0.0
H281 H 0.09088 0.051 0.61557 0.0
H282 H 0.93633 0.9505 0.41249 0.0
H283 H 0.07526 0.05945 0.80341 0.0
H284 H 0.91325 0.95868 0.59393 0.0
H285 H 0.91995 0.98393 0.66386 0.0
N286 N 0.95481 0.99762 0.57308 0.0
C287 C 0.95019 0.98492 0.53244 0.0
C288 C 0.94334 0.99809 0.61852 0.0
C289 C 0.92481 0.96962 0.58744 0.0
C290 C 0.92859 0.9838 0.62707 0.0
C291 C 0.93524 0.97043 0.5387 0.0
H292 H 0.91942 0.94636 0.49979 0.0
N293 N 0.97361 1.00159 0.47839 0.0
C294 C 0.95959 0.98724 0.48322 0.0
C295 C 0.96365 0.97882 0.38924 0.0
C296 C 0.95447 0.97519 0.439 0.0
C297 C 0.98209 0.00574 0.4297 0.0
C298 C 0.97734 0.99433 0.38444 0.0
O299 O 0.02643 0.03261 0.62247 0.0
O300 O 0.993 0.036 0.62849 0.0
O301 O 0.98078 0.04672 0.51053 0.0
O302 O 0.95393 0.03538 0.54668 0.0
O303 O 0.99888 0.99013 0.66627 0.0
O304 O 0.97978 0.01715 0.64779 0.0
O305 O 0.99711 0.99162 0.52788 0.0
O306 O 0.00468 0.97873 0.6092 0.0
O307 O 0.0484 0.97701 0.66954 0.0
O308 O 0.05012 0.98322 0.58448 0.0
O309 O 0.01082 0.0289 0.51756 0.0
O310 O 0.03365 0.00565 0.54583 0.0
C311 C 0.01084 0.04344 0.6332 0.0
C312 C 0.98452 1.00228 0.67934 0.0
C313 C 0.96006 0.06983 0.55392 0.0
C314 C 0.97317 0.10233 0.57924 0.0
C315 C 0.94243 0.09028 0.61865 0.0
C316 C 0.94391 0.07281 0.58883 0.0
C317 C 0.95698 0.10497 0.61404 0.0
C318 C 0.97447 0.08482 0.54897 0.0
C319 C 0.96277 0.05071 0.5257 0.0
C320 C 0.94028 0.96012 0.44576 0.0
C321 C 0.9307 0.95772 0.49555 0.0
H322 H 0.9601 0.9699 0.35423 0.0
C323 C 1.0005 0.97619 0.55826 0.0
C324 C 0.02781 0.01949 0.51239 0.0
C325 C 0.05341 0.95 0.60933 0.0
C326 C 0.04362 0.91632 0.63331 0.0
C327 C 0.05615 0.92348 0.54356 0.0
C328 C 0.05864 0.94333 0.55757 0.0
C329 C 0.04869 0.91 0.58113 0.0
C330 C 0.04587 0.93639 0.64684 0.0
C331 C 0.05506 0.97123 0.6228 0.0
H332 H 0.93002 0.09238 0.6457 0.0
H333 H 0.93256 0.06155 0.5937 0.0
H334 H 0.95563 0.11833 0.6378 0.0
H335 H 0.98675 0.0829 0.52127 0.0
H336 H 0.06007 0.91851 0.50348 0.0
H337 H 0.06444 0.95352 0.52773 0.0
H338 H 0.04718 0.89463 0.56961 0.0
H339 H 0.04138 0.94146 0.68643 0.0
C340 C 0.51389 0.94722 0.59984 0.0
C341 C 0.48773 0.93176 0.65272 0.0
C342 C 0.49532 0.94804 0.62372 0.0
C343 C 0.49958 0.91504 0.66008 0.0
C344 C 0.52539 0.93002 0.60475 0.0
C345 C 0.5184 0.91419 0.63626 0.0
N346 N 0.52004 0.96261 0.56866 0.0
C347 C 0.5365 0.96079 0.53694 0.0
C348 C 0.54322 0.9289 0.57606 0.0
C349 C 0.54858 0.94419 0.54118 0.0
Gd350 Gd 0.51863 0.03464 0.66217 0.0
Gd351 Gd 0.49919 0.9904 0.56871 0.0
N352 N 0.48432 0.96452 0.61674 0.0
C353 C 0.46829 0.93262 0.67239 0.0
C354 C 0.46503 0.96511 0.6333 0.0
C355 C 0.45679 0.94925 0.66189 0.0
H356 H 0.45611 0.97789 0.62483 0.0
H357 H 0.44165 0.94989 0.67603 0.0
H358 H 0.56844 0.03722 0.65768 0.0
H359 H 0.54024 0.97189 0.50748 0.0
H360 H 0.59434 0.05636 0.60985 0.0
H361 H 0.46189 0.9204 0.69475 0.0
H362 H 0.49414 0.9025 0.68296 0.0
H363 H 0.47805 0.06236 0.66295 0.0
H364 H 0.55248 0.91595 0.57873 0.0
H365 H 0.56185 0.94306 0.51682 0.0
H366 H 0.55845 0.1086 0.52446 0.0
H367 H 0.52714 0.90097 0.64098 0.0
H368 H 0.4894 0.11409 0.56774 0.0
H369 H 0.46651 0.09385 0.62343 0.0
N370 N 0.50686 0.06483 0.62894 0.0
C371 C 0.51998 0.07632 0.60155 0.0
C372 C 0.48809 0.07127 0.63902 0.0
C373 C 0.49452 0.10041 0.58527 0.0
C374 C 0.48155 0.08902 0.61666 0.0
C375 C 0.5141 0.09426 0.578 0.0
H376 H 0.52368 0.11917 0.52947 0.0
N377 N 0.54468 0.05357 0.62479 0.0
C378 C 0.53946 0.0703 0.59855 0.0
C379 C 0.57362 0.07663 0.57473 0.0
C380 C 0.55372 0.08215 0.57209 0.0
C381 C 0.56419 0.04916 0.63154 0.0
C382 C 0.57891 0.06026 0.6055 0.0
O383 O 0.49871 0.98745 0.6599 0.0
O384 O 0.52689 0.00348 0.68607 0.0
O385 O 0.53527 0.04987 0.7248 0.0
O386 O 0.505 0.04087 0.73933 0.0
O387 O 0.47512 0.01046 0.60215 0.0
O388 O 0.48766 0.02356 0.68154 0.0
O389 O 0.5011 0.03894 0.5853 0.0
O390 O 0.51318 0.01657 0.52627 0.0
O391 O 0.47586 0.99764 0.51292 0.0
O392 O 0.49221 0.97055 0.50229 0.0
O393 O 0.54256 0.0132 0.63352 0.0
O394 O 0.53052 1.00144 0.55234 0.0
C395 C 0.51385 0.98919 0.69263 0.0
C396 C 0.47271 0.01819 0.6506 0.0
C397 C 0.52654 0.0386 0.81232 0.0
C398 C 0.54857 0.01868 0.86766 0.0
C399 C 0.51689 0.02978 0.90327 0.0
C400 C 0.5129 0.03933 0.85494 0.0
C401 C 0.53449 0.01941 0.90958 0.0
C402 C 0.54438 0.02835 0.81889 0.0
C403 C 0.52127 0.04759 0.76048 0.0
C404 C 0.54777 0.09947 0.54578 0.0
C405 C 0.52798 0.10553 0.54877 0.0
H406 H 0.58506 0.08536 0.55518 0.0
C407 C 0.50823 0.03476 0.53759 0.0
C408 C 0.5454 0.00623 0.58432 0.0
C409 C 0.45795 0.97048 0.4803 0.0
C410 C 0.42387 0.97185 0.44842 0.0
C411 C 0.43538 0.94312 0.49752 0.0
C412 C 0.4542 0.95169 0.50219 0.0
C413 C 0.42024 0.95313 0.47095 0.0
C414 C 0.44279 0.98037 0.45347 0.0
C415 C 0.47697 0.98086 0.48756 0.0
H416 H 0.50626 0.03039 0.93591 0.0
H417 H 0.49904 0.0471 0.85053 0.0
H418 H 0.53704 0.01201 0.94741 0.0
H419 H 0.55505 0.02817 0.78624 0.0
H420 H 0.4325 0.92869 0.51471 0.0
H421 H 0.46563 0.94378 0.52345 0.0
H422 H 0.40581 0.94616 0.46753 0.0
H423 H 0.44566 0.99506 0.43773 0.0
C424 C 0.46811 0.48791 0.73828 0.0
C425 C 0.48394 0.49158 0.8251 0.0
C426 C 0.4819 0.49726 0.77077 0.0
C427 C 0.47279 0.47556 0.84502 0.0
C428 C 0.45589 0.47275 0.75906 0.0
C429 C 0.45875 0.46617 0.81207 0.0
N430 N 0.46579 0.49452 0.68719 0.0
C431 C 0.45043 0.48797 0.65615 0.0
C432 C 0.44074 0.46513 0.72645 0.0
C433 C 0.43779 0.47303 0.6751 0.0
Gd434 Gd 0.53287 0.5022 0.56332 0.0
Gd435 Gd 0.48767 0.51931 0.65802 0.0
N436 N 0.49197 0.51307 0.75065 0.0
C437 C 0.49639 0.50278 0.85839 0.0
C438 C 0.50247 0.52516 0.78436 0.0
C439 C 0.50536 0.51987 0.83815 0.0
H440 H 0.50875 0.5389 0.76991 0.0
H441 H 0.51429 0.52912 0.86409 0.0
H442 H 0.51886 0.50622 0.43632 0.0
H443 H 0.44825 0.49404 0.6164 0.0
H444 H 0.52452 0.52845 0.35836 0.0
H445 H 0.49843 0.49889 0.90032 0.0
H446 H 0.47437 0.47079 0.88642 0.0
H447 H 0.57155 0.51139 0.64826 0.0
H448 H 0.43098 0.45352 0.74099 0.0
H449 H 0.42586 0.46755 0.65003 0.0
H450 H 0.57136 0.57649 0.4244 0.0
H451 H 0.44976 0.45429 0.82851 0.0
H452 H 0.59948 0.56517 0.59849 0.0
H453 H 0.59599 0.53781 0.66385 0.0
N454 N 0.55899 0.52503 0.57906 0.0
C455 C 0.56191 0.53895 0.54032 0.0
C456 C 0.57191 0.52383 0.62117 0.0
C457 C 0.58819 0.55393 0.59239 0.0
C458 C 0.58623 0.53855 0.62943 0.0
C459 C 0.57642 0.55389 0.54615 0.0
H460 H 0.59028 0.57941 0.50861 0.0
N461 N 0.53812 0.52231 0.4879 0.0
C462 C 0.55142 0.53729 0.49278 0.0
C463 C 0.54497 0.54733 0.40119 0.0
C464 C 0.55497 0.55046 0.44986 0.0
C465 C 0.52892 0.51863 0.44002 0.0
C466 C 0.5321 0.53116 0.39602 0.0
O467 O 0.49087 0.48641 0.6386 0.0
O468 O 0.52444 0.48271 0.63358 0.0
O469 O 0.53325 0.47675 0.51066 0.0
O470 O 0.5607 0.48791 0.54338 0.0
O471 O 0.51896 0.52871 0.6807 0.0
O472 O 0.53742 0.5022 0.65417 0.0
O473 O 0.51469 0.52922 0.54273 0.0
O474 O 0.50986 0.54162 0.62646 0.0
O475 O 0.46834 0.53766 0.70655 0.0
O476 O 0.46625 0.53846 0.61985 0.0
O477 O 0.50273 0.49303 0.53018 0.0
O478 O 0.47907 0.51288 0.57192 0.0
C479 C 0.50679 0.47558 0.64491 0.0
C480 C 0.53352 0.51636 0.68889 0.0
C481 C 0.55618 0.45311 0.53894 0.0
C482 C 0.54665 0.41828 0.54129 0.0
C483 C 0.57223 0.43071 0.60122 0.0
C484 C 0.57001 0.44969 0.58006 0.0
C485 C 0.56056 0.41506 0.58221 0.0
C486 C 0.54492 0.43724 0.51917 0.0
C487 C 0.55187 0.47321 0.51936 0.0
C488 C 0.56861 0.56602 0.45659 0.0
C489 C 0.57932 0.56773 0.50466 0.0
H490 H 0.54732 0.55711 0.3672 0.0
C491 C 0.51188 0.54443 0.57449 0.0
C492 C 0.48495 0.5011 0.53266 0.0
C493 C 0.46424 0.56873 0.66506 0.0
C494 C 0.48195 0.59795 0.69677 0.0
C495 C 0.45959 0.60032 0.6208 0.0
C496 C 0.45522 0.58017 0.62504 0.0
C497 C 0.47299 0.60919 0.65628 0.0
C498 C 0.47743 0.57781 0.70128 0.0
C499 C 0.46164 0.54713 0.66491 0.0
H500 H 0.58279 0.42819 0.63313 0.0
H501 H 0.57885 0.46166 0.59651 0.0
H502 H 0.56215 0.40058 0.60007 0.0
H503 H 0.53445 0.43975 0.48692 0.0
H504 H 0.45275 0.60903 0.58953 0.0
H505 H 0.4452 0.57341 0.5963 0.0
H506 H 0.47631 0.62481 0.65233 0.0
H507 H 0.48481 0.56916 0.73183 0.0
C508 C 0.02405 0.4528 0.70947 0.0
C509 C 0.03047 0.46263 0.80204 0.0
C510 C 0.02194 0.46628 0.75131 0.0
C511 C 0.0414 0.44536 0.80993 0.0
C512 C 0.03462 0.43518 0.71778 0.0
C513 C 0.04347 0.43166 0.76793 0.0
N514 N 0.01471 0.4563 0.66196 0.0
C515 C 0.01399 0.44199 0.62317 0.0
C516 C 0.03523 0.42119 0.67626 0.0
C517 C 0.02456 0.4245 0.62915 0.0
Gd518 Gd 0.02527 0.52665 0.56794 0.0
Gd519 Gd 0.99697 0.48603 0.65736 0.0
N520 N 0.0111 0.48279 0.74273 0.0
C521 C 0.02733 0.47624 0.84371 0.0
C522 C 0.00715 0.49561 0.78379 0.0
C523 C 0.01547 0.49271 0.83465 0.0
H524 H 0.99763 0.50808 0.77719 0.0
H525 H 0.0126 0.50309 0.86692 0.0
H526 H 0.04708 0.50526 0.46081 0.0
H527 H 0.00465 0.44353 0.58847 0.0
H528 H 0.04306 0.50435 0.36212 0.0
H529 H 0.03366 0.47396 0.88325 0.0
H530 H 0.0479 0.44224 0.8488 0.0
H531 H 1.00086 0.56629 0.61158 0.0
H532 H 0.04314 0.40745 0.68107 0.0
H533 H 0.02393 0.41337 0.59801 0.0
H534 H 0.99432 0.55391 0.32716 0.0
H535 H 0.05149 0.41813 0.77509 0.0
H536 H 0.9715 0.59249 0.47697 0.0
H537 H 0.97904 0.5921 0.5745 0.0
N538 N 0.00479 0.55188 0.5362 0.0
C539 C 1.00188 0.55257 0.48217 0.0
C540 C 0.9975 0.56634 0.56908 0.0
C541 C 0.98101 0.58114 0.49308 0.0
C542 C 0.98521 0.58096 0.54818 0.0
C543 C 0.98963 0.56702 0.45917 0.0
H544 H 0.97715 0.57799 0.38477 0.0
N545 N 0.02399 0.52592 0.47332 0.0
C546 C 0.01155 0.53898 0.44984 0.0
C547 C 0.02029 0.52647 0.36175 0.0
C548 C 0.00923 0.53952 0.39342 0.0
C549 C 0.03582 0.51418 0.44242 0.0
C550 C 0.03388 0.51396 0.38635 0.0
O551 O 0.02686 0.49845 0.6837 0.0
O552 O 0.04211 0.50111 0.60261 0.0
O553 O 0.05063 0.54114 0.53039 0.0
O554 O 0.04297 0.54774 0.613 0.0
O555 O 0.98961 0.51787 0.67748 0.0
O556 O 0.01829 0.53456 0.65442 0.0
O557 O 0.99142 0.52658 0.56707 0.0
O558 O 0.98301 0.49392 0.57811 0.0
O559 O 0.96843 0.49024 0.69594 0.0
O560 O 0.9784 0.46076 0.67706 0.0
O561 O 0.03064 0.49459 0.54339 0.0
O562 O 1.00221 0.47779 0.56931 0.0
C563 C 0.04313 0.49837 0.65469 0.0
C564 C 1.00192 0.53292 0.68301 0.0
C565 C 0.07692 0.54774 0.59182 0.0
C566 C 0.10984 0.53348 0.58106 0.0
C567 C 0.10323 0.55646 0.65417 0.0
C568 C 0.08368 0.55826 0.63704 0.0
C569 C 0.11629 0.54425 0.62628 0.0
C570 C 0.09008 0.53534 0.56402 0.0
C571 C 0.05609 0.54977 0.57492 0.0
C572 C 0.99642 0.55339 0.37039 0.0
C573 C 0.98666 0.56712 0.40319 0.0
H574 H 0.01894 0.52641 0.31827 0.0
C575 C 0.97887 0.51177 0.56144 0.0
C576 C 0.01782 0.4799 0.53754 0.0
C577 C 0.94433 0.46749 0.66567 0.0
C578 C 0.90904 0.47476 0.65899 0.0
C579 C 0.92427 0.45143 0.59714 0.0
C580 C 0.94258 0.45437 0.62196 0.0
C581 C 0.90756 0.46149 0.61549 0.0
C582 C 0.92758 0.47764 0.68359 0.0
C583 C 0.96354 0.47166 0.69157 0.0
H584 H 0.10831 0.5646 0.68913 0.0
H585 H 0.07379 0.56787 0.65918 0.0
H586 H 0.1314 0.54315 0.64033 0.0
H587 H 0.08504 0.52733 0.52874 0.0
H588 H 0.923 0.44127 0.56357 0.0
H589 H 0.95533 0.44652 0.60663 0.0
H590 H 0.8935 0.45865 0.59608 0.0
H591 H 0.92925 0.48826 0.716 0.0
H592 H 0.14769 0.02099 0.10237 0.0
H593 H 0.12169 0.01626 0.17054 0.0
H594 H 0.13475 0.07388 0.2363 0.0
H595 H 0.16113 0.0783 0.17054 0.0
H596 H 0.13036 0.04997 0.31489 0.0
H597 H 0.09259 0.06378 0.1572 0.0
H598 H 0.08123 0.05961 0.06352 0.0
H599 H 0.06109 1.00077 0.09954 0.0
H600 H 0.07258 0.00449 0.1933 0.0
H601 H 0.02197 0.04511 0.42711 0.0
H602 H 0.04473 0.052 0.3516 0.0
H603 H 0.08624 0.01029 0.41609 0.0
H604 H 0.06402 0.00349 0.49087 0.0
H605 H 0.06162 0.0293 0.27115 0.0
H606 H 0.13258 0.02762 0.40206 0.0
H607 H 0.14224 0.03459 0.496 0.0
H608 H 0.09401 0.07515 0.51202 0.0
H609 H 0.0843 0.06872 0.41792 0.0
C610 C 0.14509 0.03262 0.13147 0.0
C611 C 0.15649 0.05013 0.13017 0.0
C612 C 0.13003 0.02998 0.1702 0.0
C613 C 0.12596 0.04482 0.20846 0.0
C614 C 0.13742 0.0622 0.20734 0.0
C615 C 0.15244 0.0648 0.169 0.0
C616 C 0.11027 0.04218 0.25083 0.0
C617 C 0.11536 0.04544 0.30505 0.0
C618 C 0.09047 0.03668 0.23852 0.0
C619 C 0.08363 0.03435 0.18214 0.0
C620 C 0.08589 0.04989 0.14503 0.0
C621 C 0.0794 0.04762 0.09194 0.0
C622 C 0.07049 0.02991 0.07555 0.0
C623 C 0.06802 0.01446 0.11227 0.0
C624 C 0.0745 0.01665 0.1654 0.0
C625 C 0.03596 0.03745 0.4252 0.0
C626 C 0.04113 0.02389 0.46564 0.0
C627 C 0.04891 0.04132 0.38185 0.0
C628 C 0.06736 0.03187 0.37842 0.0
C629 C 0.07228 0.01803 0.41808 0.0
C630 C 0.05943 0.01415 0.46104 0.0
C631 C 0.08193 0.03671 0.3348 0.0
C632 C 0.07665 0.03385 0.28064 0.0
C633 C 0.10146 0.04304 0.34692 0.0
C634 C 0.10763 0.04755 0.40302 0.0
C635 C 0.12413 0.03814 0.42549 0.0
C636 C 0.1296 0.04198 0.4788 0.0
C637 C 0.11872 0.05527 0.50999 0.0
C638 C 0.10241 0.06483 0.48785 0.0
C639 C 0.09691 0.06109 0.43453 0.0
H640 H 0.12295 0.05817 0.55128 0.0
H641 H 0.06546 0.02819 0.03444 0.0
H642 H 0.46653 0.16853 0.20174 0.0
H643 H 0.4731 0.14355 0.27008 0.0
H644 H 0.53513 0.14494 0.22868 0.0
H645 H 0.52861 0.17027 0.1599 0.0
H646 H 0.51848 0.1056 0.24093 0.0
H647 H 0.52312 0.16615 0.33868 0.0
H648 H 0.51252 0.19912 0.36898 0.0
H649 H 0.46005 0.17378 0.43948 0.0
H650 H 0.47017 0.14068 0.4088 0.0
H651 H 0.53838 0.04326 0.46759 0.0
H652 H 0.53982 0.06998 0.4009 0.0
H653 H 0.48053 0.08718 0.44511 0.0
H654 H 0.47957 0.06117 0.51338 0.0
H655 H 0.50084 0.11861 0.43186 0.0
H656 H 0.49368 0.0591 0.32417 0.0
H657 H 0.50354 0.02593 0.29329 0.0
H658 H 0.55983 0.04903 0.24133 0.0
H659 H 0.55038 0.08229 0.27255 0.0
C660 C 0.48157 0.16343 0.20672 0.0
C661 C 0.49702 0.17132 0.17498 0.0
C662 C 0.48533 0.14922 0.24615 0.0
C663 C 0.50462 0.14238 0.25479 0.0
C664 C 0.52012 0.14999 0.22277 0.0
C665 C 0.51639 0.16451 0.18366 0.0
C666 C 0.50831 0.12739 0.29764 0.0
C667 C 0.51495 0.10853 0.28285 0.0
C668 C 0.50344 0.13106 0.35227 0.0
C669 C 0.49732 0.15094 0.37098 0.0
C670 C 0.50923 0.16762 0.36021 0.0
C671 C 0.50333 0.18634 0.37754 0.0
C672 C 0.4856 0.18855 0.40602 0.0
C673 C 0.47377 0.17205 0.41735 0.0
C674 C 0.47959 0.1533 0.40004 0.0
C675 C 0.52563 0.05268 0.46252 0.0
C676 C 0.50878 0.05008 0.49514 0.0
C677 C 0.52643 0.06795 0.42436 0.0
C678 C 0.51014 0.08052 0.41686 0.0
C679 C 0.49332 0.07779 0.44972 0.0
C680 C 0.4927 0.06284 0.48856 0.0
C681 C 0.51037 0.0965 0.37506 0.0
C682 C 0.50452 0.11563 0.39006 0.0
C683 C 0.51583 0.09302 0.32058 0.0
C684 C 0.52139 0.07312 0.30106 0.0
C685 C 0.50819 0.05707 0.30636 0.0
C686 C 0.51371 0.03826 0.28882 0.0
C687 C 0.53233 0.03536 0.26552 0.0
C688 C 0.54543 0.05129 0.2595 0.0
C689 C 0.54 0.07012 0.27703 0.0
H690 H 0.53658 0.02079 0.25201 0.0
H691 H 0.48106 0.20305 0.41941 0.0
H692 H 0.3767 0.47222 0.10279 0.0
H693 H 0.40323 0.4758 0.1689 0.0
H694 H 0.3631 0.505 0.27773 0.0
H695 H 0.33631 0.50101 0.2126 0.0
H696 H 0.40044 0.523 0.27517 0.0
H697 H 0.37312 0.45711 0.29607 0.0
H698 H 0.36312 0.42408 0.26353 0.0
H699 H 0.4228 0.41281 0.21273 0.0
H700 H 0.43315 0.44584 0.24471 0.0
H701 H 0.4468 0.51411 0.52529 0.0
H702 H 0.42406 0.51095 0.45016 0.0
H703 H 0.46757 0.47789 0.36104 0.0
H704 H 0.49057 0.48064 0.43716 0.0
H705 H 0.43104 0.46213 0.34723 0.0
H706 H 0.45953 0.52618 0.33256 0.0
H707 H 0.47036 0.55902 0.36438 0.0
H708 H 0.41008 0.5743 0.39921 0.0
H709 H 0.39889 0.54138 0.36856 0.0
C710 C 0.37342 0.47939 0.14077 0.0
C711 C 0.35416 0.48615 0.15218 0.0
C712 C 0.38869 0.48148 0.17855 0.0
C713 C 0.38516 0.49045 0.22871 0.0
C714 C 0.36624 0.49803 0.23935 0.0
C715 C 0.35091 0.49583 0.20174 0.0
C716 C 0.40091 0.49126 0.27087 0.0
C717 C 0.40699 0.50969 0.29127 0.0
C718 C 0.40999 0.47395 0.29082 0.0
C719 C 0.40386 0.454 0.27229 0.0
C720 C 0.38409 0.44762 0.27771 0.0
C721 C 0.37837 0.42888 0.25947 0.0
C722 C 0.39232 0.41635 0.23606 0.0
C723 C 0.41203 0.42251 0.23099 0.0
C724 C 0.41784 0.44122 0.24921 0.0
C725 C 0.45166 0.50605 0.49 0.0
C726 C 0.47074 0.49779 0.48746 0.0
C727 C 0.43857 0.50435 0.44673 0.0
C728 C 0.44417 0.49455 0.39926 0.0
C729 C 0.46292 0.48567 0.39703 0.0
C730 C 0.47609 0.48729 0.44063 0.0
C731 C 0.43037 0.49387 0.35224 0.0
C732 C 0.42464 0.47548 0.33089 0.0
C733 C 0.42178 0.51125 0.331 0.0
C734 C 0.42838 0.53122 0.34861 0.0
C735 C 0.44858 0.53649 0.34731 0.0
C736 C 0.45479 0.55512 0.36514 0.0
C737 C 0.44092 0.56873 0.38388 0.0
C738 C 0.42081 0.56373 0.3847 0.0
C739 C 0.41452 0.54509 0.36708 0.0
H740 H 0.44576 0.58315 0.39768 0.0
H741 H 0.38786 0.40186 0.22189 0.0
H742 H 0.01298 0.3507 0.14895 0.0
H743 H 0.00859 0.37779 0.21407 0.0
H744 H 0.06633 0.3662 0.2798 0.0
H745 H 0.07074 0.33929 0.21545 0.0
H746 H 0.03874 0.37032 0.35896 0.0
H747 H 0.05979 0.40535 0.20055 0.0
H748 H 0.05836 0.41568 0.10545 0.0
H749 H 1.00054 0.4399 0.13158 0.0
H750 H 1.00152 0.42945 0.22673 0.0
H751 H 0.05214 0.47197 0.48111 0.0
H752 H 0.05712 0.44714 0.41039 0.0
H753 H 0.99664 0.42758 0.42868 0.0
H754 H 0.9911 0.45315 0.49682 0.0
H755 H 0.02645 0.43987 0.30704 0.0
H756 H 0.0112 0.37365 0.44314 0.0
H757 H 0.01587 0.36224 0.53662 0.0
H758 H 0.06639 0.40066 0.55309 0.0
H759 H 0.06213 0.41209 0.45957 0.0
C760 C 0.02473 0.35398 0.17724 0.0
C761 C 0.04229 0.34292 0.17652 0.0
C762 C 0.02225 0.36953 0.21428 0.0
C763 C 0.03718 0.37416 0.25178 0.0
C764 C 0.05461 0.363 0.25131 0.0
C765 C 0.05717 0.34769 0.21408 0.0
C766 C 0.03467 0.39027 0.29247 0.0
C767 C 0.03601 0.3855 0.3474 0.0
C768 C 0.03129 0.41018 0.27778 0.0
C769 C 0.03063 0.41641 0.22059 0.0
C770 C 0.04669 0.4127 0.18589 0.0
C771 C 0.04598 0.41862 0.13201 0.0
C772 C 0.02935 0.42838 0.11244 0.0
C773 C 0.0134 0.4323 0.14676 0.0
C774 C 0.01403 0.42639 0.20068 0.0
C775 C 0.03973 0.46274 0.4693 0.0
C776 C 0.02114 0.4648 0.4945 0.0
C777 C 0.04268 0.44841 0.42917 0.0
C778 C 0.02727 0.43545 0.41444 0.0
C779 C 0.00875 0.43738 0.43954 0.0
C780 C 0.00566 0.45199 0.4787 0.0
C781 C 0.03045 0.4198 0.37315 0.0
C782 C 0.02908 0.42464 0.3183 0.0
C783 C 0.03404 0.39998 0.38775 0.0
C784 C 0.03615 0.39393 0.44472 0.0
C785 C 0.02324 0.37971 0.46685 0.0
C786 C 0.02587 0.37318 0.51973 0.0
C787 C 0.04146 0.38066 0.55069 0.0
C788 C 0.05434 0.39485 0.52902 0.0
C789 C 0.05175 0.40145 0.47619 0.0
H790 H 0.0435 0.37557 0.5916 0.0
H791 H 0.02883 0.43297 0.07071 0.0
H792 H 0.84199 0.01908 0.99334 0.0
H793 H 0.86864 0.01285 0.92902 0.0
H794 H 0.89897 0.97797 0.04764 0.0
H795 H 0.87208 0.98424 0.11276 0.0
H796 H 0.92419 0.00456 0.9966 0.0
H797 H 0.87783 0.95508 0.94377 0.0
H798 H 0.84525 0.94133 0.91845 0.0
H799 H 0.84387 0.97909 0.77974 0.0
H800 H 0.87632 0.99329 0.80465 0.0
H801 H 0.97333 0.96729 0.72692 0.0
H802 H 0.95133 0.96286 0.80542 0.0
H803 H 0.94782 0.02605 0.82402 0.0
H804 H 0.96925 0.03053 0.74505 0.0
H805 H 0.91159 0.97837 0.81295 0.0
H806 H 0.94664 0.0341 0.96426 0.0
H807 H 0.97967 0.0452 0.99449 0.0
H808 H 0.00474 0.99044 0.94138 0.0
H809 H 0.9719 0.97901 0.91069 0.0
C810 C 0.85429 0.01002 0.00583 0.0
C811 C 0.85494 1.00225 0.05838 0.0
C812 C 0.8695 0.00637 0.96881 0.0
C813 C 0.88585 0.99486 0.98317 0.0
C814 C 0.88652 0.98688 0.0355 0.0
C815 C 0.8711 0.99036 0.07259 0.0
C816 C 0.90235 0.99185 0.94365 0.0
C817 C 0.92144 0.99873 0.95657 0.0
C818 C 0.89897 0.98387 0.8916 0.0
C819 C 0.87946 0.97534 0.87632 0.0
C820 C 0.87052 0.96056 0.90809 0.0
C821 C 0.85208 0.95267 0.89377 0.0
C822 C 0.84248 0.95936 0.84757 0.0
C823 C 0.85132 0.97393 0.81553 0.0
C824 C 0.86975 0.98189 0.8297 0.0
C825 C 0.96802 0.9802 0.7482 0.0
C826 C 0.97291 0.99925 0.72971 0.0
C827 C 0.95542 0.97766 0.7929 0.0
C828 C 0.94793 0.99412 0.82077 0.0
C829 C 0.95347 0.01313 0.80347 0.0
C830 C 0.96565 0.01567 0.75818 0.0
C831 C 0.9332 0.99173 0.86535 0.0
C832 C 0.91439 0.98398 0.85319 0.0
C833 C 0.9369 0.99872 0.91821 0.0
C834 C 0.95682 0.00579 0.93467 0.0
C835 C 0.95921 0.02445 0.95887 0.0
C836 C 0.97791 0.0308 0.97606 0.0
C837 C 0.99433 0.01861 0.96934 0.0
C838 C 0.99206 0.99999 0.94575 0.0
C839 C 0.97342 0.99359 0.92829 0.0
H840 H 0.00878 0.02355 0.98266 0.0
H841 H 0.82821 0.95323 0.83655 0.0
H842 H 0.49226 0.84282 0.00426 0.0
H843 H 0.49697 0.86907 0.93852 0.0
H844 H 0.53915 0.89764 0.04347 0.0
H845 H 0.53404 0.87142 0.11076 0.0
H846 H 0.51387 0.92409 0.00366 0.0
H847 H 0.55393 0.8739 0.92693 0.0
H848 H 0.56239 0.84062 0.89413 0.0
H849 H 0.51664 0.84402 0.77491 0.0
H850 H 0.50769 0.87721 0.8075 0.0
H851 H 0.54601 0.98171 0.75648 0.0
H852 H 0.5482 0.95852 0.83264 0.0
H853 H 0.48721 0.94176 0.80845 0.0
H854 H 0.48457 0.96609 0.73638 0.0
H855 H 0.52666 0.91072 0.81017 0.0
H856 H 0.48392 0.95911 0.89885 0.0
H857 H 0.47449 0.99106 0.93852 0.0
H858 H 0.52595 0.99011 0.03949 0.0
H859 H 0.53615 0.95853 0.99863 0.0
C860 C 0.5025 0.85471 0.01373 0.0
C861 C 0.51259 0.85505 0.06333 0.0
C862 C 0.50537 0.86965 0.97558 0.0
C863 C 0.51859 0.88534 0.98544 0.0
C864 C 0.52891 0.88569 0.03467 0.0
C865 C 0.52606 0.87062 0.07304 0.0
C866 C 0.52079 0.90168 0.94512 0.0
C867 C 0.51708 0.92117 0.96155 0.0
C868 C 0.52469 0.89797 0.88981 0.0
C869 C 0.53004 0.878 0.86999 0.0
C870 C 0.54556 0.86749 0.894 0.0
C871 C 0.55047 0.84865 0.87539 0.0
C872 C 0.54003 0.84019 0.83255 0.0
C873 C 0.5247 0.85059 0.80813 0.0
C874 C 0.51972 0.86943 0.82662 0.0
C875 C 0.53299 0.97348 0.76854 0.0
C876 C 0.5152 0.97567 0.73991 0.0
C877 C 0.53426 0.96013 0.81175 0.0
C878 C 0.5178 0.9485 0.82661 0.0
C879 C 0.50005 0.95069 0.79815 0.0
C880 C 0.49866 0.9644 0.75621 0.0
C881 C 0.51937 0.93294 0.86877 0.0
C882 C 0.52381 0.91361 0.85249 0.0
C883 C 0.51617 0.93679 0.92418 0.0
C884 C 0.51107 0.95668 0.94463 0.0
C885 C 0.49358 0.966 0.92816 0.0
C886 C 0.488 0.98397 0.95124 0.0
C887 C 0.49959 0.99258 0.99157 0.0
C888 C 0.51696 0.9834 0.00831 0.0
C889 C 0.52274 0.96556 0.98487 0.0
H890 H 0.49512 0.00637 0.00987 0.0
H891 H 0.54386 0.82561 0.8182 0.0
H892 H 0.646 0.48921 0.09894 0.0
H893 H 0.62005 0.49223 0.0313 0.0
H894 H 0.64359 0.54892 0.98375 0.0
H895 H 0.67011 0.54577 0.05034 0.0
H896 H 0.6006 0.5467 0.98706 0.0
H897 H 0.65601 0.51193 0.91109 0.0
H898 H 0.6815 0.48607 0.90906 0.0
H899 H 0.63622 0.44118 0.90993 0.0
H900 H 0.61045 0.4668 0.91287 0.0
H901 H 0.55012 0.54975 0.73268 0.0
H902 H 0.57297 0.55185 0.8091 0.0
H903 H 0.56666 0.48895 0.83375 0.0
H904 H 0.54512 0.4868 0.75503 0.0
H905 H 0.60203 0.49603 0.84267 0.0
H906 H 0.54624 0.52975 0.92211 0.0
H907 H 0.52032 0.55507 0.93181 0.0
H908 H 0.56468 0.60082 0.92949 0.0
H909 H 0.59079 0.57586 0.91934 0.0
C910 C 0.6457 0.5024 0.07436 0.0
C911 C 0.66046 0.5171 0.07985 0.0
C912 C 0.63074 0.50413 0.03577 0.0
C913 C 0.62999 0.52067 1.00183 0.0
C914 C 0.64386 0.536 0.00941 0.0
C915 C 0.65899 0.5342 0.04781 0.0
C916 C 0.61561 0.52118 0.95622 0.0
C917 C 0.60097 0.53577 0.95506 0.0
C918 C 0.61584 0.5067 0.91505 0.0
C919 C 0.63131 0.49128 0.91275 0.0
C920 C 0.6515 0.49655 0.9113 0.0
C921 C 0.66599 0.48193 0.90992 0.0
C922 C 0.66049 0.46199 0.90951 0.0
C923 C 0.64047 0.45663 0.91033 0.0
C924 C 0.62591 0.47119 0.91183 0.0
C925 C 0.55358 0.53645 0.75484 0.0
C926 C 0.54597 0.51811 0.73788 0.0
C927 C 0.56652 0.53765 0.79897 0.0
C928 C 0.57156 0.52061 0.82835 0.0
C929 C 0.56331 0.50237 0.81202 0.0
C930 C 0.55092 0.50111 0.76699 0.0
C931 C 0.58634 0.52131 0.8736 0.0
C932 C 0.60133 0.50697 0.87457 0.0
C933 C 0.58621 0.53591 0.91488 0.0
C934 C 0.57044 0.55094 0.91921 0.0
C935 C 0.55042 0.54523 0.92297 0.0
C936 C 0.5357 0.55951 0.92864 0.0
C937 C 0.54082 0.57953 0.93073 0.0
C938 C 0.56068 0.58533 0.92745 0.0
C939 C 0.57545 0.57112 0.92182 0.0
H940 H 0.52938 0.59052 0.93522 0.0
H941 H 0.67174 0.4507 0.90843 0.0
H942 H 0.96433 0.6566 0.08174 0.0
H943 H 0.96106 0.63149 0.01029 0.0
H944 H 0.02024 0.64511 0.95544 0.0
H945 H 0.02357 0.66998 0.02622 0.0
H946 H 0.99366 0.64222 0.87121 0.0
H947 H 0.0117 0.60475 0.02958 0.0
H948 H 0.00726 0.59284 0.12272 0.0
H949 H 0.95072 0.56788 0.08089 0.0
H950 H 0.95471 0.57988 0.98761 0.0
H951 H 0.02625 0.56344 0.7131 0.0
H952 H 0.02116 0.58786 0.7835 0.0
H953 H 0.96447 0.5616 0.82163 0.0
H954 H 0.96961 0.53664 0.75105 0.0
H955 H 0.98418 0.57112 0.9129 0.0
H956 H 0.96717 0.60505 0.75289 0.0
H957 H 0.97126 0.61627 0.65907 0.0
H958 H 0.02408 0.6481 0.70265 0.0
H959 H 0.0205 0.6368 0.79663 0.0
C960 C 0.9766 0.65423 0.05433 0.0
C961 C 0.99429 0.66516 0.06015 0.0
C962 C 0.97475 0.63983 0.01364 0.0
C963 C 0.99046 0.63628 0.97751 0.0
C964 C 0.00792 0.64749 0.98271 0.0
C965 C 0.00986 0.66162 0.02358 0.0
C966 C 0.98903 0.6209 0.9343 0.0
C967 C 0.99167 0.62667 0.88039 0.0
C968 C 0.98579 0.60063 0.94584 0.0
C969 C 0.98339 0.59343 1.00184 0.0
C970 C 0.99824 0.59688 0.04038 0.0
C971 C 0.99582 0.59008 0.09316 0.0
C972 C 0.97869 0.57967 0.10776 0.0
C973 C 0.96396 0.57599 0.06956 0.0
C974 C 0.96629 0.58278 0.01673 0.0
C975 C 0.01261 0.56277 0.73609 0.0
C976 C 0.99829 0.54801 0.72587 0.0
C977 C 0.00969 0.57689 0.77648 0.0
C978 C 0.99228 0.57687 0.80761 0.0
C979 C 0.97801 0.56203 0.79812 0.0
C980 C 0.98094 0.54779 0.75755 0.0
C981 C 0.9893 0.5924 0.84987 0.0
C982 C 0.98584 0.58669 0.90353 0.0
C983 C 0.99159 0.61278 0.83809 0.0
C984 C 0.99363 0.61996 0.78181 0.0
C985 C 0.97973 0.61435 0.74244 0.0
C986 C 0.98195 0.62072 0.68921 0.0
C987 C 0.99794 0.63286 0.67488 0.0
C988 C 0.0117 0.63869 0.71381 0.0
C989 C 0.00957 0.63233 0.7671 0.0
H990 H 0.99965 0.63776 0.63364 0.0
H991 H 0.97685 0.57441 0.14864 0.0
H992 H 0.03276 0.23708 0.30973 0.0
H993 H 0.027 0.21736 0.39032 0.0
H994 H 0.07677 0.18063 0.34902 0.0
H995 H 0.08236 0.20023 0.26739 0.0
H996 H 0.04664 0.15871 0.36828 0.0
H997 H 0.07646 0.21108 0.46583 0.0
H998 H 0.08341 0.24527 0.49489 0.0
H999 H 0.02346 0.25107 0.55039 0.0
H1000 H 0.01604 0.21702 0.52102 0.0
H1001 H 0.01337 0.09829 0.57465 0.0
H1002 H 0.03729 0.1226 0.54098 0.0
H1003 H 0.99099 0.16595 0.53134 0.0
H1004 H 0.9671 0.14182 0.56592 0.0
H1005 H 0.02801 0.18316 0.54996 0.0
H1006 H 0.99751 0.13461 0.42868 0.0
H1007 H 0.98999 0.10047 0.39996 0.0
H1008 H 0.05216 0.0881 0.38962 0.0
H1009 H 0.06001 0.12211 0.41917 0.0
C1010 C 0.04274 0.22507 0.31839 0.0
C1011 C 0.05796 0.22015 0.28212 0.0
C1012 C 0.03953 0.21386 0.36479 0.0
C1013 C 0.05163 0.19765 0.3764 0.0
C1014 C 0.06727 0.19311 0.3411 0.0
C1015 C 0.07038 0.20422 0.29432 0.0
C1016 C 0.04622 0.18404 0.42114 0.0
C1017 C 0.0432 0.16403 0.40847 0.0
C1018 C 0.04137 0.19091 0.47354 0.0
C1019 C 0.04567 0.2115 0.49085 0.0
C1020 C 0.0647 0.2197 0.48381 0.0
C1021 C 0.06873 0.23905 0.50044 0.0
C1022 C 0.05388 0.25035 0.52438 0.0
C1023 C 0.03495 0.24231 0.53178 0.0
C1024 C 0.03083 0.22297 0.51521 0.0
C1025 C 0.00844 0.11318 0.56692 0.0
C1026 C 0.98831 0.11806 0.57174 0.0
C1027 C 0.02213 0.12707 0.54792 0.0
C1028 C 0.01579 0.1459 0.53247 0.0
C1029 C 0.99616 0.15146 0.54289 0.0
C1030 C 0.9825 0.13763 0.56247 0.0
C1031 C 0.0281 0.15826 0.49615 0.0
C1032 C 0.03223 0.17791 0.51028 0.0
C1033 C 0.03403 0.15115 0.44496 0.0
C1034 C 0.02933 0.1308 0.42659 0.0
C1035 C 0.00956 0.12457 0.42055 0.0
C1036 C 0.00524 0.10525 0.40416 0.0
C1037 C 0.02058 0.09213 0.39301 0.0
C1038 C 0.04029 0.09828 0.39833 0.0
C1039 C 0.04468 0.11757 0.41492 0.0
H1040 H 0.01718 0.07724 0.37998 0.0
H1041 H 0.05704 0.26532 0.53727 0.0
H1042 H 0.27146 0.05925 0.25693 0.0
H1043 H 0.29771 0.04647 0.31409 0.0
H1044 H 0.34092 0.06094 0.19163 0.0
H1045 H 0.31468 0.07269 0.13312 0.0
H1046 H 0.34281 0.02358 0.2168 0.0
H1047 H 0.34017 0.08387 0.31782 0.0
H1048 H 0.32438 0.11058 0.36967 0.0
H1049 H 0.30465 0.0687 0.48835 0.0
H1050 H 0.32009 0.04167 0.43682 0.0
H1051 H 0.42741 0.99307 0.35558 0.0
H1052 H 0.40231 0.01299 0.31178 0.0
H1053 H 0.35944 0.99511 0.43179 0.0
H1054 H 0.38486 0.97565 0.47732 0.0
H1055 H 0.35733 0.03457 0.41032 0.0
H1056 H 0.35881 0.97442 0.30779 0.0
H1057 H 0.37438 0.94756 0.25596 0.0
H1058 H 0.39587 0.98949 0.13963 0.0
H1059 H 0.38065 0.01665 0.19118 0.0
C1060 C 0.28659 0.05999 0.2425 0.0
C1061 C 0.29091 0.06668 0.19007 0.0
C1062 C 0.30163 0.05288 0.27551 0.0
C1063 C 0.32128 0.05268 0.25704 0.0
C1064 C 0.32583 0.06089 0.20657 0.0
C1065 C 0.3108 0.0678 0.17333 0.0
C1066 C 0.33654 0.04148 0.28664 0.0
C1067 C 0.34625 0.02629 0.25886 0.0
C1068 C 0.34043 0.04447 0.34206 0.0
C1069 C 0.33114 0.06071 0.37315 0.0
C1070 C 0.33232 0.08032 0.35473 0.0
C1071 C 0.32346 0.09553 0.38412 0.0
C1072 C 0.31348 0.09133 0.4322 0.0
C1073 C 0.31237 0.07192 0.45106 0.0
C1074 C 0.3212 0.05666 0.42181 0.0
C1075 C 0.41269 0.99346 0.37297 0.0
C1076 C 0.40813 0.98283 0.42007 0.0
C1077 C 0.39832 0.00474 0.34764 0.0
C1078 C 0.37898 0.00538 0.36827 0.0
C1079 C 0.3743 0.99478 0.41523 0.0
C1080 C 0.38875 0.98352 0.44084 0.0
C1081 C 0.36371 0.01697 0.3401 0.0
C1082 C 0.35392 0.03206 0.36818 0.0
C1083 C 0.35966 0.01392 0.28485 0.0
C1084 C 0.36873 0.99758 0.25362 0.0
C1085 C 0.36697 0.97793 0.27137 0.0
C1086 C 0.37572 0.96265 0.242 0.0
C1087 C 0.38614 0.96682 0.1946 0.0
C1088 C 0.38781 0.98628 0.17638 0.0
C1089 C 0.37911 1.00162 0.20563 0.0
H1090 H 0.3929 0.95497 0.17193 0.0
H1091 H 0.30663 0.10313 0.4549 0.0
H1092 H 0.43507 0.30653 0.2487 0.0
H1093 H 0.44354 0.32934 0.3221 0.0
H1094 H 0.4952 0.29466 0.35792 0.0
H1095 H 0.48643 0.27162 0.28626 0.0
H1096 H 0.48183 0.31022 0.44738 0.0
H1097 H 0.49638 0.33374 0.26724 0.0
H1098 H 0.48802 0.34307 0.17407 0.0
H1099 H 0.44809 0.38713 0.23354 0.0
H1100 H 0.45599 0.37785 0.32709 0.0
H1101 H 0.5569 0.38034 0.51628 0.0
H1102 H 0.5359 0.35495 0.47458 0.0
H1103 H 0.4863 0.39469 0.47859 0.0
H1104 H 0.50706 0.41996 0.52114 0.0
H1105 H 0.49328 0.37803 0.37764 0.0
H1106 H 0.48833 0.35837 0.56089 0.0
H1107 H 0.50327 0.35051 0.6481 0.0
H1108 H 0.52872 0.29798 0.58108 0.0
H1109 H 0.51539 0.30646 0.49183 0.0
C1110 C 0.44794 0.30359 0.27323 0.0
C1111 C 0.46021 0.28747 0.26162 0.0
C1112 C 0.45278 0.31659 0.31503 0.0
C1113 C 0.47025 0.31394 0.34467 0.0
C1114 C 0.48166 0.29702 0.33564 0.0
C1115 C 0.47664 0.28386 0.29458 0.0
C1116 C 0.47816 0.32982 0.37989 0.0
C1117 C 0.48433 0.32506 0.43226 0.0
C1118 C 0.48124 0.34924 0.36026 0.0
C1119 C 0.47657 0.35493 0.30408 0.0
C1120 C 0.48572 0.34533 0.2604 0.0
C1121 C 0.48107 0.35061 0.20755 0.0
C1122 C 0.46748 0.36564 0.19788 0.0
C1123 C 0.45856 0.37546 0.24108 0.0
C1124 C 0.46311 0.37019 0.29402 0.0
C1125 C 0.54144 0.3835 0.50922 0.0
C1126 C 0.53366 0.40216 0.52139 0.0
C1127 C 0.52949 0.36905 0.48526 0.0
C1128 C 0.5096 0.37303 0.47348 0.0
C1129 C 0.50166 0.39143 0.48708 0.0
C1130 C 0.51354 0.40582 0.5112 0.0
C1131 C 0.49733 0.35831 0.44458 0.0
C1132 C 0.49037 0.36333 0.39334 0.0
C1133 C 0.49399 0.33906 0.46491 0.0
C1134 C 0.50099 0.3332 0.51929 0.0
C1135 C 0.49727 0.34524 0.56442 0.0
C1136 C 0.50551 0.34068 0.61432 0.0
C1137 C 0.51677 0.32363 0.62041 0.0
C1138 C 0.51997 0.31118 0.57634 0.0
C1139 C 0.51222 0.31596 0.52589 0.0
H1140 H 0.52304 0.32008 0.65924 0.0
H1141 H 0.4639 0.36972 0.15694 0.0
H1142 H 0.24447 0.48387 0.2691 0.0
H1143 H 0.22232 0.49005 0.34468 0.0
H1144 H 0.18453 0.44193 0.29338 0.0
H1145 H 0.20671 0.43577 0.21681 0.0
H1146 H 0.16328 0.47329 0.31401 0.0
H1147 H 0.21244 0.43857 0.4098 0.0
H1148 H 0.24603 0.42953 0.43882 0.0
H1149 H 0.25457 0.48742 0.50616 0.0
H1150 H 0.22114 0.49692 0.47685 0.0
H1151 H 0.1027 0.49684 0.53755 0.0
H1152 H 0.1249 0.47713 0.482 0.0
H1153 H 0.17052 0.52165 0.49891 0.0
H1154 H 0.14855 0.54127 0.55555 0.0
H1155 H 0.18596 0.48506 0.50137 0.0
H1156 H 0.13864 0.52048 0.38883 0.0
H1157 H 0.10457 0.52881 0.36197 0.0
H1158 H 0.09234 0.46769 0.32844 0.0
H1159 H 0.1263 0.45898 0.35561 0.0
C1160 C 0.23169 0.4743 0.2745 0.0
C1161 C 0.22739 0.45926 0.23719 0.0
C1162 C 0.21903 0.47784 0.31783 0.0
C1163 C 0.20191 0.46625 0.32526 0.0
C1164 C 0.1977 0.451 0.28854 0.0
C1165 C 0.21033 0.44752 0.24482 0.0
C1166 C 0.18781 0.47122 0.36906 0.0
C1167 C 0.16814 0.4754 0.35525 0.0
C1168 C 0.19416 0.47414 0.42283 0.0
C1169 C 0.21428 0.46849 0.44083 0.0
C1170 C 0.22152 0.44942 0.43047 0.0
C1171 C 0.24054 0.44421 0.44703 0.0
C1172 C 0.25244 0.4579 0.47425 0.0
C1173 C 0.24533 0.47683 0.48507 0.0
C1174 C 0.22633 0.48213 0.46857 0.0
C1175 C 0.1175 0.50238 0.52995 0.0
C1176 C 0.12378 0.52072 0.55074 0.0
C1177 C 0.13018 0.49106 0.49817 0.0
C1178 C 0.14923 0.49809 0.48556 0.0
C1179 C 0.15586 0.51596 0.50816 0.0
C1180 C 0.14327 0.52716 0.54051 0.0
C1181 C 0.16178 0.48771 0.44571 0.0
C1182 C 0.18108 0.48253 0.46033 0.0
C1183 C 0.15509 0.48373 0.39277 0.0
C1184 C 0.13493 0.48907 0.37464 0.0
C1185 C 0.12866 0.50882 0.3758 0.0
C1186 C 0.10938 0.51361 0.36056 0.0
C1187 C 0.09629 0.49878 0.34363 0.0
C1188 C 0.10249 0.47915 0.3416 0.0
C1189 C 0.12176 0.47429 0.35684 0.0
H1190 H 0.08135 0.50251 0.33198 0.0
H1191 H 0.26716 0.45384 0.48702 0.0
H1192 H 0.98591 0.78141 0.97466 0.0
H1193 H 0.98381 0.80492 0.90014 0.0
H1194 H 0.0301 0.8403 0.97202 0.0
H1195 H 0.03263 0.81673 0.04591 0.0
H1196 H 0.99861 0.86282 0.92808 0.0
H1197 H 0.04209 0.80781 0.87938 0.0
H1198 H 0.04878 0.77241 0.86506 0.0
H1199 H 1.00178 0.7691 0.74924 0.0
H1200 H 0.99465 0.80444 0.76346 0.0
H1201 H 0.05329 0.91492 0.73957 0.0
H1202 H 0.04023 0.89279 0.80819 0.0
H1203 H 0.00416 0.86332 0.68896 0.0
H1204 H 0.01772 0.8851 0.61936 0.0
H1205 H 0.02145 0.83745 0.75087 0.0
H1206 H 0.9829 0.89395 0.78295 0.0
H1207 H 0.97614 0.92944 0.79456 0.0
H1208 H 0.01123 0.93051 0.93841 0.0
H1209 H 0.01851 0.8951 0.92724 0.0
C1210 C 0.99567 0.79418 0.97454 0.0
C1211 C 0.00959 0.7971 0.01589 0.0
C1212 C 0.99429 0.80767 0.93228 0.0
C1213 C 0.00683 0.82427 0.93071 0.0
C1214 C 0.02019 0.82764 0.97289 0.0
C1215 C 0.02163 0.81414 0.01502 0.0
C1216 C 0.0075 0.83718 0.88291 0.0
C1217 C 0.00356 0.85737 0.88922 0.0
C1218 C 0.01322 0.82981 0.8319 0.0
C1219 C 0.01769 0.80867 0.82293 0.0
C1220 C 0.0331 0.79949 0.85114 0.0
C1221 C 0.03699 0.77945 0.84301 0.0
C1222 C 0.02568 0.7685 0.80638 0.0
C1223 C 0.0105 0.77759 0.77767 0.0
C1224 C 0.00654 0.79762 0.78574 0.0
C1225 C 0.04237 0.90392 0.72793 0.0
C1226 C 0.03612 0.90217 0.6742 0.0
C1227 C 0.03486 0.89131 0.76729 0.0
C1228 C 0.02075 0.87682 0.75399 0.0
C1229 C 0.01482 0.87463 0.70018 0.0
C1230 C 0.02255 0.88712 0.66049 0.0
C1231 C 0.01328 0.86333 0.7963 0.0
C1232 C 0.01592 0.84298 0.78908 0.0
C1233 C 0.00609 0.87057 0.84618 0.0
C1234 C 1.00132 0.89181 0.85411 0.0
C1235 C 0.98925 0.90175 0.81698 0.0
C1236 C 0.98533 0.92187 0.82346 0.0
C1237 C 0.99326 0.93222 0.86716 0.0
C1238 C 0.00508 0.92246 0.90459 0.0
C1239 C 0.00908 0.90234 0.89826 0.0
H1240 H 0.99026 0.94781 0.872 0.0
H1241 H 0.0287 0.75299 0.80015 0.0
H1242 H 0.69584 0.00978 0.08895 0.0
H1243 H 0.66721 0.99917 0.03724 0.0
H1244 H 0.70487 0.98597 0.90123 0.0
H1245 H 0.73388 0.99719 0.953 0.0
H1246 H 0.6728 0.00682 0.87131 0.0
H1247 H 0.68236 0.94774 0.9638 0.0
H1248 H 0.69036 0.92552 0.03903 0.0
H1249 H 0.6393 0.94561 0.12611 0.0
H1250 H 0.63113 0.9682 0.05189 0.0
H1251 H 0.57149 0.99895 0.79261 0.0
H1252 H 0.60427 0.98502 0.80529 0.0
H1253 H 0.60275 1.00225 0.97255 0.0
H1254 H 0.57016 0.0162 0.96061 0.0
H1255 H 0.6204 0.96564 0.95701 0.0
H1256 H 0.62261 0.03334 0.87356 0.0
H1257 H 0.61421 0.05482 0.79678 0.0
H1258 H 0.64346 0.01501 0.68824 0.0
H1259 H 0.65191 0.99326 0.76448 0.0
C1260 C 0.69807 0.00475 0.04794 0.0
C1261 C 0.71705 0.00453 0.02477 0.0
C1262 C 0.68173 0.99836 0.01868 0.0
C1263 C 0.68396 0.99139 0.96575 0.0
C1264 C 0.70289 0.99108 0.94226 0.0
C1265 C 0.71938 0.99747 0.97179 0.0
C1266 C 0.66601 0.9861 0.93479 0.0
C1267 C 0.66156 0.99725 0.88889 0.0
C1268 C 0.65144 0.97335 0.95706 0.0
C1269 C 0.65611 0.95968 1.00203 0.0
C1270 C 0.67287 0.9475 0.99907 0.0
C1271 C 0.67744 0.93483 0.04157 0.0
C1272 C 0.66533 0.93414 0.08729 0.0
C1273 C 0.64863 0.94612 0.0906 0.0
C1274 C 0.644 0.95884 0.04822 0.0
C1275 C 0.57787 0.9995 0.83238 0.0
C1276 C 0.56788 0.00863 0.87565 0.0
C1277 C 0.59666 0.99145 0.83948 0.0
C1278 C 0.60591 0.99261 0.88981 0.0
C1279 C 0.59574 1.00096 0.93348 0.0
C1280 C 0.577 0.00894 0.9265 0.0
C1281 C 0.62697 0.98756 0.8968 0.0
C1282 C 0.63198 0.97439 0.93795 0.0
C1283 C 0.64211 0.99817 0.86968 0.0
C1284 C 0.63777 0.01167 0.82449 0.0
C1285 C 0.62726 0.02923 0.8333 0.0
C1286 C 0.62247 0.04141 0.78991 0.0
C1287 C 0.62826 0.03626 0.73765 0.0
C1288 C 0.63898 0.01898 0.72873 0.0
C1289 C 0.64379 0.00673 0.77199 0.0
H1290 H 0.62447 0.04567 0.70408 0.0
H1291 H 0.6689 0.92432 0.12017 0.0
H1292 H 0.50999 0.69489 0.07912 0.0
H1293 H 0.5183 0.66931 0.01465 0.0
H1294 H 0.55024 0.71203 0.9181 0.0
H1295 H 0.54051 0.73812 0.98043 0.0
H1296 H 0.52674 0.6944 0.85794 0.0
H1297 H 0.57353 0.67002 0.97857 0.0
H1298 H 0.58887 0.65946 0.06361 0.0
H1299 H 0.54594 0.61268 0.07889 0.0
H1300 H 0.53006 0.62317 0.99463 0.0
H1301 H 0.51637 0.61763 0.6734 0.0
H1302 H 0.53708 0.63648 0.73578 0.0
H1303 H 0.49965 0.61814 0.86785 0.0
H1304 H 0.47929 0.59863 0.80567 0.0
H1305 H 0.53907 0.62389 0.8983 0.0
H1306 H 0.48777 0.65898 0.79263 0.0
H1307 H 0.47405 0.66835 0.70431 0.0
H1308 H 0.52983 0.69455 0.65957 0.0
H1309 H 0.54391 0.6851 0.74743 0.0
C1310 C 0.51877 0.6989 0.04417 0.0
C1311 C 0.52415 0.71866 0.03435 0.0
C1312 C 0.52397 0.68411 0.00788 0.0
C1313 C 0.53514 0.68863 0.96163 0.0
C1314 C 0.54167 0.70815 0.95356 0.0
C1315 C 0.53614 0.72306 0.98941 0.0
C1316 C 0.53685 0.67375 0.918 0.0
C1317 C 0.53018 0.67911 0.86656 0.0
C1318 C 0.5413 0.65371 0.9287 0.0
C1319 C 0.55057 0.64744 0.9801 0.0
C1320 C 0.56724 0.65758 1.00025 0.0
C1321 C 0.57604 0.65159 0.04836 0.0
C1322 C 0.56838 0.63542 0.07665 0.0
C1323 C 0.55187 0.6252 0.05692 0.0
C1324 C 0.54298 0.63116 0.00892 0.0
C1325 C 0.51276 0.61737 0.71571 0.0
C1326 C 0.49596 0.6072 0.73468 0.0
C1327 C 0.5247 0.62798 0.75131 0.0
C1328 C 0.5196 0.62903 0.80597 0.0
C1329 C 0.50379 0.61753 0.82567 0.0
C1330 C 0.49207 0.60659 0.79019 0.0
C1331 C 0.5281 0.64461 0.84064 0.0
C1332 C 0.53659 0.63935 0.88986 0.0
C1333 C 0.52566 0.66478 0.8279 0.0
C1334 C 0.5169 0.67126 0.7763 0.0
C1335 C 0.49707 0.66678 0.76393 0.0
C1336 C 0.48925 0.67206 0.71395 0.0
C1337 C 0.50107 0.68203 0.67633 0.0
C1338 C 0.52069 0.68685 0.68876 0.0
C1339 C 0.5286 0.68154 0.73862 0.0
H1340 H 0.49503 0.68604 0.63756 0.0
H1341 H 0.57524 0.63079 0.11384 0.0
H1342 H 0.81356 0.52807 0.00388 0.0
H1343 H 0.8304 0.53143 0.9176 0.0
H1344 H 0.77402 0.53331 0.83633 0.0
H1345 H 0.75703 0.52939 0.92319 0.0
H1346 H 0.79623 0.50589 0.79405 0.0
H1347 H 0.80633 0.57313 0.82473 0.0
H1348 H 0.81337 0.60401 0.87397 0.0
H1349 H 0.8727 0.58478 0.90434 0.0
H1350 H 0.86597 0.55364 0.85613 0.0
H1351 H 0.87716 0.48908 0.60175 0.0
H1352 H 0.84835 0.50666 0.63793 0.0
H1353 H 0.87305 0.50351 0.79743 0.0
H1354 H 0.90067 0.48457 0.76337 0.0
H1355 H 0.85905 0.54271 0.76402 0.0
H1356 H 0.83987 0.47117 0.76699 0.0
H1357 H 0.83262 0.44003 0.7188 0.0
H1358 H 0.78961 0.4697 0.62163 0.0
H1359 H 0.7968 0.50105 0.66902 0.0
C1360 C 0.80475 0.52952 0.96772 0.0
C1361 C 0.78404 0.52823 0.97005 0.0
C1362 C 0.81436 0.53176 0.91842 0.0
C1363 C 0.80346 0.53289 0.87042 0.0
C1364 C 0.7827 0.53265 0.87289 0.0
C1365 C 0.77304 0.53044 0.92246 0.0
C1366 C 0.81405 0.53097 0.81837 0.0
C1367 C 0.80955 0.51447 0.78613 0.0
C1368 C 0.83132 0.54224 0.80739 0.0
C1369 C 0.83562 0.561 0.83654 0.0
C1370 C 0.82086 0.57542 0.84211 0.0
C1371 C 0.8248 0.59299 0.86986 0.0
C1372 C 0.84348 0.59637 0.89221 0.0
C1373 C 0.85825 0.58217 0.88686 0.0
C1374 C 0.85439 0.56457 0.85916 0.0
C1375 C 0.87635 0.49189 0.64465 0.0
C1376 C 0.89146 0.48554 0.6795 0.0
C1377 C 0.86005 0.50221 0.66494 0.0
C1378 C 0.85899 0.50682 0.71989 0.0
C1379 C 0.87395 0.50053 0.75457 0.0
C1380 C 0.88982 0.48977 0.73484 0.0
C1381 C 0.84182 0.51695 0.74359 0.0
C1382 C 0.84511 0.53496 0.77014 0.0
C1383 C 0.82338 0.50724 0.74904 0.0
C1384 C 0.81901 0.48842 0.72101 0.0
C1385 C 0.82897 0.47104 0.73511 0.0
C1386 C 0.82485 0.45337 0.70801 0.0
C1387 C 0.8107 0.4529 0.66706 0.0
C1388 C 0.8006 0.47009 0.65326 0.0
C1389 C 0.80468 0.48781 0.68021 0.0
H1390 H 0.80753 0.43921 0.64612 0.0
H1391 H 0.8465 0.60998 0.9137 0.0
H1392 H 0.064 0.2056 0.86745 0.0
H1393 H 0.05793 0.17748 0.80816 0.0
H1394 H 0.99675 0.17598 0.85808 0.0
H1395 H 1.00259 0.20443 0.91697 0.0
H1396 H 0.01129 0.14028 0.86269 0.0
H1397 H 0.01124 0.19069 0.73002 0.0
H1398 H 0.02256 0.21912 0.67583 0.0
H1399 H 0.07321 0.18641 0.62279 0.0
H1400 H 0.06242 0.15788 0.67742 0.0
H1401 H 0.98198 0.06644 0.6777 0.0
H1402 H 0.9855 0.09872 0.72032 0.0
H1403 H 0.04812 0.09862 0.68609 0.0
H1404 H 0.04448 0.06659 0.64078 0.0
H1405 H 0.03141 0.13551 0.67071 0.0
H1406 H 0.03062 0.08528 0.81047 0.0
H1407 H 0.0152 0.05608 0.85338 0.0
H1408 H 0.96254 0.08919 0.88542 0.0
H1409 H 0.97749 0.11853 0.8421 0.0
C1410 C 0.04909 0.19967 0.86509 0.0
C1411 C 0.03379 0.20751 0.89734 0.0
C1412 C 0.04566 0.18346 0.83101 0.0
C1413 C 0.02682 0.17455 0.82804 0.0
C1414 C 0.01144 0.18248 0.85954 0.0
C1415 C 0.01484 0.19876 0.89353 0.0
C1416 C 0.02355 0.15624 0.79507 0.0
C1417 C 0.01551 0.13943 0.82055 0.0
C1418 C 0.02922 0.1548 0.74 0.0
C1419 C 0.03617 0.17222 0.70866 0.0
C1420 C 0.02496 0.18964 0.70753 0.0
C1421 C 0.03125 0.20576 0.67655 0.0
C1422 C 0.04867 0.20462 0.64622 0.0
C1423 C 0.05979 0.18732 0.64659 0.0
C1424 C 0.05359 0.17117 0.67757 0.0
C1425 C 0.99654 0.07324 0.67894 0.0
C1426 C 0.01312 0.06354 0.65709 0.0
C1427 C 0.99852 0.09174 0.70356 0.0
C1428 C 0.01715 0.10097 0.70768 0.0
C1429 C 0.03361 0.09173 0.68404 0.0
C1430 C 0.03159 0.07325 0.65884 0.0
C1431 C 0.01952 0.11976 0.73874 0.0
C1432 C 0.02735 0.13653 0.71294 0.0
C1433 C 0.0135 0.12128 0.79329 0.0
C1434 C 0.00512 0.10407 0.82277 0.0
C1435 C 0.01577 0.08635 0.82678 0.0
C1436 C 0.00711 0.06976 0.85103 0.0
C1437 C 0.9879 0.07077 0.87182 0.0
C1438 C 0.97741 0.08844 0.86918 0.0
C1439 C 0.98597 0.10506 0.84489 0.0
H1440 H 0.98112 0.05785 0.8898 0.0
H1441 H 0.05352 0.2171 0.62229 0.0
H1442 H 0.31424 0.02937 0.94211 0.0
H1443 H 0.34598 0.02409 0.89748 0.0
H1444 H 0.31872 0.03336 0.74293 0.0
H1445 H 0.28661 0.03785 0.78719 0.0
H1446 H 0.34586 0.00454 0.73546 0.0
H1447 H 0.34497 0.0705 0.80647 0.0
H1448 H 0.34079 0.09596 0.87668 0.0
H1449 H 0.38748 0.07006 0.96916 0.0
H1450 H 0.39175 0.04427 0.8998 0.0
H1451 H 0.4375 0.02057 0.59574 0.0
H1452 H 0.40411 0.02354 0.63352 0.0
H1453 H 0.42828 0.02119 0.79412 0.0
H1454 H 0.46163 0.01936 0.7565 0.0
H1455 H 0.40177 0.04709 0.79501 0.0
H1456 H 0.40229 0.98044 0.7239 0.0
H1457 H 0.40656 0.95545 0.65236 0.0
H1458 H 0.36098 0.98281 0.55909 0.0
H1459 H 0.35653 0.00805 0.62981 0.0
C1460 C 0.31478 0.02985 0.89854 0.0
C1461 C 0.29767 0.03415 0.86853 0.0
C1462 C 0.33311 0.02707 0.873 0.0
C1463 C 0.33497 0.02871 0.81672 0.0
C1464 C 0.31781 0.03215 0.78638 0.0
C1465 C 0.29942 0.03489 0.81191 0.0
C1466 C 0.3549 0.02764 0.79001 0.0
C1467 C 0.35804 0.01398 0.74814 0.0
C1468 C 0.37098 0.03976 0.80665 0.0
C1469 C 0.36856 0.05536 0.84817 0.0
C1470 C 0.35426 0.07016 0.84194 0.0
C1471 C 0.35188 0.08466 0.88156 0.0
C1472 C 0.36383 0.0846 0.92741 0.0
C1473 C 0.37822 0.07007 0.93365 0.0
C1474 C 0.38064 0.05552 0.89418 0.0
C1475 C 0.43567 0.02072 0.63911 0.0
C1476 C 0.45228 0.01979 0.67302 0.0
C1477 C 0.4165 0.02224 0.66081 0.0
C1478 C 0.41339 0.02224 0.717 0.0
C1479 C 0.43006 0.02127 0.75073 0.0
C1480 C 0.44921 0.0202 0.7291 0.0
C1481 C 0.39299 0.02365 0.7411 0.0
C1482 C 0.38969 0.03752 0.78238 0.0
C1483 C 0.37683 0.01169 0.72389 0.0
C1484 C 0.37919 0.99622 0.68197 0.0
C1485 C 0.39323 0.98116 0.68805 0.0
C1486 C 0.3957 0.96697 0.64764 0.0
C1487 C 0.38413 0.96759 0.60114 0.0
C1488 C 0.36997 0.98235 0.59508 0.0
C1489 C 0.36744 0.99659 0.63535 0.0
H1490 H 0.3861 0.9566 0.56989 0.0
H1491 H 0.36196 0.09583 0.95805 0.0
H1492 H 0.45826 0.31542 0.89817 0.0
H1493 H 0.46259 0.34603 0.84763 0.0
H1494 H 0.52591 0.34183 0.86512 0.0
H1495 H 0.52163 0.31113 0.91657 0.0
H1496 H 0.51464 0.37928 0.87788 0.0
H1497 H 0.50083 0.32807 0.75165 0.0
H1498 H 0.48265 0.30071 0.70848 0.0
H1499 H 0.43391 0.33921 0.67642 0.0
H1500 H 0.45158 0.36676 0.72062 0.0
H1501 H 0.53691 0.45281 0.68394 0.0
H1502 H 0.53455 0.42106 0.72992 0.0
H1503 H 0.47111 0.42125 0.71057 0.0
H1504 H 0.47368 0.45231 0.66065 0.0
H1505 H 0.48376 0.38531 0.69768 0.0
H1506 H 0.49595 0.43538 0.83268 0.0
H1507 H 0.51465 0.46326 0.87237 0.0
H1508 H 0.5662 0.42698 0.88535 0.0
H1509 H 0.54793 0.39893 0.84519 0.0
C1510 C 0.47316 0.32087 0.89096 0.0
C1511 C 0.48962 0.31054 0.91083 0.0
C1512 C 0.47561 0.33848 0.86209 0.0
C1513 C 0.4946 0.34619 0.85147 0.0
C1514 C 0.51108 0.33623 0.87249 0.0
C1515 C 0.50862 0.31863 0.90189 0.0
C1516 C 0.49719 0.36437 0.81759 0.0
C1517 C 0.50806 0.38047 0.83823 0.0
C1518 C 0.48833 0.3662 0.76604 0.0
C1519 C 0.47749 0.3495 0.7402 0.0
C1520 C 0.48609 0.33067 0.73634 0.0
C1521 C 0.47589 0.31512 0.71145 0.0
C1522 C 0.45711 0.3182 0.68987 0.0
C1523 C 0.44846 0.33684 0.6932 0.0
C1524 C 0.45858 0.35244 0.71817 0.0
C1525 C 0.52242 0.44609 0.68912 0.0
C1526 C 0.50531 0.45561 0.67029 0.0
C1527 C 0.52108 0.42792 0.71596 0.0
C1528 C 0.50257 0.41891 0.72569 0.0
C1529 C 0.48558 0.42793 0.70463 0.0
C1530 C 0.48698 0.44593 0.67682 0.0
C1531 C 0.50088 0.40032 0.7584 0.0
C1532 C 0.49024 0.38412 0.73745 0.0
C1533 C 0.50983 0.39841 0.80978 0.0
C1534 C 0.52061 0.41509 0.83556 0.0
C1535 C 0.51129 0.43337 0.84387 0.0
C1536 C 0.52181 0.4492 0.86637 0.0
C1537 C 0.5416 0.44692 0.88117 0.0
C1538 C 0.55088 0.42874 0.8738 0.0
C1539 C 0.54044 0.41285 0.85125 0.0
H1540 H 0.54972 0.45922 0.89844 0.0
H1541 H 0.44926 0.30616 0.67044 0.0
H1542 H 0.22689 0.48822 0.81119 0.0
H1543 H 0.19528 0.49135 0.76397 0.0
H1544 H 0.16515 0.4982 0.91618 0.0
H1545 H 0.19649 0.49457 0.96359 0.0
H1546 H 0.14711 0.47096 0.85523 0.0
H1547 H 0.17289 0.53673 0.82597 0.0
H1548 H 0.1965 0.56206 0.79373 0.0
H1549 H 0.18978 0.54095 0.63153 0.0
H1550 H 0.16643 0.51525 0.66286 0.0
H1551 H 0.05182 0.49966 0.76279 0.0
H1552 H 0.08429 0.4974 0.80547 0.0
H1553 H 0.11182 0.49202 0.64923 0.0
H1554 H 0.07921 0.49376 0.60651 0.0
H1555 H 0.13162 0.51807 0.70918 0.0
H1556 H 0.11 0.45206 0.73143 0.0
H1557 H 0.08968 0.42315 0.75693 0.0
H1558 H 0.09022 0.44198 0.92221 0.0
H1559 H 0.11061 0.47103 0.89765 0.0
C1560 C 0.21356 0.49053 0.83466 0.0
C1561 C 0.21437 0.49115 0.8914 0.0
C1562 C 0.19547 0.49248 0.8075 0.0
C1563 C 0.17773 0.49512 0.83635 0.0
C1564 C 0.17857 0.49622 0.89285 0.0
C1565 C 0.19662 0.49433 0.91998 0.0
C1566 C 0.15813 0.49544 0.80838 0.0
C1567 C 0.14364 0.48155 0.82396 0.0
C1568 C 0.15379 0.50858 0.76563 0.0
C1569 C 0.16813 0.52384 0.74697 0.0
C1570 C 0.17665 0.5373 0.78354 0.0
C1571 C 0.18995 0.55177 0.76538 0.0
C1572 C 0.19472 0.55306 0.71066 0.0
C1573 C 0.18615 0.53989 0.67394 0.0
C1574 C 0.17289 0.52536 0.69189 0.0
C1575 C 0.06471 0.49766 0.73749 0.0
C1576 C 0.06285 0.49676 0.68109 0.0
C1577 C 0.08334 0.49641 0.762 0.0
C1578 C 0.10061 0.4944 0.7307 0.0
C1579 C 0.09878 0.49359 0.67436 0.0
C1580 C 0.08013 0.49462 0.64992 0.0
C1581 C 0.12057 0.49385 0.75664 0.0
C1582 C 0.1351 0.50761 0.74063 0.0
C1583 C 0.12514 0.48035 0.79816 0.0
C1584 C 0.11167 0.46381 0.81262 0.0
C1585 C 0.10556 0.45018 0.7731 0.0
C1586 C 0.09417 0.43369 0.78745 0.0
C1587 C 0.08875 0.43068 0.8412 0.0
C1588 C 0.09452 0.44428 0.88063 0.0
C1589 C 0.10602 0.46075 0.86654 0.0
H1590 H 0.07998 0.41786 0.85227 0.0
H1591 H 0.20499 0.5643 0.69669 0.0
H1592 H 0.9826 0.81651 0.27573 0.0
H1593 H 0.98273 0.84895 0.3188 0.0
H1594 H 0.99627 0.82206 0.47142 0.0
H1595 H 0.99569 0.78936 0.42877 0.0
H1596 H 0.96982 0.85256 0.48353 0.0
H1597 H 0.03269 0.84264 0.39772 0.0
H1598 H 0.05506 0.83451 0.32228 0.0
H1599 H 0.03236 0.88321 0.23141 0.0
H1600 H 0.00963 0.89145 0.30604 0.0
H1601 H 1.00121 0.941 0.61231 0.0
H1602 H 0.99901 0.90782 0.57483 0.0
H1603 H 0.99502 0.93202 0.41471 0.0
H1604 H 0.99838 0.96529 0.45195 0.0
H1605 H 0.01702 0.90202 0.40888 0.0
H1606 H 0.95302 0.91131 0.49372 0.0
H1607 H 0.93151 0.91995 0.57067 0.0
H1608 H 0.95674 0.87314 0.66391 0.0
H1609 H 0.9785 0.86432 0.58767 0.0
C1610 C 0.98513 0.81735 0.31873 0.0
C1611 C 0.98915 0.80018 0.34863 0.0
C1612 C 0.98543 0.83601 0.34325 0.0
C1613 C 0.98983 0.83807 0.39829 0.0
C1614 C 0.99294 0.82092 0.42887 0.0
C1615 C 0.99271 0.80222 0.4043 0.0
C1616 C 0.9921 0.85813 0.42308 0.0
C1617 C 0.98026 0.86332 0.46748 0.0
C1618 C 0.00555 0.87235 0.402 0.0
C1619 C 0.01933 0.86754 0.35726 0.0
C1620 C 0.03237 0.85153 0.36149 0.0
C1621 C 0.04512 0.84691 0.3189 0.0
C1622 C 0.04509 0.85831 0.27203 0.0
C1623 C 0.03235 0.87438 0.26772 0.0
C1624 C 0.01954 0.87904 0.31016 0.0
C1625 C 0.99994 0.93929 0.56906 0.0
C1626 C 0.99955 0.95591 0.53523 0.0
C1627 C 0.99856 0.9202 0.54759 0.0
C1628 C 0.99644 0.91715 0.49181 0.0
C1629 C 0.99649 0.93377 0.45789 0.0
C1630 C 0.99816 0.95288 0.47931 0.0
C1631 C 0.99441 0.89673 0.46871 0.0
C1632 C 0.00643 0.89139 0.42476 0.0
C1633 C 0.98107 0.88242 0.49011 0.0
C1634 C 0.96738 0.88717 0.53505 0.0
C1635 C 0.95393 0.90284 0.5306 0.0
C1636 C 0.94173 0.90779 0.5741 0.0
C1637 C 0.94275 0.89709 0.6221 0.0
C1638 C 0.95592 0.88137 0.62665 0.0
C1639 C 0.96815 0.87635 0.58327 0.0
H1640 H 0.93333 0.901 0.65579 0.0
H1641 H 0.05498 0.85471 0.23909 0.0
H1642 H 0.7313 0.01086 0.4257 0.0
H1643 H 0.69984 0.01081 0.47529 0.0
H1644 H 0.66865 0.9966 0.32888 0.0
H1645 H 0.69989 0.99701 0.27899 0.0
H1646 H 0.65053 0.02609 0.38205 0.0
H1647 H 0.67608 0.96209 0.42861 0.0
H1648 H 0.70063 0.93888 0.46478 0.0
H1649 H 0.69756 0.96747 0.61912 0.0
H1650 H 0.67318 0.99103 0.58364 0.0
H1651 H 0.55579 1.00314 0.47828 0.0
H1652 H 0.58857 1.0018 0.4385 0.0
H1653 H 0.61476 0.00731 0.59617 0.0
H1654 H 0.58163 0.00635 0.63701 0.0
H1655 H 0.63659 0.98435 0.54193 0.0
H1656 H 0.60944 0.0475 0.49711 0.0
H1657 H 0.58444 0.07028 0.46084 0.0
H1658 H 0.59067 0.0442 0.30413 0.0
H1659 H 0.61542 0.02104 0.33938 0.0
C1660 C 0.71777 0.00765 0.40402 0.0
C1661 C 0.71829 0.00383 0.34816 0.0
C1662 C 0.69974 0.00752 0.43258 0.0
C1663 C 0.68173 0.00362 0.40608 0.0
C1664 C 0.68225 0.99964 0.35048 0.0
C1665 C 0.70024 0.99966 0.32201 0.0
C1666 C 0.66229 0.00418 0.43555 0.0
C1667 C 0.64743 0.01682 0.41672 0.0
C1668 C 0.65832 0.9926 0.48195 0.0
C1669 C 0.67299 0.97847 0.50327 0.0
C1670 C 0.68078 0.96354 0.47012 0.0
C1671 C 0.69463 0.9503 0.49053 0.0
C1672 C 0.7007 0.95174 0.54416 0.0
C1673 C 0.69288 0.9664 0.57755 0.0
C1674 C 0.67903 0.97969 0.55732 0.0
C1675 C 0.56845 0.00378 0.50492 0.0
C1676 C 0.56587 0.0052 0.56113 0.0
C1677 C 0.58735 0.00337 0.48179 0.0
C1678 C 0.60441 0.00526 0.51375 0.0
C1679 C 0.60196 0.00615 0.57015 0.0
C1680 C 0.58294 0.00589 0.59356 0.0
C1681 C 0.62462 0.0061 0.48805 0.0
C1682 C 0.63967 0.99379 0.5076 0.0
C1683 C 0.62883 0.01814 0.44246 0.0
C1684 C 0.61426 0.03244 0.421 0.0
C1685 C 0.60544 0.04657 0.45494 0.0
C1686 C 0.59128 0.05953 0.4346 0.0
C1687 C 0.58596 0.05866 0.38031 0.0
C1688 C 0.5948 0.04485 0.34618 0.0
C1689 C 0.60891 0.03182 0.3663 0.0
H1690 H 0.57504 0.06873 0.36463 0.0
H1691 H 0.71141 0.94147 0.55989 0.0
H1692 H 0.52337 0.70278 0.28453 0.0
H1693 H 0.5231 0.6705 0.32877 0.0
H1694 H 0.50437 0.69774 0.47729 0.0
H1695 H 0.50451 0.73019 0.43306 0.0
H1696 H 0.53475 0.6688 0.49009 0.0
H1697 H 0.47105 0.67519 0.40594 0.0
H1698 H 0.44842 0.68132 0.33016 0.0
H1699 H 0.47327 0.63243 0.24348 0.0
H1700 H 0.49627 0.62621 0.31844 0.0
H1701 H 0.51118 0.58019 0.62714 0.0
H1702 H 0.50955 0.61326 0.58696 0.0
H1703 H 0.51066 0.58754 0.42842 0.0
H1704 H 0.50924 0.55468 0.46809 0.0
H1705 H 0.4892 0.6167 0.42213 0.0
H1706 H 0.55298 0.60949 0.50474 0.0
H1707 H 0.57666 0.60367 0.57838 0.0
H1708 H 0.55453 0.65418 0.66339 0.0
H1709 H 0.53011 0.6598 0.59164 0.0
C1710 C 0.51951 0.702 0.32687 0.0
C1711 C 0.51405 0.71916 0.35526 0.0
C1712 C 0.51919 0.68347 0.352 0.0
C1713 C 0.51355 0.68161 0.40629 0.0
C1714 C 0.50873 0.69877 0.43534 0.0
C1715 C 0.50877 0.71731 0.40998 0.0
C1716 C 0.51224 0.66171 0.43216 0.0
C1717 C 0.52465 0.65744 0.47575 0.0
C1718 C 0.49942 0.6467 0.41256 0.0
C1719 C 0.48553 0.65037 0.36758 0.0
C1720 C 0.47181 0.66586 0.37053 0.0
C1721 C 0.4589 0.66933 0.32775 0.0
C1722 C 0.45944 0.65731 0.28197 0.0
C1723 C 0.47288 0.64175 0.27893 0.0
C1724 C 0.48585 0.63824 0.32156 0.0
C1725 C 0.51073 0.58158 0.58377 0.0
C1726 C 0.51081 0.56467 0.5509 0.0
C1727 C 0.51026 0.60053 0.56088 0.0
C1728 C 0.51093 0.60316 0.50471 0.0
C1729 C 0.51047 0.58621 0.4719 0.0
C1730 C 0.51003 0.56728 0.49471 0.0
C1731 C 0.51197 0.62345 0.48019 0.0
C1732 C 0.49944 0.62789 0.43672 0.0
C1733 C 0.52494 0.63853 0.49951 0.0
C1734 C 0.53954 0.63496 0.54297 0.0
C1735 C 0.55298 0.61922 0.53944 0.0
C1736 C 0.56649 0.6159 0.58095 0.0
C1737 C 0.56699 0.62845 0.62568 0.0
C1738 C 0.55399 0.64435 0.629 0.0
C1739 C 0.54026 0.64756 0.58804 0.0
H1740 H 0.57752 0.62591 0.65765 0.0
H1741 H 0.44943 0.66002 0.2489 0.0
H1742 H 0.8233 0.53525 0.26353 0.0
H1743 H 0.85523 0.53587 0.30898 0.0
H1744 H 0.82756 0.51451 0.45461 0.0
H1745 H 0.79528 0.51465 0.41002 0.0
H1746 H 0.85545 0.54133 0.4789 0.0
H1747 H 0.85274 0.48331 0.36788 0.0
H1748 H 0.8481 0.46453 0.28358 0.0
H1749 H 0.89601 0.4968 0.20995 0.0
H1750 H 0.90075 0.51596 0.29363 0.0
H1751 H 0.94275 0.50317 0.60376 0.0
H1752 H 0.91014 0.50694 0.56179 0.0
H1753 H 0.93817 0.53152 0.42031 0.0
H1754 H 0.97069 0.52711 0.46195 0.0
H1755 H 0.91023 0.50397 0.39398 0.0
H1756 H 0.91482 0.55977 0.51139 0.0
H1757 H 0.91945 0.57701 0.59795 0.0
H1758 H 0.86755 0.54834 0.6618 0.0
H1759 H 0.86281 0.53065 0.5758 0.0
C1760 C 0.8238 0.5311 0.30559 0.0
C1761 C 0.8065 0.52484 0.3328 0.0
C1762 C 0.84224 0.53121 0.33143 0.0
C1763 C 0.84401 0.52486 0.3851 0.0
C1764 C 0.8267 0.51935 0.41311 0.0
C1765 C 0.80821 0.51929 0.38732 0.0
C1766 C 0.86395 0.52336 0.41122 0.0
C1767 C 0.86735 0.53296 0.46065 0.0
C1768 C 0.87972 0.51277 0.3871 0.0
C1769 C 0.87697 0.5012 0.33683 0.0
C1770 C 0.86219 0.4865 0.33358 0.0
C1771 C 0.85956 0.47577 0.28593 0.0
C1772 C 0.87172 0.47951 0.24139 0.0
C1773 C 0.88658 0.49394 0.24446 0.0
C1774 C 0.88926 0.50473 0.292 0.0
C1775 C 0.94187 0.50933 0.56374 0.0
C1776 C 0.95923 0.51511 0.53651 0.0
C1777 C 0.92324 0.51164 0.53987 0.0
C1778 C 0.92156 0.51974 0.48794 0.0
C1779 C 0.93898 0.52538 0.46051 0.0
C1780 C 0.95759 0.52315 0.48463 0.0
C1781 C 0.90175 0.5219 0.46178 0.0
C1782 C 0.89837 0.5124 0.41227 0.0
C1783 C 0.88601 0.53248 0.48611 0.0
C1784 C 0.8887 0.54349 0.53747 0.0
C1785 C 0.90453 0.55692 0.54407 0.0
C1786 C 0.90715 0.56683 0.59302 0.0
C1787 C 0.8939 0.56366 0.63552 0.0
C1788 C 0.8779 0.55067 0.62901 0.0
C1789 C 0.87525 0.54069 0.58019 0.0
H1790 H 0.89595 0.57134 0.67339 0.0
H1791 H 0.86966 0.47119 0.20453 0.0
loop_
_geom_bond_atom_site_label_1
_geom_bond_atom_site_label_2
_geom_bond_distance
_geom_bond_site_symmetry_2
_ccdc_geom_bond_type
P0 O11 1.490 . S
P0 C14 1.812 . S
P0 C20 1.803 . S
P0 C26 1.819 . S
H1 C15 0.941 . S
H2 C16 0.939 . S
H3 C18 0.940 . S
H4 C19 0.940 . S
H5 C21 0.939 . S
H6 C22 0.942 . S
H7 C24 0.940 . S
H8 C25 0.939 . S
H9 C27 0.941 . S
H10 C31 0.939 . S
O11 P0 1.490 . S
H12 C28 0.939 . S
H13 C30 0.940 . S
C14 P0 1.812 . S
C14 C15 1.389 . S
C14 C19 1.391 . S
C15 H1 0.941 . S
C15 C14 1.389 . S
C15 C16 1.397 . S
C16 H2 0.939 . S
C16 C15 1.397 . S
C16 C17 1.378 . S
C17 C16 1.378 . S
C17 C18 1.378 . S
C18 H3 0.940 . S
C18 C17 1.378 . S
C18 C19 1.396 . S
C19 H4 0.940 . S
C19 C14 1.391 . S
C19 C18 1.396 . S
C20 P0 1.803 . S
C20 C21 1.378 . S
C20 C25 1.400 . S
C21 H5 0.939 . S
C21 C20 1.378 . S
C21 C22 1.361 . S
C22 H6 0.942 . S
C22 C21 1.361 . S
C22 C23 1.369 . S
C23 C22 1.369 . S
C23 C24 1.404 . S
C24 H7 0.940 . S
C24 C23 1.404 . S
C24 C25 1.389 . S
C25 H8 0.939 . S
C25 C20 1.400 . S
C25 C24 1.389 . S
C26 P0 1.819 . S
C26 C27 1.391 . S
C26 C31 1.391 . S
C27 H9 0.941 . S
C27 C26 1.391 . S
C27 C28 1.396 . S
C28 H12 0.939 . S
C28 C27 1.396 . S
C28 C29 1.397 . S
C29 C28 1.397 . S
C29 C30 1.385 . S
C30 H13 0.940 . S
C30 C29 1.385 . S
C30 C31 1.388 . S
C31 H10 0.939 . S
C31 C26 1.391 . S
C31 C30 1.388 . S
P32 O43 1.490 1_655 S
P32 C46 1.812 . S
P32 C52 1.803 . S
P32 C58 1.819 . S
H33 C47 0.941 1_455 S
H34 C48 0.939 . S
H35 C50 0.940 . S
H36 C51 0.940 . S
H37 C53 0.939 1_455 S
H38 C54 0.942 . S
H39 C56 0.940 . S
H40 C57 0.939 . S
H41 C59 0.941 1_455 S
H42 C63 0.939 . S
O43 P32 1.490 1_455 S
H44 C60 0.939 . S
H45 C62 0.940 . S
C46 P32 1.812 . S
C46 C47 1.389 . S
C46 C51 1.391 . S
C47 H33 0.941 1_655 S
C47 C46 1.389 . S
C47 C48 1.397 . S
C48 H34 0.939 . S
C48 C47 1.397 . S
C48 C49 1.378 . S
C49 C48 1.378 . S
C49 C50 1.378 . S
C50 H35 0.940 . S
C50 C49 1.378 . S
C50 C51 1.396 . S
C51 H36 0.940 . S
C51 C46 1.391 . S
C51 C50 1.396 . S
C52 P32 1.803 . S
C52 C53 1.378 . S
C52 C57 1.400 . S
C53 H37 0.939 1_655 S
C53 C52 1.378 . S
C53 C54 1.361 . S
C54 H38 0.942 . S
C54 C53 1.361 . S
C54 C55 1.369 . S
C55 C54 1.369 . S
C55 C56 1.404 . S
C56 H39 0.940 . S
C56 C55 1.404 . S
C56 C57 1.389 . S
C57 H40 0.939 . S
C57 C52 1.400 . S
C57 C56 1.389 . S
C58 P32 1.819 . S
C58 C59 1.391 . S
C58 C63 1.391 . S
C59 H41 0.941 1_655 S
C59 C58 1.391 . S
C59 C60 1.396 . S
C60 H44 0.939 . S
C60 C59 1.396 . S
C60 C61 1.397 . S
C61 C60 1.397 . S
C61 C62 1.385 . S
C62 H45 0.940 . S
C62 C61 1.385 . S
C62 C63 1.388 . S
C63 H42 0.939 . S
C63 C58 1.391 . S
C63 C62 1.388 . S
P64 O75 1.490 1_565 S
P64 C78 1.812 . S
P64 C84 1.803 . S
P64 C90 1.819 . S
H65 C79 0.941 1_545 S
H66 C80 0.939 . S
H67 C82 0.940 . S
H68 C83 0.940 . S
H69 C85 0.939 1_545 S
H70 C86 0.942 . S
H71 C88 0.940 . S
H72 C89 0.939 . S
H73 C91 0.938 1_545 S
H74 C95 0.939 . S
O75 P64 1.490 1_545 S
H76 C92 0.939 . S
H77 C94 0.940 . S
C78 P64 1.812 . S
C78 C79 1.389 . S
C78 C83 1.391 . S
C79 H65 0.941 1_565 S
C79 C78 1.389 . S
C79 C80 1.397 . S
C80 H66 0.939 . S
C80 C79 1.397 . S
C80 C81 1.378 . S
C81 C80 1.378 . S
C81 C82 1.378 . S
C82 H67 0.940 . S
C82 C81 1.378 . S
C82 C83 1.396 . S
C83 H68 0.940 . S
C83 C78 1.391 . S
C83 C82 1.396 . S
C84 P64 1.803 . S
C84 C85 1.378 . S
C84 C89 1.400 . S
C85 H69 0.939 1_565 S
C85 C84 1.378 . S
C85 C86 1.361 . S
C86 H70 0.942 . S
C86 C85 1.361 . S
C86 C87 1.369 . S
C87 C86 1.369 . S
C87 C88 1.404 . S
C88 H71 0.940 . S
C88 C87 1.404 . S
C88 C89 1.389 . S
C89 H72 0.939 . S
C89 C84 1.400 . S
C89 C88 1.389 . S
C90 P64 1.819 . S
C90 C91 1.391 . S
C90 C95 1.391 . S
C91 H73 0.938 1_565 S
C91 C90 1.391 . S
C91 C92 1.396 . S
C92 H76 0.939 . S
C92 C91 1.396 . S
C92 C93 1.397 . S
C93 C92 1.397 . S
C93 C94 1.385 . S
C94 H77 0.940 . S
C94 C93 1.385 . S
C94 C95 1.388 . S
C95 H74 0.939 . S
C95 C90 1.391 . S
C95 C94 1.388 . S
P96 O107 1.490 . S
P96 C110 1.812 . S
P96 C116 1.803 . S
P96 C122 1.819 . S
H97 C111 0.941 . S
H98 C112 0.939 . S
H99 C114 0.940 . S
H100 C115 0.940 . S
H101 C117 0.939 . S
H102 C118 0.942 . S
H103 C120 0.940 . S
H104 C121 0.939 . S
H105 C123 0.941 . S
H106 C127 0.939 . S
O107 P96 1.490 . S
H108 C124 0.939 . S
H109 C126 0.940 . S
C110 P96 1.812 . S
C110 C111 1.389 . S
C110 C115 1.391 . S
C111 H97 0.941 . S
C111 C110 1.389 . S
C111 C112 1.397 . S
C112 H98 0.939 . S
C112 C111 1.397 . S
C112 C113 1.378 . S
C113 C112 1.378 . S
C113 C114 1.378 . S
C114 H99 0.940 . S
C114 C113 1.378 . S
C114 C115 1.396 . S
C115 H100 0.940 . S
C115 C110 1.391 . S
C115 C114 1.396 . S
C116 P96 1.803 . S
C116 C117 1.378 . S
C116 C121 1.400 . S
C117 H101 0.939 . S
C117 C116 1.378 . S
C117 C118 1.361 . S
C118 H102 0.942 . S
C118 C117 1.361 . S
C118 C119 1.369 . S
C119 C118 1.369 . S
C119 C120 1.404 . S
C120 H103 0.940 . S
C120 C119 1.404 . S
C120 C121 1.389 . S
C121 H104 0.939 . S
C121 C116 1.400 . S
C121 C120 1.389 . S
C122 P96 1.819 . S
C122 C123 1.391 . S
C122 C127 1.391 . S
C123 H105 0.941 . S
C123 C122 1.391 . S
C123 C124 1.396 . S
C124 H108 0.939 . S
C124 C123 1.396 . S
C124 C125 1.397 . S
C125 C124 1.397 . S
C125 C126 1.385 . S
C126 H109 0.940 . S
C126 C125 1.385 . S
C126 C127 1.388 . S
C127 H106 0.939 . S
C127 C122 1.391 . S
C127 C126 1.388 . S
P128 O139 1.490 . S
P128 C142 1.812 1_554 S
P128 C148 1.803 . S
P128 C154 1.819 . S
H129 C143 0.941 . S
H130 C144 0.939 . S
H131 C146 0.940 . S
H132 C147 0.940 . S
H133 C149 0.939 . S
H134 C150 0.942 . S
H135 C152 0.940 . S
H136 C153 0.939 . S
H137 C155 0.941 . S
H138 C159 0.939 . S
O139 P128 1.490 . S
H140 C156 0.939 . S
H141 C158 0.940 . S
C142 P128 1.812 1_556 S
C142 C143 1.389 . S
C142 C147 1.391 . S
C143 H129 0.941 . S
C143 C142 1.389 . S
C143 C144 1.397 . S
C144 H130 0.939 . S
C144 C143 1.397 . S
C144 C145 1.378 . S
C145 C144 1.378 . S
C145 C146 1.378 . S
C146 H131 0.940 . S
C146 C145 1.378 . S
C146 C147 1.396 . S
C147 H132 0.940 . S
C147 C142 1.391 . S
C147 C146 1.396 . S
C148 P128 1.803 . S
C148 C149 1.378 . S
C148 C153 1.400 . S
C149 H133 0.939 . S
C149 C148 1.378 . S
C149 C150 1.361 . S
C150 H134 0.942 . S
C150 C149 1.361 . S
C150 C151 1.369 . S
C151 C150 1.369 . S
C151 C152 1.404 . S
C152 H135 0.940 . S
C152 C151 1.404 . S
C152 C153 1.389 . S
C153 H136 0.939 . S
C153 C148 1.400 . S
C153 C152 1.389 . S
C154 P128 1.819 . S
C154 C155 1.391 . S
C154 C159 1.391 . S
C155 H137 0.941 . S
C155 C154 1.391 . S
C155 C156 1.396 . S
C156 H140 0.939 . S
C156 C155 1.396 . S
C156 C157 1.397 . S
C157 C156 1.397 . S
C157 C158 1.385 . S
C158 H141 0.940 . S
C158 C157 1.385 . S
C158 C159 1.388 . S
C159 H138 0.939 . S
C159 C154 1.391 . S
C159 C158 1.388 . S
P160 O171 1.490 . S
P160 C174 1.812 1_554 S
P160 C180 1.803 . S
P160 C186 1.819 . S
H161 C175 0.941 . S
H162 C176 0.939 . S
H163 C178 0.940 . S
H164 C179 0.954 . S
H165 C181 0.939 . S
H166 C182 0.942 . S
H167 C184 0.940 . S
H168 C185 0.939 . S
H169 C187 0.941 . S
H170 C191 0.939 . S
O171 P160 1.490 . S
H172 C188 0.939 . S
H173 C190 0.940 . S
C174 P160 1.812 1_556 S
C174 C175 1.389 . S
C174 C179 1.391 . S
C175 H161 0.941 . S
C175 C174 1.389 . S
C175 C176 1.397 . S
C176 H162 0.939 . S
C176 C175 1.397 . S
C176 C177 1.378 . S
C177 C176 1.378 . S
C177 C178 1.378 . S
C178 H163 0.940 . S
C178 C177 1.378 . S
C178 C179 1.396 . S
C179 H164 0.954 . S
C179 C174 1.391 . S
C179 C178 1.396 . S
C180 P160 1.803 . S
C180 C181 1.378 . S
C180 C185 1.400 . S
C181 H165 0.939 . S
C181 C180 1.378 . S
C181 C182 1.361 . S
C182 H166 0.942 . S
C182 C181 1.361 . S
C182 C183 1.369 . S
C183 C182 1.369 . S
C183 C184 1.404 . S
C184 H167 0.940 . S
C184 C183 1.404 . S
C184 C185 1.389 . S
C185 H168 0.939 . S
C185 C180 1.400 . S
C185 C184 1.389 . S
C186 P160 1.819 . S
C186 C187 1.391 . S
C186 C191 1.391 . S
C187 H169 0.941 . S
C187 C186 1.391 . S
C187 C188 1.396 . S
C188 H172 0.939 . S
C188 C187 1.396 . S
C188 C189 1.397 . S
C189 C188 1.397 . S
C189 C190 1.385 . S
C190 H173 0.940 . S
C190 C189 1.385 . S
C190 C191 1.388 . S
C191 H170 0.939 . S
C191 C186 1.391 . S
C191 C190 1.388 . S
P192 O203 1.490 . S
P192 C206 1.812 1_554 S
P192 C212 1.803 . S
P192 C218 1.819 . S
H193 C207 0.941 . S
H194 C208 0.939 . S
H195 C210 0.940 . S
H196 C211 0.946 . S
H197 C213 0.939 . S
H198 C214 0.942 . S
H199 C216 0.940 . S
H200 C217 0.939 . S
H201 C219 0.941 . S
H202 C223 0.939 . S
O203 P192 1.490 . S
H204 C220 0.939 . S
H205 C222 0.940 . S
C206 P192 1.812 1_556 S
C206 C207 1.389 . S
C206 C211 1.391 . S
C207 H193 0.941 . S
C207 C206 1.389 . S
C207 C208 1.397 . S
C208 H194 0.939 . S
C208 C207 1.397 . S
C208 C209 1.378 . S
C209 C208 1.378 . S
C209 C210 1.378 . S
C210 H195 0.940 . S
C210 C209 1.378 . S
C210 C211 1.396 . S
C211 H196 0.946 . S
C211 C206 1.391 . S
C211 C210 1.396 . S
C212 P192 1.803 . S
C212 C213 1.378 . S
C212 C217 1.400 . S
C213 H197 0.939 . S
C213 C212 1.378 . S
C213 C214 1.361 . S
C214 H198 0.942 . S
C214 C213 1.361 . S
C214 C215 1.369 . S
C215 C214 1.369 . S
C215 C216 1.404 . S
C216 H199 0.940 . S
C216 C215 1.404 . S
C216 C217 1.389 . S
C217 H200 0.939 . S
C217 C212 1.400 . S
C217 C216 1.389 . S
C218 P192 1.819 . S
C218 C219 1.391 . S
C218 C223 1.391 . S
C219 H201 0.941 . S
C219 C218 1.391 . S
C219 C220 1.396 . S
C220 H204 0.939 . S
C220 C219 1.396 . S
C220 C221 1.397 . S
C221 C220 1.397 . S
C221 C222 1.385 . S
C222 H205 0.940 . S
C222 C221 1.385 . S
C222 C223 1.388 . S
C223 H202 0.939 . S
C223 C218 1.391 . S
C223 C222 1.388 . S
P224 O235 1.490 . S
P224 C238 1.812 1_554 S
P224 C244 1.803 . S
P224 C250 1.819 . S
H225 C239 0.941 . S
H226 C240 0.939 . S
H227 C242 0.940 . S
H228 C243 0.940 . S
H229 C245 0.939 . S
H230 C246 0.942 . S
H231 C248 0.940 . S
H232 C249 0.939 . S
H233 C251 0.941 . S
H234 C255 0.939 . S
O235 P224 1.490 . S
H236 C252 0.939 . S
H237 C254 0.940 . S
C238 P224 1.812 1_556 S
C238 C239 1.389 . S
C238 C243 1.391 . S
C239 H225 0.941 . S
C239 C238 1.389 . S
C239 C240 1.397 . S
C240 H226 0.939 . S
C240 C239 1.397 . S
C240 C241 1.378 . S
C241 C240 1.378 . S
C241 C242 1.378 . S
C242 H227 0.940 . S
C242 C241 1.378 . S
C242 C243 1.396 . S
C243 H228 0.940 . S
C243 C238 1.391 . S
C243 C242 1.396 . S
C244 P224 1.803 . S
C244 C245 1.378 . S
C244 C249 1.400 . S
C245 H229 0.939 . S
C245 C244 1.378 . S
C245 C246 1.361 . S
C246 H230 0.942 . S
C246 C245 1.361 . S
C246 C247 1.369 . S
C247 C246 1.369 . S
C247 C248 1.404 . S
C248 H231 0.940 . S
C248 C247 1.404 . S
C248 C249 1.389 . S
C249 H232 0.939 . S
C249 C244 1.400 . S
C249 C248 1.389 . S
C250 P224 1.819 . S
C250 C251 1.391 . S
C250 C255 1.391 . S
C251 H233 0.941 . S
C251 C250 1.391 . S
C251 C252 1.396 . S
C252 H236 0.939 . S
C252 C251 1.396 . S
C252 C253 1.397 . S
C253 C252 1.397 . S
C253 C254 1.385 . S
C254 H237 0.940 . S
C254 C253 1.385 . S
C254 C255 1.388 . S
C255 H234 0.939 . S
C255 C250 1.391 . S
C255 C254 1.388 . S
C256 C258 1.422 . S
C256 C260 1.415 . S
C256 N262 1.369 1_545 S
C257 C258 1.421 . S
C257 C259 1.417 . S
C257 C269 1.422 . S
C258 C256 1.422 . S
C258 C257 1.421 . S
C258 N268 1.359 . S
C259 C257 1.417 . S
C259 C261 1.329 . S
C259 H278 0.930 . S
C260 C256 1.415 . S
C260 C261 1.437 . S
C260 C264 1.413 . S
C261 C259 1.329 . S
C261 C260 1.437 . S
C261 H283 0.929 . S
N262 C256 1.369 1_565 S
N262 C263 1.338 . S
N262 Gd267 2.622 . S
C263 N262 1.338 . S
C263 C265 1.378 1_565 S
C263 H275 0.929 . S
C264 C260 1.413 . S
C264 C265 1.348 . S
C264 H280 0.931 . S
C265 C263 1.378 1_545 S
C265 C264 1.348 . S
C265 H281 0.930 . S
Gd266 N286 2.622 . S
Gd266 N293 2.570 . S
Gd266 O300 2.353 1_655 S
Gd266 O301 2.458 1_655 S
Gd266 O302 2.427 . S
Gd266 O304 2.388 . S
Gd266 O305 2.386 1_545 S
Gd266 O309 2.307 1_655 S
Gd266 C319 2.805 . S
Gd267 N262 2.622 . S
Gd267 N268 2.570 1_565 S
Gd267 O299 2.386 1_565 S
Gd267 O303 2.302 1_465 S
Gd267 O306 2.353 . S
Gd267 O307 2.468 . S
Gd267 O308 2.427 . S
Gd267 O310 2.388 . S
Gd267 C331 2.805 . S
N268 C258 1.359 . S
N268 Gd267 2.570 1_545 S
N268 C270 1.343 . S
C269 C257 1.422 . S
C269 C271 1.321 . S
C269 H277 0.931 . S
C270 N268 1.343 . S
C270 C271 1.390 . S
C270 H272 0.883 1_445 S
C271 C269 1.321 . S
C271 C270 1.390 . S
C271 H273 0.930 . S
H272 C270 0.883 1_665 S
H273 C271 0.930 . S
H274 C297 0.940 . S
H275 C263 0.929 . S
H276 C298 0.889 1_455 S
H277 C269 0.931 . S
H278 C259 0.930 . S
H279 C288 0.929 . S
H280 C264 0.931 . S
H281 C265 0.930 . S
H282 C320 0.930 . S
H283 C261 0.929 . S
H284 C289 0.955 . S
H285 C290 0.930 . S
N286 Gd266 2.622 . S
N286 C287 1.369 . S
N286 C288 1.338 . S
C287 N286 1.369 . S
C287 C291 1.415 1_545 S
C287 C294 1.422 . S
C288 H279 0.929 . S
C288 N286 1.338 . S
C288 C290 1.378 . S
C289 H284 0.955 . S
C289 C290 1.321 1_565 S
C289 C291 1.419 . S
C290 H285 0.930 . S
C290 C288 1.378 . S
C290 C289 1.321 1_545 S
C291 C287 1.415 1_565 S
C291 C289 1.419 . S
C291 C321 1.437 . S
H292 C321 0.929 . S
N293 Gd266 2.570 . S
N293 C294 1.359 . S
N293 C297 1.335 1_655 S
C294 C287 1.422 . S
C294 N293 1.359 . S
C294 C296 1.421 1_545 S
C295 C296 1.422 . S
C295 C298 1.365 . S
C295 H322 0.931 . S
C296 C294 1.421 1_565 S
C296 C295 1.422 . S
C296 C320 1.417 . S
C297 H274 0.940 . S
C297 N293 1.335 1_455 S
C297 C298 1.388 1_445 S
C298 H276 0.889 1_655 S
C298 C295 1.365 . S
C298 C297 1.388 1_665 S
O299 Gd267 2.386 1_545 S
O299 C311 1.265 . S
O300 Gd266 2.353 1_455 S
O300 C311 1.242 . S
O301 Gd266 2.458 1_455 S
O301 C319 1.240 1_455 S
O302 Gd266 2.427 . S
O302 C319 1.252 . S
O303 Gd267 2.302 1_645 S
O303 C312 1.265 . S
O304 Gd266 2.388 . S
O304 C312 1.252 . S
O305 Gd266 2.386 1_565 S
O305 C323 1.265 . S
O306 Gd267 2.353 . S
O306 C323 1.242 1_455 S
O307 Gd267 2.468 . S
O307 C331 1.263 . S
O308 Gd267 2.427 . S
O308 C331 1.252 . S
O309 Gd266 2.307 1_455 S
O309 C324 1.261 . S
O310 Gd267 2.388 . S
O310 C324 1.252 1_565 S
C311 O299 1.265 . S
C311 O300 1.242 . S
C312 O303 1.265 . S
C312 O304 1.252 . S
C313 C316 1.394 . S
C313 C318 1.370 . S
C313 C319 1.500 . S
C314 C317 1.383 . S
C314 C318 1.395 . S
C315 C316 1.396 . S
C315 C317 1.365 . S
C315 H332 0.929 . S
C316 C313 1.394 . S
C316 C315 1.396 . S
C316 H333 0.930 . S
C317 C314 1.383 . S
C317 C315 1.365 . S
C317 H334 0.931 . S
C318 C313 1.370 . S
C318 C314 1.395 . S
C318 H335 0.930 1_655 S
C319 Gd266 2.805 . S
C319 O301 1.240 1_655 S
C319 O302 1.252 . S
C319 C313 1.500 . S
C320 H282 0.930 . S
C320 C296 1.417 . S
C320 C321 1.329 . S
C321 C291 1.437 . S
C321 H292 0.929 . S
C321 C320 1.329 . S
H322 C295 0.931 . S
C323 O305 1.265 . S
C323 O306 1.242 1_655 S
C324 O309 1.261 . S
C324 O310 1.252 1_545 S
C325 C328 1.394 . S
C325 C330 1.370 . S
C325 C331 1.500 . S
C326 C329 1.383 . S
C326 C330 1.395 . S
C327 C328 1.396 . S
C327 C329 1.365 . S
C327 H336 0.929 . S
C328 C325 1.394 . S
C328 C327 1.396 . S
C328 H337 0.930 . S
C329 C326 1.383 . S
C329 C327 1.365 . S
C329 H338 0.931 . S
C330 C325 1.370 . S
C330 C326 1.395 . S
C330 H339 0.930 . S
C331 Gd267 2.805 . S
C331 O307 1.263 . S
C331 O308 1.252 . S
C331 C325 1.500 . S
H332 C315 0.929 . S
H333 C316 0.930 . S
H334 C317 0.931 . S
H335 C318 0.930 1_455 S
H336 C327 0.929 . S
H337 C328 0.930 . S
H338 C329 0.931 . S
H339 C330 0.930 . S
C340 C342 1.422 . S
C340 C344 1.415 . S
C340 N346 1.369 . S
C341 C342 1.421 . S
C341 C343 1.417 . S
C341 C353 1.422 . S
C342 C340 1.422 . S
C342 C341 1.421 . S
C342 N352 1.359 . S
C343 C341 1.417 . S
C343 C345 1.329 . S
C343 H362 0.930 . S
C344 C340 1.415 . S
C344 C345 1.437 . S
C344 C348 1.413 . S
C345 C343 1.329 . S
C345 C344 1.437 . S
C345 H367 0.929 . S
N346 C340 1.369 . S
N346 C347 1.338 . S
N346 Gd351 2.622 . S
C347 N346 1.338 . S
C347 C349 1.378 . S
C347 H359 0.929 . S
C348 C344 1.413 . S
C348 C349 1.348 . S
C348 H364 0.931 . S
C349 C347 1.378 . S
C349 C348 1.348 . S
C349 H365 0.930 . S
Gd350 N370 2.622 . S
Gd350 N377 2.570 . S
Gd350 O384 2.353 1_545 S
Gd350 O385 2.468 . S
Gd350 O386 2.427 . S
Gd350 O388 2.388 . S
Gd350 O389 2.386 . S
Gd350 O393 2.307 . S
Gd350 C403 2.805 . S
Gd351 N346 2.622 . S
Gd351 N352 2.570 . S
Gd351 O383 2.386 . S
Gd351 O387 2.307 1_565 S
Gd351 O390 2.353 1_565 S
Gd351 O391 2.468 . S
Gd351 O392 2.427 . S
Gd351 O394 2.388 . S
Gd351 C415 2.805 . S
N352 C342 1.359 . S
N352 Gd351 2.570 . S
N352 C354 1.343 . S
C353 C341 1.422 . S
C353 C355 1.321 . S
C353 H361 0.931 . S
C354 N352 1.343 . S
C354 C355 1.390 . S
C354 H356 0.931 . S
C355 C353 1.321 . S
C355 C354 1.390 . S
C355 H357 0.930 . S
H356 C354 0.931 . S
H357 C355 0.930 . S
H358 C381 0.931 . S
H359 C347 0.929 . S
H360 C382 0.930 . S
H361 C353 0.931 . S
H362 C343 0.930 . S
H363 C372 0.929 . S
H364 C348 0.931 . S
H365 C349 0.930 . S
H366 C404 0.930 . S
H367 C345 0.929 . S
H368 C373 0.931 . S
H369 C374 0.930 . S
N370 Gd350 2.622 . S
N370 C371 1.369 . S
N370 C372 1.338 . S
C371 N370 1.369 . S
C371 C375 1.415 . S
C371 C378 1.422 . S
C372 H363 0.929 . S
C372 N370 1.338 . S
C372 C374 1.378 . S
C373 H368 0.931 . S
C373 C374 1.348 . S
C373 C375 1.413 . S
C374 H369 0.930 . S
C374 C372 1.378 . S
C374 C373 1.348 . S
C375 C371 1.415 . S
C375 C373 1.413 . S
C375 C405 1.437 . S
H376 C405 0.929 . S
N377 Gd350 2.570 . S
N377 C378 1.359 . S
N377 C381 1.343 . S
C378 C371 1.422 . S
C378 N377 1.359 . S
C378 C380 1.421 . S
C379 C380 1.422 . S
C379 C382 1.321 . S
C379 H406 0.931 . S
C380 C378 1.421 . S
C380 C379 1.422 . S
C380 C404 1.417 . S
C381 H358 0.931 . S
C381 N377 1.343 . S
C381 C382 1.390 . S
C382 H360 0.930 . S
C382 C379 1.321 . S
C382 C381 1.390 . S
O383 Gd351 2.386 . S
O383 C395 1.265 . S
O384 Gd350 2.353 1_565 S
O384 C395 1.242 . S
O385 Gd350 2.468 . S
O385 C403 1.263 . S
O386 Gd350 2.427 . S
O386 C403 1.252 . S
O387 Gd351 2.307 1_545 S
O387 C396 1.261 . S
O388 Gd350 2.388 . S
O388 C396 1.252 . S
O389 Gd350 2.386 . S
O389 C407 1.265 . S
O390 Gd351 2.353 1_545 S
O390 C407 1.242 . S
O391 Gd351 2.468 . S
O391 C415 1.263 . S
O392 Gd351 2.427 . S
O392 C415 1.252 . S
O393 Gd350 2.307 . S
O393 C408 1.261 1_545 S
O394 Gd351 2.388 . S
O394 C408 1.252 . S
C395 O383 1.265 . S
C395 O384 1.242 . S
C396 O387 1.261 . S
C396 O388 1.252 . S
C397 C400 1.394 . S
C397 C402 1.370 . S
C397 C403 1.500 . S
C398 C401 1.383 . S
C398 C402 1.395 . S
C399 C400 1.396 . S
C399 C401 1.365 . S
C399 H416 0.929 . S
C400 C397 1.394 . S
C400 C399 1.396 . S
C400 H417 0.930 . S
C401 C398 1.383 . S
C401 C399 1.365 . S
C401 H418 0.931 . S
C402 C397 1.370 . S
C402 C398 1.395 . S
C402 H419 0.930 . S
C403 Gd350 2.805 . S
C403 O385 1.263 . S
C403 O386 1.252 . S
C403 C397 1.500 . S
C404 H366 0.930 . S
C404 C380 1.417 . S
C404 C405 1.329 . S
C405 C375 1.437 . S
C405 H376 0.929 . S
C405 C404 1.329 . S
H406 C379 0.931 . S
C407 O389 1.265 . S
C407 O390 1.242 . S
C408 O393 1.261 1_565 S
C408 O394 1.252 . S
C409 C412 1.394 . S
C409 C414 1.370 1_565 S
C409 C415 1.500 . S
C410 C413 1.383 1_545 S
C410 C414 1.395 . S
C411 C412 1.396 . S
C411 C413 1.365 . S
C411 H420 0.929 . S
C412 C409 1.394 . S
C412 C411 1.396 . S
C412 H421 0.930 . S
C413 C410 1.383 1_565 S
C413 C411 1.365 . S
C413 H422 0.931 . S
C414 C409 1.370 1_545 S
C414 C410 1.395 . S
C414 H423 0.930 . S
C415 Gd351 2.805 . S
C415 O391 1.263 . S
C415 O392 1.252 . S
C415 C409 1.500 . S
H416 C399 0.929 . S
H417 C400 0.930 . S
H418 C401 0.931 . S
H419 C402 0.930 . S
H420 C411 0.929 . S
H421 C412 0.930 . S
H422 C413 0.931 . S
H423 C414 0.930 . S
C424 C426 1.422 . S
C424 C428 1.415 . S
C424 N430 1.369 . S
C425 C426 1.421 . S
C425 C427 1.417 . S
C425 C437 1.422 . S
C426 C424 1.422 . S
C426 C425 1.421 . S
C426 N436 1.359 . S
C427 C425 1.417 . S
C427 C429 1.329 . S
C427 H446 0.930 . S
C428 C424 1.415 . S
C428 C429 1.437 . S
C428 C432 1.413 . S
C429 C427 1.329 . S
C429 C428 1.437 . S
C429 H451 0.929 . S
N430 C424 1.369 . S
N430 C431 1.338 . S
N430 Gd435 2.622 . S
C431 N430 1.338 . S
C431 C433 1.378 . S
C431 H443 0.929 . S
C432 C428 1.413 . S
C432 C433 1.348 . S
C432 H448 0.931 . S
C433 C431 1.378 . S
C433 C432 1.348 . S
C433 H449 0.930 . S
Gd434 N454 2.622 . S
Gd434 N461 2.570 . S
Gd434 O468 2.353 . S
Gd434 O469 2.468 . S
Gd434 O470 2.427 . S
Gd434 O472 2.388 . S
Gd434 O473 2.386 . S
Gd434 O477 2.307 . S
Gd434 C487 2.805 . S
Gd435 N430 2.622 . S
Gd435 N436 2.570 . S
Gd435 O467 2.386 . S
Gd435 O471 2.307 . S
Gd435 O474 2.353 . S
Gd435 O475 2.468 . S
Gd435 O476 2.427 . S
Gd435 O478 2.388 . S
Gd435 C499 2.805 . S
N436 C426 1.359 . S
N436 Gd435 2.570 . S
N436 C438 1.343 . S
C437 C425 1.422 . S
C437 C439 1.321 . S
C437 H445 0.931 . S
C438 N436 1.343 . S
C438 C439 1.390 . S
C438 H440 0.931 . S
C439 C437 1.321 . S
C439 C438 1.390 . S
C439 H441 0.930 . S
H440 C438 0.931 . S
H441 C439 0.930 . S
H442 C465 0.931 . S
H443 C431 0.929 . S
H444 C466 0.930 . S
H445 C437 0.931 . S
H446 C427 0.930 . S
H447 C456 0.929 . S
H448 C432 0.931 . S
H449 C433 0.930 . S
H450 C488 0.930 . S
H451 C429 0.929 . S
H452 C457 0.931 . S
H453 C458 0.930 . S
N454 Gd434 2.622 . S
N454 C455 1.369 . S
N454 C456 1.338 . S
C455 N454 1.369 . S
C455 C459 1.415 . S
C455 C462 1.422 . S
C456 H447 0.929 . S
C456 N454 1.338 . S
C456 C458 1.378 . S
C457 H452 0.931 . S
C457 C458 1.348 . S
C457 C459 1.413 . S
C458 H453 0.930 . S
C458 C456 1.378 . S
C458 C457 1.348 . S
C459 C455 1.415 . S
C459 C457 1.413 . S
C459 C489 1.437 . S
H460 C489 0.929 . S
N461 Gd434 2.570 . S
N461 C462 1.359 . S
N461 C465 1.343 . S
C462 C455 1.422 . S
C462 N461 1.359 . S
C462 C464 1.421 . S
C463 C464 1.422 . S
C463 C466 1.321 . S
C463 H490 0.931 . S
C464 C462 1.421 . S
C464 C463 1.422 . S
C464 C488 1.417 . S
C465 H442 0.931 . S
C465 N461 1.343 . S
C465 C466 1.390 . S
C466 H444 0.930 . S
C466 C463 1.321 . S
C466 C465 1.390 . S
O467 Gd435 2.386 . S
O467 C479 1.265 . S
O468 Gd434 2.353 . S
O468 C479 1.242 . S
O469 Gd434 2.468 . S
O469 C487 1.263 . S
O470 Gd434 2.427 . S
O470 C487 1.252 . S
O471 Gd435 2.307 . S
O471 C480 1.261 . S
O472 Gd434 2.388 . S
O472 C480 1.252 . S
O473 Gd434 2.386 . S
O473 C491 1.265 . S
O474 Gd435 2.353 . S
O474 C491 1.242 . S
O475 Gd435 2.468 . S
O475 C499 1.263 . S
O476 Gd435 2.427 . S
O476 C499 1.252 . S
O477 Gd434 2.307 . S
O477 C492 1.261 . S
O478 Gd435 2.388 . S
O478 C492 1.252 . S
C479 O467 1.265 . S
C479 O468 1.242 . S
C480 O471 1.261 . S
C480 O472 1.252 . S
C481 C484 1.394 . S
C481 C486 1.370 . S
C481 C487 1.500 . S
C482 C485 1.383 . S
C482 C486 1.395 . S
C483 C484 1.396 . S
C483 C485 1.365 . S
C483 H500 0.929 . S
C484 C481 1.394 . S
C484 C483 1.396 . S
C484 H501 0.930 . S
C485 C482 1.383 . S
C485 C483 1.365 . S
C485 H502 0.931 . S
C486 C481 1.370 . S
C486 C482 1.395 . S
C486 H503 0.930 . S
C487 Gd434 2.805 . S
C487 O469 1.263 . S
C487 O470 1.252 . S
C487 C481 1.500 . S
C488 H450 0.930 . S
C488 C464 1.417 . S
C488 C489 1.329 . S
C489 C459 1.437 . S
C489 H460 0.929 . S
C489 C488 1.329 . S
H490 C463 0.931 . S
C491 O473 1.265 . S
C491 O474 1.242 . S
C492 O477 1.261 . S
C492 O478 1.252 . S
C493 C496 1.394 . S
C493 C498 1.370 . S
C493 C499 1.500 . S
C494 C497 1.383 . S
C494 C498 1.395 . S
C495 C496 1.396 . S
C495 C497 1.365 . S
C495 H504 0.929 . S
C496 C493 1.394 . S
C496 C495 1.396 . S
C496 H505 0.930 . S
C497 C494 1.383 . S
C497 C495 1.365 . S
C497 H506 0.931 . S
C498 C493 1.370 . S
C498 C494 1.395 . S
C498 H507 0.930 . S
C499 Gd435 2.805 . S
C499 O475 1.263 . S
C499 O476 1.252 . S
C499 C493 1.500 . S
H500 C483 0.929 . S
H501 C484 0.930 . S
H502 C485 0.931 . S
H503 C486 0.930 . S
H504 C495 0.929 . S
H505 C496 0.930 . S
H506 C497 0.931 . S
H507 C498 0.930 . S
C508 C510 1.422 . S
C508 C512 1.415 . S
C508 N514 1.369 1_455 S
C509 C510 1.421 . S
C509 C511 1.417 . S
C509 C521 1.422 . S
C510 C508 1.422 . S
C510 C509 1.421 . S
C510 N520 1.359 . S
C511 C509 1.417 . S
C511 C513 1.329 . S
C511 H530 0.930 . S
C512 C508 1.415 . S
C512 C513 1.437 . S
C512 C516 1.413 . S
C513 C511 1.329 . S
C513 C512 1.437 . S
C513 H535 0.929 . S
N514 C508 1.369 1_655 S
N514 C515 1.338 . S
N514 Gd519 2.622 . S
C515 N514 1.338 . S
C515 C517 1.378 1_655 S
C515 H527 0.929 . S
C516 C512 1.413 . S
C516 C517 1.348 . S
C516 H532 0.931 . S
C517 C515 1.378 1_455 S
C517 C516 1.348 . S
C517 H533 0.931 . S
Gd518 N538 2.622 . S
Gd518 N545 2.570 . S
Gd518 O552 2.353 . S
Gd518 O553 2.468 . S
Gd518 O554 2.427 . S
Gd518 O556 2.388 . S
Gd518 O557 2.386 1_455 S
Gd518 O561 2.307 . S
Gd518 C571 2.805 . S
Gd519 N514 2.622 . S
Gd519 N520 2.570 1_655 S
Gd519 O551 2.386 1_655 S
Gd519 O555 2.298 1_655 S
Gd519 O558 2.353 . S
Gd519 O559 2.468 . S
Gd519 O560 2.427 . S
Gd519 O562 2.388 . S
Gd519 C583 2.805 . S
N520 C510 1.359 . S
N520 Gd519 2.570 1_455 S
N520 C522 1.343 . S
C521 C509 1.422 . S
C521 C523 1.321 . S
C521 H529 0.931 . S
C522 N520 1.343 . S
C522 C523 1.390 . S
C522 H524 0.918 1_455 S
C523 C521 1.321 . S
C523 C522 1.390 . S
C523 H525 0.930 . S
H524 C522 0.918 1_655 S
H525 C523 0.930 . S
H526 C549 0.931 . S
H527 C515 0.929 . S
H528 C550 0.930 . S
H529 C521 0.931 . S
H530 C511 0.930 . S
H531 C540 0.929 . S
H532 C516 0.931 . S
H533 C517 0.931 . S
H534 C572 0.930 . S
H535 C513 0.929 . S
H536 C541 0.918 1_655 S
H537 C542 0.930 . S
N538 Gd518 2.622 . S
N538 C539 1.369 . S
N538 C540 1.338 . S
C539 N538 1.369 . S
C539 C543 1.415 1_455 S
C539 C546 1.422 . S
C540 H531 0.929 . S
C540 N538 1.338 . S
C540 C542 1.378 . S
C541 H536 0.918 1_455 S
C541 C542 1.366 . S
C541 C543 1.410 1_455 S
C542 H537 0.930 . S
C542 C540 1.378 . S
C542 C541 1.366 . S
C543 C539 1.415 1_655 S
C543 C541 1.410 1_655 S
C543 C573 1.437 . S
H544 C573 0.929 . S
N545 Gd518 2.570 . S
N545 C546 1.359 . S
N545 C549 1.343 . S
C546 C539 1.422 . S
C546 N545 1.359 . S
C546 C548 1.421 1_455 S
C547 C548 1.422 . S
C547 C550 1.321 . S
C547 H574 0.931 . S
C548 C546 1.421 1_655 S
C548 C547 1.422 . S
C548 C572 1.417 . S
C549 H526 0.931 . S
C549 N545 1.343 . S
C549 C550 1.390 1_455 S
C550 H528 0.930 . S
C550 C547 1.321 . S
C550 C549 1.390 1_655 S
O551 Gd519 2.386 1_455 S
O551 C563 1.265 . S
O552 Gd518 2.353 . S
O552 C563 1.242 . S
O553 Gd518 2.468 . S
O553 C571 1.263 . S
O554 Gd518 2.427 . S
O554 C571 1.252 . S
O555 Gd519 2.298 1_455 S
O555 C564 1.269 . S
O556 Gd518 2.388 . S
O556 C564 1.252 . S
O557 Gd518 2.386 1_655 S
O557 C575 1.265 . S
O558 Gd519 2.353 . S
O558 C575 1.242 . S
O559 Gd519 2.468 . S
O559 C583 1.263 . S
O560 Gd519 2.427 . S
O560 C583 1.252 . S
O561 Gd518 2.307 . S
O561 C576 1.261 . S
O562 Gd519 2.388 . S
O562 C576 1.252 1_655 S
C563 O551 1.265 . S
C563 O552 1.242 . S
C564 O555 1.269 . S
C564 O556 1.252 . S
C565 C568 1.394 . S
C565 C570 1.370 . S
C565 C571 1.500 . S
C566 C569 1.383 . S
C566 C570 1.395 . S
C567 C568 1.396 . S
C567 C569 1.365 . S
C567 H584 0.929 . S
C568 C565 1.394 . S
C568 C567 1.396 . S
C568 H585 0.930 . S
C569 C566 1.383 . S
C569 C567 1.365 . S
C569 H586 0.931 . S
C570 C565 1.370 . S
C570 C566 1.395 . S
C570 H587 0.930 . S
C571 Gd518 2.805 . S
C571 O553 1.263 . S
C571 O554 1.252 . S
C571 C565 1.500 . S
C572 H534 0.930 . S
C572 C548 1.417 . S
C572 C573 1.329 . S
C573 C543 1.437 . S
C573 H544 0.929 . S
C573 C572 1.329 . S
H574 C547 0.931 . S
C575 O557 1.265 . S
C575 O558 1.242 . S
C576 O561 1.261 . S
C576 O562 1.252 1_455 S
C577 C580 1.394 . S
C577 C582 1.370 . S
C577 C583 1.500 . S
C578 C581 1.383 . S
C578 C582 1.395 . S
C579 C580 1.396 . S
C579 C581 1.365 . S
C579 H588 0.929 . S
C580 C577 1.394 . S
C580 C579 1.396 . S
C580 H589 0.930 . S
C581 C578 1.383 . S
C581 C579 1.365 . S
C581 H590 0.931 . S
C582 C577 1.370 . S
C582 C578 1.395 . S
C582 H591 0.930 . S
C583 Gd519 2.805 . S
C583 O559 1.263 . S
C583 O560 1.252 . S
C583 C577 1.500 . S
H584 C567 0.929 . S
H585 C568 0.930 . S
H586 C569 0.931 . S
H587 C570 0.930 . S
H588 C579 0.929 . S
H589 C580 0.930 . S
H590 C581 0.931 . S
H591 C582 0.930 . S
H592 C610 0.951 . S
H593 C612 0.951 . S
H594 C614 0.950 . S
H595 C615 0.950 . S
H596 C617 0.950 . S
H597 C620 0.950 . S
H598 C621 0.950 . S
H599 C623 0.950 . S
H600 C624 0.950 . S
H601 C625 0.951 . S
H602 C627 0.951 . S
H603 C629 0.932 1_565 S
H604 C630 0.950 1_565 S
H605 C632 0.950 . S
H606 C635 0.950 1_565 S
H607 C636 0.995 . S
H608 C638 0.950 . S
H609 C639 0.950 . S
C610 H592 0.951 . S
C610 C611 1.366 . S
C610 C612 1.388 . S
C611 C610 1.366 . S
C611 C615 1.385 . S
C612 H593 0.951 . S
C612 C610 1.388 . S
C612 C613 1.366 . S
C613 C612 1.366 . S
C613 C614 1.414 . S
C613 C616 1.499 . S
C614 H594 0.950 . S
C614 C613 1.414 . S
C614 C615 1.374 . S
C615 H595 0.950 . S
C615 C611 1.385 . S
C615 C614 1.374 . S
C616 C613 1.499 . S
C616 C617 1.373 . S
C616 C618 1.389 . S
C617 H596 0.950 . S
C617 C616 1.373 . S
C617 C633 1.377 . S
C618 C616 1.389 . S
C618 C619 1.524 . S
C618 C632 1.377 . S
C619 C618 1.524 . S
C619 C620 1.397 . S
C619 C624 1.363 . S
C620 H597 0.950 . S
C620 C619 1.397 . S
C620 C621 1.334 . S
C621 H598 0.950 . S
C621 C620 1.334 . S
C621 C622 1.287 . S
C622 C621 1.287 . S
C622 C623 1.524 . S
C622 H641 0.913 . S
C623 H599 0.950 . S
C623 C622 1.524 . S
C623 C624 1.415 . S
C624 H600 0.950 . S
C624 C619 1.363 . S
C624 C623 1.415 . S
C625 H601 0.951 . S
C625 C626 1.366 . S
C625 C627 1.388 . S
C626 C625 1.366 . S
C626 C630 1.385 . S
C627 H602 0.951 . S
C627 C625 1.388 . S
C627 C628 1.366 . S
C628 C627 1.366 . S
C628 C629 1.414 . S
C628 C631 1.499 . S
C629 H603 0.932 1_545 S
C629 C628 1.414 . S
C629 C630 1.374 . S
C630 H604 0.950 1_545 S
C630 C626 1.385 . S
C630 C629 1.374 . S
C631 C628 1.499 . S
C631 C632 1.373 . S
C631 C633 1.389 . S
C632 H605 0.950 . S
C632 C618 1.377 . S
C632 C631 1.373 . S
C633 C617 1.377 . S
C633 C631 1.389 . S
C633 C634 1.524 . S
C634 C633 1.524 . S
C634 C635 1.397 . S
C634 C639 1.363 . S
C635 H606 0.950 1_545 S
C635 C634 1.397 . S
C635 C636 1.321 1_545 S
C636 H607 0.995 . S
C636 C635 1.321 1_565 S
C636 C637 1.256 1_565 S
C637 C636 1.256 1_545 S
C637 C638 1.524 . S
C637 H640 0.999 . S
C638 H608 0.950 . S
C638 C637 1.524 . S
C638 C639 1.415 . S
C639 H609 0.950 . S
C639 C634 1.363 . S
C639 C638 1.415 . S
H640 C637 0.999 . S
H641 C622 0.913 . S
H642 C660 0.951 . S
H643 C662 0.951 . S
H644 C664 0.950 . S
H645 C665 0.950 . S
H646 C667 0.950 . S
H647 C670 0.950 . S
H648 C671 0.950 . S
H649 C673 0.950 . S
H650 C674 0.950 . S
H651 C675 0.951 . S
H652 C677 0.951 . S
H653 C679 0.950 . S
H654 C680 0.950 . S
H655 C682 0.950 . S
H656 C685 0.950 . S
H657 C686 0.950 . S
H658 C688 0.950 . S
H659 C689 0.950 . S
C660 H642 0.951 . S
C660 C661 1.366 . S
C660 C662 1.388 . S
C661 C660 1.366 . S
C661 C665 1.385 . S
C662 H643 0.951 . S
C662 C660 1.388 . S
C662 C663 1.366 . S
C663 C662 1.366 . S
C663 C664 1.414 . S
C663 C666 1.499 . S
C664 H644 0.950 . S
C664 C663 1.414 . S
C664 C665 1.374 . S
C665 H645 0.950 . S
C665 C661 1.385 . S
C665 C664 1.374 . S
C666 C663 1.499 . S
C666 C667 1.373 . S
C666 C668 1.389 . S
C667 H646 0.950 . S
C667 C666 1.373 . S
C667 C683 1.377 . S
C668 C666 1.389 . S
C668 C669 1.524 . S
C668 C682 1.377 . S
C669 C668 1.524 . S
C669 C670 1.397 . S
C669 C674 1.363 . S
C670 H647 0.950 . S
C670 C669 1.397 . S
C670 C671 1.334 . S
C671 H648 0.950 . S
C671 C670 1.334 . S
C671 C672 1.287 . S
C672 C671 1.287 . S
C672 C673 1.524 . S
C672 H691 0.913 . S
C673 H649 0.950 . S
C673 C672 1.524 . S
C673 C674 1.415 . S
C674 H650 0.950 . S
C674 C669 1.363 . S
C674 C673 1.415 . S
C675 H651 0.951 . S
C675 C676 1.366 . S
C675 C677 1.388 . S
C676 C675 1.366 . S
C676 C680 1.385 . S
C677 H652 0.951 . S
C677 C675 1.388 . S
C677 C678 1.366 . S
C678 C677 1.366 . S
C678 C679 1.414 . S
C678 C681 1.499 . S
C679 H653 0.950 . S
C679 C678 1.414 . S
C679 C680 1.374 . S
C680 H654 0.950 . S
C680 C676 1.385 . S
C680 C679 1.374 . S
C681 C678 1.499 . S
C681 C682 1.373 . S
C681 C683 1.389 . S
C682 H655 0.950 . S
C682 C668 1.377 . S
C682 C681 1.373 . S
C683 C667 1.377 . S
C683 C681 1.389 . S
C683 C684 1.524 . S
C684 C683 1.524 . S
C684 C685 1.397 . S
C684 C689 1.363 . S
C685 H656 0.950 . S
C685 C684 1.397 . S
C685 C686 1.334 . S
C686 H657 0.950 . S
C686 C685 1.334 . S
C686 C687 1.287 . S
C687 C686 1.287 . S
C687 C688 1.524 . S
C687 H690 0.999 . S
C688 H658 0.950 . S
C688 C687 1.524 . S
C688 C689 1.415 . S
C689 H659 0.950 . S
C689 C684 1.363 . S
C689 C688 1.415 . S
H690 C687 0.999 . S
H691 C672 0.913 . S
H692 C710 0.951 . S
H693 C712 0.951 . S
H694 C714 0.950 . S
H695 C715 0.950 . S
H696 C717 0.950 . S
H697 C720 0.950 . S
H698 C721 0.950 . S
H699 C723 0.950 . S
H700 C724 0.950 . S
H701 C725 0.951 . S
H702 C727 0.951 . S
H703 C729 0.950 . S
H704 C730 0.950 . S
H705 C732 0.950 . S
H706 C735 0.950 . S
H707 C736 0.950 . S
H708 C738 0.950 . S
H709 C739 0.950 . S
C710 H692 0.951 . S
C710 C711 1.366 . S
C710 C712 1.388 . S
C711 C710 1.366 . S
C711 C715 1.385 . S
C712 H693 0.951 . S
C712 C710 1.388 . S
C712 C713 1.366 . S
C713 C712 1.366 . S
C713 C714 1.414 . S
C713 C716 1.499 . S
C714 H694 0.950 . S
C714 C713 1.414 . S
C714 C715 1.374 . S
C715 H695 0.950 . S
C715 C711 1.385 . S
C715 C714 1.374 . S
C716 C713 1.499 . S
C716 C717 1.373 . S
C716 C718 1.389 . S
C717 H696 0.950 . S
C717 C716 1.373 . S
C717 C733 1.377 . S
C718 C716 1.389 . S
C718 C719 1.524 . S
C718 C732 1.377 . S
C719 C718 1.524 . S
C719 C720 1.397 . S
C719 C724 1.363 . S
C720 H697 0.950 . S
C720 C719 1.397 . S
C720 C721 1.334 . S
C721 H698 0.950 . S
C721 C720 1.334 . S
C721 C722 1.287 . S
C722 C721 1.287 . S
C722 C723 1.524 . S
C722 H741 0.913 . S
C723 H699 0.950 . S
C723 C722 1.524 . S
C723 C724 1.415 . S
C724 H700 0.950 . S
C724 C719 1.363 . S
C724 C723 1.415 . S
C725 H701 0.951 . S
C725 C726 1.366 . S
C725 C727 1.388 . S
C726 C725 1.366 . S
C726 C730 1.385 . S
C727 H702 0.951 . S
C727 C725 1.388 . S
C727 C728 1.366 . S
C728 C727 1.366 . S
C728 C729 1.414 . S
C728 C731 1.499 . S
C729 H703 0.950 . S
C729 C728 1.414 . S
C729 C730 1.374 . S
C730 H704 0.950 . S
C730 C726 1.385 . S
C730 C729 1.374 . S
C731 C728 1.499 . S
C731 C732 1.373 . S
C731 C733 1.389 . S
C732 H705 0.950 . S
C732 C718 1.377 . S
C732 C731 1.373 . S
C733 C717 1.377 . S
C733 C731 1.389 . S
C733 C734 1.524 . S
C734 C733 1.524 . S
C734 C735 1.397 . S
C734 C739 1.363 . S
C735 H706 0.950 . S
C735 C734 1.397 . S
C735 C736 1.334 . S
C736 H707 0.950 . S
C736 C735 1.334 . S
C736 C737 1.287 . S
C737 C736 1.287 . S
C737 C738 1.524 . S
C737 H740 0.999 . S
C738 H708 0.950 . S
C738 C737 1.524 . S
C738 C739 1.415 . S
C739 H709 0.950 . S
C739 C734 1.363 . S
C739 C738 1.415 . S
H740 C737 0.999 . S
H741 C722 0.913 . S
H742 C760 0.951 . S
H743 C762 0.951 . S
H744 C764 0.950 . S
H745 C765 0.950 . S
H746 C767 0.950 . S
H747 C770 0.950 . S
H748 C771 0.950 . S
H749 C773 0.950 . S
H750 C774 0.950 . S
H751 C775 0.951 . S
H752 C777 0.951 . S
H753 C779 0.950 1_655 S
H754 C780 0.950 1_655 S
H755 C782 0.950 . S
H756 C785 0.939 1_655 S
H757 C786 0.950 1_655 S
H758 C788 0.950 . S
H759 C789 0.950 . S
C760 H742 0.951 . S
C760 C761 1.366 . S
C760 C762 1.388 . S
C761 C760 1.366 . S
C761 C765 1.385 . S
C762 H743 0.951 . S
C762 C760 1.388 . S
C762 C763 1.366 . S
C763 C762 1.366 . S
C763 C764 1.414 . S
C763 C766 1.499 . S
C764 H744 0.950 . S
C764 C763 1.414 . S
C764 C765 1.374 . S
C765 H745 0.950 . S
C765 C761 1.385 . S
C765 C764 1.374 . S
C766 C763 1.499 . S
C766 C767 1.373 . S
C766 C768 1.389 . S
C767 H746 0.950 . S
C767 C766 1.373 . S
C767 C783 1.377 . S
C768 C766 1.389 . S
C768 C769 1.524 . S
C768 C782 1.377 . S
C769 C768 1.524 . S
C769 C770 1.397 . S
C769 C774 1.363 . S
C770 H747 0.950 . S
C770 C769 1.397 . S
C770 C771 1.334 . S
C771 H748 0.950 . S
C771 C770 1.334 . S
C771 C772 1.287 . S
C772 C771 1.287 . S
C772 C773 1.524 . S
C772 H791 0.913 . S
C773 H749 0.950 . S
C773 C772 1.524 . S
C773 C774 1.415 . S
C774 H750 0.950 . S
C774 C769 1.363 . S
C774 C773 1.415 . S
C775 H751 0.951 . S
C775 C776 1.366 . S
C775 C777 1.388 . S
C776 C775 1.366 . S
C776 C780 1.385 . S
C777 H752 0.951 . S
C777 C775 1.388 . S
C777 C778 1.366 . S
C778 C777 1.366 . S
C778 C779 1.414 . S
C778 C781 1.499 . S
C779 H753 0.950 1_455 S
C779 C778 1.414 . S
C779 C780 1.374 . S
C780 H754 0.950 1_455 S
C780 C776 1.385 . S
C780 C779 1.374 . S
C781 C778 1.499 . S
C781 C782 1.373 . S
C781 C783 1.389 . S
C782 H755 0.950 . S
C782 C768 1.377 . S
C782 C781 1.373 . S
C783 C767 1.377 . S
C783 C781 1.389 . S
C783 C784 1.524 . S
C784 C783 1.524 . S
C784 C785 1.397 . S
C784 C789 1.363 . S
C785 H756 0.939 1_455 S
C785 C784 1.397 . S
C785 C786 1.334 . S
C786 H757 0.950 1_455 S
C786 C785 1.334 . S
C786 C787 1.287 . S
C787 C786 1.287 . S
C787 C788 1.524 . S
C787 H790 0.999 . S
C788 H758 0.950 . S
C788 C787 1.524 . S
C788 C789 1.415 . S
C789 H759 0.950 . S
C789 C784 1.363 . S
C789 C788 1.415 . S
H790 C787 0.999 . S
H791 C772 0.913 . S
H792 C810 0.951 . S
H793 C812 0.951 1_556 S
H794 C814 0.950 . S
H795 C815 0.950 . S
H796 C817 0.950 . S
H797 C820 0.950 . S
H798 C821 0.950 . S
H799 C823 0.950 . S
H800 C824 0.950 . S
H801 C825 0.951 . S
H802 C827 0.951 . S
H803 C829 0.950 . S
H804 C830 0.940 1_545 S
H805 C832 0.950 . S
H806 C835 0.950 . S
H807 C836 0.950 . S
H808 C838 0.950 1_554 S
H809 C839 0.950 1_565 S
C810 H792 0.951 . S
C810 C811 1.366 . S
C810 C812 1.388 . S
C811 C810 1.366 . S
C811 C815 1.385 . S
C812 H793 0.951 1_554 S
C812 C810 1.388 . S
C812 C813 1.366 . S
C813 C812 1.366 . S
C813 C814 1.414 . S
C813 C816 1.499 1_554 S
C814 H794 0.950 . S
C814 C813 1.414 . S
C814 C815 1.374 . S
C815 H795 0.950 . S
C815 C811 1.385 . S
C815 C814 1.374 . S
C816 C813 1.499 1_556 S
C816 C817 1.373 . S
C816 C818 1.389 . S
C817 H796 0.950 . S
C817 C816 1.373 . S
C817 C833 1.377 . S
C818 C816 1.389 . S
C818 C819 1.524 . S
C818 C832 1.377 . S
C819 C818 1.524 . S
C819 C820 1.397 . S
C819 C824 1.363 . S
C820 H797 0.950 . S
C820 C819 1.397 . S
C820 C821 1.334 . S
C821 H798 0.950 . S
C821 C820 1.334 . S
C821 C822 1.287 . S
C822 C821 1.287 . S
C822 C823 1.524 . S
C822 H841 0.913 . S
C823 H799 0.950 . S
C823 C822 1.524 . S
C823 C824 1.415 . S
C824 H800 0.950 . S
C824 C819 1.363 . S
C824 C823 1.415 . S
C825 H801 0.951 . S
C825 C826 1.366 . S
C825 C827 1.388 . S
C826 C825 1.366 . S
C826 C830 1.390 . S
C827 H802 0.951 . S
C827 C825 1.388 . S
C827 C828 1.366 . S
C828 C827 1.366 . S
C828 C829 1.414 . S
C828 C831 1.499 . S
C829 H803 0.950 . S
C829 C828 1.414 . S
C829 C830 1.379 . S
C830 H804 0.940 1_565 S
C830 C826 1.390 . S
C830 C829 1.379 . S
C831 C828 1.499 . S
C831 C832 1.373 . S
C831 C833 1.389 . S
C832 H805 0.950 . S
C832 C818 1.377 . S
C832 C831 1.373 . S
C833 C817 1.377 . S
C833 C831 1.389 . S
C833 C834 1.524 1_565 S
C834 C833 1.524 1_545 S
C834 C835 1.397 . S
C834 C839 1.363 . S
C835 H806 0.950 . S
C835 C834 1.397 . S
C835 C836 1.334 . S
C836 H807 0.950 . S
C836 C835 1.334 . S
C836 C837 1.287 . S
C837 C836 1.287 . S
C837 C838 1.524 . S
C837 H840 0.999 . S
C838 H808 0.950 1_556 S
C838 C837 1.524 . S
C838 C839 1.415 . S
C839 H809 0.950 1_545 S
C839 C834 1.363 . S
C839 C838 1.415 . S
H840 C837 0.999 . S
H841 C822 0.913 . S
H842 C860 0.951 . S
H843 C862 0.951 1_556 S
H844 C864 0.950 . S
H845 C865 0.950 . S
H846 C867 0.950 1_554 S
H847 C870 0.950 . S
H848 C871 0.950 . S
H849 C873 0.950 . S
H850 C874 0.950 . S
H851 C875 0.951 . S
H852 C877 0.951 . S
H853 C879 0.950 . S
H854 C880 0.950 . S
H855 C882 0.950 . S
H856 C885 0.950 . S
H857 C886 0.950 . S
H858 C888 0.950 1_554 S
H859 C889 0.950 . S
C860 H842 0.951 . S
C860 C861 1.366 . S
C860 C862 1.388 . S
C861 C860 1.366 . S
C861 C865 1.385 . S
C862 H843 0.951 1_554 S
C862 C860 1.388 . S
C862 C863 1.366 . S
C863 C862 1.366 . S
C863 C864 1.414 . S
C863 C866 1.499 1_554 S
C864 H844 0.950 . S
C864 C863 1.414 . S
C864 C865 1.374 . S
C865 H845 0.950 . S
C865 C861 1.385 . S
C865 C864 1.374 . S
C866 C863 1.499 1_556 S
C866 C867 1.373 . S
C866 C868 1.389 . S
C867 H846 0.950 1_556 S
C867 C866 1.373 . S
C867 C883 1.377 . S
C868 C866 1.389 . S
C868 C869 1.524 . S
C868 C882 1.377 . S
C869 C868 1.524 . S
C869 C870 1.397 . S
C869 C874 1.363 . S
C870 H847 0.950 . S
C870 C869 1.397 . S
C870 C871 1.334 . S
C871 H848 0.950 . S
C871 C870 1.334 . S
C871 C872 1.287 . S
C872 C871 1.287 . S
C872 C873 1.524 . S
C872 H891 0.913 . S
C873 H849 0.950 . S
C873 C872 1.524 . S
C873 C874 1.415 . S
C874 H850 0.950 . S
C874 C869 1.363 . S
C874 C873 1.415 . S
C875 H851 0.951 . S
C875 C876 1.366 . S
C875 C877 1.388 . S
C876 C875 1.366 . S
C876 C880 1.385 . S
C877 H852 0.951 . S
C877 C875 1.388 . S
C877 C878 1.366 . S
C878 C877 1.366 . S
C878 C879 1.414 . S
C878 C881 1.499 . S
C879 H853 0.950 . S
C879 C878 1.414 . S
C879 C880 1.374 . S
C880 H854 0.950 . S
C880 C876 1.385 . S
C880 C879 1.374 . S
C881 C878 1.499 . S
C881 C882 1.373 . S
C881 C883 1.389 . S
C882 H855 0.950 . S
C882 C868 1.377 . S
C882 C881 1.373 . S
C883 C867 1.377 . S
C883 C881 1.389 . S
C883 C884 1.524 . S
C884 C883 1.524 . S
C884 C885 1.397 . S
C884 C889 1.363 . S
C885 H856 0.950 . S
C885 C884 1.397 . S
C885 C886 1.334 . S
C886 H857 0.950 . S
C886 C885 1.334 . S
C886 C887 1.287 . S
C887 C886 1.287 . S
C887 C888 1.524 . S
C887 H890 0.999 . S
C888 H858 0.950 1_556 S
C888 C887 1.524 . S
C888 C889 1.415 . S
C889 H859 0.950 . S
C889 C884 1.363 . S
C889 C888 1.415 . S
H890 C887 0.999 . S
H891 C872 0.913 . S
H892 C910 0.951 . S
H893 C912 0.951 . S
H894 C914 0.950 1_556 S
H895 C915 0.950 . S
H896 C917 0.950 . S
H897 C920 0.950 . S
H898 C921 0.950 . S
H899 C923 0.950 . S
H900 C924 0.950 . S
H901 C925 0.951 . S
H902 C927 0.951 . S
H903 C929 0.950 . S
H904 C930 0.950 . S
H905 C932 0.950 . S
H906 C935 0.950 . S
H907 C936 0.950 . S
H908 C938 0.950 . S
H909 C939 0.950 . S
C910 H892 0.951 . S
C910 C911 1.366 . S
C910 C912 1.388 . S
C911 C910 1.366 . S
C911 C915 1.385 . S
C912 H893 0.951 . S
C912 C910 1.388 . S
C912 C913 1.366 . S
C913 C912 1.366 . S
C913 C914 1.414 . S
C913 C916 1.499 1_554 S
C914 H894 0.950 1_554 S
C914 C913 1.414 . S
C914 C915 1.374 . S
C915 H895 0.950 . S
C915 C911 1.385 . S
C915 C914 1.374 . S
C916 C913 1.499 1_556 S
C916 C917 1.373 . S
C916 C918 1.389 . S
C917 H896 0.950 . S
C917 C916 1.373 . S
C917 C933 1.377 . S
C918 C916 1.389 . S
C918 C919 1.524 . S
C918 C932 1.377 . S
C919 C918 1.524 . S
C919 C920 1.397 . S
C919 C924 1.363 . S
C920 H897 0.950 . S
C920 C919 1.397 . S
C920 C921 1.334 . S
C921 H898 0.950 . S
C921 C920 1.334 . S
C921 C922 1.287 . S
C922 C921 1.287 . S
C922 C923 1.524 . S
C922 H941 0.913 . S
C923 H899 0.950 . S
C923 C922 1.524 . S
C923 C924 1.415 . S
C924 H900 0.950 . S
C924 C919 1.363 . S
C924 C923 1.415 . S
C925 H901 0.951 . S
C925 C926 1.366 . S
C925 C927 1.388 . S
C926 C925 1.366 . S
C926 C930 1.385 . S
C927 H902 0.951 . S
C927 C925 1.388 . S
C927 C928 1.366 . S
C928 C927 1.366 . S
C928 C929 1.414 . S
C928 C931 1.499 . S
C929 H903 0.950 . S
C929 C928 1.414 . S
C929 C930 1.374 . S
C930 H904 0.950 . S
C930 C926 1.385 . S
C930 C929 1.374 . S
C931 C928 1.499 . S
C931 C932 1.373 . S
C931 C933 1.389 . S
C932 H905 0.950 . S
C932 C918 1.377 . S
C932 C931 1.373 . S
C933 C917 1.377 . S
C933 C931 1.389 . S
C933 C934 1.524 . S
C934 C933 1.524 . S
C934 C935 1.397 . S
C934 C939 1.363 . S
C935 H906 0.950 . S
C935 C934 1.397 . S
C935 C936 1.334 . S
C936 H907 0.950 . S
C936 C935 1.334 . S
C936 C937 1.287 . S
C937 C936 1.287 . S
C937 C938 1.524 . S
C937 H940 0.999 . S
C938 H908 0.950 . S
C938 C937 1.524 . S
C938 C939 1.415 . S
C939 H909 0.950 . S
C939 C934 1.363 . S
C939 C938 1.415 . S
H940 C937 0.999 . S
H941 C922 0.913 . S
H942 C960 0.951 . S
H943 C962 0.951 . S
H944 C964 0.950 1_455 S
H945 C965 0.950 . S
H946 C967 0.950 . S
H947 C970 0.950 . S
H948 C971 0.950 . S
H949 C973 0.950 . S
H950 C974 0.950 1_556 S
H951 C975 0.951 . S
H952 C977 0.951 . S
H953 C979 0.950 . S
H954 C980 0.950 . S
H955 C982 0.950 . S
H956 C985 0.950 . S
H957 C986 0.950 . S
H958 C988 0.950 . S
H959 C989 0.950 . S
C960 H942 0.951 . S
C960 C961 1.366 . S
C960 C962 1.388 . S
C961 C960 1.366 . S
C961 C965 1.385 . S
C962 H943 0.951 . S
C962 C960 1.388 . S
C962 C963 1.366 . S
C963 C962 1.366 . S
C963 C964 1.414 . S
C963 C966 1.499 1_554 S
C964 H944 0.950 1_655 S
C964 C963 1.414 . S
C964 C965 1.374 . S
C965 H945 0.950 . S
C965 C961 1.385 . S
C965 C964 1.374 . S
C966 C963 1.499 1_556 S
C966 C967 1.373 . S
C966 C968 1.389 . S
C967 H946 0.950 . S
C967 C966 1.373 . S
C967 C983 1.377 . S
C968 C966 1.389 . S
C968 C969 1.524 1_556 S
C968 C982 1.377 . S
C969 C968 1.524 1_554 S
C969 C970 1.397 . S
C969 C974 1.363 . S
C970 H947 0.950 . S
C970 C969 1.397 . S
C970 C971 1.334 . S
C971 H948 0.950 . S
C971 C970 1.334 . S
C971 C972 1.287 . S
C972 C971 1.287 . S
C972 C973 1.524 . S
C972 H991 0.913 . S
C973 H949 0.950 . S
C973 C972 1.524 . S
C973 C974 1.415 . S
C974 H950 0.950 1_554 S
C974 C969 1.363 . S
C974 C973 1.415 . S
C975 H951 0.951 . S
C975 C976 1.366 1_455 S
C975 C977 1.388 . S
C976 C975 1.366 1_655 S
C976 C980 1.385 . S
C977 H952 0.951 . S
C977 C975 1.388 . S
C977 C978 1.366 1_455 S
C978 C977 1.366 1_655 S
C978 C979 1.414 . S
C978 C981 1.499 . S
C979 H953 0.950 . S
C979 C978 1.414 . S
C979 C980 1.374 . S
C980 H954 0.950 . S
C980 C976 1.385 . S
C980 C979 1.374 . S
C981 C978 1.499 . S
C981 C982 1.373 . S
C981 C983 1.389 . S
C982 H955 0.950 . S
C982 C968 1.377 . S
C982 C981 1.373 . S
C983 C967 1.377 . S
C983 C981 1.389 . S
C983 C984 1.524 . S
C984 C983 1.524 . S
C984 C985 1.397 . S
C984 C989 1.363 1_655 S
C985 H956 0.950 . S
C985 C984 1.397 . S
C985 C986 1.334 . S
C986 H957 0.950 . S
C986 C985 1.334 . S
C986 C987 1.287 1_655 S
C987 C986 1.287 1_455 S
C987 C988 1.524 . S
C987 H990 0.999 . S
C988 H958 0.950 . S
C988 C987 1.524 . S
C988 C989 1.415 . S
C989 H959 0.950 . S
C989 C984 1.363 1_455 S
C989 C988 1.415 . S
H990 C987 0.999 . S
H991 C972 0.913 . S
H992 C1010 0.951 . S
H993 C1012 0.951 . S
H994 C1014 0.950 . S
H995 C1015 0.950 . S
H996 C1017 0.950 . S
H997 C1020 0.950 . S
H998 C1021 0.950 . S
H999 C1023 0.950 . S
H1000 C1024 0.950 . S
H1001 C1025 0.951 . S
H1002 C1027 0.951 . S
H1003 C1029 0.950 . S
H1004 C1030 0.950 . S
H1005 C1032 0.950 1_655 S
H1006 C1035 0.950 . S
H1007 C1036 0.950 . S
H1008 C1038 0.950 . S
H1009 C1039 0.950 . S
C1010 H992 0.951 . S
C1010 C1011 1.366 . S
C1010 C1012 1.388 . S
C1011 C1010 1.366 . S
C1011 C1015 1.385 . S
C1012 H993 0.951 . S
C1012 C1010 1.388 . S
C1012 C1013 1.366 . S
C1013 C1012 1.366 . S
C1013 C1014 1.414 . S
C1013 C1016 1.499 . S
C1014 H994 0.950 . S
C1014 C1013 1.414 . S
C1014 C1015 1.374 . S
C1015 H995 0.950 . S
C1015 C1011 1.385 . S
C1015 C1014 1.374 . S
C1016 C1013 1.499 . S
C1016 C1017 1.373 . S
C1016 C1018 1.389 . S
C1017 H996 0.950 . S
C1017 C1016 1.373 . S
C1017 C1033 1.377 . S
C1018 C1016 1.389 . S
C1018 C1019 1.524 . S
C1018 C1032 1.377 . S
C1019 C1018 1.524 . S
C1019 C1020 1.397 . S
C1019 C1024 1.363 1_455 S
C1020 H997 0.950 . S
C1020 C1019 1.397 . S
C1020 C1021 1.334 . S
C1021 H998 0.950 . S
C1021 C1020 1.334 . S
C1021 C1022 1.287 1_455 S
C1022 C1021 1.287 1_655 S
C1022 C1023 1.524 . S
C1022 H1041 0.913 . S
C1023 H999 0.950 . S
C1023 C1022 1.524 . S
C1023 C1024 1.415 . S
C1024 H1000 0.950 . S
C1024 C1019 1.363 1_655 S
C1024 C1023 1.415 . S
C1025 H1001 0.951 . S
C1025 C1026 1.366 . S
C1025 C1027 1.388 . S
C1026 C1025 1.366 . S
C1026 C1030 1.385 1_455 S
C1027 H1002 0.951 . S
C1027 C1025 1.388 . S
C1027 C1028 1.366 . S
C1028 C1027 1.366 . S
C1028 C1029 1.414 1_455 S
C1028 C1031 1.499 . S
C1029 H1003 0.950 . S
C1029 C1028 1.414 1_655 S
C1029 C1030 1.374 . S
C1030 H1004 0.950 . S
C1030 C1026 1.385 1_655 S
C1030 C1029 1.374 . S
C1031 C1028 1.499 . S
C1031 C1032 1.373 . S
C1031 C1033 1.389 . S
C1032 H1005 0.950 1_455 S
C1032 C1018 1.377 . S
C1032 C1031 1.373 . S
C1033 C1017 1.377 . S
C1033 C1031 1.389 . S
C1033 C1034 1.524 . S
C1034 C1033 1.524 . S
C1034 C1035 1.397 . S
C1034 C1039 1.363 . S
C1035 H1006 0.950 . S
C1035 C1034 1.397 . S
C1035 C1036 1.334 . S
C1036 H1007 0.950 . S
C1036 C1035 1.334 . S
C1036 C1037 1.287 . S
C1037 C1036 1.287 . S
C1037 C1038 1.524 . S
C1037 H1040 0.999 . S
C1038 H1008 0.950 . S
C1038 C1037 1.524 . S
C1038 C1039 1.415 . S
C1039 H1009 0.950 . S
C1039 C1034 1.363 . S
C1039 C1038 1.415 . S
H1040 C1037 0.999 . S
H1041 C1022 0.913 . S
H1042 C1060 0.951 . S
H1043 C1062 0.951 . S
H1044 C1064 0.950 . S
H1045 C1065 0.950 . S
H1046 C1067 0.950 . S
H1047 C1070 0.950 . S
H1048 C1071 0.950 . S
H1049 C1073 0.950 . S
H1050 C1074 0.950 . S
H1051 C1075 0.951 . S
H1052 C1077 0.951 . S
H1053 C1079 0.956 . S
H1054 C1080 0.950 . S
H1055 C1082 0.950 . S
H1056 C1085 0.950 . S
H1057 C1086 0.950 . S
H1058 C1088 0.950 . S
H1059 C1089 0.950 . S
C1060 H1042 0.951 . S
C1060 C1061 1.366 . S
C1060 C1062 1.388 . S
C1061 C1060 1.366 . S
C1061 C1065 1.385 . S
C1062 H1043 0.951 . S
C1062 C1060 1.388 . S
C1062 C1063 1.366 . S
C1063 C1062 1.366 . S
C1063 C1064 1.414 . S
C1063 C1066 1.499 . S
C1064 H1044 0.950 . S
C1064 C1063 1.414 . S
C1064 C1065 1.374 . S
C1065 H1045 0.950 . S
C1065 C1061 1.385 . S
C1065 C1064 1.374 . S
C1066 C1063 1.499 . S
C1066 C1067 1.373 . S
C1066 C1068 1.389 . S
C1067 H1046 0.950 . S
C1067 C1066 1.373 . S
C1067 C1083 1.377 . S
C1068 C1066 1.389 . S
C1068 C1069 1.524 . S
C1068 C1082 1.377 . S
C1069 C1068 1.524 . S
C1069 C1070 1.397 . S
C1069 C1074 1.363 . S
C1070 H1047 0.950 . S
C1070 C1069 1.397 . S
C1070 C1071 1.334 . S
C1071 H1048 0.950 . S
C1071 C1070 1.334 . S
C1071 C1072 1.287 . S
C1072 C1071 1.287 . S
C1072 C1073 1.524 . S
C1072 H1091 0.913 . S
C1073 H1049 0.950 . S
C1073 C1072 1.524 . S
C1073 C1074 1.415 . S
C1074 H1050 0.950 . S
C1074 C1069 1.363 . S
C1074 C1073 1.415 . S
C1075 H1051 0.951 . S
C1075 C1076 1.366 . S
C1075 C1077 1.388 . S
C1076 C1075 1.366 . S
C1076 C1080 1.385 1_545 S
C1077 H1052 0.951 . S
C1077 C1075 1.388 . S
C1077 C1078 1.366 . S
C1078 C1077 1.366 . S
C1078 C1079 1.405 1_545 S
C1078 C1081 1.499 . S
C1079 H1053 0.956 . S
C1079 C1078 1.405 1_565 S
C1079 C1080 1.377 . S
C1080 H1054 0.950 . S
C1080 C1076 1.385 1_565 S
C1080 C1079 1.377 . S
C1081 C1078 1.499 . S
C1081 C1082 1.373 . S
C1081 C1083 1.389 . S
C1082 H1055 0.950 . S
C1082 C1068 1.377 . S
C1082 C1081 1.373 . S
C1083 C1067 1.377 . S
C1083 C1081 1.389 . S
C1083 C1084 1.524 . S
C1084 C1083 1.524 . S
C1084 C1085 1.397 1_545 S
C1084 C1089 1.363 . S
C1085 H1056 0.950 . S
C1085 C1084 1.397 1_565 S
C1085 C1086 1.334 . S
C1086 H1057 0.950 . S
C1086 C1085 1.334 . S
C1086 C1087 1.293 . S
C1087 C1086 1.293 . S
C1087 C1088 1.513 1_565 S
C1087 H1090 1.003 . S
C1088 H1058 0.950 . S
C1088 C1087 1.513 1_545 S
C1088 C1089 1.415 . S
C1089 H1059 0.950 . S
C1089 C1084 1.363 . S
C1089 C1088 1.415 . S
H1090 C1087 1.003 . S
H1091 C1072 0.913 . S
H1092 C1110 0.951 . S
H1093 C1112 0.951 . S
H1094 C1114 0.950 . S
H1095 C1115 0.950 . S
H1096 C1117 0.950 . S
H1097 C1120 0.950 . S
H1098 C1121 0.950 . S
H1099 C1123 0.950 . S
H1100 C1124 0.950 . S
H1101 C1125 0.951 . S
H1102 C1127 0.951 . S
H1103 C1129 0.950 . S
H1104 C1130 0.950 . S
H1105 C1132 0.950 . S
H1106 C1135 0.950 . S
H1107 C1136 0.950 . S
H1108 C1138 0.950 . S
H1109 C1139 0.950 . S
C1110 H1092 0.951 . S
C1110 C1111 1.366 . S
C1110 C1112 1.388 . S
C1111 C1110 1.366 . S
C1111 C1115 1.385 . S
C1112 H1093 0.951 . S
C1112 C1110 1.388 . S
C1112 C1113 1.366 . S
C1113 C1112 1.366 . S
C1113 C1114 1.414 . S
C1113 C1116 1.499 . S
C1114 H1094 0.950 . S
C1114 C1113 1.414 . S
C1114 C1115 1.374 . S
C1115 H1095 0.950 . S
C1115 C1111 1.385 . S
C1115 C1114 1.374 . S
C1116 C1113 1.499 . S
C1116 C1117 1.373 . S
C1116 C1118 1.389 . S
C1117 H1096 0.950 . S
C1117 C1116 1.373 . S
C1117 C1133 1.377 . S
C1118 C1116 1.389 . S
C1118 C1119 1.524 . S
C1118 C1132 1.377 . S
C1119 C1118 1.524 . S
C1119 C1120 1.397 . S
C1119 C1124 1.363 . S
C1120 H1097 0.950 . S
C1120 C1119 1.397 . S
C1120 C1121 1.334 . S
C1121 H1098 0.950 . S
C1121 C1120 1.334 . S
C1121 C1122 1.287 . S
C1122 C1121 1.287 . S
C1122 C1123 1.524 . S
C1122 H1141 0.913 . S
C1123 H1099 0.950 . S
C1123 C1122 1.524 . S
C1123 C1124 1.415 . S
C1124 H1100 0.950 . S
C1124 C1119 1.363 . S
C1124 C1123 1.415 . S
C1125 H1101 0.951 . S
C1125 C1126 1.366 . S
C1125 C1127 1.388 . S
C1126 C1125 1.366 . S
C1126 C1130 1.385 . S
C1127 H1102 0.951 . S
C1127 C1125 1.388 . S
C1127 C1128 1.366 . S
C1128 C1127 1.366 . S
C1128 C1129 1.414 . S
C1128 C1131 1.499 . S
C1129 H1103 0.950 . S
C1129 C1128 1.414 . S
C1129 C1130 1.374 . S
C1130 H1104 0.950 . S
C1130 C1126 1.385 . S
C1130 C1129 1.374 . S
C1131 C1128 1.499 . S
C1131 C1132 1.373 . S
C1131 C1133 1.389 . S
C1132 H1105 0.950 . S
C1132 C1118 1.377 . S
C1132 C1131 1.373 . S
C1133 C1117 1.377 . S
C1133 C1131 1.389 . S
C1133 C1134 1.524 . S
C1134 C1133 1.524 . S
C1134 C1135 1.397 . S
C1134 C1139 1.363 . S
C1135 H1106 0.950 . S
C1135 C1134 1.397 . S
C1135 C1136 1.334 . S
C1136 H1107 0.950 . S
C1136 C1135 1.334 . S
C1136 C1137 1.287 . S
C1137 C1136 1.287 . S
C1137 C1138 1.524 . S
C1137 H1140 0.999 . S
C1138 H1108 0.950 . S
C1138 C1137 1.524 . S
C1138 C1139 1.415 . S
C1139 H1109 0.950 . S
C1139 C1134 1.363 . S
C1139 C1138 1.415 . S
H1140 C1137 0.999 . S
H1141 C1122 0.913 . S
H1142 C1160 0.951 . S
H1143 C1162 0.951 . S
H1144 C1164 0.950 . S
H1145 C1165 0.950 . S
H1146 C1167 0.950 . S
H1147 C1170 0.950 . S
H1148 C1171 0.950 . S
H1149 C1173 0.950 . S
H1150 C1174 0.950 . S
H1151 C1175 0.951 . S
H1152 C1177 0.951 . S
H1153 C1179 0.950 . S
H1154 C1180 0.950 . S
H1155 C1182 0.950 . S
H1156 C1185 0.950 . S
H1157 C1186 0.950 . S
H1158 C1188 0.950 . S
H1159 C1189 0.950 . S
C1160 H1142 0.951 . S
C1160 C1161 1.366 . S
C1160 C1162 1.388 . S
C1161 C1160 1.366 . S
C1161 C1165 1.385 . S
C1162 H1143 0.951 . S
C1162 C1160 1.388 . S
C1162 C1163 1.366 . S
C1163 C1162 1.366 . S
C1163 C1164 1.414 . S
C1163 C1166 1.499 . S
C1164 H1144 0.950 . S
C1164 C1163 1.414 . S
C1164 C1165 1.374 . S
C1165 H1145 0.950 . S
C1165 C1161 1.385 . S
C1165 C1164 1.374 . S
C1166 C1163 1.499 . S
C1166 C1167 1.373 . S
C1166 C1168 1.389 . S
C1167 H1146 0.950 . S
C1167 C1166 1.373 . S
C1167 C1183 1.377 . S
C1168 C1166 1.389 . S
C1168 C1169 1.524 . S
C1168 C1182 1.377 . S
C1169 C1168 1.524 . S
C1169 C1170 1.397 . S
C1169 C1174 1.363 . S
C1170 H1147 0.950 . S
C1170 C1169 1.397 . S
C1170 C1171 1.334 . S
C1171 H1148 0.950 . S
C1171 C1170 1.334 . S
C1171 C1172 1.287 . S
C1172 C1171 1.287 . S
C1172 C1173 1.524 . S
C1172 H1191 0.913 . S
C1173 H1149 0.950 . S
C1173 C1172 1.524 . S
C1173 C1174 1.415 . S
C1174 H1150 0.950 . S
C1174 C1169 1.363 . S
C1174 C1173 1.415 . S
C1175 H1151 0.951 . S
C1175 C1176 1.366 . S
C1175 C1177 1.388 . S
C1176 C1175 1.366 . S
C1176 C1180 1.385 . S
C1177 H1152 0.951 . S
C1177 C1175 1.388 . S
C1177 C1178 1.366 . S
C1178 C1177 1.366 . S
C1178 C1179 1.414 . S
C1178 C1181 1.499 . S
C1179 H1153 0.950 . S
C1179 C1178 1.414 . S
C1179 C1180 1.374 . S
C1180 H1154 0.950 . S
C1180 C1176 1.385 . S
C1180 C1179 1.374 . S
C1181 C1178 1.499 . S
C1181 C1182 1.373 . S
C1181 C1183 1.389 . S
C1182 H1155 0.950 . S
C1182 C1168 1.377 . S
C1182 C1181 1.373 . S
C1183 C1167 1.377 . S
C1183 C1181 1.389 . S
C1183 C1184 1.524 . S
C1184 C1183 1.524 . S
C1184 C1185 1.397 . S
C1184 C1189 1.363 . S
C1185 H1156 0.950 . S
C1185 C1184 1.397 . S
C1185 C1186 1.334 . S
C1186 H1157 0.950 . S
C1186 C1185 1.334 . S
C1186 C1187 1.287 . S
C1187 C1186 1.287 . S
C1187 C1188 1.524 . S
C1187 H1190 0.999 . S
C1188 H1158 0.950 . S
C1188 C1187 1.524 . S
C1188 C1189 1.415 . S
C1189 H1159 0.950 . S
C1189 C1184 1.363 . S
C1189 C1188 1.415 . S
H1190 C1187 0.999 . S
H1191 C1172 0.913 . S
H1192 C1210 0.951 . S
H1193 C1212 0.951 . S
H1194 C1214 0.950 1_455 S
H1195 C1215 0.950 . S
H1196 C1217 0.950 1_554 S
H1197 C1220 0.950 . S
H1198 C1221 0.950 . S
H1199 C1223 0.950 . S
H1200 C1224 0.950 . S
H1201 C1225 0.951 . S
H1202 C1227 0.951 . S
H1203 C1229 0.950 . S
H1204 C1230 0.950 . S
H1205 C1232 0.950 . S
H1206 C1235 0.950 . S
H1207 C1236 0.950 . S
H1208 C1238 0.950 . S
H1209 C1239 0.950 . S
C1210 H1192 0.951 . S
C1210 C1211 1.366 . S
C1210 C1212 1.388 1_554 S
C1211 C1210 1.366 . S
C1211 C1215 1.385 . S
C1212 H1193 0.951 . S
C1212 C1210 1.388 1_556 S
C1212 C1213 1.366 . S
C1213 C1212 1.366 . S
C1213 C1214 1.414 1_556 S
C1213 C1216 1.499 . S
C1214 H1194 0.950 1_655 S
C1214 C1213 1.414 1_554 S
C1214 C1215 1.374 . S
C1215 H1195 0.950 . S
C1215 C1211 1.385 . S
C1215 C1214 1.374 . S
C1216 C1213 1.499 . S
C1216 C1217 1.373 . S
C1216 C1218 1.389 . S
C1217 H1196 0.950 1_556 S
C1217 C1216 1.373 . S
C1217 C1233 1.377 . S
C1218 C1216 1.389 . S
C1218 C1219 1.524 . S
C1218 C1232 1.377 . S
C1219 C1218 1.524 . S
C1219 C1220 1.397 . S
C1219 C1224 1.363 . S
C1220 H1197 0.950 . S
C1220 C1219 1.397 . S
C1220 C1221 1.334 . S
C1221 H1198 0.950 . S
C1221 C1220 1.334 . S
C1221 C1222 1.287 . S
C1222 C1221 1.287 . S
C1222 C1223 1.524 . S
C1222 H1241 0.913 . S
C1223 H1199 0.950 . S
C1223 C1222 1.524 . S
C1223 C1224 1.415 . S
C1224 H1200 0.950 . S
C1224 C1219 1.363 . S
C1224 C1223 1.415 . S
C1225 H1201 0.951 . S
C1225 C1226 1.366 . S
C1225 C1227 1.388 . S
C1226 C1225 1.366 . S
C1226 C1230 1.385 1_455 S
C1227 H1202 0.951 . S
C1227 C1225 1.388 . S
C1227 C1228 1.366 1_455 S
C1228 C1227 1.366 1_655 S
C1228 C1229 1.414 . S
C1228 C1231 1.499 . S
C1229 H1203 0.950 . S
C1229 C1228 1.414 . S
C1229 C1230 1.374 . S
C1230 H1204 0.950 . S
C1230 C1226 1.385 1_655 S
C1230 C1229 1.374 . S
C1231 C1228 1.499 . S
C1231 C1232 1.373 . S
C1231 C1233 1.389 . S
C1232 H1205 0.950 . S
C1232 C1218 1.377 . S
C1232 C1231 1.373 . S
C1233 C1217 1.377 . S
C1233 C1231 1.389 . S
C1233 C1234 1.524 1_655 S
C1234 C1233 1.524 1_455 S
C1234 C1235 1.397 1_455 S
C1234 C1239 1.363 1_556 S
C1235 H1206 0.950 . S
C1235 C1234 1.397 1_655 S
C1235 C1236 1.334 1_556 S
C1236 H1207 0.950 . S
C1236 C1235 1.334 1_554 S
C1236 C1237 1.287 1_655 S
C1237 C1236 1.287 1_455 S
C1237 C1238 1.524 . S
C1237 H1240 0.999 . S
C1238 H1208 0.950 . S
C1238 C1237 1.524 . S
C1238 C1239 1.415 . S
C1239 H1209 0.950 . S
C1239 C1234 1.363 1_554 S
C1239 C1238 1.415 . S
H1240 C1237 0.999 . S
H1241 C1222 0.913 . S
H1242 C1260 0.951 . S
H1243 C1262 0.951 . S
H1244 C1264 0.950 . S
H1245 C1265 0.950 1_556 S
H1246 C1267 0.950 . S
H1247 C1270 0.961 . S
H1248 C1271 0.950 . S
H1249 C1273 0.950 . S
H1250 C1274 0.950 . S
H1251 C1275 0.951 . S
H1252 C1277 0.951 . S
H1253 C1279 0.950 . S
H1254 C1280 0.950 . S
H1255 C1282 0.950 . S
H1256 C1285 0.950 . S
H1257 C1286 0.950 . S
H1258 C1288 0.950 . S
H1259 C1289 0.950 1_565 S
C1260 H1242 0.951 . S
C1260 C1261 1.366 . S
C1260 C1262 1.388 . S
C1261 C1260 1.366 . S
C1261 C1265 1.385 . S
C1262 H1243 0.951 . S
C1262 C1260 1.388 . S
C1262 C1263 1.354 1_554 S
C1263 C1262 1.354 1_556 S
C1263 C1264 1.419 . S
C1263 C1266 1.506 . S
C1264 H1244 0.950 . S
C1264 C1263 1.419 . S
C1264 C1265 1.374 1_556 S
C1265 H1245 0.950 1_554 S
C1265 C1261 1.385 . S
C1265 C1264 1.374 1_554 S
C1266 C1263 1.506 . S
C1266 C1267 1.373 . S
C1266 C1268 1.389 . S
C1267 H1246 0.950 . S
C1267 C1266 1.373 . S
C1267 C1283 1.377 . S
C1268 C1266 1.389 . S
C1268 C1269 1.524 1_556 S
C1268 C1282 1.377 . S
C1269 C1268 1.524 1_554 S
C1269 C1270 1.397 . S
C1269 C1274 1.363 . S
C1270 H1247 0.961 . S
C1270 C1269 1.397 . S
C1270 C1271 1.334 . S
C1271 H1248 0.950 . S
C1271 C1270 1.334 . S
C1271 C1272 1.287 . S
C1272 C1271 1.287 . S
C1272 C1273 1.524 . S
C1272 H1291 0.913 . S
C1273 H1249 0.950 . S
C1273 C1272 1.524 . S
C1273 C1274 1.415 . S
C1274 H1250 0.950 . S
C1274 C1269 1.363 . S
C1274 C1273 1.415 . S
C1275 H1251 0.951 . S
C1275 C1276 1.366 1_565 S
C1275 C1277 1.388 . S
C1276 C1275 1.366 1_545 S
C1276 C1280 1.385 . S
C1277 H1252 0.951 . S
C1277 C1275 1.388 . S
C1277 C1278 1.366 . S
C1278 C1277 1.366 . S
C1278 C1279 1.414 1_565 S
C1278 C1281 1.499 . S
C1279 H1253 0.950 . S
C1279 C1278 1.414 1_545 S
C1279 C1280 1.374 . S
C1280 H1254 0.950 . S
C1280 C1276 1.385 . S
C1280 C1279 1.374 . S
C1281 C1278 1.499 . S
C1281 C1282 1.373 . S
C1281 C1283 1.389 . S
C1282 H1255 0.950 . S
C1282 C1268 1.377 . S
C1282 C1281 1.373 . S
C1283 C1267 1.377 . S
C1283 C1281 1.389 . S
C1283 C1284 1.524 1_565 S
C1284 C1283 1.524 1_545 S
C1284 C1285 1.397 . S
C1284 C1289 1.363 . S
C1285 H1256 0.950 . S
C1285 C1284 1.397 . S
C1285 C1286 1.334 . S
C1286 H1257 0.950 . S
C1286 C1285 1.334 . S
C1286 C1287 1.287 . S
C1287 C1286 1.287 . S
C1287 C1288 1.524 . S
C1287 H1290 0.999 . S
C1288 H1258 0.950 . S
C1288 C1287 1.524 . S
C1288 C1289 1.415 . S
C1289 H1259 0.950 1_545 S
C1289 C1284 1.363 . S
C1289 C1288 1.415 . S
H1290 C1287 0.999 . S
H1291 C1272 0.913 . S
H1292 C1310 0.951 . S
H1293 C1312 0.951 . S
H1294 C1314 0.950 . S
H1295 C1315 0.950 1_556 S
H1296 C1317 0.950 . S
H1297 C1320 0.950 . S
H1298 C1321 0.950 . S
H1299 C1323 0.950 . S
H1300 C1324 0.950 . S
H1301 C1325 0.951 . S
H1302 C1327 0.951 . S
H1303 C1329 0.950 . S
H1304 C1330 0.950 . S
H1305 C1332 0.950 . S
H1306 C1335 0.950 . S
H1307 C1336 0.950 . S
H1308 C1338 0.950 . S
H1309 C1339 0.950 . S
C1310 H1292 0.951 . S
C1310 C1311 1.366 . S
C1310 C1312 1.388 . S
C1311 C1310 1.366 . S
C1311 C1315 1.385 . S
C1312 H1293 0.951 . S
C1312 C1310 1.388 . S
C1312 C1313 1.366 . S
C1313 C1312 1.366 . S
C1313 C1314 1.414 1_554 S
C1313 C1316 1.499 1_554 S
C1314 H1294 0.950 . S
C1314 C1313 1.414 1_556 S
C1314 C1315 1.374 1_556 S
C1315 H1295 0.950 1_554 S
C1315 C1311 1.385 . S
C1315 C1314 1.374 1_554 S
C1316 C1313 1.499 1_556 S
C1316 C1317 1.373 . S
C1316 C1318 1.389 . S
C1317 H1296 0.950 . S
C1317 C1316 1.373 . S
C1317 C1333 1.377 . S
C1318 C1316 1.389 . S
C1318 C1319 1.524 1_556 S
C1318 C1332 1.377 . S
C1319 C1318 1.524 1_554 S
C1319 C1320 1.397 . S
C1319 C1324 1.363 . S
C1320 H1297 0.950 . S
C1320 C1319 1.397 . S
C1320 C1321 1.334 . S
C1321 H1298 0.950 . S
C1321 C1320 1.334 . S
C1321 C1322 1.287 . S
C1322 C1321 1.287 . S
C1322 C1323 1.524 . S
C1322 H1341 0.913 . S
C1323 H1299 0.950 . S
C1323 C1322 1.524 . S
C1323 C1324 1.415 . S
C1324 H1300 0.950 . S
C1324 C1319 1.363 . S
C1324 C1323 1.415 . S
C1325 H1301 0.951 . S
C1325 C1326 1.366 . S
C1325 C1327 1.388 . S
C1326 C1325 1.366 . S
C1326 C1330 1.385 . S
C1327 H1302 0.951 . S
C1327 C1325 1.388 . S
C1327 C1328 1.366 . S
C1328 C1327 1.366 . S
C1328 C1329 1.414 . S
C1328 C1331 1.499 . S
C1329 H1303 0.950 . S
C1329 C1328 1.414 . S
C1329 C1330 1.374 . S
C1330 H1304 0.950 . S
C1330 C1326 1.385 . S
C1330 C1329 1.374 . S
C1331 C1328 1.499 . S
C1331 C1332 1.373 . S
C1331 C1333 1.389 . S
C1332 H1305 0.950 . S
C1332 C1318 1.377 . S
C1332 C1331 1.373 . S
C1333 C1317 1.377 . S
C1333 C1331 1.389 . S
C1333 C1334 1.524 . S
C1334 C1333 1.524 . S
C1334 C1335 1.397 . S
C1334 C1339 1.363 . S
C1335 H1306 0.950 . S
C1335 C1334 1.397 . S
C1335 C1336 1.334 . S
C1336 H1307 0.950 . S
C1336 C1335 1.334 . S
C1336 C1337 1.287 . S
C1337 C1336 1.287 . S
C1337 C1338 1.524 . S
C1337 H1340 0.999 . S
C1338 H1308 0.950 . S
C1338 C1337 1.524 . S
C1338 C1339 1.415 . S
C1339 H1309 0.950 . S
C1339 C1334 1.363 . S
C1339 C1338 1.415 . S
H1340 C1337 0.999 . S
H1341 C1322 0.913 . S
H1342 C1360 0.951 . S
H1343 C1362 0.951 . S
H1344 C1364 0.950 . S
H1345 C1365 0.950 . S
H1346 C1367 0.950 . S
H1347 C1370 0.950 . S
H1348 C1371 0.950 . S
H1349 C1373 0.950 . S
H1350 C1374 0.950 . S
H1351 C1375 0.951 . S
H1352 C1377 0.951 . S
H1353 C1379 0.950 . S
H1354 C1380 0.950 . S
H1355 C1382 0.950 . S
H1356 C1385 0.950 . S
H1357 C1386 0.950 . S
H1358 C1388 0.950 . S
H1359 C1389 0.950 . S
C1360 H1342 0.951 . S
C1360 C1361 1.366 . S
C1360 C1362 1.388 . S
C1361 C1360 1.366 . S
C1361 C1365 1.385 . S
C1362 H1343 0.951 . S
C1362 C1360 1.388 . S
C1362 C1363 1.366 1_554 S
C1363 C1362 1.366 1_556 S
C1363 C1364 1.414 . S
C1363 C1366 1.499 . S
C1364 H1344 0.950 . S
C1364 C1363 1.414 . S
C1364 C1365 1.374 1_556 S
C1365 H1345 0.950 . S
C1365 C1361 1.385 . S
C1365 C1364 1.374 1_554 S
C1366 C1363 1.499 . S
C1366 C1367 1.373 . S
C1366 C1368 1.389 . S
C1367 H1346 0.950 . S
C1367 C1366 1.373 . S
C1367 C1383 1.377 . S
C1368 C1366 1.389 . S
C1368 C1369 1.524 . S
C1368 C1382 1.377 . S
C1369 C1368 1.524 . S
C1369 C1370 1.397 . S
C1369 C1374 1.363 . S
C1370 H1347 0.950 . S
C1370 C1369 1.397 . S
C1370 C1371 1.334 . S
C1371 H1348 0.950 . S
C1371 C1370 1.334 . S
C1371 C1372 1.287 . S
C1372 C1371 1.287 . S
C1372 C1373 1.524 . S
C1372 H1391 0.913 . S
C1373 H1349 0.950 . S
C1373 C1372 1.524 . S
C1373 C1374 1.415 . S
C1374 H1350 0.950 . S
C1374 C1369 1.363 . S
C1374 C1373 1.415 . S
C1375 H1351 0.951 . S
C1375 C1376 1.366 . S
C1375 C1377 1.388 . S
C1376 C1375 1.366 . S
C1376 C1380 1.385 . S
C1377 H1352 0.951 . S
C1377 C1375 1.388 . S
C1377 C1378 1.366 . S
C1378 C1377 1.366 . S
C1378 C1379 1.414 . S
C1378 C1381 1.499 . S
C1379 H1353 0.950 . S
C1379 C1378 1.414 . S
C1379 C1380 1.374 . S
C1380 H1354 0.950 . S
C1380 C1376 1.385 . S
C1380 C1379 1.374 . S
C1381 C1378 1.499 . S
C1381 C1382 1.373 . S
C1381 C1383 1.389 . S
C1382 H1355 0.950 . S
C1382 C1368 1.377 . S
C1382 C1381 1.373 . S
C1383 C1367 1.377 . S
C1383 C1381 1.389 . S
C1383 C1384 1.524 . S
C1384 C1383 1.524 . S
C1384 C1385 1.397 . S
C1384 C1389 1.363 . S
C1385 H1356 0.950 . S
C1385 C1384 1.397 . S
C1385 C1386 1.334 . S
C1386 H1357 0.950 . S
C1386 C1385 1.334 . S
C1386 C1387 1.287 . S
C1387 C1386 1.287 . S
C1387 C1388 1.524 . S
C1387 H1390 0.999 . S
C1388 H1358 0.950 . S
C1388 C1387 1.524 . S
C1388 C1389 1.415 . S
C1389 H1359 0.950 . S
C1389 C1384 1.363 . S
C1389 C1388 1.415 . S
H1390 C1387 0.999 . S
H1391 C1372 0.913 . S
H1392 C1410 0.951 . S
H1393 C1412 0.951 . S
H1394 C1414 0.950 . S
H1395 C1415 0.950 . S
H1396 C1417 0.950 . S
H1397 C1420 0.950 . S
H1398 C1421 0.950 . S
H1399 C1423 0.950 . S
H1400 C1424 0.950 . S
H1401 C1425 0.951 1_655 S
H1402 C1427 0.951 1_655 S
H1403 C1429 0.950 . S
H1404 C1430 0.950 . S
H1405 C1432 0.950 . S
H1406 C1435 0.950 . S
H1407 C1436 0.950 . S
H1408 C1438 0.950 1_655 S
H1409 C1439 0.950 1_655 S
C1410 H1392 0.951 . S
C1410 C1411 1.366 . S
C1410 C1412 1.388 . S
C1411 C1410 1.366 . S
C1411 C1415 1.385 . S
C1412 H1393 0.951 . S
C1412 C1410 1.388 . S
C1412 C1413 1.366 . S
C1413 C1412 1.366 . S
C1413 C1414 1.414 . S
C1413 C1416 1.499 . S
C1414 H1394 0.950 . S
C1414 C1413 1.414 . S
C1414 C1415 1.374 . S
C1415 H1395 0.950 . S
C1415 C1411 1.385 . S
C1415 C1414 1.374 . S
C1416 C1413 1.499 . S
C1416 C1417 1.373 . S
C1416 C1418 1.389 . S
C1417 H1396 0.950 . S
C1417 C1416 1.373 . S
C1417 C1433 1.377 . S
C1418 C1416 1.389 . S
C1418 C1419 1.524 . S
C1418 C1432 1.377 . S
C1419 C1418 1.524 . S
C1419 C1420 1.397 . S
C1419 C1424 1.363 . S
C1420 H1397 0.950 . S
C1420 C1419 1.397 . S
C1420 C1421 1.334 . S
C1421 H1398 0.950 . S
C1421 C1420 1.334 . S
C1421 C1422 1.287 . S
C1422 C1421 1.287 . S
C1422 C1423 1.524 . S
C1422 H1441 0.913 . S
C1423 H1399 0.950 . S
C1423 C1422 1.524 . S
C1423 C1424 1.415 . S
C1424 H1400 0.950 . S
C1424 C1419 1.363 . S
C1424 C1423 1.415 . S
C1425 H1401 0.951 1_455 S
C1425 C1426 1.366 . S
C1425 C1427 1.388 . S
C1426 C1425 1.366 . S
C1426 C1430 1.385 . S
C1427 H1402 0.951 1_455 S
C1427 C1425 1.388 . S
C1427 C1428 1.366 . S
C1428 C1427 1.366 . S
C1428 C1429 1.414 . S
C1428 C1431 1.499 . S
C1429 H1403 0.950 . S
C1429 C1428 1.414 . S
C1429 C1430 1.374 . S
C1430 H1404 0.950 . S
C1430 C1426 1.385 . S
C1430 C1429 1.374 . S
C1431 C1428 1.499 . S
C1431 C1432 1.373 . S
C1431 C1433 1.389 . S
C1432 H1405 0.950 . S
C1432 C1418 1.377 . S
C1432 C1431 1.373 . S
C1433 C1417 1.377 . S
C1433 C1431 1.389 . S
C1433 C1434 1.524 . S
C1434 C1433 1.524 . S
C1434 C1435 1.397 . S
C1434 C1439 1.363 . S
C1435 H1406 0.950 . S
C1435 C1434 1.397 . S
C1435 C1436 1.334 . S
C1436 H1407 0.950 . S
C1436 C1435 1.334 . S
C1436 C1437 1.287 . S
C1437 C1436 1.287 . S
C1437 C1438 1.524 . S
C1437 H1440 0.999 . S
C1438 H1408 0.950 1_455 S
C1438 C1437 1.524 . S
C1438 C1439 1.415 . S
C1439 H1409 0.950 1_455 S
C1439 C1434 1.363 . S
C1439 C1438 1.415 . S
H1440 C1437 0.999 . S
H1441 C1422 0.913 . S
H1442 C1460 0.951 . S
H1443 C1462 0.951 . S
H1444 C1464 0.950 . S
H1445 C1465 0.950 . S
H1446 C1467 0.950 . S
H1447 C1470 0.950 . S
H1448 C1471 0.950 . S
H1449 C1473 0.950 . S
H1450 C1474 0.950 . S
H1451 C1475 0.951 . S
H1452 C1477 0.951 . S
H1453 C1479 0.950 . S
H1454 C1480 0.950 . S
H1455 C1482 0.950 . S
H1456 C1485 0.950 . S
H1457 C1486 0.950 . S
H1458 C1488 0.950 . S
H1459 C1489 0.972 . S
C1460 H1442 0.951 . S
C1460 C1461 1.366 . S
C1460 C1462 1.388 . S
C1461 C1460 1.366 . S
C1461 C1465 1.385 . S
C1462 H1443 0.951 . S
C1462 C1460 1.388 . S
C1462 C1463 1.366 . S
C1463 C1462 1.366 . S
C1463 C1464 1.414 . S
C1463 C1466 1.499 . S
C1464 H1444 0.950 . S
C1464 C1463 1.414 . S
C1464 C1465 1.374 . S
C1465 H1445 0.950 . S
C1465 C1461 1.385 . S
C1465 C1464 1.374 . S
C1466 C1463 1.499 . S
C1466 C1467 1.373 . S
C1466 C1468 1.389 . S
C1467 H1446 0.950 . S
C1467 C1466 1.373 . S
C1467 C1483 1.377 . S
C1468 C1466 1.389 . S
C1468 C1469 1.524 . S
C1468 C1482 1.377 . S
C1469 C1468 1.524 . S
C1469 C1470 1.397 . S
C1469 C1474 1.363 . S
C1470 H1447 0.950 . S
C1470 C1469 1.397 . S
C1470 C1471 1.334 . S
C1471 H1448 0.950 . S
C1471 C1470 1.334 . S
C1471 C1472 1.287 . S
C1472 C1471 1.287 . S
C1472 C1473 1.524 . S
C1472 H1491 0.913 . S
C1473 H1449 0.950 . S
C1473 C1472 1.524 . S
C1473 C1474 1.415 . S
C1474 H1450 0.950 . S
C1474 C1469 1.363 . S
C1474 C1473 1.415 . S
C1475 H1451 0.951 . S
C1475 C1476 1.366 . S
C1475 C1477 1.388 . S
C1476 C1475 1.366 . S
C1476 C1480 1.385 . S
C1477 H1452 0.951 . S
C1477 C1475 1.388 . S
C1477 C1478 1.366 . S
C1478 C1477 1.366 . S
C1478 C1479 1.414 . S
C1478 C1481 1.499 . S
C1479 H1453 0.950 . S
C1479 C1478 1.414 . S
C1479 C1480 1.374 . S
C1480 H1454 0.950 . S
C1480 C1476 1.385 . S
C1480 C1479 1.374 . S
C1481 C1478 1.499 . S
C1481 C1482 1.373 . S
C1481 C1483 1.389 . S
C1482 H1455 0.950 . S
C1482 C1468 1.377 . S
C1482 C1481 1.373 . S
C1483 C1467 1.377 . S
C1483 C1481 1.389 . S
C1483 C1484 1.524 1_545 S
C1484 C1483 1.524 1_565 S
C1484 C1485 1.397 . S
C1484 C1489 1.363 . S
C1485 H1456 0.950 . S
C1485 C1484 1.397 . S
C1485 C1486 1.334 . S
C1486 H1457 0.950 . S
C1486 C1485 1.334 . S
C1486 C1487 1.287 . S
C1487 C1486 1.287 . S
C1487 C1488 1.524 . S
C1487 H1490 0.999 . S
C1488 H1458 0.950 . S
C1488 C1487 1.524 . S
C1488 C1489 1.415 . S
C1489 H1459 0.972 . S
C1489 C1484 1.363 . S
C1489 C1488 1.415 . S
H1490 C1487 0.999 . S
H1491 C1472 0.913 . S
H1492 C1510 0.951 . S
H1493 C1512 0.951 . S
H1494 C1514 0.950 . S
H1495 C1515 0.950 . S
H1496 C1517 0.950 . S
H1497 C1520 0.950 . S
H1498 C1521 0.950 . S
H1499 C1523 0.950 . S
H1500 C1524 0.950 . S
H1501 C1525 0.951 . S
H1502 C1527 0.951 . S
H1503 C1529 0.950 . S
H1504 C1530 0.950 . S
H1505 C1532 0.950 . S
H1506 C1535 0.950 . S
H1507 C1536 0.950 . S
H1508 C1538 0.950 . S
H1509 C1539 0.950 . S
C1510 H1492 0.951 . S
C1510 C1511 1.366 . S
C1510 C1512 1.388 . S
C1511 C1510 1.366 . S
C1511 C1515 1.385 . S
C1512 H1493 0.951 . S
C1512 C1510 1.388 . S
C1512 C1513 1.366 . S
C1513 C1512 1.366 . S
C1513 C1514 1.414 . S
C1513 C1516 1.499 . S
C1514 H1494 0.950 . S
C1514 C1513 1.414 . S
C1514 C1515 1.374 . S
C1515 H1495 0.950 . S
C1515 C1511 1.385 . S
C1515 C1514 1.374 . S
C1516 C1513 1.499 . S
C1516 C1517 1.373 . S
C1516 C1518 1.389 . S
C1517 H1496 0.950 . S
C1517 C1516 1.373 . S
C1517 C1533 1.377 . S
C1518 C1516 1.389 . S
C1518 C1519 1.524 . S
C1518 C1532 1.377 . S
C1519 C1518 1.524 . S
C1519 C1520 1.397 . S
C1519 C1524 1.363 . S
C1520 H1497 0.950 . S
C1520 C1519 1.397 . S
C1520 C1521 1.334 . S
C1521 H1498 0.950 . S
C1521 C1520 1.334 . S
C1521 C1522 1.287 . S
C1522 C1521 1.287 . S
C1522 C1523 1.524 . S
C1522 H1541 0.913 . S
C1523 H1499 0.950 . S
C1523 C1522 1.524 . S
C1523 C1524 1.415 . S
C1524 H1500 0.950 . S
C1524 C1519 1.363 . S
C1524 C1523 1.415 . S
C1525 H1501 0.951 . S
C1525 C1526 1.366 . S
C1525 C1527 1.388 . S
C1526 C1525 1.366 . S
C1526 C1530 1.385 . S
C1527 H1502 0.951 . S
C1527 C1525 1.388 . S
C1527 C1528 1.366 . S
C1528 C1527 1.366 . S
C1528 C1529 1.414 . S
C1528 C1531 1.499 . S
C1529 H1503 0.950 . S
C1529 C1528 1.414 . S
C1529 C1530 1.374 . S
C1530 H1504 0.950 . S
C1530 C1526 1.385 . S
C1530 C1529 1.374 . S
C1531 C1528 1.499 . S
C1531 C1532 1.373 . S
C1531 C1533 1.389 . S
C1532 H1505 0.950 . S
C1532 C1518 1.377 . S
C1532 C1531 1.373 . S
C1533 C1517 1.377 . S
C1533 C1531 1.389 . S
C1533 C1534 1.524 . S
C1534 C1533 1.524 . S
C1534 C1535 1.397 . S
C1534 C1539 1.363 . S
C1535 H1506 0.950 . S
C1535 C1534 1.397 . S
C1535 C1536 1.334 . S
C1536 H1507 0.950 . S
C1536 C1535 1.334 . S
C1536 C1537 1.287 . S
C1537 C1536 1.287 . S
C1537 C1538 1.524 . S
C1537 H1540 0.999 . S
C1538 H1508 0.950 . S
C1538 C1537 1.524 . S
C1538 C1539 1.415 . S
C1539 H1509 0.950 . S
C1539 C1534 1.363 . S
C1539 C1538 1.415 . S
H1540 C1537 0.999 . S
H1541 C1522 0.913 . S
H1542 C1560 0.951 . S
H1543 C1562 0.951 . S
H1544 C1564 0.950 . S
H1545 C1565 0.950 . S
H1546 C1567 0.950 . S
H1547 C1570 0.950 . S
H1548 C1571 0.950 . S
H1549 C1573 0.950 . S
H1550 C1574 0.950 . S
H1551 C1575 0.951 . S
H1552 C1577 0.951 . S
H1553 C1579 0.950 . S
H1554 C1580 0.950 . S
H1555 C1582 0.950 . S
H1556 C1585 0.950 . S
H1557 C1586 0.950 . S
H1558 C1588 0.950 . S
H1559 C1589 0.950 . S
C1560 H1542 0.951 . S
C1560 C1561 1.366 . S
C1560 C1562 1.388 . S
C1561 C1560 1.366 . S
C1561 C1565 1.385 . S
C1562 H1543 0.951 . S
C1562 C1560 1.388 . S
C1562 C1563 1.366 . S
C1563 C1562 1.366 . S
C1563 C1564 1.414 . S
C1563 C1566 1.499 . S
C1564 H1544 0.950 . S
C1564 C1563 1.414 . S
C1564 C1565 1.374 . S
C1565 H1545 0.950 . S
C1565 C1561 1.385 . S
C1565 C1564 1.374 . S
C1566 C1563 1.499 . S
C1566 C1567 1.373 . S
C1566 C1568 1.389 . S
C1567 H1546 0.950 . S
C1567 C1566 1.373 . S
C1567 C1583 1.377 . S
C1568 C1566 1.389 . S
C1568 C1569 1.524 . S
C1568 C1582 1.377 . S
C1569 C1568 1.524 . S
C1569 C1570 1.397 . S
C1569 C1574 1.363 . S
C1570 H1547 0.950 . S
C1570 C1569 1.397 . S
C1570 C1571 1.334 . S
C1571 H1548 0.950 . S
C1571 C1570 1.334 . S
C1571 C1572 1.287 . S
C1572 C1571 1.287 . S
C1572 C1573 1.524 . S
C1572 H1591 0.913 . S
C1573 H1549 0.950 . S
C1573 C1572 1.524 . S
C1573 C1574 1.415 . S
C1574 H1550 0.950 . S
C1574 C1569 1.363 . S
C1574 C1573 1.415 . S
C1575 H1551 0.951 . S
C1575 C1576 1.366 . S
C1575 C1577 1.388 . S
C1576 C1575 1.366 . S
C1576 C1580 1.385 . S
C1577 H1552 0.951 . S
C1577 C1575 1.388 . S
C1577 C1578 1.366 . S
C1578 C1577 1.366 . S
C1578 C1579 1.414 . S
C1578 C1581 1.499 . S
C1579 H1553 0.950 . S
C1579 C1578 1.414 . S
C1579 C1580 1.374 . S
C1580 H1554 0.950 . S
C1580 C1576 1.385 . S
C1580 C1579 1.374 . S
C1581 C1578 1.499 . S
C1581 C1582 1.373 . S
C1581 C1583 1.389 . S
C1582 H1555 0.950 . S
C1582 C1568 1.377 . S
C1582 C1581 1.373 . S
C1583 C1567 1.377 . S
C1583 C1581 1.389 . S
C1583 C1584 1.524 . S
C1584 C1583 1.524 . S
C1584 C1585 1.397 . S
C1584 C1589 1.363 . S
C1585 H1556 0.950 . S
C1585 C1584 1.397 . S
C1585 C1586 1.334 . S
C1586 H1557 0.950 . S
C1586 C1585 1.334 . S
C1586 C1587 1.287 . S
C1587 C1586 1.287 . S
C1587 C1588 1.524 . S
C1587 H1590 0.999 . S
C1588 H1558 0.950 . S
C1588 C1587 1.524 . S
C1588 C1589 1.415 . S
C1589 H1559 0.950 . S
C1589 C1584 1.363 . S
C1589 C1588 1.415 . S
H1590 C1587 0.999 . S
H1591 C1572 0.913 . S
H1592 C1610 0.951 . S
H1593 C1612 0.951 . S
H1594 C1614 0.950 . S
H1595 C1615 0.950 . S
H1596 C1617 0.950 . S
H1597 C1620 0.950 . S
H1598 C1621 0.950 . S
H1599 C1623 0.950 . S
H1600 C1624 0.950 . S
H1601 C1625 0.951 . S
H1602 C1627 0.951 . S
H1603 C1629 0.950 . S
H1604 C1630 0.950 1_455 S
H1605 C1632 0.950 1_455 S
H1606 C1635 0.950 . S
H1607 C1636 0.950 . S
H1608 C1638 0.950 . S
H1609 C1639 0.950 . S
C1610 H1592 0.951 . S
C1610 C1611 1.366 . S
C1610 C1612 1.388 . S
C1611 C1610 1.366 . S
C1611 C1615 1.385 . S
C1612 H1593 0.951 . S
C1612 C1610 1.388 . S
C1612 C1613 1.366 . S
C1613 C1612 1.366 . S
C1613 C1614 1.414 . S
C1613 C1616 1.499 . S
C1614 H1594 0.950 . S
C1614 C1613 1.414 . S
C1614 C1615 1.374 . S
C1615 H1595 0.950 . S
C1615 C1611 1.385 . S
C1615 C1614 1.374 . S
C1616 C1613 1.499 . S
C1616 C1617 1.373 . S
C1616 C1618 1.389 . S
C1617 H1596 0.950 . S
C1617 C1616 1.373 . S
C1617 C1633 1.377 . S
C1618 C1616 1.389 . S
C1618 C1619 1.524 1_655 S
C1618 C1632 1.377 . S
C1619 C1618 1.524 1_455 S
C1619 C1620 1.397 . S
C1619 C1624 1.363 . S
C1620 H1597 0.950 . S
C1620 C1619 1.397 . S
C1620 C1621 1.334 . S
C1621 H1598 0.950 . S
C1621 C1620 1.334 . S
C1621 C1622 1.287 . S
C1622 C1621 1.287 . S
C1622 C1623 1.524 . S
C1622 H1641 0.913 . S
C1623 H1599 0.950 . S
C1623 C1622 1.524 . S
C1623 C1624 1.415 . S
C1624 H1600 0.950 . S
C1624 C1619 1.363 . S
C1624 C1623 1.415 . S
C1625 H1601 0.951 . S
C1625 C1626 1.366 . S
C1625 C1627 1.388 . S
C1626 C1625 1.366 . S
C1626 C1630 1.385 . S
C1627 H1602 0.951 . S
C1627 C1625 1.388 . S
C1627 C1628 1.366 . S
C1628 C1627 1.366 . S
C1628 C1629 1.414 . S
C1628 C1631 1.499 . S
C1629 H1603 0.950 . S
C1629 C1628 1.414 . S
C1629 C1630 1.374 . S
C1630 H1604 0.950 1_655 S
C1630 C1626 1.385 . S
C1630 C1629 1.374 . S
C1631 C1628 1.499 . S
C1631 C1632 1.373 . S
C1631 C1633 1.389 . S
C1632 H1605 0.950 1_655 S
C1632 C1618 1.377 . S
C1632 C1631 1.373 . S
C1633 C1617 1.377 . S
C1633 C1631 1.389 . S
C1633 C1634 1.524 . S
C1634 C1633 1.524 . S
C1634 C1635 1.397 . S
C1634 C1639 1.363 . S
C1635 H1606 0.950 . S
C1635 C1634 1.397 . S
C1635 C1636 1.334 . S
C1636 H1607 0.950 . S
C1636 C1635 1.334 . S
C1636 C1637 1.287 . S
C1637 C1636 1.287 . S
C1637 C1638 1.524 . S
C1637 H1640 0.999 . S
C1638 H1608 0.950 . S
C1638 C1637 1.524 . S
C1638 C1639 1.415 . S
C1639 H1609 0.950 . S
C1639 C1634 1.363 . S
C1639 C1638 1.415 . S
H1640 C1637 0.999 . S
H1641 C1622 0.913 . S
H1642 C1660 0.951 . S
H1643 C1662 0.951 . S
H1644 C1664 0.950 . S
H1645 C1665 0.950 . S
H1646 C1667 0.950 . S
H1647 C1670 0.950 . S
H1648 C1671 0.950 . S
H1649 C1673 0.950 . S
H1650 C1674 0.950 . S
H1651 C1675 0.951 . S
H1652 C1677 0.951 . S
H1653 C1679 0.950 . S
H1654 C1680 0.950 . S
H1655 C1682 0.950 . S
H1656 C1685 0.950 . S
H1657 C1686 0.950 . S
H1658 C1688 0.950 . S
H1659 C1689 0.950 . S
C1660 H1642 0.951 . S
C1660 C1661 1.366 . S
C1660 C1662 1.388 . S
C1661 C1660 1.366 . S
C1661 C1665 1.385 . S
C1662 H1643 0.951 . S
C1662 C1660 1.388 . S
C1662 C1663 1.366 . S
C1663 C1662 1.366 . S
C1663 C1664 1.414 . S
C1663 C1666 1.499 . S
C1664 H1644 0.950 . S
C1664 C1663 1.414 . S
C1664 C1665 1.374 . S
C1665 H1645 0.950 . S
C1665 C1661 1.385 . S
C1665 C1664 1.374 . S
C1666 C1663 1.499 . S
C1666 C1667 1.373 . S
C1666 C1668 1.389 . S
C1667 H1646 0.950 . S
C1667 C1666 1.373 . S
C1667 C1683 1.377 . S
C1668 C1666 1.389 . S
C1668 C1669 1.524 . S
C1668 C1682 1.377 . S
C1669 C1668 1.524 . S
C1669 C1670 1.397 . S
C1669 C1674 1.363 . S
C1670 H1647 0.950 . S
C1670 C1669 1.397 . S
C1670 C1671 1.334 . S
C1671 H1648 0.950 . S
C1671 C1670 1.334 . S
C1671 C1672 1.287 . S
C1672 C1671 1.287 . S
C1672 C1673 1.524 . S
C1672 H1691 0.913 . S
C1673 H1649 0.950 . S
C1673 C1672 1.524 . S
C1673 C1674 1.415 . S
C1674 H1650 0.950 . S
C1674 C1669 1.363 . S
C1674 C1673 1.415 . S
C1675 H1651 0.951 . S
C1675 C1676 1.366 . S
C1675 C1677 1.388 . S
C1676 C1675 1.366 . S
C1676 C1680 1.385 . S
C1677 H1652 0.951 . S
C1677 C1675 1.388 . S
C1677 C1678 1.366 . S
C1678 C1677 1.366 . S
C1678 C1679 1.414 . S
C1678 C1681 1.499 . S
C1679 H1653 0.950 . S
C1679 C1678 1.414 . S
C1679 C1680 1.374 . S
C1680 H1654 0.950 . S
C1680 C1676 1.385 . S
C1680 C1679 1.374 . S
C1681 C1678 1.499 . S
C1681 C1682 1.373 . S
C1681 C1683 1.389 . S
C1682 H1655 0.950 . S
C1682 C1668 1.377 . S
C1682 C1681 1.373 . S
C1683 C1667 1.377 . S
C1683 C1681 1.389 . S
C1683 C1684 1.524 1_565 S
C1684 C1683 1.524 1_545 S
C1684 C1685 1.397 . S
C1684 C1689 1.363 . S
C1685 H1656 0.950 . S
C1685 C1684 1.397 . S
C1685 C1686 1.334 . S
C1686 H1657 0.950 . S
C1686 C1685 1.334 . S
C1686 C1687 1.287 . S
C1687 C1686 1.287 . S
C1687 C1688 1.524 . S
C1687 H1690 0.999 . S
C1688 H1658 0.950 . S
C1688 C1687 1.524 . S
C1688 C1689 1.415 . S
C1689 H1659 0.950 . S
C1689 C1684 1.363 . S
C1689 C1688 1.415 . S
H1690 C1687 0.999 . S
H1691 C1672 0.913 . S
H1692 C1710 0.951 . S
H1693 C1712 0.951 . S
H1694 C1714 0.950 . S
H1695 C1715 0.950 . S
H1696 C1717 0.950 . S
H1697 C1720 0.950 . S
H1698 C1721 0.950 . S
H1699 C1723 0.950 . S
H1700 C1724 0.950 . S
H1701 C1725 0.951 . S
H1702 C1727 0.951 . S
H1703 C1729 0.950 . S
H1704 C1730 0.950 . S
H1705 C1732 0.950 . S
H1706 C1735 0.950 . S
H1707 C1736 0.950 . S
H1708 C1738 0.950 . S
H1709 C1739 0.950 . S
C1710 H1692 0.951 . S
C1710 C1711 1.366 . S
C1710 C1712 1.388 . S
C1711 C1710 1.366 . S
C1711 C1715 1.385 . S
C1712 H1693 0.951 . S
C1712 C1710 1.388 . S
C1712 C1713 1.366 . S
C1713 C1712 1.366 . S
C1713 C1714 1.414 . S
C1713 C1716 1.499 . S
C1714 H1694 0.950 . S
C1714 C1713 1.414 . S
C1714 C1715 1.374 . S
C1715 H1695 0.950 . S
C1715 C1711 1.385 . S
C1715 C1714 1.374 . S
C1716 C1713 1.499 . S
C1716 C1717 1.373 . S
C1716 C1718 1.389 . S
C1717 H1696 0.950 . S
C1717 C1716 1.373 . S
C1717 C1733 1.377 . S
C1718 C1716 1.389 . S
C1718 C1719 1.524 . S
C1718 C1732 1.377 . S
C1719 C1718 1.524 . S
C1719 C1720 1.397 . S
C1719 C1724 1.363 . S
C1720 H1697 0.950 . S
C1720 C1719 1.397 . S
C1720 C1721 1.334 . S
C1721 H1698 0.950 . S
C1721 C1720 1.334 . S
C1721 C1722 1.287 . S
C1722 C1721 1.287 . S
C1722 C1723 1.524 . S
C1722 H1741 0.913 . S
C1723 H1699 0.950 . S
C1723 C1722 1.524 . S
C1723 C1724 1.415 . S
C1724 H1700 0.950 . S
C1724 C1719 1.363 . S
C1724 C1723 1.415 . S
C1725 H1701 0.951 . S
C1725 C1726 1.366 . S
C1725 C1727 1.388 . S
C1726 C1725 1.366 . S
C1726 C1730 1.385 . S
C1727 H1702 0.951 . S
C1727 C1725 1.388 . S
C1727 C1728 1.366 . S
C1728 C1727 1.366 . S
C1728 C1729 1.414 . S
C1728 C1731 1.499 . S
C1729 H1703 0.950 . S
C1729 C1728 1.414 . S
C1729 C1730 1.374 . S
C1730 H1704 0.950 . S
C1730 C1726 1.385 . S
C1730 C1729 1.374 . S
C1731 C1728 1.499 . S
C1731 C1732 1.373 . S
C1731 C1733 1.389 . S
C1732 H1705 0.950 . S
C1732 C1718 1.377 . S
C1732 C1731 1.373 . S
C1733 C1717 1.377 . S
C1733 C1731 1.389 . S
C1733 C1734 1.524 . S
C1734 C1733 1.524 . S
C1734 C1735 1.397 . S
C1734 C1739 1.363 . S
C1735 H1706 0.950 . S
C1735 C1734 1.397 . S
C1735 C1736 1.334 . S
C1736 H1707 0.950 . S
C1736 C1735 1.334 . S
C1736 C1737 1.287 . S
C1737 C1736 1.287 . S
C1737 C1738 1.524 . S
C1737 H1740 0.999 . S
C1738 H1708 0.950 . S
C1738 C1737 1.524 . S
C1738 C1739 1.415 . S
C1739 H1709 0.950 . S
C1739 C1734 1.363 . S
C1739 C1738 1.415 . S
H1740 C1737 0.999 . S
H1741 C1722 0.913 . S
H1742 C1760 0.951 . S
H1743 C1762 0.951 . S
H1744 C1764 0.950 . S
H1745 C1765 0.950 . S
H1746 C1767 0.950 . S
H1747 C1770 0.950 . S
H1748 C1771 0.950 . S
H1749 C1773 0.950 . S
H1750 C1774 0.950 . S
H1751 C1775 0.951 . S
H1752 C1777 0.951 . S
H1753 C1779 0.950 . S
H1754 C1780 0.950 . S
H1755 C1782 0.950 . S
H1756 C1785 0.950 . S
H1757 C1786 0.950 . S
H1758 C1788 0.950 . S
H1759 C1789 0.950 . S
C1760 H1742 0.951 . S
C1760 C1761 1.366 . S
C1760 C1762 1.388 . S
C1761 C1760 1.366 . S
C1761 C1765 1.385 . S
C1762 H1743 0.951 . S
C1762 C1760 1.388 . S
C1762 C1763 1.366 . S
C1763 C1762 1.366 . S
C1763 C1764 1.414 . S
C1763 C1766 1.499 . S
C1764 H1744 0.950 . S
C1764 C1763 1.414 . S
C1764 C1765 1.374 . S
C1765 H1745 0.950 . S
C1765 C1761 1.385 . S
C1765 C1764 1.374 . S
C1766 C1763 1.499 . S
C1766 C1767 1.373 . S
C1766 C1768 1.389 . S
C1767 H1746 0.950 . S
C1767 C1766 1.373 . S
C1767 C1783 1.377 . S
C1768 C1766 1.389 . S
C1768 C1769 1.524 . S
C1768 C1782 1.377 . S
C1769 C1768 1.524 . S
C1769 C1770 1.397 . S
C1769 C1774 1.363 . S
C1770 H1747 0.950 . S
C1770 C1769 1.397 . S
C1770 C1771 1.334 . S
C1771 H1748 0.950 . S
C1771 C1770 1.334 . S
C1771 C1772 1.287 . S
C1772 C1771 1.287 . S
C1772 C1773 1.524 . S
C1772 H1791 0.913 . S
C1773 H1749 0.950 . S
C1773 C1772 1.524 . S
C1773 C1774 1.415 . S
C1774 H1750 0.950 . S
C1774 C1769 1.363 . S
C1774 C1773 1.415 . S
C1775 H1751 0.951 . S
C1775 C1776 1.366 . S
C1775 C1777 1.388 . S
C1776 C1775 1.366 . S
C1776 C1780 1.385 . S
C1777 H1752 0.951 . S
C1777 C1775 1.388 . S
C1777 C1778 1.366 . S
C1778 C1777 1.366 . S
C1778 C1779 1.414 . S
C1778 C1781 1.499 . S
C1779 H1753 0.950 . S
C1779 C1778 1.414 . S
C1779 C1780 1.374 . S
C1780 H1754 0.950 . S
C1780 C1776 1.385 . S
C1780 C1779 1.374 . S
C1781 C1778 1.499 . S
C1781 C1782 1.373 . S
C1781 C1783 1.389 . S
C1782 H1755 0.950 . S
C1782 C1768 1.377 . S
C1782 C1781 1.373 . S
C1783 C1767 1.377 . S
C1783 C1781 1.389 . S
C1783 C1784 1.524 . S
C1784 C1783 1.524 . S
C1784 C1785 1.397 . S
C1784 C1789 1.363 . S
C1785 H1756 0.950 . S
C1785 C1784 1.397 . S
C1785 C1786 1.334 . S
C1786 H1757 0.950 . S
C1786 C1785 1.334 . S
C1786 C1787 1.287 . S
C1787 C1786 1.287 . S
C1787 C1788 1.524 . S
C1787 H1790 0.999 . S
C1788 H1758 0.950 . S
C1788 C1787 1.524 . S
C1788 C1789 1.415 . S
C1789 H1759 0.950 . S
C1789 C1784 1.363 . S
C1789 C1788 1.415 . S
H1790 C1787 0.999 . S
H1791 C1772 0.913 . S
C611 C215 1.973 . S
C626 C324 2.042 . S
C676 C407 2.063 . S
C661 C247 1.989 . S
C726 C492 2.030 . S
C711 C151 1.959 . S
C776 C576 2.014 . S
C761 C183 1.944 . S
C826 C312 2.042 1_565 S
C811 C87 1.908 . S
C861 C119 1.923 . S
C876 C395 2.063 . S
C911 C23 1.899 . S
C926 C480 2.031 . S
C961 C55 1.881 . S
C976 C564 2.013 1_655 S
C1026 C314 0.451 1_455 S
C1011 C189 0.286 . S
C1076 C410 0.537 . S
C1061 C221 0.242 . S
C1126 C482 0.452 . S
C1111 C253 0.294 . S
C1161 C157 0.268 . S
C1176 C566 0.444 . S
C1211 C61 0.484 . S
C1226 C326 0.452 . S
C1276 C398 0.534 . S
C1261 C93 0.481 . S
C1326 C494 0.453 . S
C1311 C125 0.492 . S
C1361 C29 0.480 . S
C1376 C578 0.446 . S
C1411 C177 2.195 . S
C1426 C311 2.360 . S
C1461 C209 2.186 . S
C1476 C396 2.357 . S
C1526 C479 2.385 . S
C1511 C241 2.220 . S
C1576 C563 2.389 . S
C1561 C145 2.223 . S
C1611 C49 2.144 . S
C1626 C323 2.360 . S
C1676 C408 2.357 . S
C1661 C81 2.130 . S
C1726 C491 2.386 . S
C1711 C113 2.165 . S
C1761 C17 2.173 . S
C1776 C575 2.390 . S
