# Generated by pormake.
# Topology zzz, (3,6)-cn, num edge types: 1
# Building blocks:
#     Node 0, Type 0, BuildingBlock: BETDAH_clean_linker_0, # of connection points: 3
#     Node 1, Type 0, BuildingBlock: BETDAH_clean_linker_0, # of connection points: 3
#     Node 2, Type 0, BuildingBlock: BETDAH_clean_linker_0, # of connection points: 3
#     Node 3, Type 0, BuildingBlock: BETDAH_clean_linker_0, # of connection points: 3
#     Node 4, Type 0, BuildingBlock: BETDAH_clean_linker_0, # of connection points: 3
#     Node 5, Type 0, BuildingBlock: BETDAH_clean_linker_0, # of connection points: 3
#     Node 6, Type 0, BuildingBlock: BETDAH_clean_linker_0, # of connection points: 3
#     Node 7, Type 0, BuildingBlock: BETDAH_clean_linker_0, # of connection points: 3
#     Node 8, Type 1, BuildingBlock: CUKXOW_clean_sbu_0, # of connection points: 6
#     Node 9, Type 1, BuildingBlock: CUKXOW_clean_sbu_0, # of connection points: 6
#     Node 10, Type 1, BuildingBlock: CUKXOW_clean_sbu_0, # of connection points: 6
#     Node 11, Type 1, BuildingBlock: CUKXOW_clean_sbu_0, # of connection points: 6
#     Edge 12, Type (0, 1), BuildingBlock: EZIPEK_clean_linker_0, # of connection points: 2
#     Edge 13, Type (0, 1), BuildingBlock: EZIPEK_clean_linker_0, # of connection points: 2
#     Edge 14, Type (0, 1), BuildingBlock: EZIPEK_clean_linker_0, # of connection points: 2
#     Edge 15, Type (0, 1), BuildingBlock: EZIPEK_clean_linker_0, # of connection points: 2
#     Edge 16, Type (0, 1), BuildingBlock: EZIPEK_clean_linker_0, # of connection points: 2
#     Edge 17, Type (0, 1), BuildingBlock: EZIPEK_clean_linker_0, # of connection points: 2
#     Edge 18, Type (0, 1), BuildingBlock: EZIPEK_clean_linker_0, # of connection points: 2
#     Edge 19, Type (0, 1), BuildingBlock: EZIPEK_clean_linker_0, # of connection points: 2
#     Edge 20, Type (0, 1), BuildingBlock: EZIPEK_clean_linker_0, # of connection points: 2
#     Edge 21, Type (0, 1), BuildingBlock: EZIPEK_clean_linker_0, # of connection points: 2
#     Edge 22, Type (0, 1), BuildingBlock: EZIPEK_clean_linker_0, # of connection points: 2
#     Edge 23, Type (0, 1), BuildingBlock: EZIPEK_clean_linker_0, # of connection points: 2
#     Edge 24, Type (0, 1), BuildingBlock: EZIPEK_clean_linker_0, # of connection points: 2
#     Edge 25, Type (0, 1), BuildingBlock: EZIPEK_clean_linker_0, # of connection points: 2
#     Edge 26, Type (0, 1), BuildingBlock: EZIPEK_clean_linker_0, # of connection points: 2
#     Edge 27, Type (0, 1), BuildingBlock: EZIPEK_clean_linker_0, # of connection points: 2
#     Edge 28, Type (0, 1), BuildingBlock: EZIPEK_clean_linker_0, # of connection points: 2
#     Edge 29, Type (0, 1), BuildingBlock: EZIPEK_clean_linker_0, # of connection points: 2
#     Edge 30, Type (0, 1), BuildingBlock: EZIPEK_clean_linker_0, # of connection points: 2
#     Edge 31, Type (0, 1), BuildingBlock: EZIPEK_clean_linker_0, # of connection points: 2
#     Edge 32, Type (0, 1), BuildingBlock: EZIPEK_clean_linker_0, # of connection points: 2
#     Edge 33, Type (0, 1), BuildingBlock: EZIPEK_clean_linker_0, # of connection points: 2
#     Edge 34, Type (0, 1), BuildingBlock: EZIPEK_clean_linker_0, # of connection points: 2
#     Edge 35, Type (0, 1), BuildingBlock: EZIPEK_clean_linker_0, # of connection points: 2
# Relax obj value: 0.061
# Max RMSD: 0.120
# Mean RMSD: 0.079
data_MOF--net-zzz--node1-CUKXOW_clean_sbu_0--node2-BETDAH_clean_linker_0--edge1-EZIPEK_clean_linker_0
_symmetry_space_group_name_H-M    P1
_symmetry_Int_Tables_number       1
_symmetry_cell_setting            triclinic
loop_
_symmetry_equiv_pos_as_xyz
'x, y, z'
_cell_length_a     36.868992
_cell_length_b     38.884544
_cell_length_c     12.014296
_cell_angle_alpha  93.980516
_cell_angle_beta   86.37478
_cell_angle_gamma 94.152868
loop_
_atom_site_label
_atom_site_type_symbol
_atom_site_fract_x
_atom_site_fract_y
_atom_site_fract_z
_atom_type_partial_charge
H0 H 0.86117 0.49557 0.13951 0.0
H1 H 0.77393 0.49456 0.91762 0.0
H2 H 0.75127 0.49868 0.27591 0.0
C3 C 0.83224 0.49532 0.12665 0.0
C4 C 0.80766 0.49712 0.21905 0.0
C5 C 0.82058 0.49469 0.01826 0.0
C6 C 0.78304 0.49467 0.00157 0.0
C7 C 0.75775 0.49571 0.09548 0.0
C8 C 0.77041 0.49717 0.20374 0.0
N9 N 0.71961 0.49654 0.08651 0.0
C10 C 0.70102 0.49103 -0.01094 0.0
H11 H 0.00946 0.86573 0.08296 0.0
H12 H 0.9961 0.77293 0.86907 0.0
H13 H 0.96244 0.7728 0.21992 0.0
C14 C 1.00219 0.83816 0.07247 0.0
C15 C 0.98633 0.82113 0.16324 0.0
C16 C 0.00501 0.82133 0.96596 0.0
C17 C 0.99466 0.78585 0.95189 0.0
C18 C 0.98007 0.76799 0.04499 0.0
C19 C 0.97528 0.78601 0.14966 0.0
N20 N 0.96755 0.73265 0.0359 0.0
C21 C 0.97704 0.70929 0.94812 0.0
H22 H 0.63702 0.01549 0.14748 0.0
H23 H 0.74416 0.01546 -0.01545 0.0
H24 H 0.73009 0.02859 0.34459 0.0
C25 C 0.66641 0.01725 0.15166 0.0
C26 C 0.68077 0.02116 0.25638 0.0
C27 C 0.68867 0.0159 0.05289 0.0
C28 C 0.72669 0.01763 0.06017 0.0
C29 C 0.74173 0.02261 0.16617 0.0
C30 C 0.71859 0.02476 0.26345 0.0
N31 N 0.77982 0.02562 0.17908 0.0
C32 C 0.80622 0.02376 0.09174 0.0
H33 H 0.54383 0.64905 0.16229 0.0
H34 H 0.56265 0.72873 0.93089 0.0
H35 H 0.59858 0.74586 0.267 0.0
C36 C 0.55395 0.67514 0.14429 0.0
C37 C 0.57069 0.69633 0.227 0.0
C38 C 0.55137 0.68633 0.03751 0.0
C39 C 0.56434 0.72009 0.01407 0.0
C40 C 0.58141 0.74176 0.09751 0.0
C41 C 0.58507 0.72949 0.20326 0.0
N42 N 0.59642 0.77542 0.07647 0.0
C43 C 0.58147 0.7966 0.00571 0.0
H44 H 0.15657 0.52379 0.25632 0.0
H45 H 0.2426 0.5426 0.48274 0.0
H46 H 0.26655 0.54194 0.1253 0.0
C47 C 0.18532 0.5291 0.27042 0.0
C48 C 0.21015 0.5321 0.17912 0.0
C49 C 0.19659 0.53277 0.37938 0.0
C50 C 0.23385 0.53959 0.39806 0.0
C51 C 0.25933 0.54316 0.3056 0.0
C52 C 0.24719 0.5393 0.19642 0.0
N53 N 0.29707 0.55153 0.31792 0.0
C54 C 0.3154 0.54839 0.41401 0.0
H55 H 0.01709 0.14396 0.37607 0.0
H56 H 0.03274 0.23048 0.61452 0.0
H57 H 0.07942 0.2353 0.27734 0.0
C58 C 0.02669 0.1707 0.39503 0.0
C59 C 0.04767 0.18828 0.31412 0.0
C60 C 0.02226 0.18505 0.50382 0.0
C61 C 0.03516 0.21949 0.52924 0.0
C62 C 0.05526 0.238 0.4462 0.0
C63 C 0.06223 0.22194 0.33941 0.0
N64 N 0.07275 0.27089 0.47208 0.0
C65 C 0.05456 0.29823 0.52369 0.0
H66 H 0.38589 0.01464 0.37749 0.0
H67 H 0.27686 0.01369 0.52478 0.0
H68 H 0.30245 0.0546 0.20129 0.0
C69 C 0.35758 0.02031 0.37351 0.0
C70 C 0.34674 0.03428 0.27884 0.0
C71 C 0.33284 0.01345 0.46296 0.0
C72 C 0.29608 0.01992 0.45633 0.0
C73 C 0.28511 0.03561 0.36229 0.0
C74 C 0.3108 0.04319 0.27457 0.0
N75 N 0.24885 0.04443 0.35264 0.0
C76 C 0.21908 0.03309 0.42027 0.0
H77 H 0.47991 0.37505 0.2664 0.0
H78 H 0.47199 0.29061 0.48069 0.0
H79 H 0.43915 0.27478 0.14064 0.0
C80 C 0.47351 0.34781 0.27867 0.0
C81 C 0.45939 0.3264 0.19196 0.0
C82 C 0.47778 0.33527 0.38268 0.0
C83 C 0.46917 0.30013 0.39933 0.0
C84 C 0.45573 0.27797 0.31064 0.0
C85 C 0.45036 0.29146 0.20787 0.0
N86 N 0.44631 0.24231 0.32164 0.0
C87 C 0.45391 0.22392 0.41147 0.0
Tb88 Tb 0.99614 0.98424 0.64123 0.0
C89 C 0.08077 1.00188 0.65081 0.0
Tb90 Tb 0.02671 0.02139 0.85457 0.0
O91 O 0.97644 0.03219 0.58764 0.0
O92 O 0.0197 0.03377 0.68972 0.0
O93 O 0.05495 0.97976 0.61068 0.0
C94 C 0.03969 0.07378 0.00628 0.0
O95 O 0.0743 0.02396 0.73745 0.0
C96 C 0.02431 0.95396 0.84707 0.0
C97 C 0.93983 0.00902 0.83002 0.0
O98 O 0.0635 0.05269 0.96425 0.0
O99 O 0.00844 0.06403 0.96697 0.0
O100 O 0.04543 0.97341 0.91214 0.0
O101 O 1.00301 0.97284 0.80669 0.0
O102 O 0.96754 0.02197 0.88961 0.0
O103 O 0.94427 0.99257 0.7302 0.0
C104 C 0.97993 0.92988 0.50354 0.0
O105 O 0.9746 0.931 0.61131 0.0
O106 O 0.9931 0.9599 0.47213 0.0
C107 C 0.99739 0.05238 0.65183 0.0
Tb108 Tb 0.50724 0.05564 0.75038 0.0
C109 C 0.56237 0.01308 0.59472 0.0
Tb110 Tb 0.51247 0.97795 0.78725 0.0
O111 O 0.56309 0.07114 0.79665 0.0
O112 O 0.53664 0.02575 0.84678 0.0
O113 O 0.54497 0.0418 0.61225 0.0
C114 C 0.53146 0.91552 0.82971 0.0
O115 O 0.55449 0.98559 0.65337 0.0
C116 C 0.45058 0.99307 0.71106 0.0
C117 C 0.46814 0.02315 0.96535 0.0
O118 O 0.52521 0.92487 0.73144 0.0
O119 O 0.52669 0.94096 0.90308 0.0
O120 O 0.45494 0.96567 0.76267 0.0
O121 O 0.48182 0.00754 0.68765 0.0
O122 O 0.48729 0.99551 0.94797 0.0
O123 O 0.47134 0.04915 0.89925 0.0
C124 C 0.48479 0.11228 0.66947 0.0
O125 O 0.49506 0.11036 0.77056 0.0
O126 O 0.48646 0.08226 0.61591 0.0
C127 C 0.56752 0.04195 0.83936 0.0
Tb128 Tb 0.5245 0.53505 0.61627 0.0
C129 C 0.43694 0.52759 0.66503 0.0
Tb130 Tb 0.49015 0.48861 0.80133 0.0
O131 O 0.53661 0.4897 0.50388 0.0
O132 O 0.49393 0.488 0.62668 0.0
O133 O 0.46579 0.54149 0.60677 0.0
C134 C 0.46785 0.43044 0.89533 0.0
O135 O 0.44011 0.50654 0.74581 0.0
C136 C 0.50503 0.55359 0.86187 0.0
C137 C 0.57694 0.49302 0.74268 0.0
O138 O 0.46746 0.43515 0.78982 0.0
O139 O 0.47996 0.45873 0.949 0.0
O140 O 0.48011 0.5343 0.91489 0.0
O141 O 0.52211 0.53485 0.79047 0.0
O142 O 0.5477 0.47614 0.78966 0.0
O143 O 0.57397 0.52053 0.6849 0.0
C144 C 0.54535 0.59452 0.52765 0.0
O145 O 0.54824 0.56407 0.47682 0.0
O146 O 0.53097 0.59138 0.62798 0.0
C147 C 0.51224 0.46977 0.55673 0.0
Tb148 Tb 0.98205 0.5048 0.60081 0.0
C149 C 0.01526 0.43593 0.65006 0.0
Tb150 Tb 0.0356 0.50648 0.79161 0.0
O151 O 0.02745 0.50055 0.47248 0.0
O152 O 0.0353 0.52402 0.63099 0.0
O153 O 0.98656 0.44972 0.61416 0.0
C154 C 0.10009 0.51236 0.88015 0.0
O155 O 0.03976 0.45418 0.71136 0.0
C156 C 0.96623 0.49808 0.85215 0.0
C157 C 1.0005 0.57588 0.74393 0.0
O158 O 0.07106 0.49587 0.923 0.0
O159 O 0.09283 0.52504 0.78791 0.0
O160 O 0.99081 0.50992 0.92138 0.0
O161 O 0.98222 0.4876 0.76196 0.0
O162 O 0.02243 0.56043 0.80577 0.0
O163 O 0.98377 0.55966 0.65819 0.0
C164 C 0.91814 0.50663 0.51335 0.0
O165 O 0.94772 0.49724 0.45827 0.0
O166 O 0.92452 0.51523 0.61671 0.0
C167 C 0.05155 0.51304 0.54223 0.0
C168 C 0.15397 0.01369 0.41529 0.0
C169 C 0.18491 0.02237 0.47818 0.0
C170 C 0.14885 0.00963 0.64983 0.0
C171 C 0.11679 0.00579 0.58915 0.0
N172 N 0.0885 0.01304 0.41608 0.0
N173 N 0.21048 0.0354 0.65731 0.0
C174 C 0.11914 0.00986 0.47202 0.0
C175 C 0.18209 0.0222 0.59612 0.0
N176 N 0.15768 0.00959 0.30127 0.0
N177 N 0.14774 1.00068 0.75806 0.0
H178 H 0.23467 0.0462 0.62078 0.0
H179 H 0.20856 0.03891 0.7442 0.0
H180 H 0.12407 0.99057 0.79957 0.0
H181 H 0.171 0.99998 0.80256 0.0
H182 H 0.13645 0.99986 0.2523 0.0
H183 H 0.18273 0.01294 0.25642 0.0
H184 H 0.08931 0.01934 0.33304 0.0
H185 H 0.06245 0.0135 0.45477 0.0
C186 C 0.43226 0.17325 0.51466 0.0
C187 C 0.45983 0.19952 0.49342 0.0
C188 C 0.50069 0.17282 0.61036 0.0
C189 C 0.47491 0.14386 0.61837 0.0
N190 N 0.41725 0.11505 0.56852 0.0
N191 N 0.52078 0.22454 0.51449 0.0
C192 C 0.44091 0.14374 0.56825 0.0
C193 C 0.49406 0.19966 0.54067 0.0
N194 N 0.39763 0.17664 0.48406 0.0
N195 N 0.53188 0.17437 0.66681 0.0
H196 H 0.51643 0.24499 0.46624 0.0
H197 H 0.54777 0.22397 0.53459 0.0
H198 H 0.53938 0.15433 0.71169 0.0
H199 H 0.5495 0.19644 0.67495 0.0
H200 H 0.37535 0.16014 0.50729 0.0
H201 H 0.39047 0.19797 0.44424 0.0
H202 H 0.3942 0.11181 0.52209 0.0
H203 H 0.42184 0.09326 0.60923 0.0
C204 C 0.34542 0.51086 0.53348 0.0
C205 C 0.34008 0.54429 0.50121 0.0
C206 C 0.39284 0.56818 0.60247 0.0
C207 C 0.39974 0.53423 0.63002 0.0
N208 N 0.37327 0.47581 0.65734 0.0
N209 N 0.35156 0.60577 0.52769 0.0
C210 C 0.37311 0.50636 0.60754 0.0
C211 C 0.36147 0.57332 0.5436 0.0
N212 N 0.32494 0.48303 0.48957 0.0
N213 N 0.41661 0.59548 0.63141 0.0
H214 H 0.3287 0.61 0.48479 0.0
H215 H 0.36386 0.62832 0.56434 0.0
H216 H 0.43771 0.59347 0.68374 0.0
H217 H 0.41616 0.61993 0.6016 0.0
H218 H 0.33105 0.45753 0.49607 0.0
H219 H 0.30308 0.48547 0.44019 0.0
H220 H 0.35211 0.45662 0.65227 0.0
H221 H 0.39181 0.47032 0.71378 0.0
C222 C 0.02364 0.34937 0.48203 0.0
C223 C 0.03858 0.33028 0.56167 0.0
C224 C 0.02886 0.37712 0.7049 0.0
C225 C 0.02031 0.39868 0.62065 0.0
N226 N 0.01366 0.40586 0.42384 0.0
N227 N 0.0569 0.32543 0.74833 0.0
C228 C 0.01822 0.38488 0.50793 0.0
C229 C 0.04147 0.3439 0.67327 0.0
N230 N 0.01471 0.33357 0.38122 0.0
N231 N 0.02349 0.3878 0.81516 0.0
H232 H 0.06485 0.30038 0.72885 0.0
H233 H 0.06371 0.33564 0.82734 0.0
H234 H 0.0125 0.41118 0.84149 0.0
H235 H 0.02619 0.37201 0.88028 0.0
H236 H 1.00017 0.34517 0.32416 0.0
H237 H 0.0186 0.30757 0.3595 0.0
H238 H 0.01641 0.39774 0.33946 0.0
H239 H 0.01068 0.43225 0.43616 0.0
C240 C 0.86339 0.04993 0.00549 0.0
C241 C 0.83674 0.02194 0.01005 0.0
C242 C 0.87506 0.98597 0.88334 0.0
C243 C 0.90229 0.014 0.87923 0.0
N244 N 0.91698 0.07549 0.90789 0.0
N245 N 0.81232 0.96694 0.93381 0.0
C246 C 0.89476 0.0469 0.93163 0.0
C247 C 0.84097 0.99119 0.94214 0.0
N248 N 0.85928 0.0791 0.07427 0.0
N249 N 0.88214 0.9538 0.83767 0.0
H250 H 0.78737 0.96958 0.97847 0.0
H251 H 0.8121 0.94578 0.87566 0.0
H252 H 0.90573 0.94818 0.79031 0.0
H253 H 0.86538 0.93169 0.85275 0.0
H254 H 0.87992 0.09855 0.08539 0.0
H255 H 0.83586 0.08291 0.12582 0.0
H256 H 0.91093 0.10059 0.93472 0.0
H257 H 0.93964 0.07466 0.85164 0.0
C258 C 0.53139 0.8341 -0.01635 0.0
C259 C 0.56567 0.82222 0.94505 0.0
C260 C 0.57551 0.86888 0.8174 0.0
C261 C 0.5414 0.8811 0.85714 0.0
N262 N 0.4831 0.87136 0.95617 0.0
N263 N 0.61632 0.82226 0.80865 0.0
C264 C 0.51813 0.86239 0.93357 0.0
C265 C 0.58636 0.83761 0.85601 0.0
N266 N 0.51214 0.81905 0.07075 0.0
N267 N 0.59844 0.88818 0.74845 0.0
H268 H 0.62487 0.79944 0.83606 0.0
H269 H 0.63071 0.83031 0.73662 0.0
H270 H 0.59137 0.91107 0.71779 0.0
H271 H 0.62535 0.88281 0.7273 0.0
H272 H 0.48924 0.82914 0.11226 0.0
H273 H 0.52019 0.79717 0.10562 0.0
H274 H 0.4636 0.85695 0.00314 0.0
H275 H 0.47244 0.89166 0.91929 0.0
C276 C 0.67491 0.50893 0.81805 0.0
C277 C 0.67501 0.4853 0.90252 0.0
C278 C 0.61805 0.45622 0.83888 0.0
C279 C 0.61421 0.48418 0.77164 0.0
N280 N 0.64842 0.52259 0.64828 0.0
N281 N 0.64882 0.43451 -0.01036 0.0
C282 C 0.64552 0.50636 0.74595 0.0
C283 C 0.64755 0.45792 0.9104 0.0
N284 N 0.70208 0.53461 0.80957 0.0
N285 N 0.59513 0.42713 0.82797 0.0
H286 H 0.67094 0.43399 0.03947 0.0
H287 H 0.62734 0.41671 0.00966 0.0
H288 H 0.57637 0.42369 0.76605 0.0
H289 H 0.59785 0.40479 0.86882 0.0
H290 H 0.70115 0.5552 0.75904 0.0
H291 H 0.72475 0.53623 0.85799 0.0
H292 H 0.67156 0.53743 0.62148 0.0
H293 H 0.63 0.5168 0.58616 0.0
C294 C 0.02026 0.66759 0.86449 0.0
C295 C 0.98518 0.68019 0.8709 0.0
C296 C 0.9602 0.62674 0.77691 0.0
C297 C 0.99542 0.61333 0.77231 0.0
N298 N 0.06057 0.62609 0.77631 0.0
N299 N 0.9252 0.67762 0.80267 0.0
C300 C 0.02601 0.63541 0.80497 0.0
C301 C 0.95639 0.66174 0.81596 0.0
N302 N 0.04783 0.68584 0.91822 0.0
N303 N 0.92985 0.60586 0.75304 0.0
H304 H 0.92184 0.70321 0.83158 0.0
H305 H 0.90453 0.66681 0.75333 0.0
H306 H 0.93004 0.5797 0.72938 0.0
H307 H 0.90346 0.61369 0.76757 0.0
H308 H 0.07278 0.67591 0.92885 0.0
H309 H 0.04494 0.71038 0.95746 0.0
H310 H 0.08378 0.64245 0.78909 0.0
H311 H 0.06597 0.6034 0.72888 0.0
C312 C 0.97686 0.1449 0.59899 0.0
C313 C 0.01298 0.15976 0.5893 0.0
C314 C 0.0344 0.11009 0.67233 0.0
C315 C 1.00043 0.09131 0.65445 0.0
N316 N 0.93648 0.09342 0.62436 0.0
N317 N 0.07699 0.15639 0.61548 0.0
C318 C 0.97057 0.10968 0.62615 0.0
C319 C 0.04186 0.14266 0.62789 0.0
N320 N 0.94902 0.16456 0.5792 0.0
N321 N 0.05887 0.09799 0.73724 0.0
H322 H 0.08389 0.18105 0.58881 0.0
H323 H 0.09948 0.14238 0.62551 0.0
H324 H 0.05131 0.07805 0.78774 0.0
H325 H 0.08307 0.11163 0.75868 0.0
H326 H 0.92155 0.15662 0.58999 0.0
H327 H 0.95383 0.19033 0.55969 0.0
H328 H 0.91436 0.10368 0.59233 0.0
H329 H 0.93013 0.0693 0.65604 0.0
C330 C 0.36591 0.97068 0.54794 0.0
C331 C 0.34851 1.00192 0.56331 0.0
C332 C 0.395 0.02573 0.68795 0.0
C333 C 0.41635 0.99729 0.65501 0.0
N334 N 0.42263 0.94289 0.54791 0.0
N335 N 0.34163 0.05683 0.66242 0.0
C336 C 0.40159 0.96936 0.58519 0.0
C337 C 0.36086 0.02808 0.64174 0.0
N338 N 0.34868 0.94322 0.49142 0.0
N339 N 0.40815 0.05133 0.75994 0.0
H340 H 0.31578 0.0582 0.63318 0.0
H341 H 0.35103 0.07922 0.70718 0.0
H342 H 0.43592 0.05706 0.7604 0.0
H343 H 0.39218 0.06879 0.80655 0.0
H344 H 0.35825 0.91858 0.48245 0.0
H345 H 0.32276 0.94487 0.46242 0.0
H346 H 0.41449 0.92321 0.48976 0.0
H347 H 0.44976 0.94221 0.56701 0.0
C348 C 0.52483 0.3744 0.47468 0.0
C349 C 0.48804 0.36143 0.47261 0.0
C350 C 0.46753 0.41834 0.52915 0.0
C351 C 0.50434 0.43206 0.53167 0.0
N352 N 0.56811 0.42103 0.53292 0.0
N353 N 0.42592 0.36733 0.53757 0.0
C354 C 0.53312 0.40939 0.51321 0.0
C355 C 0.46011 0.38215 0.51642 0.0
N356 N 0.55153 0.35365 0.43348 0.0
N357 N 0.43977 0.43965 0.52647 0.0
H358 H 0.42014 0.34068 0.52585 0.0
H359 H 0.40485 0.38091 0.57725 0.0
H360 H 0.44397 0.46626 0.52143 0.0
H361 H 0.41301 0.43045 0.5136 0.0
H362 H 0.57863 0.36251 0.41873 0.0
H363 H 0.54583 0.32754 0.41008 0.0
H364 H 0.58945 0.40483 0.53134 0.0
H365 H 0.57541 0.44642 0.56009 0.0
C366 C 0.15181 0.49526 0.48302 0.0
C367 C 0.1672 0.52902 0.46862 0.0
C368 C 0.10801 0.55269 0.51631 0.0
C369 C 0.09156 0.51844 0.5176 0.0
N370 N 0.09722 0.45687 0.4946 0.0
N371 N 0.16401 0.58999 0.50255 0.0
C372 C 0.1134 0.48958 0.50075 0.0
C373 C 0.14649 0.55781 0.49699 0.0
N374 N 0.1744 0.46877 0.47638 0.0
N375 N 0.08655 0.5801 0.52325 0.0
H376 H 0.19221 0.59358 0.48808 0.0
H377 H 0.1516 0.61243 0.53064 0.0
H378 H 0.05819 0.57733 0.53171 0.0
H379 H 0.09634 0.6055 0.51294 0.0
H380 H 0.16604 0.44346 0.49346 0.0
H381 H 0.20258 0.47316 0.46311 0.0
H382 H 0.11102 0.4347 0.47401 0.0
H383 H 0.06917 0.45199 0.50127 0.0
C384 C 0.04692 0.8603 0.85521 0.0
C385 C 0.01159 0.84424 0.87233 0.0
C386 C 0.98457 0.89849 0.85707 0.0
C387 C 0.01984 0.91563 0.84415 0.0
N388 N 0.08391 0.91069 0.79564 0.0
N389 N 0.94843 0.84416 0.83687 0.0
C390 C 0.05093 0.89577 0.83095 0.0
C391 C 0.98121 0.86201 0.85041 0.0
N392 N 0.07628 0.84211 0.87031 0.0
N393 N 0.95486 0.91643 0.89006 0.0
H394 H 0.94574 0.81723 0.83597 0.0
H395 H 0.92552 0.85588 0.81533 0.0
H396 H 0.95639 0.94288 0.91119 0.0
H397 H 0.92948 0.90425 0.91116 0.0
H398 H 0.10284 0.85317 0.87216 0.0
H399 H 0.07322 0.81585 0.88498 0.0
H400 H 0.10689 0.89681 0.77697 0.0
H401 H 0.08729 0.93637 0.77499 0.0
C402 C 0.6395 0.9883 0.94409 0.0
C403 C 0.6696 0.01277 0.94638 0.0
C404 C 0.63687 0.04659 0.82648 0.0
C405 C 0.60331 0.0295 0.86553 0.0
N406 N 0.57594 0.98863 -0.00441 0.0
N407 N 0.69784 0.06578 0.8773 0.0
C408 C 0.60512 1.00068 0.93095 0.0
C409 C 0.66903 0.0418 0.88156 0.0
N410 N 0.64274 0.95591 0.97683 0.0
N411 N 0.63864 0.06636 0.73658 0.0
H412 H 0.72228 0.06261 0.9129 0.0
H413 H 0.69662 0.08936 0.84176 0.0
H414 H 0.61688 0.06764 0.68627 0.0
H415 H 0.6632 0.07729 0.70278 0.0
H416 H 0.621 0.93714 0.97615 0.0
H417 H 0.66803 0.94777 -0.00538 0.0
H418 H 0.57774 0.96917 0.05019 0.0
H419 H 0.55205 1.00137 0.00792 0.0
C420 C 0.56395 0.6373 0.90468 0.0
C421 C 0.53815 0.65991 0.95202 0.0
C422 C 0.48925 0.61502 0.91634 0.0
C423 C 0.51597 0.59049 0.8917 0.0
N424 N 0.57956 0.57811 0.88899 0.0
N425 N 0.47604 0.67169 0.0014 0.0
C426 C 0.55363 0.60159 0.89079 0.0
C427 C 0.50057 0.64932 0.95537 0.0
N428 N 0.59888 0.64974 0.88005 0.0
N429 N 0.45333 0.60581 0.90168 0.0
H430 H 0.48381 0.6974 0.02494 0.0
H431 H 0.44869 0.6645 0.02008 0.0
H432 H 0.44387 0.58103 0.87372 0.0
H433 H 0.43325 0.62346 0.90801 0.0
H434 H 0.6183 0.6348 0.83724 0.0
H435 H 0.60701 0.67594 0.89182 0.0
H436 H 0.60715 0.58513 0.89643 0.0
H437 H 0.57321 0.55182 0.89654 0.0
C438 C 0.8709 0.5286 0.92637 0.0
C439 C 0.85002 0.49683 0.9282 0.0
C440 C 0.90347 0.46675 0.85325 0.0
C441 C 0.92588 0.49779 0.87403 0.0
N442 N 0.93026 0.55806 0.94259 0.0
N443 N 0.84425 0.43578 0.88571 0.0
C444 C 0.90942 0.52879 0.91288 0.0
C445 C 0.86551 0.46604 0.8859 0.0
N446 N 0.85357 0.55854 0.94288 0.0
N447 N 0.91859 0.43749 0.80813 0.0
H448 H 0.81622 0.43529 0.90513 0.0
H449 H 0.85418 0.41143 0.86982 0.0
H450 H 0.94655 0.43507 0.79873 0.0
H451 H 0.90337 0.4157 0.77744 0.0
H452 H 0.86667 0.58293 0.93394 0.0
H453 H 0.82523 0.55837 0.95423 0.0
H454 H 0.91957 0.57981 -0.0158 0.0
H455 H 0.95848 0.56024 0.93273 0.0
C456 C 0.08091 0.14196 0.21394 0.0
C457 C 0.05666 0.16821 0.20869 0.0
C458 C 0.02988 0.13707 0.0475 0.0
C459 C 0.04794 0.1072 0.07027 0.0
N460 N 0.08915 0.08095 0.18366 0.0
N461 N 0.0087 0.19228 0.1203 0.0
C462 C 0.0738 0.10971 0.15402 0.0
C463 C 0.03187 0.16654 0.12371 0.0
N464 N 0.10945 0.14752 0.28151 0.0
N465 N 0.0115 0.13785 0.95253 0.0
H466 H 0.01105 0.21501 0.1717 0.0
H467 H 0.98636 0.1904 0.07077 0.0
H468 H 0.00924 0.11737 0.89282 0.0
H469 H 1.00145 0.16021 0.92702 0.0
H470 H 0.12994 0.1305 0.283 0.0
H471 H 0.11435 0.17101 0.32751 0.0
H472 H 0.10529 0.08099 0.25174 0.0
H473 H 0.08301 0.0562 0.14821 0.0
C474 C 0.37516 0.00784 0.10597 0.0
C475 C 0.37402 0.03666 0.18403 0.0
C476 C 0.43686 0.05545 0.12612 0.0
C477 C 0.43899 0.02468 0.05549 0.0
N478 N 0.41257 0.96738 0.00122 0.0
N479 N 0.4028 0.08789 0.27285 0.0
C480 C 0.4089 0.99963 0.05183 0.0
C481 C 0.40457 0.06073 0.19449 0.0
N482 N 0.34393 0.988 0.08446 0.0
N483 N 0.46597 0.07932 0.12835 0.0
H484 H 0.37859 0.09342 0.31828 0.0
H485 H 0.42508 0.10427 0.29535 0.0
H486 H 0.49129 0.0745 0.08878 0.0
H487 H 0.46504 0.10403 0.16722 0.0
H488 H 0.34226 0.96904 0.01899 0.0
H489 H 0.3187 0.99285 0.12414 0.0
H490 H 0.39231 0.94735 0.00596 0.0
H491 H 0.43703 0.95865 0.96715 0.0
C492 C 0.42477 0.36581 0.09338 0.0
C493 C 0.45285 0.3427 0.08804 0.0
C494 C 0.48186 0.36986 0.92443 0.0
C495 C 0.45855 0.39734 0.94652 0.0
N496 N 0.40555 0.42073 0.04231 0.0
N497 N 0.5067 0.32013 -0.00409 0.0
C498 C 0.42887 0.3948 0.02704 0.0
C499 C 0.48044 0.34333 0.00057 0.0
N500 N 0.39487 0.3602 0.16462 0.0
N501 N 0.50592 0.36965 0.833 0.0
H502 H 0.50541 0.29969 0.04818 0.0
H503 H 0.5303 0.32174 0.94371 0.0
H504 H 0.50856 0.3892 0.77741 0.0
H505 H 0.52128 0.34883 0.80688 0.0
H506 H 0.37209 0.37464 0.16868 0.0
H507 H 0.39175 0.33887 0.21348 0.0
H508 H 0.3858 0.42258 0.10785 0.0
H509 H 0.40674 0.44127 -0.00958 0.0
C510 C 0.18336 0.49358 0.02772 0.0
C511 C 0.19517 0.52745 0.06726 0.0
C512 C 0.14934 0.55198 0.96414 0.0
C513 C 0.13545 0.51789 0.93215 0.0
N514 N 0.14496 0.4572 0.90391 0.0
N515 N 0.19831 0.58846 0.04662 0.0
C516 C 0.15446 0.48892 0.95412 0.0
C517 C 0.18136 0.55652 0.02483 0.0
N518 N 0.19846 0.46602 0.0666 0.0
N519 N 0.13048 0.57977 0.94453 0.0
H520 H 0.2216 0.59201 0.09226 0.0
H521 H 0.1916 0.61065 0.01105 0.0
H522 H 0.10654 0.57773 0.90222 0.0
H523 H 0.13704 0.60481 0.9769 0.0
H524 H 0.18831 0.44049 0.053 0.0
H525 H 0.22087 0.46912 0.11625 0.0
H526 H 0.15958 0.43551 0.90915 0.0
H527 H 0.12407 0.45324 0.84876 0.0
C528 C 1.00241 0.8441 0.355 0.0
C529 C 0.97813 0.84227 0.26783 0.0
C530 C 0.95153 0.89544 0.34437 0.0
C531 C 0.97668 0.89805 0.42948 0.0
N532 N 0.02099 0.87184 0.53113 0.0
N533 N 0.92393 0.86007 0.19339 0.0
C534 C 1.00017 0.87115 0.44057 0.0
C535 C 0.95067 0.86596 0.26768 0.0
N536 N 0.02913 0.82136 0.35157 0.0
N537 N 0.92915 0.92155 0.33545 0.0
H538 H 0.92272 0.83845 0.13683 0.0
H539 H 0.90136 0.87467 0.19378 0.0
H540 H 0.92757 0.94255 0.39411 0.0
H541 H 0.91333 0.92336 0.26764 0.0
H542 H 0.05076 0.82387 0.4038 0.0
H543 H 0.03068 0.80058 0.29212 0.0
H544 H 0.03508 0.85104 0.55083 0.0
H545 H 0.02267 0.89242 0.59119 0.0
C546 C 0.65335 0.99578 0.43383 0.0
C547 C 0.65462 0.02164 0.35577 0.0
C548 C 0.59299 0.03502 0.41919 0.0
C549 C 0.59358 0.01337 0.50943 0.0
N550 N 0.63122 0.98031 0.61737 0.0
N551 N 0.62954 0.07309 0.30049 0.0
C552 C 0.6257 0.99575 0.52169 0.0
C553 C 0.62586 0.04394 0.35845 0.0
N554 N 0.67715 0.97027 0.42221 0.0
N555 N 0.56092 0.04527 0.38592 0.0
H556 H 0.65387 0.08079 0.25705 0.0
H557 H 0.60976 0.09111 0.30603 0.0
H558 H 0.53556 0.03575 0.41853 0.0
H559 H 0.55955 0.05923 0.3154 0.0
H560 H 0.6745 0.949 0.47115 0.0
H561 H 0.6972 0.96845 0.35742 0.0
H562 H 0.65589 0.97026 0.63123 0.0
H563 H 0.61357 0.98094 0.68806 0.0
C564 C 0.542 0.68269 0.4112 0.0
C565 C 0.57303 0.68167 0.33636 0.0
C566 C 0.59206 0.63151 0.42363 0.0
C567 C 0.55686 0.6276 0.47789 0.0
N568 N 0.49795 0.65007 0.52714 0.0
N569 N 0.62985 0.65796 0.27565 0.0
C570 C 0.53203 0.65388 0.4758 0.0
C571 C 0.59926 0.6574 0.34601 0.0
N572 N 0.5215 0.71068 0.41635 0.0
N573 N 0.61846 0.61065 0.44726 0.0
H574 H 0.63629 0.67775 0.2218 0.0
H575 H 0.64793 0.63846 0.26781 0.0
H576 H 0.61405 0.59206 0.50619 0.0
H577 H 0.64549 0.61392 0.41699 0.0
H578 H 0.50004 0.71459 0.47543 0.0
H579 H 0.52851 0.73169 0.36788 0.0
H580 H 0.47738 0.66638 0.51713 0.0
H581 H 0.48908 0.6293 0.57423 0.0
C582 C 0.83721 0.53335 0.3697 0.0
C583 C 0.82302 0.50025 0.33029 0.0
C584 C 0.86276 0.47284 0.44781 0.0
C585 C 0.88207 0.50532 0.4669 0.0
N586 N 0.88652 0.56722 0.45967 0.0
N587 N 0.81818 0.43859 0.33871 0.0
C588 C 0.86842 0.53599 0.4342 0.0
C589 C 0.83393 0.47 0.37403 0.0
N590 N 0.82131 0.56195 0.34162 0.0
N591 N 0.87219 0.44496 0.50019 0.0
H592 H 0.7959 0.4363 0.28855 0.0
H593 H 0.82753 0.41504 0.35613 0.0
H594 H 0.8932 0.44661 0.55506 0.0
H595 H 0.85755 0.42104 0.49684 0.0
H596 H 0.82864 0.58702 0.37205 0.0
H597 H 0.79845 0.56012 0.29401 0.0
H598 H 0.88038 0.59035 0.42904 0.0
H599 H 0.90886 0.56989 0.50948 0.0
loop_
_geom_bond_atom_site_label_1
_geom_bond_atom_site_label_2
_geom_bond_distance
_geom_bond_site_symmetry_2
_ccdc_geom_bond_type
H0 C3 0.929 . S
H1 C6 0.929 . S
H2 C8 0.930 . S
C3 H0 0.929 . S
C3 C4 1.398 . S
C3 C5 1.396 . S
C4 C3 1.398 . S
C4 C8 1.407 . S
C5 C3 1.396 . S
C5 C6 1.394 1_554 S
C6 H1 0.929 . S
C6 C5 1.394 1_556 S
C6 C7 1.382 1_556 S
C7 C6 1.382 1_554 S
C7 C8 1.392 . S
C7 N9 1.420 . S
C8 H2 0.930 . S
C8 C4 1.407 . S
C8 C7 1.392 . S
N9 C7 1.420 . S
N9 C10 1.244 . S
C10 N9 1.244 . S
H11 C14 0.929 . S
H12 C17 0.929 . S
H13 C19 0.930 . S
C14 H11 0.929 . S
C14 C15 1.398 . S
C14 C16 1.396 1_554 S
C15 C14 1.398 . S
C15 C19 1.407 . S
C16 C14 1.396 1_556 S
C16 C17 1.394 . S
C17 H12 0.929 . S
C17 C16 1.394 . S
C17 C18 1.382 1_556 S
C18 C17 1.382 1_554 S
C18 C19 1.392 . S
C18 N20 1.420 . S
C19 H13 0.930 . S
C19 C15 1.407 . S
C19 C18 1.392 . S
N20 C18 1.420 . S
N20 C21 1.244 1_554 S
C21 N20 1.244 1_556 S
H22 C25 0.929 . S
H23 C28 0.929 1_556 S
H24 C30 0.930 . S
C25 H22 0.929 . S
C25 C26 1.398 . S
C25 C27 1.396 . S
C26 C25 1.398 . S
C26 C30 1.407 . S
C27 C25 1.396 . S
C27 C28 1.394 . S
C28 H23 0.929 1_554 S
C28 C27 1.394 . S
C28 C29 1.382 . S
C29 C28 1.382 . S
C29 C30 1.392 . S
C29 N31 1.420 . S
C30 H24 0.930 . S
C30 C26 1.407 . S
C30 C29 1.392 . S
N31 C29 1.420 . S
N31 C32 1.244 . S
C32 N31 1.244 . S
H33 C36 0.929 . S
H34 C39 0.929 1_556 S
H35 C41 0.930 . S
C36 H33 0.929 . S
C36 C37 1.398 . S
C36 C38 1.396 . S
C37 C36 1.398 . S
C37 C41 1.407 . S
C38 C36 1.396 . S
C38 C39 1.394 . S
C39 H34 0.929 1_554 S
C39 C38 1.394 . S
C39 C40 1.382 . S
C40 C39 1.382 . S
C40 C41 1.392 . S
C40 N42 1.420 . S
C41 H35 0.930 . S
C41 C37 1.407 . S
C41 C40 1.392 . S
N42 C40 1.420 . S
N42 C43 1.244 . S
C43 N42 1.244 . S
H44 C47 0.929 . S
H45 C50 0.929 . S
H46 C52 0.930 . S
C47 H44 0.929 . S
C47 C48 1.398 . S
C47 C49 1.396 . S
C48 C47 1.398 . S
C48 C52 1.407 . S
C49 C47 1.396 . S
C49 C50 1.394 . S
C50 H45 0.929 . S
C50 C49 1.394 . S
C50 C51 1.382 . S
C51 C50 1.382 . S
C51 C52 1.392 . S
C51 N53 1.420 . S
C52 H46 0.930 . S
C52 C48 1.407 . S
C52 C51 1.392 . S
N53 C51 1.420 . S
N53 C54 1.244 . S
C54 N53 1.244 . S
H55 C58 0.929 . S
H56 C61 0.929 . S
H57 C63 0.930 . S
C58 H55 0.929 . S
C58 C59 1.398 . S
C58 C60 1.396 . S
C59 C58 1.398 . S
C59 C63 1.407 . S
C60 C58 1.396 . S
C60 C61 1.394 . S
C61 H56 0.929 . S
C61 C60 1.394 . S
C61 C62 1.382 . S
C62 C61 1.382 . S
C62 C63 1.392 . S
C62 N64 1.420 . S
C63 H57 0.930 . S
C63 C59 1.407 . S
C63 C62 1.392 . S
N64 C62 1.420 . S
N64 C65 1.244 . S
C65 N64 1.244 . S
H66 C69 0.929 . S
H67 C72 0.929 . S
H68 C74 0.930 . S
C69 H66 0.929 . S
C69 C70 1.398 . S
C69 C71 1.396 . S
C70 C69 1.398 . S
C70 C74 1.407 . S
C71 C69 1.396 . S
C71 C72 1.394 . S
C72 H67 0.929 . S
C72 C71 1.394 . S
C72 C73 1.382 . S
C73 C72 1.382 . S
C73 C74 1.392 . S
C73 N75 1.420 . S
C74 H68 0.930 . S
C74 C70 1.407 . S
C74 C73 1.392 . S
N75 C73 1.420 . S
N75 C76 1.244 . S
C76 N75 1.244 . S
H77 C80 0.929 . S
H78 C83 0.929 . S
H79 C85 0.930 . S
C80 H77 0.929 . S
C80 C81 1.398 . S
C80 C82 1.396 . S
C81 C80 1.398 . S
C81 C85 1.407 . S
C82 C80 1.396 . S
C82 C83 1.394 . S
C83 H78 0.929 . S
C83 C82 1.394 . S
C83 C84 1.382 . S
C84 C83 1.382 . S
C84 C85 1.392 . S
C84 N86 1.420 . S
C85 H79 0.930 . S
C85 C81 1.407 . S
C85 C84 1.392 . S
N86 C84 1.420 . S
N86 C87 1.244 . S
C87 N86 1.244 . S
Tb88 O91 2.453 1_565 S
Tb88 O92 2.596 1_665 S
Tb88 O93 2.374 1_665 S
Tb88 O101 2.341 1_655 S
Tb88 O103 2.353 1_565 S
Tb88 O105 2.427 . S
Tb88 O106 2.513 1_655 S
C89 O93 1.251 . S
C89 O95 1.263 . S
Tb90 O92 2.343 . S
Tb90 O95 2.353 . S
Tb90 O98 2.427 . S
Tb90 O99 2.513 1_455 S
Tb90 O100 2.453 1_545 S
Tb90 O101 2.598 1_545 S
Tb90 O102 2.374 1_455 S
O91 Tb88 2.453 1_545 S
O91 C107 1.245 1_655 S
O92 Tb88 2.596 1_445 S
O92 Tb90 2.343 . S
O92 C107 1.259 . S
O93 Tb88 2.374 1_445 S
O93 C89 1.251 . S
C94 O98 1.275 . S
C94 O99 1.246 1_455 S
O95 C89 1.263 . S
O95 Tb90 2.353 . S
C96 O100 1.245 . S
C96 O101 1.261 . S
C97 O102 1.250 . S
C97 O103 1.263 . S
O98 Tb90 2.427 . S
O98 C94 1.275 . S
O99 Tb90 2.513 1_655 S
O99 C94 1.246 1_655 S
O100 Tb90 2.453 1_565 S
O100 C96 1.245 . S
O101 Tb88 2.341 1_455 S
O101 Tb90 2.598 1_565 S
O101 C96 1.261 . S
O102 Tb90 2.374 1_655 S
O102 C97 1.250 . S
O103 Tb88 2.353 1_545 S
O103 C97 1.263 . S
C104 O105 1.275 . S
C104 O106 1.246 1_655 S
O105 Tb88 2.427 . S
O105 C104 1.275 . S
O106 Tb88 2.513 1_455 S
O106 C104 1.246 1_455 S
C107 O91 1.245 1_455 S
C107 O92 1.259 . S
Tb108 O111 2.453 . S
Tb108 O112 2.596 1_545 S
Tb108 O113 2.374 . S
Tb108 O121 2.343 . S
Tb108 O123 2.353 . S
Tb108 O125 2.427 . S
Tb108 O126 2.513 . S
C109 O113 1.229 1_565 S
C109 O115 1.280 . S
Tb110 O112 2.343 . S
Tb110 O115 2.353 . S
Tb110 O118 2.427 . S
Tb110 O119 2.513 . S
Tb110 O120 2.453 . S
Tb110 O121 2.596 1_565 S
Tb110 O122 2.374 . S
O111 Tb108 2.453 . S
O111 C127 1.245 . S
O112 Tb108 2.596 1_565 S
O112 Tb110 2.343 . S
O112 C127 1.259 1_565 S
O113 Tb108 2.374 . S
O113 C109 1.229 1_545 S
C114 O118 1.275 . S
C114 O119 1.246 . S
O115 C109 1.280 . S
O115 Tb110 2.353 . S
C116 O120 1.245 1_545 S
C116 O121 1.259 . S
C117 O122 1.250 1_545 S
C117 O123 1.263 . S
O118 Tb110 2.427 . S
O118 C114 1.275 . S
O119 Tb110 2.513 . S
O119 C114 1.246 . S
O120 Tb110 2.453 . S
O120 C116 1.245 1_565 S
O121 Tb108 2.343 . S
O121 Tb110 2.596 1_545 S
O121 C116 1.259 . S
O122 Tb110 2.374 . S
O122 C117 1.250 1_565 S
O123 Tb108 2.353 . S
O123 C117 1.263 . S
C124 O125 1.275 . S
C124 O126 1.246 . S
O125 Tb108 2.427 . S
O125 C124 1.275 . S
O126 Tb108 2.513 . S
O126 C124 1.246 . S
C127 O111 1.245 . S
C127 O112 1.259 1_545 S
Tb128 O131 2.453 . S
Tb128 O132 2.596 . S
Tb128 O133 2.374 . S
Tb128 O141 2.343 . S
Tb128 O143 2.353 . S
Tb128 O145 2.427 . S
Tb128 O146 2.513 . S
C129 O133 1.251 . S
C129 O135 1.263 . S
Tb130 O132 2.343 . S
Tb130 O135 2.353 . S
Tb130 O138 2.427 . S
Tb130 O139 2.513 . S
Tb130 O140 2.453 . S
Tb130 O141 2.596 . S
Tb130 O142 2.374 . S
O131 Tb128 2.453 . S
O131 C147 1.245 . S
O132 Tb128 2.596 . S
O132 Tb130 2.343 . S
O132 C147 1.259 . S
O133 Tb128 2.374 . S
O133 C129 1.251 . S
C134 O138 1.275 . S
C134 O139 1.246 . S
O135 C129 1.263 . S
O135 Tb130 2.353 . S
C136 O140 1.245 . S
C136 O141 1.259 . S
C137 O142 1.250 . S
C137 O143 1.263 . S
O138 Tb130 2.427 . S
O138 C134 1.275 . S
O139 Tb130 2.513 . S
O139 C134 1.246 . S
O140 Tb130 2.453 . S
O140 C136 1.245 . S
O141 Tb128 2.343 . S
O141 Tb130 2.596 . S
O141 C136 1.259 . S
O142 Tb130 2.374 . S
O142 C137 1.250 . S
O143 Tb128 2.353 . S
O143 C137 1.263 . S
C144 O145 1.275 . S
C144 O146 1.246 . S
O145 Tb128 2.427 . S
O145 C144 1.275 . S
O146 Tb128 2.513 . S
O146 C144 1.246 . S
C147 O131 1.245 . S
C147 O132 1.259 . S
Tb148 O151 2.453 1_655 S
Tb148 O152 2.596 1_655 S
Tb148 O153 2.374 1_655 S
Tb148 O161 2.343 . S
Tb148 O163 2.353 1_655 S
Tb148 O165 2.427 . S
Tb148 O166 2.513 . S
C149 O153 1.251 . S
C149 O155 1.263 . S
Tb150 O152 2.343 . S
Tb150 O155 2.353 . S
Tb150 O158 2.427 . S
Tb150 O159 2.513 . S
Tb150 O160 2.453 1_455 S
Tb150 O161 2.596 1_455 S
Tb150 O162 2.374 . S
O151 Tb148 2.453 1_455 S
O151 C167 1.245 . S
O152 Tb148 2.596 1_455 S
O152 Tb150 2.343 . S
O152 C167 1.259 . S
O153 Tb148 2.374 1_455 S
O153 C149 1.251 . S
C154 O158 1.275 . S
C154 O159 1.246 . S
O155 C149 1.263 . S
O155 Tb150 2.353 . S
C156 O160 1.245 . S
C156 O161 1.259 . S
C157 O162 1.255 . S
C157 O163 1.263 . S
O158 Tb150 2.427 . S
O158 C154 1.275 . S
O159 Tb150 2.513 . S
O159 C154 1.246 . S
O160 Tb150 2.453 1_655 S
O160 C156 1.245 . S
O161 Tb148 2.343 . S
O161 Tb150 2.596 1_655 S
O161 C156 1.259 . S
O162 Tb150 2.374 . S
O162 C157 1.255 . S
O163 Tb148 2.353 1_455 S
O163 C157 1.263 . S
C164 O165 1.275 . S
C164 O166 1.246 . S
O165 Tb148 2.427 . S
O165 C164 1.275 . S
O166 Tb148 2.513 . S
O166 C164 1.246 . S
C167 O151 1.245 . S
C167 O152 1.259 . S
C168 C169 1.363 . S
C168 C174 1.379 . S
C168 N176 1.356 . S
C169 C168 1.363 . S
C169 C175 1.363 . S
C170 C171 1.363 . S
C170 C175 1.379 . S
C170 N177 1.356 . S
C171 C170 1.363 . S
C171 C174 1.363 . S
N172 C174 1.356 . S
N172 H184 0.984 . S
N172 H185 0.985 . S
N173 C175 1.356 . S
N173 H178 0.984 . S
N173 H179 0.985 . S
C174 C168 1.379 . S
C174 C171 1.363 . S
C174 N172 1.356 . S
C175 C169 1.363 . S
C175 C170 1.379 . S
C175 N173 1.356 . S
N176 C168 1.356 . S
N176 H182 0.984 . S
N176 H183 0.984 . S
N177 C170 1.356 . S
N177 H180 0.984 . S
N177 H181 0.985 . S
H178 N173 0.984 . S
H179 N173 0.985 . S
H180 N177 0.984 . S
H181 N177 0.985 . S
H182 N176 0.984 . S
H183 N176 0.984 . S
H184 N172 0.984 . S
H185 N172 0.985 . S
C186 C187 1.363 . S
C186 C192 1.379 . S
C186 N194 1.356 . S
C187 C186 1.363 . S
C187 C193 1.363 . S
C188 C189 1.363 . S
C188 C193 1.379 . S
C188 N195 1.356 . S
C189 C188 1.363 . S
C189 C192 1.363 . S
N190 C192 1.356 . S
N190 H202 0.984 . S
N190 H203 0.985 . S
N191 C193 1.356 . S
N191 H196 0.984 . S
N191 H197 0.985 . S
C192 C186 1.379 . S
C192 C189 1.363 . S
C192 N190 1.356 . S
C193 C187 1.363 . S
C193 C188 1.379 . S
C193 N191 1.356 . S
N194 C186 1.356 . S
N194 H200 0.984 . S
N194 H201 0.984 . S
N195 C188 1.356 . S
N195 H198 0.984 . S
N195 H199 0.985 . S
H196 N191 0.984 . S
H197 N191 0.985 . S
H198 N195 0.984 . S
H199 N195 0.985 . S
H200 N194 0.984 . S
H201 N194 0.984 . S
H202 N190 0.984 . S
H203 N190 0.985 . S
C204 C205 1.363 . S
C204 C210 1.379 . S
C204 N212 1.356 . S
C205 C204 1.363 . S
C205 C211 1.363 . S
C206 C207 1.363 . S
C206 C211 1.379 . S
C206 N213 1.356 . S
C207 C206 1.363 . S
C207 C210 1.363 . S
N208 C210 1.356 . S
N208 H220 0.984 . S
N208 H221 0.985 . S
N209 C211 1.356 . S
N209 H214 0.984 . S
N209 H215 0.985 . S
C210 C204 1.379 . S
C210 C207 1.363 . S
C210 N208 1.356 . S
C211 C205 1.363 . S
C211 C206 1.379 . S
C211 N209 1.356 . S
N212 C204 1.356 . S
N212 H218 0.984 . S
N212 H219 0.984 . S
N213 C206 1.356 . S
N213 H216 0.984 . S
N213 H217 0.985 . S
H214 N209 0.984 . S
H215 N209 0.985 . S
H216 N213 0.984 . S
H217 N213 0.985 . S
H218 N212 0.984 . S
H219 N212 0.984 . S
H220 N208 0.984 . S
H221 N208 0.985 . S
C222 C223 1.363 . S
C222 C228 1.379 . S
C222 N230 1.356 . S
C223 C222 1.363 . S
C223 C229 1.363 . S
C224 C225 1.363 . S
C224 C229 1.379 . S
C224 N231 1.356 1_455 S
C225 C224 1.363 . S
C225 C228 1.363 . S
N226 C228 1.356 . S
N226 H238 0.984 . S
N226 H239 0.985 . S
N227 C229 1.356 . S
N227 H232 0.984 . S
N227 H233 0.985 . S
C228 C222 1.379 . S
C228 C225 1.363 . S
C228 N226 1.356 . S
C229 C223 1.363 . S
C229 C224 1.379 . S
C229 N227 1.356 . S
N230 C222 1.356 . S
N230 H236 0.984 . S
N230 H237 0.984 . S
N231 C224 1.356 1_655 S
N231 H234 0.984 . S
N231 H235 0.985 . S
H232 N227 0.984 . S
H233 N227 0.985 . S
H234 N231 0.984 . S
H235 N231 0.985 . S
H236 N230 0.984 . S
H237 N230 0.984 . S
H238 N226 0.984 . S
H239 N226 0.985 . S
C240 C241 1.363 1_545 S
C240 C246 1.379 . S
C240 N248 1.356 1_556 S
C241 C240 1.363 1_565 S
C241 C247 1.363 . S
C242 C243 1.363 . S
C242 C247 1.379 . S
C242 N249 1.356 . S
C243 C242 1.363 . S
C243 C246 1.363 1_565 S
N244 C246 1.356 . S
N244 H256 0.984 . S
N244 H257 0.985 . S
N245 C247 1.356 . S
N245 H250 0.984 . S
N245 H251 0.985 . S
C246 C240 1.379 . S
C246 C243 1.363 1_545 S
C246 N244 1.356 . S
C247 C241 1.363 . S
C247 C242 1.379 . S
C247 N245 1.356 . S
N248 C240 1.356 1_554 S
N248 H254 0.984 . S
N248 H255 0.984 . S
N249 C242 1.356 . S
N249 H252 0.984 . S
N249 H253 0.985 . S
H250 N245 0.984 . S
H251 N245 0.985 . S
H252 N249 0.984 . S
H253 N249 0.985 . S
H254 N248 0.984 . S
H255 N248 0.984 . S
H256 N244 0.984 . S
H257 N244 0.985 . S
C258 C259 1.363 1_554 S
C258 C264 1.379 . S
C258 N266 1.356 . S
C259 C258 1.363 1_556 S
C259 C265 1.363 . S
C260 C261 1.363 . S
C260 C265 1.379 . S
C260 N267 1.356 . S
C261 C260 1.363 . S
C261 C264 1.363 1_556 S
N262 C264 1.356 . S
N262 H274 0.984 . S
N262 H275 0.985 1_554 S
N263 C265 1.356 . S
N263 H268 0.984 . S
N263 H269 0.985 . S
C264 C258 1.379 . S
C264 C261 1.363 1_554 S
C264 N262 1.356 . S
C265 C259 1.363 . S
C265 C260 1.379 . S
C265 N263 1.356 . S
N266 C258 1.356 . S
N266 H272 0.984 . S
N266 H273 0.984 . S
N267 C260 1.356 . S
N267 H270 0.984 . S
N267 H271 0.985 . S
H268 N263 0.984 . S
H269 N263 0.985 . S
H270 N267 0.984 . S
H271 N267 0.985 . S
H272 N266 0.984 . S
H273 N266 0.984 . S
H274 N262 0.984 . S
H275 N262 0.985 1_556 S
C276 C277 1.363 . S
C276 C282 1.379 . S
C276 N284 1.356 1_556 S
C277 C276 1.363 . S
C277 C283 1.363 . S
C278 C279 1.363 . S
C278 C283 1.379 . S
C278 N285 1.356 . S
C279 C278 1.363 . S
C279 C282 1.363 . S
N280 C282 1.356 . S
N280 H292 0.984 . S
N280 H293 0.985 . S
N281 C283 1.356 . S
N281 H286 0.984 . S
N281 H287 0.985 . S
C282 C276 1.379 . S
C282 C279 1.363 . S
C282 N280 1.356 . S
C283 C277 1.363 . S
C283 C278 1.379 . S
C283 N281 1.356 . S
N284 C276 1.356 1_554 S
N284 H290 0.984 . S
N284 H291 0.984 . S
N285 C278 1.356 . S
N285 H288 0.984 . S
N285 H289 0.985 . S
H286 N281 0.984 . S
H287 N281 0.985 . S
H288 N285 0.984 . S
H289 N285 0.985 . S
H290 N284 0.984 . S
H291 N284 0.984 . S
H292 N280 0.984 . S
H293 N280 0.985 . S
C294 C295 1.363 . S
C294 C300 1.379 . S
C294 N302 1.356 1_556 S
C295 C294 1.363 . S
C295 C301 1.363 . S
C296 C297 1.363 . S
C296 C301 1.379 . S
C296 N303 1.356 . S
C297 C296 1.363 . S
C297 C300 1.363 . S
N298 C300 1.356 1_455 S
N298 H310 0.984 1_556 S
N298 H311 0.985 . S
N299 C301 1.356 . S
N299 H304 0.984 . S
N299 H305 0.985 . S
C300 C294 1.379 . S
C300 C297 1.363 . S
C300 N298 1.356 1_655 S
C301 C295 1.363 . S
C301 C296 1.379 . S
C301 N299 1.356 . S
N302 C294 1.356 1_554 S
N302 H308 0.984 . S
N302 H309 0.984 . S
N303 C296 1.356 . S
N303 H306 0.984 . S
N303 H307 0.985 . S
H304 N299 0.984 . S
H305 N299 0.985 . S
H306 N303 0.984 . S
H307 N303 0.985 . S
H308 N302 0.984 . S
H309 N302 0.984 . S
H310 N298 0.984 1_554 S
H311 N298 0.985 . S
C312 C313 1.363 . S
C312 C318 1.379 . S
C312 N320 1.356 . S
C313 C312 1.363 . S
C313 C319 1.363 . S
C314 C315 1.363 . S
C314 C319 1.379 . S
C314 N321 1.356 . S
C315 C314 1.363 . S
C315 C318 1.363 . S
N316 C318 1.356 1_655 S
N316 H328 0.984 . S
N316 H329 0.985 . S
N317 C319 1.356 . S
N317 H322 0.984 . S
N317 H323 0.985 . S
C318 C312 1.379 . S
C318 C315 1.363 . S
C318 N316 1.356 1_455 S
C319 C313 1.363 . S
C319 C314 1.379 . S
C319 N317 1.356 . S
N320 C312 1.356 . S
N320 H326 0.984 . S
N320 H327 0.984 . S
N321 C314 1.356 . S
N321 H324 0.984 . S
N321 H325 0.985 . S
H322 N317 0.984 . S
H323 N317 0.985 . S
H324 N321 0.984 . S
H325 N321 0.985 . S
H326 N320 0.984 . S
H327 N320 0.984 . S
H328 N316 0.984 . S
H329 N316 0.985 . S
C330 C331 1.363 . S
C330 C336 1.379 . S
C330 N338 1.365 . S
C331 C330 1.363 . S
C331 C337 1.363 . S
C332 C333 1.363 . S
C332 C337 1.379 . S
C332 N339 1.356 . S
C333 C332 1.363 . S
C333 C336 1.363 . S
N334 C336 1.356 1_565 S
N334 H346 0.984 . S
N334 H347 0.985 . S
N335 C337 1.356 . S
N335 H340 0.984 . S
N335 H341 0.985 . S
C336 C330 1.379 . S
C336 C333 1.363 . S
C336 N334 1.356 1_545 S
C337 C331 1.363 . S
C337 C332 1.379 . S
C337 N335 1.356 . S
N338 C330 1.365 . S
N338 H344 0.957 1_545 S
N338 H345 1.004 . S
N339 C332 1.356 . S
N339 H342 0.984 . S
N339 H343 0.985 . S
H340 N335 0.984 . S
H341 N335 0.985 . S
H342 N339 0.984 . S
H343 N339 0.985 . S
H344 N338 0.957 1_565 S
H345 N338 1.004 . S
H346 N334 0.984 . S
H347 N334 0.985 . S
C348 C349 1.363 . S
C348 C354 1.379 . S
C348 N356 1.356 . S
C349 C348 1.363 . S
C349 C355 1.363 . S
C350 C351 1.363 . S
C350 C355 1.379 . S
C350 N357 1.356 . S
C351 C350 1.363 . S
C351 C354 1.363 . S
N352 C354 1.356 . S
N352 H364 0.984 . S
N352 H365 0.985 . S
N353 C355 1.356 . S
N353 H358 0.984 . S
N353 H359 0.985 . S
C354 C348 1.379 . S
C354 C351 1.363 . S
C354 N352 1.356 . S
C355 C349 1.363 . S
C355 C350 1.379 . S
C355 N353 1.356 . S
N356 C348 1.356 . S
N356 H362 0.984 . S
N356 H363 0.984 . S
N357 C350 1.356 . S
N357 H360 0.984 . S
N357 H361 0.985 . S
H358 N353 0.984 . S
H359 N353 0.985 . S
H360 N357 0.984 . S
H361 N357 0.985 . S
H362 N356 0.984 . S
H363 N356 0.984 . S
H364 N352 0.984 . S
H365 N352 0.985 . S
C366 C367 1.363 . S
C366 C372 1.379 . S
C366 N374 1.356 . S
C367 C366 1.363 . S
C367 C373 1.363 . S
C368 C369 1.363 . S
C368 C373 1.379 . S
C368 N375 1.356 . S
C369 C368 1.363 . S
C369 C372 1.363 . S
N370 C372 1.356 . S
N370 H382 0.984 . S
N370 H383 0.985 . S
N371 C373 1.356 . S
N371 H376 0.984 . S
N371 H377 0.985 . S
C372 C366 1.379 . S
C372 C369 1.363 . S
C372 N370 1.356 . S
C373 C367 1.363 . S
C373 C368 1.379 . S
C373 N371 1.356 . S
N374 C366 1.356 . S
N374 H380 0.984 . S
N374 H381 0.984 . S
N375 C368 1.356 . S
N375 H378 0.984 . S
N375 H379 0.985 . S
H376 N371 0.984 . S
H377 N371 0.985 . S
H378 N375 0.984 . S
H379 N375 0.985 . S
H380 N374 0.984 . S
H381 N374 0.984 . S
H382 N370 0.984 . S
H383 N370 0.985 . S
C384 C385 1.363 . S
C384 C390 1.379 . S
C384 N392 1.356 . S
C385 C384 1.363 . S
C385 C391 1.363 . S
C386 C387 1.363 . S
C386 C391 1.379 . S
C386 N393 1.356 . S
C387 C386 1.363 . S
C387 C390 1.363 . S
N388 C390 1.356 1_455 S
N388 H400 0.984 . S
N388 H401 0.985 . S
N389 C391 1.356 1_554 S
N389 H394 0.984 . S
N389 H395 0.985 . S
C390 C384 1.379 . S
C390 C387 1.363 . S
C390 N388 1.356 1_655 S
C391 C385 1.363 . S
C391 C386 1.379 . S
C391 N389 1.356 1_556 S
N392 C384 1.356 . S
N392 H398 0.984 1_655 S
N392 H399 0.984 . S
N393 C386 1.356 . S
N393 H396 0.984 . S
N393 H397 0.985 1_556 S
H394 N389 0.984 . S
H395 N389 0.985 . S
H396 N393 0.984 . S
H397 N393 0.985 1_554 S
H398 N392 0.984 1_455 S
H399 N392 0.984 . S
H400 N388 0.984 . S
H401 N388 0.985 . S
C402 C403 1.363 . S
C402 C408 1.379 . S
C402 N410 1.356 1_556 S
C403 C402 1.363 . S
C403 C409 1.381 . S
C404 C405 1.363 1_545 S
C404 C409 1.371 1_545 S
C404 N411 1.356 . S
C405 C404 1.363 1_565 S
C405 C408 1.363 . S
N406 C408 1.356 . S
N406 H418 0.984 1_556 S
N406 H419 0.985 . S
N407 C409 1.352 1_545 S
N407 H412 0.984 1_545 S
N407 H413 0.985 . S
C408 C402 1.379 . S
C408 C405 1.363 . S
C408 N406 1.356 . S
C409 C403 1.381 . S
C409 C404 1.371 1_565 S
C409 N407 1.352 1_565 S
N410 C402 1.356 1_554 S
N410 H416 0.984 . S
N410 H417 0.984 . S
N411 C404 1.356 . S
N411 H414 0.984 . S
N411 H415 0.985 . S
H412 N407 0.984 1_565 S
H413 N407 0.985 . S
H414 N411 0.984 . S
H415 N411 0.985 . S
H416 N410 0.984 . S
H417 N410 0.984 . S
H418 N406 0.984 1_554 S
H419 N406 0.985 . S
C420 C421 1.363 . S
C420 C426 1.379 . S
C420 N428 1.356 . S
C421 C420 1.363 . S
C421 C427 1.363 . S
C422 C423 1.363 . S
C422 C427 1.379 . S
C422 N429 1.356 . S
C423 C422 1.363 . S
C423 C426 1.363 . S
N424 C426 1.356 . S
N424 H436 0.984 . S
N424 H437 0.985 . S
N425 C427 1.356 . S
N425 H430 0.984 . S
N425 H431 0.985 . S
C426 C420 1.379 . S
C426 C423 1.363 . S
C426 N424 1.356 . S
C427 C421 1.363 . S
C427 C422 1.379 . S
C427 N425 1.356 . S
N428 C420 1.356 . S
N428 H434 0.984 1_556 S
N428 H435 0.984 1_556 S
N429 C422 1.356 . S
N429 H432 0.984 . S
N429 H433 0.985 . S
H430 N425 0.984 . S
H431 N425 0.985 . S
H432 N429 0.984 . S
H433 N429 0.985 . S
H434 N428 0.984 1_554 S
H435 N428 0.984 1_554 S
H436 N424 0.984 . S
H437 N424 0.985 . S
C438 C439 1.363 . S
C438 C444 1.379 . S
C438 N446 1.356 . S
C439 C438 1.363 . S
C439 C445 1.360 1_556 S
C440 C441 1.363 . S
C440 C445 1.377 1_556 S
C440 N447 1.356 . S
C441 C440 1.363 . S
C441 C444 1.363 . S
N442 C444 1.356 . S
N442 H454 0.984 . S
N442 H455 0.985 . S
N443 C445 1.360 . S
N443 H448 0.984 . S
N443 H449 0.985 . S
C444 C438 1.379 . S
C444 C441 1.363 . S
C444 N442 1.356 . S
C445 C439 1.360 1_554 S
C445 C440 1.377 1_554 S
C445 N443 1.360 . S
N446 C438 1.356 . S
N446 H452 0.984 . S
N446 H453 0.984 . S
N447 C440 1.356 . S
N447 H450 0.984 . S
N447 H451 0.985 1_556 S
H448 N443 0.984 . S
H449 N443 0.985 . S
H450 N447 0.984 . S
H451 N447 0.985 1_554 S
H452 N446 0.984 . S
H453 N446 0.984 . S
H454 N442 0.984 . S
H455 N442 0.985 . S
C456 C457 1.363 . S
C456 C462 1.379 . S
C456 N464 1.356 . S
C457 C456 1.363 . S
C457 C463 1.363 . S
C458 C459 1.363 . S
C458 C463 1.379 . S
C458 N465 1.356 1_554 S
C459 C458 1.363 . S
C459 C462 1.363 . S
N460 C462 1.356 . S
N460 H472 0.984 . S
N460 H473 0.985 . S
N461 C463 1.356 . S
N461 H466 0.984 . S
N461 H467 0.985 . S
C462 C456 1.379 . S
C462 C459 1.363 . S
C462 N460 1.356 . S
C463 C457 1.363 . S
C463 C458 1.379 . S
C463 N461 1.356 . S
N464 C456 1.356 . S
N464 H470 0.984 . S
N464 H471 0.984 . S
N465 C458 1.356 1_556 S
N465 H468 0.984 . S
N465 H469 0.985 1_455 S
H466 N461 0.984 . S
H467 N461 0.985 . S
H468 N465 0.984 . S
H469 N465 0.985 1_655 S
H470 N464 0.984 . S
H471 N464 0.984 . S
H472 N460 0.984 . S
H473 N460 0.985 . S
C474 C475 1.363 . S
C474 C480 1.379 . S
C474 N482 1.356 . S
C475 C474 1.363 . S
C475 C481 1.363 . S
C476 C477 1.363 1_556 S
C476 C481 1.379 1_556 S
C476 N483 1.356 . S
C477 C476 1.363 1_554 S
C477 C480 1.363 . S
N478 C480 1.356 1_565 S
N478 H490 0.984 . S
N478 H491 0.985 . S
N479 C481 1.356 . S
N479 H484 0.984 . S
N479 H485 0.985 . S
C480 C474 1.379 . S
C480 C477 1.363 . S
C480 N478 1.356 1_545 S
C481 C475 1.363 . S
C481 C476 1.379 1_554 S
C481 N479 1.356 . S
N482 C474 1.356 . S
N482 H488 0.984 1_545 S
N482 H489 0.984 . S
N483 C476 1.356 . S
N483 H486 0.984 . S
N483 H487 0.985 . S
H484 N479 0.984 . S
H485 N479 0.985 . S
H486 N483 0.984 . S
H487 N483 0.985 . S
H488 N482 0.984 1_565 S
H489 N482 0.984 . S
H490 N478 0.984 . S
H491 N478 0.985 . S
C492 C493 1.363 . S
C492 C498 1.379 . S
C492 N500 1.356 . S
C493 C492 1.363 . S
C493 C499 1.363 . S
C494 C495 1.363 1_556 S
C494 C499 1.379 1_556 S
C494 N501 1.356 . S
C495 C494 1.363 1_554 S
C495 C498 1.363 . S
N496 C498 1.356 . S
N496 H508 0.984 . S
N496 H509 0.985 . S
N497 C499 1.356 . S
N497 H502 0.984 . S
N497 H503 0.985 1_554 S
C498 C492 1.379 . S
C498 C495 1.363 . S
C498 N496 1.356 . S
C499 C493 1.363 . S
C499 C494 1.379 1_554 S
C499 N497 1.356 . S
N500 C492 1.356 . S
N500 H506 0.984 . S
N500 H507 0.984 . S
N501 C494 1.356 . S
N501 H504 0.984 . S
N501 H505 0.985 . S
H502 N497 0.984 . S
H503 N497 0.985 1_556 S
H504 N501 0.984 . S
H505 N501 0.985 . S
H506 N500 0.984 . S
H507 N500 0.984 . S
H508 N496 0.984 . S
H509 N496 0.985 . S
C510 C511 1.363 . S
C510 C516 1.379 1_554 S
C510 N518 1.356 . S
C511 C510 1.363 . S
C511 C517 1.363 . S
C512 C513 1.363 . S
C512 C517 1.379 . S
C512 N519 1.356 . S
C513 C512 1.363 . S
C513 C516 1.363 1_554 S
N514 C516 1.356 . S
N514 H526 0.984 . S
N514 H527 0.985 . S
N515 C517 1.356 . S
N515 H520 0.984 . S
N515 H521 0.985 . S
C516 C510 1.379 1_556 S
C516 C513 1.363 1_556 S
C516 N514 1.356 . S
C517 C511 1.363 . S
C517 C512 1.379 . S
C517 N515 1.356 . S
N518 C510 1.356 . S
N518 H524 0.984 1_554 S
N518 H525 0.984 . S
N519 C512 1.356 . S
N519 H522 0.984 . S
N519 H523 0.985 . S
H520 N515 0.984 . S
H521 N515 0.985 . S
H522 N519 0.984 . S
H523 N519 0.985 . S
H524 N518 0.984 1_556 S
H525 N518 0.984 . S
H526 N514 0.984 . S
H527 N514 0.985 . S
C528 C529 1.363 . S
C528 C534 1.379 . S
C528 N536 1.356 . S
C529 C528 1.363 . S
C529 C535 1.363 . S
C530 C531 1.363 . S
C530 C535 1.379 . S
C530 N537 1.356 . S
C531 C530 1.363 . S
C531 C534 1.363 . S
N532 C534 1.373 . S
N532 H544 0.970 1_655 S
N532 H545 0.983 1_655 S
N533 C535 1.356 . S
N533 H538 0.984 . S
N533 H539 0.985 . S
C534 C528 1.379 . S
C534 C531 1.363 . S
C534 N532 1.373 . S
C535 C529 1.363 . S
C535 C530 1.379 . S
C535 N533 1.356 . S
N536 C528 1.356 . S
N536 H542 0.984 . S
N536 H543 0.984 . S
N537 C530 1.356 . S
N537 H540 0.984 . S
N537 H541 0.985 . S
H538 N533 0.984 . S
H539 N533 0.985 . S
H540 N537 0.984 . S
H541 N537 0.985 . S
H542 N536 0.984 . S
H543 N536 0.984 . S
H544 N532 0.970 1_455 S
H545 N532 0.983 1_455 S
C546 C547 1.363 . S
C546 C552 1.379 . S
C546 N554 1.356 . S
C547 C546 1.363 . S
C547 C553 1.363 1_565 S
C548 C549 1.363 1_545 S
C548 C553 1.379 . S
C548 N555 1.356 . S
C549 C548 1.363 1_565 S
C549 C552 1.363 . S
N550 C552 1.356 . S
N550 H562 0.984 . S
N550 H563 0.985 . S
N551 C553 1.356 . S
N551 H556 0.984 . S
N551 H557 0.985 . S
C552 C546 1.379 . S
C552 C549 1.363 . S
C552 N550 1.356 . S
C553 C547 1.363 1_545 S
C553 C548 1.379 . S
C553 N551 1.356 . S
N554 C546 1.356 . S
N554 H560 0.984 . S
N554 H561 0.984 . S
N555 C548 1.356 . S
N555 H558 0.984 . S
N555 H559 0.985 . S
H556 N551 0.984 . S
H557 N551 0.985 . S
H558 N555 0.984 . S
H559 N555 0.985 . S
H560 N554 0.984 . S
H561 N554 0.984 . S
H562 N550 0.984 . S
H563 N550 0.985 . S
C564 C565 1.363 . S
C564 C570 1.379 . S
C564 N572 1.356 . S
C565 C564 1.363 . S
C565 C571 1.363 . S
C566 C567 1.363 . S
C566 C571 1.379 . S
C566 N573 1.356 . S
C567 C566 1.363 . S
C567 C570 1.363 . S
N568 C570 1.356 . S
N568 H580 0.984 . S
N568 H581 0.985 . S
N569 C571 1.356 . S
N569 H574 0.984 . S
N569 H575 0.985 . S
C570 C564 1.379 . S
C570 C567 1.363 . S
C570 N568 1.356 . S
C571 C565 1.363 . S
C571 C566 1.379 . S
C571 N569 1.356 . S
N572 C564 1.356 . S
N572 H578 0.984 . S
N572 H579 0.984 . S
N573 C566 1.356 . S
N573 H576 0.984 . S
N573 H577 0.985 . S
H574 N569 0.984 . S
H575 N569 0.985 . S
H576 N573 0.984 . S
H577 N573 0.985 . S
H578 N572 0.984 . S
H579 N572 0.984 . S
H580 N568 0.984 . S
H581 N568 0.985 . S
C582 C583 1.363 . S
C582 C588 1.379 . S
C582 N590 1.356 . S
C583 C582 1.363 . S
C583 C589 1.363 . S
C584 C585 1.363 . S
C584 C589 1.379 . S
C584 N591 1.356 . S
C585 C584 1.363 . S
C585 C588 1.363 . S
N586 C588 1.356 . S
N586 H598 0.984 . S
N586 H599 0.985 . S
N587 C589 1.356 . S
N587 H592 0.984 . S
N587 H593 0.985 . S
C588 C582 1.379 . S
C588 C585 1.363 . S
C588 N586 1.356 . S
C589 C583 1.363 . S
C589 C584 1.379 . S
C589 N587 1.356 . S
N590 C582 1.356 . S
N590 H596 0.984 . S
N590 H597 0.984 . S
N591 C584 1.356 . S
N591 H594 0.984 . S
N591 H595 0.985 . S
H592 N587 0.984 . S
H593 N587 0.985 . S
H594 N591 0.984 . S
H595 N591 0.985 . S
H596 N590 0.984 . S
H597 N590 0.984 . S
H598 N586 0.984 . S
H599 N586 0.985 . S
C169 C76 1.559 . S
C171 C89 1.598 . S
C189 C124 1.612 . S
C187 C87 1.536 . S
C207 C129 1.378 . S
C205 C54 1.352 . S
C225 C149 1.546 . S
C223 C65 1.512 . S
C243 C97 1.598 1_565 S
C241 C32 1.567 1_556 S
C259 C43 1.550 1_556 S
C261 C114 1.612 . S
C277 C10 1.356 1_556 S
C279 C137 1.379 . S
C295 C21 1.522 . S
C297 C157 1.541 1_655 S
C315 C107 1.427 . S
C313 C60 1.364 . S
C333 C116 1.197 . S
C331 C71 1.164 . S
C351 C147 1.462 . S
C349 C82 1.403 . S
C367 C49 1.109 . S
C369 C167 1.123 . S
C385 C16 1.354 . S
C387 C96 1.426 1_655 S
C405 C127 1.197 1_565 S
C403 C27 1.158 1_556 S
C423 C136 1.462 . S
C421 C38 1.388 1_556 S
C439 C5 1.106 1_556 S
C441 C156 1.123 . S
C457 C59 1.470 . S
C459 C94 1.478 1_554 S
C475 C70 1.503 . S
C477 C117 1.569 1_554 S
C495 C134 1.576 1_554 S
C493 C81 1.528 . S
C513 C154 1.564 1_554 S
C511 C48 1.539 . S
C529 C15 1.460 . S
C531 C104 1.478 . S
C549 C109 1.575 . S
C547 C26 1.492 . S
C567 C144 1.576 . S
C565 C37 1.513 . S
C583 C4 1.536 . S
C585 C164 1.564 . S
