# Generated by pormake.
# Topology zzz, (3,6)-cn, num edge types: 1
# Building blocks:
#     Node 0, Type 0, BuildingBlock: MIDCAF_clean_linker_0, # of connection points: 3
#     Node 1, Type 0, BuildingBlock: MIDCAF_clean_linker_0, # of connection points: 3
#     Node 2, Type 0, BuildingBlock: MIDCAF_clean_linker_0, # of connection points: 3
#     Node 3, Type 0, BuildingBlock: MIDCAF_clean_linker_0, # of connection points: 3
#     Node 4, Type 0, BuildingBlock: MIDCAF_clean_linker_0, # of connection points: 3
#     Node 5, Type 0, BuildingBlock: MIDCAF_clean_linker_0, # of connection points: 3
#     Node 6, Type 0, BuildingBlock: MIDCAF_clean_linker_0, # of connection points: 3
#     Node 7, Type 0, BuildingBlock: MIDCAF_clean_linker_0, # of connection points: 3
#     Node 8, Type 1, BuildingBlock: CUKXOW_clean_sbu_0, # of connection points: 6
#     Node 9, Type 1, BuildingBlock: CUKXOW_clean_sbu_0, # of connection points: 6
#     Node 10, Type 1, BuildingBlock: CUKXOW_clean_sbu_0, # of connection points: 6
#     Node 11, Type 1, BuildingBlock: CUKXOW_clean_sbu_0, # of connection points: 6
#     Edge 12, Type (0, 1), BuildingBlock: AJUNOK_clean_linker_0, # of connection points: 2
#     Edge 13, Type (0, 1), BuildingBlock: AJUNOK_clean_linker_0, # of connection points: 2
#     Edge 14, Type (0, 1), BuildingBlock: AJUNOK_clean_linker_0, # of connection points: 2
#     Edge 15, Type (0, 1), BuildingBlock: AJUNOK_clean_linker_0, # of connection points: 2
#     Edge 16, Type (0, 1), BuildingBlock: AJUNOK_clean_linker_0, # of connection points: 2
#     Edge 17, Type (0, 1), BuildingBlock: AJUNOK_clean_linker_0, # of connection points: 2
#     Edge 18, Type (0, 1), BuildingBlock: AJUNOK_clean_linker_0, # of connection points: 2
#     Edge 19, Type (0, 1), BuildingBlock: AJUNOK_clean_linker_0, # of connection points: 2
#     Edge 20, Type (0, 1), BuildingBlock: AJUNOK_clean_linker_0, # of connection points: 2
#     Edge 21, Type (0, 1), BuildingBlock: AJUNOK_clean_linker_0, # of connection points: 2
#     Edge 22, Type (0, 1), BuildingBlock: AJUNOK_clean_linker_0, # of connection points: 2
#     Edge 23, Type (0, 1), BuildingBlock: AJUNOK_clean_linker_0, # of connection points: 2
#     Edge 24, Type (0, 1), BuildingBlock: AJUNOK_clean_linker_0, # of connection points: 2
#     Edge 25, Type (0, 1), BuildingBlock: AJUNOK_clean_linker_0, # of connection points: 2
#     Edge 26, Type (0, 1), BuildingBlock: AJUNOK_clean_linker_0, # of connection points: 2
#     Edge 27, Type (0, 1), BuildingBlock: AJUNOK_clean_linker_0, # of connection points: 2
#     Edge 28, Type (0, 1), BuildingBlock: AJUNOK_clean_linker_0, # of connection points: 2
#     Edge 29, Type (0, 1), BuildingBlock: AJUNOK_clean_linker_0, # of connection points: 2
#     Edge 30, Type (0, 1), BuildingBlock: AJUNOK_clean_linker_0, # of connection points: 2
#     Edge 31, Type (0, 1), BuildingBlock: AJUNOK_clean_linker_0, # of connection points: 2
#     Edge 32, Type (0, 1), BuildingBlock: AJUNOK_clean_linker_0, # of connection points: 2
#     Edge 33, Type (0, 1), BuildingBlock: AJUNOK_clean_linker_0, # of connection points: 2
#     Edge 34, Type (0, 1), BuildingBlock: AJUNOK_clean_linker_0, # of connection points: 2
#     Edge 35, Type (0, 1), BuildingBlock: AJUNOK_clean_linker_0, # of connection points: 2
# Relax obj value: 0.213
# Max RMSD: 0.230
# Mean RMSD: 0.186
data_MOF--net-zzz--node1-CUKXOW_clean_sbu_0--node2-MIDCAF_clean_linker_0--edge1-AJUNOK_clean_linker_0
_symmetry_space_group_name_H-M    P1
_symmetry_Int_Tables_number       1
_symmetry_cell_setting            triclinic
loop_
_symmetry_equiv_pos_as_xyz
'x, y, z'
_cell_length_a     45.438501
_cell_length_b     44.828258
_cell_length_c     16.233893
_cell_angle_alpha  92.958079
_cell_angle_beta   87.858971
_cell_angle_gamma 95.651541
loop_
_atom_site_label
_atom_site_type_symbol
_atom_site_fract_x
_atom_site_fract_y
_atom_site_fract_z
_atom_type_partial_charge
C0 C 0.82167 0.51141 0.33204 0.0
C1 C 0.82049 0.49386 0.40156 0.0
C2 C 0.79727 0.47087 0.4098 0.0
C3 C 0.7785 0.4627 0.34427 0.0
H4 H 0.70065 0.48944 0.12222 0.0
H5 H 0.65736 0.49774 0.04426 0.0
H6 H 0.68428 0.43577 0.85027 0.0
H7 H 0.7272 0.42708 0.92755 0.0
H8 H 0.79524 0.41378 0.91426 0.0
H9 H 0.84133 0.40918 0.83441 0.0
H10 H 0.89022 0.42238 0.05855 0.0
H11 H 0.84455 0.4251 0.13839 0.0
H12 H 0.80624 0.51522 0.21039 0.0
H13 H 0.83923 0.52928 0.32384 0.0
H14 H 0.79531 0.4575 0.46379 0.0
H15 H 0.7632 0.44265 0.34785 0.0
N16 N 0.7489 0.46573 0.15394 0.0
N17 N 0.76552 0.43693 0.03907 0.0
N18 N 0.79481 0.446 0.15436 0.0
C19 C 0.74428 0.45277 0.07692 0.0
C20 C 0.79084 0.43335 0.07768 0.0
C21 C 0.77413 0.46191 0.19291 0.0
C22 C 0.71744 0.45746 0.03156 0.0
C23 C 0.69728 0.47742 0.06321 0.0
C24 C 0.67259 0.48234 0.01847 0.0
C25 C 0.6674 0.46721 0.94167 0.0
C26 C 0.6875 0.44736 0.90995 0.0
C27 C 0.71219 0.44252 0.9543 0.0
C28 C 0.8163 0.42115 0.03237 0.0
C29 C 0.8157 0.41459 0.94679 0.0
C30 C 0.84213 0.41212 0.90097 0.0
C31 C 0.86948 0.41682 0.93988 0.0
C32 C 0.8696 0.41907 0.0264 0.0
C33 C 0.84326 0.42098 0.07223 0.0
C34 C 0.78221 0.47799 0.2709 0.0
C35 C 0.80264 0.5035 0.26719 0.0
C36 C 0.90023 0.83917 0.31029 0.0
C37 C 0.91594 0.82912 0.3746 0.0
C38 C 0.92262 0.79903 0.37075 0.0
C39 C 0.91697 0.78064 0.29946 0.0
H40 H 0.94218 0.69965 0.15992 0.0
H41 H 0.95642 0.64889 0.12384 0.0
H42 H 0.9179 0.65136 0.8856 0.0
H43 H 0.90413 0.7017 0.9206 0.0
H44 H 0.96426 0.78431 0.90282 0.0
H45 H 0.98953 0.82882 0.84136 0.0
H46 H 0.91397 0.87767 0.9056 0.0
H47 H 0.88941 0.83363 0.97097 0.0
H48 H 0.88395 0.83011 0.18925 0.0
H49 H 0.89454 0.86209 0.31117 0.0
H50 H 0.9338 0.79027 0.42069 0.0
H51 H 0.92463 0.75847 0.29528 0.0
N52 N 0.91103 0.74783 0.13599 0.0
N53 N 0.91993 0.75483 0.99401 0.0
N54 N 0.909 0.79517 0.0827 0.0
C55 C 0.91688 0.73634 0.05828 0.0
C56 C 0.91581 0.78425 0.00596 0.0
C57 C 0.90657 0.77737 0.14805 0.0
C58 C 0.92214 0.70455 0.04289 0.0
C59 C 0.93631 0.68901 0.10058 0.0
C60 C 0.94455 0.66016 0.07995 0.0
C61 C 0.93801 0.64629 0.00233 0.0
C62 C 0.92281 0.66142 0.94629 0.0
C63 C 0.91511 0.69028 0.96616 0.0
C64 C 0.92515 0.80583 0.94269 0.0
C65 C 0.9526 0.8042 0.90084 0.0
C66 C 0.96713 0.82972 0.86601 0.0
C67 C 0.95413 0.85695 0.8718 0.0
C68 C 0.92491 0.85722 0.9032 0.0
C69 C 0.9107 0.83197 0.93958 0.0
C70 C 0.90428 0.79206 0.23152 0.0
C71 C 0.89432 0.82081 0.23988 0.0
C72 C 0.69654 0.02997 0.42933 0.0
C73 C 0.67935 0.00343 0.44979 0.0
C74 C 0.68741 0.97585 0.41577 0.0
C75 C 0.7095 0.97521 0.35349 0.0
H76 H 0.81436 0.03961 0.15225 0.0
H77 H 0.86275 0.0401 0.08127 0.0
H78 H 0.83385 0.95654 0.94996 0.0
H79 H 0.78473 0.95785 0.01591 0.0
H80 H 0.71032 0.99429 0.93546 0.0
H81 H 0.66813 0.00237 0.85194 0.0
H82 H 0.62449 0.04084 0.06721 0.0
H83 H 0.66558 0.03205 0.15034 0.0
H84 H 0.72891 0.05036 0.34498 0.0
H85 H 0.69097 0.05148 0.45564 0.0
H86 H 0.6745 0.95508 0.43063 0.0
H87 H 0.71267 0.95405 0.32063 0.0
N88 N 0.76023 0.00034 0.20701 0.0
N89 N 0.74358 0.00374 0.07182 0.0
N90 N 0.71051 0.0064 0.18499 0.0
C91 C 0.76586 0.00058 0.12382 0.0
C92 C 0.7158 0.00699 0.10267 0.0
C93 C 0.73223 0.00292 0.23715 0.0
C94 C 0.79608 0.99864 0.08947 0.0
C95 C 0.81866 0.02123 0.10888 0.0
C96 C 0.84649 0.02128 0.0687 0.0
C97 C 0.85256 0.99814 0.01026 0.0
C98 C 0.83 0.97494 0.99365 0.0
C99 C 0.80194 0.97547 0.03181 0.0
C100 C 0.69131 0.01242 0.04949 0.0
C101 C 0.69174 0.00457 0.96457 0.0
C102 C 0.66768 0.00932 0.91682 0.0
C103 C 0.64308 0.0224 0.9531 0.0
C104 C 0.64292 0.0304 0.03769 0.0
C105 C 0.66662 0.0254 0.08525 0.0
C106 C 0.72382 0.0021 0.32503 0.0
C107 C 0.7186 0.0293 0.36707 0.0
C108 C 0.57625 0.6312 0.06433 0.0
C109 C 0.5619 0.63184 0.98968 0.0
C110 C 0.5614 0.65938 0.95224 0.0
C111 C 0.57372 0.68606 0.99112 0.0
H112 H 0.60985 0.78333 0.97691 0.0
H113 H 0.59904 0.82997 0.91725 0.0
H114 H 0.56686 0.86239 0.15514 0.0
H115 H 0.57837 0.81609 0.21598 0.0
H116 H 0.56155 0.73812 0.35913 0.0
H117 H 0.55569 0.70364 0.47059 0.0
H118 H 0.64832 0.68954 0.4435 0.0
H119 H 0.65343 0.72263 0.32771 0.0
H120 H 0.59896 0.65635 0.16158 0.0
H121 H 0.57768 0.61015 0.09321 0.0
H122 H 0.55067 0.66035 0.89409 0.0
H123 H 0.57197 0.70705 0.96234 0.0
N124 N 0.59425 0.74118 0.08538 0.0
N125 N 0.60365 0.76456 0.21653 0.0
N126 N 0.60213 0.71228 0.19659 0.0
C127 C 0.59846 0.76666 0.13488 0.0
C128 C 0.60623 0.73726 0.24665 0.0
C129 C 0.59593 0.71381 0.11626 0.0
C130 C 0.59485 0.79603 0.10103 0.0
C131 C 0.60094 0.8006 0.01682 0.0
C132 C 0.59496 0.82728 0.98276 0.0
C133 C 0.58231 0.84959 0.03197 0.0
C134 C 0.57686 0.84547 0.11644 0.0
C135 C 0.58346 0.81905 0.15102 0.0
C136 C 0.60785 0.73277 0.3349 0.0
C137 C 0.58101 0.72901 0.38026 0.0
C138 C 0.57765 0.70898 0.44378 0.0
C139 C 0.60127 0.69282 0.46331 0.0
C140 C 0.62942 0.70074 0.4274 0.0
C141 C 0.63257 0.72021 0.36243 0.0
C142 C 0.58692 0.68561 0.06795 0.0
C143 C 0.58868 0.65773 0.10295 0.0
C144 C 0.19863 0.5598 0.04579 0.0
C145 C 0.19454 0.52939 0.01929 0.0
C146 C 0.21225 0.50915 0.05241 0.0
C147 C 0.23114 0.51857 0.11722 0.0
H148 H 0.32429 0.53899 0.26503 0.0
H149 H 0.37034 0.52802 0.32627 0.0
H150 H 0.32916 0.5353 0.5693 0.0
H151 H 0.28336 0.54603 0.50919 0.0
H152 H 0.22124 0.56974 0.53687 0.0
H153 H 0.17535 0.57165 0.61946 0.0
H154 H 0.13129 0.59677 0.40586 0.0
H155 H 0.17695 0.59637 0.32514 0.0
H156 H 0.21796 0.59219 0.13413 0.0
H157 H 0.18544 0.57602 0.02175 0.0
H158 H 0.21015 0.4857 0.03177 0.0
H159 H 0.24238 0.50204 0.14698 0.0
N160 N 0.26705 0.5472 0.26489 0.0
N161 N 0.25219 0.56458 0.3981 0.0
N162 N 0.2222 0.56866 0.28662 0.0
C163 C 0.2726 0.55214 0.34695 0.0
C164 C 0.22698 0.57301 0.36817 0.0
C165 C 0.2418 0.55586 0.23467 0.0
C166 C 0.30014 0.54364 0.38207 0.0
C167 C 0.325 0.53804 0.33144 0.0
C168 C 0.3514 0.53197 0.36643 0.0
C169 C 0.35332 0.53113 0.45254 0.0
C170 C 0.32826 0.5358 0.50278 0.0
C171 C 0.30206 0.54211 0.46811 0.0
C172 C 0.20258 0.58215 0.42385 0.0
C173 C 0.20206 0.57685 0.5085 0.0
C174 C 0.17575 0.57782 0.55575 0.0
C175 C 0.1496 0.58407 0.51907 0.0
C176 C 0.15101 0.59234 0.43669 0.0
C177 C 0.17726 0.59166 0.38987 0.0
C178 C 0.23252 0.54834 0.14943 0.0
C179 C 0.21736 0.56913 0.11015 0.0
C180 C 0.12519 0.17883 0.07919 0.0
C181 C 0.10663 0.18403 0.01521 0.0
C182 C 0.09466 0.21187 0.01556 0.0
C183 C 0.0979 0.23223 0.08382 0.0
H184 H 0.03551 0.28949 0.40283 0.0
H185 H 0.0238 0.33906 0.45333 0.0
H186 H 0.10388 0.37874 0.33517 0.0
H187 H 0.11572 0.32847 0.28368 0.0
H188 H 0.03543 0.22281 0.46332 0.0
H189 H 0.01226 0.17864 0.5323 0.0
H190 H 0.08881 0.13153 0.4681 0.0
H191 H 0.11181 0.17523 0.39734 0.0
H192 H 0.14063 0.1931 0.19879 0.0
H193 H 0.13452 0.1576 0.08187 0.0
H194 H 0.0806 0.2167 0.96646 0.0
H195 H 0.08567 0.25183 0.08655 0.0
N196 N 0.09811 0.26621 0.24868 0.0
N197 N 0.0789 0.25414 0.38094 0.0
N198 N 0.09944 0.21769 0.29562 0.0
C199 C 0.08536 0.27467 0.3226 0.0
C200 C 0.0862 0.22573 0.3681 0.0
C201 C 0.10536 0.23749 0.23545 0.0
C202 C 0.07661 0.30521 0.33988 0.0
C203 C 0.05041 0.3088 0.38637 0.0
C204 C 0.04363 0.33717 0.41499 0.0
C205 C 0.06306 0.36263 0.3987 0.0
C206 C 0.08869 0.35934 0.34905 0.0
C207 C 0.09532 0.33075 0.31912 0.0
C208 C 0.07535 0.20229 0.4249 0.0
C209 C 0.04764 0.20332 0.46591 0.0
C210 C 0.03429 0.17812 0.50469 0.0
C211 C 0.04883 0.15196 0.50443 0.0
C212 C 0.07735 0.15162 0.46868 0.0
C213 C 0.09043 0.17654 0.4285 0.0
C214 C 0.11314 0.22493 0.15252 0.0
C215 C 0.12862 0.19922 0.14675 0.0
C216 C 0.32646 0.02259 0.97756 0.0
C217 C 0.34036 0.99716 0.94913 0.0
C218 C 0.32892 0.96885 0.97529 0.0
C219 C 0.30644 0.96642 0.03626 0.0
H220 H 0.19974 0.9729 0.22504 0.0
H221 H 0.1522 0.97484 0.29964 0.0
H222 H 0.19286 0.04111 0.47411 0.0
H223 H 0.24065 0.03716 0.40296 0.0
H224 H 0.30968 0.00689 0.45736 0.0
H225 H 0.35336 0.00221 0.53876 0.0
H226 H 0.39134 0.9512 0.33585 0.0
H227 H 0.3485 0.95612 0.25467 0.0
H228 H 0.29615 0.04044 0.06731 0.0
H229 H 0.33501 0.0447 0.95869 0.0
H230 H 0.33913 0.9489 0.95381 0.0
H231 H 0.30045 0.94476 0.06214 0.0
N232 N 0.25889 0.99827 0.18987 0.0
N233 N 0.27492 0.9946 0.32555 0.0
N234 N 0.3069 0.98625 0.21276 0.0
C235 C 0.25329 0.99952 0.27327 0.0
C236 C 0.30174 0.98765 0.29516 0.0
C237 C 0.286 0.99163 0.15997 0.0
C238 C 0.22374 0.00489 0.30836 0.0
C239 C 0.19824 0.98828 0.27842 0.0
C240 C 0.17096 0.98958 0.32105 0.0
C241 C 0.1685 0.00824 0.39309 0.0
C242 C 0.19391 0.0261 0.41985 0.0
C243 C 0.22126 0.02409 0.37874 0.0
C244 C 0.32587 0.98228 0.34928 0.0
C245 C 0.32727 0.99447 0.43067 0.0
C246 C 0.35223 0.9919 0.47699 0.0
C247 C 0.37598 0.97708 0.44244 0.0
C248 C 0.37379 0.96362 0.36282 0.0
C249 C 0.34912 0.9663 0.31665 0.0
C250 C 0.29516 0.99224 0.07237 0.0
C251 C 0.30394 0.02012 0.03896 0.0
C252 C 0.44596 0.37383 0.31889 0.0
C253 C 0.44824 0.37451 0.40493 0.0
C254 C 0.43789 0.34874 0.44748 0.0
C255 C 0.42615 0.32265 0.40424 0.0
H256 H 0.394 0.22349 0.3997 0.0
H257 H 0.40777 0.18056 0.4705 0.0
H258 H 0.45661 0.15196 0.25212 0.0
H259 H 0.44172 0.19462 0.17969 0.0
H260 H 0.4397 0.25172 0.00637 0.0
H261 H 0.4505 0.28038 0.88264 0.0
H262 H 0.37952 0.33479 0.95506 0.0
H263 H 0.36775 0.30495 0.07316 0.0
H264 H 0.43308 0.34861 0.20967 0.0
H265 H 0.4548 0.3927 0.28353 0.0
H266 H 0.43938 0.3486 0.5139 0.0
H267 H 0.41906 0.30285 0.43805 0.0
N268 N 0.4168 0.26685 0.29944 0.0
N269 N 0.40874 0.24373 0.16704 0.0
N270 N 0.40926 0.29592 0.18875 0.0
C271 C 0.41335 0.24154 0.24921 0.0
C272 C 0.40581 0.27117 0.13752 0.0
C273 C 0.4151 0.29419 0.26912 0.0
C274 C 0.41711 0.21252 0.28463 0.0
C275 C 0.4072 0.20771 0.36624 0.0
C276 C 0.41527 0.18328 0.40695 0.0
C277 C 0.43407 0.1635 0.36769 0.0
C278 C 0.44227 0.16701 0.28403 0.0
C279 C 0.43373 0.19133 0.24259 0.0
C280 C 0.40306 0.27634 0.04941 0.0
C281 C 0.42519 0.26841 0.99221 0.0
C282 C 0.43169 0.28528 0.92219 0.0
C283 C 0.41638 0.31048 0.90931 0.0
C284 C 0.39166 0.31548 0.9611 0.0
C285 C 0.38487 0.29832 0.02963 0.0
C286 C 0.4242 0.32211 0.31796 0.0
C287 C 0.43369 0.34823 0.27625 0.0
Tb288 Tb 0.99516 0.97974 0.64558 0.0
C289 C 0.06101 0.00345 0.60185 0.0
Tb290 Tb 0.02914 0.02562 0.77069 0.0
O291 O 0.99314 0.01353 0.55317 0.0
O292 O 0.99812 0.02596 0.6775 0.0
O293 O 0.03893 0.98251 0.58578 0.0
C294 C 0.05533 0.0757 0.84329 0.0
O295 O 0.06079 0.02328 0.66568 0.0
C296 C 0.02428 0.96926 0.80967 0.0
C297 C 0.96278 0.0022 0.81198 0.0
O298 O 0.06818 0.05161 0.82282 0.0
O299 O 0.02771 0.0713 0.82422 0.0
O300 O 0.02909 0.9917 0.86318 0.0
O301 O 0.02638 0.97942 0.7387 0.0
O302 O 0.98455 0.02374 0.82623 0.0
O303 O 0.96386 0.98132 0.75097 0.0
C304 C 0.96894 0.92941 0.575 0.0
O305 O 0.9564 0.95398 0.59132 0.0
O306 O 0.99618 0.9335 0.59729 0.0
C307 C 0.9989 0.03589 0.60632 0.0
Tb308 Tb 0.50362 0.03396 0.65035 0.0
C309 C 0.56204 0.00347 0.60836 0.0
Tb310 Tb 0.51572 0.97971 0.75018 0.0
O311 O 0.54123 0.06048 0.70618 0.0
O312 O 0.51749 0.02661 0.77049 0.0
O313 O 0.54271 0.02095 0.58163 0.0
C314 C 0.5378 0.9426 0.85079 0.0
O315 O 0.55638 0.98659 0.67335 0.0
C316 C 0.48131 0.96689 0.62446 0.0
C317 C 0.45745 0.00965 0.7873 0.0
O318 O 0.55268 0.96497 0.81594 0.0
O319 O 0.51056 0.94113 0.82876 0.0
O320 O 0.48145 0.95016 0.68717 0.0
O321 O 0.50256 0.98694 0.63038 0.0
O322 O 0.47913 0.99733 0.82189 0.0
O323 O 0.46146 0.02225 0.71514 0.0
C324 C 0.48223 0.07459 0.55997 0.0
O325 O 0.48996 0.07871 0.63614 0.0
O326 O 0.48653 0.04738 0.53436 0.0
C327 C 0.54038 0.04492 0.7716 0.0
Tb328 Tb 0.5297 0.52733 0.64312 0.0
C329 C 0.46147 0.51273 0.61762 0.0
Tb330 Tb 0.49552 0.47367 0.73443 0.0
O331 O 0.52183 0.50384 0.5229 0.0
O332 O 0.52338 0.48018 0.62867 0.0
O333 O 0.48413 0.53387 0.61795 0.0
C334 C 0.46873 0.41952 0.76614 0.0
O335 O 0.4624 0.48648 0.65171 0.0
C336 C 0.50666 0.52342 0.82555 0.0
C337 C 0.56374 0.48791 0.75993 0.0
O338 O 0.45638 0.44452 0.77434 0.0
O339 O 0.49607 0.42517 0.74158 0.0
O340 O 0.50008 0.49734 0.85676 0.0
O341 O 0.50231 0.52068 0.74941 0.0
O342 O 0.54076 0.46722 0.76146 0.0
O343 O 0.56325 0.51398 0.72442 0.0
C344 C 0.55796 0.57939 0.59886 0.0
O345 O 0.56743 0.55314 0.58402 0.0
O346 O 0.53252 0.57628 0.63802 0.0
C347 C 0.51749 0.47752 0.55359 0.0
Tb348 Tb 0.98129 0.50879 0.65708 0.0
C349 C 0.02846 0.46394 0.60241 0.0
Tb350 Tb 0.03214 0.50074 0.77659 0.0
O351 O 0.0117 0.5337 0.57069 0.0
O352 O 0.02107 0.53244 0.69488 0.0
O353 O 0.0021 0.47294 0.59003 0.0
C354 C 0.08548 0.50439 0.84322 0.0
O355 O 0.04433 0.47313 0.66773 0.0
C356 C 0.98129 0.47065 0.8118 0.0
C357 C 0.98416 0.54405 0.83298 0.0
O358 O 0.06506 0.48215 0.84997 0.0
O359 O 0.07565 0.52459 0.79999 0.0
O360 O 0.00169 0.47778 0.86552 0.0
O361 O 0.99162 0.47687 0.74071 0.0
O362 O 0.01177 0.53756 0.84208 0.0
O363 O 0.96763 0.53273 0.77077 0.0
C364 C 0.92992 0.50466 0.57995 0.0
O365 O 0.94422 0.52956 0.60718 0.0
O366 O 0.94454 0.48243 0.5967 0.0
C367 C 0.03166 0.54007 0.62579 0.0
C368 C 0.14154 0.00796 0.53108 0.0
C369 C 0.14039 0.00752 0.44426 0.0
C370 C 0.11576 0.00693 0.58138 0.0
C371 C 0.08771 0.00461 0.54704 0.0
H372 H 0.16256 0.00869 0.56079 0.0
H373 H 0.11779 0.00735 0.64774 0.0
S374 S 0.07186 0.00481 0.32494 0.0
N375 N 0.10833 0.00678 0.327 0.0
N376 N 0.05987 0.00322 0.42206 0.0
C377 C 0.08596 0.00419 0.46086 0.0
C378 C 0.11227 0.00598 0.40938 0.0
C379 C 0.44649 0.11079 0.38707 0.0
C380 C 0.44683 0.14094 0.41627 0.0
C381 C 0.45811 0.08935 0.43365 0.0
C382 C 0.47048 0.09738 0.51084 0.0
H383 H 0.4368 0.10365 0.32847 0.0
H384 H 0.45712 0.06632 0.40943 0.0
S385 S 0.47913 0.17385 0.61127 0.0
N386 N 0.4625 0.17801 0.52454 0.0
N387 N 0.4837 0.1378 0.61232 0.0
C388 C 0.47144 0.12752 0.53986 0.0
C389 C 0.4598 0.14928 0.49249 0.0
C390 C 0.38177 0.50398 0.54923 0.0
C391 C 0.38145 0.52613 0.49108 0.0
C392 C 0.4077 0.49984 0.58968 0.0
C393 C 0.43425 0.51802 0.57461 0.0
H394 H 0.36178 0.48968 0.56347 0.0
H395 H 0.40676 0.48239 0.63371 0.0
S396 S 0.44499 0.5791 0.42682 0.0
N397 N 0.4098 0.5663 0.41969 0.0
N398 N 0.45856 0.55876 0.49558 0.0
C399 C 0.43419 0.54023 0.5162 0.0
C400 C 0.40783 0.54417 0.47436 0.0
C401 C 0.02877 0.40178 0.43478 0.0
C402 C 0.05698 0.39181 0.43955 0.0
C403 C 0.0203 0.42596 0.48512 0.0
C404 C 0.03961 0.44098 0.54301 0.0
H405 H 0.01271 0.39004 0.39391 0.0
H406 H 0.99793 0.432 0.48072 0.0
S407 S 0.11711 0.42516 0.57369 0.0
N408 N 0.10502 0.39988 0.50209 0.0
N409 N 0.08934 0.44559 0.59659 0.0
C410 C 0.06853 0.43223 0.54508 0.0
C411 C 0.07717 0.40762 0.49331 0.0
C412 C 0.88169 0.99062 0.87747 0.0
C413 C 0.88141 0.99905 0.96236 0.0
C414 C 0.9081 0.99151 0.83001 0.0
C415 C 0.9354 0.00158 0.86465 0.0
H416 H 0.86123 0.98365 0.84668 0.0
H417 H 0.90701 0.9848 0.76502 0.0
S418 S 0.94763 0.02476 0.08423 0.0
N419 N 0.91153 0.01604 0.07995 0.0
N420 N 0.96093 0.01954 0.98908 0.0
C421 C 0.93567 0.01024 0.94908 0.0
C422 C 0.90878 0.00856 0.99823 0.0
C423 C 0.5413 0.8769 0.98616 0.0
C424 C 0.57183 0.87545 0.99291 0.0
C425 C 0.53053 0.89919 0.94145 0.0
C426 C 0.54994 0.92098 0.9028 0.0
H427 H 0.52566 0.86006 0.01332 0.0
H428 H 0.50682 0.89898 0.93594 0.0
S429 S 0.6319 0.92828 0.90843 0.0
N430 N 0.62136 0.89829 0.96123 0.0
N431 N 0.60118 0.94082 0.87869 0.0
C432 C 0.58055 0.9205 0.91204 0.0
C433 C 0.5915 0.8975 0.95663 0.0
C434 C 0.63507 0.50122 0.8774 0.0
C435 C 0.64105 0.47201 0.89453 0.0
C436 C 0.61044 0.50614 0.83203 0.0
C437 C 0.59066 0.48204 0.80303 0.0
H438 H 0.64968 0.5204 0.89876 0.0
H439 H 0.60658 0.52905 0.82109 0.0
S440 S 0.59648 0.40119 0.83246 0.0
N441 N 0.62523 0.41871 0.87974 0.0
N442 N 0.57906 0.42776 0.79445 0.0
C443 C 0.59649 0.45269 0.8198 0.0
C444 C 0.62165 0.44773 0.86545 0.0
C445 C 0.97944 0.61426 0.97162 0.0
C446 C 0.94889 0.61719 0.97547 0.0
C447 C 0.99072 0.58945 0.92966 0.0
C448 C 0.97177 0.56685 0.89005 0.0
H449 H 0.99484 0.63214 0.99662 0.0
H450 H 0.01449 0.58895 0.92409 0.0
S451 S 0.88963 0.56157 0.89642 0.0
N452 N 0.89971 0.59374 0.94646 0.0
N453 N 0.92067 0.54704 0.86817 0.0
C454 C 0.94102 0.56845 0.89953 0.0
C455 C 0.92963 0.59366 0.94208 0.0
C456 C 0.04428 0.11124 0.60344 0.0
C457 C 0.03358 0.12407 0.53504 0.0
C458 C 0.03213 0.08308 0.62783 0.0
C459 C 0.00929 0.06667 0.58421 0.0
H460 H 0.0626 0.12273 0.63696 0.0
H461 H 0.04185 0.07353 0.67833 0.0
S462 S 0.97383 0.09068 0.40008 0.0
N463 N 0.99882 0.11881 0.42397 0.0
N464 N 0.97633 0.06539 0.46939 0.0
C465 C 0.99828 0.07942 0.51595 0.0
C466 C 0.01032 0.10832 0.49166 0.0
C467 C 0.40116 0.96493 0.56889 0.0
C468 C 0.40315 0.97548 0.4887 0.0
C469 C 0.4267 0.96153 0.61172 0.0
C470 C 0.45499 0.96902 0.57617 0.0
H471 H 0.37975 0.95879 0.59814 0.0
H472 H 0.42424 0.95347 0.67363 0.0
S473 S 0.47222 0.99797 0.3687 0.0
N474 N 0.4357 0.99394 0.37604 0.0
N475 N 0.48369 0.98712 0.45675 0.0
C476 C 0.45733 0.97975 0.49651 0.0
C477 C 0.43138 0.98311 0.45269 0.0
C478 C 0.48513 0.39778 0.50614 0.0
C479 C 0.46362 0.40131 0.44806 0.0
C480 C 0.50254 0.42264 0.53993 0.0
C481 C 0.49944 0.45174 0.51569 0.0
H482 H 0.48922 0.37562 0.52375 0.0
H483 H 0.51905 0.41898 0.58383 0.0
S484 S 0.44429 0.47358 0.37302 0.0
N485 N 0.43807 0.43672 0.37508 0.0
N486 N 0.47233 0.48306 0.43387 0.0
C487 C 0.47773 0.45572 0.45903 0.0
C488 C 0.45937 0.43059 0.42662 0.0
C489 C 0.11468 0.54822 0.59553 0.0
C490 C 0.12029 0.5763 0.56004 0.0
C491 C 0.08599 0.53711 0.61939 0.0
C492 C 0.06187 0.55361 0.60899 0.0
H493 H 0.13228 0.53382 0.60036 0.0
H494 H 0.0827 0.51482 0.64223 0.0
S495 S 0.06467 0.62961 0.52841 0.0
N496 N 0.09944 0.62161 0.52315 0.0
N497 N 0.04524 0.60008 0.56666 0.0
C498 C 0.06712 0.58216 0.57709 0.0
C499 C 0.09641 0.59372 0.5533 0.0
C500 C 0.99055 0.88873 0.78514 0.0
C501 C 0.97234 0.88556 0.85674 0.0
C502 C 0.00837 0.91555 0.772 0.0
C503 C 0.00835 0.9401 0.82941 0.0
H504 H 0.99087 0.87047 0.73881 0.0
H505 H 0.02238 0.91708 0.71672 0.0
S506 S 0.96755 0.94188 0.03155 0.0
N507 N 0.95781 0.90819 0.98977 0.0
N508 N 0.9906 0.95869 0.96368 0.0
C509 C 0.99127 0.93676 0.9028 0.0
C510 C 0.97328 0.90952 0.9165 0.0
C511 C 0.58842 0.02017 0.93552 0.0
C512 C 0.61736 0.02791 0.90425 0.0
C513 C 0.56365 0.02649 0.89319 0.0
C514 C 0.56687 0.04071 0.81794 0.0
H515 H 0.58488 0.00888 0.993 0.0
H516 H 0.5418 0.01982 0.91902 0.0
S517 S 0.63771 0.06571 0.70935 0.0
N518 N 0.64774 0.0509 0.79374 0.0
N519 N 0.60118 0.06242 0.71346 0.0
C520 C 0.59562 0.04871 0.78595 0.0
C521 C 0.62087 0.04223 0.82902 0.0
C522 C 0.55476 0.5962 0.86764 0.0
C523 C 0.54768 0.60379 0.95036 0.0
C524 C 0.54168 0.56992 0.82878 0.0
C525 C 0.52061 0.5505 0.86993 0.0
H526 H 0.57094 0.6104 0.83307 0.0
H527 H 0.54896 0.56438 0.76691 0.0
S528 S 0.49477 0.55985 0.08803 0.0
N529 N 0.51868 0.58951 0.07364 0.0
N530 N 0.49388 0.5401 -0.00082 0.0
C531 C 0.51371 0.55746 0.95324 0.0
C532 C 0.52721 0.58418 0.99357 0.0
C533 C 0.92434 0.41607 0.91467 0.0
C534 C 0.89731 0.42579 0.8925 0.0
C535 C 0.95147 0.42991 0.88505 0.0
C536 C 0.95255 0.45364 0.83134 0.0
H537 H 0.92456 0.39862 0.95834 0.0
H538 H 0.97178 0.4226 0.9064 0.0
S539 S 0.88821 0.48779 0.7557 0.0
N540 N 0.8735 0.46075 0.81362 0.0
N541 N 0.92429 0.4862 0.75786 0.0
C542 C 0.92575 0.46268 0.80611 0.0
C543 C 0.89816 0.44882 0.83653 0.0
C544 C 0.06427 0.15287 0.95026 0.0
C545 C 0.09506 0.15843 0.95955 0.0
C546 C 0.05182 0.12631 0.91106 0.0
C547 C 0.06957 0.10406 0.88025 0.0
H548 H 0.04943 0.16849 0.97697 0.0
H549 H 0.02796 0.12281 0.90728 0.0
S550 S 0.15153 0.10894 0.87931 0.0
N551 N 0.14321 0.1406 0.92704 0.0
N552 N 0.11963 0.09024 0.855 0.0
C553 C 0.10043 0.10973 0.88572 0.0
C554 C 0.1132 0.137 0.92498 0.0
C555 C 0.39396 0.98926 0.93962 0.0
C556 C 0.36961 0.00053 0.90503 0.0
C557 C 0.42226 0.99287 0.90207 0.0
C558 C 0.42743 0.0078 0.82798 0.0
H559 H 0.39117 0.97783 0.99702 0.0
H560 H 0.44014 0.98364 0.93138 0.0
S561 S 0.37053 0.04074 0.71126 0.0
N562 N 0.35213 0.02687 0.79255 0.0
N563 N 0.40517 0.03357 0.72063 0.0
C564 C 0.40309 0.01914 0.79254 0.0
C565 C 0.37427 0.01558 0.83143 0.0
C566 C 0.46035 0.34332 0.85789 0.0
C567 C 0.42962 0.33489 0.856 0.0
C568 C 0.47292 0.37009 0.82483 0.0
C569 C 0.45524 0.38986 0.79037 0.0
H570 H 0.47473 0.33018 0.88966 0.0
H571 H 0.49646 0.37614 0.83068 0.0
S572 S 0.37492 0.37613 0.75496 0.0
N573 N 0.38274 0.34651 0.80339 0.0
N574 N 0.40635 0.39778 0.746 0.0
C575 C 0.42494 0.38106 0.78304 0.0
C576 C 0.41216 0.35334 0.81459 0.0
C577 C 0.16312 0.53573 0.89858 0.0
C578 C 0.16916 0.51897 0.96596 0.0
C579 C 0.13638 0.53014 0.8575 0.0
C580 C 0.1147 0.50741 0.88172 0.0
H581 H 0.17877 0.55407 0.87933 0.0
H582 H 0.13237 0.54426 0.80769 0.0
S583 S 0.11993 0.45606 0.05127 0.0
N584 N 0.15133 0.47796 0.05316 0.0
N585 N 0.10153 0.46697 0.97418 0.0
C586 C 0.12098 0.48944 0.94597 0.0
C587 C 0.14811 0.4953 0.98844 0.0
C588 C 0.91163 0.87407 0.47175 0.0
C589 C 0.92859 0.85143 0.43813 0.0
C590 C 0.92465 0.89883 0.5182 0.0
C591 C 0.95505 0.90174 0.53342 0.0
H592 H 0.88828 0.8732 0.45949 0.0
H593 H 0.91093 0.91618 0.54043 0.0
S594 S 0.00907 0.84803 0.46429 0.0
N595 N 0.97742 0.83327 0.42627 0.0
N596 N 0.0015 0.87914 0.51611 0.0
C597 C 0.97197 0.87855 0.50431 0.0
C598 C 0.95884 0.85352 0.45619 0.0
C599 C 0.64207 0.98771 0.56136 0.0
C600 C 0.65007 0.00483 0.4926 0.0
C601 C 0.61354 0.98728 0.598 0.0
C602 C 0.59177 0.00359 0.56641 0.0
H603 H 0.65797 0.97457 0.58695 0.0
H604 H 0.60864 0.97403 0.65162 0.0
S605 S 0.60158 0.0507 0.38364 0.0
N606 N 0.63396 0.03764 0.39225 0.0
N607 N 0.5805 0.0369 0.4603 0.0
C608 C 0.59961 0.02064 0.49699 0.0
C609 C 0.62868 0.02122 0.46032 0.0
C610 C 0.57498 0.66295 0.57549 0.0
C611 C 0.59488 0.66436 0.50691 0.0
C612 C 0.56393 0.63533 0.60686 0.0
C613 C 0.57261 0.60816 0.57134 0.0
H614 H 0.56701 0.68327 0.60315 0.0
H615 H 0.54789 0.63523 0.65795 0.0
S616 S 0.62474 0.59919 0.39282 0.0
N617 N 0.62303 0.63576 0.40532 0.0
N618 N 0.6031 0.58418 0.4667 0.0
C619 C 0.59357 0.60921 0.50568 0.0
C620 C 0.60453 0.63724 0.47289 0.0
C621 C 0.85949 0.52431 0.4849 0.0
C622 C 0.84634 0.49612 0.45603 0.0
C623 C 0.88632 0.52697 0.52626 0.0
C624 C 0.90103 0.50156 0.53966 0.0
H625 H 0.84924 0.54451 0.47401 0.0
H626 H 0.89585 0.54911 0.54654 0.0
S627 S 0.87607 0.42265 0.47645 0.0
N628 N 0.85036 0.44231 0.44374 0.0
N629 N 0.90022 0.44729 0.52254 0.0
C630 C 0.88781 0.47323 0.51284 0.0
C631 C 0.86061 0.47051 0.47082 0.0
loop_
_geom_bond_atom_site_label_1
_geom_bond_atom_site_label_2
_geom_bond_distance
_geom_bond_site_symmetry_2
_ccdc_geom_bond_type
C0 C1 1.384 . S
C0 H13 0.947 . S
C0 C35 1.382 . S
C1 C0 1.384 . S
C1 C2 1.378 . S
C2 C1 1.378 . S
C2 C3 1.378 . S
C2 H14 0.952 . S
C3 C2 1.378 . S
C3 H15 0.950 . S
C3 C34 1.383 . S
H4 C23 0.947 . S
H5 C24 0.946 . S
H6 C26 0.953 . S
H7 C27 0.945 . S
H8 C29 0.952 . S
H9 C30 0.949 . S
H10 C32 0.950 . S
H11 C33 0.948 1_554 S
H12 C35 0.951 . S
H13 C0 0.947 . S
H14 C2 0.952 . S
H15 C3 0.950 . S
N16 C19 1.382 . S
N16 C21 1.363 . S
N17 C19 1.371 1_556 S
N17 C20 1.372 . S
N18 C20 1.361 1_554 S
N18 C21 1.377 . S
C19 N16 1.382 . S
C19 N17 1.371 1_554 S
C19 C22 1.480 . S
C20 N17 1.372 . S
C20 N18 1.361 1_556 S
C20 C28 1.457 . S
C21 N16 1.363 . S
C21 N18 1.377 . S
C21 C34 1.479 . S
C22 C19 1.480 . S
C22 C23 1.383 . S
C22 C27 1.385 1_554 S
C23 H4 0.947 . S
C23 C22 1.383 . S
C23 C24 1.388 . S
C24 H5 0.946 . S
C24 C23 1.388 . S
C24 C25 1.384 1_554 S
C25 C24 1.384 1_556 S
C25 C26 1.377 . S
C26 H6 0.953 . S
C26 C25 1.377 . S
C26 C27 1.369 . S
C27 H7 0.945 . S
C27 C22 1.385 1_556 S
C27 C26 1.369 . S
C28 C20 1.457 . S
C28 C29 1.372 . S
C28 C33 1.364 . S
C29 H8 0.952 . S
C29 C28 1.372 . S
C29 C30 1.389 . S
C30 H9 0.949 . S
C30 C29 1.389 . S
C30 C31 1.387 . S
C31 C30 1.387 . S
C31 C32 1.372 . S
C32 H10 0.950 . S
C32 C31 1.372 . S
C32 C33 1.379 . S
C33 H11 0.948 1_556 S
C33 C28 1.364 . S
C33 C32 1.379 . S
C34 C3 1.383 . S
C34 C21 1.479 . S
C34 C35 1.398 . S
C35 C0 1.382 . S
C35 H12 0.951 . S
C35 C34 1.398 . S
C36 C37 1.384 . S
C36 H49 0.947 . S
C36 C71 1.382 . S
C37 C36 1.384 . S
C37 C38 1.378 . S
C38 C37 1.378 . S
C38 C39 1.378 . S
C38 H50 0.952 . S
C39 C38 1.378 . S
C39 H51 0.950 . S
C39 C70 1.383 . S
H40 C59 0.947 . S
H41 C60 0.946 . S
H42 C62 0.953 . S
H43 C63 0.945 . S
H44 C65 0.952 . S
H45 C66 0.949 . S
H46 C68 0.950 . S
H47 C69 0.948 . S
H48 C71 0.951 . S
H49 C36 0.947 . S
H50 C38 0.952 . S
H51 C39 0.950 . S
N52 C55 1.382 . S
N52 C57 1.363 . S
N53 C55 1.371 1_556 S
N53 C56 1.372 . S
N54 C56 1.361 1_554 S
N54 C57 1.377 . S
C55 N52 1.382 . S
C55 N53 1.371 1_554 S
C55 C58 1.480 1_554 S
C56 N53 1.372 . S
C56 N54 1.361 1_556 S
C56 C64 1.457 . S
C57 N52 1.363 . S
C57 N54 1.377 . S
C57 C70 1.479 . S
C58 C55 1.480 1_556 S
C58 C59 1.383 1_556 S
C58 C63 1.385 . S
C59 H40 0.947 . S
C59 C58 1.383 1_554 S
C59 C60 1.388 . S
C60 H41 0.946 . S
C60 C59 1.388 . S
C60 C61 1.384 1_554 S
C61 C60 1.384 1_556 S
C61 C62 1.377 . S
C62 H42 0.953 . S
C62 C61 1.377 . S
C62 C63 1.369 . S
C63 H43 0.945 . S
C63 C58 1.385 . S
C63 C62 1.369 . S
C64 C56 1.457 . S
C64 C65 1.372 . S
C64 C69 1.364 . S
C65 H44 0.952 . S
C65 C64 1.372 . S
C65 C66 1.389 . S
C66 H45 0.949 . S
C66 C65 1.389 . S
C66 C67 1.387 . S
C67 C66 1.387 . S
C67 C68 1.372 . S
C68 H46 0.950 . S
C68 C67 1.372 . S
C68 C69 1.379 . S
C69 H47 0.948 . S
C69 C64 1.364 . S
C69 C68 1.379 . S
C70 C39 1.383 . S
C70 C57 1.479 . S
C70 C71 1.398 . S
C71 C36 1.382 . S
C71 H48 0.951 . S
C71 C70 1.398 . S
C72 C73 1.384 1_565 S
C72 H85 0.947 . S
C72 C107 1.382 1_565 S
C73 C72 1.384 1_545 S
C73 C74 1.378 . S
C74 C73 1.378 . S
C74 C75 1.378 . S
C74 H86 0.952 . S
C75 C74 1.378 . S
C75 H87 0.950 . S
C75 C106 1.383 . S
H76 C95 0.947 . S
H77 C96 0.955 . S
H78 C98 0.953 . S
H79 C99 0.945 . S
H80 C101 0.947 1_565 S
H81 C102 0.949 . S
H82 C104 0.950 . S
H83 C105 0.948 . S
H84 C107 0.951 1_565 S
H85 C72 0.947 . S
H86 C74 0.952 . S
H87 C75 0.950 . S
N88 C91 1.382 . S
N88 C93 1.363 . S
N89 C91 1.371 . S
N89 C92 1.372 . S
N90 C92 1.361 . S
N90 C93 1.377 . S
C91 N88 1.382 . S
C91 N89 1.371 . S
C91 C94 1.480 . S
C92 N89 1.372 . S
C92 N90 1.361 . S
C92 C100 1.457 1_554 S
C93 N88 1.363 . S
C93 N90 1.377 . S
C93 C106 1.479 . S
C94 C91 1.480 . S
C94 C95 1.383 . S
C94 C99 1.385 1_554 S
C95 H76 0.947 . S
C95 C94 1.383 . S
C95 C96 1.383 1_545 S
C96 H77 0.955 . S
C96 C95 1.383 1_565 S
C96 C97 1.381 1_565 S
C97 C96 1.381 1_545 S
C97 C98 1.377 1_554 S
C98 H78 0.953 . S
C98 C97 1.377 1_556 S
C98 C99 1.369 . S
C99 H79 0.945 . S
C99 C94 1.385 1_556 S
C99 C98 1.369 . S
C100 C92 1.457 1_556 S
C100 C101 1.377 . S
C100 C105 1.364 1_556 S
C101 H80 0.947 1_545 S
C101 C100 1.377 . S
C101 C102 1.390 1_545 S
C102 H81 0.949 . S
C102 C101 1.390 1_565 S
C102 C103 1.387 1_565 S
C103 C102 1.387 1_545 S
C103 C104 1.372 . S
C104 H82 0.950 . S
C104 C103 1.372 . S
C104 C105 1.379 1_556 S
C105 H83 0.948 . S
C105 C100 1.364 1_554 S
C105 C104 1.379 1_554 S
C106 C75 1.383 . S
C106 C93 1.479 . S
C106 C107 1.398 . S
C107 C72 1.382 1_545 S
C107 H84 0.951 1_545 S
C107 C106 1.398 . S
C108 C109 1.384 . S
C108 H121 0.947 . S
C108 C143 1.382 . S
C109 C108 1.384 . S
C109 C110 1.378 . S
C110 C109 1.378 . S
C110 C111 1.378 . S
C110 H122 0.952 . S
C111 C110 1.378 . S
C111 H123 0.950 . S
C111 C142 1.383 . S
H112 C131 0.947 . S
H113 C132 0.946 . S
H114 C134 0.953 . S
H115 C135 0.945 . S
H116 C137 0.952 . S
H117 C138 0.949 . S
H118 C140 0.950 . S
H119 C141 0.948 . S
H120 C143 0.951 1_554 S
H121 C108 0.947 . S
H122 C110 0.952 . S
H123 C111 0.950 . S
N124 C127 1.382 . S
N124 C129 1.363 . S
N125 C127 1.371 . S
N125 C128 1.372 . S
N126 C128 1.361 . S
N126 C129 1.377 . S
C127 N124 1.382 . S
C127 N125 1.371 . S
C127 C130 1.480 . S
C128 N125 1.372 . S
C128 N126 1.361 . S
C128 C136 1.457 . S
C129 N124 1.363 . S
C129 N126 1.377 . S
C129 C142 1.479 1_554 S
C130 C127 1.480 . S
C130 C131 1.383 1_554 S
C130 C135 1.385 . S
C131 H112 0.947 . S
C131 C130 1.383 1_556 S
C131 C132 1.388 . S
C132 H113 0.946 . S
C132 C131 1.388 . S
C132 C133 1.384 1_556 S
C133 C132 1.384 1_554 S
C133 C134 1.377 . S
C134 H114 0.953 . S
C134 C133 1.377 . S
C134 C135 1.369 . S
C135 H115 0.945 . S
C135 C130 1.385 . S
C135 C134 1.369 . S
C136 C128 1.457 . S
C136 C137 1.372 . S
C136 C141 1.364 . S
C137 H116 0.952 . S
C137 C136 1.372 . S
C137 C138 1.389 . S
C138 H117 0.949 . S
C138 C137 1.389 . S
C138 C139 1.387 . S
C139 C138 1.387 . S
C139 C140 1.372 . S
C140 H118 0.950 . S
C140 C139 1.372 . S
C140 C141 1.379 . S
C141 H119 0.948 . S
C141 C136 1.364 . S
C141 C140 1.379 . S
C142 C111 1.383 . S
C142 C129 1.479 1_556 S
C142 C143 1.398 . S
C143 C108 1.382 . S
C143 H120 0.951 1_556 S
C143 C142 1.398 . S
C144 C145 1.384 . S
C144 H157 0.947 . S
C144 C179 1.382 . S
C145 C144 1.384 . S
C145 C146 1.378 . S
C146 C145 1.378 . S
C146 C147 1.378 . S
C146 H158 0.952 1_554 S
C147 C146 1.378 . S
C147 H159 0.950 . S
C147 C178 1.383 . S
H148 C167 0.947 . S
H149 C168 0.946 . S
H150 C170 0.953 . S
H151 C171 0.945 . S
H152 C173 0.952 . S
H153 C174 0.949 . S
H154 C176 0.950 . S
H155 C177 0.948 . S
H156 C179 0.951 . S
H157 C144 0.947 . S
H158 C146 0.952 1_556 S
H159 C147 0.950 . S
N160 C163 1.382 . S
N160 C165 1.363 . S
N161 C163 1.371 . S
N161 C164 1.372 . S
N162 C164 1.361 . S
N162 C165 1.377 . S
C163 N160 1.382 . S
C163 N161 1.371 . S
C163 C166 1.480 . S
C164 N161 1.372 . S
C164 N162 1.361 . S
C164 C172 1.457 . S
C165 N160 1.363 . S
C165 N162 1.377 . S
C165 C178 1.479 . S
C166 C163 1.480 . S
C166 C167 1.383 . S
C166 C171 1.385 . S
C167 H148 0.947 . S
C167 C166 1.383 . S
C167 C168 1.388 . S
C168 H149 0.946 . S
C168 C167 1.388 . S
C168 C169 1.384 . S
C169 C168 1.384 . S
C169 C170 1.377 . S
C170 H150 0.953 . S
C170 C169 1.377 . S
C170 C171 1.369 . S
C171 H151 0.945 . S
C171 C166 1.385 . S
C171 C170 1.369 . S
C172 C164 1.457 . S
C172 C173 1.372 . S
C172 C177 1.364 . S
C173 H152 0.952 . S
C173 C172 1.372 . S
C173 C174 1.389 . S
C174 H153 0.949 . S
C174 C173 1.389 . S
C174 C175 1.387 . S
C175 C174 1.387 . S
C175 C176 1.372 . S
C176 H154 0.950 . S
C176 C175 1.372 . S
C176 C177 1.379 . S
C177 H155 0.948 . S
C177 C172 1.364 . S
C177 C176 1.379 . S
C178 C147 1.383 . S
C178 C165 1.479 . S
C178 C179 1.398 . S
C179 C144 1.382 . S
C179 H156 0.951 . S
C179 C178 1.398 . S
C180 C181 1.384 . S
C180 H193 0.947 . S
C180 C215 1.382 . S
C181 C180 1.384 . S
C181 C182 1.378 . S
C182 C181 1.378 . S
C182 C183 1.378 . S
C182 H194 0.952 . S
C183 C182 1.378 . S
C183 H195 0.950 . S
C183 C214 1.383 . S
H184 C203 0.947 . S
H185 C204 0.946 . S
H186 C206 0.953 . S
H187 C207 0.945 . S
H188 C209 0.952 . S
H189 C210 0.949 . S
H190 C212 0.950 . S
H191 C213 0.948 . S
H192 C215 0.951 . S
H193 C180 0.947 . S
H194 C182 0.952 . S
H195 C183 0.950 . S
N196 C199 1.382 . S
N196 C201 1.363 . S
N197 C199 1.371 . S
N197 C200 1.372 . S
N198 C200 1.361 . S
N198 C201 1.377 . S
C199 N196 1.382 . S
C199 N197 1.371 . S
C199 C202 1.480 . S
C200 N197 1.372 . S
C200 N198 1.361 . S
C200 C208 1.457 . S
C201 N196 1.363 . S
C201 N198 1.377 . S
C201 C214 1.479 . S
C202 C199 1.480 . S
C202 C203 1.383 . S
C202 C207 1.385 . S
C203 H184 0.947 . S
C203 C202 1.383 . S
C203 C204 1.388 . S
C204 H185 0.946 . S
C204 C203 1.388 . S
C204 C205 1.384 . S
C205 C204 1.384 . S
C205 C206 1.377 . S
C206 H186 0.953 . S
C206 C205 1.377 . S
C206 C207 1.369 . S
C207 H187 0.945 . S
C207 C202 1.385 . S
C207 C206 1.369 . S
C208 C200 1.457 . S
C208 C209 1.372 . S
C208 C213 1.364 . S
C209 H188 0.952 . S
C209 C208 1.372 . S
C209 C210 1.389 . S
C210 H189 0.949 . S
C210 C209 1.389 . S
C210 C211 1.387 . S
C211 C210 1.387 . S
C211 C212 1.372 . S
C212 H190 0.950 . S
C212 C211 1.372 . S
C212 C213 1.379 . S
C213 H191 0.948 . S
C213 C208 1.364 . S
C213 C212 1.379 . S
C214 C183 1.383 . S
C214 C201 1.479 . S
C214 C215 1.398 . S
C215 C180 1.382 . S
C215 H192 0.951 . S
C215 C214 1.398 . S
C216 C217 1.384 1_554 S
C216 H229 0.947 . S
C216 C251 1.382 . S
C217 C216 1.384 1_556 S
C217 C218 1.378 . S
C218 C217 1.378 . S
C218 C219 1.378 1_556 S
C218 H230 0.952 . S
C219 C218 1.378 1_554 S
C219 H231 0.950 . S
C219 C250 1.383 . S
H220 C239 0.947 . S
H221 C240 0.946 . S
H222 C242 0.953 . S
H223 C243 0.945 . S
H224 C245 0.952 . S
H225 C246 0.949 . S
H226 C248 0.950 . S
H227 C249 0.948 . S
H228 C251 0.951 . S
H229 C216 0.947 . S
H230 C218 0.952 . S
H231 C219 0.950 . S
N232 C235 1.382 . S
N232 C237 1.363 . S
N233 C235 1.371 . S
N233 C236 1.372 . S
N234 C236 1.361 . S
N234 C237 1.377 . S
C235 N232 1.382 . S
C235 N233 1.371 . S
C235 C238 1.480 . S
C236 N233 1.372 . S
C236 N234 1.361 . S
C236 C244 1.457 . S
C237 N232 1.363 . S
C237 N234 1.377 . S
C237 C250 1.479 . S
C238 C235 1.480 . S
C238 C239 1.383 . S
C238 C243 1.385 . S
C239 H220 0.947 . S
C239 C238 1.383 . S
C239 C240 1.388 . S
C240 H221 0.946 . S
C240 C239 1.388 . S
C240 C241 1.384 . S
C241 C240 1.384 . S
C241 C242 1.377 . S
C242 H222 0.953 . S
C242 C241 1.377 . S
C242 C243 1.369 . S
C243 H223 0.945 . S
C243 C238 1.385 . S
C243 C242 1.369 . S
C244 C236 1.457 . S
C244 C245 1.372 . S
C244 C249 1.364 . S
C245 H224 0.952 . S
C245 C244 1.372 . S
C245 C246 1.389 . S
C246 H225 0.949 . S
C246 C245 1.389 . S
C246 C247 1.387 . S
C247 C246 1.387 . S
C247 C248 1.372 . S
C248 H226 0.950 . S
C248 C247 1.372 . S
C248 C249 1.379 . S
C249 H227 0.948 . S
C249 C244 1.364 . S
C249 C248 1.379 . S
C250 C219 1.383 . S
C250 C237 1.479 . S
C250 C251 1.398 . S
C251 C216 1.382 . S
C251 H228 0.951 . S
C251 C250 1.398 . S
C252 C253 1.384 . S
C252 H265 0.947 . S
C252 C287 1.382 . S
C253 C252 1.384 . S
C253 C254 1.378 . S
C254 C253 1.378 . S
C254 C255 1.378 . S
C254 H266 0.952 . S
C255 C254 1.378 . S
C255 H267 0.950 . S
C255 C286 1.383 . S
H256 C275 0.947 . S
H257 C276 0.946 . S
H258 C278 0.953 . S
H259 C279 0.945 . S
H260 C281 0.952 . S
H261 C282 0.949 1_556 S
H262 C284 0.950 . S
H263 C285 0.948 . S
H264 C287 0.951 . S
H265 C252 0.947 . S
H266 C254 0.952 . S
H267 C255 0.950 . S
N268 C271 1.382 . S
N268 C273 1.363 . S
N269 C271 1.371 . S
N269 C272 1.372 . S
N270 C272 1.361 . S
N270 C273 1.377 . S
C271 N268 1.382 . S
C271 N269 1.371 . S
C271 C274 1.480 . S
C272 N269 1.372 . S
C272 N270 1.361 . S
C272 C280 1.457 . S
C273 N268 1.363 . S
C273 N270 1.377 . S
C273 C286 1.479 . S
C274 C271 1.480 . S
C274 C275 1.383 . S
C274 C279 1.385 . S
C275 H256 0.947 . S
C275 C274 1.383 . S
C275 C276 1.388 . S
C276 H257 0.946 . S
C276 C275 1.388 . S
C276 C277 1.384 . S
C277 C276 1.384 . S
C277 C278 1.377 . S
C278 H258 0.953 . S
C278 C277 1.377 . S
C278 C279 1.369 . S
C279 H259 0.945 . S
C279 C274 1.385 . S
C279 C278 1.369 . S
C280 C272 1.457 . S
C280 C281 1.372 . S
C280 C285 1.364 . S
C281 H260 0.952 . S
C281 C280 1.372 . S
C281 C282 1.389 . S
C282 H261 0.949 1_554 S
C282 C281 1.389 . S
C282 C283 1.386 1_554 S
C283 C282 1.386 1_556 S
C283 C284 1.370 1_556 S
C284 H262 0.950 . S
C284 C283 1.370 1_554 S
C284 C285 1.379 . S
C285 H263 0.948 . S
C285 C280 1.364 . S
C285 C284 1.379 . S
C286 C255 1.383 . S
C286 C273 1.479 . S
C286 C287 1.398 . S
C287 C252 1.382 . S
C287 H264 0.951 . S
C287 C286 1.398 . S
Tb288 O291 2.453 1_665 S
Tb288 O292 2.596 1_665 S
Tb288 O293 2.374 1_655 S
Tb288 O301 2.343 . S
Tb288 O303 2.353 1_565 S
Tb288 O305 2.427 . S
Tb288 O306 2.513 . S
C289 O293 1.251 . S
C289 O295 1.263 . S
Tb290 O292 2.343 . S
Tb290 O295 2.353 1_545 S
Tb290 O298 2.427 . S
Tb290 O299 2.513 . S
Tb290 O300 2.453 1_545 S
Tb290 O301 2.596 1_445 S
Tb290 O302 2.374 1_455 S
O291 Tb288 2.453 1_445 S
O291 C307 1.245 . S
O292 Tb288 2.596 1_445 S
O292 Tb290 2.343 . S
O292 C307 1.259 . S
O293 Tb288 2.374 1_455 S
O293 C289 1.251 . S
C294 O298 1.275 . S
C294 O299 1.246 . S
O295 C289 1.263 . S
O295 Tb290 2.353 1_565 S
C296 O300 1.245 1_655 S
C296 O301 1.259 . S
C297 O302 1.250 . S
C297 O303 1.263 . S
O298 Tb290 2.427 . S
O298 C294 1.275 . S
O299 Tb290 2.513 . S
O299 C294 1.246 . S
O300 Tb290 2.453 1_565 S
O300 C296 1.245 1_455 S
O301 Tb288 2.343 . S
O301 Tb290 2.596 1_665 S
O301 C296 1.259 . S
O302 Tb290 2.374 1_655 S
O302 C297 1.250 . S
O303 Tb288 2.353 1_545 S
O303 C297 1.263 . S
C304 O305 1.275 . S
C304 O306 1.246 . S
O305 Tb288 2.427 . S
O305 C304 1.275 . S
O306 Tb288 2.513 . S
O306 C304 1.246 . S
C307 O291 1.245 . S
C307 O292 1.259 . S
Tb308 O311 2.453 . S
Tb308 O312 2.596 1_545 S
Tb308 O313 2.374 . S
Tb308 O321 2.343 . S
Tb308 O323 2.353 . S
Tb308 O325 2.427 . S
Tb308 O326 2.513 . S
C309 O313 1.251 . S
C309 O315 1.263 1_545 S
Tb310 O312 2.343 . S
Tb310 O315 2.353 . S
Tb310 O318 2.427 . S
Tb310 O319 2.513 . S
Tb310 O320 2.453 . S
Tb310 O321 2.596 1_565 S
Tb310 O322 2.374 . S
O311 Tb308 2.453 . S
O311 C327 1.245 . S
O312 Tb308 2.596 1_565 S
O312 Tb310 2.343 . S
O312 C327 1.259 1_565 S
O313 Tb308 2.374 . S
O313 C309 1.251 . S
C314 O318 1.275 . S
C314 O319 1.246 . S
O315 C309 1.263 1_565 S
O315 Tb310 2.353 . S
C316 O320 1.245 . S
C316 O321 1.259 1_565 S
C317 O322 1.250 1_545 S
C317 O323 1.263 . S
O318 Tb310 2.427 . S
O318 C314 1.275 . S
O319 Tb310 2.513 . S
O319 C314 1.246 . S
O320 Tb310 2.453 . S
O320 C316 1.245 . S
O321 Tb308 2.343 . S
O321 Tb310 2.596 1_545 S
O321 C316 1.259 1_545 S
O322 Tb310 2.374 . S
O322 C317 1.250 1_565 S
O323 Tb308 2.353 . S
O323 C317 1.263 . S
C324 O325 1.275 . S
C324 O326 1.246 . S
O325 Tb308 2.427 . S
O325 C324 1.275 . S
O326 Tb308 2.513 . S
O326 C324 1.246 . S
C327 O311 1.245 . S
C327 O312 1.259 1_545 S
Tb328 O331 2.453 . S
Tb328 O332 2.596 . S
Tb328 O333 2.374 . S
Tb328 O341 2.343 . S
Tb328 O343 2.353 . S
Tb328 O345 2.427 . S
Tb328 O346 2.513 . S
C329 O333 1.251 . S
C329 O335 1.263 . S
Tb330 O332 2.343 . S
Tb330 O335 2.353 . S
Tb330 O338 2.427 . S
Tb330 O339 2.513 . S
Tb330 O340 2.453 . S
Tb330 O341 2.596 . S
Tb330 O342 2.374 . S
O331 Tb328 2.453 . S
O331 C347 1.245 . S
O332 Tb328 2.596 . S
O332 Tb330 2.343 . S
O332 C347 1.259 . S
O333 Tb328 2.374 . S
O333 C329 1.251 . S
C334 O338 1.275 . S
C334 O339 1.246 . S
O335 C329 1.263 . S
O335 Tb330 2.353 . S
C336 O340 1.245 . S
C336 O341 1.259 . S
C337 O342 1.250 . S
C337 O343 1.263 . S
O338 Tb330 2.427 . S
O338 C334 1.275 . S
O339 Tb330 2.513 . S
O339 C334 1.246 . S
O340 Tb330 2.453 . S
O340 C336 1.245 . S
O341 Tb328 2.343 . S
O341 Tb330 2.596 . S
O341 C336 1.259 . S
O342 Tb330 2.374 . S
O342 C337 1.250 . S
O343 Tb328 2.353 . S
O343 C337 1.263 . S
C344 O345 1.275 . S
C344 O346 1.246 . S
O345 Tb328 2.427 . S
O345 C344 1.275 . S
O346 Tb328 2.513 . S
O346 C344 1.246 . S
C347 O331 1.245 . S
C347 O332 1.259 . S
Tb348 O351 2.453 1_655 S
Tb348 O352 2.596 1_655 S
Tb348 O353 2.374 1_655 S
Tb348 O361 2.343 . S
Tb348 O363 2.353 . S
Tb348 O365 2.427 . S
Tb348 O366 2.513 . S
C349 O353 1.251 . S
C349 O355 1.263 . S
Tb350 O352 2.343 . S
Tb350 O355 2.353 . S
Tb350 O358 2.427 . S
Tb350 O359 2.513 . S
Tb350 O360 2.453 1_455 S
Tb350 O361 2.596 1_455 S
Tb350 O362 2.389 . S
O351 Tb348 2.453 1_455 S
O351 C367 1.245 . S
O352 Tb348 2.596 1_455 S
O352 Tb350 2.343 . S
O352 C367 1.259 . S
O353 Tb348 2.374 1_455 S
O353 C349 1.251 . S
C354 O358 1.275 . S
C354 O359 1.246 . S
O355 C349 1.263 . S
O355 Tb350 2.353 . S
C356 O360 1.245 . S
C356 O361 1.259 . S
C357 O362 1.231 1_655 S
C357 O363 1.263 . S
O358 Tb350 2.427 . S
O358 C354 1.275 . S
O359 Tb350 2.513 . S
O359 C354 1.246 . S
O360 Tb350 2.453 1_655 S
O360 C356 1.245 . S
O361 Tb348 2.343 . S
O361 Tb350 2.596 1_655 S
O361 C356 1.259 . S
O362 Tb350 2.389 . S
O362 C357 1.231 1_455 S
O363 Tb348 2.353 . S
O363 C357 1.263 . S
C364 O365 1.275 . S
C364 O366 1.246 . S
O365 Tb348 2.427 . S
O365 C364 1.275 . S
O366 Tb348 2.513 . S
O366 C364 1.246 . S
C367 O351 1.245 . S
C367 O352 1.259 . S
C368 C369 1.369 1_565 S
C368 C370 1.419 . S
C368 H372 0.930 . S
C369 C368 1.369 1_545 S
C369 C378 1.429 . S
C370 C368 1.419 . S
C370 C371 1.368 . S
C370 H373 0.929 . S
C371 C370 1.368 . S
C371 C377 1.423 1_565 S
H372 C368 0.930 . S
H373 C370 0.929 . S
S374 N375 1.613 . S
S374 N376 1.610 . S
N375 S374 1.613 . S
N375 C378 1.350 . S
N376 S374 1.610 . S
N376 C377 1.351 . S
C377 C371 1.423 1_545 S
C377 N376 1.351 . S
C377 C378 1.434 . S
C378 C369 1.429 . S
C378 N375 1.350 . S
C378 C377 1.434 . S
C379 C380 1.369 . S
C379 C381 1.419 . S
C379 H383 0.930 . S
C380 C379 1.369 . S
C380 C389 1.429 . S
C381 C379 1.419 . S
C381 C382 1.363 . S
C381 H384 0.929 . S
C382 C381 1.363 . S
C382 C388 1.428 . S
H383 C379 0.930 . S
H384 C381 0.929 . S
S385 N386 1.613 . S
S385 N387 1.610 . S
N386 S385 1.613 . S
N386 C389 1.350 . S
N387 S385 1.610 . S
N387 C388 1.351 . S
C388 C382 1.428 . S
C388 N387 1.351 . S
C388 C389 1.434 . S
C389 C380 1.429 . S
C389 N386 1.350 . S
C389 C388 1.434 . S
C390 C391 1.369 . S
C390 C392 1.419 . S
C390 H394 0.930 . S
C391 C390 1.369 . S
C391 C400 1.429 . S
C392 C390 1.419 . S
C392 C393 1.363 . S
C392 H395 0.929 . S
C393 C392 1.363 . S
C393 C399 1.428 . S
H394 C390 0.930 . S
H395 C392 0.929 . S
S396 N397 1.613 . S
S396 N398 1.610 . S
N397 S396 1.613 . S
N397 C400 1.350 . S
N398 S396 1.610 . S
N398 C399 1.351 . S
C399 C393 1.428 . S
C399 N398 1.351 . S
C399 C400 1.434 . S
C400 C391 1.429 . S
C400 N397 1.350 . S
C400 C399 1.434 . S
C401 C402 1.369 . S
C401 C403 1.419 . S
C401 H405 0.930 . S
C402 C401 1.369 . S
C402 C411 1.429 . S
C403 C401 1.419 . S
C403 C404 1.363 . S
C403 H406 0.929 . S
C404 C403 1.363 . S
C404 C410 1.428 . S
H405 C401 0.930 . S
H406 C403 0.929 . S
S407 N408 1.613 . S
S407 N409 1.610 . S
N408 S407 1.613 . S
N408 C411 1.350 . S
N409 S407 1.610 . S
N409 C410 1.351 . S
C410 C404 1.428 . S
C410 N409 1.351 . S
C410 C411 1.434 . S
C411 C402 1.429 . S
C411 N408 1.350 . S
C411 C410 1.434 . S
C412 C413 1.369 . S
C412 C414 1.419 . S
C412 H416 0.930 . S
C413 C412 1.369 . S
C413 C422 1.429 1_545 S
C414 C412 1.419 . S
C414 C415 1.363 . S
C414 H417 0.929 . S
C415 C414 1.363 . S
C415 C421 1.428 1_545 S
H416 C412 0.930 . S
H417 C414 0.929 . S
S418 N419 1.613 . S
S418 N420 1.610 . S
N419 S418 1.613 . S
N419 C422 1.350 . S
N420 S418 1.610 . S
N420 C421 1.351 . S
C421 C415 1.428 1_565 S
C421 N420 1.351 . S
C421 C422 1.434 . S
C422 C413 1.429 1_565 S
C422 N419 1.350 . S
C422 C421 1.434 . S
C423 C424 1.369 . S
C423 C425 1.419 . S
C423 H427 0.930 . S
C424 C423 1.369 . S
C424 C433 1.429 . S
C425 C423 1.419 . S
C425 C426 1.363 . S
C425 H428 0.929 . S
C426 C425 1.363 . S
C426 C432 1.428 . S
H427 C423 0.930 . S
H428 C425 0.929 . S
S429 N430 1.613 . S
S429 N431 1.610 . S
N430 S429 1.613 . S
N430 C433 1.350 . S
N431 S429 1.610 . S
N431 C432 1.351 . S
C432 C426 1.428 . S
C432 N431 1.351 . S
C432 C433 1.434 . S
C433 C424 1.429 . S
C433 N430 1.350 . S
C433 C432 1.434 . S
C434 C435 1.369 . S
C434 C436 1.419 . S
C434 H438 0.930 . S
C435 C434 1.369 . S
C435 C444 1.429 . S
C436 C434 1.419 . S
C436 C437 1.363 . S
C436 H439 0.929 . S
C437 C436 1.363 . S
C437 C443 1.428 . S
H438 C434 0.930 . S
H439 C436 0.929 . S
S440 N441 1.613 . S
S440 N442 1.610 . S
N441 S440 1.613 . S
N441 C444 1.350 . S
N442 S440 1.610 . S
N442 C443 1.351 . S
C443 C437 1.428 . S
C443 N442 1.351 . S
C443 C444 1.434 . S
C444 C435 1.429 . S
C444 N441 1.350 . S
C444 C443 1.434 . S
C445 C446 1.369 . S
C445 C447 1.419 . S
C445 H449 0.930 . S
C446 C445 1.369 . S
C446 C455 1.429 . S
C447 C445 1.419 . S
C447 C448 1.363 . S
C447 H450 0.929 . S
C448 C447 1.363 . S
C448 C454 1.428 . S
H449 C445 0.930 . S
H450 C447 0.929 . S
S451 N452 1.613 . S
S451 N453 1.610 . S
N452 S451 1.613 . S
N452 C455 1.350 . S
N453 S451 1.610 . S
N453 C454 1.351 . S
C454 C448 1.428 . S
C454 N453 1.351 . S
C454 C455 1.434 . S
C455 C446 1.429 . S
C455 N452 1.350 . S
C455 C454 1.434 . S
C456 C457 1.369 . S
C456 C458 1.419 . S
C456 H460 0.930 . S
C457 C456 1.369 . S
C457 C466 1.429 . S
C458 C456 1.419 . S
C458 C459 1.363 . S
C458 H461 0.929 . S
C459 C458 1.363 . S
C459 C465 1.428 . S
H460 C456 0.930 . S
H461 C458 0.929 . S
S462 N463 1.613 . S
S462 N464 1.610 . S
N463 S462 1.613 . S
N463 C466 1.350 . S
N464 S462 1.610 . S
N464 C465 1.351 . S
C465 C459 1.428 . S
C465 N464 1.351 . S
C465 C466 1.434 . S
C466 C457 1.429 . S
C466 N463 1.350 . S
C466 C465 1.434 . S
C467 C468 1.369 1_565 S
C467 C469 1.419 . S
C467 H471 0.930 . S
C468 C467 1.369 1_545 S
C468 C477 1.429 . S
C469 C467 1.419 . S
C469 C470 1.363 1_565 S
C469 H472 0.929 . S
C470 C469 1.363 1_545 S
C470 C476 1.428 . S
H471 C467 0.930 . S
H472 C469 0.929 . S
S473 N474 1.613 . S
S473 N475 1.610 . S
N474 S473 1.613 . S
N474 C477 1.350 . S
N475 S473 1.610 . S
N475 C476 1.351 . S
C476 C470 1.428 . S
C476 N475 1.351 . S
C476 C477 1.434 . S
C477 C468 1.429 . S
C477 N474 1.350 . S
C477 C476 1.434 . S
C478 C479 1.369 . S
C478 C480 1.419 . S
C478 H482 0.930 . S
C479 C478 1.369 . S
C479 C488 1.429 . S
C480 C478 1.419 . S
C480 C481 1.363 . S
C480 H483 0.929 . S
C481 C480 1.363 . S
C481 C487 1.428 . S
H482 C478 0.930 . S
H483 C480 0.929 . S
S484 N485 1.613 . S
S484 N486 1.610 . S
N485 S484 1.613 . S
N485 C488 1.350 . S
N486 S484 1.610 . S
N486 C487 1.351 . S
C487 C481 1.428 . S
C487 N486 1.351 . S
C487 C488 1.434 . S
C488 C479 1.429 . S
C488 N485 1.350 . S
C488 C487 1.434 . S
C489 C490 1.369 . S
C489 C491 1.419 . S
C489 H493 0.930 . S
C490 C489 1.369 . S
C490 C499 1.429 . S
C491 C489 1.419 . S
C491 C492 1.363 . S
C491 H494 0.929 . S
C492 C491 1.363 . S
C492 C498 1.428 . S
H493 C489 0.930 . S
H494 C491 0.929 . S
S495 N496 1.613 . S
S495 N497 1.610 . S
N496 S495 1.613 . S
N496 C499 1.350 . S
N497 S495 1.610 . S
N497 C498 1.351 . S
C498 C492 1.428 . S
C498 N497 1.351 . S
C498 C499 1.434 . S
C499 C490 1.429 . S
C499 N496 1.350 . S
C499 C498 1.434 . S
C500 C501 1.369 . S
C500 C502 1.419 . S
C500 H504 0.930 . S
C501 C500 1.369 . S
C501 C510 1.429 . S
C502 C500 1.419 . S
C502 C503 1.363 . S
C502 H505 0.929 . S
C503 C502 1.363 . S
C503 C509 1.428 . S
H504 C500 0.930 . S
H505 C502 0.929 . S
S506 N507 1.613 . S
S506 N508 1.610 . S
N507 S506 1.613 . S
N507 C510 1.350 . S
N508 S506 1.610 . S
N508 C509 1.351 . S
C509 C503 1.428 . S
C509 N508 1.351 . S
C509 C510 1.434 . S
C510 C501 1.429 . S
C510 N507 1.350 . S
C510 C509 1.434 . S
C511 C512 1.349 1_565 S
C511 C513 1.419 . S
C511 H515 0.930 . S
C512 C511 1.349 1_545 S
C512 C521 1.455 . S
C513 C511 1.419 . S
C513 C514 1.363 1_565 S
C513 H516 0.929 . S
C514 C513 1.363 1_545 S
C514 C520 1.428 . S
H515 C511 0.930 . S
H516 C513 0.929 . S
S517 N518 1.613 . S
S517 N519 1.610 . S
N518 S517 1.613 . S
N518 C521 1.350 . S
N519 S517 1.610 . S
N519 C520 1.351 . S
C520 C514 1.428 . S
C520 N519 1.351 . S
C520 C521 1.434 . S
C521 C512 1.455 . S
C521 N518 1.350 . S
C521 C520 1.434 . S
C522 C523 1.369 . S
C522 C524 1.419 . S
C522 H526 0.930 . S
C523 C522 1.369 . S
C523 C532 1.429 . S
C524 C522 1.419 . S
C524 C525 1.363 . S
C524 H527 0.929 . S
C525 C524 1.363 . S
C525 C531 1.428 . S
H526 C522 0.930 . S
H527 C524 0.929 . S
S528 N529 1.622 . S
S528 N530 1.620 . S
N529 S528 1.622 . S
N529 C532 1.350 . S
N530 S528 1.620 . S
N530 C531 1.351 . S
C531 C525 1.428 . S
C531 N530 1.351 . S
C531 C532 1.434 . S
C532 C523 1.429 . S
C532 N529 1.350 . S
C532 C531 1.434 . S
C533 C534 1.369 . S
C533 C535 1.419 . S
C533 H537 0.930 . S
C534 C533 1.369 . S
C534 C543 1.429 . S
C535 C533 1.419 . S
C535 C536 1.363 . S
C535 H538 0.929 . S
C536 C535 1.363 . S
C536 C542 1.428 . S
H537 C533 0.930 . S
H538 C535 0.929 . S
S539 N540 1.613 . S
S539 N541 1.610 . S
N540 S539 1.613 . S
N540 C543 1.350 . S
N541 S539 1.610 . S
N541 C542 1.351 . S
C542 C536 1.428 . S
C542 N541 1.351 . S
C542 C543 1.434 . S
C543 C534 1.429 . S
C543 N540 1.350 . S
C543 C542 1.434 . S
C544 C545 1.369 . S
C544 C546 1.419 . S
C544 H548 0.930 . S
C545 C544 1.369 . S
C545 C554 1.429 . S
C546 C544 1.419 . S
C546 C547 1.363 . S
C546 H549 0.929 . S
C547 C546 1.363 . S
C547 C553 1.428 . S
H548 C544 0.930 . S
H549 C546 0.929 . S
S550 N551 1.613 . S
S550 N552 1.610 . S
N551 S550 1.613 . S
N551 C554 1.350 . S
N552 S550 1.610 . S
N552 C553 1.351 . S
C553 C547 1.428 . S
C553 N552 1.351 . S
C553 C554 1.434 . S
C554 C545 1.429 . S
C554 N551 1.350 . S
C554 C553 1.434 . S
C555 C556 1.369 . S
C555 C557 1.419 . S
C555 H559 0.930 1_556 S
C556 C555 1.369 . S
C556 C565 1.429 . S
C557 C555 1.419 . S
C557 C558 1.363 . S
C557 H560 0.929 . S
C558 C557 1.363 . S
C558 C564 1.428 . S
H559 C555 0.930 1_554 S
H560 C557 0.929 . S
S561 N562 1.613 . S
S561 N563 1.610 . S
N562 S561 1.613 . S
N562 C565 1.350 . S
N563 S561 1.610 . S
N563 C564 1.351 . S
C564 C558 1.428 . S
C564 N563 1.351 . S
C564 C565 1.434 . S
C565 C556 1.429 . S
C565 N562 1.350 . S
C565 C564 1.434 . S
C566 C567 1.369 . S
C566 C568 1.419 . S
C566 H570 0.930 . S
C567 C566 1.369 . S
C567 C576 1.429 . S
C568 C566 1.419 . S
C568 C569 1.363 . S
C568 H571 0.929 . S
C569 C568 1.363 . S
C569 C575 1.428 . S
H570 C566 0.930 . S
H571 C568 0.929 . S
S572 N573 1.613 . S
S572 N574 1.610 . S
N573 S572 1.613 . S
N573 C576 1.350 . S
N574 S572 1.610 . S
N574 C575 1.351 . S
C575 C569 1.428 . S
C575 N574 1.351 . S
C575 C576 1.434 . S
C576 C567 1.429 . S
C576 N573 1.350 . S
C576 C575 1.434 . S
C577 C578 1.369 . S
C577 C579 1.419 . S
C577 H581 0.930 1_556 S
C578 C577 1.369 . S
C578 C587 1.429 . S
C579 C577 1.419 . S
C579 C580 1.363 . S
C579 H582 0.929 . S
C580 C579 1.363 . S
C580 C586 1.428 . S
H581 C577 0.930 1_554 S
H582 C579 0.929 . S
S583 N584 1.613 . S
S583 N585 1.610 . S
N584 S583 1.613 . S
N584 C587 1.350 . S
N585 S583 1.610 . S
N585 C586 1.351 . S
C586 C580 1.428 . S
C586 N585 1.351 . S
C586 C587 1.434 . S
C587 C578 1.429 . S
C587 N584 1.350 . S
C587 C586 1.434 . S
C588 C589 1.369 . S
C588 C590 1.419 . S
C588 H592 0.930 . S
C589 C588 1.369 . S
C589 C598 1.429 . S
C590 C588 1.419 . S
C590 C591 1.363 . S
C590 H593 0.929 . S
C591 C590 1.363 . S
C591 C597 1.428 . S
H592 C588 0.930 . S
H593 C590 0.929 . S
S594 N595 1.613 . S
S594 N596 1.610 . S
N595 S594 1.613 . S
N595 C598 1.350 . S
N596 S594 1.610 . S
N596 C597 1.351 . S
C597 C591 1.428 . S
C597 N596 1.351 . S
C597 C598 1.434 . S
C598 C589 1.429 . S
C598 N595 1.350 . S
C598 C597 1.434 . S
C599 C600 1.370 . S
C599 C601 1.419 . S
C599 H603 0.930 . S
C600 C599 1.370 . S
C600 C609 1.429 1_545 S
C601 C599 1.419 . S
C601 C602 1.364 . S
C601 H604 0.929 . S
C602 C601 1.364 . S
C602 C608 1.426 1_545 S
H603 C599 0.930 . S
H604 C601 0.929 . S
S605 N606 1.613 . S
S605 N607 1.610 . S
N606 S605 1.613 . S
N606 C609 1.350 . S
N607 S605 1.610 . S
N607 C608 1.351 . S
C608 C602 1.426 1_565 S
C608 N607 1.351 . S
C608 C609 1.434 . S
C609 C600 1.429 1_565 S
C609 N606 1.350 . S
C609 C608 1.434 . S
C610 C611 1.369 . S
C610 C612 1.419 . S
C610 H614 0.930 . S
C611 C610 1.369 . S
C611 C620 1.429 . S
C612 C610 1.419 . S
C612 C613 1.363 . S
C612 H615 0.929 . S
C613 C612 1.363 . S
C613 C619 1.428 . S
H614 C610 0.930 . S
H615 C612 0.929 . S
S616 N617 1.613 . S
S616 N618 1.610 . S
N617 S616 1.613 . S
N617 C620 1.350 . S
N618 S616 1.610 . S
N618 C619 1.351 . S
C619 C613 1.428 . S
C619 N618 1.351 . S
C619 C620 1.434 . S
C620 C611 1.429 . S
C620 N617 1.350 . S
C620 C619 1.434 . S
C621 C622 1.369 . S
C621 C623 1.419 . S
C621 H625 0.930 . S
C622 C621 1.369 . S
C622 C631 1.429 . S
C623 C621 1.419 . S
C623 C624 1.363 . S
C623 H626 0.929 . S
C624 C623 1.363 . S
C624 C630 1.428 . S
H625 C621 0.930 . S
H626 C623 0.929 . S
S627 N628 1.613 . S
S627 N629 1.610 . S
N628 S627 1.613 . S
N628 C631 1.350 . S
N629 S627 1.610 . S
N629 C630 1.351 . S
C630 C624 1.428 . S
C630 N629 1.351 . S
C630 C631 1.434 . S
C631 C622 1.429 . S
C631 N628 1.350 . S
C631 C630 1.434 . S
C369 C241 1.578 . S
C371 C289 1.630 . S
C382 C324 2.346 . S
C380 C277 2.057 . S
C393 C329 1.521 . S
C391 C169 1.467 . S
C404 C349 2.089 . S
C402 C205 1.947 . S
C415 C297 1.629 . S
C413 C97 1.571 1_556 S
C424 C133 2.183 1_556 S
C426 C314 2.344 . S
C435 C25 1.503 . S
C437 C337 1.524 . S
C446 C61 1.845 . S
C448 C357 2.086 . S
C459 C307 1.963 . S
C457 C211 1.702 . S
C470 C316 0.976 1_545 S
C468 C247 0.933 . S
C481 C347 2.045 . S
C479 C253 1.699 . S
C490 C175 1.100 . S
C492 C367 1.211 . S
C501 C67 1.577 . S
C503 C296 1.960 . S
C514 C327 0.970 . S
C512 C103 0.930 . S
C525 C336 2.046 . S
C523 C109 1.802 . S
C534 C31 1.141 . S
C536 C356 1.215 . S
C545 C181 2.108 1_556 S
C547 C294 2.289 . S
C556 C217 1.898 . S
C558 C317 2.106 . S
C569 C334 2.486 . S
C567 C283 2.113 . S
C580 C354 2.206 . S
C578 C145 1.986 1_556 S
C589 C37 2.043 . S
C591 C304 2.289 . S
C602 C309 2.112 . S
C600 C73 1.886 . S
C613 C344 2.486 . S
C611 C139 2.196 . S
C622 C1 2.013 . S
C624 C364 2.206 . S
