# Generated by pormake.
# Topology zzz, (3,6)-cn, num edge types: 1
# Building blocks:
#     Node 0, Type 0, BuildingBlock: BELTOD_clean_linker_0, # of connection points: 3
#     Node 1, Type 0, BuildingBlock: BELTOD_clean_linker_0, # of connection points: 3
#     Node 2, Type 0, BuildingBlock: BELTOD_clean_linker_0, # of connection points: 3
#     Node 3, Type 0, BuildingBlock: BELTOD_clean_linker_0, # of connection points: 3
#     Node 4, Type 0, BuildingBlock: BELTOD_clean_linker_0, # of connection points: 3
#     Node 5, Type 0, BuildingBlock: BELTOD_clean_linker_0, # of connection points: 3
#     Node 6, Type 0, BuildingBlock: BELTOD_clean_linker_0, # of connection points: 3
#     Node 7, Type 0, BuildingBlock: BELTOD_clean_linker_0, # of connection points: 3
#     Node 8, Type 1, BuildingBlock: CUWYAW_clean_sbu_0, # of connection points: 6
#     Node 9, Type 1, BuildingBlock: CUWYAW_clean_sbu_0, # of connection points: 6
#     Node 10, Type 1, BuildingBlock: CUWYAW_clean_sbu_0, # of connection points: 6
#     Node 11, Type 1, BuildingBlock: CUWYAW_clean_sbu_0, # of connection points: 6
#     Edge 12, Type (0, 1), BuildingBlock: TEMPAE_clean_linker_10, # of connection points: 2
#     Edge 13, Type (0, 1), BuildingBlock: TEMPAE_clean_linker_10, # of connection points: 2
#     Edge 14, Type (0, 1), BuildingBlock: TEMPAE_clean_linker_10, # of connection points: 2
#     Edge 15, Type (0, 1), BuildingBlock: TEMPAE_clean_linker_10, # of connection points: 2
#     Edge 16, Type (0, 1), BuildingBlock: TEMPAE_clean_linker_10, # of connection points: 2
#     Edge 17, Type (0, 1), BuildingBlock: TEMPAE_clean_linker_10, # of connection points: 2
#     Edge 18, Type (0, 1), BuildingBlock: TEMPAE_clean_linker_10, # of connection points: 2
#     Edge 19, Type (0, 1), BuildingBlock: TEMPAE_clean_linker_10, # of connection points: 2
#     Edge 20, Type (0, 1), BuildingBlock: TEMPAE_clean_linker_10, # of connection points: 2
#     Edge 21, Type (0, 1), BuildingBlock: TEMPAE_clean_linker_10, # of connection points: 2
#     Edge 22, Type (0, 1), BuildingBlock: TEMPAE_clean_linker_10, # of connection points: 2
#     Edge 23, Type (0, 1), BuildingBlock: TEMPAE_clean_linker_10, # of connection points: 2
#     Edge 24, Type (0, 1), BuildingBlock: TEMPAE_clean_linker_10, # of connection points: 2
#     Edge 25, Type (0, 1), BuildingBlock: TEMPAE_clean_linker_10, # of connection points: 2
#     Edge 26, Type (0, 1), BuildingBlock: TEMPAE_clean_linker_10, # of connection points: 2
#     Edge 27, Type (0, 1), BuildingBlock: TEMPAE_clean_linker_10, # of connection points: 2
#     Edge 28, Type (0, 1), BuildingBlock: TEMPAE_clean_linker_10, # of connection points: 2
#     Edge 29, Type (0, 1), BuildingBlock: TEMPAE_clean_linker_10, # of connection points: 2
#     Edge 30, Type (0, 1), BuildingBlock: TEMPAE_clean_linker_10, # of connection points: 2
#     Edge 31, Type (0, 1), BuildingBlock: TEMPAE_clean_linker_10, # of connection points: 2
#     Edge 32, Type (0, 1), BuildingBlock: TEMPAE_clean_linker_10, # of connection points: 2
#     Edge 33, Type (0, 1), BuildingBlock: TEMPAE_clean_linker_10, # of connection points: 2
#     Edge 34, Type (0, 1), BuildingBlock: TEMPAE_clean_linker_10, # of connection points: 2
#     Edge 35, Type (0, 1), BuildingBlock: TEMPAE_clean_linker_10, # of connection points: 2
# Relax obj value: 0.415
# Max RMSD: 0.236
# Mean RMSD: 0.221
data_MOF--net-zzz--node1-CUWYAW_clean_sbu_0--node2-BELTOD_clean_linker_0--edge1-TEMPAE_clean_linker_10
_symmetry_space_group_name_H-M    P1
_symmetry_Int_Tables_number       1
_symmetry_cell_setting            triclinic
loop_
_symmetry_equiv_pos_as_xyz
'x, y, z'
_cell_length_a     55.686083
_cell_length_b     55.668812
_cell_length_c     17.974134
_cell_angle_alpha  89.793274
_cell_angle_beta   89.897854
_cell_angle_gamma 89.997362
loop_
_atom_site_label
_atom_site_type_symbol
_atom_site_fract_x
_atom_site_fract_y
_atom_site_fract_z
_atom_type_partial_charge
P0 P 0.71041 0.47949 0.40154 0.0
H1 H 0.72926 0.48146 0.55319 0.0
H2 H 0.76973 0.49026 0.59718 0.0
H3 H 0.787 0.52263 0.38578 0.0
H4 H 0.7465 0.51319 0.3405 0.0
H5 H 0.66237 0.46277 0.3719 0.0
H6 H 0.63184 0.47457 0.28339 0.0
H7 H 0.67343 0.53749 0.22532 0.0
H8 H 0.70455 0.52499 0.3142 0.0
H9 H 0.74498 0.44134 0.42627 0.0
H10 H 0.71395 0.47821 0.23783 0.0
O11 O 0.69857 0.46164 0.46683 0.0
H12 H 0.77836 0.42813 0.34826 0.0
H13 H 0.74692 0.46473 0.16002 0.0
C14 C 0.73439 0.49696 0.44356 0.0
C15 C 0.74122 0.49143 0.51695 0.0
C16 C 0.76453 0.49622 0.54207 0.0
C17 C 0.7815 0.507 0.4948 0.0
C18 C 0.77417 0.51447 0.42356 0.0
C19 C 0.75084 0.5094 0.39804 0.0
C20 C 0.68567 0.49317 0.35114 0.0
C21 C 0.66468 0.47956 0.34209 0.0
C22 C 0.64708 0.48639 0.29094 0.0
C23 C 0.64992 0.50708 0.2466 0.0
C24 C 0.67062 0.52131 0.2578 0.0
C25 C 0.68835 0.51438 0.30944 0.0
C26 C 0.72706 0.46094 0.33828 0.0
C27 C 0.74465 0.44553 0.36738 0.0
C28 C 0.76376 0.43801 0.3228 0.0
C29 C 0.76537 0.44585 0.24865 0.0
C30 C 0.7462 0.45878 0.21746 0.0
C31 C 0.72723 0.46641 0.26209 0.0
P32 P 0.03397 0.70598 0.38302 0.0
H33 H 0.03156 0.72523 0.53404 0.0
H34 H 0.02274 0.76573 0.5775 0.0
H35 H 0.99171 0.78322 0.36473 0.0
H36 H 1.00138 0.74271 0.31984 0.0
H37 H 0.04907 0.65706 0.3579 0.0
H38 H 0.03736 0.62675 0.26902 0.0
H39 H 0.97677 0.67043 0.20307 0.0
H40 H 0.98929 0.70135 0.29203 0.0
H41 H 0.07084 0.74176 0.40781 0.0
H42 H 0.03916 0.70605 0.21909 0.0
O43 O 0.05103 0.69384 0.44955 0.0
H44 H 0.08625 0.77313 0.32565 0.0
H45 H 0.0551 0.73686 0.13694 0.0
C46 C 0.0168 0.73046 0.42372 0.0
C47 C 0.02195 0.73727 0.49725 0.0
C48 C 0.01715 0.76061 0.52207 0.0
C49 C 1.0067 0.77767 0.47439 0.0
C50 C 0.99962 0.77037 0.40285 0.0
C51 C 1.00481 0.74703 0.37752 0.0
C52 C 0.01987 0.68143 0.33306 0.0
C53 C 0.03277 0.6599 0.32626 0.0
C54 C 0.02599 0.64241 0.27484 0.0
C55 C 1.00604 0.6459 0.22805 0.0
C56 C 0.99241 0.66711 0.23727 0.0
C57 C 0.99933 0.68475 0.28904 0.0
C58 C 0.05351 0.72176 0.32003 0.0
C59 C 0.06817 0.74002 0.34838 0.0
C60 C 0.07703 0.75794 0.30128 0.0
C61 C 0.0714 0.75767 0.22514 0.0
C62 C 0.05926 0.73773 0.19574 0.0
C63 C 0.05019 0.72 0.24293 0.0
P64 P 0.80456 0.02597 0.37674 0.0
H65 H 0.78813 0.01019 0.52452 0.0
H66 H 0.7479 1.00037 0.56882 0.0
H67 H 0.7237 0.9938 0.34179 0.0
H68 H 0.76412 1.00367 0.29771 0.0
H69 H 0.85365 0.04055 0.35102 0.0
H70 H 0.88308 0.03066 0.25663 0.0
H71 H 0.83664 0.97428 0.17559 0.0
H72 H 0.80658 0.98522 0.26969 0.0
H73 H 0.76934 0.06153 0.42089 0.0
H74 H 0.80606 0.04128 0.2189 0.0
O75 O 0.8175 0.03826 0.45117 0.0
H76 H 0.73784 0.0805 0.34755 0.0
H77 H 0.7752 0.06103 0.14577 0.0
C78 C 0.7794 0.00762 0.40755 0.0
C79 C 0.77452 1.00562 0.48404 0.0
C80 C 0.75131 1.00015 0.50949 0.0
C81 C 0.73232 0.99675 0.45898 0.0
C82 C 0.73774 0.99672 0.38236 0.0
C83 C 0.76105 1.00192 0.357 0.0
C84 C 0.82806 0.0133 0.31885 0.0
C85 C 0.85002 0.02556 0.31445 0.0
C86 C 0.86698 0.01981 0.25994 0.0
C87 C 0.86254 1.00153 0.20779 0.0
C88 C 0.84074 0.98865 0.21395 0.0
C89 C 0.8236 0.99461 0.26857 0.0
C90 C 0.78978 0.04951 0.32561 0.0
C91 C 0.77134 0.0623 0.36096 0.0
C92 C 0.7533 0.07319 0.31886 0.0
C93 C 0.75374 0.07162 0.24086 0.0
C94 C 0.77413 0.06194 0.20588 0.0
C95 C 0.79192 0.05071 0.24795 0.0
P96 P 0.48581 0.80235 0.39313 0.0
H97 H 0.49868 0.78699 0.54438 0.0
H98 H 0.50837 0.74718 0.59284 0.0
H99 H 0.51996 0.72186 0.36901 0.0
H100 H 0.51052 0.76189 0.32071 0.0
H101 H 0.4704 0.85062 0.35996 0.0
H102 H 0.48222 0.8802 0.26772 0.0
H103 H 0.5412 0.83467 0.20021 0.0
H104 H 0.5286 0.80453 0.29282 0.0
H105 H 0.44305 0.77599 0.43824 0.0
H106 H 0.4802 0.79283 0.23393 0.0
O107 O 0.47247 0.81594 0.4648 0.0
H108 H 0.4216 0.74361 0.37556 0.0
H109 H 0.45975 0.76025 0.17207 0.0
C110 C 0.5038 0.77765 0.42863 0.0
C111 C 0.50431 0.77325 0.50564 0.0
C112 C 0.50971 0.75031 0.53347 0.0
C113 C 0.51446 0.73114 0.48479 0.0
C114 C 0.51597 0.7361 0.40802 0.0
C115 C 0.51092 0.75916 0.38035 0.0
C116 C 0.49887 0.82552 0.33464 0.0
C117 C 0.48629 0.84718 0.32681 0.0
C118 C 0.49316 0.86423 0.27371 0.0
C119 C 0.51285 0.86011 0.22627 0.0
C120 C 0.52586 0.8385 0.23532 0.0
C121 C 0.51887 0.82132 0.28887 0.0
C122 C 0.46316 0.7869 0.3408 0.0
C123 C 0.44581 0.77344 0.37913 0.0
C124 C 0.43379 0.75472 0.34344 0.0
C125 C 0.43929 0.74898 0.26918 0.0
C126 C 0.45483 0.76419 0.22905 0.0
C127 C 0.46667 0.78297 0.26463 0.0
P128 P 0.27572 0.46918 0.12298 0.0
H129 H 0.25852 0.44237 0.9935 0.0
H130 H 0.22687 0.45219 0.90607 0.0
H131 H 0.23145 0.52681 0.9699 0.0
H132 H 0.26279 0.51652 0.05984 0.0
H133 H 0.31014 0.43761 0.19456 0.0
H134 H 0.34772 0.44473 0.25696 0.0
H135 H 0.34895 0.5173 0.17069 0.0
H136 H 0.3102 0.51002 0.10909 0.0
H137 H 0.22442 0.47099 0.14291 0.0
H138 H 0.28651 0.50084 0.2525 0.0
O139 O 0.26962 0.43996 0.13233 0.0
H140 H 0.19834 0.49543 0.2199 0.0
H141 H 0.26039 0.52477 0.33196 0.0
C142 C 0.26309 0.47861 0.03422 0.0
C143 C 0.25349 0.46104 0.98693 0.0
C144 C 0.23512 0.46674 0.9366 0.0
C145 C 0.22592 0.49028 0.93166 0.0
C146 C 0.23748 0.50835 0.97331 0.0
C147 C 0.25588 0.50258 0.02384 0.0
C148 C 0.30728 0.47313 0.1458 0.0
C149 C 0.31871 0.45487 0.18651 0.0
C150 C 0.3405 0.45901 0.22263 0.0
C151 C 0.35169 0.48165 0.21952 0.0
C152 C 0.34086 0.49968 0.17525 0.0
C153 C 0.31885 0.49545 0.13879 0.0
C154 C 0.25742 0.48426 0.19091 0.0
C155 C 0.23245 0.48245 0.18463 0.0
C156 C 0.21753 0.49638 0.22918 0.0
C157 C 0.22727 0.51213 0.2822 0.0
C158 C 0.25234 0.51312 0.29081 0.0
C159 C 0.26732 0.49929 0.24541 0.0
P160 P 0.04701 0.27519 0.09537 0.0
H161 H 0.06604 0.26541 0.94581 0.0
H162 H 0.0564 0.23336 0.85879 0.0
H163 H 0.99152 0.21824 0.98283 0.0
H164 H 1.00054 0.25137 0.06604 0.0
H165 H 0.07843 0.31136 0.15704 0.0
H166 H 0.07083 0.34875 0.21993 0.0
H167 H 0.99678 0.34647 0.14828 0.0
H168 H 1.00462 0.30784 0.08678 0.0
H169 H 0.05035 0.22454 0.12883 0.0
H170 H 0.02026 0.2873 0.23431 0.0
O171 O 0.07664 0.27081 0.09073 0.0
H172 H 0.02965 0.19902 0.21775 0.0
H173 H 1.00042 0.26193 0.32582 0.0
C174 C 0.0343 0.26069 0.01368 0.0
C175 C 0.0492 0.25591 0.95243 0.0
C176 C 0.04387 0.23706 0.90338 0.0
C177 C 0.02361 0.22224 0.91485 0.0
C178 C 0.00737 0.2289 0.97155 0.0
C179 C 0.0125 0.24809 0.0196 0.0
C180 C 0.04225 0.3068 0.11559 0.0
C181 C 0.06071 0.31919 0.15209 0.0
C182 C 0.05627 0.34086 0.18858 0.0
C183 C 0.03311 0.35098 0.18996 0.0
C184 C 0.01481 0.33922 0.1495 0.0
C185 C 0.01933 0.3173 0.11291 0.0
C186 C 0.03655 0.25778 0.17362 0.0
C187 C 0.03984 0.23288 0.17249 0.0
C188 C 0.02805 0.21829 0.22394 0.0
C189 C 0.01311 0.22839 0.27886 0.0
C190 C 0.01132 0.25353 0.28326 0.0
C191 C 0.02284 0.26811 0.23082 0.0
P192 P 0.22418 0.0552 0.0428 0.0
H193 H 0.24704 0.07361 0.90785 0.0
H194 H 0.28362 0.06206 0.8456 0.0
H195 H 0.28316 0.99441 0.96484 0.0
H196 H 0.24715 0.00723 0.03153 0.0
H197 H 0.17427 0.07162 0.0409 0.0
H198 H 0.13999 0.06004 0.11672 0.0
H199 H 0.17809 0.99665 0.18969 0.0
H200 H 0.21226 0.00807 0.11151 0.0
H201 H 0.27466 0.06773 0.06176 0.0
H202 H 0.2147 0.05111 0.20575 0.0
O203 O 0.21786 0.08299 0.01359 0.0
H204 H 0.30218 0.06015 0.1635 0.0
H205 H 0.24238 0.0431 0.30778 0.0
C206 C 0.24384 0.04125 0.9742 0.0
C207 C 0.2542 0.05589 0.91904 0.0
C208 C 0.2755 0.04916 0.88307 0.0
C209 C 0.28706 0.02728 0.90009 0.0
C210 C 0.27545 0.0117 0.95107 0.0
C211 C 0.2543 0.01872 0.98819 0.0
C212 C 0.19613 0.04086 0.07037 0.0
C213 C 0.17506 0.05472 0.07074 0.0
C214 C 0.15545 0.04824 0.11536 0.0
C215 C 0.15643 0.02779 0.16155 0.0
C216 C 0.17658 0.01256 0.15517 0.0
C217 C 0.19618 0.01897 0.10964 0.0
C218 C 0.24274 0.05816 0.12432 0.0
C219 C 0.26731 0.06279 0.11545 0.0
C220 C 0.28308 0.05872 0.17412 0.0
C221 C 0.27441 0.0503 0.24289 0.0
C222 C 0.24952 0.04888 0.25454 0.0
C223 C 0.23372 0.05317 0.19575 0.0
P224 P 0.45866 0.23014 0.09013 0.0
H225 H 0.44377 0.24194 0.93739 0.0
H226 H 0.45542 0.27551 0.85779 0.0
H227 H 0.51659 0.28881 0.99953 0.0
H228 H 0.50566 0.25425 0.07548 0.0
H229 H 0.42861 0.19354 0.15553 0.0
H230 H 0.43735 0.15679 0.22142 0.0
H231 H 0.51136 0.16106 0.14914 0.0
H232 H 0.50235 0.1991 0.08502 0.0
H233 H 0.44859 0.2798 0.12457 0.0
H234 H 0.48523 0.22053 0.23045 0.0
O235 O 0.42914 0.23268 0.07594 0.0
H236 H 0.46698 0.30741 0.21197 0.0
H237 H 0.50283 0.24786 0.3199 0.0
C238 C 0.47355 0.24564 0.01351 0.0
C239 C 0.46031 0.25137 0.94949 0.0
C240 C 0.46675 0.27107 0.90471 0.0
C241 C 0.48646 0.28579 0.92338 0.0
C242 C 0.50122 0.27824 0.98281 0.0
C243 C 0.495 0.25822 0.02661 0.0
C244 C 0.46465 0.19898 0.11367 0.0
C245 C 0.44657 0.18623 0.15122 0.0
C246 C 0.45168 0.16496 0.1894 0.0
C247 C 0.47515 0.15558 0.19135 0.0
C248 C 0.49311 0.16773 0.15003 0.0
C249 C 0.48793 0.18931 0.11195 0.0
C250 C 0.46565 0.24814 0.17014 0.0
C251 C 0.45982 0.27259 0.16845 0.0
C252 C 0.47037 0.28838 0.21874 0.0
C253 C 0.4867 0.27988 0.2724 0.0
C254 C 0.49079 0.25504 0.27812 0.0
C255 C 0.4805 0.23931 0.22703 0.0
C256 C 0.96412 0.01706 0.49503 0.0
Eu257 Eu 0.98901 0.00889 0.61416 0.0
C258 C 0.94951 0.03778 0.47262 0.0
C259 C 0.9361 0.0506 0.52556 0.0
C260 C 0.92827 0.0739 0.50991 0.0
C261 C 0.93423 0.08492 0.4418 0.0
C262 C 0.94547 0.07097 0.38639 0.0
C263 C 0.95295 0.04759 0.40169 0.0
C264 C 0.96943 1.00615 0.75226 0.0
C265 C 0.01048 0.05197 0.71258 0.0
C266 C 0.04168 0.98439 0.87374 0.0
Eu267 Eu 0.02433 0.99554 0.74372 0.0
C268 C 0.04491 0.96213 0.9158 0.0
C269 C 0.05751 0.9624 0.98315 0.0
C270 C 0.06328 0.94082 0.0188 0.0
C271 C 0.05672 0.91879 0.98679 0.0
C272 C 0.04344 0.91869 0.92042 0.0
C273 C 0.03752 0.94023 0.88527 0.0
C274 C 0.0499 1.00533 0.61586 0.0
C275 C 1.00626 0.95275 0.63683 0.0
O276 O 0.98713 0.02168 0.50007 0.0
O277 O 0.95605 1.00408 0.5507 0.0
O278 O 0.96347 0.02206 0.70279 0.0
O279 O 0.98498 0.9919 0.72601 0.0
O280 O 1.00194 0.04617 0.64615 0.0
O281 O 0.01754 0.03542 0.76112 0.0
O282 O 0.01955 0.99167 0.86379 0.0
O283 O 0.05462 0.98584 0.81322 0.0
O284 O 0.05964 0.99943 0.67871 0.0
O285 O 0.02758 1.00599 0.62586 0.0
O286 O 0.01581 0.95818 0.70212 0.0
O287 O 0.99706 0.96936 0.59201 0.0
H288 H 0.93321 0.04337 0.58089 0.0
H289 H 0.91914 0.08387 0.55317 0.0
H290 H 0.95067 0.07872 0.33344 0.0
H291 H 0.96335 0.038 0.3603 0.0
H292 H 0.06347 0.97922 0.00699 0.0
H293 H 0.07353 0.9413 0.06994 0.0
H294 H 0.03781 0.90193 0.89538 0.0
H295 H 0.02778 0.93975 0.83325 0.0
C296 C 0.4913 0.96364 0.51056 0.0
Eu297 Eu 0.50335 0.98429 0.63319 0.0
C298 C 0.46832 0.96801 0.47329 0.0
C299 C 0.45511 0.94908 0.44217 0.0
C300 C 0.43103 0.95262 0.42236 0.0
C301 C 0.42003 0.97495 0.43518 0.0
C302 C 0.43361 0.99403 0.46319 0.0
C303 C 0.4575 0.99063 0.48191 0.0
C304 C 0.50829 0.96612 0.77211 0.0
C305 C 0.46095 0.00861 0.72938 0.0
C306 C 0.52941 0.04116 0.88173 0.0
Eu307 Eu 0.51714 0.0218 0.7559 0.0
C308 C 0.55143 0.04436 0.92478 0.0
C309 C 0.55013 0.05325 0.9975 0.0
C310 C 0.57113 0.05931 0.03557 0.0
C311 C 0.5936 0.05677 1.00084 0.0
C312 C 0.59483 0.04712 0.9288 0.0
C313 C 0.57389 0.04088 0.89112 0.0
C314 C 0.5028 0.04518 0.62868 0.0
C315 C 0.55993 0.99974 0.65151 0.0
O316 O 0.50592 0.98207 0.51243 0.0
O317 O 0.48926 0.95297 0.57525 0.0
O318 O 0.49293 0.95834 0.72371 0.0
O319 O 0.52161 0.98215 0.74347 0.0
O320 O 0.46687 0.99958 0.66374 0.0
O321 O 0.47742 0.01549 0.77797 0.0
O322 O 0.52083 0.01929 0.87684 0.0
O323 O 0.529 0.05273 0.81833 0.0
O324 O 0.50922 0.0561 0.68894 0.0
O325 O 0.50399 0.023 0.64101 0.0
O326 O 0.55413 0.01449 0.70671 0.0
O327 O 0.54377 0.98615 0.61738 0.0
H328 H 0.46305 0.93142 0.43639 0.0
H329 H 0.42076 0.93778 0.40011 0.0
H330 H 0.42553 0.0115 0.4722 0.0
H331 H 0.46714 1.00545 0.50686 0.0
H332 H 0.53288 0.05616 0.02394 0.0
H333 H 0.56976 0.0667 0.09109 0.0
H334 H 0.61198 0.04459 0.90138 0.0
H335 H 0.57518 0.03403 0.83492 0.0
C336 C 0.55017 0.49486 0.52913 0.0
Eu337 Eu 0.52637 0.50256 0.65095 0.0
C338 C 0.5602 0.47291 0.49636 0.0
C339 C 0.57324 0.45647 0.53992 0.0
C340 C 0.57704 0.43309 0.51463 0.0
C341 C 0.56737 0.42565 0.44624 0.0
C342 C 0.55636 0.44291 0.4 0.0
C343 C 0.55296 0.46635 0.42474 0.0
C344 C 0.54465 0.50484 0.79021 0.0
C345 C 0.50369 0.45901 0.74566 0.0
C346 C 0.47094 0.52577 0.90643 0.0
Eu347 Eu 0.48964 0.51526 0.77781 0.0
C348 C 0.46891 0.54702 0.95358 0.0
C349 C 0.45357 0.54646 0.01535 0.0
C350 C 0.44866 0.56752 0.05454 0.0
C351 C 0.45897 0.58944 0.03217 0.0
C352 C 0.47502 0.5897 0.97156 0.0
C353 C 0.47994 0.56863 0.93253 0.0
C354 C 0.46538 0.50413 0.6495 0.0
C355 C 0.51029 0.55888 0.67587 0.0
O356 O 0.52667 0.49527 0.53236 0.0
O357 O 0.56026 0.50278 0.5901 0.0
O358 O 0.55128 0.48925 0.74065 0.0
O359 O 0.52917 0.51914 0.76338 0.0
O360 O 0.51292 0.46525 0.6803 0.0
O361 O 0.49632 0.47523 0.79462 0.0
O362 O 0.49235 0.51628 0.899 0.0
O363 O 0.45932 0.5273 0.84349 0.0
O364 O 0.45494 0.50933 0.7118 0.0
O365 O 0.48765 0.5045 0.66053 0.0
O366 O 0.49766 0.55293 0.73581 0.0
O367 O 0.52173 0.54273 0.635 0.0
H368 H 0.57911 0.46111 0.59546 0.0
H369 H 0.58615 0.42046 0.5508 0.0
H370 H 0.54844 0.43795 0.34729 0.0
H371 H 0.54286 0.47878 0.39036 0.0
H372 H 0.44482 0.52989 0.03187 0.0
H373 H 0.43653 0.5667 0.10165 0.0
H374 H 0.48306 0.60634 0.9525 0.0
H375 H 0.49165 0.56936 0.88436 0.0
C376 C 0.01904 0.55077 0.51244 0.0
Eu377 Eu 0.01253 0.52419 0.62955 0.0
C378 C 0.03867 0.56673 0.48919 0.0
C379 C 0.05114 0.58065 0.54149 0.0
C380 C 0.07338 0.59071 0.52322 0.0
C381 C 0.08375 0.58647 0.45304 0.0
C382 C 0.06997 0.5745 0.39879 0.0
C383 C 0.04762 0.56482 0.41675 0.0
C384 C 0.00987 0.54166 0.77 0.0
C385 C 0.05687 0.5021 0.72264 0.0
C386 C 0.99094 0.4674 0.88251 0.0
Eu387 Eu 1.00091 0.48656 0.75413 0.0
C388 C 0.97008 0.46729 0.93181 0.0
C389 C 0.96984 0.45227 0.99449 0.0
C390 C 0.94856 0.44887 0.03447 0.0
C391 C 0.92733 0.46023 0.0113 0.0
C392 C 0.92797 0.47618 0.95058 0.0
C393 C 0.94925 0.47976 0.91123 0.0
C394 C 0.01189 0.46307 0.62432 0.0
C395 C 0.95704 0.50549 0.65235 0.0
O396 O 0.02482 0.52794 0.51529 0.0
O397 O 1.00616 0.55766 0.56962 0.0
O398 O 0.02525 0.54887 0.7205 0.0
O399 O 0.99593 0.52606 0.74255 0.0
O400 O 0.05047 0.5128 0.6596 0.0
O401 O 0.04086 0.49298 0.76954 0.0
O402 O 1.00244 0.48784 0.87539 0.0
O403 O 0.9874 0.4566 0.81893 0.0
O404 O 0.00696 0.45229 0.68643 0.0
O405 O 0.01134 0.48531 0.63591 0.0
O406 O 0.96308 0.49526 0.71628 0.0
O407 O 0.97321 0.5155 0.60778 0.0
H408 H 0.04453 0.58242 0.59793 0.0
H409 H 0.08314 0.60033 0.56578 0.0
H410 H 0.07724 0.57054 0.34432 0.0
H411 H 0.03825 0.55412 0.37572 0.0
H412 H 0.9858 0.44242 0.01057 0.0
H413 H 0.94843 0.43648 0.08111 0.0
H414 H 0.91185 0.48538 0.93243 0.0
H415 H 0.94921 0.49142 0.86287 0.0
C416 C 0.12985 1.0009 0.24106 0.0
C417 C 0.13787 0.024 0.22127 0.0
C418 C 0.11373 0.99736 0.30087 0.0
C419 C 0.10546 0.01733 0.34257 0.0
C420 C 0.11301 0.0407 0.32165 0.0
C421 C 0.12904 0.04372 0.26173 0.0
C422 C 0.10609 0.97213 0.32082 0.0
C423 C 0.1049 0.06253 0.36453 0.0
C424 C 0.05191 0.01167 0.4764 0.0
C425 C 0.06347 0.0087 0.54507 0.0
C426 C 0.06523 0.01421 0.4098 0.0
C427 C 0.09073 0.01378 0.4119 0.0
C428 C 0.10238 0.01072 0.4813 0.0
C429 C 0.08867 0.00821 0.54662 0.0
C430 C 0.05204 0.01739 0.3372 0.0
C431 C 0.12945 0.01026 0.48678 0.0
H432 H 0.1363 0.98553 0.21007 0.0
H433 H 0.13538 0.06163 0.24839 0.0
H434 H 0.11345 0.96721 0.37613 0.0
H435 H 0.08623 0.97106 0.32491 0.0
H436 H 0.11239 0.95874 0.27947 0.0
H437 H 0.11081 0.07957 0.33786 0.0
H438 H 0.08505 0.06275 0.36953 0.0
H439 H 0.11232 0.06182 0.42175 0.0
H440 H 0.03249 0.01183 0.47463 0.0
H441 H 0.09779 1.00586 0.59939 0.0
H442 H 0.05729 1.00299 0.29786 0.0
H443 H 0.05712 0.03477 0.31119 0.0
H444 H 0.03223 0.01698 0.34459 0.0
H445 H 0.1368 0.99574 0.45129 0.0
H446 H 0.13576 0.00738 0.54472 0.0
H447 H 0.13697 0.02748 0.46595 0.0
C448 C 0.50262 0.1338 0.28144 0.0
C449 C 0.48083 0.13473 0.24207 0.0
C450 C 0.50663 0.11647 0.33748 0.0
C451 C 0.48826 0.09987 0.35632 0.0
C452 C 0.46677 0.09983 0.31428 0.0
C453 C 0.46349 0.11694 0.25723 0.0
C454 C 0.53009 0.1168 0.37935 0.0
C455 C 0.44658 0.08269 0.33254 0.0
C456 C 0.50261 0.04753 0.48853 0.0
C457 C 0.4969 0.05757 0.55777 0.0
C458 C 0.4997 0.06088 0.42213 0.0
C459 C 0.49042 0.08463 0.4251 0.0
C460 C 0.48374 0.09433 0.49494 0.0
C461 C 0.48739 0.08085 0.5602 0.0
C462 C 0.50756 0.04997 0.34936 0.0
C463 C 0.47314 0.11922 0.50105 0.0
H464 H 0.51621 0.14735 0.2713 0.0
H465 H 0.44686 0.11681 0.22608 0.0
H466 H 0.52705 0.12377 0.43634 0.0
H467 H 0.53741 0.09834 0.38481 0.0
H468 H 0.54374 0.12832 0.35153 0.0
H469 H 0.43203 0.08326 0.29033 0.0
H470 H 0.45337 0.06401 0.3368 0.0
H471 H 0.43878 0.08741 0.38745 0.0
H472 H 0.51037 0.02971 0.48655 0.0
H473 H 0.48295 0.08867 0.61366 0.0
H474 H 0.52352 0.05977 0.32806 0.0
H475 H 0.49323 0.05179 0.30695 0.0
H476 H 0.51226 0.03066 0.35532 0.0
H477 H 0.4866 0.13277 0.48331 0.0
H478 H 0.46733 0.12348 0.55868 0.0
H479 H 0.45743 0.121 0.46352 0.0
C480 C 0.3756 0.50864 0.30512 0.0
C481 C 0.37315 0.48658 0.26802 0.0
C482 C 0.39338 0.51206 0.35991 0.0
C483 C 0.40896 0.49289 0.37943 0.0
C484 C 0.40753 0.4711 0.33921 0.0
C485 C 0.38992 0.46833 0.28372 0.0
C486 C 0.39453 0.5358 0.4 0.0
C487 C 0.4236 0.4501 0.35801 0.0
C488 C 0.46245 0.50452 0.50917 0.0
C489 C 0.45236 0.49935 0.57896 0.0
C490 C 0.4487 0.50243 0.44342 0.0
C491 C 0.42446 0.49457 0.44759 0.0
C492 C 0.4146 0.48859 0.518 0.0
C493 C 0.42853 0.49133 0.58252 0.0
C494 C 0.45983 0.50944 0.36993 0.0
C495 C 0.3891 0.47961 0.5255 0.0
H496 H 0.36284 0.52291 0.29435 0.0
H497 H 0.38879 0.45142 0.25431 0.0
H498 H 0.38752 0.53357 0.45743 0.0
H499 H 0.4134 0.54205 0.40435 0.0
H500 H 0.38378 0.54991 0.37156 0.0
H501 H 0.42207 0.43536 0.31678 0.0
H502 H 0.44262 0.4559 0.36092 0.0
H503 H 0.41864 0.44291 0.41362 0.0
H504 H 0.48073 0.51114 0.50625 0.0
H505 H 0.42063 0.48731 0.63634 0.0
H506 H 0.4506 0.5256 0.34768 0.0
H507 H 0.45745 0.49489 0.32861 0.0
H508 H 0.4793 0.51347 0.37513 0.0
H509 H 0.37639 0.49373 0.50688 0.0
H510 H 0.38454 0.47452 0.58365 0.0
H511 H 0.38633 0.46374 0.48933 0.0
C512 C 0.04587 0.38962 0.25269 0.0
C513 C 0.02806 0.37221 0.23938 0.0
C514 C 0.04322 0.40702 0.30885 0.0
C515 C 0.02194 0.40765 0.35203 0.0
C516 C 1.00308 0.39146 0.33494 0.0
C517 C 1.00643 0.37385 0.27962 0.0
C518 C 0.06392 0.4237 0.32515 0.0
C519 C 0.97981 0.3918 0.37809 0.0
C520 C 0.02509 0.42677 0.5552 0.0
C521 C 0.01642 0.4504 0.55304 0.0
C522 C 0.02759 0.4131 0.49009 0.0
C523 C 0.02059 0.42296 0.42063 0.0
C524 C 0.01204 0.447 0.41787 0.0
C525 C 0.01034 0.46056 0.48409 0.0
C526 C 0.03741 0.38787 0.496 0.0
C527 C 1.00384 0.45807 0.34554 0.0
H528 H 0.0624 0.38919 0.22085 0.0
H529 H 0.99249 0.36061 0.27083 0.0
H530 H 0.05759 0.44254 0.32914 0.0
H531 H 0.07191 0.41886 0.37971 0.0
H532 H 0.07819 0.42272 0.28201 0.0
H533 H 0.96571 0.38072 0.35118 0.0
H534 H 0.98292 0.38467 0.43499 0.0
H535 H 0.97308 0.41046 0.38374 0.0
H536 H 0.02984 0.41885 0.60838 0.0
H537 H 1.0033 0.47872 0.48232 0.0
H538 H 0.05285 0.38561 0.45752 0.0
H539 H 0.02343 0.37477 0.47936 0.0
H540 H 0.04341 0.38339 0.55331 0.0
H541 H 0.01799 0.4563 0.30241 0.0
H542 H 0.99919 0.47737 0.35166 0.0
H543 H 0.98779 0.44832 0.32506 0.0
C544 C 0.87159 0.9918 0.07303 0.0
C545 C 0.87988 0.99741 0.14475 0.0
C546 C 0.88738 0.9907 0.01175 0.0
C547 C 0.91213 0.99572 0.02155 0.0
C548 C 0.92082 1.00041 0.09408 0.0
C549 C 0.90471 1.00093 0.15461 0.0
C550 C 0.87733 0.98521 0.93573 0.0
C551 C 0.94697 1.00608 0.10736 0.0
C552 C 0.95606 0.98152 0.86297 0.0
C553 C 0.9567 1.00349 0.82454 0.0
C554 C 0.94184 0.97867 0.92759 0.0
C555 C 0.92835 0.99839 0.95518 0.0
C556 C 0.9298 0.02082 0.91792 0.0
C557 C 0.94371 0.023 0.8529 0.0
C558 C 0.9406 0.95437 0.9648 0.0
C559 C 0.9163 0.04252 0.94597 0.0
H560 H 0.85254 0.98927 0.06381 0.0
H561 H 0.91161 1.00466 0.20968 0.0
H562 H 0.87805 1.0016 0.9005 0.0
H563 H 0.88832 0.97125 0.90787 0.0
H564 H 0.85841 0.97894 0.93848 0.0
H565 H 0.95128 0.00749 0.16752 0.0
H566 H 0.95858 0.99208 0.08227 0.0
H567 H 0.95157 0.02339 0.08 0.0
H568 H 0.96599 0.96635 0.84111 0.0
H569 H 0.94428 0.04008 0.82374 0.0
H570 H 0.92208 0.94717 0.96035 0.0
H571 H 0.94476 0.95595 0.0249 0.0
H572 H 0.95321 0.94128 0.93941 0.0
H573 H 0.89669 0.03916 0.94304 0.0
H574 H 0.92043 0.05899 0.91328 0.0
H575 H 0.9208 0.04586 1.00515 0.0
C576 C 0.52482 0.86952 0.09354 0.0
C577 C 0.5183 0.87762 0.16473 0.0
C578 C 0.52648 0.88549 0.03273 0.0
C579 C 0.52124 0.9102 0.04269 0.0
C580 C 0.51604 0.91872 0.1151 0.0
C581 C 0.51484 0.90243 0.17508 0.0
C582 C 0.53246 0.87562 0.95681 0.0
C583 C 0.51024 0.94484 0.12859 0.0
C584 C 0.53383 0.95418 0.88234 0.0
C585 C 0.51169 0.95415 0.84529 0.0
C586 C 0.53728 0.94023 0.94732 0.0
C587 C 0.51801 0.92631 0.97636 0.0
C588 C 0.49539 0.92717 0.94054 0.0
C589 C 0.49261 0.94086 0.8754 0.0
C590 C 0.56173 0.93966 0.98322 0.0
C591 C 0.47415 0.91317 0.97005 0.0
H592 H 0.52742 0.85048 0.08423 0.0
H593 H 0.5104 0.9091 0.22997 0.0
H594 H 0.51612 0.87585 0.92156 0.0
H595 H 0.54615 0.88701 0.92891 0.0
H596 H 0.53926 0.85688 0.95978 0.0
H597 H 0.50941 0.94916 0.18884 0.0
H598 H 0.52381 0.95661 0.10174 0.0
H599 H 0.49259 0.94917 0.1033 0.0
H600 H 0.54867 0.96435 0.85904 0.0
H601 H 0.47539 0.94092 0.84728 0.0
H602 H 0.5696 0.92146 0.9772 0.0
H603 H 0.56025 0.94334 0.04366 0.0
H604 H 0.57423 0.95293 0.95786 0.0
H605 H 0.478 0.89364 0.96742 0.0
H606 H 0.45747 0.91681 0.93812 0.0
H607 H 0.47089 0.91772 0.02927 0.0
C608 C 0.60777 0.50677 0.19416 0.0
C609 C 0.63229 0.51227 0.18534 0.0
C610 C 0.59168 0.50786 0.13384 0.0
C611 C 0.60007 0.515 0.06266 0.0
C612 C 0.62438 0.52213 0.05444 0.0
C613 C 0.64018 0.52055 0.11549 0.0
C614 C 0.56599 0.50001 0.1455 0.0
C615 C 0.63409 0.53019 0.97997 0.0
C616 C 0.57128 0.4884 0.88931 0.0
C617 C 0.55693 0.50733 0.86319 0.0
C618 C 0.5848 0.49054 0.95488 0.0
C619 C 0.58433 0.51232 0.99543 0.0
C620 C 0.5694 0.53137 0.9703 0.0
C621 C 0.55574 0.5286 0.90469 0.0
C622 C 0.59999 0.46954 0.97997 0.0
C623 C 0.56845 0.55494 0.01134 0.0
H624 H 0.6012 0.50091 0.24802 0.0
H625 H 0.659 0.52469 0.10724 0.0
H626 H 0.55342 0.51345 0.12178 0.0
H627 H 0.56286 0.48283 0.11593 0.0
H628 H 0.56161 0.49735 0.20529 0.0
H629 H 0.65241 0.53796 0.98452 0.0
H630 H 0.63486 0.51463 0.94163 0.0
H631 H 0.62203 0.54378 0.95457 0.0
H632 H 0.57215 0.47184 0.85785 0.0
H633 H 0.54471 0.54331 0.88472 0.0
H634 H 0.59547 0.46462 0.03821 0.0
H635 H 0.61925 0.47462 0.97871 0.0
H636 H 0.59747 0.45347 0.94435 0.0
H637 H 0.5646 0.55185 0.07117 0.0
H638 H 0.55462 0.56725 0.98825 0.0
H639 H 0.58621 0.56391 0.0077 0.0
C640 C 1.00594 0.60373 0.17546 0.0
C641 C 1.00108 0.62839 0.16635 0.0
C642 C 1.00507 0.58771 0.11501 0.0
C643 C 0.99873 0.59629 0.04339 0.0
C644 C 0.99219 0.62077 0.03477 0.0
C645 C 0.99361 0.63649 0.09591 0.0
C646 C 0.01229 0.56185 0.12708 0.0
C647 C 0.98494 0.63069 0.95985 0.0
C648 C 0.02609 0.56749 0.87094 0.0
C649 C 0.00712 0.55354 0.84349 0.0
C650 C 0.02374 0.58078 0.93685 0.0
C651 C 1.00167 0.58057 0.97625 0.0
C652 C 0.98257 0.566 0.94982 0.0
C653 C 0.98559 0.55249 0.88402 0.0
C654 C 0.04481 0.5955 0.96345 0.0
C655 C 0.95868 0.56538 0.98945 0.0
H656 H 0.01114 0.59698 0.22969 0.0
H657 H 0.98998 0.65542 0.08732 0.0
H658 H 0.99882 0.54957 0.10244 0.0
H659 H 0.02965 0.55841 0.09864 0.0
H660 H 0.01435 0.55737 0.18702 0.0
H661 H 0.97747 0.64915 0.96398 0.0
H662 H 1.00082 0.63121 0.92251 0.0
H663 H 0.97135 0.6189 0.93354 0.0
H664 H 0.04285 0.56823 0.84023 0.0
H665 H 0.97085 0.54178 0.86298 0.0
H666 H 0.04908 0.59088 0.02206 0.0
H667 H 0.04017 0.61487 0.96173 0.0
H668 H 0.06115 0.59263 0.92903 0.0
H669 H 0.96122 0.5617 0.04961 0.0
H670 H 0.94646 0.55156 0.96609 0.0
H671 H 0.94989 0.5832 0.98452 0.0
C672 C 1.00653 0.19001 0.34849 0.0
C673 C 0.9979 0.21252 0.32602 0.0
C674 C 0.99106 0.17267 0.37827 0.0
C675 C 0.96647 0.17834 0.38883 0.0
C676 C 0.95818 0.20187 0.37403 0.0
C677 C 0.9739 0.2186 0.34147 0.0
C678 C 1.00079 0.14777 0.39353 0.0
C679 C 0.93247 0.20918 0.38799 0.0
C680 C 0.93108 0.12183 0.36243 0.0
C681 C 0.93352 0.11151 0.43331 0.0
C682 C 0.93948 0.1451 0.34809 0.0
C683 C 0.94954 0.1586 0.40688 0.0
C684 C 0.94793 0.14996 0.48065 0.0
C685 C 0.94032 0.12627 0.49308 0.0
C686 C 0.94033 0.15394 0.26862 0.0
C687 C 0.95654 0.16488 0.54527 0.0
H688 H 0.02524 0.18548 0.33939 0.0
H689 H 0.96693 0.23595 0.32461 0.0
H690 H 0.99753 0.14268 0.45236 0.0
H691 H 0.99136 0.13447 0.35815 0.0
H692 H 0.02037 0.14641 0.38237 0.0
H693 H 0.93144 0.22842 0.40392 0.0
H694 H 0.92199 0.20698 0.33605 0.0
H695 H 0.92392 0.1982 0.43234 0.0
H696 H 0.92474 0.11093 0.31662 0.0
H697 H 0.94194 0.11882 0.54859 0.0
H698 H 0.95927 0.15439 0.24919 0.0
H699 H 0.93317 0.17247 0.26479 0.0
H700 H 0.92989 0.14226 0.23053 0.0
H701 H 0.97628 0.16727 0.5419 0.0
H702 H 0.95206 0.1565 0.59977 0.0
H703 H 0.94836 0.18304 0.54261 0.0
C704 C 0.31355 0.05019 0.30995 0.0
C705 C 0.29137 0.03928 0.29606 0.0
C706 C 0.33217 0.03729 0.34365 0.0
C707 C 0.32838 0.01297 0.36388 0.0
C708 C 0.30538 1.00258 0.35634 0.0
C709 C 0.28708 0.01588 0.32222 0.0
C710 C 0.35639 0.04915 0.3527 0.0
C711 C 0.30058 0.97693 0.3794 0.0
C712 C 0.38575 0.97742 0.34753 0.0
C713 C 0.39442 0.97901 0.42019 0.0
C714 C 0.36323 0.98695 0.32929 0.0
C715 C 0.34921 0.99801 0.38549 0.0
C716 C 0.35696 0.99747 0.46027 0.0
C717 C 0.37968 0.98814 0.4767 0.0
C718 C 0.3554 0.98702 0.24889 0.0
C719 C 0.34236 0.00851 0.52212 0.0
H720 H 0.31673 0.0684 0.29066 0.0
H721 H 0.26998 0.00731 0.31119 0.0
H722 H 0.36286 0.04696 0.41066 0.0
H723 H 0.36967 0.04037 0.31556 0.0
H724 H 0.35586 0.06863 0.33909 0.0
H725 H 0.28107 0.97275 0.38023 0.0
H726 H 0.30952 0.96457 0.33976 0.0
H727 H 0.30814 0.97328 0.43539 0.0
H728 H 0.3973 0.97038 0.30412 0.0
H729 H 0.38647 0.98917 0.53314 0.0
H730 H 0.35613 1.00564 0.22672 0.0
H731 H 0.33657 0.98073 0.24403 0.0
H732 H 0.36701 0.97546 0.21367 0.0
H733 H 0.34707 0.02781 0.52691 0.0
H734 H 0.34633 0.9997 0.57618 0.0
H735 H 0.32279 0.00719 0.51151 0.0
C736 C 0.52613 0.29313 0.32509 0.0
C737 C 0.50141 0.29714 0.3155 0.0
C738 C 0.54104 0.31097 0.35479 0.0
C739 C 0.53105 0.33349 0.37341 0.0
C740 C 0.50594 0.33718 0.36782 0.0
C741 C 0.4914 0.31883 0.33979 0.0
C742 C 0.5676 0.30608 0.36202 0.0
C743 C 0.49457 0.36099 0.38749 0.0
C744 C 0.55879 0.38325 0.48518 0.0
C745 C 0.56484 0.3997 0.42859 0.0
C746 C 0.55012 0.36032 0.46796 0.0
C747 C 0.54669 0.35406 0.39266 0.0
C748 C 0.55497 0.36955 0.33553 0.0
C749 C 0.56439 0.39204 0.35434 0.0
C750 C 0.54275 0.34359 0.53022 0.0
C751 C 0.55173 0.36343 0.25438 0.0
H752 H 0.53415 0.27653 0.3059 0.0
H753 H 0.47225 0.32182 0.33421 0.0
H754 H 0.57714 0.31372 0.31318 0.0
H755 H 0.57509 0.31459 0.41264 0.0
H756 H 0.57141 0.28649 0.3641 0.0
H757 H 0.47472 0.3607 0.38146 0.0
H758 H 0.49897 0.36588 0.44564 0.0
H759 H 0.50189 0.37532 0.35083 0.0
H760 H 0.55902 0.38879 0.54289 0.0
H761 H 0.56983 0.40428 0.31043 0.0
H762 H 0.54891 0.32502 0.51866 0.0
H763 H 0.52288 0.34312 0.53446 0.0
H764 H 0.55015 0.34936 0.58466 0.0
H765 H 0.55844 0.34507 0.24283 0.0
H766 H 0.56118 0.37629 0.2171 0.0
H767 H 0.53231 0.36374 0.24053 0.0
C768 C 0.18865 0.51974 0.34848 0.0
C769 C 0.21111 0.52819 0.325 0.0
C770 C 0.17139 0.5354 0.37723 0.0
C771 C 0.17702 0.56009 0.38536 0.0
C772 C 0.20038 0.5684 0.36798 0.0
C773 C 0.21708 0.5524 0.33684 0.0
C774 C 0.14673 0.52559 0.39549 0.0
C775 C 0.2076 0.59428 0.37871 0.0
C776 C 0.11898 0.5932 0.36847 0.0
C777 C 0.11002 0.5897 0.44074 0.0
C778 C 0.14247 0.58636 0.3503 0.0
C779 C 0.1575 0.57686 0.40657 0.0
C780 C 0.15016 0.57804 0.48167 0.0
C781 C 0.12627 0.58399 0.49801 0.0
C782 C 0.14996 0.58619 0.26958 0.0
C783 C 0.16653 0.57002 0.54376 0.0
H784 H 0.18422 0.50091 0.34189 0.0
H785 H 0.23442 0.55915 0.31898 0.0
H786 H 0.14264 0.52839 0.45523 0.0
H787 H 0.13286 0.53527 0.36273 0.0
H788 H 0.14515 0.50609 0.38349 0.0
H789 H 0.22698 0.59562 0.39277 0.0
H790 H 0.20478 0.60428 0.32597 0.0
H791 H 0.197 0.60314 0.42315 0.0
H792 H 0.10692 0.59889 0.32452 0.0
H793 H 0.11998 0.58167 0.55463 0.0
H794 H 0.15007 0.5674 0.24902 0.0
H795 H 0.16839 0.59343 0.26317 0.0
H796 H 0.13758 0.59689 0.23415 0.0
H797 H 0.1659 0.55016 0.54873 0.0
H798 H 0.16093 0.57781 0.59791 0.0
H799 H 0.18539 0.57528 0.5321 0.0
C800 C 0.0944 0.79431 0.18509 0.0
C801 C 0.0738 0.77991 0.18047 0.0
C802 C 0.09501 0.81712 0.15151 0.0
C803 C 0.07445 0.82566 0.11354 0.0
C804 C 0.05396 0.81084 0.10657 0.0
C805 C 0.05392 0.78815 0.14 0.0
C806 C 0.11726 0.83239 0.15897 0.0
C807 C 0.0316 0.81937 0.0669 0.0
C808 C 0.0596 0.89172 0.09735 0.0
C809 C 0.06388 0.89583 0.0216 0.0
C810 C 0.06421 0.86917 0.1292 0.0
C811 C 0.07352 0.85052 0.08413 0.0
C812 C 0.07913 0.85504 0.00861 0.0
C813 C 0.0741 0.87765 0.97809 0.0
C814 C 0.05779 0.86493 0.20987 0.0
C815 C 0.0893 0.83566 0.95915 0.0
H816 H 0.10978 0.78794 0.21633 0.0
H817 H 0.03774 0.77735 0.13767 0.0
H818 H 0.12282 0.8395 0.10382 0.0
H819 H 0.11333 0.84806 0.19497 0.0
H820 H 0.13249 0.82224 0.18358 0.0
H821 H 0.01759 0.8052 0.06374 0.0
H822 H 0.02394 0.83508 0.09649 0.0
H823 H 0.03606 0.82529 0.00954 0.0
H824 H 0.05166 0.9058 0.13087 0.0
H825 H 0.07778 0.88103 0.91971 0.0
H826 H 0.07304 0.8565 0.23975 0.0
H827 H 0.04238 0.85233 0.21345 0.0
H828 H 0.05282 0.88182 0.23883 0.0
H829 H 0.10455 0.82649 0.98692 0.0
H830 H 0.09554 0.8429 0.90477 0.0
H831 H 0.07532 0.8219 0.94852 0.0
C832 C 0.72416 0.05705 0.1483 0.0
C833 C 0.73127 0.07502 0.19813 0.0
C834 C 0.70136 0.05728 0.11604 0.0
C835 C 0.6852 0.076 0.13386 0.0
C836 C 0.69254 0.09482 0.18148 0.0
C837 C 0.71552 0.09403 0.21356 0.0
C838 C 0.69418 0.03679 0.0658 0.0
C839 C 0.67582 0.1152 0.20077 0.0
C840 C 0.63284 0.07836 1.00093 0.0
C841 C 0.61584 0.06434 0.03889 0.0
C842 C 0.65499 0.08384 0.03349 0.0
C843 C 0.66029 0.07481 0.10524 0.0
C844 C 0.64268 0.06171 0.14539 0.0
C845 C 0.62055 0.05672 0.11173 0.0
C846 C 0.67321 0.09811 0.98943 0.0
C847 C 0.64776 0.05164 0.22191 0.0
H848 H 0.73596 0.04197 0.13751 0.0
H849 H 0.72097 0.10794 0.25207 0.0
H850 H 0.67922 0.02655 0.09164 0.0
H851 H 0.68765 0.04382 0.01168 0.0
H852 H 0.70926 0.0242 0.05505 0.0
H853 H 0.68511 0.12972 0.23172 0.0
H854 H 0.6678 0.12295 0.14956 0.0
H855 H 0.66085 0.10833 0.23563 0.0
H856 H 0.62897 0.08464 0.94505 0.0
H857 H 0.60739 0.04587 0.14102 0.0
H858 H 0.68789 0.08604 0.97091 0.0
H859 H 0.68139 0.11226 0.02454 0.0
H860 H 0.66514 0.10669 0.93948 0.0
H861 H 0.6614 0.03718 0.21769 0.0
H862 H 0.6314 0.04407 0.24863 0.0
H863 H 0.65525 0.06576 0.25855 0.0
C864 C 0.42844 0.72248 0.16168 0.0
C865 C 0.43291 0.72514 0.23801 0.0
C866 C 0.42881 0.69973 0.1284 0.0
C867 C 0.43342 0.67921 0.17282 0.0
C868 C 0.43547 0.68154 0.25084 0.0
C869 C 0.43536 0.70449 0.2825 0.0
C870 C 0.42638 0.69794 0.04498 0.0
C871 C 0.43992 0.65999 0.30017 0.0
C872 C 0.42835 0.61695 0.08857 0.0
C873 C 0.45238 0.61214 0.06999 0.0
C874 C 0.42179 0.6387 0.12216 0.0
C875 C 0.43968 0.65604 0.13712 0.0
C876 C 0.46397 0.65123 0.11884 0.0
C877 C 0.47001 0.62932 0.08567 0.0
C878 C 0.39576 0.64322 0.14109 0.0
C879 C 0.48362 0.66924 0.13439 0.0
H880 H 0.42607 0.73832 0.12719 0.0
H881 H 0.43906 0.70624 0.3414 0.0
H882 H 0.44426 0.69423 0.02018 0.0
H883 H 0.41436 0.68288 0.02964 0.0
H884 H 0.41929 0.71479 0.02004 0.0
H885 H 0.43814 0.66444 0.36014 0.0
H886 H 0.42718 0.64532 0.28681 0.0
H887 H 0.45831 0.65305 0.29005 0.0
H888 H 0.41459 0.60386 0.07557 0.0
H889 H 0.48863 0.62556 0.07233 0.0
H890 H 0.38912 0.65909 0.1098 0.0
H891 H 0.39387 0.64735 0.20115 0.0
H892 H 0.38415 0.62759 0.1278 0.0
H893 H 0.4796 0.68649 0.10587 0.0
H894 H 0.50153 0.66287 0.11563 0.0
H895 H 0.4845 0.67295 0.19494 0.0
C896 C 0.80218 0.42366 0.20685 0.0
C897 C 0.78862 0.44483 0.20921 0.0
C898 C 0.82521 0.42357 0.17485 0.0
C899 C 0.83484 0.44525 0.14607 0.0
C900 C 0.82113 0.46661 0.1483 0.0
C901 C 0.79817 0.46611 0.17958 0.0
C902 C 0.83931 0.40043 0.1724 0.0
C903 C 0.83089 0.49016 0.11894 0.0
C904 C 0.90163 0.4558 0.12456 0.0
C905 C 0.9042 0.45446 0.04721 0.0
C906 C 0.87925 0.45176 0.15823 0.0
C907 C 0.85923 0.44594 0.11323 0.0
C908 C 0.86207 0.44343 0.03545 0.0
C909 C 0.88453 0.44788 1.00328 0.0
C910 C 0.87677 0.45491 0.24131 0.0
C911 C 0.84118 0.43703 0.98583 0.0
H912 H 0.7948 0.40726 0.23024 0.0
H913 H 0.78794 0.48264 0.18317 0.0
H914 H 0.8446 0.39636 0.11425 0.0
H915 H 0.85609 0.40236 0.205 0.0
H916 H 0.82895 0.38499 0.19504 0.0
H917 H 0.81789 0.50515 0.12529 0.0
H918 H 0.84763 0.49491 0.14888 0.0
H919 H 0.83551 0.48843 0.05914 0.0
H920 H 0.91692 0.46088 0.15833 0.0
H921 H 0.88671 0.44643 0.9435 0.0
H922 H 0.86759 0.43917 0.26642 0.0
H923 H 0.86553 0.47093 0.25302 0.0
H924 H 0.89443 0.45731 0.269 0.0
H925 H 0.83159 0.42107 0.00805 0.0
H926 H 0.84695 0.43324 0.92785 0.0
H927 H 0.82816 0.45212 0.98462 0.0
C928 C 0.99793 0.18904 0.85873 0.0
C929 C 0.02074 0.19885 0.8733 0.0
C930 C 0.99527 0.16596 0.82728 0.0
C931 C 0.01588 0.15226 0.80855 0.0
C932 C 0.03889 0.16244 0.81986 0.0
C933 C 0.04104 0.18532 0.85254 0.0
C934 C 0.97036 0.15591 0.8163 0.0
C935 C 0.0614 0.14877 0.79985 0.0
C936 C 0.01326 0.08363 0.81163 0.0
C937 C 0.01137 0.07777 0.73586 0.0
C938 C 0.01414 0.10766 0.83569 0.0
C939 C 0.01353 0.12662 0.78289 0.0
C940 C 0.01143 0.1209 0.70624 0.0
C941 C 0.0102 0.09661 0.68372 0.0
C942 C 0.01584 0.11273 0.91801 0.0
C943 C 0.01117 0.14037 0.64769 0.0
H944 H 0.98201 0.19924 0.87277 0.0
H945 H 0.05884 0.19214 0.86431 0.0
H946 H 0.96793 0.15025 0.75768 0.0
H947 H 0.96796 0.13971 0.8517 0.0
H948 H 0.95613 0.1691 0.83055 0.0
H949 H 0.07781 0.15998 0.80504 0.0
H950 H 0.06327 0.13292 0.83699 0.0
H951 H 0.06023 0.14202 0.74196 0.0
H952 H 0.01385 0.06935 0.85273 0.0
H953 H 0.00877 0.09239 0.62508 0.0
H954 H 1.00101 0.12481 0.9353 0.0
H955 H 0.03295 0.1221 0.93027 0.0
H956 H 0.01499 0.09608 0.9522 0.0
H957 H 0.99853 0.15491 0.66327 0.0
H958 H 1.00608 0.13335 0.59215 0.0
H959 H 0.02932 0.1485 0.64345 0.0
C960 C 0.31941 0.03146 0.80048 0.0
C961 C 0.3118 0.02186 0.86928 0.0
C962 C 0.34326 0.02887 0.77507 0.0
C963 C 0.36009 0.01571 0.81797 0.0
C964 C 0.35234 1.00492 0.88542 0.0
C965 C 0.32858 0.0084 0.91068 0.0
C966 C 0.35063 0.0412 0.70364 0.0
C967 C 0.36935 0.99006 0.93195 0.0
C968 C 0.41796 0.99465 0.72195 0.0
C969 C 0.43505 0.01081 0.74993 0.0
C970 C 0.39364 0.99583 0.74402 0.0
C971 C 0.38595 0.01403 0.79382 0.0
C972 C 0.40307 0.03077 0.82056 0.0
C973 C 0.42738 0.02871 0.79937 0.0
C974 C 0.37638 0.97709 0.71574 0.0
C975 C 0.39569 0.05101 0.87139 0.0
H976 H 0.30684 0.04137 0.7663 0.0
H977 H 0.32349 1.00109 0.96432 0.0
H978 H 0.36131 0.05743 0.71721 0.0
H979 H 0.36217 0.02937 0.6693 0.0
H980 H 0.33488 0.04683 0.66999 0.0
H981 H 0.36013 0.98108 0.97933 0.0
H982 H 0.37807 0.97614 0.89707 0.0
H983 H 0.38378 1.00168 0.9544 0.0
H984 H 0.42373 0.9806 0.68431 0.0
H985 H 0.44039 0.04139 0.82083 0.0
H986 H 0.35924 0.9854 0.69787 0.0
H987 H 0.37213 0.96435 0.76153 0.0
H988 H 0.38399 0.96676 0.66846 0.0
H989 H 0.38121 0.06174 0.84494 0.0
H990 H 0.4109 0.06315 0.88478 0.0
H991 H 0.38836 0.04361 0.92413 0.0
C992 C 0.47023 0.32374 0.86361 0.0
C993 C 0.49011 0.30993 0.88645 0.0
C994 C 0.47294 0.3472 0.83509 0.0
C995 C 0.49609 0.35765 0.83019 0.0
C996 C 0.51632 0.34374 0.85132 0.0
C997 C 0.51312 0.32011 0.87855 0.0
C998 C 0.45084 0.36114 0.81258 0.0
C999 C 0.54133 0.35409 0.84736 0.0
C1000 C 0.50432 0.41483 0.71279 0.0
C1001 C 0.50213 0.43299 0.7665 0.0
C1002 C 0.50255 0.3903 0.73246 0.0
C1003 C 0.49886 0.3836 0.8079 0.0
C1004 C 0.49709 0.40187 0.86241 0.0
C1005 C 0.49856 0.4262 0.84108 0.0
C1006 C 0.50413 0.37157 0.6722 0.0
C1007 C 0.49355 0.39572 0.9436 0.0
H1008 H 0.45227 0.31661 0.87045 0.0
H1009 H 0.52875 0.30974 0.8945 0.0
H1010 H 0.44812 0.37639 0.85126 0.0
H1011 H 0.45319 0.3688 0.75596 0.0
H1012 H 0.4344 0.34983 0.81315 0.0
H1013 H 0.55531 0.34072 0.86259 0.0
H1014 H 0.54511 0.36086 0.7904 0.0
H1015 H 0.54276 0.36962 0.88567 0.0
H1016 H 0.50704 0.41978 0.65501 0.0
H1017 H 0.4971 0.43995 0.88336 0.0
H1018 H 0.48663 0.36219 0.66723 0.0
H1019 H 0.51776 0.35782 0.68679 0.0
H1020 H 0.50881 0.37951 0.61725 0.0
H1021 H 0.47628 0.38609 0.95128 0.0
H1022 H 0.49348 0.41191 0.97954 0.0
H1023 H 0.50805 0.3835 0.96272 0.0
C1024 C 0.19723 0.48254 0.82461 0.0
C1025 C 0.20296 0.49518 0.88988 0.0
C1026 C 0.17445 0.48461 0.79085 0.0
C1027 C 0.15681 0.4999 0.82231 0.0
C1028 C 0.16285 0.51363 0.88586 0.0
C1029 C 0.18566 0.51103 0.91893 0.0
C1030 C 0.16891 0.46957 0.72332 0.0
C1031 C 0.1448 0.53035 0.92114 0.0
C1032 C 0.09998 0.51626 0.71219 0.0
C1033 C 0.08281 0.50083 0.74404 0.0
C1034 C 0.12412 0.51613 0.73649 0.0
C1035 C 0.13146 0.49992 0.79321 0.0
C1036 C 0.1143 0.4839 0.82404 0.0
C1037 C 0.0903 0.48468 0.7996 0.0
C1038 C 0.14163 0.5337 0.70248 0.0
C1039 C 0.12121 0.46606 0.88377 0.0
H1040 H 0.21042 0.47056 0.80048 0.0
H1041 H 0.18947 0.5207 0.96975 0.0
H1042 H 0.15496 0.45608 0.73765 0.0
H1043 H 0.16156 0.48099 0.67808 0.0
H1044 H 0.18501 0.45999 0.70209 0.0
H1045 H 0.15295 0.54163 0.96527 0.0
H1046 H 0.13675 0.5423 0.87841 0.0
H1047 H 0.13 0.5197 0.94621 0.0
H1048 H 0.09444 0.52891 0.66958 0.0
H1049 H 0.07732 0.47254 0.82442 0.0
H1050 H 0.1568 0.52389 0.67651 0.0
H1051 H 0.14929 0.54535 0.74643 0.0
H1052 H 0.13307 0.54528 0.65962 0.0
H1053 H 0.13632 0.45472 0.86424 0.0
H1054 H 0.10603 0.45416 0.89989 0.0
H1055 H 0.12744 0.47574 0.93401 0.0
C1056 C 0.02728 0.81585 0.51061 0.0
C1057 C 1.00583 0.80345 0.49673 0.0
C1058 C 0.0272 0.84016 0.53199 0.0
C1059 C 1.00508 0.85238 0.54178 0.0
C1060 C 0.98331 0.83984 0.52816 0.0
C1061 C 0.98396 0.81564 0.50479 0.0
C1062 C 0.05086 0.85283 0.54369 0.0
C1063 C 0.95932 0.85191 0.53927 0.0
C1064 C 1.00641 0.90835 0.66519 0.0
C1065 C 1.00576 0.92709 0.61269 0.0
C1066 C 1.00565 0.88407 0.64306 0.0
C1067 C 1.00483 0.8782 0.56633 0.0
C1068 C 1.00443 0.89706 0.51308 0.0
C1069 C 1.00458 0.92118 0.53686 0.0
C1070 C 1.00564 0.86467 0.70196 0.0
C1071 C 1.00428 0.89177 0.43075 0.0
H1072 H 0.04423 0.80651 0.50376 0.0
H1073 H 0.96736 0.80608 0.49429 0.0
H1074 H 0.05188 0.86901 0.5076 0.0
H1075 H 0.05227 0.85899 0.60213 0.0
H1076 H 0.06648 0.84109 0.53122 0.0
H1077 H 0.94404 0.83964 0.52788 0.0
H1078 H 0.95781 0.85848 0.59733 0.0
H1079 H 0.95782 0.86779 0.50211 0.0
H1080 H 0.00715 0.91267 0.7239 0.0
H1081 H 1.00427 0.93547 0.49575 0.0
H1082 H 0.02184 0.85325 0.69589 0.0
H1083 H 0.98976 0.85287 0.6948 0.0
H1084 H 1.00536 0.87215 0.75918 0.0
H1085 H 0.02036 0.88102 0.41578 0.0
H1086 H 1.00417 0.90839 0.39637 0.0
H1087 H 0.98828 0.88089 0.41635 0.0
C1088 C 0.68878 0.0089 0.45025 0.0
C1089 C 0.70682 0.99552 0.48599 0.0
C1090 C 0.66505 0.00942 0.47768 0.0
C1091 C 0.65895 0.99607 0.54236 0.0
C1092 C 0.67698 0.98223 0.57807 0.0
C1093 C 0.70064 0.98223 0.54981 0.0
C1094 C 0.64658 0.02458 0.43791 0.0
C1095 C 0.6713 0.96747 0.64646 0.0
C1096 C 0.60291 0.01446 0.65249 0.0
C1097 C 0.58553 0.99832 0.62603 0.0
C1098 C 0.6268 0.01386 0.62619 0.0
C1099 C 0.63372 0.99658 0.5724 0.0
C1100 C 0.61637 0.98 0.54642 0.0
C1101 C 0.59259 0.98112 0.57317 0.0
C1102 C 0.64459 0.032 0.65519 0.0
C1103 C 0.62288 0.96112 0.48976 0.0
H1104 H 0.69336 0.0196 0.40175 0.0
H1105 H 0.71434 0.97172 0.57766 0.0
H1106 H 0.63156 0.01311 0.41862 0.0
H1107 H 0.6389 0.038 0.47676 0.0
H1108 H 0.65424 0.03422 0.38911 0.0
H1109 H 0.68715 0.95733 0.66701 0.0
H1110 H 0.66477 0.97934 0.69163 0.0
H1111 H 0.6567 0.95454 0.63406 0.0
H1112 H 0.59779 0.02788 0.69308 0.0
H1113 H 0.57948 0.96846 0.55225 0.0
H1114 H 0.65143 0.04319 0.60852 0.0
H1115 H 0.66025 0.02266 0.68006 0.0
H1116 H 0.63657 0.04402 0.69776 0.0
H1117 H 0.6289 0.96987 0.4374 0.0
H1118 H 0.60758 0.94904 0.47689 0.0
H1119 H 0.63807 0.95008 0.51048 0.0
C1120 C 0.5282 0.70004 0.57834 0.0
C1121 C 0.51546 0.70586 0.51336 0.0
C1122 C 0.52808 0.67648 0.60755 0.0
C1123 C 0.5146 0.65827 0.57171 0.0
C1124 C 0.50176 0.66406 0.50602 0.0
C1125 C 0.5024 0.68766 0.47764 0.0
C1126 C 0.54243 0.67106 0.67675 0.0
C1127 C 0.48692 0.6454 0.46634 0.0
C1128 C 0.52945 0.59194 0.6008 0.0
C1129 C 0.51194 0.58463 0.65258 0.0
C1130 C 0.53088 0.61587 0.57568 0.0
C1131 C 0.51418 0.63308 0.6019 0.0
C1132 C 0.49661 0.62594 0.65483 0.0
C1133 C 0.49582 0.60189 0.67994 0.0
C1134 C 0.55009 0.62266 0.52003 0.0
C1135 C 0.47828 0.64357 0.68366 0.0
H1136 H 0.5384 0.71392 0.60618 0.0
H1137 H 0.49208 0.69203 0.42832 0.0
H1138 H 0.53035 0.66441 0.72145 0.0
H1139 H 0.55563 0.65661 0.66518 0.0
H1140 H 0.55222 0.68707 0.69752 0.0
H1141 H 0.47942 0.6523 0.41329 0.0
H1142 H 0.49791 0.62926 0.45418 0.0
H1143 H 0.47186 0.63961 0.50271 0.0
H1144 H 0.54216 0.57889 0.57957 0.0
H1145 H 0.48219 0.59651 0.71975 0.0
H1146 H 0.56071 0.63806 0.54106 0.0
H1147 H 0.54164 0.62844 0.46706 0.0
H1148 H 0.56252 0.60754 0.50814 0.0
H1149 H 0.4874 0.65935 0.70838 0.0
H1150 H 0.46626 0.63546 0.72626 0.0
H1151 H 0.46713 0.65028 0.63688 0.0
C1152 C 0.81876 0.5291 0.53525 0.0
C1153 C 0.80728 0.50755 0.51674 0.0
C1154 C 0.843 0.5293 0.55837 0.0
C1155 C 0.85621 0.50749 0.56156 0.0
C1156 C 0.84466 0.48575 0.54154 0.0
C1157 C 0.82033 0.48603 0.5202 0.0
C1158 C 0.85441 0.55282 0.58008 0.0
C1159 C 0.85802 0.46216 0.54233 0.0
C1160 C 0.92488 0.51025 0.55495 0.0
C1161 C 0.93122 0.50599 0.6295 0.0
C1162 C 0.90066 0.51073 0.53219 0.0
C1163 C 0.88211 0.50732 0.58531 0.0
C1164 C 0.88838 0.50323 0.66081 0.0
C1165 C 0.91278 0.50239 0.6818 0.0
C1166 C 0.89496 0.51458 0.45092 0.0
C1167 C 0.86929 0.4998 0.71959 0.0
H1168 H 0.80866 0.54572 0.53281 0.0
H1169 H 0.81147 0.46937 0.50551 0.0
H1170 H 0.86113 0.55168 0.63808 0.0
H1171 H 0.8701 0.55658 0.54377 0.0
H1172 H 0.84167 0.56813 0.57591 0.0
H1173 H 0.84663 0.44694 0.52376 0.0
H1174 H 0.87397 0.4633 0.5054 0.0
H1175 H 0.86461 0.45823 0.59928 0.0
H1176 H 0.9389 0.51288 0.51385 0.0
H1177 H 0.91739 0.49923 0.73958 0.0
H1178 H 0.88346 0.53071 0.44403 0.0
H1179 H 0.8847 0.49901 0.42931 0.0
H1180 H 0.91138 0.51692 0.41649 0.0
H1181 H 0.85704 0.51552 0.7201 0.0
H1182 H 0.87703 0.49748 0.7761 0.0
H1183 H 0.85827 0.48377 0.70649 0.0
loop_
_geom_bond_atom_site_label_1
_geom_bond_atom_site_label_2
_geom_bond_distance
_geom_bond_site_symmetry_2
_ccdc_geom_bond_type
P0 O11 1.490 . S
P0 C14 1.812 . S
P0 C20 1.803 . S
P0 C26 1.819 . S
H1 C15 0.941 . S
H2 C16 0.939 . S
H3 C18 0.940 . S
H4 C19 0.940 . S
H5 C21 0.939 . S
H6 C22 0.942 . S
H7 C24 0.940 . S
H8 C25 0.939 . S
H9 C27 0.941 . S
H10 C31 0.939 . S
O11 P0 1.490 . S
H12 C28 0.939 . S
H13 C30 0.940 . S
C14 P0 1.812 . S
C14 C15 1.389 . S
C14 C19 1.391 . S
C15 H1 0.941 . S
C15 C14 1.389 . S
C15 C16 1.397 . S
C16 H2 0.939 . S
C16 C15 1.397 . S
C16 C17 1.378 . S
C17 C16 1.378 . S
C17 C18 1.378 . S
C18 H3 0.940 . S
C18 C17 1.378 . S
C18 C19 1.396 . S
C19 H4 0.940 . S
C19 C14 1.391 . S
C19 C18 1.396 . S
C20 P0 1.803 . S
C20 C21 1.378 . S
C20 C25 1.400 . S
C21 H5 0.939 . S
C21 C20 1.378 . S
C21 C22 1.361 . S
C22 H6 0.942 . S
C22 C21 1.361 . S
C22 C23 1.369 . S
C23 C22 1.369 . S
C23 C24 1.404 . S
C24 H7 0.940 . S
C24 C23 1.404 . S
C24 C25 1.389 . S
C25 H8 0.939 . S
C25 C20 1.400 . S
C25 C24 1.389 . S
C26 P0 1.819 . S
C26 C27 1.391 . S
C26 C31 1.391 . S
C27 H9 0.941 . S
C27 C26 1.391 . S
C27 C28 1.396 . S
C28 H12 0.939 . S
C28 C27 1.396 . S
C28 C29 1.397 . S
C29 C28 1.397 . S
C29 C30 1.385 . S
C30 H13 0.940 . S
C30 C29 1.385 . S
C30 C31 1.388 . S
C31 H10 0.939 . S
C31 C26 1.391 . S
C31 C30 1.388 . S
P32 O43 1.490 . S
P32 C46 1.812 . S
P32 C52 1.803 . S
P32 C58 1.819 . S
H33 C47 0.941 . S
H34 C48 0.939 . S
H35 C50 0.940 . S
H36 C51 0.950 . S
H37 C53 0.939 . S
H38 C54 0.942 . S
H39 C56 0.940 . S
H40 C57 0.959 . S
H41 C59 0.941 . S
H42 C63 0.929 1_655 S
O43 P32 1.490 . S
H44 C60 0.939 . S
H45 C62 0.940 . S
C46 P32 1.812 . S
C46 C47 1.389 . S
C46 C51 1.375 1_455 S
C47 H33 0.941 . S
C47 C46 1.389 . S
C47 C48 1.397 . S
C48 H34 0.939 . S
C48 C47 1.397 . S
C48 C49 1.378 . S
C49 C48 1.378 . S
C49 C50 1.378 1_455 S
C50 H35 0.940 . S
C50 C49 1.378 1_655 S
C50 C51 1.403 . S
C51 H36 0.950 . S
C51 C46 1.375 1_655 S
C51 C50 1.403 . S
C52 P32 1.803 . S
C52 C53 1.378 . S
C52 C57 1.368 1_455 S
C53 H37 0.939 . S
C53 C52 1.378 . S
C53 C54 1.361 . S
C54 H38 0.942 . S
C54 C53 1.361 . S
C54 C55 1.369 . S
C55 C54 1.369 . S
C55 C56 1.404 1_455 S
C56 H39 0.940 . S
C56 C55 1.404 1_655 S
C56 C57 1.402 . S
C57 H40 0.959 . S
C57 C52 1.368 1_655 S
C57 C56 1.402 . S
C58 P32 1.819 . S
C58 C59 1.391 . S
C58 C63 1.391 . S
C59 H41 0.941 . S
C59 C58 1.391 . S
C59 C60 1.396 . S
C60 H44 0.939 . S
C60 C59 1.396 . S
C60 C61 1.397 . S
C61 C60 1.397 . S
C61 C62 1.385 1_455 S
C62 H45 0.940 . S
C62 C61 1.385 1_655 S
C62 C63 1.388 1_655 S
C63 H42 0.929 1_455 S
C63 C58 1.391 . S
C63 C62 1.388 1_455 S
P64 O75 1.490 . S
P64 C78 1.812 . S
P64 C84 1.803 . S
P64 C90 1.819 . S
H65 C79 0.941 . S
H66 C80 0.939 . S
H67 C82 0.940 . S
H68 C83 0.950 . S
H69 C85 0.939 . S
H70 C86 0.942 . S
H71 C88 0.940 . S
H72 C89 0.959 . S
H73 C91 0.941 . S
H74 C95 0.929 1_565 S
O75 P64 1.490 . S
H76 C92 0.939 . S
H77 C94 0.940 . S
C78 P64 1.812 . S
C78 C79 1.389 . S
C78 C83 1.375 1_545 S
C79 H65 0.941 . S
C79 C78 1.389 . S
C79 C80 1.397 . S
C80 H66 0.939 . S
C80 C79 1.397 . S
C80 C81 1.378 . S
C81 C80 1.378 . S
C81 C82 1.378 1_545 S
C82 H67 0.940 . S
C82 C81 1.378 1_565 S
C82 C83 1.402 . S
C83 H68 0.950 . S
C83 C78 1.375 1_565 S
C83 C82 1.402 . S
C84 P64 1.803 . S
C84 C85 1.378 . S
C84 C89 1.368 1_545 S
C85 H69 0.939 . S
C85 C84 1.378 . S
C85 C86 1.361 . S
C86 H70 0.942 . S
C86 C85 1.361 . S
C86 C87 1.369 . S
C87 C86 1.369 . S
C87 C88 1.404 1_545 S
C88 H71 0.940 . S
C88 C87 1.404 1_565 S
C88 C89 1.402 . S
C89 H72 0.959 . S
C89 C84 1.368 1_565 S
C89 C88 1.402 . S
C90 P64 1.819 . S
C90 C91 1.391 . S
C90 C95 1.391 . S
C91 H73 0.941 . S
C91 C90 1.391 . S
C91 C92 1.396 . S
C92 H76 0.939 . S
C92 C91 1.396 . S
C92 C93 1.397 . S
C93 C92 1.397 . S
C93 C94 1.385 1_545 S
C94 H77 0.940 . S
C94 C93 1.385 1_565 S
C94 C95 1.388 1_565 S
C95 H74 0.929 1_545 S
C95 C90 1.391 . S
C95 C94 1.388 1_545 S
P96 O107 1.490 . S
P96 C110 1.812 . S
P96 C116 1.803 . S
P96 C122 1.819 . S
H97 C111 0.941 . S
H98 C112 0.939 . S
H99 C114 0.940 . S
H100 C115 0.940 . S
H101 C117 0.939 . S
H102 C118 0.942 . S
H103 C120 0.940 . S
H104 C121 0.939 . S
H105 C123 0.941 . S
H106 C127 0.939 . S
O107 P96 1.490 . S
H108 C124 0.939 . S
H109 C126 0.940 . S
C110 P96 1.812 . S
C110 C111 1.389 . S
C110 C115 1.391 . S
C111 H97 0.941 . S
C111 C110 1.389 . S
C111 C112 1.397 . S
C112 H98 0.939 . S
C112 C111 1.397 . S
C112 C113 1.378 . S
C113 C112 1.378 . S
C113 C114 1.378 . S
C114 H99 0.940 . S
C114 C113 1.378 . S
C114 C115 1.396 . S
C115 H100 0.940 . S
C115 C110 1.391 . S
C115 C114 1.396 . S
C116 P96 1.803 . S
C116 C117 1.378 . S
C116 C121 1.400 . S
C117 H101 0.939 . S
C117 C116 1.378 . S
C117 C118 1.361 . S
C118 H102 0.942 . S
C118 C117 1.361 . S
C118 C119 1.369 . S
C119 C118 1.369 . S
C119 C120 1.404 . S
C120 H103 0.940 . S
C120 C119 1.404 . S
C120 C121 1.389 . S
C121 H104 0.939 . S
C121 C116 1.400 . S
C121 C120 1.389 . S
C122 P96 1.819 . S
C122 C123 1.391 . S
C122 C127 1.391 . S
C123 H105 0.941 . S
C123 C122 1.391 . S
C123 C124 1.396 . S
C124 H108 0.939 . S
C124 C123 1.396 . S
C124 C125 1.397 . S
C125 C124 1.397 . S
C125 C126 1.385 . S
C126 H109 0.940 . S
C126 C125 1.385 . S
C126 C127 1.388 . S
C127 H106 0.939 . S
C127 C122 1.391 . S
C127 C126 1.388 . S
P128 O139 1.490 . S
P128 C142 1.812 1_554 S
P128 C148 1.803 . S
P128 C154 1.819 . S
H129 C143 0.941 . S
H130 C144 0.939 . S
H131 C146 0.940 . S
H132 C147 0.940 1_554 S
H133 C149 0.939 . S
H134 C150 0.942 . S
H135 C152 0.940 . S
H136 C153 0.939 . S
H137 C155 0.941 . S
H138 C159 0.939 . S
O139 P128 1.490 . S
H140 C156 0.939 . S
H141 C158 0.940 . S
C142 P128 1.812 1_556 S
C142 C143 1.389 . S
C142 C147 1.391 . S
C143 H129 0.941 . S
C143 C142 1.389 . S
C143 C144 1.397 . S
C144 H130 0.939 . S
C144 C143 1.397 . S
C144 C145 1.378 . S
C145 C144 1.378 . S
C145 C146 1.378 . S
C146 H131 0.940 . S
C146 C145 1.378 . S
C146 C147 1.396 . S
C147 H132 0.940 1_556 S
C147 C142 1.391 . S
C147 C146 1.396 . S
C148 P128 1.803 . S
C148 C149 1.378 . S
C148 C153 1.400 . S
C149 H133 0.939 . S
C149 C148 1.378 . S
C149 C150 1.361 . S
C150 H134 0.942 . S
C150 C149 1.361 . S
C150 C151 1.369 . S
C151 C150 1.369 . S
C151 C152 1.404 . S
C152 H135 0.940 . S
C152 C151 1.404 . S
C152 C153 1.389 . S
C153 H136 0.939 . S
C153 C148 1.400 . S
C153 C152 1.389 . S
C154 P128 1.819 . S
C154 C155 1.391 . S
C154 C159 1.391 . S
C155 H137 0.941 . S
C155 C154 1.391 . S
C155 C156 1.396 . S
C156 H140 0.939 . S
C156 C155 1.396 . S
C156 C157 1.397 . S
C157 C156 1.397 . S
C157 C158 1.385 . S
C158 H141 0.940 . S
C158 C157 1.385 . S
C158 C159 1.388 . S
C159 H138 0.939 . S
C159 C154 1.391 . S
C159 C158 1.388 . S
P160 O171 1.490 . S
P160 C174 1.812 1_554 S
P160 C180 1.803 . S
P160 C186 1.819 . S
H161 C175 0.941 . S
H162 C176 0.939 . S
H163 C178 0.940 . S
H164 C179 0.944 1_554 S
H165 C181 0.939 . S
H166 C182 0.942 . S
H167 C184 0.940 . S
H168 C185 0.953 . S
H169 C187 0.941 . S
H170 C191 0.933 1_655 S
O171 P160 1.490 . S
H172 C188 0.939 . S
H173 C190 0.940 . S
C174 P160 1.812 1_556 S
C174 C175 1.389 . S
C174 C179 1.385 1_455 S
C175 H161 0.941 . S
C175 C174 1.389 . S
C175 C176 1.397 . S
C176 H162 0.939 . S
C176 C175 1.397 . S
C176 C177 1.378 . S
C177 C176 1.378 . S
C177 C178 1.378 1_455 S
C178 H163 0.940 . S
C178 C177 1.378 1_655 S
C178 C179 1.399 . S
C179 H164 0.944 1_556 S
C179 C174 1.385 1_655 S
C179 C178 1.399 . S
C180 P160 1.803 . S
C180 C181 1.378 . S
C180 C185 1.379 1_455 S
C181 H165 0.939 . S
C181 C180 1.378 . S
C181 C182 1.361 . S
C182 H166 0.942 . S
C182 C181 1.361 . S
C182 C183 1.369 . S
C183 C182 1.369 . S
C183 C184 1.404 1_455 S
C184 H167 0.940 . S
C184 C183 1.404 1_655 S
C184 C185 1.398 . S
C185 H168 0.953 . S
C185 C180 1.379 1_655 S
C185 C184 1.398 . S
C186 P160 1.819 . S
C186 C187 1.391 . S
C186 C191 1.391 . S
C187 H169 0.941 . S
C187 C186 1.391 . S
C187 C188 1.396 . S
C188 H172 0.939 . S
C188 C187 1.396 . S
C188 C189 1.397 . S
C189 C188 1.397 . S
C189 C190 1.385 1_455 S
C190 H173 0.940 . S
C190 C189 1.385 1_655 S
C190 C191 1.388 1_655 S
C191 H170 0.933 1_455 S
C191 C186 1.391 . S
C191 C190 1.388 1_455 S
P192 O203 1.490 . S
P192 C206 1.812 1_554 S
P192 C212 1.803 . S
P192 C218 1.819 . S
H193 C207 0.941 . S
H194 C208 0.939 . S
H195 C210 0.940 . S
H196 C211 0.944 1_554 S
H197 C213 0.939 . S
H198 C214 0.942 . S
H199 C216 0.940 . S
H200 C217 0.953 . S
H201 C219 0.941 . S
H202 C223 0.933 1_565 S
O203 P192 1.490 . S
H204 C220 0.939 . S
H205 C222 0.940 . S
C206 P192 1.812 1_556 S
C206 C207 1.389 . S
C206 C211 1.385 1_545 S
C207 H193 0.941 . S
C207 C206 1.389 . S
C207 C208 1.397 . S
C208 H194 0.939 . S
C208 C207 1.397 . S
C208 C209 1.378 . S
C209 C208 1.378 . S
C209 C210 1.378 1_545 S
C210 H195 0.940 . S
C210 C209 1.378 1_565 S
C210 C211 1.399 . S
C211 H196 0.944 1_556 S
C211 C206 1.385 1_565 S
C211 C210 1.399 . S
C212 P192 1.803 . S
C212 C213 1.378 . S
C212 C217 1.379 1_545 S
C213 H197 0.939 . S
C213 C212 1.378 . S
C213 C214 1.361 . S
C214 H198 0.942 . S
C214 C213 1.361 . S
C214 C215 1.369 . S
C215 C214 1.369 . S
C215 C216 1.404 1_545 S
C216 H199 0.940 . S
C216 C215 1.404 1_565 S
C216 C217 1.398 . S
C217 H200 0.953 . S
C217 C212 1.379 1_565 S
C217 C216 1.398 . S
C218 P192 1.819 . S
C218 C219 1.391 . S
C218 C223 1.391 . S
C219 H201 0.941 . S
C219 C218 1.391 . S
C219 C220 1.396 . S
C220 H204 0.939 . S
C220 C219 1.396 . S
C220 C221 1.397 . S
C221 C220 1.397 . S
C221 C222 1.385 1_545 S
C222 H205 0.940 . S
C222 C221 1.385 1_565 S
C222 C223 1.388 1_565 S
C223 H202 0.933 1_545 S
C223 C218 1.391 . S
C223 C222 1.388 1_545 S
P224 O235 1.490 . S
P224 C238 1.812 1_554 S
P224 C244 1.803 . S
P224 C250 1.819 . S
H225 C239 0.941 . S
H226 C240 0.939 . S
H227 C242 0.940 . S
H228 C243 0.940 1_554 S
H229 C245 0.939 . S
H230 C246 0.942 . S
H231 C248 0.940 . S
H232 C249 0.939 . S
H233 C251 0.941 . S
H234 C255 0.939 . S
O235 P224 1.490 . S
H236 C252 0.939 . S
H237 C254 0.940 . S
C238 P224 1.812 1_556 S
C238 C239 1.389 . S
C238 C243 1.391 . S
C239 H225 0.941 . S
C239 C238 1.389 . S
C239 C240 1.397 . S
C240 H226 0.939 . S
C240 C239 1.397 . S
C240 C241 1.378 . S
C241 C240 1.378 . S
C241 C242 1.378 . S
C242 H227 0.940 . S
C242 C241 1.378 . S
C242 C243 1.396 . S
C243 H228 0.940 1_556 S
C243 C238 1.391 . S
C243 C242 1.396 . S
C244 P224 1.803 . S
C244 C245 1.378 . S
C244 C249 1.400 . S
C245 H229 0.939 . S
C245 C244 1.378 . S
C245 C246 1.361 . S
C246 H230 0.942 . S
C246 C245 1.361 . S
C246 C247 1.369 . S
C247 C246 1.369 . S
C247 C248 1.404 . S
C248 H231 0.940 . S
C248 C247 1.404 . S
C248 C249 1.389 . S
C249 H232 0.939 . S
C249 C244 1.400 . S
C249 C248 1.389 . S
C250 P224 1.819 . S
C250 C251 1.391 . S
C250 C255 1.391 . S
C251 H233 0.941 . S
C251 C250 1.391 . S
C251 C252 1.396 . S
C252 H236 0.939 . S
C252 C251 1.396 . S
C252 C253 1.397 . S
C253 C252 1.397 . S
C253 C254 1.385 . S
C254 H237 0.940 . S
C254 C253 1.385 . S
C254 C255 1.388 . S
C255 H234 0.939 . S
C255 C250 1.391 . S
C255 C254 1.388 . S
C256 Eu257 2.835 . S
C256 C258 1.500 . S
C256 O276 1.257 . S
C256 O277 1.260 . S
Eu257 C256 2.835 . S
Eu257 O276 2.473 . S
Eu257 O277 2.480 . S
Eu257 O278 2.430 . S
Eu257 O279 2.670 1_545 S
Eu257 O280 2.394 . S
Eu257 O285 2.355 1_655 S
Eu257 O287 2.374 1_545 S
C258 C256 1.500 . S
C258 C259 1.377 . S
C258 C263 1.377 . S
C259 C258 1.377 . S
C259 C260 1.395 . S
C259 H288 0.931 . S
C260 C259 1.395 . S
C260 C261 1.383 . S
C260 H289 0.931 . S
C261 C260 1.383 . S
C261 C262 1.394 . S
C262 C261 1.394 . S
C262 C263 1.378 . S
C262 H290 0.931 1_655 S
C263 C258 1.377 . S
C263 C262 1.378 . S
C263 H291 0.931 1_655 S
C264 O278 1.259 . S
C264 O279 1.270 1_545 S
C265 O280 1.251 1_455 S
C265 O281 1.251 . S
C266 Eu267 2.835 . S
C266 C268 1.500 . S
C266 O282 1.257 . S
C266 O283 1.260 . S
Eu267 C266 2.835 . S
Eu267 O279 2.355 1_455 S
Eu267 O281 2.374 1_565 S
Eu267 O282 2.473 . S
Eu267 O283 2.480 . S
Eu267 O284 2.430 . S
Eu267 O285 2.670 1_565 S
Eu267 O286 2.394 . S
C268 C266 1.500 . S
C268 C269 1.377 . S
C268 C273 1.377 . S
C269 C268 1.377 . S
C269 C270 1.395 . S
C269 H292 0.931 . S
C270 C269 1.395 . S
C270 C271 1.383 . S
C270 H293 0.931 . S
C271 C270 1.383 . S
C271 C272 1.394 . S
C272 C271 1.394 . S
C272 C273 1.378 . S
C272 H294 0.931 1_455 S
C273 C268 1.377 . S
C273 C272 1.378 . S
C273 H295 0.931 1_455 S
C274 O284 1.282 . S
C274 O285 1.254 1_565 S
C275 O286 1.251 1_655 S
C275 O287 1.251 . S
O276 C256 1.257 . S
O276 Eu257 2.473 . S
O277 C256 1.260 . S
O277 Eu257 2.480 . S
O278 Eu257 2.430 . S
O278 C264 1.259 . S
O279 Eu257 2.670 1_565 S
O279 C264 1.270 1_565 S
O279 Eu267 2.355 1_655 S
O280 Eu257 2.394 . S
O280 C265 1.251 1_655 S
O281 C265 1.251 . S
O281 Eu267 2.374 1_545 S
O282 C266 1.257 . S
O282 Eu267 2.473 . S
O283 C266 1.260 . S
O283 Eu267 2.480 . S
O284 Eu267 2.430 . S
O284 C274 1.282 . S
O285 Eu257 2.355 1_455 S
O285 Eu267 2.670 1_545 S
O285 C274 1.254 1_545 S
O286 Eu267 2.394 . S
O286 C275 1.251 1_455 S
O287 Eu257 2.374 1_565 S
O287 C275 1.251 . S
H288 C259 0.931 . S
H289 C260 0.931 . S
H290 C262 0.931 1_455 S
H291 C263 0.931 1_455 S
H292 C269 0.931 . S
H293 C270 0.931 . S
H294 C272 0.931 1_655 S
H295 C273 0.931 1_655 S
C296 Eu297 2.835 . S
C296 C298 1.500 . S
C296 O316 1.257 . S
C296 O317 1.260 . S
Eu297 C296 2.835 . S
Eu297 O316 2.473 . S
Eu297 O317 2.480 . S
Eu297 O318 2.430 . S
Eu297 O319 2.670 . S
Eu297 O320 2.394 . S
Eu297 O325 2.355 1_565 S
Eu297 O327 2.374 . S
C298 C296 1.500 . S
C298 C299 1.377 . S
C298 C303 1.377 . S
C299 C298 1.377 . S
C299 C300 1.395 . S
C299 H328 0.931 . S
C300 C299 1.395 . S
C300 C301 1.383 . S
C300 H329 0.931 . S
C301 C300 1.383 . S
C301 C302 1.394 . S
C302 C301 1.394 . S
C302 C303 1.378 . S
C302 H330 0.931 1_565 S
C303 C298 1.377 . S
C303 C302 1.378 . S
C303 H331 0.931 1_565 S
C304 O318 1.259 . S
C304 O319 1.270 . S
C305 O320 1.251 1_545 S
C305 O321 1.251 . S
C306 Eu307 2.835 . S
C306 C308 1.500 . S
C306 O322 1.257 . S
C306 O323 1.260 . S
Eu307 C306 2.835 . S
Eu307 O319 2.355 1_545 S
Eu307 O321 2.374 . S
Eu307 O322 2.473 . S
Eu307 O323 2.480 . S
Eu307 O324 2.430 . S
Eu307 O325 2.670 . S
Eu307 O326 2.394 . S
C308 C306 1.500 . S
C308 C309 1.377 . S
C308 C313 1.377 . S
C309 C308 1.377 . S
C309 C310 1.395 . S
C309 H332 0.931 . S
C310 C309 1.395 . S
C310 C311 1.383 . S
C310 H333 0.931 . S
C311 C310 1.383 . S
C311 C312 1.394 . S
C312 C311 1.394 . S
C312 C313 1.378 . S
C312 H334 0.931 1_545 S
C313 C308 1.377 . S
C313 C312 1.378 . S
C313 H335 0.931 1_545 S
C314 O324 1.259 . S
C314 O325 1.270 . S
C315 O326 1.251 1_565 S
C315 O327 1.251 . S
O316 C296 1.257 . S
O316 Eu297 2.473 . S
O317 C296 1.260 . S
O317 Eu297 2.480 . S
O318 Eu297 2.430 . S
O318 C304 1.259 . S
O319 Eu297 2.670 . S
O319 C304 1.270 . S
O319 Eu307 2.355 1_565 S
O320 Eu297 2.394 . S
O320 C305 1.251 1_565 S
O321 C305 1.251 . S
O321 Eu307 2.374 . S
O322 C306 1.257 . S
O322 Eu307 2.473 . S
O323 C306 1.260 . S
O323 Eu307 2.480 . S
O324 Eu307 2.430 . S
O324 C314 1.259 . S
O325 Eu297 2.355 1_545 S
O325 Eu307 2.670 . S
O325 C314 1.270 . S
O326 Eu307 2.394 . S
O326 C315 1.251 1_545 S
O327 Eu297 2.374 . S
O327 C315 1.251 . S
H328 C299 0.931 . S
H329 C300 0.931 . S
H330 C302 0.931 1_545 S
H331 C303 0.931 1_545 S
H332 C309 0.931 . S
H333 C310 0.931 . S
H334 C312 0.931 1_565 S
H335 C313 0.931 1_565 S
C336 Eu337 2.835 . S
C336 C338 1.500 . S
C336 O356 1.257 . S
C336 O357 1.260 . S
Eu337 C336 2.835 . S
Eu337 O356 2.473 . S
Eu337 O357 2.480 . S
Eu337 O358 2.430 . S
Eu337 O359 2.670 . S
Eu337 O360 2.394 . S
Eu337 O365 2.355 . S
Eu337 O367 2.374 . S
C338 C336 1.500 . S
C338 C339 1.377 . S
C338 C343 1.377 . S
C339 C338 1.377 . S
C339 C340 1.395 . S
C339 H368 0.931 . S
C340 C339 1.395 . S
C340 C341 1.383 . S
C340 H369 0.931 . S
C341 C340 1.383 . S
C341 C342 1.394 . S
C342 C341 1.394 . S
C342 C343 1.378 . S
C342 H370 0.931 . S
C343 C338 1.377 . S
C343 C342 1.378 . S
C343 H371 0.931 . S
C344 O358 1.259 . S
C344 O359 1.270 . S
C345 O360 1.251 . S
C345 O361 1.251 . S
C346 Eu347 2.835 . S
C346 C348 1.500 . S
C346 O362 1.257 . S
C346 O363 1.260 . S
Eu347 C346 2.835 . S
Eu347 O359 2.355 . S
Eu347 O361 2.374 . S
Eu347 O362 2.473 . S
Eu347 O363 2.480 . S
Eu347 O364 2.430 . S
Eu347 O365 2.670 . S
Eu347 O366 2.394 . S
C348 C346 1.500 . S
C348 C349 1.377 . S
C348 C353 1.377 . S
C349 C348 1.377 . S
C349 C350 1.395 . S
C349 H372 0.931 . S
C350 C349 1.395 . S
C350 C351 1.383 . S
C350 H373 0.931 . S
C351 C350 1.383 . S
C351 C352 1.394 . S
C352 C351 1.394 . S
C352 C353 1.378 . S
C352 H374 0.931 . S
C353 C348 1.377 . S
C353 C352 1.378 . S
C353 H375 0.931 . S
C354 O364 1.259 . S
C354 O365 1.270 . S
C355 O366 1.251 . S
C355 O367 1.251 . S
O356 C336 1.257 . S
O356 Eu337 2.473 . S
O357 C336 1.260 . S
O357 Eu337 2.480 . S
O358 Eu337 2.430 . S
O358 C344 1.259 . S
O359 Eu337 2.670 . S
O359 C344 1.270 . S
O359 Eu347 2.355 . S
O360 Eu337 2.394 . S
O360 C345 1.251 . S
O361 C345 1.251 . S
O361 Eu347 2.374 . S
O362 C346 1.257 . S
O362 Eu347 2.473 . S
O363 C346 1.260 . S
O363 Eu347 2.480 . S
O364 Eu347 2.430 . S
O364 C354 1.259 . S
O365 Eu337 2.355 . S
O365 Eu347 2.670 . S
O365 C354 1.270 . S
O366 Eu347 2.394 . S
O366 C355 1.251 . S
O367 Eu337 2.374 . S
O367 C355 1.251 . S
H368 C339 0.931 . S
H369 C340 0.931 . S
H370 C342 0.931 . S
H371 C343 0.931 . S
H372 C349 0.931 . S
H373 C350 0.931 . S
H374 C352 0.931 . S
H375 C353 0.931 . S
C376 Eu377 2.835 . S
C376 C378 1.500 . S
C376 O396 1.257 . S
C376 O397 1.260 . S
Eu377 C376 2.835 . S
Eu377 O396 2.473 . S
Eu377 O397 2.480 . S
Eu377 O398 2.430 . S
Eu377 O399 2.670 1_455 S
Eu377 O400 2.394 . S
Eu377 O405 2.355 . S
Eu377 O407 2.374 1_455 S
C378 C376 1.500 . S
C378 C379 1.377 . S
C378 C383 1.377 . S
C379 C378 1.377 . S
C379 C380 1.395 . S
C379 H408 0.931 . S
C380 C379 1.395 . S
C380 C381 1.383 . S
C380 H409 0.931 . S
C381 C380 1.383 . S
C381 C382 1.394 . S
C382 C381 1.394 . S
C382 C383 1.378 . S
C382 H410 0.931 . S
C383 C378 1.377 . S
C383 C382 1.378 . S
C383 H411 0.931 . S
C384 O398 1.266 . S
C384 O399 1.265 1_455 S
C385 O400 1.251 . S
C385 O401 1.251 . S
C386 Eu387 2.835 . S
C386 C388 1.500 . S
C386 O402 1.257 . S
C386 O403 1.260 . S
Eu387 C386 2.835 . S
Eu387 O399 2.355 . S
Eu387 O401 2.374 1_655 S
Eu387 O402 2.473 . S
Eu387 O403 2.480 . S
Eu387 O404 2.430 . S
Eu387 O405 2.670 1_655 S
Eu387 O406 2.394 . S
C388 C386 1.500 . S
C388 C389 1.377 . S
C388 C393 1.377 . S
C389 C388 1.377 . S
C389 C390 1.395 . S
C389 H412 0.931 . S
C390 C389 1.395 . S
C390 C391 1.383 . S
C390 H413 0.931 . S
C391 C390 1.383 . S
C391 C392 1.394 . S
C392 C391 1.394 . S
C392 C393 1.378 . S
C392 H414 0.931 . S
C393 C388 1.377 . S
C393 C392 1.378 . S
C393 H415 0.931 . S
C394 O404 1.261 . S
C394 O405 1.268 1_655 S
C395 O406 1.251 . S
C395 O407 1.251 . S
O396 C376 1.257 . S
O396 Eu377 2.473 . S
O397 C376 1.260 . S
O397 Eu377 2.480 . S
O398 Eu377 2.430 . S
O398 C384 1.266 . S
O399 Eu377 2.670 1_655 S
O399 C384 1.265 1_655 S
O399 Eu387 2.355 . S
O400 Eu377 2.394 . S
O400 C385 1.251 . S
O401 C385 1.251 . S
O401 Eu387 2.374 1_455 S
O402 C386 1.257 . S
O402 Eu387 2.473 . S
O403 C386 1.260 . S
O403 Eu387 2.480 . S
O404 Eu387 2.430 . S
O404 C394 1.261 . S
O405 Eu377 2.355 . S
O405 Eu387 2.670 1_455 S
O405 C394 1.268 1_455 S
O406 Eu387 2.394 . S
O406 C395 1.251 . S
O407 Eu377 2.374 1_655 S
O407 C395 1.251 . S
H408 C379 0.931 . S
H409 C380 0.931 . S
H410 C382 0.931 . S
H411 C383 0.931 . S
H412 C389 0.931 . S
H413 C390 0.931 . S
H414 C392 0.931 . S
H415 C393 0.931 . S
C416 C417 1.388 . S
C416 C418 1.394 . S
C416 H432 0.931 . S
C417 C416 1.388 . S
C417 C421 1.379 1_565 S
C418 C416 1.394 . S
C418 C419 1.395 . S
C418 C422 1.531 . S
C419 C418 1.395 . S
C419 C420 1.383 1_565 S
C419 C427 1.503 . S
C420 C419 1.383 1_545 S
C420 C421 1.392 . S
C420 C423 1.511 . S
C421 C417 1.379 1_545 S
C421 C420 1.392 . S
C421 H433 0.929 . S
C422 C418 1.531 . S
C422 H434 0.960 . S
C422 H435 0.962 . S
C422 H436 0.960 . S
C423 C420 1.511 . S
C423 H437 0.961 . S
C423 H438 0.961 . S
C423 H439 0.961 . S
C424 C425 1.371 . S
C424 C426 1.363 . S
C424 H440 0.931 . S
C425 C424 1.371 . S
C425 C429 1.406 1_545 S
C426 C424 1.363 . S
C426 C427 1.370 1_545 S
C426 C430 1.524 . S
C427 C419 1.503 . S
C427 C426 1.370 1_565 S
C427 C428 1.403 . S
C428 C427 1.403 . S
C428 C429 1.404 . S
C428 C431 1.539 . S
C429 C425 1.406 1_565 S
C429 C428 1.404 . S
C429 H441 0.930 . S
C430 C426 1.524 . S
C430 H442 0.956 1_545 S
C430 H443 0.961 . S
C430 H444 0.961 . S
C431 C428 1.539 . S
C431 H445 0.958 . S
C431 H446 0.961 1_565 S
C431 H447 0.960 1_565 S
H432 C416 0.931 . S
H433 C421 0.929 . S
H434 C422 0.960 . S
H435 C422 0.962 . S
H436 C422 0.960 . S
H437 C423 0.961 . S
H438 C423 0.961 . S
H439 C423 0.961 . S
H440 C424 0.931 . S
H441 C429 0.930 . S
H442 C430 0.956 1_565 S
H443 C430 0.961 . S
H444 C430 0.961 . S
H445 C431 0.958 . S
H446 C431 0.961 1_545 S
H447 C431 0.960 1_545 S
C448 C449 1.391 . S
C448 C450 1.394 . S
C448 H464 0.931 . S
C449 C448 1.391 . S
C449 C453 1.376 . S
C450 C448 1.394 . S
C450 C451 1.369 . S
C450 C454 1.531 . S
C451 C450 1.369 . S
C451 C452 1.410 . S
C451 C459 1.503 . S
C452 C451 1.410 . S
C452 C453 1.392 . S
C452 C455 1.511 . S
C453 C449 1.376 . S
C453 C452 1.392 . S
C453 H465 0.929 . S
C454 C450 1.531 . S
C454 H466 0.960 . S
C454 H467 0.962 . S
C454 H468 0.960 . S
C455 C452 1.511 . S
C455 H469 0.961 . S
C455 H470 0.961 . S
C455 H471 0.961 . S
C456 C457 1.370 . S
C456 C458 1.363 . S
C456 H472 0.931 . S
C457 C456 1.370 . S
C457 C461 1.408 . S
C458 C456 1.363 . S
C458 C459 1.370 . S
C458 C462 1.524 . S
C459 C451 1.503 . S
C459 C458 1.370 . S
C459 C460 1.403 . S
C460 C459 1.403 . S
C460 C461 1.404 . S
C460 C463 1.539 . S
C461 C457 1.408 . S
C461 C460 1.404 . S
C461 H473 0.930 . S
C462 C458 1.524 . S
C462 H474 0.956 . S
C462 H475 0.961 . S
C462 H476 0.961 . S
C463 C460 1.539 . S
C463 H477 0.958 . S
C463 H478 0.961 . S
C463 H479 0.960 . S
H464 C448 0.931 . S
H465 C453 0.929 . S
H466 C454 0.960 . S
H467 C454 0.962 . S
H468 C454 0.960 . S
H469 C455 0.961 . S
H470 C455 0.961 . S
H471 C455 0.961 . S
H472 C456 0.931 . S
H473 C461 0.930 . S
H474 C462 0.956 . S
H475 C462 0.961 . S
H476 C462 0.961 . S
H477 C463 0.958 . S
H478 C463 0.961 . S
H479 C463 0.960 . S
C480 C481 1.391 . S
C480 C482 1.394 . S
C480 H496 0.931 . S
C481 C480 1.391 . S
C481 C485 1.376 . S
C482 C480 1.394 . S
C482 C483 1.369 . S
C482 C486 1.531 . S
C483 C482 1.369 . S
C483 C484 1.410 . S
C483 C491 1.503 . S
C484 C483 1.410 . S
C484 C485 1.392 . S
C484 C487 1.511 . S
C485 C481 1.376 . S
C485 C484 1.392 . S
C485 H497 0.929 . S
C486 C482 1.531 . S
C486 H498 0.960 . S
C486 H499 0.962 . S
C486 H500 0.960 . S
C487 C484 1.511 . S
C487 H501 0.961 . S
C487 H502 0.961 . S
C487 H503 0.961 . S
C488 C489 1.370 . S
C488 C490 1.363 . S
C488 H504 0.931 . S
C489 C488 1.370 . S
C489 C493 1.408 . S
C490 C488 1.363 . S
C490 C491 1.370 . S
C490 C494 1.524 . S
C491 C483 1.503 . S
C491 C490 1.370 . S
C491 C492 1.403 . S
C492 C491 1.403 . S
C492 C493 1.404 . S
C492 C495 1.539 . S
C493 C489 1.408 . S
C493 C492 1.404 . S
C493 H505 0.930 . S
C494 C490 1.524 . S
C494 H506 0.956 . S
C494 H507 0.961 . S
C494 H508 0.961 . S
C495 C492 1.539 . S
C495 H509 0.958 . S
C495 H510 0.961 . S
C495 H511 0.960 . S
H496 C480 0.931 . S
H497 C485 0.929 . S
H498 C486 0.960 . S
H499 C486 0.962 . S
H500 C486 0.960 . S
H501 C487 0.961 . S
H502 C487 0.961 . S
H503 C487 0.961 . S
H504 C488 0.931 . S
H505 C493 0.930 . S
H506 C494 0.956 . S
H507 C494 0.961 . S
H508 C494 0.961 . S
H509 C495 0.958 . S
H510 C495 0.961 . S
H511 C495 0.960 . S
C512 C513 1.362 1_455 S
C512 C514 1.394 . S
C512 H528 0.931 . S
C513 C512 1.362 1_655 S
C513 C517 1.407 . S
C514 C512 1.394 . S
C514 C515 1.369 1_455 S
C514 C518 1.531 . S
C515 C514 1.369 1_655 S
C515 C516 1.410 . S
C515 C523 1.503 . S
C516 C515 1.410 . S
C516 C517 1.392 . S
C516 C519 1.511 . S
C517 C513 1.407 . S
C517 C516 1.392 . S
C517 H529 0.929 . S
C518 C514 1.531 . S
C518 H530 0.960 . S
C518 H531 0.962 . S
C518 H532 0.960 . S
C519 C516 1.511 . S
C519 H533 0.961 . S
C519 H534 0.961 . S
C519 H535 0.961 . S
C520 C521 1.381 . S
C520 C522 1.363 . S
C520 H536 0.931 . S
C521 C520 1.381 . S
C521 C525 1.398 1_455 S
C522 C520 1.363 . S
C522 C523 1.370 1_455 S
C522 C526 1.524 . S
C523 C515 1.503 . S
C523 C522 1.370 1_655 S
C523 C524 1.403 . S
C524 C523 1.403 . S
C524 C525 1.404 . S
C524 C527 1.539 . S
C525 C521 1.398 1_655 S
C525 C524 1.404 . S
C525 H537 0.930 . S
C526 C522 1.524 . S
C526 H538 0.956 . S
C526 H539 0.961 . S
C526 H540 0.961 . S
C527 C524 1.539 . S
C527 H541 0.958 . S
C527 H542 0.961 . S
C527 H543 0.960 . S
H528 C512 0.931 . S
H529 C517 0.929 . S
H530 C518 0.960 . S
H531 C518 0.962 . S
H532 C518 0.960 . S
H533 C519 0.961 . S
H534 C519 0.961 . S
H535 C519 0.961 . S
H536 C520 0.931 . S
H537 C525 0.930 . S
H538 C526 0.956 . S
H539 C526 0.961 . S
H540 C526 0.961 . S
H541 C527 0.958 . S
H542 C527 0.961 . S
H543 C527 0.960 . S
C544 C545 1.391 . S
C544 C546 1.394 . S
C544 H560 0.931 . S
C545 C544 1.391 . S
C545 C549 1.376 . S
C546 C544 1.394 . S
C546 C547 1.369 . S
C546 C550 1.531 . S
C547 C546 1.369 . S
C547 C548 1.410 . S
C547 C555 1.503 . S
C548 C547 1.410 . S
C548 C549 1.392 . S
C548 C551 1.511 . S
C549 C545 1.376 . S
C549 C548 1.392 . S
C549 H561 0.929 . S
C550 C546 1.531 . S
C550 H562 0.960 1_554 S
C550 H563 0.962 1_545 S
C550 H564 0.960 . S
C551 C548 1.511 . S
C551 H565 0.970 . S
C551 H566 0.964 . S
C551 H567 0.961 . S
C552 C553 1.345 1_565 S
C552 C554 1.363 . S
C552 H568 0.931 . S
C553 C552 1.345 1_545 S
C553 C557 1.437 . S
C554 C552 1.363 . S
C554 C555 1.370 1_566 S
C554 C558 1.524 1_556 S
C555 C547 1.503 . S
C555 C554 1.370 1_544 S
C555 C556 1.403 1_554 S
C556 C555 1.403 1_556 S
C556 C557 1.404 . S
C556 C559 1.539 1_556 S
C557 C553 1.437 . S
C557 C556 1.404 . S
C557 H569 0.930 . S
C558 C554 1.524 1_554 S
C558 H570 0.956 . S
C558 H571 0.961 . S
C558 H572 0.966 . S
C559 C556 1.539 1_554 S
C559 H573 0.958 1_554 S
C559 H574 0.961 1_554 S
C559 H575 0.960 . S
H560 C544 0.931 . S
H561 C549 0.929 . S
H562 C550 0.960 1_556 S
H563 C550 0.962 1_565 S
H564 C550 0.960 . S
H565 C551 0.970 . S
H566 C551 0.964 . S
H567 C551 0.961 . S
H568 C552 0.931 . S
H569 C557 0.930 . S
H570 C558 0.956 . S
H571 C558 0.961 . S
H572 C558 0.966 . S
H573 C559 0.958 1_556 S
H574 C559 0.961 1_556 S
H575 C559 0.960 . S
C576 C577 1.391 . S
C576 C578 1.394 . S
C576 H592 0.931 . S
C577 C576 1.391 . S
C577 C581 1.376 . S
C578 C576 1.394 . S
C578 C579 1.369 . S
C578 C582 1.531 . S
C579 C578 1.369 . S
C579 C580 1.410 . S
C579 C587 1.503 . S
C580 C579 1.410 . S
C580 C581 1.392 . S
C580 C583 1.511 . S
C581 C577 1.376 . S
C581 C580 1.392 . S
C581 H593 0.929 . S
C582 C578 1.531 . S
C582 H594 0.960 1_554 S
C582 H595 0.962 . S
C582 H596 0.960 . S
C583 C580 1.511 . S
C583 H597 0.961 . S
C583 H598 0.961 . S
C583 H599 0.961 . S
C584 C585 1.370 . S
C584 C586 1.363 1_556 S
C584 H600 0.931 . S
C585 C584 1.370 . S
C585 C589 1.408 . S
C586 C584 1.363 1_554 S
C586 C587 1.370 . S
C586 C590 1.524 . S
C587 C579 1.503 . S
C587 C586 1.370 . S
C587 C588 1.403 1_554 S
C588 C587 1.403 1_556 S
C588 C589 1.404 . S
C588 C591 1.539 . S
C589 C585 1.408 . S
C589 C588 1.404 . S
C589 H601 0.930 . S
C590 C586 1.524 . S
C590 H602 0.956 . S
C590 H603 0.961 . S
C590 H604 0.961 . S
C591 C588 1.539 . S
C591 H605 0.958 . S
C591 H606 0.961 . S
C591 H607 0.960 1_556 S
H592 C576 0.931 . S
H593 C581 0.929 . S
H594 C582 0.960 1_556 S
H595 C582 0.962 . S
H596 C582 0.960 . S
H597 C583 0.961 . S
H598 C583 0.961 . S
H599 C583 0.961 . S
H600 C584 0.931 . S
H601 C589 0.930 . S
H602 C590 0.956 . S
H603 C590 0.961 . S
H604 C590 0.961 . S
H605 C591 0.958 . S
H606 C591 0.961 . S
H607 C591 0.960 1_554 S
C608 C609 1.391 . S
C608 C610 1.394 . S
C608 H624 0.931 . S
C609 C608 1.391 . S
C609 C613 1.376 . S
C610 C608 1.394 . S
C610 C611 1.369 . S
C610 C614 1.531 . S
C611 C610 1.369 . S
C611 C612 1.410 . S
C611 C619 1.503 . S
C612 C611 1.410 . S
C612 C613 1.392 . S
C612 C615 1.511 . S
C613 C609 1.376 . S
C613 C612 1.392 . S
C613 H625 0.929 . S
C614 C610 1.531 . S
C614 H626 0.960 . S
C614 H627 0.962 . S
C614 H628 0.960 . S
C615 C612 1.511 . S
C615 H629 0.961 . S
C615 H630 0.961 . S
C615 H631 0.961 . S
C616 C617 1.370 . S
C616 C618 1.363 . S
C616 H632 0.931 . S
C617 C616 1.370 . S
C617 C621 1.408 . S
C618 C616 1.363 . S
C618 C619 1.370 1_556 S
C618 C622 1.524 . S
C619 C611 1.503 . S
C619 C618 1.370 1_554 S
C619 C620 1.403 . S
C620 C619 1.403 . S
C620 C621 1.404 1_554 S
C620 C623 1.539 . S
C621 C617 1.408 . S
C621 C620 1.404 1_556 S
C621 H633 0.930 . S
C622 C618 1.524 . S
C622 H634 0.956 . S
C622 H635 0.961 . S
C622 H636 0.961 . S
C623 C620 1.539 . S
C623 H637 0.958 . S
C623 H638 0.961 . S
C623 H639 0.960 . S
H624 C608 0.931 . S
H625 C613 0.929 . S
H626 C614 0.960 . S
H627 C614 0.962 . S
H628 C614 0.960 . S
H629 C615 0.961 . S
H630 C615 0.961 . S
H631 C615 0.961 . S
H632 C616 0.931 . S
H633 C621 0.930 . S
H634 C622 0.956 . S
H635 C622 0.961 . S
H636 C622 0.961 . S
H637 C623 0.958 . S
H638 C623 0.961 . S
H639 C623 0.960 . S
C640 C641 1.391 . S
C640 C642 1.394 . S
C640 H656 0.932 . S
C641 C640 1.391 . S
C641 C645 1.376 . S
C642 C640 1.394 . S
C642 C643 1.369 . S
C642 C646 1.531 . S
C643 C642 1.369 . S
C643 C644 1.410 . S
C643 C651 1.503 . S
C644 C643 1.410 . S
C644 C645 1.392 . S
C644 C647 1.511 . S
C645 C641 1.376 . S
C645 C644 1.392 . S
C645 H657 0.929 . S
C646 C642 1.531 . S
C646 H658 0.960 . S
C646 H659 0.962 1_655 S
C646 H660 0.960 . S
C647 C644 1.511 . S
C647 H661 0.961 . S
C647 H662 0.961 1_554 S
C647 H663 0.961 . S
C648 C649 1.370 1_455 S
C648 C650 1.363 . S
C648 H664 0.931 . S
C649 C648 1.370 1_655 S
C649 C653 1.408 . S
C650 C648 1.363 . S
C650 C651 1.370 1_456 S
C650 C654 1.524 1_556 S
C651 C643 1.503 . S
C651 C650 1.370 1_654 S
C651 C652 1.403 1_554 S
C652 C651 1.403 1_556 S
C652 C653 1.404 . S
C652 C655 1.539 1_556 S
C653 C649 1.408 . S
C653 C652 1.404 . S
C653 H665 0.930 . S
C654 C650 1.524 1_554 S
C654 H666 0.956 . S
C654 H667 0.961 . S
C654 H668 0.961 1_554 S
C655 C652 1.539 1_554 S
C655 H669 0.958 . S
C655 H670 0.961 1_554 S
C655 H671 0.960 . S
H656 C640 0.932 . S
H657 C645 0.929 . S
H658 C646 0.960 . S
H659 C646 0.962 1_455 S
H660 C646 0.960 . S
H661 C647 0.961 . S
H662 C647 0.961 1_556 S
H663 C647 0.961 . S
H664 C648 0.931 . S
H665 C653 0.930 . S
H666 C654 0.956 . S
H667 C654 0.961 . S
H668 C654 0.961 1_556 S
H669 C655 0.958 . S
H670 C655 0.961 1_556 S
H671 C655 0.960 . S
C672 C673 1.391 . S
C672 C674 1.394 . S
C672 H688 0.931 . S
C673 C672 1.391 . S
C673 C677 1.376 1_455 S
C674 C672 1.394 . S
C674 C675 1.369 1_455 S
C674 C678 1.531 . S
C675 C674 1.369 1_655 S
C675 C676 1.410 . S
C675 C683 1.503 . S
C676 C675 1.410 . S
C676 C677 1.392 . S
C676 C679 1.511 . S
C677 C673 1.376 1_655 S
C677 C676 1.392 . S
C677 H689 0.929 . S
C678 C674 1.531 . S
C678 H690 0.960 . S
C678 H691 0.962 . S
C678 H692 0.960 . S
C679 C676 1.511 . S
C679 H693 0.961 . S
C679 H694 0.961 . S
C679 H695 0.961 . S
C680 C681 1.370 . S
C680 C682 1.363 . S
C680 H696 0.931 . S
C681 C680 1.370 . S
C681 C685 1.408 . S
C682 C680 1.363 . S
C682 C683 1.370 . S
C682 C686 1.524 . S
C683 C675 1.503 . S
C683 C682 1.370 . S
C683 C684 1.403 . S
C684 C683 1.403 . S
C684 C685 1.404 . S
C684 C687 1.539 . S
C685 C681 1.408 . S
C685 C684 1.404 . S
C685 H697 0.930 . S
C686 C682 1.524 . S
C686 H698 0.956 1_655 S
C686 H699 0.961 . S
C686 H700 0.961 . S
C687 C684 1.539 . S
C687 H701 0.958 . S
C687 H702 0.961 . S
C687 H703 0.960 . S
H688 C672 0.931 . S
H689 C677 0.929 . S
H690 C678 0.960 . S
H691 C678 0.962 . S
H692 C678 0.960 . S
H693 C679 0.961 . S
H694 C679 0.961 . S
H695 C679 0.961 . S
H696 C680 0.931 . S
H697 C685 0.930 . S
H698 C686 0.956 1_455 S
H699 C686 0.961 . S
H700 C686 0.961 . S
H701 C687 0.958 . S
H702 C687 0.961 . S
H703 C687 0.960 . S
C704 C705 1.391 . S
C704 C706 1.394 . S
C704 H720 0.931 . S
C705 C704 1.391 . S
C705 C709 1.376 1_545 S
C706 C704 1.394 . S
C706 C707 1.369 1_545 S
C706 C710 1.531 . S
C707 C706 1.369 1_565 S
C707 C708 1.410 . S
C707 C715 1.503 . S
C708 C707 1.410 . S
C708 C709 1.392 . S
C708 C711 1.511 . S
C709 C705 1.376 1_565 S
C709 C708 1.392 . S
C709 H721 0.929 . S
C710 C706 1.531 . S
C710 H722 0.960 . S
C710 H723 0.962 . S
C710 H724 0.960 . S
C711 C708 1.511 . S
C711 H725 0.961 . S
C711 H726 0.961 . S
C711 H727 0.961 . S
C712 C713 1.370 . S
C712 C714 1.363 . S
C712 H728 0.931 . S
C713 C712 1.370 . S
C713 C717 1.408 . S
C714 C712 1.363 . S
C714 C715 1.370 . S
C714 C718 1.524 . S
C715 C707 1.503 . S
C715 C714 1.370 . S
C715 C716 1.403 . S
C716 C715 1.403 . S
C716 C717 1.404 . S
C716 C719 1.539 . S
C717 C713 1.408 . S
C717 C716 1.404 . S
C717 H729 0.930 . S
C718 C714 1.524 . S
C718 H730 0.956 . S
C718 H731 0.961 . S
C718 H732 0.961 . S
C719 C716 1.539 . S
C719 H733 0.958 1_565 S
C719 H734 0.961 . S
C719 H735 0.960 . S
H720 C704 0.931 . S
H721 C709 0.929 . S
H722 C710 0.960 . S
H723 C710 0.962 . S
H724 C710 0.960 . S
H725 C711 0.961 . S
H726 C711 0.961 . S
H727 C711 0.961 . S
H728 C712 0.931 . S
H729 C717 0.930 . S
H730 C718 0.956 . S
H731 C718 0.961 . S
H732 C718 0.961 . S
H733 C719 0.958 1_545 S
H734 C719 0.961 . S
H735 C719 0.960 . S
C736 C737 1.391 . S
C736 C738 1.394 . S
C736 H752 0.931 . S
C737 C736 1.391 . S
C737 C741 1.376 . S
C738 C736 1.394 . S
C738 C739 1.369 . S
C738 C742 1.531 . S
C739 C738 1.369 . S
C739 C740 1.410 . S
C739 C747 1.503 . S
C740 C739 1.410 . S
C740 C741 1.392 . S
C740 C743 1.511 . S
C741 C737 1.376 . S
C741 C740 1.392 . S
C741 H753 0.929 . S
C742 C738 1.531 . S
C742 H754 0.960 . S
C742 H755 0.962 . S
C742 H756 0.960 . S
C743 C740 1.511 . S
C743 H757 0.961 . S
C743 H758 0.961 . S
C743 H759 0.961 . S
C744 C745 1.370 . S
C744 C746 1.363 . S
C744 H760 0.931 . S
C745 C744 1.370 . S
C745 C749 1.408 . S
C746 C744 1.363 . S
C746 C747 1.370 . S
C746 C750 1.524 . S
C747 C739 1.503 . S
C747 C746 1.370 . S
C747 C748 1.403 . S
C748 C747 1.403 . S
C748 C749 1.404 . S
C748 C751 1.539 . S
C749 C745 1.408 . S
C749 C748 1.404 . S
C749 H761 0.930 . S
C750 C746 1.524 . S
C750 H762 0.956 . S
C750 H763 0.961 . S
C750 H764 0.961 . S
C751 C748 1.539 . S
C751 H765 0.958 . S
C751 H766 0.961 . S
C751 H767 0.960 . S
H752 C736 0.931 . S
H753 C741 0.929 . S
H754 C742 0.960 . S
H755 C742 0.962 . S
H756 C742 0.960 . S
H757 C743 0.961 . S
H758 C743 0.961 . S
H759 C743 0.961 . S
H760 C744 0.931 . S
H761 C749 0.930 . S
H762 C750 0.956 . S
H763 C750 0.961 . S
H764 C750 0.961 . S
H765 C751 0.958 . S
H766 C751 0.961 . S
H767 C751 0.960 . S
C768 C769 1.391 . S
C768 C770 1.394 . S
C768 H784 0.931 . S
C769 C768 1.391 . S
C769 C773 1.376 . S
C770 C768 1.394 . S
C770 C771 1.369 . S
C770 C774 1.531 . S
C771 C770 1.369 . S
C771 C772 1.410 . S
C771 C779 1.503 . S
C772 C771 1.410 . S
C772 C773 1.392 . S
C772 C775 1.511 . S
C773 C769 1.376 . S
C773 C772 1.392 . S
C773 H785 0.929 . S
C774 C770 1.531 . S
C774 H786 0.960 . S
C774 H787 0.962 . S
C774 H788 0.960 . S
C775 C772 1.511 . S
C775 H789 0.961 . S
C775 H790 0.961 . S
C775 H791 0.961 . S
C776 C777 1.370 . S
C776 C778 1.363 . S
C776 H792 0.931 . S
C777 C776 1.370 . S
C777 C781 1.408 . S
C778 C776 1.363 . S
C778 C779 1.370 . S
C778 C782 1.524 . S
C779 C771 1.503 . S
C779 C778 1.370 . S
C779 C780 1.403 . S
C780 C779 1.403 . S
C780 C781 1.404 . S
C780 C783 1.539 . S
C781 C777 1.408 . S
C781 C780 1.404 . S
C781 H793 0.930 . S
C782 C778 1.524 . S
C782 H794 0.956 . S
C782 H795 0.961 . S
C782 H796 0.961 . S
C783 C780 1.539 . S
C783 H797 0.958 . S
C783 H798 0.961 . S
C783 H799 0.960 . S
H784 C768 0.931 . S
H785 C773 0.929 . S
H786 C774 0.960 . S
H787 C774 0.962 . S
H788 C774 0.960 . S
H789 C775 0.961 . S
H790 C775 0.961 . S
H791 C775 0.961 . S
H792 C776 0.931 . S
H793 C781 0.930 . S
H794 C782 0.956 . S
H795 C782 0.961 . S
H796 C782 0.961 . S
H797 C783 0.958 . S
H798 C783 0.961 . S
H799 C783 0.960 . S
C800 C801 1.391 1_455 S
C800 C802 1.394 . S
C800 H816 0.931 . S
C801 C800 1.391 1_655 S
C801 C805 1.376 . S
C802 C800 1.394 . S
C802 C803 1.369 . S
C802 C806 1.531 . S
C803 C802 1.369 . S
C803 C804 1.410 1_455 S
C803 C811 1.503 . S
C804 C803 1.410 1_655 S
C804 C805 1.392 . S
C804 C807 1.511 . S
C805 C801 1.376 . S
C805 C804 1.392 . S
C805 H817 0.929 . S
C806 C802 1.531 . S
C806 H818 0.960 . S
C806 H819 0.962 . S
C806 H820 0.960 . S
C807 C804 1.511 . S
C807 H821 0.961 . S
C807 H822 0.961 . S
C807 H823 0.961 1_554 S
C808 C809 1.370 1_554 S
C808 C810 1.363 . S
C808 H824 0.931 . S
C809 C808 1.370 1_556 S
C809 C813 1.408 . S
C810 C808 1.363 . S
C810 C811 1.370 . S
C810 C814 1.524 . S
C811 C803 1.503 . S
C811 C810 1.370 . S
C811 C812 1.403 1_554 S
C812 C811 1.403 1_556 S
C812 C813 1.404 . S
C812 C815 1.539 . S
C813 C809 1.408 . S
C813 C812 1.404 . S
C813 H825 0.930 . S
C814 C810 1.524 . S
C814 H826 0.956 . S
C814 H827 0.921 1_455 S
C814 H828 0.961 . S
C815 C812 1.539 . S
C815 H829 0.958 . S
C815 H830 0.961 . S
C815 H831 0.960 . S
H816 C800 0.931 . S
H817 C805 0.929 . S
H818 C806 0.960 . S
H819 C806 0.962 . S
H820 C806 0.960 . S
H821 C807 0.961 . S
H822 C807 0.961 . S
H823 C807 0.961 1_556 S
H824 C808 0.931 . S
H825 C813 0.930 . S
H826 C814 0.956 . S
H827 C814 0.921 1_655 S
H828 C814 0.961 . S
H829 C815 0.958 . S
H830 C815 0.961 . S
H831 C815 0.960 . S
C832 C833 1.391 . S
C832 C834 1.394 . S
C832 H848 0.931 . S
C833 C832 1.391 . S
C833 C837 1.376 1_565 S
C834 C832 1.394 . S
C834 C835 1.369 1_565 S
C834 C838 1.531 . S
C835 C834 1.369 1_545 S
C835 C836 1.410 . S
C835 C843 1.503 . S
C836 C835 1.410 . S
C836 C837 1.392 . S
C836 C839 1.511 . S
C837 C833 1.376 1_545 S
C837 C836 1.392 . S
C837 H849 0.929 . S
C838 C834 1.531 . S
C838 H850 0.960 . S
C838 H851 0.962 1_554 S
C838 H852 0.960 . S
C839 C836 1.511 . S
C839 H853 0.961 . S
C839 H854 0.961 . S
C839 H855 0.961 . S
C840 C841 1.370 . S
C840 C842 1.363 1_556 S
C840 H856 0.931 . S
C841 C840 1.370 . S
C841 C845 1.408 1_556 S
C842 C840 1.363 1_554 S
C842 C843 1.370 . S
C842 C846 1.524 1_554 S
C843 C835 1.503 . S
C843 C842 1.370 . S
C843 C844 1.403 . S
C844 C843 1.403 . S
C844 C845 1.404 . S
C844 C847 1.539 1_545 S
C845 C841 1.408 1_554 S
C845 C844 1.404 . S
C845 H857 0.930 . S
C846 C842 1.524 1_556 S
C846 H858 0.956 . S
C846 H859 0.961 1_556 S
C846 H860 0.961 . S
C847 C844 1.539 1_565 S
C847 H861 0.958 . S
C847 H862 0.956 1_565 S
C847 H863 0.960 . S
H848 C832 0.931 . S
H849 C837 0.929 . S
H850 C838 0.960 . S
H851 C838 0.962 1_556 S
H852 C838 0.960 . S
H853 C839 0.961 . S
H854 C839 0.961 . S
H855 C839 0.961 . S
H856 C840 0.931 . S
H857 C845 0.930 . S
H858 C846 0.956 . S
H859 C846 0.961 1_554 S
H860 C846 0.961 . S
H861 C847 0.958 . S
H862 C847 0.956 1_545 S
H863 C847 0.960 . S
C864 C865 1.391 . S
C864 C866 1.394 . S
C864 H880 0.931 . S
C865 C864 1.391 . S
C865 C869 1.376 . S
C866 C864 1.394 . S
C866 C867 1.369 . S
C866 C870 1.531 . S
C867 C866 1.369 . S
C867 C868 1.410 . S
C867 C875 1.503 . S
C868 C867 1.410 . S
C868 C869 1.392 . S
C868 C871 1.511 . S
C869 C865 1.376 . S
C869 C868 1.392 . S
C869 H881 0.929 . S
C870 C866 1.531 . S
C870 H882 0.960 . S
C870 H883 0.962 1_554 S
C870 H884 0.960 . S
C871 C868 1.511 . S
C871 H885 0.961 . S
C871 H886 0.961 . S
C871 H887 0.961 . S
C872 C873 1.370 . S
C872 C874 1.363 1_556 S
C872 H888 0.931 . S
C873 C872 1.370 . S
C873 C877 1.408 1_556 S
C874 C872 1.363 1_554 S
C874 C875 1.370 . S
C874 C878 1.524 . S
C875 C867 1.503 . S
C875 C874 1.370 . S
C875 C876 1.403 . S
C876 C875 1.403 . S
C876 C877 1.404 . S
C876 C879 1.539 . S
C877 C873 1.408 1_554 S
C877 C876 1.404 . S
C877 H889 0.930 . S
C878 C874 1.524 . S
C878 H890 0.956 1_554 S
C878 H891 0.961 . S
C878 H892 0.961 1_554 S
C879 C876 1.539 . S
C879 H893 0.958 . S
C879 H894 0.961 . S
C879 H895 0.960 . S
H880 C864 0.931 . S
H881 C869 0.929 . S
H882 C870 0.960 . S
H883 C870 0.962 1_556 S
H884 C870 0.960 . S
H885 C871 0.961 . S
H886 C871 0.961 . S
H887 C871 0.961 . S
H888 C872 0.931 . S
H889 C877 0.930 . S
H890 C878 0.956 1_556 S
H891 C878 0.961 . S
H892 C878 0.961 1_556 S
H893 C879 0.958 . S
H894 C879 0.961 . S
H895 C879 0.960 . S
C896 C897 1.391 . S
C896 C898 1.394 . S
C896 H912 0.931 . S
C897 C896 1.391 . S
C897 C901 1.376 . S
C898 C896 1.394 . S
C898 C899 1.369 . S
C898 C902 1.531 . S
C899 C898 1.369 . S
C899 C900 1.410 . S
C899 C907 1.503 . S
C900 C899 1.410 . S
C900 C901 1.392 . S
C900 C903 1.511 . S
C901 C897 1.376 . S
C901 C900 1.392 . S
C901 H913 0.929 . S
C902 C898 1.531 . S
C902 H914 0.960 . S
C902 H915 0.962 . S
C902 H916 0.960 . S
C903 C900 1.511 . S
C903 H917 0.961 . S
C903 H918 0.961 . S
C903 H919 0.961 . S
C904 C905 1.370 1_554 S
C904 C906 1.363 . S
C904 H920 0.931 . S
C905 C904 1.370 1_556 S
C905 C909 1.408 . S
C906 C904 1.363 . S
C906 C907 1.370 . S
C906 C910 1.524 . S
C907 C899 1.503 . S
C907 C906 1.370 . S
C907 C908 1.403 1_554 S
C908 C907 1.403 1_556 S
C908 C909 1.404 . S
C908 C911 1.539 . S
C909 C905 1.408 . S
C909 C908 1.404 . S
C909 H921 0.930 . S
C910 C906 1.524 . S
C910 H922 0.956 . S
C910 H923 0.961 . S
C910 H924 0.961 . S
C911 C908 1.539 . S
C911 H925 0.958 . S
C911 H926 0.961 . S
C911 H927 0.960 . S
H912 C896 0.931 . S
H913 C901 0.929 . S
H914 C902 0.960 . S
H915 C902 0.962 . S
H916 C902 0.960 . S
H917 C903 0.961 . S
H918 C903 0.961 . S
H919 C903 0.961 . S
H920 C904 0.931 . S
H921 C909 0.930 . S
H922 C910 0.956 . S
H923 C910 0.961 . S
H924 C910 0.961 . S
H925 C911 0.958 . S
H926 C911 0.961 . S
H927 C911 0.960 . S
C928 C929 1.391 1_655 S
C928 C930 1.394 . S
C928 H944 0.931 . S
C929 C928 1.391 1_455 S
C929 C933 1.376 . S
C930 C928 1.394 . S
C930 C931 1.369 1_655 S
C930 C934 1.531 . S
C931 C930 1.369 1_455 S
C931 C932 1.410 . S
C931 C939 1.503 . S
C932 C931 1.410 . S
C932 C933 1.392 . S
C932 C935 1.511 . S
C933 C929 1.376 . S
C933 C932 1.392 . S
C933 H945 0.929 . S
C934 C930 1.531 . S
C934 H946 0.960 . S
C934 H947 0.962 . S
C934 H948 0.960 . S
C935 C932 1.511 . S
C935 H949 0.961 . S
C935 H950 0.961 . S
C935 H951 0.961 . S
C936 C937 1.370 1_655 S
C936 C938 1.363 . S
C936 H952 0.931 . S
C937 C936 1.370 1_455 S
C937 C941 1.408 . S
C938 C936 1.363 . S
C938 C939 1.370 1_655 S
C938 C942 1.524 . S
C939 C931 1.503 . S
C939 C938 1.370 1_455 S
C939 C940 1.403 . S
C940 C939 1.403 . S
C940 C941 1.404 . S
C940 C943 1.539 . S
C941 C937 1.408 . S
C941 C940 1.404 . S
C941 H953 0.930 . S
C942 C938 1.524 . S
C942 H954 0.956 . S
C942 H955 0.961 . S
C942 H956 0.961 . S
C943 C940 1.539 . S
C943 H957 0.958 . S
C943 H958 0.961 . S
C943 H959 0.960 . S
H944 C928 0.931 . S
H945 C933 0.929 . S
H946 C934 0.960 . S
H947 C934 0.962 . S
H948 C934 0.960 . S
H949 C935 0.961 . S
H950 C935 0.961 . S
H951 C935 0.961 . S
H952 C936 0.931 . S
H953 C941 0.930 . S
H954 C942 0.956 . S
H955 C942 0.961 . S
H956 C942 0.961 . S
H957 C943 0.958 . S
H958 C943 0.961 . S
H959 C943 0.960 . S
C960 C961 1.391 . S
C960 C962 1.394 . S
C960 H976 0.931 . S
C961 C960 1.391 . S
C961 C965 1.376 . S
C962 C960 1.394 . S
C962 C963 1.369 . S
C962 C966 1.531 . S
C963 C962 1.369 . S
C963 C964 1.410 . S
C963 C971 1.503 . S
C964 C963 1.410 . S
C964 C965 1.392 . S
C964 C967 1.511 . S
C965 C961 1.376 . S
C965 C964 1.392 . S
C965 H977 0.929 . S
C966 C962 1.531 . S
C966 H978 0.960 . S
C966 H979 0.962 1_545 S
C966 H980 0.960 . S
C967 C964 1.511 . S
C967 H981 0.961 . S
C967 H982 0.961 . S
C967 H983 0.961 . S
C968 C969 1.370 1_565 S
C968 C970 1.363 . S
C968 H984 0.931 . S
C969 C968 1.370 1_545 S
C969 C973 1.408 . S
C970 C968 1.363 . S
C970 C971 1.370 1_565 S
C970 C974 1.524 . S
C971 C963 1.503 . S
C971 C970 1.370 1_545 S
C971 C972 1.403 . S
C972 C971 1.403 . S
C972 C973 1.404 . S
C972 C975 1.539 . S
C973 C969 1.408 . S
C973 C972 1.404 . S
C973 H985 0.930 . S
C974 C970 1.524 . S
C974 H986 0.956 . S
C974 H987 0.961 . S
C974 H988 0.961 . S
C975 C972 1.539 . S
C975 H989 0.958 . S
C975 H990 0.961 . S
C975 H991 0.960 . S
H976 C960 0.931 . S
H977 C965 0.929 . S
H978 C966 0.960 . S
H979 C966 0.962 1_565 S
H980 C966 0.960 . S
H981 C967 0.961 . S
H982 C967 0.961 . S
H983 C967 0.961 . S
H984 C968 0.931 . S
H985 C973 0.930 . S
H986 C974 0.956 . S
H987 C974 0.961 . S
H988 C974 0.961 . S
H989 C975 0.958 . S
H990 C975 0.961 . S
H991 C975 0.960 . S
C992 C993 1.391 . S
C992 C994 1.394 . S
C992 H1008 0.931 . S
C993 C992 1.391 . S
C993 C997 1.376 . S
C994 C992 1.394 . S
C994 C995 1.369 . S
C994 C998 1.531 . S
C995 C994 1.369 . S
C995 C996 1.410 . S
C995 C1003 1.503 . S
C996 C995 1.410 . S
C996 C997 1.392 . S
C996 C999 1.511 . S
C997 C993 1.376 . S
C997 C996 1.392 . S
C997 H1009 0.929 . S
C998 C994 1.531 . S
C998 H1010 0.960 . S
C998 H1011 0.962 . S
C998 H1012 0.960 . S
C999 C996 1.511 . S
C999 H1013 0.961 . S
C999 H1014 0.961 . S
C999 H1015 0.961 . S
C1000 C1001 1.370 . S
C1000 C1002 1.363 . S
C1000 H1016 0.931 . S
C1001 C1000 1.370 . S
C1001 C1005 1.408 . S
C1002 C1000 1.363 . S
C1002 C1003 1.370 . S
C1002 C1006 1.524 . S
C1003 C995 1.503 . S
C1003 C1002 1.370 . S
C1003 C1004 1.403 . S
C1004 C1003 1.403 . S
C1004 C1005 1.404 . S
C1004 C1007 1.539 . S
C1005 C1001 1.408 . S
C1005 C1004 1.404 . S
C1005 H1017 0.930 . S
C1006 C1002 1.524 . S
C1006 H1018 0.956 . S
C1006 H1019 0.961 . S
C1006 H1020 0.961 . S
C1007 C1004 1.539 . S
C1007 H1021 0.958 . S
C1007 H1022 0.961 . S
C1007 H1023 0.960 . S
H1008 C992 0.931 . S
H1009 C997 0.929 . S
H1010 C998 0.960 . S
H1011 C998 0.962 . S
H1012 C998 0.960 . S
H1013 C999 0.961 . S
H1014 C999 0.961 . S
H1015 C999 0.961 . S
H1016 C1000 0.931 . S
H1017 C1005 0.930 . S
H1018 C1006 0.956 . S
H1019 C1006 0.961 . S
H1020 C1006 0.961 . S
H1021 C1007 0.958 . S
H1022 C1007 0.961 . S
H1023 C1007 0.960 . S
C1024 C1025 1.391 . S
C1024 C1026 1.394 . S
C1024 H1040 0.931 . S
C1025 C1024 1.391 . S
C1025 C1029 1.376 . S
C1026 C1024 1.394 . S
C1026 C1027 1.369 . S
C1026 C1030 1.531 . S
C1027 C1026 1.369 . S
C1027 C1028 1.410 . S
C1027 C1035 1.503 . S
C1028 C1027 1.410 . S
C1028 C1029 1.392 . S
C1028 C1031 1.511 . S
C1029 C1025 1.376 . S
C1029 C1028 1.392 . S
C1029 H1041 0.929 . S
C1030 C1026 1.531 . S
C1030 H1042 0.960 . S
C1030 H1043 0.962 . S
C1030 H1044 0.960 . S
C1031 C1028 1.511 . S
C1031 H1045 0.961 . S
C1031 H1046 0.961 . S
C1031 H1047 0.961 . S
C1032 C1033 1.370 . S
C1032 C1034 1.363 . S
C1032 H1048 0.931 . S
C1033 C1032 1.370 . S
C1033 C1037 1.408 . S
C1034 C1032 1.363 . S
C1034 C1035 1.370 . S
C1034 C1038 1.524 . S
C1035 C1027 1.503 . S
C1035 C1034 1.370 . S
C1035 C1036 1.403 . S
C1036 C1035 1.403 . S
C1036 C1037 1.404 . S
C1036 C1039 1.539 . S
C1037 C1033 1.408 . S
C1037 C1036 1.404 . S
C1037 H1049 0.930 . S
C1038 C1034 1.524 . S
C1038 H1050 0.956 . S
C1038 H1051 0.961 . S
C1038 H1052 0.961 . S
C1039 C1036 1.539 . S
C1039 H1053 0.958 . S
C1039 H1054 0.961 . S
C1039 H1055 0.960 . S
H1040 C1024 0.931 . S
H1041 C1029 0.929 . S
H1042 C1030 0.960 . S
H1043 C1030 0.962 . S
H1044 C1030 0.960 . S
H1045 C1031 0.961 . S
H1046 C1031 0.961 . S
H1047 C1031 0.961 . S
H1048 C1032 0.931 . S
H1049 C1037 0.930 . S
H1050 C1038 0.956 . S
H1051 C1038 0.961 . S
H1052 C1038 0.961 . S
H1053 C1039 0.958 . S
H1054 C1039 0.961 . S
H1055 C1039 0.960 . S
C1056 C1057 1.362 1_455 S
C1056 C1058 1.394 . S
C1056 H1072 0.931 . S
C1057 C1056 1.362 1_655 S
C1057 C1061 1.405 . S
C1058 C1056 1.394 . S
C1058 C1059 1.369 1_455 S
C1058 C1062 1.531 . S
C1059 C1058 1.369 1_655 S
C1059 C1060 1.410 . S
C1059 C1067 1.503 . S
C1060 C1059 1.410 . S
C1060 C1061 1.392 . S
C1060 C1063 1.511 . S
C1061 C1057 1.405 . S
C1061 C1060 1.392 . S
C1061 H1073 0.929 . S
C1062 C1058 1.531 . S
C1062 H1074 0.960 . S
C1062 H1075 0.962 . S
C1062 H1076 0.960 . S
C1063 C1060 1.511 . S
C1063 H1077 0.961 . S
C1063 H1078 0.961 . S
C1063 H1079 0.961 . S
C1064 C1065 1.370 . S
C1064 C1066 1.363 . S
C1064 H1080 0.931 . S
C1065 C1064 1.370 . S
C1065 C1069 1.408 1_655 S
C1066 C1064 1.363 . S
C1066 C1067 1.370 . S
C1066 C1070 1.524 . S
C1067 C1059 1.503 . S
C1067 C1066 1.370 . S
C1067 C1068 1.403 1_655 S
C1068 C1067 1.403 1_455 S
C1068 C1069 1.404 . S
C1068 C1071 1.539 . S
C1069 C1065 1.408 1_455 S
C1069 C1068 1.404 . S
C1069 H1081 0.930 . S
C1070 C1066 1.524 . S
C1070 H1082 0.956 . S
C1070 H1083 0.961 . S
C1070 H1084 0.961 . S
C1071 C1068 1.539 . S
C1071 H1085 0.958 . S
C1071 H1086 0.961 . S
C1071 H1087 0.960 . S
H1072 C1056 0.931 . S
H1073 C1061 0.929 . S
H1074 C1062 0.960 . S
H1075 C1062 0.962 . S
H1076 C1062 0.960 . S
H1077 C1063 0.961 . S
H1078 C1063 0.961 . S
H1079 C1063 0.961 . S
H1080 C1064 0.931 . S
H1081 C1069 0.930 . S
H1082 C1070 0.956 . S
H1083 C1070 0.961 . S
H1084 C1070 0.961 . S
H1085 C1071 0.958 . S
H1086 C1071 0.961 . S
H1087 C1071 0.960 . S
C1088 C1089 1.391 1_545 S
C1088 C1090 1.394 . S
C1088 H1104 0.931 . S
C1089 C1088 1.391 1_565 S
C1089 C1093 1.376 . S
C1090 C1088 1.394 . S
C1090 C1091 1.369 1_545 S
C1090 C1094 1.531 . S
C1091 C1090 1.369 1_565 S
C1091 C1092 1.410 . S
C1091 C1099 1.503 . S
C1092 C1091 1.410 . S
C1092 C1093 1.392 . S
C1092 C1095 1.511 . S
C1093 C1089 1.376 . S
C1093 C1092 1.392 . S
C1093 H1105 0.929 . S
C1094 C1090 1.531 . S
C1094 H1106 0.960 . S
C1094 H1107 0.962 . S
C1094 H1108 0.960 . S
C1095 C1092 1.511 . S
C1095 H1109 0.961 . S
C1095 H1110 0.961 . S
C1095 H1111 0.961 . S
C1096 C1097 1.370 . S
C1096 C1098 1.363 . S
C1096 H1112 0.931 . S
C1097 C1096 1.370 . S
C1097 C1101 1.408 . S
C1098 C1096 1.363 . S
C1098 C1099 1.370 . S
C1098 C1102 1.524 . S
C1099 C1091 1.503 . S
C1099 C1098 1.370 . S
C1099 C1100 1.403 . S
C1100 C1099 1.403 . S
C1100 C1101 1.404 . S
C1100 C1103 1.539 . S
C1101 C1097 1.408 . S
C1101 C1100 1.404 . S
C1101 H1113 0.930 . S
C1102 C1098 1.524 . S
C1102 H1114 0.956 1_565 S
C1102 H1115 0.961 . S
C1102 H1116 0.961 . S
C1103 C1100 1.539 . S
C1103 H1117 0.958 1_565 S
C1103 H1118 0.961 . S
C1103 H1119 0.960 . S
H1104 C1088 0.931 . S
H1105 C1093 0.929 . S
H1106 C1094 0.960 . S
H1107 C1094 0.962 . S
H1108 C1094 0.960 . S
H1109 C1095 0.961 . S
H1110 C1095 0.961 . S
H1111 C1095 0.961 . S
H1112 C1096 0.931 . S
H1113 C1101 0.930 . S
H1114 C1102 0.956 1_545 S
H1115 C1102 0.961 . S
H1116 C1102 0.961 . S
H1117 C1103 0.958 1_545 S
H1118 C1103 0.961 . S
H1119 C1103 0.960 . S
C1120 C1121 1.391 . S
C1120 C1122 1.394 . S
C1120 H1136 0.931 . S
C1121 C1120 1.391 . S
C1121 C1125 1.376 . S
C1122 C1120 1.394 . S
C1122 C1123 1.369 . S
C1122 C1126 1.531 . S
C1123 C1122 1.369 . S
C1123 C1124 1.410 . S
C1123 C1131 1.503 . S
C1124 C1123 1.410 . S
C1124 C1125 1.392 . S
C1124 C1127 1.511 . S
C1125 C1121 1.376 . S
C1125 C1124 1.392 . S
C1125 H1137 0.929 . S
C1126 C1122 1.531 . S
C1126 H1138 0.960 . S
C1126 H1139 0.962 . S
C1126 H1140 0.960 . S
C1127 C1124 1.511 . S
C1127 H1141 0.961 . S
C1127 H1142 0.961 . S
C1127 H1143 0.961 . S
C1128 C1129 1.370 . S
C1128 C1130 1.363 . S
C1128 H1144 0.931 . S
C1129 C1128 1.370 . S
C1129 C1133 1.408 . S
C1130 C1128 1.363 . S
C1130 C1131 1.370 . S
C1130 C1134 1.524 . S
C1131 C1123 1.503 . S
C1131 C1130 1.370 . S
C1131 C1132 1.403 . S
C1132 C1131 1.403 . S
C1132 C1133 1.404 . S
C1132 C1135 1.539 . S
C1133 C1129 1.408 . S
C1133 C1132 1.404 . S
C1133 H1145 0.930 . S
C1134 C1130 1.524 . S
C1134 H1146 0.956 . S
C1134 H1147 0.961 . S
C1134 H1148 0.961 . S
C1135 C1132 1.539 . S
C1135 H1149 0.958 . S
C1135 H1150 0.961 . S
C1135 H1151 0.960 . S
H1136 C1120 0.931 . S
H1137 C1125 0.929 . S
H1138 C1126 0.960 . S
H1139 C1126 0.962 . S
H1140 C1126 0.960 . S
H1141 C1127 0.961 . S
H1142 C1127 0.961 . S
H1143 C1127 0.961 . S
H1144 C1128 0.931 . S
H1145 C1133 0.930 . S
H1146 C1134 0.956 . S
H1147 C1134 0.961 . S
H1148 C1134 0.961 . S
H1149 C1135 0.958 . S
H1150 C1135 0.961 . S
H1151 C1135 0.960 . S
C1152 C1153 1.391 . S
C1152 C1154 1.394 . S
C1152 H1168 0.931 . S
C1153 C1152 1.391 . S
C1153 C1157 1.376 . S
C1154 C1152 1.394 . S
C1154 C1155 1.369 . S
C1154 C1158 1.531 . S
C1155 C1154 1.369 . S
C1155 C1156 1.410 . S
C1155 C1163 1.503 . S
C1156 C1155 1.410 . S
C1156 C1157 1.392 . S
C1156 C1159 1.511 . S
C1157 C1153 1.376 . S
C1157 C1156 1.392 . S
C1157 H1169 0.929 . S
C1158 C1154 1.531 . S
C1158 H1170 0.960 . S
C1158 H1171 0.962 . S
C1158 H1172 0.960 . S
C1159 C1156 1.511 . S
C1159 H1173 0.961 . S
C1159 H1174 0.961 . S
C1159 H1175 0.961 . S
C1160 C1161 1.370 . S
C1160 C1162 1.363 . S
C1160 H1176 0.931 . S
C1161 C1160 1.370 . S
C1161 C1165 1.408 . S
C1162 C1160 1.363 . S
C1162 C1163 1.370 . S
C1162 C1166 1.524 . S
C1163 C1155 1.503 . S
C1163 C1162 1.370 . S
C1163 C1164 1.403 . S
C1164 C1163 1.403 . S
C1164 C1165 1.404 . S
C1164 C1167 1.539 . S
C1165 C1161 1.408 . S
C1165 C1164 1.404 . S
C1165 H1177 0.930 . S
C1166 C1162 1.524 . S
C1166 H1178 0.956 . S
C1166 H1179 0.961 . S
C1166 H1180 0.961 . S
C1167 C1164 1.539 . S
C1167 H1181 0.958 . S
C1167 H1182 0.961 . S
C1167 H1183 0.960 . S
H1168 C1152 0.931 . S
H1169 C1157 0.929 . S
H1170 C1158 0.960 . S
H1171 C1158 0.962 . S
H1172 C1158 0.960 . S
H1173 C1159 0.961 . S
H1174 C1159 0.961 . S
H1175 C1159 0.961 . S
H1176 C1160 0.931 . S
H1177 C1165 0.930 . S
H1178 C1166 0.956 . S
H1179 C1166 0.961 . S
H1180 C1166 0.961 . S
H1181 C1167 0.958 . S
H1182 C1167 0.961 . S
H1183 C1167 0.960 . S
C417 C215 2.003 1_565 S
C425 C274 2.210 1_545 S
C457 C314 2.229 . S
C449 C247 2.001 . S
C489 C354 2.233 . S
C481 C151 2.011 . S
C521 C394 2.217 1_455 S
C513 C183 2.063 1_655 S
C553 C264 2.213 . S
C545 C87 2.018 . S
C577 C119 2.024 . S
C585 C304 2.230 . S
C609 C23 2.091 . S
C617 C344 2.233 . S
C641 C55 2.056 1_655 S
C649 C384 2.221 1_655 S
C681 C261 0.430 . S
C673 C189 0.397 . S
C713 C301 0.415 . S
C705 C221 0.399 . S
C745 C341 0.385 . S
C737 C253 0.324 . S
C769 C157 0.414 . S
C777 C381 0.431 . S
C801 C61 0.545 1_655 S
C809 C271 0.412 . S
C841 C311 0.411 . S
C833 C93 0.556 1_565 S
C873 C351 0.398 . S
C865 C125 0.571 . S
C897 C29 0.574 . S
C905 C391 0.392 . S
C929 C177 2.508 . S
C937 C265 2.798 . S
C961 C209 2.451 . S
C969 C305 2.773 . S
C1001 C345 2.754 . S
C993 C241 2.411 . S
C1033 C385 2.791 . S
C1025 C145 2.467 . S
C1057 C49 2.485 1_655 S
C1065 C275 2.805 . S
C1097 C315 2.769 . S
C1089 C81 2.457 1_565 S
C1129 C355 2.750 . S
C1121 C113 2.506 . S
C1153 C17 2.535 . S
C1161 C395 2.787 . S
