# Generated by pormake.
# Topology zzz, (3,6)-cn, num edge types: 1
# Building blocks:
#     Node 0, Type 0, BuildingBlock: BELTOD_clean_linker_0, # of connection points: 3
#     Node 1, Type 0, BuildingBlock: BELTOD_clean_linker_0, # of connection points: 3
#     Node 2, Type 0, BuildingBlock: BELTOD_clean_linker_0, # of connection points: 3
#     Node 3, Type 0, BuildingBlock: BELTOD_clean_linker_0, # of connection points: 3
#     Node 4, Type 0, BuildingBlock: BELTOD_clean_linker_0, # of connection points: 3
#     Node 5, Type 0, BuildingBlock: BELTOD_clean_linker_0, # of connection points: 3
#     Node 6, Type 0, BuildingBlock: BELTOD_clean_linker_0, # of connection points: 3
#     Node 7, Type 0, BuildingBlock: BELTOD_clean_linker_0, # of connection points: 3
#     Node 8, Type 1, BuildingBlock: CUKXOW_clean_sbu_0, # of connection points: 6
#     Node 9, Type 1, BuildingBlock: CUKXOW_clean_sbu_0, # of connection points: 6
#     Node 10, Type 1, BuildingBlock: CUKXOW_clean_sbu_0, # of connection points: 6
#     Node 11, Type 1, BuildingBlock: CUKXOW_clean_sbu_0, # of connection points: 6
#     Edge 12, Type (0, 1), BuildingBlock: UVAHIK_clean_linker_0, # of connection points: 2
#     Edge 13, Type (0, 1), BuildingBlock: UVAHIK_clean_linker_0, # of connection points: 2
#     Edge 14, Type (0, 1), BuildingBlock: UVAHIK_clean_linker_0, # of connection points: 2
#     Edge 15, Type (0, 1), BuildingBlock: UVAHIK_clean_linker_0, # of connection points: 2
#     Edge 16, Type (0, 1), BuildingBlock: UVAHIK_clean_linker_0, # of connection points: 2
#     Edge 17, Type (0, 1), BuildingBlock: UVAHIK_clean_linker_0, # of connection points: 2
#     Edge 18, Type (0, 1), BuildingBlock: UVAHIK_clean_linker_0, # of connection points: 2
#     Edge 19, Type (0, 1), BuildingBlock: UVAHIK_clean_linker_0, # of connection points: 2
#     Edge 20, Type (0, 1), BuildingBlock: UVAHIK_clean_linker_0, # of connection points: 2
#     Edge 21, Type (0, 1), BuildingBlock: UVAHIK_clean_linker_0, # of connection points: 2
#     Edge 22, Type (0, 1), BuildingBlock: UVAHIK_clean_linker_0, # of connection points: 2
#     Edge 23, Type (0, 1), BuildingBlock: UVAHIK_clean_linker_0, # of connection points: 2
#     Edge 24, Type (0, 1), BuildingBlock: UVAHIK_clean_linker_0, # of connection points: 2
#     Edge 25, Type (0, 1), BuildingBlock: UVAHIK_clean_linker_0, # of connection points: 2
#     Edge 26, Type (0, 1), BuildingBlock: UVAHIK_clean_linker_0, # of connection points: 2
#     Edge 27, Type (0, 1), BuildingBlock: UVAHIK_clean_linker_0, # of connection points: 2
#     Edge 28, Type (0, 1), BuildingBlock: UVAHIK_clean_linker_0, # of connection points: 2
#     Edge 29, Type (0, 1), BuildingBlock: UVAHIK_clean_linker_0, # of connection points: 2
#     Edge 30, Type (0, 1), BuildingBlock: UVAHIK_clean_linker_0, # of connection points: 2
#     Edge 31, Type (0, 1), BuildingBlock: UVAHIK_clean_linker_0, # of connection points: 2
#     Edge 32, Type (0, 1), BuildingBlock: UVAHIK_clean_linker_0, # of connection points: 2
#     Edge 33, Type (0, 1), BuildingBlock: UVAHIK_clean_linker_0, # of connection points: 2
#     Edge 34, Type (0, 1), BuildingBlock: UVAHIK_clean_linker_0, # of connection points: 2
#     Edge 35, Type (0, 1), BuildingBlock: UVAHIK_clean_linker_0, # of connection points: 2
# Relax obj value: 0.199
# Max RMSD: 0.217
# Mean RMSD: 0.178
data_MOF--net-zzz--node1-CUKXOW_clean_sbu_0--node2-BELTOD_clean_linker_0--edge1-UVAHIK_clean_linker_0
_symmetry_space_group_name_H-M    P1
_symmetry_Int_Tables_number       1
_symmetry_cell_setting            triclinic
loop_
_symmetry_equiv_pos_as_xyz
'x, y, z'
_cell_length_a     68.63016
_cell_length_b     66.972501
_cell_length_c     23.739187
_cell_angle_alpha  92.396084
_cell_angle_beta   88.342983
_cell_angle_gamma 95.374402
loop_
_atom_site_label
_atom_site_type_symbol
_atom_site_fract_x
_atom_site_fract_y
_atom_site_fract_z
_atom_type_partial_charge
P0 P 0.74705 0.38991 0.10383 0.0
H1 H 0.74362 0.37939 0.22272 0.0
H2 H 0.76049 0.39348 0.30696 0.0
H3 H 0.79092 0.43971 0.20682 0.0
H4 H 0.7735 0.42613 0.12431 0.0
H5 H 0.71424 0.37455 0.03524 0.0
H6 H 0.68647 0.39016 0.0 0.0
H7 H 0.70415 0.44464 0.09663 0.0
H8 H 0.73203 0.42897 0.13121 0.0
H9 H 0.78125 0.36935 0.06818 0.0
H10 H 0.75275 0.4203 0.01789 0.0
O11 O 0.7422 0.36529 0.11191 0.0
H12 H 0.80883 0.37858 0.00353 0.0
H13 H 0.78015 0.42953 0.95375 0.0
C14 C 0.75766 0.40142 0.16705 0.0
C15 C 0.75377 0.3927 0.21927 0.0
C16 C 0.76349 0.40072 0.26729 0.0
C17 C 0.77725 0.41764 0.26372 0.0
C18 C 0.78032 0.42683 0.21159 0.0
C19 C 0.77051 0.41889 0.16392 0.0
C20 C 0.72495 0.40045 0.08662 0.0
C21 C 0.71187 0.3897 0.04984 0.0
C22 C 0.69601 0.39865 0.02973 0.0
C23 C 0.6931 0.41864 0.04563 0.0
C24 C 0.70608 0.42927 0.08336 0.0
C25 C 0.72191 0.42025 0.10362 0.0
C26 C 0.76483 0.39394 0.04731 0.0
C27 C 0.78065 0.38214 0.04205 0.0
C28 C 0.79638 0.38742 0.00518 0.0
C29 C 0.79661 0.4048 0.9739 0.0
C30 C 0.78037 0.41612 0.97763 0.0
C31 C 0.76461 0.41073 0.01402 0.0
P32 P 0.94019 0.75257 0.12127 0.0
H33 H 0.95682 0.76009 0.23247 0.0
H34 H 0.94768 0.78115 0.31274 0.0
H35 H 0.89381 0.7908 0.23243 0.0
H36 H 0.9031 0.76936 0.15163 0.0
H37 H 0.92968 0.73964 0.00592 0.0
H38 H 0.9176 0.70696 0.96627 0.0
H39 H 0.90693 0.68523 0.13413 0.0
H40 H 0.91889 0.71831 0.17392 0.0
H41 H 0.97576 0.77607 0.08362 0.0
H42 H 0.91384 0.7736 0.05419 0.0
O43 O 0.96163 0.74392 0.13364 0.0
H44 H 0.98157 0.80479 0.02368 0.0
H45 H 0.91957 0.8025 0.99389 0.0
C46 C 0.9307 0.76326 0.1859 0.0
C47 C 0.94276 0.76618 0.23265 0.0
C48 C 0.93744 0.77821 0.27884 0.0
C49 C 0.92004 0.78776 0.27887 0.0
C50 C 0.90738 0.78378 0.23337 0.0
C51 C 0.91265 0.77152 0.18728 0.0
C52 C 0.92489 0.73154 0.09297 0.0
C53 C 0.92385 0.72824 0.0344 0.0
C54 C 0.91693 0.70945 0.01164 0.0
C55 C 0.9114 0.69351 0.04711 0.0
C56 C 0.91114 0.69726 0.10584 0.0
C57 C 0.91785 0.71617 0.12858 0.0
C58 C 0.9444 0.77257 0.07285 0.0
C59 C 0.96343 0.78152 0.06359 0.0
C60 C 0.96674 0.79793 0.02915 0.0
C61 C 0.95103 0.80584 0.00382 0.0
C62 C 0.93194 0.79679 0.01309 0.0
C63 C 0.92866 0.78027 0.04738 0.0
P64 P 0.74521 0.06312 0.18321 0.0
H65 H 0.74903 0.05778 0.30429 0.0
H66 H 0.73 0.03587 0.36955 0.0
H67 H 0.70041 0.00479 0.2282 0.0
H68 H 0.7203 0.02581 0.16385 0.0
H69 H 0.77513 0.08852 0.12566 0.0
H70 H 0.80363 0.0815 0.06706 0.0
H71 H 0.79202 0.01829 0.09818 0.0
H72 H 0.76315 0.02548 0.15581 0.0
H73 H 0.70763 0.07948 0.19772 0.0
H74 H 0.74032 0.05167 0.06292 0.0
O75 O 0.74958 0.08462 0.22075 0.0
H76 H 0.67921 0.07833 0.13728 0.0
H77 H 0.71205 0.05042 0.00261 0.0
C78 C 0.73562 0.04378 0.22948 0.0
C79 C 0.73884 0.04585 0.28747 0.0
C80 C 0.72779 0.0334 0.32473 0.0
C81 C 0.71318 0.01889 0.30447 0.0
C82 C 0.71146 0.0157 0.24575 0.0
C83 C 0.72273 0.02792 0.20865 0.0
C84 C 0.76732 0.05759 0.14594 0.0
C85 C 0.77892 0.07319 0.12057 0.0
C86 C 0.79523 0.06914 0.08716 0.0
C87 C 0.80022 0.04934 0.07825 0.0
C88 C 0.78852 0.03369 0.10395 0.0
C89 C 0.77213 0.03779 0.13737 0.0
C90 C 0.72618 0.06602 0.13453 0.0
C91 C 0.70884 0.07359 0.15468 0.0
C92 C 0.69257 0.07272 0.12038 0.0
C93 C 0.6934 0.06423 0.0653 0.0
C94 C 0.71104 0.05728 0.04461 0.0
C95 C 0.72726 0.05803 0.0791 0.0
P96 P 0.57874 0.74987 0.17458 0.0
H97 H 0.59788 0.76449 0.28055 0.0
H98 H 0.60907 0.74623 0.35957 0.0
H99 H 0.59665 0.69032 0.26424 0.0
H100 H 0.58545 0.70825 0.18741 0.0
H101 H 0.60328 0.77119 0.08782 0.0
H102 H 0.60398 0.8057 0.05875 0.0
H103 H 0.57094 0.82091 0.20958 0.0
H104 H 0.56997 0.78617 0.23802 0.0
H105 H 0.54912 0.73524 0.09291 0.0
H106 H 0.61121 0.73316 0.11143 0.0
O107 O 0.55531 0.74839 0.19628 0.0
H108 H 0.54941 0.7104 0.01517 0.0
H109 H 0.6117 0.70831 0.03273 0.0
C110 C 0.59146 0.73786 0.22712 0.0
C111 C 0.59822 0.74837 0.27618 0.0
C112 C 0.60449 0.73791 0.32138 0.0
C113 C 0.60403 0.71682 0.31796 0.0
C114 C 0.59782 0.70656 0.26789 0.0
C115 C 0.5914 0.71691 0.22348 0.0
C116 C 0.58613 0.776 0.16444 0.0
C117 C 0.5967 0.78202 0.11563 0.0
C118 C 0.5972 0.80187 0.09912 0.0
C119 C 0.58713 0.81592 0.13128 0.0
C120 C 0.5785 0.81031 0.18341 0.0
C121 C 0.57804 0.79048 0.19987 0.0
C122 C 0.58004 0.73559 0.10879 0.0
C123 C 0.56292 0.72976 0.07939 0.0
C124 C 0.56315 0.71565 0.03451 0.0
C125 C 0.58055 0.70717 0.01826 0.0
C126 C 0.59802 0.71434 0.04489 0.0
C127 C 0.59777 0.72857 0.08965 0.0
P128 P 0.24927 0.51043 0.22853 0.0
H129 H 0.25119 0.49022 0.11727 0.0
H130 H 0.23554 0.49634 0.02952 0.0
H131 H 0.21973 0.55332 0.10031 0.0
H132 H 0.23643 0.54752 0.18674 0.0
H133 H 0.28664 0.49347 0.2187 0.0
H134 H 0.31865 0.50406 0.25678 0.0
H135 H 0.29745 0.55972 0.32003 0.0
H136 H 0.26516 0.54884 0.28162 0.0
H137 H 0.20776 0.51494 0.21554 0.0
H138 H 0.24859 0.51923 0.35133 0.0
O139 O 0.2481 0.48541 0.22751 0.0
H140 H 0.18168 0.52307 0.28151 0.0
H141 H 0.22222 0.52717 0.41817 0.0
C142 C 0.24421 0.51807 0.1591 0.0
C143 C 0.24492 0.50432 0.11321 0.0
C144 C 0.23586 0.50781 0.06313 0.0
C145 C 0.22569 0.52496 0.05864 0.0
C146 C 0.22726 0.53988 0.10227 0.0
C147 C 0.23671 0.53653 0.15199 0.0
C148 C 0.27343 0.52011 0.24897 0.0
C149 C 0.28891 0.50806 0.24019 0.0
C150 C 0.30729 0.51423 0.26157 0.0
C151 C 0.31056 0.53268 0.29191 0.0
C152 C 0.29528 0.54531 0.29758 0.0
C153 C 0.27687 0.53913 0.27567 0.0
C154 C 0.23042 0.51753 0.27787 0.0
C155 C 0.2113 0.51821 0.25929 0.0
C156 C 0.19632 0.5228 0.29715 0.0
C157 C 0.20001 0.5262 0.35479 0.0
C158 C 0.21904 0.52487 0.37382 0.0
C159 C 0.23413 0.5205 0.3356 0.0
P160 P 0.14532 0.25587 0.29142 0.0
H161 H 0.15836 0.25 0.1727 0.0
H162 H 0.14377 0.22914 0.09427 0.0
H163 H 0.09254 0.21361 0.19895 0.0
H164 H 0.107 0.23444 0.27654 0.0
H165 H 0.15568 0.28761 0.37574 0.0
H166 H 0.13995 0.31745 0.4083 0.0
H167 H 0.09707 0.3054 0.2784 0.0
H168 H 0.11244 0.27546 0.24742 0.0
H169 H 0.15475 0.21489 0.29892 0.0
H170 H 0.12515 0.25735 0.40365 0.0
O171 O 0.16939 0.26022 0.27953 0.0
H172 H 0.14255 0.18814 0.36019 0.0
H173 H 0.11411 0.23106 0.46776 0.0
C174 C 0.13385 0.24347 0.23055 0.0
C175 C 0.14387 0.24234 0.17835 0.0
C176 C 0.13553 0.2305 0.13362 0.0
C177 C 0.11717 0.21959 0.141 0.0
C178 C 0.10683 0.22164 0.19249 0.0
C179 C 0.11507 0.23355 0.23674 0.0
C180 C 0.13516 0.27919 0.30961 0.0
C181 C 0.14301 0.29156 0.35398 0.0
C182 C 0.13404 0.30865 0.37237 0.0
C183 C 0.11712 0.31373 0.34629 0.0
C184 C 0.10982 0.3017 0.30023 0.0
C185 C 0.11871 0.28456 0.28223 0.0
C186 C 0.14089 0.23812 0.34643 0.0
C187 C 0.14624 0.2186 0.33641 0.0
C188 C 0.13927 0.20328 0.3719 0.0
C189 C 0.12706 0.20725 0.419 0.0
C190 C 0.12301 0.22723 0.43121 0.0
C191 C 0.12962 0.24246 0.39484 0.0
P192 P 0.27785 0.08269 0.2506 0.0
H193 H 0.27491 0.08888 0.12983 0.0
H194 H 0.29213 0.07552 0.04689 0.0
H195 H 0.32093 0.03723 0.15402 0.0
H196 H 0.30288 0.04964 0.23502 0.0
H197 H 0.24394 0.09993 0.30168 0.0
H198 H 0.21164 0.08532 0.33201 0.0
H199 H 0.22609 0.02693 0.26882 0.0
H200 H 0.25856 0.04175 0.23859 0.0
H201 H 0.31553 0.10347 0.27942 0.0
H202 H 0.2764 0.05522 0.34456 0.0
O203 O 0.27733 0.10706 0.2392 0.0
H204 H 0.34091 0.09533 0.3426 0.0
H205 H 0.30172 0.04668 0.40648 0.0
C206 C 0.28803 0.07069 0.18873 0.0
C207 C 0.28469 0.07735 0.13502 0.0
C208 C 0.29468 0.06978 0.08773 0.0
C209 C 0.30826 0.05551 0.09359 0.0
C210 C 0.31054 0.04804 0.14733 0.0
C211 C 0.30036 0.05539 0.19421 0.0
C212 C 0.25347 0.07199 0.26703 0.0
C213 C 0.24004 0.08406 0.2934 0.0
C214 C 0.22156 0.07568 0.31058 0.0
C215 C 0.21626 0.05499 0.30238 0.0
C216 C 0.22977 0.04291 0.27571 0.0
C217 C 0.24824 0.05137 0.25808 0.0
C218 C 0.29401 0.08014 0.30771 0.0
C219 C 0.31221 0.09151 0.30848 0.0
C220 C 0.32677 0.08668 0.34412 0.0
C221 C 0.32341 0.07023 0.37922 0.0
C222 C 0.30474 0.05959 0.38056 0.0
C223 C 0.29019 0.06447 0.34497 0.0
P224 P 0.36998 0.26058 0.24888 0.0
H225 H 0.35513 0.26771 0.13698 0.0
H226 H 0.36992 0.28717 0.05895 0.0
H227 H 0.42523 0.29347 0.14308 0.0
H228 H 0.41042 0.27402 0.22077 0.0
H229 H 0.35761 0.23468 0.34078 0.0
H230 H 0.36941 0.20394 0.37389 0.0
H231 H 0.41049 0.20327 0.23271 0.0
H232 H 0.39871 0.23399 0.19989 0.0
H233 H 0.36457 0.30295 0.25357 0.0
H234 H 0.39091 0.26192 0.357 0.0
O235 O 0.34572 0.25841 0.2425 0.0
H236 H 0.37832 0.33108 0.31217 0.0
H237 H 0.40339 0.28975 0.41866 0.0
C238 C 0.38169 0.26948 0.18465 0.0
C239 C 0.37058 0.27275 0.13781 0.0
C240 C 0.37904 0.28386 0.09323 0.0
C241 C 0.39865 0.29201 0.0954 0.0
C242 C 0.41003 0.28753 0.14067 0.0
C243 C 0.40162 0.27632 0.18484 0.0
C244 C 0.37744 0.23677 0.26839 0.0
C245 C 0.36902 0.22779 0.31667 0.0
C246 C 0.3758 0.2103 0.33562 0.0
C247 C 0.39094 0.20131 0.30602 0.0
C248 C 0.39874 0.20983 0.25616 0.0
C249 C 0.39209 0.22749 0.23761 0.0
C250 C 0.37659 0.28029 0.30081 0.0
C251 C 0.37278 0.29994 0.29009 0.0
C252 C 0.38061 0.31607 0.32407 0.0
C253 C 0.39216 0.31287 0.37038 0.0
C254 C 0.39499 0.29296 0.38275 0.0
C255 C 0.38753 0.27687 0.34785 0.0
Tb256 Tb 0.99556 0.99895 0.63309 0.0
C257 C 0.04116 0.0086 0.62592 0.0
Tb258 Tb 0.01496 0.03096 0.71746 0.0
O259 O 0.00423 0.01778 0.56186 0.0
O260 O -0.0006 0.03052 0.64196 0.0
O261 O 0.02622 0.99529 0.61273 0.0
C262 C 0.0344 0.06269 0.76838 0.0
O263 O 0.03954 0.02405 0.66218 0.0
C264 C 0.00459 0.99582 0.75806 0.0
C265 C 0.96952 0.02264 0.72267 0.0
O266 O 0.02275 0.06343 0.72658 0.0
O267 O 0.03506 0.04415 0.78137 0.0
O268 O 0.00648 0.01225 0.78916 0.0
O269 O 0.01092 0.9993 0.70876 0.0
O270 O 0.98458 0.03609 0.73319 0.0
O271 O 0.97103 0.00629 0.68945 0.0
C272 C 0.97722 0.96561 0.58743 0.0
O273 O 0.97319 0.98374 0.57803 0.0
O274 O 0.9917 0.96633 0.62158 0.0
C275 C 0.0056 0.03433 0.59275 0.0
Tb276 Tb 0.50079 0.0216 0.63026 0.0
C277 C 0.53343 0.99324 0.59736 0.0
Tb278 Tb 0.50603 0.98712 0.7085 0.0
O279 O 0.52897 0.03664 0.65394 0.0
O280 O 0.51229 0.0187 0.71139 0.0
O281 O 0.52251 0.00693 0.57908 0.0
C282 C 0.52051 0.96317 0.78082 0.0
O283 O 0.5299 0.98434 0.64622 0.0
C284 C 0.47852 0.98001 0.6333 0.0
C285 C 0.47297 0.01434 0.73842 0.0
O286 O 0.5295 0.9796 0.76241 0.0
O287 O 0.50341 0.96019 0.75843 0.0
O288 O 0.47812 0.97135 0.68131 0.0
O289 O 0.49474 0.99019 0.62815 0.0
O290 O 0.48601 0.00368 0.7604 0.0
O291 O 0.47479 0.02064 0.68607 0.0
C292 C 0.48644 0.04845 0.56665 0.0
O293 O 0.4935 0.05202 0.61648 0.0
O294 O 0.48782 0.02975 0.5518 0.0
C295 C 0.52862 0.02854 0.70275 0.0
Tb296 Tb 0.52003 0.51865 0.65161 0.0
C297 C 0.47483 0.51421 0.63247 0.0
Tb298 Tb 0.4942 0.48707 0.71897 0.0
O299 O 0.51313 0.50163 0.5728 0.0
O300 O 0.51381 0.48719 0.64889 0.0
O301 O 0.49127 0.52634 0.62909 0.0
C302 C 0.47108 0.45595 0.75692 0.0
O303 O 0.47324 0.49747 0.66133 0.0
C304 C 0.50451 0.52139 0.77176 0.0
C305 C 0.53928 0.49059 0.73608 0.0
O306 O 0.48247 0.45548 0.71238 0.0
O307 O 0.47254 0.47399 0.77949 0.0
O308 O 0.50188 0.50449 0.79698 0.0
O309 O 0.5002 0.5185 0.7209 0.0
O310 O 0.52285 0.47846 0.73756 0.0
O311 O 0.54087 0.50782 0.70946 0.0
C312 C 0.54313 0.55127 0.6239 0.0
O313 O 0.54391 0.53348 0.60032 0.0
O314 O 0.52935 0.5506 0.66237 0.0
C315 C 0.50972 0.48464 0.59761 0.0
Tb316 Tb 0.97777 0.49635 0.63085 0.0
C317 C 0.01357 0.47125 0.61057 0.0
Tb318 Tb 0.01303 0.50497 0.70965 0.0
O319 O 0.99542 0.50687 0.55807 0.0
O320 O 0.00205 0.51805 0.63908 0.0
O321 O 0.99444 0.47146 0.60402 0.0
C322 C 0.04805 0.51221 0.75587 0.0
O323 O 0.02382 0.48431 0.64455 0.0
C324 C 0.98275 0.48295 0.75008 0.0
C325 C 0.97757 0.53056 0.72905 0.0
O326 O 0.03669 0.49567 0.75892 0.0
O327 O 0.03962 0.5249 0.7271 0.0
O328 O 0.99453 0.49459 0.78148 0.0
O329 O 0.98918 0.483 0.70004 0.0
O330 O 0.99659 0.52992 0.73701 0.0
O331 O 0.96732 0.51793 0.69393 0.0
C332 C 0.94242 0.48524 0.59028 0.0
O333 O 0.95279 0.50201 0.5802 0.0
O334 O 0.95203 0.47475 0.62267 0.0
C335 C 0.00809 0.51791 0.58842 0.0
C336 C 0.19584 0.02861 0.35562 0.0
C337 C 0.19708 0.0461 0.32448 0.0
C338 C 0.17824 0.02176 0.38266 0.0
C339 C 0.1342 0.04202 0.443 0.0
H340 H 0.11512 0.98624 0.46148 0.0
C341 C 0.0614 0.99639 0.5438 0.0
C342 C 0.06005 0.00784 0.59458 0.0
C343 C 0.07835 0.99866 0.50942 0.0
C344 C 0.12025 0.00187 0.45639 0.0
H345 H 0.18055 0.06925 0.2937 0.0
H346 H 0.14984 0.05726 0.34053 0.0
H347 H 0.14351 0.99466 0.39887 0.0
H348 H 0.07597 0.02949 0.65101 0.0
H349 H 0.10536 0.03323 0.59159 0.0
H350 H 0.11108 0.04934 0.50008 0.0
C351 C 0.16255 0.04909 0.34516 0.0
C352 C 0.13654 0.00668 0.4209 0.0
C353 C 0.18012 0.05595 0.31831 0.0
C354 C 0.0764 0.0206 0.61189 0.0
C355 C 0.09323 0.02285 0.57768 0.0
C356 C 0.11807 0.03723 0.47849 0.0
C357 C 0.16156 0.03227 0.37899 0.0
C358 C 0.14372 0.02684 0.41404 0.0
C359 C 0.09416 0.01242 0.52527 0.0
C360 C 0.11103 0.01712 0.48609 0.0
H361 H 0.20871 0.02078 0.36145 0.0
H362 H 0.17799 0.00884 0.40873 0.0
H363 H 0.1395 0.05768 0.43932 0.0
H364 H 0.04905 0.98648 0.52915 0.0
H365 H 0.07867 0.99043 0.46919 0.0
C366 C 0.40324 0.16709 0.2947 0.0
C367 C 0.39948 0.18395 0.32923 0.0
C368 C 0.41221 0.15126 0.31664 0.0
C369 C 0.44595 0.14159 0.42529 0.0
H370 H 0.42502 0.0858 0.41216 0.0
C371 C 0.4753 0.0824 0.55843 0.0
C372 C 0.47699 0.06311 0.53465 0.0
C373 C 0.4659 0.09634 0.52977 0.0
C374 C 0.43125 0.10127 0.41537 0.0
H375 H 0.40213 0.19746 0.41356 0.0
H376 H 0.418 0.16999 0.45155 0.0
H377 H 0.40818 0.11156 0.36797 0.0
H378 H 0.47004 0.04306 0.4626 0.0
H379 H 0.45392 0.0677 0.4114 0.0
H380 H 0.46912 0.13159 0.47165 0.0
C381 C 0.41389 0.16896 0.40773 0.0
C382 C 0.42155 0.11598 0.39026 0.0
C383 C 0.40469 0.18459 0.38611 0.0
C384 C 0.46903 0.05793 0.48161 0.0
C385 C 0.45967 0.07198 0.4526 0.0
C386 C 0.45574 0.12694 0.44967 0.0
C387 C 0.41789 0.15223 0.37314 0.0
C388 C 0.42865 0.13631 0.39599 0.0
C389 C 0.45808 0.09141 0.47631 0.0
C390 C 0.44833 0.10663 0.4461 0.0
H391 H 0.39929 0.16621 0.25076 0.0
H392 H 0.4152 0.13853 0.28913 0.0
H393 H 0.45192 0.15713 0.42942 0.0
H394 H 0.48108 0.08671 0.59961 0.0
H395 H 0.46454 0.11095 0.55005 0.0
C396 C 0.34705 0.53286 0.29627 0.0
C397 C 0.32922 0.53753 0.32178 0.0
C398 C 0.364 0.53381 0.32776 0.0
C399 C 0.38648 0.55177 0.46275 0.0
H400 H 0.41238 0.50273 0.44558 0.0
C401 C 0.44227 0.50434 0.58984 0.0
C402 C 0.45784 0.51906 0.60045 0.0
C403 C 0.42697 0.50833 0.55579 0.0
C404 C 0.40526 0.51648 0.45097 0.0
H405 H 0.31549 0.5481 0.39948 0.0
H406 H 0.34514 0.5499 0.45432 0.0
H407 H 0.38574 0.50794 0.38387 0.0
H408 H 0.46924 0.54973 0.58499 0.0
H409 H 0.44235 0.55671 0.52578 0.0
H410 H 0.40591 0.56006 0.53076 0.0
C411 C 0.34601 0.54556 0.40992 0.0
C412 C 0.39018 0.5196 0.41515 0.0
C413 C 0.32903 0.54457 0.37842 0.0
C414 C 0.45748 0.53805 0.57754 0.0
C415 C 0.44205 0.5421 0.54386 0.0
C416 C 0.40173 0.54872 0.49839 0.0
C417 C 0.3635 0.5395 0.38539 0.0
C418 C 0.38051 0.53718 0.42092 0.0
C419 C 0.42681 0.52717 0.53194 0.0
C420 C 0.41109 0.53091 0.49326 0.0
H421 H 0.34774 0.52775 0.25242 0.0
H422 H 0.37738 0.52943 0.30746 0.0
H423 H 0.37932 0.56549 0.46804 0.0
H424 H 0.44213 0.48952 0.60659 0.0
H425 H 0.41527 0.49661 0.54784 0.0
C426 C 0.08598 0.32916 0.37178 0.0
C427 C 0.10655 0.33088 0.36865 0.0
C428 C 0.07593 0.34489 0.39464 0.0
C429 C 0.08151 0.39932 0.43238 0.0
H430 H 0.03636 0.38574 0.5301 0.0
C431 C 0.04465 0.45778 0.57519 0.0
C432 C 0.02407 0.45595 0.57869 0.0
C433 C 0.05465 0.44306 0.54647 0.0
C434 C 0.04879 0.38977 0.50237 0.0
H435 H 0.13268 0.35073 0.38621 0.0
H436 H 0.11513 0.37802 0.42759 0.0
H437 H 0.05407 0.35909 0.4863 0.0
H438 H 0.99785 0.43745 0.55374 0.0
H439 H 0.01533 0.41173 0.50371 0.0
H440 H 0.07632 0.43007 0.4494 0.0
C441 C 0.10676 0.36457 0.4116 0.0
C442 C 0.05895 0.37449 0.47719 0.0
C443 C 0.11683 0.34883 0.38849 0.0
C444 C 0.0137 0.43927 0.55201 0.0
C445 C 0.02371 0.42448 0.52363 0.0
C446 C 0.07138 0.41462 0.45782 0.0
C447 C 0.08619 0.36271 0.41533 0.0
C448 C 0.07541 0.37907 0.44183 0.0
C449 C 0.04429 0.42614 0.52094 0.0
C450 C 0.0549 0.40999 0.49304 0.0
H451 H 0.07757 0.31547 0.35762 0.0
H452 H 0.06008 0.34306 0.39614 0.0
H453 H 0.09397 0.40335 0.40479 0.0
H454 H 0.05309 0.47055 0.5948 0.0
H455 H 0.0705 0.4447 0.54543 0.0
C456 C 0.8345 0.05822 0.04212 0.0
C457 C 0.81724 0.04515 0.04095 0.0
C458 C 0.85005 0.05516 0.00455 0.0
C459 C 0.87184 0.01726 0.91292 0.0
H460 H 0.89698 0.06376 0.83886 0.0
C461 C 0.93451 0.01095 0.74644 0.0
C462 C 0.95056 0.02552 0.75176 0.0
C463 C 0.91712 0.01309 0.77744 0.0
C464 C 0.89023 0.05064 0.85949 0.0
H465 H 0.80295 0.01838 -0.00014 0.0
H466 H 0.83031 0.01287 0.93466 0.0
H467 H 0.86913 0.06757 0.90306 0.0
H468 H 0.96072 0.05399 0.79309 0.0
H469 H 0.93067 0.05755 0.84728 0.0
H470 H 0.89321 0.00039 0.87024 0.0
C471 C 0.83175 0.02547 0.96486 0.0
C472 C 0.87427 0.05283 0.89626 0.0
C473 C 0.81612 0.0286 0.00232 0.0
C474 C 0.94867 0.04247 0.78775 0.0
C475 C 0.93135 0.0446 0.81867 0.0
C476 C 0.88789 0.01507 0.87629 0.0
C477 C 0.84876 0.0389 0.96509 0.0
C478 C 0.86507 0.03623 0.92395 0.0
C479 C 0.91542 0.02986 0.81432 0.0
C480 C 0.89744 0.0318 0.84974 0.0
H481 H 0.83601 0.07088 0.07209 0.0
H482 H 0.86314 0.06552 0.0065 0.0
H483 H 0.8651 0.00421 0.93396 0.0
H484 H 0.93544 0.99769 0.71911 0.0
H485 H 0.90504 0.00159 0.77264 0.0
C486 C 0.59688 0.84644 0.07446 0.0
C487 C 0.58266 0.83482 0.10595 0.0
C488 C 0.59155 0.86231 0.04327 0.0
C489 C 0.55046 0.87502 0.96586 0.0
H490 H 0.57328 0.93022 0.9705 0.0
C491 C 0.51613 0.93459 0.84506 0.0
C492 C 0.52847 0.94983 0.82035 0.0
C493 C 0.52359 0.92162 0.88176 0.0
C494 C 0.56695 0.9148 0.968 0.0
H495 H 0.55186 0.83111 0.13048 0.0
H496 H 0.54268 0.85859 0.07601 0.0
H497 H 0.58552 0.90605 0.03232 0.0
H498 H 0.55822 0.96369 0.81456 0.0
H499 H 0.57152 0.94052 0.87698 0.0
H500 H 0.53237 0.8832 0.90071 0.0
C501 C 0.55791 0.85552 0.0758 0.0
C502 C 0.57392 0.90103 0.00361 0.0
C503 C 0.56323 0.83992 0.10742 0.0
C504 C 0.5484 0.95202 0.83323 0.0
C505 C 0.55597 0.93882 0.86931 0.0
C506 C 0.54374 0.88861 0.92975 0.0
C507 C 0.5719 0.86653 0.04241 0.0
C508 C 0.56548 0.88112 0.00338 0.0
C509 C 0.54367 0.92334 0.89379 0.0
C510 C 0.55163 0.90878 0.93089 0.0
H511 H 0.61195 0.84287 0.07262 0.0
H512 H 0.60258 0.87061 0.01769 0.0
H513 H 0.54396 0.85963 0.96423 0.0
H514 H 0.50064 0.93273 0.83626 0.0
H515 H 0.51352 0.91028 0.90086 0.0
C516 C 0.68067 0.44808 0.00069 0.0
C517 C 0.67714 0.42856 0.02059 0.0
C518 C 0.66604 0.45687 0.97342 0.0
C519 C 0.6126 0.45268 0.95253 0.0
H520 H 0.62652 0.47888 0.81237 0.0
C521 C 0.55489 0.46619 0.79288 0.0
C522 C 0.55614 0.48481 0.76716 0.0
C523 C 0.57007 0.46102 0.82546 0.0
C524 C 0.62245 0.47187 0.85183 0.0
H525 H 0.65533 0.40321 0.02916 0.0
H526 H 0.6299 0.4184 0.98101 0.0
H527 H 0.65212 0.46701 0.86834 0.0
H528 H 0.57457 0.5125 0.75485 0.0
H529 H 0.60125 0.50337 0.81196 0.0
H530 H 0.58293 0.45719 0.93563 0.0
C531 C 0.64391 0.427 0.98678 0.0
C532 C 0.6371 0.46509 0.88393 0.0
C533 C 0.65854 0.41821 0.01387 0.0
C534 C 0.57317 0.498 0.77388 0.0
C535 C 0.58845 0.49278 0.80654 0.0
C536 C 0.59798 0.45943 0.92049 0.0
C537 C 0.64756 0.44635 0.96572 0.0
C538 C 0.63228 0.4551 0.93413 0.0
C539 C 0.58692 0.47433 0.83324 0.0
C540 C 0.6027 0.46875 0.86928 0.0
H541 H 0.69493 0.45637 0.00475 0.0
H542 H 0.66923 0.47186 0.95811 0.0
H543 H 0.60845 0.44541 0.99157 0.0
H544 H 0.54206 0.45557 0.78841 0.0
H545 H 0.56863 0.44652 0.8445 0.0
C546 C 0.89956 0.66778 0.97277 0.0
C547 C 0.90961 0.67268 0.02292 0.0
C548 C 0.90161 0.64949 0.94357 0.0
C549 C 0.92398 0.60063 0.95202 0.0
H550 H 0.93288 0.60701 0.79142 0.0
C551 C 0.97449 0.55377 0.81346 0.0
C552 C 0.96703 0.54548 0.76229 0.0
C553 C 0.9641 0.56724 0.84605 0.0
C554 C 0.93019 0.60492 0.83608 0.0
H555 H 0.92885 0.66187 0.08329 0.0
H556 H 0.93281 0.63041 0.03229 0.0
H557 H 0.91934 0.63365 0.84855 0.0
H558 H 0.94293 0.54489 0.70485 0.0
H559 H 0.92508 0.56896 0.76123 0.0
H560 H 0.93609 0.57236 0.93946 0.0
C561 C 0.92294 0.64029 0.01575 0.0
C562 C 0.92228 0.62012 0.86891 0.0
C563 C 0.92068 0.65842 0.04519 0.0
C564 C 0.94905 0.55104 0.74412 0.0
C565 C 0.93884 0.5648 0.77624 0.0
C566 C 0.9322 0.5856 0.91928 0.0
C567 C 0.91401 0.63588 0.96352 0.0
C568 C 0.91948 0.61839 0.92759 0.0
C569 C 0.94622 0.57291 0.82763 0.0
C570 C 0.93573 0.58781 0.86126 0.0
H571 H 0.89079 0.67846 0.95493 0.0
H572 H 0.89412 0.6464 0.90421 0.0
H573 H 0.92163 0.59854 0.99677 0.0
H574 H 0.98821 0.54964 0.82879 0.0
H575 H 0.97018 0.57347 0.8853 0.0
C576 C 0.09776 0.19134 0.47242 0.0
C577 C 0.11709 0.19038 0.45136 0.0
C578 C 0.0874 0.17464 0.49605 0.0
C579 C 0.08102 0.12195 0.47562 0.0
H580 H 0.05539 0.11957 0.6232 0.0
C581 C 0.03488 0.05029 0.5423 0.0
C582 C 0.01857 0.05223 0.57838 0.0
C583 C 0.04809 0.0669 0.53156 0.0
C584 C 0.06216 0.12005 0.58146 0.0
H585 H 0.14096 0.17121 0.44264 0.0
H586 H 0.12234 0.14177 0.48101 0.0
H587 H 0.07657 0.14949 0.59844 0.0
H588 H 0.00281 0.07292 0.63029 0.0
H589 H 0.02511 0.10235 0.6088 0.0
H590 H 0.06588 0.09335 0.45646 0.0
C591 C 0.11544 0.15563 0.47937 0.0
C592 C 0.07445 0.13711 0.5677 0.0
C593 C 0.12599 0.17246 0.45694 0.0
C594 C 0.01539 0.07112 0.60254 0.0
C595 C 0.02833 0.0879 0.59064 0.0
C596 C 0.06839 0.10513 0.48874 0.0
C597 C 0.09597 0.15652 0.49815 0.0
C598 C 0.08396 0.13814 0.51469 0.0
C599 C 0.04495 0.08603 0.55516 0.0
C600 C 0.05873 0.1039 0.54185 0.0
H601 H 0.09017 0.20463 0.46815 0.0
H602 H 0.07231 0.17556 0.50983 0.0
H603 H 0.08799 0.1226 0.43411 0.0
H604 H 0.03776 0.03578 0.52364 0.0
H605 H 0.0609 0.0646 0.50528 0.0
C606 C 0.3582 0.06193 0.38257 0.0
C607 C 0.33977 0.06281 0.4096 0.0
C608 C 0.37299 0.05281 0.40794 0.0
C609 C 0.38906 0.03544 0.54301 0.0
H610 H 0.41675 0.99875 0.44651 0.0
C611 C 0.44294 0.98489 0.63349 0.0
C612 C 0.46094 0.98452 0.60409 0.0
C613 C 0.42731 0.99308 0.60926 0.0
C614 C 0.40927 0.00905 0.47394 0.0
H615 H 0.32278 0.05565 0.48574 0.0
H616 H 0.34859 0.03948 0.52983 0.0
H617 H 0.3919 0.01734 0.40688 0.0
H618 H 0.47644 0.99081 0.52531 0.0
H619 H 0.44927 0.00525 0.48284 0.0
H620 H 0.4066 0.0273 0.60999 0.0
C621 C 0.35157 0.04592 0.48903 0.0
C622 C 0.39507 0.01975 0.45121 0.0
C623 C 0.33675 0.05504 0.46359 0.0
C624 C 0.46269 0.99113 0.54881 0.0
C625 C 0.4471 0.9993 0.52451 0.0
C626 C 0.40333 0.02479 0.56575 0.0
C627 C 0.3697 0.04433 0.4609 0.0
C628 C 0.38485 0.03312 0.48542 0.0
C629 C 0.42941 0.00087 0.55505 0.0
C630 C 0.41363 0.0115 0.53142 0.0
H631 H 0.36099 0.06755 0.34071 0.0
H632 H 0.38691 0.05211 0.38563 0.0
H633 H 0.38156 0.04578 0.5703 0.0
H634 H 0.44126 0.9799 0.67634 0.0
H635 H 0.41375 0.99375 0.63347 0.0
C636 C 0.42106 0.32894 0.42432 0.0
C637 C 0.40231 0.33024 0.40277 0.0
C638 C 0.43133 0.34567 0.45033 0.0
C639 C 0.43964 0.39858 0.44191 0.0
H640 H 0.45923 0.40002 0.5937 0.0
C641 C 0.48299 0.46958 0.53603 0.0
C642 C 0.49763 0.46711 0.57442 0.0
C643 C 0.47044 0.45312 0.51758 0.0
C644 C 0.4542 0.3998 0.55086 0.0
H645 H 0.37944 0.35025 0.39466 0.0
H646 H 0.39797 0.37966 0.43729 0.0
H647 H 0.43891 0.37051 0.55847 0.0
H648 H 0.51114 0.44571 0.62268 0.0
H649 H 0.49011 0.4167 0.58803 0.0
H650 H 0.45565 0.42716 0.43237 0.0
C651 C 0.40448 0.36552 0.43416 0.0
C652 C 0.4424 0.38295 0.53106 0.0
C653 C 0.39399 0.34868 0.40932 0.0
C654 C 0.49987 0.44791 0.59308 0.0
C655 C 0.48763 0.43135 0.57368 0.0
C656 C 0.4518 0.41521 0.46112 0.0
C657 C 0.42329 0.36417 0.45434 0.0
C658 C 0.43503 0.38225 0.47648 0.0
C659 C 0.47258 0.43373 0.53603 0.0
C660 C 0.45931 0.41608 0.51589 0.0
H661 H 0.42824 0.31524 0.41927 0.0
H662 H 0.44591 0.34437 0.46522 0.0
H663 H 0.43429 0.3982 0.39935 0.0
H664 H 0.48081 0.48435 0.52176 0.0
H665 H 0.45882 0.45575 0.48969 0.0
C666 C 0.18045 0.51886 0.44355 0.0
C667 C 0.18361 0.52994 0.39464 0.0
C668 C 0.16332 0.52014 0.47634 0.0
C669 C 0.11956 0.51279 0.50033 0.0
H670 H 0.0933 0.56122 0.5282 0.0
C671 C 0.03641 0.51099 0.52545 0.0
C672 C 0.02873 0.52221 0.57065 0.0
C673 C 0.05638 0.51323 0.51206 0.0
C674 C 0.10056 0.54761 0.5213 0.0
H675 H 0.17215 0.55213 0.344 0.0
H676 H 0.14224 0.55431 0.40099 0.0
H677 H 0.12744 0.5637 0.49407 0.0
H678 H 0.03552 0.54531 0.6354 0.0
H679 H 0.07072 0.54947 0.61146 0.0
H680 H 0.09258 0.49666 0.52588 0.0
C681 C 0.15293 0.54465 0.41414 0.0
C682 C 0.12002 0.54901 0.5015 0.0
C683 C 0.16996 0.54327 0.38119 0.0
C684 C 0.04123 0.53632 0.60085 0.0
C685 C 0.06126 0.53875 0.58701 0.0
C686 C 0.10011 0.51139 0.5196 0.0
C687 C 0.14914 0.53264 0.46106 0.0
C688 C 0.12959 0.53158 0.4897 0.0
C689 C 0.06904 0.52694 0.54308 0.0
C690 C 0.09028 0.52874 0.52899 0.0
H691 H 0.1907 0.50842 0.4548 0.0
H692 H 0.16086 0.51085 0.5126 0.0
H693 H 0.12644 0.49906 0.49114 0.0
H694 H 0.0271 0.49995 0.50156 0.0
H695 H 0.06193 0.50416 0.47741 0.0
C696 C 0.94273 0.8399 0.97783 0.0
C697 C 0.95463 0.82399 0.96995 0.0
C698 C 0.94724 0.85776 0.94984 0.0
C699 C 0.95543 0.89112 0.86668 0.0
H700 H 0.01026 0.91137 0.86213 0.0
C701 C 0.98393 0.96318 0.75245 0.0
C702 C 0.99843 0.97591 0.7795 0.0
C703 C 0.97817 0.94422 0.77295 0.0
C704 C 0.99488 0.90598 0.86334 0.0
H705 H 0.97993 0.81388 0.92426 0.0
H706 H 0.98773 0.84498 0.87506 0.0
H707 H 0.00057 0.87887 0.9016 0.0
H708 H 0.01756 0.97962 0.85072 0.0
H709 H 0.0074 0.94656 0.88738 0.0
H710 H 0.94972 0.91856 0.82988 0.0
C711 C 0.97517 0.84384 0.90382 0.0
C712 C 0.98934 0.88722 0.88528 0.0
C713 C 0.97069 0.82602 0.9319 0.0
C714 C 0.0066 0.96981 0.82862 0.0
C715 C 0.00087 0.95087 0.84926 0.0
C716 C 0.96098 0.90991 0.84469 0.0
C717 C 0.96372 0.86005 0.9133 0.0
C718 C 0.96955 0.87961 0.8875 0.0
C719 C 0.98669 0.93779 0.82141 0.0
C720 C 0.98076 0.91761 0.84318 0.0
H721 H 0.93038 0.83885 0.00735 0.0
H722 H 0.93825 0.87003 0.95855 0.0
H723 H 0.94008 0.8856 0.86738 0.0
H724 H 0.97663 0.96808 0.71653 0.0
H725 H 0.96715 0.93458 0.75066 0.0
C726 C 0.67679 0.0658 0.97309 0.0
C727 C 0.67566 0.06158 0.03061 0.0
C728 C 0.66022 0.06248 0.93999 0.0
C729 C 0.61248 0.03289 0.93191 0.0
H730 H 0.60147 0.07228 0.82491 0.0
C731 C 0.54233 0.02566 0.79851 0.0
C732 C 0.54483 0.03136 0.74236 0.0
C733 C 0.55782 0.02917 0.83584 0.0
C734 C 0.60444 0.06102 0.85415 0.0
H735 H 0.65633 0.05043 0.09849 0.0
H736 H 0.62732 0.04479 0.04066 0.0
H737 H 0.62943 0.07904 0.88593 0.0
H738 H 0.56543 0.04464 0.68056 0.0
H739 H 0.59244 0.05048 0.74506 0.0
H740 H 0.58763 0.01473 0.89946 0.0
C741 C 0.64104 0.05061 0.02122 0.0
C742 C 0.62045 0.06493 0.88915 0.0
C743 C 0.65759 0.05406 0.05441 0.0
C744 C 0.56306 0.04028 0.72385 0.0
C745 C 0.5785 0.04373 0.76091 0.0
C746 C 0.59649 0.02893 0.89664 0.0
C747 C 0.6422 0.05475 0.96364 0.0
C748 C 0.62474 0.05084 0.92806 0.0
C749 C 0.57602 0.03845 0.81751 0.0
C750 C 0.59242 0.04288 0.85696 0.0
H751 H 0.6905 0.07168 0.95368 0.0
H752 H 0.66159 0.06563 0.89559 0.0
H753 H 0.61555 0.02167 0.96117 0.0
H754 H 0.52835 0.01881 0.81376 0.0
H755 H 0.5554 0.02503 0.87928 0.0
C756 C 0.56759 0.68758 0.93261 0.0
C757 C 0.57973 0.68914 0.97959 0.0
C758 C 0.56367 0.66917 0.90333 0.0
C759 C 0.55932 0.61614 0.93356 0.0
H760 H 0.55043 0.60808 0.77337 0.0
C761 C 0.52867 0.53946 0.83681 0.0
C762 C 0.51467 0.54002 0.7952 0.0
C763 C 0.53928 0.55717 0.85592 0.0
C764 C 0.55273 0.61014 0.81827 0.0
H765 H 0.59832 0.67292 0.03023 0.0
H766 H 0.5917 0.64094 0.97855 0.0
H767 H 0.56559 0.64033 0.80986 0.0
H768 H 0.50016 0.55923 0.74214 0.0
H769 H 0.51829 0.59024 0.77632 0.0
H770 H 0.54586 0.58634 0.9426 0.0
C771 C 0.58504 0.65389 0.96486 0.0
C772 C 0.56149 0.62857 0.83904 0.0
C773 C 0.589 0.67228 0.99403 0.0
C774 C 0.51106 0.55849 0.77393 0.0
C775 C 0.52157 0.57619 0.79314 0.0
C776 C 0.55049 0.59779 0.9129 0.0
C777 C 0.57176 0.65197 0.9206 0.0
C778 C 0.56461 0.63184 0.89704 0.0
C779 C 0.53591 0.57574 0.8341 0.0
C780 C 0.54678 0.59468 0.85516 0.0
H781 H 0.56042 0.70038 0.92012 0.0
H782 H 0.55334 0.66817 0.86946 0.0
H783 H 0.56121 0.61831 0.97862 0.0
H784 H 0.53178 0.52531 0.85342 0.0
H785 H 0.55033 0.55627 0.88714 0.0
C786 C 0.82437 0.39942 0.90531 0.0
C787 C 0.81447 0.41226 0.94194 0.0
C788 C 0.84174 0.40653 0.87746 0.0
C789 C 0.87201 0.45405 0.84334 0.0
H790 H 0.9142 0.41935 0.82861 0.0
C791 C 0.95318 0.483 0.81305 0.0
C792 C 0.96333 0.47404 0.76813 0.0
C793 C 0.93438 0.47505 0.82885 0.0
C794 C 0.90246 0.42911 0.832 0.0
H795 H 0.81503 0.4424 0.97907 0.0
H796 H 0.84545 0.45465 0.93225 0.0
H797 H 0.88224 0.40615 0.8657 0.0
H798 H 0.96232 0.44962 0.70526 0.0
H799 H 0.92946 0.43533 0.73392 0.0
H800 H 0.89266 0.47724 0.81216 0.0
C801 C 0.83961 0.43931 0.92307 0.0
C802 C 0.88411 0.42155 0.85294 0.0
C803 C 0.82218 0.43229 0.95018 0.0
C804 C 0.95463 0.45681 0.73984 0.0
C805 C 0.93595 0.44863 0.75629 0.0
C806 C 0.89043 0.46166 0.82336 0.0
C807 C 0.84967 0.42654 0.88641 0.0
C808 C 0.86871 0.43402 0.85965 0.0
C809 C 0.92563 0.45779 0.80066 0.0
C810 C 0.90585 0.44932 0.81819 0.0
H811 H 0.81865 0.38392 0.89813 0.0
H812 H 0.84892 0.39634 0.84895 0.0
H813 H 0.86041 0.46397 0.84651 0.0
H814 H 0.95961 0.49637 0.83525 0.0
H815 H 0.92674 0.48226 0.86349 0.0
C816 C 0.10289 0.18529 0.11245 0.0
C817 C 0.10932 0.20488 0.09725 0.0
C818 C 0.09492 0.17128 0.07253 0.0
C819 C 0.09077 0.15997 0.91896 0.0
H820 H 0.0483 0.12227 0.97069 0.0
C821 C 0.04474 0.09949 0.77875 0.0
C822 C 0.04412 0.0801 0.79955 0.0
C823 C 0.05304 0.11604 0.81065 0.0
C824 C 0.06014 0.13272 0.95572 0.0
H825 H 0.11287 0.22515 0.02825 0.0
H826 H 0.09836 0.20067 0.95803 0.0
H827 H 0.06156 0.14915 0.03461 0.0
H828 H 0.05196 0.06262 0.86885 0.0
H829 H 0.06599 0.09151 0.92499 0.0
H830 H 0.08889 0.14341 0.83944 0.0
C831 C 0.09975 0.19608 0.00081 0.0
C832 C 0.06785 0.14805 0.99235 0.0
C833 C 0.10799 0.21011 0.04091 0.0
C834 C 0.05223 0.07743 0.85195 0.0
C835 C 0.06018 0.09392 0.88411 0.0
C836 C 0.0828 0.14473 0.8819 0.0
C837 C 0.09292 0.17654 0.01639 0.0
C838 C 0.08361 0.16155 0.97503 0.0
C839 C 0.06046 0.11337 0.86408 0.0
C840 C 0.06775 0.13072 0.90055 0.0
H841 H 0.10414 0.18076 0.15538 0.0
H842 H 0.09041 0.15623 0.08578 0.0
H843 H 0.10295 0.17004 0.90427 0.0
H844 H 0.03864 0.10187 0.73824 0.0
H845 H 0.05311 0.13094 0.79448 0.0
C846 C 0.32809 0.03052 0.0413 0.0
C847 C 0.32132 0.04973 0.04555 0.0
C848 C 0.34281 0.02619 0.00204 0.0
C849 C 0.38296 0.05268 0.91794 0.0
H850 H 0.38923 0.99902 0.85658 0.0
C851 C 0.44405 0.03397 0.75648 0.0
C852 C 0.4553 0.01867 0.77197 0.0
C853 C 0.42689 0.0376 0.78665 0.0
C854 C 0.38763 0.01405 0.87361 0.0
H855 H 0.32398 0.07902 0.00858 0.0
H856 H 0.34856 0.07106 0.93798 0.0
H857 H 0.3595 0.00542 0.91069 0.0
H858 H 0.45723 0.99496 0.83052 0.0
H859 H 0.42696 0.00116 0.88273 0.0
H860 H 0.41095 0.06128 0.87951 0.0
C861 C 0.34312 0.05956 0.96668 0.0
C862 C 0.37065 0.01775 0.9048 0.0
C863 C 0.32867 0.06402 0.00666 0.0
C864 C 0.44897 0.00699 0.81797 0.0
C865 C 0.4316 0.01039 0.8475 0.0
C866 C 0.39972 0.04904 0.8859 0.0
C867 C 0.3509 0.04083 0.96514 0.0
C868 C 0.36819 0.03707 0.92805 0.0
C869 C 0.42046 0.02576 0.83215 0.0
C870 C 0.40231 0.02966 0.86409 0.0
H871 H 0.32247 0.01893 0.06953 0.0
H872 H 0.34839 0.01161 0.00251 0.0
H873 H 0.38191 0.06765 0.93609 0.0
H874 H 0.44851 0.04318 0.72108 0.0
H875 H 0.41848 0.04949 0.77394 0.0
C876 C 0.4043 0.30365 0.99621 0.0
C877 C 0.40658 0.30702 0.05454 0.0
C878 C 0.41137 0.31838 0.95861 0.0
C879 C 0.44482 0.36565 0.95231 0.0
H880 H 0.41527 0.37525 0.8208 0.0
C881 C 0.45407 0.43985 0.83946 0.0
C882 C 0.46084 0.43826 0.78326 0.0
C883 C 0.44679 0.42274 0.86758 0.0
C884 C 0.42368 0.37257 0.8572 0.0
H885 H 0.41735 0.32861 0.11946 0.0
H886 H 0.42906 0.35438 0.0548 0.0
H887 H 0.40433 0.34708 0.88021 0.0
H888 H 0.46439 0.41784 0.71121 0.0
H889 H 0.45098 0.38777 0.76041 0.0
H890 H 0.46356 0.39174 0.93069 0.0
C891 C 0.4226 0.34018 0.03734 0.0
C892 C 0.41753 0.35641 0.89108 0.0
C893 C 0.41582 0.32541 0.0746 0.0
C894 C 0.45925 0.41941 0.75462 0.0
C895 C 0.4516 0.40227 0.78258 0.0
C896 C 0.4507 0.38194 0.91916 0.0
C897 C 0.4206 0.33688 0.97877 0.0
C898 C 0.42786 0.35295 0.93967 0.0
C899 C 0.44581 0.4038 0.83969 0.0
C900 C 0.44005 0.38569 0.87184 0.0
H901 H 0.39719 0.28957 0.97972 0.0
H902 H 0.40973 0.31521 0.91382 0.0
H903 H 0.45351 0.36318 0.98828 0.0
H904 H 0.45516 0.4542 0.8625 0.0
H905 H 0.4423 0.42423 0.91158 0.0
C906 C 0.19875 0.50787 0.00085 0.0
C907 C 0.21077 0.52548 0.01456 0.0
C908 C 0.18245 0.50851 0.96769 0.0
C909 C 0.15745 0.53633 0.86751 0.0
H910 H 0.11098 0.50992 0.93894 0.0
C911 C 0.07868 0.53426 0.77815 0.0
C912 C 0.06742 0.5157 0.78147 0.0
C913 C 0.09683 0.53737 0.80429 0.0
C914 C 0.12382 0.51722 0.91813 0.0
H915 H 0.21568 0.5574 0.0008 0.0
H916 H 0.18685 0.55846 0.94245 0.0
H917 H 0.14209 0.51174 0.98606 0.0
H918 H 0.06642 0.48569 0.81275 0.0
H919 H 0.09799 0.49094 0.85744 0.0
H920 H 0.13906 0.54137 0.79878 0.0
C921 C 0.19024 0.54421 0.95783 0.0
C922 C 0.14162 0.51829 0.9452 0.0
C923 C 0.20664 0.5436 0.99142 0.0
C924 C 0.07471 0.50022 0.81007 0.0
C925 C 0.09276 0.50328 0.83595 0.0
C926 C 0.13953 0.53513 0.84002 0.0
C927 C 0.17766 0.52675 0.94739 0.0
C928 C 0.15869 0.52743 0.91969 0.0
C929 C 0.10392 0.52196 0.83415 0.0
C930 C 0.12263 0.52512 0.86459 0.0
H931 H 0.20118 0.49368 0.01845 0.0
H932 H 0.17312 0.49477 0.95963 0.0
H933 H 0.17043 0.54351 0.84712 0.0
H934 H 0.07337 0.54641 0.75599 0.0
H935 H 0.10508 0.55193 0.80227 0.0
C936 C 0.91176 0.82253 0.30612 0.0
C937 C 0.9168 0.80376 0.32237 0.0
C938 C 0.91328 0.8391 0.34405 0.0
C939 C 0.94414 0.85704 0.46028 0.0
H940 H 0.9123 0.90197 0.47001 0.0
C941 C 0.96941 0.92865 0.58854 0.0
C942 C 0.96677 0.94697 0.56463 0.0
C943 C 0.9601 0.91075 0.56633 0.0
C944 C 0.92141 0.8896 0.46742 0.0
H945 H 0.92529 0.78715 0.39269 0.0
H946 H 0.92797 0.81611 0.45893 0.0
H947 H 0.90032 0.87088 0.41926 0.0
H948 H 0.95203 0.96119 0.4999 0.0
H949 H 0.93632 0.9298 0.45929 0.0
H950 H 0.96563 0.87576 0.50565 0.0
C951 C 0.92322 0.81808 0.41656 0.0
C952 C 0.91449 0.87178 0.43866 0.0
C953 C 0.92167 0.80151 0.3787 0.0
C954 C 0.95431 0.9472 0.51892 0.0
C955 C 0.94519 0.92922 0.49606 0.0
C956 C 0.95111 0.87483 0.48847 0.0
C957 C 0.9199 0.83721 0.39886 0.0
C958 C 0.92588 0.85538 0.43439 0.0
C959 C 0.94819 0.91073 0.51905 0.0
C960 C 0.93996 0.89143 0.492 0.0
H961 H 0.90811 0.82481 0.26292 0.0
H962 H 0.91071 0.85366 0.32908 0.0
H963 H 0.95348 0.84485 0.45665 0.0
H964 H 0.97871 0.92813 0.62448 0.0
H965 H 0.96239 0.8969 0.58604 0.0
C966 C 0.69101 0.02041 0.3901 0.0
C967 C 0.69804 0.00927 0.34351 0.0
C968 C 0.67448 0.01306 0.42099 0.0
C969 C 0.64242 0.99071 0.49139 0.0
H970 H 0.5976 0.97688 0.39677 0.0
C971 C 0.56468 0.97679 0.58674 0.0
C972 C 0.55107 0.98849 0.56391 0.0
C973 C 0.5826 0.97449 0.55904 0.0
C974 C 0.61001 0.98056 0.42369 0.0
H975 H 0.69395 0.9808 0.29606 0.0
H976 H 0.66459 0.96831 0.34918 0.0
H977 H 0.63045 0.98134 0.35374 0.0
H978 H 0.54521 0.00595 0.49236 0.0
H979 H 0.57651 0.00185 0.44395 0.0
H980 H 0.62196 0.99074 0.56108 0.0
C981 C 0.67197 0.9828 0.36131 0.0
C982 C 0.62881 0.98291 0.39919 0.0
C983 C 0.68873 0.99002 0.33083 0.0
C984 C 0.55537 0.99691 0.51123 0.0
C985 C 0.57326 0.99446 0.48331 0.0
C986 C 0.62366 0.98815 0.51593 0.0
C987 C 0.66442 0.9945 0.40576 0.0
C988 C 0.64512 0.98856 0.43267 0.0
C989 C 0.58725 0.98367 0.50769 0.0
C990 C 0.60722 0.98358 0.48217 0.0
H991 H 0.69745 0.03542 0.40077 0.0
H992 H 0.66886 0.02252 0.45466 0.0
H993 H 0.65476 0.99501 0.51813 0.0
H994 H 0.56187 0.97002 0.62716 0.0
H995 H 0.59304 0.96592 0.57849 0.0
C996 C 0.59849 0.70965 0.42031 0.0
C997 C 0.60731 0.70497 0.36786 0.0
C998 C 0.59689 0.69568 0.46278 0.0
C999 C 0.61015 0.64472 0.50001 0.0
H1000 H 0.55659 0.63935 0.55782 0.0
C1001 C 0.5685 0.5695 0.56229 0.0
C1002 C 0.55506 0.56972 0.60792 0.0
C1003 C 0.57849 0.58742 0.54456 0.0
C1004 C 0.57172 0.64078 0.54306 0.0
H1005 H 0.62354 0.6831 0.32144 0.0
H1006 H 0.62016 0.65854 0.39423 0.0
H1007 H 0.56863 0.66912 0.5084 0.0
H1008 H 0.54222 0.58852 0.67277 0.0
H1009 H 0.55965 0.61978 0.64193 0.0
H1010 H 0.61269 0.61566 0.53235 0.0
C1011 C 0.61451 0.67293 0.40316 0.0
C1012 C 0.5787 0.65796 0.51482 0.0
C1013 C 0.61629 0.68697 0.36101 0.0
C1014 C 0.55238 0.58798 0.63706 0.0
C1015 C 0.56232 0.60586 0.61936 0.0
C1016 C 0.60308 0.6274 0.52794 0.0
C1017 C 0.60392 0.67669 0.45348 0.0
C1018 C 0.59787 0.65999 0.49171 0.0
C1019 C 0.57517 0.60585 0.57216 0.0
C1020 C 0.58364 0.62507 0.54868 0.0
H1021 H 0.59146 0.7234 0.4271 0.0
H1022 H 0.58911 0.69931 0.50166 0.0
H1023 H 0.62508 0.64588 0.48359 0.0
H1024 H 0.57085 0.55559 0.53926 0.0
H1025 H 0.58815 0.58694 0.50774 0.0
C1026 C 0.79697 0.41101 0.34735 0.0
C1027 C 0.78956 0.42481 0.31244 0.0
C1028 C 0.81082 0.41747 0.38778 0.0
C1029 C 0.83583 0.46312 0.46006 0.0
H1030 H 0.87886 0.42963 0.46396 0.0
C1031 C 0.91349 0.49152 0.53437 0.0
C1032 C 0.92301 0.47878 0.56762 0.0
C1033 C 0.89539 0.48498 0.51114 0.0
C1034 C 0.86684 0.43902 0.46401 0.0
H1035 H 0.7898 0.45646 0.29592 0.0
H1036 H 0.81451 0.46761 0.36445 0.0
H1037 H 0.85005 0.41802 0.41054 0.0
H1038 H 0.921 0.44952 0.6042 0.0
H1039 H 0.88948 0.43799 0.56307 0.0
H1040 H 0.85323 0.48449 0.51179 0.0
C1041 C 0.8095 0.45179 0.36121 0.0
C1042 C 0.85024 0.43233 0.43355 0.0
C1043 C 0.7955 0.44536 0.32122 0.0
C1044 C 0.914 0.45957 0.57833 0.0
C1045 C 0.89601 0.45298 0.55475 0.0
C1046 C 0.85256 0.4699 0.49011 0.0
C1047 C 0.81775 0.43786 0.39391 0.0
C1048 C 0.83458 0.44437 0.43065 0.0
C1049 C 0.88662 0.46553 0.52045 0.0
C1050 C 0.86831 0.45798 0.49189 0.0
H1051 H 0.79284 0.39506 0.34172 0.0
H1052 H 0.81651 0.40636 0.41309 0.0
H1053 H 0.82394 0.47266 0.45951 0.0
H1054 H 0.92013 0.50642 0.52568 0.0
H1055 H 0.88857 0.4949 0.48444 0.0
loop_
_geom_bond_atom_site_label_1
_geom_bond_atom_site_label_2
_geom_bond_distance
_geom_bond_site_symmetry_2
_ccdc_geom_bond_type
P0 O11 1.490 . S
P0 C14 1.812 . S
P0 C20 1.803 . S
P0 C26 1.819 . S
H1 C15 0.941 . S
H2 C16 0.939 . S
H3 C18 0.940 . S
H4 C19 0.940 . S
H5 C21 0.939 . S
H6 C22 0.942 1_556 S
H7 C24 0.940 . S
H8 C25 0.939 . S
H9 C27 0.941 . S
H10 C31 0.939 . S
O11 P0 1.490 . S
H12 C28 0.939 . S
H13 C30 0.940 . S
C14 P0 1.812 . S
C14 C15 1.389 . S
C14 C19 1.391 . S
C15 H1 0.941 . S
C15 C14 1.389 . S
C15 C16 1.397 . S
C16 H2 0.939 . S
C16 C15 1.397 . S
C16 C17 1.378 . S
C17 C16 1.378 . S
C17 C18 1.378 . S
C18 H3 0.940 . S
C18 C17 1.378 . S
C18 C19 1.396 . S
C19 H4 0.940 . S
C19 C14 1.391 . S
C19 C18 1.396 . S
C20 P0 1.803 . S
C20 C21 1.378 . S
C20 C25 1.400 . S
C21 H5 0.939 . S
C21 C20 1.378 . S
C21 C22 1.361 . S
C22 H6 0.942 1_554 S
C22 C21 1.361 . S
C22 C23 1.369 . S
C23 C22 1.369 . S
C23 C24 1.404 . S
C24 H7 0.940 . S
C24 C23 1.404 . S
C24 C25 1.389 . S
C25 H8 0.939 . S
C25 C20 1.400 . S
C25 C24 1.389 . S
C26 P0 1.819 . S
C26 C27 1.391 . S
C26 C31 1.391 1_554 S
C27 H9 0.941 . S
C27 C26 1.391 . S
C27 C28 1.396 1_554 S
C28 H12 0.939 . S
C28 C27 1.396 1_556 S
C28 C29 1.397 . S
C29 C28 1.397 . S
C29 C30 1.385 . S
C30 H13 0.940 . S
C30 C29 1.385 . S
C30 C31 1.388 . S
C31 H10 0.939 . S
C31 C26 1.391 1_556 S
C31 C30 1.388 . S
P32 O43 1.490 . S
P32 C46 1.812 . S
P32 C52 1.803 . S
P32 C58 1.819 1_554 S
H33 C47 0.941 . S
H34 C48 0.939 . S
H35 C50 0.940 . S
H36 C51 0.940 . S
H37 C53 0.939 . S
H38 C54 0.942 . S
H39 C56 0.940 . S
H40 C57 0.939 . S
H41 C59 0.941 1_554 S
H42 C63 0.939 . S
O43 P32 1.490 . S
H44 C60 0.939 . S
H45 C62 0.940 . S
C46 P32 1.812 . S
C46 C47 1.389 . S
C46 C51 1.391 . S
C47 H33 0.941 . S
C47 C46 1.389 . S
C47 C48 1.397 . S
C48 H34 0.939 . S
C48 C47 1.397 . S
C48 C49 1.378 . S
C49 C48 1.378 . S
C49 C50 1.378 . S
C50 H35 0.940 . S
C50 C49 1.378 . S
C50 C51 1.396 . S
C51 H36 0.940 . S
C51 C46 1.391 . S
C51 C50 1.396 . S
C52 P32 1.803 . S
C52 C53 1.378 1_554 S
C52 C57 1.400 . S
C53 H37 0.939 . S
C53 C52 1.378 1_556 S
C53 C54 1.361 . S
C54 H38 0.942 . S
C54 C53 1.361 . S
C54 C55 1.369 . S
C55 C54 1.369 . S
C55 C56 1.404 1_556 S
C56 H39 0.940 . S
C56 C55 1.404 1_554 S
C56 C57 1.389 . S
C57 H40 0.939 . S
C57 C52 1.400 . S
C57 C56 1.389 . S
C58 P32 1.819 1_556 S
C58 C59 1.391 . S
C58 C63 1.391 . S
C59 H41 0.941 1_556 S
C59 C58 1.391 . S
C59 C60 1.396 . S
C60 H44 0.939 . S
C60 C59 1.396 . S
C60 C61 1.397 . S
C61 C60 1.397 . S
C61 C62 1.385 . S
C62 H45 0.940 . S
C62 C61 1.385 . S
C62 C63 1.388 . S
C63 H42 0.939 . S
C63 C58 1.391 . S
C63 C62 1.388 . S
P64 O75 1.490 . S
P64 C78 1.812 . S
P64 C84 1.803 . S
P64 C90 1.819 . S
H65 C79 0.941 . S
H66 C80 0.939 . S
H67 C82 0.940 . S
H68 C83 0.954 . S
H69 C85 0.939 . S
H70 C86 0.942 . S
H71 C88 0.940 . S
H72 C89 0.963 . S
H73 C91 0.941 . S
H74 C95 0.923 1_565 S
O75 P64 1.490 . S
H76 C92 0.939 . S
H77 C94 0.940 . S
C78 P64 1.812 . S
C78 C79 1.389 . S
C78 C83 1.369 1_545 S
C79 H65 0.941 . S
C79 C78 1.389 . S
C79 C80 1.397 . S
C80 H66 0.939 . S
C80 C79 1.397 . S
C80 C81 1.378 . S
C81 C80 1.378 . S
C81 C82 1.378 1_545 S
C82 H67 0.940 . S
C82 C81 1.378 1_565 S
C82 C83 1.406 . S
C83 H68 0.954 . S
C83 C78 1.369 1_565 S
C83 C82 1.406 . S
C84 P64 1.803 . S
C84 C85 1.378 . S
C84 C89 1.359 1_545 S
C85 H69 0.939 . S
C85 C84 1.378 . S
C85 C86 1.361 . S
C86 H70 0.942 . S
C86 C85 1.361 . S
C86 C87 1.369 . S
C87 C86 1.369 . S
C87 C88 1.404 1_545 S
C88 H71 0.940 . S
C88 C87 1.404 1_565 S
C88 C89 1.408 . S
C89 H72 0.963 . S
C89 C84 1.359 1_565 S
C89 C88 1.408 . S
C90 P64 1.819 . S
C90 C91 1.391 . S
C90 C95 1.391 . S
C91 H73 0.941 . S
C91 C90 1.391 . S
C91 C92 1.396 . S
C92 H76 0.939 . S
C92 C91 1.396 . S
C92 C93 1.397 1_554 S
C93 C92 1.397 1_556 S
C93 C94 1.385 1_545 S
C94 H77 0.940 . S
C94 C93 1.385 1_565 S
C94 C95 1.388 1_566 S
C95 H74 0.923 1_545 S
C95 C90 1.391 . S
C95 C94 1.388 1_544 S
P96 O107 1.490 . S
P96 C110 1.812 . S
P96 C116 1.803 . S
P96 C122 1.819 . S
H97 C111 0.941 . S
H98 C112 0.939 . S
H99 C114 0.940 . S
H100 C115 0.940 . S
H101 C117 0.939 . S
H102 C118 0.942 . S
H103 C120 0.940 . S
H104 C121 0.939 . S
H105 C123 0.941 . S
H106 C127 0.940 . S
O107 P96 1.490 . S
H108 C124 0.939 . S
H109 C126 0.940 . S
C110 P96 1.812 . S
C110 C111 1.389 . S
C110 C115 1.391 . S
C111 H97 0.941 . S
C111 C110 1.389 . S
C111 C112 1.397 . S
C112 H98 0.939 . S
C112 C111 1.397 . S
C112 C113 1.378 . S
C113 C112 1.378 . S
C113 C114 1.378 . S
C114 H99 0.940 . S
C114 C113 1.378 . S
C114 C115 1.396 . S
C115 H100 0.940 . S
C115 C110 1.391 . S
C115 C114 1.396 . S
C116 P96 1.803 . S
C116 C117 1.378 . S
C116 C121 1.400 . S
C117 H101 0.939 . S
C117 C116 1.378 . S
C117 C118 1.361 . S
C118 H102 0.942 . S
C118 C117 1.361 . S
C118 C119 1.369 . S
C119 C118 1.369 . S
C119 C120 1.404 . S
C120 H103 0.940 . S
C120 C119 1.404 . S
C120 C121 1.389 . S
C121 H104 0.939 . S
C121 C116 1.400 . S
C121 C120 1.389 . S
C122 P96 1.819 . S
C122 C123 1.391 . S
C122 C127 1.378 1_554 S
C123 H105 0.941 . S
C123 C122 1.391 . S
C123 C124 1.396 1_554 S
C124 H108 0.939 . S
C124 C123 1.396 1_556 S
C124 C125 1.397 . S
C125 C124 1.397 . S
C125 C126 1.385 . S
C126 H109 0.940 . S
C126 C125 1.385 . S
C126 C127 1.401 . S
C127 H106 0.940 . S
C127 C122 1.378 1_556 S
C127 C126 1.401 . S
P128 O139 1.490 . S
P128 C142 1.812 . S
P128 C148 1.803 . S
P128 C154 1.819 . S
H129 C143 0.941 . S
H130 C144 0.939 . S
H131 C146 0.940 . S
H132 C147 0.940 . S
H133 C149 0.939 . S
H134 C150 0.942 . S
H135 C152 0.940 . S
H136 C153 0.939 . S
H137 C155 0.941 . S
H138 C159 0.939 . S
O139 P128 1.490 . S
H140 C156 0.939 . S
H141 C158 0.940 . S
C142 P128 1.812 . S
C142 C143 1.389 . S
C142 C147 1.391 . S
C143 H129 0.941 . S
C143 C142 1.389 . S
C143 C144 1.397 . S
C144 H130 0.939 . S
C144 C143 1.397 . S
C144 C145 1.378 . S
C145 C144 1.378 . S
C145 C146 1.378 . S
C146 H131 0.940 . S
C146 C145 1.378 . S
C146 C147 1.396 . S
C147 H132 0.940 . S
C147 C142 1.391 . S
C147 C146 1.396 . S
C148 P128 1.803 . S
C148 C149 1.378 . S
C148 C153 1.400 . S
C149 H133 0.939 . S
C149 C148 1.378 . S
C149 C150 1.361 . S
C150 H134 0.942 . S
C150 C149 1.361 . S
C150 C151 1.369 . S
C151 C150 1.369 . S
C151 C152 1.404 . S
C152 H135 0.940 . S
C152 C151 1.404 . S
C152 C153 1.389 . S
C153 H136 0.939 . S
C153 C148 1.400 . S
C153 C152 1.389 . S
C154 P128 1.819 . S
C154 C155 1.391 . S
C154 C159 1.391 . S
C155 H137 0.941 . S
C155 C154 1.391 . S
C155 C156 1.396 . S
C156 H140 0.939 . S
C156 C155 1.396 . S
C156 C157 1.397 . S
C157 C156 1.397 . S
C157 C158 1.385 . S
C158 H141 0.940 . S
C158 C157 1.385 . S
C158 C159 1.388 . S
C159 H138 0.939 . S
C159 C154 1.391 . S
C159 C158 1.388 . S
P160 O171 1.490 . S
P160 C174 1.812 . S
P160 C180 1.803 . S
P160 C186 1.819 . S
H161 C175 0.941 . S
H162 C176 0.939 . S
H163 C178 0.940 . S
H164 C179 0.940 . S
H165 C181 0.939 . S
H166 C182 0.942 . S
H167 C184 0.940 . S
H168 C185 0.939 . S
H169 C187 0.941 . S
H170 C191 0.939 . S
O171 P160 1.490 . S
H172 C188 0.939 . S
H173 C190 0.940 . S
C174 P160 1.812 . S
C174 C175 1.389 . S
C174 C179 1.391 . S
C175 H161 0.941 . S
C175 C174 1.389 . S
C175 C176 1.397 . S
C176 H162 0.939 . S
C176 C175 1.397 . S
C176 C177 1.378 . S
C177 C176 1.378 . S
C177 C178 1.378 . S
C178 H163 0.940 . S
C178 C177 1.378 . S
C178 C179 1.396 . S
C179 H164 0.940 . S
C179 C174 1.391 . S
C179 C178 1.396 . S
C180 P160 1.803 . S
C180 C181 1.378 . S
C180 C185 1.400 . S
C181 H165 0.939 . S
C181 C180 1.378 . S
C181 C182 1.361 . S
C182 H166 0.942 . S
C182 C181 1.361 . S
C182 C183 1.369 . S
C183 C182 1.369 . S
C183 C184 1.404 . S
C184 H167 0.940 . S
C184 C183 1.404 . S
C184 C185 1.389 . S
C185 H168 0.939 . S
C185 C180 1.400 . S
C185 C184 1.389 . S
C186 P160 1.819 . S
C186 C187 1.391 . S
C186 C191 1.391 . S
C187 H169 0.941 . S
C187 C186 1.391 . S
C187 C188 1.396 . S
C188 H172 0.939 . S
C188 C187 1.396 . S
C188 C189 1.397 . S
C189 C188 1.397 . S
C189 C190 1.385 . S
C190 H173 0.940 . S
C190 C189 1.385 . S
C190 C191 1.388 . S
C191 H170 0.939 . S
C191 C186 1.391 . S
C191 C190 1.388 . S
P192 O203 1.490 . S
P192 C206 1.812 . S
P192 C212 1.803 . S
P192 C218 1.819 . S
H193 C207 0.941 . S
H194 C208 0.939 . S
H195 C210 0.940 1_565 S
H196 C211 0.940 . S
H197 C213 0.939 . S
H198 C214 0.942 . S
H199 C216 0.940 1_565 S
H200 C217 0.939 . S
H201 C219 0.941 . S
H202 C223 0.939 . S
O203 P192 1.490 . S
H204 C220 0.939 . S
H205 C222 0.940 . S
C206 P192 1.812 . S
C206 C207 1.389 . S
C206 C211 1.391 . S
C207 H193 0.941 . S
C207 C206 1.389 . S
C207 C208 1.397 . S
C208 H194 0.939 . S
C208 C207 1.397 . S
C208 C209 1.378 . S
C209 C208 1.378 . S
C209 C210 1.378 . S
C210 H195 0.940 1_545 S
C210 C209 1.378 . S
C210 C211 1.396 . S
C211 H196 0.940 . S
C211 C206 1.391 . S
C211 C210 1.396 . S
C212 P192 1.803 . S
C212 C213 1.378 . S
C212 C217 1.400 . S
C213 H197 0.939 . S
C213 C212 1.378 . S
C213 C214 1.361 . S
C214 H198 0.942 . S
C214 C213 1.361 . S
C214 C215 1.369 . S
C215 C214 1.369 . S
C215 C216 1.404 . S
C216 H199 0.940 1_545 S
C216 C215 1.404 . S
C216 C217 1.389 . S
C217 H200 0.939 . S
C217 C212 1.400 . S
C217 C216 1.389 . S
C218 P192 1.819 . S
C218 C219 1.391 . S
C218 C223 1.391 . S
C219 H201 0.941 . S
C219 C218 1.391 . S
C219 C220 1.396 . S
C220 H204 0.939 . S
C220 C219 1.396 . S
C220 C221 1.397 . S
C221 C220 1.397 . S
C221 C222 1.385 . S
C222 H205 0.940 . S
C222 C221 1.385 . S
C222 C223 1.388 . S
C223 H202 0.939 . S
C223 C218 1.391 . S
C223 C222 1.388 . S
P224 O235 1.490 . S
P224 C238 1.812 . S
P224 C244 1.803 . S
P224 C250 1.819 . S
H225 C239 0.941 . S
H226 C240 0.939 . S
H227 C242 0.940 . S
H228 C243 0.940 . S
H229 C245 0.939 . S
H230 C246 0.942 . S
H231 C248 0.940 . S
H232 C249 0.939 . S
H233 C251 0.941 . S
H234 C255 0.939 . S
O235 P224 1.490 . S
H236 C252 0.939 . S
H237 C254 0.940 . S
C238 P224 1.812 . S
C238 C239 1.389 . S
C238 C243 1.391 . S
C239 H225 0.941 . S
C239 C238 1.389 . S
C239 C240 1.397 . S
C240 H226 0.939 . S
C240 C239 1.397 . S
C240 C241 1.378 . S
C241 C240 1.378 . S
C241 C242 1.378 . S
C242 H227 0.940 . S
C242 C241 1.378 . S
C242 C243 1.396 . S
C243 H228 0.940 . S
C243 C238 1.391 . S
C243 C242 1.396 . S
C244 P224 1.803 . S
C244 C245 1.378 . S
C244 C249 1.400 . S
C245 H229 0.939 . S
C245 C244 1.378 . S
C245 C246 1.361 . S
C246 H230 0.942 . S
C246 C245 1.361 . S
C246 C247 1.369 . S
C247 C246 1.369 . S
C247 C248 1.404 . S
C248 H231 0.940 . S
C248 C247 1.404 . S
C248 C249 1.389 . S
C249 H232 0.939 . S
C249 C244 1.400 . S
C249 C248 1.389 . S
C250 P224 1.819 . S
C250 C251 1.391 . S
C250 C255 1.391 . S
C251 H233 0.941 . S
C251 C250 1.391 . S
C251 C252 1.396 . S
C252 H236 0.939 . S
C252 C251 1.396 . S
C252 C253 1.397 . S
C253 C252 1.397 . S
C253 C254 1.385 . S
C254 H237 0.940 . S
C254 C253 1.385 . S
C254 C255 1.388 . S
C255 H234 0.939 . S
C255 C250 1.391 . S
C255 C254 1.388 . S
Tb256 O259 2.453 1_655 S
Tb256 O260 2.596 1_655 S
Tb256 O261 2.374 1_645 S
Tb256 O269 2.343 1_545 S
Tb256 O271 2.353 . S
Tb256 O273 2.427 1_545 S
Tb256 O274 2.513 1_545 S
C257 O261 1.251 1_545 S
C257 O263 1.263 . S
Tb258 O260 2.343 . S
Tb258 O263 2.353 . S
Tb258 O266 2.427 . S
Tb258 O267 2.513 . S
Tb258 O268 2.453 1_545 S
Tb258 O269 2.596 1_445 S
Tb258 O270 2.374 1_455 S
O259 Tb256 2.453 1_455 S
O259 C275 1.245 . S
O260 Tb256 2.596 1_455 S
O260 Tb258 2.343 . S
O260 C275 1.259 . S
O261 Tb256 2.374 1_465 S
O261 C257 1.251 1_565 S
C262 O266 1.275 . S
C262 O267 1.246 . S
O263 C257 1.263 . S
O263 Tb258 2.353 . S
C264 O268 1.245 1_655 S
C264 O269 1.259 . S
C265 O270 1.250 . S
C265 O271 1.263 . S
O266 Tb258 2.427 . S
O266 C262 1.275 . S
O267 Tb258 2.513 . S
O267 C262 1.246 . S
O268 Tb258 2.453 1_565 S
O268 C264 1.245 1_455 S
O269 Tb256 2.343 1_565 S
O269 Tb258 2.596 1_665 S
O269 C264 1.259 . S
O270 Tb258 2.374 1_655 S
O270 C265 1.250 . S
O271 Tb256 2.353 . S
O271 C265 1.263 . S
C272 O273 1.275 . S
C272 O274 1.246 . S
O273 Tb256 2.427 1_565 S
O273 C272 1.275 . S
O274 Tb256 2.513 1_565 S
O274 C272 1.246 . S
C275 O259 1.245 . S
C275 O260 1.259 . S
Tb276 O279 2.453 . S
Tb276 O280 2.596 . S
Tb276 O281 2.374 . S
Tb276 O289 2.343 . S
Tb276 O291 2.353 . S
Tb276 O293 2.427 . S
Tb276 O294 2.513 . S
C277 O281 1.251 . S
C277 O283 1.263 1_545 S
Tb278 O280 2.343 1_565 S
Tb278 O283 2.353 . S
Tb278 O286 2.427 . S
Tb278 O287 2.513 . S
Tb278 O288 2.453 . S
Tb278 O289 2.596 1_565 S
Tb278 O290 2.374 . S
O279 Tb276 2.453 . S
O279 C295 1.245 . S
O280 Tb276 2.596 . S
O280 Tb278 2.343 1_545 S
O280 C295 1.259 . S
O281 Tb276 2.374 . S
O281 C277 1.251 . S
C282 O286 1.275 . S
C282 O287 1.246 . S
O283 C277 1.263 1_565 S
O283 Tb278 2.353 . S
C284 O288 1.201 1_545 S
C284 O289 1.280 . S
C285 O290 1.250 1_545 S
C285 O291 1.263 . S
O286 Tb278 2.427 . S
O286 C282 1.275 . S
O287 Tb278 2.513 . S
O287 C282 1.246 . S
O288 Tb278 2.453 . S
O288 C284 1.201 1_565 S
O289 Tb276 2.343 . S
O289 Tb278 2.596 1_545 S
O289 C284 1.280 . S
O290 Tb278 2.374 . S
O290 C285 1.250 1_565 S
O291 Tb276 2.353 . S
O291 C285 1.263 . S
C292 O293 1.275 . S
C292 O294 1.246 . S
O293 Tb276 2.427 . S
O293 C292 1.275 . S
O294 Tb276 2.513 . S
O294 C292 1.246 . S
C295 O279 1.245 . S
C295 O280 1.259 . S
Tb296 O299 2.453 . S
Tb296 O300 2.596 . S
Tb296 O301 2.374 . S
Tb296 O309 2.343 . S
Tb296 O311 2.353 . S
Tb296 O313 2.427 . S
Tb296 O314 2.513 . S
C297 O301 1.251 . S
C297 O303 1.263 . S
Tb298 O300 2.343 . S
Tb298 O303 2.353 . S
Tb298 O306 2.427 . S
Tb298 O307 2.513 . S
Tb298 O308 2.453 . S
Tb298 O309 2.596 . S
Tb298 O310 2.374 . S
O299 Tb296 2.453 . S
O299 C315 1.245 . S
O300 Tb296 2.596 . S
O300 Tb298 2.343 . S
O300 C315 1.259 . S
O301 Tb296 2.374 . S
O301 C297 1.251 . S
C302 O306 1.275 . S
C302 O307 1.246 . S
O303 C297 1.263 . S
O303 Tb298 2.353 . S
C304 O308 1.245 . S
C304 O309 1.259 . S
C305 O310 1.250 . S
C305 O311 1.263 . S
O306 Tb298 2.427 . S
O306 C302 1.275 . S
O307 Tb298 2.513 . S
O307 C302 1.246 . S
O308 Tb298 2.453 . S
O308 C304 1.245 . S
O309 Tb296 2.343 . S
O309 Tb298 2.596 . S
O309 C304 1.259 . S
O310 Tb298 2.374 . S
O310 C305 1.250 . S
O311 Tb296 2.353 . S
O311 C305 1.263 . S
C312 O313 1.275 . S
C312 O314 1.246 . S
O313 Tb296 2.427 . S
O313 C312 1.275 . S
O314 Tb296 2.513 . S
O314 C312 1.246 . S
C315 O299 1.245 . S
C315 O300 1.259 . S
Tb316 O319 2.453 1_655 S
Tb316 O320 2.596 1_655 S
Tb316 O321 2.374 1_655 S
Tb316 O329 2.343 . S
Tb316 O331 2.353 . S
Tb316 O333 2.427 . S
Tb316 O334 2.513 . S
C317 O321 1.251 . S
C317 O323 1.263 . S
Tb318 O320 2.343 . S
Tb318 O323 2.353 . S
Tb318 O326 2.427 . S
Tb318 O327 2.513 . S
Tb318 O328 2.453 1_455 S
Tb318 O329 2.596 1_455 S
Tb318 O330 2.374 . S
O319 Tb316 2.453 1_455 S
O319 C335 1.245 . S
O320 Tb316 2.596 1_455 S
O320 Tb318 2.343 . S
O320 C335 1.259 . S
O321 Tb316 2.374 1_455 S
O321 C317 1.251 . S
C322 O326 1.275 . S
C322 O327 1.246 . S
O323 C317 1.263 . S
O323 Tb318 2.353 . S
C324 O328 1.245 . S
C324 O329 1.259 . S
C325 O330 1.250 1_655 S
C325 O331 1.263 . S
O326 Tb318 2.427 . S
O326 C322 1.275 . S
O327 Tb318 2.513 . S
O327 C322 1.246 . S
O328 Tb318 2.453 1_655 S
O328 C324 1.245 . S
O329 Tb316 2.343 . S
O329 Tb318 2.596 1_655 S
O329 C324 1.259 . S
O330 Tb318 2.374 . S
O330 C325 1.250 1_455 S
O331 Tb316 2.353 . S
O331 C325 1.263 . S
C332 O333 1.275 . S
C332 O334 1.246 . S
O333 Tb316 2.427 . S
O333 C332 1.275 . S
O334 Tb316 2.513 . S
O334 C332 1.246 . S
C335 O319 1.245 . S
C335 O320 1.259 . S
C336 C337 1.382 . S
C336 C338 1.328 1_545 S
C336 H361 0.918 1_545 S
C337 C336 1.382 . S
C337 C353 1.349 . S
C338 C336 1.328 1_565 S
C338 C357 1.407 1_565 S
C338 H362 0.973 . S
C339 C356 1.574 . S
C339 C358 1.368 . S
C339 H363 0.949 . S
H340 C344 0.949 . S
C341 C342 1.349 . S
C341 C343 1.327 . S
C341 H364 0.950 . S
C342 C341 1.349 . S
C342 C354 1.349 1_545 S
C343 C341 1.327 . S
C343 C359 1.429 . S
C343 H365 0.950 . S
C344 H340 0.949 . S
C344 C352 1.574 . S
C344 C360 1.368 1_565 S
H345 C353 0.950 . S
H346 C351 0.950 . S
H347 C352 0.949 . S
H348 C354 0.950 . S
H349 C355 0.950 . S
H350 C356 0.949 . S
C351 H346 0.950 . S
C351 C353 1.327 . S
C351 C357 1.429 . S
C352 C344 1.574 . S
C352 H347 0.949 . S
C352 C358 1.368 1_565 S
C353 C337 1.349 . S
C353 H345 0.950 . S
C353 C351 1.327 . S
C354 C342 1.349 1_565 S
C354 H348 0.950 . S
C354 C355 1.327 . S
C355 H349 0.950 . S
C355 C354 1.327 . S
C355 C359 1.429 1_565 S
C356 C339 1.574 . S
C356 H350 0.949 . S
C356 C360 1.368 . S
C357 C338 1.407 1_545 S
C357 C351 1.429 . S
C357 C358 1.523 . S
C358 C339 1.368 . S
C358 C352 1.368 1_545 S
C358 C357 1.523 . S
C359 C343 1.429 . S
C359 C355 1.429 1_545 S
C359 C360 1.523 . S
C360 C344 1.368 1_545 S
C360 C356 1.368 . S
C360 C359 1.523 . S
H361 C336 0.918 1_565 S
H362 C338 0.973 . S
H363 C339 0.949 . S
H364 C341 0.950 . S
H365 C343 0.950 . S
C366 C367 1.349 . S
C366 C368 1.327 . S
C366 H391 0.950 . S
C367 C366 1.349 . S
C367 C383 1.349 . S
C368 C366 1.327 . S
C368 C387 1.429 . S
C368 H392 0.950 . S
C369 C386 1.574 . S
C369 C388 1.368 . S
C369 H393 0.949 . S
H370 C374 0.949 . S
C371 C372 1.349 . S
C371 C373 1.327 . S
C371 H394 0.950 . S
C372 C371 1.349 . S
C372 C384 1.349 . S
C373 C371 1.327 . S
C373 C389 1.429 . S
C373 H395 0.950 . S
C374 H370 0.949 . S
C374 C382 1.574 . S
C374 C390 1.368 . S
H375 C383 0.950 . S
H376 C381 0.950 . S
H377 C382 0.949 . S
H378 C384 0.950 . S
H379 C385 0.950 . S
H380 C386 0.949 . S
C381 H376 0.950 . S
C381 C383 1.327 . S
C381 C387 1.429 . S
C382 C374 1.574 . S
C382 H377 0.949 . S
C382 C388 1.368 . S
C383 C367 1.349 . S
C383 H375 0.950 . S
C383 C381 1.327 . S
C384 C372 1.349 . S
C384 H378 0.950 . S
C384 C385 1.327 . S
C385 H379 0.950 . S
C385 C384 1.327 . S
C385 C389 1.429 . S
C386 C369 1.574 . S
C386 H380 0.949 . S
C386 C390 1.368 . S
C387 C368 1.429 . S
C387 C381 1.429 . S
C387 C388 1.523 . S
C388 C369 1.368 . S
C388 C382 1.368 . S
C388 C387 1.523 . S
C389 C373 1.429 . S
C389 C385 1.429 . S
C389 C390 1.523 . S
C390 C374 1.368 . S
C390 C386 1.368 . S
C390 C389 1.523 . S
H391 C366 0.950 . S
H392 C368 0.950 . S
H393 C369 0.949 . S
H394 C371 0.950 . S
H395 C373 0.950 . S
C396 C397 1.349 . S
C396 C398 1.327 . S
C396 H421 0.950 . S
C397 C396 1.349 . S
C397 C413 1.349 . S
C398 C396 1.327 . S
C398 C417 1.429 . S
C398 H422 0.950 . S
C399 C416 1.574 . S
C399 C418 1.368 . S
C399 H423 0.949 . S
H400 C404 0.949 . S
C401 C402 1.349 . S
C401 C403 1.327 . S
C401 H424 0.950 . S
C402 C401 1.349 . S
C402 C414 1.349 . S
C403 C401 1.327 . S
C403 C419 1.429 . S
C403 H425 0.950 . S
C404 H400 0.949 . S
C404 C412 1.574 . S
C404 C420 1.368 . S
H405 C413 0.950 . S
H406 C411 0.950 . S
H407 C412 0.949 . S
H408 C414 0.950 . S
H409 C415 0.950 . S
H410 C416 0.949 . S
C411 H406 0.950 . S
C411 C413 1.327 . S
C411 C417 1.429 . S
C412 C404 1.574 . S
C412 H407 0.949 . S
C412 C418 1.368 . S
C413 C397 1.349 . S
C413 H405 0.950 . S
C413 C411 1.327 . S
C414 C402 1.349 . S
C414 H408 0.950 . S
C414 C415 1.327 . S
C415 H409 0.950 . S
C415 C414 1.327 . S
C415 C419 1.429 . S
C416 C399 1.574 . S
C416 H410 0.949 . S
C416 C420 1.368 . S
C417 C398 1.429 . S
C417 C411 1.429 . S
C417 C418 1.523 . S
C418 C399 1.368 . S
C418 C412 1.368 . S
C418 C417 1.523 . S
C419 C403 1.429 . S
C419 C415 1.429 . S
C419 C420 1.523 . S
C420 C404 1.368 . S
C420 C416 1.368 . S
C420 C419 1.523 . S
H421 C396 0.950 . S
H422 C398 0.950 . S
H423 C399 0.949 . S
H424 C401 0.950 . S
H425 C403 0.950 . S
C426 C427 1.349 . S
C426 C428 1.327 . S
C426 H451 0.950 . S
C427 C426 1.349 . S
C427 C443 1.349 . S
C428 C426 1.327 . S
C428 C447 1.429 . S
C428 H452 0.950 . S
C429 C446 1.574 . S
C429 C448 1.368 . S
C429 H453 0.949 . S
H430 C434 0.949 . S
C431 C432 1.349 . S
C431 C433 1.327 . S
C431 H454 0.950 . S
C432 C431 1.349 . S
C432 C444 1.349 . S
C433 C431 1.327 . S
C433 C449 1.429 . S
C433 H455 0.950 . S
C434 H430 0.949 . S
C434 C442 1.574 . S
C434 C450 1.368 . S
H435 C443 0.950 . S
H436 C441 0.950 . S
H437 C442 0.949 . S
H438 C444 0.950 . S
H439 C445 0.950 . S
H440 C446 0.949 . S
C441 H436 0.950 . S
C441 C443 1.327 . S
C441 C447 1.429 . S
C442 C434 1.574 . S
C442 H437 0.949 . S
C442 C448 1.368 . S
C443 C427 1.349 . S
C443 H435 0.950 . S
C443 C441 1.327 . S
C444 C432 1.349 . S
C444 H438 0.950 . S
C444 C445 1.327 . S
C445 H439 0.950 . S
C445 C444 1.327 . S
C445 C449 1.429 . S
C446 C429 1.574 . S
C446 H440 0.949 . S
C446 C450 1.368 . S
C447 C428 1.429 . S
C447 C441 1.429 . S
C447 C448 1.523 . S
C448 C429 1.368 . S
C448 C442 1.368 . S
C448 C447 1.523 . S
C449 C433 1.429 . S
C449 C445 1.429 . S
C449 C450 1.523 . S
C450 C434 1.368 . S
C450 C446 1.368 . S
C450 C449 1.523 . S
H451 C426 0.950 . S
H452 C428 0.950 . S
H453 C429 0.949 . S
H454 C431 0.950 . S
H455 C433 0.950 . S
C456 C457 1.361 . S
C456 C458 1.327 . S
C456 H481 0.950 . S
C457 C456 1.361 . S
C457 C473 1.337 1_544 S
C458 C456 1.327 . S
C458 C477 1.429 1_554 S
C458 H482 0.950 . S
C459 C476 1.574 . S
C459 C478 1.368 1_565 S
C459 H483 0.949 . S
H460 C464 0.949 . S
C461 C462 1.349 1_565 S
C461 C463 1.327 . S
C461 H484 0.950 . S
C462 C461 1.349 1_545 S
C462 C474 1.349 . S
C463 C461 1.327 . S
C463 C479 1.429 1_565 S
C463 H485 0.950 . S
C464 H460 0.949 . S
C464 C472 1.574 . S
C464 C480 1.368 . S
H465 C473 0.950 . S
H466 C471 0.950 . S
H467 C472 0.949 . S
H468 C474 0.950 . S
H469 C475 0.950 . S
H470 C476 0.949 . S
C471 H466 0.950 . S
C471 C473 1.327 . S
C471 C477 1.429 1_565 S
C472 C464 1.574 . S
C472 H467 0.949 . S
C472 C478 1.368 . S
C473 C457 1.337 1_566 S
C473 H465 0.950 . S
C473 C471 1.327 . S
C474 C462 1.349 . S
C474 H468 0.950 . S
C474 C475 1.327 . S
C475 H469 0.950 . S
C475 C474 1.327 . S
C475 C479 1.429 . S
C476 C459 1.574 . S
C476 H470 0.949 . S
C476 C480 1.368 1_565 S
C477 C458 1.429 1_556 S
C477 C471 1.429 1_545 S
C477 C478 1.523 . S
C478 C459 1.368 1_545 S
C478 C472 1.368 . S
C478 C477 1.523 . S
C479 C463 1.429 1_545 S
C479 C475 1.429 . S
C479 C480 1.523 . S
C480 C464 1.368 . S
C480 C476 1.368 1_545 S
C480 C479 1.523 . S
H481 C456 0.950 . S
H482 C458 0.950 . S
H483 C459 0.949 . S
H484 C461 0.950 . S
H485 C463 0.950 . S
C486 C487 1.349 1_556 S
C486 C488 1.327 . S
C486 H511 0.950 . S
C487 C486 1.349 1_554 S
C487 C503 1.349 . S
C488 C486 1.327 . S
C488 C507 1.429 . S
C488 H512 0.950 . S
C489 C506 1.574 . S
C489 C508 1.368 . S
C489 H513 0.949 . S
H490 C494 0.949 . S
C491 C492 1.349 . S
C491 C493 1.327 . S
C491 H514 0.950 . S
C492 C491 1.349 . S
C492 C504 1.349 . S
C493 C491 1.327 . S
C493 C509 1.429 . S
C493 H515 0.950 . S
C494 H490 0.949 . S
C494 C502 1.574 . S
C494 C510 1.368 . S
H495 C503 0.950 . S
H496 C501 0.950 . S
H497 C502 0.949 . S
H498 C504 0.950 . S
H499 C505 0.950 . S
H500 C506 0.949 . S
C501 H496 0.950 . S
C501 C503 1.327 1_556 S
C501 C507 1.429 . S
C502 C494 1.574 . S
C502 H497 0.949 . S
C502 C508 1.368 . S
C503 C487 1.349 . S
C503 H495 0.950 . S
C503 C501 1.327 1_554 S
C504 C492 1.349 . S
C504 H498 0.950 . S
C504 C505 1.327 . S
C505 H499 0.950 . S
C505 C504 1.327 . S
C505 C509 1.429 . S
C506 C489 1.574 . S
C506 H500 0.949 . S
C506 C510 1.368 . S
C507 C488 1.429 . S
C507 C501 1.429 . S
C507 C508 1.523 . S
C508 C489 1.368 . S
C508 C502 1.368 . S
C508 C507 1.523 . S
C509 C493 1.429 . S
C509 C505 1.429 . S
C509 C510 1.523 . S
C510 C494 1.368 . S
C510 C506 1.368 . S
C510 C509 1.523 . S
H511 C486 0.950 . S
H512 C488 0.950 . S
H513 C489 0.949 . S
H514 C491 0.950 . S
H515 C493 0.950 . S
C516 C517 1.349 1_556 S
C516 C518 1.327 . S
C516 H541 0.950 . S
C517 C516 1.349 1_554 S
C517 C533 1.349 . S
C518 C516 1.327 . S
C518 C537 1.429 . S
C518 H542 0.950 . S
C519 C536 1.574 . S
C519 C538 1.368 . S
C519 H543 0.949 . S
H520 C524 0.949 . S
C521 C522 1.349 . S
C521 C523 1.327 . S
C521 H544 0.950 . S
C522 C521 1.349 . S
C522 C534 1.349 . S
C523 C521 1.327 . S
C523 C539 1.429 . S
C523 H545 0.950 . S
C524 H520 0.949 . S
C524 C532 1.574 . S
C524 C540 1.368 . S
H525 C533 0.950 . S
H526 C531 0.950 . S
H527 C532 0.949 . S
H528 C534 0.950 . S
H529 C535 0.950 . S
H530 C536 0.949 . S
C531 H526 0.950 . S
C531 C533 1.327 . S
C531 C537 1.429 1_554 S
C532 C524 1.574 . S
C532 H527 0.949 . S
C532 C538 1.368 . S
C533 C517 1.349 . S
C533 H525 0.950 . S
C533 C531 1.327 . S
C534 C522 1.349 . S
C534 H528 0.950 . S
C534 C535 1.327 . S
C535 H529 0.950 . S
C535 C534 1.327 . S
C535 C539 1.429 . S
C536 C519 1.574 . S
C536 H530 0.949 . S
C536 C540 1.368 . S
C537 C518 1.429 . S
C537 C531 1.429 1_556 S
C537 C538 1.523 . S
C538 C519 1.368 . S
C538 C532 1.368 . S
C538 C537 1.523 . S
C539 C523 1.429 . S
C539 C535 1.429 . S
C539 C540 1.523 . S
C540 C524 1.368 . S
C540 C536 1.368 . S
C540 C539 1.523 . S
H541 C516 0.950 . S
H542 C518 0.950 . S
H543 C519 0.949 . S
H544 C521 0.950 . S
H545 C523 0.950 . S
C546 C547 1.349 . S
C546 C548 1.327 . S
C546 H571 0.950 . S
C547 C546 1.349 . S
C547 C563 1.349 . S
C548 C546 1.327 . S
C548 C567 1.429 . S
C548 H572 0.950 . S
C549 C566 1.574 . S
C549 C568 1.368 . S
C549 H573 0.949 . S
H550 C554 0.949 . S
C551 C552 1.349 . S
C551 C553 1.327 . S
C551 H574 0.950 . S
C552 C551 1.349 . S
C552 C564 1.349 . S
C553 C551 1.327 . S
C553 C569 1.429 . S
C553 H575 0.950 . S
C554 H550 0.949 . S
C554 C562 1.574 . S
C554 C570 1.368 . S
H555 C563 0.950 . S
H556 C561 0.950 . S
H557 C562 0.949 . S
H558 C564 0.950 . S
H559 C565 0.950 . S
H560 C566 0.949 . S
C561 H556 0.950 . S
C561 C563 1.327 . S
C561 C567 1.429 . S
C562 C554 1.574 . S
C562 H557 0.949 . S
C562 C568 1.368 . S
C563 C547 1.349 . S
C563 H555 0.950 . S
C563 C561 1.327 . S
C564 C552 1.349 . S
C564 H558 0.950 . S
C564 C565 1.327 . S
C565 H559 0.950 . S
C565 C564 1.327 . S
C565 C569 1.429 . S
C566 C549 1.574 . S
C566 H560 0.949 . S
C566 C570 1.368 . S
C567 C548 1.429 . S
C567 C561 1.429 . S
C567 C568 1.523 . S
C568 C549 1.368 . S
C568 C562 1.368 . S
C568 C567 1.523 . S
C569 C553 1.429 . S
C569 C565 1.429 . S
C569 C570 1.523 . S
C570 C554 1.368 . S
C570 C566 1.368 . S
C570 C569 1.523 . S
H571 C546 0.950 . S
H572 C548 0.950 . S
H573 C549 0.949 . S
H574 C551 0.950 . S
H575 C553 0.950 . S
C576 C577 1.349 . S
C576 C578 1.327 . S
C576 H601 0.950 . S
C577 C576 1.349 . S
C577 C593 1.349 . S
C578 C576 1.327 . S
C578 C597 1.429 . S
C578 H602 0.950 . S
C579 C596 1.574 . S
C579 C598 1.368 . S
C579 H603 0.949 . S
H580 C584 0.949 . S
C581 C582 1.349 . S
C581 C583 1.327 . S
C581 H604 0.950 . S
C582 C581 1.349 . S
C582 C594 1.349 . S
C583 C581 1.327 . S
C583 C599 1.429 . S
C583 H605 0.950 . S
C584 H580 0.949 . S
C584 C592 1.574 . S
C584 C600 1.368 . S
H585 C593 0.950 . S
H586 C591 0.950 . S
H587 C592 0.949 . S
H588 C594 0.950 . S
H589 C595 0.950 . S
H590 C596 0.949 . S
C591 H586 0.950 . S
C591 C593 1.327 . S
C591 C597 1.429 . S
C592 C584 1.574 . S
C592 H587 0.949 . S
C592 C598 1.368 . S
C593 C577 1.349 . S
C593 H585 0.950 . S
C593 C591 1.327 . S
C594 C582 1.349 . S
C594 H588 0.950 . S
C594 C595 1.327 . S
C595 H589 0.950 . S
C595 C594 1.327 . S
C595 C599 1.429 . S
C596 C579 1.574 . S
C596 H590 0.949 . S
C596 C600 1.368 . S
C597 C578 1.429 . S
C597 C591 1.429 . S
C597 C598 1.523 . S
C598 C579 1.368 . S
C598 C592 1.368 . S
C598 C597 1.523 . S
C599 C583 1.429 . S
C599 C595 1.429 . S
C599 C600 1.523 . S
C600 C584 1.368 . S
C600 C596 1.368 . S
C600 C599 1.523 . S
H601 C576 0.950 . S
H602 C578 0.950 . S
H603 C579 0.949 . S
H604 C581 0.950 . S
H605 C583 0.950 . S
C606 C607 1.349 . S
C606 C608 1.327 . S
C606 H631 0.950 1_545 S
C607 C606 1.349 . S
C607 C623 1.349 . S
C608 C606 1.327 . S
C608 C627 1.429 . S
C608 H632 0.950 1_545 S
C609 C626 1.574 . S
C609 C628 1.368 . S
C609 H633 0.949 . S
H610 C614 0.949 . S
C611 C612 1.349 . S
C611 C613 1.327 . S
C611 H634 0.950 . S
C612 C611 1.349 . S
C612 C624 1.349 1_545 S
C613 C611 1.327 . S
C613 C629 1.429 . S
C613 H635 0.950 . S
C614 H610 0.949 . S
C614 C622 1.576 . S
C614 C630 1.368 1_565 S
H615 C623 0.950 . S
H616 C621 0.950 . S
H617 C622 0.954 . S
H618 C624 0.950 . S
H619 C625 0.950 . S
H620 C626 0.949 . S
C621 H616 0.950 . S
C621 C623 1.327 . S
C621 C627 1.429 . S
C622 C614 1.576 . S
C622 H617 0.954 . S
C622 C628 1.361 1_565 S
C623 C607 1.349 . S
C623 H615 0.950 . S
C623 C621 1.327 . S
C624 C612 1.349 1_565 S
C624 H618 0.950 . S
C624 C625 1.327 . S
C625 H619 0.950 . S
C625 C624 1.327 . S
C625 C629 1.429 1_565 S
C626 C609 1.574 . S
C626 H620 0.949 . S
C626 C630 1.368 . S
C627 C608 1.429 . S
C627 C621 1.429 . S
C627 C628 1.523 . S
C628 C609 1.368 . S
C628 C622 1.361 1_545 S
C628 C627 1.523 . S
C629 C613 1.429 . S
C629 C625 1.429 1_545 S
C629 C630 1.523 . S
C630 C614 1.368 1_545 S
C630 C626 1.368 . S
C630 C629 1.523 . S
H631 C606 0.950 1_565 S
H632 C608 0.950 1_565 S
H633 C609 0.949 . S
H634 C611 0.950 . S
H635 C613 0.950 . S
C636 C637 1.349 . S
C636 C638 1.327 . S
C636 H661 0.950 . S
C637 C636 1.349 . S
C637 C653 1.349 . S
C638 C636 1.327 . S
C638 C657 1.429 . S
C638 H662 0.950 . S
C639 C656 1.574 . S
C639 C658 1.368 . S
C639 H663 0.949 . S
H640 C644 0.949 . S
C641 C642 1.349 . S
C641 C643 1.327 . S
C641 H664 0.950 . S
C642 C641 1.349 . S
C642 C654 1.349 . S
C643 C641 1.327 . S
C643 C659 1.429 . S
C643 H665 0.950 . S
C644 H640 0.949 . S
C644 C652 1.574 . S
C644 C660 1.368 . S
H645 C653 0.950 . S
H646 C651 0.950 . S
H647 C652 0.949 . S
H648 C654 0.950 . S
H649 C655 0.950 . S
H650 C656 0.949 . S
C651 H646 0.950 . S
C651 C653 1.327 . S
C651 C657 1.429 . S
C652 C644 1.574 . S
C652 H647 0.949 . S
C652 C658 1.368 . S
C653 C637 1.349 . S
C653 H645 0.950 . S
C653 C651 1.327 . S
C654 C642 1.349 . S
C654 H648 0.950 . S
C654 C655 1.327 . S
C655 H649 0.950 . S
C655 C654 1.327 . S
C655 C659 1.429 . S
C656 C639 1.574 . S
C656 H650 0.949 . S
C656 C660 1.368 . S
C657 C638 1.429 . S
C657 C651 1.429 . S
C657 C658 1.523 . S
C658 C639 1.368 . S
C658 C652 1.368 . S
C658 C657 1.523 . S
C659 C643 1.429 . S
C659 C655 1.429 . S
C659 C660 1.523 . S
C660 C644 1.368 . S
C660 C656 1.368 . S
C660 C659 1.523 . S
H661 C636 0.950 . S
H662 C638 0.950 . S
H663 C639 0.949 . S
H664 C641 0.950 . S
H665 C643 0.950 . S
C666 C667 1.349 . S
C666 C668 1.327 . S
C666 H691 0.950 . S
C667 C666 1.349 . S
C667 C683 1.349 . S
C668 C666 1.327 . S
C668 C687 1.429 . S
C668 H692 0.950 . S
C669 C686 1.574 . S
C669 C688 1.368 . S
C669 H693 0.949 . S
H670 C674 0.949 . S
C671 C672 1.349 . S
C671 C673 1.327 . S
C671 H694 0.950 . S
C672 C671 1.349 . S
C672 C684 1.349 . S
C673 C671 1.327 . S
C673 C689 1.429 . S
C673 H695 0.950 . S
C674 H670 0.949 . S
C674 C682 1.574 . S
C674 C690 1.368 . S
H675 C683 0.950 . S
H676 C681 0.950 . S
H677 C682 0.949 . S
H678 C684 0.950 . S
H679 C685 0.950 . S
H680 C686 0.949 . S
C681 H676 0.950 . S
C681 C683 1.327 . S
C681 C687 1.429 . S
C682 C674 1.574 . S
C682 H677 0.949 . S
C682 C688 1.368 . S
C683 C667 1.349 . S
C683 H675 0.950 . S
C683 C681 1.327 . S
C684 C672 1.349 . S
C684 H678 0.950 . S
C684 C685 1.327 . S
C685 H679 0.950 . S
C685 C684 1.327 . S
C685 C689 1.429 . S
C686 C669 1.574 . S
C686 H680 0.949 . S
C686 C690 1.368 . S
C687 C668 1.429 . S
C687 C681 1.429 . S
C687 C688 1.523 . S
C688 C669 1.368 . S
C688 C682 1.368 . S
C688 C687 1.523 . S
C689 C673 1.429 . S
C689 C685 1.429 . S
C689 C690 1.523 . S
C690 C674 1.368 . S
C690 C686 1.368 . S
C690 C689 1.523 . S
H691 C666 0.950 . S
H692 C668 0.950 . S
H693 C669 0.949 . S
H694 C671 0.950 . S
H695 C673 0.950 . S
C696 C697 1.349 . S
C696 C698 1.327 . S
C696 H721 0.950 . S
C697 C696 1.349 . S
C697 C713 1.349 . S
C698 C696 1.327 . S
C698 C717 1.429 . S
C698 H722 0.950 . S
C699 C716 1.574 . S
C699 C718 1.368 . S
C699 H723 0.949 . S
H700 C704 0.949 . S
C701 C702 1.349 . S
C701 C703 1.327 . S
C701 H724 0.950 . S
C702 C701 1.349 . S
C702 C714 1.349 . S
C703 C701 1.327 . S
C703 C719 1.429 . S
C703 H725 0.950 . S
C704 H700 0.949 . S
C704 C712 1.574 . S
C704 C720 1.368 . S
H705 C713 0.950 . S
H706 C711 0.950 . S
H707 C712 0.949 . S
H708 C714 0.950 1_455 S
H709 C715 0.950 . S
H710 C716 0.949 . S
C711 H706 0.950 . S
C711 C713 1.327 . S
C711 C717 1.429 . S
C712 C704 1.574 . S
C712 H707 0.949 . S
C712 C718 1.368 . S
C713 C697 1.349 . S
C713 H705 0.950 . S
C713 C711 1.327 . S
C714 C702 1.349 . S
C714 H708 0.950 1_655 S
C714 C715 1.327 . S
C715 H709 0.950 . S
C715 C714 1.327 . S
C715 C719 1.429 . S
C716 C699 1.574 . S
C716 H710 0.949 . S
C716 C720 1.368 . S
C717 C698 1.429 . S
C717 C711 1.429 . S
C717 C718 1.523 . S
C718 C699 1.368 . S
C718 C712 1.368 . S
C718 C717 1.523 . S
C719 C703 1.429 . S
C719 C715 1.429 . S
C719 C720 1.523 . S
C720 C704 1.368 . S
C720 C716 1.368 . S
C720 C719 1.523 . S
H721 C696 0.950 . S
H722 C698 0.950 . S
H723 C699 0.949 . S
H724 C701 0.950 . S
H725 C703 0.950 . S
C726 C727 1.329 1_545 S
C726 C728 1.327 . S
C726 H751 0.950 . S
C727 C726 1.329 1_565 S
C727 C743 1.365 . S
C728 C726 1.327 . S
C728 C747 1.429 . S
C728 H752 0.950 . S
C729 C746 1.574 . S
C729 C748 1.368 1_565 S
C729 H753 0.949 . S
H730 C734 0.949 . S
C731 C732 1.349 1_565 S
C731 C733 1.327 . S
C731 H754 0.950 . S
C732 C731 1.349 1_545 S
C732 C744 1.349 . S
C733 C731 1.327 . S
C733 C749 1.429 1_565 S
C733 H755 0.950 . S
C734 H730 0.949 . S
C734 C742 1.574 . S
C734 C750 1.368 . S
H735 C743 0.950 . S
H736 C741 0.950 . S
H737 C742 0.949 . S
H738 C744 0.950 . S
H739 C745 0.950 . S
H740 C746 0.949 . S
C741 H736 0.950 . S
C741 C743 1.327 . S
C741 C747 1.429 1_565 S
C742 C734 1.574 . S
C742 H737 0.949 . S
C742 C748 1.368 . S
C743 C727 1.365 . S
C743 H735 0.950 . S
C743 C741 1.327 . S
C744 C732 1.349 . S
C744 H738 0.950 . S
C744 C745 1.327 . S
C745 H739 0.950 . S
C745 C744 1.327 . S
C745 C749 1.429 . S
C746 C729 1.574 . S
C746 H740 0.949 . S
C746 C750 1.368 1_565 S
C747 C728 1.429 . S
C747 C741 1.429 1_545 S
C747 C748 1.523 . S
C748 C729 1.368 1_545 S
C748 C742 1.368 . S
C748 C747 1.523 . S
C749 C733 1.429 1_545 S
C749 C745 1.429 . S
C749 C750 1.523 . S
C750 C734 1.368 . S
C750 C746 1.368 1_545 S
C750 C749 1.523 . S
H751 C726 0.950 . S
H752 C728 0.950 . S
H753 C729 0.949 . S
H754 C731 0.950 . S
H755 C733 0.950 . S
C756 C757 1.349 . S
C756 C758 1.327 . S
C756 H781 0.950 . S
C757 C756 1.349 . S
C757 C773 1.349 . S
C758 C756 1.327 . S
C758 C777 1.429 . S
C758 H782 0.950 . S
C759 C776 1.574 . S
C759 C778 1.368 . S
C759 H783 0.949 . S
H760 C764 0.949 . S
C761 C762 1.349 . S
C761 C763 1.327 . S
C761 H784 0.950 . S
C762 C761 1.349 . S
C762 C774 1.349 . S
C763 C761 1.327 . S
C763 C779 1.429 . S
C763 H785 0.950 . S
C764 H760 0.949 . S
C764 C772 1.574 . S
C764 C780 1.368 . S
H765 C773 0.950 1_554 S
H766 C771 0.950 . S
H767 C772 0.949 . S
H768 C774 0.950 . S
H769 C775 0.950 . S
H770 C776 0.949 . S
C771 H766 0.950 . S
C771 C773 1.327 . S
C771 C777 1.429 . S
C772 C764 1.574 . S
C772 H767 0.949 . S
C772 C778 1.368 . S
C773 C757 1.349 . S
C773 H765 0.950 1_556 S
C773 C771 1.327 . S
C774 C762 1.349 . S
C774 H768 0.950 . S
C774 C775 1.327 . S
C775 H769 0.950 . S
C775 C774 1.327 . S
C775 C779 1.429 . S
C776 C759 1.574 . S
C776 H770 0.949 . S
C776 C780 1.368 . S
C777 C758 1.429 . S
C777 C771 1.429 . S
C777 C778 1.523 . S
C778 C759 1.368 . S
C778 C772 1.368 . S
C778 C777 1.523 . S
C779 C763 1.429 . S
C779 C775 1.429 . S
C779 C780 1.523 . S
C780 C764 1.368 . S
C780 C776 1.368 . S
C780 C779 1.523 . S
H781 C756 0.950 . S
H782 C758 0.950 . S
H783 C759 0.949 . S
H784 C761 0.950 . S
H785 C763 0.950 . S
C786 C787 1.349 . S
C786 C788 1.327 . S
C786 H811 0.950 . S
C787 C786 1.349 . S
C787 C803 1.349 . S
C788 C786 1.327 . S
C788 C807 1.429 . S
C788 H812 0.950 . S
C789 C806 1.574 . S
C789 C808 1.368 . S
C789 H813 0.949 . S
H790 C794 0.949 . S
C791 C792 1.349 . S
C791 C793 1.327 . S
C791 H814 0.950 . S
C792 C791 1.349 . S
C792 C804 1.349 . S
C793 C791 1.327 . S
C793 C809 1.429 . S
C793 H815 0.950 . S
C794 H790 0.949 . S
C794 C802 1.574 . S
C794 C810 1.368 . S
H795 C803 0.950 . S
H796 C801 0.950 . S
H797 C802 0.949 . S
H798 C804 0.950 . S
H799 C805 0.950 . S
H800 C806 0.949 . S
C801 H796 0.950 . S
C801 C803 1.327 . S
C801 C807 1.429 . S
C802 C794 1.574 . S
C802 H797 0.949 . S
C802 C808 1.368 . S
C803 C787 1.349 . S
C803 H795 0.950 . S
C803 C801 1.327 . S
C804 C792 1.349 . S
C804 H798 0.950 . S
C804 C805 1.327 . S
C805 H799 0.950 . S
C805 C804 1.327 . S
C805 C809 1.429 . S
C806 C789 1.574 . S
C806 H800 0.949 . S
C806 C810 1.368 . S
C807 C788 1.429 . S
C807 C801 1.429 . S
C807 C808 1.523 . S
C808 C789 1.368 . S
C808 C802 1.368 . S
C808 C807 1.523 . S
C809 C793 1.429 . S
C809 C805 1.429 . S
C809 C810 1.523 . S
C810 C794 1.368 . S
C810 C806 1.368 . S
C810 C809 1.523 . S
H811 C786 0.950 . S
H812 C788 0.950 . S
H813 C789 0.949 . S
H814 C791 0.950 . S
H815 C793 0.950 . S
C816 C817 1.349 . S
C816 C818 1.327 . S
C816 H841 0.950 . S
C817 C816 1.349 . S
C817 C833 1.349 . S
C818 C816 1.327 . S
C818 C837 1.429 . S
C818 H842 0.950 . S
C819 C836 1.574 . S
C819 C838 1.368 1_556 S
C819 H843 0.949 . S
H820 C824 0.949 . S
C821 C822 1.349 . S
C821 C823 1.327 . S
C821 H844 0.950 . S
C822 C821 1.349 . S
C822 C834 1.349 . S
C823 C821 1.327 . S
C823 C839 1.429 . S
C823 H845 0.950 . S
C824 H820 0.949 . S
C824 C832 1.573 . S
C824 C840 1.369 1_554 S
H825 C833 0.950 . S
H826 C831 0.950 1_556 S
H827 C832 0.949 . S
H828 C834 0.950 . S
H829 C835 0.950 . S
H830 C836 0.949 . S
C831 H826 0.950 1_554 S
C831 C833 1.327 . S
C831 C837 1.429 . S
C832 C824 1.573 . S
C832 H827 0.949 . S
C832 C838 1.368 . S
C833 C817 1.349 . S
C833 H825 0.950 . S
C833 C831 1.327 . S
C834 C822 1.349 . S
C834 H828 0.950 . S
C834 C835 1.327 . S
C835 H829 0.950 . S
C835 C834 1.327 . S
C835 C839 1.429 . S
C836 C819 1.574 . S
C836 H830 0.949 . S
C836 C840 1.368 . S
C837 C818 1.429 . S
C837 C831 1.429 . S
C837 C838 1.523 . S
C838 C819 1.368 1_554 S
C838 C832 1.368 . S
C838 C837 1.523 . S
C839 C823 1.429 . S
C839 C835 1.429 . S
C839 C840 1.523 . S
C840 C824 1.369 1_556 S
C840 C836 1.368 . S
C840 C839 1.523 . S
H841 C816 0.950 . S
H842 C818 0.950 . S
H843 C819 0.949 . S
H844 C821 0.950 . S
H845 C823 0.950 . S
C846 C847 1.349 1_565 S
C846 C848 1.327 1_554 S
C846 H871 0.950 . S
C847 C846 1.349 1_545 S
C847 C863 1.349 . S
C848 C846 1.327 1_556 S
C848 C867 1.429 1_565 S
C848 H872 0.950 . S
C849 C866 1.574 . S
C849 C868 1.368 . S
C849 H873 0.951 . S
H850 C854 0.949 . S
C851 C852 1.349 . S
C851 C853 1.327 . S
C851 H874 0.950 . S
C852 C851 1.349 . S
C852 C864 1.349 1_545 S
C853 C851 1.327 . S
C853 C869 1.429 . S
C853 H875 0.950 . S
C854 H850 0.949 . S
C854 C862 1.574 . S
C854 C870 1.368 1_565 S
H855 C863 0.950 . S
H856 C861 0.950 . S
H857 C862 0.949 . S
H858 C864 0.950 . S
H859 C865 0.950 . S
H860 C866 0.949 . S
C861 H856 0.950 . S
C861 C863 1.327 . S
C861 C867 1.429 1_554 S
C862 C854 1.574 . S
C862 H857 0.949 . S
C862 C868 1.368 1_565 S
C863 C847 1.349 . S
C863 H855 0.950 . S
C863 C861 1.327 . S
C864 C852 1.349 1_565 S
C864 H858 0.950 . S
C864 C865 1.327 . S
C865 H859 0.950 . S
C865 C864 1.327 . S
C865 C869 1.429 1_565 S
C866 C849 1.574 . S
C866 H860 0.949 . S
C866 C870 1.368 . S
C867 C848 1.429 1_545 S
C867 C861 1.429 1_556 S
C867 C868 1.523 . S
C868 C849 1.368 . S
C868 C862 1.368 1_545 S
C868 C867 1.523 . S
C869 C853 1.429 . S
C869 C865 1.429 1_545 S
C869 C870 1.523 . S
C870 C854 1.368 1_545 S
C870 C866 1.368 . S
C870 C869 1.523 . S
H871 C846 0.950 . S
H872 C848 0.950 . S
H873 C849 0.951 . S
H874 C851 0.950 . S
H875 C853 0.950 . S
C876 C877 1.349 . S
C876 C878 1.327 1_554 S
C876 H901 0.950 1_554 S
C877 C876 1.349 . S
C877 C893 1.349 . S
C878 C876 1.327 1_556 S
C878 C897 1.429 1_556 S
C878 H902 0.950 . S
C879 C896 1.574 1_554 S
C879 C898 1.368 1_554 S
C879 H903 0.949 . S
H880 C884 0.949 . S
C881 C882 1.349 . S
C881 C883 1.327 . S
C881 H904 0.950 . S
C882 C881 1.349 . S
C882 C894 1.349 . S
C883 C881 1.327 . S
C883 C899 1.429 . S
C883 H905 0.950 . S
C884 H880 0.949 . S
C884 C892 1.574 . S
C884 C900 1.368 . S
H885 C893 0.950 . S
H886 C891 0.950 . S
H887 C892 0.949 . S
H888 C894 0.950 . S
H889 C895 0.950 . S
H890 C896 0.949 . S
C891 H886 0.950 . S
C891 C893 1.327 . S
C891 C897 1.429 . S
C892 C884 1.574 . S
C892 H887 0.949 . S
C892 C898 1.368 . S
C893 C877 1.349 . S
C893 H885 0.950 . S
C893 C891 1.327 . S
C894 C882 1.349 . S
C894 H888 0.950 . S
C894 C895 1.327 . S
C895 H889 0.950 . S
C895 C894 1.327 . S
C895 C899 1.429 . S
C896 C879 1.574 1_556 S
C896 H890 0.949 . S
C896 C900 1.368 . S
C897 C878 1.429 1_554 S
C897 C891 1.429 . S
C897 C898 1.523 1_554 S
C898 C879 1.368 1_556 S
C898 C892 1.368 . S
C898 C897 1.523 1_556 S
C899 C883 1.429 . S
C899 C895 1.429 . S
C899 C900 1.523 . S
C900 C884 1.368 . S
C900 C896 1.368 . S
C900 C899 1.523 . S
H901 C876 0.950 1_556 S
H902 C878 0.950 . S
H903 C879 0.949 . S
H904 C881 0.950 . S
H905 C883 0.950 . S
C906 C907 1.349 . S
C906 C908 1.327 . S
C906 H931 0.950 . S
C907 C906 1.349 . S
C907 C923 1.349 . S
C908 C906 1.327 . S
C908 C927 1.429 . S
C908 H932 0.950 . S
C909 C926 1.574 . S
C909 C928 1.368 . S
C909 H933 0.949 . S
H910 C914 0.949 . S
C911 C912 1.349 . S
C911 C913 1.327 . S
C911 H934 0.950 . S
C912 C911 1.349 . S
C912 C924 1.349 . S
C913 C911 1.327 . S
C913 C929 1.429 . S
C913 H935 0.950 . S
C914 H910 0.949 . S
C914 C922 1.574 1_556 S
C914 C930 1.368 . S
H915 C923 0.950 . S
H916 C921 0.950 1_556 S
H917 C922 0.949 . S
H918 C924 0.950 . S
H919 C925 0.950 . S
H920 C926 0.949 . S
C921 H916 0.950 1_554 S
C921 C923 1.327 . S
C921 C927 1.429 . S
C922 C914 1.574 1_554 S
C922 H917 0.949 . S
C922 C928 1.368 1_554 S
C923 C907 1.349 . S
C923 H915 0.950 . S
C923 C921 1.327 . S
C924 C912 1.349 . S
C924 H918 0.950 . S
C924 C925 1.327 . S
C925 H919 0.950 . S
C925 C924 1.327 . S
C925 C929 1.429 . S
C926 C909 1.574 . S
C926 H920 0.949 . S
C926 C930 1.368 . S
C927 C908 1.429 . S
C927 C921 1.429 . S
C927 C928 1.523 1_554 S
C928 C909 1.368 . S
C928 C922 1.368 1_556 S
C928 C927 1.523 1_556 S
C929 C913 1.429 . S
C929 C925 1.429 . S
C929 C930 1.523 . S
C930 C914 1.368 . S
C930 C926 1.368 . S
C930 C929 1.523 . S
H931 C906 0.950 . S
H932 C908 0.950 . S
H933 C909 0.949 . S
H934 C911 0.950 . S
H935 C913 0.950 . S
C936 C937 1.349 . S
C936 C938 1.327 . S
C936 H961 0.950 . S
C937 C936 1.349 . S
C937 C953 1.349 . S
C938 C936 1.327 . S
C938 C957 1.429 . S
C938 H962 0.950 . S
C939 C956 1.574 . S
C939 C958 1.368 . S
C939 H963 0.949 . S
H940 C944 0.949 . S
C941 C942 1.349 . S
C941 C943 1.327 . S
C941 H964 0.950 . S
C942 C941 1.349 . S
C942 C954 1.349 . S
C943 C941 1.327 . S
C943 C959 1.429 . S
C943 H965 0.950 . S
C944 H940 0.949 . S
C944 C952 1.574 . S
C944 C960 1.368 . S
H945 C953 0.950 . S
H946 C951 0.950 . S
H947 C952 0.949 . S
H948 C954 0.950 . S
H949 C955 0.950 . S
H950 C956 0.949 . S
C951 H946 0.950 . S
C951 C953 1.327 . S
C951 C957 1.429 . S
C952 C944 1.574 . S
C952 H947 0.949 . S
C952 C958 1.368 . S
C953 C937 1.349 . S
C953 H945 0.950 . S
C953 C951 1.327 . S
C954 C942 1.349 . S
C954 H948 0.950 . S
C954 C955 1.327 . S
C955 H949 0.950 . S
C955 C954 1.327 . S
C955 C959 1.429 . S
C956 C939 1.574 . S
C956 H950 0.949 . S
C956 C960 1.368 . S
C957 C938 1.429 . S
C957 C951 1.429 . S
C957 C958 1.523 . S
C958 C939 1.368 . S
C958 C952 1.368 . S
C958 C957 1.523 . S
C959 C943 1.429 . S
C959 C955 1.429 . S
C959 C960 1.523 . S
C960 C944 1.368 . S
C960 C956 1.368 . S
C960 C959 1.523 . S
H961 C936 0.950 . S
H962 C938 0.950 . S
H963 C939 0.949 . S
H964 C941 0.950 . S
H965 C943 0.950 . S
C966 C967 1.348 . S
C966 C968 1.327 . S
C966 H991 0.950 . S
C967 C966 1.348 . S
C967 C983 1.350 1_545 S
C968 C966 1.327 . S
C968 C987 1.429 . S
C968 H992 0.950 . S
C969 C986 1.574 . S
C969 C988 1.368 1_565 S
C969 H993 0.949 . S
H970 C974 0.949 . S
C971 C972 1.349 1_565 S
C971 C973 1.327 . S
C971 H994 0.950 . S
C972 C971 1.349 1_545 S
C972 C984 1.349 . S
C973 C971 1.327 . S
C973 C989 1.429 1_565 S
C973 H995 0.950 . S
C974 H970 0.949 . S
C974 C982 1.574 . S
C974 C990 1.368 . S
H975 C983 0.950 . S
H976 C981 0.950 . S
H977 C982 0.949 . S
H978 C984 0.950 . S
H979 C985 0.950 . S
H980 C986 0.949 . S
C981 H976 0.950 . S
C981 C983 1.327 . S
C981 C987 1.429 1_565 S
C982 C974 1.574 . S
C982 H977 0.949 . S
C982 C988 1.368 . S
C983 C967 1.350 1_565 S
C983 H975 0.950 . S
C983 C981 1.327 . S
C984 C972 1.349 . S
C984 H978 0.950 . S
C984 C985 1.327 . S
C985 H979 0.950 . S
C985 C984 1.327 . S
C985 C989 1.429 . S
C986 C969 1.574 . S
C986 H980 0.949 . S
C986 C990 1.368 1_565 S
C987 C968 1.429 . S
C987 C981 1.429 1_545 S
C987 C988 1.523 . S
C988 C969 1.368 1_545 S
C988 C982 1.368 . S
C988 C987 1.523 . S
C989 C973 1.429 1_545 S
C989 C985 1.429 . S
C989 C990 1.523 . S
C990 C974 1.368 . S
C990 C986 1.368 1_545 S
C990 C989 1.523 . S
H991 C966 0.950 . S
H992 C968 0.950 . S
H993 C969 0.949 . S
H994 C971 0.950 . S
H995 C973 0.950 . S
C996 C997 1.349 . S
C996 C998 1.327 . S
C996 H1021 0.950 . S
C997 C996 1.349 . S
C997 C1013 1.349 . S
C998 C996 1.327 . S
C998 C1017 1.429 . S
C998 H1022 0.950 . S
C999 C1016 1.574 . S
C999 C1018 1.368 . S
C999 H1023 0.949 . S
H1000 C1004 0.949 . S
C1001 C1002 1.349 . S
C1001 C1003 1.327 . S
C1001 H1024 0.950 . S
C1002 C1001 1.349 . S
C1002 C1014 1.349 . S
C1003 C1001 1.327 . S
C1003 C1019 1.429 . S
C1003 H1025 0.950 . S
C1004 H1000 0.949 . S
C1004 C1012 1.574 . S
C1004 C1020 1.368 . S
H1005 C1013 0.950 . S
H1006 C1011 0.950 . S
H1007 C1012 0.949 . S
H1008 C1014 0.950 . S
H1009 C1015 0.950 . S
H1010 C1016 0.949 . S
C1011 H1006 0.950 . S
C1011 C1013 1.327 . S
C1011 C1017 1.429 . S
C1012 C1004 1.574 . S
C1012 H1007 0.949 . S
C1012 C1018 1.368 . S
C1013 C997 1.349 . S
C1013 H1005 0.950 . S
C1013 C1011 1.327 . S
C1014 C1002 1.349 . S
C1014 H1008 0.950 . S
C1014 C1015 1.327 . S
C1015 H1009 0.950 . S
C1015 C1014 1.327 . S
C1015 C1019 1.429 . S
C1016 C999 1.574 . S
C1016 H1010 0.949 . S
C1016 C1020 1.368 . S
C1017 C998 1.429 . S
C1017 C1011 1.429 . S
C1017 C1018 1.523 . S
C1018 C999 1.368 . S
C1018 C1012 1.368 . S
C1018 C1017 1.523 . S
C1019 C1003 1.429 . S
C1019 C1015 1.429 . S
C1019 C1020 1.523 . S
C1020 C1004 1.368 . S
C1020 C1016 1.368 . S
C1020 C1019 1.523 . S
H1021 C996 0.950 . S
H1022 C998 0.950 . S
H1023 C999 0.949 . S
H1024 C1001 0.950 . S
H1025 C1003 0.950 . S
C1026 C1027 1.349 . S
C1026 C1028 1.327 . S
C1026 H1051 0.950 . S
C1027 C1026 1.349 . S
C1027 C1043 1.349 . S
C1028 C1026 1.327 . S
C1028 C1047 1.429 . S
C1028 H1052 0.950 . S
C1029 C1046 1.574 . S
C1029 C1048 1.368 . S
C1029 H1053 0.949 . S
H1030 C1034 0.949 . S
C1031 C1032 1.349 . S
C1031 C1033 1.327 . S
C1031 H1054 0.950 . S
C1032 C1031 1.349 . S
C1032 C1044 1.349 . S
C1033 C1031 1.327 . S
C1033 C1049 1.429 . S
C1033 H1055 0.950 . S
C1034 H1030 0.949 . S
C1034 C1042 1.574 . S
C1034 C1050 1.368 . S
H1035 C1043 0.950 . S
H1036 C1041 0.950 . S
H1037 C1042 0.949 . S
H1038 C1044 0.950 . S
H1039 C1045 0.950 . S
H1040 C1046 0.949 . S
C1041 H1036 0.950 . S
C1041 C1043 1.327 . S
C1041 C1047 1.429 . S
C1042 C1034 1.574 . S
C1042 H1037 0.949 . S
C1042 C1048 1.368 . S
C1043 C1027 1.349 . S
C1043 H1035 0.950 . S
C1043 C1041 1.327 . S
C1044 C1032 1.349 . S
C1044 H1038 0.950 . S
C1044 C1045 1.327 . S
C1045 H1039 0.950 . S
C1045 C1044 1.327 . S
C1045 C1049 1.429 . S
C1046 C1029 1.574 . S
C1046 H1040 0.949 . S
C1046 C1050 1.368 . S
C1047 C1028 1.429 . S
C1047 C1041 1.429 . S
C1047 C1048 1.523 . S
C1048 C1029 1.368 . S
C1048 C1042 1.368 . S
C1048 C1047 1.523 . S
C1049 C1033 1.429 . S
C1049 C1045 1.429 . S
C1049 C1050 1.523 . S
C1050 C1034 1.368 . S
C1050 C1046 1.368 . S
C1050 C1049 1.523 . S
H1051 C1026 0.950 . S
H1052 C1028 0.950 . S
H1053 C1029 0.949 . S
H1054 C1031 0.950 . S
H1055 C1033 0.950 . S
C337 C215 1.429 . S
C342 C257 1.451 . S
C372 C292 2.036 . S
C367 C247 2.017 . S
C402 C297 1.262 . S
C397 C151 1.220 . S
C432 C317 1.717 . S
C427 C183 1.710 . S
C462 C265 1.451 . S
C457 C87 1.418 . S
C487 C119 1.833 . S
C492 C282 2.035 . S
C517 C23 1.265 . S
C522 C305 1.262 . S
C547 C55 1.550 . S
C552 C325 1.718 . S
C582 C275 1.069 . S
C577 C189 1.077 . S
C612 C284 0.529 . S
C607 C221 0.494 . S
C642 C315 1.268 . S
C637 C253 1.284 . S
C667 C157 0.682 . S
C672 C335 0.675 . S
C697 C61 0.966 . S
C702 C264 1.070 . S
C732 C295 0.495 . S
C727 C93 0.500 1_565 S
C762 C304 1.268 . S
C757 C125 1.119 . S
C787 C29 0.666 . S
C792 C324 0.674 . S
C817 C177 1.944 . S
C822 C262 1.962 . S
C847 C209 1.480 . S
C852 C285 1.564 . S
C882 C302 2.061 . S
C877 C241 2.022 . S
C912 C322 1.815 . S
C907 C145 1.713 . S
C937 C49 1.807 . S
C942 C272 1.963 . S
C972 C277 1.563 . S
C967 C81 1.472 . S
C1002 C312 2.062 . S
C997 C113 1.865 . S
C1027 C17 1.772 . S
C1032 C332 1.815 . S
