# Generated by pormake.
# Topology zzz, (3,6)-cn, num edge types: 1
# Building blocks:
#     Node 0, Type 0, BuildingBlock: KAKCAD_clean_linker_0, # of connection points: 3
#     Node 1, Type 0, BuildingBlock: KAKCAD_clean_linker_0, # of connection points: 3
#     Node 2, Type 0, BuildingBlock: KAKCAD_clean_linker_0, # of connection points: 3
#     Node 3, Type 0, BuildingBlock: KAKCAD_clean_linker_0, # of connection points: 3
#     Node 4, Type 0, BuildingBlock: KAKCAD_clean_linker_0, # of connection points: 3
#     Node 5, Type 0, BuildingBlock: KAKCAD_clean_linker_0, # of connection points: 3
#     Node 6, Type 0, BuildingBlock: KAKCAD_clean_linker_0, # of connection points: 3
#     Node 7, Type 0, BuildingBlock: KAKCAD_clean_linker_0, # of connection points: 3
#     Node 8, Type 1, BuildingBlock: KUMBUR_clean_sbu_1, # of connection points: 6
#     Node 9, Type 1, BuildingBlock: KUMBUR_clean_sbu_1, # of connection points: 6
#     Node 10, Type 1, BuildingBlock: KUMBUR_clean_sbu_1, # of connection points: 6
#     Node 11, Type 1, BuildingBlock: KUMBUR_clean_sbu_1, # of connection points: 6
#     Edge 12, Type (0, 1), BuildingBlock: XUDNAN_clean_linker_2, # of connection points: 2
#     Edge 13, Type (0, 1), BuildingBlock: XUDNAN_clean_linker_2, # of connection points: 2
#     Edge 14, Type (0, 1), BuildingBlock: XUDNAN_clean_linker_2, # of connection points: 2
#     Edge 15, Type (0, 1), BuildingBlock: XUDNAN_clean_linker_2, # of connection points: 2
#     Edge 16, Type (0, 1), BuildingBlock: XUDNAN_clean_linker_2, # of connection points: 2
#     Edge 17, Type (0, 1), BuildingBlock: XUDNAN_clean_linker_2, # of connection points: 2
#     Edge 18, Type (0, 1), BuildingBlock: XUDNAN_clean_linker_2, # of connection points: 2
#     Edge 19, Type (0, 1), BuildingBlock: XUDNAN_clean_linker_2, # of connection points: 2
#     Edge 20, Type (0, 1), BuildingBlock: XUDNAN_clean_linker_2, # of connection points: 2
#     Edge 21, Type (0, 1), BuildingBlock: XUDNAN_clean_linker_2, # of connection points: 2
#     Edge 22, Type (0, 1), BuildingBlock: XUDNAN_clean_linker_2, # of connection points: 2
#     Edge 23, Type (0, 1), BuildingBlock: XUDNAN_clean_linker_2, # of connection points: 2
#     Edge 24, Type (0, 1), BuildingBlock: XUDNAN_clean_linker_2, # of connection points: 2
#     Edge 25, Type (0, 1), BuildingBlock: XUDNAN_clean_linker_2, # of connection points: 2
#     Edge 26, Type (0, 1), BuildingBlock: XUDNAN_clean_linker_2, # of connection points: 2
#     Edge 27, Type (0, 1), BuildingBlock: XUDNAN_clean_linker_2, # of connection points: 2
#     Edge 28, Type (0, 1), BuildingBlock: XUDNAN_clean_linker_2, # of connection points: 2
#     Edge 29, Type (0, 1), BuildingBlock: XUDNAN_clean_linker_2, # of connection points: 2
#     Edge 30, Type (0, 1), BuildingBlock: XUDNAN_clean_linker_2, # of connection points: 2
#     Edge 31, Type (0, 1), BuildingBlock: XUDNAN_clean_linker_2, # of connection points: 2
#     Edge 32, Type (0, 1), BuildingBlock: XUDNAN_clean_linker_2, # of connection points: 2
#     Edge 33, Type (0, 1), BuildingBlock: XUDNAN_clean_linker_2, # of connection points: 2
#     Edge 34, Type (0, 1), BuildingBlock: XUDNAN_clean_linker_2, # of connection points: 2
#     Edge 35, Type (0, 1), BuildingBlock: XUDNAN_clean_linker_2, # of connection points: 2
# Relax obj value: 0.311
# Max RMSD: 0.208
# Mean RMSD: 0.181
data_MOF--net-zzz--node1-KUMBUR_clean_sbu_1--node2-KAKCAD_clean_linker_0--edge1-XUDNAN_clean_linker_2
_symmetry_space_group_name_H-M    P1
_symmetry_Int_Tables_number       1
_symmetry_cell_setting            triclinic
loop_
_symmetry_equiv_pos_as_xyz
'x, y, z'
_cell_length_a     56.558112
_cell_length_b     56.670877
_cell_length_c     21.016998
_cell_angle_alpha  90.050787
_cell_angle_beta   89.909794
_cell_angle_gamma 90.519606
loop_
_atom_site_label
_atom_site_type_symbol
_atom_site_fract_x
_atom_site_fract_y
_atom_site_fract_z
_atom_type_partial_charge
C0 C 0.8012 0.62004 0.02537 0.0
C1 C 0.8245 0.61218 0.01824 0.0
C2 C 0.78525 0.60729 0.06378 0.0
C3 C 0.79248 0.58645 0.09441 0.0
C4 C 0.81555 0.57833 0.08465 0.0
C5 C 0.83135 0.59108 0.04747 0.0
C6 C 0.77665 0.57312 0.13802 0.0
C7 C 0.75312 0.56831 0.12233 0.0
C8 C 0.73862 0.55429 0.16194 0.0
C9 C 0.74854 0.54443 0.21833 0.0
C10 C 0.77235 0.5499 0.23546 0.0
C11 C 0.7858 0.56426 0.19475 0.0
C12 C 0.78495 0.54126 0.2938 0.0
C13 C 0.79732 0.55779 0.3316 0.0
C14 C 0.79047 0.51732 0.30136 0.0
C15 C 0.80915 0.51039 0.34163 0.0
C16 C 0.82333 0.52725 0.37434 0.0
C17 C 0.71325 0.55134 0.14192 0.0
C18 C 0.70042 0.57158 0.12541 0.0
C19 C 0.70322 0.52917 0.12737 0.0
C20 C 0.68146 0.52746 0.09443 0.0
C21 C 0.6692 0.54789 0.0749 0.0
C22 C 0.67903 0.56994 0.09223 0.0
C23 C 0.81628 0.55102 0.3703 0.0
H24 H 0.79548 0.63602 1.00198 0.0
H25 H 0.76751 0.61389 0.07038 0.0
H26 H 0.82146 0.56197 0.10576 0.0
H27 H 0.849 0.58419 0.0407 0.0
H28 H 0.74614 0.57513 0.07804 0.0
H29 H 0.80399 0.56838 0.20714 0.0
H30 H 0.73776 0.53345 0.24919 0.0
H31 H 0.79371 0.57645 0.32666 0.0
H32 H 0.78154 0.50409 0.27272 0.0
H33 H 0.81293 0.49176 0.34472 0.0
H34 H 0.70767 0.58898 0.13524 0.0
H35 H 0.71275 0.51321 0.13852 0.0
H36 H 0.82624 0.56493 0.39342 0.0
H37 H 0.67091 0.58625 0.07759 0.0
H38 H 0.67454 0.51009 0.08325 0.0
C39 C 0.94083 0.79866 0.99217 0.0
C40 C 0.94775 0.82243 0.98998 0.0
C41 C 0.94692 0.78473 0.04456 0.0
C42 C 0.96086 0.79417 0.09432 0.0
C43 C 0.9669 0.8183 0.09243 0.0
C44 C 0.96017 0.83226 0.04137 0.0
C45 C 0.97099 0.7788 0.14486 0.0
C46 C 0.97724 0.75546 0.13121 0.0
C47 C 0.98876 0.74133 0.17607 0.0
C48 C 0.99516 0.75127 0.2358 0.0
C49 C 0.98893 0.77493 0.25024 0.0
C50 C 0.97632 0.78799 0.20524 0.0
C51 C 0.99548 0.78761 0.31018 0.0
C52 C 0.97822 0.79117 0.35731 0.0
C53 C 0.01595 0.8019 0.31166 0.0
C54 C 0.0187 0.81983 0.35763 0.0
C55 C 1.00095 0.82413 0.40333 0.0
C56 C 0.99314 0.71637 0.15656 0.0
C57 C 0.97353 0.70111 0.14984 0.0
C58 C 0.01434 0.71032 0.12555 0.0
C59 C 0.01535 0.69038 0.08537 0.0
C60 C 0.99509 0.67632 0.07473 0.0
C61 C 0.97446 0.68144 0.10931 0.0
C62 C 0.98095 0.80902 0.40333 0.0
H63 H 0.93141 0.79073 0.9526 0.0
H64 H 0.94136 0.76641 0.04484 0.0
H65 H 0.97808 0.8263 0.12831 0.0
H66 H 0.96624 0.85045 0.03993 0.0
H67 H 0.97369 0.74813 0.0845 0.0
H68 H 0.97108 0.80579 0.21741 0.0
H69 H 1.00458 0.74079 0.27039 0.0
H70 H 0.96184 0.78112 0.356 0.0
H71 H 0.02921 0.80016 0.27472 0.0
H72 H 0.0345 0.83074 0.35615 0.0
H73 H 0.95676 0.70563 0.17144 0.0
H74 H 0.02948 0.72212 0.12795 0.0
H75 H 0.96663 0.8118 0.43667 0.0
H76 H 0.95849 0.67112 0.10163 0.0
H77 H 0.03138 0.68711 0.05862 0.0
C78 C 0.73244 0.92846 0.01567 0.0
C79 C 0.71264 0.91818 0.04593 0.0
C80 C 0.75007 0.9396 0.05159 0.0
C81 C 0.74872 0.93969 0.11841 0.0
C82 C 0.73182 0.92497 0.14788 0.0
C83 C 0.71371 0.91462 0.11216 0.0
C84 C 0.7609 0.95864 0.15566 0.0
C85 C 0.78305 0.96758 0.1374 0.0
C86 C 0.7924 0.98821 0.16506 0.0
C87 C 0.77939 1.00002 0.21312 0.0
C88 C 0.75697 0.99113 0.2323 0.0
C89 C 0.74841 0.97029 0.20389 0.0
C90 C 0.74103 1.00318 0.27919 0.0
C91 C 0.74863 1.00944 0.34057 0.0
C92 C 0.71674 1.00489 0.26548 0.0
C93 C 0.70028 1.01038 0.3128 0.0
C94 C 0.70745 0.01521 0.37572 0.0
C95 C 0.81518 0.99721 0.13867 0.0
C96 C 0.8366 0.98852 0.16229 0.0
C97 C 0.81534 1.00901 0.07981 0.0
C98 C 0.83619 1.01086 0.04359 0.0
C99 C 0.85734 1.00066 0.06506 0.0
C100 C 0.85744 0.99033 0.12614 0.0
C101 C 0.73209 0.01556 0.38805 0.0
H102 H 0.73297 0.93036 0.96442 0.0
H103 H 0.76314 0.95019 0.02669 0.0
H104 H 0.73102 0.92356 0.19924 0.0
H105 H 0.69928 0.90632 0.13779 0.0
H106 H 0.79292 0.95881 0.10008 0.0
H107 H 0.73111 0.96374 0.21767 0.0
H108 H 0.78625 0.01622 0.23364 0.0
H109 H 0.76718 1.00842 0.35284 0.0
H110 H 0.7102 1.00058 0.21841 0.0
H111 H 0.68181 1.00952 0.29991 0.0
H112 H 0.83689 0.97887 0.20676 0.0
H113 H 0.79894 0.01528 0.05968 0.0
H114 H 0.73875 0.01993 0.43484 0.0
H115 H 0.87342 0.98259 0.14482 0.0
H116 H 0.83529 0.01877 0.99679 0.0
C117 C 0.51435 0.71328 0.33331 0.0
C118 C 0.53511 0.70513 0.36301 0.0
C119 C 0.51535 0.73089 0.28586 0.0
C120 C 0.5371 0.74093 0.26688 0.0
C121 C 0.55774 0.73314 0.29708 0.0
C122 C 0.55678 0.71566 0.34445 0.0
C123 C 0.53901 0.75532 0.2073 0.0
C124 C 0.53549 0.78018 0.20522 0.0
C125 C 0.53801 0.79251 0.14669 0.0
C126 C 0.54394 0.77991 0.09186 0.0
C127 C 0.54718 0.75553 0.09302 0.0
C128 C 0.54497 0.74337 0.15085 0.0
C129 C 0.55181 0.74302 0.03238 0.0
C130 C 0.53834 0.74855 0.97846 0.0
C131 C 0.56963 0.72602 0.02722 0.0
C132 C 0.57366 0.71458 0.96913 0.0
C133 C 0.55983 0.71986 0.91539 0.0
C134 C 0.53528 0.81848 0.13778 0.0
C135 C 0.51496 0.82686 0.10669 0.0
C136 C 0.5557 0.8328 0.13708 0.0
C137 C 0.55645 0.85383 0.10165 0.0
C138 C 0.53678 0.86115 0.0657 0.0
C139 C 0.51564 0.848 0.07148 0.0
C140 C 0.54228 0.73716 0.92084 0.0
H141 H 0.49729 0.70588 0.34621 0.0
H142 H 0.49919 0.73602 0.26221 0.0
H143 H 0.57483 0.73994 0.28209 0.0
H144 H 0.57328 0.70974 0.36467 0.0
H145 H 0.53103 0.7897 0.24821 0.0
H146 H 0.54735 0.7244 0.15178 0.0
H147 H 0.54613 0.78937 0.04729 0.0
H148 H 0.52423 0.76132 0.98121 0.0
H149 H 0.58044 0.72164 0.06796 0.0
H150 H 0.58729 0.70131 0.96654 0.0
H151 H 0.4992 0.81589 0.10445 0.0
H152 H 0.57184 0.82658 0.15882 0.0
H153 H 0.53072 0.74118 0.88136 0.0
H154 H 0.50017 0.85291 0.0444 0.0
H155 H 0.57295 0.86363 0.09927 0.0
C156 C 0.23908 0.50551 0.37832 0.0
C157 C 0.21808 0.49236 0.38451 0.0
C158 C 0.25173 0.50533 0.32157 0.0
C159 C 0.24395 0.49175 0.26945 0.0
C160 C 0.22334 0.4779 0.27617 0.0
C161 C 0.21047 0.47827 0.33319 0.0
C162 C 0.25694 0.49335 0.20798 0.0
C163 C 0.28153 0.49578 0.20858 0.0
C164 C 0.29427 0.50222 0.15411 0.0
C165 C 0.28197 0.50442 0.09537 0.0
C166 C 0.25703 0.50032 0.09282 0.0
C167 C 0.24493 0.49511 0.1499 0.0
C168 C 0.24235 0.50287 0.03345 0.0
C169 C 0.24275 0.52377 0.99744 0.0
C170 C 0.22476 0.48586 0.01902 0.0
C171 C 0.20727 0.49017 0.97305 0.0
C172 C 0.20662 0.51175 0.94002 0.0
C173 C 0.32 0.50761 0.16448 0.0
C174 C 0.32616 0.52435 0.21138 0.0
C175 C 0.3376 0.49211 0.14356 0.0
C176 C 0.36017 0.49221 0.17227 0.0
C177 C 0.3656 0.50742 0.224 0.0
C178 C 0.34836 0.52412 0.241 0.0
C179 C 0.22513 0.52816 0.95156 0.0
H180 H 0.24509 0.5171 0.41613 0.0
H181 H 0.26713 0.51675 0.31783 0.0
H182 H 0.21698 0.46709 0.23716 0.0
H183 H 0.19428 0.46799 0.33667 0.0
H184 H 0.29093 0.49355 0.25311 0.0
H185 H 0.2258 0.49367 0.14955 0.0
H186 H 0.29154 0.50942 0.05274 0.0
H187 H 0.25583 0.53735 1.0074 0.0
H188 H 0.22385 0.46953 0.04574 0.0
H189 H 0.19345 0.47707 0.96625 0.0
H190 H 0.3129 0.53633 0.22941 0.0
H191 H 0.33344 0.47878 0.10825 0.0
H192 H 0.22562 0.54484 0.9265 0.0
H193 H 0.35115 0.53612 0.28034 0.0
H194 H 0.37294 0.47958 0.15535 0.0
C195 C 0.09846 0.22337 0.28907 0.0
C196 C 0.11249 0.20702 0.25559 0.0
C197 C 0.09221 0.24468 0.26114 0.0
C198 C 0.09954 0.2499 0.19904 0.0
C199 C 0.11674 0.23571 0.1702 0.0
C200 C 0.1235 0.21457 0.19888 0.0
C201 C 0.08428 0.26511 0.15991 0.0
C202 C 0.07734 0.28732 0.18152 0.0
C203 C 0.05848 0.29937 0.15292 0.0
C204 C 0.04584 0.28811 0.10251 0.0
C205 C 0.0533 0.26575 0.07938 0.0
C206 C 0.07274 0.25494 0.1078 0.0
C207 C 0.04046 0.2512 0.03084 0.0
C208 C 0.02212 0.23608 0.05088 0.0
C209 C 0.05127 0.24652 0.97179 0.0
C210 C 0.04454 0.22679 0.93498 0.0
C211 C 0.02705 0.21076 0.95663 0.0
C212 C 0.05296 0.32344 0.17859 0.0
C213 C 0.03119 0.32869 0.20772 0.0
C214 C 0.07148 0.34002 0.18426 0.0
C215 C 0.06879 0.36072 0.21979 0.0
C216 C 0.04734 0.36593 0.25082 0.0
C217 C 0.02841 0.34967 0.24347 0.0
C218 C 0.01557 0.2162 0.01462 0.0
H219 H 0.08965 0.21875 0.33307 0.0
H220 H 0.07903 0.2554 0.28464 0.0
H221 H 0.12301 0.23969 0.12263 0.0
H222 H 0.13533 0.20306 0.17312 0.0
H223 H 0.0862 0.29492 0.22256 0.0
H224 H 0.07761 0.23732 0.09254 0.0
H225 H 0.03071 0.29664 0.0814 0.0
H226 H 0.01413 0.23853 0.09728 0.0
H227 H 0.06602 0.25736 0.95594 0.0
H228 H 0.05364 0.22376 0.89043 0.0
H229 H 0.01669 0.3161 0.20535 0.0
H230 H 0.08859 0.33643 0.16329 0.0
H231 H 1.0024 0.20436 0.03449 0.0
H232 H 1.01153 0.35298 0.26593 0.0
H233 H 0.08408 0.37218 0.22484 0.0
C234 C 0.30037 0.09518 0.3322 0.0
C235 C 0.31825 0.11129 0.3145 0.0
C236 C 0.28263 0.08893 0.28927 0.0
C237 C 0.28245 0.09861 0.22778 0.0
C238 C 0.29835 0.11701 0.21319 0.0
C239 C 0.31601 0.12345 0.25647 0.0
C240 C 0.26914 0.08626 0.17676 0.0
C241 C 0.2463 0.07763 0.18811 0.0
C242 C 0.23577 0.06107 0.14721 0.0
C243 C 0.24839 0.05333 0.09268 0.0
C244 C 0.27105 0.06304 0.07847 0.0
C245 C 0.28102 0.07941 0.12127 0.0
C246 C 0.2861 0.05525 0.02342 0.0
C247 C 0.29004 0.03123 1.01102 0.0
C248 C 0.29986 0.07199 0.98978 0.0
C249 C 0.3183 0.06503 0.94939 0.0
C250 C 0.32355 0.04101 0.94068 0.0
C251 C 0.21258 0.05096 0.16789 0.0
C252 C 0.2116 0.02855 0.19615 0.0
C253 C 0.19299 0.06588 0.1748 0.0
C254 C 0.17332 0.05898 0.21138 0.0
C255 C 0.17282 0.03708 0.24311 0.0
C256 C 0.19203 0.02171 0.23336 0.0
C257 C 0.30845 0.02422 0.97012 0.0
H258 H 0.30145 0.08536 0.37624 0.0
H259 H 0.27065 0.07467 0.30202 0.0
H260 H 0.29828 0.12511 0.16652 0.0
H261 H 0.32918 0.13639 0.24208 0.0
H262 H 0.23717 0.0828 0.2313 0.0
H263 H 0.29906 0.08547 0.1139 0.0
H264 H 0.24065 0.04005 0.0618 0.0
H265 H 0.27989 0.01782 0.03595 0.0
H266 H 0.29719 0.09069 0.99752 0.0
H267 H 0.32931 0.07862 0.92817 0.0
H268 H 0.22671 0.01699 0.19336 0.0
H269 H 0.19347 0.08346 0.15459 0.0
H270 H 0.31135 1.00552 0.96348 0.0
H271 H 0.1927 1.00485 0.25737 0.0
H272 H 0.15881 0.07118 0.21618 0.0
C273 C 0.48241 0.30534 0.91826 0.0
C274 C 0.50252 0.3203 0.92067 0.0
C275 C 0.47844 0.2878 0.96412 0.0
C276 C 0.49413 0.28465 0.01509 0.0
C277 C 0.51484 0.29861 0.01643 0.0
C278 C 0.51909 0.31603 0.9696 0.0
C279 C 0.48476 0.27342 0.07451 0.0
C280 C 0.4928 0.25189 0.10123 0.0
C281 C 0.48231 0.24293 0.15824 0.0
C282 C 0.46471 0.25644 0.18845 0.0
C283 C 0.45705 0.27778 0.16268 0.0
C284 C 0.46684 0.28579 0.10557 0.0
C285 C 0.4422 0.2942 0.19979 0.0
C286 C 0.42466 0.30753 0.16949 0.0
C287 C 0.44962 0.30078 0.26086 0.0
C288 C 0.44269 0.32231 0.28647 0.0
C289 C 0.42803 0.33761 0.25159 0.0
C290 C 0.48972 0.22037 0.1902 0.0
C291 C 0.47259 0.20578 0.21976 0.0
C292 C 0.51365 0.21477 0.19921 0.0
C293 C 0.52018 0.19618 0.23998 0.0
C294 C 0.503 0.18269 0.27339 0.0
C295 C 0.47907 0.18744 0.26084 0.0
C296 C 0.41745 0.32901 0.19551 0.0
H297 H 0.46868 0.30796 0.88333 0.0
H298 H 0.46192 0.27798 0.96283 0.0
H299 H 0.52694 0.29717 0.05609 0.0
H300 H 0.53502 0.32664 0.97329 0.0
H301 H 0.50667 0.24215 0.07762 0.0
H302 H 0.46143 0.30272 0.08665 0.0
H303 H 0.45747 0.25081 0.23382 0.0
H304 H 0.4183 0.3025 0.12276 0.0
H305 H 0.46309 0.29083 0.28542 0.0
H306 H 0.45133 0.32795 0.32985 0.0
H307 H 0.45393 0.20918 0.21325 0.0
H308 H 0.52737 0.22548 0.17737 0.0
H309 H 0.40547 0.33989 0.16846 0.0
H310 H 0.46513 0.1778 0.28506 0.0
H311 H 0.53883 0.1928 0.24634 0.0
Tb312 Tb 0.99624 0.03013 0.6041 0.0
C313 C 0.06794 0.04738 0.81259 0.0
N314 N 0.06936 0.03843 0.7527 0.0
C315 C 0.10375 0.06224 0.73183 0.0
C316 C 0.08406 0.06473 0.83386 0.0
C317 C 0.08744 0.04491 0.71302 0.0
C318 C 0.10199 0.07229 0.79238 0.0
C319 C 0.0485 0.04748 0.91546 0.0
C320 C 0.05047 0.03869 0.85288 0.0
C321 C 0.0641 0.06528 0.93637 0.0
C322 C 0.08202 0.07365 0.89596 0.0
Tb323 Tb 0.0434 1.00876 0.72952 0.0
N324 N 0.03636 0.02074 0.83192 0.0
C325 C 0.03157 0.03743 0.95601 0.0
C326 C 0.02126 1.00961 0.87323 0.0
C327 C 0.01812 0.01819 0.93503 0.0
H328 H 0.08928 0.03673 0.66692 0.0
H329 H 1.00578 1.00954 0.96701 0.0
H330 H 0.94268 0.02806 0.67548 0.0
H331 H 0.02037 1.0009 0.36949 0.0
H332 H 1.01218 0.99357 0.85991 0.0
H333 H 0.02944 0.04372 1.00436 0.0
H334 H 0.02389 0.02504 0.46723 0.0
H335 H 0.11782 0.06764 0.69993 0.0
H336 H 0.06287 0.07223 0.9843 0.0
H337 H 0.09432 0.08692 0.91336 0.0
H338 H 0.90754 1.00231 0.6719 0.0
H339 H 0.11475 0.08559 0.80697 0.0
H340 H 0.98766 0.97182 0.35909 0.0
N341 N 0.961 1.00959 0.60207 0.0
C342 C 0.95863 0.99385 0.55357 0.0
C343 C 0.92197 0.99943 0.639 0.0
C344 C 0.93826 0.9795 0.54758 0.0
C345 C 0.94228 0.01366 0.64185 0.0
C346 C 0.92015 0.98191 0.59248 0.0
N347 N 0.99458 1.00851 0.51288 0.0
C348 C 1.01002 1.01191 0.46363 0.0
C349 C 0.97293 0.97961 0.45182 0.0
C350 C 0.97574 0.99371 0.5065 0.0
C351 C 0.98941 0.98205 0.40242 0.0
C352 C 1.0079 0.99846 0.40808 0.0
H353 H 0.90423 0.9712 0.58968 0.0
H354 H 0.9207 0.95277 0.49028 0.0
H355 H 0.95104 0.95301 0.40609 0.0
O356 O 1.00378 0.06379 0.56823 0.0
O357 O 0.01366 0.99586 0.58802 0.0
O358 O 0.0187 0.9823 0.68928 0.0
O359 O 0.96941 0.04823 0.55513 0.0
O360 O 0.03392 0.03821 0.58283 0.0
O361 O 0.05557 1.0089 0.63107 0.0
O362 O 0.06058 0.98881 0.79953 0.0
O363 O 0.03842 0.04699 0.70906 0.0
O364 O 0.99884 0.04999 0.69301 0.0
O365 O 0.07154 0.98682 0.70216 0.0
O366 O 1.00664 0.99727 0.74873 0.0
O367 O 0.98304 0.02586 0.70318 0.0
C368 C 0.01484 0.9783 0.62844 0.0
C369 C 0.98535 0.07039 0.4693 0.0
C370 C 1.0082 0.08536 0.37874 0.0
C371 C 0.98874 0.08071 0.33888 0.0
C372 C 0.96609 0.06602 0.42872 0.0
C373 C 0.9679 0.07102 0.36382 0.0
C374 C 1.00636 0.07984 0.44371 0.0
C375 C 0.0523 0.02405 0.58477 0.0
C376 C 0.98378 0.06508 0.53804 0.0
C377 C 0.93611 0.96412 0.49533 0.0
C378 C 0.95336 0.96428 0.44732 0.0
C379 C 0.01846 0.05828 0.71818 0.0
C380 C 0.07182 0.95186 0.76145 0.0
C381 C 0.04698 0.91657 0.77263 0.0
C382 C 0.06764 0.90284 0.77481 0.0
C383 C 0.09212 0.93798 0.76331 0.0
C384 C 0.0495 0.94106 0.76431 0.0
C385 C 0.08998 0.9135 0.76943 0.0
C386 C 0.98663 1.00911 0.7458 0.0
C387 C 0.07355 0.97768 0.75851 0.0
H388 H 0.98937 0.08507 0.28876 0.0
H389 H 0.94968 0.05873 0.44707 0.0
H390 H 0.95298 0.06764 0.33284 0.0
H391 H 0.02143 0.08287 0.47449 0.0
H392 H 0.06676 0.88399 0.78264 0.0
H393 H 0.10953 0.94607 0.76078 0.0
H394 H 0.03408 0.95205 0.76166 0.0
H395 H 0.10571 0.90278 0.77151 0.0
Tb396 Tb 0.53084 0.04738 0.75671 0.0
C397 C 0.50597 0.95289 0.66529 0.0
N398 N 0.5215 0.96751 0.63527 0.0
C399 C 0.54988 0.9364 0.62944 0.0
C400 C 0.5124 0.92983 0.68261 0.0
C401 C 0.54268 0.95922 0.61353 0.0
C402 C 0.53488 0.92182 0.66537 0.0
C403 C 0.46608 0.9457 0.70256 0.0
C404 C 0.48326 0.96085 0.67563 0.0
C405 C 0.47278 0.92331 0.72452 0.0
C406 C 0.49593 0.91538 0.71456 0.0
Tb407 Tb 0.50868 1.005 0.6167 0.0
N408 N 0.47747 0.98249 0.65299 0.0
C409 C 0.4425 0.95296 0.70306 0.0
C410 C 0.45416 0.98826 0.64616 0.0
C411 C 0.43642 0.97399 0.67285 0.0
H412 H 0.55434 0.97065 0.58644 0.0
H413 H 0.41809 0.97918 0.66983 0.0
H414 H 0.48093 0.05572 0.84113 0.0
H415 H 0.59538 0.11232 0.68578 0.0
H416 H 0.44917 1.00413 0.62116 0.0
H417 H 0.42873 0.94186 0.72329 0.0
H418 H 0.58093 0.07248 0.71666 0.0
H419 H 0.56701 0.93013 0.61435 0.0
H420 H 0.45995 0.91159 0.74662 0.0
H421 H 0.50064 0.89775 0.72953 0.0
H422 H 0.45129 0.08691 0.85271 0.0
H423 H 0.54052 0.9042 0.6778 0.0
H424 H 0.56752 0.14581 0.68266 0.0
N425 N 0.50312 0.07577 0.77872 0.0
C426 C 0.50813 0.09775 0.75667 0.0
C427 C 0.46699 0.09009 0.82441 0.0
C428 C 0.49221 0.11652 0.7645 0.0
C429 C 0.48368 0.07224 0.81652 0.0
C430 C 0.47099 0.1122 0.79691 0.0
N431 N 0.54548 0.08355 0.72989 0.0
C432 C 0.56881 0.08711 0.7158 0.0
C433 C 0.53759 0.1248 0.71456 0.0
C434 C 0.53036 0.10189 0.73224 0.0
C435 C 0.56119 0.12845 0.69642 0.0
C436 C 0.57699 0.1096 0.69831 0.0
H437 H 0.45822 0.12611 0.80396 0.0
H438 H 0.48649 0.1538 0.74771 0.0
H439 H 0.52635 0.16105 0.70385 0.0
O440 O 0.56156 0.0383 0.80603 0.0
O441 O 0.53243 0.0603 0.65772 0.0
O442 O 0.50091 0.0429 0.60634 0.0
O443 O 0.53504 0.05944 0.85103 0.0
O444 O 0.55983 0.03094 0.70128 0.0
O445 O 0.54525 0.01752 0.60311 0.0
O446 O 0.49068 0.98673 0.54437 0.0
O447 O 0.53185 0.99296 0.69554 0.0
O448 O 0.51757 1.01219 0.78146 0.0
O449 O 0.52003 1.00915 0.52161 0.0
O450 O 0.48172 0.02781 0.66197 0.0
O451 O 0.49653 0.0292 0.76295 0.0
C452 C 0.51688 0.05992 0.61101 0.0
C453 C 0.55337 0.02998 0.91389 0.0
C454 C 0.56806 0.99395 0.96409 0.0
C455 C 0.55364 0.9985 0.0172 0.0
C456 C 0.53919 0.03417 0.96757 0.0
C457 C 0.53916 0.01835 0.01849 0.0
C458 C 0.56733 1.00958 0.91216 0.0
C459 C 0.5627 0.02405 0.64132 0.0
C460 C 0.55374 0.04665 0.85963 0.0
C461 C 0.49859 0.13919 0.7429 0.0
C462 C 0.5213 0.14333 0.71805 0.0
C463 C 0.52654 0.99317 0.7564 0.0
C464 C 0.49015 1.00454 0.44443 0.0
C465 C 0.45898 0.02896 0.39962 0.0
C466 C 0.46247 0.01766 0.34051 0.0
C467 C 0.4936 0.99394 0.38506 0.0
C468 C 0.47307 0.02217 0.45164 0.0
C469 C 0.4798 1.0005 0.33332 0.0
C470 C 0.47851 0.03007 0.72378 0.0
C471 C 0.50337 0.9957 0.4991 0.0
H472 H 0.55401 0.98719 0.05865 0.0
H473 H 0.52817 0.04967 0.97027 0.0
H474 H 0.52824 0.02175 0.05977 0.0
H475 H 0.57789 1.00597 0.8703 0.0
H476 H 0.45157 0.02167 0.29974 0.0
H477 H 0.50664 0.98022 0.37907 0.0
H478 H 0.47081 0.03035 0.4978 0.0
H479 H 0.48227 0.992 0.28769 0.0
Tb480 Tb 0.54814 0.50424 0.6026 0.0
C481 C 0.46439 0.47656 0.74999 0.0
N482 N 0.46541 0.48953 0.69564 0.0
C483 C 0.43591 0.46456 0.64784 0.0
C484 C 0.44952 0.45654 0.7546 0.0
C485 C 0.45096 0.48426 0.64544 0.0
C486 C 0.4353 0.45054 0.70247 0.0
C487 C 0.47854 0.46985 0.8572 0.0
C488 C 0.47898 0.48301 0.80027 0.0
C489 C 0.46375 0.44987 0.86204 0.0
C490 C 0.44939 0.44316 0.81077 0.0
Tb491 Tb 0.4907 0.52112 0.69724 0.0
N492 N 0.49336 0.50227 0.79358 0.0
C493 C 0.49269 0.47737 0.90793 0.0
C494 C 0.50578 0.51061 0.84475 0.0
C495 C 0.50612 0.49801 0.90193 0.0
H496 H 0.45093 0.49524 0.60361 0.0
H497 H 0.51634 0.50455 0.94183 0.0
H498 H 0.59469 0.49054 0.68987 0.0
H499 H 0.53933 0.55826 0.39144 0.0
H500 H 0.51473 0.52741 0.84304 0.0
H501 H 0.49285 0.46776 0.95248 0.0
H502 H 0.5266 0.52815 0.46852 0.0
H503 H 0.42473 0.46027 0.60766 0.0
H504 H 0.46312 0.4396 0.90546 0.0
H505 H 0.43811 0.42769 0.81521 0.0
H506 H 0.63595 0.50504 0.70219 0.0
H507 H 0.42366 0.43527 0.70411 0.0
H508 H 0.57867 0.57728 0.40168 0.0
N509 N 0.5866 0.51497 0.61669 0.0
C510 C 0.59484 0.53207 0.57688 0.0
C511 C 0.62439 0.51304 0.66762 0.0
C512 C 0.61814 0.54082 0.58214 0.0
C513 C 0.60107 0.50498 0.66081 0.0
C514 C 0.63287 0.53126 0.62879 0.0
N515 N 0.55794 0.53069 0.52443 0.0
C516 C 0.5437 0.53632 0.47426 0.0
C517 C 0.58825 0.55715 0.48516 0.0
C518 C 0.58016 0.54 0.52873 0.0
C519 C 0.57316 0.56408 0.43602 0.0
C520 C 0.55092 0.55339 0.43009 0.0
H521 H 0.65095 0.5374 0.63416 0.0
H522 H 0.64394 0.56544 0.54339 0.0
H523 H 0.61772 0.57984 0.45874 0.0
O524 O 0.53925 0.47155 0.56357 0.0
O525 O 0.54174 0.54249 0.60725 0.0
O526 O 0.50255 0.54963 0.63328 0.0
O527 O 0.57486 0.48497 0.55558 0.0
O528 O 0.51385 0.50052 0.55139 0.0
O529 O 0.48507 0.52459 0.59523 0.0
O530 O 0.4773 0.54363 0.76791 0.0
O531 O 0.50084 0.4851 0.66801 0.0
O532 O 0.53993 0.48228 0.68584 0.0
O533 O 0.45606 0.53404 0.68758 0.0
O534 O 0.525 0.53529 0.73414 0.0
O535 O 0.55299 0.50759 0.70576 0.0
C536 C 0.52323 0.5563 0.61053 0.0
C537 C 0.55868 0.46465 0.4664 0.0
C538 C 0.53528 0.452 0.37431 0.0
C539 C 0.55492 0.45659 0.33484 0.0
C540 C 0.57808 0.46909 0.42632 0.0
C541 C 0.57613 0.46507 0.36085 0.0
C542 C 0.53757 0.45607 0.43987 0.0
C543 C 0.49326 0.51143 0.54888 0.0
C544 C 0.5597 0.46926 0.5356 0.0
C545 C 0.62613 0.55836 0.53983 0.0
C546 C 0.61121 0.56654 0.49154 0.0
C547 C 0.51854 0.47371 0.69364 0.0
C548 C 0.45594 0.57367 0.71783 0.0
C549 C 0.47447 0.61183 0.69411 0.0
C550 C 0.45196 0.62105 0.68106 0.0
C551 C 0.43368 0.58309 0.70476 0.0
C552 C 0.47615 0.58794 0.71074 0.0
C553 C 0.43176 0.60667 0.68596 0.0
C554 C 0.54573 0.52492 0.74265 0.0
C555 C 0.45866 0.54864 0.73456 0.0
H556 H 0.55413 0.45322 0.28419 0.0
H557 H 0.59464 0.4757 0.44542 0.0
H558 H 0.59116 0.46844 0.33013 0.0
H559 H 0.52271 0.45275 0.47091 0.0
H560 H 0.44977 0.63948 0.66919 0.0
H561 H 0.41789 0.57222 0.70866 0.0
H562 H 0.49338 0.58039 0.71901 0.0
H563 H 0.41452 0.61395 0.67612 0.0
Tb564 Tb 0.02224 0.55016 0.60839 0.0
C565 C 0.02537 0.44466 0.73588 0.0
N566 N 1.00793 0.45668 0.70687 0.0
C567 C 0.99336 0.42079 0.66007 0.0
C568 C 0.02817 0.42024 0.72664 0.0
C569 C 0.99133 0.44505 0.67134 0.0
C570 C 1.01213 0.40838 0.68696 0.0
C571 C 0.05589 0.44474 0.81593 0.0
C572 C 0.03889 0.45665 0.77945 0.0
C573 C 0.06004 0.42069 0.80422 0.0
C574 C 0.04615 0.40842 0.75956 0.0
Tb575 Tb 1.00669 0.49645 0.72295 0.0
N576 N 0.0336 0.47952 0.79035 0.0
C577 C 0.06728 0.45707 0.86495 0.0
C578 C 0.04334 0.49109 0.84125 0.0
C579 C 0.06071 0.48027 0.87825 0.0
H580 H 0.97686 0.45464 0.65038 0.0
H581 H 0.06886 0.48976 0.91731 0.0
H582 H 0.97634 0.58554 0.61983 0.0
H583 H 0.08176 0.53951 0.40949 0.0
H584 H 0.03801 0.50887 0.85283 0.0
H585 H 0.08046 0.44859 0.89422 0.0
H586 H 0.07015 0.53972 0.5231 0.0
H587 H 0.98053 0.41171 0.63051 0.0
H588 H 0.07325 0.41124 0.83114 0.0
H589 H 0.04885 0.38969 0.75266 0.0
H590 H 0.94724 0.60382 0.54809 0.0
H591 H 0.01362 0.38959 0.67849 0.0
H592 H 0.05282 0.55057 0.32699 0.0
N593 N 0.99568 0.56939 0.54515 0.0
C594 C 0.99879 0.56771 0.48155 0.0
C595 C 0.96147 0.5934 0.52862 0.0
C596 C 0.98284 0.57795 0.43843 0.0
C597 C 0.97798 0.58303 0.56921 0.0
C598 C 0.96358 0.59039 0.46287 0.0
N599 N 0.03499 0.55056 0.50481 0.0
C600 C 0.05755 0.54501 0.48752 0.0
C601 C 0.02512 0.55806 0.39513 0.0
C602 C 0.01942 0.55793 0.46041 0.0
C603 C 0.04767 0.55074 0.37666 0.0
C604 C 0.06411 0.54464 0.42321 0.0
H605 H 0.95089 0.59858 0.43148 0.0
H606 H 0.97526 0.58407 0.3387 0.0
H607 H 0.01248 0.56662 0.30061 0.0
O608 O 0.03649 0.58407 0.59012 0.0
O609 O 0.98502 0.53887 0.61728 0.0
O610 O 0.98635 0.49892 0.63319 0.0
O611 O 0.03859 0.56877 0.68281 0.0
O612 O 0.03201 0.5156 0.56612 0.0
O613 O 0.01857 0.48375 0.62859 0.0
O614 O 0.97193 0.50777 0.7379 0.0
O615 O 0.03804 0.51879 0.73743 0.0
O616 O 0.05236 0.52825 0.64012 0.0
O617 O 0.98752 0.48189 0.79954 0.0
O618 O 0.01314 0.53179 0.76364 0.0
O619 O 0.99579 0.55244 0.68517 0.0
C620 C 0.97678 0.51752 0.60612 0.0
C621 C 0.06995 0.59295 0.65263 0.0
C622 C 0.11123 0.58152 0.64262 0.0
C623 C 0.11802 0.60233 0.67445 0.0
C624 C 0.07687 0.61364 0.68423 0.0
C625 C 0.10087 0.61834 0.69481 0.0
C626 C 0.08713 0.57718 0.63174 0.0
C627 C 0.0284 0.49266 0.57637 0.0
C628 C 0.0449 0.58641 0.64736 0.0
C629 C 0.98742 0.57658 0.37279 0.0
C630 C 1.00861 0.56665 0.35111 0.0
C631 C 0.05603 0.52078 0.69861 0.0
C632 C 0.96369 0.51114 0.84769 0.0
C633 C 0.94778 0.54783 0.89182 0.0
C634 C 0.95156 0.53875 0.95345 0.0
C635 C 0.96724 0.50262 0.90957 0.0
C636 C 0.95417 0.53379 0.83935 0.0
C637 C 0.96136 0.51647 0.962 0.0
C638 C 1.00129 0.55042 0.74557 0.0
C639 C 0.97022 0.49665 0.79189 0.0
H640 H 0.13649 0.60636 0.683 0.0
H641 H 0.06375 0.62588 0.70164 0.0
H642 H 0.1062 0.63432 0.71937 0.0
H643 H 0.08156 0.56088 0.60969 0.0
H644 H 0.94623 0.54832 0.99553 0.0
H645 H 0.97455 0.48527 0.91747 0.0
H646 H 0.95184 0.54048 0.79163 0.0
H647 H 0.96402 0.50972 1.00959 0.0
H648 H 0.1469 0.06671 0.32225 0.0
H649 H 0.15357 0.99304 0.26804 0.0
H650 H 0.12328 0.98224 0.34738 0.0
H651 H 0.138 0.05835 0.48768 0.0
H652 H 0.11603 0.081 0.49591 0.0
H653 H 0.1381 0.08326 0.43434 0.0
H654 H 0.10523 0.08693 0.35061 0.0
H655 H 0.08274 0.08378 0.41119 0.0
H656 H 0.0829 0.06411 0.34391 0.0
H657 H 0.09375 0.97898 0.43721 0.0
H658 H 0.06581 0.98384 0.52656 0.0
H659 H 0.07536 0.05974 0.51777 0.0
C660 C 0.1418 0.04831 0.32597 0.0
C661 C 0.15307 0.03077 0.28848 0.0
C662 C 0.14582 1.00689 0.29653 0.0
C663 C 0.12841 1.00054 0.34137 0.0
C664 C 0.118 0.01822 0.3778 0.0
C665 C 0.12424 0.04165 0.37017 0.0
C666 C 0.11015 0.05717 0.41524 0.0
C667 C 0.12656 0.07074 0.461 0.0
C668 C 0.09433 0.07402 0.37787 0.0
C669 C 0.09536 0.03883 0.45032 0.0
C670 C 0.10025 0.01644 0.42793 0.0
C671 C 0.08965 0.99646 0.45451 0.0
C672 C 0.07382 0.9994 0.50536 0.0
C673 C 0.0683 0.02215 0.52882 0.0
C674 C 0.07901 0.04217 0.50026 0.0
H675 H 0.47952 0.14117 0.31152 0.0
H676 H 0.54186 0.18395 0.35277 0.0
H677 H 0.55259 0.15644 0.43806 0.0
H678 H 0.46423 0.12724 0.47308 0.0
H679 H 0.45526 0.09734 0.45586 0.0
H680 H 0.453 0.11974 0.39557 0.0
H681 H 0.47734 0.09349 0.32132 0.0
H682 H 0.48325 0.07152 0.38133 0.0
H683 H 0.5073 0.08617 0.34204 0.0
H684 H 0.55692 0.12413 0.51947 0.0
H685 H 0.55336 0.09108 0.59392 0.0
H686 H 0.4862 0.07088 0.51021 0.0
C687 C 0.49536 0.14502 0.33855 0.0
C688 C 0.50987 0.165 0.32392 0.0
C689 C 0.53062 0.16869 0.36079 0.0
C690 C 0.53681 0.1532 0.41021 0.0
C691 C 0.52207 0.13396 0.42332 0.0
C692 C 0.50171 0.12986 0.38887 0.0
C693 C 0.48905 0.10778 0.41304 0.0
C694 C 0.46388 0.11335 0.4357 0.0
C695 C 0.48916 0.08863 0.36129 0.0
C696 C 0.50473 0.10079 0.46853 0.0
C697 C 0.52401 0.11587 0.47234 0.0
C698 C 0.54157 0.1126 0.51761 0.0
C699 C 0.53917 0.09384 0.56074 0.0
C700 C 0.519 0.07875 0.56074 0.0
C701 C 0.50169 0.08216 0.51279 0.0
H702 H 0.38961 0.54082 0.30007 0.0
H703 H 0.39261 0.46723 0.24143 0.0
H704 H 0.42693 0.46158 0.31067 0.0
H705 H 0.45288 0.55109 0.32037 0.0
H706 H 0.44923 0.56873 0.39106 0.0
H707 H 0.42638 0.56808 0.33137 0.0
H708 H 0.39576 0.55506 0.41642 0.0
H709 H 0.41851 0.55573 0.47627 0.0
H710 H 0.40136 0.52918 0.46369 0.0
H711 H 0.45966 0.4629 0.39221 0.0
H712 H 0.48738 0.47082 0.48061 0.0
H713 H 0.46217 0.5426 0.4926 0.0
C714 C 0.39725 0.52342 0.30131 0.0
C715 C 0.38794 0.50461 0.2634 0.0
C716 C 0.39928 0.48234 0.26744 0.0
C717 C 0.41885 0.47879 0.30757 0.0
C718 C 0.42709 0.49754 0.34465 0.0
C719 C 0.41659 0.51942 0.34213 0.0
C720 C 0.42801 0.53621 0.39004 0.0
C721 C 0.43983 0.55728 0.35617 0.0
C722 C 0.40983 0.54453 0.43953 0.0
C723 C 0.44638 0.52029 0.42021 0.0
C724 C 0.44571 0.49814 0.39271 0.0
C725 C 0.46063 0.48025 0.41328 0.0
C726 C 0.47657 0.48501 0.46311 0.0
C727 C 0.47755 0.50746 0.49256 0.0
C728 C 0.4621 0.5253 0.47066 0.0
H729 H 0.0217 0.37342 0.3636 0.0
H730 H 0.06846 0.4092 0.2299 0.0
H731 H 0.06971 0.44386 0.29987 0.0
H732 H 0.98775 0.42661 0.40456 0.0
H733 H 0.98414 0.41827 0.48678 0.0
H734 H 0.98682 0.39585 0.42638 0.0
H735 H 0.02208 0.37789 0.48752 0.0
H736 H 0.01956 0.40042 0.54754 0.0
H737 H 0.04724 0.39632 0.50673 0.0
H738 H 0.06868 0.47388 0.38786 0.0
H739 H 0.0608 0.49911 0.48043 0.0
H740 H 1.01109 0.44719 0.55288 0.0
C741 C 0.03194 0.38863 0.34837 0.0
C742 C 0.04546 0.38798 0.29117 0.0
C743 C 0.05856 0.40854 0.27398 0.0
C744 C 0.05929 0.42856 0.3134 0.0
C745 C 0.04644 0.42829 0.36995 0.0
C746 C 0.03258 0.40911 0.38696 0.0
C747 C 0.02008 0.41389 0.45002 0.0
C748 C 0.99309 0.41364 0.4414 0.0
C749 C 0.0277 0.39606 0.50095 0.0
C750 C 0.0292 0.43863 0.46559 0.0
C751 C 0.04462 0.4464 0.41898 0.0
C752 C 0.05613 0.46819 0.42373 0.0
C753 C 0.05131 0.48266 0.47642 0.0
C754 C 0.03473 0.47583 0.52368 0.0
C755 C 0.02383 0.4532 0.51816 0.0
H756 H 0.87633 0.03353 0.97986 0.0
H757 H 0.8855 0.96209 0.0496 0.0
H758 H 0.91867 0.95663 0.97526 0.0
H759 H 0.8892 0.021 0.81501 0.0
H760 H 0.90514 0.04819 0.80111 0.0
H761 H 0.88214 0.047 0.86051 0.0
H762 H 0.91168 0.0622 0.9457 0.0
H763 H 0.93469 0.06354 0.88638 0.0
H764 H 0.93898 0.04667 0.95803 0.0
H765 H 0.95008 0.95807 0.89113 0.0
H766 H 0.97926 0.96735 0.80713 0.0
H767 H 0.95111 0.03802 0.79173 0.0
C768 C 0.88534 0.01675 0.97958 0.0
C769 C 0.87828 0.99832 0.02149 0.0
C770 C 0.89072 0.9767 0.01934 0.0
C771 C 0.90952 0.97332 0.97671 0.0
C772 C 0.91593 0.99172 0.93612 0.0
C773 C 0.90439 0.0131 0.93738 0.0
C774 C 0.91514 0.03 0.88877 0.0
C775 C 0.89681 0.03695 0.83837 0.0
C776 C 0.92575 0.0519 0.9217 0.0
C777 C 0.93438 0.01472 0.86001 0.0
C778 C 0.9344 0.99266 0.88793 0.0
C779 C 0.95034 0.97535 0.86929 0.0
C780 C 0.96691 0.9808 0.82161 0.0
C781 C 0.96774 1.00345 0.79318 0.0
C782 C 0.95098 0.02052 0.81234 0.0
H783 H 0.50557 0.89739 0.03485 0.0
H784 H 0.57357 0.86807 0.98309 0.0
H785 H 0.57803 0.898 0.89891 0.0
H786 H 0.48765 0.91195 0.87243 0.0
H787 H 0.47326 0.93896 0.89482 0.0
H788 H 0.47479 0.91486 0.95056 0.0
H789 H 0.49452 0.9425 0.03291 0.0
H790 H 0.49345 0.96674 0.9776 0.0
H791 H 0.52121 0.95823 1.01205 0.0
H792 H 0.57521 0.93093 0.81851 0.0
H793 H 0.56552 0.96518 0.75055 0.0
H794 H 0.50047 0.97492 0.85607 0.0
C795 C 0.52141 0.8973 1.00589 0.0
C796 C 0.53934 0.88034 0.01656 0.0
C797 C 0.55975 0.88097 0.97715 0.0
C798 C 0.56235 0.89781 0.92852 0.0
C799 C 0.54453 0.9143 0.91964 0.0
C800 C 0.52448 0.9143 0.95736 0.0
C801 C 0.50815 0.93427 0.9379 0.0
C802 C 0.48456 0.92442 0.91243 0.0
C803 C 0.5041 0.95145 0.99341 0.0
C804 C 0.52246 0.94579 0.88478 0.0
C805 C 0.54321 0.93371 0.87429 0.0
C806 C 0.55899 0.94048 0.82635 0.0
C807 C 0.55334 0.95994 0.78786 0.0
C808 C 0.53228 0.97271 0.79792 0.0
C809 C 0.51679 0.9656 0.84753 0.0
H810 H 0.65514 0.5138 0.98545 0.0
H811 H 0.63187 0.57929 0.07212 0.0
H812 H 0.59851 0.58063 0.99775 0.0
H813 H 0.63984 0.52542 0.82529 0.0
H814 H 0.62904 0.49584 0.8107 0.0
H815 H 0.65118 0.50097 0.8705 0.0
H816 H 0.62338 0.47963 0.9515 0.0
H817 H 0.60122 0.47574 0.89073 0.0
H818 H 0.5939 0.49061 0.96388 0.0
H819 H 0.56853 0.57647 0.90773 0.0
H820 H 0.54307 0.56497 0.81693 0.0
H821 H 0.58323 0.5006 0.79499 0.0
C822 C 0.6429 0.52826 0.98995 0.0
C823 C 0.64699 0.54677 0.0345 0.0
C824 C 0.63013 0.56525 0.03751 0.0
C825 C 0.61077 0.56611 0.99559 0.0
C826 C 0.60779 0.54804 0.95126 0.0
C827 C 0.62308 0.52917 0.94915 0.0
C828 C 0.61545 0.51173 0.89789 0.0
C829 C 0.63507 0.50834 0.84813 0.0
C830 C 0.60805 0.48802 0.9278 0.0
C831 C 0.59422 0.52428 0.86966 0.0
C832 C 0.58998 0.54515 0.90141 0.0
C833 C 0.57161 0.56002 0.88303 0.0
C834 C 0.55721 0.55336 0.83117 0.0
C835 C 0.56111 0.53197 0.79787 0.0
C836 C 0.57988 0.51727 0.81818 0.0
H837 H 0.01833 0.63341 0.05692 0.0
H838 H 0.96896 0.68131 0.96842 0.0
H839 H 0.96478 0.65414 0.87712 0.0
H840 H 0.04734 0.61477 0.91102 0.0
H841 H 0.05053 0.58446 0.93522 0.0
H842 H 0.04983 0.60752 0.99425 0.0
H843 H 0.015 0.58621 0.05087 0.0
H844 H 0.01545 0.56317 0.99168 0.0
H845 H 0.98861 0.57912 1.00661 0.0
H846 H 0.96491 0.62179 0.7966 0.0
H847 H 0.97119 0.58719 0.72816 0.0
H848 H 0.02098 0.55924 0.86493 0.0
C849 C 1.0067 0.6381 0.01815 0.0
C850 C 0.99381 0.65947 0.01994 0.0
C851 C 0.97887 0.66503 0.9682 0.0
C852 C 0.97637 0.64969 0.91613 0.0
C853 C 0.98887 0.62862 0.91615 0.0
C854 C 1.00384 0.62275 0.96551 0.0
C855 C 0.01533 0.59896 0.9525 0.0
C856 C 0.04236 0.60159 0.94799 0.0
C857 C 1.00817 0.5808 1.00345 0.0
C858 C 1.00464 0.5926 0.88813 0.0
C859 C 0.98932 0.60998 0.86849 0.0
C860 C 0.97715 0.60826 0.81108 0.0
C861 C 0.98098 0.58853 0.77212 0.0
C862 C 0.997 0.57063 0.78995 0.0
C863 C 1.00873 0.57263 0.84947 0.0
H864 H 0.10507 0.18589 0.37255 0.0
H865 H 0.1126 0.16966 0.17144 0.0
H866 H 0.09332 0.13155 0.18855 0.0
H867 H 0.1032 0.12275 0.43583 0.0
H868 H 0.07959 0.12968 0.49025 0.0
H869 H 0.10182 0.15161 0.47132 0.0
H870 H 0.07 0.18091 0.43595 0.0
H871 H 0.04724 0.15985 0.45502 0.0
H872 H 0.04883 0.17221 0.3761 0.0
H873 H 0.06402 0.10073 0.21881 0.0
H874 H 0.02972 0.07883 0.26231 0.0
H875 H 0.03582 0.11866 0.43823 0.0
C876 C 0.10339 0.17407 0.33235 0.0
C877 C 0.11009 0.18133 0.27049 0.0
C878 C 0.10801 0.16485 0.21973 0.0
C879 C 0.09679 0.143 0.22879 0.0
C880 C 0.0877 0.13777 0.28873 0.0
C881 C 0.09124 0.15268 0.3401 0.0
C882 C 0.07581 0.14557 0.39594 0.0
C883 C 0.091 0.13687 0.45162 0.0
C884 C 0.05951 0.16583 0.41688 0.0
C885 C 0.06185 0.12553 0.36628 0.0
C886 C 0.06948 0.12076 0.30524 0.0
C887 C 0.05813 0.10405 0.26697 0.0
C888 C 0.03846 0.09191 0.29179 0.0
C889 C 0.03001 0.09694 0.3538 0.0
C890 C 0.04211 0.11387 0.39134 0.0
H891 H 0.36174 0.11069 0.25991 0.0
H892 H 0.32686 0.10801 0.44367 0.0
H893 H 0.36345 0.09271 0.49173 0.0
H894 H 0.38634 0.05923 0.26739 0.0
H895 H 0.41389 0.06633 0.22832 0.0
H896 H 0.38814 0.08347 0.21202 0.0
H897 H 0.41069 0.12096 0.2424 0.0
H898 H 0.43697 0.10497 0.26329 0.0
H899 H 0.42321 0.12431 0.32037 0.0
H900 H 0.39884 0.06761 0.51181 0.0
H901 H 0.43135 0.03916 0.5049 0.0
H902 H 0.44419 0.0606 0.30935 0.0
C903 C 0.36212 0.10836 0.31099 0.0
C904 C 0.34138 0.11057 0.34793 0.0
C905 C 0.34251 0.10635 0.41431 0.0
C906 C 0.36326 0.09772 0.44206 0.0
C907 C 0.38283 0.0939 0.40304 0.0
C908 C 0.3826 0.09971 0.33912 0.0
C909 C 0.40435 0.09077 0.30518 0.0
C910 C 0.39776 0.07396 0.25007 0.0
C911 C 0.41976 0.11146 0.28149 0.0
C912 C 0.41608 0.07766 0.35895 0.0
C913 C 0.40366 0.07989 0.41526 0.0
C914 C 0.40924 0.06646 0.46867 0.0
C915 C 0.4278 0.05025 0.46419 0.0
C916 C 0.44057 0.0475 0.40652 0.0
C917 C 0.4348 0.06193 0.35407 0.0
H918 H 0.4317 0.35978 0.36746 0.0
H919 H 0.42895 0.37394 0.16489 0.0
H920 H 0.44825 0.4121 0.18209 0.0
H921 H 0.43616 0.42548 0.42623 0.0
H922 H 0.45787 0.41691 0.48425 0.0
H923 H 0.43386 0.39708 0.46433 0.0
H924 H 0.46385 0.36443 0.43715 0.0
H925 H 0.48795 0.38381 0.45612 0.0
H926 H 0.48654 0.3702 0.37861 0.0
H927 H 0.47862 0.44169 0.21339 0.0
H928 H 0.51481 0.46019 0.25682 0.0
H929 H 0.50414 0.42151 0.43306 0.0
C930 C 0.43424 0.37138 0.32712 0.0
C931 C 0.4292 0.36346 0.26488 0.0
C932 C 0.43238 0.37938 0.2134 0.0
C933 C 0.44358 0.40126 0.22265 0.0
C934 C 0.45148 0.40701 0.28348 0.0
C935 C 0.44652 0.39267 0.33534 0.0
C936 C 0.46166 0.39937 0.392 0.0
C937 C 0.44649 0.41037 0.44482 0.0
C938 C 0.47584 0.37821 0.4173 0.0
C939 C 0.47758 0.41773 0.36177 0.0
C940 C 0.47066 0.42292 0.30049 0.0
C941 C 0.4839 0.43812 0.26187 0.0
C942 C 0.50472 0.4482 0.28657 0.0
C943 C 0.51255 0.44245 0.34864 0.0
C944 C 0.49853 0.42707 0.38633 0.0
H945 H 0.17087 0.5006 0.38472 0.0
H946 H 0.23131 0.49501 0.51009 0.0
H947 H 0.20814 0.51281 0.59727 0.0
H948 H 0.15559 0.55396 0.42387 0.0
H949 H 0.12391 0.55066 0.42245 0.0
H950 H 0.14189 0.53143 0.37534 0.0
H951 H 0.12348 0.4947 0.42858 0.0
H952 H 0.10477 0.51311 0.47677 0.0
H953 H 0.12375 0.49195 0.51403 0.0
H954 H 0.18133 0.53859 0.66264 0.0
H955 H 0.15195 0.56706 0.70292 0.0
H956 H 0.11054 0.55684 0.53134 0.0
C957 C 0.17883 0.50192 0.43142 0.0
C958 C 0.20281 0.49639 0.44076 0.0
C959 C 0.21291 0.4992 0.50202 0.0
C960 C 0.19987 0.5092 0.55185 0.0
C961 C 0.17668 0.51596 0.53982 0.0
C962 C 0.16607 0.51192 0.48142 0.0
C963 C 0.14214 0.52345 0.47764 0.0
C964 C 0.14083 0.54089 0.42154 0.0
C965 C 0.12237 0.50469 0.474 0.0
C966 C 0.14174 0.53608 0.54088 0.0
C967 C 0.16144 0.53111 0.57699 0.0
C968 C 0.16561 0.54225 0.63522 0.0
C969 C 0.14903 0.55866 0.65728 0.0
C970 C 0.12885 0.5641 0.62042 0.0
C971 C 0.12534 0.55257 0.56161 0.0
H972 H 0.96866 0.81239 0.87837 0.0
H973 H 0.92627 0.86467 0.97384 0.0
H974 H 0.9402 0.89489 0.89854 0.0
H975 H 0.01538 0.83985 0.87323 0.0
H976 H 0.02714 0.83306 0.79563 0.0
H977 H 1.0062 0.8134 0.83183 0.0
H978 H 0.97815 0.81669 0.73552 0.0
H979 H 0.99947 0.8358 0.69713 0.0
H980 H 0.96937 0.84532 0.70739 0.0
H981 H 0.97036 0.91985 0.85495 0.0
H982 H 1.00844 0.93743 0.82913 0.0
H983 H 0.03128 0.87103 0.7469 0.0
C984 C 0.96096 0.82981 0.87969 0.0
C985 C 0.94633 0.83634 0.93101 0.0
C986 C 0.93722 0.85941 0.93403 0.0
C987 C 0.94515 0.87667 0.89144 0.0
C988 C 0.96192 0.87043 0.84578 0.0
C989 C 0.96904 0.84728 0.8376 0.0
C990 C 0.99062 0.84604 0.79461 0.0
C991 C 1.01101 0.83231 0.82578 0.0
C992 C 0.984 0.83534 0.72979 0.0
C993 C 0.99652 0.87204 0.78816 0.0
C994 C 0.97932 0.88577 0.81629 0.0
C995 C 0.98321 0.90957 0.82906 0.0
C996 C 1.00516 0.9195 0.81376 0.0
C997 C 0.02301 0.906 0.78367 0.0
C998 C 0.01815 0.88206 0.76919 0.0
H999 H 0.69712 0.94793 0.95324 0.0
H1000 H 0.67429 0.88801 0.0671 0.0
H1001 H 0.63281 0.89728 0.04216 0.0
H1002 H 0.6599 0.98545 1.00541 0.0
H1003 H 0.65387 1.00105 0.93259 0.0
H1004 H 0.68131 0.98594 0.9417 0.0
H1005 H 0.67327 0.96134 0.83995 0.0
H1006 H 0.64591 0.97692 0.82909 0.0
H1007 H 0.64585 0.94514 0.83214 0.0
H1008 H 0.59476 0.91968 0.03024 0.0
H1009 H 0.56369 0.94969 0.01952 0.0
H1010 H 0.61259 0.9942 0.91358 0.0
C1011 C 0.68373 0.93571 0.97001 0.0
C1012 C 0.68924 0.91739 1.01306 0.0
C1013 C 0.67067 0.90247 0.03504 0.0
C1014 C 0.64699 0.9075 0.02073 0.0
C1015 C 0.64219 0.92706 0.98281 0.0
C1016 C 0.66016 0.94045 0.95598 0.0
C1017 C 0.65076 0.96246 0.92466 0.0
C1018 C 0.66212 0.98501 0.95284 0.0
C1019 C 0.65414 0.96138 0.85215 0.0
C1020 C 0.62495 0.96034 0.94225 0.0
C1021 C 0.62014 0.93964 0.97466 0.0
C1022 C 0.59815 0.93552 1.00285 0.0
C1023 C 0.58067 0.95287 0.99728 0.0
C1024 C 0.58541 0.9743 0.96466 0.0
C1025 C 0.60784 0.97771 0.93636 0.0
H1026 H 0.56488 0.67236 0.90799 0.0
H1027 H 0.55548 0.73437 0.791 0.0
H1028 H 0.54213 0.70925 0.70233 0.0
H1029 H 0.57784 0.62914 0.76075 0.0
H1030 H 0.56227 0.60594 0.80207 0.0
H1031 H 0.58047 0.62654 0.84596 0.0
H1032 H 0.54507 0.63681 0.91829 0.0
H1033 H 0.52691 0.61627 0.8761 0.0
H1034 H 0.51785 0.64663 0.88266 0.0
H1035 H 0.51705 0.68062 0.6444 0.0
H1036 H 0.48569 0.65132 0.62181 0.0
H1037 H 0.51134 0.60812 0.77686 0.0
C1038 C 0.56155 0.6805 0.86238 0.0
C1039 C 0.56085 0.70526 0.85672 0.0
C1040 C 0.55578 0.71539 0.79673 0.0
C1041 C 0.5484 0.7012 0.74576 0.0
C1042 C 0.54686 0.67687 0.7549 0.0
C1043 C 0.55418 0.66648 0.81119 0.0
C1044 C 0.54665 0.64081 0.81413 0.0
C1045 C 0.56809 0.62466 0.8052 0.0
C1046 C 0.5333 0.63486 0.87636 0.0
C1047 C 0.53073 0.63964 0.7565 0.0
C1048 C 0.5321 0.66005 0.72073 0.0
C1049 C 0.51635 0.66428 0.67097 0.0
C1050 C 0.4983 0.64769 0.65908 0.0
C1051 C 0.49588 0.62731 0.69755 0.0
C1052 C 0.51297 0.62301 0.74503 0.0
H1053 H 0.86643 0.63006 0.05398 0.0
H1054 H 0.82222 0.61788 0.89019 0.0
H1055 H 0.85742 0.61487 0.82243 0.0
H1056 H 0.92541 0.65214 0.95787 0.0
H1057 H 0.94199 0.63577 0.01628 0.0
H1058 H 0.91595 0.65164 0.03977 0.0
H1059 H 0.90031 0.61266 0.08918 0.0
H1060 H 0.92551 0.59696 0.06188 0.0
H1061 H 0.89637 0.5871 0.03875 0.0
H1062 H 0.89125 0.59326 0.78922 0.0
H1063 H 0.9191 0.56102 0.79137 0.0
H1064 H 0.94674 0.58657 0.9716 0.0
C1065 C 0.86449 0.62869 1.00287 0.0
C1066 C 0.84196 0.62408 0.97694 0.0
C1067 C 0.83941 0.62171 0.91059 0.0
C1068 C 0.85947 0.61979 0.87188 0.0
C1069 C 0.88179 0.62035 0.9005 0.0
C1070 C 0.8845 0.62565 0.9646 0.0
C1071 C 0.90887 0.61885 0.9881 0.0
C1072 C 0.92396 0.64094 1.00113 0.0
C1073 C 0.90762 0.60294 0.04783 0.0
C1074 C 0.91793 0.60557 0.93057 0.0
C1075 C 0.90256 0.60756 0.87964 0.0
C1076 C 0.90398 0.59242 0.82751 0.0
C1077 C 0.92012 0.57388 0.82927 0.0
C1078 C 0.93515 0.57069 0.8825 0.0
C1079 C 0.93517 0.588 0.93097 0.0
H1080 H 0.05664 0.183 0.88004 0.0
H1081 H 0.98447 0.18644 0.9508 0.0
H1082 H 0.97585 0.14801 0.90172 0.0
H1083 H 0.03983 0.1559 0.72584 0.0
H1084 H 0.06614 0.13823 0.72201 0.0
H1085 H 0.0668 0.16631 0.76237 0.0
H1086 H 0.08193 0.14607 0.86441 0.0
H1087 H 0.08136 0.11813 0.82395 0.0
H1088 H 0.06535 0.12177 0.89781 0.0
H1089 H 0.97471 0.10877 0.84735 0.0
H1090 H 0.98026 0.07249 0.78525 0.0
H1091 H 0.0526 0.09358 0.74359 0.0
C1092 C 0.03886 0.176 0.88458 0.0
C1093 C 0.02144 0.18807 0.92108 0.0
C1094 C 0.99853 0.17767 0.92541 0.0
C1095 C 0.99332 0.15576 0.89699 0.0
C1096 C 1.01098 0.14426 0.86292 0.0
C1097 C 0.03317 0.15416 0.85546 0.0
C1098 C 0.04873 0.1381 0.81513 0.0
C1099 C 0.05579 0.15037 0.75263 0.0
C1100 C 0.07064 0.13053 0.85262 0.0
C1101 C 0.032 0.11729 0.80264 0.0
C1102 C 1.01026 0.12148 0.83053 0.0
C1103 C 0.99162 0.10539 0.82514 0.0
C1104 C 0.99498 0.08473 0.7895 0.0
C1105 C 0.01687 0.07991 0.75929 0.0
C1106 C 0.03575 0.09645 0.76667 0.0
H1107 H 0.34641 0.06217 0.83643 0.0
H1108 H 0.35241 1.00377 0.96919 0.0
H1109 H 0.39042 0.99315 0.92114 0.0
H1110 H 0.37517 0.03292 0.69965 0.0
H1111 H 0.39039 0.05939 0.67441 0.0
H1112 H 0.3623 0.06138 0.71468 0.0
H1113 H 0.38121 0.08903 0.79846 0.0
H1114 H 0.40953 0.08691 0.75966 0.0
H1115 H 0.4066 0.07929 0.84257 0.0
H1116 H 0.42947 0.9907 0.86707 0.0
H1117 H 0.46677 0.99613 0.80797 0.0
H1118 H 0.43703 0.05564 0.70755 0.0
C1119 C 0.35555 0.04701 0.8552 0.0
C1120 C 0.34585 0.03368 0.90663 0.0
C1121 C 0.35874 0.014 0.92909 0.0
C1122 C 0.38061 1.00788 0.90231 0.0
C1123 C 0.38967 0.02149 0.85261 0.0
C1124 C 0.37756 0.04058 0.82884 0.0
C1125 C 0.39203 0.05285 0.77693 0.0
C1126 C 0.3792 0.05155 0.7126 0.0
C1127 C 0.39768 0.07854 0.79551 0.0
C1128 C 0.41429 0.03791 0.77626 0.0
C1129 C 0.41239 0.01989 0.82038 0.0
C1130 C 0.431 1.00455 0.83184 0.0
C1131 C 0.45217 1.00781 0.79813 0.0
C1132 C 0.45471 0.02603 0.75247 0.0
C1133 C 0.43536 0.04115 0.74085 0.0
H1134 H 0.52634 0.36382 0.93616 0.0
H1135 H 0.48513 0.32386 0.79775 0.0
H1136 H 0.48442 0.3584 0.72802 0.0
H1137 H 0.50091 0.41913 0.91508 0.0
H1138 H 0.52779 0.43648 0.9172 0.0
H1139 H 0.52608 0.40872 0.95869 0.0
H1140 H 0.56221 0.39297 0.89826 0.0
H1141 H 0.565 0.42091 0.85787 0.0
H1142 H 0.56276 0.39396 0.81254 0.0
H1143 H 0.48488 0.39838 0.67608 0.0
H1144 H 0.49173 0.43925 0.63882 0.0
H1145 H 0.53686 0.45269 0.80158 0.0
C1146 C 0.51749 0.36198 0.89082 0.0
C1147 C 0.50511 0.34078 0.8745 0.0
C1148 C 0.49388 0.3398 0.81397 0.0
C1149 C 0.49357 0.35941 0.77314 0.0
C1150 C 0.50522 0.38003 0.7917 0.0
C1151 C 0.51758 0.38129 0.84822 0.0
C1152 C 0.52939 0.40547 0.85518 0.0
C1153 C 0.5205 0.41822 0.91507 0.0
C1154 C 0.55645 0.40319 0.856 0.0
C1155 C 0.52113 0.41772 0.79468 0.0
C1156 C 0.50703 0.40268 0.7591 0.0
C1157 C 0.49628 0.41014 0.70294 0.0
C1158 C 0.50024 0.43341 0.68211 0.0
C1159 C 0.51515 0.449 0.71653 0.0
C1160 C 0.5258 0.44096 0.77354 0.0
H1161 H 0.18007 0.48301 0.85728 0.0
H1162 H 0.18458 0.55453 0.93085 0.0
H1163 H 0.14862 0.56478 0.87169 0.0
H1164 H 0.15736 0.49872 0.69856 0.0
H1165 H 0.13758 0.47373 0.69364 0.0
H1166 H 0.16461 0.47169 0.73863 0.0
H1167 H 0.1411 0.45914 0.83835 0.0
H1168 H 0.11391 0.46091 0.7942 0.0
H1169 H 0.1175 0.47751 0.8669 0.0
H1170 H 0.1095 0.56633 0.81621 0.0
H1171 H 0.07189 0.56 0.75986 0.0
H1172 H 0.09254 0.48872 0.71279 0.0
C1173 C 0.17365 0.5009 0.86054 0.0
C1174 C 0.18563 0.51798 0.89889 0.0
C1175 C 0.17635 0.54116 0.90127 0.0
C1176 C 0.1557 0.54715 0.86802 0.0
C1177 C 0.14429 0.52993 0.83156 0.0
C1178 C 0.15304 0.50733 0.82681 0.0
C1179 C 0.13682 0.4921 0.78528 0.0
C1180 C 0.14987 0.48356 0.72548 0.0
C1181 C 0.12673 0.47118 0.82346 0.0
C1182 C 0.11747 0.5096 0.76831 0.0
C1183 C 0.12217 0.53126 0.79612 0.0
C1184 C 0.10606 0.54969 0.79253 0.0
C1185 C 0.08475 0.54603 0.75959 0.0
C1186 C 0.0798 0.52444 0.72818 0.0
C1187 C 0.09636 0.50585 0.73338 0.0
H1188 H 0.01967 0.86915 0.38217 0.0
H1189 H 0.98577 0.82648 0.5282 0.0
H1190 H 0.98577 0.86085 0.60024 0.0
H1191 H 0.05755 0.90288 0.49289 0.0
H1192 H 0.05535 0.92982 0.44788 0.0
H1193 H 0.05341 0.90171 0.40789 0.0
H1194 H 1.01232 0.91267 0.36039 0.0
H1195 H 0.01592 0.94096 0.39779 0.0
H1196 H 0.98968 0.92347 0.41318 0.0
H1197 H 0.98898 0.90026 0.65727 0.0
H1198 H 0.99499 0.94146 0.69333 0.0
H1199 H 0.02639 0.9591 0.51109 0.0
C1200 C 0.01257 0.86681 0.42962 0.0
C1201 C 1.00258 0.8448 0.44877 0.0
C1202 C 0.9932 0.84299 0.51134 0.0
C1203 C 0.99328 0.86246 0.55307 0.0
C1204 C 1.00293 0.88385 0.53231 0.0
C1205 C 0.01254 0.88612 0.47214 0.0
C1206 C 0.02161 0.91119 0.46146 0.0
C1207 C 0.04858 0.9114 0.45197 0.0
C1208 C 1.00907 0.92275 0.40488 0.0
C1209 C 0.01492 0.92287 0.52417 0.0
C1210 C 1.00452 0.90663 0.56479 0.0
C1211 C 0.99724 0.91303 0.62588 0.0
C1212 C 1.0008 0.93648 0.64614 0.0
C1213 C 1.01129 0.95353 0.60547 0.0
C1214 C 0.01825 0.94655 0.54336 0.0
H1215 H 0.66057 0.03049 0.36656 0.0
H1216 H 0.71193 1.00625 0.50531 0.0
H1217 H 0.68156 1.0085 0.58873 0.0
H1218 H 0.6267 0.06875 0.46884 0.0
H1219 H 0.59875 0.05997 0.43475 0.0
H1220 H 0.62523 0.05927 0.38703 0.0
H1221 H 0.61745 0.01515 0.36146 0.0
H1222 H 0.59096 0.01573 0.40903 0.0
H1223 H 0.6136 0.99446 0.42584 0.0
H1224 H 0.64452 1.01241 0.6584 0.0
H1225 H 0.6042 0.01503 0.70428 0.0
H1226 H 0.57646 0.03188 0.51774 0.0
C1227 C 0.66573 0.02542 0.41406 0.0
C1228 C 0.68923 0.01828 0.42804 0.0
C1229 C 0.69458 1.01242 0.49222 0.0
C1230 C 0.67725 0.01341 0.54039 0.0
C1231 C 0.65432 0.01996 0.52425 0.0
C1232 C 0.64852 0.02568 0.46241 0.0
C1233 C 0.62224 0.03054 0.45636 0.0
C1234 C 0.61799 0.05616 0.43552 0.0
C1235 C 0.61037 1.01292 0.41046 0.0
C1236 C 0.6141 0.02652 0.52436 0.0
C1237 C 0.63291 0.02083 0.56317 0.0
C1238 C 0.6297 0.01676 0.62821 0.0
C1239 C 0.60674 0.01834 0.65396 0.0
C1240 C 0.58712 0.02346 0.61463 0.0
C1241 C 0.59102 0.02765 0.549 0.0
H1242 H 0.50621 0.66476 0.36813 0.0
H1243 H 0.56279 0.70066 0.47 0.0
H1244 H 0.56461 0.6676 0.5457 0.0
H1245 H 0.477 0.63981 0.51012 0.0
H1246 H 0.46938 0.61237 0.47157 0.0
H1247 H 0.47173 0.63914 0.42561 0.0
H1248 H 0.50221 0.61938 0.35121 0.0
H1249 H 0.49991 0.59255 0.39676 0.0
H1250 H 0.52837 0.60644 0.38487 0.0
H1251 H 0.56298 0.62893 0.60557 0.0
H1252 H 0.55573 0.58889 0.64904 0.0
H1253 H 0.49825 0.57866 0.51565 0.0
C1254 C 0.51873 0.66593 0.40691 0.0
C1255 C 0.53457 0.68554 0.41197 0.0
C1256 C 0.5508 0.68587 0.46351 0.0
C1257 C 0.55188 0.66714 0.50731 0.0
C1258 C 0.53647 0.64799 0.50004 0.0
C1259 C 0.51997 0.64733 0.45162 0.0
C1260 C 0.50573 0.62436 0.45422 0.0
C1261 C 0.4794 0.62921 0.4661 0.0
C1262 C 0.50927 0.60983 0.39313 0.0
C1263 C 0.51691 0.61222 0.51122 0.0
C1264 C 0.53479 0.62611 0.53654 0.0
C1265 C 0.54882 0.61808 0.58655 0.0
C1266 C 0.54459 0.59532 0.61103 0.0
C1267 C 0.52619 0.58088 0.5866 0.0
C1268 C 0.51204 0.58959 0.53636 0.0
H1269 H 0.84837 0.55133 0.47102 0.0
H1270 H 0.85181 0.48808 0.35382 0.0
H1271 H 0.88962 0.47817 0.40329 0.0
H1272 H 0.91031 0.56629 0.45401 0.0
H1273 H 0.91208 0.57801 0.53367 0.0
H1274 H 0.88449 0.57862 0.49143 0.0
H1275 H 0.86516 0.55641 0.58693 0.0
H1276 H 0.89329 0.55517 0.62686 0.0
H1277 H 0.87692 0.52836 0.61122 0.0
H1278 H 0.92811 0.47487 0.46594 0.0
H1279 H 0.96441 0.4802 0.53039 0.0
H1280 H 0.9386 0.54767 0.59698 0.0
C1281 C 0.85686 0.53543 0.45478 0.0
C1282 C 0.84616 0.52052 0.40799 0.0
C1283 C 0.85854 0.49972 0.39042 0.0
C1284 C 0.88045 0.49395 0.41796 0.0
C1285 C 0.89042 0.50922 0.46275 0.0
C1286 C 0.8791 0.52965 0.48062 0.0
C1287 C 0.89422 0.54374 0.52732 0.0
C1288 C 0.90066 0.5681 0.49988 0.0
C1289 C 0.88164 0.54605 0.59191 0.0
C1290 C 0.91591 0.52814 0.53252 0.0
C1291 C 0.91316 0.50808 0.4957 0.0
C1292 C 0.93045 0.49062 0.49448 0.0
C1293 C 0.95103 0.49376 0.53141 0.0
C1294 C 0.95456 0.51442 0.56832 0.0
C1295 C 0.93666 0.53183 0.56855 0.0
loop_
_geom_bond_atom_site_label_1
_geom_bond_atom_site_label_2
_geom_bond_distance
_geom_bond_site_symmetry_2
_ccdc_geom_bond_type
C0 C1 1.386 . S
C0 C2 1.397 . S
C0 H24 0.931 . S
C1 C0 1.386 . S
C1 C5 1.397 . S
C2 C0 1.397 . S
C2 C3 1.384 . S
C2 H25 0.930 . S
C3 C2 1.384 . S
C3 C4 1.377 . S
C3 C6 1.481 . S
C4 C3 1.377 . S
C4 C5 1.389 . S
C4 H26 0.929 . S
C5 C1 1.397 . S
C5 C4 1.389 . S
C5 H27 0.931 . S
C6 C3 1.481 . S
C6 C7 1.387 . S
C6 C11 1.390 . S
C7 C6 1.387 . S
C7 C8 1.401 . S
C7 H28 0.930 . S
C8 C7 1.401 . S
C8 C9 1.376 . S
C8 C17 1.511 . S
C9 C8 1.376 . S
C9 C10 1.392 . S
C9 H30 0.931 . S
C10 C9 1.392 . S
C10 C11 1.361 . S
C10 C12 1.500 . S
C11 C6 1.390 . S
C11 C10 1.361 . S
C11 H29 0.931 . S
C12 C10 1.500 . S
C12 C13 1.371 . S
C12 C14 1.365 . S
C13 C12 1.371 . S
C13 C23 1.386 . S
C13 H31 0.931 . S
C14 C12 1.365 . S
C14 C15 1.409 . S
C14 H32 0.929 . S
C15 C14 1.409 . S
C15 C16 1.380 . S
C15 H33 0.930 . S
C16 C15 1.380 . S
C16 C23 1.357 . S
C17 C8 1.511 . S
C17 C18 1.341 . S
C17 C19 1.371 . S
C18 C17 1.341 . S
C18 C22 1.394 . S
C18 H34 0.930 . S
C19 C17 1.371 . S
C19 C20 1.392 . S
C19 H35 0.931 . S
C20 C19 1.392 . S
C20 C21 1.331 . S
C20 H38 0.932 . S
C21 C20 1.331 . S
C21 C22 1.336 . S
C22 C18 1.394 . S
C22 C21 1.336 . S
C22 H37 0.929 . S
C23 C13 1.386 . S
C23 C16 1.357 . S
C23 H36 0.928 . S
H24 C0 0.931 . S
H25 C2 0.930 . S
H26 C4 0.929 . S
H27 C5 0.931 . S
H28 C7 0.930 . S
H29 C11 0.931 . S
H30 C9 0.931 . S
H31 C13 0.931 . S
H32 C14 0.929 . S
H33 C15 0.930 . S
H34 C18 0.930 . S
H35 C19 0.931 . S
H36 C23 0.928 . S
H37 C22 0.929 . S
H38 C20 0.932 . S
C39 C40 1.386 . S
C39 C41 1.397 . S
C39 H63 0.931 . S
C40 C39 1.386 . S
C40 C44 1.397 . S
C41 C39 1.397 . S
C41 C42 1.384 . S
C41 H64 0.930 . S
C42 C41 1.384 . S
C42 C43 1.377 . S
C42 C45 1.481 . S
C43 C42 1.377 . S
C43 C44 1.389 . S
C43 H65 0.929 . S
C44 C40 1.397 . S
C44 C43 1.389 . S
C44 H66 0.931 . S
C45 C42 1.481 . S
C45 C46 1.387 . S
C45 C50 1.390 . S
C46 C45 1.387 . S
C46 C47 1.401 . S
C46 H67 0.930 . S
C47 C46 1.401 . S
C47 C48 1.376 . S
C47 C56 1.511 . S
C48 C47 1.376 . S
C48 C49 1.392 . S
C48 H69 0.931 . S
C49 C48 1.392 . S
C49 C50 1.361 . S
C49 C51 1.500 . S
C50 C45 1.390 . S
C50 C49 1.361 . S
C50 H68 0.931 . S
C51 C49 1.500 . S
C51 C52 1.371 . S
C51 C53 1.365 . S
C52 C51 1.371 . S
C52 C62 1.386 . S
C52 H70 0.931 . S
C53 C51 1.365 . S
C53 C54 1.409 . S
C53 H71 0.929 . S
C54 C53 1.409 . S
C54 C55 1.380 . S
C54 H72 0.930 . S
C55 C54 1.380 . S
C55 C62 1.357 . S
C56 C47 1.511 . S
C56 C57 1.341 . S
C56 C58 1.371 . S
C57 C56 1.341 . S
C57 C61 1.394 . S
C57 H73 0.930 . S
C58 C56 1.371 . S
C58 C59 1.392 . S
C58 H74 0.931 . S
C59 C58 1.392 . S
C59 C60 1.331 . S
C59 H77 0.932 . S
C60 C59 1.331 . S
C60 C61 1.336 . S
C61 C57 1.394 . S
C61 C60 1.336 . S
C61 H76 0.929 . S
C62 C52 1.386 . S
C62 C55 1.357 . S
C62 H75 0.928 . S
H63 C39 0.931 . S
H64 C41 0.930 . S
H65 C43 0.929 . S
H66 C44 0.931 . S
H67 C46 0.930 . S
H68 C50 0.931 . S
H69 C48 0.931 . S
H70 C52 0.931 . S
H71 C53 0.929 . S
H72 C54 0.930 . S
H73 C57 0.930 . S
H74 C58 0.931 . S
H75 C62 0.928 . S
H76 C61 0.929 . S
H77 C59 0.932 . S
C78 C79 1.386 . S
C78 C80 1.397 . S
C78 H102 0.931 . S
C79 C78 1.386 . S
C79 C83 1.397 . S
C80 C78 1.397 . S
C80 C81 1.384 . S
C80 H103 0.930 . S
C81 C80 1.384 . S
C81 C82 1.377 . S
C81 C84 1.481 . S
C82 C81 1.377 . S
C82 C83 1.389 . S
C82 H104 0.929 . S
C83 C79 1.397 . S
C83 C82 1.389 . S
C83 H105 0.931 . S
C84 C81 1.481 . S
C84 C85 1.387 . S
C84 C89 1.390 . S
C85 C84 1.387 . S
C85 C86 1.401 . S
C85 H106 0.930 . S
C86 C85 1.401 . S
C86 C87 1.376 . S
C86 C95 1.511 . S
C87 C86 1.376 . S
C87 C88 1.392 . S
C87 H108 0.931 . S
C88 C87 1.392 . S
C88 C89 1.361 . S
C88 C90 1.500 . S
C89 C84 1.390 . S
C89 C88 1.361 . S
C89 H107 0.931 . S
C90 C88 1.500 . S
C90 C91 1.371 . S
C90 C92 1.365 . S
C91 C90 1.371 . S
C91 C101 1.386 . S
C91 H109 0.931 . S
C92 C90 1.365 . S
C92 C93 1.409 . S
C92 H110 0.929 . S
C93 C92 1.409 . S
C93 C94 1.380 . S
C93 H111 0.930 . S
C94 C93 1.380 . S
C94 C101 1.357 . S
C95 C86 1.511 . S
C95 C96 1.341 . S
C95 C97 1.371 . S
C96 C95 1.341 . S
C96 C100 1.394 . S
C96 H112 0.930 . S
C97 C95 1.371 . S
C97 C98 1.392 . S
C97 H113 0.931 . S
C98 C97 1.392 . S
C98 C99 1.331 . S
C98 H116 0.932 . S
C99 C98 1.331 . S
C99 C100 1.336 . S
C100 C96 1.394 . S
C100 C99 1.336 . S
C100 H115 0.929 . S
C101 C91 1.386 . S
C101 C94 1.357 . S
C101 H114 0.928 . S
H102 C78 0.931 . S
H103 C80 0.930 . S
H104 C82 0.929 . S
H105 C83 0.931 . S
H106 C85 0.930 . S
H107 C89 0.931 . S
H108 C87 0.931 . S
H109 C91 0.931 . S
H110 C92 0.929 . S
H111 C93 0.930 . S
H112 C96 0.930 . S
H113 C97 0.931 . S
H114 C101 0.928 . S
H115 C100 0.929 . S
H116 C98 0.932 . S
C117 C118 1.386 . S
C117 C119 1.397 . S
C117 H141 0.931 . S
C118 C117 1.386 . S
C118 C122 1.397 . S
C119 C117 1.397 . S
C119 C120 1.384 . S
C119 H142 0.930 . S
C120 C119 1.384 . S
C120 C121 1.377 . S
C120 C123 1.481 . S
C121 C120 1.377 . S
C121 C122 1.389 . S
C121 H143 0.929 . S
C122 C118 1.397 . S
C122 C121 1.389 . S
C122 H144 0.931 . S
C123 C120 1.481 . S
C123 C124 1.387 . S
C123 C128 1.390 . S
C124 C123 1.387 . S
C124 C125 1.401 . S
C124 H145 0.930 . S
C125 C124 1.401 . S
C125 C126 1.376 . S
C125 C134 1.511 . S
C126 C125 1.376 . S
C126 C127 1.392 . S
C126 H147 0.931 . S
C127 C126 1.392 . S
C127 C128 1.361 . S
C127 C129 1.500 . S
C128 C123 1.390 . S
C128 C127 1.361 . S
C128 H146 0.931 . S
C129 C127 1.500 . S
C129 C130 1.371 . S
C129 C131 1.365 . S
C130 C129 1.371 . S
C130 C140 1.386 . S
C130 H148 0.931 . S
C131 C129 1.365 . S
C131 C132 1.409 . S
C131 H149 0.929 . S
C132 C131 1.409 . S
C132 C133 1.380 . S
C132 H150 0.930 . S
C133 C132 1.380 . S
C133 C140 1.357 . S
C134 C125 1.511 . S
C134 C135 1.341 . S
C134 C136 1.371 . S
C135 C134 1.341 . S
C135 C139 1.394 . S
C135 H151 0.930 . S
C136 C134 1.371 . S
C136 C137 1.392 . S
C136 H152 0.931 . S
C137 C136 1.392 . S
C137 C138 1.331 . S
C137 H155 0.932 . S
C138 C137 1.331 . S
C138 C139 1.336 . S
C139 C135 1.394 . S
C139 C138 1.336 . S
C139 H154 0.929 . S
C140 C130 1.386 . S
C140 C133 1.357 . S
C140 H153 0.928 . S
H141 C117 0.931 . S
H142 C119 0.930 . S
H143 C121 0.929 . S
H144 C122 0.931 . S
H145 C124 0.930 . S
H146 C128 0.931 . S
H147 C126 0.931 . S
H148 C130 0.931 . S
H149 C131 0.929 . S
H150 C132 0.930 . S
H151 C135 0.930 . S
H152 C136 0.931 . S
H153 C140 0.928 . S
H154 C139 0.929 . S
H155 C137 0.932 . S
C156 C157 1.386 . S
C156 C158 1.397 . S
C156 H180 0.931 . S
C157 C156 1.386 . S
C157 C161 1.397 . S
C158 C156 1.397 . S
C158 C159 1.384 . S
C158 H181 0.930 . S
C159 C158 1.384 . S
C159 C160 1.377 . S
C159 C162 1.481 . S
C160 C159 1.377 . S
C160 C161 1.389 . S
C160 H182 0.929 . S
C161 C157 1.397 . S
C161 C160 1.389 . S
C161 H183 0.931 . S
C162 C159 1.481 . S
C162 C163 1.387 . S
C162 C167 1.390 . S
C163 C162 1.387 . S
C163 C164 1.401 . S
C163 H184 0.930 . S
C164 C163 1.401 . S
C164 C165 1.376 1_554 S
C164 C173 1.511 . S
C165 C164 1.376 1_556 S
C165 C166 1.392 . S
C165 H186 0.931 . S
C166 C165 1.392 . S
C166 C167 1.361 1_556 S
C166 C168 1.500 . S
C167 C162 1.390 . S
C167 C166 1.361 1_554 S
C167 H185 0.931 . S
C168 C166 1.500 . S
C168 C169 1.371 . S
C168 C170 1.365 . S
C169 C168 1.371 . S
C169 C179 1.386 . S
C169 H187 0.931 . S
C170 C168 1.365 . S
C170 C171 1.409 . S
C170 H188 0.929 . S
C171 C170 1.409 . S
C171 C172 1.380 . S
C171 H189 0.930 . S
C172 C171 1.380 . S
C172 C179 1.357 . S
C173 C164 1.511 . S
C173 C174 1.341 . S
C173 C175 1.371 . S
C174 C173 1.341 . S
C174 C178 1.394 . S
C174 H190 0.930 . S
C175 C173 1.371 . S
C175 C176 1.392 . S
C175 H191 0.931 1_554 S
C176 C175 1.392 . S
C176 C177 1.331 . S
C176 H194 0.932 . S
C177 C176 1.331 . S
C177 C178 1.336 . S
C178 C174 1.394 . S
C178 C177 1.336 . S
C178 H193 0.929 . S
C179 C169 1.386 . S
C179 C172 1.357 . S
C179 H192 0.928 . S
H180 C156 0.931 . S
H181 C158 0.930 . S
H182 C160 0.929 . S
H183 C161 0.931 . S
H184 C163 0.930 . S
H185 C167 0.931 . S
H186 C165 0.931 . S
H187 C169 0.931 . S
H188 C170 0.929 . S
H189 C171 0.930 . S
H190 C174 0.930 . S
H191 C175 0.931 1_556 S
H192 C179 0.928 . S
H193 C178 0.929 . S
H194 C176 0.932 . S
C195 C196 1.386 . S
C195 C197 1.397 . S
C195 H219 0.931 . S
C196 C195 1.386 . S
C196 C200 1.397 . S
C197 C195 1.397 . S
C197 C198 1.384 . S
C197 H220 0.930 . S
C198 C197 1.384 . S
C198 C199 1.377 . S
C198 C201 1.481 . S
C199 C198 1.377 . S
C199 C200 1.389 . S
C199 H221 0.929 . S
C200 C196 1.397 . S
C200 C199 1.389 . S
C200 H222 0.931 . S
C201 C198 1.481 . S
C201 C202 1.387 . S
C201 C206 1.390 . S
C202 C201 1.387 . S
C202 C203 1.401 . S
C202 H223 0.930 . S
C203 C202 1.401 . S
C203 C204 1.376 1_554 S
C203 C212 1.511 . S
C204 C203 1.376 1_556 S
C204 C205 1.392 . S
C204 H225 0.931 . S
C205 C204 1.392 . S
C205 C206 1.361 1_556 S
C205 C207 1.500 . S
C206 C201 1.390 . S
C206 C205 1.361 1_554 S
C206 H224 0.931 . S
C207 C205 1.500 . S
C207 C208 1.371 . S
C207 C209 1.365 . S
C208 C207 1.371 . S
C208 C218 1.386 . S
C208 H226 0.931 . S
C209 C207 1.365 . S
C209 C210 1.409 . S
C209 H227 0.929 . S
C210 C209 1.409 . S
C210 C211 1.380 . S
C210 H228 0.930 . S
C211 C210 1.380 . S
C211 C218 1.357 . S
C212 C203 1.511 . S
C212 C213 1.341 . S
C212 C214 1.371 . S
C213 C212 1.341 . S
C213 C217 1.394 . S
C213 H229 0.930 . S
C214 C212 1.371 . S
C214 C215 1.392 . S
C214 H230 0.931 1_554 S
C215 C214 1.392 . S
C215 C216 1.331 . S
C215 H233 0.932 . S
C216 C215 1.331 . S
C216 C217 1.336 . S
C217 C213 1.394 . S
C217 C216 1.336 . S
C217 H232 0.929 . S
C218 C208 1.386 . S
C218 C211 1.357 . S
C218 H231 0.928 . S
H219 C195 0.931 . S
H220 C197 0.930 . S
H221 C199 0.929 . S
H222 C200 0.931 . S
H223 C202 0.930 . S
H224 C206 0.931 . S
H225 C204 0.931 . S
H226 C208 0.931 . S
H227 C209 0.929 . S
H228 C210 0.930 . S
H229 C213 0.930 . S
H230 C214 0.931 1_556 S
H231 C218 0.928 . S
H232 C217 0.929 . S
H233 C215 0.932 . S
C234 C235 1.386 . S
C234 C236 1.397 . S
C234 H258 0.931 . S
C235 C234 1.386 . S
C235 C239 1.397 . S
C236 C234 1.397 . S
C236 C237 1.384 . S
C236 H259 0.930 . S
C237 C236 1.384 . S
C237 C238 1.377 . S
C237 C240 1.481 . S
C238 C237 1.377 . S
C238 C239 1.389 . S
C238 H260 0.929 . S
C239 C235 1.397 . S
C239 C238 1.389 . S
C239 H261 0.931 . S
C240 C237 1.481 . S
C240 C241 1.387 . S
C240 C245 1.390 . S
C241 C240 1.387 . S
C241 C242 1.401 . S
C241 H262 0.930 . S
C242 C241 1.401 . S
C242 C243 1.376 1_554 S
C242 C251 1.511 . S
C243 C242 1.376 1_556 S
C243 C244 1.392 . S
C243 H264 0.931 . S
C244 C243 1.392 . S
C244 C245 1.361 1_556 S
C244 C246 1.500 . S
C245 C240 1.390 . S
C245 C244 1.361 1_554 S
C245 H263 0.931 . S
C246 C244 1.500 . S
C246 C247 1.371 . S
C246 C248 1.365 . S
C247 C246 1.371 . S
C247 C257 1.386 . S
C247 H265 0.931 . S
C248 C246 1.365 . S
C248 C249 1.409 . S
C248 H266 0.929 . S
C249 C248 1.409 . S
C249 C250 1.380 . S
C249 H267 0.930 . S
C250 C249 1.380 . S
C250 C257 1.357 . S
C251 C242 1.511 . S
C251 C252 1.341 . S
C251 C253 1.371 . S
C252 C251 1.341 . S
C252 C256 1.394 . S
C252 H268 0.930 . S
C253 C251 1.371 . S
C253 C254 1.392 . S
C253 H269 0.931 1_554 S
C254 C253 1.392 . S
C254 C255 1.331 . S
C254 H272 0.932 . S
C255 C254 1.331 . S
C255 C256 1.336 . S
C256 C252 1.394 . S
C256 C255 1.336 . S
C256 H271 0.929 . S
C257 C247 1.386 . S
C257 C250 1.357 . S
C257 H270 0.928 . S
H258 C234 0.931 . S
H259 C236 0.930 . S
H260 C238 0.929 . S
H261 C239 0.931 . S
H262 C241 0.930 . S
H263 C245 0.931 . S
H264 C243 0.931 . S
H265 C247 0.931 . S
H266 C248 0.929 . S
H267 C249 0.930 . S
H268 C252 0.930 . S
H269 C253 0.931 1_556 S
H270 C257 0.928 . S
H271 C256 0.929 . S
H272 C254 0.932 . S
C273 C274 1.386 . S
C273 C275 1.397 . S
C273 H297 0.931 . S
C274 C273 1.386 . S
C274 C278 1.397 . S
C275 C273 1.397 . S
C275 C276 1.384 . S
C275 H298 0.930 . S
C276 C275 1.384 . S
C276 C277 1.377 . S
C276 C279 1.481 . S
C277 C276 1.377 . S
C277 C278 1.389 . S
C277 H299 0.929 . S
C278 C274 1.397 . S
C278 C277 1.389 . S
C278 H300 0.931 . S
C279 C276 1.481 . S
C279 C280 1.387 . S
C279 C284 1.390 1_556 S
C280 C279 1.387 . S
C280 C281 1.401 1_556 S
C280 H301 0.930 . S
C281 C280 1.401 1_554 S
C281 C282 1.376 . S
C281 C290 1.511 . S
C282 C281 1.376 . S
C282 C283 1.392 . S
C282 H303 0.931 . S
C283 C282 1.392 . S
C283 C284 1.361 . S
C283 C285 1.500 . S
C284 C279 1.390 1_554 S
C284 C283 1.361 . S
C284 H302 0.931 . S
C285 C283 1.500 . S
C285 C286 1.371 . S
C285 C287 1.365 . S
C286 C285 1.371 . S
C286 C296 1.386 . S
C286 H304 0.931 . S
C287 C285 1.365 . S
C287 C288 1.409 . S
C287 H305 0.929 . S
C288 C287 1.409 . S
C288 C289 1.380 . S
C288 H306 0.930 . S
C289 C288 1.380 . S
C289 C296 1.357 . S
C290 C281 1.511 . S
C290 C291 1.341 . S
C290 C292 1.371 . S
C291 C290 1.341 . S
C291 C295 1.394 . S
C291 H307 0.930 1_554 S
C292 C290 1.371 . S
C292 C293 1.392 . S
C292 H308 0.931 . S
C293 C292 1.392 . S
C293 C294 1.331 . S
C293 H311 0.932 . S
C294 C293 1.331 . S
C294 C295 1.336 . S
C295 C291 1.394 . S
C295 C294 1.336 . S
C295 H310 0.929 . S
C296 C286 1.386 . S
C296 C289 1.357 . S
C296 H309 0.928 . S
H297 C273 0.931 . S
H298 C275 0.930 . S
H299 C277 0.929 . S
H300 C278 0.931 . S
H301 C280 0.930 . S
H302 C284 0.931 . S
H303 C282 0.931 . S
H304 C286 0.931 . S
H305 C287 0.929 . S
H306 C288 0.930 . S
H307 C291 0.930 1_556 S
H308 C292 0.931 . S
H309 C296 0.928 . S
H310 C295 0.929 . S
H311 C293 0.932 . S
Tb312 N341 2.617 . S
Tb312 N347 2.572 . S
Tb312 O356 2.465 . S
Tb312 O357 2.387 1_545 S
Tb312 O359 2.428 . S
Tb312 O360 2.308 1_655 S
Tb312 O364 2.349 1_655 S
Tb312 O367 2.393 . S
Tb312 C376 2.802 . S
C313 N314 1.379 . S
C313 C316 1.416 . S
C313 C320 1.424 . S
N314 C313 1.379 . S
N314 C317 1.335 1_545 S
N314 Tb323 2.617 1_545 S
C315 C317 1.391 1_545 S
C315 C318 1.339 . S
C315 H335 0.930 . S
C316 C313 1.416 . S
C316 C318 1.416 . S
C316 C322 1.448 . S
C317 N314 1.335 1_565 S
C317 C315 1.391 1_565 S
C317 H328 0.928 . S
C318 C315 1.339 . S
C318 C316 1.416 . S
C318 H339 0.930 . S
C319 C320 1.413 . S
C319 C321 1.427 . S
C319 C325 1.416 . S
C320 C313 1.424 . S
C320 C319 1.413 . S
C320 N324 1.361 . S
C321 C319 1.427 . S
C321 C322 1.328 . S
C321 H336 0.929 . S
C322 C316 1.448 . S
C322 C321 1.328 . S
C322 H337 0.930 . S
Tb323 N314 2.617 1_565 S
Tb323 N324 2.572 1_565 S
Tb323 O358 2.349 . S
Tb323 O361 2.393 . S
Tb323 O362 2.465 . S
Tb323 O363 2.387 1_565 S
Tb323 O365 2.428 . S
Tb323 O366 2.308 1_465 S
Tb323 C387 2.802 . S
N324 C320 1.361 . S
N324 Tb323 2.572 1_545 S
N324 C326 1.340 . S
C325 C319 1.416 . S
C325 C327 1.332 . S
C325 H333 0.931 . S
C326 N324 1.340 . S
C326 C327 1.407 . S
C326 H332 0.908 1_455 S
C327 C325 1.332 . S
C327 C326 1.407 . S
C327 H329 0.929 . S
H328 C317 0.928 . S
H329 C327 0.929 . S
H330 C345 0.930 . S
H331 C352 0.929 1_455 S
H332 C326 0.908 1_655 S
H333 C325 0.931 . S
H334 C348 0.930 1_455 S
H335 C315 0.930 . S
H336 C321 0.929 . S
H337 C322 0.930 . S
H338 C343 0.930 . S
H339 C318 0.930 . S
H340 C351 0.931 . S
N341 Tb312 2.617 . S
N341 C342 1.379 . S
N341 C345 1.334 . S
C342 N341 1.379 . S
C342 C344 1.416 1_545 S
C342 C350 1.424 . S
C343 H338 0.930 . S
C343 C345 1.390 . S
C343 C346 1.325 1_545 S
C344 C342 1.416 1_565 S
C344 C346 1.419 . S
C344 C377 1.448 . S
C345 H330 0.930 . S
C345 N341 1.334 . S
C345 C343 1.390 . S
C346 C343 1.325 1_565 S
C346 C344 1.419 . S
C346 H353 0.942 . S
N347 Tb312 2.572 . S
N347 C348 1.340 . S
N347 C350 1.361 . S
C348 H334 0.930 1_655 S
C348 N347 1.340 . S
C348 C352 1.407 1_545 S
C349 C350 1.413 1_565 S
C349 C351 1.416 . S
C349 C378 1.427 . S
C350 C342 1.424 . S
C350 N347 1.361 . S
C350 C349 1.413 1_545 S
C351 H340 0.931 . S
C351 C349 1.416 . S
C351 C352 1.332 . S
C352 H331 0.929 1_655 S
C352 C348 1.407 1_565 S
C352 C351 1.332 . S
H353 C346 0.942 . S
H354 C377 0.930 . S
H355 C378 0.929 . S
O356 Tb312 2.465 . S
O356 C376 1.264 . S
O357 Tb312 2.387 1_565 S
O357 C368 1.264 . S
O358 Tb323 2.349 . S
O358 C368 1.243 1_455 S
O359 Tb312 2.428 . S
O359 C376 1.256 . S
O360 Tb312 2.308 1_455 S
O360 C375 1.266 . S
O361 Tb323 2.393 . S
O361 C375 1.248 1_565 S
O362 Tb323 2.465 . S
O362 C387 1.264 . S
O363 Tb323 2.387 1_545 S
O363 C379 1.264 . S
O364 Tb312 2.349 1_455 S
O364 C379 1.243 . S
O365 Tb323 2.428 . S
O365 C387 1.256 . S
O366 Tb323 2.308 1_645 S
O366 C386 1.266 . S
O367 Tb312 2.393 . S
O367 C386 1.248 . S
C368 O357 1.264 . S
C368 O358 1.243 1_655 S
C369 C372 1.399 . S
C369 C374 1.383 . S
C369 C376 1.496 . S
C370 C371 1.399 . S
C370 C374 1.389 . S
C371 C370 1.399 . S
C371 C373 1.380 . S
C371 H388 0.929 . S
C372 C369 1.399 . S
C372 C373 1.392 . S
C372 H389 0.929 . S
C373 C371 1.380 . S
C373 C372 1.392 . S
C373 H390 0.929 . S
C374 C369 1.383 . S
C374 C370 1.389 . S
C374 H391 0.931 1_655 S
C375 O360 1.266 . S
C375 O361 1.248 1_545 S
C376 Tb312 2.802 . S
C376 O356 1.264 . S
C376 O359 1.256 . S
C376 C369 1.496 . S
C377 C344 1.448 . S
C377 H354 0.930 . S
C377 C378 1.328 . S
C378 C349 1.427 . S
C378 H355 0.929 . S
C378 C377 1.328 . S
C379 O363 1.264 . S
C379 O364 1.243 . S
C380 C383 1.399 . S
C380 C384 1.383 . S
C380 C387 1.496 . S
C381 C382 1.399 . S
C381 C384 1.389 . S
C382 C381 1.399 . S
C382 C385 1.380 . S
C382 H392 0.929 . S
C383 C380 1.399 . S
C383 C385 1.392 . S
C383 H393 0.929 . S
C384 C380 1.383 . S
C384 C381 1.389 . S
C384 H394 0.931 . S
C385 C382 1.380 . S
C385 C383 1.392 . S
C385 H395 0.929 . S
C386 O366 1.266 . S
C386 O367 1.248 . S
C387 Tb323 2.802 . S
C387 O362 1.264 . S
C387 O365 1.256 . S
C387 C380 1.496 . S
H388 C371 0.929 . S
H389 C372 0.929 . S
H390 C373 0.929 . S
H391 C374 0.931 1_455 S
H392 C382 0.929 . S
H393 C383 0.929 . S
H394 C384 0.931 . S
H395 C385 0.929 . S
Tb396 N425 2.617 . S
Tb396 N431 2.572 . S
Tb396 O440 2.465 . S
Tb396 O441 2.387 . S
Tb396 O443 2.428 . S
Tb396 O444 2.308 . S
Tb396 O448 2.349 1_545 S
Tb396 O451 2.393 . S
Tb396 C460 2.802 . S
C397 N398 1.379 . S
C397 C400 1.416 . S
C397 C404 1.424 . S
N398 C397 1.379 . S
N398 C401 1.334 . S
N398 Tb407 2.617 . S
C399 C401 1.390 . S
C399 C402 1.339 . S
C399 H419 0.930 . S
C400 C397 1.416 . S
C400 C402 1.416 . S
C400 C406 1.448 . S
C401 N398 1.334 . S
C401 C399 1.390 . S
C401 H412 0.930 . S
C402 C399 1.339 . S
C402 C400 1.416 . S
C402 H423 0.930 . S
C403 C404 1.413 . S
C403 C405 1.427 . S
C403 C409 1.416 . S
C404 C397 1.424 . S
C404 C403 1.413 . S
C404 N408 1.361 . S
C405 C403 1.427 . S
C405 C406 1.328 . S
C405 H420 0.929 . S
C406 C400 1.448 . S
C406 C405 1.328 . S
C406 H421 0.930 . S
Tb407 N398 2.617 . S
Tb407 N408 2.572 . S
Tb407 O442 2.349 1_565 S
Tb407 O445 2.393 . S
Tb407 O446 2.465 . S
Tb407 O447 2.387 . S
Tb407 O449 2.428 . S
Tb407 O450 2.308 1_565 S
Tb407 C471 2.802 . S
N408 C404 1.361 . S
N408 Tb407 2.572 . S
N408 C410 1.340 . S
C409 C403 1.416 . S
C409 C411 1.332 . S
C409 H417 0.931 . S
C410 N408 1.340 . S
C410 C411 1.407 . S
C410 H416 0.930 . S
C411 C409 1.332 . S
C411 C410 1.407 . S
C411 H413 0.929 . S
H412 C401 0.930 . S
H413 C411 0.929 . S
H414 C429 0.930 . S
H415 C436 0.929 . S
H416 C410 0.930 . S
H417 C409 0.931 . S
H418 C432 0.930 . S
H419 C399 0.930 . S
H420 C405 0.929 . S
H421 C406 0.930 . S
H422 C427 0.930 . S
H423 C402 0.930 . S
H424 C435 0.931 . S
N425 Tb396 2.617 . S
N425 C426 1.379 . S
N425 C429 1.334 . S
C426 N425 1.379 . S
C426 C428 1.416 . S
C426 C434 1.424 . S
C427 H422 0.930 . S
C427 C429 1.390 . S
C427 C430 1.339 . S
C428 C426 1.416 . S
C428 C430 1.416 . S
C428 C461 1.448 . S
C429 H414 0.930 . S
C429 N425 1.334 . S
C429 C427 1.390 . S
C430 C427 1.339 . S
C430 C428 1.416 . S
C430 H437 0.930 . S
N431 Tb396 2.572 . S
N431 C432 1.340 . S
N431 C434 1.361 . S
C432 H418 0.930 . S
C432 N431 1.340 . S
C432 C436 1.407 . S
C433 C434 1.413 . S
C433 C435 1.416 . S
C433 C462 1.427 . S
C434 C426 1.424 . S
C434 N431 1.361 . S
C434 C433 1.413 . S
C435 H424 0.931 . S
C435 C433 1.416 . S
C435 C436 1.332 . S
C436 H415 0.929 . S
C436 C432 1.407 . S
C436 C435 1.332 . S
H437 C430 0.930 . S
H438 C461 0.930 . S
H439 C462 0.929 . S
O440 Tb396 2.465 . S
O440 C460 1.264 . S
O441 Tb396 2.387 . S
O441 C452 1.264 . S
O442 Tb407 2.349 1_545 S
O442 C452 1.243 . S
O443 Tb396 2.428 . S
O443 C460 1.256 . S
O444 Tb396 2.308 . S
O444 C459 1.254 1_545 S
O445 Tb407 2.393 . S
O445 C459 1.256 . S
O446 Tb407 2.465 . S
O446 C471 1.264 . S
O447 Tb407 2.387 . S
O447 C463 1.264 . S
O448 Tb396 2.349 1_565 S
O448 C463 1.243 . S
O449 Tb407 2.428 . S
O449 C471 1.256 . S
O450 Tb407 2.308 1_545 S
O450 C470 1.266 . S
O451 Tb396 2.393 . S
O451 C470 1.248 . S
C452 O441 1.264 . S
C452 O442 1.243 . S
C453 C456 1.399 . S
C453 C458 1.383 . S
C453 C460 1.496 . S
C454 C455 1.399 . S
C454 C458 1.389 . S
C455 C454 1.399 . S
C455 C457 1.380 . S
C455 H472 0.929 . S
C456 C453 1.399 . S
C456 C457 1.392 . S
C456 H473 0.929 . S
C457 C455 1.380 . S
C457 C456 1.392 . S
C457 H474 0.930 . S
C458 C453 1.383 . S
C458 C454 1.389 . S
C458 H475 0.931 . S
C459 O444 1.254 1_565 S
C459 O445 1.256 . S
C460 Tb396 2.802 . S
C460 O440 1.264 . S
C460 O443 1.256 . S
C460 C453 1.496 . S
C461 C428 1.448 . S
C461 H438 0.930 . S
C461 C462 1.328 . S
C462 C433 1.427 . S
C462 H439 0.929 . S
C462 C461 1.328 . S
C463 O447 1.264 . S
C463 O448 1.243 . S
C464 C467 1.399 . S
C464 C468 1.383 1_565 S
C464 C471 1.496 . S
C465 C466 1.399 1_545 S
C465 C468 1.389 . S
C466 C465 1.399 1_565 S
C466 C469 1.380 . S
C466 H476 0.929 . S
C467 C464 1.399 . S
C467 C469 1.392 . S
C467 H477 0.929 . S
C468 C464 1.383 1_545 S
C468 C465 1.389 . S
C468 H478 0.931 . S
C469 C466 1.380 . S
C469 C467 1.392 . S
C469 H479 0.929 . S
C470 O450 1.266 . S
C470 O451 1.248 . S
C471 Tb407 2.802 . S
C471 O446 1.264 . S
C471 O449 1.256 . S
C471 C464 1.496 . S
H472 C455 0.929 . S
H473 C456 0.929 . S
H474 C457 0.930 . S
H475 C458 0.931 . S
H476 C466 0.929 . S
H477 C467 0.929 . S
H478 C468 0.931 . S
H479 C469 0.929 . S
Tb480 N509 2.617 . S
Tb480 N515 2.572 . S
Tb480 O524 2.465 . S
Tb480 O525 2.387 . S
Tb480 O527 2.428 . S
Tb480 O528 2.308 . S
Tb480 O532 2.349 . S
Tb480 O535 2.393 . S
Tb480 C544 2.802 . S
C481 N482 1.379 . S
C481 C484 1.416 . S
C481 C488 1.424 . S
N482 C481 1.379 . S
N482 C485 1.334 . S
N482 Tb491 2.617 . S
C483 C485 1.390 . S
C483 C486 1.339 . S
C483 H503 0.930 . S
C484 C481 1.416 . S
C484 C486 1.416 . S
C484 C490 1.448 . S
C485 N482 1.334 . S
C485 C483 1.390 . S
C485 H496 0.930 . S
C486 C483 1.339 . S
C486 C484 1.416 . S
C486 H507 0.930 . S
C487 C488 1.413 . S
C487 C489 1.427 . S
C487 C493 1.416 . S
C488 C481 1.424 . S
C488 C487 1.413 . S
C488 N492 1.361 . S
C489 C487 1.427 . S
C489 C490 1.328 . S
C489 H504 0.929 . S
C490 C484 1.448 . S
C490 C489 1.328 . S
C490 H505 0.930 . S
Tb491 N482 2.617 . S
Tb491 N492 2.572 . S
Tb491 O526 2.349 . S
Tb491 O529 2.393 . S
Tb491 O530 2.465 . S
Tb491 O531 2.387 . S
Tb491 O533 2.428 . S
Tb491 O534 2.308 . S
Tb491 C555 2.802 . S
N492 C488 1.361 . S
N492 Tb491 2.572 . S
N492 C494 1.340 . S
C493 C487 1.416 . S
C493 C495 1.332 . S
C493 H501 0.931 . S
C494 N492 1.340 . S
C494 C495 1.407 . S
C494 H500 0.930 . S
C495 C493 1.332 . S
C495 C494 1.407 . S
C495 H497 0.929 . S
H496 C485 0.930 . S
H497 C495 0.929 . S
H498 C513 0.930 . S
H499 C520 0.929 . S
H500 C494 0.930 . S
H501 C493 0.931 . S
H502 C516 0.930 . S
H503 C483 0.930 . S
H504 C489 0.929 . S
H505 C490 0.930 . S
H506 C511 0.930 . S
H507 C486 0.930 . S
H508 C519 0.931 . S
N509 Tb480 2.617 . S
N509 C510 1.379 . S
N509 C513 1.334 . S
C510 N509 1.379 . S
C510 C512 1.416 . S
C510 C518 1.424 . S
C511 H506 0.930 . S
C511 C513 1.390 . S
C511 C514 1.339 . S
C512 C510 1.416 . S
C512 C514 1.416 . S
C512 C545 1.448 . S
C513 H498 0.930 . S
C513 N509 1.334 . S
C513 C511 1.390 . S
C514 C511 1.339 . S
C514 C512 1.416 . S
C514 H521 0.930 . S
N515 Tb480 2.572 . S
N515 C516 1.340 . S
N515 C518 1.361 . S
C516 H502 0.930 . S
C516 N515 1.340 . S
C516 C520 1.407 . S
C517 C518 1.413 . S
C517 C519 1.416 . S
C517 C546 1.427 . S
C518 C510 1.424 . S
C518 N515 1.361 . S
C518 C517 1.413 . S
C519 H508 0.931 . S
C519 C517 1.416 . S
C519 C520 1.332 . S
C520 H499 0.929 . S
C520 C516 1.407 . S
C520 C519 1.332 . S
H521 C514 0.930 . S
H522 C545 0.930 . S
H523 C546 0.929 . S
O524 Tb480 2.465 . S
O524 C544 1.264 . S
O525 Tb480 2.387 . S
O525 C536 1.264 . S
O526 Tb491 2.349 . S
O526 C536 1.243 . S
O527 Tb480 2.428 . S
O527 C544 1.256 . S
O528 Tb480 2.308 . S
O528 C543 1.266 . S
O529 Tb491 2.393 . S
O529 C543 1.248 . S
O530 Tb491 2.465 . S
O530 C555 1.264 . S
O531 Tb491 2.387 . S
O531 C547 1.264 . S
O532 Tb480 2.349 . S
O532 C547 1.243 . S
O533 Tb491 2.428 . S
O533 C555 1.256 . S
O534 Tb491 2.308 . S
O534 C554 1.266 . S
O535 Tb480 2.393 . S
O535 C554 1.248 . S
C536 O525 1.264 . S
C536 O526 1.243 . S
C537 C540 1.399 . S
C537 C542 1.383 . S
C537 C544 1.496 . S
C538 C539 1.399 . S
C538 C542 1.389 . S
C539 C538 1.399 . S
C539 C541 1.380 . S
C539 H556 0.929 . S
C540 C537 1.399 . S
C540 C541 1.392 . S
C540 H557 0.929 . S
C541 C539 1.380 . S
C541 C540 1.392 . S
C541 H558 0.929 . S
C542 C537 1.383 . S
C542 C538 1.389 . S
C542 H559 0.931 . S
C543 O528 1.266 . S
C543 O529 1.248 . S
C544 Tb480 2.802 . S
C544 O524 1.264 . S
C544 O527 1.256 . S
C544 C537 1.496 . S
C545 C512 1.448 . S
C545 H522 0.930 . S
C545 C546 1.328 . S
C546 C517 1.427 . S
C546 H523 0.929 . S
C546 C545 1.328 . S
C547 O531 1.264 . S
C547 O532 1.243 . S
C548 C551 1.399 . S
C548 C552 1.383 . S
C548 C555 1.496 . S
C549 C550 1.399 . S
C549 C552 1.389 . S
C550 C549 1.399 . S
C550 C553 1.380 . S
C550 H560 0.929 . S
C551 C548 1.399 . S
C551 C553 1.392 . S
C551 H561 0.929 . S
C552 C548 1.383 . S
C552 C549 1.389 . S
C552 H562 0.931 . S
C553 C550 1.380 . S
C553 C551 1.392 . S
C553 H563 0.929 . S
C554 O534 1.266 . S
C554 O535 1.248 . S
C555 Tb491 2.802 . S
C555 O530 1.264 . S
C555 O533 1.256 . S
C555 C548 1.496 . S
H556 C539 0.929 . S
H557 C540 0.929 . S
H558 C541 0.929 . S
H559 C542 0.931 . S
H560 C550 0.929 . S
H561 C551 0.929 . S
H562 C552 0.931 . S
H563 C553 0.929 . S
Tb564 N593 2.617 . S
Tb564 N599 2.572 . S
Tb564 O608 2.465 . S
Tb564 O609 2.387 1_455 S
Tb564 O611 2.428 . S
Tb564 O612 2.308 . S
Tb564 O616 2.349 . S
Tb564 O619 2.393 . S
Tb564 C628 2.802 . S
C565 N566 1.379 1_455 S
C565 C568 1.416 . S
C565 C572 1.424 . S
N566 C565 1.379 1_655 S
N566 C569 1.334 . S
N566 Tb575 2.617 . S
C567 C569 1.390 1_455 S
C567 C570 1.339 . S
C567 H587 0.930 . S
C568 C565 1.416 . S
C568 C570 1.416 . S
C568 C574 1.448 . S
C569 N566 1.334 . S
C569 C567 1.390 1_655 S
C569 H580 0.930 . S
C570 C567 1.339 . S
C570 C568 1.416 . S
C570 H591 0.930 . S
C571 C572 1.413 . S
C571 C573 1.427 . S
C571 C577 1.416 . S
C572 C565 1.424 . S
C572 C571 1.413 . S
C572 N576 1.361 . S
C573 C571 1.427 . S
C573 C574 1.328 . S
C573 H588 0.929 . S
C574 C568 1.448 . S
C574 C573 1.328 . S
C574 H589 0.930 . S
Tb575 N566 2.617 . S
Tb575 N576 2.572 1_655 S
Tb575 O610 2.349 . S
Tb575 O613 2.393 . S
Tb575 O614 2.465 . S
Tb575 O615 2.387 1_655 S
Tb575 O617 2.428 . S
Tb575 O618 2.318 . S
Tb575 C639 2.802 . S
N576 C572 1.361 . S
N576 Tb575 2.572 1_455 S
N576 C578 1.340 . S
C577 C571 1.416 . S
C577 C579 1.332 . S
C577 H585 0.931 . S
C578 N576 1.340 . S
C578 C579 1.407 . S
C578 H584 0.930 1_455 S
C579 C577 1.332 . S
C579 C578 1.407 . S
C579 H581 0.929 . S
H580 C569 0.930 . S
H581 C579 0.929 . S
H582 C597 0.930 . S
H583 C604 0.929 . S
H584 C578 0.930 1_655 S
H585 C577 0.931 . S
H586 C600 0.930 . S
H587 C567 0.930 . S
H588 C573 0.929 . S
H589 C574 0.930 . S
H590 C595 0.930 . S
H591 C570 0.930 . S
H592 C603 0.931 . S
N593 Tb564 2.617 . S
N593 C594 1.379 . S
N593 C597 1.334 . S
C594 N593 1.379 . S
C594 C596 1.416 1_455 S
C594 C602 1.427 . S
C595 H590 0.930 . S
C595 C597 1.390 . S
C595 C598 1.339 1_455 S
C596 C594 1.416 1_655 S
C596 C598 1.416 . S
C596 C629 1.448 . S
C597 H582 0.930 . S
C597 N593 1.334 . S
C597 C595 1.390 . S
C598 C595 1.339 1_655 S
C598 C596 1.416 . S
C598 H605 0.930 . S
N599 Tb564 2.572 . S
N599 C600 1.340 . S
N599 C602 1.372 . S
C600 H586 0.930 . S
C600 N599 1.340 . S
C600 C604 1.407 1_455 S
C601 C602 1.399 1_655 S
C601 C603 1.416 . S
C601 C630 1.427 . S
C602 C594 1.427 . S
C602 N599 1.372 . S
C602 C601 1.399 1_455 S
C603 H592 0.931 . S
C603 C601 1.416 . S
C603 C604 1.332 . S
C604 H583 0.929 . S
C604 C600 1.407 1_655 S
C604 C603 1.332 . S
H605 C598 0.930 . S
H606 C629 0.930 . S
H607 C630 0.929 . S
O608 Tb564 2.465 . S
O608 C628 1.264 . S
O609 Tb564 2.387 1_655 S
O609 C620 1.264 . S
O610 Tb575 2.349 . S
O610 C620 1.243 . S
O611 Tb564 2.428 . S
O611 C628 1.256 . S
O612 Tb564 2.308 . S
O612 C627 1.266 . S
O613 Tb575 2.393 . S
O613 C627 1.248 1_655 S
O614 Tb575 2.465 . S
O614 C639 1.264 . S
O615 Tb575 2.387 1_455 S
O615 C631 1.264 . S
O616 Tb564 2.349 . S
O616 C631 1.243 . S
O617 Tb575 2.428 . S
O617 C639 1.256 . S
O618 Tb575 2.318 . S
O618 C638 1.259 1_655 S
O619 Tb564 2.393 . S
O619 C638 1.248 . S
C620 O609 1.264 . S
C620 O610 1.243 . S
C621 C624 1.399 . S
C621 C626 1.383 . S
C621 C628 1.496 . S
C622 C623 1.399 . S
C622 C626 1.389 . S
C623 C622 1.399 . S
C623 C625 1.380 . S
C623 H640 0.929 . S
C624 C621 1.399 . S
C624 C625 1.392 . S
C624 H641 0.929 . S
C625 C623 1.380 . S
C625 C624 1.392 . S
C625 H642 0.929 . S
C626 C621 1.383 . S
C626 C622 1.389 . S
C626 H643 0.931 . S
C627 O612 1.266 . S
C627 O613 1.248 1_455 S
C628 Tb564 2.802 . S
C628 O608 1.264 . S
C628 O611 1.256 . S
C628 C621 1.496 . S
C629 C596 1.448 . S
C629 H606 0.930 . S
C629 C630 1.328 . S
C630 C601 1.427 . S
C630 H607 0.929 . S
C630 C629 1.328 . S
C631 O615 1.264 . S
C631 O616 1.243 . S
C632 C635 1.399 . S
C632 C636 1.383 . S
C632 C639 1.496 . S
C633 C634 1.399 . S
C633 C636 1.389 . S
C634 C633 1.399 . S
C634 C637 1.380 . S
C634 H644 0.929 . S
C635 C632 1.399 . S
C635 C637 1.392 . S
C635 H645 0.929 . S
C636 C632 1.383 . S
C636 C633 1.389 . S
C636 H646 0.931 . S
C637 C634 1.380 . S
C637 C635 1.392 . S
C637 H647 0.929 . S
C638 O618 1.259 1_455 S
C638 O619 1.248 . S
C639 Tb575 2.802 . S
C639 O614 1.264 . S
C639 O617 1.256 . S
C639 C632 1.496 . S
H640 C623 0.929 . S
H641 C624 0.929 . S
H642 C625 0.929 . S
H643 C626 0.931 . S
H644 C634 0.929 . S
H645 C635 0.929 . S
H646 C636 0.931 . S
H647 C637 0.929 . S
H648 C660 0.930 . S
H649 C662 0.930 . S
H650 C663 0.887 1_565 S
H651 C667 0.959 . S
H652 C667 0.959 . S
H653 C667 0.961 . S
H654 C668 0.960 . S
H655 C668 0.961 . S
H656 C668 0.959 . S
H657 C671 0.929 1_565 S
H658 C672 0.931 1_565 S
H659 C674 0.930 . S
C660 H648 0.930 . S
C660 C661 1.399 . S
C660 C665 1.399 . S
C661 C660 1.399 . S
C661 C662 1.376 . S
C662 H649 0.930 . S
C662 C661 1.376 . S
C662 C663 1.388 . S
C663 H650 0.887 1_545 S
C663 C662 1.388 . S
C663 C664 1.390 . S
C664 C663 1.390 . S
C664 C665 1.394 . S
C664 C670 1.465 . S
C665 C660 1.399 . S
C665 C664 1.394 . S
C665 C666 1.516 . S
C666 C665 1.516 . S
C666 C667 1.502 . S
C666 C668 1.561 . S
C666 C669 1.526 . S
C667 H651 0.959 . S
C667 H652 0.959 . S
C667 H653 0.961 . S
C667 C666 1.502 . S
C668 H654 0.960 . S
C668 H655 0.961 . S
C668 H656 0.959 . S
C668 C666 1.561 . S
C669 C666 1.526 . S
C669 C670 1.396 . S
C669 C674 1.390 . S
C670 C664 1.465 . S
C670 C669 1.396 . S
C670 C671 1.399 . S
C671 H657 0.929 1_545 S
C671 C670 1.399 . S
C671 C672 1.385 . S
C672 H658 0.931 1_545 S
C672 C671 1.385 . S
C672 C673 1.389 . S
C673 C672 1.389 . S
C673 C674 1.387 . S
C674 H659 0.930 . S
C674 C669 1.390 . S
C674 C673 1.387 . S
H675 C687 0.930 . S
H676 C689 0.930 . S
H677 C690 0.930 . S
H678 C694 0.959 . S
H679 C694 0.959 . S
H680 C694 0.961 . S
H681 C695 0.960 . S
H682 C695 0.961 . S
H683 C695 0.959 . S
H684 C698 0.929 . S
H685 C699 0.931 . S
H686 C701 0.930 . S
C687 H675 0.930 . S
C687 C688 1.399 . S
C687 C692 1.399 . S
C688 C687 1.399 . S
C688 C689 1.376 . S
C689 H676 0.930 . S
C689 C688 1.376 . S
C689 C690 1.388 . S
C690 H677 0.930 . S
C690 C689 1.388 . S
C690 C691 1.390 . S
C691 C690 1.390 . S
C691 C692 1.394 . S
C691 C697 1.465 . S
C692 C687 1.399 . S
C692 C691 1.394 . S
C692 C693 1.516 . S
C693 C692 1.516 . S
C693 C694 1.502 . S
C693 C695 1.561 . S
C693 C696 1.526 . S
C694 H678 0.959 . S
C694 H679 0.959 . S
C694 H680 0.961 . S
C694 C693 1.502 . S
C695 H681 0.960 . S
C695 H682 0.961 . S
C695 H683 0.959 . S
C695 C693 1.561 . S
C696 C693 1.526 . S
C696 C697 1.396 . S
C696 C701 1.390 . S
C697 C691 1.465 . S
C697 C696 1.396 . S
C697 C698 1.399 . S
C698 H684 0.929 . S
C698 C697 1.399 . S
C698 C699 1.385 . S
C699 H685 0.931 . S
C699 C698 1.385 . S
C699 C700 1.389 . S
C700 C699 1.389 . S
C700 C701 1.387 . S
C701 H686 0.930 . S
C701 C696 1.390 . S
C701 C700 1.387 . S
H702 C714 0.930 . S
H703 C716 0.930 . S
H704 C717 0.930 . S
H705 C721 0.959 . S
H706 C721 0.959 . S
H707 C721 0.961 . S
H708 C722 0.960 . S
H709 C722 0.961 . S
H710 C722 0.959 . S
H711 C725 0.929 . S
H712 C726 0.931 . S
H713 C728 0.930 . S
C714 H702 0.930 . S
C714 C715 1.399 . S
C714 C719 1.399 . S
C715 C714 1.399 . S
C715 C716 1.376 . S
C716 H703 0.930 . S
C716 C715 1.376 . S
C716 C717 1.388 . S
C717 H704 0.930 . S
C717 C716 1.388 . S
C717 C718 1.390 . S
C718 C717 1.390 . S
C718 C719 1.394 . S
C718 C724 1.465 . S
C719 C714 1.399 . S
C719 C718 1.394 . S
C719 C720 1.516 . S
C720 C719 1.516 . S
C720 C721 1.502 . S
C720 C722 1.561 . S
C720 C723 1.526 . S
C721 H705 0.959 . S
C721 H706 0.959 . S
C721 H707 0.961 . S
C721 C720 1.502 . S
C722 H708 0.960 . S
C722 H709 0.961 . S
C722 H710 0.959 . S
C722 C720 1.561 . S
C723 C720 1.526 . S
C723 C724 1.396 . S
C723 C728 1.390 . S
C724 C718 1.465 . S
C724 C723 1.396 . S
C724 C725 1.399 . S
C725 H711 0.929 . S
C725 C724 1.399 . S
C725 C726 1.385 . S
C726 H712 0.931 . S
C726 C725 1.385 . S
C726 C727 1.389 . S
C727 C726 1.389 . S
C727 C728 1.387 . S
C728 H713 0.930 . S
C728 C723 1.390 . S
C728 C727 1.387 . S
H729 C741 0.930 . S
H730 C743 0.930 . S
H731 C744 0.930 . S
H732 C748 0.959 1_655 S
H733 C748 0.959 . S
H734 C748 0.961 . S
H735 C749 0.960 . S
H736 C749 0.961 . S
H737 C749 0.959 . S
H738 C752 0.929 . S
H739 C753 0.931 . S
H740 C755 0.930 . S
C741 H729 0.930 . S
C741 C742 1.399 . S
C741 C746 1.399 . S
C742 C741 1.399 . S
C742 C743 1.376 . S
C743 H730 0.930 . S
C743 C742 1.376 . S
C743 C744 1.388 . S
C744 H731 0.930 . S
C744 C743 1.388 . S
C744 C745 1.390 . S
C745 C744 1.390 . S
C745 C746 1.394 . S
C745 C751 1.465 . S
C746 C741 1.399 . S
C746 C745 1.394 . S
C746 C747 1.516 . S
C747 C746 1.516 . S
C747 C748 1.502 . S
C747 C749 1.561 . S
C747 C750 1.526 . S
C748 H732 0.959 1_455 S
C748 H733 0.959 . S
C748 H734 0.961 . S
C748 C747 1.502 . S
C749 H735 0.960 . S
C749 H736 0.961 . S
C749 H737 0.959 . S
C749 C747 1.561 . S
C750 C747 1.526 . S
C750 C751 1.396 . S
C750 C755 1.390 . S
C751 C745 1.465 . S
C751 C750 1.396 . S
C751 C752 1.399 . S
C752 H738 0.929 . S
C752 C751 1.399 . S
C752 C753 1.385 . S
C753 H739 0.931 . S
C753 C752 1.385 . S
C753 C754 1.389 . S
C754 C753 1.389 . S
C754 C755 1.387 . S
C755 H740 0.930 . S
C755 C750 1.390 . S
C755 C754 1.387 . S
H756 C768 0.930 1_545 S
H757 C770 0.930 . S
H758 C771 0.930 1_556 S
H759 C775 0.959 . S
H760 C775 0.959 . S
H761 C775 0.961 . S
H762 C776 0.960 1_554 S
H763 C776 0.961 . S
H764 C776 0.959 . S
H765 C779 0.929 . S
H766 C780 0.931 . S
H767 C782 0.930 . S
C768 H756 0.930 1_565 S
C768 C769 1.399 . S
C768 C773 1.399 . S
C769 C768 1.399 . S
C769 C770 1.376 . S
C770 H757 0.930 . S
C770 C769 1.376 . S
C770 C771 1.388 . S
C771 H758 0.930 1_554 S
C771 C770 1.388 . S
C771 C772 1.390 1_554 S
C772 C771 1.390 1_556 S
C772 C773 1.394 1_556 S
C772 C778 1.465 . S
C773 C768 1.399 . S
C773 C772 1.394 1_554 S
C773 C774 1.516 1_564 S
C774 C773 1.516 1_546 S
C774 C775 1.502 . S
C774 C776 1.561 . S
C774 C777 1.543 . S
C775 H759 0.959 . S
C775 H760 0.959 . S
C775 H761 0.961 . S
C775 C774 1.502 . S
C776 H762 0.960 1_556 S
C776 H763 0.961 . S
C776 H764 0.959 . S
C776 C774 1.561 . S
C777 C774 1.543 . S
C777 C778 1.361 1_545 S
C777 C782 1.403 . S
C778 C772 1.465 . S
C778 C777 1.361 1_565 S
C778 C779 1.399 . S
C779 H765 0.929 . S
C779 C778 1.399 . S
C779 C780 1.385 . S
C780 H766 0.931 . S
C780 C779 1.385 . S
C780 C781 1.389 . S
C781 C780 1.389 . S
C781 C782 1.387 1_565 S
C782 H767 0.930 . S
C782 C777 1.403 . S
C782 C781 1.387 1_545 S
H783 C795 0.930 . S
H784 C797 0.930 . S
H785 C798 0.930 . S
H786 C802 0.959 . S
H787 C802 0.959 . S
H788 C802 0.961 1_554 S
H789 C803 0.960 . S
H790 C803 0.961 1_556 S
H791 C803 0.959 1_556 S
H792 C806 0.929 . S
H793 C807 0.931 . S
H794 C809 0.930 . S
C795 H783 0.930 . S
C795 C796 1.399 . S
C795 C800 1.399 . S
C796 C795 1.399 . S
C796 C797 1.376 . S
C797 H784 0.930 . S
C797 C796 1.376 . S
C797 C798 1.388 1_554 S
C798 H785 0.930 . S
C798 C797 1.388 1_556 S
C798 C799 1.390 . S
C799 C798 1.390 . S
C799 C800 1.394 1_556 S
C799 C805 1.465 . S
C800 C795 1.399 . S
C800 C799 1.394 1_554 S
C800 C801 1.516 1_554 S
C801 C800 1.516 1_556 S
C801 C802 1.502 . S
C801 C803 1.561 1_556 S
C801 C804 1.526 . S
C802 H786 0.959 . S
C802 H787 0.959 . S
C802 H788 0.961 1_556 S
C802 C801 1.502 . S
C803 H789 0.960 . S
C803 H790 0.961 1_554 S
C803 H791 0.959 1_554 S
C803 C801 1.561 1_554 S
C804 C801 1.526 . S
C804 C805 1.396 . S
C804 C809 1.390 . S
C805 C799 1.465 . S
C805 C804 1.396 . S
C805 C806 1.399 . S
C806 H792 0.929 . S
C806 C805 1.399 . S
C806 C807 1.385 . S
C807 H793 0.931 . S
C807 C806 1.385 . S
C807 C808 1.389 . S
C808 C807 1.389 . S
C808 C809 1.387 . S
C809 H794 0.930 . S
C809 C804 1.390 . S
C809 C808 1.387 . S
H810 C822 0.930 . S
H811 C824 0.930 . S
H812 C825 0.930 . S
H813 C829 0.959 . S
H814 C829 0.959 . S
H815 C829 0.961 . S
H816 C830 0.960 1_554 S
H817 C830 0.961 . S
H818 C830 0.959 . S
H819 C833 0.929 . S
H820 C834 0.931 . S
H821 C836 0.930 . S
C822 H810 0.930 . S
C822 C823 1.399 . S
C822 C827 1.399 . S
C823 C822 1.399 . S
C823 C824 1.376 . S
C824 H811 0.930 . S
C824 C823 1.376 . S
C824 C825 1.388 . S
C825 H812 0.930 . S
C825 C824 1.388 . S
C825 C826 1.390 1_554 S
C826 C825 1.390 1_556 S
C826 C827 1.394 1_556 S
C826 C832 1.465 . S
C827 C822 1.399 . S
C827 C826 1.394 1_554 S
C827 C828 1.516 1_554 S
C828 C827 1.516 1_556 S
C828 C829 1.502 . S
C828 C830 1.561 . S
C828 C831 1.526 . S
C829 H813 0.959 . S
C829 H814 0.959 . S
C829 H815 0.961 . S
C829 C828 1.502 . S
C830 H816 0.960 1_556 S
C830 H817 0.961 . S
C830 H818 0.959 . S
C830 C828 1.561 . S
C831 C828 1.526 . S
C831 C832 1.396 . S
C831 C836 1.390 . S
C832 C826 1.465 . S
C832 C831 1.396 . S
C832 C833 1.399 . S
C833 H819 0.929 . S
C833 C832 1.399 . S
C833 C834 1.385 . S
C834 H820 0.931 . S
C834 C833 1.385 . S
C834 C835 1.389 . S
C835 C834 1.389 . S
C835 C836 1.387 . S
C836 H821 0.930 . S
C836 C831 1.390 . S
C836 C835 1.387 . S
H837 C849 0.930 . S
H838 C851 0.930 . S
H839 C852 0.930 . S
H840 C856 0.959 1_556 S
H841 C856 0.959 1_556 S
H842 C856 0.961 . S
H843 C857 0.960 1_554 S
H844 C857 0.961 . S
H845 C857 0.959 . S
H846 C860 0.929 . S
H847 C861 0.931 . S
H848 C863 0.930 . S
C849 H837 0.930 . S
C849 C850 1.399 . S
C849 C854 1.399 . S
C850 C849 1.399 . S
C850 C851 1.376 . S
C851 H838 0.930 . S
C851 C850 1.376 . S
C851 C852 1.388 1_554 S
C852 H839 0.930 . S
C852 C851 1.388 1_556 S
C852 C853 1.390 . S
C853 C852 1.390 . S
C853 C854 1.394 1_556 S
C853 C859 1.465 . S
C854 C849 1.399 . S
C854 C853 1.394 1_554 S
C854 C855 1.516 1_554 S
C855 C854 1.516 1_556 S
C855 C856 1.502 1_656 S
C855 C857 1.561 . S
C855 C858 1.526 . S
C856 H840 0.959 1_554 S
C856 H841 0.959 1_554 S
C856 H842 0.961 . S
C856 C855 1.502 1_454 S
C857 H843 0.960 1_556 S
C857 H844 0.961 . S
C857 H845 0.959 . S
C857 C855 1.561 . S
C858 C855 1.526 . S
C858 C859 1.396 . S
C858 C863 1.390 . S
C859 C853 1.465 . S
C859 C858 1.396 . S
C859 C860 1.399 . S
C860 H846 0.929 . S
C860 C859 1.399 . S
C860 C861 1.385 . S
C861 H847 0.931 . S
C861 C860 1.385 . S
C861 C862 1.389 . S
C862 C861 1.389 . S
C862 C863 1.387 . S
C863 H848 0.930 . S
C863 C858 1.390 . S
C863 C862 1.387 . S
H864 C876 0.930 . S
H865 C878 0.930 . S
H866 C879 0.930 . S
H867 C883 0.959 . S
H868 C883 0.959 . S
H869 C883 0.961 . S
H870 C884 0.960 . S
H871 C884 0.961 . S
H872 C884 0.959 . S
H873 C887 0.929 . S
H874 C888 0.931 . S
H875 C890 0.930 . S
C876 H864 0.930 . S
C876 C877 1.399 . S
C876 C881 1.399 . S
C877 C876 1.399 . S
C877 C878 1.376 . S
C878 H865 0.930 . S
C878 C877 1.376 . S
C878 C879 1.388 . S
C879 H866 0.930 . S
C879 C878 1.388 . S
C879 C880 1.390 . S
C880 C879 1.390 . S
C880 C881 1.394 . S
C880 C886 1.465 . S
C881 C876 1.399 . S
C881 C880 1.394 . S
C881 C882 1.516 . S
C882 C881 1.516 . S
C882 C883 1.502 . S
C882 C884 1.561 . S
C882 C885 1.526 . S
C883 H867 0.959 . S
C883 H868 0.959 . S
C883 H869 0.961 . S
C883 C882 1.502 . S
C884 H870 0.960 . S
C884 H871 0.961 . S
C884 H872 0.959 . S
C884 C882 1.561 . S
C885 C882 1.526 . S
C885 C886 1.396 . S
C885 C890 1.390 . S
C886 C880 1.465 . S
C886 C885 1.396 . S
C886 C887 1.399 1_455 S
C887 H873 0.929 . S
C887 C886 1.399 1_655 S
C887 C888 1.385 . S
C888 H874 0.931 . S
C888 C887 1.385 . S
C888 C889 1.389 . S
C889 C888 1.389 . S
C889 C890 1.387 1_655 S
C890 H875 0.930 . S
C890 C885 1.390 . S
C890 C889 1.387 1_455 S
H891 C903 0.930 . S
H892 C905 0.930 . S
H893 C906 0.930 . S
H894 C910 0.959 . S
H895 C910 0.959 . S
H896 C910 0.961 . S
H897 C911 0.960 . S
H898 C911 0.961 . S
H899 C911 0.959 . S
H900 C914 0.929 . S
H901 C915 0.955 . S
H902 C917 0.930 . S
C903 H891 0.930 . S
C903 C904 1.399 . S
C903 C908 1.399 . S
C904 C903 1.399 . S
C904 C905 1.376 . S
C905 H892 0.930 . S
C905 C904 1.376 . S
C905 C906 1.388 . S
C906 H893 0.930 . S
C906 C905 1.388 . S
C906 C907 1.390 . S
C907 C906 1.390 . S
C907 C908 1.394 . S
C907 C913 1.465 . S
C908 C903 1.399 . S
C908 C907 1.394 . S
C908 C909 1.516 . S
C909 C908 1.516 . S
C909 C910 1.502 . S
C909 C911 1.561 . S
C909 C912 1.526 . S
C910 H894 0.959 . S
C910 H895 0.959 . S
C910 H896 0.961 . S
C910 C909 1.502 . S
C911 H897 0.960 . S
C911 H898 0.961 . S
C911 H899 0.959 . S
C911 C909 1.561 . S
C912 C909 1.526 . S
C912 C913 1.396 . S
C912 C917 1.390 . S
C913 C907 1.465 . S
C913 C912 1.396 . S
C913 C914 1.399 . S
C914 H900 0.929 . S
C914 C913 1.399 . S
C914 C915 1.369 1_545 S
C915 H901 0.955 . S
C915 C914 1.369 1_565 S
C915 C916 1.384 1_565 S
C916 C915 1.384 1_545 S
C916 C917 1.387 . S
C917 H902 0.930 . S
C917 C912 1.390 . S
C917 C916 1.387 . S
H918 C930 0.930 . S
H919 C932 0.930 . S
H920 C933 0.930 . S
H921 C937 0.959 . S
H922 C937 0.959 . S
H923 C937 0.961 . S
H924 C938 0.960 . S
H925 C938 0.961 . S
H926 C938 0.959 . S
H927 C941 0.929 . S
H928 C942 0.931 . S
H929 C944 0.930 . S
C930 H918 0.930 . S
C930 C931 1.399 . S
C930 C935 1.399 . S
C931 C930 1.399 . S
C931 C932 1.376 . S
C932 H919 0.930 . S
C932 C931 1.376 . S
C932 C933 1.388 . S
C933 H920 0.930 . S
C933 C932 1.388 . S
C933 C934 1.390 . S
C934 C933 1.390 . S
C934 C935 1.394 . S
C934 C940 1.465 . S
C935 C930 1.399 . S
C935 C934 1.394 . S
C935 C936 1.516 . S
C936 C935 1.516 . S
C936 C937 1.502 . S
C936 C938 1.561 . S
C936 C939 1.526 . S
C937 H921 0.959 . S
C937 H922 0.959 . S
C937 H923 0.961 . S
C937 C936 1.502 . S
C938 H924 0.960 . S
C938 H925 0.961 . S
C938 H926 0.959 . S
C938 C936 1.561 . S
C939 C936 1.526 . S
C939 C940 1.396 . S
C939 C944 1.390 . S
C940 C934 1.465 . S
C940 C939 1.396 . S
C940 C941 1.399 . S
C941 H927 0.929 . S
C941 C940 1.399 . S
C941 C942 1.385 . S
C942 H928 0.931 . S
C942 C941 1.385 . S
C942 C943 1.389 . S
C943 C942 1.389 . S
C943 C944 1.387 . S
C944 H929 0.930 . S
C944 C939 1.390 . S
C944 C943 1.387 . S
H945 C957 0.930 . S
H946 C959 0.930 . S
H947 C960 0.930 . S
H948 C964 0.959 . S
H949 C964 0.959 . S
H950 C964 0.961 . S
H951 C965 0.960 . S
H952 C965 0.961 . S
H953 C965 0.959 . S
H954 C968 0.929 . S
H955 C969 0.931 . S
H956 C971 0.930 . S
C957 H945 0.930 . S
C957 C958 1.399 . S
C957 C962 1.399 . S
C958 C957 1.399 . S
C958 C959 1.376 . S
C959 H946 0.930 . S
C959 C958 1.376 . S
C959 C960 1.388 . S
C960 H947 0.930 . S
C960 C959 1.388 . S
C960 C961 1.390 . S
C961 C960 1.390 . S
C961 C962 1.394 . S
C961 C967 1.465 . S
C962 C957 1.399 . S
C962 C961 1.394 . S
C962 C963 1.516 . S
C963 C962 1.516 . S
C963 C964 1.502 . S
C963 C965 1.561 . S
C963 C966 1.526 . S
C964 H948 0.959 . S
C964 H949 0.959 . S
C964 H950 0.961 . S
C964 C963 1.502 . S
C965 H951 0.960 . S
C965 H952 0.961 . S
C965 H953 0.959 . S
C965 C963 1.561 . S
C966 C963 1.526 . S
C966 C967 1.396 . S
C966 C971 1.390 . S
C967 C961 1.465 . S
C967 C966 1.396 . S
C967 C968 1.399 . S
C968 H954 0.929 . S
C968 C967 1.399 . S
C968 C969 1.385 . S
C969 H955 0.931 . S
C969 C968 1.385 . S
C969 C970 1.389 . S
C970 C969 1.389 . S
C970 C971 1.387 . S
C971 H956 0.930 . S
C971 C966 1.390 . S
C971 C970 1.387 . S
H972 C984 0.930 . S
H973 C986 0.930 . S
H974 C987 0.930 . S
H975 C991 0.959 . S
H976 C991 0.959 . S
H977 C991 0.961 . S
H978 C992 0.960 . S
H979 C992 0.961 . S
H980 C992 0.959 . S
H981 C995 0.929 1_554 S
H982 C996 0.931 . S
H983 C998 0.930 . S
C984 H972 0.930 . S
C984 C985 1.399 1_556 S
C984 C989 1.399 . S
C985 C984 1.399 1_554 S
C985 C986 1.376 . S
C986 H973 0.930 . S
C986 C985 1.376 . S
C986 C987 1.388 . S
C987 H974 0.930 . S
C987 C986 1.388 . S
C987 C988 1.390 1_554 S
C988 C987 1.390 1_556 S
C988 C989 1.394 . S
C988 C994 1.465 . S
C989 C984 1.399 . S
C989 C988 1.394 . S
C989 C990 1.516 . S
C990 C989 1.516 . S
C990 C991 1.502 1_655 S
C990 C992 1.561 . S
C990 C993 1.526 . S
C991 H975 0.959 . S
C991 H976 0.959 . S
C991 H977 0.961 . S
C991 C990 1.502 1_455 S
C992 H978 0.960 . S
C992 H979 0.961 . S
C992 H980 0.959 . S
C992 C990 1.561 . S
C993 C990 1.526 . S
C993 C994 1.396 . S
C993 C998 1.390 1_655 S
C994 C988 1.465 . S
C994 C993 1.396 . S
C994 C995 1.399 . S
C995 H981 0.929 1_556 S
C995 C994 1.399 . S
C995 C996 1.385 1_655 S
C996 H982 0.931 . S
C996 C995 1.385 1_455 S
C996 C997 1.389 . S
C997 C996 1.389 . S
C997 C998 1.387 . S
C998 H983 0.930 . S
C998 C993 1.390 1_455 S
C998 C997 1.387 . S
H999 C1011 0.934 . S
H1000 C1013 0.930 . S
H1001 C1014 0.930 . S
H1002 C1018 0.959 . S
H1003 C1018 0.959 . S
H1004 C1018 0.961 . S
H1005 C1019 0.960 . S
H1006 C1019 0.961 . S
H1007 C1019 0.959 . S
H1008 C1022 0.929 . S
H1009 C1023 0.931 . S
H1010 C1025 0.930 . S
C1011 H999 0.934 . S
C1011 C1012 1.399 . S
C1011 C1016 1.399 1_554 S
C1012 C1011 1.399 . S
C1012 C1013 1.376 1_554 S
C1013 H1000 0.930 . S
C1013 C1012 1.376 1_556 S
C1013 C1014 1.388 . S
C1014 H1001 0.930 . S
C1014 C1013 1.388 . S
C1014 C1015 1.390 . S
C1015 C1014 1.390 . S
C1015 C1016 1.394 . S
C1015 C1021 1.465 . S
C1016 C1011 1.399 1_556 S
C1016 C1015 1.394 . S
C1016 C1017 1.516 1_565 S
C1017 C1016 1.516 1_545 S
C1017 C1018 1.502 1_556 S
C1017 C1019 1.561 . S
C1017 C1020 1.526 . S
C1018 H1002 0.959 . S
C1018 H1003 0.959 . S
C1018 H1004 0.961 . S
C1018 C1017 1.502 1_554 S
C1019 H1005 0.960 . S
C1019 H1006 0.961 . S
C1019 H1007 0.959 . S
C1019 C1017 1.561 . S
C1020 C1017 1.526 . S
C1020 C1021 1.396 1_545 S
C1020 C1025 1.390 . S
C1021 C1015 1.465 . S
C1021 C1020 1.396 1_565 S
C1021 C1022 1.399 . S
C1022 H1008 0.929 . S
C1022 C1021 1.399 . S
C1022 C1023 1.385 . S
C1023 H1009 0.931 . S
C1023 C1022 1.385 . S
C1023 C1024 1.389 1_565 S
C1024 C1023 1.389 1_545 S
C1024 C1025 1.387 . S
C1025 H1010 0.930 . S
C1025 C1020 1.390 . S
C1025 C1024 1.387 . S
H1026 C1038 0.930 . S
H1027 C1040 0.930 . S
H1028 C1041 0.930 . S
H1029 C1045 0.959 1_556 S
H1030 C1045 0.959 . S
H1031 C1045 0.961 . S
H1032 C1046 0.960 . S
H1033 C1046 0.961 . S
H1034 C1046 0.959 . S
H1035 C1049 0.929 . S
H1036 C1050 0.931 . S
H1037 C1052 0.930 . S
C1038 H1026 0.930 . S
C1038 C1039 1.399 . S
C1038 C1043 1.399 . S
C1039 C1038 1.399 . S
C1039 C1040 1.376 1_554 S
C1040 H1027 0.930 . S
C1040 C1039 1.376 1_556 S
C1040 C1041 1.388 . S
C1041 H1028 0.930 . S
C1041 C1040 1.388 . S
C1041 C1042 1.390 . S
C1042 C1041 1.390 . S
C1042 C1043 1.394 1_556 S
C1042 C1048 1.465 . S
C1043 C1038 1.399 . S
C1043 C1042 1.394 1_554 S
C1043 C1044 1.516 . S
C1044 C1043 1.516 . S
C1044 C1045 1.502 . S
C1044 C1046 1.561 . S
C1044 C1047 1.526 1_554 S
C1045 H1029 0.959 1_554 S
C1045 H1030 0.959 . S
C1045 H1031 0.961 . S
C1045 C1044 1.502 . S
C1046 H1032 0.960 . S
C1046 H1033 0.961 . S
C1046 H1034 0.959 . S
C1046 C1044 1.561 . S
C1047 C1044 1.526 1_556 S
C1047 C1048 1.396 . S
C1047 C1052 1.390 . S
C1048 C1042 1.465 . S
C1048 C1047 1.396 . S
C1048 C1049 1.399 . S
C1049 H1035 0.929 . S
C1049 C1048 1.399 . S
C1049 C1050 1.385 . S
C1050 H1036 0.931 . S
C1050 C1049 1.385 . S
C1050 C1051 1.389 . S
C1051 C1050 1.389 . S
C1051 C1052 1.387 . S
C1052 H1037 0.930 . S
C1052 C1047 1.390 . S
C1052 C1051 1.387 . S
H1053 C1065 0.930 . S
H1054 C1067 0.930 . S
H1055 C1068 0.930 . S
H1056 C1072 0.959 . S
H1057 C1072 0.959 . S
H1058 C1072 0.961 . S
H1059 C1073 0.960 . S
H1060 C1073 0.961 . S
H1061 C1073 0.959 . S
H1062 C1076 0.929 . S
H1063 C1077 0.931 . S
H1064 C1079 0.930 . S
C1065 H1053 0.930 . S
C1065 C1066 1.399 . S
C1065 C1070 1.399 . S
C1066 C1065 1.399 . S
C1066 C1067 1.376 1_554 S
C1067 H1054 0.930 . S
C1067 C1066 1.376 1_556 S
C1067 C1068 1.388 . S
C1068 H1055 0.930 . S
C1068 C1067 1.388 . S
C1068 C1069 1.390 . S
C1069 C1068 1.390 . S
C1069 C1070 1.394 1_556 S
C1069 C1075 1.465 . S
C1070 C1065 1.399 . S
C1070 C1069 1.394 1_554 S
C1070 C1071 1.516 . S
C1071 C1070 1.516 . S
C1071 C1072 1.502 . S
C1071 C1073 1.561 . S
C1071 C1074 1.526 1_554 S
C1072 H1056 0.959 . S
C1072 H1057 0.959 . S
C1072 H1058 0.961 . S
C1072 C1071 1.502 . S
C1073 H1059 0.960 . S
C1073 H1060 0.961 . S
C1073 H1061 0.959 . S
C1073 C1071 1.561 . S
C1074 C1071 1.526 1_556 S
C1074 C1075 1.396 . S
C1074 C1079 1.390 . S
C1075 C1069 1.465 . S
C1075 C1074 1.396 . S
C1075 C1076 1.399 . S
C1076 H1062 0.929 . S
C1076 C1075 1.399 . S
C1076 C1077 1.385 . S
C1077 H1063 0.931 . S
C1077 C1076 1.385 . S
C1077 C1078 1.389 . S
C1078 C1077 1.389 . S
C1078 C1079 1.387 . S
C1079 H1064 0.930 . S
C1079 C1074 1.390 . S
C1079 C1078 1.387 . S
H1080 C1092 0.930 . S
H1081 C1094 0.930 . S
H1082 C1095 0.930 . S
H1083 C1099 0.959 . S
H1084 C1099 0.959 . S
H1085 C1099 0.961 . S
H1086 C1100 0.960 . S
H1087 C1100 0.961 . S
H1088 C1100 0.959 . S
H1089 C1103 0.929 . S
H1090 C1104 0.931 . S
H1091 C1106 0.930 . S
C1092 H1080 0.930 . S
C1092 C1093 1.399 . S
C1092 C1097 1.399 . S
C1093 C1092 1.399 . S
C1093 C1094 1.376 . S
C1094 H1081 0.930 . S
C1094 C1093 1.376 . S
C1094 C1095 1.388 . S
C1095 H1082 0.930 . S
C1095 C1094 1.388 . S
C1095 C1096 1.390 . S
C1096 C1095 1.390 . S
C1096 C1097 1.394 . S
C1096 C1102 1.465 . S
C1097 C1092 1.399 . S
C1097 C1096 1.394 . S
C1097 C1098 1.516 . S
C1098 C1097 1.516 . S
C1098 C1099 1.502 . S
C1098 C1100 1.561 . S
C1098 C1101 1.526 . S
C1099 H1083 0.959 . S
C1099 H1084 0.959 . S
C1099 H1085 0.961 . S
C1099 C1098 1.502 . S
C1100 H1086 0.960 . S
C1100 H1087 0.961 . S
C1100 H1088 0.959 . S
C1100 C1098 1.561 . S
C1101 C1098 1.526 . S
C1101 C1102 1.396 . S
C1101 C1106 1.390 . S
C1102 C1096 1.465 . S
C1102 C1101 1.396 . S
C1102 C1103 1.399 . S
C1103 H1089 0.929 . S
C1103 C1102 1.399 . S
C1103 C1104 1.385 . S
C1104 H1090 0.931 . S
C1104 C1103 1.385 . S
C1104 C1105 1.389 . S
C1105 C1104 1.389 . S
C1105 C1106 1.387 . S
C1106 H1091 0.930 . S
C1106 C1101 1.390 . S
C1106 C1105 1.387 . S
H1107 C1119 0.930 . S
H1108 C1121 0.930 . S
H1109 C1122 0.930 . S
H1110 C1126 0.959 . S
H1111 C1126 0.959 . S
H1112 C1126 0.961 . S
H1113 C1127 0.960 . S
H1114 C1127 0.961 . S
H1115 C1127 0.959 . S
H1116 C1130 0.929 . S
H1117 C1131 0.931 . S
H1118 C1133 0.930 . S
C1119 H1107 0.930 . S
C1119 C1120 1.399 . S
C1119 C1124 1.399 . S
C1120 C1119 1.399 . S
C1120 C1121 1.376 . S
C1121 H1108 0.930 . S
C1121 C1120 1.376 . S
C1121 C1122 1.388 . S
C1122 H1109 0.930 . S
C1122 C1121 1.388 . S
C1122 C1123 1.390 . S
C1123 C1122 1.390 . S
C1123 C1124 1.394 . S
C1123 C1129 1.465 . S
C1124 C1119 1.399 . S
C1124 C1123 1.394 . S
C1124 C1125 1.516 . S
C1125 C1124 1.516 . S
C1125 C1126 1.502 . S
C1125 C1127 1.561 . S
C1125 C1128 1.526 . S
C1126 H1110 0.959 . S
C1126 H1111 0.959 . S
C1126 H1112 0.961 . S
C1126 C1125 1.502 . S
C1127 H1113 0.960 . S
C1127 H1114 0.961 . S
C1127 H1115 0.959 . S
C1127 C1125 1.561 . S
C1128 C1125 1.526 . S
C1128 C1129 1.396 . S
C1128 C1133 1.390 . S
C1129 C1123 1.465 . S
C1129 C1128 1.396 . S
C1129 C1130 1.399 . S
C1130 H1116 0.929 . S
C1130 C1129 1.399 . S
C1130 C1131 1.385 . S
C1131 H1117 0.931 . S
C1131 C1130 1.385 . S
C1131 C1132 1.389 . S
C1132 C1131 1.389 . S
C1132 C1133 1.387 . S
C1133 H1118 0.930 . S
C1133 C1128 1.390 . S
C1133 C1132 1.387 . S
H1134 C1146 0.930 . S
H1135 C1148 0.930 . S
H1136 C1149 0.930 . S
H1137 C1153 0.959 . S
H1138 C1153 0.959 . S
H1139 C1153 0.961 . S
H1140 C1154 0.960 . S
H1141 C1154 0.961 . S
H1142 C1154 0.959 . S
H1143 C1157 0.929 . S
H1144 C1158 0.931 . S
H1145 C1160 0.930 . S
C1146 H1134 0.930 . S
C1146 C1147 1.399 . S
C1146 C1151 1.399 . S
C1147 C1146 1.399 . S
C1147 C1148 1.376 . S
C1148 H1135 0.930 . S
C1148 C1147 1.376 . S
C1148 C1149 1.388 . S
C1149 H1136 0.930 . S
C1149 C1148 1.388 . S
C1149 C1150 1.390 . S
C1150 C1149 1.390 . S
C1150 C1151 1.394 . S
C1150 C1156 1.465 . S
C1151 C1146 1.399 . S
C1151 C1150 1.394 . S
C1151 C1152 1.516 . S
C1152 C1151 1.516 . S
C1152 C1153 1.502 . S
C1152 C1154 1.561 . S
C1152 C1155 1.526 . S
C1153 H1137 0.959 . S
C1153 H1138 0.959 . S
C1153 H1139 0.961 . S
C1153 C1152 1.502 . S
C1154 H1140 0.960 . S
C1154 H1141 0.961 . S
C1154 H1142 0.959 . S
C1154 C1152 1.561 . S
C1155 C1152 1.526 . S
C1155 C1156 1.396 . S
C1155 C1160 1.390 . S
C1156 C1150 1.465 . S
C1156 C1155 1.396 . S
C1156 C1157 1.399 . S
C1157 H1143 0.929 . S
C1157 C1156 1.399 . S
C1157 C1158 1.385 . S
C1158 H1144 0.931 . S
C1158 C1157 1.385 . S
C1158 C1159 1.389 . S
C1159 C1158 1.389 . S
C1159 C1160 1.387 . S
C1160 H1145 0.930 . S
C1160 C1155 1.390 . S
C1160 C1159 1.387 . S
H1161 C1173 0.930 . S
H1162 C1175 0.930 . S
H1163 C1176 0.930 . S
H1164 C1180 0.959 . S
H1165 C1180 0.959 . S
H1166 C1180 0.961 . S
H1167 C1181 0.960 . S
H1168 C1181 0.961 . S
H1169 C1181 0.959 . S
H1170 C1184 0.929 . S
H1171 C1185 0.931 . S
H1172 C1187 0.930 . S
C1173 H1161 0.930 . S
C1173 C1174 1.399 . S
C1173 C1178 1.399 . S
C1174 C1173 1.399 . S
C1174 C1175 1.376 . S
C1175 H1162 0.930 . S
C1175 C1174 1.376 . S
C1175 C1176 1.388 . S
C1176 H1163 0.930 . S
C1176 C1175 1.388 . S
C1176 C1177 1.390 . S
C1177 C1176 1.390 . S
C1177 C1178 1.394 . S
C1177 C1183 1.465 . S
C1178 C1173 1.399 . S
C1178 C1177 1.394 . S
C1178 C1179 1.516 . S
C1179 C1178 1.516 . S
C1179 C1180 1.502 . S
C1179 C1181 1.561 . S
C1179 C1182 1.526 . S
C1180 H1164 0.959 . S
C1180 H1165 0.959 . S
C1180 H1166 0.961 . S
C1180 C1179 1.502 . S
C1181 H1167 0.960 . S
C1181 H1168 0.961 . S
C1181 H1169 0.959 . S
C1181 C1179 1.561 . S
C1182 C1179 1.526 . S
C1182 C1183 1.396 . S
C1182 C1187 1.390 . S
C1183 C1177 1.465 . S
C1183 C1182 1.396 . S
C1183 C1184 1.399 . S
C1184 H1170 0.929 . S
C1184 C1183 1.399 . S
C1184 C1185 1.385 . S
C1185 H1171 0.931 . S
C1185 C1184 1.385 . S
C1185 C1186 1.389 . S
C1186 C1185 1.389 . S
C1186 C1187 1.387 . S
C1187 H1172 0.930 . S
C1187 C1182 1.390 . S
C1187 C1186 1.387 . S
H1188 C1200 0.930 . S
H1189 C1202 0.930 . S
H1190 C1203 0.930 . S
H1191 C1207 0.959 . S
H1192 C1207 0.959 . S
H1193 C1207 0.961 . S
H1194 C1208 0.960 . S
H1195 C1208 0.961 . S
H1196 C1208 0.959 . S
H1197 C1211 0.929 . S
H1198 C1212 0.931 . S
H1199 C1214 0.930 . S
C1200 H1188 0.930 . S
C1200 C1201 1.399 . S
C1200 C1205 1.399 . S
C1201 C1200 1.399 . S
C1201 C1202 1.376 . S
C1202 H1189 0.930 . S
C1202 C1201 1.376 . S
C1202 C1203 1.388 . S
C1203 H1190 0.930 . S
C1203 C1202 1.388 . S
C1203 C1204 1.390 . S
C1204 C1203 1.390 . S
C1204 C1205 1.394 . S
C1204 C1210 1.465 . S
C1205 C1200 1.399 . S
C1205 C1204 1.394 . S
C1205 C1206 1.516 . S
C1206 C1205 1.516 . S
C1206 C1207 1.502 1_655 S
C1206 C1208 1.561 . S
C1206 C1209 1.526 . S
C1207 H1191 0.959 . S
C1207 H1192 0.959 . S
C1207 H1193 0.961 . S
C1207 C1206 1.502 1_455 S
C1208 H1194 0.960 . S
C1208 H1195 0.961 . S
C1208 H1196 0.959 . S
C1208 C1206 1.561 . S
C1209 C1206 1.526 . S
C1209 C1210 1.396 . S
C1209 C1214 1.390 . S
C1210 C1204 1.465 . S
C1210 C1209 1.396 . S
C1210 C1211 1.399 . S
C1211 H1197 0.929 . S
C1211 C1210 1.399 . S
C1211 C1212 1.385 . S
C1212 H1198 0.931 . S
C1212 C1211 1.385 . S
C1212 C1213 1.389 . S
C1213 C1212 1.389 . S
C1213 C1214 1.387 . S
C1214 H1199 0.930 . S
C1214 C1209 1.390 . S
C1214 C1213 1.387 . S
H1215 C1227 0.930 1_545 S
H1216 C1229 0.930 . S
H1217 C1230 0.930 . S
H1218 C1234 0.959 . S
H1219 C1234 0.959 . S
H1220 C1234 0.961 . S
H1221 C1235 0.960 . S
H1222 C1235 0.961 . S
H1223 C1235 0.954 1_565 S
H1224 C1238 0.929 . S
H1225 C1239 0.931 . S
H1226 C1241 0.930 . S
C1227 H1215 0.930 1_565 S
C1227 C1228 1.399 . S
C1227 C1232 1.399 . S
C1228 C1227 1.399 . S
C1228 C1229 1.376 . S
C1229 H1216 0.930 . S
C1229 C1228 1.376 . S
C1229 C1230 1.388 . S
C1230 H1217 0.930 . S
C1230 C1229 1.388 . S
C1230 C1231 1.390 . S
C1231 C1230 1.390 . S
C1231 C1232 1.394 . S
C1231 C1237 1.465 . S
C1232 C1227 1.399 . S
C1232 C1231 1.394 . S
C1232 C1233 1.516 1_565 S
C1233 C1232 1.516 1_545 S
C1233 C1234 1.502 . S
C1233 C1235 1.561 . S
C1233 C1236 1.526 1_545 S
C1234 H1218 0.959 . S
C1234 H1219 0.959 . S
C1234 H1220 0.961 . S
C1234 C1233 1.502 . S
C1235 H1221 0.960 . S
C1235 H1222 0.961 . S
C1235 H1223 0.954 1_545 S
C1235 C1233 1.561 . S
C1236 C1233 1.526 1_565 S
C1236 C1237 1.396 . S
C1236 C1241 1.390 1_565 S
C1237 C1231 1.465 . S
C1237 C1236 1.396 . S
C1237 C1238 1.399 . S
C1238 H1224 0.929 . S
C1238 C1237 1.399 . S
C1238 C1239 1.385 . S
C1239 H1225 0.931 . S
C1239 C1238 1.385 . S
C1239 C1240 1.389 . S
C1240 C1239 1.389 . S
C1240 C1241 1.387 1_565 S
C1241 H1226 0.930 . S
C1241 C1236 1.390 1_545 S
C1241 C1240 1.387 1_545 S
H1242 C1254 0.930 . S
H1243 C1256 0.930 . S
H1244 C1257 0.930 . S
H1245 C1261 0.959 . S
H1246 C1261 0.959 . S
H1247 C1261 0.961 . S
H1248 C1262 0.960 . S
H1249 C1262 0.961 . S
H1250 C1262 0.959 . S
H1251 C1265 0.929 . S
H1252 C1266 0.931 . S
H1253 C1268 0.930 . S
C1254 H1242 0.930 . S
C1254 C1255 1.399 . S
C1254 C1259 1.399 . S
C1255 C1254 1.399 . S
C1255 C1256 1.376 . S
C1256 H1243 0.930 . S
C1256 C1255 1.376 . S
C1256 C1257 1.388 . S
C1257 H1244 0.930 . S
C1257 C1256 1.388 . S
C1257 C1258 1.390 . S
C1258 C1257 1.390 . S
C1258 C1259 1.394 . S
C1258 C1264 1.465 . S
C1259 C1254 1.399 . S
C1259 C1258 1.394 . S
C1259 C1260 1.516 . S
C1260 C1259 1.516 . S
C1260 C1261 1.502 . S
C1260 C1262 1.561 . S
C1260 C1263 1.526 . S
C1261 H1245 0.959 . S
C1261 H1246 0.959 . S
C1261 H1247 0.961 . S
C1261 C1260 1.502 . S
C1262 H1248 0.960 . S
C1262 H1249 0.961 . S
C1262 H1250 0.959 . S
C1262 C1260 1.561 . S
C1263 C1260 1.526 . S
C1263 C1264 1.396 . S
C1263 C1268 1.390 . S
C1264 C1258 1.465 . S
C1264 C1263 1.396 . S
C1264 C1265 1.399 . S
C1265 H1251 0.929 . S
C1265 C1264 1.399 . S
C1265 C1266 1.385 . S
C1266 H1252 0.931 . S
C1266 C1265 1.385 . S
C1266 C1267 1.389 . S
C1267 C1266 1.389 . S
C1267 C1268 1.387 . S
C1268 H1253 0.930 . S
C1268 C1263 1.390 . S
C1268 C1267 1.387 . S
H1269 C1281 0.930 . S
H1270 C1283 0.930 . S
H1271 C1284 0.930 . S
H1272 C1288 0.959 . S
H1273 C1288 0.959 . S
H1274 C1288 0.961 . S
H1275 C1289 0.960 . S
H1276 C1289 0.961 . S
H1277 C1289 0.959 . S
H1278 C1292 0.929 . S
H1279 C1293 0.931 . S
H1280 C1295 0.930 . S
C1281 H1269 0.930 . S
C1281 C1282 1.399 . S
C1281 C1286 1.399 . S
C1282 C1281 1.399 . S
C1282 C1283 1.376 . S
C1283 H1270 0.930 . S
C1283 C1282 1.376 . S
C1283 C1284 1.388 . S
C1284 H1271 0.930 . S
C1284 C1283 1.388 . S
C1284 C1285 1.390 . S
C1285 C1284 1.390 . S
C1285 C1286 1.394 . S
C1285 C1291 1.465 . S
C1286 C1281 1.399 . S
C1286 C1285 1.394 . S
C1286 C1287 1.516 . S
C1287 C1286 1.516 . S
C1287 C1288 1.502 . S
C1287 C1289 1.561 . S
C1287 C1290 1.526 . S
C1288 H1272 0.959 . S
C1288 H1273 0.959 . S
C1288 H1274 0.961 . S
C1288 C1287 1.502 . S
C1289 H1275 0.960 . S
C1289 H1276 0.961 . S
C1289 H1277 0.959 . S
C1289 C1287 1.561 . S
C1290 C1287 1.526 . S
C1290 C1291 1.396 . S
C1290 C1295 1.390 . S
C1291 C1285 1.465 . S
C1291 C1290 1.396 . S
C1291 C1292 1.399 . S
C1292 H1278 0.929 . S
C1292 C1291 1.399 . S
C1292 C1293 1.385 . S
C1293 H1279 0.931 . S
C1293 C1292 1.385 . S
C1293 C1294 1.389 . S
C1294 C1293 1.389 . S
C1294 C1295 1.387 . S
C1295 H1280 0.930 . S
C1295 C1290 1.390 . S
C1295 C1294 1.387 . S
C661 C255 2.304 . S
C673 C375 2.421 . S
C700 C452 2.478 . S
C688 C294 2.250 . S
C727 C543 2.455 . S
C715 C177 2.256 . S
C754 C627 2.408 . S
C742 C216 2.301 . S
C781 C386 2.446 1_565 S
C769 C99 2.311 . S
C796 C138 2.260 . S
C808 C463 2.465 . S
C823 C21 2.313 . S
C835 C554 2.440 . S
C850 C60 2.242 . S
C862 C638 2.443 1_655 S
C889 C370 0.489 . S
C877 C196 0.382 . S
C916 C465 0.659 . S
C904 C235 0.532 . S
C943 C538 0.509 . S
C931 C289 0.393 . S
C958 C157 0.577 . S
C970 C622 0.534 . S
C985 C40 0.492 . S
C997 C381 0.577 . S
C1024 C454 0.579 . S
C1012 C79 0.561 . S
C1051 C549 0.404 . S
C1039 C133 0.459 . S
C1066 C1 0.468 . S
C1078 C633 0.408 . S
C1093 C211 2.633 . S
C1105 C379 2.896 . S
C1120 C250 2.557 . S
C1132 C470 2.951 . S
C1159 C547 2.920 . S
C1147 C274 2.662 . S
C1186 C631 2.945 . S
C1174 C172 2.587 . S
C1201 C55 2.633 . S
C1213 C368 2.896 . S
C1240 C459 2.960 . S
C1228 C94 2.591 . S
C1267 C536 2.922 . S
C1255 C118 2.656 . S
C1282 C16 2.590 . S
C1294 C620 2.945 . S
