# Generated by pormake.
# Topology ctn, (3,4)-cn, num edge types: 1
# Building blocks:
#     Node 0, Type 0, BuildingBlock: BELTOD_clean_linker_0, # of connection points: 3
#     Node 1, Type 0, BuildingBlock: BELTOD_clean_linker_0, # of connection points: 3
#     Node 2, Type 0, BuildingBlock: BELTOD_clean_linker_0, # of connection points: 3
#     Node 3, Type 0, BuildingBlock: BELTOD_clean_linker_0, # of connection points: 3
#     Node 4, Type 0, BuildingBlock: BELTOD_clean_linker_0, # of connection points: 3
#     Node 5, Type 0, BuildingBlock: BELTOD_clean_linker_0, # of connection points: 3
#     Node 6, Type 0, BuildingBlock: BELTOD_clean_linker_0, # of connection points: 3
#     Node 7, Type 0, BuildingBlock: BELTOD_clean_linker_0, # of connection points: 3
#     Node 8, Type 0, BuildingBlock: BELTOD_clean_linker_0, # of connection points: 3
#     Node 9, Type 0, BuildingBlock: BELTOD_clean_linker_0, # of connection points: 3
#     Node 10, Type 0, BuildingBlock: BELTOD_clean_linker_0, # of connection points: 3
#     Node 11, Type 0, BuildingBlock: BELTOD_clean_linker_0, # of connection points: 3
#     Node 12, Type 0, BuildingBlock: BELTOD_clean_linker_0, # of connection points: 3
#     Node 13, Type 0, BuildingBlock: BELTOD_clean_linker_0, # of connection points: 3
#     Node 14, Type 0, BuildingBlock: BELTOD_clean_linker_0, # of connection points: 3
#     Node 15, Type 0, BuildingBlock: BELTOD_clean_linker_0, # of connection points: 3
#     Node 16, Type 1, BuildingBlock: AZAVOO_clean_sbu_0, # of connection points: 4
#     Node 17, Type 1, BuildingBlock: AZAVOO_clean_sbu_0, # of connection points: 4
#     Node 18, Type 1, BuildingBlock: AZAVOO_clean_sbu_0, # of connection points: 4
#     Node 19, Type 1, BuildingBlock: AZAVOO_clean_sbu_0, # of connection points: 4
#     Node 20, Type 1, BuildingBlock: AZAVOO_clean_sbu_0, # of connection points: 4
#     Node 21, Type 1, BuildingBlock: AZAVOO_clean_sbu_0, # of connection points: 4
#     Node 22, Type 1, BuildingBlock: AZAVOO_clean_sbu_0, # of connection points: 4
#     Node 23, Type 1, BuildingBlock: AZAVOO_clean_sbu_0, # of connection points: 4
#     Node 24, Type 1, BuildingBlock: AZAVOO_clean_sbu_0, # of connection points: 4
#     Node 25, Type 1, BuildingBlock: AZAVOO_clean_sbu_0, # of connection points: 4
#     Node 26, Type 1, BuildingBlock: AZAVOO_clean_sbu_0, # of connection points: 4
#     Node 27, Type 1, BuildingBlock: AZAVOO_clean_sbu_0, # of connection points: 4
#     Edge 28, Type (0, 1), BuildingBlock: MIFKUJ_clean_linker_0, # of connection points: 2
#     Edge 29, Type (0, 1), BuildingBlock: MIFKUJ_clean_linker_0, # of connection points: 2
#     Edge 30, Type (0, 1), BuildingBlock: MIFKUJ_clean_linker_0, # of connection points: 2
#     Edge 31, Type (0, 1), BuildingBlock: MIFKUJ_clean_linker_0, # of connection points: 2
#     Edge 32, Type (0, 1), BuildingBlock: MIFKUJ_clean_linker_0, # of connection points: 2
#     Edge 33, Type (0, 1), BuildingBlock: MIFKUJ_clean_linker_0, # of connection points: 2
#     Edge 34, Type (0, 1), BuildingBlock: MIFKUJ_clean_linker_0, # of connection points: 2
#     Edge 35, Type (0, 1), BuildingBlock: MIFKUJ_clean_linker_0, # of connection points: 2
#     Edge 36, Type (0, 1), BuildingBlock: MIFKUJ_clean_linker_0, # of connection points: 2
#     Edge 37, Type (0, 1), BuildingBlock: MIFKUJ_clean_linker_0, # of connection points: 2
#     Edge 38, Type (0, 1), BuildingBlock: MIFKUJ_clean_linker_0, # of connection points: 2
#     Edge 39, Type (0, 1), BuildingBlock: MIFKUJ_clean_linker_0, # of connection points: 2
#     Edge 40, Type (0, 1), BuildingBlock: MIFKUJ_clean_linker_0, # of connection points: 2
#     Edge 41, Type (0, 1), BuildingBlock: MIFKUJ_clean_linker_0, # of connection points: 2
#     Edge 42, Type (0, 1), BuildingBlock: MIFKUJ_clean_linker_0, # of connection points: 2
#     Edge 43, Type (0, 1), BuildingBlock: MIFKUJ_clean_linker_0, # of connection points: 2
#     Edge 44, Type (0, 1), BuildingBlock: MIFKUJ_clean_linker_0, # of connection points: 2
#     Edge 45, Type (0, 1), BuildingBlock: MIFKUJ_clean_linker_0, # of connection points: 2
#     Edge 46, Type (0, 1), BuildingBlock: MIFKUJ_clean_linker_0, # of connection points: 2
#     Edge 47, Type (0, 1), BuildingBlock: MIFKUJ_clean_linker_0, # of connection points: 2
#     Edge 48, Type (0, 1), BuildingBlock: MIFKUJ_clean_linker_0, # of connection points: 2
#     Edge 49, Type (0, 1), BuildingBlock: MIFKUJ_clean_linker_0, # of connection points: 2
#     Edge 50, Type (0, 1), BuildingBlock: MIFKUJ_clean_linker_0, # of connection points: 2
#     Edge 51, Type (0, 1), BuildingBlock: MIFKUJ_clean_linker_0, # of connection points: 2
#     Edge 52, Type (0, 1), BuildingBlock: MIFKUJ_clean_linker_0, # of connection points: 2
#     Edge 53, Type (0, 1), BuildingBlock: MIFKUJ_clean_linker_0, # of connection points: 2
#     Edge 54, Type (0, 1), BuildingBlock: MIFKUJ_clean_linker_0, # of connection points: 2
#     Edge 55, Type (0, 1), BuildingBlock: MIFKUJ_clean_linker_0, # of connection points: 2
#     Edge 56, Type (0, 1), BuildingBlock: MIFKUJ_clean_linker_0, # of connection points: 2
#     Edge 57, Type (0, 1), BuildingBlock: MIFKUJ_clean_linker_0, # of connection points: 2
#     Edge 58, Type (0, 1), BuildingBlock: MIFKUJ_clean_linker_0, # of connection points: 2
#     Edge 59, Type (0, 1), BuildingBlock: MIFKUJ_clean_linker_0, # of connection points: 2
#     Edge 60, Type (0, 1), BuildingBlock: MIFKUJ_clean_linker_0, # of connection points: 2
#     Edge 61, Type (0, 1), BuildingBlock: MIFKUJ_clean_linker_0, # of connection points: 2
#     Edge 62, Type (0, 1), BuildingBlock: MIFKUJ_clean_linker_0, # of connection points: 2
#     Edge 63, Type (0, 1), BuildingBlock: MIFKUJ_clean_linker_0, # of connection points: 2
#     Edge 64, Type (0, 1), BuildingBlock: MIFKUJ_clean_linker_0, # of connection points: 2
#     Edge 65, Type (0, 1), BuildingBlock: MIFKUJ_clean_linker_0, # of connection points: 2
#     Edge 66, Type (0, 1), BuildingBlock: MIFKUJ_clean_linker_0, # of connection points: 2
#     Edge 67, Type (0, 1), BuildingBlock: MIFKUJ_clean_linker_0, # of connection points: 2
#     Edge 68, Type (0, 1), BuildingBlock: MIFKUJ_clean_linker_0, # of connection points: 2
#     Edge 69, Type (0, 1), BuildingBlock: MIFKUJ_clean_linker_0, # of connection points: 2
#     Edge 70, Type (0, 1), BuildingBlock: MIFKUJ_clean_linker_0, # of connection points: 2
#     Edge 71, Type (0, 1), BuildingBlock: MIFKUJ_clean_linker_0, # of connection points: 2
#     Edge 72, Type (0, 1), BuildingBlock: MIFKUJ_clean_linker_0, # of connection points: 2
#     Edge 73, Type (0, 1), BuildingBlock: MIFKUJ_clean_linker_0, # of connection points: 2
#     Edge 74, Type (0, 1), BuildingBlock: MIFKUJ_clean_linker_0, # of connection points: 2
#     Edge 75, Type (0, 1), BuildingBlock: MIFKUJ_clean_linker_0, # of connection points: 2
# Relax obj value: 0.002
# Max RMSD: 0.044
# Mean RMSD: 0.026
data_MOF--net-ctn--node1-AZAVOO_clean_sbu_0--node2-BELTOD_clean_linker_0--edge1-MIFKUJ_clean_linker_0
_symmetry_space_group_name_H-M    P1
_symmetry_Int_Tables_number       1
_symmetry_cell_setting            triclinic
loop_
_symmetry_equiv_pos_as_xyz
'x, y, z'
_cell_length_a     77.884864
_cell_length_b     79.475134
_cell_length_c     78.802332
_cell_angle_alpha  89.440778
_cell_angle_beta   92.635502
_cell_angle_gamma 93.511596
loop_
_atom_site_label
_atom_site_type_symbol
_atom_site_fract_x
_atom_site_fract_y
_atom_site_fract_z
_atom_type_partial_charge
P0 P 0.06598 0.04465 0.05116 0.0
H1 H 0.06371 0.04148 0.0879 0.0
H2 H 0.04012 0.03288 0.10599 0.0
H3 H 0.00746 0.02064 0.06145 0.0
H4 H 0.03125 0.02945 0.04334 0.0
H5 H 0.09904 0.03134 0.06118 0.0
H6 H 0.11512 0.00887 0.05002 0.0
H7 H 0.07397 0.99775 0.01236 0.0
H8 H 0.05774 0.02018 0.02393 0.0
H9 H 0.03663 0.06596 0.04849 0.0
H10 H 0.07789 0.05314 0.01724 0.0
O11 O 0.07973 0.05709 0.06296 0.0
H12 H 0.02732 0.0862 0.02705 0.0
H13 H 0.06856 0.07334 0.99564 0.0
C14 C 0.04908 0.03644 0.0643 0.0
C15 C 0.05153 0.03683 0.08201 0.0
C16 C 0.03804 0.03178 0.09235 0.0
C17 C 0.02187 0.02617 0.08515 0.0
C18 C 0.01969 0.02513 0.06736 0.0
C19 C 0.03327 0.03009 0.05701 0.0
C20 C 0.07735 0.02759 0.04317 0.0
C21 C 0.09347 0.0241 0.05051 0.0
C22 C 0.10271 0.01129 0.04404 0.0
C23 C 0.09596 0.00166 0.03013 0.0
C24 C 0.07952 0.0049 0.02311 0.0
C25 C 0.07027 0.01775 0.02964 0.0
C26 C 0.05763 0.05763 0.03424 0.0
C27 C 0.04339 0.06712 0.03679 0.0
C28 C 0.03806 0.07871 0.02451 0.0
C29 C 0.04713 0.08128 0.00959 0.0
C30 C 0.06132 0.07164 0.00701 0.0
C31 C 0.06658 0.05998 0.01928 0.0
P32 P 0.3365 0.69608 0.20142 0.0
H33 H 0.35356 0.71643 0.17555 0.0
H34 H 0.34464 0.74013 0.15795 0.0
H35 H 0.29712 0.74004 0.18419 0.0
H36 H 0.30625 0.71642 0.2019 0.0
H37 H 0.36759 0.68266 0.21684 0.0
H38 H 0.38636 0.69123 0.2413 0.0
H39 H 0.35313 0.73114 0.25155 0.0
H40 H 0.33435 0.72251 0.2269 0.0
H41 H 0.31427 0.67275 0.1812 0.0
H42 H 0.3168 0.69146 0.23249 0.0
O43 O 0.34808 0.68485 0.18886 0.0
H44 H 0.28863 0.65489 0.18735 0.0
H45 H 0.29122 0.67346 0.23882 0.0
C46 C 0.33037 0.71443 0.18969 0.0
C47 C 0.34126 0.72156 0.17755 0.0
C48 C 0.33613 0.73508 0.1675 0.0
C49 C 0.32008 0.7418 0.16954 0.0
C50 C 0.30957 0.73516 0.18235 0.0
C51 C 0.31471 0.72158 0.19237 0.0
C52 C 0.34974 0.70212 0.21992 0.0
C53 C 0.36434 0.69328 0.22429 0.0
C54 C 0.37509 0.69822 0.23825 0.0
C55 C 0.37129 0.71196 0.24822 0.0
C56 C 0.35635 0.72049 0.2441 0.0
C57 C 0.34568 0.71563 0.22999 0.0
C58 C 0.31765 0.68312 0.20648 0.0
C59 C 0.30937 0.67291 0.19383 0.0
C60 C 0.29474 0.6627 0.19738 0.0
C61 C 0.28801 0.66263 0.21363 0.0
C62 C 0.29607 0.67328 0.22617 0.0
C63 C 0.31078 0.68347 0.2226 0.0
P64 P 0.9983 0.5039 0.02783 0.0
H65 H 0.00143 0.49579 0.9921 0.0
H66 H 0.00071 0.46914 0.97678 0.0
H67 H 0.99265 0.44195 0.0238 0.0
H68 H 0.99306 0.46867 0.03895 0.0
H69 H 0.98683 0.5345 0.04213 0.0
H70 H 0.95871 0.54638 0.04303 0.0
H71 H 0.9351 0.50205 0.01801 0.0
H72 H 0.96335 0.49043 0.01684 0.0
H73 H 0.03423 0.50775 0.03981 0.0
H74 H 0.98523 0.49472 0.0613 0.0
O75 O 0.00993 0.51824 0.01692 0.0
H76 H 0.04865 0.50499 0.06774 0.0
H77 H 0.99962 0.49145 0.08934 0.0
C78 C 0.99767 0.48418 0.01671 0.0
C79 C 0.99958 0.48408 0.99912 0.0
C80 C 0.99922 0.46883 0.99038 0.0
C81 C 0.99677 0.4534 0.99908 0.0
C82 C 0.99446 0.4536 0.01669 0.0
C83 C 0.99484 0.46887 0.02541 0.0
C84 C 0.97719 0.51162 0.02943 0.0
C85 C 0.97557 0.5273 0.03694 0.0
C86 C 0.95946 0.53403 0.03752 0.0
C87 C 0.94462 0.52517 0.03059 0.0
C88 C 0.94629 0.50929 0.02327 0.0
C89 C 0.96245 0.50258 0.0227 0.0
C90 C 0.00865 0.50176 0.04857 0.0
C91 C 0.02657 0.50429 0.05058 0.0
C92 C 0.03482 0.50254 0.06656 0.0
C93 C 0.02531 0.49799 0.08084 0.0
C94 C 0.00731 0.49523 0.07869 0.0
C95 C 0.99907 0.49704 0.06267 0.0
P96 P 0.69222 0.83717 0.19247 0.0
H97 H 0.72685 0.84302 0.17983 0.0
H98 H 0.75131 0.86215 0.18863 0.0
H99 H 0.72263 0.87934 0.23012 0.0
H100 H 0.69811 0.86045 0.22101 0.0
H101 H 0.67947 0.82056 0.16109 0.0
H102 H 0.68745 0.79534 0.14671 0.0
H103 H 0.72539 0.78676 0.18714 0.0
H104 H 0.71751 0.81232 0.2013 0.0
H105 H 0.65503 0.83717 0.19624 0.0
H106 H 0.6996 0.82268 0.22606 0.0
O107 O 0.68123 0.84889 0.1786 0.0
H108 H 0.63655 0.82827 0.21928 0.0
H109 H 0.68123 0.81401 0.24937 0.0
C110 C 0.71084 0.84994 0.20006 0.0
C111 C 0.72594 0.85068 0.191 0.0
C112 C 0.73993 0.86163 0.19606 0.0
C113 C 0.73898 0.87222 0.21015 0.0
C114 C 0.72377 0.87144 0.21916 0.0
C115 C 0.70979 0.86049 0.21408 0.0
C116 C 0.69814 0.81847 0.18207 0.0
C117 C 0.68955 0.8133 0.16683 0.0
C118 C 0.69401 0.79876 0.15871 0.0
C119 C 0.70707 0.78901 0.16577 0.0
C120 C 0.71543 0.79409 0.18126 0.0
C121 C 0.71093 0.80866 0.18938 0.0
C122 C 0.67869 0.83081 0.20958 0.0
C123 C 0.66086 0.83221 0.20782 0.0
C124 C 0.65031 0.82717 0.22104 0.0
C125 C 0.65741 0.82053 0.23623 0.0
C126 C 0.67532 0.81894 0.23781 0.0
C127 C 0.68585 0.82398 0.22455 0.0
P128 P 0.06697 0.96027 0.46208 0.0
H129 H 0.10451 0.96352 0.46425 0.0
H130 H 0.12513 0.98525 0.47555 0.0
H131 H 0.08332 0.01262 0.49354 0.0
H132 H 0.06263 0.99089 0.48167 0.0
H133 H 0.04048 0.93345 0.45765 0.0
H134 H 0.02948 0.91104 0.47639 0.0
H135 H 0.06185 0.93192 0.51792 0.0
H136 H 0.07285 0.95443 0.49903 0.0
H137 H 0.06394 0.96989 0.42639 0.0
H138 H 0.03384 0.9731 0.47066 0.0
O139 O 0.07758 0.94884 0.44884 0.0
H140 H 0.0409 0.98139 0.40886 0.0
H141 H 0.01077 0.9853 0.45326 0.0
C142 C 0.08203 0.97575 0.47185 0.0
C143 C 0.09974 0.97416 0.47065 0.0
C144 C 0.11157 0.98656 0.47729 0.0
C145 C 0.10592 0.00075 0.48543 0.0
C146 C 0.08811 0.002 0.48711 0.0
C147 C 0.07627 0.98957 0.48039 0.0
C148 C 0.05738 0.94563 0.47696 0.0
C149 C 0.04502 0.93337 0.47085 0.0
C150 C 0.03883 0.92052 0.48154 0.0
C151 C 0.04493 0.91967 0.49857 0.0
C152 C 0.05687 0.93234 0.50487 0.0
C153 C 0.06317 0.94519 0.49408 0.0
C154 C 0.05046 0.97037 0.44974 0.0
C155 C 0.05241 0.97326 0.43237 0.0
C156 C 0.03923 0.98003 0.42238 0.0
C157 C 0.02389 0.98429 0.4296 0.0
C158 C 0.02227 0.98193 0.44721 0.0
C159 C 0.03548 0.97505 0.4572 0.0
P160 P 0.22223 0.73146 0.75349 0.0
H161 H 0.24902 0.74746 0.77571 0.0
H162 H 0.24886 0.76047 0.80366 0.0
H163 H 0.19398 0.74894 0.8048 0.0
H164 H 0.19423 0.73603 0.77674 0.0
H165 H 0.22761 0.7068 0.72769 0.0
H166 H 0.24159 0.68006 0.72848 0.0
H167 H 0.24871 0.68382 0.78305 0.0
H168 H 0.23442 0.71034 0.78219 0.0
H169 H 0.20701 0.75524 0.72973 0.0
H170 H 0.19176 0.70774 0.75317 0.0
O171 O 0.23622 0.74317 0.74226 0.0
H172 H 0.1792 0.75523 0.71411 0.0
H173 H 0.16375 0.70764 0.73751 0.0
C174 C 0.22162 0.74101 0.77406 0.0
C175 C 0.23694 0.74781 0.78194 0.0
C176 C 0.23685 0.75513 0.79796 0.0
C177 C 0.2214 0.75576 0.80642 0.0
C178 C 0.20604 0.74885 0.7985 0.0
C179 C 0.20618 0.74141 0.78248 0.0
C180 C 0.23001 0.71059 0.75484 0.0
C181 C 0.23192 0.70171 0.73985 0.0
C182 C 0.24002 0.68649 0.74031 0.0
C183 C 0.24643 0.67989 0.75581 0.0
C184 C 0.24382 0.68849 0.77092 0.0
C185 C 0.23571 0.70374 0.77042 0.0
C186 C 0.20155 0.73131 0.74231 0.0
C187 C 0.19769 0.74475 0.73144 0.0
C188 C 0.1818 0.74472 0.7225 0.0
C189 C 0.16936 0.73135 0.72446 0.0
C190 C 0.17307 0.71812 0.73578 0.0
C191 C 0.18909 0.7181 0.74463 0.0
P192 P 0.98368 0.49101 0.48504 0.0
H193 H 0.01664 0.50624 0.47556 0.0
H194 H 0.03115 0.50841 0.44876 0.0
H195 H 0.98634 0.48389 0.42301 0.0
H196 H 0.9721 0.48138 0.45 0.0
H197 H 0.98588 0.50035 0.52075 0.0
H198 H 0.98499 0.52726 0.53529 0.0
H199 H 0.97751 0.55234 0.48681 0.0
H200 H 0.97885 0.52536 0.47237 0.0
H201 H 0.97098 0.45617 0.49053 0.0
H202 H 0.94972 0.50312 0.47532 0.0
O203 O 0.99637 0.47903 0.49701 0.0
H204 H 0.94223 0.44215 0.48911 0.0
H205 H 0.92081 0.48907 0.47347 0.0
C206 C 0.9933 0.49374 0.46477 0.0
C207 C 0.0099 0.50146 0.46411 0.0
C208 C 0.01814 0.50276 0.44874 0.0
C209 C 0.00991 0.49635 0.43367 0.0
C210 C 0.99313 0.48879 0.43438 0.0
C211 C 0.98491 0.48747 0.44981 0.0
C212 C 0.98281 0.51095 0.4955 0.0
C213 C 0.98415 0.51167 0.51326 0.0
C214 C 0.98348 0.52705 0.52156 0.0
C215 C 0.98125 0.542 0.51222 0.0
C216 C 0.97956 0.54113 0.49438 0.0
C217 C 0.98027 0.52571 0.4861 0.0
C218 C 0.96243 0.48074 0.48333 0.0
C219 C 0.9601 0.46346 0.48684 0.0
C220 C 0.94364 0.45543 0.48587 0.0
C221 C 0.92917 0.46449 0.48121 0.0
C222 C 0.93163 0.48178 0.47736 0.0
C223 C 0.94814 0.48982 0.47836 0.0
P224 P 0.8229 0.80677 0.81111 0.0
H225 H 0.8524 0.82405 0.79563 0.0
H226 H 0.86831 0.81827 0.77055 0.0
H227 H 0.83325 0.7751 0.75944 0.0
H228 H 0.81719 0.78121 0.78443 0.0
H229 H 0.81382 0.83898 0.82473 0.0
H230 H 0.78929 0.85619 0.81938 0.0
H231 H 0.76812 0.82048 0.78182 0.0
H232 H 0.79273 0.80309 0.78749 0.0
H233 H 0.83849 0.7745 0.81636 0.0
H234 H 0.79184 0.79692 0.82939 0.0
O235 O 0.83689 0.81681 0.82478 0.0
H236 H 0.83007 0.7492 0.83269 0.0
H237 H 0.78354 0.77196 0.84594 0.0
C238 C 0.83387 0.80283 0.79207 0.0
C239 C 0.84813 0.81335 0.78779 0.0
C240 C 0.85726 0.80998 0.77348 0.0
C241 C 0.8522 0.79609 0.7631 0.0
C242 C 0.83747 0.78593 0.76712 0.0
C243 C 0.82834 0.78933 0.78146 0.0
C244 C 0.8052 0.81987 0.80634 0.0
C245 C 0.804 0.83489 0.81524 0.0
C246 C 0.78996 0.84476 0.81213 0.0
C247 C 0.77678 0.83977 0.8001 0.0
C248 C 0.77799 0.82462 0.79125 0.0
C249 C 0.79211 0.81475 0.79435 0.0
C250 C 0.8156 0.78743 0.82129 0.0
C251 C 0.82629 0.77385 0.82247 0.0
C252 C 0.82153 0.75947 0.83192 0.0
C253 C 0.80607 0.7585 0.84053 0.0
C254 C 0.79533 0.7721 0.83915 0.0
C255 C 0.8001 0.78645 0.8297 0.0
P256 P 0.32555 0.30701 0.3091 0.0
H257 H 0.3331 0.32654 0.27861 0.0
H258 H 0.3491 0.32064 0.25359 0.0
H259 H 0.35458 0.26964 0.27168 0.0
H260 H 0.33901 0.27578 0.29683 0.0
H261 H 0.3128 0.33459 0.32796 0.0
H262 H 0.28797 0.3517 0.3235 0.0
H263 H 0.27208 0.32303 0.27858 0.0
H264 H 0.29707 0.30586 0.28317 0.0
H265 H 0.34126 0.29273 0.33994 0.0
H266 H 0.29759 0.28067 0.30566 0.0
O267 O 0.34068 0.31888 0.31987 0.0
H268 H 0.33309 0.26859 0.35773 0.0
H269 H 0.28944 0.25616 0.32329 0.0
C270 C 0.33462 0.30155 0.28944 0.0
C271 C 0.33748 0.314 0.27701 0.0
C272 C 0.34661 0.31059 0.26269 0.0
C273 C 0.35319 0.29467 0.26063 0.0
C274 C 0.3499 0.2821 0.27297 0.0
C275 C 0.34081 0.28555 0.28729 0.0
C276 C 0.30698 0.31924 0.30567 0.0
C277 C 0.30404 0.33202 0.3171 0.0
C278 C 0.28984 0.3418 0.31454 0.0
C279 C 0.27817 0.33882 0.3006 0.0
C280 C 0.28083 0.32558 0.28946 0.0
C281 C 0.29515 0.31586 0.29199 0.0
C282 C 0.31984 0.28866 0.32166 0.0
C283 C 0.32994 0.28482 0.33618 0.0
C284 C 0.32535 0.27087 0.34627 0.0
C285 C 0.31059 0.26042 0.34196 0.0
C286 C 0.30075 0.26407 0.32709 0.0
C287 C 0.30539 0.27806 0.31699 0.0
P288 P 0.50097 0.00171 0.52622 0.0
H289 H 0.47768 0.98632 0.49959 0.0
H290 H 0.47737 0.95942 0.48465 0.0
H291 H 0.52184 0.94583 0.51534 0.0
H292 H 0.52199 0.97259 0.53034 0.0
H293 H 0.49088 0.03629 0.52401 0.0
H294 H 0.4633 0.04905 0.52554 0.0
H295 H 0.43817 0.99982 0.53365 0.0
H296 H 0.46597 0.98709 0.53204 0.0
H297 H 0.53553 0.01224 0.53963 0.0
H298 H 0.48904 0.9883 0.55872 0.0
O299 O 0.51321 0.01436 0.51405 0.0
H300 H 0.54982 0.01005 0.56768 0.0
H301 H 0.50339 0.98583 0.58692 0.0
C302 C 0.49949 0.98124 0.51648 0.0
C303 C 0.48711 0.97739 0.50339 0.0
C304 C 0.48698 0.96205 0.4948 0.0
C305 C 0.49956 0.95052 0.49886 0.0
C306 C 0.51203 0.9545 0.51189 0.0
C307 C 0.51201 0.96973 0.52059 0.0
C308 C 0.4804 0.01072 0.52749 0.0
C309 C 0.47944 0.02822 0.52603 0.0
C310 C 0.46367 0.03551 0.52704 0.0
C311 C 0.44853 0.02544 0.52965 0.0
C312 C 0.44957 0.00788 0.53138 0.0
C313 C 0.46543 0.0006 0.53048 0.0
C314 C 0.51115 0.00065 0.54716 0.0
C315 C 0.52835 0.00659 0.54989 0.0
C316 C 0.53657 0.00519 0.56593 0.0
C317 C 0.52777 0.99773 0.57955 0.0
C318 C 0.51047 0.99182 0.57675 0.0
C319 C 0.50226 0.99319 0.56065 0.0
P320 P 0.19672 0.32984 0.69905 0.0
H321 H 0.20689 0.3648 0.69024 0.0
H322 H 0.23162 0.38356 0.6989 0.0
H323 H 0.25183 0.34385 0.73038 0.0
H324 H 0.22673 0.32519 0.72184 0.0
H325 H 0.17976 0.29615 0.69415 0.0
H326 H 0.18744 0.2715 0.67836 0.0
H327 H 0.23485 0.29818 0.66482 0.0
H328 H 0.22733 0.32263 0.68086 0.0
H329 H 0.172 0.34943 0.7153 0.0
H330 H 0.19503 0.30195 0.72409 0.0
O331 O 0.18449 0.33964 0.6846 0.0
H332 H 0.1547 0.34443 0.74023 0.0
H333 H 0.17728 0.29663 0.74874 0.0
C334 C 0.21508 0.34358 0.70533 0.0
C335 C 0.21664 0.3601 0.69898 0.0
C336 C 0.23085 0.37081 0.70388 0.0
C337 C 0.24377 0.36519 0.71526 0.0
C338 C 0.24204 0.34862 0.72172 0.0
C339 C 0.22779 0.33792 0.71679 0.0
C340 C 0.20325 0.31102 0.68922 0.0
C341 C 0.19204 0.29652 0.68822 0.0
C342 C 0.1964 0.28247 0.67915 0.0
C343 C 0.21178 0.28293 0.67048 0.0
C344 C 0.22293 0.2975 0.67143 0.0
C345 C 0.21869 0.31143 0.6807 0.0
C346 C 0.18431 0.32579 0.7175 0.0
C347 C 0.17321 0.33786 0.7225 0.0
C348 C 0.16343 0.33505 0.73678 0.0
C349 C 0.16455 0.32006 0.74624 0.0
C350 C 0.17601 0.30816 0.74147 0.0
C351 C 0.18606 0.31115 0.72735 0.0
P352 P 0.83534 0.19573 0.70132 0.0
H353 H 0.84884 0.20863 0.66948 0.0
H354 H 0.84102 0.2317 0.65062 0.0
H355 H 0.80284 0.2452 0.68538 0.0
H356 H 0.81117 0.2223 0.70447 0.0
H357 H 0.87228 0.19465 0.70899 0.0
H358 H 0.89086 0.2042 0.73316 0.0
H359 H 0.84701 0.22329 0.75674 0.0
H360 H 0.82837 0.21323 0.73257 0.0
H361 H 0.79981 0.1921 0.68697 0.0
H362 H 0.8292 0.17277 0.72981 0.0
O363 O 0.84595 0.18243 0.69003 0.0
H364 H 0.77479 0.17403 0.69461 0.0
H365 H 0.80423 0.15447 0.73735 0.0
C366 C 0.83026 0.21352 0.68814 0.0
C367 C 0.83883 0.21658 0.67308 0.0
C368 C 0.83429 0.22975 0.66227 0.0
C369 C 0.82109 0.24013 0.66633 0.0
C370 C 0.81308 0.23749 0.68187 0.0
C371 C 0.81773 0.22433 0.69274 0.0
C372 C 0.84893 0.20303 0.71913 0.0
C373 C 0.86664 0.20083 0.71938 0.0
C374 C 0.87729 0.20645 0.73316 0.0
C375 C 0.87044 0.21453 0.74691 0.0
C376 C 0.85266 0.21692 0.74648 0.0
C377 C 0.842 0.21125 0.73265 0.0
C378 C 0.81623 0.18418 0.70814 0.0
C379 C 0.80077 0.18432 0.69828 0.0
C380 C 0.78647 0.17394 0.70261 0.0
C381 C 0.78756 0.16291 0.71661 0.0
C382 C 0.80305 0.16284 0.72649 0.0
C383 C 0.81727 0.17338 0.72226 0.0
P384 P 0.55784 0.54043 0.55307 0.0
H385 H 0.55704 0.51327 0.57803 0.0
H386 H 0.53412 0.50045 0.59489 0.0
H387 H 0.49726 0.53006 0.56711 0.0
H388 H 0.5199 0.54173 0.54963 0.0
H389 H 0.59413 0.54557 0.54647 0.0
H390 H 0.61512 0.52734 0.53552 0.0
H391 H 0.57537 0.48717 0.52932 0.0
H392 H 0.55433 0.50574 0.53986 0.0
H393 H 0.53846 0.57019 0.55603 0.0
H394 H 0.56134 0.54394 0.51598 0.0
O395 O 0.56842 0.55141 0.56863 0.0
H396 H 0.52899 0.59133 0.53571 0.0
H397 H 0.55311 0.5657 0.49574 0.0
C398 C 0.54029 0.52862 0.5627 0.0
C399 C 0.54392 0.51663 0.5753 0.0
C400 C 0.5308 0.50946 0.58506 0.0
C401 C 0.5138 0.51443 0.58265 0.0
C402 C 0.5101 0.52577 0.56933 0.0
C403 C 0.52319 0.53269 0.55939 0.0
C404 C 0.57282 0.52684 0.54437 0.0
C405 C 0.58995 0.53283 0.54276 0.0
C406 C 0.60194 0.52237 0.53655 0.0
C407 C 0.597 0.5057 0.53177 0.0
C408 C 0.57961 0.49995 0.53284 0.0
C409 C 0.56759 0.51049 0.53901 0.0
C410 C 0.55056 0.55549 0.53754 0.0
C411 C 0.54151 0.56904 0.54283 0.0
C412 C 0.53626 0.58124 0.53118 0.0
C413 C 0.54041 0.58043 0.51402 0.0
C414 C 0.54942 0.56669 0.50876 0.0
C415 C 0.55432 0.55426 0.52039 0.0
P416 P 0.56144 0.46415 0.95985 0.0
H417 H 0.59881 0.46757 0.95776 0.0
H418 H 0.62072 0.48815 0.96916 0.0
H419 H 0.58171 0.5129 0.99517 0.0
H420 H 0.55972 0.49238 0.9833 0.0
H421 H 0.56832 0.42854 0.96221 0.0
H422 H 0.56052 0.40634 0.98236 0.0
H423 H 0.5344 0.44189 0.01159 0.0
H424 H 0.54195 0.46414 0.99089 0.0
H425 H 0.55808 0.49763 0.94504 0.0
H426 H 0.52483 0.45354 0.95481 0.0
O427 O 0.56979 0.4552 0.94328 0.0
H428 H 0.53454 0.51032 0.92906 0.0
H429 H 0.50127 0.46604 0.93853 0.0
C430 C 0.57761 0.47867 0.96942 0.0
C431 C 0.59495 0.47741 0.96593 0.0
C432 C 0.60752 0.48911 0.9726 0.0
C433 C 0.60298 0.50225 0.98302 0.0
C434 C 0.5856 0.50311 0.98697 0.0
C435 C 0.57303 0.49135 0.98027 0.0
C436 C 0.55559 0.44795 0.975 0.0
C437 C 0.56088 0.43161 0.97291 0.0
C438 C 0.55654 0.41892 0.98457 0.0
C439 C 0.54695 0.42234 0.9987 0.0
C440 C 0.5417 0.43881 0.0008 0.0
C441 C 0.54605 0.45154 0.98904 0.0
C442 C 0.54312 0.4748 0.95147 0.0
C443 C 0.54558 0.49086 0.94416 0.0
C444 C 0.53214 0.49803 0.93486 0.0
C445 C 0.51605 0.48915 0.93245 0.0
C446 C 0.51342 0.47331 0.94035 0.0
C447 C 0.5269 0.46614 0.94966 0.0
P448 P 0.72717 0.23476 0.25282 0.0
H449 H 0.74498 0.26393 0.26959 0.0
H450 H 0.74149 0.2776 0.29671 0.0
H451 H 0.70062 0.24059 0.30801 0.0
H452 H 0.70395 0.22704 0.28061 0.0
H453 H 0.74643 0.21677 0.22902 0.0
H454 H 0.76298 0.19167 0.23155 0.0
H455 H 0.74717 0.18412 0.28301 0.0
H456 H 0.73062 0.20933 0.28044 0.0
H457 H 0.71018 0.25572 0.22757 0.0
H458 H 0.69867 0.20867 0.25359 0.0
O459 O 0.73985 0.2478 0.24145 0.0
H460 H 0.68237 0.2529 0.21204 0.0
H461 H 0.6705 0.20585 0.23809 0.0
C462 C 0.72468 0.24448 0.27304 0.0
C463 C 0.73519 0.25876 0.27781 0.0
C464 C 0.73315 0.26663 0.29329 0.0
C465 C 0.72072 0.2602 0.30439 0.0
C466 C 0.71032 0.24577 0.29969 0.0
C467 C 0.7122 0.23805 0.28405 0.0
C468 C 0.73757 0.21514 0.25463 0.0
C469 C 0.74644 0.20969 0.24083 0.0
C470 C 0.75594 0.19537 0.2423 0.0
C471 C 0.75656 0.18608 0.25756 0.0
C472 C 0.74692 0.19105 0.27111 0.0
C473 C 0.73751 0.20552 0.26966 0.0
C474 C 0.70662 0.23224 0.24147 0.0
C475 C 0.70171 0.2447 0.22986 0.0
C476 C 0.6858 0.24308 0.22097 0.0
C477 C 0.67435 0.22907 0.22373 0.0
C478 C 0.67909 0.21677 0.23573 0.0
C479 C 0.69517 0.21832 0.2445 0.0
P480 P 0.48186 0.9928 0.98528 0.0
H481 H 0.51772 0.99817 0.97724 0.0
H482 H 0.53244 0.00064 0.95054 0.0
H483 H 0.48337 0.99541 0.92262 0.0
H484 H 0.4687 0.99291 0.94948 0.0
H485 H 0.48623 0.00299 0.02074 0.0
H486 H 0.48623 0.03025 0.03475 0.0
H487 H 0.4765 0.05427 0.9861 0.0
H488 H 0.47687 0.0269 0.97213 0.0
H489 H 0.46867 0.96121 0.97001 0.0
H490 H 0.44798 0.00242 0.99601 0.0
O491 O 0.49346 0.9802 0.99767 0.0
H492 H 0.44029 0.9462 0.96898 0.0
H493 H 0.41972 0.98735 0.99542 0.0
C494 C 0.49219 0.99502 0.96533 0.0
C495 C 0.51014 0.99753 0.96537 0.0
C496 C 0.51852 0.99906 0.95009 0.0
C497 C 0.50907 0.99815 0.93445 0.0
C498 C 0.49101 0.99591 0.93446 0.0
C499 C 0.48262 0.9945 0.9498 0.0
C500 C 0.48192 0.01301 0.99538 0.0
C501 C 0.48422 0.01414 0.01307 0.0
C502 C 0.48406 0.02972 0.02109 0.0
C503 C 0.48142 0.04447 0.01155 0.0
C504 C 0.47886 0.04321 0.99379 0.0
C505 C 0.47902 0.02759 0.98579 0.0
C506 C 0.46044 0.98296 0.98297 0.0
C507 C 0.45797 0.96709 0.97535 0.0
C508 C 0.44178 0.95848 0.97491 0.0
C509 C 0.42774 0.96552 0.98224 0.0
C510 C 0.43019 0.98164 0.9895 0.0
C511 C 0.44641 0.99026 0.9899 0.0
Mg512 Mg 0.23371 0.84779 0.00672 0.0
O513 O 0.2604 0.86149 0.00313 0.0
O514 O 0.27954 0.84162 0.00492 0.0
Mg515 Mg 0.26577 0.81592 0.0091 0.0
C516 C 0.27589 0.85698 0.00295 0.0
C517 C 0.20378 0.86867 0.99462 0.0
O518 O 0.19701 0.85312 0.99414 0.0
O519 O 0.23338 0.83774 0.97958 0.0
O520 O 0.25245 0.81791 0.98262 0.0
O521 O 0.23723 0.85052 0.03491 0.0
O522 O 0.24518 0.82876 0.02067 0.0
C523 C 0.2416 0.8259 0.97352 0.0
C524 C 0.24477 0.83645 0.03494 0.0
O525 O 0.21976 0.87109 0.99849 0.0
Mg526 Mg 0.15071 0.50483 0.26979 0.0
O527 O 0.13447 0.50149 0.24461 0.0
O528 O 0.15326 0.50094 0.22402 0.0
Mg529 Mg 0.18069 0.50497 0.23524 0.0
C530 C 0.13784 0.50014 0.22896 0.0
C531 C 0.12563 0.50836 0.29757 0.0
O532 O 0.13703 0.52116 0.29947 0.0
O533 O 0.15842 0.47737 0.26897 0.0
O534 O 0.17775 0.47942 0.24883 0.0
O535 O 0.15106 0.53302 0.26715 0.0
O536 O 0.17063 0.51746 0.25703 0.0
C537 C 0.16964 0.47089 0.26008 0.0
C538 C 0.16485 0.53214 0.25874 0.0
O539 O 0.12729 0.49805 0.28558 0.0
Mg540 Mg 0.77196 0.6516 0.02511 0.0
O541 O 0.74692 0.63459 0.02183 0.0
O542 O 0.72536 0.65165 0.01743 0.0
Mg543 Mg 0.73609 0.67897 0.01782 0.0
C544 C 0.73093 0.63691 0.01905 0.0
C545 C 0.79986 0.62711 0.03435 0.0
O546 O 0.80098 0.63772 0.04709 0.0
O547 O 0.77164 0.65691 0.99652 0.0
O548 O 0.75003 0.67416 0.9934 0.0
O549 O 0.7684 0.65403 0.05309 0.0
O550 O 0.7583 0.67136 0.03359 0.0
C551 C 0.7621 0.66621 0.9873 0.0
C552 C 0.7597 0.66704 0.04934 0.0
O553 O 0.78845 0.62902 0.02253 0.0
Mg554 Mg 0.89973 0.02964 0.252 0.0
O555 O 0.88192 0.00573 0.24758 0.0
O556 O 0.89865 0.98475 0.24213 0.0
Mg557 Mg 0.92675 0.99493 0.24289 0.0
C558 C 0.88383 0.9903 0.24408 0.0
C559 C 0.88034 0.05981 0.26076 0.0
O560 O 0.89531 0.06586 0.25559 0.0
O561 O 0.90813 0.02012 0.27854 0.0
O562 O 0.9255 0.00023 0.27136 0.0
O563 O 0.8987 0.03537 0.22407 0.0
O564 O 0.91819 0.02012 0.23693 0.0
C565 C 0.9187 0.00888 0.28258 0.0
C566 C 0.91182 0.02625 0.22302 0.0
O567 O 0.87761 0.0439 0.26176 0.0
Mg568 Mg 0.27456 0.15047 0.52548 0.0
O569 O 0.24924 0.13397 0.52178 0.0
O570 O 0.228 0.15157 0.5184 0.0
Mg571 Mg 0.23921 0.17873 0.52001 0.0
C572 C 0.23329 0.13668 0.51929 0.0
C573 C 0.30538 0.1296 0.53029 0.0
O574 O 0.30897 0.14341 0.53912 0.0
O575 O 0.27407 0.15697 0.49705 0.0
O576 O 0.25289 0.1748 0.4953 0.0
O577 O 0.2711 0.15163 0.55361 0.0
O578 O 0.26137 0.17001 0.53494 0.0
C579 C 0.26464 0.16695 0.48851 0.0
C580 C 0.26262 0.16491 0.55044 0.0
O581 O 0.2909 0.12791 0.52215 0.0
Mg582 Mg 0.39591 0.52842 0.74997 0.0
O583 O 0.3807 0.50274 0.74954 0.0
O584 O 0.39977 0.48302 0.74754 0.0
Mg585 Mg 0.4268 0.49586 0.74581 0.0
C586 C 0.38433 0.48731 0.74867 0.0
C587 C 0.37109 0.55579 0.75004 0.0
O588 O 0.38289 0.56047 0.73927 0.0
O589 O 0.40562 0.52375 0.77752 0.0
O590 O 0.42587 0.50569 0.77299 0.0
O591 O 0.39378 0.52958 0.72148 0.0
O592 O 0.41516 0.51861 0.73618 0.0
C593 C 0.41801 0.51495 0.78286 0.0
C594 C 0.40786 0.52173 0.72162 0.0
O595 O 0.37247 0.54188 0.75796 0.0
Mg596 Mg 0.73434 0.3498 0.50536 0.0
O597 O 0.76057 0.36326 0.49996 0.0
O598 O 0.77938 0.34318 0.49882 0.0
Mg599 Mg 0.76589 0.31753 0.50468 0.0
C600 C 0.77574 0.35862 0.49777 0.0
C601 C 0.72331 0.38668 0.50676 0.0
O602 O 0.73573 0.38703 0.51864 0.0
O603 O 0.7319 0.33998 0.47807 0.0
O604 O 0.74983 0.31901 0.47961 0.0
O605 O 0.7401 0.35215 0.5334 0.0
O606 O 0.74664 0.33055 0.51812 0.0
C607 C 0.73866 0.32749 0.47147 0.0
C608 C 0.74741 0.33801 0.53257 0.0
O609 O 0.72015 0.3733 0.49818 0.0
Mg610 Mg 0.64933 0.00438 0.77075 0.0
O611 O 0.63414 0.00096 0.74499 0.0
O612 O 0.65377 0.00014 0.72523 0.0
Mg613 Mg 0.6808 0.00344 0.73762 0.0
C614 C 0.63813 0.99958 0.72952 0.0
C615 C 0.62483 0.00775 0.79869 0.0
O616 O 0.63771 0.01894 0.8017 0.0
O617 O 0.65646 0.97675 0.7707 0.0
O618 O 0.67644 0.97797 0.75115 0.0
O619 O 0.65041 0.03255 0.76745 0.0
O620 O 0.6701 0.01622 0.75882 0.0
C621 C 0.66769 0.96981 0.76221 0.0
C622 C 0.66459 0.03108 0.75981 0.0
O623 O 0.62517 0.99845 0.78568 0.0
Mg624 Mg 0.02722 0.26284 0.90444 0.0
O625 O 0.00245 0.25694 0.88815 0.0
O626 O 0.98146 0.24897 0.90542 0.0
Mg627 Mg 0.99286 0.24969 0.93273 0.0
C628 C 0.98683 0.25201 0.89057 0.0
C629 C 0.05169 0.28673 0.88322 0.0
O630 O 0.05561 0.29293 0.8984 0.0
O631 O 0.01715 0.28766 0.91283 0.0
O632 O 0.99727 0.2786 0.93093 0.0
O633 O 0.03371 0.23602 0.90317 0.0
O634 O 0.01857 0.24623 0.92331 0.0
C635 C 0.00585 0.29054 0.92352 0.0
C636 C 0.02493 0.2334 0.91661 0.0
O637 O 0.04001 0.2749 0.88156 0.0
Mg638 Mg 0.52971 0.75963 0.40397 0.0
O639 O 0.50452 0.75475 0.38805 0.0
O640 O 0.48359 0.74729 0.40557 0.0
Mg641 Mg 0.49538 0.74768 0.43271 0.0
C642 C 0.48883 0.75026 0.39066 0.0
C643 C 0.55615 0.76498 0.37664 0.0
O644 O 0.56172 0.75223 0.38562 0.0
O645 O 0.52091 0.78484 0.41279 0.0
O646 O 0.50047 0.7765 0.43062 0.0
O647 O 0.53465 0.73242 0.40222 0.0
O648 O 0.52075 0.74328 0.42293 0.0
C649 C 0.50955 0.78812 0.42328 0.0
C650 C 0.52617 0.73017 0.41588 0.0
O651 O 0.54257 0.77161 0.38097 0.0
Mg652 Mg 0.97784 0.73427 0.60151 0.0
O653 O 0.00382 0.7314 0.61612 0.0
O654 O 0.02255 0.72498 0.59684 0.0
Mg655 Mg 0.00869 0.72239 0.57072 0.0
C656 C 0.01899 0.72817 0.6121 0.0
C657 C 0.95057 0.74777 0.62308 0.0
O658 O 0.94209 0.74202 0.60933 0.0
O659 O 0.98821 0.75953 0.59065 0.0
O660 O 0.00526 0.75089 0.57081 0.0
O661 O 0.97045 0.70682 0.60503 0.0
O662 O 0.98434 0.71732 0.5832 0.0
C663 C 0.99821 0.76262 0.57843 0.0
C664 C 0.97807 0.70427 0.59111 0.0
O665 O 0.96684 0.7469 0.62415 0.0
Mg666 Mg 0.48258 0.23661 0.10218 0.0
O667 O 0.50848 0.23254 0.11671 0.0
O668 O 0.52691 0.22573 0.09731 0.0
Mg669 Mg 0.51323 0.22494 0.0711 0.0
C670 C 0.52345 0.22869 0.11265 0.0
C671 C 0.45967 0.25835 0.12273 0.0
O672 O 0.45437 0.26147 0.107 0.0
O673 O 0.49347 0.26197 0.09208 0.0
O674 O 0.51128 0.25363 0.07278 0.0
O675 O 0.47453 0.20928 0.10486 0.0
O676 O 0.48862 0.22009 0.08326 0.0
C677 C 0.50424 0.26525 0.08057 0.0
C678 C 0.48207 0.20696 0.09084 0.0
O679 O 0.47207 0.24882 0.12531 0.0
H680 H 0.19859 0.7773 0.81831 0.0
H681 H 0.19917 0.79031 0.84644 0.0
H682 H 0.24495 0.7648 0.86105 0.0
H683 H 0.24426 0.75156 0.83317 0.0
H684 H 0.22144 0.76262 0.88557 0.0
H685 H 0.24743 0.80598 0.84972 0.0
H686 H 0.24817 0.82544 0.82516 0.0
H687 H 0.20394 0.84888 0.84237 0.0
H688 H 0.20281 0.82939 0.86693 0.0
H689 H 0.25988 0.80467 0.95549 0.0
H690 H 0.25345 0.79418 0.92689 0.0
H691 H 0.20929 0.82436 0.9221 0.0
H692 H 0.21578 0.83522 0.9509 0.0
H693 H 0.22736 0.82471 0.89279 0.0
H694 H 0.20306 0.7832 0.93018 0.0
H695 H 0.20247 0.76393 0.95488 0.0
H696 H 0.24301 0.73691 0.93485 0.0
H697 H 0.24403 0.75617 0.91013 0.0
C698 C 0.20869 0.77437 0.82758 0.0
C699 C 0.22143 0.76346 0.82351 0.0
C700 C 0.20908 0.78191 0.84359 0.0
C701 C 0.22219 0.77863 0.85577 0.0
C702 C 0.23474 0.76754 0.85182 0.0
C703 C 0.2344 0.76008 0.83584 0.0
C704 C 0.22298 0.78666 0.87273 0.0
C705 C 0.22284 0.77619 0.88715 0.0
C706 C 0.22421 0.80438 0.87477 0.0
C707 C 0.22491 0.8161 0.86004 0.0
C708 C 0.23777 0.81519 0.84818 0.0
C709 C 0.23828 0.82624 0.83428 0.0
C710 C 0.22607 0.83835 0.83217 0.0
C711 C 0.21336 0.83947 0.844 0.0
C712 C 0.21279 0.82843 0.85791 0.0
C713 C 0.24881 0.80919 0.94841 0.0
C714 C 0.23823 0.82067 0.95561 0.0
C715 C 0.24513 0.80312 0.93204 0.0
C716 C 0.23069 0.80821 0.92251 0.0
C717 C 0.22044 0.82018 0.92931 0.0
C718 C 0.22416 0.82636 0.94576 0.0
C719 C 0.22631 0.80063 0.90561 0.0
C720 C 0.22572 0.81115 0.89122 0.0
C721 C 0.22434 0.78293 0.90356 0.0
C722 C 0.22369 0.77121 0.91835 0.0
C723 C 0.21193 0.77322 0.93109 0.0
C724 C 0.21151 0.76229 0.94509 0.0
C725 C 0.22271 0.74922 0.94645 0.0
C726 C 0.23434 0.74704 0.93378 0.0
C727 C 0.23483 0.75794 0.91976 0.0
H728 H 0.22237 0.74077 0.9573 0.0
H729 H 0.22649 0.8469 0.82141 0.0
H730 H 0.00982 0.47217 0.409 0.0
H731 H 0.02615 0.47301 0.38321 0.0
H732 H 0.04763 0.52278 0.39623 0.0
H733 H 0.0308 0.52234 0.42162 0.0
H734 H 0.03969 0.52109 0.36317 0.0
H735 H 0.06993 0.48689 0.40434 0.0
H736 H 0.07283 0.46312 0.42442 0.0
H737 H 0.05987 0.42803 0.38406 0.0
H738 H 0.05669 0.45162 0.36378 0.0
H739 H 0.11784 0.52986 0.32234 0.0
H740 H 0.09511 0.52633 0.34248 0.0
H741 H 0.0783 0.47849 0.32007 0.0
H742 H 0.10129 0.48189 0.29975 0.0
H743 H 0.08079 0.4769 0.35492 0.0
H744 H 0.05432 0.51177 0.31304 0.0
H745 H 0.05232 0.53593 0.29333 0.0
H746 H 0.05885 0.57016 0.33527 0.0
H747 H 0.06114 0.54622 0.35523 0.0
C748 C 0.01778 0.48342 0.40624 0.0
C749 C 0.01908 0.49715 0.41748 0.0
C750 C 0.02726 0.48381 0.39156 0.0
C751 C 0.03834 0.49786 0.3879 0.0
C752 C 0.03923 0.51177 0.39881 0.0
C753 C 0.02972 0.51143 0.41343 0.0
C754 C 0.04942 0.49799 0.37302 0.0
C755 C 0.04874 0.51148 0.36143 0.0
C756 C 0.0609 0.48519 0.37043 0.0
C757 C 0.06287 0.47101 0.3826 0.0
C758 C 0.06757 0.47411 0.39978 0.0
C759 C 0.06929 0.46067 0.41119 0.0
C760 C 0.06648 0.44408 0.40553 0.0
C761 C 0.06201 0.44089 0.38844 0.0
C762 C 0.06025 0.45429 0.37698 0.0
C763 C 0.1093 0.51859 0.32159 0.0
C764 C 0.11139 0.50616 0.3094 0.0
C765 C 0.09622 0.51664 0.33308 0.0
C766 C 0.08486 0.50225 0.33265 0.0
C767 C 0.08689 0.48974 0.32056 0.0
C768 C 0.09999 0.49171 0.30894 0.0
C769 C 0.07132 0.5002 0.34532 0.0
C770 C 0.07154 0.48636 0.3565 0.0
C771 C 0.05948 0.51273 0.34758 0.0
C772 C 0.05801 0.52718 0.33562 0.0
C773 C 0.05545 0.52445 0.31806 0.0
C774 C 0.05425 0.53811 0.30684 0.0
C775 C 0.05548 0.55457 0.31304 0.0
C776 C 0.0579 0.5574 0.33048 0.0
C777 C 0.05912 0.54379 0.34176 0.0
H778 H 0.05455 0.56513 0.30434 0.0
H779 H 0.06782 0.43369 0.41438 0.0
H780 H 0.77445 0.74221 0.84438 0.0
H781 H 0.76652 0.72133 0.86611 0.0
H782 H 0.81962 0.72105 0.88413 0.0
H783 H 0.82764 0.74209 0.8626 0.0
H784 H 0.8019 0.68872 0.88516 0.0
H785 H 0.79511 0.74601 0.90277 0.0
H786 H 0.78416 0.77438 0.89951 0.0
H787 H 0.73217 0.75292 0.89825 0.0
H788 H 0.74284 0.72438 0.90124 0.0
H789 H 0.79321 0.66596 0.97258 0.0
H790 H 0.80003 0.67655 0.94427 0.0
H791 H 0.74618 0.68367 0.93299 0.0
H792 H 0.73946 0.6738 0.96148 0.0
H793 H 0.76349 0.7111 0.92691 0.0
H794 H 0.76991 0.65373 0.91208 0.0
H795 H 0.78073 0.62529 0.9151 0.0
H796 H 0.83261 0.64603 0.91105 0.0
H797 H 0.82212 0.67463 0.90823 0.0
C798 C 0.78447 0.73759 0.85286 0.0
C799 C 0.80164 0.74399 0.85191 0.0
C800 C 0.77994 0.72558 0.86518 0.0
C801 C 0.79247 0.71981 0.87683 0.0
C802 C 0.80977 0.72531 0.87522 0.0
C803 C 0.81433 0.73734 0.8629 0.0
C804 C 0.78729 0.70962 0.8918 0.0
C805 C 0.79357 0.69357 0.89438 0.0
C806 C 0.7762 0.7159 0.90362 0.0
C807 C 0.76977 0.73306 0.90204 0.0
C808 C 0.78135 0.74734 0.90167 0.0
C809 C 0.7752 0.76345 0.89989 0.0
C810 C 0.75748 0.76545 0.89862 0.0
C811 C 0.74589 0.75134 0.8992 0.0
C812 C 0.75198 0.7352 0.90094 0.0
C813 C 0.7828 0.66941 0.96389 0.0
C814 C 0.76583 0.66922 0.96927 0.0
C815 C 0.78669 0.67541 0.94767 0.0
C816 C 0.77362 0.68093 0.93643 0.0
C817 C 0.75652 0.67962 0.94144 0.0
C818 C 0.75268 0.67395 0.95772 0.0
C819 C 0.77789 0.68993 0.92037 0.0
C820 C 0.77158 0.70596 0.91764 0.0
C821 C 0.78888 0.68354 0.90845 0.0
C822 C 0.79523 0.66635 0.91008 0.0
C823 C 0.78364 0.65225 0.91196 0.0
C824 C 0.78971 0.63609 0.91361 0.0
C825 C 0.80735 0.63386 0.9133 0.0
C826 C 0.81895 0.64778 0.9113 0.0
C827 C 0.81295 0.66396 0.90965 0.0
H828 H 0.81202 0.62134 0.91459 0.0
H829 H 0.75274 0.77793 0.89724 0.0
H830 H 0.98916 0.97665 0.43203 0.0
H831 H 0.96598 0.98357 0.4117 0.0
H832 H 0.00274 0.01145 0.38125 0.0
H833 H 0.02575 0.00553 0.40202 0.0
H834 H 0.97393 0.02628 0.37901 0.0
H835 H 0.99021 0.96864 0.3743 0.0
H836 H 0.99456 0.93979 0.3848 0.0
H837 H 0.94111 0.93327 0.39599 0.0
H838 H 0.9365 0.96218 0.38573 0.0
H839 H 0.94106 0.98631 0.2951 0.0
H840 H 0.95337 0.98408 0.32373 0.0
H841 H 0.92166 0.02295 0.34015 0.0
H842 H 0.90952 0.02571 0.31102 0.0
H843 H 0.94277 0.97587 0.35315 0.0
H844 H 0.94453 0.04533 0.37204 0.0
H845 H 0.94383 0.0736 0.35883 0.0
H846 H 0.96696 0.05544 0.31464 0.0
H847 H 0.96796 0.02715 0.32768 0.0
C848 C 0.99227 0.98467 0.42128 0.0
C849 C 0.00943 0.99028 0.41854 0.0
C850 C 0.97899 0.98848 0.40956 0.0
C851 C 0.98265 0.99771 0.39472 0.0
C852 C 0.99957 0.00422 0.39253 0.0
C853 C 0.01279 0.00061 0.40433 0.0
C854 C 0.96939 0.9993 0.38067 0.0
C855 C 0.96694 0.01527 0.37349 0.0
C856 C 0.96032 0.98497 0.37333 0.0
C857 C 0.96306 0.96761 0.37947 0.0
C858 C 0.97942 0.96108 0.37911 0.0
C859 C 0.98193 0.94473 0.385 0.0
C860 C 0.96813 0.93473 0.39111 0.0
C861 C 0.95179 0.94105 0.39129 0.0
C862 C 0.94922 0.95741 0.38545 0.0
C863 C 0.93652 0.99436 0.30474 0.0
C864 C 0.9244 0.00635 0.30063 0.0
C865 C 0.94355 0.99298 0.32122 0.0
C866 C 0.93862 0.00345 0.33413 0.0
C867 C 0.92588 0.0149 0.33034 0.0
C868 C 0.91889 0.01641 0.3137 0.0
C869 C 0.94775 0.00276 0.35111 0.0
C870 C 0.94936 0.98695 0.35893 0.0
C871 C 0.9565 0.01716 0.35866 0.0
C872 C 0.95609 0.03411 0.35074 0.0
C873 C 0.94948 0.0474 0.35952 0.0
C874 C 0.94903 0.06342 0.35206 0.0
C875 C 0.95528 0.06629 0.33587 0.0
C876 C 0.96206 0.05318 0.32714 0.0
C877 C 0.96255 0.03715 0.33455 0.0
H878 H 0.95491 0.0787 0.33012 0.0
H879 H 0.9701 0.92207 0.39566 0.0
H880 H 0.21124 0.24936 0.67878 0.0
H881 H 0.21761 0.2259 0.66038 0.0
H882 H 0.22704 0.26102 0.61931 0.0
H883 H 0.22094 0.28442 0.63762 0.0
H884 H 0.20443 0.23152 0.61082 0.0
H885 H 0.25993 0.24744 0.63931 0.0
H886 H 0.27939 0.25209 0.66463 0.0
H887 H 0.2694 0.20059 0.68011 0.0
H888 H 0.24968 0.19572 0.65498 0.0
H889 H 0.25008 0.196 0.54809 0.0
H890 H 0.2389 0.21239 0.57049 0.0
H891 H 0.24598 0.17142 0.60598 0.0
H892 H 0.25788 0.15503 0.58352 0.0
H893 H 0.25684 0.19957 0.62038 0.0
H894 H 0.20493 0.18179 0.59061 0.0
H895 H 0.1849 0.17614 0.5659 0.0
H896 H 0.18619 0.22901 0.55396 0.0
H897 H 0.20643 0.23498 0.57845 0.0
C898 C 0.21468 0.25201 0.66582 0.0
C899 C 0.21571 0.26867 0.65961 0.0
C900 C 0.21833 0.23865 0.65537 0.0
C901 C 0.22278 0.24178 0.63852 0.0
C902 C 0.22361 0.25837 0.63228 0.0
C903 C 0.22024 0.27172 0.64276 0.0
C904 C 0.22673 0.22787 0.62726 0.0
C905 C 0.2159 0.22453 0.61283 0.0
C906 C 0.2413 0.21833 0.63033 0.0
C907 C 0.25317 0.22128 0.6454 0.0
C908 C 0.26175 0.23716 0.6482 0.0
C909 C 0.27286 0.23982 0.6625 0.0
C910 C 0.27558 0.22666 0.674 0.0
C911 C 0.26725 0.21079 0.67121 0.0
C912 C 0.25611 0.20807 0.65694 0.0
C913 C 0.24907 0.19033 0.56059 0.0
C914 C 0.25474 0.17415 0.564 0.0
C915 C 0.24258 0.19972 0.57341 0.0
C916 C 0.24122 0.19304 0.58988 0.0
C917 C 0.24679 0.17681 0.59334 0.0
C918 C 0.25354 0.16744 0.5805 0.0
C919 C 0.23482 0.20351 0.60351 0.0
C920 C 0.24515 0.20623 0.61844 0.0
C921 C 0.2196 0.2123 0.60103 0.0
C922 C 0.20728 0.20882 0.58635 0.0
C923 C 0.20102 0.19221 0.58266 0.0
C924 C 0.18962 0.18895 0.5687 0.0
C925 C 0.1843 0.2022 0.55835 0.0
C926 C 0.19033 0.21876 0.56198 0.0
C927 C 0.20174 0.22209 0.57593 0.0
H928 H 0.17548 0.19965 0.54754 0.0
H929 H 0.28419 0.22874 0.68506 0.0
H930 H 0.47887 0.50788 0.57641 0.0
H931 H 0.45678 0.50394 0.59745 0.0
H932 H 0.49622 0.5049 0.63768 0.0
H933 H 0.51828 0.50961 0.61701 0.0
H934 H 0.4682 0.48015 0.64221 0.0
H935 H 0.47912 0.53983 0.6281 0.0
H936 H 0.48051 0.56382 0.60801 0.0
H937 H 0.42717 0.55366 0.59315 0.0
H938 H 0.42555 0.52944 0.613 0.0
H939 H 0.43958 0.51001 0.71813 0.0
H940 H 0.45311 0.50346 0.69201 0.0
H941 H 0.40689 0.51489 0.66296 0.0
H942 H 0.39336 0.52199 0.68924 0.0
H943 H 0.43317 0.52955 0.64896 0.0
H944 H 0.4203 0.47356 0.66705 0.0
H945 H 0.4183 0.44931 0.68674 0.0
H946 H 0.47341 0.45108 0.69329 0.0
H947 H 0.47576 0.47551 0.67383 0.0
C948 C 0.48289 0.5072 0.58972 0.0
C949 C 0.50043 0.50925 0.59495 0.0
C950 C 0.47023 0.5048 0.6017 0.0
C951 C 0.4749 0.50422 0.61909 0.0
C952 C 0.49238 0.5052 0.62429 0.0
C953 C 0.505 0.50782 0.61239 0.0
C954 C 0.46176 0.5043 0.63207 0.0
C955 C 0.46049 0.4909 0.64374 0.0
C956 C 0.45132 0.51809 0.63365 0.0
C957 C 0.45227 0.53272 0.62185 0.0
C958 C 0.46773 0.54263 0.62044 0.0
C959 C 0.46855 0.55628 0.60912 0.0
C960 C 0.45395 0.56022 0.59926 0.0
C961 C 0.43848 0.55056 0.60076 0.0
C962 C 0.4376 0.53688 0.61204 0.0
C963 C 0.43216 0.51089 0.70623 0.0
C964 C 0.41537 0.51647 0.70577 0.0
C965 C 0.4399 0.50703 0.69126 0.0
C966 C 0.43094 0.50837 0.67548 0.0
C967 C 0.41403 0.51367 0.67498 0.0
C968 C 0.40632 0.51771 0.69 0.0
C969 C 0.43987 0.50557 0.65956 0.0
C970 C 0.44043 0.51851 0.6473 0.0
C971 C 0.44949 0.49123 0.65736 0.0
C972 C 0.44819 0.47645 0.66902 0.0
C973 C 0.432 0.46886 0.67276 0.0
C974 C 0.4308 0.45506 0.68388 0.0
C975 C 0.44572 0.44867 0.69128 0.0
C976 C 0.46187 0.45604 0.68755 0.0
C977 C 0.46314 0.46985 0.67645 0.0
H978 H 0.44476 0.43799 0.69989 0.0
H979 H 0.45461 0.5708 0.5905 0.0
H980 H 0.8167 0.23715 0.63194 0.0
H981 H 0.80668 0.25795 0.61151 0.0
H982 H 0.80142 0.29303 0.6521 0.0
H983 H 0.81172 0.27222 0.67276 0.0
H984 H 0.7733 0.29139 0.63009 0.0
H985 H 0.83379 0.29995 0.62584 0.0
H986 H 0.86363 0.29197 0.6231 0.0
H987 H 0.84993 0.27064 0.57413 0.0
H988 H 0.81994 0.27825 0.57667 0.0
H989 H 0.75296 0.35159 0.56437 0.0
H990 H 0.76759 0.33898 0.58917 0.0
H991 H 0.77727 0.29568 0.55926 0.0
H992 H 0.76268 0.30804 0.53463 0.0
H993 H 0.80565 0.3067 0.5788 0.0
H994 H 0.74444 0.29429 0.5856 0.0
H995 H 0.71448 0.30188 0.58852 0.0
H996 H 0.72995 0.33079 0.63299 0.0
H997 H 0.76006 0.32354 0.6302 0.0
C998 C 0.81372 0.24938 0.63655 0.0
C999 C 0.81519 0.25307 0.65399 0.0
C1000 C 0.80794 0.26126 0.62484 0.0
C1001 C 0.80356 0.27714 0.63025 0.0
C1002 C 0.80481 0.28087 0.64765 0.0
C1003 C 0.81064 0.26895 0.65943 0.0
C1004 C 0.79714 0.28947 0.61761 0.0
C1005 C 0.78053 0.29508 0.61906 0.0
C1006 C 0.80651 0.29414 0.60315 0.0
C1007 C 0.82458 0.28959 0.6015 0.0
C1008 C 0.83711 0.29345 0.61453 0.0
C1009 C 0.85406 0.28901 0.61301 0.0
C1010 C 0.85867 0.28078 0.59846 0.0
C1011 C 0.84634 0.27701 0.58539 0.0
C1012 C 0.82937 0.28141 0.58686 0.0
C1013 C 0.75829 0.33942 0.56307 0.0
C1014 C 0.75674 0.33086 0.54748 0.0
C1015 C 0.76661 0.33224 0.57725 0.0
C1016 C 0.77348 0.31638 0.57605 0.0
C1017 C 0.77217 0.30798 0.56044 0.0
C1018 C 0.76382 0.31509 0.54634 0.0
C1019 C 0.78163 0.30813 0.59104 0.0
C1020 C 0.79858 0.30331 0.59001 0.0
C1021 C 0.77259 0.30423 0.60588 0.0
C1022 C 0.75451 0.30856 0.60757 0.0
C1023 C 0.74147 0.30239 0.59592 0.0
C1024 C 0.72446 0.3066 0.59756 0.0
C1025 C 0.72032 0.31686 0.6109 0.0
C1026 C 0.73318 0.32288 0.62264 0.0
C1027 C 0.75021 0.31872 0.62104 0.0
H1028 H 0.70715 0.3201 0.61215 0.0
H1029 H 0.8718 0.27735 0.5973 0.0
H1030 H 0.51538 0.00328 0.61095 0.0
H1031 H 0.53078 0.0014 0.63867 0.0
H1032 H 0.57589 0.98682 0.61409 0.0
H1033 H 0.56047 0.98819 0.58648 0.0
H1034 H 0.57053 0.96815 0.64217 0.0
H1035 H 0.57211 0.02735 0.62696 0.0
H1036 H 0.55933 0.0541 0.61895 0.0
H1037 H 0.53212 0.05287 0.66517 0.0
H1038 H 0.54458 0.02598 0.67334 0.0
H1039 H 0.64166 0.99095 0.6965 0.0
H1040 H 0.6195 0.98848 0.67371 0.0
H1041 H 0.58116 0.00098 0.70852 0.0
H1042 H 0.60341 0.00355 0.7316 0.0
H1043 H 0.57906 0.01903 0.6783 0.0
H1044 H 0.5811 0.96154 0.6952 0.0
H1045 H 0.59471 0.93521 0.70311 0.0
H1046 H 0.61561 0.9333 0.65374 0.0
H1047 H 0.60234 0.95977 0.6456 0.0
C1048 C 0.52851 0.99947 0.61148 0.0
C1049 C 0.53675 0.99602 0.59649 0.0
C1050 C 0.53734 0.99853 0.62732 0.0
C1051 C 0.55456 0.99415 0.62844 0.0
C1052 C 0.56263 0.99027 0.61354 0.0
C1053 C 0.55385 0.99122 0.59774 0.0
C1054 C 0.56447 0.99401 0.64501 0.0
C1055 C 0.57245 0.97929 0.65004 0.0
C1056 C 0.56656 0.0084 0.65555 0.0
C1057 C 0.5591 0.02456 0.65066 0.0
C1058 C 0.56329 0.03272 0.63535 0.0
C1059 C 0.55612 0.04791 0.63079 0.0
C1060 C 0.54487 0.05515 0.64152 0.0
C1061 C 0.5408 0.04723 0.65685 0.0
C1062 C 0.54791 0.03201 0.66146 0.0
C1063 C 0.62852 0.99312 0.69941 0.0
C1064 C 0.62434 0.99746 0.71593 0.0
C1065 C 0.61584 0.9916 0.68635 0.0
C1066 C 0.59865 0.99437 0.68945 0.0
C1067 C 0.59435 0.99872 0.70589 0.0
C1068 C 0.60707 0.00013 0.71906 0.0
C1069 C 0.58547 0.9933 0.67522 0.0
C1070 C 0.57687 0.00778 0.67062 0.0
C1071 C 0.58286 0.97871 0.66504 0.0
C1072 C 0.5908 0.96272 0.66983 0.0
C1073 C 0.5887 0.95558 0.68606 0.0
C1074 C 0.59634 0.94062 0.69058 0.0
C1075 C 0.60604 0.9326 0.67894 0.0
C1076 C 0.60809 0.93952 0.66274 0.0
C1077 C 0.60049 0.9545 0.65816 0.0
H1078 H 0.61194 0.92102 0.68247 0.0
H1079 H 0.53935 0.06692 0.63797 0.0
H1080 H 0.90301 0.22959 0.74657 0.0
H1081 H 0.92242 0.23715 0.77091 0.0
H1082 H 0.88314 0.22011 0.80502 0.0
H1083 H 0.86369 0.21227 0.78073 0.0
H1084 H 0.8999 0.25008 0.81523 0.0
H1085 H 0.91497 0.19536 0.79771 0.0
H1086 H 0.92328 0.17428 0.77735 0.0
H1087 H 0.9695 0.20448 0.76781 0.0
H1088 H 0.96133 0.22587 0.78794 0.0
H1089 H 0.9526 0.24167 0.89044 0.0
H1090 H 0.93272 0.23689 0.86588 0.0
H1091 H 0.97325 0.25193 0.83239 0.0
H1092 H 0.99334 0.25655 0.85687 0.0
H1093 H 0.95591 0.22357 0.82158 0.0
H1094 H 0.94133 0.27803 0.83956 0.0
H1095 H 0.93303 0.29924 0.85978 0.0
H1096 H 0.88607 0.26987 0.86838 0.0
H1097 H 0.89421 0.24834 0.84839 0.0
C1098 C 0.89851 0.22736 0.75925 0.0
C1099 C 0.88184 0.22017 0.7617 0.0
C1100 C 0.9096 0.23176 0.77314 0.0
C1101 C 0.90429 0.229 0.78976 0.0
C1102 C 0.88749 0.22234 0.79229 0.0
C1103 C 0.87637 0.21791 0.77839 0.0
C1104 C 0.91643 0.23265 0.8045 0.0
C1105 C 0.91206 0.24414 0.81675 0.0
C1106 C 0.93246 0.22518 0.80625 0.0
C1107 C 0.93745 0.21229 0.7942 0.0
C1108 C 0.92684 0.19757 0.79117 0.0
C1109 C 0.93153 0.18556 0.77968 0.0
C1110 C 0.94689 0.18806 0.77125 0.0
C1111 C 0.9576 0.20257 0.77433 0.0
C1112 C 0.95295 0.21463 0.78578 0.0
C1113 C 0.95732 0.24404 0.87787 0.0
C1114 C 0.9746 0.24952 0.87567 0.0
C1115 C 0.94588 0.24137 0.86383 0.0
C1116 C 0.95145 0.24422 0.8473 0.0
C1117 C 0.96868 0.24967 0.84503 0.0
C1118 C 0.98013 0.25235 0.85907 0.0
C1119 C 0.93941 0.24103 0.83236 0.0
C1120 C 0.94379 0.22957 0.82007 0.0
C1121 C 0.92341 0.24856 0.83058 0.0
C1122 C 0.91846 0.26149 0.8426 0.0
C1123 C 0.9293 0.27602 0.84587 0.0
C1124 C 0.92462 0.28811 0.85727 0.0
C1125 C 0.90906 0.28588 0.86539 0.0
C1126 C 0.89813 0.27157 0.8621 0.0
C1127 C 0.90277 0.25942 0.85072 0.0
H1128 H 0.90545 0.29527 0.87421 0.0
H1129 H 0.95051 0.17874 0.76237 0.0
H1130 H 0.47261 0.92792 0.49082 0.0
H1131 H 0.47349 0.90111 0.47582 0.0
H1132 H 0.52811 0.91035 0.47039 0.0
H1133 H 0.52732 0.93715 0.48536 0.0
H1134 H 0.50986 0.8981 0.44038 0.0
H1135 H 0.516 0.88479 0.50017 0.0
H1136 H 0.50752 0.88476 0.52994 0.0
H1137 H 0.45935 0.85842 0.51551 0.0
H1138 H 0.46746 0.85852 0.4856 0.0
H1139 H 0.53277 0.81525 0.42088 0.0
H1140 H 0.53012 0.84368 0.43161 0.0
H1141 H 0.47852 0.82956 0.44648 0.0
H1142 H 0.4814 0.80096 0.43645 0.0
H1143 H 0.49464 0.84492 0.47118 0.0
H1144 H 0.48807 0.85707 0.41171 0.0
H1145 H 0.49568 0.85728 0.38168 0.0
H1146 H 0.543 0.88583 0.39455 0.0
H1147 H 0.53577 0.88561 0.42471 0.0
C1148 C 0.48476 0.92428 0.4863 0.0
C1149 C 0.49991 0.93455 0.48935 0.0
C1150 C 0.48526 0.90897 0.4778 0.0
C1151 C 0.50088 0.90374 0.47208 0.0
C1152 C 0.51594 0.91417 0.4747 0.0
C1153 C 0.51549 0.92939 0.48337 0.0
C1154 C 0.50165 0.88709 0.46394 0.0
C1155 C 0.50669 0.88643 0.44711 0.0
C1156 C 0.49712 0.87195 0.47264 0.0
C1157 C 0.49226 0.87182 0.49062 0.0
C1158 C 0.50354 0.87912 0.50332 0.0
C1159 C 0.49881 0.87907 0.52022 0.0
C1160 C 0.48289 0.87164 0.5246 0.0
C1161 C 0.47167 0.8642 0.51209 0.0
C1162 C 0.47633 0.86424 0.49517 0.0
C1163 C 0.52078 0.81828 0.42623 0.0
C1164 C 0.50732 0.80584 0.42788 0.0
C1165 C 0.51924 0.83458 0.4323 0.0
C1166 C 0.50405 0.83887 0.43976 0.0
C1167 C 0.4904 0.82658 0.44087 0.0
C1168 C 0.49204 0.81023 0.43508 0.0
C1169 C 0.50274 0.85577 0.44742 0.0
C1170 C 0.49768 0.85652 0.46427 0.0
C1171 C 0.50709 0.87098 0.43864 0.0
C1172 C 0.51145 0.87119 0.4205 0.0
C1173 C 0.50016 0.86329 0.40816 0.0
C1174 C 0.50439 0.86343 0.39111 0.0
C1175 C 0.51983 0.87152 0.38622 0.0
C1176 C 0.53105 0.87955 0.39836 0.0
C1177 C 0.52688 0.87943 0.41544 0.0
H1178 H 0.52309 0.87161 0.37301 0.0
H1179 H 0.47925 0.8716 0.5377 0.0
H1180 H 0.16081 0.34053 0.77322 0.0
H1181 H 0.14147 0.33556 0.79674 0.0
H1182 H 0.12366 0.28758 0.77526 0.0
H1183 H 0.14322 0.29235 0.75188 0.0
H1184 H 0.09694 0.31013 0.78463 0.0
H1185 H 0.14829 0.28529 0.80712 0.0
H1186 H 0.17929 0.28513 0.81499 0.0
H1187 H 0.17495 0.32632 0.84908 0.0
H1188 H 0.14395 0.3269 0.8412 0.0
H1189 H 0.05058 0.27266 0.85166 0.0
H1190 H 0.06942 0.27971 0.82845 0.0
H1191 H 0.09492 0.31999 0.85818 0.0
H1192 H 0.0764 0.31267 0.88173 0.0
H1193 H 0.11792 0.30265 0.84447 0.0
H1194 H 0.06702 0.32759 0.82339 0.0
H1195 H 0.03616 0.32912 0.81548 0.0
H1196 H 0.03943 0.28998 0.77879 0.0
H1197 H 0.07028 0.28806 0.78664 0.0
C1198 C 0.15281 0.3289 0.7736 0.0
C1199 C 0.15349 0.31679 0.76082 0.0
C1200 C 0.14183 0.32607 0.78701 0.0
C1201 C 0.13118 0.31122 0.78767 0.0
C1202 C 0.1318 0.29912 0.77491 0.0
C1203 C 0.14302 0.3018 0.76167 0.0
C1204 C 0.1192 0.30842 0.8016 0.0
C1205 C 0.10145 0.30829 0.79771 0.0
C1206 C 0.12522 0.3066 0.81867 0.0
C1207 C 0.14385 0.30627 0.82342 0.0
C1208 C 0.15398 0.29443 0.81616 0.0
C1209 C 0.17154 0.29424 0.82065 0.0
C1210 C 0.1791 0.30574 0.83249 0.0
C1211 C 0.16909 0.31744 0.83989 0.0
C1212 C 0.15152 0.3177 0.83542 0.0
C1213 C 0.06006 0.28315 0.85322 0.0
C1214 C 0.06199 0.2921 0.86857 0.0
C1215 C 0.0708 0.28722 0.83988 0.0
C1216 C 0.0835 0.3005 0.84147 0.0
C1217 C 0.08522 0.30968 0.85666 0.0
C1218 C 0.07458 0.30552 0.87008 0.0
C1219 C 0.09548 0.30425 0.82758 0.0
C1220 C 0.11329 0.30458 0.83145 0.0
C1221 C 0.0895 0.30647 0.8105 0.0
C1222 C 0.07094 0.30758 0.80572 0.0
C1223 C 0.06113 0.31922 0.81373 0.0
C1224 C 0.04365 0.32017 0.80923 0.0
C1225 C 0.03583 0.30962 0.79667 0.0
C1226 C 0.0455 0.29813 0.78853 0.0
C1227 C 0.06299 0.29712 0.79299 0.0
H1228 H 0.02229 0.31038 0.7932 0.0
H1229 H 0.19269 0.30557 0.83596 0.0
H1230 H 0.53956 0.61424 0.52052 0.0
H1231 H 0.53245 0.63676 0.50077 0.0
H1232 H 0.52519 0.60101 0.45994 0.0
H1233 H 0.53124 0.57802 0.47982 0.0
H1234 H 0.549 0.63209 0.45512 0.0
H1235 H 0.49151 0.61435 0.46962 0.0
H1236 H 0.46859 0.60629 0.48922 0.0
H1237 H 0.47488 0.65512 0.51231 0.0
H1238 H 0.49804 0.66339 0.49302 0.0
H1239 H 0.52821 0.6997 0.40054 0.0
H1240 H 0.5262 0.67179 0.41396 0.0
H1241 H 0.51651 0.69464 0.4618 0.0
H1242 H 0.51763 0.72239 0.44824 0.0
H1243 H 0.49851 0.66669 0.45966 0.0
H1244 H 0.55803 0.68318 0.45008 0.0
H1245 H 0.58274 0.6921 0.43294 0.0
H1246 H 0.57476 0.64695 0.4034 0.0
H1247 H 0.54986 0.63786 0.42025 0.0
C1248 C 0.53603 0.61097 0.50747 0.0
C1249 C 0.53589 0.59417 0.50188 0.0
C1250 C 0.5321 0.62394 0.49617 0.0
C1251 C 0.52823 0.62049 0.47898 0.0
C1252 C 0.52816 0.60386 0.47321 0.0
C1253 C 0.53176 0.59078 0.48459 0.0
C1254 C 0.525 0.63453 0.46706 0.0
C1255 C 0.53777 0.63947 0.45577 0.0
C1256 C 0.5106 0.64433 0.46837 0.0
C1257 C 0.49661 0.63944 0.47995 0.0
C1258 C 0.48812 0.62332 0.47897 0.0
C1259 C 0.47505 0.61873 0.49001 0.0
C1260 C 0.4703 0.63018 0.50203 0.0
C1261 C 0.47858 0.64626 0.50301 0.0
C1262 C 0.49166 0.65092 0.49201 0.0
C1263 C 0.52542 0.69871 0.41386 0.0
C1264 C 0.52323 0.71321 0.4234 0.0
C1265 C 0.52436 0.68277 0.42155 0.0
C1266 C 0.52162 0.68111 0.43901 0.0
C1267 C 0.51868 0.69555 0.44833 0.0
C1268 C 0.51937 0.71143 0.44057 0.0
C1269 C 0.52272 0.66457 0.44787 0.0
C1270 C 0.50959 0.65918 0.45868 0.0
C1271 C 0.53701 0.65452 0.4464 0.0
C1272 C 0.55197 0.65995 0.43627 0.0
C1273 C 0.56148 0.67522 0.43985 0.0
C1274 C 0.57552 0.6803 0.4302 0.0
C1275 C 0.58028 0.67013 0.41705 0.0
C1276 C 0.57104 0.65484 0.41356 0.0
C1277 C 0.55696 0.64971 0.42315 0.0
H1278 H 0.59117 0.67408 0.4096 0.0
H1279 H 0.46019 0.6266 0.51056 0.0
H1280 H 0.88728 0.79711 0.7617 0.0
H1281 H 0.90427 0.79007 0.73777 0.0
H1282 H 0.8576 0.77854 0.70743 0.0
H1283 H 0.84047 0.78564 0.73133 0.0
H1284 H 0.87998 0.75456 0.70447 0.0
H1285 H 0.88231 0.81493 0.70106 0.0
H1286 H 0.88758 0.84393 0.71174 0.0
H1287 H 0.94079 0.835 0.72261 0.0
H1288 H 0.93579 0.80585 0.71221 0.0
H1289 H 0.91594 0.75044 0.6244 0.0
H1290 H 0.89995 0.75957 0.64819 0.0
H1291 H 0.94747 0.76868 0.67787 0.0
H1292 H 0.96369 0.75965 0.65396 0.0
H1293 H 0.92524 0.79392 0.68144 0.0
H1294 H 0.92281 0.73357 0.68477 0.0
H1295 H 0.91748 0.70461 0.67399 0.0
H1296 H 0.86427 0.71364 0.66325 0.0
H1297 H 0.86934 0.74275 0.67375 0.0
C1298 C 0.88061 0.79329 0.74987 0.0
C1299 C 0.8625 0.79202 0.74841 0.0
C1300 C 0.89035 0.78925 0.7362 0.0
C1301 C 0.88222 0.78396 0.72073 0.0
C1302 C 0.86415 0.78259 0.71925 0.0
C1303 C 0.85438 0.78661 0.73293 0.0
C1304 C 0.89255 0.77943 0.70626 0.0
C1305 C 0.8897 0.76327 0.69928 0.0
C1306 C 0.90557 0.79061 0.69978 0.0
C1307 C 0.90863 0.80815 0.70601 0.0
C1308 C 0.89511 0.8191 0.70585 0.0
C1309 C 0.89805 0.83557 0.71183 0.0
C1310 C 0.9145 0.84129 0.71789 0.0
C1311 C 0.92805 0.83055 0.71794 0.0
C1312 C 0.92517 0.81405 0.71199 0.0
C1313 C 0.92305 0.75445 0.63594 0.0
C1314 C 0.9411 0.7542 0.63731 0.0
C1315 C 0.91386 0.75961 0.64956 0.0
C1316 C 0.92249 0.76456 0.66488 0.0
C1317 C 0.94055 0.76484 0.66616 0.0
C1318 C 0.94979 0.75964 0.65251 0.0
C1319 C 0.91256 0.76912 0.67962 0.0
C1320 C 0.91551 0.78524 0.68665 0.0
C1321 C 0.8996 0.75792 0.68616 0.0
C1322 C 0.8965 0.74039 0.6799 0.0
C1323 C 0.91001 0.72942 0.67999 0.0
C1324 C 0.90703 0.71297 0.67395 0.0
C1325 C 0.89056 0.7073 0.6679 0.0
C1326 C 0.87703 0.71806 0.66792 0.0
C1327 C 0.87994 0.73453 0.67393 0.0
H1328 H 0.88828 0.69456 0.66324 0.0
H1329 H 0.91675 0.85405 0.72252 0.0
H1330 H 0.04416 0.88663 0.49007 0.0
H1331 H 0.0343 0.86225 0.50677 0.0
H1332 H 0.02369 0.89489 0.54795 0.0
H1333 H 0.03393 0.91952 0.53123 0.0
H1334 H 0.03799 0.86657 0.5598 0.0
H1335 H 0.99073 0.87859 0.52225 0.0
H1336 H 0.97598 0.88531 0.49489 0.0
H1337 H 0.98942 0.83824 0.47446 0.0
H1338 H 0.00449 0.83133 0.50162 0.0
H1339 H 0.9917 0.79216 0.59434 0.0
H1340 H 0.99769 0.82109 0.5839 0.0
H1341 H 0.01836 0.80158 0.53875 0.0
H1342 H 0.01262 0.77291 0.54898 0.0
H1343 H 0.99446 0.82618 0.53229 0.0
H1344 H 0.04494 0.81655 0.5691 0.0
H1345 H 0.0594 0.80994 0.59665 0.0
H1346 H 0.03859 0.85289 0.619 0.0
H1347 H 0.02379 0.85961 0.59161 0.0
C1348 C 0.03966 0.88865 0.50265 0.0
C1349 C 0.03954 0.90499 0.50925 0.0
C1350 C 0.03403 0.8747 0.51219 0.0
C1351 C 0.02786 0.87677 0.52846 0.0
C1352 C 0.02827 0.89302 0.53537 0.0
C1353 C 0.0341 0.90705 0.52584 0.0
C1354 C 0.02083 0.86181 0.5379 0.0
C1355 C 0.02821 0.85792 0.55396 0.0
C1356 C 0.00805 0.85048 0.53028 0.0
C1357 C 0.99881 0.85448 0.51397 0.0
C1358 C 0.99062 0.86971 0.5119 0.0
C1359 C 0.9822 0.87355 0.49642 0.0
C1360 C 0.98178 0.86222 0.48294 0.0
C1361 C 0.98975 0.847 0.48492 0.0
C1362 C 0.99821 0.8431 0.50036 0.0
C1363 C 0.99752 0.79406 0.58219 0.0
C1364 C 0.00169 0.78021 0.57251 0.0
C1365 C 0.00097 0.81058 0.57629 0.0
C1366 C 0.00847 0.81343 0.56056 0.0
C1367 C 0.01253 0.79964 0.5509 0.0
C1368 C 0.00929 0.78324 0.55683 0.0
C1369 C 0.01208 0.83068 0.55382 0.0
C1370 C 0.00399 0.83502 0.53828 0.0
C1371 C 0.02406 0.84241 0.56198 0.0
C1372 C 0.03308 0.83845 0.57837 0.0
C1373 C 0.04332 0.8245 0.57992 0.0
C1374 C 0.05161 0.82075 0.5955 0.0
C1375 C 0.04986 0.83095 0.60958 0.0
C1376 C 0.03989 0.84497 0.60809 0.0
C1377 C 0.03156 0.84876 0.59254 0.0
H1378 H 0.05628 0.82803 0.62163 0.0
H1379 H 0.97526 0.86522 0.47097 0.0
H1380 H 0.13683 0.72415 0.73551 0.0
H1381 H 0.10953 0.72434 0.71876 0.0
H1382 H 0.13724 0.73799 0.67398 0.0
H1383 H 0.16443 0.73812 0.6907 0.0
H1384 H 0.11059 0.75617 0.67526 0.0
H1385 H 0.12006 0.697 0.68192 0.0
H1386 H 0.12517 0.67084 0.69797 0.0
H1387 H 0.07774 0.67465 0.72296 0.0
H1388 H 0.07245 0.70096 0.70722 0.0
H1389 H 0.05352 0.73032 0.6074 0.0
H1390 H 0.07699 0.73174 0.62901 0.0
H1391 H 0.04033 0.72842 0.66843 0.0
H1392 H 0.01656 0.72717 0.6468 0.0
H1393 H 0.06883 0.70643 0.67271 0.0
H1394 H 0.05839 0.76452 0.66282 0.0
H1395 H 0.05361 0.78983 0.6453 0.0
H1396 H 0.10357 0.78723 0.62496 0.0
H1397 H 0.10855 0.76173 0.64215 0.0
C1398 C 0.13706 0.7271 0.72207 0.0
C1399 C 0.15275 0.73114 0.71441 0.0
C1400 C 0.12147 0.7272 0.71251 0.0
C1401 C 0.12131 0.73105 0.69505 0.0
C1402 C 0.137 0.73507 0.68743 0.0
C1403 C 0.15253 0.73514 0.69699 0.0
C1404 C 0.10491 0.73095 0.6846 0.0
C1405 C 0.10154 0.74523 0.67464 0.0
C1406 C 0.09282 0.71687 0.6841 0.0
C1407 C 0.09596 0.70105 0.69355 0.0
C1408 C 0.11079 0.69233 0.69094 0.0
C1409 C 0.1137 0.67746 0.69996 0.0
C1410 C 0.10182 0.67112 0.71152 0.0
C1411 C 0.08695 0.6796 0.71404 0.0
C1412 C 0.08398 0.69448 0.70506 0.0
C1413 C 0.05038 0.72984 0.62065 0.0
C1414 C 0.03314 0.72865 0.62536 0.0
C1415 C 0.06383 0.73072 0.63298 0.0
C1416 C 0.06037 0.7303 0.65028 0.0
C1417 C 0.04322 0.7288 0.65512 0.0
C1418 C 0.02969 0.72814 0.64275 0.0
C1419 C 0.07483 0.73146 0.66317 0.0
C1420 C 0.07781 0.71742 0.67356 0.0
C1421 C 0.08667 0.74568 0.66395 0.0
C1422 C 0.08378 0.76112 0.65369 0.0
C1423 C 0.06831 0.76926 0.65451 0.0
C1424 C 0.06557 0.78366 0.64465 0.0
C1425 C 0.07827 0.79011 0.634 0.0
C1426 C 0.09374 0.7822 0.63321 0.0
C1427 C 0.09654 0.76779 0.64302 0.0
H1428 H 0.07613 0.80126 0.62639 0.0
H1429 H 0.1041 0.6596 0.71849 0.0
H1430 H 0.99601 0.57265 0.50277 0.0
H1431 H 0.99572 0.5995 0.51752 0.0
H1432 H 0.96601 0.57536 0.55679 0.0
H1433 H 0.96564 0.54858 0.54175 0.0
H1434 H 0.95366 0.60482 0.54826 0.0
H1435 H 0.00925 0.58547 0.56328 0.0
H1436 H 0.03758 0.57468 0.55828 0.0
H1437 H 0.05145 0.61934 0.5297 0.0
H1438 H 0.02309 0.63031 0.53433 0.0
H1439 H 0.96641 0.67427 0.60511 0.0
H1440 H 0.96747 0.64602 0.5932 0.0
H1441 H 0.99394 0.66711 0.55029 0.0
H1442 H 0.99287 0.69529 0.562 0.0
H1443 H 0.00816 0.63838 0.56251 0.0
H1444 H 0.95172 0.6568 0.54653 0.0
H1445 H 0.92341 0.66746 0.55192 0.0
H1446 H 0.91136 0.62412 0.58312 0.0
H1447 H 0.93972 0.61332 0.57809 0.0
C1448 C 0.98924 0.57307 0.51444 0.0
C1449 C 0.98089 0.55842 0.52109 0.0
C1450 C 0.98926 0.5884 0.52297 0.0
C1451 C 0.98108 0.5894 0.53842 0.0
C1452 C 0.9725 0.57488 0.54496 0.0
C1453 C 0.97243 0.55954 0.5364 0.0
C1454 C 0.98133 0.60564 0.54764 0.0
C1455 C 0.9656 0.61202 0.55162 0.0
C1456 C 0.99689 0.61518 0.55181 0.0
C1457 C 0.01398 0.60864 0.54902 0.0
C1458 C 0.01829 0.59294 0.55581 0.0
C1459 C 0.03436 0.5868 0.55307 0.0
C1460 C 0.04629 0.5963 0.54364 0.0
C1461 C 0.04219 0.61199 0.53698 0.0
C1462 C 0.02612 0.61818 0.53967 0.0
C1463 C 0.97256 0.67288 0.5932 0.0
C1464 C 0.9796 0.68705 0.58454 0.0
C1465 C 0.97311 0.65674 0.58639 0.0
C1466 C 0.98068 0.65449 0.57079 0.0
C1467 C 0.98809 0.66856 0.56236 0.0
C1468 C 0.98747 0.68468 0.5691 0.0
C1469 C 0.98051 0.63758 0.56297 0.0
C1470 C 0.99625 0.63109 0.55925 0.0
C1471 C 0.96498 0.62791 0.55912 0.0
C1472 C 0.94791 0.63435 0.56209 0.0
C1473 C 0.94309 0.64962 0.55465 0.0
C1474 C 0.92702 0.65567 0.55762 0.0
C1475 C 0.91561 0.6465 0.5679 0.0
C1476 C 0.92022 0.63123 0.57519 0.0
C1477 C 0.93628 0.62513 0.57228 0.0
H1478 H 0.90318 0.6512 0.57018 0.0
H1479 H 0.05873 0.59153 0.54153 0.0
H1480 H 0.73751 0.90497 0.22023 0.0
H1481 H 0.76151 0.92519 0.22764 0.0
H1482 H 0.79747 0.88759 0.21807 0.0
H1483 H 0.7735 0.86709 0.21118 0.0
H1484 H 0.8069 0.90499 0.24658 0.0
H1485 H 0.7894 0.91827 0.18891 0.0
H1486 H 0.76886 0.92548 0.16561 0.0
H1487 H 0.75824 0.97075 0.19144 0.0
H1488 H 0.77855 0.96369 0.21503 0.0
H1489 H 0.88288 0.95667 0.2367 0.0
H1490 H 0.85766 0.93721 0.23262 0.0
H1491 H 0.82459 0.97721 0.24264 0.0
H1492 H 0.84982 0.99694 0.24654 0.0
H1493 H 0.81288 0.9593 0.21517 0.0
H1494 H 0.8316 0.94665 0.27227 0.0
H1495 H 0.85232 0.9394 0.2954 0.0
H1496 H 0.86082 0.89296 0.27061 0.0
H1497 H 0.84032 0.90003 0.2472 0.0
C1498 C 0.75051 0.90091 0.21991 0.0
C1499 C 0.75358 0.88441 0.21507 0.0
C1500 C 0.76423 0.91255 0.22399 0.0
C1501 C 0.78129 0.90796 0.2232 0.0
C1502 C 0.78441 0.89141 0.2187 0.0
C1503 C 0.77069 0.87976 0.21463 0.0
C1504 C 0.79592 0.92047 0.22683 0.0
C1505 C 0.80831 0.91679 0.2396 0.0
C1506 C 0.79752 0.93606 0.21801 0.0
C1507 C 0.78535 0.94036 0.20382 0.0
C1508 C 0.78258 0.92969 0.18969 0.0
C1509 C 0.771 0.93376 0.17642 0.0
C1510 C 0.76222 0.94854 0.17707 0.0
C1511 C 0.76503 0.9593 0.19097 0.0
C1512 C 0.77658 0.95527 0.20429 0.0
C1513 C 0.87028 0.96139 0.23812 0.0
C1514 C 0.86842 0.97842 0.24199 0.0
C1515 C 0.85585 0.95019 0.23585 0.0
C1516 C 0.83924 0.9557 0.23753 0.0
C1517 C 0.8373 0.97268 0.24133 0.0
C1518 C 0.85174 0.98393 0.2436 0.0
C1519 C 0.82394 0.94377 0.23485 0.0
C1520 C 0.81142 0.94756 0.22225 0.0
C1521 C 0.82224 0.92827 0.24382 0.0
C1522 C 0.83453 0.92394 0.25791 0.0
C1523 C 0.83798 0.93495 0.27169 0.0
C1524 C 0.84968 0.93086 0.28486 0.0
C1525 C 0.85791 0.91575 0.28445 0.0
C1526 C 0.85444 0.90467 0.2709 0.0
C1527 C 0.84277 0.9087 0.25768 0.0
H1528 H 0.86696 0.91261 0.29466 0.0
H1529 H 0.75326 0.95167 0.16678 0.0
H1530 H 0.74906 0.15445 0.27067 0.0
H1531 H 0.76802 0.13087 0.27288 0.0
H1532 H 0.80882 0.16229 0.25141 0.0
H1533 H 0.78988 0.18559 0.24886 0.0
H1534 H 0.80685 0.13323 0.23674 0.0
H1535 H 0.80745 0.15166 0.29505 0.0
H1536 H 0.79445 0.15825 0.32197 0.0
H1537 H 0.77325 0.10725 0.32564 0.0
H1538 H 0.78595 0.10041 0.29861 0.0
H1539 H 0.88242 0.09402 0.25794 0.0
H1540 H 0.85923 0.1131 0.25925 0.0
H1541 H 0.82366 0.07134 0.27091 0.0
H1542 H 0.84695 0.05194 0.26956 0.0
H1543 H 0.81997 0.10211 0.29021 0.0
H1544 H 0.82207 0.08363 0.23258 0.0
H1545 H 0.83634 0.07763 0.2062 0.0
H1546 H 0.85352 0.1298 0.20178 0.0
H1547 H 0.83956 0.13607 0.22828 0.0
C1548 C 0.76212 0.15629 0.26653 0.0
C1549 C 0.76796 0.17181 0.25948 0.0
C1550 C 0.77295 0.14284 0.26783 0.0
C1551 C 0.78991 0.1448 0.26239 0.0
C1552 C 0.79577 0.16039 0.25558 0.0
C1553 C 0.78493 0.17371 0.2541 0.0
C1554 C 0.8016 0.13065 0.26329 0.0
C1555 C 0.80977 0.12655 0.24849 0.0
C1556 C 0.80507 0.12149 0.27847 0.0
C1557 C 0.79747 0.12558 0.29472 0.0
C1558 C 0.7999 0.14189 0.30153 0.0
C1559 C 0.79261 0.14566 0.31682 0.0
C1560 C 0.78299 0.13319 0.32548 0.0
C1561 C 0.78068 0.11691 0.3189 0.0
C1562 C 0.78792 0.11307 0.3036 0.0
C1563 C 0.86974 0.08883 0.26096 0.0
C1564 C 0.86652 0.0714 0.26348 0.0
C1565 C 0.85648 0.09979 0.26169 0.0
C1566 C 0.8397 0.0936 0.26497 0.0
C1567 C 0.83653 0.07634 0.26833 0.0
C1568 C 0.84983 0.06529 0.26751 0.0
C1569 C 0.82548 0.1052 0.26381 0.0
C1570 C 0.81683 0.10872 0.27847 0.0
C1571 C 0.82162 0.11398 0.24854 0.0
C1572 C 0.82987 0.11029 0.23249 0.0
C1573 C 0.82899 0.0938 0.22605 0.0
C1574 C 0.83701 0.09035 0.21107 0.0
C1575 C 0.84586 0.10332 0.20234 0.0
C1576 C 0.84667 0.11977 0.20856 0.0
C1577 C 0.83869 0.12328 0.22355 0.0
H1578 H 0.85206 0.10063 0.19074 0.0
H1579 H 0.77736 0.13614 0.33732 0.0
H1580 H 0.42207 0.93199 0.98932 0.0
H1581 H 0.39457 0.91582 0.9909 0.0
H1582 H 0.36762 0.96058 0.97904 0.0
H1583 H 0.39524 0.97693 0.97728 0.0
H1584 H 0.35335 0.94256 0.00517 0.0
H1585 H 0.36979 0.93117 0.94906 0.0
H1586 H 0.38924 0.92316 0.92709 0.0
H1587 H 0.39291 0.87433 0.9503 0.0
H1588 H 0.37367 0.88213 0.97256 0.0
H1589 H 0.27409 0.89079 0.9954 0.0
H1590 H 0.29812 0.91134 0.99027 0.0
H1591 H 0.33402 0.87269 0.99951 0.0
H1592 H 0.3103 0.85216 0.0044 0.0
H1593 H 0.34149 0.89032 0.97158 0.0
H1594 H 0.3277 0.90283 0.02923 0.0
H1595 H 0.30867 0.91084 0.05159 0.0
H1596 H 0.30011 0.95748 0.0255 0.0
H1597 H 0.31892 0.94964 0.00287 0.0
C1598 C 0.41032 0.93839 0.98679 0.0
C1599 C 0.41088 0.95573 0.98299 0.0
C1600 C 0.39459 0.92912 0.98776 0.0
C1601 C 0.37904 0.93694 0.98486 0.0
C1602 C 0.37948 0.95429 0.98129 0.0
C1603 C 0.39526 0.96361 0.98032 0.0
C1604 C 0.3624 0.92686 0.98574 0.0
C1605 C 0.35058 0.93131 0.9976 0.0
C1606 C 0.35889 0.91209 0.976 0.0
C1607 C 0.37036 0.90728 0.96255 0.0
C1608 C 0.37483 0.91876 0.94954 0.0
C1609 C 0.38581 0.91425 0.93703 0.0
C1610 C 0.39233 0.89826 0.93731 0.0
C1611 C 0.38785 0.88672 0.9501 0.0
C1612 C 0.37689 0.89117 0.96265 0.0
C1613 C 0.28711 0.88669 0.99638 0.0
C1614 C 0.29022 0.86978 0.00027 0.0
C1615 C 0.30083 0.89846 0.99349 0.0
C1616 C 0.31788 0.89356 0.99455 0.0
C1617 C 0.32098 0.87675 0.99852 0.0
C1618 C 0.30735 0.86501 0.00136 0.0
C1619 C 0.33266 0.90572 0.99137 0.0
C1620 C 0.34413 0.90169 0.97901 0.0
C1621 C 0.33582 0.92084 0.00065 0.0
C1622 C 0.32454 0.92556 0.01426 0.0
C1623 C 0.32164 0.91473 0.0282 0.0
C1624 C 0.31092 0.91925 0.04093 0.0
C1625 C 0.30314 0.93463 0.03994 0.0
C1626 C 0.30611 0.94555 0.02624 0.0
C1627 C 0.31681 0.94108 0.01346 0.0
H1628 H 0.29484 0.93812 0.04981 0.0
H1629 H 0.40083 0.89479 0.92762 0.0
H1630 H 0.24433 0.32972 0.29192 0.0
H1631 H 0.22071 0.34843 0.28658 0.0
H1632 H 0.25594 0.39164 0.29648 0.0
H1633 H 0.27936 0.37307 0.30208 0.0
H1634 H 0.22719 0.3962 0.31078 0.0
H1635 H 0.24295 0.37802 0.25538 0.0
H1636 H 0.24744 0.35708 0.23335 0.0
H1637 H 0.19437 0.33912 0.23466 0.0
H1638 H 0.18964 0.35984 0.25686 0.0
H1639 H 0.19074 0.45268 0.24182 0.0
H1640 H 0.20342 0.42652 0.24995 0.0
H1641 H 0.17288 0.42285 0.2943 0.0
H1642 H 0.1604 0.44961 0.28649 0.0
H1643 H 0.19452 0.39506 0.25523 0.0
H1644 H 0.1975 0.40661 0.32689 0.0
H1645 H 0.19624 0.42991 0.34722 0.0
H1646 H 0.21709 0.46489 0.31055 0.0
H1647 H 0.21864 0.44178 0.2901 0.0
C1648 C 0.24699 0.34322 0.29292 0.0
C1649 C 0.26369 0.34994 0.29743 0.0
C1650 C 0.23349 0.3539 0.2899 0.0
C1651 C 0.23654 0.37148 0.29104 0.0
C1652 C 0.2532 0.37813 0.29566 0.0
C1653 C 0.2666 0.3675 0.29884 0.0
C1654 C 0.22269 0.38317 0.28698 0.0
C1655 C 0.21991 0.39581 0.2987 0.0
C1656 C 0.21316 0.38275 0.27123 0.0
C1657 C 0.216 0.37031 0.25792 0.0
C1658 C 0.23228 0.36951 0.25106 0.0
C1659 C 0.23486 0.3577 0.23853 0.0
C1660 C 0.22121 0.34674 0.23265 0.0
C1661 C 0.20494 0.34759 0.23926 0.0
C1662 C 0.2023 0.35936 0.2518 0.0
C1663 C 0.18649 0.44628 0.25323 0.0
C1664 C 0.17476 0.45347 0.26367 0.0
C1665 C 0.19371 0.43119 0.2578 0.0
C1666 C 0.18936 0.42281 0.27289 0.0
C1667 C 0.17668 0.42925 0.28274 0.0
C1668 C 0.16949 0.44451 0.27821 0.0
C1669 C 0.19944 0.40839 0.27881 0.0
C1670 C 0.20146 0.39517 0.26749 0.0
C1671 C 0.20868 0.40856 0.29471 0.0
C1672 C 0.20796 0.42252 0.30693 0.0
C1673 C 0.20183 0.41928 0.3232 0.0
C1674 C 0.20107 0.43244 0.33473 0.0
C1675 C 0.20651 0.44888 0.33015 0.0
C1676 C 0.21281 0.45217 0.31405 0.0
C1677 C 0.21363 0.43905 0.30249 0.0
H1678 H 0.2059 0.45906 0.33909 0.0
H1679 H 0.22324 0.33761 0.22295 0.0
H1680 H 0.10266 0.03486 0.48332 0.0
H1681 H 0.12433 0.05735 0.49084 0.0
H1682 H 0.15986 0.02041 0.5076 0.0
H1683 H 0.13795 0.99782 0.50086 0.0
H1684 H 0.16258 0.04667 0.5284 0.0
H1685 H 0.16225 0.03891 0.46828 0.0
H1686 H 0.14947 0.03644 0.43913 0.0
H1687 H 0.13294 0.08688 0.44162 0.0
H1688 H 0.14542 0.08958 0.47089 0.0
H1689 H 0.2382 0.10287 0.52343 0.0
H1690 H 0.21676 0.07924 0.51915 0.0
H1691 H 0.17795 0.11409 0.50579 0.0
H1692 H 0.19915 0.1377 0.50997 0.0
H1693 H 0.1779 0.08812 0.48324 0.0
H1694 H 0.17853 0.09532 0.54397 0.0
H1695 H 0.19209 0.09734 0.57283 0.0
H1696 H 0.20926 0.04729 0.56865 0.0
H1697 H 0.196 0.04506 0.53965 0.0
C1698 C 0.11494 0.03149 0.48893 0.0
C1699 C 0.11859 0.01449 0.49134 0.0
C1700 C 0.12741 0.04438 0.49305 0.0
C1701 C 0.14386 0.04056 0.49945 0.0
C1702 C 0.14731 0.02366 0.50254 0.0
C1703 C 0.13481 0.01075 0.49853 0.0
C1704 C 0.15761 0.05416 0.50237 0.0
C1705 C 0.16608 0.0556 0.51846 0.0
C1706 C 0.16209 0.06593 0.48946 0.0
C1707 C 0.15463 0.06438 0.47183 0.0
C1708 C 0.15578 0.04943 0.46265 0.0
C1709 C 0.1486 0.048 0.4461 0.0
C1710 C 0.14036 0.06148 0.43854 0.0
C1711 C 0.13931 0.07644 0.4475 0.0
C1712 C 0.14644 0.07794 0.46407 0.0
C1713 C 0.2251 0.10551 0.51962 0.0
C1714 C 0.22043 0.12221 0.51705 0.0
C1715 C 0.21285 0.09199 0.51725 0.0
C1716 C 0.19574 0.09493 0.51224 0.0
C1717 C 0.19108 0.11155 0.50965 0.0
C1718 C 0.20324 0.12504 0.5121 0.0
C1719 C 0.18269 0.08075 0.50931 0.0
C1720 C 0.1744 0.07917 0.49317 0.0
C1721 C 0.17851 0.06879 0.52212 0.0
C1722 C 0.18644 0.0701 0.53957 0.0
C1723 C 0.18533 0.0848 0.54915 0.0
C1724 C 0.19293 0.08598 0.56554 0.0
C1725 C 0.20158 0.07247 0.57255 0.0
C1726 C 0.20259 0.05775 0.56319 0.0
C1727 C 0.19502 0.05652 0.54678 0.0
H1728 H 0.20745 0.07341 0.58525 0.0
H1729 H 0.13481 0.06035 0.42573 0.0
H1730 H 0.7535 0.16917 0.7185 0.0
H1731 H 0.72938 0.14866 0.72377 0.0
H1732 H 0.76462 0.10886 0.72777 0.0
H1733 H 0.78869 0.12923 0.7226 0.0
H1734 H 0.73466 0.10146 0.70629 0.0
H1735 H 0.75084 0.12356 0.76254 0.0
H1736 H 0.7559 0.14632 0.78357 0.0
H1737 H 0.70358 0.15984 0.77564 0.0
H1738 H 0.69828 0.13729 0.75437 0.0
H1739 H 0.69668 0.0319 0.74754 0.0
H1740 H 0.71397 0.05624 0.73776 0.0
H1741 H 0.67234 0.08816 0.74617 0.0
H1742 H 0.65496 0.06367 0.75646 0.0
H1743 H 0.70144 0.10253 0.75846 0.0
H1744 H 0.68354 0.07851 0.70538 0.0
H1745 H 0.67768 0.05622 0.68399 0.0
H1746 H 0.73151 0.04725 0.68448 0.0
H1747 H 0.73767 0.06932 0.70607 0.0
C1748 C 0.75605 0.15604 0.72052 0.0
C1749 C 0.77295 0.15078 0.72024 0.0
C1750 C 0.74231 0.14438 0.72356 0.0
C1751 C 0.74526 0.12728 0.72616 0.0
C1752 C 0.7621 0.12201 0.72577 0.0
C1753 C 0.77583 0.13366 0.72296 0.0
C1754 C 0.73091 0.11473 0.72936 0.0
C1755 C 0.72741 0.10161 0.71771 0.0
C1756 C 0.72104 0.11538 0.74393 0.0
C1757 C 0.72423 0.12889 0.75672 0.0
C1758 C 0.74046 0.13149 0.76516 0.0
C1759 C 0.74337 0.14433 0.77715 0.0
C1760 C 0.73009 0.15456 0.78089 0.0
C1761 C 0.71387 0.15193 0.7727 0.0
C1762 C 0.7109 0.13912 0.76068 0.0
C1763 C 0.69104 0.04402 0.74708 0.0
C1764 C 0.67438 0.04582 0.75266 0.0
C1765 C 0.70096 0.05797 0.74142 0.0
C1766 C 0.69437 0.07402 0.74092 0.0
C1767 C 0.67766 0.07588 0.74635 0.0
C1768 C 0.66773 0.06188 0.75217 0.0
C1769 C 0.70547 0.08885 0.73563 0.0
C1770 C 0.70838 0.10246 0.74685 0.0
C1771 C 0.71465 0.08877 0.72052 0.0
C1772 C 0.71105 0.07553 0.70743 0.0
C1773 C 0.69412 0.07172 0.70101 0.0
C1774 C 0.69074 0.05913 0.68884 0.0
C1775 C 0.70421 0.05031 0.6829 0.0
C1776 C 0.72109 0.0541 0.68909 0.0
C1777 C 0.72453 0.06667 0.70128 0.0
H1778 H 0.70157 0.04056 0.67348 0.0
H1779 H 0.73236 0.16448 0.79018 0.0
H1780 H 0.41733 0.0149 0.51455 0.0
H1781 H 0.39021 0.02903 0.5148 0.0
H1782 H 0.41498 0.06809 0.5466 0.0
H1783 H 0.44192 0.0539 0.54668 0.0
H1784 H 0.38316 0.05825 0.55719 0.0
H1785 H 0.40912 0.0739 0.50405 0.0
H1786 H 0.42099 0.06807 0.47637 0.0
H1787 H 0.37286 0.04294 0.45975 0.0
H1788 H 0.36078 0.04843 0.48744 0.0
H1789 H 0.33697 0.13027 0.54656 0.0
H1790 H 0.35819 0.10907 0.54639 0.0
H1791 H 0.32413 0.07784 0.51348 0.0
H1792 H 0.3027 0.09929 0.5134 0.0
H1793 H 0.357 0.07931 0.50306 0.0
H1794 H 0.32976 0.06708 0.55487 0.0
H1795 H 0.31785 0.07313 0.58245 0.0
H1796 H 0.36792 0.09144 0.60171 0.0
H1797 H 0.38011 0.08574 0.57416 0.0
C1798 C 0.41691 0.02638 0.52177 0.0
C1799 C 0.43179 0.03335 0.5305 0.0
C1800 C 0.40145 0.0345 0.5218 0.0
C1801 C 0.40062 0.04971 0.53057 0.0
C1802 C 0.41533 0.05639 0.53971 0.0
C1803 C 0.43076 0.04834 0.53963 0.0
C1804 C 0.38466 0.05904 0.52999 0.0
C1805 C 0.37748 0.06292 0.54537 0.0
C1806 C 0.37689 0.06464 0.51452 0.0
C1807 C 0.38413 0.06139 0.49787 0.0
C1808 C 0.40112 0.06701 0.49454 0.0
C1809 C 0.40787 0.06379 0.47884 0.0
C1810 C 0.3977 0.05509 0.46633 0.0
C1811 C 0.38073 0.04964 0.46947 0.0
C1812 C 0.37393 0.05281 0.48515 0.0
C1813 C 0.3339 0.1189 0.5393 0.0
C1814 C 0.31808 0.11646 0.53005 0.0
C1815 C 0.34604 0.10672 0.53929 0.0
C1816 C 0.34265 0.09173 0.53016 0.0
C1817 C 0.32697 0.08928 0.52071 0.0
C1818 C 0.31474 0.10153 0.5207 0.0
C1819 C 0.3558 0.07894 0.53032 0.0
C1820 C 0.36246 0.07439 0.51488 0.0
C1821 C 0.36308 0.07268 0.54575 0.0
C1822 C 0.35583 0.07607 0.56239 0.0
C1823 C 0.33822 0.07251 0.56495 0.0
C1824 C 0.33142 0.07586 0.58058 0.0
C1825 C 0.34211 0.08269 0.59382 0.0
C1826 C 0.35965 0.08615 0.59145 0.0
C1827 C 0.36652 0.08284 0.57583 0.0
H1828 H 0.33682 0.08528 0.60591 0.0
H1829 H 0.40295 0.05261 0.45418 0.0
H1830 H 0.62966 0.50289 0.54523 0.0
H1831 H 0.65112 0.484 0.53659 0.0
H1832 H 0.6155 0.46338 0.49755 0.0
H1833 H 0.5939 0.48245 0.50603 0.0
H1834 H 0.63079 0.43888 0.51555 0.0
H1835 H 0.64951 0.48933 0.48686 0.0
H1836 H 0.65778 0.51963 0.48394 0.0
H1837 H 0.7 0.51466 0.52027 0.0
H1838 H 0.69184 0.48437 0.5236 0.0
H1839 H 0.69509 0.38921 0.48498 0.0
H1840 H 0.67391 0.41069 0.48495 0.0
H1841 H 0.70364 0.43708 0.52505 0.0
H1842 H 0.725 0.41586 0.52497 0.0
H1843 H 0.69036 0.45894 0.50249 0.0
H1844 H 0.6695 0.40977 0.53376 0.0
H1845 H 0.66109 0.37958 0.53753 0.0
H1846 H 0.62277 0.38242 0.49681 0.0
H1847 H 0.63112 0.41259 0.49267 0.0
C1848 C 0.62645 0.49455 0.53461 0.0
C1849 C 0.61008 0.49428 0.52625 0.0
C1850 C 0.63874 0.48373 0.5297 0.0
C1851 C 0.63501 0.47245 0.51626 0.0
C1852 C 0.61866 0.47204 0.50792 0.0
C1853 C 0.60632 0.48289 0.51283 0.0
C1854 C 0.648 0.46065 0.51147 0.0
C1855 C 0.64371 0.44327 0.51233 0.0
C1856 C 0.66496 0.46638 0.5076 0.0
C1857 C 0.66998 0.48459 0.50556 0.0
C1858 C 0.66049 0.49472 0.49432 0.0
C1859 C 0.66517 0.51189 0.49258 0.0
C1860 C 0.67939 0.51907 0.50193 0.0
C1861 C 0.68899 0.50908 0.51303 0.0
C1862 C 0.68435 0.49191 0.51483 0.0
C1863 C 0.69726 0.39971 0.49362 0.0
C1864 C 0.71166 0.40071 0.50511 0.0
C1865 C 0.6851 0.41195 0.49363 0.0
C1866 C 0.68703 0.42533 0.50521 0.0
C1867 C 0.70185 0.42683 0.51605 0.0
C1868 C 0.71404 0.41465 0.51601 0.0
C1869 C 0.67321 0.4372 0.50683 0.0
C1870 C 0.67736 0.45457 0.50543 0.0
C1871 C 0.65613 0.43148 0.51026 0.0
C1872 C 0.65107 0.41337 0.51277 0.0
C1873 C 0.65938 0.40392 0.52553 0.0
C1874 C 0.65461 0.38682 0.52774 0.0
C1875 C 0.64144 0.37907 0.51738 0.0
C1876 C 0.63299 0.38842 0.50481 0.0
C1877 C 0.63773 0.40552 0.50252 0.0
H1878 H 0.63776 0.36584 0.51912 0.0
H1879 H 0.68299 0.53237 0.50057 0.0
H1880 H 0.71799 0.29366 0.31048 0.0
H1881 H 0.71691 0.30741 0.33804 0.0
H1882 H 0.71904 0.25904 0.36321 0.0
H1883 H 0.71954 0.24524 0.33563 0.0
H1884 H 0.6979 0.277 0.37865 0.0
H1885 H 0.75536 0.28726 0.35914 0.0
H1886 H 0.77729 0.29731 0.33918 0.0
H1887 H 0.76053 0.34763 0.34227 0.0
H1888 H 0.73834 0.33782 0.36208 0.0
H1889 H 0.74011 0.29638 0.45786 0.0
H1890 H 0.73263 0.28763 0.42874 0.0
H1891 H 0.71831 0.33791 0.41598 0.0
H1892 H 0.72551 0.3468 0.44541 0.0
H1893 H 0.74235 0.32254 0.39352 0.0
H1894 H 0.68726 0.31137 0.4171 0.0
H1895 H 0.66716 0.30005 0.43826 0.0
H1896 H 0.68161 0.24984 0.42872 0.0
H1897 H 0.702 0.26089 0.40769 0.0
C1898 C 0.71814 0.28599 0.32192 0.0
C1899 C 0.71896 0.26841 0.32097 0.0
C1900 C 0.71756 0.29385 0.33766 0.0
C1901 C 0.71822 0.28431 0.35275 0.0
C1902 C 0.71851 0.26668 0.35176 0.0
C1903 C 0.71881 0.2588 0.33601 0.0
C1904 C 0.71921 0.29264 0.36961 0.0
C1905 C 0.70767 0.2869 0.38189 0.0
C1906 C 0.73171 0.30585 0.3738 0.0
C1907 C 0.74506 0.31177 0.36192 0.0
C1908 C 0.75627 0.30044 0.35545 0.0
C1909 C 0.76876 0.3061 0.34419 0.0
C1910 C 0.77027 0.32309 0.33942 0.0
C1911 C 0.75932 0.33446 0.34594 0.0
C1912 C 0.74679 0.32887 0.35719 0.0
C1913 C 0.73529 0.3056 0.44891 0.0
C1914 C 0.73345 0.3223 0.45391 0.0
C1915 C 0.73095 0.30054 0.4323 0.0
C1916 C 0.72485 0.31211 0.42028 0.0
C1917 C 0.72294 0.32881 0.42515 0.0
C1918 C 0.72701 0.33384 0.44193 0.0
C1919 C 0.72127 0.30665 0.40251 0.0
C1920 C 0.73236 0.31288 0.39011 0.0
C1921 C 0.70858 0.2937 0.39831 0.0
C1922 C 0.69626 0.28698 0.41089 0.0
C1923 C 0.68626 0.29793 0.41961 0.0
C1924 C 0.67479 0.29155 0.43157 0.0
C1925 C 0.67313 0.27424 0.43485 0.0
C1926 C 0.68291 0.26325 0.42617 0.0
C1927 C 0.69441 0.26956 0.41421 0.0
H1928 H 0.66425 0.26933 0.44411 0.0
H1929 H 0.77995 0.32744 0.3307 0.0
H1930 H 0.50291 0.97884 0.90592 0.0
H1931 H 0.51912 0.9799 0.87994 0.0
H1932 H 0.55214 0.02096 0.90063 0.0
H1933 H 0.53582 0.02019 0.9264 0.0
H1934 H 0.54311 0.02631 0.86732 0.0
H1935 H 0.56476 0.98092 0.90207 0.0
H1936 H 0.56209 0.95416 0.91812 0.0
H1937 H 0.54239 0.9284 0.873 0.0
H1938 H 0.54474 0.95508 0.85673 0.0
H1939 H 0.62082 0.02672 0.82661 0.0
H1940 H 0.59775 0.0243 0.84642 0.0
H1941 H 0.57306 0.98306 0.8175 0.0
H1942 H 0.59642 0.98528 0.79752 0.0
H1943 H 0.57386 0.97632 0.85143 0.0
H1944 H 0.556 0.02118 0.8158 0.0
H1945 H 0.55902 0.04793 0.7998 0.0
H1946 H 0.57141 0.07476 0.84622 0.0
H1947 H 0.56872 0.04814 0.86249 0.0
C1948 C 0.51348 0.98824 0.90482 0.0
C1949 C 0.51816 0.99937 0.91826 0.0
C1950 C 0.5228 0.98875 0.89003 0.0
C1951 C 0.53695 0.00039 0.88842 0.0
C1952 C 0.54129 0.01184 0.9016 0.0
C1953 C 0.53204 0.0113 0.91639 0.0
C1954 C 0.54766 0.00044 0.87331 0.0
C1955 C 0.5499 0.01542 0.86388 0.0
C1956 C 0.55608 0.98605 0.86848 0.0
C1957 C 0.55472 0.97001 0.87824 0.0
C1958 C 0.55972 0.96957 0.89561 0.0
C1959 C 0.5583 0.95442 0.90474 0.0
C1960 C 0.55202 0.9396 0.8966 0.0
C1961 C 0.54721 0.93989 0.8793 0.0
C1962 C 0.54859 0.95502 0.87011 0.0
C1963 C 0.61049 0.01714 0.82435 0.0
C1964 C 0.61046 0.00621 0.81042 0.0
C1965 C 0.59722 0.01585 0.83568 0.0
C1966 C 0.58352 0.00368 0.83331 0.0
C1967 C 0.58346 0.99262 0.8195 0.0
C1968 C 0.59679 0.99392 0.80809 0.0
C1969 C 0.56968 0.00235 0.84571 0.0
C1970 C 0.56684 0.98715 0.85464 0.0
C1971 C 0.56069 0.01654 0.85007 0.0
C1972 C 0.56225 0.03262 0.84035 0.0
C1973 C 0.55949 0.03277 0.82259 0.0
C1974 C 0.56112 0.04791 0.81347 0.0
C1975 C 0.56543 0.06303 0.82199 0.0
C1976 C 0.56807 0.06304 0.83964 0.0
C1977 C 0.56647 0.04792 0.84882 0.0
H1978 H 0.56669 0.07475 0.8149 0.0
H1979 H 0.55093 0.92788 0.90369 0.0
H1980 H 0.27788 0.25116 0.35113 0.0
H1981 H 0.2692 0.23066 0.37285 0.0
H1982 H 0.32198 0.218 0.3813 0.0
H1983 H 0.33073 0.23811 0.35913 0.0
H1984 H 0.29908 0.18999 0.38417 0.0
H1985 H 0.30678 0.24648 0.40584 0.0
H1986 H 0.30215 0.27689 0.40622 0.0
H1987 H 0.24802 0.26592 0.41179 0.0
H1988 H 0.25229 0.23542 0.41118 0.0
H1989 H 0.29439 0.16336 0.47181 0.0
H1990 H 0.30121 0.17479 0.44374 0.0
H1991 H 0.24937 0.19066 0.43657 0.0
H1992 H 0.2426 0.17962 0.46458 0.0
H1993 H 0.2719 0.21617 0.43227 0.0
H1994 H 0.26462 0.15922 0.41244 0.0
H1995 H 0.26967 0.1289 0.41222 0.0
H1996 H 0.32319 0.14047 0.40379 0.0
H1997 H 0.31852 0.17088 0.4042 0.0
C1998 C 0.2876 0.24371 0.35726 0.0
C1999 C 0.30504 0.24643 0.35353 0.0
C2000 C 0.28262 0.23206 0.36976 0.0
C2001 C 0.29499 0.22301 0.37887 0.0
C2002 C 0.31225 0.22491 0.37447 0.0
C2003 C 0.31724 0.23654 0.36193 0.0
C2004 C 0.29016 0.21291 0.39404 0.0
C2005 C 0.29325 0.19569 0.39477 0.0
C2006 C 0.28241 0.22035 0.40777 0.0
C2007 C 0.27983 0.23868 0.40829 0.0
C2008 C 0.29387 0.25055 0.40702 0.0
C2009 C 0.29132 0.2678 0.40729 0.0
C2010 C 0.2748 0.27333 0.40899 0.0
C2011 C 0.2608 0.26162 0.41046 0.0
C2012 C 0.26329 0.24435 0.41015 0.0
C2013 C 0.28435 0.16893 0.46407 0.0
C2014 C 0.26803 0.17079 0.4705 0.0
C2015 C 0.28825 0.17543 0.44801 0.0
C2016 C 0.27581 0.18366 0.43807 0.0
C2017 C 0.2592 0.18449 0.44406 0.0
C2018 C 0.25536 0.17817 0.46009 0.0
C2019 C 0.28048 0.19308 0.4224 0.0
C2020 C 0.27754 0.21032 0.42164 0.0
C2021 C 0.2884 0.18562 0.40876 0.0
C2022 C 0.29125 0.16734 0.40852 0.0
C2023 C 0.2775 0.15531 0.41069 0.0
C2024 C 0.28029 0.1381 0.4105 0.0
C2025 C 0.29675 0.13276 0.40804 0.0
C2026 C 0.31045 0.14462 0.40572 0.0
C2027 C 0.30774 0.16185 0.40591 0.0
H2028 H 0.29887 0.11943 0.40788 0.0
H2029 H 0.27285 0.2867 0.4092 0.0
H2030 H 0.52094 0.50314 0.90129 0.0
H2031 H 0.49935 0.51199 0.8804 0.0
H2032 H 0.45925 0.49836 0.91488 0.0
H2033 H 0.48102 0.48918 0.93597 0.0
H2034 H 0.45015 0.48683 0.88467 0.0
H2035 H 0.4696 0.5405 0.90483 0.0
H2036 H 0.49022 0.56358 0.91447 0.0
H2037 H 0.5112 0.56661 0.86502 0.0
H2038 H 0.49089 0.54338 0.85513 0.0
H2039 H 0.39967 0.51891 0.81153 0.0
H2040 H 0.41112 0.51878 0.84128 0.0
H2041 H 0.46223 0.51372 0.8239 0.0
H2042 H 0.45097 0.51336 0.79454 0.0
H2043 H 0.45855 0.53931 0.85064 0.0
H2044 H 0.44298 0.48011 0.83482 0.0
H2045 H 0.4217 0.45733 0.82572 0.0
H2046 H 0.39169 0.46657 0.86867 0.0
H2047 H 0.41272 0.48957 0.87788 0.0
C2048 C 0.50758 0.50236 0.90463 0.0
C2049 C 0.50273 0.49563 0.92038 0.0
C2050 C 0.4952 0.50746 0.89265 0.0
C2051 C 0.47765 0.5062 0.89616 0.0
C2052 C 0.47271 0.49957 0.91192 0.0
C2053 C 0.48515 0.49431 0.92394 0.0
C2054 C 0.46464 0.51075 0.88274 0.0
C2055 C 0.45169 0.49854 0.87756 0.0
C2056 C 0.46648 0.52606 0.87343 0.0
C2057 C 0.47872 0.54014 0.87925 0.0
C2058 C 0.47867 0.54602 0.89603 0.0
C2059 C 0.49031 0.55914 0.90154 0.0
C2060 C 0.50202 0.56655 0.89037 0.0
C2061 C 0.50211 0.56087 0.87365 0.0
C2062 C 0.49051 0.54774 0.86807 0.0
C2063 C 0.41335 0.5179 0.81414 0.0
C2064 C 0.42443 0.51602 0.80078 0.0
C2065 C 0.41984 0.51781 0.83107 0.0
C2066 C 0.43751 0.51628 0.8347 0.0
C2067 C 0.44858 0.51499 0.82133 0.0
C2068 C 0.44209 0.51467 0.80458 0.0
C2069 C 0.44479 0.5151 0.85232 0.0
C2070 C 0.45667 0.52793 0.85821 0.0
C2071 C 0.44179 0.50052 0.86241 0.0
C2072 C 0.42926 0.48668 0.85689 0.0
C2073 C 0.43175 0.47738 0.84222 0.0
C2074 C 0.41977 0.46441 0.83707 0.0
C2075 C 0.40532 0.46054 0.84658 0.0
C2076 C 0.40286 0.46961 0.86129 0.0
C2077 C 0.41481 0.4826 0.86648 0.0
H2078 H 0.39605 0.4505 0.84257 0.0
H2079 H 0.51102 0.57671 0.89466 0.0
H2080 H 0.73968 0.77907 0.16165 0.0
H2081 H 0.7482 0.7558 0.14446 0.0
H2082 H 0.69481 0.74199 0.13157 0.0
H2083 H 0.68615 0.76488 0.1492 0.0
H2084 H 0.7131 0.71417 0.13624 0.0
H2085 H 0.71804 0.7666 0.10507 0.0
H2086 H 0.72821 0.79621 0.10036 0.0
H2087 H 0.78065 0.78223 0.10385 0.0
H2088 H 0.77078 0.75255 0.10882 0.0
H2089 H 0.74116 0.69488 0.0448 0.0
H2090 H 0.73116 0.71304 0.06646 0.0
H2091 H 0.75203 0.68086 0.10565 0.0
H2092 H 0.76174 0.66225 0.08389 0.0
H2093 H 0.75017 0.73112 0.08867 0.0
H2094 H 0.72864 0.68486 0.14168 0.0
H2095 H 0.71628 0.65571 0.14477 0.0
H2096 H 0.69308 0.65792 0.09437 0.0
H2097 H 0.70511 0.68714 0.09106 0.0
C2098 C 0.72973 0.77087 0.15547 0.0
C2099 C 0.71223 0.77395 0.15665 0.0
C2100 C 0.73463 0.75764 0.14555 0.0
C2101 C 0.72214 0.74731 0.13655 0.0
C2102 C 0.70466 0.74983 0.13837 0.0
C2103 C 0.69974 0.76304 0.1483 0.0
C2104 C 0.72729 0.73476 0.12422 0.0
C2105 C 0.72129 0.71782 0.12588 0.0
C2106 C 0.73773 0.73959 0.11056 0.0
C2107 C 0.74368 0.7574 0.10749 0.0
C2108 C 0.73174 0.76986 0.10496 0.0
C2109 C 0.73745 0.78665 0.10223 0.0
C2110 C 0.75506 0.7911 0.10186 0.0
C2111 C 0.76701 0.77876 0.10417 0.0
C2112 C 0.76137 0.76196 0.10694 0.0
C2113 C 0.74335 0.69141 0.05799 0.0
C2114 C 0.7522 0.67704 0.06259 0.0
C2115 C 0.73772 0.70191 0.07039 0.0
C2116 C 0.74084 0.69835 0.08769 0.0
C2117 C 0.74931 0.68378 0.09238 0.0
C2118 C 0.75488 0.67317 0.07993 0.0
C2119 C 0.736 0.71045 0.10062 0.0
C2120 C 0.74211 0.72736 0.0991 0.0
C2121 C 0.7254 0.70562 0.11418 0.0
C2122 C 0.71794 0.68812 0.11607 0.0
C2123 C 0.72086 0.67914 0.13128 0.0
C2124 C 0.71392 0.6626 0.13307 0.0
C2125 C 0.70396 0.65495 0.11975 0.0
C2126 C 0.70086 0.66384 0.10464 0.0
C2127 C 0.70776 0.68038 0.1028 0.0
H2128 H 0.69861 0.64215 0.12115 0.0
H2129 H 0.75946 0.8041 0.09974 0.0
H2130 H 0.02189 0.00869 0.11524 0.0
H2131 H 0.9988 0.0057 0.13518 0.0
H2132 H 0.96548 0.03203 0.10017 0.0
H2133 H 0.98874 0.03548 0.08033 0.0
H2134 H 0.96582 0.04521 0.13116 0.0
H2135 H 0.95745 0.99002 0.10834 0.0
H2136 H 0.9657 0.96226 0.09894 0.0
H2137 H 0.98371 0.95059 0.14976 0.0
H2138 H 0.9758 0.97838 0.15943 0.0
H2139 H 0.90032 0.03588 0.19119 0.0
H2140 H 0.9146 0.03277 0.16442 0.0
H2141 H 0.95497 0.0069 0.19102 0.0
H2142 H 0.94078 0.00978 0.21765 0.0
H2143 H 0.94668 0.99246 0.16078 0.0
H2144 H 0.95958 0.04912 0.1821 0.0
H2145 H 0.95214 0.0771 0.19171 0.0
H2146 H 0.9261 0.08593 0.14353 0.0
H2147 H 0.93321 0.05789 0.13371 0.0
C2148 C 0.0096 0.01373 0.11172 0.0
C2149 C 0.00718 0.02239 0.09624 0.0
C2150 C 0.99634 0.01186 0.12306 0.0
C2151 C 0.98034 0.01853 0.11912 0.0
C2152 C 0.9777 0.02673 0.10344 0.0
C2153 C 0.99096 0.02858 0.09207 0.0
C2154 C 0.96702 0.0182 0.13202 0.0
C2155 C 0.96131 0.03362 0.13735 0.0
C2156 C 0.96138 0.00312 0.14033 0.0
C2157 C 0.96612 0.98635 0.13459 0.0
C2158 C 0.96329 0.98159 0.11749 0.0
C2159 C 0.96789 0.96583 0.11212 0.0
C2160 C 0.97525 0.95468 0.12374 0.0
C2161 C 0.97801 0.95924 0.14077 0.0
C2162 C 0.97344 0.97499 0.14621 0.0
C2163 C 0.91213 0.02935 0.19129 0.0
C2164 C 0.91943 0.02312 0.20656 0.0
C2165 C 0.92029 0.02762 0.17599 0.0
C2166 C 0.93596 0.01976 0.17576 0.0
C2167 C 0.94288 0.01296 0.19088 0.0
C2168 C 0.93473 0.01465 0.20613 0.0
C2169 C 0.94583 0.01949 0.1601 0.0
C2170 C 0.95091 0.00398 0.15431 0.0
C2171 C 0.95096 0.03449 0.15138 0.0
C2172 C 0.94674 0.05134 0.15725 0.0
C2173 C 0.95215 0.05698 0.17361 0.0
C2174 C 0.94802 0.07285 0.17908 0.0
C2175 C 0.9386 0.08326 0.16826 0.0
C2176 C 0.93335 0.07784 0.15191 0.0
C2177 C 0.93743 0.06196 0.14638 0.0
H2178 H 0.93541 0.09555 0.17252 0.0
H2179 H 0.9788 0.94249 0.11955 0.0
H2180 H 0.30386 0.77039 0.17694 0.0
H2181 H 0.29247 0.7911 0.15678 0.0
H2182 H 0.3106 0.76316 0.11518 0.0
H2183 H 0.32211 0.74267 0.13517 0.0
H2184 H 0.31672 0.79563 0.10986 0.0
H2185 H 0.26799 0.75962 0.1272 0.0
H2186 H 0.24837 0.74651 0.1479 0.0
H2187 H 0.23517 0.79547 0.16365 0.0
H2188 H 0.2549 0.80888 0.14317 0.0
H2189 H 0.26208 0.80768 0.03843 0.0
H2190 H 0.27637 0.79675 0.06394 0.0
H2191 H 0.26046 0.83846 0.09274 0.0
H2192 H 0.2464 0.84989 0.06695 0.0
H2193 H 0.25423 0.80495 0.10772 0.0
H2194 H 0.29982 0.84024 0.08567 0.0
H2195 H 0.31831 0.85197 0.06334 0.0
H2196 H 0.33673 0.803 0.05515 0.0
H2197 H 0.31812 0.79091 0.07723 0.0
C2198 C 0.30543 0.76873 0.16349 0.0
C2199 C 0.31388 0.75492 0.15763 0.0
C2200 C 0.29893 0.78056 0.152 0.0
C2201 C 0.30055 0.77861 0.13445 0.0
C2202 C 0.30928 0.765 0.12865 0.0
C2203 C 0.31588 0.75329 0.1401 0.0
C2204 C 0.29268 0.79024 0.1219 0.0
C2205 C 0.30306 0.79765 0.1094 0.0
C2206 C 0.27493 0.79329 0.12155 0.0
C2207 C 0.26307 0.78524 0.13383 0.0
C2208 C 0.261 0.76759 0.13518 0.0
C2209 C 0.24985 0.7601 0.14685 0.0
C2210 C 0.24057 0.77015 0.15713 0.0
C2211 C 0.24239 0.7877 0.15572 0.0
C2212 C 0.25356 0.79525 0.14408 0.0
C2213 C 0.2618 0.81474 0.05006 0.0
C2214 C 0.25333 0.82983 0.05055 0.0
C2215 C 0.26993 0.80841 0.06467 0.0
C2216 C 0.26961 0.81691 0.08014 0.0
C2217 C 0.2609 0.8318 0.08085 0.0
C2218 C 0.25293 0.8383 0.06612 0.0
C2219 C 0.27819 0.80981 0.09548 0.0
C2220 C 0.26797 0.80326 0.10846 0.0
C2221 C 0.29604 0.80739 0.09618 0.0
C2222 C 0.30748 0.81465 0.08306 0.0
C2223 C 0.30772 0.83194 0.07903 0.0
C2224 C 0.31824 0.83866 0.06642 0.0
C2225 C 0.32867 0.82823 0.05782 0.0
C2226 C 0.32864 0.81107 0.06183 0.0
C2227 C 0.31812 0.80428 0.07441 0.0
H2228 H 0.3368 0.83346 0.04805 0.0
H2229 H 0.23194 0.76433 0.16616 0.0
H2230 H 0.01466 0.50775 0.11183 0.0
H2231 H 0.03004 0.50593 0.13949 0.0
H2232 H 0.07174 0.48315 0.11593 0.0
H2233 H 0.05613 0.4842 0.08844 0.0
H2234 H 0.06565 0.46802 0.14516 0.0
H2235 H 0.07315 0.52582 0.12583 0.0
H2236 H 0.06334 0.55334 0.11601 0.0
H2237 H 0.0372 0.55851 0.16231 0.0
H2238 H 0.04669 0.5309 0.17231 0.0
H2239 H 0.13979 0.48898 0.19657 0.0
H2240 H 0.11694 0.48653 0.1744 0.0
H2241 H 0.08075 0.50377 0.20918 0.0
H2242 H 0.10368 0.50622 0.23166 0.0
H2243 H 0.08001 0.52061 0.17759 0.0
H2244 H 0.07684 0.46405 0.19834 0.0
H2245 H 0.08807 0.43701 0.20778 0.0
H2246 H 0.10737 0.42982 0.15837 0.0
H2247 H 0.09649 0.45695 0.14869 0.0
C2248 C 0.02698 0.5021 0.11257 0.0
C2249 C 0.03422 0.49626 0.09785 0.0
C2250 C 0.03584 0.50122 0.12838 0.0
C2251 C 0.05218 0.49464 0.12977 0.0
C2252 C 0.05918 0.48834 0.11519 0.0
C2253 C 0.05031 0.48913 0.09942 0.0
C2254 C 0.06234 0.49469 0.14623 0.0
C2255 C 0.06885 0.47954 0.1522 0.0
C2256 C 0.06613 0.50962 0.15571 0.0
C2257 C 0.06045 0.52622 0.14972 0.0
C2258 C 0.0652 0.53277 0.13386 0.0
C2259 C 0.05972 0.54839 0.12827 0.0
C2260 C 0.0496 0.55764 0.1385 0.0
C2261 C 0.045 0.55131 0.15438 0.0
C2262 C 0.05043 0.53569 0.16002 0.0
C2263 C 0.12697 0.49217 0.1996 0.0
C2264 C 0.12358 0.49783 0.2159 0.0
C2265 C 0.11389 0.49067 0.18691 0.0
C2266 C 0.09713 0.49484 0.19018 0.0
C2267 C 0.0936 0.50042 0.20644 0.0
C2268 C 0.10669 0.50175 0.21926 0.0
C2269 C 0.08365 0.49403 0.17623 0.0
C2270 C 0.07653 0.50904 0.17072 0.0
C2271 C 0.07943 0.479 0.16709 0.0
C2272 C 0.08593 0.46261 0.17282 0.0
C2273 C 0.08359 0.45677 0.18951 0.0
C2274 C 0.08987 0.44141 0.1949 0.0
C2275 C 0.09845 0.43171 0.18369 0.0
C2276 C 0.10073 0.43735 0.16704 0.0
C2277 C 0.09448 0.45271 0.16159 0.0
H2278 H 0.10331 0.41983 0.18788 0.0
H2279 H 0.04538 0.56973 0.13416 0.0
H2280 H 0.36288 0.71956 0.28048 0.0
H2281 H 0.38257 0.72742 0.30462 0.0
H2282 H 0.42587 0.72472 0.27268 0.0
H2283 H 0.40627 0.71652 0.24867 0.0
H2284 H 0.43246 0.7095 0.3013 0.0
H2285 H 0.41096 0.76298 0.28578 0.0
H2286 H 0.38884 0.78328 0.27919 0.0
H2287 H 0.36986 0.77647 0.32926 0.0
H2288 H 0.39173 0.75595 0.33607 0.0
H2289 H 0.49581 0.74998 0.35692 0.0
H2290 H 0.47544 0.74477 0.33275 0.0
H2291 H 0.43348 0.74012 0.36665 0.0
H2292 H 0.45372 0.7453 0.39095 0.0
H2293 H 0.4262 0.75938 0.33737 0.0
H2294 H 0.44822 0.70559 0.35232 0.0
H2295 H 0.47101 0.68592 0.35851 0.0
H2296 H 0.48982 0.69432 0.30857 0.0
H2297 H 0.46727 0.71425 0.30216 0.0
C2298 C 0.3766 0.7208 0.27861 0.0
C2299 C 0.38306 0.7174 0.26273 0.0
C2300 C 0.38784 0.72533 0.29239 0.0
C2301 C 0.40572 0.72683 0.29045 0.0
C2302 C 0.41215 0.72359 0.27452 0.0
C2303 C 0.40094 0.71889 0.26082 0.0
C2304 C 0.41782 0.73122 0.30509 0.0
C2305 C 0.43121 0.72056 0.309 0.0
C2306 C 0.41602 0.74544 0.31543 0.0
C2307 C 0.40288 0.7578 0.31138 0.0
C2308 C 0.40199 0.76571 0.29534 0.0
C2309 C 0.38951 0.77727 0.29158 0.0
C2310 C 0.37793 0.78113 0.30378 0.0
C2311 C 0.37883 0.77345 0.3198 0.0
C2312 C 0.39127 0.76187 0.32363 0.0
C2313 C 0.48224 0.74795 0.35926 0.0
C2314 C 0.47643 0.74796 0.37591 0.0
C2315 C 0.47063 0.74494 0.34543 0.0
C2316 C 0.45299 0.74192 0.34795 0.0
C2317 C 0.44705 0.7424 0.36446 0.0
C2318 C 0.45867 0.74529 0.37833 0.0
C2319 C 0.4408 0.73774 0.3334 0.0
C2320 C 0.42741 0.74838 0.32957 0.0
C2321 C 0.44267 0.7236 0.32304 0.0
C2322 C 0.45616 0.71154 0.32683 0.0
C2323 C 0.4573 0.70335 0.3427 0.0
C2324 C 0.47016 0.69213 0.34624 0.0
C2325 C 0.48188 0.6889 0.33396 0.0
C2326 C 0.48074 0.69685 0.31808 0.0
C2327 C 0.46792 0.7081 0.31449 0.0
H2328 H 0.49183 0.68022 0.33672 0.0
H2329 H 0.36828 0.79008 0.30084 0.0
H2330 H 0.0183 0.44496 0.97442 0.0
H2331 H 0.01878 0.41806 0.95974 0.0
H2332 H 0.97606 0.39813 0.98828 0.0
H2333 H 0.97544 0.42504 0.00296 0.0
H2334 H 0.00104 0.3765 0.98821 0.0
H2335 H 0.97073 0.4091 0.94627 0.0
H2336 H 0.9663 0.43345 0.92729 0.0
H2337 H 0.01201 0.42369 0.90151 0.0
H2338 H 0.01685 0.3994 0.9205 0.0
H2339 H 0.98114 0.30164 0.94348 0.0
H2340 H 0.97886 0.33 0.95429 0.0
H2341 H 0.02258 0.3478 0.92605 0.0
H2342 H 0.02488 0.31939 0.91492 0.0
H2343 H 0.99759 0.3707 0.92547 0.0
H2344 H 0.02817 0.33854 0.96741 0.0
H2345 H 0.03292 0.31423 0.98636 0.0
H2346 H 0.9871 0.32343 0.01222 0.0
H2347 H 0.98195 0.34767 0.99325 0.0
C2348 C 0.00885 0.43493 0.97741 0.0
C2349 C 0.99682 0.43716 0.98986 0.0
C2350 C 0.00915 0.41955 0.96901 0.0
C2351 C 0.99735 0.40612 0.97279 0.0
C2352 C 0.9853 0.40832 0.98517 0.0
C2353 C 0.98501 0.42368 0.9936 0.0
C2354 C 0.99795 0.38958 0.9643 0.0
C2355 C 1.00002 0.37522 0.9745 0.0
C2356 C 0.99715 0.38796 0.94639 0.0
C2357 C 0.99424 0.40253 0.93492 0.0
C2358 C 0.97992 0.41223 0.93665 0.0
C2359 C 0.97732 0.426 0.92587 0.0
C2360 C 0.98889 0.43014 0.91323 0.0
C2361 C 0.00307 0.42048 0.91132 0.0
C2362 C 0.00574 0.4067 0.92208 0.0
C2363 C 0.9902 0.31158 0.93939 0.0
C2364 C 0.00333 0.30816 0.92847 0.0
C2365 C 0.98889 0.3278 0.94564 0.0
C2366 C 0.00076 0.34093 0.94124 0.0
C2367 C 0.01335 0.33781 0.92967 0.0
C2368 C 0.01465 0.32155 0.92334 0.0
C2369 C 0.00047 0.35765 0.94941 0.0
C2370 C 0.99856 0.37202 0.93918 0.0
C2371 C 0.00147 0.35933 0.96731 0.0
C2372 C 0.00459 0.34482 0.9788 0.0
C2373 C 0.01904 0.3353 0.97705 0.0
C2374 C 0.02181 0.32155 0.98781 0.0
C2375 C 0.0103 0.31726 0.00046 0.0
C2376 C 0.996 0.32675 0.00241 0.0
C2377 C 0.99315 0.34051 0.99166 0.0
H2378 H 0.01247 0.30661 0.00878 0.0
H2379 H 0.98686 0.44081 0.9049 0.0
H2380 H 0.65924 0.7925 0.25656 0.0
H2381 H 0.64078 0.78389 0.27974 0.0
H2382 H 0.6114 0.82764 0.27067 0.0
H2383 H 0.6302 0.83665 0.24783 0.0
H2384 H 0.618 0.82302 0.30397 0.0
H2385 H 0.59546 0.78889 0.25762 0.0
H2386 H 0.59648 0.76917 0.23378 0.0
H2387 H 0.61519 0.73132 0.26794 0.0
H2388 H 0.61452 0.7509 0.29197 0.0
H2389 H 0.5499 0.79253 0.3565 0.0
H2390 H 0.56584 0.80267 0.33192 0.0
H2391 H 0.59951 0.76176 0.33854 0.0
H2392 H 0.5837 0.75154 0.36296 0.0
H2393 H 0.58882 0.76578 0.30542 0.0
H2394 H 0.61279 0.80078 0.35141 0.0
H2395 H 0.6116 0.82063 0.37513 0.0
H2396 H 0.58963 0.85699 0.34125 0.0
H2397 H 0.59048 0.83725 0.31736 0.0
C2398 C 0.64895 0.80038 0.25959 0.0
C2399 C 0.64617 0.81525 0.25031 0.0
C2400 C 0.63829 0.79535 0.27273 0.0
C2401 C 0.62455 0.805 0.27678 0.0
C2402 C 0.62187 0.81995 0.2677 0.0
C2403 C 0.63253 0.82501 0.25456 0.0
C2404 C 0.61313 0.79955 0.29063 0.0
C2405 C 0.61139 0.81061 0.30415 0.0
C2406 C 0.60471 0.78327 0.29099 0.0
C2407 C 0.60508 0.77142 0.27658 0.0
C2408 C 0.59992 0.7764 0.26003 0.0
C2409 C 0.60041 0.76524 0.24649 0.0
C2410 C 0.60593 0.74901 0.24934 0.0
C2411 C 0.61093 0.7439 0.26575 0.0
C2412 C 0.61048 0.75502 0.27934 0.0
C2413 C 0.56069 0.7857 0.35271 0.0
C2414 C 0.56556 0.77126 0.36172 0.0
C2415 C 0.56981 0.79153 0.3387 0.0
C2416 C 0.58392 0.78302 0.33348 0.0
C2417 C 0.58866 0.76851 0.34234 0.0
C2418 C 0.57963 0.76273 0.35635 0.0
C2419 C 0.59389 0.78917 0.31883 0.0
C2420 C 0.59534 0.77824 0.30516 0.0
C2421 C 0.60199 0.80558 0.3183 0.0
C2422 C 0.60151 0.81747 0.33264 0.0
C2423 C 0.60757 0.81295 0.34905 0.0
C2424 C 0.60698 0.82419 0.36252 0.0
C2425 C 0.60049 0.84004 0.35971 0.0
C2426 C 0.59462 0.8447 0.34341 0.0
C2427 C 0.59516 0.83349 0.3299 0.0
H2428 H 0.60005 0.84872 0.37016 0.0
H2429 H 0.6063 0.74039 0.23883 0.0
H2430 H 0.06906 0.10438 0.99465 0.0
H2431 H 0.06165 0.12865 0.97715 0.0
H2432 H 0.00768 0.11378 0.98014 0.0
H2433 H 0.01502 0.08924 0.99753 0.0
H2434 H 0.01678 0.12592 0.94753 0.0
H2435 H 0.0229 0.14246 0.00595 0.0
H2436 H 0.03752 0.14477 0.03433 0.0
H2437 H 0.08011 0.17326 0.01313 0.0
H2438 H 0.06585 0.17089 0.98456 0.0
H2439 H 0.00931 0.22449 0.946 0.0
H2440 H 0.00858 0.19704 0.96024 0.0
H2441 H 0.03542 0.17654 0.91923 0.0
H2442 H 0.03597 0.2039 0.90477 0.0
H2443 H 0.03597 0.18162 0.97197 0.0
H2444 H 0.02499 0.13408 0.91639 0.0
H2445 H 0.00892 0.13174 0.88872 0.0
H2446 H 0.97259 0.16579 0.90555 0.0
H2447 H 0.98829 0.16814 0.93339 0.0
C2448 C 0.05563 0.10605 0.99129 0.0
C2449 C 0.04261 0.09493 0.99752 0.0
C2450 C 0.05141 0.11998 0.98138 0.0
C2451 C 0.03412 0.12307 0.97752 0.0
C2452 C 0.0211 0.1116 0.98303 0.0
C2453 C 0.0253 0.09768 0.99304 0.0
C2454 C 0.02973 0.1389 0.96876 0.0
C2455 C 0.02093 0.13812 0.95283 0.0
C2456 C 0.03482 0.15478 0.97592 0.0
C2457 C 0.04337 0.15637 0.9931 0.0
C2458 C 0.03544 0.14911 0.00732 0.0
C2459 C 0.04365 0.15045 0.02345 0.0
C2460 C 0.05975 0.15913 0.02553 0.0
C2461 C 0.06765 0.16653 0.01149 0.0
C2462 C 0.0595 0.1652 0.99534 0.0
C2463 C 0.01476 0.21408 0.93983 0.0
C2464 C 0.02273 0.21639 0.92427 0.0
C2465 C 0.01439 0.1984 0.94803 0.0
C2466 C 0.0219 0.18473 0.94078 0.0
C2467 C 0.02934 0.18684 0.92495 0.0
C2468 C 0.02972 0.20252 0.91674 0.0
C2469 C 0.02334 0.16874 0.95046 0.0
C2470 C 0.03168 0.16947 0.96663 0.0
C2471 C 0.01759 0.15288 0.94358 0.0
C2472 C 0.00793 0.1514 0.92694 0.0
C2473 C 0.01353 0.14101 0.91422 0.0
C2474 C 0.00449 0.13969 0.89849 0.0
C2475 C 0.98977 0.14865 0.89536 0.0
C2476 C 0.98403 0.15891 0.90797 0.0
C2477 C 0.99302 0.16026 0.92371 0.0
H2478 H 0.9828 0.14762 0.88318 0.0
H2479 H 0.06609 0.16015 0.03802 0.0
H2480 H 0.34881 0.30491 0.22741 0.0
H2481 H 0.36746 0.30035 0.20396 0.0
H2482 H 0.40072 0.27233 0.23748 0.0
H2483 H 0.38254 0.27739 0.26111 0.0
H2484 H 0.41923 0.29367 0.21813 0.0
H2485 H 0.372 0.25238 0.20882 0.0
H2486 H 0.34149 0.24242 0.20472 0.0
H2487 H 0.33659 0.27356 0.16013 0.0
H2488 H 0.36703 0.28388 0.1641 0.0
H2489 H 0.46495 0.25149 0.15666 0.0
H2490 H 0.44744 0.25942 0.17992 0.0
H2491 H 0.41537 0.28682 0.14466 0.0
H2492 H 0.43264 0.27874 0.1213 0.0
H2493 H 0.39618 0.26691 0.16452 0.0
H2494 H 0.44378 0.30741 0.17317 0.0
H2495 H 0.47431 0.31727 0.17723 0.0
H2496 H 0.47863 0.28767 0.22293 0.0
H2497 H 0.44817 0.27744 0.21902 0.0
C2498 C 0.36015 0.29786 0.22982 0.0
C2499 C 0.36411 0.29144 0.24614 0.0
C2500 C 0.37073 0.29514 0.21637 0.0
C2501 C 0.3854 0.28584 0.21892 0.0
C2502 C 0.38944 0.27951 0.2352 0.0
C2503 C 0.37891 0.28225 0.24866 0.0
C2504 C 0.39662 0.28274 0.20467 0.0
C2505 C 0.41424 0.28764 0.20647 0.0
C2506 C 0.39003 0.27526 0.1893 0.0
C2507 C 0.37174 0.26903 0.18686 0.0
C2508 C 0.36438 0.2572 0.19822 0.0
C2509 C 0.34711 0.25148 0.19591 0.0
C2510 C 0.3371 0.25739 0.1822 0.0
C2511 C 0.34435 0.26901 0.17076 0.0
C2512 C 0.36162 0.27479 0.17302 0.0
C2513 C 0.4543 0.25937 0.15387 0.0
C2514 C 0.45017 0.26444 0.1371 0.0
C2515 C 0.44432 0.26394 0.1672 0.0
C2516 C 0.43013 0.2738 0.16405 0.0
C2517 C 0.42623 0.27918 0.14738 0.0
C2518 C 0.43616 0.27459 0.13405 0.0
C2519 C 0.41883 0.27778 0.17798 0.0
C2520 C 0.40119 0.27302 0.17613 0.0
C2521 C 0.42541 0.28538 0.1933 0.0
C2522 C 0.44373 0.29153 0.19571 0.0
C2523 C 0.45127 0.30289 0.18401 0.0
C2524 C 0.46856 0.30857 0.1863 0.0
C2525 C 0.47842 0.30307 0.20031 0.0
C2526 C 0.47099 0.29191 0.21208 0.0
C2527 C 0.45371 0.28618 0.20984 0.0
H2528 H 0.4918 0.30748 0.20206 0.0
H2529 H 0.32373 0.25294 0.18043 0.0
H2530 H 0.56719 0.39769 0.01101 0.0
H2531 H 0.55851 0.37293 0.02783 0.0
H2532 H 0.50774 0.39103 0.03126 0.0
H2533 H 0.51618 0.41576 0.01398 0.0
H2534 H 0.52273 0.37527 0.06268 0.0
H2535 H 0.51026 0.36452 0.00312 0.0
H2536 H 0.51725 0.36443 0.97292 0.0
H2537 H 0.55823 0.33182 0.98454 0.0
H2538 H 0.55165 0.33194 0.01487 0.0
H2539 H 0.48534 0.29291 0.08459 0.0
H2540 H 0.49151 0.32148 0.07349 0.0
H2541 H 0.53927 0.30611 0.05466 0.0
H2542 H 0.53291 0.27759 0.06514 0.0
H2543 H 0.5229 0.3217 0.03088 0.0
H2544 H 0.53678 0.33273 0.09009 0.0
H2545 H 0.53128 0.33323 0.12064 0.0
H2546 H 0.48937 0.36509 0.11051 0.0
H2547 H 0.49448 0.36459 0.07985 0.0
C2548 C 0.55418 0.39647 0.01536 0.0
C2549 C 0.54228 0.40857 0.01088 0.0
C2550 C 0.5493 0.38239 0.02509 0.0
C2551 C 0.53246 0.38011 0.03063 0.0
C2552 C 0.52082 0.39262 0.02712 0.0
C2553 C 0.52567 0.40673 0.01726 0.0
C2554 C 0.52675 0.36391 0.03862 0.0
C2555 C 0.5225 0.36353 0.05573 0.0
C2556 C 0.52673 0.34865 0.02955 0.0
C2557 C 0.53055 0.34836 0.01128 0.0
C2558 C 0.52084 0.35743 0.99926 0.0
C2559 C 0.52472 0.35736 0.98211 0.0
C2560 C 0.5382 0.34815 0.97682 0.0
C2561 C 0.5478 0.33896 0.98866 0.0
C2562 C 0.54399 0.33901 0.00582 0.0
C2563 C 0.49724 0.29572 0.07825 0.0
C2564 C 0.50857 0.28297 0.0756 0.0
C2565 C 0.50079 0.31206 0.07196 0.0
C2566 C 0.51589 0.31599 0.06324 0.0
C2567 C 0.52747 0.30339 0.06121 0.0
C2568 C 0.52383 0.28707 0.06723 0.0
C2569 C 0.5193 0.33282 0.05523 0.0
C2570 C 0.52302 0.33335 0.03795 0.0
C2571 C 0.51896 0.34814 0.06423 0.0
C2572 C 0.51589 0.34846 0.08265 0.0
C2573 C 0.5263 0.33972 0.09436 0.0
C2574 C 0.52327 0.34003 0.1117 0.0
C2575 C 0.50995 0.34914 0.11751 0.0
C2576 C 0.49966 0.35801 0.10599 0.0
C2577 C 0.50262 0.35773 0.08863 0.0
H2578 H 0.50763 0.34937 0.13094 0.0
H2579 H 0.54118 0.34811 0.96354 0.0
H2580 H 0.66883 0.23295 0.18965 0.0
H2581 H 0.64132 0.23245 0.17349 0.0
H2582 H 0.6145 0.2213 0.21936 0.0
H2583 H 0.64221 0.22146 0.23561 0.0
H2584 H 0.59954 0.20365 0.19341 0.0
H2585 H 0.61653 0.26123 0.20297 0.0
H2586 H 0.63597 0.28691 0.20384 0.0
H2587 H 0.63995 0.28503 0.14973 0.0
H2588 H 0.62073 0.25918 0.14856 0.0
H2589 H 0.52103 0.22707 0.14739 0.0
H2590 H 0.54482 0.22663 0.16895 0.0
H2591 H 0.58138 0.22898 0.12941 0.0
H2592 H 0.5579 0.22922 0.10791 0.0
H2593 H 0.58866 0.25277 0.15594 0.0
H2594 H 0.57325 0.19302 0.14793 0.0
H2595 H 0.55319 0.16778 0.148 0.0
H2596 H 0.54492 0.17511 0.20085 0.0
H2597 H 0.56477 0.20055 0.20102 0.0
C2598 C 0.65707 0.23037 0.19629 0.0
C2599 C 0.65763 0.22745 0.21391 0.0
C2600 C 0.64135 0.23012 0.18706 0.0
C2601 C 0.6258 0.22725 0.19527 0.0
C2602 C 0.62632 0.22366 0.21278 0.0
C2603 C 0.64213 0.22373 0.22203 0.0
C2604 C 0.60914 0.22836 0.18547 0.0
C2605 C 0.59702 0.21452 0.18546 0.0
C2606 C 0.60579 0.24255 0.17509 0.0
C2607 C 0.61727 0.25819 0.17569 0.0
C2608 C 0.62164 0.26623 0.19126 0.0
C2609 C 0.63261 0.28083 0.19181 0.0
C2610 C 0.63921 0.28758 0.17685 0.0
C2611 C 0.63483 0.27978 0.16131 0.0
C2612 C 0.62388 0.26516 0.16069 0.0
C2613 C 0.53414 0.22745 0.14331 0.0
C2614 C 0.53755 0.22815 0.12591 0.0
C2615 C 0.54769 0.22715 0.15563 0.0
C2616 C 0.56483 0.22776 0.15074 0.0
C2617 C 0.56823 0.22852 0.13343 0.0
C2618 C 0.55476 0.22858 0.12116 0.0
C2619 C 0.57942 0.22788 0.16349 0.0
C2620 C 0.59111 0.24201 0.16408 0.0
C2621 C 0.5822 0.21409 0.17455 0.0
C2622 C 0.57032 0.1988 0.17443 0.0
C2623 C 0.56702 0.18934 0.15952 0.0
C2624 C 0.55572 0.17498 0.15952 0.0
C2625 C 0.54774 0.16988 0.1744 0.0
C2626 C 0.55109 0.1791 0.18932 0.0
C2627 C 0.56237 0.19348 0.18938 0.0
H2628 H 0.539 0.15876 0.17438 0.0
H2629 H 0.64771 0.29889 0.1773 0.0
H2630 H 0.49607 0.07481 0.00109 0.0
H2631 H 0.4965 0.10197 0.01546 0.0
H2632 H 0.46783 0.07879 0.05597 0.0
H2633 H 0.46684 0.05171 0.0414 0.0
H2634 H 0.45546 0.10834 0.04695 0.0
H2635 H 0.51103 0.08834 0.06119 0.0
H2636 H 0.53906 0.07714 0.05568 0.0
H2637 H 0.55281 0.1214 0.02643 0.0
H2638 H 0.52475 0.13276 0.03157 0.0
H2639 H 0.47007 0.17686 0.1043 0.0
H2640 H 0.47052 0.14883 0.09179 0.0
H2641 H 0.49681 0.17036 0.04897 0.0
H2642 H 0.49639 0.19836 0.06133 0.0
H2643 H 0.5106 0.14117 0.06028 0.0
H2644 H 0.45444 0.16057 0.04544 0.0
H2645 H 0.42643 0.17166 0.05124 0.0
H2646 H 0.41394 0.12824 0.08216 0.0
H2647 H 0.44199 0.11699 0.07673 0.0
C2648 C 0.4897 0.07552 0.01297 0.0
C2649 C 0.48147 0.06106 0.02012 0.0
C2650 C 0.49011 0.09102 0.02126 0.0
C2651 C 0.48241 0.09236 0.03692 0.0
C2652 C 0.47394 0.07803 0.04395 0.0
C2653 C 0.47351 0.06253 0.03567 0.0
C2654 C 0.48307 0.10875 0.0459 0.0
C2655 C 0.46753 0.11539 0.05009 0.0
C2656 C 0.49881 0.11811 0.04973 0.0
C2657 C 0.51571 0.11133 0.04663 0.0
C2658 C 0.51997 0.09562 0.05347 0.0
C2659 C 0.53588 0.08926 0.05043 0.0
C2660 C 0.54769 0.09853 0.04067 0.0
C2661 C 0.54364 0.11422 0.03397 0.0
C2662 C 0.52774 0.12063 0.03695 0.0
C2663 C 0.47605 0.17562 0.09228 0.0
C2664 C 0.48322 0.18986 0.08383 0.0
C2665 C 0.47625 0.1596 0.08512 0.0
C2666 C 0.48356 0.15754 0.06937 0.0
C2667 C 0.49112 0.17167 0.06114 0.0
C2668 C 0.49087 0.18768 0.06825 0.0
C2669 C 0.483 0.14075 0.06123 0.0
C2670 C 0.49855 0.13406 0.05719 0.0
C2671 C 0.46728 0.13132 0.05759 0.0
C2672 C 0.45039 0.13803 0.06082 0.0
C2673 C 0.44578 0.15345 0.05359 0.0
C2674 C 0.42988 0.15976 0.05679 0.0
C2675 C 0.41843 0.15068 0.0671 0.0
C2676 C 0.42283 0.13526 0.0742 0.0
C2677 C 0.43872 0.12891 0.07106 0.0
H2678 H 0.40613 0.15559 0.06956 0.0
H2679 H 0.56 0.09359 0.03834 0.0
H2680 H 0.26225 0.38698 0.69498 0.0
H2681 H 0.28669 0.4063 0.70326 0.0
H2682 H 0.28454 0.38831 0.75499 0.0
H2683 H 0.25963 0.3693 0.74689 0.0
H2684 H 0.28905 0.42184 0.75421 0.0
H2685 H 0.31561 0.37605 0.72983 0.0
H2686 H 0.3204 0.35476 0.70827 0.0
H2687 H 0.3328 0.39402 0.67224 0.0
H2688 H 0.32784 0.41555 0.69352 0.0
H2689 H 0.38691 0.45319 0.75136 0.0
H2690 H 0.36373 0.43113 0.74884 0.0
H2691 H 0.32658 0.46897 0.74168 0.0
H2692 H 0.34963 0.49112 0.74463 0.0
H2693 H 0.34312 0.42297 0.72319 0.0
H2694 H 0.28789 0.45483 0.75538 0.0
H2695 H 0.28427 0.47434 0.77893 0.0
H2696 H 0.33152 0.4596 0.80328 0.0
H2697 H 0.33531 0.43984 0.78 0.0
C2698 C 0.26687 0.38721 0.70815 0.0
C2699 C 0.25896 0.3766 0.72028 0.0
C2700 C 0.28096 0.39815 0.71284 0.0
C2701 C 0.28757 0.39862 0.72971 0.0
C2702 C 0.27969 0.38811 0.74189 0.0
C2703 C 0.26555 0.37715 0.73721 0.0
C2704 C 0.30258 0.41027 0.7346 0.0
C2705 C 0.3009 0.42206 0.74748 0.0
C2706 C 0.31819 0.41032 0.72608 0.0
C2707 C 0.32122 0.39741 0.71324 0.0
C2708 C 0.31924 0.38014 0.71727 0.0
C2709 C 0.322 0.36803 0.70511 0.0
C2710 C 0.32687 0.37304 0.68888 0.0
C2711 C 0.32902 0.39016 0.68481 0.0
C2712 C 0.32625 0.40233 0.69692 0.0
C2713 C 0.37379 0.45685 0.74942 0.0
C2714 C 0.37015 0.47395 0.74819 0.0
C2715 C 0.36055 0.4442 0.74794 0.0
C2716 C 0.34338 0.44836 0.74518 0.0
C2717 C 0.33968 0.46543 0.74413 0.0
C2718 C 0.3529 0.4781 0.74575 0.0
C2719 C 0.32948 0.43485 0.74254 0.0
C2720 C 0.33133 0.42271 0.73003 0.0
C2721 C 0.31421 0.43425 0.75168 0.0
C2722 C 0.31194 0.44596 0.76586 0.0
C2723 C 0.29746 0.45569 0.76579 0.0
C2724 C 0.29539 0.46681 0.77909 0.0
C2725 C 0.30768 0.46824 0.79256 0.0
C2726 C 0.32205 0.45852 0.7928 0.0
C2727 C 0.32417 0.44738 0.77955 0.0
H2728 H 0.30606 0.47686 0.80284 0.0
H2729 H 0.32901 0.36364 0.67948 0.0
H2730 H 0.24536 0.65307 0.77816 0.0
H2731 H 0.26352 0.6289 0.77893 0.0
H2732 H 0.28929 0.6487 0.73503 0.0
H2733 H 0.27124 0.67269 0.73416 0.0
H2734 H 0.28251 0.61588 0.73187 0.0
H2735 H 0.30698 0.65312 0.77624 0.0
H2736 H 0.30635 0.66944 0.80265 0.0
H2737 H 0.29267 0.62414 0.83031 0.0
H2738 H 0.29301 0.60758 0.804 0.0
H2739 H 0.36393 0.58432 0.73252 0.0
H2740 H 0.33975 0.6019 0.73537 0.0
H2741 H 0.32063 0.56939 0.7753 0.0
H2742 H 0.34504 0.55152 0.77253 0.0
H2743 H 0.32019 0.60418 0.78257 0.0
H2744 H 0.30022 0.56657 0.73819 0.0
H2745 H 0.30201 0.55081 0.7116 0.0
H2746 H 0.30798 0.59731 0.68369 0.0
H2747 H 0.30648 0.61337 0.71015 0.0
C2748 C 0.25491 0.65224 0.76869 0.0
C2749 C 0.25681 0.66478 0.75606 0.0
C2750 C 0.26528 0.63843 0.76914 0.0
C2751 C 0.27788 0.63703 0.75711 0.0
C2752 C 0.27961 0.64943 0.74439 0.0
C2753 C 0.26922 0.66314 0.74387 0.0
C2754 C 0.28955 0.62289 0.75771 0.0
C2755 C 0.29078 0.61338 0.74295 0.0
C2756 C 0.29997 0.61922 0.77233 0.0
C2757 C 0.29981 0.62916 0.78813 0.0
C2758 C 0.3037 0.64667 0.78793 0.0
C2759 C 0.30342 0.65596 0.80288 0.0
C2760 C 0.29942 0.64784 0.81814 0.0
C2761 C 0.29574 0.63041 0.81848 0.0
C2762 C 0.29597 0.62107 0.80356 0.0
C2763 C 0.35463 0.58083 0.74194 0.0
C2764 C 0.3564 0.56645 0.75226 0.0
C2765 C 0.34076 0.59089 0.7435 0.0
C2766 C 0.32828 0.58683 0.75539 0.0
C2767 C 0.3301 0.57268 0.76598 0.0
C2768 C 0.34401 0.56248 0.76436 0.0
C2769 C 0.31349 0.59762 0.75656 0.0
C2770 C 0.31166 0.60647 0.77163 0.0
C2771 C 0.30257 0.60078 0.74219 0.0
C2772 C 0.30333 0.59117 0.72619 0.0
C2773 C 0.30203 0.57344 0.7264 0.0
C2774 C 0.30297 0.56445 0.71135 0.0
C2775 C 0.30513 0.57305 0.69597 0.0
C2776 C 0.3063 0.59066 0.69561 0.0
C2777 C 0.30538 0.59972 0.71063 0.0
H2778 H 0.30586 0.56607 0.68433 0.0
H2779 H 0.29921 0.65506 0.8297 0.0
H2780 H 0.91939 0.43294 0.46931 0.0
H2781 H 0.89116 0.41803 0.47029 0.0
H2782 H 0.87075 0.4617 0.49225 0.0
H2783 H 0.89924 0.47649 0.49198 0.0
H2784 H 0.8606 0.43437 0.50905 0.0
H2785 H 0.86001 0.45013 0.45081 0.0
H2786 H 0.87089 0.45357 0.42202 0.0
H2787 H 0.87202 0.39987 0.41745 0.0
H2788 H 0.86138 0.39609 0.44633 0.0
H2789 H 0.77598 0.39293 0.50182 0.0
H2790 H 0.79984 0.41379 0.49706 0.0
H2791 H 0.83081 0.37431 0.48078 0.0
H2792 H 0.80719 0.35344 0.48554 0.0
H2793 H 0.83283 0.40305 0.45991 0.0
H2794 H 0.83658 0.38839 0.51988 0.0
H2795 H 0.82535 0.38546 0.54859 0.0
H2796 H 0.81746 0.43845 0.54925 0.0
H2797 H 0.82843 0.44164 0.52042 0.0
C2798 C 0.90893 0.43938 0.4744 0.0
C2799 C 0.91163 0.4559 0.48063 0.0
C2800 C 0.89271 0.4309 0.47475 0.0
C2801 C 0.87874 0.4388 0.48115 0.0
C2802 C 0.88131 0.45537 0.48718 0.0
C2803 C 0.89758 0.46386 0.48689 0.0
C2804 C 0.86175 0.42936 0.48229 0.0
C2805 C 0.85435 0.42783 0.4982 0.0
C2806 C 0.85364 0.42065 0.46821 0.0
C2807 C 0.86001 0.42284 0.4508 0.0
C2808 C 0.8627 0.43905 0.44372 0.0
C2809 C 0.8688 0.44106 0.42737 0.0
C2810 C 0.87218 0.42695 0.41792 0.0
C2811 C 0.86941 0.41079 0.42479 0.0
C2812 C 0.86332 0.4087 0.44114 0.0
C2813 C 0.78783 0.38871 0.49711 0.0
C2814 C 0.78971 0.37149 0.49416 0.0
C2815 C 0.80145 0.40063 0.49444 0.0
C2816 C 0.8171 0.39556 0.48865 0.0
C2817 C 0.81882 0.37848 0.48524 0.0
C2818 C 0.80533 0.36656 0.48806 0.0
C2819 C 0.832 0.40784 0.48668 0.0
C2820 C 0.83898 0.40986 0.47064 0.0
C2821 C 0.83964 0.41711 0.50059 0.0
C2822 C 0.83312 0.41521 0.51793 0.0
C2823 C 0.83231 0.39938 0.52609 0.0
C2824 C 0.82602 0.39768 0.54239 0.0
C2825 C 0.82064 0.41175 0.55071 0.0
C2826 C 0.82159 0.42756 0.54277 0.0
C2827 C 0.82785 0.42932 0.52646 0.0
H2828 H 0.81578 0.41041 0.56333 0.0
H2829 H 0.8769 0.42854 0.40527 0.0
H2830 H 0.77743 0.87406 0.79713 0.0
H2831 H 0.75311 0.89177 0.79284 0.0
H2832 H 0.7181 0.84755 0.79127 0.0
H2833 H 0.74251 0.82964 0.79564 0.0
H2834 H 0.70938 0.86938 0.76685 0.0
H2835 H 0.72067 0.87213 0.82618 0.0
H2836 H 0.7381 0.87539 0.85299 0.0
H2837 H 0.75334 0.92638 0.83928 0.0
H2838 H 0.7362 0.92335 0.81227 0.0
H2839 H 0.65979 0.95035 0.79022 0.0
H2840 H 0.67143 0.92326 0.79829 0.0
H2841 H 0.6977 0.92298 0.75128 0.0
H2842 H 0.68595 0.94959 0.74305 0.0
H2843 H 0.70392 0.91824 0.80454 0.0
H2844 H 0.70512 0.88475 0.73873 0.0
H2845 H 0.686 0.8803 0.71315 0.0
H2846 H 0.64198 0.88825 0.74227 0.0
H2847 H 0.66079 0.8925 0.76808 0.0
C2848 C 0.76455 0.86807 0.79603 0.0
C2849 C 0.76191 0.85043 0.79688 0.0
C2850 C 0.75065 0.87823 0.79358 0.0
C2851 C 0.73374 0.87101 0.79205 0.0
C2852 C 0.73103 0.85339 0.79251 0.0
C2853 C 0.74499 0.84318 0.79493 0.0
C2854 C 0.71908 0.88205 0.78967 0.0
C2855 C 0.70806 0.87999 0.77515 0.0
C2856 C 0.71693 0.89552 0.80085 0.0
C2857 C 0.72719 0.89748 0.81715 0.0
C2858 C 0.72782 0.88401 0.82883 0.0
C2859 C 0.73764 0.88582 0.84407 0.0
C2860 C 0.74684 0.90108 0.84783 0.0
C2861 C 0.7462 0.91457 0.83636 0.0
C2862 C 0.73641 0.91282 0.82109 0.0
C2863 C 0.66767 0.94427 0.78142 0.0
C2864 C 0.67205 0.95222 0.76605 0.0
C2865 C 0.67437 0.92883 0.78608 0.0
C2866 C 0.68539 0.921 0.77537 0.0
C2867 C 0.68901 0.92854 0.75966 0.0
C2868 C 0.68237 0.9439 0.75502 0.0
C2869 C 0.69482 0.90614 0.78119 0.0
C2870 C 0.70492 0.90745 0.7964 0.0
C2871 C 0.69584 0.8918 0.77082 0.0
C2872 C 0.68441 0.88902 0.75535 0.0
C2873 C 0.69135 0.88544 0.73972 0.0
C2874 C 0.68057 0.88298 0.72516 0.0
C2875 C 0.66279 0.88402 0.72608 0.0
C2876 C 0.65576 0.88749 0.74157 0.0
C2877 C 0.66648 0.88995 0.75616 0.0
H2878 H 0.65447 0.88213 0.7148 0.0
H2879 H 0.75444 0.90245 0.85963 0.0
H2880 H 0.63622 0.49804 0.99471 0.0
H2881 H 0.6586 0.51998 0.00218 0.0
H2882 H 0.62213 0.55809 0.99273 0.0
H2883 H 0.59987 0.53629 0.98464 0.0
H2884 H 0.65137 0.56603 0.97751 0.0
H2885 H 0.636 0.54721 0.03333 0.0
H2886 H 0.63106 0.52634 0.05622 0.0
H2887 H 0.68382 0.51361 0.05568 0.0
H2888 H 0.68902 0.53426 0.03262 0.0
H2889 H 0.69612 0.6372 0.01306 0.0
H2890 H 0.67551 0.61325 0.00837 0.0
H2891 H 0.71623 0.57915 0.01576 0.0
H2892 H 0.73712 0.60317 0.02063 0.0
H2893 H 0.68646 0.56807 0.03171 0.0
H2894 H 0.70205 0.58735 0.97654 0.0
H2895 H 0.70713 0.60827 0.95374 0.0
H2896 H 0.65399 0.61992 0.95294 0.0
H2897 H 0.64864 0.59923 0.97594 0.0
C2898 C 0.63296 0.5111 0.99421 0.0
C2899 C 0.61624 0.5154 0.98904 0.0
C2900 C 0.64573 0.52362 0.99865 0.0
C2901 C 0.64202 0.54069 0.99813 0.0
C2902 C 0.62528 0.545 0.99325 0.0
C2903 C 0.61252 0.5325 0.98879 0.0
C2904 C 0.65573 0.55414 0.00188 0.0
C2905 C 0.65887 0.56658 0.98946 0.0
C2906 C 0.66594 0.55455 0.01724 0.0
C2907 C 0.66285 0.54216 0.03112 0.0
C2908 C 0.64651 0.53987 0.038 0.0
C2909 C 0.64367 0.52809 0.05102 0.0
C2910 C 0.6571 0.51862 0.05737 0.0
C2911 C 0.67342 0.52094 0.05073 0.0
C2912 C 0.67632 0.53269 0.03769 0.0
C2913 C 0.70078 0.62464 0.01377 0.0
C2914 C 0.71836 0.62216 0.0171 0.0
C2915 C 0.68894 0.61094 0.01104 0.0
C2916 C 0.69437 0.59444 0.01147 0.0
C2917 C 0.71179 0.59181 0.01531 0.0
C2918 C 0.72371 0.60556 0.01804 0.0
C2919 C 0.68181 0.58008 0.00746 0.0
C2920 C 0.67895 0.56745 0.01977 0.0
C2921 C 0.67185 0.57945 0.99198 0.0
C2922 C 0.67499 0.59184 0.97807 0.0
C2923 C 0.69148 0.59446 0.9716 0.0
C2924 C 0.6944 0.60627 0.95862 0.0
C2925 C 0.6809 0.61545 0.95192 0.0
C2926 C 0.66444 0.61281 0.95816 0.0
C2927 C 0.66145 0.60103 0.97115 0.0
H2928 H 0.68319 0.62458 0.94187 0.0
H2929 H 0.65488 0.50951 0.06745 0.0
H2930 H 0.28221 0.62964 0.20478 0.0
H2931 H 0.25755 0.61059 0.21101 0.0
H2932 H 0.23496 0.65037 0.23756 0.0
H2933 H 0.25981 0.66957 0.23143 0.0
H2934 H 0.23241 0.62188 0.25524 0.0
H2935 H 0.21849 0.6375 0.19827 0.0
H2936 H 0.2232 0.64284 0.16792 0.0
H2937 H 0.23215 0.59063 0.16099 0.0
H2938 H 0.22774 0.58501 0.19136 0.0
H2939 H 0.15783 0.56516 0.26309 0.0
H2940 H 0.17494 0.5903 0.254 0.0
H2941 H 0.20963 0.55874 0.2299 0.0
H2942 H 0.19288 0.53371 0.23905 0.0
H2943 H 0.2016 0.58689 0.21029 0.0
H2944 H 0.21978 0.57314 0.2685 0.0
H2945 H 0.21493 0.56816 0.2989 0.0
H2946 H 0.19701 0.61793 0.30305 0.0
H2947 H 0.20154 0.62311 0.2726 0.0
C2948 C 0.27191 0.63441 0.21177 0.0
C2949 C 0.2729 0.65115 0.2175 0.0
C2950 C 0.25779 0.62351 0.21531 0.0
C2951 C 0.24422 0.62913 0.22447 0.0
C2952 C 0.24523 0.64579 0.23039 0.0
C2953 C 0.25945 0.65672 0.22693 0.0
C2954 C 0.22938 0.6173 0.22832 0.0
C2955 C 0.22541 0.61452 0.24536 0.0
C2956 C 0.22029 0.60757 0.21546 0.0
C2957 C 0.22288 0.61086 0.19714 0.0
C2958 C 0.22158 0.62717 0.19031 0.0
C2959 C 0.22418 0.63025 0.17309 0.0
C2960 C 0.228 0.61708 0.16254 0.0
C2961 C 0.22919 0.60081 0.16918 0.0
C2962 C 0.22662 0.59767 0.18639 0.0
C2963 C 0.16897 0.56359 0.25565 0.0
C2964 C 0.17397 0.54739 0.25178 0.0
C2965 C 0.17874 0.57796 0.25051 0.0
C2966 C 0.19359 0.57635 0.24135 0.0
C2967 C 0.19818 0.56025 0.2369 0.0
C2968 C 0.18855 0.54592 0.24216 0.0
C2969 C 0.20506 0.59123 0.23717 0.0
C2970 C 0.20838 0.59455 0.22009 0.0
C2971 C 0.21345 0.60153 0.24996 0.0
C2972 C 0.21079 0.59843 0.26825 0.0
C2973 C 0.21466 0.58296 0.27587 0.0
C2974 C 0.212 0.58011 0.29311 0.0
C2975 C 0.20561 0.5927 0.30289 0.0
C2976 C 0.20192 0.60818 0.29545 0.0
C2977 C 0.20454 0.61108 0.27821 0.0
H2978 H 0.20356 0.59047 0.31624 0.0
H2979 H 0.23001 0.61949 0.14921 0.0
H2980 H 0.93136 0.54281 0.05611 0.0
H2981 H 0.90435 0.55685 0.05546 0.0
H2982 H 0.89201 0.53836 0.00479 0.0
H2983 H 0.91941 0.52481 0.00509 0.0
H2984 H 0.88629 0.57079 0.00653 0.0
H2985 H 0.87061 0.52194 0.03902 0.0
H2986 H 0.87351 0.50062 0.06174 0.0
H2987 H 0.87135 0.53892 0.0995 0.0
H2988 H 0.86868 0.56053 0.07701 0.0
H2989 H 0.80343 0.60475 0.00854 0.0
H2990 H 0.82539 0.58409 0.00678 0.0
H2991 H 0.84658 0.59907 0.05627 0.0
H2992 H 0.82467 0.6195 0.05821 0.0
H2993 H 0.84526 0.56522 0.05286 0.0
H2994 H 0.86453 0.61419 0.02 0.0
H2995 H 0.86179 0.63544 0.99716 0.0
H2996 H 0.85693 0.59622 0.95984 0.0
H2997 H 0.85943 0.57472 0.98249 0.0
C2998 C 0.92294 0.54175 0.0448 0.0
C2999 C 0.92759 0.53271 0.03064 0.0
C3000 C 0.90738 0.54962 0.04452 0.0
C3001 C 0.89603 0.5485 0.03015 0.0
C3002 C 0.90053 0.53934 0.01605 0.0
C3003 C 0.91613 0.53148 0.0163 0.0
C3004 C 0.87989 0.5576 0.02963 0.0
C3005 C 0.87713 0.5693 0.01648 0.0
C3006 C 0.86804 0.55585 0.04272 0.0
C3007 C 0.86956 0.54288 0.05631 0.0
C3008 C 0.87087 0.52584 0.05217 0.0
C3009 C 0.87246 0.5137 0.06501 0.0
C3010 C 0.87265 0.51842 0.08205 0.0
C3011 C 0.87121 0.53529 0.08629 0.0
C3012 C 0.86963 0.54749 0.0735 0.0
C3013 C 0.81269 0.60354 0.01909 0.0
C3014 C 0.81236 0.61386 0.03347 0.0
C3015 C 0.82526 0.59177 0.01804 0.0
C3016 C 0.83774 0.59016 0.03132 0.0
C3017 C 0.83709 0.60008 0.04587 0.0
C3018 C 0.82458 0.61183 0.04693 0.0
C3019 C 0.85191 0.57863 0.02998 0.0
C3020 C 0.85429 0.56648 0.04279 0.0
C3021 C 0.86338 0.57993 0.01655 0.0
C3022 C 0.86196 0.59285 0.00294 0.0
C3023 C 0.86275 0.61009 0.00693 0.0
C3024 C 0.86126 0.62218 0.99402 0.0
C3025 C 0.85913 0.61718 0.97707 0.0
C3026 C 0.85854 0.60007 0.97298 0.0
C3027 C 0.86 0.58793 0.98585 0.0
H3028 H 0.85798 0.62655 0.96709 0.0
H3029 H 0.87388 0.509 0.09197 0.0
H3030 H 0.13049 0.00312 0.02494 0.0
H3031 H 0.14756 0.98073 0.01508 0.0
H3032 H 0.10159 0.94783 0.00891 0.0
H3033 H 0.08447 0.97004 0.01939 0.0
H3034 H 0.12646 0.93215 0.02537 0.0
H3035 H 0.12222 0.96473 0.97434 0.0
H3036 H 0.12408 0.99041 0.95655 0.0
H3037 H 0.1784 0.9968 0.96865 0.0
H3038 H 0.17682 0.97129 0.98673 0.0
H3039 H 0.16903 0.86743 0.98788 0.0
H3040 H 0.14981 0.8904 0.98988 0.0
H3041 H 0.19347 0.92526 0.00074 0.0
H3042 H 0.21287 0.90235 0.99864 0.0
H3043 H 0.1684 0.93934 0.97992 0.0
H3044 H 0.17191 0.90833 0.03275 0.0
H3045 H 0.1701 0.8828 0.05079 0.0
H3046 H 0.11682 0.87373 0.03516 0.0
H3047 H 0.11839 0.89909 0.01684 0.0
C3048 C 0.124 0.99111 0.02153 0.0
C3049 C 0.10612 0.98834 0.02306 0.0
C3050 C 0.13376 0.97838 0.01568 0.0
C3051 C 0.12584 0.96264 0.01106 0.0
C3052 C 0.10796 0.9599 0.01233 0.0
C3053 C 0.09817 0.97264 0.01821 0.0
C3054 C 0.13641 0.94878 0.00591 0.0
C3055 C 0.13537 0.93363 0.01519 0.0
C3056 C 0.14836 0.95083 0.99291 0.0
C3057 C 0.14937 0.96616 0.98201 0.0
C3058 C 0.13454 0.97168 0.97332 0.0
C3059 C 0.13555 0.9862 0.96316 0.0
C3060 C 0.15134 0.99525 0.9615 0.0
C3061 C 0.16617 0.98978 0.96996 0.0
C3062 C 0.16523 0.97528 0.98015 0.0
C3063 C 0.1746 0.88002 0.99044 0.0
C3064 C 0.19248 0.88301 0.99332 0.0
C3065 C 0.16357 0.89313 0.99161 0.0
C3066 C 0.17019 0.90947 0.99575 0.0
C3067 C 0.1881 0.91272 0.9976 0.0
C3068 C 0.19916 0.8996 0.99643 0.0
C3069 C 0.15842 0.92282 0.99941 0.0
C3070 C 0.15931 0.93786 0.98993 0.0
C3071 C 0.1463 0.9207 0.01223 0.0
C3072 C 0.14532 0.90549 0.02329 0.0
C3073 C 0.15985 0.90081 0.03306 0.0
C3074 C 0.15886 0.88639 0.04335 0.0
C3075 C 0.14337 0.87662 0.04408 0.0
C3076 C 0.12882 0.88129 0.03456 0.0
C3077 C 0.12975 0.89569 0.02422 0.0
H3078 H 0.14263 0.86546 0.05206 0.0
H3079 H 0.15209 0.00648 0.95363 0.0
loop_
_geom_bond_atom_site_label_1
_geom_bond_atom_site_label_2
_geom_bond_distance
_geom_bond_site_symmetry_2
_ccdc_geom_bond_type
P0 O11 1.490 . S
P0 C14 1.812 . S
P0 C20 1.803 . S
P0 C26 1.819 . S
H1 C15 0.941 . S
H2 C16 0.939 . S
H3 C18 0.940 1_655 S
H4 C19 0.940 . S
H5 C21 0.939 . S
H6 C22 0.942 . S
H7 C24 0.940 1_565 S
H8 C25 0.939 . S
H9 C27 0.941 . S
H10 C31 0.939 . S
O11 P0 1.490 . S
H12 C28 0.939 . S
H13 C30 0.934 . S
C14 P0 1.812 . S
C14 C15 1.389 . S
C14 C19 1.391 . S
C15 H1 0.941 . S
C15 C14 1.389 . S
C15 C16 1.397 . S
C16 H2 0.939 . S
C16 C15 1.397 . S
C16 C17 1.378 . S
C17 C16 1.378 . S
C17 C18 1.378 . S
C18 H3 0.940 1_455 S
C18 C17 1.378 . S
C18 C19 1.396 . S
C19 H4 0.940 . S
C19 C14 1.391 . S
C19 C18 1.396 . S
C20 P0 1.803 . S
C20 C21 1.378 . S
C20 C25 1.400 . S
C21 H5 0.939 . S
C21 C20 1.378 . S
C21 C22 1.361 . S
C22 H6 0.942 . S
C22 C21 1.361 . S
C22 C23 1.369 . S
C23 C22 1.369 . S
C23 C24 1.404 . S
C24 H7 0.940 1_545 S
C24 C23 1.404 . S
C24 C25 1.389 . S
C25 H8 0.939 . S
C25 C20 1.400 . S
C25 C24 1.389 . S
C26 P0 1.819 . S
C26 C27 1.391 . S
C26 C31 1.391 . S
C27 H9 0.941 . S
C27 C26 1.391 . S
C27 C28 1.396 . S
C28 H12 0.939 . S
C28 C27 1.396 . S
C28 C29 1.397 . S
C29 C28 1.397 . S
C29 C30 1.386 1_554 S
C30 H13 0.934 . S
C30 C29 1.386 1_556 S
C30 C31 1.393 1_556 S
C31 H10 0.939 . S
C31 C26 1.391 . S
C31 C30 1.393 1_554 S
P32 O43 1.490 . S
P32 C46 1.812 . S
P32 C52 1.803 . S
P32 C58 1.819 . S
H33 C47 0.941 . S
H34 C48 0.939 . S
H35 C50 0.940 . S
H36 C51 0.940 . S
H37 C53 0.939 . S
H38 C54 0.942 . S
H39 C56 0.940 . S
H40 C57 0.939 . S
H41 C59 0.941 . S
H42 C63 0.939 . S
O43 P32 1.490 . S
H44 C60 0.939 . S
H45 C62 0.940 . S
C46 P32 1.812 . S
C46 C47 1.389 . S
C46 C51 1.391 . S
C47 H33 0.941 . S
C47 C46 1.389 . S
C47 C48 1.397 . S
C48 H34 0.939 . S
C48 C47 1.397 . S
C48 C49 1.378 . S
C49 C48 1.378 . S
C49 C50 1.378 . S
C50 H35 0.940 . S
C50 C49 1.378 . S
C50 C51 1.396 . S
C51 H36 0.940 . S
C51 C46 1.391 . S
C51 C50 1.396 . S
C52 P32 1.803 . S
C52 C53 1.378 . S
C52 C57 1.400 . S
C53 H37 0.939 . S
C53 C52 1.378 . S
C53 C54 1.361 . S
C54 H38 0.942 . S
C54 C53 1.361 . S
C54 C55 1.369 . S
C55 C54 1.369 . S
C55 C56 1.404 . S
C56 H39 0.940 . S
C56 C55 1.404 . S
C56 C57 1.389 . S
C57 H40 0.939 . S
C57 C52 1.400 . S
C57 C56 1.389 . S
C58 P32 1.819 . S
C58 C59 1.391 . S
C58 C63 1.391 . S
C59 H41 0.941 . S
C59 C58 1.391 . S
C59 C60 1.396 . S
C60 H44 0.939 . S
C60 C59 1.396 . S
C60 C61 1.397 . S
C61 C60 1.397 . S
C61 C62 1.385 . S
C62 H45 0.940 . S
C62 C61 1.385 . S
C62 C63 1.388 . S
C63 H42 0.939 . S
C63 C58 1.391 . S
C63 C62 1.388 . S
P64 O75 1.490 1_655 S
P64 C78 1.812 . S
P64 C84 1.803 . S
P64 C90 1.819 1_655 S
H65 C79 0.929 1_556 S
H66 C80 0.936 1_556 S
H67 C82 0.940 . S
H68 C83 0.940 . S
H69 C85 0.939 . S
H70 C86 0.942 . S
H71 C88 0.940 . S
H72 C89 0.939 . S
H73 C91 0.941 . S
H74 C95 0.939 . S
O75 P64 1.490 1_455 S
H76 C92 0.939 . S
H77 C94 0.940 . S
C78 P64 1.812 . S
C78 C79 1.389 . S
C78 C83 1.391 . S
C79 H65 0.929 1_554 S
C79 C78 1.389 . S
C79 C80 1.398 . S
C80 H66 0.936 1_554 S
C80 C79 1.398 . S
C80 C81 1.380 . S
C81 C80 1.380 . S
C81 C82 1.378 . S
C82 H67 0.940 . S
C82 C81 1.378 . S
C82 C83 1.396 . S
C83 H68 0.940 . S
C83 C78 1.391 . S
C83 C82 1.396 . S
C84 P64 1.803 . S
C84 C85 1.378 . S
C84 C89 1.400 . S
C85 H69 0.939 . S
C85 C84 1.378 . S
C85 C86 1.361 . S
C86 H70 0.942 . S
C86 C85 1.361 . S
C86 C87 1.369 . S
C87 C86 1.369 . S
C87 C88 1.404 . S
C88 H71 0.940 . S
C88 C87 1.404 . S
C88 C89 1.389 . S
C89 H72 0.939 . S
C89 C84 1.400 . S
C89 C88 1.389 . S
C90 P64 1.819 1_455 S
C90 C91 1.391 . S
C90 C95 1.391 1_455 S
C91 H73 0.941 . S
C91 C90 1.391 . S
C91 C92 1.396 . S
C92 H76 0.939 . S
C92 C91 1.396 . S
C92 C93 1.397 . S
C93 C92 1.397 . S
C93 C94 1.385 1_455 S
C94 H77 0.940 . S
C94 C93 1.385 1_655 S
C94 C95 1.388 . S
C95 H74 0.939 . S
C95 C90 1.391 1_655 S
C95 C94 1.388 . S
P96 O107 1.490 . S
P96 C110 1.812 . S
P96 C116 1.803 . S
P96 C122 1.819 . S
H97 C111 0.941 . S
H98 C112 0.939 . S
H99 C114 0.940 . S
H100 C115 0.940 . S
H101 C117 0.939 . S
H102 C118 0.942 . S
H103 C120 0.940 . S
H104 C121 0.939 . S
H105 C123 0.941 . S
H106 C127 0.939 . S
O107 P96 1.490 . S
H108 C124 0.939 . S
H109 C126 0.940 . S
C110 P96 1.812 . S
C110 C111 1.389 . S
C110 C115 1.391 . S
C111 H97 0.941 . S
C111 C110 1.389 . S
C111 C112 1.397 . S
C112 H98 0.939 . S
C112 C111 1.397 . S
C112 C113 1.378 . S
C113 C112 1.378 . S
C113 C114 1.378 . S
C114 H99 0.940 . S
C114 C113 1.378 . S
C114 C115 1.396 . S
C115 H100 0.940 . S
C115 C110 1.391 . S
C115 C114 1.396 . S
C116 P96 1.803 . S
C116 C117 1.378 . S
C116 C121 1.400 . S
C117 H101 0.939 . S
C117 C116 1.378 . S
C117 C118 1.361 . S
C118 H102 0.942 . S
C118 C117 1.361 . S
C118 C119 1.369 . S
C119 C118 1.369 . S
C119 C120 1.404 . S
C120 H103 0.940 . S
C120 C119 1.404 . S
C120 C121 1.389 . S
C121 H104 0.939 . S
C121 C116 1.400 . S
C121 C120 1.389 . S
C122 P96 1.819 . S
C122 C123 1.391 . S
C122 C127 1.391 . S
C123 H105 0.941 . S
C123 C122 1.391 . S
C123 C124 1.396 . S
C124 H108 0.939 . S
C124 C123 1.396 . S
C124 C125 1.397 . S
C125 C124 1.397 . S
C125 C126 1.385 . S
C126 H109 0.940 . S
C126 C125 1.385 . S
C126 C127 1.388 . S
C127 H106 0.939 . S
C127 C122 1.391 . S
C127 C126 1.388 . S
P128 O139 1.490 . S
P128 C142 1.812 . S
P128 C148 1.803 . S
P128 C154 1.819 . S
H129 C143 0.941 . S
H130 C144 0.939 . S
H131 C146 0.940 . S
H132 C147 0.940 . S
H133 C149 0.939 . S
H134 C150 0.942 . S
H135 C152 0.940 . S
H136 C153 0.939 . S
H137 C155 0.941 . S
H138 C159 0.939 . S
O139 P128 1.490 . S
H140 C156 0.939 . S
H141 C158 0.940 . S
C142 P128 1.812 . S
C142 C143 1.389 . S
C142 C147 1.391 . S
C143 H129 0.941 . S
C143 C142 1.389 . S
C143 C144 1.397 . S
C144 H130 0.939 . S
C144 C143 1.397 . S
C144 C145 1.378 1_565 S
C145 C144 1.378 1_545 S
C145 C146 1.378 . S
C146 H131 0.940 . S
C146 C145 1.378 . S
C146 C147 1.396 1_545 S
C147 H132 0.940 . S
C147 C142 1.391 . S
C147 C146 1.396 1_565 S
C148 P128 1.803 . S
C148 C149 1.378 . S
C148 C153 1.400 . S
C149 H133 0.939 . S
C149 C148 1.378 . S
C149 C150 1.361 . S
C150 H134 0.942 . S
C150 C149 1.361 . S
C150 C151 1.369 . S
C151 C150 1.369 . S
C151 C152 1.404 . S
C152 H135 0.940 . S
C152 C151 1.404 . S
C152 C153 1.389 . S
C153 H136 0.939 . S
C153 C148 1.400 . S
C153 C152 1.389 . S
C154 P128 1.819 . S
C154 C155 1.391 . S
C154 C159 1.391 . S
C155 H137 0.941 . S
C155 C154 1.391 . S
C155 C156 1.396 . S
C156 H140 0.939 . S
C156 C155 1.396 . S
C156 C157 1.397 . S
C157 C156 1.397 . S
C157 C158 1.385 . S
C158 H141 0.940 . S
C158 C157 1.385 . S
C158 C159 1.388 . S
C159 H138 0.939 . S
C159 C154 1.391 . S
C159 C158 1.388 . S
P160 O171 1.490 . S
P160 C174 1.812 . S
P160 C180 1.803 . S
P160 C186 1.819 . S
H161 C175 0.941 . S
H162 C176 0.939 . S
H163 C178 0.940 . S
H164 C179 0.940 . S
H165 C181 0.939 . S
H166 C182 0.942 . S
H167 C184 0.940 . S
H168 C185 0.939 . S
H169 C187 0.941 . S
H170 C191 0.939 . S
O171 P160 1.490 . S
H172 C188 0.939 . S
H173 C190 0.940 . S
C174 P160 1.812 . S
C174 C175 1.389 . S
C174 C179 1.391 . S
C175 H161 0.941 . S
C175 C174 1.389 . S
C175 C176 1.397 . S
C176 H162 0.939 . S
C176 C175 1.397 . S
C176 C177 1.378 . S
C177 C176 1.378 . S
C177 C178 1.378 . S
C178 H163 0.940 . S
C178 C177 1.378 . S
C178 C179 1.396 . S
C179 H164 0.940 . S
C179 C174 1.391 . S
C179 C178 1.396 . S
C180 P160 1.803 . S
C180 C181 1.378 . S
C180 C185 1.400 . S
C181 H165 0.939 . S
C181 C180 1.378 . S
C181 C182 1.361 . S
C182 H166 0.942 . S
C182 C181 1.361 . S
C182 C183 1.369 . S
C183 C182 1.369 . S
C183 C184 1.404 . S
C184 H167 0.940 . S
C184 C183 1.404 . S
C184 C185 1.389 . S
C185 H168 0.939 . S
C185 C180 1.400 . S
C185 C184 1.389 . S
C186 P160 1.819 . S
C186 C187 1.391 . S
C186 C191 1.391 . S
C187 H169 0.941 . S
C187 C186 1.391 . S
C187 C188 1.396 . S
C188 H172 0.939 . S
C188 C187 1.396 . S
C188 C189 1.397 . S
C189 C188 1.397 . S
C189 C190 1.385 . S
C190 H173 0.940 . S
C190 C189 1.385 . S
C190 C191 1.388 . S
C191 H170 0.939 . S
C191 C186 1.391 . S
C191 C190 1.388 . S
P192 O203 1.490 . S
P192 C206 1.812 . S
P192 C212 1.803 . S
P192 C218 1.819 . S
H193 C207 0.941 . S
H194 C208 0.939 . S
H195 C210 0.940 . S
H196 C211 0.940 . S
H197 C213 0.939 . S
H198 C214 0.942 . S
H199 C216 0.940 . S
H200 C217 0.939 . S
H201 C219 0.941 . S
H202 C223 0.939 . S
O203 P192 1.490 . S
H204 C220 0.939 . S
H205 C222 0.940 . S
C206 P192 1.812 . S
C206 C207 1.389 1_655 S
C206 C211 1.391 . S
C207 H193 0.941 . S
C207 C206 1.389 1_455 S
C207 C208 1.397 . S
C208 H194 0.939 . S
C208 C207 1.397 . S
C208 C209 1.378 . S
C209 C208 1.378 . S
C209 C210 1.378 1_455 S
C210 H195 0.940 . S
C210 C209 1.378 1_655 S
C210 C211 1.396 . S
C211 H196 0.940 . S
C211 C206 1.391 . S
C211 C210 1.396 . S
C212 P192 1.803 . S
C212 C213 1.378 . S
C212 C217 1.400 . S
C213 H197 0.939 . S
C213 C212 1.378 . S
C213 C214 1.361 . S
C214 H198 0.942 . S
C214 C213 1.361 . S
C214 C215 1.369 . S
C215 C214 1.369 . S
C215 C216 1.404 . S
C216 H199 0.940 . S
C216 C215 1.404 . S
C216 C217 1.389 . S
C217 H200 0.939 . S
C217 C212 1.400 . S
C217 C216 1.389 . S
C218 P192 1.819 . S
C218 C219 1.391 . S
C218 C223 1.391 . S
C219 H201 0.941 . S
C219 C218 1.391 . S
C219 C220 1.396 . S
C220 H204 0.939 . S
C220 C219 1.396 . S
C220 C221 1.397 . S
C221 C220 1.397 . S
C221 C222 1.385 . S
C222 H205 0.940 . S
C222 C221 1.385 . S
C222 C223 1.388 . S
C223 H202 0.939 . S
C223 C218 1.391 . S
C223 C222 1.388 . S
P224 O235 1.490 . S
P224 C238 1.812 . S
P224 C244 1.803 . S
P224 C250 1.819 . S
H225 C239 0.941 . S
H226 C240 0.939 . S
H227 C242 0.940 . S
H228 C243 0.940 . S
H229 C245 0.939 . S
H230 C246 0.942 . S
H231 C248 0.940 . S
H232 C249 0.939 . S
H233 C251 0.941 . S
H234 C255 0.939 . S
O235 P224 1.490 . S
H236 C252 0.939 . S
H237 C254 0.940 . S
C238 P224 1.812 . S
C238 C239 1.389 . S
C238 C243 1.391 . S
C239 H225 0.941 . S
C239 C238 1.389 . S
C239 C240 1.397 . S
C240 H226 0.939 . S
C240 C239 1.397 . S
C240 C241 1.378 . S
C241 C240 1.378 . S
C241 C242 1.378 . S
C242 H227 0.940 . S
C242 C241 1.378 . S
C242 C243 1.396 . S
C243 H228 0.940 . S
C243 C238 1.391 . S
C243 C242 1.396 . S
C244 P224 1.803 . S
C244 C245 1.378 . S
C244 C249 1.400 . S
C245 H229 0.939 . S
C245 C244 1.378 . S
C245 C246 1.361 . S
C246 H230 0.942 . S
C246 C245 1.361 . S
C246 C247 1.369 . S
C247 C246 1.369 . S
C247 C248 1.404 . S
C248 H231 0.940 . S
C248 C247 1.404 . S
C248 C249 1.389 . S
C249 H232 0.939 . S
C249 C244 1.400 . S
C249 C248 1.389 . S
C250 P224 1.819 . S
C250 C251 1.391 . S
C250 C255 1.391 . S
C251 H233 0.941 . S
C251 C250 1.391 . S
C251 C252 1.396 . S
C252 H236 0.939 . S
C252 C251 1.396 . S
C252 C253 1.397 . S
C253 C252 1.397 . S
C253 C254 1.385 . S
C254 H237 0.940 . S
C254 C253 1.385 . S
C254 C255 1.388 . S
C255 H234 0.939 . S
C255 C250 1.391 . S
C255 C254 1.388 . S
P256 O267 1.490 . S
P256 C270 1.812 . S
P256 C276 1.803 . S
P256 C282 1.819 . S
H257 C271 0.941 . S
H258 C272 0.939 . S
H259 C274 0.940 . S
H260 C275 0.940 . S
H261 C277 0.939 . S
H262 C278 0.942 . S
H263 C280 0.940 . S
H264 C281 0.939 . S
H265 C283 0.941 . S
H266 C287 0.939 . S
O267 P256 1.490 . S
H268 C284 0.939 . S
H269 C286 0.940 . S
C270 P256 1.812 . S
C270 C271 1.389 . S
C270 C275 1.391 . S
C271 H257 0.941 . S
C271 C270 1.389 . S
C271 C272 1.397 . S
C272 H258 0.939 . S
C272 C271 1.397 . S
C272 C273 1.378 . S
C273 C272 1.378 . S
C273 C274 1.378 . S
C274 H259 0.940 . S
C274 C273 1.378 . S
C274 C275 1.396 . S
C275 H260 0.940 . S
C275 C270 1.391 . S
C275 C274 1.396 . S
C276 P256 1.803 . S
C276 C277 1.378 . S
C276 C281 1.400 . S
C277 H261 0.939 . S
C277 C276 1.378 . S
C277 C278 1.361 . S
C278 H262 0.942 . S
C278 C277 1.361 . S
C278 C279 1.369 . S
C279 C278 1.369 . S
C279 C280 1.404 . S
C280 H263 0.940 . S
C280 C279 1.404 . S
C280 C281 1.389 . S
C281 H264 0.939 . S
C281 C276 1.400 . S
C281 C280 1.389 . S
C282 P256 1.819 . S
C282 C283 1.391 . S
C282 C287 1.391 . S
C283 H265 0.941 . S
C283 C282 1.391 . S
C283 C284 1.396 . S
C284 H268 0.939 . S
C284 C283 1.396 . S
C284 C285 1.397 . S
C285 C284 1.397 . S
C285 C286 1.385 . S
C286 H269 0.940 . S
C286 C285 1.385 . S
C286 C287 1.388 . S
C287 H266 0.939 . S
C287 C282 1.391 . S
C287 C286 1.388 . S
P288 O299 1.490 . S
P288 C302 1.812 . S
P288 C308 1.803 . S
P288 C314 1.819 . S
H289 C303 0.941 . S
H290 C304 0.939 . S
H291 C306 0.940 . S
H292 C307 0.940 . S
H293 C309 0.939 . S
H294 C310 0.942 . S
H295 C312 0.940 . S
H296 C313 0.939 . S
H297 C315 0.941 . S
H298 C319 0.939 . S
O299 P288 1.490 . S
H300 C316 0.939 . S
H301 C318 0.940 . S
C302 P288 1.812 . S
C302 C303 1.389 . S
C302 C307 1.391 . S
C303 H289 0.941 . S
C303 C302 1.389 . S
C303 C304 1.397 . S
C304 H290 0.939 . S
C304 C303 1.397 . S
C304 C305 1.378 . S
C305 C304 1.378 . S
C305 C306 1.378 . S
C306 H291 0.940 . S
C306 C305 1.378 . S
C306 C307 1.396 . S
C307 H292 0.940 . S
C307 C302 1.391 . S
C307 C306 1.396 . S
C308 P288 1.803 . S
C308 C309 1.378 1_565 S
C308 C313 1.400 . S
C309 H293 0.939 . S
C309 C308 1.378 1_545 S
C309 C310 1.361 . S
C310 H294 0.942 . S
C310 C309 1.361 . S
C310 C311 1.369 . S
C311 C310 1.369 . S
C311 C312 1.404 1_545 S
C312 H295 0.940 . S
C312 C311 1.404 1_565 S
C312 C313 1.389 . S
C313 H296 0.939 . S
C313 C308 1.400 . S
C313 C312 1.389 . S
C314 P288 1.819 . S
C314 C315 1.391 . S
C314 C319 1.391 . S
C315 H297 0.941 . S
C315 C314 1.391 . S
C315 C316 1.396 . S
C316 H300 0.939 . S
C316 C315 1.396 . S
C316 C317 1.397 . S
C317 C316 1.397 . S
C317 C318 1.385 . S
C318 H301 0.940 . S
C318 C317 1.385 . S
C318 C319 1.388 . S
C319 H298 0.939 . S
C319 C314 1.391 . S
C319 C318 1.388 . S
P320 O331 1.490 . S
P320 C334 1.812 . S
P320 C340 1.803 . S
P320 C346 1.819 . S
H321 C335 0.941 . S
H322 C336 0.939 . S
H323 C338 0.940 . S
H324 C339 0.940 . S
H325 C341 0.939 . S
H326 C342 0.942 . S
H327 C344 0.940 . S
H328 C345 0.939 . S
H329 C347 0.941 . S
H330 C351 0.939 . S
O331 P320 1.490 . S
H332 C348 0.939 . S
H333 C350 0.940 . S
C334 P320 1.812 . S
C334 C335 1.389 . S
C334 C339 1.391 . S
C335 H321 0.941 . S
C335 C334 1.389 . S
C335 C336 1.397 . S
C336 H322 0.939 . S
C336 C335 1.397 . S
C336 C337 1.378 . S
C337 C336 1.378 . S
C337 C338 1.378 . S
C338 H323 0.940 . S
C338 C337 1.378 . S
C338 C339 1.396 . S
C339 H324 0.940 . S
C339 C334 1.391 . S
C339 C338 1.396 . S
C340 P320 1.803 . S
C340 C341 1.378 . S
C340 C345 1.400 . S
C341 H325 0.939 . S
C341 C340 1.378 . S
C341 C342 1.361 . S
C342 H326 0.942 . S
C342 C341 1.361 . S
C342 C343 1.369 . S
C343 C342 1.369 . S
C343 C344 1.404 . S
C344 H327 0.940 . S
C344 C343 1.404 . S
C344 C345 1.389 . S
C345 H328 0.939 . S
C345 C340 1.400 . S
C345 C344 1.389 . S
C346 P320 1.819 . S
C346 C347 1.391 . S
C346 C351 1.391 . S
C347 H329 0.941 . S
C347 C346 1.391 . S
C347 C348 1.396 . S
C348 H332 0.939 . S
C348 C347 1.396 . S
C348 C349 1.397 . S
C349 C348 1.397 . S
C349 C350 1.385 . S
C350 H333 0.940 . S
C350 C349 1.385 . S
C350 C351 1.388 . S
C351 H330 0.939 . S
C351 C346 1.391 . S
C351 C350 1.388 . S
P352 O363 1.490 . S
P352 C366 1.812 . S
P352 C372 1.803 . S
P352 C378 1.819 . S
H353 C367 0.941 . S
H354 C368 0.939 . S
H355 C370 0.940 . S
H356 C371 0.940 . S
H357 C373 0.939 . S
H358 C374 0.942 . S
H359 C376 0.940 . S
H360 C377 0.939 . S
H361 C379 0.941 . S
H362 C383 0.939 . S
O363 P352 1.490 . S
H364 C380 0.939 . S
H365 C382 0.940 . S
C366 P352 1.812 . S
C366 C367 1.389 . S
C366 C371 1.391 . S
C367 H353 0.941 . S
C367 C366 1.389 . S
C367 C368 1.397 . S
C368 H354 0.939 . S
C368 C367 1.397 . S
C368 C369 1.378 . S
C369 C368 1.378 . S
C369 C370 1.378 . S
C370 H355 0.940 . S
C370 C369 1.378 . S
C370 C371 1.396 . S
C371 H356 0.940 . S
C371 C366 1.391 . S
C371 C370 1.396 . S
C372 P352 1.803 . S
C372 C373 1.378 . S
C372 C377 1.400 . S
C373 H357 0.939 . S
C373 C372 1.378 . S
C373 C374 1.361 . S
C374 H358 0.942 . S
C374 C373 1.361 . S
C374 C375 1.369 . S
C375 C374 1.369 . S
C375 C376 1.404 . S
C376 H359 0.940 . S
C376 C375 1.404 . S
C376 C377 1.389 . S
C377 H360 0.939 . S
C377 C372 1.400 . S
C377 C376 1.389 . S
C378 P352 1.819 . S
C378 C379 1.391 . S
C378 C383 1.391 . S
C379 H361 0.941 . S
C379 C378 1.391 . S
C379 C380 1.396 . S
C380 H364 0.939 . S
C380 C379 1.396 . S
C380 C381 1.397 . S
C381 C380 1.397 . S
C381 C382 1.385 . S
C382 H365 0.940 . S
C382 C381 1.385 . S
C382 C383 1.388 . S
C383 H362 0.939 . S
C383 C378 1.391 . S
C383 C382 1.388 . S
P384 O395 1.490 . S
P384 C398 1.812 . S
P384 C404 1.803 . S
P384 C410 1.819 . S
H385 C399 0.941 . S
H386 C400 0.939 . S
H387 C402 0.940 . S
H388 C403 0.940 . S
H389 C405 0.939 . S
H390 C406 0.942 . S
H391 C408 0.940 . S
H392 C409 0.939 . S
H393 C411 0.941 . S
H394 C415 0.939 . S
O395 P384 1.490 . S
H396 C412 0.939 . S
H397 C414 0.940 . S
C398 P384 1.812 . S
C398 C399 1.389 . S
C398 C403 1.391 . S
C399 H385 0.941 . S
C399 C398 1.389 . S
C399 C400 1.397 . S
C400 H386 0.939 . S
C400 C399 1.397 . S
C400 C401 1.378 . S
C401 C400 1.378 . S
C401 C402 1.378 . S
C402 H387 0.940 . S
C402 C401 1.378 . S
C402 C403 1.396 . S
C403 H388 0.940 . S
C403 C398 1.391 . S
C403 C402 1.396 . S
C404 P384 1.803 . S
C404 C405 1.378 . S
C404 C409 1.400 . S
C405 H389 0.939 . S
C405 C404 1.378 . S
C405 C406 1.361 . S
C406 H390 0.942 . S
C406 C405 1.361 . S
C406 C407 1.369 . S
C407 C406 1.369 . S
C407 C408 1.404 . S
C408 H391 0.940 . S
C408 C407 1.404 . S
C408 C409 1.389 . S
C409 H392 0.939 . S
C409 C404 1.400 . S
C409 C408 1.389 . S
C410 P384 1.819 . S
C410 C411 1.391 . S
C410 C415 1.391 . S
C411 H393 0.941 . S
C411 C410 1.391 . S
C411 C412 1.396 . S
C412 H396 0.939 . S
C412 C411 1.396 . S
C412 C413 1.397 . S
C413 C412 1.397 . S
C413 C414 1.385 . S
C414 H397 0.940 . S
C414 C413 1.385 . S
C414 C415 1.388 . S
C415 H394 0.939 . S
C415 C410 1.391 . S
C415 C414 1.388 . S
P416 O427 1.490 . S
P416 C430 1.812 . S
P416 C436 1.803 . S
P416 C442 1.819 . S
H417 C431 0.941 . S
H418 C432 0.939 . S
H419 C434 0.940 . S
H420 C435 0.940 . S
H421 C437 0.939 . S
H422 C438 0.942 . S
H423 C440 0.940 . S
H424 C441 0.939 . S
H425 C443 0.941 . S
H426 C447 0.939 . S
O427 P416 1.490 . S
H428 C444 0.939 . S
H429 C446 0.940 . S
C430 P416 1.812 . S
C430 C431 1.389 . S
C430 C435 1.391 . S
C431 H417 0.941 . S
C431 C430 1.389 . S
C431 C432 1.397 . S
C432 H418 0.939 . S
C432 C431 1.397 . S
C432 C433 1.378 . S
C433 C432 1.378 . S
C433 C434 1.378 . S
C434 H419 0.940 . S
C434 C433 1.378 . S
C434 C435 1.396 . S
C435 H420 0.940 . S
C435 C430 1.391 . S
C435 C434 1.396 . S
C436 P416 1.803 . S
C436 C437 1.378 . S
C436 C441 1.400 . S
C437 H421 0.939 . S
C437 C436 1.378 . S
C437 C438 1.361 . S
C438 H422 0.942 . S
C438 C437 1.361 . S
C438 C439 1.362 1_556 S
C439 C438 1.362 1_554 S
C439 C440 1.405 . S
C440 H423 0.940 . S
C440 C439 1.405 . S
C440 C441 1.389 1_554 S
C441 H424 0.939 . S
C441 C436 1.400 . S
C441 C440 1.389 1_556 S
C442 P416 1.819 . S
C442 C443 1.391 . S
C442 C447 1.391 . S
C443 H425 0.941 . S
C443 C442 1.391 . S
C443 C444 1.396 . S
C444 H428 0.939 . S
C444 C443 1.396 . S
C444 C445 1.397 . S
C445 C444 1.397 . S
C445 C446 1.385 . S
C446 H429 0.940 . S
C446 C445 1.385 . S
C446 C447 1.388 . S
C447 H426 0.939 . S
C447 C442 1.391 . S
C447 C446 1.388 . S
P448 O459 1.490 . S
P448 C462 1.812 . S
P448 C468 1.803 . S
P448 C474 1.819 . S
H449 C463 0.941 . S
H450 C464 0.939 . S
H451 C466 0.940 . S
H452 C467 0.940 . S
H453 C469 0.939 . S
H454 C470 0.942 . S
H455 C472 0.940 . S
H456 C473 0.939 . S
H457 C475 0.941 . S
H458 C479 0.939 . S
O459 P448 1.490 . S
H460 C476 0.939 . S
H461 C478 0.940 . S
C462 P448 1.812 . S
C462 C463 1.389 . S
C462 C467 1.391 . S
C463 H449 0.941 . S
C463 C462 1.389 . S
C463 C464 1.397 . S
C464 H450 0.939 . S
C464 C463 1.397 . S
C464 C465 1.378 . S
C465 C464 1.378 . S
C465 C466 1.378 . S
C466 H451 0.940 . S
C466 C465 1.378 . S
C466 C467 1.396 . S
C467 H452 0.940 . S
C467 C462 1.391 . S
C467 C466 1.396 . S
C468 P448 1.803 . S
C468 C469 1.378 . S
C468 C473 1.400 . S
C469 H453 0.939 . S
C469 C468 1.378 . S
C469 C470 1.361 . S
C470 H454 0.942 . S
C470 C469 1.361 . S
C470 C471 1.369 . S
C471 C470 1.369 . S
C471 C472 1.404 . S
C472 H455 0.940 . S
C472 C471 1.404 . S
C472 C473 1.389 . S
C473 H456 0.939 . S
C473 C468 1.400 . S
C473 C472 1.389 . S
C474 P448 1.819 . S
C474 C475 1.391 . S
C474 C479 1.391 . S
C475 H457 0.941 . S
C475 C474 1.391 . S
C475 C476 1.396 . S
C476 H460 0.939 . S
C476 C475 1.396 . S
C476 C477 1.397 . S
C477 C476 1.397 . S
C477 C478 1.385 . S
C478 H461 0.940 . S
C478 C477 1.385 . S
C478 C479 1.388 . S
C479 H458 0.939 . S
C479 C474 1.391 . S
C479 C478 1.388 . S
P480 O491 1.459 1_556 S
P480 C494 1.812 . S
P480 C500 1.803 . S
P480 C506 1.819 . S
H481 C495 0.941 . S
H482 C496 0.939 . S
H483 C498 0.940 . S
H484 C499 0.940 . S
H485 C501 0.939 . S
H486 C502 0.942 . S
H487 C504 0.940 . S
H488 C505 0.939 . S
H489 C507 0.941 . S
H490 C511 0.939 . S
O491 P480 1.459 1_554 S
H492 C508 0.939 . S
H493 C510 0.940 . S
C494 P480 1.812 . S
C494 C495 1.389 . S
C494 C499 1.391 . S
C495 H481 0.941 . S
C495 C494 1.389 . S
C495 C496 1.397 . S
C496 H482 0.939 . S
C496 C495 1.397 . S
C496 C497 1.378 . S
C497 C496 1.378 . S
C497 C498 1.378 . S
C498 H483 0.940 . S
C498 C497 1.378 . S
C498 C499 1.396 . S
C499 H484 0.940 . S
C499 C494 1.391 . S
C499 C498 1.396 . S
C500 P480 1.803 . S
C500 C501 1.378 1_556 S
C500 C505 1.400 . S
C501 H485 0.939 . S
C501 C500 1.378 1_554 S
C501 C502 1.361 . S
C502 H486 0.942 . S
C502 C501 1.361 . S
C502 C503 1.369 . S
C503 C502 1.369 . S
C503 C504 1.404 1_554 S
C504 H487 0.940 . S
C504 C503 1.404 1_556 S
C504 C505 1.389 . S
C505 H488 0.939 . S
C505 C500 1.400 . S
C505 C504 1.389 . S
C506 P480 1.819 . S
C506 C507 1.391 1_545 S
C506 C511 1.391 . S
C507 H489 0.941 . S
C507 C506 1.391 1_565 S
C507 C508 1.396 . S
C508 H492 0.939 . S
C508 C507 1.396 . S
C508 C509 1.397 . S
C509 C508 1.397 . S
C509 C510 1.385 1_565 S
C510 H493 0.940 . S
C510 C509 1.385 1_545 S
C510 C511 1.388 . S
C511 H490 0.939 . S
C511 C506 1.391 . S
C511 C510 1.388 . S
Mg512 O513 2.028 . S
Mg512 O519 1.986 1_554 S
Mg512 O521 2.114 . S
Mg512 O522 2.251 . S
Mg512 O525 2.010 . S
O513 Mg512 2.028 . S
O513 C516 1.250 1_554 S
O514 Mg515 2.028 . S
O514 C516 1.248 . S
Mg515 O514 2.028 . S
Mg515 O520 2.032 . S
Mg515 O522 2.079 1_556 S
C516 O513 1.250 1_556 S
C516 O514 1.248 . S
C517 O518 1.264 . S
C517 O525 1.249 . S
O518 C517 1.264 . S
O519 Mg512 1.986 1_556 S
O519 C523 1.246 . S
O520 Mg515 2.032 . S
O520 C523 1.259 . S
O521 Mg512 2.114 . S
O521 C524 1.252 . S
O522 Mg512 2.251 . S
O522 Mg515 2.079 1_554 S
O522 C524 1.273 . S
C523 O519 1.246 . S
C523 O520 1.259 . S
C524 O521 1.252 . S
C524 O522 1.273 . S
O525 Mg512 2.010 . S
O525 C517 1.249 . S
Mg526 O527 2.028 . S
Mg526 O533 1.986 . S
Mg526 O535 2.114 . S
Mg526 O536 2.251 . S
Mg526 O539 2.010 . S
O527 Mg526 2.028 . S
O527 C530 1.250 . S
O528 Mg529 2.028 . S
O528 C530 1.248 . S
Mg529 O528 2.028 . S
Mg529 O534 2.032 . S
Mg529 O536 2.079 . S
C530 O527 1.250 . S
C530 O528 1.248 . S
C531 O532 1.264 . S
C531 O539 1.249 . S
O532 C531 1.264 . S
O533 Mg526 1.986 . S
O533 C537 1.246 . S
O534 Mg529 2.032 . S
O534 C537 1.259 . S
O535 Mg526 2.114 . S
O535 C538 1.252 . S
O536 Mg526 2.251 . S
O536 Mg529 2.079 . S
O536 C538 1.273 . S
C537 O533 1.246 . S
C537 O534 1.259 . S
C538 O535 1.252 . S
C538 O536 1.273 . S
O539 Mg526 2.010 . S
O539 C531 1.249 . S
Mg540 O541 2.028 . S
Mg540 O547 1.986 1_554 S
Mg540 O549 2.114 . S
Mg540 O550 2.251 . S
Mg540 O553 2.010 . S
O541 Mg540 2.028 . S
O541 C544 1.250 . S
O542 Mg543 2.027 1_554 S
O542 C544 1.250 . S
Mg543 O542 2.027 1_556 S
Mg543 O548 2.070 . S
Mg543 O550 2.048 1_556 S
C544 O541 1.250 . S
C544 O542 1.250 . S
C545 O546 1.264 . S
C545 O553 1.249 . S
O546 C545 1.264 . S
O547 Mg540 1.986 1_556 S
O547 C551 1.246 . S
O548 Mg543 2.070 . S
O548 C551 1.259 . S
O549 Mg540 2.114 . S
O549 C552 1.252 . S
O550 Mg540 2.251 . S
O550 Mg543 2.048 1_554 S
O550 C552 1.273 . S
C551 O547 1.246 . S
C551 O548 1.259 . S
C552 O549 1.252 . S
C552 O550 1.273 . S
O553 Mg540 2.010 . S
O553 C545 1.249 . S
Mg554 O555 2.028 . S
Mg554 O561 1.986 . S
Mg554 O563 2.114 . S
Mg554 O564 2.251 . S
Mg554 O567 2.010 . S
O555 Mg554 2.028 . S
O555 C558 1.250 1_545 S
O556 Mg557 2.028 . S
O556 C558 1.248 . S
Mg557 O556 2.028 . S
Mg557 O562 2.032 . S
Mg557 O564 2.079 1_565 S
C558 O555 1.250 1_565 S
C558 O556 1.248 . S
C559 O560 1.264 . S
C559 O567 1.249 . S
O560 C559 1.264 . S
O561 Mg554 1.986 . S
O561 C565 1.246 . S
O562 Mg557 2.032 . S
O562 C565 1.259 1_565 S
O563 Mg554 2.114 . S
O563 C566 1.252 . S
O564 Mg554 2.251 . S
O564 Mg557 2.079 1_545 S
O564 C566 1.273 . S
C565 O561 1.246 . S
C565 O562 1.259 1_545 S
C566 O563 1.252 . S
C566 O564 1.273 . S
O567 Mg554 2.010 . S
O567 C559 1.249 . S
Mg568 O569 2.028 . S
Mg568 O575 1.986 . S
Mg568 O577 2.114 . S
Mg568 O578 2.251 . S
Mg568 O581 2.010 . S
O569 Mg568 2.028 . S
O569 C572 1.250 . S
O570 Mg571 2.028 . S
O570 C572 1.248 . S
Mg571 O570 2.028 . S
Mg571 O576 2.032 . S
Mg571 O578 2.079 . S
C572 O569 1.250 . S
C572 O570 1.248 . S
C573 O574 1.264 . S
C573 O581 1.249 . S
O574 C573 1.264 . S
O575 Mg568 1.986 . S
O575 C579 1.246 . S
O576 Mg571 2.032 . S
O576 C579 1.259 . S
O577 Mg568 2.114 . S
O577 C580 1.252 . S
O578 Mg568 2.251 . S
O578 Mg571 2.079 . S
O578 C580 1.273 . S
C579 O575 1.246 . S
C579 O576 1.259 . S
C580 O577 1.252 . S
C580 O578 1.273 . S
O581 Mg568 2.010 . S
O581 C573 1.249 . S
Mg582 O583 2.028 . S
Mg582 O589 1.986 . S
Mg582 O591 2.114 . S
Mg582 O592 2.251 . S
Mg582 O595 2.010 . S
O583 Mg582 2.028 . S
O583 C586 1.250 . S
O584 Mg585 2.028 . S
O584 C586 1.248 . S
Mg585 O584 2.028 . S
Mg585 O590 2.032 . S
Mg585 O592 2.079 . S
C586 O583 1.250 . S
C586 O584 1.248 . S
C587 O588 1.264 . S
C587 O595 1.249 . S
O588 C587 1.264 . S
O589 Mg582 1.986 . S
O589 C593 1.246 . S
O590 Mg585 2.032 . S
O590 C593 1.259 . S
O591 Mg582 2.114 . S
O591 C594 1.252 . S
O592 Mg582 2.251 . S
O592 Mg585 2.079 . S
O592 C594 1.273 . S
C593 O589 1.246 . S
C593 O590 1.259 . S
C594 O591 1.252 . S
C594 O592 1.273 . S
O595 Mg582 2.010 . S
O595 C587 1.249 . S
Mg596 O597 2.028 . S
Mg596 O603 1.986 . S
Mg596 O605 2.114 . S
Mg596 O606 2.251 . S
Mg596 O609 2.010 . S
O597 Mg596 2.028 . S
O597 C600 1.250 . S
O598 Mg599 2.028 . S
O598 C600 1.248 . S
Mg599 O598 2.028 . S
Mg599 O604 2.032 . S
Mg599 O606 2.079 . S
C600 O597 1.250 . S
C600 O598 1.248 . S
C601 O602 1.264 . S
C601 O609 1.249 . S
O602 C601 1.264 . S
O603 Mg596 1.986 . S
O603 C607 1.246 . S
O604 Mg599 2.032 . S
O604 C607 1.259 . S
O605 Mg596 2.114 . S
O605 C608 1.252 . S
O606 Mg596 2.251 . S
O606 Mg599 2.079 . S
O606 C608 1.273 . S
C607 O603 1.246 . S
C607 O604 1.259 . S
C608 O605 1.252 . S
C608 O606 1.273 . S
O609 Mg596 2.010 . S
O609 C601 1.249 . S
Mg610 O611 2.021 1_545 S
Mg610 O617 1.986 1_545 S
Mg610 O619 2.114 . S
Mg610 O620 2.251 . S
Mg610 O623 2.010 . S
O611 Mg610 2.021 1_565 S
O611 C614 1.262 . S
O612 Mg613 2.028 . S
O612 C614 1.248 . S
Mg613 O612 2.028 . S
Mg613 O618 2.032 . S
Mg613 O620 2.079 1_565 S
C614 O611 1.262 . S
C614 O612 1.248 . S
C615 O616 1.264 . S
C615 O623 1.249 . S
O616 C615 1.264 . S
O617 Mg610 1.986 1_565 S
O617 C621 1.246 . S
O618 Mg613 2.032 . S
O618 C621 1.259 . S
O619 Mg610 2.114 . S
O619 C622 1.252 . S
O620 Mg610 2.251 . S
O620 Mg613 2.079 1_545 S
O620 C622 1.273 . S
C621 O617 1.246 . S
C621 O618 1.259 . S
C622 O619 1.252 . S
C622 O620 1.273 . S
O623 Mg610 2.010 . S
O623 C615 1.249 . S
Mg624 O625 2.028 . S
Mg624 O631 1.986 . S
Mg624 O633 2.114 . S
Mg624 O634 2.251 . S
Mg624 O637 2.010 . S
O625 Mg624 2.028 . S
O625 C628 1.250 1_455 S
O626 Mg627 2.028 . S
O626 C628 1.248 . S
Mg627 O626 2.028 . S
Mg627 O632 2.013 1_655 S
Mg627 O634 2.079 1_655 S
C628 O625 1.250 1_655 S
C628 O626 1.248 . S
C629 O630 1.264 . S
C629 O637 1.249 . S
O630 C629 1.264 . S
O631 Mg624 1.986 . S
O631 C635 1.246 . S
O632 Mg627 2.013 1_455 S
O632 C635 1.310 . S
O633 Mg624 2.114 . S
O633 C636 1.252 . S
O634 Mg624 2.251 . S
O634 Mg627 2.079 1_455 S
O634 C636 1.273 . S
C635 O631 1.246 . S
C635 O632 1.310 . S
C636 O633 1.252 . S
C636 O634 1.273 . S
O637 Mg624 2.010 . S
O637 C629 1.249 . S
Mg638 O639 2.028 . S
Mg638 O645 1.986 . S
Mg638 O647 2.114 . S
Mg638 O648 2.251 . S
Mg638 O651 2.010 . S
O639 Mg638 2.028 . S
O639 C642 1.250 . S
O640 Mg641 2.028 . S
O640 C642 1.248 . S
Mg641 O640 2.028 . S
Mg641 O646 2.032 . S
Mg641 O648 2.079 . S
C642 O639 1.250 . S
C642 O640 1.248 . S
C643 O644 1.264 . S
C643 O651 1.249 . S
O644 C643 1.264 . S
O645 Mg638 1.986 . S
O645 C649 1.246 . S
O646 Mg641 2.032 . S
O646 C649 1.259 . S
O647 Mg638 2.114 . S
O647 C650 1.252 . S
O648 Mg638 2.251 . S
O648 Mg641 2.079 . S
O648 C650 1.273 . S
C649 O645 1.246 . S
C649 O646 1.259 . S
C650 O647 1.252 . S
C650 O648 1.273 . S
O651 Mg638 2.010 . S
O651 C643 1.249 . S
Mg652 O653 2.028 1_655 S
Mg652 O659 1.995 . S
Mg652 O661 2.114 . S
Mg652 O662 2.251 1_655 S
Mg652 O665 2.010 . S
O653 Mg652 2.028 1_455 S
O653 C656 1.250 . S
O654 Mg655 2.028 . S
O654 C656 1.248 . S
Mg655 O654 2.028 . S
Mg655 O660 2.032 . S
Mg655 O662 2.079 . S
C656 O653 1.250 . S
C656 O654 1.248 . S
C657 O658 1.264 . S
C657 O665 1.249 . S
O658 C657 1.264 . S
O659 Mg652 1.995 . S
O659 C663 1.219 1_655 S
O660 Mg655 2.032 . S
O660 C663 1.259 . S
O661 Mg652 2.114 . S
O661 C664 1.252 . S
O662 Mg652 2.251 1_455 S
O662 Mg655 2.079 . S
O662 C664 1.273 1_455 S
C663 O659 1.219 1_455 S
C663 O660 1.259 . S
C664 O661 1.252 . S
C664 O662 1.273 1_655 S
O665 Mg652 2.010 . S
O665 C657 1.249 . S
Mg666 O667 2.028 . S
Mg666 O673 1.986 . S
Mg666 O675 2.114 . S
Mg666 O676 2.251 . S
Mg666 O679 2.010 . S
O667 Mg666 2.028 . S
O667 C670 1.250 . S
O668 Mg669 2.028 . S
O668 C670 1.248 . S
Mg669 O668 2.028 . S
Mg669 O674 2.032 . S
Mg669 O676 2.079 . S
C670 O667 1.250 . S
C670 O668 1.248 . S
C671 O672 1.264 . S
C671 O679 1.249 . S
O672 C671 1.264 . S
O673 Mg666 1.986 . S
O673 C677 1.246 . S
O674 Mg669 2.032 . S
O674 C677 1.259 . S
O675 Mg666 2.114 . S
O675 C678 1.252 . S
O676 Mg666 2.251 . S
O676 Mg669 2.079 . S
O676 C678 1.273 . S
C677 O673 1.246 . S
C677 O674 1.259 . S
C678 O675 1.252 . S
C678 O676 1.273 . S
O679 Mg666 2.010 . S
O679 C671 1.249 . S
H680 C698 0.951 . S
H681 C700 0.951 . S
H682 C702 0.950 . S
H683 C703 0.950 . S
H684 C705 0.950 . S
H685 C708 0.950 . S
H686 C709 0.950 . S
H687 C711 0.950 . S
H688 C712 0.950 . S
H689 C713 0.951 . S
H690 C715 0.951 . S
H691 C717 0.950 . S
H692 C718 0.950 . S
H693 C720 0.950 . S
H694 C723 0.950 . S
H695 C724 0.950 . S
H696 C726 0.950 . S
H697 C727 0.950 . S
C698 H680 0.951 . S
C698 C699 1.366 . S
C698 C700 1.388 . S
C699 C698 1.366 . S
C699 C703 1.385 . S
C700 H681 0.951 . S
C700 C698 1.388 . S
C700 C701 1.366 . S
C701 C700 1.366 . S
C701 C702 1.414 . S
C701 C704 1.499 . S
C702 H682 0.950 . S
C702 C701 1.414 . S
C702 C703 1.374 . S
C703 H683 0.950 . S
C703 C699 1.385 . S
C703 C702 1.374 . S
C704 C701 1.499 . S
C704 C705 1.373 . S
C704 C706 1.389 . S
C705 H684 0.950 . S
C705 C704 1.373 . S
C705 C721 1.377 . S
C706 C704 1.389 . S
C706 C707 1.524 . S
C706 C720 1.377 . S
C707 C706 1.524 . S
C707 C708 1.397 . S
C707 C712 1.363 . S
C708 H685 0.950 . S
C708 C707 1.397 . S
C708 C709 1.334 . S
C709 H686 0.950 . S
C709 C708 1.334 . S
C709 C710 1.287 . S
C710 C709 1.287 . S
C710 C711 1.524 . S
C710 H729 0.913 . S
C711 H687 0.950 . S
C711 C710 1.524 . S
C711 C712 1.415 . S
C712 H688 0.950 . S
C712 C707 1.363 . S
C712 C711 1.415 . S
C713 H689 0.951 . S
C713 C714 1.366 . S
C713 C715 1.388 . S
C714 C713 1.366 . S
C714 C718 1.385 . S
C715 H690 0.951 . S
C715 C713 1.388 . S
C715 C716 1.366 . S
C716 C715 1.366 . S
C716 C717 1.414 . S
C716 C719 1.499 . S
C717 H691 0.950 . S
C717 C716 1.414 . S
C717 C718 1.374 . S
C718 H692 0.950 . S
C718 C714 1.385 . S
C718 C717 1.374 . S
C719 C716 1.499 . S
C719 C720 1.373 . S
C719 C721 1.389 . S
C720 H693 0.950 . S
C720 C706 1.377 . S
C720 C719 1.373 . S
C721 C705 1.377 . S
C721 C719 1.389 . S
C721 C722 1.524 . S
C722 C721 1.524 . S
C722 C723 1.397 . S
C722 C727 1.363 . S
C723 H694 0.950 . S
C723 C722 1.397 . S
C723 C724 1.334 . S
C724 H695 0.950 . S
C724 C723 1.334 . S
C724 C725 1.287 . S
C725 C724 1.287 . S
C725 C726 1.524 . S
C725 H728 0.999 . S
C726 H696 0.950 . S
C726 C725 1.524 . S
C726 C727 1.415 . S
C727 H697 0.950 . S
C727 C722 1.363 . S
C727 C726 1.415 . S
H728 C725 0.999 . S
H729 C710 0.913 . S
H730 C748 0.953 . S
H731 C750 0.951 . S
H732 C752 0.950 . S
H733 C753 0.950 . S
H734 C755 0.950 . S
H735 C758 0.950 . S
H736 C759 0.950 . S
H737 C761 0.950 . S
H738 C762 0.950 . S
H739 C763 0.951 . S
H740 C765 0.951 . S
H741 C767 0.950 . S
H742 C768 0.950 . S
H743 C770 0.950 . S
H744 C773 0.950 . S
H745 C774 0.950 . S
H746 C776 0.950 . S
H747 C777 0.950 . S
C748 H730 0.953 . S
C748 C749 1.366 . S
C748 C750 1.388 . S
C749 C748 1.366 . S
C749 C753 1.385 . S
C750 H731 0.951 . S
C750 C748 1.388 . S
C750 C751 1.366 . S
C751 C750 1.366 . S
C751 C752 1.414 . S
C751 C754 1.499 . S
C752 H732 0.950 . S
C752 C751 1.414 . S
C752 C753 1.374 . S
C753 H733 0.950 . S
C753 C749 1.385 . S
C753 C752 1.374 . S
C754 C751 1.499 . S
C754 C755 1.373 . S
C754 C756 1.389 . S
C755 H734 0.950 . S
C755 C754 1.373 . S
C755 C771 1.377 . S
C756 C754 1.389 . S
C756 C757 1.524 . S
C756 C770 1.377 . S
C757 C756 1.524 . S
C757 C758 1.397 . S
C757 C762 1.363 . S
C758 H735 0.950 . S
C758 C757 1.397 . S
C758 C759 1.334 . S
C759 H736 0.950 . S
C759 C758 1.334 . S
C759 C760 1.287 . S
C760 C759 1.287 . S
C760 C761 1.524 . S
C760 H779 0.913 . S
C761 H737 0.950 . S
C761 C760 1.524 . S
C761 C762 1.415 . S
C762 H738 0.950 . S
C762 C757 1.363 . S
C762 C761 1.415 . S
C763 H739 0.951 . S
C763 C764 1.366 . S
C763 C765 1.388 . S
C764 C763 1.366 . S
C764 C768 1.385 . S
C765 H740 0.951 . S
C765 C763 1.388 . S
C765 C766 1.366 . S
C766 C765 1.366 . S
C766 C767 1.414 . S
C766 C769 1.499 . S
C767 H741 0.950 . S
C767 C766 1.414 . S
C767 C768 1.374 . S
C768 H742 0.950 . S
C768 C764 1.385 . S
C768 C767 1.374 . S
C769 C766 1.499 . S
C769 C770 1.373 . S
C769 C771 1.389 . S
C770 H743 0.950 . S
C770 C756 1.377 . S
C770 C769 1.373 . S
C771 C755 1.377 . S
C771 C769 1.389 . S
C771 C772 1.524 . S
C772 C771 1.524 . S
C772 C773 1.397 . S
C772 C777 1.363 . S
C773 H744 0.950 . S
C773 C772 1.397 . S
C773 C774 1.334 . S
C774 H745 0.950 . S
C774 C773 1.334 . S
C774 C775 1.287 . S
C775 C774 1.287 . S
C775 C776 1.524 . S
C775 H778 0.999 . S
C776 H746 0.950 . S
C776 C775 1.524 . S
C776 C777 1.415 . S
C777 H747 0.950 . S
C777 C772 1.363 . S
C777 C776 1.415 . S
H778 C775 0.999 . S
H779 C760 0.913 . S
H780 C798 0.951 . S
H781 C800 0.951 . S
H782 C802 0.950 . S
H783 C803 0.950 . S
H784 C805 0.950 . S
H785 C808 0.950 . S
H786 C809 0.950 . S
H787 C811 0.950 . S
H788 C812 0.950 . S
H789 C813 0.951 . S
H790 C815 0.951 . S
H791 C817 0.950 . S
H792 C818 0.950 . S
H793 C820 0.950 . S
H794 C823 0.950 . S
H795 C824 0.950 . S
H796 C826 0.950 . S
H797 C827 0.950 . S
C798 H780 0.951 . S
C798 C799 1.366 . S
C798 C800 1.388 . S
C799 C798 1.366 . S
C799 C803 1.385 . S
C800 H781 0.951 . S
C800 C798 1.388 . S
C800 C801 1.366 . S
C801 C800 1.366 . S
C801 C802 1.414 . S
C801 C804 1.499 . S
C802 H782 0.950 . S
C802 C801 1.414 . S
C802 C803 1.374 . S
C803 H783 0.950 . S
C803 C799 1.385 . S
C803 C802 1.374 . S
C804 C801 1.499 . S
C804 C805 1.373 . S
C804 C806 1.389 . S
C805 H784 0.950 . S
C805 C804 1.373 . S
C805 C821 1.377 . S
C806 C804 1.389 . S
C806 C807 1.524 . S
C806 C820 1.377 . S
C807 C806 1.524 . S
C807 C808 1.397 . S
C807 C812 1.363 . S
C808 H785 0.950 . S
C808 C807 1.397 . S
C808 C809 1.334 . S
C809 H786 0.950 . S
C809 C808 1.334 . S
C809 C810 1.287 . S
C810 C809 1.287 . S
C810 C811 1.524 . S
C810 H829 0.913 . S
C811 H787 0.950 . S
C811 C810 1.524 . S
C811 C812 1.415 . S
C812 H788 0.950 . S
C812 C807 1.363 . S
C812 C811 1.415 . S
C813 H789 0.951 . S
C813 C814 1.366 . S
C813 C815 1.388 . S
C814 C813 1.366 . S
C814 C818 1.385 . S
C815 H790 0.951 . S
C815 C813 1.388 . S
C815 C816 1.366 . S
C816 C815 1.366 . S
C816 C817 1.414 . S
C816 C819 1.499 . S
C817 H791 0.950 . S
C817 C816 1.414 . S
C817 C818 1.374 . S
C818 H792 0.950 . S
C818 C814 1.385 . S
C818 C817 1.374 . S
C819 C816 1.499 . S
C819 C820 1.373 . S
C819 C821 1.389 . S
C820 H793 0.950 . S
C820 C806 1.377 . S
C820 C819 1.373 . S
C821 C805 1.377 . S
C821 C819 1.389 . S
C821 C822 1.524 . S
C822 C821 1.524 . S
C822 C823 1.397 . S
C822 C827 1.363 . S
C823 H794 0.950 . S
C823 C822 1.397 . S
C823 C824 1.334 . S
C824 H795 0.950 . S
C824 C823 1.334 . S
C824 C825 1.287 . S
C825 C824 1.287 . S
C825 C826 1.524 . S
C825 H828 0.999 . S
C826 H796 0.950 . S
C826 C825 1.524 . S
C826 C827 1.415 . S
C827 H797 0.950 . S
C827 C822 1.363 . S
C827 C826 1.415 . S
H828 C825 0.999 . S
H829 C810 0.913 . S
H830 C848 0.951 . S
H831 C850 0.951 . S
H832 C852 0.950 . S
H833 C853 0.950 . S
H834 C855 0.950 . S
H835 C858 0.950 . S
H836 C859 0.950 . S
H837 C861 0.950 . S
H838 C862 0.950 . S
H839 C863 0.951 . S
H840 C865 0.951 . S
H841 C867 0.949 . S
H842 C868 0.957 . S
H843 C870 0.950 . S
H844 C873 0.950 . S
H845 C874 0.950 . S
H846 C876 0.950 . S
H847 C877 0.950 . S
C848 H830 0.951 . S
C848 C849 1.366 1_655 S
C848 C850 1.388 . S
C849 C848 1.366 1_455 S
C849 C853 1.385 . S
C850 H831 0.951 . S
C850 C848 1.388 . S
C850 C851 1.366 . S
C851 C850 1.366 . S
C851 C852 1.414 1_655 S
C851 C854 1.499 . S
C852 H832 0.950 . S
C852 C851 1.414 1_455 S
C852 C853 1.374 . S
C853 H833 0.950 . S
C853 C849 1.385 . S
C853 C852 1.374 . S
C854 C851 1.499 . S
C854 C855 1.373 1_565 S
C854 C856 1.389 . S
C855 H834 0.950 . S
C855 C854 1.373 1_545 S
C855 C871 1.377 . S
C856 C854 1.389 . S
C856 C857 1.524 . S
C856 C870 1.377 . S
C857 C856 1.524 . S
C857 C858 1.397 . S
C857 C862 1.363 . S
C858 H835 0.950 . S
C858 C857 1.397 . S
C858 C859 1.334 . S
C859 H836 0.950 . S
C859 C858 1.334 . S
C859 C860 1.287 . S
C860 C859 1.287 . S
C860 C861 1.524 . S
C860 H879 0.913 . S
C861 H837 0.950 . S
C861 C860 1.524 . S
C861 C862 1.415 . S
C862 H838 0.950 . S
C862 C857 1.363 . S
C862 C861 1.415 . S
C863 H839 0.951 . S
C863 C864 1.366 . S
C863 C865 1.388 . S
C864 C863 1.366 . S
C864 C868 1.385 . S
C865 H840 0.951 . S
C865 C863 1.388 . S
C865 C866 1.366 . S
C866 C865 1.366 . S
C866 C867 1.415 1_545 S
C866 C869 1.496 1_545 S
C867 H841 0.949 . S
C867 C866 1.415 1_565 S
C867 C868 1.375 1_565 S
C868 H842 0.957 . S
C868 C864 1.385 . S
C868 C867 1.375 1_545 S
C869 C866 1.496 1_565 S
C869 C870 1.384 . S
C869 C871 1.382 1_565 S
C870 H843 0.950 . S
C870 C856 1.377 . S
C870 C869 1.384 . S
C871 C855 1.377 . S
C871 C869 1.382 1_545 S
C871 C872 1.524 . S
C872 C871 1.524 . S
C872 C873 1.397 . S
C872 C877 1.363 . S
C873 H844 0.950 . S
C873 C872 1.397 . S
C873 C874 1.334 . S
C874 H845 0.950 . S
C874 C873 1.334 . S
C874 C875 1.287 . S
C875 C874 1.287 . S
C875 C876 1.524 . S
C875 H878 0.999 . S
C876 H846 0.950 . S
C876 C875 1.524 . S
C876 C877 1.415 . S
C877 H847 0.950 . S
C877 C872 1.363 . S
C877 C876 1.415 . S
H878 C875 0.999 . S
H879 C860 0.913 . S
H880 C898 0.951 . S
H881 C900 0.951 . S
H882 C902 0.950 . S
H883 C903 0.950 . S
H884 C905 0.950 . S
H885 C908 0.950 . S
H886 C909 0.950 . S
H887 C911 0.950 . S
H888 C912 0.950 . S
H889 C913 0.951 . S
H890 C915 0.951 . S
H891 C917 0.950 . S
H892 C918 0.950 . S
H893 C920 0.950 . S
H894 C923 0.950 . S
H895 C924 0.950 . S
H896 C926 0.950 . S
H897 C927 0.950 . S
C898 H880 0.951 . S
C898 C899 1.366 . S
C898 C900 1.388 . S
C899 C898 1.366 . S
C899 C903 1.385 . S
C900 H881 0.951 . S
C900 C898 1.388 . S
C900 C901 1.366 . S
C901 C900 1.366 . S
C901 C902 1.414 . S
C901 C904 1.499 . S
C902 H882 0.950 . S
C902 C901 1.414 . S
C902 C903 1.374 . S
C903 H883 0.950 . S
C903 C899 1.385 . S
C903 C902 1.374 . S
C904 C901 1.499 . S
C904 C905 1.373 . S
C904 C906 1.389 . S
C905 H884 0.950 . S
C905 C904 1.373 . S
C905 C921 1.377 . S
C906 C904 1.389 . S
C906 C907 1.524 . S
C906 C920 1.377 . S
C907 C906 1.524 . S
C907 C908 1.397 . S
C907 C912 1.363 . S
C908 H885 0.950 . S
C908 C907 1.397 . S
C908 C909 1.334 . S
C909 H886 0.950 . S
C909 C908 1.334 . S
C909 C910 1.287 . S
C910 C909 1.287 . S
C910 C911 1.524 . S
C910 H929 0.913 . S
C911 H887 0.950 . S
C911 C910 1.524 . S
C911 C912 1.415 . S
C912 H888 0.950 . S
C912 C907 1.363 . S
C912 C911 1.415 . S
C913 H889 0.951 . S
C913 C914 1.366 . S
C913 C915 1.388 . S
C914 C913 1.366 . S
C914 C918 1.385 . S
C915 H890 0.951 . S
C915 C913 1.388 . S
C915 C916 1.366 . S
C916 C915 1.366 . S
C916 C917 1.414 . S
C916 C919 1.499 . S
C917 H891 0.950 . S
C917 C916 1.414 . S
C917 C918 1.374 . S
C918 H892 0.950 . S
C918 C914 1.385 . S
C918 C917 1.374 . S
C919 C916 1.499 . S
C919 C920 1.373 . S
C919 C921 1.389 . S
C920 H893 0.950 . S
C920 C906 1.377 . S
C920 C919 1.373 . S
C921 C905 1.377 . S
C921 C919 1.389 . S
C921 C922 1.524 . S
C922 C921 1.524 . S
C922 C923 1.397 . S
C922 C927 1.363 . S
C923 H894 0.950 . S
C923 C922 1.397 . S
C923 C924 1.334 . S
C924 H895 0.950 . S
C924 C923 1.334 . S
C924 C925 1.287 . S
C925 C924 1.287 . S
C925 C926 1.524 . S
C925 H928 0.999 . S
C926 H896 0.950 . S
C926 C925 1.524 . S
C926 C927 1.415 . S
C927 H897 0.950 . S
C927 C922 1.363 . S
C927 C926 1.415 . S
H928 C925 0.999 . S
H929 C910 0.913 . S
H930 C948 0.951 . S
H931 C950 0.951 . S
H932 C952 0.950 . S
H933 C953 0.950 . S
H934 C955 0.950 . S
H935 C958 0.950 . S
H936 C959 0.950 . S
H937 C961 0.950 . S
H938 C962 0.950 . S
H939 C963 0.951 . S
H940 C965 0.951 . S
H941 C967 0.950 . S
H942 C968 0.950 . S
H943 C970 0.950 . S
H944 C973 0.950 . S
H945 C974 0.950 . S
H946 C976 0.950 . S
H947 C977 0.950 . S
C948 H930 0.951 . S
C948 C949 1.366 . S
C948 C950 1.388 . S
C949 C948 1.366 . S
C949 C953 1.385 . S
C950 H931 0.951 . S
C950 C948 1.388 . S
C950 C951 1.366 . S
C951 C950 1.366 . S
C951 C952 1.414 . S
C951 C954 1.499 . S
C952 H932 0.950 . S
C952 C951 1.414 . S
C952 C953 1.374 . S
C953 H933 0.950 . S
C953 C949 1.385 . S
C953 C952 1.374 . S
C954 C951 1.499 . S
C954 C955 1.373 . S
C954 C956 1.389 . S
C955 H934 0.950 . S
C955 C954 1.373 . S
C955 C971 1.377 . S
C956 C954 1.389 . S
C956 C957 1.524 . S
C956 C970 1.377 . S
C957 C956 1.524 . S
C957 C958 1.397 . S
C957 C962 1.363 . S
C958 H935 0.950 . S
C958 C957 1.397 . S
C958 C959 1.334 . S
C959 H936 0.950 . S
C959 C958 1.334 . S
C959 C960 1.287 . S
C960 C959 1.287 . S
C960 C961 1.524 . S
C960 H979 0.913 . S
C961 H937 0.950 . S
C961 C960 1.524 . S
C961 C962 1.415 . S
C962 H938 0.950 . S
C962 C957 1.363 . S
C962 C961 1.415 . S
C963 H939 0.951 . S
C963 C964 1.366 . S
C963 C965 1.388 . S
C964 C963 1.366 . S
C964 C968 1.385 . S
C965 H940 0.951 . S
C965 C963 1.388 . S
C965 C966 1.366 . S
C966 C965 1.366 . S
C966 C967 1.414 . S
C966 C969 1.499 . S
C967 H941 0.950 . S
C967 C966 1.414 . S
C967 C968 1.374 . S
C968 H942 0.950 . S
C968 C964 1.385 . S
C968 C967 1.374 . S
C969 C966 1.499 . S
C969 C970 1.373 . S
C969 C971 1.389 . S
C970 H943 0.950 . S
C970 C956 1.377 . S
C970 C969 1.373 . S
C971 C955 1.377 . S
C971 C969 1.389 . S
C971 C972 1.524 . S
C972 C971 1.524 . S
C972 C973 1.397 . S
C972 C977 1.363 . S
C973 H944 0.950 . S
C973 C972 1.397 . S
C973 C974 1.334 . S
C974 H945 0.950 . S
C974 C973 1.334 . S
C974 C975 1.287 . S
C975 C974 1.287 . S
C975 C976 1.524 . S
C975 H978 0.999 . S
C976 H946 0.950 . S
C976 C975 1.524 . S
C976 C977 1.415 . S
C977 H947 0.950 . S
C977 C972 1.363 . S
C977 C976 1.415 . S
H978 C975 0.999 . S
H979 C960 0.913 . S
H980 C998 0.951 . S
H981 C1000 0.951 . S
H982 C1002 0.950 . S
H983 C1003 0.950 . S
H984 C1005 0.950 . S
H985 C1008 0.950 . S
H986 C1009 0.950 . S
H987 C1011 0.950 . S
H988 C1012 0.950 . S
H989 C1013 0.951 . S
H990 C1015 0.951 . S
H991 C1017 0.950 . S
H992 C1018 0.950 . S
H993 C1020 0.950 . S
H994 C1023 0.950 . S
H995 C1024 0.950 . S
H996 C1026 0.950 . S
H997 C1027 0.950 . S
C998 H980 0.951 . S
C998 C999 1.366 . S
C998 C1000 1.388 . S
C999 C998 1.366 . S
C999 C1003 1.385 . S
C1000 H981 0.951 . S
C1000 C998 1.388 . S
C1000 C1001 1.366 . S
C1001 C1000 1.366 . S
C1001 C1002 1.414 . S
C1001 C1004 1.499 . S
C1002 H982 0.950 . S
C1002 C1001 1.414 . S
C1002 C1003 1.374 . S
C1003 H983 0.950 . S
C1003 C999 1.385 . S
C1003 C1002 1.374 . S
C1004 C1001 1.499 . S
C1004 C1005 1.373 . S
C1004 C1006 1.389 . S
C1005 H984 0.950 . S
C1005 C1004 1.373 . S
C1005 C1021 1.377 . S
C1006 C1004 1.389 . S
C1006 C1007 1.524 . S
C1006 C1020 1.377 . S
C1007 C1006 1.524 . S
C1007 C1008 1.397 . S
C1007 C1012 1.363 . S
C1008 H985 0.950 . S
C1008 C1007 1.397 . S
C1008 C1009 1.334 . S
C1009 H986 0.950 . S
C1009 C1008 1.334 . S
C1009 C1010 1.287 . S
C1010 C1009 1.287 . S
C1010 C1011 1.524 . S
C1010 H1029 0.913 . S
C1011 H987 0.950 . S
C1011 C1010 1.524 . S
C1011 C1012 1.415 . S
C1012 H988 0.950 . S
C1012 C1007 1.363 . S
C1012 C1011 1.415 . S
C1013 H989 0.951 . S
C1013 C1014 1.366 . S
C1013 C1015 1.388 . S
C1014 C1013 1.366 . S
C1014 C1018 1.385 . S
C1015 H990 0.951 . S
C1015 C1013 1.388 . S
C1015 C1016 1.366 . S
C1016 C1015 1.366 . S
C1016 C1017 1.414 . S
C1016 C1019 1.499 . S
C1017 H991 0.950 . S
C1017 C1016 1.414 . S
C1017 C1018 1.374 . S
C1018 H992 0.950 . S
C1018 C1014 1.385 . S
C1018 C1017 1.374 . S
C1019 C1016 1.499 . S
C1019 C1020 1.373 . S
C1019 C1021 1.389 . S
C1020 H993 0.950 . S
C1020 C1006 1.377 . S
C1020 C1019 1.373 . S
C1021 C1005 1.377 . S
C1021 C1019 1.389 . S
C1021 C1022 1.524 . S
C1022 C1021 1.524 . S
C1022 C1023 1.397 . S
C1022 C1027 1.363 . S
C1023 H994 0.950 . S
C1023 C1022 1.397 . S
C1023 C1024 1.334 . S
C1024 H995 0.950 . S
C1024 C1023 1.334 . S
C1024 C1025 1.287 . S
C1025 C1024 1.287 . S
C1025 C1026 1.524 . S
C1025 H1028 0.999 . S
C1026 H996 0.950 . S
C1026 C1025 1.524 . S
C1026 C1027 1.415 . S
C1027 H997 0.950 . S
C1027 C1022 1.363 . S
C1027 C1026 1.415 . S
H1028 C1025 0.999 . S
H1029 C1010 0.913 . S
H1030 C1048 0.933 1_545 S
H1031 C1050 0.951 1_545 S
H1032 C1052 0.950 . S
H1033 C1053 0.950 . S
H1034 C1055 0.950 . S
H1035 C1058 0.950 1_565 S
H1036 C1059 0.950 . S
H1037 C1061 0.950 . S
H1038 C1062 0.950 . S
H1039 C1063 0.951 . S
H1040 C1065 0.951 . S
H1041 C1067 0.950 . S
H1042 C1068 0.950 . S
H1043 C1070 0.950 . S
H1044 C1073 0.950 . S
H1045 C1074 0.950 . S
H1046 C1076 0.950 . S
H1047 C1077 0.950 . S
C1048 H1030 0.933 1_565 S
C1048 C1049 1.366 . S
C1048 C1050 1.388 . S
C1049 C1048 1.366 . S
C1049 C1053 1.385 . S
C1050 H1031 0.951 1_565 S
C1050 C1048 1.388 . S
C1050 C1051 1.366 . S
C1051 C1050 1.366 . S
C1051 C1052 1.414 . S
C1051 C1054 1.499 . S
C1052 H1032 0.950 . S
C1052 C1051 1.414 . S
C1052 C1053 1.374 . S
C1053 H1033 0.950 . S
C1053 C1049 1.385 . S
C1053 C1052 1.374 . S
C1054 C1051 1.499 . S
C1054 C1055 1.373 . S
C1054 C1056 1.389 . S
C1055 H1034 0.950 . S
C1055 C1054 1.373 . S
C1055 C1071 1.377 . S
C1056 C1054 1.389 . S
C1056 C1057 1.524 1_565 S
C1056 C1070 1.377 1_565 S
C1057 C1056 1.524 1_545 S
C1057 C1058 1.397 . S
C1057 C1062 1.363 . S
C1058 H1035 0.950 1_545 S
C1058 C1057 1.397 . S
C1058 C1059 1.334 . S
C1059 H1036 0.950 . S
C1059 C1058 1.334 . S
C1059 C1060 1.287 . S
C1060 C1059 1.287 . S
C1060 C1061 1.524 . S
C1060 H1079 0.913 . S
C1061 H1037 0.950 . S
C1061 C1060 1.524 . S
C1061 C1062 1.415 . S
C1062 H1038 0.950 . S
C1062 C1057 1.363 . S
C1062 C1061 1.415 . S
C1063 H1039 0.951 . S
C1063 C1064 1.366 . S
C1063 C1065 1.388 . S
C1064 C1063 1.366 . S
C1064 C1068 1.385 1_565 S
C1065 H1040 0.951 . S
C1065 C1063 1.388 . S
C1065 C1066 1.366 . S
C1066 C1065 1.366 . S
C1066 C1067 1.414 1_565 S
C1066 C1069 1.499 . S
C1067 H1041 0.950 . S
C1067 C1066 1.414 1_545 S
C1067 C1068 1.374 . S
C1068 H1042 0.950 . S
C1068 C1064 1.385 1_545 S
C1068 C1067 1.374 . S
C1069 C1066 1.499 . S
C1069 C1070 1.374 1_565 S
C1069 C1071 1.389 . S
C1070 H1043 0.950 . S
C1070 C1056 1.377 1_545 S
C1070 C1069 1.374 1_545 S
C1071 C1055 1.377 . S
C1071 C1069 1.389 . S
C1071 C1072 1.524 . S
C1072 C1071 1.524 . S
C1072 C1073 1.397 . S
C1072 C1077 1.363 . S
C1073 H1044 0.950 . S
C1073 C1072 1.397 . S
C1073 C1074 1.334 . S
C1074 H1045 0.950 . S
C1074 C1073 1.334 . S
C1074 C1075 1.287 . S
C1075 C1074 1.287 . S
C1075 C1076 1.524 . S
C1075 H1078 0.999 . S
C1076 H1046 0.950 . S
C1076 C1075 1.524 . S
C1076 C1077 1.415 . S
C1077 H1047 0.950 . S
C1077 C1072 1.363 . S
C1077 C1076 1.415 . S
H1078 C1075 0.999 . S
H1079 C1060 0.913 . S
H1080 C1098 0.951 . S
H1081 C1100 0.951 . S
H1082 C1102 0.950 . S
H1083 C1103 0.950 . S
H1084 C1105 0.950 . S
H1085 C1108 0.950 . S
H1086 C1109 0.950 . S
H1087 C1111 0.950 . S
H1088 C1112 0.950 . S
H1089 C1113 0.951 . S
H1090 C1115 0.951 . S
H1091 C1117 0.950 . S
H1092 C1118 0.950 . S
H1093 C1120 0.950 . S
H1094 C1123 0.950 . S
H1095 C1124 0.950 . S
H1096 C1126 0.950 . S
H1097 C1127 0.950 . S
C1098 H1080 0.951 . S
C1098 C1099 1.366 . S
C1098 C1100 1.388 . S
C1099 C1098 1.366 . S
C1099 C1103 1.385 . S
C1100 H1081 0.951 . S
C1100 C1098 1.388 . S
C1100 C1101 1.366 . S
C1101 C1100 1.366 . S
C1101 C1102 1.414 . S
C1101 C1104 1.499 . S
C1102 H1082 0.950 . S
C1102 C1101 1.414 . S
C1102 C1103 1.374 . S
C1103 H1083 0.950 . S
C1103 C1099 1.385 . S
C1103 C1102 1.374 . S
C1104 C1101 1.499 . S
C1104 C1105 1.373 . S
C1104 C1106 1.389 . S
C1105 H1084 0.950 . S
C1105 C1104 1.373 . S
C1105 C1121 1.377 . S
C1106 C1104 1.389 . S
C1106 C1107 1.524 . S
C1106 C1120 1.377 . S
C1107 C1106 1.524 . S
C1107 C1108 1.397 . S
C1107 C1112 1.363 . S
C1108 H1085 0.950 . S
C1108 C1107 1.397 . S
C1108 C1109 1.334 . S
C1109 H1086 0.950 . S
C1109 C1108 1.334 . S
C1109 C1110 1.287 . S
C1110 C1109 1.287 . S
C1110 C1111 1.524 . S
C1110 H1129 0.913 . S
C1111 H1087 0.950 . S
C1111 C1110 1.524 . S
C1111 C1112 1.415 . S
C1112 H1088 0.950 . S
C1112 C1107 1.363 . S
C1112 C1111 1.415 . S
C1113 H1089 0.951 . S
C1113 C1114 1.366 . S
C1113 C1115 1.388 . S
C1114 C1113 1.366 . S
C1114 C1118 1.385 . S
C1115 H1090 0.951 . S
C1115 C1113 1.388 . S
C1115 C1116 1.366 . S
C1116 C1115 1.366 . S
C1116 C1117 1.414 . S
C1116 C1119 1.499 . S
C1117 H1091 0.950 . S
C1117 C1116 1.414 . S
C1117 C1118 1.374 . S
C1118 H1092 0.950 . S
C1118 C1114 1.385 . S
C1118 C1117 1.374 . S
C1119 C1116 1.499 . S
C1119 C1120 1.373 . S
C1119 C1121 1.389 . S
C1120 H1093 0.950 . S
C1120 C1106 1.377 . S
C1120 C1119 1.373 . S
C1121 C1105 1.377 . S
C1121 C1119 1.389 . S
C1121 C1122 1.524 . S
C1122 C1121 1.524 . S
C1122 C1123 1.397 . S
C1122 C1127 1.363 . S
C1123 H1094 0.950 . S
C1123 C1122 1.397 . S
C1123 C1124 1.334 . S
C1124 H1095 0.950 . S
C1124 C1123 1.334 . S
C1124 C1125 1.287 . S
C1125 C1124 1.287 . S
C1125 C1126 1.524 . S
C1125 H1128 0.999 . S
C1126 H1096 0.950 . S
C1126 C1125 1.524 . S
C1126 C1127 1.415 . S
C1127 H1097 0.950 . S
C1127 C1122 1.363 . S
C1127 C1126 1.415 . S
H1128 C1125 0.999 . S
H1129 C1110 0.913 . S
H1130 C1148 0.951 . S
H1131 C1150 0.951 . S
H1132 C1152 0.950 . S
H1133 C1153 0.950 . S
H1134 C1155 0.950 . S
H1135 C1158 0.950 . S
H1136 C1159 0.950 . S
H1137 C1161 0.950 . S
H1138 C1162 0.950 . S
H1139 C1163 0.951 . S
H1140 C1165 0.951 . S
H1141 C1167 0.950 . S
H1142 C1168 0.950 . S
H1143 C1170 0.950 . S
H1144 C1173 0.950 . S
H1145 C1174 0.950 . S
H1146 C1176 0.950 . S
H1147 C1177 0.950 . S
C1148 H1130 0.951 . S
C1148 C1149 1.366 . S
C1148 C1150 1.388 . S
C1149 C1148 1.366 . S
C1149 C1153 1.385 . S
C1150 H1131 0.951 . S
C1150 C1148 1.388 . S
C1150 C1151 1.366 . S
C1151 C1150 1.366 . S
C1151 C1152 1.414 . S
C1151 C1154 1.499 . S
C1152 H1132 0.950 . S
C1152 C1151 1.414 . S
C1152 C1153 1.374 . S
C1153 H1133 0.950 . S
C1153 C1149 1.385 . S
C1153 C1152 1.374 . S
C1154 C1151 1.499 . S
C1154 C1155 1.373 . S
C1154 C1156 1.389 . S
C1155 H1134 0.950 . S
C1155 C1154 1.373 . S
C1155 C1171 1.377 . S
C1156 C1154 1.389 . S
C1156 C1157 1.524 . S
C1156 C1170 1.377 . S
C1157 C1156 1.524 . S
C1157 C1158 1.397 . S
C1157 C1162 1.363 . S
C1158 H1135 0.950 . S
C1158 C1157 1.397 . S
C1158 C1159 1.334 . S
C1159 H1136 0.950 . S
C1159 C1158 1.334 . S
C1159 C1160 1.287 . S
C1160 C1159 1.287 . S
C1160 C1161 1.524 . S
C1160 H1179 0.913 . S
C1161 H1137 0.950 . S
C1161 C1160 1.524 . S
C1161 C1162 1.415 . S
C1162 H1138 0.950 . S
C1162 C1157 1.363 . S
C1162 C1161 1.415 . S
C1163 H1139 0.951 . S
C1163 C1164 1.366 . S
C1163 C1165 1.388 . S
C1164 C1163 1.366 . S
C1164 C1168 1.385 . S
C1165 H1140 0.951 . S
C1165 C1163 1.388 . S
C1165 C1166 1.366 . S
C1166 C1165 1.366 . S
C1166 C1167 1.414 . S
C1166 C1169 1.499 . S
C1167 H1141 0.950 . S
C1167 C1166 1.414 . S
C1167 C1168 1.374 . S
C1168 H1142 0.950 . S
C1168 C1164 1.385 . S
C1168 C1167 1.374 . S
C1169 C1166 1.499 . S
C1169 C1170 1.373 . S
C1169 C1171 1.389 . S
C1170 H1143 0.950 . S
C1170 C1156 1.377 . S
C1170 C1169 1.373 . S
C1171 C1155 1.377 . S
C1171 C1169 1.389 . S
C1171 C1172 1.524 . S
C1172 C1171 1.524 . S
C1172 C1173 1.397 . S
C1172 C1177 1.363 . S
C1173 H1144 0.950 . S
C1173 C1172 1.397 . S
C1173 C1174 1.334 . S
C1174 H1145 0.950 . S
C1174 C1173 1.334 . S
C1174 C1175 1.287 . S
C1175 C1174 1.287 . S
C1175 C1176 1.524 . S
C1175 H1178 0.999 . S
C1176 H1146 0.950 . S
C1176 C1175 1.524 . S
C1176 C1177 1.415 . S
C1177 H1147 0.950 . S
C1177 C1172 1.363 . S
C1177 C1176 1.415 . S
H1178 C1175 0.999 . S
H1179 C1160 0.913 . S
H1180 C1198 0.951 . S
H1181 C1200 0.951 . S
H1182 C1202 0.950 . S
H1183 C1203 0.950 . S
H1184 C1205 0.950 . S
H1185 C1208 0.950 . S
H1186 C1209 0.950 . S
H1187 C1211 0.950 . S
H1188 C1212 0.950 . S
H1189 C1213 0.951 . S
H1190 C1215 0.951 . S
H1191 C1217 0.950 . S
H1192 C1218 0.950 . S
H1193 C1220 0.950 . S
H1194 C1223 0.950 . S
H1195 C1224 0.950 . S
H1196 C1226 0.950 . S
H1197 C1227 0.950 . S
C1198 H1180 0.951 . S
C1198 C1199 1.366 . S
C1198 C1200 1.388 . S
C1199 C1198 1.366 . S
C1199 C1203 1.385 . S
C1200 H1181 0.951 . S
C1200 C1198 1.388 . S
C1200 C1201 1.366 . S
C1201 C1200 1.366 . S
C1201 C1202 1.414 . S
C1201 C1204 1.499 . S
C1202 H1182 0.950 . S
C1202 C1201 1.414 . S
C1202 C1203 1.374 . S
C1203 H1183 0.950 . S
C1203 C1199 1.385 . S
C1203 C1202 1.374 . S
C1204 C1201 1.499 . S
C1204 C1205 1.373 . S
C1204 C1206 1.389 . S
C1205 H1184 0.950 . S
C1205 C1204 1.373 . S
C1205 C1221 1.377 . S
C1206 C1204 1.389 . S
C1206 C1207 1.524 . S
C1206 C1220 1.377 . S
C1207 C1206 1.524 . S
C1207 C1208 1.397 . S
C1207 C1212 1.363 . S
C1208 H1185 0.950 . S
C1208 C1207 1.397 . S
C1208 C1209 1.334 . S
C1209 H1186 0.950 . S
C1209 C1208 1.334 . S
C1209 C1210 1.287 . S
C1210 C1209 1.287 . S
C1210 C1211 1.524 . S
C1210 H1229 0.913 . S
C1211 H1187 0.950 . S
C1211 C1210 1.524 . S
C1211 C1212 1.415 . S
C1212 H1188 0.950 . S
C1212 C1207 1.363 . S
C1212 C1211 1.415 . S
C1213 H1189 0.951 . S
C1213 C1214 1.366 . S
C1213 C1215 1.388 . S
C1214 C1213 1.366 . S
C1214 C1218 1.385 . S
C1215 H1190 0.951 . S
C1215 C1213 1.388 . S
C1215 C1216 1.366 . S
C1216 C1215 1.366 . S
C1216 C1217 1.414 . S
C1216 C1219 1.499 . S
C1217 H1191 0.950 . S
C1217 C1216 1.414 . S
C1217 C1218 1.374 . S
C1218 H1192 0.950 . S
C1218 C1214 1.385 . S
C1218 C1217 1.374 . S
C1219 C1216 1.499 . S
C1219 C1220 1.373 . S
C1219 C1221 1.389 . S
C1220 H1193 0.950 . S
C1220 C1206 1.377 . S
C1220 C1219 1.373 . S
C1221 C1205 1.377 . S
C1221 C1219 1.389 . S
C1221 C1222 1.524 . S
C1222 C1221 1.524 . S
C1222 C1223 1.397 . S
C1222 C1227 1.363 . S
C1223 H1194 0.950 . S
C1223 C1222 1.397 . S
C1223 C1224 1.334 . S
C1224 H1195 0.950 . S
C1224 C1223 1.334 . S
C1224 C1225 1.287 . S
C1225 C1224 1.287 . S
C1225 C1226 1.524 . S
C1225 H1228 0.999 . S
C1226 H1196 0.950 . S
C1226 C1225 1.524 . S
C1226 C1227 1.415 . S
C1227 H1197 0.950 . S
C1227 C1222 1.363 . S
C1227 C1226 1.415 . S
H1228 C1225 0.999 . S
H1229 C1210 0.913 . S
H1230 C1248 0.951 . S
H1231 C1250 0.951 . S
H1232 C1252 0.950 . S
H1233 C1253 0.950 . S
H1234 C1255 0.950 . S
H1235 C1258 0.950 . S
H1236 C1259 0.950 . S
H1237 C1261 0.950 . S
H1238 C1262 0.950 . S
H1239 C1263 0.951 . S
H1240 C1265 0.951 . S
H1241 C1267 0.950 . S
H1242 C1268 0.950 . S
H1243 C1270 0.950 . S
H1244 C1273 0.950 . S
H1245 C1274 0.950 . S
H1246 C1276 0.950 . S
H1247 C1277 0.950 . S
C1248 H1230 0.951 . S
C1248 C1249 1.366 . S
C1248 C1250 1.388 . S
C1249 C1248 1.366 . S
C1249 C1253 1.385 . S
C1250 H1231 0.951 . S
C1250 C1248 1.388 . S
C1250 C1251 1.366 . S
C1251 C1250 1.366 . S
C1251 C1252 1.414 . S
C1251 C1254 1.499 . S
C1252 H1232 0.950 . S
C1252 C1251 1.414 . S
C1252 C1253 1.374 . S
C1253 H1233 0.950 . S
C1253 C1249 1.385 . S
C1253 C1252 1.374 . S
C1254 C1251 1.499 . S
C1254 C1255 1.373 . S
C1254 C1256 1.389 . S
C1255 H1234 0.950 . S
C1255 C1254 1.373 . S
C1255 C1271 1.377 . S
C1256 C1254 1.389 . S
C1256 C1257 1.524 . S
C1256 C1270 1.377 . S
C1257 C1256 1.524 . S
C1257 C1258 1.397 . S
C1257 C1262 1.363 . S
C1258 H1235 0.950 . S
C1258 C1257 1.397 . S
C1258 C1259 1.334 . S
C1259 H1236 0.950 . S
C1259 C1258 1.334 . S
C1259 C1260 1.287 . S
C1260 C1259 1.287 . S
C1260 C1261 1.524 . S
C1260 H1279 0.913 . S
C1261 H1237 0.950 . S
C1261 C1260 1.524 . S
C1261 C1262 1.415 . S
C1262 H1238 0.950 . S
C1262 C1257 1.363 . S
C1262 C1261 1.415 . S
C1263 H1239 0.951 . S
C1263 C1264 1.366 . S
C1263 C1265 1.388 . S
C1264 C1263 1.366 . S
C1264 C1268 1.385 . S
C1265 H1240 0.951 . S
C1265 C1263 1.388 . S
C1265 C1266 1.366 . S
C1266 C1265 1.366 . S
C1266 C1267 1.414 . S
C1266 C1269 1.499 . S
C1267 H1241 0.950 . S
C1267 C1266 1.414 . S
C1267 C1268 1.374 . S
C1268 H1242 0.950 . S
C1268 C1264 1.385 . S
C1268 C1267 1.374 . S
C1269 C1266 1.499 . S
C1269 C1270 1.373 . S
C1269 C1271 1.389 . S
C1270 H1243 0.950 . S
C1270 C1256 1.377 . S
C1270 C1269 1.373 . S
C1271 C1255 1.377 . S
C1271 C1269 1.389 . S
C1271 C1272 1.524 . S
C1272 C1271 1.524 . S
C1272 C1273 1.397 . S
C1272 C1277 1.363 . S
C1273 H1244 0.950 . S
C1273 C1272 1.397 . S
C1273 C1274 1.334 . S
C1274 H1245 0.950 . S
C1274 C1273 1.334 . S
C1274 C1275 1.287 . S
C1275 C1274 1.287 . S
C1275 C1276 1.524 . S
C1275 H1278 0.999 . S
C1276 H1246 0.950 . S
C1276 C1275 1.524 . S
C1276 C1277 1.415 . S
C1277 H1247 0.950 . S
C1277 C1272 1.363 . S
C1277 C1276 1.415 . S
H1278 C1275 0.999 . S
H1279 C1260 0.913 . S
H1280 C1298 0.951 . S
H1281 C1300 0.951 . S
H1282 C1302 0.950 . S
H1283 C1303 0.950 . S
H1284 C1305 0.950 . S
H1285 C1308 0.950 . S
H1286 C1309 0.950 . S
H1287 C1311 0.950 . S
H1288 C1312 0.950 . S
H1289 C1313 0.951 . S
H1290 C1315 0.951 . S
H1291 C1317 0.950 . S
H1292 C1318 0.950 . S
H1293 C1320 0.950 . S
H1294 C1323 0.950 . S
H1295 C1324 0.950 . S
H1296 C1326 0.950 . S
H1297 C1327 0.950 . S
C1298 H1280 0.951 . S
C1298 C1299 1.366 . S
C1298 C1300 1.388 . S
C1299 C1298 1.366 . S
C1299 C1303 1.385 . S
C1300 H1281 0.951 . S
C1300 C1298 1.388 . S
C1300 C1301 1.366 . S
C1301 C1300 1.366 . S
C1301 C1302 1.414 . S
C1301 C1304 1.499 . S
C1302 H1282 0.950 . S
C1302 C1301 1.414 . S
C1302 C1303 1.374 . S
C1303 H1283 0.950 . S
C1303 C1299 1.385 . S
C1303 C1302 1.374 . S
C1304 C1301 1.499 . S
C1304 C1305 1.373 . S
C1304 C1306 1.389 . S
C1305 H1284 0.950 . S
C1305 C1304 1.373 . S
C1305 C1321 1.377 . S
C1306 C1304 1.389 . S
C1306 C1307 1.524 . S
C1306 C1320 1.377 . S
C1307 C1306 1.524 . S
C1307 C1308 1.397 . S
C1307 C1312 1.363 . S
C1308 H1285 0.950 . S
C1308 C1307 1.397 . S
C1308 C1309 1.334 . S
C1309 H1286 0.950 . S
C1309 C1308 1.334 . S
C1309 C1310 1.287 . S
C1310 C1309 1.287 . S
C1310 C1311 1.524 . S
C1310 H1329 0.913 . S
C1311 H1287 0.950 . S
C1311 C1310 1.524 . S
C1311 C1312 1.415 . S
C1312 H1288 0.950 . S
C1312 C1307 1.363 . S
C1312 C1311 1.415 . S
C1313 H1289 0.951 . S
C1313 C1314 1.366 . S
C1313 C1315 1.388 . S
C1314 C1313 1.366 . S
C1314 C1318 1.385 . S
C1315 H1290 0.951 . S
C1315 C1313 1.388 . S
C1315 C1316 1.366 . S
C1316 C1315 1.366 . S
C1316 C1317 1.414 . S
C1316 C1319 1.499 . S
C1317 H1291 0.950 . S
C1317 C1316 1.414 . S
C1317 C1318 1.374 . S
C1318 H1292 0.950 . S
C1318 C1314 1.385 . S
C1318 C1317 1.374 . S
C1319 C1316 1.499 . S
C1319 C1320 1.373 . S
C1319 C1321 1.389 . S
C1320 H1293 0.950 . S
C1320 C1306 1.377 . S
C1320 C1319 1.373 . S
C1321 C1305 1.377 . S
C1321 C1319 1.389 . S
C1321 C1322 1.524 . S
C1322 C1321 1.524 . S
C1322 C1323 1.397 . S
C1322 C1327 1.363 . S
C1323 H1294 0.950 . S
C1323 C1322 1.397 . S
C1323 C1324 1.334 . S
C1324 H1295 0.950 . S
C1324 C1323 1.334 . S
C1324 C1325 1.287 . S
C1325 C1324 1.287 . S
C1325 C1326 1.524 . S
C1325 H1328 0.999 . S
C1326 H1296 0.950 . S
C1326 C1325 1.524 . S
C1326 C1327 1.415 . S
C1327 H1297 0.950 . S
C1327 C1322 1.363 . S
C1327 C1326 1.415 . S
H1328 C1325 0.999 . S
H1329 C1310 0.913 . S
H1330 C1348 0.951 . S
H1331 C1350 0.951 . S
H1332 C1352 0.950 . S
H1333 C1353 0.950 . S
H1334 C1355 0.950 . S
H1335 C1358 0.950 . S
H1336 C1359 0.909 1_655 S
H1337 C1361 0.950 . S
H1338 C1362 0.950 . S
H1339 C1363 0.951 1_655 S
H1340 C1365 0.951 . S
H1341 C1367 0.950 . S
H1342 C1368 0.950 . S
H1343 C1370 0.950 . S
H1344 C1373 0.950 . S
H1345 C1374 0.950 . S
H1346 C1376 0.950 . S
H1347 C1377 0.950 . S
C1348 H1330 0.951 . S
C1348 C1349 1.366 . S
C1348 C1350 1.388 . S
C1349 C1348 1.366 . S
C1349 C1353 1.385 . S
C1350 H1331 0.951 . S
C1350 C1348 1.388 . S
C1350 C1351 1.366 . S
C1351 C1350 1.366 . S
C1351 C1352 1.414 . S
C1351 C1354 1.499 . S
C1352 H1332 0.950 . S
C1352 C1351 1.414 . S
C1352 C1353 1.374 . S
C1353 H1333 0.950 . S
C1353 C1349 1.385 . S
C1353 C1352 1.374 . S
C1354 C1351 1.499 . S
C1354 C1355 1.373 . S
C1354 C1356 1.389 . S
C1355 H1334 0.950 . S
C1355 C1354 1.373 . S
C1355 C1371 1.377 . S
C1356 C1354 1.389 . S
C1356 C1357 1.524 . S
C1356 C1370 1.377 . S
C1357 C1356 1.524 . S
C1357 C1358 1.397 . S
C1357 C1362 1.363 . S
C1358 H1335 0.950 . S
C1358 C1357 1.397 . S
C1358 C1359 1.334 . S
C1359 H1336 0.909 1_455 S
C1359 C1358 1.334 . S
C1359 C1360 1.287 . S
C1360 C1359 1.287 . S
C1360 C1361 1.524 . S
C1360 H1379 0.913 . S
C1361 H1337 0.950 . S
C1361 C1360 1.524 . S
C1361 C1362 1.415 . S
C1362 H1338 0.950 . S
C1362 C1357 1.363 . S
C1362 C1361 1.415 . S
C1363 H1339 0.951 1_455 S
C1363 C1364 1.366 . S
C1363 C1365 1.388 . S
C1364 C1363 1.366 . S
C1364 C1368 1.385 . S
C1365 H1340 0.951 . S
C1365 C1363 1.388 . S
C1365 C1366 1.366 . S
C1366 C1365 1.366 . S
C1366 C1367 1.414 . S
C1366 C1369 1.499 . S
C1367 H1341 0.950 . S
C1367 C1366 1.414 . S
C1367 C1368 1.374 . S
C1368 H1342 0.950 . S
C1368 C1364 1.385 . S
C1368 C1367 1.374 . S
C1369 C1366 1.499 . S
C1369 C1370 1.373 . S
C1369 C1371 1.389 . S
C1370 H1343 0.950 . S
C1370 C1356 1.377 . S
C1370 C1369 1.373 . S
C1371 C1355 1.377 . S
C1371 C1369 1.389 . S
C1371 C1372 1.524 . S
C1372 C1371 1.524 . S
C1372 C1373 1.397 . S
C1372 C1377 1.363 . S
C1373 H1344 0.950 . S
C1373 C1372 1.397 . S
C1373 C1374 1.334 . S
C1374 H1345 0.950 . S
C1374 C1373 1.334 . S
C1374 C1375 1.287 . S
C1375 C1374 1.287 . S
C1375 C1376 1.524 . S
C1375 H1378 0.999 . S
C1376 H1346 0.950 . S
C1376 C1375 1.524 . S
C1376 C1377 1.415 . S
C1377 H1347 0.950 . S
C1377 C1372 1.363 . S
C1377 C1376 1.415 . S
H1378 C1375 0.999 . S
H1379 C1360 0.913 . S
H1380 C1398 0.951 . S
H1381 C1400 0.951 . S
H1382 C1402 0.950 . S
H1383 C1403 0.950 . S
H1384 C1405 0.950 . S
H1385 C1408 0.950 . S
H1386 C1409 0.950 . S
H1387 C1411 0.950 . S
H1388 C1412 0.950 . S
H1389 C1413 0.951 . S
H1390 C1415 0.951 . S
H1391 C1417 0.950 . S
H1392 C1418 0.950 . S
H1393 C1420 0.950 . S
H1394 C1423 0.950 . S
H1395 C1424 0.950 . S
H1396 C1426 0.950 . S
H1397 C1427 0.950 . S
C1398 H1380 0.951 . S
C1398 C1399 1.366 . S
C1398 C1400 1.388 . S
C1399 C1398 1.366 . S
C1399 C1403 1.385 . S
C1400 H1381 0.951 . S
C1400 C1398 1.388 . S
C1400 C1401 1.366 . S
C1401 C1400 1.366 . S
C1401 C1402 1.414 . S
C1401 C1404 1.499 . S
C1402 H1382 0.950 . S
C1402 C1401 1.414 . S
C1402 C1403 1.374 . S
C1403 H1383 0.950 . S
C1403 C1399 1.385 . S
C1403 C1402 1.374 . S
C1404 C1401 1.499 . S
C1404 C1405 1.373 . S
C1404 C1406 1.389 . S
C1405 H1384 0.950 . S
C1405 C1404 1.373 . S
C1405 C1421 1.377 . S
C1406 C1404 1.389 . S
C1406 C1407 1.524 . S
C1406 C1420 1.377 . S
C1407 C1406 1.524 . S
C1407 C1408 1.397 . S
C1407 C1412 1.363 . S
C1408 H1385 0.950 . S
C1408 C1407 1.397 . S
C1408 C1409 1.334 . S
C1409 H1386 0.950 . S
C1409 C1408 1.334 . S
C1409 C1410 1.287 . S
C1410 C1409 1.287 . S
C1410 C1411 1.524 . S
C1410 H1429 0.913 . S
C1411 H1387 0.950 . S
C1411 C1410 1.524 . S
C1411 C1412 1.415 . S
C1412 H1388 0.950 . S
C1412 C1407 1.363 . S
C1412 C1411 1.415 . S
C1413 H1389 0.951 . S
C1413 C1414 1.366 . S
C1413 C1415 1.388 . S
C1414 C1413 1.366 . S
C1414 C1418 1.385 . S
C1415 H1390 0.951 . S
C1415 C1413 1.388 . S
C1415 C1416 1.366 . S
C1416 C1415 1.366 . S
C1416 C1417 1.414 . S
C1416 C1419 1.499 . S
C1417 H1391 0.950 . S
C1417 C1416 1.414 . S
C1417 C1418 1.374 . S
C1418 H1392 0.950 . S
C1418 C1414 1.385 . S
C1418 C1417 1.374 . S
C1419 C1416 1.499 . S
C1419 C1420 1.373 . S
C1419 C1421 1.389 . S
C1420 H1393 0.950 . S
C1420 C1406 1.377 . S
C1420 C1419 1.373 . S
C1421 C1405 1.377 . S
C1421 C1419 1.389 . S
C1421 C1422 1.524 . S
C1422 C1421 1.524 . S
C1422 C1423 1.397 . S
C1422 C1427 1.363 . S
C1423 H1394 0.950 . S
C1423 C1422 1.397 . S
C1423 C1424 1.334 . S
C1424 H1395 0.950 . S
C1424 C1423 1.334 . S
C1424 C1425 1.287 . S
C1425 C1424 1.287 . S
C1425 C1426 1.524 . S
C1425 H1428 0.999 . S
C1426 H1396 0.950 . S
C1426 C1425 1.524 . S
C1426 C1427 1.415 . S
C1427 H1397 0.950 . S
C1427 C1422 1.363 . S
C1427 C1426 1.415 . S
H1428 C1425 0.999 . S
H1429 C1410 0.913 . S
H1430 C1448 0.951 1_455 S
H1431 C1450 0.951 1_455 S
H1432 C1452 0.950 . S
H1433 C1453 0.950 . S
H1434 C1455 0.950 . S
H1435 C1458 0.950 1_655 S
H1436 C1459 0.950 . S
H1437 C1461 0.950 . S
H1438 C1462 0.950 . S
H1439 C1463 0.951 . S
H1440 C1465 0.951 . S
H1441 C1467 0.950 . S
H1442 C1468 0.950 . S
H1443 C1470 0.991 . S
H1444 C1473 0.950 . S
H1445 C1474 0.950 . S
H1446 C1476 0.950 . S
H1447 C1477 0.950 . S
C1448 H1430 0.951 1_655 S
C1448 C1449 1.366 . S
C1448 C1450 1.388 . S
C1449 C1448 1.366 . S
C1449 C1453 1.385 . S
C1450 H1431 0.951 1_655 S
C1450 C1448 1.388 . S
C1450 C1451 1.366 . S
C1451 C1450 1.366 . S
C1451 C1452 1.414 . S
C1451 C1454 1.499 . S
C1452 H1432 0.950 . S
C1452 C1451 1.414 . S
C1452 C1453 1.374 . S
C1453 H1433 0.950 . S
C1453 C1449 1.385 . S
C1453 C1452 1.374 . S
C1454 C1451 1.499 . S
C1454 C1455 1.373 . S
C1454 C1456 1.389 . S
C1455 H1434 0.950 . S
C1455 C1454 1.373 . S
C1455 C1471 1.377 . S
C1456 C1454 1.389 . S
C1456 C1457 1.524 1_655 S
C1456 C1470 1.375 1_655 S
C1457 C1456 1.524 1_455 S
C1457 C1458 1.397 . S
C1457 C1462 1.363 . S
C1458 H1435 0.950 1_455 S
C1458 C1457 1.397 . S
C1458 C1459 1.334 . S
C1459 H1436 0.950 . S
C1459 C1458 1.334 . S
C1459 C1460 1.287 . S
C1460 C1459 1.287 . S
C1460 C1461 1.524 . S
C1460 H1479 0.913 . S
C1461 H1437 0.950 . S
C1461 C1460 1.524 . S
C1461 C1462 1.415 . S
C1462 H1438 0.950 . S
C1462 C1457 1.363 . S
C1462 C1461 1.415 . S
C1463 H1439 0.951 . S
C1463 C1464 1.366 . S
C1463 C1465 1.388 . S
C1464 C1463 1.366 . S
C1464 C1468 1.385 1_655 S
C1465 H1440 0.951 . S
C1465 C1463 1.388 . S
C1465 C1466 1.366 . S
C1466 C1465 1.366 . S
C1466 C1467 1.414 1_655 S
C1466 C1469 1.499 . S
C1467 H1441 0.950 . S
C1467 C1466 1.414 1_455 S
C1467 C1468 1.374 . S
C1468 H1442 0.950 . S
C1468 C1464 1.385 1_455 S
C1468 C1467 1.374 . S
C1469 C1466 1.499 . S
C1469 C1470 1.336 1_655 S
C1469 C1471 1.389 . S
C1470 H1443 0.991 . S
C1470 C1456 1.375 1_455 S
C1470 C1469 1.336 1_455 S
C1471 C1455 1.377 . S
C1471 C1469 1.389 . S
C1471 C1472 1.524 . S
C1472 C1471 1.524 . S
C1472 C1473 1.397 . S
C1472 C1477 1.363 . S
C1473 H1444 0.950 . S
C1473 C1472 1.397 . S
C1473 C1474 1.334 . S
C1474 H1445 0.950 . S
C1474 C1473 1.334 . S
C1474 C1475 1.287 . S
C1475 C1474 1.287 . S
C1475 C1476 1.524 . S
C1475 H1478 0.999 . S
C1476 H1446 0.950 . S
C1476 C1475 1.524 . S
C1476 C1477 1.415 . S
C1477 H1447 0.950 . S
C1477 C1472 1.363 . S
C1477 C1476 1.415 . S
H1478 C1475 0.999 . S
H1479 C1460 0.913 . S
H1480 C1498 0.951 . S
H1481 C1500 0.951 . S
H1482 C1502 0.950 . S
H1483 C1503 0.950 . S
H1484 C1505 0.950 . S
H1485 C1508 0.950 . S
H1486 C1509 0.950 . S
H1487 C1511 0.950 . S
H1488 C1512 0.950 . S
H1489 C1513 0.951 . S
H1490 C1515 0.951 . S
H1491 C1517 0.950 . S
H1492 C1518 0.950 . S
H1493 C1520 0.950 . S
H1494 C1523 0.950 . S
H1495 C1524 0.950 . S
H1496 C1526 0.950 . S
H1497 C1527 0.950 . S
C1498 H1480 0.951 . S
C1498 C1499 1.366 . S
C1498 C1500 1.388 . S
C1499 C1498 1.366 . S
C1499 C1503 1.385 . S
C1500 H1481 0.951 . S
C1500 C1498 1.388 . S
C1500 C1501 1.366 . S
C1501 C1500 1.366 . S
C1501 C1502 1.414 . S
C1501 C1504 1.499 . S
C1502 H1482 0.950 . S
C1502 C1501 1.414 . S
C1502 C1503 1.374 . S
C1503 H1483 0.950 . S
C1503 C1499 1.385 . S
C1503 C1502 1.374 . S
C1504 C1501 1.499 . S
C1504 C1505 1.373 . S
C1504 C1506 1.389 . S
C1505 H1484 0.950 . S
C1505 C1504 1.373 . S
C1505 C1521 1.377 . S
C1506 C1504 1.389 . S
C1506 C1507 1.524 . S
C1506 C1520 1.377 . S
C1507 C1506 1.524 . S
C1507 C1508 1.397 . S
C1507 C1512 1.363 . S
C1508 H1485 0.950 . S
C1508 C1507 1.397 . S
C1508 C1509 1.334 . S
C1509 H1486 0.950 . S
C1509 C1508 1.334 . S
C1509 C1510 1.287 . S
C1510 C1509 1.287 . S
C1510 C1511 1.524 . S
C1510 H1529 0.913 . S
C1511 H1487 0.950 . S
C1511 C1510 1.524 . S
C1511 C1512 1.415 . S
C1512 H1488 0.950 . S
C1512 C1507 1.363 . S
C1512 C1511 1.415 . S
C1513 H1489 0.951 . S
C1513 C1514 1.366 . S
C1513 C1515 1.388 . S
C1514 C1513 1.366 . S
C1514 C1518 1.385 . S
C1515 H1490 0.951 . S
C1515 C1513 1.388 . S
C1515 C1516 1.366 . S
C1516 C1515 1.366 . S
C1516 C1517 1.414 . S
C1516 C1519 1.499 . S
C1517 H1491 0.950 . S
C1517 C1516 1.414 . S
C1517 C1518 1.374 . S
C1518 H1492 0.950 . S
C1518 C1514 1.385 . S
C1518 C1517 1.374 . S
C1519 C1516 1.499 . S
C1519 C1520 1.373 . S
C1519 C1521 1.389 . S
C1520 H1493 0.950 . S
C1520 C1506 1.377 . S
C1520 C1519 1.373 . S
C1521 C1505 1.377 . S
C1521 C1519 1.389 . S
C1521 C1522 1.524 . S
C1522 C1521 1.524 . S
C1522 C1523 1.397 . S
C1522 C1527 1.363 . S
C1523 H1494 0.950 . S
C1523 C1522 1.397 . S
C1523 C1524 1.334 . S
C1524 H1495 0.950 . S
C1524 C1523 1.334 . S
C1524 C1525 1.287 . S
C1525 C1524 1.287 . S
C1525 C1526 1.524 . S
C1525 H1528 0.999 . S
C1526 H1496 0.950 . S
C1526 C1525 1.524 . S
C1526 C1527 1.415 . S
C1527 H1497 0.950 . S
C1527 C1522 1.363 . S
C1527 C1526 1.415 . S
H1528 C1525 0.999 . S
H1529 C1510 0.913 . S
H1530 C1548 0.951 . S
H1531 C1550 0.951 . S
H1532 C1552 0.950 . S
H1533 C1553 0.950 . S
H1534 C1555 0.950 . S
H1535 C1558 0.950 . S
H1536 C1559 0.950 . S
H1537 C1561 0.950 . S
H1538 C1562 0.950 . S
H1539 C1563 0.951 . S
H1540 C1565 0.951 . S
H1541 C1567 0.950 . S
H1542 C1568 0.950 . S
H1543 C1570 0.950 . S
H1544 C1573 0.950 . S
H1545 C1574 0.950 . S
H1546 C1576 0.950 . S
H1547 C1577 0.950 . S
C1548 H1530 0.951 . S
C1548 C1549 1.366 . S
C1548 C1550 1.388 . S
C1549 C1548 1.366 . S
C1549 C1553 1.385 . S
C1550 H1531 0.951 . S
C1550 C1548 1.388 . S
C1550 C1551 1.366 . S
C1551 C1550 1.366 . S
C1551 C1552 1.414 . S
C1551 C1554 1.499 . S
C1552 H1532 0.950 . S
C1552 C1551 1.414 . S
C1552 C1553 1.374 . S
C1553 H1533 0.950 . S
C1553 C1549 1.385 . S
C1553 C1552 1.374 . S
C1554 C1551 1.499 . S
C1554 C1555 1.373 . S
C1554 C1556 1.389 . S
C1555 H1534 0.950 . S
C1555 C1554 1.373 . S
C1555 C1571 1.377 . S
C1556 C1554 1.389 . S
C1556 C1557 1.524 . S
C1556 C1570 1.377 . S
C1557 C1556 1.524 . S
C1557 C1558 1.397 . S
C1557 C1562 1.363 . S
C1558 H1535 0.950 . S
C1558 C1557 1.397 . S
C1558 C1559 1.334 . S
C1559 H1536 0.950 . S
C1559 C1558 1.334 . S
C1559 C1560 1.287 . S
C1560 C1559 1.287 . S
C1560 C1561 1.524 . S
C1560 H1579 0.913 . S
C1561 H1537 0.950 . S
C1561 C1560 1.524 . S
C1561 C1562 1.415 . S
C1562 H1538 0.950 . S
C1562 C1557 1.363 . S
C1562 C1561 1.415 . S
C1563 H1539 0.951 . S
C1563 C1564 1.366 . S
C1563 C1565 1.388 . S
C1564 C1563 1.366 . S
C1564 C1568 1.385 . S
C1565 H1540 0.951 . S
C1565 C1563 1.388 . S
C1565 C1566 1.366 . S
C1566 C1565 1.366 . S
C1566 C1567 1.414 . S
C1566 C1569 1.499 . S
C1567 H1541 0.950 . S
C1567 C1566 1.414 . S
C1567 C1568 1.374 . S
C1568 H1542 0.950 . S
C1568 C1564 1.385 . S
C1568 C1567 1.374 . S
C1569 C1566 1.499 . S
C1569 C1570 1.373 . S
C1569 C1571 1.389 . S
C1570 H1543 0.950 . S
C1570 C1556 1.377 . S
C1570 C1569 1.373 . S
C1571 C1555 1.377 . S
C1571 C1569 1.389 . S
C1571 C1572 1.524 . S
C1572 C1571 1.524 . S
C1572 C1573 1.397 . S
C1572 C1577 1.363 . S
C1573 H1544 0.950 . S
C1573 C1572 1.397 . S
C1573 C1574 1.334 . S
C1574 H1545 0.950 . S
C1574 C1573 1.334 . S
C1574 C1575 1.287 . S
C1575 C1574 1.287 . S
C1575 C1576 1.524 . S
C1575 H1578 0.999 . S
C1576 H1546 0.950 . S
C1576 C1575 1.524 . S
C1576 C1577 1.415 . S
C1577 H1547 0.950 . S
C1577 C1572 1.363 . S
C1577 C1576 1.415 . S
H1578 C1575 0.999 . S
H1579 C1560 0.913 . S
H1580 C1598 0.951 1_554 S
H1581 C1600 0.951 1_554 S
H1582 C1602 0.950 . S
H1583 C1603 0.950 . S
H1584 C1605 0.950 . S
H1585 C1608 0.950 . S
H1586 C1609 0.950 . S
H1587 C1611 0.950 1_554 S
H1588 C1612 0.920 1_554 S
H1589 C1613 0.951 . S
H1590 C1615 0.951 . S
H1591 C1617 0.950 . S
H1592 C1618 0.950 . S
H1593 C1620 0.950 . S
H1594 C1623 0.950 . S
H1595 C1624 0.950 . S
H1596 C1626 0.950 . S
H1597 C1627 0.950 . S
C1598 H1580 0.951 1_556 S
C1598 C1599 1.366 . S
C1598 C1600 1.388 . S
C1599 C1598 1.366 . S
C1599 C1603 1.385 . S
C1600 H1581 0.951 1_556 S
C1600 C1598 1.388 . S
C1600 C1601 1.366 . S
C1601 C1600 1.366 . S
C1601 C1602 1.414 . S
C1601 C1604 1.499 . S
C1602 H1582 0.950 . S
C1602 C1601 1.414 . S
C1602 C1603 1.374 . S
C1603 H1583 0.950 . S
C1603 C1599 1.385 . S
C1603 C1602 1.374 . S
C1604 C1601 1.499 . S
C1604 C1605 1.373 . S
C1604 C1606 1.389 . S
C1605 H1584 0.950 . S
C1605 C1604 1.373 . S
C1605 C1621 1.377 . S
C1606 C1604 1.389 . S
C1606 C1607 1.524 . S
C1606 C1620 1.377 . S
C1607 C1606 1.524 . S
C1607 C1608 1.397 . S
C1607 C1612 1.388 . S
C1608 H1585 0.950 . S
C1608 C1607 1.397 . S
C1608 C1609 1.334 . S
C1609 H1586 0.950 . S
C1609 C1608 1.334 . S
C1609 C1610 1.287 . S
C1610 C1609 1.287 . S
C1610 C1611 1.524 . S
C1610 H1629 0.913 . S
C1611 H1587 0.950 1_556 S
C1611 C1610 1.524 . S
C1611 C1612 1.421 . S
C1612 H1588 0.920 1_556 S
C1612 C1607 1.388 . S
C1612 C1611 1.421 . S
C1613 H1589 0.951 . S
C1613 C1614 1.366 . S
C1613 C1615 1.388 . S
C1614 C1613 1.366 . S
C1614 C1618 1.385 1_556 S
C1615 H1590 0.951 . S
C1615 C1613 1.388 . S
C1615 C1616 1.366 . S
C1616 C1615 1.366 . S
C1616 C1617 1.414 1_556 S
C1616 C1619 1.499 . S
C1617 H1591 0.950 . S
C1617 C1616 1.414 1_554 S
C1617 C1618 1.374 . S
C1618 H1592 0.950 . S
C1618 C1614 1.385 1_554 S
C1618 C1617 1.374 . S
C1619 C1616 1.499 . S
C1619 C1620 1.373 . S
C1619 C1621 1.389 . S
C1620 H1593 0.950 . S
C1620 C1606 1.377 . S
C1620 C1619 1.373 . S
C1621 C1605 1.377 . S
C1621 C1619 1.389 . S
C1621 C1622 1.524 . S
C1622 C1621 1.524 . S
C1622 C1623 1.397 1_556 S
C1622 C1627 1.363 . S
C1623 H1594 0.950 . S
C1623 C1622 1.397 1_554 S
C1623 C1624 1.334 . S
C1624 H1595 0.950 . S
C1624 C1623 1.334 . S
C1624 C1625 1.287 1_554 S
C1625 C1624 1.287 1_556 S
C1625 C1626 1.524 . S
C1625 H1628 1.008 . S
C1626 H1596 0.950 . S
C1626 C1625 1.524 . S
C1626 C1627 1.415 . S
C1627 H1597 0.950 . S
C1627 C1622 1.363 . S
C1627 C1626 1.415 . S
H1628 C1625 1.008 . S
H1629 C1610 0.913 . S
H1630 C1648 0.951 . S
H1631 C1650 0.951 . S
H1632 C1652 0.950 . S
H1633 C1653 0.950 . S
H1634 C1655 0.950 . S
H1635 C1658 0.950 . S
H1636 C1659 0.950 . S
H1637 C1661 0.950 . S
H1638 C1662 0.950 . S
H1639 C1663 0.951 . S
H1640 C1665 0.951 . S
H1641 C1667 0.950 . S
H1642 C1668 0.950 . S
H1643 C1670 0.950 . S
H1644 C1673 0.950 . S
H1645 C1674 0.950 . S
H1646 C1676 0.950 . S
H1647 C1677 0.950 . S
C1648 H1630 0.951 . S
C1648 C1649 1.366 . S
C1648 C1650 1.388 . S
C1649 C1648 1.366 . S
C1649 C1653 1.385 . S
C1650 H1631 0.951 . S
C1650 C1648 1.388 . S
C1650 C1651 1.366 . S
C1651 C1650 1.366 . S
C1651 C1652 1.414 . S
C1651 C1654 1.499 . S
C1652 H1632 0.950 . S
C1652 C1651 1.414 . S
C1652 C1653 1.374 . S
C1653 H1633 0.950 . S
C1653 C1649 1.385 . S
C1653 C1652 1.374 . S
C1654 C1651 1.499 . S
C1654 C1655 1.373 . S
C1654 C1656 1.389 . S
C1655 H1634 0.950 . S
C1655 C1654 1.373 . S
C1655 C1671 1.377 . S
C1656 C1654 1.389 . S
C1656 C1657 1.524 . S
C1656 C1670 1.377 . S
C1657 C1656 1.524 . S
C1657 C1658 1.397 . S
C1657 C1662 1.363 . S
C1658 H1635 0.950 . S
C1658 C1657 1.397 . S
C1658 C1659 1.334 . S
C1659 H1636 0.950 . S
C1659 C1658 1.334 . S
C1659 C1660 1.287 . S
C1660 C1659 1.287 . S
C1660 C1661 1.524 . S
C1660 H1679 0.913 . S
C1661 H1637 0.950 . S
C1661 C1660 1.524 . S
C1661 C1662 1.415 . S
C1662 H1638 0.950 . S
C1662 C1657 1.363 . S
C1662 C1661 1.415 . S
C1663 H1639 0.951 . S
C1663 C1664 1.366 . S
C1663 C1665 1.388 . S
C1664 C1663 1.366 . S
C1664 C1668 1.385 . S
C1665 H1640 0.951 . S
C1665 C1663 1.388 . S
C1665 C1666 1.366 . S
C1666 C1665 1.366 . S
C1666 C1667 1.414 . S
C1666 C1669 1.499 . S
C1667 H1641 0.950 . S
C1667 C1666 1.414 . S
C1667 C1668 1.374 . S
C1668 H1642 0.950 . S
C1668 C1664 1.385 . S
C1668 C1667 1.374 . S
C1669 C1666 1.499 . S
C1669 C1670 1.373 . S
C1669 C1671 1.389 . S
C1670 H1643 0.950 . S
C1670 C1656 1.377 . S
C1670 C1669 1.373 . S
C1671 C1655 1.377 . S
C1671 C1669 1.389 . S
C1671 C1672 1.524 . S
C1672 C1671 1.524 . S
C1672 C1673 1.397 . S
C1672 C1677 1.363 . S
C1673 H1644 0.950 . S
C1673 C1672 1.397 . S
C1673 C1674 1.334 . S
C1674 H1645 0.950 . S
C1674 C1673 1.334 . S
C1674 C1675 1.287 . S
C1675 C1674 1.287 . S
C1675 C1676 1.524 . S
C1675 H1678 0.999 . S
C1676 H1646 0.950 . S
C1676 C1675 1.524 . S
C1676 C1677 1.415 . S
C1677 H1647 0.950 . S
C1677 C1672 1.363 . S
C1677 C1676 1.415 . S
H1678 C1675 0.999 . S
H1679 C1660 0.913 . S
H1680 C1698 0.951 . S
H1681 C1700 0.951 . S
H1682 C1702 0.950 . S
H1683 C1703 0.950 1_565 S
H1684 C1705 0.950 . S
H1685 C1708 0.950 . S
H1686 C1709 0.950 . S
H1687 C1711 0.950 . S
H1688 C1712 0.950 . S
H1689 C1713 0.951 . S
H1690 C1715 0.951 . S
H1691 C1717 0.950 . S
H1692 C1718 0.950 . S
H1693 C1720 0.950 . S
H1694 C1723 0.950 . S
H1695 C1724 0.950 . S
H1696 C1726 0.950 . S
H1697 C1727 0.950 . S
C1698 H1680 0.951 . S
C1698 C1699 1.366 . S
C1698 C1700 1.388 . S
C1699 C1698 1.366 . S
C1699 C1703 1.385 . S
C1700 H1681 0.951 . S
C1700 C1698 1.388 . S
C1700 C1701 1.366 . S
C1701 C1700 1.366 . S
C1701 C1702 1.414 . S
C1701 C1704 1.499 . S
C1702 H1682 0.950 . S
C1702 C1701 1.414 . S
C1702 C1703 1.374 . S
C1703 H1683 0.950 1_545 S
C1703 C1699 1.385 . S
C1703 C1702 1.374 . S
C1704 C1701 1.499 . S
C1704 C1705 1.373 . S
C1704 C1706 1.389 . S
C1705 H1684 0.950 . S
C1705 C1704 1.373 . S
C1705 C1721 1.377 . S
C1706 C1704 1.389 . S
C1706 C1707 1.524 . S
C1706 C1720 1.377 . S
C1707 C1706 1.524 . S
C1707 C1708 1.397 . S
C1707 C1712 1.363 . S
C1708 H1685 0.950 . S
C1708 C1707 1.397 . S
C1708 C1709 1.334 . S
C1709 H1686 0.950 . S
C1709 C1708 1.334 . S
C1709 C1710 1.287 . S
C1710 C1709 1.287 . S
C1710 C1711 1.524 . S
C1710 H1729 0.913 . S
C1711 H1687 0.950 . S
C1711 C1710 1.524 . S
C1711 C1712 1.415 . S
C1712 H1688 0.950 . S
C1712 C1707 1.363 . S
C1712 C1711 1.415 . S
C1713 H1689 0.951 . S
C1713 C1714 1.366 . S
C1713 C1715 1.388 . S
C1714 C1713 1.366 . S
C1714 C1718 1.385 . S
C1715 H1690 0.951 . S
C1715 C1713 1.388 . S
C1715 C1716 1.366 . S
C1716 C1715 1.366 . S
C1716 C1717 1.414 . S
C1716 C1719 1.499 . S
C1717 H1691 0.950 . S
C1717 C1716 1.414 . S
C1717 C1718 1.374 . S
C1718 H1692 0.950 . S
C1718 C1714 1.385 . S
C1718 C1717 1.374 . S
C1719 C1716 1.499 . S
C1719 C1720 1.373 . S
C1719 C1721 1.389 . S
C1720 H1693 0.950 . S
C1720 C1706 1.377 . S
C1720 C1719 1.373 . S
C1721 C1705 1.377 . S
C1721 C1719 1.389 . S
C1721 C1722 1.524 . S
C1722 C1721 1.524 . S
C1722 C1723 1.397 . S
C1722 C1727 1.363 . S
C1723 H1694 0.950 . S
C1723 C1722 1.397 . S
C1723 C1724 1.334 . S
C1724 H1695 0.950 . S
C1724 C1723 1.334 . S
C1724 C1725 1.287 . S
C1725 C1724 1.287 . S
C1725 C1726 1.524 . S
C1725 H1728 0.999 . S
C1726 H1696 0.950 . S
C1726 C1725 1.524 . S
C1726 C1727 1.415 . S
C1727 H1697 0.950 . S
C1727 C1722 1.363 . S
C1727 C1726 1.415 . S
H1728 C1725 0.999 . S
H1729 C1710 0.913 . S
H1730 C1748 0.951 . S
H1731 C1750 0.951 . S
H1732 C1752 0.950 . S
H1733 C1753 0.950 . S
H1734 C1755 0.950 . S
H1735 C1758 0.950 . S
H1736 C1759 0.950 . S
H1737 C1761 0.950 . S
H1738 C1762 0.950 . S
H1739 C1763 0.951 . S
H1740 C1765 0.951 . S
H1741 C1767 0.950 . S
H1742 C1768 0.950 . S
H1743 C1770 0.950 . S
H1744 C1773 0.950 . S
H1745 C1774 0.950 . S
H1746 C1776 0.950 . S
H1747 C1777 0.950 . S
C1748 H1730 0.951 . S
C1748 C1749 1.366 . S
C1748 C1750 1.388 . S
C1749 C1748 1.366 . S
C1749 C1753 1.385 . S
C1750 H1731 0.951 . S
C1750 C1748 1.388 . S
C1750 C1751 1.366 . S
C1751 C1750 1.366 . S
C1751 C1752 1.414 . S
C1751 C1754 1.499 . S
C1752 H1732 0.950 . S
C1752 C1751 1.414 . S
C1752 C1753 1.374 . S
C1753 H1733 0.950 . S
C1753 C1749 1.385 . S
C1753 C1752 1.374 . S
C1754 C1751 1.499 . S
C1754 C1755 1.373 . S
C1754 C1756 1.389 . S
C1755 H1734 0.950 . S
C1755 C1754 1.373 . S
C1755 C1771 1.377 . S
C1756 C1754 1.389 . S
C1756 C1757 1.524 . S
C1756 C1770 1.377 . S
C1757 C1756 1.524 . S
C1757 C1758 1.397 . S
C1757 C1762 1.363 . S
C1758 H1735 0.950 . S
C1758 C1757 1.397 . S
C1758 C1759 1.334 . S
C1759 H1736 0.950 . S
C1759 C1758 1.334 . S
C1759 C1760 1.287 . S
C1760 C1759 1.287 . S
C1760 C1761 1.524 . S
C1760 H1779 0.913 . S
C1761 H1737 0.950 . S
C1761 C1760 1.524 . S
C1761 C1762 1.415 . S
C1762 H1738 0.950 . S
C1762 C1757 1.363 . S
C1762 C1761 1.415 . S
C1763 H1739 0.951 . S
C1763 C1764 1.366 . S
C1763 C1765 1.388 . S
C1764 C1763 1.366 . S
C1764 C1768 1.385 . S
C1765 H1740 0.951 . S
C1765 C1763 1.388 . S
C1765 C1766 1.366 . S
C1766 C1765 1.366 . S
C1766 C1767 1.414 . S
C1766 C1769 1.499 . S
C1767 H1741 0.950 . S
C1767 C1766 1.414 . S
C1767 C1768 1.374 . S
C1768 H1742 0.950 . S
C1768 C1764 1.385 . S
C1768 C1767 1.374 . S
C1769 C1766 1.499 . S
C1769 C1770 1.373 . S
C1769 C1771 1.389 . S
C1770 H1743 0.950 . S
C1770 C1756 1.377 . S
C1770 C1769 1.373 . S
C1771 C1755 1.377 . S
C1771 C1769 1.389 . S
C1771 C1772 1.524 . S
C1772 C1771 1.524 . S
C1772 C1773 1.397 . S
C1772 C1777 1.363 . S
C1773 H1744 0.950 . S
C1773 C1772 1.397 . S
C1773 C1774 1.334 . S
C1774 H1745 0.950 . S
C1774 C1773 1.334 . S
C1774 C1775 1.287 . S
C1775 C1774 1.287 . S
C1775 C1776 1.524 . S
C1775 H1778 0.999 . S
C1776 H1746 0.950 . S
C1776 C1775 1.524 . S
C1776 C1777 1.415 . S
C1777 H1747 0.950 . S
C1777 C1772 1.363 . S
C1777 C1776 1.415 . S
H1778 C1775 0.999 . S
H1779 C1760 0.913 . S
H1780 C1798 0.951 1_565 S
H1781 C1800 0.951 . S
H1782 C1802 0.950 . S
H1783 C1803 0.950 . S
H1784 C1805 0.950 . S
H1785 C1808 0.950 . S
H1786 C1809 0.950 . S
H1787 C1811 0.951 . S
H1788 C1812 0.950 . S
H1789 C1813 0.951 . S
H1790 C1815 0.951 . S
H1791 C1817 0.950 . S
H1792 C1818 0.950 . S
H1793 C1820 0.950 . S
H1794 C1823 0.950 . S
H1795 C1824 0.950 . S
H1796 C1826 0.950 . S
H1797 C1827 0.950 . S
C1798 H1780 0.951 1_545 S
C1798 C1799 1.366 . S
C1798 C1800 1.388 . S
C1799 C1798 1.366 . S
C1799 C1803 1.385 . S
C1800 H1781 0.951 . S
C1800 C1798 1.388 . S
C1800 C1801 1.366 . S
C1801 C1800 1.366 . S
C1801 C1802 1.414 . S
C1801 C1804 1.499 . S
C1802 H1782 0.950 . S
C1802 C1801 1.414 . S
C1802 C1803 1.374 . S
C1803 H1783 0.950 . S
C1803 C1799 1.385 . S
C1803 C1802 1.374 . S
C1804 C1801 1.499 . S
C1804 C1805 1.373 . S
C1804 C1806 1.389 . S
C1805 H1784 0.950 . S
C1805 C1804 1.373 . S
C1805 C1821 1.377 . S
C1806 C1804 1.389 . S
C1806 C1807 1.524 . S
C1806 C1820 1.377 . S
C1807 C1806 1.524 . S
C1807 C1808 1.397 . S
C1807 C1812 1.363 . S
C1808 H1785 0.950 . S
C1808 C1807 1.397 . S
C1808 C1809 1.334 . S
C1809 H1786 0.950 . S
C1809 C1808 1.334 . S
C1809 C1810 1.287 . S
C1810 C1809 1.287 . S
C1810 C1811 1.524 . S
C1810 H1829 0.913 . S
C1811 H1787 0.951 . S
C1811 C1810 1.524 . S
C1811 C1812 1.415 . S
C1812 H1788 0.950 . S
C1812 C1807 1.363 . S
C1812 C1811 1.415 . S
C1813 H1789 0.951 . S
C1813 C1814 1.366 . S
C1813 C1815 1.388 . S
C1814 C1813 1.366 . S
C1814 C1818 1.385 . S
C1815 H1790 0.951 . S
C1815 C1813 1.388 . S
C1815 C1816 1.366 . S
C1816 C1815 1.366 . S
C1816 C1817 1.414 . S
C1816 C1819 1.499 . S
C1817 H1791 0.950 . S
C1817 C1816 1.414 . S
C1817 C1818 1.374 . S
C1818 H1792 0.950 . S
C1818 C1814 1.385 . S
C1818 C1817 1.374 . S
C1819 C1816 1.499 . S
C1819 C1820 1.373 . S
C1819 C1821 1.389 . S
C1820 H1793 0.950 . S
C1820 C1806 1.377 . S
C1820 C1819 1.373 . S
C1821 C1805 1.377 . S
C1821 C1819 1.389 . S
C1821 C1822 1.524 . S
C1822 C1821 1.524 . S
C1822 C1823 1.397 . S
C1822 C1827 1.363 . S
C1823 H1794 0.950 . S
C1823 C1822 1.397 . S
C1823 C1824 1.334 . S
C1824 H1795 0.950 . S
C1824 C1823 1.334 . S
C1824 C1825 1.287 . S
C1825 C1824 1.287 . S
C1825 C1826 1.524 . S
C1825 H1828 0.999 . S
C1826 H1796 0.950 . S
C1826 C1825 1.524 . S
C1826 C1827 1.415 . S
C1827 H1797 0.950 . S
C1827 C1822 1.363 . S
C1827 C1826 1.415 . S
H1828 C1825 0.999 . S
H1829 C1810 0.913 . S
H1830 C1848 0.951 . S
H1831 C1850 0.951 . S
H1832 C1852 0.950 . S
H1833 C1853 0.950 . S
H1834 C1855 0.950 . S
H1835 C1858 0.950 . S
H1836 C1859 0.950 . S
H1837 C1861 0.950 . S
H1838 C1862 0.950 . S
H1839 C1863 0.951 . S
H1840 C1865 0.951 . S
H1841 C1867 0.950 . S
H1842 C1868 0.950 . S
H1843 C1870 0.950 . S
H1844 C1873 0.950 . S
H1845 C1874 0.950 . S
H1846 C1876 0.950 . S
H1847 C1877 0.950 . S
C1848 H1830 0.951 . S
C1848 C1849 1.366 . S
C1848 C1850 1.388 . S
C1849 C1848 1.366 . S
C1849 C1853 1.385 . S
C1850 H1831 0.951 . S
C1850 C1848 1.388 . S
C1850 C1851 1.366 . S
C1851 C1850 1.366 . S
C1851 C1852 1.414 . S
C1851 C1854 1.499 . S
C1852 H1832 0.950 . S
C1852 C1851 1.414 . S
C1852 C1853 1.374 . S
C1853 H1833 0.950 . S
C1853 C1849 1.385 . S
C1853 C1852 1.374 . S
C1854 C1851 1.499 . S
C1854 C1855 1.373 . S
C1854 C1856 1.389 . S
C1855 H1834 0.950 . S
C1855 C1854 1.373 . S
C1855 C1871 1.377 . S
C1856 C1854 1.389 . S
C1856 C1857 1.524 . S
C1856 C1870 1.377 . S
C1857 C1856 1.524 . S
C1857 C1858 1.397 . S
C1857 C1862 1.363 . S
C1858 H1835 0.950 . S
C1858 C1857 1.397 . S
C1858 C1859 1.334 . S
C1859 H1836 0.950 . S
C1859 C1858 1.334 . S
C1859 C1860 1.287 . S
C1860 C1859 1.287 . S
C1860 C1861 1.524 . S
C1860 H1879 0.913 . S
C1861 H1837 0.950 . S
C1861 C1860 1.524 . S
C1861 C1862 1.415 . S
C1862 H1838 0.950 . S
C1862 C1857 1.363 . S
C1862 C1861 1.415 . S
C1863 H1839 0.951 . S
C1863 C1864 1.366 . S
C1863 C1865 1.388 . S
C1864 C1863 1.366 . S
C1864 C1868 1.385 . S
C1865 H1840 0.951 . S
C1865 C1863 1.388 . S
C1865 C1866 1.366 . S
C1866 C1865 1.366 . S
C1866 C1867 1.414 . S
C1866 C1869 1.499 . S
C1867 H1841 0.950 . S
C1867 C1866 1.414 . S
C1867 C1868 1.374 . S
C1868 H1842 0.950 . S
C1868 C1864 1.385 . S
C1868 C1867 1.374 . S
C1869 C1866 1.499 . S
C1869 C1870 1.373 . S
C1869 C1871 1.389 . S
C1870 H1843 0.950 . S
C1870 C1856 1.377 . S
C1870 C1869 1.373 . S
C1871 C1855 1.377 . S
C1871 C1869 1.389 . S
C1871 C1872 1.524 . S
C1872 C1871 1.524 . S
C1872 C1873 1.397 . S
C1872 C1877 1.363 . S
C1873 H1844 0.950 . S
C1873 C1872 1.397 . S
C1873 C1874 1.334 . S
C1874 H1845 0.950 . S
C1874 C1873 1.334 . S
C1874 C1875 1.287 . S
C1875 C1874 1.287 . S
C1875 C1876 1.524 . S
C1875 H1878 0.999 . S
C1876 H1846 0.950 . S
C1876 C1875 1.524 . S
C1876 C1877 1.415 . S
C1877 H1847 0.950 . S
C1877 C1872 1.363 . S
C1877 C1876 1.415 . S
H1878 C1875 0.999 . S
H1879 C1860 0.913 . S
H1880 C1898 0.951 . S
H1881 C1900 0.951 . S
H1882 C1902 0.950 . S
H1883 C1903 0.950 . S
H1884 C1905 0.950 . S
H1885 C1908 0.950 . S
H1886 C1909 0.950 . S
H1887 C1911 0.950 . S
H1888 C1912 0.950 . S
H1889 C1913 0.951 . S
H1890 C1915 0.951 . S
H1891 C1917 0.950 . S
H1892 C1918 0.950 . S
H1893 C1920 0.950 . S
H1894 C1923 0.950 . S
H1895 C1924 0.950 . S
H1896 C1926 0.950 . S
H1897 C1927 0.950 . S
C1898 H1880 0.951 . S
C1898 C1899 1.366 . S
C1898 C1900 1.388 . S
C1899 C1898 1.366 . S
C1899 C1903 1.385 . S
C1900 H1881 0.951 . S
C1900 C1898 1.388 . S
C1900 C1901 1.366 . S
C1901 C1900 1.366 . S
C1901 C1902 1.414 . S
C1901 C1904 1.499 . S
C1902 H1882 0.950 . S
C1902 C1901 1.414 . S
C1902 C1903 1.374 . S
C1903 H1883 0.950 . S
C1903 C1899 1.385 . S
C1903 C1902 1.374 . S
C1904 C1901 1.499 . S
C1904 C1905 1.373 . S
C1904 C1906 1.389 . S
C1905 H1884 0.950 . S
C1905 C1904 1.373 . S
C1905 C1921 1.377 . S
C1906 C1904 1.389 . S
C1906 C1907 1.524 . S
C1906 C1920 1.377 . S
C1907 C1906 1.524 . S
C1907 C1908 1.397 . S
C1907 C1912 1.363 . S
C1908 H1885 0.950 . S
C1908 C1907 1.397 . S
C1908 C1909 1.334 . S
C1909 H1886 0.950 . S
C1909 C1908 1.334 . S
C1909 C1910 1.287 . S
C1910 C1909 1.287 . S
C1910 C1911 1.524 . S
C1910 H1929 0.913 . S
C1911 H1887 0.950 . S
C1911 C1910 1.524 . S
C1911 C1912 1.415 . S
C1912 H1888 0.950 . S
C1912 C1907 1.363 . S
C1912 C1911 1.415 . S
C1913 H1889 0.951 . S
C1913 C1914 1.366 . S
C1913 C1915 1.388 . S
C1914 C1913 1.366 . S
C1914 C1918 1.385 . S
C1915 H1890 0.951 . S
C1915 C1913 1.388 . S
C1915 C1916 1.366 . S
C1916 C1915 1.366 . S
C1916 C1917 1.414 . S
C1916 C1919 1.499 . S
C1917 H1891 0.950 . S
C1917 C1916 1.414 . S
C1917 C1918 1.374 . S
C1918 H1892 0.950 . S
C1918 C1914 1.385 . S
C1918 C1917 1.374 . S
C1919 C1916 1.499 . S
C1919 C1920 1.373 . S
C1919 C1921 1.389 . S
C1920 H1893 0.950 . S
C1920 C1906 1.377 . S
C1920 C1919 1.373 . S
C1921 C1905 1.377 . S
C1921 C1919 1.389 . S
C1921 C1922 1.524 . S
C1922 C1921 1.524 . S
C1922 C1923 1.397 . S
C1922 C1927 1.363 . S
C1923 H1894 0.950 . S
C1923 C1922 1.397 . S
C1923 C1924 1.334 . S
C1924 H1895 0.950 . S
C1924 C1923 1.334 . S
C1924 C1925 1.287 . S
C1925 C1924 1.287 . S
C1925 C1926 1.524 . S
C1925 H1928 0.999 . S
C1926 H1896 0.950 . S
C1926 C1925 1.524 . S
C1926 C1927 1.415 . S
C1927 H1897 0.950 . S
C1927 C1922 1.363 . S
C1927 C1926 1.415 . S
H1928 C1925 0.999 . S
H1929 C1910 0.913 . S
H1930 C1948 0.951 . S
H1931 C1950 0.951 . S
H1932 C1952 0.950 . S
H1933 C1953 0.950 . S
H1934 C1955 0.950 . S
H1935 C1958 0.950 . S
H1936 C1959 0.950 . S
H1937 C1961 0.950 . S
H1938 C1962 0.950 . S
H1939 C1963 0.951 . S
H1940 C1965 0.951 . S
H1941 C1967 0.938 1_565 S
H1942 C1968 0.950 1_565 S
H1943 C1970 0.950 . S
H1944 C1973 0.950 . S
H1945 C1974 0.950 . S
H1946 C1976 0.950 . S
H1947 C1977 0.950 . S
C1948 H1930 0.951 . S
C1948 C1949 1.366 . S
C1948 C1950 1.388 . S
C1949 C1948 1.366 . S
C1949 C1953 1.385 . S
C1950 H1931 0.951 . S
C1950 C1948 1.388 . S
C1950 C1951 1.366 . S
C1951 C1950 1.366 . S
C1951 C1952 1.414 . S
C1951 C1954 1.499 . S
C1952 H1932 0.950 . S
C1952 C1951 1.414 . S
C1952 C1953 1.374 . S
C1953 H1933 0.950 . S
C1953 C1949 1.385 . S
C1953 C1952 1.374 . S
C1954 C1951 1.499 . S
C1954 C1955 1.373 . S
C1954 C1956 1.369 1_545 S
C1955 H1934 0.950 . S
C1955 C1954 1.373 . S
C1955 C1971 1.377 . S
C1956 C1954 1.369 1_565 S
C1956 C1957 1.544 . S
C1956 C1970 1.379 . S
C1957 C1956 1.544 . S
C1957 C1958 1.397 . S
C1957 C1962 1.363 . S
C1958 H1935 0.950 . S
C1958 C1957 1.397 . S
C1958 C1959 1.334 . S
C1959 H1936 0.950 . S
C1959 C1958 1.334 . S
C1959 C1960 1.287 . S
C1960 C1959 1.287 . S
C1960 C1961 1.524 . S
C1960 H1979 0.913 . S
C1961 H1937 0.950 . S
C1961 C1960 1.524 . S
C1961 C1962 1.415 . S
C1962 H1938 0.950 . S
C1962 C1957 1.363 . S
C1962 C1961 1.415 . S
C1963 H1939 0.951 . S
C1963 C1964 1.366 . S
C1963 C1965 1.388 . S
C1964 C1963 1.366 . S
C1964 C1968 1.385 . S
C1965 H1940 0.951 . S
C1965 C1963 1.388 . S
C1965 C1966 1.366 . S
C1966 C1965 1.366 . S
C1966 C1967 1.414 . S
C1966 C1969 1.499 . S
C1967 H1941 0.938 1_545 S
C1967 C1966 1.414 . S
C1967 C1968 1.374 . S
C1968 H1942 0.950 1_545 S
C1968 C1964 1.385 . S
C1968 C1967 1.374 . S
C1969 C1966 1.499 . S
C1969 C1970 1.373 1_545 S
C1969 C1971 1.389 . S
C1970 H1943 0.950 . S
C1970 C1956 1.379 . S
C1970 C1969 1.373 1_565 S
C1971 C1955 1.377 . S
C1971 C1969 1.389 . S
C1971 C1972 1.524 . S
C1972 C1971 1.524 . S
C1972 C1973 1.397 . S
C1972 C1977 1.363 . S
C1973 H1944 0.950 . S
C1973 C1972 1.397 . S
C1973 C1974 1.334 . S
C1974 H1945 0.950 . S
C1974 C1973 1.334 . S
C1974 C1975 1.287 . S
C1975 C1974 1.287 . S
C1975 C1976 1.524 . S
C1975 H1978 0.999 . S
C1976 H1946 0.950 . S
C1976 C1975 1.524 . S
C1976 C1977 1.415 . S
C1977 H1947 0.950 . S
C1977 C1972 1.363 . S
C1977 C1976 1.415 . S
H1978 C1975 0.999 . S
H1979 C1960 0.913 . S
H1980 C1998 0.951 . S
H1981 C2000 0.951 . S
H1982 C2002 0.950 . S
H1983 C2003 0.950 . S
H1984 C2005 0.950 . S
H1985 C2008 0.950 . S
H1986 C2009 0.950 . S
H1987 C2011 0.950 . S
H1988 C2012 0.950 . S
H1989 C2013 0.951 . S
H1990 C2015 0.951 . S
H1991 C2017 0.950 . S
H1992 C2018 0.950 . S
H1993 C2020 0.950 . S
H1994 C2023 0.950 . S
H1995 C2024 0.950 . S
H1996 C2026 0.950 . S
H1997 C2027 0.950 . S
C1998 H1980 0.951 . S
C1998 C1999 1.366 . S
C1998 C2000 1.388 . S
C1999 C1998 1.366 . S
C1999 C2003 1.385 . S
C2000 H1981 0.951 . S
C2000 C1998 1.388 . S
C2000 C2001 1.366 . S
C2001 C2000 1.366 . S
C2001 C2002 1.414 . S
C2001 C2004 1.499 . S
C2002 H1982 0.950 . S
C2002 C2001 1.414 . S
C2002 C2003 1.374 . S
C2003 H1983 0.950 . S
C2003 C1999 1.385 . S
C2003 C2002 1.374 . S
C2004 C2001 1.499 . S
C2004 C2005 1.373 . S
C2004 C2006 1.389 . S
C2005 H1984 0.950 . S
C2005 C2004 1.373 . S
C2005 C2021 1.377 . S
C2006 C2004 1.389 . S
C2006 C2007 1.524 . S
C2006 C2020 1.377 . S
C2007 C2006 1.524 . S
C2007 C2008 1.397 . S
C2007 C2012 1.363 . S
C2008 H1985 0.950 . S
C2008 C2007 1.397 . S
C2008 C2009 1.334 . S
C2009 H1986 0.950 . S
C2009 C2008 1.334 . S
C2009 C2010 1.287 . S
C2010 C2009 1.287 . S
C2010 C2011 1.524 . S
C2010 H2029 0.913 . S
C2011 H1987 0.950 . S
C2011 C2010 1.524 . S
C2011 C2012 1.415 . S
C2012 H1988 0.950 . S
C2012 C2007 1.363 . S
C2012 C2011 1.415 . S
C2013 H1989 0.951 . S
C2013 C2014 1.366 . S
C2013 C2015 1.388 . S
C2014 C2013 1.366 . S
C2014 C2018 1.385 . S
C2015 H1990 0.951 . S
C2015 C2013 1.388 . S
C2015 C2016 1.366 . S
C2016 C2015 1.366 . S
C2016 C2017 1.414 . S
C2016 C2019 1.499 . S
C2017 H1991 0.950 . S
C2017 C2016 1.414 . S
C2017 C2018 1.374 . S
C2018 H1992 0.950 . S
C2018 C2014 1.385 . S
C2018 C2017 1.374 . S
C2019 C2016 1.499 . S
C2019 C2020 1.373 . S
C2019 C2021 1.389 . S
C2020 H1993 0.950 . S
C2020 C2006 1.377 . S
C2020 C2019 1.373 . S
C2021 C2005 1.377 . S
C2021 C2019 1.389 . S
C2021 C2022 1.524 . S
C2022 C2021 1.524 . S
C2022 C2023 1.397 . S
C2022 C2027 1.363 . S
C2023 H1994 0.950 . S
C2023 C2022 1.397 . S
C2023 C2024 1.334 . S
C2024 H1995 0.950 . S
C2024 C2023 1.334 . S
C2024 C2025 1.287 . S
C2025 C2024 1.287 . S
C2025 C2026 1.524 . S
C2025 H2028 0.999 . S
C2026 H1996 0.950 . S
C2026 C2025 1.524 . S
C2026 C2027 1.415 . S
C2027 H1997 0.950 . S
C2027 C2022 1.363 . S
C2027 C2026 1.415 . S
H2028 C2025 0.999 . S
H2029 C2010 0.913 . S
H2030 C2048 0.951 . S
H2031 C2050 0.951 . S
H2032 C2052 0.950 . S
H2033 C2053 0.950 . S
H2034 C2055 0.950 . S
H2035 C2058 0.950 . S
H2036 C2059 0.950 . S
H2037 C2061 0.950 . S
H2038 C2062 0.950 . S
H2039 C2063 0.951 . S
H2040 C2065 0.951 . S
H2041 C2067 0.950 . S
H2042 C2068 0.950 . S
H2043 C2070 0.950 . S
H2044 C2073 0.950 . S
H2045 C2074 0.950 . S
H2046 C2076 0.950 . S
H2047 C2077 0.950 . S
C2048 H2030 0.951 . S
C2048 C2049 1.366 . S
C2048 C2050 1.388 . S
C2049 C2048 1.366 . S
C2049 C2053 1.385 . S
C2050 H2031 0.951 . S
C2050 C2048 1.388 . S
C2050 C2051 1.366 . S
C2051 C2050 1.366 . S
C2051 C2052 1.414 . S
C2051 C2054 1.499 . S
C2052 H2032 0.950 . S
C2052 C2051 1.414 . S
C2052 C2053 1.374 . S
C2053 H2033 0.950 . S
C2053 C2049 1.385 . S
C2053 C2052 1.374 . S
C2054 C2051 1.499 . S
C2054 C2055 1.373 . S
C2054 C2056 1.389 . S
C2055 H2034 0.950 . S
C2055 C2054 1.373 . S
C2055 C2071 1.377 . S
C2056 C2054 1.389 . S
C2056 C2057 1.524 . S
C2056 C2070 1.377 . S
C2057 C2056 1.524 . S
C2057 C2058 1.397 . S
C2057 C2062 1.363 . S
C2058 H2035 0.950 . S
C2058 C2057 1.397 . S
C2058 C2059 1.334 . S
C2059 H2036 0.950 . S
C2059 C2058 1.334 . S
C2059 C2060 1.287 . S
C2060 C2059 1.287 . S
C2060 C2061 1.524 . S
C2060 H2079 0.913 . S
C2061 H2037 0.950 . S
C2061 C2060 1.524 . S
C2061 C2062 1.415 . S
C2062 H2038 0.950 . S
C2062 C2057 1.363 . S
C2062 C2061 1.415 . S
C2063 H2039 0.951 . S
C2063 C2064 1.366 . S
C2063 C2065 1.388 . S
C2064 C2063 1.366 . S
C2064 C2068 1.385 . S
C2065 H2040 0.951 . S
C2065 C2063 1.388 . S
C2065 C2066 1.366 . S
C2066 C2065 1.366 . S
C2066 C2067 1.414 . S
C2066 C2069 1.499 . S
C2067 H2041 0.950 . S
C2067 C2066 1.414 . S
C2067 C2068 1.374 . S
C2068 H2042 0.950 . S
C2068 C2064 1.385 . S
C2068 C2067 1.374 . S
C2069 C2066 1.499 . S
C2069 C2070 1.373 . S
C2069 C2071 1.389 . S
C2070 H2043 0.950 . S
C2070 C2056 1.377 . S
C2070 C2069 1.373 . S
C2071 C2055 1.377 . S
C2071 C2069 1.389 . S
C2071 C2072 1.524 . S
C2072 C2071 1.524 . S
C2072 C2073 1.397 . S
C2072 C2077 1.363 . S
C2073 H2044 0.950 . S
C2073 C2072 1.397 . S
C2073 C2074 1.334 . S
C2074 H2045 0.950 . S
C2074 C2073 1.334 . S
C2074 C2075 1.287 . S
C2075 C2074 1.287 . S
C2075 C2076 1.524 . S
C2075 H2078 0.999 . S
C2076 H2046 0.950 . S
C2076 C2075 1.524 . S
C2076 C2077 1.415 . S
C2077 H2047 0.950 . S
C2077 C2072 1.363 . S
C2077 C2076 1.415 . S
H2078 C2075 0.999 . S
H2079 C2060 0.913 . S
H2080 C2098 0.951 . S
H2081 C2100 0.951 . S
H2082 C2102 0.950 . S
H2083 C2103 0.950 . S
H2084 C2105 0.950 . S
H2085 C2108 0.950 . S
H2086 C2109 0.950 . S
H2087 C2111 0.950 . S
H2088 C2112 0.950 . S
H2089 C2113 0.951 . S
H2090 C2115 0.951 . S
H2091 C2117 0.950 . S
H2092 C2118 0.950 . S
H2093 C2120 0.950 . S
H2094 C2123 0.950 . S
H2095 C2124 0.950 . S
H2096 C2126 0.950 . S
H2097 C2127 0.950 . S
C2098 H2080 0.951 . S
C2098 C2099 1.366 . S
C2098 C2100 1.388 . S
C2099 C2098 1.366 . S
C2099 C2103 1.385 . S
C2100 H2081 0.951 . S
C2100 C2098 1.388 . S
C2100 C2101 1.366 . S
C2101 C2100 1.366 . S
C2101 C2102 1.414 . S
C2101 C2104 1.499 . S
C2102 H2082 0.950 . S
C2102 C2101 1.414 . S
C2102 C2103 1.374 . S
C2103 H2083 0.950 . S
C2103 C2099 1.385 . S
C2103 C2102 1.374 . S
C2104 C2101 1.499 . S
C2104 C2105 1.373 . S
C2104 C2106 1.389 . S
C2105 H2084 0.950 . S
C2105 C2104 1.373 . S
C2105 C2121 1.377 . S
C2106 C2104 1.389 . S
C2106 C2107 1.524 . S
C2106 C2120 1.377 . S
C2107 C2106 1.524 . S
C2107 C2108 1.397 . S
C2107 C2112 1.363 . S
C2108 H2085 0.950 . S
C2108 C2107 1.397 . S
C2108 C2109 1.334 . S
C2109 H2086 0.950 . S
C2109 C2108 1.334 . S
C2109 C2110 1.287 . S
C2110 C2109 1.287 . S
C2110 C2111 1.524 . S
C2110 H2129 0.913 . S
C2111 H2087 0.950 . S
C2111 C2110 1.524 . S
C2111 C2112 1.415 . S
C2112 H2088 0.950 . S
C2112 C2107 1.363 . S
C2112 C2111 1.415 . S
C2113 H2089 0.951 . S
C2113 C2114 1.366 . S
C2113 C2115 1.388 . S
C2114 C2113 1.366 . S
C2114 C2118 1.385 . S
C2115 H2090 0.951 . S
C2115 C2113 1.388 . S
C2115 C2116 1.366 . S
C2116 C2115 1.366 . S
C2116 C2117 1.414 . S
C2116 C2119 1.499 . S
C2117 H2091 0.950 . S
C2117 C2116 1.414 . S
C2117 C2118 1.374 . S
C2118 H2092 0.950 . S
C2118 C2114 1.385 . S
C2118 C2117 1.374 . S
C2119 C2116 1.499 . S
C2119 C2120 1.373 . S
C2119 C2121 1.389 . S
C2120 H2093 0.950 . S
C2120 C2106 1.377 . S
C2120 C2119 1.373 . S
C2121 C2105 1.377 . S
C2121 C2119 1.389 . S
C2121 C2122 1.524 . S
C2122 C2121 1.524 . S
C2122 C2123 1.397 . S
C2122 C2127 1.363 . S
C2123 H2094 0.950 . S
C2123 C2122 1.397 . S
C2123 C2124 1.334 . S
C2124 H2095 0.950 . S
C2124 C2123 1.334 . S
C2124 C2125 1.287 . S
C2125 C2124 1.287 . S
C2125 C2126 1.524 . S
C2125 H2128 0.999 . S
C2126 H2096 0.950 . S
C2126 C2125 1.524 . S
C2126 C2127 1.415 . S
C2127 H2097 0.950 . S
C2127 C2122 1.363 . S
C2127 C2126 1.415 . S
H2128 C2125 0.999 . S
H2129 C2110 0.913 . S
H2130 C2148 0.951 . S
H2131 C2150 0.951 . S
H2132 C2152 0.950 . S
H2133 C2153 0.950 . S
H2134 C2155 0.950 . S
H2135 C2158 0.950 . S
H2136 C2159 0.950 . S
H2137 C2161 0.950 . S
H2138 C2162 0.917 1_545 S
H2139 C2163 0.951 . S
H2140 C2165 0.951 . S
H2141 C2167 0.950 . S
H2142 C2168 0.950 . S
H2143 C2170 0.950 . S
H2144 C2173 0.950 . S
H2145 C2174 0.950 . S
H2146 C2176 0.950 . S
H2147 C2177 0.950 . S
C2148 H2130 0.951 . S
C2148 C2149 1.366 1_455 S
C2148 C2150 1.388 1_455 S
C2149 C2148 1.366 1_655 S
C2149 C2153 1.385 . S
C2150 H2131 0.951 . S
C2150 C2148 1.388 1_655 S
C2150 C2151 1.366 . S
C2151 C2150 1.366 . S
C2151 C2152 1.414 . S
C2151 C2154 1.499 . S
C2152 H2132 0.950 . S
C2152 C2151 1.414 . S
C2152 C2153 1.374 . S
C2153 H2133 0.950 . S
C2153 C2149 1.385 . S
C2153 C2152 1.374 . S
C2154 C2151 1.499 . S
C2154 C2155 1.373 . S
C2154 C2156 1.389 . S
C2155 H2134 0.950 . S
C2155 C2154 1.373 . S
C2155 C2171 1.377 . S
C2156 C2154 1.389 . S
C2156 C2157 1.524 . S
C2156 C2170 1.377 . S
C2157 C2156 1.524 . S
C2157 C2158 1.397 1_545 S
C2157 C2162 1.354 1_545 S
C2158 H2135 0.950 . S
C2158 C2157 1.397 1_565 S
C2158 C2159 1.334 . S
C2159 H2136 0.950 . S
C2159 C2158 1.334 . S
C2159 C2160 1.288 1_655 S
C2160 C2159 1.288 1_455 S
C2160 C2161 1.524 . S
C2160 H2179 0.912 . S
C2161 H2137 0.950 . S
C2161 C2160 1.524 . S
C2161 C2162 1.459 1_455 S
C2162 H2138 0.917 1_565 S
C2162 C2157 1.354 1_565 S
C2162 C2161 1.459 1_655 S
C2163 H2139 0.951 . S
C2163 C2164 1.366 . S
C2163 C2165 1.388 . S
C2164 C2163 1.366 . S
C2164 C2168 1.385 . S
C2165 H2140 0.951 . S
C2165 C2163 1.388 . S
C2165 C2166 1.366 . S
C2166 C2165 1.366 . S
C2166 C2167 1.414 . S
C2166 C2169 1.499 . S
C2167 H2141 0.950 . S
C2167 C2166 1.414 . S
C2167 C2168 1.374 . S
C2168 H2142 0.950 . S
C2168 C2164 1.385 . S
C2168 C2167 1.374 . S
C2169 C2166 1.499 . S
C2169 C2170 1.373 . S
C2169 C2171 1.389 . S
C2170 H2143 0.950 . S
C2170 C2156 1.377 . S
C2170 C2169 1.373 . S
C2171 C2155 1.377 . S
C2171 C2169 1.389 . S
C2171 C2172 1.524 . S
C2172 C2171 1.524 . S
C2172 C2173 1.397 . S
C2172 C2177 1.363 . S
C2173 H2144 0.950 . S
C2173 C2172 1.397 . S
C2173 C2174 1.334 . S
C2174 H2145 0.950 . S
C2174 C2173 1.334 . S
C2174 C2175 1.287 . S
C2175 C2174 1.287 . S
C2175 C2176 1.524 . S
C2175 H2178 0.999 . S
C2176 H2146 0.950 . S
C2176 C2175 1.524 . S
C2176 C2177 1.415 . S
C2177 H2147 0.950 . S
C2177 C2172 1.363 . S
C2177 C2176 1.415 . S
H2178 C2175 0.999 . S
H2179 C2160 0.912 . S
H2180 C2198 0.951 . S
H2181 C2200 0.951 . S
H2182 C2202 0.950 . S
H2183 C2203 0.950 . S
H2184 C2205 0.950 . S
H2185 C2208 0.950 . S
H2186 C2209 0.950 . S
H2187 C2211 0.950 . S
H2188 C2212 0.950 . S
H2189 C2213 0.951 . S
H2190 C2215 0.951 . S
H2191 C2217 0.950 . S
H2192 C2218 0.950 . S
H2193 C2220 0.950 . S
H2194 C2223 0.950 . S
H2195 C2224 0.950 . S
H2196 C2226 0.950 . S
H2197 C2227 0.950 . S
C2198 H2180 0.951 . S
C2198 C2199 1.366 . S
C2198 C2200 1.388 . S
C2199 C2198 1.366 . S
C2199 C2203 1.385 . S
C2200 H2181 0.951 . S
C2200 C2198 1.388 . S
C2200 C2201 1.366 . S
C2201 C2200 1.366 . S
C2201 C2202 1.414 . S
C2201 C2204 1.499 . S
C2202 H2182 0.950 . S
C2202 C2201 1.414 . S
C2202 C2203 1.374 . S
C2203 H2183 0.950 . S
C2203 C2199 1.385 . S
C2203 C2202 1.374 . S
C2204 C2201 1.499 . S
C2204 C2205 1.373 . S
C2204 C2206 1.389 . S
C2205 H2184 0.950 . S
C2205 C2204 1.373 . S
C2205 C2221 1.377 . S
C2206 C2204 1.389 . S
C2206 C2207 1.524 . S
C2206 C2220 1.377 . S
C2207 C2206 1.524 . S
C2207 C2208 1.397 . S
C2207 C2212 1.363 . S
C2208 H2185 0.950 . S
C2208 C2207 1.397 . S
C2208 C2209 1.334 . S
C2209 H2186 0.950 . S
C2209 C2208 1.334 . S
C2209 C2210 1.287 . S
C2210 C2209 1.287 . S
C2210 C2211 1.524 . S
C2210 H2229 0.913 . S
C2211 H2187 0.950 . S
C2211 C2210 1.524 . S
C2211 C2212 1.415 . S
C2212 H2188 0.950 . S
C2212 C2207 1.363 . S
C2212 C2211 1.415 . S
C2213 H2189 0.951 . S
C2213 C2214 1.366 . S
C2213 C2215 1.388 . S
C2214 C2213 1.366 . S
C2214 C2218 1.385 . S
C2215 H2190 0.951 . S
C2215 C2213 1.388 . S
C2215 C2216 1.366 . S
C2216 C2215 1.366 . S
C2216 C2217 1.414 . S
C2216 C2219 1.499 . S
C2217 H2191 0.950 . S
C2217 C2216 1.414 . S
C2217 C2218 1.374 . S
C2218 H2192 0.950 . S
C2218 C2214 1.385 . S
C2218 C2217 1.374 . S
C2219 C2216 1.499 . S
C2219 C2220 1.373 . S
C2219 C2221 1.389 . S
C2220 H2193 0.950 . S
C2220 C2206 1.377 . S
C2220 C2219 1.373 . S
C2221 C2205 1.377 . S
C2221 C2219 1.389 . S
C2221 C2222 1.524 . S
C2222 C2221 1.524 . S
C2222 C2223 1.397 . S
C2222 C2227 1.363 . S
C2223 H2194 0.950 . S
C2223 C2222 1.397 . S
C2223 C2224 1.334 . S
C2224 H2195 0.950 . S
C2224 C2223 1.334 . S
C2224 C2225 1.287 . S
C2225 C2224 1.287 . S
C2225 C2226 1.524 . S
C2225 H2228 0.999 . S
C2226 H2196 0.950 . S
C2226 C2225 1.524 . S
C2226 C2227 1.415 . S
C2227 H2197 0.950 . S
C2227 C2222 1.363 . S
C2227 C2226 1.415 . S
H2228 C2225 0.999 . S
H2229 C2210 0.913 . S
H2230 C2248 0.951 . S
H2231 C2250 0.951 . S
H2232 C2252 0.950 . S
H2233 C2253 0.950 . S
H2234 C2255 0.950 . S
H2235 C2258 0.950 . S
H2236 C2259 0.950 . S
H2237 C2261 0.950 . S
H2238 C2262 0.950 . S
H2239 C2263 0.951 . S
H2240 C2265 0.951 . S
H2241 C2267 0.950 . S
H2242 C2268 0.950 . S
H2243 C2270 0.950 . S
H2244 C2273 0.950 . S
H2245 C2274 0.950 . S
H2246 C2276 0.950 . S
H2247 C2277 0.950 . S
C2248 H2230 0.951 . S
C2248 C2249 1.366 . S
C2248 C2250 1.388 . S
C2249 C2248 1.366 . S
C2249 C2253 1.385 . S
C2250 H2231 0.951 . S
C2250 C2248 1.388 . S
C2250 C2251 1.366 . S
C2251 C2250 1.366 . S
C2251 C2252 1.414 . S
C2251 C2254 1.499 . S
C2252 H2232 0.950 . S
C2252 C2251 1.414 . S
C2252 C2253 1.374 . S
C2253 H2233 0.950 . S
C2253 C2249 1.385 . S
C2253 C2252 1.374 . S
C2254 C2251 1.499 . S
C2254 C2255 1.373 . S
C2254 C2256 1.389 . S
C2255 H2234 0.950 . S
C2255 C2254 1.373 . S
C2255 C2271 1.377 . S
C2256 C2254 1.389 . S
C2256 C2257 1.524 . S
C2256 C2270 1.377 . S
C2257 C2256 1.524 . S
C2257 C2258 1.397 . S
C2257 C2262 1.363 . S
C2258 H2235 0.950 . S
C2258 C2257 1.397 . S
C2258 C2259 1.334 . S
C2259 H2236 0.950 . S
C2259 C2258 1.334 . S
C2259 C2260 1.287 . S
C2260 C2259 1.287 . S
C2260 C2261 1.524 . S
C2260 H2279 0.913 . S
C2261 H2237 0.950 . S
C2261 C2260 1.524 . S
C2261 C2262 1.415 . S
C2262 H2238 0.950 . S
C2262 C2257 1.363 . S
C2262 C2261 1.415 . S
C2263 H2239 0.951 . S
C2263 C2264 1.366 . S
C2263 C2265 1.388 . S
C2264 C2263 1.366 . S
C2264 C2268 1.385 . S
C2265 H2240 0.951 . S
C2265 C2263 1.388 . S
C2265 C2266 1.366 . S
C2266 C2265 1.366 . S
C2266 C2267 1.414 . S
C2266 C2269 1.499 . S
C2267 H2241 0.950 . S
C2267 C2266 1.414 . S
C2267 C2268 1.374 . S
C2268 H2242 0.950 . S
C2268 C2264 1.385 . S
C2268 C2267 1.374 . S
C2269 C2266 1.499 . S
C2269 C2270 1.373 . S
C2269 C2271 1.389 . S
C2270 H2243 0.950 . S
C2270 C2256 1.377 . S
C2270 C2269 1.373 . S
C2271 C2255 1.377 . S
C2271 C2269 1.389 . S
C2271 C2272 1.524 . S
C2272 C2271 1.524 . S
C2272 C2273 1.397 . S
C2272 C2277 1.363 . S
C2273 H2244 0.950 . S
C2273 C2272 1.397 . S
C2273 C2274 1.334 . S
C2274 H2245 0.950 . S
C2274 C2273 1.334 . S
C2274 C2275 1.287 . S
C2275 C2274 1.287 . S
C2275 C2276 1.524 . S
C2275 H2278 0.999 . S
C2276 H2246 0.950 . S
C2276 C2275 1.524 . S
C2276 C2277 1.415 . S
C2277 H2247 0.950 . S
C2277 C2272 1.363 . S
C2277 C2276 1.415 . S
H2278 C2275 0.999 . S
H2279 C2260 0.913 . S
H2280 C2298 0.951 . S
H2281 C2300 0.951 . S
H2282 C2302 0.950 . S
H2283 C2303 0.950 . S
H2284 C2305 0.950 . S
H2285 C2308 0.950 . S
H2286 C2309 0.950 . S
H2287 C2311 0.950 . S
H2288 C2312 0.950 . S
H2289 C2313 0.951 . S
H2290 C2315 0.951 . S
H2291 C2317 0.950 . S
H2292 C2318 0.950 . S
H2293 C2320 0.950 . S
H2294 C2323 0.950 . S
H2295 C2324 0.950 . S
H2296 C2326 0.950 . S
H2297 C2327 0.950 . S
C2298 H2280 0.951 . S
C2298 C2299 1.366 . S
C2298 C2300 1.388 . S
C2299 C2298 1.366 . S
C2299 C2303 1.385 . S
C2300 H2281 0.951 . S
C2300 C2298 1.388 . S
C2300 C2301 1.366 . S
C2301 C2300 1.366 . S
C2301 C2302 1.414 . S
C2301 C2304 1.499 . S
C2302 H2282 0.950 . S
C2302 C2301 1.414 . S
C2302 C2303 1.374 . S
C2303 H2283 0.950 . S
C2303 C2299 1.385 . S
C2303 C2302 1.374 . S
C2304 C2301 1.499 . S
C2304 C2305 1.373 . S
C2304 C2306 1.389 . S
C2305 H2284 0.950 . S
C2305 C2304 1.373 . S
C2305 C2321 1.377 . S
C2306 C2304 1.389 . S
C2306 C2307 1.524 . S
C2306 C2320 1.377 . S
C2307 C2306 1.524 . S
C2307 C2308 1.397 . S
C2307 C2312 1.363 . S
C2308 H2285 0.950 . S
C2308 C2307 1.397 . S
C2308 C2309 1.334 . S
C2309 H2286 0.950 . S
C2309 C2308 1.334 . S
C2309 C2310 1.287 . S
C2310 C2309 1.287 . S
C2310 C2311 1.524 . S
C2310 H2329 0.913 . S
C2311 H2287 0.950 . S
C2311 C2310 1.524 . S
C2311 C2312 1.415 . S
C2312 H2288 0.950 . S
C2312 C2307 1.363 . S
C2312 C2311 1.415 . S
C2313 H2289 0.951 . S
C2313 C2314 1.366 . S
C2313 C2315 1.388 . S
C2314 C2313 1.366 . S
C2314 C2318 1.385 . S
C2315 H2290 0.951 . S
C2315 C2313 1.388 . S
C2315 C2316 1.366 . S
C2316 C2315 1.366 . S
C2316 C2317 1.414 . S
C2316 C2319 1.499 . S
C2317 H2291 0.950 . S
C2317 C2316 1.414 . S
C2317 C2318 1.374 . S
C2318 H2292 0.950 . S
C2318 C2314 1.385 . S
C2318 C2317 1.374 . S
C2319 C2316 1.499 . S
C2319 C2320 1.373 . S
C2319 C2321 1.389 . S
C2320 H2293 0.950 . S
C2320 C2306 1.377 . S
C2320 C2319 1.373 . S
C2321 C2305 1.377 . S
C2321 C2319 1.389 . S
C2321 C2322 1.524 . S
C2322 C2321 1.524 . S
C2322 C2323 1.397 . S
C2322 C2327 1.363 . S
C2323 H2294 0.950 . S
C2323 C2322 1.397 . S
C2323 C2324 1.334 . S
C2324 H2295 0.950 . S
C2324 C2323 1.334 . S
C2324 C2325 1.287 . S
C2325 C2324 1.287 . S
C2325 C2326 1.524 . S
C2325 H2328 0.999 . S
C2326 H2296 0.950 . S
C2326 C2325 1.524 . S
C2326 C2327 1.415 . S
C2327 H2297 0.950 . S
C2327 C2322 1.363 . S
C2327 C2326 1.415 . S
H2328 C2325 0.999 . S
H2329 C2310 0.913 . S
H2330 C2348 0.951 . S
H2331 C2350 0.951 . S
H2332 C2352 0.950 . S
H2333 C2353 0.950 1_554 S
H2334 C2355 0.950 . S
H2335 C2358 0.950 . S
H2336 C2359 0.950 . S
H2337 C2361 0.950 . S
H2338 C2362 0.950 . S
H2339 C2363 0.988 . S
H2340 C2365 0.951 . S
H2341 C2367 0.950 . S
H2342 C2368 0.950 . S
H2343 C2370 0.950 . S
H2344 C2373 0.950 . S
H2345 C2374 0.950 . S
H2346 C2376 0.950 . S
H2347 C2377 0.950 . S
C2348 H2330 0.951 . S
C2348 C2349 1.341 1_456 S
C2348 C2350 1.388 . S
C2349 C2348 1.341 1_654 S
C2349 C2353 1.381 1_554 S
C2350 H2331 0.951 . S
C2350 C2348 1.388 . S
C2350 C2351 1.366 1_455 S
C2351 C2350 1.366 1_655 S
C2351 C2352 1.414 . S
C2351 C2354 1.500 1_655 S
C2352 H2332 0.950 . S
C2352 C2351 1.414 . S
C2352 C2353 1.374 . S
C2353 H2333 0.950 1_556 S
C2353 C2349 1.381 1_556 S
C2353 C2352 1.374 . S
C2354 C2351 1.500 1_455 S
C2354 C2355 1.374 1_455 S
C2354 C2356 1.388 . S
C2355 H2334 0.950 . S
C2355 C2354 1.374 1_655 S
C2355 C2371 1.377 1_655 S
C2356 C2354 1.388 . S
C2356 C2357 1.524 . S
C2356 C2370 1.377 . S
C2357 C2356 1.524 . S
C2357 C2358 1.397 1_455 S
C2357 C2362 1.363 . S
C2358 H2335 0.950 . S
C2358 C2357 1.397 1_655 S
C2358 C2359 1.334 . S
C2359 H2336 0.950 . S
C2359 C2358 1.334 . S
C2359 C2360 1.287 1_655 S
C2360 C2359 1.287 1_455 S
C2360 C2361 1.524 . S
C2360 H2379 0.913 . S
C2361 H2337 0.950 . S
C2361 C2360 1.524 . S
C2361 C2362 1.415 . S
C2362 H2338 0.950 . S
C2362 C2357 1.363 . S
C2362 C2361 1.415 . S
C2363 H2339 0.988 . S
C2363 C2364 1.319 1_655 S
C2363 C2365 1.400 . S
C2364 C2363 1.319 1_455 S
C2364 C2368 1.385 . S
C2365 H2340 0.951 . S
C2365 C2363 1.400 . S
C2365 C2366 1.366 1_655 S
C2366 C2365 1.366 1_455 S
C2366 C2367 1.414 . S
C2366 C2369 1.499 . S
C2367 H2341 0.950 . S
C2367 C2366 1.414 . S
C2367 C2368 1.374 . S
C2368 H2342 0.950 . S
C2368 C2364 1.385 . S
C2368 C2367 1.374 . S
C2369 C2366 1.499 . S
C2369 C2370 1.373 . S
C2369 C2371 1.389 . S
C2370 H2343 0.950 . S
C2370 C2356 1.377 . S
C2370 C2369 1.373 . S
C2371 C2355 1.377 1_455 S
C2371 C2369 1.389 . S
C2371 C2372 1.523 1_455 S
C2372 C2371 1.523 1_655 S
C2372 C2373 1.361 1_655 S
C2372 C2377 1.399 . S
C2373 H2344 0.950 . S
C2373 C2372 1.361 1_455 S
C2373 C2374 1.334 . S
C2374 H2345 0.950 . S
C2374 C2373 1.334 . S
C2374 C2375 1.300 . S
C2375 C2374 1.300 . S
C2375 C2376 1.510 1_455 S
C2375 H2378 0.998 1_455 S
C2376 H2346 0.950 . S
C2376 C2375 1.510 1_655 S
C2376 C2377 1.415 . S
C2377 H2347 0.950 . S
C2377 C2372 1.399 . S
C2377 C2376 1.415 . S
H2378 C2375 0.998 1_655 S
H2379 C2360 0.913 . S
H2380 C2398 0.951 . S
H2381 C2400 0.951 . S
H2382 C2402 0.950 . S
H2383 C2403 0.950 . S
H2384 C2405 0.950 . S
H2385 C2408 0.950 . S
H2386 C2409 0.950 . S
H2387 C2411 0.950 . S
H2388 C2412 0.950 . S
H2389 C2413 0.951 . S
H2390 C2415 0.951 . S
H2391 C2417 0.950 . S
H2392 C2418 0.950 . S
H2393 C2420 0.950 . S
H2394 C2423 0.950 . S
H2395 C2424 0.950 . S
H2396 C2426 0.950 . S
H2397 C2427 0.950 . S
C2398 H2380 0.951 . S
C2398 C2399 1.366 . S
C2398 C2400 1.388 . S
C2399 C2398 1.366 . S
C2399 C2403 1.385 . S
C2400 H2381 0.951 . S
C2400 C2398 1.388 . S
C2400 C2401 1.366 . S
C2401 C2400 1.366 . S
C2401 C2402 1.414 . S
C2401 C2404 1.499 . S
C2402 H2382 0.950 . S
C2402 C2401 1.414 . S
C2402 C2403 1.374 . S
C2403 H2383 0.950 . S
C2403 C2399 1.385 . S
C2403 C2402 1.374 . S
C2404 C2401 1.499 . S
C2404 C2405 1.373 . S
C2404 C2406 1.389 . S
C2405 H2384 0.950 . S
C2405 C2404 1.373 . S
C2405 C2421 1.377 . S
C2406 C2404 1.389 . S
C2406 C2407 1.524 . S
C2406 C2420 1.377 . S
C2407 C2406 1.524 . S
C2407 C2408 1.397 . S
C2407 C2412 1.363 . S
C2408 H2385 0.950 . S
C2408 C2407 1.397 . S
C2408 C2409 1.334 . S
C2409 H2386 0.950 . S
C2409 C2408 1.334 . S
C2409 C2410 1.287 . S
C2410 C2409 1.287 . S
C2410 C2411 1.524 . S
C2410 H2429 0.913 . S
C2411 H2387 0.950 . S
C2411 C2410 1.524 . S
C2411 C2412 1.415 . S
C2412 H2388 0.950 . S
C2412 C2407 1.363 . S
C2412 C2411 1.415 . S
C2413 H2389 0.951 . S
C2413 C2414 1.366 . S
C2413 C2415 1.388 . S
C2414 C2413 1.366 . S
C2414 C2418 1.385 . S
C2415 H2390 0.951 . S
C2415 C2413 1.388 . S
C2415 C2416 1.366 . S
C2416 C2415 1.366 . S
C2416 C2417 1.414 . S
C2416 C2419 1.499 . S
C2417 H2391 0.950 . S
C2417 C2416 1.414 . S
C2417 C2418 1.374 . S
C2418 H2392 0.950 . S
C2418 C2414 1.385 . S
C2418 C2417 1.374 . S
C2419 C2416 1.499 . S
C2419 C2420 1.373 . S
C2419 C2421 1.389 . S
C2420 H2393 0.950 . S
C2420 C2406 1.377 . S
C2420 C2419 1.373 . S
C2421 C2405 1.377 . S
C2421 C2419 1.389 . S
C2421 C2422 1.524 . S
C2422 C2421 1.524 . S
C2422 C2423 1.397 . S
C2422 C2427 1.363 . S
C2423 H2394 0.950 . S
C2423 C2422 1.397 . S
C2423 C2424 1.334 . S
C2424 H2395 0.950 . S
C2424 C2423 1.334 . S
C2424 C2425 1.287 . S
C2425 C2424 1.287 . S
C2425 C2426 1.524 . S
C2425 H2428 0.999 . S
C2426 H2396 0.950 . S
C2426 C2425 1.524 . S
C2426 C2427 1.415 . S
C2427 H2397 0.950 . S
C2427 C2422 1.363 . S
C2427 C2426 1.415 . S
H2428 C2425 0.999 . S
H2429 C2410 0.913 . S
H2430 C2448 0.951 . S
H2431 C2450 0.951 . S
H2432 C2452 0.950 . S
H2433 C2453 0.950 . S
H2434 C2455 0.950 . S
H2435 C2458 0.950 . S
H2436 C2459 0.950 . S
H2437 C2461 0.950 . S
H2438 C2462 0.950 . S
H2439 C2463 0.916 1_655 S
H2440 C2465 0.992 . S
H2441 C2467 0.950 . S
H2442 C2468 0.950 . S
H2443 C2470 0.950 . S
H2444 C2473 0.950 . S
H2445 C2474 0.950 . S
H2446 C2476 0.950 . S
H2447 C2477 0.950 . S
C2448 H2430 0.951 . S
C2448 C2449 1.366 . S
C2448 C2450 1.388 . S
C2449 C2448 1.366 . S
C2449 C2453 1.385 . S
C2450 H2431 0.951 . S
C2450 C2448 1.388 . S
C2450 C2451 1.366 . S
C2451 C2450 1.366 . S
C2451 C2452 1.414 . S
C2451 C2454 1.499 . S
C2452 H2432 0.950 . S
C2452 C2451 1.414 . S
C2452 C2453 1.374 . S
C2453 H2433 0.950 . S
C2453 C2449 1.385 . S
C2453 C2452 1.374 . S
C2454 C2451 1.499 . S
C2454 C2455 1.373 . S
C2454 C2456 1.389 . S
C2455 H2434 0.950 . S
C2455 C2454 1.373 . S
C2455 C2471 1.377 . S
C2456 C2454 1.389 . S
C2456 C2457 1.524 . S
C2456 C2470 1.377 . S
C2457 C2456 1.524 . S
C2457 C2458 1.397 . S
C2457 C2462 1.363 . S
C2458 H2435 0.950 . S
C2458 C2457 1.397 . S
C2458 C2459 1.334 1_556 S
C2459 H2436 0.950 . S
C2459 C2458 1.334 1_554 S
C2459 C2460 1.287 . S
C2460 C2459 1.287 . S
C2460 C2461 1.524 . S
C2460 H2479 0.913 . S
C2461 H2437 0.950 . S
C2461 C2460 1.524 . S
C2461 C2462 1.415 1_554 S
C2462 H2438 0.950 . S
C2462 C2457 1.363 . S
C2462 C2461 1.415 1_556 S
C2463 H2439 0.916 1_455 S
C2463 C2464 1.366 . S
C2463 C2465 1.388 . S
C2464 C2463 1.366 . S
C2464 C2468 1.385 . S
C2465 H2440 0.992 . S
C2465 C2463 1.388 . S
C2465 C2466 1.366 . S
C2466 C2465 1.366 . S
C2466 C2467 1.414 . S
C2466 C2469 1.499 . S
C2467 H2441 0.950 . S
C2467 C2466 1.414 . S
C2467 C2468 1.374 . S
C2468 H2442 0.950 . S
C2468 C2464 1.385 . S
C2468 C2467 1.374 . S
C2469 C2466 1.499 . S
C2469 C2470 1.373 . S
C2469 C2471 1.389 . S
C2470 H2443 0.950 . S
C2470 C2456 1.377 . S
C2470 C2469 1.373 . S
C2471 C2455 1.377 . S
C2471 C2469 1.389 . S
C2471 C2472 1.524 . S
C2472 C2471 1.524 . S
C2472 C2473 1.397 . S
C2472 C2477 1.363 1_455 S
C2473 H2444 0.950 . S
C2473 C2472 1.397 . S
C2473 C2474 1.334 . S
C2474 H2445 0.950 . S
C2474 C2473 1.334 . S
C2474 C2475 1.287 1_455 S
C2475 C2474 1.287 1_655 S
C2475 C2476 1.524 . S
C2475 H2478 0.999 . S
C2476 H2446 0.950 . S
C2476 C2475 1.524 . S
C2476 C2477 1.415 . S
C2477 H2447 0.950 . S
C2477 C2472 1.363 1_655 S
C2477 C2476 1.415 . S
H2478 C2475 0.999 . S
H2479 C2460 0.913 . S
H2480 C2498 0.951 . S
H2481 C2500 0.951 . S
H2482 C2502 0.950 . S
H2483 C2503 0.950 . S
H2484 C2505 0.950 . S
H2485 C2508 0.950 . S
H2486 C2509 0.950 . S
H2487 C2511 0.950 . S
H2488 C2512 0.950 . S
H2489 C2513 0.951 . S
H2490 C2515 0.951 . S
H2491 C2517 0.950 . S
H2492 C2518 0.950 . S
H2493 C2520 0.950 . S
H2494 C2523 0.950 . S
H2495 C2524 0.950 . S
H2496 C2526 0.950 . S
H2497 C2527 0.950 . S
C2498 H2480 0.951 . S
C2498 C2499 1.366 . S
C2498 C2500 1.388 . S
C2499 C2498 1.366 . S
C2499 C2503 1.385 . S
C2500 H2481 0.951 . S
C2500 C2498 1.388 . S
C2500 C2501 1.366 . S
C2501 C2500 1.366 . S
C2501 C2502 1.414 . S
C2501 C2504 1.499 . S
C2502 H2482 0.950 . S
C2502 C2501 1.414 . S
C2502 C2503 1.374 . S
C2503 H2483 0.950 . S
C2503 C2499 1.385 . S
C2503 C2502 1.374 . S
C2504 C2501 1.499 . S
C2504 C2505 1.373 . S
C2504 C2506 1.389 . S
C2505 H2484 0.950 . S
C2505 C2504 1.373 . S
C2505 C2521 1.377 . S
C2506 C2504 1.389 . S
C2506 C2507 1.524 . S
C2506 C2520 1.377 . S
C2507 C2506 1.524 . S
C2507 C2508 1.397 . S
C2507 C2512 1.363 . S
C2508 H2485 0.950 . S
C2508 C2507 1.397 . S
C2508 C2509 1.334 . S
C2509 H2486 0.950 . S
C2509 C2508 1.334 . S
C2509 C2510 1.287 . S
C2510 C2509 1.287 . S
C2510 C2511 1.524 . S
C2510 H2529 0.913 . S
C2511 H2487 0.950 . S
C2511 C2510 1.524 . S
C2511 C2512 1.415 . S
C2512 H2488 0.950 . S
C2512 C2507 1.363 . S
C2512 C2511 1.415 . S
C2513 H2489 0.951 . S
C2513 C2514 1.366 . S
C2513 C2515 1.388 . S
C2514 C2513 1.366 . S
C2514 C2518 1.385 . S
C2515 H2490 0.951 . S
C2515 C2513 1.388 . S
C2515 C2516 1.366 . S
C2516 C2515 1.366 . S
C2516 C2517 1.414 . S
C2516 C2519 1.499 . S
C2517 H2491 0.950 . S
C2517 C2516 1.414 . S
C2517 C2518 1.374 . S
C2518 H2492 0.950 . S
C2518 C2514 1.385 . S
C2518 C2517 1.374 . S
C2519 C2516 1.499 . S
C2519 C2520 1.373 . S
C2519 C2521 1.389 . S
C2520 H2493 0.950 . S
C2520 C2506 1.377 . S
C2520 C2519 1.373 . S
C2521 C2505 1.377 . S
C2521 C2519 1.389 . S
C2521 C2522 1.524 . S
C2522 C2521 1.524 . S
C2522 C2523 1.397 . S
C2522 C2527 1.363 . S
C2523 H2494 0.950 . S
C2523 C2522 1.397 . S
C2523 C2524 1.334 . S
C2524 H2495 0.950 . S
C2524 C2523 1.334 . S
C2524 C2525 1.287 . S
C2525 C2524 1.287 . S
C2525 C2526 1.524 . S
C2525 H2528 0.999 . S
C2526 H2496 0.950 . S
C2526 C2525 1.524 . S
C2526 C2527 1.415 . S
C2527 H2497 0.950 . S
C2527 C2522 1.363 . S
C2527 C2526 1.415 . S
H2528 C2525 0.999 . S
H2529 C2510 0.913 . S
H2530 C2548 0.951 . S
H2531 C2550 0.951 . S
H2532 C2552 0.950 . S
H2533 C2553 0.950 . S
H2534 C2555 0.950 . S
H2535 C2558 0.950 . S
H2536 C2559 0.950 . S
H2537 C2561 0.950 . S
H2538 C2562 0.950 . S
H2539 C2563 0.951 . S
H2540 C2565 0.951 . S
H2541 C2567 0.950 . S
H2542 C2568 0.950 . S
H2543 C2570 0.950 . S
H2544 C2573 0.950 . S
H2545 C2574 0.950 . S
H2546 C2576 0.950 . S
H2547 C2577 0.950 . S
C2548 H2530 0.951 . S
C2548 C2549 1.366 . S
C2548 C2550 1.388 . S
C2549 C2548 1.366 . S
C2549 C2553 1.385 . S
C2550 H2531 0.951 . S
C2550 C2548 1.388 . S
C2550 C2551 1.366 . S
C2551 C2550 1.366 . S
C2551 C2552 1.414 . S
C2551 C2554 1.499 . S
C2552 H2532 0.950 . S
C2552 C2551 1.414 . S
C2552 C2553 1.374 . S
C2553 H2533 0.950 . S
C2553 C2549 1.385 . S
C2553 C2552 1.374 . S
C2554 C2551 1.499 . S
C2554 C2555 1.373 . S
C2554 C2556 1.389 . S
C2555 H2534 0.950 . S
C2555 C2554 1.373 . S
C2555 C2571 1.377 . S
C2556 C2554 1.389 . S
C2556 C2557 1.524 . S
C2556 C2570 1.377 . S
C2557 C2556 1.524 . S
C2557 C2558 1.397 . S
C2557 C2562 1.363 . S
C2558 H2535 0.950 . S
C2558 C2557 1.397 . S
C2558 C2559 1.334 1_554 S
C2559 H2536 0.950 . S
C2559 C2558 1.334 1_556 S
C2559 C2560 1.287 . S
C2560 C2559 1.287 . S
C2560 C2561 1.524 . S
C2560 H2579 0.913 . S
C2561 H2537 0.950 . S
C2561 C2560 1.524 . S
C2561 C2562 1.415 1_556 S
C2562 H2538 0.950 . S
C2562 C2557 1.363 . S
C2562 C2561 1.415 1_554 S
C2563 H2539 0.951 . S
C2563 C2564 1.366 . S
C2563 C2565 1.388 . S
C2564 C2563 1.366 . S
C2564 C2568 1.385 . S
C2565 H2540 0.951 . S
C2565 C2563 1.388 . S
C2565 C2566 1.366 . S
C2566 C2565 1.366 . S
C2566 C2567 1.414 . S
C2566 C2569 1.499 . S
C2567 H2541 0.950 . S
C2567 C2566 1.414 . S
C2567 C2568 1.374 . S
C2568 H2542 0.950 . S
C2568 C2564 1.385 . S
C2568 C2567 1.374 . S
C2569 C2566 1.499 . S
C2569 C2570 1.373 . S
C2569 C2571 1.389 . S
C2570 H2543 0.950 . S
C2570 C2556 1.377 . S
C2570 C2569 1.373 . S
C2571 C2555 1.377 . S
C2571 C2569 1.389 . S
C2571 C2572 1.524 . S
C2572 C2571 1.524 . S
C2572 C2573 1.397 . S
C2572 C2577 1.363 . S
C2573 H2544 0.950 . S
C2573 C2572 1.397 . S
C2573 C2574 1.334 . S
C2574 H2545 0.950 . S
C2574 C2573 1.334 . S
C2574 C2575 1.287 . S
C2575 C2574 1.287 . S
C2575 C2576 1.524 . S
C2575 H2578 0.999 . S
C2576 H2546 0.950 . S
C2576 C2575 1.524 . S
C2576 C2577 1.415 . S
C2577 H2547 0.950 . S
C2577 C2572 1.363 . S
C2577 C2576 1.415 . S
H2578 C2575 0.999 . S
H2579 C2560 0.913 . S
H2580 C2598 0.951 . S
H2581 C2600 0.951 . S
H2582 C2602 0.950 . S
H2583 C2603 0.950 . S
H2584 C2605 0.950 . S
H2585 C2608 0.950 . S
H2586 C2609 0.950 . S
H2587 C2611 0.950 . S
H2588 C2612 0.950 . S
H2589 C2613 0.951 . S
H2590 C2615 0.951 . S
H2591 C2617 0.950 . S
H2592 C2618 0.950 . S
H2593 C2620 0.950 . S
H2594 C2623 0.950 . S
H2595 C2624 0.950 . S
H2596 C2626 0.950 . S
H2597 C2627 0.950 . S
C2598 H2580 0.951 . S
C2598 C2599 1.366 . S
C2598 C2600 1.388 . S
C2599 C2598 1.366 . S
C2599 C2603 1.385 . S
C2600 H2581 0.951 . S
C2600 C2598 1.388 . S
C2600 C2601 1.366 . S
C2601 C2600 1.366 . S
C2601 C2602 1.414 . S
C2601 C2604 1.499 . S
C2602 H2582 0.950 . S
C2602 C2601 1.414 . S
C2602 C2603 1.374 . S
C2603 H2583 0.950 . S
C2603 C2599 1.385 . S
C2603 C2602 1.374 . S
C2604 C2601 1.499 . S
C2604 C2605 1.373 . S
C2604 C2606 1.389 . S
C2605 H2584 0.950 . S
C2605 C2604 1.373 . S
C2605 C2621 1.377 . S
C2606 C2604 1.389 . S
C2606 C2607 1.524 . S
C2606 C2620 1.377 . S
C2607 C2606 1.524 . S
C2607 C2608 1.397 . S
C2607 C2612 1.363 . S
C2608 H2585 0.950 . S
C2608 C2607 1.397 . S
C2608 C2609 1.334 . S
C2609 H2586 0.950 . S
C2609 C2608 1.334 . S
C2609 C2610 1.287 . S
C2610 C2609 1.287 . S
C2610 C2611 1.524 . S
C2610 H2629 0.913 . S
C2611 H2587 0.950 . S
C2611 C2610 1.524 . S
C2611 C2612 1.415 . S
C2612 H2588 0.950 . S
C2612 C2607 1.363 . S
C2612 C2611 1.415 . S
C2613 H2589 0.951 . S
C2613 C2614 1.366 . S
C2613 C2615 1.388 . S
C2614 C2613 1.366 . S
C2614 C2618 1.385 . S
C2615 H2590 0.951 . S
C2615 C2613 1.388 . S
C2615 C2616 1.366 . S
C2616 C2615 1.366 . S
C2616 C2617 1.414 . S
C2616 C2619 1.499 . S
C2617 H2591 0.950 . S
C2617 C2616 1.414 . S
C2617 C2618 1.374 . S
C2618 H2592 0.950 . S
C2618 C2614 1.385 . S
C2618 C2617 1.374 . S
C2619 C2616 1.499 . S
C2619 C2620 1.373 . S
C2619 C2621 1.389 . S
C2620 H2593 0.950 . S
C2620 C2606 1.377 . S
C2620 C2619 1.373 . S
C2621 C2605 1.377 . S
C2621 C2619 1.389 . S
C2621 C2622 1.524 . S
C2622 C2621 1.524 . S
C2622 C2623 1.397 . S
C2622 C2627 1.363 . S
C2623 H2594 0.950 . S
C2623 C2622 1.397 . S
C2623 C2624 1.334 . S
C2624 H2595 0.950 . S
C2624 C2623 1.334 . S
C2624 C2625 1.287 . S
C2625 C2624 1.287 . S
C2625 C2626 1.524 . S
C2625 H2628 0.999 . S
C2626 H2596 0.950 . S
C2626 C2625 1.524 . S
C2626 C2627 1.415 . S
C2627 H2597 0.950 . S
C2627 C2622 1.363 . S
C2627 C2626 1.415 . S
H2628 C2625 0.999 . S
H2629 C2610 0.913 . S
H2630 C2648 0.951 . S
H2631 C2650 0.951 . S
H2632 C2652 0.950 . S
H2633 C2653 0.950 . S
H2634 C2655 0.950 . S
H2635 C2658 0.950 . S
H2636 C2659 0.950 . S
H2637 C2661 0.950 . S
H2638 C2662 0.950 . S
H2639 C2663 0.951 . S
H2640 C2665 0.951 . S
H2641 C2667 0.950 . S
H2642 C2668 0.950 . S
H2643 C2670 0.950 . S
H2644 C2673 0.950 . S
H2645 C2674 0.950 . S
H2646 C2676 0.950 . S
H2647 C2677 0.950 . S
C2648 H2630 0.951 . S
C2648 C2649 1.366 . S
C2648 C2650 1.388 . S
C2649 C2648 1.366 . S
C2649 C2653 1.385 . S
C2650 H2631 0.951 . S
C2650 C2648 1.388 . S
C2650 C2651 1.366 . S
C2651 C2650 1.366 . S
C2651 C2652 1.414 . S
C2651 C2654 1.499 . S
C2652 H2632 0.950 . S
C2652 C2651 1.414 . S
C2652 C2653 1.374 . S
C2653 H2633 0.950 . S
C2653 C2649 1.385 . S
C2653 C2652 1.374 . S
C2654 C2651 1.499 . S
C2654 C2655 1.373 . S
C2654 C2656 1.389 . S
C2655 H2634 0.950 . S
C2655 C2654 1.373 . S
C2655 C2671 1.377 . S
C2656 C2654 1.389 . S
C2656 C2657 1.524 . S
C2656 C2670 1.377 . S
C2657 C2656 1.524 . S
C2657 C2658 1.397 . S
C2657 C2662 1.363 . S
C2658 H2635 0.950 . S
C2658 C2657 1.397 . S
C2658 C2659 1.334 . S
C2659 H2636 0.950 . S
C2659 C2658 1.334 . S
C2659 C2660 1.287 . S
C2660 C2659 1.287 . S
C2660 C2661 1.524 . S
C2660 H2679 0.913 . S
C2661 H2637 0.950 . S
C2661 C2660 1.524 . S
C2661 C2662 1.415 . S
C2662 H2638 0.950 . S
C2662 C2657 1.363 . S
C2662 C2661 1.415 . S
C2663 H2639 0.951 . S
C2663 C2664 1.366 . S
C2663 C2665 1.388 . S
C2664 C2663 1.366 . S
C2664 C2668 1.385 . S
C2665 H2640 0.951 . S
C2665 C2663 1.388 . S
C2665 C2666 1.366 . S
C2666 C2665 1.366 . S
C2666 C2667 1.414 . S
C2666 C2669 1.499 . S
C2667 H2641 0.950 . S
C2667 C2666 1.414 . S
C2667 C2668 1.374 . S
C2668 H2642 0.950 . S
C2668 C2664 1.385 . S
C2668 C2667 1.374 . S
C2669 C2666 1.499 . S
C2669 C2670 1.373 . S
C2669 C2671 1.389 . S
C2670 H2643 0.950 . S
C2670 C2656 1.377 . S
C2670 C2669 1.373 . S
C2671 C2655 1.377 . S
C2671 C2669 1.389 . S
C2671 C2672 1.524 . S
C2672 C2671 1.524 . S
C2672 C2673 1.397 . S
C2672 C2677 1.363 . S
C2673 H2644 0.950 . S
C2673 C2672 1.397 . S
C2673 C2674 1.334 . S
C2674 H2645 0.950 . S
C2674 C2673 1.334 . S
C2674 C2675 1.287 . S
C2675 C2674 1.287 . S
C2675 C2676 1.524 . S
C2675 H2678 0.999 . S
C2676 H2646 0.950 . S
C2676 C2675 1.524 . S
C2676 C2677 1.415 . S
C2677 H2647 0.950 . S
C2677 C2672 1.363 . S
C2677 C2676 1.415 . S
H2678 C2675 0.999 . S
H2679 C2660 0.913 . S
H2680 C2698 0.951 . S
H2681 C2700 0.951 . S
H2682 C2702 0.950 . S
H2683 C2703 0.950 . S
H2684 C2705 0.950 . S
H2685 C2708 0.950 . S
H2686 C2709 0.950 . S
H2687 C2711 0.950 . S
H2688 C2712 0.950 . S
H2689 C2713 0.951 . S
H2690 C2715 0.951 . S
H2691 C2717 0.950 . S
H2692 C2718 0.950 . S
H2693 C2720 0.950 . S
H2694 C2723 0.950 . S
H2695 C2724 0.950 . S
H2696 C2726 0.950 . S
H2697 C2727 0.950 . S
C2698 H2680 0.951 . S
C2698 C2699 1.366 . S
C2698 C2700 1.388 . S
C2699 C2698 1.366 . S
C2699 C2703 1.385 . S
C2700 H2681 0.951 . S
C2700 C2698 1.388 . S
C2700 C2701 1.366 . S
C2701 C2700 1.366 . S
C2701 C2702 1.414 . S
C2701 C2704 1.499 . S
C2702 H2682 0.950 . S
C2702 C2701 1.414 . S
C2702 C2703 1.374 . S
C2703 H2683 0.950 . S
C2703 C2699 1.385 . S
C2703 C2702 1.374 . S
C2704 C2701 1.499 . S
C2704 C2705 1.373 . S
C2704 C2706 1.389 . S
C2705 H2684 0.950 . S
C2705 C2704 1.373 . S
C2705 C2721 1.377 . S
C2706 C2704 1.389 . S
C2706 C2707 1.524 . S
C2706 C2720 1.377 . S
C2707 C2706 1.524 . S
C2707 C2708 1.397 . S
C2707 C2712 1.363 . S
C2708 H2685 0.950 . S
C2708 C2707 1.397 . S
C2708 C2709 1.334 . S
C2709 H2686 0.950 . S
C2709 C2708 1.334 . S
C2709 C2710 1.287 . S
C2710 C2709 1.287 . S
C2710 C2711 1.524 . S
C2710 H2729 0.913 . S
C2711 H2687 0.950 . S
C2711 C2710 1.524 . S
C2711 C2712 1.415 . S
C2712 H2688 0.950 . S
C2712 C2707 1.363 . S
C2712 C2711 1.415 . S
C2713 H2689 0.951 . S
C2713 C2714 1.366 . S
C2713 C2715 1.388 . S
C2714 C2713 1.366 . S
C2714 C2718 1.385 . S
C2715 H2690 0.951 . S
C2715 C2713 1.388 . S
C2715 C2716 1.366 . S
C2716 C2715 1.366 . S
C2716 C2717 1.414 . S
C2716 C2719 1.499 . S
C2717 H2691 0.950 . S
C2717 C2716 1.414 . S
C2717 C2718 1.374 . S
C2718 H2692 0.950 . S
C2718 C2714 1.385 . S
C2718 C2717 1.374 . S
C2719 C2716 1.499 . S
C2719 C2720 1.373 . S
C2719 C2721 1.389 . S
C2720 H2693 0.950 . S
C2720 C2706 1.377 . S
C2720 C2719 1.373 . S
C2721 C2705 1.377 . S
C2721 C2719 1.389 . S
C2721 C2722 1.524 . S
C2722 C2721 1.524 . S
C2722 C2723 1.397 . S
C2722 C2727 1.363 . S
C2723 H2694 0.950 . S
C2723 C2722 1.397 . S
C2723 C2724 1.334 . S
C2724 H2695 0.950 . S
C2724 C2723 1.334 . S
C2724 C2725 1.287 . S
C2725 C2724 1.287 . S
C2725 C2726 1.524 . S
C2725 H2728 0.999 . S
C2726 H2696 0.950 . S
C2726 C2725 1.524 . S
C2726 C2727 1.415 . S
C2727 H2697 0.950 . S
C2727 C2722 1.363 . S
C2727 C2726 1.415 . S
H2728 C2725 0.999 . S
H2729 C2710 0.913 . S
H2730 C2748 0.951 . S
H2731 C2750 0.951 . S
H2732 C2752 0.950 . S
H2733 C2753 0.950 . S
H2734 C2755 0.950 . S
H2735 C2758 0.950 . S
H2736 C2759 0.950 . S
H2737 C2761 0.950 . S
H2738 C2762 0.950 . S
H2739 C2763 0.951 . S
H2740 C2765 0.951 . S
H2741 C2767 0.950 . S
H2742 C2768 0.950 . S
H2743 C2770 0.950 . S
H2744 C2773 0.950 . S
H2745 C2774 0.950 . S
H2746 C2776 0.950 . S
H2747 C2777 0.950 . S
C2748 H2730 0.951 . S
C2748 C2749 1.366 . S
C2748 C2750 1.388 . S
C2749 C2748 1.366 . S
C2749 C2753 1.385 . S
C2750 H2731 0.951 . S
C2750 C2748 1.388 . S
C2750 C2751 1.366 . S
C2751 C2750 1.366 . S
C2751 C2752 1.414 . S
C2751 C2754 1.499 . S
C2752 H2732 0.950 . S
C2752 C2751 1.414 . S
C2752 C2753 1.374 . S
C2753 H2733 0.950 . S
C2753 C2749 1.385 . S
C2753 C2752 1.374 . S
C2754 C2751 1.499 . S
C2754 C2755 1.373 . S
C2754 C2756 1.389 . S
C2755 H2734 0.950 . S
C2755 C2754 1.373 . S
C2755 C2771 1.377 . S
C2756 C2754 1.389 . S
C2756 C2757 1.524 . S
C2756 C2770 1.377 . S
C2757 C2756 1.524 . S
C2757 C2758 1.397 . S
C2757 C2762 1.363 . S
C2758 H2735 0.950 . S
C2758 C2757 1.397 . S
C2758 C2759 1.334 . S
C2759 H2736 0.950 . S
C2759 C2758 1.334 . S
C2759 C2760 1.287 . S
C2760 C2759 1.287 . S
C2760 C2761 1.524 . S
C2760 H2779 0.913 . S
C2761 H2737 0.950 . S
C2761 C2760 1.524 . S
C2761 C2762 1.415 . S
C2762 H2738 0.950 . S
C2762 C2757 1.363 . S
C2762 C2761 1.415 . S
C2763 H2739 0.951 . S
C2763 C2764 1.366 . S
C2763 C2765 1.388 . S
C2764 C2763 1.366 . S
C2764 C2768 1.385 . S
C2765 H2740 0.951 . S
C2765 C2763 1.388 . S
C2765 C2766 1.366 . S
C2766 C2765 1.366 . S
C2766 C2767 1.414 . S
C2766 C2769 1.499 . S
C2767 H2741 0.950 . S
C2767 C2766 1.414 . S
C2767 C2768 1.374 . S
C2768 H2742 0.950 . S
C2768 C2764 1.385 . S
C2768 C2767 1.374 . S
C2769 C2766 1.499 . S
C2769 C2770 1.373 . S
C2769 C2771 1.389 . S
C2770 H2743 0.950 . S
C2770 C2756 1.377 . S
C2770 C2769 1.373 . S
C2771 C2755 1.377 . S
C2771 C2769 1.389 . S
C2771 C2772 1.524 . S
C2772 C2771 1.524 . S
C2772 C2773 1.397 . S
C2772 C2777 1.363 . S
C2773 H2744 0.950 . S
C2773 C2772 1.397 . S
C2773 C2774 1.334 . S
C2774 H2745 0.950 . S
C2774 C2773 1.334 . S
C2774 C2775 1.287 . S
C2775 C2774 1.287 . S
C2775 C2776 1.524 . S
C2775 H2778 0.999 . S
C2776 H2746 0.950 . S
C2776 C2775 1.524 . S
C2776 C2777 1.415 . S
C2777 H2747 0.950 . S
C2777 C2772 1.363 . S
C2777 C2776 1.415 . S
H2778 C2775 0.999 . S
H2779 C2760 0.913 . S
H2780 C2798 0.951 . S
H2781 C2800 0.951 . S
H2782 C2802 0.950 . S
H2783 C2803 0.950 . S
H2784 C2805 0.950 . S
H2785 C2808 0.950 . S
H2786 C2809 0.950 . S
H2787 C2811 0.950 . S
H2788 C2812 0.950 . S
H2789 C2813 0.951 . S
H2790 C2815 0.951 . S
H2791 C2817 0.950 . S
H2792 C2818 0.950 . S
H2793 C2820 0.950 . S
H2794 C2823 0.950 . S
H2795 C2824 0.950 . S
H2796 C2826 0.950 . S
H2797 C2827 0.950 . S
C2798 H2780 0.951 . S
C2798 C2799 1.366 . S
C2798 C2800 1.388 . S
C2799 C2798 1.366 . S
C2799 C2803 1.385 . S
C2800 H2781 0.951 . S
C2800 C2798 1.388 . S
C2800 C2801 1.366 . S
C2801 C2800 1.366 . S
C2801 C2802 1.414 . S
C2801 C2804 1.499 . S
C2802 H2782 0.950 . S
C2802 C2801 1.414 . S
C2802 C2803 1.374 . S
C2803 H2783 0.950 . S
C2803 C2799 1.385 . S
C2803 C2802 1.374 . S
C2804 C2801 1.499 . S
C2804 C2805 1.373 . S
C2804 C2806 1.389 . S
C2805 H2784 0.950 . S
C2805 C2804 1.373 . S
C2805 C2821 1.377 . S
C2806 C2804 1.389 . S
C2806 C2807 1.524 . S
C2806 C2820 1.377 . S
C2807 C2806 1.524 . S
C2807 C2808 1.397 . S
C2807 C2812 1.363 . S
C2808 H2785 0.950 . S
C2808 C2807 1.397 . S
C2808 C2809 1.334 . S
C2809 H2786 0.950 . S
C2809 C2808 1.334 . S
C2809 C2810 1.287 . S
C2810 C2809 1.287 . S
C2810 C2811 1.524 . S
C2810 H2829 0.913 . S
C2811 H2787 0.950 . S
C2811 C2810 1.524 . S
C2811 C2812 1.415 . S
C2812 H2788 0.950 . S
C2812 C2807 1.363 . S
C2812 C2811 1.415 . S
C2813 H2789 0.951 . S
C2813 C2814 1.366 . S
C2813 C2815 1.388 . S
C2814 C2813 1.366 . S
C2814 C2818 1.385 . S
C2815 H2790 0.951 . S
C2815 C2813 1.388 . S
C2815 C2816 1.366 . S
C2816 C2815 1.366 . S
C2816 C2817 1.414 . S
C2816 C2819 1.499 . S
C2817 H2791 0.950 . S
C2817 C2816 1.414 . S
C2817 C2818 1.374 . S
C2818 H2792 0.950 . S
C2818 C2814 1.385 . S
C2818 C2817 1.374 . S
C2819 C2816 1.499 . S
C2819 C2820 1.373 . S
C2819 C2821 1.389 . S
C2820 H2793 0.950 . S
C2820 C2806 1.377 . S
C2820 C2819 1.373 . S
C2821 C2805 1.377 . S
C2821 C2819 1.389 . S
C2821 C2822 1.524 . S
C2822 C2821 1.524 . S
C2822 C2823 1.397 . S
C2822 C2827 1.363 . S
C2823 H2794 0.950 . S
C2823 C2822 1.397 . S
C2823 C2824 1.334 . S
C2824 H2795 0.950 . S
C2824 C2823 1.334 . S
C2824 C2825 1.287 . S
C2825 C2824 1.287 . S
C2825 C2826 1.524 . S
C2825 H2828 0.999 . S
C2826 H2796 0.950 . S
C2826 C2825 1.524 . S
C2826 C2827 1.415 . S
C2827 H2797 0.950 . S
C2827 C2822 1.363 . S
C2827 C2826 1.415 . S
H2828 C2825 0.999 . S
H2829 C2810 0.913 . S
H2830 C2848 0.951 . S
H2831 C2850 0.951 . S
H2832 C2852 0.950 . S
H2833 C2853 0.950 . S
H2834 C2855 0.950 . S
H2835 C2858 0.950 . S
H2836 C2859 0.950 . S
H2837 C2861 0.950 . S
H2838 C2862 0.950 . S
H2839 C2863 0.951 . S
H2840 C2865 0.951 . S
H2841 C2867 0.950 . S
H2842 C2868 0.950 . S
H2843 C2870 0.950 . S
H2844 C2873 0.950 . S
H2845 C2874 0.950 . S
H2846 C2876 0.950 . S
H2847 C2877 0.950 . S
C2848 H2830 0.951 . S
C2848 C2849 1.366 . S
C2848 C2850 1.388 . S
C2849 C2848 1.366 . S
C2849 C2853 1.385 . S
C2850 H2831 0.951 . S
C2850 C2848 1.388 . S
C2850 C2851 1.366 . S
C2851 C2850 1.366 . S
C2851 C2852 1.414 . S
C2851 C2854 1.499 . S
C2852 H2832 0.950 . S
C2852 C2851 1.414 . S
C2852 C2853 1.374 . S
C2853 H2833 0.950 . S
C2853 C2849 1.385 . S
C2853 C2852 1.374 . S
C2854 C2851 1.499 . S
C2854 C2855 1.373 . S
C2854 C2856 1.389 . S
C2855 H2834 0.950 . S
C2855 C2854 1.373 . S
C2855 C2871 1.377 . S
C2856 C2854 1.389 . S
C2856 C2857 1.524 . S
C2856 C2870 1.377 . S
C2857 C2856 1.524 . S
C2857 C2858 1.397 . S
C2857 C2862 1.363 . S
C2858 H2835 0.950 . S
C2858 C2857 1.397 . S
C2858 C2859 1.334 . S
C2859 H2836 0.950 . S
C2859 C2858 1.334 . S
C2859 C2860 1.287 . S
C2860 C2859 1.287 . S
C2860 C2861 1.524 . S
C2860 H2879 0.913 . S
C2861 H2837 0.950 . S
C2861 C2860 1.524 . S
C2861 C2862 1.415 . S
C2862 H2838 0.950 . S
C2862 C2857 1.363 . S
C2862 C2861 1.415 . S
C2863 H2839 0.951 . S
C2863 C2864 1.366 . S
C2863 C2865 1.388 . S
C2864 C2863 1.366 . S
C2864 C2868 1.385 . S
C2865 H2840 0.951 . S
C2865 C2863 1.388 . S
C2865 C2866 1.366 . S
C2866 C2865 1.366 . S
C2866 C2867 1.414 . S
C2866 C2869 1.499 . S
C2867 H2841 0.950 . S
C2867 C2866 1.414 . S
C2867 C2868 1.374 . S
C2868 H2842 0.950 . S
C2868 C2864 1.385 . S
C2868 C2867 1.374 . S
C2869 C2866 1.499 . S
C2869 C2870 1.373 . S
C2869 C2871 1.389 . S
C2870 H2843 0.950 . S
C2870 C2856 1.377 . S
C2870 C2869 1.373 . S
C2871 C2855 1.377 . S
C2871 C2869 1.389 . S
C2871 C2872 1.524 . S
C2872 C2871 1.524 . S
C2872 C2873 1.397 . S
C2872 C2877 1.363 . S
C2873 H2844 0.950 . S
C2873 C2872 1.397 . S
C2873 C2874 1.334 . S
C2874 H2845 0.950 . S
C2874 C2873 1.334 . S
C2874 C2875 1.287 . S
C2875 C2874 1.287 . S
C2875 C2876 1.524 . S
C2875 H2878 0.999 . S
C2876 H2846 0.950 . S
C2876 C2875 1.524 . S
C2876 C2877 1.415 . S
C2877 H2847 0.950 . S
C2877 C2872 1.363 . S
C2877 C2876 1.415 . S
H2878 C2875 0.999 . S
H2879 C2860 0.913 . S
H2880 C2898 0.951 . S
H2881 C2900 0.951 . S
H2882 C2902 0.950 . S
H2883 C2903 0.950 . S
H2884 C2905 0.950 . S
H2885 C2908 0.950 . S
H2886 C2909 0.950 . S
H2887 C2911 0.950 . S
H2888 C2912 0.950 . S
H2889 C2913 0.951 . S
H2890 C2915 0.951 . S
H2891 C2917 0.946 1_554 S
H2892 C2918 0.950 . S
H2893 C2920 0.950 . S
H2894 C2923 0.950 . S
H2895 C2924 0.950 . S
H2896 C2926 0.950 . S
H2897 C2927 0.950 . S
C2898 H2880 0.951 . S
C2898 C2899 1.366 . S
C2898 C2900 1.388 . S
C2899 C2898 1.366 . S
C2899 C2903 1.385 . S
C2900 H2881 0.951 . S
C2900 C2898 1.388 . S
C2900 C2901 1.366 . S
C2901 C2900 1.366 . S
C2901 C2902 1.414 . S
C2901 C2904 1.499 . S
C2902 H2882 0.950 . S
C2902 C2901 1.414 . S
C2902 C2903 1.374 . S
C2903 H2883 0.950 . S
C2903 C2899 1.385 . S
C2903 C2902 1.374 . S
C2904 C2901 1.499 . S
C2904 C2905 1.373 . S
C2904 C2906 1.389 1_556 S
C2905 H2884 0.950 . S
C2905 C2904 1.373 . S
C2905 C2921 1.377 . S
C2906 C2904 1.389 1_554 S
C2906 C2907 1.524 . S
C2906 C2920 1.377 . S
C2907 C2906 1.524 . S
C2907 C2908 1.397 . S
C2907 C2912 1.363 . S
C2908 H2885 0.950 . S
C2908 C2907 1.397 . S
C2908 C2909 1.334 . S
C2909 H2886 0.950 . S
C2909 C2908 1.334 . S
C2909 C2910 1.287 . S
C2910 C2909 1.287 . S
C2910 C2911 1.524 . S
C2910 H2929 0.913 . S
C2911 H2887 0.950 . S
C2911 C2910 1.524 . S
C2911 C2912 1.415 . S
C2912 H2888 0.950 . S
C2912 C2907 1.363 . S
C2912 C2911 1.415 . S
C2913 H2889 0.951 . S
C2913 C2914 1.362 1_556 S
C2913 C2915 1.388 . S
C2914 C2913 1.362 1_554 S
C2914 C2918 1.386 . S
C2915 H2890 0.951 . S
C2915 C2913 1.388 . S
C2915 C2916 1.366 . S
C2916 C2915 1.366 . S
C2916 C2917 1.430 . S
C2916 C2919 1.499 . S
C2917 H2891 0.946 1_556 S
C2917 C2916 1.430 . S
C2917 C2918 1.367 1_556 S
C2918 H2892 0.950 . S
C2918 C2914 1.386 . S
C2918 C2917 1.367 1_554 S
C2919 C2916 1.499 . S
C2919 C2920 1.373 1_556 S
C2919 C2921 1.389 . S
C2920 H2893 0.950 . S
C2920 C2906 1.377 . S
C2920 C2919 1.373 1_554 S
C2921 C2905 1.377 . S
C2921 C2919 1.389 . S
C2921 C2922 1.524 . S
C2922 C2921 1.524 . S
C2922 C2923 1.397 . S
C2922 C2927 1.363 . S
C2923 H2894 0.950 . S
C2923 C2922 1.397 . S
C2923 C2924 1.334 . S
C2924 H2895 0.950 . S
C2924 C2923 1.334 . S
C2924 C2925 1.287 . S
C2925 C2924 1.287 . S
C2925 C2926 1.524 . S
C2925 H2928 0.999 . S
C2926 H2896 0.950 . S
C2926 C2925 1.524 . S
C2926 C2927 1.415 . S
C2927 H2897 0.950 . S
C2927 C2922 1.363 . S
C2927 C2926 1.415 . S
H2928 C2925 0.999 . S
H2929 C2910 0.913 . S
H2930 C2948 0.951 . S
H2931 C2950 0.951 . S
H2932 C2952 0.950 . S
H2933 C2953 0.950 . S
H2934 C2955 0.950 . S
H2935 C2958 0.950 . S
H2936 C2959 0.950 . S
H2937 C2961 0.950 . S
H2938 C2962 0.950 . S
H2939 C2963 0.951 . S
H2940 C2965 0.951 . S
H2941 C2967 0.950 . S
H2942 C2968 0.950 . S
H2943 C2970 0.950 . S
H2944 C2973 0.950 . S
H2945 C2974 0.950 . S
H2946 C2976 0.950 . S
H2947 C2977 0.950 . S
C2948 H2930 0.951 . S
C2948 C2949 1.366 . S
C2948 C2950 1.388 . S
C2949 C2948 1.366 . S
C2949 C2953 1.385 . S
C2950 H2931 0.951 . S
C2950 C2948 1.388 . S
C2950 C2951 1.366 . S
C2951 C2950 1.366 . S
C2951 C2952 1.414 . S
C2951 C2954 1.499 . S
C2952 H2932 0.950 . S
C2952 C2951 1.414 . S
C2952 C2953 1.374 . S
C2953 H2933 0.950 . S
C2953 C2949 1.385 . S
C2953 C2952 1.374 . S
C2954 C2951 1.499 . S
C2954 C2955 1.373 . S
C2954 C2956 1.389 . S
C2955 H2934 0.950 . S
C2955 C2954 1.373 . S
C2955 C2971 1.377 . S
C2956 C2954 1.389 . S
C2956 C2957 1.524 . S
C2956 C2970 1.377 . S
C2957 C2956 1.524 . S
C2957 C2958 1.397 . S
C2957 C2962 1.363 . S
C2958 H2935 0.950 . S
C2958 C2957 1.397 . S
C2958 C2959 1.334 . S
C2959 H2936 0.950 . S
C2959 C2958 1.334 . S
C2959 C2960 1.287 . S
C2960 C2959 1.287 . S
C2960 C2961 1.524 . S
C2960 H2979 0.913 . S
C2961 H2937 0.950 . S
C2961 C2960 1.524 . S
C2961 C2962 1.415 . S
C2962 H2938 0.950 . S
C2962 C2957 1.363 . S
C2962 C2961 1.415 . S
C2963 H2939 0.951 . S
C2963 C2964 1.366 . S
C2963 C2965 1.388 . S
C2964 C2963 1.366 . S
C2964 C2968 1.385 . S
C2965 H2940 0.951 . S
C2965 C2963 1.388 . S
C2965 C2966 1.366 . S
C2966 C2965 1.366 . S
C2966 C2967 1.414 . S
C2966 C2969 1.499 . S
C2967 H2941 0.950 . S
C2967 C2966 1.414 . S
C2967 C2968 1.374 . S
C2968 H2942 0.950 . S
C2968 C2964 1.385 . S
C2968 C2967 1.374 . S
C2969 C2966 1.499 . S
C2969 C2970 1.373 . S
C2969 C2971 1.389 . S
C2970 H2943 0.950 . S
C2970 C2956 1.377 . S
C2970 C2969 1.373 . S
C2971 C2955 1.377 . S
C2971 C2969 1.389 . S
C2971 C2972 1.524 . S
C2972 C2971 1.524 . S
C2972 C2973 1.397 . S
C2972 C2977 1.363 . S
C2973 H2944 0.950 . S
C2973 C2972 1.397 . S
C2973 C2974 1.334 . S
C2974 H2945 0.950 . S
C2974 C2973 1.334 . S
C2974 C2975 1.287 . S
C2975 C2974 1.287 . S
C2975 C2976 1.524 . S
C2975 H2978 0.999 . S
C2976 H2946 0.950 . S
C2976 C2975 1.524 . S
C2976 C2977 1.415 . S
C2977 H2947 0.950 . S
C2977 C2972 1.363 . S
C2977 C2976 1.415 . S
H2978 C2975 0.999 . S
H2979 C2960 0.913 . S
H2980 C2998 0.951 . S
H2981 C3000 0.951 . S
H2982 C3002 0.950 . S
H2983 C3003 0.950 . S
H2984 C3005 0.950 . S
H2985 C3008 0.950 . S
H2986 C3009 0.950 . S
H2987 C3011 0.950 . S
H2988 C3012 0.950 . S
H2989 C3013 0.951 1_556 S
H2990 C3015 0.926 1_556 S
H2991 C3017 0.950 . S
H2992 C3018 0.950 . S
H2993 C3020 0.950 . S
H2994 C3023 0.950 . S
H2995 C3024 0.950 . S
H2996 C3026 0.950 . S
H2997 C3027 0.950 . S
C2998 H2980 0.951 . S
C2998 C2999 1.366 . S
C2998 C3000 1.388 . S
C2999 C2998 1.366 . S
C2999 C3003 1.385 . S
C3000 H2981 0.951 . S
C3000 C2998 1.388 . S
C3000 C3001 1.366 . S
C3001 C3000 1.366 . S
C3001 C3002 1.414 . S
C3001 C3004 1.499 . S
C3002 H2982 0.950 . S
C3002 C3001 1.414 . S
C3002 C3003 1.374 . S
C3003 H2983 0.950 . S
C3003 C2999 1.385 . S
C3003 C3002 1.374 . S
C3004 C3001 1.499 . S
C3004 C3005 1.373 . S
C3004 C3006 1.389 . S
C3005 H2984 0.950 . S
C3005 C3004 1.373 . S
C3005 C3021 1.377 . S
C3006 C3004 1.389 . S
C3006 C3007 1.524 . S
C3006 C3020 1.377 . S
C3007 C3006 1.524 . S
C3007 C3008 1.397 . S
C3007 C3012 1.363 . S
C3008 H2985 0.950 . S
C3008 C3007 1.397 . S
C3008 C3009 1.334 . S
C3009 H2986 0.950 . S
C3009 C3008 1.334 . S
C3009 C3010 1.287 . S
C3010 C3009 1.287 . S
C3010 C3011 1.524 . S
C3010 H3029 0.913 . S
C3011 H2987 0.950 . S
C3011 C3010 1.524 . S
C3011 C3012 1.415 . S
C3012 H2988 0.950 . S
C3012 C3007 1.363 . S
C3012 C3011 1.415 . S
C3013 H2989 0.951 1_554 S
C3013 C3014 1.366 . S
C3013 C3015 1.388 . S
C3014 C3013 1.366 . S
C3014 C3018 1.385 . S
C3015 H2990 0.926 1_554 S
C3015 C3013 1.388 . S
C3015 C3016 1.366 . S
C3016 C3015 1.366 . S
C3016 C3017 1.414 . S
C3016 C3019 1.499 . S
C3017 H2991 0.950 . S
C3017 C3016 1.414 . S
C3017 C3018 1.374 . S
C3018 H2992 0.950 . S
C3018 C3014 1.385 . S
C3018 C3017 1.374 . S
C3019 C3016 1.499 . S
C3019 C3020 1.373 . S
C3019 C3021 1.389 . S
C3020 H2993 0.950 . S
C3020 C3006 1.377 . S
C3020 C3019 1.373 . S
C3021 C3005 1.377 . S
C3021 C3019 1.389 . S
C3021 C3022 1.524 1_554 S
C3022 C3021 1.524 1_556 S
C3022 C3023 1.397 . S
C3022 C3027 1.363 . S
C3023 H2994 0.950 . S
C3023 C3022 1.397 . S
C3023 C3024 1.334 . S
C3024 H2995 0.950 . S
C3024 C3023 1.334 . S
C3024 C3025 1.287 . S
C3025 C3024 1.287 . S
C3025 C3026 1.524 . S
C3025 H3028 0.999 . S
C3026 H2996 0.950 . S
C3026 C3025 1.524 . S
C3026 C3027 1.415 . S
C3027 H2997 0.950 . S
C3027 C3022 1.363 . S
C3027 C3026 1.415 . S
H3028 C3025 0.999 . S
H3029 C3010 0.913 . S
H3030 C3048 0.951 1_545 S
H3031 C3050 0.951 . S
H3032 C3052 0.950 . S
H3033 C3053 0.950 . S
H3034 C3055 0.950 . S
H3035 C3058 0.950 . S
H3036 C3059 0.950 . S
H3037 C3061 0.950 . S
H3038 C3062 0.950 . S
H3039 C3063 0.951 . S
H3040 C3065 0.951 . S
H3041 C3067 0.950 . S
H3042 C3068 0.950 . S
H3043 C3070 0.950 1_556 S
H3044 C3073 0.950 . S
H3045 C3074 0.950 . S
H3046 C3076 0.950 . S
H3047 C3077 0.950 . S
C3048 H3030 0.951 1_565 S
C3048 C3049 1.366 . S
C3048 C3050 1.388 . S
C3049 C3048 1.366 . S
C3049 C3053 1.385 . S
C3050 H3031 0.951 . S
C3050 C3048 1.388 . S
C3050 C3051 1.366 . S
C3051 C3050 1.366 . S
C3051 C3052 1.414 . S
C3051 C3054 1.499 . S
C3052 H3032 0.950 . S
C3052 C3051 1.414 . S
C3052 C3053 1.374 . S
C3053 H3033 0.950 . S
C3053 C3049 1.385 . S
C3053 C3052 1.374 . S
C3054 C3051 1.499 . S
C3054 C3055 1.373 . S
C3054 C3056 1.389 . S
C3055 H3034 0.950 . S
C3055 C3054 1.373 . S
C3055 C3071 1.377 . S
C3056 C3054 1.389 . S
C3056 C3057 1.524 1_554 S
C3056 C3070 1.377 . S
C3057 C3056 1.524 1_556 S
C3057 C3058 1.397 . S
C3057 C3062 1.363 . S
C3058 H3035 0.950 . S
C3058 C3057 1.397 . S
C3058 C3059 1.334 . S
C3059 H3036 0.950 . S
C3059 C3058 1.334 . S
C3059 C3060 1.249 1_565 S
C3060 C3059 1.249 1_545 S
C3060 C3061 1.528 . S
C3060 H3079 0.961 . S
C3061 H3037 0.950 . S
C3061 C3060 1.528 . S
C3061 C3062 1.415 1_545 S
C3062 H3038 0.950 . S
C3062 C3057 1.363 . S
C3062 C3061 1.415 1_565 S
C3063 H3039 0.951 . S
C3063 C3064 1.366 . S
C3063 C3065 1.388 . S
C3064 C3063 1.366 . S
C3064 C3068 1.385 . S
C3065 H3040 0.951 . S
C3065 C3063 1.388 . S
C3065 C3066 1.366 . S
C3066 C3065 1.366 . S
C3066 C3067 1.414 . S
C3066 C3069 1.499 . S
C3067 H3041 0.950 . S
C3067 C3066 1.414 . S
C3067 C3068 1.374 . S
C3068 H3042 0.950 . S
C3068 C3064 1.385 . S
C3068 C3067 1.374 . S
C3069 C3066 1.499 . S
C3069 C3070 1.373 . S
C3069 C3071 1.389 . S
C3070 H3043 0.950 1_554 S
C3070 C3056 1.377 . S
C3070 C3069 1.373 . S
C3071 C3055 1.377 . S
C3071 C3069 1.389 . S
C3071 C3072 1.524 . S
C3072 C3071 1.524 . S
C3072 C3073 1.397 . S
C3072 C3077 1.363 . S
C3073 H3044 0.950 . S
C3073 C3072 1.397 . S
C3073 C3074 1.334 . S
C3074 H3045 0.950 . S
C3074 C3073 1.334 . S
C3074 C3075 1.287 . S
C3075 C3074 1.287 . S
C3075 C3076 1.524 . S
C3075 H3078 0.999 . S
C3076 H3046 0.950 . S
C3076 C3075 1.524 . S
C3076 C3077 1.415 . S
C3077 H3047 0.950 . S
C3077 C3072 1.363 . S
C3077 C3076 1.415 . S
H3078 C3075 0.999 . S
H3079 C3060 0.961 . S
C714 C523 1.401 . S
C699 C177 1.404 . S
C764 C531 1.305 . S
C749 C209 1.551 . S
C799 C253 1.340 . S
C814 C551 1.361 . S
C864 C565 1.521 . S
C849 C157 1.507 . S
C914 C580 1.552 . S
C899 C343 1.521 . S
C964 C594 1.498 . S
C949 C401 1.457 . S
C999 C369 1.563 . S
C1014 C608 1.592 . S
C1064 C614 1.431 . S
C1049 C317 1.448 . S
C1099 C375 1.508 . S
C1114 C628 1.500 . S
C1164 C649 1.578 . S
C1149 C305 1.583 . S
C1199 C349 1.462 . S
C1214 C629 1.264 . S
C1264 C650 1.541 . S
C1249 C413 1.490 . S
C1299 C241 1.416 . S
C1314 C657 1.202 . S
C1349 C151 1.452 . S
C1364 C663 1.465 . S
C1399 C189 1.487 . S
C1414 C656 1.468 . S
C1449 C215 1.454 . S
C1464 C664 1.470 . S
C1499 C113 1.460 . S
C1514 C558 1.446 . S
C1549 C471 1.455 . S
C1564 C559 1.241 . S
C1614 C516 1.531 . S
C1599 C509 1.551 . S
C1664 C537 1.428 . S
C1649 C279 1.414 . S
C1699 C145 1.416 . S
C1714 C572 1.406 . S
C1764 C622 1.585 . S
C1749 C381 1.547 . S
C1814 C573 1.226 . S
C1799 C311 1.442 . S
C1864 C601 1.283 . S
C1849 C407 1.495 . S
C1914 C607 1.401 . S
C1899 C465 1.405 . S
C1949 C497 1.551 . S
C1964 C615 1.305 . S
C1999 C285 1.341 . S
C2014 C579 1.361 . S
C2064 C593 1.522 . S
C2049 C445 1.506 . S
C2099 C119 1.522 . S
C2114 C552 1.552 . S
C2164 C566 1.498 . S
C2149 C17 1.458 1_655 S
C2214 C524 1.592 . S
C2199 C49 1.562 . S
C2264 C530 1.432 . S
C2249 C93 1.448 . S
C2299 C55 1.508 . S
C2314 C642 1.500 . S
C2349 C81 1.607 . S
C2364 C635 1.579 . S
C2399 C125 1.463 . S
C2414 C643 1.265 . S
C2449 C29 1.490 1_556 S
C2464 C636 1.541 . S
C2514 C671 1.201 . S
C2499 C273 1.416 . S
C2564 C677 1.465 . S
C2549 C439 1.457 . S
C2614 C670 1.468 . S
C2599 C477 1.487 . S
C2649 C503 1.454 . S
C2664 C678 1.470 . S
C2699 C337 1.459 . S
C2714 C586 1.445 . S
C2764 C587 1.240 . S
C2749 C183 1.455 . S
C2814 C600 1.532 . S
C2799 C221 1.551 . S
C2864 C621 1.428 . S
C2849 C247 1.414 . S
C2899 C433 1.416 . S
C2914 C544 1.408 . S
C2964 C538 1.586 . S
C2949 C61 1.547 . S
C2999 C87 1.441 . S
C3014 C545 1.226 . S
C3064 C517 1.283 . S
C3049 C23 1.495 1_565 S
