# Generated by pormake.
# Topology zzz, (3,6)-cn, num edge types: 1
# Building blocks:
#     Node 0, Type 0, BuildingBlock: CUQRIR_clean_linker_1, # of connection points: 3
#     Node 1, Type 0, BuildingBlock: CUQRIR_clean_linker_1, # of connection points: 3
#     Node 2, Type 0, BuildingBlock: CUQRIR_clean_linker_1, # of connection points: 3
#     Node 3, Type 0, BuildingBlock: CUQRIR_clean_linker_1, # of connection points: 3
#     Node 4, Type 0, BuildingBlock: CUQRIR_clean_linker_1, # of connection points: 3
#     Node 5, Type 0, BuildingBlock: CUQRIR_clean_linker_1, # of connection points: 3
#     Node 6, Type 0, BuildingBlock: CUQRIR_clean_linker_1, # of connection points: 3
#     Node 7, Type 0, BuildingBlock: CUQRIR_clean_linker_1, # of connection points: 3
#     Node 8, Type 1, BuildingBlock: BETGAK_clean_sbu_0, # of connection points: 6
#     Node 9, Type 1, BuildingBlock: BETGAK_clean_sbu_0, # of connection points: 6
#     Node 10, Type 1, BuildingBlock: BETGAK_clean_sbu_0, # of connection points: 6
#     Node 11, Type 1, BuildingBlock: BETGAK_clean_sbu_0, # of connection points: 6
#     Edge 12, Type (0, 1), BuildingBlock: TEMPAE_clean_linker_10, # of connection points: 2
#     Edge 13, Type (0, 1), BuildingBlock: TEMPAE_clean_linker_10, # of connection points: 2
#     Edge 14, Type (0, 1), BuildingBlock: TEMPAE_clean_linker_10, # of connection points: 2
#     Edge 15, Type (0, 1), BuildingBlock: TEMPAE_clean_linker_10, # of connection points: 2
#     Edge 16, Type (0, 1), BuildingBlock: TEMPAE_clean_linker_10, # of connection points: 2
#     Edge 17, Type (0, 1), BuildingBlock: TEMPAE_clean_linker_10, # of connection points: 2
#     Edge 18, Type (0, 1), BuildingBlock: TEMPAE_clean_linker_10, # of connection points: 2
#     Edge 19, Type (0, 1), BuildingBlock: TEMPAE_clean_linker_10, # of connection points: 2
#     Edge 20, Type (0, 1), BuildingBlock: TEMPAE_clean_linker_10, # of connection points: 2
#     Edge 21, Type (0, 1), BuildingBlock: TEMPAE_clean_linker_10, # of connection points: 2
#     Edge 22, Type (0, 1), BuildingBlock: TEMPAE_clean_linker_10, # of connection points: 2
#     Edge 23, Type (0, 1), BuildingBlock: TEMPAE_clean_linker_10, # of connection points: 2
#     Edge 24, Type (0, 1), BuildingBlock: TEMPAE_clean_linker_10, # of connection points: 2
#     Edge 25, Type (0, 1), BuildingBlock: TEMPAE_clean_linker_10, # of connection points: 2
#     Edge 26, Type (0, 1), BuildingBlock: TEMPAE_clean_linker_10, # of connection points: 2
#     Edge 27, Type (0, 1), BuildingBlock: TEMPAE_clean_linker_10, # of connection points: 2
#     Edge 28, Type (0, 1), BuildingBlock: TEMPAE_clean_linker_10, # of connection points: 2
#     Edge 29, Type (0, 1), BuildingBlock: TEMPAE_clean_linker_10, # of connection points: 2
#     Edge 30, Type (0, 1), BuildingBlock: TEMPAE_clean_linker_10, # of connection points: 2
#     Edge 31, Type (0, 1), BuildingBlock: TEMPAE_clean_linker_10, # of connection points: 2
#     Edge 32, Type (0, 1), BuildingBlock: TEMPAE_clean_linker_10, # of connection points: 2
#     Edge 33, Type (0, 1), BuildingBlock: TEMPAE_clean_linker_10, # of connection points: 2
#     Edge 34, Type (0, 1), BuildingBlock: TEMPAE_clean_linker_10, # of connection points: 2
#     Edge 35, Type (0, 1), BuildingBlock: TEMPAE_clean_linker_10, # of connection points: 2
# Relax obj value: 0.317
# Max RMSD: 0.199
# Mean RMSD: 0.159
data_MOF--net-zzz--node1-BETGAK_clean_sbu_0--node2-CUQRIR_clean_linker_1--edge1-TEMPAE_clean_linker_10
_symmetry_space_group_name_H-M    P1
_symmetry_Int_Tables_number       1
_symmetry_cell_setting            triclinic
loop_
_symmetry_equiv_pos_as_xyz
'x, y, z'
_cell_length_a     48.592594
_cell_length_b     48.483432
_cell_length_c     12.339449
_cell_angle_alpha  89.725645
_cell_angle_beta   89.908009
_cell_angle_gamma 89.801702
loop_
_atom_site_label
_atom_site_type_symbol
_atom_site_fract_x
_atom_site_fract_y
_atom_site_fract_z
_atom_type_partial_charge
C0 C 0.76352 0.53689 0.43516 0.0
N1 N 0.78578 0.52049 0.45691 0.0
N2 N 0.74409 0.52294 0.37716 0.0
C3 C 0.7615 0.5668 0.46443 0.0
C4 C 0.75549 0.49762 0.36426 0.0
N5 N 0.78033 0.49607 0.41293 0.0
C6 C 0.74355 0.47523 0.29412 0.0
H7 H 0.77029 0.57039 0.54601 0.0
H8 H 0.73981 0.574 0.46242 0.0
H9 H 0.77364 0.57904 0.40517 0.0
H10 H 0.73457 0.48424 0.2192 0.0
H11 H 0.72685 0.4647 0.33938 0.0
H12 H 0.75908 0.45948 0.27133 0.0
C13 C 1.0293 0.76524 0.4915 0.0
N14 N 0.02955 0.79209 0.45785 0.0
N15 N 1.01965 0.74833 0.41204 0.0
C16 C 0.04082 0.75538 0.59735 0.0
C17 C 1.01382 0.76596 0.33024 0.0
N18 N 1.02072 0.79214 0.35558 0.0
C19 C 1.00331 0.75698 0.221 0.0
H20 H 0.06319 0.75985 0.59965 0.0
H21 H 0.03748 0.73291 0.60858 0.0
H22 H 0.031 0.76683 0.66484 0.0
H23 H 0.98628 0.74203 0.2318 0.0
H24 H 1.01998 0.7463 0.17599 0.0
H25 H 0.99585 0.77483 0.17253 0.0
C26 C 0.81284 1.03049 0.42319 0.0
N27 N 0.78601 0.03216 0.39131 0.0
N28 N 0.82925 1.02117 0.34101 0.0
C29 C 0.82323 0.04022 0.53061 0.0
C30 C 0.81133 1.01714 0.25907 0.0
N31 N 0.78549 1.02457 0.28765 0.0
C32 C 0.81971 1.0082 0.14665 0.0
H33 H 0.81881 0.06258 0.53881 0.0
H34 H 0.84568 0.03652 0.53889 0.0
H35 H 0.81212 1.02936 0.59676 0.0
H36 H 0.8325 0.98926 0.15158 0.0
H37 H 0.83238 1.02455 0.10814 0.0
H38 H 0.80159 1.00384 0.09499 0.0
C39 C 0.54204 0.8149 0.39627 0.0
N40 N 0.52919 0.79001 0.40736 0.0
N41 N 0.53081 0.82993 0.31304 0.0
C42 C 0.56454 0.82492 0.46885 0.0
C43 C 0.51115 0.81298 0.2734 0.0
N44 N 0.50993 0.78937 0.33118 0.0
C45 C 0.49491 0.81815 0.17112 0.0
H46 H 0.56382 0.84773 0.4758 0.0
H47 H 0.58468 0.819 0.43327 0.0
H48 H 0.56288 0.81534 0.55044 0.0
H49 H 0.50635 0.8317 0.11415 0.0
H50 H 0.47511 0.82824 0.19237 0.0
H51 H 0.49016 0.79853 0.12934 0.0
C52 C 0.31035 0.52144 0.16275 0.0
N53 N 0.28659 0.50676 0.15144 0.0
N54 N 0.32979 0.50657 0.21718 0.0
C55 C 0.31416 0.55075 0.12657 0.0
C56 C 0.31706 0.48233 0.23693 0.0
N57 N 0.29059 0.48261 0.20225 0.0
C58 C 0.3305 0.45834 0.29438 0.0
H59 H 0.33624 0.55516 0.1117 0.0
H60 H 0.30674 0.5647 0.19146 0.0
H61 H 0.30215 0.55502 0.05193 0.0
H62 H 0.33155 0.46236 0.38265 0.0
H63 H 0.35195 0.4558 0.26484 0.0
H64 H 0.31886 0.43901 0.28079 0.0
C65 C 0.03201 0.3154 0.19116 0.0
N66 N 1.01814 0.29116 0.17787 0.0
N67 N 1.02083 0.33068 0.27359 0.0
C68 C 0.05542 0.32466 0.12075 0.0
C69 C 1.00012 0.31442 0.31061 0.0
N70 N 0.99818 0.29119 0.25158 0.0
C71 C 0.98394 0.31931 0.41339 0.0
H72 H 0.07507 0.31802 0.15854 0.0
H73 H 0.05553 0.34747 0.11296 0.0
H74 H 0.05405 0.31519 0.03924 0.0
H75 H 0.96454 0.3303 0.39326 0.0
H76 H 0.99583 0.33177 0.47204 0.0
H77 H 0.97839 0.29952 0.45313 0.0
C78 C 0.26122 0.03824 0.11602 0.0
N79 N 0.28489 1.02304 0.10799 0.0
N80 N 0.24411 1.02762 0.19392 0.0
C81 C 0.25438 0.06263 0.04596 0.0
C82 C 0.25854 1.00592 0.23397 0.0
N83 N 0.28265 1.00292 0.18109 0.0
C84 C 0.25067 0.98964 0.33395 0.0
H85 H 0.26211 0.08157 0.0856 0.0
H86 H 0.23177 0.06466 0.0358 0.0
H87 H 0.26444 0.06078 0.96551 0.0
H88 H 0.23879 0.97122 0.30927 0.0
H89 H 0.23787 1.00217 0.3898 0.0
H90 H 0.26914 0.98245 0.3788 0.0
C91 C 0.52293 0.26182 0.04945 0.0
N92 N 0.52243 0.28948 0.06951 0.0
N93 N 0.51998 0.24702 0.14344 0.0
C94 C 0.5262 0.24944 0.93928 0.0
C95 C 0.51793 0.2666 0.22055 0.0
N96 N 0.51923 0.29199 0.17605 0.0
C97 C 0.51604 0.26083 0.34055 0.0
H98 H 0.52132 0.2271 0.94043 0.0
H99 H 0.54778 0.25228 0.91199 0.0
H100 H 0.51268 0.26039 0.88066 0.0
H101 H 0.52608 0.27734 0.38806 0.0
H102 H 0.52566 0.24076 0.3619 0.0
H103 H 0.49402 0.26004 0.36414 0.0
La104 La 0.05732 0.04251 0.87253 0.0
La105 La 1.02138 0.0517 0.67983 0.0
C106 C 0.08193 1.02862 0.04309 0.0
C107 C 0.10014 1.00525 0.06286 0.0
C108 C 0.11255 0.9921 0.97403 0.0
C109 C 0.11961 0.96433 0.98141 0.0
C110 C 0.11427 0.94983 0.07753 0.0
C111 C 0.10641 0.96423 0.17109 0.0
C112 C 0.09894 0.9919 0.16331 0.0
C113 C 0.08386 0.05752 0.69161 0.0
C114 C 0.04133 0.98994 0.72769 0.0
C115 C 1.00473 0.06321 0.49282 0.0
C116 C 0.98213 0.08023 0.45121 0.0
C117 C 0.95724 0.08283 0.50858 0.0
C118 C 0.93741 0.10196 0.47516 0.0
C119 C 0.9423 0.11876 0.38425 0.0
C120 C 0.96646 0.11456 0.32299 0.0
C121 C 0.98623 0.09557 0.35657 0.0
C122 C 0.98831 0.04628 0.85202 0.0
C123 C 0.03369 0.10166 0.8391 0.0
O124 O 0.09123 0.04721 0.97567 0.0
O125 O 0.05654 1.0216 0.0214 0.0
O126 O 0.08972 0.06549 0.78857 0.0
O127 O 0.06386 0.04107 0.69931 0.0
O128 O 0.05438 0.99916 0.81515 0.0
O129 O 1.02817 1.00715 0.66182 0.0
O130 O 0.99754 0.04089 0.54571 0.0
O131 O 1.02449 0.07676 0.54135 0.0
O132 O 0.98025 0.05076 0.75389 0.0
O133 O 1.01428 0.04542 0.84965 0.0
O134 O 0.02941 0.09444 0.73666 0.0
O135 O 0.04013 0.08278 0.91232 0.0
H136 H 0.11347 1.00215 0.89545 0.0
H137 H 0.12543 0.95341 0.9084 0.0
H138 H 0.102 0.95323 0.24579 0.0
H139 H 0.08923 1.00178 0.23213 0.0
H140 H 0.95356 0.07096 0.58162 0.0
H141 H 0.91896 0.10461 0.52341 0.0
H142 H 0.9711 0.12727 0.25303 0.0
H143 H 1.00524 0.0937 0.31109 0.0
La144 La 0.536 0.05683 0.81083 0.0
La145 La 0.52966 1.02039 0.63602 0.0
C146 C 0.54906 0.08423 0.97553 0.0
C147 C 0.57178 0.10325 0.99238 0.0
C148 C 0.58512 0.11467 0.90175 0.0
C149 C 0.6125 0.1227 0.90976 0.0
C150 C 0.62646 0.11913 0.00814 0.0
C151 C 0.61159 0.11265 0.10241 0.0
C152 C 0.58436 0.10416 0.09413 0.0
C153 C 0.52163 0.08269 0.62722 0.0
C154 C 0.58926 0.04274 0.66704 0.0
C155 C 0.51645 0.99537 0.46523 0.0
C156 C 0.49535 0.97582 0.43038 0.0
C157 C 0.48907 0.95199 0.49086 0.0
C158 C 0.4675 0.93487 0.45889 0.0
C159 C 0.4519 0.94148 0.36658 0.0
C160 C 0.45906 0.96483 0.30448 0.0
C161 C 0.48068 0.98168 0.33571 0.0
C162 C 0.54482 0.99386 0.81671 0.0
C163 C 0.47713 0.03348 0.78525 0.0
O164 O 0.53052 0.09223 0.9058 0.0
O165 O 0.55681 0.05871 0.95922 0.0
O166 O 0.51229 0.08811 0.72268 0.0
O167 O 0.53895 0.06338 0.63685 0.0
O168 O 0.58002 0.05186 0.76174 0.0
O169 O 0.57167 0.03282 0.59594 0.0
O170 O 0.53459 0.98625 0.53451 0.0
O171 O 0.50782 1.02018 0.48914 0.0
O172 O 0.55301 0.98837 0.71976 0.0
O173 O 0.52749 1.01337 0.81019 0.0
O174 O 0.48575 1.02615 0.68725 0.0
O175 O 0.49524 0.04213 0.85656 0.0
H176 H 0.57568 0.11405 0.82229 0.0
H177 H 0.62376 0.12761 0.83631 0.0
H178 H 0.62211 0.10969 0.17903 0.0
H179 H 0.57446 0.09516 0.16451 0.0
H180 H 0.50025 0.94701 0.56431 0.0
H181 H 0.46237 0.9171 0.50836 0.0
H182 H 0.44715 0.97091 0.23416 0.0
H183 H 0.48537 0.99985 0.28771 0.0
La184 La 0.52616 0.54661 0.86277 0.0
La185 La 0.55889 0.53736 0.65688 0.0
C186 C 0.50537 0.54753 0.04886 0.0
C187 C 0.48543 0.56633 0.09906 0.0
C188 C 0.46169 0.57487 0.04298 0.0
C189 C 0.44555 0.59642 0.08279 0.0
C190 C 0.45333 0.6103 0.17756 0.0
C191 C 0.47603 0.60029 0.23725 0.0
C192 C 0.49187 0.57849 0.19828 0.0
C193 C 0.49646 0.54785 0.68101 0.0
C194 C 0.54264 0.59898 0.73129 0.0
C195 C 0.57035 0.5389 0.4584 0.0
C196 C 0.55488 0.52978 0.36414 0.0
C197 C 0.56895 0.51603 0.28149 0.0
C198 C 0.55592 0.4946 0.22758 0.0
C199 C 0.52935 0.48686 0.26007 0.0
C200 C 0.51331 0.50526 0.32013 0.0
C201 C 0.52627 0.52672 0.37392 0.0
C202 C 0.59372 0.54268 0.8258 0.0
C203 C 0.54028 0.48492 0.78565 0.0
O204 O 0.49604 0.53214 0.97023 0.0
O205 O 0.52925 0.55861 0.0254 0.0
O206 O 0.49217 0.56315 0.76519 0.0
O207 O 0.51637 0.53183 0.70215 0.0
O208 O 0.53641 0.59003 0.82995 0.0
O209 O 0.54862 0.58147 0.65289 0.0
O210 O 0.57824 0.51887 0.52362 0.0
O211 O 0.55938 0.55956 0.51101 0.0
O212 O 0.60101 0.53695 0.72761 0.0
O213 O 0.56798 0.54464 0.82206 0.0
O214 O 0.54548 0.49452 0.68658 0.0
O215 O 0.53688 0.50217 0.8682 0.0
H216 H 0.45621 0.56576 0.96603 0.0
H217 H 0.42797 0.60325 0.03591 0.0
H218 H 0.48307 0.61064 0.30958 0.0
H219 H 0.51025 0.57243 0.24192 0.0
H220 H 0.59084 0.51874 0.27091 0.0
H221 H 0.56832 0.48084 0.17846 0.0
H222 H 0.49244 0.49996 0.34265 0.0
H223 H 0.51487 0.53799 0.43473 0.0
La224 La 1.02806 0.52133 0.94423 0.0
La225 La 0.03742 0.55574 0.76112 0.0
C226 C 1.01351 0.50057 0.12251 0.0
C227 C 0.99163 0.48311 0.16781 0.0
C228 C 0.98969 0.45475 0.14452 0.0
C229 C 0.96922 0.43866 0.19343 0.0
C230 C 0.95056 0.45074 0.26626 0.0
C231 C 0.95261 0.47915 0.28809 0.0
C232 C 0.97305 0.495 0.24051 0.0
C233 C 0.0426 0.49219 0.77111 0.0
C234 C 0.97597 0.5393 0.79653 0.0
C235 C 0.0553 0.57414 0.58472 0.0
C236 C 0.08012 0.56427 0.5281 0.0
C237 C 0.1062 0.57166 0.56683 0.0
C238 C 0.12904 0.55554 0.54231 0.0
C239 C 0.12629 0.53194 0.47778 0.0
C240 C 0.10083 0.52619 0.42973 0.0
C241 C 0.07794 0.54247 0.45371 0.0
C242 C 1.02412 0.58441 0.93733 0.0
C243 C 0.08881 0.53642 0.90143 0.0
O244 O 0.03101 0.48894 0.05649 0.0
O245 O 1.00623 0.52531 0.09002 0.0
O246 O 0.04942 0.48662 0.86994 0.0
O247 O 1.02668 0.51293 0.77228 0.0
O248 O 0.98492 0.52582 0.88393 0.0
O249 O 0.99341 0.55251 0.73321 0.0
O250 O 0.05937 0.58646 0.67751 0.0
O251 O 0.03554 0.55601 0.59162 0.0
O252 O 1.01629 0.59022 0.83962 0.0
O253 O 0.0399 0.56367 0.93302 0.0
O254 O 0.07989 0.5417 0.80201 0.0
O255 O 0.07057 0.53257 0.97916 0.0
H256 H 1.00405 0.44496 0.08951 0.0
H257 H 0.96818 0.41686 0.17526 0.0
H258 H 0.93809 0.48942 0.3411 0.0
H259 H 0.97425 0.51672 0.26047 0.0
H260 H 0.10869 0.58854 0.62314 0.0
H261 H 0.14858 0.5607 0.57903 0.0
H262 H 0.09846 0.50872 0.37619 0.0
H263 H 0.05816 0.5367 0.42062 0.0
C264 C 0.21231 0.06282 0.27169 0.0
C265 C 0.21703 0.03619 0.23152 0.0
C266 C 0.1885 0.06888 0.33372 0.0
C267 C 0.16954 0.04757 0.36003 0.0
C268 C 0.17355 1.02114 0.31391 0.0
C269 C 0.19661 1.01615 0.2477 0.0
C270 C 0.18447 0.0977 0.37629 0.0
C271 C 0.15518 0.99719 0.34311 0.0
C272 C 0.13286 0.05057 0.63453 0.0
C273 C 0.10541 0.0558 0.6055 0.0
C274 C 0.15374 0.04801 0.55577 0.0
C275 C 0.14742 0.05178 0.44445 0.0
C276 C 0.11974 0.05765 0.41473 0.0
C277 C 0.09902 0.05914 0.49537 0.0
C278 C 0.18249 0.04045 0.59186 0.0
C279 C 0.11206 0.06264 0.29786 0.0
H280 H 0.22793 0.07844 0.2599 0.0
H281 H 0.19999 0.99563 0.2158 0.0
H282 H 0.16271 0.10428 0.3666 0.0
H283 H 0.18931 0.09813 0.46408 0.0
H284 H 0.19797 0.11279 0.33416 0.0
H285 H 0.15743 0.9799 0.28496 0.0
H286 H 0.16091 0.98946 0.42485 0.0
H287 H 0.13328 1.00352 0.3466 0.0
H288 H 0.13794 0.04766 0.71937 0.0
H289 H 0.0779 0.06334 0.47239 0.0
H290 H 0.19713 0.05684 0.56752 0.0
H291 H 0.18918 1.02113 0.55158 0.0
H292 H 0.18391 0.03746 0.681 0.0
H293 H 0.12061 0.04621 0.24533 0.0
H294 H 0.12117 0.08244 0.27034 0.0
H295 H 0.08942 0.06366 0.28607 0.0
C296 C 0.49529 0.20518 0.19926 0.0
C297 C 0.51986 0.21766 0.16537 0.0
C298 C 0.49537 0.18037 0.25951 0.0
C299 C 0.52072 0.16772 0.28819 0.0
C300 C 0.54548 0.17901 0.24598 0.0
C301 C 0.54475 0.20386 0.18561 0.0
C302 C 0.46839 0.16899 0.30013 0.0
C303 C 0.57303 0.16631 0.27263 0.0
C304 C 0.52261 0.132 0.56547 0.0
C305 C 0.52206 0.10389 0.53892 0.0
C306 C 0.52277 0.15267 0.48479 0.0
C307 C 0.52152 0.14532 0.37371 0.0
C308 C 0.52065 0.11689 0.34633 0.0
C309 C 0.52139 0.09654 0.42908 0.0
C310 C 0.52411 0.18252 0.51882 0.0
C311 C 0.51774 0.10783 0.23022 0.0
H312 H 0.4761 0.21613 0.18607 0.0
H313 H 0.56382 0.21379 0.16223 0.0
H314 H 0.4675 0.14639 0.28715 0.0
H315 H 0.46661 0.17265 0.38857 0.0
H316 H 0.45048 0.17882 0.25929 0.0
H317 H 0.58922 0.17307 0.2147 0.0
H318 H 0.57923 0.17271 0.35527 0.0
H319 H 0.57192 0.14347 0.27204 0.0
H320 H 0.52329 0.1379 0.65007 0.0
H321 H 0.52063 0.07488 0.40788 0.0
H322 H 0.5055 0.1937 0.49038 0.0
H323 H 0.5422 0.1926 0.48077 0.0
H324 H 0.52564 0.18485 0.60814 0.0
H325 H 0.52934 0.12149 0.17429 0.0
H326 H 0.49572 0.10897 0.20692 0.0
H327 H 0.52478 0.0862 0.21905 0.0
C328 C 0.37891 0.52087 0.22186 0.0
C329 C 0.35388 0.51619 0.27524 0.0
C330 C 0.40328 0.52635 0.28079 0.0
C331 C 0.40277 0.52677 0.39599 0.0
C332 C 0.37735 0.52222 0.44969 0.0
C333 C 0.35333 0.51733 0.38888 0.0
C334 C 0.42968 0.53122 0.21986 0.0
C335 C 0.37558 0.52182 0.57185 0.0
C336 C 0.46917 0.51593 0.56077 0.0
C337 C 0.47442 0.5426 0.59926 0.0
C338 C 0.44635 0.51051 0.49307 0.0
C339 C 0.4285 0.53236 0.46103 0.0
C340 C 0.43437 0.55946 0.49705 0.0
C341 C 0.45702 0.56418 0.56603 0.0
C342 C 0.44074 0.48118 0.45959 0.0
C343 C 0.41646 0.58352 0.46376 0.0
H344 H 0.37953 0.51954 0.13427 0.0
H345 H 0.33403 0.51347 0.43031 0.0
H346 H 0.43962 0.55024 0.24984 0.0
H347 H 0.44419 0.51392 0.23465 0.0
H348 H 0.42623 0.53309 0.13119 0.0
H349 H 0.3545 0.5171 0.60138 0.0
H350 H 0.39001 0.50613 0.60505 0.0
H351 H 0.38185 0.5421 0.60468 0.0
H352 H 0.48238 0.49907 0.58662 0.0
H353 H 0.46099 0.58486 0.59505 0.0
H354 H 0.43862 0.47985 0.37034 0.0
H355 H 0.42097 0.47426 0.49559 0.0
H356 H 0.4573 0.46677 0.48584 0.0
H357 H 0.42244 0.60289 0.50499 0.0
H358 H 0.39456 0.57929 0.4828 0.0
H359 H 0.41797 0.58656 0.37475 0.0
C360 C 0.05485 0.36521 0.34226 0.0
C361 C 1.02773 0.3579 0.31545 0.0
C362 C 0.06043 0.38943 0.40243 0.0
C363 C 0.03833 0.40576 0.4427 0.0
C364 C 1.01115 0.39883 0.41246 0.0
C365 C 1.00644 0.37613 0.34457 0.0
C366 C 0.08989 0.39673 0.42718 0.0
C367 C 0.98675 0.41396 0.45939 0.0
C368 C 0.04455 0.44263 0.71471 0.0
C369 C 0.04316 0.4706 0.68496 0.0
C370 C 0.04385 0.42151 0.63679 0.0
C371 C 0.04279 0.42828 0.52492 0.0
C372 C 0.04261 0.45658 0.49408 0.0
C373 C 0.04231 0.47736 0.57436 0.0
C374 C 0.04287 0.39187 0.67488 0.0
C375 C 0.04278 0.46488 0.3762 0.0
H376 H 0.07157 0.35152 0.32026 0.0
H377 H 0.98556 0.37132 0.3209 0.0
H378 H 0.09302 0.41938 0.42225 0.0
H379 H 0.09502 0.39004 0.5108 0.0
H380 H 0.10442 0.38643 0.37062 0.0
H381 H 0.96694 0.40499 0.43258 0.0
H382 H 0.98739 0.41295 0.54921 0.0
H383 H 0.9875 0.43606 0.43624 0.0
H384 H 0.04517 0.43712 0.79992 0.0
H385 H 0.04159 0.49888 0.55068 0.0
H386 H 0.06043 0.38014 0.64062 0.0
H387 H 1.02371 0.38199 0.6456 0.0
H388 H 0.04355 0.39002 0.76461 0.0
H389 H 0.04077 0.48754 0.36488 0.0
H390 H 1.02579 0.45461 0.33255 0.0
H391 H 0.06232 0.45793 0.33834 0.0
C392 C 0.86917 0.05043 0.29999 0.0
C393 C 0.85858 1.02422 0.32324 0.0
C394 C 0.89374 0.05367 0.24018 0.0
C395 C 0.90821 1.03013 0.20199 0.0
C396 C 0.8989 1.00362 0.23428 0.0
C397 C 0.87436 1.00104 0.2949 0.0
C398 C 0.90246 0.08235 0.20818 0.0
C399 C 0.91303 0.97782 0.19464 0.0
C400 C 0.9407 0.03961 0.92235 0.0
C401 C 0.96897 0.04148 0.94468 0.0
C402 C 0.92114 0.03528 1.00472 0.0
C403 C 0.9297 0.0332 0.11416 0.0
C404 C 0.95832 0.0348 0.13768 0.0
C405 C 0.97765 0.03877 0.05266 0.0
C406 C 0.89115 0.03282 0.97396 0.0
C407 C 0.96863 0.03197 0.25223 0.0
H408 H 0.85679 0.06839 0.31935 0.0
H409 H 0.86596 0.98074 0.31086 0.0
H410 H 0.9252 0.08405 0.20607 0.0
H411 H 0.89467 0.08713 0.12574 0.0
H412 H 0.8939 0.09799 0.26451 0.0
H413 H 0.90584 0.95914 0.23867 0.0
H414 H 0.90866 0.97515 0.10706 0.0
H415 H 0.93564 0.97947 0.20385 0.0
H416 H 0.93369 0.04141 0.83924 0.0
H417 H 0.99942 0.03998 0.07085 0.0
H418 H 0.8792 0.05005 0.00975 0.0
H419 H 0.88251 1.01333 0.00679 0.0
H420 H 0.88802 0.03316 0.88479 0.0
H421 H 0.95483 0.04288 0.30959 0.0
H422 H 0.9899 0.03998 0.26069 0.0
H423 H 0.96889 1.00987 0.27565 0.0
C424 C 0.56284 0.86574 0.23968 0.0
C425 C 0.53644 0.85771 0.2737 0.0
C426 C 0.56678 0.8903 0.17866 0.0
C427 C 0.5437 0.90652 0.14665 0.0
C428 C 0.51737 0.899 0.18569 0.0
C429 C 0.51431 0.87552 0.2519 0.0
C430 C 0.59546 0.89812 0.14386 0.0
C431 C 0.49192 0.91421 0.14947 0.0
C432 C 0.54588 0.9786 0.0138 0.0
C433 C 0.545 0.9721 0.90315 0.0
C434 C 0.54686 0.95758 0.09404 0.0
C435 C 0.54614 0.92934 0.0633 0.0
C436 C 0.54497 0.92287 0.95143 0.0
C437 C 0.54493 0.94417 0.87338 0.0
C438 C 0.54905 0.96559 0.21165 0.0
C439 C 0.54281 0.89335 0.91378 0.0
H440 H 0.58013 0.85221 0.25612 0.0
H441 H 0.49397 0.86975 0.27989 0.0
H442 H 0.59834 0.89317 0.05692 0.0
H443 H 0.59868 0.92063 0.15345 0.0
H444 H 0.61137 0.88683 0.19123 0.0
H445 H 0.47344 0.90674 0.19301 0.0
H446 H 0.4942 0.93667 0.16235 0.0
H447 H 0.48878 0.91098 0.06137 0.0
H448 H 0.54631 1.0001 0.03751 0.0
H449 H 0.5441 0.93888 0.78819 0.0
H450 H 0.56974 0.95974 0.24226 0.0
H451 H 0.53375 0.95428 0.26143 0.0
H452 H 0.54604 0.9881 0.22376 0.0
H453 H 0.56093 0.88134 0.94169 0.0
H454 H 0.5415 0.89175 0.82415 0.0
H455 H 0.52427 0.88358 0.94968 0.0
C456 C 0.71893 0.55369 0.24873 0.0
C457 C 0.71877 0.53232 0.32574 0.0
C458 C 0.69617 0.55825 0.17929 0.0
C459 C 0.67297 0.54043 0.18392 0.0
C460 C 0.67222 0.51986 0.26622 0.0
C461 C 0.69471 0.51663 0.33723 0.0
C462 C 0.69762 0.58122 0.09668 0.0
C463 C 0.64842 0.50016 0.27857 0.0
C464 C 0.6068 0.55508 0.01955 0.0
C465 C 0.61249 0.54143 0.92186 0.0
C466 C 0.6262 0.55521 0.10552 0.0
C467 C 0.65168 0.54092 0.09455 0.0
C468 C 0.65684 0.52628 0.99737 0.0
C469 C 0.63756 0.52714 0.91233 0.0
C470 C 0.61977 0.57121 0.20692 0.0
C471 C 0.68274 0.50934 0.98339 0.0
H472 H 0.73744 0.56584 0.23869 0.0
H473 H 0.69426 0.50039 0.39787 0.0
H474 H 0.7013 0.57241 0.0151 0.0
H475 H 0.67782 0.59268 0.09372 0.0
H476 H 0.71446 0.59593 0.11474 0.0
H477 H 0.63537 0.50712 0.34713 0.0
H478 H 0.63547 0.49871 0.20499 0.0
H479 H 0.656 0.47914 0.29931 0.0
H480 H 0.58761 0.56634 0.02755 0.0
H481 H 0.6421 0.51629 0.83774 0.0
H482 H 0.63373 0.58923 0.21193 0.0
H483 H 0.62348 0.55828 0.27993 0.0
H484 H 0.59814 0.57871 0.20843 0.0
H485 H 0.70104 0.52293 0.98589 0.0
H486 H 0.68302 0.49787 0.90566 0.0
H487 H 0.68469 0.49429 0.05109 0.0
C488 C 0.04832 0.71056 0.34255 0.0
C489 C 1.02402 0.71912 0.39423 0.0
C490 C 0.04951 0.68575 0.28335 0.0
C491 C 1.02591 0.66869 0.2765 0.0
C492 C 1.00225 0.6759 0.33803 0.0
C493 C 1.00148 0.70115 0.39483 0.0
C494 C 0.07517 0.6793 0.21922 0.0
C495 C 0.97685 0.65813 0.33642 0.0
C496 C 1.01402 0.632 0.00662 0.0
C497 C 1.0236 0.60512 0.02706 0.0
C498 C 1.01463 0.65256 0.08694 0.0
C499 C 1.02451 0.64619 0.19236 0.0
C500 C 0.03348 0.61882 0.21466 0.0
C501 C 0.03326 0.59874 0.13154 0.0
C502 C 1.00519 0.68138 0.05791 0.0
C503 C 0.0437 0.61073 0.32571 0.0
H504 H 0.06549 0.72475 0.33933 0.0
H505 H 0.98247 0.70794 0.4324 0.0
H506 H 0.08109 0.65734 0.22964 0.0
H507 H 0.07108 0.68279 0.13173 0.0
H508 H 0.09278 0.69244 0.2435 0.0
H509 H 0.96225 0.66372 0.40217 0.0
H510 H 0.9662 0.66074 0.25756 0.0
H511 H 0.98247 0.63602 0.34492 0.0
H512 H 1.00654 0.63724 0.9264 0.0
H513 H 0.04065 0.57804 0.1484 0.0
H514 H 1.02229 0.69616 0.07008 0.0
H515 H 0.98807 0.68778 0.11191 0.0
H516 H 0.99811 0.68305 0.97256 0.0
H517 H 0.0646 0.61926 0.33819 0.0
H518 H 0.0448 0.58798 0.33579 0.0
H519 H 0.03014 0.61931 0.38978 0.0
C520 C 0.99013 0.24365 0.30775 0.0
C521 C 0.97967 0.2689 0.2729 0.0
C522 C 0.97254 0.22166 0.33014 0.0
C523 C 0.94368 0.2251 0.31563 0.0
C524 C 0.93297 0.25102 0.28327 0.0
C525 C 0.95124 0.27278 0.26278 0.0
C526 C 0.98505 0.19493 0.3707 0.0
C527 C 0.90244 0.25625 0.27357 0.0
C528 C 0.92318 0.15416 0.25852 0.0
C529 C 0.92585 0.14406 0.36465 0.0
C530 C 0.92348 0.1826 0.23902 0.0
C531 C 0.92578 0.20064 0.3282 0.0
C532 C 0.92053 0.1906 0.43375 0.0
C533 C 0.92103 0.16205 0.45154 0.0
C534 C 0.92718 0.19274 0.12434 0.0
C535 C 0.91969 0.20973 0.52957 0.0
H536 H 1.01217 0.24132 0.31809 0.0
H537 H 0.94344 0.29281 0.23806 0.0
H538 H 0.97745 0.17723 0.32313 0.0
H539 H 1.00789 0.19502 0.36658 0.0
H540 H 0.979 0.19147 0.45638 0.0
H541 H 0.89806 0.27313 0.21482 0.0
H542 H 0.89101 0.23757 0.24872 0.0
H543 H 0.89441 0.26269 0.35383 0.0
H544 H 0.92537 0.14013 0.19086 0.0
H545 H 0.9218 0.15443 0.53419 0.0
H546 H 0.94936 0.19651 0.10985 0.0
H547 H 0.91605 0.21247 0.1111 0.0
H548 H 0.91993 0.17738 0.06437 0.0
H549 H 0.94096 0.21349 0.55849 0.0
H550 H 0.90776 0.20053 0.59753 0.0
H551 H 0.91041 0.2299 0.50684 0.0
C552 C 0.29967 0.95564 0.20747 0.0
C553 C 0.30407 0.98412 0.21138 0.0
C554 C 0.32032 0.93714 0.23989 0.0
C555 C 0.34586 0.94767 0.27521 0.0
C556 C 0.34991 0.97666 0.28193 0.0
C557 C 0.32883 0.99447 0.25002 0.0
C558 C 0.31465 0.90661 0.23397 0.0
C559 C 0.37648 0.98908 0.32235 0.0
C560 C 0.40623 0.92459 0.4279 0.0
C561 C 0.42551 0.92755 0.34387 0.0
C562 C 0.37803 0.9252 0.40475 0.0
C563 C 0.36963 0.92936 0.29639 0.0
C564 C 0.38871 0.92554 0.21136 0.0
C565 C 0.41671 0.92476 0.23625 0.0
C566 C 0.35768 0.92653 0.4969 0.0
C567 C 0.38016 0.92803 0.09432 0.0
H568 H 0.2801 0.94797 0.17861 0.0
H569 H 0.33152 1.01661 0.25524 0.0
H570 H 0.31739 0.89965 0.1491 0.0
H571 H 0.32851 0.8943 0.28689 0.0
H572 H 0.29299 0.90226 0.2572 0.0
H573 H 0.3767 1.01192 0.31465 0.0
H574 H 0.37945 0.98371 0.40901 0.0
H575 H 0.39429 0.98075 0.27672 0.0
H576 H 0.41279 0.92579 0.51167 0.0
H577 H 0.43146 0.92617 0.17067 0.0
H578 H 0.33745 0.91804 0.47236 0.0
H579 H 0.3546 0.94836 0.52088 0.0
H580 H 0.36539 0.91498 0.56874 0.0
H581 H 0.36116 0.91607 0.07941 0.0
H582 H 0.39654 0.92074 0.03835 0.0
H583 H 0.37568 0.94998 0.07556 0.0
C584 C 0.50064 0.32709 0.29892 0.0
C585 C 0.52202 0.31718 0.23413 0.0
C586 C 0.50221 0.3535 0.34378 0.0
C587 C 0.52519 0.37032 0.31841 0.0
C588 C 0.54861 0.35828 0.26767 0.0
C589 C 0.54649 0.33177 0.22564 0.0
C590 C 0.47865 0.3634 0.41347 0.0
C591 C 0.57595 0.37272 0.25454 0.0
C592 C 0.50625 0.44225 0.22492 0.0
C593 C 0.52516 0.45763 0.2826 0.0
C594 C 0.50459 0.41375 0.24186 0.0
C595 C 0.52223 0.40075 0.31932 0.0
C596 C 0.5392 0.41713 0.38601 0.0
C597 C 0.54056 0.44541 0.36606 0.0
C598 C 0.48479 0.39782 0.17234 0.0
C599 C 0.55768 0.40519 0.47273 0.0
H600 H 0.48233 0.3147 0.3105 0.0
H601 H 0.56365 0.32265 0.18226 0.0
H602 H 0.4782 0.35095 0.48922 0.0
H603 H 0.4802 0.38545 0.43586 0.0
H604 H 0.45878 0.35985 0.37152 0.0
H605 H 0.58724 0.36516 0.18206 0.0
H606 H 0.57411 0.39538 0.24818 0.0
H607 H 0.58892 0.36779 0.32602 0.0
H608 H 0.49369 0.45232 0.16372 0.0
H609 H 0.55441 0.45797 0.41383 0.0
H610 H 0.46618 0.39277 0.22041 0.0
H611 H 0.4941 0.37828 0.14376 0.0
H612 H 0.478 0.41006 0.10093 0.0
H613 H 0.55284 0.38343 0.49292 0.0
H614 H 0.55629 0.41779 0.54723 0.0
H615 H 0.57943 0.40656 0.44579 0.0
C616 C 0.24629 0.45737 0.20859 0.0
C617 C 0.26906 0.46852 0.26152 0.0
C618 C 0.22091 0.45556 0.26263 0.0
C619 C 0.21946 0.46323 0.37325 0.0
C620 C 0.24411 0.46532 0.43262 0.0
C621 C 0.26859 0.46977 0.37554 0.0
C622 C 0.19584 0.44705 0.19938 0.0
C623 C 0.24385 0.46808 0.55428 0.0
C624 C 0.17558 0.52558 0.43665 0.0
C625 C 0.15017 0.51374 0.45971 0.0
C626 C 0.19818 0.5093 0.40999 0.0
C627 C 0.19572 0.48002 0.411 0.0
C628 C 0.17051 0.46785 0.443 0.0
C629 C 0.14775 0.48492 0.46452 0.0
C630 C 0.22416 0.52412 0.37653 0.0
C631 C 0.16705 0.43703 0.45256 0.0
H632 H 0.24767 0.45215 0.12385 0.0
H633 H 0.28633 0.47704 0.41973 0.0
H634 H 0.17704 0.45804 0.22563 0.0
H635 H 0.19869 0.45044 0.111 0.0
H636 H 0.19236 0.42469 0.21298 0.0
H637 H 0.2437 0.49017 0.57706 0.0
H638 H 0.22538 0.4581 0.59009 0.0
H639 H 0.26267 0.45861 0.58965 0.0
H640 H 0.17743 0.54785 0.43288 0.0
H641 H 0.12815 0.47572 0.48575 0.0
H642 H 0.23421 0.51351 0.30829 0.0
H643 H 0.23873 0.52464 0.44544 0.0
H644 H 0.22013 0.54581 0.3517 0.0
H645 H 0.15737 0.42915 0.37749 0.0
H646 H 0.15306 0.43183 0.52092 0.0
H647 H 0.18696 0.42619 0.46495 0.0
C648 C 1.0223 0.8397 0.28644 0.0
C649 C 0.02945 0.81198 0.27608 0.0
C650 C 0.03705 0.85992 0.22984 0.0
C651 C 0.05781 0.85167 0.15506 0.0
C652 C 0.06188 0.8235 0.13238 0.0
C653 C 0.04852 0.80397 0.19659 0.0
C654 C 0.03107 0.88978 0.25645 0.0
C655 C 0.08181 0.8138 0.04658 0.0
C656 C 0.0815 0.91545 0.01378 0.0
C657 C 0.10574 0.92103 0.07067 0.0
C658 C 0.06721 0.89096 0.03091 0.0
C659 C 0.07693 0.87232 0.11012 0.0
C660 C 0.10306 0.87648 0.15918 0.0
C661 C 0.11712 0.90112 0.13908 0.0
C662 C 0.04063 0.88606 0.97096 0.0
C663 C 0.11607 0.8559 0.23604 0.0
H664 H 1.00711 0.84565 0.34649 0.0
H665 H 0.05422 0.78246 0.18858 0.0
H666 H 0.04778 0.9041 0.23295 0.0
H667 H 1.01184 0.89626 0.21508 0.0
H668 H 1.02753 0.89215 0.34459 0.0
H669 H 0.07545 0.79353 0.01351 0.0
H670 H 0.08339 0.82884 0.97871 0.0
H671 H 0.10249 0.81113 0.08307 0.0
H672 H 0.07247 0.93127 0.9626 0.0
H673 H 0.13599 0.90564 0.18225 0.0
H674 H 1.02294 0.88682 0.02755 0.0
H675 H 0.04096 0.8652 0.93418 0.0
H676 H 0.03704 0.90173 0.90671 0.0
H677 H 0.12793 0.86656 0.30028 0.0
H678 H 0.1309 0.84303 0.18995 0.0
H679 H 0.101 0.84201 0.27525 0.0
C680 C 0.77289 0.05398 0.13386 0.0
C681 C 0.76531 0.03417 0.21149 0.0
C682 C 0.75309 0.06763 0.07189 0.0
C683 C 0.72506 0.06309 0.09531 0.0
C684 C 0.71728 0.04182 0.16905 0.0
C685 C 0.73777 1.02681 0.22305 0.0
C686 C 0.76233 0.08815 0.98705 0.0
C687 C 0.68765 0.03548 0.19732 0.0
C688 C 0.67465 0.12207 0.07404 0.0
C689 C 0.65527 0.11032 1.00527 0.0
C690 C 0.69924 0.1081 0.09709 0.0
C691 C 0.704 0.08178 0.04999 0.0
C692 C 0.68584 0.07154 0.971 0.0
C693 C 0.6613 0.08562 0.95176 0.0
C694 C 0.71908 0.12151 0.17476 0.0
C695 C 0.69131 0.04466 0.91332 0.0
H696 H 0.79429 0.05976 0.12501 0.0
H697 H 0.73216 1.01113 0.28194 0.0
H698 H 0.7474 0.08964 0.91924 0.0
H699 H 0.7643 0.10879 0.02448 0.0
H700 H 0.7828 0.08239 0.95368 0.0
H701 H 0.68545 0.03277 0.28604 0.0
H702 H 0.67286 0.05165 0.1717 0.0
H703 H 0.68174 1.01563 0.15967 0.0
H704 H 0.66977 0.14121 0.11512 0.0
H705 H 0.64585 0.07615 0.90109 0.0
H706 H 0.73118 0.13721 0.12981 0.0
H707 H 0.73366 0.1068 0.21285 0.0
H708 H 0.70776 0.13253 0.23987 0.0
H709 H 0.7124 0.04475 0.87849 0.0
H710 H 0.67619 0.04084 0.84791 0.0
H711 H 0.69012 1.02713 0.97097 0.0
C712 C 0.4645 0.7677 0.31757 0.0
C713 C 0.4931 0.76609 0.3062 0.0
C714 C 0.44791 0.7449 0.294 0.0
C715 C 0.46053 0.72016 0.2589 0.0
C716 C 0.48949 0.71906 0.243 0.0
C717 C 0.5054 0.74208 0.26779 0.0
C718 C 0.41719 0.7475 0.30847 0.0
C719 C 0.5038 0.69374 0.19859 0.0
C720 C 0.44168 0.64745 0.30969 0.0
C721 C 0.44201 0.63803 0.20246 0.0
C722 C 0.4431 0.67566 0.33184 0.0
C723 C 0.44452 0.69455 0.24443 0.0
C724 C 0.43879 0.68552 0.1383 0.0
C725 C 0.43795 0.65716 0.11792 0.0
C726 C 0.44761 0.68474 0.44707 0.0
C727 C 0.43766 0.70547 0.04427 0.0
H728 H 0.45527 0.78671 0.34616 0.0
H729 H 0.52754 0.74153 0.25696 0.0
H730 H 0.41193 0.74369 0.39475 0.0
H731 H 0.41015 0.76871 0.28792 0.0
H732 H 0.40567 0.7326 0.25796 0.0
H733 H 0.52654 0.69499 0.20639 0.0
H734 H 0.49669 0.67477 0.24036 0.0
H735 H 0.49882 0.69158 0.11138 0.0
H736 H 0.44368 0.63283 0.37571 0.0
H737 H 0.43744 0.65034 0.03448 0.0
H738 H 0.43504 0.70328 0.46517 0.0
H739 H 0.46952 0.69034 0.45762 0.0
H740 H 0.44246 0.66825 0.50647 0.0
H741 H 0.42868 0.72554 0.06942 0.0
H742 H 0.42534 0.69699 0.97643 0.0
H743 H 0.45881 0.7093 0.01385 0.0
C744 C 0.81698 0.47703 0.30229 0.0
C745 C 0.80029 0.4749 0.39347 0.0
C746 C 0.84017 0.46029 0.29117 0.0
C747 C 0.8449 0.43876 0.36798 0.0
C748 C 0.82491 0.43358 0.44958 0.0
C749 C 0.80323 0.45248 0.46395 0.0
C750 C 0.86058 0.4678 0.2031 0.0
C751 C 0.82679 0.40918 0.52533 0.0
C752 C 0.9113 0.41725 0.25471 0.0
C753 C 0.92773 0.43499 0.3163 0.0
C754 C 0.884 0.41216 0.28654 0.0
C755 C 0.87307 0.42688 0.37569 0.0
C756 C 0.89145 0.43913 0.45016 0.0
C757 C 0.91897 0.44225 0.42044 0.0
C758 C 0.86613 0.39423 0.2166 0.0
C759 C 0.88177 0.45248 0.55367 0.0
H760 H 0.81323 0.49374 0.24542 0.0
H761 H 0.789 0.4501 0.53101 0.0
H762 H 0.88153 0.4702 0.23716 0.0
H763 H 0.86122 0.45136 0.1412 0.0
H764 H 0.85513 0.4874 0.16113 0.0
H765 H 0.80739 0.3972 0.5208 0.0
H766 H 0.84424 0.3952 0.50623 0.0
H767 H 0.82862 0.41648 0.61015 0.0
H768 H 0.91847 0.40982 0.17692 0.0
H769 H 0.93269 0.45373 0.47264 0.0
H770 H 0.86431 0.40329 0.13419 0.0
H771 H 0.84529 0.39128 0.25169 0.0
H772 H 0.8761 0.37374 0.20708 0.0
H773 H 0.89865 0.46356 0.59529 0.0
H774 H 0.87387 0.43644 0.60971 0.0
H775 H 0.86496 0.46746 0.53759 0.0
C776 C 0.04831 0.25398 0.10341 0.0
C777 C 1.02321 0.26839 0.10311 0.0
C778 C 0.05133 0.22846 0.04869 0.0
C779 C 1.02859 0.21655 0.99362 0.0
C780 C 1.00365 0.23187 0.98851 0.0
C781 C 1.00143 0.25752 0.04199 0.0
C782 C 0.07867 0.21369 0.05343 0.0
C783 C 0.97891 0.22107 0.92851 0.0
C784 C 0.03629 0.15352 0.80396 0.0
C785 C 0.03149 0.13127 0.87503 0.0
C786 C 0.03603 0.18123 0.84103 0.0
C787 C 0.03 0.18715 0.95139 0.0
C788 C 1.0245 0.1647 0.02233 0.0
C789 C 1.02565 0.13731 0.98404 0.0
C790 C 0.04235 0.20414 0.7619 0.0
C791 C 1.01668 0.16964 0.13888 0.0
H792 H 0.06519 0.262 0.15093 0.0
H793 H 0.98205 0.26864 0.04025 0.0
H794 H 0.07694 0.19527 0.10662 0.0
H795 H 0.08466 0.20641 0.97152 0.0
H796 H 0.09524 0.2271 0.08545 0.0
H797 H 0.98174 0.22478 0.84048 0.0
H798 H 0.9764 0.19853 0.94086 0.0
H799 H 0.95964 0.23163 0.95392 0.0
H800 H 0.04097 0.14927 0.71977 0.0
H801 H 1.02159 0.12048 0.03992 0.0
H802 H 0.05705 0.21898 0.79787 0.0
H803 H 1.02317 0.21559 0.74276 0.0
H804 H 0.05114 0.19619 0.68492 0.0
H805 H 0.03298 0.1815 0.18049 0.0
H806 H 1.01323 0.15015 0.18445 0.0
H807 H 0.99759 0.18221 0.14152 0.0
C808 C 0.32 1.00409 0.98168 0.0
C809 C 0.30888 1.02677 0.03762 0.0
C810 C 0.34619 1.00517 0.93171 0.0
C811 C 0.36182 1.02985 0.93456 0.0
C812 C 0.34989 0.05338 0.98516 0.0
C813 C 0.32381 0.05151 0.03667 0.0
C814 C 0.35734 0.97949 0.87837 0.0
C815 C 0.36519 0.08037 0.98851 0.0
C816 C 0.44092 1.0257 0.9287 0.0
C817 C 0.44745 0.03111 0.81956 0.0
C818 C 0.41341 1.02477 0.96581 0.0
C819 C 0.39135 1.03033 0.8935 0.0
C820 C 0.39778 0.03581 0.78291 0.0
C821 C 0.42559 0.03568 0.74705 0.0
C822 C 0.40792 1.01735 0.08272 0.0
C823 C 0.37528 0.04219 0.70252 0.0
H824 H 0.30854 0.98496 0.98109 0.0
H825 H 0.31569 0.06904 0.08056 0.0
H826 H 0.35643 0.98202 0.78911 0.0
H827 H 0.3792 0.97597 0.90058 0.0
H828 H 0.34532 0.96086 0.90077 0.0
H829 H 0.35203 0.09751 0.01835 0.0
H830 H 0.38326 0.07834 0.04286 0.0
H831 H 0.37301 0.08578 0.90658 0.0
H832 H 0.45749 1.02186 0.9856 0.0
H833 H 0.43026 0.04007 0.66281 0.0
H834 H 0.3945 0.99891 0.08654 0.0
H835 H 0.3968 0.03442 0.1235 0.0
H836 H 0.42712 1.01292 0.12843 0.0
H837 H 0.3836 0.04893 0.62281 0.0
H838 H 0.36156 0.05861 0.73447 0.0
H839 H 0.36251 1.02358 0.68988 0.0
C840 C 0.50042 0.33016 0.98227 0.0
C841 C 0.52349 0.31294 0.99455 0.0
C842 C 0.50211 0.35629 0.93058 0.0
C843 C 0.5279 0.36628 0.89182 0.0
C844 C 0.55085 0.34787 0.89693 0.0
C845 C 0.54842 0.32172 0.94862 0.0
C846 C 0.47588 0.37284 0.91949 0.0
C847 C 0.57849 0.35583 0.85108 0.0
C848 C 0.52692 0.43576 0.73198 0.0
C849 C 0.53797 0.45434 0.80762 0.0
C850 C 0.52359 0.40723 0.75703 0.0
C851 C 0.53167 0.39663 0.86011 0.0
C852 C 0.54316 0.41553 0.9352 0.0
C853 C 0.5459 0.44376 0.90876 0.0
C854 C 0.51149 0.38843 0.67287 0.0
C855 C 0.55339 0.40615 0.04392 0.0
H856 H 0.48104 0.3235 0.01707 0.0
H857 H 0.56645 0.30872 0.958 0.0
H858 H 0.47955 0.3953 0.91127 0.0
H859 H 0.4647 0.36572 0.84656 0.0
H860 H 0.46192 0.36911 0.98934 0.0
H861 H 0.58909 0.33751 0.81662 0.0
H862 H 0.57677 0.37187 0.78693 0.0
H863 H 0.59166 0.36378 0.91717 0.0
H864 H 0.52034 0.44363 0.6538 0.0
H865 H 0.55464 0.45767 0.96796 0.0
H866 H 0.49135 0.38056 0.7008 0.0
H867 H 0.52518 0.37034 0.66025 0.0
H868 H 0.50814 0.39919 0.59444 0.0
H869 H 0.54063 0.38923 0.07695 0.0
H870 H 0.55381 0.42336 0.10291 0.0
H871 H 0.57477 0.3985 0.03476 0.0
C872 C 0.24925 0.49871 0.01704 0.0
C873 C 0.26101 0.5153 0.09748 0.0
C874 C 0.22224 0.50344 0.97791 0.0
C875 C 0.20698 0.52682 0.01311 0.0
C876 C 0.2203 0.54563 0.08411 0.0
C877 C 0.24685 0.53953 0.12613 0.0
C878 C 0.20992 0.48273 0.90124 0.0
C879 C 0.20627 0.57189 0.11919 0.0
C880 C 0.13975 0.541 0.85166 0.0
C881 C 0.11914 0.53455 0.92773 0.0
C882 C 0.16818 0.5393 0.87797 0.0
C883 C 0.17668 0.5303 0.98303 0.0
C884 C 0.15571 0.52378 0.05954 0.0
C885 C 0.12764 0.52621 0.03154 0.0
C886 C 0.18862 0.54751 0.79163 0.0
C887 C 0.16217 0.51475 0.17346 0.0
H888 H 0.26086 0.48109 0.98825 0.0
H889 H 0.25593 0.55312 0.18545 0.0
H890 H 0.18821 0.47824 0.923 0.0
H891 H 0.21022 0.49128 0.81776 0.0
H892 H 0.22164 0.46301 0.90102 0.0
H893 H 0.19308 0.56757 0.19061 0.0
H894 H 0.22152 0.58775 0.14309 0.0
H895 H 0.19307 0.58045 0.05372 0.0
H896 H 0.13372 0.54769 0.77137 0.0
H897 H 0.11223 0.5213 0.09223 0.0
H898 H 0.18886 0.53158 0.72728 0.0
H899 H 0.20981 0.55015 0.82305 0.0
H900 H 0.18203 0.56715 0.75263 0.0
H901 H 0.14756 0.49859 0.20104 0.0
H902 H 0.15919 0.53275 0.22722 0.0
H903 H 0.18345 0.50691 0.18312 0.0
C904 C 0.0579 0.83437 0.48619 0.0
C905 C 0.03647 0.81688 0.51943 0.0
C906 C 0.06009 0.86181 0.52438 0.0
C907 C 0.04148 0.87188 0.60457 0.0
C908 C 1.02139 0.85313 0.64587 0.0
C909 C 1.01889 0.82631 0.60163 0.0
C910 C 0.08139 0.88002 0.47126 0.0
C911 C 1.001 0.8614 0.73216 0.0
C912 C 0.06257 0.94156 0.73395 0.0
C913 C 0.04162 0.9596 0.69913 0.0
C914 C 0.06279 0.9132 0.70468 0.0
C915 C 0.04151 0.90218 0.63827 0.0
C916 C 1.02038 0.92055 0.60276 0.0
C917 C 1.02079 0.94864 0.63329 0.0
C918 C 0.08592 0.89506 0.74523 0.0
C919 C 0.99674 0.91129 0.53258 0.0
H920 H 0.07181 0.82725 0.42355 0.0
H921 H 1.0022 0.8131 0.62805 0.0
H922 H 0.08032 0.90194 0.49571 0.0
H923 H 0.10224 0.87181 0.48945 0.0
H924 H 0.07889 0.87933 0.38229 0.0
H925 H 0.99901 0.84464 0.79334 0.0
H926 H 1.00662 0.88069 0.77424 0.0
H927 H 0.98047 0.86427 0.69439 0.0
H928 H 0.07912 0.94972 0.78281 0.0
H929 H 1.00436 0.96209 0.60546 0.0
H930 H 0.09965 0.88939 0.67722 0.0
H931 H 0.07765 0.87565 0.78029 0.0
H932 H 0.09881 0.90555 0.80646 0.0
H933 H 0.99392 0.92593 0.46392 0.0
H934 H 0.9775 0.91184 0.58117 0.0
H935 H 0.99926 0.89028 0.49932 0.0
C936 C 0.74423 0.06113 0.42433 0.0
C937 C 0.76163 0.03928 0.45542 0.0
C938 C 0.71687 0.06332 0.46341 0.0
C939 C 0.7069 0.04439 0.5429 0.0
C940 C 0.72569 1.02414 0.58331 0.0
C941 C 0.75235 1.0215 0.53758 0.0
C942 C 0.69864 0.08494 0.41174 0.0
C943 C 0.71752 1.00373 0.67008 0.0
C944 C 0.63701 0.06454 0.6735 0.0
C945 C 0.61942 0.04353 0.6378 0.0
C946 C 0.66528 0.06516 0.64373 0.0
C947 C 0.67665 0.04414 0.57642 0.0
C948 C 0.65867 1.02298 0.53983 0.0
C949 C 0.63062 1.02308 0.57044 0.0
C950 C 0.68298 0.08842 0.6847 0.0
C951 C 0.6683 0.99965 0.46832 0.0
H952 H 0.75126 0.0753 0.36212 0.0
H953 H 0.76551 1.00455 0.56261 0.0
H954 H 0.69936 0.0828 0.32267 0.0
H955 H 0.67676 0.08382 0.43648 0.0
H956 H 0.70675 0.10573 0.43077 0.0
H957 H 0.73482 1.0004 0.72749 0.0
H958 H 0.69916 1.01036 0.71655 0.0
H959 H 0.71305 0.98358 0.63174 0.0
H960 H 0.62849 0.08086 0.72301 0.0
H961 H 0.61739 1.00669 0.54188 0.0
H962 H 0.68881 0.10222 0.61691 0.0
H963 H 0.70227 0.08018 0.72061 0.0
H964 H 0.67211 0.10134 0.74515 0.0
H965 H 0.65385 0.99708 0.39946 0.0
H966 H 0.66786 0.98014 0.51574 0.0
H967 H 0.6893 1.00241 0.43524 0.0
C968 C 0.5594 0.75353 0.4873 0.0
C969 C 0.53408 0.7675 0.48404 0.0
C970 C 0.56228 0.728 0.54282 0.0
C971 C 0.53919 0.71564 0.59477 0.0
C972 C 0.51401 0.73062 0.59678 0.0
C973 C 0.51195 0.75631 0.54282 0.0
C974 C 0.58985 0.71366 0.54173 0.0
C975 C 0.48875 0.71939 0.65282 0.0
C976 C 0.53731 0.63652 0.59184 0.0
C977 C 0.54128 0.62911 0.70109 0.0
C978 C 0.53636 0.66425 0.5575 0.0
C979 C 0.54031 0.68584 0.63309 0.0
C980 C 0.54442 0.67861 0.74392 0.0
C981 C 0.54445 0.65045 0.77679 0.0
C982 C 0.53123 0.67015 0.43907 0.0
C983 C 0.54889 0.70058 0.82799 0.0
H984 H 0.57656 0.76184 0.44167 0.0
H985 H 0.49241 0.76715 0.54169 0.0
H986 H 0.5945 0.70472 0.6227 0.0
H987 H 0.5894 0.69648 0.48276 0.0
H988 H 0.6067 0.72791 0.51816 0.0
H989 H 0.46958 0.72856 0.61909 0.0
H990 H 0.4874 0.69662 0.64655 0.0
H991 H 0.48965 0.72473 0.74002 0.0
H992 H 0.53455 0.62046 0.532 0.0
H993 H 0.54756 0.64516 0.86133 0.0
H994 H 0.55118 0.67355 0.39747 0.0
H995 H 0.51851 0.68895 0.42779 0.0
H996 H 0.52077 0.65262 0.39879 0.0
H997 H 0.55696 0.69184 0.90508 0.0
H998 H 0.52906 0.71103 0.84547 0.0
H999 H 0.56346 0.71643 0.79758 0.0
C1000 C 0.83676 0.52622 0.45589 0.0
C1001 C 0.81157 0.52751 0.51144 0.0
C1002 C 0.86227 0.52761 0.51032 0.0
C1003 C 0.86318 0.53333 0.62332 0.0
C1004 C 0.8376 0.53696 0.67854 0.0
C1005 C 0.81233 0.53309 0.62298 0.0
C1006 C 0.88803 0.5222 0.44494 0.0
C1007 C 0.83646 0.54453 0.79683 0.0
C1008 C 0.92825 0.51747 0.79467 0.0
C1009 C 0.94606 0.5389 0.7638 0.0
C1010 C 0.90103 0.51573 0.75351 0.0
C1011 C 0.89078 0.53632 0.68068 0.0
C1012 C 0.90815 0.55913 0.65673 0.0
C1013 C 0.93545 0.55974 0.69594 0.0
C1014 C 0.8837 0.49165 0.79009 0.0
C1015 C 0.89839 0.58326 0.58903 0.0
H1016 H 0.83668 0.5236 0.36908 0.0
H1017 H 0.79308 0.53423 0.66722 0.0
H1018 H 0.89431 0.54146 0.40307 0.0
H1019 H 0.90539 0.51469 0.49547 0.0
H1020 H 0.88406 0.50662 0.38125 0.0
H1021 H 0.83426 0.52544 0.84597 0.0
H1022 H 0.85519 0.55558 0.82361 0.0
H1023 H 0.81822 0.5577 0.81382 0.0
H1024 H 0.93586 0.50141 0.84834 0.0
H1025 H 0.94857 0.57686 0.67312 0.0
H1026 H 0.89641 0.47262 0.79617 0.0
H1027 H 0.866 0.48761 0.736 0.0
H1028 H 0.87568 0.49595 0.87258 0.0
H1029 H 0.90635 0.58106 0.50523 0.0
H1030 H 0.90678 0.60286 0.62129 0.0
H1031 H 0.87563 0.585 0.58634 0.0
loop_
_geom_bond_atom_site_label_1
_geom_bond_atom_site_label_2
_geom_bond_distance
_geom_bond_site_symmetry_2
_ccdc_geom_bond_type
C0 N1 1.317 . S
C0 N2 1.348 . S
C0 C3 1.485 . S
N1 C0 1.317 . S
N1 N5 1.370 . S
N2 C0 1.348 . S
N2 C4 1.346 . S
C3 C0 1.485 . S
C3 H7 0.960 . S
C3 H8 0.961 . S
C3 H9 0.960 . S
C4 N2 1.346 . S
C4 N5 1.307 . S
C4 C6 1.486 . S
N5 N1 1.370 . S
N5 C4 1.307 . S
C6 C4 1.486 . S
C6 H10 0.960 . S
C6 H11 0.960 . S
C6 H12 0.959 . S
H7 C3 0.960 . S
H8 C3 0.961 . S
H9 C3 0.960 . S
H10 C6 0.960 . S
H11 C6 0.960 . S
H12 C6 0.959 . S
C13 N14 1.317 . S
C13 N15 1.350 . S
C13 C16 1.485 . S
N14 C13 1.317 . S
N14 N18 1.371 . S
N15 C13 1.350 . S
N15 C17 1.345 1_655 S
C16 C13 1.485 . S
C16 H20 0.960 1_655 S
C16 H21 0.961 . S
C16 H22 0.960 . S
C17 N15 1.345 1_455 S
C17 N18 1.307 1_455 S
C17 C19 1.486 . S
N18 N14 1.371 . S
N18 C17 1.307 1_655 S
C19 C17 1.486 . S
C19 H23 0.922 1_455 S
C19 H24 0.991 . S
C19 H25 0.967 . S
H20 C16 0.960 1_455 S
H21 C16 0.961 . S
H22 C16 0.960 . S
H23 C19 0.922 1_655 S
H24 C19 0.991 . S
H25 C19 0.967 . S
C26 N27 1.317 . S
C26 N28 1.350 . S
C26 C29 1.485 . S
N27 C26 1.317 . S
N27 N31 1.371 . S
N28 C26 1.350 . S
N28 C30 1.345 1_565 S
C29 C26 1.485 . S
C29 H33 0.960 1_565 S
C29 H34 0.961 . S
C29 H35 0.960 . S
C30 N28 1.345 1_545 S
C30 N31 1.307 1_545 S
C30 C32 1.486 . S
N31 N27 1.371 . S
N31 C30 1.307 1_565 S
C32 C30 1.486 . S
C32 H36 0.922 1_545 S
C32 H37 0.991 . S
C32 H38 0.967 . S
H33 C29 0.960 1_545 S
H34 C29 0.961 . S
H35 C29 0.960 . S
H36 C32 0.922 1_565 S
H37 C32 0.991 . S
H38 C32 0.967 . S
C39 N40 1.317 . S
C39 N41 1.348 . S
C39 C42 1.485 . S
N40 C39 1.317 . S
N40 N44 1.370 . S
N41 C39 1.348 . S
N41 C43 1.346 . S
C42 C39 1.485 . S
C42 H46 0.960 . S
C42 H47 0.961 . S
C42 H48 0.960 . S
C43 N41 1.346 . S
C43 N44 1.307 . S
C43 C45 1.486 . S
N44 N40 1.370 . S
N44 C43 1.307 . S
C45 C43 1.486 . S
C45 H49 0.960 . S
C45 H50 0.960 . S
C45 H51 0.959 . S
H46 C42 0.960 . S
H47 C42 0.961 . S
H48 C42 0.960 . S
H49 C45 0.960 . S
H50 C45 0.960 . S
H51 C45 0.959 . S
C52 N53 1.317 . S
C52 N54 1.348 1_556 S
C52 C55 1.485 . S
N53 C52 1.317 . S
N53 N57 1.370 1_556 S
N54 C52 1.348 1_554 S
N54 C56 1.346 . S
C55 C52 1.485 . S
C55 H59 0.960 . S
C55 H60 0.961 . S
C55 H61 0.960 . S
C56 N54 1.346 . S
C56 N57 1.307 . S
C56 C58 1.486 . S
N57 N53 1.370 1_554 S
N57 C56 1.307 . S
C58 C56 1.486 . S
C58 H62 0.960 . S
C58 H63 0.960 . S
C58 H64 0.959 . S
H59 C55 0.960 . S
H60 C55 0.961 . S
H61 C55 0.960 . S
H62 C58 0.960 . S
H63 C58 0.960 . S
H64 C58 0.959 . S
C65 N66 1.317 . S
C65 N67 1.350 1_556 S
C65 C68 1.485 . S
N66 C65 1.317 . S
N66 N70 1.370 1_556 S
N67 C65 1.350 1_554 S
N67 C69 1.345 1_655 S
C68 C65 1.485 . S
C68 H72 0.960 1_655 S
C68 H73 0.961 . S
C68 H74 0.960 . S
C69 N67 1.345 1_455 S
C69 N70 1.307 1_455 S
C69 C71 1.486 . S
N70 N66 1.370 1_554 S
N70 C69 1.307 1_655 S
C71 C69 1.486 . S
C71 H75 0.960 1_455 S
C71 H76 0.960 . S
C71 H77 0.959 . S
H72 C68 0.960 1_455 S
H73 C68 0.961 . S
H74 C68 0.960 . S
H75 C71 0.960 1_655 S
H76 C71 0.960 . S
H77 C71 0.959 . S
C78 N79 1.317 . S
C78 N80 1.350 1_556 S
C78 C81 1.485 . S
N79 C78 1.317 . S
N79 N83 1.370 1_556 S
N80 C78 1.350 1_554 S
N80 C82 1.345 1_565 S
C81 C78 1.485 . S
C81 H85 0.960 1_565 S
C81 H86 0.961 . S
C81 H87 0.960 . S
C82 N80 1.345 1_545 S
C82 N83 1.307 1_545 S
C82 C84 1.487 . S
N83 N79 1.370 1_554 S
N83 C82 1.307 1_565 S
C84 C82 1.487 . S
C84 H88 0.960 1_545 S
C84 H89 0.960 . S
C84 H90 0.959 . S
H85 C81 0.960 1_545 S
H86 C81 0.961 . S
H87 C81 0.960 . S
H88 C84 0.960 1_565 S
H89 C84 0.960 . S
H90 C84 0.959 . S
C91 N92 1.317 . S
C91 N93 1.348 1_556 S
C91 C94 1.485 . S
N92 C91 1.317 . S
N92 N96 1.370 1_556 S
N93 C91 1.348 1_554 S
N93 C95 1.346 . S
C94 C91 1.485 . S
C94 H98 0.960 . S
C94 H99 0.961 . S
C94 H100 0.960 . S
C95 N93 1.346 . S
C95 N96 1.307 . S
C95 C97 1.486 . S
N96 N92 1.370 1_554 S
N96 C95 1.307 . S
C97 C95 1.486 . S
C97 H101 0.960 . S
C97 H102 0.960 . S
C97 H103 0.959 . S
H98 C94 0.960 . S
H99 C94 0.961 . S
H100 C94 0.960 . S
H101 C97 0.960 . S
H102 C97 0.960 . S
H103 C97 0.959 . S
La104 C106 2.928 1_556 S
La104 O124 2.521 . S
La104 O125 2.628 . S
La104 O126 2.554 . S
La104 O127 2.757 1_565 S
La104 O128 2.470 . S
La104 O133 2.482 1_455 S
La104 O135 2.503 1_565 S
La105 C115 2.928 . S
La105 O127 2.482 1_655 S
La105 O129 2.503 1_545 S
La105 O130 2.521 . S
La105 O131 2.628 . S
La105 O132 2.554 . S
La105 O133 2.757 1_545 S
La105 O134 2.470 . S
C106 La104 2.928 1_554 S
C106 C107 1.503 . S
C106 O124 1.261 1_554 S
C106 O125 1.243 1_554 S
C107 C106 1.503 . S
C107 C108 1.394 . S
C107 C112 1.373 . S
C108 C107 1.394 . S
C108 C109 1.380 . S
C108 H136 0.930 . S
C109 C108 1.380 . S
C109 C110 1.376 . S
C109 H137 0.930 . S
C110 C109 1.376 . S
C110 C111 1.370 . S
C111 C110 1.370 . S
C111 C112 1.396 . S
C111 H138 0.929 1_455 S
C112 C107 1.373 . S
C112 C111 1.396 . S
C112 H139 0.929 1_455 S
C113 O126 1.240 . S
C113 O127 1.289 1_565 S
C114 O128 1.258 1_655 S
C114 O129 1.256 . S
C115 La105 2.928 . S
C115 C116 1.503 . S
C115 O130 1.261 . S
C115 O131 1.243 . S
C116 C115 1.503 . S
C116 C117 1.394 . S
C116 C121 1.373 . S
C117 C116 1.394 . S
C117 C118 1.380 . S
C117 H140 0.930 . S
C118 C117 1.380 . S
C118 C119 1.376 . S
C118 H141 0.930 . S
C119 C118 1.376 . S
C119 C120 1.370 . S
C120 C119 1.370 . S
C120 C121 1.396 . S
C120 H142 0.929 1_655 S
C121 C116 1.373 . S
C121 C120 1.396 . S
C121 H143 0.929 1_655 S
C122 O132 1.240 . S
C122 O133 1.289 1_545 S
C123 O134 1.258 1_455 S
C123 O135 1.256 . S
O124 La104 2.521 . S
O124 C106 1.261 1_556 S
O125 La104 2.628 . S
O125 C106 1.243 1_556 S
O126 La104 2.554 . S
O126 C113 1.240 . S
O127 La104 2.757 1_545 S
O127 La105 2.482 1_455 S
O127 C113 1.289 1_545 S
O128 La104 2.470 . S
O128 C114 1.258 1_455 S
O129 La105 2.503 1_565 S
O129 C114 1.256 . S
O130 La105 2.521 . S
O130 C115 1.261 . S
O131 La105 2.628 . S
O131 C115 1.243 . S
O132 La105 2.554 . S
O132 C122 1.240 . S
O133 La104 2.482 1_655 S
O133 La105 2.757 1_565 S
O133 C122 1.289 1_565 S
O134 La105 2.470 . S
O134 C123 1.258 1_655 S
O135 La104 2.503 1_545 S
O135 C123 1.256 . S
H136 C108 0.930 . S
H137 C109 0.930 . S
H138 C111 0.929 1_655 S
H139 C112 0.929 1_655 S
H140 C117 0.930 . S
H141 C118 0.930 . S
H142 C120 0.929 1_455 S
H143 C121 0.929 1_455 S
La144 C146 2.928 1_556 S
La144 O164 2.521 . S
La144 O165 2.628 . S
La144 O166 2.554 . S
La144 O167 2.757 . S
La144 O168 2.470 . S
La144 O173 2.482 1_545 S
La144 O175 2.503 . S
La145 C155 2.928 . S
La145 O167 2.482 1_565 S
La145 O169 2.503 . S
La145 O170 2.521 . S
La145 O171 2.628 . S
La145 O172 2.554 . S
La145 O173 2.757 . S
La145 O174 2.470 . S
C146 La144 2.928 1_554 S
C146 C147 1.503 . S
C146 O164 1.261 1_554 S
C146 O165 1.243 1_554 S
C147 C146 1.503 . S
C147 C148 1.394 . S
C147 C152 1.373 . S
C148 C147 1.394 . S
C148 C149 1.380 . S
C148 H176 0.930 . S
C149 C148 1.380 . S
C149 C150 1.376 . S
C149 H177 0.930 . S
C150 C149 1.376 . S
C150 C151 1.370 . S
C151 C150 1.370 . S
C151 C152 1.396 . S
C151 H178 0.929 1_545 S
C152 C147 1.373 . S
C152 C151 1.396 . S
C152 H179 0.929 1_545 S
C153 O166 1.240 . S
C153 O167 1.289 . S
C154 O168 1.258 1_565 S
C154 O169 1.256 . S
C155 La145 2.928 . S
C155 C156 1.503 . S
C155 O170 1.261 . S
C155 O171 1.243 . S
C156 C155 1.503 . S
C156 C157 1.394 . S
C156 C161 1.373 . S
C157 C156 1.394 . S
C157 C158 1.380 . S
C157 H180 0.930 . S
C158 C157 1.380 . S
C158 C159 1.376 . S
C158 H181 0.930 . S
C159 C158 1.376 . S
C159 C160 1.370 . S
C160 C159 1.370 . S
C160 C161 1.396 . S
C160 H182 0.929 1_565 S
C161 C156 1.373 . S
C161 C160 1.396 . S
C161 H183 0.929 1_565 S
C162 O172 1.240 . S
C162 O173 1.289 . S
C163 O174 1.258 1_545 S
C163 O175 1.256 . S
O164 La144 2.521 . S
O164 C146 1.261 1_556 S
O165 La144 2.628 . S
O165 C146 1.243 1_556 S
O166 La144 2.554 . S
O166 C153 1.240 . S
O167 La144 2.757 . S
O167 La145 2.482 1_545 S
O167 C153 1.289 . S
O168 La144 2.470 . S
O168 C154 1.258 1_545 S
O169 La145 2.503 . S
O169 C154 1.256 . S
O170 La145 2.521 . S
O170 C155 1.261 . S
O171 La145 2.628 . S
O171 C155 1.243 . S
O172 La145 2.554 . S
O172 C162 1.240 . S
O173 La144 2.482 1_565 S
O173 La145 2.757 . S
O173 C162 1.289 . S
O174 La145 2.470 . S
O174 C163 1.258 1_565 S
O175 La144 2.503 . S
O175 C163 1.256 . S
H176 C148 0.930 . S
H177 C149 0.930 . S
H178 C151 0.929 1_565 S
H179 C152 0.929 1_565 S
H180 C157 0.930 . S
H181 C158 0.930 . S
H182 C160 0.929 1_545 S
H183 C161 0.929 1_545 S
La184 C186 2.928 1_556 S
La184 O204 2.521 . S
La184 O205 2.628 . S
La184 O206 2.554 . S
La184 O207 2.757 . S
La184 O208 2.470 . S
La184 O213 2.482 . S
La184 O215 2.503 . S
La185 C195 2.928 . S
La185 O207 2.482 . S
La185 O209 2.503 . S
La185 O210 2.521 . S
La185 O211 2.628 . S
La185 O212 2.554 . S
La185 O213 2.757 . S
La185 O214 2.470 . S
C186 La184 2.928 1_554 S
C186 C187 1.503 . S
C186 O204 1.261 1_554 S
C186 O205 1.243 1_554 S
C187 C186 1.503 . S
C187 C188 1.394 . S
C187 C192 1.373 . S
C188 C187 1.394 . S
C188 C189 1.380 . S
C188 H216 0.930 . S
C189 C188 1.380 . S
C189 C190 1.376 . S
C189 H217 0.930 . S
C190 C189 1.376 . S
C190 C191 1.370 . S
C191 C190 1.370 . S
C191 C192 1.396 . S
C191 H218 0.929 . S
C192 C187 1.373 . S
C192 C191 1.396 . S
C192 H219 0.929 . S
C193 O206 1.240 . S
C193 O207 1.289 . S
C194 O208 1.258 . S
C194 O209 1.256 . S
C195 La185 2.928 . S
C195 C196 1.503 . S
C195 O210 1.261 . S
C195 O211 1.243 . S
C196 C195 1.503 . S
C196 C197 1.394 . S
C196 C201 1.373 . S
C197 C196 1.394 . S
C197 C198 1.380 . S
C197 H220 0.930 . S
C198 C197 1.380 . S
C198 C199 1.376 . S
C198 H221 0.930 . S
C199 C198 1.376 . S
C199 C200 1.370 . S
C200 C199 1.370 . S
C200 C201 1.396 . S
C200 H222 0.929 . S
C201 C196 1.373 . S
C201 C200 1.396 . S
C201 H223 0.929 . S
C202 O212 1.240 . S
C202 O213 1.289 . S
C203 O214 1.258 . S
C203 O215 1.256 . S
O204 La184 2.521 . S
O204 C186 1.261 1_556 S
O205 La184 2.628 . S
O205 C186 1.243 1_556 S
O206 La184 2.554 . S
O206 C193 1.240 . S
O207 La184 2.757 . S
O207 La185 2.482 . S
O207 C193 1.289 . S
O208 La184 2.470 . S
O208 C194 1.258 . S
O209 La185 2.503 . S
O209 C194 1.256 . S
O210 La185 2.521 . S
O210 C195 1.261 . S
O211 La185 2.628 . S
O211 C195 1.243 . S
O212 La185 2.554 . S
O212 C202 1.240 . S
O213 La184 2.482 . S
O213 La185 2.757 . S
O213 C202 1.289 . S
O214 La185 2.470 . S
O214 C203 1.258 . S
O215 La184 2.503 . S
O215 C203 1.256 . S
H216 C188 0.930 . S
H217 C189 0.930 . S
H218 C191 0.929 . S
H219 C192 0.929 . S
H220 C197 0.930 . S
H221 C198 0.930 . S
H222 C200 0.929 . S
H223 C201 0.929 . S
La224 C226 2.928 1_556 S
La224 O244 2.521 . S
La224 O245 2.628 . S
La224 O246 2.554 . S
La224 O247 2.757 1_655 S
La224 O248 2.470 . S
La224 O253 2.482 . S
La224 O255 2.503 1_655 S
La225 C235 2.928 . S
La225 O247 2.482 . S
La225 O249 2.503 1_455 S
La225 O250 2.521 . S
La225 O251 2.628 . S
La225 O252 2.554 . S
La225 O253 2.757 1_455 S
La225 O254 2.470 . S
C226 La224 2.928 1_554 S
C226 C227 1.503 . S
C226 O244 1.261 1_554 S
C226 O245 1.243 1_554 S
C227 C226 1.503 . S
C227 C228 1.394 . S
C227 C232 1.373 . S
C228 C227 1.394 . S
C228 C229 1.380 . S
C228 H256 0.930 . S
C229 C228 1.380 . S
C229 C230 1.376 . S
C229 H257 0.930 . S
C230 C229 1.376 . S
C230 C231 1.370 . S
C231 C230 1.370 . S
C231 C232 1.396 . S
C231 H258 0.929 . S
C232 C227 1.373 . S
C232 C231 1.396 . S
C232 H259 0.929 . S
C233 O246 1.255 . S
C233 O247 1.280 1_655 S
C234 O248 1.258 . S
C234 O249 1.256 . S
C235 La225 2.928 . S
C235 C236 1.503 . S
C235 O250 1.261 . S
C235 O251 1.243 . S
C236 C235 1.503 . S
C236 C237 1.394 . S
C236 C241 1.373 . S
C237 C236 1.394 . S
C237 C238 1.380 . S
C237 H260 0.930 . S
C238 C237 1.380 . S
C238 C239 1.376 . S
C238 H261 0.930 . S
C239 C238 1.376 . S
C239 C240 1.370 . S
C240 C239 1.370 . S
C240 C241 1.396 . S
C240 H262 0.929 . S
C241 C236 1.373 . S
C241 C240 1.396 . S
C241 H263 0.929 . S
C242 O252 1.260 . S
C242 O253 1.277 1_455 S
C243 O254 1.258 . S
C243 O255 1.256 . S
O244 La224 2.521 . S
O244 C226 1.261 1_556 S
O245 La224 2.628 . S
O245 C226 1.243 1_556 S
O246 La224 2.554 . S
O246 C233 1.255 . S
O247 La224 2.757 1_455 S
O247 La225 2.482 . S
O247 C233 1.280 1_455 S
O248 La224 2.470 . S
O248 C234 1.258 . S
O249 La225 2.503 1_655 S
O249 C234 1.256 . S
O250 La225 2.521 . S
O250 C235 1.261 . S
O251 La225 2.628 . S
O251 C235 1.243 . S
O252 La225 2.554 . S
O252 C242 1.260 . S
O253 La224 2.482 . S
O253 La225 2.757 1_655 S
O253 C242 1.277 1_655 S
O254 La225 2.470 . S
O254 C243 1.258 . S
O255 La224 2.503 1_455 S
O255 C243 1.256 . S
H256 C228 0.930 . S
H257 C229 0.930 . S
H258 C231 0.929 . S
H259 C232 0.929 . S
H260 C237 0.930 . S
H261 C238 0.930 . S
H262 C240 0.929 . S
H263 C241 0.929 . S
C264 C265 1.391 . S
C264 C266 1.394 . S
C264 H280 0.931 . S
C265 C264 1.391 . S
C265 C269 1.375 1_565 S
C266 C264 1.394 . S
C266 C267 1.369 . S
C266 C270 1.531 . S
C267 C266 1.369 . S
C267 C268 1.410 . S
C267 C275 1.503 . S
C268 C267 1.410 . S
C268 C269 1.391 1_565 S
C268 C271 1.511 1_565 S
C269 C265 1.375 1_545 S
C269 C268 1.391 1_545 S
C269 H281 0.931 . S
C270 C266 1.531 . S
C270 H282 0.960 . S
C270 H283 0.962 1_565 S
C270 H284 0.960 . S
C271 C268 1.511 1_545 S
C271 H285 0.961 . S
C271 H286 0.961 . S
C271 H287 0.961 1_545 S
C272 C273 1.370 . S
C272 C274 1.363 . S
C272 H288 0.931 . S
C273 C272 1.370 . S
C273 C277 1.409 1_545 S
C274 C272 1.363 . S
C274 C275 1.370 1_545 S
C274 C278 1.524 . S
C275 C267 1.503 . S
C275 C274 1.370 1_565 S
C275 C276 1.403 . S
C276 C275 1.403 . S
C276 C277 1.404 . S
C276 C279 1.539 . S
C277 C273 1.409 1_565 S
C277 C276 1.404 . S
C277 H289 0.930 . S
C278 C274 1.524 . S
C278 H290 0.956 . S
C278 H291 0.961 . S
C278 H292 0.961 . S
C279 C276 1.539 . S
C279 H293 0.958 . S
C279 H294 0.961 . S
C279 H295 0.960 . S
H280 C264 0.931 . S
H281 C269 0.931 . S
H282 C270 0.960 . S
H283 C270 0.962 1_545 S
H284 C270 0.960 . S
H285 C271 0.961 . S
H286 C271 0.961 . S
H287 C271 0.961 1_565 S
H288 C272 0.931 . S
H289 C277 0.930 . S
H290 C278 0.956 . S
H291 C278 0.961 . S
H292 C278 0.961 . S
H293 C279 0.958 . S
H294 C279 0.961 . S
H295 C279 0.960 . S
C296 C297 1.391 . S
C296 C298 1.394 . S
C296 H312 0.931 . S
C297 C296 1.391 . S
C297 C301 1.376 . S
C298 C296 1.394 . S
C298 C299 1.369 . S
C298 C302 1.531 . S
C299 C298 1.369 . S
C299 C300 1.410 . S
C299 C307 1.503 . S
C300 C299 1.410 . S
C300 C301 1.392 . S
C300 C303 1.511 . S
C301 C297 1.376 . S
C301 C300 1.392 . S
C301 H313 0.929 . S
C302 C298 1.531 . S
C302 H314 0.960 . S
C302 H315 0.962 . S
C302 H316 0.960 . S
C303 C300 1.511 . S
C303 H317 0.961 . S
C303 H318 0.961 . S
C303 H319 0.961 . S
C304 C305 1.370 . S
C304 C306 1.363 . S
C304 H320 0.931 . S
C305 C304 1.370 . S
C305 C309 1.408 . S
C306 C304 1.363 . S
C306 C307 1.370 . S
C306 C310 1.524 . S
C307 C299 1.503 . S
C307 C306 1.370 . S
C307 C308 1.403 . S
C308 C307 1.403 . S
C308 C309 1.404 . S
C308 C311 1.539 . S
C309 C305 1.408 . S
C309 C308 1.404 . S
C309 H321 0.930 . S
C310 C306 1.524 . S
C310 H322 0.956 . S
C310 H323 0.961 . S
C310 H324 0.961 . S
C311 C308 1.539 . S
C311 H325 0.958 . S
C311 H326 0.961 . S
C311 H327 0.960 . S
H312 C296 0.931 . S
H313 C301 0.929 . S
H314 C302 0.960 . S
H315 C302 0.962 . S
H316 C302 0.960 . S
H317 C303 0.961 . S
H318 C303 0.961 . S
H319 C303 0.961 . S
H320 C304 0.931 . S
H321 C309 0.930 . S
H322 C310 0.956 . S
H323 C310 0.961 . S
H324 C310 0.961 . S
H325 C311 0.958 . S
H326 C311 0.961 . S
H327 C311 0.960 . S
C328 C329 1.391 . S
C328 C330 1.394 . S
C328 H344 0.931 . S
C329 C328 1.391 . S
C329 C333 1.376 . S
C330 C328 1.394 . S
C330 C331 1.369 . S
C330 C334 1.531 . S
C331 C330 1.369 . S
C331 C332 1.410 . S
C331 C339 1.503 . S
C332 C331 1.410 . S
C332 C333 1.392 . S
C332 C335 1.511 . S
C333 C329 1.376 . S
C333 C332 1.392 . S
C333 H345 0.929 . S
C334 C330 1.531 . S
C334 H346 0.960 . S
C334 H347 0.962 . S
C334 H348 0.960 . S
C335 C332 1.511 . S
C335 H349 0.961 . S
C335 H350 0.961 . S
C335 H351 0.961 . S
C336 C337 1.370 . S
C336 C338 1.363 . S
C336 H352 0.931 . S
C337 C336 1.370 . S
C337 C341 1.408 . S
C338 C336 1.363 . S
C338 C339 1.370 . S
C338 C342 1.524 . S
C339 C331 1.503 . S
C339 C338 1.370 . S
C339 C340 1.403 . S
C340 C339 1.403 . S
C340 C341 1.404 . S
C340 C343 1.539 . S
C341 C337 1.408 . S
C341 C340 1.404 . S
C341 H353 0.930 . S
C342 C338 1.524 . S
C342 H354 0.956 . S
C342 H355 0.961 . S
C342 H356 0.961 . S
C343 C340 1.539 . S
C343 H357 0.958 . S
C343 H358 0.961 . S
C343 H359 0.960 . S
H344 C328 0.931 . S
H345 C333 0.929 . S
H346 C334 0.960 . S
H347 C334 0.962 . S
H348 C334 0.960 . S
H349 C335 0.961 . S
H350 C335 0.961 . S
H351 C335 0.961 . S
H352 C336 0.931 . S
H353 C341 0.930 . S
H354 C342 0.956 . S
H355 C342 0.961 . S
H356 C342 0.961 . S
H357 C343 0.958 . S
H358 C343 0.961 . S
H359 C343 0.960 . S
C360 C361 1.391 . S
C360 C362 1.394 . S
C360 H376 0.931 . S
C361 C360 1.391 . S
C361 C365 1.376 1_455 S
C362 C360 1.394 . S
C362 C363 1.369 . S
C362 C366 1.531 . S
C363 C362 1.369 . S
C363 C364 1.410 1_455 S
C363 C371 1.503 . S
C364 C363 1.410 1_655 S
C364 C365 1.392 . S
C364 C367 1.511 . S
C365 C361 1.376 1_655 S
C365 C364 1.392 . S
C365 H377 0.929 . S
C366 C362 1.531 . S
C366 H378 0.960 . S
C366 H379 0.962 . S
C366 H380 0.960 . S
C367 C364 1.511 . S
C367 H381 0.961 . S
C367 H382 0.961 . S
C367 H383 0.961 . S
C368 C369 1.370 1_655 S
C368 C370 1.363 . S
C368 H384 0.931 . S
C369 C368 1.370 1_455 S
C369 C373 1.408 . S
C370 C368 1.363 . S
C370 C371 1.370 1_655 S
C370 C374 1.524 . S
C371 C363 1.503 . S
C371 C370 1.370 1_455 S
C371 C372 1.403 . S
C372 C371 1.403 . S
C372 C373 1.404 . S
C372 C375 1.539 . S
C373 C369 1.408 . S
C373 C372 1.404 . S
C373 H385 0.930 . S
C374 C370 1.524 . S
C374 H386 0.956 . S
C374 H387 0.961 . S
C374 H388 0.961 . S
C375 C372 1.539 . S
C375 H389 0.958 . S
C375 H390 0.961 . S
C375 H391 0.960 . S
H376 C360 0.931 . S
H377 C365 0.929 . S
H378 C366 0.960 . S
H379 C366 0.962 . S
H380 C366 0.960 . S
H381 C367 0.961 . S
H382 C367 0.961 . S
H383 C367 0.961 . S
H384 C368 0.931 . S
H385 C373 0.930 . S
H386 C374 0.956 . S
H387 C374 0.961 . S
H388 C374 0.961 . S
H389 C375 0.958 . S
H390 C375 0.961 . S
H391 C375 0.960 . S
C392 C393 1.379 1_545 S
C392 C394 1.394 . S
C392 H408 0.931 . S
C393 C392 1.379 1_565 S
C393 C397 1.388 . S
C394 C392 1.394 . S
C394 C395 1.337 1_545 S
C394 C398 1.531 . S
C395 C394 1.337 1_565 S
C395 C396 1.441 . S
C395 C403 1.503 . S
C396 C395 1.441 . S
C396 C397 1.392 . S
C396 C399 1.511 . S
C397 C393 1.388 . S
C397 C396 1.392 . S
C397 H409 0.929 . S
C398 C394 1.531 . S
C398 H410 0.960 . S
C398 H411 0.962 . S
C398 H412 0.960 . S
C399 C396 1.511 . S
C399 H413 0.961 . S
C399 H414 0.961 . S
C399 H415 0.961 . S
C400 C401 1.370 1_545 S
C400 C402 1.363 1_556 S
C400 H416 0.931 . S
C401 C400 1.370 1_565 S
C401 C405 1.408 1_556 S
C402 C400 1.363 1_554 S
C402 C403 1.366 1_545 S
C402 C406 1.524 . S
C403 C395 1.503 . S
C403 C402 1.366 1_565 S
C403 C404 1.408 . S
C404 C403 1.408 . S
C404 C405 1.404 . S
C404 C407 1.539 . S
C405 C401 1.408 1_554 S
C405 C404 1.404 . S
C405 H417 0.930 . S
C406 C402 1.524 . S
C406 H418 0.956 . S
C406 H419 0.961 1_545 S
C406 H420 0.961 1_554 S
C407 C404 1.539 . S
C407 H421 0.958 1_565 S
C407 H422 0.961 . S
C407 H423 0.960 . S
H408 C392 0.931 . S
H409 C397 0.929 . S
H410 C398 0.960 . S
H411 C398 0.962 . S
H412 C398 0.960 . S
H413 C399 0.961 . S
H414 C399 0.961 . S
H415 C399 0.961 . S
H416 C400 0.931 . S
H417 C405 0.930 . S
H418 C406 0.956 . S
H419 C406 0.961 1_565 S
H420 C406 0.961 1_556 S
H421 C407 0.958 1_545 S
H422 C407 0.961 . S
H423 C407 0.960 . S
C424 C425 1.391 . S
C424 C426 1.394 . S
C424 H440 0.931 . S
C425 C424 1.391 . S
C425 C429 1.376 . S
C426 C424 1.394 . S
C426 C427 1.369 . S
C426 C430 1.531 . S
C427 C426 1.369 . S
C427 C428 1.410 . S
C427 C435 1.503 . S
C428 C427 1.410 . S
C428 C429 1.392 . S
C428 C431 1.511 . S
C429 C425 1.376 . S
C429 C428 1.392 . S
C429 H441 0.929 . S
C430 C426 1.531 . S
C430 H442 0.960 . S
C430 H443 0.962 . S
C430 H444 0.960 . S
C431 C428 1.511 . S
C431 H445 0.961 . S
C431 H446 0.961 . S
C431 H447 0.961 . S
C432 C433 1.370 1_554 S
C432 C434 1.363 . S
C432 H448 0.931 . S
C433 C432 1.370 1_556 S
C433 C437 1.408 . S
C434 C432 1.363 . S
C434 C435 1.370 . S
C434 C438 1.524 . S
C435 C427 1.503 . S
C435 C434 1.370 . S
C435 C436 1.403 . S
C436 C435 1.403 . S
C436 C437 1.404 1_554 S
C436 C439 1.539 . S
C437 C433 1.408 . S
C437 C436 1.404 1_556 S
C437 H449 0.930 . S
C438 C434 1.524 . S
C438 H450 0.956 . S
C438 H451 0.961 . S
C438 H452 0.961 . S
C439 C436 1.539 . S
C439 H453 0.958 1_554 S
C439 H454 0.961 . S
C439 H455 0.960 . S
H440 C424 0.931 . S
H441 C429 0.929 . S
H442 C430 0.960 . S
H443 C430 0.962 . S
H444 C430 0.960 . S
H445 C431 0.961 . S
H446 C431 0.961 . S
H447 C431 0.961 . S
H448 C432 0.931 . S
H449 C437 0.930 . S
H450 C438 0.956 . S
H451 C438 0.961 . S
H452 C438 0.961 . S
H453 C439 0.958 1_556 S
H454 C439 0.961 . S
H455 C439 0.960 . S
C456 C457 1.391 . S
C456 C458 1.394 . S
C456 H472 0.931 . S
C457 C456 1.391 . S
C457 C461 1.376 . S
C458 C456 1.394 . S
C458 C459 1.369 . S
C458 C462 1.531 . S
C459 C458 1.369 . S
C459 C460 1.410 . S
C459 C467 1.503 . S
C460 C459 1.410 . S
C460 C461 1.392 . S
C460 C463 1.511 . S
C461 C457 1.376 . S
C461 C460 1.392 . S
C461 H473 0.929 . S
C462 C458 1.531 . S
C462 H474 0.960 . S
C462 H475 0.962 . S
C462 H476 0.960 . S
C463 C460 1.511 . S
C463 H477 0.961 . S
C463 H478 0.961 . S
C463 H479 0.961 . S
C464 C465 1.370 1_554 S
C464 C466 1.363 . S
C464 H480 0.931 . S
C465 C464 1.370 1_556 S
C465 C469 1.408 . S
C466 C464 1.363 . S
C466 C467 1.370 . S
C466 C470 1.524 . S
C467 C459 1.503 . S
C467 C466 1.370 . S
C467 C468 1.403 . S
C468 C467 1.403 . S
C468 C469 1.404 1_554 S
C468 C471 1.539 1_554 S
C469 C465 1.408 . S
C469 C468 1.404 1_556 S
C469 H481 0.930 . S
C470 C466 1.524 . S
C470 H482 0.956 . S
C470 H483 0.961 . S
C470 H484 0.961 . S
C471 C468 1.539 1_556 S
C471 H485 0.958 . S
C471 H486 0.961 . S
C471 H487 0.960 1_556 S
H472 C456 0.931 . S
H473 C461 0.929 . S
H474 C462 0.960 . S
H475 C462 0.962 . S
H476 C462 0.960 . S
H477 C463 0.961 . S
H478 C463 0.961 . S
H479 C463 0.961 . S
H480 C464 0.931 . S
H481 C469 0.930 . S
H482 C470 0.956 . S
H483 C470 0.961 . S
H484 C470 0.961 . S
H485 C471 0.958 . S
H486 C471 0.961 . S
H487 C471 0.960 1_554 S
C488 C489 1.391 . S
C488 C490 1.394 . S
C488 H504 0.931 . S
C489 C488 1.391 . S
C489 C493 1.376 1_455 S
C490 C488 1.394 . S
C490 C491 1.369 . S
C490 C494 1.531 . S
C491 C490 1.369 . S
C491 C492 1.410 1_455 S
C491 C499 1.503 . S
C492 C491 1.410 1_655 S
C492 C493 1.392 . S
C492 C495 1.511 . S
C493 C489 1.376 1_655 S
C493 C492 1.392 . S
C493 H505 0.929 . S
C494 C490 1.531 . S
C494 H506 0.960 . S
C494 H507 0.962 . S
C494 H508 0.960 . S
C495 C492 1.511 . S
C495 H509 0.961 . S
C495 H510 0.961 . S
C495 H511 0.961 . S
C496 C497 1.370 . S
C496 C498 1.363 1_556 S
C496 H512 0.931 . S
C497 C496 1.370 . S
C497 C501 1.408 1_656 S
C498 C496 1.363 1_554 S
C498 C499 1.370 1_655 S
C498 C502 1.524 . S
C499 C491 1.503 . S
C499 C498 1.370 1_455 S
C499 C500 1.403 . S
C500 C499 1.403 . S
C500 C501 1.404 . S
C500 C503 1.539 . S
C501 C497 1.408 1_454 S
C501 C500 1.404 . S
C501 H513 0.930 . S
C502 C498 1.524 . S
C502 H514 0.956 . S
C502 H515 0.961 . S
C502 H516 0.954 1_554 S
C503 C500 1.539 . S
C503 H517 0.958 . S
C503 H518 0.961 . S
C503 H519 0.960 . S
H504 C488 0.931 . S
H505 C493 0.929 . S
H506 C494 0.960 . S
H507 C494 0.962 . S
H508 C494 0.960 . S
H509 C495 0.961 . S
H510 C495 0.961 . S
H511 C495 0.961 . S
H512 C496 0.931 . S
H513 C501 0.930 . S
H514 C502 0.956 . S
H515 C502 0.961 . S
H516 C502 0.954 1_556 S
H517 C503 0.958 . S
H518 C503 0.961 . S
H519 C503 0.960 . S
C520 C521 1.391 . S
C520 C522 1.394 . S
C520 H536 0.931 . S
C521 C520 1.391 . S
C521 C525 1.376 1_455 S
C522 C520 1.394 . S
C522 C523 1.369 1_455 S
C522 C526 1.531 . S
C523 C522 1.369 1_655 S
C523 C524 1.410 . S
C523 C531 1.503 . S
C524 C523 1.410 . S
C524 C525 1.392 . S
C524 C527 1.511 . S
C525 C521 1.376 1_655 S
C525 C524 1.392 . S
C525 H537 0.929 . S
C526 C522 1.531 . S
C526 H538 0.960 . S
C526 H539 0.962 . S
C526 H540 0.960 . S
C527 C524 1.511 . S
C527 H541 0.961 . S
C527 H542 0.961 . S
C527 H543 0.961 . S
C528 C529 1.370 . S
C528 C530 1.363 . S
C528 H544 0.931 . S
C529 C528 1.370 . S
C529 C533 1.408 . S
C530 C528 1.363 . S
C530 C531 1.370 . S
C530 C534 1.524 . S
C531 C523 1.503 . S
C531 C530 1.370 . S
C531 C532 1.403 . S
C532 C531 1.403 . S
C532 C533 1.404 . S
C532 C535 1.539 . S
C533 C529 1.408 . S
C533 C532 1.404 . S
C533 H545 0.930 . S
C534 C530 1.524 . S
C534 H546 0.956 . S
C534 H547 0.961 . S
C534 H548 0.961 . S
C535 C532 1.539 . S
C535 H549 0.958 1_655 S
C535 H550 0.961 . S
C535 H551 0.960 . S
H536 C520 0.931 . S
H537 C525 0.929 . S
H538 C526 0.960 . S
H539 C526 0.962 . S
H540 C526 0.960 . S
H541 C527 0.961 . S
H542 C527 0.961 . S
H543 C527 0.961 . S
H544 C528 0.931 . S
H545 C533 0.930 . S
H546 C534 0.956 . S
H547 C534 0.961 . S
H548 C534 0.961 . S
H549 C535 0.958 1_455 S
H550 C535 0.961 . S
H551 C535 0.960 . S
C552 C553 1.391 1_565 S
C552 C554 1.394 . S
C552 H568 0.931 . S
C553 C552 1.391 1_545 S
C553 C557 1.376 . S
C554 C552 1.394 . S
C554 C555 1.369 . S
C554 C558 1.531 . S
C555 C554 1.369 . S
C555 C556 1.410 1_565 S
C555 C563 1.503 . S
C556 C555 1.410 1_545 S
C556 C557 1.392 . S
C556 C559 1.511 . S
C557 C553 1.376 . S
C557 C556 1.392 . S
C557 H569 0.929 . S
C558 C554 1.531 . S
C558 H570 0.960 . S
C558 H571 0.962 . S
C558 H572 0.960 1_554 S
C559 C556 1.511 . S
C559 H573 0.961 . S
C559 H574 0.961 . S
C559 H575 0.961 . S
C560 C561 1.370 . S
C560 C562 1.363 . S
C560 H576 0.931 . S
C561 C560 1.370 . S
C561 C565 1.408 . S
C562 C560 1.363 . S
C562 C563 1.370 . S
C562 C566 1.524 . S
C563 C555 1.503 . S
C563 C562 1.370 . S
C563 C564 1.403 . S
C564 C563 1.403 . S
C564 C565 1.404 . S
C564 C567 1.539 1_565 S
C565 C561 1.408 . S
C565 C564 1.404 . S
C565 H577 0.930 . S
C566 C562 1.524 . S
C566 H578 0.956 . S
C566 H579 0.961 . S
C566 H580 0.961 . S
C567 C564 1.539 1_545 S
C567 H581 0.958 1_545 S
C567 H582 0.961 . S
C567 H583 0.960 . S
H568 C552 0.931 . S
H569 C557 0.929 . S
H570 C558 0.960 . S
H571 C558 0.962 . S
H572 C558 0.960 1_556 S
H573 C559 0.961 . S
H574 C559 0.961 . S
H575 C559 0.961 . S
H576 C560 0.931 . S
H577 C565 0.930 . S
H578 C566 0.956 . S
H579 C566 0.961 . S
H580 C566 0.961 . S
H581 C567 0.958 1_565 S
H582 C567 0.961 . S
H583 C567 0.960 . S
C584 C585 1.391 . S
C584 C586 1.394 . S
C584 H600 0.931 . S
C585 C584 1.391 . S
C585 C589 1.376 . S
C586 C584 1.394 . S
C586 C587 1.369 . S
C586 C590 1.531 . S
C587 C586 1.369 . S
C587 C588 1.410 . S
C587 C595 1.503 . S
C588 C587 1.410 . S
C588 C589 1.392 . S
C588 C591 1.511 . S
C589 C585 1.376 . S
C589 C588 1.392 . S
C589 H601 0.929 1_554 S
C590 C586 1.531 . S
C590 H602 0.960 . S
C590 H603 0.962 . S
C590 H604 0.960 . S
C591 C588 1.511 . S
C591 H605 0.961 1_554 S
C591 H606 0.961 . S
C591 H607 0.961 . S
C592 C593 1.370 . S
C592 C594 1.363 . S
C592 H608 0.931 . S
C593 C592 1.370 . S
C593 C597 1.408 . S
C594 C592 1.363 . S
C594 C595 1.370 . S
C594 C598 1.524 . S
C595 C587 1.503 . S
C595 C594 1.370 . S
C595 C596 1.403 . S
C596 C595 1.403 . S
C596 C597 1.404 . S
C596 C599 1.539 . S
C597 C593 1.408 . S
C597 C596 1.404 . S
C597 H609 0.930 . S
C598 C594 1.524 . S
C598 H610 0.956 . S
C598 H611 0.961 . S
C598 H612 0.961 . S
C599 C596 1.539 . S
C599 H613 0.958 . S
C599 H614 0.961 . S
C599 H615 0.960 . S
H600 C584 0.931 . S
H601 C589 0.929 1_556 S
H602 C590 0.960 . S
H603 C590 0.962 . S
H604 C590 0.960 . S
H605 C591 0.961 1_556 S
H606 C591 0.961 . S
H607 C591 0.961 . S
H608 C592 0.931 . S
H609 C597 0.930 . S
H610 C598 0.956 . S
H611 C598 0.961 . S
H612 C598 0.961 . S
H613 C599 0.958 . S
H614 C599 0.961 . S
H615 C599 0.960 . S
C616 C617 1.391 . S
C616 C618 1.394 . S
C616 H632 0.931 . S
C617 C616 1.391 . S
C617 C621 1.376 . S
C618 C616 1.394 . S
C618 C619 1.369 . S
C618 C622 1.531 . S
C619 C618 1.369 . S
C619 C620 1.410 . S
C619 C627 1.503 . S
C620 C619 1.410 . S
C620 C621 1.392 . S
C620 C623 1.511 . S
C621 C617 1.376 . S
C621 C620 1.392 . S
C621 H633 0.929 . S
C622 C618 1.531 . S
C622 H634 0.960 . S
C622 H635 0.962 . S
C622 H636 0.960 . S
C623 C620 1.511 . S
C623 H637 0.961 . S
C623 H638 0.961 . S
C623 H639 0.961 . S
C624 C625 1.370 . S
C624 C626 1.363 . S
C624 H640 0.931 . S
C625 C624 1.370 . S
C625 C629 1.408 . S
C626 C624 1.363 . S
C626 C627 1.370 . S
C626 C630 1.524 . S
C627 C619 1.503 . S
C627 C626 1.370 . S
C627 C628 1.403 . S
C628 C627 1.403 . S
C628 C629 1.404 . S
C628 C631 1.539 . S
C629 C625 1.408 . S
C629 C628 1.404 . S
C629 H641 0.930 . S
C630 C626 1.524 . S
C630 H642 0.956 . S
C630 H643 0.961 . S
C630 H644 0.961 . S
C631 C628 1.539 . S
C631 H645 0.958 . S
C631 H646 0.961 . S
C631 H647 0.960 . S
H632 C616 0.931 . S
H633 C621 0.929 . S
H634 C622 0.960 . S
H635 C622 0.962 . S
H636 C622 0.960 . S
H637 C623 0.961 . S
H638 C623 0.961 . S
H639 C623 0.961 . S
H640 C624 0.931 . S
H641 C629 0.930 . S
H642 C630 0.956 . S
H643 C630 0.961 . S
H644 C630 0.961 . S
H645 C631 0.958 . S
H646 C631 0.961 . S
H647 C631 0.960 . S
C648 C649 1.391 . S
C648 C650 1.394 . S
C648 H664 0.931 . S
C649 C648 1.391 . S
C649 C653 1.376 1_655 S
C650 C648 1.394 . S
C650 C651 1.369 1_655 S
C650 C654 1.531 . S
C651 C650 1.369 1_455 S
C651 C652 1.410 . S
C651 C659 1.503 . S
C652 C651 1.410 . S
C652 C653 1.392 . S
C652 C655 1.511 . S
C653 C649 1.376 1_455 S
C653 C652 1.392 . S
C653 H665 0.929 . S
C654 C650 1.531 . S
C654 H666 0.960 . S
C654 H667 0.962 . S
C654 H668 0.960 . S
C655 C652 1.511 . S
C655 H669 0.961 . S
C655 H670 0.961 . S
C655 H671 0.961 . S
C656 C657 1.370 . S
C656 C658 1.363 . S
C656 H672 0.931 . S
C657 C656 1.370 . S
C657 C661 1.408 . S
C658 C656 1.363 . S
C658 C659 1.370 . S
C658 C662 1.524 . S
C659 C651 1.503 . S
C659 C658 1.370 . S
C659 C660 1.403 . S
C660 C659 1.403 . S
C660 C661 1.404 . S
C660 C663 1.539 . S
C661 C657 1.408 . S
C661 C660 1.404 . S
C661 H673 0.930 . S
C662 C658 1.524 . S
C662 H674 0.956 1_455 S
C662 H675 0.961 . S
C662 H676 0.961 . S
C663 C660 1.539 . S
C663 H677 0.958 . S
C663 H678 0.961 . S
C663 H679 0.960 . S
H664 C648 0.931 . S
H665 C653 0.929 . S
H666 C654 0.960 . S
H667 C654 0.962 . S
H668 C654 0.960 . S
H669 C655 0.961 . S
H670 C655 0.961 . S
H671 C655 0.961 . S
H672 C656 0.931 . S
H673 C661 0.930 . S
H674 C662 0.956 1_655 S
H675 C662 0.961 . S
H676 C662 0.961 . S
H677 C663 0.958 . S
H678 C663 0.961 . S
H679 C663 0.960 . S
C680 C681 1.391 1_545 S
C680 C682 1.394 . S
C680 H696 0.931 . S
C681 C680 1.391 1_565 S
C681 C685 1.376 . S
C682 C680 1.394 . S
C682 C683 1.369 . S
C682 C686 1.531 . S
C683 C682 1.369 . S
C683 C684 1.410 1_545 S
C683 C691 1.503 . S
C684 C683 1.410 1_565 S
C684 C685 1.392 . S
C684 C687 1.511 . S
C685 C681 1.376 . S
C685 C684 1.392 . S
C685 H697 0.929 . S
C686 C682 1.531 . S
C686 H698 0.960 . S
C686 H699 0.962 . S
C686 H700 0.960 . S
C687 C684 1.511 . S
C687 H701 0.961 . S
C687 H702 0.961 . S
C687 H703 0.961 . S
C688 C689 1.370 . S
C688 C690 1.363 . S
C688 H704 0.931 . S
C689 C688 1.370 . S
C689 C693 1.408 . S
C690 C688 1.363 . S
C690 C691 1.370 . S
C690 C694 1.524 . S
C691 C683 1.503 . S
C691 C690 1.370 . S
C691 C692 1.403 . S
C692 C691 1.403 . S
C692 C693 1.404 . S
C692 C695 1.539 1_545 S
C693 C689 1.408 . S
C693 C692 1.404 . S
C693 H705 0.930 . S
C694 C690 1.524 . S
C694 H706 0.956 . S
C694 H707 0.961 . S
C694 H708 0.961 . S
C695 C692 1.539 1_565 S
C695 H709 0.958 . S
C695 H710 0.961 . S
C695 H711 0.960 . S
H696 C680 0.931 . S
H697 C685 0.929 . S
H698 C686 0.960 . S
H699 C686 0.962 . S
H700 C686 0.960 . S
H701 C687 0.961 . S
H702 C687 0.961 . S
H703 C687 0.961 . S
H704 C688 0.931 . S
H705 C693 0.930 . S
H706 C694 0.956 . S
H707 C694 0.961 . S
H708 C694 0.961 . S
H709 C695 0.958 . S
H710 C695 0.961 . S
H711 C695 0.960 . S
C712 C713 1.391 . S
C712 C714 1.394 . S
C712 H728 0.931 . S
C713 C712 1.391 . S
C713 C717 1.376 . S
C714 C712 1.394 . S
C714 C715 1.369 . S
C714 C718 1.531 . S
C715 C714 1.369 . S
C715 C716 1.410 . S
C715 C723 1.503 . S
C716 C715 1.410 . S
C716 C717 1.392 . S
C716 C719 1.511 . S
C717 C713 1.376 . S
C717 C716 1.392 . S
C717 H729 0.929 . S
C718 C714 1.531 . S
C718 H730 0.960 . S
C718 H731 0.962 . S
C718 H732 0.960 . S
C719 C716 1.511 . S
C719 H733 0.961 . S
C719 H734 0.961 . S
C719 H735 0.961 . S
C720 C721 1.370 . S
C720 C722 1.363 . S
C720 H736 0.931 . S
C721 C720 1.370 . S
C721 C725 1.408 . S
C722 C720 1.363 . S
C722 C723 1.370 . S
C722 C726 1.524 . S
C723 C715 1.503 . S
C723 C722 1.370 . S
C723 C724 1.403 . S
C724 C723 1.403 . S
C724 C725 1.404 . S
C724 C727 1.539 . S
C725 C721 1.408 . S
C725 C724 1.404 . S
C725 H737 0.930 . S
C726 C722 1.524 . S
C726 H738 0.956 . S
C726 H739 0.961 . S
C726 H740 0.961 . S
C727 C724 1.539 . S
C727 H741 0.958 . S
C727 H742 0.961 . S
C727 H743 0.960 . S
H728 C712 0.931 . S
H729 C717 0.929 . S
H730 C718 0.960 . S
H731 C718 0.962 . S
H732 C718 0.960 . S
H733 C719 0.961 . S
H734 C719 0.961 . S
H735 C719 0.961 . S
H736 C720 0.931 . S
H737 C725 0.930 . S
H738 C726 0.956 . S
H739 C726 0.961 . S
H740 C726 0.961 . S
H741 C727 0.958 . S
H742 C727 0.961 . S
H743 C727 0.960 . S
C744 C745 1.391 . S
C744 C746 1.394 . S
C744 H760 0.931 . S
C745 C744 1.391 . S
C745 C749 1.376 . S
C746 C744 1.394 . S
C746 C747 1.369 . S
C746 C750 1.531 . S
C747 C746 1.369 . S
C747 C748 1.410 . S
C747 C755 1.503 . S
C748 C747 1.410 . S
C748 C749 1.392 . S
C748 C751 1.511 . S
C749 C745 1.376 . S
C749 C748 1.392 . S
C749 H761 0.929 . S
C750 C746 1.531 . S
C750 H762 0.960 . S
C750 H763 0.962 . S
C750 H764 0.960 . S
C751 C748 1.511 . S
C751 H765 0.961 . S
C751 H766 0.961 . S
C751 H767 0.961 . S
C752 C753 1.370 . S
C752 C754 1.363 . S
C752 H768 0.931 . S
C753 C752 1.370 . S
C753 C757 1.408 . S
C754 C752 1.363 . S
C754 C755 1.370 . S
C754 C758 1.524 . S
C755 C747 1.503 . S
C755 C754 1.370 . S
C755 C756 1.403 . S
C756 C755 1.403 . S
C756 C757 1.404 . S
C756 C759 1.539 . S
C757 C753 1.408 . S
C757 C756 1.404 . S
C757 H769 0.930 . S
C758 C754 1.524 . S
C758 H770 0.956 . S
C758 H771 0.961 . S
C758 H772 0.961 . S
C759 C756 1.539 . S
C759 H773 0.958 . S
C759 H774 0.961 . S
C759 H775 0.960 . S
H760 C744 0.931 . S
H761 C749 0.929 . S
H762 C750 0.960 . S
H763 C750 0.962 . S
H764 C750 0.960 . S
H765 C751 0.961 . S
H766 C751 0.961 . S
H767 C751 0.961 . S
H768 C752 0.931 . S
H769 C757 0.930 . S
H770 C758 0.956 . S
H771 C758 0.961 . S
H772 C758 0.961 . S
H773 C759 0.958 . S
H774 C759 0.961 . S
H775 C759 0.960 . S
C776 C777 1.391 . S
C776 C778 1.394 . S
C776 H792 0.930 1_556 S
C777 C776 1.391 . S
C777 C781 1.376 1_455 S
C778 C776 1.394 . S
C778 C779 1.369 . S
C778 C782 1.531 1_556 S
C779 C778 1.369 . S
C779 C780 1.410 1_455 S
C779 C787 1.503 . S
C780 C779 1.410 1_655 S
C780 C781 1.392 . S
C780 C783 1.511 . S
C781 C777 1.376 1_655 S
C781 C780 1.392 . S
C781 H793 0.929 . S
C782 C778 1.531 1_554 S
C782 H794 0.960 . S
C782 H795 0.962 1_554 S
C782 H796 0.960 . S
C783 C780 1.511 . S
C783 H797 0.961 . S
C783 H798 0.961 . S
C783 H799 0.961 . S
C784 C785 1.370 . S
C784 C786 1.363 . S
C784 H800 0.931 . S
C785 C784 1.370 . S
C785 C789 1.407 . S
C786 C784 1.363 . S
C786 C787 1.370 . S
C786 C790 1.524 . S
C787 C779 1.503 . S
C787 C786 1.370 . S
C787 C788 1.403 1_455 S
C788 C787 1.403 1_655 S
C788 C789 1.404 1_655 S
C788 C791 1.539 1_556 S
C789 C785 1.407 . S
C789 C788 1.404 1_455 S
C789 H801 0.931 1_456 S
C790 C786 1.524 . S
C790 H802 0.956 . S
C790 H803 0.961 . S
C790 H804 0.961 . S
C791 C788 1.539 1_554 S
C791 H805 0.958 . S
C791 H806 0.961 . S
C791 H807 0.960 . S
H792 C776 0.930 1_554 S
H793 C781 0.929 . S
H794 C782 0.960 . S
H795 C782 0.962 1_556 S
H796 C782 0.960 . S
H797 C783 0.961 . S
H798 C783 0.961 . S
H799 C783 0.961 . S
H800 C784 0.931 . S
H801 C789 0.931 1_654 S
H802 C790 0.956 . S
H803 C790 0.961 . S
H804 C790 0.961 . S
H805 C791 0.958 . S
H806 C791 0.961 . S
H807 C791 0.960 . S
C808 C809 1.391 . S
C808 C810 1.394 . S
C808 H824 0.931 . S
C809 C808 1.391 . S
C809 C813 1.376 1_556 S
C810 C808 1.394 . S
C810 C811 1.369 . S
C810 C814 1.531 . S
C811 C810 1.369 . S
C811 C812 1.410 . S
C811 C819 1.503 . S
C812 C811 1.410 . S
C812 C813 1.392 1_556 S
C812 C815 1.511 1_556 S
C813 C809 1.376 1_554 S
C813 C812 1.392 1_554 S
C813 H825 0.929 . S
C814 C810 1.531 . S
C814 H826 0.960 . S
C814 H827 0.962 . S
C814 H828 0.960 . S
C815 C812 1.511 1_554 S
C815 H829 0.961 1_545 S
C815 H830 0.961 . S
C815 H831 0.961 . S
C816 C817 1.370 1_565 S
C816 C818 1.363 . S
C816 H832 0.931 . S
C817 C816 1.370 1_545 S
C817 C821 1.408 . S
C818 C816 1.363 . S
C818 C819 1.370 1_565 S
C818 C822 1.524 . S
C819 C811 1.503 . S
C819 C818 1.370 1_545 S
C819 C820 1.403 . S
C820 C819 1.403 . S
C820 C821 1.404 . S
C820 C823 1.539 . S
C821 C817 1.408 . S
C821 C820 1.404 . S
C821 H833 0.930 . S
C822 C818 1.524 . S
C822 H834 0.956 . S
C822 H835 0.961 . S
C822 H836 0.961 . S
C823 C820 1.539 . S
C823 H837 0.958 . S
C823 H838 0.961 . S
C823 H839 0.960 . S
H824 C808 0.931 . S
H825 C813 0.929 . S
H826 C814 0.960 . S
H827 C814 0.962 . S
H828 C814 0.960 . S
H829 C815 0.961 1_565 S
H830 C815 0.961 . S
H831 C815 0.961 . S
H832 C816 0.931 . S
H833 C821 0.930 . S
H834 C822 0.956 . S
H835 C822 0.961 . S
H836 C822 0.961 . S
H837 C823 0.958 . S
H838 C823 0.961 . S
H839 C823 0.960 . S
C840 C841 1.391 . S
C840 C842 1.394 . S
C840 H856 0.931 . S
C841 C840 1.391 . S
C841 C845 1.376 . S
C842 C840 1.394 . S
C842 C843 1.369 . S
C842 C846 1.531 . S
C843 C842 1.369 . S
C843 C844 1.410 . S
C843 C851 1.503 . S
C844 C843 1.410 . S
C844 C845 1.392 . S
C844 C847 1.511 . S
C845 C841 1.376 . S
C845 C844 1.392 . S
C845 H857 0.929 . S
C846 C842 1.531 . S
C846 H858 0.960 . S
C846 H859 0.962 . S
C846 H860 0.960 . S
C847 C844 1.511 . S
C847 H861 0.961 . S
C847 H862 0.961 . S
C847 H863 0.961 . S
C848 C849 1.370 . S
C848 C850 1.363 . S
C848 H864 0.931 . S
C849 C848 1.370 . S
C849 C853 1.408 . S
C850 C848 1.363 . S
C850 C851 1.370 . S
C850 C854 1.524 . S
C851 C843 1.503 . S
C851 C850 1.370 . S
C851 C852 1.403 . S
C852 C851 1.403 . S
C852 C853 1.404 . S
C852 C855 1.539 1_556 S
C853 C849 1.408 . S
C853 C852 1.404 . S
C853 H865 0.930 1_556 S
C854 C850 1.524 . S
C854 H866 0.956 . S
C854 H867 0.961 . S
C854 H868 0.961 . S
C855 C852 1.539 1_554 S
C855 H869 0.958 . S
C855 H870 0.961 . S
C855 H871 0.960 . S
H856 C840 0.931 . S
H857 C845 0.929 . S
H858 C846 0.960 . S
H859 C846 0.962 . S
H860 C846 0.960 . S
H861 C847 0.961 . S
H862 C847 0.961 . S
H863 C847 0.961 . S
H864 C848 0.931 . S
H865 C853 0.930 1_554 S
H866 C854 0.956 . S
H867 C854 0.961 . S
H868 C854 0.961 . S
H869 C855 0.958 . S
H870 C855 0.961 . S
H871 C855 0.960 . S
C872 C873 1.391 . S
C872 C874 1.394 . S
C872 H888 0.931 . S
C873 C872 1.391 . S
C873 C877 1.378 . S
C874 C872 1.394 . S
C874 C875 1.369 . S
C874 C878 1.531 . S
C875 C874 1.369 . S
C875 C876 1.410 . S
C875 C883 1.503 . S
C876 C875 1.410 . S
C876 C877 1.393 . S
C876 C879 1.511 1_556 S
C877 C873 1.378 . S
C877 C876 1.393 . S
C877 H889 0.926 1_556 S
C878 C874 1.531 . S
C878 H890 0.960 . S
C878 H891 0.962 . S
C878 H892 0.960 . S
C879 C876 1.511 1_554 S
C879 H893 0.961 . S
C879 H894 0.961 . S
C879 H895 0.961 . S
C880 C881 1.370 . S
C880 C882 1.363 . S
C880 H896 0.931 . S
C881 C880 1.370 . S
C881 C885 1.408 . S
C882 C880 1.363 . S
C882 C883 1.370 . S
C882 C886 1.524 . S
C883 C875 1.503 . S
C883 C882 1.370 . S
C883 C884 1.403 . S
C884 C883 1.403 . S
C884 C885 1.404 . S
C884 C887 1.539 . S
C885 C881 1.408 . S
C885 C884 1.404 . S
C885 H897 0.930 . S
C886 C882 1.524 . S
C886 H898 0.956 . S
C886 H899 0.961 . S
C886 H900 0.961 . S
C887 C884 1.539 . S
C887 H901 0.958 . S
C887 H902 0.961 1_556 S
C887 H903 0.960 1_556 S
H888 C872 0.931 . S
H889 C877 0.926 1_554 S
H890 C878 0.960 . S
H891 C878 0.962 . S
H892 C878 0.960 . S
H893 C879 0.961 . S
H894 C879 0.961 . S
H895 C879 0.961 . S
H896 C880 0.931 . S
H897 C885 0.930 . S
H898 C886 0.956 . S
H899 C886 0.961 . S
H900 C886 0.961 . S
H901 C887 0.958 . S
H902 C887 0.961 1_554 S
H903 C887 0.960 1_554 S
C904 C905 1.391 1_455 S
C904 C906 1.394 . S
C904 H920 0.931 . S
C905 C904 1.391 1_655 S
C905 C909 1.376 . S
C906 C904 1.394 . S
C906 C907 1.369 1_455 S
C906 C910 1.531 . S
C907 C906 1.369 1_655 S
C907 C908 1.410 . S
C907 C915 1.503 . S
C908 C907 1.410 . S
C908 C909 1.392 . S
C908 C911 1.511 . S
C909 C905 1.376 . S
C909 C908 1.392 . S
C909 H921 0.929 . S
C910 C906 1.531 . S
C910 H922 0.960 . S
C910 H923 0.962 . S
C910 H924 0.960 . S
C911 C908 1.511 . S
C911 H925 0.961 . S
C911 H926 0.961 . S
C911 H927 0.961 . S
C912 C913 1.370 1_455 S
C912 C914 1.363 . S
C912 H928 0.931 . S
C913 C912 1.370 1_655 S
C913 C917 1.408 . S
C914 C912 1.363 . S
C914 C915 1.370 1_455 S
C914 C918 1.524 . S
C915 C907 1.503 . S
C915 C914 1.370 1_655 S
C915 C916 1.403 . S
C916 C915 1.403 . S
C916 C917 1.404 . S
C916 C919 1.539 . S
C917 C913 1.408 . S
C917 C916 1.404 . S
C917 H929 0.930 . S
C918 C914 1.524 . S
C918 H930 0.956 . S
C918 H931 0.961 . S
C918 H932 0.961 . S
C919 C916 1.539 . S
C919 H933 0.958 . S
C919 H934 0.961 . S
C919 H935 0.960 . S
H920 C904 0.931 . S
H921 C909 0.929 . S
H922 C910 0.960 . S
H923 C910 0.962 . S
H924 C910 0.960 . S
H925 C911 0.961 . S
H926 C911 0.961 . S
H927 C911 0.961 . S
H928 C912 0.931 . S
H929 C917 0.930 . S
H930 C918 0.956 . S
H931 C918 0.961 . S
H932 C918 0.961 . S
H933 C919 0.958 . S
H934 C919 0.961 . S
H935 C919 0.960 . S
C936 C937 1.391 1_545 S
C936 C938 1.394 . S
C936 H952 0.931 . S
C937 C936 1.391 1_565 S
C937 C941 1.376 . S
C938 C936 1.394 . S
C938 C939 1.369 1_545 S
C938 C942 1.531 . S
C939 C938 1.369 1_565 S
C939 C940 1.410 . S
C939 C947 1.503 . S
C940 C939 1.410 . S
C940 C941 1.392 . S
C940 C943 1.511 . S
C941 C937 1.376 . S
C941 C940 1.392 . S
C941 H953 0.929 . S
C942 C938 1.531 . S
C942 H954 0.960 . S
C942 H955 0.962 . S
C942 H956 0.960 . S
C943 C940 1.511 . S
C943 H957 0.961 . S
C943 H958 0.961 . S
C943 H959 0.961 . S
C944 C945 1.370 . S
C944 C946 1.363 . S
C944 H960 0.931 1_565 S
C945 C944 1.370 . S
C945 C949 1.408 . S
C946 C944 1.363 . S
C946 C947 1.370 . S
C946 C950 1.524 1_565 S
C947 C939 1.503 . S
C947 C946 1.370 . S
C947 C948 1.403 . S
C948 C947 1.403 . S
C948 C949 1.404 . S
C948 C951 1.539 . S
C949 C945 1.408 . S
C949 C948 1.404 . S
C949 H961 0.930 . S
C950 C946 1.524 1_545 S
C950 H962 0.956 . S
C950 H963 0.961 1_545 S
C950 H964 0.961 . S
C951 C948 1.539 . S
C951 H965 0.958 . S
C951 H966 0.961 . S
C951 H967 0.960 . S
H952 C936 0.931 . S
H953 C941 0.929 . S
H954 C942 0.960 . S
H955 C942 0.962 . S
H956 C942 0.960 . S
H957 C943 0.961 . S
H958 C943 0.961 . S
H959 C943 0.961 . S
H960 C944 0.931 1_545 S
H961 C949 0.930 . S
H962 C950 0.956 . S
H963 C950 0.961 1_565 S
H964 C950 0.961 . S
H965 C951 0.958 . S
H966 C951 0.961 . S
H967 C951 0.960 . S
C968 C969 1.391 . S
C968 C970 1.394 . S
C968 H984 0.931 . S
C969 C968 1.391 . S
C969 C973 1.376 . S
C970 C968 1.394 . S
C970 C971 1.369 . S
C970 C974 1.531 . S
C971 C970 1.369 . S
C971 C972 1.410 . S
C971 C979 1.503 . S
C972 C971 1.410 . S
C972 C973 1.392 . S
C972 C975 1.511 . S
C973 C969 1.376 . S
C973 C972 1.392 . S
C973 H985 0.929 . S
C974 C970 1.531 . S
C974 H986 0.960 . S
C974 H987 0.962 . S
C974 H988 0.960 . S
C975 C972 1.511 . S
C975 H989 0.961 . S
C975 H990 0.961 . S
C975 H991 0.961 . S
C976 C977 1.370 . S
C976 C978 1.363 . S
C976 H992 0.931 . S
C977 C976 1.370 . S
C977 C981 1.408 . S
C978 C976 1.363 . S
C978 C979 1.370 . S
C978 C982 1.524 . S
C979 C971 1.503 . S
C979 C978 1.370 . S
C979 C980 1.403 . S
C980 C979 1.403 . S
C980 C981 1.404 . S
C980 C983 1.539 . S
C981 C977 1.408 . S
C981 C980 1.404 . S
C981 H993 0.930 . S
C982 C978 1.524 . S
C982 H994 0.956 . S
C982 H995 0.961 . S
C982 H996 0.961 . S
C983 C980 1.539 . S
C983 H997 0.958 . S
C983 H998 0.961 . S
C983 H999 0.960 . S
H984 C968 0.931 . S
H985 C973 0.929 . S
H986 C974 0.960 . S
H987 C974 0.962 . S
H988 C974 0.960 . S
H989 C975 0.961 . S
H990 C975 0.961 . S
H991 C975 0.961 . S
H992 C976 0.931 . S
H993 C981 0.930 . S
H994 C982 0.956 . S
H995 C982 0.961 . S
H996 C982 0.961 . S
H997 C983 0.958 . S
H998 C983 0.961 . S
H999 C983 0.960 . S
C1000 C1001 1.391 . S
C1000 C1002 1.394 . S
C1000 H1016 0.931 . S
C1001 C1000 1.391 . S
C1001 C1005 1.376 . S
C1002 C1000 1.394 . S
C1002 C1003 1.369 . S
C1002 C1006 1.531 . S
C1003 C1002 1.369 . S
C1003 C1004 1.410 . S
C1003 C1011 1.503 . S
C1004 C1003 1.410 . S
C1004 C1005 1.392 . S
C1004 C1007 1.511 . S
C1005 C1001 1.376 . S
C1005 C1004 1.392 . S
C1005 H1017 0.929 . S
C1006 C1002 1.531 . S
C1006 H1018 0.960 . S
C1006 H1019 0.962 . S
C1006 H1020 0.960 . S
C1007 C1004 1.511 . S
C1007 H1021 0.961 . S
C1007 H1022 0.961 . S
C1007 H1023 0.961 . S
C1008 C1009 1.370 . S
C1008 C1010 1.363 . S
C1008 H1024 0.931 . S
C1009 C1008 1.370 . S
C1009 C1013 1.408 . S
C1010 C1008 1.363 . S
C1010 C1011 1.370 . S
C1010 C1014 1.524 . S
C1011 C1003 1.503 . S
C1011 C1010 1.370 . S
C1011 C1012 1.403 . S
C1012 C1011 1.403 . S
C1012 C1013 1.404 . S
C1012 C1015 1.539 . S
C1013 C1009 1.408 . S
C1013 C1012 1.404 . S
C1013 H1025 0.930 . S
C1014 C1010 1.524 . S
C1014 H1026 0.956 . S
C1014 H1027 0.961 . S
C1014 H1028 0.961 . S
C1015 C1012 1.539 . S
C1015 H1029 0.958 . S
C1015 H1030 0.961 . S
C1015 H1031 0.960 . S
H1016 C1000 0.931 . S
H1017 C1005 0.929 . S
H1018 C1006 0.960 . S
H1019 C1006 0.962 . S
H1020 C1006 0.960 . S
H1021 C1007 0.961 . S
H1022 C1007 0.961 . S
H1023 C1007 0.961 . S
H1024 C1008 0.931 . S
H1025 C1013 0.930 . S
H1026 C1014 0.956 . S
H1027 C1014 0.961 . S
H1028 C1014 0.961 . S
H1029 C1015 0.958 . S
H1030 C1015 0.961 . S
H1031 C1015 0.960 . S
C265 N80 1.874 . S
C273 C113 1.954 1_545 S
C305 C153 1.974 . S
C297 N93 1.915 . S
C337 C193 1.976 . S
C329 N54 1.896 . S
C369 C233 1.972 1_455 S
C361 N67 1.913 1_455 S
C401 C122 1.966 1_565 S
C393 N28 1.911 . S
C425 N41 1.876 . S
C433 C162 1.970 . S
C457 N2 1.871 . S
C465 C202 1.976 . S
C489 N15 1.910 1_455 S
C497 C242 1.970 1_655 S
C529 C119 0.462 . S
C521 N70 0.460 1_455 S
C561 C159 0.461 . S
C553 N83 0.493 1_545 S
C593 C199 0.512 . S
C585 N96 0.401 . S
C617 N57 0.485 . S
C625 C239 0.448 . S
C649 N18 0.420 . S
C657 C110 0.501 . S
C689 C150 0.448 . S
C681 N31 0.483 . S
C721 C190 0.510 . S
C713 N44 0.395 . S
C745 N5 0.493 . S
C753 C230 0.446 . S
C777 N66 2.162 1_455 S
C785 C123 2.251 . S
C809 N79 2.157 1_545 S
C817 C163 2.238 . S
C849 C203 2.214 . S
C841 N92 2.119 . S
C881 C243 2.252 . S
C873 N53 2.159 . S
C905 N14 2.159 . S
C913 C114 2.274 . S
C945 C154 2.234 . S
C937 N27 2.123 . S
C977 C194 2.211 . S
C969 N40 2.158 . S
C1001 N1 2.155 . S
C1009 C234 2.259 . S
