# Generated by pormake.
# Topology anh, (6,3)-cn, num edge types: 1
# Building blocks:
#     Node 0, Type 0, BuildingBlock: BETFEN_clean_sbu_0, # of connection points: 6
#     Node 1, Type 0, BuildingBlock: BETFEN_clean_sbu_0, # of connection points: 6
#     Node 2, Type 0, BuildingBlock: BETFEN_clean_sbu_0, # of connection points: 6
#     Node 3, Type 1, BuildingBlock: BETDAH_clean_linker_0, # of connection points: 3
#     Node 4, Type 1, BuildingBlock: BETDAH_clean_linker_0, # of connection points: 3
#     Node 5, Type 1, BuildingBlock: BETDAH_clean_linker_0, # of connection points: 3
#     Node 6, Type 1, BuildingBlock: BETDAH_clean_linker_0, # of connection points: 3
#     Node 7, Type 1, BuildingBlock: BETDAH_clean_linker_0, # of connection points: 3
#     Node 8, Type 1, BuildingBlock: BETDAH_clean_linker_0, # of connection points: 3
#     Edge 9, Type (0, 1), BuildingBlock: KIFKEQ_clean_linker_1, # of connection points: 2
#     Edge 10, Type (0, 1), BuildingBlock: KIFKEQ_clean_linker_1, # of connection points: 2
#     Edge 11, Type (0, 1), BuildingBlock: KIFKEQ_clean_linker_1, # of connection points: 2
#     Edge 12, Type (0, 1), BuildingBlock: KIFKEQ_clean_linker_1, # of connection points: 2
#     Edge 13, Type (0, 1), BuildingBlock: KIFKEQ_clean_linker_1, # of connection points: 2
#     Edge 14, Type (0, 1), BuildingBlock: KIFKEQ_clean_linker_1, # of connection points: 2
#     Edge 15, Type (0, 1), BuildingBlock: KIFKEQ_clean_linker_1, # of connection points: 2
#     Edge 16, Type (0, 1), BuildingBlock: KIFKEQ_clean_linker_1, # of connection points: 2
#     Edge 17, Type (0, 1), BuildingBlock: KIFKEQ_clean_linker_1, # of connection points: 2
#     Edge 18, Type (0, 1), BuildingBlock: KIFKEQ_clean_linker_1, # of connection points: 2
#     Edge 19, Type (0, 1), BuildingBlock: KIFKEQ_clean_linker_1, # of connection points: 2
#     Edge 20, Type (0, 1), BuildingBlock: KIFKEQ_clean_linker_1, # of connection points: 2
#     Edge 21, Type (0, 1), BuildingBlock: KIFKEQ_clean_linker_1, # of connection points: 2
#     Edge 22, Type (0, 1), BuildingBlock: KIFKEQ_clean_linker_1, # of connection points: 2
#     Edge 23, Type (0, 1), BuildingBlock: KIFKEQ_clean_linker_1, # of connection points: 2
#     Edge 24, Type (0, 1), BuildingBlock: KIFKEQ_clean_linker_1, # of connection points: 2
#     Edge 25, Type (0, 1), BuildingBlock: KIFKEQ_clean_linker_1, # of connection points: 2
#     Edge 26, Type (0, 1), BuildingBlock: KIFKEQ_clean_linker_1, # of connection points: 2
# Relax obj value: 0.150
# Max RMSD: 0.182
# Mean RMSD: 0.111
data_MOF--net-anh--node1-BETFEN_clean_sbu_0--node2-BETDAH_clean_linker_0--edge1-KIFKEQ_clean_linker_1
_symmetry_space_group_name_H-M    P1
_symmetry_Int_Tables_number       1
_symmetry_cell_setting            triclinic
loop_
_symmetry_equiv_pos_as_xyz
'x, y, z'
_cell_length_a     30.586305
_cell_length_b     31.418591
_cell_length_c     50.382304
_cell_angle_alpha  92.57672
_cell_angle_beta   94.079768
_cell_angle_gamma 102.64707
loop_
_atom_site_label
_atom_site_type_symbol
_atom_site_fract_x
_atom_site_fract_y
_atom_site_fract_z
_atom_type_partial_charge
Pr0 Pr 0.06449 0.5471 0.14608 0.0
Pr1 Pr 0.08658 0.65125 0.13766 0.0
C2 C 1.03409 0.46579 0.16156 0.0
C3 C 0.99361 0.44085 0.1725 0.0
C4 C 0.98196 0.39534 0.16797 0.0
C5 C 0.94212 0.37121 0.17665 0.0
C6 C 0.91309 0.39216 0.19012 0.0
C7 C 0.92538 0.4379 0.19499 0.0
C8 C 0.96522 0.46205 0.18618 0.0
C9 C 0.07813 0.57189 0.09444 0.0
C10 C 0.98044 0.6006 0.13997 0.0
C11 C 0.11192 0.73048 0.1186 0.0
C12 C 0.14705 0.76999 0.12734 0.0
C13 C 0.14928 0.79016 0.15304 0.0
C14 C 0.18489 0.82514 0.16184 0.0
C15 C 0.21926 0.84047 0.14523 0.0
C16 C 0.21653 0.82084 0.11935 0.0
C17 C 0.18068 0.78606 0.11047 0.0
C18 C 0.09172 0.63614 0.1923 0.0
C19 C 0.17011 0.59719 0.14413 0.0
O20 O 0.06006 0.49706 0.17725 0.0
O21 O 1.02871 0.47647 0.13692 0.0
O22 O 0.05658 0.58932 0.11064 0.0
O23 O 0.09173 0.53897 0.10428 0.0
O24 O 1.00817 0.63528 0.132 0.0
O25 O 0.99441 0.56606 0.14835 0.0
O26 O 0.12644 0.69649 0.10994 0.0
O27 O 0.07801 0.72029 0.13345 0.0
O28 O 0.08259 0.60856 0.17288 0.0
O29 O 0.09994 0.67509 0.18358 0.0
O30 O 0.14291 0.56334 0.15342 0.0
O31 O 0.15547 0.63061 0.13459 0.0
H32 H 1.00329 0.37851 0.15721 0.0
H33 H 0.93344 0.33623 0.17205 0.0
H34 H 0.90414 0.45511 0.20552 0.0
H35 H 0.97355 0.49728 0.18973 0.0
H36 H 0.12414 0.77833 0.16666 0.0
H37 H 0.1863 0.83925 0.18198 0.0
H38 H 0.24226 0.83223 0.106 0.0
H39 H 0.17974 0.77106 0.09058 0.0
Pr40 Pr 0.60302 0.12656 0.5076 0.0
Pr41 Pr 0.49387 0.099 0.51072 0.0
C42 C 0.68706 0.14257 0.49191 0.0
C43 C 0.71826 0.18131 0.48359 0.0
C44 C 0.76429 0.18231 0.48382 0.0
C45 C 0.79414 0.21946 0.47634 0.0
C46 C 0.77839 0.25627 0.46849 0.0
C47 C 0.73203 0.25486 0.46816 0.0
C48 C 0.70229 0.21779 0.4757 0.0
C49 C 0.5716 0.12449 0.5581 0.0
C50 C 0.54726 0.20651 0.51309 0.0
C51 C 0.41003 0.07324 0.52587 0.0
C52 C 0.37262 1.03474 0.51884 0.0
C53 C 0.34599 1.03093 0.49454 0.0
C54 C 0.31368 0.99263 0.48699 0.0
C55 C 0.3073 0.95731 0.50354 0.0
C56 C 0.33275 0.96175 0.52826 0.0
C57 C 0.3649 1.00012 0.53588 0.0
C58 C 0.51605 0.10345 0.45759 0.0
C59 C 0.5508 1.01788 0.50828 0.0
O60 O 0.65117 0.1272 0.47561 0.0
O61 O 0.6786 0.14338 0.51703 0.0
O62 O 0.55602 0.09837 0.53838 0.0
O63 O 0.60753 0.15267 0.55276 0.0
O64 O 0.51283 0.17666 0.52056 0.0
O65 O 0.58284 0.19489 0.50373 0.0
O66 O 0.44552 0.0658 0.53928 0.0
O67 O 0.42019 0.1012 0.50752 0.0
O68 O 0.54169 0.11212 0.47856 0.0
O69 O 0.47507 0.09004 0.46391 0.0
O70 O 0.58903 1.04801 0.50733 0.0
O71 O 0.51126 1.02892 0.50919 0.0
H72 H 0.77719 0.1545 0.48999 0.0
H73 H 0.82966 0.21963 0.4772 0.0
H74 H 0.71861 0.28232 0.46191 0.0
H75 H 0.66679 0.21762 0.47541 0.0
H76 H 0.35084 1.05702 0.48098 0.0
H77 H 0.29481 0.99012 0.46775 0.0
H78 H 0.32809 0.93537 0.54163 0.0
H79 H 0.38451 1.00227 0.55486 0.0
Pr80 Pr 0.56479 0.57745 0.81967 0.0
Pr81 Pr 0.58689 0.67255 0.83565 0.0
C82 C 0.54017 0.49388 0.80051 0.0
C83 C 0.55836 0.45561 0.80639 0.0
C84 C 0.5842 0.45491 0.83051 0.0
C85 C 0.59982 0.41769 0.83668 0.0
C86 C 0.59031 0.38089 0.81865 0.0
C87 C 0.56579 0.38241 0.79408 0.0
C88 C 0.54989 0.4195 0.78803 0.0
C89 C 0.57908 0.59531 0.87472 0.0
C90 C 0.67171 0.62179 0.83052 0.0
C91 C 0.61007 0.75262 0.86084 0.0
C92 C 0.58328 0.77931 0.87408 0.0
C93 C 0.53632 0.76631 0.87107 0.0
C94 C 0.51 0.79347 0.88076 0.0
C95 C 0.5301 0.83433 0.89386 0.0
C96 C 0.57736 0.8459 0.89846 0.0
C97 C 0.60378 0.8186 0.88851 0.0
C98 C 0.57333 0.65448 0.78038 0.0
C99 C 0.48116 0.62681 0.8255 0.0
O100 O 0.56603 0.52407 0.78816 0.0
O101 O 0.52114 0.50963 0.81996 0.0
O102 O 0.55621 0.61398 0.85917 0.0
O103 O 0.5955 0.56652 0.86193 0.0
O104 O 0.65894 0.6569 0.83953 0.0
O105 O 0.64232 0.58724 0.81974 0.0
O106 O 0.61407 0.71715 0.87247 0.0
O107 O 0.60116 0.74611 0.83501 0.0
O108 O 0.59538 0.63562 0.79629 0.0
O109 O 0.55873 0.68519 0.79268 0.0
O110 O 0.49518 0.59725 0.8109 0.0
O111 O 0.5102 0.65655 0.84078 0.0
H112 H 0.59154 0.48283 0.84479 0.0
H113 H 0.61866 0.4174 0.85569 0.0
H114 H 0.55724 0.35421 0.77998 0.0
H115 H 0.53023 0.41966 0.76929 0.0
H116 H 0.51995 0.73604 0.86003 0.0
H117 H 0.47395 0.78351 0.87628 0.0
H118 H 0.59397 0.87681 0.90877 0.0
H119 H 0.64009 0.82884 0.89125 0.0
H120 H 0.48494 1.04698 0.26276 0.0
H121 H 0.59346 0.15782 0.25489 0.0
H122 H 0.50333 0.10209 0.18672 0.0
C123 C 0.50362 0.07082 0.25049 0.0
C124 C 0.48975 0.0701 0.22328 0.0
C125 C 0.54088 0.10236 0.26219 0.0
C126 C 0.56478 0.13341 0.24611 0.0
C127 C 0.5513 0.13285 0.21876 0.0
C128 C 0.51389 0.10147 0.20767 0.0
N129 N 0.57364 0.16363 0.20165 0.0
C130 C 0.61399 0.19371 0.20825 0.0
H131 H 0.55696 0.52563 0.58596 0.0
H132 H 0.55604 0.65788 0.56829 0.0
H133 H 0.54672 0.55965 0.50411 0.0
C134 C 0.55508 0.54937 0.57121 0.0
C135 C 0.55072 0.53592 0.54389 0.0
C136 C 0.55678 0.59289 0.58006 0.0
C137 C 0.55465 0.62443 0.56135 0.0
C138 C 0.55164 0.6132 0.53386 0.0
C139 C 0.54976 0.56871 0.52527 0.0
N140 N 0.55016 0.64548 0.51453 0.0
C141 C 0.55217 0.69071 0.51936 0.0
H142 H 0.99142 0.61673 0.90594 0.0
H143 H 0.12397 0.61181 0.88473 0.0
H144 H 1.01894 0.61426 0.82342 0.0
C145 C 1.01469 0.61586 0.89075 0.0
C146 C 0.99959 0.61538 0.86379 0.0
C147 C 0.0594 0.61475 0.89839 0.0
C148 C 0.08957 0.61309 0.87878 0.0
C149 C 0.07509 0.61342 0.85159 0.0
C150 C 1.03018 0.61467 0.84434 0.0
N151 N 0.10423 0.61203 0.83094 0.0
C152 C 0.15006 0.61332 0.83476 0.0
H153 H 0.13005 0.68214 0.38932 0.0
H154 H 0.03557 0.5602 0.39604 0.0
H155 H 0.07851 0.64984 0.46473 0.0
C156 C 0.10896 0.65962 0.40129 0.0
C157 C 0.10769 0.67089 0.42843 0.0
C158 C 0.08325 0.61977 0.38936 0.0
C159 C 0.05551 0.59094 0.40502 0.0
C160 C 0.05427 0.60183 0.43237 0.0
C161 C 0.08031 0.64158 0.44377 0.0
N162 N 1.02744 0.5741 0.44931 0.0
C163 C 0.99909 0.53382 0.44168 0.0
H164 H 0.52596 0.12085 0.75542 0.0
H165 H 0.39777 1.03493 0.73225 0.0
H166 H 0.44105 0.06714 0.81537 0.0
C167 C 0.49547 0.09951 0.76095 0.0
C168 C 0.48773 0.09567 0.7879 0.0
C169 C 0.46335 0.07787 0.74085 0.0
C170 C 0.42294 1.05153 0.74773 0.0
C171 C 0.4147 1.04704 0.77462 0.0
C172 C 0.44739 0.06917 0.79461 0.0
N173 N 0.37314 1.02103 0.78118 0.0
C174 C 0.3687 1.00324 0.80587 0.0
H175 H 0.65796 0.58761 0.06818 0.0
H176 H 0.52804 0.60595 0.08673 0.0
H177 H 0.63161 0.60863 0.14987 0.0
C178 C 0.63504 0.59255 0.0829 0.0
C179 C 0.65013 0.59739 0.11002 0.0
C180 C 0.59136 0.59606 0.07439 0.0
C181 C 0.56179 0.60336 0.09334 0.0
C182 C 0.57616 0.60726 0.12074 0.0
C183 C 0.62051 0.60511 0.12881 0.0
N184 N 0.54739 0.61369 0.14078 0.0
C185 C 0.501 0.60878 0.13673 0.0
H186 H 0.21427 0.53267 0.15744 0.0
H187 H 0.23624 0.66241 0.12839 0.0
H188 H 0.29361 0.53297 0.15419 0.0
H189 H 0.31532 0.66297 0.1257 0.0
H190 H 0.44633 0.63562 0.09951 0.0
H191 H 0.36532 0.63069 0.10058 0.0
H192 H 0.36732 0.5672 0.1749 0.0
H193 H 0.44789 0.57149 0.17328 0.0
C194 C 0.23597 0.56135 0.15053 0.0
C195 C 0.21867 0.59747 0.14319 0.0
C196 C 0.28155 0.56157 0.14872 0.0
C197 C 0.31096 0.59793 0.13954 0.0
C198 C 0.29362 0.63408 0.13237 0.0
C199 C 0.24817 0.63386 0.13415 0.0
C200 C 0.4291 0.6203 0.11586 0.0
C201 C 0.45285 0.60382 0.13628 0.0
C202 C 0.38287 0.61772 0.11664 0.0
C203 C 0.35968 0.59868 0.13791 0.0
C204 C 0.3838 0.58155 0.15807 0.0
C205 C 0.42994 0.58416 0.15724 0.0
H206 H 0.77719 0.34154 0.48134 0.0
H207 H 0.85188 0.26183 0.43939 0.0
H208 H 0.82978 0.40713 0.47041 0.0
H209 H 0.90487 0.32775 0.42861 0.0
H210 H 1.01788 0.45508 0.44851 0.0
H211 H 0.9633 0.38618 0.45205 0.0
H212 H 0.85483 0.45071 0.43321 0.0
H213 H 0.90973 0.51958 0.43016 0.0
C214 C 0.80446 0.33798 0.46945 0.0
C215 C 0.8102 0.29632 0.46123 0.0
C216 C 0.83464 0.37566 0.46315 0.0
C217 C 0.87144 0.37273 0.44851 0.0
C218 C 0.8771 0.33112 0.44012 0.0
C219 C 0.8468 0.29336 0.44638 0.0
C220 C 0.98235 0.45402 0.44452 0.0
C221 C 0.96766 0.49209 0.4389 0.0
C222 C 0.9511 0.41469 0.44653 0.0
C223 C 0.90466 0.41302 0.44313 0.0
C224 C 0.89031 0.45104 0.43632 0.0
C225 C 0.9216 0.49029 0.43429 0.0
H226 H 0.44358 0.82042 0.90922 0.0
H227 H 0.55258 0.92224 0.88753 0.0
H228 H 0.39087 0.86682 0.89915 0.0
H229 H 0.50054 0.9687 0.87885 0.0
H230 H 0.34491 0.91779 0.81356 0.0
H231 H 0.37608 0.8817 0.84981 0.0
H232 H 0.4379 1.0075 0.88943 0.0
H233 H 0.40534 1.04347 0.85334 0.0
C234 C 0.45662 0.85316 0.90326 0.0
C235 C 0.50211 0.86688 0.89817 0.0
C236 C 0.42643 0.8798 0.89776 0.0
C237 C 0.4415 0.92094 0.88772 0.0
C238 C 0.48789 0.93715 0.88662 0.0
C239 C 0.51792 0.9103 0.89164 0.0
C240 C 0.36323 0.93752 0.8307 0.0
C241 C 0.3735 0.98312 0.83067 0.0
C242 C 0.38099 0.91696 0.85153 0.0
C243 C 0.40991 0.94189 0.87228 0.0
C244 C 0.41594 0.9876 0.8736 0.0
C245 C 0.39753 1.00811 0.85292 0.0
H246 H 0.91085 0.53093 0.14594 0.0
H247 H 0.93916 0.66839 0.13123 0.0
H248 H 0.8304 0.52897 0.14181 0.0
H249 H 0.85874 0.66623 0.12716 0.0
H250 H 0.69519 0.53596 0.09422 0.0
H251 H 0.77459 0.53622 0.10415 0.0
H252 H 0.79117 0.65488 0.15413 0.0
H253 H 0.71154 0.65467 0.14405 0.0
C254 C 0.90002 0.5608 0.14199 0.0
C255 C 0.93158 0.59978 0.13875 0.0
C256 C 0.85388 0.55959 0.13954 0.0
C257 C 0.83821 0.59742 0.13413 0.0
C258 C 0.86975 0.63663 0.13158 0.0
C259 C 0.91587 0.63776 0.13373 0.0
C260 C 0.71574 0.5619 0.1075 0.0
C261 C 0.69724 0.59539 0.11828 0.0
C262 C 0.76112 0.56189 0.11333 0.0
C263 C 0.78919 0.59566 0.12985 0.0
C264 C 0.77045 0.62862 0.14116 0.0
C265 C 0.72484 0.62832 0.13559 0.0
H266 H 0.32118 0.87482 0.50754 0.0
H267 H 0.22246 0.94491 0.4787 0.0
H268 H 0.27147 0.80602 0.49048 0.0
H269 H 0.17238 0.87595 0.46183 0.0
H270 H 0.12065 0.75122 0.40752 0.0
H271 H 0.16765 0.82004 0.4267 0.0
H272 H 0.20171 0.75582 0.49681 0.0
H273 H 0.15631 0.6865 0.47706 0.0
C274 C 0.28851 0.87545 0.49794 0.0
C275 C 0.27575 0.91532 0.49446 0.0
C276 C 0.25998 0.83599 0.48816 0.0
C277 C 0.21793 0.83541 0.47473 0.0
C278 C 0.20484 0.87526 0.47168 0.0
C279 C 0.23347 0.91477 0.48138 0.0
C280 C 0.13847 0.75169 0.42693 0.0
C281 C 0.13492 0.71326 0.44067 0.0
C282 C 0.16495 0.7913 0.43809 0.0
C283 C 0.18847 0.79352 0.46332 0.0
C284 C 0.18446 0.75519 0.47722 0.0
C285 C 0.15802 0.71554 0.46602 0.0
H286 H 0.62678 0.32549 0.78858 0.0
H287 H 0.57769 0.34203 0.86575 0.0
H288 H 0.62042 0.24847 0.79478 0.0
H289 H 0.57267 0.2648 0.87253 0.0
H290 H 0.46531 0.14495 0.82831 0.0
H291 H 0.5122 0.21175 0.84891 0.0
H292 H 0.62766 0.18128 0.81403 0.0
H293 H 0.57999 0.1138 0.79309 0.0
C294 C 0.61629 0.31287 0.80734 0.0
C295 C 0.60117 0.33923 0.82623 0.0
C296 C 0.61321 0.2687 0.81114 0.0
C297 C 0.59474 0.25011 0.8339 0.0
C298 C 0.58608 0.27799 0.85454 0.0
C299 C 0.5891 0.32228 0.85069 0.0
C300 C 0.50108 0.15123 0.82609 0.0
C301 C 0.51868 0.12508 0.80825 0.0
C302 C 0.52828 0.18974 0.83806 0.0
C303 C 0.57345 0.20272 0.83227 0.0
C304 C 0.59265 0.17276 0.81818 0.0
C305 C 0.56536 0.13421 0.80615 0.0
H306 H 0.62439 0.97896 0.51009 0.0
H307 H 0.47992 0.94647 0.50995 0.0
H308 H 0.62584 0.90198 0.51401 0.0
H309 H 0.48112 0.86964 0.51319 0.0
H310 H 0.4955 0.73628 0.54162 0.0
H311 H 0.49602 0.8142 0.53948 0.0
H312 H 0.61242 0.83094 0.494 0.0
H313 H 0.61209 0.75329 0.49687 0.0
C314 C 0.59278 0.95552 0.51067 0.0
C315 C 0.55205 0.96982 0.50963 0.0
C316 C 0.59354 0.91084 0.51282 0.0
C317 C 0.5536 0.87839 0.51406 0.0
C318 C 0.51291 0.89287 0.51285 0.0
C319 C 0.51216 0.93745 0.51071 0.0
C320 C 0.52146 0.75675 0.53141 0.0
C321 C 0.55397 0.73832 0.51964 0.0
C322 C 0.52159 0.80171 0.52988 0.0
C323 C 0.55419 0.83005 0.51641 0.0
C324 C 0.58699 0.81124 0.5049 0.0
C325 C 0.58679 0.76632 0.50645 0.0
H326 H 0.74414 0.69069 0.84125 0.0
H327 H 0.70884 0.5505 0.8255 0.0
H328 H 0.82363 0.68831 0.84689 0.0
H329 H 0.78821 0.54828 0.8313 0.0
H330 H 0.92588 0.56156 0.88078 0.0
H331 H 0.84689 0.56287 0.87073 0.0
H332 H 0.88575 0.6695 0.81996 0.0
H333 H 0.96512 0.66807 0.83002 0.0
C334 C 0.7533 0.65941 0.8389 0.0
C335 C 0.72009 0.62078 0.833 0.0
C336 C 0.79885 0.65812 0.84195 0.0
C337 C 0.81211 0.61811 0.83957 0.0
C338 C 0.77896 0.57955 0.83343 0.0
C339 C 0.73351 0.5809 0.83 0.0
C340 C 0.91752 0.58517 0.8674 0.0
C341 C 0.95161 0.61483 0.85625 0.0
C342 C 0.87232 0.58573 0.86151 0.0
C343 C 0.86015 0.61634 0.8446 0.0
C344 C 0.8942 0.64574 0.8332 0.0
C345 C 0.9395 0.64474 0.83879 0.0
H346 H 0.21944 0.91675 0.17375 0.0
H347 H 0.30807 0.84333 0.1398 0.0
H348 H 0.2843 0.97304 0.19178 0.0
H349 H 0.37299 0.89902 0.15823 0.0
H350 H 0.47898 1.02546 0.17434 0.0
H351 H 0.41329 0.97226 0.15444 0.0
H352 H 0.34504 0.98496 0.22561 0.0
H353 H 0.4097 1.03996 0.24486 0.0
C354 C 0.25284 0.91259 0.17025 0.0
C355 C 0.25863 0.87564 0.15533 0.0
C356 C 0.29005 0.94476 0.18066 0.0
C357 C 0.33402 0.9406 0.17657 0.0
C358 C 0.3397 0.90375 0.16143 0.0
C359 C 0.30247 0.87175 0.15087 0.0
C360 C 0.44975 1.01734 0.18562 0.0
C361 C 0.44975 1.03708 0.21124 0.0
C362 C 0.41222 0.98637 0.17432 0.0
C363 C 0.37376 0.97415 0.1884 0.0
C364 C 0.37378 0.99391 0.21402 0.0
C365 C 0.4112 1.02505 0.22525 0.0
H366 H 0.47932 0.24507 0.52906 0.0
H367 H 0.61305 0.2788 0.50293 0.0
H368 H 0.47789 0.32229 0.53359 0.0
H369 H 0.61231 0.35633 0.5082 0.0
H370 H 0.58933 0.49663 0.50328 0.0
H371 H 0.58742 0.4187 0.49432 0.0
H372 H 0.5026 0.3873 0.55881 0.0
H373 H 0.50307 0.46401 0.56682 0.0
C374 C 0.50867 0.26885 0.52436 0.0
C375 C 0.54633 0.2548 0.51568 0.0
C376 C 0.50803 0.31373 0.52715 0.0
C377 C 0.54514 0.34686 0.52153 0.0
C378 C 0.58265 0.33266 0.51253 0.0
C379 C 0.58322 0.2877 0.50965 0.0
C380 C 0.56967 0.47304 0.51527 0.0
C381 C 0.54672 0.48756 0.53601 0.0
C382 C 0.569 0.42797 0.51036 0.0
C383 C 0.54502 0.39547 0.52584 0.0
C384 C 0.52118 0.41022 0.54604 0.0
C385 C 0.5219 0.45494 0.55091 0.0
H386 H 0.4097 0.56804 0.79899 0.0
H387 H 0.44185 0.68232 0.85384 0.0
H388 H 0.3296 0.5648 0.80184 0.0
H389 H 0.36225 0.67854 0.85709 0.0
H390 H 0.21606 0.68573 0.83487 0.0
H391 H 0.29628 0.68933 0.8319 0.0
H392 H 0.27136 0.54852 0.83259 0.0
H393 H 0.19092 0.54535 0.83501 0.0
C394 C 0.39976 0.59251 0.8116 0.0
C395 C 0.43234 0.62549 0.82611 0.0
C396 C 0.3538 0.59045 0.81343 0.0
C397 C 0.33932 0.62135 0.82976 0.0
C398 C 0.37201 0.65451 0.84405 0.0
C399 C 0.41782 0.65655 0.84225 0.0
C400 C 0.22802 0.65571 0.83465 0.0
C401 C 0.1978 0.61534 0.83537 0.0
C402 C 0.27391 0.65767 0.83299 0.0
C403 C 0.29044 0.61919 0.83194 0.0
C404 C 0.25983 0.57875 0.83297 0.0
C405 C 0.2139 0.57688 0.83464 0.0
H406 H 0.83158 0.41537 0.1877 0.0
H407 H 0.89508 0.31055 0.20975 0.0
H408 H 0.75897 0.37115 0.19669 0.0
H409 H 0.82206 0.26539 0.21726 0.0
H410 H 0.68614 0.20091 0.24416 0.0
H411 H 0.75895 0.25288 0.244 0.0
H412 H 0.70784 0.30933 0.17487 0.0
H413 H 0.63541 0.25836 0.17575 0.0
C414 C 0.83022 0.38309 0.19476 0.0
C415 C 0.86929 0.36647 0.19777 0.0
C416 C 0.7884 0.35747 0.19959 0.0
C417 C 0.78446 0.31444 0.2074 0.0
C418 C 0.82375 0.29844 0.21144 0.0
C419 C 0.86563 0.32416 0.20675 0.0
C420 C 0.69065 0.22503 0.22929 0.0
C421 C 0.65563 0.22615 0.21005 0.0
C422 C 0.73226 0.25452 0.22903 0.0
C423 C 0.73937 0.28538 0.20941 0.0
C424 C 0.70351 0.2867 0.19057 0.0
C425 C 0.66208 0.25738 0.19093 0.0
H426 H 0.13389 0.54771 0.05978 0.0
H427 H 1.03198 0.62241 0.0663 0.0
H428 H 0.13796 0.5633 0.01292 0.0
H429 H 1.03387 0.63606 0.01921 0.0
H430 H 0.05957 0.67709 0.93747 0.0
H431 H 0.07157 0.67182 0.98549 0.0
H432 H 0.09786 0.54312 0.97164 0.0
H433 H 0.08838 0.55007 0.92364 0.0
C434 C 0.1123 0.56744 0.0511 0.0
C435 C 0.08244 0.58366 0.06656 0.0
C436 C 0.11435 0.57616 0.02418 0.0
C437 C 0.08602 0.60071 0.01198 0.0
C438 C 0.05685 0.61769 0.02781 0.0
C439 C 0.05541 0.6096 0.05483 0.0
C440 C 0.06895 0.6482 0.94486 0.0
C441 C 0.07324 0.61404 0.92704 0.0
C442 C 0.07529 0.64484 0.97236 0.0
C443 C 0.08503 0.60672 0.9827 0.0
C444 C 0.091 0.57324 0.96463 0.0
C445 C 0.08548 0.57704 0.93708 0.0
H446 H 0.46966 1.05354 0.41564 0.0
H447 H 0.59164 0.15107 0.43752 0.0
H448 H 0.48719 1.05338 0.36929 0.0
H449 H 0.60906 0.15149 0.39047 0.0
H450 H 0.56275 0.1739 0.29787 0.0
H451 H 0.56706 0.17379 0.3466 0.0
H452 H 0.54826 1.03342 0.34128 0.0
H453 H 0.54489 1.03344 0.29276 0.0
C454 C 0.50051 0.07469 0.4105 0.0
C455 C 0.52943 0.10215 0.4301 0.0
C456 C 0.51067 0.07442 0.384 0.0
C457 C 0.54963 0.10218 0.37633 0.0
C458 C 0.57889 0.12966 0.39593 0.0
C459 C 0.56911 0.12925 0.42275 0.0
C460 C 0.561 0.14318 0.30712 0.0
C461 C 0.55256 0.10358 0.29144 0.0
C462 C 0.56347 0.14315 0.33501 0.0
C463 C 0.55735 0.10353 0.34762 0.0
C464 C 0.55244 0.06436 0.33201 0.0
C465 C 0.55031 0.0644 0.30425 0.0
H466 H 0.54548 0.70414 0.74208 0.0
H467 H 0.59422 0.5866 0.75237 0.0
H468 H 0.5431 0.69184 0.69375 0.0
H469 H 0.58942 0.57262 0.70429 0.0
H470 H 0.61829 0.57722 0.61807 0.0
H471 H 0.62303 0.59399 0.66598 0.0
H472 H 0.50647 0.65049 0.65582 0.0
H473 H 0.50353 0.63548 0.60766 0.0
C474 C 0.55522 0.67539 0.73397 0.0
C475 C 0.57018 0.64641 0.75101 0.0
C476 C 0.55359 0.6681 0.7062 0.0
C477 C 0.56625 0.63125 0.69479 0.0
C478 C 0.58043 0.60194 0.71207 0.0
C479 C 0.58275 0.60965 0.73975 0.0
C480 C 0.59387 0.59342 0.62615 0.0
C481 C 0.56051 0.60497 0.60916 0.0
C482 C 0.59627 0.60277 0.6537 0.0
C483 C 0.56482 0.62324 0.66513 0.0
C484 C 0.53173 0.63528 0.64794 0.0
C485 C 0.52984 0.62655 0.62029 0.0
H486 H 0.50887 1.05668 0.57265 0.0
H487 H 0.59634 0.17855 0.60345 0.0
H488 H 0.47763 1.0467 0.61535 0.0
H489 H 0.56763 0.16702 0.64728 0.0
H490 H 0.48082 0.1545 0.71671 0.0
H491 H 0.50504 0.16673 0.67203 0.0
H492 H 0.49486 1.02781 0.65828 0.0
H493 H 0.46851 1.01588 0.70252 0.0
C494 C 0.52114 0.08162 0.58858 0.0
C495 C 0.55422 0.11894 0.58457 0.0
C496 C 0.50384 0.07545 0.6133 0.0
C497 C 0.52001 0.10596 0.63492 0.0
C498 C 0.55368 0.1432 0.63098 0.0
C499 C 0.5705 0.1497 0.60598 0.0
C500 C 0.4831 0.12666 0.70382 0.0
C501 C 0.47262 0.08425 0.7128 0.0
C502 C 0.49749 0.13364 0.67838 0.0
C503 C 0.50238 0.09837 0.66152 0.0
C504 C 0.49086 1.05576 0.67046 0.0
C505 C 0.47578 1.04877 0.69578 0.0
H506 H 0.52709 0.63533 0.90526 0.0
H507 H 0.62968 0.56038 0.9102 0.0
H508 H 0.52276 0.63361 0.95357 0.0
H509 H 0.62685 0.56002 0.95824 0.0
H510 H 0.5881 0.52779 0.03897 0.0
H511 H 0.58044 0.5275 0.99047 0.0
H512 H 0.56176 0.66004 -0.00393 0.0
H513 H 0.56745 0.65914 0.04478 0.0
C514 C 0.54902 0.6189 0.91674 0.0
C515 C 0.57847 0.59767 0.90402 0.0
C516 C 0.54663 0.61797 0.9444 0.0
C517 C 0.57392 0.59606 0.95986 0.0
C518 C 0.6043 0.57606 0.947 0.0
C519 C 0.60633 0.57664 0.91945 0.0
C520 C 0.58128 0.55639 0.02972 0.0
C521 C 0.57833 0.59345 0.04544 0.0
C522 C 0.57747 0.55654 0.00196 0.0
C523 C 0.57156 0.59414 0.98926 0.0
C524 C 0.56614 0.63046 0.00509 0.0
C525 C 0.56933 0.63002 0.03297 0.0
H526 H 0.13263 0.69076 0.23398 0.0
H527 H 0.05115 0.56103 0.2146 0.0
H528 H 0.1314 0.67813 0.28132 0.0
H529 H 0.04941 0.54841 0.26242 0.0
H530 H 1.01325 0.58722 0.3515 0.0
H531 H 1.01648 0.58385 0.30296 0.0
H532 H 0.16088 0.62767 0.31342 0.0
H533 H 0.15788 0.63026 0.36166 0.0
C534 C 0.11471 0.65939 0.2399 0.0
C535 C 0.09227 0.62675 0.22071 0.0
C536 C 0.11417 0.65207 0.26698 0.0
C537 C 0.09057 0.61217 0.27552 0.0
C538 C 0.06792 0.5794 0.25633 0.0
C539 C 0.06916 0.5865 0.22907 0.0
C540 C 0.04573 0.59492 0.34342 0.0
C541 C 0.08523 0.60981 0.36038 0.0
C542 C 0.04757 0.59304 0.31566 0.0
C543 C 0.08888 0.60619 0.3045 0.0
C544 C 0.12853 0.61809 0.32151 0.0
C545 C 0.12675 0.61966 0.34911 0.0
loop_
_geom_bond_atom_site_label_1
_geom_bond_atom_site_label_2
_geom_bond_distance
_geom_bond_site_symmetry_2
_ccdc_geom_bond_type
Pr0 C2 2.880 . S
Pr0 O20 2.562 . S
Pr0 O21 2.490 . S
Pr0 O22 2.695 1_655 S
Pr0 O23 2.512 . S
Pr0 O25 2.437 . S
Pr0 O28 2.436 1_655 S
Pr0 O30 2.438 1_655 S
Pr1 C11 2.880 . S
Pr1 O22 2.436 . S
Pr1 O24 2.438 1_455 S
Pr1 O26 2.562 . S
Pr1 O27 2.490 . S
Pr1 O28 2.695 . S
Pr1 O29 2.512 . S
Pr1 O31 2.437 . S
C2 Pr0 2.880 . S
C2 C3 1.491 . S
C2 O20 1.254 . S
C2 O21 1.225 . S
C3 C2 1.491 . S
C3 C4 1.392 . S
C3 C8 1.356 . S
C4 C3 1.392 . S
C4 C5 1.368 . S
C4 H32 0.929 . S
C5 C4 1.368 . S
C5 C6 1.386 . S
C5 H33 0.929 . S
C6 C5 1.386 . S
C6 C7 1.373 . S
C7 C6 1.373 . S
C7 C8 1.409 . S
C7 H34 0.931 . S
C8 C3 1.356 . S
C8 C7 1.409 . S
C8 H35 0.930 . S
C9 O22 1.270 . S
C9 O23 1.248 1_455 S
C10 O24 1.267 . S
C10 O25 1.278 . S
C11 Pr1 2.880 . S
C11 C12 1.491 . S
C11 O26 1.254 . S
C11 O27 1.225 . S
C12 C11 1.491 . S
C12 C13 1.392 . S
C12 C17 1.356 . S
C13 C12 1.392 . S
C13 C14 1.368 . S
C13 H36 0.929 . S
C14 C13 1.368 . S
C14 C15 1.386 . S
C14 H37 0.929 . S
C15 C14 1.386 . S
C15 C16 1.373 . S
C16 C15 1.373 . S
C16 C17 1.409 . S
C16 H38 0.931 . S
C17 C12 1.356 . S
C17 C16 1.409 . S
C17 H39 0.930 . S
C18 O28 1.270 . S
C18 O29 1.248 . S
C19 O30 1.267 . S
C19 O31 1.278 . S
O20 Pr0 2.562 . S
O20 C2 1.254 . S
O21 Pr0 2.490 . S
O21 C2 1.225 . S
O22 Pr0 2.695 1_455 S
O22 Pr1 2.436 . S
O22 C9 1.270 . S
O23 Pr0 2.512 . S
O23 C9 1.248 1_655 S
O24 Pr1 2.438 1_655 S
O24 C10 1.267 . S
O25 Pr0 2.437 . S
O25 C10 1.278 . S
O26 Pr1 2.562 . S
O26 C11 1.254 . S
O27 Pr1 2.490 . S
O27 C11 1.225 . S
O28 Pr0 2.436 1_455 S
O28 Pr1 2.695 . S
O28 C18 1.270 . S
O29 Pr1 2.512 . S
O29 C18 1.248 . S
O30 Pr0 2.438 1_455 S
O30 C19 1.267 . S
O31 Pr1 2.437 . S
O31 C19 1.278 . S
H32 C4 0.929 . S
H33 C5 0.929 . S
H34 C7 0.931 . S
H35 C8 0.930 . S
H36 C13 0.929 . S
H37 C14 0.929 . S
H38 C16 0.931 . S
H39 C17 0.930 . S
Pr40 C42 2.880 . S
Pr40 O60 2.562 . S
Pr40 O61 2.490 . S
Pr40 O62 2.695 . S
Pr40 O63 2.512 . S
Pr40 O65 2.437 . S
Pr40 O68 2.436 . S
Pr40 O70 2.438 1_545 S
Pr41 C51 2.880 1_545 S
Pr41 O62 2.436 . S
Pr41 O64 2.438 . S
Pr41 O66 2.562 1_545 S
Pr41 O67 2.490 1_545 S
Pr41 O68 2.695 . S
Pr41 O69 2.512 . S
Pr41 O71 2.437 1_545 S
C42 Pr40 2.880 . S
C42 C43 1.491 . S
C42 O60 1.254 . S
C42 O61 1.225 . S
C43 C42 1.491 . S
C43 C44 1.392 . S
C43 C48 1.356 . S
C44 C43 1.392 . S
C44 C45 1.368 . S
C44 H72 0.929 . S
C45 C44 1.368 . S
C45 C46 1.386 . S
C45 H73 0.929 . S
C46 C45 1.386 . S
C46 C47 1.373 . S
C47 C46 1.373 . S
C47 C48 1.409 . S
C47 H74 0.931 . S
C48 C43 1.356 . S
C48 C47 1.409 . S
C48 H75 0.930 . S
C49 O62 1.270 . S
C49 O63 1.248 . S
C50 O64 1.267 . S
C50 O65 1.278 . S
C51 Pr41 2.880 1_565 S
C51 C52 1.491 . S
C51 O66 1.254 . S
C51 O67 1.225 . S
C52 C51 1.491 . S
C52 C53 1.392 . S
C52 C57 1.356 . S
C53 C52 1.392 . S
C53 C54 1.368 . S
C53 H76 0.929 . S
C54 C53 1.368 . S
C54 C55 1.386 . S
C54 H77 0.929 . S
C55 C54 1.386 . S
C55 C56 1.373 . S
C56 C55 1.373 . S
C56 C57 1.409 . S
C56 H78 0.931 . S
C57 C52 1.356 . S
C57 C56 1.409 . S
C57 H79 0.930 . S
C58 O68 1.270 . S
C58 O69 1.248 . S
C59 O70 1.267 . S
C59 O71 1.278 . S
O60 Pr40 2.562 . S
O60 C42 1.254 . S
O61 Pr40 2.490 . S
O61 C42 1.225 . S
O62 Pr40 2.695 . S
O62 Pr41 2.436 . S
O62 C49 1.270 . S
O63 Pr40 2.512 . S
O63 C49 1.248 . S
O64 Pr41 2.438 . S
O64 C50 1.267 . S
O65 Pr40 2.437 . S
O65 C50 1.278 . S
O66 Pr41 2.562 1_565 S
O66 C51 1.254 . S
O67 Pr41 2.490 1_565 S
O67 C51 1.225 . S
O68 Pr40 2.436 . S
O68 Pr41 2.695 . S
O68 C58 1.270 . S
O69 Pr41 2.512 . S
O69 C58 1.248 . S
O70 Pr40 2.438 1_565 S
O70 C59 1.267 . S
O71 Pr41 2.437 1_565 S
O71 C59 1.278 . S
H72 C44 0.929 . S
H73 C45 0.929 . S
H74 C47 0.931 . S
H75 C48 0.930 . S
H76 C53 0.929 . S
H77 C54 0.929 . S
H78 C56 0.931 . S
H79 C57 0.930 . S
Pr80 C82 2.880 . S
Pr80 O100 2.562 . S
Pr80 O101 2.490 . S
Pr80 O102 2.695 . S
Pr80 O103 2.512 . S
Pr80 O105 2.437 . S
Pr80 O108 2.436 . S
Pr80 O110 2.438 . S
Pr81 C91 2.880 . S
Pr81 O102 2.436 . S
Pr81 O104 2.438 . S
Pr81 O106 2.562 . S
Pr81 O107 2.490 . S
Pr81 O108 2.695 . S
Pr81 O109 2.512 . S
Pr81 O111 2.437 . S
C82 Pr80 2.880 . S
C82 C83 1.491 . S
C82 O100 1.254 . S
C82 O101 1.225 . S
C83 C82 1.491 . S
C83 C84 1.392 . S
C83 C88 1.356 . S
C84 C83 1.392 . S
C84 C85 1.368 . S
C84 H112 0.929 . S
C85 C84 1.368 . S
C85 C86 1.386 . S
C85 H113 0.929 . S
C86 C85 1.386 . S
C86 C87 1.373 . S
C87 C86 1.373 . S
C87 C88 1.409 . S
C87 H114 0.931 . S
C88 C83 1.356 . S
C88 C87 1.409 . S
C88 H115 0.930 . S
C89 O102 1.270 . S
C89 O103 1.248 . S
C90 O104 1.267 . S
C90 O105 1.278 . S
C91 Pr81 2.880 . S
C91 C92 1.491 . S
C91 O106 1.254 . S
C91 O107 1.225 . S
C92 C91 1.491 . S
C92 C93 1.392 . S
C92 C97 1.356 . S
C93 C92 1.392 . S
C93 C94 1.368 . S
C93 H116 0.929 . S
C94 C93 1.368 . S
C94 C95 1.386 . S
C94 H117 0.929 . S
C95 C94 1.386 . S
C95 C96 1.373 . S
C96 C95 1.373 . S
C96 C97 1.409 . S
C96 H118 0.931 . S
C97 C92 1.356 . S
C97 C96 1.409 . S
C97 H119 0.930 . S
C98 O108 1.270 . S
C98 O109 1.248 . S
C99 O110 1.267 . S
C99 O111 1.278 . S
O100 Pr80 2.562 . S
O100 C82 1.254 . S
O101 Pr80 2.490 . S
O101 C82 1.225 . S
O102 Pr80 2.695 . S
O102 Pr81 2.436 . S
O102 C89 1.270 . S
O103 Pr80 2.512 . S
O103 C89 1.248 . S
O104 Pr81 2.438 . S
O104 C90 1.267 . S
O105 Pr80 2.437 . S
O105 C90 1.278 . S
O106 Pr81 2.562 . S
O106 C91 1.254 . S
O107 Pr81 2.490 . S
O107 C91 1.225 . S
O108 Pr80 2.436 . S
O108 Pr81 2.695 . S
O108 C98 1.270 . S
O109 Pr81 2.512 . S
O109 C98 1.248 . S
O110 Pr80 2.438 . S
O110 C99 1.267 . S
O111 Pr81 2.437 . S
O111 C99 1.278 . S
H112 C84 0.929 . S
H113 C85 0.929 . S
H114 C87 0.931 . S
H115 C88 0.930 . S
H116 C93 0.929 . S
H117 C94 0.929 . S
H118 C96 0.931 . S
H119 C97 0.930 . S
H120 C123 0.929 . S
H121 C126 0.929 . S
H122 C128 0.930 . S
C123 H120 0.929 . S
C123 C124 1.398 . S
C123 C125 1.396 . S
C124 C123 1.398 . S
C124 C128 1.407 . S
C125 C123 1.396 . S
C125 C126 1.394 . S
C126 H121 0.929 . S
C126 C125 1.394 . S
C126 C127 1.382 . S
C127 C126 1.382 . S
C127 C128 1.392 . S
C127 N129 1.420 . S
C128 H122 0.930 . S
C128 C124 1.407 . S
C128 C127 1.392 . S
N129 C127 1.420 . S
N129 C130 1.244 . S
C130 N129 1.244 . S
H131 C134 0.929 . S
H132 C137 0.929 . S
H133 C139 0.930 . S
C134 H131 0.929 . S
C134 C135 1.398 . S
C134 C136 1.396 . S
C135 C134 1.398 . S
C135 C139 1.407 . S
C136 C134 1.396 . S
C136 C137 1.394 . S
C137 H132 0.929 . S
C137 C136 1.394 . S
C137 C138 1.382 . S
C138 C137 1.382 . S
C138 C139 1.392 . S
C138 N140 1.420 . S
C139 H133 0.930 . S
C139 C135 1.407 . S
C139 C138 1.392 . S
N140 C138 1.420 . S
N140 C141 1.244 . S
C141 N140 1.244 . S
H142 C145 0.929 . S
H143 C148 0.929 . S
H144 C150 0.930 . S
C145 H142 0.929 . S
C145 C146 1.398 . S
C145 C147 1.396 1_655 S
C146 C145 1.398 . S
C146 C150 1.407 1_655 S
C147 C145 1.396 1_455 S
C147 C148 1.394 . S
C148 H143 0.929 . S
C148 C147 1.394 . S
C148 C149 1.382 . S
C149 C148 1.382 . S
C149 C150 1.392 . S
C149 N151 1.420 . S
C150 H144 0.930 . S
C150 C146 1.407 1_455 S
C150 C149 1.392 . S
N151 C149 1.420 . S
N151 C152 1.244 . S
C152 N151 1.244 . S
H153 C156 0.929 . S
H154 C159 0.929 . S
H155 C161 0.930 . S
C156 H153 0.929 . S
C156 C157 1.398 . S
C156 C158 1.396 . S
C157 C156 1.398 . S
C157 C161 1.407 . S
C158 C156 1.396 . S
C158 C159 1.394 1_455 S
C159 H154 0.929 . S
C159 C158 1.394 1_655 S
C159 C160 1.382 1_655 S
C160 C159 1.382 1_455 S
C160 C161 1.392 . S
C160 N162 1.420 1_455 S
C161 H155 0.930 . S
C161 C157 1.407 . S
C161 C160 1.392 . S
N162 C160 1.420 1_655 S
N162 C163 1.244 . S
C163 N162 1.244 . S
H164 C167 0.929 . S
H165 C170 0.929 1_565 S
H166 C172 0.930 . S
C167 H164 0.929 . S
C167 C168 1.398 . S
C167 C169 1.396 . S
C168 C167 1.398 . S
C168 C172 1.407 . S
C169 C167 1.396 . S
C169 C170 1.394 . S
C170 H165 0.929 1_545 S
C170 C169 1.394 . S
C170 C171 1.382 . S
C171 C170 1.382 . S
C171 C172 1.392 . S
C171 N173 1.420 1_545 S
C172 H166 0.930 . S
C172 C168 1.407 . S
C172 C171 1.392 . S
N173 C171 1.420 1_565 S
N173 C174 1.244 . S
C174 N173 1.244 . S
H175 C178 0.929 . S
H176 C181 0.929 . S
H177 C183 0.930 . S
C178 H175 0.929 . S
C178 C179 1.398 . S
C178 C180 1.396 . S
C179 C178 1.398 . S
C179 C183 1.407 . S
C180 C178 1.396 . S
C180 C181 1.394 . S
C181 H176 0.929 . S
C181 C180 1.394 . S
C181 C182 1.382 . S
C182 C181 1.382 . S
C182 C183 1.392 . S
C182 N184 1.420 . S
C183 H177 0.930 . S
C183 C179 1.407 . S
C183 C182 1.392 . S
N184 C182 1.420 . S
N184 C185 1.244 . S
C185 N184 1.244 . S
H186 C194 0.950 . S
H187 C199 0.950 . S
H188 C196 0.950 . S
H189 C198 0.950 . S
H190 C200 0.950 . S
H191 C202 0.950 . S
H192 C204 0.950 . S
H193 C205 0.950 . S
C194 H186 0.950 . S
C194 C195 1.386 . S
C194 C196 1.391 . S
C195 C194 1.386 . S
C195 C199 1.393 . S
C196 H188 0.950 . S
C196 C194 1.391 . S
C196 C197 1.400 . S
C197 C196 1.400 . S
C197 C198 1.398 . S
C197 C203 1.491 . S
C198 H189 0.950 . S
C198 C197 1.398 . S
C198 C199 1.391 . S
C199 H187 0.950 . S
C199 C195 1.393 . S
C199 C198 1.391 . S
C200 H190 0.950 . S
C200 C201 1.386 . S
C200 C202 1.391 . S
C201 C200 1.386 . S
C201 C205 1.393 . S
C202 H191 0.950 . S
C202 C200 1.391 . S
C202 C203 1.400 . S
C203 C197 1.491 . S
C203 C202 1.400 . S
C203 C204 1.398 . S
C204 H192 0.950 . S
C204 C203 1.398 . S
C204 C205 1.391 . S
C205 H193 0.950 . S
C205 C201 1.393 . S
C205 C204 1.391 . S
H206 C214 0.950 . S
H207 C219 0.950 . S
H208 C216 0.950 . S
H209 C218 0.950 . S
H210 C220 0.950 . S
H211 C222 0.950 . S
H212 C224 0.950 . S
H213 C225 0.950 . S
C214 H206 0.950 . S
C214 C215 1.386 . S
C214 C216 1.391 . S
C215 C214 1.386 . S
C215 C219 1.393 . S
C216 H208 0.950 . S
C216 C214 1.391 . S
C216 C217 1.400 . S
C217 C216 1.400 . S
C217 C218 1.398 . S
C217 C223 1.491 . S
C218 H209 0.950 . S
C218 C217 1.398 . S
C218 C219 1.391 . S
C219 H207 0.950 . S
C219 C215 1.393 . S
C219 C218 1.391 . S
C220 H210 0.950 . S
C220 C221 1.386 . S
C220 C222 1.391 . S
C221 C220 1.386 . S
C221 C225 1.393 . S
C222 H211 0.950 . S
C222 C220 1.391 . S
C222 C223 1.400 . S
C223 C217 1.491 . S
C223 C222 1.400 . S
C223 C224 1.398 . S
C224 H212 0.950 . S
C224 C223 1.398 . S
C224 C225 1.391 . S
C225 H213 0.950 . S
C225 C221 1.393 . S
C225 C224 1.391 . S
H226 C234 0.950 . S
H227 C239 0.950 . S
H228 C236 0.950 . S
H229 C238 0.950 . S
H230 C240 0.950 . S
H231 C242 0.950 . S
H232 C244 0.950 . S
H233 C245 0.950 . S
C234 H226 0.950 . S
C234 C235 1.386 . S
C234 C236 1.391 . S
C235 C234 1.386 . S
C235 C239 1.393 . S
C236 H228 0.950 . S
C236 C234 1.391 . S
C236 C237 1.400 . S
C237 C236 1.400 . S
C237 C238 1.398 . S
C237 C243 1.491 . S
C238 H229 0.950 . S
C238 C237 1.398 . S
C238 C239 1.391 . S
C239 H227 0.950 . S
C239 C235 1.393 . S
C239 C238 1.391 . S
C240 H230 0.950 . S
C240 C241 1.386 . S
C240 C242 1.391 . S
C241 C240 1.386 . S
C241 C245 1.393 . S
C242 H231 0.950 . S
C242 C240 1.391 . S
C242 C243 1.400 . S
C243 C237 1.491 . S
C243 C242 1.400 . S
C243 C244 1.398 . S
C244 H232 0.950 . S
C244 C243 1.398 . S
C244 C245 1.391 . S
C245 H233 0.950 . S
C245 C241 1.393 . S
C245 C244 1.391 . S
H246 C254 0.950 . S
H247 C259 0.950 . S
H248 C256 0.950 . S
H249 C258 0.950 . S
H250 C260 0.950 . S
H251 C262 0.950 . S
H252 C264 0.950 . S
H253 C265 0.950 . S
C254 H246 0.950 . S
C254 C255 1.386 . S
C254 C256 1.391 . S
C255 C254 1.386 . S
C255 C259 1.393 . S
C256 H248 0.950 . S
C256 C254 1.391 . S
C256 C257 1.400 . S
C257 C256 1.400 . S
C257 C258 1.398 . S
C257 C263 1.491 . S
C258 H249 0.950 . S
C258 C257 1.398 . S
C258 C259 1.391 . S
C259 H247 0.950 . S
C259 C255 1.393 . S
C259 C258 1.391 . S
C260 H250 0.950 . S
C260 C261 1.386 . S
C260 C262 1.391 . S
C261 C260 1.386 . S
C261 C265 1.393 . S
C262 H251 0.950 . S
C262 C260 1.391 . S
C262 C263 1.400 . S
C263 C257 1.491 . S
C263 C262 1.400 . S
C263 C264 1.398 . S
C264 H252 0.950 . S
C264 C263 1.398 . S
C264 C265 1.391 . S
C265 H253 0.950 . S
C265 C261 1.393 . S
C265 C264 1.391 . S
H266 C274 0.950 . S
H267 C279 0.950 . S
H268 C276 0.950 . S
H269 C278 0.950 . S
H270 C280 0.950 . S
H271 C282 0.950 . S
H272 C284 0.950 . S
H273 C285 0.950 . S
C274 H266 0.950 . S
C274 C275 1.386 . S
C274 C276 1.391 . S
C275 C274 1.386 . S
C275 C279 1.393 . S
C276 H268 0.950 . S
C276 C274 1.391 . S
C276 C277 1.400 . S
C277 C276 1.400 . S
C277 C278 1.398 . S
C277 C283 1.491 . S
C278 H269 0.950 . S
C278 C277 1.398 . S
C278 C279 1.391 . S
C279 H267 0.950 . S
C279 C275 1.393 . S
C279 C278 1.391 . S
C280 H270 0.950 . S
C280 C281 1.386 . S
C280 C282 1.391 . S
C281 C280 1.386 . S
C281 C285 1.393 . S
C282 H271 0.950 . S
C282 C280 1.391 . S
C282 C283 1.400 . S
C283 C277 1.491 . S
C283 C282 1.400 . S
C283 C284 1.398 . S
C284 H272 0.950 . S
C284 C283 1.398 . S
C284 C285 1.391 . S
C285 H273 0.950 . S
C285 C281 1.393 . S
C285 C284 1.391 . S
H286 C294 0.950 . S
H287 C299 0.950 . S
H288 C296 0.950 . S
H289 C298 0.950 . S
H290 C300 0.950 . S
H291 C302 0.950 . S
H292 C304 0.950 . S
H293 C305 0.950 . S
C294 H286 0.950 . S
C294 C295 1.386 . S
C294 C296 1.391 . S
C295 C294 1.386 . S
C295 C299 1.393 . S
C296 H288 0.950 . S
C296 C294 1.391 . S
C296 C297 1.400 . S
C297 C296 1.400 . S
C297 C298 1.398 . S
C297 C303 1.491 . S
C298 H289 0.950 . S
C298 C297 1.398 . S
C298 C299 1.391 . S
C299 H287 0.950 . S
C299 C295 1.393 . S
C299 C298 1.391 . S
C300 H290 0.950 . S
C300 C301 1.386 . S
C300 C302 1.391 . S
C301 C300 1.386 . S
C301 C305 1.393 . S
C302 H291 0.950 . S
C302 C300 1.391 . S
C302 C303 1.400 . S
C303 C297 1.491 . S
C303 C302 1.400 . S
C303 C304 1.398 . S
C304 H292 0.950 . S
C304 C303 1.398 . S
C304 C305 1.391 . S
C305 H293 0.950 . S
C305 C301 1.393 . S
C305 C304 1.391 . S
H306 C314 0.950 . S
H307 C319 0.950 . S
H308 C316 0.950 . S
H309 C318 0.950 . S
H310 C320 0.950 . S
H311 C322 0.950 . S
H312 C324 0.950 . S
H313 C325 0.950 . S
C314 H306 0.950 . S
C314 C315 1.386 . S
C314 C316 1.391 . S
C315 C314 1.386 . S
C315 C319 1.393 . S
C316 H308 0.950 . S
C316 C314 1.391 . S
C316 C317 1.400 . S
C317 C316 1.400 . S
C317 C318 1.398 . S
C317 C323 1.491 . S
C318 H309 0.950 . S
C318 C317 1.398 . S
C318 C319 1.391 . S
C319 H307 0.950 . S
C319 C315 1.393 . S
C319 C318 1.391 . S
C320 H310 0.950 . S
C320 C321 1.386 . S
C320 C322 1.391 . S
C321 C320 1.386 . S
C321 C325 1.393 . S
C322 H311 0.950 . S
C322 C320 1.391 . S
C322 C323 1.400 . S
C323 C317 1.491 . S
C323 C322 1.400 . S
C323 C324 1.398 . S
C324 H312 0.950 . S
C324 C323 1.398 . S
C324 C325 1.391 . S
C325 H313 0.950 . S
C325 C321 1.393 . S
C325 C324 1.391 . S
H326 C334 0.950 . S
H327 C339 0.950 . S
H328 C336 0.950 . S
H329 C338 0.950 . S
H330 C340 0.950 . S
H331 C342 0.950 . S
H332 C344 0.950 . S
H333 C345 0.950 . S
C334 H326 0.950 . S
C334 C335 1.386 . S
C334 C336 1.391 . S
C335 C334 1.386 . S
C335 C339 1.393 . S
C336 H328 0.950 . S
C336 C334 1.391 . S
C336 C337 1.400 . S
C337 C336 1.400 . S
C337 C338 1.398 . S
C337 C343 1.491 . S
C338 H329 0.950 . S
C338 C337 1.398 . S
C338 C339 1.391 . S
C339 H327 0.950 . S
C339 C335 1.393 . S
C339 C338 1.391 . S
C340 H330 0.950 . S
C340 C341 1.386 . S
C340 C342 1.391 . S
C341 C340 1.386 . S
C341 C345 1.393 . S
C342 H331 0.950 . S
C342 C340 1.391 . S
C342 C343 1.400 . S
C343 C337 1.491 . S
C343 C342 1.400 . S
C343 C344 1.398 . S
C344 H332 0.950 . S
C344 C343 1.398 . S
C344 C345 1.391 . S
C345 H333 0.950 . S
C345 C341 1.393 . S
C345 C344 1.391 . S
H346 C354 0.950 . S
H347 C359 0.950 . S
H348 C356 0.950 . S
H349 C358 0.950 . S
H350 C360 0.950 . S
H351 C362 0.950 . S
H352 C364 0.950 . S
H353 C365 0.950 1_545 S
C354 H346 0.950 . S
C354 C355 1.386 . S
C354 C356 1.391 . S
C355 C354 1.386 . S
C355 C359 1.393 . S
C356 H348 0.950 . S
C356 C354 1.391 . S
C356 C357 1.400 . S
C357 C356 1.400 . S
C357 C358 1.398 . S
C357 C363 1.491 . S
C358 H349 0.950 . S
C358 C357 1.398 . S
C358 C359 1.391 . S
C359 H347 0.950 . S
C359 C355 1.393 . S
C359 C358 1.391 . S
C360 H350 0.950 . S
C360 C361 1.386 . S
C360 C362 1.391 . S
C361 C360 1.386 . S
C361 C365 1.393 . S
C362 H351 0.950 . S
C362 C360 1.391 . S
C362 C363 1.400 . S
C363 C357 1.491 . S
C363 C362 1.400 . S
C363 C364 1.398 . S
C364 H352 0.950 . S
C364 C363 1.398 . S
C364 C365 1.391 . S
C365 H353 0.950 1_565 S
C365 C361 1.393 . S
C365 C364 1.391 . S
H366 C374 0.950 . S
H367 C379 0.950 . S
H368 C376 0.950 . S
H369 C378 0.950 . S
H370 C380 0.950 . S
H371 C382 0.950 . S
H372 C384 0.950 . S
H373 C385 0.950 . S
C374 H366 0.950 . S
C374 C375 1.386 . S
C374 C376 1.391 . S
C375 C374 1.386 . S
C375 C379 1.393 . S
C376 H368 0.950 . S
C376 C374 1.391 . S
C376 C377 1.400 . S
C377 C376 1.400 . S
C377 C378 1.398 . S
C377 C383 1.491 . S
C378 H369 0.950 . S
C378 C377 1.398 . S
C378 C379 1.391 . S
C379 H367 0.950 . S
C379 C375 1.393 . S
C379 C378 1.391 . S
C380 H370 0.950 . S
C380 C381 1.386 . S
C380 C382 1.391 . S
C381 C380 1.386 . S
C381 C385 1.393 . S
C382 H371 0.950 . S
C382 C380 1.391 . S
C382 C383 1.400 . S
C383 C377 1.491 . S
C383 C382 1.400 . S
C383 C384 1.398 . S
C384 H372 0.950 . S
C384 C383 1.398 . S
C384 C385 1.391 . S
C385 H373 0.950 . S
C385 C381 1.393 . S
C385 C384 1.391 . S
H386 C394 0.950 . S
H387 C399 0.950 . S
H388 C396 0.950 . S
H389 C398 0.950 . S
H390 C400 0.950 . S
H391 C402 0.950 . S
H392 C404 0.950 . S
H393 C405 0.950 . S
C394 H386 0.950 . S
C394 C395 1.386 . S
C394 C396 1.391 . S
C395 C394 1.386 . S
C395 C399 1.393 . S
C396 H388 0.950 . S
C396 C394 1.391 . S
C396 C397 1.400 . S
C397 C396 1.400 . S
C397 C398 1.398 . S
C397 C403 1.491 . S
C398 H389 0.950 . S
C398 C397 1.398 . S
C398 C399 1.391 . S
C399 H387 0.950 . S
C399 C395 1.393 . S
C399 C398 1.391 . S
C400 H390 0.950 . S
C400 C401 1.386 . S
C400 C402 1.391 . S
C401 C400 1.386 . S
C401 C405 1.393 . S
C402 H391 0.950 . S
C402 C400 1.391 . S
C402 C403 1.400 . S
C403 C397 1.491 . S
C403 C402 1.400 . S
C403 C404 1.398 . S
C404 H392 0.950 . S
C404 C403 1.398 . S
C404 C405 1.391 . S
C405 H393 0.950 . S
C405 C401 1.393 . S
C405 C404 1.391 . S
H406 C414 0.950 . S
H407 C419 0.950 . S
H408 C416 0.950 . S
H409 C418 0.950 . S
H410 C420 0.950 . S
H411 C422 0.950 . S
H412 C424 0.950 . S
H413 C425 0.950 . S
C414 H406 0.950 . S
C414 C415 1.386 . S
C414 C416 1.391 . S
C415 C414 1.386 . S
C415 C419 1.393 . S
C416 H408 0.950 . S
C416 C414 1.391 . S
C416 C417 1.400 . S
C417 C416 1.400 . S
C417 C418 1.398 . S
C417 C423 1.491 . S
C418 H409 0.950 . S
C418 C417 1.398 . S
C418 C419 1.391 . S
C419 H407 0.950 . S
C419 C415 1.393 . S
C419 C418 1.391 . S
C420 H410 0.950 . S
C420 C421 1.386 . S
C420 C422 1.391 . S
C421 C420 1.386 . S
C421 C425 1.393 . S
C422 H411 0.950 . S
C422 C420 1.391 . S
C422 C423 1.400 . S
C423 C417 1.491 . S
C423 C422 1.400 . S
C423 C424 1.398 . S
C424 H412 0.950 . S
C424 C423 1.398 . S
C424 C425 1.391 . S
C425 H413 0.950 . S
C425 C421 1.393 . S
C425 C424 1.391 . S
H426 C434 0.950 . S
H427 C439 0.950 . S
H428 C436 0.950 . S
H429 C438 0.950 . S
H430 C440 0.950 . S
H431 C442 0.950 . S
H432 C444 0.950 . S
H433 C445 0.950 . S
C434 H426 0.950 . S
C434 C435 1.386 . S
C434 C436 1.391 . S
C435 C434 1.386 . S
C435 C439 1.393 . S
C436 H428 0.950 . S
C436 C434 1.391 . S
C436 C437 1.400 . S
C437 C436 1.400 . S
C437 C438 1.398 . S
C437 C443 1.491 1_554 S
C438 H429 0.950 . S
C438 C437 1.398 . S
C438 C439 1.391 . S
C439 H427 0.950 . S
C439 C435 1.393 . S
C439 C438 1.391 . S
C440 H430 0.950 . S
C440 C441 1.386 . S
C440 C442 1.391 . S
C441 C440 1.386 . S
C441 C445 1.393 . S
C442 H431 0.950 . S
C442 C440 1.391 . S
C442 C443 1.400 . S
C443 C437 1.491 1_556 S
C443 C442 1.400 . S
C443 C444 1.398 . S
C444 H432 0.950 . S
C444 C443 1.398 . S
C444 C445 1.391 . S
C445 H433 0.950 . S
C445 C441 1.393 . S
C445 C444 1.391 . S
H446 C454 0.950 1_565 S
H447 C459 0.950 . S
H448 C456 0.950 1_565 S
H449 C458 0.950 . S
H450 C460 0.950 . S
H451 C462 0.950 . S
H452 C464 0.950 1_565 S
H453 C465 0.950 . S
C454 H446 0.950 1_545 S
C454 C455 1.386 . S
C454 C456 1.391 . S
C455 C454 1.386 . S
C455 C459 1.393 . S
C456 H448 0.950 1_545 S
C456 C454 1.391 . S
C456 C457 1.400 . S
C457 C456 1.400 . S
C457 C458 1.398 . S
C457 C463 1.491 . S
C458 H449 0.950 . S
C458 C457 1.398 . S
C458 C459 1.391 . S
C459 H447 0.950 . S
C459 C455 1.393 . S
C459 C458 1.391 . S
C460 H450 0.950 . S
C460 C461 1.386 . S
C460 C462 1.391 . S
C461 C460 1.386 . S
C461 C465 1.393 . S
C462 H451 0.950 . S
C462 C460 1.391 . S
C462 C463 1.400 . S
C463 C457 1.491 . S
C463 C462 1.400 . S
C463 C464 1.398 . S
C464 H452 0.950 1_545 S
C464 C463 1.398 . S
C464 C465 1.391 . S
C465 H453 0.950 . S
C465 C461 1.393 . S
C465 C464 1.391 . S
H466 C474 0.950 . S
H467 C479 0.950 . S
H468 C476 0.950 . S
H469 C478 0.950 . S
H470 C480 0.950 . S
H471 C482 0.950 . S
H472 C484 0.950 . S
H473 C485 0.950 . S
C474 H466 0.950 . S
C474 C475 1.386 . S
C474 C476 1.391 . S
C475 C474 1.386 . S
C475 C479 1.393 . S
C476 H468 0.950 . S
C476 C474 1.391 . S
C476 C477 1.400 . S
C477 C476 1.400 . S
C477 C478 1.398 . S
C477 C483 1.491 . S
C478 H469 0.950 . S
C478 C477 1.398 . S
C478 C479 1.391 . S
C479 H467 0.950 . S
C479 C475 1.393 . S
C479 C478 1.391 . S
C480 H470 0.950 . S
C480 C481 1.386 . S
C480 C482 1.391 . S
C481 C480 1.386 . S
C481 C485 1.393 . S
C482 H471 0.950 . S
C482 C480 1.391 . S
C482 C483 1.400 . S
C483 C477 1.491 . S
C483 C482 1.400 . S
C483 C484 1.398 . S
C484 H472 0.950 . S
C484 C483 1.398 . S
C484 C485 1.391 . S
C485 H473 0.950 . S
C485 C481 1.393 . S
C485 C484 1.391 . S
H486 C494 0.950 . S
H487 C499 0.950 . S
H488 C496 0.950 . S
H489 C498 0.950 . S
H490 C500 0.950 . S
H491 C502 0.950 . S
H492 C504 0.950 . S
H493 C505 0.950 . S
C494 H486 0.950 . S
C494 C495 1.386 . S
C494 C496 1.391 . S
C495 C494 1.386 . S
C495 C499 1.393 . S
C496 H488 0.950 . S
C496 C494 1.391 . S
C496 C497 1.400 . S
C497 C496 1.400 . S
C497 C498 1.398 . S
C497 C503 1.491 . S
C498 H489 0.950 . S
C498 C497 1.398 . S
C498 C499 1.391 . S
C499 H487 0.950 . S
C499 C495 1.393 . S
C499 C498 1.391 . S
C500 H490 0.950 . S
C500 C501 1.386 . S
C500 C502 1.391 . S
C501 C500 1.386 . S
C501 C505 1.393 . S
C502 H491 0.950 . S
C502 C500 1.391 . S
C502 C503 1.400 . S
C503 C497 1.491 . S
C503 C502 1.400 . S
C503 C504 1.398 . S
C504 H492 0.950 . S
C504 C503 1.398 . S
C504 C505 1.391 . S
C505 H493 0.950 . S
C505 C501 1.393 . S
C505 C504 1.391 . S
H506 C514 0.950 . S
H507 C519 0.950 . S
H508 C516 0.950 . S
H509 C518 0.950 . S
H510 C520 0.950 . S
H511 C522 0.950 . S
H512 C524 0.950 . S
H513 C525 0.950 . S
C514 H506 0.950 . S
C514 C515 1.386 . S
C514 C516 1.391 . S
C515 C514 1.386 . S
C515 C519 1.393 . S
C516 H508 0.950 . S
C516 C514 1.391 . S
C516 C517 1.400 . S
C517 C516 1.400 . S
C517 C518 1.398 . S
C517 C523 1.491 1_556 S
C518 H509 0.950 . S
C518 C517 1.398 . S
C518 C519 1.391 . S
C519 H507 0.950 . S
C519 C515 1.393 . S
C519 C518 1.391 . S
C520 H510 0.950 . S
C520 C521 1.386 . S
C520 C522 1.391 . S
C521 C520 1.386 . S
C521 C525 1.393 . S
C522 H511 0.950 . S
C522 C520 1.391 . S
C522 C523 1.400 . S
C523 C517 1.491 1_554 S
C523 C522 1.400 . S
C523 C524 1.398 . S
C524 H512 0.950 . S
C524 C523 1.398 . S
C524 C525 1.391 . S
C525 H513 0.950 . S
C525 C521 1.393 . S
C525 C524 1.391 . S
H526 C534 0.950 . S
H527 C539 0.950 . S
H528 C536 0.950 . S
H529 C538 0.950 . S
H530 C540 0.950 . S
H531 C542 0.950 . S
H532 C544 0.950 . S
H533 C545 0.950 . S
C534 H526 0.950 . S
C534 C535 1.386 . S
C534 C536 1.391 . S
C535 C534 1.386 . S
C535 C539 1.393 1_455 S
C536 H528 0.950 . S
C536 C534 1.391 . S
C536 C537 1.400 . S
C537 C536 1.400 . S
C537 C538 1.398 1_455 S
C537 C543 1.491 . S
C538 H529 0.950 . S
C538 C537 1.398 1_655 S
C538 C539 1.391 . S
C539 H527 0.950 . S
C539 C535 1.393 1_655 S
C539 C538 1.391 . S
C540 H530 0.950 . S
C540 C541 1.386 1_655 S
C540 C542 1.391 . S
C541 C540 1.386 1_455 S
C541 C545 1.393 . S
C542 H531 0.950 . S
C542 C540 1.391 . S
C542 C543 1.400 1_655 S
C543 C537 1.491 . S
C543 C542 1.400 1_455 S
C543 C544 1.398 . S
C544 H532 0.950 . S
C544 C543 1.398 . S
C544 C545 1.391 . S
C545 H533 0.950 . S
C545 C541 1.393 . S
C545 C544 1.391 . S
C195 C19 1.947 . S
C201 C185 1.903 . S
C215 C46 1.282 . S
C221 C163 1.271 . S
C235 C95 0.485 . S
C241 C174 0.401 . S
C255 C10 1.859 . S
C261 C179 1.836 . S
C281 C157 1.159 . S
C275 C55 1.172 . S
C301 C168 0.426 . S
C295 C86 0.498 . S
C315 C59 3.162 . S
C321 C141 3.092 . S
C335 C90 1.883 . S
C341 C146 1.888 . S
C355 C15 1.142 . S
C361 C124 1.160 1_565 S
C381 C135 2.919 . S
C375 C50 2.936 . S
C401 C152 1.911 . S
C395 C99 1.949 . S
C415 C6 1.285 . S
C421 C130 1.269 . S
C441 C147 1.478 . S
C435 C9 1.407 . S
C455 C58 1.513 . S
C461 C125 1.535 . S
C475 C98 1.667 . S
C481 C136 1.757 . S
C501 C169 1.239 . S
C495 C49 1.185 . S
C521 C180 1.455 . S
C515 C89 1.412 . S
C535 C18 1.501 . S
C541 C158 1.528 . S
