# Generated by pormake.
# Topology pth, (4,4)-cn, num edge types: 1
# Building blocks:
#     Node 0, Type 0, BuildingBlock: QUQFOY_clean_sbu_3, # of connection points: 4
#     Node 1, Type 0, BuildingBlock: QUQFOY_clean_sbu_3, # of connection points: 4
#     Node 2, Type 0, BuildingBlock: QUQFOY_clean_sbu_3, # of connection points: 4
#     Node 3, Type 1, BuildingBlock: MUDLON_clean_linker_0, # of connection points: 4
#     Node 4, Type 1, BuildingBlock: MUDLON_clean_linker_0, # of connection points: 4
#     Node 5, Type 1, BuildingBlock: MUDLON_clean_linker_0, # of connection points: 4
#     Edge 6, Type (0, 1), BuildingBlock: AJUNOK_clean_linker_0, # of connection points: 2
#     Edge 7, Type (0, 1), BuildingBlock: AJUNOK_clean_linker_0, # of connection points: 2
#     Edge 8, Type (0, 1), BuildingBlock: AJUNOK_clean_linker_0, # of connection points: 2
#     Edge 9, Type (0, 1), BuildingBlock: AJUNOK_clean_linker_0, # of connection points: 2
#     Edge 10, Type (0, 1), BuildingBlock: AJUNOK_clean_linker_0, # of connection points: 2
#     Edge 11, Type (0, 1), BuildingBlock: AJUNOK_clean_linker_0, # of connection points: 2
#     Edge 12, Type (0, 1), BuildingBlock: AJUNOK_clean_linker_0, # of connection points: 2
#     Edge 13, Type (0, 1), BuildingBlock: AJUNOK_clean_linker_0, # of connection points: 2
#     Edge 14, Type (0, 1), BuildingBlock: AJUNOK_clean_linker_0, # of connection points: 2
#     Edge 15, Type (0, 1), BuildingBlock: AJUNOK_clean_linker_0, # of connection points: 2
#     Edge 16, Type (0, 1), BuildingBlock: AJUNOK_clean_linker_0, # of connection points: 2
#     Edge 17, Type (0, 1), BuildingBlock: AJUNOK_clean_linker_0, # of connection points: 2
# Relax obj value: 0.040
# Max RMSD: 0.099
# Mean RMSD: 0.090
data_MOF--net-pth--node1-QUQFOY_clean_sbu_3--node2-MUDLON_clean_linker_0--edge1-AJUNOK_clean_linker_0
_symmetry_space_group_name_H-M    P1
_symmetry_Int_Tables_number       1
_symmetry_cell_setting            triclinic
loop_
_symmetry_equiv_pos_as_xyz
'x, y, z'
_cell_length_a     27.308092
_cell_length_b     27.135664
_cell_length_c     56.517623
_cell_angle_alpha  90.071947
_cell_angle_beta   90.763511
_cell_angle_gamma 120.68558
loop_
_atom_site_label
_atom_site_type_symbol
_atom_site_fract_x
_atom_site_fract_y
_atom_site_fract_z
_atom_type_partial_charge
C0 C 0.94635 0.08899 0.06711 0.0
O1 O 0.91021 0.08307 0.05132 0.0
Cd2 Cd 0.91055 0.04032 0.01369 0.0
O3 O 0.9777 0.06767 0.06377 0.0
Cd4 Cd 0.99451 0.0084 0.03615 0.0
C5 C 0.05307 0.12101 -0.00014 0.0
O6 O 0.90144 0.94726 0.01618 0.0
O7 O 0.9768 0.95564 4e-05 0.0
O8 O 0.97762 0.94468 0.06875 0.0
C9 C 0.92301 0.93174 3e-05 0.0
O10 O 0.00156 0.10761 0.99622 0.0
C11 C 0.02532 0.94731 0.06826 0.0
O12 O 0.06516 0.09377 0.01495 0.0
O13 O 0.06 0.9793 0.05259 0.0
C14 C 0.12263 0.05502 0.39806 0.0
O15 O 0.15343 0.09466 0.3838 0.0
Cd16 Cd 0.11362 0.11222 0.34889 0.0
O17 O 0.06872 0.02643 0.39524 0.0
Cd18 Cd 0.99051 0.01894 0.36995 0.0
C19 C 0.0415 0.97196 0.3271 0.0
O20 O 0.03331 0.11969 0.35922 0.0
O21 O 0.95885 0.0594 0.33914 0.0
O22 O 0.95224 0.01808 0.40822 0.0
C23 C -0.00272 0.11111 0.34293 0.0
O24 O 0.0812 0.02431 0.32638 0.0
C25 C 0.9011 0.98017 0.40334 0.0
O26 O 0.00204 0.95527 0.34228 0.0
O27 O 0.89067 0.95832 0.38264 0.0
C28 C 0.92162 0.08279 0.66939 0.0
O29 O 0.92203 0.11315 0.68659 0.0
Cd30 Cd 0.96947 0.12135 0.72377 0.0
O31 O 0.94983 0.05725 0.67076 0.0
Cd32 Cd 0.01456 0.04596 0.6985 0.0
C33 C 0.91039 0.97869 0.73874 0.0
O34 O 0.06368 0.14155 0.71626 0.0
O35 O 0.07494 0.07747 0.73393 0.0
O36 O 0.08707 0.06678 0.66945 0.0
C37 C 0.08755 0.12934 0.73278 0.0
O38 O 0.91634 0.02778 0.74243 0.0
C39 C 0.07975 0.01676 0.66859 0.0
O40 O 0.93883 0.97179 0.72269 0.0
O41 O 0.04099 0.97901 0.68147 0.0
H42 H -0.00135 0.73913 0.21123 0.0
N43 N 0.102 0.75053 0.20126 0.0
H44 H 0.97924 0.78491 0.24418 0.0
H45 H 0.16908 0.80336 0.23838 0.0
H46 H 0.14945 0.84801 0.27179 0.0
H47 H 0.17486 0.85021 0.18206 0.0
H48 H 0.15877 0.89505 0.14759 0.0
H49 H 0.00844 0.7006 0.17183 0.0
H50 H 0.99242 0.74454 0.13698 0.0
H51 H 0.00557 0.65082 0.21403 0.0
H52 H 0.17463 0.72029 0.18671 0.0
H53 H 0.99393 0.55551 0.21495 0.0
H54 H 0.16237 0.62472 0.18619 0.0
H55 H 0.96856 0.32393 0.23259 0.0
H56 H 0.95223 0.27042 0.26954 0.0
H57 H 0.11709 0.28605 0.26348 0.0
H58 H 0.13297 0.3395 0.22674 0.0
H59 H 0.12415 0.35521 0.17099 0.0
H60 H 0.09153 0.28657 0.13786 0.0
H61 H 0.91745 0.21744 0.15912 0.0
H62 H 0.95032 0.28568 0.19241 0.0
H63 H 0.97448 0.38279 0.1945 0.0
H64 H 0.98212 0.47634 0.19243 0.0
H65 H 0.16009 0.55764 0.21285 0.0
N66 N 0.06145 0.36285 0.20447 0.0
H67 H 0.15243 0.46407 0.21353 0.0
C68 C 0.08582 0.76862 0.22225 0.0
C69 C 0.03148 0.76195 0.22457 0.0
C70 C 0.0202 0.78769 0.24353 0.0
C71 C 0.0629 0.82009 0.2605 0.0
C72 C 0.1159 0.82356 0.25887 0.0
C73 C 0.12716 0.79807 0.2399 0.0
C74 C 0.09313 0.77226 0.1794 0.0
C75 C 0.13541 0.82663 0.17199 0.0
C76 C 0.12628 0.85192 0.15224 0.0
C77 C 0.07456 0.82301 0.13945 0.0
C78 C 0.03269 0.76774 0.14653 0.0
C79 C 0.04184 0.74252 0.16635 0.0
C80 C 0.09169 0.69295 0.20074 0.0
C81 C 0.04011 0.64556 0.2081 0.0
C82 C 0.0333 0.59082 0.20837 0.0
C83 C 0.0775 0.58232 0.20094 0.0
C84 C 0.128 0.62969 0.19269 0.0
C85 C 0.13501 0.6843 0.19276 0.0
C86 C 0.05202 0.33536 0.22701 0.0
C87 C 0.00127 0.31625 0.23939 0.0
C88 C 0.99209 0.28589 0.26047 0.0
C89 C 0.03371 0.27476 0.2695 0.0
C90 C 0.08486 0.29517 0.25727 0.0
C91 C 0.09384 0.32522 0.23624 0.0
C92 C 0.03989 0.32573 0.18404 0.0
C93 C 0.07897 0.32569 0.1683 0.0
C94 C 0.06034 0.28646 0.14955 0.0
C95 C 0.00209 0.24663 0.14618 0.0
C96 C 0.96255 0.2479 0.16141 0.0
C97 C 0.98134 0.28693 0.18036 0.0
C98 C 0.06338 0.41675 0.20377 0.0
C99 C 0.01519 0.42075 0.19829 0.0
C100 C 0.01955 0.47441 0.19735 0.0
C101 C 0.07191 0.52484 0.20221 0.0
C102 C 0.11946 0.52009 0.20834 0.0
C103 C 0.11518 0.46668 0.20895 0.0
H104 H 0.7728 0.12793 0.53924 0.0
N105 N 0.67857 0.03287 0.52543 0.0
H106 H 0.83259 0.14154 0.57439 0.0
H107 H 0.65511 0.95468 0.56067 0.0
H108 H 0.71473 0.96787 0.59545 0.0
H109 H 0.67776 0.93125 0.52316 0.0
H110 H 0.72056 0.90319 0.49211 0.0
H111 H 0.71396 0.0817 0.48364 0.0
H112 H 0.75561 0.05285 0.4522 0.0
H113 H 0.6389 0.10369 0.52489 0.0
H114 H 0.58569 0.92495 0.5301 0.0
H115 H 0.54022 0.08004 0.52844 0.0
H116 H 0.48722 0.90082 0.53502 0.0
H117 H 0.28134 0.0393 0.54984 0.0
H118 H 0.23752 0.05553 0.58352 0.0
H119 H 0.17917 0.88353 0.60766 0.0
H120 H 0.22054 0.86608 0.57257 0.0
H121 H 0.17862 0.87357 0.51198 0.0
H122 H 0.14455 0.90173 0.47711 0.0
H123 H 0.29656 0.06943 0.47992 0.0
H124 H 0.33121 0.0403 0.51394 0.0
H125 H 0.36884 0.03028 0.55717 0.0
H126 H 0.46605 0.05013 0.55546 0.0
H127 H 0.4083 0.89465 0.51461 0.0
N128 N 0.27368 0.93762 0.53709 0.0
H129 H 0.31024 0.87355 0.51756 0.0
C130 C 0.70975 0.04046 0.54722 0.0
C131 C 0.75968 0.09312 0.55161 0.0
C132 C 0.79365 0.10078 0.57159 0.0
C133 C 0.77846 0.05546 0.58735 0.0
C134 C 0.72771 0.00313 0.5833 0.0
C135 C 0.69349 0.99569 0.56346 0.0
C136 C 0.69366 0.0094 0.50588 0.0
C137 C 0.69378 0.9577 0.50764 0.0
C138 C 0.71808 0.94151 0.48987 0.0
C139 C 0.74157 0.97612 0.46993 0.0
C140 C 0.73747 0.02535 0.46738 0.0
C141 C 0.71393 0.04192 0.48528 0.0
C142 C 0.61968 0.01638 0.52738 0.0
C143 C 0.60577 0.05934 0.52702 0.0
C144 C 0.54938 0.04569 0.5293 0.0
C145 C 0.50551 0.98848 0.53228 0.0
C146 C 0.51965 0.94527 0.53254 0.0
C147 C 0.57615 0.95902 0.52996 0.0
C148 C 0.2537 0.95087 0.5584 0.0
C149 C 0.25931 0.00482 0.56223 0.0
C150 C 0.23486 0.01448 0.58186 0.0
C151 C 0.20551 0.97113 0.59854 0.0
C152 C 0.20137 0.91776 0.5951 0.0
C153 C 0.22521 0.90782 0.57519 0.0
C154 C 0.25731 0.95445 0.51555 0.0
C155 C 0.20489 0.916 0.50476 0.0
C156 C 0.18541 0.93231 0.485 0.0
C157 C 0.21801 0.98772 0.4757 0.0
C158 C 0.27103 0.02604 0.4863 0.0
C159 C 0.29073 0.00948 0.5059 0.0
C160 C 0.33172 0.94972 0.53769 0.0
C161 C 0.37663 -0.0002 0.54821 0.0
C162 C 0.43266 0.01155 0.54694 0.0
C163 C 0.44538 0.97421 0.53477 0.0
C164 C 0.40027 0.92399 0.52446 0.0
C165 C 0.34417 0.91193 0.52601 0.0
H166 H 0.71403 0.78003 0.87493 0.0
N167 N 0.7053 0.6786 0.86128 0.0
H168 H 0.76262 0.83624 0.91042 0.0
H169 H 0.7537 0.65136 0.89591 0.0
H170 H 0.80223 0.7076 0.9317 0.0
H171 H 0.80046 0.70532 0.83899 0.0
H172 H 0.84443 0.77338 0.80663 0.0
H173 H 0.65546 0.72836 0.83555 0.0
H174 H 0.69805 0.7943 0.80279 0.0
H175 H 0.61996 0.69619 0.87628 0.0
H176 H 0.65466 0.56854 0.8493 0.0
H177 H 0.51979 0.62406 0.87968 0.0
H178 H 0.55338 0.49575 0.85209 0.0
H179 H 0.24911 0.41539 0.90863 0.0
H180 H 0.20188 0.35896 0.94378 0.0
H181 H 0.23654 0.22821 0.92055 0.0
H182 H 0.28507 0.28542 0.88607 0.0
H183 H 0.32798 0.3253 0.84725 0.0
H184 H 0.28229 0.26736 0.81181 0.0
H185 H 0.15117 0.31125 0.81533 0.0
H186 H 0.19788 0.37027 0.85064 0.0
H187 H 0.33596 0.49269 0.85843 0.0
H188 H 0.43695 0.56492 0.85484 0.0
H189 H 0.48174 0.4441 0.88217 0.0
N190 N 0.29091 0.38569 0.87288 0.0
H191 H 0.38087 0.37198 0.88516 0.0
C192 C 0.73075 0.7115 0.88266 0.0
C193 C 0.73272 0.76353 0.88725 0.0
C194 C 0.76021 0.79556 0.90759 0.0
C195 C 0.78649 0.7764 0.92361 0.0
C196 C 0.7829 0.72359 0.91942 0.0
C197 C 0.75523 0.69149 0.89911 0.0
C198 C 0.72488 0.71162 0.83985 0.0
C199 C 0.77753 0.72392 0.83088 0.0
C200 C 0.80246 0.76264 0.81239 0.0
C201 C 0.77504 0.78982 0.80247 0.0
C202 C 0.72071 0.77494 0.81048 0.0
C203 C 0.69603 0.73664 0.82912 0.0
C204 C 0.64512 0.63766 0.86258 0.0
C205 C 0.60615 0.65271 0.87098 0.0
C206 C 0.54856 0.61135 0.87277 0.0
C207 C 0.52861 0.55413 0.86619 0.0
C208 C 0.56755 0.5393 0.85761 0.0
C209 C 0.62522 0.58078 0.85583 0.0
C210 C 0.26996 0.35453 0.89461 0.0
C211 C 0.24754 0.37514 0.91147 0.0
C212 C 0.22059 0.34288 0.93145 0.0
C213 C 0.21555 0.2892 0.93491 0.0
C214 C 0.24062 0.26984 0.91861 0.0
C215 C 0.26786 0.30233 0.89869 0.0
C216 C 0.26639 0.35255 0.85151 0.0
C217 C 0.28983 0.3231 0.84031 0.0
C218 C 0.26359 0.2898 0.82009 0.0
C219 C 0.21361 0.28539 0.81068 0.0
C220 C 0.19038 0.31494 0.82188 0.0
C221 C 0.21667 0.34825 0.84208 0.0
C222 C 0.35085 0.42733 0.87219 0.0
C223 C 0.36773 0.4821 0.86374 0.0
C224 C 0.42535 0.52323 0.86179 0.0
C225 C 0.46736 0.51025 0.86826 0.0
C226 C 0.45039 0.45521 0.87679 0.0
C227 C 0.39264 0.41404 0.87872 0.0
C228 C 0.93191 0.15968 0.09027 0.0
C229 C 0.95545 0.12409 0.08873 0.0
C230 C 0.94557 0.19807 0.10933 0.0
C231 C 0.98343 0.20235 0.12739 0.0
H232 H 0.90422 0.15934 0.07628 0.0
H233 H 0.92803 0.22598 0.10951 0.0
S234 S 0.05067 0.11397 0.13365 0.0
N235 N 0.01416 0.09205 0.10849 0.0
N236 N 0.03986 0.16452 0.14396 0.0
C237 C 0.00503 0.16529 0.12673 0.0
C238 C 0.99101 0.12606 0.1075 0.0
C239 C 0.80365 0.96068 0.41266 0.0
C240 C 0.85578 0.96716 0.42046 0.0
C241 C 0.76512 0.96077 0.42886 0.0
C242 C 0.77692 0.96579 0.45334 0.0
H243 H 0.79426 0.95934 0.39391 0.0
H244 H 0.72688 0.95903 0.4222 0.0
S245 S 0.90477 0.97781 0.48276 0.0
N246 N 0.91531 0.97468 0.45423 0.0
N247 N 0.84238 0.97344 0.48463 0.0
C248 C 0.82714 0.96851 0.46137 0.0
C249 C 0.86673 0.96953 0.44492 0.0
C250 C 0.86593 0.87554 0.75064 0.0
C251 C 0.87198 0.92985 0.75409 0.0
C252 C 0.83335 0.83 0.76596 0.0
C253 C 0.80527 0.83683 0.78525 0.0
H254 H 0.88733 0.86824 0.73625 0.0
H255 H 0.83057 0.78925 0.76282 0.0
S256 S 0.80687 0.96975 0.8023 0.0
N257 N 0.84589 0.98713 0.77832 0.0
N258 N 0.78576 0.90189 0.80714 0.0
C259 C 0.81003 0.89042 0.78871 0.0
C260 C 0.84306 0.93678 0.77314 0.0
C261 C -0.00012 0.88368 0.10338 0.0
C262 C 0.03901 0.9147 0.0855 0.0
C263 C 0.01131 0.85324 0.12033 0.0
C264 C 0.06236 0.85246 0.12016 0.0
H265 H 0.96016 0.88337 0.10455 0.0
H266 H 0.98044 0.83127 0.13406 0.0
S267 S 0.17751 0.92324 0.07635 0.0
N268 N 0.1301 0.94071 0.06812 0.0
N269 N 0.15128 0.88285 0.09999 0.0
C270 C 0.10148 0.88225 0.10216 0.0
C271 C 0.08987 0.91344 0.08483 0.0
C272 C 0.11594 0.01048 0.43745 0.0
C273 C 0.149 0.04044 0.41786 0.0
C274 C 0.13871 0.99388 0.45601 0.0
C275 C 0.19534 0.00612 0.45569 0.0
H276 H 0.07203 -0.00012 0.43854 0.0
H277 H 0.11175 0.97161 0.47085 0.0
S278 S 0.29903 0.08074 0.40792 0.0
N279 N 0.24108 0.08051 0.39901 0.0
N280 N 0.28343 0.04811 0.43372 0.0
C281 C 0.22888 0.0358 0.43618 0.0
C282 C 0.20584 0.05321 0.41733 0.0
C283 C 0.14248 0.15355 0.77098 0.0
C284 C 0.12243 0.17129 0.75161 0.0
C285 C 0.17281 0.19106 0.78974 0.0
C286 C 0.18425 0.24777 0.78992 0.0
H287 H 0.13392 0.10999 0.77191 0.0
H288 H 0.18619 0.17506 0.80452 0.0
S289 S 0.1455 0.31723 0.74275 0.0
N290 N 0.11903 0.25068 0.73326 0.0
N291 N 0.17649 0.32117 0.76854 0.0
C292 C 0.16589 0.26667 0.77044 0.0
C293 C 0.13498 0.22848 0.75128 0.0
C294 C 0.86619 0.11355 0.64398 0.0
C295 C 0.88681 0.07599 0.64787 0.0
C296 C 0.83178 0.10714 0.62421 0.0
C297 C 0.81602 0.06243 0.60778 0.0
H298 H 0.87664 0.14829 0.6563 0.0
H299 H 0.81661 0.13678 0.62197 0.0
S300 S 0.85956 0.95353 0.60908 0.0
N301 N 0.88968 0.99315 0.63302 0.0
N302 N 0.8247 0.98119 0.59604 0.0
C303 C 0.83659 0.02493 0.61123 0.0
C304 C 0.87212 0.03172 0.63119 0.0
C305 C 0.83011 0.87286 0.97809 0.0
C306 C 0.88782 0.88968 0.98128 0.0
C307 C 0.79722 0.83563 0.95955 0.0
C308 C 0.82068 0.81334 0.9438 0.0
H309 H 0.81046 0.88941 0.98967 0.0
H310 H 0.75317 0.82431 0.95747 0.0
S311 S 0.9692 0.84333 0.94443 0.0
N312 N 0.96664 0.88031 0.9671 0.0
N313 N 0.90472 0.81073 0.93239 0.0
C314 C 0.87791 0.82908 0.94697 0.0
C315 C 0.9115 0.86715 0.96567 0.0
C316 C 0.09125 0.9512 0.2954 0.0
C317 C 0.04404 0.93095 0.31037 0.0
C318 C 0.09676 0.91476 0.27965 0.0
C319 C 0.05533 0.85631 0.27802 0.0
H320 H 0.12476 0.99584 0.29576 0.0
H321 H 0.13364 0.93284 0.26837 0.0
S322 S 0.92357 0.78067 0.31308 0.0
N323 N 0.95478 0.84782 0.32249 0.0
N324 N 0.96549 0.77914 0.29265 0.0
C325 C 0.00766 0.83507 0.29268 0.0
C326 C 0.00201 0.87234 0.30893 0.0
C327 C 0.08941 0.95021 0.64097 0.0
C328 C 0.11413 0.00337 0.65278 0.0
C329 C 0.11989 0.93929 0.62401 0.0
C330 C 0.17645 0.98084 0.61858 0.0
H331 H 0.04546 0.91779 0.64408 0.0
H332 H 0.0982 0.89886 0.61445 0.0
S333 S 0.26326 0.12308 0.64779 0.0
N334 N 0.19987 0.09568 0.65977 0.0
N335 N 0.258 0.07435 0.62875 0.0
C336 C 0.20263 0.03276 0.63146 0.0
C337 C 0.17127 0.04422 0.64834 0.0
C338 C 0.08388 0.20115 0.97128 0.0
C339 C 0.09809 0.16745 0.98547 0.0
C340 C 0.12295 0.24174 0.95574 0.0
C341 C 0.17805 0.25053 0.95363 0.0
H342 H 0.04162 0.19538 0.97171 0.0
H343 H 0.10902 0.26489 0.94461 0.0
S344 S 0.23903 0.1778 0.98817 0.0
N345 N 0.17289 0.14846 -0.00257 0.0
N346 N 0.24661 0.22545 0.96818 0.0
C347 C 0.19387 0.21895 0.9683 0.0
C348 C 0.15395 0.17744 0.98427 0.0
C349 C 0.9636 0.14377 0.30839 0.0
C350 C 0.00465 0.15675 0.32642 0.0
C351 C 0.97212 0.18336 0.29072 0.0
C352 C 0.02209 0.23745 0.29034 0.0
H353 H 0.92524 0.10194 0.30742 0.0
H354 H 0.94048 0.17048 0.27665 0.0
S355 S 0.13968 0.29556 0.33492 0.0
N356 N 0.095 0.22978 0.34389 0.0
N357 N 0.11075 0.30423 0.31062 0.0
C358 C 0.06213 0.25225 0.30889 0.0
C359 C 0.05343 0.21196 0.32697 0.0
loop_
_geom_bond_atom_site_label_1
_geom_bond_atom_site_label_2
_geom_bond_distance
_geom_bond_site_symmetry_2
_ccdc_geom_bond_type
C0 O1 1.306 1_455 S
C0 O3 1.160 . S
O1 C0 1.306 1_655 S
O1 Cd2 2.228 . S
Cd2 O1 2.228 . S
Cd2 O6 2.273 1_545 S
Cd2 O10 2.277 1_655 S
O3 C0 1.160 . S
O3 Cd4 2.203 . S
Cd4 O3 2.203 . S
Cd4 O6 2.411 1_445 S
Cd4 O7 2.333 1_445 S
Cd4 O8 2.352 1_445 S
Cd4 O12 2.277 . S
Cd4 O13 2.356 1_545 S
C5 O10 1.209 . S
C5 O12 1.226 . S
O6 Cd2 2.273 1_565 S
O6 Cd4 2.411 1_665 S
O6 C9 1.320 . S
O7 Cd4 2.333 1_665 S
O7 C9 1.214 . S
O8 Cd4 2.352 1_665 S
O8 C11 1.258 1_655 S
C9 O6 1.320 . S
C9 O7 1.214 . S
O10 Cd2 2.277 1_455 S
O10 C5 1.209 . S
C11 O8 1.258 1_455 S
C11 O13 1.282 . S
O12 Cd4 2.277 . S
O12 C5 1.226 . S
O13 Cd4 2.356 1_565 S
O13 C11 1.282 . S
C14 O15 1.306 . S
C14 O17 1.160 1_545 S
O15 C14 1.306 . S
O15 Cd16 2.228 . S
Cd16 O15 2.228 . S
Cd16 O20 2.273 . S
Cd16 O24 2.277 1_545 S
O17 C14 1.160 1_565 S
O17 Cd18 2.203 1_465 S
Cd18 O17 2.203 1_645 S
Cd18 O20 2.411 1_655 S
Cd18 O21 2.333 . S
Cd18 O22 2.352 . S
Cd18 O26 2.277 1_545 S
Cd18 O27 2.356 1_545 S
C19 O24 1.209 . S
C19 O26 1.226 1_455 S
O20 Cd16 2.273 . S
O20 Cd18 2.411 1_455 S
O20 C23 1.320 . S
O21 Cd18 2.333 . S
O21 C23 1.214 1_655 S
O22 Cd18 2.352 . S
O22 C25 1.258 . S
C23 O20 1.320 . S
C23 O21 1.214 1_455 S
O24 Cd16 2.277 1_565 S
O24 C19 1.209 . S
C25 O22 1.258 . S
C25 O27 1.282 1_545 S
O26 Cd18 2.277 1_565 S
O26 C19 1.226 1_655 S
O27 Cd18 2.356 1_565 S
O27 C25 1.282 1_565 S
C28 O29 1.306 . S
C28 O31 1.160 1_545 S
O29 C28 1.306 . S
O29 Cd30 2.228 . S
Cd30 O29 2.228 . S
Cd30 O34 2.273 1_655 S
Cd30 O38 2.277 1_545 S
O31 C28 1.160 1_565 S
O31 Cd32 2.203 1_665 S
Cd32 O31 2.203 1_445 S
Cd32 O34 2.411 . S
Cd32 O35 2.333 . S
Cd32 O36 2.352 . S
Cd32 O40 2.277 1_445 S
Cd32 O41 2.356 1_545 S
C33 O38 1.209 . S
C33 O40 1.226 . S
O34 Cd30 2.273 1_455 S
O34 Cd32 2.411 . S
O34 C37 1.320 . S
O35 Cd32 2.333 . S
O35 C37 1.214 . S
O36 Cd32 2.352 . S
O36 C39 1.258 . S
C37 O34 1.320 . S
C37 O35 1.214 . S
O38 Cd30 2.277 1_565 S
O38 C33 1.209 . S
C39 O36 1.258 . S
C39 O41 1.282 1_545 S
O40 Cd32 2.277 1_665 S
O40 C33 1.226 . S
O41 Cd32 2.356 1_565 S
O41 C39 1.282 1_565 S
H42 C69 0.929 . S
N43 C68 1.433 . S
N43 C74 1.435 . S
N43 C80 1.423 . S
H44 C70 0.930 . S
H45 C73 0.931 . S
H46 C72 0.929 . S
H47 C75 0.930 . S
H48 C76 0.932 . S
H49 C79 0.929 . S
H50 C78 0.931 . S
H51 C81 0.929 . S
H52 C85 0.932 . S
H53 C82 0.931 . S
H54 C84 0.929 . S
H55 C87 0.929 . S
H56 C88 0.930 . S
H57 C90 0.929 . S
H58 C91 0.931 . S
H59 C93 0.930 . S
H60 C94 0.932 . S
H61 C96 0.931 . S
H62 C97 0.929 . S
H63 C99 0.929 . S
H64 C100 0.931 . S
H65 C102 0.929 . S
N66 C86 1.433 . S
N66 C92 1.435 . S
N66 C98 1.423 . S
H67 C103 0.932 . S
C68 N43 1.433 . S
C68 C69 1.363 1_455 S
C68 C73 1.370 . S
C69 H42 0.929 . S
C69 C68 1.363 1_655 S
C69 C70 1.385 . S
C70 H44 0.930 . S
C70 C69 1.385 . S
C70 C71 1.357 1_655 S
C71 C70 1.357 1_455 S
C71 C72 1.406 . S
C72 H46 0.929 . S
C72 C71 1.406 . S
C72 C73 1.391 . S
C73 H45 0.931 . S
C73 C68 1.370 . S
C73 C72 1.391 . S
C74 N43 1.435 . S
C74 C75 1.358 . S
C74 C79 1.371 1_455 S
C75 H47 0.930 . S
C75 C74 1.358 . S
C75 C76 1.405 . S
C76 H48 0.932 . S
C76 C75 1.405 . S
C76 C77 1.383 . S
C77 C76 1.383 . S
C77 C78 1.393 1_455 S
C78 H50 0.931 . S
C78 C77 1.393 1_655 S
C78 C79 1.382 . S
C79 H49 0.929 . S
C79 C74 1.371 1_655 S
C79 C78 1.382 . S
C80 N43 1.423 . S
C80 C81 1.362 1_455 S
C80 C85 1.388 . S
C81 H51 0.929 . S
C81 C80 1.362 1_655 S
C81 C82 1.376 . S
C82 H53 0.931 . S
C82 C81 1.376 . S
C82 C83 1.396 . S
C83 C82 1.396 . S
C83 C84 1.348 1_655 S
C83 C101 1.472 . S
C84 H54 0.929 . S
C84 C83 1.348 1_455 S
C84 C85 1.443 . S
C85 H52 0.932 . S
C85 C80 1.388 . S
C85 C84 1.443 . S
C86 N66 1.433 . S
C86 C87 1.363 1_455 S
C86 C91 1.370 . S
C87 H55 0.929 . S
C87 C86 1.363 1_655 S
C87 C88 1.385 . S
C88 H56 0.930 . S
C88 C87 1.385 . S
C88 C89 1.357 1_655 S
C89 C88 1.357 1_455 S
C89 C90 1.406 . S
C90 H57 0.929 . S
C90 C89 1.406 . S
C90 C91 1.391 . S
C91 H58 0.931 . S
C91 C86 1.370 . S
C91 C90 1.391 . S
C92 N66 1.435 . S
C92 C93 1.358 . S
C92 C97 1.371 1_455 S
C93 H59 0.930 . S
C93 C92 1.358 . S
C93 C94 1.405 . S
C94 H60 0.932 . S
C94 C93 1.405 . S
C94 C95 1.383 . S
C95 C94 1.383 . S
C95 C96 1.393 1_455 S
C96 H61 0.931 . S
C96 C95 1.393 1_655 S
C96 C97 1.382 . S
C97 H62 0.929 . S
C97 C92 1.371 1_655 S
C97 C96 1.382 . S
C98 N66 1.423 . S
C98 C99 1.362 1_455 S
C98 C103 1.388 . S
C99 H63 0.929 . S
C99 C98 1.362 1_655 S
C99 C100 1.376 . S
C100 H64 0.931 . S
C100 C99 1.376 . S
C100 C101 1.396 . S
C101 C83 1.472 . S
C101 C100 1.396 . S
C101 C102 1.348 1_655 S
C102 H65 0.929 . S
C102 C101 1.348 1_455 S
C102 C103 1.443 . S
C103 H67 0.932 . S
C103 C98 1.388 . S
C103 C102 1.443 . S
H104 C131 0.929 . S
N105 C130 1.433 . S
N105 C136 1.435 . S
N105 C142 1.423 . S
H106 C132 0.930 . S
H107 C135 0.931 1_565 S
H108 C134 0.934 . S
H109 C137 0.930 . S
H110 C138 0.932 . S
H111 C141 0.929 . S
H112 C140 0.931 . S
H113 C143 0.929 . S
H114 C147 0.932 1_565 S
H115 C144 0.931 . S
H116 C146 0.929 . S
H117 C149 0.929 . S
H118 C150 0.930 . S
H119 C152 0.947 . S
H120 C153 0.931 1_565 S
H121 C155 0.930 . S
H122 C156 0.932 . S
H123 C158 0.931 . S
H124 C159 0.929 . S
H125 C161 0.929 . S
H126 C162 0.931 . S
H127 C164 0.929 . S
N128 C148 1.433 . S
N128 C154 1.435 . S
N128 C160 1.423 . S
H129 C165 0.932 1_565 S
C130 N105 1.433 . S
C130 C131 1.363 . S
C130 C135 1.370 . S
C131 H104 0.929 . S
C131 C130 1.363 . S
C131 C132 1.385 . S
C132 H106 0.930 . S
C132 C131 1.385 . S
C132 C133 1.357 . S
C133 C132 1.357 . S
C133 C134 1.408 1_545 S
C134 H108 0.934 . S
C134 C133 1.408 1_565 S
C134 C135 1.385 1_565 S
C135 H107 0.931 1_545 S
C135 C130 1.370 . S
C135 C134 1.385 1_545 S
C136 N105 1.435 . S
C136 C137 1.358 1_545 S
C136 C141 1.371 . S
C137 H109 0.930 . S
C137 C136 1.358 1_565 S
C137 C138 1.405 . S
C138 H110 0.932 . S
C138 C137 1.405 . S
C138 C139 1.383 1_565 S
C139 C138 1.383 1_545 S
C139 C140 1.393 . S
C140 H112 0.931 . S
C140 C139 1.393 . S
C140 C141 1.382 . S
C141 H111 0.929 . S
C141 C136 1.371 . S
C141 C140 1.382 . S
C142 N105 1.423 . S
C142 C143 1.362 . S
C142 C147 1.388 . S
C143 H113 0.929 . S
C143 C142 1.362 . S
C143 C144 1.376 . S
C144 H115 0.931 . S
C144 C143 1.376 . S
C144 C145 1.396 . S
C145 C144 1.396 . S
C145 C146 1.348 . S
C145 C163 1.472 . S
C146 H116 0.929 . S
C146 C145 1.348 . S
C146 C147 1.443 . S
C147 H114 0.932 1_545 S
C147 C142 1.388 . S
C147 C146 1.443 . S
C148 N128 1.433 . S
C148 C149 1.363 . S
C148 C153 1.370 . S
C149 H117 0.929 . S
C149 C148 1.363 . S
C149 C150 1.385 . S
C150 H118 0.930 . S
C150 C149 1.385 . S
C150 C151 1.357 . S
C151 C150 1.357 . S
C151 C152 1.387 1_545 S
C152 H119 0.947 . S
C152 C151 1.387 1_565 S
C152 C153 1.393 1_565 S
C153 H120 0.931 1_545 S
C153 C148 1.370 . S
C153 C152 1.393 1_545 S
C154 N128 1.435 . S
C154 C155 1.358 1_545 S
C154 C159 1.371 . S
C155 H121 0.930 . S
C155 C154 1.358 1_565 S
C155 C156 1.405 . S
C156 H122 0.932 . S
C156 C155 1.405 . S
C156 C157 1.383 1_565 S
C157 C156 1.383 1_545 S
C157 C158 1.393 . S
C158 H123 0.931 . S
C158 C157 1.393 . S
C158 C159 1.382 . S
C159 H124 0.929 . S
C159 C154 1.371 . S
C159 C158 1.382 . S
C160 N128 1.423 . S
C160 C161 1.362 . S
C160 C165 1.388 . S
C161 H125 0.929 . S
C161 C160 1.362 . S
C161 C162 1.376 . S
C162 H126 0.931 . S
C162 C161 1.376 . S
C162 C163 1.396 . S
C163 C145 1.472 . S
C163 C162 1.396 . S
C163 C164 1.348 . S
C164 H127 0.929 . S
C164 C163 1.348 . S
C164 C165 1.443 . S
C165 H129 0.932 1_545 S
C165 C160 1.388 . S
C165 C164 1.443 . S
H166 C193 0.929 . S
N167 C192 1.433 . S
N167 C198 1.435 . S
N167 C204 1.423 . S
H168 C194 0.930 . S
H169 C197 0.931 . S
H170 C196 0.929 . S
H171 C199 0.930 . S
H172 C200 0.932 . S
H173 C203 0.929 . S
H174 C202 0.931 . S
H175 C205 0.929 . S
H176 C209 0.932 . S
H177 C206 0.931 . S
H178 C208 0.929 . S
H179 C211 0.929 . S
H180 C212 0.930 . S
H181 C214 0.929 . S
H182 C215 0.931 . S
H183 C217 0.930 . S
H184 C218 0.932 . S
H185 C220 0.931 . S
H186 C221 0.929 . S
H187 C223 0.929 . S
H188 C224 0.931 . S
H189 C226 0.929 . S
N190 C210 1.433 . S
N190 C216 1.435 . S
N190 C222 1.423 . S
H191 C227 0.932 . S
C192 N167 1.433 . S
C192 C193 1.363 . S
C192 C197 1.370 . S
C193 H166 0.929 . S
C193 C192 1.363 . S
C193 C194 1.385 . S
C194 H168 0.930 . S
C194 C193 1.385 . S
C194 C195 1.357 . S
C195 C194 1.357 . S
C195 C196 1.406 . S
C196 H170 0.929 . S
C196 C195 1.406 . S
C196 C197 1.391 . S
C197 H169 0.931 . S
C197 C192 1.370 . S
C197 C196 1.391 . S
C198 N167 1.435 . S
C198 C199 1.358 . S
C198 C203 1.371 . S
C199 H171 0.930 . S
C199 C198 1.358 . S
C199 C200 1.405 . S
C200 H172 0.932 . S
C200 C199 1.405 . S
C200 C201 1.383 . S
C201 C200 1.383 . S
C201 C202 1.393 . S
C202 H174 0.931 . S
C202 C201 1.393 . S
C202 C203 1.382 . S
C203 H173 0.929 . S
C203 C198 1.371 . S
C203 C202 1.382 . S
C204 N167 1.423 . S
C204 C205 1.362 . S
C204 C209 1.388 . S
C205 H175 0.929 . S
C205 C204 1.362 . S
C205 C206 1.376 . S
C206 H177 0.931 . S
C206 C205 1.376 . S
C206 C207 1.396 . S
C207 C206 1.396 . S
C207 C208 1.348 . S
C207 C225 1.472 . S
C208 H178 0.929 . S
C208 C207 1.348 . S
C208 C209 1.443 . S
C209 H176 0.932 . S
C209 C204 1.388 . S
C209 C208 1.443 . S
C210 N190 1.433 . S
C210 C211 1.363 . S
C210 C215 1.370 . S
C211 H179 0.929 . S
C211 C210 1.363 . S
C211 C212 1.385 . S
C212 H180 0.930 . S
C212 C211 1.385 . S
C212 C213 1.357 . S
C213 C212 1.357 . S
C213 C214 1.406 . S
C214 H181 0.929 . S
C214 C213 1.406 . S
C214 C215 1.391 . S
C215 H182 0.931 . S
C215 C210 1.370 . S
C215 C214 1.391 . S
C216 N190 1.435 . S
C216 C217 1.358 . S
C216 C221 1.371 . S
C217 H183 0.930 . S
C217 C216 1.358 . S
C217 C218 1.405 . S
C218 H184 0.932 . S
C218 C217 1.405 . S
C218 C219 1.383 . S
C219 C218 1.383 . S
C219 C220 1.393 . S
C220 H185 0.931 . S
C220 C219 1.393 . S
C220 C221 1.382 . S
C221 H186 0.929 . S
C221 C216 1.371 . S
C221 C220 1.382 . S
C222 N190 1.423 . S
C222 C223 1.362 . S
C222 C227 1.388 . S
C223 H187 0.929 . S
C223 C222 1.362 . S
C223 C224 1.376 . S
C224 H188 0.931 . S
C224 C223 1.376 . S
C224 C225 1.396 . S
C225 C207 1.472 . S
C225 C224 1.396 . S
C225 C226 1.348 . S
C226 H189 0.929 . S
C226 C225 1.348 . S
C226 C227 1.443 . S
C227 H191 0.932 . S
C227 C222 1.388 . S
C227 C226 1.443 . S
C228 C229 1.369 . S
C228 C230 1.419 . S
C228 H232 0.930 . S
C229 C228 1.369 . S
C229 C238 1.429 . S
C230 C228 1.419 . S
C230 C231 1.363 . S
C230 H233 0.929 . S
C231 C230 1.363 . S
C231 C237 1.428 . S
H232 C228 0.930 . S
H233 C230 0.929 . S
S234 N235 1.613 . S
S234 N236 1.610 . S
N235 S234 1.613 . S
N235 C238 1.350 . S
N236 S234 1.610 . S
N236 C237 1.351 . S
C237 C231 1.428 . S
C237 N236 1.351 . S
C237 C238 1.434 . S
C238 C229 1.429 . S
C238 N235 1.350 . S
C238 C237 1.434 . S
C239 C240 1.369 1_565 S
C239 C241 1.419 . S
C239 H243 0.930 . S
C240 C239 1.369 1_545 S
C240 C249 1.429 . S
C241 C239 1.419 . S
C241 C242 1.363 1_565 S
C241 H244 0.929 . S
C242 C241 1.363 1_545 S
C242 C248 1.428 . S
H243 C239 0.930 . S
H244 C241 0.929 . S
S245 N246 1.613 . S
S245 N247 1.610 . S
N246 S245 1.613 . S
N246 C249 1.350 . S
N247 S245 1.610 . S
N247 C248 1.351 . S
C248 C242 1.428 . S
C248 N247 1.351 . S
C248 C249 1.434 . S
C249 C240 1.429 . S
C249 N246 1.350 . S
C249 C248 1.434 . S
C250 C251 1.369 . S
C250 C252 1.419 . S
C250 H254 0.930 . S
C251 C250 1.369 . S
C251 C260 1.429 . S
C252 C250 1.419 . S
C252 C253 1.363 . S
C252 H255 0.929 . S
C253 C252 1.363 . S
C253 C259 1.428 . S
H254 C250 0.930 . S
H255 C252 0.929 . S
S256 N257 1.613 1_545 S
S256 N258 1.610 1_545 S
N257 S256 1.613 1_565 S
N257 C260 1.350 . S
N258 S256 1.610 1_565 S
N258 C259 1.351 . S
C259 C253 1.428 . S
C259 N258 1.351 . S
C259 C260 1.434 . S
C260 C251 1.429 . S
C260 N257 1.350 . S
C260 C259 1.434 . S
C261 C262 1.369 . S
C261 C263 1.419 . S
C261 H265 0.930 . S
C262 C261 1.369 . S
C262 C271 1.429 . S
C263 C261 1.419 . S
C263 C264 1.363 . S
C263 H266 0.929 . S
C264 C263 1.363 . S
C264 C270 1.428 . S
H265 C261 0.930 . S
H266 C263 0.929 . S
S267 N268 1.613 1_655 S
S267 N269 1.610 1_655 S
N268 S267 1.613 1_455 S
N268 C271 1.350 . S
N269 S267 1.610 1_455 S
N269 C270 1.351 . S
C270 C264 1.428 . S
C270 N269 1.351 . S
C270 C271 1.434 . S
C271 C262 1.429 . S
C271 N268 1.350 . S
C271 C270 1.434 . S
C272 C273 1.369 . S
C272 C274 1.419 . S
C272 H276 0.930 . S
C273 C272 1.369 . S
C273 C282 1.429 . S
C274 C272 1.419 . S
C274 C275 1.363 . S
C274 H277 0.929 . S
C275 C274 1.363 . S
C275 C281 1.428 . S
H276 C272 0.930 . S
H277 C274 0.929 . S
S278 N279 1.613 . S
S278 N280 1.610 . S
N279 S278 1.613 . S
N279 C282 1.350 . S
N280 S278 1.610 . S
N280 C281 1.351 . S
C281 C275 1.428 . S
C281 N280 1.351 . S
C281 C282 1.434 . S
C282 C273 1.429 . S
C282 N279 1.350 . S
C282 C281 1.434 . S
C283 C284 1.369 . S
C283 C285 1.419 . S
C283 H287 0.930 . S
C284 C283 1.369 . S
C284 C293 1.429 . S
C285 C283 1.419 . S
C285 C286 1.363 . S
C285 H288 0.929 . S
C286 C285 1.363 . S
C286 C292 1.428 . S
H287 C283 0.930 . S
H288 C285 0.929 . S
S289 N290 1.613 . S
S289 N291 1.610 . S
N290 S289 1.613 . S
N290 C293 1.350 . S
N291 S289 1.610 . S
N291 C292 1.351 . S
C292 C286 1.428 . S
C292 N291 1.351 . S
C292 C293 1.434 . S
C293 C284 1.429 . S
C293 N290 1.350 . S
C293 C292 1.434 . S
C294 C295 1.369 . S
C294 C296 1.419 . S
C294 H298 0.930 . S
C295 C294 1.369 . S
C295 C304 1.429 . S
C296 C294 1.419 . S
C296 C297 1.363 . S
C296 H299 0.929 . S
C297 C296 1.363 . S
C297 C303 1.428 1_545 S
H298 C294 0.930 . S
H299 C296 0.929 . S
S300 N301 1.613 . S
S300 N302 1.610 . S
N301 S300 1.613 . S
N301 C304 1.350 1_565 S
N302 S300 1.610 . S
N302 C303 1.351 . S
C303 C297 1.428 1_565 S
C303 N302 1.351 . S
C303 C304 1.434 1_565 S
C304 C295 1.429 . S
C304 N301 1.350 1_545 S
C304 C303 1.434 1_545 S
C305 C306 1.368 . S
C305 C307 1.417 . S
C305 H309 0.933 1_556 S
C306 C305 1.368 . S
C306 C315 1.429 . S
C307 C305 1.417 . S
C307 C308 1.363 . S
C307 H310 0.929 . S
C308 C307 1.363 . S
C308 C314 1.428 . S
H309 C305 0.933 1_554 S
H310 C307 0.929 . S
S311 N312 1.613 . S
S311 N313 1.610 . S
N312 S311 1.613 . S
N312 C315 1.350 . S
N313 S311 1.610 . S
N313 C314 1.351 . S
C314 C308 1.428 . S
C314 N313 1.351 . S
C314 C315 1.434 . S
C315 C306 1.429 . S
C315 N312 1.350 . S
C315 C314 1.434 . S
C316 C317 1.369 . S
C316 C318 1.419 . S
C316 H320 0.930 . S
C317 C316 1.369 . S
C317 C326 1.429 1_455 S
C318 C316 1.419 . S
C318 C319 1.363 . S
C318 H321 0.929 . S
C319 C318 1.363 . S
C319 C325 1.428 1_455 S
H320 C316 0.930 . S
H321 C318 0.929 . S
S322 N323 1.613 . S
S322 N324 1.610 . S
N323 S322 1.613 . S
N323 C326 1.350 . S
N324 S322 1.610 . S
N324 C325 1.351 . S
C325 C319 1.428 1_655 S
C325 N324 1.351 . S
C325 C326 1.434 . S
C326 C317 1.429 1_655 S
C326 N323 1.350 . S
C326 C325 1.434 . S
C327 C328 1.369 1_565 S
C327 C329 1.419 . S
C327 H331 0.930 . S
C328 C327 1.369 1_545 S
C328 C337 1.429 . S
C329 C327 1.419 . S
C329 C330 1.363 1_565 S
C329 H332 0.929 . S
C330 C329 1.363 1_545 S
C330 C336 1.428 . S
H331 C327 0.930 . S
H332 C329 0.929 . S
S333 N334 1.613 . S
S333 N335 1.610 . S
N334 S333 1.613 . S
N334 C337 1.350 . S
N335 S333 1.610 . S
N335 C336 1.351 . S
C336 C330 1.428 . S
C336 N335 1.351 . S
C336 C337 1.434 . S
C337 C328 1.429 . S
C337 N334 1.350 . S
C337 C336 1.434 . S
C338 C339 1.369 . S
C338 C340 1.419 . S
C338 H342 0.930 . S
C339 C338 1.369 . S
C339 C348 1.419 1_556 S
C340 C338 1.419 . S
C340 C341 1.363 . S
C340 H343 0.929 . S
C341 C340 1.363 . S
C341 C347 1.428 . S
H342 C338 0.930 . S
H343 C340 0.929 . S
S344 N345 1.613 . S
S344 N346 1.610 . S
N345 S344 1.613 . S
N345 C348 1.370 . S
N346 S344 1.610 . S
N346 C347 1.351 1_554 S
C347 C341 1.428 . S
C347 N346 1.351 1_556 S
C347 C348 1.423 1_556 S
C348 C339 1.419 1_554 S
C348 N345 1.370 . S
C348 C347 1.423 1_554 S
C349 C350 1.369 . S
C349 C351 1.419 . S
C349 H353 0.930 . S
C350 C349 1.369 . S
C350 C359 1.429 . S
C351 C349 1.419 . S
C351 C352 1.363 . S
C351 H354 0.929 . S
C352 C351 1.363 . S
C352 C358 1.428 . S
H353 C349 0.930 . S
H354 C351 0.929 . S
S355 N356 1.613 . S
S355 N357 1.610 . S
N356 S355 1.613 . S
N356 C359 1.350 . S
N357 S355 1.610 . S
N357 C358 1.351 . S
C358 C352 1.428 . S
C358 N357 1.351 . S
C358 C359 1.434 . S
C359 C350 1.429 . S
C359 N356 1.350 . S
C359 C358 1.434 . S
C231 C95 1.417 . S
C229 C0 1.423 . S
C240 C25 1.444 . S
C242 C139 1.444 . S
C251 C33 1.475 . S
C253 C201 1.488 . S
C262 C11 1.414 . S
C264 C77 1.412 . S
C275 C157 1.433 . S
C273 C14 1.436 . S
C284 C37 1.486 . S
C286 C219 1.490 . S
C297 C133 1.576 . S
C295 C28 1.679 . S
C306 C9 1.726 1_556 S
C308 C195 1.625 . S
C319 C71 1.631 . S
C317 C19 1.758 . S
C330 C151 1.591 . S
C328 C39 1.698 . S
C341 C213 1.631 . S
C339 C5 1.721 1_556 S
C350 C23 1.752 . S
C352 C89 1.654 . S
