# Generated by pormake.
# Topology ant, (3,6)-cn, num edge types: 1
# Building blocks:
#     Node 0, Type 0, BuildingBlock: VETTIZ_charged_linker_0, # of connection points: 3
#     Node 1, Type 0, BuildingBlock: VETTIZ_charged_linker_0, # of connection points: 3
#     Node 2, Type 0, BuildingBlock: VETTIZ_charged_linker_0, # of connection points: 3
#     Node 3, Type 0, BuildingBlock: VETTIZ_charged_linker_0, # of connection points: 3
#     Node 4, Type 0, BuildingBlock: VETTIZ_charged_linker_0, # of connection points: 3
#     Node 5, Type 0, BuildingBlock: VETTIZ_charged_linker_0, # of connection points: 3
#     Node 6, Type 0, BuildingBlock: VETTIZ_charged_linker_0, # of connection points: 3
#     Node 7, Type 0, BuildingBlock: VETTIZ_charged_linker_0, # of connection points: 3
#     Node 8, Type 1, BuildingBlock: MIDCAF_clean_sbu_0, # of connection points: 6
#     Node 9, Type 1, BuildingBlock: MIDCAF_clean_sbu_0, # of connection points: 6
#     Node 10, Type 1, BuildingBlock: MIDCAF_clean_sbu_0, # of connection points: 6
#     Node 11, Type 1, BuildingBlock: MIDCAF_clean_sbu_0, # of connection points: 6
#     Edge 12, Type (0, 1), BuildingBlock: XUDNAN_clean_linker_2, # of connection points: 2
#     Edge 13, Type (0, 1), BuildingBlock: XUDNAN_clean_linker_2, # of connection points: 2
#     Edge 14, Type (0, 1), BuildingBlock: XUDNAN_clean_linker_2, # of connection points: 2
#     Edge 15, Type (0, 1), BuildingBlock: XUDNAN_clean_linker_2, # of connection points: 2
#     Edge 16, Type (0, 1), BuildingBlock: XUDNAN_clean_linker_2, # of connection points: 2
#     Edge 17, Type (0, 1), BuildingBlock: XUDNAN_clean_linker_2, # of connection points: 2
#     Edge 18, Type (0, 1), BuildingBlock: XUDNAN_clean_linker_2, # of connection points: 2
#     Edge 19, Type (0, 1), BuildingBlock: XUDNAN_clean_linker_2, # of connection points: 2
#     Edge 20, Type (0, 1), BuildingBlock: XUDNAN_clean_linker_2, # of connection points: 2
#     Edge 21, Type (0, 1), BuildingBlock: XUDNAN_clean_linker_2, # of connection points: 2
#     Edge 22, Type (0, 1), BuildingBlock: XUDNAN_clean_linker_2, # of connection points: 2
#     Edge 23, Type (0, 1), BuildingBlock: XUDNAN_clean_linker_2, # of connection points: 2
#     Edge 24, Type (0, 1), BuildingBlock: XUDNAN_clean_linker_2, # of connection points: 2
#     Edge 25, Type (0, 1), BuildingBlock: XUDNAN_clean_linker_2, # of connection points: 2
#     Edge 26, Type (0, 1), BuildingBlock: XUDNAN_clean_linker_2, # of connection points: 2
#     Edge 27, Type (0, 1), BuildingBlock: XUDNAN_clean_linker_2, # of connection points: 2
#     Edge 28, Type (0, 1), BuildingBlock: XUDNAN_clean_linker_2, # of connection points: 2
#     Edge 29, Type (0, 1), BuildingBlock: XUDNAN_clean_linker_2, # of connection points: 2
#     Edge 30, Type (0, 1), BuildingBlock: XUDNAN_clean_linker_2, # of connection points: 2
#     Edge 31, Type (0, 1), BuildingBlock: XUDNAN_clean_linker_2, # of connection points: 2
#     Edge 32, Type (0, 1), BuildingBlock: XUDNAN_clean_linker_2, # of connection points: 2
#     Edge 33, Type (0, 1), BuildingBlock: XUDNAN_clean_linker_2, # of connection points: 2
#     Edge 34, Type (0, 1), BuildingBlock: XUDNAN_clean_linker_2, # of connection points: 2
#     Edge 35, Type (0, 1), BuildingBlock: XUDNAN_clean_linker_2, # of connection points: 2
# Relax obj value: 0.106
# Max RMSD: 0.160
# Mean RMSD: 0.107
data_MOF--net-ant--node1-MIDCAF_clean_sbu_0--node2-VETTIZ_charged_linker_0--edge1-XUDNAN_clean_linker_2
_symmetry_space_group_name_H-M    P1
_symmetry_Int_Tables_number       1
_symmetry_cell_setting            triclinic
loop_
_symmetry_equiv_pos_as_xyz
'x, y, z'
_cell_length_a     33.978097
_cell_length_b     33.681286
_cell_length_c     93.418707
_cell_angle_alpha  90.296772
_cell_angle_beta   93.568103
_cell_angle_gamma 90.101266
loop_
_atom_site_label
_atom_site_type_symbol
_atom_site_fract_x
_atom_site_fract_y
_atom_site_fract_z
_atom_type_partial_charge
C0 C 0.26713 0.12593 0.09175 0.0
C1 C 0.28118 0.08875 0.08691 0.0
C2 C 0.29423 0.08668 0.07283 0.0
C3 C 0.26672 0.15098 0.0675 0.0
C4 C 0.26147 0.15724 0.08183 0.0
C5 C 0.25087 0.20033 0.08454 0.0
H6 H 0.19131 0.3771 0.05477 0.0
C7 C 0.25226 0.18552 0.05937 0.0
C8 C 0.24456 0.21576 0.06918 0.0
H9 H 0.23416 0.35695 0.09871 0.0
H10 H 0.24143 0.28658 0.09352 0.0
H11 H 0.25593 0.3254 0.03973 0.0
H12 H 0.13878 0.30016 0.05194 0.0
H13 H 0.14545 0.26955 0.03704 0.0
H14 H 0.14723 0.32285 0.0351 0.0
H15 H 0.21194 0.34745 0.03162 0.0
H16 H 0.2299 0.3007 0.02535 0.0
C17 C 0.28645 0.22078 0.09277 0.0
C18 C 0.2126 0.20231 0.09256 0.0
C19 C 0.19975 0.16128 0.00802 0.0
C20 C 0.17716 0.18462 -0.00181 0.0
C21 C 0.16954 0.22454 0.00177 0.0
C22 C 0.18325 0.24055 0.01502 0.0
C23 C 0.20476 0.21648 0.02491 0.0
C24 C 0.21298 0.17764 0.0213 0.0
C25 C 0.2361 0.15636 0.03317 0.0
C26 C 0.23858 0.18851 0.04477 0.0
C27 C 0.22033 0.22354 0.03984 0.0
C28 C 0.27718 0.14516 0.02794 0.0
C29 C 0.21176 0.11997 0.03753 0.0
C30 C 0.20289 0.35791 0.06328 0.0
C31 C 0.21281 0.37315 0.0771 0.0
C32 C 0.22629 0.34634 0.08795 0.0
C33 C 0.23114 0.30564 0.08491 0.0
C34 C 0.22276 0.29154 0.07087 0.0
C35 C 0.20843 0.31753 0.06039 0.0
C36 C 0.20104 0.29752 0.04605 0.0
C37 C 0.21659 0.25618 0.04935 0.0
C38 C 0.2286 0.25243 0.06397 0.0
C39 C 0.22573 0.31885 0.035 0.0
C40 C 0.15592 0.29759 0.0422 0.0
H41 H 0.29592 0.11376 0.05244 0.0
H42 H 0.25946 0.13028 0.1027 0.0
H43 H 0.18883 0.18479 0.08674 0.0
H44 H 0.20181 0.2331 0.09352 0.0
H45 H 0.21734 0.19004 0.10355 0.0
H46 H 0.31438 0.20427 0.09153 0.0
H47 H 0.28211 0.22285 0.10444 0.0
H48 H 0.29212 0.25085 0.08862 0.0
H49 H 0.20631 0.13065 0.00555 0.0
H50 H 0.15311 0.24357 0.99424 0.0
H51 H 0.17647 0.27106 0.01708 0.0
H52 H 0.28182 0.15649 0.017 0.0
H53 H 0.28114 0.11245 0.02748 0.0
H54 H 0.30148 0.15814 0.03498 0.0
H55 H 0.18244 0.12946 0.04096 0.0
H56 H 0.22636 0.10302 0.0464 0.0
H57 H 0.20695 0.0989 0.0284 0.0
H58 H 0.30925 0.06072 0.06905 0.0
C59 C 0.28664 0.11735 0.06311 0.0
C60 C 0.18276 0.81676 0.33394 0.0
C61 C 0.21832 0.8183 0.32688 0.0
C62 C 0.21627 0.82081 0.31178 0.0
C63 C 0.14518 0.81525 0.31089 0.0
C64 C 0.14653 0.81536 0.32571 0.0
C65 C 0.10561 0.81336 0.33119 0.0
H66 H 0.9073 0.79615 0.31594 0.0
C67 C 0.10372 0.81043 0.30541 0.0
C68 C 0.08008 0.80956 0.31721 0.0
H69 H 0.96816 0.81696 0.3573 0.0
H70 H 0.03102 0.81428 0.34652 0.0
H71 H 0.95923 0.85586 0.29833 0.0
H72 H 0.96654 0.73 0.30556 0.0
H73 H 0.98203 0.73771 0.28822 0.0
H74 H 0.93229 0.75061 0.29225 0.0
H75 H 0.92311 0.82085 0.29119 0.0
H76 H 0.96638 0.83219 0.28183 0.0
C77 C 0.09789 0.85274 0.33916 0.0
C78 C 0.10288 0.77594 0.34059 0.0
C79 C 0.07362 0.78775 0.25205 0.0
C80 C 0.03938 0.77593 0.24395 0.0
C81 C 0.00366 0.77256 0.25072 0.0
C82 C 1.00218 0.78053 0.26545 0.0
C83 C 0.03696 0.79129 0.27353 0.0
C84 C 0.07187 0.79468 0.26679 0.0
C85 C 0.10647 0.80313 0.27718 0.0
C86 C 0.0866 0.80452 0.29129 0.0
C87 C 0.04589 0.798 0.28907 0.0
C88 C 0.12394 0.84404 0.27338 0.0
C89 C 0.13562 0.76784 0.27648 0.0
C90 C 0.93417 0.79959 0.3227 0.0
C91 C 0.93267 0.80698 0.33747 0.0
C92 C 0.96844 0.81174 0.34586 0.0
C93 C 0.00493 0.81027 0.33959 0.0
C94 C 0.00585 0.80425 0.32472 0.0
C95 C 0.97081 0.79871 0.31657 0.0
C96 C 0.97724 0.79339 0.30091 0.0
C97 C 0.02166 0.79818 0.30091 0.0
C98 C 0.03851 0.80412 0.31491 0.0
C99 C 0.95525 0.82708 0.29251 0.0
C100 C 0.96366 0.75091 0.29637 0.0
H101 H 0.18099 0.82053 0.29237 0.0
H102 H 0.18315 0.81538 0.34552 0.0
H103 H 0.11611 0.74996 0.33529 0.0
H104 H 0.07223 0.76735 0.34237 0.0
H105 H 0.11903 0.78038 0.35119 0.0
H106 H 0.1132 0.87804 0.33425 0.0
H107 H 0.10872 0.85115 0.35061 0.0
H108 H 0.06644 0.86119 0.33849 0.0
H109 H 0.10167 0.78952 0.24717 0.0
H110 H 0.97703 0.76319 0.24465 0.0
H111 H 0.97418 0.77728 0.27002 0.0
H112 H 0.10054 0.86435 0.2689 0.0
H113 H 0.14625 0.84094 0.26525 0.0
H114 H 0.13726 0.85997 0.28287 0.0
H115 H 0.11946 0.7393 0.27467 0.0
H116 H 0.15373 0.76332 0.28654 0.0
H117 H 0.15543 0.77156 0.26756 0.0
H118 H 0.24288 0.82349 0.30604 0.0
C119 C 0.18015 0.81925 0.3038 0.0
C120 C 0.76014 0.63957 0.59889 0.0
C121 C 0.76122 0.59927 0.5946 0.0
C122 C 0.74581 0.58876 0.58074 0.0
C123 C 0.72984 0.6571 0.5755 0.0
C124 C 0.74441 0.66808 0.58909 0.0
C125 C 0.74052 0.71241 0.59143 0.0
H126 H 0.68343 0.89199 0.56348 0.0
C127 C 0.71511 0.69273 0.56787 0.0
C128 C 0.72105 0.72561 0.57705 0.0
H129 H 0.73775 0.86959 0.60573 0.0
H130 H 0.73844 0.79895 0.60057 0.0
H131 H 0.73825 0.83289 0.54676 0.0
H132 H 0.62319 0.81916 0.56303 0.0
H133 H 0.62203 0.79499 0.5463 0.0
H134 H 0.63112 0.84777 0.54731 0.0
H135 H 0.69523 0.85712 0.53887 0.0
H136 H 0.70848 0.80759 0.53364 0.0
C137 C 0.78236 0.73004 0.59414 0.0
C138 C 0.71341 0.71927 0.60389 0.0
C139 C 0.65965 0.67724 0.51649 0.0
C140 C 0.64425 0.70415 0.5062 0.0
C141 C 0.64041 0.74445 0.5101 0.0
C142 C 0.65266 0.75778 0.52394 0.0
C143 C 0.669 0.73058 0.53401 0.0
C144 C 0.67173 0.69103 0.53022 0.0
C145 C 0.68951 0.66619 0.54221 0.0
C146 C 0.69756 0.6974 0.55381 0.0
C147 C 0.68569 0.73504 0.54897 0.0
C148 C 0.72819 0.64779 0.53714 0.0
C149 C 0.65792 0.63562 0.54636 0.0
C150 C 0.69584 0.87203 0.57162 0.0
C151 C 0.71092 0.88663 0.58498 0.0
C152 C 0.72581 0.85924 0.59535 0.0
C153 C 0.72644 0.81823 0.59231 0.0
C154 C 0.71195 0.80431 0.57875 0.0
C155 C 0.69669 0.83123 0.56875 0.0
C156 C 0.68241 0.81169 0.5549 0.0
C157 C 0.6918 0.76859 0.55811 0.0
C158 C 0.70926 0.76412 0.57211 0.0
C159 C 0.707 0.82816 0.54281 0.0
C160 C 0.6374 0.81883 0.55261 0.0
H161 H 0.7193 0.6067 0.56094 0.0
H162 H 0.77128 0.64861 0.60952 0.0
H163 H 0.68787 0.69849 0.60302 0.0
H164 H 0.7005 0.74929 0.60386 0.0
H165 H 0.72961 0.71419 0.61442 0.0
H166 H 0.80293 0.71669 0.58666 0.0
H167 H 0.79421 0.72396 0.60527 0.0
H168 H 0.78345 0.76229 0.59225 0.0
H169 H 0.66257 0.64604 0.5139 0.0
H170 H 0.62903 0.76594 0.50233 0.0
H171 H 0.6495 0.78885 0.52617 0.0
H172 H 0.74296 0.66832 0.52986 0.0
H173 H 0.72225 0.61957 0.53118 0.0
H174 H 0.75056 0.64243 0.54601 0.0
H175 H 0.62752 0.64716 0.54406 0.0
H176 H 0.65944 0.62915 0.55798 0.0
H177 H 0.66035 0.6074 0.54028 0.0
H178 H 0.7447 0.55804 0.57724 0.0
C179 C 0.73042 0.61721 0.57124 0.0
C180 C 0.68156 0.30318 0.83411 0.0
C181 C 0.71685 0.30366 0.82689 0.0
C182 C 0.71451 0.30781 0.81185 0.0
C183 C 0.64324 0.30776 0.81129 0.0
C184 C 0.64509 0.3053 0.82608 0.0
C185 C 0.6044 0.30447 0.83176 0.0
H186 H 0.40518 0.30822 0.81797 0.0
C187 C 0.60134 0.30807 0.80601 0.0
C188 C 0.57818 0.30658 0.81791 0.0
H189 H 0.47007 0.3003 0.8592 0.0
H190 H 0.53143 0.30168 0.84763 0.0
H191 H 0.46033 0.37195 0.80408 0.0
H192 H 0.46134 0.24394 0.80211 0.0
H193 H 0.46694 0.26245 0.78479 0.0
H194 H 0.42246 0.27309 0.79359 0.0
H195 H 0.42318 0.34427 0.79378 0.0
H196 H 0.46918 0.35778 0.78643 0.0
C197 C 0.6 0.34171 0.84128 0.0
C198 C 0.59941 0.26464 0.83964 0.0
C199 C 0.56791 0.30429 0.7524 0.0
C200 C 0.53239 0.30454 0.74394 0.0
C201 C 0.49652 0.30806 0.7506 0.0
C202 C 0.49617 0.31002 0.76565 0.0
C203 C 0.5321 0.30872 0.77404 0.0
C204 C 0.56713 0.30671 0.76731 0.0
C205 C 0.60261 0.30727 0.77771 0.0
C206 C 0.58326 0.30857 0.7919 0.0
C207 C 0.542 0.30909 0.78975 0.0
C208 C 0.62653 0.34564 0.7751 0.0
C209 C 0.62562 0.26808 0.77575 0.0
C210 C 0.43252 0.30636 0.82453 0.0
C211 C 0.43241 0.30451 0.83959 0.0
C212 C 0.469 0.30259 0.84763 0.0
C213 C 0.50476 0.30315 0.84088 0.0
C214 C 0.5043 0.30542 0.82586 0.0
C215 C 0.46854 0.30665 0.81794 0.0
C216 C 0.47368 0.30819 0.80207 0.0
C217 C 0.51832 0.30819 0.80177 0.0
C218 C 0.53624 0.30665 0.81577 0.0
C219 C 0.45548 0.34738 0.79615 0.0
C220 C 0.455 0.27017 0.79515 0.0
H221 H 0.67877 0.31225 0.79266 0.0
H222 H 0.68225 0.30014 0.84566 0.0
H223 H 0.61393 0.24005 0.83399 0.0
H224 H 0.56831 0.25539 0.83997 0.0
H225 H 0.61293 0.26614 0.85077 0.0
H226 H 0.61388 0.36801 0.83647 0.0
H227 H 0.61456 0.33728 0.85214 0.0
H228 H 0.56899 0.35022 0.84238 0.0
H229 H 0.59587 0.30218 0.74746 0.0
H230 H 0.46886 0.30847 0.74418 0.0
H231 H 0.46797 0.31216 0.77018 0.0
H232 H 0.60762 0.36925 0.77002 0.0
H233 H 0.65078 0.33981 0.76794 0.0
H234 H 0.63892 0.35931 0.78521 0.0
H235 H 0.60493 0.24257 0.77414 0.0
H236 H 0.64505 0.26017 0.7852 0.0
H237 H 0.64361 0.26961 0.76624 0.0
H238 H 0.74104 0.30934 0.80602 0.0
C239 C 0.67815 0.30977 0.80407 0.0
C240 C 0.05257 0.83732 0.90669 0.0
C241 C 0.06372 0.8716 0.91472 0.0
C242 C 0.07026 0.8684 0.9297 0.0
C243 C 0.05849 0.79727 0.92825 0.0
C244 C 0.05002 0.80063 0.91365 0.0
C245 C 0.03945 0.76108 0.90673 0.0
H246 H 0.02808 0.56057 0.91378 0.0
C247 C 0.05646 0.75471 0.93202 0.0
C248 C 0.04515 0.73322 0.91945 0.0
H249 H 0.99529 0.62866 0.87579 0.0
H250 H 0.01316 0.68958 0.88866 0.0
H251 H 0.10402 0.60617 0.92293 0.0
H252 H 0.98505 0.61744 0.93538 0.0
H253 H 0.01575 0.62173 0.95113 0.0
H254 H 0.01652 0.57667 0.94067 0.0
H255 H 0.08393 0.57326 0.93563 0.0
H256 H 0.10813 0.61912 0.94116 0.0
C257 C 0.06885 0.75228 0.89514 0.0
C258 C 0.99587 0.76272 0.90089 0.0
C259 C 0.09471 0.71046 0.98309 0.0
C260 C 0.09948 0.67274 0.98948 0.0
C261 C 0.09258 0.63867 0.98084 0.0
C262 C 0.08057 0.64197 0.96629 0.0
C263 C 0.07563 0.67976 0.96014 0.0
C264 C 0.0832 0.71321 0.96845 0.0
C265 C 0.07841 0.75081 0.95985 0.0
C266 C 0.06576 0.73433 0.94508 0.0
C267 C 0.06393 0.69277 0.9454 0.0
C268 C 0.11915 0.77169 0.96008 0.0
C269 C 0.04544 0.77596 0.96615 0.0
C270 C 0.02378 0.58847 0.9082 0.0
C271 C 0.00949 0.5895 0.89375 0.0
C272 C 0.00614 0.62679 0.88691 0.0
C273 C 0.01632 0.66217 0.89443 0.0
C274 C 0.03001 0.66034 0.90896 0.0
C275 C 0.03329 0.62374 0.91553 0.0
C276 C 0.04752 0.62662 0.93101 0.0
C277 C 0.05186 0.6711 0.93284 0.0
C278 C 0.04207 0.69101 0.91991 0.0
C279 C 0.08784 0.60503 0.93292 0.0
C280 C 0.01485 0.60956 0.94012 0.0
H281 H 0.07387 0.83096 0.94789 0.0
H282 H 0.0466 0.83894 0.89519 0.0
H283 H 0.97786 0.78036 0.90816 0.0
H284 H 0.98177 0.73316 0.90025 0.0
H285 H 0.99316 0.7768 0.89015 0.0
H286 H 0.09952 0.75919 0.89928 0.0
H287 H 0.06218 0.7706 0.88544 0.0
H288 H 0.06901 0.72078 0.89188 0.0
H289 H 0.09938 0.73742 0.98933 0.0
H290 H 0.09686 0.60924 0.98527 0.0
H291 H 0.07572 0.61482 0.9604 0.0
H292 H 0.14343 0.74956 0.96008 0.0
H293 H 0.12425 0.79051 0.96982 0.0
H294 H 0.123 0.78995 0.95049 0.0
H295 H 0.02139 0.75658 0.9697 0.0
H296 H 0.03088 0.79621 0.95822 0.0
H297 H 0.05704 0.79351 0.97559 0.0
H298 H 0.07893 0.89421 0.93612 0.0
C299 C 0.06773 0.83151 0.93649 0.0
C300 C 0.79528 0.77187 0.16154 0.0
C301 C 0.83189 0.76472 0.16904 0.0
C302 C 0.83505 0.76836 0.18405 0.0
C303 C 0.76627 0.78652 0.18411 0.0
C304 C 0.76262 0.78238 0.16935 0.0
C305 C 0.72056 0.78923 0.16356 0.0
H306 H 0.53261 0.84184 0.17759 0.0
C307 C 0.7278 0.79863 0.18911 0.0
C308 C 0.7006 0.80059 0.17719 0.0
H309 H 0.57289 0.79936 0.13738 0.0
H310 H 0.64002 0.79524 0.14798 0.0
H311 H 0.57894 0.77708 0.19615 0.0
H312 H 0.60694 0.8986 0.18683 0.0
H313 H 0.62277 0.89036 0.20483 0.0
H314 H 0.57103 0.88579 0.19933 0.0
H315 H 0.55287 0.81844 0.20317 0.0
H316 H 0.59715 0.79956 0.21222 0.0
C317 C 0.7043 0.74968 0.15705 0.0
C318 C 0.72018 0.82378 0.15275 0.0
C319 C 0.71499 0.81933 0.24238 0.0
C320 C 0.684 0.83238 0.25039 0.0
C321 C 0.64884 0.84585 0.24329 0.0
C322 C 0.64394 0.84454 0.22827 0.0
C323 C 0.6746 0.8296 0.22034 0.0
C324 C 0.70982 0.81865 0.22741 0.0
C325 C 0.73984 0.80548 0.21729 0.0
C326 C 0.71629 0.80859 0.203 0.0
C327 C 0.67796 0.82207 0.20484 0.0
C328 C 0.75111 0.76187 0.2209 0.0
C329 C 0.77477 0.8354 0.21857 0.0
C330 C 0.55602 0.83231 0.171 0.0
C331 C 0.54769 0.82139 0.15662 0.0
C332 C 0.57874 0.80801 0.14849 0.0
C333 C 0.61755 0.80546 0.15468 0.0
C334 C 0.62519 0.81548 0.16924 0.0
C335 C 0.5945 0.82859 0.17711 0.0
C336 C 0.6069 0.83511 0.19265 0.0
C337 C 0.65005 0.8237 0.1929 0.0
C338 C 0.66101 0.81261 0.17914 0.0
C339 C 0.58273 0.80638 0.20163 0.0
C340 C 0.60147 0.87966 0.19624 0.0
H341 H 0.80729 0.78162 0.20301 0.0
H342 H 0.79212 0.76875 0.14998 0.0
H343 H 0.7377 0.84928 0.15734 0.0
H344 H 0.69026 0.83523 0.15006 0.0
H345 H 0.73327 0.81445 0.14267 0.0
H346 H 0.71706 0.72378 0.16305 0.0
H347 H 0.71164 0.74641 0.14568 0.0
H348 H 0.67212 0.74662 0.15775 0.0
H349 H 0.74235 0.80906 0.24767 0.0
H350 H 0.62462 0.85585 0.2494 0.0
H351 H 0.61615 0.85422 0.22344 0.0
H352 H 0.7249 0.7448 0.22399 0.0
H353 H 0.7737 0.76046 0.22999 0.0
H354 H 0.76193 0.74537 0.21168 0.0
H355 H 0.7653 0.86504 0.22238 0.0
H356 H 0.78717 0.84148 0.20812 0.0
H357 H 0.79867 0.82485 0.22626 0.0
H358 H 0.86299 0.76308 0.18997 0.0
C359 C 0.80264 0.77935 0.19159 0.0
C360 C 0.56807 0.3579 0.40938 0.0
C361 C 0.58451 0.3903 0.4174 0.0
C362 C 0.59531 0.38487 0.43206 0.0
C363 C 0.57396 0.31638 0.43065 0.0
C364 C 0.56314 0.32108 0.41624 0.0
C365 C 0.54785 0.28246 0.40956 0.0
H366 H 0.47386 0.09839 0.42186 0.0
C367 C 0.56393 0.27566 0.43488 0.0
C368 C 0.54738 0.25564 0.42269 0.0
H369 H 0.50499 0.14376 0.38075 0.0
H370 H 0.52355 0.20658 0.39209 0.0
H371 H 0.5529 0.11107 0.43265 0.0
H372 H 0.45023 0.18035 0.43964 0.0
H373 H 0.47694 0.17368 0.4563 0.0
H374 H 0.45938 0.13088 0.44613 0.0
H375 H 0.52332 0.10098 0.4474 0.0
H376 H 0.56471 0.13474 0.44902 0.0
C377 C 0.57787 0.26789 0.39892 0.0
C378 C 0.50615 0.28905 0.40251 0.0
C379 C 0.60097 0.22756 0.48541 0.0
C380 C 0.59221 0.1926 0.49273 0.0
C381 C 0.56501 0.16537 0.4863 0.0
C382 C 0.54843 0.17179 0.47239 0.0
C383 C 0.55922 0.20578 0.46485 0.0
C384 C 0.58381 0.23374 0.47157 0.0
C385 C 0.58895 0.2697 0.46235 0.0
C386 C 0.56688 0.25664 0.44844 0.0
C387 C 0.54984 0.21918 0.44998 0.0
C388 C 0.63353 0.27552 0.46044 0.0
C389 C 0.56887 0.30554 0.46946 0.0
C390 C 0.48506 0.12114 0.41507 0.0
C391 C 0.48874 0.11468 0.40031 0.0
C392 C 0.50175 0.147 0.39213 0.0
C393 C 0.51334 0.18339 0.39878 0.0
C394 C 0.5136 0.18708 0.4138 0.0
C395 C 0.50019 0.15567 0.42162 0.0
C396 C 0.51095 0.15963 0.43737 0.0
C397 C 0.53163 0.19943 0.43788 0.0
C398 C 0.53177 0.21655 0.42416 0.0
C399 C 0.53918 0.1249 0.44196 0.0
C400 C 0.47246 0.16099 0.44539 0.0
H401 H 0.59941 0.34638 0.44981 0.0
H402 H 0.55998 0.361 0.39805 0.0
H403 H 0.4866 0.30229 0.41036 0.0
H404 H 0.49225 0.2611 0.39858 0.0
H405 H 0.50711 0.30957 0.39326 0.0
H406 H 0.60854 0.27586 0.40276 0.0
H407 H 0.57198 0.28149 0.38819 0.0
H408 H 0.57806 0.23526 0.39778 0.0
H409 H 0.62073 0.24961 0.49037 0.0
H410 H 0.55741 0.13862 0.49191 0.0
H411 H 0.5283 0.14977 0.46796 0.0
H412 H 0.64747 0.24674 0.4578 0.0
H413 H 0.64884 0.28725 0.47043 0.0
H414 H 0.63948 0.29578 0.45158 0.0
H415 H 0.54832 0.29603 0.47762 0.0
H416 H 0.55028 0.32292 0.4616 0.0
H417 H 0.59099 0.32563 0.47497 0.0
H418 H 0.60755 0.40924 0.43853 0.0
C419 C 0.59018 0.34834 0.43868 0.0
C420 C 0.29708 0.30665 0.65533 0.0
C421 C 0.33528 0.29799 0.6612 0.0
C422 C 0.34038 0.2866 0.67568 0.0
C423 C 0.27045 0.29407 0.67838 0.0
C424 C 0.26506 0.30415 0.66407 0.0
C425 C 0.2223 0.31202 0.65969 0.0
H426 H 0.03261 0.30269 0.67774 0.0
C427 C 0.2318 0.29518 0.68466 0.0
C428 C 0.20317 0.30512 0.67377 0.0
H429 H 0.07483 0.34176 0.63722 0.0
H430 H 0.14172 0.33319 0.64671 0.0
H431 H 0.09585 0.23569 0.68659 0.0
H432 H 0.08678 0.36061 0.69476 0.0
H433 H 0.11562 0.34243 0.70951 0.0
H434 H 0.06552 0.32502 0.70619 0.0
H435 H 0.05968 0.25839 0.69722 0.0
H436 H 0.10727 0.24439 0.70505 0.0
C437 C 0.20871 0.28118 0.6481 0.0
C438 C 0.21821 0.35567 0.65472 0.0
C439 C 0.22404 0.27258 0.73813 0.0
C440 C 0.19241 0.27339 0.7471 0.0
C441 C 0.15382 0.27901 0.74105 0.0
C442 C 0.14679 0.28414 0.72627 0.0
C443 C 0.17872 0.28407 0.71744 0.0
C444 C 0.21654 0.27836 0.72338 0.0
C445 C 0.24679 0.27993 0.71233 0.0
C446 C 0.22088 0.28861 0.69886 0.0
C447 C 0.18113 0.29059 0.70192 0.0
C448 C 0.26676 0.23859 0.71166 0.0
C449 C 0.27541 0.31469 0.71633 0.0
C450 C 0.05561 0.3103 0.67076 0.0
C451 C 0.0472 0.32244 0.65647 0.0
C452 C 0.07948 0.33108 0.64809 0.0
C453 C 0.11864 0.32645 0.65365 0.0
C454 C 0.126 0.3139 0.66788 0.0
C455 C 0.09463 0.30736 0.67627 0.0
C456 C 0.10747 0.29874 0.69159 0.0
C457 C 0.15186 0.29873 0.69086 0.0
C458 C 0.16274 0.30689 0.6769 0.0
C459 C 0.09168 0.25722 0.69544 0.0
C460 C 0.09305 0.33318 0.70108 0.0
H461 H 0.31428 0.27627 0.69524 0.0
H462 H 0.29226 0.31521 0.64419 0.0
H463 H 0.23937 0.37521 0.66102 0.0
H464 H 0.18886 0.3682 0.65645 0.0
H465 H 0.22426 0.35858 0.64322 0.0
H466 H 0.21878 0.25092 0.65133 0.0
H467 H 0.22124 0.28815 0.63769 0.0
H468 H 0.17641 0.27919 0.64637 0.0
H469 H 0.25398 0.26825 0.74253 0.0
H470 H 0.12894 0.27893 0.74776 0.0
H471 H 0.11675 0.28784 0.72232 0.0
H472 H 0.24708 0.2146 0.71521 0.0
H473 H 0.29437 0.23756 0.71866 0.0
H474 H 0.27329 0.22993 0.70061 0.0
H475 H 0.25895 0.34087 0.72012 0.0
H476 H 0.29133 0.32559 0.70719 0.0
H477 H 0.29731 0.30606 0.72509 0.0
H478 H 0.36951 0.2803 0.6805 0.0
C479 C 0.30825 0.2846 0.68427 0.0
Zn480 Zn 0.21921 0.68736 0.14117 0.0
Zn481 Zn 0.14035 0.78752 0.10839 0.0
Zn482 Zn 0.18246 0.7371 0.12347 0.0
C483 C 0.1604 0.72451 0.09029 0.0
C484 C 0.20642 0.82927 0.11815 0.0
O485 O 0.14895 0.72953 0.14283 0.0
O486 O 0.18665 0.6937 0.15803 0.0
C487 C 0.19939 0.64446 0.11611 0.0
O488 O 0.17281 0.70871 0.10225 0.0
O489 O 0.14757 0.75968 0.08997 0.0
O490 O 0.1723 0.83522 0.11251 0.0
O491 O 0.21708 0.79405 0.1222 0.0
O492 O 0.20993 0.63933 0.12916 0.0
O493 O 0.19054 0.67966 0.1115 0.0
O494 O 0.24078 0.76475 0.12931 0.0
O495 O 0.27134 0.71475 0.14053 0.0
C496 C 0.27236 0.74921 0.13527 0.0
O497 O 0.12296 0.74535 0.13219 0.0
O498 O 0.08853 0.78347 0.11685 0.0
C499 C 0.15563 0.71347 0.15524 0.0
C500 C 0.09017 0.76226 0.12796 0.0
Zn501 Zn 0.55515 0.70788 0.35349 0.0
Zn502 Zn 0.60964 0.80119 0.3938 0.0
Zn503 Zn 0.58159 0.7571 0.37429 0.0
C504 C 0.54353 0.84069 0.38336 0.0
C505 C 0.66883 0.79873 0.37554 0.0
O506 O 0.58111 0.69424 0.38248 0.0
O507 O 0.56021 0.65685 0.36392 0.0
C508 C 0.49415 0.76295 0.35868 0.0
O509 O 0.53869 0.80763 0.37639 0.0
O510 O 0.57415 0.84617 0.39144 0.0
O511 O 0.66385 0.80974 0.38821 0.0
O512 O 0.64067 0.78044 0.36827 0.0
O513 O 0.5021 0.73255 0.35142 0.0
O514 O 0.52061 0.77788 0.36769 0.0
O515 O 0.61984 0.76364 0.35637 0.0
O516 O 0.59463 0.72297 0.33949 0.0
C517 C 0.61966 0.7491 0.34358 0.0
O518 O 0.58961 0.72045 0.39413 0.0
O519 O 0.60168 0.76762 0.41035 0.0
C520 C 0.57261 0.65977 0.3769 0.0
C521 C 0.59497 0.73169 0.40732 0.0
Zn522 Zn 0.65622 0.3053 0.60233 0.0
Zn523 Zn 0.71201 0.21202 0.64516 0.0
Zn524 Zn 0.68087 0.25664 0.62294 0.0
C525 C 0.76788 0.26974 0.63879 0.0
C526 C 0.69877 0.16223 0.62064 0.0
O527 O 0.62113 0.27654 0.62802 0.0
O528 O 0.60423 0.3164 0.60992 0.0
C529 C 0.7219 0.34155 0.61418 0.0
O530 O 0.7394 0.27972 0.62979 0.0
O531 O 0.76411 0.24072 0.64712 0.0
O532 O 0.70752 0.16114 0.63399 0.0
O533 O 0.68958 0.1955 0.61448 0.0
O534 O 0.69687 0.34726 0.60387 0.0
O535 O 0.72018 0.30991 0.62185 0.0
O536 O 0.67521 0.22049 0.60295 0.0
O537 O 0.65744 0.26612 0.58679 0.0
C538 C 0.66589 0.23064 0.58989 0.0
O539 O 0.63978 0.2595 0.64049 0.0
O540 O 0.67024 0.22597 0.65825 0.0
C541 C 0.59578 0.29943 0.62135 0.0
C542 C 0.64154 0.24698 0.65354 0.0
Zn543 Zn 0.05402 0.18981 0.85063 0.0
Zn544 Zn 0.09996 0.27674 0.89243 0.0
Zn545 Zn 0.0813 0.23318 0.87123 0.0
C546 C 0.08631 0.20491 0.90425 0.0
C547 C 0.04058 0.31813 0.87911 0.0
O548 O 0.12405 0.23731 0.85449 0.0
O549 O 0.09046 0.20734 0.83641 0.0
C550 C 0.0742 0.13703 0.87229 0.0
O551 O 0.08649 0.19551 0.89086 0.0
O552 O 0.08784 0.24087 0.90803 0.0
O553 O 0.0657 0.32282 0.88947 0.0
O554 O 0.04007 0.28565 0.87166 0.0
O555 O 0.06488 0.13728 0.85902 0.0
O556 O 0.07883 0.17016 0.87922 0.0
O557 O 0.02039 0.25481 0.86414 0.0
O558 O 0.99908 0.20843 0.84878 0.0
C559 C 0.99249 0.23954 0.85581 0.0
O560 O 0.14124 0.25657 0.86689 0.0
O561 O 0.15616 0.28404 0.88802 0.0
C562 C 0.12047 0.22626 0.84125 0.0
C563 C 0.16633 0.27442 0.87568 0.0
H564 H 0.19025 0.41152 0.10156 0.0
H565 H 0.23022 0.43435 0.05912 0.0
H566 H 0.2259 0.50636 0.06354 0.0
H567 H 0.12245 0.49454 0.1028 0.0
H568 H 0.13465 0.5047 0.12151 0.0
H569 H 0.13837 0.45484 0.11466 0.0
H570 H 0.21147 0.45167 0.12434 0.0
H571 H 0.20784 0.50135 0.13131 0.0
H572 H 0.24542 0.48945 0.11919 0.0
H573 H 0.21989 0.57715 0.07311 0.0
H574 H 0.21599 0.63888 0.08761 0.0
H575 H 0.18095 0.56928 0.1236 0.0
C576 C 0.1982 0.43154 0.09318 0.0
C577 C 0.21017 0.41687 0.07992 0.0
C578 C 0.22006 0.44451 0.06926 0.0
C579 C 0.21789 0.48564 0.07169 0.0
C580 C 0.20585 0.49902 0.08485 0.0
C581 C 0.19633 0.47272 0.09543 0.0
C582 C 0.18586 0.49462 0.10887 0.0
C583 C 0.14277 0.4867 0.11215 0.0
C584 C 0.21435 0.48362 0.12168 0.0
C585 C 0.19165 0.53723 0.10429 0.0
C586 C 0.20275 0.53936 0.09034 0.0
C587 C 0.21084 0.57578 0.084 0.0
C588 C 0.20821 0.61075 0.09224 0.0
C589 C 0.19758 0.60896 0.10662 0.0
C590 C 0.18887 0.57166 0.11258 0.0
H591 H 0.86477 0.76158 0.33338 0.0
H592 H 0.91315 0.86527 0.35604 0.0
H593 H 0.84946 0.87618 0.36666 0.0
H594 H 0.76435 0.80082 0.32603 0.0
H595 H 0.74144 0.7535 0.32895 0.0
H596 H 0.79011 0.75548 0.32237 0.0
H597 H 0.81559 0.71106 0.34362 0.0
H598 H 0.76688 0.70985 0.35018 0.0
H599 H 0.80806 0.72678 0.36173 0.0
H600 H 0.78232 0.87563 0.37523 0.0
H601 H 0.71571 0.86144 0.3827 0.0
H602 H 0.70902 0.75715 0.35516 0.0
C603 C 0.86177 0.78675 0.34049 0.0
C604 C 0.89407 0.81253 0.34393 0.0
C605 C 0.88911 0.84483 0.3534 0.0
C606 C 0.85291 0.8515 0.35938 0.0
C607 C 0.82178 0.82563 0.3558 0.0
C608 C 0.82571 0.79375 0.34665 0.0
C609 C 0.78784 0.76947 0.34523 0.0
C610 C 0.76989 0.76988 0.32972 0.0
C611 C 0.79504 0.72676 0.35051 0.0
C612 C 0.76231 0.79246 0.35517 0.0
C613 C 0.78254 0.82501 0.36096 0.0
C614 C 0.76609 0.85036 0.37073 0.0
C615 C 0.72821 0.84195 0.37493 0.0
C616 C 0.70697 0.80835 0.36945 0.0
C617 C 0.72414 0.78351 0.35929 0.0
H618 H 0.80561 0.53553 0.5879 0.0
H619 H 0.74617 0.58827 0.62294 0.0
H620 H 0.75091 0.5246 0.63591 0.0
H621 H 0.74861 0.45921 0.58496 0.0
H622 H 0.78396 0.42258 0.57994 0.0
H623 H 0.79265 0.47392 0.57652 0.0
H624 H 0.8601 0.47012 0.59101 0.0
H625 H 0.85152 0.41826 0.59447 0.0
H626 H 0.8625 0.45212 0.60918 0.0
H627 H 0.7452 0.45286 0.64191 0.0
H628 H 0.7226 0.38338 0.63897 0.0
H629 H 0.77653 0.37603 0.59837 0.0
C630 C 0.79508 0.53406 0.59858 0.0
C631 C 0.77539 0.56678 0.60438 0.0
C632 C 0.76191 0.56384 0.61836 0.0
C633 C 0.76446 0.5276 0.62579 0.0
C634 C 0.78061 0.49466 0.61912 0.0
C635 C 0.79595 0.49777 0.60578 0.0
C636 C 0.80254 0.45725 0.59921 0.0
C637 C 0.78059 0.45303 0.5843 0.0
C638 C 0.8468 0.44896 0.59843 0.0
C639 C 0.78491 0.43091 0.61023 0.0
C640 C 0.7747 0.45271 0.62206 0.0
C641 C 0.754 0.43544 0.63289 0.0
C642 C 0.74142 0.39585 0.63118 0.0
C643 C 0.74843 0.37458 0.61852 0.0
C644 C 0.77191 0.39164 0.60829 0.0
H645 H 0.77731 0.25767 0.81859 0.0
H646 H 0.74573 0.33764 0.85252 0.0
H647 H 0.81352 0.3316 0.86391 0.0
H648 H 0.83983 0.19327 0.84019 0.0
H649 H 0.87399 0.18638 0.82639 0.0
H650 H 0.82291 0.19657 0.82156 0.0
H651 H 0.84351 0.25706 0.80664 0.0
H652 H 0.89464 0.24725 0.81152 0.0
H653 H 0.87409 0.29531 0.81513 0.0
H654 H 0.88743 0.31682 0.8711 0.0
H655 H 0.95636 0.29235 0.8738 0.0
H656 H 0.93703 0.22514 0.83425 0.0
C657 C 0.78454 0.27416 0.82839 0.0
C658 C 0.75627 0.29845 0.83458 0.0
C659 C 0.76685 0.3187 0.8476 0.0
C660 C 0.80536 0.31564 0.85408 0.0
C661 C 0.83281 0.2921 0.84743 0.0
C662 C 0.82253 0.27157 0.83489 0.0
C663 C 0.85681 0.24829 0.82968 0.0
C664 C 0.84784 0.20348 0.82945 0.0
C665 C 0.86791 0.26287 0.81487 0.0
C666 C 0.88828 0.25881 0.8412 0.0
C667 C 0.87426 0.28411 0.85139 0.0
C668 C 0.89858 0.29715 0.86311 0.0
C669 C 0.93787 0.28346 0.86449 0.0
C670 C 0.9524 0.25718 0.85417 0.0
C671 C 0.92707 0.24522 0.84236 0.0
H672 H 0.97521 0.52327 0.90454 0.0
H673 H 0.02283 0.56853 0.86582 0.0
H674 H 0.01773 0.50143 0.85504 0.0
H675 H 0.03342 0.44349 0.90686 0.0
H676 H 0.99823 0.41031 0.91417 0.0
H677 H 0.99388 0.46278 0.91685 0.0
H678 H 0.92228 0.4603 0.90548 0.0
H679 H 0.92674 0.40754 0.90262 0.0
H680 H 0.91288 0.43958 0.88776 0.0
H681 H 0.02006 0.42751 0.85037 0.0
H682 H 0.03711 0.35654 0.85354 0.0
H683 H 0.99381 0.3596 0.89606 0.0
C684 C 0.98381 0.51938 0.89366 0.0
C685 C 0.99957 0.55136 0.88608 0.0
C686 C 0.0101 0.54482 0.87182 0.0
C687 C 0.00729 0.50667 0.86559 0.0
C688 C 0.99366 0.47533 0.87371 0.0
C689 C 0.98204 0.48149 0.88747 0.0
C690 C 0.97546 0.4426 0.89503 0.0
C691 C 1.00184 0.43964 0.90903 0.0
C692 C 0.93173 0.4372 0.89788 0.0
C693 C 0.98782 0.41346 0.88378 0.0
C694 C 0.99653 0.43267 0.87129 0.0
C695 C 0.01242 0.41214 0.85996 0.0
C696 C 0.0217 0.3717 0.86178 0.0
C697 C 0.01605 0.3527 0.87495 0.0
C698 C 0.99725 0.37336 0.88576 0.0
H699 H 0.87201 0.80999 0.15056 0.0
H700 H 0.87363 0.6964 0.17211 0.0
H701 H 0.9401 0.68288 0.16381 0.0
H702 H 0.92702 0.77928 0.11949 0.0
H703 H 0.9534 0.82571 0.11911 0.0
H704 H 0.90453 0.82429 0.12555 0.0
H705 H 0.93123 0.85714 0.14938 0.0
H706 H 0.98025 0.85803 0.1431 0.0
H707 H 0.97129 0.83399 0.15979 0.0
H708 H 0.00794 0.68361 0.15442 0.0
H709 H 0.07061 0.69675 0.14318 0.0
H710 H 0.02617 0.81127 0.12875 0.0
C711 C 0.88595 0.78177 0.15309 0.0
C712 C 0.86763 0.75379 0.16169 0.0
C713 C 0.88714 0.71778 0.1653 0.0
C714 C 0.92489 0.71 0.16072 0.0
C715 C 0.9428 0.7387 0.15261 0.0
C716 C 0.92387 0.77372 0.14871 0.0
C717 C 0.95049 0.80045 0.14057 0.0
C718 C 0.93281 0.80785 0.12527 0.0
C719 C 0.95879 0.83972 0.1487 0.0
C720 C 0.98723 0.77503 0.14051 0.0
C721 C 0.98225 0.73957 0.14755 0.0
C722 C 0.01221 0.71135 0.14893 0.0
C723 C 0.04796 0.71932 0.14273 0.0
C724 C 0.05367 0.7554 0.13545 0.0
C725 C 0.0228 0.78353 0.13437 0.0
H726 H 0.53279 0.43503 0.40005 0.0
H727 H 0.65097 0.43574 0.4205 0.0
H728 H 0.65984 0.50509 0.41301 0.0
H729 H 0.556 0.49691 0.3693 0.0
H730 H 0.5093 0.52233 0.36882 0.0
H731 H 0.51295 0.47207 0.37526 0.0
H732 H 0.48393 0.49432 0.399 0.0
H733 H 0.48081 0.54476 0.39273 0.0
H734 H 0.50771 0.53369 0.40947 0.0
H735 H 0.65534 0.57529 0.40418 0.0
H736 H 0.63933 0.63979 0.39262 0.0
H737 H 0.52428 0.59481 0.37806 0.0
C738 C 0.56078 0.44957 0.40268 0.0
C739 C 0.59112 0.42996 0.41094 0.0
C740 C 0.62717 0.45025 0.41432 0.0
C741 C 0.63251 0.48968 0.41011 0.0
C742 C 0.60162 0.50862 0.40243 0.0
C743 C 0.56665 0.48916 0.39855 0.0
C744 C 0.53813 0.51671 0.39034 0.0
C745 C 0.52854 0.50107 0.37502 0.0
C746 C 0.50042 0.52271 0.39837 0.0
C747 C 0.56247 0.55458 0.3903 0.0
C748 C 0.59894 0.54929 0.39741 0.0
C749 C 0.6267 0.57989 0.39872 0.0
C750 C 0.61716 0.61668 0.39241 0.0
C751 C 0.58012 0.62274 0.38504 0.0
C752 C 0.55253 0.59117 0.38394 0.0
H753 H 0.97891 0.33287 0.67111 0.0
H754 H 0.01832 0.31665 0.62798 0.0
H755 H 0.94936 0.31475 0.6186 0.0
H756 H 0.91004 0.25744 0.66707 0.0
H757 H 0.87501 0.2802 0.67827 0.0
H758 H 0.92666 0.29114 0.68124 0.0
H759 H 0.91182 0.36632 0.67853 0.0
H760 H 0.85998 0.35552 0.67547 0.0
H761 H 0.88515 0.38399 0.66253 0.0
H762 H 0.87556 0.30874 0.61398 0.0
H763 H 0.80596 0.28777 0.61499 0.0
H764 H 0.81703 0.29432 0.66139 0.0
C765 C 0.97379 0.3287 0.65967 0.0
C766 C 0.0052 0.325 0.65043 0.0
C767 C 0.99564 0.32076 0.63546 0.0
C768 C 0.95623 0.31942 0.62996 0.0
C769 C 0.92639 0.32156 0.63951 0.0
C770 C 0.93483 0.32542 0.65409 0.0
C771 C 0.8982 0.32023 0.66235 0.0
C772 C 0.90276 0.28517 0.67284 0.0
C773 C 0.88821 0.35882 0.67018 0.0
C774 C 0.86801 0.31141 0.65016 0.0
C775 C 0.88448 0.31405 0.63702 0.0
C776 C 0.86241 0.30664 0.6242 0.0
C777 C 0.82295 0.29486 0.62487 0.0
C778 C 0.80652 0.28933 0.63827 0.0
C779 C 0.82909 0.29841 0.65104 0.0
H780 H 0.39823 0.24751 0.65974 0.0
H781 H 0.35181 0.36002 0.64386 0.0
H782 H 0.41358 0.37214 0.63195 0.0
H783 H 0.49407 0.27936 0.66804 0.0
H784 H 0.51899 0.23536 0.66221 0.0
H785 H 0.46999 0.2318 0.66838 0.0
H786 H 0.44341 0.19925 0.64474 0.0
H787 H 0.49253 0.20021 0.63851 0.0
H788 H 0.45235 0.22247 0.6279 0.0
H789 H 0.4811 0.37405 0.62314 0.0
H790 H 0.54917 0.36378 0.61629 0.0
H791 H 0.55251 0.24983 0.63784 0.0
C792 C 0.40096 0.27449 0.65362 0.0
C793 C 0.37028 0.30287 0.65269 0.0
C794 C 0.37476 0.33771 0.64454 0.0
C795 C 0.40981 0.34495 0.63784 0.0
C796 C 0.43986 0.31689 0.6393 0.0
C797 C 0.43562 0.28206 0.64678 0.0
C798 C 0.47276 0.25713 0.64689 0.0
C799 C 0.49002 0.25054 0.66229 0.0
C800 C 0.46477 0.21742 0.63904 0.0
C801 C 0.49889 0.28387 0.63855 0.0
C802 C 0.47916 0.31808 0.63425 0.0
C803 C 0.49682 0.34732 0.62637 0.0
C804 C 0.5355 0.3412 0.62255 0.0
C805 C 0.55622 0.30615 0.62663 0.0
C806 C 0.53764 0.27719 0.63478 0.0
H807 H 0.50621 0.7594 0.14415 0.0
H808 H 0.49501 0.88269 0.15663 0.0
H809 H 0.42338 0.88002 0.14989 0.0
H810 H 0.42876 0.75898 0.11402 0.0
H811 H 0.4121 0.71002 0.11851 0.0
H812 H 0.4631 0.72366 0.1221 0.0
H813 H 0.45837 0.70461 0.14878 0.0
H814 H 0.40743 0.69117 0.1453 0.0
H815 H 0.42109 0.72738 0.15901 0.0
H816 H 0.35159 0.86167 0.14403 0.0
H817 H 0.28655 0.82829 0.14056 0.0
H818 H 0.34478 0.71697 0.13255 0.0
C819 C 0.48884 0.78615 0.14499 0.0
C820 C 0.50614 0.82146 0.15065 0.0
C821 C 0.48228 0.8555 0.15215 0.0
C822 C 0.44163 0.85425 0.14832 0.0
C823 C 0.42521 0.81865 0.14309 0.0
C824 C 0.44815 0.78521 0.14141 0.0
C825 C 0.4229 0.74957 0.13701 0.0
C826 C 0.43228 0.73469 0.12202 0.0
C827 C 0.42774 0.71624 0.14819 0.0
C828 C 0.38217 0.76785 0.13682 0.0
C829 C 0.38403 0.80789 0.14009 0.0
C830 C 0.34989 0.83049 0.1412 0.0
C831 C 0.31303 0.81152 0.13907 0.0
C832 C 0.31063 0.77045 0.13599 0.0
C833 C 0.34574 0.74858 0.13476 0.0
H834 H 0.36105 0.2691 0.83097 0.0
H835 H 0.41752 0.34209 0.86483 0.0
H836 H 0.35583 0.34261 0.87733 0.0
H837 H 0.2686 0.32029 0.83093 0.0
H838 H 0.23709 0.27795 0.82801 0.0
H839 H 0.28496 0.27853 0.8207 0.0
H840 H 0.30764 0.21495 0.83345 0.0
H841 H 0.2593 0.20956 0.84007 0.0
H842 H 0.30215 0.20967 0.85243 0.0
H843 H 0.28849 0.335 0.88631 0.0
H844 H 0.22013 0.31954 0.89137 0.0
H845 H 0.20622 0.25153 0.85182 0.0
C846 C 0.36047 0.28548 0.84095 0.0
C847 C 0.39458 0.30522 0.84694 0.0
C848 C 0.39229 0.32599 0.86012 0.0
C849 C 0.3572 0.32676 0.86727 0.0
C850 C 0.32437 0.30685 0.8611 0.0
C851 C 0.32558 0.28669 0.84824 0.0
C852 C 0.28579 0.26827 0.84389 0.0
C853 C 0.26815 0.28735 0.83003 0.0
C854 C 0.28892 0.22292 0.84237 0.0
C855 C 0.26245 0.27987 0.85659 0.0
C856 C 0.28522 0.30266 0.86627 0.0
C857 C 0.27039 0.3172 0.8788 0.0
C858 C 0.23135 0.3081 0.88157 0.0
C859 C 0.20724 0.28437 0.87193 0.0
C860 C 0.22329 0.27018 0.85926 0.0
H861 H 0.28158 0.77544 0.3191 0.0
H862 H 0.24448 0.85397 0.35261 0.0
H863 H 0.31172 0.85043 0.36463 0.0
H864 H 0.34429 0.71335 0.34117 0.0
H865 H 0.37991 0.7077 0.32779 0.0
H866 H 0.32891 0.71639 0.32238 0.0
H867 H 0.34898 0.77775 0.30781 0.0
H868 H 0.40004 0.76937 0.31325 0.0
H869 H 0.37778 0.81674 0.31666 0.0
H870 H 0.3857 0.83764 0.3727 0.0
H871 H 0.45509 0.81483 0.37622 0.0
H872 H 0.441 0.74796 0.33642 0.0
C873 C 0.28748 0.79231 0.3289 0.0
C874 C 0.25776 0.81539 0.3348 0.0
C875 C 0.2667 0.83599 0.34788 0.0
C876 C 0.3049 0.83434 0.35473 0.0
C877 C 0.33374 0.8119 0.34837 0.0
C878 C 0.32513 0.79117 0.33575 0.0
C879 C 0.36059 0.76902 0.33093 0.0
C880 C 0.35296 0.72395 0.33055 0.0
C881 C 0.37254 0.78414 0.3163 0.0
C882 C 0.39078 0.78031 0.34279 0.0
C883 C 0.37515 0.80506 0.35281 0.0
C884 C 0.3981 0.81844 0.36483 0.0
C885 C 0.43765 0.80564 0.3667 0.0
C886 C 0.4538 0.77989 0.35655 0.0
C887 C 0.42983 0.76765 0.34442 0.0
H888 H 0.69337 0.92646 0.60973 0.0
H889 H 0.73003 0.94583 0.56663 0.0
H890 H 0.72868 0.01821 0.5707 0.0
H891 H 0.6274 0.00973 0.61071 0.0
H892 H 0.64024 0.02161 0.62925 0.0
H893 H 0.64384 0.97117 0.62297 0.0
H894 H 0.71722 0.96889 0.63231 0.0
H895 H 0.71376 0.01922 0.63871 0.0
H896 H 0.75086 0.00614 0.62655 0.0
H897 H 0.7245 0.08894 0.57958 0.0
H898 H 0.71935 0.15202 0.59305 0.0
H899 H 0.68425 0.08709 0.63003 0.0
C900 C 0.70145 0.94589 0.60119 0.0
C901 C 0.71155 0.9303 0.58781 0.0
C902 C 0.72155 0.95694 0.57689 0.0
C903 C 0.72104 0.99816 0.57911 0.0
C904 C 0.7105 0.01253 0.59234 0.0
C905 C 0.70102 0.98722 0.60322 0.0
C906 C 0.69097 0.01038 0.61646 0.0
C907 C 0.64806 1.00276 0.62005 0.0
C908 C 0.71994 1.00057 0.62926 0.0
C909 C 0.69652 0.05258 0.61135 0.0
C910 C 0.70763 0.05321 0.59738 0.0
C911 C 0.71523 0.08878 0.59046 0.0
C912 C 0.71159 0.12457 0.59806 0.0
C913 C 0.70013 0.12465 0.61234 0.0
C914 C 0.69262 0.08804 0.61903 0.0
H915 H 0.27324 0.01212 0.07684 0.0
H916 H 0.28335 0.07926 0.11677 0.0
H917 H 0.27479 0.01685 0.13009 0.0
H918 H 0.20223 0.94775 0.08514 0.0
H919 H 0.22223 0.90561 0.07612 0.0
H920 H 0.23258 0.95491 0.07021 0.0
H921 H 0.30763 0.94089 0.07348 0.0
H922 H 0.29747 0.89133 0.07946 0.0
H923 H 0.32853 0.92398 0.09058 0.0
H924 H 0.25521 0.94686 0.13848 0.0
H925 H 0.22785 0.87887 0.14064 0.0
H926 H 0.24009 0.85881 0.09542 0.0
C927 C 0.27562 0.01427 0.0884 0.0
C928 C 0.27978 0.05136 0.09561 0.0
C929 C 0.28009 0.05171 0.11082 0.0
C930 C 0.27567 0.01618 0.11853 0.0
C931 C 0.27185 0.98034 0.11094 0.0
C932 C 0.27241 0.97937 0.09619 0.0
C933 C 0.26545 0.93797 0.09024 0.0
C934 C 0.22843 0.9365 0.07983 0.0
C935 C 0.30195 0.92265 0.08302 0.0
C936 C 0.25928 0.91564 0.10389 0.0
C937 C 0.26321 0.94031 0.1158 0.0
C938 C 0.25354 0.92706 0.1293 0.0
C939 C 0.23839 0.8883 0.13049 0.0
C940 C 0.23385 0.86314 0.11832 0.0
C941 C 0.24539 0.87679 0.10501 0.0
H942 H 0.49936 0.04401 0.41479 0.0
H943 H 0.47043 0.08939 0.37196 0.0
H944 H 0.47016 0.02042 0.36264 0.0
H945 H 0.56185 0.97243 0.40674 0.0
H946 H 0.54601 0.93736 0.41972 0.0
H947 H 0.53982 0.9895 0.42272 0.0
H948 H 0.46491 0.97873 0.42514 0.0
H949 H 0.47086 0.92625 0.42209 0.0
H950 H 0.43582 0.95414 0.41092 0.0
H951 H 0.48317 0.94493 0.358 0.0
H952 H 0.50891 0.87578 0.35901 0.0
H953 H 0.51908 0.88294 0.40531 0.0
C954 C 0.49081 0.04031 0.40354 0.0
C955 C 0.48415 0.07317 0.39429 0.0
C956 C 0.47586 0.06532 0.37944 0.0
C957 C 0.47517 0.026 0.37403 0.0
C958 C 0.48176 0.99461 0.38362 0.0
C959 C 0.48875 1.00172 0.39812 0.0
C960 C 0.49763 0.96404 0.40636 0.0
C961 C 0.53874 0.96597 0.41433 0.0
C962 C 0.46537 0.95528 0.41674 0.0
C963 C 0.49644 0.93438 0.3942 0.0
C964 C 0.48699 0.95206 0.38109 0.0
C965 C 0.48945 0.93073 0.36826 0.0
C966 C 0.5037 0.89131 0.36889 0.0
C967 C 0.51527 0.87399 0.38226 0.0
C968 C 0.50949 0.89523 0.39497 0.0
H969 H 0.04119 0.94793 0.92201 0.0
H970 H 0.10481 0.8814 0.89093 0.0
H971 H 0.11977 0.94357 0.87863 0.0
H972 H 0.99679 0.01651 0.89722 0.0
H973 H 1.00059 0.05885 0.90912 0.0
H974 H 0.99736 0.00962 0.91637 0.0
H975 H 0.06234 0.02171 0.93187 0.0
H976 H 0.06548 0.071 0.92459 0.0
H977 H 0.10598 0.03695 0.92331 0.0
H978 H 0.12559 0.01065 0.86899 0.0
H979 H 0.1176 0.07982 0.8611 0.0
H980 H 0.04996 0.10585 0.89789 0.0
C981 C 0.05862 0.94662 0.9127 0.0
C982 C 0.07172 0.90968 0.90739 0.0
C983 C 0.09399 0.90914 0.89508 0.0
C984 C 0.10304 0.94437 0.88811 0.0
C985 C 0.0897 0.98013 0.89356 0.0
C986 C 0.06778 0.98174 0.90551 0.0
C987 C 0.05497 0.02421 0.90843 0.0
C988 C 0.00974 0.02747 0.90774 0.0
C989 C 0.07329 0.03935 0.92291 0.0
C990 C 0.0723 0.04585 0.89603 0.0
C991 C 0.09276 0.01967 0.8878 0.0
C992 C 0.10995 0.03152 0.8754 0.0
C993 C 0.10523 0.07087 0.87101 0.0
C994 C 0.08345 0.09816 0.87894 0.0
C995 C 0.06746 0.08577 0.89181 0.0
H996 H 0.10432 0.19613 0.98493 0.0
H997 H 0.21527 0.13614 0.97976 0.0
H998 H 0.192 0.11593 0.95523 0.0
H999 H 0.03981 0.12818 0.95988 0.0
H1000 H 0.01159 0.1704 0.95341 0.0
H1001 H 0.03156 0.16929 0.97176 0.0
H1002 H 0.06711 0.23648 0.96815 0.0
H1003 H 0.04669 0.23789 0.95005 0.0
H1004 H 0.09937 0.2412 0.95363 0.0
H1005 H 0.16383 0.11595 0.92994 0.0
H1006 H 0.1381 0.14321 0.9067 0.0
H1007 H 0.0458 0.20356 0.92797 0.0
C1008 C 0.12331 0.17788 0.97875 0.0
C1009 C 0.16157 0.16777 0.98423 0.0
C1010 C 0.1856 0.14382 0.97585 0.0
C1011 C 0.17251 0.13202 0.96191 0.0
C1012 C 0.13508 0.14386 0.95658 0.0
C1013 C 0.11073 0.16612 0.96484 0.0
C1014 C 0.07512 0.18121 0.95601 0.0
C1015 C 0.03728 0.16105 0.96054 0.0
C1016 C 0.07197 0.22685 0.95701 0.0
C1017 C 0.08513 0.16741 0.94124 0.0
C1018 C 0.11882 0.14423 0.94182 0.0
C1019 C 0.13687 0.13308 0.92937 0.0
C1020 C 0.12193 0.14842 0.91617 0.0
C1021 C 0.0899 0.17513 0.91569 0.0
C1022 C 0.06978 0.18239 0.92816 0.0
H1023 H 0.06896 0.81802 0.22204 0.0
H1024 H 0.01843 0.70429 0.23234 0.0
H1025 H 0.03482 0.67796 0.20869 0.0
H1026 H 0.03797 0.81291 0.18193 0.0
H1027 H 0.08268 0.83758 0.1775 0.0
H1028 H 0.06055 0.84935 0.19405 0.0
H1029 H 0.12663 0.83292 0.20817 0.0
H1030 H 0.14868 0.82062 0.19173 0.0
H1031 H 0.14857 0.78472 0.20598 0.0
H1032 H 0.06964 0.66023 0.18687 0.0
H1033 H 0.11339 0.65466 0.16672 0.0
H1034 H 0.13588 0.78113 0.16904 0.0
C1035 C 0.0602 0.78803 0.21905 0.0
C1036 C 0.04228 0.76314 0.22889 0.0
C1037 C 0.03166 0.72388 0.22482 0.0
C1038 C 0.04092 0.70871 0.21144 0.0
C1039 C 0.05984 0.73355 0.20214 0.0
C1040 C 0.0684 0.77274 0.20559 0.0
C1041 C 0.0913 0.79228 0.19411 0.0
C1042 C 0.06664 0.82497 0.18645 0.0
C1043 C 0.13115 0.80856 0.20038 0.0
C1044 C 0.09674 0.75724 0.18421 0.0
C1045 C 0.07806 0.7237 0.18898 0.0
C1046 C 0.08322 0.68652 0.18273 0.0
C1047 C 0.10825 0.68354 0.1714 0.0
C1048 C 0.12704 0.71761 0.16629 0.0
C1049 C 0.12071 0.75497 0.17257 0.0
H1050 H 0.58008 0.72465 0.48855 0.0
H1051 H 0.68723 0.65471 0.48991 0.0
H1052 H 0.67555 0.63912 0.46419 0.0
H1053 H 0.52321 0.66319 0.45963 0.0
H1054 H 0.50135 0.70738 0.4518 0.0
H1055 H 0.51272 0.70499 0.4709 0.0
H1056 H 0.55483 0.76911 0.46981 0.0
H1057 H 0.54312 0.77185 0.45087 0.0
H1058 H 0.59397 0.77112 0.45765 0.0
H1059 H 0.66182 0.64495 0.43795 0.0
H1060 H 0.64777 0.6731 0.41391 0.0
H1061 H 0.54692 0.73489 0.42892 0.0
C1062 C 0.6005 0.70521 0.48349 0.0
C1063 C 0.63442 0.69076 0.49123 0.0
C1064 C 0.66065 0.6656 0.48425 0.0
C1065 C 0.65421 0.65649 0.46963 0.0
C1066 C 0.62103 0.67216 0.46218 0.0
C1067 C 0.59433 0.69566 0.46892 0.0
C1068 C 0.56411 0.71328 0.45821 0.0
C1069 C 0.5229 0.69617 0.46026 0.0
C1070 C 0.56406 0.75901 0.45919 0.0
C1071 C 0.5798 0.69866 0.44431 0.0
C1072 C 0.61203 0.67403 0.44681 0.0
C1073 C 0.63548 0.66247 0.43576 0.0
C1074 C 0.62689 0.67792 0.422 0.0
C1075 C 0.59485 0.70404 0.4194 0.0
C1076 C 0.57025 0.71319 0.43056 0.0
H1077 H 0.55565 0.23946 0.72974 0.0
H1078 H 0.51477 0.35997 0.72323 0.0
H1079 H 0.53008 0.35562 0.6976 0.0
H1080 H 0.63583 0.2448 0.71023 0.0
H1081 H 0.6324 0.19553 0.70262 0.0
H1082 H 0.61153 0.20571 0.71944 0.0
H1083 H 0.54333 0.18018 0.7092 0.0
H1084 H 0.56419 0.16944 0.69233 0.0
H1085 H 0.52156 0.20106 0.69283 0.0
H1086 H 0.56084 0.34126 0.67393 0.0
H1087 H 0.601 0.31743 0.65441 0.0
H1088 H 0.61889 0.2054 0.67642 0.0
C1089 C 0.54865 0.26434 0.72274 0.0
C1090 C 0.53369 0.29985 0.72826 0.0
C1091 C 0.52564 0.33233 0.71902 0.0
C1092 C 0.53433 0.33008 0.70451 0.0
C1093 C 0.55038 0.29492 0.69945 0.0
C1094 C 0.55669 0.26235 0.70827 0.0
C1095 C 0.57711 0.22919 0.70069 0.0
C1096 C 0.61654 0.2182 0.70872 0.0
C1097 C 0.54991 0.19282 0.69864 0.0
C1098 C 0.58341 0.24885 0.68651 0.0
C1099 C 0.5674 0.28655 0.68586 0.0
C1100 C 0.57262 0.31143 0.67421 0.0
C1101 C 0.59516 0.29755 0.66309 0.0
C1102 C 0.6122 0.25922 0.66374 0.0
C1103 C 0.60556 0.23454 0.67551 0.0
H1104 H 0.14954 0.72095 0.00616 0.0
H1105 H 0.07538 0.61623 0.00833 0.0
H1106 H 0.09296 0.61138 0.03423 0.0
H1107 H 0.22534 0.69321 0.03429 0.0
H1108 H 0.2293 0.74328 0.04114 0.0
H1109 H 0.21646 0.7346 0.02237 0.0
H1110 H 0.15298 0.77658 0.02412 0.0
H1111 H 0.16589 0.78569 0.04279 0.0
H1112 H 0.11871 0.76403 0.03737 0.0
H1113 H 0.11312 0.62189 0.06047 0.0
H1114 H 0.12874 0.65098 0.08462 0.0
H1115 H 0.18617 0.75028 0.06527 0.0
C1116 C 0.13706 0.69681 0.012 0.0
C1117 C 0.1113 0.6688 0.00505 0.0
C1118 C 0.09595 0.63759 0.01323 0.0
C1119 C 0.10571 0.63458 0.02801 0.0
C1120 C 0.13081 0.663 0.03451 0.0
C1121 C 0.14604 0.69367 0.02676 0.0
C1122 C 0.16863 0.72298 0.03645 0.0
C1123 C 0.21254 0.72353 0.03338 0.0
C1124 C 0.15045 0.76477 0.03511 0.0
C1125 C 0.16249 0.70484 0.05092 0.0
C1126 C 0.14149 0.66968 0.04961 0.0
C1127 C 0.13012 0.64904 0.06162 0.0
C1128 C 0.13927 0.66555 0.07528 0.0
C1129 C 0.15919 0.70234 0.07669 0.0
C1130 C 0.17163 0.72164 0.0644 0.0
H1131 H 0.68469 0.76333 0.26479 0.0
H1132 H 0.68667 0.89076 0.27088 0.0
H1133 H 0.68455 0.88156 0.29718 0.0
H1134 H 0.6133 0.74562 0.2877 0.0
H1135 H 0.63233 0.69894 0.29444 0.0
H1136 H 0.64376 0.71529 0.27692 0.0
H1137 H 0.71827 0.70884 0.28415 0.0
H1138 H 0.70728 0.69301 0.30188 0.0
H1139 H 0.73908 0.73513 0.29968 0.0
H1140 H 0.67404 0.85859 0.32213 0.0
H1141 H 0.64651 0.82541 0.34277 0.0
H1142 H 0.64684 0.713 0.31997 0.0
C1143 C 0.68601 0.78913 0.27179 0.0
C1144 C 0.68663 0.82767 0.26606 0.0
C1145 C 0.68677 0.86104 0.27526 0.0
C1146 C 0.68589 0.85602 0.29015 0.0
C1147 C 0.68459 0.81746 0.29553 0.0
C1148 C 0.68435 0.78457 0.28658 0.0
C1149 C 0.67627 0.74682 0.2946 0.0
C1150 C 0.63922 0.72546 0.28803 0.0
C1151 C 0.71238 0.71933 0.29511 0.0
C1152 C 0.6697 0.76375 0.30927 0.0
C1153 C 0.67622 0.8043 0.30976 0.0
C1154 C 0.66942 0.82679 0.32193 0.0
C1155 C 0.65393 0.80765 0.33363 0.0
C1156 C 0.64475 0.76664 0.33294 0.0
C1157 C 0.65397 0.74432 0.3208 0.0
H1158 H 0.55717 0.17841 0.51772 0.0
H1159 H 0.67102 0.19054 0.49979 0.0
H1160 H 0.70403 0.18316 0.52396 0.0
H1161 H 0.57777 0.2387 0.54622 0.0
H1162 H 0.55026 0.21168 0.5589 0.0
H1163 H 0.53666 0.20779 0.54009 0.0
H1164 H 0.5436 0.13122 0.54163 0.0
H1165 H 0.55788 0.13514 0.56051 0.0
H1166 H 0.5894 0.10983 0.54862 0.0
H1167 H 0.72378 0.18718 0.54976 0.0
H1168 H 0.72813 0.20974 0.57498 0.0
H1169 H 0.60213 0.1955 0.57676 0.0
C1170 C 0.58908 0.17809 0.51891 0.0
C1171 C 0.61173 0.18453 0.50699 0.0
C1172 C 0.65333 0.18542 0.50886 0.0
C1173 C 0.67226 0.18082 0.52251 0.0
C1174 C 0.64914 0.17535 0.53417 0.0
C1175 C 0.60839 0.17412 0.53252 0.0
C1176 C 0.59022 0.17475 0.54692 0.0
C1177 C 0.56212 0.21035 0.5481 0.0
C1178 C 0.56902 0.13538 0.54957 0.0
C1179 C 0.62693 0.17919 0.55688 0.0
C1180 C 0.66072 0.17798 0.54934 0.0
C1181 C 0.69776 0.1868 0.55587 0.0
C1182 C 0.70008 0.19926 0.57024 0.0
C1183 C 0.66568 0.20253 0.57789 0.0
C1184 C 0.62898 0.191 0.5713 0.0
H1185 H 0.16384 0.3185 0.76831 0.0
H1186 H 0.23426 0.21417 0.76086 0.0
H1187 H 0.23523 0.19804 0.78668 0.0
H1188 H 0.20822 0.34022 0.80625 0.0
H1189 H 0.16086 0.356 0.81183 0.0
H1190 H 0.17383 0.3643 0.79365 0.0
H1191 H 0.11048 0.32698 0.78419 0.0
H1192 H 0.09755 0.31848 0.80225 0.0
H1193 H 0.10206 0.27703 0.79017 0.0
H1194 H 0.216 0.18548 0.81153 0.0
H1195 H 0.17963 0.17876 0.83355 0.0
H1196 H 0.12354 0.29213 0.8252 0.0
C1197 C 0.18046 0.29296 0.77225 0.0
C1198 C 0.19896 0.26751 0.76271 0.0
C1199 C 0.22028 0.2342 0.76809 0.0
C1200 C 0.22102 0.2249 0.78272 0.0
C1201 C 0.20101 0.24972 0.79179 0.0
C1202 C 0.18175 0.28355 0.7868 0.0
C1203 C 0.15862 0.30272 0.7983 0.0
C1204 C 0.17646 0.34321 0.80277 0.0
C1205 C 0.1146 0.30647 0.79343 0.0
C1206 C 0.16525 0.27274 0.81017 0.0
C1207 C 0.19049 0.24281 0.80633 0.0
C1208 C 0.19722 0.20931 0.81484 0.0
C1209 C 0.17671 0.20579 0.82734 0.0
C1210 C 0.15018 0.23568 0.83117 0.0
C1211 C 0.14519 0.26994 0.82273 0.0
loop_
_geom_bond_atom_site_label_1
_geom_bond_atom_site_label_2
_geom_bond_distance
_geom_bond_site_symmetry_2
_ccdc_geom_bond_type
C0 C1 1.391 . S
C0 C4 1.391 . S
C0 H42 0.948 . S
C1 C0 1.391 . S
C1 C2 1.391 . S
C2 C1 1.391 . S
C2 H58 0.947 . S
C2 C59 1.392 . S
C3 C4 1.391 . S
C3 C7 1.397 . S
C3 C59 1.419 . S
C4 C0 1.391 . S
C4 C3 1.391 . S
C4 C5 1.399 . S
C5 C4 1.399 . S
C5 C8 1.396 . S
C5 C17 1.453 . S
C5 C18 1.684 . S
H6 C30 0.948 . S
C7 C3 1.397 . S
C7 C8 1.394 . S
C7 C26 1.723 . S
C8 C5 1.396 . S
C8 C7 1.394 . S
C8 C38 1.723 . S
H9 C32 0.947 . S
H10 C33 0.948 . S
H11 C39 0.982 . S
H12 C40 0.979 . S
H13 C40 0.980 . S
H14 C40 0.983 . S
H15 C39 0.979 . S
H16 C39 0.977 . S
C17 C5 1.453 . S
C17 H46 0.982 . S
C17 H47 0.979 . S
C17 H48 0.977 . S
C18 C5 1.684 . S
C18 H43 0.979 . S
C18 H44 0.980 . S
C18 H45 0.983 . S
C19 C20 1.391 . S
C19 C24 1.391 . S
C19 H49 0.948 . S
C20 C19 1.391 . S
C20 C21 1.391 . S
C21 C20 1.391 . S
C21 C22 1.392 . S
C21 H50 0.947 . S
C22 C21 1.392 . S
C22 C23 1.419 . S
C22 H51 0.948 . S
C23 C22 1.419 . S
C23 C24 1.391 . S
C23 C27 1.397 . S
C24 C19 1.391 . S
C24 C23 1.391 . S
C24 C25 1.399 . S
C25 C24 1.399 . S
C25 C26 1.396 . S
C25 C28 1.453 . S
C25 C29 1.684 . S
C26 C7 1.723 . S
C26 C25 1.396 . S
C26 C27 1.394 . S
C27 C23 1.397 . S
C27 C26 1.394 . S
C27 C37 1.723 . S
C28 C25 1.453 . S
C28 H52 0.982 . S
C28 H53 0.979 . S
C28 H54 0.977 . S
C29 C25 1.684 . S
C29 H55 0.979 . S
C29 H56 0.980 . S
C29 H57 0.983 . S
C30 H6 0.948 . S
C30 C31 1.391 . S
C30 C35 1.391 . S
C31 C30 1.391 . S
C31 C32 1.391 . S
C32 H9 0.947 . S
C32 C31 1.391 . S
C32 C33 1.392 . S
C33 H10 0.948 . S
C33 C32 1.392 . S
C33 C34 1.419 . S
C34 C33 1.419 . S
C34 C35 1.391 . S
C34 C38 1.397 . S
C35 C30 1.391 . S
C35 C34 1.391 . S
C35 C36 1.399 . S
C36 C35 1.399 . S
C36 C37 1.396 . S
C36 C39 1.453 . S
C36 C40 1.684 . S
C37 C27 1.723 . S
C37 C36 1.396 . S
C37 C38 1.394 . S
C38 C8 1.723 . S
C38 C34 1.397 . S
C38 C37 1.394 . S
C39 H11 0.982 . S
C39 H15 0.979 . S
C39 H16 0.977 . S
C39 C36 1.453 . S
C40 H12 0.979 . S
C40 H13 0.980 . S
C40 H14 0.983 . S
C40 C36 1.684 . S
H41 C59 0.948 . S
H42 C0 0.948 . S
H43 C18 0.979 . S
H44 C18 0.980 . S
H45 C18 0.983 . S
H46 C17 0.982 . S
H47 C17 0.979 . S
H48 C17 0.977 . S
H49 C19 0.948 . S
H50 C21 0.947 . S
H51 C22 0.948 . S
H52 C28 0.982 . S
H53 C28 0.979 . S
H54 C28 0.977 . S
H55 C29 0.979 . S
H56 C29 0.980 . S
H57 C29 0.983 . S
H58 C2 0.947 . S
C59 C2 1.392 . S
C59 C3 1.419 . S
C59 H41 0.948 . S
C60 C61 1.391 . S
C60 C64 1.391 . S
C60 H102 0.948 . S
C61 C60 1.391 . S
C61 C62 1.391 . S
C62 C61 1.391 . S
C62 H118 0.947 . S
C62 C119 1.392 . S
C63 C64 1.391 . S
C63 C67 1.397 . S
C63 C119 1.419 . S
C64 C60 1.391 . S
C64 C63 1.391 . S
C64 C65 1.399 . S
C65 C64 1.399 . S
C65 C68 1.396 . S
C65 C77 1.453 . S
C65 C78 1.684 . S
H66 C90 0.948 . S
C67 C63 1.397 . S
C67 C68 1.394 . S
C67 C86 1.723 . S
C68 C65 1.396 . S
C68 C67 1.394 . S
C68 C98 1.723 . S
H69 C92 0.947 . S
H70 C93 0.948 . S
H71 C99 0.982 . S
H72 C100 0.979 . S
H73 C100 0.980 . S
H74 C100 0.983 1_655 S
H75 C99 0.979 1_655 S
H76 C99 0.977 . S
C77 C65 1.453 . S
C77 H106 0.982 . S
C77 H107 0.979 . S
C77 H108 0.977 . S
C78 C65 1.684 . S
C78 H103 0.979 . S
C78 H104 0.980 . S
C78 H105 0.983 . S
C79 C80 1.391 . S
C79 C84 1.391 . S
C79 H109 0.948 . S
C80 C79 1.391 . S
C80 C81 1.391 . S
C81 C80 1.391 . S
C81 C82 1.392 . S
C81 H110 0.947 . S
C82 C81 1.392 . S
C82 C83 1.419 . S
C82 H111 0.948 . S
C83 C82 1.419 . S
C83 C84 1.391 . S
C83 C87 1.397 . S
C84 C79 1.391 . S
C84 C83 1.391 . S
C84 C85 1.399 . S
C85 C84 1.399 . S
C85 C86 1.396 . S
C85 C88 1.453 . S
C85 C89 1.684 . S
C86 C67 1.723 . S
C86 C85 1.396 . S
C86 C87 1.394 . S
C87 C83 1.397 . S
C87 C86 1.394 . S
C87 C97 1.723 . S
C88 C85 1.453 . S
C88 H112 0.982 . S
C88 H113 0.979 . S
C88 H114 0.977 . S
C89 C85 1.684 . S
C89 H115 0.979 . S
C89 H116 0.980 . S
C89 H117 0.983 . S
C90 H66 0.948 . S
C90 C91 1.391 . S
C90 C95 1.391 1_655 S
C91 C90 1.391 . S
C91 C92 1.391 1_655 S
C92 H69 0.947 . S
C92 C91 1.391 1_455 S
C92 C93 1.392 . S
C93 H70 0.948 . S
C93 C92 1.392 . S
C93 C94 1.419 . S
C94 C93 1.419 . S
C94 C95 1.391 . S
C94 C98 1.397 . S
C95 C90 1.391 1_455 S
C95 C94 1.391 . S
C95 C96 1.399 . S
C96 C95 1.399 . S
C96 C97 1.396 . S
C96 C99 1.453 . S
C96 C100 1.684 . S
C97 C87 1.723 . S
C97 C96 1.396 . S
C97 C98 1.394 . S
C98 C68 1.723 . S
C98 C94 1.397 . S
C98 C97 1.394 . S
C99 H71 0.982 . S
C99 H75 0.979 1_455 S
C99 H76 0.977 . S
C99 C96 1.453 . S
C100 H72 0.979 . S
C100 H73 0.980 . S
C100 H74 0.983 1_455 S
C100 C96 1.684 . S
H101 C119 0.948 . S
H102 C60 0.948 . S
H103 C78 0.979 . S
H104 C78 0.980 . S
H105 C78 0.983 . S
H106 C77 0.982 . S
H107 C77 0.979 . S
H108 C77 0.977 . S
H109 C79 0.948 . S
H110 C81 0.947 . S
H111 C82 0.948 . S
H112 C88 0.982 . S
H113 C88 0.979 . S
H114 C88 0.977 . S
H115 C89 0.979 . S
H116 C89 0.980 . S
H117 C89 0.983 . S
H118 C62 0.947 . S
C119 C62 1.392 . S
C119 C63 1.419 . S
C119 H101 0.948 . S
C120 C121 1.391 . S
C120 C124 1.391 . S
C120 H162 0.948 . S
C121 C120 1.391 . S
C121 C122 1.391 . S
C122 C121 1.391 . S
C122 H178 0.947 . S
C122 C179 1.392 . S
C123 C124 1.391 . S
C123 C127 1.397 . S
C123 C179 1.419 . S
C124 C120 1.391 . S
C124 C123 1.391 . S
C124 C125 1.399 . S
C125 C124 1.399 . S
C125 C128 1.396 . S
C125 C137 1.453 . S
C125 C138 1.684 . S
H126 C150 0.948 . S
C127 C123 1.397 . S
C127 C128 1.394 . S
C127 C146 1.723 . S
C128 C125 1.396 . S
C128 C127 1.394 . S
C128 C158 1.723 . S
H129 C152 0.947 . S
H130 C153 0.948 . S
H131 C159 0.982 . S
H132 C160 0.979 . S
H133 C160 0.980 . S
H134 C160 0.983 . S
H135 C159 0.979 . S
H136 C159 0.977 . S
C137 C125 1.453 . S
C137 H166 0.982 . S
C137 H167 0.979 . S
C137 H168 0.977 . S
C138 C125 1.684 . S
C138 H163 0.979 . S
C138 H164 0.980 . S
C138 H165 0.983 . S
C139 C140 1.391 . S
C139 C144 1.391 . S
C139 H169 0.948 . S
C140 C139 1.391 . S
C140 C141 1.391 . S
C141 C140 1.391 . S
C141 C142 1.392 . S
C141 H170 0.947 . S
C142 C141 1.392 . S
C142 C143 1.419 . S
C142 H171 0.948 . S
C143 C142 1.419 . S
C143 C144 1.391 . S
C143 C147 1.397 . S
C144 C139 1.391 . S
C144 C143 1.391 . S
C144 C145 1.399 . S
C145 C144 1.399 . S
C145 C146 1.396 . S
C145 C148 1.453 . S
C145 C149 1.684 . S
C146 C127 1.723 . S
C146 C145 1.396 . S
C146 C147 1.394 . S
C147 C143 1.397 . S
C147 C146 1.394 . S
C147 C157 1.723 . S
C148 C145 1.453 . S
C148 H172 0.982 . S
C148 H173 0.979 . S
C148 H174 0.977 . S
C149 C145 1.684 . S
C149 H175 0.979 . S
C149 H176 0.980 . S
C149 H177 0.983 . S
C150 H126 0.948 . S
C150 C151 1.391 . S
C150 C155 1.391 . S
C151 C150 1.391 . S
C151 C152 1.391 . S
C152 H129 0.947 . S
C152 C151 1.391 . S
C152 C153 1.392 . S
C153 H130 0.948 . S
C153 C152 1.392 . S
C153 C154 1.419 . S
C154 C153 1.419 . S
C154 C155 1.391 . S
C154 C158 1.397 . S
C155 C150 1.391 . S
C155 C154 1.391 . S
C155 C156 1.399 . S
C156 C155 1.399 . S
C156 C157 1.396 . S
C156 C159 1.453 . S
C156 C160 1.684 . S
C157 C147 1.723 . S
C157 C156 1.396 . S
C157 C158 1.394 . S
C158 C128 1.723 . S
C158 C154 1.397 . S
C158 C157 1.394 . S
C159 H131 0.982 . S
C159 H135 0.979 . S
C159 H136 0.977 . S
C159 C156 1.453 . S
C160 H132 0.979 . S
C160 H133 0.980 . S
C160 H134 0.983 . S
C160 C156 1.684 . S
H161 C179 0.948 . S
H162 C120 0.948 . S
H163 C138 0.979 . S
H164 C138 0.980 . S
H165 C138 0.983 . S
H166 C137 0.982 . S
H167 C137 0.979 . S
H168 C137 0.977 . S
H169 C139 0.948 . S
H170 C141 0.947 . S
H171 C142 0.948 . S
H172 C148 0.982 . S
H173 C148 0.979 . S
H174 C148 0.977 . S
H175 C149 0.979 . S
H176 C149 0.980 . S
H177 C149 0.983 . S
H178 C122 0.947 . S
C179 C122 1.392 . S
C179 C123 1.419 . S
C179 H161 0.948 . S
C180 C181 1.391 . S
C180 C184 1.391 . S
C180 H222 0.948 . S
C181 C180 1.391 . S
C181 C182 1.391 . S
C182 C181 1.391 . S
C182 H238 0.947 . S
C182 C239 1.392 . S
C183 C184 1.391 . S
C183 C187 1.397 . S
C183 C239 1.419 . S
C184 C180 1.391 . S
C184 C183 1.391 . S
C184 C185 1.399 . S
C185 C184 1.399 . S
C185 C188 1.396 . S
C185 C197 1.453 . S
C185 C198 1.684 . S
H186 C210 0.948 . S
C187 C183 1.397 . S
C187 C188 1.394 . S
C187 C206 1.723 . S
C188 C185 1.396 . S
C188 C187 1.394 . S
C188 C218 1.723 . S
H189 C212 0.947 . S
H190 C213 0.948 . S
H191 C219 0.982 . S
H192 C220 0.979 . S
H193 C220 0.980 . S
H194 C220 0.983 . S
H195 C219 0.979 . S
H196 C219 0.977 . S
C197 C185 1.453 . S
C197 H226 0.982 . S
C197 H227 0.979 . S
C197 H228 0.977 . S
C198 C185 1.684 . S
C198 H223 0.979 . S
C198 H224 0.980 . S
C198 H225 0.983 . S
C199 C200 1.391 . S
C199 C204 1.391 . S
C199 H229 0.948 . S
C200 C199 1.391 . S
C200 C201 1.391 . S
C201 C200 1.391 . S
C201 C202 1.392 . S
C201 H230 0.947 . S
C202 C201 1.392 . S
C202 C203 1.419 . S
C202 H231 0.948 . S
C203 C202 1.419 . S
C203 C204 1.391 . S
C203 C207 1.397 . S
C204 C199 1.391 . S
C204 C203 1.391 . S
C204 C205 1.399 . S
C205 C204 1.399 . S
C205 C206 1.396 . S
C205 C208 1.453 . S
C205 C209 1.684 . S
C206 C187 1.723 . S
C206 C205 1.396 . S
C206 C207 1.394 . S
C207 C203 1.397 . S
C207 C206 1.394 . S
C207 C217 1.723 . S
C208 C205 1.453 . S
C208 H232 0.982 . S
C208 H233 0.979 . S
C208 H234 0.977 . S
C209 C205 1.684 . S
C209 H235 0.979 . S
C209 H236 0.980 . S
C209 H237 0.983 . S
C210 H186 0.948 . S
C210 C211 1.391 . S
C210 C215 1.391 . S
C211 C210 1.391 . S
C211 C212 1.391 . S
C212 H189 0.947 . S
C212 C211 1.391 . S
C212 C213 1.392 . S
C213 H190 0.948 . S
C213 C212 1.392 . S
C213 C214 1.419 . S
C214 C213 1.419 . S
C214 C215 1.391 . S
C214 C218 1.397 . S
C215 C210 1.391 . S
C215 C214 1.391 . S
C215 C216 1.399 . S
C216 C215 1.399 . S
C216 C217 1.396 . S
C216 C219 1.453 . S
C216 C220 1.684 . S
C217 C207 1.723 . S
C217 C216 1.396 . S
C217 C218 1.394 . S
C218 C188 1.723 . S
C218 C214 1.397 . S
C218 C217 1.394 . S
C219 H191 0.982 . S
C219 H195 0.979 . S
C219 H196 0.977 . S
C219 C216 1.453 . S
C220 H192 0.979 . S
C220 H193 0.980 . S
C220 H194 0.983 . S
C220 C216 1.684 . S
H221 C239 0.948 . S
H222 C180 0.948 . S
H223 C198 0.979 . S
H224 C198 0.980 . S
H225 C198 0.983 . S
H226 C197 0.982 . S
H227 C197 0.979 . S
H228 C197 0.977 . S
H229 C199 0.948 . S
H230 C201 0.947 . S
H231 C202 0.948 . S
H232 C208 0.982 . S
H233 C208 0.979 . S
H234 C208 0.977 . S
H235 C209 0.979 . S
H236 C209 0.980 . S
H237 C209 0.983 . S
H238 C182 0.947 . S
C239 C182 1.392 . S
C239 C183 1.419 . S
C239 H221 0.948 . S
C240 C241 1.391 . S
C240 C244 1.391 . S
C240 H282 0.948 . S
C241 C240 1.391 . S
C241 C242 1.391 . S
C242 C241 1.391 . S
C242 H298 0.947 . S
C242 C299 1.392 . S
C243 C244 1.391 . S
C243 C247 1.397 . S
C243 C299 1.419 . S
C244 C240 1.391 . S
C244 C243 1.391 . S
C244 C245 1.399 . S
C245 C244 1.399 . S
C245 C248 1.396 . S
C245 C257 1.453 . S
C245 C258 1.684 . S
H246 C270 0.948 . S
C247 C243 1.397 . S
C247 C248 1.394 . S
C247 C266 1.723 . S
C248 C245 1.396 . S
C248 C247 1.394 . S
C248 C278 1.723 . S
H249 C272 0.947 . S
H250 C273 0.948 . S
H251 C279 0.982 . S
H252 C280 0.979 1_655 S
H253 C280 0.980 . S
H254 C280 0.983 . S
H255 C279 0.979 . S
H256 C279 0.977 . S
C257 C245 1.453 . S
C257 H286 0.982 . S
C257 H287 0.979 . S
C257 H288 0.977 . S
C258 C245 1.684 . S
C258 H283 0.979 1_455 S
C258 H284 0.980 . S
C258 H285 0.983 . S
C259 C260 1.391 . S
C259 C264 1.391 . S
C259 H289 0.948 . S
C260 C259 1.391 . S
C260 C261 1.391 . S
C261 C260 1.391 . S
C261 C262 1.392 . S
C261 H290 0.947 . S
C262 C261 1.392 . S
C262 C263 1.419 . S
C262 H291 0.948 . S
C263 C262 1.419 . S
C263 C264 1.391 . S
C263 C267 1.397 . S
C264 C259 1.391 . S
C264 C263 1.391 . S
C264 C265 1.399 . S
C265 C264 1.399 . S
C265 C266 1.396 . S
C265 C268 1.453 . S
C265 C269 1.684 . S
C266 C247 1.723 . S
C266 C265 1.396 . S
C266 C267 1.394 . S
C267 C263 1.397 . S
C267 C266 1.394 . S
C267 C277 1.723 . S
C268 C265 1.453 . S
C268 H292 0.982 . S
C268 H293 0.979 . S
C268 H294 0.977 . S
C269 C265 1.684 . S
C269 H295 0.979 1_455 S
C269 H296 0.980 . S
C269 H297 0.983 . S
C270 H246 0.948 . S
C270 C271 1.391 . S
C270 C275 1.391 . S
C271 C270 1.391 . S
C271 C272 1.391 . S
C272 H249 0.947 . S
C272 C271 1.391 . S
C272 C273 1.392 . S
C273 H250 0.948 . S
C273 C272 1.392 . S
C273 C274 1.419 . S
C274 C273 1.419 . S
C274 C275 1.391 . S
C274 C278 1.397 . S
C275 C270 1.391 . S
C275 C274 1.391 . S
C275 C276 1.399 . S
C276 C275 1.399 . S
C276 C277 1.396 . S
C276 C279 1.453 . S
C276 C280 1.684 . S
C277 C267 1.723 . S
C277 C276 1.396 . S
C277 C278 1.394 . S
C278 C248 1.723 . S
C278 C274 1.397 . S
C278 C277 1.394 . S
C279 H251 0.982 . S
C279 H255 0.979 . S
C279 H256 0.977 . S
C279 C276 1.453 . S
C280 H252 0.979 1_455 S
C280 H253 0.980 . S
C280 H254 0.983 . S
C280 C276 1.684 . S
H281 C299 0.948 . S
H282 C240 0.948 . S
H283 C258 0.979 1_655 S
H284 C258 0.980 . S
H285 C258 0.983 . S
H286 C257 0.982 . S
H287 C257 0.979 . S
H288 C257 0.977 . S
H289 C259 0.948 . S
H290 C261 0.947 . S
H291 C262 0.948 . S
H292 C268 0.982 . S
H293 C268 0.979 . S
H294 C268 0.977 . S
H295 C269 0.979 1_655 S
H296 C269 0.980 . S
H297 C269 0.983 . S
H298 C242 0.947 . S
C299 C242 1.392 . S
C299 C243 1.419 . S
C299 H281 0.948 . S
C300 C301 1.391 . S
C300 C304 1.391 . S
C300 H342 0.948 . S
C301 C300 1.391 . S
C301 C302 1.391 . S
C302 C301 1.391 . S
C302 H358 0.947 . S
C302 C359 1.392 . S
C303 C304 1.391 . S
C303 C307 1.397 . S
C303 C359 1.419 . S
C304 C300 1.391 . S
C304 C303 1.391 . S
C304 C305 1.399 . S
C305 C304 1.399 . S
C305 C308 1.396 . S
C305 C317 1.453 . S
C305 C318 1.684 . S
H306 C330 0.948 . S
C307 C303 1.397 . S
C307 C308 1.394 . S
C307 C326 1.723 . S
C308 C305 1.396 . S
C308 C307 1.394 . S
C308 C338 1.723 . S
H309 C332 0.947 . S
H310 C333 0.948 . S
H311 C339 0.982 . S
H312 C340 0.979 . S
H313 C340 0.980 . S
H314 C340 0.983 . S
H315 C339 0.979 . S
H316 C339 0.977 . S
C317 C305 1.453 . S
C317 H346 0.982 . S
C317 H347 0.979 . S
C317 H348 0.977 . S
C318 C305 1.684 . S
C318 H343 0.979 . S
C318 H344 0.980 . S
C318 H345 0.983 . S
C319 C320 1.391 . S
C319 C324 1.391 . S
C319 H349 0.948 . S
C320 C319 1.391 . S
C320 C321 1.391 . S
C321 C320 1.391 . S
C321 C322 1.392 . S
C321 H350 0.947 . S
C322 C321 1.392 . S
C322 C323 1.419 . S
C322 H351 0.948 . S
C323 C322 1.419 . S
C323 C324 1.391 . S
C323 C327 1.397 . S
C324 C319 1.391 . S
C324 C323 1.391 . S
C324 C325 1.399 . S
C325 C324 1.399 . S
C325 C326 1.396 . S
C325 C328 1.453 . S
C325 C329 1.684 . S
C326 C307 1.723 . S
C326 C325 1.396 . S
C326 C327 1.394 . S
C327 C323 1.397 . S
C327 C326 1.394 . S
C327 C337 1.723 . S
C328 C325 1.453 . S
C328 H352 0.982 . S
C328 H353 0.979 . S
C328 H354 0.977 . S
C329 C325 1.684 . S
C329 H355 0.979 . S
C329 H356 0.980 . S
C329 H357 0.983 . S
C330 H306 0.948 . S
C330 C331 1.391 . S
C330 C335 1.391 . S
C331 C330 1.391 . S
C331 C332 1.391 . S
C332 H309 0.947 . S
C332 C331 1.391 . S
C332 C333 1.392 . S
C333 H310 0.948 . S
C333 C332 1.392 . S
C333 C334 1.419 . S
C334 C333 1.419 . S
C334 C335 1.391 . S
C334 C338 1.397 . S
C335 C330 1.391 . S
C335 C334 1.391 . S
C335 C336 1.399 . S
C336 C335 1.399 . S
C336 C337 1.396 . S
C336 C339 1.453 . S
C336 C340 1.684 . S
C337 C327 1.723 . S
C337 C336 1.396 . S
C337 C338 1.394 . S
C338 C308 1.723 . S
C338 C334 1.397 . S
C338 C337 1.394 . S
C339 H311 0.982 . S
C339 H315 0.979 . S
C339 H316 0.977 . S
C339 C336 1.453 . S
C340 H312 0.979 . S
C340 H313 0.980 . S
C340 H314 0.983 . S
C340 C336 1.684 . S
H341 C359 0.948 . S
H342 C300 0.948 . S
H343 C318 0.979 . S
H344 C318 0.980 . S
H345 C318 0.983 . S
H346 C317 0.982 . S
H347 C317 0.979 . S
H348 C317 0.977 . S
H349 C319 0.948 . S
H350 C321 0.947 . S
H351 C322 0.948 . S
H352 C328 0.982 . S
H353 C328 0.979 . S
H354 C328 0.977 . S
H355 C329 0.979 . S
H356 C329 0.980 . S
H357 C329 0.983 . S
H358 C302 0.947 . S
C359 C302 1.392 . S
C359 C303 1.419 . S
C359 H341 0.948 . S
C360 C361 1.391 . S
C360 C364 1.391 . S
C360 H402 0.948 . S
C361 C360 1.391 . S
C361 C362 1.391 . S
C362 C361 1.391 . S
C362 H418 0.947 . S
C362 C419 1.392 . S
C363 C364 1.391 . S
C363 C367 1.397 . S
C363 C419 1.419 . S
C364 C360 1.391 . S
C364 C363 1.391 . S
C364 C365 1.399 . S
C365 C364 1.399 . S
C365 C368 1.396 . S
C365 C377 1.453 . S
C365 C378 1.684 . S
H366 C390 0.948 . S
C367 C363 1.397 . S
C367 C368 1.394 . S
C367 C386 1.723 . S
C368 C365 1.396 . S
C368 C367 1.394 . S
C368 C398 1.723 . S
H369 C392 0.947 . S
H370 C393 0.948 . S
H371 C399 0.982 . S
H372 C400 0.979 . S
H373 C400 0.980 . S
H374 C400 0.983 . S
H375 C399 0.979 . S
H376 C399 0.977 . S
C377 C365 1.453 . S
C377 H406 0.982 . S
C377 H407 0.979 . S
C377 H408 0.977 . S
C378 C365 1.684 . S
C378 H403 0.979 . S
C378 H404 0.980 . S
C378 H405 0.983 . S
C379 C380 1.391 . S
C379 C384 1.391 . S
C379 H409 0.948 . S
C380 C379 1.391 . S
C380 C381 1.391 . S
C381 C380 1.391 . S
C381 C382 1.392 . S
C381 H410 0.947 . S
C382 C381 1.392 . S
C382 C383 1.419 . S
C382 H411 0.948 . S
C383 C382 1.419 . S
C383 C384 1.391 . S
C383 C387 1.397 . S
C384 C379 1.391 . S
C384 C383 1.391 . S
C384 C385 1.399 . S
C385 C384 1.399 . S
C385 C386 1.396 . S
C385 C388 1.453 . S
C385 C389 1.684 . S
C386 C367 1.723 . S
C386 C385 1.396 . S
C386 C387 1.394 . S
C387 C383 1.397 . S
C387 C386 1.394 . S
C387 C397 1.723 . S
C388 C385 1.453 . S
C388 H412 0.982 . S
C388 H413 0.979 . S
C388 H414 0.977 . S
C389 C385 1.684 . S
C389 H415 0.979 . S
C389 H416 0.980 . S
C389 H417 0.983 . S
C390 H366 0.948 . S
C390 C391 1.391 . S
C390 C395 1.391 . S
C391 C390 1.391 . S
C391 C392 1.391 . S
C392 H369 0.947 . S
C392 C391 1.391 . S
C392 C393 1.392 . S
C393 H370 0.948 . S
C393 C392 1.392 . S
C393 C394 1.419 . S
C394 C393 1.419 . S
C394 C395 1.391 . S
C394 C398 1.397 . S
C395 C390 1.391 . S
C395 C394 1.391 . S
C395 C396 1.399 . S
C396 C395 1.399 . S
C396 C397 1.396 . S
C396 C399 1.453 . S
C396 C400 1.684 . S
C397 C387 1.723 . S
C397 C396 1.396 . S
C397 C398 1.394 . S
C398 C368 1.723 . S
C398 C394 1.397 . S
C398 C397 1.394 . S
C399 H371 0.982 . S
C399 H375 0.979 . S
C399 H376 0.977 . S
C399 C396 1.453 . S
C400 H372 0.979 . S
C400 H373 0.980 . S
C400 H374 0.983 . S
C400 C396 1.684 . S
H401 C419 0.948 . S
H402 C360 0.948 . S
H403 C378 0.979 . S
H404 C378 0.980 . S
H405 C378 0.983 . S
H406 C377 0.982 . S
H407 C377 0.979 . S
H408 C377 0.977 . S
H409 C379 0.948 . S
H410 C381 0.947 . S
H411 C382 0.948 . S
H412 C388 0.982 . S
H413 C388 0.979 . S
H414 C388 0.977 . S
H415 C389 0.979 . S
H416 C389 0.980 . S
H417 C389 0.983 . S
H418 C362 0.947 . S
C419 C362 1.392 . S
C419 C363 1.419 . S
C419 H401 0.948 . S
C420 C421 1.391 . S
C420 C424 1.391 . S
C420 H462 0.948 . S
C421 C420 1.391 . S
C421 C422 1.391 . S
C422 C421 1.391 . S
C422 H478 0.947 . S
C422 C479 1.392 . S
C423 C424 1.391 . S
C423 C427 1.397 . S
C423 C479 1.419 . S
C424 C420 1.391 . S
C424 C423 1.391 . S
C424 C425 1.399 . S
C425 C424 1.399 . S
C425 C428 1.396 . S
C425 C437 1.453 . S
C425 C438 1.684 . S
H426 C450 0.948 1_655 S
C427 C423 1.397 . S
C427 C428 1.394 . S
C427 C446 1.723 . S
C428 C425 1.396 . S
C428 C427 1.394 . S
C428 C458 1.723 . S
H429 C452 0.947 . S
H430 C453 0.948 . S
H431 C459 0.982 . S
H432 C460 0.979 . S
H433 C460 0.980 . S
H434 C460 0.983 . S
H435 C459 0.979 . S
H436 C459 0.977 . S
C437 C425 1.453 . S
C437 H466 0.982 . S
C437 H467 0.979 . S
C437 H468 0.977 . S
C438 C425 1.684 . S
C438 H463 0.979 . S
C438 H464 0.980 . S
C438 H465 0.983 . S
C439 C440 1.391 . S
C439 C444 1.391 . S
C439 H469 0.948 . S
C440 C439 1.391 . S
C440 C441 1.391 . S
C441 C440 1.391 . S
C441 C442 1.392 . S
C441 H470 0.947 . S
C442 C441 1.392 . S
C442 C443 1.419 . S
C442 H471 0.948 . S
C443 C442 1.419 . S
C443 C444 1.391 . S
C443 C447 1.397 . S
C444 C439 1.391 . S
C444 C443 1.391 . S
C444 C445 1.399 . S
C445 C444 1.399 . S
C445 C446 1.396 . S
C445 C448 1.453 . S
C445 C449 1.684 . S
C446 C427 1.723 . S
C446 C445 1.396 . S
C446 C447 1.394 . S
C447 C443 1.397 . S
C447 C446 1.394 . S
C447 C457 1.723 . S
C448 C445 1.453 . S
C448 H472 0.982 . S
C448 H473 0.979 . S
C448 H474 0.977 . S
C449 C445 1.684 . S
C449 H475 0.979 . S
C449 H476 0.980 . S
C449 H477 0.983 . S
C450 H426 0.948 1_455 S
C450 C451 1.391 1_455 S
C450 C455 1.391 . S
C451 C450 1.391 1_655 S
C451 C452 1.391 1_655 S
C452 H429 0.947 . S
C452 C451 1.391 1_455 S
C452 C453 1.392 . S
C453 H430 0.948 . S
C453 C452 1.392 . S
C453 C454 1.419 . S
C454 C453 1.419 . S
C454 C455 1.391 . S
C454 C458 1.397 . S
C455 C450 1.391 . S
C455 C454 1.391 . S
C455 C456 1.399 . S
C456 C455 1.399 . S
C456 C457 1.396 . S
C456 C459 1.453 . S
C456 C460 1.684 . S
C457 C447 1.723 . S
C457 C456 1.396 . S
C457 C458 1.394 . S
C458 C428 1.723 . S
C458 C454 1.397 . S
C458 C457 1.394 . S
C459 H431 0.982 . S
C459 H435 0.979 . S
C459 H436 0.977 . S
C459 C456 1.453 . S
C460 H432 0.979 . S
C460 H433 0.980 . S
C460 H434 0.983 . S
C460 C456 1.684 . S
H461 C479 0.948 . S
H462 C420 0.948 . S
H463 C438 0.979 . S
H464 C438 0.980 . S
H465 C438 0.983 . S
H466 C437 0.982 . S
H467 C437 0.979 . S
H468 C437 0.977 . S
H469 C439 0.948 . S
H470 C441 0.947 . S
H471 C442 0.948 . S
H472 C448 0.982 . S
H473 C448 0.979 . S
H474 C448 0.977 . S
H475 C449 0.979 . S
H476 C449 0.980 . S
H477 C449 0.983 . S
H478 C422 0.947 . S
C479 C422 1.392 . S
C479 C423 1.419 . S
C479 H461 0.948 . S
Zn480 O486 1.920 . S
Zn480 O492 1.898 . S
Zn480 O495 1.905 . S
Zn481 O489 1.905 . S
Zn481 O490 1.898 . S
Zn481 O498 1.920 . S
Zn482 O485 2.080 . S
Zn482 O488 2.114 . S
Zn482 O491 2.120 . S
Zn482 O493 2.120 . S
Zn482 O494 2.114 . S
Zn482 O497 2.080 . S
C483 O488 1.166 . S
C483 O489 1.182 . S
C484 O490 1.167 . S
C484 O491 1.299 . S
O485 Zn482 2.080 . S
O485 C499 1.305 . S
O486 Zn480 1.920 . S
O486 C499 1.234 . S
C487 O492 1.167 . S
C487 O493 1.299 . S
O488 Zn482 2.114 . S
O488 C483 1.166 . S
O489 Zn481 1.905 . S
O489 C483 1.182 . S
O490 Zn481 1.898 . S
O490 C484 1.167 . S
O491 Zn482 2.120 . S
O491 C484 1.299 . S
O492 Zn480 1.898 . S
O492 C487 1.167 . S
O493 Zn482 2.120 . S
O493 C487 1.299 . S
O494 Zn482 2.114 . S
O494 C496 1.166 . S
O495 Zn480 1.905 . S
O495 C496 1.182 . S
C496 O494 1.166 . S
C496 O495 1.182 . S
O497 Zn482 2.080 . S
O497 C500 1.305 . S
O498 Zn481 1.920 . S
O498 C500 1.234 . S
C499 O485 1.305 . S
C499 O486 1.234 . S
C500 O497 1.305 . S
C500 O498 1.234 . S
Zn501 O507 1.920 . S
Zn501 O513 1.898 . S
Zn501 O516 1.905 . S
Zn502 O510 1.905 . S
Zn502 O511 1.898 . S
Zn502 O519 1.920 . S
Zn503 O506 2.080 . S
Zn503 O509 2.114 . S
Zn503 O512 2.120 . S
Zn503 O514 2.120 . S
Zn503 O515 2.114 . S
Zn503 O518 2.080 . S
C504 O509 1.166 . S
C504 O510 1.182 . S
C505 O511 1.167 . S
C505 O512 1.299 . S
O506 Zn503 2.080 . S
O506 C520 1.305 . S
O507 Zn501 1.920 . S
O507 C520 1.234 . S
C508 O513 1.167 . S
C508 O514 1.299 . S
O509 Zn503 2.114 . S
O509 C504 1.166 . S
O510 Zn502 1.905 . S
O510 C504 1.182 . S
O511 Zn502 1.898 . S
O511 C505 1.167 . S
O512 Zn503 2.120 . S
O512 C505 1.299 . S
O513 Zn501 1.898 . S
O513 C508 1.167 . S
O514 Zn503 2.120 . S
O514 C508 1.299 . S
O515 Zn503 2.114 . S
O515 C517 1.166 . S
O516 Zn501 1.905 . S
O516 C517 1.182 . S
C517 O515 1.166 . S
C517 O516 1.182 . S
O518 Zn503 2.080 . S
O518 C521 1.305 . S
O519 Zn502 1.920 . S
O519 C521 1.234 . S
C520 O506 1.305 . S
C520 O507 1.234 . S
C521 O518 1.305 . S
C521 O519 1.234 . S
Zn522 O528 1.920 . S
Zn522 O534 1.898 . S
Zn522 O537 1.905 . S
Zn523 O531 1.905 . S
Zn523 O532 1.898 . S
Zn523 O540 1.920 . S
Zn524 O527 2.080 . S
Zn524 O530 2.114 . S
Zn524 O533 2.120 . S
Zn524 O535 2.120 . S
Zn524 O536 2.114 . S
Zn524 O539 2.080 . S
C525 O530 1.166 . S
C525 O531 1.182 . S
C526 O532 1.167 . S
C526 O533 1.299 . S
O527 Zn524 2.080 . S
O527 C541 1.305 . S
O528 Zn522 1.920 . S
O528 C541 1.234 . S
C529 O534 1.167 . S
C529 O535 1.299 . S
O530 Zn524 2.114 . S
O530 C525 1.166 . S
O531 Zn523 1.905 . S
O531 C525 1.182 . S
O532 Zn523 1.898 . S
O532 C526 1.167 . S
O533 Zn524 2.120 . S
O533 C526 1.299 . S
O534 Zn522 1.898 . S
O534 C529 1.167 . S
O535 Zn524 2.120 . S
O535 C529 1.299 . S
O536 Zn524 2.114 . S
O536 C538 1.166 . S
O537 Zn522 1.905 . S
O537 C538 1.182 . S
C538 O536 1.166 . S
C538 O537 1.182 . S
O539 Zn524 2.080 . S
O539 C542 1.305 . S
O540 Zn523 1.920 . S
O540 C542 1.234 . S
C541 O527 1.305 . S
C541 O528 1.234 . S
C542 O539 1.305 . S
C542 O540 1.234 . S
Zn543 O549 1.920 . S
Zn543 O555 1.898 . S
Zn543 O558 1.905 . S
Zn544 O552 1.905 . S
Zn544 O553 1.898 . S
Zn544 O561 1.920 . S
Zn545 O548 2.080 . S
Zn545 O551 2.114 . S
Zn545 O554 2.120 . S
Zn545 O556 2.120 . S
Zn545 O557 2.114 . S
Zn545 O560 2.080 . S
C546 O551 1.166 . S
C546 O552 1.182 . S
C547 O553 1.167 . S
C547 O554 1.299 . S
O548 Zn545 2.080 . S
O548 C562 1.305 . S
O549 Zn543 1.920 . S
O549 C562 1.234 . S
C550 O555 1.167 . S
C550 O556 1.299 . S
O551 Zn545 2.114 . S
O551 C546 1.166 . S
O552 Zn544 1.905 . S
O552 C546 1.182 . S
O553 Zn544 1.898 . S
O553 C547 1.167 . S
O554 Zn545 2.120 . S
O554 C547 1.299 . S
O555 Zn543 1.898 . S
O555 C550 1.167 . S
O556 Zn545 2.120 . S
O556 C550 1.299 . S
O557 Zn545 2.114 . S
O557 C559 1.166 . S
O558 Zn543 1.905 . S
O558 C559 1.182 . S
C559 O557 1.166 . S
C559 O558 1.182 . S
O560 Zn545 2.080 . S
O560 C563 1.305 . S
O561 Zn544 1.920 . S
O561 C563 1.234 . S
C562 O548 1.305 . S
C562 O549 1.234 . S
C563 O560 1.305 . S
C563 O561 1.234 . S
H564 C576 0.930 . S
H565 C578 0.930 . S
H566 C579 0.930 . S
H567 C583 0.959 . S
H568 C583 0.959 . S
H569 C583 0.961 . S
H570 C584 0.960 . S
H571 C584 0.961 . S
H572 C584 0.959 . S
H573 C587 0.929 . S
H574 C588 0.931 . S
H575 C590 0.930 . S
C576 H564 0.930 . S
C576 C577 1.399 . S
C576 C581 1.399 . S
C577 C576 1.399 . S
C577 C578 1.376 . S
C578 H565 0.930 . S
C578 C577 1.376 . S
C578 C579 1.388 . S
C579 H566 0.930 . S
C579 C578 1.388 . S
C579 C580 1.390 . S
C580 C579 1.390 . S
C580 C581 1.394 . S
C580 C586 1.465 . S
C581 C576 1.399 . S
C581 C580 1.394 . S
C581 C582 1.516 . S
C582 C581 1.516 . S
C582 C583 1.502 . S
C582 C584 1.561 . S
C582 C585 1.526 . S
C583 H567 0.959 . S
C583 H568 0.959 . S
C583 H569 0.961 . S
C583 C582 1.502 . S
C584 H570 0.960 . S
C584 H571 0.961 . S
C584 H572 0.959 . S
C584 C582 1.561 . S
C585 C582 1.526 . S
C585 C586 1.396 . S
C585 C590 1.390 . S
C586 C580 1.465 . S
C586 C585 1.396 . S
C586 C587 1.399 . S
C587 H573 0.929 . S
C587 C586 1.399 . S
C587 C588 1.385 . S
C588 H574 0.931 . S
C588 C587 1.385 . S
C588 C589 1.389 . S
C589 C588 1.389 . S
C589 C590 1.387 . S
C590 H575 0.930 . S
C590 C585 1.390 . S
C590 C589 1.387 . S
H591 C603 0.930 . S
H592 C605 0.930 . S
H593 C606 0.930 . S
H594 C610 0.959 . S
H595 C610 0.959 . S
H596 C610 0.961 . S
H597 C611 0.960 . S
H598 C611 0.961 . S
H599 C611 0.959 . S
H600 C614 0.929 . S
H601 C615 0.931 . S
H602 C617 0.930 . S
C603 H591 0.930 . S
C603 C604 1.399 . S
C603 C608 1.399 . S
C604 C603 1.399 . S
C604 C605 1.376 . S
C605 H592 0.930 . S
C605 C604 1.376 . S
C605 C606 1.388 . S
C606 H593 0.930 . S
C606 C605 1.388 . S
C606 C607 1.390 . S
C607 C606 1.390 . S
C607 C608 1.394 . S
C607 C613 1.465 . S
C608 C603 1.399 . S
C608 C607 1.394 . S
C608 C609 1.516 . S
C609 C608 1.516 . S
C609 C610 1.502 . S
C609 C611 1.561 . S
C609 C612 1.526 . S
C610 H594 0.959 . S
C610 H595 0.959 . S
C610 H596 0.961 . S
C610 C609 1.502 . S
C611 H597 0.960 . S
C611 H598 0.961 . S
C611 H599 0.959 . S
C611 C609 1.561 . S
C612 C609 1.526 . S
C612 C613 1.396 . S
C612 C617 1.390 . S
C613 C607 1.465 . S
C613 C612 1.396 . S
C613 C614 1.399 . S
C614 H600 0.929 . S
C614 C613 1.399 . S
C614 C615 1.385 . S
C615 H601 0.931 . S
C615 C614 1.385 . S
C615 C616 1.389 . S
C616 C615 1.389 . S
C616 C617 1.387 . S
C617 H602 0.930 . S
C617 C612 1.390 . S
C617 C616 1.387 . S
H618 C630 0.930 . S
H619 C632 0.930 . S
H620 C633 0.930 . S
H621 C637 0.959 . S
H622 C637 0.959 . S
H623 C637 0.961 . S
H624 C638 0.960 . S
H625 C638 0.961 . S
H626 C638 0.959 . S
H627 C641 0.929 . S
H628 C642 0.931 . S
H629 C644 0.930 . S
C630 H618 0.930 . S
C630 C631 1.399 . S
C630 C635 1.399 . S
C631 C630 1.399 . S
C631 C632 1.376 . S
C632 H619 0.930 . S
C632 C631 1.376 . S
C632 C633 1.388 . S
C633 H620 0.930 . S
C633 C632 1.388 . S
C633 C634 1.390 . S
C634 C633 1.390 . S
C634 C635 1.394 . S
C634 C640 1.465 . S
C635 C630 1.399 . S
C635 C634 1.394 . S
C635 C636 1.516 . S
C636 C635 1.516 . S
C636 C637 1.502 . S
C636 C638 1.561 . S
C636 C639 1.526 . S
C637 H621 0.959 . S
C637 H622 0.959 . S
C637 H623 0.961 . S
C637 C636 1.502 . S
C638 H624 0.960 . S
C638 H625 0.961 . S
C638 H626 0.959 . S
C638 C636 1.561 . S
C639 C636 1.526 . S
C639 C640 1.396 . S
C639 C644 1.390 . S
C640 C634 1.465 . S
C640 C639 1.396 . S
C640 C641 1.399 . S
C641 H627 0.929 . S
C641 C640 1.399 . S
C641 C642 1.385 . S
C642 H628 0.931 . S
C642 C641 1.385 . S
C642 C643 1.389 . S
C643 C642 1.389 . S
C643 C644 1.387 . S
C644 H629 0.930 . S
C644 C639 1.390 . S
C644 C643 1.387 . S
H645 C657 0.930 . S
H646 C659 0.930 . S
H647 C660 0.930 . S
H648 C664 0.959 . S
H649 C664 0.959 . S
H650 C664 0.961 . S
H651 C665 0.960 . S
H652 C665 0.961 . S
H653 C665 0.959 . S
H654 C668 0.929 . S
H655 C669 0.915 1_455 S
H656 C671 0.930 . S
C657 H645 0.930 . S
C657 C658 1.399 . S
C657 C662 1.399 . S
C658 C657 1.399 . S
C658 C659 1.376 . S
C659 H646 0.930 . S
C659 C658 1.376 . S
C659 C660 1.388 . S
C660 H647 0.930 . S
C660 C659 1.388 . S
C660 C661 1.390 . S
C661 C660 1.390 . S
C661 C662 1.394 . S
C661 C667 1.465 . S
C662 C657 1.399 . S
C662 C661 1.394 . S
C662 C663 1.516 . S
C663 C662 1.516 . S
C663 C664 1.502 . S
C663 C665 1.561 . S
C663 C666 1.526 . S
C664 H648 0.959 . S
C664 H649 0.959 . S
C664 H650 0.961 . S
C664 C663 1.502 . S
C665 H651 0.960 . S
C665 H652 0.961 . S
C665 H653 0.959 . S
C665 C663 1.561 . S
C666 C663 1.526 . S
C666 C667 1.396 . S
C666 C671 1.390 . S
C667 C661 1.465 . S
C667 C666 1.396 . S
C667 C668 1.399 . S
C668 H654 0.929 . S
C668 C667 1.399 . S
C668 C669 1.385 . S
C669 H655 0.915 1_655 S
C669 C668 1.385 . S
C669 C670 1.389 1_655 S
C670 C669 1.389 1_455 S
C670 C671 1.387 1_455 S
C671 H656 0.930 . S
C671 C666 1.390 . S
C671 C670 1.387 1_655 S
H672 C684 0.930 . S
H673 C686 0.930 . S
H674 C687 0.930 . S
H675 C691 0.959 . S
H676 C691 0.959 . S
H677 C691 0.961 . S
H678 C692 0.960 . S
H679 C692 0.961 . S
H680 C692 0.959 1_455 S
H681 C695 0.929 . S
H682 C696 0.931 . S
H683 C698 0.930 . S
C684 H672 0.930 . S
C684 C685 1.399 . S
C684 C689 1.399 . S
C685 C684 1.399 . S
C685 C686 1.376 . S
C686 H673 0.930 . S
C686 C685 1.376 . S
C686 C687 1.388 . S
C687 H674 0.930 . S
C687 C686 1.388 . S
C687 C688 1.390 . S
C688 C687 1.390 . S
C688 C689 1.394 . S
C688 C694 1.465 . S
C689 C684 1.399 . S
C689 C688 1.394 . S
C689 C690 1.516 . S
C690 C689 1.516 . S
C690 C691 1.502 . S
C690 C692 1.561 1_455 S
C690 C693 1.526 . S
C691 H675 0.959 . S
C691 H676 0.959 . S
C691 H677 0.961 . S
C691 C690 1.502 . S
C692 H678 0.960 . S
C692 H679 0.961 . S
C692 H680 0.959 1_655 S
C692 C690 1.561 1_655 S
C693 C690 1.526 . S
C693 C694 1.396 . S
C693 C698 1.390 . S
C694 C688 1.465 . S
C694 C693 1.396 . S
C694 C695 1.399 . S
C695 H681 0.929 . S
C695 C694 1.399 . S
C695 C696 1.385 . S
C696 H682 0.931 . S
C696 C695 1.385 . S
C696 C697 1.389 . S
C697 C696 1.389 . S
C697 C698 1.387 . S
C698 H683 0.930 . S
C698 C693 1.390 . S
C698 C697 1.387 . S
H699 C711 0.930 . S
H700 C713 0.930 . S
H701 C714 0.930 . S
H702 C718 0.959 . S
H703 C718 0.959 . S
H704 C718 0.961 . S
H705 C719 0.960 . S
H706 C719 0.961 . S
H707 C719 0.959 . S
H708 C722 0.929 . S
H709 C723 0.931 . S
H710 C725 0.930 . S
C711 H699 0.930 . S
C711 C712 1.399 . S
C711 C716 1.399 . S
C712 C711 1.399 . S
C712 C713 1.376 . S
C713 H700 0.930 . S
C713 C712 1.376 . S
C713 C714 1.388 . S
C714 H701 0.930 . S
C714 C713 1.388 . S
C714 C715 1.390 . S
C715 C714 1.390 . S
C715 C716 1.394 . S
C715 C721 1.465 . S
C716 C711 1.399 . S
C716 C715 1.394 . S
C716 C717 1.516 . S
C717 C716 1.516 . S
C717 C718 1.502 . S
C717 C719 1.561 . S
C717 C720 1.526 . S
C718 H702 0.959 . S
C718 H703 0.959 . S
C718 H704 0.961 . S
C718 C717 1.502 . S
C719 H705 0.960 . S
C719 H706 0.961 . S
C719 H707 0.959 . S
C719 C717 1.561 . S
C720 C717 1.526 . S
C720 C721 1.396 . S
C720 C725 1.390 . S
C721 C715 1.465 . S
C721 C720 1.396 . S
C721 C722 1.399 . S
C722 H708 0.929 . S
C722 C721 1.399 . S
C722 C723 1.385 1_655 S
C723 H709 0.931 . S
C723 C722 1.385 1_455 S
C723 C724 1.389 . S
C724 C723 1.389 . S
C724 C725 1.387 1_455 S
C725 H710 0.930 . S
C725 C720 1.390 . S
C725 C724 1.387 1_655 S
H726 C738 0.930 . S
H727 C740 0.930 . S
H728 C741 0.930 . S
H729 C745 0.959 . S
H730 C745 0.959 . S
H731 C745 0.961 . S
H732 C746 0.960 . S
H733 C746 0.961 . S
H734 C746 0.959 . S
H735 C749 0.929 . S
H736 C750 0.931 . S
H737 C752 0.930 . S
C738 H726 0.930 . S
C738 C739 1.399 . S
C738 C743 1.399 . S
C739 C738 1.399 . S
C739 C740 1.376 . S
C740 H727 0.930 . S
C740 C739 1.376 . S
C740 C741 1.388 . S
C741 H728 0.930 . S
C741 C740 1.388 . S
C741 C742 1.390 . S
C742 C741 1.390 . S
C742 C743 1.394 . S
C742 C748 1.465 . S
C743 C738 1.399 . S
C743 C742 1.394 . S
C743 C744 1.516 . S
C744 C743 1.516 . S
C744 C745 1.502 . S
C744 C746 1.561 . S
C744 C747 1.526 . S
C745 H729 0.959 . S
C745 H730 0.959 . S
C745 H731 0.961 . S
C745 C744 1.502 . S
C746 H732 0.960 . S
C746 H733 0.961 . S
C746 H734 0.959 . S
C746 C744 1.561 . S
C747 C744 1.526 . S
C747 C748 1.396 . S
C747 C752 1.390 . S
C748 C742 1.465 . S
C748 C747 1.396 . S
C748 C749 1.399 . S
C749 H735 0.929 . S
C749 C748 1.399 . S
C749 C750 1.385 . S
C750 H736 0.931 . S
C750 C749 1.385 . S
C750 C751 1.389 . S
C751 C750 1.389 . S
C751 C752 1.387 . S
C752 H737 0.930 . S
C752 C747 1.390 . S
C752 C751 1.387 . S
H753 C765 0.930 . S
H754 C767 0.930 . S
H755 C768 0.930 . S
H756 C772 0.959 . S
H757 C772 0.959 . S
H758 C772 0.961 . S
H759 C773 0.960 . S
H760 C773 0.961 . S
H761 C773 0.959 . S
H762 C776 0.929 . S
H763 C777 0.931 . S
H764 C779 0.930 . S
C765 H753 0.930 . S
C765 C766 1.399 . S
C765 C770 1.399 . S
C766 C765 1.399 . S
C766 C767 1.376 . S
C767 H754 0.930 . S
C767 C766 1.376 . S
C767 C768 1.388 . S
C768 H755 0.930 . S
C768 C767 1.388 . S
C768 C769 1.390 . S
C769 C768 1.390 . S
C769 C770 1.394 . S
C769 C775 1.465 . S
C770 C765 1.399 . S
C770 C769 1.394 . S
C770 C771 1.516 . S
C771 C770 1.516 . S
C771 C772 1.502 . S
C771 C773 1.561 . S
C771 C774 1.526 . S
C772 H756 0.959 . S
C772 H757 0.959 . S
C772 H758 0.961 . S
C772 C771 1.502 . S
C773 H759 0.960 . S
C773 H760 0.961 . S
C773 H761 0.959 . S
C773 C771 1.561 . S
C774 C771 1.526 . S
C774 C775 1.396 . S
C774 C779 1.390 . S
C775 C769 1.465 . S
C775 C774 1.396 . S
C775 C776 1.399 . S
C776 H762 0.929 . S
C776 C775 1.399 . S
C776 C777 1.385 . S
C777 H763 0.931 . S
C777 C776 1.385 . S
C777 C778 1.389 . S
C778 C777 1.389 . S
C778 C779 1.387 . S
C779 H764 0.930 . S
C779 C774 1.390 . S
C779 C778 1.387 . S
H780 C792 0.930 . S
H781 C794 0.930 . S
H782 C795 0.930 . S
H783 C799 0.959 . S
H784 C799 0.959 . S
H785 C799 0.961 . S
H786 C800 0.960 . S
H787 C800 0.961 . S
H788 C800 0.959 . S
H789 C803 0.929 . S
H790 C804 0.931 . S
H791 C806 0.930 . S
C792 H780 0.930 . S
C792 C793 1.399 . S
C792 C797 1.399 . S
C793 C792 1.399 . S
C793 C794 1.376 . S
C794 H781 0.930 . S
C794 C793 1.376 . S
C794 C795 1.388 . S
C795 H782 0.930 . S
C795 C794 1.388 . S
C795 C796 1.390 . S
C796 C795 1.390 . S
C796 C797 1.394 . S
C796 C802 1.465 . S
C797 C792 1.399 . S
C797 C796 1.394 . S
C797 C798 1.516 . S
C798 C797 1.516 . S
C798 C799 1.502 . S
C798 C800 1.561 . S
C798 C801 1.526 . S
C799 H783 0.959 . S
C799 H784 0.959 . S
C799 H785 0.961 . S
C799 C798 1.502 . S
C800 H786 0.960 . S
C800 H787 0.961 . S
C800 H788 0.959 . S
C800 C798 1.561 . S
C801 C798 1.526 . S
C801 C802 1.396 . S
C801 C806 1.390 . S
C802 C796 1.465 . S
C802 C801 1.396 . S
C802 C803 1.399 . S
C803 H789 0.929 . S
C803 C802 1.399 . S
C803 C804 1.385 . S
C804 H790 0.931 . S
C804 C803 1.385 . S
C804 C805 1.389 . S
C805 C804 1.389 . S
C805 C806 1.387 . S
C806 H791 0.930 . S
C806 C801 1.390 . S
C806 C805 1.387 . S
H807 C819 0.930 . S
H808 C821 0.930 . S
H809 C822 0.930 . S
H810 C826 0.959 . S
H811 C826 0.959 . S
H812 C826 0.961 . S
H813 C827 0.960 . S
H814 C827 0.961 . S
H815 C827 0.959 . S
H816 C830 0.929 . S
H817 C831 0.931 . S
H818 C833 0.930 . S
C819 H807 0.930 . S
C819 C820 1.399 . S
C819 C824 1.399 . S
C820 C819 1.399 . S
C820 C821 1.376 . S
C821 H808 0.930 . S
C821 C820 1.376 . S
C821 C822 1.388 . S
C822 H809 0.930 . S
C822 C821 1.388 . S
C822 C823 1.390 . S
C823 C822 1.390 . S
C823 C824 1.394 . S
C823 C829 1.465 . S
C824 C819 1.399 . S
C824 C823 1.394 . S
C824 C825 1.516 . S
C825 C824 1.516 . S
C825 C826 1.502 . S
C825 C827 1.561 . S
C825 C828 1.526 . S
C826 H810 0.959 . S
C826 H811 0.959 . S
C826 H812 0.961 . S
C826 C825 1.502 . S
C827 H813 0.960 . S
C827 H814 0.961 . S
C827 H815 0.959 . S
C827 C825 1.561 . S
C828 C825 1.526 . S
C828 C829 1.396 . S
C828 C833 1.390 . S
C829 C823 1.465 . S
C829 C828 1.396 . S
C829 C830 1.399 . S
C830 H816 0.929 . S
C830 C829 1.399 . S
C830 C831 1.385 . S
C831 H817 0.931 . S
C831 C830 1.385 . S
C831 C832 1.389 . S
C832 C831 1.389 . S
C832 C833 1.387 . S
C833 H818 0.930 . S
C833 C828 1.390 . S
C833 C832 1.387 . S
H834 C846 0.930 . S
H835 C848 0.930 . S
H836 C849 0.930 . S
H837 C853 0.959 . S
H838 C853 0.959 . S
H839 C853 0.961 . S
H840 C854 0.960 . S
H841 C854 0.961 . S
H842 C854 0.959 . S
H843 C857 0.929 . S
H844 C858 0.931 . S
H845 C860 0.930 . S
C846 H834 0.930 . S
C846 C847 1.399 . S
C846 C851 1.399 . S
C847 C846 1.399 . S
C847 C848 1.376 . S
C848 H835 0.930 . S
C848 C847 1.376 . S
C848 C849 1.388 . S
C849 H836 0.930 . S
C849 C848 1.388 . S
C849 C850 1.390 . S
C850 C849 1.390 . S
C850 C851 1.394 . S
C850 C856 1.465 . S
C851 C846 1.399 . S
C851 C850 1.394 . S
C851 C852 1.516 . S
C852 C851 1.516 . S
C852 C853 1.502 . S
C852 C854 1.561 . S
C852 C855 1.526 . S
C853 H837 0.959 . S
C853 H838 0.959 . S
C853 H839 0.961 . S
C853 C852 1.502 . S
C854 H840 0.960 . S
C854 H841 0.961 . S
C854 H842 0.959 . S
C854 C852 1.561 . S
C855 C852 1.526 . S
C855 C856 1.396 . S
C855 C860 1.390 . S
C856 C850 1.465 . S
C856 C855 1.396 . S
C856 C857 1.399 . S
C857 H843 0.929 . S
C857 C856 1.399 . S
C857 C858 1.385 . S
C858 H844 0.931 . S
C858 C857 1.385 . S
C858 C859 1.389 . S
C859 C858 1.389 . S
C859 C860 1.387 . S
C860 H845 0.930 . S
C860 C855 1.390 . S
C860 C859 1.387 . S
H861 C873 0.930 . S
H862 C875 0.930 . S
H863 C876 0.930 . S
H864 C880 0.959 . S
H865 C880 0.959 . S
H866 C880 0.961 . S
H867 C881 0.960 . S
H868 C881 0.961 . S
H869 C881 0.959 . S
H870 C884 0.929 . S
H871 C885 0.931 . S
H872 C887 0.930 . S
C873 H861 0.930 . S
C873 C874 1.399 . S
C873 C878 1.399 . S
C874 C873 1.399 . S
C874 C875 1.376 . S
C875 H862 0.930 . S
C875 C874 1.376 . S
C875 C876 1.388 . S
C876 H863 0.930 . S
C876 C875 1.388 . S
C876 C877 1.390 . S
C877 C876 1.390 . S
C877 C878 1.394 . S
C877 C883 1.465 . S
C878 C873 1.399 . S
C878 C877 1.394 . S
C878 C879 1.516 . S
C879 C878 1.516 . S
C879 C880 1.502 . S
C879 C881 1.561 . S
C879 C882 1.526 . S
C880 H864 0.959 . S
C880 H865 0.959 . S
C880 H866 0.961 . S
C880 C879 1.502 . S
C881 H867 0.960 . S
C881 H868 0.961 . S
C881 H869 0.959 . S
C881 C879 1.561 . S
C882 C879 1.526 . S
C882 C883 1.396 . S
C882 C887 1.390 . S
C883 C877 1.465 . S
C883 C882 1.396 . S
C883 C884 1.399 . S
C884 H870 0.929 . S
C884 C883 1.399 . S
C884 C885 1.385 . S
C885 H871 0.931 . S
C885 C884 1.385 . S
C885 C886 1.389 . S
C886 C885 1.389 . S
C886 C887 1.387 . S
C887 H872 0.930 . S
C887 C882 1.390 . S
C887 C886 1.387 . S
H888 C900 0.930 . S
H889 C902 0.930 . S
H890 C903 0.930 . S
H891 C907 0.959 . S
H892 C907 0.959 1_545 S
H893 C907 0.961 . S
H894 C908 0.960 1_565 S
H895 C908 0.961 . S
H896 C908 0.959 . S
H897 C911 0.929 . S
H898 C912 0.931 . S
H899 C914 0.930 . S
C900 H888 0.930 . S
C900 C901 1.399 . S
C900 C905 1.399 . S
C901 C900 1.399 . S
C901 C902 1.376 . S
C902 H889 0.930 . S
C902 C901 1.376 . S
C902 C903 1.388 . S
C903 H890 0.930 . S
C903 C902 1.388 . S
C903 C904 1.377 1_565 S
C904 C903 1.377 1_545 S
C904 C905 1.380 1_545 S
C904 C910 1.491 . S
C905 C900 1.399 . S
C905 C904 1.380 1_565 S
C905 C906 1.516 1_565 S
C906 C905 1.516 1_545 S
C906 C907 1.502 1_545 S
C906 C908 1.561 . S
C906 C909 1.526 . S
C907 H891 0.959 . S
C907 H892 0.959 1_565 S
C907 H893 0.961 . S
C907 C906 1.502 1_565 S
C908 H894 0.960 1_545 S
C908 H895 0.961 . S
C908 H896 0.959 . S
C908 C906 1.561 . S
C909 C906 1.526 . S
C909 C910 1.396 . S
C909 C914 1.390 . S
C910 C904 1.491 . S
C910 C909 1.396 . S
C910 C911 1.399 . S
C911 H897 0.929 . S
C911 C910 1.399 . S
C911 C912 1.385 . S
C912 H898 0.931 . S
C912 C911 1.385 . S
C912 C913 1.389 . S
C913 C912 1.389 . S
C913 C914 1.387 . S
C914 H899 0.930 . S
C914 C909 1.390 . S
C914 C913 1.387 . S
H915 C927 0.930 . S
H916 C929 0.930 . S
H917 C930 0.930 . S
H918 C934 0.959 . S
H919 C934 0.959 . S
H920 C934 0.961 . S
H921 C935 0.960 . S
H922 C935 0.961 . S
H923 C935 0.959 . S
H924 C938 0.929 . S
H925 C939 0.931 . S
H926 C941 0.930 . S
C927 H915 0.930 . S
C927 C928 1.399 . S
C927 C932 1.399 1_545 S
C928 C927 1.399 . S
C928 C929 1.376 . S
C929 H916 0.930 . S
C929 C928 1.376 . S
C929 C930 1.388 . S
C930 H917 0.930 . S
C930 C929 1.388 . S
C930 C931 1.390 1_545 S
C931 C930 1.390 1_565 S
C931 C932 1.394 . S
C931 C937 1.465 . S
C932 C927 1.399 1_565 S
C932 C931 1.394 . S
C932 C933 1.516 . S
C933 C932 1.516 . S
C933 C934 1.502 . S
C933 C935 1.561 . S
C933 C936 1.526 . S
C934 H918 0.959 . S
C934 H919 0.959 . S
C934 H920 0.961 . S
C934 C933 1.502 . S
C935 H921 0.960 . S
C935 H922 0.961 . S
C935 H923 0.959 . S
C935 C933 1.561 . S
C936 C933 1.526 . S
C936 C937 1.396 . S
C936 C941 1.390 . S
C937 C931 1.465 . S
C937 C936 1.396 . S
C937 C938 1.399 . S
C938 H924 0.929 . S
C938 C937 1.399 . S
C938 C939 1.385 . S
C939 H925 0.931 . S
C939 C938 1.385 . S
C939 C940 1.389 . S
C940 C939 1.389 . S
C940 C941 1.387 . S
C941 H926 0.930 . S
C941 C936 1.390 . S
C941 C940 1.387 . S
H942 C954 0.930 . S
H943 C956 0.930 . S
H944 C957 0.925 1_565 S
H945 C961 0.959 . S
H946 C961 0.959 . S
H947 C961 0.961 . S
H948 C962 0.960 . S
H949 C962 0.961 . S
H950 C962 0.959 . S
H951 C965 0.929 . S
H952 C966 0.931 . S
H953 C968 0.930 . S
C954 H942 0.930 . S
C954 C955 1.399 . S
C954 C959 1.399 1_545 S
C955 C954 1.399 . S
C955 C956 1.376 . S
C956 H943 0.930 . S
C956 C955 1.376 . S
C956 C957 1.388 . S
C957 H944 0.925 1_545 S
C957 C956 1.388 . S
C957 C958 1.390 1_545 S
C958 C957 1.390 1_565 S
C958 C959 1.394 . S
C958 C964 1.465 . S
C959 C954 1.399 1_565 S
C959 C958 1.394 . S
C959 C960 1.516 . S
C960 C959 1.516 . S
C960 C961 1.502 . S
C960 C962 1.561 . S
C960 C963 1.526 . S
C961 H945 0.959 . S
C961 H946 0.959 . S
C961 H947 0.961 . S
C961 C960 1.502 . S
C962 H948 0.960 . S
C962 H949 0.961 . S
C962 H950 0.959 . S
C962 C960 1.561 . S
C963 C960 1.526 . S
C963 C964 1.396 . S
C963 C968 1.390 . S
C964 C958 1.465 . S
C964 C963 1.396 . S
C964 C965 1.399 . S
C965 H951 0.929 . S
C965 C964 1.399 . S
C965 C966 1.385 . S
C966 H952 0.931 . S
C966 C965 1.385 . S
C966 C967 1.389 . S
C967 C966 1.389 . S
C967 C968 1.387 . S
C968 H953 0.930 . S
C968 C963 1.390 . S
C968 C967 1.387 . S
H969 C981 0.930 . S
H970 C983 0.930 . S
H971 C984 0.930 . S
H972 C988 0.959 . S
H973 C988 0.960 . S
H974 C988 0.961 1_655 S
H975 C989 0.960 . S
H976 C989 0.961 . S
H977 C989 0.959 . S
H978 C992 0.929 . S
H979 C993 0.931 . S
H980 C995 0.930 . S
C981 H969 0.930 . S
C981 C982 1.399 . S
C981 C986 1.399 . S
C982 C981 1.399 . S
C982 C983 1.376 . S
C983 H970 0.930 . S
C983 C982 1.376 . S
C983 C984 1.388 . S
C984 H971 0.930 . S
C984 C983 1.388 . S
C984 C985 1.390 . S
C985 C984 1.390 . S
C985 C986 1.394 . S
C985 C991 1.465 1_565 S
C986 C981 1.399 . S
C986 C985 1.394 . S
C986 C987 1.516 1_565 S
C987 C986 1.516 1_545 S
C987 C988 1.502 . S
C987 C989 1.561 . S
C987 C990 1.526 . S
C988 H972 0.959 . S
C988 H973 0.960 . S
C988 H974 0.961 1_455 S
C988 C987 1.502 . S
C989 H975 0.960 . S
C989 H976 0.961 . S
C989 H977 0.959 . S
C989 C987 1.561 . S
C990 C987 1.526 . S
C990 C991 1.396 . S
C990 C995 1.390 . S
C991 C985 1.465 1_545 S
C991 C990 1.396 . S
C991 C992 1.399 . S
C992 H978 0.929 . S
C992 C991 1.399 . S
C992 C993 1.385 . S
C993 H979 0.931 . S
C993 C992 1.385 . S
C993 C994 1.389 . S
C994 C993 1.389 . S
C994 C995 1.387 . S
C995 H980 0.930 . S
C995 C990 1.390 . S
C995 C994 1.387 . S
H996 C1008 0.930 . S
H997 C1010 0.930 . S
H998 C1011 0.930 . S
H999 C1015 0.959 . S
H1000 C1015 0.959 . S
H1001 C1015 0.961 . S
H1002 C1016 0.960 . S
H1003 C1016 0.961 . S
H1004 C1016 0.959 . S
H1005 C1019 0.929 . S
H1006 C1020 0.931 . S
H1007 C1022 0.930 . S
C1008 H996 0.930 . S
C1008 C1009 1.399 . S
C1008 C1013 1.399 . S
C1009 C1008 1.399 . S
C1009 C1010 1.376 . S
C1010 H997 0.930 . S
C1010 C1009 1.376 . S
C1010 C1011 1.388 . S
C1011 H998 0.930 . S
C1011 C1010 1.388 . S
C1011 C1012 1.390 . S
C1012 C1011 1.390 . S
C1012 C1013 1.394 . S
C1012 C1018 1.465 . S
C1013 C1008 1.399 . S
C1013 C1012 1.394 . S
C1013 C1014 1.516 . S
C1014 C1013 1.516 . S
C1014 C1015 1.502 . S
C1014 C1016 1.561 . S
C1014 C1017 1.526 . S
C1015 H999 0.959 . S
C1015 H1000 0.959 . S
C1015 H1001 0.961 . S
C1015 C1014 1.502 . S
C1016 H1002 0.960 . S
C1016 H1003 0.961 . S
C1016 H1004 0.959 . S
C1016 C1014 1.561 . S
C1017 C1014 1.526 . S
C1017 C1018 1.396 . S
C1017 C1022 1.390 . S
C1018 C1012 1.465 . S
C1018 C1017 1.396 . S
C1018 C1019 1.399 . S
C1019 H1005 0.929 . S
C1019 C1018 1.399 . S
C1019 C1020 1.385 . S
C1020 H1006 0.931 . S
C1020 C1019 1.385 . S
C1020 C1021 1.389 . S
C1021 C1020 1.389 . S
C1021 C1022 1.387 . S
C1022 H1007 0.930 . S
C1022 C1017 1.390 . S
C1022 C1021 1.387 . S
H1023 C1035 0.930 . S
H1024 C1037 0.930 . S
H1025 C1038 0.930 . S
H1026 C1042 0.959 . S
H1027 C1042 0.959 . S
H1028 C1042 0.961 . S
H1029 C1043 0.960 . S
H1030 C1043 0.961 . S
H1031 C1043 0.959 . S
H1032 C1046 0.929 . S
H1033 C1047 0.931 . S
H1034 C1049 0.930 . S
C1035 H1023 0.930 . S
C1035 C1036 1.399 . S
C1035 C1040 1.399 . S
C1036 C1035 1.399 . S
C1036 C1037 1.376 . S
C1037 H1024 0.930 . S
C1037 C1036 1.376 . S
C1037 C1038 1.388 . S
C1038 H1025 0.930 . S
C1038 C1037 1.388 . S
C1038 C1039 1.390 . S
C1039 C1038 1.390 . S
C1039 C1040 1.394 . S
C1039 C1045 1.465 . S
C1040 C1035 1.399 . S
C1040 C1039 1.394 . S
C1040 C1041 1.516 . S
C1041 C1040 1.516 . S
C1041 C1042 1.502 . S
C1041 C1043 1.561 . S
C1041 C1044 1.526 . S
C1042 H1026 0.959 . S
C1042 H1027 0.959 . S
C1042 H1028 0.961 . S
C1042 C1041 1.502 . S
C1043 H1029 0.960 . S
C1043 H1030 0.961 . S
C1043 H1031 0.959 . S
C1043 C1041 1.561 . S
C1044 C1041 1.526 . S
C1044 C1045 1.396 . S
C1044 C1049 1.390 . S
C1045 C1039 1.465 . S
C1045 C1044 1.396 . S
C1045 C1046 1.399 . S
C1046 H1032 0.929 . S
C1046 C1045 1.399 . S
C1046 C1047 1.385 . S
C1047 H1033 0.931 . S
C1047 C1046 1.385 . S
C1047 C1048 1.389 . S
C1048 C1047 1.389 . S
C1048 C1049 1.387 . S
C1049 H1034 0.930 . S
C1049 C1044 1.390 . S
C1049 C1048 1.387 . S
H1050 C1062 0.930 . S
H1051 C1064 0.930 . S
H1052 C1065 0.930 . S
H1053 C1069 0.959 . S
H1054 C1069 0.959 . S
H1055 C1069 0.961 . S
H1056 C1070 0.960 . S
H1057 C1070 0.961 . S
H1058 C1070 0.959 . S
H1059 C1073 0.929 . S
H1060 C1074 0.931 . S
H1061 C1076 0.930 . S
C1062 H1050 0.930 . S
C1062 C1063 1.399 . S
C1062 C1067 1.399 . S
C1063 C1062 1.399 . S
C1063 C1064 1.376 . S
C1064 H1051 0.930 . S
C1064 C1063 1.376 . S
C1064 C1065 1.388 . S
C1065 H1052 0.930 . S
C1065 C1064 1.388 . S
C1065 C1066 1.390 . S
C1066 C1065 1.390 . S
C1066 C1067 1.394 . S
C1066 C1072 1.465 . S
C1067 C1062 1.399 . S
C1067 C1066 1.394 . S
C1067 C1068 1.516 . S
C1068 C1067 1.516 . S
C1068 C1069 1.502 . S
C1068 C1070 1.561 . S
C1068 C1071 1.526 . S
C1069 H1053 0.959 . S
C1069 H1054 0.959 . S
C1069 H1055 0.961 . S
C1069 C1068 1.502 . S
C1070 H1056 0.960 . S
C1070 H1057 0.961 . S
C1070 H1058 0.959 . S
C1070 C1068 1.561 . S
C1071 C1068 1.526 . S
C1071 C1072 1.396 . S
C1071 C1076 1.390 . S
C1072 C1066 1.465 . S
C1072 C1071 1.396 . S
C1072 C1073 1.399 . S
C1073 H1059 0.929 . S
C1073 C1072 1.399 . S
C1073 C1074 1.385 . S
C1074 H1060 0.931 . S
C1074 C1073 1.385 . S
C1074 C1075 1.389 . S
C1075 C1074 1.389 . S
C1075 C1076 1.387 . S
C1076 H1061 0.930 . S
C1076 C1071 1.390 . S
C1076 C1075 1.387 . S
H1077 C1089 0.930 . S
H1078 C1091 0.930 . S
H1079 C1092 0.930 . S
H1080 C1096 0.959 . S
H1081 C1096 0.959 . S
H1082 C1096 0.961 . S
H1083 C1097 0.960 . S
H1084 C1097 0.961 . S
H1085 C1097 0.959 . S
H1086 C1100 0.929 . S
H1087 C1101 0.931 . S
H1088 C1103 0.930 . S
C1089 H1077 0.930 . S
C1089 C1090 1.399 . S
C1089 C1094 1.399 . S
C1090 C1089 1.399 . S
C1090 C1091 1.376 . S
C1091 H1078 0.930 . S
C1091 C1090 1.376 . S
C1091 C1092 1.388 . S
C1092 H1079 0.930 . S
C1092 C1091 1.388 . S
C1092 C1093 1.390 . S
C1093 C1092 1.390 . S
C1093 C1094 1.394 . S
C1093 C1099 1.465 . S
C1094 C1089 1.399 . S
C1094 C1093 1.394 . S
C1094 C1095 1.516 . S
C1095 C1094 1.516 . S
C1095 C1096 1.502 . S
C1095 C1097 1.561 . S
C1095 C1098 1.526 . S
C1096 H1080 0.959 . S
C1096 H1081 0.959 . S
C1096 H1082 0.961 . S
C1096 C1095 1.502 . S
C1097 H1083 0.960 . S
C1097 H1084 0.961 . S
C1097 H1085 0.959 . S
C1097 C1095 1.561 . S
C1098 C1095 1.526 . S
C1098 C1099 1.396 . S
C1098 C1103 1.390 . S
C1099 C1093 1.465 . S
C1099 C1098 1.396 . S
C1099 C1100 1.399 . S
C1100 H1086 0.929 . S
C1100 C1099 1.399 . S
C1100 C1101 1.385 . S
C1101 H1087 0.931 . S
C1101 C1100 1.385 . S
C1101 C1102 1.389 . S
C1102 C1101 1.389 . S
C1102 C1103 1.387 . S
C1103 H1088 0.930 . S
C1103 C1098 1.390 . S
C1103 C1102 1.387 . S
H1104 C1116 0.930 . S
H1105 C1118 0.930 . S
H1106 C1119 0.930 . S
H1107 C1123 0.959 . S
H1108 C1123 0.959 . S
H1109 C1123 0.961 . S
H1110 C1124 0.960 . S
H1111 C1124 0.961 . S
H1112 C1124 0.959 . S
H1113 C1127 0.929 . S
H1114 C1128 0.931 . S
H1115 C1130 0.930 . S
C1116 H1104 0.930 . S
C1116 C1117 1.399 . S
C1116 C1121 1.399 . S
C1117 C1116 1.399 . S
C1117 C1118 1.376 . S
C1118 H1105 0.930 . S
C1118 C1117 1.376 . S
C1118 C1119 1.388 . S
C1119 H1106 0.930 . S
C1119 C1118 1.388 . S
C1119 C1120 1.390 . S
C1120 C1119 1.390 . S
C1120 C1121 1.394 . S
C1120 C1126 1.465 . S
C1121 C1116 1.399 . S
C1121 C1120 1.394 . S
C1121 C1122 1.516 . S
C1122 C1121 1.516 . S
C1122 C1123 1.502 . S
C1122 C1124 1.561 . S
C1122 C1125 1.526 . S
C1123 H1107 0.959 . S
C1123 H1108 0.959 . S
C1123 H1109 0.961 . S
C1123 C1122 1.502 . S
C1124 H1110 0.960 . S
C1124 H1111 0.961 . S
C1124 H1112 0.959 . S
C1124 C1122 1.561 . S
C1125 C1122 1.526 . S
C1125 C1126 1.396 . S
C1125 C1130 1.390 . S
C1126 C1120 1.465 . S
C1126 C1125 1.396 . S
C1126 C1127 1.399 . S
C1127 H1113 0.929 . S
C1127 C1126 1.399 . S
C1127 C1128 1.385 . S
C1128 H1114 0.931 . S
C1128 C1127 1.385 . S
C1128 C1129 1.389 . S
C1129 C1128 1.389 . S
C1129 C1130 1.387 . S
C1130 H1115 0.930 . S
C1130 C1125 1.390 . S
C1130 C1129 1.387 . S
H1131 C1143 0.930 . S
H1132 C1145 0.930 . S
H1133 C1146 0.930 . S
H1134 C1150 0.959 . S
H1135 C1150 0.959 . S
H1136 C1150 0.961 . S
H1137 C1151 0.960 . S
H1138 C1151 0.961 . S
H1139 C1151 0.959 . S
H1140 C1154 0.929 . S
H1141 C1155 0.931 . S
H1142 C1157 0.930 . S
C1143 H1131 0.930 . S
C1143 C1144 1.399 . S
C1143 C1148 1.399 . S
C1144 C1143 1.399 . S
C1144 C1145 1.376 . S
C1145 H1132 0.930 . S
C1145 C1144 1.376 . S
C1145 C1146 1.388 . S
C1146 H1133 0.930 . S
C1146 C1145 1.388 . S
C1146 C1147 1.390 . S
C1147 C1146 1.390 . S
C1147 C1148 1.394 . S
C1147 C1153 1.465 . S
C1148 C1143 1.399 . S
C1148 C1147 1.394 . S
C1148 C1149 1.516 . S
C1149 C1148 1.516 . S
C1149 C1150 1.502 . S
C1149 C1151 1.561 . S
C1149 C1152 1.526 . S
C1150 H1134 0.959 . S
C1150 H1135 0.959 . S
C1150 H1136 0.961 . S
C1150 C1149 1.502 . S
C1151 H1137 0.960 . S
C1151 H1138 0.961 . S
C1151 H1139 0.959 . S
C1151 C1149 1.561 . S
C1152 C1149 1.526 . S
C1152 C1153 1.396 . S
C1152 C1157 1.390 . S
C1153 C1147 1.465 . S
C1153 C1152 1.396 . S
C1153 C1154 1.399 . S
C1154 H1140 0.929 . S
C1154 C1153 1.399 . S
C1154 C1155 1.385 . S
C1155 H1141 0.931 . S
C1155 C1154 1.385 . S
C1155 C1156 1.389 . S
C1156 C1155 1.389 . S
C1156 C1157 1.387 . S
C1157 H1142 0.930 . S
C1157 C1152 1.390 . S
C1157 C1156 1.387 . S
H1158 C1170 0.930 . S
H1159 C1172 0.930 . S
H1160 C1173 0.930 . S
H1161 C1177 0.959 . S
H1162 C1177 0.959 . S
H1163 C1177 0.961 . S
H1164 C1178 0.960 . S
H1165 C1178 0.961 . S
H1166 C1178 0.959 . S
H1167 C1181 0.929 . S
H1168 C1182 0.931 . S
H1169 C1184 0.930 . S
C1170 H1158 0.930 . S
C1170 C1171 1.399 . S
C1170 C1175 1.399 . S
C1171 C1170 1.399 . S
C1171 C1172 1.376 . S
C1172 H1159 0.930 . S
C1172 C1171 1.376 . S
C1172 C1173 1.388 . S
C1173 H1160 0.930 . S
C1173 C1172 1.388 . S
C1173 C1174 1.390 . S
C1174 C1173 1.390 . S
C1174 C1175 1.394 . S
C1174 C1180 1.465 . S
C1175 C1170 1.399 . S
C1175 C1174 1.394 . S
C1175 C1176 1.516 . S
C1176 C1175 1.516 . S
C1176 C1177 1.502 . S
C1176 C1178 1.561 . S
C1176 C1179 1.526 . S
C1177 H1161 0.959 . S
C1177 H1162 0.959 . S
C1177 H1163 0.961 . S
C1177 C1176 1.502 . S
C1178 H1164 0.960 . S
C1178 H1165 0.961 . S
C1178 H1166 0.959 . S
C1178 C1176 1.561 . S
C1179 C1176 1.526 . S
C1179 C1180 1.396 . S
C1179 C1184 1.390 . S
C1180 C1174 1.465 . S
C1180 C1179 1.396 . S
C1180 C1181 1.399 . S
C1181 H1167 0.929 . S
C1181 C1180 1.399 . S
C1181 C1182 1.385 . S
C1182 H1168 0.931 . S
C1182 C1181 1.385 . S
C1182 C1183 1.389 . S
C1183 C1182 1.389 . S
C1183 C1184 1.387 . S
C1184 H1169 0.930 . S
C1184 C1179 1.390 . S
C1184 C1183 1.387 . S
H1185 C1197 0.930 . S
H1186 C1199 0.930 . S
H1187 C1200 0.930 . S
H1188 C1204 0.959 . S
H1189 C1204 0.959 . S
H1190 C1204 0.961 . S
H1191 C1205 0.960 . S
H1192 C1205 0.961 . S
H1193 C1205 0.959 . S
H1194 C1208 0.929 . S
H1195 C1209 0.931 . S
H1196 C1211 0.930 . S
C1197 H1185 0.930 . S
C1197 C1198 1.399 . S
C1197 C1202 1.399 . S
C1198 C1197 1.399 . S
C1198 C1199 1.376 . S
C1199 H1186 0.930 . S
C1199 C1198 1.376 . S
C1199 C1200 1.388 . S
C1200 H1187 0.930 . S
C1200 C1199 1.388 . S
C1200 C1201 1.390 . S
C1201 C1200 1.390 . S
C1201 C1202 1.394 . S
C1201 C1207 1.465 . S
C1202 C1197 1.399 . S
C1202 C1201 1.394 . S
C1202 C1203 1.516 . S
C1203 C1202 1.516 . S
C1203 C1204 1.502 . S
C1203 C1205 1.561 . S
C1203 C1206 1.526 . S
C1204 H1188 0.959 . S
C1204 H1189 0.959 . S
C1204 H1190 0.961 . S
C1204 C1203 1.502 . S
C1205 H1191 0.960 . S
C1205 H1192 0.961 . S
C1205 H1193 0.959 . S
C1205 C1203 1.561 . S
C1206 C1203 1.526 . S
C1206 C1207 1.396 . S
C1206 C1211 1.390 . S
C1207 C1201 1.465 . S
C1207 C1206 1.396 . S
C1207 C1208 1.399 . S
C1208 H1194 0.929 . S
C1208 C1207 1.399 . S
C1208 C1209 1.385 . S
C1209 H1195 0.931 . S
C1209 C1208 1.385 . S
C1209 C1210 1.389 . S
C1210 C1209 1.389 . S
C1210 C1211 1.387 . S
C1211 H1196 0.930 . S
C1211 C1206 1.390 . S
C1211 C1210 1.387 . S
C589 C487 1.521 . S
C577 C31 1.661 . S
C616 C505 1.241 . S
C604 C91 1.394 . S
C631 C121 1.283 . S
C643 C529 1.258 . S
C670 C559 1.378 . S
C658 C181 1.430 . S
C697 C547 1.308 . S
C685 C271 1.430 . S
C712 C301 1.303 . S
C724 C500 1.372 . S
C739 C361 1.542 . S
C751 C520 1.553 . S
C766 C451 1.484 . S
C778 C525 1.278 . S
C793 C421 1.346 . S
C805 C541 1.278 . S
C820 C331 1.462 . S
C832 C496 1.351 . S
C859 C563 1.255 . S
C847 C211 1.409 . S
C886 C508 1.380 . S
C874 C61 1.407 . S
C901 C151 1.651 . S
C913 C526 1.529 . S
C928 C1 1.385 . S
C940 C484 1.380 . S
C967 C504 1.373 . S
C955 C391 1.427 . S
C994 C550 1.517 . S
C982 C241 1.607 . S
C1021 C546 1.366 . S
C1009 C20 1.496 1_556 S
C1048 C499 1.297 . S
C1036 C80 1.424 . S
C1063 C140 1.480 . S
C1075 C521 1.329 . S
C1090 C200 1.450 . S
C1102 C542 1.389 . S
C1129 C483 1.362 . S
C1117 C260 1.474 1_554 S
C1144 C320 1.478 . S
C1156 C517 1.422 . S
C1183 C538 1.297 . S
C1171 C380 1.519 . S
C1210 C562 1.334 . S
C1198 C440 1.428 . S
