# Generated by pormake.
# Topology tsx, (6,3)-cn, num edge types: 1
# Building blocks:
#     Node 0, Type 0, BuildingBlock: FUNLAD_clean_sbu_0, # of connection points: 6
#     Node 1, Type 0, BuildingBlock: FUNLAD_clean_sbu_0, # of connection points: 6
#     Node 2, Type 1, BuildingBlock: BETDAH_clean_linker_0, # of connection points: 3
#     Node 3, Type 1, BuildingBlock: BETDAH_clean_linker_0, # of connection points: 3
#     Node 4, Type 1, BuildingBlock: BETDAH_clean_linker_0, # of connection points: 3
#     Node 5, Type 1, BuildingBlock: BETDAH_clean_linker_0, # of connection points: 3
#     Edge 6, Type (0, 1), BuildingBlock: XIVTED_clean_linker_0, # of connection points: 2
#     Edge 7, Type (0, 1), BuildingBlock: XIVTED_clean_linker_0, # of connection points: 2
#     Edge 8, Type (0, 1), BuildingBlock: XIVTED_clean_linker_0, # of connection points: 2
#     Edge 9, Type (0, 1), BuildingBlock: XIVTED_clean_linker_0, # of connection points: 2
#     Edge 10, Type (0, 1), BuildingBlock: XIVTED_clean_linker_0, # of connection points: 2
#     Edge 11, Type (0, 1), BuildingBlock: XIVTED_clean_linker_0, # of connection points: 2
#     Edge 12, Type (0, 1), BuildingBlock: XIVTED_clean_linker_0, # of connection points: 2
#     Edge 13, Type (0, 1), BuildingBlock: XIVTED_clean_linker_0, # of connection points: 2
#     Edge 14, Type (0, 1), BuildingBlock: XIVTED_clean_linker_0, # of connection points: 2
#     Edge 15, Type (0, 1), BuildingBlock: XIVTED_clean_linker_0, # of connection points: 2
#     Edge 16, Type (0, 1), BuildingBlock: XIVTED_clean_linker_0, # of connection points: 2
#     Edge 17, Type (0, 1), BuildingBlock: XIVTED_clean_linker_0, # of connection points: 2
# Relax obj value: 0.108
# Max RMSD: 0.112
# Mean RMSD: 0.108
data_MOF--net-tsx--node1-FUNLAD_clean_sbu_0--node2-BETDAH_clean_linker_0--edge1-XIVTED_clean_linker_0
_symmetry_space_group_name_H-M    P1
_symmetry_Int_Tables_number       1
_symmetry_cell_setting            triclinic
loop_
_symmetry_equiv_pos_as_xyz
'x, y, z'
_cell_length_a     19.688989
_cell_length_b     21.833703
_cell_length_c     39.267045
_cell_angle_alpha  91.342861
_cell_angle_beta   101.21991
_cell_angle_gamma 89.199758
loop_
_atom_site_label
_atom_site_type_symbol
_atom_site_fract_x
_atom_site_fract_y
_atom_site_fract_z
_atom_type_partial_charge
C0 C 0.94345 0.89273 -0.00076 0.0
N1 N 0.05828 0.98101 0.08668 0.0
C2 C -0.00052 0.98436 0.09999 0.0
C3 C 0.00331 0.99138 0.13566 0.0
C4 C 0.06827 -0.0053 0.1579 0.0
C5 C 0.1282 0.98917 0.1436 0.0
C6 C 0.12198 0.98251 0.10767 0.0
Zn7 Zn 0.04877 0.98271 0.03417 0.0
C8 C 0.1427 0.89732 0.00595 0.0
N9 N 0.02258 -0.00689 0.92428 0.0
C10 C 0.96018 -0.0048 0.90217 0.0
C11 C 0.08256 0.00154 0.91274 0.0
C12 C 0.08132 0.01462 0.87808 0.0
C13 C 0.01771 0.01876 0.85474 0.0
C14 C 0.95656 0.00786 0.86709 0.0
Zn15 Zn 0.03034 0.98637 0.97673 0.0
O16 O 0.97372 0.9155 0.02815 0.0
C17 C 0.93461 0.06995 0.00351 0.0
O18 O 0.9578 0.91242 0.97117 0.0
H19 H 0.13166 0.00018 0.93073 0.0
H20 H 0.94937 0.98306 0.08284 0.0
H21 H 0.91312 0.98859 0.91192 0.0
O22 O 0.97032 0.05271 0.03228 0.0
O23 O 0.94824 0.04838 0.97532 0.0
H24 H 0.168 0.98023 0.09647 0.0
O25 O 0.10171 0.06114 0.98391 0.0
O26 O 0.12354 0.0497 0.04022 0.0
O27 O 0.11207 0.92288 0.97839 0.0
O28 O 0.12626 0.91258 0.03482 0.0
C29 C 0.13441 0.07732 0.01386 0.0
H30 H 0.95588 -0.0058 0.14573 0.0
H31 H 0.17927 0.99163 0.15991 0.0
H32 H 0.12974 0.02344 0.87001 0.0
H33 H 0.90639 0.00954 0.84994 0.0
C34 C 0.42072 0.42733 0.49606 0.0
N35 N 0.54417 0.50904 0.58327 0.0
C36 C 0.48751 0.51279 0.59829 0.0
C37 C 0.49514 0.51533 0.63434 0.0
C38 C 0.56171 0.51371 0.65514 0.0
C39 C 0.61926 0.50859 0.63898 0.0
C40 C 0.60926 0.50648 0.60279 0.0
Zn41 Zn 0.53063 0.51377 0.53068 0.0
C42 C 0.61871 0.42695 0.4993 0.0
N43 N 0.4979 0.52866 0.4207 0.0
C44 C 0.43551 0.52988 0.39855 0.0
C45 C 0.55779 0.53689 0.40906 0.0
C46 C 0.5566 0.54814 0.37423 0.0
C47 C 0.49322 0.54997 0.3506 0.0
C48 C 0.43198 0.54026 0.36316 0.0
Zn49 Zn 0.50811 0.52009 0.47328 0.0
O50 O 0.45356 0.44828 0.52491 0.0
C51 C 0.41723 0.60436 0.5033 0.0
O52 O 0.43338 0.44801 0.46785 0.0
H53 H 0.60696 0.5359 0.42699 0.0
H54 H 0.43623 0.51469 0.58228 0.0
H55 H 0.38849 0.52341 0.40836 0.0
O56 O 0.45449 0.58526 0.53128 0.0
O57 O 0.42817 0.58399 0.47429 0.0
H58 H 0.65356 0.50394 0.59028 0.0
O59 O 0.582 0.59311 0.48046 0.0
O60 O 0.6077 0.57896 0.53651 0.0
O61 O 0.58729 0.45426 0.4725 0.0
O62 O 0.60526 0.442 0.52882 0.0
C63 C 0.6175 0.60722 0.51015 0.0
H64 H 0.44937 0.5181 0.6458 0.0
H65 H 0.67147 0.50746 0.65412 0.0
H66 H 0.60513 0.55648 0.36617 0.0
H67 H 0.38191 0.54034 0.34589 0.0
H68 H 0.12697 0.93497 0.42737 0.0
H69 H 0.92623 0.01833 0.39278 0.0
H70 H 0.96065 0.90002 0.48021 0.0
C71 C 0.07414 0.94376 0.43042 0.0
C72 C 0.04967 0.91461 0.45699 0.0
C73 C 0.02939 0.9785 0.40573 0.0
C74 C 0.96201 0.99144 0.41117 0.0
C75 C 0.93795 0.96472 0.43869 0.0
C76 C 0.98072 0.92385 0.46042 0.0
N77 N 0.86926 0.97549 0.44335 0.0
C78 C 0.84456 0.03451 0.44779 0.0
H79 H 0.91318 0.97888 0.61558 0.0
H80 H 0.0271 0.12512 0.58182 0.0
H81 H 0.92351 -0.00746 0.50819 0.0
C82 C 0.93106 0.00192 0.59483 0.0
C83 C 0.91342 0.97893 0.56076 0.0
C84 C 0.972 0.05438 0.60255 0.0
C85 C -0.00446 0.0846 0.57583 0.0
C86 C 0.97631 0.06241 0.54134 0.0
C87 C 0.93604 0.00994 0.5344 0.0
N88 N -0.00494 0.09124 0.51258 0.0
C89 C 0.04651 0.13453 0.51467 0.0
H90 H 0.65028 0.41529 0.92226 0.0
H91 H 0.4492 0.50203 0.89567 0.0
H92 H 0.49049 0.37319 0.97798 0.0
C93 C 0.59839 0.42348 0.92692 0.0
C94 C 0.57642 0.39134 0.95321 0.0
C95 C 0.5521 0.46117 0.90461 0.0
C96 C 0.48608 0.47301 0.91219 0.0
C97 C 0.46463 0.44266 0.93932 0.0
C98 C 0.50863 0.39958 0.95855 0.0
N99 N 0.39738 0.45241 0.94618 0.0
C100 C 0.37348 0.51085 0.95265 0.0
H101 H 0.39418 0.47725 0.11118 0.0
H102 H 0.5382 0.59928 0.07849 0.0
H103 H 0.45029 0.45024 0.01205 0.0
C104 C 0.42215 0.49183 0.09161 0.0
C105 C 0.41586 0.45842 0.06038 0.0
C106 C 0.46649 0.54235 0.09846 0.0
C107 C 0.50362 0.5606 0.07318 0.0
C108 C 0.4957 0.52794 0.04125 0.0
C109 C 0.45311 0.47683 0.03565 0.0
N110 N 0.52983 0.54363 0.01407 0.0
C111 C 0.57709 0.59044 0.01556 0.0
H112 H 0.1549 0.16048 0.96557 0.0
H113 H 0.40856 0.3663 0.10545 0.0
H114 H 0.21943 0.11506 0.0736 0.0
H115 H 0.32785 0.42255 0.00059 0.0
H116 H 0.34342 0.27142 0.09334 0.0
H117 H 0.22468 0.25343 0.97651 0.0
C118 C 0.18423 0.16975 0.99147 0.0
C119 C 0.18109 0.13026 0.01876 0.0
C120 C 0.33985 0.30456 0.07296 0.0
C121 C 0.26026 0.23629 0.03149 0.0
C122 C 0.37654 0.35895 0.07998 0.0
C123 C 0.37352 0.40238 0.05399 0.0
C124 C 0.29993 0.29348 0.0397 0.0
C125 C 0.33228 0.38996 0.02123 0.0
C126 C 0.2237 0.2229 -0.00226 0.0
C127 C 0.21999 0.14444 0.05183 0.0
N128 N 0.29712 0.33659 0.01498 0.0
N129 N 0.25773 0.1964 0.05728 0.0
H130 H 0.18782 0.80662 0.05267 0.0
H131 H 0.37655 0.61733 0.91932 0.0
H132 H 0.20863 0.87188 0.95233 0.0
H133 H 0.31776 0.53828 0.00867 0.0
H134 H 0.33269 0.71728 0.93605 0.0
H135 H 0.25456 0.71456 0.04243 0.0
C136 C 0.20745 0.80211 0.0288 0.0
C137 C 0.19202 0.8466 0.00316 0.0
C138 C 0.32968 0.67815 0.95212 0.0
C139 C 0.26774 0.74155 0.99118 0.0
C140 C 0.35449 0.62134 0.94251 0.0
C141 C 0.34978 0.57011 0.96254 0.0
C142 C 0.30034 0.68334 0.98203 0.0
C143 C 0.32171 0.57707 0.99254 0.0
C144 C 0.2451 0.74942 0.02286 0.0
C145 C 0.21861 0.83836 0.97265 0.0
N146 N 0.29771 0.63271 0.00136 0.0
N147 N 0.25469 0.78672 0.96742 0.0
H148 H 0.85147 0.84188 0.94392 0.0
H149 H 0.66803 0.64117 0.06853 0.0
H150 H 0.91538 0.83552 0.05544 0.0
H151 H 0.60248 0.63984 0.95728 0.0
H152 H 0.7592 0.71378 0.06362 0.0
H153 H 0.76046 0.76747 0.94721 0.0
C154 C 0.8467 0.82461 0.96897 0.0
C155 C 0.89088 0.84515 -0.00058 0.0
C156 C 0.72486 0.6979 0.0402 0.0
C157 C 0.78721 0.76082 0.00343 0.0
C158 C 0.67287 0.65677 0.04312 0.0
C159 C 0.62824 0.63551 0.01329 0.0
C160 C 0.73198 0.7175 0.00716 0.0
C161 C 0.63623 0.65606 0.98082 0.0
C162 C 0.7947 0.7824 0.97088 0.0
C163 C 0.88234 0.8214 0.03125 0.0
N164 N 0.68733 0.6961 0.97854 0.0
N165 N 0.83156 0.78079 0.03239 0.0
H166 H 0.81483 0.07207 0.95604 0.0
H167 H 0.7053 0.40495 0.99335 0.0
H168 H 0.92253 0.16623 0.0482 0.0
H169 H 0.55226 0.26929 0.95252 0.0
H170 H 0.78903 0.3223 0.01284 0.0
H171 H 0.72079 0.14748 0.95175 0.0
C172 C 0.81841 0.10861 0.97545 0.0
C173 C 0.87645 0.1134 0.00238 0.0
C174 C 0.73661 0.31076 0.00038 0.0
C175 C 0.76977 0.19999 -0.00263 0.0
C176 C 0.68908 0.35768 0.98931 0.0
C177 C 0.62217 0.34349 0.97144 0.0
C178 C 0.71736 0.24965 0.99247 0.0
C179 C 0.60337 0.28182 0.96644 0.0
C180 C 0.7646 0.15123 0.97315 0.0
C181 C 0.87846 0.16119 0.02706 0.0
N182 N 0.65125 0.23703 0.97624 0.0
N183 N 0.8263 0.20357 0.02361 0.0
H184 H 0.63264 0.69526 0.46352 0.0
H185 H 0.9254 0.87343 0.59789 0.0
H186 H 0.7149 0.63497 0.56751 0.0
H187 H 0.80929 0.95441 0.50483 0.0
H188 H 0.85835 0.77993 0.58383 0.0
H189 H 0.70866 0.78444 0.47449 0.0
C190 C 0.66715 0.70046 0.48849 0.0
C191 C 0.66714 0.65801 0.51474 0.0
C192 C 0.84763 0.81818 0.56647 0.0
C193 C 0.75372 0.75949 0.52743 0.0
C194 C 0.88552 0.87174 0.57462 0.0
C195 C 0.87271 0.92203 0.55262 0.0
C196 C 0.79674 0.81471 0.53602 0.0
C197 C 0.82147 0.91662 0.52236 0.0
C198 C 0.71019 0.75143 0.49479 0.0
C199 C 0.7128 0.66689 0.54663 0.0
N200 N 0.78528 0.86393 0.51496 0.0
N201 N 0.75409 0.71673 0.55211 0.0
H202 H 0.67185 0.3395 0.54678 0.0
H203 H 0.8306 0.13512 0.40792 0.0
H204 H 0.67042 0.39436 0.44174 0.0
H205 H 0.80315 0.06929 0.50685 0.0
H206 H 0.78564 0.2359 0.42264 0.0
H207 H 0.73528 0.24602 0.53578 0.0
C208 C 0.68573 0.33237 0.5216 0.0
C209 C 0.66525 0.37459 0.49506 0.0
C210 C 0.78971 0.19951 0.44122 0.0
C211 C 0.73726 0.26761 0.4822 0.0
C212 C 0.81517 0.14219 0.43276 0.0
C213 C 0.81981 0.09438 0.45617 0.0
C214 C 0.76909 0.2087 0.47336 0.0
C215 C 0.79994 0.10532 0.48812 0.0
C216 C 0.72157 0.27883 0.51526 0.0
C217 C 0.68456 0.36284 0.46289 0.0
N218 N 0.77521 0.16135 0.49579 0.0
N219 N 0.71903 0.31038 0.45732 0.0
H220 H 0.32263 0.382 0.44155 0.0
H221 H 0.14756 0.17478 0.56662 0.0
H222 H 0.39713 0.36639 0.552 0.0
H223 H 0.06727 0.18865 0.4569 0.0
H224 H 0.24134 0.24425 0.56103 0.0
H225 H 0.23063 0.30901 0.44544 0.0
C226 C 0.31996 0.36298 0.46648 0.0
C227 C 0.36738 0.38056 0.49648 0.0
C228 C 0.20322 0.23234 0.53812 0.0
C229 C 0.26265 0.29774 0.50118 0.0
C230 C 0.14982 0.19296 0.54142 0.0
C231 C 0.10022 0.17697 0.51222 0.0
C232 C 0.2067 0.25549 0.50532 0.0
C233 C 0.10492 0.20075 0.47998 0.0
C234 C 0.26741 0.32156 0.46873 0.0
C235 C 0.36151 0.3546 0.52817 0.0
N236 N 0.1574 0.23902 0.47732 0.0
N237 N 0.31012 0.31478 0.52966 0.0
H238 H 0.40892 0.69854 0.54998 0.0
H239 H 0.02463 0.79295 0.45827 0.0
H240 H 0.29371 0.60737 0.45861 0.0
H241 H 0.17719 0.92933 0.49854 0.0
H242 H 0.11122 0.7125 0.47701 0.0
H243 H 0.31253 0.77272 0.54791 0.0
C244 C 0.36309 0.69382 0.52979 0.0
C245 C 0.35932 0.64751 0.50413 0.0
C246 C 0.12506 0.76004 0.48255 0.0
C247 C 0.24918 0.73008 0.50238 0.0
C248 C 0.07564 0.80578 0.47224 0.0
C249 C 0.09418 0.86755 0.47689 0.0
C250 C 0.19298 0.7764 0.49797 0.0
C251 C 0.16126 0.88202 0.49455 0.0
C252 C 0.30843 0.73591 0.52866 0.0
C253 C 0.29894 0.64304 0.47856 0.0
N254 N 0.20868 0.83667 0.50424 0.0
N255 N 0.24614 0.68371 0.47838 0.0
H256 H 0.99291 0.07316 0.19188 0.0
H257 H 0.11006 0.90797 0.37043 0.0
H258 H 0.15438 0.93535 0.21013 0.0
H259 H 0.99223 0.07746 0.36265 0.0
H260 H 0.13133 0.92198 0.31274 0.0
H261 H 0.99433 0.07923 0.25436 0.0
C262 C 0.02889 0.04441 0.20908 0.0
C263 C 0.073 0.00307 0.19581 0.0
C264 C 0.10169 0.95672 0.32374 0.0
C265 C 0.07509 0.01003 0.26712 0.0
C266 C 0.08998 0.94919 0.35712 0.0
C267 C 0.04936 0.99182 0.37195 0.0
C268 C 0.07136 0.00644 0.30432 0.0
C269 C 0.02293 0.04286 0.35228 0.0
C270 C 0.03005 0.04829 0.24472 0.0
C271 C 0.11954 0.96784 0.21924 0.0
N272 N 0.03362 0.04834 0.31926 0.0
N273 N 0.11876 0.9716 0.2537 0.0
H274 H 0.92272 0.09207 0.81332 0.0
H275 H 0.0959 0.04133 0.64648 0.0
H276 H 0.10845 0.98487 0.81245 0.0
H277 H 0.88722 0.10737 0.64164 0.0
H278 H 0.11378 0.04423 0.71014 0.0
H279 H 0.91955 0.11782 0.7528 0.0
C280 C 0.9627 0.07371 0.80045 0.0
C281 C 0.01553 0.03563 0.81804 0.0
C282 C 0.06461 0.05953 0.69518 0.0
C283 C 0.01307 0.06632 0.74895 0.0
C284 C 0.05487 0.05869 0.65897 0.0
C285 C 0.99028 0.07457 0.63915 0.0
C286 C 0.00915 0.07611 0.7114 0.0
C287 C 0.93792 0.09532 0.65628 0.0
C288 C 0.96123 0.08901 0.76599 0.0
C289 C 0.06698 0.01471 0.80016 0.0
N290 N 0.9482 0.09486 0.69149 0.0
N291 N 0.06425 0.03009 0.7666 0.0
H292 H 0.49448 0.58795 0.69546 0.0
H293 H 0.6269 0.39598 0.86391 0.0
H294 H 0.64926 0.44453 0.70204 0.0
H295 H 0.51292 0.56611 0.86697 0.0
H296 H 0.64097 0.41784 0.80575 0.0
H297 H 0.50342 0.5845 0.75846 0.0
C298 C 0.53056 0.55594 0.71021 0.0
C299 C 0.57067 0.51596 0.69348 0.0
C300 C 0.61372 0.45097 0.81923 0.0
C301 C 0.58135 0.51203 0.7654 0.0
C302 C 0.60619 0.43888 0.85286 0.0
C303 C 0.56862 0.4793 0.87081 0.0
C304 C 0.58229 0.50324 0.80277 0.0
C305 C 0.54126 0.53302 0.85409 0.0
C306 C 0.53602 0.55436 0.74615 0.0
C307 C 0.6175 0.47625 0.71386 0.0
N308 N 0.54784 0.54304 0.8208 0.0
N309 N 0.62097 0.47484 0.74868 0.0
H310 H 0.39589 0.6144 0.30451 0.0
H311 H 0.5878 0.55037 0.14518 0.0
H312 H 0.58773 0.5127 0.3111 0.0
H313 H 0.37007 0.59313 0.13212 0.0
H314 H 0.59908 0.56575 0.20808 0.0
H315 H 0.39475 0.631 0.24295 0.0
C316 C 0.43771 0.59549 0.29316 0.0
C317 C 0.49181 0.56175 0.31322 0.0
C318 C 0.54915 0.57316 0.19136 0.0
C319 C 0.4917 0.58233 0.24303 0.0
C320 C 0.54298 0.56523 0.15551 0.0
C321 C 0.47791 0.57024 0.13369 0.0
C322 C 0.48981 0.58631 0.20527 0.0
C323 C 0.42106 0.58866 0.14829 0.0
C324 C 0.43734 0.60561 0.2581 0.0
C325 C 0.54538 0.53973 0.29706 0.0
N326 N 0.42809 0.59527 0.18328 0.0
N327 N 0.54384 0.55028 0.26299 0.0
loop_
_geom_bond_atom_site_label_1
_geom_bond_atom_site_label_2
_geom_bond_distance
_geom_bond_site_symmetry_2
_ccdc_geom_bond_type
C0 O16 1.251 . S
C0 O18 1.254 1_554 S
N1 C2 1.333 1_445 S
N1 C6 1.307 . S
N1 Zn7 2.020 . S
C2 N1 1.333 1_665 S
C2 C3 1.379 . S
C2 H20 0.952 . S
C3 C2 1.379 . S
C3 C4 1.390 1_665 S
C3 H30 0.949 . S
C4 C3 1.390 1_445 S
C4 C5 1.357 . S
C5 C4 1.357 . S
C5 C6 1.370 . S
C5 H31 0.950 . S
C6 N1 1.307 . S
C6 C5 1.370 . S
C6 H24 0.948 . S
Zn7 N1 2.020 . S
Zn7 O16 2.039 1_445 S
Zn7 O22 2.034 1_455 S
Zn7 O26 2.025 . S
Zn7 O28 2.024 1_545 S
C8 O27 1.246 1_554 S
C8 O28 1.249 . S
N9 C10 1.310 1_545 S
N9 C11 1.330 1_655 S
N9 Zn15 2.020 1_655 S
C10 N9 1.310 1_565 S
C10 C14 1.370 . S
C10 H21 0.948 . S
C11 N9 1.330 1_455 S
C11 C12 1.379 . S
C11 H19 0.952 . S
C12 C11 1.379 . S
C12 C13 1.390 1_455 S
C12 H32 0.949 . S
C13 C12 1.390 1_655 S
C13 C14 1.357 1_545 S
C14 C10 1.370 . S
C14 C13 1.357 1_565 S
C14 H33 0.950 . S
Zn15 N9 2.020 1_455 S
Zn15 O18 2.025 1_445 S
Zn15 O23 2.024 1_455 S
Zn15 O25 2.039 . S
Zn15 O27 2.034 1_545 S
O16 C0 1.251 . S
O16 Zn7 2.039 1_665 S
C17 O22 1.246 . S
C17 O23 1.249 1_554 S
O18 C0 1.254 1_556 S
O18 Zn15 2.025 1_665 S
H19 C11 0.952 . S
H20 C2 0.952 . S
H21 C10 0.948 . S
O22 Zn7 2.034 1_655 S
O22 C17 1.246 . S
O23 Zn15 2.024 1_655 S
O23 C17 1.249 1_556 S
H24 C6 0.948 . S
O25 Zn15 2.039 . S
O25 C29 1.251 1_556 S
O26 Zn7 2.025 . S
O26 C29 1.254 . S
O27 C8 1.246 1_556 S
O27 Zn15 2.034 1_565 S
O28 Zn7 2.024 1_565 S
O28 C8 1.249 . S
C29 O25 1.251 1_554 S
C29 O26 1.254 . S
H30 C3 0.949 . S
H31 C5 0.950 . S
H32 C12 0.949 . S
H33 C14 0.950 . S
C34 O50 1.251 . S
C34 O52 1.254 . S
N35 C36 1.333 . S
N35 C40 1.307 . S
N35 Zn41 2.020 . S
C36 N35 1.333 . S
C36 C37 1.379 . S
C36 H54 0.952 . S
C37 C36 1.379 . S
C37 C38 1.390 . S
C37 H64 0.949 . S
C38 C37 1.390 . S
C38 C39 1.357 . S
C39 C38 1.357 . S
C39 C40 1.370 . S
C39 H65 0.950 . S
C40 N35 1.307 . S
C40 C39 1.370 . S
C40 H58 0.948 . S
Zn41 N35 2.020 . S
Zn41 O50 2.039 . S
Zn41 O56 2.034 . S
Zn41 O60 2.025 . S
Zn41 O62 2.024 . S
C42 O61 1.246 . S
C42 O62 1.249 . S
N43 C44 1.307 . S
N43 C45 1.333 . S
N43 Zn49 2.020 . S
C44 N43 1.307 . S
C44 C48 1.370 . S
C44 H55 0.948 . S
C45 N43 1.333 . S
C45 C46 1.379 . S
C45 H53 0.952 . S
C46 C45 1.379 . S
C46 C47 1.390 . S
C46 H66 0.949 . S
C47 C46 1.390 . S
C47 C48 1.357 . S
C48 C44 1.370 . S
C48 C47 1.357 . S
C48 H67 0.950 . S
Zn49 N43 2.020 . S
Zn49 O52 2.025 . S
Zn49 O57 2.024 . S
Zn49 O59 2.039 . S
Zn49 O61 2.034 . S
O50 C34 1.251 . S
O50 Zn41 2.039 . S
C51 O56 1.246 . S
C51 O57 1.249 . S
O52 C34 1.254 . S
O52 Zn49 2.025 . S
H53 C45 0.952 . S
H54 C36 0.952 . S
H55 C44 0.948 . S
O56 Zn41 2.034 . S
O56 C51 1.246 . S
O57 Zn49 2.024 . S
O57 C51 1.249 . S
H58 C40 0.948 . S
O59 Zn49 2.039 . S
O59 C63 1.251 . S
O60 Zn41 2.025 . S
O60 C63 1.254 . S
O61 C42 1.246 . S
O61 Zn49 2.034 . S
O62 Zn41 2.024 . S
O62 C42 1.249 . S
C63 O59 1.251 . S
C63 O60 1.254 . S
H64 C37 0.949 . S
H65 C39 0.950 . S
H66 C46 0.949 . S
H67 C48 0.950 . S
H68 C71 0.929 . S
H69 C74 0.929 1_655 S
H70 C76 0.930 . S
C71 H68 0.929 . S
C71 C72 1.398 . S
C71 C73 1.396 1_565 S
C72 C71 1.398 . S
C72 C76 1.407 . S
C73 C71 1.396 1_545 S
C73 C74 1.394 . S
C74 H69 0.929 1_455 S
C74 C73 1.394 . S
C74 C75 1.382 . S
C75 C74 1.382 . S
C75 C76 1.392 1_545 S
C75 N77 1.420 1_455 S
C76 H70 0.930 . S
C76 C72 1.407 . S
C76 C75 1.392 1_565 S
N77 C75 1.420 1_655 S
N77 C78 1.244 . S
C78 N77 1.244 . S
H79 C82 0.929 . S
H80 C85 0.929 . S
H81 C87 0.930 . S
C82 H79 0.929 . S
C82 C83 1.398 . S
C82 C84 1.396 1_565 S
C83 C82 1.398 . S
C83 C87 1.407 . S
C84 C82 1.396 1_545 S
C84 C85 1.394 1_655 S
C85 H80 0.929 . S
C85 C84 1.394 1_455 S
C85 C86 1.382 . S
C86 C85 1.382 . S
C86 C87 1.392 1_445 S
C86 N88 1.420 . S
C87 H81 0.930 . S
C87 C83 1.407 . S
C87 C86 1.392 1_665 S
N88 C86 1.420 . S
N88 C89 1.244 . S
C89 N88 1.244 . S
H90 C93 0.929 . S
H91 C96 0.929 . S
H92 C98 0.930 1_554 S
C93 H90 0.929 . S
C93 C94 1.398 . S
C93 C95 1.396 . S
C94 C93 1.398 . S
C94 C98 1.407 . S
C95 C93 1.396 . S
C95 C96 1.394 . S
C96 H91 0.929 . S
C96 C95 1.394 . S
C96 C97 1.382 . S
C97 C96 1.382 . S
C97 C98 1.392 . S
C97 N99 1.420 . S
C98 H92 0.930 1_556 S
C98 C94 1.407 . S
C98 C97 1.392 . S
N99 C97 1.420 . S
N99 C100 1.244 . S
C100 N99 1.244 . S
H101 C104 0.929 . S
H102 C107 0.929 . S
H103 C109 0.930 1_556 S
C104 H101 0.929 . S
C104 C105 1.398 . S
C104 C106 1.396 . S
C105 C104 1.398 . S
C105 C109 1.407 . S
C106 C104 1.396 . S
C106 C107 1.394 . S
C107 H102 0.929 . S
C107 C106 1.394 . S
C107 C108 1.382 . S
C108 C107 1.382 . S
C108 C109 1.392 . S
C108 N110 1.420 . S
C109 H103 0.930 1_554 S
C109 C105 1.407 . S
C109 C108 1.392 . S
N110 C108 1.420 . S
N110 C111 1.244 . S
C111 N110 1.244 . S
H112 C118 0.930 . S
H113 C122 0.930 . S
H114 C127 0.929 . S
H115 C125 0.929 . S
H116 C120 0.929 . S
H117 C126 0.929 . S
C118 H112 0.930 . S
C118 C119 1.367 1_556 S
C118 C126 1.378 . S
C119 C118 1.367 1_554 S
C119 C127 1.433 . S
C120 H116 0.929 . S
C120 C122 1.378 . S
C120 C124 1.350 . S
C121 C124 1.463 . S
C121 C126 1.350 1_554 S
C121 N129 1.427 . S
C122 H113 0.930 . S
C122 C120 1.378 . S
C122 C123 1.367 . S
C123 C122 1.367 . S
C123 C125 1.433 1_554 S
C124 C120 1.350 . S
C124 C121 1.463 . S
C124 N128 1.427 1_554 S
C125 H115 0.929 . S
C125 C123 1.433 1_556 S
C125 N128 1.384 . S
C126 H117 0.929 . S
C126 C118 1.378 . S
C126 C121 1.350 1_556 S
C127 H114 0.929 . S
C127 C119 1.433 . S
C127 N129 1.384 . S
N128 C124 1.427 1_556 S
N128 C125 1.384 . S
N129 C121 1.427 . S
N129 C127 1.384 . S
H130 C136 0.930 . S
H131 C140 0.930 . S
H132 C145 0.929 . S
H133 C143 0.929 . S
H134 C138 0.929 . S
H135 C144 0.929 . S
C136 H130 0.930 . S
C136 C137 1.367 . S
C136 C144 1.378 . S
C137 C136 1.367 . S
C137 C145 1.433 1_554 S
C138 H134 0.929 . S
C138 C140 1.378 . S
C138 C142 1.350 1_556 S
C139 C142 1.463 . S
C139 C144 1.350 . S
C139 N147 1.427 1_554 S
C140 H131 0.930 . S
C140 C138 1.378 . S
C140 C141 1.367 . S
C141 C140 1.367 . S
C141 C143 1.433 1_556 S
C142 C138 1.350 1_554 S
C142 C139 1.463 . S
C142 N146 1.427 . S
C143 H133 0.929 . S
C143 C141 1.433 1_554 S
C143 N146 1.384 . S
C144 H135 0.929 . S
C144 C136 1.378 . S
C144 C139 1.350 . S
C145 H132 0.929 . S
C145 C137 1.433 1_556 S
C145 N147 1.384 . S
N146 C142 1.427 . S
N146 C143 1.384 . S
N147 C139 1.427 1_556 S
N147 C145 1.384 . S
H148 C154 0.930 . S
H149 C158 0.930 . S
H150 C163 0.929 . S
H151 C161 0.929 . S
H152 C156 0.929 . S
H153 C162 0.929 . S
C154 H148 0.930 . S
C154 C155 1.367 1_556 S
C154 C162 1.378 . S
C155 C154 1.367 1_554 S
C155 C163 1.433 . S
C156 H152 0.929 . S
C156 C158 1.378 . S
C156 C160 1.350 . S
C157 C160 1.463 . S
C157 C162 1.350 1_554 S
C157 N165 1.427 . S
C158 H149 0.930 . S
C158 C156 1.378 . S
C158 C159 1.367 . S
C159 C158 1.367 . S
C159 C161 1.433 1_554 S
C160 C156 1.350 . S
C160 C157 1.463 . S
C160 N164 1.427 1_554 S
C161 H151 0.929 . S
C161 C159 1.433 1_556 S
C161 N164 1.384 . S
C162 H153 0.929 . S
C162 C154 1.378 . S
C162 C157 1.350 1_556 S
C163 H150 0.929 . S
C163 C155 1.433 . S
C163 N165 1.384 . S
N164 C160 1.427 1_556 S
N164 C161 1.384 . S
N165 C157 1.427 . S
N165 C163 1.384 . S
H166 C172 0.930 . S
H167 C176 0.930 . S
H168 C181 0.929 . S
H169 C179 0.929 . S
H170 C174 0.929 . S
H171 C180 0.929 . S
C172 H166 0.930 . S
C172 C173 1.367 . S
C172 C180 1.378 . S
C173 C172 1.367 . S
C173 C181 1.433 1_556 S
C174 H170 0.929 . S
C174 C176 1.378 . S
C174 C178 1.350 1_554 S
C175 C178 1.463 . S
C175 C180 1.350 . S
C175 N183 1.427 1_556 S
C176 H167 0.930 . S
C176 C174 1.378 . S
C176 C177 1.367 1_554 S
C177 C176 1.367 1_556 S
C177 C179 1.433 . S
C178 C174 1.350 1_556 S
C178 C175 1.463 . S
C178 N182 1.427 . S
C179 H169 0.929 . S
C179 C177 1.433 . S
C179 N182 1.384 . S
C180 H171 0.929 . S
C180 C172 1.378 . S
C180 C175 1.350 . S
C181 H168 0.929 . S
C181 C173 1.433 1_554 S
C181 N183 1.384 . S
N182 C178 1.427 . S
N182 C179 1.384 . S
N183 C175 1.427 1_554 S
N183 C181 1.384 . S
H184 C190 0.930 . S
H185 C194 0.930 . S
H186 C199 0.929 . S
H187 C197 0.929 . S
H188 C192 0.929 . S
H189 C198 0.929 . S
C190 H184 0.930 . S
C190 C191 1.367 . S
C190 C198 1.378 . S
C191 C190 1.367 . S
C191 C199 1.433 . S
C192 H188 0.929 . S
C192 C194 1.378 . S
C192 C196 1.350 . S
C193 C196 1.463 . S
C193 C198 1.350 . S
C193 N201 1.427 . S
C194 H185 0.930 . S
C194 C192 1.378 . S
C194 C195 1.367 . S
C195 C194 1.367 . S
C195 C197 1.433 . S
C196 C192 1.350 . S
C196 C193 1.463 . S
C196 N200 1.427 . S
C197 H187 0.929 . S
C197 C195 1.433 . S
C197 N200 1.384 . S
C198 H189 0.929 . S
C198 C190 1.378 . S
C198 C193 1.350 . S
C199 H186 0.929 . S
C199 C191 1.433 . S
C199 N201 1.384 . S
N200 C196 1.427 . S
N200 C197 1.384 . S
N201 C193 1.427 . S
N201 C199 1.384 . S
H202 C208 0.930 . S
H203 C212 0.930 . S
H204 C217 0.929 . S
H205 C215 0.929 . S
H206 C210 0.929 . S
H207 C216 0.929 . S
C208 H202 0.930 . S
C208 C209 1.367 . S
C208 C216 1.378 . S
C209 C208 1.367 . S
C209 C217 1.433 . S
C210 H206 0.929 . S
C210 C212 1.378 . S
C210 C214 1.350 . S
C211 C214 1.463 . S
C211 C216 1.350 . S
C211 N219 1.427 . S
C212 H203 0.930 . S
C212 C210 1.378 . S
C212 C213 1.367 . S
C213 C212 1.367 . S
C213 C215 1.433 . S
C214 C210 1.350 . S
C214 C211 1.463 . S
C214 N218 1.427 . S
C215 H205 0.929 . S
C215 C213 1.433 . S
C215 N218 1.384 . S
C216 H207 0.929 . S
C216 C208 1.378 . S
C216 C211 1.350 . S
C217 H204 0.929 . S
C217 C209 1.433 . S
C217 N219 1.384 . S
N218 C214 1.427 . S
N218 C215 1.384 . S
N219 C211 1.427 . S
N219 C217 1.384 . S
H220 C226 0.930 . S
H221 C230 0.930 . S
H222 C235 0.929 . S
H223 C233 0.929 . S
H224 C228 0.929 . S
H225 C234 0.929 . S
C226 H220 0.930 . S
C226 C227 1.367 . S
C226 C234 1.378 . S
C227 C226 1.367 . S
C227 C235 1.433 . S
C228 H224 0.929 . S
C228 C230 1.378 . S
C228 C232 1.350 . S
C229 C232 1.463 . S
C229 C234 1.350 . S
C229 N237 1.427 . S
C230 H221 0.930 . S
C230 C228 1.378 . S
C230 C231 1.367 . S
C231 C230 1.367 . S
C231 C233 1.433 . S
C232 C228 1.350 . S
C232 C229 1.463 . S
C232 N236 1.427 . S
C233 H223 0.929 . S
C233 C231 1.433 . S
C233 N236 1.384 . S
C234 H225 0.929 . S
C234 C226 1.378 . S
C234 C229 1.350 . S
C235 H222 0.929 . S
C235 C227 1.433 . S
C235 N237 1.384 . S
N236 C232 1.427 . S
N236 C233 1.384 . S
N237 C229 1.427 . S
N237 C235 1.384 . S
H238 C244 0.930 . S
H239 C248 0.930 . S
H240 C253 0.929 . S
H241 C251 0.929 . S
H242 C246 0.929 . S
H243 C252 0.929 . S
C244 H238 0.930 . S
C244 C245 1.367 . S
C244 C252 1.378 . S
C245 C244 1.367 . S
C245 C253 1.433 . S
C246 H242 0.929 . S
C246 C248 1.378 . S
C246 C250 1.350 . S
C247 C250 1.463 . S
C247 C252 1.350 . S
C247 N255 1.427 . S
C248 H239 0.930 . S
C248 C246 1.378 . S
C248 C249 1.367 . S
C249 C248 1.367 . S
C249 C251 1.433 . S
C250 C246 1.350 . S
C250 C247 1.463 . S
C250 N254 1.427 . S
C251 H241 0.929 . S
C251 C249 1.433 . S
C251 N254 1.384 . S
C252 H243 0.929 . S
C252 C244 1.378 . S
C252 C247 1.350 . S
C253 H240 0.929 . S
C253 C245 1.433 . S
C253 N255 1.384 . S
N254 C250 1.427 . S
N254 C251 1.384 . S
N255 C247 1.427 . S
N255 C253 1.384 . S
H256 C262 0.930 . S
H257 C266 0.930 . S
H258 C271 0.929 . S
H259 C269 0.929 . S
H260 C264 0.929 . S
H261 C270 0.929 . S
C262 H256 0.930 . S
C262 C263 1.367 1_655 S
C262 C270 1.378 . S
C263 C262 1.367 1_455 S
C263 C271 1.433 1_545 S
C264 H260 0.929 . S
C264 C266 1.378 . S
C264 C268 1.350 1_565 S
C265 C268 1.463 . S
C265 C270 1.350 1_455 S
C265 N273 1.427 1_545 S
C266 H257 0.930 . S
C266 C264 1.378 . S
C266 C267 1.367 1_565 S
C267 C266 1.367 1_545 S
C267 C269 1.433 1_455 S
C268 C264 1.350 1_545 S
C268 C265 1.463 . S
C268 N272 1.427 1_455 S
C269 H259 0.929 . S
C269 C267 1.433 1_655 S
C269 N272 1.384 . S
C270 H261 0.929 . S
C270 C262 1.378 . S
C270 C265 1.350 1_655 S
C271 H258 0.929 . S
C271 C263 1.433 1_565 S
C271 N273 1.384 . S
N272 C268 1.427 1_655 S
N272 C269 1.384 . S
N273 C265 1.427 1_565 S
N273 C271 1.384 . S
H274 C280 0.930 . S
H275 C284 0.930 . S
H276 C289 0.929 . S
H277 C287 0.929 . S
H278 C282 0.929 . S
H279 C288 0.929 . S
C280 H274 0.930 . S
C280 C281 1.367 1_455 S
C280 C288 1.378 . S
C281 C280 1.367 1_655 S
C281 C289 1.433 1_545 S
C282 H278 0.929 . S
C282 C284 1.378 . S
C282 C286 1.350 1_565 S
C283 C286 1.463 . S
C283 C288 1.350 1_655 S
C283 N291 1.427 1_545 S
C284 H275 0.930 . S
C284 C282 1.378 . S
C284 C285 1.367 1_565 S
C285 C284 1.367 1_545 S
C285 C287 1.433 1_655 S
C286 C282 1.350 1_545 S
C286 C283 1.463 . S
C286 N290 1.427 1_655 S
C287 H277 0.929 . S
C287 C285 1.433 1_455 S
C287 N290 1.384 . S
C288 H279 0.929 . S
C288 C280 1.378 . S
C288 C283 1.350 1_455 S
C289 H276 0.929 . S
C289 C281 1.433 1_565 S
C289 N291 1.384 . S
N290 C286 1.427 1_455 S
N290 C287 1.384 . S
N291 C283 1.427 1_565 S
N291 C289 1.384 . S
H292 C298 0.930 . S
H293 C302 0.930 . S
H294 C307 0.929 . S
H295 C305 0.929 . S
H296 C300 0.929 . S
H297 C306 0.929 . S
C298 H292 0.930 . S
C298 C299 1.367 . S
C298 C306 1.378 . S
C299 C298 1.367 . S
C299 C307 1.433 . S
C300 H296 0.929 . S
C300 C302 1.378 . S
C300 C304 1.350 . S
C301 C304 1.463 . S
C301 C306 1.350 . S
C301 N309 1.427 . S
C302 H293 0.930 . S
C302 C300 1.378 . S
C302 C303 1.367 . S
C303 C302 1.367 . S
C303 C305 1.433 . S
C304 C300 1.350 . S
C304 C301 1.463 . S
C304 N308 1.427 . S
C305 H295 0.929 . S
C305 C303 1.433 . S
C305 N308 1.384 . S
C306 H297 0.929 . S
C306 C298 1.378 . S
C306 C301 1.350 . S
C307 H294 0.929 . S
C307 C299 1.433 . S
C307 N309 1.384 . S
N308 C304 1.427 . S
N308 C305 1.384 . S
N309 C301 1.427 . S
N309 C307 1.384 . S
H310 C316 0.930 . S
H311 C320 0.930 . S
H312 C325 0.929 . S
H313 C323 0.929 . S
H314 C318 0.929 . S
H315 C324 0.929 . S
C316 H310 0.930 . S
C316 C317 1.367 . S
C316 C324 1.378 . S
C317 C316 1.367 . S
C317 C325 1.433 . S
C318 H314 0.929 . S
C318 C320 1.378 . S
C318 C322 1.350 . S
C319 C322 1.463 . S
C319 C324 1.350 . S
C319 N327 1.427 . S
C320 H311 0.930 . S
C320 C318 1.378 . S
C320 C321 1.367 . S
C321 C320 1.367 . S
C321 C323 1.433 . S
C322 C318 1.350 . S
C322 C319 1.463 . S
C322 N326 1.427 . S
C323 H313 0.929 . S
C323 C321 1.433 . S
C323 N326 1.384 . S
C324 H315 0.929 . S
C324 C316 1.378 . S
C324 C319 1.350 . S
C325 H312 0.929 . S
C325 C317 1.433 . S
C325 N327 1.384 . S
N326 C322 1.427 . S
N326 C323 1.384 . S
N327 C319 1.427 . S
N327 C325 1.384 . S
C123 C105 1.447 . S
C119 C29 1.488 . S
C137 C8 1.408 . S
C141 C100 1.360 . S
C155 C0 1.412 . S
C159 C111 1.363 . S
C173 C17 1.488 1_556 S
C177 C94 1.463 . S
C191 C63 1.487 . S
C195 C83 1.447 . S
C209 C42 1.408 . S
C213 C78 1.359 . S
C231 C89 1.366 . S
C227 C34 1.411 . S
C249 C72 1.453 . S
C245 C51 1.490 . S
C263 C4 1.517 . S
C267 C73 1.511 . S
C281 C13 1.512 . S
C285 C84 1.502 . S
C303 C95 1.510 . S
C299 C38 1.517 . S
C317 C47 1.512 . S
C321 C106 1.502 . S
