# Generated by pormake.
# Topology anh, (6,3)-cn, num edge types: 1
# Building blocks:
#     Node 0, Type 0, BuildingBlock: INOVEN_clean_sbu_0, # of connection points: 6
#     Node 1, Type 0, BuildingBlock: INOVEN_clean_sbu_0, # of connection points: 6
#     Node 2, Type 0, BuildingBlock: INOVEN_clean_sbu_0, # of connection points: 6
#     Node 3, Type 1, BuildingBlock: KAKCAD_clean_linker_0, # of connection points: 3
#     Node 4, Type 1, BuildingBlock: KAKCAD_clean_linker_0, # of connection points: 3
#     Node 5, Type 1, BuildingBlock: KAKCAD_clean_linker_0, # of connection points: 3
#     Node 6, Type 1, BuildingBlock: KAKCAD_clean_linker_0, # of connection points: 3
#     Node 7, Type 1, BuildingBlock: KAKCAD_clean_linker_0, # of connection points: 3
#     Node 8, Type 1, BuildingBlock: KAKCAD_clean_linker_0, # of connection points: 3
#     Edge 9, Type (0, 1), BuildingBlock: XIVTED_clean_linker_0, # of connection points: 2
#     Edge 10, Type (0, 1), BuildingBlock: XIVTED_clean_linker_0, # of connection points: 2
#     Edge 11, Type (0, 1), BuildingBlock: XIVTED_clean_linker_0, # of connection points: 2
#     Edge 12, Type (0, 1), BuildingBlock: XIVTED_clean_linker_0, # of connection points: 2
#     Edge 13, Type (0, 1), BuildingBlock: XIVTED_clean_linker_0, # of connection points: 2
#     Edge 14, Type (0, 1), BuildingBlock: XIVTED_clean_linker_0, # of connection points: 2
#     Edge 15, Type (0, 1), BuildingBlock: XIVTED_clean_linker_0, # of connection points: 2
#     Edge 16, Type (0, 1), BuildingBlock: XIVTED_clean_linker_0, # of connection points: 2
#     Edge 17, Type (0, 1), BuildingBlock: XIVTED_clean_linker_0, # of connection points: 2
#     Edge 18, Type (0, 1), BuildingBlock: XIVTED_clean_linker_0, # of connection points: 2
#     Edge 19, Type (0, 1), BuildingBlock: XIVTED_clean_linker_0, # of connection points: 2
#     Edge 20, Type (0, 1), BuildingBlock: XIVTED_clean_linker_0, # of connection points: 2
#     Edge 21, Type (0, 1), BuildingBlock: XIVTED_clean_linker_0, # of connection points: 2
#     Edge 22, Type (0, 1), BuildingBlock: XIVTED_clean_linker_0, # of connection points: 2
#     Edge 23, Type (0, 1), BuildingBlock: XIVTED_clean_linker_0, # of connection points: 2
#     Edge 24, Type (0, 1), BuildingBlock: XIVTED_clean_linker_0, # of connection points: 2
#     Edge 25, Type (0, 1), BuildingBlock: XIVTED_clean_linker_0, # of connection points: 2
#     Edge 26, Type (0, 1), BuildingBlock: XIVTED_clean_linker_0, # of connection points: 2
# Relax obj value: 0.178
# Max RMSD: 0.212
# Mean RMSD: 0.157
data_MOF--net-anh--node1-INOVEN_clean_sbu_0--node2-KAKCAD_clean_linker_0--edge1-XIVTED_clean_linker_0
_symmetry_space_group_name_H-M    P1
_symmetry_Int_Tables_number       1
_symmetry_cell_setting            triclinic
loop_
_symmetry_equiv_pos_as_xyz
'x, y, z'
_cell_length_a     38.313908
_cell_length_b     44.289225
_cell_length_c     66.871139
_cell_angle_alpha  93.571039
_cell_angle_beta   88.849062
_cell_angle_gamma 128.61372
loop_
_atom_site_label
_atom_site_type_symbol
_atom_site_fract_x
_atom_site_fract_y
_atom_site_fract_z
_atom_type_partial_charge
Gd0 Gd 0.09181 0.49562 0.15714 0.0
Gd1 Gd 0.04751 0.5303 0.15702 0.0
C2 C 0.15212 0.5906 0.15853 0.0
C3 C 0.14892 0.48381 0.15433 0.0
C4 C 0.19622 0.51182 0.16036 0.0
C5 C 0.21269 0.50319 0.17555 0.0
C6 C 0.22404 0.5487 0.15264 0.0
C7 C 0.28658 0.56505 0.17255 0.0
C8 C 0.26874 0.57526 0.15885 0.0
C9 C 0.25725 0.5296 0.18173 0.0
C10 C 0.06267 0.50013 0.19338 0.0
C11 C 0.9883 0.43661 0.15287 0.0
C12 C 1.00161 0.5497 0.17175 0.0
C13 C 0.95596 0.52352 0.17913 0.0
C14 C 0.91984 0.50013 0.16546 0.0
C15 C 0.94839 0.51892 0.19978 0.0
C16 C 0.86883 0.47048 0.19293 0.0
C17 C 0.90502 0.49261 0.20664 0.0
C18 C 0.87688 0.47377 0.17227 0.0
C19 C 0.0584 0.51962 0.11764 0.0
O20 O 0.15087 0.5604 0.16065 0.0
O21 O 0.11556 0.58666 0.15609 0.0
O22 O 0.12134 0.47178 0.16914 0.0
O23 O 0.1362 0.49171 0.13882 0.0
O24 O 0.05606 0.46929 0.18576 0.0
O25 O 0.08318 0.5266 0.18116 0.0
O26 O 0.99072 0.46629 0.16023 0.0
O27 O 1.0244 0.44185 0.14656 0.0
O28 O 1.00592 0.54668 0.15244 0.0
O29 O 1.03204 0.55268 0.18233 0.0
O30 O 0.0412 0.53564 0.12438 0.0
O31 O 0.07069 0.51079 0.13213 0.0
H32 H 0.19138 0.4755 0.18224 0.0
H33 H 0.21174 0.55675 0.14139 0.0
H34 H 0.29022 0.60237 0.15164 0.0
H35 H 0.26927 0.5203 0.19234 0.0
H36 H 0.92445 0.50248 0.14944 0.0
H37 H 0.97587 0.53606 0.21061 0.0
H38 H 0.89948 0.49091 0.22262 0.0
H39 H 0.84962 0.458 0.16129 0.0
Gd40 Gd 0.57654 1.00049 0.47979 0.0
Gd41 Gd 0.5225 0.02588 0.47791 0.0
C42 C 0.46716 0.93619 0.47678 0.0
C43 C 0.60704 0.96366 0.48555 0.0
C44 C 0.5876 0.92245 0.48534 0.0
C45 C 0.59277 0.90488 0.46855 0.0
C46 C 0.56603 0.90093 0.50221 0.0
C47 C 0.56042 0.84719 0.48645 0.0
C48 C 0.55273 0.86363 0.50277 0.0
C49 C 0.57911 0.86742 0.46908 0.0
C50 C 0.56749 0.0156 0.44275 0.0
C51 C 0.63163 0.09066 0.4814 0.0
C52 C 0.49328 0.06285 0.46976 0.0
C53 C 0.51111 0.10364 0.47253 0.0
C54 C 0.50368 0.11715 0.49041 0.0
C55 C 0.53457 0.1292 0.45716 0.0
C56 C 0.54012 0.17978 0.47701 0.0
C57 C 0.54907 0.16709 0.45941 0.0
C58 C 0.51804 0.15489 0.49259 0.0
C59 C 0.53252 0.01215 0.51539 0.0
O60 O 0.50531 0.94487 0.48288 0.0
O61 O 0.466 0.9633 0.47076 0.0
O62 O 0.60846 0.97662 0.46831 0.0
O63 O 0.59611 0.97709 0.50021 0.0
O64 O 0.60478 0.02637 0.45034 0.0
O65 O 0.5362 0.99699 0.45498 0.0
O66 O 0.59315 0.08161 0.47573 0.0
O67 O 0.63377 0.06372 0.48691 0.0
O68 O 0.48288 0.04402 0.48596 0.0
O69 O 0.51296 0.0552 0.45662 0.0
O70 O 0.4965 0.00496 0.50855 0.0
O71 O 0.56302 0.02932 0.50274 0.0
H72 H 0.60916 0.9207 0.45532 0.0
H73 H 0.56121 0.91345 0.51534 0.0
H74 H 0.53878 0.84844 0.51638 0.0
H75 H 0.58591 0.85531 0.45648 0.0
H76 H 0.4858 0.09832 0.50255 0.0
H77 H 0.5408 0.11967 0.4432 0.0
H78 H 0.56568 0.18595 0.44717 0.0
H79 H 0.51067 0.16432 0.50623 0.0
Gd80 Gd 0.63287 0.58208 0.82976 0.0
Gd81 Gd 0.57145 0.49706 0.83212 0.0
C82 C 0.52188 0.53621 0.83456 0.0
C83 C 0.66822 0.65159 0.82096 0.0
C84 C 0.65165 0.67424 0.82163 0.0
C85 C 0.6571 0.69629 0.83914 0.0
C86 C 0.6296 0.67359 0.80487 0.0
C87 C 0.61914 0.71673 0.82303 0.0
C88 C 0.61344 0.69449 0.80558 0.0
C89 C 0.64096 0.71723 0.83984 0.0
C90 C 0.61595 0.55745 0.8667 0.0
C91 C 0.68317 0.54385 0.83245 0.0
C92 C 0.53489 0.42725 0.84101 0.0
C93 C 0.54439 0.39972 0.83688 0.0
C94 C 0.53085 0.37753 0.81854 0.0
C95 C 0.56589 0.39445 0.85144 0.0
C96 C 0.55763 0.34391 0.82984 0.0
C97 C 0.57271 0.36697 0.84791 0.0
C98 C 0.53741 0.35001 0.81508 0.0
C99 C 0.58165 0.51954 0.79473 0.0
O100 O 0.56186 0.56729 0.82867 0.0
O101 O 0.5185 0.50566 0.83943 0.0
O102 O 0.6748 0.64339 0.83825 0.0
O103 O 0.6498 0.62252 0.80744 0.0
O104 O 0.65564 0.58653 0.86155 0.0
O105 O 0.58832 0.54426 0.85257 0.0
O106 O 0.64144 0.51116 0.83435 0.0
O107 O 0.68894 0.57607 0.82892 0.0
O108 O 0.52179 0.43535 0.82574 0.0
O109 O 0.56276 0.45761 0.85319 0.0
O110 O 0.54443 0.49002 0.80159 0.0
O111 O 0.61332 0.53482 0.80751 0.0
H112 H 0.67391 0.69745 0.85235 0.0
H113 H 0.625 0.65709 0.79112 0.0
H114 H 0.59752 0.69403 0.79224 0.0
H115 H 0.64559 0.73384 0.85356 0.0
H116 H 0.51442 0.38087 0.80691 0.0
H117 H 0.57668 0.41105 0.86573 0.0
H118 H 0.58823 0.36273 0.85958 0.0
H119 H 0.52606 0.33303 0.80089 0.0
C120 C 0.57036 0.06006 0.2843 0.0
C121 C 0.55778 0.02786 0.29443 0.0
C122 C 0.57138 0.05922 0.26335 0.0
C123 C 0.5605 0.02635 0.25204 0.0
C124 C 0.5485 0.99437 0.26231 0.0
C125 C 0.54679 0.995 0.28321 0.0
C126 C 0.56137 0.02519 0.22966 0.0
C127 C 0.59363 0.05839 0.21955 0.0
C128 C 0.59484 0.05761 0.19843 0.0
C129 C 0.56367 0.02191 0.1873 0.0
C130 C 0.53153 0.98806 0.19734 0.0
C131 C 0.5302 0.99051 0.21834 0.0
C132 C 0.49938 0.94894 0.18691 0.0
C133 C 0.46634 0.94051 0.17334 0.0
C134 C 0.49683 0.91811 0.19351 0.0
C135 C 0.46066 0.87976 0.18796 0.0
C136 C 0.42582 0.87091 0.17555 0.0
C137 C 0.62989 0.0946 0.18882 0.0
C138 C 0.64017 0.12956 0.1968 0.0
C139 C 0.65654 0.09637 0.17336 0.0
C140 C 0.69423 0.13239 0.16709 0.0
C141 C 0.70613 0.16736 0.17622 0.0
C142 C 0.67767 0.16526 0.19069 0.0
C143 C 0.42989 0.90176 0.16765 0.0
H144 H 0.57876 0.08571 0.29258 0.0
H145 H 0.5801 0.08418 0.25604 0.0
H146 H 0.54097 0.96888 0.25425 0.0
H147 H 0.53774 0.97002 0.29063 0.0
H148 H 0.61886 0.08498 0.22821 0.0
H149 H 0.50435 0.96485 0.22591 0.0
H150 H 0.56458 0.0204 0.17109 0.0
H151 H 0.46721 0.96366 0.16816 0.0
H152 H 0.52186 0.92369 0.20392 0.0
H153 H 0.4593 0.85687 0.19393 0.0
H154 H 0.61985 0.12942 0.20837 0.0
H155 H 0.64967 0.07009 0.16686 0.0
H156 H 0.40372 0.89597 0.15799 0.0
H157 H 0.68488 0.19141 0.19765 0.0
H158 H 0.71522 0.13286 0.15582 0.0
C159 C 0.55662 0.54849 0.63728 0.0
C160 C 0.58697 0.54621 0.6471 0.0
C161 C 0.5525 0.54454 0.61639 0.0
C162 C 0.57871 0.5383 0.60478 0.0
C163 C 0.60959 0.53664 0.61457 0.0
C164 C 0.61367 0.54056 0.63549 0.0
C165 C 0.57372 0.53335 0.58256 0.0
C166 C 0.56823 0.55657 0.57192 0.0
C167 C 0.56412 0.55238 0.55093 0.0
C168 C 0.56565 0.52481 0.54052 0.0
C169 C 0.57058 0.501 0.55084 0.0
C170 C 0.57445 0.50539 0.57188 0.0
C171 C 0.57164 0.47161 0.53959 0.0
C172 C 0.54348 0.45031 0.52268 0.0
C173 C 0.60092 0.46471 0.54561 0.0
C174 C 0.6015 0.43673 0.53518 0.0
C175 C 0.57306 0.4152 0.51839 0.0
C176 C 0.55915 0.57737 0.53979 0.0
C177 C 0.52865 0.58349 0.546 0.0
C178 C 0.58545 0.59576 0.52305 0.0
C179 C 0.58241 0.62088 0.51314 0.0
C180 C 0.55252 0.62746 0.51961 0.0
C181 C 0.52515 0.60817 0.53589 0.0
C182 C 0.54437 0.42261 0.51214 0.0
H183 H 0.53586 0.55322 0.64576 0.0
H184 H 0.52815 0.54567 0.60935 0.0
H185 H 0.6307 0.53238 0.60607 0.0
H186 H 0.63703 0.53824 0.64256 0.0
H187 H 0.56848 0.57875 0.57992 0.0
H188 H 0.57704 0.48643 0.58001 0.0
H189 H 0.56306 0.52199 0.52429 0.0
H190 H 0.52014 0.45454 0.51774 0.0
H191 H 0.62351 0.48098 0.55838 0.0
H192 H 0.62354 0.4314 0.5406 0.0
H193 H 0.50776 0.5694 0.55877 0.0
H194 H 0.6094 0.5917 0.51802 0.0
H195 H 0.52235 0.40686 0.49915 0.0
H196 H 0.50235 0.61339 0.54126 0.0
H197 H 0.60401 0.63578 0.50068 0.0
C198 C 0.12932 0.55176 0.95755 0.0
C199 C 0.08878 0.5256 0.96727 0.0
C200 C 0.13048 0.55351 0.93662 0.0
C201 C 0.0911 0.52944 0.92468 0.0
C202 C 0.05046 0.50344 0.93436 0.0
C203 C 0.04936 0.50134 0.95533 0.0
C204 C 0.093 0.53134 0.90223 0.0
C205 C 0.12616 0.53273 0.89185 0.0
C206 C 0.13269 0.53738 0.87104 0.0
C207 C 0.10041 0.53846 0.86026 0.0
C208 C 0.06412 0.53551 0.87056 0.0
C209 C 0.0626 0.53243 0.89155 0.0
C210 C 1.02604 0.53491 0.86141 0.0
C211 C 1.03353 0.56511 0.85062 0.0
C212 C 0.98082 0.50682 0.86709 0.0
C213 C 0.94586 0.50871 0.8626 0.0
C214 C 0.9534 0.5394 0.85246 0.0
C215 C 0.17433 0.54125 0.86288 0.0
C216 C 0.21361 0.56031 0.87527 0.0
C217 C 0.17507 0.52262 0.84491 0.0
C218 C 0.21173 0.52197 0.8403 0.0
C219 C 0.24936 0.53908 0.85359 0.0
C220 C 0.24902 0.5586 0.87104 0.0
C221 C 0.99841 0.56745 0.84644 0.0
H222 H 0.16043 0.57074 0.96612 0.0
H223 H 0.16238 0.57411 0.92978 0.0
H224 H 1.01951 0.4843 0.92569 0.0
H225 H 1.01746 0.48109 0.96223 0.0
H226 H 0.14724 0.52959 0.90048 0.0
H227 H 1.03756 0.53164 0.89994 0.0
H228 H 0.10339 0.54148 0.84425 0.0
H229 H 0.06712 0.58809 0.84609 0.0
H230 H 0.97237 0.48325 0.87572 0.0
H231 H 0.91266 0.48641 0.86782 0.0
H232 H 0.21691 0.57634 0.88897 0.0
H233 H 0.14655 0.50725 0.83465 0.0
H234 H 1.00674 0.59165 0.83848 0.0
H235 H 0.27675 0.57307 0.88171 0.0
H236 H 0.20967 0.50664 0.82655 0.0
C237 C 1.00453 0.49747 0.35439 0.0
C238 C 0.04352 0.50952 0.34419 0.0
C239 C 1.00314 0.49734 0.37538 0.0
C240 C 0.04084 0.50967 0.38679 0.0
C241 C 0.07972 0.52157 0.37669 0.0
C242 C 0.08099 0.52133 0.35572 0.0
C243 C 0.04015 0.51098 0.40916 0.0
C244 C 1.00442 0.47959 0.41935 0.0
C245 C 1.00446 0.48031 0.44047 0.0
C246 C 0.04058 0.5137 0.45151 0.0
C247 C 0.07637 0.5457 0.44148 0.0
C248 C 0.07581 0.54375 0.4204 0.0
C249 C 0.1151 0.58173 0.45238 0.0
C250 C 0.10929 0.60413 0.46564 0.0
C251 C 0.15872 0.59659 0.44732 0.0
C252 C 0.19559 0.63361 0.45453 0.0
C253 C 0.18996 0.65709 0.46692 0.0
C254 C 0.96684 0.44525 0.45045 0.0
C255 C 0.92255 0.42861 0.44535 0.0
C256 C 0.97449 0.42557 0.46309 0.0
C257 C 0.93867 0.38866 0.46921 0.0
C258 C 0.89439 0.3708 0.46297 0.0
C259 C 0.88689 0.39222 0.45169 0.0
C260 C 0.14635 0.64158 0.47273 0.0
H261 H 0.97515 0.48875 0.3462 0.0
H262 H 0.97283 0.48841 0.38271 0.0
H263 H 0.10916 0.53073 0.38503 0.0
H264 H 0.11134 0.52998 0.34856 0.0
H265 H 0.97711 0.45388 0.41078 0.0
H266 H 0.10305 0.56841 0.41265 0.0
H267 H 0.04093 0.51471 0.46775 0.0
H268 H 0.07601 0.59351 0.46968 0.0
H269 H 0.16421 0.58003 0.4371 0.0
H270 H 0.22843 0.64455 0.44953 0.0
H271 H 0.91556 0.44332 0.43586 0.0
H272 H 1.00832 0.43767 0.46723 0.0
H273 H 0.14081 0.65871 0.4824 0.0
H274 H 0.85336 0.38037 0.44716 0.0
H275 H 0.94604 0.37336 0.47791 0.0
C276 C 0.53475 0.97252 0.67347 0.0
C277 C 0.56039 0.00764 0.66398 0.0
C278 C 0.53583 0.97242 0.69441 0.0
C279 C 0.56277 0.00743 0.70629 0.0
C280 C 0.58949 0.04239 0.69668 0.0
C281 C 0.58821 0.04249 0.67583 0.0
C282 C 0.56213 0.00782 0.72861 0.0
C283 C 0.56042 0.98002 0.7387 0.0
C284 C 0.55928 0.9801 0.7598 0.0
C285 C 0.5603 0.00888 0.77074 0.0
C286 C 0.56333 0.03752 0.76094 0.0
C287 C 0.56354 0.0364 0.73992 0.0
C288 C 0.567 0.06915 0.77254 0.0
C289 C 0.53894 0.06124 0.78869 0.0
C290 C 0.59829 0.10759 0.76718 0.0
C291 C 0.60062 0.13734 0.77734 0.0
C292 C 0.57156 0.12932 0.79304 0.0
C293 C 0.55827 0.95085 0.77038 0.0
C294 C 0.5354 0.91292 0.76185 0.0
C295 C 0.58092 0.96077 0.78892 0.0
C296 C 0.58115 0.93372 0.79849 0.0
C297 C 0.55945 0.89618 0.78963 0.0
C298 C 0.53631 0.8861 0.77123 0.0
C299 C 0.54106 0.09102 0.79878 0.0
H300 H 0.51275 0.94519 0.66477 0.0
H301 H 0.51453 0.94496 0.7013 0.0
H302 H 0.61146 0.06985 0.70527 0.0
H303 H 0.60906 0.07 0.66897 0.0
H304 H 0.56132 0.95901 0.73007 0.0
H305 H 0.56405 0.0576 0.73235 0.0
H306 H 0.55928 0.00941 0.78695 0.0
H307 H 0.51446 0.03189 0.79313 0.0
H308 H 0.62078 0.11464 0.75498 0.0
H309 H 0.62416 0.16644 0.77242 0.0
H310 H 0.51684 0.90382 0.7478 0.0
H311 H 0.59947 0.98974 0.79593 0.0
H312 H 0.51844 0.084 0.81091 0.0
H313 H 0.51973 0.85773 0.76374 0.0
H314 H 0.59874 0.94247 0.81279 0.0
C315 C 0.55054 0.44151 0.01183 0.0
C316 C 0.54281 0.46388 0.00193 0.0
C317 C 0.5486 0.441 0.03258 0.0
C318 C 0.53878 0.46275 0.04356 0.0
C319 C 0.53025 0.48459 0.03367 0.0
C320 C 0.53233 0.48521 0.01294 0.0
C321 C 0.53772 0.46289 0.06538 0.0
C322 C 0.57376 0.47114 0.0763 0.0
C323 C 0.57272 0.47146 0.09719 0.0
C324 C 0.53562 0.46366 0.10711 0.0
C325 C 0.49921 0.4549 0.09621 0.0
C326 C 0.50047 0.45457 0.07529 0.0
C327 C 0.46139 0.44881 0.10673 0.0
C328 C 0.44518 0.42847 0.12429 0.0
C329 C 0.44421 0.46673 0.10019 0.0
C330 C 0.4136 0.46653 0.11163 0.0
C331 C 0.40016 0.449 0.13 0.0
C332 C 0.60822 0.47638 0.10871 0.0
C333 C 0.62004 0.4527 0.10358 0.0
C334 C 0.62599 0.50077 0.12628 0.0
C335 C 0.65256 0.49927 0.13936 0.0
C336 C 0.66131 0.47319 0.13503 0.0
C337 C 0.64639 0.45105 0.11671 0.0
C338 C 0.41501 0.42896 0.13604 0.0
H339 H 0.55845 0.42475 0.00353 0.0
H340 H 0.55476 0.42367 0.04007 0.0
H341 H 0.52307 0.50186 0.04202 0.0
H342 H 0.5272 0.50333 0.00558 0.0
H343 H 0.60262 0.47745 0.06858 0.0
H344 H 0.47229 0.44745 0.06665 0.0
H345 H 0.53505 0.46417 0.12334 0.0
H346 H 0.45742 0.41381 0.12942 0.0
H347 H 0.45668 0.48328 0.08697 0.0
H348 H 0.40357 0.48316 0.10694 0.0
H349 H 0.60656 0.43363 0.09008 0.0
H350 H 0.61753 0.51954 0.13032 0.0
H351 H 0.40521 0.41562 0.15026 0.0
H352 H 0.65361 0.43134 0.11291 0.0
H353 H 0.66396 0.51676 0.15338 0.0
H354 H 0.34446 0.57981 0.20332 0.0
H355 H 0.32401 0.43969 0.12442 0.0
H356 H 0.34083 0.59063 0.14005 0.0
H357 H 0.43287 0.48659 0.1666 0.0
H358 H 0.31562 0.48721 0.1381 0.0
H359 H 0.37751 0.54759 0.19643 0.0
C360 C 0.353 0.57755 0.18806 0.0
C361 C 0.33459 0.58294 0.172 0.0
C362 C 0.34076 0.48648 0.1446 0.0
C363 C 0.37254 0.54781 0.16423 0.0
C364 C 0.34467 0.45883 0.1372 0.0
C365 C 0.37986 0.46022 0.14411 0.0
C366 C 0.37167 0.51484 0.15919 0.0
C367 C 0.40574 0.48526 0.16078 0.0
C368 C 0.37095 0.55842 0.18417 0.0
C369 C 0.35022 0.58305 0.15283 0.0
N370 N 0.40184 0.51253 0.16761 0.0
N371 N 0.36546 0.56279 0.14917 0.0
H372 H 0.71166 0.13306 0.50348 0.0
H373 H 0.82324 0.31702 0.43786 0.0
H374 H 0.64474 0.1414 0.45564 0.0
H375 H 0.87921 0.32836 0.49588 0.0
H376 H 0.76167 0.25002 0.44317 0.0
H377 H 0.77707 0.20171 0.5001 0.0
C378 C 0.7108 0.14918 0.49224 0.0
C379 C 0.67257 0.13147 0.47988 0.0
C380 C 0.78719 0.26707 0.45486 0.0
C381 C 0.74709 0.20944 0.47577 0.0
C382 C 0.82246 0.30575 0.45191 0.0
C383 C 0.85653 0.32918 0.46658 0.0
C384 C 0.78552 0.25077 0.47255 0.0
C385 C 0.85393 0.31169 0.48409 0.0
C386 C 0.74798 0.18833 0.49039 0.0
C387 C 0.67317 0.1538 0.46565 0.0
N388 N 0.81906 0.27358 0.4866 0.0
N389 N 0.70968 0.19124 0.46394 0.0
H390 H 0.66389 0.79103 0.83908 0.0
H391 H 0.49613 0.81678 0.78989 0.0
H392 H 0.54191 0.69821 0.80712 0.0
H393 H 0.63062 0.91172 0.81064 0.0
H394 H 0.50591 0.77148 0.8019 0.0
H395 H 0.64452 0.83348 0.83525 0.0
C396 C 0.63267 0.77935 0.83153 0.0
C397 C 0.60484 0.74114 0.82311 0.0
C398 C 0.53305 0.80227 0.804 0.0
C399 C 0.58284 0.78984 0.81841 0.0
C400 C 0.52766 0.82822 0.79701 0.0
C401 C 0.56283 0.86832 0.79892 0.0
C402 C 0.57378 0.81641 0.81311 0.0
C403 C 0.60238 0.88123 0.80887 0.0
C404 C 0.62181 0.80373 0.82922 0.0
C405 C 0.56488 0.72774 0.81342 0.0
N406 N 0.60686 0.85537 0.81544 0.0
N407 N 0.55528 0.75216 0.81117 0.0
H408 H 0.79093 0.39897 0.18126 0.0
H409 H 0.73574 0.52768 0.15788 0.0
H410 H 0.8427 0.50297 0.21801 0.0
H411 H 0.6349 0.40416 0.14683 0.0
H412 H 0.77133 0.51615 0.18272 0.0
H413 H 0.72462 0.39262 0.1736 0.0
C414 C 0.78704 0.41912 0.18872 0.0
C415 C 0.82313 0.45269 0.19933 0.0
C416 C 0.74074 0.49152 0.17525 0.0
C417 C 0.74875 0.44628 0.19036 0.0
C418 C 0.7208 0.49816 0.16095 0.0
C419 C 0.68282 0.46683 0.15024 0.0
C420 C 0.72272 0.45331 0.17866 0.0
C421 C 0.66487 0.42906 0.15453 0.0
C422 C 0.74944 0.4158 0.18415 0.0
C423 C 0.81623 0.47744 0.20908 0.0
N424 N 0.68541 0.42328 0.16825 0.0
N425 N 0.78061 0.47485 0.20358 0.0
H426 H 0.38069 0.90825 0.47009 0.0
H427 H 0.27474 0.68614 0.47842 0.0
H428 H 0.45747 0.87109 0.48435 0.0
H429 H 0.19559 0.72234 0.46746 0.0
H430 H 0.34118 0.75401 0.48252 0.0
H431 H 0.31226 0.84106 0.47053 0.0
C432 C 0.38326 0.88602 0.47327 0.0
C433 C 0.42514 0.89548 0.47703 0.0
C434 C 0.30927 0.74721 0.47938 0.0
C435 C 0.34658 0.81821 0.4776 0.0
C436 C 0.27123 0.70835 0.47699 0.0
C437 C 0.22939 0.69829 0.47234 0.0
C438 C 0.30585 0.77659 0.47699 0.0
C439 C 0.22699 0.72855 0.47107 0.0
C440 C 0.34406 0.8476 0.4736 0.0
C441 C 0.4261 0.86532 0.48128 0.0
N442 N 0.26468 0.76624 0.47316 0.0
N443 N 0.38757 0.82817 0.48134 0.0
H444 H 0.49102 0.26966 0.81651 0.0
H445 H 0.64278 0.20445 0.80491 0.0
H446 H 0.62922 0.34489 0.8363 0.0
H447 H 0.49868 0.12502 0.80163 0.0
H448 H 0.64013 0.25675 0.81623 0.0
H449 H 0.49463 0.2169 0.81032 0.0
C450 C 0.52222 0.27506 0.81951 0.0
C451 C 0.55998 0.31177 0.82674 0.0
C452 C 0.60914 0.22777 0.81326 0.0
C453 C 0.56438 0.25129 0.81976 0.0
C454 C 0.61061 0.19797 0.80673 0.0
C455 C 0.57087 0.16035 0.80221 0.0
C456 C 0.56764 0.21995 0.81499 0.0
C457 C 0.53012 0.15346 0.80505 0.0
C458 C 0.52418 0.24483 0.81612 0.0
C459 C 0.59935 0.31697 0.83071 0.0
N460 N 0.5296 0.18302 0.81104 0.0
N461 N 0.6007 0.28711 0.82697 0.0
H462 H 0.61838 0.84737 0.50808 0.0
H463 H 0.48394 0.62016 0.5014 0.0
H464 H 0.49897 0.77181 0.4711 0.0
H465 H 0.62319 0.70327 0.51882 0.0
H466 H 0.48574 0.67328 0.49057 0.0
H467 H 0.61762 0.79304 0.51341 0.0
C468 C 0.59194 0.81907 0.50112 0.0
C469 C 0.55856 0.81364 0.4893 0.0
C470 C 0.51595 0.67973 0.49655 0.0
C471 C 0.55725 0.75134 0.49524 0.0
C472 C 0.51489 0.64959 0.50273 0.0
C473 C 0.55349 0.65769 0.51096 0.0
C474 C 0.5556 0.71802 0.49917 0.0
C475 C 0.59287 0.696 0.5124 0.0
C476 C 0.5916 0.78816 0.50403 0.0
C477 C 0.5251 0.77674 0.4804 0.0
N478 N 0.59277 0.72482 0.5068 0.0
N479 N 0.52499 0.74664 0.48371 0.0
H480 H 0.68816 0.48333 0.82524 0.0
H481 H 0.94839 0.59973 0.86223 0.0
H482 H 0.77324 0.60398 0.84503 0.0
H483 H 0.86762 0.48425 0.83452 0.0
H484 H 0.88567 0.60142 0.85754 0.0
H485 H 0.75179 0.48294 0.82931 0.0
C486 C 0.72002 0.50994 0.8305 0.0
C487 C 0.72392 0.5438 0.83459 0.0
C488 C 0.88152 0.57574 0.85223 0.0
C489 C 0.79943 0.54331 0.8399 0.0
C490 C 0.91791 0.57476 0.85488 0.0
C491 C 0.9148 0.54185 0.84873 0.0
C492 C 0.84035 0.54367 0.84306 0.0
C493 C 0.87281 0.51045 0.83971 0.0
C494 C 0.7569 0.50965 0.83285 0.0
C495 C 0.7674 0.57699 0.84135 0.0
N496 N 0.83827 0.51225 0.83717 0.0
N497 N 0.80244 0.57577 0.84387 0.0
H498 H 0.21244 0.62629 0.18984 0.0
H499 H 0.37673 0.83165 0.1404 0.0
H500 H 0.18787 0.64547 0.13122 0.0
H501 H 0.38051 0.81607 0.20313 0.0
H502 H 0.31116 0.76286 0.13558 0.0
H503 H 0.27869 0.69484 0.19383 0.0
C504 C 0.22165 0.64485 0.17766 0.0
C505 C 0.19508 0.63035 0.16013 0.0
C506 C 0.32638 0.77458 0.1504 0.0
C507 C 0.27065 0.70873 0.16449 0.0
C508 C 0.3637 0.8139 0.15317 0.0
C509 C 0.38466 0.82969 0.17215 0.0
C510 C 0.30979 0.75085 0.16674 0.0
C511 C 0.36624 0.80509 0.18813 0.0
C512 C 0.25918 0.68403 0.17997 0.0
C513 C 0.20772 0.65571 0.14495 0.0
N514 N 0.33016 0.76709 0.18505 0.0
N515 N 0.24469 0.6936 0.14741 0.0
H516 H 0.47942 0.19056 0.4716 0.0
H517 H 0.64285 0.41383 0.51032 0.0
H518 H 0.61877 0.25236 0.48588 0.0
H519 H 0.49959 0.34431 0.5033 0.0
H520 H 0.63782 0.35869 0.49652 0.0
H521 H 0.48966 0.25062 0.4777 0.0
C522 C 0.51234 0.21712 0.47581 0.0
C523 C 0.54829 0.21692 0.47835 0.0
C524 C 0.60762 0.35574 0.49784 0.0
C525 C 0.56032 0.28545 0.48571 0.0
C526 C 0.61039 0.38709 0.50581 0.0
C527 C 0.57152 0.38364 0.50818 0.0
C528 C 0.56571 0.32075 0.49216 0.0
C529 C 0.53053 0.34857 0.50164 0.0
C530 C 0.51822 0.25132 0.47934 0.0
C531 C 0.59036 0.25173 0.4838 0.0
N532 N 0.52871 0.31849 0.49407 0.0
N533 N 0.59522 0.28475 0.48752 0.0
H534 H 0.50027 0.5766 0.81394 0.0
H535 H 0.29053 0.52289 0.88033 0.0
H536 H 0.44843 0.49634 0.86026 0.0
H537 H 0.29992 0.55023 0.81889 0.0
H538 H 0.35331 0.52122 0.87552 0.0
H539 H 0.43519 0.57575 0.81746 0.0
C540 C 0.47558 0.55881 0.82495 0.0
C541 C 0.48116 0.53638 0.83669 0.0
C542 C 0.34189 0.52761 0.863 0.0
C543 C 0.40474 0.53609 0.84129 0.0
C544 C 0.30553 0.52867 0.86574 0.0
C545 C 0.2883 0.53662 0.85008 0.0
C546 C 0.36375 0.53574 0.84447 0.0
C547 C 0.31065 0.54364 0.8316 0.0
C548 C 0.43784 0.55827 0.82692 0.0
C549 C 0.44665 0.5141 0.85062 0.0
N550 N 0.34677 0.54354 0.82948 0.0
N551 N 0.41114 0.51496 0.85263 0.0
H552 H 0.93815 0.4098 0.18605 0.0
H553 H 0.74556 0.19475 0.13953 0.0
H554 H 0.94446 0.37252 0.12598 0.0
H555 H 0.76504 0.2283 0.20276 0.0
H556 H 0.81477 0.25966 0.13315 0.0
H557 H 0.87126 0.3439 0.19143 0.0
C558 C 0.92501 0.38773 0.17388 0.0
C559 C 0.94664 0.3967 0.15549 0.0
C560 C 0.80389 0.25266 0.14841 0.0
C561 C 0.86939 0.32083 0.16144 0.0
C562 C 0.76443 0.21557 0.15207 0.0
C563 C 0.74895 0.206 0.17171 0.0
C564 C 0.82812 0.28044 0.16449 0.0
C565 C 0.77486 0.23442 0.18733 0.0
C566 C 0.88692 0.34999 0.17699 0.0
C567 C 0.92869 0.36676 0.14038 0.0
N568 N 0.81278 0.27013 0.18338 0.0
N569 N 0.89083 0.33023 0.1436 0.0
H570 H 0.04406 0.46024 0.09259 0.0
H571 H 0.13445 0.5867 0.99562 0.0
H572 H 0.09614 0.57909 0.0936 0.0
H573 H 0.04089 0.46192 0.9904 0.0
H574 H 0.13173 0.58478 0.03211 0.0
H575 H 0.05354 0.46069 0.05584 0.0
C576 C 0.05831 0.48658 0.08515 0.0
C577 C 0.06942 0.51972 0.09614 0.0
C578 C 0.11185 0.55776 0.02302 0.0
C579 C 0.08043 0.52054 0.05428 0.0
C580 C 0.11355 0.55881 0.0021 0.0
C581 C 0.08773 0.52443 0.98974 0.0
C582 C 0.0845 0.52203 0.03192 0.0
C583 C 0.06097 0.48922 -0.00076 0.0
C584 C 0.06333 0.48675 0.06419 0.0
C585 C 0.08706 0.55289 0.0857 0.0
N586 N 0.06011 0.48891 0.01969 0.0
N587 N 0.09213 0.5525 0.0655 0.0
H588 H 0.49074 0.97466 0.41928 0.0
H589 H 0.62168 0.08527 0.32106 0.0
H590 H 0.63292 0.06659 0.41818 0.0
H591 H 0.4923 0.97232 0.3183 0.0
H592 H 0.62157 0.08488 0.35764 0.0
H593 H 0.48598 0.97948 0.38308 0.0
C594 C 0.52078 0.9961 0.41145 0.0
C595 C 0.56234 0.02004 0.42159 0.0
C596 C 0.59308 0.06026 0.34904 0.0
C597 C 0.55719 0.02586 0.38052 0.0
C598 C 0.59304 0.06057 0.32819 0.0
C599 C 0.55703 0.02872 0.31665 0.0
C600 C 0.55663 0.02804 0.35848 0.0
C601 C 0.52094 0.99727 0.32665 0.0
C602 C 0.51811 0.99872 0.39085 0.0
C603 C 0.6003 0.04734 0.41084 0.0
N604 N 0.52162 0.99771 0.34701 0.0
N605 N 0.59684 0.04949 0.3909 0.0
H606 H 0.51387 0.49705 0.7699 0.0
H607 H 0.6612 0.58277 0.6721 0.0
H608 H 0.65736 0.56576 0.77215 0.0
H609 H 0.5175 0.51285 0.6729 0.0
H610 H 0.66257 0.58157 0.70871 0.0
H611 H 0.51679 0.50821 0.73464 0.0
C612 C 0.54616 0.51468 0.76292 0.0
C613 C 0.5854 0.53006 0.77386 0.0
C614 C 0.63084 0.56676 0.70084 0.0
C615 C 0.58905 0.54282 0.73318 0.0
C616 C 0.62997 0.56724 0.67995 0.0
C617 C 0.58914 0.54781 0.66936 0.0
C618 C 0.59056 0.5466 0.71119 0.0
C619 C 0.54982 0.52866 0.68036 0.0
C620 C 0.54782 0.52108 0.74273 0.0
C621 C 0.62633 0.55317 0.76414 0.0
N622 N 0.55155 0.52841 0.70058 0.0
N623 N 0.62711 0.55855 0.74421 0.0
H624 H 0.55568 0.97327 0.53381 0.0
H625 H 0.55427 0.05583 0.6437 0.0
H626 H 0.52546 0.05133 0.5457 0.0
H627 H 0.55864 0.96103 0.63396 0.0
H628 H 0.55004 0.05795 0.60757 0.0
H629 H 0.56328 0.97166 0.57011 0.0
C630 C 0.55144 0.99056 0.54409 0.0
C631 C 0.54047 0.01282 0.53691 0.0
C632 C 0.55193 0.03664 0.61327 0.0
C633 C 0.54869 0.011 0.57821 0.0
C634 C 0.55463 0.03558 0.63393 0.0
C635 C 0.55712 0.00838 0.6419 0.0
C636 C 0.55188 0.01043 0.6003 0.0
C637 C 0.55655 0.98235 0.62847 0.0
C638 C 0.55535 0.98938 0.56477 0.0
C639 C 0.5341 0.03393 0.55075 0.0
N640 N 0.55418 0.98411 0.60831 0.0
N641 N 0.53849 0.03265 0.57072 0.0
H642 H 0.53299 0.50912 0.88085 0.0
H643 H 0.6122 0.4776 0.98082 0.0
H644 H 0.67092 0.56356 0.89492 0.0
H645 H 0.4883 0.45944 0.97435 0.0
H646 H 0.62812 0.49388 0.94582 0.0
H647 H 0.5112 0.47685 0.91207 0.0
C648 C 0.55867 0.5142 0.89058 0.0
C649 C 0.60383 0.5393 0.88565 0.0
C650 C 0.59725 0.48586 0.95204 0.0
C651 C 0.57917 0.50237 0.92106 0.0
C652 C 0.58797 0.47628 0.97186 0.0
C653 C 0.54916 0.46764 0.98034 0.0
C654 C 0.5674 0.48666 0.94082 0.0
C655 C 0.51891 0.46656 0.96831 0.0
C656 C 0.5462 0.49573 0.90831 0.0
C657 C 0.63586 0.54487 0.89855 0.0
N658 N 0.52889 0.47637 0.9491 0.0
N659 N 0.62287 0.52648 0.91585 0.0
H660 H 0.12453 0.56099 0.21959 0.0
H661 H 0.97607 0.4586 0.31632 0.0
H662 H 0.99224 0.45114 0.21679 0.0
H663 H 0.11461 0.56072 0.32035 0.0
H664 H 0.97949 0.45907 0.27986 0.0
H665 H 0.11986 0.56481 0.25633 0.0
C666 C 0.09413 0.53813 0.2267 0.0
C667 C 0.05855 0.50582 0.21516 0.0
C668 C 1.00919 0.48139 0.28871 0.0
C669 C 0.05288 0.50986 0.25715 0.0
C670 C 1.0072 0.48134 0.30964 0.0
C671 C 0.04511 0.50964 0.3217 0.0
C672 C 0.04939 0.50991 0.27951 0.0
C673 C 0.08461 0.53787 0.31186 0.0
C674 C 0.09158 0.54012 0.24767 0.0
C675 C 1.02037 0.47654 0.22515 0.0
N676 N 0.0857 0.53726 0.29144 0.0
N677 N 1.01848 0.4793 0.24549 0.0
loop_
_geom_bond_atom_site_label_1
_geom_bond_atom_site_label_2
_geom_bond_distance
_geom_bond_site_symmetry_2
_ccdc_geom_bond_type
Gd0 C3 2.818 . S
Gd0 O20 2.377 . S
Gd0 O22 2.448 . S
Gd0 O23 2.506 . S
Gd0 O24 2.435 . S
Gd0 O25 2.717 . S
Gd0 O27 2.395 1_455 S
Gd0 O31 2.327 . S
Gd1 C12 2.818 1_455 S
Gd1 O21 2.395 . S
Gd1 O25 2.327 . S
Gd1 O26 2.377 1_455 S
Gd1 O28 2.448 1_455 S
Gd1 O29 2.506 1_455 S
Gd1 O30 2.435 . S
Gd1 O31 2.717 . S
C2 O20 1.240 . S
C2 O21 1.240 . S
C3 Gd0 2.818 . S
C3 C4 1.510 . S
C3 O22 1.249 . S
C3 O23 1.252 . S
C4 C3 1.510 . S
C4 C5 1.404 . S
C4 C6 1.352 . S
C5 C4 1.404 . S
C5 C9 1.389 . S
C5 H32 0.930 . S
C6 C4 1.352 . S
C6 C8 1.374 . S
C6 H33 0.931 . S
C7 C8 1.359 . S
C7 C9 1.364 . S
C8 C6 1.374 . S
C8 C7 1.359 . S
C8 H34 0.931 . S
C9 C5 1.389 . S
C9 C7 1.364 . S
C9 H35 0.931 . S
C10 O24 1.256 . S
C10 O25 1.257 . S
C11 O26 1.240 . S
C11 O27 1.240 . S
C12 Gd1 2.818 1_655 S
C12 C13 1.510 . S
C12 O28 1.249 . S
C12 O29 1.252 . S
C13 C12 1.510 . S
C13 C14 1.404 . S
C13 C15 1.352 . S
C14 C13 1.404 . S
C14 C18 1.389 . S
C14 H36 0.930 . S
C15 C13 1.352 . S
C15 C17 1.374 . S
C15 H37 0.931 . S
C16 C17 1.359 . S
C16 C18 1.364 . S
C17 C15 1.374 . S
C17 C16 1.359 . S
C17 H38 0.931 . S
C18 C14 1.389 . S
C18 C16 1.364 . S
C18 H39 0.931 . S
C19 O30 1.256 . S
C19 O31 1.257 . S
O20 Gd0 2.377 . S
O20 C2 1.240 . S
O21 Gd1 2.395 . S
O21 C2 1.240 . S
O22 Gd0 2.448 . S
O22 C3 1.249 . S
O23 Gd0 2.506 . S
O23 C3 1.252 . S
O24 Gd0 2.435 . S
O24 C10 1.256 . S
O25 Gd0 2.717 . S
O25 Gd1 2.327 . S
O25 C10 1.257 . S
O26 Gd1 2.377 1_655 S
O26 C11 1.240 . S
O27 Gd0 2.395 1_655 S
O27 C11 1.240 . S
O28 Gd1 2.448 1_655 S
O28 C12 1.249 . S
O29 Gd1 2.506 1_655 S
O29 C12 1.252 . S
O30 Gd1 2.435 . S
O30 C19 1.256 . S
O31 Gd0 2.327 . S
O31 Gd1 2.717 . S
O31 C19 1.257 . S
H32 C5 0.930 . S
H33 C6 0.931 . S
H34 C8 0.931 . S
H35 C9 0.931 . S
H36 C14 0.930 . S
H37 C15 0.931 . S
H38 C17 0.931 . S
H39 C18 0.931 . S
Gd40 C43 2.818 . S
Gd40 O60 2.377 . S
Gd40 O62 2.448 . S
Gd40 O63 2.506 . S
Gd40 O64 2.435 . S
Gd40 O65 2.717 1_565 S
Gd40 O67 2.395 1_565 S
Gd40 O71 2.327 1_565 S
Gd41 C52 2.818 . S
Gd41 O61 2.395 1_545 S
Gd41 O65 2.327 . S
Gd41 O66 2.377 . S
Gd41 O68 2.448 . S
Gd41 O69 2.506 . S
Gd41 O70 2.435 . S
Gd41 O71 2.717 . S
C42 O60 1.240 . S
C42 O61 1.240 . S
C43 Gd40 2.818 . S
C43 C44 1.510 . S
C43 O62 1.249 . S
C43 O63 1.252 . S
C44 C43 1.510 . S
C44 C45 1.404 . S
C44 C46 1.352 . S
C45 C44 1.404 . S
C45 C49 1.389 . S
C45 H72 0.930 . S
C46 C44 1.352 . S
C46 C48 1.374 . S
C46 H73 0.931 . S
C47 C48 1.359 . S
C47 C49 1.364 . S
C48 C46 1.374 . S
C48 C47 1.359 . S
C48 H74 0.931 . S
C49 C45 1.389 . S
C49 C47 1.364 . S
C49 H75 0.931 . S
C50 O64 1.256 1_545 S
C50 O65 1.257 . S
C51 O66 1.240 . S
C51 O67 1.240 . S
C52 Gd41 2.818 . S
C52 C53 1.510 . S
C52 O68 1.249 . S
C52 O69 1.252 . S
C53 C52 1.510 . S
C53 C54 1.404 . S
C53 C55 1.352 . S
C54 C53 1.404 . S
C54 C58 1.389 . S
C54 H76 0.930 . S
C55 C53 1.352 . S
C55 C57 1.374 . S
C55 H77 0.931 . S
C56 C57 1.359 . S
C56 C58 1.364 . S
C57 C55 1.374 . S
C57 C56 1.359 . S
C57 H78 0.931 . S
C58 C54 1.389 . S
C58 C56 1.364 . S
C58 H79 0.931 . S
C59 O70 1.256 . S
C59 O71 1.257 . S
O60 Gd40 2.377 . S
O60 C42 1.240 . S
O61 Gd41 2.395 1_565 S
O61 C42 1.240 . S
O62 Gd40 2.448 . S
O62 C43 1.249 . S
O63 Gd40 2.506 . S
O63 C43 1.252 . S
O64 Gd40 2.435 . S
O64 C50 1.256 1_565 S
O65 Gd40 2.717 1_545 S
O65 Gd41 2.327 . S
O65 C50 1.257 . S
O66 Gd41 2.377 . S
O66 C51 1.240 . S
O67 Gd40 2.395 1_545 S
O67 C51 1.240 . S
O68 Gd41 2.448 . S
O68 C52 1.249 . S
O69 Gd41 2.506 . S
O69 C52 1.252 . S
O70 Gd41 2.435 . S
O70 C59 1.256 . S
O71 Gd40 2.327 1_545 S
O71 Gd41 2.717 . S
O71 C59 1.257 . S
H72 C45 0.930 . S
H73 C46 0.931 . S
H74 C48 0.931 . S
H75 C49 0.931 . S
H76 C54 0.930 . S
H77 C55 0.931 . S
H78 C57 0.931 . S
H79 C58 0.931 . S
Gd80 C83 2.818 . S
Gd80 O100 2.377 . S
Gd80 O102 2.448 . S
Gd80 O103 2.506 . S
Gd80 O104 2.435 . S
Gd80 O105 2.717 . S
Gd80 O107 2.395 . S
Gd80 O111 2.327 . S
Gd81 C92 2.818 . S
Gd81 O101 2.395 . S
Gd81 O105 2.327 . S
Gd81 O106 2.377 . S
Gd81 O108 2.448 . S
Gd81 O109 2.506 . S
Gd81 O110 2.435 . S
Gd81 O111 2.717 . S
C82 O100 1.240 . S
C82 O101 1.240 . S
C83 Gd80 2.818 . S
C83 C84 1.510 . S
C83 O102 1.249 . S
C83 O103 1.252 . S
C84 C83 1.510 . S
C84 C85 1.404 . S
C84 C86 1.352 . S
C85 C84 1.404 . S
C85 C89 1.389 . S
C85 H112 0.930 . S
C86 C84 1.352 . S
C86 C88 1.374 . S
C86 H113 0.931 . S
C87 C88 1.359 . S
C87 C89 1.364 . S
C88 C86 1.374 . S
C88 C87 1.359 . S
C88 H114 0.931 . S
C89 C85 1.389 . S
C89 C87 1.364 . S
C89 H115 0.931 . S
C90 O104 1.256 . S
C90 O105 1.257 . S
C91 O106 1.240 . S
C91 O107 1.240 . S
C92 Gd81 2.818 . S
C92 C93 1.510 . S
C92 O108 1.249 . S
C92 O109 1.252 . S
C93 C92 1.510 . S
C93 C94 1.404 . S
C93 C95 1.352 . S
C94 C93 1.404 . S
C94 C98 1.389 . S
C94 H116 0.930 . S
C95 C93 1.352 . S
C95 C97 1.374 . S
C95 H117 0.931 . S
C96 C97 1.359 . S
C96 C98 1.364 . S
C97 C95 1.374 . S
C97 C96 1.359 . S
C97 H118 0.931 . S
C98 C94 1.389 . S
C98 C96 1.364 . S
C98 H119 0.931 . S
C99 O110 1.256 . S
C99 O111 1.257 . S
O100 Gd80 2.377 . S
O100 C82 1.240 . S
O101 Gd81 2.395 . S
O101 C82 1.240 . S
O102 Gd80 2.448 . S
O102 C83 1.249 . S
O103 Gd80 2.506 . S
O103 C83 1.252 . S
O104 Gd80 2.435 . S
O104 C90 1.256 . S
O105 Gd80 2.717 . S
O105 Gd81 2.327 . S
O105 C90 1.257 . S
O106 Gd81 2.377 . S
O106 C91 1.240 . S
O107 Gd80 2.395 . S
O107 C91 1.240 . S
O108 Gd81 2.448 . S
O108 C92 1.249 . S
O109 Gd81 2.506 . S
O109 C92 1.252 . S
O110 Gd81 2.435 . S
O110 C99 1.256 . S
O111 Gd80 2.327 . S
O111 Gd81 2.717 . S
O111 C99 1.257 . S
H112 C85 0.930 . S
H113 C86 0.931 . S
H114 C88 0.931 . S
H115 C89 0.931 . S
H116 C94 0.930 . S
H117 C95 0.931 . S
H118 C97 0.931 . S
H119 C98 0.931 . S
C120 C121 1.386 . S
C120 C122 1.397 . S
C120 H144 0.931 . S
C121 C120 1.386 . S
C121 C125 1.397 1_545 S
C122 C120 1.397 . S
C122 C123 1.384 . S
C122 H145 0.930 . S
C123 C122 1.384 . S
C123 C124 1.377 1_545 S
C123 C126 1.481 . S
C124 C123 1.377 1_565 S
C124 C125 1.389 . S
C124 H146 0.929 . S
C125 C121 1.397 1_565 S
C125 C124 1.389 . S
C125 H147 0.931 . S
C126 C123 1.481 . S
C126 C127 1.387 . S
C126 C131 1.390 1_545 S
C127 C126 1.387 . S
C127 C128 1.401 . S
C127 H148 0.930 . S
C128 C127 1.401 . S
C128 C129 1.376 . S
C128 C137 1.511 . S
C129 C128 1.376 . S
C129 C130 1.392 1_545 S
C129 H150 0.931 . S
C130 C129 1.392 1_565 S
C130 C131 1.361 . S
C130 C132 1.500 . S
C131 C126 1.390 1_565 S
C131 C130 1.361 . S
C131 H149 0.931 . S
C132 C130 1.500 . S
C132 C133 1.371 . S
C132 C134 1.365 . S
C133 C132 1.371 . S
C133 C143 1.386 . S
C133 H151 0.931 . S
C134 C132 1.365 . S
C134 C135 1.409 . S
C134 H152 0.929 . S
C135 C134 1.409 . S
C135 C136 1.380 . S
C135 H153 0.930 . S
C136 C135 1.380 . S
C136 C143 1.357 . S
C137 C128 1.511 . S
C137 C138 1.341 . S
C137 C139 1.371 . S
C138 C137 1.341 . S
C138 C142 1.394 . S
C138 H154 0.930 . S
C139 C137 1.371 . S
C139 C140 1.392 . S
C139 H155 0.931 . S
C140 C139 1.392 . S
C140 C141 1.331 . S
C140 H158 0.932 . S
C141 C140 1.331 . S
C141 C142 1.336 . S
C142 C138 1.394 . S
C142 C141 1.336 . S
C142 H157 0.929 . S
C143 C133 1.386 . S
C143 C136 1.357 . S
C143 H156 0.928 . S
H144 C120 0.931 . S
H145 C122 0.930 . S
H146 C124 0.929 . S
H147 C125 0.931 . S
H148 C127 0.930 . S
H149 C131 0.931 . S
H150 C129 0.931 . S
H151 C133 0.931 . S
H152 C134 0.929 . S
H153 C135 0.930 . S
H154 C138 0.930 . S
H155 C139 0.931 . S
H156 C143 0.928 . S
H157 C142 0.929 . S
H158 C140 0.932 . S
C159 C160 1.386 . S
C159 C161 1.397 . S
C159 H183 0.931 . S
C160 C159 1.386 . S
C160 C164 1.397 . S
C161 C159 1.397 . S
C161 C162 1.384 . S
C161 H184 0.930 . S
C162 C161 1.384 . S
C162 C163 1.377 . S
C162 C165 1.481 . S
C163 C162 1.377 . S
C163 C164 1.389 . S
C163 H185 0.929 . S
C164 C160 1.397 . S
C164 C163 1.389 . S
C164 H186 0.931 . S
C165 C162 1.481 . S
C165 C166 1.387 . S
C165 C170 1.390 . S
C166 C165 1.387 . S
C166 C167 1.401 . S
C166 H187 0.930 . S
C167 C166 1.401 . S
C167 C168 1.376 . S
C167 C176 1.511 . S
C168 C167 1.376 . S
C168 C169 1.392 . S
C168 H189 0.931 . S
C169 C168 1.392 . S
C169 C170 1.361 . S
C169 C171 1.500 . S
C170 C165 1.390 . S
C170 C169 1.361 . S
C170 H188 0.931 . S
C171 C169 1.500 . S
C171 C172 1.371 . S
C171 C173 1.365 . S
C172 C171 1.371 . S
C172 C182 1.386 . S
C172 H190 0.931 . S
C173 C171 1.365 . S
C173 C174 1.409 . S
C173 H191 0.929 . S
C174 C173 1.409 . S
C174 C175 1.380 . S
C174 H192 0.930 . S
C175 C174 1.380 . S
C175 C182 1.357 . S
C176 C167 1.511 . S
C176 C177 1.341 . S
C176 C178 1.371 . S
C177 C176 1.341 . S
C177 C181 1.394 . S
C177 H193 0.930 . S
C178 C176 1.371 . S
C178 C179 1.392 . S
C178 H194 0.931 . S
C179 C178 1.392 . S
C179 C180 1.331 . S
C179 H197 0.932 . S
C180 C179 1.331 . S
C180 C181 1.336 . S
C181 C177 1.394 . S
C181 C180 1.336 . S
C181 H196 0.929 . S
C182 C172 1.386 . S
C182 C175 1.357 . S
C182 H195 0.928 . S
H183 C159 0.931 . S
H184 C161 0.930 . S
H185 C163 0.929 . S
H186 C164 0.931 . S
H187 C166 0.930 . S
H188 C170 0.931 . S
H189 C168 0.931 . S
H190 C172 0.931 . S
H191 C173 0.929 . S
H192 C174 0.930 . S
H193 C177 0.930 . S
H194 C178 0.931 . S
H195 C182 0.928 . S
H196 C181 0.929 . S
H197 C179 0.932 . S
C198 C199 1.386 . S
C198 C200 1.397 . S
C198 H222 0.931 . S
C199 C198 1.386 . S
C199 C203 1.397 . S
C200 C198 1.397 . S
C200 C201 1.384 . S
C200 H223 0.930 . S
C201 C200 1.384 . S
C201 C202 1.377 . S
C201 C204 1.481 . S
C202 C201 1.377 . S
C202 C203 1.389 . S
C202 H224 0.929 1_455 S
C203 C199 1.397 . S
C203 C202 1.389 . S
C203 H225 0.931 1_455 S
C204 C201 1.481 . S
C204 C205 1.387 . S
C204 C209 1.390 . S
C205 C204 1.387 . S
C205 C206 1.401 . S
C205 H226 0.930 . S
C206 C205 1.401 . S
C206 C207 1.376 . S
C206 C215 1.511 . S
C207 C206 1.376 . S
C207 C208 1.392 . S
C207 H228 0.931 . S
C208 C207 1.392 . S
C208 C209 1.361 . S
C208 C210 1.510 . S
C209 C204 1.390 . S
C209 C208 1.361 . S
C209 H227 0.931 . S
C210 C208 1.510 . S
C210 C211 1.370 . S
C210 C212 1.355 1_455 S
C211 C210 1.370 . S
C211 C221 1.386 1_455 S
C211 H229 0.931 . S
C212 C210 1.355 1_655 S
C212 C213 1.409 . S
C212 H230 0.929 . S
C213 C212 1.409 . S
C213 C214 1.380 . S
C213 H231 0.930 . S
C214 C213 1.380 . S
C214 C221 1.357 . S
C215 C206 1.511 . S
C215 C216 1.341 . S
C215 C217 1.371 . S
C216 C215 1.341 . S
C216 C220 1.394 . S
C216 H232 0.930 . S
C217 C215 1.371 . S
C217 C218 1.392 . S
C217 H233 0.931 . S
C218 C217 1.392 . S
C218 C219 1.331 . S
C218 H236 0.932 . S
C219 C218 1.331 . S
C219 C220 1.336 . S
C220 C216 1.394 . S
C220 C219 1.336 . S
C220 H235 0.929 . S
C221 C211 1.386 1_655 S
C221 C214 1.357 . S
C221 H234 0.928 . S
H222 C198 0.931 . S
H223 C200 0.930 . S
H224 C202 0.929 1_655 S
H225 C203 0.931 1_655 S
H226 C205 0.930 . S
H227 C209 0.931 . S
H228 C207 0.931 . S
H229 C211 0.931 . S
H230 C212 0.929 . S
H231 C213 0.930 . S
H232 C216 0.930 . S
H233 C217 0.931 . S
H234 C221 0.928 . S
H235 C220 0.929 . S
H236 C218 0.932 . S
C237 C238 1.386 . S
C237 C239 1.397 . S
C237 H261 0.931 . S
C238 C237 1.386 . S
C238 C242 1.397 1_655 S
C239 C237 1.397 . S
C239 C240 1.384 . S
C239 H262 0.930 . S
C240 C239 1.384 . S
C240 C241 1.377 1_655 S
C240 C243 1.481 . S
C241 C240 1.377 1_455 S
C241 C242 1.389 . S
C241 H263 0.929 . S
C242 C238 1.397 1_455 S
C242 C241 1.389 . S
C242 H264 0.931 . S
C243 C240 1.481 . S
C243 C244 1.387 . S
C243 C248 1.390 1_655 S
C244 C243 1.387 . S
C244 C245 1.401 . S
C244 H265 0.930 . S
C245 C244 1.401 . S
C245 C246 1.385 . S
C245 C254 1.511 . S
C246 C245 1.385 . S
C246 C247 1.382 1_655 S
C246 H267 0.931 . S
C247 C246 1.382 1_455 S
C247 C248 1.361 . S
C247 C249 1.500 . S
C248 C243 1.390 1_455 S
C248 C247 1.361 . S
C248 H266 0.931 . S
C249 C247 1.500 . S
C249 C250 1.371 . S
C249 C251 1.365 . S
C250 C249 1.371 . S
C250 C260 1.386 . S
C250 H268 0.931 . S
C251 C249 1.365 . S
C251 C252 1.409 . S
C251 H269 0.929 . S
C252 C251 1.409 . S
C252 C253 1.380 . S
C252 H270 0.930 . S
C253 C252 1.380 . S
C253 C260 1.357 . S
C254 C245 1.511 . S
C254 C255 1.341 . S
C254 C256 1.371 . S
C255 C254 1.341 . S
C255 C259 1.394 . S
C255 H271 0.930 . S
C256 C254 1.371 . S
C256 C257 1.392 . S
C256 H272 0.931 . S
C257 C256 1.392 . S
C257 C258 1.331 . S
C257 H275 0.932 . S
C258 C257 1.331 . S
C258 C259 1.336 . S
C259 C255 1.394 . S
C259 C258 1.336 . S
C259 H274 0.929 . S
C260 C250 1.386 . S
C260 C253 1.357 . S
C260 H273 0.928 . S
H261 C237 0.931 . S
H262 C239 0.930 . S
H263 C241 0.929 . S
H264 C242 0.931 . S
H265 C244 0.930 . S
H266 C248 0.931 . S
H267 C246 0.931 . S
H268 C250 0.931 . S
H269 C251 0.929 . S
H270 C252 0.930 . S
H271 C255 0.930 . S
H272 C256 0.931 . S
H273 C260 0.928 . S
H274 C259 0.929 . S
H275 C257 0.932 . S
C276 C277 1.386 . S
C276 C278 1.397 . S
C276 H300 0.931 . S
C277 C276 1.386 . S
C277 C281 1.397 1_565 S
C278 C276 1.397 . S
C278 C279 1.384 . S
C278 H301 0.930 . S
C279 C278 1.384 . S
C279 C280 1.377 1_565 S
C279 C282 1.481 1_565 S
C280 C279 1.377 1_545 S
C280 C281 1.389 . S
C280 H302 0.929 . S
C281 C277 1.397 1_545 S
C281 C280 1.389 . S
C281 H303 0.931 . S
C282 C279 1.481 1_545 S
C282 C283 1.377 1_545 S
C282 C287 1.400 . S
C283 C282 1.377 1_565 S
C283 C284 1.401 . S
C283 H304 0.930 . S
C284 C283 1.401 . S
C284 C285 1.376 1_565 S
C284 C293 1.511 . S
C285 C284 1.376 1_545 S
C285 C286 1.392 . S
C285 H306 0.931 . S
C286 C285 1.392 . S
C286 C287 1.361 . S
C286 C288 1.500 . S
C287 C282 1.400 . S
C287 C286 1.361 . S
C287 H305 0.931 . S
C288 C286 1.500 . S
C288 C289 1.371 . S
C288 C290 1.365 . S
C289 C288 1.371 . S
C289 C299 1.386 . S
C289 H307 0.931 . S
C290 C288 1.365 . S
C290 C291 1.409 . S
C290 H308 0.929 . S
C291 C290 1.409 . S
C291 C292 1.380 . S
C291 H309 0.930 . S
C292 C291 1.380 . S
C292 C299 1.357 . S
C293 C284 1.511 . S
C293 C294 1.341 . S
C293 C295 1.371 . S
C294 C293 1.341 . S
C294 C298 1.394 . S
C294 H310 0.930 . S
C295 C293 1.371 . S
C295 C296 1.392 . S
C295 H311 0.931 . S
C296 C295 1.392 . S
C296 C297 1.331 . S
C296 H314 0.932 . S
C297 C296 1.331 . S
C297 C298 1.336 . S
C298 C294 1.394 . S
C298 C297 1.336 . S
C298 H313 0.929 . S
C299 C289 1.386 . S
C299 C292 1.357 . S
C299 H312 0.928 . S
H300 C276 0.931 . S
H301 C278 0.930 . S
H302 C280 0.929 . S
H303 C281 0.931 . S
H304 C283 0.930 . S
H305 C287 0.931 . S
H306 C285 0.931 . S
H307 C289 0.931 . S
H308 C290 0.929 . S
H309 C291 0.930 . S
H310 C294 0.930 . S
H311 C295 0.931 . S
H312 C299 0.928 . S
H313 C298 0.929 . S
H314 C296 0.932 . S
C315 C316 1.386 . S
C315 C317 1.397 . S
C315 H339 0.931 . S
C316 C315 1.386 . S
C316 C320 1.397 . S
C317 C315 1.397 . S
C317 C318 1.384 . S
C317 H340 0.930 . S
C318 C317 1.384 . S
C318 C319 1.377 . S
C318 C321 1.481 . S
C319 C318 1.377 . S
C319 C320 1.389 . S
C319 H341 0.929 . S
C320 C316 1.397 . S
C320 C319 1.389 . S
C320 H342 0.931 . S
C321 C318 1.481 . S
C321 C322 1.387 . S
C321 C326 1.390 . S
C322 C321 1.387 . S
C322 C323 1.401 . S
C322 H343 0.930 . S
C323 C322 1.401 . S
C323 C324 1.376 . S
C323 C332 1.511 . S
C324 C323 1.376 . S
C324 C325 1.392 . S
C324 H345 0.931 . S
C325 C324 1.392 . S
C325 C326 1.361 . S
C325 C327 1.500 . S
C326 C321 1.390 . S
C326 C325 1.361 . S
C326 H344 0.931 . S
C327 C325 1.500 . S
C327 C328 1.371 . S
C327 C329 1.365 . S
C328 C327 1.371 . S
C328 C338 1.386 . S
C328 H346 0.931 . S
C329 C327 1.365 . S
C329 C330 1.409 . S
C329 H347 0.929 . S
C330 C329 1.409 . S
C330 C331 1.380 . S
C330 H348 0.930 . S
C331 C330 1.380 . S
C331 C338 1.357 . S
C332 C323 1.511 . S
C332 C333 1.341 . S
C332 C334 1.371 . S
C333 C332 1.341 . S
C333 C337 1.394 . S
C333 H349 0.930 . S
C334 C332 1.371 . S
C334 C335 1.392 . S
C334 H350 0.931 . S
C335 C334 1.392 . S
C335 C336 1.331 . S
C335 H353 0.932 . S
C336 C335 1.331 . S
C336 C337 1.336 . S
C337 C333 1.394 . S
C337 C336 1.336 . S
C337 H352 0.929 . S
C338 C328 1.386 . S
C338 C331 1.357 . S
C338 H351 0.928 . S
H339 C315 0.931 . S
H340 C317 0.930 . S
H341 C319 0.929 . S
H342 C320 0.931 . S
H343 C322 0.930 . S
H344 C326 0.931 . S
H345 C324 0.931 . S
H346 C328 0.931 . S
H347 C329 0.929 . S
H348 C330 0.930 . S
H349 C333 0.930 . S
H350 C334 0.931 . S
H351 C338 0.928 . S
H352 C337 0.929 . S
H353 C335 0.932 . S
H354 C360 0.930 . S
H355 C364 0.930 . S
H356 C369 0.929 . S
H357 C367 0.929 . S
H358 C362 0.929 . S
H359 C368 0.929 . S
C360 H354 0.930 . S
C360 C361 1.367 . S
C360 C368 1.378 . S
C361 C360 1.367 . S
C361 C369 1.433 . S
C362 H358 0.929 . S
C362 C364 1.378 . S
C362 C366 1.350 . S
C363 C366 1.463 . S
C363 C368 1.350 . S
C363 N371 1.427 . S
C364 H355 0.930 . S
C364 C362 1.378 . S
C364 C365 1.367 . S
C365 C364 1.367 . S
C365 C367 1.433 . S
C366 C362 1.350 . S
C366 C363 1.463 . S
C366 N370 1.427 . S
C367 H357 0.929 . S
C367 C365 1.433 . S
C367 N370 1.384 . S
C368 H359 0.929 . S
C368 C360 1.378 . S
C368 C363 1.350 . S
C369 H356 0.929 . S
C369 C361 1.433 . S
C369 N371 1.384 . S
N370 C366 1.427 . S
N370 C367 1.384 . S
N371 C363 1.427 . S
N371 C369 1.384 . S
H372 C378 0.930 . S
H373 C382 0.930 . S
H374 C387 0.929 . S
H375 C385 0.929 . S
H376 C380 0.929 . S
H377 C386 0.929 . S
C378 H372 0.930 . S
C378 C379 1.367 . S
C378 C386 1.378 . S
C379 C378 1.367 . S
C379 C387 1.433 . S
C380 H376 0.929 . S
C380 C382 1.378 . S
C380 C384 1.350 . S
C381 C384 1.463 . S
C381 C386 1.350 . S
C381 N389 1.427 . S
C382 H373 0.930 . S
C382 C380 1.378 . S
C382 C383 1.367 . S
C383 C382 1.367 . S
C383 C385 1.433 . S
C384 C380 1.350 . S
C384 C381 1.463 . S
C384 N388 1.427 . S
C385 H375 0.929 . S
C385 C383 1.433 . S
C385 N388 1.384 . S
C386 H377 0.929 . S
C386 C378 1.378 . S
C386 C381 1.350 . S
C387 H374 0.929 . S
C387 C379 1.433 . S
C387 N389 1.384 . S
N388 C384 1.427 . S
N388 C385 1.384 . S
N389 C381 1.427 . S
N389 C387 1.384 . S
H390 C396 0.930 . S
H391 C400 0.930 . S
H392 C405 0.929 . S
H393 C403 0.929 . S
H394 C398 0.929 . S
H395 C404 0.929 . S
C396 H390 0.930 . S
C396 C397 1.367 . S
C396 C404 1.378 . S
C397 C396 1.367 . S
C397 C405 1.433 . S
C398 H394 0.929 . S
C398 C400 1.378 . S
C398 C402 1.350 . S
C399 C402 1.463 . S
C399 C404 1.350 . S
C399 N407 1.427 . S
C400 H391 0.930 . S
C400 C398 1.378 . S
C400 C401 1.367 . S
C401 C400 1.367 . S
C401 C403 1.433 . S
C402 C398 1.350 . S
C402 C399 1.463 . S
C402 N406 1.427 . S
C403 H393 0.929 . S
C403 C401 1.433 . S
C403 N406 1.384 . S
C404 H395 0.929 . S
C404 C396 1.378 . S
C404 C399 1.350 . S
C405 H392 0.929 . S
C405 C397 1.433 . S
C405 N407 1.384 . S
N406 C402 1.427 . S
N406 C403 1.384 . S
N407 C399 1.427 . S
N407 C405 1.384 . S
H408 C414 0.930 . S
H409 C418 0.930 . S
H410 C423 0.929 . S
H411 C421 0.929 . S
H412 C416 0.929 . S
H413 C422 0.929 . S
C414 H408 0.930 . S
C414 C415 1.367 . S
C414 C422 1.378 . S
C415 C414 1.367 . S
C415 C423 1.433 . S
C416 H412 0.929 . S
C416 C418 1.378 . S
C416 C420 1.350 . S
C417 C420 1.463 . S
C417 C422 1.350 . S
C417 N425 1.427 . S
C418 H409 0.930 . S
C418 C416 1.378 . S
C418 C419 1.367 . S
C419 C418 1.367 . S
C419 C421 1.433 . S
C420 C416 1.350 . S
C420 C417 1.463 . S
C420 N424 1.427 . S
C421 H411 0.929 . S
C421 C419 1.433 . S
C421 N424 1.384 . S
C422 H413 0.929 . S
C422 C414 1.378 . S
C422 C417 1.350 . S
C423 H410 0.929 . S
C423 C415 1.433 . S
C423 N425 1.384 . S
N424 C420 1.427 . S
N424 C421 1.384 . S
N425 C417 1.427 . S
N425 C423 1.384 . S
H426 C432 0.930 . S
H427 C436 0.930 . S
H428 C441 0.929 . S
H429 C439 0.929 . S
H430 C434 0.929 . S
H431 C440 0.929 . S
C432 H426 0.930 . S
C432 C433 1.367 . S
C432 C440 1.378 . S
C433 C432 1.367 . S
C433 C441 1.433 . S
C434 H430 0.929 . S
C434 C436 1.378 . S
C434 C438 1.350 . S
C435 C438 1.463 . S
C435 C440 1.350 . S
C435 N443 1.427 . S
C436 H427 0.930 . S
C436 C434 1.378 . S
C436 C437 1.367 . S
C437 C436 1.367 . S
C437 C439 1.433 . S
C438 C434 1.350 . S
C438 C435 1.463 . S
C438 N442 1.427 . S
C439 H429 0.929 . S
C439 C437 1.433 . S
C439 N442 1.384 . S
C440 H431 0.929 . S
C440 C432 1.378 . S
C440 C435 1.350 . S
C441 H428 0.929 . S
C441 C433 1.433 . S
C441 N443 1.384 . S
N442 C438 1.427 . S
N442 C439 1.384 . S
N443 C435 1.427 . S
N443 C441 1.384 . S
H444 C450 0.930 . S
H445 C454 0.930 . S
H446 C459 0.929 . S
H447 C457 0.929 . S
H448 C452 0.929 . S
H449 C458 0.929 . S
C450 H444 0.930 . S
C450 C451 1.367 . S
C450 C458 1.378 . S
C451 C450 1.367 . S
C451 C459 1.433 . S
C452 H448 0.929 . S
C452 C454 1.378 . S
C452 C456 1.350 . S
C453 C456 1.463 . S
C453 C458 1.350 . S
C453 N461 1.427 . S
C454 H445 0.930 . S
C454 C452 1.378 . S
C454 C455 1.367 . S
C455 C454 1.367 . S
C455 C457 1.433 . S
C456 C452 1.350 . S
C456 C453 1.463 . S
C456 N460 1.427 . S
C457 H447 0.929 . S
C457 C455 1.433 . S
C457 N460 1.384 . S
C458 H449 0.929 . S
C458 C450 1.378 . S
C458 C453 1.350 . S
C459 H446 0.929 . S
C459 C451 1.433 . S
C459 N461 1.384 . S
N460 C456 1.427 . S
N460 C457 1.384 . S
N461 C453 1.427 . S
N461 C459 1.384 . S
H462 C468 0.930 . S
H463 C472 0.930 . S
H464 C477 0.929 . S
H465 C475 0.929 . S
H466 C470 0.929 . S
H467 C476 0.929 . S
C468 H462 0.930 . S
C468 C469 1.367 . S
C468 C476 1.378 . S
C469 C468 1.367 . S
C469 C477 1.433 . S
C470 H466 0.929 . S
C470 C472 1.378 . S
C470 C474 1.350 . S
C471 C474 1.463 . S
C471 C476 1.350 . S
C471 N479 1.427 . S
C472 H463 0.930 . S
C472 C470 1.378 . S
C472 C473 1.367 . S
C473 C472 1.367 . S
C473 C475 1.433 . S
C474 C470 1.350 . S
C474 C471 1.463 . S
C474 N478 1.427 . S
C475 H465 0.929 . S
C475 C473 1.433 . S
C475 N478 1.384 . S
C476 H467 0.929 . S
C476 C468 1.378 . S
C476 C471 1.350 . S
C477 H464 0.929 . S
C477 C469 1.433 . S
C477 N479 1.384 . S
N478 C474 1.427 . S
N478 C475 1.384 . S
N479 C471 1.427 . S
N479 C477 1.384 . S
H480 C486 0.930 . S
H481 C490 0.930 . S
H482 C495 0.929 . S
H483 C493 0.929 . S
H484 C488 0.929 . S
H485 C494 0.929 . S
C486 H480 0.930 . S
C486 C487 1.367 . S
C486 C494 1.378 . S
C487 C486 1.367 . S
C487 C495 1.433 . S
C488 H484 0.929 . S
C488 C490 1.378 . S
C488 C492 1.350 . S
C489 C492 1.463 . S
C489 C494 1.350 . S
C489 N497 1.427 . S
C490 H481 0.930 . S
C490 C488 1.378 . S
C490 C491 1.367 . S
C491 C490 1.367 . S
C491 C493 1.433 . S
C492 C488 1.350 . S
C492 C489 1.463 . S
C492 N496 1.427 . S
C493 H483 0.929 . S
C493 C491 1.433 . S
C493 N496 1.384 . S
C494 H485 0.929 . S
C494 C486 1.378 . S
C494 C489 1.350 . S
C495 H482 0.929 . S
C495 C487 1.433 . S
C495 N497 1.384 . S
N496 C492 1.427 . S
N496 C493 1.384 . S
N497 C489 1.427 . S
N497 C495 1.384 . S
H498 C504 0.930 . S
H499 C508 0.930 . S
H500 C513 0.929 . S
H501 C511 0.929 . S
H502 C506 0.929 . S
H503 C512 0.929 . S
C504 H498 0.930 . S
C504 C505 1.367 . S
C504 C512 1.378 . S
C505 C504 1.367 . S
C505 C513 1.433 . S
C506 H502 0.929 . S
C506 C508 1.378 . S
C506 C510 1.350 . S
C507 C510 1.463 . S
C507 C512 1.350 . S
C507 N515 1.427 . S
C508 H499 0.930 . S
C508 C506 1.378 . S
C508 C509 1.367 . S
C509 C508 1.367 . S
C509 C511 1.433 . S
C510 C506 1.350 . S
C510 C507 1.463 . S
C510 N514 1.427 . S
C511 H501 0.929 . S
C511 C509 1.433 . S
C511 N514 1.384 . S
C512 H503 0.929 . S
C512 C504 1.378 . S
C512 C507 1.350 . S
C513 H500 0.929 . S
C513 C505 1.433 . S
C513 N515 1.384 . S
N514 C510 1.427 . S
N514 C511 1.384 . S
N515 C507 1.427 . S
N515 C513 1.384 . S
H516 C522 0.930 . S
H517 C526 0.930 . S
H518 C531 0.929 . S
H519 C529 0.929 . S
H520 C524 0.929 . S
H521 C530 0.929 . S
C522 H516 0.930 . S
C522 C523 1.367 . S
C522 C530 1.378 . S
C523 C522 1.367 . S
C523 C531 1.433 . S
C524 H520 0.929 . S
C524 C526 1.378 . S
C524 C528 1.350 . S
C525 C528 1.463 . S
C525 C530 1.350 . S
C525 N533 1.427 . S
C526 H517 0.930 . S
C526 C524 1.378 . S
C526 C527 1.367 . S
C527 C526 1.367 . S
C527 C529 1.433 . S
C528 C524 1.350 . S
C528 C525 1.463 . S
C528 N532 1.427 . S
C529 H519 0.929 . S
C529 C527 1.433 . S
C529 N532 1.384 . S
C530 H521 0.929 . S
C530 C522 1.378 . S
C530 C525 1.350 . S
C531 H518 0.929 . S
C531 C523 1.433 . S
C531 N533 1.384 . S
N532 C528 1.427 . S
N532 C529 1.384 . S
N533 C525 1.427 . S
N533 C531 1.384 . S
H534 C540 0.930 . S
H535 C544 0.930 . S
H536 C549 0.929 . S
H537 C547 0.929 . S
H538 C542 0.929 . S
H539 C548 0.929 . S
C540 H534 0.930 . S
C540 C541 1.367 . S
C540 C548 1.378 . S
C541 C540 1.367 . S
C541 C549 1.433 . S
C542 H538 0.929 . S
C542 C544 1.378 . S
C542 C546 1.350 . S
C543 C546 1.463 . S
C543 C548 1.350 . S
C543 N551 1.427 . S
C544 H535 0.930 . S
C544 C542 1.378 . S
C544 C545 1.367 . S
C545 C544 1.367 . S
C545 C547 1.433 . S
C546 C542 1.350 . S
C546 C543 1.463 . S
C546 N550 1.427 . S
C547 H537 0.929 . S
C547 C545 1.433 . S
C547 N550 1.384 . S
C548 H539 0.929 . S
C548 C540 1.378 . S
C548 C543 1.350 . S
C549 H536 0.929 . S
C549 C541 1.433 . S
C549 N551 1.384 . S
N550 C546 1.427 . S
N550 C547 1.384 . S
N551 C543 1.427 . S
N551 C549 1.384 . S
H552 C558 0.930 . S
H553 C562 0.930 . S
H554 C567 0.929 . S
H555 C565 0.929 . S
H556 C560 0.929 . S
H557 C566 0.929 . S
C558 H552 0.930 . S
C558 C559 1.367 . S
C558 C566 1.378 . S
C559 C558 1.367 . S
C559 C567 1.433 . S
C560 H556 0.929 . S
C560 C562 1.378 . S
C560 C564 1.350 . S
C561 C564 1.463 . S
C561 C566 1.350 . S
C561 N569 1.427 . S
C562 H553 0.930 . S
C562 C560 1.378 . S
C562 C563 1.367 . S
C563 C562 1.367 . S
C563 C565 1.433 . S
C564 C560 1.350 . S
C564 C561 1.463 . S
C564 N568 1.427 . S
C565 H555 0.929 . S
C565 C563 1.433 . S
C565 N568 1.384 . S
C566 H557 0.929 . S
C566 C558 1.378 . S
C566 C561 1.350 . S
C567 H554 0.929 . S
C567 C559 1.433 . S
C567 N569 1.384 . S
N568 C564 1.427 . S
N568 C565 1.384 . S
N569 C561 1.427 . S
N569 C567 1.384 . S
H570 C576 0.930 . S
H571 C580 0.930 . S
H572 C585 0.929 . S
H573 C583 0.953 . S
H574 C578 0.929 . S
H575 C584 0.929 . S
C576 H570 0.930 . S
C576 C577 1.367 . S
C576 C584 1.378 . S
C577 C576 1.367 . S
C577 C585 1.433 . S
C578 H574 0.929 . S
C578 C580 1.378 . S
C578 C582 1.350 . S
C579 C582 1.463 . S
C579 C584 1.350 . S
C579 N587 1.427 . S
C580 H571 0.930 . S
C580 C578 1.378 . S
C580 C581 1.367 . S
C581 C580 1.367 . S
C581 C583 1.433 . S
C582 C578 1.350 . S
C582 C579 1.463 . S
C582 N586 1.427 . S
C583 H573 0.953 . S
C583 C581 1.433 . S
C583 N586 1.384 . S
C584 H575 0.929 . S
C584 C576 1.378 . S
C584 C579 1.350 . S
C585 H572 0.929 . S
C585 C577 1.433 . S
C585 N587 1.384 . S
N586 C582 1.427 . S
N586 C583 1.384 . S
N587 C579 1.427 . S
N587 C585 1.384 . S
H588 C594 0.930 . S
H589 C598 0.930 . S
H590 C603 0.929 . S
H591 C601 0.931 . S
H592 C596 0.929 . S
H593 C602 0.929 . S
C594 H588 0.930 . S
C594 C595 1.367 1_565 S
C594 C602 1.378 . S
C595 C594 1.367 1_545 S
C595 C603 1.433 . S
C596 H592 0.929 . S
C596 C598 1.378 . S
C596 C600 1.350 . S
C597 C600 1.463 . S
C597 C602 1.350 1_545 S
C597 N605 1.427 . S
C598 H589 0.930 . S
C598 C596 1.378 . S
C598 C599 1.367 . S
C599 C598 1.367 . S
C599 C601 1.430 1_545 S
C600 C596 1.350 . S
C600 C597 1.463 . S
C600 N604 1.427 1_545 S
C601 H591 0.931 . S
C601 C599 1.430 1_565 S
C601 N604 1.385 . S
C602 H593 0.929 . S
C602 C594 1.378 . S
C602 C597 1.350 1_565 S
C603 H590 0.929 . S
C603 C595 1.433 . S
C603 N605 1.384 . S
N604 C600 1.427 1_565 S
N604 C601 1.385 . S
N605 C597 1.427 . S
N605 C603 1.384 . S
H606 C612 0.930 . S
H607 C616 0.930 . S
H608 C621 0.929 . S
H609 C619 0.929 . S
H610 C614 0.929 . S
H611 C620 0.929 . S
C612 H606 0.930 . S
C612 C613 1.367 . S
C612 C620 1.378 . S
C613 C612 1.367 . S
C613 C621 1.433 . S
C614 H610 0.929 . S
C614 C616 1.378 . S
C614 C618 1.350 . S
C615 C618 1.463 . S
C615 C620 1.350 . S
C615 N623 1.427 . S
C616 H607 0.930 . S
C616 C614 1.378 . S
C616 C617 1.367 . S
C617 C616 1.367 . S
C617 C619 1.433 . S
C618 C614 1.350 . S
C618 C615 1.463 . S
C618 N622 1.427 . S
C619 H609 0.929 . S
C619 C617 1.433 . S
C619 N622 1.384 . S
C620 H611 0.929 . S
C620 C612 1.378 . S
C620 C615 1.350 . S
C621 H608 0.929 . S
C621 C613 1.433 . S
C621 N623 1.384 . S
N622 C618 1.427 . S
N622 C619 1.384 . S
N623 C615 1.427 . S
N623 C621 1.384 . S
H624 C630 0.930 . S
H625 C634 0.930 . S
H626 C639 0.929 . S
H627 C637 0.929 . S
H628 C632 0.929 . S
H629 C638 0.929 . S
C630 H624 0.930 . S
C630 C631 1.367 1_565 S
C630 C638 1.378 . S
C631 C630 1.367 1_545 S
C631 C639 1.433 . S
C632 H628 0.929 . S
C632 C634 1.378 . S
C632 C636 1.350 . S
C633 C636 1.463 . S
C633 C638 1.350 1_545 S
C633 N641 1.427 . S
C634 H625 0.930 . S
C634 C632 1.378 . S
C634 C635 1.367 1_545 S
C635 C634 1.367 1_565 S
C635 C637 1.433 . S
C636 C632 1.350 . S
C636 C633 1.463 . S
C636 N640 1.427 1_545 S
C637 H627 0.929 . S
C637 C635 1.433 . S
C637 N640 1.384 . S
C638 H629 0.929 . S
C638 C630 1.378 . S
C638 C633 1.350 1_565 S
C639 H626 0.929 . S
C639 C631 1.433 . S
C639 N641 1.384 . S
N640 C636 1.427 1_565 S
N640 C637 1.384 . S
N641 C633 1.427 . S
N641 C639 1.384 . S
H642 C648 0.930 . S
H643 C652 0.930 . S
H644 C657 0.929 . S
H645 C655 0.929 . S
H646 C650 0.929 . S
H647 C656 0.929 . S
C648 H642 0.930 . S
C648 C649 1.367 . S
C648 C656 1.378 . S
C649 C648 1.367 . S
C649 C657 1.433 . S
C650 H646 0.929 . S
C650 C652 1.378 . S
C650 C654 1.350 . S
C651 C654 1.463 . S
C651 C656 1.350 . S
C651 N659 1.427 . S
C652 H643 0.930 . S
C652 C650 1.378 . S
C652 C653 1.367 . S
C653 C652 1.367 . S
C653 C655 1.433 . S
C654 C650 1.350 . S
C654 C651 1.463 . S
C654 N658 1.427 . S
C655 H645 0.929 . S
C655 C653 1.433 . S
C655 N658 1.384 . S
C656 H647 0.929 . S
C656 C648 1.378 . S
C656 C651 1.350 . S
C657 H644 0.929 . S
C657 C649 1.433 . S
C657 N659 1.384 . S
N658 C654 1.427 . S
N658 C655 1.384 . S
N659 C651 1.427 . S
N659 C657 1.384 . S
H660 C666 0.930 . S
H661 C670 0.930 . S
H662 C675 0.929 . S
H663 C673 0.929 . S
H664 C668 0.929 . S
H665 C674 0.929 . S
C666 H660 0.930 . S
C666 C667 1.367 . S
C666 C674 1.378 . S
C667 C666 1.367 . S
C667 C675 1.433 1_455 S
C668 H664 0.929 . S
C668 C670 1.378 . S
C668 C672 1.350 1_655 S
C669 C672 1.463 . S
C669 C674 1.350 . S
C669 N677 1.427 1_455 S
C670 H661 0.930 . S
C670 C668 1.378 . S
C670 C671 1.363 1_655 S
C671 C670 1.363 1_455 S
C671 C673 1.438 . S
C672 C668 1.350 1_455 S
C672 C669 1.463 . S
C672 N676 1.427 . S
C673 H663 0.929 . S
C673 C671 1.438 . S
C673 N676 1.384 . S
C674 H665 0.929 . S
C674 C666 1.378 . S
C674 C669 1.350 . S
C675 H662 0.929 . S
C675 C667 1.433 1_655 S
C675 N677 1.384 . S
N676 C672 1.427 . S
N676 C673 1.384 . S
N677 C669 1.427 1_655 S
N677 C675 1.384 . S
C361 C7 0.675 . S
C365 C331 0.650 . S
C379 C51 1.927 . S
C383 C258 1.882 . S
C397 C87 1.233 . S
C401 C297 1.242 . S
C415 C16 0.424 . S
C419 C336 0.316 . S
C437 C253 2.003 . S
C433 C42 2.061 . S
C455 C292 1.338 . S
C451 C96 1.334 . S
C469 C47 1.200 . S
C473 C180 1.215 . S
C487 C91 3.137 . S
C491 C214 3.077 . S
C505 C2 2.095 . S
C509 C136 2.053 . S
C527 C175 1.322 . S
C523 C56 1.313 . S
C545 C219 2.948 . S
C541 C82 2.992 . S
C559 C11 1.922 . S
C563 C141 1.890 . S
C581 C199 1.775 1_554 S
C577 C19 1.710 . S
C595 C50 1.345 . S
C599 C121 1.384 . S
C613 C99 1.459 . S
C617 C160 1.515 . S
C635 C277 1.493 . S
C631 C59 1.461 . S
C653 C316 1.124 1_556 S
C649 C90 1.110 . S
C667 C10 1.333 . S
C671 C238 1.373 1_455 S
