# Generated by pormake.
# Topology nom, (4,4)-cn, num edge types: 1
# Building blocks:
#     Node 0, Type 0, BuildingBlock: MIFKUJ_clean_linker_1, # of connection points: 4
#     Node 1, Type 0, BuildingBlock: MIFKUJ_clean_linker_1, # of connection points: 4
#     Node 2, Type 0, BuildingBlock: MIFKUJ_clean_linker_1, # of connection points: 4
#     Node 3, Type 0, BuildingBlock: MIFKUJ_clean_linker_1, # of connection points: 4
#     Node 4, Type 0, BuildingBlock: MIFKUJ_clean_linker_1, # of connection points: 4
#     Node 5, Type 0, BuildingBlock: MIFKUJ_clean_linker_1, # of connection points: 4
#     Node 6, Type 1, BuildingBlock: KUFVIS_clean_sbu_0, # of connection points: 4
#     Node 7, Type 1, BuildingBlock: KUFVIS_clean_sbu_0, # of connection points: 4
#     Node 8, Type 1, BuildingBlock: KUFVIS_clean_sbu_0, # of connection points: 4
#     Node 9, Type 1, BuildingBlock: KUFVIS_clean_sbu_0, # of connection points: 4
#     Node 10, Type 1, BuildingBlock: KUFVIS_clean_sbu_0, # of connection points: 4
#     Node 11, Type 1, BuildingBlock: KUFVIS_clean_sbu_0, # of connection points: 4
#     Edge 12, Type (0, 1), BuildingBlock: EZIPEK_clean_linker_0, # of connection points: 2
#     Edge 13, Type (0, 1), BuildingBlock: EZIPEK_clean_linker_0, # of connection points: 2
#     Edge 14, Type (0, 1), BuildingBlock: EZIPEK_clean_linker_0, # of connection points: 2
#     Edge 15, Type (0, 1), BuildingBlock: EZIPEK_clean_linker_0, # of connection points: 2
#     Edge 16, Type (0, 1), BuildingBlock: EZIPEK_clean_linker_0, # of connection points: 2
#     Edge 17, Type (0, 1), BuildingBlock: EZIPEK_clean_linker_0, # of connection points: 2
#     Edge 18, Type (0, 1), BuildingBlock: EZIPEK_clean_linker_0, # of connection points: 2
#     Edge 19, Type (0, 1), BuildingBlock: EZIPEK_clean_linker_0, # of connection points: 2
#     Edge 20, Type (0, 1), BuildingBlock: EZIPEK_clean_linker_0, # of connection points: 2
#     Edge 21, Type (0, 1), BuildingBlock: EZIPEK_clean_linker_0, # of connection points: 2
#     Edge 22, Type (0, 1), BuildingBlock: EZIPEK_clean_linker_0, # of connection points: 2
#     Edge 23, Type (0, 1), BuildingBlock: EZIPEK_clean_linker_0, # of connection points: 2
#     Edge 24, Type (0, 1), BuildingBlock: EZIPEK_clean_linker_0, # of connection points: 2
#     Edge 25, Type (0, 1), BuildingBlock: EZIPEK_clean_linker_0, # of connection points: 2
#     Edge 26, Type (0, 1), BuildingBlock: EZIPEK_clean_linker_0, # of connection points: 2
#     Edge 27, Type (0, 1), BuildingBlock: EZIPEK_clean_linker_0, # of connection points: 2
#     Edge 28, Type (0, 1), BuildingBlock: EZIPEK_clean_linker_0, # of connection points: 2
#     Edge 29, Type (0, 1), BuildingBlock: EZIPEK_clean_linker_0, # of connection points: 2
#     Edge 30, Type (0, 1), BuildingBlock: EZIPEK_clean_linker_0, # of connection points: 2
#     Edge 31, Type (0, 1), BuildingBlock: EZIPEK_clean_linker_0, # of connection points: 2
#     Edge 32, Type (0, 1), BuildingBlock: EZIPEK_clean_linker_0, # of connection points: 2
#     Edge 33, Type (0, 1), BuildingBlock: EZIPEK_clean_linker_0, # of connection points: 2
#     Edge 34, Type (0, 1), BuildingBlock: EZIPEK_clean_linker_0, # of connection points: 2
#     Edge 35, Type (0, 1), BuildingBlock: EZIPEK_clean_linker_0, # of connection points: 2
# Relax obj value: 0.002
# Max RMSD: 0.100
# Mean RMSD: 0.062
data_MOF--net-nom--node1-KUFVIS_clean_sbu_0--node2-MIFKUJ_clean_linker_1--edge1-EZIPEK_clean_linker_0
_symmetry_space_group_name_H-M    P1
_symmetry_Int_Tables_number       1
_symmetry_cell_setting            triclinic
loop_
_symmetry_equiv_pos_as_xyz
'x, y, z'
_cell_length_a     40.895095
_cell_length_b     41.42265
_cell_length_c     43.663033
_cell_angle_alpha  90.600491
_cell_angle_beta   90.819303
_cell_angle_gamma 120.005
loop_
_atom_site_label
_atom_site_type_symbol
_atom_site_fract_x
_atom_site_fract_y
_atom_site_fract_z
_atom_type_partial_charge
H0 H 0.98126 0.47803 0.25523 0.0
H1 H 0.94043 0.45601 0.20934 0.0
H2 H 0.88655 0.51775 0.23737 0.0
H3 H 0.92886 0.54176 0.28266 0.0
H4 H 0.03307 0.54496 0.27064 0.0
H5 H 0.91513 0.45374 0.31834 0.0
H6 H 0.84869 0.42585 0.33328 0.0
H7 H 0.87269 0.53086 0.37413 0.0
H8 H 0.93888 0.55878 0.35929 0.0
H9 H 0.05328 0.61199 0.39013 0.0
H10 H 0.0958 0.63014 0.43541 0.0
H11 H 0.12462 0.54642 0.411 0.0
H12 H 0.0827 0.52868 0.36573 0.0
H13 H 0.99025 0.5391 0.37719 0.0
H14 H 0.09536 0.63329 0.31857 0.0
H15 H 0.16156 0.6693 0.30353 0.0
H16 H 0.16259 0.5671 0.28608 0.0
H17 H 0.09558 0.53097 0.30003 0.0
C18 C 0.95785 0.51116 0.27272 0.0
C19 C 0.96065 0.48684 0.25164 0.0
C20 C 0.93716 0.47395 0.22558 0.0
C21 C 0.91019 0.48478 0.22028 0.0
C22 C 0.9071 0.50893 0.24128 0.0
C23 C 0.93099 0.5223 0.26721 0.0
C24 C 0.98455 0.52625 0.29941 0.0
C25 C 0.02345 0.54293 0.29394 0.0
C26 C 0.9724 0.52541 0.3298 0.0
C27 C 0.93192 0.50842 0.33756 0.0
C28 C 0.90602 0.47085 0.33025 0.0
C29 C 0.86826 0.45492 0.33882 0.0
C30 C 0.85599 0.47642 0.35473 0.0
C31 C 0.88173 0.51395 0.36181 0.0
C32 C 0.91942 0.52978 0.35341 0.0
C33 C 0.06506 0.56915 0.37459 0.0
C34 C 0.06894 0.59772 0.39451 0.0
C35 C 0.09304 0.60798 0.42028 0.0
C36 C 0.11288 0.58918 0.42681 0.0
C37 C 0.10915 0.56083 0.40667 0.0
C38 C 0.08555 0.55099 0.38072 0.0
C39 C 0.03813 0.55667 0.34822 0.0
C40 C 0.99945 0.54063 0.3538 0.0
C41 C 0.05027 0.55845 0.31792 0.0
C42 C 0.09077 0.57958 0.31041 0.0
C43 C 0.10984 0.61865 0.31149 0.0
C44 C 0.14748 0.63912 0.30286 0.0
C45 C 0.1669 0.62087 0.29346 0.0
C46 C 0.14801 0.58168 0.29298 0.0
C47 C 0.10997 0.56115 0.30101 0.0
H48 H 0.40617 0.9471 0.53146 0.0
H49 H 0.36949 0.8817 0.54628 0.0
H50 H 0.45069 0.85918 0.50375 0.0
H51 H 0.48786 0.92496 0.489 0.0
H52 H 0.47681 0.99934 0.54722 0.0
H53 H 0.4097 0.93259 0.45498 0.0
H54 H 0.3914 0.88977 0.41056 0.0
H55 H 0.50519 0.95052 0.37815 0.0
H56 H 0.52449 0.99153 0.42354 0.0
H57 H 0.58549 0.10542 0.4739 0.0
H58 H 0.61357 0.17136 0.4597 0.0
H59 H 0.50422 0.16263 0.46568 0.0
H60 H 0.47656 0.0973 0.48071 0.0
H61 H 0.50639 0.03922 0.43961 0.0
H62 H 0.57585 0.09028 0.53649 0.0
H63 H 0.59869 0.13222 0.58146 0.0
H64 H 0.48449 0.10441 0.60083 0.0
H65 H 0.46151 0.06191 0.55584 0.0
C66 C 0.44959 0.94085 0.50891 0.0
C67 C 0.41629 0.92822 0.52546 0.0
C68 C 0.39541 0.89102 0.53394 0.0
C69 C 0.4076 0.86589 0.52622 0.0
C70 C 0.44108 0.87838 0.51 0.0
C71 C 0.46203 0.91571 0.50144 0.0
C72 C 0.47128 0.98055 0.50016 0.0
C73 C 0.48299 0.00783 0.52359 0.0
C74 C 0.48039 0.99185 0.46939 0.0
C75 C 0.46877 0.9649 0.44312 0.0
C76 C 0.43109 0.93606 0.43891 0.0
C77 C 0.42051 0.91186 0.41344 0.0
C78 C 0.4472 0.91675 0.39145 0.0
C79 C 0.48454 0.94582 0.39528 0.0
C80 C 0.49535 0.96942 0.42103 0.0
C81 C 0.52908 0.09679 0.47841 0.0
C82 C 0.56771 0.11786 0.47223 0.0
C83 C 0.58363 0.15527 0.46407 0.0
C84 C 0.56087 0.1717 0.46143 0.0
C85 C 0.52217 0.15039 0.46747 0.0
C86 C 0.50646 0.11328 0.47608 0.0
C87 C 0.5117 0.05716 0.4866 0.0
C88 C 0.50043 0.03019 0.46312 0.0
C89 C 0.50335 0.04588 0.51715 0.0
C90 C 0.51707 0.07316 0.54292 0.0
C91 C 0.55577 0.09339 0.55031 0.0
C92 C 0.56874 0.11698 0.57611 0.0
C93 C 0.54323 0.12087 0.59482 0.0
C94 C 0.50456 0.10147 0.58685 0.0
C95 C 0.49151 0.0774 0.56125 0.0
H96 H 0.5239 0.56641 0.72704 0.0
H97 H 0.50227 0.58139 0.77321 0.0
H98 H 0.38683 0.50989 0.74221 0.0
H99 H 0.40885 0.49451 0.69655 0.0
H100 H 0.51053 0.49575 0.71208 0.0
H101 H 0.48458 0.58802 0.66493 0.0
H102 H 0.44449 0.61446 0.65048 0.0
H103 H 0.365 0.51038 0.60581 0.0
H104 H 0.40492 0.48395 0.62004 0.0
H105 H 0.46568 0.43021 0.59358 0.0
H106 H 0.48967 0.41073 0.54989 0.0
H107 H 0.60291 0.49797 0.57312 0.0
H108 H 0.57914 0.51703 0.61688 0.0
H109 H 0.47723 0.5062 0.60437 0.0
H110 H 0.47989 0.40983 0.67017 0.0
H111 H 0.507 0.37116 0.68553 0.0
H112 H 0.61764 0.46924 0.69235 0.0
H113 H 0.59011 0.50818 0.67778 0.0
C114 C 0.46811 0.52774 0.70899 0.0
C115 C 0.49381 0.55282 0.73088 0.0
C116 C 0.48107 0.56031 0.75809 0.0
C117 C 0.44228 0.54095 0.76536 0.0
C118 C 0.41678 0.52042 0.74092 0.0
C119 C 0.42943 0.51281 0.71366 0.0
C120 C 0.48192 0.51562 0.68245 0.0
C121 C 0.50395 0.49898 0.68854 0.0
C122 C 0.47163 0.51774 0.65174 0.0
C123 C 0.4476 0.53396 0.64366 0.0
C124 C 0.45843 0.57085 0.65219 0.0
C125 C 0.43573 0.58594 0.64391 0.0
C126 C 0.40188 0.56422 0.6272 0.0
C127 C 0.39102 0.52742 0.61876 0.0
C128 C 0.4138 0.51245 0.6268 0.0
C129 C 0.5207 0.47496 0.60841 0.0
C130 C 0.49568 0.44502 0.58926 0.0
C131 C 0.50932 0.43396 0.56442 0.0
C132 C 0.54806 0.45324 0.55808 0.0
C133 C 0.57298 0.48307 0.57739 0.0
C134 C 0.55944 0.49374 0.60242 0.0
C135 C 0.50652 0.48755 0.63421 0.0
C136 C 0.48434 0.5039 0.62797 0.0
C137 C 0.51575 0.48442 0.66483 0.0
C138 C 0.53309 0.46169 0.67282 0.0
C139 C 0.50997 0.42298 0.67499 0.0
C140 C 0.52538 0.40102 0.68379 0.0
C141 C 0.56425 0.4174 0.69023 0.0
C142 C 0.58755 0.45617 0.68765 0.0
C143 C 0.57196 0.47828 0.67928 0.0
H144 H 0.03427 0.54604 0.74978 0.0
H145 H 0.07368 0.56499 0.70462 0.0
H146 H 0.14708 0.53091 0.74726 0.0
H147 H 0.10475 0.50683 0.79037 0.0
H148 H 0.99078 0.48594 0.77089 0.0
H149 H 0.107 0.58896 0.82082 0.0
H150 H 0.17485 0.6201 0.83473 0.0
H151 H 0.15812 0.51922 0.87648 0.0
H152 H 0.09065 0.48824 0.8629 0.0
H153 H 0.98043 0.43198 0.89225 0.0
H154 H 0.93748 0.41141 0.93582 0.0
H155 H 0.89347 0.48173 0.90675 0.0
H156 H 0.93598 0.50195 0.86303 0.0
H157 H 0.03678 0.50583 0.87894 0.0
H158 H 0.93228 0.40163 0.82422 0.0
H159 H 0.86545 0.36141 0.80948 0.0
H160 H 0.86011 0.45778 0.77996 0.0
H161 H 0.92746 0.49792 0.7938 0.0
C162 C 0.06659 0.52553 0.77422 0.0
C163 C 0.05852 0.54209 0.74943 0.0
C164 C 0.08128 0.55333 0.72368 0.0
C165 C 0.11363 0.54975 0.72254 0.0
C166 C 0.12239 0.53417 0.74759 0.0
C167 C 0.09847 0.52104 0.77261 0.0
C168 C 0.04044 0.51145 0.80069 0.0
C169 C 1.00123 0.49131 0.79444 0.0
C170 C 0.05332 0.51644 0.83174 0.0
C171 C 0.09392 0.53625 0.84069 0.0
C172 C 0.11799 0.57365 0.83302 0.0
C173 C 0.15651 0.59135 0.8409 0.0
C174 C 0.17127 0.57172 0.85637 0.0
C175 C 0.14713 0.53463 0.86441 0.0
C176 C 0.10873 0.51708 0.85678 0.0
C177 C 0.96129 0.4684 0.87441 0.0
C178 C 0.96134 0.44274 0.89514 0.0
C179 C 0.9368 0.43089 0.91982 0.0
C180 C 0.91232 0.44501 0.92432 0.0
C181 C 0.91204 0.47042 0.90348 0.0
C182 C 0.93623 0.48191 0.87863 0.0
C183 C 0.98801 0.48189 0.84874 0.0
C184 C 0.02692 0.50155 0.85524 0.0
C185 C 0.97512 0.47635 0.81801 0.0
C186 C 0.93463 0.45259 0.80992 0.0
C187 C 0.91669 0.41405 0.81456 0.0
C188 C 0.87869 0.3912 0.80624 0.0
C189 C 0.85799 0.40667 0.79355 0.0
C190 C 0.87573 0.44539 0.7896 0.0
C191 C 0.914 0.46818 0.79738 0.0
H192 H 0.61487 0.09089 0.03565 0.0
H193 H 0.65464 0.15723 0.04868 0.0
H194 H 0.57651 0.18101 1.00058 0.0
H195 H 0.53609 0.11411 0.98766 0.0
H196 H 0.54281 0.04026 0.04791 0.0
H197 H 0.61392 0.10948 0.96146 0.0
H198 H 0.63272 0.15285 0.91929 0.0
H199 H 0.52635 0.08095 0.87262 0.0
H200 H 0.50493 0.04077 0.91701 0.0
H201 H 0.44252 0.93117 0.96494 0.0
H202 H 0.41783 0.86527 0.95027 0.0
H203 H 0.52672 0.8771 0.97157 0.0
H204 H 0.55075 0.94234 0.98744 0.0
H205 H 0.5216 0.99747 0.93925 0.0
H206 H 0.44716 0.93767 0.02801 0.0
H207 H 0.42482 0.89543 0.07157 0.0
H208 H 0.53875 0.94599 0.10792 0.0
H209 H 0.56132 0.9881 0.06418 0.0
C210 C 0.57267 0.0976 0.0105 0.0
C211 C 0.6059 0.1102 0.02826 0.0
C212 C 0.62865 0.14797 0.03558 0.0
C213 C 0.61846 0.17378 0.02547 0.0
C214 C 0.58469 0.16131 0.00852 0.0
C215 C 0.56177 0.12332 1.00118 0.0
C216 C 0.55088 0.05775 1.00091 0.0
C217 C 0.53812 0.03104 0.02408 0.0
C218 C 0.54429 0.04579 0.96963 0.0
C219 C 0.55723 0.07217 0.9434 0.0
C220 C 0.59371 0.10372 0.94301 0.0
C221 C 0.60488 0.12825 0.91849 0.0
C222 C 0.58105 0.1203 0.89258 0.0
C223 C 0.54522 0.08802 0.89236 0.0
C224 C 0.53316 0.06479 0.91768 0.0
C225 C 0.49827 0.94127 0.97744 0.0
C226 C 0.4609 0.9194 0.96658 0.0
C227 C 0.44692 0.88201 0.95817 0.0
C228 C 0.47053 0.86643 0.95973 0.0
C229 C 0.5081 0.88862 0.9702 0.0
C230 C 0.52176 0.92568 0.97926 0.0
C231 C 0.51348 0.98083 0.98615 0.0
C232 C 0.52555 0.00722 0.9629 0.0
C233 C 0.51933 0.99272 0.01712 0.0
C234 C 0.50601 0.96581 0.04262 0.0
C235 C 0.46749 0.93924 0.04499 0.0
C236 C 0.45469 0.9153 0.06988 0.0
C237 C 0.4802 0.9176 0.09282 0.0
C238 C 0.51873 0.94376 0.09034 0.0
C239 C 0.53152 0.96778 0.06548 0.0
H240 H 0.502 0.48915 0.23557 0.0
H241 H 0.52193 0.47021 0.28187 0.0
H242 H 0.6319 0.5091 0.24386 0.0
H243 H 0.61422 0.53361 0.20042 0.0
H244 H 0.52293 0.55322 0.21464 0.0
H245 H 0.52224 0.44392 0.14234 0.0
H246 H 0.55779 0.4151 0.12206 0.0
H247 H 0.66073 0.52154 0.12958 0.0
H248 H 0.62463 0.55066 0.14667 0.0
H249 H 0.55517 0.59542 0.09124 0.0
H250 H 0.53009 0.61257 0.04682 0.0
H251 H 0.41651 0.53809 0.07587 0.0
H252 H 0.44176 0.52244 0.12128 0.0
H253 H 0.53884 0.52242 0.10793 0.0
H254 H 0.52532 0.6227 0.1387 0.0
H255 H 0.49895 0.66232 0.15023 0.0
H256 H 0.44148 0.59403 0.2272 0.0
H257 H 0.46287 0.55048 0.21259 0.0
C258 C 0.55597 0.51156 0.21336 0.0
C259 C 0.53055 0.49391 0.23718 0.0
C260 C 0.54178 0.48275 0.26356 0.0
C261 C 0.57826 0.48758 0.26625 0.0
C262 C 0.60342 0.50453 0.24225 0.0
C263 C 0.59287 0.51761 0.21674 0.0
C264 C 0.54403 0.52521 0.18619 0.0
C265 C 0.52554 0.54575 0.1913 0.0
C266 C 0.54964 0.51768 0.15553 0.0
C267 C 0.57118 0.49908 0.14723 0.0
C268 C 0.55252 0.46082 0.1399 0.0
C269 C 0.57275 0.44447 0.12831 0.0
C270 C 0.61208 0.46601 0.12479 0.0
C271 C 0.63053 0.50425 0.13235 0.0
C272 C 0.61006 0.5208 0.1424 0.0
C273 C 0.50027 0.55789 0.10954 0.0
C274 C 0.52488 0.58287 0.08805 0.0
C275 C 0.51061 0.59266 0.06282 0.0
C276 C 0.47144 0.57647 0.05799 0.0
C277 C 0.44678 0.55081 0.07916 0.0
C278 C 0.46113 0.54194 0.105 0.0
C279 C 0.51579 0.54836 0.13655 0.0
C280 C 0.53511 0.52896 0.13132 0.0
C281 C 0.51174 0.55802 0.16694 0.0
C282 C 0.49522 0.58236 0.17391 0.0
C283 C 0.50523 0.61456 0.15689 0.0
C284 C 0.49078 0.63787 0.16392 0.0
C285 C 0.4683 0.63137 0.18969 0.0
C286 C 0.45855 0.59957 0.20708 0.0
C287 C 0.47123 0.57495 0.19891 0.0
Mn288 Mn 0.62862 0.38588 0.41809 0.0
Mn289 Mn 0.67783 0.47823 0.43459 0.0
C290 C 0.60587 0.41167 0.45333 0.0
C291 C 0.61514 0.32533 0.42825 0.0
C292 C 0.62906 0.44624 0.37712 0.0
O293 O 0.68005 0.40053 0.40123 0.0
O294 O 0.71022 0.46202 0.41309 0.0
C295 C 0.73032 0.4749 0.48019 0.0
N296 N 0.70379 0.48442 0.47287 0.0
C297 C 0.70665 0.50814 0.52398 0.0
C298 C 0.73399 0.49858 0.53204 0.0
C299 C 0.74579 0.48178 0.51006 0.0
C300 C 0.69187 0.50012 0.49396 0.0
H301 H 0.73959 0.46215 0.46337 0.0
C302 C 0.70917 0.43294 0.40151 0.0
O303 O 0.60662 0.33368 0.40182 0.0
O304 O 0.63296 0.3524 0.44802 0.0
N305 N 0.65105 0.49843 0.45549 0.0
C306 C 0.62628 0.50812 0.44348 0.0
C307 C 0.61262 0.52635 0.46219 0.0
C308 C 0.62508 0.53505 0.49289 0.0
C309 C 0.65162 0.52603 0.50442 0.0
C310 C 0.66436 0.50804 0.48464 0.0
H311 H 0.61693 0.50192 0.4198 0.0
O312 O 0.58336 0.37994 0.43989 0.0
O313 O 0.64116 0.42737 0.44578 0.0
O314 O 0.61919 0.41215 0.38199 0.0
O315 O 0.65013 0.473 0.39574 0.0
C316 C 0.66652 0.53488 0.53458 0.0
C317 C 0.69366 0.52552 0.54448 0.0
H318 H 0.74616 0.50407 0.55502 0.0
H319 H 0.76687 0.4743 0.5161 0.0
H320 H 0.59251 0.53365 0.45299 0.0
H321 H 0.61436 0.54896 0.5073 0.0
H322 H 0.65748 0.54912 0.55031 0.0
H323 H 0.70472 0.53226 0.56779 0.0
Mn324 Mn 0.26031 0.65233 0.56988 0.0
Mn325 Mn 0.21528 0.56011 0.55292 0.0
C326 C 0.20992 0.62672 0.53509 0.0
C327 C 0.3076 0.71283 0.55962 0.0
C328 C 0.20236 0.59168 0.61145 0.0
O329 O 0.29781 0.63762 0.58547 0.0
O330 O 0.2655 0.57624 0.57299 0.0
C331 C 0.26784 0.56339 0.50547 0.0
N332 N 0.23227 0.55404 0.51384 0.0
C333 C 0.20758 0.5308 0.46301 0.0
C334 C 0.24396 0.54021 0.45385 0.0
C335 C 0.27423 0.55667 0.47516 0.0
C336 C 0.20303 0.53861 0.49342 0.0
H337 H 0.29115 0.5759 0.52176 0.0
C338 C 0.2944 0.60535 0.58441 0.0
O339 O 0.29221 0.70439 0.58634 0.0
O340 O 0.29671 0.68601 0.53952 0.0
N341 N 0.16672 0.54035 0.53326 0.0
C342 C 0.13311 0.53127 0.54616 0.0
C343 C 0.09976 0.5135 0.52816 0.0
C344 C 0.10123 0.5047 0.49725 0.0
C345 C 0.13598 0.51334 0.48472 0.0
C346 C 0.16823 0.53085 0.50382 0.0
H347 H 0.13172 0.53759 0.56999 0.0
O348 O 0.21981 0.65818 0.54899 0.0
O349 O 0.22961 0.61104 0.54229 0.0
O350 O 0.22636 0.62586 0.60638 0.0
O351 O 0.19553 0.56502 0.59266 0.0
C352 C 0.13979 0.50473 0.45417 0.0
C353 C 0.17563 0.51386 0.4432 0.0
H354 H 0.24896 0.53489 0.43053 0.0
H355 H 0.3024 0.56403 0.46827 0.0
H356 H 0.07301 0.50662 0.53809 0.0
H357 H 0.07548 0.49115 0.48339 0.0
H358 H 0.11531 0.49103 0.43891 0.0
H359 H 0.17823 0.50736 0.41959 0.0
Mn360 Mn 0.62505 0.26571 0.73845 0.0
Mn361 Mn 0.67161 0.21911 0.72432 0.0
C362 C 0.59997 0.21593 0.70369 0.0
C363 C 0.61373 0.31406 0.72647 0.0
C364 C 0.62745 0.20954 0.78226 0.0
O365 O 0.67763 0.30129 0.75544 0.0
O366 O 0.70739 0.26998 0.74153 0.0
C367 C 0.72026 0.26536 0.67441 0.0
N368 N 0.69307 0.23172 0.68456 0.0
C369 C 0.68896 0.20235 0.63568 0.0
C370 C 0.71657 0.23683 0.62461 0.0
C371 C 0.73228 0.26848 0.64408 0.0
C372 C 0.67771 0.2011 0.66599 0.0
H373 H 0.73281 0.28954 0.6894 0.0
C374 C 0.70706 0.2983 0.75338 0.0
O375 O 0.60546 0.29856 0.75312 0.0
O376 O 0.62998 0.30258 0.7075 0.0
N377 N 0.64067 0.16986 0.70744 0.0
C378 C 0.61557 0.13837 0.72204 0.0
C379 C 0.59839 0.10396 0.70614 0.0
C380 C 0.60758 0.10216 0.67554 0.0
C381 C 0.63407 0.13479 0.6612 0.0
C382 C 0.6504 0.16826 0.67825 0.0
H383 H 0.60866 0.13943 0.74567 0.0
O384 O 0.57849 0.22685 0.71621 0.0
O385 O 0.63534 0.23431 0.71217 0.0
O386 O 0.61558 0.23192 0.77538 0.0
O387 O 0.64882 0.20342 0.76496 0.0
C388 C 0.64523 0.13531 0.63078 0.0
C389 C 0.67238 0.16913 0.61791 0.0
H390 H 0.7261 0.23927 0.60129 0.0
H391 H 0.7538 0.29515 0.63579 0.0
H392 H 0.57812 0.07888 0.71743 0.0
H393 H 0.59419 0.07559 0.66331 0.0
H394 H 0.63307 0.10984 0.61704 0.0
H395 H 0.68056 0.16921 0.59441 0.0
Mn396 Mn 0.4012 0.65038 0.91502 0.0
Mn397 Mn 0.34437 0.55895 0.92922 0.0
C398 C 0.41964 0.62157 0.95112 0.0
C399 C 0.41847 0.71216 0.92571 0.0
C400 C 0.39364 0.58704 0.87322 0.0
O401 O 0.35118 0.63959 0.8958 0.0
O402 O 0.31466 0.57974 0.90959 0.0
C403 C 0.29794 0.56757 0.97652 0.0
N404 N 0.32158 0.55502 0.96798 0.0
C405 C 0.32043 0.53131 0.0183 0.0
C406 C 0.29614 0.54408 0.02762 0.0
C407 C 0.28487 0.56232 0.00663 0.0
C408 C 0.33278 0.53765 0.98806 0.0
H409 H 0.28916 0.58152 0.96048 0.0
C410 C 0.31944 0.60963 0.89713 0.0
O411 O 0.42689 0.7025 0.89988 0.0
O412 O 0.39924 0.68586 0.94476 0.0
N413 N 0.36874 0.53496 0.94836 0.0
C414 C 0.39035 0.5223 0.93518 0.0
C415 C 0.40263 0.50195 0.95268 0.0
C416 C 0.3922 0.49444 0.98342 0.0
C417 C 0.36908 0.50683 0.99622 0.0
C418 C 0.35724 0.52648 0.97752 0.0
H419 H 0.39823 0.52769 0.91149 0.0
O420 O 0.44432 0.65266 0.93915 0.0
O421 O 0.38489 0.6085 0.94174 0.0
O422 O 0.40872 0.62189 0.87949 0.0
O423 O 0.3687 0.5615 0.88978 0.0
C424 C 0.35692 0.50003 0.0267 0.0
C425 C 0.33289 0.51257 0.03782 0.0
H426 H 0.28593 0.54 0.05081 0.0
H427 H 0.26612 0.57226 0.01364 0.0
H428 H 0.4202 0.49221 0.94253 0.0
H429 H 0.402 0.47902 0.99693 0.0
H430 H 0.3658 0.48509 0.04175 0.0
H431 H 0.32386 0.50732 0.06133 0.0
Mn432 Mn 0.7636 0.40418 0.07567 0.0
Mn433 Mn 0.81197 0.35978 0.09204 0.0
C434 C 0.81333 0.4302 0.11136 0.0
C435 C 0.71346 0.41474 0.08471 0.0
C436 C 0.82308 0.40361 0.03393 0.0
O437 O 0.72869 0.35165 0.05893 0.0
O438 O 0.7621 0.32412 0.07282 0.0
C439 C 0.7611 0.31097 0.13979 0.0
N440 N 0.79628 0.33723 0.13108 0.0
C441 C 0.82269 0.33802 0.18083 0.0
C442 C 0.78681 0.31083 0.19028 0.0
C443 C 0.75585 0.29742 0.16971 0.0
C444 C 0.82608 0.35091 0.15088 0.0
H445 H 0.73721 0.30047 0.12406 0.0
C446 C 0.73294 0.32325 0.0608 0.0
O447 O 0.72963 0.42131 0.05834 0.0
O448 O 0.72529 0.40031 0.10523 0.0
N449 N 0.8605 0.39002 0.11143 0.0
C450 C 0.89333 0.41579 0.09866 0.0
C451 C 0.92696 0.43231 0.11631 0.0
C452 C 0.92674 0.42124 0.14662 0.0
C453 C 0.89286 0.39373 0.159 0.0
C454 C 0.86016 0.37861 0.1404 0.0
H455 H 0.894 0.42311 0.07502 0.0
O456 O 0.80167 0.45065 0.09813 0.0
O457 O 0.79535 0.39512 0.10322 0.0
O458 O 0.79938 0.41421 0.03989 0.0
O459 O 0.83018 0.38332 0.05167 0.0
C460 C 0.89032 0.38036 0.18894 0.0
C461 C 0.8552 0.35284 0.19995 0.0
H462 H 0.78271 0.30015 0.21329 0.0
H463 H 0.72802 0.27656 0.17686 0.0
H464 H 0.95309 0.45309 0.10641 0.0
H465 H 0.95284 0.43374 0.16002 0.0
H466 H 0.91518 0.39098 0.20372 0.0
H467 H 0.85353 0.34318 0.22315 0.0
Mn468 Mn 0.37965 0.77276 0.24651 0.0
Mn469 Mn 0.47336 0.82197 0.26067 0.0
C470 C 0.40388 0.82089 0.28315 0.0
C471 C 0.32097 0.72178 0.25786 0.0
C472 C 0.43506 0.83076 0.2033 0.0
O473 O 0.39914 0.74088 0.22644 0.0
O474 O 0.45908 0.77149 0.24466 0.0
C475 C 0.47886 0.77761 0.31111 0.0
N476 N 0.48491 0.81088 0.30037 0.0
C477 C 0.51485 0.84222 0.34795 0.0
C478 C 0.50913 0.80836 0.35949 0.0
C479 C 0.49085 0.77587 0.34103 0.0
C480 C 0.50186 0.84215 0.3181 0.0
H481 H 0.46494 0.75259 0.29696 0.0
C482 C 0.43157 0.74381 0.23043 0.0
O483 O 0.32663 0.73849 0.23182 0.0
O484 O 0.34995 0.7331 0.27625 0.0
N485 N 0.49086 0.87112 0.27702 0.0
C486 C 0.4936 0.90141 0.26269 0.0
C487 C 0.5104 0.936 0.27833 0.0
C488 C 0.52493 0.93927 0.30827 0.0
C489 C 0.52257 0.9079 0.32229 0.0
C490 C 0.50522 0.87411 0.30569 0.0
H491 H 0.48293 0.89919 0.23955 0.0
O492 O 0.37039 0.80848 0.27128 0.0
O493 O 0.42185 0.80455 0.27325 0.0
O494 O 0.40098 0.80934 0.21115 0.0
O495 O 0.46385 0.83587 0.21929 0.0
C496 C 0.53696 0.90888 0.35202 0.0
C497 C 0.53279 0.87601 0.36495 0.0
H498 H 0.51847 0.80694 0.38252 0.0
H499 H 0.48616 0.74958 0.34981 0.0
H500 H 0.51229 0.96012 0.26728 0.0
H501 H 0.53793 0.96601 0.32023 0.0
H502 H 0.55127 0.93474 0.3652 0.0
H503 H 0.54344 0.87702 0.38801 0.0
C504 C 0.23418 0.66791 0.30698 0.0
C505 C 0.2073 0.64337 0.28485 0.0
C506 C 0.25734 0.66473 0.24694 0.0
C507 C 0.28239 0.69361 0.26756 0.0
N508 N 0.29066 0.72734 0.3155 0.0
N509 N 0.19214 0.62237 0.23201 0.0
C510 C 0.26991 0.69638 0.29725 0.0
C511 C 0.21854 0.64267 0.25432 0.0
N512 N 0.22573 0.66389 0.33737 0.0
N513 N 0.27072 0.65753 0.22078 0.0
H514 H 0.16336 0.60644 0.23623 0.0
H515 H 0.19845 0.62407 0.20884 0.0
H516 H 0.29921 0.67205 0.21524 0.0
H517 H 0.25432 0.63458 0.2064 0.0
H518 H 0.24567 0.6789 0.35466 0.0
H519 H 0.20004 0.64281 0.3454 0.0
H520 H 0.28075 0.73189 0.33603 0.0
H521 H 0.31553 0.75056 0.3087 0.0
C522 C 0.59138 0.22371 0.42346 0.0
C523 C 0.57735 0.21157 0.45323 0.0
C524 C 0.58468 0.27269 0.4652 0.0
C525 C 0.60248 0.28618 0.4367 0.0
N526 N 0.63026 0.27633 0.39166 0.0
N527 N 0.56974 0.22745 0.50494 0.0
C528 C 0.60798 0.2622 0.4166 0.0
C529 C 0.57692 0.23704 0.4749 0.0
N530 N 0.58764 0.1984 0.40137 0.0
N531 N 0.57294 0.29273 0.48225 0.0
H532 H 0.56463 0.20177 0.51307 0.0
H533 H 0.57279 0.24639 0.52221 0.0
H534 H 0.57539 0.31778 0.47519 0.0
H535 H 0.55668 0.28231 0.5017 0.0
H536 H 0.59372 0.20523 0.37846 0.0
H537 H 0.57526 0.16992 0.40532 0.0
H538 H 0.63816 0.26073 0.37798 0.0
H539 H 0.64409 0.30457 0.38647 0.0
C540 C 0.3813 0.59503 0.58836 0.0
C541 C 0.37766 0.57989 0.61797 0.0
C542 C 0.32235 0.58668 0.62729 0.0
C543 C 0.32541 0.60076 0.59734 0.0
N544 N 0.36179 0.62665 0.55214 0.0
N545 N 0.34945 0.56665 0.66767 0.0
C546 C 0.35625 0.60761 0.57874 0.0
C547 C 0.34964 0.5775 0.63814 0.0
N548 N 0.40795 0.59619 0.56911 0.0
N549 N 0.29291 0.58162 0.64502 0.0
H550 H 0.36849 0.55891 0.67607 0.0
H551 H 0.33207 0.56731 0.68453 0.0
H552 H 0.27443 0.59097 0.63863 0.0
H553 H 0.28599 0.56749 0.66558 0.0
H554 H 0.40926 0.60256 0.54602 0.0
H555 H 0.42787 0.58879 0.57584 0.0
H556 H 0.38562 0.63576 0.53884 0.0
H557 H 0.34383 0.63612 0.54449 0.0
C558 C 0.8075 0.37774 0.7522 0.0
C559 C 0.81791 0.3819 0.78378 0.0
C560 C 0.75383 0.33291 0.79615 0.0
C561 C 0.74345 0.32973 0.76468 0.0
N562 N 0.75631 0.35702 0.71479 0.0
N563 N 0.79903 0.37013 0.83646 0.0
C564 C 0.76903 0.3547 0.74333 0.0
C565 C 0.79042 0.36149 0.80602 0.0
N566 N 0.83447 0.39407 0.7305 0.0
N567 N 0.72905 0.30815 0.81642 0.0
H568 H 0.82532 0.39144 0.84438 0.0
H569 H 0.77923 0.35864 0.85363 0.0
H570 H 0.70139 0.28817 0.81019 0.0
H571 H 0.73646 0.3061 0.83893 0.0
H572 H 0.82866 0.38859 0.7071 0.0
H573 H 0.86321 0.41035 0.73582 0.0
H574 H 0.77304 0.37717 0.69915 0.0
H575 H 0.7279 0.34131 0.70806 0.0
C576 C 0.44413 0.81404 0.92022 0.0
C577 C 0.45598 0.82668 0.95091 0.0
C578 C 0.448 0.7658 0.96359 0.0
C579 C 0.43167 0.75174 0.93403 0.0
N580 N 0.40642 0.76089 0.8866 0.0
N581 N 0.46036 0.81161 1.00354 0.0
C582 C 0.42755 0.7754 0.91293 0.0
C583 C 0.4552 0.80163 0.97315 0.0
N584 N 0.44986 0.83898 0.89778 0.0
N585 N 0.45862 0.74599 0.98201 0.0
H586 H 0.46465 0.83727 0.01161 0.0
H587 H 0.45641 0.79295 0.02087 0.0
H588 H 0.45638 0.72074 0.97525 0.0
H589 H 0.47379 0.75675 1.00254 0.0
H590 H 0.44522 0.83157 0.87458 0.0
H591 H 0.46271 0.86763 0.90199 0.0
H592 H 0.39958 0.77647 0.87199 0.0
H593 H 0.3923 0.73251 0.881 0.0
C594 C 0.63467 0.41904 0.12638 0.0
C595 C 0.63428 0.44947 0.11209 0.0
C596 C 0.68671 0.45825 0.08024 0.0
C597 C 0.68442 0.42529 0.09207 0.0
N598 N 0.64664 0.36804 0.11919 0.0
N599 N 0.65156 0.48924 0.06814 0.0
C600 C 0.65541 0.40366 0.11292 0.0
C601 C 0.65746 0.46609 0.08653 0.0
N602 N 0.61704 0.40586 0.1535 0.0
N603 N 0.71784 0.48382 0.06514 0.0
H604 H 0.62936 0.49445 0.07131 0.0
H605 H 0.66601 0.49961 0.04784 0.0
H606 H 0.74219 0.48207 0.06282 0.0
H607 H 0.72139 0.50948 0.05852 0.0
H608 H 0.61972 0.38595 0.16598 0.0
H609 H 0.60318 0.41747 0.16512 0.0
H610 H 0.62377 0.35041 0.13251 0.0
H611 H 0.65898 0.35467 0.10792 0.0
C612 C 0.39168 0.81203 0.5609 0.0
C613 C 0.38385 0.82601 0.53393 0.0
C614 C 0.32487 0.76702 0.52548 0.0
C615 C 0.33399 0.7519 0.55113 0.0
N616 N 0.37908 0.75759 0.59008 0.0
N617 N 0.3473 0.81501 0.48725 0.0
C618 C 0.36824 0.77375 0.56805 0.0
C619 C 0.35178 0.80287 0.51517 0.0
N620 N 0.42096 0.83555 0.58003 0.0
N621 N 0.28967 0.74806 0.51197 0.0
H622 H 0.36626 0.84133 0.47903 0.0
H623 H 0.32674 0.79784 0.47109 0.0
H624 H 0.26845 0.72232 0.5194 0.0
H625 H 0.28015 0.75949 0.49538 0.0
H626 H 0.42552 0.82815 0.60173 0.0
H627 H 0.4393 0.86346 0.57509 0.0
H628 H 0.40553 0.77102 0.60099 0.0
H629 H 0.36287 0.72955 0.59565 0.0
C630 C 0.57811 0.36635 0.67773 0.0
C631 C 0.58015 0.39334 0.69907 0.0
C632 C 0.61014 0.37229 0.7368 0.0
C633 C 0.60276 0.3418 0.71705 0.0
N634 N 0.57128 0.3054 0.67111 0.0
N635 N 0.59261 0.41821 0.75089 0.0
C636 C 0.58461 0.33767 0.68806 0.0
C637 C 0.59474 0.39537 0.72918 0.0
N638 N 0.57045 0.36839 0.64746 0.0
N639 N 0.63303 0.38017 0.76217 0.0
H640 H 0.58116 0.43526 0.74639 0.0
H641 H 0.5991 0.41774 0.77398 0.0
H642 H 0.64611 0.36489 0.76789 0.0
H643 H 0.64221 0.40417 0.77568 0.0
H644 H 0.57232 0.35155 0.63048 0.0
H645 H 0.56615 0.38945 0.63894 0.0
H646 H 0.55476 0.29988 0.65124 0.0
H647 H 0.57271 0.28232 0.67856 0.0
C648 C 0.23737 0.5886 0.84314 0.0
C649 C 0.21205 0.58957 0.86458 0.0
C650 C 0.26233 0.61568 0.90409 0.0
C651 C 0.28554 0.60912 0.88425 0.0
N652 N 0.29906 0.59513 0.8341 0.0
N653 N 0.19958 0.60476 0.9149 0.0
C654 C 0.27435 0.59774 0.85332 0.0
C655 C 0.22449 0.60388 0.89481 0.0
N656 N 0.2257 0.57855 0.81329 0.0
N657 N 0.27692 0.63384 0.93154 0.0
H658 H 0.17222 0.59809 0.9084 0.0
H659 H 0.20525 0.61048 0.93825 0.0
H660 H 0.30483 0.64327 0.93852 0.0
H661 H 0.26277 0.64243 0.94618 0.0
H662 H 0.24293 0.57902 0.79583 0.0
H663 H 0.19861 0.57115 0.80537 0.0
H664 H 0.29228 0.58378 0.81201 0.0
H665 H 0.32712 0.60455 0.84052 0.0
C666 C 0.63961 0.23136 0.05822 0.0
C667 C 0.64455 0.21405 0.0319 0.0
C668 C 0.70704 0.2684 0.02418 0.0
C669 C 0.70174 0.28649 0.04988 0.0
N670 N 0.66206 0.28719 0.09001 0.0
N671 N 0.67845 0.21826 0.98611 0.0
C672 C 0.6675 0.2687 0.06627 0.0
C673 C 0.67688 0.23337 0.01368 0.0
N674 N 0.60913 0.21138 0.0763 0.0
N675 N 0.74136 0.284 0.0105 0.0
H676 H 0.65686 0.1925 0.97784 0.0
H677 H 0.69936 0.23257 0.9702 0.0
H678 H 0.7642 0.30967 0.01733 0.0
H679 H 0.74829 0.27027 0.99396 0.0
H680 H 0.60589 0.22047 0.09774 0.0
H681 H 0.58765 0.18442 0.07056 0.0
H682 H 0.63623 0.27785 0.10046 0.0
H683 H 0.68308 0.31304 0.09853 0.0
C684 C 0.48625 0.69741 0.2037 0.0
C685 C 0.45773 0.65956 0.19962 0.0
C686 C 0.41131 0.67567 0.21845 0.0
C687 C 0.43898 0.71433 0.21792 0.0
N688 N 0.50023 0.7608 0.19936 0.0
N689 N 0.39095 0.61473 0.19587 0.0
C690 C 0.47567 0.72489 0.20725 0.0
C691 C 0.41952 0.64925 0.20472 0.0
N692 N 0.52349 0.70729 0.20555 0.0
N693 N 0.37826 0.66359 0.23352 0.0
H694 H 0.39569 0.59515 0.18464 0.0
H695 H 0.36256 0.60725 0.19673 0.0
H696 H 0.37207 0.68114 0.24628 0.0
H697 H 0.35898 0.63539 0.23645 0.0
H698 H 0.54481 0.73442 0.21102 0.0
H699 H 0.5326 0.68785 0.20539 0.0
H700 H 0.52603 0.76858 0.18925 0.0
H701 H 0.49306 0.78164 0.19916 0.0
C702 C 0.78904 0.46133 0.34547 0.0
C703 C 0.81634 0.45975 0.36485 0.0
C704 C 0.76953 0.43145 0.40514 0.0
C705 C 0.74405 0.4378 0.38744 0.0
N706 N 0.72758 0.45685 0.34057 0.0
N707 N 0.8339 0.44445 0.41318 0.0
C708 C 0.75315 0.45191 0.35739 0.0
C709 C 0.80682 0.44472 0.39461 0.0
N710 N 0.79749 0.47154 0.31565 0.0
N711 N 0.75781 0.4123 0.43181 0.0
H712 H 0.86105 0.45253 0.40584 0.0
H713 H 0.83031 0.4382 0.43634 0.0
H714 H 0.73069 0.40233 0.44012 0.0
H715 H 0.77362 0.40354 0.44445 0.0
H716 H 0.77801 0.47018 0.29936 0.0
H717 H 0.82372 0.47916 0.30645 0.0
H718 H 0.73363 0.4711 0.32007 0.0
H719 H 0.7001 0.44749 0.34775 0.0
C720 C 0.17709 0.61364 0.45152 0.0
C721 C 0.13772 0.59913 0.45469 0.0
C722 C 0.14633 0.60587 0.51061 0.0
C723 C 0.1847 0.61576 0.50755 0.0
N724 N 0.23671 0.6273 0.47493 0.0
N725 N 0.08364 0.57533 0.4873 0.0
C726 C 0.20004 0.61886 0.47795 0.0
C727 C 0.12199 0.59381 0.48426 0.0
N728 N 0.19293 0.62455 0.4234 0.0
N729 N 0.13297 0.60765 0.53873 0.0
H730 H 0.06473 0.56469 0.46868 0.0
H731 H 0.07047 0.56723 0.50831 0.0
H732 H 0.1491 0.61382 0.55892 0.0
H733 H 0.10657 0.60508 0.54182 0.0
H734 H 0.22194 0.63906 0.42002 0.0
H735 H 0.17731 0.62247 0.40364 0.0
H736 H 0.24764 0.62461 0.45428 0.0
H737 H 0.25582 0.6347 0.49326 0.0
C738 C 0.58251 0.18403 0.61998 0.0
C739 C 0.5572 0.14525 0.62282 0.0
C740 C 0.557 0.15361 0.67855 0.0
C741 C 0.58609 0.19126 0.67604 0.0
N742 N 0.62831 0.24242 0.6443 0.0
N743 N 0.52507 0.09182 0.6552 0.0
C744 C 0.59956 0.20644 0.64674 0.0
C745 C 0.54546 0.12967 0.65221 0.0
N746 N 0.58856 0.19986 0.59176 0.0
N747 N 0.54051 0.14059 0.70613 0.0
H748 H 0.51744 0.07316 0.63668 0.0
H749 H 0.51898 0.07875 0.67627 0.0
H750 H 0.54974 0.15649 0.72638 0.0
H751 H 0.51625 0.11475 0.70859 0.0
H752 H 0.60344 0.22852 0.58844 0.0
H753 H 0.57552 0.18465 0.5717 0.0
H754 H 0.64278 0.25313 0.62411 0.0
H755 H 0.63959 0.26115 0.66277 0.0
C756 C 0.45487 0.56588 0.82104 0.0
C757 C 0.42894 0.54521 0.7969 0.0
C758 C 0.37882 0.54677 0.82571 0.0
C759 C 0.40632 0.5745 0.84601 0.0
N760 N 0.47243 0.61132 0.86191 0.0
N761 N 0.36535 0.49333 0.79432 0.0
C762 C 0.44493 0.58449 0.84332 0.0
C763 C 0.39018 0.52897 0.80384 0.0
N764 N 0.48577 0.56205 0.826 0.0
N765 N 0.34184 0.53768 0.8267 0.0
H766 H 0.3746 0.47657 0.78396 0.0
H767 H 0.33731 0.47884 0.80108 0.0
H768 H 0.33196 0.55009 0.84204 0.0
H769 H 0.32179 0.5202 0.8103 0.0
H770 H 0.50374 0.5734 0.84512 0.0
H771 H 0.48984 0.54281 0.81342 0.0
H772 H 0.5011 0.62164 0.85829 0.0
H773 H 0.46727 0.62544 0.87926 0.0
C774 C 0.90516 0.45402 0.98016 0.0
C775 C 0.88862 0.43505 0.95198 0.0
C776 C 0.82763 0.39742 0.97685 0.0
C777 C 0.84444 0.41627 1.00506 0.0
N778 N 0.89536 0.46875 0.03179 0.0
N779 N 0.83387 0.39176 0.92192 0.0
C780 C 0.88219 0.44631 0.0062 0.0
C781 C 0.84967 0.40763 0.94985 0.0
N782 N 0.94304 0.47915 0.98214 0.0
N783 N 0.79068 0.36959 0.97611 0.0
H784 H 0.84957 0.39746 0.90207 0.0
H785 H 0.80511 0.37412 0.91783 0.0
H786 H 0.7731 0.3639 0.99476 0.0
H787 H 0.77737 0.35161 0.9575 0.0
H788 H 0.95771 0.49028 1.00278 0.0
H789 H 0.96057 0.48731 0.96327 0.0
H790 H 0.92114 0.49352 0.03326 0.0
H791 H 0.87868 0.46423 0.05078 0.0
C792 C 0.45235 0.90526 0.14521 0.0
C793 C 0.46628 0.89378 0.12028 0.0
C794 C 0.45648 0.83886 0.14873 0.0
C795 C 0.44214 0.85019 0.17353 0.0
N796 N 0.41731 0.88838 0.19222 0.0
N797 N 0.47622 0.8472 0.09569 0.0
C798 C 0.43725 0.88163 0.17078 0.0
C799 C 0.46679 0.8598 0.12128 0.0
N800 N 0.45465 0.93935 0.14487 0.0
N801 N 0.46008 0.80794 0.1515 0.0
H802 H 0.48437 0.86213 0.07544 0.0
H803 H 0.47372 0.82101 0.09362 0.0
H804 H 0.44913 0.78994 0.16985 0.0
H805 H 0.47461 0.80052 0.13623 0.0
H806 H 0.44928 0.95133 0.16381 0.0
H807 H 0.46474 0.95714 0.1263 0.0
H808 H 0.40965 0.90875 0.19015 0.0
H809 H 0.40485 0.87093 0.21058 0.0
C810 C 0.62449 0.50272 0.31048 0.0
C811 C 0.59082 0.47652 0.29466 0.0
C812 C 0.57915 0.43193 0.3354 0.0
C813 C 0.61592 0.45588 0.34823 0.0
N814 N 0.67769 0.51008 0.34042 0.0
N815 N 0.5413 0.41213 0.28866 0.0
C816 C 0.63988 0.49014 0.33358 0.0
C817 C 0.56966 0.43983 0.30605 0.0
N818 N 0.64122 0.53986 0.30445 0.0
N819 N 0.55239 0.40295 0.3516 0.0
H820 H 0.53471 0.41618 0.26639 0.0
H821 H 0.52735 0.38431 0.29515 0.0
H822 H 0.55651 0.39789 0.37424 0.0
H823 H 0.52446 0.38689 0.3438 0.0
H824 H 0.66415 0.56007 0.31736 0.0
H825 H 0.62955 0.55076 0.2892 0.0
H826 H 0.69624 0.53362 0.32831 0.0
H827 H 0.69131 0.50073 0.35513 0.0
C828 C 0.42689 0.90381 0.33612 0.0
C829 C 0.43591 0.8921 0.36379 0.0
C830 C 0.42091 0.8326 0.33934 0.0
C831 C 0.41599 0.84589 0.31073 0.0
N832 N 0.41593 0.8947 0.28122 0.0
N833 N 0.44606 0.84773 0.39144 0.0
C834 C 0.41917 0.88159 0.309 0.0
C835 C 0.43423 0.85716 0.36531 0.0
N836 N 0.42481 0.93576 0.336 0.0
N837 N 0.41107 0.796 0.34214 0.0
H838 H 0.4553 0.86469 0.41113 0.0
H839 H 0.44959 0.82458 0.39286 0.0
H840 H 0.40041 0.77673 0.32397 0.0
H841 H 0.41027 0.78378 0.36304 0.0
H842 H 0.41432 0.94385 0.31758 0.0
H843 H 0.43101 0.95311 0.35528 0.0
H844 H 0.42221 0.92198 0.27761 0.0
H845 H 0.40995 0.87901 0.26107 0.0
C846 C 0.5878 0.42847 0.53575 0.0
C847 C 0.5627 0.44239 0.53114 0.0
C848 C 0.56378 0.43348 0.47557 0.0
C849 C 0.59232 0.42391 0.47996 0.0
N850 N 0.63324 0.41387 0.51424 0.0
N851 N 0.53172 0.46425 0.49657 0.0
C852 C 0.60503 0.42212 0.51006 0.0
C853 C 0.55178 0.44631 0.50102 0.0
N854 N 0.59347 0.41927 0.56457 0.0
N855 N 0.54839 0.43075 0.44699 0.0
H856 H 0.52354 0.47531 0.51447 0.0
H857 H 0.52637 0.47146 0.47506 0.0
H858 H 0.55838 0.42432 0.42735 0.0
H859 H 0.5244 0.43291 0.44298 0.0
H860 H 0.60813 0.40525 0.56914 0.0
H861 H 0.58046 0.4224 0.58384 0.0
H862 H 0.64723 0.41728 0.53517 0.0
H863 H 0.64461 0.40591 0.49648 0.0
C864 C 0.14521 0.53541 0.67927 0.0
C865 C 0.13749 0.56113 0.69468 0.0
C866 C 0.16815 0.60532 0.6534 0.0
C867 C 0.18098 0.58193 0.64065 0.0
N868 N 0.19003 0.52892 0.6485 0.0
N869 N 0.15137 0.62494 0.70002 0.0
C870 C 0.17204 0.54821 0.65566 0.0
C871 C 0.15201 0.5975 0.6829 0.0
N872 N 0.12587 0.4984 0.68604 0.0
N873 N 0.16899 0.63356 0.63692 0.0
H874 H 0.14152 0.62089 0.72235 0.0
H875 H 0.16455 0.65264 0.69325 0.0
H876 H 0.17703 0.63835 0.61414 0.0
H877 H 0.15699 0.64913 0.64466 0.0
H878 H 0.12848 0.47835 0.67338 0.0
H879 H 0.10413 0.48721 0.70173 0.0
H880 H 0.18637 0.50598 0.66087 0.0
H881 H 0.2119 0.53827 0.63301 0.0
C882 C 0.57061 0.15834 0.85256 0.0
C883 C 0.59375 0.14509 0.86535 0.0
C884 C 0.6421 0.18207 0.82826 0.0
C885 C 0.61609 0.18914 0.81182 0.0
N886 N 0.55089 0.17433 0.80559 0.0
N887 N 0.64817 0.13729 0.859 0.0
C888 C 0.57898 0.17474 0.8232 0.0
C889 C 0.62862 0.15494 0.85143 0.0
N890 N 0.54119 0.15621 0.86859 0.0
N891 N 0.67988 0.202 0.82274 0.0
H892 H 0.63808 0.11518 0.8741 0.0
H893 H 0.67215 0.14173 0.84741 0.0
H894 H 0.69163 0.22424 0.80776 0.0
H895 H 0.69985 0.19945 0.836 0.0
H896 H 0.52554 0.16831 0.86105 0.0
H897 H 0.53537 0.14631 0.89087 0.0
H898 H 0.52286 0.16121 0.81239 0.0
H899 H 0.55431 0.18263 0.78289 0.0
C900 C 0.46538 0.57934 1.00085 0.0
C901 C 0.45652 0.58645 0.03057 0.0
C902 C 0.41914 0.61193 0.00784 0.0
C903 C 0.43058 0.60751 0.97823 0.0
N904 N 0.47031 0.5936 0.94697 0.0
N905 N 0.43169 0.61666 0.06259 0.0
C906 C 0.45575 0.59355 0.97493 0.0
C907 C 0.43495 0.60444 0.03418 0.0
N908 N 0.48126 0.55732 0.99722 0.0
N909 N 0.39365 0.6239 0.01094 0.0
H910 H 0.44414 0.61318 0.08234 0.0
H911 H 0.41986 0.63349 0.06633 0.0
H912 H 0.38344 0.63249 0.99264 0.0
H913 H 0.38049 0.62281 0.03145 0.0
H914 H 0.48511 0.54827 0.97594 0.0
H915 H 0.48695 0.54471 0.01548 0.0
H916 H 0.49231 0.58816 0.94385 0.0
H917 H 0.46164 0.60098 0.92702 0.0
C918 C 0.89912 0.489 0.16415 0.0
C919 C 0.88538 0.47113 0.19242 0.0
C920 C 0.8241 0.42791 0.16799 0.0
C921 C 0.83833 0.4446 0.13923 0.0
N922 N 0.88568 0.49672 0.11139 0.0
N923 N 0.83734 0.4209 0.22112 0.0
C924 C 0.87484 0.47678 0.13771 0.0
C925 C 0.8485 0.43993 0.19433 0.0
N926 N 0.93589 0.51701 0.16243 0.0
N927 N 0.78657 0.40228 0.17057 0.0
H928 H 0.85414 0.42923 0.24105 0.0
H929 H 0.81279 0.39523 0.22313 0.0
H930 H 0.76722 0.39357 0.15228 0.0
H931 H 0.77355 0.39198 0.19134 0.0
H932 H 0.94947 0.52781 0.14195 0.0
H933 H 0.95397 0.52804 0.18153 0.0
H934 H 0.91012 0.52249 0.10956 0.0
H935 H 0.86865 0.48924 0.09174 0.0
loop_
_geom_bond_atom_site_label_1
_geom_bond_atom_site_label_2
_geom_bond_distance
_geom_bond_site_symmetry_2
_ccdc_geom_bond_type
H0 C19 0.949 . S
H1 C20 0.950 . S
H2 C22 0.950 . S
H3 C23 0.950 . S
H4 C25 0.950 . S
H5 C28 0.950 . S
H6 C29 0.950 . S
H7 C31 0.951 . S
H8 C32 0.949 . S
H9 C34 0.949 . S
H10 C35 0.950 . S
H11 C37 0.950 . S
H12 C38 0.950 . S
H13 C40 0.950 . S
H14 C43 0.950 . S
H15 C44 0.950 . S
H16 C46 0.951 . S
H17 C47 0.949 . S
C18 C19 1.376 . S
C18 C23 1.386 . S
C18 C24 1.483 . S
C19 H0 0.949 . S
C19 C18 1.376 . S
C19 C20 1.397 . S
C20 H1 0.950 . S
C20 C19 1.397 . S
C20 C21 1.391 . S
C21 C20 1.391 . S
C21 C22 1.405 . S
C22 H2 0.950 . S
C22 C21 1.405 . S
C22 C23 1.367 . S
C23 H3 0.950 . S
C23 C18 1.386 . S
C23 C22 1.367 . S
C24 C18 1.483 . S
C24 C25 1.382 1_655 S
C24 C26 1.403 . S
C25 H4 0.950 . S
C25 C24 1.382 1_455 S
C25 C41 1.411 . S
C26 C24 1.403 . S
C26 C27 1.489 . S
C26 C40 1.411 . S
C27 C26 1.489 . S
C27 C28 1.383 . S
C27 C32 1.382 . S
C28 H5 0.950 . S
C28 C27 1.383 . S
C28 C29 1.395 . S
C29 H6 0.950 . S
C29 C28 1.395 . S
C29 C30 1.288 . S
C30 C29 1.288 . S
C30 C31 1.392 . S
C31 H7 0.951 . S
C31 C30 1.392 . S
C31 C32 1.392 . S
C32 H8 0.949 . S
C32 C27 1.382 . S
C32 C31 1.392 . S
C33 C34 1.376 . S
C33 C38 1.386 . S
C33 C39 1.483 . S
C34 H9 0.949 . S
C34 C33 1.376 . S
C34 C35 1.397 . S
C35 H10 0.950 . S
C35 C34 1.397 . S
C35 C36 1.391 . S
C36 C35 1.391 . S
C36 C37 1.405 . S
C37 H11 0.950 . S
C37 C36 1.405 . S
C37 C38 1.367 . S
C38 H12 0.950 . S
C38 C33 1.386 . S
C38 C37 1.367 . S
C39 C33 1.483 . S
C39 C40 1.382 1_455 S
C39 C41 1.403 . S
C40 H13 0.950 . S
C40 C26 1.411 . S
C40 C39 1.382 1_655 S
C41 C25 1.411 . S
C41 C39 1.403 . S
C41 C42 1.489 . S
C42 C41 1.489 . S
C42 C43 1.383 . S
C42 C47 1.382 . S
C43 H14 0.950 . S
C43 C42 1.383 . S
C43 C44 1.395 . S
C44 H15 0.950 . S
C44 C43 1.395 . S
C44 C45 1.288 . S
C45 C44 1.288 . S
C45 C46 1.392 . S
C46 H16 0.951 . S
C46 C45 1.392 . S
C46 C47 1.392 . S
C47 H17 0.949 . S
C47 C42 1.382 . S
C47 C46 1.392 . S
H48 C67 0.949 . S
H49 C68 0.950 . S
H50 C70 0.950 . S
H51 C71 0.950 . S
H52 C73 0.950 1_565 S
H53 C76 0.950 . S
H54 C77 0.950 . S
H55 C79 0.951 . S
H56 C80 0.949 . S
H57 C82 0.949 . S
H58 C83 0.950 . S
H59 C85 0.950 . S
H60 C86 0.950 . S
H61 C88 0.950 . S
H62 C91 0.950 . S
H63 C92 0.950 . S
H64 C94 0.951 . S
H65 C95 0.949 . S
C66 C67 1.376 . S
C66 C71 1.386 . S
C66 C72 1.483 . S
C67 H48 0.949 . S
C67 C66 1.376 . S
C67 C68 1.397 . S
C68 H49 0.950 . S
C68 C67 1.397 . S
C68 C69 1.391 . S
C69 C68 1.391 . S
C69 C70 1.405 . S
C70 H50 0.950 . S
C70 C69 1.405 . S
C70 C71 1.367 . S
C71 H51 0.950 . S
C71 C66 1.386 . S
C71 C70 1.367 . S
C72 C66 1.483 . S
C72 C73 1.382 1_565 S
C72 C74 1.403 . S
C73 H52 0.950 1_545 S
C73 C72 1.382 1_545 S
C73 C89 1.411 . S
C74 C72 1.403 . S
C74 C75 1.489 . S
C74 C88 1.411 1_565 S
C75 C74 1.489 . S
C75 C76 1.383 . S
C75 C80 1.382 . S
C76 H53 0.950 . S
C76 C75 1.383 . S
C76 C77 1.395 . S
C77 H54 0.950 . S
C77 C76 1.395 . S
C77 C78 1.288 . S
C78 C77 1.288 . S
C78 C79 1.392 . S
C79 H55 0.951 . S
C79 C78 1.392 . S
C79 C80 1.392 . S
C80 H56 0.949 . S
C80 C75 1.382 . S
C80 C79 1.392 . S
C81 C82 1.376 . S
C81 C86 1.386 . S
C81 C87 1.483 . S
C82 H57 0.949 . S
C82 C81 1.376 . S
C82 C83 1.397 . S
C83 H58 0.950 . S
C83 C82 1.397 . S
C83 C84 1.391 . S
C84 C83 1.391 . S
C84 C85 1.405 . S
C85 H59 0.950 . S
C85 C84 1.405 . S
C85 C86 1.367 . S
C86 H60 0.950 . S
C86 C81 1.386 . S
C86 C85 1.367 . S
C87 C81 1.483 . S
C87 C88 1.382 . S
C87 C89 1.403 . S
C88 H61 0.950 . S
C88 C74 1.411 1_545 S
C88 C87 1.382 . S
C89 C73 1.411 . S
C89 C87 1.403 . S
C89 C90 1.489 . S
C90 C89 1.489 . S
C90 C91 1.383 . S
C90 C95 1.382 . S
C91 H62 0.950 . S
C91 C90 1.383 . S
C91 C92 1.395 . S
C92 H63 0.950 . S
C92 C91 1.395 . S
C92 C93 1.288 . S
C93 C92 1.288 . S
C93 C94 1.392 . S
C94 H64 0.951 . S
C94 C93 1.392 . S
C94 C95 1.392 . S
C95 H65 0.949 . S
C95 C90 1.382 . S
C95 C94 1.392 . S
H96 C115 0.949 . S
H97 C116 0.950 . S
H98 C118 0.950 . S
H99 C119 0.950 . S
H100 C121 0.950 . S
H101 C124 0.950 . S
H102 C125 0.950 . S
H103 C127 0.951 . S
H104 C128 0.949 . S
H105 C130 0.949 . S
H106 C131 0.950 . S
H107 C133 0.950 . S
H108 C134 0.950 . S
H109 C136 0.950 . S
H110 C139 0.950 . S
H111 C140 0.950 . S
H112 C142 0.951 . S
H113 C143 0.949 . S
C114 C115 1.376 . S
C114 C119 1.386 . S
C114 C120 1.483 . S
C115 H96 0.949 . S
C115 C114 1.376 . S
C115 C116 1.397 . S
C116 H97 0.950 . S
C116 C115 1.397 . S
C116 C117 1.391 . S
C117 C116 1.391 . S
C117 C118 1.405 . S
C118 H98 0.950 . S
C118 C117 1.405 . S
C118 C119 1.367 . S
C119 H99 0.950 . S
C119 C114 1.386 . S
C119 C118 1.367 . S
C120 C114 1.483 . S
C120 C121 1.382 . S
C120 C122 1.403 . S
C121 H100 0.950 . S
C121 C120 1.382 . S
C121 C137 1.411 . S
C122 C120 1.403 . S
C122 C123 1.489 . S
C122 C136 1.411 . S
C123 C122 1.489 . S
C123 C124 1.383 . S
C123 C128 1.382 . S
C124 H101 0.950 . S
C124 C123 1.383 . S
C124 C125 1.395 . S
C125 H102 0.950 . S
C125 C124 1.395 . S
C125 C126 1.288 . S
C126 C125 1.288 . S
C126 C127 1.392 . S
C127 H103 0.951 . S
C127 C126 1.392 . S
C127 C128 1.392 . S
C128 H104 0.949 . S
C128 C123 1.382 . S
C128 C127 1.392 . S
C129 C130 1.376 . S
C129 C134 1.386 . S
C129 C135 1.483 . S
C130 H105 0.949 . S
C130 C129 1.376 . S
C130 C131 1.397 . S
C131 H106 0.950 . S
C131 C130 1.397 . S
C131 C132 1.391 . S
C132 C131 1.391 . S
C132 C133 1.405 . S
C133 H107 0.950 . S
C133 C132 1.405 . S
C133 C134 1.367 . S
C134 H108 0.950 . S
C134 C129 1.386 . S
C134 C133 1.367 . S
C135 C129 1.483 . S
C135 C136 1.382 . S
C135 C137 1.403 . S
C136 H109 0.950 . S
C136 C122 1.411 . S
C136 C135 1.382 . S
C137 C121 1.411 . S
C137 C135 1.403 . S
C137 C138 1.489 . S
C138 C137 1.489 . S
C138 C139 1.383 . S
C138 C143 1.382 . S
C139 H110 0.950 . S
C139 C138 1.383 . S
C139 C140 1.395 . S
C140 H111 0.950 . S
C140 C139 1.395 . S
C140 C141 1.288 . S
C141 C140 1.288 . S
C141 C142 1.392 . S
C142 H112 0.951 . S
C142 C141 1.392 . S
C142 C143 1.392 . S
C143 H113 0.949 . S
C143 C138 1.382 . S
C143 C142 1.392 . S
H144 C163 0.949 . S
H145 C164 0.950 . S
H146 C166 0.950 . S
H147 C167 0.950 . S
H148 C169 0.950 . S
H149 C172 0.950 . S
H150 C173 0.950 . S
H151 C175 0.951 . S
H152 C176 0.949 . S
H153 C178 0.949 . S
H154 C179 0.950 . S
H155 C181 0.950 . S
H156 C182 0.950 . S
H157 C184 0.950 . S
H158 C187 0.950 . S
H159 C188 0.950 . S
H160 C190 0.951 . S
H161 C191 0.949 . S
C162 C163 1.376 . S
C162 C167 1.386 . S
C162 C168 1.483 . S
C163 H144 0.949 . S
C163 C162 1.376 . S
C163 C164 1.397 . S
C164 H145 0.950 . S
C164 C163 1.397 . S
C164 C165 1.391 . S
C165 C164 1.391 . S
C165 C166 1.405 . S
C166 H146 0.950 . S
C166 C165 1.405 . S
C166 C167 1.367 . S
C167 H147 0.950 . S
C167 C162 1.386 . S
C167 C166 1.367 . S
C168 C162 1.483 . S
C168 C169 1.382 1_455 S
C168 C170 1.403 . S
C169 H148 0.950 . S
C169 C168 1.382 1_655 S
C169 C185 1.411 . S
C170 C168 1.403 . S
C170 C171 1.489 . S
C170 C184 1.411 . S
C171 C170 1.489 . S
C171 C172 1.383 . S
C171 C176 1.382 . S
C172 H149 0.950 . S
C172 C171 1.383 . S
C172 C173 1.395 . S
C173 H150 0.950 . S
C173 C172 1.395 . S
C173 C174 1.288 . S
C174 C173 1.288 . S
C174 C175 1.392 . S
C175 H151 0.951 . S
C175 C174 1.392 . S
C175 C176 1.392 . S
C176 H152 0.949 . S
C176 C171 1.382 . S
C176 C175 1.392 . S
C177 C178 1.376 . S
C177 C182 1.386 . S
C177 C183 1.483 . S
C178 H153 0.949 . S
C178 C177 1.376 . S
C178 C179 1.397 . S
C179 H154 0.950 . S
C179 C178 1.397 . S
C179 C180 1.391 . S
C180 C179 1.391 . S
C180 C181 1.405 . S
C181 H155 0.950 . S
C181 C180 1.405 . S
C181 C182 1.367 . S
C182 H156 0.950 . S
C182 C177 1.386 . S
C182 C181 1.367 . S
C183 C177 1.483 . S
C183 C184 1.382 1_655 S
C183 C185 1.403 . S
C184 H157 0.950 . S
C184 C170 1.411 . S
C184 C183 1.382 1_455 S
C185 C169 1.411 . S
C185 C183 1.403 . S
C185 C186 1.489 . S
C186 C185 1.489 . S
C186 C187 1.383 . S
C186 C191 1.382 . S
C187 H158 0.950 . S
C187 C186 1.383 . S
C187 C188 1.395 . S
C188 H159 0.950 . S
C188 C187 1.395 . S
C188 C189 1.288 . S
C189 C188 1.288 . S
C189 C190 1.392 . S
C190 H160 0.951 . S
C190 C189 1.392 . S
C190 C191 1.392 . S
C191 H161 0.949 . S
C191 C186 1.382 . S
C191 C190 1.392 . S
H192 C211 0.949 . S
H193 C212 0.950 . S
H194 C214 0.950 . S
H195 C215 0.968 . S
H196 C217 0.950 . S
H197 C220 0.950 . S
H198 C221 0.950 . S
H199 C223 0.951 . S
H200 C224 0.949 . S
H201 C226 0.949 . S
H202 C227 0.950 . S
H203 C229 0.950 . S
H204 C230 0.950 . S
H205 C232 0.950 1_565 S
H206 C235 0.950 . S
H207 C236 0.950 . S
H208 C238 0.951 . S
H209 C239 0.949 . S
C210 C211 1.376 . S
C210 C215 1.379 1_554 S
C210 C216 1.483 1_554 S
C211 H192 0.949 . S
C211 C210 1.376 . S
C211 C212 1.397 . S
C212 H193 0.950 . S
C212 C211 1.397 . S
C212 C213 1.391 . S
C213 C212 1.391 . S
C213 C214 1.405 . S
C214 H194 0.950 . S
C214 C213 1.405 . S
C214 C215 1.358 1_554 S
C215 H195 0.968 . S
C215 C210 1.379 1_556 S
C215 C214 1.358 1_556 S
C216 C210 1.483 1_556 S
C216 C217 1.382 1_556 S
C216 C218 1.403 . S
C217 H196 0.950 . S
C217 C216 1.382 1_554 S
C217 C233 1.411 1_545 S
C218 C216 1.403 . S
C218 C219 1.489 . S
C218 C232 1.411 . S
C219 C218 1.489 . S
C219 C220 1.383 . S
C219 C224 1.382 . S
C220 H197 0.950 . S
C220 C219 1.383 . S
C220 C221 1.395 . S
C221 H198 0.950 . S
C221 C220 1.395 . S
C221 C222 1.288 . S
C222 C221 1.288 . S
C222 C223 1.392 . S
C223 H199 0.951 . S
C223 C222 1.392 . S
C223 C224 1.392 . S
C224 H200 0.949 . S
C224 C219 1.382 . S
C224 C223 1.392 . S
C225 C226 1.376 . S
C225 C230 1.386 . S
C225 C231 1.483 . S
C226 H201 0.949 . S
C226 C225 1.376 . S
C226 C227 1.397 . S
C227 H202 0.950 . S
C227 C226 1.397 . S
C227 C228 1.391 . S
C228 C227 1.391 . S
C228 C229 1.405 . S
C229 H203 0.950 . S
C229 C228 1.405 . S
C229 C230 1.367 . S
C230 H204 0.950 . S
C230 C225 1.386 . S
C230 C229 1.367 . S
C231 C225 1.483 . S
C231 C232 1.382 1_565 S
C231 C233 1.403 1_556 S
C232 H205 0.950 1_545 S
C232 C218 1.411 . S
C232 C231 1.382 1_545 S
C233 C217 1.411 1_565 S
C233 C231 1.403 1_554 S
C233 C234 1.489 . S
C234 C233 1.489 . S
C234 C235 1.383 . S
C234 C239 1.382 . S
C235 H206 0.950 . S
C235 C234 1.383 . S
C235 C236 1.395 . S
C236 H207 0.950 . S
C236 C235 1.395 . S
C236 C237 1.288 . S
C237 C236 1.288 . S
C237 C238 1.392 . S
C238 H208 0.951 . S
C238 C237 1.392 . S
C238 C239 1.392 . S
C239 H209 0.949 . S
C239 C234 1.382 . S
C239 C238 1.392 . S
H240 C259 0.949 . S
H241 C260 0.950 . S
H242 C262 0.950 . S
H243 C263 0.950 . S
H244 C265 0.950 . S
H245 C268 0.950 . S
H246 C269 0.950 . S
H247 C271 0.951 . S
H248 C272 0.949 . S
H249 C274 0.949 . S
H250 C275 0.950 . S
H251 C277 0.950 . S
H252 C278 0.950 . S
H253 C280 0.950 . S
H254 C283 0.950 . S
H255 C284 0.950 . S
H256 C286 0.951 . S
H257 C287 0.949 . S
C258 C259 1.376 . S
C258 C263 1.386 . S
C258 C264 1.483 . S
C259 H240 0.949 . S
C259 C258 1.376 . S
C259 C260 1.397 . S
C260 H241 0.950 . S
C260 C259 1.397 . S
C260 C261 1.391 . S
C261 C260 1.391 . S
C261 C262 1.405 . S
C262 H242 0.950 . S
C262 C261 1.405 . S
C262 C263 1.367 . S
C263 H243 0.950 . S
C263 C258 1.386 . S
C263 C262 1.367 . S
C264 C258 1.483 . S
C264 C265 1.382 . S
C264 C266 1.403 . S
C265 H244 0.950 . S
C265 C264 1.382 . S
C265 C281 1.411 . S
C266 C264 1.403 . S
C266 C267 1.489 . S
C266 C280 1.411 . S
C267 C266 1.489 . S
C267 C268 1.383 . S
C267 C272 1.382 . S
C268 H245 0.950 . S
C268 C267 1.383 . S
C268 C269 1.395 . S
C269 H246 0.950 . S
C269 C268 1.395 . S
C269 C270 1.288 . S
C270 C269 1.288 . S
C270 C271 1.392 . S
C271 H247 0.951 . S
C271 C270 1.392 . S
C271 C272 1.392 . S
C272 H248 0.949 . S
C272 C267 1.382 . S
C272 C271 1.392 . S
C273 C274 1.376 . S
C273 C278 1.386 . S
C273 C279 1.483 . S
C274 H249 0.949 . S
C274 C273 1.376 . S
C274 C275 1.397 . S
C275 H250 0.950 . S
C275 C274 1.397 . S
C275 C276 1.391 . S
C276 C275 1.391 . S
C276 C277 1.405 . S
C277 H251 0.950 . S
C277 C276 1.405 . S
C277 C278 1.367 . S
C278 H252 0.950 . S
C278 C273 1.386 . S
C278 C277 1.367 . S
C279 C273 1.483 . S
C279 C280 1.382 . S
C279 C281 1.403 . S
C280 H253 0.950 . S
C280 C266 1.411 . S
C280 C279 1.382 . S
C281 C265 1.411 . S
C281 C279 1.403 . S
C281 C282 1.489 . S
C282 C281 1.489 . S
C282 C283 1.383 . S
C282 C287 1.382 . S
C283 H254 0.950 . S
C283 C282 1.383 . S
C283 C284 1.395 . S
C284 H255 0.950 . S
C284 C283 1.395 . S
C284 C285 1.288 . S
C285 C284 1.288 . S
C285 C286 1.392 . S
C286 H256 0.951 . S
C286 C285 1.392 . S
C286 C287 1.392 . S
C287 H257 0.949 . S
C287 C282 1.382 . S
C287 C286 1.392 . S
Mn288 O293 2.095 . S
Mn288 O303 2.162 . S
Mn288 O304 2.297 . S
Mn288 O312 2.385 . S
Mn288 O313 2.209 . S
Mn288 O314 2.094 . S
Mn289 O294 2.121 . S
Mn289 N296 2.257 . S
Mn289 N305 2.282 . S
Mn289 O313 2.215 . S
Mn289 O315 2.117 . S
C290 O312 1.234 . S
C290 O313 1.283 . S
C291 O303 1.281 . S
C291 O304 1.236 . S
C292 O314 1.240 . S
C292 O315 1.264 . S
O293 Mn288 2.095 . S
O293 C302 1.250 . S
O294 Mn289 2.121 . S
O294 C302 1.258 . S
C295 N296 1.326 . S
C295 C299 1.460 . S
C295 H301 0.929 . S
N296 Mn289 2.257 . S
N296 C295 1.326 . S
N296 C300 1.362 . S
C297 C298 1.258 . S
C297 C300 1.431 . S
C297 C317 1.449 . S
C298 C297 1.258 . S
C298 C299 1.477 . S
C298 H318 0.931 . S
C299 C295 1.460 . S
C299 C298 1.477 . S
C299 H319 0.930 . S
C300 N296 1.362 . S
C300 C297 1.431 . S
C300 C310 1.476 . S
H301 C295 0.929 . S
C302 O293 1.250 . S
C302 O294 1.258 . S
O303 Mn288 2.162 . S
O303 C291 1.281 . S
O304 Mn288 2.297 . S
O304 C291 1.236 . S
N305 Mn289 2.282 . S
N305 C306 1.328 . S
N305 C310 1.318 . S
C306 N305 1.328 . S
C306 C307 1.457 . S
C306 H311 0.929 . S
C307 C306 1.457 . S
C307 C308 1.291 . S
C307 H320 0.931 . S
C308 C307 1.291 . S
C308 C309 1.373 . S
C308 H321 0.929 . S
C309 C308 1.373 . S
C309 C310 1.396 . S
C309 C316 1.403 . S
C310 C300 1.476 . S
C310 N305 1.318 . S
C310 C309 1.396 . S
H311 C306 0.929 . S
O312 Mn288 2.385 . S
O312 C290 1.234 . S
O313 Mn288 2.209 . S
O313 Mn289 2.215 . S
O313 C290 1.283 . S
O314 Mn288 2.094 . S
O314 C292 1.240 . S
O315 Mn289 2.117 . S
O315 C292 1.264 . S
C316 C309 1.403 . S
C316 C317 1.399 . S
C316 H322 0.929 . S
C317 C297 1.449 . S
C317 C316 1.399 . S
C317 H323 0.930 . S
H318 C298 0.931 . S
H319 C299 0.930 . S
H320 C307 0.931 . S
H321 C308 0.929 . S
H322 C316 0.929 . S
H323 C317 0.930 . S
Mn324 O329 2.095 . S
Mn324 O339 2.162 . S
Mn324 O340 2.297 . S
Mn324 O348 2.385 . S
Mn324 O349 2.209 . S
Mn324 O350 2.094 . S
Mn325 O330 2.121 . S
Mn325 N332 2.257 . S
Mn325 N341 2.282 . S
Mn325 O349 2.215 . S
Mn325 O351 2.117 . S
C326 O348 1.234 . S
C326 O349 1.283 . S
C327 O339 1.281 . S
C327 O340 1.236 . S
C328 O350 1.240 . S
C328 O351 1.264 . S
O329 Mn324 2.095 . S
O329 C338 1.250 . S
O330 Mn325 2.121 . S
O330 C338 1.258 . S
C331 N332 1.326 . S
C331 C335 1.460 . S
C331 H337 0.929 . S
N332 Mn325 2.257 . S
N332 C331 1.326 . S
N332 C336 1.362 . S
C333 C334 1.258 . S
C333 C336 1.431 . S
C333 C353 1.449 . S
C334 C333 1.258 . S
C334 C335 1.477 . S
C334 H354 0.931 . S
C335 C331 1.460 . S
C335 C334 1.477 . S
C335 H355 0.930 . S
C336 N332 1.362 . S
C336 C333 1.431 . S
C336 C346 1.476 . S
H337 C331 0.929 . S
C338 O329 1.250 . S
C338 O330 1.258 . S
O339 Mn324 2.162 . S
O339 C327 1.281 . S
O340 Mn324 2.297 . S
O340 C327 1.236 . S
N341 Mn325 2.282 . S
N341 C342 1.328 . S
N341 C346 1.318 . S
C342 N341 1.328 . S
C342 C343 1.457 . S
C342 H347 0.929 . S
C343 C342 1.457 . S
C343 C344 1.291 . S
C343 H356 0.931 . S
C344 C343 1.291 . S
C344 C345 1.373 . S
C344 H357 0.929 . S
C345 C344 1.373 . S
C345 C346 1.396 . S
C345 C352 1.403 . S
C346 C336 1.476 . S
C346 N341 1.318 . S
C346 C345 1.396 . S
H347 C342 0.929 . S
O348 Mn324 2.385 . S
O348 C326 1.234 . S
O349 Mn324 2.209 . S
O349 Mn325 2.215 . S
O349 C326 1.283 . S
O350 Mn324 2.094 . S
O350 C328 1.240 . S
O351 Mn325 2.117 . S
O351 C328 1.264 . S
C352 C345 1.403 . S
C352 C353 1.399 . S
C352 H358 0.929 . S
C353 C333 1.449 . S
C353 C352 1.399 . S
C353 H359 0.930 . S
H354 C334 0.931 . S
H355 C335 0.930 . S
H356 C343 0.931 . S
H357 C344 0.929 . S
H358 C352 0.929 . S
H359 C353 0.930 . S
Mn360 O365 2.095 . S
Mn360 O375 2.162 . S
Mn360 O376 2.297 . S
Mn360 O384 2.385 . S
Mn360 O385 2.209 . S
Mn360 O386 2.094 . S
Mn361 O366 2.121 . S
Mn361 N368 2.257 . S
Mn361 N377 2.282 . S
Mn361 O385 2.215 . S
Mn361 O387 2.117 . S
C362 O384 1.234 . S
C362 O385 1.283 . S
C363 O375 1.281 . S
C363 O376 1.236 . S
C364 O386 1.240 . S
C364 O387 1.264 . S
O365 Mn360 2.095 . S
O365 C374 1.250 . S
O366 Mn361 2.121 . S
O366 C374 1.258 . S
C367 N368 1.326 . S
C367 C371 1.460 . S
C367 H373 0.929 . S
N368 Mn361 2.257 . S
N368 C367 1.326 . S
N368 C372 1.362 . S
C369 C370 1.258 . S
C369 C372 1.431 . S
C369 C389 1.449 . S
C370 C369 1.258 . S
C370 C371 1.477 . S
C370 H390 0.931 . S
C371 C367 1.460 . S
C371 C370 1.477 . S
C371 H391 0.930 . S
C372 N368 1.362 . S
C372 C369 1.431 . S
C372 C382 1.476 . S
H373 C367 0.929 . S
C374 O365 1.250 . S
C374 O366 1.258 . S
O375 Mn360 2.162 . S
O375 C363 1.281 . S
O376 Mn360 2.297 . S
O376 C363 1.236 . S
N377 Mn361 2.282 . S
N377 C378 1.328 . S
N377 C382 1.318 . S
C378 N377 1.328 . S
C378 C379 1.457 . S
C378 H383 0.929 . S
C379 C378 1.457 . S
C379 C380 1.291 . S
C379 H392 0.931 . S
C380 C379 1.291 . S
C380 C381 1.373 . S
C380 H393 0.929 . S
C381 C380 1.373 . S
C381 C382 1.396 . S
C381 C388 1.403 . S
C382 C372 1.476 . S
C382 N377 1.318 . S
C382 C381 1.396 . S
H383 C378 0.929 . S
O384 Mn360 2.385 . S
O384 C362 1.234 . S
O385 Mn360 2.209 . S
O385 Mn361 2.215 . S
O385 C362 1.283 . S
O386 Mn360 2.094 . S
O386 C364 1.240 . S
O387 Mn361 2.117 . S
O387 C364 1.264 . S
C388 C381 1.403 . S
C388 C389 1.399 . S
C388 H394 0.929 . S
C389 C369 1.449 . S
C389 C388 1.399 . S
C389 H395 0.930 . S
H390 C370 0.931 . S
H391 C371 0.930 . S
H392 C379 0.931 . S
H393 C380 0.929 . S
H394 C388 0.929 . S
H395 C389 0.930 . S
Mn396 O401 2.095 . S
Mn396 O411 2.162 . S
Mn396 O412 2.297 . S
Mn396 O420 2.385 . S
Mn396 O421 2.209 . S
Mn396 O422 2.094 . S
Mn397 O402 2.121 . S
Mn397 N404 2.257 . S
Mn397 N413 2.282 . S
Mn397 O421 2.215 . S
Mn397 O423 2.117 . S
C398 O420 1.234 . S
C398 O421 1.283 . S
C399 O411 1.281 . S
C399 O412 1.236 . S
C400 O422 1.240 . S
C400 O423 1.264 . S
O401 Mn396 2.095 . S
O401 C410 1.250 . S
O402 Mn397 2.121 . S
O402 C410 1.258 . S
C403 N404 1.326 . S
C403 C407 1.460 . S
C403 H409 0.929 . S
N404 Mn397 2.257 . S
N404 C403 1.326 . S
N404 C408 1.362 . S
C405 C406 1.258 . S
C405 C408 1.431 . S
C405 C425 1.449 . S
C406 C405 1.258 . S
C406 C407 1.477 . S
C406 H426 0.931 1_556 S
C407 C403 1.460 . S
C407 C406 1.477 . S
C407 H427 0.930 . S
C408 N404 1.362 . S
C408 C405 1.431 . S
C408 C418 1.476 . S
H409 C403 0.929 . S
C410 O401 1.250 . S
C410 O402 1.258 . S
O411 Mn396 2.162 . S
O411 C399 1.281 . S
O412 Mn396 2.297 . S
O412 C399 1.236 . S
N413 Mn397 2.282 . S
N413 C414 1.328 . S
N413 C418 1.318 . S
C414 N413 1.328 . S
C414 C415 1.457 . S
C414 H419 0.929 . S
C415 C414 1.457 . S
C415 C416 1.291 . S
C415 H428 0.931 . S
C416 C415 1.291 . S
C416 C417 1.373 . S
C416 H429 0.929 . S
C417 C416 1.373 . S
C417 C418 1.396 . S
C417 C424 1.403 . S
C418 C408 1.476 . S
C418 N413 1.318 . S
C418 C417 1.396 . S
H419 C414 0.929 . S
O420 Mn396 2.385 . S
O420 C398 1.234 . S
O421 Mn396 2.209 . S
O421 Mn397 2.215 . S
O421 C398 1.283 . S
O422 Mn396 2.094 . S
O422 C400 1.240 . S
O423 Mn397 2.117 . S
O423 C400 1.264 . S
C424 C417 1.403 . S
C424 C425 1.399 . S
C424 H430 0.929 . S
C425 C405 1.449 . S
C425 C424 1.399 . S
C425 H431 0.930 1_556 S
H426 C406 0.931 1_554 S
H427 C407 0.930 . S
H428 C415 0.931 . S
H429 C416 0.929 . S
H430 C424 0.929 . S
H431 C425 0.930 1_554 S
Mn432 O437 2.095 . S
Mn432 O447 2.162 . S
Mn432 O448 2.297 . S
Mn432 O456 2.385 . S
Mn432 O457 2.209 . S
Mn432 O458 2.094 . S
Mn433 O438 2.121 . S
Mn433 N440 2.257 . S
Mn433 N449 2.282 . S
Mn433 O457 2.215 . S
Mn433 O459 2.117 . S
C434 O456 1.234 . S
C434 O457 1.283 . S
C435 O447 1.281 . S
C435 O448 1.236 . S
C436 O458 1.240 . S
C436 O459 1.264 . S
O437 Mn432 2.095 . S
O437 C446 1.250 . S
O438 Mn433 2.121 . S
O438 C446 1.258 . S
C439 N440 1.326 . S
C439 C443 1.460 . S
C439 H445 0.929 . S
N440 Mn433 2.257 . S
N440 C439 1.326 . S
N440 C444 1.362 . S
C441 C442 1.258 . S
C441 C444 1.431 . S
C441 C461 1.449 . S
C442 C441 1.258 . S
C442 C443 1.477 . S
C442 H462 0.931 . S
C443 C439 1.460 . S
C443 C442 1.477 . S
C443 H463 0.930 . S
C444 N440 1.362 . S
C444 C441 1.431 . S
C444 C454 1.476 . S
H445 C439 0.929 . S
C446 O437 1.250 . S
C446 O438 1.258 . S
O447 Mn432 2.162 . S
O447 C435 1.281 . S
O448 Mn432 2.297 . S
O448 C435 1.236 . S
N449 Mn433 2.282 . S
N449 C450 1.328 . S
N449 C454 1.318 . S
C450 N449 1.328 . S
C450 C451 1.457 . S
C450 H455 0.929 . S
C451 C450 1.457 . S
C451 C452 1.291 . S
C451 H464 0.931 . S
C452 C451 1.291 . S
C452 C453 1.373 . S
C452 H465 0.929 . S
C453 C452 1.373 . S
C453 C454 1.396 . S
C453 C460 1.403 . S
C454 C444 1.476 . S
C454 N449 1.318 . S
C454 C453 1.396 . S
H455 C450 0.929 . S
O456 Mn432 2.385 . S
O456 C434 1.234 . S
O457 Mn432 2.209 . S
O457 Mn433 2.215 . S
O457 C434 1.283 . S
O458 Mn432 2.094 . S
O458 C436 1.240 . S
O459 Mn433 2.117 . S
O459 C436 1.264 . S
C460 C453 1.403 . S
C460 C461 1.399 . S
C460 H466 0.929 . S
C461 C441 1.449 . S
C461 C460 1.399 . S
C461 H467 0.930 . S
H462 C442 0.931 . S
H463 C443 0.930 . S
H464 C451 0.931 . S
H465 C452 0.929 . S
H466 C460 0.929 . S
H467 C461 0.930 . S
Mn468 O473 2.095 . S
Mn468 O483 2.162 . S
Mn468 O484 2.297 . S
Mn468 O492 2.385 . S
Mn468 O493 2.209 . S
Mn468 O494 2.094 . S
Mn469 O474 2.121 . S
Mn469 N476 2.257 . S
Mn469 N485 2.282 . S
Mn469 O493 2.215 . S
Mn469 O495 2.117 . S
C470 O492 1.234 . S
C470 O493 1.283 . S
C471 O483 1.281 . S
C471 O484 1.236 . S
C472 O494 1.240 . S
C472 O495 1.264 . S
O473 Mn468 2.095 . S
O473 C482 1.250 . S
O474 Mn469 2.121 . S
O474 C482 1.258 . S
C475 N476 1.326 . S
C475 C479 1.460 . S
C475 H481 0.929 . S
N476 Mn469 2.257 . S
N476 C475 1.326 . S
N476 C480 1.362 . S
C477 C478 1.258 . S
C477 C480 1.431 . S
C477 C497 1.449 . S
C478 C477 1.258 . S
C478 C479 1.477 . S
C478 H498 0.931 . S
C479 C475 1.460 . S
C479 C478 1.477 . S
C479 H499 0.930 . S
C480 N476 1.362 . S
C480 C477 1.431 . S
C480 C490 1.476 . S
H481 C475 0.929 . S
C482 O473 1.250 . S
C482 O474 1.258 . S
O483 Mn468 2.162 . S
O483 C471 1.281 . S
O484 Mn468 2.297 . S
O484 C471 1.236 . S
N485 Mn469 2.282 . S
N485 C486 1.328 . S
N485 C490 1.318 . S
C486 N485 1.328 . S
C486 C487 1.457 . S
C486 H491 0.929 . S
C487 C486 1.457 . S
C487 C488 1.291 . S
C487 H500 0.931 . S
C488 C487 1.291 . S
C488 C489 1.373 . S
C488 H501 0.929 . S
C489 C488 1.373 . S
C489 C490 1.396 . S
C489 C496 1.403 . S
C490 C480 1.476 . S
C490 N485 1.318 . S
C490 C489 1.396 . S
H491 C486 0.929 . S
O492 Mn468 2.385 . S
O492 C470 1.234 . S
O493 Mn468 2.209 . S
O493 Mn469 2.215 . S
O493 C470 1.283 . S
O494 Mn468 2.094 . S
O494 C472 1.240 . S
O495 Mn469 2.117 . S
O495 C472 1.264 . S
C496 C489 1.403 . S
C496 C497 1.399 . S
C496 H502 0.929 . S
C497 C477 1.449 . S
C497 C496 1.399 . S
C497 H503 0.930 . S
H498 C478 0.931 . S
H499 C479 0.930 . S
H500 C487 0.931 . S
H501 C488 0.929 . S
H502 C496 0.929 . S
H503 C497 0.930 . S
C504 C505 1.363 . S
C504 C510 1.379 . S
C504 N512 1.356 . S
C505 C504 1.363 . S
C505 C511 1.363 . S
C506 C507 1.363 . S
C506 C511 1.379 . S
C506 N513 1.356 . S
C507 C506 1.363 . S
C507 C510 1.363 . S
N508 C510 1.356 . S
N508 H520 0.984 . S
N508 H521 0.985 . S
N509 C511 1.356 . S
N509 H514 0.984 . S
N509 H515 0.985 . S
C510 C504 1.379 . S
C510 C507 1.363 . S
C510 N508 1.356 . S
C511 C505 1.363 . S
C511 C506 1.379 . S
C511 N509 1.356 . S
N512 C504 1.356 . S
N512 H518 0.984 . S
N512 H519 0.984 . S
N513 C506 1.356 . S
N513 H516 0.984 . S
N513 H517 0.985 . S
H514 N509 0.984 . S
H515 N509 0.985 . S
H516 N513 0.984 . S
H517 N513 0.985 . S
H518 N512 0.984 . S
H519 N512 0.984 . S
H520 N508 0.984 . S
H521 N508 0.985 . S
C522 C523 1.363 . S
C522 C528 1.379 . S
C522 N530 1.356 . S
C523 C522 1.363 . S
C523 C529 1.363 . S
C524 C525 1.363 . S
C524 C529 1.379 . S
C524 N531 1.356 . S
C525 C524 1.363 . S
C525 C528 1.363 . S
N526 C528 1.356 . S
N526 H538 0.984 . S
N526 H539 0.985 . S
N527 C529 1.356 . S
N527 H532 0.984 . S
N527 H533 0.985 . S
C528 C522 1.379 . S
C528 C525 1.363 . S
C528 N526 1.356 . S
C529 C523 1.363 . S
C529 C524 1.379 . S
C529 N527 1.356 . S
N530 C522 1.356 . S
N530 H536 0.984 . S
N530 H537 0.984 . S
N531 C524 1.356 . S
N531 H534 0.984 . S
N531 H535 0.985 . S
H532 N527 0.984 . S
H533 N527 0.985 . S
H534 N531 0.984 . S
H535 N531 0.985 . S
H536 N530 0.984 . S
H537 N530 0.984 . S
H538 N526 0.984 . S
H539 N526 0.985 . S
C540 C541 1.363 . S
C540 C546 1.379 . S
C540 N548 1.356 . S
C541 C540 1.363 . S
C541 C547 1.363 . S
C542 C543 1.363 . S
C542 C547 1.379 . S
C542 N549 1.356 . S
C543 C542 1.363 . S
C543 C546 1.363 . S
N544 C546 1.356 . S
N544 H556 0.984 . S
N544 H557 0.985 . S
N545 C547 1.356 . S
N545 H550 0.984 . S
N545 H551 0.985 . S
C546 C540 1.379 . S
C546 C543 1.363 . S
C546 N544 1.356 . S
C547 C541 1.363 . S
C547 C542 1.379 . S
C547 N545 1.356 . S
N548 C540 1.356 . S
N548 H554 0.984 . S
N548 H555 0.984 . S
N549 C542 1.356 . S
N549 H552 0.984 . S
N549 H553 0.985 . S
H550 N545 0.984 . S
H551 N545 0.985 . S
H552 N549 0.984 . S
H553 N549 0.985 . S
H554 N548 0.984 . S
H555 N548 0.984 . S
H556 N544 0.984 . S
H557 N544 0.985 . S
C558 C559 1.363 . S
C558 C564 1.379 . S
C558 N566 1.356 . S
C559 C558 1.363 . S
C559 C565 1.363 . S
C560 C561 1.363 . S
C560 C565 1.379 . S
C560 N567 1.356 . S
C561 C560 1.363 . S
C561 C564 1.363 . S
N562 C564 1.356 . S
N562 H574 0.984 . S
N562 H575 0.985 . S
N563 C565 1.356 . S
N563 H568 0.984 . S
N563 H569 0.985 . S
C564 C558 1.379 . S
C564 C561 1.363 . S
C564 N562 1.356 . S
C565 C559 1.363 . S
C565 C560 1.379 . S
C565 N563 1.356 . S
N566 C558 1.356 . S
N566 H572 0.984 . S
N566 H573 0.984 . S
N567 C560 1.356 . S
N567 H570 0.984 . S
N567 H571 0.985 . S
H568 N563 0.984 . S
H569 N563 0.985 . S
H570 N567 0.984 . S
H571 N567 0.985 . S
H572 N566 0.984 . S
H573 N566 0.984 . S
H574 N562 0.984 . S
H575 N562 0.985 . S
C576 C577 1.363 . S
C576 C582 1.379 . S
C576 N584 1.356 . S
C577 C576 1.363 . S
C577 C583 1.363 . S
C578 C579 1.363 . S
C578 C583 1.379 . S
C578 N585 1.356 . S
C579 C578 1.363 . S
C579 C582 1.363 . S
N580 C582 1.356 . S
N580 H592 0.984 . S
N580 H593 0.985 . S
N581 C583 1.356 . S
N581 H586 0.984 . S
N581 H587 0.985 1_556 S
C582 C576 1.379 . S
C582 C579 1.363 . S
C582 N580 1.356 . S
C583 C577 1.363 . S
C583 C578 1.379 . S
C583 N581 1.356 . S
N584 C576 1.356 . S
N584 H590 0.984 . S
N584 H591 0.984 . S
N585 C578 1.356 . S
N585 H588 0.984 . S
N585 H589 0.985 . S
H586 N581 0.984 . S
H587 N581 0.985 1_554 S
H588 N585 0.984 . S
H589 N585 0.985 . S
H590 N584 0.984 . S
H591 N584 0.984 . S
H592 N580 0.984 . S
H593 N580 0.985 . S
C594 C595 1.363 . S
C594 C600 1.379 . S
C594 N602 1.356 . S
C595 C594 1.363 . S
C595 C601 1.363 . S
C596 C597 1.363 . S
C596 C601 1.379 . S
C596 N603 1.356 . S
C597 C596 1.363 . S
C597 C600 1.363 . S
N598 C600 1.356 . S
N598 H610 0.984 . S
N598 H611 0.985 . S
N599 C601 1.356 . S
N599 H604 0.984 . S
N599 H605 0.985 . S
C600 C594 1.379 . S
C600 C597 1.363 . S
C600 N598 1.356 . S
C601 C595 1.363 . S
C601 C596 1.379 . S
C601 N599 1.356 . S
N602 C594 1.356 . S
N602 H608 0.984 . S
N602 H609 0.984 . S
N603 C596 1.356 . S
N603 H606 0.984 . S
N603 H607 0.985 . S
H604 N599 0.984 . S
H605 N599 0.985 . S
H606 N603 0.984 . S
H607 N603 0.985 . S
H608 N602 0.984 . S
H609 N602 0.984 . S
H610 N598 0.984 . S
H611 N598 0.985 . S
C612 C613 1.363 . S
C612 C618 1.379 . S
C612 N620 1.356 . S
C613 C612 1.363 . S
C613 C619 1.363 . S
C614 C615 1.363 . S
C614 C619 1.379 . S
C614 N621 1.356 . S
C615 C614 1.363 . S
C615 C618 1.363 . S
N616 C618 1.356 . S
N616 H628 0.984 . S
N616 H629 0.985 . S
N617 C619 1.356 . S
N617 H622 0.984 . S
N617 H623 0.985 . S
C618 C612 1.379 . S
C618 C615 1.363 . S
C618 N616 1.356 . S
C619 C613 1.363 . S
C619 C614 1.379 . S
C619 N617 1.356 . S
N620 C612 1.356 . S
N620 H626 0.984 . S
N620 H627 0.984 . S
N621 C614 1.356 . S
N621 H624 0.984 . S
N621 H625 0.985 . S
H622 N617 0.984 . S
H623 N617 0.985 . S
H624 N621 0.984 . S
H625 N621 0.985 . S
H626 N620 0.984 . S
H627 N620 0.984 . S
H628 N616 0.984 . S
H629 N616 0.985 . S
C630 C631 1.363 . S
C630 C636 1.379 . S
C630 N638 1.356 . S
C631 C630 1.363 . S
C631 C637 1.363 . S
C632 C633 1.363 . S
C632 C637 1.379 . S
C632 N639 1.356 . S
C633 C632 1.363 . S
C633 C636 1.363 . S
N634 C636 1.356 . S
N634 H646 0.984 . S
N634 H647 0.985 . S
N635 C637 1.356 . S
N635 H640 0.984 . S
N635 H641 0.985 . S
C636 C630 1.379 . S
C636 C633 1.363 . S
C636 N634 1.356 . S
C637 C631 1.363 . S
C637 C632 1.379 . S
C637 N635 1.356 . S
N638 C630 1.356 . S
N638 H644 0.984 . S
N638 H645 0.984 . S
N639 C632 1.356 . S
N639 H642 0.984 . S
N639 H643 0.985 . S
H640 N635 0.984 . S
H641 N635 0.985 . S
H642 N639 0.984 . S
H643 N639 0.985 . S
H644 N638 0.984 . S
H645 N638 0.984 . S
H646 N634 0.984 . S
H647 N634 0.985 . S
C648 C649 1.363 . S
C648 C654 1.379 . S
C648 N656 1.356 . S
C649 C648 1.363 . S
C649 C655 1.363 . S
C650 C651 1.363 . S
C650 C655 1.379 . S
C650 N657 1.356 . S
C651 C650 1.363 . S
C651 C654 1.363 . S
N652 C654 1.356 . S
N652 H664 0.984 . S
N652 H665 0.985 . S
N653 C655 1.356 . S
N653 H658 0.984 . S
N653 H659 0.985 . S
C654 C648 1.379 . S
C654 C651 1.363 . S
C654 N652 1.356 . S
C655 C649 1.363 . S
C655 C650 1.379 . S
C655 N653 1.356 . S
N656 C648 1.356 . S
N656 H662 0.984 . S
N656 H663 0.984 . S
N657 C650 1.356 . S
N657 H660 0.984 . S
N657 H661 0.985 . S
H658 N653 0.984 . S
H659 N653 0.985 . S
H660 N657 0.984 . S
H661 N657 0.985 . S
H662 N656 0.984 . S
H663 N656 0.984 . S
H664 N652 0.984 . S
H665 N652 0.985 . S
C666 C667 1.363 . S
C666 C672 1.379 . S
C666 N674 1.356 . S
C667 C666 1.363 . S
C667 C673 1.363 . S
C668 C669 1.363 . S
C668 C673 1.379 . S
C668 N675 1.356 . S
C669 C668 1.363 . S
C669 C672 1.363 . S
N670 C672 1.356 . S
N670 H682 0.984 . S
N670 H683 0.985 . S
N671 C673 1.356 1_556 S
N671 H676 0.984 . S
N671 H677 0.985 . S
C672 C666 1.379 . S
C672 C669 1.363 . S
C672 N670 1.356 . S
C673 C667 1.363 . S
C673 C668 1.379 . S
C673 N671 1.356 1_554 S
N674 C666 1.356 . S
N674 H680 0.984 . S
N674 H681 0.984 . S
N675 C668 1.356 . S
N675 H678 0.984 . S
N675 H679 0.985 1_554 S
H676 N671 0.984 . S
H677 N671 0.985 . S
H678 N675 0.984 . S
H679 N675 0.985 1_556 S
H680 N674 0.984 . S
H681 N674 0.984 . S
H682 N670 0.984 . S
H683 N670 0.985 . S
C684 C685 1.363 . S
C684 C690 1.379 . S
C684 N692 1.356 . S
C685 C684 1.363 . S
C685 C691 1.363 . S
C686 C687 1.363 . S
C686 C691 1.379 . S
C686 N693 1.356 . S
C687 C686 1.363 . S
C687 C690 1.363 . S
N688 C690 1.356 . S
N688 H700 0.984 . S
N688 H701 0.985 . S
N689 C691 1.356 . S
N689 H694 0.984 . S
N689 H695 0.985 . S
C690 C684 1.379 . S
C690 C687 1.363 . S
C690 N688 1.356 . S
C691 C685 1.363 . S
C691 C686 1.379 . S
C691 N689 1.356 . S
N692 C684 1.356 . S
N692 H698 0.984 . S
N692 H699 0.984 . S
N693 C686 1.356 . S
N693 H696 0.984 . S
N693 H697 0.985 . S
H694 N689 0.984 . S
H695 N689 0.985 . S
H696 N693 0.984 . S
H697 N693 0.985 . S
H698 N692 0.984 . S
H699 N692 0.984 . S
H700 N688 0.984 . S
H701 N688 0.985 . S
C702 C703 1.363 . S
C702 C708 1.379 . S
C702 N710 1.356 . S
C703 C702 1.363 . S
C703 C709 1.363 . S
C704 C705 1.363 . S
C704 C709 1.379 . S
C704 N711 1.356 . S
C705 C704 1.363 . S
C705 C708 1.363 . S
N706 C708 1.356 . S
N706 H718 0.984 . S
N706 H719 0.985 . S
N707 C709 1.356 . S
N707 H712 0.984 . S
N707 H713 0.985 . S
C708 C702 1.379 . S
C708 C705 1.363 . S
C708 N706 1.356 . S
C709 C703 1.363 . S
C709 C704 1.379 . S
C709 N707 1.356 . S
N710 C702 1.356 . S
N710 H716 0.984 . S
N710 H717 0.984 . S
N711 C704 1.356 . S
N711 H714 0.984 . S
N711 H715 0.985 . S
H712 N707 0.984 . S
H713 N707 0.985 . S
H714 N711 0.984 . S
H715 N711 0.985 . S
H716 N710 0.984 . S
H717 N710 0.984 . S
H718 N706 0.984 . S
H719 N706 0.985 . S
C720 C721 1.363 . S
C720 C726 1.379 . S
C720 N728 1.356 . S
C721 C720 1.363 . S
C721 C727 1.363 . S
C722 C723 1.363 . S
C722 C727 1.379 . S
C722 N729 1.356 . S
C723 C722 1.363 . S
C723 C726 1.363 . S
N724 C726 1.356 . S
N724 H736 0.984 . S
N724 H737 0.985 . S
N725 C727 1.356 . S
N725 H730 0.984 . S
N725 H731 0.985 . S
C726 C720 1.379 . S
C726 C723 1.363 . S
C726 N724 1.356 . S
C727 C721 1.363 . S
C727 C722 1.379 . S
C727 N725 1.356 . S
N728 C720 1.356 . S
N728 H734 0.984 . S
N728 H735 0.984 . S
N729 C722 1.356 . S
N729 H732 0.984 . S
N729 H733 0.985 . S
H730 N725 0.984 . S
H731 N725 0.985 . S
H732 N729 0.984 . S
H733 N729 0.985 . S
H734 N728 0.984 . S
H735 N728 0.984 . S
H736 N724 0.984 . S
H737 N724 0.985 . S
C738 C739 1.363 . S
C738 C744 1.379 . S
C738 N746 1.356 . S
C739 C738 1.363 . S
C739 C745 1.363 . S
C740 C741 1.363 . S
C740 C745 1.379 . S
C740 N747 1.356 . S
C741 C740 1.363 . S
C741 C744 1.363 . S
N742 C744 1.356 . S
N742 H754 0.984 . S
N742 H755 0.985 . S
N743 C745 1.356 . S
N743 H748 0.984 . S
N743 H749 0.985 . S
C744 C738 1.379 . S
C744 C741 1.363 . S
C744 N742 1.356 . S
C745 C739 1.363 . S
C745 C740 1.379 . S
C745 N743 1.356 . S
N746 C738 1.356 . S
N746 H752 0.984 . S
N746 H753 0.984 . S
N747 C740 1.356 . S
N747 H750 0.984 . S
N747 H751 0.985 . S
H748 N743 0.984 . S
H749 N743 0.985 . S
H750 N747 0.984 . S
H751 N747 0.985 . S
H752 N746 0.984 . S
H753 N746 0.984 . S
H754 N742 0.984 . S
H755 N742 0.985 . S
C756 C757 1.363 . S
C756 C762 1.379 . S
C756 N764 1.356 . S
C757 C756 1.363 . S
C757 C763 1.363 . S
C758 C759 1.363 . S
C758 C763 1.379 . S
C758 N765 1.356 . S
C759 C758 1.363 . S
C759 C762 1.363 . S
N760 C762 1.356 . S
N760 H772 0.984 . S
N760 H773 0.985 . S
N761 C763 1.356 . S
N761 H766 0.984 . S
N761 H767 0.985 . S
C762 C756 1.379 . S
C762 C759 1.363 . S
C762 N760 1.356 . S
C763 C757 1.363 . S
C763 C758 1.379 . S
C763 N761 1.356 . S
N764 C756 1.356 . S
N764 H770 0.984 . S
N764 H771 0.984 . S
N765 C758 1.356 . S
N765 H768 0.984 . S
N765 H769 0.985 . S
H766 N761 0.984 . S
H767 N761 0.985 . S
H768 N765 0.984 . S
H769 N765 0.985 . S
H770 N764 0.984 . S
H771 N764 0.984 . S
H772 N760 0.984 . S
H773 N760 0.985 . S
C774 C775 1.363 . S
C774 C780 1.365 1_556 S
C774 N782 1.356 . S
C775 C774 1.363 . S
C775 C781 1.363 . S
C776 C777 1.363 . S
C776 C781 1.379 . S
C776 N783 1.356 . S
C777 C776 1.363 . S
C777 C780 1.362 1_556 S
N778 C780 1.373 . S
N778 H790 0.984 . S
N778 H791 0.985 . S
N779 C781 1.356 . S
N779 H784 0.984 . S
N779 H785 0.985 . S
C780 C774 1.365 1_554 S
C780 C777 1.362 1_554 S
C780 N778 1.373 . S
C781 C775 1.363 . S
C781 C776 1.379 . S
C781 N779 1.356 . S
N782 C774 1.356 . S
N782 H788 0.984 . S
N782 H789 0.984 . S
N783 C776 1.356 . S
N783 H786 0.984 . S
N783 H787 0.985 . S
H784 N779 0.984 . S
H785 N779 0.985 . S
H786 N783 0.984 . S
H787 N783 0.985 . S
H788 N782 0.984 . S
H789 N782 0.984 . S
H790 N778 0.984 . S
H791 N778 0.985 . S
C792 C793 1.363 . S
C792 C798 1.379 . S
C792 N800 1.356 . S
C793 C792 1.363 . S
C793 C799 1.363 . S
C794 C795 1.363 . S
C794 C799 1.379 . S
C794 N801 1.356 . S
C795 C794 1.363 . S
C795 C798 1.363 . S
N796 C798 1.356 . S
N796 H808 0.984 . S
N796 H809 0.985 . S
N797 C799 1.356 . S
N797 H802 0.984 . S
N797 H803 0.985 . S
C798 C792 1.379 . S
C798 C795 1.363 . S
C798 N796 1.356 . S
C799 C793 1.363 . S
C799 C794 1.379 . S
C799 N797 1.356 . S
N800 C792 1.356 . S
N800 H806 0.984 . S
N800 H807 0.984 . S
N801 C794 1.356 . S
N801 H804 0.984 . S
N801 H805 0.985 . S
H802 N797 0.984 . S
H803 N797 0.985 . S
H804 N801 0.984 . S
H805 N801 0.985 . S
H806 N800 0.984 . S
H807 N800 0.984 . S
H808 N796 0.984 . S
H809 N796 0.985 . S
C810 C811 1.363 . S
C810 C816 1.379 . S
C810 N818 1.356 . S
C811 C810 1.363 . S
C811 C817 1.363 . S
C812 C813 1.363 . S
C812 C817 1.379 . S
C812 N819 1.356 . S
C813 C812 1.363 . S
C813 C816 1.363 . S
N814 C816 1.356 . S
N814 H826 0.984 . S
N814 H827 0.985 . S
N815 C817 1.356 . S
N815 H820 0.984 . S
N815 H821 0.985 . S
C816 C810 1.379 . S
C816 C813 1.363 . S
C816 N814 1.356 . S
C817 C811 1.363 . S
C817 C812 1.379 . S
C817 N815 1.356 . S
N818 C810 1.356 . S
N818 H824 0.984 . S
N818 H825 0.984 . S
N819 C812 1.356 . S
N819 H822 0.984 . S
N819 H823 0.985 . S
H820 N815 0.984 . S
H821 N815 0.985 . S
H822 N819 0.984 . S
H823 N819 0.985 . S
H824 N818 0.984 . S
H825 N818 0.984 . S
H826 N814 0.984 . S
H827 N814 0.985 . S
C828 C829 1.363 . S
C828 C834 1.379 . S
C828 N836 1.356 . S
C829 C828 1.363 . S
C829 C835 1.363 . S
C830 C831 1.363 . S
C830 C835 1.379 . S
C830 N837 1.356 . S
C831 C830 1.363 . S
C831 C834 1.363 . S
N832 C834 1.356 . S
N832 H844 0.984 . S
N832 H845 0.985 . S
N833 C835 1.356 . S
N833 H838 0.984 . S
N833 H839 0.985 . S
C834 C828 1.379 . S
C834 C831 1.363 . S
C834 N832 1.356 . S
C835 C829 1.363 . S
C835 C830 1.379 . S
C835 N833 1.356 . S
N836 C828 1.356 . S
N836 H842 0.984 . S
N836 H843 0.984 . S
N837 C830 1.356 . S
N837 H840 0.984 . S
N837 H841 0.985 . S
H838 N833 0.984 . S
H839 N833 0.985 . S
H840 N837 0.984 . S
H841 N837 0.985 . S
H842 N836 0.984 . S
H843 N836 0.984 . S
H844 N832 0.984 . S
H845 N832 0.985 . S
C846 C847 1.363 . S
C846 C852 1.379 . S
C846 N854 1.356 . S
C847 C846 1.363 . S
C847 C853 1.363 . S
C848 C849 1.363 . S
C848 C853 1.379 . S
C848 N855 1.356 . S
C849 C848 1.363 . S
C849 C852 1.363 . S
N850 C852 1.356 . S
N850 H862 0.984 . S
N850 H863 0.985 . S
N851 C853 1.356 . S
N851 H856 0.984 . S
N851 H857 0.985 . S
C852 C846 1.379 . S
C852 C849 1.363 . S
C852 N850 1.356 . S
C853 C847 1.363 . S
C853 C848 1.379 . S
C853 N851 1.356 . S
N854 C846 1.356 . S
N854 H860 0.984 . S
N854 H861 0.984 . S
N855 C848 1.356 . S
N855 H858 0.984 . S
N855 H859 0.985 . S
H856 N851 0.984 . S
H857 N851 0.985 . S
H858 N855 0.984 . S
H859 N855 0.985 . S
H860 N854 0.984 . S
H861 N854 0.984 . S
H862 N850 0.984 . S
H863 N850 0.985 . S
C864 C865 1.363 . S
C864 C870 1.379 . S
C864 N872 1.356 . S
C865 C864 1.363 . S
C865 C871 1.363 . S
C866 C867 1.363 . S
C866 C871 1.379 . S
C866 N873 1.356 . S
C867 C866 1.363 . S
C867 C870 1.363 . S
N868 C870 1.356 . S
N868 H880 0.984 . S
N868 H881 0.985 . S
N869 C871 1.356 . S
N869 H874 0.984 . S
N869 H875 0.985 . S
C870 C864 1.379 . S
C870 C867 1.363 . S
C870 N868 1.356 . S
C871 C865 1.363 . S
C871 C866 1.379 . S
C871 N869 1.356 . S
N872 C864 1.356 . S
N872 H878 0.984 . S
N872 H879 0.984 . S
N873 C866 1.356 . S
N873 H876 0.984 . S
N873 H877 0.985 . S
H874 N869 0.984 . S
H875 N869 0.985 . S
H876 N873 0.984 . S
H877 N873 0.985 . S
H878 N872 0.984 . S
H879 N872 0.984 . S
H880 N868 0.984 . S
H881 N868 0.985 . S
C882 C883 1.363 . S
C882 C888 1.379 . S
C882 N890 1.356 . S
C883 C882 1.363 . S
C883 C889 1.363 . S
C884 C885 1.363 . S
C884 C889 1.379 . S
C884 N891 1.356 . S
C885 C884 1.363 . S
C885 C888 1.363 . S
N886 C888 1.356 . S
N886 H898 0.984 . S
N886 H899 0.985 . S
N887 C889 1.356 . S
N887 H892 0.984 . S
N887 H893 0.985 . S
C888 C882 1.379 . S
C888 C885 1.363 . S
C888 N886 1.356 . S
C889 C883 1.363 . S
C889 C884 1.379 . S
C889 N887 1.356 . S
N890 C882 1.356 . S
N890 H896 0.984 . S
N890 H897 0.984 . S
N891 C884 1.356 . S
N891 H894 0.984 . S
N891 H895 0.985 . S
H892 N887 0.984 . S
H893 N887 0.985 . S
H894 N891 0.984 . S
H895 N891 0.985 . S
H896 N890 0.984 . S
H897 N890 0.984 . S
H898 N886 0.984 . S
H899 N886 0.985 . S
C900 C901 1.366 . S
C900 C906 1.376 1_554 S
C900 N908 1.357 . S
C901 C900 1.366 . S
C901 C907 1.363 . S
C902 C903 1.367 . S
C902 C907 1.374 1_556 S
C902 N909 1.358 . S
C903 C902 1.367 . S
C903 C906 1.363 . S
N904 C906 1.356 . S
N904 H916 0.984 . S
N904 H917 0.985 . S
N905 C907 1.356 . S
N905 H910 0.984 . S
N905 H911 0.985 . S
C906 C900 1.376 1_556 S
C906 C903 1.363 . S
C906 N904 1.356 . S
C907 C901 1.363 . S
C907 C902 1.374 1_554 S
C907 N905 1.356 . S
N908 C900 1.357 . S
N908 H914 0.984 1_554 S
N908 H915 0.984 . S
N909 C902 1.358 . S
N909 H912 0.984 . S
N909 H913 0.985 1_556 S
H910 N905 0.984 . S
H911 N905 0.985 . S
H912 N909 0.984 . S
H913 N909 0.985 1_554 S
H914 N908 0.984 1_556 S
H915 N908 0.984 . S
H916 N904 0.984 . S
H917 N904 0.985 . S
C918 C919 1.363 . S
C918 C924 1.379 . S
C918 N926 1.356 . S
C919 C918 1.363 . S
C919 C925 1.363 . S
C920 C921 1.363 . S
C920 C925 1.379 . S
C920 N927 1.356 . S
C921 C920 1.363 . S
C921 C924 1.363 . S
N922 C924 1.356 . S
N922 H934 0.984 . S
N922 H935 0.985 . S
N923 C925 1.356 . S
N923 H928 0.984 . S
N923 H929 0.985 . S
C924 C918 1.379 . S
C924 C921 1.363 . S
C924 N922 1.356 . S
C925 C919 1.363 . S
C925 C920 1.379 . S
C925 N923 1.356 . S
N926 C918 1.356 . S
N926 H932 0.984 . S
N926 H933 0.984 . S
N927 C920 1.356 . S
N927 H930 0.984 . S
N927 H931 0.985 . S
H928 N923 0.984 . S
H929 N923 0.985 . S
H930 N927 0.984 . S
H931 N927 0.985 . S
H932 N926 0.984 . S
H933 N926 0.984 . S
H934 N922 0.984 . S
H935 N922 0.985 . S
C507 C471 1.621 . S
C505 C45 1.624 . S
C523 C84 1.648 . S
C525 C291 1.660 . S
C541 C126 1.587 . S
C543 C338 1.642 . S
C559 C189 1.583 . S
C561 C374 1.577 . S
C579 C399 1.602 . S
C577 C228 1.591 . S
C595 C270 1.559 . S
C597 C435 1.606 . S
C613 C69 1.617 . S
C615 C327 1.651 . S
C631 C141 1.606 . S
C633 C363 1.604 . S
C649 C174 1.527 . S
C651 C410 1.567 . S
C669 C446 1.620 . S
C667 C213 1.586 . S
C687 C482 1.629 . S
C685 C285 1.630 . S
C705 C302 1.644 . S
C703 C30 1.588 . S
C721 C36 1.499 . S
C723 C326 1.482 . S
C739 C93 1.501 . S
C741 C362 1.490 . S
C759 C400 1.498 . S
C757 C117 1.501 . S
C775 C180 1.508 . S
C777 C436 1.501 1_556 S
C795 C472 1.467 . S
C793 C237 1.475 . S
C813 C292 1.460 . S
C811 C261 1.466 . S
C831 C470 1.473 . S
C829 C78 1.481 . S
C847 C132 1.493 . S
C849 C290 1.477 . S
C867 C328 1.484 . S
C865 C165 1.488 . S
C883 C222 1.489 . S
C885 C364 1.491 . S
C901 C276 1.531 . S
C903 C398 1.519 . S
C919 C21 1.515 . S
C921 C434 1.504 . S
