# Generated by pormake.
# Topology llj, (12,3)-cn, num edge types: 1
# Building blocks:
#     Node 0, Type 0, BuildingBlock: QEWDON_clean_sbu_0, # of connection points: 12
#     Node 1, Type 0, BuildingBlock: QEWDON_clean_sbu_0, # of connection points: 12
#     Node 2, Type 1, BuildingBlock: BELTOD_clean_linker_0, # of connection points: 3
#     Node 3, Type 1, BuildingBlock: BELTOD_clean_linker_0, # of connection points: 3
#     Node 4, Type 1, BuildingBlock: BELTOD_clean_linker_0, # of connection points: 3
#     Node 5, Type 1, BuildingBlock: BELTOD_clean_linker_0, # of connection points: 3
#     Node 6, Type 1, BuildingBlock: BELTOD_clean_linker_0, # of connection points: 3
#     Node 7, Type 1, BuildingBlock: BELTOD_clean_linker_0, # of connection points: 3
#     Node 8, Type 1, BuildingBlock: BELTOD_clean_linker_0, # of connection points: 3
#     Node 9, Type 1, BuildingBlock: BELTOD_clean_linker_0, # of connection points: 3
#     Edge 10, Type (0, 1), BuildingBlock: UVAHIK_clean_linker_0, # of connection points: 2
#     Edge 11, Type (0, 1), BuildingBlock: UVAHIK_clean_linker_0, # of connection points: 2
#     Edge 12, Type (0, 1), BuildingBlock: UVAHIK_clean_linker_0, # of connection points: 2
#     Edge 13, Type (0, 1), BuildingBlock: UVAHIK_clean_linker_0, # of connection points: 2
#     Edge 14, Type (0, 1), BuildingBlock: UVAHIK_clean_linker_0, # of connection points: 2
#     Edge 15, Type (0, 1), BuildingBlock: UVAHIK_clean_linker_0, # of connection points: 2
#     Edge 16, Type (0, 1), BuildingBlock: UVAHIK_clean_linker_0, # of connection points: 2
#     Edge 17, Type (0, 1), BuildingBlock: UVAHIK_clean_linker_0, # of connection points: 2
#     Edge 18, Type (0, 1), BuildingBlock: UVAHIK_clean_linker_0, # of connection points: 2
#     Edge 19, Type (0, 1), BuildingBlock: UVAHIK_clean_linker_0, # of connection points: 2
#     Edge 20, Type (0, 1), BuildingBlock: UVAHIK_clean_linker_0, # of connection points: 2
#     Edge 21, Type (0, 1), BuildingBlock: UVAHIK_clean_linker_0, # of connection points: 2
#     Edge 22, Type (0, 1), BuildingBlock: UVAHIK_clean_linker_0, # of connection points: 2
#     Edge 23, Type (0, 1), BuildingBlock: UVAHIK_clean_linker_0, # of connection points: 2
#     Edge 24, Type (0, 1), BuildingBlock: UVAHIK_clean_linker_0, # of connection points: 2
#     Edge 25, Type (0, 1), BuildingBlock: UVAHIK_clean_linker_0, # of connection points: 2
#     Edge 26, Type (0, 1), BuildingBlock: UVAHIK_clean_linker_0, # of connection points: 2
#     Edge 27, Type (0, 1), BuildingBlock: UVAHIK_clean_linker_0, # of connection points: 2
#     Edge 28, Type (0, 1), BuildingBlock: UVAHIK_clean_linker_0, # of connection points: 2
#     Edge 29, Type (0, 1), BuildingBlock: UVAHIK_clean_linker_0, # of connection points: 2
#     Edge 30, Type (0, 1), BuildingBlock: UVAHIK_clean_linker_0, # of connection points: 2
#     Edge 31, Type (0, 1), BuildingBlock: UVAHIK_clean_linker_0, # of connection points: 2
#     Edge 32, Type (0, 1), BuildingBlock: UVAHIK_clean_linker_0, # of connection points: 2
#     Edge 33, Type (0, 1), BuildingBlock: UVAHIK_clean_linker_0, # of connection points: 2
# Relax obj value: 0.009
# Max RMSD: 0.042
# Mean RMSD: 0.040
data_MOF--net-llj--node1-QEWDON_clean_sbu_0--node2-BELTOD_clean_linker_0--edge1-UVAHIK_clean_linker_0
_symmetry_space_group_name_H-M    P1
_symmetry_Int_Tables_number       1
_symmetry_cell_setting            triclinic
loop_
_symmetry_equiv_pos_as_xyz
'x, y, z'
_cell_length_a     51.969017
_cell_length_b     51.972542
_cell_length_c     36.011075
_cell_angle_alpha  89.442515
_cell_angle_beta   90.053414
_cell_angle_gamma 89.985291
loop_
_atom_site_label
_atom_site_type_symbol
_atom_site_fract_x
_atom_site_fract_y
_atom_site_fract_z
_atom_type_partial_charge
Zn0 Zn 0.93582 0.05152 0.98067 0.0
Zn1 Zn 0.93258 0.04767 0.06974 0.0
O2 O 0.95521 0.03959 0.02652 0.0
H3 H 0.96843 0.02651 0.02664 0.0
C4 C 0.92519 0.95201 0.91742 0.0
O5 O 0.90792 0.93432 0.92524 0.0
Zn6 Zn 0.02145 0.96892 0.06076 0.0
Zn7 Zn 0.02378 0.96594 0.97194 0.0
O8 O -0.0005 0.97131 0.0154 0.0
H9 H 0.98229 0.97827 0.01384 0.0
Zn10 Zn 0.93299 0.95144 -0.0013 0.0
O11 O 0.9156 0.97898 0.02937 0.0
Zn12 Zn 0.92487 0.96036 0.07612 0.0
H13 H 0.89921 0.98687 0.02359 0.0
Zn14 Zn 0.02766 0.0655 0.9695 0.0
O15 O 0.02263 0.03989 0.01162 0.0
H16 H 0.0164 0.0225 0.00888 0.0
Zn17 Zn 0.02273 0.06113 0.05747 0.0
C18 C 0.03466 0.03047 0.90616 0.0
O19 O 0.01591 0.01746 0.922 0.0
O20 O 0.9053 0.07544 0.99206 0.0
O21 O 0.90358 0.07188 0.05367 0.0
O22 O 0.05803 0.94877 0.98736 0.0
O23 O 0.0549 0.94979 0.04891 0.0
O24 O 0.92098 0.91504 0.01392 0.0
O25 O 0.91256 0.92328 0.07309 0.0
C26 C 0.97712 0.06764 0.10601 0.0
O27 O 0.04304 0.10001 0.98633 0.0
O28 O 0.0402 0.09554 0.04761 0.0
O29 O 0.00701 0.95241 0.92382 0.0
C30 C 0.89513 0.08124 0.02308 0.0
O31 O 0.95681 0.05776 0.93248 0.0
C32 C 0.97755 0.94822 0.10256 0.0
O33 O 0.93866 0.96129 0.94352 0.0
C34 C 0.06697 0.94343 0.0195 0.0
O35 O 0.04253 0.05113 0.9209 0.0
C36 C 0.90983 0.00351 0.11643 0.0
O37 O 0.95342 0.0632 0.11144 0.0
O38 O 0.98605 0.06462 0.07351 0.0
C39 C 0.91274 0.90781 0.04571 0.0
O40 O 0.00197 0.94892 0.10015 0.0
O41 O 0.96388 0.9616 0.08034 0.0
C42 C 0.04085 0.01801 0.10073 0.0
O43 O 0.90805 0.97918 0.11861 0.0
O44 O 0.92021 0.01299 0.08739 0.0
C45 C 0.04691 0.10848 0.01893 0.0
O46 O 0.04144 0.04239 0.0982 0.0
O47 O 0.0288 0.00568 0.07576 0.0
C48 C 0.99249 0.93295 0.92793 0.0
O49 O 0.9891 0.92335 0.96148 0.0
C50 C 0.9725 0.07649 0.93105 0.0
O51 O 0.97474 0.09149 0.96004 0.0
Zn52 Zn 0.42761 0.55484 0.47293 0.0
Zn53 Zn 0.4302 0.55129 0.56206 0.0
O54 O 0.45155 0.54928 0.51632 0.0
H55 H 0.46788 0.54061 0.51383 0.0
C56 C 0.41139 0.49757 0.4395 0.0
O57 O 0.40128 0.50329 0.47183 0.0
Zn58 Zn 0.53192 0.44975 0.56465 0.0
Zn59 Zn 0.53731 0.44749 0.47985 0.0
O60 O 0.50997 0.4445 0.51998 0.0
H61 H 0.492 0.44893 0.5173 0.0
Zn62 Zn 0.43604 0.45958 0.48651 0.0
O63 O 0.44577 0.48155 0.53016 0.0
Zn64 Zn 0.44145 0.45921 0.57501 0.0
H65 H 0.45806 0.49544 0.52839 0.0
Zn66 Zn 0.5196 0.54638 0.47203 0.0
O67 O 0.51425 0.52235 0.51632 0.0
H68 H 0.50543 0.50597 0.51566 0.0
Zn69 Zn 0.51931 0.54482 0.56028 0.0
C70 C 0.5423 0.50864 0.42521 0.0
O71 O 0.54871 0.50007 0.4584 0.0
O72 O 0.39381 0.57289 0.48741 0.0
O73 O 0.39601 0.56864 0.54899 0.0
O74 O 0.57181 0.43109 0.49572 0.0
O75 O 0.5668 0.43241 0.55693 0.0
O76 O 0.41587 0.42703 0.50123 0.0
O77 O 0.41871 0.42788 0.56294 0.0
C78 C 0.47357 0.57024 0.60115 0.0
O79 O 0.5418 0.57809 0.48468 0.0
O80 O 0.54202 0.57533 0.54629 0.0
O81 O 0.52505 0.44142 0.42608 0.0
C82 C 0.38431 0.5763 0.51964 0.0
O83 O 0.44541 0.56095 0.42202 0.0
C84 C 0.49011 0.43584 0.61233 0.0
O85 O 0.42707 0.47889 0.43764 0.0
C86 C 0.57999 0.42629 0.52844 0.0
O87 O 0.52861 0.5288 0.42255 0.0
C88 C 0.423 0.5047 0.61263 0.0
O89 O 0.4492 0.57207 0.60086 0.0
O90 O 0.48395 0.55638 0.57636 0.0
C91 C 0.41059 0.41747 0.53308 0.0
O92 O 0.51436 0.43365 0.60888 0.0
O93 O 0.47796 0.44845 0.58743 0.0
C94 C 0.54003 0.50055 0.60081 0.0
O95 O 0.42668 0.48064 0.61715 0.0
O96 O 0.42696 0.51449 0.58062 0.0
C97 C 0.54911 0.58634 0.51618 0.0
O98 O 0.53615 0.52465 0.6018 0.0
O99 O 0.53367 0.48817 0.57197 0.0
C100 C 0.50242 0.44775 0.4163 0.0
O101 O 0.48723 0.45891 0.44043 0.0
C102 C 0.46746 0.57146 0.42331 0.0
O103 O 0.47642 0.57893 0.45559 0.0
P104 P 0.36624 0.24887 0.02655 0.0
H105 H 0.35975 0.25057 0.10717 0.0
H106 H 0.37769 0.27868 0.15497 0.0
H107 H 0.42033 0.32008 0.07056 0.0
H108 H 0.40275 0.29198 0.02333 0.0
H109 H 0.33226 0.20867 0.0005 0.0
H110 H 0.28564 0.20263 0.00369 0.0
H111 H 0.27859 0.27287 0.06601 0.0
H112 H 0.32525 0.27901 0.06227 0.0
H113 H 0.40332 0.23879 0.96727 0.0
H114 H 0.34102 0.29152 0.98811 0.0
O115 O 0.38124 0.22052 0.02908 0.0
H116 H 0.41326 0.26178 0.9095 0.0
H117 H 0.35052 0.31435 0.93009 0.0
C118 C 0.37937 0.26955 0.06161 0.0
C119 C 0.37285 0.26581 0.09902 0.0
C120 C 0.38304 0.2819 0.12624 0.0
C121 C 0.40029 0.30168 0.11645 0.0
C122 C 0.4072 0.30494 0.07899 0.0
C123 C 0.39692 0.28896 0.05187 0.0
C124 C 0.33225 0.24384 0.03207 0.0
C125 C 0.32071 0.22261 0.01521 0.0
C126 C 0.29409 0.21932 0.01675 0.0
C127 C 0.27856 0.23728 0.03516 0.0
C128 C 0.29018 0.25859 0.05206 0.0
C129 C 0.31683 0.26202 0.0501 0.0
C130 C 0.3712 0.26324 0.98158 0.0
C131 C 0.39142 0.25495 0.95897 0.0
C132 C 0.39704 0.26809 0.92594 0.0
C133 C 0.38265 0.28987 0.91525 0.0
C134 C 0.36207 0.29776 0.93773 0.0
C135 C 0.35646 0.28459 0.97069 0.0
P136 P 0.74335 0.40657 0.01479 0.0
H137 H 0.75313 0.41912 0.09225 0.0
H138 H 0.72457 0.42928 0.14419 0.0
H139 H 0.65862 0.42046 0.07229 0.0
H140 H 0.68714 0.41034 0.0207 0.0
H141 H 0.78668 0.37807 0.98481 0.0
H142 H 0.79853 0.3325 0.98701 0.0
H143 H 0.73054 0.31603 0.05202 0.0
H144 H 0.71892 0.36155 0.04989 0.0
H145 H 0.72833 0.45462 0.97945 0.0
H146 H 0.72171 0.37357 0.95642 0.0
O147 O 0.76979 0.42467 0.01726 0.0
H148 H 0.70182 0.46456 0.92493 0.0
H149 H 0.6953 0.38338 0.902 0.0
C150 C 0.7223 0.41465 0.05249 0.0
C151 C 0.73253 0.41958 0.08768 0.0
C152 C 0.71621 0.42517 0.11734 0.0
C153 C 0.68938 0.42583 0.11217 0.0
C154 C 0.67922 0.42054 0.07691 0.0
C155 C 0.69554 0.41477 0.04739 0.0
C156 C 0.75231 0.37323 0.01791 0.0
C157 C 0.77448 0.36465 -0.00022 0.0
C158 C 0.78107 0.3386 0.00077 0.0
C159 C 0.76549 0.32072 0.01981 0.0
C160 C 0.74311 0.32942 0.03763 0.0
C161 C 0.73648 0.35545 0.03644 0.0
C162 C 0.72724 0.41344 0.97168 0.0
C163 C 0.72156 0.43902 0.96227 0.0
C164 C 0.70626 0.44464 0.93137 0.0
C165 C 0.69647 0.42471 0.90935 0.0
C166 C 0.70282 0.39911 0.91827 0.0
C167 C 0.71794 0.3935 0.9494 0.0
P168 P 0.68493 0.62796 0.00772 0.0
H169 H 0.69652 0.63721 0.92967 0.0
H170 H 0.66947 0.64284 0.87465 0.0
H171 H 0.60159 0.63707 0.94369 0.0
H172 H 0.62868 0.63297 -0.00162 0.0
H173 H 0.72656 0.63286 0.06094 0.0
H174 H 0.75794 0.66694 0.07314 0.0
H175 H 0.7222 0.7145 0.98868 0.0
H176 H 0.69076 0.68061 0.97693 0.0
H177 H 0.65873 0.58103 0.03081 0.0
H178 H 0.66752 0.65833 0.0714 0.0
O179 O 0.70283 0.60227 0.99786 0.0
H180 H 0.63072 0.57053 0.08343 0.0
H181 H 0.63957 0.64796 0.12411 0.0
C182 C 0.66469 0.6345 0.96807 0.0
C183 C 0.6758 0.63754 0.93289 0.0
C184 C 0.66027 0.64055 0.90143 0.0
C185 C 0.63325 0.64015 0.90452 0.0
C186 C 0.62226 0.63783 0.94012 0.0
C187 C 0.63783 0.63518 0.97157 0.0
C188 C 0.70659 0.65403 0.0177 0.0
C189 C 0.72541 0.65071 0.04522 0.0
C190 C 0.74323 0.6702 0.05229 0.0
C191 C 0.74262 0.69328 0.03165 0.0
C192 C 0.72334 0.69676 0.00462 0.0
C193 C 0.70535 0.67736 0.99788 0.0
C194 C 0.66566 0.62023 0.04776 0.0
C195 C 0.65485 0.59564 0.0513 0.0
C196 C 0.63868 0.58974 0.08116 0.0
C197 C 0.63307 0.60839 0.10797 0.0
C198 C 0.64389 0.63309 0.10419 0.0
C199 C 0.65987 0.63903 0.07411 0.0
P200 P 0.35743 0.72063 0.02481 0.0
H201 H 0.37592 0.73006 0.94935 0.0
H202 H 0.38093 0.70215 0.89553 0.0
H203 H 0.34572 0.63961 0.95693 0.0
H204 H 0.34097 0.66758 0.01069 0.0
H205 H 0.34119 0.76054 0.07538 0.0
H206 H 0.30327 0.78831 0.07778 0.0
H207 H 0.27159 0.74938 0.98257 0.0
H208 H 0.3098 0.72201 0.98001 0.0
H209 H 0.40264 0.69735 0.05859 0.0
H210 H 0.32089 0.69857 0.07878 0.0
O211 O 0.38212 0.74113 0.02308 0.0
H212 H 0.40862 0.66822 0.11159 0.0
H213 H 0.32664 0.66916 0.13164 0.0
C214 C 0.35865 0.70071 0.98423 0.0
C215 C 0.36919 0.71037 0.95114 0.0
C216 C 0.37189 0.69444 0.92033 0.0
C217 C 0.36399 0.66856 0.92211 0.0
C218 C 0.35245 0.65929 0.95493 0.0
C219 C 0.34966 0.67529 0.98565 0.0
C220 C 0.32838 0.7394 0.0274 0.0
C221 C 0.32599 0.75793 0.05515 0.0
C222 C 0.30422 0.77368 0.05662 0.0
C223 C 0.2844 0.77115 0.03027 0.0
C224 C 0.28667 0.75209 0.00294 0.0
C225 C 0.30847 0.73632 0.00154 0.0
C226 C 0.36144 0.70055 0.06535 0.0
C227 C 0.38601 0.69151 0.0747 0.0
C228 C 0.38936 0.67466 0.10476 0.0
C229 C 0.3681 0.6664 0.12587 0.0
C230 C 0.34344 0.67548 0.11629 0.0
C231 C 0.34012 0.6923 0.08609 0.0
P232 P 0.87067 0.74679 0.51385 0.0
H233 H 0.88826 0.73452 0.58875 0.0
H234 H 0.89983 0.76113 0.64176 0.0
H235 H 0.88203 0.82955 0.57748 0.0
H236 H 0.87096 0.80276 0.5244 0.0
H237 H 0.84153 0.70753 0.47554 0.0
H238 H 0.79624 0.69486 0.47708 0.0
H239 H 0.78082 0.7548 0.5564 0.0
H240 H 0.82617 0.76712 0.55504 0.0
H241 H 0.91736 0.75134 0.46969 0.0
H242 H 0.83936 0.77949 0.46463 0.0
O243 O 0.88823 0.71992 0.51568 0.0
H244 H 0.92756 0.77492 0.4125 0.0
H245 H 0.84926 0.8028 0.40709 0.0
C246 C 0.87934 0.76669 0.55246 0.0
C247 C 0.88703 0.75525 0.58602 0.0
C248 C 0.8934 0.7705 0.6164 0.0
C249 C 0.89193 0.79749 0.61382 0.0
C250 C 0.88379 0.80885 0.58019 0.0
C251 C 0.87742 0.79355 0.54982 0.0
C252 C 0.83727 0.73791 0.51563 0.0
C253 C 0.82838 0.71785 0.49335 0.0
C254 C 0.80246 0.7108 0.49402 0.0
C255 C 0.78494 0.72381 0.51693 0.0
C256 C 0.7939 0.74418 0.53887 0.0
C257 C 0.81985 0.75126 0.53807 0.0
C258 C 0.87751 0.76327 0.4709 0.0
C259 C 0.90235 0.76233 0.45596 0.0
C260 C 0.90811 0.77575 0.42323 0.0
C261 C 0.88915 0.79057 0.4051 0.0
C262 C 0.86431 0.79165 0.42047 0.0
C263 C 0.85856 0.77816 0.45318 0.0
P264 P 0.23019 0.89015 0.51271 0.0
H265 H 0.24192 0.9183 0.58065 0.0
H266 H 0.21466 0.93707 0.62855 0.0
H267 H 0.14709 0.90895 0.57183 0.0
H268 H 0.1745 0.88976 0.52457 0.0
H269 H 0.2603 0.85417 0.47014 0.0
H270 H 0.26702 0.80779 0.47484 0.0
H271 H 0.21409 0.80413 0.56733 0.0
H272 H 0.20804 0.85068 0.56303 0.0
H273 H 0.23628 0.93465 0.46375 0.0
H274 H 0.19178 0.86466 0.46633 0.0
O275 O 0.25939 0.90339 0.51507 0.0
H276 H 0.21424 0.94816 0.40692 0.0
H277 H 0.1689 0.8784 0.4103 0.0
C278 C 0.2102 0.90301 0.54877 0.0
C279 C 0.22125 0.91617 0.57854 0.0
C280 C 0.20563 0.927 0.6058 0.0
C281 C 0.17868 0.92473 0.60379 0.0
C282 C 0.16776 0.91095 0.5743 0.0
C283 C 0.18341 0.90014 0.54708 0.0
C284 C 0.23385 0.85585 0.51631 0.0
C285 C 0.25011 0.84334 0.49136 0.0
C286 C 0.25373 0.81678 0.49389 0.0
C287 C 0.241 0.8022 0.5214 0.0
C288 C 0.22436 0.81483 0.54607 0.0
C289 C 0.22081 0.84146 0.54353 0.0
C290 C 0.21592 0.89851 0.46882 0.0
C291 C 0.22193 0.92207 0.45182 0.0
C292 C 0.2091 0.92988 0.41955 0.0
C293 C 0.18969 0.91442 0.4041 0.0
C294 C 0.184 0.8906 0.42107 0.0
C295 C 0.19701 0.88274 0.45319 0.0
P296 P 0.19851 0.11916 0.51942 0.0
H297 H 0.20915 0.10881 0.44143 0.0
H298 H 0.1813 0.10437 0.38691 0.0
H299 H 0.11529 0.12388 0.45384 0.0
H300 H 0.14309 0.12819 0.50799 0.0
H301 H 0.23914 0.1349 0.56944 0.0
H302 H 0.265 0.17399 0.57428 0.0
H303 H 0.22287 0.20764 0.48234 0.0
H304 H 0.19734 0.16828 0.47739 0.0
H305 H 0.18204 0.07302 0.55967 0.0
H306 H 0.17179 0.15505 0.5683 0.0
O307 O 0.21953 0.09498 0.51669 0.0
H308 H 0.15427 0.06632 0.61366 0.0
H309 H 0.14342 0.14858 0.62161 0.0
C310 C 0.17815 0.11828 0.47891 0.0
C311 C 0.18869 0.11224 0.44426 0.0
C312 C 0.17278 0.10984 0.41312 0.0
C313 C 0.14604 0.11346 0.4162 0.0
C314 C 0.13574 0.12047 0.45075 0.0
C315 C 0.15167 0.12301 0.48176 0.0
C316 C 0.21657 0.14859 0.52284 0.0
C317 C 0.23549 0.15073 0.55036 0.0
C318 C 0.25011 0.17317 0.55326 0.0
C319 C 0.24606 0.19396 0.52864 0.0
C320 C 0.22673 0.19185 0.5014 0.0
C321 C 0.21205 0.16937 0.49859 0.0
C322 C 0.1794 0.11453 0.56058 0.0
C323 C 0.17396 0.0896 0.57342 0.0
C324 C 0.15786 0.0858 0.60405 0.0
C325 C 0.14664 0.10692 0.6221 0.0
C326 C 0.15211 0.13191 0.6089 0.0
C327 C 0.16831 0.13566 0.57836 0.0
P328 P 0.86695 0.20182 0.54971 0.0
H329 H 0.84735 0.21438 0.47533 0.0
H330 H 0.8459 0.19019 0.4174 0.0
H331 H 0.88407 0.12635 0.47214 0.0
H332 H 0.88464 0.15007 0.52972 0.0
H333 H 0.85776 0.25078 0.58628 0.0
H334 H 0.81984 0.2785 0.59061 0.0
H335 H 0.77469 0.22126 0.53376 0.0
H336 H 0.81269 0.19353 0.52978 0.0
H337 H 0.91364 0.18634 0.58885 0.0
H338 H 0.8329 0.16747 0.59189 0.0
O339 O 0.8918 0.22204 0.54624 0.0
H340 H 0.92281 0.15122 0.63212 0.0
H341 H 0.84177 0.1326 0.63624 0.0
C342 C 0.86538 0.18382 0.50722 0.0
C343 C 0.85503 0.19501 0.47492 0.0
C344 C 0.85443 0.18124 0.44174 0.0
C345 C 0.86461 0.15617 0.44017 0.0
C346 C 0.87542 0.1453 0.47251 0.0
C347 C 0.87585 0.15899 0.50561 0.0
C348 C 0.83817 0.22047 0.55678 0.0
C349 C 0.83964 0.24411 0.57504 0.0
C350 C 0.81793 0.25986 0.57769 0.0
C351 C 0.79437 0.25219 0.56208 0.0
C352 C 0.7927 0.22787 0.54544 0.0
C353 C 0.81438 0.21202 0.54316 0.0
C354 C 0.87252 0.17985 0.58777 0.0
C355 C 0.89775 0.17513 0.59978 0.0
C356 C 0.90298 0.15496 0.62454 0.0
C357 C 0.88304 0.139 0.63768 0.0
C358 C 0.85762 0.1443 0.62634 0.0
C359 C 0.85245 0.16446 0.60141 0.0
C360 C 0.07421 0.14394 0.99289 0.0
C361 C 0.06227 0.13221 0.0237 0.0
C362 C 0.09256 0.1632 0.99784 0.0
C363 C 0.13974 0.1824 0.06793 0.0
H364 H 0.15707 0.23391 0.99346 0.0
C365 C 0.23693 0.23553 0.07024 0.0
C366 C 0.25032 0.23365 0.0365 0.0
C367 C 0.21068 0.22975 0.07193 0.0
C368 C 0.15237 0.21971 0.0146 0.0
H369 H 0.05845 0.13329 0.08369 0.0
H370 H 0.09007 0.16734 0.09223 0.0
H371 H 0.1152 0.21263 0.99119 0.0
H372 H 0.24659 0.22576 0.97777 0.0
H373 H 0.20082 0.21562 0.98068 0.0
H374 H 0.17717 0.18894 0.09065 0.0
C375 C 0.08579 0.16109 0.0643 0.0
C376 C 0.12845 0.20748 0.01328 0.0
C377 C 0.06755 0.14166 0.05937 0.0
C378 C 0.23677 0.22707 0.00421 0.0
C379 C 0.21052 0.22157 0.00581 0.0
C380 C 0.16354 0.19479 0.06941 0.0
C381 C 0.09925 0.17137 0.0337 0.0
C382 C 0.12222 0.188 0.03914 0.0
C383 C 0.19732 0.22232 0.03982 0.0
C384 C 0.17044 0.21291 0.04203 0.0
H385 H 0.07053 0.13724 0.96499 0.0
H386 H 0.10264 0.17046 0.97362 0.0
H387 H 0.13583 0.16728 0.08803 0.0
H388 H 0.24697 0.24051 0.09555 0.0
H389 H 0.20093 0.23058 0.09847 0.0
C390 C 0.86726 0.11394 0.99114 0.0
C391 C 0.87444 0.10082 0.02386 0.0
C392 C 0.8501 0.13457 0.99241 0.0
C393 C 0.82825 0.18406 0.05706 0.0
H394 H 0.78163 0.20169 0.97659 0.0
C395 C 0.77125 0.2792 0.05487 0.0
C396 C 0.77272 0.29314 0.0213 0.0
C397 C 0.77935 0.25359 0.05669 0.0
C398 C 0.79458 0.197 -0.00075 0.0
H399 H 0.86793 0.09808 0.08332 0.0
H400 H 0.83766 0.13387 0.08539 0.0
H401 H 0.80279 0.15972 0.97743 0.0
H402 H 0.78281 0.29092 0.96302 0.0
H403 H 0.79723 0.24628 0.96627 0.0
H404 H 0.82047 0.2215 0.07846 0.0
C405 C 0.84575 0.12853 0.05886 0.0
C406 C 0.80671 0.173 -0.00027 0.0
C407 C 0.86301 0.10793 0.05762 0.0
C408 C 0.78175 0.28074 0.98937 0.0
C409 C 0.78971 0.2551 0.99114 0.0
C410 C 0.81604 0.20798 0.05666 0.0
C411 C 0.8396 0.14249 0.0264 0.0
C412 C 0.82413 0.16648 0.02822 0.0
C413 C 0.78891 0.24136 0.02493 0.0
C414 C 0.79951 0.21491 0.02734 0.0
H415 H 0.87564 0.10897 0.96463 0.0
H416 H 0.84603 0.14504 0.96694 0.0
H417 H 0.84184 0.17987 0.07912 0.0
H418 H 0.7645 0.28831 0.07998 0.0
H419 H 0.77835 0.24341 0.08305 0.0
C420 C 0.89752 0.86642 0.01849 0.0
C421 C 0.90116 0.88189 0.04986 0.0
C422 C 0.88377 0.84343 0.02116 0.0
C423 C 0.83384 0.81228 0.07849 0.0
H424 H 0.84797 0.75443 0.01443 0.0
C425 C 0.76952 0.72093 0.07336 0.0
C426 C 0.76253 0.71329 0.03739 0.0
C427 C 0.78844 0.73972 0.07851 0.0
C428 C 0.84379 0.77046 0.03245 0.0
H429 H 0.89453 0.88445 0.10921 0.0
H430 H 0.87085 0.84398 0.11397 0.0
H431 H 0.87888 0.78961 0.01821 0.0
H432 H 0.77015 0.71894 0.97872 0.0
H433 H 0.80318 0.75167 0.98769 0.0
H434 H 0.79861 0.79307 0.09245 0.0
C435 C 0.87814 0.85 0.0871 0.0
C436 C 0.86145 0.79065 0.03459 0.0
C437 C 0.89184 0.87313 0.0844 0.0
C438 C 0.77497 0.72463 0.00673 0.0
C439 C 0.79406 0.74315 0.01189 0.0
C440 C 0.81627 0.79195 0.07659 0.0
C441 C 0.87344 0.83515 0.05532 0.0
C442 C 0.8564 0.81213 0.05691 0.0
C443 C 0.80097 0.75093 0.04781 0.0
C444 C 0.82079 0.77115 0.05286 0.0
H445 H 0.90442 0.87252 0.99143 0.0
H446 H 0.8803 0.83274 0.99598 0.0
H447 H 0.82912 0.82863 0.09562 0.0
H448 H 0.76015 0.71258 0.09747 0.0
H449 H 0.79344 0.74532 0.1065 0.0
C450 C 0.10057 0.92025 0.05745 0.0
C451 C 0.09115 0.92835 0.02259 0.0
C452 C 0.12237 0.90449 0.05997 0.0
C453 C 0.1791 0.88233 0.00668 0.0
H454 H 0.17687 0.82362 0.07388 0.0
C455 C 0.25217 0.79925 0.99724 0.0
C456 C 0.26193 0.78892 0.03062 0.0
C457 C 0.23176 0.81676 0.99754 0.0
C458 C 0.17795 0.84009 0.0553 0.0
H459 H 0.09775 0.92667 0.96314 0.0
H460 H 0.13551 0.8992 0.9676 0.0
H461 H 0.14115 0.85409 0.07262 0.0
H462 H 0.25743 0.78854 0.0905 0.0
H463 H 0.22203 0.8194 0.09105 0.0
H464 H 0.21579 0.86827 0.98915 0.0
C465 C 0.12621 0.90517 0.993 0.0
C466 C 0.15749 0.85759 0.05462 0.0
C467 C 0.10443 0.92084 0.99046 0.0
C468 C 0.25055 0.79631 0.06431 0.0
C469 C 0.23009 0.81381 0.0646 0.0
C470 C 0.19955 0.86486 0.00737 0.0
C471 C 0.1353 0.89657 0.02775 0.0
C472 C 0.15771 0.87879 0.03005 0.0
C473 C 0.22056 0.82439 0.03123 0.0
C474 C 0.19913 0.84339 0.03143 0.0
H475 H 0.09089 0.92573 0.0828 0.0
H476 H 0.12907 0.89848 0.08719 0.0
H477 H 0.18009 0.89869 0.98787 0.0
H478 H 0.26064 0.7942 0.97082 0.0
H479 H 0.22467 0.82425 0.97129 0.0
C480 C 0.57628 0.61716 0.55227 0.0
C481 C 0.56805 0.6076 0.51784 0.0
C482 C 0.5966 0.63472 0.55411 0.0
C483 C 0.63806 0.67824 0.49719 0.0
H484 H 0.6895 0.66098 0.57144 0.0
C485 C 0.74439 0.70905 0.48581 0.0
C486 C 0.75756 0.7157 0.51843 0.0
C487 C 0.71915 0.69987 0.48744 0.0
C488 C 0.67517 0.6664 0.55095 0.0
H489 H 0.57379 0.61014 0.45822 0.0
H490 H 0.6094 0.64036 0.4615 0.0
H491 H 0.64861 0.6383 0.5714 0.0
H492 H 0.75436 0.71846 0.57831 0.0
H493 H 0.71017 0.70269 0.58111 0.0
H494 H 0.66512 0.70582 0.4761 0.0
C495 C 0.60003 0.63453 0.48708 0.0
C496 C 0.65166 0.65341 0.55095 0.0
C497 C 0.57966 0.61705 0.48521 0.0
C498 C 0.74469 0.71365 0.55265 0.0
C499 C 0.71946 0.70439 0.55429 0.0
C500 C 0.66164 0.69121 0.49714 0.0
C501 C 0.60917 0.64307 0.5216 0.0
C502 C 0.63297 0.65887 0.52372 0.0
C503 C 0.70653 0.69708 0.52175 0.0
C504 C 0.6806 0.68513 0.52368 0.0
H505 H 0.56758 0.61051 0.57795 0.0
H506 H 0.60284 0.64131 0.5811 0.0
H507 H 0.62393 0.68318 0.47618 0.0
H508 H 0.75368 0.71072 0.45898 0.0
H509 H 0.70982 0.69418 0.46189 0.0
C510 C 0.34838 0.60228 0.49184 0.0
C511 C 0.36053 0.59176 0.52343 0.0
C512 C 0.32852 0.62019 0.49559 0.0
C513 C 0.30861 0.66966 0.56045 0.0
H514 H 0.25193 0.67902 0.49154 0.0
C515 C 0.2497 0.76287 0.56047 0.0
C516 C 0.24617 0.77418 0.52521 0.0
C517 C 0.25757 0.73724 0.56389 0.0
C518 C 0.26768 0.67667 0.511 0.0
H519 H 0.35986 0.59023 0.58373 0.0
H520 H 0.32513 0.62136 0.59012 0.0
H521 H 0.27667 0.63902 0.49095 0.0
H522 H 0.24633 0.76691 0.46601 0.0
H523 H 0.26084 0.72256 0.47188 0.0
H524 H 0.30058 0.70759 0.57939 0.0
C525 C 0.3313 0.61609 0.5625 0.0
C526 C 0.2818 0.65376 0.51069 0.0
C527 C 0.35115 0.59818 0.55878 0.0
C528 C 0.24935 0.7589 0.49355 0.0
C529 C 0.25731 0.73333 0.49696 0.0
C530 C 0.29459 0.69254 0.56068 0.0
C531 C 0.32037 0.62793 0.53097 0.0
C532 C 0.30282 0.65028 0.53482 0.0
C533 C 0.26216 0.72239 0.53213 0.0
C534 C 0.27437 0.6966 0.53534 0.0
H535 H 0.35498 0.59764 0.46419 0.0
H536 H 0.32064 0.62906 0.47073 0.0
H537 H 0.32494 0.66779 0.579 0.0
H538 H 0.24753 0.7741 0.58544 0.0
H539 H 0.26076 0.72928 0.59141 0.0
C540 C 0.38694 0.38316 0.56938 0.0
C541 C 0.3945 0.39389 0.53506 0.0
C542 C 0.37142 0.36112 0.57069 0.0
C543 C 0.35103 0.30576 0.51375 0.0
H544 H 0.29288 0.30235 0.58099 0.0
C545 C 0.27181 0.22925 0.49832 0.0
C546 C 0.26242 0.21739 0.53084 0.0
C547 C 0.28809 0.25059 0.50033 0.0
C548 C 0.30922 0.30286 0.56235 0.0
H549 H 0.39167 0.38967 0.47524 0.0
H550 H 0.36469 0.3516 0.47761 0.0
H551 H 0.32162 0.33953 0.58244 0.0
H552 H 0.26231 0.21915 0.591 0.0
H553 H 0.29104 0.2562 0.5945 0.0
H554 H 0.33865 0.26925 0.49349 0.0
C555 C 0.37094 0.35998 0.50353 0.0
C556 C 0.3257 0.32416 0.56323 0.0
C557 C 0.38631 0.38197 0.5022 0.0
C558 C 0.26942 0.22766 0.56542 0.0
C559 C 0.28568 0.24905 0.56743 0.0
C560 C 0.3346 0.28452 0.51289 0.0
C561 C 0.36328 0.34927 0.53773 0.0
C562 C 0.34663 0.32599 0.53861 0.0
C563 C 0.2954 0.26064 0.53491 0.0
C564 C 0.31332 0.28293 0.53687 0.0
H565 H 0.39293 0.3918 0.59524 0.0
H566 H 0.36601 0.3532 0.5975 0.0
H567 H 0.36726 0.30633 0.49491 0.0
H568 H 0.267 0.22171 0.47125 0.0
H569 H 0.29493 0.25926 0.47472 0.0
C570 C 0.615 0.40776 0.56888 0.0
C571 C 0.60435 0.41175 0.53337 0.0
C572 C 0.63683 0.39228 0.57362 0.0
C573 C 0.69035 0.36142 0.52127 0.0
H574 H 0.69214 0.31463 0.6058 0.0
C575 C 0.7583 0.274 0.52802 0.0
C576 C 0.77215 0.27016 0.56114 0.0
C577 C 0.73846 0.29211 0.52614 0.0
C578 C 0.69201 0.32777 0.58226 0.0
H579 H 0.60866 0.40293 0.47492 0.0
H580 H 0.64613 0.37562 0.48323 0.0
H581 H 0.65694 0.3455 0.59967 0.0
H582 H 0.77564 0.28183 0.61855 0.0
H583 H 0.74066 0.31338 0.61535 0.0
H584 H 0.72505 0.3431 0.50338 0.0
C585 C 0.63804 0.3848 0.50743 0.0
C586 C 0.67191 0.34555 0.57878 0.0
C587 C 0.61639 0.40041 0.50266 0.0
C588 C 0.76537 0.28447 0.5926 0.0
C589 C 0.74529 0.3024 0.59083 0.0
C590 C 0.71027 0.34348 0.52456 0.0
C591 C 0.64843 0.3803 0.543 0.0
C592 C 0.67067 0.36246 0.54802 0.0
C593 C 0.73185 0.30663 0.55743 0.0
C594 C 0.71119 0.3263 0.55489 0.0
H595 H 0.6063 0.41634 0.59313 0.0
H596 H 0.64454 0.38963 0.60134 0.0
H597 H 0.6904 0.37447 0.49764 0.0
H598 H 0.76324 0.26346 0.50321 0.0
H599 H 0.72825 0.29475 0.50013 0.0
C600 C 0.01536 0.08947 0.13381 0.0
C601 C 0.99418 0.07299 0.13781 0.0
C602 C 0.03201 0.09376 0.16361 0.0
C603 C 0.03508 0.09204 0.26532 0.0
H604 H 0.10893 0.08878 0.25079 0.0
C605 C 0.1058 0.09523 0.3885 0.0
C606 C 0.12881 0.10908 0.38392 0.0
C607 C 0.0896 0.09077 0.35827 0.0
C608 C 0.08837 0.09011 0.25524 0.0
H609 H 0.97305 0.04878 0.17647 0.0
H610 H 0.00195 0.05649 0.22886 0.0
H611 H 0.08009 0.08131 0.19844 0.0
H612 H 0.15278 0.12931 0.34403 0.0
H613 H 0.1243 0.12191 0.29123 0.0
H614 H 0.04319 0.10122 0.32186 0.0
C615 C 0.00587 0.06594 0.20252 0.0
C616 C 0.07186 0.08575 0.22525 0.0
C617 C 0.98936 0.06152 0.17258 0.0
C618 C 0.13529 0.11836 0.34836 0.0
C619 C 0.11899 0.11404 0.3181 0.0
C620 C 0.05156 0.09659 0.29522 0.0
C621 C 0.02747 0.08197 0.19828 0.0
C622 C 0.04504 0.08662 0.23002 0.0
C623 C 0.09592 0.10019 0.32269 0.0
C624 C 0.07843 0.09561 0.29062 0.0
H625 H 0.01876 0.09941 0.10785 0.0
H626 H 0.04818 0.10665 0.15972 0.0
H627 H 0.01449 0.09319 0.26971 0.0
H628 H 0.1005 0.08741 0.41542 0.0
H629 H 0.07228 0.07959 0.36275 0.0
C630 C 0.89652 0.00839 0.18285 0.0
C631 C 0.90185 0.0197 0.14805 0.0
C632 C 0.88988 0.02366 0.21314 0.0
C633 C 0.89785 0.08882 0.24873 0.0
H634 H 0.842 0.07056 0.31526 0.0
C635 C 0.87026 0.1539 0.37091 0.0
C636 C 0.86476 0.14153 0.40487 0.0
C637 C 0.87225 0.13976 0.33822 0.0
C638 C 0.85782 0.07581 0.29717 0.0
H639 H 0.90299 0.05577 0.11775 0.0
H640 H 0.89208 0.08245 0.17045 0.0
H641 H 0.85068 0.04399 0.26114 0.0
H642 H 0.85585 0.1047 0.43068 0.0
H643 H 0.86026 0.07998 0.37412 0.0
H644 H 0.90559 0.12013 0.28506 0.0
C645 C 0.89338 0.06179 0.1744 0.0
C646 C 0.86273 0.0606 0.26616 0.0
C647 C 0.89976 0.0465 0.14413 0.0
C648 C 0.86055 0.1148 0.40513 0.0
C649 C 0.86272 0.10065 0.37253 0.0
C650 C 0.8931 0.10388 0.27988 0.0
C651 C 0.88857 0.05055 0.20929 0.0
C652 C 0.88285 0.06692 0.24172 0.0
C653 C 0.86895 0.11289 0.33874 0.0
C654 C 0.8731 0.09751 0.30461 0.0
H655 H 0.89789 0.98775 0.18691 0.0
H656 H 0.88642 0.01447 0.23981 0.0
H657 H 0.91371 0.09395 0.23062 0.0
H658 H 0.87379 0.17443 0.36968 0.0
H659 H 0.87665 0.14988 0.31258 0.0
C660 C 0.97225 0.90467 0.13038 0.0
C661 C 0.96551 0.93078 0.12968 0.0
C662 C 0.96183 0.88814 0.15721 0.0
C663 C 0.90949 0.88173 0.22632 0.0
H664 H 0.95731 0.83537 0.27565 0.0
C665 C 0.88671 0.8306 0.36568 0.0
C666 C 0.89549 0.80523 0.37072 0.0
C667 C 0.89361 0.84477 0.33405 0.0
C668 C 0.94359 0.84789 0.26181 0.0
H669 H 0.94379 0.96051 0.15702 0.0
H670 H 0.92511 0.93166 0.20381 0.0
H671 H 0.97209 0.86207 0.22407 0.0
H672 H 0.91761 0.77449 0.34587 0.0
H673 H 0.92961 0.79918 0.29062 0.0
H674 H 0.88105 0.86771 0.26449 0.0
C675 C 0.93781 0.92371 0.18302 0.0
C676 C 0.95207 0.8632 0.23222 0.0
C677 C 0.94826 0.94021 0.15613 0.0
C678 C 0.9109 0.79415 0.34308 0.0
C679 C 0.91776 0.8083 0.31144 0.0
C680 C 0.90098 0.86636 0.25594 0.0
C681 C 0.94469 0.89753 0.18408 0.0
C682 C 0.93517 0.88042 0.21431 0.0
C683 C 0.90942 0.83386 0.30674 0.0
C684 C 0.91799 0.8494 0.27419 0.0
H685 H 0.98563 0.89707 0.1102 0.0
H686 H 0.96731 0.86803 0.15707 0.0
H687 H 0.89594 0.89458 0.21276 0.0
H688 H 0.87508 0.83979 0.38669 0.0
H689 H 0.88716 0.86453 0.33154 0.0
C690 C 0.06541 0.02044 0.16 0.0
C691 C 0.05464 0.00524 0.13186 0.0
C692 C 0.07962 0.00925 0.18869 0.0
C693 C 0.09342 0.94767 0.23687 0.0
H694 H 0.1545 0.9844 0.26846 0.0
C695 C 0.16705 0.90655 0.34342 0.0
C696 C 0.17472 0.92363 0.37142 0.0
C697 C 0.15254 0.91532 0.31312 0.0
C698 C 0.13742 0.974 0.26007 0.0
H699 H 0.04941 0.96615 0.11323 0.0
H700 H 0.07503 0.94652 0.16261 0.0
H701 H 0.12859 0.00161 0.21769 0.0
H702 H 0.17256 0.96323 0.38983 0.0
H703 H 0.14776 0.97853 0.33674 0.0
H704 H 0.10254 0.91995 0.27938 0.0
C705 C 0.07227 0.96717 0.16249 0.0
C706 C 0.12252 0.98388 0.23107 0.0
C707 C 0.05776 0.97844 0.13388 0.0
C708 C 0.16753 0.94965 0.36839 0.0
C709 C 0.15323 0.95843 0.33804 0.0
C710 C 0.10847 0.93767 0.26582 0.0
C711 C 0.08368 0.98254 0.18991 0.0
C712 C 0.10011 0.97107 0.21949 0.0
C713 C 0.1456 0.94138 0.3101 0.0
C714 C 0.13041 0.95096 0.27801 0.0
H715 H 0.06303 0.04114 0.15983 0.0
H716 H 0.08748 0.02162 0.20991 0.0
H717 H 0.07617 0.93743 0.22882 0.0
H718 H 0.1725 0.88645 0.34468 0.0
H719 H 0.14709 0.90182 0.29178 0.0
C720 C 0.03838 0.99867 0.85445 0.0
C721 C 0.04682 0.02129 0.87167 0.0
C722 C 0.05093 0.98954 0.82284 0.0
C723 C 0.11389 0.99387 0.77608 0.0
H724 H 0.07859 0.96071 0.69461 0.0
C725 C 0.16778 0.96162 0.64528 0.0
C726 C 0.16206 0.93688 0.63217 0.0
C727 C 0.15247 0.97294 0.67244 0.0
C728 C 0.08869 0.96979 0.71731 0.0
H729 H 0.07432 0.05263 0.86842 0.0
H730 H 0.09556 0.03725 0.81287 0.0
H731 H 0.05361 0.97905 0.74545 0.0
H732 H 0.13567 0.90471 0.63716 0.0
H733 H 0.10892 0.92452 0.68467 0.0
H734 H 0.14891 0.98459 0.74821 0.0
C735 C 0.07976 0.02612 0.82425 0.0
C736 C 0.0744 0.98026 0.74641 0.0
C737 C 0.06744 0.03504 0.85596 0.0
C738 C 0.14043 0.9239 0.6464 0.0
C739 C 0.12509 0.93525 0.67357 0.0
C740 C 0.12811 0.98352 0.74702 0.0
C741 C 0.07204 0.00298 0.80776 0.0
C742 C 0.08687 0.99237 0.77617 0.0
C743 C 0.13109 0.95979 0.6871 0.0
C744 C 0.1157 0.97131 0.71737 0.0
H745 H 0.02241 0.98777 0.86575 0.0
H746 H 0.04458 0.97157 0.81094 0.0
H747 H 0.12416 0.00256 0.79894 0.0
H748 H 0.184 0.97234 0.63434 0.0
H749 H 0.15734 0.99205 0.68189 0.0
C750 C 0.98692 0.06422 0.86726 0.0
C751 C 0.98888 0.08061 0.89792 0.0
C752 C 0.0035 0.06701 0.83696 0.0
C753 C 0.06679 0.09494 0.81179 0.0
H754 H 0.04341 0.08379 0.71098 0.0
C755 C 0.12967 0.11962 0.68463 0.0
C756 C 0.12899 0.10293 0.65416 0.0
C757 C 0.11268 0.11629 0.71433 0.0
C758 C 0.05034 0.0866 0.73902 0.0
H759 H 0.00922 0.11347 0.92023 0.0
H760 H 0.03779 0.11872 0.86716 0.0
H761 H 0.013 0.07994 0.76219 0.0
H762 H 0.10982 0.06958 0.63116 0.0
H763 H 0.08065 0.06337 0.68345 0.0
H764 H 0.10413 0.10148 0.78867 0.0
C765 C 0.02383 0.10327 0.86683 0.0
C766 C 0.03288 0.08443 0.7684 0.0
C767 C 0.00728 0.1004 0.89715 0.0
C768 C 0.11107 0.08264 0.65433 0.0
C769 C 0.09411 0.07927 0.6841 0.0
C770 C 0.08424 0.097 0.78246 0.0
C771 C 0.02238 0.0864 0.83656 0.0
C772 C 0.04087 0.08868 0.80516 0.0
C773 C 0.09463 0.09614 0.71438 0.0
C774 C 0.07621 0.09303 0.74569 0.0
H775 H 0.97299 0.04878 0.86712 0.0
H776 H 0.00203 0.05344 0.81443 0.0
H777 H 0.07377 0.09784 0.83977 0.0
H778 H 0.14342 0.13525 0.68565 0.0
H779 H 0.11344 0.12981 0.737 0.0
C780 C 0.94369 0.98402 0.87257 0.0
C781 C 0.92669 0.96355 0.87975 0.0
C782 C 0.94212 0.99793 0.83932 0.0
C783 C 0.89273 0.01558 0.77079 0.0
H784 H 0.94878 0.0545 0.72681 0.0
C785 C 0.87612 0.09276 0.65646 0.0
C786 C 0.88899 0.11628 0.66168 0.0
C787 C 0.88221 0.07121 0.67829 0.0
C788 C 0.93294 0.04377 0.73886 0.0
H789 H 0.89667 0.93983 0.856 0.0
H790 H 0.894 0.96414 0.7978 0.0
H791 H 0.95824 0.01984 0.77096 0.0
H792 H 0.91818 0.13552 0.69438 0.0
H793 H 0.92888 0.09789 0.73225 0.0
H794 H 0.86745 0.03982 0.73919 0.0
C795 C 0.90804 0.96989 0.81835 0.0
C796 C 0.93834 0.02389 0.76414 0.0
C797 C 0.90964 0.95589 0.85165 0.0
C798 C 0.90814 0.11765 0.68922 0.0
C799 C 0.91432 0.09607 0.71089 0.0
C800 C 0.88736 0.03531 0.74534 0.0
C801 C 0.92349 0.9918 0.81251 0.0
C802 C 0.91826 0.00996 0.78115 0.0
C803 C 0.90142 0.07262 0.70569 0.0
C804 C 0.90736 0.05003 0.72978 0.0
H805 H 0.95743 0.99014 0.89334 0.0
H806 H 0.95447 0.01449 0.83571 0.0
H807 H 0.87672 0.00566 0.78375 0.0
H808 H 0.86164 0.09084 0.63503 0.0
H809 H 0.8721 0.05334 0.67341 0.0
C810 C 0.9838 0.93058 0.85947 0.0
C811 C 0.97967 0.92108 0.89567 0.0
C812 C 0.97195 0.9189 0.8291 0.0
C813 C 0.94439 0.85671 0.80167 0.0
H814 H 0.91743 0.89516 0.7174 0.0
C815 C 0.892 0.80627 0.68223 0.0
C816 C 0.89911 0.81365 0.64602 0.0
C817 C 0.89985 0.8207 0.71271 0.0
C818 C 0.92504 0.88419 0.74066 0.0
H819 H 0.95924 0.89243 0.92848 0.0
H820 H 0.93855 0.87222 0.87566 0.0
H821 H 0.93458 0.91822 0.77094 0.0
H822 H 0.91974 0.84226 0.61344 0.0
H823 H 0.93341 0.86751 0.66674 0.0
H824 H 0.93507 0.82274 0.77155 0.0
C825 C 0.95126 0.88839 0.87063 0.0
C826 C 0.93488 0.89738 0.77126 0.0
C827 C 0.9631 0.90002 0.90092 0.0
C828 C 0.9137 0.8362 0.64093 0.0
C829 C 0.92153 0.85068 0.67146 0.0
C830 C 0.93453 0.84358 0.77122 0.0
C831 C 0.95583 0.89744 0.83433 0.0
C832 C 0.94472 0.88375 0.80207 0.0
C833 C 0.91497 0.84288 0.70771 0.0
C834 C 0.92479 0.85713 0.74034 0.0
H835 H 0.99635 0.94688 0.85452 0.0
H836 H 0.97598 0.92625 0.80147 0.0
H837 H 0.95229 0.84562 0.82461 0.0
H838 H 0.88034 0.7893 0.68705 0.0
H839 H 0.8941 0.81445 0.74026 0.0
C840 C 0.51574 0.58169 0.63088 0.0
C841 C 0.48883 0.58349 0.63014 0.0
C842 C 0.53002 0.59327 0.65889 0.0
C843 C 0.52436 0.61653 0.75484 0.0
H844 H 0.59295 0.64252 0.73461 0.0
C845 C 0.59229 0.65236 0.87096 0.0
C846 C 0.61662 0.64042 0.87076 0.0
C847 C 0.5758 0.6504 0.84039 0.0
C848 C 0.5738 0.6354 0.74063 0.0
H849 H 0.45572 0.5995 0.65852 0.0
H850 H 0.4807 0.62014 0.70734 0.0
H851 H 0.56507 0.63044 0.68313 0.0
H852 H 0.6427 0.61744 0.83755 0.0
H853 H 0.6143 0.61474 0.78414 0.0
H854 H 0.53334 0.6213 0.81245 0.0
C855 C 0.49079 0.60939 0.68624 0.0
C856 C 0.55785 0.62837 0.7112 0.0
C857 C 0.47648 0.59766 0.6581 0.0
C858 C 0.62438 0.62733 0.83862 0.0
C859 C 0.60805 0.62568 0.80795 0.0
C860 C 0.54025 0.62382 0.78427 0.0
C861 C 0.51777 0.60719 0.68707 0.0
C862 C 0.53322 0.61809 0.71798 0.0
C863 C 0.58343 0.6368 0.80875 0.0
C864 C 0.56537 0.63265 0.77748 0.0
H865 H 0.52594 0.57104 0.61025 0.0
H866 H 0.55069 0.59065 0.65894 0.0
H867 H 0.50563 0.60848 0.76116 0.0
H868 H 0.58582 0.66301 0.8949 0.0
H869 H 0.55699 0.65935 0.84156 0.0
C870 C 0.40397 0.54468 0.63956 0.0
C871 C 0.41633 0.52094 0.64478 0.0
C872 C 0.39835 0.56038 0.66972 0.0
C873 C 0.38737 0.55893 0.77037 0.0
H874 H 0.40226 0.63195 0.76385 0.0
C875 C 0.37827 0.62612 0.89663 0.0
C876 C 0.36869 0.65109 0.89039 0.0
C877 C 0.38379 0.61 0.86684 0.0
C878 C 0.39765 0.61167 0.76597 0.0
H879 H 0.43172 0.4945 0.68614 0.0
H880 H 0.42159 0.52179 0.73912 0.0
H881 H 0.41267 0.60419 0.71176 0.0
H882 H 0.35678 0.67847 0.84796 0.0
H883 H 0.36612 0.65025 0.79592 0.0
H884 H 0.37211 0.56638 0.82437 0.0
C885 C 0.41644 0.52838 0.71146 0.0
C886 C 0.40369 0.59576 0.73614 0.0
C887 C 0.42226 0.51278 0.68114 0.0
C888 C 0.36445 0.65946 0.85366 0.0
C889 C 0.36988 0.64329 0.82385 0.0
C890 C 0.3812 0.57486 0.80014 0.0
C891 C 0.4046 0.55245 0.70602 0.0
C892 C 0.39858 0.56923 0.73799 0.0
C893 C 0.3798 0.61842 0.83005 0.0
C894 C 0.38623 0.60144 0.7983 0.0
H895 H 0.39831 0.55102 0.61219 0.0
H896 H 0.38872 0.57857 0.66467 0.0
H897 H 0.38291 0.53861 0.77241 0.0
H898 H 0.38214 0.61924 0.92457 0.0
H899 H 0.39177 0.59114 0.87266 0.0
C900 C 0.45012 0.42219 0.6468 0.0
C901 C 0.47705 0.42313 0.64412 0.0
C902 C 0.43824 0.40839 0.67556 0.0
C903 C 0.45126 0.35548 0.74191 0.0
H904 H 0.39044 0.38054 0.79229 0.0
C905 C 0.39742 0.29289 0.84902 0.0
C906 C 0.39006 0.30514 0.88195 0.0
C907 C 0.40595 0.30731 0.81851 0.0
C908 C 0.40747 0.37334 0.77855 0.0
H909 H 0.51269 0.41132 0.67089 0.0
H910 H 0.49205 0.38774 0.72118 0.0
H911 H 0.41011 0.40661 0.74319 0.0
H912 H 0.38571 0.34212 0.90863 0.0
H913 H 0.4007 0.36727 0.85552 0.0
H914 H 0.44916 0.32261 0.77785 0.0
C915 C 0.48004 0.39707 0.70047 0.0
C916 C 0.41858 0.38815 0.7502 0.0
C917 C 0.49186 0.41075 0.6717 0.0
C918 C 0.39088 0.33214 0.88345 0.0
C919 C 0.39946 0.34656 0.853 0.0
C920 C 0.44018 0.34071 0.7702 0.0
C921 C 0.45311 0.39534 0.70238 0.0
C922 C 0.44074 0.37947 0.73181 0.0
C923 C 0.40739 0.33429 0.82034 0.0
C924 C 0.41827 0.34953 0.78902 0.0
H925 H 0.43813 0.43158 0.62644 0.0
H926 H 0.41743 0.40736 0.67616 0.0
H927 H 0.46809 0.34806 0.72789 0.0
H928 H 0.39665 0.27212 0.84689 0.0
H929 H 0.41152 0.29732 0.79352 0.0
C930 C 0.57166 0.47016 0.6291 0.0
C931 C 0.55138 0.48764 0.63338 0.0
C932 C 0.58476 0.46053 0.66014 0.0
C933 C 0.60195 0.48008 0.75362 0.0
H934 H 0.62467 0.40949 0.7665 0.0
C935 C 0.65828 0.44785 0.88326 0.0
C936 C 0.67871 0.43057 0.87824 0.0
C937 C 0.64127 0.45327 0.85424 0.0
C938 C 0.6187 0.42933 0.76308 0.0
H939 H 0.52857 0.50878 0.67307 0.0
H940 H 0.55148 0.49203 0.72753 0.0
H941 H 0.59663 0.42089 0.71433 0.0
H942 H 0.69747 0.40541 0.83901 0.0
H943 H 0.66809 0.41533 0.78785 0.0
H944 H 0.62448 0.48885 0.80144 0.0
C945 C 0.55719 0.48561 0.70022 0.0
C946 C 0.60256 0.4358 0.73333 0.0
C947 C 0.54405 0.4951 0.66918 0.0
C948 C 0.68176 0.41869 0.84366 0.0
C949 C 0.66486 0.42429 0.81447 0.0
C950 C 0.61821 0.47369 0.78311 0.0
C951 C 0.57802 0.46864 0.69595 0.0
C952 C 0.59406 0.46125 0.72834 0.0
C953 C 0.64444 0.4417 0.8194 0.0
C954 C 0.62682 0.44825 0.78821 0.0
H955 H 0.57854 0.46538 0.60177 0.0
H956 H 0.60108 0.44792 0.65596 0.0
H957 H 0.59614 0.49997 0.75001 0.0
H958 H 0.65519 0.4569 0.90986 0.0
H959 H 0.62547 0.46638 0.85925 0.0
C960 C 0.54771 0.50647 0.3561 0.0
C961 C 0.55312 0.49653 0.39173 0.0
C962 C 0.5601 0.49652 0.32492 0.0
C963 C 0.62011 0.464 0.30061 0.0
H964 H 0.58747 0.45283 0.20526 0.0
C965 C 0.67605 0.42089 0.17867 0.0
C966 C 0.67203 0.43203 0.14347 0.0
C967 C 0.66001 0.4271 0.20834 0.0
C968 C 0.59689 0.45608 0.23164 0.0
H969 H 0.57471 0.46754 0.42236 0.0
H970 H 0.59598 0.45005 0.36803 0.0
H971 H 0.56145 0.46638 0.25818 0.0
H972 H 0.64808 0.45834 0.11163 0.0
H973 H 0.62027 0.46951 0.1636 0.0
H974 H 0.65554 0.45427 0.27429 0.0
C975 C 0.58257 0.46582 0.36426 0.0
C976 C 0.58198 0.46379 0.2619 0.0
C977 C 0.57027 0.47577 0.39536 0.0
C978 C 0.65146 0.44927 0.1384 0.0
C979 C 0.6355 0.4556 0.16814 0.0
C980 C 0.63498 0.45642 0.27044 0.0
C981 C 0.5781 0.47648 0.32885 0.0
C982 C 0.59347 0.46778 0.29669 0.0
C983 C 0.6397 0.44472 0.20352 0.0
C984 C 0.62357 0.45235 0.2356 0.0
H985 H 0.53451 0.52242 0.3524 0.0
H986 H 0.55638 0.50523 0.29799 0.0
H987 H 0.62961 0.46744 0.32688 0.0
H988 H 0.69149 0.40721 0.18321 0.0
H989 H 0.66349 0.41801 0.23506 0.0
C990 C 0.50851 0.58419 0.39207 0.0
C991 C 0.48359 0.57386 0.38963 0.0
C992 C 0.52432 0.58551 0.36082 0.0
C993 C 0.52253 0.58679 0.25873 0.0
H994 H 0.59541 0.57204 0.26869 0.0
C995 C 0.59271 0.58877 0.13389 0.0
C996 C 0.61585 0.60217 0.13963 0.0
C997 C 0.57633 0.58322 0.16369 0.0
C998 C 0.57512 0.57634 0.26555 0.0
H999 H 0.45561 0.55717 0.35229 0.0
H1000 H 0.48326 0.55941 0.29757 0.0
H1001 H 0.56696 0.56581 0.32191 0.0
H1002 H 0.64019 0.61986 0.18107 0.0
H1003 H 0.61157 0.61023 0.23311 0.0
H1004 H 0.53076 0.59741 0.20236 0.0
C1005 C 0.49052 0.56655 0.32372 0.0
C1006 C 0.55884 0.57282 0.29601 0.0
C1007 C 0.47471 0.56517 0.35508 0.0
C1008 C 0.62239 0.60969 0.17579 0.0
C1009 C 0.60614 0.60395 0.2056 0.0
C1010 C 0.53881 0.5902 0.2282 0.0
C1011 C 0.51556 0.57664 0.3263 0.0
C1012 C 0.53244 0.57844 0.29313 0.0
C1013 C 0.58289 0.59074 0.19985 0.0
C1014 C 0.56534 0.58541 0.23147 0.0
H1015 H 0.51594 0.59115 0.41821 0.0
H1016 H 0.54333 0.5938 0.36364 0.0
H1017 H 0.50234 0.59151 0.25569 0.0
H1018 H 0.58708 0.58292 0.10627 0.0
H1019 H 0.55861 0.57291 0.15847 0.0
C1020 C 0.38817 0.53408 0.40853 0.0
C1021 C 0.40549 0.5134 0.40622 0.0
C1022 C 0.3836 0.54997 0.37774 0.0
C1023 C 0.38931 0.55317 0.27547 0.0
H1024 H 0.38572 0.62681 0.29116 0.0
C1025 C 0.38862 0.62723 0.15459 0.0
C1026 C 0.37171 0.64824 0.15757 0.0
C1027 C 0.39236 0.61036 0.18456 0.0
C1028 C 0.38638 0.60627 0.28637 0.0
H1029 H 0.43112 0.49276 0.36942 0.0
H1030 H 0.42302 0.52044 0.3156 0.0
H1031 H 0.39291 0.59794 0.3439 0.0
H1032 H 0.34548 0.66798 0.19441 0.0
H1033 H 0.35176 0.63833 0.24662 0.0
H1034 H 0.38293 0.56157 0.21786 0.0
C1035 C 0.41289 0.52431 0.34122 0.0
C1036 C 0.39049 0.58972 0.31659 0.0
C1037 C 0.41763 0.50853 0.37213 0.0
C1038 C 0.35849 0.65188 0.19114 0.0
C1039 C 0.3623 0.63505 0.22117 0.0
C1040 C 0.38525 0.56974 0.24521 0.0
C1041 C 0.39609 0.54544 0.34382 0.0
C1042 C 0.3919 0.56297 0.31153 0.0
C1043 C 0.37933 0.61414 0.21825 0.0
C1044 C 0.38367 0.59648 0.25034 0.0
H1045 H 0.37829 0.5382 0.43425 0.0
H1046 H 0.37017 0.56578 0.3805 0.0
H1047 H 0.38999 0.53264 0.27068 0.0
H1048 H 0.39888 0.62372 0.12896 0.0
H1049 H 0.40577 0.59456 0.18151 0.0
C1050 C 0.5093 0.43137 0.35207 0.0
C1051 C 0.49236 0.43944 0.38001 0.0
C1052 C 0.4998 0.42009 0.3198 0.0
C1053 C 0.43997 0.40758 0.26578 0.0
H1054 H 0.47667 0.34593 0.23696 0.0
C1055 C 0.39537 0.3292 0.17286 0.0
C1056 C 0.41117 0.31889 0.14506 0.0
C1057 C 0.40559 0.34584 0.19932 0.0
C1058 C 0.46637 0.36326 0.24434 0.0
H1059 H 0.45221 0.44334 0.39524 0.0
H1060 H 0.43565 0.42323 0.3394 0.0
H1061 H 0.49412 0.37291 0.28567 0.0
H1062 H 0.45009 0.31763 0.12348 0.0
H1063 H 0.46789 0.34676 0.16956 0.0
H1064 H 0.41185 0.39736 0.22494 0.0
C1065 C 0.45624 0.42588 0.34204 0.0
C1066 C 0.47642 0.37882 0.27217 0.0
C1067 C 0.46573 0.43736 0.37416 0.0
C1068 C 0.4374 0.32545 0.14437 0.0
C1069 C 0.44763 0.34196 0.17092 0.0
C1070 C 0.42984 0.3919 0.23804 0.0
C1071 C 0.47319 0.41644 0.31496 0.0
C1072 C 0.46328 0.40109 0.28343 0.0
C1073 C 0.43184 0.35235 0.19864 0.0
C1074 C 0.44286 0.36949 0.22722 0.0
H1075 H 0.52993 0.43312 0.35557 0.0
H1076 H 0.51337 0.41363 0.29907 0.0
H1077 H 0.42952 0.42475 0.27345 0.0
H1078 H 0.37504 0.32466 0.17387 0.0
H1079 H 0.39302 0.35334 0.22061 0.0
loop_
_geom_bond_atom_site_label_1
_geom_bond_atom_site_label_2
_geom_bond_distance
_geom_bond_site_symmetry_2
_ccdc_geom_bond_type
Zn0 O2 1.933 1_556 S
Zn0 O20 1.985 . S
Zn0 O31 1.955 . S
Zn1 O2 1.911 . S
Zn1 O21 1.970 . S
Zn1 O37 1.945 . S
Zn1 O44 1.981 . S
O2 Zn0 1.933 1_554 S
O2 Zn1 1.911 . S
O2 H3 0.841 1_655 S
H3 O2 0.841 1_455 S
C4 O5 1.246 . S
C4 O33 1.265 1_545 S
O5 C4 1.246 . S
Zn6 O8 1.911 . S
Zn6 O23 1.970 . S
Zn6 O40 1.945 . S
Zn6 O47 1.981 . S
Zn7 O8 1.933 1_556 S
Zn7 O22 1.985 . S
Zn7 O29 1.955 . S
O8 Zn6 1.911 . S
O8 Zn7 1.933 1_554 S
O8 H9 0.841 1_455 S
H9 O8 0.841 1_655 S
Zn10 O11 1.933 1_556 S
Zn10 O24 1.985 . S
Zn10 O33 1.959 . S
O11 Zn10 1.933 1_554 S
O11 Zn12 1.911 . S
O11 H13 0.841 1_565 S
Zn12 O11 1.911 . S
Zn12 O25 1.970 . S
Zn12 O41 1.981 . S
Zn12 O43 1.945 . S
H13 O11 0.841 1_545 S
Zn14 O15 1.933 1_556 S
Zn14 O27 1.985 . S
Zn14 O35 1.955 . S
O15 Zn14 1.933 1_554 S
O15 H16 0.841 1_545 S
O15 Zn17 1.911 . S
H16 O15 0.841 1_565 S
Zn17 O15 1.911 . S
Zn17 O28 1.970 . S
Zn17 O38 1.981 . S
Zn17 O46 1.945 . S
C18 O19 1.246 . S
C18 O35 1.276 1_565 S
O19 C18 1.246 . S
O20 Zn0 1.985 . S
O20 C30 1.245 1_556 S
O21 Zn1 1.970 . S
O21 C30 1.263 . S
O22 Zn7 1.985 . S
O22 C34 1.245 1_556 S
O23 Zn6 1.970 . S
O23 C34 1.263 . S
O24 Zn10 1.985 . S
O24 C39 1.245 1_556 S
O25 Zn12 1.970 . S
O25 C39 1.263 . S
C26 O37 1.262 1_455 S
C26 O38 1.245 . S
O27 Zn14 1.985 . S
O27 C45 1.245 1_556 S
O28 Zn17 1.970 . S
O28 C45 1.263 . S
O29 Zn7 1.955 . S
O29 C48 1.276 1_455 S
C30 O20 1.245 1_554 S
C30 O21 1.263 . S
O31 Zn0 1.955 . S
O31 C50 1.276 1_655 S
C32 O40 1.262 1_655 S
C32 O41 1.245 . S
O33 C4 1.265 1_565 S
O33 Zn10 1.959 . S
C34 O22 1.245 1_554 S
C34 O23 1.263 . S
O35 Zn14 1.955 . S
O35 C18 1.276 1_545 S
C36 O43 1.262 1_545 S
C36 O44 1.245 . S
O37 Zn1 1.945 . S
O37 C26 1.262 1_655 S
O38 Zn17 1.981 . S
O38 C26 1.245 . S
C39 O24 1.245 1_554 S
C39 O25 1.263 . S
O40 Zn6 1.945 . S
O40 C32 1.262 1_455 S
O41 Zn12 1.981 . S
O41 C32 1.245 . S
C42 O46 1.262 1_565 S
C42 O47 1.245 . S
O43 Zn12 1.945 . S
O43 C36 1.262 1_565 S
O44 Zn1 1.981 . S
O44 C36 1.245 . S
C45 O27 1.245 1_554 S
C45 O28 1.263 . S
O46 Zn17 1.945 . S
O46 C42 1.262 1_545 S
O47 Zn6 1.981 . S
O47 C42 1.245 . S
C48 O29 1.276 1_655 S
C48 O49 1.246 . S
O49 C48 1.246 . S
C50 O31 1.276 1_455 S
C50 O51 1.246 . S
O51 C50 1.246 . S
Zn52 O54 1.933 . S
Zn52 O72 1.985 . S
Zn52 O83 1.955 . S
Zn53 O54 1.911 . S
Zn53 O73 1.970 . S
Zn53 O89 1.945 . S
Zn53 O96 1.981 . S
O54 Zn52 1.933 . S
O54 Zn53 1.911 . S
O54 H55 0.841 . S
H55 O54 0.841 . S
C56 O57 1.246 . S
C56 O85 1.276 . S
O57 C56 1.246 . S
Zn58 O60 1.911 . S
Zn58 O75 1.970 . S
Zn58 O92 1.945 . S
Zn58 O99 1.981 . S
Zn59 O60 1.933 . S
Zn59 O74 1.985 . S
Zn59 O81 1.955 . S
O60 Zn58 1.911 . S
O60 Zn59 1.933 . S
O60 H61 0.841 . S
H61 O60 0.841 . S
Zn62 O63 1.933 . S
Zn62 O76 1.985 . S
Zn62 O85 1.955 . S
O63 Zn62 1.933 . S
O63 Zn64 1.911 . S
O63 H65 0.841 . S
Zn64 O63 1.911 . S
Zn64 O77 1.970 . S
Zn64 O93 1.981 . S
Zn64 O95 1.945 . S
H65 O63 0.841 . S
Zn66 O67 1.933 . S
Zn66 O79 1.985 . S
Zn66 O87 1.955 . S
O67 Zn66 1.933 . S
O67 H68 0.841 . S
O67 Zn69 1.911 . S
H68 O67 0.841 . S
Zn69 O67 1.911 . S
Zn69 O80 1.970 . S
Zn69 O90 1.981 . S
Zn69 O98 1.945 . S
C70 O71 1.246 . S
C70 O87 1.276 . S
O71 C70 1.246 . S
O72 Zn52 1.985 . S
O72 C82 1.245 . S
O73 Zn53 1.970 . S
O73 C82 1.263 . S
O74 Zn59 1.985 . S
O74 C86 1.245 . S
O75 Zn58 1.970 . S
O75 C86 1.263 . S
O76 Zn62 1.985 . S
O76 C91 1.245 . S
O77 Zn64 1.970 . S
O77 C91 1.263 . S
C78 O89 1.262 . S
C78 O90 1.245 . S
O79 Zn66 1.985 . S
O79 C97 1.245 . S
O80 Zn69 1.970 . S
O80 C97 1.263 . S
O81 Zn59 1.955 . S
O81 C100 1.276 . S
C82 O72 1.245 . S
C82 O73 1.263 . S
O83 Zn52 1.955 . S
O83 C102 1.276 . S
C84 O92 1.262 . S
C84 O93 1.245 . S
O85 C56 1.276 . S
O85 Zn62 1.955 . S
C86 O74 1.245 . S
C86 O75 1.263 . S
O87 Zn66 1.955 . S
O87 C70 1.276 . S
C88 O95 1.262 . S
C88 O96 1.245 . S
O89 Zn53 1.945 . S
O89 C78 1.262 . S
O90 Zn69 1.981 . S
O90 C78 1.245 . S
C91 O76 1.245 . S
C91 O77 1.263 . S
O92 Zn58 1.945 . S
O92 C84 1.262 . S
O93 Zn64 1.981 . S
O93 C84 1.245 . S
C94 O98 1.262 . S
C94 O99 1.245 . S
O95 Zn64 1.945 . S
O95 C88 1.262 . S
O96 Zn53 1.981 . S
O96 C88 1.245 . S
C97 O79 1.245 . S
C97 O80 1.263 . S
O98 Zn69 1.945 . S
O98 C94 1.262 . S
O99 Zn58 1.981 . S
O99 C94 1.245 . S
C100 O81 1.276 . S
C100 O101 1.246 . S
O101 C100 1.246 . S
C102 O83 1.276 . S
C102 O103 1.246 . S
O103 C102 1.246 . S
P104 O115 1.490 . S
P104 C118 1.812 . S
P104 C124 1.803 . S
P104 C130 1.819 1_554 S
H105 C119 0.941 . S
H106 C120 0.939 . S
H107 C122 0.940 . S
H108 C123 0.940 . S
H109 C125 0.951 . S
H110 C126 0.942 1_556 S
H111 C128 0.940 . S
H112 C129 0.939 . S
H113 C131 0.941 . S
H114 C135 0.939 . S
O115 P104 1.490 . S
H116 C132 0.939 . S
H117 C134 0.940 . S
C118 P104 1.812 . S
C118 C119 1.389 . S
C118 C123 1.391 . S
C119 H105 0.941 . S
C119 C118 1.389 . S
C119 C120 1.397 . S
C120 H106 0.939 . S
C120 C119 1.397 . S
C120 C121 1.378 . S
C121 C120 1.378 . S
C121 C122 1.378 . S
C122 H107 0.940 . S
C122 C121 1.378 . S
C122 C123 1.396 . S
C123 H108 0.940 . S
C123 C118 1.391 . S
C123 C122 1.396 . S
C124 P104 1.803 . S
C124 C125 1.378 . S
C124 C129 1.400 . S
C125 H109 0.951 . S
C125 C124 1.378 . S
C125 C126 1.361 . S
C126 H110 0.942 1_554 S
C126 C125 1.361 . S
C126 C127 1.369 . S
C127 C126 1.369 . S
C127 C128 1.404 . S
C128 H111 0.940 . S
C128 C127 1.404 . S
C128 C129 1.389 . S
C129 H112 0.939 . S
C129 C124 1.400 . S
C129 C128 1.389 . S
C130 P104 1.819 1_556 S
C130 C131 1.391 . S
C130 C135 1.391 . S
C131 H113 0.941 . S
C131 C130 1.391 . S
C131 C132 1.396 . S
C132 H116 0.939 . S
C132 C131 1.396 . S
C132 C133 1.397 . S
C133 C132 1.397 . S
C133 C134 1.385 . S
C134 H117 0.940 . S
C134 C133 1.385 . S
C134 C135 1.388 . S
C135 H114 0.939 . S
C135 C130 1.391 . S
C135 C134 1.388 . S
P136 O147 1.490 . S
P136 C150 1.812 . S
P136 C156 1.803 . S
P136 C162 1.819 1_554 S
H137 C151 0.941 . S
H138 C152 0.939 . S
H139 C154 0.940 . S
H140 C155 0.940 . S
H141 C157 0.939 1_556 S
H142 C158 0.942 1_556 S
H143 C160 0.940 . S
H144 C161 0.939 . S
H145 C163 0.941 . S
H146 C167 0.939 . S
O147 P136 1.490 . S
H148 C164 0.939 . S
H149 C166 0.940 . S
C150 P136 1.812 . S
C150 C151 1.389 . S
C150 C155 1.391 . S
C151 H137 0.941 . S
C151 C150 1.389 . S
C151 C152 1.397 . S
C152 H138 0.939 . S
C152 C151 1.397 . S
C152 C153 1.378 . S
C153 C152 1.378 . S
C153 C154 1.378 . S
C154 H139 0.940 . S
C154 C153 1.378 . S
C154 C155 1.396 . S
C155 H140 0.940 . S
C155 C150 1.391 . S
C155 C154 1.396 . S
C156 P136 1.803 . S
C156 C157 1.378 . S
C156 C161 1.400 . S
C157 H141 0.939 1_554 S
C157 C156 1.378 . S
C157 C158 1.361 . S
C158 H142 0.942 1_554 S
C158 C157 1.361 . S
C158 C159 1.369 . S
C159 C158 1.369 . S
C159 C160 1.404 . S
C160 H143 0.940 . S
C160 C159 1.404 . S
C160 C161 1.389 . S
C161 H144 0.939 . S
C161 C156 1.400 . S
C161 C160 1.389 . S
C162 P136 1.819 1_556 S
C162 C163 1.391 . S
C162 C167 1.391 . S
C163 H145 0.941 . S
C163 C162 1.391 . S
C163 C164 1.396 . S
C164 H148 0.939 . S
C164 C163 1.396 . S
C164 C165 1.397 . S
C165 C164 1.397 . S
C165 C166 1.385 . S
C166 H149 0.940 . S
C166 C165 1.385 . S
C166 C167 1.388 . S
C167 H146 0.939 . S
C167 C162 1.391 . S
C167 C166 1.388 . S
P168 O179 1.490 . S
P168 C182 1.812 1_554 S
P168 C188 1.803 . S
P168 C194 1.819 . S
H169 C183 0.941 . S
H170 C184 0.939 . S
H171 C186 0.940 . S
H172 C187 0.940 1_554 S
H173 C189 0.939 . S
H174 C190 0.942 . S
H175 C192 0.940 1_556 S
H176 C193 0.939 1_556 S
H177 C195 0.941 . S
H178 C199 0.939 . S
O179 P168 1.490 . S
H180 C196 0.939 . S
H181 C198 0.940 . S
C182 P168 1.812 1_556 S
C182 C183 1.389 . S
C182 C187 1.391 . S
C183 H169 0.941 . S
C183 C182 1.389 . S
C183 C184 1.397 . S
C184 H170 0.939 . S
C184 C183 1.397 . S
C184 C185 1.378 . S
C185 C184 1.378 . S
C185 C186 1.378 . S
C186 H171 0.940 . S
C186 C185 1.378 . S
C186 C187 1.396 . S
C187 H172 0.940 1_556 S
C187 C182 1.391 . S
C187 C186 1.396 . S
C188 P168 1.803 . S
C188 C189 1.378 . S
C188 C193 1.400 . S
C189 H173 0.939 . S
C189 C188 1.378 . S
C189 C190 1.361 . S
C190 H174 0.942 . S
C190 C189 1.361 . S
C190 C191 1.369 . S
C191 C190 1.369 . S
C191 C192 1.404 . S
C192 H175 0.940 1_554 S
C192 C191 1.404 . S
C192 C193 1.389 . S
C193 H176 0.939 1_554 S
C193 C188 1.400 . S
C193 C192 1.389 . S
C194 P168 1.819 . S
C194 C195 1.391 . S
C194 C199 1.391 . S
C195 H177 0.941 . S
C195 C194 1.391 . S
C195 C196 1.396 . S
C196 H180 0.939 . S
C196 C195 1.396 . S
C196 C197 1.397 . S
C197 C196 1.397 . S
C197 C198 1.385 . S
C198 H181 0.940 . S
C198 C197 1.385 . S
C198 C199 1.388 . S
C199 H178 0.939 . S
C199 C194 1.391 . S
C199 C198 1.388 . S
P200 O211 1.490 . S
P200 C214 1.812 1_554 S
P200 C220 1.803 . S
P200 C226 1.819 . S
H201 C215 0.941 . S
H202 C216 0.939 . S
H203 C218 0.940 . S
H204 C219 0.940 1_554 S
H205 C221 0.939 . S
H206 C222 0.942 . S
H207 C224 0.935 1_556 S
H208 C225 0.939 1_556 S
H209 C227 0.941 . S
H210 C231 0.939 . S
O211 P200 1.490 . S
H212 C228 0.939 . S
H213 C230 0.940 . S
C214 P200 1.812 1_556 S
C214 C215 1.389 . S
C214 C219 1.391 . S
C215 H201 0.941 . S
C215 C214 1.389 . S
C215 C216 1.397 . S
C216 H202 0.939 . S
C216 C215 1.397 . S
C216 C217 1.378 . S
C217 C216 1.378 . S
C217 C218 1.378 . S
C218 H203 0.940 . S
C218 C217 1.378 . S
C218 C219 1.396 . S
C219 H204 0.940 1_556 S
C219 C214 1.391 . S
C219 C218 1.396 . S
C220 P200 1.803 . S
C220 C221 1.378 . S
C220 C225 1.400 . S
C221 H205 0.939 . S
C221 C220 1.378 . S
C221 C222 1.361 . S
C222 H206 0.942 . S
C222 C221 1.361 . S
C222 C223 1.369 . S
C223 C222 1.369 . S
C223 C224 1.404 . S
C224 H207 0.935 1_554 S
C224 C223 1.404 . S
C224 C225 1.389 . S
C225 H208 0.939 1_554 S
C225 C220 1.400 . S
C225 C224 1.389 . S
C226 P200 1.819 . S
C226 C227 1.391 . S
C226 C231 1.391 . S
C227 H209 0.941 . S
C227 C226 1.391 . S
C227 C228 1.396 . S
C228 H212 0.939 . S
C228 C227 1.396 . S
C228 C229 1.397 . S
C229 C228 1.397 . S
C229 C230 1.385 . S
C230 H213 0.940 . S
C230 C229 1.385 . S
C230 C231 1.388 . S
C231 H210 0.939 . S
C231 C226 1.391 . S
C231 C230 1.388 . S
P232 O243 1.490 . S
P232 C246 1.812 . S
P232 C252 1.803 . S
P232 C258 1.819 . S
H233 C247 0.941 . S
H234 C248 0.939 . S
H235 C250 0.940 . S
H236 C251 0.940 . S
H237 C253 0.939 . S
H238 C254 0.942 . S
H239 C256 0.940 . S
H240 C257 0.939 . S
H241 C259 0.941 . S
H242 C263 0.939 . S
O243 P232 1.490 . S
H244 C260 0.939 . S
H245 C262 0.940 . S
C246 P232 1.812 . S
C246 C247 1.389 . S
C246 C251 1.391 . S
C247 H233 0.941 . S
C247 C246 1.389 . S
C247 C248 1.397 . S
C248 H234 0.939 . S
C248 C247 1.397 . S
C248 C249 1.378 . S
C249 C248 1.378 . S
C249 C250 1.378 . S
C250 H235 0.940 . S
C250 C249 1.378 . S
C250 C251 1.396 . S
C251 H236 0.940 . S
C251 C246 1.391 . S
C251 C250 1.396 . S
C252 P232 1.803 . S
C252 C253 1.378 . S
C252 C257 1.400 . S
C253 H237 0.939 . S
C253 C252 1.378 . S
C253 C254 1.361 . S
C254 H238 0.942 . S
C254 C253 1.361 . S
C254 C255 1.369 . S
C255 C254 1.369 . S
C255 C256 1.404 . S
C256 H239 0.940 . S
C256 C255 1.404 . S
C256 C257 1.389 . S
C257 H240 0.939 . S
C257 C252 1.400 . S
C257 C256 1.389 . S
C258 P232 1.819 . S
C258 C259 1.391 . S
C258 C263 1.391 . S
C259 H241 0.941 . S
C259 C258 1.391 . S
C259 C260 1.396 . S
C260 H244 0.939 . S
C260 C259 1.396 . S
C260 C261 1.397 . S
C261 C260 1.397 . S
C261 C262 1.385 . S
C262 H245 0.940 . S
C262 C261 1.385 . S
C262 C263 1.388 . S
C263 H242 0.939 . S
C263 C258 1.391 . S
C263 C262 1.388 . S
P264 O275 1.490 . S
P264 C278 1.812 . S
P264 C284 1.803 . S
P264 C290 1.819 . S
H265 C279 0.941 . S
H266 C280 0.939 . S
H267 C282 0.940 . S
H268 C283 0.940 . S
H269 C285 0.939 . S
H270 C286 0.942 . S
H271 C288 0.940 . S
H272 C289 0.939 . S
H273 C291 0.941 . S
H274 C295 0.939 . S
O275 P264 1.490 . S
H276 C292 0.939 . S
H277 C294 0.940 . S
C278 P264 1.812 . S
C278 C279 1.389 . S
C278 C283 1.391 . S
C279 H265 0.941 . S
C279 C278 1.389 . S
C279 C280 1.397 . S
C280 H266 0.939 . S
C280 C279 1.397 . S
C280 C281 1.378 . S
C281 C280 1.378 . S
C281 C282 1.378 . S
C282 H267 0.940 . S
C282 C281 1.378 . S
C282 C283 1.396 . S
C283 H268 0.940 . S
C283 C278 1.391 . S
C283 C282 1.396 . S
C284 P264 1.803 . S
C284 C285 1.378 . S
C284 C289 1.400 . S
C285 H269 0.939 . S
C285 C284 1.378 . S
C285 C286 1.361 . S
C286 H270 0.942 . S
C286 C285 1.361 . S
C286 C287 1.369 . S
C287 C286 1.369 . S
C287 C288 1.404 . S
C288 H271 0.940 . S
C288 C287 1.404 . S
C288 C289 1.389 . S
C289 H272 0.939 . S
C289 C284 1.400 . S
C289 C288 1.389 . S
C290 P264 1.819 . S
C290 C291 1.391 . S
C290 C295 1.391 . S
C291 H273 0.941 . S
C291 C290 1.391 . S
C291 C292 1.396 . S
C292 H276 0.939 . S
C292 C291 1.396 . S
C292 C293 1.397 . S
C293 C292 1.397 . S
C293 C294 1.385 . S
C294 H277 0.940 . S
C294 C293 1.385 . S
C294 C295 1.388 . S
C295 H274 0.939 . S
C295 C290 1.391 . S
C295 C294 1.388 . S
P296 O307 1.490 . S
P296 C310 1.812 . S
P296 C316 1.803 . S
P296 C322 1.819 . S
H297 C311 0.941 . S
H298 C312 0.939 . S
H299 C314 0.940 . S
H300 C315 0.940 . S
H301 C317 0.939 . S
H302 C318 0.942 . S
H303 C320 0.940 . S
H304 C321 0.939 . S
H305 C323 0.941 . S
H306 C327 0.939 . S
O307 P296 1.490 . S
H308 C324 0.939 . S
H309 C326 0.940 . S
C310 P296 1.812 . S
C310 C311 1.389 . S
C310 C315 1.391 . S
C311 H297 0.941 . S
C311 C310 1.389 . S
C311 C312 1.397 . S
C312 H298 0.939 . S
C312 C311 1.397 . S
C312 C313 1.378 . S
C313 C312 1.378 . S
C313 C314 1.378 . S
C314 H299 0.940 . S
C314 C313 1.378 . S
C314 C315 1.396 . S
C315 H300 0.940 . S
C315 C310 1.391 . S
C315 C314 1.396 . S
C316 P296 1.803 . S
C316 C317 1.378 . S
C316 C321 1.400 . S
C317 H301 0.939 . S
C317 C316 1.378 . S
C317 C318 1.361 . S
C318 H302 0.942 . S
C318 C317 1.361 . S
C318 C319 1.369 . S
C319 C318 1.369 . S
C319 C320 1.404 . S
C320 H303 0.940 . S
C320 C319 1.404 . S
C320 C321 1.389 . S
C321 H304 0.939 . S
C321 C316 1.400 . S
C321 C320 1.389 . S
C322 P296 1.819 . S
C322 C323 1.391 . S
C322 C327 1.391 . S
C323 H305 0.941 . S
C323 C322 1.391 . S
C323 C324 1.396 . S
C324 H308 0.939 . S
C324 C323 1.396 . S
C324 C325 1.397 . S
C325 C324 1.397 . S
C325 C326 1.385 . S
C326 H309 0.940 . S
C326 C325 1.385 . S
C326 C327 1.388 . S
C327 H306 0.939 . S
C327 C322 1.391 . S
C327 C326 1.388 . S
P328 O339 1.490 . S
P328 C342 1.812 . S
P328 C348 1.803 . S
P328 C354 1.819 . S
H329 C343 0.941 . S
H330 C344 0.939 . S
H331 C346 0.940 . S
H332 C347 0.940 . S
H333 C349 0.939 . S
H334 C350 0.942 . S
H335 C352 0.940 . S
H336 C353 0.939 . S
H337 C355 0.941 . S
H338 C359 0.939 . S
O339 P328 1.490 . S
H340 C356 0.939 . S
H341 C358 0.940 . S
C342 P328 1.812 . S
C342 C343 1.389 . S
C342 C347 1.391 . S
C343 H329 0.941 . S
C343 C342 1.389 . S
C343 C344 1.397 . S
C344 H330 0.939 . S
C344 C343 1.397 . S
C344 C345 1.378 . S
C345 C344 1.378 . S
C345 C346 1.378 . S
C346 H331 0.940 . S
C346 C345 1.378 . S
C346 C347 1.396 . S
C347 H332 0.940 . S
C347 C342 1.391 . S
C347 C346 1.396 . S
C348 P328 1.803 . S
C348 C349 1.378 . S
C348 C353 1.400 . S
C349 H333 0.939 . S
C349 C348 1.378 . S
C349 C350 1.361 . S
C350 H334 0.942 . S
C350 C349 1.361 . S
C350 C351 1.369 . S
C351 C350 1.369 . S
C351 C352 1.404 . S
C352 H335 0.940 . S
C352 C351 1.404 . S
C352 C353 1.389 . S
C353 H336 0.939 . S
C353 C348 1.400 . S
C353 C352 1.389 . S
C354 P328 1.819 . S
C354 C355 1.391 . S
C354 C359 1.391 . S
C355 H337 0.941 . S
C355 C354 1.391 . S
C355 C356 1.396 . S
C356 H340 0.939 . S
C356 C355 1.396 . S
C356 C357 1.397 . S
C357 C356 1.397 . S
C357 C358 1.385 . S
C358 H341 0.940 . S
C358 C357 1.385 . S
C358 C359 1.388 . S
C359 H338 0.939 . S
C359 C354 1.391 . S
C359 C358 1.388 . S
C360 C361 1.349 1_556 S
C360 C362 1.327 . S
C360 H385 0.950 . S
C361 C360 1.349 1_554 S
C361 C377 1.349 . S
C362 C360 1.327 . S
C362 C381 1.429 1_556 S
C362 H386 0.950 . S
C363 C380 1.574 . S
C363 C382 1.368 . S
C363 H387 0.949 . S
H364 C368 0.949 . S
C365 C366 1.349 . S
C365 C367 1.327 . S
C365 H388 0.950 . S
C366 C365 1.349 . S
C366 C378 1.349 1_554 S
C367 C365 1.327 . S
C367 C383 1.429 . S
C367 H389 0.950 . S
C368 H364 0.949 . S
C368 C376 1.574 . S
C368 C384 1.368 1_556 S
H369 C377 0.950 . S
H370 C375 0.950 . S
H371 C376 0.949 . S
H372 C378 0.950 . S
H373 C379 0.950 . S
H374 C380 0.949 . S
C375 H370 0.950 . S
C375 C377 1.327 . S
C375 C381 1.429 . S
C376 C368 1.574 . S
C376 H371 0.949 . S
C376 C382 1.368 1_556 S
C377 C361 1.349 . S
C377 H369 0.950 . S
C377 C375 1.327 . S
C378 C366 1.349 1_556 S
C378 H372 0.950 . S
C378 C379 1.327 . S
C379 H373 0.950 . S
C379 C378 1.327 . S
C379 C383 1.429 1_556 S
C380 C363 1.574 . S
C380 H374 0.949 . S
C380 C384 1.368 . S
C381 C362 1.429 1_554 S
C381 C375 1.429 . S
C381 C382 1.523 . S
C382 C363 1.368 . S
C382 C376 1.368 1_554 S
C382 C381 1.523 . S
C383 C367 1.429 . S
C383 C379 1.429 1_554 S
C383 C384 1.523 . S
C384 C368 1.368 1_554 S
C384 C380 1.368 . S
C384 C383 1.523 . S
H385 C360 0.950 . S
H386 C362 0.950 . S
H387 C363 0.949 . S
H388 C365 0.950 . S
H389 C367 0.950 . S
C390 C391 1.349 1_556 S
C390 C392 1.327 . S
C390 H415 0.950 . S
C391 C390 1.349 1_554 S
C391 C407 1.349 . S
C392 C390 1.327 . S
C392 C411 1.429 1_556 S
C392 H416 0.950 . S
C393 C410 1.574 . S
C393 C412 1.368 . S
C393 H417 0.949 . S
H394 C398 0.949 . S
C395 C396 1.349 . S
C395 C397 1.327 . S
C395 H418 0.950 . S
C396 C395 1.349 . S
C396 C408 1.349 1_554 S
C397 C395 1.327 . S
C397 C413 1.429 . S
C397 H419 0.950 . S
C398 H394 0.949 . S
C398 C406 1.574 . S
C398 C414 1.368 1_556 S
H399 C407 0.950 . S
H400 C405 0.950 . S
H401 C406 0.949 . S
H402 C408 0.950 . S
H403 C409 0.950 . S
H404 C410 0.949 . S
C405 H400 0.950 . S
C405 C407 1.327 . S
C405 C411 1.429 . S
C406 C398 1.574 . S
C406 H401 0.949 . S
C406 C412 1.368 1_556 S
C407 C391 1.349 . S
C407 H399 0.950 . S
C407 C405 1.327 . S
C408 C396 1.349 1_556 S
C408 H402 0.950 . S
C408 C409 1.327 . S
C409 H403 0.950 . S
C409 C408 1.327 . S
C409 C413 1.429 1_556 S
C410 C393 1.574 . S
C410 H404 0.949 . S
C410 C414 1.368 . S
C411 C392 1.429 1_554 S
C411 C405 1.429 . S
C411 C412 1.523 . S
C412 C393 1.368 . S
C412 C406 1.368 1_554 S
C412 C411 1.523 . S
C413 C397 1.429 . S
C413 C409 1.429 1_554 S
C413 C414 1.523 . S
C414 C398 1.368 1_554 S
C414 C410 1.368 . S
C414 C413 1.523 . S
H415 C390 0.950 . S
H416 C392 0.950 . S
H417 C393 0.949 . S
H418 C395 0.950 . S
H419 C397 0.950 . S
C420 C421 1.349 1_556 S
C420 C422 1.327 . S
C420 H445 0.950 . S
C421 C420 1.349 1_554 S
C421 C437 1.349 . S
C422 C420 1.327 . S
C422 C441 1.429 1_556 S
C422 H446 0.950 . S
C423 C440 1.574 . S
C423 C442 1.368 . S
C423 H447 0.949 . S
H424 C428 0.949 . S
C425 C426 1.349 . S
C425 C427 1.327 . S
C425 H448 0.950 . S
C426 C425 1.349 . S
C426 C438 1.349 1_554 S
C427 C425 1.327 . S
C427 C443 1.429 . S
C427 H449 0.950 . S
C428 H424 0.949 . S
C428 C436 1.574 . S
C428 C444 1.368 1_556 S
H429 C437 0.950 . S
H430 C435 0.950 . S
H431 C436 0.949 . S
H432 C438 0.950 . S
H433 C439 0.950 . S
H434 C440 0.949 . S
C435 H430 0.950 . S
C435 C437 1.327 . S
C435 C441 1.429 . S
C436 C428 1.574 . S
C436 H431 0.949 . S
C436 C442 1.368 1_556 S
C437 C421 1.349 . S
C437 H429 0.950 . S
C437 C435 1.327 . S
C438 C426 1.349 1_556 S
C438 H432 0.950 . S
C438 C439 1.327 . S
C439 H433 0.950 . S
C439 C438 1.327 . S
C439 C443 1.429 1_556 S
C440 C423 1.574 . S
C440 H434 0.949 . S
C440 C444 1.368 . S
C441 C422 1.429 1_554 S
C441 C435 1.429 . S
C441 C442 1.523 . S
C442 C423 1.368 . S
C442 C436 1.368 1_554 S
C442 C441 1.523 . S
C443 C427 1.429 . S
C443 C439 1.429 1_554 S
C443 C444 1.523 . S
C444 C428 1.368 1_554 S
C444 C440 1.368 . S
C444 C443 1.523 . S
H445 C420 0.950 . S
H446 C422 0.950 . S
H447 C423 0.949 . S
H448 C425 0.950 . S
H449 C427 0.950 . S
C450 C451 1.349 . S
C450 C452 1.327 . S
C450 H475 0.950 . S
C451 C450 1.349 . S
C451 C467 1.349 1_554 S
C452 C450 1.327 . S
C452 C471 1.429 . S
C452 H476 0.950 . S
C453 C470 1.574 . S
C453 C472 1.368 1_556 S
C453 H477 0.949 . S
H454 C458 0.949 . S
C455 C456 1.349 1_556 S
C455 C457 1.327 . S
C455 H478 0.950 . S
C456 C455 1.349 1_554 S
C456 C468 1.349 . S
C457 C455 1.327 . S
C457 C473 1.429 1_556 S
C457 H479 0.950 . S
C458 H454 0.949 . S
C458 C466 1.574 . S
C458 C474 1.368 . S
H459 C467 0.950 . S
H460 C465 0.950 . S
H461 C466 0.949 . S
H462 C468 0.950 . S
H463 C469 0.950 . S
H464 C470 0.949 . S
C465 H460 0.950 . S
C465 C467 1.327 . S
C465 C471 1.429 1_556 S
C466 C458 1.574 . S
C466 H461 0.949 . S
C466 C472 1.368 . S
C467 C451 1.349 1_556 S
C467 H459 0.950 . S
C467 C465 1.327 . S
C468 C456 1.349 . S
C468 H462 0.950 . S
C468 C469 1.327 . S
C469 H463 0.950 . S
C469 C468 1.327 . S
C469 C473 1.429 . S
C470 C453 1.574 . S
C470 H464 0.949 . S
C470 C474 1.368 1_556 S
C471 C452 1.429 . S
C471 C465 1.429 1_554 S
C471 C472 1.523 . S
C472 C453 1.368 1_554 S
C472 C466 1.368 . S
C472 C471 1.523 . S
C473 C457 1.429 1_554 S
C473 C469 1.429 . S
C473 C474 1.523 . S
C474 C458 1.368 . S
C474 C470 1.368 1_554 S
C474 C473 1.523 . S
H475 C450 0.950 . S
H476 C452 0.950 . S
H477 C453 0.949 . S
H478 C455 0.950 . S
H479 C457 0.950 . S
C480 C481 1.349 . S
C480 C482 1.327 . S
C480 H505 0.950 . S
C481 C480 1.349 . S
C481 C497 1.349 . S
C482 C480 1.327 . S
C482 C501 1.429 . S
C482 H506 0.950 . S
C483 C500 1.574 . S
C483 C502 1.368 . S
C483 H507 0.949 . S
H484 C488 0.949 . S
C485 C486 1.349 . S
C485 C487 1.327 . S
C485 H508 0.950 . S
C486 C485 1.349 . S
C486 C498 1.349 . S
C487 C485 1.327 . S
C487 C503 1.429 . S
C487 H509 0.950 . S
C488 H484 0.949 . S
C488 C496 1.574 . S
C488 C504 1.368 . S
H489 C497 0.950 . S
H490 C495 0.950 . S
H491 C496 0.949 . S
H492 C498 0.950 . S
H493 C499 0.950 . S
H494 C500 0.949 . S
C495 H490 0.950 . S
C495 C497 1.327 . S
C495 C501 1.429 . S
C496 C488 1.574 . S
C496 H491 0.949 . S
C496 C502 1.368 . S
C497 C481 1.349 . S
C497 H489 0.950 . S
C497 C495 1.327 . S
C498 C486 1.349 . S
C498 H492 0.950 . S
C498 C499 1.327 . S
C499 H493 0.950 . S
C499 C498 1.327 . S
C499 C503 1.429 . S
C500 C483 1.574 . S
C500 H494 0.949 . S
C500 C504 1.368 . S
C501 C482 1.429 . S
C501 C495 1.429 . S
C501 C502 1.523 . S
C502 C483 1.368 . S
C502 C496 1.368 . S
C502 C501 1.523 . S
C503 C487 1.429 . S
C503 C499 1.429 . S
C503 C504 1.523 . S
C504 C488 1.368 . S
C504 C500 1.368 . S
C504 C503 1.523 . S
H505 C480 0.950 . S
H506 C482 0.950 . S
H507 C483 0.949 . S
H508 C485 0.950 . S
H509 C487 0.950 . S
C510 C511 1.349 . S
C510 C512 1.327 . S
C510 H535 0.950 . S
C511 C510 1.349 . S
C511 C527 1.349 . S
C512 C510 1.327 . S
C512 C531 1.429 . S
C512 H536 0.950 . S
C513 C530 1.574 . S
C513 C532 1.368 . S
C513 H537 0.949 . S
H514 C518 0.949 . S
C515 C516 1.349 . S
C515 C517 1.327 . S
C515 H538 0.950 . S
C516 C515 1.349 . S
C516 C528 1.349 . S
C517 C515 1.327 . S
C517 C533 1.429 . S
C517 H539 0.950 . S
C518 H514 0.949 . S
C518 C526 1.574 . S
C518 C534 1.368 . S
H519 C527 0.950 . S
H520 C525 0.950 . S
H521 C526 0.949 . S
H522 C528 0.950 . S
H523 C529 0.950 . S
H524 C530 0.949 . S
C525 H520 0.950 . S
C525 C527 1.327 . S
C525 C531 1.429 . S
C526 C518 1.574 . S
C526 H521 0.949 . S
C526 C532 1.368 . S
C527 C511 1.349 . S
C527 H519 0.950 . S
C527 C525 1.327 . S
C528 C516 1.349 . S
C528 H522 0.950 . S
C528 C529 1.327 . S
C529 H523 0.950 . S
C529 C528 1.327 . S
C529 C533 1.429 . S
C530 C513 1.574 . S
C530 H524 0.949 . S
C530 C534 1.368 . S
C531 C512 1.429 . S
C531 C525 1.429 . S
C531 C532 1.523 . S
C532 C513 1.368 . S
C532 C526 1.368 . S
C532 C531 1.523 . S
C533 C517 1.429 . S
C533 C529 1.429 . S
C533 C534 1.523 . S
C534 C518 1.368 . S
C534 C530 1.368 . S
C534 C533 1.523 . S
H535 C510 0.950 . S
H536 C512 0.950 . S
H537 C513 0.949 . S
H538 C515 0.950 . S
H539 C517 0.950 . S
C540 C541 1.349 . S
C540 C542 1.327 . S
C540 H565 0.950 . S
C541 C540 1.349 . S
C541 C557 1.349 . S
C542 C540 1.327 . S
C542 C561 1.429 . S
C542 H566 0.950 . S
C543 C560 1.574 . S
C543 C562 1.368 . S
C543 H567 0.949 . S
H544 C548 0.949 . S
C545 C546 1.349 . S
C545 C547 1.327 . S
C545 H568 0.950 . S
C546 C545 1.349 . S
C546 C558 1.349 . S
C547 C545 1.327 . S
C547 C563 1.429 . S
C547 H569 0.950 . S
C548 H544 0.949 . S
C548 C556 1.574 . S
C548 C564 1.368 . S
H549 C557 0.950 . S
H550 C555 0.950 . S
H551 C556 0.949 . S
H552 C558 0.950 . S
H553 C559 0.950 . S
H554 C560 0.949 . S
C555 H550 0.950 . S
C555 C557 1.327 . S
C555 C561 1.429 . S
C556 C548 1.574 . S
C556 H551 0.949 . S
C556 C562 1.368 . S
C557 C541 1.349 . S
C557 H549 0.950 . S
C557 C555 1.327 . S
C558 C546 1.349 . S
C558 H552 0.950 . S
C558 C559 1.327 . S
C559 H553 0.950 . S
C559 C558 1.327 . S
C559 C563 1.429 . S
C560 C543 1.574 . S
C560 H554 0.949 . S
C560 C564 1.368 . S
C561 C542 1.429 . S
C561 C555 1.429 . S
C561 C562 1.523 . S
C562 C543 1.368 . S
C562 C556 1.368 . S
C562 C561 1.523 . S
C563 C547 1.429 . S
C563 C559 1.429 . S
C563 C564 1.523 . S
C564 C548 1.368 . S
C564 C560 1.368 . S
C564 C563 1.523 . S
H565 C540 0.950 . S
H566 C542 0.950 . S
H567 C543 0.949 . S
H568 C545 0.950 . S
H569 C547 0.950 . S
C570 C571 1.349 . S
C570 C572 1.327 . S
C570 H595 0.950 . S
C571 C570 1.349 . S
C571 C587 1.349 . S
C572 C570 1.327 . S
C572 C591 1.429 . S
C572 H596 0.950 . S
C573 C590 1.574 . S
C573 C592 1.368 . S
C573 H597 0.949 . S
H574 C578 0.949 . S
C575 C576 1.349 . S
C575 C577 1.327 . S
C575 H598 0.950 . S
C576 C575 1.349 . S
C576 C588 1.349 . S
C577 C575 1.327 . S
C577 C593 1.429 . S
C577 H599 0.950 . S
C578 H574 0.949 . S
C578 C586 1.574 . S
C578 C594 1.368 . S
H579 C587 0.950 . S
H580 C585 0.950 . S
H581 C586 0.949 . S
H582 C588 0.950 . S
H583 C589 0.950 . S
H584 C590 0.949 . S
C585 H580 0.950 . S
C585 C587 1.327 . S
C585 C591 1.429 . S
C586 C578 1.574 . S
C586 H581 0.949 . S
C586 C592 1.368 . S
C587 C571 1.349 . S
C587 H579 0.950 . S
C587 C585 1.327 . S
C588 C576 1.349 . S
C588 H582 0.950 . S
C588 C589 1.327 . S
C589 H583 0.950 . S
C589 C588 1.327 . S
C589 C593 1.429 . S
C590 C573 1.574 . S
C590 H584 0.949 . S
C590 C594 1.368 . S
C591 C572 1.429 . S
C591 C585 1.429 . S
C591 C592 1.523 . S
C592 C573 1.368 . S
C592 C586 1.368 . S
C592 C591 1.523 . S
C593 C577 1.429 . S
C593 C589 1.429 . S
C593 C594 1.523 . S
C594 C578 1.368 . S
C594 C590 1.368 . S
C594 C593 1.523 . S
H595 C570 0.950 . S
H596 C572 0.950 . S
H597 C573 0.949 . S
H598 C575 0.950 . S
H599 C577 0.950 . S
C600 C601 1.349 . S
C600 C602 1.327 . S
C600 H625 0.950 . S
C601 C600 1.349 . S
C601 C617 1.349 . S
C602 C600 1.327 . S
C602 C621 1.429 . S
C602 H626 0.950 . S
C603 C620 1.574 . S
C603 C622 1.368 . S
C603 H627 0.949 . S
H604 C608 0.949 . S
C605 C606 1.349 . S
C605 C607 1.327 . S
C605 H628 0.950 . S
C606 C605 1.349 . S
C606 C618 1.349 . S
C607 C605 1.327 . S
C607 C623 1.429 . S
C607 H629 0.950 . S
C608 H604 0.949 . S
C608 C616 1.574 . S
C608 C624 1.368 . S
H609 C617 0.950 . S
H610 C615 0.950 . S
H611 C616 0.949 . S
H612 C618 0.950 . S
H613 C619 0.950 . S
H614 C620 0.949 . S
C615 H610 0.950 . S
C615 C617 1.327 . S
C615 C621 1.429 . S
C616 C608 1.574 . S
C616 H611 0.949 . S
C616 C622 1.368 . S
C617 C601 1.349 . S
C617 H609 0.950 . S
C617 C615 1.327 . S
C618 C606 1.349 . S
C618 H612 0.950 . S
C618 C619 1.327 . S
C619 H613 0.950 . S
C619 C618 1.327 . S
C619 C623 1.429 . S
C620 C603 1.574 . S
C620 H614 0.949 . S
C620 C624 1.368 . S
C621 C602 1.429 . S
C621 C615 1.429 . S
C621 C622 1.523 . S
C622 C603 1.368 . S
C622 C616 1.368 . S
C622 C621 1.523 . S
C623 C607 1.429 . S
C623 C619 1.429 . S
C623 C624 1.523 . S
C624 C608 1.368 . S
C624 C620 1.368 . S
C624 C623 1.523 . S
H625 C600 0.950 . S
H626 C602 0.950 . S
H627 C603 0.949 . S
H628 C605 0.950 . S
H629 C607 0.950 . S
C630 C631 1.349 . S
C630 C632 1.327 . S
C630 H655 0.950 1_545 S
C631 C630 1.349 . S
C631 C647 1.349 . S
C632 C630 1.327 . S
C632 C651 1.429 . S
C632 H656 0.950 . S
C633 C650 1.574 . S
C633 C652 1.368 . S
C633 H657 0.949 . S
H634 C638 0.949 . S
C635 C636 1.349 . S
C635 C637 1.327 . S
C635 H658 0.950 . S
C636 C635 1.349 . S
C636 C648 1.349 . S
C637 C635 1.327 . S
C637 C653 1.429 . S
C637 H659 0.950 . S
C638 H634 0.949 . S
C638 C646 1.574 . S
C638 C654 1.368 . S
H639 C647 0.950 . S
H640 C645 0.950 . S
H641 C646 0.949 . S
H642 C648 0.950 . S
H643 C649 0.950 . S
H644 C650 0.949 . S
C645 H640 0.950 . S
C645 C647 1.327 . S
C645 C651 1.429 . S
C646 C638 1.574 . S
C646 H641 0.949 . S
C646 C652 1.368 . S
C647 C631 1.349 . S
C647 H639 0.950 . S
C647 C645 1.327 . S
C648 C636 1.349 . S
C648 H642 0.950 . S
C648 C649 1.327 . S
C649 H643 0.950 . S
C649 C648 1.327 . S
C649 C653 1.429 . S
C650 C633 1.574 . S
C650 H644 0.949 . S
C650 C654 1.368 . S
C651 C632 1.429 . S
C651 C645 1.429 . S
C651 C652 1.523 . S
C652 C633 1.368 . S
C652 C646 1.368 . S
C652 C651 1.523 . S
C653 C637 1.429 . S
C653 C649 1.429 . S
C653 C654 1.523 . S
C654 C638 1.368 . S
C654 C650 1.368 . S
C654 C653 1.523 . S
H655 C630 0.950 1_565 S
H656 C632 0.950 . S
H657 C633 0.949 . S
H658 C635 0.950 . S
H659 C637 0.950 . S
C660 C661 1.349 . S
C660 C662 1.327 . S
C660 H685 0.950 . S
C661 C660 1.349 . S
C661 C677 1.349 . S
C662 C660 1.327 . S
C662 C681 1.429 . S
C662 H686 0.950 . S
C663 C680 1.574 . S
C663 C682 1.368 . S
C663 H687 0.949 . S
H664 C668 0.949 . S
C665 C666 1.349 . S
C665 C667 1.327 . S
C665 H688 0.950 . S
C666 C665 1.349 . S
C666 C678 1.349 . S
C667 C665 1.327 . S
C667 C683 1.429 . S
C667 H689 0.950 . S
C668 H664 0.949 . S
C668 C676 1.574 . S
C668 C684 1.368 . S
H669 C677 0.950 . S
H670 C675 0.950 . S
H671 C676 0.949 . S
H672 C678 0.950 . S
H673 C679 0.950 . S
H674 C680 0.949 . S
C675 H670 0.950 . S
C675 C677 1.327 . S
C675 C681 1.429 . S
C676 C668 1.574 . S
C676 H671 0.949 . S
C676 C682 1.368 . S
C677 C661 1.349 . S
C677 H669 0.950 . S
C677 C675 1.327 . S
C678 C666 1.349 . S
C678 H672 0.950 . S
C678 C679 1.327 . S
C679 H673 0.950 . S
C679 C678 1.327 . S
C679 C683 1.429 . S
C680 C663 1.574 . S
C680 H674 0.949 . S
C680 C684 1.368 . S
C681 C662 1.429 . S
C681 C675 1.429 . S
C681 C682 1.523 . S
C682 C663 1.368 . S
C682 C676 1.368 . S
C682 C681 1.523 . S
C683 C667 1.429 . S
C683 C679 1.429 . S
C683 C684 1.523 . S
C684 C668 1.368 . S
C684 C680 1.368 . S
C684 C683 1.523 . S
H685 C660 0.950 . S
H686 C662 0.950 . S
H687 C663 0.949 . S
H688 C665 0.950 . S
H689 C667 0.950 . S
C690 C691 1.349 . S
C690 C692 1.327 . S
C690 H715 0.950 1_565 S
C691 C690 1.349 . S
C691 C707 1.349 . S
C692 C690 1.327 . S
C692 C711 1.429 . S
C692 H716 0.950 . S
C693 C710 1.574 . S
C693 C712 1.368 . S
C693 H717 0.949 . S
H694 C698 0.949 . S
C695 C696 1.349 . S
C695 C697 1.327 . S
C695 H718 0.950 . S
C696 C695 1.349 . S
C696 C708 1.349 . S
C697 C695 1.327 . S
C697 C713 1.429 . S
C697 H719 0.950 . S
C698 H694 0.949 . S
C698 C706 1.574 . S
C698 C714 1.368 . S
H699 C707 0.950 . S
H700 C705 0.950 . S
H701 C706 0.949 . S
H702 C708 0.950 . S
H703 C709 0.950 . S
H704 C710 0.949 . S
C705 H700 0.950 . S
C705 C707 1.327 . S
C705 C711 1.429 . S
C706 C698 1.574 . S
C706 H701 0.949 . S
C706 C712 1.368 . S
C707 C691 1.349 . S
C707 H699 0.950 . S
C707 C705 1.327 . S
C708 C696 1.349 . S
C708 H702 0.950 . S
C708 C709 1.327 . S
C709 H703 0.950 . S
C709 C708 1.327 . S
C709 C713 1.429 . S
C710 C693 1.574 . S
C710 H704 0.949 . S
C710 C714 1.368 . S
C711 C692 1.429 . S
C711 C705 1.429 . S
C711 C712 1.523 . S
C712 C693 1.368 . S
C712 C706 1.368 . S
C712 C711 1.523 . S
C713 C697 1.429 . S
C713 C709 1.429 . S
C713 C714 1.523 . S
C714 C698 1.368 . S
C714 C710 1.368 . S
C714 C713 1.523 . S
H715 C690 0.950 1_545 S
H716 C692 0.950 . S
H717 C693 0.949 . S
H718 C695 0.950 . S
H719 C697 0.950 . S
C720 C721 1.349 . S
C720 C722 1.327 . S
C720 H745 0.950 . S
C721 C720 1.349 . S
C721 C737 1.349 . S
C722 C720 1.327 . S
C722 C741 1.429 . S
C722 H746 0.950 . S
C723 C740 1.574 . S
C723 C742 1.368 . S
C723 H747 0.949 . S
H724 C728 0.949 . S
C725 C726 1.349 . S
C725 C727 1.327 . S
C725 H748 0.950 . S
C726 C725 1.349 . S
C726 C738 1.349 . S
C727 C725 1.327 . S
C727 C743 1.429 . S
C727 H749 0.950 . S
C728 H724 0.949 . S
C728 C736 1.574 . S
C728 C744 1.368 . S
H729 C737 0.950 1_545 S
H730 C735 0.950 . S
H731 C736 0.949 . S
H732 C738 0.950 . S
H733 C739 0.950 . S
H734 C740 0.949 . S
C735 H730 0.950 . S
C735 C737 1.327 . S
C735 C741 1.429 . S
C736 C728 1.574 . S
C736 H731 0.949 . S
C736 C742 1.368 . S
C737 C721 1.349 . S
C737 H729 0.950 1_565 S
C737 C735 1.327 . S
C738 C726 1.349 . S
C738 H732 0.950 . S
C738 C739 1.327 . S
C739 H733 0.950 . S
C739 C738 1.327 . S
C739 C743 1.429 . S
C740 C723 1.574 . S
C740 H734 0.949 . S
C740 C744 1.368 . S
C741 C722 1.429 . S
C741 C735 1.429 . S
C741 C742 1.523 . S
C742 C723 1.368 . S
C742 C736 1.368 . S
C742 C741 1.523 . S
C743 C727 1.429 . S
C743 C739 1.429 . S
C743 C744 1.523 . S
C744 C728 1.368 . S
C744 C740 1.368 . S
C744 C743 1.523 . S
H745 C720 0.950 . S
H746 C722 0.950 . S
H747 C723 0.949 . S
H748 C725 0.950 . S
H749 C727 0.950 . S
C750 C751 1.349 . S
C750 C752 1.327 . S
C750 H775 0.941 1_455 S
C751 C750 1.349 . S
C751 C767 1.349 . S
C752 C750 1.327 . S
C752 C771 1.429 . S
C752 H776 0.950 . S
C753 C770 1.574 . S
C753 C772 1.368 . S
C753 H777 0.949 . S
H754 C758 0.949 . S
C755 C756 1.349 . S
C755 C757 1.327 . S
C755 H778 0.950 . S
C756 C755 1.349 . S
C756 C768 1.349 . S
C757 C755 1.327 . S
C757 C773 1.429 . S
C757 H779 0.950 . S
C758 H754 0.949 . S
C758 C766 1.574 . S
C758 C774 1.368 . S
H759 C767 0.950 . S
H760 C765 0.950 . S
H761 C766 0.949 . S
H762 C768 0.950 . S
H763 C769 0.950 . S
H764 C770 0.949 . S
C765 H760 0.950 . S
C765 C767 1.327 . S
C765 C771 1.429 . S
C766 C758 1.574 . S
C766 H761 0.949 . S
C766 C772 1.368 . S
C767 C751 1.349 . S
C767 H759 0.950 . S
C767 C765 1.327 . S
C768 C756 1.349 . S
C768 H762 0.950 . S
C768 C769 1.327 . S
C769 H763 0.950 . S
C769 C768 1.327 . S
C769 C773 1.429 . S
C770 C753 1.574 . S
C770 H764 0.949 . S
C770 C774 1.368 . S
C771 C752 1.429 . S
C771 C765 1.429 . S
C771 C772 1.523 . S
C772 C753 1.368 . S
C772 C766 1.368 . S
C772 C771 1.523 . S
C773 C757 1.429 . S
C773 C769 1.429 . S
C773 C774 1.523 . S
C774 C758 1.368 . S
C774 C770 1.368 . S
C774 C773 1.523 . S
H775 C750 0.941 1_655 S
H776 C752 0.950 . S
H777 C753 0.949 . S
H778 C755 0.950 . S
H779 C757 0.950 . S
C780 C781 1.349 . S
C780 C782 1.327 . S
C780 H805 0.950 . S
C781 C780 1.349 . S
C781 C797 1.349 . S
C782 C780 1.327 . S
C782 C801 1.429 . S
C782 H806 0.950 . S
C783 C800 1.574 . S
C783 C802 1.368 . S
C783 H807 0.949 . S
H784 C788 0.949 . S
C785 C786 1.349 . S
C785 C787 1.327 . S
C785 H808 0.950 . S
C786 C785 1.349 . S
C786 C798 1.349 . S
C787 C785 1.327 . S
C787 C803 1.429 . S
C787 H809 0.950 . S
C788 H784 0.949 . S
C788 C796 1.574 . S
C788 C804 1.368 . S
H789 C797 0.950 . S
H790 C795 0.950 . S
H791 C796 0.949 . S
H792 C798 0.950 . S
H793 C799 0.950 . S
H794 C800 0.949 . S
C795 H790 0.950 . S
C795 C797 1.327 . S
C795 C801 1.429 . S
C796 C788 1.574 . S
C796 H791 0.949 . S
C796 C802 1.368 . S
C797 C781 1.349 . S
C797 H789 0.950 . S
C797 C795 1.327 . S
C798 C786 1.349 . S
C798 H792 0.950 . S
C798 C799 1.327 . S
C799 H793 0.950 . S
C799 C798 1.327 . S
C799 C803 1.429 . S
C800 C783 1.574 . S
C800 H794 0.949 . S
C800 C804 1.368 . S
C801 C782 1.429 . S
C801 C795 1.429 . S
C801 C802 1.523 . S
C802 C783 1.368 . S
C802 C796 1.368 . S
C802 C801 1.523 . S
C803 C787 1.429 . S
C803 C799 1.429 . S
C803 C804 1.523 . S
C804 C788 1.368 . S
C804 C800 1.368 . S
C804 C803 1.523 . S
H805 C780 0.950 . S
H806 C782 0.950 . S
H807 C783 0.949 . S
H808 C785 0.950 . S
H809 C787 0.950 . S
C810 C811 1.349 . S
C810 C812 1.327 . S
C810 H835 0.950 . S
C811 C810 1.349 . S
C811 C827 1.349 . S
C812 C810 1.327 . S
C812 C831 1.429 . S
C812 H836 0.950 . S
C813 C830 1.574 . S
C813 C832 1.368 . S
C813 H837 0.949 . S
H814 C818 0.949 . S
C815 C816 1.349 . S
C815 C817 1.327 . S
C815 H838 0.950 . S
C816 C815 1.349 . S
C816 C828 1.349 . S
C817 C815 1.327 . S
C817 C833 1.429 . S
C817 H839 0.950 . S
C818 H814 0.949 . S
C818 C826 1.574 . S
C818 C834 1.368 . S
H819 C827 0.950 . S
H820 C825 0.950 . S
H821 C826 0.949 . S
H822 C828 0.950 . S
H823 C829 0.950 . S
H824 C830 0.949 . S
C825 H820 0.950 . S
C825 C827 1.327 . S
C825 C831 1.429 . S
C826 C818 1.574 . S
C826 H821 0.949 . S
C826 C832 1.368 . S
C827 C811 1.349 . S
C827 H819 0.950 . S
C827 C825 1.327 . S
C828 C816 1.349 . S
C828 H822 0.950 . S
C828 C829 1.327 . S
C829 H823 0.950 . S
C829 C828 1.327 . S
C829 C833 1.429 . S
C830 C813 1.574 . S
C830 H824 0.949 . S
C830 C834 1.368 . S
C831 C812 1.429 . S
C831 C825 1.429 . S
C831 C832 1.523 . S
C832 C813 1.368 . S
C832 C826 1.368 . S
C832 C831 1.523 . S
C833 C817 1.429 . S
C833 C829 1.429 . S
C833 C834 1.523 . S
C834 C818 1.368 . S
C834 C830 1.368 . S
C834 C833 1.523 . S
H835 C810 0.950 . S
H836 C812 0.950 . S
H837 C813 0.949 . S
H838 C815 0.950 . S
H839 C817 0.950 . S
C840 C841 1.349 . S
C840 C842 1.327 . S
C840 H865 0.950 . S
C841 C840 1.349 . S
C841 C857 1.349 . S
C842 C840 1.327 . S
C842 C861 1.429 . S
C842 H866 0.950 . S
C843 C860 1.574 . S
C843 C862 1.368 . S
C843 H867 0.949 . S
H844 C848 0.949 . S
C845 C846 1.349 . S
C845 C847 1.327 . S
C845 H868 0.950 . S
C846 C845 1.349 . S
C846 C858 1.349 . S
C847 C845 1.327 . S
C847 C863 1.429 . S
C847 H869 0.950 . S
C848 H844 0.949 . S
C848 C856 1.574 . S
C848 C864 1.368 . S
H849 C857 0.950 . S
H850 C855 0.950 . S
H851 C856 0.949 . S
H852 C858 0.950 . S
H853 C859 0.950 . S
H854 C860 0.949 . S
C855 H850 0.950 . S
C855 C857 1.327 . S
C855 C861 1.429 . S
C856 C848 1.574 . S
C856 H851 0.949 . S
C856 C862 1.368 . S
C857 C841 1.349 . S
C857 H849 0.950 . S
C857 C855 1.327 . S
C858 C846 1.349 . S
C858 H852 0.950 . S
C858 C859 1.327 . S
C859 H853 0.950 . S
C859 C858 1.327 . S
C859 C863 1.429 . S
C860 C843 1.574 . S
C860 H854 0.949 . S
C860 C864 1.368 . S
C861 C842 1.429 . S
C861 C855 1.429 . S
C861 C862 1.523 . S
C862 C843 1.368 . S
C862 C856 1.368 . S
C862 C861 1.523 . S
C863 C847 1.429 . S
C863 C859 1.429 . S
C863 C864 1.523 . S
C864 C848 1.368 . S
C864 C860 1.368 . S
C864 C863 1.523 . S
H865 C840 0.950 . S
H866 C842 0.950 . S
H867 C843 0.949 . S
H868 C845 0.950 . S
H869 C847 0.950 . S
C870 C871 1.349 . S
C870 C872 1.327 . S
C870 H895 0.950 . S
C871 C870 1.349 . S
C871 C887 1.349 . S
C872 C870 1.327 . S
C872 C891 1.429 . S
C872 H896 0.950 . S
C873 C890 1.574 . S
C873 C892 1.368 . S
C873 H897 0.949 . S
H874 C878 0.949 . S
C875 C876 1.349 . S
C875 C877 1.327 . S
C875 H898 0.950 . S
C876 C875 1.349 . S
C876 C888 1.349 . S
C877 C875 1.327 . S
C877 C893 1.429 . S
C877 H899 0.950 . S
C878 H874 0.949 . S
C878 C886 1.574 . S
C878 C894 1.368 . S
H879 C887 0.950 . S
H880 C885 0.950 . S
H881 C886 0.949 . S
H882 C888 0.950 . S
H883 C889 0.950 . S
H884 C890 0.949 . S
C885 H880 0.950 . S
C885 C887 1.327 . S
C885 C891 1.429 . S
C886 C878 1.574 . S
C886 H881 0.949 . S
C886 C892 1.368 . S
C887 C871 1.349 . S
C887 H879 0.950 . S
C887 C885 1.327 . S
C888 C876 1.349 . S
C888 H882 0.950 . S
C888 C889 1.327 . S
C889 H883 0.950 . S
C889 C888 1.327 . S
C889 C893 1.429 . S
C890 C873 1.574 . S
C890 H884 0.949 . S
C890 C894 1.368 . S
C891 C872 1.429 . S
C891 C885 1.429 . S
C891 C892 1.523 . S
C892 C873 1.368 . S
C892 C886 1.368 . S
C892 C891 1.523 . S
C893 C877 1.429 . S
C893 C889 1.429 . S
C893 C894 1.523 . S
C894 C878 1.368 . S
C894 C890 1.368 . S
C894 C893 1.523 . S
H895 C870 0.950 . S
H896 C872 0.950 . S
H897 C873 0.949 . S
H898 C875 0.950 . S
H899 C877 0.950 . S
C900 C901 1.349 . S
C900 C902 1.327 . S
C900 H925 0.950 . S
C901 C900 1.349 . S
C901 C917 1.349 . S
C902 C900 1.327 . S
C902 C921 1.429 . S
C902 H926 0.950 . S
C903 C920 1.574 . S
C903 C922 1.368 . S
C903 H927 0.949 . S
H904 C908 0.949 . S
C905 C906 1.349 . S
C905 C907 1.327 . S
C905 H928 0.950 . S
C906 C905 1.349 . S
C906 C918 1.349 . S
C907 C905 1.327 . S
C907 C923 1.429 . S
C907 H929 0.950 . S
C908 H904 0.949 . S
C908 C916 1.574 . S
C908 C924 1.368 . S
H909 C917 0.950 . S
H910 C915 0.950 . S
H911 C916 0.949 . S
H912 C918 0.950 . S
H913 C919 0.950 . S
H914 C920 0.949 . S
C915 H910 0.950 . S
C915 C917 1.327 . S
C915 C921 1.429 . S
C916 C908 1.574 . S
C916 H911 0.949 . S
C916 C922 1.368 . S
C917 C901 1.349 . S
C917 H909 0.950 . S
C917 C915 1.327 . S
C918 C906 1.349 . S
C918 H912 0.950 . S
C918 C919 1.327 . S
C919 H913 0.950 . S
C919 C918 1.327 . S
C919 C923 1.429 . S
C920 C903 1.574 . S
C920 H914 0.949 . S
C920 C924 1.368 . S
C921 C902 1.429 . S
C921 C915 1.429 . S
C921 C922 1.523 . S
C922 C903 1.368 . S
C922 C916 1.368 . S
C922 C921 1.523 . S
C923 C907 1.429 . S
C923 C919 1.429 . S
C923 C924 1.523 . S
C924 C908 1.368 . S
C924 C920 1.368 . S
C924 C923 1.523 . S
H925 C900 0.950 . S
H926 C902 0.950 . S
H927 C903 0.949 . S
H928 C905 0.950 . S
H929 C907 0.950 . S
C930 C931 1.349 . S
C930 C932 1.327 . S
C930 H955 0.950 . S
C931 C930 1.349 . S
C931 C947 1.349 . S
C932 C930 1.327 . S
C932 C951 1.429 . S
C932 H956 0.950 . S
C933 C950 1.574 . S
C933 C952 1.368 . S
C933 H957 0.949 . S
H934 C938 0.949 . S
C935 C936 1.349 . S
C935 C937 1.327 . S
C935 H958 0.950 . S
C936 C935 1.349 . S
C936 C948 1.349 . S
C937 C935 1.327 . S
C937 C953 1.429 . S
C937 H959 0.950 . S
C938 H934 0.949 . S
C938 C946 1.574 . S
C938 C954 1.368 . S
H939 C947 0.950 . S
H940 C945 0.950 . S
H941 C946 0.949 . S
H942 C948 0.950 . S
H943 C949 0.950 . S
H944 C950 0.949 . S
C945 H940 0.950 . S
C945 C947 1.327 . S
C945 C951 1.429 . S
C946 C938 1.574 . S
C946 H941 0.949 . S
C946 C952 1.368 . S
C947 C931 1.349 . S
C947 H939 0.950 . S
C947 C945 1.327 . S
C948 C936 1.349 . S
C948 H942 0.950 . S
C948 C949 1.327 . S
C949 H943 0.950 . S
C949 C948 1.327 . S
C949 C953 1.429 . S
C950 C933 1.574 . S
C950 H944 0.949 . S
C950 C954 1.368 . S
C951 C932 1.429 . S
C951 C945 1.429 . S
C951 C952 1.523 . S
C952 C933 1.368 . S
C952 C946 1.368 . S
C952 C951 1.523 . S
C953 C937 1.429 . S
C953 C949 1.429 . S
C953 C954 1.523 . S
C954 C938 1.368 . S
C954 C950 1.368 . S
C954 C953 1.523 . S
H955 C930 0.950 . S
H956 C932 0.950 . S
H957 C933 0.949 . S
H958 C935 0.950 . S
H959 C937 0.950 . S
C960 C961 1.349 . S
C960 C962 1.327 . S
C960 H985 0.950 . S
C961 C960 1.349 . S
C961 C977 1.349 . S
C962 C960 1.327 . S
C962 C981 1.429 . S
C962 H986 0.950 . S
C963 C980 1.574 . S
C963 C982 1.368 . S
C963 H987 0.949 . S
H964 C968 0.949 . S
C965 C966 1.349 . S
C965 C967 1.327 . S
C965 H988 0.950 . S
C966 C965 1.349 . S
C966 C978 1.349 . S
C967 C965 1.327 . S
C967 C983 1.429 . S
C967 H989 0.950 . S
C968 H964 0.949 . S
C968 C976 1.574 . S
C968 C984 1.368 . S
H969 C977 0.950 . S
H970 C975 0.950 . S
H971 C976 0.949 . S
H972 C978 0.950 . S
H973 C979 0.950 . S
H974 C980 0.949 . S
C975 H970 0.950 . S
C975 C977 1.327 . S
C975 C981 1.429 . S
C976 C968 1.574 . S
C976 H971 0.949 . S
C976 C982 1.368 . S
C977 C961 1.349 . S
C977 H969 0.950 . S
C977 C975 1.327 . S
C978 C966 1.349 . S
C978 H972 0.950 . S
C978 C979 1.327 . S
C979 H973 0.950 . S
C979 C978 1.327 . S
C979 C983 1.429 . S
C980 C963 1.574 . S
C980 H974 0.949 . S
C980 C984 1.368 . S
C981 C962 1.429 . S
C981 C975 1.429 . S
C981 C982 1.523 . S
C982 C963 1.368 . S
C982 C976 1.368 . S
C982 C981 1.523 . S
C983 C967 1.429 . S
C983 C979 1.429 . S
C983 C984 1.523 . S
C984 C968 1.368 . S
C984 C980 1.368 . S
C984 C983 1.523 . S
H985 C960 0.950 . S
H986 C962 0.950 . S
H987 C963 0.949 . S
H988 C965 0.950 . S
H989 C967 0.950 . S
C990 C991 1.349 . S
C990 C992 1.327 . S
C990 H1015 0.950 . S
C991 C990 1.349 . S
C991 C1007 1.349 . S
C992 C990 1.327 . S
C992 C1011 1.429 . S
C992 H1016 0.950 . S
C993 C1010 1.574 . S
C993 C1012 1.368 . S
C993 H1017 0.949 . S
H994 C998 0.949 . S
C995 C996 1.349 . S
C995 C997 1.327 . S
C995 H1018 0.950 . S
C996 C995 1.349 . S
C996 C1008 1.349 . S
C997 C995 1.327 . S
C997 C1013 1.429 . S
C997 H1019 0.950 . S
C998 H994 0.949 . S
C998 C1006 1.574 . S
C998 C1014 1.368 . S
H999 C1007 0.950 . S
H1000 C1005 0.950 . S
H1001 C1006 0.949 . S
H1002 C1008 0.950 . S
H1003 C1009 0.950 . S
H1004 C1010 0.949 . S
C1005 H1000 0.950 . S
C1005 C1007 1.327 . S
C1005 C1011 1.429 . S
C1006 C998 1.574 . S
C1006 H1001 0.949 . S
C1006 C1012 1.368 . S
C1007 C991 1.349 . S
C1007 H999 0.950 . S
C1007 C1005 1.327 . S
C1008 C996 1.349 . S
C1008 H1002 0.950 . S
C1008 C1009 1.327 . S
C1009 H1003 0.950 . S
C1009 C1008 1.327 . S
C1009 C1013 1.429 . S
C1010 C993 1.574 . S
C1010 H1004 0.949 . S
C1010 C1014 1.368 . S
C1011 C992 1.429 . S
C1011 C1005 1.429 . S
C1011 C1012 1.523 . S
C1012 C993 1.368 . S
C1012 C1006 1.368 . S
C1012 C1011 1.523 . S
C1013 C997 1.429 . S
C1013 C1009 1.429 . S
C1013 C1014 1.523 . S
C1014 C998 1.368 . S
C1014 C1010 1.368 . S
C1014 C1013 1.523 . S
H1015 C990 0.950 . S
H1016 C992 0.950 . S
H1017 C993 0.949 . S
H1018 C995 0.950 . S
H1019 C997 0.950 . S
C1020 C1021 1.349 . S
C1020 C1022 1.327 . S
C1020 H1045 0.950 . S
C1021 C1020 1.349 . S
C1021 C1037 1.349 . S
C1022 C1020 1.327 . S
C1022 C1041 1.429 . S
C1022 H1046 0.950 . S
C1023 C1040 1.574 . S
C1023 C1042 1.368 . S
C1023 H1047 0.949 . S
H1024 C1028 0.949 . S
C1025 C1026 1.349 . S
C1025 C1027 1.327 . S
C1025 H1048 0.950 . S
C1026 C1025 1.349 . S
C1026 C1038 1.349 . S
C1027 C1025 1.327 . S
C1027 C1043 1.429 . S
C1027 H1049 0.950 . S
C1028 H1024 0.949 . S
C1028 C1036 1.574 . S
C1028 C1044 1.368 . S
H1029 C1037 0.950 . S
H1030 C1035 0.950 . S
H1031 C1036 0.949 . S
H1032 C1038 0.950 . S
H1033 C1039 0.950 . S
H1034 C1040 0.949 . S
C1035 H1030 0.950 . S
C1035 C1037 1.327 . S
C1035 C1041 1.429 . S
C1036 C1028 1.574 . S
C1036 H1031 0.949 . S
C1036 C1042 1.368 . S
C1037 C1021 1.349 . S
C1037 H1029 0.950 . S
C1037 C1035 1.327 . S
C1038 C1026 1.349 . S
C1038 H1032 0.950 . S
C1038 C1039 1.327 . S
C1039 H1033 0.950 . S
C1039 C1038 1.327 . S
C1039 C1043 1.429 . S
C1040 C1023 1.574 . S
C1040 H1034 0.949 . S
C1040 C1044 1.368 . S
C1041 C1022 1.429 . S
C1041 C1035 1.429 . S
C1041 C1042 1.523 . S
C1042 C1023 1.368 . S
C1042 C1036 1.368 . S
C1042 C1041 1.523 . S
C1043 C1027 1.429 . S
C1043 C1039 1.429 . S
C1043 C1044 1.523 . S
C1044 C1028 1.368 . S
C1044 C1040 1.368 . S
C1044 C1043 1.523 . S
H1045 C1020 0.950 . S
H1046 C1022 0.950 . S
H1047 C1023 0.949 . S
H1048 C1025 0.950 . S
H1049 C1027 0.950 . S
C1050 C1051 1.349 . S
C1050 C1052 1.327 . S
C1050 H1075 0.950 . S
C1051 C1050 1.349 . S
C1051 C1067 1.349 . S
C1052 C1050 1.327 . S
C1052 C1071 1.429 . S
C1052 H1076 0.950 . S
C1053 C1070 1.574 . S
C1053 C1072 1.368 . S
C1053 H1077 0.949 . S
H1054 C1058 0.949 . S
C1055 C1056 1.349 . S
C1055 C1057 1.327 . S
C1055 H1078 0.950 . S
C1056 C1055 1.349 . S
C1056 C1068 1.349 . S
C1057 C1055 1.327 . S
C1057 C1073 1.429 . S
C1057 H1079 0.950 . S
C1058 H1054 0.949 . S
C1058 C1066 1.574 . S
C1058 C1074 1.368 . S
H1059 C1067 0.950 . S
H1060 C1065 0.950 . S
H1061 C1066 0.949 . S
H1062 C1068 0.950 . S
H1063 C1069 0.950 . S
H1064 C1070 0.949 . S
C1065 H1060 0.950 . S
C1065 C1067 1.327 . S
C1065 C1071 1.429 . S
C1066 C1058 1.574 . S
C1066 H1061 0.949 . S
C1066 C1072 1.368 . S
C1067 C1051 1.349 . S
C1067 H1059 0.950 . S
C1067 C1065 1.327 . S
C1068 C1056 1.349 . S
C1068 H1062 0.950 . S
C1068 C1069 1.327 . S
C1069 H1063 0.950 . S
C1069 C1068 1.327 . S
C1069 C1073 1.429 . S
C1070 C1053 1.574 . S
C1070 H1064 0.949 . S
C1070 C1074 1.368 . S
C1071 C1052 1.429 . S
C1071 C1065 1.429 . S
C1071 C1072 1.523 . S
C1072 C1053 1.368 . S
C1072 C1066 1.368 . S
C1072 C1071 1.523 . S
C1073 C1057 1.429 . S
C1073 C1069 1.429 . S
C1073 C1074 1.523 . S
C1074 C1058 1.368 . S
C1074 C1070 1.368 . S
C1074 C1073 1.523 . S
H1075 C1050 0.950 . S
H1076 C1052 0.950 . S
H1077 C1053 0.949 . S
H1078 C1055 0.950 . S
H1079 C1057 0.950 . S
C361 C45 1.608 . S
C366 C127 1.632 . S
C391 C30 1.608 . S
C396 C159 1.632 . S
C421 C39 1.608 . S
C426 C191 1.546 . S
C456 C223 1.546 . S
C451 C34 1.608 . S
C481 C97 1.608 . S
C486 C255 1.632 . S
C516 C287 1.632 . S
C511 C82 1.608 . S
C546 C319 1.546 . S
C541 C91 1.608 . S
C576 C351 1.546 . S
C571 C86 1.608 . S
C606 C313 1.439 . S
C601 C26 1.454 . S
C636 C345 1.438 . S
C631 C36 1.454 . S
C666 C261 1.521 . S
C661 C32 1.463 . S
C696 C293 1.522 . S
C691 C42 1.463 . S
C721 C18 1.535 . S
C726 C281 1.614 . S
C756 C325 1.523 . S
C751 C50 1.545 . S
C781 C4 1.545 . S
C786 C357 1.524 . S
C811 C48 1.536 . S
C816 C249 1.615 . S
C846 C185 1.439 . S
C841 C78 1.454 . S
C871 C88 1.454 . S
C876 C217 1.439 . S
C906 C133 1.521 . S
C901 C84 1.463 . S
C936 C165 1.522 . S
C931 C94 1.463 . S
C966 C153 1.614 . S
C961 C70 1.536 . S
C996 C197 1.523 . S
C991 C102 1.545 . S
C1021 C56 1.545 . S
C1026 C229 1.524 . S
C1051 C100 1.535 . S
C1056 C121 1.615 . S
