# Generated by pormake.
# Topology ptr, (4,4)-cn, num edge types: 1
# Building blocks:
#     Node 0, Type 0, BuildingBlock: QUQFOY_clean_sbu_1, # of connection points: 4
#     Node 1, Type 0, BuildingBlock: QUQFOY_clean_sbu_1, # of connection points: 4
#     Node 2, Type 0, BuildingBlock: QUQFOY_clean_sbu_1, # of connection points: 4
#     Node 3, Type 0, BuildingBlock: QUQFOY_clean_sbu_1, # of connection points: 4
#     Node 4, Type 0, BuildingBlock: QUQFOY_clean_sbu_1, # of connection points: 4
#     Node 5, Type 0, BuildingBlock: QUQFOY_clean_sbu_1, # of connection points: 4
#     Node 6, Type 0, BuildingBlock: QUQFOY_clean_sbu_1, # of connection points: 4
#     Node 7, Type 0, BuildingBlock: QUQFOY_clean_sbu_1, # of connection points: 4
#     Node 8, Type 0, BuildingBlock: QUQFOY_clean_sbu_1, # of connection points: 4
#     Node 9, Type 0, BuildingBlock: QUQFOY_clean_sbu_1, # of connection points: 4
#     Node 10, Type 0, BuildingBlock: QUQFOY_clean_sbu_1, # of connection points: 4
#     Node 11, Type 0, BuildingBlock: QUQFOY_clean_sbu_1, # of connection points: 4
#     Node 12, Type 0, BuildingBlock: QUQFOY_clean_sbu_1, # of connection points: 4
#     Node 13, Type 0, BuildingBlock: QUQFOY_clean_sbu_1, # of connection points: 4
#     Node 14, Type 0, BuildingBlock: QUQFOY_clean_sbu_1, # of connection points: 4
#     Node 15, Type 0, BuildingBlock: QUQFOY_clean_sbu_1, # of connection points: 4
#     Node 16, Type 0, BuildingBlock: QUQFOY_clean_sbu_1, # of connection points: 4
#     Node 17, Type 0, BuildingBlock: QUQFOY_clean_sbu_1, # of connection points: 4
#     Node 18, Type 1, BuildingBlock: MIFKUJ_clean_linker_1, # of connection points: 4
#     Node 19, Type 1, BuildingBlock: MIFKUJ_clean_linker_1, # of connection points: 4
#     Node 20, Type 1, BuildingBlock: MIFKUJ_clean_linker_1, # of connection points: 4
#     Node 21, Type 1, BuildingBlock: MIFKUJ_clean_linker_1, # of connection points: 4
#     Node 22, Type 1, BuildingBlock: MIFKUJ_clean_linker_1, # of connection points: 4
#     Node 23, Type 1, BuildingBlock: MIFKUJ_clean_linker_1, # of connection points: 4
#     Node 24, Type 1, BuildingBlock: MIFKUJ_clean_linker_1, # of connection points: 4
#     Node 25, Type 1, BuildingBlock: MIFKUJ_clean_linker_1, # of connection points: 4
#     Node 26, Type 1, BuildingBlock: MIFKUJ_clean_linker_1, # of connection points: 4
#     Node 27, Type 1, BuildingBlock: MIFKUJ_clean_linker_1, # of connection points: 4
#     Node 28, Type 1, BuildingBlock: MIFKUJ_clean_linker_1, # of connection points: 4
#     Node 29, Type 1, BuildingBlock: MIFKUJ_clean_linker_1, # of connection points: 4
#     Node 30, Type 1, BuildingBlock: MIFKUJ_clean_linker_1, # of connection points: 4
#     Node 31, Type 1, BuildingBlock: MIFKUJ_clean_linker_1, # of connection points: 4
#     Node 32, Type 1, BuildingBlock: MIFKUJ_clean_linker_1, # of connection points: 4
#     Node 33, Type 1, BuildingBlock: MIFKUJ_clean_linker_1, # of connection points: 4
#     Node 34, Type 1, BuildingBlock: MIFKUJ_clean_linker_1, # of connection points: 4
#     Node 35, Type 1, BuildingBlock: MIFKUJ_clean_linker_1, # of connection points: 4
#     Edge 36, Type (0, 1), BuildingBlock: CIFDUS_clean_linker_0, # of connection points: 2
#     Edge 37, Type (0, 1), BuildingBlock: CIFDUS_clean_linker_0, # of connection points: 2
#     Edge 38, Type (0, 1), BuildingBlock: CIFDUS_clean_linker_0, # of connection points: 2
#     Edge 39, Type (0, 1), BuildingBlock: CIFDUS_clean_linker_0, # of connection points: 2
#     Edge 40, Type (0, 1), BuildingBlock: CIFDUS_clean_linker_0, # of connection points: 2
#     Edge 41, Type (0, 1), BuildingBlock: CIFDUS_clean_linker_0, # of connection points: 2
#     Edge 42, Type (0, 1), BuildingBlock: CIFDUS_clean_linker_0, # of connection points: 2
#     Edge 43, Type (0, 1), BuildingBlock: CIFDUS_clean_linker_0, # of connection points: 2
#     Edge 44, Type (0, 1), BuildingBlock: CIFDUS_clean_linker_0, # of connection points: 2
#     Edge 45, Type (0, 1), BuildingBlock: CIFDUS_clean_linker_0, # of connection points: 2
#     Edge 46, Type (0, 1), BuildingBlock: CIFDUS_clean_linker_0, # of connection points: 2
#     Edge 47, Type (0, 1), BuildingBlock: CIFDUS_clean_linker_0, # of connection points: 2
#     Edge 48, Type (0, 1), BuildingBlock: CIFDUS_clean_linker_0, # of connection points: 2
#     Edge 49, Type (0, 1), BuildingBlock: CIFDUS_clean_linker_0, # of connection points: 2
#     Edge 50, Type (0, 1), BuildingBlock: CIFDUS_clean_linker_0, # of connection points: 2
#     Edge 51, Type (0, 1), BuildingBlock: CIFDUS_clean_linker_0, # of connection points: 2
#     Edge 52, Type (0, 1), BuildingBlock: CIFDUS_clean_linker_0, # of connection points: 2
#     Edge 53, Type (0, 1), BuildingBlock: CIFDUS_clean_linker_0, # of connection points: 2
#     Edge 54, Type (0, 1), BuildingBlock: CIFDUS_clean_linker_0, # of connection points: 2
#     Edge 55, Type (0, 1), BuildingBlock: CIFDUS_clean_linker_0, # of connection points: 2
#     Edge 56, Type (0, 1), BuildingBlock: CIFDUS_clean_linker_0, # of connection points: 2
#     Edge 57, Type (0, 1), BuildingBlock: CIFDUS_clean_linker_0, # of connection points: 2
#     Edge 58, Type (0, 1), BuildingBlock: CIFDUS_clean_linker_0, # of connection points: 2
#     Edge 59, Type (0, 1), BuildingBlock: CIFDUS_clean_linker_0, # of connection points: 2
#     Edge 60, Type (0, 1), BuildingBlock: CIFDUS_clean_linker_0, # of connection points: 2
#     Edge 61, Type (0, 1), BuildingBlock: CIFDUS_clean_linker_0, # of connection points: 2
#     Edge 62, Type (0, 1), BuildingBlock: CIFDUS_clean_linker_0, # of connection points: 2
#     Edge 63, Type (0, 1), BuildingBlock: CIFDUS_clean_linker_0, # of connection points: 2
#     Edge 64, Type (0, 1), BuildingBlock: CIFDUS_clean_linker_0, # of connection points: 2
#     Edge 65, Type (0, 1), BuildingBlock: CIFDUS_clean_linker_0, # of connection points: 2
#     Edge 66, Type (0, 1), BuildingBlock: CIFDUS_clean_linker_0, # of connection points: 2
#     Edge 67, Type (0, 1), BuildingBlock: CIFDUS_clean_linker_0, # of connection points: 2
#     Edge 68, Type (0, 1), BuildingBlock: CIFDUS_clean_linker_0, # of connection points: 2
#     Edge 69, Type (0, 1), BuildingBlock: CIFDUS_clean_linker_0, # of connection points: 2
#     Edge 70, Type (0, 1), BuildingBlock: CIFDUS_clean_linker_0, # of connection points: 2
#     Edge 71, Type (0, 1), BuildingBlock: CIFDUS_clean_linker_0, # of connection points: 2
#     Edge 72, Type (0, 1), BuildingBlock: CIFDUS_clean_linker_0, # of connection points: 2
#     Edge 73, Type (0, 1), BuildingBlock: CIFDUS_clean_linker_0, # of connection points: 2
#     Edge 74, Type (0, 1), BuildingBlock: CIFDUS_clean_linker_0, # of connection points: 2
#     Edge 75, Type (0, 1), BuildingBlock: CIFDUS_clean_linker_0, # of connection points: 2
#     Edge 76, Type (0, 1), BuildingBlock: CIFDUS_clean_linker_0, # of connection points: 2
#     Edge 77, Type (0, 1), BuildingBlock: CIFDUS_clean_linker_0, # of connection points: 2
#     Edge 78, Type (0, 1), BuildingBlock: CIFDUS_clean_linker_0, # of connection points: 2
#     Edge 79, Type (0, 1), BuildingBlock: CIFDUS_clean_linker_0, # of connection points: 2
#     Edge 80, Type (0, 1), BuildingBlock: CIFDUS_clean_linker_0, # of connection points: 2
#     Edge 81, Type (0, 1), BuildingBlock: CIFDUS_clean_linker_0, # of connection points: 2
#     Edge 82, Type (0, 1), BuildingBlock: CIFDUS_clean_linker_0, # of connection points: 2
#     Edge 83, Type (0, 1), BuildingBlock: CIFDUS_clean_linker_0, # of connection points: 2
#     Edge 84, Type (0, 1), BuildingBlock: CIFDUS_clean_linker_0, # of connection points: 2
#     Edge 85, Type (0, 1), BuildingBlock: CIFDUS_clean_linker_0, # of connection points: 2
#     Edge 86, Type (0, 1), BuildingBlock: CIFDUS_clean_linker_0, # of connection points: 2
#     Edge 87, Type (0, 1), BuildingBlock: CIFDUS_clean_linker_0, # of connection points: 2
#     Edge 88, Type (0, 1), BuildingBlock: CIFDUS_clean_linker_0, # of connection points: 2
#     Edge 89, Type (0, 1), BuildingBlock: CIFDUS_clean_linker_0, # of connection points: 2
#     Edge 90, Type (0, 1), BuildingBlock: CIFDUS_clean_linker_0, # of connection points: 2
#     Edge 91, Type (0, 1), BuildingBlock: CIFDUS_clean_linker_0, # of connection points: 2
#     Edge 92, Type (0, 1), BuildingBlock: CIFDUS_clean_linker_0, # of connection points: 2
#     Edge 93, Type (0, 1), BuildingBlock: CIFDUS_clean_linker_0, # of connection points: 2
#     Edge 94, Type (0, 1), BuildingBlock: CIFDUS_clean_linker_0, # of connection points: 2
#     Edge 95, Type (0, 1), BuildingBlock: CIFDUS_clean_linker_0, # of connection points: 2
#     Edge 96, Type (0, 1), BuildingBlock: CIFDUS_clean_linker_0, # of connection points: 2
#     Edge 97, Type (0, 1), BuildingBlock: CIFDUS_clean_linker_0, # of connection points: 2
#     Edge 98, Type (0, 1), BuildingBlock: CIFDUS_clean_linker_0, # of connection points: 2
#     Edge 99, Type (0, 1), BuildingBlock: CIFDUS_clean_linker_0, # of connection points: 2
#     Edge 100, Type (0, 1), BuildingBlock: CIFDUS_clean_linker_0, # of connection points: 2
#     Edge 101, Type (0, 1), BuildingBlock: CIFDUS_clean_linker_0, # of connection points: 2
#     Edge 102, Type (0, 1), BuildingBlock: CIFDUS_clean_linker_0, # of connection points: 2
#     Edge 103, Type (0, 1), BuildingBlock: CIFDUS_clean_linker_0, # of connection points: 2
#     Edge 104, Type (0, 1), BuildingBlock: CIFDUS_clean_linker_0, # of connection points: 2
#     Edge 105, Type (0, 1), BuildingBlock: CIFDUS_clean_linker_0, # of connection points: 2
#     Edge 106, Type (0, 1), BuildingBlock: CIFDUS_clean_linker_0, # of connection points: 2
#     Edge 107, Type (0, 1), BuildingBlock: CIFDUS_clean_linker_0, # of connection points: 2
# Relax obj value: 0.012
# Max RMSD: 0.045
# Mean RMSD: 0.040
data_MOF--net-ptr--node1-QUQFOY_clean_sbu_1--node2-MIFKUJ_clean_linker_1--edge1-CIFDUS_clean_linker_0
_symmetry_space_group_name_H-M    P1
_symmetry_Int_Tables_number       1
_symmetry_cell_setting            triclinic
loop_
_symmetry_equiv_pos_as_xyz
'x, y, z'
_cell_length_a     82.667631
_cell_length_b     82.667685
_cell_length_c     56.355948
_cell_angle_alpha  90.010106
_cell_angle_beta   89.949682
_cell_angle_gamma 119.94016
loop_
_atom_site_label
_atom_site_type_symbol
_atom_site_fract_x
_atom_site_fract_y
_atom_site_fract_z
_atom_type_partial_charge
O0 O 0.0126 0.38278 0.05048 0.0
Cd1 Cd 0.0215 0.37336 0.02224 0.0
Cd2 Cd 0.98407 0.35462 0.01338 0.0
O3 O 0.98216 0.36478 0.04638 0.0
O4 O 0.04726 0.37976 0.03163 0.0
O5 O 0.02443 0.35071 0.02662 0.0
C6 C 0.04152 0.36214 0.0326 0.0
C7 C 0.96423 0.32336 1.00286 0.0
C8 C 0.99611 0.37719 0.05787 0.0
C9 C 0.00965 0.38429 0.97812 0.0
O10 O 0.99313 0.37317 0.98523 0.0
O11 O 0.02356 0.38584 0.9897 0.0
O12 O 0.95836 0.33516 1.00377 0.0
O13 O 0.98133 0.32913 0.0089 0.0
O14 O 0.62474 0.62852 0.05378 0.0
Cd15 Cd 0.63396 0.64651 0.0251 0.0
Cd16 Cd 0.65464 0.62921 0.01828 0.0
O17 O 0.6443 0.61775 0.05132 0.0
O18 O 0.62733 0.66593 0.03362 0.0
O19 O 0.65648 0.67215 0.0294 0.0
C20 C 0.64494 0.67782 0.03492 0.0
C21 C 0.6854 0.63785 0.00769 0.0
C22 C 0.63115 0.61852 0.06202 0.0
C23 C 0.62477 0.62295 0.98186 0.0
O24 O 0.63627 0.61847 0.99023 0.0
O25 O 0.62235 0.63527 0.99221 0.0
O26 O 0.67268 0.62067 0.01044 0.0
O27 O 0.68092 0.65046 0.01203 0.0
O28 O 0.3887 0.01385 0.99273 0.0
Cd29 Cd 0.37976 0.02375 0.02051 0.0
Cd30 Cd 0.35947 0.98586 0.02887 0.0
O31 O 0.36926 0.98358 0.99593 0.0
O32 O 0.38951 0.05031 0.01119 0.0
O33 O 0.35939 0.03002 0.0142 0.0
C34 C 0.37252 0.04664 0.00876 0.0
C35 C 0.32814 0.96676 0.03952 0.0
C36 C 0.38235 0.99733 0.98494 0.0
C37 C 0.3891 0.01028 0.06469 0.0
O38 O 0.37804 0.994 0.05683 0.0
O39 O 0.39091 0.02456 0.05376 0.0
O40 O 0.3395 0.96038 0.03833 0.0
O41 O 0.33438 0.984 0.03366 0.0
O42 O 0.99564 0.62286 0.98958 0.0
Cd43 Cd 0.98912 0.63373 0.01858 0.0
Cd44 Cd 0.0264 0.65454 0.02169 0.0
O45 O 0.02548 0.64405 0.98796 0.0
O46 O 0.96319 0.62859 0.0127 0.0
O47 O 0.98773 0.65709 0.01332 0.0
C48 C 0.97004 0.64631 0.00976 0.0
C49 C 0.04659 0.68604 0.03044 0.0
C50 C 0.01132 0.62994 0.97909 0.0
C51 C 0.00595 0.62592 0.06028 0.0
O52 O 0.02136 0.63683 0.05008 0.0
O53 O 0.99069 0.62353 0.05162 0.0
O54 O 0.0528 0.67485 0.02593 0.0
O55 O 0.0288 0.67956 0.02907 0.0
O56 O 0.38459 0.3755 0.98592 0.0
Cd57 Cd 0.37463 0.35614 0.01313 0.0
Cd58 Cd 0.35583 0.37422 0.02305 0.0
O59 O 0.36564 0.38682 0.99032 0.0
O60 O 0.38063 0.33672 1.00246 0.0
O61 O 0.35172 0.33098 0.00754 0.0
C62 C 0.36294 0.32516 1.00107 0.0
C63 C 0.32462 0.36192 0.03437 0.0
C64 C 0.37856 0.38614 0.9789 0.0
C65 C 0.38509 0.37779 0.05818 0.0
O66 O 0.37448 0.38379 0.05098 0.0
O67 O 0.38633 0.3653 0.04644 0.0
O68 O 0.33592 0.37967 0.03313 0.0
O69 O 0.33085 0.35099 0.02803 0.0
O70 O 0.61837 0.98472 0.04743 0.0
Cd71 Cd 0.63224 0.98136 0.01905 0.0
Cd72 Cd 0.64827 0.01887 0.01822 0.0
O73 O 0.63617 0.01516 0.0516 0.0
O74 O 0.62663 0.95494 0.02138 0.0
O75 O 0.65492 0.97912 0.02677 0.0
C76 C 0.64391 0.96124 0.02671 0.0
C77 C 0.67973 0.04 0.01049 0.0
C78 C 0.6229 0.9996 0.05896 0.0
C79 C 0.62296 0.99789 0.97769 0.0
O80 O 0.6309 0.01312 0.98927 0.0
O81 O 0.62347 0.98368 0.9854 0.0
O82 O 0.66808 0.04565 0.01518 0.0
O83 O 0.67372 0.02227 0.01135 0.0
O84 O 0.67656 0.71701 0.38337 0.0
Cd85 Cd 0.68573 0.70789 0.3552 0.0
Cd86 Cd 0.64741 0.68747 0.34653 0.0
O87 O 0.64617 0.69887 0.3789 0.0
O88 O 0.71172 0.71505 0.36448 0.0
O89 O 0.68935 0.6857 0.36024 0.0
C90 C 0.70636 0.69752 0.3661 0.0
C91 C 0.62499 0.65659 0.33745 0.0
C92 C 0.66 0.71131 0.39051 0.0
C93 C 0.67262 0.71629 0.30992 0.0
O94 O 0.65628 0.70454 0.31697 0.0
O95 O 0.68684 0.71957 0.32224 0.0
O96 O 0.6208 0.66962 0.3388 0.0
O97 O 0.64194 0.66089 0.3423 0.0
O98 O 0.28682 0.96655 0.38052 0.0
Cd99 Cd 0.29744 0.98541 0.35311 0.0
Cd100 Cd 0.31688 0.96608 0.34664 0.0
O101 O 0.30437 0.95342 0.3787 0.0
O102 O 0.28792 0.00265 0.36114 0.0
O103 O 0.31797 0.01179 0.3603 0.0
C104 C 0.30491 0.01564 0.3646 0.0
C105 C 0.34828 0.97594 0.33863 0.0
C106 C 0.29155 0.95521 0.38875 0.0
C107 C 0.28969 0.96353 0.3083 0.0
O108 O 0.30045 0.95801 0.31647 0.0
O109 O 0.28705 0.9753 0.31967 0.0
O110 O 0.33576 0.9585 0.33921 0.0
O111 O 0.34316 0.98794 0.34393 0.0
O112 O 0.05227 0.34497 0.32046 0.0
Cd113 Cd 0.04359 0.35447 0.34897 0.0
Cd114 Cd 0.02393 0.31726 0.35947 0.0
O115 O 0.03474 0.31481 0.32741 0.0
O116 O 0.0499 0.38019 0.33938 0.0
O117 O 0.0209 0.35737 0.34484 0.0
C118 C 0.03226 0.37442 0.33857 0.0
C119 C 0.99245 0.29719 0.3683 0.0
C120 C 0.04667 0.32814 0.31467 0.0
C121 C 0.05361 0.3424 0.39434 0.0
O122 O 0.04177 0.32585 0.38811 0.0
O123 O 0.05607 0.35623 0.3817 0.0
O124 O 0.00412 0.2912 0.36692 0.0
O125 O 0.9985 0.31465 0.36413 0.0
O126 O 0.66697 0.95333 0.32173 0.0
Cd127 Cd 0.65806 0.96278 0.35008 0.0
Cd128 Cd 0.69506 0.98386 0.35622 0.0
O129 O 0.69693 0.97425 0.32295 0.0
O130 O 0.63196 0.95576 0.34159 0.0
O131 O 0.65465 0.98507 0.3451 0.0
C132 C 0.63748 0.97332 0.33982 0.0
C133 C 0.71354 0.01521 0.36704 0.0
C134 C 0.68326 0.96044 0.31286 0.0
C135 C 0.67286 0.95435 0.39326 0.0
O136 O 0.68867 0.96564 0.3843 0.0
O137 O 0.65799 0.95188 0.38331 0.0
O138 O 0.72049 0.0044 0.36457 0.0
O139 O 0.69607 0.00847 0.36208 0.0
O140 O 0.05087 0.7087 0.31495 0.0
Cd141 Cd 0.04301 0.69122 0.34421 0.0
Cd142 Cd 0.02645 0.71203 0.35534 0.0
O143 O 0.03615 0.72425 0.32253 0.0
O144 O 0.04918 0.67174 0.33438 0.0
O145 O 0.0203 0.66552 0.34097 0.0
C146 C 0.03156 0.6598 0.3343 0.0
C147 C 0.99563 0.70131 0.36724 0.0
C148 C 0.04648 0.72087 0.30911 0.0
C149 C 0.05641 0.71467 0.38841 0.0
O150 O 0.04562 0.72078 0.38244 0.0
O151 O 0.05693 0.70198 0.37619 0.0
O152 O 0.00773 0.71888 0.3663 0.0
O153 O 1.00084 0.68967 0.36044 0.0
O154 O 0.28624 0.32605 0.38707 0.0
Cd155 Cd 0.29437 0.3161 0.35851 0.0
Cd156 Cd 0.31686 0.35382 0.35116 0.0
O157 O 0.30601 0.35625 0.38326 0.0
O158 O 0.28482 0.28946 0.36692 0.0
O159 O 0.31491 0.31003 0.36395 0.0
C160 C 0.30189 0.29328 0.3691 0.0
C161 C 0.34847 0.37281 0.34157 0.0
C162 C 0.2929 0.34269 0.3945 0.0
C163 C 0.28745 0.33129 0.31405 0.0
O164 O 0.29969 0.34707 0.32208 0.0
O165 O 0.28353 0.31643 0.3253 0.0
O166 O 0.33726 0.37937 0.34291 0.0
O167 O 0.34196 0.35546 0.34705 0.0
O168 O 0.34328 0.04929 0.72194 0.0
Cd169 Cd 0.35403 0.04233 0.6932 0.0
Cd170 Cd 0.31706 0.02352 0.67882 0.0
O171 O 0.31374 0.03409 0.71077 0.0
O172 O 0.38036 0.05024 0.70185 0.0
O173 O 0.35871 0.02066 0.69681 0.0
C174 C 0.37572 0.03288 0.70207 0.0
C175 C 0.29712 0.99212 0.66917 0.0
C176 C 0.32629 0.0445 0.72554 0.0
C177 C 0.34402 0.05452 0.6473 0.0
O178 O 0.32715 0.04191 0.65066 0.0
O179 O 0.35669 0.05663 0.66185 0.0
O180 O 0.29125 0.00391 0.66984 0.0
O181 O 0.31439 0.99801 0.67443 0.0
O182 O 0.95704 0.29705 0.72865 0.0
Cd183 Cd 0.96603 0.31432 0.69922 0.0
Cd184 Cd 0.98197 0.29281 0.68985 0.0
O185 O 0.97168 0.28118 0.72288 0.0
O186 O 0.9596 0.33385 0.70761 0.0
O187 O 0.98865 0.34002 0.70288 0.0
C188 C 0.9772 0.34579 0.70833 0.0
C189 C 0.01298 0.30404 0.67838 0.0
C190 C 0.96108 0.28482 0.73541 0.0
C191 C 0.95303 0.29047 0.6554 0.0
O192 O 0.96317 0.28383 0.6623 0.0
O193 O 0.95283 0.30359 0.66697 0.0
O194 O 1.00129 0.28639 0.68008 0.0
O195 O 0.00727 0.31545 0.68441 0.0
O196 O 0.72152 0.68133 0.65889 0.0
Cd197 Cd 0.71089 0.68956 0.68657 0.0
Cd198 Cd 0.69311 0.65213 0.69551 0.0
O199 O 0.70317 0.65088 0.66219 0.0
O200 O 0.71608 0.71496 0.67711 0.0
O201 O 0.68751 0.69091 0.6807 0.0
C202 C 0.69833 0.70823 0.67508 0.0
C203 C 0.66267 0.62996 0.70708 0.0
C204 C 0.71586 0.66492 0.65113 0.0
C205 C 0.72209 0.67828 0.7309 0.0
O206 O 0.71198 0.66171 0.72327 0.0
O207 O 0.72267 0.69193 0.71973 0.0
O208 O 0.67563 0.62574 0.70478 0.0
O209 O 0.66673 0.64678 0.70174 0.0
O210 O 0.33185 0.28876 0.65637 0.0
Cd211 Cd 0.32063 0.29606 0.68428 0.0
Cd212 Cd 0.3588 0.31663 0.69729 0.0
O213 O 0.36168 0.30469 0.66623 0.0
O214 O 0.29494 0.2888 0.67328 0.0
O215 O 0.31648 0.31803 0.6805 0.0
C216 C 0.29982 0.30625 0.67331 0.0
C217 C 0.38159 0.34727 0.70746 0.0
C218 C 0.34879 0.2936 0.65227 0.0
C219 C 0.33126 0.28673 0.73115 0.0
O220 O 0.34781 0.29951 0.72647 0.0
O221 O 0.31801 0.28289 0.71667 0.0
O222 O 0.38501 0.33369 0.70771 0.0
O223 O 0.36528 0.34368 0.70037 0.0
O224 O 0.72293 0.04142 0.65729 0.0
Cd225 Cd 0.7137 0.02211 0.6843 0.0
Cd226 Cd 0.69226 0.03889 0.694 0.0
O227 O 0.70384 0.05258 0.66214 0.0
O228 O 0.72253 0.00469 0.67444 0.0
O229 O 0.69263 0.99592 0.67769 0.0
C230 C 0.70534 0.99183 0.67208 0.0
C231 C 0.66097 0.02901 0.70295 0.0
C232 C 0.71685 0.05209 0.65063 0.0
C233 C 0.72091 0.04196 0.73063 0.0
O234 O 0.70896 0.04641 0.72393 0.0
O235 O 0.72471 0.0317 0.71768 0.0
O236 O 0.67359 0.04641 0.70293 0.0
O237 O 0.66592 0.01707 0.69671 0.0
O238 O 0.96006 0.66566 0.71852 0.0
Cd239 Cd 0.96751 0.65538 0.68987 0.0
Cd240 Cd 0.98525 0.69316 0.67733 0.0
O241 O 0.97543 0.69577 0.71032 0.0
O242 O 0.96061 0.62975 0.70058 0.0
O243 O 0.98967 0.65139 0.6928 0.0
C244 C 0.97806 0.63474 0.70016 0.0
C245 C 0.01546 0.71536 0.66497 0.0
C246 C 0.96478 0.68236 0.72397 0.0
C247 C 0.95431 0.66499 0.64535 0.0
O248 O 0.96614 0.68192 0.64995 0.0
O249 O 0.95281 0.65192 0.65874 0.0
O250 O 1.00221 0.71923 0.66634 0.0
O251 O 0.01179 0.69889 0.67153 0.0
H252 H 0.14853 0.35448 0.17545 0.0
H253 H 0.12657 0.35732 0.20156 0.0
H254 H 0.09177 0.29713 0.20253 0.0
H255 H 0.11468 0.29457 0.17773 0.0
H256 H 0.15793 0.31689 0.19354 0.0
H257 H 0.16216 0.35761 0.10934 0.0
H258 H 0.14285 0.36671 0.0868 0.0
H259 H 0.09332 0.31678 0.1104 0.0
H260 H 0.11287 0.30716 0.13168 0.0
H261 H 0.1847 0.30874 0.10048 0.0
H262 H 0.21393 0.31794 0.07919 0.0
H263 H 0.24416 0.36046 0.1319 0.0
H264 H 0.21498 0.35163 0.15257 0.0
H265 H 0.16948 0.33099 0.10765 0.0
H266 H 0.18948 0.29642 0.16164 0.0
H267 H 0.21142 0.29399 0.18896 0.0
H268 H 0.21572 0.34034 0.22945 0.0
H269 H 0.19392 0.34264 0.2024 0.0
C270 C 0.13314 0.32434 0.17464 0.0
C271 C 0.13604 0.34194 0.18115 0.0
C272 C 0.12334 0.3435 0.19599 0.0
C273 C 0.10725 0.32745 0.20437 0.0
C274 C 0.10412 0.30982 0.19698 0.0
C275 C 0.11709 0.30829 0.18256 0.0
C276 C 0.14783 0.32286 0.16147 0.0
C277 C 0.16031 0.31964 0.17465 0.0
C278 C 0.15101 0.32686 0.13696 0.0
C279 C 0.13901 0.33182 0.12257 0.0
C280 C 0.14716 0.34847 0.10942 0.0
C281 C 0.13605 0.35377 0.09673 0.0
C282 C 0.11646 0.34263 0.09699 0.0
C283 C 0.10834 0.32568 0.10965 0.0
C284 C 0.1195 0.32029 0.12217 0.0
C285 C 0.19764 0.32932 0.1283 0.0
C286 C 0.19767 0.3199 0.10756 0.0
C287 C 0.21439 0.32512 0.09547 0.0
C288 C 0.23136 0.34 0.10377 0.0
C289 C 0.23131 0.34909 0.12486 0.0
C290 C 0.21464 0.34387 0.13691 0.0
C291 C 0.17979 0.3252 0.13978 0.0
C292 C 0.16677 0.32756 0.12634 0.0
C293 C 0.17645 0.32112 0.16429 0.0
C294 C 0.19009 0.31971 0.18001 0.0
C295 C 0.19525 0.30608 0.17636 0.0
C296 C 0.20768 0.30465 0.19199 0.0
C297 C 0.21532 0.31704 0.21124 0.0
C298 C 0.21023 0.33075 0.21462 0.0
C299 C 0.19769 0.332 0.19927 0.0
H300 H 0.7126 0.88132 0.1897 0.0
H301 H 0.70979 0.90217 0.21804 0.0
H302 H 0.65667 0.88871 0.18719 0.0
H303 H 0.65897 0.86705 0.16013 0.0
H304 H 0.69213 0.84574 0.18858 0.0
H305 H 0.70803 0.89175 0.12705 0.0
H306 H 0.70501 0.91564 0.10528 0.0
H307 H 0.6477 0.87499 0.08865 0.0
H308 H 0.6513 0.85106 0.10931 0.0
H309 H 0.64833 0.80304 0.1093 0.0
H310 H 0.63918 0.77385 0.08874 0.0
H311 H 0.69052 0.77654 0.11091 0.0
H312 H 0.70014 0.80647 0.13024 0.0
H313 H 0.67462 0.8369 0.1035 0.0
H314 H 0.65692 0.79528 0.17517 0.0
H315 H 0.65845 0.77424 0.20431 0.0
H316 H 0.71879 0.80708 0.20308 0.0
H317 H 0.71691 0.82862 0.17505 0.0
C318 C 0.6861 0.87266 0.17253 0.0
C319 C 0.70045 0.88303 0.18886 0.0
C320 C 0.69889 0.89509 0.20497 0.0
C321 C 0.68292 0.89705 0.20508 0.0
C322 C 0.66902 0.88734 0.18792 0.0
C323 C 0.67049 0.87516 0.17206 0.0
C324 C 0.68624 0.85764 0.15804 0.0
C325 C 0.68882 0.84411 0.16979 0.0
C326 C 0.6816 0.85524 0.13362 0.0
C327 C 0.67989 0.86963 0.11983 0.0
C328 C 0.69488 0.888 0.11852 0.0
C329 C 0.69305 0.9017 0.10618 0.0
C330 C 0.67607 0.8974 0.09514 0.0
C331 C 0.66113 0.87887 0.0964 0.0
C332 C 0.6631 0.86513 0.10837 0.0
C333 C 0.67482 0.80693 0.1217 0.0
C334 C 0.65773 0.79748 0.10959 0.0
C335 C 0.65241 0.78061 0.09801 0.0
C336 C 0.66398 0.77261 0.09836 0.0
C337 C 0.68128 0.78227 0.11013 0.0
C338 C 0.68668 0.79929 0.12155 0.0
C339 C 0.68002 0.82476 0.13427 0.0
C340 C 0.67844 0.8388 0.12212 0.0
C341 C 0.6857 0.82773 0.15833 0.0
C342 C 0.68679 0.81342 0.17294 0.0
C343 C 0.67045 0.79773 0.18098 0.0
C344 C 0.67141 0.78565 0.19759 0.0
C345 C 0.68877 0.78891 0.20632 0.0
C346 C 0.70515 0.80428 0.1973 0.0
C347 C 0.70414 0.81652 0.18103 0.0
H348 H 0.11602 0.83745 0.17976 0.0
H349 H 0.09212 0.81562 0.20721 0.0
H350 H 0.11667 0.78007 0.20377 0.0
H351 H 0.13957 0.80136 0.17538 0.0
H352 H 0.15631 0.85409 0.19019 0.0
H353 H 0.11242 0.82124 0.12681 0.0
H354 H 0.08935 0.79361 0.10537 0.0
H355 H 0.12946 0.77471 0.09918 0.0
H356 H 0.15263 0.80283 0.11962 0.0
H357 H 0.20095 0.8482 0.11531 0.0
H358 H 0.23057 0.86726 0.0951 0.0
H359 H 0.22805 0.91691 0.11246 0.0
H360 H 0.19769 0.89756 0.13117 0.0
H361 H 0.1675 0.84028 0.10812 0.0
H362 H 0.20721 0.86615 0.17875 0.0
H363 H 0.22901 0.8893 0.20664 0.0
H364 H 0.1984 0.91908 0.20227 0.0
H365 H 0.17599 0.89504 0.17558 0.0
C366 C 0.12943 0.82092 0.17543 0.0
C367 C 0.11592 0.82473 0.18462 0.0
C368 C 0.10238 0.81229 0.20052 0.0
C369 C 0.10239 0.796 0.208 0.0
C370 C 0.11581 0.79215 0.19821 0.0
C371 C 0.12906 0.80439 0.18201 0.0
C372 C 0.14514 0.83493 0.1609 0.0
C373 C 0.15855 0.85137 0.17199 0.0
C374 C 0.14829 0.831 0.13752 0.0
C375 C 0.13423 0.81408 0.12478 0.0
C376 C 0.11621 0.81112 0.12076 0.0
C377 C 0.10299 0.79523 0.10859 0.0
C378 C 0.10745 0.78182 0.10041 0.0
C379 C 0.12556 0.78485 0.10467 0.0
C380 C 0.13883 0.80088 0.11653 0.0
C381 C 0.19711 0.87139 0.12516 0.0
C382 C 0.20664 0.86317 0.11457 0.0
C383 C 0.22376 0.87416 0.10322 0.0
C384 C 0.23193 0.89372 0.10234 0.0
C385 C 0.2222 0.90191 0.1126 0.0
C386 C 0.20492 0.89086 0.1237 0.0
C387 C 0.17902 0.85946 0.13755 0.0
C388 C 0.16514 0.84334 0.12609 0.0
C389 C 0.17555 0.86351 0.16081 0.0
C390 C 0.19006 0.87895 0.17512 0.0
C391 C 0.20537 0.87781 0.18365 0.0
C392 C 0.21792 0.8912 0.19951 0.0
C393 C 0.21555 0.90618 0.20694 0.0
C394 C 0.20052 0.9076 0.19749 0.0
C395 C 0.18777 0.89397 0.18201 0.0
H396 H 0.28793 0.16972 0.85874 0.0
H397 H 0.28526 0.19085 0.83073 0.0
H398 H 0.34487 0.22835 0.83549 0.0
H399 H 0.34715 0.20753 0.86427 0.0
H400 H 0.31245 0.15428 0.84969 0.0
H401 H 0.30543 0.19536 0.90653 0.0
H402 H 0.31522 0.22577 0.92473 0.0
H403 H 0.36756 0.22985 0.94494 0.0
H404 H 0.3582 0.20019 0.92562 0.0
H405 H 0.3553 0.15558 0.93342 0.0
H406 H 0.36068 0.13415 0.95719 0.0
H407 H 0.30951 0.08779 0.93029 0.0
H408 H 0.30345 0.10949 0.90816 0.0
H409 H 0.33255 0.1667 0.93374 0.0
H410 H 0.35054 0.14133 0.86997 0.0
H411 H 0.35254 0.11904 0.84372 0.0
H412 H 0.29261 0.09065 0.83393 0.0
H413 H 0.2911 0.11398 0.85905 0.0
C414 C 0.3177 0.18714 0.86371 0.0
C415 C 0.30034 0.18267 0.85399 0.0
C416 C 0.29889 0.19471 0.83781 0.0
C417 C 0.31486 0.21135 0.83061 0.0
C418 C 0.33219 0.2159 0.84083 0.0
C419 C 0.33357 0.20396 0.85725 0.0
C420 C 0.31949 0.17346 0.87888 0.0
C421 C 0.31643 0.1568 0.86825 0.0
C422 C 0.32587 0.17736 0.90264 0.0
C423 C 0.33116 0.19551 0.91434 0.0
C424 C 0.31911 0.20292 0.91461 0.0
C425 C 0.32463 0.22023 0.92532 0.0
C426 C 0.34227 0.2304 0.93619 0.0
C427 C 0.35406 0.22267 0.93634 0.0
C428 C 0.34862 0.20554 0.92549 0.0
C429 C 0.32906 0.13424 0.91865 0.0
C430 C 0.34511 0.14082 0.93281 0.0
C431 C 0.3483 0.12845 0.94622 0.0
C432 C 0.33565 0.1091 0.94562 0.0
C433 C 0.31952 0.10256 0.93151 0.0
C434 C 0.31618 0.11498 0.91842 0.0
C435 C 0.32566 0.14753 0.90451 0.0
C436 C 0.3283 0.16403 0.9153 0.0
C437 C 0.32012 0.14418 0.88042 0.0
C438 C 0.32068 0.12925 0.8665 0.0
C439 C 0.33783 0.13018 0.8623 0.0
C440 C 0.33889 0.11726 0.84736 0.0
C441 C 0.32273 0.10285 0.83652 0.0
C442 C 0.30544 0.10168 0.84143 0.0
C443 C 0.30448 0.11491 0.856 0.0
H444 H 0.83319 0.11155 0.86523 0.0
H445 H 0.81218 0.08749 0.83741 0.0
H446 H 0.77608 0.11147 0.83821 0.0
H447 H 0.79653 0.13453 0.86702 0.0
H448 H 0.84941 0.15154 0.85351 0.0
H449 H 0.81651 0.10849 0.91748 0.0
H450 H 0.78878 0.0853 0.9386 0.0
H451 H 0.76899 0.12479 0.94304 0.0
H452 H 0.79727 0.14813 0.92293 0.0
H453 H 0.84379 0.19727 0.92769 0.0
H454 H 0.86329 0.22684 0.94778 0.0
H455 H 0.91232 0.22308 0.9307 0.0
H456 H 0.89253 0.19281 0.91209 0.0
H457 H 0.83502 0.16359 0.93486 0.0
H458 H 0.86295 0.20386 0.86582 0.0
H459 H 0.88626 0.22525 0.83769 0.0
H460 H 0.91318 0.19182 0.83914 0.0
H461 H 0.88907 0.16997 0.86623 0.0
C462 C 0.81631 0.1247 0.86829 0.0
C463 C 0.82049 0.11127 0.85975 0.0
C464 C 0.80853 0.09765 0.84362 0.0
C465 C 0.79239 0.09749 0.83522 0.0
C466 C 0.78808 0.11076 0.84446 0.0
C467 C 0.79984 0.12409 0.86091 0.0
C468 C 0.83005 0.14068 0.88265 0.0
C469 C 0.84656 0.154 0.87156 0.0
C470 C 0.82591 0.14409 0.90581 0.0
C471 C 0.80895 0.13002 0.91859 0.0
C472 C 0.80619 0.11212 0.92308 0.0
C473 C 0.79022 0.09883 0.93506 0.0
C474 C 0.77646 0.10303 0.9426 0.0
C475 C 0.77935 0.12105 0.93801 0.0
C476 C 0.79547 0.13443 0.92633 0.0
C477 C 0.86663 0.19283 0.91797 0.0
C478 C 0.85872 0.20269 0.92846 0.0
C479 C 0.86997 0.21977 0.93975 0.0
C480 C 0.88949 0.22758 0.94069 0.0
C481 C 0.89736 0.21752 0.93053 0.0
C482 C 0.88605 0.20029 0.91949 0.0
C483 C 0.85449 0.17478 0.9056 0.0
C484 C 0.83819 0.16107 0.91702 0.0
C485 C 0.85866 0.1711 0.88251 0.0
C486 C 0.87432 0.18538 0.86813 0.0
C487 C 0.87404 0.20133 0.86028 0.0
C488 C 0.8875 0.21361 0.84424 0.0
C489 C 0.9017 0.21033 0.8359 0.0
C490 C 0.9023 0.19467 0.84466 0.0
C491 C 0.88863 0.18222 0.86037 0.0
H492 H 0.79538 0.65746 0.88253 0.0
H493 H 0.77007 0.65434 0.85714 0.0
H494 H 0.80886 0.7048 0.82003 0.0
H495 H 0.83383 0.70836 0.84637 0.0
H496 H 0.84673 0.68503 0.84778 0.0
H497 H 0.81407 0.65777 0.94028 0.0
H498 H 0.78784 0.65393 0.96393 0.0
H499 H 0.78869 0.70014 0.92682 0.0
H500 H 0.81609 0.70492 0.90454 0.0
H501 H 0.88515 0.70066 0.93949 0.0
H502 H 0.9047 0.69175 0.96246 0.0
H503 H 0.88667 0.64328 0.91776 0.0
H504 H 0.86682 0.65188 0.89551 0.0
H505 H 0.8475 0.68094 0.93545 0.0
H506 H 0.89938 0.70552 0.87721 0.0
H507 H 0.92175 0.70341 0.85031 0.0
H508 H 0.87635 0.6547 0.81746 0.0
H509 H 0.85423 0.6569 0.84409 0.0
C510 C 0.81652 0.68327 0.86657 0.0
C511 C 0.79832 0.66815 0.86939 0.0
C512 C 0.78389 0.66625 0.8546 0.0
C513 C 0.78739 0.67923 0.83633 0.0
C514 C 0.80552 0.69466 0.83405 0.0
C515 C 0.81989 0.69664 0.849 0.0
C516 C 0.83238 0.68411 0.88011 0.0
C517 C 0.84698 0.6844 0.867 0.0
C518 C 0.83258 0.68299 0.90524 0.0
C519 C 0.81702 0.68149 0.92029 0.0
C520 C 0.80888 0.66734 0.93748 0.0
C521 C 0.79361 0.66497 0.95081 0.0
C522 C 0.78579 0.67647 0.94706 0.0
C523 C 0.79431 0.69103 0.93035 0.0
C524 C 0.80987 0.69363 0.9173 0.0
C525 C 0.87469 0.67709 0.91555 0.0
C526 C 0.88556 0.6882 0.93455 0.0
C527 C 0.89678 0.68314 0.94759 0.0
C528 C 0.89718 0.66675 0.94204 0.0
C529 C 0.88652 0.65586 0.92273 0.0
C530 C 0.87535 0.66092 0.90974 0.0
C531 C 0.86147 0.68141 0.903 0.0
C532 C 0.8474 0.68208 0.91628 0.0
C533 C 0.8613 0.68275 0.878 0.0
C534 C 0.87515 0.68135 0.86264 0.0
C535 C 0.89432 0.69435 0.86428 0.0
C536 C 0.90704 0.6932 0.84887 0.0
C537 C 0.90078 0.67885 0.83188 0.0
C538 C 0.88162 0.66578 0.83054 0.0
C539 C 0.86895 0.66708 0.84565 0.0
H540 H 0.8103 0.69216 0.49819 0.0
H541 H 0.78887 0.69431 0.52589 0.0
H542 H 0.77462 0.64032 0.55472 0.0
H543 H 0.79511 0.63769 0.5257 0.0
H544 H 0.83113 0.65848 0.52465 0.0
H545 H 0.82957 0.6989 0.44223 0.0
H546 H 0.80864 0.70644 0.42093 0.0
H547 H 0.76121 0.6558 0.44707 0.0
H548 H 0.78244 0.64777 0.46749 0.0
H549 H 0.86826 0.64814 0.46543 0.0
H550 H 0.8979 0.6571 0.44557 0.0
H551 H 0.90112 0.7085 0.4225 0.0
H552 H 0.87221 0.69999 0.44345 0.0
H553 H 0.8382 0.67397 0.43897 0.0
H554 H 0.84989 0.6345 0.51277 0.0
H555 H 0.87454 0.63534 0.53767 0.0
H556 H 0.90473 0.69569 0.53325 0.0
H557 H 0.88065 0.69445 0.5072 0.0
C558 C 0.80418 0.66462 0.5095 0.0
C559 C 0.8021 0.68048 0.50988 0.0
C560 C 0.79004 0.68183 0.52611 0.0
C561 C 0.7801 0.66759 0.54284 0.0
C562 C 0.78181 0.65149 0.54199 0.0
C563 C 0.79368 0.65002 0.52549 0.0
C564 C 0.81877 0.66421 0.4944 0.0
C565 C 0.83231 0.66135 0.50575 0.0
C566 C 0.82085 0.66873 0.46987 0.0
C567 C 0.80765 0.6728 0.45667 0.0
C568 C 0.81468 0.68924 0.44319 0.0
C569 C 0.80264 0.69367 0.4312 0.0
C570 C 0.78318 0.68186 0.43248 0.0
C571 C 0.77611 0.66517 0.44557 0.0
C572 C 0.78824 0.66066 0.45748 0.0
C573 C 0.86808 0.67351 0.45632 0.0
C574 C 0.87546 0.66143 0.45632 0.0
C575 C 0.89231 0.66647 0.44466 0.0
C576 C 0.90203 0.68362 0.43255 0.0
C577 C 0.89427 0.69537 0.43202 0.0
C578 C 0.87757 0.69042 0.44381 0.0
C579 C 0.85064 0.66884 0.46946 0.0
C580 C 0.83658 0.67057 0.45773 0.0
C581 C 0.84837 0.66406 0.49379 0.0
C582 C 0.86358 0.66439 0.50803 0.0
C583 C 0.86199 0.64785 0.51699 0.0
C584 C 0.87605 0.64841 0.53142 0.0
C585 C 0.89177 0.6656 0.53767 0.0
C586 C 0.89318 0.68213 0.52851 0.0
C587 C 0.87932 0.68151 0.51373 0.0
H588 H 0.38141 0.22276 0.51759 0.0
H589 H 0.38011 0.24571 0.54369 0.0
H590 H 0.32012 0.21752 0.53462 0.0
H591 H 0.32193 0.19565 0.5073 0.0
H592 H 0.35635 0.18001 0.52629 0.0
H593 H 0.37034 0.23012 0.47081 0.0
H594 H 0.36437 0.25233 0.44963 0.0
H595 H 0.31548 0.20643 0.41753 0.0
H596 H 0.32064 0.18446 0.44029 0.0
H597 H 0.32129 0.14163 0.43846 0.0
H598 H 0.31681 0.1151 0.41485 0.0
H599 H 0.36542 0.11788 0.44767 0.0
H600 H 0.37074 0.14548 0.46966 0.0
H601 H 0.3455 0.17549 0.43944 0.0
H602 H 0.32114 0.1306 0.50489 0.0
H603 H 0.31827 0.10584 0.53103 0.0
H604 H 0.37811 0.13619 0.54195 0.0
H605 H 0.38045 0.1615 0.51711 0.0
C606 C 0.3518 0.20767 0.51038 0.0
C607 C 0.36806 0.22179 0.52104 0.0
C608 C 0.36722 0.23478 0.53618 0.0
C609 C 0.34998 0.23359 0.54154 0.0
C610 C 0.33373 0.21933 0.53066 0.0
C611 C 0.33468 0.20664 0.51511 0.0
C612 C 0.3524 0.19316 0.4956 0.0
C613 C 0.35437 0.17922 0.5072 0.0
C614 C 0.34893 0.19175 0.47087 0.0
C615 C 0.34576 0.20554 0.45762 0.0
C616 C 0.35809 0.22484 0.45966 0.0
C617 C 0.35484 0.23756 0.44711 0.0
C618 C 0.33936 0.23128 0.43184 0.0
C619 C 0.3273 0.21191 0.42947 0.0
C620 C 0.33038 0.19925 0.44231 0.0
C621 C 0.34621 0.14551 0.45622 0.0
C622 C 0.33112 0.13667 0.44043 0.0
C623 C 0.32843 0.12126 0.42711 0.0
C624 C 0.3406 0.11406 0.42944 0.0
C625 C 0.35581 0.12303 0.44514 0.0
C626 C 0.35868 0.13868 0.45816 0.0
C627 C 0.34896 0.16203 0.47018 0.0
C628 C 0.34772 0.1764 0.45847 0.0
C629 C 0.35219 0.16347 0.49495 0.0
C630 C 0.35099 0.1478 0.50908 0.0
C631 C 0.33362 0.13181 0.51288 0.0
C632 C 0.33207 0.11756 0.52773 0.0
C633 C 0.34796 0.11883 0.5388 0.0
C634 C 0.36546 0.13477 0.5343 0.0
C635 C 0.3669 0.14922 0.51989 0.0
H636 H 0.79378 0.16243 0.52942 0.0
H637 H 0.77365 0.13818 0.5574 0.0
H638 H 0.78977 0.1006 0.52589 0.0
H639 H 0.81091 0.12537 0.49923 0.0
H640 H 0.83015 0.17811 0.52902 0.0
H641 H 0.78177 0.1404 0.47059 0.0
H642 H 0.76227 0.11113 0.44926 0.0
H643 H 0.81196 0.11346 0.42076 0.0
H644 H 0.83122 0.14186 0.44305 0.0
H645 H 0.8748 0.18759 0.44904 0.0
H646 H 0.90227 0.21175 0.42886 0.0
H647 H 0.88545 0.25217 0.44679 0.0
H648 H 0.85861 0.22794 0.46843 0.0
H649 H 0.83684 0.17475 0.44207 0.0
H650 H 0.88364 0.20234 0.49901 0.0
H651 H 0.90754 0.22327 0.52655 0.0
H652 H 0.86722 0.23405 0.5613 0.0
H653 H 0.8436 0.21402 0.53245 0.0
C654 C 0.80379 0.14576 0.512 0.0
C655 C 0.79284 0.14889 0.5284 0.0
C656 C 0.78117 0.13491 0.5443 0.0
C657 C 0.78007 0.11736 0.5441 0.0
C658 C 0.79046 0.11401 0.52693 0.0
C659 C 0.80236 0.12811 0.51131 0.0
C660 C 0.81814 0.16154 0.49762 0.0
C661 C 0.83124 0.17761 0.50987 0.0
C662 C 0.82027 0.16036 0.47279 0.0
C663 C 0.80802 0.14327 0.45876 0.0
C664 C 0.78844 0.13452 0.45987 0.0
C665 C 0.7773 0.11788 0.44743 0.0
C666 C 0.78553 0.10979 0.43346 0.0
C667 C 0.8051 0.11901 0.43173 0.0
C668 C 0.81618 0.13544 0.44429 0.0
C669 C 0.8647 0.20598 0.46025 0.0
C670 C 0.87702 0.20166 0.44852 0.0
C671 C 0.8927 0.21556 0.43677 0.0
C672 C 0.89619 0.23407 0.43588 0.0
C673 C 0.88352 0.23823 0.44733 0.0
C674 C 0.86804 0.22436 0.45959 0.0
C675 C 0.84858 0.19121 0.47353 0.0
C676 C 0.83526 0.17545 0.4611 0.0
C677 C 0.84675 0.19219 0.49836 0.0
C678 C 0.86182 0.2068 0.51327 0.0
C679 C 0.88006 0.20976 0.5119 0.0
C680 C 0.89368 0.22149 0.52804 0.0
C681 C 0.8893 0.2302 0.54641 0.0
C682 C 0.87119 0.22775 0.54728 0.0
C683 C 0.85761 0.21618 0.53087 0.0
H684 H 0.97118 0.52683 0.21136 0.0
H685 H 0.96983 0.54979 0.18496 0.0
H686 H 0.01409 0.55143 0.14234 0.0
H687 H 0.01553 0.52884 0.16876 0.0
H688 H 0.99006 0.49396 0.17779 0.0
H689 H 0.98095 0.51938 0.27113 0.0
H690 H 0.98977 0.54849 0.29251 0.0
H691 H 0.03353 0.57896 0.24124 0.0
H692 H 0.0251 0.54992 0.22055 0.0
H693 H 0.0281 0.49543 0.26357 0.0
H694 H 0.03644 0.4755 0.28588 0.0
H695 H 0.98711 0.42669 0.25965 0.0
H696 H 0.97822 0.44689 0.2383 0.0
H697 H 1.00243 0.50336 0.26414 0.0
H698 H 0.02262 0.47361 0.20845 0.0
H699 H 0.02482 0.45117 0.1826 0.0
H700 H 0.97134 0.43663 0.15181 0.0
H701 H 0.96862 0.45804 0.17905 0.0
C702 C 0.99347 0.52613 0.19206 0.0
C703 C 0.98066 0.53226 0.19641 0.0
C704 C 0.97983 0.54529 0.18126 0.0
C705 C 0.99192 0.5525 0.16162 0.0
C706 C 0.00477 0.54638 0.15748 0.0
C707 C 0.0055 0.53332 0.17246 0.0
C708 C 0.99431 0.51197 0.20747 0.0
C709 C 0.99249 0.49582 0.19677 0.0
C710 C 0.9979 0.51471 0.23211 0.0
C711 C 1.0022 0.53246 0.24406 0.0
C712 C 0.99237 0.53238 0.26445 0.0
C713 C 0.99735 0.54903 0.27657 0.0
C714 C 0.01241 0.56605 0.26865 0.0
C715 C 0.02202 0.56608 0.24801 0.0
C716 C 0.01705 0.54949 0.23595 0.0
C717 C 1.0026 0.47274 0.24898 0.0
C718 C 0.01885 0.48046 0.26289 0.0
C719 C 0.02375 0.46899 0.27545 0.0
C720 C 0.01262 0.44943 0.2743 0.0
C721 C 0.99598 0.44168 0.26103 0.0
C722 C 0.99098 0.45322 0.24859 0.0
C723 C 0.99844 0.48528 0.23441 0.0
C724 C 0.99945 0.50111 0.24531 0.0
C725 C 0.99489 0.48261 0.20966 0.0
C726 C 0.99534 0.46741 0.196 0.0
C727 C 0.01106 0.46513 0.19674 0.0
C728 C 0.01244 0.45248 0.18157 0.0
C729 C 0.99837 0.44216 0.16478 0.0
C730 C 0.98237 0.44407 0.16462 0.0
C731 C 0.98086 0.45648 0.18009 0.0
H732 H 0.49419 0.45602 0.17836 0.0
H733 H 0.46963 0.43521 0.15127 0.0
H734 H 0.43126 0.44912 0.18539 0.0
H735 H 0.45631 0.47087 0.21136 0.0
H736 H 0.50789 0.49268 0.17851 0.0
H737 H 0.47339 0.4427 0.23763 0.0
H738 H 0.44452 0.42286 0.25969 0.0
H739 H 0.44744 0.47209 0.29062 0.0
H740 H 0.47541 0.4917 0.26771 0.0
H741 H 0.53044 0.54624 0.22964 0.0
H742 H 0.55337 0.57366 0.25156 0.0
H743 H 0.57058 0.53939 0.28958 0.0
H744 H 0.54772 0.51197 0.26721 0.0
H745 H 0.50851 0.4976 0.26616 0.0
H746 H 0.51589 0.52769 0.17444 0.0
H747 H 0.53808 0.55264 0.1488 0.0
H748 H 0.58362 0.55052 0.18337 0.0
H749 H 0.56111 0.52503 0.2088 0.0
C750 C 0.47713 0.46494 0.19708 0.0
C751 C 0.48042 0.45441 0.18019 0.0
C752 C 0.46625 0.44236 0.1648 0.0
C753 C 0.44837 0.44045 0.16598 0.0
C754 C 0.4449 0.45042 0.18364 0.0
C755 C 0.45917 0.46268 0.19882 0.0
C756 C 0.49302 0.47973 0.21076 0.0
C757 C 0.5081 0.49357 0.19773 0.0
C758 C 0.49299 0.48129 0.23583 0.0
C759 C 0.47649 0.46876 0.25066 0.0
C760 C 0.46775 0.4492 0.24911 0.0
C761 C 0.45135 0.43786 0.26194 0.0
C762 C 0.4435 0.44588 0.27672 0.0
C763 C 0.45281 0.46542 0.27902 0.0
C764 C 0.469 0.47668 0.2661 0.0
C765 C 0.53753 0.52711 0.24661 0.0
C766 C 0.53929 0.54466 0.2425 0.0
C767 C 0.55227 0.56028 0.25522 0.0
C768 C 0.56374 0.55867 0.27239 0.0
C769 C 0.56206 0.5411 0.27634 0.0
C770 C 0.54896 0.52543 0.26367 0.0
C771 C 0.52315 0.51041 0.23382 0.0
C772 C 0.50843 0.49631 0.24699 0.0
C773 C 0.52284 0.50916 0.2088 0.0
C774 C 0.5368 0.52448 0.19358 0.0
C775 C 0.53064 0.53252 0.17649 0.0
C776 C 0.54338 0.54695 0.16199 0.0
C777 C 0.56265 0.5537 0.16417 0.0
C778 C 0.56886 0.54558 0.18121 0.0
C779 C 0.55604 0.5311 0.19584 0.0
H780 H 0.549 0.03797 0.18762 0.0
H781 H 0.57237 0.0395 0.15988 0.0
H782 H 0.55991 0.98431 0.1817 0.0
H783 H 0.53581 0.9825 0.20846 0.0
H784 H 0.5126 0.01401 0.18479 0.0
H785 H 0.56119 0.02507 0.24297 0.0
H786 H 0.58239 0.01668 0.26266 0.0
H787 H 0.53497 0.96499 0.28638 0.0
H788 H 0.5141 0.97289 0.2656 0.0
H789 H 0.47167 0.97347 0.26825 0.0
H790 H 0.44328 0.96614 0.2897 0.0
H791 H 0.44669 0.01686 0.26337 0.0
H792 H 0.47586 0.0247 0.24296 0.0
H793 H 0.50546 0.99818 0.27032 0.0
H794 H 0.45843 0.98007 0.21239 0.0
H795 H 0.43432 0.97845 0.18613 0.0
H796 H 0.47371 0.03253 0.15724 0.0
H797 H 0.49738 0.03465 0.1849 0.0
C798 C 0.54072 0.01021 0.20035 0.0
C799 C 0.55141 0.02625 0.18657 0.0
C800 C 0.56491 0.02716 0.17082 0.0
C801 C 0.56811 0.01202 0.16846 0.0
C802 C 0.55771 0.99614 0.18277 0.0
C803 C 0.54406 0.99518 0.19837 0.0
C804 C 0.52506 0.00868 0.21508 0.0
C805 C 0.51123 0.01099 0.20365 0.0
C806 C 0.52282 0.00369 0.23943 0.0
C807 C 0.536 0.9995 0.25243 0.0
C808 C 0.55539 0.01186 0.25224 0.0
C809 C 0.5675 0.00714 0.26377 0.0
C810 C 0.56044 0.99005 0.27596 0.0
C811 C 0.54099 0.97806 0.27676 0.0
C812 C 0.52897 0.98268 0.26507 0.0
C813 C 0.4759 0.99956 0.25371 0.0
C814 C 0.46652 0.9832 0.26733 0.0
C815 C 0.45009 0.9789 0.27941 0.0
C816 C 0.44248 0.99076 0.27804 0.0
C817 C 0.45217 0.00744 0.26495 0.0
C818 C 0.46876 0.01184 0.25302 0.0
C819 C 0.49289 0.00337 0.23997 0.0
C820 C 0.50699 1.00158 0.25156 0.0
C821 C 0.49494 0.00789 0.21547 0.0
C822 C 0.47973 0.00761 0.20096 0.0
C823 C 0.46175 0.99186 0.20097 0.0
C824 C 0.44801 0.99082 0.18557 0.0
C825 C 0.45203 0.00527 0.16928 0.0
C826 C 0.46994 0.02122 0.16968 0.0
C827 C 0.48359 0.02238 0.18538 0.0
H828 H 0.4742 0.0224 0.83021 0.0
H829 H 0.45227 0.02404 0.85747 0.0
H830 H 0.44229 0.97266 0.89051 0.0
H831 H 0.46334 0.97043 0.86193 0.0
H832 H 0.49922 0.99358 0.85947 0.0
H833 H 0.489 0.02942 0.78096 0.0
H834 H 0.46423 0.03209 0.76135 0.0
H835 H 0.42565 0.97381 0.77636 0.0
H836 H 0.45037 0.97184 0.79756 0.0
H837 H 0.53503 0.98116 0.80138 0.0
H838 H 0.56396 0.98901 0.78036 0.0
H839 H 0.56546 0.03818 0.75149 0.0
H840 H 0.5372 0.0308 0.77342 0.0
H841 H 0.50313 0.00445 0.77263 0.0
H842 H 0.51495 0.97213 0.85821 0.0
H843 H 0.53933 0.97522 0.88536 0.0
H844 H 0.57659 0.03023 0.85728 0.0
H845 H 0.55185 0.02733 0.83086 0.0
C846 C 0.47025 0.99611 0.84364 0.0
C847 C 0.46677 0.01108 0.84266 0.0
C848 C 0.45445 0.01219 0.85865 0.0
C849 C 0.44563 0.99861 0.87645 0.0
C850 C 0.44864 0.98328 0.87693 0.0
C851 C 0.46081 0.98206 0.86068 0.0
C852 C 0.48528 0.99633 0.82881 0.0
C853 C 0.49984 0.99539 0.84036 0.0
C854 C 0.48645 0.99945 0.80403 0.0
C855 C 0.47149 1.00047 0.79076 0.0
C856 C 0.47519 0.01722 0.77991 0.0
C857 C 0.46095 0.01864 0.76849 0.0
C858 C 0.44274 0.00314 0.76701 0.0
C859 C 0.43928 0.98619 0.77744 0.0
C860 C 0.45346 0.98495 0.78941 0.0
C861 C 0.53404 0.00554 0.78934 0.0
C862 C 0.54166 0.99369 0.79063 0.0
C863 C 0.5581 0.99808 0.77836 0.0
C864 C 0.56717 0.01432 0.76436 0.0
C865 C 0.55909 0.02576 0.76245 0.0
C866 C 0.54278 0.02145 0.77482 0.0
C867 C 0.51719 1.00171 0.80333 0.0
C868 C 0.50232 1.00205 0.79163 0.0
C869 C 0.5159 0.99832 0.82811 0.0
C870 C 0.53156 0.99942 0.84235 0.0
C871 C 0.52844 0.98478 0.85772 0.0
C872 C 0.54247 0.98652 0.87313 0.0
C873 C 0.55996 0.003 0.87356 0.0
C874 C 0.56324 0.01743 0.85761 0.0
C875 C 0.54916 0.0157 0.84227 0.0
H876 H 0.03646 0.54775 0.85888 0.0
H877 H 0.03387 0.56955 0.88564 0.0
H878 H 0.9801 0.55439 0.85537 0.0
H879 H 0.98239 0.53191 0.8295 0.0
H880 H 0.01317 0.51085 0.86091 0.0
H881 H 0.02842 0.55914 0.80055 0.0
H882 H 0.0205 0.58001 0.77902 0.0
H883 H 0.97119 0.53209 0.75111 0.0
H884 H 0.97862 0.51147 0.77346 0.0
H885 H 0.97823 0.45595 0.81522 0.0
H886 H 0.97045 0.42705 0.79459 0.0
H887 H 0.01788 0.45739 0.74816 0.0
H888 H 0.02598 0.48632 0.76954 0.0
H889 H 0.00421 0.50305 0.77385 0.0
H890 H 0.98555 0.47611 0.86744 0.0
H891 H 0.98316 0.45141 0.89335 0.0
H892 H 0.02876 0.45141 0.85586 0.0
H893 H 0.03123 0.47648 0.8299 0.0
C894 C 0.0097 0.53827 0.84203 0.0
C895 C 0.02423 0.54932 0.85778 0.0
C896 C 0.02278 0.56191 0.87298 0.0
C897 C 0.00673 0.56372 0.87277 0.0
C898 C 0.99254 0.55318 0.85625 0.0
C899 C 0.99394 0.54049 0.84119 0.0
C900 C 0.01014 0.52301 0.82861 0.0
C901 C 0.01153 0.50934 0.84179 0.0
C902 C 0.00745 0.52077 0.80371 0.0
C903 C 0.00399 0.53369 0.78895 0.0
C904 C 0.01589 0.55315 0.78981 0.0
C905 C 0.01145 0.56507 0.77729 0.0
C906 C 0.99508 0.55775 0.76353 0.0
C907 C 0.98369 0.53825 0.7619 0.0
C908 C 0.98806 0.5264 0.7745 0.0
C909 C 1.00286 0.47327 0.79417 0.0
C910 C 0.98716 0.45636 0.80088 0.0
C911 C 0.98259 0.43987 0.78885 0.0
C912 C 0.99348 0.43992 0.76961 0.0
C913 C 0.00931 0.45685 0.76302 0.0
C914 C 0.01389 0.4734 0.77513 0.0
C915 C 0.00704 0.4909 0.80626 0.0
C916 C 0.00648 0.50495 0.79285 0.0
C917 C 0.00954 0.49311 0.83111 0.0
C918 C 0.00855 0.47815 0.84671 0.0
C919 C 0.9951 0.47088 0.86481 0.0
C920 C 0.99364 0.45663 0.87948 0.0
C921 C 0.00568 0.44936 0.87653 0.0
C922 C 0.01933 0.45678 0.85858 0.0
C923 C 0.02069 0.47101 0.84369 0.0
H924 H 0.45901 0.49928 0.86328 0.0
H925 H 0.43845 0.47445 0.89042 0.0
H926 H 0.45276 0.43665 0.85563 0.0
H927 H 0.47418 0.46185 0.82963 0.0
H928 H 0.49498 0.51483 0.86091 0.0
H929 H 0.44535 0.48021 0.80532 0.0
H930 H 0.42301 0.45216 0.78395 0.0
H931 H 0.46872 0.45004 0.74963 0.0
H932 H 0.49088 0.47727 0.77216 0.0
H933 H 0.53393 0.52093 0.77369 0.0
H934 H 0.56113 0.54335 0.75149 0.0
H935 H 0.55703 0.58856 0.784 0.0
H936 H 0.52877 0.56586 0.80479 0.0
H937 H 0.49985 0.51114 0.77371 0.0
H938 H 0.54872 0.54091 0.83228 0.0
H939 H 0.57177 0.56461 0.85864 0.0
H940 H 0.52874 0.57348 0.88896 0.0
H941 H 0.50609 0.55068 0.86147 0.0
C942 C 0.46809 0.48248 0.84423 0.0
C943 C 0.45762 0.4856 0.86141 0.0
C944 C 0.4457 0.4713 0.8768 0.0
C945 C 0.44392 0.45348 0.87534 0.0
C946 C 0.45396 0.45023 0.85757 0.0
C947 C 0.46604 0.4646 0.84239 0.0
C948 C 0.48231 0.49827 0.82973 0.0
C949 C 0.49582 0.51422 0.84174 0.0
C950 C 0.48368 0.49719 0.80476 0.0
C951 C 0.46987 0.48077 0.79072 0.0
C952 C 0.45056 0.4736 0.79337 0.0
C953 C 0.43777 0.45765 0.78086 0.0
C954 C 0.44399 0.44866 0.76512 0.0
C955 C 0.46334 0.45628 0.76194 0.0
C956 C 0.47609 0.47205 0.77464 0.0
C957 C 0.52933 0.54161 0.79125 0.0
C958 C 0.53869 0.53566 0.77584 0.0
C959 C 0.55449 0.54858 0.76335 0.0
C960 C 0.56161 0.56789 0.76617 0.0
C961 C 0.55197 0.57385 0.78122 0.0
C962 C 0.53591 0.56085 0.79342 0.0
C963 C 0.51287 0.52748 0.805 0.0
C964 C 0.49885 0.5119 0.79283 0.0
C965 C 0.51119 0.52873 0.8299 0.0
C966 C 0.52566 0.54413 0.84462 0.0
C967 C 0.54434 0.54831 0.84416 0.0
C968 C 0.55748 0.56171 0.85955 0.0
C969 C 0.55217 0.57096 0.87616 0.0
C970 C 0.53349 0.56693 0.87625 0.0
C971 C 0.52044 0.55372 0.86065 0.0
H972 H 0.62742 0.83791 0.51592 0.0
H973 H 0.6269 0.86073 0.48902 0.0
H974 H 0.67912 0.90356 0.51857 0.0
H975 H 0.68001 0.88036 0.54453 0.0
H976 H 0.65336 0.82788 0.51381 0.0
H977 H 0.63498 0.85889 0.57295 0.0
H978 H 0.64042 0.8867 0.59478 0.0
H979 H 0.69005 0.89057 0.62583 0.0
H980 H 0.68541 0.86389 0.60257 0.0
H981 H 0.6904 0.81036 0.55976 0.0
H982 H 0.69968 0.7907 0.58125 0.0
H983 H 0.65239 0.77279 0.62817 0.0
H984 H 0.64276 0.79207 0.60593 0.0
H985 H 0.66231 0.82992 0.6009 0.0
H986 H 0.68316 0.82296 0.5083 0.0
H987 H 0.68615 0.8015 0.48138 0.0
H988 H 0.64049 0.75474 0.51705 0.0
H989 H 0.6375 0.77648 0.54414 0.0
C990 C 0.65369 0.85739 0.53238 0.0
C991 C 0.63865 0.85228 0.51679 0.0
C992 C 0.63831 0.86542 0.50152 0.0
C993 C 0.65301 0.88405 0.50148 0.0
C994 C 0.6677 0.8893 0.51782 0.0
C995 C 0.66811 0.87609 0.53295 0.0
C996 C 0.65514 0.84275 0.54598 0.0
C997 C 0.65508 0.82825 0.53293 0.0
C998 C 0.65792 0.84351 0.57089 0.0
C999 C 0.65996 0.85941 0.58566 0.0
C1000 C 0.64715 0.86586 0.58425 0.0
C1001 C 0.65015 0.88167 0.59705 0.0
C1002 C 0.66584 0.89115 0.61193 0.0
C1003 C 0.67811 0.88406 0.6141 0.0
C1004 C 0.6753 0.86854 0.60102 0.0
C1005 C 0.66571 0.80249 0.58098 0.0
C1006 C 0.68179 0.80192 0.57435 0.0
C1007 C 0.68723 0.79085 0.58689 0.0
C1008 C 0.67685 0.78023 0.60655 0.0
C1009 C 0.6606 0.78063 0.61299 0.0
C1010 C 0.65514 0.79173 0.60038 0.0
C1011 C 0.6607 0.81528 0.56862 0.0
C1012 C 0.66013 0.82941 0.58187 0.0
C1013 C 0.65825 0.8148 0.54375 0.0
C1014 C 0.66012 0.80133 0.52823 0.0
C1015 C 0.6738 0.80809 0.5104 0.0
C1016 C 0.67559 0.7958 0.49514 0.0
C1017 C 0.66361 0.77644 0.49718 0.0
C1018 C 0.64986 0.76961 0.51503 0.0
C1019 C 0.6482 0.78197 0.53056 0.0
H1020 H 0.16825 0.7909 0.50821 0.0
H1021 H 0.14391 0.77109 0.48015 0.0
H1022 H 0.10603 0.78583 0.51388 0.0
H1023 H 0.13082 0.80667 0.54059 0.0
H1024 H 0.18456 0.82635 0.51069 0.0
H1025 H 0.14851 0.77798 0.56655 0.0
H1026 H 0.12025 0.75585 0.58776 0.0
H1027 H 0.11748 0.80187 0.62 0.0
H1028 H 0.14494 0.82382 0.59759 0.0
H1029 H 0.19116 0.872 0.58657 0.0
H1030 H 0.21426 0.90021 0.60655 0.0
H1031 H 0.25538 0.88286 0.59721 0.0
H1032 H 0.23229 0.85525 0.57564 0.0
H1033 H 0.17878 0.83323 0.59713 0.0
H1034 H 0.21037 0.88038 0.53835 0.0
H1035 H 0.23431 0.903 0.51204 0.0
H1036 H 0.24344 0.85959 0.48369 0.0
H1037 H 0.22041 0.83731 0.51145 0.0
C1038 C 0.15144 0.80027 0.52671 0.0
C1039 C 0.15466 0.78977 0.50966 0.0
C1040 C 0.14061 0.77826 0.49372 0.0
C1041 C 0.12294 0.77687 0.49454 0.0
C1042 C 0.11953 0.78677 0.51234 0.0
C1043 C 0.13366 0.79851 0.52799 0.0
C1044 C 0.16711 0.81439 0.54148 0.0
C1045 C 0.18349 0.82749 0.52974 0.0
C1046 C 0.16547 0.81626 0.56627 0.0
C1047 C 0.14879 0.80264 0.58012 0.0
C1048 C 0.1417 0.78331 0.57799 0.0
C1049 C 0.12564 0.77064 0.59042 0.0
C1050 C 0.11642 0.777 0.60556 0.0
C1051 C 0.1239 0.79639 0.60816 0.0
C1052 C 0.13981 0.80901 0.59554 0.0
C1053 C 0.21002 0.86158 0.5796 0.0
C1054 C 0.20515 0.87428 0.58894 0.0
C1055 C 0.21843 0.89039 0.60059 0.0
C1056 C 0.23685 0.89397 0.60382 0.0
C1057 C 0.24152 0.8809 0.59481 0.0
C1058 C 0.22829 0.86497 0.58263 0.0
C1059 C 0.19596 0.84507 0.5662 0.0
C1060 C 0.17996 0.83163 0.57821 0.0
C1061 C 0.19786 0.84289 0.54163 0.0
C1062 C 0.21374 0.85713 0.52728 0.0
C1063 C 0.21798 0.87583 0.52714 0.0
C1064 C 0.23148 0.88872 0.51167 0.0
C1065 C 0.24073 0.88314 0.49544 0.0
C1066 C 0.23682 0.86451 0.49606 0.0
C1067 C 0.2235 0.85168 0.51183 0.0
H1068 H 0.14076 0.31571 0.5096 0.0
H1069 H 0.11665 0.31408 0.48315 0.0
H1070 H 0.11782 0.36048 0.51992 0.0
H1071 H 0.14214 0.36204 0.54665 0.0
H1072 H 0.17618 0.3442 0.51581 0.0
H1073 H 0.12042 0.30853 0.56058 0.0
H1074 H 0.09171 0.30024 0.5821 0.0
H1075 H 0.12273 0.34576 0.63089 0.0
H1076 H 0.15142 0.35442 0.60864 0.0
H1077 H 0.22368 0.35832 0.5778 0.0
H1078 H 0.24447 0.34972 0.59803 0.0
H1079 H 0.1966 0.29797 0.62067 0.0
H1080 H 0.17609 0.30614 0.59926 0.0
H1081 H 0.1676 0.33262 0.60245 0.0
H1082 H 0.22134 0.36978 0.5338 0.0
H1083 H 0.24504 0.36883 0.50875 0.0
H1084 H 0.21072 0.30868 0.5045 0.0
H1085 H 0.18795 0.30986 0.53082 0.0
C1086 C 0.14324 0.33898 0.53012 0.0
C1087 C 0.13585 0.32555 0.51202 0.0
C1088 C 0.12198 0.32455 0.49701 0.0
C1089 C 0.11528 0.33709 0.49955 0.0
C1090 C 0.12277 0.35068 0.51755 0.0
C1091 C 0.13657 0.35152 0.53285 0.0
C1092 C 0.1581 0.33971 0.54566 0.0
C1093 C 0.17444 0.34205 0.53485 0.0
C1094 C 0.1557 0.33657 0.57044 0.0
C1095 C 0.13807 0.3323 0.58273 0.0
C1096 C 0.12102 0.317 0.57558 0.0
C1097 C 0.10462 0.31211 0.58814 0.0
C1098 C 0.10491 0.32226 0.60835 0.0
C1099 C 0.12197 0.33775 0.61529 0.0
C1100 C 0.13839 0.34266 0.60266 0.0
C1101 C 0.19831 0.33272 0.58652 0.0
C1102 C 0.21769 0.34503 0.58689 0.0
C1103 C 0.22956 0.3402 0.59879 0.0
C1104 C 0.22227 0.32303 0.61082 0.0
C1105 C 0.20278 0.31111 0.61119 0.0
C1106 C 0.19098 0.31587 0.59915 0.0
C1107 C 0.18557 0.33692 0.57251 0.0
C1108 C 0.16966 0.33556 0.58359 0.0
C1109 C 0.18801 0.34041 0.54783 0.0
C1110 C 0.20309 0.33987 0.53436 0.0
C1111 C 0.21921 0.35641 0.52778 0.0
C1112 C 0.23264 0.35581 0.51321 0.0
C1113 C 0.22991 0.33867 0.50437 0.0
C1114 C 0.21367 0.32213 0.51127 0.0
C1115 C 0.2005 0.32274 0.52622 0.0
H1116 H 0.02255 0.40707 0.08209 0.0
H1117 H 0.96348 0.36729 0.08186 0.0
H1118 H 0.9591 0.38313 0.11588 0.0
H1119 H 0.97198 0.409 0.14478 0.0
H1120 H 0.03086 0.44974 0.14255 0.0
H1121 H 0.03535 0.43247 0.11086 0.0
C1122 C 0.0087 0.40172 0.08952 0.0
C1123 C 0.99337 0.38599 0.07933 0.0
C1124 C 0.00624 0.41104 0.10879 0.0
C1125 C 0.97554 0.37938 0.08926 0.0
C1126 C 0.97303 0.38845 0.10873 0.0
C1127 C 0.98579 0.41419 0.13733 0.0
C1128 C 1.00104 0.43071 0.14633 0.0
C1129 C 0.98826 0.40444 0.11847 0.0
C1130 C 0.01887 0.43693 0.13654 0.0
C1131 C 0.02146 0.42715 0.11815 0.0
H1132 H 0.60551 0.61945 0.09133 0.0
H1133 H 0.63647 0.59075 0.08022 0.0
H1134 H 0.61896 0.56893 0.11215 0.0
H1135 H 0.59293 0.55637 0.14089 0.0
H1136 H 0.56222 0.58535 0.15169 0.0
H1137 H 0.58153 0.60861 0.12218 0.0
C1138 C 0.60858 0.60854 0.09599 0.0
C1139 C 0.62218 0.60667 0.08318 0.0
C1140 C 0.59836 0.59595 0.1142 0.0
C1141 C 0.62606 0.59252 0.0897 0.0
C1142 C 0.61599 0.57997 0.10792 0.0
C1143 C 0.59069 0.56796 0.13709 0.0
C1144 C 0.57596 0.56894 0.14827 0.0
C1145 C 0.60184 0.58132 0.11998 0.0
C1146 C 0.5732 0.58403 0.14301 0.0
C1147 C 0.58428 0.59739 0.12619 0.0
H1148 H 0.3927 0.98322 0.08714 0.0
H1149 H 0.41174 0.04223 0.08984 0.0
H1150 H 0.43214 0.04575 0.12326 0.0
H1151 H 0.44534 0.03218 0.15083 0.0
H1152 H 0.42742 0.97344 0.14573 0.0
H1153 H 0.40557 0.96974 0.11455 0.0
C1154 C 0.40118 0.99687 0.0951 0.0
C1155 C 0.40066 0.01243 0.08591 0.0
C1156 C 0.41308 0.99885 0.114 0.0
C1157 C 0.41186 0.03 0.09648 0.0
C1158 C 0.42355 0.03203 0.1156 0.0
C1159 C 0.43674 0.01858 0.14285 0.0
C1160 C 0.43807 0.00312 0.1509 0.0
C1161 C 0.42445 0.01658 0.12433 0.0
C1162 C 0.42653 0.98556 0.14044 0.0
C1163 C 0.4141 0.98343 0.12235 0.0
H1164 H 0.41179 0.02349 0.95978 0.0
H1165 H 0.37247 0.96433 0.96194 0.0
H1166 H 0.38803 0.95952 0.92793 0.0
H1167 H 0.41349 0.97212 0.8983 0.0
H1168 H 0.45339 0.03123 0.89811 0.0
H1169 H 0.43667 0.036 0.93031 0.0
C1170 C 0.4065 0.00952 0.9528 0.0
C1171 C 0.39098 0.9943 0.96351 0.0
C1172 C 0.4156 0.00683 0.93347 0.0
C1173 C 0.3844 0.97631 0.95412 0.0
C1174 C 0.39331 0.97355 0.93466 0.0
C1175 C 0.41857 0.98603 0.90534 0.0
C1176 C 0.43466 1.00128 0.89554 0.0
C1177 C 0.40906 0.98869 0.92434 0.0
C1178 C 0.44086 0.01924 0.90482 0.0
C1179 C 0.4314 0.022 0.92346 0.0
H1180 H 0.98311 0.38352 0.94901 0.0
H1181 H 0.0427 0.41241 0.96021 0.0
H1182 H 0.04693 0.43431 0.92841 0.0
H1183 H 0.03338 0.44677 0.89954 0.0
H1184 H 0.97372 0.41788 0.88925 0.0
H1185 H 0.96987 0.3945 0.91855 0.0
C1186 C 0.99707 0.39449 0.94441 0.0
C1187 C 0.01254 0.39637 0.95719 0.0
C1188 C 0.99938 0.40716 0.92634 0.0
C1189 C 0.03052 0.41063 0.95077 0.0
C1190 C 0.03295 0.42322 0.93261 0.0
C1191 C 0.01959 0.43518 0.90346 0.0
C1192 C 1.00384 0.43418 0.89242 0.0
C1193 C 0.01745 0.42183 0.92057 0.0
C1194 C 0.98603 0.41914 0.89778 0.0
C1195 C 0.98382 0.40574 0.91449 0.0
H1196 H 0.59974 0.629 0.95678 0.0
H1197 H 0.62445 0.59368 0.95933 0.0
H1198 H 0.60481 0.57514 0.92666 0.0
H1199 H 0.57946 0.56764 0.8989 0.0
H1200 H 0.55524 0.60327 0.89454 0.0
H1201 H 0.57563 0.62271 0.92649 0.0
C1202 C 0.60092 0.61733 0.95008 0.0
C1203 C 0.61353 0.61275 0.96073 0.0
C1204 C 0.58953 0.6066 0.93106 0.0
C1205 C 0.61489 0.5976 0.95165 0.0
C1206 C 0.60361 0.58689 0.93292 0.0
C1207 C 0.57884 0.57987 0.90449 0.0
C1208 C 0.56568 0.58383 0.89426 0.0
C1209 C 0.59075 0.59113 0.92267 0.0
C1210 C 0.56496 0.5996 0.90229 0.0
C1211 C 0.57671 0.61083 0.92051 0.0
H1212 H 0.98426 0.59907 0.95686 0.0
H1213 H 0.04267 0.64069 0.95202 0.0
H1214 H 0.04614 0.62458 0.91771 0.0
H1215 H 0.03292 0.59779 0.89032 0.0
H1216 H 0.97479 0.5556 0.89671 0.0
H1217 H 0.97087 0.57307 0.92879 0.0
C1218 C 0.99775 0.60474 0.94825 0.0
C1219 C 0.0132 0.62103 0.95717 0.0
C1220 C 0.99971 0.59531 0.9287 0.0
C1221 C 0.03053 0.62815 0.94564 0.0
C1222 C 0.03254 0.61892 0.92601 0.0
C1223 C 0.01939 0.5924 0.89873 0.0
C1224 C 0.0042 0.57535 0.891 0.0
C1225 C 0.01729 0.60233 0.91761 0.0
C1226 C 0.9867 0.56878 0.90192 0.0
C1227 C 0.98446 0.57869 0.92048 0.0
H1228 H 0.4091 0.39116 0.95454 0.0
H1229 H 0.36823 0.40911 0.95655 0.0
H1230 H 0.38424 0.43082 0.92389 0.0
H1231 H 0.41054 0.44549 0.8957 0.0
H1232 H 0.45215 0.42843 0.89574 0.0
H1233 H 0.43491 0.40537 0.92627 0.0
C1234 C 0.40356 0.3997 0.94777 0.0
C1235 C 0.38747 0.39848 0.95809 0.0
C1236 C 0.41297 0.41232 0.92926 0.0
C1237 C 0.3806 0.40975 0.94903 0.0
C1238 C 0.38977 0.42219 0.93035 0.0
C1239 C 0.4159 0.4368 0.90244 0.0
C1240 C 0.43266 0.43876 0.89322 0.0
C1241 C 0.40611 0.42376 0.92051 0.0
C1242 C 0.43916 0.4271 0.90203 0.0
C1243 C 0.42938 0.41397 0.91971 0.0
H1244 H 0.61762 0.02486 0.95772 0.0
H1245 H 0.60383 0.96751 0.94874 0.0
H1246 H 0.58403 0.96435 0.91491 0.0
H1247 H 0.56936 0.97739 0.88908 0.0
H1248 H 0.58239 0.03442 0.89923 0.0
H1249 H 0.60398 0.03822 0.93102 0.0
C1250 C 0.61041 0.01169 0.94829 0.0
C1251 C 0.61217 0.99642 0.95594 0.0
C1252 C 0.59888 0.00989 0.92898 0.0
C1253 C 0.60272 0.97949 0.94337 0.0
C1254 C 0.59135 0.97765 0.924 0.0
C1255 C 0.5769 0.99065 0.89826 0.0
C1256 C 0.57417 0.00557 0.89171 0.0
C1257 C 0.5891 0.99267 0.91688 0.0
C1258 C 0.58435 0.02274 0.90359 0.0
C1259 C 0.5966 0.0249 0.92195 0.0
H1260 H 0.62909 0.02786 0.08968 0.0
H1261 H 0.59166 0.96926 0.07619 0.0
H1262 H 0.572 0.96782 0.10921 0.0
H1263 H 0.56431 0.98342 0.14042 0.0
H1264 H 0.60197 0.04172 0.15514 0.0
H1265 H 0.62244 0.04302 0.12303 0.0
C1266 C 0.6167 0.01474 0.09405 0.0
C1267 C 0.61187 0.99874 0.08027 0.0
C1268 C 0.60535 0.01395 0.11319 0.0
C1269 C 0.59578 0.98184 0.08636 0.0
C1270 C 0.58446 0.98099 0.10526 0.0
C1271 C 0.57716 0.99635 0.137 0.0
C1272 C 0.58144 0.01246 0.15021 0.0
C1273 C 0.58898 0.99699 0.11862 0.0
C1274 C 0.59808 0.02915 0.14506 0.0
C1275 C 0.60987 0.0299 0.12674 0.0
H1276 H 0.97596 0.59794 0.08383 0.0
H1277 H 0.03622 0.62993 0.08452 0.0
H1278 H 0.03704 0.61087 0.11685 0.0
H1279 H 0.02095 0.58398 0.14331 0.0
H1280 H 0.96085 0.55134 0.14261 0.0
H1281 H 0.95967 0.57197 0.11233 0.0
C1282 C 0.98926 0.60087 0.09121 0.0
C1283 C 0.00599 0.61528 0.08151 0.0
C1284 C 0.98969 0.5897 0.10982 0.0
C1285 C 0.0231 0.61886 0.09141 0.0
C1286 C 0.02361 0.60796 0.10995 0.0
C1287 C 0.00759 0.58139 0.13655 0.0
C1288 C 0.99103 0.56604 0.14504 0.0
C1289 C 0.00704 0.59314 0.11898 0.0
C1290 C 0.9738 0.56311 0.13646 0.0
C1291 C 0.97313 0.57483 0.11902 0.0
H1292 H 0.38859 0.4072 0.0838 0.0
H1293 H 0.40768 0.36723 0.08108 0.0
H1294 H 0.42796 0.38228 0.11522 0.0
H1295 H 0.4412 0.40758 0.14482 0.0
H1296 H 0.42324 0.44852 0.14539 0.0
H1297 H 0.40129 0.43196 0.11358 0.0
C1298 C 0.39707 0.40165 0.09072 0.0
C1299 C 0.39662 0.38611 0.07976 0.0
C1300 C 0.40888 0.41051 0.11011 0.0
C1301 C 0.40777 0.3792 0.08906 0.0
C1302 C 0.41939 0.3878 0.1086 0.0
C1303 C 0.43256 0.41295 0.13796 0.0
C1304 C 0.43398 0.42934 0.14769 0.0
C1305 C 0.42024 0.40363 0.11907 0.0
C1306 C 0.42233 0.4358 0.13873 0.0
C1307 C 0.40985 0.42644 0.12028 0.0
H1308 H 0.68636 0.73593 0.42069 0.0
H1309 H 0.62688 0.70628 0.40846 0.0
H1310 H 0.62253 0.72276 0.44173 0.0
H1311 H 0.63598 0.74737 0.47247 0.0
H1312 H 0.69553 0.77708 0.48378 0.0
H1313 H 0.69946 0.75876 0.45272 0.0
C1314 C 0.6724 0.73294 0.42533 0.0
C1315 C 0.657 0.71999 0.4119 0.0
C1316 C 0.67002 0.74256 0.44429 0.0
C1317 C 0.63901 0.71622 0.41841 0.0
C1318 C 0.63651 0.72567 0.43742 0.0
C1319 C 0.64976 0.74958 0.46838 0.0
C1320 C 0.66546 0.76368 0.48026 0.0
C1321 C 0.65195 0.73911 0.45025 0.0
C1322 C 0.68326 0.7665 0.47465 0.0
C1323 C 0.68552 0.75601 0.45693 0.0
H1324 H 0.29819 0.93061 0.41404 0.0
H1325 H 0.26144 0.95367 0.41043 0.0
H1326 H 0.24307 0.93392 0.4431 0.0
H1327 H 0.23635 0.90923 0.47146 0.0
H1328 H 0.27321 0.8865 0.47704 0.0
H1329 H 0.29234 0.90676 0.44468 0.0
C1330 C 0.28622 0.93137 0.42049 0.0
C1331 C 0.28124 0.94361 0.40959 0.0
C1332 C 0.27559 0.91993 0.43955 0.0
C1333 C 0.26569 0.94442 0.41832 0.0
C1334 C 0.25509 0.93309 0.43706 0.0
C1335 C 0.24878 0.90891 0.46606 0.0
C1336 C 0.25326 0.8963 0.47683 0.0
C1337 C 0.25981 0.92071 0.44767 0.0
C1338 C 0.26922 0.89587 0.46895 0.0
C1339 C 0.28024 0.90753 0.45048 0.0
H1340 H 0.05094 0.31604 0.42535 0.0
H1341 H 0.08284 0.37521 0.41125 0.0
H1342 H 0.10393 0.37912 0.44399 0.0
H1343 H 0.11475 0.36521 0.47466 0.0
H1344 H 0.08295 0.3059 0.48751 0.0
H1345 H 0.06038 0.3026 0.45729 0.0
C1346 C 0.0624 0.32985 0.42949 0.0
C1347 C 0.06535 0.34527 0.41565 0.0
C1348 C 0.07459 0.33196 0.44809 0.0
C1349 C 0.08024 0.36306 0.4215 0.0
C1350 C 0.09235 0.3653 0.44021 0.0
C1351 C 0.1027 0.35164 0.47107 0.0
C1352 C 0.10061 0.33579 0.48315 0.0
C1353 C 0.08987 0.34979 0.45335 0.0
C1354 C 0.085 0.31826 0.47823 0.0
C1355 C 0.07208 0.31637 0.46097 0.0
H1356 H 0.0626 0.34996 0.27583 0.0
H1357 H 0.04998 0.29734 0.30726 0.0
H1358 H 0.06702 0.29216 0.27551 0.0
H1359 H 0.08749 0.30371 0.24076 0.0
H1360 H 0.098 0.35512 0.20732 0.0
H1361 H 0.08006 0.35972 0.23819 0.0
C1362 C 0.06346 0.33728 0.2756 0.0
C1363 C 0.05519 0.32414 0.29399 0.0
C1364 C 0.0731 0.33427 0.25713 0.0
C1365 C 0.0562 0.30767 0.2933 0.0
C1366 C 0.06602 0.30474 0.27521 0.0
C1367 C 0.08555 0.31572 0.23974 0.0
C1368 C 0.09448 0.32917 0.22174 0.0
C1369 C 0.07478 0.31809 0.25724 0.0
C1370 C 0.09185 0.34475 0.22123 0.0
C1371 C 0.08143 0.34735 0.23881 0.0
H1372 H 0.69981 0.75158 0.29861 0.0
H1373 H 0.6498 0.70427 0.27144 0.0
H1374 H 0.65127 0.72201 0.23606 0.0
H1375 H 0.66572 0.7514 0.21386 0.0
H1376 H 0.7139 0.79975 0.24309 0.0
H1377 H 0.71444 0.78108 0.27609 0.0
C1378 C 0.6894 0.74511 0.28477 0.0
C1379 C 0.67474 0.72664 0.28763 0.0
C1380 C 0.68998 0.75559 0.26477 0.0
C1381 C 0.66119 0.7185 0.2697 0.0
C1382 C 0.66201 0.72863 0.24947 0.0
C1383 C 0.67629 0.75797 0.22748 0.0
C1384 C 0.68973 0.77707 0.22575 0.0
C1385 C 0.67614 0.74731 0.24701 0.0
C1386 C 0.70353 0.78506 0.24349 0.0
C1387 C 0.70377 0.77441 0.26261 0.0
H1388 H 0.2553 0.9574 0.29615 0.0
H1389 H 0.30065 0.95026 0.27108 0.0
H1390 H 0.28234 0.93341 0.23628 0.0
H1391 H 0.25285 0.91913 0.21429 0.0
H1392 H 0.20628 0.92326 0.24199 0.0
H1393 H 0.2258 0.94326 0.27388 0.0
C1394 C 0.26125 0.95239 0.28286 0.0
C1395 C 0.2793 0.9551 0.28613 0.0
C1396 C 0.2504 0.94214 0.26332 0.0
C1397 C 0.28675 0.9483 0.26898 0.0
C1398 C 0.27629 0.93865 0.2491 0.0
C1399 C 0.24685 0.92424 0.22735 0.0
C1400 C 0.22799 0.91952 0.22551 0.0
C1401 C 0.25795 0.93515 0.24634 0.0
C1402 C 0.22076 0.9268 0.24246 0.0
C1403 C 0.23189 0.93813 0.26096 0.0
H1404 H 0.65744 0.92977 0.28917 0.0
H1405 H 0.71586 0.97171 0.28815 0.0
H1406 H 0.72084 0.95632 0.25412 0.0
H1407 H 0.7087 0.93027 0.2254 0.0
H1408 H 0.65043 0.88785 0.22823 0.0
H1409 H 0.64533 0.90432 0.26047 0.0
C1410 C 0.67127 0.93567 0.28148 0.0
C1411 C 0.68625 0.95187 0.29133 0.0
C1412 C 0.67408 0.92666 0.26212 0.0
C1413 C 0.70406 0.95924 0.28101 0.0
C1414 C 0.70693 0.95042 0.26154 0.0
C1415 C 0.6949 0.9246 0.23311 0.0
C1416 C 0.67998 0.90785 0.22415 0.0
C1417 C 0.69207 0.93399 0.2521 0.0
C1418 C 0.66214 0.90087 0.23428 0.0
C1419 C 0.65921 0.9102 0.25294 0.0
H1420 H 0.0551 0.75664 0.30022 0.0
H1421 H 0.05588 0.70948 0.26874 0.0
H1422 H 0.07148 0.72804 0.23355 0.0
H1423 H 0.08652 0.75806 0.21283 0.0
H1424 H 0.08898 0.80623 0.24646 0.0
H1425 H 0.07002 0.78678 0.27915 0.0
C1426 C 0.05847 0.75039 0.2855 0.0
C1427 C 0.05434 0.73173 0.28705 0.0
C1428 C 0.06803 0.76133 0.26564 0.0
C1429 C 0.05899 0.72385 0.26799 0.0
C1430 C 0.06792 0.73446 0.24787 0.0
C1431 C 0.08309 0.76443 0.22735 0.0
C1432 C 0.08939 0.78373 0.22699 0.0
C1433 C 0.07284 0.75332 0.24671 0.0
C1434 C 0.08421 0.79144 0.24582 0.0
C1435 C 0.07348 0.78033 0.26477 0.0
H1436 H 0.25765 0.30103 0.29318 0.0
H1437 H 0.2942 0.36053 0.28551 0.0
H1438 H 0.27592 0.361 0.2521 0.0
H1439 H 0.24836 0.3452 0.2268 0.0
H1440 H 0.21137 0.28591 0.23381 0.0
H1441 H 0.23113 0.28463 0.26534 0.0
C1442 C 0.26172 0.31405 0.28403 0.0
C1443 C 0.27719 0.33074 0.29215 0.0
C1444 C 0.25104 0.3143 0.2647 0.0
C1445 C 0.28229 0.34747 0.27992 0.0
C1446 C 0.27183 0.3478 0.26074 0.0
C1447 C 0.24469 0.33198 0.23516 0.0
C1448 C 0.22836 0.31572 0.2282 0.0
C1449 C 0.25598 0.3314 0.25331 0.0
C1450 C 0.22392 0.29862 0.23885 0.0
C1451 C 0.23515 0.29791 0.25697 0.0
H1452 H 0.27653 0.31962 0.43194 0.0
H1453 H 0.28994 0.37349 0.40407 0.0
H1454 H 0.27226 0.37742 0.43621 0.0
H1455 H 0.25081 0.36428 0.47004 0.0
H1456 H 0.23962 0.31147 0.49977 0.0
H1457 H 0.2584 0.30834 0.46882 0.0
C1458 C 0.27573 0.33231 0.43306 0.0
C1459 C 0.28435 0.34616 0.41554 0.0
C1460 C 0.26573 0.33456 0.4517 0.0
C1461 C 0.28344 0.36263 0.41737 0.0
C1462 C 0.27324 0.36484 0.43566 0.0
C1463 C 0.25276 0.35226 0.47023 0.0
C1464 C 0.24334 0.33796 0.48714 0.0
C1465 C 0.26403 0.35072 0.45268 0.0
C1466 C 0.24609 0.32245 0.48666 0.0
C1467 C 0.257 0.32069 0.46904 0.0
H1468 H 0.64223 0.93059 0.41981 0.0
H1469 H 0.70194 0.95376 0.41504 0.0
H1470 H 0.70111 0.93486 0.44854 0.0
H1471 H 0.68345 0.91047 0.47765 0.0
H1472 H 0.62393 0.88769 0.48388 0.0
H1473 H 0.62472 0.90755 0.45128 0.0
C1474 C 0.65507 0.93158 0.42619 0.0
C1475 C 0.67209 0.94353 0.41471 0.0
C1476 C 0.65456 0.92063 0.44566 0.0
C1477 C 0.6886 0.94469 0.42339 0.0
C1478 C 0.68817 0.93384 0.44258 0.0
C1479 C 0.67067 0.91008 0.47232 0.0
C1480 C 0.65365 0.89747 0.48326 0.0
C1481 C 0.67123 0.92162 0.45368 0.0
C1482 C 0.63721 0.89701 0.4756 0.0
C1483 C 0.63765 0.90844 0.45699 0.0
H1484 H 0.06199 0.74496 0.41363 0.0
H1485 H 0.07916 0.70355 0.40984 0.0
H1486 H 0.10061 0.71856 0.44306 0.0
H1487 H 0.11501 0.74397 0.47257 0.0
H1488 H 0.09875 0.7862 0.474 0.0
H1489 H 0.07617 0.77004 0.44271 0.0
C1490 C 0.07031 0.73909 0.42009 0.0
C1491 C 0.06892 0.72312 0.40918 0.0
C1492 C 0.08276 0.7479 0.43892 0.0
C1493 C 0.07994 0.71584 0.41783 0.0
C1494 C 0.09223 0.72443 0.43684 0.0
C1495 C 0.10662 0.74972 0.46598 0.0
C1496 C 0.10861 0.76629 0.47594 0.0
C1497 C 0.09387 0.74058 0.4474 0.0
C1498 C 0.09735 0.7733 0.46724 0.0
C1499 C 0.0845 0.76416 0.44909 0.0
H1500 H 0.34457 0.05623 0.76765 0.0
H1501 H 0.29714 0.05099 0.72909 0.0
H1502 H 0.29136 0.06793 0.76041 0.0
H1503 H 0.30144 0.08652 0.79688 0.0
H1504 H 0.34727 0.08944 0.83725 0.0
H1505 H 0.35213 0.07139 0.80686 0.0
C1506 C 0.33285 0.05863 0.76625 0.0
C1507 C 0.32142 0.05252 0.74598 0.0
C1508 C 0.32947 0.0682 0.78446 0.0
C1509 C 0.30614 0.05552 0.74453 0.0
C1510 C 0.30289 0.0653 0.76238 0.0
C1511 C 0.31222 0.08289 0.79949 0.0
C1512 C 0.32418 0.08981 0.81932 0.0
C1513 C 0.31467 0.07201 0.78221 0.0
C1514 C 0.33819 0.08496 0.82191 0.0
C1515 C 0.34091 0.07444 0.8046 0.0
H1516 H 0.95242 0.24922 0.74583 0.0
H1517 H 0.94975 0.29636 0.77399 0.0
H1518 H 0.93254 0.27797 0.80856 0.0
H1519 H 0.91674 0.24806 0.82965 0.0
H1520 H 0.91668 0.20003 0.79931 0.0
H1521 H 0.9368 0.21929 0.76727 0.0
C1522 C 0.94829 0.25552 0.75971 0.0
C1523 C 0.95237 0.27413 0.75736 0.0
C1524 C 0.93787 0.24468 0.77921 0.0
C1525 C 0.94672 0.28204 0.77534 0.0
C1526 C 0.93686 0.27152 0.79511 0.0
C1527 C 0.92097 0.2417 0.81599 0.0
C1528 C 0.91505 0.2225 0.81712 0.0
C1529 C 0.93203 0.25272 0.79701 0.0
C1530 C 0.92117 0.21477 0.79937 0.0
C1531 C 0.93258 0.22576 0.7808 0.0
H1532 H 0.72555 0.65241 0.75674 0.0
H1533 H 0.74548 0.71158 0.75291 0.0
H1534 H 0.76659 0.71699 0.78615 0.0
H1535 H 0.78042 0.70504 0.81513 0.0
H1536 H 0.76128 0.64595 0.81712 0.0
H1537 H 0.73861 0.64045 0.78618 0.0
C1538 C 0.7344 0.66651 0.76322 0.0
C1539 C 0.73395 0.68156 0.75219 0.0
C1540 C 0.74666 0.66956 0.78212 0.0
C1541 C 0.74554 0.69971 0.76097 0.0
C1542 C 0.75765 0.70283 0.77998 0.0
C1543 C 0.77133 0.69095 0.80877 0.0
C1544 C 0.77265 0.67596 0.8186 0.0
C1545 C 0.75852 0.68788 0.79048 0.0
C1546 C 0.76047 0.65777 0.81032 0.0
C1547 C 0.74757 0.6546 0.79239 0.0
H1548 H 0.74636 0.69134 0.62771 0.0
H1549 H 0.70551 0.63258 0.62633 0.0
H1550 H 0.7212 0.62833 0.59205 0.0
H1551 H 0.74705 0.64124 0.56307 0.0
H1552 H 0.7887 0.69976 0.56658 0.0
H1553 H 0.7719 0.70414 0.59902 0.0
C1554 C 0.74077 0.67759 0.61987 0.0
C1555 C 0.72476 0.66231 0.62966 0.0
C1556 C 0.74998 0.6752 0.60041 0.0
C1557 C 0.71783 0.6446 0.61924 0.0
C1558 C 0.7268 0.64216 0.59962 0.0
C1559 C 0.75253 0.65494 0.57098 0.0
C1560 C 0.76914 0.67014 0.5621 0.0
C1561 C 0.743 0.65734 0.59018 0.0
C1562 C 0.77579 0.68783 0.57251 0.0
C1563 C 0.76627 0.69035 0.59131 0.0
H1564 H 0.32534 0.04901 0.60558 0.0
H1565 H 0.37304 0.0902 0.6447 0.0
H1566 H 0.37879 0.11356 0.61438 0.0
H1567 H 0.36885 0.12286 0.57852 0.0
H1568 H 0.32282 0.08104 0.53736 0.0
H1569 H 0.31769 0.05753 0.56699 0.0
C1570 C 0.33709 0.06306 0.60733 0.0
C1571 C 0.34864 0.06789 0.62747 0.0
C1572 C 0.34048 0.07641 0.58966 0.0
C1573 C 0.36395 0.08609 0.62936 0.0
C1574 C 0.3672 0.0995 0.61208 0.0
C1575 C 0.35795 0.10856 0.57556 0.0
C1576 C 0.34607 0.104 0.55571 0.0
C1577 C 0.35537 0.09489 0.59234 0.0
C1578 C 0.33188 0.08528 0.55271 0.0
C1579 C 0.32901 0.0717 0.56958 0.0
H1580 H 0.94845 0.26089 0.62933 0.0
H1581 H 0.93032 0.30155 0.63388 0.0
H1582 H 0.90954 0.28701 0.59998 0.0
H1583 H 0.89595 0.26218 0.56961 0.0
H1584 H 0.91346 0.22094 0.56695 0.0
H1585 H 0.93524 0.23653 0.59923 0.0
C1586 C 0.94004 0.26669 0.6229 0.0
C1587 C 0.94096 0.28229 0.63423 0.0
C1588 C 0.92803 0.25818 0.60361 0.0
C1589 C 0.92989 0.28953 0.62556 0.0
C1590 C 0.91799 0.28121 0.60617 0.0
C1591 C 0.90448 0.25656 0.57614 0.0
C1592 C 0.90308 0.24044 0.56561 0.0
C1593 C 0.91682 0.26542 0.59517 0.0
C1594 C 0.91444 0.23352 0.57423 0.0
C1595 C 0.92683 0.24233 0.5929 0.0
H1596 H 0.32973 0.28124 0.61086 0.0
H1597 H 0.37761 0.28655 0.64833 0.0
H1598 H 0.38257 0.26891 0.61711 0.0
H1599 H 0.37177 0.24991 0.58092 0.0
H1600 H 0.32549 0.24704 0.54167 0.0
H1601 H 0.32129 0.26548 0.5721 0.0
C1602 C 0.34136 0.27869 0.61206 0.0
C1603 C 0.35318 0.28504 0.63198 0.0
C1604 C 0.34426 0.26873 0.59392 0.0
C1605 C 0.36833 0.28184 0.63315 0.0
C1606 C 0.37111 0.27166 0.61537 0.0
C1607 C 0.36101 0.25361 0.57858 0.0
C1608 C 0.34875 0.24661 0.55901 0.0
C1609 C 0.35896 0.26476 0.59586 0.0
C1610 C 0.33479 0.25157 0.55678 0.0
C1611 C 0.33246 0.26232 0.57412 0.0
H1612 H 0.74763 0.05762 0.62652 0.0
H1613 H 0.70582 0.07435 0.62772 0.0
H1614 H 0.72107 0.09527 0.59408 0.0
H1615 H 0.74675 0.10931 0.56492 0.0
H1616 H 0.78939 0.09361 0.56603 0.0
H1617 H 0.77301 0.07148 0.59774 0.0
C1618 C 0.74173 0.06575 0.61941 0.0
C1619 C 0.72557 0.06438 0.62972 0.0
C1620 C 0.75067 0.07788 0.60032 0.0
C1621 C 0.71825 0.07513 0.62022 0.0
C1622 C 0.72697 0.0871 0.60096 0.0
C1623 C 0.75255 0.10115 0.57215 0.0
C1624 C 0.76931 0.10317 0.5628 0.0
C1625 C 0.74329 0.08871 0.59099 0.0
C1626 C 0.77636 0.09217 0.57231 0.0
C1627 C 0.76709 0.0796 0.59071 0.0
H1628 H 0.96039 0.6851 0.60495 0.0
H1629 H 0.91888 0.63556 0.64082 0.0
H1630 H 0.89598 0.6309 0.61021 0.0
H1631 H 0.88714 0.64248 0.57526 0.0
H1632 H 0.92949 0.69066 0.53764 0.0
H1633 H 0.95253 0.69438 0.56719 0.0
C1634 C 0.94638 0.67317 0.60592 0.0
C1635 C 0.94129 0.6608 0.62523 0.0
C1636 C 0.93335 0.67048 0.58816 0.0
C1637 C 0.92316 0.64527 0.62611 0.0
C1638 C 0.91003 0.64267 0.60868 0.0
C1639 C 0.90146 0.65357 0.57308 0.0
C1640 C 0.9063 0.66649 0.55432 0.0
C1641 C 0.91487 0.65539 0.58985 0.0
C1642 C 0.92504 0.68083 0.55221 0.0
C1643 C 0.93835 0.6829 0.56903 0.0
H1644 H 0.94316 0.65698 0.75721 0.0
H1645 H 0.96785 0.71536 0.73936 0.0
H1646 H 0.95145 0.71985 0.77264 0.0
H1647 H 0.92791 0.70648 0.80479 0.0
H1648 H 0.90286 0.64788 0.82131 0.0
H1649 H 0.92162 0.64422 0.79059 0.0
C1650 C 0.94513 0.67076 0.76064 0.0
C1651 C 0.95662 0.68577 0.7456 0.0
C1652 C 0.93547 0.67317 0.77953 0.0
C1653 C 0.95906 0.70353 0.75056 0.0
C1654 C 0.94963 0.7061 0.76956 0.0
C1655 C 0.92684 0.693 0.80189 0.0
C1656 C 0.91391 0.67743 0.81516 0.0
C1657 C 0.9375 0.69093 0.78389 0.0
C1658 C 0.91254 0.66001 0.81112 0.0
C1659 C 0.92327 0.65791 0.79358 0.0
H1660 H 0.30571 0.25007 0.73851 0.0
H1661 H 0.35 0.29863 0.77283 0.0
H1662 H 0.34769 0.27992 0.80754 0.0
H1663 H 0.33467 0.24945 0.82698 0.0
H1664 H 0.29245 0.20028 0.79106 0.0
H1665 H 0.29205 0.21953 0.75861 0.0
C1666 C 0.31461 0.25657 0.75377 0.0
C1667 C 0.32799 0.27569 0.75311 0.0
C1668 C 0.31364 0.24559 0.77341 0.0
C1669 C 0.33963 0.28391 0.77288 0.0
C1670 C 0.33834 0.27322 0.79272 0.0
C1671 C 0.32543 0.24287 0.81204 0.0
C1672 C 0.31368 0.22335 0.81162 0.0
C1673 C 0.3257 0.25396 0.79296 0.0
C1674 C 0.3015 0.21525 0.79222 0.0
C1675 C 0.30136 0.22625 0.77345 0.0
H1676 H 0.75642 0.05075 0.74161 0.0
H1677 H 0.70801 0.05083 0.77007 0.0
H1678 H 0.7253 0.06623 0.80608 0.0
H1679 H 0.7546 0.08134 0.82836 0.0
H1680 H 0.80406 0.08452 0.79773 0.0
H1681 H 0.78581 0.0657 0.76427 0.0
C1682 C 0.74961 0.05392 0.75586 0.0
C1683 C 0.73097 0.04965 0.75321 0.0
C1684 C 0.75983 0.06336 0.7762 0.0
C1685 C 0.72238 0.05405 0.77166 0.0
C1686 C 0.73226 0.06286 0.79225 0.0
C1687 C 0.76151 0.07809 0.81434 0.0
C1688 C 0.78081 0.08454 0.81578 0.0
C1689 C 0.7511 0.06793 0.79451 0.0
C1690 C 0.78923 0.07961 0.79756 0.0
C1691 C 0.77882 0.06897 0.77816 0.0
H1692 H 0.07527 0.38278 0.05344 0.0
H1693 H 0.03553 0.32634 0.03281 0.0
H1694 H 0.05541 0.31532 0.05029 0.0
H1695 H 0.08383 0.32173 0.07231 0.0
H1696 H 0.12234 0.37817 0.09466 0.0
H1697 H 0.1033 0.38913 0.07533 0.0
C1698 C 0.07099 0.36807 0.05256 0.0
C1699 C 0.05395 0.35542 0.04175 0.0
C1700 C 0.08229 0.36181 0.06298 0.0
C1701 C 0.04858 0.33639 0.04099 0.0
C1702 C 0.05994 0.33008 0.05103 0.0
C1703 C 0.08801 0.33641 0.07311 0.0
C1704 C 0.10464 0.34908 0.08486 0.0
C1705 C 0.07675 0.34265 0.06229 0.0
C1706 C 0.10987 0.3681 0.08538 0.0
C1707 C 0.0989 0.3744 0.07447 0.0
H1708 H 0.62429 0.69062 0.05669 0.0
H1709 H 0.68051 0.70794 0.03416 0.0
H1710 H 0.69139 0.73889 0.0514 0.0
H1711 H 0.68491 0.76088 0.07351 0.0
H1712 H 0.62875 0.74233 0.09783 0.0
H1713 H 0.61793 0.71217 0.07903 0.0
C1714 C 0.63891 0.7012 0.05534 0.0
C1715 C 0.65154 0.69697 0.04402 0.0
C1716 C 0.64511 0.71879 0.06566 0.0
C1717 C 0.67047 0.71082 0.04272 0.0
C1718 C 0.67671 0.72851 0.05263 0.0
C1719 C 0.67033 0.7502 0.07489 0.0
C1720 C 0.65768 0.75408 0.08697 0.0
C1721 C 0.66417 0.73262 0.06433 0.0
C1722 C 0.63879 0.74003 0.08827 0.0
C1723 C 0.63257 0.72266 0.07765 0.0
H1724 H 0.31462 0.93395 0.06293 0.0
H1725 H 0.29854 0.97301 0.03706 0.0
H1726 H 0.26722 0.95371 0.05372 0.0
H1727 H 0.24453 0.92581 0.07603 0.0
H1728 H 0.26189 0.88819 0.104 0.0
H1729 H 0.29243 0.90673 0.0858 0.0
C1730 C 0.30424 0.93821 0.06075 0.0
C1731 C 0.30889 0.95485 0.04863 0.0
C1732 C 0.28644 0.92726 0.07074 0.0
C1733 C 0.29532 0.96025 0.04627 0.0
C1734 C 0.27741 0.94922 0.05582 0.0
C1735 C 0.25503 0.92173 0.07837 0.0
C1736 C 0.2507 0.90543 0.09127 0.0
C1737 C 0.27285 0.93274 0.06824 0.0
C1738 C 0.26453 0.90036 0.09377 0.0
C1739 C 0.28213 0.91106 0.08351 0.0
H1740 H 0.33853 0.0444 1.0029 0.0
H1741 H 0.39756 0.08066 0.9909 0.0
H1742 H 0.39138 0.10299 0.97058 0.0
H1743 H 0.36934 0.11159 0.95439 0.0
H1744 H 0.31036 0.07651 0.96801 0.0
H1745 H 0.31643 0.05427 0.98897 0.0
C1746 C 0.35004 0.05726 0.99602 0.0
C1747 C 0.36848 0.06076 0.9984 0.0
C1748 C 0.34642 0.07019 0.98432 0.0
C1749 C 0.38322 0.07755 0.98939 0.0
C1750 C 0.37972 0.09034 0.97766 0.0
C1751 C 0.35778 0.0993 0.96228 0.0
C1752 C 0.33939 0.09582 0.95936 0.0
C1753 C 0.36137 0.08673 0.97479 0.0
C1754 C 0.32465 0.07949 0.96942 0.0
C1755 C 0.32811 0.06678 0.98164 0.0
H1756 H 0.93142 0.31046 0.97954 0.0
H1757 H 0.96951 0.29318 1.0056 0.0
H1758 H 0.9496 0.26191 0.98919 0.0
H1759 H 0.92147 0.2396 0.96702 0.0
H1760 H 0.88478 0.25806 0.9389 0.0
H1761 H 0.90391 0.28859 0.95686 0.0
C1762 C 0.93533 0.29983 0.98181 0.0
C1763 C 0.95189 0.30414 0.9939 0.0
C1764 C 0.92403 0.28204 0.97197 0.0
C1765 C 0.95683 0.29024 0.9964 0.0
C1766 C 0.94545 0.27235 0.987 0.0
C1767 C 0.91772 0.25033 0.9646 0.0
C1768 C 0.90151 0.24632 0.9517 0.0
C1769 C 0.92906 0.26813 0.97459 0.0
C1770 C 0.89686 0.26045 0.94911 0.0
C1771 C 0.9079 0.27804 0.95924 0.0
H1772 H 0.71547 0.67251 0.99858 0.0
H1773 H 0.6971 0.61362 0.99524 0.0
H1774 H 0.72631 0.62043 0.97648 0.0
H1775 H 0.75624 0.64268 0.95914 0.0
H1776 H 0.77593 0.70178 0.9637 0.0
H1777 H 0.74688 0.69523 0.9833 0.0
C1778 C 0.71795 0.6612 0.99395 0.0
C1779 C 0.70402 0.64257 0.99828 0.0
C1780 C 0.73491 0.66519 0.98306 0.0
C1781 C 0.7075 0.62809 0.99214 0.0
C1782 C 0.72421 0.63195 0.98131 0.0
C1783 C 0.75446 0.65423 0.96481 0.0
C1784 C 0.7684 0.67272 0.95987 0.0
C1785 C 0.73792 0.65041 0.97646 0.0
C1786 C 0.76541 0.68737 0.96688 0.0
C1787 C 0.74883 0.68365 0.97828 0.0
H1788 H 0.93338 0.62653 0.99788 0.0
H1789 H 0.98021 0.6827 1.0001 0.0
H1790 H 0.96158 0.6942 0.98029 0.0
H1791 H 0.93255 0.6879 0.95982 0.0
H1792 H 0.88612 0.63149 0.95747 0.0
H1793 H 0.9041 0.62052 0.9796 0.0
C1794 C 0.93949 0.64133 0.9943 0.0
C1795 C 0.95821 0.65371 1.00044 0.0
C1796 C 0.92882 0.64779 0.98256 0.0
C1797 C 0.96584 0.67284 0.9956 0.0
C1798 C 0.95521 0.67943 0.98417 0.0
C1799 C 0.92631 0.67325 0.9644 0.0
C1800 C 0.90807 0.66052 0.95669 0.0
C1801 C 0.93678 0.66698 0.97718 0.0
C1802 C 0.90025 0.64155 0.9627 0.0
C1803 C 0.91048 0.63527 0.97551 0.0
H1804 H 0.38276 0.31269 0.97667 0.0
H1805 H 0.32733 0.29517 1.00265 0.0
H1806 H 0.31592 0.26427 0.98492 0.0
H1807 H 0.32186 0.24223 0.96198 0.0
H1808 H 0.3772 0.261 0.93437 0.0
H1809 H 0.38844 0.2913 0.95297 0.0
C1810 C 0.36819 0.30209 0.97862 0.0
C1811 C 0.35595 0.3062 0.99113 0.0
C1812 C 0.3617 0.28454 0.96806 0.0
C1813 C 0.33707 0.29236 0.99317 0.0
C1814 C 0.33054 0.2747 0.983 0.0
C1815 C 0.33633 0.253 0.95982 0.0
C1816 C 0.34867 0.24914 0.94696 0.0
C1817 C 0.34273 0.27064 0.97031 0.0
C1818 C 0.36743 0.26331 0.94458 0.0
C1819 C 0.37388 0.28074 0.95509 0.0
H1820 H 0.70194 0.03351 0.98102 0.0
H1821 H 0.70027 0.07691 0.02151 0.0
H1822 H 0.73051 0.10004 1.00519 0.0
H1823 H 0.7567 0.10818 0.97805 0.0
H1824 H 0.75679 0.06518 0.93456 0.0
H1825 H 0.72822 0.04173 0.9537 0.0
C1826 C 0.70836 0.04799 0.98653 0.0
C1827 C 0.69894 0.05347 1.00257 0.0
C1828 C 0.72547 0.06134 0.97643 0.0
C1829 C 0.70725 0.07234 0.00922 0.0
C1830 C 0.72453 0.08558 0.99984 0.0
C1831 C 0.75044 0.09373 0.97252 0.0
C1832 C 0.75909 0.08862 0.95478 0.0
C1833 C 0.73361 0.0803 0.9831 0.0
C1834 C 0.75079 0.06965 0.94838 0.0
C1835 C 0.73429 0.05617 0.95921 0.0
H1836 H 0.67033 0.96723 0.05962 0.0
H1837 H 0.63117 0.92579 0.01126 0.0
H1838 H 0.63879 0.90279 0.02684 0.0
H1839 H 0.65516 0.89397 0.0557 0.0
H1840 H 0.69162 0.93447 0.10724 0.0
H1841 H 0.68683 0.95831 0.08861 0.0
C1842 C 0.66373 0.95324 0.05225 0.0
C1843 C 0.65031 0.94822 0.03421 0.0
C1844 C 0.66764 0.93987 0.06195 0.0
C1845 C 0.64158 0.92997 0.02512 0.0
C1846 C 0.64589 0.91681 0.03407 0.0
C1847 C 0.66196 0.90793 0.06309 0.0
C1848 C 0.67373 0.91222 0.083 0.0
C1849 C 0.65861 0.92149 0.05283 0.0
C1850 C 0.68273 0.93065 0.09176 0.0
C1851 C 0.67987 0.94434 0.08122 0.0
H1852 H 0.03913 0.70709 0.06073 0.0
H1853 H 0.08321 0.70775 0.01903 0.0
H1854 H 0.10568 0.73804 0.0358 0.0
H1855 H 0.11312 0.76347 0.06379 0.0
H1856 H 0.06964 0.76129 0.10856 0.0
H1857 H 0.04665 0.73278 0.08881 0.0
C1858 C 0.0536 0.71405 0.05506 0.0
C1859 C 0.05951 0.70528 0.03858 0.0
C1860 C 0.0666 0.73117 0.06543 0.0
C1861 C 0.07835 0.71425 0.03169 0.0
C1862 C 0.09121 0.73154 0.04132 0.0
C1863 C 0.09867 0.75672 0.06946 0.0
C1864 C 0.09327 0.76465 0.08778 0.0
C1865 C 0.08556 0.73995 0.05855 0.0
C1866 C 0.0743 0.75579 0.09433 0.0
C1867 C 0.0611 0.73934 0.08315 0.0
H1868 H 0.30944 0.38188 0.05195 0.0
H1869 H 0.29717 0.32533 0.03977 0.0
H1870 H 0.26693 0.31344 0.05951 0.0
H1871 H 0.24461 0.31925 0.08205 0.0
H1872 H 0.2576 0.37603 0.09429 0.0
H1873 H 0.28697 0.38764 0.07294 0.0
C1874 C 0.30012 0.36693 0.05339 0.0
C1875 C 0.30561 0.35453 0.04438 0.0
C1876 C 0.28293 0.36023 0.06505 0.0
C1877 C 0.29331 0.33521 0.04651 0.0
C1878 C 0.27603 0.3284 0.05788 0.0
C1879 C 0.25381 0.33415 0.07985 0.0
C1880 C 0.24897 0.34674 0.09002 0.0
C1881 C 0.27078 0.34079 0.06749 0.0
C1882 C 0.26111 0.36602 0.0871 0.0
C1883 C 0.27787 0.37269 0.07473 0.0
H1884 H 0.73953 0.71906 0.38781 0.0
H1885 H 0.70155 0.66215 0.36716 0.0
H1886 H 0.72193 0.65216 0.38573 0.0
H1887 H 0.75051 0.6597 0.40839 0.0
H1888 H 0.78721 0.71664 0.43047 0.0
H1889 H 0.76742 0.72646 0.41065 0.0
C1890 C 0.73574 0.70448 0.38716 0.0
C1891 C 0.71907 0.6914 0.37597 0.0
C1892 C 0.74731 0.69882 0.39821 0.0
C1893 C 0.71432 0.67253 0.37559 0.0
C1894 C 0.72596 0.6668 0.38626 0.0
C1895 C 0.75409 0.67423 0.40903 0.0
C1896 C 0.7705 0.68741 0.42075 0.0
C1897 C 0.74244 0.67982 0.3978 0.0
C1898 C 0.77495 0.70621 0.42119 0.0
C1899 C 0.76355 0.71186 0.40997 0.0
H1900 H 0.33897 0.04651 0.37352 0.0
H1901 H 0.27966 0.02546 0.37928 0.0
H1902 H 0.28548 0.0538 0.39966 0.0
H1903 H 0.30712 0.08373 0.4177 0.0
H1904 H 0.36654 0.10606 0.41034 0.0
H1905 H 0.36089 0.0779 0.38932 0.0
C1906 C 0.32733 0.04821 0.37904 0.0
C1907 C 0.3089 0.03379 0.3749 0.0
C1908 C 0.33076 0.06467 0.39081 0.0
C1909 C 0.294 0.03628 0.38217 0.0
C1910 C 0.2973 0.05248 0.39394 0.0
C1911 C 0.31891 0.08271 0.41115 0.0
C1912 C 0.33725 0.09713 0.41581 0.0
C1913 C 0.31559 0.06667 0.39859 0.0
C1914 C 0.35225 0.09513 0.40753 0.0
C1915 C 0.34904 0.07906 0.39528 0.0
H1916 H 0.97182 0.30371 0.40026 0.0
H1917 H 0.97004 0.26175 0.35325 0.0
H1918 H 0.93914 0.239 0.36834 0.0
H1919 H 0.91367 0.23059 0.39646 0.0
H1920 H 0.91743 0.27133 0.44755 0.0
H1921 H 0.94611 0.29506 0.42889 0.0
C1922 C 0.96446 0.28966 0.39311 0.0
C1923 C 0.97301 0.28438 0.37556 0.0
C1924 C 0.94707 0.27642 0.40266 0.0
C1925 C 0.96362 0.26607 0.36672 0.0
C1926 C 0.94601 0.25308 0.37539 0.0
C1927 C 0.92079 0.24456 0.40382 0.0
C1928 C 0.91323 0.24894 0.42361 0.0
C1929 C 0.93779 0.25799 0.39372 0.0
C1930 C 0.92257 0.26742 0.43218 0.0
C1931 C 0.93916 0.28104 0.42165 0.0
H1932 H 0.05278 0.4082 0.3177 0.0
H1933 H 0.99634 0.36814 0.33795 0.0
H1934 H 0.98519 0.38784 0.3202 0.0
H1935 H 0.99154 0.41634 0.29816 0.0
H1936 H 0.04808 0.45523 0.27654 0.0
H1937 H 0.05906 0.43617 0.29576 0.0
C1938 C 0.03804 0.4038 0.31844 0.0
C1939 C 0.02544 0.38673 0.32925 0.0
C1940 C 0.03172 0.41501 0.30789 0.0
C1941 C 0.00636 0.38123 0.3298 0.0
C1942 C 0.99998 0.39247 0.31959 0.0
C1943 C 0.00624 0.42058 0.29752 0.0
C1944 C 0.01895 0.43736 0.28606 0.0
C1945 C 0.01252 0.40935 0.30839 0.0
C1946 C 0.03799 0.44265 0.28563 0.0
C1947 C 0.0443 0.43168 0.29649 0.0
H1948 H 0.63064 0.62813 0.32328 0.0
H1949 H 0.58774 0.64293 0.33195 0.0
H1950 H 0.56496 0.61368 0.31355 0.0
H1951 H 0.5575 0.58474 0.29291 0.0
H1952 H 0.60016 0.56983 0.28315 0.0
H1953 H 0.62264 0.59809 0.30425 0.0
C1954 C 0.61625 0.62482 0.32143 0.0
C1955 C 0.61096 0.63778 0.3289 0.0
C1956 C 0.60318 0.60799 0.31047 0.0
C1957 C 0.59226 0.63329 0.32627 0.0
C1958 C 0.57919 0.61656 0.31569 0.0
C1959 C 0.57173 0.5877 0.29533 0.0
C1960 C 0.57719 0.5753 0.28626 0.0
C1961 C 0.58457 0.60399 0.30731 0.0
C1962 C 0.59558 0.57912 0.29002 0.0
C1963 C 0.60847 0.59532 0.302 0.0
H1964 H 0.36056 0.95404 0.3193 0.0
H1965 H 0.37907 0.01113 0.33877 0.0
H1966 H 0.41002 0.0208 0.32224 0.0
H1967 H 0.43156 0.01302 0.30124 0.0
H1968 H 0.41179 0.95593 0.28013 0.0
H1969 H 0.38173 0.94634 0.29852 0.0
C1970 C 0.37138 0.9686 0.32016 0.0
C1971 C 0.36749 0.98182 0.33036 0.0
C1972 C 0.38897 0.97408 0.31026 0.0
C1973 C 0.38169 1.00064 0.33108 0.0
C1974 C 0.39938 0.00619 0.32156 0.0
C1975 C 0.42065 0.99851 0.30053 0.0
C1976 C 0.42412 0.98524 0.28943 0.0
C1977 C 0.40312 0.99305 0.31087 0.0
C1978 C 0.40978 0.96644 0.28894 0.0
C1979 C 0.39247 0.96092 0.29933 0.0
H1980 H 0.6043 0.95213 0.31799 0.0
H1981 H 0.64226 0.00867 0.34004 0.0
H1982 H 0.62177 0.01893 0.32248 0.0
H1983 H 0.5931 0.01175 0.30034 0.0
H1984 H 0.55651 0.95525 0.27654 0.0
H1985 H 0.57636 0.94512 0.29548 0.0
C1986 C 0.60805 0.96669 0.31917 0.0
C1987 C 0.62474 0.97958 0.33047 0.0
C1988 C 0.59643 0.97252 0.30866 0.0
C1989 C 0.62947 0.99843 0.33151 0.0
C1990 C 0.61777 0.00431 0.32142 0.0
C1991 C 0.58954 0.99725 0.29912 0.0
C1992 C 0.57313 0.98428 0.2872 0.0
C1993 C 0.60126 0.99149 0.30978 0.0
C1994 C 0.56875 0.96551 0.28602 0.0
C1995 C 0.58018 0.95968 0.29673 0.0
H1996 H 0.05231 0.64489 0.31865 0.0
H1997 H 0.99526 0.63162 0.32907 0.0
H1998 H 0.98418 0.6011 0.31047 0.0
H1999 H 0.99085 0.57889 0.28914 0.0
H2000 H 0.04812 0.59278 0.27888 0.0
H2001 H 0.0589 0.62239 0.2993 0.0
C2002 C 0.03743 0.63529 0.31707 0.0
C2003 C 0.02465 0.6406 0.32521 0.0
C2004 C 0.03118 0.61792 0.30611 0.0
C2005 C 0.00542 0.62792 0.32299 0.0
C2006 C 0.99908 0.61048 0.31227 0.0
C2007 C 0.00567 0.58831 0.29161 0.0
C2008 C 0.01864 0.58367 0.28219 0.0
C2009 C 0.01184 0.60542 0.30345 0.0
C2010 C 0.03782 0.59613 0.28546 0.0
C2011 C 0.04402 0.61304 0.29729 0.0
H2012 H 0.36313 0.40733 0.32263 0.0
H2013 H 0.37682 0.36457 0.33889 0.0
H2014 H 0.4076 0.38343 0.32053 0.0
H2015 H 0.43035 0.41193 0.29889 0.0
H2016 H 0.41519 0.4535 0.28132 0.0
H2017 H 0.38536 0.43526 0.30127 0.0
C2018 C 0.37287 0.40215 0.32239 0.0
C2019 C 0.36767 0.38458 0.33223 0.0
C2020 C 0.39032 0.41286 0.31147 0.0
C2021 C 0.38047 0.37807 0.33152 0.0
C2022 C 0.39805 0.38883 0.32094 0.0
C2023 C 0.42047 0.41693 0.29932 0.0
C2024 C 0.42519 0.43422 0.28879 0.0
C2025 C 0.40307 0.40619 0.31063 0.0
C2026 C 0.4122 0.4405 0.28968 0.0
C2027 C 0.39503 0.43001 0.30097 0.0
H2028 H 0.33617 0.2966 0.37664 0.0
H2029 H 0.27705 0.25828 0.38433 0.0
H2030 H 0.28344 0.23598 0.4043 0.0
H2031 H 0.30557 0.22793 0.42144 0.0
H2032 H 0.36477 0.26517 0.4123 0.0
H2033 H 0.35853 0.28743 0.39164 0.0
C2034 C 0.32469 0.2833 0.38247 0.0
C2035 C 0.30615 0.2792 0.37901 0.0
C2036 C 0.32845 0.27042 0.39404 0.0
C2037 C 0.29146 0.26186 0.38671 0.0
C2038 C 0.29509 0.24908 0.39825 0.0
C2039 C 0.31718 0.24072 0.41459 0.0
C2040 C 0.33564 0.24476 0.41861 0.0
C2041 C 0.31351 0.25329 0.40225 0.0
C2042 C 0.35041 0.26172 0.40996 0.0
C2043 C 0.34686 0.27444 0.39791 0.0
H2044 H 0.74759 0.02957 0.38721 0.0
H2045 H 0.70516 0.04343 0.3697 0.0
H2046 H 0.72371 0.07407 0.38848 0.0
H2047 H 0.75193 0.09672 0.41053 0.0
H2048 H 0.79307 0.08134 0.42962 0.0
H2049 H 0.77511 0.0516 0.40941 0.0
C2050 C 0.74242 0.03933 0.38728 0.0
C2051 C 0.72506 0.03425 0.37693 0.0
C2052 C 0.75294 0.05668 0.39846 0.0
C2053 C 0.71852 0.04701 0.37747 0.0
C2054 C 0.7291 0.06451 0.38827 0.0
C2055 C 0.75689 0.08681 0.41042 0.0
C2056 C 0.774 0.09146 0.42141 0.0
C2057 C 0.74629 0.06945 0.39901 0.0
C2058 C 0.78022 0.07842 0.4209 0.0
C2059 C 0.76989 0.0613 0.40946 0.0
H2060 H 0.98366 0.7222 0.3901 0.0
H2061 H 0.96524 0.6659 0.36691 0.0
H2062 H 0.93456 0.65539 0.38483 0.0
H2063 H 0.91308 0.66228 0.40748 0.0
H2064 H 0.93266 0.71853 0.43211 0.0
H2065 H 0.96266 0.72893 0.41302 0.0
C2066 C 0.97292 0.70763 0.38879 0.0
C2067 C 0.97673 0.69488 0.37706 0.0
C2068 C 0.95548 0.70166 0.39942 0.0
C2069 C 0.96267 0.67603 0.37579 0.0
C2070 C 0.94514 0.67001 0.38607 0.0
C2071 C 0.92395 0.67678 0.40885 0.0
C2072 C 0.92044 0.6896 0.42109 0.0
C2073 C 0.94141 0.68269 0.39807 0.0
C2074 C 0.93472 0.70839 0.42242 0.0
C2075 C 0.95198 0.71436 0.41164 0.0
H2076 H 0.3707 0.00537 0.73259 0.0
H2077 H 0.41177 0.04885 0.68801 0.0
H2078 H 0.43579 0.04225 0.70251 0.0
H2079 H 0.44538 0.02533 0.72926 0.0
H2080 H 0.40523 0.98493 0.77817 0.0
H2081 H 0.3806 0.98871 0.76014 0.0
C2082 C 0.38487 0.01315 0.72584 0.0
C2083 C 0.3895 0.02742 0.70912 0.0
C2084 C 0.39878 0.00986 0.73508 0.0
C2085 C 0.40794 0.03774 0.70083 0.0
C2086 C 0.42165 0.03401 0.70916 0.0
C2087 C 0.43134 0.01748 0.73632 0.0
C2088 C 0.42741 0.00487 0.75523 0.0
C2089 C 0.41731 0.02035 0.72663 0.0
C2090 C 0.40885 0.9945 0.76341 0.0
C2091 C 0.39468 0.99678 0.75325 0.0
H2092 H 0.95599 0.36122 0.71953 0.0
H2093 H 0.01323 0.37365 0.71645 0.0
H2094 H 0.0235 0.4043 0.73424 0.0
H2095 H 0.0159 0.42673 0.75304 0.0
H2096 H 0.95845 0.41374 0.75584 0.0
H2097 H 0.94862 0.38408 0.736 0.0
C2098 C 0.97075 0.37067 0.72254 0.0
C2099 C 0.9838 0.36509 0.71675 0.0
C2100 C 0.97651 0.38811 0.73299 0.0
C2101 C 1.00287 0.37758 0.72073 0.0
C2102 C 0.00875 0.39508 0.73099 0.0
C2103 C 1.00126 0.41751 0.74904 0.0
C2104 C 0.98792 0.42238 0.75622 0.0
C2105 C 0.99565 0.40038 0.73754 0.0
C2106 C 0.96899 0.41019 0.751 0.0
C2107 C 0.96334 0.39326 0.73951 0.0
H2108 H 0.63183 0.63373 0.71393 0.0
H2109 H 0.65209 0.59502 0.7229 0.0
H2110 H 0.62295 0.57278 0.74195 0.0
H2111 H 0.59234 0.56467 0.75753 0.0
H2112 H 0.57082 0.6022 0.74718 0.0
H2113 H 0.59996 0.62465 0.7278 0.0
C2114 C 0.6298 0.62037 0.71989 0.0
C2115 C 0.64421 0.61613 0.71697 0.0
C2116 C 0.61286 0.60749 0.73089 0.0
C2117 C 0.6413 0.59872 0.72483 0.0
C2118 C 0.62463 0.58596 0.73583 0.0
C2119 C 0.59377 0.57758 0.75068 0.0
C2120 C 0.57924 0.5816 0.75389 0.0
C2121 C 0.61038 0.59025 0.73912 0.0
C2122 C 0.58178 0.59873 0.74536 0.0
C2123 C 0.59842 0.61156 0.73407 0.0
H2124 H 0.7181 0.74432 0.66075 0.0
H2125 H 0.6618 0.69803 0.66631 0.0
H2126 H 0.65004 0.71638 0.64628 0.0
H2127 H 0.65602 0.74508 0.62521 0.0
H2128 H 0.71253 0.79108 0.6199 0.0
H2129 H 0.72389 0.77323 0.64154 0.0
C2130 C 0.70322 0.73825 0.65779 0.0
C2131 C 0.69087 0.71979 0.665 0.0
C2132 C 0.6966 0.74877 0.64603 0.0
C2133 C 0.67164 0.71221 0.66098 0.0
C2134 C 0.6649 0.72267 0.64944 0.0
C2135 C 0.67079 0.75127 0.62902 0.0
C2136 C 0.68341 0.76935 0.62066 0.0
C2137 C 0.67729 0.7409 0.64159 0.0
C2138 C 0.70253 0.77707 0.62564 0.0
C2139 C 0.70905 0.76692 0.63818 0.0
H2140 H 0.30491 0.97048 0.64038 0.0
H2141 H 0.26064 0.97055 0.68072 0.0
H2142 H 0.23846 0.93944 0.66578 0.0
H2143 H 0.23136 0.91303 0.63988 0.0
H2144 H 0.27472 0.91473 0.59521 0.0
H2145 H 0.29754 0.94393 0.61369 0.0
C2146 C 0.29046 0.96351 0.64611 0.0
C2147 C 0.28439 0.97266 0.66175 0.0
C2148 C 0.2776 0.94593 0.63664 0.0
C2149 C 0.26558 0.96372 0.66872 0.0
C2150 C 0.25291 0.94596 0.66015 0.0
C2151 C 0.24572 0.91981 0.63384 0.0
C2152 C 0.25109 0.91148 0.61596 0.0
C2153 C 0.25869 0.93708 0.64376 0.0
C2154 C 0.27002 0.92044 0.60913 0.0
C2155 C 0.28314 0.93733 0.61955 0.0
H2156 H 0.02759 0.28306 0.66239 0.0
H2157 H 0.0407 0.34022 0.6709 0.0
H2158 H 0.07056 0.35101 0.65063 0.0
H2159 H 0.09223 0.34404 0.62857 0.0
H2160 H 0.07862 0.28669 0.62027 0.0
H2161 H 0.04962 0.2762 0.6421 0.0
C2162 C 0.03702 0.29791 0.66004 0.0
C2163 C 0.03185 0.31079 0.66816 0.0
C2164 C 0.05402 0.30399 0.64811 0.0
C2165 C 0.0443 0.32997 0.66487 0.0
C2166 C 0.06136 0.33616 0.65319 0.0
C2167 C 0.08301 0.32927 0.63175 0.0
C2168 C 0.08756 0.31619 0.6225 0.0
C2169 C 0.06627 0.32327 0.64445 0.0
C2170 C 0.07534 0.29707 0.6267 0.0
C2171 C 0.05878 0.29104 0.63935 0.0
H2172 H 0.26664 0.28507 0.65124 0.0
H2173 H 0.30416 0.34141 0.6745 0.0
H2174 H 0.2834 0.35159 0.65766 0.0
H2175 H 0.2547 0.34448 0.63572 0.0
H2176 H 0.21831 0.2882 0.61108 0.0
H2177 H 0.23841 0.27806 0.62931 0.0
C2178 C 0.27026 0.29958 0.6528 0.0
C2179 C 0.28693 0.31244 0.66421 0.0
C2180 C 0.25843 0.30537 0.64281 0.0
C2181 C 0.29142 0.3312 0.66585 0.0
C2182 C 0.27956 0.33704 0.65618 0.0
C2183 C 0.25122 0.33002 0.63419 0.0
C2184 C 0.23484 0.31713 0.62214 0.0
C2185 C 0.26307 0.32426 0.64446 0.0
C2186 C 0.23054 0.2984 0.62061 0.0
C2187 C 0.24213 0.29258 0.6309 0.0
H2188 H 0.6707 0.96105 0.66567 0.0
H2189 H 0.72952 0.98137 0.65515 0.0
H2190 H 0.72243 0.95232 0.63568 0.0
H2191 H 0.69981 0.92181 0.62016 0.0
H2192 H 0.64093 0.90019 0.63204 0.0
H2193 H 0.6478 0.92923 0.65185 0.0
C2194 C 0.68195 0.95905 0.65927 0.0
C2195 C 0.70062 0.97345 0.66188 0.0
C2196 C 0.6778 0.94217 0.64803 0.0
C2197 C 0.71502 0.97059 0.65347 0.0
C2198 C 0.711 0.95397 0.64222 0.0
C2199 C 0.68841 0.92319 0.62745 0.0
C2200 C 0.66985 0.90867 0.62456 0.0
C2201 C 0.69246 0.93974 0.63925 0.0
C2202 C 0.65535 0.91114 0.63363 0.0
C2203 C 0.65928 0.92773 0.64516 0.0
H2204 H 0.04646 0.71182 0.65879 0.0
H2205 H 0.0258 0.75004 0.64824 0.0
H2206 H 0.05498 0.77226 0.6292 0.0
H2207 H 0.0858 0.78045 0.61404 0.0
H2208 H 0.10741 0.74313 0.62555 0.0
H2209 H 0.07834 0.72088 0.64521 0.0
C2210 C 0.04841 0.72506 0.65248 0.0
C2211 C 0.03388 0.72918 0.65495 0.0
C2212 C 0.06533 0.7379 0.64144 0.0
C2213 C 0.03668 0.74644 0.64663 0.0
C2214 C 0.05338 0.75918 0.63565 0.0
C2215 C 0.08436 0.76762 0.62117 0.0
C2216 C 0.09889 0.76357 0.6182 0.0
C2217 C 0.06774 0.75501 0.63278 0.0
C2218 C 0.09643 0.74658 0.62717 0.0
C2219 C 0.07983 0.73387 0.63861 0.0
H2220 H 0.95686 0.60099 0.72079 0.0
H2221 H 0.01363 0.63999 0.70052 0.0
H2222 H 0.024 0.61957 0.71803 0.0
H2223 H 0.01688 0.59078 0.73995 0.0
H2224 H 0.96001 0.55285 0.76123 0.0
H2225 H 0.94979 0.57266 0.74232 0.0
C2226 C 0.9715 0.60502 0.72 0.0
C2227 C 0.98443 0.622 0.70928 0.0
C2228 C 0.97737 0.59338 0.73036 0.0
C2229 C 1.00336 0.62699 0.70861 0.0
C2230 C 0.00931 0.61533 0.71869 0.0
C2231 C 1.00228 0.58691 0.74055 0.0
C2232 C 0.98924 0.5702 0.75186 0.0
C2233 C 0.99645 0.59855 0.72981 0.0
C2234 C 0.97033 0.56538 0.75227 0.0
C2235 C 0.96446 0.57678 0.74159 0.0
H2236 H 0.3781 0.37833 0.71344 0.0
H2237 H 0.41684 0.3581 0.72226 0.0
H2238 H 0.43938 0.38751 0.74046 0.0
H2239 H 0.44762 0.41828 0.75575 0.0
H2240 H 0.40971 0.43942 0.74626 0.0
H2241 H 0.38727 0.41027 0.72695 0.0
C2242 C 0.39155 0.38044 0.71913 0.0
C2243 C 0.39569 0.36594 0.7165 0.0
C2244 C 0.40454 0.39747 0.72978 0.0
C2245 C 0.41319 0.36893 0.72405 0.0
C2246 C 0.42613 0.38577 0.73455 0.0
C2247 C 0.43462 0.41673 0.74911 0.0
C2248 C 0.43046 0.43114 0.75256 0.0
C2249 C 0.42188 0.40005 0.73775 0.0
C2250 C 0.41325 0.42853 0.74424 0.0
C2251 C 0.40043 0.41188 0.73301 0.0
H2252 H 0.64858 0.05102 0.72166 0.0
H2253 H 0.6304 0.99368 0.70387 0.0
H2254 H 0.59958 0.98403 0.72079 0.0
H2255 H 0.5781 0.99191 0.74174 0.0
H2256 H 0.59742 0.04931 0.7608 0.0
H2257 H 0.62738 0.05885 0.74207 0.0
C2258 C 0.63786 0.03641 0.72127 0.0
C2259 C 0.64182 0.02311 0.71146 0.0
C2260 C 0.62034 0.03095 0.73132 0.0
C2261 C 0.62774 0.00423 0.71127 0.0
C2262 C 0.61013 0.9987 0.72101 0.0
C2263 C 0.5889 0.00649 0.74191 0.0
C2264 C 0.58537 0.01985 0.75259 0.0
C2265 C 0.60633 0.01192 0.73133 0.0
C2266 C 0.59952 0.03872 0.75237 0.0
C2267 C 0.61675 0.04421 0.74179 0.0
loop_
_geom_bond_atom_site_label_1
_geom_bond_atom_site_label_2
_geom_bond_distance
_geom_bond_site_symmetry_2
_ccdc_geom_bond_type
O0 Cd1 2.223 . S
O0 C8 1.315 . S
Cd1 O0 2.223 . S
Cd1 O4 2.297 . S
Cd1 O5 2.439 . S
Cd1 O11 2.240 1_554 S
Cd2 O3 2.240 . S
Cd2 O10 2.223 1_554 S
Cd2 O12 2.297 1_554 S
Cd2 O13 2.439 1_554 S
O3 Cd2 2.240 . S
O3 C8 1.279 1_655 S
O4 Cd1 2.297 . S
O4 C6 1.247 . S
O5 Cd1 2.439 . S
O5 C6 1.208 . S
C6 O4 1.247 . S
C6 O5 1.208 . S
C7 O12 1.247 . S
C7 O13 1.208 . S
C8 O0 1.315 . S
C8 O3 1.279 1_455 S
C9 O10 1.315 . S
C9 O11 1.279 1_655 S
O10 Cd2 2.223 1_556 S
O10 C9 1.315 . S
O11 Cd1 2.240 1_556 S
O11 C9 1.279 1_455 S
O12 Cd2 2.297 1_556 S
O12 C7 1.247 . S
O13 Cd2 2.439 1_556 S
O13 C7 1.208 . S
O14 Cd15 2.223 . S
O14 C22 1.315 . S
Cd15 O14 2.223 . S
Cd15 O18 2.297 . S
Cd15 O19 2.439 . S
Cd15 O25 2.240 1_554 S
Cd16 O17 2.240 . S
Cd16 O24 2.223 1_554 S
Cd16 O26 2.297 1_554 S
Cd16 O27 2.439 1_554 S
O17 Cd16 2.240 . S
O17 C22 1.279 . S
O18 Cd15 2.297 . S
O18 C20 1.247 . S
O19 Cd15 2.439 . S
O19 C20 1.208 . S
C20 O18 1.247 . S
C20 O19 1.208 . S
C21 O26 1.247 . S
C21 O27 1.208 . S
C22 O14 1.315 . S
C22 O17 1.279 . S
C23 O24 1.315 . S
C23 O25 1.279 . S
O24 Cd16 2.223 1_556 S
O24 C23 1.315 . S
O25 Cd15 2.240 1_556 S
O25 C23 1.279 . S
O26 Cd16 2.297 1_556 S
O26 C21 1.247 . S
O27 Cd16 2.439 1_556 S
O27 C21 1.208 . S
O28 Cd29 2.223 1_556 S
O28 C36 1.315 . S
Cd29 O28 2.223 1_554 S
Cd29 O32 2.297 1_554 S
Cd29 O33 2.439 1_554 S
Cd29 O39 2.240 . S
Cd30 O31 2.240 1_554 S
Cd30 O38 2.223 . S
Cd30 O40 2.297 . S
Cd30 O41 2.439 . S
O31 Cd30 2.240 1_556 S
O31 C36 1.279 1_565 S
O32 Cd29 2.297 1_556 S
O32 C34 1.247 . S
O33 Cd29 2.439 1_556 S
O33 C34 1.208 . S
C34 O32 1.247 . S
C34 O33 1.208 . S
C35 O40 1.247 . S
C35 O41 1.208 . S
C36 O28 1.315 . S
C36 O31 1.279 1_545 S
C37 O38 1.315 . S
C37 O39 1.279 1_565 S
O38 Cd30 2.223 . S
O38 C37 1.315 . S
O39 Cd29 2.240 . S
O39 C37 1.279 1_545 S
O40 Cd30 2.297 . S
O40 C35 1.247 . S
O41 Cd30 2.439 . S
O41 C35 1.208 . S
O42 Cd43 2.223 1_556 S
O42 C50 1.315 . S
Cd43 O42 2.223 1_554 S
Cd43 O46 2.297 1_554 S
Cd43 O47 2.439 1_554 S
Cd43 O53 2.240 . S
Cd44 O45 2.240 1_554 S
Cd44 O52 2.223 . S
Cd44 O54 2.297 . S
Cd44 O55 2.439 . S
O45 Cd44 2.240 1_556 S
O45 C50 1.279 1_455 S
O46 Cd43 2.297 1_556 S
O46 C48 1.247 . S
O47 Cd43 2.439 1_556 S
O47 C48 1.208 . S
C48 O46 1.247 . S
C48 O47 1.208 . S
C49 O54 1.247 . S
C49 O55 1.208 . S
C50 O42 1.315 . S
C50 O45 1.279 1_655 S
C51 O52 1.315 . S
C51 O53 1.279 1_455 S
O52 Cd44 2.223 . S
O52 C51 1.315 . S
O53 Cd43 2.240 . S
O53 C51 1.279 1_655 S
O54 Cd44 2.297 . S
O54 C49 1.247 . S
O55 Cd44 2.439 . S
O55 C49 1.208 . S
O56 Cd57 2.223 1_556 S
O56 C64 1.315 . S
Cd57 O56 2.223 1_554 S
Cd57 O60 2.297 1_554 S
Cd57 O61 2.439 1_554 S
Cd57 O67 2.240 . S
Cd58 O59 2.240 1_554 S
Cd58 O66 2.223 . S
Cd58 O68 2.297 . S
Cd58 O69 2.439 . S
O59 Cd58 2.240 1_556 S
O59 C64 1.279 . S
O60 Cd57 2.297 1_556 S
O60 C62 1.247 . S
O61 Cd57 2.439 1_556 S
O61 C62 1.208 . S
C62 O60 1.247 . S
C62 O61 1.208 . S
C63 O68 1.247 . S
C63 O69 1.208 . S
C64 O56 1.315 . S
C64 O59 1.279 . S
C65 O66 1.315 . S
C65 O67 1.279 . S
O66 Cd58 2.223 . S
O66 C65 1.315 . S
O67 Cd57 2.240 . S
O67 C65 1.279 . S
O68 Cd58 2.297 . S
O68 C63 1.247 . S
O69 Cd58 2.439 . S
O69 C63 1.208 . S
O70 Cd71 2.223 . S
O70 C78 1.315 . S
Cd71 O70 2.223 . S
Cd71 O74 2.297 . S
Cd71 O75 2.439 . S
Cd71 O81 2.240 1_554 S
Cd72 O73 2.240 . S
Cd72 O80 2.223 1_554 S
Cd72 O82 2.297 1_554 S
Cd72 O83 2.439 1_554 S
O73 Cd72 2.240 . S
O73 C78 1.279 1_545 S
O74 Cd71 2.297 . S
O74 C76 1.247 . S
O75 Cd71 2.439 . S
O75 C76 1.208 . S
C76 O74 1.247 . S
C76 O75 1.208 . S
C77 O82 1.247 . S
C77 O83 1.208 . S
C78 O70 1.315 . S
C78 O73 1.279 1_565 S
C79 O80 1.315 . S
C79 O81 1.279 1_545 S
O80 Cd72 2.223 1_556 S
O80 C79 1.315 . S
O81 Cd71 2.240 1_556 S
O81 C79 1.279 1_565 S
O82 Cd72 2.297 1_556 S
O82 C77 1.247 . S
O83 Cd72 2.439 1_556 S
O83 C77 1.208 . S
O84 Cd85 2.223 . S
O84 C92 1.315 . S
Cd85 O84 2.223 . S
Cd85 O88 2.297 . S
Cd85 O89 2.439 . S
Cd85 O95 2.240 . S
Cd86 O87 2.240 . S
Cd86 O94 2.223 . S
Cd86 O96 2.297 . S
Cd86 O97 2.439 . S
O87 Cd86 2.240 . S
O87 C92 1.279 . S
O88 Cd85 2.297 . S
O88 C90 1.247 . S
O89 Cd85 2.439 . S
O89 C90 1.208 . S
C90 O88 1.247 . S
C90 O89 1.208 . S
C91 O96 1.247 . S
C91 O97 1.208 . S
C92 O84 1.315 . S
C92 O87 1.279 . S
C93 O94 1.315 . S
C93 O95 1.279 . S
O94 Cd86 2.223 . S
O94 C93 1.315 . S
O95 Cd85 2.240 . S
O95 C93 1.279 . S
O96 Cd86 2.297 . S
O96 C91 1.247 . S
O97 Cd86 2.439 . S
O97 C91 1.208 . S
O98 Cd99 2.223 . S
O98 C106 1.315 . S
Cd99 O98 2.223 . S
Cd99 O102 2.297 1_565 S
Cd99 O103 2.439 1_565 S
Cd99 O109 2.240 . S
Cd100 O101 2.240 . S
Cd100 O108 2.223 . S
Cd100 O110 2.297 . S
Cd100 O111 2.439 . S
O101 Cd100 2.240 . S
O101 C106 1.279 . S
O102 Cd99 2.297 1_545 S
O102 C104 1.247 . S
O103 Cd99 2.439 1_545 S
O103 C104 1.208 . S
C104 O102 1.247 . S
C104 O103 1.208 . S
C105 O110 1.247 . S
C105 O111 1.208 . S
C106 O98 1.315 . S
C106 O101 1.279 . S
C107 O108 1.315 . S
C107 O109 1.279 . S
O108 Cd100 2.223 . S
O108 C107 1.315 . S
O109 Cd99 2.240 . S
O109 C107 1.279 . S
O110 Cd100 2.297 . S
O110 C105 1.247 . S
O111 Cd100 2.439 . S
O111 C105 1.208 . S
O112 Cd113 2.223 . S
O112 C120 1.315 . S
Cd113 O112 2.223 . S
Cd113 O116 2.297 . S
Cd113 O117 2.439 . S
Cd113 O123 2.240 . S
Cd114 O115 2.240 . S
Cd114 O122 2.223 . S
Cd114 O124 2.297 1_455 S
Cd114 O125 2.439 1_455 S
O115 Cd114 2.240 . S
O115 C120 1.279 . S
O116 Cd113 2.297 . S
O116 C118 1.247 . S
O117 Cd113 2.439 . S
O117 C118 1.208 . S
C118 O116 1.247 . S
C118 O117 1.208 . S
C119 O124 1.247 . S
C119 O125 1.208 . S
C120 O112 1.315 . S
C120 O115 1.279 . S
C121 O122 1.315 . S
C121 O123 1.279 . S
O122 Cd114 2.223 . S
O122 C121 1.315 . S
O123 Cd113 2.240 . S
O123 C121 1.279 . S
O124 Cd114 2.297 1_655 S
O124 C119 1.247 . S
O125 Cd114 2.439 1_655 S
O125 C119 1.208 . S
O126 Cd127 2.223 . S
O126 C134 1.315 . S
Cd127 O126 2.223 . S
Cd127 O130 2.297 . S
Cd127 O131 2.439 . S
Cd127 O137 2.240 . S
Cd128 O129 2.240 . S
Cd128 O136 2.223 . S
Cd128 O138 2.297 1_565 S
Cd128 O139 2.439 1_565 S
O129 Cd128 2.240 . S
O129 C134 1.279 . S
O130 Cd127 2.297 . S
O130 C132 1.247 . S
O131 Cd127 2.439 . S
O131 C132 1.208 . S
C132 O130 1.247 . S
C132 O131 1.208 . S
C133 O138 1.247 . S
C133 O139 1.208 . S
C134 O126 1.315 . S
C134 O129 1.279 . S
C135 O136 1.315 . S
C135 O137 1.279 . S
O136 Cd128 2.223 . S
O136 C135 1.315 . S
O137 Cd127 2.240 . S
O137 C135 1.279 . S
O138 Cd128 2.297 1_545 S
O138 C133 1.247 . S
O139 Cd128 2.439 1_545 S
O139 C133 1.208 . S
O140 Cd141 2.223 . S
O140 C148 1.315 . S
Cd141 O140 2.223 . S
Cd141 O144 2.297 . S
Cd141 O145 2.439 . S
Cd141 O151 2.240 . S
Cd142 O143 2.240 . S
Cd142 O150 2.223 . S
Cd142 O152 2.297 1_455 S
Cd142 O153 2.439 1_455 S
O143 Cd142 2.240 . S
O143 C148 1.279 . S
O144 Cd141 2.297 . S
O144 C146 1.247 . S
O145 Cd141 2.439 . S
O145 C146 1.208 . S
C146 O144 1.247 . S
C146 O145 1.208 . S
C147 O152 1.247 . S
C147 O153 1.208 . S
C148 O140 1.315 . S
C148 O143 1.279 . S
C149 O150 1.315 . S
C149 O151 1.279 . S
O150 Cd142 2.223 . S
O150 C149 1.315 . S
O151 Cd141 2.240 . S
O151 C149 1.279 . S
O152 Cd142 2.297 1_655 S
O152 C147 1.247 . S
O153 Cd142 2.439 1_655 S
O153 C147 1.208 . S
O154 Cd155 2.223 . S
O154 C162 1.315 . S
Cd155 O154 2.223 . S
Cd155 O158 2.297 . S
Cd155 O159 2.439 . S
Cd155 O165 2.240 . S
Cd156 O157 2.240 . S
Cd156 O164 2.223 . S
Cd156 O166 2.297 . S
Cd156 O167 2.439 . S
O157 Cd156 2.240 . S
O157 C162 1.279 . S
O158 Cd155 2.297 . S
O158 C160 1.247 . S
O159 Cd155 2.439 . S
O159 C160 1.208 . S
C160 O158 1.247 . S
C160 O159 1.208 . S
C161 O166 1.247 . S
C161 O167 1.208 . S
C162 O154 1.315 . S
C162 O157 1.279 . S
C163 O164 1.315 . S
C163 O165 1.279 . S
O164 Cd156 2.223 . S
O164 C163 1.315 . S
O165 Cd155 2.240 . S
O165 C163 1.279 . S
O166 Cd156 2.297 . S
O166 C161 1.247 . S
O167 Cd156 2.439 . S
O167 C161 1.208 . S
O168 Cd169 2.223 . S
O168 C176 1.315 . S
Cd169 O168 2.223 . S
Cd169 O172 2.297 . S
Cd169 O173 2.439 . S
Cd169 O179 2.240 . S
Cd170 O171 2.240 . S
Cd170 O178 2.223 . S
Cd170 O180 2.297 1_545 S
Cd170 O181 2.439 1_545 S
O171 Cd170 2.240 . S
O171 C176 1.279 . S
O172 Cd169 2.297 . S
O172 C174 1.247 . S
O173 Cd169 2.439 . S
O173 C174 1.208 . S
C174 O172 1.247 . S
C174 O173 1.208 . S
C175 O180 1.247 . S
C175 O181 1.208 . S
C176 O168 1.315 . S
C176 O171 1.279 . S
C177 O178 1.315 . S
C177 O179 1.279 . S
O178 Cd170 2.223 . S
O178 C177 1.315 . S
O179 Cd169 2.240 . S
O179 C177 1.279 . S
O180 Cd170 2.297 1_565 S
O180 C175 1.247 . S
O181 Cd170 2.439 1_565 S
O181 C175 1.208 . S
O182 Cd183 2.223 . S
O182 C190 1.315 . S
Cd183 O182 2.223 . S
Cd183 O186 2.297 . S
Cd183 O187 2.439 . S
Cd183 O193 2.240 . S
Cd184 O185 2.240 . S
Cd184 O192 2.223 . S
Cd184 O194 2.297 1_655 S
Cd184 O195 2.439 1_655 S
O185 Cd184 2.240 . S
O185 C190 1.279 . S
O186 Cd183 2.297 . S
O186 C188 1.247 . S
O187 Cd183 2.439 . S
O187 C188 1.208 . S
C188 O186 1.247 . S
C188 O187 1.208 . S
C189 O194 1.247 . S
C189 O195 1.208 . S
C190 O182 1.315 . S
C190 O185 1.279 . S
C191 O192 1.315 . S
C191 O193 1.279 . S
O192 Cd184 2.223 . S
O192 C191 1.315 . S
O193 Cd183 2.240 . S
O193 C191 1.279 . S
O194 Cd184 2.297 1_455 S
O194 C189 1.247 . S
O195 Cd184 2.439 1_455 S
O195 C189 1.208 . S
O196 Cd197 2.223 . S
O196 C204 1.315 . S
Cd197 O196 2.223 . S
Cd197 O200 2.297 . S
Cd197 O201 2.439 . S
Cd197 O207 2.240 . S
Cd198 O199 2.240 . S
Cd198 O206 2.223 . S
Cd198 O208 2.297 . S
Cd198 O209 2.439 . S
O199 Cd198 2.240 . S
O199 C204 1.279 . S
O200 Cd197 2.297 . S
O200 C202 1.247 . S
O201 Cd197 2.439 . S
O201 C202 1.208 . S
C202 O200 1.247 . S
C202 O201 1.208 . S
C203 O208 1.247 . S
C203 O209 1.208 . S
C204 O196 1.315 . S
C204 O199 1.279 . S
C205 O206 1.315 . S
C205 O207 1.279 . S
O206 Cd198 2.223 . S
O206 C205 1.315 . S
O207 Cd197 2.240 . S
O207 C205 1.279 . S
O208 Cd198 2.297 . S
O208 C203 1.247 . S
O209 Cd198 2.439 . S
O209 C203 1.208 . S
O210 Cd211 2.223 . S
O210 C218 1.315 . S
Cd211 O210 2.223 . S
Cd211 O214 2.297 . S
Cd211 O215 2.439 . S
Cd211 O221 2.240 . S
Cd212 O213 2.240 . S
Cd212 O220 2.223 . S
Cd212 O222 2.297 . S
Cd212 O223 2.439 . S
O213 Cd212 2.240 . S
O213 C218 1.279 . S
O214 Cd211 2.297 . S
O214 C216 1.247 . S
O215 Cd211 2.439 . S
O215 C216 1.208 . S
C216 O214 1.247 . S
C216 O215 1.208 . S
C217 O222 1.247 . S
C217 O223 1.208 . S
C218 O210 1.315 . S
C218 O213 1.279 . S
C219 O220 1.315 . S
C219 O221 1.279 . S
O220 Cd212 2.223 . S
O220 C219 1.315 . S
O221 Cd211 2.240 . S
O221 C219 1.279 . S
O222 Cd212 2.297 . S
O222 C217 1.247 . S
O223 Cd212 2.439 . S
O223 C217 1.208 . S
O224 Cd225 2.223 . S
O224 C232 1.315 . S
Cd225 O224 2.223 . S
Cd225 O228 2.297 1_545 S
Cd225 O229 2.439 1_545 S
Cd225 O235 2.240 . S
Cd226 O227 2.240 . S
Cd226 O234 2.223 . S
Cd226 O236 2.297 . S
Cd226 O237 2.439 . S
O227 Cd226 2.240 . S
O227 C232 1.279 . S
O228 Cd225 2.297 1_565 S
O228 C230 1.247 . S
O229 Cd225 2.439 1_565 S
O229 C230 1.208 . S
C230 O228 1.247 . S
C230 O229 1.208 . S
C231 O236 1.247 . S
C231 O237 1.208 . S
C232 O224 1.315 . S
C232 O227 1.279 . S
C233 O234 1.315 . S
C233 O235 1.279 . S
O234 Cd226 2.223 . S
O234 C233 1.315 . S
O235 Cd225 2.240 . S
O235 C233 1.279 . S
O236 Cd226 2.297 . S
O236 C231 1.247 . S
O237 Cd226 2.439 . S
O237 C231 1.208 . S
O238 Cd239 2.223 . S
O238 C246 1.315 . S
Cd239 O238 2.223 . S
Cd239 O242 2.297 . S
Cd239 O243 2.439 . S
Cd239 O249 2.240 . S
Cd240 O241 2.240 . S
Cd240 O248 2.223 . S
Cd240 O250 2.297 1_655 S
Cd240 O251 2.439 1_655 S
O241 Cd240 2.240 . S
O241 C246 1.279 . S
O242 Cd239 2.297 . S
O242 C244 1.247 . S
O243 Cd239 2.439 . S
O243 C244 1.208 . S
C244 O242 1.247 . S
C244 O243 1.208 . S
C245 O250 1.247 . S
C245 O251 1.208 . S
C246 O238 1.315 . S
C246 O241 1.279 . S
C247 O248 1.315 . S
C247 O249 1.279 . S
O248 Cd240 2.223 . S
O248 C247 1.315 . S
O249 Cd239 2.240 . S
O249 C247 1.279 . S
O250 Cd240 2.297 1_455 S
O250 C245 1.247 . S
O251 Cd240 2.439 1_455 S
O251 C245 1.208 . S
H252 C271 0.949 . S
H253 C272 0.950 . S
H254 C274 0.950 . S
H255 C275 0.950 . S
H256 C277 0.950 . S
H257 C280 0.950 . S
H258 C281 0.950 . S
H259 C283 0.951 . S
H260 C284 0.949 . S
H261 C286 0.949 . S
H262 C287 0.950 . S
H263 C289 0.950 . S
H264 C290 0.950 . S
H265 C292 0.950 . S
H266 C295 0.950 . S
H267 C296 0.950 . S
H268 C298 0.951 . S
H269 C299 0.949 . S
C270 C271 1.376 . S
C270 C275 1.386 . S
C270 C276 1.483 . S
C271 H252 0.949 . S
C271 C270 1.376 . S
C271 C272 1.397 . S
C272 H253 0.950 . S
C272 C271 1.397 . S
C272 C273 1.391 . S
C273 C272 1.391 . S
C273 C274 1.405 . S
C274 H254 0.950 . S
C274 C273 1.405 . S
C274 C275 1.367 . S
C275 H255 0.950 . S
C275 C270 1.386 . S
C275 C274 1.367 . S
C276 C270 1.483 . S
C276 C277 1.382 . S
C276 C278 1.403 . S
C277 H256 0.950 . S
C277 C276 1.382 . S
C277 C293 1.411 . S
C278 C276 1.403 . S
C278 C279 1.489 . S
C278 C292 1.411 . S
C279 C278 1.489 . S
C279 C280 1.383 . S
C279 C284 1.382 . S
C280 H257 0.950 . S
C280 C279 1.383 . S
C280 C281 1.395 . S
C281 H258 0.950 . S
C281 C280 1.395 . S
C281 C282 1.288 . S
C282 C281 1.288 . S
C282 C283 1.392 . S
C283 H259 0.951 . S
C283 C282 1.392 . S
C283 C284 1.392 . S
C284 H260 0.949 . S
C284 C279 1.382 . S
C284 C283 1.392 . S
C285 C286 1.376 . S
C285 C290 1.386 . S
C285 C291 1.483 . S
C286 H261 0.949 . S
C286 C285 1.376 . S
C286 C287 1.397 . S
C287 H262 0.950 . S
C287 C286 1.397 . S
C287 C288 1.391 . S
C288 C287 1.391 . S
C288 C289 1.405 . S
C289 H263 0.950 . S
C289 C288 1.405 . S
C289 C290 1.367 . S
C290 H264 0.950 . S
C290 C285 1.386 . S
C290 C289 1.367 . S
C291 C285 1.483 . S
C291 C292 1.382 . S
C291 C293 1.403 . S
C292 H265 0.950 . S
C292 C278 1.411 . S
C292 C291 1.382 . S
C293 C277 1.411 . S
C293 C291 1.403 . S
C293 C294 1.489 . S
C294 C293 1.489 . S
C294 C295 1.383 . S
C294 C299 1.382 . S
C295 H266 0.950 . S
C295 C294 1.383 . S
C295 C296 1.395 . S
C296 H267 0.950 . S
C296 C295 1.395 . S
C296 C297 1.288 . S
C297 C296 1.288 . S
C297 C298 1.392 . S
C298 H268 0.951 . S
C298 C297 1.392 . S
C298 C299 1.392 . S
C299 H269 0.949 . S
C299 C294 1.382 . S
C299 C298 1.392 . S
H300 C319 0.949 . S
H301 C320 0.950 . S
H302 C322 0.950 . S
H303 C323 0.950 . S
H304 C325 0.950 . S
H305 C328 0.950 . S
H306 C329 0.950 . S
H307 C331 0.951 . S
H308 C332 0.949 . S
H309 C334 0.949 . S
H310 C335 0.950 . S
H311 C337 0.950 . S
H312 C338 0.950 . S
H313 C340 0.950 . S
H314 C343 0.950 . S
H315 C344 0.950 . S
H316 C346 0.951 . S
H317 C347 0.949 . S
C318 C319 1.376 . S
C318 C323 1.386 . S
C318 C324 1.483 . S
C319 H300 0.949 . S
C319 C318 1.376 . S
C319 C320 1.397 . S
C320 H301 0.950 . S
C320 C319 1.397 . S
C320 C321 1.391 . S
C321 C320 1.391 . S
C321 C322 1.405 . S
C322 H302 0.950 . S
C322 C321 1.405 . S
C322 C323 1.367 . S
C323 H303 0.950 . S
C323 C318 1.386 . S
C323 C322 1.367 . S
C324 C318 1.483 . S
C324 C325 1.382 . S
C324 C326 1.403 . S
C325 H304 0.950 . S
C325 C324 1.382 . S
C325 C341 1.411 . S
C326 C324 1.403 . S
C326 C327 1.489 . S
C326 C340 1.411 . S
C327 C326 1.489 . S
C327 C328 1.383 . S
C327 C332 1.382 . S
C328 H305 0.950 . S
C328 C327 1.383 . S
C328 C329 1.395 . S
C329 H306 0.950 . S
C329 C328 1.395 . S
C329 C330 1.288 . S
C330 C329 1.288 . S
C330 C331 1.392 . S
C331 H307 0.951 . S
C331 C330 1.392 . S
C331 C332 1.392 . S
C332 H308 0.949 . S
C332 C327 1.382 . S
C332 C331 1.392 . S
C333 C334 1.376 . S
C333 C338 1.386 . S
C333 C339 1.483 . S
C334 H309 0.949 . S
C334 C333 1.376 . S
C334 C335 1.397 . S
C335 H310 0.950 . S
C335 C334 1.397 . S
C335 C336 1.391 . S
C336 C335 1.391 . S
C336 C337 1.405 . S
C337 H311 0.950 . S
C337 C336 1.405 . S
C337 C338 1.367 . S
C338 H312 0.950 . S
C338 C333 1.386 . S
C338 C337 1.367 . S
C339 C333 1.483 . S
C339 C340 1.382 . S
C339 C341 1.403 . S
C340 H313 0.950 . S
C340 C326 1.411 . S
C340 C339 1.382 . S
C341 C325 1.411 . S
C341 C339 1.403 . S
C341 C342 1.489 . S
C342 C341 1.489 . S
C342 C343 1.383 . S
C342 C347 1.382 . S
C343 H314 0.950 . S
C343 C342 1.383 . S
C343 C344 1.395 . S
C344 H315 0.950 . S
C344 C343 1.395 . S
C344 C345 1.288 . S
C345 C344 1.288 . S
C345 C346 1.392 . S
C346 H316 0.951 . S
C346 C345 1.392 . S
C346 C347 1.392 . S
C347 H317 0.949 . S
C347 C342 1.382 . S
C347 C346 1.392 . S
H348 C367 0.949 . S
H349 C368 0.950 . S
H350 C370 0.950 . S
H351 C371 0.950 . S
H352 C373 0.950 . S
H353 C376 0.950 . S
H354 C377 0.950 . S
H355 C379 0.951 . S
H356 C380 0.949 . S
H357 C382 0.949 . S
H358 C383 0.950 . S
H359 C385 0.950 . S
H360 C386 0.950 . S
H361 C388 0.950 . S
H362 C391 0.950 . S
H363 C392 0.950 . S
H364 C394 0.951 . S
H365 C395 0.949 . S
C366 C367 1.376 . S
C366 C371 1.386 . S
C366 C372 1.483 . S
C367 H348 0.949 . S
C367 C366 1.376 . S
C367 C368 1.397 . S
C368 H349 0.950 . S
C368 C367 1.397 . S
C368 C369 1.391 . S
C369 C368 1.391 . S
C369 C370 1.405 . S
C370 H350 0.950 . S
C370 C369 1.405 . S
C370 C371 1.367 . S
C371 H351 0.950 . S
C371 C366 1.386 . S
C371 C370 1.367 . S
C372 C366 1.483 . S
C372 C373 1.382 . S
C372 C374 1.403 . S
C373 H352 0.950 . S
C373 C372 1.382 . S
C373 C389 1.411 . S
C374 C372 1.403 . S
C374 C375 1.489 . S
C374 C388 1.411 . S
C375 C374 1.489 . S
C375 C376 1.383 . S
C375 C380 1.382 . S
C376 H353 0.950 . S
C376 C375 1.383 . S
C376 C377 1.395 . S
C377 H354 0.950 . S
C377 C376 1.395 . S
C377 C378 1.288 . S
C378 C377 1.288 . S
C378 C379 1.392 . S
C379 H355 0.951 . S
C379 C378 1.392 . S
C379 C380 1.392 . S
C380 H356 0.949 . S
C380 C375 1.382 . S
C380 C379 1.392 . S
C381 C382 1.376 . S
C381 C386 1.386 . S
C381 C387 1.483 . S
C382 H357 0.949 . S
C382 C381 1.376 . S
C382 C383 1.397 . S
C383 H358 0.950 . S
C383 C382 1.397 . S
C383 C384 1.391 . S
C384 C383 1.391 . S
C384 C385 1.405 . S
C385 H359 0.950 . S
C385 C384 1.405 . S
C385 C386 1.367 . S
C386 H360 0.950 . S
C386 C381 1.386 . S
C386 C385 1.367 . S
C387 C381 1.483 . S
C387 C388 1.382 . S
C387 C389 1.403 . S
C388 H361 0.950 . S
C388 C374 1.411 . S
C388 C387 1.382 . S
C389 C373 1.411 . S
C389 C387 1.403 . S
C389 C390 1.489 . S
C390 C389 1.489 . S
C390 C391 1.383 . S
C390 C395 1.382 . S
C391 H362 0.950 . S
C391 C390 1.383 . S
C391 C392 1.395 . S
C392 H363 0.950 . S
C392 C391 1.395 . S
C392 C393 1.288 . S
C393 C392 1.288 . S
C393 C394 1.392 . S
C394 H364 0.951 . S
C394 C393 1.392 . S
C394 C395 1.392 . S
C395 H365 0.949 . S
C395 C390 1.382 . S
C395 C394 1.392 . S
H396 C415 0.949 . S
H397 C416 0.950 . S
H398 C418 0.950 . S
H399 C419 0.950 . S
H400 C421 0.950 . S
H401 C424 0.950 . S
H402 C425 0.950 . S
H403 C427 0.951 . S
H404 C428 0.949 . S
H405 C430 0.949 . S
H406 C431 0.950 . S
H407 C433 0.950 . S
H408 C434 0.950 . S
H409 C436 0.950 . S
H410 C439 0.950 . S
H411 C440 0.950 . S
H412 C442 0.951 . S
H413 C443 0.949 . S
C414 C415 1.376 . S
C414 C419 1.386 . S
C414 C420 1.483 . S
C415 H396 0.949 . S
C415 C414 1.376 . S
C415 C416 1.397 . S
C416 H397 0.950 . S
C416 C415 1.397 . S
C416 C417 1.391 . S
C417 C416 1.391 . S
C417 C418 1.405 . S
C418 H398 0.950 . S
C418 C417 1.405 . S
C418 C419 1.367 . S
C419 H399 0.950 . S
C419 C414 1.386 . S
C419 C418 1.367 . S
C420 C414 1.483 . S
C420 C421 1.382 . S
C420 C422 1.403 . S
C421 H400 0.950 . S
C421 C420 1.382 . S
C421 C437 1.411 . S
C422 C420 1.403 . S
C422 C423 1.489 . S
C422 C436 1.411 . S
C423 C422 1.489 . S
C423 C424 1.383 . S
C423 C428 1.382 . S
C424 H401 0.950 . S
C424 C423 1.383 . S
C424 C425 1.395 . S
C425 H402 0.950 . S
C425 C424 1.395 . S
C425 C426 1.288 . S
C426 C425 1.288 . S
C426 C427 1.392 . S
C427 H403 0.951 . S
C427 C426 1.392 . S
C427 C428 1.392 . S
C428 H404 0.949 . S
C428 C423 1.382 . S
C428 C427 1.392 . S
C429 C430 1.376 . S
C429 C434 1.386 . S
C429 C435 1.483 . S
C430 H405 0.949 . S
C430 C429 1.376 . S
C430 C431 1.397 . S
C431 H406 0.950 . S
C431 C430 1.397 . S
C431 C432 1.391 . S
C432 C431 1.391 . S
C432 C433 1.405 . S
C433 H407 0.950 . S
C433 C432 1.405 . S
C433 C434 1.367 . S
C434 H408 0.950 . S
C434 C429 1.386 . S
C434 C433 1.367 . S
C435 C429 1.483 . S
C435 C436 1.382 . S
C435 C437 1.403 . S
C436 H409 0.950 . S
C436 C422 1.411 . S
C436 C435 1.382 . S
C437 C421 1.411 . S
C437 C435 1.403 . S
C437 C438 1.489 . S
C438 C437 1.489 . S
C438 C439 1.383 . S
C438 C443 1.382 . S
C439 H410 0.950 . S
C439 C438 1.383 . S
C439 C440 1.395 . S
C440 H411 0.950 . S
C440 C439 1.395 . S
C440 C441 1.288 . S
C441 C440 1.288 . S
C441 C442 1.392 . S
C442 H412 0.951 . S
C442 C441 1.392 . S
C442 C443 1.392 . S
C443 H413 0.949 . S
C443 C438 1.382 . S
C443 C442 1.392 . S
H444 C463 0.949 . S
H445 C464 0.950 . S
H446 C466 0.950 . S
H447 C467 0.950 . S
H448 C469 0.950 . S
H449 C472 0.950 . S
H450 C473 0.950 . S
H451 C475 0.951 . S
H452 C476 0.949 . S
H453 C478 0.949 . S
H454 C479 0.950 . S
H455 C481 0.950 . S
H456 C482 0.950 . S
H457 C484 0.950 . S
H458 C487 0.950 . S
H459 C488 0.950 . S
H460 C490 0.951 . S
H461 C491 0.949 . S
C462 C463 1.376 . S
C462 C467 1.386 . S
C462 C468 1.483 . S
C463 H444 0.949 . S
C463 C462 1.376 . S
C463 C464 1.397 . S
C464 H445 0.950 . S
C464 C463 1.397 . S
C464 C465 1.391 . S
C465 C464 1.391 . S
C465 C466 1.405 . S
C466 H446 0.950 . S
C466 C465 1.405 . S
C466 C467 1.367 . S
C467 H447 0.950 . S
C467 C462 1.386 . S
C467 C466 1.367 . S
C468 C462 1.483 . S
C468 C469 1.382 . S
C468 C470 1.403 . S
C469 H448 0.950 . S
C469 C468 1.382 . S
C469 C485 1.411 . S
C470 C468 1.403 . S
C470 C471 1.489 . S
C470 C484 1.411 . S
C471 C470 1.489 . S
C471 C472 1.383 . S
C471 C476 1.382 . S
C472 H449 0.950 . S
C472 C471 1.383 . S
C472 C473 1.395 . S
C473 H450 0.950 . S
C473 C472 1.395 . S
C473 C474 1.288 . S
C474 C473 1.288 . S
C474 C475 1.392 . S
C475 H451 0.951 . S
C475 C474 1.392 . S
C475 C476 1.392 . S
C476 H452 0.949 . S
C476 C471 1.382 . S
C476 C475 1.392 . S
C477 C478 1.376 . S
C477 C482 1.386 . S
C477 C483 1.483 . S
C478 H453 0.949 . S
C478 C477 1.376 . S
C478 C479 1.397 . S
C479 H454 0.950 . S
C479 C478 1.397 . S
C479 C480 1.391 . S
C480 C479 1.391 . S
C480 C481 1.405 . S
C481 H455 0.950 . S
C481 C480 1.405 . S
C481 C482 1.367 . S
C482 H456 0.950 . S
C482 C477 1.386 . S
C482 C481 1.367 . S
C483 C477 1.483 . S
C483 C484 1.382 . S
C483 C485 1.403 . S
C484 H457 0.950 . S
C484 C470 1.411 . S
C484 C483 1.382 . S
C485 C469 1.411 . S
C485 C483 1.403 . S
C485 C486 1.489 . S
C486 C485 1.489 . S
C486 C487 1.383 . S
C486 C491 1.382 . S
C487 H458 0.950 . S
C487 C486 1.383 . S
C487 C488 1.395 . S
C488 H459 0.950 . S
C488 C487 1.395 . S
C488 C489 1.288 . S
C489 C488 1.288 . S
C489 C490 1.392 . S
C490 H460 0.951 . S
C490 C489 1.392 . S
C490 C491 1.392 . S
C491 H461 0.949 . S
C491 C486 1.382 . S
C491 C490 1.392 . S
H492 C511 0.949 . S
H493 C512 0.950 . S
H494 C514 0.950 . S
H495 C515 0.950 . S
H496 C517 0.950 . S
H497 C520 0.950 . S
H498 C521 0.950 . S
H499 C523 0.951 . S
H500 C524 0.949 . S
H501 C526 0.949 . S
H502 C527 0.950 . S
H503 C529 0.950 . S
H504 C530 0.950 . S
H505 C532 0.950 . S
H506 C535 0.950 . S
H507 C536 0.950 . S
H508 C538 0.951 . S
H509 C539 0.949 . S
C510 C511 1.376 . S
C510 C515 1.386 . S
C510 C516 1.483 . S
C511 H492 0.949 . S
C511 C510 1.376 . S
C511 C512 1.397 . S
C512 H493 0.950 . S
C512 C511 1.397 . S
C512 C513 1.391 . S
C513 C512 1.391 . S
C513 C514 1.405 . S
C514 H494 0.950 . S
C514 C513 1.405 . S
C514 C515 1.367 . S
C515 H495 0.950 . S
C515 C510 1.386 . S
C515 C514 1.367 . S
C516 C510 1.483 . S
C516 C517 1.382 . S
C516 C518 1.403 . S
C517 H496 0.950 . S
C517 C516 1.382 . S
C517 C533 1.411 . S
C518 C516 1.403 . S
C518 C519 1.489 . S
C518 C532 1.411 . S
C519 C518 1.489 . S
C519 C520 1.383 . S
C519 C524 1.382 . S
C520 H497 0.950 . S
C520 C519 1.383 . S
C520 C521 1.395 . S
C521 H498 0.950 . S
C521 C520 1.395 . S
C521 C522 1.288 . S
C522 C521 1.288 . S
C522 C523 1.392 . S
C523 H499 0.951 . S
C523 C522 1.392 . S
C523 C524 1.392 . S
C524 H500 0.949 . S
C524 C519 1.382 . S
C524 C523 1.392 . S
C525 C526 1.376 . S
C525 C530 1.386 . S
C525 C531 1.483 . S
C526 H501 0.949 . S
C526 C525 1.376 . S
C526 C527 1.397 . S
C527 H502 0.950 . S
C527 C526 1.397 . S
C527 C528 1.391 . S
C528 C527 1.391 . S
C528 C529 1.405 . S
C529 H503 0.950 . S
C529 C528 1.405 . S
C529 C530 1.367 . S
C530 H504 0.950 . S
C530 C525 1.386 . S
C530 C529 1.367 . S
C531 C525 1.483 . S
C531 C532 1.382 . S
C531 C533 1.403 . S
C532 H505 0.950 . S
C532 C518 1.411 . S
C532 C531 1.382 . S
C533 C517 1.411 . S
C533 C531 1.403 . S
C533 C534 1.489 . S
C534 C533 1.489 . S
C534 C535 1.383 . S
C534 C539 1.382 . S
C535 H506 0.950 . S
C535 C534 1.383 . S
C535 C536 1.395 . S
C536 H507 0.950 . S
C536 C535 1.395 . S
C536 C537 1.288 . S
C537 C536 1.288 . S
C537 C538 1.392 . S
C538 H508 0.951 . S
C538 C537 1.392 . S
C538 C539 1.392 . S
C539 H509 0.949 . S
C539 C534 1.382 . S
C539 C538 1.392 . S
H540 C559 0.949 . S
H541 C560 0.950 . S
H542 C562 0.950 . S
H543 C563 0.950 . S
H544 C565 0.950 . S
H545 C568 0.950 . S
H546 C569 0.950 . S
H547 C571 0.951 . S
H548 C572 0.949 . S
H549 C574 0.949 . S
H550 C575 0.950 . S
H551 C577 0.950 . S
H552 C578 0.950 . S
H553 C580 0.950 . S
H554 C583 0.950 . S
H555 C584 0.950 . S
H556 C586 0.951 . S
H557 C587 0.949 . S
C558 C559 1.376 . S
C558 C563 1.386 . S
C558 C564 1.483 . S
C559 H540 0.949 . S
C559 C558 1.376 . S
C559 C560 1.397 . S
C560 H541 0.950 . S
C560 C559 1.397 . S
C560 C561 1.391 . S
C561 C560 1.391 . S
C561 C562 1.405 . S
C562 H542 0.950 . S
C562 C561 1.405 . S
C562 C563 1.367 . S
C563 H543 0.950 . S
C563 C558 1.386 . S
C563 C562 1.367 . S
C564 C558 1.483 . S
C564 C565 1.382 . S
C564 C566 1.403 . S
C565 H544 0.950 . S
C565 C564 1.382 . S
C565 C581 1.411 . S
C566 C564 1.403 . S
C566 C567 1.489 . S
C566 C580 1.411 . S
C567 C566 1.489 . S
C567 C568 1.383 . S
C567 C572 1.382 . S
C568 H545 0.950 . S
C568 C567 1.383 . S
C568 C569 1.395 . S
C569 H546 0.950 . S
C569 C568 1.395 . S
C569 C570 1.288 . S
C570 C569 1.288 . S
C570 C571 1.392 . S
C571 H547 0.951 . S
C571 C570 1.392 . S
C571 C572 1.392 . S
C572 H548 0.949 . S
C572 C567 1.382 . S
C572 C571 1.392 . S
C573 C574 1.376 . S
C573 C578 1.386 . S
C573 C579 1.483 . S
C574 H549 0.949 . S
C574 C573 1.376 . S
C574 C575 1.397 . S
C575 H550 0.950 . S
C575 C574 1.397 . S
C575 C576 1.391 . S
C576 C575 1.391 . S
C576 C577 1.405 . S
C577 H551 0.950 . S
C577 C576 1.405 . S
C577 C578 1.367 . S
C578 H552 0.950 . S
C578 C573 1.386 . S
C578 C577 1.367 . S
C579 C573 1.483 . S
C579 C580 1.382 . S
C579 C581 1.403 . S
C580 H553 0.950 . S
C580 C566 1.411 . S
C580 C579 1.382 . S
C581 C565 1.411 . S
C581 C579 1.403 . S
C581 C582 1.489 . S
C582 C581 1.489 . S
C582 C583 1.383 . S
C582 C587 1.382 . S
C583 H554 0.950 . S
C583 C582 1.383 . S
C583 C584 1.395 . S
C584 H555 0.950 . S
C584 C583 1.395 . S
C584 C585 1.288 . S
C585 C584 1.288 . S
C585 C586 1.392 . S
C586 H556 0.951 . S
C586 C585 1.392 . S
C586 C587 1.392 . S
C587 H557 0.949 . S
C587 C582 1.382 . S
C587 C586 1.392 . S
H588 C607 0.949 . S
H589 C608 0.950 . S
H590 C610 0.950 . S
H591 C611 0.950 . S
H592 C613 0.950 . S
H593 C616 0.950 . S
H594 C617 0.950 . S
H595 C619 0.951 . S
H596 C620 0.949 . S
H597 C622 0.949 . S
H598 C623 0.950 . S
H599 C625 0.950 . S
H600 C626 0.950 . S
H601 C628 0.950 . S
H602 C631 0.950 . S
H603 C632 0.950 . S
H604 C634 0.951 . S
H605 C635 0.949 . S
C606 C607 1.376 . S
C606 C611 1.386 . S
C606 C612 1.483 . S
C607 H588 0.949 . S
C607 C606 1.376 . S
C607 C608 1.397 . S
C608 H589 0.950 . S
C608 C607 1.397 . S
C608 C609 1.391 . S
C609 C608 1.391 . S
C609 C610 1.405 . S
C610 H590 0.950 . S
C610 C609 1.405 . S
C610 C611 1.367 . S
C611 H591 0.950 . S
C611 C606 1.386 . S
C611 C610 1.367 . S
C612 C606 1.483 . S
C612 C613 1.382 . S
C612 C614 1.403 . S
C613 H592 0.950 . S
C613 C612 1.382 . S
C613 C629 1.411 . S
C614 C612 1.403 . S
C614 C615 1.489 . S
C614 C628 1.411 . S
C615 C614 1.489 . S
C615 C616 1.383 . S
C615 C620 1.382 . S
C616 H593 0.950 . S
C616 C615 1.383 . S
C616 C617 1.395 . S
C617 H594 0.950 . S
C617 C616 1.395 . S
C617 C618 1.288 . S
C618 C617 1.288 . S
C618 C619 1.392 . S
C619 H595 0.951 . S
C619 C618 1.392 . S
C619 C620 1.392 . S
C620 H596 0.949 . S
C620 C615 1.382 . S
C620 C619 1.392 . S
C621 C622 1.376 . S
C621 C626 1.386 . S
C621 C627 1.483 . S
C622 H597 0.949 . S
C622 C621 1.376 . S
C622 C623 1.397 . S
C623 H598 0.950 . S
C623 C622 1.397 . S
C623 C624 1.391 . S
C624 C623 1.391 . S
C624 C625 1.405 . S
C625 H599 0.950 . S
C625 C624 1.405 . S
C625 C626 1.367 . S
C626 H600 0.950 . S
C626 C621 1.386 . S
C626 C625 1.367 . S
C627 C621 1.483 . S
C627 C628 1.382 . S
C627 C629 1.403 . S
C628 H601 0.950 . S
C628 C614 1.411 . S
C628 C627 1.382 . S
C629 C613 1.411 . S
C629 C627 1.403 . S
C629 C630 1.489 . S
C630 C629 1.489 . S
C630 C631 1.383 . S
C630 C635 1.382 . S
C631 H602 0.950 . S
C631 C630 1.383 . S
C631 C632 1.395 . S
C632 H603 0.950 . S
C632 C631 1.395 . S
C632 C633 1.288 . S
C633 C632 1.288 . S
C633 C634 1.392 . S
C634 H604 0.951 . S
C634 C633 1.392 . S
C634 C635 1.392 . S
C635 H605 0.949 . S
C635 C630 1.382 . S
C635 C634 1.392 . S
H636 C655 0.949 . S
H637 C656 0.950 . S
H638 C658 0.950 . S
H639 C659 0.950 . S
H640 C661 0.950 . S
H641 C664 0.950 . S
H642 C665 0.950 . S
H643 C667 0.951 . S
H644 C668 0.949 . S
H645 C670 0.949 . S
H646 C671 0.950 . S
H647 C673 0.950 . S
H648 C674 0.950 . S
H649 C676 0.950 . S
H650 C679 0.950 . S
H651 C680 0.950 . S
H652 C682 0.951 . S
H653 C683 0.949 . S
C654 C655 1.376 . S
C654 C659 1.386 . S
C654 C660 1.483 . S
C655 H636 0.949 . S
C655 C654 1.376 . S
C655 C656 1.397 . S
C656 H637 0.950 . S
C656 C655 1.397 . S
C656 C657 1.391 . S
C657 C656 1.391 . S
C657 C658 1.405 . S
C658 H638 0.950 . S
C658 C657 1.405 . S
C658 C659 1.367 . S
C659 H639 0.950 . S
C659 C654 1.386 . S
C659 C658 1.367 . S
C660 C654 1.483 . S
C660 C661 1.382 . S
C660 C662 1.403 . S
C661 H640 0.950 . S
C661 C660 1.382 . S
C661 C677 1.411 . S
C662 C660 1.403 . S
C662 C663 1.489 . S
C662 C676 1.411 . S
C663 C662 1.489 . S
C663 C664 1.383 . S
C663 C668 1.382 . S
C664 H641 0.950 . S
C664 C663 1.383 . S
C664 C665 1.395 . S
C665 H642 0.950 . S
C665 C664 1.395 . S
C665 C666 1.288 . S
C666 C665 1.288 . S
C666 C667 1.392 . S
C667 H643 0.951 . S
C667 C666 1.392 . S
C667 C668 1.392 . S
C668 H644 0.949 . S
C668 C663 1.382 . S
C668 C667 1.392 . S
C669 C670 1.376 . S
C669 C674 1.386 . S
C669 C675 1.483 . S
C670 H645 0.949 . S
C670 C669 1.376 . S
C670 C671 1.397 . S
C671 H646 0.950 . S
C671 C670 1.397 . S
C671 C672 1.391 . S
C672 C671 1.391 . S
C672 C673 1.405 . S
C673 H647 0.950 . S
C673 C672 1.405 . S
C673 C674 1.367 . S
C674 H648 0.950 . S
C674 C669 1.386 . S
C674 C673 1.367 . S
C675 C669 1.483 . S
C675 C676 1.382 . S
C675 C677 1.403 . S
C676 H649 0.950 . S
C676 C662 1.411 . S
C676 C675 1.382 . S
C677 C661 1.411 . S
C677 C675 1.403 . S
C677 C678 1.489 . S
C678 C677 1.489 . S
C678 C679 1.383 . S
C678 C683 1.382 . S
C679 H650 0.950 . S
C679 C678 1.383 . S
C679 C680 1.395 . S
C680 H651 0.950 . S
C680 C679 1.395 . S
C680 C681 1.288 . S
C681 C680 1.288 . S
C681 C682 1.392 . S
C682 H652 0.951 . S
C682 C681 1.392 . S
C682 C683 1.392 . S
C683 H653 0.949 . S
C683 C678 1.382 . S
C683 C682 1.392 . S
H684 C703 0.949 . S
H685 C704 0.950 . S
H686 C706 0.950 . S
H687 C707 0.950 . S
H688 C709 0.950 . S
H689 C712 0.950 . S
H690 C713 0.950 . S
H691 C715 0.951 . S
H692 C716 0.949 . S
H693 C718 0.949 . S
H694 C719 0.950 . S
H695 C721 0.950 . S
H696 C722 0.950 . S
H697 C724 0.950 . S
H698 C727 0.950 . S
H699 C728 0.950 . S
H700 C730 0.951 . S
H701 C731 0.949 . S
C702 C703 1.376 . S
C702 C707 1.386 1_655 S
C702 C708 1.483 . S
C703 H684 0.949 . S
C703 C702 1.376 . S
C703 C704 1.397 . S
C704 H685 0.950 . S
C704 C703 1.397 . S
C704 C705 1.391 . S
C705 C704 1.391 . S
C705 C706 1.405 1_655 S
C706 H686 0.950 . S
C706 C705 1.405 1_455 S
C706 C707 1.367 . S
C707 H687 0.950 . S
C707 C702 1.386 1_455 S
C707 C706 1.367 . S
C708 C702 1.483 . S
C708 C709 1.382 . S
C708 C710 1.403 1_655 S
C709 H688 0.950 . S
C709 C708 1.382 . S
C709 C725 1.411 . S
C710 C708 1.403 1_455 S
C710 C711 1.489 . S
C710 C724 1.411 . S
C711 C710 1.489 . S
C711 C712 1.383 1_455 S
C711 C716 1.382 . S
C712 H689 0.950 . S
C712 C711 1.383 1_655 S
C712 C713 1.395 . S
C713 H690 0.950 . S
C713 C712 1.395 . S
C713 C714 1.288 1_655 S
C714 C713 1.288 1_455 S
C714 C715 1.392 . S
C715 H691 0.951 . S
C715 C714 1.392 . S
C715 C716 1.392 . S
C716 H692 0.949 . S
C716 C711 1.382 . S
C716 C715 1.392 . S
C717 C718 1.376 . S
C717 C722 1.386 1_455 S
C717 C723 1.483 . S
C718 H693 0.949 . S
C718 C717 1.376 . S
C718 C719 1.397 . S
C719 H694 0.950 . S
C719 C718 1.397 . S
C719 C720 1.391 . S
C720 C719 1.391 . S
C720 C721 1.405 1_455 S
C721 H695 0.950 . S
C721 C720 1.405 1_655 S
C721 C722 1.367 . S
C722 H696 0.950 . S
C722 C717 1.386 1_655 S
C722 C721 1.367 . S
C723 C717 1.483 . S
C723 C724 1.382 . S
C723 C725 1.403 1_455 S
C724 H697 0.950 . S
C724 C710 1.411 . S
C724 C723 1.382 . S
C725 C709 1.411 . S
C725 C723 1.403 1_655 S
C725 C726 1.489 . S
C726 C725 1.489 . S
C726 C727 1.383 1_655 S
C726 C731 1.382 . S
C727 H698 0.950 . S
C727 C726 1.383 1_455 S
C727 C728 1.395 . S
C728 H699 0.950 . S
C728 C727 1.395 . S
C728 C729 1.288 1_455 S
C729 C728 1.288 1_655 S
C729 C730 1.392 . S
C730 H700 0.951 . S
C730 C729 1.392 . S
C730 C731 1.392 . S
C731 H701 0.949 . S
C731 C726 1.382 . S
C731 C730 1.392 . S
H732 C751 0.949 . S
H733 C752 0.950 . S
H734 C754 0.950 . S
H735 C755 0.950 . S
H736 C757 0.950 . S
H737 C760 0.950 . S
H738 C761 0.950 . S
H739 C763 0.951 . S
H740 C764 0.949 . S
H741 C766 0.949 . S
H742 C767 0.950 . S
H743 C769 0.950 . S
H744 C770 0.950 . S
H745 C772 0.950 . S
H746 C775 0.950 . S
H747 C776 0.950 . S
H748 C778 0.951 . S
H749 C779 0.949 . S
C750 C751 1.376 . S
C750 C755 1.386 . S
C750 C756 1.483 . S
C751 H732 0.949 . S
C751 C750 1.376 . S
C751 C752 1.397 . S
C752 H733 0.950 . S
C752 C751 1.397 . S
C752 C753 1.391 . S
C753 C752 1.391 . S
C753 C754 1.405 . S
C754 H734 0.950 . S
C754 C753 1.405 . S
C754 C755 1.367 . S
C755 H735 0.950 . S
C755 C750 1.386 . S
C755 C754 1.367 . S
C756 C750 1.483 . S
C756 C757 1.382 . S
C756 C758 1.403 . S
C757 H736 0.950 . S
C757 C756 1.382 . S
C757 C773 1.411 . S
C758 C756 1.403 . S
C758 C759 1.489 . S
C758 C772 1.411 . S
C759 C758 1.489 . S
C759 C760 1.383 . S
C759 C764 1.382 . S
C760 H737 0.950 . S
C760 C759 1.383 . S
C760 C761 1.395 . S
C761 H738 0.950 . S
C761 C760 1.395 . S
C761 C762 1.288 . S
C762 C761 1.288 . S
C762 C763 1.392 . S
C763 H739 0.951 . S
C763 C762 1.392 . S
C763 C764 1.392 . S
C764 H740 0.949 . S
C764 C759 1.382 . S
C764 C763 1.392 . S
C765 C766 1.376 . S
C765 C770 1.386 . S
C765 C771 1.483 . S
C766 H741 0.949 . S
C766 C765 1.376 . S
C766 C767 1.397 . S
C767 H742 0.950 . S
C767 C766 1.397 . S
C767 C768 1.391 . S
C768 C767 1.391 . S
C768 C769 1.405 . S
C769 H743 0.950 . S
C769 C768 1.405 . S
C769 C770 1.367 . S
C770 H744 0.950 . S
C770 C765 1.386 . S
C770 C769 1.367 . S
C771 C765 1.483 . S
C771 C772 1.382 . S
C771 C773 1.403 . S
C772 H745 0.950 . S
C772 C758 1.411 . S
C772 C771 1.382 . S
C773 C757 1.411 . S
C773 C771 1.403 . S
C773 C774 1.489 . S
C774 C773 1.489 . S
C774 C775 1.383 . S
C774 C779 1.382 . S
C775 H746 0.950 . S
C775 C774 1.383 . S
C775 C776 1.395 . S
C776 H747 0.950 . S
C776 C775 1.395 . S
C776 C777 1.288 . S
C777 C776 1.288 . S
C777 C778 1.392 . S
C778 H748 0.951 . S
C778 C777 1.392 . S
C778 C779 1.392 . S
C779 H749 0.949 . S
C779 C774 1.382 . S
C779 C778 1.392 . S
H780 C799 0.949 . S
H781 C800 0.950 . S
H782 C802 0.950 . S
H783 C803 0.950 . S
H784 C805 0.950 . S
H785 C808 0.950 . S
H786 C809 0.950 . S
H787 C811 0.951 . S
H788 C812 0.949 . S
H789 C814 0.949 . S
H790 C815 0.950 . S
H791 C817 0.950 . S
H792 C818 0.950 . S
H793 C820 0.950 . S
H794 C823 0.950 . S
H795 C824 0.950 . S
H796 C826 0.951 . S
H797 C827 0.949 . S
C798 C799 1.376 . S
C798 C803 1.386 1_545 S
C798 C804 1.483 . S
C799 H780 0.949 . S
C799 C798 1.376 . S
C799 C800 1.397 . S
C800 H781 0.950 . S
C800 C799 1.397 . S
C800 C801 1.391 . S
C801 C800 1.391 . S
C801 C802 1.405 1_545 S
C802 H782 0.950 . S
C802 C801 1.405 1_565 S
C802 C803 1.367 . S
C803 H783 0.950 . S
C803 C798 1.386 1_565 S
C803 C802 1.367 . S
C804 C798 1.483 . S
C804 C805 1.382 . S
C804 C806 1.403 1_545 S
C805 H784 0.950 . S
C805 C804 1.382 . S
C805 C821 1.411 . S
C806 C804 1.403 1_565 S
C806 C807 1.489 . S
C806 C820 1.411 . S
C807 C806 1.489 . S
C807 C808 1.383 1_565 S
C807 C812 1.382 . S
C808 H785 0.950 . S
C808 C807 1.383 1_545 S
C808 C809 1.395 . S
C809 H786 0.950 . S
C809 C808 1.395 . S
C809 C810 1.288 1_545 S
C810 C809 1.288 1_565 S
C810 C811 1.392 . S
C811 H787 0.951 . S
C811 C810 1.392 . S
C811 C812 1.392 . S
C812 H788 0.949 . S
C812 C807 1.382 . S
C812 C811 1.392 . S
C813 C814 1.376 . S
C813 C818 1.386 1_565 S
C813 C819 1.483 . S
C814 H789 0.949 . S
C814 C813 1.376 . S
C814 C815 1.397 . S
C815 H790 0.950 . S
C815 C814 1.397 . S
C815 C816 1.391 . S
C816 C815 1.391 . S
C816 C817 1.405 1_565 S
C817 H791 0.950 . S
C817 C816 1.405 1_545 S
C817 C818 1.367 . S
C818 H792 0.950 . S
C818 C813 1.386 1_545 S
C818 C817 1.367 . S
C819 C813 1.483 . S
C819 C820 1.382 . S
C819 C821 1.403 1_565 S
C820 H793 0.950 . S
C820 C806 1.411 . S
C820 C819 1.382 . S
C821 C805 1.411 . S
C821 C819 1.403 1_545 S
C821 C822 1.489 . S
C822 C821 1.489 . S
C822 C823 1.383 1_545 S
C822 C827 1.382 . S
C823 H794 0.950 . S
C823 C822 1.383 1_565 S
C823 C824 1.395 . S
C824 H795 0.950 . S
C824 C823 1.395 . S
C824 C825 1.288 1_565 S
C825 C824 1.288 1_545 S
C825 C826 1.392 . S
C826 H796 0.951 . S
C826 C825 1.392 . S
C826 C827 1.392 . S
C827 H797 0.949 . S
C827 C822 1.382 . S
C827 C826 1.392 . S
H828 C847 0.949 . S
H829 C848 0.950 . S
H830 C850 0.950 . S
H831 C851 0.950 . S
H832 C853 0.950 . S
H833 C856 0.950 . S
H834 C857 0.950 . S
H835 C859 0.951 . S
H836 C860 0.949 . S
H837 C862 0.949 . S
H838 C863 0.950 . S
H839 C865 0.950 . S
H840 C866 0.950 . S
H841 C868 0.950 . S
H842 C871 0.950 . S
H843 C872 0.950 . S
H844 C874 0.951 . S
H845 C875 0.949 . S
C846 C847 1.388 . S
C846 C851 1.380 1_545 S
C846 C852 1.503 . S
C847 H828 0.949 . S
C847 C846 1.388 . S
C847 C848 1.397 . S
C848 H829 0.950 . S
C848 C847 1.397 . S
C848 C849 1.391 1_545 S
C849 C848 1.391 1_565 S
C849 C850 1.405 . S
C850 H830 0.950 . S
C850 C849 1.405 . S
C850 C851 1.367 . S
C851 H831 0.950 . S
C851 C846 1.380 1_565 S
C851 C850 1.367 . S
C852 C846 1.503 . S
C852 C853 1.358 . S
C852 C854 1.398 1_545 S
C853 H832 0.950 . S
C853 C852 1.358 . S
C853 C869 1.447 . S
C854 C852 1.398 1_565 S
C854 C855 1.486 . S
C854 C868 1.438 . S
C855 C854 1.486 . S
C855 C856 1.337 1_565 S
C855 C860 1.407 . S
C856 H833 0.950 . S
C856 C855 1.337 1_545 S
C856 C857 1.395 . S
C857 H834 0.950 . S
C857 C856 1.395 . S
C857 C858 1.288 . S
C858 C857 1.288 . S
C858 C859 1.392 1_545 S
C859 H835 0.951 . S
C859 C858 1.392 1_565 S
C859 C860 1.392 . S
C860 H836 0.949 . S
C860 C855 1.407 . S
C860 C859 1.392 . S
C861 C862 1.375 . S
C861 C866 1.386 1_565 S
C861 C867 1.503 . S
C862 H837 0.949 . S
C862 C861 1.375 . S
C862 C863 1.397 . S
C863 H838 0.950 . S
C863 C862 1.397 . S
C863 C864 1.391 1_565 S
C864 C863 1.391 1_545 S
C864 C865 1.405 . S
C865 H839 0.950 . S
C865 C864 1.405 . S
C865 C866 1.367 . S
C866 H840 0.950 . S
C866 C861 1.386 1_545 S
C866 C865 1.367 . S
C867 C861 1.503 . S
C867 C868 1.364 . S
C867 C869 1.398 1_565 S
C868 H841 0.950 . S
C868 C854 1.438 . S
C868 C867 1.364 . S
C869 C853 1.447 . S
C869 C867 1.398 1_545 S
C869 C870 1.486 . S
C870 C869 1.486 . S
C870 C871 1.322 1_545 S
C870 C875 1.416 . S
C871 H842 0.950 . S
C871 C870 1.322 1_565 S
C871 C872 1.395 . S
C872 H843 0.950 . S
C872 C871 1.395 . S
C872 C873 1.322 . S
C873 C872 1.322 . S
C873 C874 1.326 1_565 S
C874 H844 0.951 . S
C874 C873 1.326 1_545 S
C874 C875 1.392 . S
C875 H845 0.949 . S
C875 C870 1.416 . S
C875 C874 1.392 . S
H876 C895 0.949 . S
H877 C896 0.950 . S
H878 C898 0.950 . S
H879 C899 0.950 . S
H880 C901 0.950 . S
H881 C904 0.950 . S
H882 C905 0.950 . S
H883 C907 0.951 . S
H884 C908 0.949 . S
H885 C910 0.949 . S
H886 C911 0.950 . S
H887 C913 0.950 . S
H888 C914 0.950 . S
H889 C916 0.950 . S
H890 C919 0.950 . S
H891 C920 0.950 . S
H892 C922 0.951 . S
H893 C923 0.949 . S
C894 C895 1.376 . S
C894 C899 1.386 1_455 S
C894 C900 1.483 . S
C895 H876 0.949 . S
C895 C894 1.376 . S
C895 C896 1.397 . S
C896 H877 0.950 . S
C896 C895 1.397 . S
C896 C897 1.391 . S
C897 C896 1.391 . S
C897 C898 1.405 1_455 S
C898 H878 0.950 . S
C898 C897 1.405 1_655 S
C898 C899 1.367 . S
C899 H879 0.950 . S
C899 C894 1.386 1_655 S
C899 C898 1.367 . S
C900 C894 1.483 . S
C900 C901 1.382 . S
C900 C902 1.403 1_455 S
C901 H880 0.950 . S
C901 C900 1.382 . S
C901 C917 1.411 . S
C902 C900 1.403 1_655 S
C902 C903 1.489 . S
C902 C916 1.411 . S
C903 C902 1.489 . S
C903 C904 1.383 1_655 S
C903 C908 1.382 . S
C904 H881 0.950 . S
C904 C903 1.383 1_455 S
C904 C905 1.395 . S
C905 H882 0.950 . S
C905 C904 1.395 . S
C905 C906 1.288 1_455 S
C906 C905 1.288 1_655 S
C906 C907 1.392 . S
C907 H883 0.951 . S
C907 C906 1.392 . S
C907 C908 1.392 . S
C908 H884 0.949 . S
C908 C903 1.382 . S
C908 C907 1.392 . S
C909 C910 1.376 . S
C909 C914 1.386 1_655 S
C909 C915 1.483 . S
C910 H885 0.949 . S
C910 C909 1.376 . S
C910 C911 1.397 . S
C911 H886 0.950 . S
C911 C910 1.397 . S
C911 C912 1.391 . S
C912 C911 1.391 . S
C912 C913 1.405 1_655 S
C913 H887 0.950 . S
C913 C912 1.405 1_455 S
C913 C914 1.367 . S
C914 H888 0.950 . S
C914 C909 1.386 1_455 S
C914 C913 1.367 . S
C915 C909 1.483 . S
C915 C916 1.382 . S
C915 C917 1.403 1_655 S
C916 H889 0.950 . S
C916 C902 1.411 . S
C916 C915 1.382 . S
C917 C901 1.411 . S
C917 C915 1.403 1_455 S
C917 C918 1.489 . S
C918 C917 1.489 . S
C918 C919 1.383 1_455 S
C918 C923 1.382 . S
C919 H890 0.950 . S
C919 C918 1.383 1_655 S
C919 C920 1.395 . S
C920 H891 0.950 . S
C920 C919 1.395 . S
C920 C921 1.288 1_655 S
C921 C920 1.288 1_455 S
C921 C922 1.392 . S
C922 H892 0.951 . S
C922 C921 1.392 . S
C922 C923 1.392 . S
C923 H893 0.949 . S
C923 C918 1.382 . S
C923 C922 1.392 . S
H924 C943 0.949 . S
H925 C944 0.950 . S
H926 C946 0.950 . S
H927 C947 0.950 . S
H928 C949 0.950 . S
H929 C952 0.950 . S
H930 C953 0.950 . S
H931 C955 0.951 . S
H932 C956 0.949 . S
H933 C958 0.949 . S
H934 C959 0.950 . S
H935 C961 0.950 . S
H936 C962 0.950 . S
H937 C964 0.950 . S
H938 C967 0.950 . S
H939 C968 0.950 . S
H940 C970 0.951 . S
H941 C971 0.949 . S
C942 C943 1.376 . S
C942 C947 1.386 . S
C942 C948 1.483 . S
C943 H924 0.949 . S
C943 C942 1.376 . S
C943 C944 1.397 . S
C944 H925 0.950 . S
C944 C943 1.397 . S
C944 C945 1.391 . S
C945 C944 1.391 . S
C945 C946 1.405 . S
C946 H926 0.950 . S
C946 C945 1.405 . S
C946 C947 1.367 . S
C947 H927 0.950 . S
C947 C942 1.386 . S
C947 C946 1.367 . S
C948 C942 1.483 . S
C948 C949 1.382 . S
C948 C950 1.403 . S
C949 H928 0.950 . S
C949 C948 1.382 . S
C949 C965 1.411 . S
C950 C948 1.403 . S
C950 C951 1.489 . S
C950 C964 1.411 . S
C951 C950 1.489 . S
C951 C952 1.383 . S
C951 C956 1.382 . S
C952 H929 0.950 . S
C952 C951 1.383 . S
C952 C953 1.395 . S
C953 H930 0.950 . S
C953 C952 1.395 . S
C953 C954 1.288 . S
C954 C953 1.288 . S
C954 C955 1.392 . S
C955 H931 0.951 . S
C955 C954 1.392 . S
C955 C956 1.392 . S
C956 H932 0.949 . S
C956 C951 1.382 . S
C956 C955 1.392 . S
C957 C958 1.376 . S
C957 C962 1.386 . S
C957 C963 1.483 . S
C958 H933 0.949 . S
C958 C957 1.376 . S
C958 C959 1.397 . S
C959 H934 0.950 . S
C959 C958 1.397 . S
C959 C960 1.391 . S
C960 C959 1.391 . S
C960 C961 1.405 . S
C961 H935 0.950 . S
C961 C960 1.405 . S
C961 C962 1.367 . S
C962 H936 0.950 . S
C962 C957 1.386 . S
C962 C961 1.367 . S
C963 C957 1.483 . S
C963 C964 1.382 . S
C963 C965 1.403 . S
C964 H937 0.950 . S
C964 C950 1.411 . S
C964 C963 1.382 . S
C965 C949 1.411 . S
C965 C963 1.403 . S
C965 C966 1.489 . S
C966 C965 1.489 . S
C966 C967 1.383 . S
C966 C971 1.382 . S
C967 H938 0.950 . S
C967 C966 1.383 . S
C967 C968 1.395 . S
C968 H939 0.950 . S
C968 C967 1.395 . S
C968 C969 1.288 . S
C969 C968 1.288 . S
C969 C970 1.392 . S
C970 H940 0.951 . S
C970 C969 1.392 . S
C970 C971 1.392 . S
C971 H941 0.949 . S
C971 C966 1.382 . S
C971 C970 1.392 . S
H972 C991 0.949 . S
H973 C992 0.950 . S
H974 C994 0.950 . S
H975 C995 0.950 . S
H976 C997 0.950 . S
H977 C1000 0.950 . S
H978 C1001 0.950 . S
H979 C1003 0.951 . S
H980 C1004 0.949 . S
H981 C1006 0.949 . S
H982 C1007 0.950 . S
H983 C1009 0.950 . S
H984 C1010 0.950 . S
H985 C1012 0.950 . S
H986 C1015 0.950 . S
H987 C1016 0.950 . S
H988 C1018 0.951 . S
H989 C1019 0.949 . S
C990 C991 1.376 . S
C990 C995 1.386 . S
C990 C996 1.483 . S
C991 H972 0.949 . S
C991 C990 1.376 . S
C991 C992 1.397 . S
C992 H973 0.950 . S
C992 C991 1.397 . S
C992 C993 1.391 . S
C993 C992 1.391 . S
C993 C994 1.405 . S
C994 H974 0.950 . S
C994 C993 1.405 . S
C994 C995 1.367 . S
C995 H975 0.950 . S
C995 C990 1.386 . S
C995 C994 1.367 . S
C996 C990 1.483 . S
C996 C997 1.382 . S
C996 C998 1.403 . S
C997 H976 0.950 . S
C997 C996 1.382 . S
C997 C1013 1.411 . S
C998 C996 1.403 . S
C998 C999 1.489 . S
C998 C1012 1.411 . S
C999 C998 1.489 . S
C999 C1000 1.383 . S
C999 C1004 1.382 . S
C1000 H977 0.950 . S
C1000 C999 1.383 . S
C1000 C1001 1.395 . S
C1001 H978 0.950 . S
C1001 C1000 1.395 . S
C1001 C1002 1.288 . S
C1002 C1001 1.288 . S
C1002 C1003 1.392 . S
C1003 H979 0.951 . S
C1003 C1002 1.392 . S
C1003 C1004 1.392 . S
C1004 H980 0.949 . S
C1004 C999 1.382 . S
C1004 C1003 1.392 . S
C1005 C1006 1.376 . S
C1005 C1010 1.386 . S
C1005 C1011 1.483 . S
C1006 H981 0.949 . S
C1006 C1005 1.376 . S
C1006 C1007 1.397 . S
C1007 H982 0.950 . S
C1007 C1006 1.397 . S
C1007 C1008 1.391 . S
C1008 C1007 1.391 . S
C1008 C1009 1.405 . S
C1009 H983 0.950 . S
C1009 C1008 1.405 . S
C1009 C1010 1.367 . S
C1010 H984 0.950 . S
C1010 C1005 1.386 . S
C1010 C1009 1.367 . S
C1011 C1005 1.483 . S
C1011 C1012 1.382 . S
C1011 C1013 1.403 . S
C1012 H985 0.950 . S
C1012 C998 1.411 . S
C1012 C1011 1.382 . S
C1013 C997 1.411 . S
C1013 C1011 1.403 . S
C1013 C1014 1.489 . S
C1014 C1013 1.489 . S
C1014 C1015 1.383 . S
C1014 C1019 1.382 . S
C1015 H986 0.950 . S
C1015 C1014 1.383 . S
C1015 C1016 1.395 . S
C1016 H987 0.950 . S
C1016 C1015 1.395 . S
C1016 C1017 1.288 . S
C1017 C1016 1.288 . S
C1017 C1018 1.392 . S
C1018 H988 0.951 . S
C1018 C1017 1.392 . S
C1018 C1019 1.392 . S
C1019 H989 0.949 . S
C1019 C1014 1.382 . S
C1019 C1018 1.392 . S
H1020 C1039 0.949 . S
H1021 C1040 0.950 . S
H1022 C1042 0.950 . S
H1023 C1043 0.950 . S
H1024 C1045 0.950 . S
H1025 C1048 0.950 . S
H1026 C1049 0.950 . S
H1027 C1051 0.951 . S
H1028 C1052 0.949 . S
H1029 C1054 0.949 . S
H1030 C1055 0.950 . S
H1031 C1057 0.950 . S
H1032 C1058 0.950 . S
H1033 C1060 0.950 . S
H1034 C1063 0.950 . S
H1035 C1064 0.950 . S
H1036 C1066 0.951 . S
H1037 C1067 0.949 . S
C1038 C1039 1.376 . S
C1038 C1043 1.386 . S
C1038 C1044 1.483 . S
C1039 H1020 0.949 . S
C1039 C1038 1.376 . S
C1039 C1040 1.397 . S
C1040 H1021 0.950 . S
C1040 C1039 1.397 . S
C1040 C1041 1.391 . S
C1041 C1040 1.391 . S
C1041 C1042 1.405 . S
C1042 H1022 0.950 . S
C1042 C1041 1.405 . S
C1042 C1043 1.367 . S
C1043 H1023 0.950 . S
C1043 C1038 1.386 . S
C1043 C1042 1.367 . S
C1044 C1038 1.483 . S
C1044 C1045 1.382 . S
C1044 C1046 1.403 . S
C1045 H1024 0.950 . S
C1045 C1044 1.382 . S
C1045 C1061 1.411 . S
C1046 C1044 1.403 . S
C1046 C1047 1.489 . S
C1046 C1060 1.411 . S
C1047 C1046 1.489 . S
C1047 C1048 1.383 . S
C1047 C1052 1.382 . S
C1048 H1025 0.950 . S
C1048 C1047 1.383 . S
C1048 C1049 1.395 . S
C1049 H1026 0.950 . S
C1049 C1048 1.395 . S
C1049 C1050 1.288 . S
C1050 C1049 1.288 . S
C1050 C1051 1.392 . S
C1051 H1027 0.951 . S
C1051 C1050 1.392 . S
C1051 C1052 1.392 . S
C1052 H1028 0.949 . S
C1052 C1047 1.382 . S
C1052 C1051 1.392 . S
C1053 C1054 1.376 . S
C1053 C1058 1.386 . S
C1053 C1059 1.483 . S
C1054 H1029 0.949 . S
C1054 C1053 1.376 . S
C1054 C1055 1.397 . S
C1055 H1030 0.950 . S
C1055 C1054 1.397 . S
C1055 C1056 1.391 . S
C1056 C1055 1.391 . S
C1056 C1057 1.405 . S
C1057 H1031 0.950 . S
C1057 C1056 1.405 . S
C1057 C1058 1.367 . S
C1058 H1032 0.950 . S
C1058 C1053 1.386 . S
C1058 C1057 1.367 . S
C1059 C1053 1.483 . S
C1059 C1060 1.382 . S
C1059 C1061 1.403 . S
C1060 H1033 0.950 . S
C1060 C1046 1.411 . S
C1060 C1059 1.382 . S
C1061 C1045 1.411 . S
C1061 C1059 1.403 . S
C1061 C1062 1.489 . S
C1062 C1061 1.489 . S
C1062 C1063 1.383 . S
C1062 C1067 1.382 . S
C1063 H1034 0.950 . S
C1063 C1062 1.383 . S
C1063 C1064 1.395 . S
C1064 H1035 0.950 . S
C1064 C1063 1.395 . S
C1064 C1065 1.288 . S
C1065 C1064 1.288 . S
C1065 C1066 1.392 . S
C1066 H1036 0.951 . S
C1066 C1065 1.392 . S
C1066 C1067 1.392 . S
C1067 H1037 0.949 . S
C1067 C1062 1.382 . S
C1067 C1066 1.392 . S
H1068 C1087 0.949 . S
H1069 C1088 0.950 . S
H1070 C1090 0.950 . S
H1071 C1091 0.950 . S
H1072 C1093 0.950 . S
H1073 C1096 0.950 . S
H1074 C1097 0.950 . S
H1075 C1099 0.951 . S
H1076 C1100 0.949 . S
H1077 C1102 0.949 . S
H1078 C1103 0.950 . S
H1079 C1105 0.950 . S
H1080 C1106 0.950 . S
H1081 C1108 0.950 . S
H1082 C1111 0.950 . S
H1083 C1112 0.950 . S
H1084 C1114 0.951 . S
H1085 C1115 0.949 . S
C1086 C1087 1.376 . S
C1086 C1091 1.386 . S
C1086 C1092 1.483 . S
C1087 H1068 0.949 . S
C1087 C1086 1.376 . S
C1087 C1088 1.397 . S
C1088 H1069 0.950 . S
C1088 C1087 1.397 . S
C1088 C1089 1.391 . S
C1089 C1088 1.391 . S
C1089 C1090 1.405 . S
C1090 H1070 0.950 . S
C1090 C1089 1.405 . S
C1090 C1091 1.367 . S
C1091 H1071 0.950 . S
C1091 C1086 1.386 . S
C1091 C1090 1.367 . S
C1092 C1086 1.483 . S
C1092 C1093 1.382 . S
C1092 C1094 1.403 . S
C1093 H1072 0.950 . S
C1093 C1092 1.382 . S
C1093 C1109 1.411 . S
C1094 C1092 1.403 . S
C1094 C1095 1.489 . S
C1094 C1108 1.411 . S
C1095 C1094 1.489 . S
C1095 C1096 1.383 . S
C1095 C1100 1.382 . S
C1096 H1073 0.950 . S
C1096 C1095 1.383 . S
C1096 C1097 1.395 . S
C1097 H1074 0.950 . S
C1097 C1096 1.395 . S
C1097 C1098 1.288 . S
C1098 C1097 1.288 . S
C1098 C1099 1.392 . S
C1099 H1075 0.951 . S
C1099 C1098 1.392 . S
C1099 C1100 1.392 . S
C1100 H1076 0.949 . S
C1100 C1095 1.382 . S
C1100 C1099 1.392 . S
C1101 C1102 1.376 . S
C1101 C1106 1.386 . S
C1101 C1107 1.483 . S
C1102 H1077 0.949 . S
C1102 C1101 1.376 . S
C1102 C1103 1.397 . S
C1103 H1078 0.950 . S
C1103 C1102 1.397 . S
C1103 C1104 1.391 . S
C1104 C1103 1.391 . S
C1104 C1105 1.405 . S
C1105 H1079 0.950 . S
C1105 C1104 1.405 . S
C1105 C1106 1.367 . S
C1106 H1080 0.950 . S
C1106 C1101 1.386 . S
C1106 C1105 1.367 . S
C1107 C1101 1.483 . S
C1107 C1108 1.382 . S
C1107 C1109 1.403 . S
C1108 H1081 0.950 . S
C1108 C1094 1.411 . S
C1108 C1107 1.382 . S
C1109 C1093 1.411 . S
C1109 C1107 1.403 . S
C1109 C1110 1.489 . S
C1110 C1109 1.489 . S
C1110 C1111 1.383 . S
C1110 C1115 1.382 . S
C1111 H1082 0.950 . S
C1111 C1110 1.383 . S
C1111 C1112 1.395 . S
C1112 H1083 0.950 . S
C1112 C1111 1.395 . S
C1112 C1113 1.288 . S
C1113 C1112 1.288 . S
C1113 C1114 1.392 . S
C1114 H1084 0.951 . S
C1114 C1113 1.392 . S
C1114 C1115 1.392 . S
C1115 H1085 0.949 . S
C1115 C1110 1.382 . S
C1115 C1114 1.392 . S
H1116 C1122 0.930 . S
H1117 C1125 0.930 . S
H1118 C1126 0.930 . S
H1119 C1127 0.930 . S
H1120 C1130 0.930 . S
H1121 C1131 0.930 . S
C1122 H1116 0.930 . S
C1122 C1123 1.355 1_455 S
C1122 C1124 1.415 . S
C1123 C1122 1.355 1_655 S
C1123 C1125 1.419 . S
C1124 C1122 1.415 . S
C1124 C1129 1.425 1_455 S
C1124 C1131 1.409 . S
C1125 H1117 0.930 . S
C1125 C1123 1.419 . S
C1125 C1126 1.362 . S
C1126 H1118 0.930 . S
C1126 C1125 1.362 . S
C1126 C1129 1.409 . S
C1127 H1119 0.930 . S
C1127 C1128 1.380 . S
C1127 C1129 1.415 . S
C1128 C1127 1.380 . S
C1128 C1130 1.363 1_655 S
C1129 C1124 1.425 1_655 S
C1129 C1126 1.409 . S
C1129 C1127 1.415 . S
C1130 H1120 0.930 . S
C1130 C1128 1.363 1_455 S
C1130 C1131 1.362 . S
C1131 H1121 0.930 . S
C1131 C1124 1.409 . S
C1131 C1130 1.362 . S
H1132 C1138 0.930 . S
H1133 C1141 0.930 . S
H1134 C1142 0.930 . S
H1135 C1143 0.930 . S
H1136 C1146 0.930 . S
H1137 C1147 0.930 . S
C1138 H1132 0.930 . S
C1138 C1139 1.355 . S
C1138 C1140 1.415 . S
C1139 C1138 1.355 . S
C1139 C1141 1.419 . S
C1140 C1138 1.415 . S
C1140 C1145 1.425 . S
C1140 C1147 1.409 . S
C1141 H1133 0.930 . S
C1141 C1139 1.419 . S
C1141 C1142 1.362 . S
C1142 H1134 0.930 . S
C1142 C1141 1.362 . S
C1142 C1145 1.409 . S
C1143 H1135 0.930 . S
C1143 C1144 1.355 . S
C1143 C1145 1.415 . S
C1144 C1143 1.355 . S
C1144 C1146 1.419 . S
C1145 C1140 1.425 . S
C1145 C1142 1.409 . S
C1145 C1143 1.415 . S
C1146 H1136 0.930 . S
C1146 C1144 1.419 . S
C1146 C1147 1.362 . S
C1147 H1137 0.930 . S
C1147 C1140 1.409 . S
C1147 C1146 1.362 . S
H1148 C1154 0.930 . S
H1149 C1157 0.930 . S
H1150 C1158 0.930 . S
H1151 C1159 0.930 . S
H1152 C1162 0.930 . S
H1153 C1163 0.930 . S
C1154 H1148 0.930 . S
C1154 C1155 1.355 1_565 S
C1154 C1156 1.415 . S
C1155 C1154 1.355 1_545 S
C1155 C1157 1.419 . S
C1156 C1154 1.415 . S
C1156 C1161 1.425 1_565 S
C1156 C1163 1.409 . S
C1157 H1149 0.930 . S
C1157 C1155 1.419 . S
C1157 C1158 1.362 . S
C1158 H1150 0.930 . S
C1158 C1157 1.362 . S
C1158 C1161 1.409 . S
C1159 H1151 0.930 . S
C1159 C1160 1.355 . S
C1159 C1161 1.415 . S
C1160 C1159 1.355 . S
C1160 C1162 1.419 1_545 S
C1161 C1156 1.425 1_545 S
C1161 C1158 1.409 . S
C1161 C1159 1.415 . S
C1162 H1152 0.930 . S
C1162 C1160 1.419 1_565 S
C1162 C1163 1.362 . S
C1163 H1153 0.930 . S
C1163 C1156 1.409 . S
C1163 C1162 1.362 . S
H1164 C1170 0.930 . S
H1165 C1173 0.930 . S
H1166 C1174 0.930 . S
H1167 C1175 0.930 . S
H1168 C1178 0.910 . S
H1169 C1179 0.930 . S
C1170 H1164 0.930 . S
C1170 C1171 1.359 1_545 S
C1170 C1172 1.420 . S
C1171 C1170 1.359 1_565 S
C1171 C1173 1.419 . S
C1172 C1170 1.420 . S
C1172 C1177 1.425 1_545 S
C1172 C1179 1.404 . S
C1173 H1165 0.930 . S
C1173 C1171 1.419 . S
C1173 C1174 1.362 . S
C1174 H1166 0.930 . S
C1174 C1173 1.362 . S
C1174 C1177 1.409 . S
C1175 H1167 0.930 . S
C1175 C1176 1.355 . S
C1175 C1177 1.415 . S
C1176 C1175 1.355 . S
C1176 C1178 1.421 1_565 S
C1177 C1172 1.425 1_565 S
C1177 C1174 1.409 . S
C1177 C1175 1.415 . S
C1178 H1168 0.910 . S
C1178 C1176 1.421 1_545 S
C1178 C1179 1.384 . S
C1179 H1169 0.930 . S
C1179 C1172 1.404 . S
C1179 C1178 1.384 . S
H1180 C1186 0.930 . S
H1181 C1189 0.930 . S
H1182 C1190 0.930 . S
H1183 C1191 0.971 . S
H1184 C1194 0.930 . S
H1185 C1195 0.930 . S
C1186 H1180 0.930 . S
C1186 C1187 1.355 . S
C1186 C1188 1.415 . S
C1187 C1186 1.355 . S
C1187 C1189 1.419 1_455 S
C1188 C1186 1.415 . S
C1188 C1193 1.430 . S
C1188 C1195 1.409 . S
C1189 H1181 0.930 . S
C1189 C1187 1.419 1_655 S
C1189 C1190 1.362 . S
C1190 H1182 0.930 . S
C1190 C1189 1.362 . S
C1190 C1193 1.408 1_655 S
C1191 H1183 0.971 . S
C1191 C1192 1.346 1_655 S
C1191 C1193 1.383 1_655 S
C1192 C1191 1.346 1_455 S
C1192 C1194 1.419 . S
C1193 C1188 1.430 . S
C1193 C1190 1.408 1_455 S
C1193 C1191 1.383 1_455 S
C1194 H1184 0.930 . S
C1194 C1192 1.419 . S
C1194 C1195 1.362 . S
C1195 H1185 0.930 . S
C1195 C1188 1.409 . S
C1195 C1194 1.362 . S
H1196 C1202 0.930 . S
H1197 C1205 0.930 . S
H1198 C1206 0.930 . S
H1199 C1207 0.930 . S
H1200 C1210 0.930 . S
H1201 C1211 0.930 . S
C1202 H1196 0.930 . S
C1202 C1203 1.355 . S
C1202 C1204 1.415 . S
C1203 C1202 1.355 . S
C1203 C1205 1.419 . S
C1204 C1202 1.415 . S
C1204 C1209 1.425 . S
C1204 C1211 1.409 . S
C1205 H1197 0.930 . S
C1205 C1203 1.419 . S
C1205 C1206 1.362 . S
C1206 H1198 0.930 . S
C1206 C1205 1.362 . S
C1206 C1209 1.409 . S
C1207 H1199 0.930 . S
C1207 C1208 1.355 . S
C1207 C1209 1.415 . S
C1208 C1207 1.355 . S
C1208 C1210 1.419 . S
C1209 C1204 1.425 . S
C1209 C1206 1.409 . S
C1209 C1207 1.415 . S
C1210 H1200 0.930 . S
C1210 C1208 1.419 . S
C1210 C1211 1.362 . S
C1211 H1201 0.930 . S
C1211 C1204 1.409 . S
C1211 C1210 1.362 . S
H1212 C1218 0.930 . S
H1213 C1221 0.930 . S
H1214 C1222 0.930 . S
H1215 C1223 0.930 . S
H1216 C1226 0.930 . S
H1217 C1227 0.930 . S
C1218 H1212 0.930 . S
C1218 C1219 1.355 1_655 S
C1218 C1220 1.415 . S
C1219 C1218 1.355 1_455 S
C1219 C1221 1.419 . S
C1220 C1218 1.415 . S
C1220 C1225 1.425 1_655 S
C1220 C1227 1.409 . S
C1221 H1213 0.930 . S
C1221 C1219 1.419 . S
C1221 C1222 1.362 . S
C1222 H1214 0.930 . S
C1222 C1221 1.362 . S
C1222 C1225 1.409 . S
C1223 H1215 0.930 . S
C1223 C1224 1.355 . S
C1223 C1225 1.415 . S
C1224 C1223 1.355 . S
C1224 C1226 1.419 1_455 S
C1225 C1220 1.425 1_455 S
C1225 C1222 1.409 . S
C1225 C1223 1.415 . S
C1226 H1216 0.930 . S
C1226 C1224 1.419 1_655 S
C1226 C1227 1.362 . S
C1227 H1217 0.930 . S
C1227 C1220 1.409 . S
C1227 C1226 1.362 . S
H1228 C1234 0.930 . S
H1229 C1237 0.930 . S
H1230 C1238 0.930 . S
H1231 C1239 0.930 . S
H1232 C1242 0.930 . S
H1233 C1243 0.930 . S
C1234 H1228 0.930 . S
C1234 C1235 1.355 . S
C1234 C1236 1.415 . S
C1235 C1234 1.355 . S
C1235 C1237 1.419 . S
C1236 C1234 1.415 . S
C1236 C1241 1.425 . S
C1236 C1243 1.409 . S
C1237 H1229 0.930 . S
C1237 C1235 1.419 . S
C1237 C1238 1.362 . S
C1238 H1230 0.930 . S
C1238 C1237 1.362 . S
C1238 C1241 1.409 . S
C1239 H1231 0.930 . S
C1239 C1240 1.355 . S
C1239 C1241 1.415 . S
C1240 C1239 1.355 . S
C1240 C1242 1.419 . S
C1241 C1236 1.425 . S
C1241 C1238 1.409 . S
C1241 C1239 1.415 . S
C1242 H1232 0.930 . S
C1242 C1240 1.419 . S
C1242 C1243 1.362 . S
C1243 H1233 0.930 . S
C1243 C1236 1.409 . S
C1243 C1242 1.362 . S
H1244 C1250 0.930 . S
H1245 C1253 0.930 . S
H1246 C1254 0.930 . S
H1247 C1255 0.930 . S
H1248 C1258 0.930 . S
H1249 C1259 0.918 1_545 S
C1250 H1244 0.930 . S
C1250 C1251 1.355 . S
C1250 C1252 1.415 . S
C1251 C1250 1.355 . S
C1251 C1253 1.419 . S
C1252 C1250 1.415 . S
C1252 C1257 1.425 . S
C1252 C1259 1.438 . S
C1253 H1245 0.930 . S
C1253 C1251 1.419 . S
C1253 C1254 1.362 . S
C1254 H1246 0.930 . S
C1254 C1253 1.362 . S
C1254 C1257 1.409 . S
C1255 H1247 0.930 . S
C1255 C1256 1.355 . S
C1255 C1257 1.415 . S
C1256 C1255 1.355 . S
C1256 C1258 1.419 . S
C1257 C1252 1.425 . S
C1257 C1254 1.409 . S
C1257 C1255 1.415 . S
C1258 H1248 0.930 . S
C1258 C1256 1.419 . S
C1258 C1259 1.348 . S
C1259 H1249 0.918 1_565 S
C1259 C1252 1.438 . S
C1259 C1258 1.348 . S
H1260 C1266 0.930 . S
H1261 C1269 0.930 . S
H1262 C1270 0.930 . S
H1263 C1271 0.930 . S
H1264 C1274 0.930 . S
H1265 C1275 0.930 . S
C1266 H1260 0.930 . S
C1266 C1267 1.355 . S
C1266 C1268 1.415 . S
C1267 C1266 1.355 . S
C1267 C1269 1.419 1_545 S
C1268 C1266 1.415 . S
C1268 C1273 1.425 1_545 S
C1268 C1275 1.409 . S
C1269 H1261 0.930 . S
C1269 C1267 1.419 1_565 S
C1269 C1270 1.362 . S
C1270 H1262 0.930 . S
C1270 C1269 1.362 . S
C1270 C1273 1.409 . S
C1271 H1263 0.930 . S
C1271 C1272 1.355 1_565 S
C1271 C1273 1.415 . S
C1272 C1271 1.355 1_545 S
C1272 C1274 1.419 . S
C1273 C1268 1.425 1_565 S
C1273 C1270 1.409 . S
C1273 C1271 1.415 . S
C1274 H1264 0.930 . S
C1274 C1272 1.419 . S
C1274 C1275 1.362 . S
C1275 H1265 0.930 . S
C1275 C1268 1.409 . S
C1275 C1274 1.362 . S
H1276 C1282 0.930 . S
H1277 C1285 0.930 . S
H1278 C1286 0.930 . S
H1279 C1287 0.930 . S
H1280 C1290 0.930 . S
H1281 C1291 0.930 . S
C1282 H1276 0.930 . S
C1282 C1283 1.355 . S
C1282 C1284 1.415 . S
C1283 C1282 1.355 . S
C1283 C1285 1.419 1_655 S
C1284 C1282 1.415 . S
C1284 C1289 1.425 . S
C1284 C1291 1.409 . S
C1285 H1277 0.930 . S
C1285 C1283 1.419 1_455 S
C1285 C1286 1.362 . S
C1286 H1278 0.930 . S
C1286 C1285 1.362 . S
C1286 C1289 1.413 1_455 S
C1287 H1279 0.930 . S
C1287 C1288 1.367 1_455 S
C1287 C1289 1.400 1_455 S
C1288 C1287 1.367 1_655 S
C1288 C1290 1.419 . S
C1289 C1284 1.425 . S
C1289 C1286 1.413 1_655 S
C1289 C1287 1.400 1_655 S
C1290 H1280 0.930 . S
C1290 C1288 1.419 . S
C1290 C1291 1.362 . S
C1291 H1281 0.930 . S
C1291 C1284 1.409 . S
C1291 C1290 1.362 . S
H1292 C1298 0.930 . S
H1293 C1301 0.930 . S
H1294 C1302 0.930 . S
H1295 C1303 0.930 . S
H1296 C1306 0.930 . S
H1297 C1307 0.930 . S
C1298 H1292 0.930 . S
C1298 C1299 1.355 . S
C1298 C1300 1.415 . S
C1299 C1298 1.355 . S
C1299 C1301 1.419 . S
C1300 C1298 1.415 . S
C1300 C1305 1.425 . S
C1300 C1307 1.409 . S
C1301 H1293 0.930 . S
C1301 C1299 1.419 . S
C1301 C1302 1.362 . S
C1302 H1294 0.930 . S
C1302 C1301 1.362 . S
C1302 C1305 1.409 . S
C1303 H1295 0.930 . S
C1303 C1304 1.355 . S
C1303 C1305 1.415 . S
C1304 C1303 1.355 . S
C1304 C1306 1.419 . S
C1305 C1300 1.425 . S
C1305 C1302 1.409 . S
C1305 C1303 1.415 . S
C1306 H1296 0.930 . S
C1306 C1304 1.419 . S
C1306 C1307 1.362 . S
C1307 H1297 0.930 . S
C1307 C1300 1.409 . S
C1307 C1306 1.362 . S
H1308 C1314 0.930 . S
H1309 C1317 0.930 . S
H1310 C1318 0.930 . S
H1311 C1319 0.930 . S
H1312 C1322 0.930 . S
H1313 C1323 0.930 . S
C1314 H1308 0.930 . S
C1314 C1315 1.355 . S
C1314 C1316 1.415 . S
C1315 C1314 1.355 . S
C1315 C1317 1.419 . S
C1316 C1314 1.415 . S
C1316 C1321 1.425 . S
C1316 C1323 1.409 . S
C1317 H1309 0.930 . S
C1317 C1315 1.419 . S
C1317 C1318 1.362 . S
C1318 H1310 0.930 . S
C1318 C1317 1.362 . S
C1318 C1321 1.409 . S
C1319 H1311 0.930 . S
C1319 C1320 1.355 . S
C1319 C1321 1.415 . S
C1320 C1319 1.355 . S
C1320 C1322 1.419 . S
C1321 C1316 1.425 . S
C1321 C1318 1.409 . S
C1321 C1319 1.415 . S
C1322 H1312 0.930 . S
C1322 C1320 1.419 . S
C1322 C1323 1.362 . S
C1323 H1313 0.930 . S
C1323 C1316 1.409 . S
C1323 C1322 1.362 . S
H1324 C1330 0.930 . S
H1325 C1333 0.930 . S
H1326 C1334 0.930 . S
H1327 C1335 0.930 . S
H1328 C1338 0.930 . S
H1329 C1339 0.930 . S
C1330 H1324 0.930 . S
C1330 C1331 1.355 . S
C1330 C1332 1.415 . S
C1331 C1330 1.355 . S
C1331 C1333 1.419 . S
C1332 C1330 1.415 . S
C1332 C1337 1.425 . S
C1332 C1339 1.409 . S
C1333 H1325 0.930 . S
C1333 C1331 1.419 . S
C1333 C1334 1.362 . S
C1334 H1326 0.930 . S
C1334 C1333 1.362 . S
C1334 C1337 1.409 . S
C1335 H1327 0.930 . S
C1335 C1336 1.355 . S
C1335 C1337 1.415 . S
C1336 C1335 1.355 . S
C1336 C1338 1.419 . S
C1337 C1332 1.425 . S
C1337 C1334 1.409 . S
C1337 C1335 1.415 . S
C1338 H1328 0.930 . S
C1338 C1336 1.419 . S
C1338 C1339 1.362 . S
C1339 H1329 0.930 . S
C1339 C1332 1.409 . S
C1339 C1338 1.362 . S
H1340 C1346 0.930 . S
H1341 C1349 0.930 . S
H1342 C1350 0.930 . S
H1343 C1351 0.930 . S
H1344 C1354 0.930 . S
H1345 C1355 0.930 . S
C1346 H1340 0.930 . S
C1346 C1347 1.355 . S
C1346 C1348 1.415 . S
C1347 C1346 1.355 . S
C1347 C1349 1.419 . S
C1348 C1346 1.415 . S
C1348 C1353 1.425 . S
C1348 C1355 1.409 . S
C1349 H1341 0.930 . S
C1349 C1347 1.419 . S
C1349 C1350 1.362 . S
C1350 H1342 0.930 . S
C1350 C1349 1.362 . S
C1350 C1353 1.409 . S
C1351 H1343 0.930 . S
C1351 C1352 1.355 . S
C1351 C1353 1.415 . S
C1352 C1351 1.355 . S
C1352 C1354 1.419 . S
C1353 C1348 1.425 . S
C1353 C1350 1.409 . S
C1353 C1351 1.415 . S
C1354 H1344 0.930 . S
C1354 C1352 1.419 . S
C1354 C1355 1.362 . S
C1355 H1345 0.930 . S
C1355 C1348 1.409 . S
C1355 C1354 1.362 . S
H1356 C1362 0.930 . S
H1357 C1365 0.930 . S
H1358 C1366 0.930 . S
H1359 C1367 0.930 . S
H1360 C1370 0.930 . S
H1361 C1371 0.930 . S
C1362 H1356 0.930 . S
C1362 C1363 1.355 . S
C1362 C1364 1.415 . S
C1363 C1362 1.355 . S
C1363 C1365 1.419 . S
C1364 C1362 1.415 . S
C1364 C1369 1.425 . S
C1364 C1371 1.409 . S
C1365 H1357 0.930 . S
C1365 C1363 1.419 . S
C1365 C1366 1.362 . S
C1366 H1358 0.930 . S
C1366 C1365 1.362 . S
C1366 C1369 1.409 . S
C1367 H1359 0.930 . S
C1367 C1368 1.355 . S
C1367 C1369 1.415 . S
C1368 C1367 1.355 . S
C1368 C1370 1.419 . S
C1369 C1364 1.425 . S
C1369 C1366 1.409 . S
C1369 C1367 1.415 . S
C1370 H1360 0.930 . S
C1370 C1368 1.419 . S
C1370 C1371 1.362 . S
C1371 H1361 0.930 . S
C1371 C1364 1.409 . S
C1371 C1370 1.362 . S
H1372 C1378 0.930 . S
H1373 C1381 0.930 . S
H1374 C1382 0.930 . S
H1375 C1383 0.930 . S
H1376 C1386 0.930 . S
H1377 C1387 0.930 . S
C1378 H1372 0.930 . S
C1378 C1379 1.355 . S
C1378 C1380 1.415 . S
C1379 C1378 1.355 . S
C1379 C1381 1.419 . S
C1380 C1378 1.415 . S
C1380 C1385 1.425 . S
C1380 C1387 1.409 . S
C1381 H1373 0.930 . S
C1381 C1379 1.419 . S
C1381 C1382 1.362 . S
C1382 H1374 0.930 . S
C1382 C1381 1.362 . S
C1382 C1385 1.409 . S
C1383 H1375 0.930 . S
C1383 C1384 1.355 . S
C1383 C1385 1.415 . S
C1384 C1383 1.355 . S
C1384 C1386 1.419 . S
C1385 C1380 1.425 . S
C1385 C1382 1.409 . S
C1385 C1383 1.415 . S
C1386 H1376 0.930 . S
C1386 C1384 1.419 . S
C1386 C1387 1.362 . S
C1387 H1377 0.930 . S
C1387 C1380 1.409 . S
C1387 C1386 1.362 . S
H1388 C1394 0.930 . S
H1389 C1397 0.930 . S
H1390 C1398 0.930 . S
H1391 C1399 0.930 . S
H1392 C1402 0.930 . S
H1393 C1403 0.930 . S
C1394 H1388 0.930 . S
C1394 C1395 1.355 . S
C1394 C1396 1.415 . S
C1395 C1394 1.355 . S
C1395 C1397 1.419 . S
C1396 C1394 1.415 . S
C1396 C1401 1.425 . S
C1396 C1403 1.409 . S
C1397 H1389 0.930 . S
C1397 C1395 1.419 . S
C1397 C1398 1.362 . S
C1398 H1390 0.930 . S
C1398 C1397 1.362 . S
C1398 C1401 1.409 . S
C1399 H1391 0.930 . S
C1399 C1400 1.355 . S
C1399 C1401 1.415 . S
C1400 C1399 1.355 . S
C1400 C1402 1.419 . S
C1401 C1396 1.425 . S
C1401 C1398 1.409 . S
C1401 C1399 1.415 . S
C1402 H1392 0.930 . S
C1402 C1400 1.419 . S
C1402 C1403 1.362 . S
C1403 H1393 0.930 . S
C1403 C1396 1.409 . S
C1403 C1402 1.362 . S
H1404 C1410 0.930 . S
H1405 C1413 0.930 . S
H1406 C1414 0.930 . S
H1407 C1415 0.930 . S
H1408 C1418 0.930 . S
H1409 C1419 0.930 . S
C1410 H1404 0.930 . S
C1410 C1411 1.355 . S
C1410 C1412 1.415 . S
C1411 C1410 1.355 . S
C1411 C1413 1.419 . S
C1412 C1410 1.415 . S
C1412 C1417 1.425 . S
C1412 C1419 1.409 . S
C1413 H1405 0.930 . S
C1413 C1411 1.419 . S
C1413 C1414 1.362 . S
C1414 H1406 0.930 . S
C1414 C1413 1.362 . S
C1414 C1417 1.409 . S
C1415 H1407 0.930 . S
C1415 C1416 1.355 . S
C1415 C1417 1.415 . S
C1416 C1415 1.355 . S
C1416 C1418 1.419 . S
C1417 C1412 1.425 . S
C1417 C1414 1.409 . S
C1417 C1415 1.415 . S
C1418 H1408 0.930 . S
C1418 C1416 1.419 . S
C1418 C1419 1.362 . S
C1419 H1409 0.930 . S
C1419 C1412 1.409 . S
C1419 C1418 1.362 . S
H1420 C1426 0.930 . S
H1421 C1429 0.930 . S
H1422 C1430 0.930 . S
H1423 C1431 0.930 . S
H1424 C1434 0.930 . S
H1425 C1435 0.930 . S
C1426 H1420 0.930 . S
C1426 C1427 1.355 . S
C1426 C1428 1.415 . S
C1427 C1426 1.355 . S
C1427 C1429 1.419 . S
C1428 C1426 1.415 . S
C1428 C1433 1.425 . S
C1428 C1435 1.409 . S
C1429 H1421 0.930 . S
C1429 C1427 1.419 . S
C1429 C1430 1.362 . S
C1430 H1422 0.930 . S
C1430 C1429 1.362 . S
C1430 C1433 1.409 . S
C1431 H1423 0.930 . S
C1431 C1432 1.355 . S
C1431 C1433 1.415 . S
C1432 C1431 1.355 . S
C1432 C1434 1.419 . S
C1433 C1428 1.425 . S
C1433 C1430 1.409 . S
C1433 C1431 1.415 . S
C1434 H1424 0.930 . S
C1434 C1432 1.419 . S
C1434 C1435 1.362 . S
C1435 H1425 0.930 . S
C1435 C1428 1.409 . S
C1435 C1434 1.362 . S
H1436 C1442 0.930 . S
H1437 C1445 0.930 . S
H1438 C1446 0.930 . S
H1439 C1447 0.930 . S
H1440 C1450 0.930 . S
H1441 C1451 0.930 . S
C1442 H1436 0.930 . S
C1442 C1443 1.355 . S
C1442 C1444 1.415 . S
C1443 C1442 1.355 . S
C1443 C1445 1.419 . S
C1444 C1442 1.415 . S
C1444 C1449 1.425 . S
C1444 C1451 1.409 . S
C1445 H1437 0.930 . S
C1445 C1443 1.419 . S
C1445 C1446 1.362 . S
C1446 H1438 0.930 . S
C1446 C1445 1.362 . S
C1446 C1449 1.409 . S
C1447 H1439 0.930 . S
C1447 C1448 1.355 . S
C1447 C1449 1.415 . S
C1448 C1447 1.355 . S
C1448 C1450 1.419 . S
C1449 C1444 1.425 . S
C1449 C1446 1.409 . S
C1449 C1447 1.415 . S
C1450 H1440 0.930 . S
C1450 C1448 1.419 . S
C1450 C1451 1.362 . S
C1451 H1441 0.930 . S
C1451 C1444 1.409 . S
C1451 C1450 1.362 . S
H1452 C1458 0.930 . S
H1453 C1461 0.930 . S
H1454 C1462 0.930 . S
H1455 C1463 0.930 . S
H1456 C1466 0.930 . S
H1457 C1467 0.930 . S
C1458 H1452 0.930 . S
C1458 C1459 1.355 . S
C1458 C1460 1.415 . S
C1459 C1458 1.355 . S
C1459 C1461 1.419 . S
C1460 C1458 1.415 . S
C1460 C1465 1.425 . S
C1460 C1467 1.409 . S
C1461 H1453 0.930 . S
C1461 C1459 1.419 . S
C1461 C1462 1.362 . S
C1462 H1454 0.930 . S
C1462 C1461 1.362 . S
C1462 C1465 1.409 . S
C1463 H1455 0.930 . S
C1463 C1464 1.355 . S
C1463 C1465 1.415 . S
C1464 C1463 1.355 . S
C1464 C1466 1.419 . S
C1465 C1460 1.425 . S
C1465 C1462 1.409 . S
C1465 C1463 1.415 . S
C1466 H1456 0.930 . S
C1466 C1464 1.419 . S
C1466 C1467 1.362 . S
C1467 H1457 0.930 . S
C1467 C1460 1.409 . S
C1467 C1466 1.362 . S
H1468 C1474 0.930 . S
H1469 C1477 0.930 . S
H1470 C1478 0.930 . S
H1471 C1479 0.930 . S
H1472 C1482 0.930 . S
H1473 C1483 0.930 . S
C1474 H1468 0.930 . S
C1474 C1475 1.355 . S
C1474 C1476 1.415 . S
C1475 C1474 1.355 . S
C1475 C1477 1.419 . S
C1476 C1474 1.415 . S
C1476 C1481 1.425 . S
C1476 C1483 1.409 . S
C1477 H1469 0.930 . S
C1477 C1475 1.419 . S
C1477 C1478 1.362 . S
C1478 H1470 0.930 . S
C1478 C1477 1.362 . S
C1478 C1481 1.409 . S
C1479 H1471 0.930 . S
C1479 C1480 1.355 . S
C1479 C1481 1.415 . S
C1480 C1479 1.355 . S
C1480 C1482 1.419 . S
C1481 C1476 1.425 . S
C1481 C1478 1.409 . S
C1481 C1479 1.415 . S
C1482 H1472 0.930 . S
C1482 C1480 1.419 . S
C1482 C1483 1.362 . S
C1483 H1473 0.930 . S
C1483 C1476 1.409 . S
C1483 C1482 1.362 . S
H1484 C1490 0.930 . S
H1485 C1493 0.930 . S
H1486 C1494 0.930 . S
H1487 C1495 0.930 . S
H1488 C1498 0.930 . S
H1489 C1499 0.930 . S
C1490 H1484 0.930 . S
C1490 C1491 1.355 . S
C1490 C1492 1.415 . S
C1491 C1490 1.355 . S
C1491 C1493 1.419 . S
C1492 C1490 1.415 . S
C1492 C1497 1.425 . S
C1492 C1499 1.409 . S
C1493 H1485 0.930 . S
C1493 C1491 1.419 . S
C1493 C1494 1.362 . S
C1494 H1486 0.930 . S
C1494 C1493 1.362 . S
C1494 C1497 1.409 . S
C1495 H1487 0.930 . S
C1495 C1496 1.355 . S
C1495 C1497 1.415 . S
C1496 C1495 1.355 . S
C1496 C1498 1.419 . S
C1497 C1492 1.425 . S
C1497 C1494 1.409 . S
C1497 C1495 1.415 . S
C1498 H1488 0.930 . S
C1498 C1496 1.419 . S
C1498 C1499 1.362 . S
C1499 H1489 0.930 . S
C1499 C1492 1.409 . S
C1499 C1498 1.362 . S
H1500 C1506 0.930 . S
H1501 C1509 0.930 . S
H1502 C1510 0.930 . S
H1503 C1511 0.930 . S
H1504 C1514 0.930 . S
H1505 C1515 0.930 . S
C1506 H1500 0.930 . S
C1506 C1507 1.355 . S
C1506 C1508 1.415 . S
C1507 C1506 1.355 . S
C1507 C1509 1.419 . S
C1508 C1506 1.415 . S
C1508 C1513 1.425 . S
C1508 C1515 1.409 . S
C1509 H1501 0.930 . S
C1509 C1507 1.419 . S
C1509 C1510 1.362 . S
C1510 H1502 0.930 . S
C1510 C1509 1.362 . S
C1510 C1513 1.409 . S
C1511 H1503 0.930 . S
C1511 C1512 1.355 . S
C1511 C1513 1.415 . S
C1512 C1511 1.355 . S
C1512 C1514 1.419 . S
C1513 C1508 1.425 . S
C1513 C1510 1.409 . S
C1513 C1511 1.415 . S
C1514 H1504 0.930 . S
C1514 C1512 1.419 . S
C1514 C1515 1.362 . S
C1515 H1505 0.930 . S
C1515 C1508 1.409 . S
C1515 C1514 1.362 . S
H1516 C1522 0.930 . S
H1517 C1525 0.930 . S
H1518 C1526 0.930 . S
H1519 C1527 0.930 . S
H1520 C1530 0.930 . S
H1521 C1531 0.930 . S
C1522 H1516 0.930 . S
C1522 C1523 1.355 . S
C1522 C1524 1.415 . S
C1523 C1522 1.355 . S
C1523 C1525 1.419 . S
C1524 C1522 1.415 . S
C1524 C1529 1.425 . S
C1524 C1531 1.409 . S
C1525 H1517 0.930 . S
C1525 C1523 1.419 . S
C1525 C1526 1.362 . S
C1526 H1518 0.930 . S
C1526 C1525 1.362 . S
C1526 C1529 1.409 . S
C1527 H1519 0.930 . S
C1527 C1528 1.355 . S
C1527 C1529 1.415 . S
C1528 C1527 1.355 . S
C1528 C1530 1.419 . S
C1529 C1524 1.425 . S
C1529 C1526 1.409 . S
C1529 C1527 1.415 . S
C1530 H1520 0.930 . S
C1530 C1528 1.419 . S
C1530 C1531 1.362 . S
C1531 H1521 0.930 . S
C1531 C1524 1.409 . S
C1531 C1530 1.362 . S
H1532 C1538 0.930 . S
H1533 C1541 0.930 . S
H1534 C1542 0.930 . S
H1535 C1543 0.930 . S
H1536 C1546 0.930 . S
H1537 C1547 0.930 . S
C1538 H1532 0.930 . S
C1538 C1539 1.355 . S
C1538 C1540 1.415 . S
C1539 C1538 1.355 . S
C1539 C1541 1.419 . S
C1540 C1538 1.415 . S
C1540 C1545 1.425 . S
C1540 C1547 1.409 . S
C1541 H1533 0.930 . S
C1541 C1539 1.419 . S
C1541 C1542 1.362 . S
C1542 H1534 0.930 . S
C1542 C1541 1.362 . S
C1542 C1545 1.409 . S
C1543 H1535 0.930 . S
C1543 C1544 1.355 . S
C1543 C1545 1.415 . S
C1544 C1543 1.355 . S
C1544 C1546 1.419 . S
C1545 C1540 1.425 . S
C1545 C1542 1.409 . S
C1545 C1543 1.415 . S
C1546 H1536 0.930 . S
C1546 C1544 1.419 . S
C1546 C1547 1.362 . S
C1547 H1537 0.930 . S
C1547 C1540 1.409 . S
C1547 C1546 1.362 . S
H1548 C1554 0.930 . S
H1549 C1557 0.930 . S
H1550 C1558 0.930 . S
H1551 C1559 0.930 . S
H1552 C1562 0.930 . S
H1553 C1563 0.930 . S
C1554 H1548 0.930 . S
C1554 C1555 1.355 . S
C1554 C1556 1.415 . S
C1555 C1554 1.355 . S
C1555 C1557 1.419 . S
C1556 C1554 1.415 . S
C1556 C1561 1.425 . S
C1556 C1563 1.409 . S
C1557 H1549 0.930 . S
C1557 C1555 1.419 . S
C1557 C1558 1.362 . S
C1558 H1550 0.930 . S
C1558 C1557 1.362 . S
C1558 C1561 1.409 . S
C1559 H1551 0.930 . S
C1559 C1560 1.355 . S
C1559 C1561 1.415 . S
C1560 C1559 1.355 . S
C1560 C1562 1.419 . S
C1561 C1556 1.425 . S
C1561 C1558 1.409 . S
C1561 C1559 1.415 . S
C1562 H1552 0.930 . S
C1562 C1560 1.419 . S
C1562 C1563 1.362 . S
C1563 H1553 0.930 . S
C1563 C1556 1.409 . S
C1563 C1562 1.362 . S
H1564 C1570 0.930 . S
H1565 C1573 0.930 . S
H1566 C1574 0.930 . S
H1567 C1575 0.930 . S
H1568 C1578 0.930 . S
H1569 C1579 0.930 . S
C1570 H1564 0.930 . S
C1570 C1571 1.355 . S
C1570 C1572 1.415 . S
C1571 C1570 1.355 . S
C1571 C1573 1.419 . S
C1572 C1570 1.415 . S
C1572 C1577 1.425 . S
C1572 C1579 1.409 . S
C1573 H1565 0.930 . S
C1573 C1571 1.419 . S
C1573 C1574 1.362 . S
C1574 H1566 0.930 . S
C1574 C1573 1.362 . S
C1574 C1577 1.409 . S
C1575 H1567 0.930 . S
C1575 C1576 1.355 . S
C1575 C1577 1.415 . S
C1576 C1575 1.355 . S
C1576 C1578 1.419 . S
C1577 C1572 1.425 . S
C1577 C1574 1.409 . S
C1577 C1575 1.415 . S
C1578 H1568 0.930 . S
C1578 C1576 1.419 . S
C1578 C1579 1.362 . S
C1579 H1569 0.930 . S
C1579 C1572 1.409 . S
C1579 C1578 1.362 . S
H1580 C1586 0.930 . S
H1581 C1589 0.930 . S
H1582 C1590 0.930 . S
H1583 C1591 0.930 . S
H1584 C1594 0.930 . S
H1585 C1595 0.930 . S
C1586 H1580 0.930 . S
C1586 C1587 1.355 . S
C1586 C1588 1.415 . S
C1587 C1586 1.355 . S
C1587 C1589 1.419 . S
C1588 C1586 1.415 . S
C1588 C1593 1.425 . S
C1588 C1595 1.409 . S
C1589 H1581 0.930 . S
C1589 C1587 1.419 . S
C1589 C1590 1.362 . S
C1590 H1582 0.930 . S
C1590 C1589 1.362 . S
C1590 C1593 1.409 . S
C1591 H1583 0.930 . S
C1591 C1592 1.355 . S
C1591 C1593 1.415 . S
C1592 C1591 1.355 . S
C1592 C1594 1.419 . S
C1593 C1588 1.425 . S
C1593 C1590 1.409 . S
C1593 C1591 1.415 . S
C1594 H1584 0.930 . S
C1594 C1592 1.419 . S
C1594 C1595 1.362 . S
C1595 H1585 0.930 . S
C1595 C1588 1.409 . S
C1595 C1594 1.362 . S
H1596 C1602 0.930 . S
H1597 C1605 0.930 . S
H1598 C1606 0.930 . S
H1599 C1607 0.930 . S
H1600 C1610 0.930 . S
H1601 C1611 0.930 . S
C1602 H1596 0.930 . S
C1602 C1603 1.355 . S
C1602 C1604 1.415 . S
C1603 C1602 1.355 . S
C1603 C1605 1.419 . S
C1604 C1602 1.415 . S
C1604 C1609 1.425 . S
C1604 C1611 1.409 . S
C1605 H1597 0.930 . S
C1605 C1603 1.419 . S
C1605 C1606 1.362 . S
C1606 H1598 0.930 . S
C1606 C1605 1.362 . S
C1606 C1609 1.409 . S
C1607 H1599 0.930 . S
C1607 C1608 1.355 . S
C1607 C1609 1.415 . S
C1608 C1607 1.355 . S
C1608 C1610 1.419 . S
C1609 C1604 1.425 . S
C1609 C1606 1.409 . S
C1609 C1607 1.415 . S
C1610 H1600 0.930 . S
C1610 C1608 1.419 . S
C1610 C1611 1.362 . S
C1611 H1601 0.930 . S
C1611 C1604 1.409 . S
C1611 C1610 1.362 . S
H1612 C1618 0.930 . S
H1613 C1621 0.930 . S
H1614 C1622 0.930 . S
H1615 C1623 0.930 . S
H1616 C1626 0.930 . S
H1617 C1627 0.930 . S
C1618 H1612 0.930 . S
C1618 C1619 1.355 . S
C1618 C1620 1.415 . S
C1619 C1618 1.355 . S
C1619 C1621 1.419 . S
C1620 C1618 1.415 . S
C1620 C1625 1.425 . S
C1620 C1627 1.409 . S
C1621 H1613 0.930 . S
C1621 C1619 1.419 . S
C1621 C1622 1.362 . S
C1622 H1614 0.930 . S
C1622 C1621 1.362 . S
C1622 C1625 1.409 . S
C1623 H1615 0.930 . S
C1623 C1624 1.355 . S
C1623 C1625 1.415 . S
C1624 C1623 1.355 . S
C1624 C1626 1.419 . S
C1625 C1620 1.425 . S
C1625 C1622 1.409 . S
C1625 C1623 1.415 . S
C1626 H1616 0.930 . S
C1626 C1624 1.419 . S
C1626 C1627 1.362 . S
C1627 H1617 0.930 . S
C1627 C1620 1.409 . S
C1627 C1626 1.362 . S
H1628 C1634 0.930 . S
H1629 C1637 0.930 . S
H1630 C1638 0.930 . S
H1631 C1639 0.930 . S
H1632 C1642 0.930 . S
H1633 C1643 0.930 . S
C1634 H1628 0.930 . S
C1634 C1635 1.355 . S
C1634 C1636 1.415 . S
C1635 C1634 1.355 . S
C1635 C1637 1.419 . S
C1636 C1634 1.415 . S
C1636 C1641 1.425 . S
C1636 C1643 1.409 . S
C1637 H1629 0.930 . S
C1637 C1635 1.419 . S
C1637 C1638 1.362 . S
C1638 H1630 0.930 . S
C1638 C1637 1.362 . S
C1638 C1641 1.409 . S
C1639 H1631 0.930 . S
C1639 C1640 1.355 . S
C1639 C1641 1.415 . S
C1640 C1639 1.355 . S
C1640 C1642 1.419 . S
C1641 C1636 1.425 . S
C1641 C1638 1.409 . S
C1641 C1639 1.415 . S
C1642 H1632 0.930 . S
C1642 C1640 1.419 . S
C1642 C1643 1.362 . S
C1643 H1633 0.930 . S
C1643 C1636 1.409 . S
C1643 C1642 1.362 . S
H1644 C1650 0.930 . S
H1645 C1653 0.930 . S
H1646 C1654 0.930 . S
H1647 C1655 0.930 . S
H1648 C1658 0.930 . S
H1649 C1659 0.930 . S
C1650 H1644 0.930 . S
C1650 C1651 1.355 . S
C1650 C1652 1.415 . S
C1651 C1650 1.355 . S
C1651 C1653 1.419 . S
C1652 C1650 1.415 . S
C1652 C1657 1.425 . S
C1652 C1659 1.409 . S
C1653 H1645 0.930 . S
C1653 C1651 1.419 . S
C1653 C1654 1.362 . S
C1654 H1646 0.930 . S
C1654 C1653 1.362 . S
C1654 C1657 1.409 . S
C1655 H1647 0.930 . S
C1655 C1656 1.355 . S
C1655 C1657 1.415 . S
C1656 C1655 1.355 . S
C1656 C1658 1.419 . S
C1657 C1652 1.425 . S
C1657 C1654 1.409 . S
C1657 C1655 1.415 . S
C1658 H1648 0.930 . S
C1658 C1656 1.419 . S
C1658 C1659 1.362 . S
C1659 H1649 0.930 . S
C1659 C1652 1.409 . S
C1659 C1658 1.362 . S
H1660 C1666 0.930 . S
H1661 C1669 0.930 . S
H1662 C1670 0.930 . S
H1663 C1671 0.930 . S
H1664 C1674 0.930 . S
H1665 C1675 0.930 . S
C1666 H1660 0.930 . S
C1666 C1667 1.355 . S
C1666 C1668 1.415 . S
C1667 C1666 1.355 . S
C1667 C1669 1.419 . S
C1668 C1666 1.415 . S
C1668 C1673 1.425 . S
C1668 C1675 1.409 . S
C1669 H1661 0.930 . S
C1669 C1667 1.419 . S
C1669 C1670 1.362 . S
C1670 H1662 0.930 . S
C1670 C1669 1.362 . S
C1670 C1673 1.409 . S
C1671 H1663 0.930 . S
C1671 C1672 1.355 . S
C1671 C1673 1.415 . S
C1672 C1671 1.355 . S
C1672 C1674 1.419 . S
C1673 C1668 1.425 . S
C1673 C1670 1.409 . S
C1673 C1671 1.415 . S
C1674 H1664 0.930 . S
C1674 C1672 1.419 . S
C1674 C1675 1.362 . S
C1675 H1665 0.930 . S
C1675 C1668 1.409 . S
C1675 C1674 1.362 . S
H1676 C1682 0.930 . S
H1677 C1685 0.930 . S
H1678 C1686 0.930 . S
H1679 C1687 0.930 . S
H1680 C1690 0.930 . S
H1681 C1691 0.930 . S
C1682 H1676 0.930 . S
C1682 C1683 1.355 . S
C1682 C1684 1.415 . S
C1683 C1682 1.355 . S
C1683 C1685 1.419 . S
C1684 C1682 1.415 . S
C1684 C1689 1.425 . S
C1684 C1691 1.409 . S
C1685 H1677 0.930 . S
C1685 C1683 1.419 . S
C1685 C1686 1.362 . S
C1686 H1678 0.930 . S
C1686 C1685 1.362 . S
C1686 C1689 1.409 . S
C1687 H1679 0.930 . S
C1687 C1688 1.355 . S
C1687 C1689 1.415 . S
C1688 C1687 1.355 . S
C1688 C1690 1.419 . S
C1689 C1684 1.425 . S
C1689 C1686 1.409 . S
C1689 C1687 1.415 . S
C1690 H1680 0.930 . S
C1690 C1688 1.419 . S
C1690 C1691 1.362 . S
C1691 H1681 0.930 . S
C1691 C1684 1.409 . S
C1691 C1690 1.362 . S
H1692 C1698 0.930 . S
H1693 C1701 0.930 . S
H1694 C1702 0.930 . S
H1695 C1703 0.930 . S
H1696 C1706 0.930 . S
H1697 C1707 0.930 . S
C1698 H1692 0.930 . S
C1698 C1699 1.355 . S
C1698 C1700 1.415 . S
C1699 C1698 1.355 . S
C1699 C1701 1.419 . S
C1700 C1698 1.415 . S
C1700 C1705 1.425 . S
C1700 C1707 1.409 . S
C1701 H1693 0.930 . S
C1701 C1699 1.419 . S
C1701 C1702 1.362 . S
C1702 H1694 0.930 . S
C1702 C1701 1.362 . S
C1702 C1705 1.409 . S
C1703 H1695 0.930 . S
C1703 C1704 1.355 . S
C1703 C1705 1.415 . S
C1704 C1703 1.355 . S
C1704 C1706 1.419 . S
C1705 C1700 1.425 . S
C1705 C1702 1.409 . S
C1705 C1703 1.415 . S
C1706 H1696 0.930 . S
C1706 C1704 1.419 . S
C1706 C1707 1.362 . S
C1707 H1697 0.930 . S
C1707 C1700 1.409 . S
C1707 C1706 1.362 . S
H1708 C1714 0.930 . S
H1709 C1717 0.930 . S
H1710 C1718 0.930 . S
H1711 C1719 0.930 . S
H1712 C1722 0.930 . S
H1713 C1723 0.930 . S
C1714 H1708 0.930 . S
C1714 C1715 1.355 . S
C1714 C1716 1.415 . S
C1715 C1714 1.355 . S
C1715 C1717 1.419 . S
C1716 C1714 1.415 . S
C1716 C1721 1.425 . S
C1716 C1723 1.409 . S
C1717 H1709 0.930 . S
C1717 C1715 1.419 . S
C1717 C1718 1.362 . S
C1718 H1710 0.930 . S
C1718 C1717 1.362 . S
C1718 C1721 1.409 . S
C1719 H1711 0.930 . S
C1719 C1720 1.355 . S
C1719 C1721 1.415 . S
C1720 C1719 1.355 . S
C1720 C1722 1.419 . S
C1721 C1716 1.425 . S
C1721 C1718 1.409 . S
C1721 C1719 1.415 . S
C1722 H1712 0.930 . S
C1722 C1720 1.419 . S
C1722 C1723 1.362 . S
C1723 H1713 0.930 . S
C1723 C1716 1.409 . S
C1723 C1722 1.362 . S
H1724 C1730 0.930 . S
H1725 C1733 0.930 . S
H1726 C1734 0.930 . S
H1727 C1735 0.930 . S
H1728 C1738 0.930 . S
H1729 C1739 0.930 . S
C1730 H1724 0.930 . S
C1730 C1731 1.355 . S
C1730 C1732 1.415 . S
C1731 C1730 1.355 . S
C1731 C1733 1.419 . S
C1732 C1730 1.415 . S
C1732 C1737 1.425 . S
C1732 C1739 1.409 . S
C1733 H1725 0.930 . S
C1733 C1731 1.419 . S
C1733 C1734 1.362 . S
C1734 H1726 0.930 . S
C1734 C1733 1.362 . S
C1734 C1737 1.409 . S
C1735 H1727 0.930 . S
C1735 C1736 1.355 . S
C1735 C1737 1.415 . S
C1736 C1735 1.355 . S
C1736 C1738 1.419 . S
C1737 C1732 1.425 . S
C1737 C1734 1.409 . S
C1737 C1735 1.415 . S
C1738 H1728 0.930 . S
C1738 C1736 1.419 . S
C1738 C1739 1.362 . S
C1739 H1729 0.930 . S
C1739 C1732 1.409 . S
C1739 C1738 1.362 . S
H1740 C1746 0.930 . S
H1741 C1749 0.930 . S
H1742 C1750 0.930 . S
H1743 C1751 0.930 . S
H1744 C1754 0.930 . S
H1745 C1755 0.930 . S
C1746 H1740 0.930 . S
C1746 C1747 1.355 . S
C1746 C1748 1.415 . S
C1747 C1746 1.355 . S
C1747 C1749 1.419 . S
C1748 C1746 1.415 . S
C1748 C1753 1.425 . S
C1748 C1755 1.409 . S
C1749 H1741 0.930 . S
C1749 C1747 1.419 . S
C1749 C1750 1.362 . S
C1750 H1742 0.930 . S
C1750 C1749 1.362 . S
C1750 C1753 1.409 . S
C1751 H1743 0.930 . S
C1751 C1752 1.355 . S
C1751 C1753 1.415 . S
C1752 C1751 1.355 . S
C1752 C1754 1.419 . S
C1753 C1748 1.425 . S
C1753 C1750 1.409 . S
C1753 C1751 1.415 . S
C1754 H1744 0.930 . S
C1754 C1752 1.419 . S
C1754 C1755 1.362 . S
C1755 H1745 0.930 . S
C1755 C1748 1.409 . S
C1755 C1754 1.362 . S
H1756 C1762 0.930 . S
H1757 C1765 0.930 1_554 S
H1758 C1766 0.930 . S
H1759 C1767 0.930 . S
H1760 C1770 0.930 . S
H1761 C1771 0.930 . S
C1762 H1756 0.930 . S
C1762 C1763 1.355 . S
C1762 C1764 1.415 . S
C1763 C1762 1.355 . S
C1763 C1765 1.419 . S
C1764 C1762 1.415 . S
C1764 C1769 1.425 . S
C1764 C1771 1.409 . S
C1765 H1757 0.930 1_556 S
C1765 C1763 1.419 . S
C1765 C1766 1.362 . S
C1766 H1758 0.930 . S
C1766 C1765 1.362 . S
C1766 C1769 1.409 . S
C1767 H1759 0.930 . S
C1767 C1768 1.355 . S
C1767 C1769 1.415 . S
C1768 C1767 1.355 . S
C1768 C1770 1.419 . S
C1769 C1764 1.425 . S
C1769 C1766 1.409 . S
C1769 C1767 1.415 . S
C1770 H1760 0.930 . S
C1770 C1768 1.419 . S
C1770 C1771 1.362 . S
C1771 H1761 0.930 . S
C1771 C1764 1.409 . S
C1771 C1770 1.362 . S
H1772 C1778 0.930 . S
H1773 C1781 0.930 . S
H1774 C1782 0.930 . S
H1775 C1783 0.930 . S
H1776 C1786 0.930 . S
H1777 C1787 0.930 . S
C1778 H1772 0.930 . S
C1778 C1779 1.355 . S
C1778 C1780 1.415 . S
C1779 C1778 1.355 . S
C1779 C1781 1.419 . S
C1780 C1778 1.415 . S
C1780 C1785 1.425 . S
C1780 C1787 1.409 . S
C1781 H1773 0.930 . S
C1781 C1779 1.419 . S
C1781 C1782 1.362 . S
C1782 H1774 0.930 . S
C1782 C1781 1.362 . S
C1782 C1785 1.409 . S
C1783 H1775 0.930 . S
C1783 C1784 1.355 . S
C1783 C1785 1.415 . S
C1784 C1783 1.355 . S
C1784 C1786 1.419 . S
C1785 C1780 1.425 . S
C1785 C1782 1.409 . S
C1785 C1783 1.415 . S
C1786 H1776 0.930 . S
C1786 C1784 1.419 . S
C1786 C1787 1.362 . S
C1787 H1777 0.930 . S
C1787 C1780 1.409 . S
C1787 C1786 1.362 . S
H1788 C1794 0.930 . S
H1789 C1797 0.930 . S
H1790 C1798 0.930 . S
H1791 C1799 0.930 . S
H1792 C1802 0.930 . S
H1793 C1803 0.930 . S
C1794 H1788 0.930 . S
C1794 C1795 1.355 . S
C1794 C1796 1.415 . S
C1795 C1794 1.355 . S
C1795 C1797 1.419 . S
C1796 C1794 1.415 . S
C1796 C1801 1.425 . S
C1796 C1803 1.409 . S
C1797 H1789 0.930 . S
C1797 C1795 1.419 . S
C1797 C1798 1.362 . S
C1798 H1790 0.930 . S
C1798 C1797 1.362 . S
C1798 C1801 1.409 . S
C1799 H1791 0.930 . S
C1799 C1800 1.355 . S
C1799 C1801 1.415 . S
C1800 C1799 1.355 . S
C1800 C1802 1.419 . S
C1801 C1796 1.425 . S
C1801 C1798 1.409 . S
C1801 C1799 1.415 . S
C1802 H1792 0.930 . S
C1802 C1800 1.419 . S
C1802 C1803 1.362 . S
C1803 H1793 0.930 . S
C1803 C1796 1.409 . S
C1803 C1802 1.362 . S
H1804 C1810 0.930 . S
H1805 C1813 0.932 1_554 S
H1806 C1814 0.930 . S
H1807 C1815 0.930 . S
H1808 C1818 0.930 . S
H1809 C1819 0.930 . S
C1810 H1804 0.930 . S
C1810 C1811 1.355 . S
C1810 C1812 1.415 . S
C1811 C1810 1.355 . S
C1811 C1813 1.419 . S
C1812 C1810 1.415 . S
C1812 C1817 1.425 . S
C1812 C1819 1.409 . S
C1813 H1805 0.932 1_556 S
C1813 C1811 1.419 . S
C1813 C1814 1.362 . S
C1814 H1806 0.930 . S
C1814 C1813 1.362 . S
C1814 C1817 1.409 . S
C1815 H1807 0.930 . S
C1815 C1816 1.355 . S
C1815 C1817 1.415 . S
C1816 C1815 1.355 . S
C1816 C1818 1.419 . S
C1817 C1812 1.425 . S
C1817 C1814 1.409 . S
C1817 C1815 1.415 . S
C1818 H1808 0.930 . S
C1818 C1816 1.419 . S
C1818 C1819 1.362 . S
C1819 H1809 0.930 . S
C1819 C1812 1.409 . S
C1819 C1818 1.362 . S
H1820 C1826 0.930 . S
H1821 C1829 0.930 . S
H1822 C1830 0.930 . S
H1823 C1831 0.930 . S
H1824 C1834 0.930 . S
H1825 C1835 0.930 . S
C1826 H1820 0.930 . S
C1826 C1827 1.355 . S
C1826 C1828 1.415 . S
C1827 C1826 1.355 . S
C1827 C1829 1.419 . S
C1828 C1826 1.415 . S
C1828 C1833 1.425 . S
C1828 C1835 1.409 . S
C1829 H1821 0.930 . S
C1829 C1827 1.419 . S
C1829 C1830 1.362 . S
C1830 H1822 0.930 . S
C1830 C1829 1.362 . S
C1830 C1833 1.409 . S
C1831 H1823 0.930 . S
C1831 C1832 1.355 . S
C1831 C1833 1.415 . S
C1832 C1831 1.355 . S
C1832 C1834 1.419 . S
C1833 C1828 1.425 . S
C1833 C1830 1.409 . S
C1833 C1831 1.415 . S
C1834 H1824 0.930 . S
C1834 C1832 1.419 . S
C1834 C1835 1.362 . S
C1835 H1825 0.930 . S
C1835 C1828 1.409 . S
C1835 C1834 1.362 . S
H1836 C1842 0.930 . S
H1837 C1845 0.930 . S
H1838 C1846 0.930 . S
H1839 C1847 0.930 . S
H1840 C1850 0.930 . S
H1841 C1851 0.930 . S
C1842 H1836 0.930 . S
C1842 C1843 1.355 . S
C1842 C1844 1.415 . S
C1843 C1842 1.355 . S
C1843 C1845 1.419 . S
C1844 C1842 1.415 . S
C1844 C1849 1.425 . S
C1844 C1851 1.409 . S
C1845 H1837 0.930 . S
C1845 C1843 1.419 . S
C1845 C1846 1.362 . S
C1846 H1838 0.930 . S
C1846 C1845 1.362 . S
C1846 C1849 1.409 . S
C1847 H1839 0.930 . S
C1847 C1848 1.355 . S
C1847 C1849 1.415 . S
C1848 C1847 1.355 . S
C1848 C1850 1.419 . S
C1849 C1844 1.425 . S
C1849 C1846 1.409 . S
C1849 C1847 1.415 . S
C1850 H1840 0.930 . S
C1850 C1848 1.419 . S
C1850 C1851 1.362 . S
C1851 H1841 0.930 . S
C1851 C1844 1.409 . S
C1851 C1850 1.362 . S
H1852 C1858 0.930 . S
H1853 C1861 0.930 . S
H1854 C1862 0.930 . S
H1855 C1863 0.930 . S
H1856 C1866 0.930 . S
H1857 C1867 0.930 . S
C1858 H1852 0.930 . S
C1858 C1859 1.355 . S
C1858 C1860 1.415 . S
C1859 C1858 1.355 . S
C1859 C1861 1.419 . S
C1860 C1858 1.415 . S
C1860 C1865 1.425 . S
C1860 C1867 1.409 . S
C1861 H1853 0.930 . S
C1861 C1859 1.419 . S
C1861 C1862 1.362 . S
C1862 H1854 0.930 . S
C1862 C1861 1.362 . S
C1862 C1865 1.409 . S
C1863 H1855 0.930 . S
C1863 C1864 1.355 . S
C1863 C1865 1.415 . S
C1864 C1863 1.355 . S
C1864 C1866 1.419 . S
C1865 C1860 1.425 . S
C1865 C1862 1.409 . S
C1865 C1863 1.415 . S
C1866 H1856 0.930 . S
C1866 C1864 1.419 . S
C1866 C1867 1.362 . S
C1867 H1857 0.930 . S
C1867 C1860 1.409 . S
C1867 C1866 1.362 . S
H1868 C1874 0.930 . S
H1869 C1877 0.930 . S
H1870 C1878 0.930 . S
H1871 C1879 0.930 . S
H1872 C1882 0.930 . S
H1873 C1883 0.930 . S
C1874 H1868 0.930 . S
C1874 C1875 1.355 . S
C1874 C1876 1.415 . S
C1875 C1874 1.355 . S
C1875 C1877 1.419 . S
C1876 C1874 1.415 . S
C1876 C1881 1.425 . S
C1876 C1883 1.409 . S
C1877 H1869 0.930 . S
C1877 C1875 1.419 . S
C1877 C1878 1.362 . S
C1878 H1870 0.930 . S
C1878 C1877 1.362 . S
C1878 C1881 1.409 . S
C1879 H1871 0.930 . S
C1879 C1880 1.355 . S
C1879 C1881 1.415 . S
C1880 C1879 1.355 . S
C1880 C1882 1.419 . S
C1881 C1876 1.425 . S
C1881 C1878 1.409 . S
C1881 C1879 1.415 . S
C1882 H1872 0.930 . S
C1882 C1880 1.419 . S
C1882 C1883 1.362 . S
C1883 H1873 0.930 . S
C1883 C1876 1.409 . S
C1883 C1882 1.362 . S
H1884 C1890 0.930 . S
H1885 C1893 0.930 . S
H1886 C1894 0.930 . S
H1887 C1895 0.930 . S
H1888 C1898 0.930 . S
H1889 C1899 0.930 . S
C1890 H1884 0.930 . S
C1890 C1891 1.355 . S
C1890 C1892 1.415 . S
C1891 C1890 1.355 . S
C1891 C1893 1.419 . S
C1892 C1890 1.415 . S
C1892 C1897 1.425 . S
C1892 C1899 1.409 . S
C1893 H1885 0.930 . S
C1893 C1891 1.419 . S
C1893 C1894 1.362 . S
C1894 H1886 0.930 . S
C1894 C1893 1.362 . S
C1894 C1897 1.409 . S
C1895 H1887 0.930 . S
C1895 C1896 1.355 . S
C1895 C1897 1.415 . S
C1896 C1895 1.355 . S
C1896 C1898 1.419 . S
C1897 C1892 1.425 . S
C1897 C1894 1.409 . S
C1897 C1895 1.415 . S
C1898 H1888 0.930 . S
C1898 C1896 1.419 . S
C1898 C1899 1.362 . S
C1899 H1889 0.930 . S
C1899 C1892 1.409 . S
C1899 C1898 1.362 . S
H1900 C1906 0.930 . S
H1901 C1909 0.930 . S
H1902 C1910 0.930 . S
H1903 C1911 0.930 . S
H1904 C1914 0.930 . S
H1905 C1915 0.930 . S
C1906 H1900 0.930 . S
C1906 C1907 1.355 . S
C1906 C1908 1.415 . S
C1907 C1906 1.355 . S
C1907 C1909 1.419 . S
C1908 C1906 1.415 . S
C1908 C1913 1.425 . S
C1908 C1915 1.409 . S
C1909 H1901 0.930 . S
C1909 C1907 1.419 . S
C1909 C1910 1.362 . S
C1910 H1902 0.930 . S
C1910 C1909 1.362 . S
C1910 C1913 1.409 . S
C1911 H1903 0.930 . S
C1911 C1912 1.355 . S
C1911 C1913 1.415 . S
C1912 C1911 1.355 . S
C1912 C1914 1.419 . S
C1913 C1908 1.425 . S
C1913 C1910 1.409 . S
C1913 C1911 1.415 . S
C1914 H1904 0.930 . S
C1914 C1912 1.419 . S
C1914 C1915 1.362 . S
C1915 H1905 0.930 . S
C1915 C1908 1.409 . S
C1915 C1914 1.362 . S
H1916 C1922 0.930 . S
H1917 C1925 0.930 . S
H1918 C1926 0.930 . S
H1919 C1927 0.930 . S
H1920 C1930 0.930 . S
H1921 C1931 0.930 . S
C1922 H1916 0.930 . S
C1922 C1923 1.355 . S
C1922 C1924 1.415 . S
C1923 C1922 1.355 . S
C1923 C1925 1.419 . S
C1924 C1922 1.415 . S
C1924 C1929 1.425 . S
C1924 C1931 1.409 . S
C1925 H1917 0.930 . S
C1925 C1923 1.419 . S
C1925 C1926 1.362 . S
C1926 H1918 0.930 . S
C1926 C1925 1.362 . S
C1926 C1929 1.409 . S
C1927 H1919 0.930 . S
C1927 C1928 1.355 . S
C1927 C1929 1.415 . S
C1928 C1927 1.355 . S
C1928 C1930 1.419 . S
C1929 C1924 1.425 . S
C1929 C1926 1.409 . S
C1929 C1927 1.415 . S
C1930 H1920 0.930 . S
C1930 C1928 1.419 . S
C1930 C1931 1.362 . S
C1931 H1921 0.930 . S
C1931 C1924 1.409 . S
C1931 C1930 1.362 . S
H1932 C1938 0.930 . S
H1933 C1941 0.930 . S
H1934 C1942 0.930 . S
H1935 C1943 0.930 . S
H1936 C1946 0.930 . S
H1937 C1947 0.930 . S
C1938 H1932 0.930 . S
C1938 C1939 1.355 . S
C1938 C1940 1.415 . S
C1939 C1938 1.355 . S
C1939 C1941 1.419 1_455 S
C1940 C1938 1.415 . S
C1940 C1945 1.425 1_455 S
C1940 C1947 1.409 . S
C1941 H1933 0.930 . S
C1941 C1939 1.419 1_655 S
C1941 C1942 1.362 . S
C1942 H1934 0.930 . S
C1942 C1941 1.362 . S
C1942 C1945 1.409 . S
C1943 H1935 0.930 . S
C1943 C1944 1.355 1_655 S
C1943 C1945 1.415 . S
C1944 C1943 1.355 1_455 S
C1944 C1946 1.419 . S
C1945 C1940 1.425 1_655 S
C1945 C1942 1.409 . S
C1945 C1943 1.415 . S
C1946 H1936 0.930 . S
C1946 C1944 1.419 . S
C1946 C1947 1.362 . S
C1947 H1937 0.930 . S
C1947 C1940 1.409 . S
C1947 C1946 1.362 . S
H1948 C1954 0.930 . S
H1949 C1957 0.930 . S
H1950 C1958 0.930 . S
H1951 C1959 0.930 . S
H1952 C1962 0.930 . S
H1953 C1963 0.930 . S
C1954 H1948 0.930 . S
C1954 C1955 1.355 . S
C1954 C1956 1.415 . S
C1955 C1954 1.355 . S
C1955 C1957 1.419 . S
C1956 C1954 1.415 . S
C1956 C1961 1.425 . S
C1956 C1963 1.409 . S
C1957 H1949 0.930 . S
C1957 C1955 1.419 . S
C1957 C1958 1.362 . S
C1958 H1950 0.930 . S
C1958 C1957 1.362 . S
C1958 C1961 1.409 . S
C1959 H1951 0.930 . S
C1959 C1960 1.355 . S
C1959 C1961 1.415 . S
C1960 C1959 1.355 . S
C1960 C1962 1.419 . S
C1961 C1956 1.425 . S
C1961 C1958 1.409 . S
C1961 C1959 1.415 . S
C1962 H1952 0.930 . S
C1962 C1960 1.419 . S
C1962 C1963 1.362 . S
C1963 H1953 0.930 . S
C1963 C1956 1.409 . S
C1963 C1962 1.362 . S
H1964 C1970 0.930 . S
H1965 C1973 0.930 . S
H1966 C1974 0.948 1_545 S
H1967 C1975 0.944 1_545 S
H1968 C1978 0.930 . S
H1969 C1979 0.930 . S
C1970 H1964 0.930 . S
C1970 C1971 1.355 . S
C1970 C1972 1.415 . S
C1971 C1970 1.355 . S
C1971 C1973 1.419 . S
C1972 C1970 1.415 . S
C1972 C1977 1.425 . S
C1972 C1979 1.409 . S
C1973 H1965 0.930 . S
C1973 C1971 1.419 . S
C1973 C1974 1.362 . S
C1974 H1966 0.948 1_565 S
C1974 C1973 1.362 . S
C1974 C1977 1.409 . S
C1975 H1967 0.944 1_565 S
C1975 C1976 1.371 . S
C1975 C1977 1.390 . S
C1976 C1975 1.371 . S
C1976 C1978 1.419 . S
C1977 C1972 1.425 . S
C1977 C1974 1.409 . S
C1977 C1975 1.390 . S
C1978 H1968 0.930 . S
C1978 C1976 1.419 . S
C1978 C1979 1.362 . S
C1979 H1969 0.930 . S
C1979 C1972 1.409 . S
C1979 C1978 1.362 . S
H1980 C1986 0.930 . S
H1981 C1989 0.930 . S
H1982 C1990 0.930 . S
H1983 C1991 0.930 . S
H1984 C1994 0.930 . S
H1985 C1995 0.930 . S
C1986 H1980 0.930 . S
C1986 C1987 1.355 . S
C1986 C1988 1.415 . S
C1987 C1986 1.355 . S
C1987 C1989 1.419 1_565 S
C1988 C1986 1.415 . S
C1988 C1993 1.425 1_565 S
C1988 C1995 1.409 . S
C1989 H1981 0.930 . S
C1989 C1987 1.419 1_545 S
C1989 C1990 1.362 . S
C1990 H1982 0.930 . S
C1990 C1989 1.362 . S
C1990 C1993 1.409 . S
C1991 H1983 0.930 . S
C1991 C1992 1.355 1_545 S
C1991 C1993 1.415 . S
C1992 C1991 1.355 1_565 S
C1992 C1994 1.419 . S
C1993 C1988 1.425 1_545 S
C1993 C1990 1.409 . S
C1993 C1991 1.415 . S
C1994 H1984 0.930 . S
C1994 C1992 1.419 . S
C1994 C1995 1.362 . S
C1995 H1985 0.930 . S
C1995 C1988 1.409 . S
C1995 C1994 1.362 . S
H1996 C2002 0.930 . S
H1997 C2005 0.930 . S
H1998 C2006 0.930 . S
H1999 C2007 0.930 . S
H2000 C2010 0.925 . S
H2001 C2011 0.929 1_655 S
C2002 H1996 0.930 . S
C2002 C2003 1.355 . S
C2002 C2004 1.415 . S
C2003 C2002 1.355 . S
C2003 C2005 1.419 . S
C2004 C2002 1.415 . S
C2004 C2009 1.425 . S
C2004 C2011 1.405 . S
C2005 H1997 0.930 . S
C2005 C2003 1.419 . S
C2005 C2006 1.362 . S
C2006 H1998 0.930 . S
C2006 C2005 1.362 . S
C2006 C2009 1.409 . S
C2007 H1999 0.930 . S
C2007 C2008 1.355 . S
C2007 C2009 1.415 . S
C2008 C2007 1.355 . S
C2008 C2010 1.419 1_455 S
C2009 C2004 1.425 . S
C2009 C2006 1.409 . S
C2009 C2007 1.415 . S
C2010 H2000 0.925 . S
C2010 C2008 1.419 1_655 S
C2010 C2011 1.373 1_655 S
C2011 H2001 0.929 1_455 S
C2011 C2004 1.405 . S
C2011 C2010 1.373 1_455 S
H2012 C2018 0.930 . S
H2013 C2021 0.930 . S
H2014 C2022 0.930 . S
H2015 C2023 0.930 . S
H2016 C2026 0.930 . S
H2017 C2027 0.930 . S
C2018 H2012 0.930 . S
C2018 C2019 1.355 . S
C2018 C2020 1.415 . S
C2019 C2018 1.355 . S
C2019 C2021 1.419 . S
C2020 C2018 1.415 . S
C2020 C2025 1.425 . S
C2020 C2027 1.409 . S
C2021 H2013 0.930 . S
C2021 C2019 1.419 . S
C2021 C2022 1.362 . S
C2022 H2014 0.930 . S
C2022 C2021 1.362 . S
C2022 C2025 1.409 . S
C2023 H2015 0.930 . S
C2023 C2024 1.355 . S
C2023 C2025 1.415 . S
C2024 C2023 1.355 . S
C2024 C2026 1.419 . S
C2025 C2020 1.425 . S
C2025 C2022 1.409 . S
C2025 C2023 1.415 . S
C2026 H2016 0.930 . S
C2026 C2024 1.419 . S
C2026 C2027 1.362 . S
C2027 H2017 0.930 . S
C2027 C2020 1.409 . S
C2027 C2026 1.362 . S
H2028 C2034 0.930 . S
H2029 C2037 0.930 . S
H2030 C2038 0.930 . S
H2031 C2039 0.930 . S
H2032 C2042 0.930 . S
H2033 C2043 0.930 . S
C2034 H2028 0.930 . S
C2034 C2035 1.355 . S
C2034 C2036 1.415 . S
C2035 C2034 1.355 . S
C2035 C2037 1.419 . S
C2036 C2034 1.415 . S
C2036 C2041 1.425 . S
C2036 C2043 1.409 . S
C2037 H2029 0.930 . S
C2037 C2035 1.419 . S
C2037 C2038 1.362 . S
C2038 H2030 0.930 . S
C2038 C2037 1.362 . S
C2038 C2041 1.409 . S
C2039 H2031 0.930 . S
C2039 C2040 1.355 . S
C2039 C2041 1.415 . S
C2040 C2039 1.355 . S
C2040 C2042 1.419 . S
C2041 C2036 1.425 . S
C2041 C2038 1.409 . S
C2041 C2039 1.415 . S
C2042 H2032 0.930 . S
C2042 C2040 1.419 . S
C2042 C2043 1.362 . S
C2043 H2033 0.930 . S
C2043 C2036 1.409 . S
C2043 C2042 1.362 . S
H2044 C2050 0.930 . S
H2045 C2053 0.930 . S
H2046 C2054 0.930 . S
H2047 C2055 0.930 . S
H2048 C2058 0.930 . S
H2049 C2059 0.930 . S
C2050 H2044 0.930 . S
C2050 C2051 1.355 . S
C2050 C2052 1.415 . S
C2051 C2050 1.355 . S
C2051 C2053 1.419 . S
C2052 C2050 1.415 . S
C2052 C2057 1.425 . S
C2052 C2059 1.409 . S
C2053 H2045 0.930 . S
C2053 C2051 1.419 . S
C2053 C2054 1.362 . S
C2054 H2046 0.930 . S
C2054 C2053 1.362 . S
C2054 C2057 1.409 . S
C2055 H2047 0.930 . S
C2055 C2056 1.355 . S
C2055 C2057 1.415 . S
C2056 C2055 1.355 . S
C2056 C2058 1.419 . S
C2057 C2052 1.425 . S
C2057 C2054 1.409 . S
C2057 C2055 1.415 . S
C2058 H2048 0.930 . S
C2058 C2056 1.419 . S
C2058 C2059 1.362 . S
C2059 H2049 0.930 . S
C2059 C2052 1.409 . S
C2059 C2058 1.362 . S
H2060 C2066 0.930 . S
H2061 C2069 0.930 . S
H2062 C2070 0.930 . S
H2063 C2071 0.930 . S
H2064 C2074 0.930 . S
H2065 C2075 0.930 . S
C2066 H2060 0.930 . S
C2066 C2067 1.355 . S
C2066 C2068 1.415 . S
C2067 C2066 1.355 . S
C2067 C2069 1.419 . S
C2068 C2066 1.415 . S
C2068 C2073 1.425 . S
C2068 C2075 1.409 . S
C2069 H2061 0.930 . S
C2069 C2067 1.419 . S
C2069 C2070 1.362 . S
C2070 H2062 0.930 . S
C2070 C2069 1.362 . S
C2070 C2073 1.409 . S
C2071 H2063 0.930 . S
C2071 C2072 1.355 . S
C2071 C2073 1.415 . S
C2072 C2071 1.355 . S
C2072 C2074 1.419 . S
C2073 C2068 1.425 . S
C2073 C2070 1.409 . S
C2073 C2071 1.415 . S
C2074 H2064 0.930 . S
C2074 C2072 1.419 . S
C2074 C2075 1.362 . S
C2075 H2065 0.930 . S
C2075 C2068 1.409 . S
C2075 C2074 1.362 . S
H2076 C2082 0.930 1_565 S
H2077 C2085 0.930 . S
H2078 C2086 0.930 . S
H2079 C2087 0.930 . S
H2080 C2090 0.930 . S
H2081 C2091 0.930 . S
C2082 H2076 0.930 1_545 S
C2082 C2083 1.355 . S
C2082 C2084 1.415 . S
C2083 C2082 1.355 . S
C2083 C2085 1.419 . S
C2084 C2082 1.415 . S
C2084 C2089 1.425 . S
C2084 C2091 1.409 1_545 S
C2085 H2077 0.930 . S
C2085 C2083 1.419 . S
C2085 C2086 1.362 . S
C2086 H2078 0.930 . S
C2086 C2085 1.362 . S
C2086 C2089 1.409 . S
C2087 H2079 0.930 . S
C2087 C2088 1.355 . S
C2087 C2089 1.415 . S
C2088 C2087 1.355 . S
C2088 C2090 1.419 1_545 S
C2089 C2084 1.425 . S
C2089 C2086 1.409 . S
C2089 C2087 1.415 . S
C2090 H2080 0.930 . S
C2090 C2088 1.419 1_565 S
C2090 C2091 1.362 . S
C2091 H2081 0.930 . S
C2091 C2084 1.409 1_565 S
C2091 C2090 1.362 . S
H2092 C2098 0.930 . S
H2093 C2101 0.922 1_455 S
H2094 C2102 0.930 . S
H2095 C2103 0.908 1_455 S
H2096 C2106 0.930 . S
H2097 C2107 0.930 . S
C2098 H2092 0.930 . S
C2098 C2099 1.355 . S
C2098 C2100 1.415 . S
C2099 C2098 1.355 . S
C2099 C2101 1.424 . S
C2100 C2098 1.415 . S
C2100 C2105 1.425 . S
C2100 C2107 1.409 . S
C2101 H2093 0.922 1_655 S
C2101 C2099 1.424 . S
C2101 C2102 1.366 1_655 S
C2102 H2094 0.930 . S
C2102 C2101 1.366 1_455 S
C2102 C2105 1.409 1_455 S
C2103 H2095 0.908 1_655 S
C2103 C2104 1.403 . S
C2103 C2105 1.393 . S
C2104 C2103 1.403 . S
C2104 C2106 1.419 . S
C2105 C2100 1.425 . S
C2105 C2102 1.409 1_655 S
C2105 C2103 1.393 . S
C2106 H2096 0.930 . S
C2106 C2104 1.419 . S
C2106 C2107 1.362 . S
C2107 H2097 0.930 . S
C2107 C2100 1.409 . S
C2107 C2106 1.362 . S
H2108 C2114 0.930 . S
H2109 C2117 0.930 . S
H2110 C2118 0.930 . S
H2111 C2119 0.930 . S
H2112 C2122 0.930 . S
H2113 C2123 0.930 . S
C2114 H2108 0.930 . S
C2114 C2115 1.355 . S
C2114 C2116 1.415 . S
C2115 C2114 1.355 . S
C2115 C2117 1.419 . S
C2116 C2114 1.415 . S
C2116 C2121 1.425 . S
C2116 C2123 1.409 . S
C2117 H2109 0.930 . S
C2117 C2115 1.419 . S
C2117 C2118 1.362 . S
C2118 H2110 0.930 . S
C2118 C2117 1.362 . S
C2118 C2121 1.409 . S
C2119 H2111 0.930 . S
C2119 C2120 1.355 . S
C2119 C2121 1.415 . S
C2120 C2119 1.355 . S
C2120 C2122 1.419 . S
C2121 C2116 1.425 . S
C2121 C2118 1.409 . S
C2121 C2119 1.415 . S
C2122 H2112 0.930 . S
C2122 C2120 1.419 . S
C2122 C2123 1.362 . S
C2123 H2113 0.930 . S
C2123 C2116 1.409 . S
C2123 C2122 1.362 . S
H2124 C2130 0.930 . S
H2125 C2133 0.930 . S
H2126 C2134 0.930 . S
H2127 C2135 0.930 . S
H2128 C2138 0.930 . S
H2129 C2139 0.930 . S
C2130 H2124 0.930 . S
C2130 C2131 1.355 . S
C2130 C2132 1.415 . S
C2131 C2130 1.355 . S
C2131 C2133 1.419 . S
C2132 C2130 1.415 . S
C2132 C2137 1.425 . S
C2132 C2139 1.409 . S
C2133 H2125 0.930 . S
C2133 C2131 1.419 . S
C2133 C2134 1.362 . S
C2134 H2126 0.930 . S
C2134 C2133 1.362 . S
C2134 C2137 1.409 . S
C2135 H2127 0.930 . S
C2135 C2136 1.355 . S
C2135 C2137 1.415 . S
C2136 C2135 1.355 . S
C2136 C2138 1.419 . S
C2137 C2132 1.425 . S
C2137 C2134 1.409 . S
C2137 C2135 1.415 . S
C2138 H2128 0.930 . S
C2138 C2136 1.419 . S
C2138 C2139 1.362 . S
C2139 H2129 0.930 . S
C2139 C2132 1.409 . S
C2139 C2138 1.362 . S
H2140 C2146 0.930 . S
H2141 C2149 0.930 . S
H2142 C2150 0.930 . S
H2143 C2151 0.930 . S
H2144 C2154 0.930 . S
H2145 C2155 0.930 . S
C2146 H2140 0.930 . S
C2146 C2147 1.355 . S
C2146 C2148 1.415 . S
C2147 C2146 1.355 . S
C2147 C2149 1.419 . S
C2148 C2146 1.415 . S
C2148 C2153 1.425 . S
C2148 C2155 1.409 . S
C2149 H2141 0.930 . S
C2149 C2147 1.419 . S
C2149 C2150 1.362 . S
C2150 H2142 0.930 . S
C2150 C2149 1.362 . S
C2150 C2153 1.409 . S
C2151 H2143 0.930 . S
C2151 C2152 1.355 . S
C2151 C2153 1.415 . S
C2152 C2151 1.355 . S
C2152 C2154 1.419 . S
C2153 C2148 1.425 . S
C2153 C2150 1.409 . S
C2153 C2151 1.415 . S
C2154 H2144 0.930 . S
C2154 C2152 1.419 . S
C2154 C2155 1.362 . S
C2155 H2145 0.930 . S
C2155 C2148 1.409 . S
C2155 C2154 1.362 . S
H2156 C2162 0.930 . S
H2157 C2165 0.930 . S
H2158 C2166 0.930 . S
H2159 C2167 0.930 . S
H2160 C2170 0.930 . S
H2161 C2171 0.930 . S
C2162 H2156 0.930 . S
C2162 C2163 1.355 . S
C2162 C2164 1.415 . S
C2163 C2162 1.355 . S
C2163 C2165 1.419 . S
C2164 C2162 1.415 . S
C2164 C2169 1.425 . S
C2164 C2171 1.409 . S
C2165 H2157 0.930 . S
C2165 C2163 1.419 . S
C2165 C2166 1.362 . S
C2166 H2158 0.930 . S
C2166 C2165 1.362 . S
C2166 C2169 1.409 . S
C2167 H2159 0.930 . S
C2167 C2168 1.355 . S
C2167 C2169 1.415 . S
C2168 C2167 1.355 . S
C2168 C2170 1.419 . S
C2169 C2164 1.425 . S
C2169 C2166 1.409 . S
C2169 C2167 1.415 . S
C2170 H2160 0.930 . S
C2170 C2168 1.419 . S
C2170 C2171 1.362 . S
C2171 H2161 0.930 . S
C2171 C2164 1.409 . S
C2171 C2170 1.362 . S
H2172 C2178 0.930 . S
H2173 C2181 0.930 . S
H2174 C2182 0.930 . S
H2175 C2183 0.930 . S
H2176 C2186 0.930 . S
H2177 C2187 0.930 . S
C2178 H2172 0.930 . S
C2178 C2179 1.355 . S
C2178 C2180 1.415 . S
C2179 C2178 1.355 . S
C2179 C2181 1.419 . S
C2180 C2178 1.415 . S
C2180 C2185 1.425 . S
C2180 C2187 1.409 . S
C2181 H2173 0.930 . S
C2181 C2179 1.419 . S
C2181 C2182 1.362 . S
C2182 H2174 0.930 . S
C2182 C2181 1.362 . S
C2182 C2185 1.409 . S
C2183 H2175 0.930 . S
C2183 C2184 1.355 . S
C2183 C2185 1.415 . S
C2184 C2183 1.355 . S
C2184 C2186 1.419 . S
C2185 C2180 1.425 . S
C2185 C2182 1.409 . S
C2185 C2183 1.415 . S
C2186 H2176 0.930 . S
C2186 C2184 1.419 . S
C2186 C2187 1.362 . S
C2187 H2177 0.930 . S
C2187 C2180 1.409 . S
C2187 C2186 1.362 . S
H2188 C2194 0.930 . S
H2189 C2197 0.930 . S
H2190 C2198 0.930 . S
H2191 C2199 0.930 . S
H2192 C2202 0.930 . S
H2193 C2203 0.930 . S
C2194 H2188 0.930 . S
C2194 C2195 1.355 . S
C2194 C2196 1.415 . S
C2195 C2194 1.355 . S
C2195 C2197 1.419 . S
C2196 C2194 1.415 . S
C2196 C2201 1.425 . S
C2196 C2203 1.409 . S
C2197 H2189 0.930 . S
C2197 C2195 1.419 . S
C2197 C2198 1.362 . S
C2198 H2190 0.930 . S
C2198 C2197 1.362 . S
C2198 C2201 1.409 . S
C2199 H2191 0.930 . S
C2199 C2200 1.355 . S
C2199 C2201 1.415 . S
C2200 C2199 1.355 . S
C2200 C2202 1.419 . S
C2201 C2196 1.425 . S
C2201 C2198 1.409 . S
C2201 C2199 1.415 . S
C2202 H2192 0.930 . S
C2202 C2200 1.419 . S
C2202 C2203 1.362 . S
C2203 H2193 0.930 . S
C2203 C2196 1.409 . S
C2203 C2202 1.362 . S
H2204 C2210 0.930 . S
H2205 C2213 0.930 . S
H2206 C2214 0.930 . S
H2207 C2215 0.930 . S
H2208 C2218 0.930 . S
H2209 C2219 0.930 . S
C2210 H2204 0.930 . S
C2210 C2211 1.355 . S
C2210 C2212 1.415 . S
C2211 C2210 1.355 . S
C2211 C2213 1.419 . S
C2212 C2210 1.415 . S
C2212 C2217 1.425 . S
C2212 C2219 1.409 . S
C2213 H2205 0.930 . S
C2213 C2211 1.419 . S
C2213 C2214 1.362 . S
C2214 H2206 0.930 . S
C2214 C2213 1.362 . S
C2214 C2217 1.409 . S
C2215 H2207 0.930 . S
C2215 C2216 1.355 . S
C2215 C2217 1.415 . S
C2216 C2215 1.355 . S
C2216 C2218 1.419 . S
C2217 C2212 1.425 . S
C2217 C2214 1.409 . S
C2217 C2215 1.415 . S
C2218 H2208 0.930 . S
C2218 C2216 1.419 . S
C2218 C2219 1.362 . S
C2219 H2209 0.930 . S
C2219 C2212 1.409 . S
C2219 C2218 1.362 . S
H2220 C2226 0.930 . S
H2221 C2229 0.930 . S
H2222 C2230 0.930 . S
H2223 C2231 0.930 . S
H2224 C2234 0.930 . S
H2225 C2235 0.930 . S
C2226 H2220 0.930 . S
C2226 C2227 1.355 . S
C2226 C2228 1.415 . S
C2227 C2226 1.355 . S
C2227 C2229 1.419 1_655 S
C2228 C2226 1.415 . S
C2228 C2233 1.477 . S
C2228 C2235 1.409 . S
C2229 H2221 0.930 . S
C2229 C2227 1.419 1_455 S
C2229 C2230 1.362 . S
C2230 H2222 0.930 . S
C2230 C2229 1.362 . S
C2230 C2233 1.399 1_455 S
C2231 H2223 0.930 . S
C2231 C2232 1.355 1_455 S
C2231 C2233 1.378 1_455 S
C2232 C2231 1.355 1_655 S
C2232 C2234 1.419 . S
C2233 C2228 1.477 . S
C2233 C2230 1.399 1_655 S
C2233 C2231 1.378 1_655 S
C2234 H2224 0.930 . S
C2234 C2232 1.419 . S
C2234 C2235 1.362 . S
C2235 H2225 0.930 . S
C2235 C2228 1.409 . S
C2235 C2234 1.362 . S
H2236 C2242 0.930 . S
H2237 C2245 0.930 . S
H2238 C2246 0.930 . S
H2239 C2247 0.930 . S
H2240 C2250 0.930 . S
H2241 C2251 0.930 . S
C2242 H2236 0.930 . S
C2242 C2243 1.355 . S
C2242 C2244 1.415 . S
C2243 C2242 1.355 . S
C2243 C2245 1.419 . S
C2244 C2242 1.415 . S
C2244 C2249 1.425 . S
C2244 C2251 1.409 . S
C2245 H2237 0.930 . S
C2245 C2243 1.419 . S
C2245 C2246 1.362 . S
C2246 H2238 0.930 . S
C2246 C2245 1.362 . S
C2246 C2249 1.409 . S
C2247 H2239 0.930 . S
C2247 C2248 1.355 . S
C2247 C2249 1.415 . S
C2248 C2247 1.355 . S
C2248 C2250 1.419 . S
C2249 C2244 1.425 . S
C2249 C2246 1.409 . S
C2249 C2247 1.415 . S
C2250 H2240 0.930 . S
C2250 C2248 1.419 . S
C2250 C2251 1.362 . S
C2251 H2241 0.930 . S
C2251 C2244 1.409 . S
C2251 C2250 1.362 . S
H2252 C2258 0.930 . S
H2253 C2261 0.930 . S
H2254 C2262 0.930 . S
H2255 C2263 0.930 . S
H2256 C2266 0.930 . S
H2257 C2267 0.930 . S
C2258 H2252 0.930 . S
C2258 C2259 1.355 . S
C2258 C2260 1.415 . S
C2259 C2258 1.355 . S
C2259 C2261 1.419 1_545 S
C2260 C2258 1.415 . S
C2260 C2265 1.425 1_545 S
C2260 C2267 1.409 . S
C2261 H2253 0.930 . S
C2261 C2259 1.419 1_565 S
C2261 C2262 1.362 . S
C2262 H2254 0.930 . S
C2262 C2261 1.362 . S
C2262 C2265 1.409 . S
C2263 H2255 0.930 . S
C2263 C2264 1.355 1_565 S
C2263 C2265 1.415 . S
C2264 C2263 1.355 1_545 S
C2264 C2266 1.419 . S
C2265 C2260 1.425 1_565 S
C2265 C2262 1.409 . S
C2265 C2263 1.415 . S
C2266 H2256 0.930 . S
C2266 C2264 1.419 . S
C2266 C2267 1.362 . S
C2267 H2257 0.930 . S
C2267 C2260 1.409 . S
C2267 C2266 1.362 . S
C1123 C8 1.509 1_655 S
C1128 C729 1.537 . S
C1139 C22 1.566 . S
C1144 C777 1.561 . S
C1160 C825 1.515 . S
C1155 C37 1.514 1_545 S
C1171 C36 1.480 1_565 S
C1176 C849 1.505 . S
C1187 C9 1.487 1_455 S
C1192 C921 1.519 . S
C1203 C23 1.547 . S
C1208 C969 1.569 . S
C1219 C50 1.499 1_455 S
C1224 C897 1.501 . S
C1240 C945 1.557 . S
C1235 C64 1.566 . S
C1256 C873 1.519 . S
C1251 C79 1.503 1_565 S
C1267 C78 1.462 1_545 S
C1272 C801 1.502 . S
C1288 C705 1.518 . S
C1283 C51 1.501 1_655 S
C1299 C65 1.566 . S
C1304 C753 1.557 . S
C1315 C92 1.597 . S
C1320 C1017 1.593 . S
C1331 C106 1.579 . S
C1336 C1065 1.601 . S
C1352 C1089 1.565 . S
C1347 C121 1.583 . S
C1363 C120 1.556 . S
C1368 C273 1.532 . S
C1379 C93 1.551 . S
C1384 C345 1.559 . S
C1395 C107 1.551 . S
C1400 C393 1.573 . S
C1411 C134 1.556 . S
C1416 C321 1.539 . S
C1427 C148 1.573 . S
C1432 C369 1.570 . S
C1448 C297 1.560 . S
C1443 C163 1.542 . S
C1464 C1113 1.576 . S
C1459 C162 1.582 . S
C1480 C993 1.584 . S
C1475 C135 1.557 . S
C1496 C1041 1.590 . S
C1491 C149 1.606 . S
C1507 C176 1.555 . S
C1512 C441 1.552 . S
C1523 C190 1.558 . S
C1528 C489 1.564 . S
C1539 C205 1.568 . S
C1544 C513 1.554 . S
C1555 C204 1.579 . S
C1560 C561 1.587 . S
C1576 C633 1.583 . S
C1571 C177 1.576 . S
C1592 C681 1.591 . S
C1587 C191 1.606 . S
C1608 C609 1.591 . S
C1603 C218 1.597 . S
C1624 C657 1.591 . S
C1619 C232 1.604 . S
C1635 C247 1.563 . S
C1640 C585 1.565 . S
C1656 C537 1.546 . S
C1651 C246 1.523 . S
C1667 C219 1.557 . S
C1672 C417 1.569 . S
C1688 C465 1.575 . S
C1683 C233 1.565 . S
C1704 C282 1.534 . S
C1699 C6 1.500 . S
C1715 C20 1.482 . S
C1720 C336 1.481 . S
C1736 C384 1.511 . S
C1731 C35 1.522 . S
C1752 C432 1.541 . S
C1747 C34 1.514 . S
C1768 C480 1.514 . S
C1763 C7 1.512 . S
C1784 C522 1.510 . S
C1779 C21 1.481 . S
C1795 C48 1.519 . S
C1800 C528 1.554 . S
C1811 C62 1.494 . S
C1816 C426 1.471 . S
C1827 C77 1.498 . S
C1832 C474 1.518 . S
C1843 C76 1.519 . S
C1848 C330 1.513 . S
C1864 C378 1.509 . S
C1859 C49 1.511 . S
C1875 C63 1.504 . S
C1880 C288 1.512 . S
C1896 C570 1.526 . S
C1891 C90 1.485 . S
C1907 C104 1.523 . S
C1912 C624 1.563 . S
C1923 C119 1.515 . S
C1928 C672 1.549 . S
C1944 C720 1.483 . S
C1939 C118 1.467 . S
C1955 C91 1.484 . S
C1960 C768 1.528 . S
C1971 C105 1.441 . S
C1976 C816 1.486 . S
C1987 C132 1.478 . S
C1992 C810 1.471 . S
C2003 C146 1.451 . S
C2008 C714 1.503 . S
C2024 C762 1.498 . S
C2019 C161 1.531 . S
C2035 C160 1.480 . S
C2040 C618 1.531 . S
C2051 C133 1.550 . S
C2056 C666 1.520 . S
C2072 C576 1.545 . S
C2067 C147 1.544 . S
C2088 C858 1.482 . S
C2083 C174 1.420 . S
C2099 C188 1.480 . S
C2104 C912 1.497 . S
C2115 C203 1.489 . S
C2120 C960 1.540 . S
C2136 C1008 1.519 . S
C2131 C202 1.530 . S
C2152 C1056 1.556 . S
C2147 C175 1.508 . S
C2163 C189 1.553 . S
C2168 C1098 1.560 . S
C2179 C216 1.501 . S
C2184 C1104 1.519 . S
C2195 C230 1.504 . S
C2200 C1002 1.554 . S
C2216 C1050 1.557 . S
C2211 C245 1.505 . S
C2232 C906 1.473 . S
C2227 C244 1.460 . S
C2248 C954 1.533 . S
C2243 C217 1.485 . S
C2259 C231 1.483 . S
C2264 C864 1.497 . S
