# Generated by pormake.
# Topology pyr, (3,6)-cn, num edge types: 1
# Building blocks:
#     Node 0, Type 0, BuildingBlock: VETTIZ_charged_linker_0, # of connection points: 3
#     Node 1, Type 0, BuildingBlock: VETTIZ_charged_linker_0, # of connection points: 3
#     Node 2, Type 0, BuildingBlock: VETTIZ_charged_linker_0, # of connection points: 3
#     Node 3, Type 0, BuildingBlock: VETTIZ_charged_linker_0, # of connection points: 3
#     Node 4, Type 0, BuildingBlock: VETTIZ_charged_linker_0, # of connection points: 3
#     Node 5, Type 0, BuildingBlock: VETTIZ_charged_linker_0, # of connection points: 3
#     Node 6, Type 0, BuildingBlock: VETTIZ_charged_linker_0, # of connection points: 3
#     Node 7, Type 0, BuildingBlock: VETTIZ_charged_linker_0, # of connection points: 3
#     Node 8, Type 1, BuildingBlock: BETDEL_clean_sbu_0, # of connection points: 6
#     Node 9, Type 1, BuildingBlock: BETDEL_clean_sbu_0, # of connection points: 6
#     Node 10, Type 1, BuildingBlock: BETDEL_clean_sbu_0, # of connection points: 6
#     Node 11, Type 1, BuildingBlock: BETDEL_clean_sbu_0, # of connection points: 6
#     Edge 12, Type (0, 1), BuildingBlock: XUDNAN_clean_linker_2, # of connection points: 2
#     Edge 13, Type (0, 1), BuildingBlock: XUDNAN_clean_linker_2, # of connection points: 2
#     Edge 14, Type (0, 1), BuildingBlock: XUDNAN_clean_linker_2, # of connection points: 2
#     Edge 15, Type (0, 1), BuildingBlock: XUDNAN_clean_linker_2, # of connection points: 2
#     Edge 16, Type (0, 1), BuildingBlock: XUDNAN_clean_linker_2, # of connection points: 2
#     Edge 17, Type (0, 1), BuildingBlock: XUDNAN_clean_linker_2, # of connection points: 2
#     Edge 18, Type (0, 1), BuildingBlock: XUDNAN_clean_linker_2, # of connection points: 2
#     Edge 19, Type (0, 1), BuildingBlock: XUDNAN_clean_linker_2, # of connection points: 2
#     Edge 20, Type (0, 1), BuildingBlock: XUDNAN_clean_linker_2, # of connection points: 2
#     Edge 21, Type (0, 1), BuildingBlock: XUDNAN_clean_linker_2, # of connection points: 2
#     Edge 22, Type (0, 1), BuildingBlock: XUDNAN_clean_linker_2, # of connection points: 2
#     Edge 23, Type (0, 1), BuildingBlock: XUDNAN_clean_linker_2, # of connection points: 2
#     Edge 24, Type (0, 1), BuildingBlock: XUDNAN_clean_linker_2, # of connection points: 2
#     Edge 25, Type (0, 1), BuildingBlock: XUDNAN_clean_linker_2, # of connection points: 2
#     Edge 26, Type (0, 1), BuildingBlock: XUDNAN_clean_linker_2, # of connection points: 2
#     Edge 27, Type (0, 1), BuildingBlock: XUDNAN_clean_linker_2, # of connection points: 2
#     Edge 28, Type (0, 1), BuildingBlock: XUDNAN_clean_linker_2, # of connection points: 2
#     Edge 29, Type (0, 1), BuildingBlock: XUDNAN_clean_linker_2, # of connection points: 2
#     Edge 30, Type (0, 1), BuildingBlock: XUDNAN_clean_linker_2, # of connection points: 2
#     Edge 31, Type (0, 1), BuildingBlock: XUDNAN_clean_linker_2, # of connection points: 2
#     Edge 32, Type (0, 1), BuildingBlock: XUDNAN_clean_linker_2, # of connection points: 2
#     Edge 33, Type (0, 1), BuildingBlock: XUDNAN_clean_linker_2, # of connection points: 2
#     Edge 34, Type (0, 1), BuildingBlock: XUDNAN_clean_linker_2, # of connection points: 2
#     Edge 35, Type (0, 1), BuildingBlock: XUDNAN_clean_linker_2, # of connection points: 2
# Relax obj value: 0.028
# Max RMSD: 0.091
# Mean RMSD: 0.039
data_MOF--net-pyr--node1-BETDEL_clean_sbu_0--node2-VETTIZ_charged_linker_0--edge1-XUDNAN_clean_linker_2
_symmetry_space_group_name_H-M    P1
_symmetry_Int_Tables_number       1
_symmetry_cell_setting            triclinic
loop_
_symmetry_equiv_pos_as_xyz
'x, y, z'
_cell_length_a     45.003232
_cell_length_b     45.810002
_cell_length_c     42.437466
_cell_angle_alpha  90.498044
_cell_angle_beta   88.001303
_cell_angle_gamma 94.137258
loop_
_atom_site_label
_atom_site_type_symbol
_atom_site_fract_x
_atom_site_fract_y
_atom_site_fract_z
_atom_type_partial_charge
C0 C 0.21277 0.19527 0.31853 0.0
C1 C 0.18456 0.20185 0.33063 0.0
C2 C 0.16902 0.22298 0.31534 0.0
C3 C 0.20757 0.22702 0.27402 0.0
C4 C 0.22371 0.20788 0.29022 0.0
C5 C 0.25149 0.20024 0.27227 0.0
H6 H 0.32779 0.19591 0.13336 0.0
C7 C 0.22291 0.23256 0.24312 0.0
C8 C 0.24873 0.21709 0.24205 0.0
H9 H 0.34976 0.159 0.22224 0.0
H10 H 0.30898 0.18207 0.24844 0.0
H11 H 0.3162 0.25914 0.16201 0.0
H12 H 0.25737 0.18396 0.14067 0.0
H13 H 0.241 0.21503 0.12725 0.0
H14 H 0.27679 0.20636 0.11096 0.0
H15 H 0.30526 0.25077 0.12252 0.0
H16 H 0.28345 0.2728 0.14872 0.0
C17 C 0.27884 0.21201 0.29101 0.0
C18 C 0.24943 0.16666 0.26658 0.0
C19 C 0.17313 0.28901 0.16 0.0
C20 C 0.18026 0.29486 0.12808 0.0
C21 C 0.2066 0.28489 0.11429 0.0
C22 C 0.22556 0.26917 0.13208 0.0
C23 C 0.21789 0.26312 0.16387 0.0
C24 C 0.19217 0.27318 0.17737 0.0
C25 C 0.18716 0.26403 0.21116 0.0
C26 C 0.21451 0.24731 0.21594 0.0
C27 C 0.23223 0.24668 0.1881 0.0
C28 C 0.18722 0.29195 0.23201 0.0
C29 C 0.15785 0.24401 0.2136 0.0
C30 C 0.32366 0.1928 0.15845 0.0
C31 C 0.34148 0.17534 0.17578 0.0
C32 C 0.33613 0.17234 0.20851 0.0
C33 C 0.31242 0.18561 0.2236 0.0
C34 C 0.29388 0.20189 0.20571 0.0
C35 C 0.30021 0.20604 0.17391 0.0
C36 C 0.27892 0.22511 0.15901 0.0
C37 C 0.25825 0.23101 0.18697 0.0
C38 C 0.26682 0.21691 0.21404 0.0
C39 C 0.2967 0.2534 0.14717 0.0
C40 C 0.26267 0.20695 0.13293 0.0
H41 H 0.16721 0.25097 0.27606 0.0
H42 H 0.22513 0.17889 0.32948 0.0
H43 H 0.22648 0.15876 0.26008 0.0
H44 H 0.26403 0.15971 0.24698 0.0
H45 H 0.25488 0.15485 0.28814 0.0
H46 H 0.27368 0.23131 0.30579 0.0
H47 H 0.2862 0.19507 0.307 0.0
H48 H 0.29787 0.22003 0.27541 0.0
H49 H 0.15278 0.29606 0.17109 0.0
H50 H 0.21262 0.28945 0.0898 0.0
H51 H 0.24526 0.2621 0.12029 0.0
H52 H 0.20429 0.30892 0.22303 0.0
H53 H 0.16523 0.30151 0.23212 0.0
H54 H 0.19318 0.28801 0.25656 0.0
H55 H 0.15409 0.2314 0.19138 0.0
H56 H 0.1581 0.22709 0.23192 0.0
H57 H 0.13824 0.25704 0.21811 0.0
H58 H 0.14744 0.22873 0.32452 0.0
C59 C 0.18049 0.23575 0.28718 0.0
C60 C 0.17129 0.83893 0.64389 0.0
C61 C 0.1564 0.86222 0.65762 0.0
C62 C 0.16688 0.87482 0.68593 0.0
C63 C 0.20658 0.84192 0.68605 0.0
C64 C 0.19626 0.82911 0.65855 0.0
C65 C 0.21504 0.80477 0.64738 0.0
H66 H 0.33538 0.72614 0.6688 0.0
C67 C 0.23348 0.82766 0.69475 0.0
C68 C 0.2387 0.80579 0.67227 0.0
H69 H 0.27029 0.71414 0.59639 0.0
H70 H 0.24426 0.75464 0.61771 0.0
H71 H 0.34222 0.79613 0.66532 0.0
H72 H 0.28853 0.73685 0.72583 0.0
H73 H 0.30451 0.76515 0.74944 0.0
H74 H 0.32839 0.74174 0.72761 0.0
H75 H 0.35784 0.77721 0.69693 0.0
H76 H 0.34187 0.81194 0.70313 0.0
C77 C 0.22859 0.81279 0.61431 0.0
C78 C 0.1952 0.77571 0.64838 0.0
C79 C 0.2892 0.86468 0.79073 0.0
C80 C 0.31618 0.85792 0.80356 0.0
C81 C 0.33231 0.83575 0.78935 0.0
C82 C 0.32164 0.8205 0.76274 0.0
C83 C 0.29468 0.82768 0.75 0.0
C84 C 0.27907 0.84955 0.76395 0.0
C85 C 0.25174 0.85537 0.74642 0.0
C86 C 0.25324 0.83314 0.7198 0.0
C87 C 0.27826 0.81683 0.72209 0.0
C88 C 0.25548 0.88733 0.73421 0.0
C89 C 0.22419 0.84858 0.76882 0.0
C90 C 0.31572 0.73241 0.65729 0.0
C91 C 0.30492 0.71682 0.63086 0.0
C92 C 0.27892 0.72551 0.61698 0.0
C93 C 0.26387 0.74911 0.62934 0.0
C94 C 0.27479 0.76423 0.65599 0.0
C95 C 0.30035 0.75578 0.66945 0.0
C96 C 0.30859 0.77401 0.69788 0.0
C97 C 0.28355 0.79449 0.69961 0.0
C98 C 0.26384 0.78886 0.6749 0.0
C99 C 0.3393 0.79063 0.69078 0.0
C100 C 0.30771 0.75354 0.72683 0.0
H101 H 0.19854 0.8756 0.7215 0.0
H102 H 0.16372 0.82862 0.62226 0.0
H103 H 0.17888 0.77553 0.6687 0.0
H104 H 0.20802 0.75641 0.65189 0.0
H105 H 0.1824 0.77257 0.62655 0.0
H106 H 0.23636 0.83639 0.61338 0.0
H107 H 0.21182 0.80862 0.5959 0.0
H108 H 0.24838 0.80087 0.60793 0.0
H109 H 0.27665 0.88204 0.80075 0.0
H110 H 0.35317 0.83019 0.79891 0.0
H111 H 0.3349 0.80385 0.75301 0.0
H112 H 0.27939 0.89454 0.72971 0.0
H113 H 0.24622 0.90281 0.75161 0.0
H114 H 0.24513 0.89002 0.71127 0.0
H115 H 0.22743 0.82946 0.784 0.0
H116 H 0.20364 0.84234 0.75615 0.0
H117 H 0.22024 0.86748 0.7846 0.0
H118 H 0.15636 0.89311 0.69676 0.0
C119 C 0.1917 0.86479 0.70018 0.0
C120 C 0.62768 0.25202 0.8925 0.0
C121 C 0.59942 0.24029 0.8838 0.0
C122 C 0.58542 0.25303 0.85866 0.0
C123 C 0.62678 0.28973 0.85248 0.0
C124 C 0.64074 0.27687 0.87679 0.0
C125 C 0.66948 0.29368 0.88481 0.0
H126 H 0.76952 0.40981 0.86032 0.0
C127 C 0.64535 0.31633 0.84253 0.0
C128 C 0.67031 0.31884 0.86157 0.0
H129 H 0.77259 0.33896 0.92648 0.0
H130 H 0.72558 0.31763 0.90905 0.0
H131 H 0.698 0.4185 0.87165 0.0
H132 H 0.74655 0.36943 0.80251 0.0
H133 H 0.71905 0.38703 0.78303 0.0
H134 H 0.748 0.40871 0.80262 0.0
H135 H 0.72051 0.43594 0.84048 0.0
H136 H 0.68218 0.42314 0.83491 0.0
C137 C 0.66659 0.30445 0.91947 0.0
C138 C 0.69523 0.27354 0.87811 0.0
C139 C 0.61108 0.38043 0.75525 0.0
C140 C 0.62247 0.40734 0.74263 0.0
C141 C 0.64948 0.42042 0.75354 0.0
C142 C 0.66494 0.40697 0.77695 0.0
C143 C 0.65308 0.38026 0.78988 0.0
C144 C 0.62662 0.36737 0.77889 0.0
C145 C 0.61667 0.3397 0.79634 0.0
C146 C 0.64162 0.33789 0.81932 0.0
C147 C 0.66293 0.36172 0.81546 0.0
C148 C 0.58632 0.34418 0.81352 0.0
C149 C 0.61584 0.31403 0.77236 0.0
C150 C 0.75975 0.38992 0.87125 0.0
C151 C 0.77483 0.37597 0.89472 0.0
C152 C 0.76157 0.34994 0.90815 0.0
C153 C 0.73422 0.33756 0.89797 0.0
C154 C 0.71972 0.35122 0.87398 0.0
C155 C 0.73236 0.37704 0.86109 0.0
C156 C 0.71377 0.38796 0.83536 0.0
C157 C 0.68815 0.36437 0.83492 0.0
C158 C 0.69178 0.34299 0.85773 0.0
C159 C 0.70311 0.41806 0.84581 0.0
C160 C 0.7327 0.38859 0.80416 0.0
H161 H 0.58702 0.28632 0.82413 0.0
H162 H 0.63868 0.24295 0.91209 0.0
H163 H 0.6907 0.25932 0.85717 0.0
H164 H 0.71669 0.28582 0.87219 0.0
H165 H 0.69809 0.25901 0.89843 0.0
H166 H 0.64332 0.30973 0.92559 0.0
H167 H 0.67258 0.28746 0.93616 0.0
H168 H 0.68022 0.32497 0.92402 0.0
H169 H 0.59001 0.37028 0.74764 0.0
H170 H 0.65835 0.44135 0.74425 0.0
H171 H 0.68529 0.41813 0.78443 0.0
H172 H 0.58453 0.36752 0.82035 0.0
H173 H 0.5674 0.3377 0.79822 0.0
H174 H 0.58333 0.33213 0.83598 0.0
H175 H 0.63549 0.31625 0.75568 0.0
H176 H 0.61695 0.2925 0.78357 0.0
H177 H 0.59547 0.31359 0.75826 0.0
H178 H 0.5636 0.24431 0.85166 0.0
C179 C 0.599 0.2775 0.84283 0.0
C180 C 0.89491 0.76547 0.35598 0.0
C181 C 0.88807 0.78242 0.38294 0.0
C182 C 0.86336 0.7725 0.40249 0.0
C183 C 0.8532 0.73028 0.36854 0.0
C184 C 0.87755 0.73948 0.34955 0.0
C185 C 0.8831 0.71798 0.32322 0.0
H186 H 0.84151 0.59101 0.24795 0.0
C187 C 0.84005 0.70225 0.35565 0.0
C188 C 0.8576 0.69481 0.32913 0.0
H189 H 0.92038 0.6489 0.22899 0.0
H190 H 0.90455 0.68167 0.27002 0.0
H191 H 0.8484 0.5916 0.32082 0.0
H192 H 0.79445 0.64175 0.26275 0.0
H193 H 0.77248 0.6289 0.29561 0.0
H194 H 0.78762 0.603 0.26836 0.0
H195 H 0.81484 0.57585 0.304 0.0
H196 H 0.81433 0.59478 0.34147 0.0
C197 C 0.9139 0.70578 0.3278 0.0
C198 C 0.88041 0.73368 0.29144 0.0
C199 C 0.74704 0.65226 0.40906 0.0
C200 C 0.73014 0.62564 0.40367 0.0
C201 C 0.73824 0.60841 0.3774 0.0
C202 C 0.76273 0.61725 0.35736 0.0
C203 C 0.7797 0.64355 0.36359 0.0
C204 C 0.77163 0.66059 0.38906 0.0
C205 C 0.79258 0.68747 0.39268 0.0
C206 C 0.81459 0.6838 0.36519 0.0
C207 C 0.80692 0.65809 0.34813 0.0
C208 C 0.80756 0.68587 0.42494 0.0
C209 C 0.77459 0.71468 0.38867 0.0
C210 C 0.85571 0.61054 0.25261 0.0
C211 C 0.88251 0.61695 0.23489 0.0
C212 C 0.89951 0.64326 0.24169 0.0
C213 C 0.89046 0.6622 0.26592 0.0
C214 C 0.86425 0.65477 0.28403 0.0
C215 C 0.84736 0.6293 0.27713 0.0
C216 C 0.821 0.62398 0.29974 0.0
C217 C 0.82479 0.65045 0.32138 0.0
C218 C 0.85004 0.66862 0.31196 0.0
C219 C 0.82449 0.59499 0.3174 0.0
C220 C 0.79224 0.62419 0.28081 0.0
H221 H 0.82748 0.74076 0.41123 0.0
H222 H 0.9134 0.77209 0.34003 0.0
H223 H 0.86083 0.74722 0.2923 0.0
H224 H 0.87681 0.71836 0.27151 0.0
H225 H 0.90059 0.74842 0.28598 0.0
H226 H 0.919 0.70491 0.35323 0.0
H227 H 0.93205 0.71971 0.31584 0.0
H228 H 0.91487 0.68297 0.31937 0.0
H229 H 0.74141 0.66646 0.42856 0.0
H230 H 0.72609 0.58767 0.37265 0.0
H231 H 0.76777 0.60301 0.33798 0.0
H232 H 0.80931 0.66278 0.43219 0.0
H233 H 0.79458 0.69674 0.44382 0.0
H234 H 0.8308 0.69553 0.42432 0.0
H235 H 0.75893 0.71123 0.36904 0.0
H236 H 0.78873 0.7346 0.38241 0.0
H237 H 0.7612 0.71909 0.41045 0.0
H238 H 0.85769 0.78413 0.42391 0.0
C239 C 0.84587 0.74687 0.39531 0.0
C240 C 0.81123 0.72746 0.90404 0.0
C241 C 0.83844 0.71638 0.89419 0.0
C242 C 0.85193 0.72607 0.86519 0.0
C243 C 0.81165 0.75728 0.8571 0.0
C244 C 0.79805 0.74721 0.88498 0.0
C245 C 0.76827 0.7593 0.89128 0.0
H246 H 0.67001 0.85671 0.85467 0.0
C247 C 0.79201 0.77764 0.84295 0.0
C248 C 0.76619 0.7783 0.8625 0.0
H249 H 0.66473 0.79722 0.93325 0.0
H250 H 0.70853 0.77455 0.9127 0.0
H251 H 0.68326 0.81157 0.80282 0.0
H252 H 0.74124 0.87131 0.85455 0.0
H253 H 0.75095 0.87453 0.8141 0.0
H254 H 0.71403 0.88158 0.82751 0.0
H255 H 0.69267 0.848 0.78897 0.0
H256 H 0.71491 0.81801 0.77772 0.0
C257 C 0.74395 0.73351 0.89218 0.0
C258 C 0.7701 0.77761 0.9221 0.0
C259 C 0.82997 0.84361 0.75204 0.0
C260 C 0.81645 0.86565 0.73595 0.0
C261 C 0.78562 0.86832 0.74063 0.0
C262 C 0.76906 0.85133 0.763 0.0
C263 C 0.78342 0.83158 0.78115 0.0
C264 C 0.81291 0.82668 0.77448 0.0
C265 C 0.82331 0.80278 0.79476 0.0
C266 C 0.7958 0.79605 0.81614 0.0
C267 C 0.77286 0.81354 0.80831 0.0
C268 C 0.83023 0.7764 0.77328 0.0
C269 C 0.85025 0.81548 0.81343 0.0
C270 C 0.67831 0.83865 0.86723 0.0
C271 C 0.66452 0.82888 0.89568 0.0
C272 C 0.67529 0.80503 0.91128 0.0
C273 C 0.70076 0.79212 0.89941 0.0
C274 C 0.7154 0.80326 0.87172 0.0
C275 C 0.70354 0.82554 0.85567 0.0
C276 C 0.72163 0.83452 0.82654 0.0
C277 C 0.74688 0.81437 0.8281 0.0
C278 C 0.74336 0.79651 0.85483 0.0
C279 C 0.70222 0.82791 0.79743 0.0
C280 C 0.73256 0.8672 0.83056 0.0
H281 H 0.85005 0.75311 0.82499 0.0
H282 H 0.80017 0.72103 0.92621 0.0
H283 H 0.79168 0.79105 0.92275 0.0
H284 H 0.75279 0.79338 0.92459 0.0
H285 H 0.7685 0.7632 0.94311 0.0
H286 H 0.75058 0.71501 0.87695 0.0
H287 H 0.7399 0.72499 0.91649 0.0
H288 H 0.72262 0.73951 0.88275 0.0
H289 H 0.85348 0.84057 0.74835 0.0
H290 H 0.77442 0.88427 0.72759 0.0
H291 H 0.74593 0.85507 0.76612 0.0
H292 H 0.81816 0.77658 0.75084 0.0
H293 H 0.85442 0.77656 0.76702 0.0
H294 H 0.82272 0.75518 0.78428 0.0
H295 H 0.84511 0.8365 0.825 0.0
H296 H 0.85632 0.80093 0.83234 0.0
H297 H 0.87019 0.8198 0.79753 0.0
H298 H 0.87245 0.71754 0.85637 0.0
C299 C 0.83875 0.74652 0.84671 0.0
C300 C 0.8256 0.18634 0.37716 0.0
C301 C 0.84017 0.16292 0.36323 0.0
C302 C 0.8297 0.1509 0.33464 0.0
C303 C 0.79094 0.18487 0.33439 0.0
C304 C 0.80111 0.19699 0.36229 0.0
C305 C 0.78284 0.22172 0.37349 0.0
H306 H 0.66494 0.30371 0.35136 0.0
C307 C 0.76469 0.20005 0.32539 0.0
C308 C 0.75964 0.22172 0.34817 0.0
H309 H 0.72921 0.31353 0.42473 0.0
H310 H 0.75453 0.27255 0.40334 0.0
H311 H 0.6564 0.23396 0.35337 0.0
H312 H 0.71264 0.29293 0.29497 0.0
H313 H 0.69636 0.26547 0.27052 0.0
H314 H 0.6728 0.28912 0.29242 0.0
H315 H 0.64198 0.25355 0.32153 0.0
H316 H 0.65731 0.2185 0.31539 0.0
C317 C 0.76855 0.21358 0.40621 0.0
C318 C 0.80341 0.25031 0.37331 0.0
C319 C 0.71049 0.16689 0.22691 0.0
C320 C 0.68393 0.17453 0.21382 0.0
C321 C 0.66792 0.19654 0.22848 0.0
C322 C 0.67833 0.21085 0.25576 0.0
C323 C 0.70487 0.20283 0.26876 0.0
C324 C 0.72031 0.18102 0.25443 0.0
C325 C 0.747 0.17404 0.27249 0.0
C326 C 0.74539 0.19561 0.29976 0.0
C327 C 0.72087 0.21259 0.29733 0.0
C328 C 0.74224 0.14178 0.28365 0.0
C329 C 0.77517 0.18078 0.25099 0.0
C330 C 0.68426 0.29685 0.36306 0.0
C331 C 0.69502 0.31192 0.38982 0.0
C332 C 0.7206 0.30251 0.40393 0.0
C333 C 0.73524 0.27865 0.39151 0.0
C334 C 0.72438 0.26405 0.36451 0.0
C335 C 0.69928 0.27328 0.35078 0.0
C336 C 0.69118 0.25573 0.32184 0.0
C337 C 0.71571 0.23466 0.32019 0.0
C338 C 0.73506 0.2394 0.34538 0.0
C339 C 0.66004 0.23967 0.32802 0.0
C340 C 0.69309 0.27674 0.29331 0.0
H341 H 0.7986 0.1514 0.2986 0.0
H342 H 0.83316 0.19624 0.399 0.0
H343 H 0.82006 0.25036 0.35329 0.0
H344 H 0.7912 0.27002 0.36985 0.0
H345 H 0.81586 0.2528 0.39543 0.0
H346 H 0.75984 0.19022 0.40652 0.0
H347 H 0.78516 0.21672 0.42493 0.0
H348 H 0.74926 0.22622 0.41258 0.0
H349 H 0.72288 0.14958 0.21652 0.0
H350 H 0.64734 0.2027 0.21875 0.0
H351 H 0.66518 0.22744 0.26579 0.0
H352 H 0.71812 0.13476 0.28669 0.0
H353 H 0.75214 0.12661 0.26634 0.0
H354 H 0.75138 0.13838 0.30708 0.0
H355 H 0.77302 0.20083 0.23686 0.0
H356 H 0.79562 0.18546 0.26432 0.0
H357 H 0.77862 0.16248 0.23423 0.0
H358 H 0.83994 0.13252 0.32364 0.0
C359 C 0.80537 0.16173 0.3202 0.0
C360 C 0.40994 0.64962 0.24827 0.0
C361 C 0.39975 0.62449 0.26544 0.0
C362 C 0.3734 0.6086 0.25626 0.0
C363 C 0.36672 0.64425 0.21537 0.0
C364 C 0.39313 0.65914 0.22367 0.0
C365 C 0.40031 0.68628 0.20435 0.0
H366 H 0.35774 0.78349 0.0991 0.0
C367 C 0.35367 0.66124 0.19031 0.0
C368 C 0.37324 0.68595 0.18395 0.0
H369 H 0.44286 0.78216 0.14373 0.0
H370 H 0.42575 0.73802 0.17061 0.0
H371 H 0.31458 0.75999 0.15742 0.0
H372 H 0.35703 0.71551 0.08012 0.0
H373 H 0.32101 0.69868 0.08578 0.0
H374 H 0.3256 0.73672 0.07477 0.0
H375 H 0.30353 0.76294 0.11738 0.0
H376 H 0.28847 0.73345 0.14237 0.0
C377 C 0.40207 0.71297 0.22705 0.0
C378 C 0.42937 0.68231 0.18452 0.0
C379 C 0.25608 0.62417 0.1418 0.0
C380 C 0.23849 0.63536 0.11856 0.0
C381 C 0.24611 0.66375 0.10696 0.0
C382 C 0.2717 0.68007 0.11711 0.0
C383 C 0.28989 0.66795 0.13917 0.0
C384 C 0.28149 0.64075 0.15176 0.0
C385 C 0.30294 0.63171 0.17572 0.0
C386 C 0.32646 0.65721 0.17418 0.0
C387 C 0.31875 0.67837 0.15265 0.0
C388 C 0.28626 0.62976 0.20828 0.0
C389 C 0.3157 0.60276 0.16445 0.0
C390 C 0.37299 0.77377 0.11438 0.0
C391 C 0.40174 0.78719 0.11939 0.0
C392 C 0.42033 0.7733 0.13989 0.0
C393 C 0.41049 0.74725 0.15532 0.0
C394 C 0.38183 0.73434 0.15004 0.0
C395 C 0.36381 0.7473 0.12941 0.0
C396 C 0.33503 0.72909 0.12464 0.0
C397 C 0.33855 0.70344 0.14639 0.0
C398 C 0.36583 0.70691 0.16154 0.0
C399 C 0.30886 0.74721 0.13578 0.0
C400 C 0.33429 0.71954 0.08953 0.0
H401 H 0.33674 0.60558 0.22586 0.0
H402 H 0.43037 0.66205 0.25427 0.0
H403 H 0.43278 0.65877 0.18017 0.0
H404 H 0.42887 0.69184 0.16068 0.0
H405 H 0.44924 0.69202 0.19666 0.0
H406 H 0.38346 0.71109 0.24504 0.0
H407 H 0.42333 0.7144 0.2397 0.0
H408 H 0.39998 0.73396 0.2151 0.0
H409 H 0.2505 0.60263 0.15158 0.0
H410 H 0.23296 0.67283 0.08905 0.0
H411 H 0.27667 0.70129 0.10691 0.0
H412 H 0.26924 0.64619 0.21041 0.0
H413 H 0.27456 0.60779 0.21188 0.0
H414 H 0.30109 0.63481 0.22809 0.0
H415 H 0.32081 0.60332 0.13861 0.0
H416 H 0.33691 0.59874 0.17536 0.0
H417 H 0.29946 0.58377 0.16928 0.0
H418 H 0.36496 0.58925 0.2691 0.0
C419 C 0.35685 0.61834 0.23136 0.0
C420 C 0.10935 0.26412 0.65534 0.0
C421 C 0.11337 0.24933 0.62634 0.0
C422 C 0.13501 0.26175 0.60438 0.0
C423 C 0.14748 0.30222 0.64017 0.0
C424 C 0.12596 0.29053 0.66135 0.0
C425 C 0.12217 0.30986 0.68983 0.0
H426 H 0.15986 0.43466 0.7703 0.0
C427 C 0.16047 0.33014 0.65368 0.0
C428 C 0.14523 0.33494 0.68248 0.0
H429 H 0.09359 0.36511 0.79555 0.0
H430 H 0.10545 0.33892 0.74787 0.0
H431 H 0.14727 0.43565 0.69373 0.0
H432 H 0.20929 0.39126 0.74806 0.0
H433 H 0.228 0.40318 0.71302 0.0
H434 H 0.21426 0.4298 0.74041 0.0
H435 H 0.17784 0.45463 0.7132 0.0
H436 H 0.18258 0.43917 0.67431 0.0
C437 C 0.08993 0.31989 0.69057 0.0
C438 C 0.13007 0.2926 0.71929 0.0
C439 C 0.24999 0.38522 0.59899 0.0
C440 C 0.26704 0.41145 0.60583 0.0
C441 C 0.25872 0.42771 0.63275 0.0
C442 C 0.2343 0.41801 0.65245 0.0
C443 C 0.21776 0.39169 0.64534 0.0
C444 C 0.22557 0.3759 0.61881 0.0
C445 C 0.20496 0.34886 0.61438 0.0
C446 C 0.1842 0.35041 0.64327 0.0
C447 C 0.19173 0.37563 0.66134 0.0
C448 C 0.18829 0.35203 0.58337 0.0
C449 C 0.22361 0.32181 0.61509 0.0
C450 C 0.14773 0.41398 0.76515 0.0
C451 C 0.12561 0.40194 0.78651 0.0
C452 C 0.11069 0.37473 0.77942 0.0
C453 C 0.11762 0.35957 0.75168 0.0
C454 C 0.13996 0.37154 0.73067 0.0
C455 C 0.15475 0.39824 0.73755 0.0
C456 C 0.17891 0.40659 0.71303 0.0
C457 C 0.17553 0.38093 0.69003 0.0
C458 C 0.15258 0.36056 0.70054 0.0
C459 C 0.17157 0.43564 0.69775 0.0
C460 C 0.20929 0.40805 0.72927 0.0
H461 H 0.1682 0.29594 0.59355 0.0
H462 H 0.09355 0.25557 0.67333 0.0
H463 H 0.14893 0.27877 0.71375 0.0
H464 H 0.13775 0.30694 0.73888 0.0
H465 H 0.11081 0.27791 0.72782 0.0
H466 H 0.08163 0.32169 0.66631 0.0
H467 H 0.07427 0.30411 0.70365 0.0
H468 H 0.08829 0.34197 0.70087 0.0
H469 H 0.25565 0.37189 0.57878 0.0
H470 H 0.27086 0.44824 0.63845 0.0
H471 H 0.22917 0.43146 0.67244 0.0
H472 H 0.18576 0.37543 0.57794 0.0
H473 H 0.2005 0.34248 0.56303 0.0
H474 H 0.16522 0.34191 0.58481 0.0
H475 H 0.23902 0.32354 0.63507 0.0
H476 H 0.20988 0.3011 0.61854 0.0
H477 H 0.23729 0.32002 0.59294 0.0
H478 H 0.13848 0.25177 0.58148 0.0
C479 C 0.15215 0.28781 0.61123 0.0
Dy480 Dy 0.02506 0.02095 0.48654 0.0
C481 C 0.93911 0.98148 0.58033 0.0
C482 C 0.06738 0.04948 0.44851 0.0
Dy483 Dy 0.9761 1.00664 0.53449 0.0
O484 O 0.07252 0.03432 0.47307 0.0
O485 O 0.03893 0.04809 0.44375 0.0
O486 O 0.04634 0.98012 0.49818 0.0
O487 O 0.02388 1.00275 0.53422 0.0
C488 C 0.03723 0.98 0.52755 0.0
C489 C 0.96269 0.04715 0.49313 0.0
O490 O 0.00274 0.04085 0.56179 0.0
O491 O 0.02741 0.06082 0.51766 0.0
O492 O 0.93777 1.00769 0.56951 0.0
O493 O 0.96057 0.96869 0.56592 0.0
O494 O 0.95242 0.04595 0.52204 0.0
O495 O 0.977 0.02496 0.48685 0.0
O496 O 1.00248 0.98449 0.45915 0.0
O497 O 0.96862 0.96941 0.49957 0.0
C498 C 0.01955 0.06222 0.54787 0.0
C499 C 0.98121 0.96581 0.4711 0.0
Dy500 Dy 0.52877 0.02523 0.02636 0.0
C501 C 0.42839 0.98171 0.95431 0.0
C502 C 0.57296 0.05449 0.05893 0.0
Dy503 Dy 0.4726 1.00934 0.98819 0.0
O504 O 0.5483 0.04251 0.07118 0.0
O505 O 0.574 0.04999 0.0286 0.0
O506 O 0.52594 0.98058 0.04915 0.0
O507 O 0.48723 0.99844 0.03436 0.0
C508 C 0.49759 0.97569 0.04461 0.0
C509 C 0.50135 0.06038 0.97215 0.0
O510 O 0.45222 0.03442 0.02795 0.0
O511 O 0.49725 0.05835 0.04147 0.0
O512 O 0.42573 0.98878 0.98398 0.0
O513 O 0.45479 0.99026 0.94327 0.0
O514 O 0.47294 0.05447 0.96933 0.0
O515 O 0.51374 0.03768 0.98 0.0
O516 O 0.5489 0.99622 0.9906 0.0
O517 O 0.50329 0.97408 0.97611 0.0
C518 C 0.46784 0.055 0.04382 0.0
C519 C 0.53276 0.97497 0.97647 0.0
Dy520 Dy 0.51802 0.49361 0.49025 0.0
C521 C 0.44062 0.56991 0.55564 0.0
C522 C 0.56201 0.4617 0.46427 0.0
Dy523 Dy 0.48534 0.53897 0.52987 0.0
O524 O 0.56594 0.48794 0.47593 0.0
O525 O 0.53389 0.45296 0.4664 0.0
O526 O 0.47406 0.47034 0.47894 0.0
O527 O 0.4791 0.49191 0.52262 0.0
C528 C 0.46067 0.47846 0.50491 0.0
C529 C 0.54264 0.55433 0.5146 0.0
O530 O 0.50003 0.51266 0.56949 0.0
O531 O 0.5334 0.48615 0.53985 0.0
O532 O 0.43703 0.54434 0.54231 0.0
O533 O 0.4688 0.57854 0.55525 0.0
O534 O 0.52939 0.56277 0.54054 0.0
O535 O 0.52402 0.54061 0.4974 0.0
O536 O 0.50351 0.52078 0.4503 0.0
O537 O 0.47153 0.5483 0.48077 0.0
C538 C 0.52189 0.49475 0.56745 0.0
C539 C 0.48284 0.54006 0.45306 0.0
Dy540 Dy 0.01429 0.4749 0.02658 0.0
C541 C 0.95993 0.57729 0.9947 0.0
C542 C 0.04319 0.42749 0.04299 0.0
Dy543 Dy 0.99506 0.53202 1.0017 0.0
O544 O 0.04132 0.45099 0.05997 0.0
O545 O 0.02893 0.42965 0.0172 0.0
O546 O 0.97651 0.47305 0.06201 0.0
O547 O 0.99691 0.51405 0.04913 0.0
C548 C 0.97567 0.50118 0.06511 0.0
C549 C 0.03237 0.50567 0.96199 0.0
O550 O 0.03546 0.54873 0.02845 0.0
O551 O 0.05614 0.50402 0.02603 0.0
O552 O 0.98581 0.57528 0.98054 0.0
O553 O 0.95367 0.55491 0.01284 0.0
O554 O 0.02948 0.53373 0.96135 0.0
O555 O 0.01248 0.49355 0.98008 0.0
O556 O 0.97706 0.45594 0.9984 0.0
O557 O 0.95708 0.4997 0.98669 0.0
C558 C 0.05855 0.53255 0.03139 0.0
C559 C 0.95591 0.47057 0.98637 0.0
H560 H 0.12711 0.17816 0.33335 0.0
H561 H 0.20937 0.18282 0.38423 0.0
H562 H 0.18794 0.14399 0.42003 0.0
H563 H 0.07635 0.16346 0.40357 0.0
H564 H 0.0514 0.13936 0.3813 0.0
H565 H 0.07227 0.16962 0.36209 0.0
H566 H 0.09348 0.13351 0.32124 0.0
H567 H 0.07339 0.10305 0.3408 0.0
H568 H 0.11325 0.10337 0.33474 0.0
H569 H 0.16002 0.10117 0.44593 0.0
H570 H 0.12457 0.06132 0.46554 0.0
H571 H 0.05983 0.08568 0.39887 0.0
C572 C 0.14025 0.17184 0.35272 0.0
C573 C 0.16992 0.18351 0.35604 0.0
C574 C 0.18666 0.17401 0.38118 0.0
C575 C 0.17469 0.15201 0.40159 0.0
C576 C 0.14588 0.14005 0.39672 0.0
C577 C 0.12861 0.15005 0.37338 0.0
C578 C 0.09868 0.13275 0.37242 0.0
C579 C 0.07317 0.15247 0.38033 0.0
C580 C 0.09448 0.11726 0.3404 0.0
C581 C 0.10212 0.111 0.3984 0.0
C582 C 0.12954 0.11556 0.41203 0.0
C583 C 0.13833 0.09761 0.43575 0.0
C584 C 0.11816 0.07489 0.4465 0.0
C585 C 0.08958 0.07051 0.43361 0.0
C586 C 0.08161 0.08856 0.40902 0.0
H587 H 0.37236 0.88365 0.80958 0.0
H588 H 0.28626 0.87104 0.85854 0.0
H589 H 0.30535 0.9015 0.90297 0.0
H590 H 0.4178 0.88231 0.87822 0.0
H591 H 0.44467 0.91037 0.86336 0.0
H592 H 0.42436 0.88663 0.83631 0.0
H593 H 0.40605 0.93194 0.80865 0.0
H594 H 0.42612 0.9558 0.83575 0.0
H595 H 0.38667 0.9584 0.8316 0.0
H596 H 0.33433 0.93342 0.94217 0.0
H597 H 0.37058 0.965 0.97224 0.0
H598 H 0.43656 0.95788 0.89613 0.0
C599 C 0.35769 0.88697 0.82987 0.0
C600 C 0.32795 0.87487 0.83085 0.0
C601 C 0.30915 0.88019 0.85743 0.0
C602 C 0.3198 0.89739 0.88274 0.0
C603 C 0.3492 0.90925 0.88091 0.0
C604 C 0.36784 0.90431 0.8551 0.0
C605 C 0.39817 0.92029 0.85839 0.0
C606 C 0.42269 0.8986 0.85912 0.0
C607 C 0.40461 0.94295 0.83203 0.0
C608 C 0.39375 0.93496 0.89009 0.0
C609 C 0.36545 0.92824 0.90286 0.0
C610 C 0.35651 0.93893 0.93233 0.0
C611 C 0.37715 0.95685 0.94919 0.0
C612 C 0.40615 0.964 0.93632 0.0
C613 C 0.4144 0.95299 0.90638 0.0
H614 H 0.61781 0.3986 0.6787 0.0
H615 H 0.58798 0.45181 0.75686 0.0
H616 H 0.55827 0.47914 0.72067 0.0
H617 H 0.62571 0.45697 0.62166 0.0
H618 H 0.61288 0.43439 0.58917 0.0
H619 H 0.63102 0.41834 0.62127 0.0
H620 H 0.58538 0.38116 0.63002 0.0
H621 H 0.56711 0.39713 0.59794 0.0
H622 H 0.54886 0.39437 0.6364 0.0
H623 H 0.53172 0.50026 0.67657 0.0
H624 H 0.51144 0.51585 0.62686 0.0
H625 H 0.55962 0.45039 0.57585 0.0
C626 C 0.60488 0.41596 0.68801 0.0
C627 C 0.6049 0.42319 0.72046 0.0
C628 C 0.58805 0.44608 0.73203 0.0
C629 C 0.57115 0.46163 0.71169 0.0
C630 C 0.57154 0.45411 0.67978 0.0
C631 C 0.58807 0.43196 0.66788 0.0
C632 C 0.58511 0.42894 0.63242 0.0
C633 C 0.61549 0.43503 0.61511 0.0
C634 C 0.57075 0.3986 0.62369 0.0
C635 C 0.56437 0.45284 0.62629 0.0
C636 C 0.55669 0.46688 0.65404 0.0
C637 C 0.53761 0.48948 0.65467 0.0
C638 C 0.52612 0.49812 0.62622 0.0
C639 C 0.53387 0.48441 0.59729 0.0
C640 C 0.5533 0.46141 0.59747 0.0
H641 H 0.91633 0.62765 0.17906 0.0
H642 H 0.8744 0.55693 0.23649 0.0
H643 H 0.8911 0.52122 0.19773 0.0
H644 H 0.90273 0.59449 0.10237 0.0
H645 H 0.93866 0.60683 0.0854 0.0
H646 H 0.92174 0.62784 0.11638 0.0
H647 H 0.96865 0.62512 0.14961 0.0
H648 H 0.98577 0.60426 0.11866 0.0
H649 H 0.98185 0.58989 0.15812 0.0
H650 H 0.91189 0.49267 0.15366 0.0
H651 H 0.93935 0.47241 0.10846 0.0
H652 H 0.97217 0.56013 0.08034 0.0
C653 C 0.91067 0.60469 0.18365 0.0
C654 C 0.89325 0.59548 0.21086 0.0
C655 C 0.8866 0.56501 0.21555 0.0
C656 C 0.89627 0.54436 0.19371 0.0
C657 C 0.91308 0.5542 0.16728 0.0
C658 C 0.92059 0.58356 0.1622 0.0
C659 C 0.9403 0.58786 0.13244 0.0
C660 C 0.92494 0.6053 0.10769 0.0
C661 C 0.97096 0.60266 0.14018 0.0
C662 C 0.94277 0.55628 0.12186 0.0
C663 C 0.92648 0.53738 0.14222 0.0
C664 C 0.92484 0.50722 0.13762 0.0
C665 C 0.94054 0.49592 0.11179 0.0
C666 C 0.95808 0.51461 0.09093 0.0
C667 C 0.95902 0.54529 0.09594 0.0
H668 H 0.33592 0.14077 0.12343 0.0
H669 H 0.39943 0.17395 0.192 0.0
H670 H 0.43858 0.14673 0.16507 0.0
H671 H 0.36198 0.06868 0.11723 0.0
H672 H 0.35599 0.06508 0.07556 0.0
H673 H 0.33315 0.08778 0.09962 0.0
H674 H 0.34783 0.13191 0.06308 0.0
H675 H 0.37067 0.10933 0.03885 0.0
H676 H 0.3867 0.1429 0.05562 0.0
H677 H 0.4704 0.11712 0.13084 0.0
H678 H 0.49359 0.08471 0.09243 0.0
H679 H 0.40907 0.06885 0.04646 0.0
C680 C 0.35818 0.14245 0.13253 0.0
C681 C 0.36493 0.15949 0.15957 0.0
C682 C 0.394 0.16089 0.17131 0.0
C683 C 0.41629 0.14563 0.15615 0.0
C684 C 0.40891 0.12898 0.12955 0.0
C685 C 0.38058 0.12711 0.1179 0.0
C686 C 0.37843 0.10701 0.0894 0.0
C687 C 0.35606 0.08057 0.09585 0.0
C688 C 0.37044 0.1238 0.06 0.0
C689 C 0.41009 0.09792 0.0868 0.0
C690 C 0.42724 0.11107 0.11012 0.0
C691 C 0.45725 0.10664 0.1125 0.0
C692 C 0.47019 0.08824 0.09043 0.0
C693 C 0.45309 0.07429 0.0664 0.0
C694 C 0.42259 0.0791 0.06467 0.0
H695 H 0.15053 0.87295 0.59458 0.0
H696 H 0.10519 0.8806 0.6859 0.0
H697 H 0.0672 0.90861 0.66176 0.0
H698 H 0.14146 0.94256 0.56861 0.0
H699 H 0.13487 0.9328 0.52809 0.0
H700 H 0.15649 0.91032 0.5516 0.0
H701 H 0.12081 0.86495 0.5396 0.0
H702 H 0.09921 0.88725 0.51569 0.0
H703 H 0.08135 0.86634 0.54775 0.0
H704 H 0.03826 0.94158 0.62915 0.0
H705 H 0.01842 0.97361 0.58937 0.0
H706 H 0.08063 0.94194 0.51893 0.0
C707 C 0.13209 0.87967 0.60933 0.0
C708 C 0.131 0.87471 0.64219 0.0
C709 C 0.10678 0.88449 0.66075 0.0
C710 C 0.08496 0.90027 0.64722 0.0
C711 C 0.08732 0.90573 0.61498 0.0
C712 C 0.10997 0.89528 0.59616 0.0
C713 C 0.10837 0.90554 0.56247 0.0
C714 C 0.13699 0.9239 0.55211 0.0
C715 C 0.10205 0.87946 0.54005 0.0
C716 C 0.08194 0.92418 0.56555 0.0
C717 C 0.07001 0.92395 0.596 0.0
C718 C 0.04698 0.94142 0.60506 0.0
C719 C 0.0359 0.95959 0.5824 0.0
C720 C 0.04775 0.95994 0.55108 0.0
C721 C 0.0708 0.94174 0.54259 0.0
H722 H 0.79469 0.43208 0.91307 0.0
H723 H 0.82321 0.34438 0.89813 0.0
H724 H 0.87267 0.36015 0.91776 0.0
H725 H 0.86731 0.47125 0.89144 0.0
H726 H 0.86369 0.49897 0.92145 0.0
H727 H 0.83087 0.48163 0.90411 0.0
H728 H 0.80974 0.46677 0.95966 0.0
H729 H 0.84253 0.48391 0.97714 0.0
H730 H 0.8316 0.44595 0.98489 0.0
H731 H 0.91719 0.38346 0.9417 0.0
H732 H 0.95622 0.41375 0.96779 0.0
H733 H 0.90094 0.48777 0.96793 0.0
C734 C 0.81159 0.41644 0.91348 0.0
C735 C 0.80511 0.38694 0.9042 0.0
C736 C 0.82761 0.36695 0.90541 0.0
C737 C 0.85581 0.37574 0.9164 0.0
C738 C 0.86132 0.40467 0.92604 0.0
C739 C 0.84006 0.42487 0.9246 0.0
C740 C 0.85185 0.45431 0.93778 0.0
C741 C 0.85353 0.47794 0.91216 0.0
C742 C 0.83279 0.46325 0.96658 0.0
C743 C 0.88282 0.44723 0.94723 0.0
C744 C 0.88762 0.41844 0.94003 0.0
C745 C 0.91384 0.40611 0.94726 0.0
C746 C 0.93586 0.42358 0.9623 0.0
C747 C 0.93177 0.45324 0.97005 0.0
C748 C 0.90486 0.46527 0.96216 0.0
H749 H 0.67676 0.59452 0.39001 0.0
H750 H 0.72599 0.63349 0.468 0.0
H751 H 0.6841 0.6186 0.50449 0.0
H752 H 0.6048 0.61326 0.41573 0.0
H753 H 0.5858 0.57923 0.40364 0.0
H754 H 0.61982 0.59256 0.38334 0.0
H755 H 0.64316 0.54379 0.39457 0.0
H756 H 0.60921 0.53029 0.41499 0.0
H757 H 0.64413 0.53115 0.43461 0.0
H758 H 0.63613 0.6012 0.53261 0.0
H759 H 0.58575 0.58145 0.55023 0.0
H760 H 0.56842 0.55134 0.45499 0.0
C761 C 0.67902 0.59963 0.41479 0.0
C762 C 0.70483 0.61562 0.42583 0.0
C763 C 0.70637 0.62201 0.45856 0.0
C764 C 0.68274 0.61335 0.47965 0.0
C765 C 0.65768 0.59789 0.46793 0.0
C766 C 0.65572 0.59084 0.43632 0.0
C767 C 0.62613 0.57409 0.42991 0.0
C768 C 0.60808 0.59079 0.40679 0.0
C769 C 0.63096 0.54299 0.4178 0.0
C770 C 0.61159 0.57341 0.46273 0.0
C771 C 0.63024 0.58719 0.48432 0.0
C772 C 0.62143 0.59016 0.51595 0.0
C773 C 0.59278 0.57892 0.52575 0.0
C774 C 0.57326 0.56478 0.50405 0.0
C775 C 0.58297 0.56181 0.47218 0.0
H776 H 0.15428 0.3447 0.14531 0.0
H777 H 0.16073 0.28173 0.06887 0.0
H778 H 0.12517 0.3083 0.03871 0.0
H779 H 0.07631 0.35372 0.14055 0.0
H780 H 0.07997 0.39234 0.14937 0.0
H781 H 0.10614 0.36852 0.16454 0.0
H782 H 0.14999 0.40062 0.13858 0.0
H783 H 0.12398 0.42464 0.12351 0.0
H784 H 0.14997 0.40795 0.09691 0.0
H785 H 0.08816 0.34145 0.01763 0.0
H786 H 0.05462 0.38026 1.006 0.0
H787 H 0.07295 0.42085 0.09667 0.0
C788 C 0.1481 0.33644 0.12227 0.0
C789 C 0.16006 0.31119 0.10937 0.0
C790 C 0.1519 0.30123 0.07898 0.0
C791 C 0.13163 0.31603 0.06182 0.0
C792 C 0.11996 0.34071 0.07545 0.0
C793 C 0.12807 0.35093 0.10489 0.0
C794 C 0.11271 0.37811 0.11416 0.0
C795 C 0.09259 0.37284 0.14391 0.0
C796 C 0.13553 0.40438 0.11853 0.0
C797 C 0.09457 0.38159 0.08536 0.0
C798 C 0.09892 0.35978 0.06331 0.0
C799 C 0.08456 0.35863 0.03471 0.0
C800 C 0.06554 0.38063 0.02837 0.0
C801 C 0.06128 0.40331 0.05054 0.0
C802 C 0.07579 0.40363 0.0794 0.0
H803 H 0.61584 0.18451 0.89589 0.0
H804 H 0.54586 0.24341 0.91386 0.0
H805 H 0.51656 0.20485 0.94402 0.0
H806 H 0.56765 0.12176 0.88224 0.0
H807 H 0.59004 0.09615 0.90074 0.0
H808 H 0.60746 0.12927 0.88382 0.0
H809 H 0.63092 0.1429 0.93733 0.0
H810 H 0.61342 0.10981 0.95447 0.0
H811 H 0.60719 0.14479 0.97231 0.0
H812 H 0.49324 0.16023 0.9683 0.0
H813 H 0.47497 0.11019 0.98299 0.0
H814 H 0.55872 0.07779 0.9495 0.0
C815 C 0.59456 0.18927 0.9067 0.0
C816 C 0.58303 0.21691 0.90275 0.0
C817 C 0.55493 0.22235 0.91662 0.0
C818 C 0.53827 0.20067 0.93395 0.0
C819 C 0.54995 0.17355 0.93716 0.0
C820 C 0.57734 0.16758 0.92387 0.0
C821 C 0.58324 0.13565 0.92879 0.0
C822 C 0.58733 0.11977 0.89701 0.0
C823 C 0.61031 0.13315 0.94946 0.0
C824 C 0.55453 0.12453 0.9461 0.0
C825 C 0.53601 0.14708 0.95106 0.0
C826 C 0.50761 0.14244 0.96485 0.0
C827 C 0.49743 0.11391 0.97305 0.0
C828 C 0.51547 0.09022 0.96747 0.0
C829 C 0.54472 0.09563 0.95452 0.0
H830 H 0.87119 0.83174 0.4159 0.0
H831 H 0.94831 0.7955 0.3698 0.0
H832 H 0.97909 0.83984 0.38389 0.0
H833 H 0.88987 0.90779 0.39813 0.0
H834 H 0.87735 0.92053 0.43629 0.0
H835 H 0.8604 0.88721 0.4199 0.0
H836 H 0.87286 0.85893 0.4698 0.0
H837 H 0.88971 0.89216 0.4864 0.0
H838 H 0.91084 0.8603 0.48225 0.0
H839 H 1.002 0.88848 0.40331 0.0
H840 H 0.01599 0.93491 0.43105 0.0
H841 H 0.9257 0.93656 0.46985 0.0
C842 C 0.89456 0.83272 0.40886 0.0
C843 C 0.90688 0.80973 0.39123 0.0
C844 C 0.9377 0.81279 0.38238 0.0
C845 C 0.9556 0.83793 0.39055 0.0
C846 C 0.94268 0.85986 0.40805 0.0
C847 C 0.91295 0.85732 0.41747 0.0
C848 C 0.90494 0.88314 0.43793 0.0
C849 C 0.88177 0.9007 0.42211 0.0
C850 C 0.89395 0.87302 0.47106 0.0
C851 C 0.93493 0.90046 0.43883 0.0
C852 C 0.95626 0.88696 0.42089 0.0
C853 C 0.98549 0.89915 0.41753 0.0
C854 C 0.99321 0.92559 0.43325 0.0
C855 C 0.97197 0.93926 0.45265 0.0
C856 C 0.94244 0.92649 0.45533 0.0
H857 H 0.3653 0.71157 0.62276 0.0
H858 H 0.27941 0.664 0.61095 0.0
H859 H 0.30482 0.62104 0.59138 0.0
H860 H 0.40173 0.68298 0.55365 0.0
H861 H 0.43708 0.68111 0.57195 0.0
H862 H 0.41209 0.70806 0.58504 0.0
H863 H 0.41329 0.68881 0.64218 0.0
H864 H 0.43821 0.66172 0.62925 0.0
H865 H 0.40362 0.6506 0.64989 0.0
H866 H 0.33959 0.58302 0.57355 0.0
H867 H 0.38123 0.55346 0.55672 0.0
H868 H 0.44451 0.62557 0.5804 0.0
C869 C 0.35182 0.69206 0.61624 0.0
C870 C 0.32031 0.6912 0.61838 0.0
C871 C 0.30353 0.66535 0.60916 0.0
C872 C 0.31777 0.64075 0.59823 0.0
C873 C 0.34883 0.64231 0.59659 0.0
C874 C 0.36566 0.66734 0.6052 0.0
C875 C 0.39873 0.66344 0.60077 0.0
C876 C 0.41325 0.68519 0.5764 0.0
C877 C 0.41437 0.66631 0.63241 0.0
C878 C 0.39787 0.63229 0.58834 0.0
C879 C 0.36886 0.62047 0.5862 0.0
C880 C 0.36239 0.59206 0.57513 0.0
C881 C 0.38616 0.57542 0.56568 0.0
C882 C 0.41602 0.58723 0.56734 0.0
C883 C 0.42189 0.61596 0.57902 0.0
H884 H 0.86152 0.85624 0.69185 0.0
H885 H 0.81176 0.92441 0.73585 0.0
H886 H 0.83863 0.96113 0.70152 0.0
H887 H 0.93226 0.90118 0.68258 0.0
H888 H 0.94184 0.88505 0.64503 0.0
H889 H 0.91944 0.86388 0.67387 0.0
H890 H 0.87852 0.85356 0.63294 0.0
H891 H 0.9007 0.87482 0.60405 0.0
H892 H 0.86315 0.88383 0.61391 0.0
H893 H 0.86794 0.98994 0.6611 0.0
H894 H 0.9008 1.0102 0.61774 0.0
H895 H 0.93365 0.9245 0.60054 0.0
C896 C 0.8566 0.87895 0.69446 0.0
C897 C 0.83422 0.88741 0.71616 0.0
C898 C 0.82831 0.91732 0.71885 0.0
C899 C 0.84359 0.9384 0.69965 0.0
C900 C 0.86499 0.92931 0.67807 0.0
C901 C 0.8718 0.90043 0.67546 0.0
C902 C 0.89556 0.89672 0.6498 0.0
C903 C 0.92396 0.88608 0.66366 0.0
C904 C 0.88377 0.87601 0.62363 0.0
C905 C 0.90059 0.92796 0.6382 0.0
C906 C 0.88267 0.94631 0.65492 0.0
C907 C 0.88234 0.97592 0.64799 0.0
C908 C 0.90097 0.98718 0.62329 0.0
C909 C 0.91971 0.96889 0.60602 0.0
C910 C 0.91962 0.93894 0.61361 0.0
H911 H 0.62831 0.1479 0.20722 0.0
H912 H 0.71372 0.16457 0.15788 0.0
H913 H 0.69469 0.13617 0.11188 0.0
H914 H 0.61585 0.0741 0.18113 0.0
H915 H 0.57618 0.07581 0.17796 0.0
H916 H 0.59604 0.09885 0.20597 0.0
H917 H 0.57585 0.14478 0.18138 0.0
H918 H 0.5558 0.12186 0.15339 0.0
H919 H 0.58165 0.15129 0.1397 0.0
H920 H 0.66556 0.10601 0.07098 0.0
H921 H 0.62971 0.07467 0.04006 0.0
H922 H 0.56501 0.07589 0.11812 0.0
C923 C 0.64283 0.14589 0.18653 0.0
C924 C 0.67233 0.15861 0.18581 0.0
C925 C 0.69099 0.15498 0.15871 0.0
C926 C 0.68037 0.13898 0.13253 0.0
C927 C 0.65116 0.1265 0.13406 0.0
C928 C 0.63275 0.12965 0.16048 0.0
C929 C 0.60278 0.11305 0.15687 0.0
C930 C 0.59742 0.08903 0.18197 0.0
C931 C 0.57754 0.134 0.15789 0.0
C932 C 0.60713 0.10006 0.1243 0.0
C933 C 0.63504 0.10825 0.1113 0.0
C934 C 0.64373 0.09933 0.08102 0.0
C935 C 0.62331 0.08156 0.06366 0.0
C936 C 0.59485 0.07269 0.0769 0.0
C937 C 0.5868 0.08206 0.10758 0.0
H938 H 0.41274 0.56939 0.28559 0.0
H939 H 0.42131 0.66157 0.31103 0.0
H940 H 0.44611 0.6496 0.35949 0.0
H941 H 0.39646 0.54245 0.36364 0.0
H942 H 0.41755 0.51062 0.35895 0.0
H943 H 0.40162 0.52622 0.32517 0.0
H944 H 0.45374 0.53129 0.29709 0.0
H945 H 0.46985 0.51576 0.33085 0.0
H946 H 0.48421 0.55104 0.31631 0.0
H947 H 0.46663 0.62834 0.40644 0.0
H948 H 0.48319 0.59853 0.44965 0.0
H949 H 0.46375 0.51953 0.39484 0.0
C950 C 0.41996 0.58701 0.30134 0.0
C951 C 0.41533 0.61651 0.29424 0.0
C952 C 0.4251 0.63892 0.31551 0.0
C953 C 0.43911 0.63233 0.34324 0.0
C954 C 0.44339 0.60319 0.34948 0.0
C955 C 0.43428 0.58082 0.3292 0.0
C956 C 0.44123 0.55131 0.34223 0.0
C957 C 0.4125 0.53148 0.34783 0.0
C958 C 0.46359 0.53648 0.32031 0.0
C959 C 0.45517 0.56067 0.3732 0.0
C960 C 0.45609 0.59076 0.37671 0.0
C961 C 0.46637 0.6048 0.40384 0.0
C962 C 0.47566 0.5877 0.42826 0.0
C963 C 0.47498 0.55686 0.42539 0.0
C964 C 0.465 0.54313 0.39731 0.0
H965 H 0.10524 0.45673 0.79666 0.0
H966 H 0.12893 0.37909 0.8448 0.0
H967 H 0.11191 0.39978 0.89565 0.0
H968 H 0.12416 0.51012 0.86122 0.0
H969 H 0.09269 0.53111 0.85418 0.0
H970 H 0.11021 0.51203 0.82203 0.0
H971 H 0.05934 0.48516 0.80949 0.0
H972 H 0.04172 0.50401 0.84165 0.0
H973 H 0.03863 0.46457 0.84005 0.0
H974 H 0.08829 0.42609 0.94009 0.0
H975 H 0.05935 0.4569 0.97586 0.0
H976 H 0.04966 0.51781 0.90014 0.0
C977 C 0.10754 0.44457 0.8181 0.0
C978 C 0.11865 0.41645 0.81699 0.0
C979 C 0.12061 0.40071 0.84529 0.0
C980 C 0.11107 0.41231 0.87424 0.0
C981 C 0.09955 0.43974 0.87456 0.0
C982 C 0.09781 0.4558 0.84733 0.0
C983 C 0.0823 0.4837 0.85413 0.0
C984 C 0.10362 0.51085 0.8475 0.0
C985 C 0.05381 0.48438 0.83521 0.0
C986 C 0.07502 0.4804 0.88921 0.0
C987 C 0.08546 0.45496 0.90045 0.0
C988 C 0.08018 0.44615 0.9316 0.0
C989 C 0.06344 0.46357 0.95169 0.0
C990 C 0.05207 0.4894 0.94071 0.0
C991 C 0.05843 0.49827 0.9092 0.0
H992 H 0.66792 0.88639 0.91097 0.0
H993 H 0.60753 0.8083 0.91213 0.0
H994 H 0.5666 0.83757 0.93259 0.0
H995 H 0.63855 0.918 0.98332 0.0
H996 H 0.64414 0.95497 0.96894 0.0
H997 H 0.66826 0.9276 0.95487 0.0
H998 H 0.65545 0.93877 0.89732 0.0
H999 H 0.63109 0.96598 0.91121 0.0
H1000 H 0.61701 0.9364 0.88633 0.0
H1001 H 0.53215 0.8761 0.94973 0.0
H1002 H 0.50732 0.91985 0.96762 0.0
H1003 H 0.59137 0.97229 0.95744 0.0
C1004 C 0.64606 0.87552 0.91571 0.0
C1005 C 0.64052 0.8453 0.90993 0.0
C1006 C 0.61194 0.8315 0.91657 0.0
C1007 C 0.58868 0.84794 0.92801 0.0
C1008 C 0.59475 0.8779 0.93298 0.0
C1009 C 0.62286 0.89145 0.9275 0.0
C1010 C 0.62376 0.92379 0.93519 0.0
C1011 C 0.64493 0.93153 0.96219 0.0
C1012 C 0.63233 0.94232 0.90575 0.0
C1013 C 0.59162 0.9265 0.94552 0.0
C1014 C 0.5752 0.89984 0.94384 0.0
C1015 C 0.5448 0.89703 0.95136 0.0
C1016 C 0.5309 0.92206 0.96128 0.0
C1017 C 0.54748 0.94945 0.96387 0.0
C1018 C 0.57821 0.95162 0.95581 0.0
H1019 H 0.84612 0.15143 0.42622 0.0
H1020 H 0.89115 0.14435 0.33465 0.0
H1021 H 0.9294 0.11643 0.35844 0.0
H1022 H 0.91514 0.15873 0.47246 0.0
H1023 H 0.89788 0.1376 0.50467 0.0
H1024 H 0.87565 0.15938 0.48086 0.0
H1025 H 0.84076 0.11337 0.46913 0.0
H1026 H 0.863 0.09142 0.49258 0.0
H1027 H 0.85636 0.08142 0.45213 0.0
H1028 H 0.95935 0.08417 0.391 0.0
H1029 H 0.98057 0.05324 0.43092 0.0
H1030 H 0.91795 0.08382 0.50159 0.0
C1031 C 0.86448 0.14476 0.41132 0.0
C1032 C 0.86544 0.14995 0.3785 0.0
C1033 C 0.88961 0.14028 0.35977 0.0
C1034 C 0.91158 0.12453 0.37309 0.0
C1035 C 0.90942 0.11894 0.40531 0.0
C1036 C 0.88675 0.12916 0.42429 0.0
C1037 C 0.88879 0.11903 0.45798 0.0
C1038 C 0.89473 0.14525 0.48031 0.0
C1039 C 0.86056 0.10019 0.46856 0.0
C1040 C 0.91561 0.1009 0.45478 0.0
C1041 C 0.92726 0.10114 0.42423 0.0
C1042 C 0.9508 0.08429 0.41515 0.0
C1043 C 0.9627 0.06676 0.43791 0.0
C1044 C 0.95117 0.06642 0.46935 0.0
C1045 C 0.92753 0.08396 0.47782 0.0
H1046 H 0.18077 0.64869 0.10618 0.0
H1047 H 0.24141 0.57923 0.09856 0.0
H1048 H 0.20246 0.54711 0.07398 0.0
H1049 H 0.11477 0.60147 0.12569 0.0
H1050 H 0.09004 0.6219 0.1034 0.0
H1051 H 0.12283 0.6402 0.11978 0.0
H1052 H 0.14001 0.65916 0.06432 0.0
H1053 H 0.10732 0.64081 0.04775 0.0
H1054 H 0.14386 0.6334 0.03232 0.0
H1055 H 0.1585 0.52268 0.05013 0.0
H1056 H 0.10992 0.50498 0.03089 0.0
H1057 H 0.07482 0.58879 0.05435 0.0
C1058 C 0.18576 0.62673 0.09922 0.0
C1059 C 0.21413 0.61639 0.10444 0.0
C1060 C 0.21978 0.58748 0.09522 0.0
C1061 C 0.19786 0.56914 0.08102 0.0
C1062 C 0.17023 0.57989 0.07625 0.0
C1063 C 0.16386 0.60785 0.08523 0.0
C1064 C 0.13176 0.61324 0.07809 0.0
C1065 C 0.11379 0.61957 0.10856 0.0
C1066 C 0.13068 0.63814 0.0542 0.0
C1067 C 0.12124 0.58389 0.06375 0.0
C1068 C 0.14408 0.56525 0.0628 0.0
C1069 C 0.14038 0.53699 0.05083 0.0
C1070 C 0.11248 0.52716 0.03995 0.0
C1071 C 0.0882 0.54536 0.04118 0.0
C1072 C 0.09283 0.57434 0.05298 0.0
H1073 H 0.32057 0.44032 0.62268 0.0
H1074 H 0.27296 0.40637 0.54127 0.0
H1075 H 0.31658 0.4211 0.50695 0.0
H1076 H 0.35746 0.50417 0.58193 0.0
H1077 H 0.39153 0.50277 0.60277 0.0
H1078 H 0.35645 0.49006 0.6215 0.0
H1079 H 0.37674 0.43968 0.63169 0.0
H1080 H 0.41199 0.45213 0.61331 0.0
H1081 H 0.392 0.41939 0.59911 0.0
H1082 H 0.36617 0.43714 0.48153 0.0
H1083 H 0.41791 0.45478 0.46674 0.0
H1084 H 0.43286 0.48086 0.56374 0.0
C1085 C 0.31901 0.43637 0.59759 0.0
C1086 C 0.29315 0.4218 0.58492 0.0
C1087 C 0.29255 0.4168 0.55188 0.0
C1088 C 0.31719 0.42537 0.53205 0.0
C1089 C 0.3423 0.43933 0.54537 0.0
C1090 C 0.34334 0.44508 0.57733 0.0
C1091 C 0.37327 0.46018 0.5856 0.0
C1092 C 0.36945 0.49113 0.59873 0.0
C1093 C 0.38945 0.44173 0.6088 0.0
C1094 C 0.3891 0.46134 0.55342 0.0
C1095 C 0.37074 0.44929 0.53054 0.0
C1096 C 0.38064 0.44687 0.4992 0.0
C1097 C 0.41008 0.45688 0.49103 0.0
C1098 C 0.42933 0.46926 0.51403 0.0
C1099 C 0.41855 0.47174 0.54559 0.0
H1100 H 0.89837 0.70828 0.90042 0.0
H1101 H 0.80981 0.67381 0.93206 0.0
H1102 H 0.8322 0.63889 0.96588 0.0
H1103 H 0.92727 0.63805 0.89292 0.0
H1104 H 0.96409 0.65048 0.90495 0.0
H1105 H 0.94131 0.67539 0.88603 0.0
H1106 H 0.94724 0.71115 0.93343 0.0
H1107 H 0.9698 0.68617 0.95267 0.0
H1108 H 0.93688 0.69839 0.97263 0.0
H1109 H 0.86353 0.60706 0.99562 0.0
H1110 H 0.9017 0.57562 0.01367 0.0
H1111 H 0.96962 0.62671 0.95865 0.0
C1112 C 0.88354 0.69339 0.91427 0.0
C1113 C 0.85219 0.69454 0.9139 0.0
C1114 C 0.83387 0.67442 0.93262 0.0
C1115 C 0.84636 0.65426 0.95187 0.0
C1116 C 0.87722 0.65398 0.9518 0.0
C1117 C 0.89559 0.6726 0.93309 0.0
C1118 C 0.92794 0.66589 0.93526 0.0
C1119 C 0.9409 0.65691 0.90287 0.0
C1120 C 0.94656 0.69196 0.94934 0.0
C1121 C 0.92475 0.64031 0.95779 0.0
C1122 C 0.89535 0.63429 0.96757 0.0
C1123 C 0.88664 0.61151 0.98814 0.0
C1124 C 0.90847 0.59385 0.99831 0.0
C1125 C 0.93847 0.59877 0.98741 0.0
C1126 C 0.9468 0.62259 0.96736 0.0
H1127 H 0.44265 0.83113 0.13971 0.0
H1128 H 0.38615 0.80692 0.06112 0.0
H1129 H 0.40331 0.85289 0.03472 0.0
H1130 H 0.43613 0.90806 0.13903 0.0
H1131 H 0.47475 0.91733 0.14706 0.0
H1132 H 0.45675 0.88324 0.16096 0.0
H1133 H 0.49745 0.85481 0.13209 0.0
H1134 H 0.51566 0.88882 0.1182 0.0
H1135 H 0.50481 0.86034 0.09045 0.0
H1136 H 0.42565 0.90239 0.01719 0.0
H1137 H 0.45492 0.94947 1.00803 0.0
H1138 H 0.50117 0.93871 0.09446 0.0
C1139 C 0.43403 0.83502 0.11677 0.0
C1140 C 0.41254 0.81507 0.10298 0.0
C1141 C 0.40181 0.82188 0.07301 0.0
C1142 C 0.41168 0.84794 0.05752 0.0
C1143 C 0.4328 0.86688 0.07185 0.0
C1144 C 0.4442 0.86054 0.10058 0.0
C1145 C 0.46773 0.884 0.11024 0.0
C1146 C 0.45826 0.89904 0.14115 0.0
C1147 C 0.49822 0.87122 0.11289 0.0
C1148 C 0.46764 0.90463 0.08252 0.0
C1149 C 0.44701 0.89453 0.06085 0.0
C1150 C 0.44198 0.91039 0.03391 0.0
C1151 C 0.4585 0.93721 0.02899 0.0
C1152 C 0.48012 0.94765 0.05053 0.0
C1153 C 0.4849 0.93102 0.0775 0.0
H1154 H 0.12712 0.20341 0.58595 0.0
H1155 H 0.05631 0.23179 0.64901 0.0
H1156 H 0.02685 0.1858 0.63896 0.0
H1157 H 0.07655 0.17297 0.52796 0.0
H1158 H 0.09955 0.14356 0.51728 0.0
H1159 H 0.11641 0.17778 0.53153 0.0
H1160 H 0.1415 0.15015 0.57527 0.0
H1161 H 0.12445 0.11589 0.56131 0.0
H1162 H 0.11877 0.12677 0.60187 0.0
H1163 H 0.00495 0.13558 0.62298 0.0
H1164 H 0.98997 0.08856 0.59661 0.0
H1165 H 0.07172 0.09603 0.53915 0.0
C1166 C 0.10536 0.20041 0.59754 0.0
C1167 C 0.09479 0.22156 0.61903 0.0
C1168 C 0.06596 0.21591 0.6335 0.0
C1169 C 0.0487 0.18978 0.62769 0.0
C1170 C 0.06 0.16952 0.60671 0.0
C1171 C 0.08739 0.17481 0.59134 0.0
C1172 C 0.09351 0.15032 0.56823 0.0
C1173 C 0.09668 0.16185 0.53424 0.0
C1174 C 0.1212 0.13487 0.57722 0.0
C1175 C 0.0653 0.13046 0.57311 0.0
C1176 C 0.04648 0.14164 0.59584 0.0
C1177 C 0.01942 0.12674 0.60496 0.0
C1178 C 0.01116 0.09999 0.59003 0.0
C1179 C 0.0296 0.08878 0.5658 0.0
C1180 C 0.05708 0.10421 0.55747 0.0
H1181 H 0.63483 0.31808 0.39828 0.0
H1182 H 0.72141 0.36444 0.40938 0.0
H1183 H 0.6968 0.40803 0.42861 0.0
H1184 H 0.59717 0.37934 0.37104 0.0
H1185 H 0.56261 0.36889 0.39208 0.0
H1186 H 0.58702 0.34131 0.37926 0.0
H1187 H 0.58841 0.32257 0.43658 0.0
H1188 H 0.56392 0.35001 0.44956 0.0
H1189 H 0.59936 0.34783 0.46759 0.0
H1190 H 0.66267 0.44698 0.44567 0.0
H1191 H 0.62161 0.47743 0.46215 0.0
H1192 H 0.5572 0.40563 0.44057 0.0
C1193 C 0.64861 0.33745 0.40463 0.0
C1194 C 0.68009 0.33783 0.40232 0.0
C1195 C 0.6973 0.3635 0.41128 0.0
C1196 C 0.68351 0.38844 0.42202 0.0
C1197 C 0.65246 0.38737 0.42382 0.0
C1198 C 0.63521 0.36248 0.41559 0.0
C1199 C 0.60226 0.36689 0.42025 0.0
C1200 C 0.58634 0.36394 0.38878 0.0
C1201 C 0.58763 0.34556 0.44497 0.0
C1202 C 0.60365 0.39818 0.43233 0.0
C1203 C 0.63282 0.40965 0.43406 0.0
C1204 C 0.63976 0.43819 0.44449 0.0
C1205 C 0.6163 0.45534 0.45375 0.0
C1206 C 0.58629 0.44386 0.45266 0.0
C1207 C 0.57995 0.41497 0.4416 0.0
loop_
_geom_bond_atom_site_label_1
_geom_bond_atom_site_label_2
_geom_bond_distance
_geom_bond_site_symmetry_2
_ccdc_geom_bond_type
C0 C1 1.391 . S
C0 C4 1.391 . S
C0 H42 0.948 . S
C1 C0 1.391 . S
C1 C2 1.391 . S
C2 C1 1.391 . S
C2 H58 0.947 . S
C2 C59 1.392 . S
C3 C4 1.391 . S
C3 C7 1.397 . S
C3 C59 1.419 . S
C4 C0 1.391 . S
C4 C3 1.391 . S
C4 C5 1.399 . S
C5 C4 1.399 . S
C5 C8 1.396 . S
C5 C17 1.453 . S
C5 C18 1.684 . S
H6 C30 0.948 . S
C7 C3 1.397 . S
C7 C8 1.394 . S
C7 C26 1.723 . S
C8 C5 1.396 . S
C8 C7 1.394 . S
C8 C38 1.723 . S
H9 C32 0.947 . S
H10 C33 0.948 . S
H11 C39 0.982 . S
H12 C40 0.979 . S
H13 C40 0.980 . S
H14 C40 0.983 . S
H15 C39 0.979 . S
H16 C39 0.977 . S
C17 C5 1.453 . S
C17 H46 0.982 . S
C17 H47 0.979 . S
C17 H48 0.977 . S
C18 C5 1.684 . S
C18 H43 0.979 . S
C18 H44 0.980 . S
C18 H45 0.983 . S
C19 C20 1.391 . S
C19 C24 1.391 . S
C19 H49 0.948 . S
C20 C19 1.391 . S
C20 C21 1.391 . S
C21 C20 1.391 . S
C21 C22 1.392 . S
C21 H50 0.947 . S
C22 C21 1.392 . S
C22 C23 1.419 . S
C22 H51 0.948 . S
C23 C22 1.419 . S
C23 C24 1.391 . S
C23 C27 1.397 . S
C24 C19 1.391 . S
C24 C23 1.391 . S
C24 C25 1.399 . S
C25 C24 1.399 . S
C25 C26 1.396 . S
C25 C28 1.453 . S
C25 C29 1.684 . S
C26 C7 1.723 . S
C26 C25 1.396 . S
C26 C27 1.394 . S
C27 C23 1.397 . S
C27 C26 1.394 . S
C27 C37 1.723 . S
C28 C25 1.453 . S
C28 H52 0.982 . S
C28 H53 0.979 . S
C28 H54 0.977 . S
C29 C25 1.684 . S
C29 H55 0.979 . S
C29 H56 0.980 . S
C29 H57 0.983 . S
C30 H6 0.948 . S
C30 C31 1.391 . S
C30 C35 1.391 . S
C31 C30 1.391 . S
C31 C32 1.391 . S
C32 H9 0.947 . S
C32 C31 1.391 . S
C32 C33 1.392 . S
C33 H10 0.948 . S
C33 C32 1.392 . S
C33 C34 1.419 . S
C34 C33 1.419 . S
C34 C35 1.391 . S
C34 C38 1.397 . S
C35 C30 1.391 . S
C35 C34 1.391 . S
C35 C36 1.399 . S
C36 C35 1.399 . S
C36 C37 1.396 . S
C36 C39 1.453 . S
C36 C40 1.684 . S
C37 C27 1.723 . S
C37 C36 1.396 . S
C37 C38 1.394 . S
C38 C8 1.723 . S
C38 C34 1.397 . S
C38 C37 1.394 . S
C39 H11 0.982 . S
C39 H15 0.979 . S
C39 H16 0.977 . S
C39 C36 1.453 . S
C40 H12 0.979 . S
C40 H13 0.980 . S
C40 H14 0.983 . S
C40 C36 1.684 . S
H41 C59 0.948 . S
H42 C0 0.948 . S
H43 C18 0.979 . S
H44 C18 0.980 . S
H45 C18 0.983 . S
H46 C17 0.982 . S
H47 C17 0.979 . S
H48 C17 0.977 . S
H49 C19 0.948 . S
H50 C21 0.947 . S
H51 C22 0.948 . S
H52 C28 0.982 . S
H53 C28 0.979 . S
H54 C28 0.977 . S
H55 C29 0.979 . S
H56 C29 0.980 . S
H57 C29 0.983 . S
H58 C2 0.947 . S
C59 C2 1.392 . S
C59 C3 1.419 . S
C59 H41 0.948 . S
C60 C61 1.391 . S
C60 C64 1.391 . S
C60 H102 0.948 . S
C61 C60 1.391 . S
C61 C62 1.391 . S
C62 C61 1.391 . S
C62 H118 0.947 . S
C62 C119 1.392 . S
C63 C64 1.391 . S
C63 C67 1.397 . S
C63 C119 1.419 . S
C64 C60 1.391 . S
C64 C63 1.391 . S
C64 C65 1.399 . S
C65 C64 1.399 . S
C65 C68 1.396 . S
C65 C77 1.453 . S
C65 C78 1.684 . S
H66 C90 0.948 . S
C67 C63 1.397 . S
C67 C68 1.394 . S
C67 C86 1.723 . S
C68 C65 1.396 . S
C68 C67 1.394 . S
C68 C98 1.723 . S
H69 C92 0.947 . S
H70 C93 0.948 . S
H71 C99 0.982 . S
H72 C100 0.979 . S
H73 C100 0.980 . S
H74 C100 0.983 . S
H75 C99 0.979 . S
H76 C99 0.977 . S
C77 C65 1.453 . S
C77 H106 0.982 . S
C77 H107 0.979 . S
C77 H108 0.977 . S
C78 C65 1.684 . S
C78 H103 0.979 . S
C78 H104 0.980 . S
C78 H105 0.983 . S
C79 C80 1.391 . S
C79 C84 1.391 . S
C79 H109 0.948 . S
C80 C79 1.391 . S
C80 C81 1.391 . S
C81 C80 1.391 . S
C81 C82 1.392 . S
C81 H110 0.947 . S
C82 C81 1.392 . S
C82 C83 1.419 . S
C82 H111 0.948 . S
C83 C82 1.419 . S
C83 C84 1.391 . S
C83 C87 1.397 . S
C84 C79 1.391 . S
C84 C83 1.391 . S
C84 C85 1.399 . S
C85 C84 1.399 . S
C85 C86 1.396 . S
C85 C88 1.453 . S
C85 C89 1.684 . S
C86 C67 1.723 . S
C86 C85 1.396 . S
C86 C87 1.394 . S
C87 C83 1.397 . S
C87 C86 1.394 . S
C87 C97 1.723 . S
C88 C85 1.453 . S
C88 H112 0.982 . S
C88 H113 0.979 . S
C88 H114 0.977 . S
C89 C85 1.684 . S
C89 H115 0.979 . S
C89 H116 0.980 . S
C89 H117 0.983 . S
C90 H66 0.948 . S
C90 C91 1.391 . S
C90 C95 1.391 . S
C91 C90 1.391 . S
C91 C92 1.391 . S
C92 H69 0.947 . S
C92 C91 1.391 . S
C92 C93 1.392 . S
C93 H70 0.948 . S
C93 C92 1.392 . S
C93 C94 1.419 . S
C94 C93 1.419 . S
C94 C95 1.391 . S
C94 C98 1.397 . S
C95 C90 1.391 . S
C95 C94 1.391 . S
C95 C96 1.399 . S
C96 C95 1.399 . S
C96 C97 1.396 . S
C96 C99 1.453 . S
C96 C100 1.684 . S
C97 C87 1.723 . S
C97 C96 1.396 . S
C97 C98 1.394 . S
C98 C68 1.723 . S
C98 C94 1.397 . S
C98 C97 1.394 . S
C99 H71 0.982 . S
C99 H75 0.979 . S
C99 H76 0.977 . S
C99 C96 1.453 . S
C100 H72 0.979 . S
C100 H73 0.980 . S
C100 H74 0.983 . S
C100 C96 1.684 . S
H101 C119 0.948 . S
H102 C60 0.948 . S
H103 C78 0.979 . S
H104 C78 0.980 . S
H105 C78 0.983 . S
H106 C77 0.982 . S
H107 C77 0.979 . S
H108 C77 0.977 . S
H109 C79 0.948 . S
H110 C81 0.947 . S
H111 C82 0.948 . S
H112 C88 0.982 . S
H113 C88 0.979 . S
H114 C88 0.977 . S
H115 C89 0.979 . S
H116 C89 0.980 . S
H117 C89 0.983 . S
H118 C62 0.947 . S
C119 C62 1.392 . S
C119 C63 1.419 . S
C119 H101 0.948 . S
C120 C121 1.391 . S
C120 C124 1.391 . S
C120 H162 0.948 . S
C121 C120 1.391 . S
C121 C122 1.391 . S
C122 C121 1.391 . S
C122 H178 0.947 . S
C122 C179 1.392 . S
C123 C124 1.391 . S
C123 C127 1.397 . S
C123 C179 1.419 . S
C124 C120 1.391 . S
C124 C123 1.391 . S
C124 C125 1.399 . S
C125 C124 1.399 . S
C125 C128 1.396 . S
C125 C137 1.453 . S
C125 C138 1.684 . S
H126 C150 0.948 . S
C127 C123 1.397 . S
C127 C128 1.394 . S
C127 C146 1.723 . S
C128 C125 1.396 . S
C128 C127 1.394 . S
C128 C158 1.723 . S
H129 C152 0.947 . S
H130 C153 0.948 . S
H131 C159 0.982 . S
H132 C160 0.979 . S
H133 C160 0.980 . S
H134 C160 0.983 . S
H135 C159 0.979 . S
H136 C159 0.977 . S
C137 C125 1.453 . S
C137 H166 0.982 . S
C137 H167 0.979 . S
C137 H168 0.977 . S
C138 C125 1.684 . S
C138 H163 0.979 . S
C138 H164 0.980 . S
C138 H165 0.983 . S
C139 C140 1.391 . S
C139 C144 1.391 . S
C139 H169 0.948 . S
C140 C139 1.391 . S
C140 C141 1.391 . S
C141 C140 1.391 . S
C141 C142 1.392 . S
C141 H170 0.947 . S
C142 C141 1.392 . S
C142 C143 1.419 . S
C142 H171 0.948 . S
C143 C142 1.419 . S
C143 C144 1.391 . S
C143 C147 1.397 . S
C144 C139 1.391 . S
C144 C143 1.391 . S
C144 C145 1.399 . S
C145 C144 1.399 . S
C145 C146 1.396 . S
C145 C148 1.453 . S
C145 C149 1.684 . S
C146 C127 1.723 . S
C146 C145 1.396 . S
C146 C147 1.394 . S
C147 C143 1.397 . S
C147 C146 1.394 . S
C147 C157 1.723 . S
C148 C145 1.453 . S
C148 H172 0.982 . S
C148 H173 0.979 . S
C148 H174 0.977 . S
C149 C145 1.684 . S
C149 H175 0.979 . S
C149 H176 0.980 . S
C149 H177 0.983 . S
C150 H126 0.948 . S
C150 C151 1.391 . S
C150 C155 1.391 . S
C151 C150 1.391 . S
C151 C152 1.391 . S
C152 H129 0.947 . S
C152 C151 1.391 . S
C152 C153 1.392 . S
C153 H130 0.948 . S
C153 C152 1.392 . S
C153 C154 1.419 . S
C154 C153 1.419 . S
C154 C155 1.391 . S
C154 C158 1.397 . S
C155 C150 1.391 . S
C155 C154 1.391 . S
C155 C156 1.399 . S
C156 C155 1.399 . S
C156 C157 1.396 . S
C156 C159 1.453 . S
C156 C160 1.684 . S
C157 C147 1.723 . S
C157 C156 1.396 . S
C157 C158 1.394 . S
C158 C128 1.723 . S
C158 C154 1.397 . S
C158 C157 1.394 . S
C159 H131 0.982 . S
C159 H135 0.979 . S
C159 H136 0.977 . S
C159 C156 1.453 . S
C160 H132 0.979 . S
C160 H133 0.980 . S
C160 H134 0.983 . S
C160 C156 1.684 . S
H161 C179 0.948 . S
H162 C120 0.948 . S
H163 C138 0.979 . S
H164 C138 0.980 . S
H165 C138 0.983 . S
H166 C137 0.982 . S
H167 C137 0.979 . S
H168 C137 0.977 . S
H169 C139 0.948 . S
H170 C141 0.947 . S
H171 C142 0.948 . S
H172 C148 0.982 . S
H173 C148 0.979 . S
H174 C148 0.977 . S
H175 C149 0.979 . S
H176 C149 0.980 . S
H177 C149 0.983 . S
H178 C122 0.947 . S
C179 C122 1.392 . S
C179 C123 1.419 . S
C179 H161 0.948 . S
C180 C181 1.391 . S
C180 C184 1.391 . S
C180 H222 0.948 . S
C181 C180 1.391 . S
C181 C182 1.391 . S
C182 C181 1.391 . S
C182 H238 0.947 . S
C182 C239 1.392 . S
C183 C184 1.391 . S
C183 C187 1.397 . S
C183 C239 1.419 . S
C184 C180 1.391 . S
C184 C183 1.391 . S
C184 C185 1.399 . S
C185 C184 1.399 . S
C185 C188 1.396 . S
C185 C197 1.453 . S
C185 C198 1.684 . S
H186 C210 0.948 . S
C187 C183 1.397 . S
C187 C188 1.394 . S
C187 C206 1.723 . S
C188 C185 1.396 . S
C188 C187 1.394 . S
C188 C218 1.723 . S
H189 C212 0.947 . S
H190 C213 0.948 . S
H191 C219 0.982 . S
H192 C220 0.979 . S
H193 C220 0.980 . S
H194 C220 0.983 . S
H195 C219 0.979 . S
H196 C219 0.977 . S
C197 C185 1.453 . S
C197 H226 0.982 . S
C197 H227 0.979 . S
C197 H228 0.977 . S
C198 C185 1.684 . S
C198 H223 0.979 . S
C198 H224 0.980 . S
C198 H225 0.983 . S
C199 C200 1.391 . S
C199 C204 1.391 . S
C199 H229 0.948 . S
C200 C199 1.391 . S
C200 C201 1.391 . S
C201 C200 1.391 . S
C201 C202 1.392 . S
C201 H230 0.947 . S
C202 C201 1.392 . S
C202 C203 1.419 . S
C202 H231 0.948 . S
C203 C202 1.419 . S
C203 C204 1.391 . S
C203 C207 1.397 . S
C204 C199 1.391 . S
C204 C203 1.391 . S
C204 C205 1.399 . S
C205 C204 1.399 . S
C205 C206 1.396 . S
C205 C208 1.453 . S
C205 C209 1.684 . S
C206 C187 1.723 . S
C206 C205 1.396 . S
C206 C207 1.394 . S
C207 C203 1.397 . S
C207 C206 1.394 . S
C207 C217 1.723 . S
C208 C205 1.453 . S
C208 H232 0.982 . S
C208 H233 0.979 . S
C208 H234 0.977 . S
C209 C205 1.684 . S
C209 H235 0.979 . S
C209 H236 0.980 . S
C209 H237 0.983 . S
C210 H186 0.948 . S
C210 C211 1.391 . S
C210 C215 1.391 . S
C211 C210 1.391 . S
C211 C212 1.391 . S
C212 H189 0.947 . S
C212 C211 1.391 . S
C212 C213 1.392 . S
C213 H190 0.948 . S
C213 C212 1.392 . S
C213 C214 1.419 . S
C214 C213 1.419 . S
C214 C215 1.391 . S
C214 C218 1.397 . S
C215 C210 1.391 . S
C215 C214 1.391 . S
C215 C216 1.399 . S
C216 C215 1.399 . S
C216 C217 1.396 . S
C216 C219 1.453 . S
C216 C220 1.684 . S
C217 C207 1.723 . S
C217 C216 1.396 . S
C217 C218 1.394 . S
C218 C188 1.723 . S
C218 C214 1.397 . S
C218 C217 1.394 . S
C219 H191 0.982 . S
C219 H195 0.979 . S
C219 H196 0.977 . S
C219 C216 1.453 . S
C220 H192 0.979 . S
C220 H193 0.980 . S
C220 H194 0.983 . S
C220 C216 1.684 . S
H221 C239 0.948 . S
H222 C180 0.948 . S
H223 C198 0.979 . S
H224 C198 0.980 . S
H225 C198 0.983 . S
H226 C197 0.982 . S
H227 C197 0.979 . S
H228 C197 0.977 . S
H229 C199 0.948 . S
H230 C201 0.947 . S
H231 C202 0.948 . S
H232 C208 0.982 . S
H233 C208 0.979 . S
H234 C208 0.977 . S
H235 C209 0.979 . S
H236 C209 0.980 . S
H237 C209 0.983 . S
H238 C182 0.947 . S
C239 C182 1.392 . S
C239 C183 1.419 . S
C239 H221 0.948 . S
C240 C241 1.391 . S
C240 C244 1.391 . S
C240 H282 0.948 . S
C241 C240 1.391 . S
C241 C242 1.391 . S
C242 C241 1.391 . S
C242 H298 0.947 . S
C242 C299 1.392 . S
C243 C244 1.391 . S
C243 C247 1.397 . S
C243 C299 1.419 . S
C244 C240 1.391 . S
C244 C243 1.391 . S
C244 C245 1.399 . S
C245 C244 1.399 . S
C245 C248 1.396 . S
C245 C257 1.453 . S
C245 C258 1.684 . S
H246 C270 0.948 . S
C247 C243 1.397 . S
C247 C248 1.394 . S
C247 C266 1.723 . S
C248 C245 1.396 . S
C248 C247 1.394 . S
C248 C278 1.723 . S
H249 C272 0.947 . S
H250 C273 0.948 . S
H251 C279 0.982 . S
H252 C280 0.979 . S
H253 C280 0.980 . S
H254 C280 0.983 . S
H255 C279 0.979 . S
H256 C279 0.977 . S
C257 C245 1.453 . S
C257 H286 0.982 . S
C257 H287 0.979 . S
C257 H288 0.977 . S
C258 C245 1.684 . S
C258 H283 0.979 . S
C258 H284 0.980 . S
C258 H285 0.983 . S
C259 C260 1.391 . S
C259 C264 1.391 . S
C259 H289 0.948 . S
C260 C259 1.391 . S
C260 C261 1.391 . S
C261 C260 1.391 . S
C261 C262 1.392 . S
C261 H290 0.947 . S
C262 C261 1.392 . S
C262 C263 1.419 . S
C262 H291 0.948 . S
C263 C262 1.419 . S
C263 C264 1.391 . S
C263 C267 1.397 . S
C264 C259 1.391 . S
C264 C263 1.391 . S
C264 C265 1.399 . S
C265 C264 1.399 . S
C265 C266 1.396 . S
C265 C268 1.453 . S
C265 C269 1.684 . S
C266 C247 1.723 . S
C266 C265 1.396 . S
C266 C267 1.394 . S
C267 C263 1.397 . S
C267 C266 1.394 . S
C267 C277 1.723 . S
C268 C265 1.453 . S
C268 H292 0.982 . S
C268 H293 0.979 . S
C268 H294 0.977 . S
C269 C265 1.684 . S
C269 H295 0.979 . S
C269 H296 0.980 . S
C269 H297 0.983 . S
C270 H246 0.948 . S
C270 C271 1.391 . S
C270 C275 1.391 . S
C271 C270 1.391 . S
C271 C272 1.391 . S
C272 H249 0.947 . S
C272 C271 1.391 . S
C272 C273 1.392 . S
C273 H250 0.948 . S
C273 C272 1.392 . S
C273 C274 1.419 . S
C274 C273 1.419 . S
C274 C275 1.391 . S
C274 C278 1.397 . S
C275 C270 1.391 . S
C275 C274 1.391 . S
C275 C276 1.399 . S
C276 C275 1.399 . S
C276 C277 1.396 . S
C276 C279 1.453 . S
C276 C280 1.684 . S
C277 C267 1.723 . S
C277 C276 1.396 . S
C277 C278 1.394 . S
C278 C248 1.723 . S
C278 C274 1.397 . S
C278 C277 1.394 . S
C279 H251 0.982 . S
C279 H255 0.979 . S
C279 H256 0.977 . S
C279 C276 1.453 . S
C280 H252 0.979 . S
C280 H253 0.980 . S
C280 H254 0.983 . S
C280 C276 1.684 . S
H281 C299 0.948 . S
H282 C240 0.948 . S
H283 C258 0.979 . S
H284 C258 0.980 . S
H285 C258 0.983 . S
H286 C257 0.982 . S
H287 C257 0.979 . S
H288 C257 0.977 . S
H289 C259 0.948 . S
H290 C261 0.947 . S
H291 C262 0.948 . S
H292 C268 0.982 . S
H293 C268 0.979 . S
H294 C268 0.977 . S
H295 C269 0.979 . S
H296 C269 0.980 . S
H297 C269 0.983 . S
H298 C242 0.947 . S
C299 C242 1.392 . S
C299 C243 1.419 . S
C299 H281 0.948 . S
C300 C301 1.391 . S
C300 C304 1.391 . S
C300 H342 0.948 . S
C301 C300 1.391 . S
C301 C302 1.391 . S
C302 C301 1.391 . S
C302 H358 0.947 . S
C302 C359 1.392 . S
C303 C304 1.391 . S
C303 C307 1.397 . S
C303 C359 1.419 . S
C304 C300 1.391 . S
C304 C303 1.391 . S
C304 C305 1.399 . S
C305 C304 1.399 . S
C305 C308 1.396 . S
C305 C317 1.453 . S
C305 C318 1.684 . S
H306 C330 0.948 . S
C307 C303 1.397 . S
C307 C308 1.394 . S
C307 C326 1.723 . S
C308 C305 1.396 . S
C308 C307 1.394 . S
C308 C338 1.723 . S
H309 C332 0.947 . S
H310 C333 0.948 . S
H311 C339 0.982 . S
H312 C340 0.979 . S
H313 C340 0.980 . S
H314 C340 0.983 . S
H315 C339 0.979 . S
H316 C339 0.977 . S
C317 C305 1.453 . S
C317 H346 0.982 . S
C317 H347 0.979 . S
C317 H348 0.977 . S
C318 C305 1.684 . S
C318 H343 0.979 . S
C318 H344 0.980 . S
C318 H345 0.983 . S
C319 C320 1.391 . S
C319 C324 1.391 . S
C319 H349 0.948 . S
C320 C319 1.391 . S
C320 C321 1.391 . S
C321 C320 1.391 . S
C321 C322 1.392 . S
C321 H350 0.947 . S
C322 C321 1.392 . S
C322 C323 1.419 . S
C322 H351 0.948 . S
C323 C322 1.419 . S
C323 C324 1.391 . S
C323 C327 1.397 . S
C324 C319 1.391 . S
C324 C323 1.391 . S
C324 C325 1.399 . S
C325 C324 1.399 . S
C325 C326 1.396 . S
C325 C328 1.453 . S
C325 C329 1.684 . S
C326 C307 1.723 . S
C326 C325 1.396 . S
C326 C327 1.394 . S
C327 C323 1.397 . S
C327 C326 1.394 . S
C327 C337 1.723 . S
C328 C325 1.453 . S
C328 H352 0.982 . S
C328 H353 0.979 . S
C328 H354 0.977 . S
C329 C325 1.684 . S
C329 H355 0.979 . S
C329 H356 0.980 . S
C329 H357 0.983 . S
C330 H306 0.948 . S
C330 C331 1.391 . S
C330 C335 1.391 . S
C331 C330 1.391 . S
C331 C332 1.391 . S
C332 H309 0.947 . S
C332 C331 1.391 . S
C332 C333 1.392 . S
C333 H310 0.948 . S
C333 C332 1.392 . S
C333 C334 1.419 . S
C334 C333 1.419 . S
C334 C335 1.391 . S
C334 C338 1.397 . S
C335 C330 1.391 . S
C335 C334 1.391 . S
C335 C336 1.399 . S
C336 C335 1.399 . S
C336 C337 1.396 . S
C336 C339 1.453 . S
C336 C340 1.684 . S
C337 C327 1.723 . S
C337 C336 1.396 . S
C337 C338 1.394 . S
C338 C308 1.723 . S
C338 C334 1.397 . S
C338 C337 1.394 . S
C339 H311 0.982 . S
C339 H315 0.979 . S
C339 H316 0.977 . S
C339 C336 1.453 . S
C340 H312 0.979 . S
C340 H313 0.980 . S
C340 H314 0.983 . S
C340 C336 1.684 . S
H341 C359 0.948 . S
H342 C300 0.948 . S
H343 C318 0.979 . S
H344 C318 0.980 . S
H345 C318 0.983 . S
H346 C317 0.982 . S
H347 C317 0.979 . S
H348 C317 0.977 . S
H349 C319 0.948 . S
H350 C321 0.947 . S
H351 C322 0.948 . S
H352 C328 0.982 . S
H353 C328 0.979 . S
H354 C328 0.977 . S
H355 C329 0.979 . S
H356 C329 0.980 . S
H357 C329 0.983 . S
H358 C302 0.947 . S
C359 C302 1.392 . S
C359 C303 1.419 . S
C359 H341 0.948 . S
C360 C361 1.391 . S
C360 C364 1.391 . S
C360 H402 0.948 . S
C361 C360 1.391 . S
C361 C362 1.391 . S
C362 C361 1.391 . S
C362 H418 0.947 . S
C362 C419 1.392 . S
C363 C364 1.391 . S
C363 C367 1.397 . S
C363 C419 1.419 . S
C364 C360 1.391 . S
C364 C363 1.391 . S
C364 C365 1.399 . S
C365 C364 1.399 . S
C365 C368 1.396 . S
C365 C377 1.453 . S
C365 C378 1.684 . S
H366 C390 0.948 . S
C367 C363 1.397 . S
C367 C368 1.394 . S
C367 C386 1.723 . S
C368 C365 1.396 . S
C368 C367 1.394 . S
C368 C398 1.723 . S
H369 C392 0.947 . S
H370 C393 0.948 . S
H371 C399 0.982 . S
H372 C400 0.979 . S
H373 C400 0.980 . S
H374 C400 0.983 . S
H375 C399 0.979 . S
H376 C399 0.977 . S
C377 C365 1.453 . S
C377 H406 0.982 . S
C377 H407 0.979 . S
C377 H408 0.977 . S
C378 C365 1.684 . S
C378 H403 0.979 . S
C378 H404 0.980 . S
C378 H405 0.983 . S
C379 C380 1.391 . S
C379 C384 1.391 . S
C379 H409 0.948 . S
C380 C379 1.391 . S
C380 C381 1.391 . S
C381 C380 1.391 . S
C381 C382 1.392 . S
C381 H410 0.947 . S
C382 C381 1.392 . S
C382 C383 1.419 . S
C382 H411 0.948 . S
C383 C382 1.419 . S
C383 C384 1.391 . S
C383 C387 1.397 . S
C384 C379 1.391 . S
C384 C383 1.391 . S
C384 C385 1.399 . S
C385 C384 1.399 . S
C385 C386 1.396 . S
C385 C388 1.453 . S
C385 C389 1.684 . S
C386 C367 1.723 . S
C386 C385 1.396 . S
C386 C387 1.394 . S
C387 C383 1.397 . S
C387 C386 1.394 . S
C387 C397 1.723 . S
C388 C385 1.453 . S
C388 H412 0.982 . S
C388 H413 0.979 . S
C388 H414 0.977 . S
C389 C385 1.684 . S
C389 H415 0.979 . S
C389 H416 0.980 . S
C389 H417 0.983 . S
C390 H366 0.948 . S
C390 C391 1.391 . S
C390 C395 1.391 . S
C391 C390 1.391 . S
C391 C392 1.391 . S
C392 H369 0.947 . S
C392 C391 1.391 . S
C392 C393 1.392 . S
C393 H370 0.948 . S
C393 C392 1.392 . S
C393 C394 1.419 . S
C394 C393 1.419 . S
C394 C395 1.391 . S
C394 C398 1.397 . S
C395 C390 1.391 . S
C395 C394 1.391 . S
C395 C396 1.399 . S
C396 C395 1.399 . S
C396 C397 1.396 . S
C396 C399 1.453 . S
C396 C400 1.684 . S
C397 C387 1.723 . S
C397 C396 1.396 . S
C397 C398 1.394 . S
C398 C368 1.723 . S
C398 C394 1.397 . S
C398 C397 1.394 . S
C399 H371 0.982 . S
C399 H375 0.979 . S
C399 H376 0.977 . S
C399 C396 1.453 . S
C400 H372 0.979 . S
C400 H373 0.980 . S
C400 H374 0.983 . S
C400 C396 1.684 . S
H401 C419 0.948 . S
H402 C360 0.948 . S
H403 C378 0.979 . S
H404 C378 0.980 . S
H405 C378 0.983 . S
H406 C377 0.982 . S
H407 C377 0.979 . S
H408 C377 0.977 . S
H409 C379 0.948 . S
H410 C381 0.947 . S
H411 C382 0.948 . S
H412 C388 0.982 . S
H413 C388 0.979 . S
H414 C388 0.977 . S
H415 C389 0.979 . S
H416 C389 0.980 . S
H417 C389 0.983 . S
H418 C362 0.947 . S
C419 C362 1.392 . S
C419 C363 1.419 . S
C419 H401 0.948 . S
C420 C421 1.391 . S
C420 C424 1.391 . S
C420 H462 0.948 . S
C421 C420 1.391 . S
C421 C422 1.391 . S
C422 C421 1.391 . S
C422 H478 0.947 . S
C422 C479 1.392 . S
C423 C424 1.391 . S
C423 C427 1.397 . S
C423 C479 1.419 . S
C424 C420 1.391 . S
C424 C423 1.391 . S
C424 C425 1.399 . S
C425 C424 1.399 . S
C425 C428 1.396 . S
C425 C437 1.453 . S
C425 C438 1.684 . S
H426 C450 0.948 . S
C427 C423 1.397 . S
C427 C428 1.394 . S
C427 C446 1.723 . S
C428 C425 1.396 . S
C428 C427 1.394 . S
C428 C458 1.723 . S
H429 C452 0.947 . S
H430 C453 0.948 . S
H431 C459 0.982 . S
H432 C460 0.979 . S
H433 C460 0.980 . S
H434 C460 0.983 . S
H435 C459 0.979 . S
H436 C459 0.977 . S
C437 C425 1.453 . S
C437 H466 0.982 . S
C437 H467 0.979 . S
C437 H468 0.977 . S
C438 C425 1.684 . S
C438 H463 0.979 . S
C438 H464 0.980 . S
C438 H465 0.983 . S
C439 C440 1.391 . S
C439 C444 1.391 . S
C439 H469 0.948 . S
C440 C439 1.391 . S
C440 C441 1.391 . S
C441 C440 1.391 . S
C441 C442 1.392 . S
C441 H470 0.947 . S
C442 C441 1.392 . S
C442 C443 1.419 . S
C442 H471 0.948 . S
C443 C442 1.419 . S
C443 C444 1.391 . S
C443 C447 1.397 . S
C444 C439 1.391 . S
C444 C443 1.391 . S
C444 C445 1.399 . S
C445 C444 1.399 . S
C445 C446 1.396 . S
C445 C448 1.453 . S
C445 C449 1.684 . S
C446 C427 1.723 . S
C446 C445 1.396 . S
C446 C447 1.394 . S
C447 C443 1.397 . S
C447 C446 1.394 . S
C447 C457 1.723 . S
C448 C445 1.453 . S
C448 H472 0.982 . S
C448 H473 0.979 . S
C448 H474 0.977 . S
C449 C445 1.684 . S
C449 H475 0.979 . S
C449 H476 0.980 . S
C449 H477 0.983 . S
C450 H426 0.948 . S
C450 C451 1.391 . S
C450 C455 1.391 . S
C451 C450 1.391 . S
C451 C452 1.391 . S
C452 H429 0.947 . S
C452 C451 1.391 . S
C452 C453 1.392 . S
C453 H430 0.948 . S
C453 C452 1.392 . S
C453 C454 1.419 . S
C454 C453 1.419 . S
C454 C455 1.391 . S
C454 C458 1.397 . S
C455 C450 1.391 . S
C455 C454 1.391 . S
C455 C456 1.399 . S
C456 C455 1.399 . S
C456 C457 1.396 . S
C456 C459 1.453 . S
C456 C460 1.684 . S
C457 C447 1.723 . S
C457 C456 1.396 . S
C457 C458 1.394 . S
C458 C428 1.723 . S
C458 C454 1.397 . S
C458 C457 1.394 . S
C459 H431 0.982 . S
C459 H435 0.979 . S
C459 H436 0.977 . S
C459 C456 1.453 . S
C460 H432 0.979 . S
C460 H433 0.980 . S
C460 H434 0.983 . S
C460 C456 1.684 . S
H461 C479 0.948 . S
H462 C420 0.948 . S
H463 C438 0.979 . S
H464 C438 0.980 . S
H465 C438 0.983 . S
H466 C437 0.982 . S
H467 C437 0.979 . S
H468 C437 0.977 . S
H469 C439 0.948 . S
H470 C441 0.947 . S
H471 C442 0.948 . S
H472 C448 0.982 . S
H473 C448 0.979 . S
H474 C448 0.977 . S
H475 C449 0.979 . S
H476 C449 0.980 . S
H477 C449 0.983 . S
H478 C422 0.947 . S
C479 C422 1.392 . S
C479 C423 1.419 . S
C479 H461 0.948 . S
Dy480 O484 2.398 . S
Dy480 O485 2.491 . S
Dy480 O486 2.403 1_545 S
Dy480 O487 2.664 1_545 S
Dy480 O491 2.326 . S
Dy480 O495 2.310 1_455 S
Dy480 O496 2.351 1_445 S
C481 O492 1.185 . S
C481 O493 1.355 . S
C482 O484 1.185 . S
C482 O485 1.355 . S
Dy483 O487 2.310 1_655 S
Dy483 O490 2.351 1_665 S
Dy483 O492 2.398 . S
Dy483 O493 2.491 . S
Dy483 O494 2.403 1_565 S
Dy483 O495 2.664 1_565 S
Dy483 O497 2.326 . S
O484 Dy480 2.398 . S
O484 C482 1.185 . S
O485 Dy480 2.491 . S
O485 C482 1.355 . S
O486 Dy480 2.403 1_565 S
O486 C488 1.254 . S
O487 Dy480 2.664 1_565 S
O487 Dy483 2.310 1_455 S
O487 C488 1.268 . S
C488 O486 1.254 . S
C488 O487 1.268 . S
C489 O494 1.254 . S
C489 O495 1.268 . S
O490 Dy483 2.351 1_445 S
O490 C498 1.249 . S
O491 Dy480 2.326 . S
O491 C498 1.267 . S
O492 C481 1.185 . S
O492 Dy483 2.398 . S
O493 C481 1.355 . S
O493 Dy483 2.491 . S
O494 Dy483 2.403 1_545 S
O494 C489 1.254 . S
O495 Dy480 2.310 1_655 S
O495 Dy483 2.664 1_545 S
O495 C489 1.268 . S
O496 Dy480 2.351 1_665 S
O496 C499 1.249 . S
O497 Dy483 2.326 . S
O497 C499 1.267 . S
C498 O490 1.249 . S
C498 O491 1.267 . S
C499 O496 1.249 . S
C499 O497 1.267 . S
Dy500 O504 2.398 . S
Dy500 O505 2.491 . S
Dy500 O506 2.403 1_545 S
Dy500 O507 2.664 1_545 S
Dy500 O511 2.326 . S
Dy500 O515 2.310 1_554 S
Dy500 O516 2.351 1_544 S
C501 O512 1.185 . S
C501 O513 1.355 . S
C502 O504 1.185 . S
C502 O505 1.355 . S
Dy503 O507 2.334 1_556 S
Dy503 O510 2.331 1_566 S
Dy503 O512 2.403 . S
Dy503 O513 2.525 . S
Dy503 O514 2.373 1_565 S
Dy503 O515 2.646 1_565 S
Dy503 O517 2.342 . S
O504 Dy500 2.398 . S
O504 C502 1.185 . S
O505 Dy500 2.491 . S
O505 C502 1.355 . S
O506 Dy500 2.403 1_565 S
O506 C508 1.254 . S
O507 Dy500 2.664 1_565 S
O507 Dy503 2.334 1_554 S
O507 C508 1.268 . S
C508 O506 1.254 . S
C508 O507 1.268 . S
C509 O514 1.254 . S
C509 O515 1.268 . S
O510 Dy503 2.331 1_544 S
O510 C518 1.249 . S
O511 Dy500 2.326 . S
O511 C518 1.267 . S
O512 C501 1.185 . S
O512 Dy503 2.403 . S
O513 C501 1.355 . S
O513 Dy503 2.525 . S
O514 Dy503 2.373 1_545 S
O514 C509 1.254 . S
O515 Dy500 2.310 1_556 S
O515 Dy503 2.646 1_545 S
O515 C509 1.268 . S
O516 Dy500 2.351 1_566 S
O516 C519 1.249 . S
O517 Dy503 2.342 . S
O517 C519 1.267 . S
C518 O510 1.249 . S
C518 O511 1.267 . S
C519 O516 1.249 . S
C519 O517 1.267 . S
Dy520 O524 2.398 . S
Dy520 O525 2.491 . S
Dy520 O526 2.403 . S
Dy520 O527 2.664 . S
Dy520 O531 2.326 . S
Dy520 O535 2.310 . S
Dy520 O536 2.351 . S
C521 O532 1.185 . S
C521 O533 1.355 . S
C522 O524 1.185 . S
C522 O525 1.355 . S
Dy523 O527 2.310 . S
Dy523 O530 2.351 . S
Dy523 O532 2.398 . S
Dy523 O533 2.491 . S
Dy523 O534 2.403 . S
Dy523 O535 2.664 . S
Dy523 O537 2.326 . S
O524 Dy520 2.398 . S
O524 C522 1.185 . S
O525 Dy520 2.491 . S
O525 C522 1.355 . S
O526 Dy520 2.403 . S
O526 C528 1.254 . S
O527 Dy520 2.664 . S
O527 Dy523 2.310 . S
O527 C528 1.268 . S
C528 O526 1.254 . S
C528 O527 1.268 . S
C529 O534 1.254 . S
C529 O535 1.268 . S
O530 Dy523 2.351 . S
O530 C538 1.249 . S
O531 Dy520 2.326 . S
O531 C538 1.267 . S
O532 C521 1.185 . S
O532 Dy523 2.398 . S
O533 C521 1.355 . S
O533 Dy523 2.491 . S
O534 Dy523 2.403 . S
O534 C529 1.254 . S
O535 Dy520 2.310 . S
O535 Dy523 2.664 . S
O535 C529 1.268 . S
O536 Dy520 2.351 . S
O536 C539 1.249 . S
O537 Dy523 2.326 . S
O537 C539 1.267 . S
C538 O530 1.249 . S
C538 O531 1.267 . S
C539 O536 1.249 . S
C539 O537 1.267 . S
Dy540 O544 2.398 . S
Dy540 O545 2.491 . S
Dy540 O546 2.403 1_455 S
Dy540 O547 2.664 1_455 S
Dy540 O551 2.326 . S
Dy540 O555 2.310 1_554 S
Dy540 O556 2.351 1_454 S
C541 O552 1.185 . S
C541 O553 1.355 . S
C542 O544 1.185 . S
C542 O545 1.355 . S
Dy543 O547 2.310 1_556 S
Dy543 O550 2.351 1_656 S
Dy543 O552 2.398 . S
Dy543 O553 2.491 . S
Dy543 O554 2.403 1_655 S
Dy543 O555 2.664 1_655 S
Dy543 O557 2.326 . S
O544 Dy540 2.398 . S
O544 C542 1.185 . S
O545 Dy540 2.491 . S
O545 C542 1.355 . S
O546 Dy540 2.403 1_655 S
O546 C548 1.254 . S
O547 Dy540 2.664 1_655 S
O547 Dy543 2.310 1_554 S
O547 C548 1.268 . S
C548 O546 1.254 . S
C548 O547 1.268 . S
C549 O554 1.254 . S
C549 O555 1.268 . S
O550 Dy543 2.351 1_454 S
O550 C558 1.249 . S
O551 Dy540 2.326 . S
O551 C558 1.267 . S
O552 C541 1.185 . S
O552 Dy543 2.398 . S
O553 C541 1.355 . S
O553 Dy543 2.491 . S
O554 Dy543 2.403 1_455 S
O554 C549 1.254 . S
O555 Dy540 2.310 1_556 S
O555 Dy543 2.664 1_455 S
O555 C549 1.268 . S
O556 Dy540 2.351 1_656 S
O556 C559 1.249 . S
O557 Dy543 2.326 . S
O557 C559 1.267 . S
C558 O550 1.249 . S
C558 O551 1.267 . S
C559 O556 1.249 . S
C559 O557 1.267 . S
H560 C572 0.930 . S
H561 C574 0.930 . S
H562 C575 0.930 . S
H563 C579 0.959 . S
H564 C579 0.959 . S
H565 C579 0.961 . S
H566 C580 0.960 . S
H567 C580 0.961 . S
H568 C580 0.959 . S
H569 C583 0.929 . S
H570 C584 0.931 . S
H571 C586 0.930 . S
C572 H560 0.930 . S
C572 C573 1.399 . S
C572 C577 1.399 . S
C573 C572 1.399 . S
C573 C574 1.376 . S
C574 H561 0.930 . S
C574 C573 1.376 . S
C574 C575 1.388 . S
C575 H562 0.930 . S
C575 C574 1.388 . S
C575 C576 1.390 . S
C576 C575 1.390 . S
C576 C577 1.394 . S
C576 C582 1.465 . S
C577 C572 1.399 . S
C577 C576 1.394 . S
C577 C578 1.516 . S
C578 C577 1.516 . S
C578 C579 1.502 . S
C578 C580 1.561 . S
C578 C581 1.526 . S
C579 H563 0.959 . S
C579 H564 0.959 . S
C579 H565 0.961 . S
C579 C578 1.502 . S
C580 H566 0.960 . S
C580 H567 0.961 . S
C580 H568 0.959 . S
C580 C578 1.561 . S
C581 C578 1.526 . S
C581 C582 1.396 . S
C581 C586 1.390 . S
C582 C576 1.465 . S
C582 C581 1.396 . S
C582 C583 1.399 . S
C583 H569 0.929 . S
C583 C582 1.399 . S
C583 C584 1.385 . S
C584 H570 0.931 . S
C584 C583 1.385 . S
C584 C585 1.389 . S
C585 C584 1.389 . S
C585 C586 1.387 . S
C586 H571 0.930 . S
C586 C581 1.390 . S
C586 C585 1.387 . S
H587 C599 0.930 . S
H588 C601 0.930 . S
H589 C602 0.930 . S
H590 C606 0.959 . S
H591 C606 0.959 . S
H592 C606 0.961 . S
H593 C607 0.960 . S
H594 C607 0.961 . S
H595 C607 0.959 . S
H596 C610 0.929 . S
H597 C611 0.931 . S
H598 C613 0.930 . S
C599 H587 0.930 . S
C599 C600 1.399 . S
C599 C604 1.399 . S
C600 C599 1.399 . S
C600 C601 1.376 . S
C601 H588 0.930 . S
C601 C600 1.376 . S
C601 C602 1.388 . S
C602 H589 0.930 . S
C602 C601 1.388 . S
C602 C603 1.390 . S
C603 C602 1.390 . S
C603 C604 1.394 . S
C603 C609 1.465 . S
C604 C599 1.399 . S
C604 C603 1.394 . S
C604 C605 1.516 . S
C605 C604 1.516 . S
C605 C606 1.502 . S
C605 C607 1.561 . S
C605 C608 1.526 . S
C606 H590 0.959 . S
C606 H591 0.959 . S
C606 H592 0.961 . S
C606 C605 1.502 . S
C607 H593 0.960 . S
C607 H594 0.961 . S
C607 H595 0.959 . S
C607 C605 1.561 . S
C608 C605 1.526 . S
C608 C609 1.396 . S
C608 C613 1.390 . S
C609 C603 1.465 . S
C609 C608 1.396 . S
C609 C610 1.399 . S
C610 H596 0.929 . S
C610 C609 1.399 . S
C610 C611 1.385 . S
C611 H597 0.931 . S
C611 C610 1.385 . S
C611 C612 1.389 . S
C612 C611 1.389 . S
C612 C613 1.387 . S
C613 H598 0.930 . S
C613 C608 1.390 . S
C613 C612 1.387 . S
H614 C626 0.930 . S
H615 C628 0.930 . S
H616 C629 0.930 . S
H617 C633 0.959 . S
H618 C633 0.959 . S
H619 C633 0.961 . S
H620 C634 0.960 . S
H621 C634 0.961 . S
H622 C634 0.959 . S
H623 C637 0.929 . S
H624 C638 0.931 . S
H625 C640 0.930 . S
C626 H614 0.930 . S
C626 C627 1.399 . S
C626 C631 1.399 . S
C627 C626 1.399 . S
C627 C628 1.376 . S
C628 H615 0.930 . S
C628 C627 1.376 . S
C628 C629 1.388 . S
C629 H616 0.930 . S
C629 C628 1.388 . S
C629 C630 1.390 . S
C630 C629 1.390 . S
C630 C631 1.394 . S
C630 C636 1.465 . S
C631 C626 1.399 . S
C631 C630 1.394 . S
C631 C632 1.516 . S
C632 C631 1.516 . S
C632 C633 1.502 . S
C632 C634 1.561 . S
C632 C635 1.526 . S
C633 H617 0.959 . S
C633 H618 0.959 . S
C633 H619 0.961 . S
C633 C632 1.502 . S
C634 H620 0.960 . S
C634 H621 0.961 . S
C634 H622 0.959 . S
C634 C632 1.561 . S
C635 C632 1.526 . S
C635 C636 1.396 . S
C635 C640 1.390 . S
C636 C630 1.465 . S
C636 C635 1.396 . S
C636 C637 1.399 . S
C637 H623 0.929 . S
C637 C636 1.399 . S
C637 C638 1.385 . S
C638 H624 0.931 . S
C638 C637 1.385 . S
C638 C639 1.389 . S
C639 C638 1.389 . S
C639 C640 1.387 . S
C640 H625 0.930 . S
C640 C635 1.390 . S
C640 C639 1.387 . S
H641 C653 0.930 . S
H642 C655 0.930 . S
H643 C656 0.930 . S
H644 C660 0.959 . S
H645 C660 0.959 . S
H646 C660 0.961 . S
H647 C661 0.960 . S
H648 C661 0.961 . S
H649 C661 0.959 . S
H650 C664 0.929 . S
H651 C665 0.931 . S
H652 C667 0.930 . S
C653 H641 0.930 . S
C653 C654 1.399 . S
C653 C658 1.399 . S
C654 C653 1.399 . S
C654 C655 1.376 . S
C655 H642 0.930 . S
C655 C654 1.376 . S
C655 C656 1.388 . S
C656 H643 0.930 . S
C656 C655 1.388 . S
C656 C657 1.390 . S
C657 C656 1.390 . S
C657 C658 1.394 . S
C657 C663 1.465 . S
C658 C653 1.399 . S
C658 C657 1.394 . S
C658 C659 1.516 . S
C659 C658 1.516 . S
C659 C660 1.502 . S
C659 C661 1.561 . S
C659 C662 1.526 . S
C660 H644 0.959 . S
C660 H645 0.959 . S
C660 H646 0.961 . S
C660 C659 1.502 . S
C661 H647 0.960 . S
C661 H648 0.961 . S
C661 H649 0.959 . S
C661 C659 1.561 . S
C662 C659 1.526 . S
C662 C663 1.396 . S
C662 C667 1.390 . S
C663 C657 1.465 . S
C663 C662 1.396 . S
C663 C664 1.399 . S
C664 H650 0.929 . S
C664 C663 1.399 . S
C664 C665 1.385 . S
C665 H651 0.931 . S
C665 C664 1.385 . S
C665 C666 1.389 . S
C666 C665 1.389 . S
C666 C667 1.387 . S
C667 H652 0.930 . S
C667 C662 1.390 . S
C667 C666 1.387 . S
H668 C680 0.930 . S
H669 C682 0.930 . S
H670 C683 0.930 . S
H671 C687 0.959 . S
H672 C687 0.959 . S
H673 C687 0.961 . S
H674 C688 0.960 . S
H675 C688 0.961 . S
H676 C688 0.959 . S
H677 C691 0.929 . S
H678 C692 0.931 . S
H679 C694 0.930 . S
C680 H668 0.930 . S
C680 C681 1.399 . S
C680 C685 1.399 . S
C681 C680 1.399 . S
C681 C682 1.376 . S
C682 H669 0.930 . S
C682 C681 1.376 . S
C682 C683 1.388 . S
C683 H670 0.930 . S
C683 C682 1.388 . S
C683 C684 1.390 . S
C684 C683 1.390 . S
C684 C685 1.394 . S
C684 C690 1.465 . S
C685 C680 1.399 . S
C685 C684 1.394 . S
C685 C686 1.516 . S
C686 C685 1.516 . S
C686 C687 1.502 . S
C686 C688 1.561 . S
C686 C689 1.526 . S
C687 H671 0.959 . S
C687 H672 0.959 . S
C687 H673 0.961 . S
C687 C686 1.502 . S
C688 H674 0.960 . S
C688 H675 0.961 . S
C688 H676 0.959 . S
C688 C686 1.561 . S
C689 C686 1.526 . S
C689 C690 1.396 . S
C689 C694 1.390 . S
C690 C684 1.465 . S
C690 C689 1.396 . S
C690 C691 1.399 . S
C691 H677 0.929 . S
C691 C690 1.399 . S
C691 C692 1.385 . S
C692 H678 0.931 . S
C692 C691 1.385 . S
C692 C693 1.389 . S
C693 C692 1.389 . S
C693 C694 1.387 . S
C694 H679 0.930 . S
C694 C689 1.390 . S
C694 C693 1.387 . S
H695 C707 0.930 . S
H696 C709 0.930 . S
H697 C710 0.930 . S
H698 C714 0.959 . S
H699 C714 0.959 . S
H700 C714 0.961 . S
H701 C715 0.960 . S
H702 C715 0.961 . S
H703 C715 0.959 . S
H704 C718 0.929 . S
H705 C719 0.931 . S
H706 C721 0.930 . S
C707 H695 0.930 . S
C707 C708 1.399 . S
C707 C712 1.399 . S
C708 C707 1.399 . S
C708 C709 1.376 . S
C709 H696 0.930 . S
C709 C708 1.376 . S
C709 C710 1.388 . S
C710 H697 0.930 . S
C710 C709 1.388 . S
C710 C711 1.390 . S
C711 C710 1.390 . S
C711 C712 1.394 . S
C711 C717 1.465 . S
C712 C707 1.399 . S
C712 C711 1.394 . S
C712 C713 1.516 . S
C713 C712 1.516 . S
C713 C714 1.502 . S
C713 C715 1.561 . S
C713 C716 1.526 . S
C714 H698 0.959 . S
C714 H699 0.959 . S
C714 H700 0.961 . S
C714 C713 1.502 . S
C715 H701 0.960 . S
C715 H702 0.961 . S
C715 H703 0.959 . S
C715 C713 1.561 . S
C716 C713 1.526 . S
C716 C717 1.396 . S
C716 C721 1.390 . S
C717 C711 1.465 . S
C717 C716 1.396 . S
C717 C718 1.399 . S
C718 H704 0.929 . S
C718 C717 1.399 . S
C718 C719 1.385 . S
C719 H705 0.931 . S
C719 C718 1.385 . S
C719 C720 1.389 . S
C720 C719 1.389 . S
C720 C721 1.387 . S
C721 H706 0.930 . S
C721 C716 1.390 . S
C721 C720 1.387 . S
H722 C734 0.930 . S
H723 C736 0.930 . S
H724 C737 0.930 . S
H725 C741 0.959 . S
H726 C741 0.959 . S
H727 C741 0.961 . S
H728 C742 0.960 . S
H729 C742 0.963 1_554 S
H730 C742 0.959 . S
H731 C745 0.929 . S
H732 C746 0.931 . S
H733 C748 0.930 . S
C734 H722 0.930 . S
C734 C735 1.399 . S
C734 C739 1.399 . S
C735 C734 1.399 . S
C735 C736 1.376 . S
C736 H723 0.930 . S
C736 C735 1.376 . S
C736 C737 1.388 . S
C737 H724 0.930 . S
C737 C736 1.388 . S
C737 C738 1.390 . S
C738 C737 1.390 . S
C738 C739 1.394 . S
C738 C744 1.465 . S
C739 C734 1.399 . S
C739 C738 1.394 . S
C739 C740 1.516 . S
C740 C739 1.516 . S
C740 C741 1.502 . S
C740 C742 1.561 . S
C740 C743 1.526 . S
C741 H725 0.959 . S
C741 H726 0.959 . S
C741 H727 0.961 . S
C741 C740 1.502 . S
C742 H728 0.960 . S
C742 H729 0.963 1_556 S
C742 H730 0.959 . S
C742 C740 1.561 . S
C743 C740 1.526 . S
C743 C744 1.396 . S
C743 C748 1.390 . S
C744 C738 1.465 . S
C744 C743 1.396 . S
C744 C745 1.399 . S
C745 H731 0.929 . S
C745 C744 1.399 . S
C745 C746 1.385 . S
C746 H732 0.931 . S
C746 C745 1.385 . S
C746 C747 1.389 . S
C747 C746 1.389 . S
C747 C748 1.387 . S
C748 H733 0.930 . S
C748 C743 1.390 . S
C748 C747 1.387 . S
H749 C761 0.930 . S
H750 C763 0.930 . S
H751 C764 0.930 . S
H752 C768 0.959 . S
H753 C768 0.959 . S
H754 C768 0.961 . S
H755 C769 0.960 . S
H756 C769 0.961 . S
H757 C769 0.959 . S
H758 C772 0.929 . S
H759 C773 0.931 . S
H760 C775 0.930 . S
C761 H749 0.930 . S
C761 C762 1.399 . S
C761 C766 1.399 . S
C762 C761 1.399 . S
C762 C763 1.376 . S
C763 H750 0.930 . S
C763 C762 1.376 . S
C763 C764 1.388 . S
C764 H751 0.930 . S
C764 C763 1.388 . S
C764 C765 1.390 . S
C765 C764 1.390 . S
C765 C766 1.394 . S
C765 C771 1.465 . S
C766 C761 1.399 . S
C766 C765 1.394 . S
C766 C767 1.516 . S
C767 C766 1.516 . S
C767 C768 1.502 . S
C767 C769 1.561 . S
C767 C770 1.526 . S
C768 H752 0.959 . S
C768 H753 0.959 . S
C768 H754 0.961 . S
C768 C767 1.502 . S
C769 H755 0.960 . S
C769 H756 0.961 . S
C769 H757 0.959 . S
C769 C767 1.561 . S
C770 C767 1.526 . S
C770 C771 1.396 . S
C770 C775 1.390 . S
C771 C765 1.465 . S
C771 C770 1.396 . S
C771 C772 1.399 . S
C772 H758 0.929 . S
C772 C771 1.399 . S
C772 C773 1.385 . S
C773 H759 0.931 . S
C773 C772 1.385 . S
C773 C774 1.389 . S
C774 C773 1.389 . S
C774 C775 1.387 . S
C775 H760 0.930 . S
C775 C770 1.390 . S
C775 C774 1.387 . S
H776 C788 0.930 . S
H777 C790 0.930 . S
H778 C791 0.930 . S
H779 C795 0.959 . S
H780 C795 0.959 . S
H781 C795 0.961 . S
H782 C796 0.960 . S
H783 C796 0.961 . S
H784 C796 0.959 . S
H785 C799 0.929 . S
H786 C800 0.931 . S
H787 C802 0.930 . S
C788 H776 0.930 . S
C788 C789 1.399 . S
C788 C793 1.399 . S
C789 C788 1.399 . S
C789 C790 1.376 . S
C790 H777 0.930 . S
C790 C789 1.376 . S
C790 C791 1.388 . S
C791 H778 0.930 . S
C791 C790 1.388 . S
C791 C792 1.390 . S
C792 C791 1.390 . S
C792 C793 1.394 . S
C792 C798 1.465 . S
C793 C788 1.399 . S
C793 C792 1.394 . S
C793 C794 1.516 . S
C794 C793 1.516 . S
C794 C795 1.502 . S
C794 C796 1.561 . S
C794 C797 1.526 . S
C795 H779 0.959 . S
C795 H780 0.959 . S
C795 H781 0.961 . S
C795 C794 1.502 . S
C796 H782 0.960 . S
C796 H783 0.961 . S
C796 H784 0.959 . S
C796 C794 1.561 . S
C797 C794 1.526 . S
C797 C798 1.396 . S
C797 C802 1.390 . S
C798 C792 1.465 . S
C798 C797 1.396 . S
C798 C799 1.399 . S
C799 H785 0.929 . S
C799 C798 1.399 . S
C799 C800 1.385 . S
C800 H786 0.931 . S
C800 C799 1.385 . S
C800 C801 1.389 . S
C801 C800 1.389 . S
C801 C802 1.387 . S
C802 H787 0.930 . S
C802 C797 1.390 . S
C802 C801 1.387 . S
H803 C815 0.930 . S
H804 C817 0.930 . S
H805 C818 0.930 . S
H806 C822 0.959 . S
H807 C822 0.959 . S
H808 C822 0.961 . S
H809 C823 0.960 . S
H810 C823 0.961 . S
H811 C823 0.959 . S
H812 C826 0.929 . S
H813 C827 0.931 . S
H814 C829 0.930 . S
C815 H803 0.930 . S
C815 C816 1.399 . S
C815 C820 1.399 . S
C816 C815 1.399 . S
C816 C817 1.376 . S
C817 H804 0.930 . S
C817 C816 1.376 . S
C817 C818 1.388 . S
C818 H805 0.930 . S
C818 C817 1.388 . S
C818 C819 1.390 . S
C819 C818 1.390 . S
C819 C820 1.394 . S
C819 C825 1.465 . S
C820 C815 1.399 . S
C820 C819 1.394 . S
C820 C821 1.516 . S
C821 C820 1.516 . S
C821 C822 1.502 . S
C821 C823 1.561 . S
C821 C824 1.526 . S
C822 H806 0.959 . S
C822 H807 0.959 . S
C822 H808 0.961 . S
C822 C821 1.502 . S
C823 H809 0.960 . S
C823 H810 0.961 . S
C823 H811 0.959 . S
C823 C821 1.561 . S
C824 C821 1.526 . S
C824 C825 1.396 . S
C824 C829 1.390 . S
C825 C819 1.465 . S
C825 C824 1.396 . S
C825 C826 1.399 . S
C826 H812 0.929 . S
C826 C825 1.399 . S
C826 C827 1.385 . S
C827 H813 0.931 . S
C827 C826 1.385 . S
C827 C828 1.389 . S
C828 C827 1.389 . S
C828 C829 1.387 . S
C829 H814 0.930 . S
C829 C824 1.390 . S
C829 C828 1.387 . S
H830 C842 0.930 . S
H831 C844 0.930 . S
H832 C845 0.930 . S
H833 C849 0.959 . S
H834 C849 0.959 . S
H835 C849 0.961 . S
H836 C850 0.960 . S
H837 C850 0.961 . S
H838 C850 0.959 . S
H839 C853 0.929 . S
H840 C854 0.931 . S
H841 C856 0.930 . S
C842 H830 0.930 . S
C842 C843 1.399 . S
C842 C847 1.399 . S
C843 C842 1.399 . S
C843 C844 1.376 . S
C844 H831 0.930 . S
C844 C843 1.376 . S
C844 C845 1.388 . S
C845 H832 0.930 . S
C845 C844 1.388 . S
C845 C846 1.390 . S
C846 C845 1.390 . S
C846 C847 1.394 . S
C846 C852 1.465 . S
C847 C842 1.399 . S
C847 C846 1.394 . S
C847 C848 1.516 . S
C848 C847 1.516 . S
C848 C849 1.502 . S
C848 C850 1.561 . S
C848 C851 1.526 . S
C849 H833 0.959 . S
C849 H834 0.959 . S
C849 H835 0.961 . S
C849 C848 1.502 . S
C850 H836 0.960 . S
C850 H837 0.961 . S
C850 H838 0.959 . S
C850 C848 1.561 . S
C851 C848 1.526 . S
C851 C852 1.396 . S
C851 C856 1.390 . S
C852 C846 1.465 . S
C852 C851 1.396 . S
C852 C853 1.399 . S
C853 H839 0.929 . S
C853 C852 1.399 . S
C853 C854 1.385 . S
C854 H840 0.931 . S
C854 C853 1.385 . S
C854 C855 1.389 . S
C855 C854 1.389 . S
C855 C856 1.387 . S
C856 H841 0.930 . S
C856 C851 1.390 . S
C856 C855 1.387 . S
H857 C869 0.930 . S
H858 C871 0.930 . S
H859 C872 0.930 . S
H860 C876 0.959 . S
H861 C876 0.959 . S
H862 C876 0.961 . S
H863 C877 0.960 . S
H864 C877 0.961 . S
H865 C877 0.959 . S
H866 C880 0.929 . S
H867 C881 0.931 . S
H868 C883 0.930 . S
C869 H857 0.930 . S
C869 C870 1.399 . S
C869 C874 1.399 . S
C870 C869 1.399 . S
C870 C871 1.376 . S
C871 H858 0.930 . S
C871 C870 1.376 . S
C871 C872 1.388 . S
C872 H859 0.930 . S
C872 C871 1.388 . S
C872 C873 1.390 . S
C873 C872 1.390 . S
C873 C874 1.394 . S
C873 C879 1.465 . S
C874 C869 1.399 . S
C874 C873 1.394 . S
C874 C875 1.516 . S
C875 C874 1.516 . S
C875 C876 1.502 . S
C875 C877 1.561 . S
C875 C878 1.526 . S
C876 H860 0.959 . S
C876 H861 0.959 . S
C876 H862 0.961 . S
C876 C875 1.502 . S
C877 H863 0.960 . S
C877 H864 0.961 . S
C877 H865 0.959 . S
C877 C875 1.561 . S
C878 C875 1.526 . S
C878 C879 1.396 . S
C878 C883 1.390 . S
C879 C873 1.465 . S
C879 C878 1.396 . S
C879 C880 1.399 . S
C880 H866 0.929 . S
C880 C879 1.399 . S
C880 C881 1.385 . S
C881 H867 0.931 . S
C881 C880 1.385 . S
C881 C882 1.389 . S
C882 C881 1.389 . S
C882 C883 1.387 . S
C883 H868 0.930 . S
C883 C878 1.390 . S
C883 C882 1.387 . S
H884 C896 0.930 . S
H885 C898 0.930 . S
H886 C899 0.930 . S
H887 C903 0.959 . S
H888 C903 0.959 . S
H889 C903 0.961 . S
H890 C904 0.960 . S
H891 C904 0.961 . S
H892 C904 0.959 . S
H893 C907 0.929 . S
H894 C908 0.931 . S
H895 C910 0.930 . S
C896 H884 0.930 . S
C896 C897 1.399 . S
C896 C901 1.399 . S
C897 C896 1.399 . S
C897 C898 1.376 . S
C898 H885 0.930 . S
C898 C897 1.376 . S
C898 C899 1.388 . S
C899 H886 0.930 . S
C899 C898 1.388 . S
C899 C900 1.390 . S
C900 C899 1.390 . S
C900 C901 1.394 . S
C900 C906 1.465 . S
C901 C896 1.399 . S
C901 C900 1.394 . S
C901 C902 1.516 . S
C902 C901 1.516 . S
C902 C903 1.502 . S
C902 C904 1.561 . S
C902 C905 1.526 . S
C903 H887 0.959 . S
C903 H888 0.959 . S
C903 H889 0.961 . S
C903 C902 1.502 . S
C904 H890 0.960 . S
C904 H891 0.961 . S
C904 H892 0.959 . S
C904 C902 1.561 . S
C905 C902 1.526 . S
C905 C906 1.396 . S
C905 C910 1.390 . S
C906 C900 1.465 . S
C906 C905 1.396 . S
C906 C907 1.399 . S
C907 H893 0.929 . S
C907 C906 1.399 . S
C907 C908 1.385 . S
C908 H894 0.931 . S
C908 C907 1.385 . S
C908 C909 1.389 . S
C909 C908 1.389 . S
C909 C910 1.387 . S
C910 H895 0.930 . S
C910 C905 1.390 . S
C910 C909 1.387 . S
H911 C923 0.930 . S
H912 C925 0.930 . S
H913 C926 0.930 . S
H914 C930 0.959 . S
H915 C930 0.959 . S
H916 C930 0.961 . S
H917 C931 0.960 . S
H918 C931 0.961 . S
H919 C931 0.959 . S
H920 C934 0.929 . S
H921 C935 0.931 . S
H922 C937 0.930 . S
C923 H911 0.930 . S
C923 C924 1.399 . S
C923 C928 1.399 . S
C924 C923 1.399 . S
C924 C925 1.376 . S
C925 H912 0.930 . S
C925 C924 1.376 . S
C925 C926 1.388 . S
C926 H913 0.930 . S
C926 C925 1.388 . S
C926 C927 1.390 . S
C927 C926 1.390 . S
C927 C928 1.394 . S
C927 C933 1.465 . S
C928 C923 1.399 . S
C928 C927 1.394 . S
C928 C929 1.516 . S
C929 C928 1.516 . S
C929 C930 1.502 . S
C929 C931 1.561 . S
C929 C932 1.526 . S
C930 H914 0.959 . S
C930 H915 0.959 . S
C930 H916 0.961 . S
C930 C929 1.502 . S
C931 H917 0.960 . S
C931 H918 0.961 . S
C931 H919 0.959 . S
C931 C929 1.561 . S
C932 C929 1.526 . S
C932 C933 1.396 . S
C932 C937 1.390 . S
C933 C927 1.465 . S
C933 C932 1.396 . S
C933 C934 1.399 . S
C934 H920 0.929 . S
C934 C933 1.399 . S
C934 C935 1.385 . S
C935 H921 0.931 . S
C935 C934 1.385 . S
C935 C936 1.389 . S
C936 C935 1.389 . S
C936 C937 1.387 . S
C937 H922 0.930 . S
C937 C932 1.390 . S
C937 C936 1.387 . S
H938 C950 0.930 . S
H939 C952 0.930 . S
H940 C953 0.930 . S
H941 C957 0.959 . S
H942 C957 0.959 . S
H943 C957 0.961 . S
H944 C958 0.960 . S
H945 C958 0.961 . S
H946 C958 0.959 . S
H947 C961 0.929 . S
H948 C962 0.931 . S
H949 C964 0.930 . S
C950 H938 0.930 . S
C950 C951 1.399 . S
C950 C955 1.399 . S
C951 C950 1.399 . S
C951 C952 1.376 . S
C952 H939 0.930 . S
C952 C951 1.376 . S
C952 C953 1.388 . S
C953 H940 0.930 . S
C953 C952 1.388 . S
C953 C954 1.390 . S
C954 C953 1.390 . S
C954 C955 1.394 . S
C954 C960 1.465 . S
C955 C950 1.399 . S
C955 C954 1.394 . S
C955 C956 1.516 . S
C956 C955 1.516 . S
C956 C957 1.502 . S
C956 C958 1.561 . S
C956 C959 1.526 . S
C957 H941 0.959 . S
C957 H942 0.959 . S
C957 H943 0.961 . S
C957 C956 1.502 . S
C958 H944 0.960 . S
C958 H945 0.961 . S
C958 H946 0.959 . S
C958 C956 1.561 . S
C959 C956 1.526 . S
C959 C960 1.396 . S
C959 C964 1.390 . S
C960 C954 1.465 . S
C960 C959 1.396 . S
C960 C961 1.399 . S
C961 H947 0.929 . S
C961 C960 1.399 . S
C961 C962 1.385 . S
C962 H948 0.931 . S
C962 C961 1.385 . S
C962 C963 1.389 . S
C963 C962 1.389 . S
C963 C964 1.387 . S
C964 H949 0.930 . S
C964 C959 1.390 . S
C964 C963 1.387 . S
H965 C977 0.930 . S
H966 C979 0.930 . S
H967 C980 0.930 . S
H968 C984 0.959 . S
H969 C984 0.959 . S
H970 C984 0.961 . S
H971 C985 0.960 . S
H972 C985 0.961 . S
H973 C985 0.959 . S
H974 C988 0.929 . S
H975 C989 0.931 . S
H976 C991 0.930 . S
C977 H965 0.930 . S
C977 C978 1.399 . S
C977 C982 1.399 . S
C978 C977 1.399 . S
C978 C979 1.376 . S
C979 H966 0.930 . S
C979 C978 1.376 . S
C979 C980 1.388 . S
C980 H967 0.930 . S
C980 C979 1.388 . S
C980 C981 1.390 . S
C981 C980 1.390 . S
C981 C982 1.394 . S
C981 C987 1.465 . S
C982 C977 1.399 . S
C982 C981 1.394 . S
C982 C983 1.516 . S
C983 C982 1.516 . S
C983 C984 1.502 . S
C983 C985 1.561 . S
C983 C986 1.526 . S
C984 H968 0.959 . S
C984 H969 0.959 . S
C984 H970 0.961 . S
C984 C983 1.502 . S
C985 H971 0.960 . S
C985 H972 0.961 . S
C985 H973 0.959 . S
C985 C983 1.561 . S
C986 C983 1.526 . S
C986 C987 1.396 . S
C986 C991 1.390 . S
C987 C981 1.465 . S
C987 C986 1.396 . S
C987 C988 1.399 . S
C988 H974 0.929 . S
C988 C987 1.399 . S
C988 C989 1.385 . S
C989 H975 0.931 . S
C989 C988 1.385 . S
C989 C990 1.389 . S
C990 C989 1.389 . S
C990 C991 1.387 . S
C991 H976 0.930 . S
C991 C986 1.390 . S
C991 C990 1.387 . S
H992 C1004 0.930 . S
H993 C1006 0.930 . S
H994 C1007 0.930 . S
H995 C1011 0.959 . S
H996 C1011 0.959 . S
H997 C1011 0.961 . S
H998 C1012 0.960 . S
H999 C1012 0.961 . S
H1000 C1012 0.959 . S
H1001 C1015 0.929 . S
H1002 C1016 0.931 . S
H1003 C1018 0.930 . S
C1004 H992 0.930 . S
C1004 C1005 1.399 . S
C1004 C1009 1.399 . S
C1005 C1004 1.399 . S
C1005 C1006 1.376 . S
C1006 H993 0.930 . S
C1006 C1005 1.376 . S
C1006 C1007 1.388 . S
C1007 H994 0.930 . S
C1007 C1006 1.388 . S
C1007 C1008 1.390 . S
C1008 C1007 1.390 . S
C1008 C1009 1.394 . S
C1008 C1014 1.465 . S
C1009 C1004 1.399 . S
C1009 C1008 1.394 . S
C1009 C1010 1.516 . S
C1010 C1009 1.516 . S
C1010 C1011 1.502 . S
C1010 C1012 1.561 . S
C1010 C1013 1.526 . S
C1011 H995 0.959 . S
C1011 H996 0.959 . S
C1011 H997 0.961 . S
C1011 C1010 1.502 . S
C1012 H998 0.960 . S
C1012 H999 0.961 . S
C1012 H1000 0.959 . S
C1012 C1010 1.561 . S
C1013 C1010 1.526 . S
C1013 C1014 1.396 . S
C1013 C1018 1.390 . S
C1014 C1008 1.465 . S
C1014 C1013 1.396 . S
C1014 C1015 1.399 . S
C1015 H1001 0.929 . S
C1015 C1014 1.399 . S
C1015 C1016 1.385 . S
C1016 H1002 0.931 . S
C1016 C1015 1.385 . S
C1016 C1017 1.389 . S
C1017 C1016 1.389 . S
C1017 C1018 1.387 . S
C1018 H1003 0.930 . S
C1018 C1013 1.390 . S
C1018 C1017 1.387 . S
H1019 C1031 0.930 . S
H1020 C1033 0.930 . S
H1021 C1034 0.930 . S
H1022 C1038 0.959 . S
H1023 C1038 0.959 . S
H1024 C1038 0.961 . S
H1025 C1039 0.960 . S
H1026 C1039 0.961 . S
H1027 C1039 0.959 . S
H1028 C1042 0.929 . S
H1029 C1043 0.931 . S
H1030 C1045 0.930 . S
C1031 H1019 0.930 . S
C1031 C1032 1.399 . S
C1031 C1036 1.399 . S
C1032 C1031 1.399 . S
C1032 C1033 1.376 . S
C1033 H1020 0.930 . S
C1033 C1032 1.376 . S
C1033 C1034 1.388 . S
C1034 H1021 0.930 . S
C1034 C1033 1.388 . S
C1034 C1035 1.390 . S
C1035 C1034 1.390 . S
C1035 C1036 1.394 . S
C1035 C1041 1.465 . S
C1036 C1031 1.399 . S
C1036 C1035 1.394 . S
C1036 C1037 1.516 . S
C1037 C1036 1.516 . S
C1037 C1038 1.502 . S
C1037 C1039 1.561 . S
C1037 C1040 1.526 . S
C1038 H1022 0.959 . S
C1038 H1023 0.959 . S
C1038 H1024 0.961 . S
C1038 C1037 1.502 . S
C1039 H1025 0.960 . S
C1039 H1026 0.961 . S
C1039 H1027 0.959 . S
C1039 C1037 1.561 . S
C1040 C1037 1.526 . S
C1040 C1041 1.396 . S
C1040 C1045 1.390 . S
C1041 C1035 1.465 . S
C1041 C1040 1.396 . S
C1041 C1042 1.399 . S
C1042 H1028 0.929 . S
C1042 C1041 1.399 . S
C1042 C1043 1.385 . S
C1043 H1029 0.931 . S
C1043 C1042 1.385 . S
C1043 C1044 1.389 . S
C1044 C1043 1.389 . S
C1044 C1045 1.387 . S
C1045 H1030 0.930 . S
C1045 C1040 1.390 . S
C1045 C1044 1.387 . S
H1046 C1058 0.930 . S
H1047 C1060 0.930 . S
H1048 C1061 0.930 . S
H1049 C1065 0.959 . S
H1050 C1065 0.959 . S
H1051 C1065 0.961 . S
H1052 C1066 0.960 . S
H1053 C1066 0.961 . S
H1054 C1066 0.959 . S
H1055 C1069 0.929 . S
H1056 C1070 0.931 . S
H1057 C1072 0.930 . S
C1058 H1046 0.930 . S
C1058 C1059 1.399 . S
C1058 C1063 1.399 . S
C1059 C1058 1.399 . S
C1059 C1060 1.376 . S
C1060 H1047 0.930 . S
C1060 C1059 1.376 . S
C1060 C1061 1.388 . S
C1061 H1048 0.930 . S
C1061 C1060 1.388 . S
C1061 C1062 1.390 . S
C1062 C1061 1.390 . S
C1062 C1063 1.394 . S
C1062 C1068 1.465 . S
C1063 C1058 1.399 . S
C1063 C1062 1.394 . S
C1063 C1064 1.516 . S
C1064 C1063 1.516 . S
C1064 C1065 1.502 . S
C1064 C1066 1.561 . S
C1064 C1067 1.526 . S
C1065 H1049 0.959 . S
C1065 H1050 0.959 . S
C1065 H1051 0.961 . S
C1065 C1064 1.502 . S
C1066 H1052 0.960 . S
C1066 H1053 0.961 . S
C1066 H1054 0.959 . S
C1066 C1064 1.561 . S
C1067 C1064 1.526 . S
C1067 C1068 1.396 . S
C1067 C1072 1.390 . S
C1068 C1062 1.465 . S
C1068 C1067 1.396 . S
C1068 C1069 1.399 . S
C1069 H1055 0.929 . S
C1069 C1068 1.399 . S
C1069 C1070 1.385 . S
C1070 H1056 0.931 . S
C1070 C1069 1.385 . S
C1070 C1071 1.389 . S
C1071 C1070 1.389 . S
C1071 C1072 1.387 . S
C1072 H1057 0.930 . S
C1072 C1067 1.390 . S
C1072 C1071 1.387 . S
H1073 C1085 0.930 . S
H1074 C1087 0.930 . S
H1075 C1088 0.930 . S
H1076 C1092 0.959 . S
H1077 C1092 0.959 . S
H1078 C1092 0.961 . S
H1079 C1093 0.960 . S
H1080 C1093 0.961 . S
H1081 C1093 0.959 . S
H1082 C1096 0.929 . S
H1083 C1097 0.931 . S
H1084 C1099 0.930 . S
C1085 H1073 0.930 . S
C1085 C1086 1.399 . S
C1085 C1090 1.399 . S
C1086 C1085 1.399 . S
C1086 C1087 1.376 . S
C1087 H1074 0.930 . S
C1087 C1086 1.376 . S
C1087 C1088 1.388 . S
C1088 H1075 0.930 . S
C1088 C1087 1.388 . S
C1088 C1089 1.390 . S
C1089 C1088 1.390 . S
C1089 C1090 1.394 . S
C1089 C1095 1.465 . S
C1090 C1085 1.399 . S
C1090 C1089 1.394 . S
C1090 C1091 1.516 . S
C1091 C1090 1.516 . S
C1091 C1092 1.502 . S
C1091 C1093 1.561 . S
C1091 C1094 1.526 . S
C1092 H1076 0.959 . S
C1092 H1077 0.959 . S
C1092 H1078 0.961 . S
C1092 C1091 1.502 . S
C1093 H1079 0.960 . S
C1093 H1080 0.961 . S
C1093 H1081 0.959 . S
C1093 C1091 1.561 . S
C1094 C1091 1.526 . S
C1094 C1095 1.396 . S
C1094 C1099 1.390 . S
C1095 C1089 1.465 . S
C1095 C1094 1.396 . S
C1095 C1096 1.399 . S
C1096 H1082 0.929 . S
C1096 C1095 1.399 . S
C1096 C1097 1.385 . S
C1097 H1083 0.931 . S
C1097 C1096 1.385 . S
C1097 C1098 1.389 . S
C1098 C1097 1.389 . S
C1098 C1099 1.387 . S
C1099 H1084 0.930 . S
C1099 C1094 1.390 . S
C1099 C1098 1.387 . S
H1100 C1112 0.930 . S
H1101 C1114 0.930 . S
H1102 C1115 0.930 . S
H1103 C1119 0.959 . S
H1104 C1119 0.959 . S
H1105 C1119 0.961 . S
H1106 C1120 0.960 . S
H1107 C1120 0.961 . S
H1108 C1120 0.959 . S
H1109 C1123 0.929 . S
H1110 C1124 0.931 . S
H1111 C1126 0.930 . S
C1112 H1100 0.930 . S
C1112 C1113 1.399 . S
C1112 C1117 1.399 . S
C1113 C1112 1.399 . S
C1113 C1114 1.376 . S
C1114 H1101 0.930 . S
C1114 C1113 1.376 . S
C1114 C1115 1.388 . S
C1115 H1102 0.930 . S
C1115 C1114 1.388 . S
C1115 C1116 1.390 . S
C1116 C1115 1.390 . S
C1116 C1117 1.394 . S
C1116 C1122 1.465 . S
C1117 C1112 1.399 . S
C1117 C1116 1.394 . S
C1117 C1118 1.516 . S
C1118 C1117 1.516 . S
C1118 C1119 1.502 . S
C1118 C1120 1.561 . S
C1118 C1121 1.526 . S
C1119 H1103 0.959 . S
C1119 H1104 0.959 . S
C1119 H1105 0.961 . S
C1119 C1118 1.502 . S
C1120 H1106 0.960 . S
C1120 H1107 0.961 . S
C1120 H1108 0.959 . S
C1120 C1118 1.561 . S
C1121 C1118 1.526 . S
C1121 C1122 1.396 . S
C1121 C1126 1.390 . S
C1122 C1116 1.465 . S
C1122 C1121 1.396 . S
C1122 C1123 1.399 . S
C1123 H1109 0.929 . S
C1123 C1122 1.399 . S
C1123 C1124 1.385 . S
C1124 H1110 0.931 . S
C1124 C1123 1.385 . S
C1124 C1125 1.389 . S
C1125 C1124 1.389 . S
C1125 C1126 1.387 . S
C1126 H1111 0.930 . S
C1126 C1121 1.390 . S
C1126 C1125 1.387 . S
H1127 C1139 0.930 . S
H1128 C1141 0.930 . S
H1129 C1142 0.930 . S
H1130 C1146 0.959 . S
H1131 C1146 0.959 . S
H1132 C1146 0.961 . S
H1133 C1147 0.960 . S
H1134 C1147 0.961 . S
H1135 C1147 0.959 . S
H1136 C1150 0.929 . S
H1137 C1151 0.931 . S
H1138 C1153 0.930 . S
C1139 H1127 0.930 . S
C1139 C1140 1.399 . S
C1139 C1144 1.399 . S
C1140 C1139 1.399 . S
C1140 C1141 1.376 . S
C1141 H1128 0.930 . S
C1141 C1140 1.376 . S
C1141 C1142 1.388 . S
C1142 H1129 0.930 . S
C1142 C1141 1.388 . S
C1142 C1143 1.390 . S
C1143 C1142 1.390 . S
C1143 C1144 1.394 . S
C1143 C1149 1.465 . S
C1144 C1139 1.399 . S
C1144 C1143 1.394 . S
C1144 C1145 1.516 . S
C1145 C1144 1.516 . S
C1145 C1146 1.502 . S
C1145 C1147 1.561 . S
C1145 C1148 1.526 . S
C1146 H1130 0.959 . S
C1146 H1131 0.959 . S
C1146 H1132 0.961 . S
C1146 C1145 1.502 . S
C1147 H1133 0.960 . S
C1147 H1134 0.961 . S
C1147 H1135 0.959 . S
C1147 C1145 1.561 . S
C1148 C1145 1.526 . S
C1148 C1149 1.396 . S
C1148 C1153 1.390 . S
C1149 C1143 1.465 . S
C1149 C1148 1.396 . S
C1149 C1150 1.399 . S
C1150 H1136 0.929 . S
C1150 C1149 1.399 . S
C1150 C1151 1.385 . S
C1151 H1137 0.931 . S
C1151 C1150 1.385 . S
C1151 C1152 1.389 . S
C1152 C1151 1.389 . S
C1152 C1153 1.387 . S
C1153 H1138 0.930 . S
C1153 C1148 1.390 . S
C1153 C1152 1.387 . S
H1154 C1166 0.930 . S
H1155 C1168 0.930 . S
H1156 C1169 0.930 . S
H1157 C1173 0.959 . S
H1158 C1173 0.959 . S
H1159 C1173 0.961 . S
H1160 C1174 0.960 . S
H1161 C1174 0.961 . S
H1162 C1174 0.959 . S
H1163 C1177 0.932 . S
H1164 C1178 0.931 1_655 S
H1165 C1180 0.930 . S
C1166 H1154 0.930 . S
C1166 C1167 1.399 . S
C1166 C1171 1.399 . S
C1167 C1166 1.399 . S
C1167 C1168 1.376 . S
C1168 H1155 0.930 . S
C1168 C1167 1.376 . S
C1168 C1169 1.388 . S
C1169 H1156 0.930 . S
C1169 C1168 1.388 . S
C1169 C1170 1.390 . S
C1170 C1169 1.390 . S
C1170 C1171 1.394 . S
C1170 C1176 1.465 . S
C1171 C1166 1.399 . S
C1171 C1170 1.394 . S
C1171 C1172 1.516 . S
C1172 C1171 1.516 . S
C1172 C1173 1.502 . S
C1172 C1174 1.561 . S
C1172 C1175 1.526 . S
C1173 H1157 0.959 . S
C1173 H1158 0.959 . S
C1173 H1159 0.961 . S
C1173 C1172 1.502 . S
C1174 H1160 0.960 . S
C1174 H1161 0.961 . S
C1174 H1162 0.959 . S
C1174 C1172 1.561 . S
C1175 C1172 1.526 . S
C1175 C1176 1.396 . S
C1175 C1180 1.390 . S
C1176 C1170 1.465 . S
C1176 C1175 1.396 . S
C1176 C1177 1.399 . S
C1177 H1163 0.932 . S
C1177 C1176 1.399 . S
C1177 C1178 1.385 . S
C1178 H1164 0.931 1_455 S
C1178 C1177 1.385 . S
C1178 C1179 1.389 . S
C1179 C1178 1.389 . S
C1179 C1180 1.387 . S
C1180 H1165 0.930 . S
C1180 C1175 1.390 . S
C1180 C1179 1.387 . S
H1181 C1193 0.930 . S
H1182 C1195 0.930 . S
H1183 C1196 0.930 . S
H1184 C1200 0.959 . S
H1185 C1200 0.959 . S
H1186 C1200 0.961 . S
H1187 C1201 0.960 . S
H1188 C1201 0.961 . S
H1189 C1201 0.959 . S
H1190 C1204 0.929 . S
H1191 C1205 0.931 . S
H1192 C1207 0.930 . S
C1193 H1181 0.930 . S
C1193 C1194 1.399 . S
C1193 C1198 1.399 . S
C1194 C1193 1.399 . S
C1194 C1195 1.376 . S
C1195 H1182 0.930 . S
C1195 C1194 1.376 . S
C1195 C1196 1.388 . S
C1196 H1183 0.930 . S
C1196 C1195 1.388 . S
C1196 C1197 1.390 . S
C1197 C1196 1.390 . S
C1197 C1198 1.394 . S
C1197 C1203 1.465 . S
C1198 C1193 1.399 . S
C1198 C1197 1.394 . S
C1198 C1199 1.516 . S
C1199 C1198 1.516 . S
C1199 C1200 1.502 . S
C1199 C1201 1.561 . S
C1199 C1202 1.526 . S
C1200 H1184 0.959 . S
C1200 H1185 0.959 . S
C1200 H1186 0.961 . S
C1200 C1199 1.502 . S
C1201 H1187 0.960 . S
C1201 H1188 0.961 . S
C1201 H1189 0.959 . S
C1201 C1199 1.561 . S
C1202 C1199 1.526 . S
C1202 C1203 1.396 . S
C1202 C1207 1.390 . S
C1203 C1197 1.465 . S
C1203 C1202 1.396 . S
C1203 C1204 1.399 . S
C1204 H1190 0.929 . S
C1204 C1203 1.399 . S
C1204 C1205 1.385 . S
C1205 H1191 0.931 . S
C1205 C1204 1.385 . S
C1205 C1206 1.389 . S
C1206 C1205 1.389 . S
C1206 C1207 1.387 . S
C1207 H1192 0.930 . S
C1207 C1202 1.390 . S
C1207 C1206 1.387 . S
C573 C1 1.483 . S
C585 C482 1.519 . S
C600 C80 1.344 . S
C612 C501 1.301 . S
C639 C538 1.749 . S
C627 C140 1.710 . S
C654 C211 1.694 . S
C666 C548 1.620 . S
C693 C518 2.000 . S
C681 C31 1.881 . S
C720 C488 1.451 . S
C708 C61 1.371 . S
C747 C559 1.474 . S
C735 C151 1.481 . S
C774 C529 1.377 . S
C762 C200 1.429 . S
C789 C20 1.692 . S
C801 C542 1.770 . S
C828 C509 1.666 . S
C816 C121 1.725 . S
C843 C181 1.688 . S
C855 C499 1.744 . S
C870 C91 1.227 . S
C882 C521 1.211 . S
C909 C481 1.522 . S
C897 C260 1.452 . S
C924 C320 1.281 . S
C936 C502 1.319 . S
C951 C361 1.758 . S
C963 C539 1.744 . S
C978 C451 1.642 . S
C990 C549 1.685 . S
C1005 C271 1.931 . S
C1017 C519 2.006 . S
C1044 C489 1.446 . S
C1032 C301 1.384 . S
C1071 C558 1.514 . S
C1059 C380 1.495 . S
C1098 C528 1.373 . S
C1086 C440 1.418 . S
C1113 C241 1.667 . S
C1125 C541 1.778 . S
C1152 C508 1.691 . S
C1140 C391 1.717 . S
C1179 C498 1.738 . S
C1167 C421 1.712 . S
C1194 C331 1.204 . S
C1206 C522 1.214 . S
