# Generated by pormake.
# Topology anh, (6,3)-cn, num edge types: 1
# Building blocks:
#     Node 0, Type 0, BuildingBlock: CUWYAW_clean_sbu_0, # of connection points: 6
#     Node 1, Type 0, BuildingBlock: CUWYAW_clean_sbu_0, # of connection points: 6
#     Node 2, Type 0, BuildingBlock: CUWYAW_clean_sbu_0, # of connection points: 6
#     Node 3, Type 1, BuildingBlock: BETDIP_clean_linker_0, # of connection points: 3
#     Node 4, Type 1, BuildingBlock: BETDIP_clean_linker_0, # of connection points: 3
#     Node 5, Type 1, BuildingBlock: BETDIP_clean_linker_0, # of connection points: 3
#     Node 6, Type 1, BuildingBlock: BETDIP_clean_linker_0, # of connection points: 3
#     Node 7, Type 1, BuildingBlock: BETDIP_clean_linker_0, # of connection points: 3
#     Node 8, Type 1, BuildingBlock: BETDIP_clean_linker_0, # of connection points: 3
#     Edge 9, Type (0, 1), BuildingBlock: OJICUG_clean_linker_0, # of connection points: 2
#     Edge 10, Type (0, 1), BuildingBlock: OJICUG_clean_linker_0, # of connection points: 2
#     Edge 11, Type (0, 1), BuildingBlock: OJICUG_clean_linker_0, # of connection points: 2
#     Edge 12, Type (0, 1), BuildingBlock: OJICUG_clean_linker_0, # of connection points: 2
#     Edge 13, Type (0, 1), BuildingBlock: OJICUG_clean_linker_0, # of connection points: 2
#     Edge 14, Type (0, 1), BuildingBlock: OJICUG_clean_linker_0, # of connection points: 2
#     Edge 15, Type (0, 1), BuildingBlock: OJICUG_clean_linker_0, # of connection points: 2
#     Edge 16, Type (0, 1), BuildingBlock: OJICUG_clean_linker_0, # of connection points: 2
#     Edge 17, Type (0, 1), BuildingBlock: OJICUG_clean_linker_0, # of connection points: 2
#     Edge 18, Type (0, 1), BuildingBlock: OJICUG_clean_linker_0, # of connection points: 2
#     Edge 19, Type (0, 1), BuildingBlock: OJICUG_clean_linker_0, # of connection points: 2
#     Edge 20, Type (0, 1), BuildingBlock: OJICUG_clean_linker_0, # of connection points: 2
#     Edge 21, Type (0, 1), BuildingBlock: OJICUG_clean_linker_0, # of connection points: 2
#     Edge 22, Type (0, 1), BuildingBlock: OJICUG_clean_linker_0, # of connection points: 2
#     Edge 23, Type (0, 1), BuildingBlock: OJICUG_clean_linker_0, # of connection points: 2
#     Edge 24, Type (0, 1), BuildingBlock: OJICUG_clean_linker_0, # of connection points: 2
#     Edge 25, Type (0, 1), BuildingBlock: OJICUG_clean_linker_0, # of connection points: 2
#     Edge 26, Type (0, 1), BuildingBlock: OJICUG_clean_linker_0, # of connection points: 2
# Relax obj value: 0.396
# Max RMSD: 0.197
# Mean RMSD: 0.140
data_MOF--net-anh--node1-CUWYAW_clean_sbu_0--node2-BETDIP_clean_linker_0--edge1-OJICUG_clean_linker_0
_symmetry_space_group_name_H-M    P1
_symmetry_Int_Tables_number       1
_symmetry_cell_setting            triclinic
loop_
_symmetry_equiv_pos_as_xyz
'x, y, z'
_cell_length_a     22.529372
_cell_length_b     22.512813
_cell_length_c     36.89099
_cell_angle_alpha  93.647918
_cell_angle_beta   87.899833
_cell_angle_gamma 119.86245
loop_
_atom_site_label
_atom_site_type_symbol
_atom_site_fract_x
_atom_site_fract_y
_atom_site_fract_z
_atom_type_partial_charge
C0 C 1.11325 0.5159 0.09494 0.0
Eu1 Eu 0.17686 0.63276 0.13121 0.0
C2 C 1.05388 0.44844 0.0963 0.0
C3 C 1.00489 0.43402 0.12379 0.0
C4 C 0.96394 0.36658 0.13357 0.0
C5 C 0.97361 0.31425 0.11649 0.0
C6 C 1.01567 0.32837 0.08549 0.0
C7 C 1.05563 0.39547 0.0754 0.0
C8 C 0.18818 0.65976 0.20491 0.0
C9 C 1.07491 0.70032 0.13553 0.0
C10 C 0.30792 0.90346 0.16938 0.0
Eu11 Eu 0.23805 0.77603 0.14745 0.0
C12 C 0.37921 0.95271 0.16159 0.0
C13 C 0.39636 1.0158 0.14753 0.0
C14 C 0.46331 1.05959 0.13604 0.0
C15 C 0.51329 1.04007 0.1381 0.0
C16 C 0.49497 0.97587 0.15141 0.0
C17 C 0.42886 0.9329 0.16313 0.0
C18 C 0.22447 0.73801 0.07533 0.0
C19 C 0.34198 0.70858 0.13198 0.0
O20 O 1.10248 0.5667 0.09015 0.0
O21 O 1.15927 0.53006 0.11965 0.0
O22 O 0.19132 0.60927 0.18781 0.0
O23 O 0.17182 0.69031 0.18292 0.0
O24 O 1.08404 0.6484 0.1239 0.0
O25 O 1.12699 0.75545 0.15107 0.0
O26 O 0.29688 0.85329 0.18983 0.0
O27 O 0.26894 0.88257 0.14078 0.0
O28 O 0.20703 0.78112 0.08961 0.0
O29 O 0.24675 0.7188 0.09972 0.0
O30 O 0.33659 0.76212 0.14625 0.0
O31 O 0.2854 0.6537 0.12042 0.0
H32 H 1.00311 0.47512 0.13988 0.0
H33 H 0.93014 0.35655 0.15685 0.0
H34 H 1.02416 0.28937 0.07163 0.0
H35 H 1.09341 0.40663 0.05396 0.0
H36 H 0.35793 1.03092 0.14532 0.0
H37 H 0.47644 1.10911 0.12635 0.0
H38 H 0.5325 0.95988 0.15458 0.0
H39 H 0.41698 0.88427 0.17351 0.0
C40 C 0.52738 0.2281 0.44489 0.0
Eu41 Eu 0.59658 0.17494 0.46833 0.0
C42 C 0.55456 0.29991 0.43635 0.0
C43 C 0.5349 0.34013 0.45843 0.0
C44 C 0.5782 0.41078 0.46231 0.0
C45 C 0.64131 0.44216 0.44368 0.0
C46 C 0.65557 0.40303 0.41739 0.0
C47 C 0.61272 0.33221 0.41389 0.0
C48 C 0.62437 0.18255 0.54074 0.0
C49 C 0.7599 0.2735 0.46732 0.0
C50 C 0.74624 1.07174 0.51245 0.0
Eu51 Eu 0.66608 1.10667 0.48338 0.0
C52 C 0.75958 1.01656 0.51994 0.0
C53 C 0.78527 0.98934 0.49249 0.0
C54 C 0.81711 0.95307 0.50154 0.0
C55 C 0.82321 0.94296 0.53814 0.0
C56 C 0.79099 0.96402 0.56514 0.0
C57 C 0.75984 1.00111 0.5561 0.0
C58 C 0.64692 1.10132 0.41161 0.0
C59 C 0.50517 1.0045 0.46685 0.0
O60 O 0.54738 0.19254 0.4237 0.0
O61 O 0.53089 0.21927 0.47925 0.0
O62 O 0.6363 0.23474 0.52251 0.0
O63 O 0.59972 0.12915 0.51995 0.0
O64 O 0.70173 0.26565 0.45524 0.0
O65 O 0.75723 0.22098 0.48355 0.0
O66 O 0.69755 1.07609 0.53067 0.0
O67 O 0.75161 1.08873 0.47882 0.0
O68 O 0.63787 1.04924 0.42924 0.0
O69 O 0.66531 0.15382 0.43274 0.0
O70 O 0.56051 1.00659 0.47993 0.0
O71 O 0.50914 1.06306 0.45905 0.0
H72 H 0.49041 0.31622 0.47603 0.0
H73 H 0.56562 0.43912 0.483 0.0
H74 H 0.70313 0.42609 0.40212 0.0
H75 H 0.62917 0.30256 0.39639 0.0
H76 H 0.7857 1.00047 0.4643 0.0
H77 H 0.84156 0.93791 0.48001 0.0
H78 H 0.7933 0.95536 0.59347 0.0
H79 H 0.7403 1.02175 0.57768 0.0
C80 C 0.87167 0.75901 0.78532 0.0
Eu81 Eu 0.74485 0.70228 0.80559 0.0
C82 C 0.91699 0.72955 0.78394 0.0
C83 C 0.97355 0.75767 0.807 0.0
C84 C 1.00637 0.72072 0.81311 0.0
C85 C 0.98309 0.65519 0.79612 0.0
C86 C 0.93045 0.62987 0.77053 0.0
C87 C 0.8976 0.66674 0.76444 0.0
C88 C 0.696 0.67797 0.87522 0.0
C89 C 0.67358 0.53126 0.79774 0.0
C90 C 0.46304 0.54885 0.79782 0.0
Eu91 Eu 0.59437 0.61917 0.79791 0.0
C92 C 0.39362 0.53149 0.80687 0.0
C93 C 0.34172 0.47131 0.79028 0.0
C94 C 0.27627 0.44037 0.80501 0.0
C95 C 0.26188 0.46998 0.83631 0.0
C96 C 0.31295 0.5343 0.85067 0.0
C97 C 0.37904 0.56464 0.83621 0.0
C98 C 0.66533 0.63796 0.73563 0.0
C99 C 0.66375 0.78893 0.80079 0.0
O100 O 0.82068 0.73004 0.76263 0.0
O101 O 0.85302 0.77051 0.81786 0.0
O102 O 0.76003 0.71125 0.86626 0.0
O103 O 0.65883 0.65647 0.847 0.0
O104 O 0.73086 0.59193 0.79658 0.0
O105 O 0.61421 0.52953 0.80216 0.0
O106 O 0.5005 0.5476 0.82375 0.0
O107 O 0.49712 0.59346 0.77337 0.0
O108 O 0.61461 0.57915 0.74373 0.0
O109 O 0.67575 0.68251 0.76059 0.0
O110 O 0.60652 0.72797 0.8014 0.0
O111 O 0.72441 0.79261 0.80238 0.0
H112 H 0.98895 0.80567 0.82242 0.0
H113 H 1.04606 0.74097 0.83351 0.0
H114 H 0.9117 0.57956 0.75709 0.0
H115 H 0.85403 0.64351 0.74637 0.0
H116 H 0.35311 0.44507 0.76778 0.0
H117 H 0.23874 0.39064 0.7935 0.0
H118 H 0.30291 0.55918 0.87426 0.0
H119 H 0.41938 0.6112 0.84923 0.0
H120 H 0.80481 1.09431 0.16892 0.0
H121 H 0.8134 1.07913 0.28337 0.0
H122 H 0.68973 0.1549 0.24244 0.0
H123 H 0.92185 1.03484 0.18135 0.0
C124 C 0.90833 1.07322 0.1908 0.0
C125 C 0.79222 1.10465 0.19612 0.0
C126 C 0.74732 0.13086 0.20137 0.0
C127 C 0.81801 1.08798 0.22567 0.0
C128 C 0.79619 1.09491 0.26069 0.0
C129 C 0.75069 0.12001 0.26653 0.0
C130 C 0.72797 0.1396 0.2372 0.0
N131 N 0.862 1.05951 0.22053 0.0
H132 H 0.92532 0.70084 0.5143 0.0
H133 H 0.91846 0.76243 0.62633 0.0
H134 H 0.73328 0.6138 0.57199 0.0
H135 H 1.06767 0.89643 0.58233 0.0
C136 C 1.01766 0.85923 0.57164 0.0
C137 C 0.89637 0.69593 0.53914 0.0
C138 C 0.82503 0.65407 0.53926 0.0
C139 C 0.92963 0.73665 0.57021 0.0
C140 C 0.89222 0.73131 0.60228 0.0
C141 C 0.82161 0.68531 0.60332 0.0
C142 C 0.78821 0.64821 0.57152 0.0
N143 N 0.99907 0.78881 0.56796 0.0
H144 H 0.98906 0.40876 0.87891 0.0
H145 H 1.06192 0.45745 -0.01119 0.0
H146 H 1.10706 0.61944 0.91798 0.0
H147 H 0.97494 0.25968 0.90978 0.0
C148 C 1.01175 0.31357 0.91502 0.0
C149 C 1.01714 0.44673 0.90045 0.0
C150 C 1.04812 0.51666 0.89411 0.0
C151 C 1.02217 0.42525 0.93456 0.0
C152 C 1.05778 0.47413 0.96257 0.0
C153 C 1.08905 0.54441 0.95639 0.0
C154 C 1.08413 0.56513 0.92225 0.0
N155 N 0.99537 0.3544 0.93976 0.0
H156 H 0.19891 0.6921 0.47046 0.0
H157 H 1.09736 0.58717 0.36979 0.0
H158 H 0.28132 0.78227 0.36744 0.0
H159 H 1.00186 0.55239 0.40476 0.0
C160 C 1.0142 0.53298 0.42784 0.0
C161 C 0.19606 0.68996 0.44114 0.0
C162 C 0.24853 0.74597 0.42135 0.0
C163 C 1.13853 0.63232 0.42292 0.0
C164 C 1.13776 0.63094 0.38453 0.0
C165 C 0.1886 0.68452 0.3644 0.0
C166 C 0.24223 0.74159 0.38311 0.0
N167 N 1.08309 0.57586 0.44241 0.0
H168 H 0.68127 0.22299 0.80454 0.0
H169 H 0.66278 1.10818 0.703 0.0
H170 H 0.65326 0.29458 0.70454 0.0
H171 H 0.60621 1.01569 0.74036 0.0
C172 C 0.64415 1.03219 0.76162 0.0
C173 C 0.67456 0.21668 0.77537 0.0
C174 C 0.66894 0.26782 0.75661 0.0
C175 C 0.6698 0.15642 0.75638 0.0
C176 C 0.66241 0.15073 0.71815 0.0
C177 C 0.65751 0.20056 0.69894 0.0
C178 C 0.65943 0.25737 0.71875 0.0
N179 N 0.6745 1.10346 0.77511 0.0
H180 H 0.65639 0.71984 0.13813 0.0
H181 H 0.75441 0.69808 0.03967 0.0
H182 H 0.55707 0.68289 0.03449 0.0
H183 H 0.78277 0.63695 0.07728 0.0
C184 C 0.80734 0.67727 0.09845 0.0
C185 C 0.65623 0.71155 0.1089 0.0
C186 C 0.59899 0.70327 0.08844 0.0
C187 C 0.7119 0.70621 0.09149 0.0
C188 C 0.71044 0.69661 0.0533 0.0
C189 C 0.65518 0.6877 0.03224 0.0
C190 C 0.60011 0.69062 0.05031 0.0
N191 N 0.76946 0.71138 0.11145 0.0
C192 C 0.47591 0.76244 0.13541 0.0
C193 C 0.41013 0.70877 0.12452 0.0
H194 H 0.5861 0.80298 0.13396 0.0
C195 C 0.40896 0.65225 0.10457 0.0
H196 H 0.48043 0.8071 0.15077 0.0
C197 C 0.46922 0.64999 0.09497 0.0
C198 C 0.53507 0.70373 0.10489 0.0
H199 H 0.36073 0.60921 0.09533 0.0
H200 H 0.46411 0.60582 0.07879 0.0
C201 C 0.53704 0.75978 0.12595 0.0
C202 C 0.89317 0.35722 0.47336 0.0
C203 C 0.82759 0.34046 0.46026 0.0
H204 H 1.00309 0.42946 0.47473 0.0
C205 C 0.82672 0.3892 0.43844 0.0
H206 H 0.8975 0.3216 0.48995 0.0
C207 C 0.88671 0.45061 0.42997 0.0
C208 C 0.95224 0.46807 0.44259 0.0
H209 H 0.77893 0.37947 0.42703 0.0
H210 H 0.8815 0.48476 0.41259 0.0
C211 C 0.95431 0.41988 0.46479 0.0
C212 C 0.59848 0.84804 0.78194 0.0
C213 C 0.65935 0.85369 0.79485 0.0
H214 H 0.54701 0.89788 0.76182 0.0
C215 C 0.71582 0.92143 0.79942 0.0
H216 H 0.55378 0.79789 0.77744 0.0
C217 C 0.71135 0.98037 0.79107 0.0
C218 C 0.65053 0.97376 0.77711 0.0
H219 H 0.76409 0.92899 0.80898 0.0
H220 H 0.75637 1.03068 0.79408 0.0
C221 C 0.59456 0.9062 0.77294 0.0
C222 C 0.95444 0.63909 0.10911 0.0
C223 C 1.00575 0.69608 0.12905 0.0
H224 H 0.85515 0.58956 0.08472 0.0
C225 C 0.98979 0.74798 0.14084 0.0
H226 H 0.96324 0.59782 0.0991 0.0
C227 C 0.92551 0.74278 0.13266 0.0
C228 C 0.875 0.68565 0.11209 0.0
H229 H 1.02733 0.79318 0.15608 0.0
H230 H 0.91628 0.78421 0.14163 0.0
C231 C 0.89144 0.63429 0.1008 0.0
C232 C 0.38536 0.9375 0.43878 0.0
C233 C 0.43778 0.93687 0.45849 0.0
H234 H 0.2872 0.88093 0.41267 0.0
C235 C 0.42404 0.87143 0.46874 0.0
H236 H 0.39231 0.98555 0.42999 0.0
C237 C 0.36151 0.80998 0.45907 0.0
C238 C 0.31024 0.81107 0.43836 0.0
H239 H 0.46205 0.86741 0.48387 0.0
H240 H 0.3546 0.76121 0.46658 0.0
C241 C 0.32394 0.87664 0.42884 0.0
C242 C 0.61172 0.39982 0.78645 0.0
C243 C 0.67379 0.46283 0.79146 0.0
H244 H 0.56144 0.29101 0.77245 0.0
C245 C 0.73454 0.45862 0.78848 0.0
H246 H 0.56339 0.39932 0.78794 0.0
C247 C 0.73308 0.39501 0.78011 0.0
C248 C 0.67088 0.33249 0.77436 0.0
H249 H 0.78365 0.50496 0.79173 0.0
H250 H 0.78115 0.3953 0.77659 0.0
C251 C 0.61038 0.33669 0.77782 0.0
C252 C 0.91375 0.94918 0.57816 0.0
C253 C 0.86992 0.91839 0.54811 0.0
H254 H 0.99537 0.95442 0.60899 0.0
C255 C 0.87634 0.86934 0.52554 0.0
H256 H 0.9116 0.98877 0.59547 0.0
C257 C 0.9264 0.85266 0.53233 0.0
C258 C 0.96865 0.88174 0.56289 0.0
H259 H 0.84355 0.84468 0.50219 0.0
H260 H 0.93248 0.81747 0.51334 0.0
C261 C 0.96263 0.93075 0.58553 0.0
C262 C 0.95374 0.54458 0.82184 0.0
C263 C 1.00427 0.6092 0.81067 0.0
H264 H 0.92846 0.46415 0.85742 0.0
C265 C 1.07257 0.63454 0.82054 0.0
H266 H 0.90053 0.52386 0.81478 0.0
C267 C 1.08865 0.60004 0.84498 0.0
C268 C 1.03646 0.54012 0.85999 0.0
H269 H 1.11251 0.68373 0.81173 0.0
H270 H 1.1409 0.62315 0.85439 0.0
C271 C 0.96975 0.51026 0.84638 0.0
C272 C 0.61352 0.15031 0.15667 0.0
C273 C 0.5867 1.08998 0.13433 0.0
H274 H 0.69132 0.21493 0.19477 0.0
C275 C 0.63055 1.06559 0.12184 0.0
H276 H 0.58196 0.1724 0.16551 0.0
C277 C 0.69097 1.08652 0.14045 0.0
C278 C 0.70923 0.13485 0.17018 0.0
H279 H 0.61198 1.02093 0.10314 0.0
H280 H 0.71628 1.0569 0.13471 0.0
C281 C 0.6756 0.17348 0.17421 0.0
C282 C 0.68216 0.55972 0.47234 0.0
C283 C 0.69688 0.50916 0.45805 0.0
H284 H 0.71243 0.64656 0.50963 0.0
C285 C 0.76129 0.5164 0.46488 0.0
H286 H 0.63349 0.55618 0.46705 0.0
C287 C 0.80659 0.56828 0.48889 0.0
C288 C 0.78786 0.61337 0.50658 0.0
H289 H 0.77406 0.47812 0.45471 0.0
H290 H 0.85309 0.56896 0.49619 0.0
C291 C 0.72719 0.61127 0.49665 0.0
C292 C 0.19726 0.43071 0.89432 0.0
C293 C 0.19709 0.4296 0.8562 0.0
H294 H 1.13824 0.39297 0.94269 0.0
C295 C 1.13598 0.38537 0.83745 0.0
H296 H 0.2437 0.46255 0.90963 0.0
C297 C 1.07621 0.3434 0.85652 0.0
C298 C 1.07653 0.34641 0.89451 0.0
H299 H 1.13406 0.3838 0.8081 0.0
H300 H 1.02915 0.31132 0.84172 0.0
C301 C 1.13741 0.38977 0.91326 0.0
C302 C 0.96367 0.25554 0.17301 0.0
C303 C 0.95396 0.25114 0.13529 0.0
H304 H 0.95953 0.20269 0.21996 0.0
C305 C 0.93532 0.18887 0.11559 0.0
H306 H 0.98041 0.30331 0.18888 0.0
C307 C 0.92614 0.13197 0.13337 0.0
C308 C 0.93364 0.13626 0.17112 0.0
H309 H 0.92768 0.18412 0.08651 0.0
H310 H 0.90934 1.08369 0.11801 0.0
C311 C 0.95368 0.19864 0.19073 0.0
C312 C 1.14572 0.69849 0.02218 0.0
C313 C 0.19638 0.69563 0.04166 0.0
H314 H 1.07112 0.65156 0.97984 0.0
C315 C 0.21416 0.6451 0.03161 0.0
H316 H 1.13089 0.73665 0.02955 0.0
C317 C 0.17907 0.59571 0.00396 0.0
C318 C 1.12665 0.59695 -0.01459 0.0
H319 H 0.25336 0.64199 0.04615 0.0
H320 H 0.1926 0.55637 -0.0028 0.0
C321 C 1.11126 0.64957 -0.00592 0.0
C322 C 0.65504 1.04675 0.35263 0.0
C323 C 0.66434 1.10571 0.37275 0.0
H324 H 0.67624 1.00591 0.3031 0.0
C325 C 0.69759 0.16941 0.35659 0.0
H326 H 0.62893 0.99696 0.36429 0.0
C327 C 0.72456 0.17437 0.32145 0.0
C328 C 0.71899 0.11582 0.30247 0.0
H329 H 0.70517 0.21563 0.37159 0.0
H330 H 0.75182 0.22399 0.30964 0.0
C331 C 0.68249 1.05186 0.31784 0.0
C332 C 0.69862 0.59528 0.67938 0.0
C333 C 0.7052 0.65073 0.70186 0.0
H334 H 0.73146 0.56313 0.63073 0.0
C335 C 0.75019 0.71804 0.69191 0.0
H336 H 0.66438 0.54294 0.68661 0.0
C337 C 0.78879 0.72968 0.65998 0.0
C338 C 0.78227 0.6741 0.6375 0.0
H339 H 0.75545 0.76158 0.70877 0.0
H340 H 0.82285 0.78193 0.65258 0.0
C341 C 0.73688 0.60685 0.64748 0.0
C342 C 0.60699 0.12588 0.60065 0.0
C343 C 0.63474 0.18553 0.58083 0.0
H344 H 0.59057 1.08325 0.65301 0.0
C345 C 0.67232 0.24928 0.59984 0.0
H346 H 0.57801 1.07583 0.58687 0.0
C347 C 0.68089 0.25366 0.63759 0.0
C348 C 0.65114 0.19445 0.65797 0.0
H349 H 0.69543 0.29624 0.58546 0.0
H350 H 0.71129 0.30403 0.65075 0.0
C351 C 0.61469 0.13026 0.63869 0.0
C352 C 0.63388 0.69636 0.92953 0.0
C353 C 0.67297 0.66827 0.91396 0.0
H354 H 0.59912 0.72664 0.97847 0.0
C355 C 0.70088 0.64154 0.93716 0.0
H356 H 0.61291 0.71872 0.91244 0.0
C357 C 0.69165 0.64426 0.97496 0.0
C358 C 0.65651 0.67655 -0.00879 0.0
H359 H 0.73156 0.61985 0.92604 0.0
H360 H 0.7138 0.62225 -0.00856 0.0
C361 C 0.62616 0.70092 0.96762 0.0
C362 C 0.19593 0.7278 0.26429 0.0
C363 C 0.186 0.66696 0.24563 0.0
H364 H 0.2056 0.78171 0.31617 0.0
C365 C 0.17631 0.61244 0.26645 0.0
H366 H 0.20398 0.77098 0.24923 0.0
C367 C 0.17615 0.61811 0.30458 0.0
C368 C 0.18707 0.67903 0.32342 0.0
H369 H 1.16869 0.56484 0.2532 0.0
H370 H 1.16886 0.57492 0.3194 0.0
C371 C 0.19722 0.73403 0.30268 0.0
loop_
_geom_bond_atom_site_label_1
_geom_bond_atom_site_label_2
_geom_bond_distance
_geom_bond_site_symmetry_2
_ccdc_geom_bond_type
C0 Eu1 2.835 . S
C0 C2 1.500 . S
C0 O20 1.257 . S
C0 O21 1.260 . S
Eu1 C0 2.835 . S
Eu1 O20 2.473 . S
Eu1 O21 2.480 . S
Eu1 O22 2.430 1_655 S
Eu1 O23 2.670 1_655 S
Eu1 O24 2.394 . S
Eu1 O29 2.355 1_655 S
Eu1 O31 2.374 1_655 S
C2 C0 1.500 . S
C2 C3 1.377 . S
C2 C7 1.377 . S
C3 C2 1.377 . S
C3 C4 1.395 . S
C3 H32 0.931 . S
C4 C3 1.395 . S
C4 C5 1.383 . S
C4 H33 0.931 . S
C5 C4 1.383 . S
C5 C6 1.394 . S
C6 C5 1.394 . S
C6 C7 1.378 . S
C6 H34 0.931 . S
C7 C2 1.377 . S
C7 C6 1.378 . S
C7 H35 0.931 . S
C8 O22 1.259 . S
C8 O23 1.270 . S
C9 O24 1.251 . S
C9 O25 1.251 . S
C10 Eu11 2.835 . S
C10 C12 1.500 . S
C10 O26 1.257 . S
C10 O27 1.260 . S
Eu11 C10 2.835 . S
Eu11 O23 2.355 . S
Eu11 O25 2.374 1_455 S
Eu11 O26 2.473 . S
Eu11 O27 2.480 . S
Eu11 O28 2.430 . S
Eu11 O29 2.670 . S
Eu11 O30 2.394 . S
C12 C10 1.500 . S
C12 C13 1.377 . S
C12 C17 1.377 . S
C13 C12 1.377 . S
C13 C14 1.395 . S
C13 H36 0.931 . S
C14 C13 1.395 . S
C14 C15 1.383 . S
C14 H37 0.931 . S
C15 C14 1.383 . S
C15 C16 1.394 . S
C16 C15 1.394 . S
C16 C17 1.378 . S
C16 H38 0.931 . S
C17 C12 1.377 . S
C17 C16 1.378 . S
C17 H39 0.931 . S
C18 O28 1.259 . S
C18 O29 1.270 . S
C19 O30 1.251 . S
C19 O31 1.251 . S
O20 C0 1.257 . S
O20 Eu1 2.473 . S
O21 C0 1.260 . S
O21 Eu1 2.480 . S
O22 Eu1 2.430 1_455 S
O22 C8 1.259 . S
O23 Eu1 2.670 1_455 S
O23 C8 1.270 . S
O23 Eu11 2.355 . S
O24 Eu1 2.394 . S
O24 C9 1.251 . S
O25 C9 1.251 . S
O25 Eu11 2.374 1_655 S
O26 C10 1.257 . S
O26 Eu11 2.473 . S
O27 C10 1.260 . S
O27 Eu11 2.480 . S
O28 Eu11 2.430 . S
O28 C18 1.259 . S
O29 Eu1 2.355 1_455 S
O29 Eu11 2.670 . S
O29 C18 1.270 . S
O30 Eu11 2.394 . S
O30 C19 1.251 . S
O31 Eu1 2.374 1_455 S
O31 C19 1.251 . S
H32 C3 0.931 . S
H33 C4 0.931 . S
H34 C6 0.931 . S
H35 C7 0.931 . S
H36 C13 0.931 . S
H37 C14 0.931 . S
H38 C16 0.931 . S
H39 C17 0.931 . S
C40 Eu41 2.835 . S
C40 C42 1.500 . S
C40 O60 1.257 . S
C40 O61 1.260 . S
Eu41 C40 2.835 . S
Eu41 O60 2.473 . S
Eu41 O61 2.480 . S
Eu41 O62 2.430 . S
Eu41 O63 2.670 . S
Eu41 O64 2.394 . S
Eu41 O69 2.355 . S
Eu41 O71 2.374 1_545 S
C42 C40 1.500 . S
C42 C43 1.377 . S
C42 C47 1.377 . S
C43 C42 1.377 . S
C43 C44 1.395 . S
C43 H72 0.931 . S
C44 C43 1.395 . S
C44 C45 1.383 . S
C44 H73 0.931 . S
C45 C44 1.383 . S
C45 C46 1.394 . S
C46 C45 1.394 . S
C46 C47 1.378 . S
C46 H74 0.931 . S
C47 C42 1.377 . S
C47 C46 1.378 . S
C47 H75 0.931 . S
C48 O62 1.259 . S
C48 O63 1.270 . S
C49 O64 1.251 . S
C49 O65 1.251 . S
C50 Eu51 2.835 1_565 S
C50 C52 1.500 . S
C50 O66 1.257 . S
C50 O67 1.260 . S
Eu51 C50 2.835 1_545 S
Eu51 O63 2.355 . S
Eu51 O65 2.374 . S
Eu51 O66 2.473 1_545 S
Eu51 O67 2.480 1_545 S
Eu51 O68 2.430 . S
Eu51 O69 2.670 . S
Eu51 O70 2.394 1_545 S
C52 C50 1.500 . S
C52 C53 1.377 . S
C52 C57 1.377 . S
C53 C52 1.377 . S
C53 C54 1.395 . S
C53 H76 0.931 . S
C54 C53 1.395 . S
C54 C55 1.383 . S
C54 H77 0.931 . S
C55 C54 1.383 . S
C55 C56 1.394 . S
C56 C55 1.394 . S
C56 C57 1.378 . S
C56 H78 0.931 . S
C57 C52 1.377 . S
C57 C56 1.378 . S
C57 H79 0.931 . S
C58 O68 1.259 . S
C58 O69 1.270 . S
C59 O70 1.251 . S
C59 O71 1.251 . S
O60 C40 1.257 . S
O60 Eu41 2.473 . S
O61 C40 1.260 . S
O61 Eu41 2.480 . S
O62 Eu41 2.430 . S
O62 C48 1.259 . S
O63 Eu41 2.670 . S
O63 C48 1.270 . S
O63 Eu51 2.355 . S
O64 Eu41 2.394 . S
O64 C49 1.251 . S
O65 C49 1.251 . S
O65 Eu51 2.374 . S
O66 C50 1.257 . S
O66 Eu51 2.473 1_565 S
O67 C50 1.260 . S
O67 Eu51 2.480 1_565 S
O68 Eu51 2.430 . S
O68 C58 1.259 . S
O69 Eu41 2.355 . S
O69 Eu51 2.670 . S
O69 C58 1.270 . S
O70 Eu51 2.394 1_565 S
O70 C59 1.251 . S
O71 Eu41 2.374 1_565 S
O71 C59 1.251 . S
H72 C43 0.931 . S
H73 C44 0.931 . S
H74 C46 0.931 . S
H75 C47 0.931 . S
H76 C53 0.931 . S
H77 C54 0.931 . S
H78 C56 0.931 . S
H79 C57 0.931 . S
C80 Eu81 2.835 . S
C80 C82 1.500 . S
C80 O100 1.257 . S
C80 O101 1.260 . S
Eu81 C80 2.835 . S
Eu81 O100 2.473 . S
Eu81 O101 2.480 . S
Eu81 O102 2.430 . S
Eu81 O103 2.670 . S
Eu81 O104 2.394 . S
Eu81 O109 2.355 . S
Eu81 O111 2.374 . S
C82 C80 1.500 . S
C82 C83 1.377 . S
C82 C87 1.377 . S
C83 C82 1.377 . S
C83 C84 1.395 . S
C83 H112 0.931 . S
C84 C83 1.395 . S
C84 C85 1.383 . S
C84 H113 0.931 . S
C85 C84 1.383 . S
C85 C86 1.394 . S
C86 C85 1.394 . S
C86 C87 1.378 . S
C86 H114 0.931 . S
C87 C82 1.377 . S
C87 C86 1.378 . S
C87 H115 0.931 . S
C88 O102 1.259 . S
C88 O103 1.270 . S
C89 O104 1.251 . S
C89 O105 1.251 . S
C90 Eu91 2.835 . S
C90 C92 1.500 . S
C90 O106 1.257 . S
C90 O107 1.260 . S
Eu91 C90 2.835 . S
Eu91 O103 2.355 . S
Eu91 O105 2.374 . S
Eu91 O106 2.473 . S
Eu91 O107 2.480 . S
Eu91 O108 2.430 . S
Eu91 O109 2.670 . S
Eu91 O110 2.394 . S
C92 C90 1.500 . S
C92 C93 1.377 . S
C92 C97 1.377 . S
C93 C92 1.377 . S
C93 C94 1.395 . S
C93 H116 0.931 . S
C94 C93 1.395 . S
C94 C95 1.383 . S
C94 H117 0.931 . S
C95 C94 1.383 . S
C95 C96 1.394 . S
C96 C95 1.394 . S
C96 C97 1.378 . S
C96 H118 0.931 . S
C97 C92 1.377 . S
C97 C96 1.378 . S
C97 H119 0.931 . S
C98 O108 1.259 . S
C98 O109 1.270 . S
C99 O110 1.251 . S
C99 O111 1.251 . S
O100 C80 1.257 . S
O100 Eu81 2.473 . S
O101 C80 1.260 . S
O101 Eu81 2.480 . S
O102 Eu81 2.430 . S
O102 C88 1.259 . S
O103 Eu81 2.670 . S
O103 C88 1.270 . S
O103 Eu91 2.355 . S
O104 Eu81 2.394 . S
O104 C89 1.251 . S
O105 C89 1.251 . S
O105 Eu91 2.374 . S
O106 C90 1.257 . S
O106 Eu91 2.473 . S
O107 C90 1.260 . S
O107 Eu91 2.480 . S
O108 Eu91 2.430 . S
O108 C98 1.259 . S
O109 Eu81 2.355 . S
O109 Eu91 2.670 . S
O109 C98 1.270 . S
O110 Eu91 2.394 . S
O110 C99 1.251 . S
O111 Eu81 2.374 . S
O111 C99 1.251 . S
H112 C83 0.931 . S
H113 C84 0.931 . S
H114 C86 0.931 . S
H115 C87 0.931 . S
H116 C93 0.931 . S
H117 C94 0.931 . S
H118 C96 0.931 . S
H119 C97 0.931 . S
H120 C125 0.930 . S
H121 C128 0.930 . S
H122 C130 0.930 1_565 S
H123 C124 1.016 . S
C124 H123 1.016 . S
C124 N131 1.286 . S
C125 H120 0.930 . S
C125 C126 1.397 . S
C125 C127 1.361 . S
C126 C125 1.397 . S
C126 C130 1.390 . S
C127 C125 1.361 . S
C127 C128 1.393 . S
C127 N131 1.413 . S
C128 H121 0.930 . S
C128 C127 1.393 . S
C128 C129 1.399 . S
C129 C128 1.399 . S
C129 C130 1.381 . S
C130 H122 0.930 1_545 S
C130 C126 1.390 . S
C130 C129 1.381 . S
N131 C124 1.286 . S
N131 C127 1.413 . S
H132 C137 0.930 . S
H133 C140 0.930 . S
H134 C142 0.930 . S
H135 C136 1.016 . S
C136 H135 1.016 . S
C136 N143 1.286 . S
C137 H132 0.930 . S
C137 C138 1.397 . S
C137 C139 1.361 . S
C138 C137 1.397 . S
C138 C142 1.390 . S
C139 C137 1.361 . S
C139 C140 1.393 . S
C139 N143 1.413 . S
C140 H133 0.930 . S
C140 C139 1.393 . S
C140 C141 1.399 . S
C141 C140 1.399 . S
C141 C142 1.381 . S
C142 H134 0.930 . S
C142 C138 1.390 . S
C142 C141 1.381 . S
N143 C136 1.286 . S
N143 C139 1.413 . S
H144 C149 0.930 . S
H145 C152 0.930 . S
H146 C154 0.930 . S
H147 C148 1.016 . S
C148 H147 1.016 . S
C148 N155 1.286 . S
C149 H144 0.930 . S
C149 C150 1.397 . S
C149 C151 1.361 1_655 S
C150 C149 1.397 . S
C150 C154 1.390 . S
C151 C149 1.361 1_455 S
C151 C152 1.393 . S
C151 N155 1.413 . S
C152 H145 0.930 . S
C152 C151 1.393 . S
C152 C153 1.399 1_455 S
C153 C152 1.399 1_655 S
C153 C154 1.381 . S
C154 H146 0.930 . S
C154 C150 1.390 . S
C154 C153 1.381 . S
N155 C148 1.286 . S
N155 C151 1.413 . S
H156 C161 0.930 . S
H157 C164 0.930 1_655 S
H158 C166 0.930 . S
H159 C160 1.016 . S
C160 H159 1.016 . S
C160 N167 1.286 . S
C161 H156 0.930 . S
C161 C162 1.397 . S
C161 C163 1.361 . S
C162 C161 1.397 . S
C162 C166 1.390 . S
C163 C161 1.361 . S
C163 C164 1.393 . S
C163 N167 1.413 1_455 S
C164 H157 0.930 1_455 S
C164 C163 1.393 . S
C164 C165 1.399 . S
C165 C164 1.399 . S
C165 C166 1.381 . S
C166 H158 0.930 . S
C166 C162 1.390 . S
C166 C165 1.381 . S
N167 C160 1.286 . S
N167 C163 1.413 1_655 S
H168 C173 0.930 . S
H169 C176 0.930 . S
H170 C178 0.930 . S
H171 C172 1.016 . S
C172 H171 1.016 . S
C172 N179 1.286 . S
C173 H168 0.930 . S
C173 C174 1.397 . S
C173 C175 1.362 . S
C174 C173 1.397 . S
C174 C178 1.390 . S
C175 C173 1.362 . S
C175 C176 1.393 1_545 S
C175 N179 1.412 1_545 S
C176 H169 0.930 . S
C176 C175 1.393 1_565 S
C176 C177 1.399 1_565 S
C177 C176 1.399 1_545 S
C177 C178 1.381 . S
C178 H170 0.930 . S
C178 C174 1.390 . S
C178 C177 1.381 . S
N179 C172 1.286 . S
N179 C175 1.412 1_565 S
H180 C185 0.930 . S
H181 C188 0.930 . S
H182 C190 0.930 . S
H183 C184 1.016 . S
C184 H183 1.016 . S
C184 N191 1.286 . S
C185 H180 0.930 . S
C185 C186 1.397 . S
C185 C187 1.361 . S
C186 C185 1.397 . S
C186 C190 1.390 . S
C187 C185 1.361 . S
C187 C188 1.393 . S
C187 N191 1.413 . S
C188 H181 0.930 . S
C188 C187 1.393 . S
C188 C189 1.399 . S
C189 C188 1.399 . S
C189 C190 1.381 . S
C190 H182 0.930 . S
C190 C186 1.390 . S
C190 C189 1.381 . S
N191 C184 1.286 . S
N191 C187 1.413 . S
C192 C193 1.387 . S
C192 H196 0.950 . S
C192 C201 1.390 . S
C193 C192 1.387 . S
C193 C195 1.387 . S
H194 C201 0.950 . S
C195 C193 1.387 . S
C195 C197 1.390 . S
C195 H199 0.950 . S
H196 C192 0.950 . S
C197 C195 1.390 . S
C197 C198 1.387 . S
C197 H200 0.950 . S
C198 C197 1.387 . S
C198 C201 1.387 . S
H199 C195 0.950 . S
H200 C197 0.950 . S
C201 C192 1.390 . S
C201 H194 0.950 . S
C201 C198 1.387 . S
C202 C203 1.387 . S
C202 H206 0.950 . S
C202 C211 1.390 . S
C203 C202 1.387 . S
C203 C205 1.387 . S
H204 C211 0.950 . S
C205 C203 1.387 . S
C205 C207 1.390 . S
C205 H209 0.950 . S
H206 C202 0.950 . S
C207 C205 1.390 . S
C207 C208 1.387 . S
C207 H210 0.950 . S
C208 C207 1.387 . S
C208 C211 1.387 . S
H209 C205 0.950 . S
H210 C207 0.950 . S
C211 C202 1.390 . S
C211 H204 0.950 . S
C211 C208 1.387 . S
C212 C213 1.387 . S
C212 H216 0.950 . S
C212 C221 1.390 . S
C213 C212 1.387 . S
C213 C215 1.387 . S
H214 C221 0.950 . S
C215 C213 1.387 . S
C215 C217 1.390 . S
C215 H219 0.950 . S
H216 C212 0.950 . S
C217 C215 1.390 . S
C217 C218 1.387 . S
C217 H220 0.950 . S
C218 C217 1.387 . S
C218 C221 1.387 . S
H219 C215 0.950 . S
H220 C217 0.950 . S
C221 C212 1.390 . S
C221 H214 0.950 . S
C221 C218 1.387 . S
C222 C223 1.387 . S
C222 H226 0.950 . S
C222 C231 1.390 . S
C223 C222 1.387 . S
C223 C225 1.387 . S
H224 C231 0.950 . S
C225 C223 1.387 . S
C225 C227 1.390 . S
C225 H229 0.950 . S
H226 C222 0.950 . S
C227 C225 1.390 . S
C227 C228 1.387 . S
C227 H230 0.950 . S
C228 C227 1.387 . S
C228 C231 1.387 . S
H229 C225 0.950 . S
H230 C227 0.950 . S
C231 C222 1.390 . S
C231 H224 0.950 . S
C231 C228 1.387 . S
C232 C233 1.387 . S
C232 H236 0.950 . S
C232 C241 1.390 . S
C233 C232 1.387 . S
C233 C235 1.387 . S
H234 C241 0.950 . S
C235 C233 1.387 . S
C235 C237 1.390 . S
C235 H239 0.950 . S
H236 C232 0.950 . S
C237 C235 1.390 . S
C237 C238 1.387 . S
C237 H240 0.950 . S
C238 C237 1.387 . S
C238 C241 1.387 . S
H239 C235 0.950 . S
H240 C237 0.950 . S
C241 C232 1.390 . S
C241 H234 0.950 . S
C241 C238 1.387 . S
C242 C243 1.387 . S
C242 H246 0.950 . S
C242 C251 1.390 . S
C243 C242 1.387 . S
C243 C245 1.387 . S
H244 C251 0.950 . S
C245 C243 1.387 . S
C245 C247 1.390 . S
C245 H249 0.950 . S
H246 C242 0.950 . S
C247 C245 1.390 . S
C247 C248 1.387 . S
C247 H250 0.950 . S
C248 C247 1.387 . S
C248 C251 1.387 . S
H249 C245 0.950 . S
H250 C247 0.950 . S
C251 C242 1.390 . S
C251 H244 0.950 . S
C251 C248 1.387 . S
C252 C253 1.387 . S
C252 H256 0.950 . S
C252 C261 1.390 . S
C253 C252 1.387 . S
C253 C255 1.387 . S
H254 C261 0.950 . S
C255 C253 1.387 . S
C255 C257 1.390 . S
C255 H259 0.950 . S
H256 C252 0.950 . S
C257 C255 1.390 . S
C257 C258 1.387 . S
C257 H260 0.950 . S
C258 C257 1.387 . S
C258 C261 1.387 . S
H259 C255 0.950 . S
H260 C257 0.950 . S
C261 C252 1.390 . S
C261 H254 0.950 . S
C261 C258 1.387 . S
C262 C263 1.387 . S
C262 H266 0.950 . S
C262 C271 1.390 . S
C263 C262 1.387 . S
C263 C265 1.387 . S
H264 C271 0.950 . S
C265 C263 1.387 . S
C265 C267 1.390 . S
C265 H269 0.950 . S
H266 C262 0.950 . S
C267 C265 1.390 . S
C267 C268 1.387 . S
C267 H270 0.950 . S
C268 C267 1.387 . S
C268 C271 1.387 . S
H269 C265 0.950 . S
H270 C267 0.950 . S
C271 C262 1.390 . S
C271 H264 0.950 . S
C271 C268 1.387 . S
C272 C273 1.387 . S
C272 H276 0.950 . S
C272 C281 1.390 . S
C273 C272 1.387 . S
C273 C275 1.387 . S
H274 C281 0.950 . S
C275 C273 1.387 . S
C275 C277 1.390 . S
C275 H279 0.950 . S
H276 C272 0.950 . S
C277 C275 1.390 . S
C277 C278 1.387 . S
C277 H280 0.950 . S
C278 C277 1.387 . S
C278 C281 1.387 . S
H279 C275 0.950 . S
H280 C277 0.950 . S
C281 C272 1.390 . S
C281 H274 0.950 . S
C281 C278 1.387 . S
C282 C283 1.387 . S
C282 H286 0.950 . S
C282 C291 1.390 . S
C283 C282 1.387 . S
C283 C285 1.387 . S
H284 C291 0.950 . S
C285 C283 1.387 . S
C285 C287 1.390 . S
C285 H289 0.950 . S
H286 C282 0.950 . S
C287 C285 1.390 . S
C287 C288 1.387 . S
C287 H290 0.950 . S
C288 C287 1.387 . S
C288 C291 1.387 . S
H289 C285 0.950 . S
H290 C287 0.950 . S
C291 C282 1.390 . S
C291 H284 0.950 . S
C291 C288 1.387 . S
C292 C293 1.387 . S
C292 H296 0.950 . S
C292 C301 1.390 . S
C293 C292 1.387 . S
C293 C295 1.387 . S
H294 C301 0.950 . S
C295 C293 1.387 . S
C295 C297 1.390 . S
C295 H299 0.950 . S
H296 C292 0.950 . S
C297 C295 1.390 . S
C297 C298 1.387 . S
C297 H300 0.950 . S
C298 C297 1.387 . S
C298 C301 1.387 . S
H299 C295 0.950 . S
H300 C297 0.950 . S
C301 C292 1.390 . S
C301 H294 0.950 . S
C301 C298 1.387 . S
C302 C303 1.387 . S
C302 H306 0.950 . S
C302 C311 1.390 . S
C303 C302 1.387 . S
C303 C305 1.387 . S
H304 C311 0.950 . S
C305 C303 1.387 . S
C305 C307 1.390 . S
C305 H309 0.950 . S
H306 C302 0.950 . S
C307 C305 1.390 . S
C307 C308 1.387 . S
C307 H310 0.950 . S
C308 C307 1.387 . S
C308 C311 1.387 . S
H309 C305 0.950 . S
H310 C307 0.950 . S
C311 C302 1.390 . S
C311 H304 0.950 . S
C311 C308 1.387 . S
C312 C313 1.387 1_655 S
C312 H316 0.950 . S
C312 C321 1.390 . S
C313 C312 1.387 1_455 S
C313 C315 1.387 . S
H314 C321 0.950 1_556 S
C315 C313 1.387 . S
C315 C317 1.390 1_554 S
C315 H319 0.950 . S
H316 C312 0.950 . S
C317 C315 1.390 1_556 S
C317 C318 1.387 1_455 S
C317 H320 0.950 . S
C318 C317 1.387 1_655 S
C318 C321 1.387 1_556 S
H319 C315 0.950 . S
H320 C317 0.950 . S
C321 C312 1.390 . S
C321 H314 0.950 1_554 S
C321 C318 1.387 1_554 S
C322 C323 1.387 . S
C322 H326 0.950 . S
C322 C331 1.390 . S
C323 C322 1.387 . S
C323 C325 1.387 . S
H324 C331 0.950 . S
C325 C323 1.387 . S
C325 C327 1.390 . S
C325 H329 0.950 . S
H326 C322 0.950 . S
C327 C325 1.390 . S
C327 C328 1.387 . S
C327 H330 0.950 . S
C328 C327 1.387 . S
C328 C331 1.387 . S
H329 C325 0.950 . S
H330 C327 0.950 . S
C331 C322 1.390 . S
C331 H324 0.950 . S
C331 C328 1.387 . S
C332 C333 1.387 . S
C332 H336 0.950 . S
C332 C341 1.390 . S
C333 C332 1.387 . S
C333 C335 1.387 . S
H334 C341 0.950 . S
C335 C333 1.387 . S
C335 C337 1.390 . S
C335 H339 0.950 . S
H336 C332 0.950 . S
C337 C335 1.390 . S
C337 C338 1.387 . S
C337 H340 0.950 . S
C338 C337 1.387 . S
C338 C341 1.387 . S
H339 C335 0.950 . S
H340 C337 0.950 . S
C341 C332 1.390 . S
C341 H334 0.950 . S
C341 C338 1.387 . S
C342 C343 1.387 1_565 S
C342 H346 0.950 . S
C342 C351 1.390 . S
C343 C342 1.387 1_545 S
C343 C345 1.387 . S
H344 C351 0.950 . S
C345 C343 1.387 . S
C345 C347 1.390 . S
C345 H349 0.950 . S
H346 C342 0.950 . S
C347 C345 1.390 . S
C347 C348 1.387 . S
C347 H350 0.950 . S
C348 C347 1.387 . S
C348 C351 1.387 1_545 S
H349 C345 0.950 . S
H350 C347 0.950 . S
C351 C342 1.390 . S
C351 H344 0.950 . S
C351 C348 1.387 1_565 S
C352 C353 1.387 . S
C352 H356 0.950 . S
C352 C361 1.390 . S
C353 C352 1.387 . S
C353 C355 1.387 . S
H354 C361 0.950 . S
C355 C353 1.387 . S
C355 C357 1.374 1_556 S
C355 H359 0.950 . S
H356 C352 0.950 . S
C357 C355 1.374 1_554 S
C357 C358 1.392 . S
C357 H360 0.962 . S
C358 C357 1.392 . S
C358 C361 1.387 1_554 S
H359 C355 0.950 . S
H360 C357 0.962 . S
C361 C352 1.390 . S
C361 H354 0.950 . S
C361 C358 1.387 1_556 S
C362 C363 1.387 . S
C362 H366 0.950 1_455 S
C362 C371 1.390 . S
C363 C362 1.387 . S
C363 C365 1.387 . S
H364 C371 0.950 1_655 S
C365 C363 1.387 . S
C365 C367 1.390 . S
C365 H369 0.950 . S
H366 C362 0.950 1_655 S
C367 C365 1.390 . S
C367 C368 1.387 . S
C367 H370 0.950 . S
C368 C367 1.387 . S
C368 C371 1.387 . S
H369 C365 0.950 . S
H370 C367 0.950 . S
C371 C362 1.390 . S
C371 H364 0.950 1_455 S
C371 C368 1.387 . S
C193 C19 3.235 . S
C198 C186 3.248 . S
C203 C49 3.161 . S
C208 C160 3.069 . S
C213 C99 3.084 . S
C218 C172 3.007 . S
C223 C9 2.946 . S
C228 C184 2.821 . S
C238 C162 2.964 . S
C233 C59 2.997 . S
C248 C174 3.009 . S
C243 C89 3.049 . S
C253 C55 0.844 . S
C258 C136 0.866 . S
C263 C85 0.822 . S
C268 C150 0.876 . S
C273 C15 0.524 . S
C278 C126 0.453 1_565 S
C288 C138 0.718 . S
C283 C45 0.735 . S
C298 C148 0.438 . S
C293 C95 0.518 . S
C303 C5 0.740 . S
C308 C124 0.738 . S
C318 C153 1.134 . S
C313 C18 1.124 . S
C323 C58 1.059 . S
C328 C129 1.096 . S
C333 C98 1.176 . S
C338 C141 1.164 . S
C348 C177 1.772 . S
C343 C48 1.720 . S
C358 C189 1.871 . S
C353 C88 1.784 . S
C363 C8 1.711 . S
C368 C165 1.835 . S
