# Generated by pormake.
# Topology tsx, (6,3)-cn, num edge types: 1
# Building blocks:
#     Node 0, Type 0, BuildingBlock: VOLQOD_clean_sbu_1, # of connection points: 6
#     Node 1, Type 0, BuildingBlock: VOLQOD_clean_sbu_1, # of connection points: 6
#     Node 2, Type 1, BuildingBlock: MIDCAF_clean_linker_0, # of connection points: 3
#     Node 3, Type 1, BuildingBlock: MIDCAF_clean_linker_0, # of connection points: 3
#     Node 4, Type 1, BuildingBlock: MIDCAF_clean_linker_0, # of connection points: 3
#     Node 5, Type 1, BuildingBlock: MIDCAF_clean_linker_0, # of connection points: 3
#     Edge 6, Type (0, 1), BuildingBlock: EZIPEK_clean_linker_0, # of connection points: 2
#     Edge 7, Type (0, 1), BuildingBlock: EZIPEK_clean_linker_0, # of connection points: 2
#     Edge 8, Type (0, 1), BuildingBlock: EZIPEK_clean_linker_0, # of connection points: 2
#     Edge 9, Type (0, 1), BuildingBlock: EZIPEK_clean_linker_0, # of connection points: 2
#     Edge 10, Type (0, 1), BuildingBlock: EZIPEK_clean_linker_0, # of connection points: 2
#     Edge 11, Type (0, 1), BuildingBlock: EZIPEK_clean_linker_0, # of connection points: 2
#     Edge 12, Type (0, 1), BuildingBlock: EZIPEK_clean_linker_0, # of connection points: 2
#     Edge 13, Type (0, 1), BuildingBlock: EZIPEK_clean_linker_0, # of connection points: 2
#     Edge 14, Type (0, 1), BuildingBlock: EZIPEK_clean_linker_0, # of connection points: 2
#     Edge 15, Type (0, 1), BuildingBlock: EZIPEK_clean_linker_0, # of connection points: 2
#     Edge 16, Type (0, 1), BuildingBlock: EZIPEK_clean_linker_0, # of connection points: 2
#     Edge 17, Type (0, 1), BuildingBlock: EZIPEK_clean_linker_0, # of connection points: 2
# Relax obj value: 0.076
# Max RMSD: 0.108
# Mean RMSD: 0.083
data_MOF--net-tsx--node1-VOLQOD_clean_sbu_1--node2-MIDCAF_clean_linker_0--edge1-EZIPEK_clean_linker_0
_symmetry_space_group_name_H-M    P1
_symmetry_Int_Tables_number       1
_symmetry_cell_setting            triclinic
loop_
_symmetry_equiv_pos_as_xyz
'x, y, z'
_cell_length_a     19.575805
_cell_length_b     20.375886
_cell_length_c     38.45599
_cell_angle_alpha  90.275598
_cell_angle_beta   90.01003
_cell_angle_gamma 89.901335
loop_
_atom_site_label
_atom_site_type_symbol
_atom_site_fract_x
_atom_site_fract_y
_atom_site_fract_z
_atom_type_partial_charge
O0 O 0.04658 0.97056 0.08377 0.0
Zn1 Zn 0.07137 0.99041 0.0338 0.0
O2 O 0.98973 -0.00584 0.00449 0.0
Zn3 Zn 0.99029 0.92075 0.97155 0.0
Zn4 Zn 0.90808 0.98904 0.03363 0.0
Zn5 Zn 0.98946 0.07655 0.97878 0.0
O6 O -0.00549 0.95315 0.92207 0.0
O7 O -0.00361 0.06196 0.92717 0.0
O8 O 0.13705 0.92156 0.01614 0.0
O9 O 0.07384 0.86519 0.97843 0.0
O10 O 0.90713 0.86331 0.97642 0.0
O11 O 0.85121 0.91116 0.02007 0.0
O12 O 0.84811 0.06901 0.02842 0.0
O13 O 0.12114 0.07676 0.03352 0.0
O14 O 0.90285 0.12559 0.98768 0.0
O15 O 0.06641 0.13546 0.99358 0.0
C16 C 0.98956 0.96908 0.09976 0.0
C17 C -0.00286 0.01009 0.90865 0.0
C18 C 0.85677 0.86595 0.9973 0.0
C19 C 0.12935 0.87367 0.99511 0.0
C20 C 0.85236 0.11787 0.00804 0.0
C21 C 0.11378 0.12911 0.01597 0.0
O22 O 0.93302 0.97747 0.084 0.0
O23 O 0.57822 0.48922 0.58371 0.0
Zn24 Zn 0.607 0.48342 0.53334 0.0
O25 O 0.52844 0.4956 0.50301 0.0
Zn26 Zn 0.52568 0.42426 0.46914 0.0
Zn27 Zn 0.44495 0.49509 0.53032 0.0
Zn28 Zn 0.53509 0.58018 0.47975 0.0
O29 O 0.52704 0.45883 0.42038 0.0
O30 O 0.53854 0.56689 0.42753 0.0
O31 O 0.65564 0.3978 0.5243 0.0
O32 O 0.60516 0.36322 0.47569 0.0
O33 O 0.44254 0.3679 0.47556 0.0
O34 O 0.3953 0.41056 0.52322 0.0
O35 O 0.38126 0.56724 0.51496 0.0
O36 O 0.67522 0.55515 0.52593 0.0
O37 O 0.45169 0.63594 0.48838 0.0
O38 O 0.61835 0.62992 0.49551 0.0
C39 C 0.52102 0.49904 0.59869 0.0
C40 C 0.53334 0.51635 0.40806 0.0
C41 C 0.3982 0.36652 0.49972 0.0
C42 C 0.65026 0.35708 0.49927 0.0
C43 C 0.39254 0.62154 0.49975 0.0
C44 C 0.6709 0.612 0.51256 0.0
O45 O 0.46552 0.50439 0.5816 0.0
C46 C 0.80454 0.12284 0.42758 0.0
C47 C 0.81145 0.13321 0.46341 0.0
C48 C 0.85259 0.09094 0.48307 0.0
C49 C 0.8873 0.03911 0.46681 0.0
H50 H 0.06646 0.91811 0.47456 0.0
H51 H 0.16036 0.85561 0.50079 0.0
H52 H 0.1331 0.70276 0.42409 0.0
H53 H 0.04095 0.76567 0.39714 0.0
H54 H 0.03192 0.8461 0.31711 0.0
H55 H 0.04136 0.85207 0.25368 0.0
H56 H 0.89675 0.01164 0.25232 0.0
H57 H 0.88653 0.0064 0.31553 0.0
H58 H 0.83304 0.06526 0.38351 0.0
H59 H 0.77286 0.15516 0.41212 0.0
H60 H 0.85834 0.09854 0.51082 0.0
H61 H 0.91938 0.00759 0.4825 0.0
N62 N 0.96167 0.93551 0.4309 0.0
N63 N -0.00331 0.88491 0.37884 0.0
N64 N 0.9191 0.97228 0.37742 0.0
C65 C -0.00082 0.889 0.41413 0.0
C66 C 0.95684 0.92657 0.36024 0.0
C67 C 0.92084 0.97693 0.41267 0.0
C68 C 0.04714 0.84698 0.43355 0.0
C69 C 0.07962 0.87054 0.46376 0.0
C70 C 0.13313 0.83497 0.4788 0.0
C71 C 0.15365 0.77479 0.46426 0.0
C72 C 0.11791 0.74916 0.43563 0.0
C73 C 0.06558 0.78523 0.42019 0.0
C74 C 0.95866 0.92598 0.3216 0.0
C75 C 0.00155 0.88213 0.30339 0.0
C76 C 0.00714 0.88539 0.26715 0.0
C77 C 0.96992 0.93242 0.24853 0.0
C78 C 0.92589 0.97511 0.26638 0.0
C79 C 0.92018 0.9719 0.30254 0.0
C80 C 0.88147 0.0292 0.43063 0.0
C81 C 0.83909 0.07135 0.41133 0.0
C82 C 0.8355 0.85781 0.57098 0.0
C83 C 0.86245 0.81723 0.54478 0.0
C84 C 0.92906 0.82802 0.53261 0.0
C85 C 0.969 0.87763 0.54747 0.0
H86 H 0.08864 0.05305 0.52346 0.0
H87 H 0.16566 0.12678 0.49222 0.0
H88 H 0.2465 0.19719 0.58971 0.0
H89 H 0.17008 0.12428 0.62133 0.0
H90 H 0.09263 0.0919 0.69107 0.0
H91 H 0.08659 0.09597 0.75464 0.0
H92 H 0.93785 0.94034 0.75378 0.0
H93 H 0.94287 0.93579 0.69036 0.0
H94 H 0.85473 0.93505 0.60747 0.0
H95 H 0.78419 0.84996 0.58068 0.0
H96 H 0.95075 0.79673 0.51259 0.0
H97 H 0.02105 0.8841 0.53859 0.0
N98 N 0.03369 -0.00167 0.57666 0.0
N99 N 0.06894 0.04608 0.62933 0.0
N100 N 0.98195 0.96746 0.62908 0.0
C101 C 0.07441 0.04106 0.59415 0.0
C102 C 0.02296 0.00922 0.64702 0.0
C103 C 0.98723 0.96176 0.59401 0.0
C104 C 0.12294 0.08296 0.57498 0.0
C105 C 0.12302 0.08391 0.53833 0.0
C106 C 0.16679 0.1259 0.52038 0.0
C107 C 0.21114 0.16712 0.53884 0.0
C108 C 0.21225 0.16551 0.57522 0.0
C109 C 0.16848 0.12387 0.59318 0.0
C110 C 0.01832 0.01342 0.68548 0.0
C111 C 0.05841 0.05861 0.7043 0.0
C112 C 0.05509 0.06111 0.7406 0.0
C113 C 0.01191 0.01835 0.75869 0.0
C114 C 0.97144 0.97366 0.74013 0.0
C115 C 0.97448 0.97125 0.70387 0.0
C116 C 0.94321 0.91542 0.5752 0.0
C117 C 0.87582 0.90599 0.58637 0.0
C118 C 0.40411 0.72446 0.93626 0.0
C119 C 0.35723 0.70306 0.9614 0.0
C120 C 0.3617 0.63869 0.97403 0.0
C121 C 0.40991 0.59519 0.9602 0.0
H122 H 0.56013 0.44751 0.98455 0.0
H123 H 0.62159 0.36127 0.01595 0.0
H124 H 0.70167 0.28686 0.91907 0.0
H125 H 0.64071 0.37206 0.88734 0.0
H126 H 0.59863 0.43546 0.81709 0.0
H127 H 0.59437 0.43229 0.75355 0.0
H128 H 0.4631 0.60222 0.75339 0.0
H129 H 0.46695 0.60635 0.81694 0.0
H130 H 0.48382 0.69693 0.9009 0.0
H131 H 0.40157 0.77411 0.92637 0.0
H132 H 0.32594 0.62135 0.9934 0.0
H133 H 0.41072 0.54495 0.96931 0.0
N134 N 0.52525 0.51706 0.93159 0.0
N135 N 0.56411 0.47249 0.87884 0.0
N136 N 0.49816 0.56846 0.87885 0.0
C137 C 0.56089 0.47017 0.91414 0.0
C138 C 0.53268 0.52131 0.86095 0.0
C139 C 0.4944 0.56653 0.91411 0.0
C140 C 0.59576 0.41701 0.93336 0.0
C141 C 0.59058 0.4127 0.96984 0.0
C142 C 0.62544 0.36352 0.98788 0.0
C143 C 0.66613 0.31832 0.9697 0.0
C144 C 0.67045 0.32165 0.9334 0.0
C145 C 0.6356 0.37048 0.91536 0.0
C146 C 0.53304 0.52115 0.8223 0.0
C147 C 0.56905 0.47248 0.80367 0.0
C148 C 0.5667 0.47045 0.76734 0.0
C149 C 0.5283 0.51689 0.74894 0.0
C150 C 0.49296 0.56597 0.76725 0.0
C151 C 0.49539 0.56821 0.80358 0.0
C152 C 0.45267 0.61509 0.93289 0.0
C153 C 0.45071 0.68044 0.92166 0.0
C154 C 0.30522 0.34372 0.08963 0.0
C155 C 0.29911 0.33688 0.05355 0.0
C156 C 0.33714 0.37764 0.03157 0.0
C157 C 0.38139 0.42462 0.04571 0.0
H158 H 0.52565 0.56854 0.02 0.0
H159 H 0.60294 0.63681 0.98513 0.0
H160 H 0.68023 0.72679 0.07885 0.0
H161 H 0.60409 0.6601 0.11371 0.0
H162 H 0.55924 0.61594 0.18641 0.0
H163 H 0.57351 0.61824 0.24968 0.0
H164 H 0.44645 0.44669 0.25875 0.0
H165 H 0.43121 0.4439 0.19574 0.0
H166 H 0.35269 0.39412 0.13181 0.0
H167 H 0.27598 0.31262 0.10688 0.0
H168 H 0.33267 0.37289 0.00359 0.0
H169 H 0.41043 0.45531 0.02819 0.0
N170 N 0.47264 0.52094 0.0771 0.0
N171 N 0.52238 0.56783 0.12686 0.0
N172 N 0.44234 0.48369 0.13264 0.0
C173 C 0.51627 0.56506 0.09167 0.0
C174 C 0.4857 0.52736 0.14755 0.0
C175 C 0.43528 0.48017 0.09753 0.0
C176 C 0.55896 0.60836 0.06976 0.0
C177 C 0.55872 0.60323 0.03316 0.0
C178 C 0.6027 0.64206 0.01318 0.0
C179 C 0.64721 0.68632 0.02962 0.0
C180 C 0.64622 0.69264 0.06585 0.0
C181 C 0.60259 0.65426 0.08572 0.0
C182 C 0.49404 0.52968 0.18588 0.0
C183 C 0.53426 0.57862 0.20179 0.0
C184 C 0.54259 0.58009 0.23791 0.0
C185 C 0.5113 0.53244 0.25867 0.0
C186 C 0.47112 0.4837 0.24301 0.0
C187 C 0.46241 0.48236 0.20698 0.0
C188 C 0.38802 0.43139 0.08203 0.0
C189 C 0.34919 0.39042 0.10376 0.0
C190 C 0.23201 0.17582 0.01656 0.0
C191 C 0.16095 0.18449 0.0223 0.0
C192 C 0.18077 0.29829 0.04045 0.0
C193 C 0.25212 0.2866 0.0393 0.0
N194 N 0.34685 0.21298 0.02945 0.0
N195 N 0.06768 0.25094 0.04391 0.0
C196 C 0.2782 0.22512 0.028 0.0
C197 C 0.1351 0.24516 0.03506 0.0
N198 N 0.25509 0.12134 0.99927 0.0
N199 N 0.15683 0.3604 0.04643 0.0
H200 H 0.03265 0.21281 0.04108 0.0
H201 H 0.0475 0.29153 0.05689 0.0
H202 H 0.18909 0.40039 0.05061 0.0
H203 H 0.10558 0.37342 0.04408 0.0
H204 H 0.30548 0.11538 0.99117 0.0
H205 H 0.22259 0.08459 0.99012 0.0
H206 H 0.36816 0.16667 0.02553 0.0
H207 H 0.38248 0.24831 0.03696 0.0
C208 C 0.22843 0.80273 0.01443 0.0
C209 C 0.18813 0.82989 0.98728 0.0
C210 C 0.25209 0.76512 0.94468 0.0
C211 C 0.29844 0.74554 0.971 0.0
N212 N 0.33753 0.75505 0.03033 0.0
N213 N 0.17588 0.85031 0.92555 0.0
C214 C 0.28867 0.76702 0.00579 0.0
C215 C 0.20392 0.81489 0.95207 0.0
N216 N 0.20786 0.80832 0.04827 0.0
N217 N 0.25242 0.73491 0.91286 0.0
H218 H 0.14398 0.89054 0.92963 0.0
H219 H 0.19102 0.84472 0.89971 0.0
H220 H 0.28487 0.6959 0.9067 0.0
H221 H 0.21522 0.74373 0.89404 0.0
H222 H 0.23213 0.78409 0.06863 0.0
H223 H 0.1625 0.83139 0.05561 0.0
H224 H 0.33599 0.77529 0.05525 0.0
H225 H 0.38274 0.7299 0.02481 0.0
C226 C 0.73469 0.83347 0.99012 0.0
C227 C 0.80349 0.81461 0.99611 0.0
C228 C 0.76622 0.70273 0.00905 0.0
C229 C 0.69784 0.7253 0.01001 0.0
N230 N 0.61469 0.8103 1.00026 0.0
N231 N 0.88592 0.73167 0.01225 0.0
C232 C 0.68123 0.78992 0.99954 0.0
C233 C 0.81988 0.74887 0.00502 0.0
N234 N 0.72094 0.89284 0.97524 0.0
N235 N 0.77948 0.63726 0.01267 0.0
H236 H 0.92694 0.76385 0.0099 0.0
H237 H 0.89977 0.68674 0.02295 0.0
H238 H 0.74074 0.6027 0.01595 0.0
H239 H 0.82766 0.61656 0.0091 0.0
H240 H 0.67231 0.90762 0.96759 0.0
H241 H 0.75946 0.92508 0.96762 0.0
H242 H 0.59966 0.85892 0.99707 0.0
H243 H 0.57434 0.77845 0.00552 0.0
C244 C 0.73215 0.15076 0.99348 0.0
C245 C 0.79732 0.16738 0.00708 0.0
C246 C 0.77076 0.28436 0.00261 0.0
C247 C 0.70638 0.2678 0.98815 0.0
N248 N 0.6179 0.18788 0.97872 0.0
N249 N 0.87094 0.24716 0.03408 0.0
C250 C 0.68437 0.20166 0.98674 0.0
C251 C 0.81394 0.23347 0.01485 0.0
N252 N 0.7176 0.08715 0.9848 0.0
N253 N 0.79214 0.34821 0.00289 0.0
H254 H 0.90269 0.21036 0.04381 0.0
H255 H 0.88301 0.2939 0.04322 0.0
H256 H 0.76139 0.38709 0.99481 0.0
H257 H 0.84174 0.36236 0.00915 0.0
H258 H 0.6743 0.07323 0.9709 0.0
H259 H 0.7509 0.04826 0.98954 0.0
H260 H 0.59689 0.14109 0.98033 0.0
H261 H 0.58202 0.22454 0.97358 0.0
C262 C 0.7516 0.69976 0.49188 0.0
C263 C 0.72619 0.66006 0.5193 0.0
C264 C 0.8077 0.71102 0.55918 0.0
C265 C 0.82285 0.75887 0.53381 0.0
N266 N 0.8051 0.80277 0.47634 0.0
N267 N 0.72145 0.63864 0.58134 0.0
C268 C 0.79412 0.75422 0.50006 0.0
C269 C 0.75231 0.66798 0.55358 0.0
N270 N 0.73701 0.68434 0.45807 0.0
N271 N 0.84618 0.70685 0.58875 0.0
H272 H 0.67737 0.61046 0.57935 0.0
H273 H 0.73501 0.6487 0.60703 0.0
H274 H 0.88821 0.7371 0.59342 0.0
H275 H 0.84088 0.66888 0.60662 0.0
H276 H 0.75919 0.70826 0.43703 0.0
H277 H 0.70859 0.64312 0.45101 0.0
H278 H 0.7793 0.80529 0.45268 0.0
H279 H 0.83621 0.84321 0.48136 0.0
C280 C 0.76282 0.30962 0.48138 0.0
C281 C 0.69785 0.30108 0.49695 0.0
C282 C 0.71197 0.18174 0.49573 0.0
C283 C 0.77647 0.19015 0.47958 0.0
N284 N 0.87095 0.26016 0.46471 0.0
N285 N 0.61823 0.23233 0.52739 0.0
C286 C 0.80447 0.25368 0.47501 0.0
C287 C 0.67493 0.23802 0.5069 0.0
N288 N 0.78323 0.37079 0.4713 0.0
N289 N 0.68487 0.12027 0.49889 0.0
H290 H 0.5909 0.27307 0.53632 0.0
H291 H 0.602 0.18824 0.53815 0.0
H292 H 0.71139 0.0778 0.49183 0.0
H293 H 0.63476 0.11142 0.50659 0.0
H294 H 0.82619 0.37944 0.45606 0.0
H295 H 0.75492 0.41311 0.47661 0.0
H296 H 0.89655 0.30485 0.46393 0.0
H297 H 0.90257 0.21989 0.45979 0.0
C298 C 0.37352 0.24698 0.50844 0.0
C299 C 0.34954 0.31149 0.5016 0.0
C300 C 0.23189 0.27764 0.51296 0.0
C301 C 0.25611 0.21372 0.52059 0.0
N302 N 0.34499 0.13229 0.51691 0.0
N303 N 0.25628 0.38409 0.48787 0.0
C304 C 0.32541 0.19663 0.51523 0.0
C305 C 0.27862 0.32542 0.50076 0.0
N306 N 0.44206 0.23474 0.51081 0.0
N307 N 0.16494 0.29334 0.51888 0.0
H308 H 0.28963 0.41962 0.47831 0.0
H309 H 0.20503 0.39512 0.48362 0.0
H310 H 0.12873 0.25889 0.52664 0.0
H311 H 0.14594 0.34105 0.51793 0.0
H312 H 0.46235 0.19081 0.51993 0.0
H313 H 0.47922 0.26998 0.50588 0.0
H314 H 0.39345 0.1157 0.50994 0.0
H315 H 0.31069 0.0945 0.52225 0.0
C316 C 0.28469 0.68027 0.51827 0.0
C317 C 0.3342 0.66618 0.49219 0.0
C318 C 0.27276 0.73794 0.45197 0.0
C319 C 0.21763 0.7421 0.47571 0.0
N320 N 0.16738 0.71114 0.53048 0.0
N321 N 0.36541 0.67101 0.4311 0.0
C322 C 0.22254 0.71184 0.50874 0.0
C323 C 0.32597 0.69249 0.45821 0.0
N324 N 0.29789 0.66567 0.55225 0.0
N325 N 0.27472 0.77787 0.42353 0.0
H326 H 0.40212 0.63433 0.43333 0.0
H327 H 0.35607 0.68417 0.40537 0.0
H328 H 0.23727 0.81305 0.41844 0.0
H329 H 0.31714 0.78092 0.40724 0.0
H330 H 0.26617 0.68019 0.57265 0.0
H331 H 0.34408 0.64541 0.56046 0.0
H332 H 0.16588 0.6837 0.55326 0.0
H333 H 0.12108 0.7337 0.52436 0.0
C334 C 0.95395 0.90151 0.15096 0.0
C335 C 0.9885 0.95732 0.13776 0.0
C336 C 0.01981 0.99028 0.19706 0.0
C337 C 0.97864 0.93892 0.21033 0.0
N338 N 0.89998 0.84983 0.20054 0.0
N339 N 0.0462 0.06021 0.14811 0.0
C340 C 0.94401 0.89549 0.18745 0.0
C341 C 0.01971 0.00301 0.16075 0.0
N342 N 0.93273 0.85314 0.12869 0.0
N343 N 0.05997 0.02615 0.21916 0.0
H344 H 0.04654 0.07187 0.12174 0.0
H345 H 0.06257 0.09869 0.16394 0.0
H346 H 0.06094 0.01858 0.24597 0.0
H347 H 0.09664 0.05941 0.21069 0.0
H348 H 0.91361 0.80819 0.13695 0.0
H349 H 0.94001 0.85536 0.10184 0.0
H350 H 0.86729 0.82186 0.18512 0.0
H351 H 0.8923 0.84322 0.22714 0.0
C352 C 0.94548 0.0394 0.85109 0.0
C353 C 0.00211 0.016 0.87045 0.0
C354 C 0.06437 -0.00764 0.81661 0.0
C355 C 0.00953 0.0195 0.79726 0.0
N356 N 0.90363 0.08005 0.79585 0.0
N357 N 0.1208 0.98481 0.87252 0.0
C358 C 0.95169 0.0464 0.81446 0.0
C359 C 0.06319 -0.00335 0.85345 0.0
N360 N 0.88507 0.05272 0.86755 0.0
N361 N 0.11646 0.96051 0.79985 0.0
H362 H 0.12215 0.98979 0.89952 0.0
H363 H 0.16865 0.97663 0.86147 0.0
H364 H 0.11932 0.95639 0.77285 0.0
H365 H 0.1538 0.93349 0.81275 0.0
H366 H 0.83977 0.0628 0.85441 0.0
H367 H 0.8788 0.04882 0.8944 0.0
H368 H 0.86407 0.10667 0.8073 0.0
H369 H 0.90657 0.08613 0.76897 0.0
C370 C 0.48698 0.45643 0.65738 0.0
C371 C 0.51949 0.50524 0.63708 0.0
C372 C 0.56079 0.55967 0.69002 0.0
C373 C 0.52441 0.51354 0.71037 0.0
N374 N 0.44251 0.4255 0.71382 0.0
N375 N 0.57397 0.61098 0.63371 0.0
C376 C 0.48439 0.46405 0.69415 0.0
C377 C 0.55267 0.5591 0.6533 0.0
N378 N 0.46093 0.40156 0.64168 0.0
N379 N 0.60472 0.60273 0.70567 0.0
H380 H 0.56666 0.6131 0.60687 0.0
H381 H 0.59258 0.65453 0.64433 0.0
H382 H 0.61193 0.6048 0.73253 0.0
H383 H 0.63823 0.63256 0.6919 0.0
H384 H 0.44357 0.36091 0.65537 0.0
H385 H 0.46161 0.39428 0.61481 0.0
H386 H 0.40667 0.39342 0.70322 0.0
H387 H 0.4393 0.42959 0.74082 0.0
C388 C 0.58833 0.51402 0.34929 0.0
C389 C 0.5295 0.52482 0.37001 0.0
C390 C 0.46295 0.55189 0.31811 0.0
C391 C 0.51939 0.53363 0.29705 0.0
N392 N 0.63357 0.48976 0.29194 0.0
N393 N 0.40808 0.54353 0.37432 0.0
C394 C 0.58177 0.513 0.31244 0.0
C395 C 0.46603 0.54114 0.3545 0.0
N396 N 0.65048 0.50552 0.36486 0.0
N397 N 0.40697 0.58077 0.30337 0.0
H398 H 0.40811 0.53474 0.40102 0.0
H399 H 0.35923 0.54843 0.36391 0.0
H400 H 0.40311 0.58972 0.27675 0.0
H401 H 0.36727 0.60134 0.3178 0.0
H402 H 0.69643 0.50429 0.35124 0.0
H403 H 0.6567 0.50492 0.39181 0.0
H404 H 0.67726 0.46727 0.30173 0.0
H405 H 0.63076 0.48836 0.26486 0.0
loop_
_geom_bond_atom_site_label_1
_geom_bond_atom_site_label_2
_geom_bond_distance
_geom_bond_site_symmetry_2
_ccdc_geom_bond_type
O0 Zn1 1.953 . S
O0 C16 1.225 1_565 S
Zn1 O0 1.953 . S
Zn1 O2 1.949 1_565 S
Zn1 O8 1.919 . S
Zn1 O13 1.924 1_565 S
O2 Zn1 1.949 1_545 S
O2 Zn3 1.923 1_444 S
O2 Zn4 1.950 1_455 S
O2 Zn5 1.945 1_554 S
Zn3 O2 1.923 1_666 S
Zn3 O6 1.933 . S
Zn3 O9 1.941 1_655 S
Zn3 O10 1.965 . S
Zn4 O2 1.950 1_655 S
Zn4 O11 1.938 1_545 S
Zn4 O12 1.906 . S
Zn4 O22 1.953 . S
Zn5 O2 1.945 1_556 S
Zn5 O7 1.932 . S
Zn5 O14 1.977 1_455 S
Zn5 O15 1.910 . S
O6 Zn3 1.933 . S
O6 C17 1.226 1_665 S
O7 Zn5 1.932 . S
O7 C17 1.307 . S
O8 Zn1 1.919 . S
O8 C19 1.253 1_554 S
O9 Zn3 1.941 1_455 S
O9 C19 1.283 . S
O10 Zn3 1.965 . S
O10 C18 1.303 1_556 S
O11 Zn4 1.938 1_565 S
O11 C18 1.247 . S
O12 Zn4 1.906 . S
O12 C20 1.304 1_554 S
O13 Zn1 1.924 1_545 S
O13 C21 1.311 . S
O14 Zn5 1.977 1_655 S
O14 C20 1.272 . S
O15 Zn5 1.910 . S
O15 C21 1.231 1_556 S
C16 O0 1.225 1_545 S
C16 O22 1.298 1_455 S
C17 O6 1.226 1_445 S
C17 O7 1.307 . S
C18 O10 1.303 1_554 S
C18 O11 1.247 . S
C19 O8 1.253 1_556 S
C19 O9 1.283 . S
C20 O12 1.304 1_556 S
C20 O14 1.272 . S
C21 O13 1.311 . S
C21 O15 1.231 1_554 S
O22 Zn4 1.953 . S
O22 C16 1.298 1_655 S
O23 Zn24 1.953 . S
O23 C39 1.225 . S
Zn24 O23 1.953 . S
Zn24 O25 1.949 . S
Zn24 O31 1.919 . S
Zn24 O36 1.924 . S
O25 Zn24 1.949 . S
O25 Zn26 1.923 . S
O25 Zn27 1.950 . S
O25 Zn28 1.945 . S
Zn26 O25 1.923 . S
Zn26 O29 1.933 . S
Zn26 O32 1.941 . S
Zn26 O33 1.965 . S
Zn27 O25 1.950 . S
Zn27 O34 1.938 . S
Zn27 O35 1.906 . S
Zn27 O45 1.953 . S
Zn28 O25 1.945 . S
Zn28 O30 1.932 . S
Zn28 O37 1.977 . S
Zn28 O38 1.910 . S
O29 Zn26 1.933 . S
O29 C40 1.226 . S
O30 Zn28 1.932 . S
O30 C40 1.307 . S
O31 Zn24 1.919 . S
O31 C42 1.253 . S
O32 Zn26 1.941 . S
O32 C42 1.283 . S
O33 Zn26 1.965 . S
O33 C41 1.303 . S
O34 Zn27 1.938 . S
O34 C41 1.247 . S
O35 Zn27 1.906 . S
O35 C43 1.304 . S
O36 Zn24 1.924 . S
O36 C44 1.311 . S
O37 Zn28 1.977 . S
O37 C43 1.272 . S
O38 Zn28 1.910 . S
O38 C44 1.231 . S
C39 O23 1.225 . S
C39 O45 1.298 . S
C40 O29 1.226 . S
C40 O30 1.307 . S
C41 O33 1.303 . S
C41 O34 1.247 . S
C42 O31 1.253 . S
C42 O32 1.283 . S
C43 O35 1.304 . S
C43 O37 1.272 . S
C44 O36 1.311 . S
C44 O38 1.231 . S
O45 Zn27 1.953 . S
O45 C39 1.298 . S
C46 C47 1.384 . S
C46 H59 0.947 . S
C46 C81 1.382 . S
C47 C46 1.384 . S
C47 C48 1.378 . S
C48 C47 1.378 . S
C48 C49 1.378 . S
C48 H60 0.952 . S
C49 C48 1.378 . S
C49 H61 0.950 . S
C49 C80 1.383 . S
H50 C69 0.947 . S
H51 C70 0.946 . S
H52 C72 0.953 . S
H53 C73 0.945 . S
H54 C75 0.952 . S
H55 C76 0.949 . S
H56 C78 0.950 . S
H57 C79 0.948 . S
H58 C81 0.951 . S
H59 C46 0.947 . S
H60 C48 0.952 . S
H61 C49 0.950 . S
N62 C65 1.382 1_545 S
N62 C67 1.363 1_455 S
N63 C65 1.371 . S
N63 C66 1.372 1_565 S
N64 C66 1.361 1_655 S
N64 C67 1.377 . S
C65 N62 1.382 1_565 S
C65 N63 1.371 . S
C65 C68 1.480 . S
C66 N63 1.372 1_545 S
C66 N64 1.361 1_455 S
C66 C74 1.457 . S
C67 N62 1.363 1_655 S
C67 N64 1.377 . S
C67 C80 1.479 . S
C68 C65 1.480 . S
C68 C69 1.383 . S
C68 C73 1.385 . S
C69 H50 0.947 . S
C69 C68 1.383 . S
C69 C70 1.388 . S
C70 H51 0.946 . S
C70 C69 1.388 . S
C70 C71 1.384 . S
C71 C70 1.384 . S
C71 C72 1.377 . S
C72 H52 0.953 . S
C72 C71 1.377 . S
C72 C73 1.369 . S
C73 H53 0.945 . S
C73 C68 1.385 . S
C73 C72 1.369 . S
C74 C66 1.457 . S
C74 C75 1.372 1_545 S
C74 C79 1.364 1_455 S
C75 H54 0.952 . S
C75 C74 1.372 1_565 S
C75 C76 1.389 . S
C76 H55 0.949 . S
C76 C75 1.389 . S
C76 C77 1.387 1_565 S
C77 C76 1.387 1_545 S
C77 C78 1.372 1_455 S
C78 H56 0.950 . S
C78 C77 1.372 1_655 S
C78 C79 1.379 . S
C79 H57 0.948 . S
C79 C74 1.364 1_655 S
C79 C78 1.379 . S
C80 C49 1.383 . S
C80 C67 1.479 . S
C80 C81 1.398 . S
C81 C46 1.382 . S
C81 H58 0.951 . S
C81 C80 1.398 . S
C82 C83 1.384 . S
C82 H95 0.947 . S
C82 C117 1.382 . S
C83 C82 1.384 . S
C83 C84 1.378 . S
C84 C83 1.378 . S
C84 C85 1.378 . S
C84 H96 0.952 . S
C85 C84 1.378 . S
C85 H97 0.950 . S
C85 C116 1.383 . S
H86 C105 0.947 . S
H87 C106 0.946 . S
H88 C108 0.953 . S
H89 C109 0.945 . S
H90 C111 0.952 . S
H91 C112 0.949 . S
H92 C114 0.950 . S
H93 C115 0.948 . S
H94 C117 0.951 . S
H95 C82 0.947 . S
H96 C84 0.952 . S
H97 C85 0.950 . S
N98 C101 1.382 1_565 S
N98 C103 1.363 1_455 S
N99 C101 1.371 . S
N99 C102 1.372 1_545 S
N100 C102 1.361 1_655 S
N100 C103 1.377 . S
C101 N98 1.382 1_545 S
C101 N99 1.371 . S
C101 C104 1.480 . S
C102 N99 1.372 1_565 S
C102 N100 1.361 1_455 S
C102 C110 1.457 . S
C103 N98 1.363 1_655 S
C103 N100 1.377 . S
C103 C116 1.479 . S
C104 C101 1.480 . S
C104 C105 1.383 . S
C104 C109 1.385 . S
C105 H86 0.947 . S
C105 C104 1.383 . S
C105 C106 1.388 . S
C106 H87 0.946 . S
C106 C105 1.388 . S
C106 C107 1.384 . S
C107 C106 1.384 . S
C107 C108 1.377 . S
C108 H88 0.953 . S
C108 C107 1.377 . S
C108 C109 1.369 . S
C109 H89 0.945 . S
C109 C104 1.385 . S
C109 C108 1.369 . S
C110 C102 1.457 . S
C110 C111 1.372 1_565 S
C110 C115 1.364 1_455 S
C111 H90 0.952 . S
C111 C110 1.372 1_545 S
C111 C112 1.389 . S
C112 H91 0.949 . S
C112 C111 1.389 . S
C112 C113 1.387 1_545 S
C113 C112 1.387 1_565 S
C113 C114 1.372 1_455 S
C114 H92 0.950 . S
C114 C113 1.372 1_655 S
C114 C115 1.379 . S
C115 H93 0.948 . S
C115 C110 1.364 1_655 S
C115 C114 1.379 . S
C116 C85 1.383 . S
C116 C103 1.479 . S
C116 C117 1.398 . S
C117 C82 1.382 . S
C117 H94 0.951 . S
C117 C116 1.398 . S
C118 C119 1.384 . S
C118 H131 0.947 . S
C118 C153 1.382 . S
C119 C118 1.384 . S
C119 C120 1.378 . S
C120 C119 1.378 . S
C120 C121 1.378 . S
C120 H132 0.952 1_556 S
C121 C120 1.378 . S
C121 H133 0.950 . S
C121 C152 1.383 . S
H122 C141 0.947 . S
H123 C142 0.957 . S
H124 C144 0.953 . S
H125 C145 0.945 . S
H126 C147 0.952 . S
H127 C148 0.949 . S
H128 C150 0.950 . S
H129 C151 0.948 . S
H130 C153 0.951 . S
H131 C118 0.947 . S
H132 C120 0.952 1_554 S
H133 C121 0.950 . S
N134 C137 1.382 . S
N134 C139 1.363 . S
N135 C137 1.371 . S
N135 C138 1.372 . S
N136 C138 1.361 . S
N136 C139 1.377 . S
C137 N134 1.382 . S
C137 N135 1.371 . S
C137 C140 1.480 . S
C138 N135 1.372 . S
C138 N136 1.361 . S
C138 C146 1.457 . S
C139 N134 1.363 . S
C139 N136 1.377 . S
C139 C152 1.479 . S
C140 C137 1.480 . S
C140 C141 1.383 . S
C140 C145 1.385 . S
C141 H122 0.947 . S
C141 C140 1.383 . S
C141 C142 1.388 . S
C142 H123 0.957 . S
C142 C141 1.388 . S
C142 C143 1.384 . S
C143 C142 1.384 . S
C143 C144 1.377 . S
C144 H124 0.953 . S
C144 C143 1.377 . S
C144 C145 1.369 . S
C145 H125 0.945 . S
C145 C140 1.385 . S
C145 C144 1.369 . S
C146 C138 1.457 . S
C146 C147 1.372 . S
C146 C151 1.364 . S
C147 H126 0.952 . S
C147 C146 1.372 . S
C147 C148 1.389 . S
C148 H127 0.949 . S
C148 C147 1.389 . S
C148 C149 1.387 . S
C149 C148 1.387 . S
C149 C150 1.372 . S
C150 H128 0.950 . S
C150 C149 1.372 . S
C150 C151 1.379 . S
C151 H129 0.948 . S
C151 C146 1.364 . S
C151 C150 1.379 . S
C152 C121 1.383 . S
C152 C139 1.479 . S
C152 C153 1.398 . S
C153 C118 1.382 . S
C153 H130 0.951 . S
C153 C152 1.398 . S
C154 C155 1.384 . S
C154 H167 0.947 . S
C154 C189 1.382 . S
C155 C154 1.384 . S
C155 C156 1.378 . S
C156 C155 1.378 . S
C156 C157 1.378 . S
C156 H168 0.952 . S
C157 C156 1.378 . S
C157 H169 0.950 . S
C157 C188 1.383 . S
H158 C177 0.947 . S
H159 C178 0.946 . S
H160 C180 0.953 . S
H161 C181 0.945 . S
H162 C183 0.952 . S
H163 C184 0.949 . S
H164 C186 0.950 . S
H165 C187 0.948 . S
H166 C189 0.951 . S
H167 C154 0.947 . S
H168 C156 0.952 . S
H169 C157 0.950 . S
N170 C173 1.382 . S
N170 C175 1.363 . S
N171 C173 1.371 . S
N171 C174 1.372 . S
N172 C174 1.361 . S
N172 C175 1.377 . S
C173 N170 1.382 . S
C173 N171 1.371 . S
C173 C176 1.480 . S
C174 N171 1.372 . S
C174 N172 1.361 . S
C174 C182 1.457 . S
C175 N170 1.363 . S
C175 N172 1.377 . S
C175 C188 1.479 . S
C176 C173 1.480 . S
C176 C177 1.383 . S
C176 C181 1.385 . S
C177 H158 0.947 . S
C177 C176 1.383 . S
C177 C178 1.388 . S
C178 H159 0.946 . S
C178 C177 1.388 . S
C178 C179 1.384 . S
C179 C178 1.384 . S
C179 C180 1.377 . S
C180 H160 0.953 . S
C180 C179 1.377 . S
C180 C181 1.369 . S
C181 H161 0.945 . S
C181 C176 1.385 . S
C181 C180 1.369 . S
C182 C174 1.457 . S
C182 C183 1.372 . S
C182 C187 1.364 . S
C183 H162 0.952 . S
C183 C182 1.372 . S
C183 C184 1.389 . S
C184 H163 0.949 . S
C184 C183 1.389 . S
C184 C185 1.387 . S
C185 C184 1.387 . S
C185 C186 1.372 . S
C186 H164 0.950 . S
C186 C185 1.372 . S
C186 C187 1.379 . S
C187 H165 0.948 . S
C187 C182 1.364 . S
C187 C186 1.379 . S
C188 C157 1.383 . S
C188 C175 1.479 . S
C188 C189 1.398 . S
C189 C154 1.382 . S
C189 H166 0.951 . S
C189 C188 1.398 . S
C190 C191 1.381 . S
C190 C196 1.382 . S
C190 N198 1.338 1_554 S
C191 C190 1.381 . S
C191 C197 1.363 . S
C192 C193 1.363 . S
C192 C197 1.379 . S
C192 N199 1.356 . S
C193 C192 1.363 . S
C193 C196 1.363 . S
N194 C196 1.356 1_556 S
N194 H206 0.984 . S
N194 H207 0.985 . S
N195 C197 1.356 . S
N195 H200 0.984 . S
N195 H201 0.985 . S
C196 C190 1.382 . S
C196 C193 1.363 . S
C196 N194 1.356 1_554 S
C197 C191 1.363 . S
C197 C192 1.379 . S
C197 N195 1.356 . S
N198 C190 1.338 1_556 S
N198 H204 0.984 . S
N198 H205 0.984 . S
N199 C192 1.356 . S
N199 H202 0.984 . S
N199 H203 0.985 . S
H200 N195 0.984 . S
H201 N195 0.985 . S
H202 N199 0.984 . S
H203 N199 0.985 . S
H204 N198 0.984 . S
H205 N198 0.984 . S
H206 N194 0.984 . S
H207 N194 0.985 . S
C208 C209 1.363 1_554 S
C208 C214 1.379 1_554 S
C208 N216 1.356 . S
C209 C208 1.363 1_556 S
C209 C215 1.363 . S
C210 C211 1.363 . S
C210 C215 1.379 . S
C210 N217 1.356 . S
C211 C210 1.363 . S
C211 C214 1.363 . S
N212 C214 1.356 1_554 S
N212 H224 0.984 . S
N212 H225 0.985 . S
N213 C215 1.356 . S
N213 H218 0.984 . S
N213 H219 0.985 . S
C214 C208 1.379 1_556 S
C214 C211 1.363 . S
C214 N212 1.356 1_556 S
C215 C209 1.363 . S
C215 C210 1.379 . S
C215 N213 1.356 . S
N216 C208 1.356 . S
N216 H222 0.984 . S
N216 H223 0.984 . S
N217 C210 1.356 . S
N217 H220 0.984 . S
N217 H221 0.985 . S
H218 N213 0.984 . S
H219 N213 0.985 . S
H220 N217 0.984 . S
H221 N217 0.985 . S
H222 N216 0.984 . S
H223 N216 0.984 . S
H224 N212 0.984 . S
H225 N212 0.985 . S
C226 C227 1.363 . S
C226 C232 1.379 . S
C226 N234 1.356 . S
C227 C226 1.363 . S
C227 C233 1.363 . S
C228 C229 1.363 . S
C228 C233 1.379 . S
C228 N235 1.356 . S
C229 C228 1.363 . S
C229 C232 1.363 . S
N230 C232 1.356 . S
N230 H242 0.984 . S
N230 H243 0.985 . S
N231 C233 1.356 . S
N231 H236 0.984 . S
N231 H237 0.985 . S
C232 C226 1.379 . S
C232 C229 1.363 . S
C232 N230 1.356 . S
C233 C227 1.363 . S
C233 C228 1.379 . S
C233 N231 1.356 . S
N234 C226 1.356 . S
N234 H240 0.984 1_554 S
N234 H241 0.984 . S
N235 C228 1.356 . S
N235 H238 0.984 . S
N235 H239 0.985 . S
H236 N231 0.984 . S
H237 N231 0.985 . S
H238 N235 0.984 . S
H239 N235 0.985 . S
H240 N234 0.984 1_556 S
H241 N234 0.984 . S
H242 N230 0.984 . S
H243 N230 0.985 . S
C244 C245 1.353 1_554 S
C244 C250 1.376 1_554 S
C244 N252 1.367 . S
C245 C244 1.353 1_556 S
C245 C251 1.363 . S
C246 C247 1.363 . S
C246 C251 1.379 . S
C246 N253 1.356 . S
C247 C246 1.363 . S
C247 C250 1.363 . S
N248 C250 1.356 1_554 S
N248 H260 0.984 . S
N248 H261 0.985 . S
N249 C251 1.356 . S
N249 H254 0.984 . S
N249 H255 0.985 . S
C250 C244 1.376 1_556 S
C250 C247 1.363 . S
C250 N248 1.356 1_556 S
C251 C245 1.363 . S
C251 C246 1.379 . S
C251 N249 1.356 . S
N252 C244 1.367 . S
N252 H258 0.984 . S
N252 H259 0.984 . S
N253 C246 1.356 . S
N253 H256 0.984 . S
N253 H257 0.985 . S
H254 N249 0.984 . S
H255 N249 0.985 . S
H256 N253 0.984 . S
H257 N253 0.985 . S
H258 N252 0.984 . S
H259 N252 0.984 . S
H260 N248 0.984 . S
H261 N248 0.985 . S
C262 C263 1.363 . S
C262 C268 1.379 . S
C262 N270 1.356 . S
C263 C262 1.363 . S
C263 C269 1.363 . S
C264 C265 1.363 . S
C264 C269 1.379 . S
C264 N271 1.356 . S
C265 C264 1.363 . S
C265 C268 1.363 . S
N266 C268 1.356 . S
N266 H278 0.984 . S
N266 H279 0.985 . S
N267 C269 1.356 . S
N267 H272 0.984 . S
N267 H273 0.985 . S
C268 C262 1.379 . S
C268 C265 1.363 . S
C268 N266 1.356 . S
C269 C263 1.363 . S
C269 C264 1.379 . S
C269 N267 1.356 . S
N270 C262 1.356 . S
N270 H276 0.984 . S
N270 H277 0.984 . S
N271 C264 1.356 . S
N271 H274 0.984 . S
N271 H275 0.985 . S
H272 N267 0.984 . S
H273 N267 0.985 . S
H274 N271 0.984 . S
H275 N271 0.985 . S
H276 N270 0.984 . S
H277 N270 0.984 . S
H278 N266 0.984 . S
H279 N266 0.985 . S
C280 C281 1.363 . S
C280 C286 1.379 . S
C280 N288 1.356 . S
C281 C280 1.363 . S
C281 C287 1.363 . S
C282 C283 1.363 . S
C282 C287 1.379 . S
C282 N289 1.356 . S
C283 C282 1.363 . S
C283 C286 1.363 . S
N284 C286 1.356 . S
N284 H296 0.984 . S
N284 H297 0.985 . S
N285 C287 1.356 . S
N285 H290 0.984 . S
N285 H291 0.985 . S
C286 C280 1.379 . S
C286 C283 1.363 . S
C286 N284 1.356 . S
C287 C281 1.363 . S
C287 C282 1.379 . S
C287 N285 1.356 . S
N288 C280 1.356 . S
N288 H294 0.984 . S
N288 H295 0.984 . S
N289 C282 1.356 . S
N289 H292 0.984 . S
N289 H293 0.985 . S
H290 N285 0.984 . S
H291 N285 0.985 . S
H292 N289 0.984 . S
H293 N289 0.985 . S
H294 N288 0.984 . S
H295 N288 0.984 . S
H296 N284 0.984 . S
H297 N284 0.985 . S
C298 C299 1.363 . S
C298 C304 1.379 . S
C298 N306 1.356 . S
C299 C298 1.363 . S
C299 C305 1.363 . S
C300 C301 1.363 . S
C300 C305 1.379 . S
C300 N307 1.356 . S
C301 C300 1.363 . S
C301 C304 1.363 . S
N302 C304 1.356 . S
N302 H314 0.984 . S
N302 H315 0.985 . S
N303 C305 1.356 . S
N303 H308 0.984 . S
N303 H309 0.985 . S
C304 C298 1.379 . S
C304 C301 1.363 . S
C304 N302 1.356 . S
C305 C299 1.363 . S
C305 C300 1.379 . S
C305 N303 1.356 . S
N306 C298 1.356 . S
N306 H312 0.984 . S
N306 H313 0.984 . S
N307 C300 1.356 . S
N307 H310 0.984 . S
N307 H311 0.985 . S
H308 N303 0.984 . S
H309 N303 0.985 . S
H310 N307 0.984 . S
H311 N307 0.985 . S
H312 N306 0.984 . S
H313 N306 0.984 . S
H314 N302 0.984 . S
H315 N302 0.985 . S
C316 C317 1.363 . S
C316 C322 1.379 . S
C316 N324 1.356 . S
C317 C316 1.363 . S
C317 C323 1.363 . S
C318 C319 1.363 . S
C318 C323 1.379 . S
C318 N325 1.356 . S
C319 C318 1.363 . S
C319 C322 1.363 . S
N320 C322 1.356 . S
N320 H332 0.984 . S
N320 H333 0.985 . S
N321 C323 1.356 . S
N321 H326 0.984 . S
N321 H327 0.985 . S
C322 C316 1.379 . S
C322 C319 1.363 . S
C322 N320 1.356 . S
C323 C317 1.363 . S
C323 C318 1.379 . S
C323 N321 1.356 . S
N324 C316 1.356 . S
N324 H330 0.984 . S
N324 H331 0.984 . S
N325 C318 1.356 . S
N325 H328 0.984 . S
N325 H329 0.985 . S
H326 N321 0.984 . S
H327 N321 0.985 . S
H328 N325 0.984 . S
H329 N325 0.985 . S
H330 N324 0.984 . S
H331 N324 0.984 . S
H332 N320 0.984 . S
H333 N320 0.985 . S
C334 C335 1.363 1_665 S
C334 C340 1.379 . S
C334 N342 1.356 . S
C335 C334 1.363 1_445 S
C335 C341 1.363 . S
C336 C337 1.369 . S
C336 C341 1.379 . S
C336 N343 1.356 . S
C337 C336 1.369 . S
C337 C340 1.358 1_445 S
N338 C340 1.356 . S
N338 H350 0.984 . S
N338 H351 0.985 . S
N339 C341 1.356 . S
N339 H344 0.984 . S
N339 H345 0.985 . S
C340 C334 1.379 . S
C340 C337 1.358 1_665 S
C340 N338 1.356 . S
C341 C335 1.363 . S
C341 C336 1.379 . S
C341 N339 1.356 . S
N342 C334 1.356 . S
N342 H348 0.984 . S
N342 H349 0.984 . S
N343 C336 1.356 . S
N343 H346 0.984 . S
N343 H347 0.985 . S
H344 N339 0.984 . S
H345 N339 0.985 . S
H346 N343 0.984 . S
H347 N343 0.985 . S
H348 N342 0.984 . S
H349 N342 0.984 . S
H350 N338 0.984 . S
H351 N338 0.985 . S
C352 C353 1.363 1_655 S
C352 C358 1.379 . S
C352 N360 1.356 . S
C353 C352 1.363 1_455 S
C353 C359 1.363 1_545 S
C354 C355 1.363 1_565 S
C354 C359 1.379 . S
C354 N361 1.356 . S
C355 C354 1.363 1_545 S
C355 C358 1.363 1_455 S
N356 C358 1.356 . S
N356 H368 0.984 . S
N356 H369 0.985 . S
N357 C359 1.356 . S
N357 H362 0.984 . S
N357 H363 0.985 . S
C358 C352 1.379 . S
C358 C355 1.363 1_655 S
C358 N356 1.356 . S
C359 C353 1.363 1_565 S
C359 C354 1.379 . S
C359 N357 1.356 . S
N360 C352 1.356 . S
N360 H366 0.984 . S
N360 H367 0.984 . S
N361 C354 1.356 . S
N361 H364 0.984 . S
N361 H365 0.985 . S
H362 N357 0.984 . S
H363 N357 0.985 . S
H364 N361 0.984 . S
H365 N361 0.985 . S
H366 N360 0.984 . S
H367 N360 0.984 . S
H368 N356 0.984 . S
H369 N356 0.985 . S
C370 C371 1.363 . S
C370 C376 1.379 . S
C370 N378 1.356 . S
C371 C370 1.363 . S
C371 C377 1.363 . S
C372 C373 1.363 . S
C372 C377 1.379 . S
C372 N379 1.356 . S
C373 C372 1.363 . S
C373 C376 1.363 . S
N374 C376 1.356 . S
N374 H386 0.984 . S
N374 H387 0.985 . S
N375 C377 1.356 . S
N375 H380 0.984 . S
N375 H381 0.985 . S
C376 C370 1.379 . S
C376 C373 1.363 . S
C376 N374 1.356 . S
C377 C371 1.363 . S
C377 C372 1.379 . S
C377 N375 1.356 . S
N378 C370 1.356 . S
N378 H384 0.984 . S
N378 H385 0.984 . S
N379 C372 1.356 . S
N379 H382 0.984 . S
N379 H383 0.985 . S
H380 N375 0.984 . S
H381 N375 0.985 . S
H382 N379 0.984 . S
H383 N379 0.985 . S
H384 N378 0.984 . S
H385 N378 0.984 . S
H386 N374 0.984 . S
H387 N374 0.985 . S
C388 C389 1.363 . S
C388 C394 1.379 . S
C388 N396 1.356 . S
C389 C388 1.363 . S
C389 C395 1.363 . S
C390 C391 1.363 . S
C390 C395 1.379 . S
C390 N397 1.356 . S
C391 C390 1.363 . S
C391 C394 1.363 . S
N392 C394 1.356 . S
N392 H404 0.984 . S
N392 H405 0.985 . S
N393 C395 1.356 . S
N393 H398 0.984 . S
N393 H399 0.985 . S
C394 C388 1.379 . S
C394 C391 1.363 . S
C394 N392 1.356 . S
C395 C389 1.363 . S
C395 C390 1.379 . S
C395 N393 1.356 . S
N396 C388 1.356 . S
N396 H402 0.984 . S
N396 H403 0.984 . S
N397 C390 1.356 . S
N397 H400 0.984 . S
N397 H401 0.985 . S
H398 N393 0.984 . S
H399 N393 0.985 . S
H400 N397 0.984 . S
H401 N397 0.985 . S
H402 N396 0.984 . S
H403 N396 0.984 . S
H404 N392 0.984 . S
H405 N392 0.985 . S
C193 C155 1.490 . S
C191 C21 1.489 . S
C209 C19 1.480 . S
C211 C119 1.484 . S
C227 C18 1.460 . S
C229 C179 1.444 . S
C245 C20 1.480 . S
C247 C143 1.452 . S
C263 C44 1.489 . S
C265 C83 1.490 . S
C281 C42 1.480 . S
C283 C47 1.484 . S
C301 C107 1.445 . S
C299 C41 1.460 . S
C319 C71 1.452 . S
C317 C43 1.480 . S
C335 C16 1.496 . S
C337 C77 1.491 . S
C353 C17 1.465 . S
C355 C113 1.463 1_545 S
C373 C149 1.490 . S
C371 C39 1.496 . S
C389 C40 1.465 . S
C391 C185 1.463 . S
