# Generated by pormake.
# Topology anh, (6,3)-cn, num edge types: 1
# Building blocks:
#     Node 0, Type 0, BuildingBlock: VOLQOD_clean_sbu_1, # of connection points: 6
#     Node 1, Type 0, BuildingBlock: VOLQOD_clean_sbu_1, # of connection points: 6
#     Node 2, Type 0, BuildingBlock: VOLQOD_clean_sbu_1, # of connection points: 6
#     Node 3, Type 1, BuildingBlock: BELTOD_clean_linker_0, # of connection points: 3
#     Node 4, Type 1, BuildingBlock: BELTOD_clean_linker_0, # of connection points: 3
#     Node 5, Type 1, BuildingBlock: BELTOD_clean_linker_0, # of connection points: 3
#     Node 6, Type 1, BuildingBlock: BELTOD_clean_linker_0, # of connection points: 3
#     Node 7, Type 1, BuildingBlock: BELTOD_clean_linker_0, # of connection points: 3
#     Node 8, Type 1, BuildingBlock: BELTOD_clean_linker_0, # of connection points: 3
#     Edge 9, Type (0, 1), BuildingBlock: EZIPEK_clean_linker_0, # of connection points: 2
#     Edge 10, Type (0, 1), BuildingBlock: EZIPEK_clean_linker_0, # of connection points: 2
#     Edge 11, Type (0, 1), BuildingBlock: EZIPEK_clean_linker_0, # of connection points: 2
#     Edge 12, Type (0, 1), BuildingBlock: EZIPEK_clean_linker_0, # of connection points: 2
#     Edge 13, Type (0, 1), BuildingBlock: EZIPEK_clean_linker_0, # of connection points: 2
#     Edge 14, Type (0, 1), BuildingBlock: EZIPEK_clean_linker_0, # of connection points: 2
#     Edge 15, Type (0, 1), BuildingBlock: EZIPEK_clean_linker_0, # of connection points: 2
#     Edge 16, Type (0, 1), BuildingBlock: EZIPEK_clean_linker_0, # of connection points: 2
#     Edge 17, Type (0, 1), BuildingBlock: EZIPEK_clean_linker_0, # of connection points: 2
#     Edge 18, Type (0, 1), BuildingBlock: EZIPEK_clean_linker_0, # of connection points: 2
#     Edge 19, Type (0, 1), BuildingBlock: EZIPEK_clean_linker_0, # of connection points: 2
#     Edge 20, Type (0, 1), BuildingBlock: EZIPEK_clean_linker_0, # of connection points: 2
#     Edge 21, Type (0, 1), BuildingBlock: EZIPEK_clean_linker_0, # of connection points: 2
#     Edge 22, Type (0, 1), BuildingBlock: EZIPEK_clean_linker_0, # of connection points: 2
#     Edge 23, Type (0, 1), BuildingBlock: EZIPEK_clean_linker_0, # of connection points: 2
#     Edge 24, Type (0, 1), BuildingBlock: EZIPEK_clean_linker_0, # of connection points: 2
#     Edge 25, Type (0, 1), BuildingBlock: EZIPEK_clean_linker_0, # of connection points: 2
#     Edge 26, Type (0, 1), BuildingBlock: EZIPEK_clean_linker_0, # of connection points: 2
# Relax obj value: 0.161
# Max RMSD: 0.227
# Mean RMSD: 0.107
data_MOF--net-anh--node1-VOLQOD_clean_sbu_1--node2-BELTOD_clean_linker_0--edge1-EZIPEK_clean_linker_0
_symmetry_space_group_name_H-M    P1
_symmetry_Int_Tables_number       1
_symmetry_cell_setting            triclinic
loop_
_symmetry_equiv_pos_as_xyz
'x, y, z'
_cell_length_a     24.929164
_cell_length_b     24.901002
_cell_length_c     52.639174
_cell_angle_alpha  90.175514
_cell_angle_beta   89.755049
_cell_angle_gamma 120.17682
loop_
_atom_site_label
_atom_site_type_symbol
_atom_site_fract_x
_atom_site_fract_y
_atom_site_fract_z
_atom_type_partial_charge
O0 O 0.99084 0.58203 0.22385 0.0
Zn1 Zn 0.98897 0.59917 0.18641 0.0
O2 O 0.00156 0.54071 0.16573 0.0
Zn3 Zn 0.93087 0.49191 0.14379 0.0
Zn4 Zn 0.01403 0.48561 0.1876 0.0
Zn5 Zn 0.07435 0.58571 0.14468 0.0
O6 O 0.95417 0.50449 0.10647 0.0
O7 O 0.05079 0.58441 0.10845 0.0
O8 O 0.90825 0.59605 0.17771 0.0
O9 O 0.87153 0.52222 0.14803 0.0
O10 O 0.88307 0.40163 0.1544 0.0
O11 O 0.93964 0.40086 0.18679 0.0
O12 O 0.08638 0.47707 0.17663 0.0
O13 O 0.06048 0.68613 0.18171 0.0
O14 O 0.12748 0.54646 0.14549 0.0
O15 O 0.12447 0.67374 0.15628 0.0
C16 C 0.00981 0.54982 0.2354 0.0
C17 C 0.00299 0.54718 0.09576 0.0
C18 C 0.89189 0.37368 0.17274 0.0
C19 C 0.86687 0.56187 0.16165 0.0
C20 C 0.12662 0.50417 0.15925 0.0
C21 C 0.11227 0.70815 0.17022 0.0
O22 O 0.02414 0.51401 0.2237 0.0
O23 O 0.44657 0.00659 0.44112 0.0
Zn24 Zn 0.43057 0.01327 0.47848 0.0
O25 O 0.49611 0.0153 0.49964 0.0
Zn26 Zn 0.53934 0.09259 0.51831 0.0
Zn27 Zn 0.55589 0.008 0.47821 0.0
Zn28 Zn 0.45989 0.94771 0.5241 0.0
O29 O 0.54481 0.07891 0.55553 0.0
O30 O 0.47892 0.97786 0.56025 0.0
O31 O 0.42109 0.08826 0.48491 0.0
O32 O 0.49336 0.13773 0.51448 0.0
O33 O 0.62568 0.1481 0.50513 0.0
O34 O 0.63711 0.08761 0.47714 0.0
O35 O 0.57177 0.94127 0.49061 0.0
O36 O 0.34866 0.93774 0.4869 0.0
O37 O 0.49854 0.89492 0.52016 0.0
O38 O 0.36802 0.89383 0.51926 0.0
C39 C 0.48509 0.99476 0.43007 0.0
C40 C 0.51636 0.031 0.56951 0.0
C41 C 0.65788 0.13917 0.48867 0.0
C42 C 0.4495 0.13276 0.50059 0.0
C43 C 0.54337 0.89884 0.50707 0.0
C44 C 0.32978 0.89553 0.50379 0.0
O45 O 0.52662 0.99037 0.4423 0.0
O46 O 0.42546 0.45943 0.77147 0.0
Zn47 Zn 0.40578 0.43568 0.80865 0.0
O48 O 0.47595 0.49227 0.83018 0.0
Zn49 Zn 0.4516 0.53238 0.85574 0.0
Zn50 Zn 0.54025 0.55609 0.8093 0.0
Zn51 Zn 0.50941 0.447 0.84722 0.0
O52 O 0.46005 0.50792 0.89134 0.0
O53 O 0.49076 0.43929 0.88454 0.0
O54 O 0.328 0.43763 0.8184 0.0
O55 O 0.36243 0.50415 0.85088 0.0
O56 O 0.4958 0.62576 0.85155 0.0
O57 O 0.54286 0.63662 0.81439 0.0
O58 O 0.6244 0.56986 0.81799 0.0
O59 O 0.39092 0.34802 0.81097 0.0
O60 O 0.60196 0.49141 0.84422 0.0
O61 O 0.4733 0.36187 0.83256 0.0
C62 C 0.47582 0.49781 0.76031 0.0
C63 C 0.47367 0.46815 0.89949 0.0
C64 C 0.52599 0.65873 0.83251 0.0
C65 C 0.31948 0.46823 0.83583 0.0
C66 C 0.64101 0.53979 0.83227 0.0
C67 C 0.42487 0.32751 0.81958 0.0
O68 O 0.52415 0.5353 0.77262 0.0
P69 P 0.54088 0.94715 0.23771 0.0
H70 H 0.46624 0.84189 0.20397 0.0
H71 H 0.36269 0.80218 0.18572 0.0
H72 H 0.35691 0.9609 0.21526 0.0
H73 H 0.45899 -0.00065 0.2344 0.0
H74 H 0.65633 0.97877 0.21071 0.0
H75 H 0.74059 0.07726 0.19382 0.0
H76 H 0.64248 0.17012 0.21812 0.0
H77 H 0.56055 0.07314 0.23628 0.0
H78 H 0.43063 0.88309 0.26995 0.0
H79 H 0.6217 0.02826 0.27829 0.0
O80 O 0.56021 0.8921 0.23568 0.0
H81 H 0.41169 0.89379 0.31488 0.0
H82 H 0.60269 0.03809 0.32344 0.0
C83 C 0.47046 0.9237 0.22047 0.0
C84 C 0.44326 0.86872 0.20621 0.0
C85 C 0.38438 0.84615 0.19576 0.0
C86 C 0.35246 0.87863 0.19935 0.0
C87 C 0.38116 0.93548 0.21231 0.0
C88 C 0.43962 0.95756 0.22304 0.0
C89 C 0.60188 0.01853 0.22459 0.0
C90 C 0.65289 0.02027 0.2124 0.0
C91 C 0.70071 0.0762 0.20262 0.0
C92 C 0.69725 0.13061 0.2045 0.0
C93 C 0.64556 0.1284 0.21626 0.0
C94 C 0.59863 0.07294 0.2265 0.0
C95 C 0.52721 0.95607 0.27063 0.0
C96 C 0.46833 0.9177 0.28133 0.0
C97 C 0.45745 0.92357 0.30694 0.0
C98 C 0.50571 0.96696 0.3223 0.0
C99 C 0.56487 0.00471 0.31173 0.0
C100 C 0.57562 -0.00088 0.28603 0.0
P101 P 0.60866 0.54802 0.57201 0.0
H102 H 0.64154 0.47255 0.54039 0.0
H103 H 0.57946 0.37065 0.52057 0.0
H104 H 0.41161 0.36411 0.5461 0.0
H105 H 0.47382 0.46428 0.56754 0.0
H106 H 0.70115 0.67912 0.56648 0.0
H107 H 0.69622 0.7673 0.54836 0.0
H108 H 0.50666 0.64379 0.52595 0.0
H109 H 0.51179 0.55596 0.54326 0.0
H110 H 0.64508 0.51545 0.61941 0.0
H111 H 0.50755 0.56059 0.59471 0.0
O112 O 0.68208 0.56367 0.573 0.0
H113 H 0.60474 0.50148 0.66291 0.0
H114 H 0.46622 0.54496 0.63815 0.0
C115 C 0.5624 0.47577 0.55564 0.0
C116 C 0.59147 0.44937 0.54183 0.0
C117 C 0.55608 0.39148 0.53038 0.0
C118 C 0.4911 0.35979 0.53219 0.0
C119 C 0.46174 0.38779 0.54474 0.0
C120 C 0.49731 0.44489 0.55691 0.0
C121 C 0.60701 0.61081 0.5561 0.0
C122 C 0.65896 0.67078 0.5572 0.0
C123 C 0.65626 0.72098 0.5469 0.0
C124 C 0.60103 0.71166 0.53593 0.0
C125 C 0.54966 0.65156 0.53429 0.0
C126 C 0.55267 0.60142 0.54426 0.0
C127 C 0.58016 0.54032 0.60397 0.0
C128 C 0.60655 0.52274 0.62335 0.0
C129 C 0.58337 0.5144 0.64808 0.0
C130 C 0.53284 0.52256 0.65365 0.0
C131 C 0.50551 0.53887 0.63416 0.0
C132 C 0.52926 0.54798 0.60946 0.0
P133 P 0.067 0.64906 0.90319 0.0
H134 H 0.19237 0.68342 0.88704 0.0
H135 H 0.23578 0.62383 0.86772 0.0
H136 H 0.05373 0.46041 0.86634 0.0
H137 H 0.01021 0.51963 0.88607 0.0
H138 H 0.04211 0.71506 0.86325 0.0
H139 H 0.94561 0.69461 0.84225 0.0
H140 H 0.84299 0.52708 0.88628 0.0
H141 H 0.93888 0.54726 0.90723 0.0
H142 H 0.12328 0.6029 0.93948 0.0
H143 H 0.97932 0.65103 0.9398 0.0
O144 O 0.11816 0.72502 0.90172 0.0
H145 H 0.10408 0.57639 0.98473 0.0
H146 H 0.95874 0.62232 0.98475 0.0
C147 C 0.09796 0.60621 0.88762 0.0
C148 C 0.1616 0.635 0.88239 0.0
C149 C 0.18634 0.6011 0.87141 0.0
C150 C 0.14776 0.53797 0.86565 0.0
C151 C 0.08395 0.50918 0.87062 0.0
C152 C 0.05927 0.54307 0.88179 0.0
C153 C -0.00281 0.6334 0.88718 0.0
C154 C -0.00114 0.67397 0.86837 0.0
C155 C 0.94417 0.66226 0.85632 0.0
C156 C 0.88765 0.60961 0.86293 0.0
C157 C 0.8864 0.56798 0.88108 0.0
C158 C 0.94093 0.57968 0.89306 0.0
C159 C 0.05151 0.62724 0.9361 0.0
C160 C 0.08694 0.60681 0.94912 0.0
C161 C 0.07605 0.59168 0.97488 0.0
C162 C 0.02957 0.59678 0.98791 0.0
C163 C -0.00564 0.61752 0.97491 0.0
C164 C 0.00599 0.63363 0.94928 0.0
P165 P 0.08377 0.48443 0.42182 0.0
H166 H 0.20902 0.58427 0.43255 0.0
H167 H 0.24929 0.68103 0.45692 0.0
H168 H 0.06258 0.63313 0.47707 0.0
H169 H 0.02202 0.53653 0.45242 0.0
H170 H 0.04472 0.43894 0.47342 0.0
H171 H 0.94545 0.35818 0.49131 0.0
H172 H 0.86718 0.31319 0.41606 0.0
H173 H 0.96582 0.39376 0.39814 0.0
H174 H 0.12645 0.46964 0.37172 0.0
H175 H 0.01526 0.54246 0.40271 0.0
O176 O 0.13524 0.46027 0.4213 0.0
H177 H 0.10674 0.49306 0.32867 0.0
H178 H -0.00419 0.56602 0.35958 0.0
C179 C 0.11277 0.55273 0.44121 0.0
C180 C 0.17676 0.59415 0.44244 0.0
C181 C 0.19966 0.64923 0.45623 0.0
C182 C 0.15872 0.66363 0.46876 0.0
C183 C 0.09463 0.62229 0.46758 0.0
C184 C 0.07172 0.56728 0.45364 0.0
C185 C 0.01206 0.42329 0.43457 0.0
C186 C 0.00616 0.41174 0.46079 0.0
C187 C 0.94985 0.36582 0.47098 0.0
C188 C 0.89931 0.33037 0.45494 0.0
C189 C 0.90581 0.34056 0.42865 0.0
C190 C 0.962 0.38663 0.41849 0.0
C191 C 0.07271 0.50482 0.39035 0.0
C192 C 0.09841 0.4912 0.36931 0.0
C193 C 0.08724 0.50453 0.3448 0.0
C194 C 0.05005 0.53132 0.34113 0.0
C195 C 0.02485 0.54559 0.36218 0.0
C196 C 0.03604 0.53225 0.38669 0.0
P197 P 0.61492 0.08107 0.76276 0.0
H198 H 0.64295 0.19856 0.7866 0.0
H199 H 0.57606 0.23811 0.80147 0.0
H200 H 0.41396 0.06113 0.78513 0.0
H201 H 0.48105 0.02117 0.77022 0.0
H202 H 0.66491 0.05849 0.80877 0.0
H203 H 0.64486 0.96275 0.83041 0.0
H204 H 0.51049 0.85377 0.77302 0.0
H205 H 0.52843 0.94915 0.75208 0.0
H206 H 0.56606 0.13742 0.72783 0.0
H207 H 0.63121 0.00644 0.72343 0.0
O208 O 0.68963 0.13441 0.76641 0.0
H209 H 0.54306 0.12416 0.68239 0.0
H210 H 0.60685 0.99237 0.67784 0.0
C211 C 0.56682 0.10688 0.77751 0.0
C212 C 0.59317 0.16776 0.78668 0.0
C213 C 0.55511 0.19032 0.79513 0.0
C214 C 0.49038 0.15236 0.79435 0.0
C215 C 0.4639 0.09075 0.78595 0.0
C216 C 0.50208 0.06811 0.77755 0.0
C217 C 0.59998 0.01071 0.77828 0.0
C218 C 0.63131 0.01396 0.80081 0.0
C219 C 0.61978 0.95959 0.81319 0.0
C220 C 0.57715 0.90141 0.80298 0.0
C221 C 0.54424 0.89833 0.78093 0.0
C222 C 0.55494 0.95268 0.76887 0.0
C223 C 0.59826 0.07113 0.72925 0.0
C224 C 0.57467 0.10517 0.71725 0.0
C225 C 0.56168 0.09785 0.69129 0.0
C226 C 0.57249 0.0567 0.67694 0.0
C227 C 0.59759 0.0238 0.68875 0.0
C228 C 0.61119 0.03165 0.71471 0.0
P229 P 0.43615 0.37508 0.09311 0.0
H230 H 0.52695 0.34355 0.11171 0.0
H231 H 0.62949 0.40588 0.13107 0.0
H232 H 0.61045 0.56849 0.1276 0.0
H233 H 0.50812 0.50645 0.10786 0.0
H234 H 0.34672 0.32291 0.13483 0.0
H235 H 0.27365 0.35166 0.15317 0.0
H236 H 0.33741 0.50303 0.09991 0.0
H237 H 0.41028 0.47457 0.0816 0.0
H238 H 0.54256 0.4237 0.05801 0.0
H239 H 0.34569 0.35534 0.05394 0.0
O240 O 0.40931 0.29953 0.09783 0.0
H241 H 0.55185 0.4445 0.01219 0.0
H242 H 0.35541 0.37754 0.00824 0.0
C243 C 0.50955 0.42014 0.10873 0.0
C244 C 0.54439 0.39239 0.11533 0.0
C245 C 0.60275 0.42785 0.12635 0.0
C246 C 0.62705 0.49151 0.13076 0.0
C247 C 0.59204 0.51931 0.12441 0.0
C248 C 0.53375 0.48384 0.11322 0.0
C249 C 0.38262 0.39571 0.10649 0.0
C250 C 0.34475 0.36208 0.12704 0.0
C251 C 0.30349 0.37856 0.13757 0.0
C252 C 0.30036 0.42917 0.12772 0.0
C253 C 0.33933 0.46373 0.10761 0.0
C254 C 0.38045 0.44723 0.09711 0.0
C255 C 0.44364 0.38946 0.05946 0.0
C256 C 0.50146 0.41356 0.04736 0.0
C257 C 0.50682 0.42535 0.02126 0.0
C258 C 0.45441 0.41315 0.00701 0.0
C259 C 0.39638 0.38767 0.01902 0.0
C260 C 0.39095 0.37523 0.04504 0.0
C261 C 0.23265 0.51702 0.16118 0.0
C262 C 0.17001 0.48213 0.1532 0.0
C263 C 0.19246 0.4116 0.12899 0.0
C264 C 0.25459 0.44505 0.13774 0.0
N265 N 0.33222 0.52237 0.16521 0.0
N266 N 0.08697 0.39129 0.13301 0.0
C267 C 0.27424 0.49569 0.15479 0.0
C268 C 0.14883 0.42765 0.13828 0.0
N269 N 0.25247 0.5711 0.17441 0.0
N270 N 0.17597 0.3664 0.11091 0.0
H271 H 0.05378 0.40286 0.13847 0.0
H272 H 0.06764 0.3474 0.12478 0.0
H273 H 0.20633 0.35255 0.1039 0.0
H274 H 0.13361 0.34549 0.10147 0.0
H275 H 0.29889 0.60247 0.17829 0.0
H276 H 0.22257 0.58661 0.18034 0.0
H277 H 0.34744 0.55536 0.17966 0.0
H278 H 0.3639 0.50799 0.16076 0.0
C279 C 0.7284 0.24659 0.47205 0.0
C280 C 0.72058 0.19029 0.48216 0.0
C281 C 0.83019 0.22549 0.47419 0.0
C282 C 0.83875 0.28321 0.46562 0.0
N283 N 0.80009 0.3542 0.46154 0.0
N284 N 0.76599 0.13142 0.49813 0.0
C285 C 0.78906 0.2955 0.46619 0.0
C286 C 0.77212 0.18126 0.4848 0.0
N287 N 0.6778 0.25223 0.4667 0.0
N288 N 0.87671 0.21201 0.47135 0.0
H289 H 0.72438 0.0987 0.50664 0.0
H290 H 0.80336 0.12574 0.50286 0.0
H291 H 0.92011 0.24338 0.46379 0.0
H292 H 0.87071 0.16808 0.4746 0.0
H293 H 0.68055 0.28958 0.45672 0.0
H294 H 0.63228 0.2171 0.47013 0.0
H295 H 0.76692 0.3674 0.46432 0.0
H296 H 0.84406 0.39127 0.45717 0.0
C297 C 0.60271 0.77031 0.82485 0.0
C298 C 0.54076 0.72401 0.83043 0.0
C299 C 0.50791 0.80093 0.82526 0.0
C300 C 0.56704 0.84316 0.81497 0.0
N301 N 0.66948 0.86537 0.80217 0.0
N302 N 0.43197 0.69323 0.83303 0.0
C303 C 0.61451 0.82755 0.81427 0.0
C304 C 0.49263 0.73882 0.83026 0.0
N305 N 0.65027 0.7596 0.82986 0.0
N306 N 0.4665 0.82031 0.83032 0.0
H307 H 0.41795 0.64669 0.83608 0.0
H308 H 0.39493 0.7007 0.83009 0.0
H309 H 0.47663 0.8658 0.82708 0.0
H310 H 0.42494 0.79319 0.84004 0.0
H311 H 0.69688 0.79373 0.82833 0.0
H312 H 0.64308 0.71846 0.83815 0.0
H313 H 0.70275 0.85263 0.79869 0.0
H314 H 0.6798 0.90717 0.79359 0.0
C315 C 0.76091 0.53753 0.17528 0.0
C316 C 0.81101 0.56684 0.15791 0.0
C317 C 0.74132 0.56225 0.12442 0.0
C318 C 0.6905 0.52856 0.14117 0.0
N319 N 0.6519 0.50027 0.18387 0.0
N320 N 0.85324 0.62483 0.11948 0.0
C321 C 0.7005 0.52206 0.16718 0.0
C322 C 0.80246 0.58567 0.13368 0.0
N323 N 0.77048 0.52073 0.19877 0.0
N324 N 0.731 0.5681 0.09936 0.0
H325 H 0.89839 0.64227 0.12618 0.0
H326 H 0.8508 0.64444 0.1024 0.0
H327 H 0.68684 0.55234 0.09195 0.0
H328 H 0.76576 0.58556 0.08559 0.0
H329 H 0.73483 0.49241 0.2112 0.0
H330 H 0.81459 0.53334 0.20548 0.0
H331 H 0.65671 0.49892 0.20345 0.0
H332 H 0.60724 0.48858 0.1782 0.0
C333 C 0.24762 0.78845 0.5177 0.0
C334 C 0.26534 0.84101 0.50213 0.0
C335 C 0.18989 0.77612 0.47011 0.0
C336 C 0.18408 0.72309 0.48266 0.0
N337 N 0.19906 0.67618 0.51991 0.0
N338 N 0.22582 0.88644 0.47285 0.0
C339 C 0.20926 0.72834 0.50727 0.0
C340 C 0.22745 0.83548 0.48122 0.0
N341 N 0.26541 0.79666 0.54256 0.0
N342 N 0.16291 0.77013 0.44694 0.0
H343 H 0.24878 0.92877 0.48251 0.0
H344 H 0.19598 0.88484 0.4587 0.0
H345 H 0.1338 0.72711 0.43854 0.0
H346 H 0.17182 0.80781 0.43551 0.0
H347 H 0.25116 0.7605 0.55552 0.0
H348 H 0.2885 0.84076 0.55082 0.0
H349 H 0.22194 0.67708 0.53654 0.0
H350 H 0.16891 0.63149 0.51313 0.0
C351 C 0.41987 0.22919 0.83287 0.0
C352 C 0.41197 0.26385 0.81339 0.0
C353 C 0.43551 0.2084 0.78097 0.0
C354 C 0.45132 0.17983 0.80052 0.0
N355 N 0.44298 0.14813 0.84412 0.0
N356 N 0.3842 0.26559 0.76963 0.0
C357 C 0.43763 0.18486 0.82625 0.0
C358 C 0.41013 0.24635 0.78762 0.0
N359 N 0.41245 0.2409 0.85763 0.0
N360 N 0.44815 0.20221 0.75618 0.0
H361 H 0.36188 0.29025 0.77402 0.0
H362 H 0.37772 0.2505 0.75083 0.0
H363 H 0.46472 0.17302 0.75049 0.0
H364 H 0.44557 0.22856 0.74142 0.0
H365 H 0.42325 0.2225 0.87319 0.0
H366 H 0.3953 0.27018 0.86251 0.0
H367 H 0.43086 0.14674 0.86313 0.0
H368 H 0.45599 0.1155 0.83944 0.0
C369 C 0.56688 0.81525 0.49471 0.0
C370 C 0.56642 0.85641 0.51327 0.0
C371 C 0.59127 0.80437 0.54655 0.0
C372 C 0.59464 0.76497 0.52789 0.0
N373 N 0.59968 0.7414 0.4838 0.0
N374 N 0.59569 0.90194 0.5551 0.0
C375 C 0.58702 0.77324 0.50177 0.0
C376 C 0.58421 0.8547 0.53867 0.0
N377 N 0.5451 0.81398 0.47079 0.0
N378 N 0.59141 0.79195 0.57184 0.0
H379 H 0.5926 0.94064 0.54979 0.0
H380 H 0.61458 0.90599 0.5731 0.0
H381 H 0.59537 0.75481 0.57862 0.0
H382 H 0.58194 0.81518 0.58608 0.0
H383 H 0.53791 0.78023 0.45736 0.0
H384 H 0.52949 0.84373 0.46494 0.0
H385 H 0.6007 0.74984 0.46439 0.0
H386 H 0.61482 0.71047 0.48844 0.0
C387 C 0.73939 0.61474 0.85386 0.0
C388 C 0.7075 0.56412 0.83687 0.0
C389 C 0.79982 0.55398 0.83254 0.0
C390 C 0.82863 0.59897 0.85198 0.0
N391 N 0.82601 0.66988 0.88262 0.0
N392 N 0.70473 0.48388 0.81025 0.0
C393 C 0.79886 0.62945 0.86281 0.0
C394 C 0.73713 0.53347 0.82611 0.0
N395 N 0.71251 0.64828 0.86164 0.0
N396 N 0.83289 0.53166 0.82011 0.0
H397 H 0.65978 0.46975 0.80413 0.0
H398 H 0.72092 0.45482 0.80409 0.0
H399 H 0.87891 0.54586 0.82452 0.0
H400 H 0.8168 0.50307 0.80418 0.0
H401 H 0.73606 0.68995 0.8716 0.0
H402 H 0.66763 0.637 0.85661 0.0
H403 H 0.8035 0.68766 0.89347 0.0
H404 H 0.87012 0.68287 0.88942 0.0
C405 C 0.21038 0.80372 0.15737 0.0
C406 C 0.16391 0.77183 0.17607 0.0
C407 C 0.23902 0.82294 0.2099 0.0
C408 C 0.28692 0.8499 0.19139 0.0
N409 N 0.31764 0.88143 0.14807 0.0
N410 N 0.12945 0.7788 0.21826 0.0
C411 C 0.27227 0.84571 0.16519 0.0
C412 C 0.17654 0.79071 0.20177 0.0
N413 N 0.19494 0.79196 0.1323 0.0
N414 N 0.25292 0.82463 0.2351 0.0
H415 H 0.08389 0.76139 0.21227 0.0
H416 H 0.13698 0.79495 0.23693 0.0
H417 H 0.29814 0.84712 0.24206 0.0
H418 H 0.21956 0.79921 0.24887 0.0
H419 H 0.22698 0.80782 0.11747 0.0
H420 H 0.14882 0.76512 0.12648 0.0
H421 H 0.30966 0.88369 0.12883 0.0
H422 H 0.36315 0.91263 0.15356 0.0
C423 C 0.45151 0.22949 0.48679 0.0
C424 C 0.43112 0.17987 0.50422 0.0
C425 C 0.42928 0.24426 0.5387 0.0
C426 C 0.45551 0.29589 0.5219 0.0
N427 N 0.47118 0.33402 0.47901 0.0
N428 N 0.37767 0.13209 0.54292 0.0
C429 C 0.45902 0.28692 0.49547 0.0
C430 C 0.41126 0.18465 0.52882 0.0
N431 N 0.46794 0.22303 0.46269 0.0
N432 N 0.42688 0.25261 0.56428 0.0
H433 H 0.3649 0.08814 0.5357 0.0
H434 H 0.35753 0.13154 0.56037 0.0
H435 H 0.44039 0.29551 0.57259 0.0
H436 H 0.41522 0.21747 0.57754 0.0
H437 H 0.49032 0.25977 0.44997 0.0
H438 H 0.46087 0.18068 0.45574 0.0
H439 H 0.47021 0.32924 0.45934 0.0
H440 H 0.47662 0.37634 0.48524 0.0
C441 C 0.22763 0.44275 0.86222 0.0
C442 C 0.2592 0.46509 0.83885 0.0
C443 C 0.19681 0.5132 0.82956 0.0
C444 C 0.17575 0.50253 0.85508 0.0
N445 N 0.16936 0.45636 0.89606 0.0
N446 N 0.27375 0.51986 0.79943 0.0
C447 C 0.18939 0.46574 0.87139 0.0
C448 C 0.24262 0.49847 0.82192 0.0
N449 N 0.23552 0.40045 0.87571 0.0
N450 N 0.1734 0.53809 0.81288 0.0
H451 H 0.30625 0.50835 0.79291 0.0
H452 H 0.26953 0.55122 0.78776 0.0
H453 H 0.13981 0.54932 0.81819 0.0
H454 H 0.18284 0.54233 0.79348 0.0
H455 H 0.2102 0.37829 0.89197 0.0
H456 H 0.26351 0.3832 0.86909 0.0
H457 H 0.18398 0.43633 0.90968 0.0
H458 H 0.1406 0.47184 0.9034 0.0
C459 C 0.81604 0.2614 0.16231 0.0
C460 C 0.84218 0.31074 0.1802 0.0
C461 C 0.78173 0.23854 0.21417 0.0
C462 C 0.74946 0.19124 0.19591 0.0
N463 N 0.72871 0.16027 0.15188 0.0
N464 N 0.83652 0.34878 0.22195 0.0
C465 C 0.76461 0.20325 0.16972 0.0
C466 C 0.82142 0.30006 0.20584 0.0
N467 N 0.8415 0.26922 0.13862 0.0
N468 N 0.77553 0.22461 0.2395 0.0
H469 H 0.86172 0.39505 0.2162 0.0
H470 H 0.81767 0.34317 0.24012 0.0
H471 H 0.74814 0.17951 0.2464 0.0
H472 H 0.80276 0.25668 0.25336 0.0
H473 H 0.82807 0.23288 0.12572 0.0
H474 H 0.88005 0.31067 0.13272 0.0
H475 H 0.73386 0.16929 0.13244 0.0
H476 H 0.69025 0.11747 0.15654 0.0
C477 C -0.00587 0.50938 0.05066 0.0
C478 C 0.00378 0.5571 0.06803 0.0
C479 C 0.03371 0.63133 0.03305 0.0
C480 C 0.01934 0.58267 0.01548 0.0
N481 N 0.97323 0.4729 0.00711 0.0
N482 N 0.01658 0.65874 0.07518 0.0
C483 C -0.00435 0.52082 0.02415 0.0
C484 C 0.01869 0.6167 0.05904 0.0
N485 N 0.98653 0.45431 0.05936 0.0
N486 N 0.06412 0.69182 0.02516 0.0
H487 H 0.00358 0.64898 0.09423 0.0
H488 H 0.02112 0.70058 0.06906 0.0
H489 H 0.07746 0.70488 0.00634 0.0
H490 H 0.08147 0.72931 0.03768 0.0
H491 H 0.98617 0.42062 0.04746 0.0
H492 H 0.98599 0.44434 0.07861 0.0
H493 H 0.94969 0.42635 0.0125 0.0
H494 H 0.97299 0.47947 0.98755 0.0
C495 C 0.49276 0.0341 0.38547 0.0
C496 C 0.48215 0.98517 0.40226 0.0
C497 C 0.48739 0.92443 0.36665 0.0
C498 C 0.49477 0.97189 0.3497 0.0
N499 N 0.49077 0.06523 0.34204 0.0
N500 N 0.45419 0.87824 0.40834 0.0
C501 C 0.4931 0.02469 0.35884 0.0
C502 C 0.47476 0.92856 0.39266 0.0
N503 N 0.50592 0.09064 0.39492 0.0
N504 N 0.49508 0.87679 0.35813 0.0
H505 H 0.44323 0.87927 0.42742 0.0
H506 H 0.44205 0.83398 0.40188 0.0
H507 H 0.50475 0.87216 0.33922 0.0
H508 H 0.49714 0.84477 0.37018 0.0
H509 H 0.52106 0.13 0.38365 0.0
H510 H 0.50668 0.09982 0.41429 0.0
H511 H 0.48298 0.10096 0.34753 0.0
H512 H 0.491 0.05975 0.32239 0.0
C513 C 0.47117 0.44848 0.71797 0.0
C514 C 0.47934 0.50048 0.73226 0.0
C515 C 0.5196 0.56674 0.69463 0.0
C516 C 0.50926 0.51431 0.68011 0.0
N517 N 0.46088 0.40304 0.67621 0.0
N518 N 0.49498 0.60421 0.73293 0.0
C519 C 0.48023 0.45434 0.69124 0.0
C520 C 0.49828 0.55809 0.72013 0.0
N521 N 0.45865 0.39481 0.73 0.0
N522 N 0.55262 0.62513 0.68458 0.0
H523 H 0.47836 0.59885 0.75153 0.0
H524 H 0.50257 0.64507 0.72432 0.0
H525 H 0.56978 0.63379 0.66604 0.0
H526 H 0.56754 0.6654 0.69529 0.0
H527 H 0.45923 0.35799 0.72082 0.0
H528 H 0.45273 0.38884 0.7496 0.0
H529 H 0.43411 0.35779 0.68294 0.0
H530 H 0.46648 0.40579 0.65651 0.0
C531 C 0.48181 0.0185 0.6151 0.0
C532 C 0.53025 0.03657 0.59702 0.0
C533 C 0.60679 0.07202 0.6313 0.0
C534 C 0.55791 0.04869 0.64939 0.0
N535 N 0.4483 0.98897 0.65865 0.0
N536 N 0.63702 0.06716 0.58802 0.0
C537 C 0.49515 0.01874 0.64133 0.0
C538 C 0.59232 0.05964 0.60513 0.0
N539 N 0.42367 0.0036 0.60733 0.0
N540 N 0.66699 0.10781 0.63901 0.0
H541 H 0.62814 0.05688 0.56875 0.0
H542 H 0.68143 0.07754 0.59335 0.0
H543 H 0.6796 0.11847 0.65802 0.0
H544 H 0.70385 0.13158 0.6264 0.0
H545 H 0.38824 -0.00352 0.61986 0.0
H546 H 0.4123 0.00396 0.58831 0.0
H547 H 0.40196 0.96089 0.65355 0.0
H548 H 0.45626 0.98762 0.67801 0.0
C549 C 0.50182 0.50301 0.94474 0.0
C550 C 0.46879 0.45431 0.92702 0.0
C551 C 0.43304 0.37813 0.96155 0.0
C552 C 0.46017 0.42735 0.97943 0.0
N553 N 0.51052 0.53724 0.98839 0.0
N554 N 0.39261 0.34675 0.91903 0.0
C555 C 0.4918 0.49005 0.97114 0.0
C556 C 0.43155 0.3921 0.93553 0.0
N557 N 0.54481 0.56103 0.93645 0.0
N558 N 0.41025 0.31815 0.96929 0.0
H559 H 0.3884 0.35529 0.89997 0.0
H560 H 0.3599 0.30201 0.9248 0.0
H561 H 0.41112 0.30608 0.98818 0.0
H562 H 0.39592 0.28109 0.95669 0.0
H563 H 0.57478 0.59647 0.94862 0.0
H564 H 0.55495 0.57214 0.91729 0.0
H565 H 0.52781 0.58341 0.98318 0.0
H566 H 0.50351 0.52972 0.00791 0.0
C567 C 0.07176 0.59806 0.27468 0.0
C568 C 0.01534 0.55315 0.26329 0.0
C569 C 0.97897 0.49744 0.30357 0.0
C570 C 0.03564 0.54193 0.315 0.0
N571 N 0.13009 0.64111 0.31359 0.0
N572 N 0.9096 0.47041 0.26753 0.0
C573 C 0.08021 0.59452 0.3012 0.0
C574 C 0.96702 0.50614 0.27802 0.0
N575 N 0.11788 0.6426 0.25992 0.0
N576 N 0.93792 0.4455 0.31676 0.0
H577 H 0.8996 0.47666 0.24892 0.0
H578 H 0.87065 0.43893 0.27782 0.0
H579 H 0.94446 0.4379 0.33568 0.0
H580 H 0.89936 0.40791 0.30855 0.0
H581 H 0.16276 0.67237 0.26633 0.0
H582 H 0.11202 0.64803 0.24066 0.0
H583 H 0.16135 0.68336 0.30524 0.0
H584 H 0.13761 0.63949 0.33299 0.0
loop_
_geom_bond_atom_site_label_1
_geom_bond_atom_site_label_2
_geom_bond_distance
_geom_bond_site_symmetry_2
_ccdc_geom_bond_type
O0 Zn1 1.953 1_655 S
O0 C16 1.225 1_655 S
Zn1 O0 1.953 1_455 S
Zn1 O2 1.949 . S
Zn1 O8 1.919 1_455 S
Zn1 O13 1.924 . S
O2 Zn1 1.949 . S
O2 Zn3 1.923 1_455 S
O2 Zn4 1.950 . S
O2 Zn5 1.945 . S
Zn3 O2 1.923 1_655 S
Zn3 O6 1.933 . S
Zn3 O9 1.941 . S
Zn3 O10 1.965 . S
Zn4 O2 1.950 . S
Zn4 O11 1.938 1_455 S
Zn4 O12 1.906 . S
Zn4 O22 1.953 . S
Zn5 O2 1.945 . S
Zn5 O7 1.932 . S
Zn5 O14 1.977 . S
Zn5 O15 1.910 . S
O6 Zn3 1.933 . S
O6 C17 1.226 1_655 S
O7 Zn5 1.932 . S
O7 C17 1.307 . S
O8 Zn1 1.919 1_655 S
O8 C19 1.253 . S
O9 Zn3 1.941 . S
O9 C19 1.283 . S
O10 Zn3 1.965 . S
O10 C18 1.303 . S
O11 Zn4 1.938 1_655 S
O11 C18 1.247 . S
O12 Zn4 1.906 . S
O12 C20 1.304 . S
O13 Zn1 1.924 . S
O13 C21 1.311 . S
O14 Zn5 1.977 . S
O14 C20 1.272 . S
O15 Zn5 1.910 . S
O15 C21 1.231 . S
C16 O0 1.225 1_455 S
C16 O22 1.298 . S
C17 O6 1.226 1_455 S
C17 O7 1.307 . S
C18 O10 1.303 . S
C18 O11 1.247 . S
C19 O8 1.253 . S
C19 O9 1.283 . S
C20 O12 1.304 . S
C20 O14 1.272 . S
C21 O13 1.311 . S
C21 O15 1.231 . S
O22 Zn4 1.953 . S
O22 C16 1.298 . S
O23 Zn24 1.953 . S
O23 C39 1.225 . S
Zn24 O23 1.953 . S
Zn24 O25 1.949 . S
Zn24 O31 1.919 . S
Zn24 O36 1.924 1_545 S
O25 Zn24 1.949 . S
O25 Zn26 1.923 . S
O25 Zn27 1.950 . S
O25 Zn28 1.945 1_545 S
Zn26 O25 1.923 . S
Zn26 O29 1.933 . S
Zn26 O32 1.941 . S
Zn26 O33 1.965 . S
Zn27 O25 1.950 . S
Zn27 O34 1.938 . S
Zn27 O35 1.906 1_545 S
Zn27 O45 1.953 . S
Zn28 O25 1.945 1_565 S
Zn28 O30 1.932 . S
Zn28 O37 1.977 . S
Zn28 O38 1.910 . S
O29 Zn26 1.933 . S
O29 C40 1.226 . S
O30 Zn28 1.932 . S
O30 C40 1.307 1_565 S
O31 Zn24 1.919 . S
O31 C42 1.253 . S
O32 Zn26 1.941 . S
O32 C42 1.283 . S
O33 Zn26 1.965 . S
O33 C41 1.303 . S
O34 Zn27 1.938 . S
O34 C41 1.247 . S
O35 Zn27 1.906 1_565 S
O35 C43 1.304 . S
O36 Zn24 1.924 1_565 S
O36 C44 1.311 . S
O37 Zn28 1.977 . S
O37 C43 1.272 . S
O38 Zn28 1.910 . S
O38 C44 1.231 . S
C39 O23 1.225 . S
C39 O45 1.298 . S
C40 O29 1.226 . S
C40 O30 1.307 1_545 S
C41 O33 1.303 . S
C41 O34 1.247 . S
C42 O31 1.253 . S
C42 O32 1.283 . S
C43 O35 1.304 . S
C43 O37 1.272 . S
C44 O36 1.311 . S
C44 O38 1.231 . S
O45 Zn27 1.953 . S
O45 C39 1.298 . S
O46 Zn47 1.953 . S
O46 C62 1.225 . S
Zn47 O46 1.953 . S
Zn47 O48 1.949 . S
Zn47 O54 1.919 . S
Zn47 O59 1.924 . S
O48 Zn47 1.949 . S
O48 Zn49 1.923 . S
O48 Zn50 1.950 . S
O48 Zn51 1.945 . S
Zn49 O48 1.923 . S
Zn49 O52 1.933 . S
Zn49 O55 1.941 . S
Zn49 O56 1.965 . S
Zn50 O48 1.950 . S
Zn50 O57 1.938 . S
Zn50 O58 1.906 . S
Zn50 O68 1.953 . S
Zn51 O48 1.945 . S
Zn51 O53 1.932 . S
Zn51 O60 1.977 . S
Zn51 O61 1.910 . S
O52 Zn49 1.933 . S
O52 C63 1.226 . S
O53 Zn51 1.932 . S
O53 C63 1.307 . S
O54 Zn47 1.919 . S
O54 C65 1.253 . S
O55 Zn49 1.941 . S
O55 C65 1.283 . S
O56 Zn49 1.965 . S
O56 C64 1.303 . S
O57 Zn50 1.938 . S
O57 C64 1.247 . S
O58 Zn50 1.906 . S
O58 C66 1.304 . S
O59 Zn47 1.924 . S
O59 C67 1.311 . S
O60 Zn51 1.977 . S
O60 C66 1.272 . S
O61 Zn51 1.910 . S
O61 C67 1.231 . S
C62 O46 1.225 . S
C62 O68 1.298 . S
C63 O52 1.226 . S
C63 O53 1.307 . S
C64 O56 1.303 . S
C64 O57 1.247 . S
C65 O54 1.253 . S
C65 O55 1.283 . S
C66 O58 1.304 . S
C66 O60 1.272 . S
C67 O59 1.311 . S
C67 O61 1.231 . S
O68 Zn50 1.953 . S
O68 C62 1.298 . S
P69 O80 1.490 . S
P69 C83 1.812 . S
P69 C89 1.803 1_565 S
P69 C95 1.815 1_565 S
H70 C84 0.941 . S
H71 C85 0.939 . S
H72 C87 0.940 . S
H73 C88 0.940 . S
H74 C90 0.939 . S
H75 C91 0.942 . S
H76 C93 0.940 . S
H77 C94 0.939 . S
H78 C96 0.941 . S
H79 C100 0.939 . S
O80 P69 1.490 . S
H81 C97 0.939 . S
H82 C99 0.940 . S
C83 P69 1.812 . S
C83 C84 1.389 . S
C83 C88 1.391 . S
C84 H70 0.941 . S
C84 C83 1.389 . S
C84 C85 1.397 . S
C85 H71 0.939 . S
C85 C84 1.397 . S
C85 C86 1.378 . S
C86 C85 1.378 . S
C86 C87 1.378 . S
C87 H72 0.940 . S
C87 C86 1.378 . S
C87 C88 1.396 . S
C88 H73 0.940 . S
C88 C83 1.391 . S
C88 C87 1.396 . S
C89 P69 1.803 1_545 S
C89 C90 1.378 . S
C89 C94 1.400 . S
C90 H74 0.939 . S
C90 C89 1.378 . S
C90 C91 1.361 . S
C91 H75 0.942 . S
C91 C90 1.361 . S
C91 C92 1.369 . S
C92 C91 1.369 . S
C92 C93 1.404 . S
C93 H76 0.940 . S
C93 C92 1.404 . S
C93 C94 1.389 . S
C94 H77 0.939 . S
C94 C89 1.400 . S
C94 C93 1.389 . S
C95 P69 1.815 1_545 S
C95 C96 1.383 1_545 S
C95 C100 1.404 . S
C96 H78 0.941 . S
C96 C95 1.383 1_565 S
C96 C97 1.396 . S
C97 H81 0.939 . S
C97 C96 1.396 . S
C97 C98 1.397 1_565 S
C98 C97 1.397 1_545 S
C98 C99 1.385 . S
C99 H82 0.940 . S
C99 C98 1.385 . S
C99 C100 1.388 . S
C100 H79 0.939 . S
C100 C95 1.404 . S
C100 C99 1.388 . S
P101 O112 1.490 . S
P101 C115 1.812 . S
P101 C121 1.803 . S
P101 C127 1.819 . S
H102 C116 0.941 . S
H103 C117 0.939 . S
H104 C119 0.940 . S
H105 C120 0.940 . S
H106 C122 0.939 . S
H107 C123 0.942 . S
H108 C125 0.940 . S
H109 C126 0.939 . S
H110 C128 0.941 . S
H111 C132 0.939 . S
O112 P101 1.490 . S
H113 C129 0.939 . S
H114 C131 0.940 . S
C115 P101 1.812 . S
C115 C116 1.389 . S
C115 C120 1.391 . S
C116 H102 0.941 . S
C116 C115 1.389 . S
C116 C117 1.397 . S
C117 H103 0.939 . S
C117 C116 1.397 . S
C117 C118 1.378 . S
C118 C117 1.378 . S
C118 C119 1.378 . S
C119 H104 0.940 . S
C119 C118 1.378 . S
C119 C120 1.396 . S
C120 H105 0.940 . S
C120 C115 1.391 . S
C120 C119 1.396 . S
C121 P101 1.803 . S
C121 C122 1.378 . S
C121 C126 1.400 . S
C122 H106 0.939 . S
C122 C121 1.378 . S
C122 C123 1.361 . S
C123 H107 0.942 . S
C123 C122 1.361 . S
C123 C124 1.369 . S
C124 C123 1.369 . S
C124 C125 1.404 . S
C125 H108 0.940 . S
C125 C124 1.404 . S
C125 C126 1.389 . S
C126 H109 0.939 . S
C126 C121 1.400 . S
C126 C125 1.389 . S
C127 P101 1.819 . S
C127 C128 1.391 . S
C127 C132 1.391 . S
C128 H110 0.941 . S
C128 C127 1.391 . S
C128 C129 1.396 . S
C129 H113 0.939 . S
C129 C128 1.396 . S
C129 C130 1.397 . S
C130 C129 1.397 . S
C130 C131 1.385 . S
C131 H114 0.940 . S
C131 C130 1.385 . S
C131 C132 1.388 . S
C132 H111 0.939 . S
C132 C127 1.391 . S
C132 C131 1.388 . S
P133 O144 1.490 . S
P133 C147 1.812 . S
P133 C153 1.803 1_455 S
P133 C159 1.819 . S
H134 C148 0.941 . S
H135 C149 0.939 . S
H136 C151 0.940 . S
H137 C152 0.940 . S
H138 C154 0.939 . S
H139 C155 0.942 . S
H140 C157 0.940 . S
H141 C158 0.939 . S
H142 C160 0.941 . S
H143 C164 0.939 . S
O144 P133 1.490 . S
H145 C161 0.939 . S
H146 C163 0.940 . S
C147 P133 1.812 . S
C147 C148 1.389 . S
C147 C152 1.391 . S
C148 H134 0.941 . S
C148 C147 1.389 . S
C148 C149 1.397 . S
C149 H135 0.939 . S
C149 C148 1.397 . S
C149 C150 1.378 . S
C150 C149 1.378 . S
C150 C151 1.378 . S
C151 H136 0.940 . S
C151 C150 1.378 . S
C151 C152 1.396 . S
C152 H137 0.940 . S
C152 C147 1.391 . S
C152 C151 1.396 . S
C153 P133 1.803 1_655 S
C153 C154 1.378 . S
C153 C158 1.400 . S
C154 H138 0.939 . S
C154 C153 1.378 . S
C154 C155 1.361 . S
C155 H139 0.942 . S
C155 C154 1.361 . S
C155 C156 1.369 . S
C156 C155 1.369 . S
C156 C157 1.404 . S
C157 H140 0.940 . S
C157 C156 1.404 . S
C157 C158 1.389 . S
C158 H141 0.939 . S
C158 C153 1.400 . S
C158 C157 1.389 . S
C159 P133 1.819 . S
C159 C160 1.391 . S
C159 C164 1.391 1_455 S
C160 H142 0.941 . S
C160 C159 1.391 . S
C160 C161 1.396 . S
C161 H145 0.939 . S
C161 C160 1.396 . S
C161 C162 1.397 . S
C162 C161 1.397 . S
C162 C163 1.385 1_455 S
C163 H146 0.940 . S
C163 C162 1.385 1_655 S
C163 C164 1.388 . S
C164 H143 0.939 . S
C164 C159 1.391 1_655 S
C164 C163 1.388 . S
P165 O176 1.490 . S
P165 C179 1.812 . S
P165 C185 1.803 1_455 S
P165 C191 1.819 . S
H166 C180 0.941 . S
H167 C181 0.939 . S
H168 C183 0.940 . S
H169 C184 0.940 . S
H170 C186 0.939 . S
H171 C187 0.942 . S
H172 C189 0.940 . S
H173 C190 0.939 . S
H174 C192 0.941 . S
H175 C196 0.939 . S
O176 P165 1.490 . S
H177 C193 0.939 . S
H178 C195 0.940 . S
C179 P165 1.812 . S
C179 C180 1.389 . S
C179 C184 1.391 . S
C180 H166 0.941 . S
C180 C179 1.389 . S
C180 C181 1.397 . S
C181 H167 0.939 . S
C181 C180 1.397 . S
C181 C182 1.378 . S
C182 C181 1.378 . S
C182 C183 1.378 . S
C183 H168 0.940 . S
C183 C182 1.378 . S
C183 C184 1.396 . S
C184 H169 0.940 . S
C184 C179 1.391 . S
C184 C183 1.396 . S
C185 P165 1.803 1_655 S
C185 C186 1.378 . S
C185 C190 1.400 . S
C186 H170 0.939 . S
C186 C185 1.378 . S
C186 C187 1.361 . S
C187 H171 0.942 . S
C187 C186 1.361 . S
C187 C188 1.369 . S
C188 C187 1.369 . S
C188 C189 1.404 . S
C189 H172 0.940 . S
C189 C188 1.404 . S
C189 C190 1.389 . S
C190 H173 0.939 . S
C190 C185 1.400 . S
C190 C189 1.389 . S
C191 P165 1.819 . S
C191 C192 1.391 . S
C191 C196 1.391 1_455 S
C192 H174 0.941 . S
C192 C191 1.391 . S
C192 C193 1.396 . S
C193 H177 0.939 . S
C193 C192 1.396 . S
C193 C194 1.397 . S
C194 C193 1.397 . S
C194 C195 1.385 1_455 S
C195 H178 0.940 . S
C195 C194 1.385 1_655 S
C195 C196 1.388 . S
C196 H175 0.939 . S
C196 C191 1.391 1_655 S
C196 C195 1.388 . S
P197 O208 1.490 . S
P197 C211 1.812 . S
P197 C217 1.803 1_545 S
P197 C223 1.819 . S
H198 C212 0.941 . S
H199 C213 0.939 . S
H200 C215 0.940 . S
H201 C216 0.940 . S
H202 C218 0.939 . S
H203 C219 0.942 . S
H204 C221 0.940 . S
H205 C222 0.939 . S
H206 C224 0.941 . S
H207 C228 0.939 . S
O208 P197 1.490 . S
H209 C225 0.939 . S
H210 C227 0.940 . S
C211 P197 1.812 . S
C211 C212 1.389 . S
C211 C216 1.391 . S
C212 H198 0.941 . S
C212 C211 1.389 . S
C212 C213 1.397 . S
C213 H199 0.939 . S
C213 C212 1.397 . S
C213 C214 1.378 . S
C214 C213 1.378 . S
C214 C215 1.378 . S
C215 H200 0.940 . S
C215 C214 1.378 . S
C215 C216 1.396 . S
C216 H201 0.940 . S
C216 C211 1.391 . S
C216 C215 1.396 . S
C217 P197 1.803 1_565 S
C217 C218 1.378 . S
C217 C222 1.400 . S
C218 H202 0.939 . S
C218 C217 1.378 . S
C218 C219 1.361 . S
C219 H203 0.942 . S
C219 C218 1.361 . S
C219 C220 1.369 . S
C220 C219 1.369 . S
C220 C221 1.404 . S
C221 H204 0.940 . S
C221 C220 1.404 . S
C221 C222 1.389 . S
C222 H205 0.939 . S
C222 C217 1.400 . S
C222 C221 1.389 . S
C223 P197 1.819 . S
C223 C224 1.391 . S
C223 C228 1.391 1_545 S
C224 H206 0.941 . S
C224 C223 1.391 . S
C224 C225 1.396 . S
C225 H209 0.939 . S
C225 C224 1.396 . S
C225 C226 1.397 . S
C226 C225 1.397 . S
C226 C227 1.385 1_545 S
C227 H210 0.940 . S
C227 C226 1.385 1_565 S
C227 C228 1.388 . S
C228 H207 0.939 . S
C228 C223 1.391 1_565 S
C228 C227 1.388 . S
P229 O240 1.490 . S
P229 C243 1.812 . S
P229 C249 1.803 . S
P229 C255 1.819 . S
H230 C244 0.941 . S
H231 C245 0.939 . S
H232 C247 0.940 . S
H233 C248 0.940 . S
H234 C250 0.939 . S
H235 C251 0.942 . S
H236 C253 0.940 . S
H237 C254 0.939 . S
H238 C256 0.941 . S
H239 C260 0.939 . S
O240 P229 1.490 . S
H241 C257 0.939 . S
H242 C259 0.940 . S
C243 P229 1.812 . S
C243 C244 1.389 . S
C243 C248 1.391 . S
C244 H230 0.941 . S
C244 C243 1.389 . S
C244 C245 1.397 . S
C245 H231 0.939 . S
C245 C244 1.397 . S
C245 C246 1.378 . S
C246 C245 1.378 . S
C246 C247 1.378 . S
C247 H232 0.940 . S
C247 C246 1.378 . S
C247 C248 1.396 . S
C248 H233 0.940 . S
C248 C243 1.391 . S
C248 C247 1.396 . S
C249 P229 1.803 . S
C249 C250 1.378 . S
C249 C254 1.400 . S
C250 H234 0.939 . S
C250 C249 1.378 . S
C250 C251 1.361 . S
C251 H235 0.942 . S
C251 C250 1.361 . S
C251 C252 1.369 . S
C252 C251 1.369 . S
C252 C253 1.404 . S
C253 H236 0.940 . S
C253 C252 1.404 . S
C253 C254 1.389 . S
C254 H237 0.939 . S
C254 C249 1.400 . S
C254 C253 1.389 . S
C255 P229 1.819 . S
C255 C256 1.391 . S
C255 C260 1.391 . S
C256 H238 0.941 . S
C256 C255 1.391 . S
C256 C257 1.396 . S
C257 H241 0.939 . S
C257 C256 1.396 . S
C257 C258 1.397 . S
C258 C257 1.397 . S
C258 C259 1.385 . S
C259 H242 0.940 . S
C259 C258 1.385 . S
C259 C260 1.388 . S
C260 H239 0.939 . S
C260 C255 1.391 . S
C260 C259 1.388 . S
C261 C262 1.363 . S
C261 C267 1.379 . S
C261 N269 1.356 . S
C262 C261 1.363 . S
C262 C268 1.363 . S
C263 C264 1.363 . S
C263 C268 1.379 . S
C263 N270 1.356 . S
C264 C263 1.363 . S
C264 C267 1.363 . S
N265 C267 1.356 . S
N265 H277 0.984 . S
N265 H278 0.985 . S
N266 C268 1.356 . S
N266 H271 0.984 . S
N266 H272 0.985 . S
C267 C261 1.379 . S
C267 C264 1.363 . S
C267 N265 1.356 . S
C268 C262 1.363 . S
C268 C263 1.379 . S
C268 N266 1.356 . S
N269 C261 1.356 . S
N269 H275 0.984 . S
N269 H276 0.984 . S
N270 C263 1.356 . S
N270 H273 0.984 . S
N270 H274 0.985 . S
H271 N266 0.984 . S
H272 N266 0.985 . S
H273 N270 0.984 . S
H274 N270 0.985 . S
H275 N269 0.984 . S
H276 N269 0.984 . S
H277 N265 0.984 . S
H278 N265 0.985 . S
C279 C280 1.363 . S
C279 C285 1.379 . S
C279 N287 1.356 . S
C280 C279 1.363 . S
C280 C286 1.363 . S
C281 C282 1.363 . S
C281 C286 1.379 . S
C281 N288 1.356 . S
C282 C281 1.363 . S
C282 C285 1.363 . S
N283 C285 1.356 . S
N283 H295 0.984 . S
N283 H296 0.985 . S
N284 C286 1.356 . S
N284 H289 0.984 . S
N284 H290 0.985 . S
C285 C279 1.379 . S
C285 C282 1.363 . S
C285 N283 1.356 . S
C286 C280 1.363 . S
C286 C281 1.379 . S
C286 N284 1.356 . S
N287 C279 1.356 . S
N287 H293 0.984 . S
N287 H294 0.984 . S
N288 C281 1.356 . S
N288 H291 0.984 . S
N288 H292 0.985 . S
H289 N284 0.984 . S
H290 N284 0.985 . S
H291 N288 0.984 . S
H292 N288 0.985 . S
H293 N287 0.984 . S
H294 N287 0.984 . S
H295 N283 0.984 . S
H296 N283 0.985 . S
C297 C298 1.363 . S
C297 C303 1.379 . S
C297 N305 1.356 . S
C298 C297 1.363 . S
C298 C304 1.363 . S
C299 C300 1.363 . S
C299 C304 1.379 . S
C299 N306 1.356 . S
C300 C299 1.363 . S
C300 C303 1.363 . S
N301 C303 1.356 . S
N301 H313 0.984 . S
N301 H314 0.985 . S
N302 C304 1.356 . S
N302 H307 0.984 . S
N302 H308 0.985 . S
C303 C297 1.379 . S
C303 C300 1.363 . S
C303 N301 1.356 . S
C304 C298 1.363 . S
C304 C299 1.379 . S
C304 N302 1.356 . S
N305 C297 1.356 . S
N305 H311 0.984 . S
N305 H312 0.984 . S
N306 C299 1.356 . S
N306 H309 0.984 . S
N306 H310 0.985 . S
H307 N302 0.984 . S
H308 N302 0.985 . S
H309 N306 0.984 . S
H310 N306 0.985 . S
H311 N305 0.984 . S
H312 N305 0.984 . S
H313 N301 0.984 . S
H314 N301 0.985 . S
C315 C316 1.363 . S
C315 C321 1.379 . S
C315 N323 1.356 . S
C316 C315 1.363 . S
C316 C322 1.363 . S
C317 C318 1.363 . S
C317 C322 1.379 . S
C317 N324 1.356 . S
C318 C317 1.363 . S
C318 C321 1.363 . S
N319 C321 1.356 . S
N319 H331 0.984 . S
N319 H332 0.985 . S
N320 C322 1.356 . S
N320 H325 0.984 . S
N320 H326 0.985 . S
C321 C315 1.379 . S
C321 C318 1.363 . S
C321 N319 1.356 . S
C322 C316 1.363 . S
C322 C317 1.379 . S
C322 N320 1.356 . S
N323 C315 1.356 . S
N323 H329 0.984 . S
N323 H330 0.984 . S
N324 C317 1.356 . S
N324 H327 0.984 . S
N324 H328 0.985 . S
H325 N320 0.984 . S
H326 N320 0.985 . S
H327 N324 0.984 . S
H328 N324 0.985 . S
H329 N323 0.984 . S
H330 N323 0.984 . S
H331 N319 0.984 . S
H332 N319 0.985 . S
C333 C334 1.363 . S
C333 C339 1.379 . S
C333 N341 1.356 . S
C334 C333 1.363 . S
C334 C340 1.363 . S
C335 C336 1.363 . S
C335 C340 1.379 . S
C335 N342 1.356 . S
C336 C335 1.363 . S
C336 C339 1.363 . S
N337 C339 1.356 . S
N337 H349 0.984 . S
N337 H350 0.985 . S
N338 C340 1.356 . S
N338 H343 0.984 . S
N338 H344 0.985 . S
C339 C333 1.379 . S
C339 C336 1.363 . S
C339 N337 1.356 . S
C340 C334 1.363 . S
C340 C335 1.379 . S
C340 N338 1.356 . S
N341 C333 1.356 . S
N341 H347 0.984 . S
N341 H348 0.984 . S
N342 C335 1.356 . S
N342 H345 0.984 . S
N342 H346 0.985 . S
H343 N338 0.984 . S
H344 N338 0.985 . S
H345 N342 0.984 . S
H346 N342 0.985 . S
H347 N341 0.984 . S
H348 N341 0.984 . S
H349 N337 0.984 . S
H350 N337 0.985 . S
C351 C352 1.363 . S
C351 C357 1.379 . S
C351 N359 1.356 . S
C352 C351 1.363 . S
C352 C358 1.363 . S
C353 C354 1.363 . S
C353 C358 1.379 . S
C353 N360 1.356 . S
C354 C353 1.363 . S
C354 C357 1.363 . S
N355 C357 1.356 . S
N355 H367 0.984 . S
N355 H368 0.985 . S
N356 C358 1.356 . S
N356 H361 0.984 . S
N356 H362 0.985 . S
C357 C351 1.379 . S
C357 C354 1.363 . S
C357 N355 1.356 . S
C358 C352 1.363 . S
C358 C353 1.379 . S
C358 N356 1.356 . S
N359 C351 1.356 . S
N359 H365 0.984 . S
N359 H366 0.984 . S
N360 C353 1.356 . S
N360 H363 0.984 . S
N360 H364 0.985 . S
H361 N356 0.984 . S
H362 N356 0.985 . S
H363 N360 0.984 . S
H364 N360 0.985 . S
H365 N359 0.984 . S
H366 N359 0.984 . S
H367 N355 0.984 . S
H368 N355 0.985 . S
C369 C370 1.363 . S
C369 C375 1.379 . S
C369 N377 1.356 . S
C370 C369 1.363 . S
C370 C376 1.363 . S
C371 C372 1.363 . S
C371 C376 1.379 . S
C371 N378 1.356 . S
C372 C371 1.363 . S
C372 C375 1.363 . S
N373 C375 1.356 . S
N373 H385 0.984 . S
N373 H386 0.985 . S
N374 C376 1.356 . S
N374 H379 0.984 . S
N374 H380 0.985 . S
C375 C369 1.379 . S
C375 C372 1.363 . S
C375 N373 1.356 . S
C376 C370 1.363 . S
C376 C371 1.379 . S
C376 N374 1.356 . S
N377 C369 1.356 . S
N377 H383 0.984 . S
N377 H384 0.984 . S
N378 C371 1.356 . S
N378 H381 0.984 . S
N378 H382 0.985 . S
H379 N374 0.984 . S
H380 N374 0.985 . S
H381 N378 0.984 . S
H382 N378 0.985 . S
H383 N377 0.984 . S
H384 N377 0.984 . S
H385 N373 0.984 . S
H386 N373 0.985 . S
C387 C388 1.363 . S
C387 C393 1.379 . S
C387 N395 1.356 . S
C388 C387 1.363 . S
C388 C394 1.363 . S
C389 C390 1.363 . S
C389 C394 1.379 . S
C389 N396 1.356 . S
C390 C389 1.363 . S
C390 C393 1.363 . S
N391 C393 1.356 . S
N391 H403 0.984 . S
N391 H404 0.985 . S
N392 C394 1.356 . S
N392 H397 0.984 . S
N392 H398 0.985 . S
C393 C387 1.379 . S
C393 C390 1.363 . S
C393 N391 1.356 . S
C394 C388 1.363 . S
C394 C389 1.379 . S
C394 N392 1.356 . S
N395 C387 1.356 . S
N395 H401 0.984 . S
N395 H402 0.984 . S
N396 C389 1.356 . S
N396 H399 0.984 . S
N396 H400 0.985 . S
H397 N392 0.984 . S
H398 N392 0.985 . S
H399 N396 0.984 . S
H400 N396 0.985 . S
H401 N395 0.984 . S
H402 N395 0.984 . S
H403 N391 0.984 . S
H404 N391 0.985 . S
C405 C406 1.363 . S
C405 C411 1.379 . S
C405 N413 1.356 . S
C406 C405 1.363 . S
C406 C412 1.363 . S
C407 C408 1.363 . S
C407 C412 1.379 . S
C407 N414 1.356 . S
C408 C407 1.363 . S
C408 C411 1.363 . S
N409 C411 1.356 . S
N409 H421 0.984 . S
N409 H422 0.985 . S
N410 C412 1.356 . S
N410 H415 0.984 . S
N410 H416 0.985 . S
C411 C405 1.379 . S
C411 C408 1.363 . S
C411 N409 1.356 . S
C412 C406 1.363 . S
C412 C407 1.379 . S
C412 N410 1.356 . S
N413 C405 1.356 . S
N413 H419 0.984 . S
N413 H420 0.984 . S
N414 C407 1.356 . S
N414 H417 0.984 . S
N414 H418 0.985 . S
H415 N410 0.984 . S
H416 N410 0.985 . S
H417 N414 0.984 . S
H418 N414 0.985 . S
H419 N413 0.984 . S
H420 N413 0.984 . S
H421 N409 0.984 . S
H422 N409 0.985 . S
C423 C424 1.363 . S
C423 C429 1.379 . S
C423 N431 1.356 . S
C424 C423 1.363 . S
C424 C430 1.363 . S
C425 C426 1.363 . S
C425 C430 1.379 . S
C425 N432 1.356 . S
C426 C425 1.363 . S
C426 C429 1.363 . S
N427 C429 1.356 . S
N427 H439 0.984 . S
N427 H440 0.985 . S
N428 C430 1.356 . S
N428 H433 0.984 . S
N428 H434 0.985 . S
C429 C423 1.379 . S
C429 C426 1.363 . S
C429 N427 1.356 . S
C430 C424 1.363 . S
C430 C425 1.379 . S
C430 N428 1.356 . S
N431 C423 1.356 . S
N431 H437 0.984 . S
N431 H438 0.984 . S
N432 C425 1.356 . S
N432 H435 0.984 . S
N432 H436 0.985 . S
H433 N428 0.984 . S
H434 N428 0.985 . S
H435 N432 0.984 . S
H436 N432 0.985 . S
H437 N431 0.984 . S
H438 N431 0.984 . S
H439 N427 0.984 . S
H440 N427 0.985 . S
C441 C442 1.363 . S
C441 C447 1.379 . S
C441 N449 1.356 . S
C442 C441 1.363 . S
C442 C448 1.363 . S
C443 C444 1.363 . S
C443 C448 1.379 . S
C443 N450 1.356 . S
C444 C443 1.363 . S
C444 C447 1.363 . S
N445 C447 1.356 . S
N445 H457 0.984 . S
N445 H458 0.985 . S
N446 C448 1.356 . S
N446 H451 0.984 . S
N446 H452 0.985 . S
C447 C441 1.379 . S
C447 C444 1.363 . S
C447 N445 1.356 . S
C448 C442 1.363 . S
C448 C443 1.379 . S
C448 N446 1.356 . S
N449 C441 1.356 . S
N449 H455 0.984 . S
N449 H456 0.984 . S
N450 C443 1.356 . S
N450 H453 0.984 . S
N450 H454 0.985 . S
H451 N446 0.984 . S
H452 N446 0.985 . S
H453 N450 0.984 . S
H454 N450 0.985 . S
H455 N449 0.984 . S
H456 N449 0.984 . S
H457 N445 0.984 . S
H458 N445 0.985 . S
C459 C460 1.363 . S
C459 C465 1.379 . S
C459 N467 1.356 . S
C460 C459 1.363 . S
C460 C466 1.363 . S
C461 C462 1.363 . S
C461 C466 1.379 . S
C461 N468 1.356 . S
C462 C461 1.363 . S
C462 C465 1.363 . S
N463 C465 1.356 . S
N463 H475 0.984 . S
N463 H476 0.985 . S
N464 C466 1.356 . S
N464 H469 0.984 . S
N464 H470 0.985 . S
C465 C459 1.379 . S
C465 C462 1.363 . S
C465 N463 1.356 . S
C466 C460 1.363 . S
C466 C461 1.379 . S
C466 N464 1.356 . S
N467 C459 1.356 . S
N467 H473 0.984 . S
N467 H474 0.984 . S
N468 C461 1.356 . S
N468 H471 0.984 . S
N468 H472 0.985 . S
H469 N464 0.984 . S
H470 N464 0.985 . S
H471 N468 0.984 . S
H472 N468 0.985 . S
H473 N467 0.984 . S
H474 N467 0.984 . S
H475 N463 0.984 . S
H476 N463 0.985 . S
C477 C478 1.363 . S
C477 C483 1.379 . S
C477 N485 1.356 . S
C478 C477 1.363 . S
C478 C484 1.363 . S
C479 C480 1.363 . S
C479 C484 1.379 . S
C479 N486 1.356 . S
C480 C479 1.363 . S
C480 C483 1.363 . S
N481 C483 1.356 . S
N481 H493 0.984 . S
N481 H494 0.985 1_554 S
N482 C484 1.356 . S
N482 H487 0.984 . S
N482 H488 0.985 . S
C483 C477 1.379 . S
C483 C480 1.363 . S
C483 N481 1.356 . S
C484 C478 1.363 . S
C484 C479 1.379 . S
C484 N482 1.356 . S
N485 C477 1.356 . S
N485 H491 0.984 . S
N485 H492 0.984 . S
N486 C479 1.356 . S
N486 H489 0.984 1_554 S
N486 H490 0.985 . S
H487 N482 0.984 . S
H488 N482 0.985 . S
H489 N486 0.984 1_556 S
H490 N486 0.985 . S
H491 N485 0.984 . S
H492 N485 0.984 . S
H493 N481 0.984 . S
H494 N481 0.985 1_556 S
C495 C496 1.363 . S
C495 C501 1.379 . S
C495 N503 1.356 . S
C496 C495 1.363 . S
C496 C502 1.363 1_545 S
C497 C498 1.363 1_565 S
C497 C502 1.379 . S
C497 N504 1.356 . S
C498 C497 1.363 1_545 S
C498 C501 1.363 . S
N499 C501 1.356 . S
N499 H511 0.984 . S
N499 H512 0.985 . S
N500 C502 1.356 . S
N500 H505 0.984 . S
N500 H506 0.985 . S
C501 C495 1.379 . S
C501 C498 1.363 . S
C501 N499 1.356 . S
C502 C496 1.363 1_565 S
C502 C497 1.379 . S
C502 N500 1.356 . S
N503 C495 1.356 . S
N503 H509 0.984 . S
N503 H510 0.984 . S
N504 C497 1.356 . S
N504 H507 0.984 . S
N504 H508 0.985 . S
H505 N500 0.984 . S
H506 N500 0.985 . S
H507 N504 0.984 . S
H508 N504 0.985 . S
H509 N503 0.984 . S
H510 N503 0.984 . S
H511 N499 0.984 . S
H512 N499 0.985 . S
C513 C514 1.363 . S
C513 C519 1.379 . S
C513 N521 1.356 . S
C514 C513 1.363 . S
C514 C520 1.363 . S
C515 C516 1.363 . S
C515 C520 1.379 . S
C515 N522 1.356 . S
C516 C515 1.363 . S
C516 C519 1.363 . S
N517 C519 1.356 . S
N517 H529 0.984 . S
N517 H530 0.985 . S
N518 C520 1.356 . S
N518 H523 0.984 . S
N518 H524 0.985 . S
C519 C513 1.379 . S
C519 C516 1.363 . S
C519 N517 1.356 . S
C520 C514 1.363 . S
C520 C515 1.379 . S
C520 N518 1.356 . S
N521 C513 1.356 . S
N521 H527 0.984 . S
N521 H528 0.984 . S
N522 C515 1.356 . S
N522 H525 0.984 . S
N522 H526 0.985 . S
H523 N518 0.984 . S
H524 N518 0.985 . S
H525 N522 0.984 . S
H526 N522 0.985 . S
H527 N521 0.984 . S
H528 N521 0.984 . S
H529 N517 0.984 . S
H530 N517 0.985 . S
C531 C532 1.363 1_565 S
C531 C537 1.379 . S
C531 N539 1.356 . S
C532 C531 1.363 1_545 S
C532 C538 1.363 . S
C533 C534 1.363 . S
C533 C538 1.379 . S
C533 N540 1.356 . S
C534 C533 1.363 . S
C534 C537 1.363 1_545 S
N535 C537 1.356 . S
N535 H547 0.984 . S
N535 H548 0.985 . S
N536 C538 1.356 . S
N536 H541 0.984 . S
N536 H542 0.985 . S
C537 C531 1.379 . S
C537 C534 1.363 1_565 S
C537 N535 1.356 . S
C538 C532 1.363 . S
C538 C533 1.379 . S
C538 N536 1.356 . S
N539 C531 1.356 . S
N539 H545 0.984 . S
N539 H546 0.984 . S
N540 C533 1.356 . S
N540 H543 0.984 . S
N540 H544 0.985 . S
H541 N536 0.984 . S
H542 N536 0.985 . S
H543 N540 0.984 . S
H544 N540 0.985 . S
H545 N539 0.984 . S
H546 N539 0.984 . S
H547 N535 0.984 . S
H548 N535 0.985 . S
C549 C550 1.363 . S
C549 C555 1.379 . S
C549 N557 1.356 . S
C550 C549 1.363 . S
C550 C556 1.363 . S
C551 C552 1.363 . S
C551 C556 1.379 . S
C551 N558 1.356 . S
C552 C551 1.363 . S
C552 C555 1.363 . S
N553 C555 1.356 . S
N553 H565 0.984 . S
N553 H566 0.985 1_556 S
N554 C556 1.356 . S
N554 H559 0.984 . S
N554 H560 0.985 . S
C555 C549 1.379 . S
C555 C552 1.363 . S
C555 N553 1.356 . S
C556 C550 1.363 . S
C556 C551 1.379 . S
C556 N554 1.356 . S
N557 C549 1.356 . S
N557 H563 0.984 . S
N557 H564 0.984 . S
N558 C551 1.356 . S
N558 H561 0.984 1_556 S
N558 H562 0.985 . S
H559 N554 0.984 . S
H560 N554 0.985 . S
H561 N558 0.984 1_554 S
H562 N558 0.985 . S
H563 N557 0.984 . S
H564 N557 0.984 . S
H565 N553 0.984 . S
H566 N553 0.985 1_554 S
C567 C568 1.363 . S
C567 C573 1.379 . S
C567 N575 1.356 . S
C568 C567 1.363 . S
C568 C574 1.363 1_455 S
C569 C570 1.363 1_655 S
C569 C574 1.379 . S
C569 N576 1.356 . S
C570 C569 1.363 1_455 S
C570 C573 1.363 . S
N571 C573 1.356 . S
N571 H583 0.984 . S
N571 H584 0.985 . S
N572 C574 1.356 . S
N572 H577 0.984 . S
N572 H578 0.985 . S
C573 C567 1.379 . S
C573 C570 1.363 . S
C573 N571 1.356 . S
C574 C568 1.363 1_655 S
C574 C569 1.379 . S
C574 N572 1.356 . S
N575 C567 1.356 . S
N575 H581 0.984 . S
N575 H582 0.984 . S
N576 C569 1.356 . S
N576 H579 0.984 . S
N576 H580 0.985 . S
H577 N572 0.984 . S
H578 N572 0.985 . S
H579 N576 0.984 . S
H580 N576 0.985 . S
H581 N575 0.984 . S
H582 N575 0.984 . S
H583 N571 0.984 . S
H584 N571 0.985 . S
C262 C20 1.266 . S
C264 C252 1.272 . S
C280 C41 1.373 . S
C282 C188 1.310 . S
C298 C64 1.403 . S
C300 C220 1.332 . S
C316 C19 1.344 . S
C318 C246 1.438 . S
C336 C182 1.375 . S
C334 C44 1.353 . S
C354 C214 1.350 . S
C352 C67 1.335 . S
C370 C43 1.286 . S
C372 C124 1.293 . S
C388 C66 1.266 . S
C390 C156 1.272 . S
C406 C21 1.350 . S
C408 C86 1.370 . S
C426 C118 1.397 . S
C424 C42 1.313 . S
C444 C150 1.438 . S
C442 C65 1.345 . S
C460 C18 1.378 . S
C462 C92 1.313 . S
C480 C162 1.451 1_554 S
C478 C17 1.476 . S
C496 C39 1.472 . S
C498 C98 1.442 . S
C514 C62 1.488 . S
C516 C130 1.464 . S
C534 C226 1.427 . S
C532 C40 1.459 . S
C552 C258 1.451 1_556 S
C550 C63 1.476 . S
C568 C16 1.471 . S
C570 C194 1.441 . S
