# Generated by pormake.
# Topology zzz, (3,6)-cn, num edge types: 1
# Building blocks:
#     Node 0, Type 0, BuildingBlock: PAMTOO_clean_linker_0, # of connection points: 3
#     Node 1, Type 0, BuildingBlock: PAMTOO_clean_linker_0, # of connection points: 3
#     Node 2, Type 0, BuildingBlock: PAMTOO_clean_linker_0, # of connection points: 3
#     Node 3, Type 0, BuildingBlock: PAMTOO_clean_linker_0, # of connection points: 3
#     Node 4, Type 0, BuildingBlock: PAMTOO_clean_linker_0, # of connection points: 3
#     Node 5, Type 0, BuildingBlock: PAMTOO_clean_linker_0, # of connection points: 3
#     Node 6, Type 0, BuildingBlock: PAMTOO_clean_linker_0, # of connection points: 3
#     Node 7, Type 0, BuildingBlock: PAMTOO_clean_linker_0, # of connection points: 3
#     Node 8, Type 1, BuildingBlock: FUNLAD_clean_sbu_0, # of connection points: 6
#     Node 9, Type 1, BuildingBlock: FUNLAD_clean_sbu_0, # of connection points: 6
#     Node 10, Type 1, BuildingBlock: FUNLAD_clean_sbu_0, # of connection points: 6
#     Node 11, Type 1, BuildingBlock: FUNLAD_clean_sbu_0, # of connection points: 6
#     Edge 12, Type (0, 1), BuildingBlock: TEMPAE_clean_linker_10, # of connection points: 2
#     Edge 13, Type (0, 1), BuildingBlock: TEMPAE_clean_linker_10, # of connection points: 2
#     Edge 14, Type (0, 1), BuildingBlock: TEMPAE_clean_linker_10, # of connection points: 2
#     Edge 15, Type (0, 1), BuildingBlock: TEMPAE_clean_linker_10, # of connection points: 2
#     Edge 16, Type (0, 1), BuildingBlock: TEMPAE_clean_linker_10, # of connection points: 2
#     Edge 17, Type (0, 1), BuildingBlock: TEMPAE_clean_linker_10, # of connection points: 2
#     Edge 18, Type (0, 1), BuildingBlock: TEMPAE_clean_linker_10, # of connection points: 2
#     Edge 19, Type (0, 1), BuildingBlock: TEMPAE_clean_linker_10, # of connection points: 2
#     Edge 20, Type (0, 1), BuildingBlock: TEMPAE_clean_linker_10, # of connection points: 2
#     Edge 21, Type (0, 1), BuildingBlock: TEMPAE_clean_linker_10, # of connection points: 2
#     Edge 22, Type (0, 1), BuildingBlock: TEMPAE_clean_linker_10, # of connection points: 2
#     Edge 23, Type (0, 1), BuildingBlock: TEMPAE_clean_linker_10, # of connection points: 2
#     Edge 24, Type (0, 1), BuildingBlock: TEMPAE_clean_linker_10, # of connection points: 2
#     Edge 25, Type (0, 1), BuildingBlock: TEMPAE_clean_linker_10, # of connection points: 2
#     Edge 26, Type (0, 1), BuildingBlock: TEMPAE_clean_linker_10, # of connection points: 2
#     Edge 27, Type (0, 1), BuildingBlock: TEMPAE_clean_linker_10, # of connection points: 2
#     Edge 28, Type (0, 1), BuildingBlock: TEMPAE_clean_linker_10, # of connection points: 2
#     Edge 29, Type (0, 1), BuildingBlock: TEMPAE_clean_linker_10, # of connection points: 2
#     Edge 30, Type (0, 1), BuildingBlock: TEMPAE_clean_linker_10, # of connection points: 2
#     Edge 31, Type (0, 1), BuildingBlock: TEMPAE_clean_linker_10, # of connection points: 2
#     Edge 32, Type (0, 1), BuildingBlock: TEMPAE_clean_linker_10, # of connection points: 2
#     Edge 33, Type (0, 1), BuildingBlock: TEMPAE_clean_linker_10, # of connection points: 2
#     Edge 34, Type (0, 1), BuildingBlock: TEMPAE_clean_linker_10, # of connection points: 2
#     Edge 35, Type (0, 1), BuildingBlock: TEMPAE_clean_linker_10, # of connection points: 2
# Relax obj value: 0.116
# Max RMSD: 0.175
# Mean RMSD: 0.089
data_MOF--net-zzz--node1-FUNLAD_clean_sbu_0--node2-PAMTOO_clean_linker_0--edge1-TEMPAE_clean_linker_10
_symmetry_space_group_name_H-M    P1
_symmetry_Int_Tables_number       1
_symmetry_cell_setting            triclinic
loop_
_symmetry_equiv_pos_as_xyz
'x, y, z'
_cell_length_a     51.830122
_cell_length_b     57.593153
_cell_length_c     17.493256
_cell_angle_alpha  85.32382
_cell_angle_beta   84.659889
_cell_angle_gamma 89.948713
loop_
_atom_site_label
_atom_site_type_symbol
_atom_site_fract_x
_atom_site_fract_y
_atom_site_fract_z
_atom_type_partial_charge
H0 H 0.86938 0.48974 0.24955 0.0
H1 H 0.79951 0.48672 0.13586 0.0
H2 H 0.80017 0.5225 0.3423 0.0
H3 H 0.74173 0.50326 0.31493 0.0
C4 C 0.75124 0.49654 0.26162 0.0
O5 O 0.7719 0.51087 0.23382 0.0
H6 H 0.75768 0.47845 0.2775 0.0
C7 C 0.84891 0.49345 0.24751 0.0
C8 C 0.8364 0.50687 0.30281 0.0
C9 C 0.83581 0.48582 0.18756 0.0
C10 C 0.80973 0.49183 0.18317 0.0
C11 C 0.7968 0.50468 0.2397 0.0
C12 C 0.81007 0.51208 0.29992 0.0
H13 H 0.97255 0.83965 0.14905 0.0
H14 H 0.99359 0.7796 0.0273 0.0
H15 H 0.96208 0.77107 0.26484 0.0
H16 H 1.00228 0.73147 0.21291 0.0
C17 C 1.00113 0.73671 0.15073 0.0
O18 O 0.97865 0.74924 0.14283 0.0
H19 H 0.01851 0.74752 0.12913 0.0
C20 C 0.97338 0.82084 0.14753 0.0
C21 C 0.96546 0.80659 0.21412 0.0
C22 C 0.98381 0.81138 0.08047 0.0
C23 C 0.98569 0.78716 0.07912 0.0
C24 C 0.97756 0.7726 0.14537 0.0
C25 C 0.96788 0.78232 0.21344 0.0
H26 H 0.68038 0.01038 0.17029 0.0
H27 H 0.74967 0.01353 0.01414 0.0
H28 H 0.75158 0.98309 0.24713 0.0
H29 H 0.80462 0.00567 0.18288 0.0
C30 C 0.79918 0.00868 0.12292 0.0
O31 O 0.77936 0.99342 0.11291 0.0
H32 H 0.79244 0.02704 0.11546 0.0
C33 C 0.70104 0.00748 0.1592 0.0
C34 C 0.71431 0.99619 0.21736 0.0
C35 C 0.71345 0.01392 0.08607 0.0
C36 C 0.73993 0.00914 0.071 0.0
C37 C 0.75391 0.99843 0.12927 0.0
C38 C 0.74104 0.99192 0.2028 0.0
H39 H 0.52398 0.63741 0.17726 0.0
H40 H 0.51402 0.70179 0.04092 0.0
H41 H 0.55202 0.70158 0.24981 0.0
H42 H 0.51886 0.74538 0.21797 0.0
C43 C 0.51786 0.74339 0.1556 0.0
O44 O 0.53658 0.72775 0.13186 0.0
H45 H 0.49821 0.73677 0.14734 0.0
C46 C 0.52636 0.65619 0.16835 0.0
C47 C 0.53935 0.66791 0.22057 0.0
C48 C 0.51687 0.66818 0.10406 0.0
C49 C 0.52076 0.69233 0.09131 0.0
C50 C 0.53307 0.70443 0.14447 0.0
C51 C 0.54224 0.69223 0.20945 0.0
H52 H 0.17658 0.52267 0.15985 0.0
H53 H 0.2453 0.52806 0.27826 0.0
H54 H 0.24862 0.49539 0.06501 0.0
H55 H 0.29293 0.47565 0.16413 0.0
C56 C 0.28307 0.48557 0.21017 0.0
O57 O 0.27516 0.50673 0.17747 0.0
H58 H 0.26614 0.47486 0.23677 0.0
C59 C 0.19728 0.52033 0.16224 0.0
C60 C 0.21123 0.50866 0.10489 0.0
C61 C 0.20929 0.5276 0.22489 0.0
C62 C 0.23578 0.52315 0.22934 0.0
C63 C 0.24996 0.51177 0.17128 0.0
C64 C 0.23774 0.50469 0.10865 0.0
H65 H 0.07221 0.16236 0.30027 0.0
H66 H 0.04989 0.22448 0.40894 0.0
H67 H 0.0873 0.22944 0.1775 0.0
H68 H 0.10291 0.27018 0.26305 0.0
C69 C 0.08907 0.26574 0.31462 0.0
O70 O 0.06866 0.25319 0.29272 0.0
H71 H 0.09969 0.25521 0.35774 0.0
C72 C 0.07186 0.18125 0.2989 0.0
C73 C 0.0816 0.19453 0.23196 0.0
C74 C 0.06025 0.19178 0.36247 0.0
C75 C 0.05877 0.21612 0.35989 0.0
C76 C 0.06912 0.22971 0.2938 0.0
C77 C 0.08001 0.21891 0.22912 0.0
H78 H 0.36222 0.99089 0.26873 0.0
H79 H 0.2919 0.98279 0.41954 0.0
H80 H 0.28996 0.01367 0.18693 0.0
H81 H 0.25135 0.03496 0.30387 0.0
C82 C 0.25077 0.02041 0.3499 0.0
O83 O 0.26167 1.00094 0.31848 0.0
H84 H 0.26227 0.02581 0.39623 0.0
C85 C 0.34134 0.99268 0.27847 0.0
C86 C 0.32783 0.00314 0.21944 0.0
C87 C 0.32873 0.98515 0.35036 0.0
C88 C 0.30185 0.9882 0.3637 0.0
C89 C 0.28772 0.99835 0.30481 0.0
C90 C 0.30075 0.0057 0.23218 0.0
H91 H 0.5215 0.3612 0.25355 0.0
H92 H 0.53283 0.29671 0.38799 0.0
H93 H 0.49241 0.29713 0.18354 0.0
H94 H 0.47056 0.26197 0.30688 0.0
C95 C 0.48711 0.26142 0.34316 0.0
O96 O 0.50876 0.27091 0.29982 0.0
H97 H 0.48165 0.27179 0.39319 0.0
C98 C 0.51924 0.34241 0.26247 0.0
C99 C 0.5057 0.33072 0.21141 0.0
C100 C 0.52935 0.33039 0.32573 0.0
C101 C 0.52562 0.3062 0.33838 0.0
C102 C 0.5124 0.2942 0.28693 0.0
C103 C 0.50271 0.30642 0.22285 0.0
C104 C 0.03339 0.95935 0.78974 0.0
N105 N 0.99943 0.97542 0.58748 0.0
C106 C 0.01625 0.95996 0.55546 0.0
C107 C 0.00741 0.9426 0.51336 0.0
C108 C 0.98089 0.94063 0.50556 0.0
C109 C 0.96391 0.95715 0.53664 0.0
C110 C 0.97371 0.97471 0.57697 0.0
Zn111 Zn 0.01324 0.99462 0.66936 0.0
C112 C 0.97252 0.9996 0.8025 0.0
N113 N 0.04361 0.02805 0.85104 0.0
C114 C 0.06911 0.0276 0.86431 0.0
C115 C 0.02727 0.04412 0.88156 0.0
C116 C 0.03646 0.06096 0.92509 0.0
C117 C 0.06285 0.06168 0.9362 0.0
C118 C 0.07926 0.04454 0.90643 0.0
Zn119 Zn 0.0297 0.00915 0.76896 0.0
O120 O 0.02308 0.96278 0.72679 0.0
C121 C 0.07052 0.00438 0.63649 0.0
O122 O 0.03918 0.97673 0.82551 0.0
H123 H 0.00731 0.04486 0.86851 0.0
H124 H 0.03639 0.95997 0.56655 0.0
H125 H 0.08188 0.01485 0.83914 0.0
O126 O 0.05107 0.99681 0.60653 0.0
O127 O 0.06719 0.01088 0.70445 0.0
H128 H 0.96053 0.98694 0.60327 0.0
O129 O 0.01972 0.04107 0.7115 0.0
O130 O 1.00379 0.02697 0.61262 0.0
O131 O 0.99217 0.00703 0.83178 0.0
O132 O 0.97555 0.99303 0.73451 0.0
C133 C 0.00942 0.04438 0.64845 0.0
H134 H 0.02101 0.92994 0.4911 0.0
H135 H 0.94329 0.9561 0.53149 0.0
H136 H 0.02329 0.07411 0.9462 0.0
H137 H 0.09976 0.04458 0.91416 0.0
C138 C 0.4839 0.98578 0.62934 0.0
N139 N 0.51667 0.0517 0.64347 0.0
C140 C 0.51734 0.05554 0.5655 0.0
C141 C 0.51525 0.07815 0.53099 0.0
C142 C 0.51234 0.09703 0.57708 0.0
C143 C 0.51176 0.09252 0.65742 0.0
C144 C 0.514 0.06966 0.6895 0.0
Zn145 Zn 0.5196 0.01828 0.6925 0.0
C146 C 0.48031 0.00812 0.82861 0.0
N147 N 0.52529 0.9484 0.79491 0.0
C148 C 0.52521 0.92991 0.75115 0.0
C149 C 0.5266 0.94521 0.87242 0.0
C150 C 0.52785 0.92278 0.90883 0.0
C151 C 0.52747 0.90337 0.86532 0.0
C152 C 0.52615 0.90714 0.78541 0.0
Zn153 Zn 0.52253 0.98178 0.74497 0.0
O154 O 0.49186 0.00678 0.62301 0.0
C155 C 0.56182 0.99187 0.60888 0.0
O156 O 0.49398 0.97092 0.67533 0.0
H157 H 0.5264 0.9601 0.90635 0.0
H158 H 0.51938 0.04103 0.52992 0.0
H159 H 0.52424 0.93281 0.68963 0.0
O160 O 0.55042 0.01146 0.60813 0.0
O161 O 0.55371 0.97556 0.65895 0.0
H162 H 0.51361 0.06624 0.75132 0.0
O163 O 0.55045 0.99334 0.81379 0.0
O164 O 0.54794 0.02927 0.76253 0.0
O165 O 0.49189 0.98862 0.82981 0.0
O166 O 0.48827 0.02434 0.77811 0.0
C167 C 0.55818 0.01439 0.80804 0.0
H168 H 0.51548 0.08076 0.46891 0.0
H169 H 0.50985 0.10656 0.69511 0.0
H170 H 0.52852 0.92064 0.9707 0.0
H171 H 0.526 0.89264 0.74973 0.0
C172 C 0.54026 0.46486 0.62476 0.0
N173 N 0.46887 0.49875 0.64213 0.0
C174 C 0.47172 0.49789 0.56429 0.0
C175 C 0.45013 0.49679 0.52301 0.0
C176 C 0.42522 0.49676 0.56186 0.0
C177 C 0.42267 0.49819 0.64201 0.0
C178 C 0.44494 0.49904 0.6814 0.0
Zn179 Zn 0.50219 0.49908 0.69621 0.0
C180 C 0.50399 0.464 0.82512 0.0
N181 N 0.57486 0.49919 0.792 0.0
C182 C 0.59916 0.49888 0.75511 0.0
C183 C 0.57111 0.49876 0.87015 0.0
C184 C 0.59205 0.4976 0.91445 0.0
C185 C 0.61733 0.49682 0.8785 0.0
C186 C 0.62086 0.49778 0.79759 0.0
Zn187 Zn 0.54176 0.49922 0.73637 0.0
O188 O 0.51745 0.47302 0.62719 0.0
C189 C 0.53991 0.5343 0.60737 0.0
O190 O 0.55654 0.47303 0.66574 0.0
H191 H 0.55171 0.49908 0.89867 0.0
H192 H 0.49087 0.49791 0.53391 0.0
H193 H 0.60171 0.4992 0.69295 0.0
O194 O 0.51722 0.52558 0.6133 0.0
O195 O 0.55617 0.52628 0.65287 0.0
H196 H 0.44313 0.49974 0.74327 0.0
O197 O 0.52645 0.52508 0.80594 0.0
O198 O 0.48753 0.52548 0.76616 0.0
O199 O 0.52676 0.47251 0.81837 0.0
O200 O 0.48765 0.47222 0.78036 0.0
C201 C 0.50374 0.53344 0.80779 0.0
H202 H 0.4529 0.49608 0.46109 0.0
H203 H 0.40373 0.49815 0.67393 0.0
H204 H 0.58845 0.49737 0.97651 0.0
H205 H 0.64008 0.49719 0.76772 0.0
C206 C 0.05862 0.52138 0.60076 0.0
N207 N 0.02962 0.45327 0.64404 0.0
C208 C 0.02906 0.4528 0.56655 0.0
C209 C 0.03322 0.43199 0.53161 0.0
C210 C 0.03816 0.41145 0.57671 0.0
C211 C 0.03837 0.41239 0.65667 0.0
C212 C 0.03397 0.43357 0.68931 0.0
Zn213 Zn 0.02486 0.48449 0.69187 0.0
C214 C 0.0627 0.4921 0.80346 0.0
N215 N 0.01585 0.55092 0.78424 0.0
C216 C 0.01547 0.5715 0.74019 0.0
C217 C 0.01369 0.5503 0.86255 0.0
C218 C 0.01083 0.57083 0.89952 0.0
C219 C 0.01055 0.5923 0.85566 0.0
C220 C 0.01301 0.59255 0.77494 0.0
Zn221 Zn 0.02036 0.51983 0.73511 0.0
O222 O 0.05167 0.50012 0.60521 0.0
C223 C 0.98244 0.51237 0.62368 0.0
O224 O 0.04834 0.53476 0.64914 0.0
H225 H 0.01439 0.53383 0.89668 0.0
H226 H 0.02572 0.46867 0.53149 0.0
H227 H 0.0172 0.57162 0.67807 0.0
O228 O 0.99404 0.49291 0.62424 0.0
O229 O 0.98984 0.52798 0.66442 0.0
H230 H 0.03427 0.43432 0.7508 0.0
O231 O 0.99292 0.50424 0.81973 0.0
O232 O 0.99751 0.46925 0.77925 0.0
O233 O 0.05045 0.51119 0.80493 0.0
O234 O 0.05607 0.4768 0.76048 0.0
C235 C 0.9866 0.48283 0.82586 0.0
H236 H 0.03322 0.43212 0.46966 0.0
H237 H 0.04184 0.39691 0.69363 0.0
H238 H 0.00934 0.56994 0.96187 0.0
H239 H 0.01277 0.6088 0.73921 0.0
C240 C 0.21685 0.99593 0.43518 0.0
C241 C 0.22312 0.0158 0.38501 0.0
C242 C 0.19189 0.99286 0.47449 0.0
C243 C 0.17282 0.01027 0.4646 0.0
C244 C 0.17906 0.03028 0.41355 0.0
C245 C 0.20407 0.03281 0.37473 0.0
C246 C 0.18613 0.97123 0.52802 0.0
C247 C 0.15952 0.04938 0.40149 0.0
C248 C 0.10098 0.99653 0.52055 0.0
C249 C 0.09676 0.00555 0.5929 0.0
C250 C 0.12563 0.99761 0.4788 0.0
C251 C 0.14669 0.00808 0.50963 0.0
C252 C 0.14257 0.01712 0.58278 0.0
C253 C 0.11777 0.01569 0.62347 0.0
C254 C 0.1291 0.98764 0.40135 0.0
C255 C 0.16434 0.02856 0.61783 0.0
H256 H 0.23164 0.98297 0.44472 0.0
H257 H 0.20893 0.04844 0.33735 0.0
H258 H 0.18211 0.97608 0.58804 0.0
H259 H 0.16853 0.96237 0.51283 0.0
H260 H 0.20246 0.95871 0.52604 0.0
H261 H 0.16704 0.06342 0.35779 0.0
H262 H 0.14155 0.04209 0.38277 0.0
H263 H 0.15414 0.05718 0.45666 0.0
H264 H 0.08498 0.98856 0.49635 0.0
H265 H 0.11482 0.02272 0.67922 0.0
H266 H 0.14468 0.97441 0.40102 0.0
H267 H 0.13519 0.00163 0.35586 0.0
H268 H 0.11106 0.97943 0.38636 0.0
H269 H 0.18067 0.01626 0.62318 0.0
H270 H 0.15813 0.03439 0.67567 0.0
H271 H 0.17177 0.04389 0.57962 0.0
C272 C 0.47902 0.21798 0.34977 0.0
C273 C 0.49251 0.2368 0.37346 0.0
C274 C 0.48291 0.19513 0.38104 0.0
C275 C 0.50078 0.19103 0.43712 0.0
C276 C 0.51487 0.20996 0.45994 0.0
C277 C 0.51053 0.23264 0.42786 0.0
C278 C 0.4675 0.17545 0.35518 0.0
C279 C 0.53417 0.20631 0.51924 0.0
C280 C 0.49136 0.13636 0.57445 0.0
C281 C 0.50967 0.12122 0.54166 0.0
C282 C 0.48837 0.15912 0.54122 0.0
C283 C 0.50412 0.16702 0.47358 0.0
C284 C 0.52275 0.15189 0.44043 0.0
C285 C 0.52527 0.12917 0.47476 0.0
C286 C 0.46817 0.17466 0.57813 0.0
C287 C 0.54001 0.1597 0.36862 0.0
H288 H 0.46512 0.22119 0.30758 0.0
H289 H 0.52094 0.24725 0.44601 0.0
H290 H 0.48077 0.1619 0.33303 0.0
H291 H 0.45509 0.16709 0.40493 0.0
H292 H 0.45495 0.18146 0.30944 0.0
H293 H 0.54432 0.22271 0.52833 0.0
H294 H 0.52412 0.19926 0.57506 0.0
H295 H 0.54884 0.19332 0.50119 0.0
H296 H 0.479 0.13026 0.62552 0.0
H297 H 0.53969 0.11769 0.44963 0.0
H298 H 0.45384 0.1799 0.53676 0.0
H299 H 0.47741 0.19083 0.59323 0.0
H300 H 0.4577 0.16599 0.63111 0.0
H301 H 0.52802 0.16469 0.32065 0.0
H302 H 0.55372 0.14591 0.35047 0.0
H303 H 0.55131 0.17534 0.37857 0.0
C304 C 0.32353 0.50371 0.2492 0.0
C305 C 0.30179 0.48928 0.269 0.0
C306 C 0.34225 0.50597 0.30116 0.0
C307 C 0.33934 0.49318 0.37415 0.0
C308 C 0.31716 0.47891 0.39496 0.0
C309 C 0.29864 0.47712 0.34203 0.0
C310 C 0.36557 0.52146 0.27697 0.0
C311 C 0.31348 0.46486 0.47195 0.0
C312 C 0.40172 0.47839 0.46392 0.0
C313 C 0.40224 0.49499 0.51809 0.0
C314 C 0.38107 0.47732 0.41802 0.0
C315 C 0.36048 0.49336 0.42607 0.0
C316 C 0.36059 0.50986 0.48184 0.0
C317 C 0.38146 0.5104 0.5276 0.0
C318 C 0.38153 0.45926 0.35992 0.0
C319 C 0.33906 0.52733 0.49164 0.0
H320 H 0.32607 0.5129 0.19239 0.0
H321 H 0.28194 0.46579 0.35715 0.0
H322 H 0.36814 0.53376 0.32133 0.0
H323 H 0.3833 0.51067 0.27177 0.0
H324 H 0.3639 0.53163 0.22092 0.0
H325 H 0.29434 0.45591 0.48142 0.0
H326 H 0.32889 0.45152 0.47545 0.0
H327 H 0.31528 0.47626 0.51933 0.0
H328 H 0.41762 0.46625 0.45723 0.0
H329 H 0.38193 0.52335 0.5691 0.0
H330 H 0.38222 0.468 0.30085 0.0
H331 H 0.36355 0.44857 0.36942 0.0
H332 H 0.39846 0.44749 0.36306 0.0
H333 H 0.33849 0.53879 0.43768 0.0
H334 H 0.34149 0.53838 0.53968 0.0
H335 H 0.32006 0.51823 0.50275 0.0
C336 C 0.08918 0.30932 0.3223 0.0
C337 C 0.07923 0.28735 0.35054 0.0
C338 C 0.08148 0.32939 0.35862 0.0
C339 C 0.06342 0.32741 0.4248 0.0
C340 C 0.05302 0.30527 0.45284 0.0
C341 C 0.06118 0.28547 0.41556 0.0
C342 C 0.0931 0.35266 0.32715 0.0
C343 C 0.03366 0.30245 0.52302 0.0
C344 C 0.06439 0.37524 0.5619 0.0
C345 C 0.04383 0.38938 0.54007 0.0
C346 C 0.07074 0.35488 0.52552 0.0
C347 C 0.05612 0.34842 0.46604 0.0
C348 C 0.03506 0.36238 0.44464 0.0
C349 C 0.02921 0.38273 0.48176 0.0
C350 C 0.09345 0.34053 0.54968 0.0
C351 C 0.01888 0.35597 0.38197 0.0
H352 H 0.10332 0.31076 0.2724 0.0
H353 H 0.05371 0.26843 0.43775 0.0
H354 H 0.07752 0.36517 0.31403 0.0
H355 H 0.10411 0.36001 0.37112 0.0
H356 H 0.10635 0.35132 0.274 0.0
H357 H 0.02652 0.28422 0.53527 0.0
H358 H 0.04268 0.30771 0.57409 0.0
H359 H 0.01683 0.31402 0.51498 0.0
H360 H 0.07596 0.38043 0.60622 0.0
H361 H 0.0131 0.39344 0.46528 0.0
H362 H 0.10845 0.34001 0.50027 0.0
H363 H 0.08716 0.32232 0.56717 0.0
H364 H 0.10241 0.3476 0.59829 0.0
H365 H 0.0312 0.35587 0.32663 0.0
H366 H 1.00263 0.36825 0.3739 0.0
H367 H 0.01079 0.33813 0.39587 0.0
C368 C 0.83132 0.02277 0.01028 0.0
C369 C 0.82288 0.00513 0.06722 0.0
C370 C 0.85483 0.02086 0.96393 0.0
C371 C 0.87035 1.00076 0.97425 0.0
C372 C 0.86137 0.98247 0.02958 0.0
C373 C 0.8378 0.9849 0.07544 0.0
C374 C 0.86354 0.0408 0.90587 0.0
C375 C 0.87709 0.96066 0.04223 0.0
C376 C 0.92458 0.99032 0.81666 0.0
C377 C 0.94642 0.99914 0.84688 0.0
C378 C 0.89981 0.9904 0.85771 0.0
C379 C 0.89666 0.99961 0.93074 0.0
C380 C 0.91867 0.00835 0.96172 0.0
C381 C 0.94317 0.00797 0.91969 0.0
C382 C 0.87696 0.9808 0.82259 0.0
C383 C 0.91632 0.01841 0.0391 0.0
H384 H 0.81987 0.03843 0.0035 0.0
H385 H 0.83134 0.97125 0.11936 0.0
H386 H 0.88147 0.04874 0.92259 0.0
H387 H 0.86823 0.03436 0.84818 0.0
H388 H 0.84859 0.05456 0.90141 0.0
H389 H 0.86652 0.9473 0.08274 0.0
H390 H 0.88232 0.95305 0.98666 0.0
H391 H 0.89544 0.96504 0.0659 0.0
H392 H 0.92679 0.98342 0.76062 0.0
H393 H 0.95981 0.01486 0.94379 0.0
H394 H 0.86255 0.99476 0.81335 0.0
H395 H 0.86721 0.96689 0.86258 0.0
H396 H 0.8827 0.97356 0.76659 0.0
H397 H 0.90308 0.03356 0.03782 0.0
H398 H 0.93531 0.02417 0.0558 0.0
H399 H 0.90777 0.00527 0.08425 0.0
C400 C 0.53725 0.77016 0.04087 0.0
C401 C 0.5215 0.76697 0.1108 0.0
C402 C 0.53945 0.79208 0.99895 0.0
C403 C 0.52511 0.81113 0.02659 0.0
C404 C 0.50896 0.80791 0.09654 0.0
C405 C 0.50739 0.7859 0.1377 0.0
C406 C 0.557 0.79485 0.92487 0.0
C407 C 0.49308 0.82766 0.12753 0.0
C408 C 0.5451 0.87357 0.95923 0.0
C409 C 0.5278 0.87937 0.90368 0.0
C410 C 0.54487 0.85125 0.99828 0.0
C411 C 0.5267 0.83439 0.98212 0.0
C412 C 0.50941 0.84006 0.92538 0.0
C413 C 0.51027 0.86243 0.88655 0.0
C414 C 0.56387 0.8458 0.05755 0.0
C415 C 0.48954 0.82269 0.90706 0.0
H416 H 0.54786 0.75557 0.01859 0.0
H417 H 0.49487 0.78337 0.19096 0.0
H418 H 0.5455 0.80012 0.87602 0.0
H419 H 0.57146 0.80886 0.9279 0.0
H420 H 0.56746 0.77853 0.91244 0.0
H421 H 0.48143 0.82227 0.18266 0.0
H422 H 0.50599 0.8423 0.13705 0.0
H423 H 0.47977 0.83434 0.08482 0.0
H424 H 0.55889 0.88652 0.97203 0.0
H425 H 0.49668 0.8669 0.84425 0.0
H426 H 0.57518 0.83007 0.04376 0.0
H427 H 0.55323 0.8419 0.11518 0.0
H428 H 0.57757 0.86044 0.06077 0.0
H429 H 0.4992 0.80644 0.89016 0.0
H430 H 0.47801 0.82957 0.85985 0.0
H431 H 0.47609 0.81797 0.95913 0.0
C432 C 0.71161 0.51143 0.20074 0.0
C433 C 0.73257 0.49609 0.20087 0.0
C434 C 0.69426 0.51141 0.14376 0.0
C435 C 0.69824 0.49587 0.08503 0.0
C436 C 0.71987 0.48082 0.08371 0.0
C437 C 0.73683 0.48115 0.14172 0.0
C438 C 0.67143 0.52772 0.14716 0.0
C439 C 0.72486 0.46416 0.02178 0.0
C440 C 0.63796 0.47976 0.99362 0.0
C441 C 0.63954 0.49497 0.92646 0.0
C442 C 0.65732 0.47942 0.04448 0.0
C443 C 0.67892 0.49459 0.02767 0.0
C444 C 0.68124 0.50928 0.9583 0.0
C445 C 0.66148 0.50929 0.90838 0.0
C446 C 0.65419 0.46339 0.11756 0.0
C447 C 0.70408 0.52559 0.93826 0.0
H448 H 0.70867 0.52329 0.24575 0.0
H449 H 0.75335 0.4696 0.14128 0.0
H450 H 0.67137 0.53871 0.09207 0.0
H451 H 0.65311 0.51749 0.15514 0.0
H452 H 0.67164 0.53928 0.19494 0.0
H453 H 0.74331 0.45454 0.02656 0.0
H454 H 0.70874 0.45133 0.02567 0.0
H455 H 0.72555 0.47375 0.96398 0.0
H456 H 0.62126 0.46833 0.00712 0.0
H457 H 0.66273 0.52114 0.85674 0.0
H458 H 0.65232 0.47386 0.16829 0.0
H459 H 0.6716 0.45233 0.12223 0.0
H460 H 0.63688 0.45189 0.12025 0.0
H461 H 0.70368 0.53903 0.98031 0.0
H462 H 0.70405 0.53448 0.87947 0.0
H463 H 0.7225 0.51592 0.94207 0.0
C464 C 0.01624 0.69612 0.12787 0.0
C465 C 1.00144 0.71543 0.10548 0.0
C466 C 0.0178 0.6764 0.08547 0.0
C467 C 1.00418 0.67599 0.01903 0.0
C468 C 0.9895 0.69559 0.99544 0.0
C469 C 0.98864 0.71522 0.03823 0.0
C470 C 0.03406 0.65602 0.11168 0.0
C471 C 0.97458 0.69576 0.92525 0.0
C472 C 0.02546 0.63277 0.87262 0.0
C473 C 0.0081 0.61425 0.89457 0.0
C474 C 0.02435 0.65304 0.91235 0.0
C475 C 1.00515 0.65495 0.97468 0.0
C476 C 0.98718 0.63651 0.99575 0.0
C477 C 0.989 0.61632 0.95581 0.0
C478 C 0.04408 0.67217 0.88884 0.0
C479 C 0.96617 0.63803 0.06099 0.0
H480 H 0.02669 0.6965 0.17863 0.0
H481 H 0.97779 0.73036 0.01916 0.0
H482 H 0.0217 0.64024 0.12528 0.0
H483 H 0.04894 0.65216 0.06468 0.0
H484 H 0.04396 0.65933 0.16344 0.0
H485 H 0.96381 0.71225 0.9152 0.0
H486 H 0.98802 0.69335 0.87339 0.0
H487 H 0.96056 0.68102 0.93196 0.0
H488 H 0.0404 0.6311 0.82578 0.0
H489 H 0.9754 0.6021 0.97237 0.0
H490 H 0.05571 0.67485 0.93758 0.0
H491 H 0.03418 0.68883 0.8746 0.0
H492 H 0.05745 0.66817 0.83828 0.0
H493 H 0.97501 0.63954 0.11576 0.0
H494 H 0.95309 0.62258 0.06814 0.0
H495 H 0.9544 0.65388 0.05062 0.0
C496 C 0.06457 0.15972 0.46309 0.0
C497 C 0.0488 0.17642 0.42839 0.0
C498 C 0.05374 0.14021 0.50737 0.0
C499 C 0.02645 0.13745 0.51732 0.0
C500 C 0.01041 0.15539 0.4884 0.0
C501 C 0.02184 0.17475 0.44375 0.0
C502 C 0.07161 0.12161 0.53776 0.0
C503 C 0.98127 0.15331 0.49925 0.0
C504 C 0.00876 0.07347 0.53474 0.0
C505 C 0.0071 0.06855 0.61472 0.0
C506 C 0.01304 0.09638 0.50195 0.0
C507 C 0.01531 0.11467 0.55058 0.0
C508 C 0.01101 0.11005 0.63135 0.0
C509 C 0.00714 0.08699 0.66251 0.0
C510 C 0.01748 0.10063 0.41538 0.0
C511 C 0.01268 0.12909 0.6851 0.0
H512 H 0.08543 0.16108 0.4506 0.0
H513 H 0.0097 0.18759 0.41602 0.0
H514 H 0.06616 0.11679 0.59982 0.0
H515 H 0.06977 0.10571 0.50681 0.0
H516 H 0.09223 0.1273 0.53026 0.0
H517 H 0.9718 0.17038 0.48739 0.0
H518 H 0.97472 0.14107 0.45909 0.0
H519 H 0.97463 0.1462 0.55868 0.0
H520 H 0.00872 0.05928 0.49768 0.0
H521 H 1.00549 0.08326 0.72456 0.0
H522 H 0.03828 0.10469 0.39861 0.0
H523 H 1.00615 0.11582 0.39466 0.0
H524 H 0.0121 0.08525 0.3857 0.0
H525 H 1.00294 0.14512 0.66321 0.0
H526 H 0.03333 0.13355 0.68875 0.0
H527 H 1.00384 0.12363 0.74413 0.0
C528 C 0.36388 0.9594 0.39426 0.0
C529 C 0.34497 0.97612 0.41133 0.0
C530 C 0.38533 0.95645 0.43721 0.0
C531 C 0.38767 0.97038 0.49917 0.0
C532 C 0.36699 0.98514 0.52247 0.0
C533 C 0.34582 0.98792 0.4779 0.0
C534 C 0.40678 0.94042 0.41053 0.0
C535 C 0.36846 0.99987 0.58946 0.0
C536 C 0.44414 0.96169 0.62295 0.0
C537 C 0.46099 0.97967 0.5906 0.0
C538 C 0.42023 0.95817 0.59355 0.0
C539 C 0.4133 0.97276 0.52972 0.0
C540 C 0.43082 0.99025 0.49482 0.0
C541 C 0.45432 0.99361 0.52612 0.0
C542 C 0.40196 0.93956 0.63281 0.0
C543 C 0.42446 0.00587 0.42551 0.0
H544 H 0.36307 0.95013 0.34297 0.0
H545 H 0.33124 1.00088 0.49109 0.0
H546 H 0.42289 0.95097 0.37893 0.0
H547 H 0.41463 0.93053 0.4602 0.0
H548 H 0.40011 0.92788 0.37142 0.0
H549 H 0.34925 0.00702 0.60868 0.0
H550 H 0.37605 0.98959 0.63885 0.0
H551 H 0.38201 0.01467 0.572 0.0
H552 H 0.44907 0.95106 0.6735 0.0
H553 H 0.46732 0.0075 0.50092 0.0
H554 H 0.39462 0.92867 0.58995 0.0
H555 H 0.38494 0.9479 0.66235 0.0
H556 H 0.41133 0.92807 0.67614 0.0
H557 H 0.41966 0.99521 0.37863 0.0
H558 H 0.44073 0.01782 0.40303 0.0
H559 H 0.4072 0.01651 0.44107 0.0
C560 C 0.53092 0.34392 0.45689 0.0
C561 C 0.5417 0.34409 0.38047 0.0
C562 C 0.53657 0.36191 0.50243 0.0
C563 C 0.55338 0.38031 0.4704 0.0
C564 C 0.56675 0.37889 0.39667 0.0
C565 C 0.56066 0.36079 0.35237 0.0
C566 C 0.5222 0.3626 0.58128 0.0
C567 C 0.58518 0.39786 0.36086 0.0
C568 C 0.53032 0.4398 0.5223 0.0
C569 C 0.54642 0.44475 0.57904 0.0
C570 C 0.533 0.41919 0.48534 0.0
C571 C 0.55229 0.40299 0.50559 0.0
C572 C 0.56943 0.40831 0.56033 0.0
C573 C 0.56631 0.42922 0.59653 0.0
C574 C 0.51449 0.41443 0.42643 0.0
C575 C 0.59029 0.39153 0.58306 0.0
H576 H 0.51626 0.33101 0.47861 0.0
H577 H 0.56921 0.36073 0.29339 0.0
H578 H 0.53521 0.36833 0.62309 0.0
H579 H 0.5062 0.37537 0.5782 0.0
H580 H 0.51374 0.34534 0.6032 0.0
H581 H 0.59788 0.3919 0.31164 0.0
H582 H 0.57387 0.41299 0.33927 0.0
H583 H 0.59749 0.40394 0.40393 0.0
H584 H 0.51506 0.45184 0.50804 0.0
H585 H 0.5787 0.43291 0.64071 0.0
H586 H 0.50272 0.39865 0.44654 0.0
H587 H 0.52546 0.41102 0.37099 0.0
H588 H 0.50112 0.42918 0.41569 0.0
H589 H 0.58127 0.37644 0.61927 0.0
H590 H 0.60453 0.39977 0.61633 0.0
H591 H 0.60075 0.38468 0.53146 0.0
C592 C 0.17343 0.55305 0.27324 0.0
C593 C 0.19283 0.53684 0.28915 0.0
C594 C 0.15254 0.55639 0.32802 0.0
C595 C 0.15119 0.5432 0.40011 0.0
C596 C 0.17242 0.52914 0.4198 0.0
C597 C 0.19306 0.52609 0.36382 0.0
C598 C 0.13058 0.5719 0.30527 0.0
C599 C 0.17194 0.51514 0.49672 0.0
C600 C 0.09572 0.54851 0.55605 0.0
C601 C 0.08016 0.52949 0.54377 0.0
C602 C 0.11861 0.55387 0.50819 0.0
C603 C 0.12584 0.53992 0.44683 0.0
C604 C 0.10937 0.52154 0.43183 0.0
C605 C 0.08681 0.51652 0.48063 0.0
C606 C 0.13562 0.57363 0.52583 0.0
C607 C 0.1161 0.50645 0.3661 0.0
H608 H 0.17351 0.56171 0.21579 0.0
H609 H 0.20806 0.51359 0.37642 0.0
H610 H 0.1147 0.56099 0.28874 0.0
H611 H 0.12263 0.58169 0.35412 0.0
H612 H 0.13683 0.5845 0.25548 0.0
H613 H 0.19147 0.50855 0.50827 0.0
H614 H 0.16451 0.52574 0.54407 0.0
H615 H 0.15871 0.49997 0.49726 0.0
H616 H 0.09069 0.55852 0.60511 0.0
H617 H 0.07469 0.50195 0.47054 0.0
H618 H 0.14312 0.58404 0.47224 0.0
H619 H 0.15258 0.56639 0.55373 0.0
H620 H 0.12512 0.58535 0.5653 0.0
H621 H 0.11964 0.51743 0.31101 0.0
H622 H 0.10053 0.49365 0.36009 0.0
H623 H 0.13418 0.49674 0.3756 0.0
C624 C 0.978 0.84511 0.98681 0.0
C625 C 0.99413 0.82762 0.01533 0.0
C626 C 0.98839 0.8647 0.94198 0.0
C627 C 0.01561 0.86679 0.92546 0.0
C628 C 0.03183 0.84825 0.94886 0.0
C629 C 0.02084 0.82878 0.99386 0.0
C630 C 0.97034 0.88393 0.91733 0.0
C631 C 0.06086 0.84972 0.93141 0.0
C632 C 0.03337 0.91668 0.77661 0.0
C633 C 0.03541 0.93514 0.82349 0.0
C634 C 0.02913 0.89378 0.80878 0.0
C635 C 0.02674 0.88929 0.88975 0.0
C636 C 0.03112 0.90751 0.93702 0.0
C637 C 0.03552 0.93029 0.90318 0.0
C638 C 0.02497 0.87482 0.75634 0.0
C639 C 0.02889 0.90335 0.02373 0.0
H640 H 0.95734 0.84414 0.00393 0.0
H641 H 0.03329 0.81533 0.0169 0.0
H642 H 0.97378 0.89959 0.94813 0.0
H643 H 0.97417 0.88895 0.85473 0.0
H644 H 0.94962 0.87879 0.92976 0.0
H645 H 0.07016 0.83248 0.94136 0.0
H646 H 0.06614 0.85663 0.87091 0.0
H647 H 0.0689 0.8619 0.96921 0.0
H648 H 0.03366 0.9203 0.7147 0.0
H649 H 0.03716 0.94447 0.93958 0.0
H650 H 1.00395 0.87086 0.75859 0.0
H651 H 0.03484 0.85856 0.77538 0.0
H652 H 0.03214 0.8801 0.69556 0.0
H653 H 0.00829 0.90008 0.04537 0.0
H654 H 0.03599 0.91848 0.05152 0.0
H655 H 0.04002 0.8877 0.04174 0.0
C656 C 0.67872 0.04025 0.04194 0.0
C657 C 0.69718 0.0231 0.02528 0.0
C658 C 0.65724 0.04348 0.99924 0.0
C659 C 0.65445 0.02943 0.93785 0.0
C660 C 0.67474 0.01425 0.91473 0.0
C661 C 0.69592 0.01118 0.95908 0.0
C662 C 0.63621 0.05996 0.02563 0.0
C663 C 0.67279 0.99941 0.84825 0.0
C664 C 0.58747 0.0068 0.91201 0.0
C665 C 0.58101 0.02056 0.84694 0.0
C666 C 0.61096 0.01012 0.94339 0.0
C667 C 0.62869 0.02735 0.90786 0.0
C668 C 0.62194 0.04181 0.84352 0.0
C669 C 0.59802 0.03836 0.81411 0.0
C670 C 0.61713 0.99466 0.01328 0.0
C671 C 0.64043 0.06014 0.80357 0.0
H672 H 0.67989 0.04967 0.09273 0.0
H673 H 0.71014 0.99792 0.94604 0.0
H674 H 0.62841 0.06981 0.97581 0.0
H675 H 0.61997 0.04977 0.05801 0.0
H676 H 0.64329 0.07253 0.06398 0.0
H677 H 0.69182 0.99189 0.82901 0.0
H678 H 0.65895 0.98487 0.8663 0.0
H679 H 0.66534 0.00972 0.79872 0.0
H680 H 0.57433 0.99306 0.93756 0.0
H681 H 0.59323 0.04884 0.76309 0.0
H682 H 0.62224 0.00543 0.05952 0.0
H683 H 0.63414 0.98368 0.99804 0.0
H684 H 0.60065 0.98303 0.03646 0.0
H685 H 0.64822 0.07091 0.84599 0.0
H686 H 0.63109 0.07176 0.76055 0.0
H687 H 0.65714 0.05151 0.77348 0.0
C688 C 0.48493 0.63848 0.07659 0.0
C689 C 0.50462 0.65453 0.04906 0.0
C690 C 0.47847 0.62045 0.03253 0.0
C691 C 0.49225 0.6184 0.95974 0.0
C692 C 0.50996 0.63618 0.92815 0.0
C693 C 0.51594 0.65414 0.97339 0.0
C694 C 0.45909 0.60217 0.06775 0.0
C695 C 0.52482 0.6348 0.8503 0.0
C696 C 0.51342 0.5581 0.9114 0.0
C697 C 0.49771 0.55359 0.85329 0.0
C698 C 0.51117 0.57883 0.94778 0.0
C699 C 0.49271 0.59559 0.9255 0.0
C700 C 0.47585 0.5907 0.8695 0.0
C701 C 0.47854 0.56966 0.83392 0.0
C702 C 0.52932 0.58313 0.0081 0.0
C703 C 0.45585 0.60808 0.84463 0.0
H704 H 0.476 0.63898 0.13501 0.0
H705 H 0.53116 0.66657 0.95217 0.0
H706 H 0.44688 0.59639 0.02396 0.0
H707 H 0.4696 0.58672 0.09072 0.0
H708 H 0.44633 0.60867 0.11588 0.0
H709 H 0.53416 0.6517 0.82839 0.0
H710 H 0.54019 0.62145 0.85499 0.0
H711 H 0.5119 0.62944 0.8077 0.0
H712 H 0.52812 0.54564 0.92708 0.0
H713 H 0.46645 0.56629 0.78864 0.0
H714 H 0.51809 0.58704 0.06261 0.0
H715 H 0.54184 0.59848 0.98836 0.0
H716 H 0.54198 0.56796 0.02044 0.0
H717 H 0.44542 0.6155 0.89523 0.0
H718 H 0.4415 0.60014 0.811 0.0
H719 H 0.46566 0.62271 0.80805 0.0
C720 C 0.85187 0.48416 0.04967 0.0
C721 C 0.85092 0.47427 0.12567 0.0
C722 C 0.87237 0.47906 0.99565 0.0
C723 C 0.8922 0.46381 0.01882 0.0
C724 C 0.88917 0.45126 0.09201 0.0
C725 C 0.8685 0.45669 0.14487 0.0
C726 C 0.87456 0.49234 0.9173 0.0
C727 C 0.90943 0.43435 0.11812 0.0
C728 C 0.94891 0.45624 0.86885 0.0
C729 C 0.96492 0.47482 0.88231 0.0
C730 C 0.92551 0.45154 0.91498 0.0
C731 C 0.91824 0.46575 0.97564 0.0
C732 C 0.93529 0.48348 0.99242 0.0
C733 C 0.95835 0.48781 0.9454 0.0
C734 C 0.90801 0.43238 0.89567 0.0
C735 C 0.92858 0.4988 0.05758 0.0
H736 H 0.8382 0.49765 0.03455 0.0
H737 H 0.86741 0.4487 0.20341 0.0
H738 H 0.88884 0.50675 0.91642 0.0
H739 H 0.88157 0.48088 0.8719 0.0
H740 H 0.85572 0.49997 0.90313 0.0
H741 H 0.90155 0.42228 0.16757 0.0
H742 H 0.91719 0.42398 0.07049 0.0
H743 H 0.92584 0.44421 0.13663 0.0
H744 H 0.95391 0.44622 0.81981 0.0
H745 H 0.97086 0.50202 0.95641 0.0
H746 H 0.89278 0.44008 0.86107 0.0
H747 H 0.89818 0.42312 0.94851 0.0
H748 H 0.91889 0.41952 0.86138 0.0
H749 H 0.91119 0.50929 0.04597 0.0
H750 H 0.94463 0.51091 0.06533 0.0
H751 H 0.92389 0.48795 0.11247 0.0
C752 C 0.10887 0.16403 0.17351 0.0
C753 C 0.09067 0.18184 0.16456 0.0
C754 C 0.11015 0.14556 0.1259 0.0
C755 C 0.09283 0.14505 0.06815 0.0
C756 C 0.07699 0.16462 0.05231 0.0
C757 C 0.07607 0.18287 0.10103 0.0
C758 C 0.12762 0.12527 0.14411 0.0
C759 C 0.05864 0.16498 0.99015 0.0
C760 C 0.09322 0.09542 0.9369 0.0
C761 C 0.07303 0.08133 0.97421 0.0
C762 C 0.10044 0.11606 0.96733 0.0
C763 C 0.0872 0.12255 0.03676 0.0
C764 C 0.06758 0.10777 0.07626 0.0
C765 C 0.06066 0.08742 0.04423 0.0
C766 C 0.12136 0.13136 0.92353 0.0
C767 C 0.05328 0.11378 0.15133 0.0
H768 H 0.12021 0.16333 0.22273 0.0
H769 H 0.06192 0.1966 0.09432 0.0
H770 H 0.11603 0.11115 0.17814 0.0
H771 H 0.13631 0.11814 0.09066 0.0
H772 H 0.14343 0.13031 0.17837 0.0
H773 H 0.05146 0.18283 0.97553 0.0
H774 H 0.06816 0.15815 0.9372 0.0
H775 H 0.0417 0.15358 0.01044 0.0
H776 H 0.10257 0.09083 0.88218 0.0
H777 H 0.04514 0.07644 0.07316 0.0
H778 H 0.13519 0.13718 0.96288 0.0
H779 H 0.11244 0.1472 0.89701 0.0
H780 H 0.13226 0.12231 0.87709 0.0
H781 H 0.06723 0.1166 0.19414 0.0
H782 H 0.03934 0.09992 0.17622 0.0
H783 H 0.04244 0.13023 0.14196 0.0
C784 C 0.34289 0.99898 0.08102 0.0
C785 C 0.34344 0.0113 0.14665 0.0
C786 C 0.36337 1.0011 0.02177 0.0
C787 C 0.38498 0.01564 0.02909 0.0
C788 C 0.38444 0.02955 0.09233 0.0
C789 C 0.36365 0.02728 0.14999 0.0
C790 C 0.36286 0.98632 0.95461 0.0
C791 C 0.40697 0.04517 0.10318 0.0
C792 C 0.45134 0.99564 0.94767 0.0
C793 C 0.45657 0.01104 0.88167 0.0
C794 C 0.42821 0.99706 0.99585 0.0
C795 C 0.40946 0.01401 0.97707 0.0
C796 C 0.41458 0.02961 0.91043 0.0
C797 C 0.43816 0.02808 0.86395 0.0
C798 C 0.42386 0.98034 0.06706 0.0
C799 C 0.395 0.04767 0.88767 0.0
H800 H 0.32753 0.98636 0.07882 0.0
H801 H 0.36425 0.03662 0.20123 0.0
H802 H 0.36935 0.99657 0.89974 0.0
H803 H 0.37645 0.97156 0.96167 0.0
H804 H 0.34322 0.97911 0.95038 0.0
H805 H 0.40217 0.057 0.14945 0.0
H806 H 0.42367 0.03428 0.11877 0.0
H807 H 0.41322 0.05582 0.04896 0.0
H808 H 0.46541 0.98241 0.96181 0.0
H809 H 0.44186 0.03986 0.81251 0.0
H810 H 0.4062 0.9697 0.06416 0.0
H811 H 0.42066 0.99019 0.11903 0.0
H812 H 0.44048 0.96841 0.07417 0.0
H813 H 0.37649 0.039 0.87916 0.0
H814 H 0.40177 0.05838 0.83386 0.0
H815 H 0.39082 0.0594 0.93447 0.0
C816 C 0.50588 0.34294 0.0713 0.0
C817 C 0.49516 0.34472 0.14697 0.0
C818 C 0.5022 0.36074 0.01343 0.0
C819 C 0.48751 0.38062 0.03227 0.0
C820 C 0.47436 0.38113 0.10673 0.0
C821 C 0.47844 0.36318 0.16333 0.0
C822 C 0.51633 0.3594 0.93454 0.0
C823 C 0.45832 0.4018 0.12929 0.0
C824 C 0.51452 0.43825 0.93893 0.0
C825 C 0.49781 0.44373 0.88159 0.0
C826 C 0.51107 0.41793 0.98846 0.0
C827 C 0.49037 0.40253 0.98064 0.0
C828 C 0.47294 0.4082 0.92426 0.0
C829 C 0.47684 0.42882 0.87534 0.0
C830 C 0.52997 0.41278 0.04842 0.0
C831 C 0.45066 0.39222 0.91435 0.0
H832 H 0.51891 0.32871 0.05889 0.0
H833 H 0.47014 0.36447 0.22207 0.0
H834 H 0.50387 0.36556 0.8889 0.0
H835 H 0.53369 0.37091 0.92874 0.0
H836 H 0.52279 0.34139 0.92481 0.0
H837 H 0.44554 0.39762 0.18323 0.0
H838 H 0.47142 0.41633 0.13871 0.0
H839 H 0.4462 0.40802 0.08285 0.0
H840 H 0.53069 0.44973 0.94452 0.0
H841 H 0.46396 0.43289 0.83077 0.0
H842 H 0.54005 0.39613 0.03853 0.0
H843 H 0.51944 0.41075 0.10678 0.0
H844 H 0.54481 0.42673 0.0475 0.0
H845 H 0.45829 0.3756 0.89387 0.0
H846 H 0.43764 0.40001 0.87236 0.0
H847 H 0.43913 0.38794 0.97038 0.0
C848 C 0.19444 0.51252 0.97621 0.0
C849 C 0.19677 0.49927 0.04572 0.0
C850 C 0.17477 0.50759 0.9298 0.0
C851 C 0.15703 0.48915 0.95449 0.0
C852 C 0.1609 0.47448 0.02131 0.0
C853 C 0.18073 0.47979 0.0664 0.0
C854 C 0.17145 0.5235 0.85853 0.0
C855 C 0.14252 0.45465 0.04959 0.0
C856 C 0.08816 0.50201 0.90994 0.0
C857 C 0.08569 0.48891 0.84696 0.0
C858 C 0.11104 0.50159 0.94668 0.0
C859 C 0.13215 0.48799 0.91901 0.0
C860 C 0.12953 0.47415 0.85688 0.0
C861 C 0.10618 0.47464 0.82179 0.0
C862 C 0.11283 0.51628 0.01381 0.0
C863 C 0.15169 0.4596 0.82557 0.0
H864 H 0.20671 0.52776 0.96114 0.0
H865 H 0.18249 0.46978 0.12091 0.0
H866 H 0.16713 0.51329 0.81009 0.0
H867 H 0.15482 0.53525 0.87027 0.0
H868 H 0.18898 0.53439 0.84047 0.0
H869 H 0.15074 0.44254 0.09364 0.0
H870 H 0.12419 0.46179 0.07582 0.0
H871 H 0.13767 0.44466 0.00121 0.0
H872 H 0.07229 0.51295 0.92979 0.0
H873 H 0.10439 0.46466 0.7726 0.0
H874 H 0.128 0.52989 0.99875 0.0
H875 H 0.11852 0.50533 0.0646 0.0
H876 H 0.09423 0.52496 0.03043 0.0
H877 H 0.16756 0.47122 0.79807 0.0
H878 H 0.14574 0.44811 0.7822 0.0
H879 H 0.15966 0.44867 0.87291 0.0
C880 C 0.93703 0.83453 0.2813 0.0
C881 C 0.95713 0.81828 0.2842 0.0
C882 C 0.93555 0.85292 0.3293 0.0
C883 C 0.95465 0.85494 0.38116 0.0
C884 C 0.97279 0.83677 0.39142 0.0
C885 C 0.97385 0.81857 0.34244 0.0
C886 C 0.91565 0.87168 0.31716 0.0
C887 C 0.99314 0.83801 0.44727 0.0
C888 C 0.98228 0.91501 0.39746 0.0
C889 C 0.97131 0.92027 0.47006 0.0
C890 C 0.97629 0.89411 0.36718 0.0
C891 C 0.95918 0.87787 0.41128 0.0
C892 C 0.94738 0.88342 0.48374 0.0
C893 C 0.95352 0.90468 0.51221 0.0
C894 C 0.98894 0.88911 0.28888 0.0
C895 C 0.92926 0.86653 0.53262 0.0
H896 H 0.92414 0.83427 0.23593 0.0
H897 H 0.9895 0.80608 0.34426 0.0
H898 H 0.90791 0.87813 0.37272 0.0
H899 H 0.92494 0.88664 0.28086 0.0
H900 H 0.89926 0.86535 0.28763 0.0
H901 H 1.00238 0.82084 0.45905 0.0
H902 H 0.00844 0.85066 0.42256 0.0
H903 H 0.98467 0.84418 0.50253 0.0
H904 H 0.99603 0.92712 0.36506 0.0
H905 H 0.94535 0.90864 0.56897 0.0
H906 H 0.97398 0.88497 0.25055 0.0
H907 H 1.00167 0.87369 0.29467 0.0
H908 H 1.00079 0.90403 0.26066 0.0
H909 H 0.91473 0.8595 0.4977 0.0
H910 H 0.91895 0.87472 0.582 0.0
H911 H 0.94051 0.85156 0.55556 0.0
C912 C 0.67828 0.97242 0.28692 0.0
C913 C 0.69861 0.98827 0.2902 0.0
C914 C 0.65747 0.97031 0.34455 0.0
C915 C 0.65702 0.98426 0.40767 0.0
C916 C 0.67869 0.99875 0.41477 0.0
C917 C 0.69918 1.00072 0.35553 0.0
C918 C 0.63485 0.95477 0.33384 0.0
C919 C 0.67928 0.01359 0.48176 0.0
C920 C 0.59075 0.00434 0.48971 0.0
C921 C 0.58554 0.98893 0.55568 0.0
C922 C 0.61384 0.00291 0.44134 0.0
C923 C 0.63258 0.98593 0.45992 0.0
C924 C 0.62749 0.97033 0.52657 0.0
C925 C 0.60394 0.97187 0.57322 0.0
C926 C 0.61815 0.01964 0.37014 0.0
C927 C 0.64707 0.95225 0.54917 0.0
H928 H 0.67764 0.96304 0.23579 0.0
H929 H 0.71461 0.01329 0.35756 0.0
H930 H 0.62863 0.94411 0.38806 0.0
H931 H 0.61817 0.96572 0.3185 0.0
H932 H 0.63954 0.94295 0.28747 0.0
H933 H 0.69894 0.02079 0.48575 0.0
H934 H 0.66569 0.02834 0.47474 0.0
H935 H 0.67285 0.00336 0.53674 0.0
H936 H 0.57669 0.0176 0.4757 0.0
H937 H 0.60027 0.96009 0.62466 0.0
H938 H 0.6213 0.0098 0.31814 0.0
H939 H 0.63582 0.03027 0.37294 0.0
H940 H 0.60153 0.03157 0.36315 0.0
H941 H 0.65118 0.94051 0.50236 0.0
H942 H 0.64034 0.94155 0.60304 0.0
H943 H 0.66561 0.9609 0.55749 0.0
C944 C 0.56634 0.6355 0.2704 0.0
C945 C 0.5494 0.65388 0.28583 0.0
C946 C 0.57008 0.61751 0.32717 0.0
C947 C 0.55637 0.61788 0.40092 0.0
C948 C 0.54138 0.63767 0.41896 0.0
C949 C 0.53804 0.65551 0.36091 0.0
C950 C 0.58642 0.59693 0.30542 0.0
C951 C 0.52666 0.63887 0.49708 0.0
C952 C 0.52965 0.55997 0.49295 0.0
C953 C 0.5461 0.55463 0.55112 0.0
C954 C 0.53308 0.58033 0.44361 0.0
C955 C 0.55347 0.59595 0.45251 0.0
C956 C 0.57062 0.59046 0.50981 0.0
C957 C 0.56677 0.56978 0.55847 0.0
C958 C 0.51451 0.58529 0.38264 0.0
C959 C 0.59256 0.60667 0.52092 0.0
H960 H 0.57512 0.63431 0.21211 0.0
H961 H 0.52482 0.66966 0.3726 0.0
H962 H 0.59829 0.5908 0.35257 0.0
H963 H 0.57354 0.58231 0.29533 0.0
H964 H 0.59948 0.60118 0.25207 0.0
H965 H 0.51992 0.65682 0.5065 0.0
H966 H 0.50944 0.62722 0.50175 0.0
H967 H 0.53883 0.63281 0.54358 0.0
H968 H 0.51371 0.54831 0.48655 0.0
H969 H 0.57943 0.56585 0.60368 0.0
H970 H 0.52535 0.58745 0.32473 0.0
H971 H 0.50415 0.60183 0.3921 0.0
H972 H 0.4999 0.57118 0.38273 0.0
H973 H 0.60446 0.61094 0.46551 0.0
H974 H 0.6053 0.5991 0.56404 0.0
H975 H 0.58457 0.62329 0.54051 0.0
C976 C 0.84881 0.50686 0.43706 0.0
C977 C 0.85202 0.51596 0.36018 0.0
C978 C 0.86813 0.51011 0.48658 0.0
C979 C 0.891 0.52267 0.45788 0.0
C980 C 0.89299 0.53378 0.38235 0.0
C981 C 0.87347 0.53021 0.33429 0.0
C982 C 0.86518 0.49818 0.56698 0.0
C983 C 0.91693 0.54739 0.34944 0.0
C984 C 0.94285 0.53481 0.5904 0.0
C985 C 0.95965 0.51601 0.57912 0.0
C986 C 0.92025 0.53726 0.55183 0.0
C987 C 0.91449 0.52058 0.50064 0.0
C988 C 0.93159 0.50178 0.48831 0.0
C989 C 0.95388 0.49971 0.52775 0.0
C990 C 0.90243 0.55748 0.56632 0.0
C991 C 0.92634 0.48372 0.43353 0.0
H992 H 0.83226 0.49571 0.45664 0.0
H993 H 0.87584 0.53719 0.27454 0.0
H994 H 0.87746 0.48238 0.56895 0.0
H995 H 0.87177 0.50975 0.60908 0.0
H996 H 0.84479 0.4928 0.58502 0.0
H997 H 0.9136 0.55813 0.29559 0.0
H998 H 0.9234 0.55896 0.39169 0.0
H999 H 0.93291 0.5351 0.33613 0.0
H1000 H 0.94711 0.54739 0.63042 0.0
H1001 H 0.96677 0.48516 0.51851 0.0
H1002 H 0.88298 0.5509 0.59027 0.0
H1003 H 0.89989 0.56787 0.51132 0.0
H1004 H 0.90985 0.56913 0.60704 0.0
H1005 H 0.90742 0.47503 0.45186 0.0
H1006 H 0.94159 0.47017 0.43059 0.0
H1007 H 0.92515 0.49223 0.37474 0.0
loop_
_geom_bond_atom_site_label_1
_geom_bond_atom_site_label_2
_geom_bond_distance
_geom_bond_site_symmetry_2
_ccdc_geom_bond_type
H0 C7 0.929 . S
H1 C10 0.930 . S
H2 C12 0.929 . S
H3 C4 0.969 . S
C4 H3 0.969 . S
C4 O5 1.550 . S
C4 H6 0.973 . S
O5 C4 1.550 . S
O5 C11 1.412 . S
H6 C4 0.973 . S
C7 H0 0.929 . S
C7 C8 1.400 . S
C7 C9 1.364 . S
C8 C7 1.400 . S
C8 C12 1.377 . S
C9 C7 1.364 . S
C9 C10 1.374 . S
C10 H1 0.930 . S
C10 C9 1.374 . S
C10 C11 1.383 . S
C11 O5 1.412 . S
C11 C10 1.383 . S
C11 C12 1.394 . S
C12 H2 0.929 . S
C12 C8 1.377 . S
C12 C11 1.394 . S
H13 C20 0.929 . S
H14 C23 0.930 . S
H15 C25 0.929 . S
H16 C17 0.969 . S
C17 H16 0.969 . S
C17 O18 1.550 1_556 S
C17 H19 0.973 . S
O18 C17 1.550 1_554 S
O18 C24 1.412 . S
H19 C17 0.973 . S
C20 H13 0.929 . S
C20 C21 1.400 . S
C20 C22 1.364 1_554 S
C21 C20 1.400 . S
C21 C25 1.377 . S
C22 C20 1.364 1_556 S
C22 C23 1.374 . S
C23 H14 0.930 . S
C23 C22 1.374 . S
C23 C24 1.383 1_556 S
C24 O18 1.412 . S
C24 C23 1.383 1_554 S
C24 C25 1.394 . S
C25 H15 0.929 . S
C25 C21 1.377 . S
C25 C24 1.394 . S
H26 C33 0.929 1_565 S
H27 C36 0.927 1_556 S
H28 C38 0.930 1_565 S
H29 C30 0.969 . S
C30 H29 0.969 . S
C30 O31 1.550 1_545 S
C30 H32 0.973 1_544 S
O31 C30 1.550 1_565 S
O31 C37 1.405 1_565 S
H32 C30 0.973 1_566 S
C33 H26 0.929 1_545 S
C33 C34 1.398 . S
C33 C35 1.364 . S
C34 C33 1.398 . S
C34 C38 1.377 . S
C35 C33 1.364 . S
C35 C36 1.374 1_545 S
C36 H27 0.927 1_554 S
C36 C35 1.374 1_565 S
C36 C37 1.380 1_565 S
C37 O31 1.405 1_545 S
C37 C36 1.380 1_545 S
C37 C38 1.396 . S
C38 H28 0.930 1_545 S
C38 C34 1.377 . S
C38 C37 1.396 . S
H39 C46 0.929 . S
H40 C49 0.930 1_556 S
H41 C51 0.929 . S
H42 C43 0.969 . S
C43 H42 0.969 . S
C43 O44 1.550 . S
C43 H45 0.973 1_554 S
O44 C43 1.550 . S
O44 C50 1.412 . S
H45 C43 0.973 1_556 S
C46 H39 0.929 . S
C46 C47 1.400 . S
C46 C48 1.364 . S
C47 C46 1.400 . S
C47 C51 1.377 . S
C48 C46 1.364 . S
C48 C49 1.374 . S
C49 H40 0.930 1_554 S
C49 C48 1.374 . S
C49 C50 1.383 . S
C50 O44 1.412 . S
C50 C49 1.383 . S
C50 C51 1.394 . S
C51 H41 0.929 . S
C51 C47 1.377 . S
C51 C50 1.394 . S
H52 C59 0.929 . S
H53 C62 0.930 . S
H54 C64 0.929 . S
H55 C56 0.969 . S
C56 H55 0.969 . S
C56 O57 1.550 . S
C56 H58 0.973 . S
O57 C56 1.550 . S
O57 C63 1.412 . S
H58 C56 0.973 . S
C59 H52 0.929 . S
C59 C60 1.400 . S
C59 C61 1.364 . S
C60 C59 1.400 . S
C60 C64 1.377 . S
C61 C59 1.364 . S
C61 C62 1.374 . S
C62 H53 0.930 . S
C62 C61 1.374 . S
C62 C63 1.383 . S
C63 O57 1.412 . S
C63 C62 1.383 . S
C63 C64 1.394 . S
C64 H54 0.929 . S
C64 C60 1.377 . S
C64 C63 1.394 . S
H65 C72 0.929 . S
H66 C75 0.930 . S
H67 C77 0.929 . S
H68 C69 0.969 . S
C69 H68 0.969 . S
C69 O70 1.550 . S
C69 H71 0.973 . S
O70 C69 1.550 . S
O70 C76 1.412 . S
H71 C69 0.973 . S
C72 H65 0.929 . S
C72 C73 1.400 . S
C72 C74 1.364 . S
C73 C72 1.400 . S
C73 C77 1.377 . S
C74 C72 1.364 . S
C74 C75 1.374 . S
C75 H66 0.930 . S
C75 C74 1.374 . S
C75 C76 1.383 . S
C76 O70 1.412 . S
C76 C75 1.383 . S
C76 C77 1.394 . S
C77 H67 0.929 . S
C77 C73 1.377 . S
C77 C76 1.394 . S
H78 C85 0.928 1_565 S
H79 C88 0.933 . S
H80 C90 0.927 1_565 S
H81 C82 0.969 . S
C82 H81 0.969 . S
C82 O83 1.550 1_545 S
C82 H84 0.973 1_545 S
O83 C82 1.550 1_565 S
O83 C89 1.402 1_565 S
H84 C82 0.973 1_565 S
C85 H78 0.928 1_545 S
C85 C86 1.401 . S
C85 C87 1.364 . S
C86 C85 1.401 . S
C86 C90 1.377 . S
C87 C85 1.364 . S
C87 C88 1.374 1_545 S
C88 H79 0.933 . S
C88 C87 1.374 1_565 S
C88 C89 1.384 1_565 S
C89 O83 1.402 1_545 S
C89 C88 1.384 1_545 S
C89 C90 1.392 . S
C90 H80 0.927 1_545 S
C90 C86 1.377 . S
C90 C89 1.392 . S
H91 C98 0.929 . S
H92 C101 0.930 . S
H93 C103 0.929 . S
H94 C95 0.969 . S
C95 H94 0.969 . S
C95 O96 1.550 . S
C95 H97 0.973 . S
O96 C95 1.550 . S
O96 C102 1.412 . S
H97 C95 0.973 . S
C98 H91 0.929 . S
C98 C99 1.400 . S
C98 C100 1.364 . S
C99 C98 1.400 . S
C99 C103 1.377 . S
C100 C98 1.364 . S
C100 C101 1.374 . S
C101 H92 0.930 . S
C101 C100 1.374 . S
C101 C102 1.383 . S
C102 O96 1.412 . S
C102 C101 1.383 . S
C102 C103 1.394 . S
C103 H93 0.929 . S
C103 C99 1.377 . S
C103 C102 1.394 . S
C104 O120 1.251 . S
C104 O122 1.254 . S
N105 C106 1.333 . S
N105 C110 1.307 1_455 S
N105 Zn111 2.020 . S
C106 N105 1.333 . S
C106 C107 1.379 . S
C106 H124 0.952 . S
C107 C106 1.379 . S
C107 C108 1.390 1_455 S
C107 H134 0.949 . S
C108 C107 1.390 1_655 S
C108 C109 1.357 . S
C109 C108 1.357 . S
C109 C110 1.370 . S
C109 H135 0.950 . S
C110 N105 1.307 1_655 S
C110 C109 1.370 . S
C110 H128 0.948 . S
Zn111 N105 2.020 . S
Zn111 O120 2.039 . S
Zn111 O126 2.034 . S
Zn111 O130 2.025 1_565 S
Zn111 O132 2.024 1_455 S
C112 O131 1.246 . S
C112 O132 1.249 1_545 S
N113 C114 1.307 . S
N113 C115 1.333 . S
N113 Zn119 2.020 . S
C114 N113 1.307 . S
C114 C118 1.370 1_556 S
C114 H125 0.948 . S
C115 N113 1.333 . S
C115 C116 1.379 . S
C115 H123 0.952 . S
C116 C115 1.379 . S
C116 C117 1.390 1_556 S
C116 H136 0.949 . S
C117 C116 1.390 1_554 S
C117 C118 1.357 . S
C118 C114 1.370 1_554 S
C118 C117 1.357 . S
C118 H137 0.950 . S
Zn119 N113 2.020 . S
Zn119 O122 2.025 1_545 S
Zn119 O127 2.024 . S
Zn119 O129 2.039 . S
Zn119 O131 2.034 1_455 S
O120 C104 1.251 . S
O120 Zn111 2.039 . S
C121 O126 1.246 . S
C121 O127 1.249 1_565 S
O122 C104 1.254 . S
O122 Zn119 2.025 1_565 S
H123 C115 0.952 . S
H124 C106 0.952 . S
H125 C114 0.948 . S
O126 Zn111 2.034 . S
O126 C121 1.246 . S
O127 Zn119 2.024 . S
O127 C121 1.249 1_545 S
H128 C110 0.948 . S
O129 Zn119 2.039 . S
O129 C133 1.251 . S
O130 Zn111 2.025 1_545 S
O130 C133 1.254 . S
O131 C112 1.246 . S
O131 Zn119 2.034 1_655 S
O132 Zn111 2.024 1_655 S
O132 C112 1.249 1_565 S
C133 O129 1.251 . S
C133 O130 1.254 . S
H134 C107 0.949 . S
H135 C109 0.950 . S
H136 C116 0.949 . S
H137 C118 0.950 . S
C138 O154 1.251 1_565 S
C138 O156 1.254 . S
N139 C140 1.333 . S
N139 C144 1.307 . S
N139 Zn145 2.020 . S
C140 N139 1.333 . S
C140 C141 1.379 . S
C140 H158 0.952 . S
C141 C140 1.379 . S
C141 C142 1.390 . S
C141 H168 0.949 . S
C142 C141 1.390 . S
C142 C143 1.357 . S
C143 C142 1.357 . S
C143 C144 1.370 . S
C143 H169 0.950 . S
C144 N139 1.307 . S
C144 C143 1.370 . S
C144 H162 0.948 . S
Zn145 N139 2.020 . S
Zn145 O154 2.039 . S
Zn145 O160 2.034 . S
Zn145 O164 2.025 . S
Zn145 O166 2.024 . S
C146 O165 1.246 1_545 S
C146 O166 1.249 . S
N147 C148 1.307 . S
N147 C149 1.333 . S
N147 Zn153 2.020 . S
C148 N147 1.307 . S
C148 C152 1.370 . S
C148 H159 0.948 . S
C149 N147 1.333 . S
C149 C150 1.379 . S
C149 H157 0.952 . S
C150 C149 1.379 . S
C150 C151 1.390 . S
C150 H170 0.949 . S
C151 C150 1.390 . S
C151 C152 1.357 . S
C152 C148 1.370 . S
C152 C151 1.357 . S
C152 H171 0.950 . S
Zn153 N147 2.020 . S
Zn153 O156 2.025 . S
Zn153 O161 2.024 . S
Zn153 O163 2.039 . S
Zn153 O165 2.034 . S
O154 C138 1.251 1_545 S
O154 Zn145 2.039 . S
C155 O160 1.246 1_565 S
C155 O161 1.249 . S
O156 C138 1.254 . S
O156 Zn153 2.025 . S
H157 C149 0.952 . S
H158 C140 0.952 . S
H159 C148 0.948 . S
O160 Zn145 2.034 . S
O160 C155 1.246 1_545 S
O161 Zn153 2.024 . S
O161 C155 1.249 . S
H162 C144 0.948 . S
O163 Zn153 2.039 . S
O163 C167 1.251 1_565 S
O164 Zn145 2.025 . S
O164 C167 1.254 . S
O165 C146 1.246 1_565 S
O165 Zn153 2.034 . S
O166 Zn145 2.024 . S
O166 C146 1.249 . S
C167 O163 1.251 1_545 S
C167 O164 1.254 . S
H168 C141 0.949 . S
H169 C143 0.950 . S
H170 C150 0.949 . S
H171 C152 0.950 . S
C172 O188 1.251 . S
C172 O190 1.254 . S
N173 C174 1.333 . S
N173 C178 1.307 . S
N173 Zn179 2.020 . S
C174 N173 1.333 . S
C174 C175 1.379 . S
C174 H192 0.952 . S
C175 C174 1.379 . S
C175 C176 1.390 . S
C175 H202 0.949 . S
C176 C175 1.390 . S
C176 C177 1.357 . S
C177 C176 1.357 . S
C177 C178 1.370 . S
C177 H203 0.950 . S
C178 N173 1.307 . S
C178 C177 1.370 . S
C178 H196 0.948 . S
Zn179 N173 2.020 . S
Zn179 O188 2.039 . S
Zn179 O194 2.034 . S
Zn179 O198 2.025 . S
Zn179 O200 2.024 . S
C180 O199 1.246 . S
C180 O200 1.249 . S
N181 C182 1.307 . S
N181 C183 1.333 . S
N181 Zn187 2.020 . S
C182 N181 1.307 . S
C182 C186 1.370 . S
C182 H193 0.948 . S
C183 N181 1.333 . S
C183 C184 1.379 . S
C183 H191 0.952 . S
C184 C183 1.379 . S
C184 C185 1.390 . S
C184 H204 0.949 . S
C185 C184 1.390 . S
C185 C186 1.357 . S
C186 C182 1.370 . S
C186 C185 1.357 . S
C186 H205 0.950 . S
Zn187 N181 2.020 . S
Zn187 O190 2.025 . S
Zn187 O195 2.024 . S
Zn187 O197 2.039 . S
Zn187 O199 2.034 . S
O188 C172 1.251 . S
O188 Zn179 2.039 . S
C189 O194 1.246 . S
C189 O195 1.249 . S
O190 C172 1.254 . S
O190 Zn187 2.025 . S
H191 C183 0.952 . S
H192 C174 0.952 . S
H193 C182 0.948 . S
O194 Zn179 2.034 . S
O194 C189 1.246 . S
O195 Zn187 2.024 . S
O195 C189 1.249 . S
H196 C178 0.948 . S
O197 Zn187 2.039 . S
O197 C201 1.251 . S
O198 Zn179 2.025 . S
O198 C201 1.254 . S
O199 C180 1.246 . S
O199 Zn187 2.034 . S
O200 Zn179 2.024 . S
O200 C180 1.249 . S
C201 O197 1.251 . S
C201 O198 1.254 . S
H202 C175 0.949 . S
H203 C177 0.950 . S
H204 C184 0.949 . S
H205 C186 0.950 . S
C206 O222 1.251 . S
C206 O224 1.254 . S
N207 C208 1.333 . S
N207 C212 1.307 . S
N207 Zn213 2.020 . S
C208 N207 1.333 . S
C208 C209 1.379 . S
C208 H226 0.952 . S
C209 C208 1.379 . S
C209 C210 1.390 . S
C209 H236 0.949 . S
C210 C209 1.390 . S
C210 C211 1.357 . S
C211 C210 1.357 . S
C211 C212 1.370 . S
C211 H237 0.950 . S
C212 N207 1.307 . S
C212 C211 1.370 . S
C212 H230 0.948 . S
Zn213 N207 2.020 . S
Zn213 O222 2.039 . S
Zn213 O228 2.034 1_455 S
Zn213 O232 2.025 1_455 S
Zn213 O234 2.024 . S
C214 O233 1.246 . S
C214 O234 1.249 . S
N215 C216 1.307 . S
N215 C217 1.319 1_455 S
N215 Zn221 2.020 . S
C216 N215 1.307 . S
C216 C220 1.370 . S
C216 H227 0.948 . S
C217 N215 1.319 1_655 S
C217 C218 1.384 . S
C217 H225 0.963 . S
C218 C217 1.384 . S
C218 C219 1.390 1_655 S
C218 H238 0.949 . S
C219 C218 1.390 1_455 S
C219 C220 1.357 . S
C220 C216 1.370 . S
C220 C219 1.357 . S
C220 H239 0.950 . S
Zn221 N215 2.020 . S
Zn221 O224 2.025 . S
Zn221 O229 2.024 1_455 S
Zn221 O231 2.039 1_455 S
Zn221 O233 2.034 . S
O222 C206 1.251 . S
O222 Zn213 2.039 . S
C223 O228 1.246 . S
C223 O229 1.249 . S
O224 C206 1.254 . S
O224 Zn221 2.025 . S
H225 C217 0.963 . S
H226 C208 0.952 . S
H227 C216 0.948 . S
O228 Zn213 2.034 1_655 S
O228 C223 1.246 . S
O229 Zn221 2.024 1_655 S
O229 C223 1.249 . S
H230 C212 0.948 . S
O231 Zn221 2.039 1_655 S
O231 C235 1.251 . S
O232 Zn213 2.025 1_655 S
O232 C235 1.254 . S
O233 C214 1.246 . S
O233 Zn221 2.034 . S
O234 Zn213 2.024 . S
O234 C214 1.249 . S
C235 O231 1.251 . S
C235 O232 1.254 . S
H236 C209 0.949 . S
H237 C211 0.950 . S
H238 C218 0.949 . S
H239 C220 0.950 . S
C240 C241 1.391 . S
C240 C242 1.394 . S
C240 H256 0.931 . S
C241 C240 1.391 . S
C241 C245 1.376 1_565 S
C242 C240 1.394 . S
C242 C243 1.369 . S
C242 C246 1.531 . S
C243 C242 1.369 . S
C243 C244 1.410 1_565 S
C243 C251 1.503 . S
C244 C243 1.410 1_545 S
C244 C245 1.392 . S
C244 C247 1.511 . S
C245 C241 1.376 1_545 S
C245 C244 1.392 . S
C245 H257 0.929 . S
C246 C242 1.531 . S
C246 H258 0.960 . S
C246 H259 0.962 . S
C246 H260 0.960 . S
C247 C244 1.511 . S
C247 H261 0.961 . S
C247 H262 0.961 . S
C247 H263 0.961 . S
C248 C249 1.370 1_545 S
C248 C250 1.363 . S
C248 H264 0.931 . S
C249 C248 1.370 1_565 S
C249 C253 1.408 . S
C250 C248 1.363 . S
C250 C251 1.370 1_545 S
C250 C254 1.524 . S
C251 C243 1.503 . S
C251 C250 1.370 1_565 S
C251 C252 1.403 . S
C252 C251 1.403 . S
C252 C253 1.404 . S
C252 C255 1.539 . S
C253 C249 1.408 . S
C253 C252 1.404 . S
C253 H265 0.930 . S
C254 C250 1.524 . S
C254 H266 0.956 . S
C254 H267 0.961 . S
C254 H268 0.961 . S
C255 C252 1.539 . S
C255 H269 0.958 . S
C255 H270 0.961 . S
C255 H271 0.960 . S
H256 C240 0.931 . S
H257 C245 0.929 . S
H258 C246 0.960 . S
H259 C246 0.962 . S
H260 C246 0.960 . S
H261 C247 0.961 . S
H262 C247 0.961 . S
H263 C247 0.961 . S
H264 C248 0.931 . S
H265 C253 0.930 . S
H266 C254 0.956 . S
H267 C254 0.961 . S
H268 C254 0.961 . S
H269 C255 0.958 . S
H270 C255 0.961 . S
H271 C255 0.960 . S
C272 C273 1.391 . S
C272 C274 1.394 . S
C272 H288 0.931 . S
C273 C272 1.391 . S
C273 C277 1.376 . S
C274 C272 1.394 . S
C274 C275 1.369 . S
C274 C278 1.531 . S
C275 C274 1.369 . S
C275 C276 1.410 . S
C275 C283 1.503 . S
C276 C275 1.410 . S
C276 C277 1.392 . S
C276 C279 1.511 . S
C277 C273 1.376 . S
C277 C276 1.392 . S
C277 H289 0.929 . S
C278 C274 1.531 . S
C278 H290 0.960 . S
C278 H291 0.962 . S
C278 H292 0.960 . S
C279 C276 1.511 . S
C279 H293 0.961 . S
C279 H294 0.961 . S
C279 H295 0.961 . S
C280 C281 1.370 . S
C280 C282 1.363 . S
C280 H296 0.931 . S
C281 C280 1.370 . S
C281 C285 1.408 . S
C282 C280 1.363 . S
C282 C283 1.370 . S
C282 C286 1.524 . S
C283 C275 1.503 . S
C283 C282 1.370 . S
C283 C284 1.403 . S
C284 C283 1.403 . S
C284 C285 1.404 . S
C284 C287 1.539 . S
C285 C281 1.408 . S
C285 C284 1.404 . S
C285 H297 0.930 . S
C286 C282 1.524 . S
C286 H298 0.956 . S
C286 H299 0.961 . S
C286 H300 0.961 . S
C287 C284 1.539 . S
C287 H301 0.958 . S
C287 H302 0.961 . S
C287 H303 0.960 . S
H288 C272 0.931 . S
H289 C277 0.929 . S
H290 C278 0.960 . S
H291 C278 0.962 . S
H292 C278 0.960 . S
H293 C279 0.961 . S
H294 C279 0.961 . S
H295 C279 0.961 . S
H296 C280 0.931 . S
H297 C285 0.930 . S
H298 C286 0.956 . S
H299 C286 0.961 . S
H300 C286 0.961 . S
H301 C287 0.958 . S
H302 C287 0.961 . S
H303 C287 0.960 . S
C304 C305 1.391 . S
C304 C306 1.394 . S
C304 H320 0.931 . S
C305 C304 1.391 . S
C305 C309 1.376 . S
C306 C304 1.394 . S
C306 C307 1.369 . S
C306 C310 1.531 . S
C307 C306 1.369 . S
C307 C308 1.410 . S
C307 C315 1.503 . S
C308 C307 1.410 . S
C308 C309 1.392 . S
C308 C311 1.511 . S
C309 C305 1.376 . S
C309 C308 1.392 . S
C309 H321 0.929 . S
C310 C306 1.531 . S
C310 H322 0.960 . S
C310 H323 0.962 . S
C310 H324 0.960 . S
C311 C308 1.511 . S
C311 H325 0.961 . S
C311 H326 0.961 . S
C311 H327 0.961 . S
C312 C313 1.370 . S
C312 C314 1.363 . S
C312 H328 0.931 . S
C313 C312 1.370 . S
C313 C317 1.408 . S
C314 C312 1.363 . S
C314 C315 1.370 . S
C314 C318 1.524 . S
C315 C307 1.503 . S
C315 C314 1.370 . S
C315 C316 1.403 . S
C316 C315 1.403 . S
C316 C317 1.404 . S
C316 C319 1.539 . S
C317 C313 1.408 . S
C317 C316 1.404 . S
C317 H329 0.930 . S
C318 C314 1.524 . S
C318 H330 0.956 . S
C318 H331 0.961 . S
C318 H332 0.961 . S
C319 C316 1.539 . S
C319 H333 0.958 . S
C319 H334 0.961 . S
C319 H335 0.960 . S
H320 C304 0.931 . S
H321 C309 0.929 . S
H322 C310 0.960 . S
H323 C310 0.962 . S
H324 C310 0.960 . S
H325 C311 0.961 . S
H326 C311 0.961 . S
H327 C311 0.961 . S
H328 C312 0.931 . S
H329 C317 0.930 . S
H330 C318 0.956 . S
H331 C318 0.961 . S
H332 C318 0.961 . S
H333 C319 0.958 . S
H334 C319 0.961 . S
H335 C319 0.960 . S
C336 C337 1.391 . S
C336 C338 1.394 . S
C336 H352 0.931 . S
C337 C336 1.391 . S
C337 C341 1.376 . S
C338 C336 1.394 . S
C338 C339 1.369 . S
C338 C342 1.531 . S
C339 C338 1.369 . S
C339 C340 1.410 . S
C339 C347 1.503 . S
C340 C339 1.410 . S
C340 C341 1.392 . S
C340 C343 1.511 . S
C341 C337 1.376 . S
C341 C340 1.392 . S
C341 H353 0.929 . S
C342 C338 1.531 . S
C342 H354 0.960 . S
C342 H355 0.962 . S
C342 H356 0.960 . S
C343 C340 1.511 . S
C343 H357 0.961 . S
C343 H358 0.961 . S
C343 H359 0.961 1_455 S
C344 C345 1.370 . S
C344 C346 1.363 . S
C344 H360 0.931 . S
C345 C344 1.370 . S
C345 C349 1.408 . S
C346 C344 1.363 . S
C346 C347 1.370 . S
C346 C350 1.524 . S
C347 C339 1.503 . S
C347 C346 1.370 . S
C347 C348 1.403 . S
C348 C347 1.403 . S
C348 C349 1.404 . S
C348 C351 1.539 . S
C349 C345 1.408 . S
C349 C348 1.404 . S
C349 H361 0.930 . S
C350 C346 1.524 . S
C350 H362 0.956 . S
C350 H363 0.961 . S
C350 H364 0.961 . S
C351 C348 1.539 . S
C351 H365 0.958 . S
C351 H366 0.961 1_455 S
C351 H367 0.960 . S
H352 C336 0.931 . S
H353 C341 0.929 . S
H354 C342 0.960 . S
H355 C342 0.962 . S
H356 C342 0.960 . S
H357 C343 0.961 . S
H358 C343 0.961 . S
H359 C343 0.961 1_655 S
H360 C344 0.931 . S
H361 C349 0.930 . S
H362 C350 0.956 . S
H363 C350 0.961 . S
H364 C350 0.961 . S
H365 C351 0.958 . S
H366 C351 0.961 1_655 S
H367 C351 0.960 . S
C368 C369 1.391 1_544 S
C368 C370 1.394 1_554 S
C368 H384 0.931 . S
C369 C368 1.391 1_566 S
C369 C373 1.376 . S
C370 C368 1.394 1_556 S
C370 C371 1.369 1_545 S
C370 C374 1.531 1_556 S
C371 C370 1.369 1_565 S
C371 C372 1.410 . S
C371 C379 1.506 . S
C372 C371 1.410 . S
C372 C373 1.392 . S
C372 C375 1.511 . S
C373 C369 1.376 . S
C373 C372 1.392 . S
C373 H385 0.929 . S
C374 C370 1.531 1_554 S
C374 H386 0.960 . S
C374 H387 0.962 . S
C374 H388 0.960 . S
C375 C372 1.511 . S
C375 H389 0.961 . S
C375 H390 0.961 . S
C375 H391 0.961 . S
C376 C377 1.370 . S
C376 C378 1.363 . S
C376 H392 0.931 . S
C377 C376 1.370 . S
C377 C381 1.408 1_545 S
C378 C376 1.363 . S
C378 C379 1.335 1_545 S
C378 C382 1.524 . S
C379 C371 1.506 . S
C379 C378 1.335 1_565 S
C379 C380 1.438 . S
C380 C379 1.438 . S
C380 C381 1.404 . S
C380 C383 1.539 . S
C381 C377 1.408 1_565 S
C381 C380 1.404 . S
C381 H393 0.930 . S
C382 C378 1.524 . S
C382 H394 0.956 . S
C382 H395 0.961 . S
C382 H396 0.961 . S
C383 C380 1.539 . S
C383 H397 0.958 1_556 S
C383 H398 0.961 . S
C383 H399 0.960 . S
H384 C368 0.931 . S
H385 C373 0.929 . S
H386 C374 0.960 . S
H387 C374 0.962 . S
H388 C374 0.960 . S
H389 C375 0.961 . S
H390 C375 0.961 . S
H391 C375 0.961 . S
H392 C376 0.931 . S
H393 C381 0.930 . S
H394 C382 0.956 . S
H395 C382 0.961 . S
H396 C382 0.961 . S
H397 C383 0.958 1_554 S
H398 C383 0.961 . S
H399 C383 0.960 . S
C400 C401 1.391 1_556 S
C400 C402 1.394 . S
C400 H416 0.931 . S
C401 C400 1.391 1_554 S
C401 C405 1.376 . S
C402 C400 1.394 . S
C402 C403 1.369 . S
C402 C406 1.531 . S
C403 C402 1.369 . S
C403 C404 1.410 . S
C403 C411 1.503 . S
C404 C403 1.410 . S
C404 C405 1.392 1_556 S
C404 C407 1.511 1_556 S
C405 C401 1.376 . S
C405 C404 1.392 1_554 S
C405 H417 0.929 . S
C406 C402 1.531 . S
C406 H418 0.960 . S
C406 H419 0.962 . S
C406 H420 0.960 . S
C407 C404 1.511 1_554 S
C407 H421 0.961 . S
C407 H422 0.961 . S
C407 H423 0.961 1_554 S
C408 C409 1.370 . S
C408 C410 1.363 . S
C408 H424 0.931 . S
C409 C408 1.370 . S
C409 C413 1.408 . S
C410 C408 1.363 . S
C410 C411 1.370 . S
C410 C414 1.524 1_556 S
C411 C403 1.503 . S
C411 C410 1.370 . S
C411 C412 1.403 . S
C412 C411 1.403 . S
C412 C413 1.404 . S
C412 C415 1.539 . S
C413 C409 1.408 . S
C413 C412 1.404 . S
C413 H425 0.930 . S
C414 C410 1.524 1_554 S
C414 H426 0.956 1_554 S
C414 H427 0.961 . S
C414 H428 0.961 . S
C415 C412 1.539 . S
C415 H429 0.958 . S
C415 H430 0.961 . S
C415 H431 0.960 . S
H416 C400 0.931 . S
H417 C405 0.929 . S
H418 C406 0.960 . S
H419 C406 0.962 . S
H420 C406 0.960 . S
H421 C407 0.961 . S
H422 C407 0.961 . S
H423 C407 0.961 1_556 S
H424 C408 0.931 . S
H425 C413 0.930 . S
H426 C414 0.956 1_556 S
H427 C414 0.961 . S
H428 C414 0.961 . S
H429 C415 0.958 . S
H430 C415 0.961 . S
H431 C415 0.960 . S
C432 C433 1.391 . S
C432 C434 1.394 . S
C432 H448 0.931 . S
C433 C432 1.391 . S
C433 C437 1.376 1_554 S
C434 C432 1.394 . S
C434 C435 1.369 1_554 S
C434 C438 1.531 . S
C435 C434 1.369 1_556 S
C435 C436 1.410 . S
C435 C443 1.503 . S
C436 C435 1.410 . S
C436 C437 1.392 . S
C436 C439 1.511 . S
C437 C433 1.376 1_556 S
C437 C436 1.392 . S
C437 H449 0.929 . S
C438 C434 1.531 . S
C438 H450 0.960 . S
C438 H451 0.962 . S
C438 H452 0.960 . S
C439 C436 1.511 . S
C439 H453 0.961 . S
C439 H454 0.961 . S
C439 H455 0.961 . S
C440 C441 1.370 . S
C440 C442 1.363 . S
C440 H456 0.931 . S
C441 C440 1.370 . S
C441 C445 1.408 . S
C442 C440 1.363 . S
C442 C443 1.370 . S
C442 C446 1.524 . S
C443 C435 1.503 . S
C443 C442 1.370 . S
C443 C444 1.403 . S
C444 C443 1.403 . S
C444 C445 1.404 . S
C444 C447 1.539 . S
C445 C441 1.408 . S
C445 C444 1.404 . S
C445 H457 0.930 . S
C446 C442 1.524 . S
C446 H458 0.956 1_556 S
C446 H459 0.961 . S
C446 H460 0.961 . S
C447 C444 1.539 . S
C447 H461 0.958 . S
C447 H462 0.961 . S
C447 H463 0.960 . S
H448 C432 0.931 . S
H449 C437 0.929 . S
H450 C438 0.960 . S
H451 C438 0.962 . S
H452 C438 0.960 . S
H453 C439 0.961 . S
H454 C439 0.961 . S
H455 C439 0.961 . S
H456 C440 0.931 . S
H457 C445 0.930 . S
H458 C446 0.956 1_554 S
H459 C446 0.961 . S
H460 C446 0.961 . S
H461 C447 0.958 . S
H462 C447 0.961 . S
H463 C447 0.960 . S
C464 C465 1.391 . S
C464 C466 1.394 . S
C464 H480 0.931 1_655 S
C465 C464 1.391 . S
C465 C469 1.376 . S
C466 C464 1.394 . S
C466 C467 1.369 . S
C466 C470 1.531 1_655 S
C467 C466 1.369 . S
C467 C468 1.410 . S
C467 C475 1.503 . S
C468 C467 1.410 . S
C468 C469 1.392 . S
C468 C471 1.511 . S
C469 C465 1.376 . S
C469 C468 1.392 . S
C469 H481 0.929 . S
C470 C466 1.531 1_455 S
C470 H482 0.960 . S
C470 H483 0.962 . S
C470 H484 0.960 1_556 S
C471 C468 1.511 . S
C471 H485 0.961 . S
C471 H486 0.961 . S
C471 H487 0.961 . S
C472 C473 1.370 1_455 S
C472 C474 1.364 1_455 S
C472 H488 0.931 . S
C473 C472 1.370 1_655 S
C473 C477 1.408 . S
C474 C472 1.364 1_655 S
C474 C475 1.370 . S
C474 C478 1.525 1_655 S
C475 C467 1.503 . S
C475 C474 1.370 . S
C475 C476 1.403 . S
C476 C475 1.403 . S
C476 C477 1.404 . S
C476 C479 1.539 . S
C477 C473 1.408 . S
C477 C476 1.404 . S
C477 H489 0.930 . S
C478 C474 1.525 1_455 S
C478 H490 0.956 . S
C478 H491 0.961 1_455 S
C478 H492 0.961 . S
C479 C476 1.539 . S
C479 H493 0.958 1_556 S
C479 H494 0.961 . S
C479 H495 0.960 . S
H480 C464 0.931 1_455 S
H481 C469 0.929 . S
H482 C470 0.960 . S
H483 C470 0.962 . S
H484 C470 0.960 1_554 S
H485 C471 0.961 . S
H486 C471 0.961 . S
H487 C471 0.961 . S
H488 C472 0.931 . S
H489 C477 0.930 . S
H490 C478 0.956 . S
H491 C478 0.961 1_655 S
H492 C478 0.961 . S
H493 C479 0.958 1_554 S
H494 C479 0.961 . S
H495 C479 0.960 . S
C496 C497 1.391 . S
C496 C498 1.394 . S
C496 H512 0.931 . S
C497 C496 1.391 . S
C497 C501 1.376 . S
C498 C496 1.394 . S
C498 C499 1.369 . S
C498 C502 1.531 . S
C499 C498 1.369 . S
C499 C500 1.410 . S
C499 C507 1.503 . S
C500 C499 1.410 . S
C500 C501 1.392 . S
C500 C503 1.511 . S
C501 C497 1.376 . S
C501 C500 1.392 . S
C501 H513 0.929 . S
C502 C498 1.531 . S
C502 H514 0.960 . S
C502 H515 0.962 . S
C502 H516 0.960 . S
C503 C500 1.511 . S
C503 H517 0.961 . S
C503 H518 0.961 . S
C503 H519 0.961 . S
C504 C505 1.370 . S
C504 C506 1.363 . S
C504 H520 0.931 1_455 S
C505 C504 1.370 . S
C505 C509 1.408 . S
C506 C504 1.363 . S
C506 C507 1.370 . S
C506 C510 1.524 1_455 S
C507 C499 1.503 . S
C507 C506 1.370 . S
C507 C508 1.403 . S
C508 C507 1.403 . S
C508 C509 1.404 . S
C508 C511 1.539 . S
C509 C505 1.408 . S
C509 C508 1.404 . S
C509 H521 0.930 . S
C510 C506 1.524 1_655 S
C510 H522 0.956 1_655 S
C510 H523 0.961 . S
C510 H524 0.961 . S
C511 C508 1.539 . S
C511 H525 0.958 . S
C511 H526 0.961 . S
C511 H527 0.960 . S
H512 C496 0.931 . S
H513 C501 0.929 . S
H514 C502 0.960 . S
H515 C502 0.962 . S
H516 C502 0.960 . S
H517 C503 0.961 . S
H518 C503 0.961 . S
H519 C503 0.961 . S
H520 C504 0.931 1_655 S
H521 C509 0.930 . S
H522 C510 0.956 1_455 S
H523 C510 0.961 . S
H524 C510 0.961 . S
H525 C511 0.958 . S
H526 C511 0.961 . S
H527 C511 0.960 . S
C528 C529 1.411 . S
C528 C530 1.394 . S
C528 H544 0.931 . S
C529 C528 1.411 . S
C529 C533 1.357 1_565 S
C530 C528 1.394 . S
C530 C531 1.369 . S
C530 C534 1.531 . S
C531 C530 1.369 . S
C531 C532 1.410 1_565 S
C531 C539 1.503 . S
C532 C531 1.410 1_545 S
C532 C533 1.392 . S
C532 C535 1.511 . S
C533 C529 1.357 1_545 S
C533 C532 1.392 . S
C533 H545 0.929 . S
C534 C530 1.531 . S
C534 H546 0.960 . S
C534 H547 0.962 . S
C534 H548 0.960 . S
C535 C532 1.511 . S
C535 H549 0.961 . S
C535 H550 0.961 . S
C535 H551 0.961 . S
C536 C537 1.373 . S
C536 C538 1.364 1_565 S
C536 H552 0.928 1_565 S
C537 C536 1.373 . S
C537 C541 1.408 . S
C538 C536 1.364 1_545 S
C538 C539 1.363 1_545 S
C538 C542 1.532 . S
C539 C531 1.503 . S
C539 C538 1.363 1_565 S
C539 C540 1.403 . S
C540 C539 1.403 . S
C540 C541 1.404 . S
C540 C543 1.539 . S
C541 C537 1.408 . S
C541 C540 1.404 . S
C541 H553 0.930 . S
C542 C538 1.532 . S
C542 H554 0.956 1_545 S
C542 H555 0.961 . S
C542 H556 0.961 . S
C543 C540 1.539 . S
C543 H557 0.958 . S
C543 H558 0.961 . S
C543 H559 0.960 . S
H544 C528 0.931 . S
H545 C533 0.929 . S
H546 C534 0.960 . S
H547 C534 0.962 . S
H548 C534 0.960 . S
H549 C535 0.961 . S
H550 C535 0.961 . S
H551 C535 0.961 . S
H552 C536 0.928 1_545 S
H553 C541 0.930 . S
H554 C542 0.956 1_565 S
H555 C542 0.961 . S
H556 C542 0.961 . S
H557 C543 0.958 . S
H558 C543 0.961 . S
H559 C543 0.960 . S
C560 C561 1.391 . S
C560 C562 1.394 . S
C560 H576 0.931 . S
C561 C560 1.391 . S
C561 C565 1.376 . S
C562 C560 1.394 . S
C562 C563 1.369 . S
C562 C566 1.531 . S
C563 C562 1.369 . S
C563 C564 1.410 . S
C563 C571 1.503 . S
C564 C563 1.410 . S
C564 C565 1.392 . S
C564 C567 1.511 . S
C565 C561 1.376 . S
C565 C564 1.392 . S
C565 H577 0.929 . S
C566 C562 1.531 . S
C566 H578 0.960 . S
C566 H579 0.962 . S
C566 H580 0.960 . S
C567 C564 1.511 . S
C567 H581 0.961 . S
C567 H582 0.961 . S
C567 H583 0.961 . S
C568 C569 1.370 . S
C568 C570 1.363 . S
C568 H584 0.931 . S
C569 C568 1.370 . S
C569 C573 1.408 . S
C570 C568 1.363 . S
C570 C571 1.370 . S
C570 C574 1.524 . S
C571 C563 1.503 . S
C571 C570 1.370 . S
C571 C572 1.403 . S
C572 C571 1.403 . S
C572 C573 1.404 . S
C572 C575 1.539 . S
C573 C569 1.408 . S
C573 C572 1.404 . S
C573 H585 0.930 . S
C574 C570 1.524 . S
C574 H586 0.956 . S
C574 H587 0.961 . S
C574 H588 0.961 . S
C575 C572 1.539 . S
C575 H589 0.958 . S
C575 H590 0.961 . S
C575 H591 0.960 . S
H576 C560 0.931 . S
H577 C565 0.929 . S
H578 C566 0.960 . S
H579 C566 0.962 . S
H580 C566 0.960 . S
H581 C567 0.961 . S
H582 C567 0.961 . S
H583 C567 0.961 . S
H584 C568 0.931 . S
H585 C573 0.930 . S
H586 C574 0.956 . S
H587 C574 0.961 . S
H588 C574 0.961 . S
H589 C575 0.958 . S
H590 C575 0.961 . S
H591 C575 0.960 . S
C592 C593 1.391 . S
C592 C594 1.394 . S
C592 H608 0.931 . S
C593 C592 1.391 . S
C593 C597 1.376 . S
C594 C592 1.394 . S
C594 C595 1.369 . S
C594 C598 1.531 . S
C595 C594 1.369 . S
C595 C596 1.410 . S
C595 C603 1.503 . S
C596 C595 1.410 . S
C596 C597 1.392 . S
C596 C599 1.511 . S
C597 C593 1.376 . S
C597 C596 1.392 . S
C597 H609 0.929 . S
C598 C594 1.531 . S
C598 H610 0.960 . S
C598 H611 0.962 . S
C598 H612 0.960 . S
C599 C596 1.511 . S
C599 H613 0.961 . S
C599 H614 0.961 . S
C599 H615 0.961 . S
C600 C601 1.370 . S
C600 C602 1.363 . S
C600 H616 0.931 . S
C601 C600 1.370 . S
C601 C605 1.408 . S
C602 C600 1.363 . S
C602 C603 1.370 . S
C602 C606 1.524 . S
C603 C595 1.503 . S
C603 C602 1.370 . S
C603 C604 1.403 . S
C604 C603 1.403 . S
C604 C605 1.404 . S
C604 C607 1.539 . S
C605 C601 1.408 . S
C605 C604 1.404 . S
C605 H617 0.930 . S
C606 C602 1.524 . S
C606 H618 0.956 . S
C606 H619 0.961 . S
C606 H620 0.961 . S
C607 C604 1.539 . S
C607 H621 0.958 . S
C607 H622 0.961 . S
C607 H623 0.960 . S
H608 C592 0.931 . S
H609 C597 0.929 . S
H610 C598 0.960 . S
H611 C598 0.962 . S
H612 C598 0.960 . S
H613 C599 0.961 . S
H614 C599 0.961 . S
H615 C599 0.961 . S
H616 C600 0.931 . S
H617 C605 0.930 . S
H618 C606 0.956 . S
H619 C606 0.961 . S
H620 C606 0.961 . S
H621 C607 0.958 . S
H622 C607 0.961 . S
H623 C607 0.960 . S
C624 C625 1.391 . S
C624 C626 1.394 . S
C624 H640 0.931 . S
C625 C624 1.391 . S
C625 C629 1.376 . S
C626 C624 1.394 . S
C626 C627 1.369 . S
C626 C630 1.531 . S
C627 C626 1.369 . S
C627 C628 1.410 . S
C627 C635 1.503 . S
C628 C627 1.410 . S
C628 C629 1.392 . S
C628 C631 1.511 1_656 S
C629 C625 1.376 . S
C629 C628 1.392 . S
C629 H641 0.929 1_556 S
C630 C626 1.531 . S
C630 H642 0.960 . S
C630 H643 0.962 . S
C630 H644 0.960 . S
C631 C628 1.511 1_454 S
C631 H645 0.961 . S
C631 H646 0.961 1_554 S
C631 H647 0.961 1_455 S
C632 C633 1.370 . S
C632 C634 1.363 . S
C632 H648 0.931 . S
C633 C632 1.370 . S
C633 C637 1.408 1_455 S
C634 C632 1.363 . S
C634 C635 1.370 1_455 S
C634 C638 1.524 . S
C635 C627 1.503 . S
C635 C634 1.370 1_655 S
C635 C636 1.403 . S
C636 C635 1.403 . S
C636 C637 1.404 . S
C636 C639 1.539 . S
C637 C633 1.408 1_655 S
C637 C636 1.404 . S
C637 H649 0.930 . S
C638 C634 1.524 . S
C638 H650 0.956 . S
C638 H651 0.961 . S
C638 H652 0.961 . S
C639 C636 1.539 . S
C639 H653 0.958 . S
C639 H654 0.961 . S
C639 H655 0.960 . S
H640 C624 0.931 . S
H641 C629 0.929 1_554 S
H642 C630 0.960 . S
H643 C630 0.962 . S
H644 C630 0.960 . S
H645 C631 0.961 . S
H646 C631 0.961 1_556 S
H647 C631 0.961 1_655 S
H648 C632 0.931 . S
H649 C637 0.930 . S
H650 C638 0.956 . S
H651 C638 0.961 . S
H652 C638 0.961 . S
H653 C639 0.958 . S
H654 C639 0.961 . S
H655 C639 0.960 . S
C656 C657 1.391 1_545 S
C656 C658 1.394 . S
C656 H672 0.931 . S
C657 C656 1.391 1_565 S
C657 C661 1.376 1_556 S
C658 C656 1.394 . S
C658 C659 1.369 1_545 S
C658 C662 1.531 . S
C659 C658 1.369 1_565 S
C659 C660 1.410 . S
C659 C667 1.503 . S
C660 C659 1.410 . S
C660 C661 1.392 1_556 S
C660 C663 1.511 1_556 S
C661 C657 1.376 1_554 S
C661 C660 1.392 1_554 S
C661 H673 0.929 . S
C662 C658 1.531 . S
C662 H674 0.960 . S
C662 H675 0.962 . S
C662 H676 0.960 . S
C663 C660 1.511 1_554 S
C663 H677 0.961 . S
C663 H678 0.961 . S
C663 H679 0.961 . S
C664 C665 1.370 . S
C664 C666 1.363 . S
C664 H680 0.931 . S
C665 C664 1.370 . S
C665 C669 1.408 1_545 S
C666 C664 1.363 . S
C666 C667 1.372 1_545 S
C666 C670 1.524 . S
C667 C659 1.503 . S
C667 C666 1.372 1_565 S
C667 C668 1.401 . S
C668 C667 1.401 . S
C668 C669 1.404 . S
C668 C671 1.539 . S
C669 C665 1.408 1_565 S
C669 C668 1.404 . S
C669 H681 0.930 . S
C670 C666 1.524 . S
C670 H682 0.956 . S
C670 H683 0.961 1_556 S
C670 H684 0.961 . S
C671 C668 1.539 . S
C671 H685 0.958 . S
C671 H686 0.961 . S
C671 H687 0.960 . S
H672 C656 0.931 . S
H673 C661 0.929 . S
H674 C662 0.960 . S
H675 C662 0.962 . S
H676 C662 0.960 . S
H677 C663 0.961 . S
H678 C663 0.961 . S
H679 C663 0.961 . S
H680 C664 0.931 . S
H681 C669 0.930 . S
H682 C670 0.956 . S
H683 C670 0.961 1_554 S
H684 C670 0.961 . S
H685 C671 0.958 . S
H686 C671 0.961 . S
H687 C671 0.960 . S
C688 C689 1.391 1_556 S
C688 C690 1.394 . S
C688 H704 0.931 . S
C689 C688 1.391 1_554 S
C689 C693 1.376 1_554 S
C690 C688 1.394 . S
C690 C691 1.369 . S
C690 C694 1.531 . S
C691 C690 1.369 . S
C691 C692 1.410 . S
C691 C699 1.503 . S
C692 C691 1.410 . S
C692 C693 1.392 . S
C692 C695 1.511 . S
C693 C689 1.376 1_556 S
C693 C692 1.392 . S
C693 H705 0.925 1_556 S
C694 C690 1.531 . S
C694 H706 0.960 . S
C694 H707 0.962 . S
C694 H708 0.960 . S
C695 C692 1.511 . S
C695 H709 0.961 . S
C695 H710 0.961 . S
C695 H711 0.961 . S
C696 C697 1.370 . S
C696 C698 1.363 . S
C696 H712 0.931 . S
C697 C696 1.370 . S
C697 C701 1.408 . S
C698 C696 1.363 . S
C698 C699 1.370 . S
C698 C702 1.524 1_556 S
C699 C691 1.503 . S
C699 C698 1.370 . S
C699 C700 1.403 . S
C700 C699 1.403 . S
C700 C701 1.404 . S
C700 C703 1.539 . S
C701 C697 1.408 . S
C701 C700 1.404 . S
C701 H713 0.930 . S
C702 C698 1.524 1_554 S
C702 H714 0.956 . S
C702 H715 0.961 . S
C702 H716 0.961 . S
C703 C700 1.539 . S
C703 H717 0.958 . S
C703 H718 0.961 . S
C703 H719 0.960 . S
H704 C688 0.931 . S
H705 C693 0.925 1_554 S
H706 C694 0.960 . S
H707 C694 0.962 . S
H708 C694 0.960 . S
H709 C695 0.961 . S
H710 C695 0.961 . S
H711 C695 0.961 . S
H712 C696 0.931 . S
H713 C701 0.930 . S
H714 C702 0.956 . S
H715 C702 0.961 . S
H716 C702 0.961 . S
H717 C703 0.958 . S
H718 C703 0.961 . S
H719 C703 0.960 . S
C720 C721 1.391 . S
C720 C722 1.394 . S
C720 H736 0.931 . S
C721 C720 1.391 . S
C721 C725 1.376 . S
C722 C720 1.394 . S
C722 C723 1.369 1_554 S
C722 C726 1.531 . S
C723 C722 1.369 1_556 S
C723 C724 1.410 1_556 S
C723 C731 1.503 . S
C724 C723 1.410 1_554 S
C724 C725 1.392 . S
C724 C727 1.511 1_554 S
C725 C721 1.376 . S
C725 C724 1.392 . S
C725 H737 0.929 . S
C726 C722 1.531 . S
C726 H738 0.960 . S
C726 H739 0.962 1_554 S
C726 H740 0.960 . S
C727 C724 1.511 1_556 S
C727 H741 0.961 . S
C727 H742 0.961 . S
C727 H743 0.961 1_556 S
C728 C729 1.370 . S
C728 C730 1.363 . S
C728 H744 0.931 . S
C729 C728 1.370 . S
C729 C733 1.408 . S
C730 C728 1.363 . S
C730 C731 1.370 . S
C730 C734 1.524 . S
C731 C723 1.503 . S
C731 C730 1.370 . S
C731 C732 1.403 . S
C732 C731 1.403 . S
C732 C733 1.404 . S
C732 C735 1.539 1_556 S
C733 C729 1.408 . S
C733 C732 1.404 . S
C733 H745 0.930 . S
C734 C730 1.524 . S
C734 H746 0.956 . S
C734 H747 0.961 . S
C734 H748 0.961 . S
C735 C732 1.539 1_554 S
C735 H749 0.958 . S
C735 H750 0.961 . S
C735 H751 0.960 . S
H736 C720 0.931 . S
H737 C725 0.929 . S
H738 C726 0.960 . S
H739 C726 0.962 1_556 S
H740 C726 0.960 . S
H741 C727 0.961 . S
H742 C727 0.961 . S
H743 C727 0.961 1_554 S
H744 C728 0.931 . S
H745 C733 0.930 . S
H746 C734 0.956 . S
H747 C734 0.961 . S
H748 C734 0.961 . S
H749 C735 0.958 . S
H750 C735 0.961 . S
H751 C735 0.960 . S
C752 C753 1.391 . S
C752 C754 1.394 . S
C752 H768 0.931 . S
C753 C752 1.391 . S
C753 C757 1.376 . S
C754 C752 1.394 . S
C754 C755 1.369 . S
C754 C758 1.531 . S
C755 C754 1.369 . S
C755 C756 1.410 . S
C755 C763 1.503 . S
C756 C755 1.410 . S
C756 C757 1.392 . S
C756 C759 1.511 . S
C757 C753 1.376 . S
C757 C756 1.392 . S
C757 H769 0.929 . S
C758 C754 1.531 . S
C758 H770 0.960 . S
C758 H771 0.962 . S
C758 H772 0.960 . S
C759 C756 1.511 . S
C759 H773 0.961 1_455 S
C759 H774 0.961 . S
C759 H775 0.961 1_455 S
C760 C761 1.370 . S
C760 C762 1.363 . S
C760 H776 0.931 1_554 S
C761 C760 1.370 . S
C761 C765 1.408 . S
C762 C760 1.363 . S
C762 C763 1.370 . S
C762 C766 1.524 . S
C763 C755 1.503 . S
C763 C762 1.370 . S
C763 C764 1.403 . S
C764 C763 1.403 . S
C764 C765 1.404 . S
C764 C767 1.539 . S
C765 C761 1.408 . S
C765 C764 1.404 . S
C765 H777 0.930 . S
C766 C762 1.524 . S
C766 H778 0.956 . S
C766 H779 0.961 . S
C766 H780 0.961 1_554 S
C767 C764 1.539 . S
C767 H781 0.958 . S
C767 H782 0.961 . S
C767 H783 0.960 . S
H768 C752 0.931 . S
H769 C757 0.929 . S
H770 C758 0.960 . S
H771 C758 0.962 . S
H772 C758 0.960 . S
H773 C759 0.961 1_655 S
H774 C759 0.961 . S
H775 C759 0.961 1_655 S
H776 C760 0.931 1_556 S
H777 C765 0.930 . S
H778 C766 0.956 . S
H779 C766 0.961 . S
H780 C766 0.961 1_556 S
H781 C767 0.958 . S
H782 C767 0.961 . S
H783 C767 0.960 . S
C784 C785 1.391 1_565 S
C784 C786 1.394 . S
C784 H800 0.931 . S
C785 C784 1.391 1_545 S
C785 C789 1.376 . S
C786 C784 1.394 . S
C786 C787 1.369 1_565 S
C786 C790 1.531 1_554 S
C787 C786 1.369 1_545 S
C787 C788 1.410 . S
C787 C795 1.503 . S
C788 C787 1.410 . S
C788 C789 1.392 . S
C788 C791 1.511 . S
C789 C785 1.376 . S
C789 C788 1.392 . S
C789 H801 0.929 . S
C790 C786 1.531 1_556 S
C790 H802 0.960 . S
C790 H803 0.962 . S
C790 H804 0.960 . S
C791 C788 1.511 . S
C791 H805 0.961 . S
C791 H806 0.961 . S
C791 H807 0.961 . S
C792 C793 1.370 1_565 S
C792 C794 1.363 1_556 S
C792 H808 0.931 . S
C793 C792 1.370 1_545 S
C793 C797 1.408 . S
C794 C792 1.363 1_554 S
C794 C795 1.370 1_565 S
C794 C798 1.524 . S
C795 C787 1.503 . S
C795 C794 1.370 1_545 S
C795 C796 1.403 1_554 S
C796 C795 1.403 1_556 S
C796 C797 1.404 . S
C796 C799 1.539 . S
C797 C793 1.408 . S
C797 C796 1.404 . S
C797 H809 0.930 . S
C798 C794 1.524 . S
C798 H810 0.956 . S
C798 H811 0.961 . S
C798 H812 0.961 . S
C799 C796 1.539 . S
C799 H813 0.958 . S
C799 H814 0.961 . S
C799 H815 0.960 . S
H800 C784 0.931 . S
H801 C789 0.929 . S
H802 C790 0.960 . S
H803 C790 0.962 . S
H804 C790 0.960 . S
H805 C791 0.961 . S
H806 C791 0.961 . S
H807 C791 0.961 . S
H808 C792 0.931 . S
H809 C797 0.930 . S
H810 C798 0.956 . S
H811 C798 0.961 . S
H812 C798 0.961 . S
H813 C799 0.958 . S
H814 C799 0.961 . S
H815 C799 0.960 . S
C816 C817 1.391 . S
C816 C818 1.394 . S
C816 H832 0.931 . S
C817 C816 1.391 . S
C817 C821 1.376 . S
C818 C816 1.394 . S
C818 C819 1.369 . S
C818 C822 1.531 1_554 S
C819 C818 1.369 . S
C819 C820 1.410 . S
C819 C827 1.503 . S
C820 C819 1.410 . S
C820 C821 1.392 . S
C820 C823 1.511 . S
C821 C817 1.376 . S
C821 C820 1.392 . S
C821 H833 0.929 . S
C822 C818 1.531 1_556 S
C822 H834 0.960 . S
C822 H835 0.962 . S
C822 H836 0.960 . S
C823 C820 1.511 . S
C823 H837 0.961 . S
C823 H838 0.961 . S
C823 H839 0.961 . S
C824 C825 1.370 . S
C824 C826 1.363 1_556 S
C824 H840 0.931 . S
C825 C824 1.370 . S
C825 C829 1.408 . S
C826 C824 1.363 1_554 S
C826 C827 1.370 . S
C826 C830 1.524 . S
C827 C819 1.503 . S
C827 C826 1.370 . S
C827 C828 1.403 1_554 S
C828 C827 1.403 1_556 S
C828 C829 1.404 . S
C828 C831 1.539 . S
C829 C825 1.408 . S
C829 C828 1.404 . S
C829 H841 0.930 . S
C830 C826 1.524 . S
C830 H842 0.956 . S
C830 H843 0.961 . S
C830 H844 0.961 . S
C831 C828 1.539 . S
C831 H845 0.958 . S
C831 H846 0.961 . S
C831 H847 0.960 . S
H832 C816 0.931 . S
H833 C821 0.929 . S
H834 C822 0.960 . S
H835 C822 0.962 . S
H836 C822 0.960 . S
H837 C823 0.961 . S
H838 C823 0.961 . S
H839 C823 0.961 . S
H840 C824 0.931 . S
H841 C829 0.930 . S
H842 C830 0.956 . S
H843 C830 0.961 . S
H844 C830 0.961 . S
H845 C831 0.958 . S
H846 C831 0.961 . S
H847 C831 0.960 . S
C848 C849 1.391 . S
C848 C850 1.394 . S
C848 H864 0.931 . S
C849 C848 1.391 . S
C849 C853 1.376 . S
C850 C848 1.394 . S
C850 C851 1.369 . S
C850 C854 1.531 . S
C851 C850 1.369 . S
C851 C852 1.410 . S
C851 C859 1.503 1_554 S
C852 C851 1.410 . S
C852 C853 1.392 . S
C852 C855 1.511 1_554 S
C853 C849 1.376 . S
C853 C852 1.392 . S
C853 H865 0.929 . S
C854 C850 1.531 . S
C854 H866 0.960 . S
C854 H867 0.962 . S
C854 H868 0.960 . S
C855 C852 1.511 1_556 S
C855 H869 0.961 . S
C855 H870 0.961 . S
C855 H871 0.961 . S
C856 C857 1.370 . S
C856 C858 1.363 . S
C856 H872 0.931 . S
C857 C856 1.370 . S
C857 C861 1.408 . S
C858 C856 1.363 . S
C858 C859 1.370 . S
C858 C862 1.524 1_556 S
C859 C851 1.503 1_556 S
C859 C858 1.370 . S
C859 C860 1.403 . S
C860 C859 1.403 . S
C860 C861 1.404 . S
C860 C863 1.539 . S
C861 C857 1.408 . S
C861 C860 1.404 . S
C861 H873 0.930 . S
C862 C858 1.524 1_554 S
C862 H874 0.956 . S
C862 H875 0.961 . S
C862 H876 0.961 . S
C863 C860 1.539 . S
C863 H877 0.958 . S
C863 H878 0.961 . S
C863 H879 0.960 . S
H864 C848 0.931 . S
H865 C853 0.929 . S
H866 C854 0.960 . S
H867 C854 0.962 . S
H868 C854 0.960 . S
H869 C855 0.961 . S
H870 C855 0.961 . S
H871 C855 0.961 . S
H872 C856 0.931 . S
H873 C861 0.930 . S
H874 C862 0.956 . S
H875 C862 0.961 . S
H876 C862 0.961 . S
H877 C863 0.958 . S
H878 C863 0.961 . S
H879 C863 0.960 . S
C880 C881 1.391 . S
C880 C882 1.394 . S
C880 H896 0.931 . S
C881 C880 1.391 . S
C881 C885 1.376 . S
C882 C880 1.394 . S
C882 C883 1.369 . S
C882 C886 1.531 . S
C883 C882 1.369 . S
C883 C884 1.422 . S
C883 C891 1.503 . S
C884 C883 1.422 . S
C884 C885 1.396 . S
C884 C887 1.496 1_655 S
C885 C881 1.376 . S
C885 C884 1.396 . S
C885 H897 0.929 1_655 S
C886 C882 1.531 . S
C886 H898 0.960 . S
C886 H899 0.962 . S
C886 H900 0.960 . S
C887 C884 1.496 1_455 S
C887 H901 0.961 . S
C887 H902 0.961 . S
C887 H903 0.961 . S
C888 C889 1.370 . S
C888 C890 1.363 . S
C888 H904 0.931 . S
C889 C888 1.370 . S
C889 C893 1.408 . S
C890 C888 1.363 . S
C890 C891 1.370 . S
C890 C894 1.524 . S
C891 C883 1.503 . S
C891 C890 1.370 . S
C891 C892 1.403 . S
C892 C891 1.403 . S
C892 C893 1.404 . S
C892 C895 1.537 1_655 S
C893 C889 1.408 . S
C893 C892 1.404 . S
C893 H905 0.921 1_655 S
C894 C890 1.524 . S
C894 H906 0.956 . S
C894 H907 0.961 . S
C894 H908 0.961 . S
C895 C892 1.537 1_455 S
C895 H909 0.953 1_455 S
C895 H910 0.967 . S
C895 H911 0.961 . S
H896 C880 0.931 . S
H897 C885 0.929 1_455 S
H898 C886 0.960 . S
H899 C886 0.962 . S
H900 C886 0.960 . S
H901 C887 0.961 . S
H902 C887 0.961 . S
H903 C887 0.961 . S
H904 C888 0.931 . S
H905 C893 0.921 1_455 S
H906 C894 0.956 . S
H907 C894 0.961 . S
H908 C894 0.961 . S
H909 C895 0.953 1_655 S
H910 C895 0.967 . S
H911 C895 0.961 . S
C912 C913 1.391 . S
C912 C914 1.394 . S
C912 H928 0.931 . S
C913 C912 1.391 . S
C913 C917 1.376 1_565 S
C914 C912 1.394 . S
C914 C915 1.369 . S
C914 C918 1.531 . S
C915 C914 1.369 . S
C915 C916 1.410 1_565 S
C915 C923 1.503 . S
C916 C915 1.410 1_545 S
C916 C917 1.392 . S
C916 C919 1.511 . S
C917 C913 1.376 1_545 S
C917 C916 1.392 . S
C917 H929 0.929 . S
C918 C914 1.531 . S
C918 H930 0.960 . S
C918 H931 0.962 . S
C918 H932 0.960 . S
C919 C916 1.511 . S
C919 H933 0.961 . S
C919 H934 0.961 . S
C919 H935 0.961 . S
C920 C921 1.370 1_545 S
C920 C922 1.363 . S
C920 H936 0.931 . S
C921 C920 1.370 1_565 S
C921 C925 1.408 . S
C922 C920 1.363 . S
C922 C923 1.370 1_545 S
C922 C926 1.524 . S
C923 C915 1.503 . S
C923 C922 1.370 1_565 S
C923 C924 1.403 . S
C924 C923 1.403 . S
C924 C925 1.404 . S
C924 C927 1.539 . S
C925 C921 1.408 . S
C925 C924 1.404 . S
C925 H937 0.930 . S
C926 C922 1.524 . S
C926 H938 0.956 . S
C926 H939 0.961 . S
C926 H940 0.961 . S
C927 C924 1.539 . S
C927 H941 0.958 . S
C927 H942 0.961 . S
C927 H943 0.960 . S
H928 C912 0.931 . S
H929 C917 0.929 . S
H930 C918 0.960 . S
H931 C918 0.962 . S
H932 C918 0.960 . S
H933 C919 0.961 . S
H934 C919 0.961 . S
H935 C919 0.961 . S
H936 C920 0.931 . S
H937 C925 0.930 . S
H938 C926 0.956 . S
H939 C926 0.961 . S
H940 C926 0.961 . S
H941 C927 0.958 . S
H942 C927 0.961 . S
H943 C927 0.960 . S
C944 C945 1.391 . S
C944 C946 1.394 . S
C944 H960 0.931 . S
C945 C944 1.391 . S
C945 C949 1.376 . S
C946 C944 1.394 . S
C946 C947 1.369 . S
C946 C950 1.531 . S
C947 C946 1.369 . S
C947 C948 1.410 . S
C947 C955 1.503 . S
C948 C947 1.410 . S
C948 C949 1.392 . S
C948 C951 1.511 . S
C949 C945 1.376 . S
C949 C948 1.392 . S
C949 H961 0.929 . S
C950 C946 1.531 . S
C950 H962 0.960 . S
C950 H963 0.962 . S
C950 H964 0.960 . S
C951 C948 1.511 . S
C951 H965 0.961 . S
C951 H966 0.961 . S
C951 H967 0.961 . S
C952 C953 1.370 . S
C952 C954 1.363 . S
C952 H968 0.931 . S
C953 C952 1.370 . S
C953 C957 1.408 . S
C954 C952 1.363 . S
C954 C955 1.370 . S
C954 C958 1.524 . S
C955 C947 1.503 . S
C955 C954 1.370 . S
C955 C956 1.403 . S
C956 C955 1.403 . S
C956 C957 1.404 . S
C956 C959 1.539 . S
C957 C953 1.408 . S
C957 C956 1.404 . S
C957 H969 0.930 . S
C958 C954 1.524 . S
C958 H970 0.956 . S
C958 H971 0.961 . S
C958 H972 0.961 . S
C959 C956 1.539 . S
C959 H973 0.958 . S
C959 H974 0.961 . S
C959 H975 0.960 . S
H960 C944 0.931 . S
H961 C949 0.929 . S
H962 C950 0.960 . S
H963 C950 0.962 . S
H964 C950 0.960 . S
H965 C951 0.961 . S
H966 C951 0.961 . S
H967 C951 0.961 . S
H968 C952 0.931 . S
H969 C957 0.930 . S
H970 C958 0.956 . S
H971 C958 0.961 . S
H972 C958 0.961 . S
H973 C959 0.958 . S
H974 C959 0.961 . S
H975 C959 0.960 . S
C976 C977 1.391 . S
C976 C978 1.394 . S
C976 H992 0.931 . S
C977 C976 1.391 . S
C977 C981 1.376 . S
C978 C976 1.394 . S
C978 C979 1.369 . S
C978 C982 1.531 . S
C979 C978 1.369 . S
C979 C980 1.410 . S
C979 C987 1.503 . S
C980 C979 1.410 . S
C980 C981 1.392 . S
C980 C983 1.511 . S
C981 C977 1.376 . S
C981 C980 1.392 . S
C981 H993 0.929 . S
C982 C978 1.531 . S
C982 H994 0.960 . S
C982 H995 0.962 . S
C982 H996 0.960 . S
C983 C980 1.511 . S
C983 H997 0.961 . S
C983 H998 0.961 . S
C983 H999 0.961 . S
C984 C985 1.370 . S
C984 C986 1.363 . S
C984 H1000 0.931 . S
C985 C984 1.370 . S
C985 C989 1.408 . S
C986 C984 1.363 . S
C986 C987 1.370 . S
C986 C990 1.524 . S
C987 C979 1.503 . S
C987 C986 1.370 . S
C987 C988 1.403 . S
C988 C987 1.403 . S
C988 C989 1.404 . S
C988 C991 1.539 . S
C989 C985 1.408 . S
C989 C988 1.404 . S
C989 H1001 0.930 . S
C990 C986 1.524 . S
C990 H1002 0.956 . S
C990 H1003 0.961 . S
C990 H1004 0.961 . S
C991 C988 1.539 . S
C991 H1005 0.958 . S
C991 H1006 0.961 . S
C991 H1007 0.960 . S
H992 C976 0.931 . S
H993 C981 0.929 . S
H994 C982 0.960 . S
H995 C982 0.962 . S
H996 C982 0.960 . S
H997 C983 0.961 . S
H998 C983 0.961 . S
H999 C983 0.961 . S
H1000 C984 0.931 . S
H1001 C989 0.930 . S
H1002 C990 0.956 . S
H1003 C990 0.961 . S
H1004 C990 0.961 . S
H1005 C991 0.958 . S
H1006 C991 0.961 . S
H1007 C991 0.960 . S
C241 C82 1.755 1_565 S
C249 C121 1.875 . S
C281 C142 1.539 . S
C273 C95 1.490 . S
C313 C176 1.376 . S
C305 C56 1.261 . S
C345 C210 1.540 . S
C337 C69 1.505 . S
C377 C112 1.873 . S
C369 C30 1.782 1_566 S
C401 C43 1.390 . S
C409 C151 1.549 . S
C433 C4 1.256 . S
C441 C185 1.378 . S
C465 C17 1.476 . S
C473 C219 1.539 1_655 S
C505 C133 0.484 . S
C497 C74 0.659 . S
C537 C138 0.992 . S
C529 C87 0.931 1_565 S
C569 C172 0.920 . S
C561 C100 0.905 . S
C593 C61 0.412 . S
C601 C206 0.384 . S
C625 C22 0.577 . S
C633 C104 0.516 . S
C665 C167 0.982 . S
C657 C35 0.994 1_566 S
C697 C201 0.905 . S
C689 C48 0.943 . S
C721 C9 0.362 . S
C729 C235 0.403 . S
C753 C73 1.254 . S
C761 C117 1.325 . S
C785 C86 1.722 . S
C793 C146 1.758 . S
C825 C180 1.551 . S
C817 C99 1.529 . S
C857 C214 1.611 . S
C849 C60 1.575 . S
C881 C21 1.313 . S
C889 C108 1.319 . S
C921 C155 1.757 . S
C913 C34 1.730 1_565 S
C953 C189 1.551 . S
C945 C47 1.521 . S
C977 C8 1.548 . S
C985 C223 1.611 . S
