# Generated by pormake.
# Topology zzz, (3,6)-cn, num edge types: 1
# Building blocks:
#     Node 0, Type 0, BuildingBlock: PAMTOO_clean_linker_0, # of connection points: 3
#     Node 1, Type 0, BuildingBlock: PAMTOO_clean_linker_0, # of connection points: 3
#     Node 2, Type 0, BuildingBlock: PAMTOO_clean_linker_0, # of connection points: 3
#     Node 3, Type 0, BuildingBlock: PAMTOO_clean_linker_0, # of connection points: 3
#     Node 4, Type 0, BuildingBlock: PAMTOO_clean_linker_0, # of connection points: 3
#     Node 5, Type 0, BuildingBlock: PAMTOO_clean_linker_0, # of connection points: 3
#     Node 6, Type 0, BuildingBlock: PAMTOO_clean_linker_0, # of connection points: 3
#     Node 7, Type 0, BuildingBlock: PAMTOO_clean_linker_0, # of connection points: 3
#     Node 8, Type 1, BuildingBlock: JUFBIX_clean_sbu_0, # of connection points: 6
#     Node 9, Type 1, BuildingBlock: JUFBIX_clean_sbu_0, # of connection points: 6
#     Node 10, Type 1, BuildingBlock: JUFBIX_clean_sbu_0, # of connection points: 6
#     Node 11, Type 1, BuildingBlock: JUFBIX_clean_sbu_0, # of connection points: 6
#     Edge 12, Type (0, 1), BuildingBlock: UVAHIK_clean_linker_0, # of connection points: 2
#     Edge 13, Type (0, 1), BuildingBlock: UVAHIK_clean_linker_0, # of connection points: 2
#     Edge 14, Type (0, 1), BuildingBlock: UVAHIK_clean_linker_0, # of connection points: 2
#     Edge 15, Type (0, 1), BuildingBlock: UVAHIK_clean_linker_0, # of connection points: 2
#     Edge 16, Type (0, 1), BuildingBlock: UVAHIK_clean_linker_0, # of connection points: 2
#     Edge 17, Type (0, 1), BuildingBlock: UVAHIK_clean_linker_0, # of connection points: 2
#     Edge 18, Type (0, 1), BuildingBlock: UVAHIK_clean_linker_0, # of connection points: 2
#     Edge 19, Type (0, 1), BuildingBlock: UVAHIK_clean_linker_0, # of connection points: 2
#     Edge 20, Type (0, 1), BuildingBlock: UVAHIK_clean_linker_0, # of connection points: 2
#     Edge 21, Type (0, 1), BuildingBlock: UVAHIK_clean_linker_0, # of connection points: 2
#     Edge 22, Type (0, 1), BuildingBlock: UVAHIK_clean_linker_0, # of connection points: 2
#     Edge 23, Type (0, 1), BuildingBlock: UVAHIK_clean_linker_0, # of connection points: 2
#     Edge 24, Type (0, 1), BuildingBlock: UVAHIK_clean_linker_0, # of connection points: 2
#     Edge 25, Type (0, 1), BuildingBlock: UVAHIK_clean_linker_0, # of connection points: 2
#     Edge 26, Type (0, 1), BuildingBlock: UVAHIK_clean_linker_0, # of connection points: 2
#     Edge 27, Type (0, 1), BuildingBlock: UVAHIK_clean_linker_0, # of connection points: 2
#     Edge 28, Type (0, 1), BuildingBlock: UVAHIK_clean_linker_0, # of connection points: 2
#     Edge 29, Type (0, 1), BuildingBlock: UVAHIK_clean_linker_0, # of connection points: 2
#     Edge 30, Type (0, 1), BuildingBlock: UVAHIK_clean_linker_0, # of connection points: 2
#     Edge 31, Type (0, 1), BuildingBlock: UVAHIK_clean_linker_0, # of connection points: 2
#     Edge 32, Type (0, 1), BuildingBlock: UVAHIK_clean_linker_0, # of connection points: 2
#     Edge 33, Type (0, 1), BuildingBlock: UVAHIK_clean_linker_0, # of connection points: 2
#     Edge 34, Type (0, 1), BuildingBlock: UVAHIK_clean_linker_0, # of connection points: 2
#     Edge 35, Type (0, 1), BuildingBlock: UVAHIK_clean_linker_0, # of connection points: 2
# Relax obj value: 0.127
# Max RMSD: 0.180
# Mean RMSD: 0.085
data_MOF--net-zzz--node1-JUFBIX_clean_sbu_0--node2-PAMTOO_clean_linker_0--edge1-UVAHIK_clean_linker_0
_symmetry_space_group_name_H-M    P1
_symmetry_Int_Tables_number       1
_symmetry_cell_setting            triclinic
loop_
_symmetry_equiv_pos_as_xyz
'x, y, z'
_cell_length_a     66.431651
_cell_length_b     66.068949
_cell_length_c     22.340093
_cell_angle_alpha  83.245685
_cell_angle_beta   89.782293
_cell_angle_gamma 91.313746
loop_
_atom_site_label
_atom_site_type_symbol
_atom_site_fract_x
_atom_site_fract_y
_atom_site_fract_z
_atom_type_partial_charge
H0 H 0.83284 0.51766 0.27675 0.0
H1 H 0.77895 0.50975 0.17534 0.0
H2 H 0.77537 0.51154 0.36724 0.0
H3 H 0.73858 0.48557 0.31329 0.0
C4 C 0.74409 0.49077 0.26686 0.0
O5 O 0.75443 0.50915 0.26764 0.0
H6 H 0.75412 0.47889 0.2527 0.0
C7 C 0.81656 0.51601 0.27492 0.0
C8 C 0.80529 0.51511 0.32822 0.0
C9 C 0.80727 0.51383 0.21986 0.0
C10 C 0.7863 0.51128 0.21783 0.0
C11 C 0.77474 0.51069 0.27077 0.0
C12 C 0.78427 0.51226 0.32629 0.0
H13 H 0.00439 0.81041 0.25802 0.0
H14 H 0.99651 0.75626 0.17091 0.0
H15 H 0.98395 0.75436 0.36075 0.0
H16 H 0.9963 0.70901 0.32426 0.0
C17 C 0.99951 0.71771 0.27946 0.0
O18 O 0.9854 0.73274 0.26854 0.0
H19 H 0.01503 0.72436 0.2818 0.0
C20 C 1.00065 0.79425 0.26095 0.0
C21 C 0.99427 0.78366 0.31609 0.0
C22 C 1.00141 0.78452 0.20873 0.0
C23 C 0.99608 0.76383 0.21135 0.0
C24 C 0.99015 0.75285 0.26635 0.0
C25 C 0.9889 0.76283 0.31859 0.0
H26 H 0.69924 0.01094 0.18073 0.0
H27 H 0.75204 0.00364 0.07478 0.0
H28 H 0.75499 0.99395 0.26867 0.0
H29 H 0.79387 0.01283 0.21325 0.0
C30 C 0.79029 0.01039 0.16601 0.0
O31 O 0.77583 0.99494 0.16712 0.0
H32 H 0.78449 0.02493 0.14286 0.0
C33 C 0.71515 0.0077 0.17851 0.0
C34 C 0.72588 1.00256 0.23185 0.0
C35 C 0.72438 0.00804 0.12208 0.0
C36 C 0.74476 0.00336 0.11838 0.0
C37 C 0.75591 0.9986 0.17123 0.0
C38 C 0.74638 0.99784 0.22801 0.0
H39 H 0.53489 0.68043 0.22075 0.0
H40 H 0.52664 0.73428 0.09602 0.0
H41 H 0.5265 0.73816 0.28721 0.0
H42 H 0.49905 0.76925 0.21568 0.0
C43 C 0.50593 0.76793 0.1709 0.0
O44 O 0.52448 0.75906 0.17916 0.0
H45 H 0.49562 0.75831 0.14628 0.0
C46 C 0.53291 0.69678 0.21214 0.0
C47 C 0.53113 0.70815 0.26079 0.0
C48 C 0.5311 0.70596 0.15276 0.0
C49 C 0.528 0.72698 0.14182 0.0
C50 C 0.52663 0.73866 0.19025 0.0
C51 C 0.5279 0.72919 0.24989 0.0
H52 H 0.1823 0.4976 0.27165 0.0
H53 H 0.23594 0.50751 0.37228 0.0
H54 H 0.2399 0.50271 0.18193 0.0
H55 H 0.27843 0.4863 0.24783 0.0
C56 C 0.27296 0.49044 0.29178 0.0
O57 O 0.26065 0.50705 0.28071 0.0
H58 H 0.26449 0.47696 0.31484 0.0
C59 C 0.19856 0.49951 0.27346 0.0
C60 C 0.20992 0.49979 0.22057 0.0
C61 C 0.20776 0.50239 0.32816 0.0
C62 C 0.22869 0.50532 0.33012 0.0
C63 C 0.24036 0.50501 0.27772 0.0
C64 C 0.23093 0.50256 0.22258 0.0
H65 H 0.01246 0.19561 0.30535 0.0
H66 H 0.01778 0.25094 0.38794 0.0
H67 H 0.02556 0.25253 0.19582 0.0
H68 H 0.99451 0.28025 0.28835 0.0
C69 C 0.00944 0.2883 0.28224 0.0
O70 O 0.02498 0.27461 0.28732 0.0
H71 H 0.0099 0.29662 0.23602 0.0
C72 C 0.01492 0.21202 0.30101 0.0
C73 C 0.01882 0.22277 0.24415 0.0
C74 C 0.01461 0.22203 0.35269 0.0
C75 C 0.01803 0.24312 0.34795 0.0
C76 C 0.02181 0.25418 0.29135 0.0
C77 C 0.02246 0.24398 0.2394 0.0
H78 H 0.31577 0.98988 0.34495 0.0
H79 H 0.26494 0.99137 0.46403 0.0
H80 H 0.25931 0.0125 0.27509 0.0
H81 H 0.23067 0.03456 0.35315 0.0
C82 C 0.23332 0.02412 0.395 0.0
O83 O 0.24009 0.00578 0.37968 0.0
H84 H 0.24489 0.03156 0.42168 0.0
C85 C 0.3 0.99294 0.35195 0.0
C86 C 0.28859 1.0013 0.30298 0.0
C87 C 0.29176 0.98939 0.41016 0.0
C88 C 0.27158 0.9941 0.41934 0.0
C89 C 0.25981 1.00224 0.37062 0.0
C90 C 0.26839 0.00609 0.3125 0.0
H91 H 0.4782 0.32616 0.33422 0.0
H92 H 0.48635 0.27106 0.45374 0.0
H93 H 0.48552 0.26927 0.26173 0.0
H94 H 0.51702 0.24772 0.3984 0.0
C95 C 0.50639 0.23831 0.37414 0.0
O96 O 0.48784 0.24729 0.36795 0.0
H97 H 0.51281 0.23724 0.32861 0.0
C98 C 0.47984 0.30975 0.34118 0.0
C99 C 0.48124 0.29894 0.29113 0.0
C100 C 0.48192 0.29995 0.39981 0.0
C101 C 0.48477 0.27885 0.40859 0.0
C102 C 0.48574 0.26773 0.35887 0.0
C103 C 0.48432 0.27783 0.30004 0.0
Co104 Co 0.01699 0.00953 0.81635 0.0
C105 C 0.97599 1.00015 0.83325 0.0
Co106 Co 1.00288 0.99584 0.74025 0.0
C107 C 0.02171 0.04074 0.89493 0.0
C108 C 0.04508 0.01899 0.9088 0.0
N109 N 0.02804 0.02302 0.87751 0.0
N110 N 0.03427 0.04818 0.93487 0.0
C111 C 0.04892 0.03439 0.94422 0.0
H112 H 0.00833 0.0483 0.87745 0.0
H113 H 0.05456 0.00615 0.9042 0.0
C114 C 0.04389 0.00524 0.72336 0.0
N115 N 0.99213 0.98253 0.67774 0.0
C116 C 0.9869 0.96255 0.67911 0.0
C117 C 0.99111 0.99 0.61903 0.0
N118 N 0.98306 0.95716 0.62364 0.0
C119 C 0.98551 0.97453 0.58584 0.0
C120 C 1.00084 0.03735 0.72525 0.0
O121 O 0.04245 0.01107 0.77551 0.0
O122 O 0.02826 0.9982 0.69948 0.0
O123 O 0.99562 0.02173 0.70034 0.0
O124 O 0.01031 0.03501 0.77465 0.0
O125 O 0.9775 0.99363 0.78195 0.0
H126 H 0.99537 0.0054 0.60086 0.0
H127 H 0.98668 0.95194 0.71984 0.0
O128 O 0.99151 0.00781 0.85616 0.0
O129 O 0.02353 0.98378 0.8577 0.0
O130 O 0.01044 0.97036 0.78107 0.0
C131 C 0.01913 0.96813 0.83185 0.0
H132 H 0.062 0.0358 0.97231 0.0
H133 H 0.98469 0.97576 0.53718 0.0
Co134 Co 0.4997 0.00785 0.80943 0.0
C135 C 0.51096 0.96682 0.82432 0.0
Co136 Co 0.51438 0.99728 0.72961 0.0
C137 C 0.46692 0.02046 0.88176 0.0
C138 C 0.49312 0.01299 0.93435 0.0
N139 N 0.48633 0.01501 0.87724 0.0
N140 N 0.4612 0.02158 0.93945 0.0
C141 C 0.47779 0.01703 0.97253 0.0
H142 H 0.45697 0.0229 0.84354 0.0
H143 H 0.50794 0.00781 0.94784 0.0
C144 C 0.50311 0.03834 0.71481 0.0
N145 N 0.52766 0.99034 0.66123 0.0
C146 C 0.54742 0.98647 0.65428 0.0
C147 C 0.52025 0.99237 0.60473 0.0
N148 N 0.55265 0.98653 0.59577 0.0
C149 C 0.53555 0.99013 0.56454 0.0
C150 C 0.47323 0.99179 0.72891 0.0
O151 O 0.49704 0.03471 0.76922 0.0
O152 O 0.51087 0.02406 0.68955 0.0
O153 O 0.48915 0.98876 0.69985 0.0
O154 O 0.47465 1.00001 0.77733 0.0
O155 O 0.51772 0.97059 0.77062 0.0
H156 H 0.50504 0.99671 0.593 0.0
H157 H 0.55815 0.9853 0.69079 0.0
O158 O 0.50254 0.98093 0.84876 0.0
O159 O 0.52511 0.01554 0.84066 0.0
O160 O 0.53926 0.00584 0.76032 0.0
C161 C 0.54089 0.01324 0.81002 0.0
H162 H 0.47855 0.0155 0.02122 0.0
H163 H 0.53442 0.99209 0.51587 0.0
Co164 Co 0.52534 0.50141 0.77759 0.0
C165 C 0.50349 0.47405 0.85835 0.0
Co166 Co 0.49232 0.50434 0.76875 0.0
C167 C 0.56345 0.49917 0.83942 0.0
C168 C 0.56702 0.49761 0.74484 0.0
N169 N 0.55299 0.49932 0.78758 0.0
N170 N 0.58345 0.49739 0.83085 0.0
C171 C 0.58573 0.49636 0.77128 0.0
H172 H 0.55644 0.50009 0.8828 0.0
H173 H 0.56385 0.49736 0.69747 0.0
C174 C 0.51425 0.53171 0.68803 0.0
N175 N 0.46466 0.50634 0.7587 0.0
C176 C 0.45434 0.50682 0.70656 0.0
C177 C 0.45046 0.50683 0.80165 0.0
N178 N 0.43421 0.50749 0.71508 0.0
C179 C 0.43177 0.50754 0.77507 0.0
C180 C 0.50879 0.52975 0.84552 0.0
O181 O 0.52933 0.52277 0.71311 0.0
O182 O 0.49659 0.52558 0.70465 0.0
O183 O 0.49219 0.5243 0.82346 0.0
O184 O 0.52489 0.52123 0.83217 0.0
O185 O 0.48836 0.48294 0.83345 0.0
H186 H 0.45349 0.50634 0.84934 0.0
H187 H 0.46158 0.50664 0.66316 0.0
O188 O 0.52111 0.48021 0.8415 0.0
O189 O 0.52544 0.48143 0.72296 0.0
O190 O 0.49275 0.48446 0.71424 0.0
C191 C 0.50884 0.47589 0.70112 0.0
H192 H 0.59993 0.49514 0.74819 0.0
H193 H 0.41749 0.50753 0.79855 0.0
Co194 Co 0.00787 0.52145 0.77844 0.0
C195 C 0.03607 0.50037 0.85254 0.0
Co196 Co 0.00703 0.48808 0.77505 0.0
C197 C 0.00712 0.55784 0.83782 0.0
C198 C 0.0088 0.565 0.74199 0.0
N199 N 0.00807 0.54919 0.78601 0.0
N200 N 0.0072 0.57842 0.82807 0.0
C201 C 0.00833 0.58297 0.76767 0.0
H202 H 0.00654 0.54914 0.88199 0.0
H203 H 0.00945 0.56354 0.6943 0.0
C204 C 0.97882 0.50907 0.70097 0.0
N205 N 0.0068 0.46034 0.76758 0.0
C206 C 0.0077 0.45161 0.71589 0.0
C207 C 0.0058 0.44458 0.81173 0.0
N208 N 0.0073 0.43103 0.72587 0.0
C209 C 0.00604 0.42656 0.78627 0.0
C210 C 0.98084 0.49954 0.85919 0.0
O211 O 0.98655 0.52477 0.7208 0.0
O212 O 0.98604 0.49169 0.71789 0.0
O213 O 0.98719 0.48395 0.83724 0.0
O214 O 0.98836 0.51699 0.84055 0.0
O215 O 0.02819 0.48473 0.83278 0.0
H216 H 0.00505 0.4461 0.85937 0.0
H217 H 0.00841 0.46025 0.67162 0.0
O218 O 0.02901 0.51782 0.83552 0.0
O219 O 0.02755 0.52562 0.71614 0.0
O220 O 0.0267 0.49256 0.71307 0.0
C221 C 0.03408 0.51008 0.69437 0.0
H222 H 0.00838 0.59818 0.7436 0.0
H223 H 0.00568 0.41137 0.81046 0.0
C224 C 0.19612 0.01509 0.40215 0.0
C225 C 0.21386 0.02075 0.43045 0.0
C226 C 0.17789 0.01267 0.43422 0.0
C227 C 0.15646 0.00565 0.59013 0.0
H228 H 0.10775 0.02488 0.50944 0.0
C229 C 0.0812 0.01292 0.71798 0.0
C230 C 0.06347 0.00666 0.69049 0.0
C231 C 0.09961 0.01422 0.68674 0.0
C232 C 0.12117 0.01924 0.53251 0.0
H233 H 0.22661 0.02784 0.51477 0.0
H234 H 0.19481 0.024 0.57062 0.0
H235 H 0.1396 0.02762 0.45438 0.0
H236 H 0.05128 0.99682 0.6084 0.0
H237 H 0.08331 0.99908 0.55413 0.0
H238 H 0.13797 0.9975 0.6685 0.0
C239 C 0.1949 0.02118 0.52385 0.0
C240 C 0.13947 0.02076 0.50086 0.0
C241 C 0.21313 0.02353 0.49179 0.0
C242 C 0.06461 1.00174 0.631 0.0
C243 C 0.08298 1.00314 0.5997 0.0
C244 C 0.13815 0.00422 0.62187 0.0
C245 C 0.17697 0.01586 0.49543 0.0
C246 C 0.1574 0.01398 0.52916 0.0
C247 C 0.10072 0.0094 0.62711 0.0
C248 C 0.12026 0.01097 0.59346 0.0
H249 H 0.19635 0.01271 0.355 0.0
H250 H 0.16452 0.00819 0.41101 0.0
H251 H 0.16985 0.99997 0.61328 0.0
H252 H 0.08088 0.01684 0.76371 0.0
H253 H 0.11293 0.0193 0.70902 0.0
C254 C 0.4983 0.21571 0.47072 0.0
C255 C 0.50413 0.21754 0.40982 0.0
C256 C 0.49665 0.19652 0.5046 0.0
C257 C 0.4921 0.14115 0.48916 0.0
H258 H 0.51181 0.13466 0.65331 0.0
C259 C 0.50692 0.06231 0.61963 0.0
C260 C 0.50149 0.05895 0.68097 0.0
C261 C 0.50587 0.08173 0.58759 0.0
C262 C 0.506 0.13626 0.60781 0.0
H263 H 0.51261 0.20082 0.33627 0.0
H264 H 0.51008 0.16733 0.39537 0.0
H265 H 0.51255 0.16836 0.59539 0.0
H266 H 0.49053 0.07345 0.75658 0.0
H267 H 0.48871 0.10745 0.70046 0.0
H268 H 0.48587 0.10898 0.50132 0.0
C269 C 0.50647 0.18064 0.417 0.0
C270 C 0.5064 0.15559 0.57455 0.0
C271 C 0.50807 0.19982 0.38316 0.0
C272 C 0.49485 0.07551 0.70941 0.0
C273 C 0.49391 0.09501 0.67735 0.0
C274 C 0.49177 0.12182 0.52232 0.0
C275 C 0.50081 0.17872 0.47826 0.0
C276 C 0.49962 0.15827 0.51458 0.0
C277 C 0.49943 0.09835 0.61605 0.0
C278 C 0.49887 0.1191 0.58188 0.0
H279 H 0.49511 0.22919 0.4921 0.0
H280 H 0.49198 0.19564 0.55135 0.0
H281 H 0.48638 0.14267 0.44356 0.0
H282 H 0.51212 0.04993 0.59624 0.0
H283 H 0.51049 0.0838 0.54067 0.0
C284 C 0.2869 0.50243 0.38724 0.0
C285 C 0.29038 0.49517 0.33157 0.0
C286 C 0.30287 0.50512 0.42652 0.0
C287 C 0.35389 0.4868 0.4635 0.0
H288 H 0.35771 0.53353 0.55312 0.0
C289 C 0.4223 0.50005 0.61451 0.0
C290 C 0.41857 0.50736 0.67011 0.0
C291 C 0.40703 0.49945 0.5717 0.0
C292 C 0.35676 0.52026 0.52898 0.0
H293 H 0.31323 0.48482 0.27361 0.0
H294 H 0.34115 0.48962 0.34187 0.0
H295 H 0.33042 0.53105 0.48131 0.0
H296 H 0.39572 0.52017 0.7232 0.0
H297 H 0.36906 0.5186 0.64952 0.0
H298 H 0.37998 0.47581 0.51163 0.0
C299 C 0.32609 0.49325 0.35527 0.0
C300 C 0.34112 0.51886 0.4877 0.0
C301 C 0.31014 0.49066 0.31594 0.0
C302 C 0.39917 0.51422 0.68136 0.0
C303 C 0.38389 0.51356 0.63861 0.0
C304 C 0.36947 0.48814 0.50493 0.0
C305 C 0.32264 0.50034 0.41131 0.0
C306 C 0.33948 0.5021 0.45447 0.0
C307 C 0.38757 0.50608 0.58328 0.0
C308 C 0.37112 0.50488 0.53834 0.0
H309 H 0.27177 0.50565 0.40088 0.0
H310 H 0.29963 0.51034 0.46963 0.0
H311 H 0.3529 0.4735 0.43945 0.0
H312 H 0.43693 0.49444 0.60419 0.0
H313 H 0.41054 0.49384 0.52933 0.0
C314 C 0.99873 0.32054 0.32154 0.0
C315 C 0.01105 0.30345 0.32804 0.0
C316 C 0.99902 0.33443 0.36423 0.0
C317 C 0.01338 0.33947 0.52258 0.0
H318 H 0.00735 0.3971 0.4711 0.0
C319 C 0.99923 0.39727 0.69286 0.0
C320 C 0.0082 0.41683 0.68143 0.0
C321 C 1.00006 0.38352 0.64981 0.0
C322 C 0.00926 0.3811 0.48638 0.0
H323 H 0.03318 0.28735 0.38575 0.0
H324 H 0.03407 0.31179 0.45933 0.0
H325 H 0.00868 0.37327 0.39615 0.0
H326 H 0.02546 0.43708 0.61603 0.0
H327 H 0.02717 0.41309 0.54133 0.0
H328 H 0.01451 0.34737 0.61272 0.0
C329 C 0.02399 0.31441 0.42138 0.0
C330 C 0.00975 0.36735 0.44329 0.0
C331 C 0.02362 0.30045 0.37876 0.0
C332 C 0.01811 0.42227 0.62594 0.0
C333 C 0.01906 0.40848 0.58303 0.0
C334 C 0.01299 0.35324 0.56566 0.0
C335 C 0.01165 0.33158 0.41481 0.0
C336 C 0.0117 0.34631 0.46076 0.0
C337 C 0.01001 0.38891 0.59427 0.0
C338 C 0.01082 0.37425 0.54822 0.0
H339 H 0.98865 0.32303 0.28349 0.0
H340 H 0.989 0.3472 0.35811 0.0
H341 H 0.01468 0.32339 0.53795 0.0
H342 H 0.99124 0.39268 0.73473 0.0
H343 H 0.99259 0.36877 0.65979 0.0
C344 C 0.82811 0.00782 0.15791 0.0
C345 C 0.80901 0.00526 0.13271 0.0
C346 C 0.8456 0.00511 0.125 0.0
C347 C 0.86424 0.00519 0.96801 0.0
H348 H 0.91185 0.98281 0.04819 0.0
C349 C 0.93856 0.99279 0.83946 0.0
C350 C 0.95644 0.99897 0.86634 0.0
C351 C 0.92017 0.99207 0.87085 0.0
C352 C 0.89872 0.98921 0.02515 0.0
H353 H 0.79325 0.99808 0.05303 0.0
H354 H 0.82382 0.99282 0.9957 0.0
H355 H 0.88053 0.98365 0.10491 0.0
H356 H 0.96894 0.00912 0.94765 0.0
H357 H 0.93704 0.0078 0.0021 0.0
H358 H 0.88255 0.01075 0.88822 0.0
C359 C 0.82532 0.99706 0.04086 0.0
C360 C 0.88074 0.98973 0.05773 0.0
C361 C 0.80779 0.99984 0.07384 0.0
C362 C 0.9555 0.00425 0.92547 0.0
C363 C 0.9372 0.00338 0.95693 0.0
C364 C 0.88223 0.00456 0.93532 0.0
C365 C 0.8445 0.99984 0.0658 0.0
C366 C 0.86329 0.998 0.02989 0.0
C367 C 0.91928 0.99733 0.93006 0.0
C368 C 0.89977 0.99683 0.9637 0.0
H369 H 0.82952 0.01239 0.20274 0.0
H370 H 0.86003 0.0078 0.14544 0.0
H371 H 0.85125 0.01193 0.94509 0.0
H372 H 0.93872 0.98862 0.79401 0.0
H373 H 0.90668 0.9872 0.84898 0.0
C374 C 0.50432 0.80644 0.15992 0.0
C375 C 0.5084 0.78854 0.13438 0.0
C376 C 0.50619 0.82547 0.12535 0.0
C377 C 0.50744 0.8498 0.96701 0.0
H378 H 0.52748 0.89673 0.03967 0.0
C379 C 0.51952 0.92968 0.83071 0.0
C380 C 0.51254 0.94625 0.85846 0.0
C381 C 0.52041 0.91023 0.86317 0.0
C382 C 0.52173 0.8838 0.0188 0.0
H383 H 0.51796 0.7764 0.0534 0.0
H384 H 0.52157 0.80969 0.99289 0.0
H385 H 0.52659 0.86324 0.09852 0.0
H386 H 0.50124 0.95536 0.94235 0.0
H387 H 0.50279 0.9216 0.99855 0.0
H388 H 0.50255 0.87047 0.88729 0.0
C389 C 0.51658 0.80907 0.03928 0.0
C390 C 0.52118 0.86459 0.0526 0.0
C391 C 0.51465 0.79002 0.07389 0.0
C392 C 0.50671 0.94297 0.91948 0.0
C393 C 0.50772 0.92361 0.95191 0.0
C394 C 0.50807 0.86903 0.93311 0.0
C395 C 0.51228 0.82705 0.06449 0.0
C396 C 0.5138 0.84736 0.02742 0.0
C397 C 0.5145 0.90698 0.92418 0.0
C398 C 0.515 0.88631 0.95884 0.0
H399 H 0.49947 0.8057 0.20648 0.0
H400 H 0.50248 0.83893 0.1461 0.0
H401 H 0.50142 0.83695 0.94632 0.0
H402 H 0.52414 0.93169 0.7838 0.0
H403 H 0.52587 0.89777 0.84063 0.0
C404 C 0.70895 0.48121 0.23551 0.0
C405 C 0.72666 0.49303 0.22337 0.0
C406 C 0.69321 0.48214 0.19386 0.0
C407 C 0.68257 0.49693 0.03154 0.0
H408 H 0.62699 0.49354 0.08597 0.0
C409 C 0.59688 0.50678 0.9275 0.0
C410 C 0.59913 0.49685 0.87563 0.0
C411 C 0.61225 0.50655 0.97028 0.0
C412 C 0.64241 0.4947 0.06984 0.0
H413 H 0.74202 0.51457 0.15688 0.0
H414 H 0.71442 0.51669 0.085 0.0
H415 H 0.65397 0.49351 0.15948 0.0
H416 H 0.61915 0.47843 0.82903 0.0
H417 H 0.64578 0.47774 0.90376 0.0
H418 H 0.67105 0.4987 0.94187 0.0
C419 C 0.71265 0.50659 0.1266 0.0
C420 C 0.65793 0.49441 0.11217 0.0
C421 C 0.72842 0.50556 0.16813 0.0
C422 C 0.61705 0.48652 0.86792 0.0
C423 C 0.63236 0.48617 0.91082 0.0
C424 C 0.66706 0.49731 0.98924 0.0
C425 C 0.69484 0.49483 0.13873 0.0
C426 C 0.67824 0.49546 0.09363 0.0
C427 C 0.63024 0.49627 0.96249 0.0
C428 C 0.64676 0.49612 0.00776 0.0
H429 H 0.70738 0.47104 0.27706 0.0
H430 H 0.67994 0.47254 0.20436 0.0
H431 H 0.69799 0.4975 0.01543 0.0
H432 H 0.58339 0.51511 0.93445 0.0
H433 H 0.61017 0.51477 0.00893 0.0
C434 C 0.00877 0.70938 0.17538 0.0
C435 C 0.99884 0.70374 0.23063 0.0
C436 C 0.00883 0.69613 0.13084 0.0
C437 C 1.00289 0.64156 0.11151 0.0
H438 H 0.99679 0.66148 0.94245 0.0
C439 C 0.99631 0.58668 0.92849 0.0
C440 C 0.00592 0.59252 0.87271 0.0
C441 C 0.99496 0.60037 0.97158 0.0
C442 C 0.99878 0.65567 0.98937 0.0
H443 H 0.9805 0.68027 0.28184 0.0
H444 H 0.98059 0.65704 0.20417 0.0
H445 H 0.99508 0.68522 0.018 0.0
H446 H 0.02189 0.61733 0.81911 0.0
H447 H 0.01978 0.6411 0.89434 0.0
H448 H 0.00685 0.61209 0.08309 0.0
C449 C 0.98863 0.67155 0.19553 0.0
C450 C 0.99774 0.6693 0.03273 0.0
C451 C 0.98848 0.68486 0.23989 0.0
C452 C 0.01416 0.61241 0.8612 0.0
C453 C 0.0129 0.62607 0.9044 0.0
C454 C 1.00401 0.62795 0.06817 0.0
C455 C 0.99896 0.67693 0.14063 0.0
C456 C 0.99978 0.66242 0.09436 0.0
C457 C 1.00327 0.62025 0.96023 0.0
C458 C 1.00198 0.6348 0.00646 0.0
H459 H 0.01681 0.72389 0.16715 0.0
H460 H 0.01705 0.70071 0.08931 0.0
H461 H 0.00485 0.63579 0.15848 0.0
H462 H 0.98949 0.57163 0.93853 0.0
H463 H 0.98712 0.59542 0.01352 0.0
C464 C 0.02717 0.19869 0.43834 0.0
C465 C 0.01122 0.20974 0.41112 0.0
C466 C 0.02338 0.18297 0.48463 0.0
C467 C 0.01228 0.15283 0.59277 0.0
H468 H 0.96921 0.11619 0.55285 0.0
C469 C 0.99962 0.07476 0.73052 0.0
C470 C 0.99693 0.0582 0.69691 0.0
C471 C 0.99806 0.09472 0.70313 0.0
C472 C 0.98128 0.12626 0.56462 0.0
H473 H 0.97906 0.21396 0.41162 0.0
H474 H 0.97232 0.18661 0.49383 0.0
H475 H 0.97338 0.14966 0.49486 0.0
H476 H 0.98966 0.04955 0.6088 0.0
H477 H 0.98735 0.08454 0.56032 0.0
H478 H 0.02092 0.12905 0.66019 0.0
C479 C 0.98773 0.18997 0.47928 0.0
C480 C 0.9835 0.14557 0.53198 0.0
C481 C 0.99156 0.20573 0.43291 0.0
C482 C 0.99179 0.06201 0.63581 0.0
C483 C 0.99037 0.08206 0.60819 0.0
C484 C 0.01009 0.13353 0.6253 0.0
C485 C 1.00353 0.17795 0.50413 0.0
C486 C 0.99932 0.15889 0.5448 0.0
C487 C 0.99394 0.09864 0.64132 0.0
C488 C 0.99483 0.11986 0.61076 0.0
H489 H 0.04239 0.20136 0.42112 0.0
H490 H 0.03587 0.17386 0.50212 0.0
H491 H 0.0245 0.1628 0.60408 0.0
H492 H 1.00333 0.07233 0.77795 0.0
H493 H 1.00048 0.10711 0.73021 0.0
C494 C 0.31814 0.9659 0.45406 0.0
C495 C 0.3051 0.98194 0.46061 0.0
C496 C 0.3343 0.96216 0.49312 0.0
C497 C 0.35823 0.97387 0.63431 0.0
H498 H 0.40727 0.97611 0.53876 0.0
C499 C 0.43577 0.9946 0.72894 0.0
C500 C 0.45318 0.98651 0.70598 0.0
C501 C 0.41687 0.99069 0.70504 0.0
C502 C 0.39382 0.97497 0.56658 0.0
H503 H 0.29755 0.00541 0.51633 0.0
H504 H 0.32586 0.99877 0.58527 0.0
H505 H 0.37493 0.97403 0.48977 0.0
H506 H 0.46435 0.96717 0.64193 0.0
H507 H 0.43133 0.95969 0.60162 0.0
H508 H 0.37717 0.97484 0.71127 0.0
C509 C 0.32356 0.98912 0.5498 0.0
C510 C 0.37522 0.97384 0.53833 0.0
C511 C 0.30735 0.9929 0.51047 0.0
C512 C 0.45123 0.97382 0.66006 0.0
C513 C 0.43228 0.96964 0.63677 0.0
C514 C 0.37691 0.97472 0.66287 0.0
C515 C 0.33771 0.97435 0.53965 0.0
C516 C 0.35723 0.97354 0.57168 0.0
C517 C 0.41487 0.97834 0.65812 0.0
C518 C 0.39496 0.97561 0.62918 0.0
H519 H 0.31655 0.95705 0.4164 0.0
H520 H 0.34477 0.95043 0.48497 0.0
H521 H 0.34457 0.97357 0.66109 0.0
H522 H 0.43676 0.00449 0.76426 0.0
H523 H 0.40394 0.99794 0.7221 0.0
C524 C 0.50023 0.31305 0.48522 0.0
C525 C 0.48278 0.31255 0.45017 0.0
C526 C 0.50325 0.32852 0.52217 0.0
C527 C 0.47833 0.37018 0.5895 0.0
H528 H 0.52932 0.39929 0.55727 0.0
C529 C 0.48942 0.45258 0.64123 0.0
C530 C 0.50766 0.45788 0.66767 0.0
C531 C 0.48716 0.43398 0.61789 0.0
C532 C 0.51513 0.39121 0.56751 0.0
H533 H 0.45417 0.32667 0.42934 0.0
H534 H 0.45924 0.35348 0.49441 0.0
H535 H 0.52343 0.36668 0.51853 0.0
H536 H 0.53809 0.44819 0.68823 0.0
H537 H 0.53408 0.41562 0.64776 0.0
H538 H 0.4699 0.39478 0.63784 0.0
C539 C 0.47063 0.34205 0.49348 0.0
C540 C 0.51178 0.37248 0.54551 0.0
C541 C 0.46772 0.32675 0.45618 0.0
C542 C 0.52388 0.44459 0.66783 0.0
C543 C 0.52158 0.42591 0.6447 0.0
C544 C 0.4817 0.38885 0.61171 0.0
C545 C 0.48876 0.34357 0.52506 0.0
C546 C 0.49321 0.36196 0.55535 0.0
C547 C 0.50303 0.42019 0.62073 0.0
C548 C 0.49999 0.39979 0.59995 0.0
H549 H 0.51212 0.30235 0.48083 0.0
H550 H 0.51727 0.32921 0.54657 0.0
H551 H 0.46395 0.3623 0.59834 0.0
H552 H 0.47666 0.46254 0.64005 0.0
H553 H 0.47284 0.43029 0.59831 0.0
C554 C 0.19391 0.52055 0.41068 0.0
C555 C 0.19493 0.50282 0.38198 0.0
C556 C 0.17873 0.52241 0.45317 0.0
C557 C 0.13976 0.49324 0.54864 0.0
H558 H 0.10797 0.54171 0.5138 0.0
C559 C 0.05813 0.49452 0.62816 0.0
C560 C 0.05181 0.51174 0.65381 0.0
C561 C 0.07656 0.49482 0.59803 0.0
C562 C 0.11683 0.52823 0.5247 0.0
H563 H 0.18196 0.47271 0.37721 0.0
H564 H 0.15568 0.47575 0.45181 0.0
H565 H 0.14014 0.53934 0.46203 0.0
H566 H 0.05943 0.54314 0.66545 0.0
H567 H 0.09175 0.54365 0.61255 0.0
H568 H 0.11633 0.48191 0.61028 0.0
C569 C 0.16648 0.48824 0.44185 0.0
C570 C 0.13529 0.5269 0.49527 0.0
C571 C 0.18145 0.48649 0.39907 0.0
C572 C 0.06386 0.52964 0.64597 0.0
C573 C 0.08238 0.52993 0.6158 0.0
C574 C 0.12136 0.49457 0.57805 0.0
C575 C 0.16455 0.50645 0.46798 0.0
C576 C 0.14669 0.50918 0.50591 0.0
C577 C 0.08915 0.51233 0.59296 0.0
C578 C 0.10945 0.51185 0.56526 0.0
H579 H 0.20408 0.53338 0.39767 0.0
H580 H 0.17767 0.53655 0.47301 0.0
H581 H 0.14837 0.47953 0.55837 0.0
H582 H 0.04913 0.48053 0.63295 0.0
H583 H 0.08111 0.48119 0.5795 0.0
C584 C 0.9914 0.806 0.11581 0.0
C585 C 0.00671 0.79679 0.15147 0.0
C586 C 0.99609 0.8216 0.06982 0.0
C587 C 0.03526 0.86141 0.03373 0.0
H588 H 1.00175 0.87507 0.89391 0.0
C589 C 0.02145 0.93067 0.82764 0.0
C590 C 0.02296 0.94737 0.86111 0.0
C591 C 0.02307 0.9108 0.85593 0.0
C592 C 0.01155 0.8714 0.93207 0.0
H593 H 0.03882 0.79554 0.16605 0.0
H594 H 0.04725 0.82231 0.08387 0.0
H595 H 0.99824 0.84155 0.95114 0.0
H596 H 0.02804 0.95641 0.95007 0.0
H597 H 0.03029 0.92172 0.99995 0.0
H598 H 0.04868 0.8912 0.01441 0.0
C599 C 0.03159 0.81787 0.09195 0.0
C600 C 0.00934 0.85222 0.96539 0.0
C601 C 0.02685 0.8024 0.13839 0.0
C602 C 0.02687 0.94384 0.92309 0.0
C603 C 0.02827 0.92393 0.95157 0.0
C604 C 0.03761 0.88052 1.00008 0.0
C605 C 0.0162 0.82821 0.05866 0.0
C606 C 0.02076 0.84719 0.01764 0.0
C607 C 0.02603 0.90714 0.9185 0.0
C608 C 0.02539 0.88597 0.94982 0.0
H609 H 0.97574 0.80207 0.12616 0.0
H610 H 0.9838 0.82934 0.04586 0.0
H611 H 0.0442 0.85821 0.07401 0.0
H612 H 0.01867 0.93292 0.77958 0.0
H613 H 0.02169 0.89829 0.82883 0.0
C614 C 0.70428 0.03222 0.05447 0.0
C615 C 0.71189 0.01262 0.06811 0.0
C616 C 0.68831 0.03556 0.01429 0.0
C617 C 0.64496 0.03408 0.97554 0.0
H618 H 0.63352 1.00221 0.84428 0.0
C619 C 0.56415 0.02017 0.89373 0.0
C620 C 0.56114 0.0179 0.83271 0.0
C621 C 0.58364 0.02239 0.91595 0.0
C622 C 0.63653 0.01152 0.88017 0.0
H623 H 0.70963 0.9813 0.04935 0.0
H624 H 0.68148 0.98688 0.97995 0.0
H625 H 0.66689 1.00146 0.88879 0.0
H626 H 0.57608 0.01726 0.74641 0.0
H627 H 0.60992 0.02175 0.78467 0.0
H628 H 0.61471 0.04434 0.96648 0.0
C629 C 0.68803 0.99988 0.99876 0.0
C630 C 0.65564 0.01087 0.90623 0.0
C631 C 0.70418 0.99662 0.03843 0.0
C632 C 0.57792 0.01876 0.79386 0.0
C633 C 0.59735 0.0212 0.81589 0.0
C634 C 0.62592 0.03487 0.94915 0.0
C635 C 0.6794 0.01924 0.98798 0.0
C636 C 0.65999 0.02183 0.95506 0.0
C637 C 0.60052 0.02262 0.87745 0.0
C638 C 0.62132 0.02327 0.90195 0.0
H639 H 0.70995 0.04471 0.0775 0.0
H640 H 0.68236 0.05075 0.00602 0.0
H641 H 0.64759 0.04253 0.01358 0.0
H642 H 0.55153 0.01945 0.92481 0.0
H643 H 0.58548 0.02317 0.96376 0.0
C644 C 0.51362 0.69036 0.07028 0.0
C645 C 0.53113 0.69277 0.10389 0.0
C646 C 0.51158 0.67397 0.03619 0.0
C647 C 0.5305 0.62206 0.03934 0.0
H648 H 0.50199 0.62147 0.88848 0.0
C649 C 0.52812 0.55218 0.90833 0.0
C650 C 0.50993 0.54728 0.88092 0.0
C651 C 0.53017 0.57008 0.93541 0.0
C652 C 0.50978 0.62139 0.93101 0.0
H653 H 0.56085 0.68131 0.12456 0.0
H654 H 0.55768 0.65316 0.06338 0.0
H655 H 0.50784 0.6538 0.92965 0.0
H656 H 0.47941 0.55704 0.86191 0.0
H657 H 0.48299 0.58835 0.90983 0.0
H658 H 0.53247 0.58975 0.04091 0.0
C659 C 0.54526 0.66345 0.06459 0.0
C660 C 0.51319 0.6399 0.95442 0.0
C661 C 0.5472 0.67967 0.09897 0.0
C662 C 0.4936 0.56036 0.88284 0.0
C663 C 0.49571 0.57838 0.90969 0.0
C664 C 0.52714 0.60364 0.01594 0.0
C665 C 0.52709 0.65984 0.03513 0.0
C666 C 0.52372 0.64045 0.00869 0.0
C667 C 0.5141 0.58354 0.93554 0.0
C668 C 0.51684 0.60309 0.96141 0.0
H669 H 0.50095 0.70018 0.0741 0.0
H670 H 0.49738 0.67161 0.01412 0.0
H671 H 0.53817 0.62183 0.08212 0.0
H672 H 0.541 0.54244 0.90754 0.0
H673 H 0.54458 0.5737 0.95452 0.0
C674 C 0.83447 0.5288 0.15047 0.0
C675 C 0.82005 0.51321 0.16599 0.0
C676 C 0.84941 0.52648 0.108 0.0
C677 C 0.87834 0.48639 0.0531 0.0
H678 H 0.90044 0.53101 0.94235 0.0
C679 C 0.95772 0.51527 0.92746 0.0
C680 C 0.96313 0.49816 0.89975 0.0
C681 C 0.93924 0.51564 0.95689 0.0
C682 C 0.89451 0.51844 0.97337 0.0
H683 H 0.80917 0.48345 0.14762 0.0
H684 H 0.83546 0.47931 0.07281 0.0
H685 H 0.86842 0.53496 0.99275 0.0
H686 H 0.95388 0.46755 0.88396 0.0
H687 H 0.92141 0.46819 0.93583 0.0
H688 H 0.90477 0.47007 0.03485 0.0
C689 C 0.8352 0.49329 0.09367 0.0
C690 C 0.87613 0.52067 0.00192 0.0
C691 C 0.82008 0.49573 0.13586 0.0
C692 C 0.95014 0.48093 0.90511 0.0
C693 C 0.93155 0.48132 0.93462 0.0
C694 C 0.89679 0.48415 0.0245 0.0
C695 C 0.85032 0.50843 0.08059 0.0
C696 C 0.86809 0.50487 0.04321 0.0
C697 C 0.92568 0.49893 0.9592 0.0
C698 C 0.90531 0.50037 0.98558 0.0
H699 H 0.83475 0.54238 0.17339 0.0
H700 H 0.86093 0.53834 0.09935 0.0
H701 H 0.87261 0.47402 0.08522 0.0
H702 H 0.96748 0.52873 0.92464 0.0
H703 H 0.93538 0.52922 0.97687 0.0
C704 C 1.00324 0.19786 0.18163 0.0
C705 C 0.01946 0.21104 0.19155 0.0
C706 C 0.00521 0.1831 0.14229 0.0
C707 C 0.01069 0.15585 0.04393 0.0
H708 H 0.06019 0.12591 0.06395 0.0
C709 C 0.0239 0.08421 0.92422 0.0
C710 C 0.03327 0.06771 0.95776 0.0
C711 C 0.02311 0.1032 0.94589 0.0
C712 C 0.04623 0.13404 0.05803 0.0
H713 H 0.0501 0.21992 0.16567 0.0
H714 H 0.05356 0.1942 0.09568 0.0
H715 H 0.05676 0.15729 0.11017 0.0
H716 H 0.04909 0.05832 0.0406 0.0
H717 H 0.04748 0.09133 0.07899 0.0
H718 H 0.99979 0.13214 0.99422 0.0
C719 C 0.03936 0.19515 0.11898 0.0
C720 C 0.04438 0.15224 0.08376 0.0
C721 C 0.03731 0.21006 0.15833 0.0
C722 C 0.04193 0.07073 0.01342 0.0
C723 C 0.04106 0.08972 0.03526 0.0
C724 C 0.01252 0.13764 0.01831 0.0
C725 C 0.02352 0.18107 0.11197 0.0
C726 C 0.02644 0.1632 0.07798 0.0
C727 C 0.03161 0.10621 0.00183 0.0
C728 C 0.03019 0.1263 0.02585 0.0
H729 H 0.98935 0.19826 0.20701 0.0
H730 H 0.99276 0.17246 0.13865 0.0
H731 H 0.99673 0.16399 0.03798 0.0
H732 H 0.01746 0.0826 0.88059 0.0
H733 H 0.01602 0.1156 0.91836 0.0
C734 C 0.30146 0.02537 0.21523 0.0
C735 C 0.29872 0.00535 0.24336 0.0
C736 C 0.31553 0.02972 0.16818 0.0
C737 C 0.34963 0.00547 0.06434 0.0
H738 H 0.38564 0.05085 0.08753 0.0
C739 C 0.42399 0.01949 0.92875 0.0
C740 C 0.44108 0.02411 0.96218 0.0
C741 C 0.40461 0.02012 0.9533 0.0
C742 C 0.37576 0.03809 0.0804 0.0
H743 H 0.30735 0.97403 0.24193 0.0
H744 H 0.3317 0.98144 0.16036 0.0
H745 H 0.35439 0.04594 0.14525 0.0
H746 H 0.45087 0.03403 0.04673 0.0
H747 H 0.41731 0.03458 0.09 0.0
H748 H 0.37155 0.99691 0.0022 0.0
C749 C 0.32306 0.99388 0.17375 0.0
C750 C 0.35764 0.03545 0.11291 0.0
C751 C 0.30911 0.98959 0.22068 0.0
C752 C 0.43816 0.03009 0.01992 0.0
C753 C 0.41881 0.03067 0.04449 0.0
C754 C 0.36778 0.00807 0.03201 0.0
C755 C 0.32704 0.01409 0.14834 0.0
C756 C 0.34457 0.01878 0.10652 0.0
C757 C 0.40176 0.02537 0.01195 0.0
C758 C 0.38135 0.02412 0.04073 0.0
H759 H 0.29377 0.03781 0.23231 0.0
H760 H 0.31799 0.04542 0.14905 0.0
H761 H 0.33983 0.99263 0.05757 0.0
H762 H 0.42553 0.01469 0.88435 0.0
H763 H 0.39186 0.01621 0.92653 0.0
C764 C 0.46478 0.32327 0.21384 0.0
C765 C 0.48105 0.31066 0.23056 0.0
C766 C 0.46658 0.33858 0.16521 0.0
C767 C 0.50543 0.37269 0.09402 0.0
H768 H 0.46417 0.39011 0.97824 0.0
C769 C 0.5174 0.44327 0.91861 0.0
C770 C 0.50081 0.45548 0.90205 0.0
C771 C 0.51485 0.42475 0.95527 0.0
C772 C 0.47574 0.38562 0.01079 0.0
H773 H 0.5115 0.30329 0.20796 0.0
H774 H 0.51472 0.33014 0.12259 0.0
H775 H 0.45968 0.35793 0.04348 0.0
H776 H 0.46854 0.458 0.9123 0.0
H777 H 0.46414 0.42601 0.9783 0.0
H778 H 0.52116 0.40057 0.06365 0.0
C779 C 0.50058 0.32816 0.14709 0.0
C780 C 0.47322 0.36709 0.04777 0.0
C781 C 0.49867 0.31267 0.19536 0.0
C782 C 0.48163 0.44894 0.92421 0.0
C783 C 0.47909 0.43047 0.96153 0.0
C784 C 0.50784 0.39129 0.05765 0.0
C785 C 0.4848 0.34174 0.13295 0.0
C786 C 0.48803 0.36045 0.08987 0.0
C787 C 0.49565 0.41802 0.97706 0.0
C788 C 0.49301 0.39808 0.01562 0.0
H789 H 0.45113 0.32211 0.24085 0.0
H790 H 0.45421 0.34884 0.15568 0.0
H791 H 0.5169 0.36822 0.12696 0.0
H792 H 0.53238 0.44771 0.90185 0.0
H793 H 0.52792 0.4155 0.96526 0.0
C794 C 0.19099 0.4789 0.15316 0.0
C795 C 0.19893 0.49795 0.16414 0.0
C796 C 0.17564 0.47759 0.11096 0.0
C797 C 0.14606 0.50805 0.99102 0.0
H798 H 0.1028 0.47038 0.04975 0.0
C799 C 0.06485 0.51641 0.90339 0.0
C800 C 0.05451 0.49869 0.88994 0.0
C801 C 0.08331 0.51513 0.93323 0.0
C802 C 0.11482 0.4808 0.0323 0.0
H803 H 0.19772 0.53048 0.1389 0.0
H804 H 0.17088 0.52838 0.06547 0.0
H805 H 0.13459 0.47005 0.10369 0.0
H806 H 0.05531 0.46567 0.89884 0.0
H807 H 0.08749 0.46345 0.95187 0.0
H808 H 0.12591 0.51923 0.92075 0.0
C809 C 0.17668 0.51434 0.08806 0.0
C810 C 0.13314 0.48056 0.06304 0.0
C811 C 0.19214 0.5156 0.12994 0.0
C812 C 0.06284 0.47961 0.90865 0.0
C813 C 0.08127 0.47834 0.93903 0.0
C814 C 0.12768 0.50838 0.96057 0.0
C815 C 0.16769 0.49536 0.07966 0.0
C816 C 0.14896 0.49435 0.04326 0.0
C817 C 0.09186 0.49611 0.95083 0.0
C818 C 0.11175 0.49495 0.98131 0.0
H819 H 0.19578 0.46512 0.17994 0.0
H820 H 0.16939 0.46269 0.10487 0.0
H821 H 0.15796 0.51866 0.97383 0.0
H822 H 0.05892 0.53137 0.88967 0.0
H823 H 0.09091 0.52909 0.94257 0.0
C824 C 0.97421 0.79588 0.39989 0.0
C825 C 0.99261 0.79516 0.36909 0.0
C826 C 0.97154 0.81015 0.4409 0.0
C827 C 0.99909 0.84751 0.52611 0.0
H828 H 0.95052 0.87875 0.5014 0.0
C829 C 0.98754 0.91975 0.64361 0.0
C830 C 0.98032 0.93678 0.60679 0.0
C831 C 0.98675 0.90034 0.62429 0.0
C832 C 0.96418 0.87021 0.50887 0.0
H833 H 0.023 0.80772 0.35994 0.0
H834 H 0.01846 0.83245 0.43105 0.0
H835 H 0.95424 0.84795 0.45246 0.0
H836 H 0.96564 0.94636 0.52202 0.0
H837 H 0.9647 0.91274 0.48778 0.0
H838 H 0.00951 0.8703 0.57987 0.0
C839 C 0.00605 0.8221 0.42409 0.0
C840 C 0.9662 0.85235 0.48144 0.0
C841 C 0.00865 0.80797 0.38305 0.0
C842 C 0.97158 0.9337 0.55123 0.0
C843 C 0.97083 0.9143 0.53189 0.0
C844 C 0.99709 0.86536 0.55346 0.0
C845 C 0.98728 0.82383 0.4522 0.0
C846 C 0.98389 0.84103 0.48852 0.0
C847 C 0.97874 0.89741 0.56765 0.0
C848 C 0.9798 0.87721 0.54411 0.0
H849 H 0.96156 0.78627 0.38962 0.0
H850 H 0.95698 0.81091 0.46234 0.0
H851 H 0.01282 0.83905 0.53319 0.0
H852 H 0.99451 0.92143 0.68647 0.0
H853 H 0.99274 0.88765 0.65344 0.0
C854 C 0.71435 0.98417 0.33172 0.0
C855 C 0.71488 1.00187 0.29016 0.0
C856 C 0.70034 0.98204 0.37945 0.0
C857 C 0.66177 0.01097 0.45714 0.0
H858 H 0.6332 0.95876 0.47982 0.0
C859 C 0.57804 1.0012 0.5213 0.0
C860 C 0.57277 0.98707 0.5712 0.0
C861 C 0.59763 1.00232 0.49813 0.0
C862 C 0.64123 0.97333 0.47462 0.0
H863 H 0.70235 0.03179 0.26859 0.0
H864 H 0.67791 0.02808 0.35001 0.0
H865 H 0.66449 0.96233 0.42122 0.0
H866 H 0.58381 0.96295 0.63578 0.0
H867 H 0.61822 0.96436 0.59341 0.0
H868 H 0.63764 0.02222 0.50703 0.0
C869 C 0.68824 0.0158 0.347 0.0
C870 C 0.65924 0.9754 0.4413 0.0
C871 C 0.70221 0.01793 0.29978 0.0
C872 C 0.58753 0.97395 0.59726 0.0
C873 C 0.60711 0.97473 0.57307 0.0
C874 C 0.64362 0.00898 0.48939 0.0
C875 C 0.68662 0.9976 0.38651 0.0
C876 C 0.66947 0.99443 0.43056 0.0
C877 C 0.61235 0.98907 0.52358 0.0
C878 C 0.63293 0.99028 0.49717 0.0
H879 H 0.72389 0.97152 0.32524 0.0
H880 H 0.69981 0.96794 0.40954 0.0
H881 H 0.66943 0.02573 0.45143 0.0
H882 H 0.56705 0.01168 0.50085 0.0
H883 H 0.60126 0.01341 0.45972 0.0
C884 C 0.51347 0.69138 0.35237 0.0
C885 C 0.53161 0.69702 0.32199 0.0
C886 C 0.51295 0.6756 0.40006 0.0
C887 C 0.54122 0.62925 0.4498 0.0
H888 H 0.50319 0.62363 0.58301 0.0
C889 C 0.53653 0.55775 0.62724 0.0
C890 C 0.51711 0.55032 0.64454 0.0
C891 C 0.53919 0.57639 0.59093 0.0
C892 C 0.5138 0.62494 0.54576 0.0
H893 H 0.56358 0.69174 0.31939 0.0
H894 H 0.56296 0.66484 0.40442 0.0
H895 H 0.50684 0.65622 0.51953 0.0
H896 H 0.48523 0.55652 0.63607 0.0
H897 H 0.4899 0.58888 0.57252 0.0
H898 H 0.54807 0.59795 0.47579 0.0
C899 C 0.54901 0.67215 0.39079 0.0
C900 C 0.51592 0.64364 0.50942 0.0
C901 C 0.54947 0.68777 0.34282 0.0
C902 C 0.50041 0.56176 0.62362 0.0
C903 C 0.50308 0.58042 0.58766 0.0
C904 C 0.53918 0.61063 0.48631 0.0
C905 C 0.53061 0.66521 0.41818 0.0
C906 C 0.52952 0.64599 0.46054 0.0
C907 C 0.5225 0.58807 0.57142 0.0
C908 C 0.52528 0.60817 0.53426 0.0
H909 H 0.49947 0.69802 0.33608 0.0
H910 H 0.49848 0.67061 0.41964 0.0
H911 H 0.55152 0.63028 0.41183 0.0
H912 H 0.54972 0.54938 0.64277 0.0
H913 H 0.55435 0.5819 0.57941 0.0
C914 C 0.82711 0.53418 0.39354 0.0
C915 C 0.8164 0.5162 0.38493 0.0
C916 C 0.84244 0.53391 0.43635 0.0
C917 C 0.88007 0.49886 0.50015 0.0
H918 H 0.89324 0.54032 0.60379 0.0
C919 C 0.94981 0.49258 0.65283 0.0
C920 C 0.96041 0.51046 0.66341 0.0
C921 C 0.93154 0.49356 0.62207 0.0
C922 C 0.88995 0.52876 0.57445 0.0
H923 H 0.81253 0.48407 0.41568 0.0
H924 H 0.83935 0.48351 0.49095 0.0
H925 H 0.86129 0.54152 0.54964 0.0
H926 H 0.96022 0.54347 0.64878 0.0
H927 H 0.92863 0.54523 0.59288 0.0
H928 H 0.90885 0.48649 0.52243 0.0
C929 C 0.83586 0.49785 0.46477 0.0
C930 C 0.87154 0.52937 0.54386 0.0
C931 C 0.82036 0.49819 0.4224 0.0
C932 C 0.95245 0.52941 0.64135 0.0
C933 C 0.9342 0.53039 0.60984 0.0
C934 C 0.89852 0.49838 0.53 0.0
C935 C 0.84756 0.51554 0.47057 0.0
C936 C 0.86639 0.51439 0.50649 0.0
C937 C 0.92341 0.51246 0.60018 0.0
C938 C 0.90375 0.51329 0.56773 0.0
H939 H 0.82455 0.54814 0.36423 0.0
H940 H 0.85125 0.54774 0.43943 0.0
H941 H 0.87676 0.48737 0.47053 0.0
H942 H 0.95535 0.47771 0.66973 0.0
H943 H 0.92359 0.47941 0.61674 0.0
loop_
_geom_bond_atom_site_label_1
_geom_bond_atom_site_label_2
_geom_bond_distance
_geom_bond_site_symmetry_2
_ccdc_geom_bond_type
H0 C7 0.929 . S
H1 C10 0.930 . S
H2 C12 0.929 . S
H3 C4 0.969 . S
C4 H3 0.969 . S
C4 O5 1.550 . S
C4 H6 0.973 . S
O5 C4 1.550 . S
O5 C11 1.412 . S
H6 C4 0.973 . S
C7 H0 0.929 . S
C7 C8 1.400 . S
C7 C9 1.364 . S
C8 C7 1.400 . S
C8 C12 1.377 . S
C9 C7 1.364 . S
C9 C10 1.374 . S
C10 H1 0.930 . S
C10 C9 1.374 . S
C10 C11 1.383 . S
C11 O5 1.412 . S
C11 C10 1.383 . S
C11 C12 1.394 . S
C12 H2 0.929 . S
C12 C8 1.377 . S
C12 C11 1.394 . S
H13 C20 0.929 . S
H14 C23 0.930 . S
H15 C25 0.929 . S
H16 C17 0.969 . S
C17 H16 0.969 . S
C17 O18 1.550 . S
C17 H19 0.973 . S
O18 C17 1.550 . S
O18 C24 1.412 . S
H19 C17 0.973 . S
C20 H13 0.929 . S
C20 C21 1.400 . S
C20 C22 1.364 . S
C21 C20 1.400 . S
C21 C25 1.377 . S
C22 C20 1.364 . S
C22 C23 1.374 . S
C23 H14 0.930 . S
C23 C22 1.374 . S
C23 C24 1.383 . S
C24 O18 1.412 . S
C24 C23 1.383 . S
C24 C25 1.394 . S
C25 H15 0.929 . S
C25 C21 1.377 . S
C25 C24 1.394 . S
H26 C33 0.929 . S
H27 C36 0.925 1_556 S
H28 C38 0.930 1_565 S
H29 C30 0.969 . S
C30 H29 0.969 . S
C30 O31 1.550 1_545 S
C30 H32 0.973 1_544 S
O31 C30 1.550 1_565 S
O31 C37 1.405 1_565 S
H32 C30 0.973 1_566 S
C33 H26 0.929 . S
C33 C34 1.399 1_565 S
C33 C35 1.363 1_565 S
C34 C33 1.399 1_545 S
C34 C38 1.376 . S
C35 C33 1.363 1_545 S
C35 C36 1.374 1_545 S
C36 H27 0.925 1_554 S
C36 C35 1.374 1_565 S
C36 C37 1.379 1_565 S
C37 O31 1.405 1_545 S
C37 C36 1.379 1_545 S
C37 C38 1.398 . S
C38 H28 0.930 1_545 S
C38 C34 1.376 . S
C38 C37 1.398 . S
H39 C46 0.929 . S
H40 C49 0.930 . S
H41 C51 0.929 . S
H42 C43 0.969 . S
C43 H42 0.969 . S
C43 O44 1.550 . S
C43 H45 0.973 . S
O44 C43 1.550 . S
O44 C50 1.412 . S
H45 C43 0.973 . S
C46 H39 0.929 . S
C46 C47 1.400 . S
C46 C48 1.364 . S
C47 C46 1.400 . S
C47 C51 1.377 . S
C48 C46 1.364 . S
C48 C49 1.374 . S
C49 H40 0.930 . S
C49 C48 1.374 . S
C49 C50 1.383 . S
C50 O44 1.412 . S
C50 C49 1.383 . S
C50 C51 1.394 . S
C51 H41 0.929 . S
C51 C47 1.377 . S
C51 C50 1.394 . S
H52 C59 0.929 . S
H53 C62 0.930 . S
H54 C64 0.929 . S
H55 C56 0.969 . S
C56 H55 0.969 . S
C56 O57 1.550 . S
C56 H58 0.973 . S
O57 C56 1.550 . S
O57 C63 1.412 . S
H58 C56 0.973 . S
C59 H52 0.929 . S
C59 C60 1.400 . S
C59 C61 1.364 . S
C60 C59 1.400 . S
C60 C64 1.377 . S
C61 C59 1.364 . S
C61 C62 1.374 . S
C62 H53 0.930 . S
C62 C61 1.374 . S
C62 C63 1.383 . S
C63 O57 1.412 . S
C63 C62 1.383 . S
C63 C64 1.394 . S
C64 H54 0.929 . S
C64 C60 1.377 . S
C64 C63 1.394 . S
H65 C72 0.929 . S
H66 C75 0.930 . S
H67 C77 0.929 . S
H68 C69 0.969 . S
C69 H68 0.969 . S
C69 O70 1.550 . S
C69 H71 0.973 . S
O70 C69 1.550 . S
O70 C76 1.412 . S
H71 C69 0.973 . S
C72 H65 0.929 . S
C72 C73 1.400 . S
C72 C74 1.364 . S
C73 C72 1.400 . S
C73 C77 1.377 . S
C74 C72 1.364 . S
C74 C75 1.374 . S
C75 H66 0.930 . S
C75 C74 1.374 . S
C75 C76 1.383 . S
C76 O70 1.412 . S
C76 C75 1.383 . S
C76 C77 1.394 . S
C77 H67 0.929 . S
C77 C73 1.377 . S
C77 C76 1.394 . S
H78 C85 0.928 1_565 S
H79 C88 0.934 . S
H80 C90 0.927 1_565 S
H81 C82 0.969 . S
C82 H81 0.969 . S
C82 O83 1.550 1_545 S
C82 H84 0.973 1_545 S
O83 C82 1.550 1_565 S
O83 C89 1.403 1_565 S
H84 C82 0.973 1_565 S
C85 H78 0.928 1_545 S
C85 C86 1.401 . S
C85 C87 1.363 . S
C86 C85 1.401 . S
C86 C90 1.377 . S
C87 C85 1.363 . S
C87 C88 1.375 1_545 S
C88 H79 0.934 . S
C88 C87 1.375 1_565 S
C88 C89 1.385 1_565 S
C89 O83 1.403 1_545 S
C89 C88 1.385 1_545 S
C89 C90 1.391 . S
C90 H80 0.927 1_545 S
C90 C86 1.377 . S
C90 C89 1.391 . S
H91 C98 0.929 . S
H92 C101 0.930 . S
H93 C103 0.929 . S
H94 C95 0.969 . S
C95 H94 0.969 . S
C95 O96 1.550 . S
C95 H97 0.973 . S
O96 C95 1.550 . S
O96 C102 1.412 . S
H97 C95 0.973 . S
C98 H91 0.929 . S
C98 C99 1.400 . S
C98 C100 1.364 . S
C99 C98 1.400 . S
C99 C103 1.377 . S
C100 C98 1.364 . S
C100 C101 1.374 . S
C101 H92 0.930 . S
C101 C100 1.374 . S
C101 C102 1.383 . S
C102 O96 1.412 . S
C102 C101 1.383 . S
C102 C103 1.394 . S
C103 H93 0.929 . S
C103 C99 1.377 . S
C103 C102 1.394 . S
Co104 N109 2.057 . S
Co104 O121 2.021 . S
Co104 O124 2.062 . S
Co104 O128 2.117 1_455 S
Co104 O129 2.020 1_545 S
C105 O125 1.259 1_545 S
C105 O128 1.258 . S
Co106 N115 2.057 . S
Co106 O122 2.117 1_655 S
Co106 O123 2.018 1_665 S
Co106 O125 2.021 . S
Co106 O130 2.062 . S
C107 N109 1.316 . S
C107 N110 1.347 . S
C107 H112 0.931 . S
C108 N109 1.375 1_655 S
C108 C111 1.350 1_655 S
C108 H113 0.930 . S
N109 Co104 2.057 . S
N109 C107 1.316 . S
N109 C108 1.375 1_455 S
N110 C107 1.347 . S
N110 C111 1.373 . S
C111 C108 1.350 1_455 S
C111 N110 1.373 . S
C111 H132 0.931 1_455 S
H112 C107 0.931 . S
H113 C108 0.930 . S
C114 O121 1.259 1_565 S
C114 O122 1.258 . S
N115 Co106 2.057 . S
N115 C116 1.316 . S
N115 C117 1.375 1_655 S
C116 N115 1.316 . S
C116 N118 1.347 . S
C116 H127 0.931 . S
C117 N115 1.375 1_455 S
C117 C119 1.350 . S
C117 H126 0.930 . S
N118 C116 1.347 . S
N118 C119 1.373 1_655 S
C119 C117 1.350 . S
C119 N118 1.373 1_455 S
C119 H133 0.931 . S
C120 O123 1.260 . S
C120 O124 1.255 . S
O121 Co104 2.021 . S
O121 C114 1.259 1_545 S
O122 Co106 2.117 1_455 S
O122 C114 1.258 . S
O123 Co106 2.018 1_445 S
O123 C120 1.260 . S
O124 Co104 2.062 . S
O124 C120 1.255 . S
O125 C105 1.259 1_565 S
O125 Co106 2.021 . S
H126 C117 0.930 . S
H127 C116 0.931 . S
O128 Co104 2.117 1_655 S
O128 C105 1.258 . S
O129 Co104 2.020 1_565 S
O129 C131 1.256 . S
O130 Co106 2.062 . S
O130 C131 1.255 1_655 S
C131 O129 1.256 . S
C131 O130 1.255 1_455 S
H132 C111 0.931 1_655 S
H133 C119 0.931 . S
Co134 N139 2.057 1_545 S
Co134 O151 2.021 . S
Co134 O154 2.065 . S
Co134 O158 2.117 1_545 S
Co134 O159 2.020 . S
C135 O155 1.259 . S
C135 O158 1.258 . S
Co136 N145 2.057 1_565 S
Co136 O152 2.117 1_565 S
Co136 O153 2.020 . S
Co136 O155 2.021 . S
Co136 O160 2.062 . S
C137 N139 1.317 1_545 S
C137 N140 1.347 . S
C137 H142 0.931 . S
C138 N139 1.374 . S
C138 C141 1.350 . S
C138 H143 0.930 . S
N139 Co134 2.057 1_565 S
N139 C137 1.317 1_565 S
N139 C138 1.374 . S
N140 C137 1.347 . S
N140 C141 1.373 1_545 S
C141 C138 1.350 . S
C141 N140 1.373 1_565 S
C141 H162 0.931 1_556 S
H142 C137 0.931 . S
H143 C138 0.930 . S
C144 O151 1.259 . S
C144 O152 1.258 . S
N145 Co136 2.057 1_545 S
N145 C146 1.307 1_545 S
N145 C147 1.385 . S
C146 N145 1.307 1_565 S
C146 N148 1.347 . S
C146 H157 0.931 . S
C147 N145 1.385 . S
C147 C149 1.350 . S
C147 H156 0.930 . S
N148 C146 1.347 . S
N148 C149 1.373 1_565 S
C149 C147 1.350 . S
C149 N148 1.373 1_545 S
C149 H163 0.931 . S
C150 O153 1.256 . S
C150 O154 1.249 1_565 S
O151 Co134 2.021 . S
O151 C144 1.259 . S
O152 Co136 2.117 1_545 S
O152 C144 1.258 . S
O153 Co136 2.020 . S
O153 C150 1.256 . S
O154 Co134 2.065 . S
O154 C150 1.249 1_545 S
O155 C135 1.259 . S
O155 Co136 2.021 . S
H156 C147 0.930 . S
H157 C146 0.931 . S
O158 Co134 2.117 1_565 S
O158 C135 1.258 . S
O159 Co134 2.020 . S
O159 C161 1.256 . S
O160 Co136 2.062 . S
O160 C161 1.254 1_565 S
C161 O159 1.256 . S
C161 O160 1.254 1_545 S
H162 C141 0.931 1_554 S
H163 C149 0.931 . S
Co164 N169 2.057 . S
Co164 O181 2.021 . S
Co164 O184 2.062 . S
Co164 O188 2.117 . S
Co164 O189 2.020 . S
C165 O185 1.259 . S
C165 O188 1.258 . S
Co166 N175 2.057 . S
Co166 O182 2.117 . S
Co166 O183 2.020 . S
Co166 O185 2.021 . S
Co166 O190 2.062 . S
C167 N169 1.316 . S
C167 N170 1.347 . S
C167 H172 0.931 . S
C168 N169 1.375 . S
C168 C171 1.350 . S
C168 H173 0.930 . S
N169 Co164 2.057 . S
N169 C167 1.316 . S
N169 C168 1.375 . S
N170 C167 1.347 . S
N170 C171 1.373 . S
C171 C168 1.350 . S
C171 N170 1.373 . S
C171 H192 0.931 . S
H172 C167 0.931 . S
H173 C168 0.930 . S
C174 O181 1.259 . S
C174 O182 1.258 . S
N175 Co166 2.057 . S
N175 C176 1.316 . S
N175 C177 1.375 . S
C176 N175 1.316 . S
C176 N178 1.347 . S
C176 H187 0.931 . S
C177 N175 1.375 . S
C177 C179 1.350 . S
C177 H186 0.930 . S
N178 C176 1.347 . S
N178 C179 1.373 . S
C179 C177 1.350 . S
C179 N178 1.373 . S
C179 H193 0.931 . S
C180 O183 1.256 . S
C180 O184 1.255 . S
O181 Co164 2.021 . S
O181 C174 1.259 . S
O182 Co166 2.117 . S
O182 C174 1.258 . S
O183 Co166 2.020 . S
O183 C180 1.256 . S
O184 Co164 2.062 . S
O184 C180 1.255 . S
O185 C165 1.259 . S
O185 Co166 2.021 . S
H186 C177 0.930 . S
H187 C176 0.931 . S
O188 Co164 2.117 . S
O188 C165 1.258 . S
O189 Co164 2.020 . S
O189 C191 1.256 . S
O190 Co166 2.062 . S
O190 C191 1.255 . S
C191 O189 1.256 . S
C191 O190 1.255 . S
H192 C171 0.931 . S
H193 C179 0.931 . S
Co194 N199 2.057 . S
Co194 O211 2.021 1_455 S
Co194 O214 2.062 1_455 S
Co194 O218 2.117 . S
Co194 O219 2.020 . S
C195 O215 1.259 . S
C195 O218 1.258 . S
Co196 N205 2.057 . S
Co196 O212 2.117 1_455 S
Co196 O213 2.020 1_455 S
Co196 O215 2.021 . S
Co196 O220 2.062 . S
C197 N199 1.316 1_655 S
C197 N200 1.356 . S
C197 H202 0.931 . S
C198 N199 1.375 . S
C198 C201 1.350 . S
C198 H203 0.930 . S
N199 Co194 2.057 . S
N199 C197 1.316 1_455 S
N199 C198 1.375 . S
N200 C197 1.356 . S
N200 C201 1.340 1_655 S
C201 C198 1.350 . S
C201 N200 1.340 1_455 S
C201 H222 0.931 . S
H202 C197 0.931 . S
H203 C198 0.930 . S
C204 O211 1.259 . S
C204 O212 1.258 . S
N205 Co196 2.057 . S
N205 C206 1.316 . S
N205 C207 1.375 1_455 S
C206 N205 1.316 . S
C206 N208 1.347 . S
C206 H217 0.931 . S
C207 N205 1.375 1_655 S
C207 C209 1.350 . S
C207 H216 0.930 . S
N208 C206 1.347 . S
N208 C209 1.373 1_455 S
C209 C207 1.350 . S
C209 N208 1.373 1_655 S
C209 H223 0.931 . S
C210 O213 1.256 . S
C210 O214 1.255 . S
O211 Co194 2.021 1_655 S
O211 C204 1.259 . S
O212 Co196 2.117 1_655 S
O212 C204 1.258 . S
O213 Co196 2.020 1_655 S
O213 C210 1.256 . S
O214 Co194 2.062 1_655 S
O214 C210 1.255 . S
O215 C195 1.259 . S
O215 Co196 2.021 . S
H216 C207 0.930 . S
H217 C206 0.931 . S
O218 Co194 2.117 . S
O218 C195 1.258 . S
O219 Co194 2.020 . S
O219 C221 1.256 . S
O220 Co196 2.062 . S
O220 C221 1.255 . S
C221 O219 1.256 . S
C221 O220 1.255 . S
H222 C201 0.931 . S
H223 C209 0.931 . S
C224 C225 1.345 1_545 S
C224 C226 1.327 . S
C224 H249 0.950 . S
C225 C224 1.345 1_565 S
C225 C241 1.352 . S
C226 C224 1.327 . S
C226 C245 1.429 1_545 S
C226 H250 0.950 . S
C227 C244 1.574 . S
C227 C246 1.368 . S
C227 H251 0.949 . S
H228 C232 0.949 . S
C229 C230 1.349 . S
C229 C231 1.327 . S
C229 H252 0.950 . S
C230 C229 1.349 . S
C230 C242 1.349 1_565 S
C231 C229 1.327 . S
C231 C247 1.429 . S
C231 H253 0.950 . S
C232 H228 0.949 . S
C232 C240 1.574 . S
C232 C248 1.368 1_545 S
H233 C241 0.950 . S
H234 C239 0.950 . S
H235 C240 0.949 . S
H236 C242 0.950 . S
H237 C243 0.950 . S
H238 C244 0.949 . S
C239 H234 0.950 . S
C239 C241 1.327 . S
C239 C245 1.429 . S
C240 C232 1.574 . S
C240 H235 0.949 . S
C240 C246 1.368 1_545 S
C241 C225 1.352 . S
C241 H233 0.950 . S
C241 C239 1.327 . S
C242 C230 1.349 1_545 S
C242 H236 0.950 . S
C242 C243 1.327 . S
C243 H237 0.950 . S
C243 C242 1.327 . S
C243 C247 1.429 1_545 S
C244 C227 1.574 . S
C244 H238 0.949 . S
C244 C248 1.368 . S
C245 C226 1.429 1_565 S
C245 C239 1.429 . S
C245 C246 1.523 . S
C246 C227 1.368 . S
C246 C240 1.368 1_565 S
C246 C245 1.523 . S
C247 C231 1.429 . S
C247 C243 1.429 1_565 S
C247 C248 1.523 . S
C248 C232 1.368 1_565 S
C248 C244 1.368 . S
C248 C247 1.523 . S
H249 C224 0.950 . S
H250 C226 0.950 . S
H251 C227 0.949 . S
H252 C229 0.950 . S
H253 C231 0.950 . S
C254 C255 1.349 . S
C254 C256 1.327 . S
C254 H279 0.950 . S
C255 C254 1.349 . S
C255 C271 1.349 . S
C256 C254 1.327 . S
C256 C275 1.429 . S
C256 H280 0.950 . S
C257 C274 1.574 . S
C257 C276 1.368 . S
C257 H281 0.949 . S
H258 C262 0.949 . S
C259 C260 1.349 . S
C259 C261 1.327 . S
C259 H282 0.950 . S
C260 C259 1.349 . S
C260 C272 1.349 . S
C261 C259 1.327 . S
C261 C277 1.429 . S
C261 H283 0.950 . S
C262 H258 0.949 . S
C262 C270 1.574 . S
C262 C278 1.368 . S
H263 C271 0.950 . S
H264 C269 0.950 . S
H265 C270 0.949 . S
H266 C272 0.950 . S
H267 C273 0.950 . S
H268 C274 0.949 . S
C269 H264 0.950 . S
C269 C271 1.327 . S
C269 C275 1.429 . S
C270 C262 1.574 . S
C270 H265 0.949 . S
C270 C276 1.368 . S
C271 C255 1.349 . S
C271 H263 0.950 . S
C271 C269 1.327 . S
C272 C260 1.349 . S
C272 H266 0.950 . S
C272 C273 1.327 . S
C273 H267 0.950 . S
C273 C272 1.327 . S
C273 C277 1.429 . S
C274 C257 1.574 . S
C274 H268 0.949 . S
C274 C278 1.368 . S
C275 C256 1.429 . S
C275 C269 1.429 . S
C275 C276 1.523 . S
C276 C257 1.368 . S
C276 C270 1.368 . S
C276 C275 1.523 . S
C277 C261 1.429 . S
C277 C273 1.429 . S
C277 C278 1.523 . S
C278 C262 1.368 . S
C278 C274 1.368 . S
C278 C277 1.523 . S
H279 C254 0.950 . S
H280 C256 0.950 . S
H281 C257 0.949 . S
H282 C259 0.950 . S
H283 C261 0.950 . S
C284 C285 1.349 . S
C284 C286 1.327 . S
C284 H309 0.950 . S
C285 C284 1.349 . S
C285 C301 1.349 . S
C286 C284 1.327 . S
C286 C305 1.429 . S
C286 H310 0.950 . S
C287 C304 1.574 . S
C287 C306 1.368 . S
C287 H311 0.949 . S
H288 C292 0.949 . S
C289 C290 1.349 . S
C289 C291 1.327 . S
C289 H312 0.950 . S
C290 C289 1.349 . S
C290 C302 1.349 . S
C291 C289 1.327 . S
C291 C307 1.429 . S
C291 H313 0.950 . S
C292 H288 0.949 . S
C292 C300 1.574 . S
C292 C308 1.368 . S
H293 C301 0.950 . S
H294 C299 0.950 . S
H295 C300 0.949 . S
H296 C302 0.950 . S
H297 C303 0.950 . S
H298 C304 0.949 . S
C299 H294 0.950 . S
C299 C301 1.327 . S
C299 C305 1.429 . S
C300 C292 1.574 . S
C300 H295 0.949 . S
C300 C306 1.368 . S
C301 C285 1.349 . S
C301 H293 0.950 . S
C301 C299 1.327 . S
C302 C290 1.349 . S
C302 H296 0.950 . S
C302 C303 1.327 . S
C303 H297 0.950 . S
C303 C302 1.327 . S
C303 C307 1.429 . S
C304 C287 1.574 . S
C304 H298 0.949 . S
C304 C308 1.368 . S
C305 C286 1.429 . S
C305 C299 1.429 . S
C305 C306 1.523 . S
C306 C287 1.368 . S
C306 C300 1.368 . S
C306 C305 1.523 . S
C307 C291 1.429 . S
C307 C303 1.429 . S
C307 C308 1.523 . S
C308 C292 1.368 . S
C308 C304 1.368 . S
C308 C307 1.523 . S
H309 C284 0.950 . S
H310 C286 0.950 . S
H311 C287 0.949 . S
H312 C289 0.950 . S
H313 C291 0.950 . S
C314 C315 1.349 . S
C314 C316 1.327 . S
C314 H339 0.950 . S
C315 C314 1.349 . S
C315 C331 1.349 . S
C316 C314 1.327 . S
C316 C335 1.429 . S
C316 H340 0.950 . S
C317 C334 1.574 . S
C317 C336 1.368 . S
C317 H341 0.949 . S
H318 C322 0.949 . S
C319 C320 1.349 . S
C319 C321 1.327 . S
C319 H342 0.950 . S
C320 C319 1.349 . S
C320 C332 1.349 . S
C321 C319 1.327 . S
C321 C337 1.429 . S
C321 H343 0.950 . S
C322 H318 0.949 . S
C322 C330 1.574 . S
C322 C338 1.368 . S
H323 C331 0.950 . S
H324 C329 0.950 . S
H325 C330 0.949 . S
H326 C332 0.935 1_655 S
H327 C333 0.950 . S
H328 C334 0.949 . S
C329 H324 0.950 . S
C329 C331 1.327 . S
C329 C335 1.429 . S
C330 C322 1.574 . S
C330 H325 0.949 . S
C330 C336 1.368 . S
C331 C315 1.349 . S
C331 H323 0.950 . S
C331 C329 1.327 . S
C332 C320 1.349 . S
C332 H326 0.935 1_455 S
C332 C333 1.327 . S
C333 H327 0.950 . S
C333 C332 1.327 . S
C333 C337 1.429 . S
C334 C317 1.574 . S
C334 H328 0.949 . S
C334 C338 1.368 . S
C335 C316 1.429 . S
C335 C329 1.429 . S
C335 C336 1.523 . S
C336 C317 1.368 . S
C336 C330 1.368 . S
C336 C335 1.523 . S
C337 C321 1.429 . S
C337 C333 1.429 . S
C337 C338 1.523 . S
C338 C322 1.368 . S
C338 C334 1.368 . S
C338 C337 1.523 . S
H339 C314 0.950 . S
H340 C316 0.950 . S
H341 C317 0.949 . S
H342 C319 0.950 . S
H343 C321 0.950 . S
C344 C345 1.361 . S
C344 C346 1.327 . S
C344 H369 0.950 . S
C345 C344 1.361 . S
C345 C361 1.336 1_544 S
C346 C344 1.327 . S
C346 C365 1.429 1_554 S
C346 H370 0.950 . S
C347 C364 1.574 . S
C347 C366 1.368 1_565 S
C347 H371 0.949 . S
H348 C352 0.949 . S
C349 C350 1.349 1_565 S
C349 C351 1.327 . S
C349 H372 0.950 . S
C350 C349 1.349 1_545 S
C350 C362 1.349 . S
C351 C349 1.327 . S
C351 C367 1.429 1_565 S
C351 H373 0.950 . S
C352 H348 0.949 . S
C352 C360 1.574 . S
C352 C368 1.368 . S
H353 C361 0.950 . S
H354 C359 0.950 . S
H355 C360 0.949 . S
H356 C362 0.950 . S
H357 C363 0.950 . S
H358 C364 0.949 . S
C359 H354 0.950 . S
C359 C361 1.327 . S
C359 C365 1.429 1_565 S
C360 C352 1.574 . S
C360 H355 0.949 . S
C360 C366 1.368 . S
C361 C345 1.336 1_566 S
C361 H353 0.950 . S
C361 C359 1.327 . S
C362 C350 1.349 . S
C362 H356 0.950 . S
C362 C363 1.327 . S
C363 H357 0.950 . S
C363 C362 1.327 . S
C363 C367 1.429 . S
C364 C347 1.574 . S
C364 H358 0.949 . S
C364 C368 1.368 1_565 S
C365 C346 1.429 1_556 S
C365 C359 1.429 1_545 S
C365 C366 1.523 . S
C366 C347 1.368 1_545 S
C366 C360 1.368 . S
C366 C365 1.523 . S
C367 C351 1.429 1_545 S
C367 C363 1.429 . S
C367 C368 1.523 . S
C368 C352 1.368 . S
C368 C364 1.368 1_545 S
C368 C367 1.523 . S
H369 C344 0.950 . S
H370 C346 0.950 . S
H371 C347 0.949 . S
H372 C349 0.950 . S
H373 C351 0.950 . S
C374 C375 1.349 . S
C374 C376 1.327 . S
C374 H399 0.950 . S
C375 C374 1.349 . S
C375 C391 1.349 1_554 S
C376 C374 1.327 . S
C376 C395 1.429 1_554 S
C376 H400 0.950 . S
C377 C394 1.574 . S
C377 C396 1.368 . S
C377 H401 0.949 . S
H378 C382 0.949 . S
C379 C380 1.349 . S
C379 C381 1.327 . S
C379 H402 0.950 . S
C380 C379 1.349 . S
C380 C392 1.349 . S
C381 C379 1.327 . S
C381 C397 1.429 . S
C381 H403 0.950 . S
C382 H378 0.949 . S
C382 C390 1.574 . S
C382 C398 1.368 . S
H383 C391 0.950 . S
H384 C389 0.950 . S
H385 C390 0.949 1_554 S
H386 C392 0.950 . S
H387 C393 0.950 . S
H388 C394 0.949 . S
C389 H384 0.950 . S
C389 C391 1.327 . S
C389 C395 1.429 . S
C390 C382 1.574 . S
C390 H385 0.949 1_556 S
C390 C396 1.368 . S
C391 C375 1.349 1_556 S
C391 H383 0.950 . S
C391 C389 1.327 . S
C392 C380 1.349 . S
C392 H386 0.950 . S
C392 C393 1.327 . S
C393 H387 0.950 . S
C393 C392 1.327 . S
C393 C397 1.429 . S
C394 C377 1.574 . S
C394 H388 0.949 . S
C394 C398 1.368 . S
C395 C376 1.429 1_556 S
C395 C389 1.429 . S
C395 C396 1.523 . S
C396 C377 1.368 . S
C396 C390 1.368 . S
C396 C395 1.523 . S
C397 C381 1.429 . S
C397 C393 1.429 . S
C397 C398 1.523 . S
C398 C382 1.368 . S
C398 C394 1.368 . S
C398 C397 1.523 . S
H399 C374 0.950 . S
H400 C376 0.950 . S
H401 C377 0.949 . S
H402 C379 0.950 . S
H403 C381 0.950 . S
C404 C405 1.349 . S
C404 C406 1.327 . S
C404 H429 0.950 . S
C405 C404 1.349 . S
C405 C421 1.349 . S
C406 C404 1.327 . S
C406 C425 1.429 . S
C406 H430 0.950 . S
C407 C424 1.574 . S
C407 C426 1.368 1_556 S
C407 H431 0.949 . S
H408 C412 0.949 . S
C409 C410 1.349 . S
C409 C411 1.327 . S
C409 H432 0.950 . S
C410 C409 1.349 . S
C410 C422 1.349 . S
C411 C409 1.327 . S
C411 C427 1.429 . S
C411 H433 0.950 . S
C412 H408 0.949 . S
C412 C420 1.574 . S
C412 C428 1.368 1_554 S
H413 C421 0.950 . S
H414 C419 0.950 1_556 S
H415 C420 0.949 . S
H416 C422 0.950 . S
H417 C423 0.950 . S
H418 C424 0.949 . S
C419 H414 0.950 1_554 S
C419 C421 1.327 . S
C419 C425 1.429 . S
C420 C412 1.574 . S
C420 H415 0.949 . S
C420 C426 1.368 . S
C421 C405 1.349 . S
C421 H413 0.950 . S
C421 C419 1.327 . S
C422 C410 1.349 . S
C422 H416 0.950 . S
C422 C423 1.327 . S
C423 H417 0.950 . S
C423 C422 1.327 . S
C423 C427 1.429 . S
C424 C407 1.574 . S
C424 H418 0.949 . S
C424 C428 1.368 . S
C425 C406 1.429 . S
C425 C419 1.429 . S
C425 C426 1.523 . S
C426 C407 1.368 1_554 S
C426 C420 1.368 . S
C426 C425 1.523 . S
C427 C411 1.429 . S
C427 C423 1.429 . S
C427 C428 1.523 . S
C428 C412 1.368 1_556 S
C428 C424 1.368 . S
C428 C427 1.523 . S
H429 C404 0.950 . S
H430 C406 0.950 . S
H431 C407 0.949 . S
H432 C409 0.950 . S
H433 C411 0.950 . S
C434 C435 1.349 . S
C434 C436 1.327 1_554 S
C434 H459 0.950 1_554 S
C435 C434 1.349 . S
C435 C451 1.349 . S
C436 C434 1.327 1_556 S
C436 C455 1.429 1_556 S
C436 H460 0.950 . S
C437 C454 1.574 1_554 S
C437 C456 1.368 1_554 S
C437 H461 0.949 . S
H438 C442 0.949 . S
C439 C440 1.349 . S
C439 C441 1.327 . S
C439 H462 0.950 . S
C440 C439 1.349 . S
C440 C452 1.349 . S
C441 C439 1.327 . S
C441 C457 1.429 . S
C441 H463 0.950 . S
C442 H438 0.949 . S
C442 C450 1.574 . S
C442 C458 1.368 . S
H443 C451 0.950 . S
H444 C449 0.950 . S
H445 C450 0.949 . S
H446 C452 0.950 . S
H447 C453 0.950 . S
H448 C454 0.949 1_554 S
C449 H444 0.950 . S
C449 C451 1.327 . S
C449 C455 1.429 . S
C450 C442 1.574 . S
C450 H445 0.949 . S
C450 C456 1.368 . S
C451 C435 1.349 . S
C451 H443 0.950 . S
C451 C449 1.327 . S
C452 C440 1.349 . S
C452 H446 0.950 . S
C452 C453 1.327 . S
C453 H447 0.950 . S
C453 C452 1.327 . S
C453 C457 1.429 . S
C454 C437 1.574 1_556 S
C454 H448 0.949 1_556 S
C454 C458 1.368 . S
C455 C436 1.429 1_554 S
C455 C449 1.429 . S
C455 C456 1.523 1_554 S
C456 C437 1.368 1_556 S
C456 C450 1.368 . S
C456 C455 1.523 1_556 S
C457 C441 1.429 . S
C457 C453 1.429 . S
C457 C458 1.523 . S
C458 C442 1.368 . S
C458 C454 1.368 . S
C458 C457 1.523 . S
H459 C434 0.950 1_556 S
H460 C436 0.950 . S
H461 C437 0.949 . S
H462 C439 0.950 . S
H463 C441 0.950 . S
C464 C465 1.349 . S
C464 C466 1.327 . S
C464 H489 0.950 . S
C465 C464 1.349 . S
C465 C481 1.349 . S
C466 C464 1.327 . S
C466 C485 1.429 . S
C466 H490 0.950 . S
C467 C484 1.574 . S
C467 C486 1.368 . S
C467 H491 0.949 . S
H468 C472 0.949 . S
C469 C470 1.349 1_655 S
C469 C471 1.327 1_655 S
C469 H492 0.950 . S
C470 C469 1.349 1_455 S
C470 C482 1.349 . S
C471 C469 1.327 1_455 S
C471 C487 1.429 . S
C471 H493 0.950 1_455 S
C472 H468 0.949 . S
C472 C480 1.574 . S
C472 C488 1.368 . S
H473 C481 0.950 . S
H474 C479 0.950 . S
H475 C480 0.949 . S
H476 C482 0.950 . S
H477 C483 0.950 . S
H478 C484 0.949 . S
C479 H474 0.950 . S
C479 C481 1.327 . S
C479 C485 1.429 . S
C480 C472 1.574 . S
C480 H475 0.949 . S
C480 C486 1.368 . S
C481 C465 1.349 . S
C481 H473 0.950 . S
C481 C479 1.327 . S
C482 C470 1.349 . S
C482 H476 0.950 . S
C482 C483 1.327 . S
C483 H477 0.950 . S
C483 C482 1.327 . S
C483 C487 1.429 . S
C484 C467 1.574 . S
C484 H478 0.949 . S
C484 C488 1.368 . S
C485 C466 1.429 . S
C485 C479 1.429 . S
C485 C486 1.523 . S
C486 C467 1.368 . S
C486 C480 1.368 . S
C486 C485 1.523 . S
C487 C471 1.429 . S
C487 C483 1.429 . S
C487 C488 1.523 . S
C488 C472 1.368 . S
C488 C484 1.368 . S
C488 C487 1.523 . S
H489 C464 0.950 . S
H490 C466 0.950 . S
H491 C467 0.949 . S
H492 C469 0.950 . S
H493 C471 0.950 1_655 S
C494 C495 1.341 1_565 S
C494 C496 1.327 . S
C494 H519 0.950 . S
C495 C494 1.341 1_545 S
C495 C511 1.357 . S
C496 C494 1.327 . S
C496 C515 1.429 . S
C496 H520 0.950 . S
C497 C514 1.574 . S
C497 C516 1.368 1_545 S
C497 H521 0.949 . S
H498 C502 0.949 . S
C499 C500 1.349 1_545 S
C499 C501 1.327 . S
C499 H522 0.950 . S
C500 C499 1.349 1_565 S
C500 C512 1.349 . S
C501 C499 1.327 . S
C501 C517 1.429 1_545 S
C501 H523 0.950 . S
C502 H498 0.949 . S
C502 C510 1.574 . S
C502 C518 1.368 . S
H503 C511 0.950 . S
H504 C509 0.950 . S
H505 C510 0.949 . S
H506 C512 0.950 . S
H507 C513 0.950 . S
H508 C514 0.949 . S
C509 H504 0.950 . S
C509 C511 1.327 . S
C509 C515 1.429 1_545 S
C510 C502 1.574 . S
C510 H505 0.949 . S
C510 C516 1.368 . S
C511 C495 1.357 . S
C511 H503 0.950 . S
C511 C509 1.327 . S
C512 C500 1.349 . S
C512 H506 0.950 . S
C512 C513 1.327 . S
C513 H507 0.950 . S
C513 C512 1.327 . S
C513 C517 1.429 . S
C514 C497 1.574 . S
C514 H508 0.949 . S
C514 C518 1.368 1_545 S
C515 C496 1.429 . S
C515 C509 1.429 1_565 S
C515 C516 1.523 . S
C516 C497 1.368 1_565 S
C516 C510 1.368 . S
C516 C515 1.523 . S
C517 C501 1.429 1_565 S
C517 C513 1.429 . S
C517 C518 1.523 . S
C518 C502 1.368 . S
C518 C514 1.368 1_565 S
C518 C517 1.523 . S
H519 C494 0.950 . S
H520 C496 0.950 . S
H521 C497 0.949 . S
H522 C499 0.950 . S
H523 C501 0.950 . S
C524 C525 1.349 . S
C524 C526 1.327 . S
C524 H549 0.950 . S
C525 C524 1.349 . S
C525 C541 1.349 . S
C526 C524 1.327 . S
C526 C545 1.429 . S
C526 H550 0.950 . S
C527 C544 1.574 . S
C527 C546 1.368 . S
C527 H551 0.949 . S
H528 C532 0.949 . S
C529 C530 1.349 . S
C529 C531 1.327 . S
C529 H552 0.950 . S
C530 C529 1.349 . S
C530 C542 1.349 . S
C531 C529 1.327 . S
C531 C547 1.429 . S
C531 H553 0.950 . S
C532 H528 0.949 . S
C532 C540 1.574 . S
C532 C548 1.368 . S
H533 C541 0.950 . S
H534 C539 0.950 . S
H535 C540 0.949 . S
H536 C542 0.950 . S
H537 C543 0.950 . S
H538 C544 0.949 . S
C539 H534 0.950 . S
C539 C541 1.327 . S
C539 C545 1.429 . S
C540 C532 1.574 . S
C540 H535 0.949 . S
C540 C546 1.368 . S
C541 C525 1.349 . S
C541 H533 0.950 . S
C541 C539 1.327 . S
C542 C530 1.349 . S
C542 H536 0.950 . S
C542 C543 1.327 . S
C543 H537 0.950 . S
C543 C542 1.327 . S
C543 C547 1.429 . S
C544 C527 1.574 . S
C544 H538 0.949 . S
C544 C548 1.368 . S
C545 C526 1.429 . S
C545 C539 1.429 . S
C545 C546 1.523 . S
C546 C527 1.368 . S
C546 C540 1.368 . S
C546 C545 1.523 . S
C547 C531 1.429 . S
C547 C543 1.429 . S
C547 C548 1.523 . S
C548 C532 1.368 . S
C548 C544 1.368 . S
C548 C547 1.523 . S
H549 C524 0.950 . S
H550 C526 0.950 . S
H551 C527 0.949 . S
H552 C529 0.950 . S
H553 C531 0.950 . S
C554 C555 1.349 . S
C554 C556 1.327 . S
C554 H579 0.950 . S
C555 C554 1.349 . S
C555 C571 1.349 . S
C556 C554 1.327 . S
C556 C575 1.429 . S
C556 H580 0.950 . S
C557 C574 1.574 . S
C557 C576 1.368 . S
C557 H581 0.949 . S
H558 C562 0.949 . S
C559 C560 1.349 . S
C559 C561 1.327 . S
C559 H582 0.950 . S
C560 C559 1.349 . S
C560 C572 1.349 . S
C561 C559 1.327 . S
C561 C577 1.429 . S
C561 H583 0.950 . S
C562 H558 0.949 . S
C562 C570 1.574 . S
C562 C578 1.368 . S
H563 C571 0.950 . S
H564 C569 0.950 . S
H565 C570 0.949 . S
H566 C572 0.950 . S
H567 C573 0.950 . S
H568 C574 0.949 . S
C569 H564 0.950 . S
C569 C571 1.327 . S
C569 C575 1.429 . S
C570 C562 1.574 . S
C570 H565 0.949 . S
C570 C576 1.368 . S
C571 C555 1.349 . S
C571 H563 0.950 . S
C571 C569 1.327 . S
C572 C560 1.349 . S
C572 H566 0.950 . S
C572 C573 1.327 . S
C573 H567 0.950 . S
C573 C572 1.327 . S
C573 C577 1.429 . S
C574 C557 1.574 . S
C574 H568 0.949 . S
C574 C578 1.368 . S
C575 C556 1.429 . S
C575 C569 1.429 . S
C575 C576 1.523 . S
C576 C557 1.368 . S
C576 C570 1.368 . S
C576 C575 1.523 . S
C577 C561 1.429 . S
C577 C573 1.429 . S
C577 C578 1.523 . S
C578 C562 1.368 . S
C578 C574 1.368 . S
C578 C577 1.523 . S
H579 C554 0.950 . S
H580 C556 0.950 . S
H581 C557 0.949 . S
H582 C559 0.950 . S
H583 C561 0.950 . S
C584 C585 1.349 . S
C584 C586 1.327 1_554 S
C584 H609 0.947 1_554 S
C585 C584 1.349 . S
C585 C601 1.349 . S
C586 C584 1.327 1_556 S
C586 C605 1.429 1_556 S
C586 H610 0.950 . S
C587 C604 1.574 1_554 S
C587 C606 1.368 1_554 S
C587 H611 0.949 . S
H588 C592 0.949 . S
C589 C590 1.349 . S
C589 C591 1.327 . S
C589 H612 0.950 . S
C590 C589 1.349 . S
C590 C602 1.349 1_455 S
C591 C589 1.327 . S
C591 C607 1.429 1_455 S
C591 H613 0.950 . S
C592 H588 0.949 . S
C592 C600 1.574 . S
C592 C608 1.368 . S
H593 C601 0.950 . S
H594 C599 0.950 . S
H595 C600 0.949 . S
H596 C602 0.950 . S
H597 C603 0.950 . S
H598 C604 0.949 1_454 S
C599 H594 0.950 . S
C599 C601 1.327 . S
C599 C605 1.429 . S
C600 C592 1.574 . S
C600 H595 0.949 . S
C600 C606 1.368 . S
C601 C585 1.349 . S
C601 H593 0.950 . S
C601 C599 1.327 . S
C602 C590 1.349 1_655 S
C602 H596 0.950 . S
C602 C603 1.327 . S
C603 H597 0.950 . S
C603 C602 1.327 . S
C603 C607 1.429 . S
C604 C587 1.574 1_556 S
C604 H598 0.949 1_656 S
C604 C608 1.368 . S
C605 C586 1.429 1_554 S
C605 C599 1.429 . S
C605 C606 1.523 1_554 S
C606 C587 1.368 1_556 S
C606 C600 1.368 . S
C606 C605 1.523 1_556 S
C607 C591 1.429 1_655 S
C607 C603 1.429 . S
C607 C608 1.523 . S
C608 C592 1.368 . S
C608 C604 1.368 . S
C608 C607 1.523 . S
H609 C584 0.947 1_556 S
H610 C586 0.950 . S
H611 C587 0.949 . S
H612 C589 0.950 . S
H613 C591 0.950 . S
C614 C615 1.351 1_546 S
C614 C616 1.327 . S
C614 H639 0.950 . S
C615 C614 1.351 1_564 S
C615 C631 1.347 . S
C616 C614 1.327 . S
C616 C635 1.429 . S
C616 H640 0.950 . S
C617 C634 1.574 . S
C617 C636 1.368 1_565 S
C617 H641 0.949 . S
H618 C622 0.949 . S
C619 C620 1.349 1_565 S
C619 C621 1.327 . S
C619 H642 0.950 . S
C620 C619 1.349 1_545 S
C620 C632 1.349 . S
C621 C619 1.327 . S
C621 C637 1.429 1_565 S
C621 H643 0.950 . S
C622 H618 0.949 . S
C622 C630 1.574 . S
C622 C638 1.368 . S
H623 C631 0.950 . S
H624 C629 0.950 . S
H625 C630 0.949 . S
H626 C632 0.950 . S
H627 C633 0.950 . S
H628 C634 0.949 . S
C629 H624 0.950 . S
C629 C631 1.327 . S
C629 C635 1.429 1_564 S
C630 C622 1.574 . S
C630 H625 0.949 . S
C630 C636 1.368 . S
C631 C615 1.347 . S
C631 H623 0.950 . S
C631 C629 1.327 . S
C632 C620 1.349 . S
C632 H626 0.950 . S
C632 C633 1.327 . S
C633 H627 0.950 . S
C633 C632 1.327 . S
C633 C637 1.429 . S
C634 C617 1.574 . S
C634 H628 0.949 . S
C634 C638 1.368 1_565 S
C635 C616 1.429 . S
C635 C629 1.429 1_546 S
C635 C636 1.523 . S
C636 C617 1.368 1_545 S
C636 C630 1.368 . S
C636 C635 1.523 . S
C637 C621 1.429 1_545 S
C637 C633 1.429 . S
C637 C638 1.523 . S
C638 C622 1.368 . S
C638 C634 1.368 1_545 S
C638 C637 1.523 . S
H639 C614 0.950 . S
H640 C616 0.950 . S
H641 C617 0.949 . S
H642 C619 0.950 . S
H643 C621 0.950 . S
C644 C645 1.349 . S
C644 C646 1.327 1_554 S
C644 H669 0.950 1_554 S
C645 C644 1.349 . S
C645 C661 1.349 . S
C646 C644 1.327 1_556 S
C646 C665 1.429 1_556 S
C646 H670 0.950 . S
C647 C664 1.574 1_554 S
C647 C666 1.368 1_554 S
C647 H671 0.949 . S
H648 C652 0.949 . S
C649 C650 1.349 . S
C649 C651 1.327 . S
C649 H672 0.950 . S
C650 C649 1.349 . S
C650 C662 1.349 . S
C651 C649 1.327 . S
C651 C667 1.429 . S
C651 H673 0.950 . S
C652 H648 0.949 . S
C652 C660 1.574 . S
C652 C668 1.368 . S
H653 C661 0.950 . S
H654 C659 0.950 . S
H655 C660 0.949 . S
H656 C662 0.950 . S
H657 C663 0.950 . S
H658 C664 0.949 1_554 S
C659 H654 0.950 . S
C659 C661 1.327 . S
C659 C665 1.429 . S
C660 C652 1.574 . S
C660 H655 0.949 . S
C660 C666 1.368 . S
C661 C645 1.349 . S
C661 H653 0.950 . S
C661 C659 1.327 . S
C662 C650 1.349 . S
C662 H656 0.950 . S
C662 C663 1.327 . S
C663 H657 0.950 . S
C663 C662 1.327 . S
C663 C667 1.429 . S
C664 C647 1.574 1_556 S
C664 H658 0.949 1_556 S
C664 C668 1.368 . S
C665 C646 1.429 1_554 S
C665 C659 1.429 . S
C665 C666 1.523 1_554 S
C666 C647 1.368 1_556 S
C666 C660 1.368 . S
C666 C665 1.523 1_556 S
C667 C651 1.429 . S
C667 C663 1.429 . S
C667 C668 1.523 . S
C668 C652 1.368 . S
C668 C664 1.368 . S
C668 C667 1.523 . S
H669 C644 0.950 1_556 S
H670 C646 0.950 . S
H671 C647 0.949 . S
H672 C649 0.950 . S
H673 C651 0.950 . S
C674 C675 1.349 . S
C674 C676 1.327 . S
C674 H699 0.950 . S
C675 C674 1.349 . S
C675 C691 1.349 . S
C676 C674 1.327 . S
C676 C695 1.429 . S
C676 H700 0.955 . S
C677 C694 1.574 . S
C677 C696 1.368 . S
C677 H701 0.949 . S
H678 C682 0.949 . S
C679 C680 1.349 . S
C679 C681 1.327 . S
C679 H702 0.950 . S
C680 C679 1.349 . S
C680 C692 1.349 . S
C681 C679 1.327 . S
C681 C697 1.429 . S
C681 H703 0.950 . S
C682 H678 0.949 . S
C682 C690 1.574 . S
C682 C698 1.368 . S
H683 C691 0.950 . S
H684 C689 0.950 . S
H685 C690 0.949 . S
H686 C692 0.950 . S
H687 C693 0.950 . S
H688 C694 0.949 . S
C689 H684 0.950 . S
C689 C691 1.327 . S
C689 C695 1.429 . S
C690 C682 1.574 . S
C690 H685 0.949 . S
C690 C696 1.368 1_556 S
C691 C675 1.349 . S
C691 H683 0.950 . S
C691 C689 1.327 . S
C692 C680 1.349 . S
C692 H686 0.950 . S
C692 C693 1.327 . S
C693 H687 0.950 . S
C693 C692 1.327 . S
C693 C697 1.429 . S
C694 C677 1.574 . S
C694 H688 0.949 . S
C694 C698 1.368 1_554 S
C695 C676 1.429 . S
C695 C689 1.429 . S
C695 C696 1.523 . S
C696 C677 1.368 . S
C696 C690 1.368 1_554 S
C696 C695 1.523 . S
C697 C681 1.429 . S
C697 C693 1.429 . S
C697 C698 1.523 . S
C698 C682 1.368 . S
C698 C694 1.368 1_556 S
C698 C697 1.523 . S
H699 C674 0.950 . S
H700 C676 0.955 . S
H701 C677 0.949 . S
H702 C679 0.950 . S
H703 C681 0.950 . S
C704 C705 1.349 . S
C704 C706 1.327 . S
C704 H729 0.950 . S
C705 C704 1.349 . S
C705 C721 1.349 . S
C706 C704 1.327 . S
C706 C725 1.429 . S
C706 H730 0.950 . S
C707 C724 1.574 . S
C707 C726 1.368 . S
C707 H731 0.949 . S
H708 C712 0.949 . S
C709 C710 1.349 1_554 S
C709 C711 1.327 . S
C709 H732 0.950 . S
C710 C709 1.349 1_556 S
C710 C722 1.349 1_556 S
C711 C709 1.327 . S
C711 C727 1.429 . S
C711 H733 0.950 . S
C712 H708 0.949 . S
C712 C720 1.574 . S
C712 C728 1.368 . S
H713 C721 0.950 . S
H714 C719 0.950 . S
H715 C720 0.949 . S
H716 C722 0.950 1_556 S
H717 C723 0.950 . S
H718 C724 0.949 . S
C719 H714 0.950 . S
C719 C721 1.327 . S
C719 C725 1.429 . S
C720 C712 1.574 . S
C720 H715 0.949 . S
C720 C726 1.368 . S
C721 C705 1.349 . S
C721 H713 0.950 . S
C721 C719 1.327 . S
C722 C710 1.349 1_554 S
C722 H716 0.950 1_554 S
C722 C723 1.327 . S
C723 H717 0.950 . S
C723 C722 1.327 . S
C723 C727 1.429 . S
C724 C707 1.574 . S
C724 H718 0.949 . S
C724 C728 1.368 . S
C725 C706 1.429 . S
C725 C719 1.429 . S
C725 C726 1.523 . S
C726 C707 1.368 . S
C726 C720 1.368 . S
C726 C725 1.523 . S
C727 C711 1.429 . S
C727 C723 1.429 . S
C727 C728 1.523 . S
C728 C712 1.368 . S
C728 C724 1.368 . S
C728 C727 1.523 . S
H729 C704 0.950 . S
H730 C706 0.950 . S
H731 C707 0.949 . S
H732 C709 0.950 . S
H733 C711 0.950 . S
C734 C735 1.374 . S
C734 C736 1.327 . S
C734 H759 0.950 . S
C735 C734 1.374 . S
C735 C751 1.323 1_545 S
C736 C734 1.327 . S
C736 C755 1.429 . S
C736 H760 0.950 . S
C737 C754 1.574 . S
C737 C756 1.368 1_565 S
C737 H761 0.949 . S
H738 C742 0.949 . S
C739 C740 1.349 1_565 S
C739 C741 1.327 . S
C739 H762 0.950 1_554 S
C740 C739 1.349 1_545 S
C740 C752 1.349 . S
C741 C739 1.327 . S
C741 C757 1.429 1_565 S
C741 H763 0.950 . S
C742 H738 0.949 . S
C742 C750 1.574 . S
C742 C758 1.368 . S
H743 C751 0.950 . S
H744 C749 0.950 . S
H745 C750 0.949 . S
H746 C752 0.950 . S
H747 C753 0.950 . S
H748 C754 0.949 . S
C749 H744 0.950 . S
C749 C751 1.327 . S
C749 C755 1.429 1_565 S
C750 C742 1.574 . S
C750 H745 0.949 . S
C750 C756 1.368 . S
C751 C735 1.323 1_565 S
C751 H743 0.950 . S
C751 C749 1.327 . S
C752 C740 1.349 . S
C752 H746 0.950 . S
C752 C753 1.327 . S
C753 H747 0.950 . S
C753 C752 1.327 . S
C753 C757 1.429 . S
C754 C737 1.574 . S
C754 H748 0.949 . S
C754 C758 1.368 1_565 S
C755 C736 1.429 . S
C755 C749 1.429 1_545 S
C755 C756 1.523 . S
C756 C737 1.368 1_545 S
C756 C750 1.368 . S
C756 C755 1.523 . S
C757 C741 1.429 1_545 S
C757 C753 1.429 . S
C757 C758 1.523 . S
C758 C742 1.368 . S
C758 C754 1.368 1_545 S
C758 C757 1.523 . S
H759 C734 0.950 . S
H760 C736 0.950 . S
H761 C737 0.949 . S
H762 C739 0.950 1_556 S
H763 C741 0.950 . S
C764 C765 1.349 . S
C764 C766 1.327 . S
C764 H789 0.950 . S
C765 C764 1.349 . S
C765 C781 1.349 . S
C766 C764 1.327 . S
C766 C785 1.429 . S
C766 H790 0.950 . S
C767 C784 1.574 . S
C767 C786 1.368 . S
C767 H791 0.949 . S
H768 C772 0.949 . S
C769 C770 1.349 . S
C769 C771 1.327 1_556 S
C769 H792 0.950 . S
C770 C769 1.349 . S
C770 C782 1.349 . S
C771 C769 1.327 1_554 S
C771 C787 1.429 . S
C771 H793 0.950 . S
C772 H768 0.949 . S
C772 C780 1.574 . S
C772 C788 1.368 . S
H773 C781 0.950 . S
H774 C779 0.950 . S
H775 C780 0.949 . S
H776 C782 0.950 . S
H777 C783 0.950 . S
H778 C784 0.949 . S
C779 H774 0.950 . S
C779 C781 1.327 . S
C779 C785 1.429 . S
C780 C772 1.574 . S
C780 H775 0.949 . S
C780 C786 1.368 . S
C781 C765 1.349 . S
C781 H773 0.950 . S
C781 C779 1.327 . S
C782 C770 1.349 . S
C782 H776 0.950 . S
C782 C783 1.327 . S
C783 H777 0.950 . S
C783 C782 1.327 . S
C783 C787 1.429 1_556 S
C784 C767 1.574 . S
C784 H778 0.949 . S
C784 C788 1.368 . S
C785 C766 1.429 . S
C785 C779 1.429 . S
C785 C786 1.523 . S
C786 C767 1.368 . S
C786 C780 1.368 . S
C786 C785 1.523 . S
C787 C771 1.429 . S
C787 C783 1.429 1_554 S
C787 C788 1.523 . S
C788 C772 1.368 . S
C788 C784 1.368 . S
C788 C787 1.523 . S
H789 C764 0.950 . S
H790 C766 0.950 . S
H791 C767 0.949 . S
H792 C769 0.950 . S
H793 C771 0.950 . S
C794 C795 1.349 . S
C794 C796 1.327 . S
C794 H819 0.950 . S
C795 C794 1.349 . S
C795 C811 1.349 . S
C796 C794 1.327 . S
C796 C815 1.429 . S
C796 H820 0.950 . S
C797 C814 1.574 . S
C797 C816 1.368 . S
C797 H821 0.949 . S
H798 C802 0.949 . S
C799 C800 1.349 . S
C799 C801 1.327 . S
C799 H822 0.950 . S
C800 C799 1.349 . S
C800 C812 1.349 . S
C801 C799 1.327 . S
C801 C817 1.429 . S
C801 H823 0.950 . S
C802 H798 0.949 . S
C802 C810 1.574 . S
C802 C818 1.368 . S
H803 C811 0.950 . S
H804 C809 0.950 . S
H805 C810 0.949 . S
H806 C812 0.950 . S
H807 C813 0.941 1_554 S
H808 C814 0.949 . S
C809 H804 0.950 . S
C809 C811 1.327 . S
C809 C815 1.429 . S
C810 C802 1.574 . S
C810 H805 0.949 . S
C810 C816 1.368 . S
C811 C795 1.349 . S
C811 H803 0.950 . S
C811 C809 1.327 . S
C812 C800 1.349 . S
C812 H806 0.950 . S
C812 C813 1.336 . S
C813 H807 0.941 1_556 S
C813 C812 1.336 . S
C813 C817 1.428 . S
C814 C797 1.574 . S
C814 H808 0.949 . S
C814 C818 1.368 . S
C815 C796 1.429 . S
C815 C809 1.429 . S
C815 C816 1.523 . S
C816 C797 1.368 . S
C816 C810 1.368 . S
C816 C815 1.523 . S
C817 C801 1.429 . S
C817 C813 1.428 . S
C817 C818 1.523 1_556 S
C818 C802 1.368 . S
C818 C814 1.368 . S
C818 C817 1.523 1_554 S
H819 C794 0.950 . S
H820 C796 0.950 . S
H821 C797 0.949 . S
H822 C799 0.950 . S
H823 C801 0.950 . S
C824 C825 1.349 . S
C824 C826 1.327 . S
C824 H849 0.950 . S
C825 C824 1.349 . S
C825 C841 1.349 . S
C826 C824 1.327 . S
C826 C845 1.429 . S
C826 H850 0.950 . S
C827 C844 1.574 . S
C827 C846 1.368 . S
C827 H851 0.949 . S
H828 C832 0.949 . S
C829 C830 1.349 . S
C829 C831 1.327 . S
C829 H852 0.950 . S
C830 C829 1.349 . S
C830 C842 1.349 . S
C831 C829 1.327 . S
C831 C847 1.429 . S
C831 H853 0.950 . S
C832 H828 0.949 . S
C832 C840 1.574 . S
C832 C848 1.368 . S
H833 C841 0.950 . S
H834 C839 0.950 . S
H835 C840 0.949 . S
H836 C842 0.950 . S
H837 C843 0.950 . S
H838 C844 0.949 . S
C839 H834 0.950 . S
C839 C841 1.327 . S
C839 C845 1.429 . S
C840 C832 1.574 . S
C840 H835 0.949 . S
C840 C846 1.368 . S
C841 C825 1.349 . S
C841 H833 0.950 . S
C841 C839 1.327 . S
C842 C830 1.349 . S
C842 H836 0.950 . S
C842 C843 1.327 . S
C843 H837 0.950 . S
C843 C842 1.327 . S
C843 C847 1.429 . S
C844 C827 1.574 . S
C844 H838 0.949 . S
C844 C848 1.368 . S
C845 C826 1.429 . S
C845 C839 1.429 . S
C845 C846 1.523 . S
C846 C827 1.368 . S
C846 C840 1.368 . S
C846 C845 1.523 . S
C847 C831 1.429 . S
C847 C843 1.429 . S
C847 C848 1.523 . S
C848 C832 1.368 . S
C848 C844 1.368 . S
C848 C847 1.523 . S
H849 C824 0.950 . S
H850 C826 0.950 . S
H851 C827 0.949 . S
H852 C829 0.950 . S
H853 C831 0.950 . S
C854 C855 1.364 . S
C854 C856 1.327 . S
C854 H879 0.950 . S
C855 C854 1.364 . S
C855 C871 1.333 1_565 S
C856 C854 1.327 . S
C856 C875 1.429 . S
C856 H880 0.950 . S
C857 C874 1.574 . S
C857 C876 1.368 1_545 S
C857 H881 0.949 . S
H858 C862 0.949 . S
C859 C860 1.349 1_545 S
C859 C861 1.327 . S
C859 H882 0.950 . S
C860 C859 1.349 1_565 S
C860 C872 1.349 . S
C861 C859 1.327 . S
C861 C877 1.429 1_545 S
C861 H883 0.950 . S
C862 H858 0.949 . S
C862 C870 1.574 . S
C862 C878 1.368 . S
H863 C871 0.950 . S
H864 C869 0.950 . S
H865 C870 0.949 . S
H866 C872 0.950 . S
H867 C873 0.950 . S
H868 C874 0.949 . S
C869 H864 0.950 . S
C869 C871 1.327 . S
C869 C875 1.429 1_545 S
C870 C862 1.574 . S
C870 H865 0.949 . S
C870 C876 1.368 . S
C871 C855 1.333 1_545 S
C871 H863 0.950 . S
C871 C869 1.327 . S
C872 C860 1.349 . S
C872 H866 0.950 . S
C872 C873 1.327 . S
C873 H867 0.950 . S
C873 C872 1.327 . S
C873 C877 1.429 . S
C874 C857 1.574 . S
C874 H868 0.949 . S
C874 C878 1.368 1_545 S
C875 C856 1.429 . S
C875 C869 1.429 1_565 S
C875 C876 1.523 . S
C876 C857 1.368 1_565 S
C876 C870 1.368 . S
C876 C875 1.523 . S
C877 C861 1.429 1_565 S
C877 C873 1.429 . S
C877 C878 1.523 . S
C878 C862 1.368 . S
C878 C874 1.368 1_565 S
C878 C877 1.523 . S
H879 C854 0.950 . S
H880 C856 0.950 . S
H881 C857 0.949 . S
H882 C859 0.950 . S
H883 C861 0.950 . S
C884 C885 1.349 . S
C884 C886 1.327 . S
C884 H909 0.950 . S
C885 C884 1.349 . S
C885 C901 1.349 . S
C886 C884 1.327 . S
C886 C905 1.429 . S
C886 H910 0.950 . S
C887 C904 1.574 . S
C887 C906 1.368 . S
C887 H911 0.949 . S
H888 C892 0.949 . S
C889 C890 1.349 . S
C889 C891 1.327 . S
C889 H912 0.950 . S
C890 C889 1.349 . S
C890 C902 1.349 . S
C891 C889 1.327 . S
C891 C907 1.429 . S
C891 H913 0.950 . S
C892 H888 0.949 . S
C892 C900 1.574 . S
C892 C908 1.368 . S
H893 C901 0.950 . S
H894 C899 0.950 . S
H895 C900 0.949 . S
H896 C902 0.950 . S
H897 C903 0.950 . S
H898 C904 0.949 . S
C899 H894 0.950 . S
C899 C901 1.327 . S
C899 C905 1.429 . S
C900 C892 1.574 . S
C900 H895 0.949 . S
C900 C906 1.368 . S
C901 C885 1.349 . S
C901 H893 0.950 . S
C901 C899 1.327 . S
C902 C890 1.349 . S
C902 H896 0.950 . S
C902 C903 1.327 . S
C903 H897 0.950 . S
C903 C902 1.327 . S
C903 C907 1.429 . S
C904 C887 1.574 . S
C904 H898 0.949 . S
C904 C908 1.368 . S
C905 C886 1.429 . S
C905 C899 1.429 . S
C905 C906 1.523 . S
C906 C887 1.368 . S
C906 C900 1.368 . S
C906 C905 1.523 . S
C907 C891 1.429 . S
C907 C903 1.429 . S
C907 C908 1.523 . S
C908 C892 1.368 . S
C908 C904 1.368 . S
C908 C907 1.523 . S
H909 C884 0.950 . S
H910 C886 0.950 . S
H911 C887 0.949 . S
H912 C889 0.950 . S
H913 C891 0.950 . S
C914 C915 1.349 . S
C914 C916 1.327 . S
C914 H939 0.950 . S
C915 C914 1.349 . S
C915 C931 1.349 . S
C916 C914 1.327 . S
C916 C935 1.429 . S
C916 H940 0.950 . S
C917 C934 1.574 . S
C917 C936 1.368 . S
C917 H941 0.949 . S
H918 C922 0.949 . S
C919 C920 1.349 . S
C919 C921 1.327 . S
C919 H942 0.950 . S
C920 C919 1.349 . S
C920 C932 1.349 . S
C921 C919 1.327 . S
C921 C937 1.429 . S
C921 H943 0.950 . S
C922 H918 0.949 . S
C922 C930 1.574 . S
C922 C938 1.368 . S
H923 C931 0.950 . S
H924 C929 0.950 . S
H925 C930 0.949 . S
H926 C932 0.950 . S
H927 C933 0.950 . S
H928 C934 0.949 . S
C929 H924 0.950 . S
C929 C931 1.327 . S
C929 C935 1.429 . S
C930 C922 1.574 . S
C930 H925 0.949 . S
C930 C936 1.368 . S
C931 C915 1.349 . S
C931 H923 0.950 . S
C931 C929 1.327 . S
C932 C920 1.349 . S
C932 H926 0.950 . S
C932 C933 1.327 . S
C933 H927 0.950 . S
C933 C932 1.327 . S
C933 C937 1.429 . S
C934 C917 1.574 . S
C934 H928 0.949 . S
C934 C938 1.368 . S
C935 C916 1.429 . S
C935 C929 1.429 . S
C935 C936 1.523 . S
C936 C917 1.368 . S
C936 C930 1.368 . S
C936 C935 1.523 . S
C937 C921 1.429 . S
C937 C933 1.429 . S
C937 C938 1.523 . S
C938 C922 1.368 . S
C938 C934 1.368 . S
C938 C937 1.523 . S
H939 C914 0.950 . S
H940 C916 0.950 . S
H941 C917 0.949 . S
H942 C919 0.950 . S
H943 C921 0.950 . S
C225 C82 1.557 1_565 S
C230 C114 1.639 . S
C260 C144 1.804 . S
C255 C95 1.720 . S
C290 N178 1.368 . S
C285 C56 1.321 . S
C320 N208 1.371 . S
C315 C69 1.330 . S
C350 C105 1.640 . S
C345 C30 1.553 . S
C375 C43 1.687 . S
C380 C135 1.810 . S
C405 C4 1.308 . S
C410 N170 1.368 . S
C435 C17 1.282 . S
C440 N200 1.389 . S
C470 C120 0.241 . S
C465 C74 0.406 . S
C500 C150 0.468 . S
C495 C87 0.526 . S
C530 C191 0.744 . S
C525 C100 0.744 . S
C555 C61 0.365 . S
C560 C221 0.335 . S
C585 C22 0.415 . S
C590 C131 0.243 . S
C620 C161 0.468 . S
C615 C35 0.526 1_565 S
C650 C180 0.744 . S
C645 C48 0.744 . S
C675 C9 0.368 . S
C680 C210 0.335 . S
C705 C73 1.472 . S
C710 N110 1.467 . S
C735 C86 1.432 . S
C740 N140 1.422 1_554 S
C770 C165 1.647 . S
C765 C99 1.616 . S
C800 C195 1.589 . S
C795 C60 1.553 . S
C825 C21 1.469 . S
C830 N118 1.477 . S
C860 N148 1.422 . S
C855 C34 1.436 1_565 S
C890 C174 1.647 . S
C885 C47 1.614 . S
C915 C8 1.553 . S
C920 C204 1.589 . S
