# Generated by pormake.
# Topology ftw, (4,12)-cn, num edge types: 1
# Building blocks:
#     Node 0, Type 0, BuildingBlock: NAWXER_clean_linker_0, # of connection points: 4
#     Node 1, Type 0, BuildingBlock: NAWXER_clean_linker_0, # of connection points: 4
#     Node 2, Type 0, BuildingBlock: NAWXER_clean_linker_0, # of connection points: 4
#     Node 3, Type 1, BuildingBlock: QEWDON_clean_sbu_0, # of connection points: 12
#     Edge 4, Type (0, 1), BuildingBlock: OJICUG_clean_linker_0, # of connection points: 2
#     Edge 5, Type (0, 1), BuildingBlock: OJICUG_clean_linker_0, # of connection points: 2
#     Edge 6, Type (0, 1), BuildingBlock: OJICUG_clean_linker_0, # of connection points: 2
#     Edge 7, Type (0, 1), BuildingBlock: OJICUG_clean_linker_0, # of connection points: 2
#     Edge 8, Type (0, 1), BuildingBlock: OJICUG_clean_linker_0, # of connection points: 2
#     Edge 9, Type (0, 1), BuildingBlock: OJICUG_clean_linker_0, # of connection points: 2
#     Edge 10, Type (0, 1), BuildingBlock: OJICUG_clean_linker_0, # of connection points: 2
#     Edge 11, Type (0, 1), BuildingBlock: OJICUG_clean_linker_0, # of connection points: 2
#     Edge 12, Type (0, 1), BuildingBlock: OJICUG_clean_linker_0, # of connection points: 2
#     Edge 13, Type (0, 1), BuildingBlock: OJICUG_clean_linker_0, # of connection points: 2
#     Edge 14, Type (0, 1), BuildingBlock: OJICUG_clean_linker_0, # of connection points: 2
#     Edge 15, Type (0, 1), BuildingBlock: OJICUG_clean_linker_0, # of connection points: 2
# Relax obj value: 0.057
# Max RMSD: 0.154
# Mean RMSD: 0.118
data_MOF--net-ftw--node1-QEWDON_clean_sbu_0--node2-NAWXER_clean_linker_0--edge1-OJICUG_clean_linker_0
_symmetry_space_group_name_H-M    P1
_symmetry_Int_Tables_number       1
_symmetry_cell_setting            triclinic
loop_
_symmetry_equiv_pos_as_xyz
'x, y, z'
_cell_length_a     21.847562
_cell_length_b     23.8637
_cell_length_c     22.959134
_cell_angle_alpha  89.99339
_cell_angle_beta   89.919486
_cell_angle_gamma 89.575169
loop_
_atom_site_label
_atom_site_type_symbol
_atom_site_fract_x
_atom_site_fract_y
_atom_site_fract_z
_atom_type_partial_charge
C0 C 0.04658 0.66392 0.62373 0.0
C1 C 0.00298 0.67159 0.66843 0.0
C2 C 0.03883 0.6223 0.58108 0.0
C3 C -0.01262 0.58723 0.58225 0.0
C4 C 0.95046 0.63783 0.66802 0.0
C5 C 0.94306 0.59601 0.62585 0.0
C6 C 0.98404 0.53591 0.54532 0.0
C7 C 0.96934 0.67392 0.40777 0.0
C8 C 0.01636 0.67338 0.36574 0.0
C9 C 0.9642 0.63015 0.44853 0.0
C10 C 0.00563 0.58467 0.44771 0.0
C11 C 0.05813 0.6282 0.36576 0.0
C12 C 0.05249 0.5843 0.40578 0.0
C13 C -0.00358 0.53415 0.48483 0.0
C14 C 0.93264 0.29693 0.41566 0.0
C15 C 0.97199 0.29242 0.367 0.0
C16 C 0.93787 0.3413 0.45541 0.0
C17 C 0.98384 0.38177 0.44887 0.0
C18 C 0.01886 0.33221 0.36133 0.0
C19 C 0.02462 0.37612 0.40159 0.0
C20 C 0.98551 0.43366 0.48563 0.0
C21 C -0.00709 0.29741 0.62755 0.0
C22 C 0.94576 0.30101 0.66949 0.0
C23 C 0.00031 0.33958 0.58536 0.0
C24 C 0.96056 0.38619 0.58405 0.0
C25 C 0.90544 0.34721 0.66701 0.0
C26 C 0.91291 0.38915 0.62513 0.0
C27 C 0.97227 0.43572 0.54621 0.0
H28 H 0.08736 0.6894 0.62235 0.0
H29 H 0.07459 0.61578 0.54904 0.0
H30 H 0.91623 0.64194 0.70195 0.0
H31 H 0.90337 0.56916 0.62844 0.0
H32 H 0.93653 0.70814 0.4091 0.0
H33 H 0.92663 0.63097 0.47934 0.0
H34 H 0.09445 0.62597 0.33366 0.0
H35 H 0.0845 0.54947 0.40346 0.0
H36 H 0.89652 0.26683 0.42253 0.0
H37 H 0.90409 0.34496 0.48972 0.0
H38 H 0.04969 0.33104 0.32439 0.0
H39 H 0.06019 0.40683 0.3947 0.0
H40 H 0.02462 0.26233 0.62773 0.0
H41 H 0.03835 0.33671 0.55519 0.0
H42 H 0.86928 0.35225 0.69891 0.0
H43 H 0.88206 0.42492 0.62575 0.0
N44 N 0.9722 0.48669 0.57293 0.0
N45 N -0.00303 0.48314 0.45796 0.0
C46 C 0.60022 0.0389 0.71174 0.0
C47 C 0.63686 -0.00821 0.72429 0.0
C48 C 0.55908 0.03783 0.66494 0.0
C49 C 0.55488 0.98995 0.62956 0.0
C50 C 0.63151 0.94366 0.68946 0.0
C51 C 0.59148 0.94303 0.64214 0.0
C52 C 0.51709 0.99014 0.57624 0.0
C53 C 0.38049 0.97869 0.7246 0.0
C54 C 0.33335 0.01923 0.72372 0.0
C55 C 0.42101 0.97338 0.67752 0.0
C56 C 0.41576 0.0091 0.62901 0.0
C57 C 0.32837 0.05472 0.67501 0.0
C58 C 0.36904 0.04974 0.62843 0.0
C59 C 0.45352 0.00107 0.57586 0.0
C60 C 0.37461 0.9535 0.3307 0.0
C61 C 0.33349 -0.00143 0.32341 0.0
C62 C 0.41555 0.95281 0.37777 0.0
C63 C 0.41551 -0.00303 0.41839 0.0
C64 C 0.33407 0.04265 0.36405 0.0
C65 C 0.37429 0.04166 0.41107 0.0
C66 C 0.45334 -0.00503 0.47179 0.0
C67 C 0.5926 0.01438 0.32635 0.0
C68 C 0.6371 0.97154 0.32412 0.0
C69 C 0.55179 0.01783 0.37342 0.0
C70 C 0.55475 0.9784 0.41893 0.0
C71 C 0.63967 0.93227 0.36978 0.0
C72 C 0.59915 0.93578 0.4166 0.0
C73 C 0.51696 0.98435 0.47219 0.0
H74 H 0.60361 0.07649 0.73795 0.0
H75 H 0.53194 0.07484 0.65531 0.0
H76 H 0.65974 0.90701 0.69779 0.0
H77 H 0.58943 0.90596 0.61496 0.0
H78 H 0.38588 0.95077 0.76145 0.0
H79 H 0.45504 0.94021 0.67845 0.0
H80 H 0.29193 0.08557 0.67196 0.0
H81 H 0.36325 0.07725 0.59125 0.0
H82 H 0.37505 0.91896 0.3001 0.0
H83 H 0.446 0.91719 0.3833 0.0
H84 H 0.30225 0.07749 0.36029 0.0
H85 H 0.37279 0.07576 0.44223 0.0
H86 H 0.58949 0.04526 0.29189 0.0
H87 H 0.51922 0.05222 0.37502 0.0
H88 H 0.67415 0.89943 0.37018 0.0
H89 H 0.60308 0.90547 0.45158 0.0
N90 N 0.54611 0.98195 0.52448 0.0
N91 N 0.42444 0.00319 0.52358 0.0
C92 C 0.30486 0.37084 1.00295 0.0
C93 C 0.26368 0.38134 0.04889 0.0
C94 C 0.36179 0.39669 1.00165 0.0
C95 C 0.37899 0.43305 0.04661 0.0
C96 C 0.28046 0.41866 0.09328 0.0
C97 C 0.33752 0.44462 0.09189 0.0
C98 C 0.43792 0.46263 0.04418 0.0
C99 C 0.50173 0.2828 0.07119 0.0
C100 C 0.54007 0.26148 0.02702 0.0
C101 C 0.48296 0.33904 0.07041 0.0
C102 C 0.50215 0.37479 0.02538 0.0
C103 C 0.55581 0.2967 0.98023 0.0
C104 C 0.53733 0.35273 0.97965 0.0
C105 C 0.49389 0.43623 0.02976 0.0
C106 C 0.67743 0.61714 0.06855 0.0
C107 C 0.71572 0.609 0.01993 0.0
C108 C 0.62127 0.59013 0.07222 0.0
C109 C 0.60208 0.55484 0.02712 0.0
C110 C 0.69699 0.57275 0.97531 0.0
C111 C 0.64077 0.54548 0.97917 0.0
C112 C 0.54355 0.52491 0.03143 0.0
C113 C 0.47852 0.70583 1.01106 0.0
C114 C 0.43773 0.72474 0.05452 0.0
C115 C 0.49885 0.65004 1.01036 0.0
C116 C 0.47948 0.61247 0.05365 0.0
C117 C 0.42253 0.68794 0.10013 0.0
C118 C 0.44305 0.6325 0.09954 0.0
C119 C 0.48778 0.5512 0.04688 0.0
H120 H 0.29365 0.34166 0.96852 0.0
H121 H 0.39209 0.38858 0.96519 0.0
H122 H 0.24952 0.42772 0.12902 0.0
H123 H 0.34951 0.47342 0.12646 0.0
H124 H 0.48868 0.25676 0.10772 0.0
H125 H 0.45666 0.35528 0.10677 0.0
H126 H 0.58614 0.28222 0.94596 0.0
H127 H 0.55299 0.3796 0.94468 0.0
H128 H 0.69018 0.64551 0.10322 0.0
H129 H 0.59297 0.59669 0.11043 0.0
H130 H 0.72569 0.56562 0.93749 0.0
H131 H 0.62709 0.51764 0.94434 0.0
H132 H 0.49175 0.73315 0.97563 0.0
H133 H 0.52616 0.63554 0.97389 0.0
H134 H 0.39063 0.70033 0.13396 0.0
H135 H 0.42738 0.60428 0.13332 0.0
N136 N 0.43721 0.51891 0.05249 0.0
N137 N 0.54441 0.46853 0.02355 0.0
Zn138 Zn 0.058 0.11147 0.97239 0.0
Zn139 Zn 0.04685 0.10605 0.11294 0.0
O140 O 0.0429 0.05933 0.04049 0.0
H141 H 0.04387 0.01894 0.0382 0.0
C142 C 0.92159 0.14804 0.86628 0.0
O143 O 0.96967 0.12261 0.88854 0.0
Zn144 Zn 0.9273 0.8738 0.10518 0.0
Zn145 Zn 0.91048 0.89751 0.96727 0.0
O146 O 0.94089 0.93192 0.04337 0.0
H147 H 0.94948 0.97102 0.04997 0.0
Zn148 Zn 0.84587 0.09207 0.96377 0.0
O149 O 0.8993 0.08639 0.03733 0.0
Zn150 Zn 0.84348 0.06777 0.10529 0.0
H151 H 0.87871 0.08993 1.00031 0.0
Zn152 Zn 0.11845 0.87513 0.96282 0.0
O153 O 0.0662 0.88865 0.03631 0.0
H154 H 0.08643 0.88163 0.99958 0.0
Zn155 Zn 0.12295 0.90663 0.10367 0.0
C156 C 0.04148 0.82364 0.8641 0.0
O157 O -0.00162 0.85922 0.87983 0.0
O158 O 0.07382 0.19249 0.99785 0.0
O159 O 0.07515 0.18433 0.09424 0.0
O160 O 0.89642 0.81247 0.97301 0.0
O161 O 0.90005 0.80144 0.06901 0.0
O162 O 0.75512 0.10031 0.98734 0.0
O163 O 0.7552 0.08757 0.08358 0.0
C164 C 0.13399 0.02372 0.162 0.0
O165 O 0.2096 0.86851 0.98567 0.0
O166 O 0.2114 0.88968 0.08026 0.0
O167 O 0.83667 0.93284 0.92287 0.0
C168 C 0.08252 0.21334 0.04816 0.0
O169 O 0.12073 0.08751 0.90904 0.0
C170 C 0.83352 0.94728 0.15711 0.0
O171 O 0.86944 0.14132 0.8901 0.0
C172 C 0.8908 0.78194 0.01814 0.0
O173 O 0.09186 0.82288 0.89207 0.0
C174 C 0.92247 0.12955 0.18264 0.0
O175 O 0.11125 0.07292 0.16515 0.0
O176 O 0.10935 0.98812 0.12799 0.0
C177 C 0.72718 0.09916 0.03614 0.0
O178 O 0.85836 0.89885 0.1572 0.0
O179 O 0.85662 0.98528 0.12498 0.0
C180 C 0.04829 0.8403 0.18291 0.0
O181 O 0.86703 0.11572 0.17487 0.0
O182 O 0.96155 0.11026 0.1465 0.0
C183 C 0.2387 0.87475 0.03336 0.0
O184 O 0.10248 0.85609 0.17184 0.0
O185 O 0.00574 0.85698 0.1491 0.0
C186 C 0.83462 0.97532 0.88953 0.0
O187 O 0.88396 0.00568 0.88227 0.0
C188 C 0.14832 0.04069 0.90379 0.0
O189 O 0.13525 -0.00053 0.93954 0.0
C190 C 0.00957 0.22482 0.28798 0.0
C191 C 0.96115 0.24912 0.32048 0.0
H192 H 0.03601 0.16814 0.21906 0.0
C193 C 0.90105 0.23314 0.3067 0.0
H194 H 0.0566 0.23554 0.29731 0.0
C195 C 0.88956 0.19425 0.26267 0.0
C196 C 0.93756 0.17014 0.22999 0.0
H197 H 0.86218 0.2516 0.32903 0.0
H198 H 0.84234 0.18369 0.2538 0.0
C199 C -0.0021 0.18589 0.24318 0.0
C200 C 0.71208 0.01533 0.25381 0.0
C201 C 0.68203 0.96762 0.27551 0.0
H202 H 0.78359 0.04673 0.19883 0.0
C203 C 0.69836 0.91482 0.25331 0.0
H204 H 0.7005 0.05668 0.27004 0.0
C205 C 0.74612 0.90926 0.21353 0.0
C206 C 0.77872 0.95636 0.1942 0.0
H207 H 0.67508 0.87737 0.26776 0.0
H208 H 0.75827 0.86751 0.19875 0.0
C209 C 0.75994 0.00972 0.21324 0.0
C210 C 0.08044 0.74107 0.30883 0.0
C211 C 0.02246 0.71914 0.32156 0.0
H212 H 0.13365 0.79621 0.25636 0.0
C213 C 0.97166 0.73945 0.2899 0.0
H214 H 0.12041 0.72708 0.33279 0.0
C215 C 0.97924 0.77936 0.24526 0.0
C216 C 0.03771 0.80017 0.23179 0.0
H217 H 0.92637 0.72322 0.29841 0.0
H218 H 0.93956 0.79321 0.2208 0.0
C219 C 0.08791 0.781 0.2649 0.0
C220 C 0.27924 0.05083 0.24468 0.0
C221 C 0.28876 0.00036 0.27473 0.0
H222 H 0.22341 0.09698 0.18531 0.0
C223 C 0.25116 0.95431 0.2618 0.0
H224 H 0.30818 0.08668 0.25272 0.0
C225 C 0.2022 0.96018 0.22253 0.0
C226 C 0.1903 0.01207 0.19589 0.0
H227 H 0.25738 0.91488 0.28447 0.0
H228 H 0.17184 0.92537 0.21593 0.0
C229 C 0.23062 0.05665 0.20601 0.0
C230 C 0.07137 0.71701 0.74327 0.0
C231 C 0.01339 0.71232 0.71707 0.0
H232 H 0.12561 0.75493 0.81015 0.0
C233 C 0.96493 0.74507 0.73952 0.0
H234 H 0.10959 0.69194 0.72782 0.0
C235 C 0.9741 0.78123 0.78687 0.0
C236 C 0.0319 0.78537 0.81349 0.0
H237 H 0.91977 0.74294 0.72029 0.0
H238 H 0.93563 0.80566 0.80287 0.0
C239 C 0.08043 0.75283 0.79094 0.0
C240 C 0.26566 0.97629 0.80088 0.0
C241 C 0.28834 0.02413 0.77234 0.0
H242 H 0.20353 0.94383 0.86488 0.0
C243 C 0.26574 0.07708 0.78898 0.0
H244 H 0.28152 0.93478 0.78884 0.0
C245 C 0.22036 0.08208 0.83144 0.0
C246 C 0.19689 0.03435 0.8592 0.0
H247 H 0.28306 0.11496 0.76912 0.0
H248 H 0.20387 0.12362 0.84267 0.0
C249 C 0.22059 0.98139 0.84412 0.0
C250 C -0.00807 0.23614 0.74517 0.0
C251 C 0.93981 0.25864 0.7174 0.0
H252 H 0.02724 0.18403 0.81368 0.0
C253 C 0.88173 0.24255 0.73795 0.0
H254 H 0.03741 0.24796 0.73126 0.0
C255 C 0.87591 0.2064 0.78572 0.0
C256 C 0.92798 0.18494 0.81423 0.0
H257 H 0.84048 0.25806 0.7172 0.0
H258 H 0.83041 0.19545 0.80043 0.0
C259 C -0.01391 0.19971 0.79285 0.0
C260 C 0.72722 0.03463 0.77457 0.0
C261 C 0.6825 -0.00735 0.772 0.0
H262 H 0.81095 0.06212 0.81371 0.0
C263 C 0.68491 0.94842 0.81219 0.0
H264 H 0.72644 0.0691 0.74386 0.0
C265 C 0.73261 0.94468 0.8524 0.0
C266 C 0.77965 0.98466 0.85279 0.0
H267 H 0.65067 0.91581 0.81143 0.0
H268 H 0.73387 0.90898 0.88152 0.0
C269 C 0.77565 0.0305 0.81441 0.0
C270 C 0.172 0.3391 1.00138 0.0
C271 C 0.20575 0.34976 0.05215 0.0
H272 H 0.10456 0.28814 0.96055 0.0
C273 C 0.18834 0.32387 0.1045 0.0
H274 H 0.18336 0.35969 0.96077 0.0
C275 C 0.14269 0.28327 0.10462 0.0
C276 C 0.11417 0.26767 0.05225 0.0
H277 H 0.21335 0.33143 0.1444 0.0
H278 H 0.1338 0.26082 0.14472 0.0
C279 C 0.12655 0.29841 1.00141 0.0
C280 C 0.3787 0.79185 0.99195 0.0
C281 C 0.4019 0.77765 0.04718 0.0
H282 H 0.30968 0.83544 0.94398 0.0
C283 C 0.38045 0.80769 0.09599 0.0
H284 H 0.39398 0.77 0.95319 0.0
C285 C 0.33091 0.84483 0.09079 0.0
C286 C 0.3023 0.85284 0.03656 0.0
H287 H 0.39864 0.79913 0.13896 0.0
H288 H 0.31187 0.86327 0.13001 0.0
C289 C 0.32967 0.82929 0.98669 0.0
C290 C 0.59889 0.19202 0.08718 0.0
C291 C 0.57201 0.20656 0.03355 0.0
H292 H 0.66876 0.14472 0.13052 0.0
C293 C 0.58604 0.17396 0.98424 0.0
H294 H 0.58911 0.21608 0.12613 0.0
C295 C 0.63231 0.13334 0.98664 0.0
C296 C 0.66507 0.12432 0.03852 0.0
H297 H 0.56485 0.18305 0.94263 0.0
H298 H 0.64599 0.1126 0.94665 0.0
C299 C 0.64484 0.15098 0.08971 0.0
C300 C 0.80945 0.65125 0.06339 0.0
C301 C 0.77243 0.64206 0.01443 0.0
H302 H 0.87793 0.70227 0.10251 0.0
C303 C 0.78509 0.67097 0.96254 0.0
H304 H 0.80171 0.62841 0.10348 0.0
C305 C 0.82921 0.71298 0.96171 0.0
C306 C 0.8609 0.7269 0.01292 0.0
H307 H 0.75743 0.66457 0.92402 0.0
H308 H 0.83432 0.73774 0.92247 0.0
C309 C 0.85337 0.6933 0.06266 0.0
loop_
_geom_bond_atom_site_label_1
_geom_bond_atom_site_label_2
_geom_bond_distance
_geom_bond_site_symmetry_2
_ccdc_geom_bond_type
C0 C1 1.384 1_455 S
C0 C2 1.384 . S
C0 H28 0.931 . S
C1 C0 1.384 1_655 S
C1 C4 1.382 . S
C2 C0 1.384 . S
C2 C3 1.381 1_455 S
C2 H29 0.930 . S
C3 C2 1.381 1_655 S
C3 C5 1.381 . S
C3 C6 1.487 . S
C4 C1 1.382 . S
C4 C5 1.387 . S
C4 H30 0.930 . S
C5 C3 1.381 . S
C5 C4 1.387 . S
C5 H31 0.931 . S
C6 C3 1.487 . S
C6 C13 1.399 1_655 S
C6 N44 1.343 . S
C7 C8 1.384 1_655 S
C7 C9 1.384 . S
C7 H32 0.931 . S
C8 C7 1.384 1_455 S
C8 C11 1.382 . S
C9 C7 1.384 . S
C9 C10 1.381 1_655 S
C9 H33 0.930 . S
C10 C9 1.381 1_455 S
C10 C12 1.381 . S
C10 C13 1.487 . S
C11 C8 1.382 . S
C11 C12 1.387 . S
C11 H34 0.930 . S
C12 C10 1.381 . S
C12 C11 1.387 . S
C12 H35 0.931 . S
C13 C6 1.399 1_455 S
C13 C10 1.487 . S
C13 N45 1.343 . S
C14 C15 1.384 1_655 S
C14 C16 1.384 . S
C14 H36 0.931 . S
C15 C14 1.384 1_455 S
C15 C18 1.382 . S
C16 C14 1.384 . S
C16 C17 1.381 1_655 S
C16 H37 0.930 . S
C17 C16 1.381 1_455 S
C17 C19 1.381 . S
C17 C20 1.487 . S
C18 C15 1.382 . S
C18 C19 1.387 . S
C18 H38 0.930 . S
C19 C17 1.381 . S
C19 C18 1.387 . S
C19 H39 0.931 . S
C20 C17 1.487 . S
C20 C27 1.399 1_455 S
C20 N45 1.343 . S
C21 C22 1.384 1_455 S
C21 C23 1.384 . S
C21 H40 0.931 . S
C22 C21 1.384 1_655 S
C22 C25 1.382 . S
C23 C21 1.384 . S
C23 C24 1.381 1_455 S
C23 H41 0.930 . S
C24 C23 1.381 1_655 S
C24 C26 1.381 . S
C24 C27 1.487 . S
C25 C22 1.382 . S
C25 C26 1.387 . S
C25 H42 0.930 . S
C26 C24 1.381 . S
C26 C25 1.387 . S
C26 H43 0.931 . S
C27 C20 1.399 1_655 S
C27 C24 1.487 . S
C27 N44 1.343 . S
H28 C0 0.931 . S
H29 C2 0.930 . S
H30 C4 0.930 . S
H31 C5 0.931 . S
H32 C7 0.931 . S
H33 C9 0.930 . S
H34 C11 0.930 . S
H35 C12 0.931 . S
H36 C14 0.931 . S
H37 C16 0.930 . S
H38 C18 0.930 . S
H39 C19 0.931 . S
H40 C21 0.931 . S
H41 C23 0.930 . S
H42 C25 0.930 . S
H43 C26 0.931 . S
N44 C6 1.343 . S
N44 C27 1.343 . S
N45 C13 1.343 . S
N45 C20 1.343 . S
C46 C47 1.384 1_545 S
C46 C48 1.384 . S
C46 H74 0.931 . S
C47 C46 1.384 1_565 S
C47 C50 1.382 . S
C48 C46 1.384 . S
C48 C49 1.381 1_545 S
C48 H75 0.930 . S
C49 C48 1.381 1_565 S
C49 C51 1.381 . S
C49 C52 1.487 . S
C50 C47 1.382 . S
C50 C51 1.387 . S
C50 H76 0.930 . S
C51 C49 1.381 . S
C51 C50 1.387 . S
C51 H77 0.931 . S
C52 C49 1.487 . S
C52 C59 1.399 1_565 S
C52 N90 1.343 . S
C53 C54 1.384 1_565 S
C53 C55 1.384 . S
C53 H78 0.931 . S
C54 C53 1.384 1_545 S
C54 C57 1.382 . S
C55 C53 1.384 . S
C55 C56 1.381 1_565 S
C55 H79 0.930 . S
C56 C55 1.381 1_545 S
C56 C58 1.381 . S
C56 C59 1.487 . S
C57 C54 1.382 . S
C57 C58 1.387 . S
C57 H80 0.930 . S
C58 C56 1.381 . S
C58 C57 1.387 . S
C58 H81 0.931 . S
C59 C52 1.399 1_545 S
C59 C56 1.487 . S
C59 N91 1.343 . S
C60 C61 1.384 1_565 S
C60 C62 1.384 . S
C60 H82 0.931 . S
C61 C60 1.384 1_545 S
C61 C64 1.382 . S
C62 C60 1.384 . S
C62 C63 1.381 1_565 S
C62 H83 0.930 . S
C63 C62 1.381 1_545 S
C63 C65 1.381 . S
C63 C66 1.487 . S
C64 C61 1.382 . S
C64 C65 1.387 . S
C64 H84 0.930 . S
C65 C63 1.381 . S
C65 C64 1.387 . S
C65 H85 0.931 . S
C66 C63 1.487 . S
C66 C73 1.399 1_545 S
C66 N91 1.343 . S
C67 C68 1.384 1_545 S
C67 C69 1.384 . S
C67 H86 0.931 . S
C68 C67 1.384 1_565 S
C68 C71 1.382 . S
C69 C67 1.384 . S
C69 C70 1.381 1_545 S
C69 H87 0.930 . S
C70 C69 1.381 1_565 S
C70 C72 1.381 . S
C70 C73 1.487 . S
C71 C68 1.382 . S
C71 C72 1.387 . S
C71 H88 0.930 . S
C72 C70 1.381 . S
C72 C71 1.387 . S
C72 H89 0.931 . S
C73 C66 1.399 1_565 S
C73 C70 1.487 . S
C73 N90 1.343 . S
H74 C46 0.931 . S
H75 C48 0.930 . S
H76 C50 0.930 . S
H77 C51 0.931 . S
H78 C53 0.931 . S
H79 C55 0.930 . S
H80 C57 0.930 . S
H81 C58 0.931 . S
H82 C60 0.931 . S
H83 C62 0.930 . S
H84 C64 0.930 . S
H85 C65 0.931 . S
H86 C67 0.931 . S
H87 C69 0.930 . S
H88 C71 0.930 . S
H89 C72 0.931 . S
N90 C52 1.343 . S
N90 C73 1.343 . S
N91 C59 1.343 . S
N91 C66 1.343 . S
C92 C93 1.384 1_556 S
C92 C94 1.384 . S
C92 H120 0.931 . S
C93 C92 1.384 1_554 S
C93 C96 1.382 . S
C94 C92 1.384 . S
C94 C95 1.381 1_556 S
C94 H121 0.930 . S
C95 C94 1.381 1_554 S
C95 C97 1.381 . S
C95 C98 1.487 . S
C96 C93 1.382 . S
C96 C97 1.387 . S
C96 H122 0.930 . S
C97 C95 1.381 . S
C97 C96 1.387 . S
C97 H123 0.931 . S
C98 C95 1.487 . S
C98 C105 1.399 . S
C98 N136 1.343 . S
C99 C100 1.384 . S
C99 C101 1.384 . S
C99 H124 0.931 . S
C100 C99 1.384 . S
C100 C103 1.382 1_554 S
C101 C99 1.384 . S
C101 C102 1.381 . S
C101 H125 0.930 . S
C102 C101 1.381 . S
C102 C104 1.381 1_554 S
C102 C105 1.487 . S
C103 C100 1.382 1_556 S
C103 C104 1.387 . S
C103 H126 0.930 . S
C104 C102 1.381 1_556 S
C104 C103 1.387 . S
C104 H127 0.931 . S
C105 C98 1.399 . S
C105 C102 1.487 . S
C105 N137 1.343 . S
C106 C107 1.384 . S
C106 C108 1.384 . S
C106 H128 0.931 . S
C107 C106 1.384 . S
C107 C110 1.382 1_554 S
C108 C106 1.384 . S
C108 C109 1.381 . S
C108 H129 0.930 . S
C109 C108 1.381 . S
C109 C111 1.381 1_554 S
C109 C112 1.487 . S
C110 C107 1.382 1_556 S
C110 C111 1.387 . S
C110 H130 0.930 . S
C111 C109 1.381 1_556 S
C111 C110 1.387 . S
C111 H131 0.931 . S
C112 C109 1.487 . S
C112 C119 1.399 . S
C112 N137 1.343 . S
C113 C114 1.384 1_556 S
C113 C115 1.384 . S
C113 H132 0.931 . S
C114 C113 1.384 1_554 S
C114 C117 1.382 . S
C115 C113 1.384 . S
C115 C116 1.381 1_556 S
C115 H133 0.930 . S
C116 C115 1.381 1_554 S
C116 C118 1.381 . S
C116 C119 1.487 . S
C117 C114 1.382 . S
C117 C118 1.387 . S
C117 H134 0.930 . S
C118 C116 1.381 . S
C118 C117 1.387 . S
C118 H135 0.931 . S
C119 C112 1.399 . S
C119 C116 1.487 . S
C119 N136 1.343 . S
H120 C92 0.931 . S
H121 C94 0.930 . S
H122 C96 0.930 . S
H123 C97 0.931 . S
H124 C99 0.931 . S
H125 C101 0.930 . S
H126 C103 0.930 . S
H127 C104 0.931 . S
H128 C106 0.931 . S
H129 C108 0.930 . S
H130 C110 0.930 . S
H131 C111 0.931 . S
H132 C113 0.931 . S
H133 C115 0.930 . S
H134 C117 0.930 . S
H135 C118 0.931 . S
N136 C98 1.343 . S
N136 C119 1.343 . S
N137 C105 1.343 . S
N137 C112 1.343 . S
Zn138 O140 1.933 1_556 S
Zn138 O158 1.985 . S
Zn138 O169 1.955 . S
Zn139 O140 1.911 . S
Zn139 O159 1.970 . S
Zn139 O175 1.945 . S
Zn139 O182 1.981 . S
O140 Zn138 1.933 1_554 S
O140 Zn139 1.911 . S
O140 H141 0.841 . S
H141 O140 0.841 . S
C142 O143 1.246 . S
C142 O171 1.276 1_455 S
O143 C142 1.246 . S
Zn144 O146 1.911 . S
Zn144 O161 1.970 . S
Zn144 O178 1.945 . S
Zn144 O185 1.981 . S
Zn145 O146 1.933 1_556 S
Zn145 O160 1.985 . S
Zn145 O167 1.955 . S
O146 Zn144 1.911 . S
O146 Zn145 1.933 1_554 S
O146 H147 0.841 . S
H147 O146 0.841 . S
Zn148 O149 1.933 1_556 S
Zn148 O162 1.985 . S
Zn148 O171 1.955 . S
O149 Zn148 1.933 1_554 S
O149 Zn150 1.911 . S
O149 H151 0.841 . S
Zn150 O149 1.911 . S
Zn150 O163 1.970 . S
Zn150 O179 1.981 . S
Zn150 O181 1.945 . S
H151 O149 0.841 . S
Zn152 O153 1.933 1_556 S
Zn152 O165 1.985 . S
Zn152 O173 1.955 . S
O153 Zn152 1.933 1_554 S
O153 H154 0.841 . S
O153 Zn155 1.911 . S
H154 O153 0.841 . S
Zn155 O153 1.911 . S
Zn155 O166 1.970 . S
Zn155 O176 1.981 . S
Zn155 O184 1.945 . S
C156 O157 1.246 . S
C156 O173 1.276 1_655 S
O157 C156 1.246 . S
O158 Zn138 1.985 . S
O158 C168 1.245 1_556 S
O159 Zn139 1.970 . S
O159 C168 1.263 . S
O160 Zn145 1.985 . S
O160 C172 1.245 1_556 S
O161 Zn144 1.970 . S
O161 C172 1.263 . S
O162 Zn148 1.985 . S
O162 C177 1.245 1_556 S
O163 Zn150 1.970 . S
O163 C177 1.263 . S
C164 O175 1.263 . S
C164 O176 1.244 1_545 S
O165 Zn152 1.985 . S
O165 C183 1.245 1_556 S
O166 Zn155 1.970 . S
O166 C183 1.263 . S
O167 Zn145 1.955 . S
O167 C186 1.276 1_565 S
C168 O158 1.245 1_554 S
C168 O159 1.263 . S
O169 Zn138 1.955 . S
O169 C188 1.276 1_545 S
C170 O178 1.263 1_545 S
C170 O179 1.244 . S
O171 C142 1.276 1_655 S
O171 Zn148 1.955 . S
C172 O160 1.245 1_554 S
C172 O161 1.263 . S
O173 Zn152 1.955 . S
O173 C156 1.276 1_455 S
C174 O181 1.263 1_455 S
C174 O182 1.244 . S
O175 Zn139 1.945 . S
O175 C164 1.263 . S
O176 Zn155 1.981 . S
O176 C164 1.244 1_565 S
C177 O162 1.245 1_554 S
C177 O163 1.263 . S
O178 Zn144 1.945 . S
O178 C170 1.263 1_565 S
O179 Zn150 1.981 . S
O179 C170 1.244 . S
C180 O184 1.263 . S
C180 O185 1.244 1_455 S
O181 Zn150 1.945 . S
O181 C174 1.263 1_655 S
O182 Zn139 1.981 . S
O182 C174 1.244 . S
C183 O165 1.245 1_554 S
C183 O166 1.263 . S
O184 Zn155 1.945 . S
O184 C180 1.263 . S
O185 Zn144 1.981 . S
O185 C180 1.244 1_655 S
C186 O167 1.276 1_545 S
C186 O187 1.246 . S
O187 C186 1.246 . S
C188 O169 1.276 1_565 S
C188 O189 1.246 . S
O189 C188 1.246 . S
C190 C191 1.387 . S
C190 H194 0.950 . S
C190 C199 1.390 . S
C191 C190 1.387 . S
C191 C193 1.387 1_455 S
H192 C199 0.950 . S
C193 C191 1.387 1_655 S
C193 C195 1.390 . S
C193 H197 0.950 . S
H194 C190 0.950 . S
C195 C193 1.390 . S
C195 C196 1.387 1_655 S
C195 H198 0.950 . S
C196 C195 1.387 1_455 S
C196 C199 1.387 . S
H197 C193 0.950 . S
H198 C195 0.950 . S
C199 C190 1.390 . S
C199 H192 0.950 . S
C199 C196 1.387 . S
C200 C201 1.387 . S
C200 H204 0.950 . S
C200 C209 1.390 . S
C201 C200 1.387 . S
C201 C203 1.387 1_545 S
H202 C209 0.950 . S
C203 C201 1.387 1_565 S
C203 C205 1.390 . S
C203 H207 0.950 . S
H204 C200 0.950 . S
C205 C203 1.390 . S
C205 C206 1.387 1_565 S
C205 H208 0.950 . S
C206 C205 1.387 1_545 S
C206 C209 1.387 . S
H207 C203 0.950 . S
H208 C205 0.950 . S
C209 C200 1.390 . S
C209 H202 0.950 . S
C209 C206 1.387 . S
C210 C211 1.387 1_455 S
C210 H214 0.950 . S
C210 C219 1.390 . S
C211 C210 1.387 1_655 S
C211 C213 1.387 . S
H212 C219 0.950 . S
C213 C211 1.387 . S
C213 C215 1.390 . S
C213 H217 0.950 . S
H214 C210 0.950 . S
C215 C213 1.390 . S
C215 C216 1.387 . S
C215 H218 0.950 . S
C216 C215 1.387 . S
C216 C219 1.387 1_655 S
H217 C213 0.950 . S
H218 C215 0.950 . S
C219 C210 1.390 . S
C219 H212 0.950 . S
C219 C216 1.387 1_455 S
C220 C221 1.387 1_545 S
C220 H224 0.950 . S
C220 C229 1.390 . S
C221 C220 1.387 1_565 S
C221 C223 1.387 . S
H222 C229 0.950 . S
C223 C221 1.387 . S
C223 C225 1.390 . S
C223 H227 0.950 . S
H224 C220 0.950 . S
C225 C223 1.390 . S
C225 C226 1.387 . S
C225 H228 0.950 . S
C226 C225 1.387 . S
C226 C229 1.387 1_565 S
H227 C223 0.950 . S
H228 C225 0.950 . S
C229 C220 1.390 . S
C229 H222 0.950 . S
C229 C226 1.387 1_545 S
C230 C231 1.387 1_455 S
C230 H234 0.950 . S
C230 C239 1.390 . S
C231 C230 1.387 1_655 S
C231 C233 1.387 . S
H232 C239 0.950 . S
C233 C231 1.387 . S
C233 C235 1.390 . S
C233 H237 0.950 . S
H234 C230 0.950 . S
C235 C233 1.390 . S
C235 C236 1.387 . S
C235 H238 0.950 . S
C236 C235 1.387 . S
C236 C239 1.387 1_655 S
H237 C233 0.950 . S
H238 C235 0.950 . S
C239 C230 1.390 . S
C239 H232 0.950 . S
C239 C236 1.387 1_455 S
C240 C241 1.387 . S
C240 H244 0.950 . S
C240 C249 1.390 . S
C241 C240 1.387 . S
C241 C243 1.387 1_565 S
H242 C249 0.950 . S
C243 C241 1.387 1_545 S
C243 C245 1.390 . S
C243 H247 0.950 . S
H244 C240 0.950 . S
C245 C243 1.390 . S
C245 C246 1.387 1_545 S
C245 H248 0.950 . S
C246 C245 1.387 1_565 S
C246 C249 1.387 . S
H247 C243 0.950 . S
H248 C245 0.950 . S
C249 C240 1.390 . S
C249 H242 0.950 . S
C249 C246 1.387 . S
C250 C251 1.387 . S
C250 H254 0.950 . S
C250 C259 1.390 . S
C251 C250 1.387 . S
C251 C253 1.387 1_455 S
H252 C259 0.950 . S
C253 C251 1.387 1_655 S
C253 C255 1.390 . S
C253 H257 0.950 . S
H254 C250 0.950 . S
C255 C253 1.390 . S
C255 C256 1.387 1_655 S
C255 H258 0.950 . S
C256 C255 1.387 1_455 S
C256 C259 1.387 . S
H257 C253 0.950 . S
H258 C255 0.950 . S
C259 C250 1.390 . S
C259 H252 0.950 . S
C259 C256 1.387 . S
C260 C261 1.387 . S
C260 H264 0.950 . S
C260 C269 1.390 . S
C261 C260 1.387 . S
C261 C263 1.387 1_545 S
H262 C269 0.950 . S
C263 C261 1.387 1_565 S
C263 C265 1.390 . S
C263 H267 0.950 . S
H264 C260 0.950 . S
C265 C263 1.390 . S
C265 C266 1.387 1_565 S
C265 H268 0.950 . S
C266 C265 1.387 1_545 S
C266 C269 1.387 . S
H267 C263 0.950 . S
H268 C265 0.950 . S
C269 C260 1.390 . S
C269 H262 0.950 . S
C269 C266 1.387 . S
C270 C271 1.387 1_556 S
C270 H274 0.950 . S
C270 C279 1.390 . S
C271 C270 1.387 1_554 S
C271 C273 1.387 . S
H272 C279 0.950 . S
C273 C271 1.387 . S
C273 C275 1.390 . S
C273 H277 0.950 . S
H274 C270 0.950 . S
C275 C273 1.390 . S
C275 C276 1.387 . S
C275 H278 0.950 . S
C276 C275 1.387 . S
C276 C279 1.387 1_554 S
H277 C273 0.950 . S
H278 C275 0.950 . S
C279 C270 1.390 . S
C279 H272 0.950 . S
C279 C276 1.387 1_556 S
C280 C281 1.387 1_556 S
C280 H284 0.950 . S
C280 C289 1.390 . S
C281 C280 1.387 1_554 S
C281 C283 1.387 . S
H282 C289 0.950 . S
C283 C281 1.387 . S
C283 C285 1.390 . S
C283 H287 0.950 . S
H284 C280 0.950 . S
C285 C283 1.390 . S
C285 C286 1.387 . S
C285 H288 0.950 . S
C286 C285 1.387 . S
C286 C289 1.387 1_554 S
H287 C283 0.950 . S
H288 C285 0.950 . S
C289 C280 1.390 . S
C289 H282 0.950 . S
C289 C286 1.387 1_556 S
C290 C291 1.387 . S
C290 H294 0.950 . S
C290 C299 1.390 . S
C291 C290 1.387 . S
C291 C293 1.387 1_554 S
H292 C299 0.950 . S
C293 C291 1.387 1_556 S
C293 C295 1.390 . S
C293 H297 0.950 . S
H294 C290 0.950 . S
C295 C293 1.390 . S
C295 C296 1.387 1_556 S
C295 H298 0.950 . S
C296 C295 1.387 1_554 S
C296 C299 1.387 . S
H297 C293 0.950 . S
H298 C295 0.950 . S
C299 C290 1.390 . S
C299 H292 0.950 . S
C299 C296 1.387 . S
C300 C301 1.387 . S
C300 H304 0.950 . S
C300 C309 1.390 . S
C301 C300 1.387 . S
C301 C303 1.387 1_554 S
H302 C309 0.950 . S
C303 C301 1.387 1_556 S
C303 C305 1.390 . S
C303 H307 0.950 . S
H304 C300 0.950 . S
C305 C303 1.390 . S
C305 C306 1.387 1_556 S
C305 H308 0.950 . S
C306 C305 1.387 1_554 S
C306 C309 1.387 . S
H307 C303 0.950 . S
H308 C305 0.950 . S
C309 C300 1.390 . S
C309 H302 0.950 . S
C309 C306 1.387 . S
C196 C174 1.835 . S
C191 C15 1.905 . S
C206 C170 1.420 . S
C201 C68 1.527 1_545 S
C216 C180 1.834 1_655 S
C211 C8 1.911 1_655 S
C226 C164 1.417 1_565 S
C221 C61 1.523 1_565 S
C231 C1 2.009 . S
C236 C156 1.909 . S
C246 C188 1.497 . S
C241 C54 1.634 1_565 S
C251 C22 2.013 1_455 S
C256 C142 1.906 . S
C261 C47 1.635 1_545 S
C266 C186 1.499 . S
C271 C93 1.107 . S
C276 C168 1.069 . S
C281 C114 1.086 . S
C286 C183 1.054 . S
C296 C177 1.059 . S
C291 C100 1.086 . S
C306 C172 1.077 . S
C301 C107 1.112 . S
