# Generated by pormake.
# Topology ptr, (4,4)-cn, num edge types: 1
# Building blocks:
#     Node 0, Type 0, BuildingBlock: TATPOV_clean_sbu_0, # of connection points: 4
#     Node 1, Type 0, BuildingBlock: TATPOV_clean_sbu_0, # of connection points: 4
#     Node 2, Type 0, BuildingBlock: TATPOV_clean_sbu_0, # of connection points: 4
#     Node 3, Type 0, BuildingBlock: TATPOV_clean_sbu_0, # of connection points: 4
#     Node 4, Type 0, BuildingBlock: TATPOV_clean_sbu_0, # of connection points: 4
#     Node 5, Type 0, BuildingBlock: TATPOV_clean_sbu_0, # of connection points: 4
#     Node 6, Type 0, BuildingBlock: TATPOV_clean_sbu_0, # of connection points: 4
#     Node 7, Type 0, BuildingBlock: TATPOV_clean_sbu_0, # of connection points: 4
#     Node 8, Type 0, BuildingBlock: TATPOV_clean_sbu_0, # of connection points: 4
#     Node 9, Type 0, BuildingBlock: TATPOV_clean_sbu_0, # of connection points: 4
#     Node 10, Type 0, BuildingBlock: TATPOV_clean_sbu_0, # of connection points: 4
#     Node 11, Type 0, BuildingBlock: TATPOV_clean_sbu_0, # of connection points: 4
#     Node 12, Type 0, BuildingBlock: TATPOV_clean_sbu_0, # of connection points: 4
#     Node 13, Type 0, BuildingBlock: TATPOV_clean_sbu_0, # of connection points: 4
#     Node 14, Type 0, BuildingBlock: TATPOV_clean_sbu_0, # of connection points: 4
#     Node 15, Type 0, BuildingBlock: TATPOV_clean_sbu_0, # of connection points: 4
#     Node 16, Type 0, BuildingBlock: TATPOV_clean_sbu_0, # of connection points: 4
#     Node 17, Type 0, BuildingBlock: TATPOV_clean_sbu_0, # of connection points: 4
#     Node 18, Type 1, BuildingBlock: AZAVOO_clean_linker_0, # of connection points: 4
#     Node 19, Type 1, BuildingBlock: AZAVOO_clean_linker_0, # of connection points: 4
#     Node 20, Type 1, BuildingBlock: AZAVOO_clean_linker_0, # of connection points: 4
#     Node 21, Type 1, BuildingBlock: AZAVOO_clean_linker_0, # of connection points: 4
#     Node 22, Type 1, BuildingBlock: AZAVOO_clean_linker_0, # of connection points: 4
#     Node 23, Type 1, BuildingBlock: AZAVOO_clean_linker_0, # of connection points: 4
#     Node 24, Type 1, BuildingBlock: AZAVOO_clean_linker_0, # of connection points: 4
#     Node 25, Type 1, BuildingBlock: AZAVOO_clean_linker_0, # of connection points: 4
#     Node 26, Type 1, BuildingBlock: AZAVOO_clean_linker_0, # of connection points: 4
#     Node 27, Type 1, BuildingBlock: AZAVOO_clean_linker_0, # of connection points: 4
#     Node 28, Type 1, BuildingBlock: AZAVOO_clean_linker_0, # of connection points: 4
#     Node 29, Type 1, BuildingBlock: AZAVOO_clean_linker_0, # of connection points: 4
#     Node 30, Type 1, BuildingBlock: AZAVOO_clean_linker_0, # of connection points: 4
#     Node 31, Type 1, BuildingBlock: AZAVOO_clean_linker_0, # of connection points: 4
#     Node 32, Type 1, BuildingBlock: AZAVOO_clean_linker_0, # of connection points: 4
#     Node 33, Type 1, BuildingBlock: AZAVOO_clean_linker_0, # of connection points: 4
#     Node 34, Type 1, BuildingBlock: AZAVOO_clean_linker_0, # of connection points: 4
#     Node 35, Type 1, BuildingBlock: AZAVOO_clean_linker_0, # of connection points: 4
#     Edge 36, Type (0, 1), BuildingBlock: EZIPEK_clean_linker_0, # of connection points: 2
#     Edge 37, Type (0, 1), BuildingBlock: EZIPEK_clean_linker_0, # of connection points: 2
#     Edge 38, Type (0, 1), BuildingBlock: EZIPEK_clean_linker_0, # of connection points: 2
#     Edge 39, Type (0, 1), BuildingBlock: EZIPEK_clean_linker_0, # of connection points: 2
#     Edge 40, Type (0, 1), BuildingBlock: EZIPEK_clean_linker_0, # of connection points: 2
#     Edge 41, Type (0, 1), BuildingBlock: EZIPEK_clean_linker_0, # of connection points: 2
#     Edge 42, Type (0, 1), BuildingBlock: EZIPEK_clean_linker_0, # of connection points: 2
#     Edge 43, Type (0, 1), BuildingBlock: EZIPEK_clean_linker_0, # of connection points: 2
#     Edge 44, Type (0, 1), BuildingBlock: EZIPEK_clean_linker_0, # of connection points: 2
#     Edge 45, Type (0, 1), BuildingBlock: EZIPEK_clean_linker_0, # of connection points: 2
#     Edge 46, Type (0, 1), BuildingBlock: EZIPEK_clean_linker_0, # of connection points: 2
#     Edge 47, Type (0, 1), BuildingBlock: EZIPEK_clean_linker_0, # of connection points: 2
#     Edge 48, Type (0, 1), BuildingBlock: EZIPEK_clean_linker_0, # of connection points: 2
#     Edge 49, Type (0, 1), BuildingBlock: EZIPEK_clean_linker_0, # of connection points: 2
#     Edge 50, Type (0, 1), BuildingBlock: EZIPEK_clean_linker_0, # of connection points: 2
#     Edge 51, Type (0, 1), BuildingBlock: EZIPEK_clean_linker_0, # of connection points: 2
#     Edge 52, Type (0, 1), BuildingBlock: EZIPEK_clean_linker_0, # of connection points: 2
#     Edge 53, Type (0, 1), BuildingBlock: EZIPEK_clean_linker_0, # of connection points: 2
#     Edge 54, Type (0, 1), BuildingBlock: EZIPEK_clean_linker_0, # of connection points: 2
#     Edge 55, Type (0, 1), BuildingBlock: EZIPEK_clean_linker_0, # of connection points: 2
#     Edge 56, Type (0, 1), BuildingBlock: EZIPEK_clean_linker_0, # of connection points: 2
#     Edge 57, Type (0, 1), BuildingBlock: EZIPEK_clean_linker_0, # of connection points: 2
#     Edge 58, Type (0, 1), BuildingBlock: EZIPEK_clean_linker_0, # of connection points: 2
#     Edge 59, Type (0, 1), BuildingBlock: EZIPEK_clean_linker_0, # of connection points: 2
#     Edge 60, Type (0, 1), BuildingBlock: EZIPEK_clean_linker_0, # of connection points: 2
#     Edge 61, Type (0, 1), BuildingBlock: EZIPEK_clean_linker_0, # of connection points: 2
#     Edge 62, Type (0, 1), BuildingBlock: EZIPEK_clean_linker_0, # of connection points: 2
#     Edge 63, Type (0, 1), BuildingBlock: EZIPEK_clean_linker_0, # of connection points: 2
#     Edge 64, Type (0, 1), BuildingBlock: EZIPEK_clean_linker_0, # of connection points: 2
#     Edge 65, Type (0, 1), BuildingBlock: EZIPEK_clean_linker_0, # of connection points: 2
#     Edge 66, Type (0, 1), BuildingBlock: EZIPEK_clean_linker_0, # of connection points: 2
#     Edge 67, Type (0, 1), BuildingBlock: EZIPEK_clean_linker_0, # of connection points: 2
#     Edge 68, Type (0, 1), BuildingBlock: EZIPEK_clean_linker_0, # of connection points: 2
#     Edge 69, Type (0, 1), BuildingBlock: EZIPEK_clean_linker_0, # of connection points: 2
#     Edge 70, Type (0, 1), BuildingBlock: EZIPEK_clean_linker_0, # of connection points: 2
#     Edge 71, Type (0, 1), BuildingBlock: EZIPEK_clean_linker_0, # of connection points: 2
#     Edge 72, Type (0, 1), BuildingBlock: EZIPEK_clean_linker_0, # of connection points: 2
#     Edge 73, Type (0, 1), BuildingBlock: EZIPEK_clean_linker_0, # of connection points: 2
#     Edge 74, Type (0, 1), BuildingBlock: EZIPEK_clean_linker_0, # of connection points: 2
#     Edge 75, Type (0, 1), BuildingBlock: EZIPEK_clean_linker_0, # of connection points: 2
#     Edge 76, Type (0, 1), BuildingBlock: EZIPEK_clean_linker_0, # of connection points: 2
#     Edge 77, Type (0, 1), BuildingBlock: EZIPEK_clean_linker_0, # of connection points: 2
#     Edge 78, Type (0, 1), BuildingBlock: EZIPEK_clean_linker_0, # of connection points: 2
#     Edge 79, Type (0, 1), BuildingBlock: EZIPEK_clean_linker_0, # of connection points: 2
#     Edge 80, Type (0, 1), BuildingBlock: EZIPEK_clean_linker_0, # of connection points: 2
#     Edge 81, Type (0, 1), BuildingBlock: EZIPEK_clean_linker_0, # of connection points: 2
#     Edge 82, Type (0, 1), BuildingBlock: EZIPEK_clean_linker_0, # of connection points: 2
#     Edge 83, Type (0, 1), BuildingBlock: EZIPEK_clean_linker_0, # of connection points: 2
#     Edge 84, Type (0, 1), BuildingBlock: EZIPEK_clean_linker_0, # of connection points: 2
#     Edge 85, Type (0, 1), BuildingBlock: EZIPEK_clean_linker_0, # of connection points: 2
#     Edge 86, Type (0, 1), BuildingBlock: EZIPEK_clean_linker_0, # of connection points: 2
#     Edge 87, Type (0, 1), BuildingBlock: EZIPEK_clean_linker_0, # of connection points: 2
#     Edge 88, Type (0, 1), BuildingBlock: EZIPEK_clean_linker_0, # of connection points: 2
#     Edge 89, Type (0, 1), BuildingBlock: EZIPEK_clean_linker_0, # of connection points: 2
#     Edge 90, Type (0, 1), BuildingBlock: EZIPEK_clean_linker_0, # of connection points: 2
#     Edge 91, Type (0, 1), BuildingBlock: EZIPEK_clean_linker_0, # of connection points: 2
#     Edge 92, Type (0, 1), BuildingBlock: EZIPEK_clean_linker_0, # of connection points: 2
#     Edge 93, Type (0, 1), BuildingBlock: EZIPEK_clean_linker_0, # of connection points: 2
#     Edge 94, Type (0, 1), BuildingBlock: EZIPEK_clean_linker_0, # of connection points: 2
#     Edge 95, Type (0, 1), BuildingBlock: EZIPEK_clean_linker_0, # of connection points: 2
#     Edge 96, Type (0, 1), BuildingBlock: EZIPEK_clean_linker_0, # of connection points: 2
#     Edge 97, Type (0, 1), BuildingBlock: EZIPEK_clean_linker_0, # of connection points: 2
#     Edge 98, Type (0, 1), BuildingBlock: EZIPEK_clean_linker_0, # of connection points: 2
#     Edge 99, Type (0, 1), BuildingBlock: EZIPEK_clean_linker_0, # of connection points: 2
#     Edge 100, Type (0, 1), BuildingBlock: EZIPEK_clean_linker_0, # of connection points: 2
#     Edge 101, Type (0, 1), BuildingBlock: EZIPEK_clean_linker_0, # of connection points: 2
#     Edge 102, Type (0, 1), BuildingBlock: EZIPEK_clean_linker_0, # of connection points: 2
#     Edge 103, Type (0, 1), BuildingBlock: EZIPEK_clean_linker_0, # of connection points: 2
#     Edge 104, Type (0, 1), BuildingBlock: EZIPEK_clean_linker_0, # of connection points: 2
#     Edge 105, Type (0, 1), BuildingBlock: EZIPEK_clean_linker_0, # of connection points: 2
#     Edge 106, Type (0, 1), BuildingBlock: EZIPEK_clean_linker_0, # of connection points: 2
#     Edge 107, Type (0, 1), BuildingBlock: EZIPEK_clean_linker_0, # of connection points: 2
# Relax obj value: 0.100
# Max RMSD: 0.272
# Mean RMSD: 0.173
data_MOF--net-ptr--node1-TATPOV_clean_sbu_0--node2-AZAVOO_clean_linker_0--edge1-EZIPEK_clean_linker_0
_symmetry_space_group_name_H-M    P1
_symmetry_Int_Tables_number       1
_symmetry_cell_setting            triclinic
loop_
_symmetry_equiv_pos_as_xyz
'x, y, z'
_cell_length_a     63.369006
_cell_length_b     63.609023
_cell_length_c     52.61546
_cell_angle_alpha  92.803334
_cell_angle_beta   93.624216
_cell_angle_gamma 121.65136
loop_
_atom_site_label
_atom_site_type_symbol
_atom_site_fract_x
_atom_site_fract_y
_atom_site_fract_z
_atom_type_partial_charge
Zn0 Zn 0.96124 0.39728 0.00898 0.0
Zn1 Zn -0.00057 0.39283 0.02626 0.0
O2 O 0.97114 0.35704 0.01609 0.0
O3 O 0.94266 0.36091 0.99502 0.0
O4 O 0.02653 0.38784 0.0404 0.0
O5 O 0.95975 0.40896 0.04539 0.0
O6 O 0.99354 0.40857 0.05728 0.0
C7 C 0.95038 0.34723 0.00237 0.0
C8 C 0.00451 0.42485 0.98255 0.0
O9 O 0.01323 0.41456 0.99624 0.0
O10 O 0.98348 0.42181 0.98572 0.0
C11 C 0.04342 0.40262 0.05792 0.0
O12 O 0.04488 0.42321 0.06619 0.0
C13 C 0.97695 0.41316 0.06238 0.0
Zn14 Zn 0.61676 0.5606 0.05648 0.0
Zn15 Zn 0.62438 0.60618 0.07008 0.0
O16 O 0.65821 0.6128 0.06201 0.0
O17 O 0.65389 0.57633 0.054 0.0
O18 O 0.63331 0.64032 0.08301 0.0
O19 O 0.6011 0.54863 0.08939 0.0
O20 O 0.60824 0.58597 0.09996 0.0
C21 C 0.66739 0.59979 0.05637 0.0
C22 C 0.59184 0.57724 0.02118 0.0
O23 O 0.60078 0.59623 0.03732 0.0
O24 O 0.59581 0.56002 0.02511 0.0
C25 C 0.63637 0.65666 0.06821 0.0
O26 O 0.63259 0.65103 0.04332 0.0
C27 C 0.59992 0.56373 0.10491 0.0
Zn28 Zn 0.40181 0.97016 0.0369 0.0
Zn29 Zn 0.40611 0.01478 0.03576 0.0
O30 O 0.3693 0.9928 0.03912 0.0
O31 O 0.36459 0.95598 0.04029 0.0
O32 O 0.41058 0.04812 0.03333 0.0
O33 O 0.41668 0.97469 0.00278 0.0
O34 O 0.41632 0.00889 0.00132 0.0
C35 C 0.35566 0.96975 0.04145 0.0
C36 C 0.43291 0.00465 0.07993 0.0
O37 O 0.42751 0.01896 0.06907 0.0
O38 O 0.42468 0.98289 0.06989 0.0
C39 C 0.40305 0.05774 0.04926 0.0
O40 O 0.39121 0.04472 0.06785 0.0
C41 C 0.42045 0.99306 0.99099 0.0
Zn42 Zn 0.04886 0.60808 0.07028 0.0
Zn43 Zn 0.01097 0.61522 0.05665 0.0
O44 O 0.0391 0.64983 0.07035 0.0
O45 O 0.07122 0.64569 0.07894 0.0
O46 O 0.98389 0.6205 0.0434 0.0
O47 O 0.04432 0.59119 0.03469 0.0
O48 O 0.01675 0.60105 0.02402 0.0
C49 C 0.06194 0.65914 0.07811 0.0
C50 C 0.00638 0.58357 0.09995 0.0
O51 O 0.99665 0.59223 0.08521 0.0
O52 O 0.02797 0.58774 0.09747 0.0
C53 C 0.98942 0.63611 0.02696 0.0
O54 O 0.01216 0.64816 0.02014 0.0
C55 C 0.02943 0.59171 0.01788 0.0
Zn56 Zn 0.38223 0.43407 0.02378 0.0
Zn57 Zn 0.37904 0.39139 0.00592 0.0
O58 O 0.34344 0.38086 0.01206 0.0
O59 O 0.34485 0.41497 0.02558 0.0
O60 O 0.37413 0.35936 0.99119 0.0
O61 O 0.39702 0.44925 0.99144 0.0
O62 O 0.3953 0.41486 0.97837 0.0
C63 C 0.33265 0.39173 0.01979 0.0
C64 C 0.40936 0.41797 0.05654 0.0
O65 O 0.4014 0.40007 0.03922 0.0
O66 O 0.40422 0.4346 0.05425 0.0
C67 C 0.36148 0.34016 0.00277 0.0
O68 O 0.353 0.342 0.02438 0.0
C69 C 0.40115 0.43691 0.97508 0.0
Zn70 Zn 0.59948 0.03332 0.04877 0.0
Zn71 Zn 0.59821 0.98956 0.05041 0.0
O72 O 0.63334 0.01573 0.04381 0.0
O73 O 0.63658 0.05194 0.04436 0.0
O74 O 0.60271 0.96099 0.05438 0.0
O75 O 0.58733 0.02875 0.08424 0.0
O76 O 0.58707 0.99393 0.08475 0.0
C77 C 0.64617 0.0389 0.04189 0.0
C78 C 0.56711 0.99363 0.00749 0.0
O79 O 0.57318 0.98016 0.01911 0.0
O80 O 0.57534 0.01579 0.01639 0.0
C81 C 0.61462 0.95636 0.03881 0.0
O82 O 0.62132 0.96838 0.01833 0.0
C83 C 0.58365 0.01011 0.09546 0.0
Zn84 Zn 0.62438 0.72016 0.35519 0.0
Zn85 Zn 0.66482 0.71731 0.36165 0.0
O86 O 0.63764 0.68118 0.35249 0.0
O87 O 0.60423 0.6831 0.34368 0.0
O88 O 0.69471 0.71514 0.37186 0.0
O89 O 0.62734 0.73291 0.39159 0.0
O90 O 0.66292 0.73432 0.39511 0.0
C91 C 0.61461 0.67069 0.34495 0.0
C92 C 0.66087 0.74672 0.31991 0.0
O93 O 0.67151 0.73613 0.32941 0.0
O94 O 0.64236 0.74499 0.32979 0.0
C95 C 0.6917 0.70188 0.39025 0.0
O96 O 0.6702 0.69077 0.39991 0.0
C97 C 0.64735 0.73853 0.4046 0.0
Zn98 Zn 0.2759 0.89271 0.39155 0.0
Zn99 Zn 0.28492 0.93828 0.40224 0.0
O100 O 0.31969 0.94573 0.39756 0.0
O101 O 0.31204 0.90886 0.38367 0.0
O102 O 0.29159 0.9722 0.41309 0.0
O103 O 0.26543 0.88297 0.42647 0.0
O104 O 0.26869 0.91911 0.43303 0.0
C105 C 0.32705 0.93206 0.38844 0.0
C106 C 0.25049 0.90549 0.35464 0.0
O107 O 0.26373 0.92679 0.3672 0.0
O108 O 0.2499 0.8869 0.36308 0.0
C109 C 0.28313 0.98359 0.4012 0.0
O110 O 0.26863 0.97327 0.37964 0.0
C111 C 0.26292 0.89813 0.44038 0.0
Zn112 Zn 0.06136 0.29096 0.35416 0.0
Zn113 Zn 0.06244 0.33272 0.35773 0.0
O114 O 0.02625 0.30943 0.36161 0.0
O115 O 0.02589 0.27488 0.36528 0.0
O116 O 0.06445 0.36512 0.3583 0.0
O117 O 0.06696 0.29317 0.31682 0.0
O118 O 0.07167 0.32962 0.32149 0.0
C119 C 0.01498 0.28683 0.36608 0.0
C120 C 0.09351 0.32261 0.39686 0.0
O121 O 0.08318 0.33443 0.39039 0.0
O122 O 0.09073 0.30511 0.38163 0.0
C123 C 0.07158 0.38182 0.37671 0.0
O124 O 0.08045 0.37971 0.39903 0.0
C125 C 0.07092 0.31256 0.30707 0.0
Zn126 Zn 0.71639 0.94339 0.40411 0.0
Zn127 Zn 0.67354 0.94132 0.38623 0.0
O128 O 0.69752 0.9779 0.39868 0.0
O129 O 0.73286 0.98069 0.41145 0.0
O130 O 0.6447 0.94079 0.36717 0.0
O131 O 0.71822 0.92863 0.36981 0.0
O132 O 0.68381 0.92741 0.35698 0.0
C133 C 0.72025 0.99069 0.40794 0.0
C134 C 0.67242 0.91404 0.43193 0.0
O135 O 0.66068 0.91979 0.41602 0.0
O136 O 0.69511 0.92133 0.43041 0.0
C137 C 0.6387 0.95678 0.37091 0.0
O138 O 0.64992 0.97392 0.39035 0.0
C139 C 0.70094 0.92338 0.3525 0.0
Zn140 Zn 0.07112 0.77389 0.36677 0.0
Zn141 Zn 0.05852 0.72766 0.34903 0.0
O142 O 0.02575 0.72287 0.35875 0.0
O143 O 0.03438 0.76068 0.36982 0.0
O144 O 0.04857 0.69354 0.33483 0.0
O145 O 0.08748 0.78681 0.33435 0.0
O146 O 0.0736 0.74844 0.31913 0.0
C147 C 0.01893 0.73747 0.36638 0.0
C148 C 0.0928 0.75253 0.3985 0.0
O149 O 0.08254 0.73468 0.38083 0.0
O150 O 0.09072 0.77118 0.39701 0.0
C151 C 0.0353 0.67494 0.34697 0.0
O152 O 0.02816 0.67809 0.36898 0.0
C153 C 0.08509 0.77152 0.31633 0.0
Zn154 Zn 0.25602 0.36455 0.37724 0.0
Zn155 Zn 0.25641 0.32284 0.37399 0.0
O156 O 0.29234 0.34916 0.37086 0.0
O157 O 0.29221 0.3836 0.36898 0.0
O158 O 0.25895 0.29284 0.3753 0.0
O159 O 0.24716 0.36037 0.41348 0.0
O160 O 0.2427 0.32361 0.40827 0.0
C161 C 0.30351 0.37209 0.36771 0.0
C162 C 0.22508 0.33013 0.33351 0.0
O163 O 0.23515 0.31825 0.3407 0.0
O164 O 0.22844 0.34855 0.34769 0.0
C165 C 0.27046 0.28773 0.35969 0.0
O166 O 0.27917 0.301 0.34031 0.0
C167 C 0.24116 0.33982 0.42179 0.0
Zn168 Zn 0.28623 0.04682 0.67579 0.0
Zn169 Zn 0.33184 0.05391 0.69299 0.0
O170 O 0.31024 0.01686 0.68158 0.0
O171 O 0.27349 0.01038 0.66765 0.0
O172 O 0.36292 0.05743 0.71041 0.0
O173 O 0.2836 0.05996 0.71053 0.0
O174 O 0.32045 0.06589 0.72272 0.0
C175 C 0.2878 0.00238 0.67198 0.0
C176 C 0.32825 0.08009 0.64787 0.0
O177 O 0.34165 0.07563 0.66302 0.0
O178 O 0.30527 0.07069 0.65002 0.0
C179 C 0.37044 0.04313 0.70399 0.0
O180 O 0.35959 0.02728 0.68351 0.0
C181 C 0.30175 0.06724 0.72743 0.0
Zn182 Zn 0.93506 0.22368 0.72501 0.0
Zn183 Zn 0.94704 0.27063 0.73305 0.0
O184 O 0.98058 0.27504 0.72798 0.0
O185 O 0.97105 0.23677 0.7181 0.0
O186 O 0.95667 0.30573 0.74231 0.0
O187 O 0.92334 0.21593 0.75987 0.0
O188 O 0.92992 0.25361 0.7645 0.0
C189 C 0.98695 0.25989 0.72116 0.0
C190 C 0.9119 0.23786 0.68623 0.0
O191 O 0.92563 0.25935 0.69829 0.0
O192 O 0.91055 0.21917 0.69538 0.0
C193 C 0.94201 0.31347 0.73872 0.0
O194 O 0.91928 0.2984 0.72764 0.0
C195 C 0.92228 0.23256 0.77281 0.0
Zn196 Zn 0.73861 0.63007 0.7001 0.0
Zn197 Zn 0.73845 0.67317 0.70127 0.0
O198 O 0.70329 0.64603 0.70689 0.0
O199 O 0.70154 0.61045 0.70417 0.0
O200 O 0.73423 0.70209 0.69947 0.0
O201 O 0.75095 0.63664 0.66479 0.0
O202 O 0.75023 0.67099 0.66658 0.0
C203 C 0.69114 0.62263 0.70745 0.0
C204 C 0.76964 0.66782 0.74316 0.0
O205 O 0.7631 0.68138 0.73252 0.0
O206 O 0.76224 0.64623 0.73304 0.0
C207 C 0.72198 0.70617 0.71508 0.0
O208 O 0.71393 0.69273 0.73446 0.0
C209 C 0.7542 0.65568 0.65475 0.0
Zn210 Zn 0.3767 0.28385 0.73198 0.0
Zn211 Zn 0.33305 0.28081 0.71659 0.0
O212 O 0.35718 0.31758 0.72843 0.0
O213 O 0.39281 0.32086 0.74076 0.0
O214 O 0.30296 0.28065 0.70168 0.0
O215 O 0.37728 0.27025 0.69645 0.0
O216 O 0.34135 0.26678 0.68558 0.0
C217 C 0.37991 0.3306 0.73766 0.0
C218 C 0.33472 0.25322 0.76124 0.0
O219 O 0.32235 0.25925 0.7466 0.0
O220 O 0.3573 0.26084 0.75853 0.0
C221 C 0.30709 0.29546 0.6846 0.0
O222 O 0.32982 0.30923 0.6781 0.0
C223 C 0.35901 0.26394 0.67999 0.0
Zn224 Zn 0.73364 0.10756 0.70007 0.0
Zn225 Zn 0.72216 0.06143 0.68336 0.0
O226 O 0.68915 0.05599 0.69285 0.0
O227 O 0.6967 0.09361 0.70261 0.0
O228 O 0.71295 0.02739 0.66968 0.0
O229 O 0.75 0.12024 0.66765 0.0
O230 O 0.73649 0.0818 0.65306 0.0
C231 C 0.68174 0.07031 0.69964 0.0
C232 C 0.75613 0.08756 0.73274 0.0
O233 O 0.74641 0.06953 0.71528 0.0
O234 O 0.75336 0.10575 0.73077 0.0
C235 C 0.69945 0.00874 0.68164 0.0
O236 O 0.69174 0.01177 0.70332 0.0
C237 C 0.74761 0.10478 0.64984 0.0
Zn238 Zn 0.94515 0.7107 0.7299 0.0
Zn239 Zn 0.93627 0.66462 0.71671 0.0
O240 O 0.97278 0.68741 0.71312 0.0
O241 O 0.98116 0.72544 0.72161 0.0
O242 O 0.93319 0.63164 0.71228 0.0
O243 O 0.935 0.70182 0.76549 0.0
O244 O 0.92595 0.66422 0.75283 0.0
C245 C 0.98794 0.71071 0.71465 0.0
C246 C 0.9105 0.6838 0.68365 0.0
O247 O 0.91548 0.66707 0.68693 0.0
O248 O 0.91894 0.70231 0.70021 0.0
C249 C 0.94343 0.62615 0.6954 0.0
O250 O 0.95338 0.64082 0.67727 0.0
C251 C 0.92672 0.67956 0.76989 0.0
H252 H 0.15959 0.40681 0.99062 0.0
H253 H 0.24772 0.25192 0.1424 0.0
H254 H 0.1529 0.38012 0.1425 0.0
H255 H 0.12737 0.39728 0.12946 0.0
H256 H 0.07958 0.33163 0.07771 0.0
H257 H 0.10493 0.31442 0.09085 0.0
H258 H 0.17869 0.38622 0.09381 0.0
H259 H 0.1747 0.40212 0.05354 0.0
H260 H 0.13794 0.32793 0.01519 0.0
H261 H 0.14213 0.31229 0.05562 0.0
H262 H 0.21917 0.37587 0.09927 0.0
H263 H 0.25296 0.38559 0.07273 0.0
H264 H 0.21566 0.30851 0.04369 0.0
H265 H 0.18184 0.2986 0.07097 0.0
H266 H 0.23333 0.34801 0.13307 0.0
H267 H 0.2607 0.3318 0.1371 0.0
H268 H 0.19626 0.25762 0.13683 0.0
H269 H 0.16903 0.27406 0.13246 0.0
H270 H 0.21378 0.34605 0.17759 0.0
H271 H 0.22367 0.34202 0.22178 0.0
H272 H 0.14673 0.28515 0.22593 0.0
H273 H 0.13732 0.28704 0.18025 0.0
H274 H 0.17092 0.35983 0.19099 0.0
H275 H 0.14883 0.35644 0.22881 0.0
H276 H 0.07969 0.29976 0.18624 0.0
H277 H 0.10191 0.30229 0.14884 0.0
O278 O 0.16128 0.40018 0.00625 0.0
O279 O 0.14329 0.36185 0.98721 0.0
O280 O 0.26978 0.29729 0.14044 0.0
O281 O 0.2373 0.25883 0.14084 0.0
C282 C 0.14835 0.3376 0.12196 0.0
C283 C 0.16274 0.33846 0.10215 0.0
C284 C 0.17997 0.33101 0.10588 0.0
C285 C 0.18234 0.32182 0.12909 0.0
C286 C 0.16882 0.32197 0.14947 0.0
C287 C 0.15189 0.33012 0.14589 0.0
C288 C 0.13068 0.34602 0.11765 0.0
C289 C 0.13654 0.36918 0.12887 0.0
C290 C 0.12213 0.37899 0.12137 0.0
C291 C 0.10176 0.36569 0.1026 0.0
C292 C 0.09525 0.34207 0.09224 0.0
C293 C 0.1096 0.33226 0.09976 0.0
C294 C 0.16051 0.3481 0.07762 0.0
C295 C 0.16973 0.37344 0.07669 0.0
C296 C 0.16749 0.38247 0.05365 0.0
C297 C 0.15588 0.36627 0.03117 0.0
C298 C 0.14689 0.34089 0.03217 0.0
C299 C 0.14926 0.33191 0.05521 0.0
C300 C 0.19825 0.33654 0.08711 0.0
C301 C 0.21805 0.36112 0.08688 0.0
C302 C 0.23726 0.36665 0.07181 0.0
C303 C 0.23678 0.34773 0.05652 0.0
C304 C 0.21623 0.32328 0.05548 0.0
C305 C 0.19709 0.31765 0.07098 0.0
C306 C 0.19915 0.31217 0.13213 0.0
C307 C 0.22513 0.32824 0.13363 0.0
C308 C 0.24074 0.31894 0.13609 0.0
C309 C 0.23066 0.29338 0.13719 0.0
C310 C 0.20463 0.27739 0.13596 0.0
C311 C 0.18903 0.28672 0.13349 0.0
C312 C 0.17484 0.31675 0.1754 0.0
C313 C 0.19922 0.33177 0.18744 0.0
C314 C 0.20481 0.32967 0.21282 0.0
C315 C 0.18591 0.31342 0.22723 0.0
C316 C 0.16161 0.29771 0.21512 0.0
C317 C 0.15624 0.29895 0.18917 0.0
C318 C 0.13807 0.33102 0.16729 0.0
C319 C 0.15097 0.34683 0.18976 0.0
C320 C 0.13843 0.34493 0.21126 0.0
C321 C 0.11275 0.32763 0.21034 0.0
C322 C 0.09956 0.31307 0.18731 0.0
C323 C 0.11218 0.3146 0.166 0.0
C324 C 0.15308 0.37587 0.00684 0.0
C325 C 0.24717 0.28339 0.13959 0.0
H326 H 0.64591 0.79892 0.97719 0.0
H327 H 0.70016 0.99633 0.18263 0.0
H328 H 0.63973 0.78918 0.11252 0.0
H329 H 0.63078 0.74833 0.09644 0.0
H330 H 0.70528 0.76909 0.12461 0.0
H331 H 0.71472 0.81078 0.1398 0.0
H332 H 0.63861 0.82377 0.08341 0.0
H333 H 0.63445 0.81155 0.03773 0.0
H334 H 0.71111 0.8309 0.04444 0.0
H335 H 0.71515 0.84346 0.09006 0.0
H336 H 0.63363 0.85609 0.12093 0.0
H337 H 0.61925 0.8782 0.09525 0.0
H338 H 0.69093 0.91868 0.06611 0.0
H339 H 0.70536 0.8963 0.09187 0.0
H340 H 0.64922 0.87378 0.17805 0.0
H341 H 0.64832 0.91066 0.19145 0.0
H342 H 0.71726 0.95647 0.15838 0.0
H343 H 0.71813 0.91947 0.14544 0.0
H344 H 0.65496 0.83627 0.20553 0.0
H345 H 0.65921 0.85153 0.25057 0.0
H346 H 0.73267 0.91371 0.24225 0.0
H347 H 0.72837 0.89852 0.19719 0.0
H348 H 0.65262 0.78761 0.169 0.0
H349 H 0.65121 0.76491 0.20532 0.0
H350 H 0.72072 0.82843 0.23992 0.0
H351 H 0.72457 0.84935 0.20108 0.0
O352 O 0.64801 0.80402 0.99527 0.0
O353 O 0.68746 0.81406 0.99978 0.0
O354 O 0.66529 0.95721 0.19538 0.0
O355 O 0.70021 0.98147 0.17782 0.0
C356 C 0.68289 0.8279 0.13596 0.0
C357 C 0.67997 0.84218 0.11784 0.0
C358 C 0.67946 0.86325 0.12623 0.0
C359 C 0.68418 0.87154 0.15247 0.0
C360 C 0.68822 0.85804 0.17058 0.0
C361 C 0.68727 0.8359 0.1625 0.0
C362 C 0.67802 0.8031 0.12695 0.0
C363 C 0.65432 0.78515 0.11487 0.0
C364 C 0.64915 0.76183 0.10586 0.0
C365 C 0.66741 0.75584 0.10925 0.0
C366 C 0.69105 0.77355 0.12173 0.0
C367 C 0.69639 0.79718 0.13042 0.0
C368 C 0.6773 0.83488 0.08999 0.0
C369 C 0.65459 0.8257 0.07492 0.0
C370 C 0.65222 0.81856 0.04885 0.0
C371 C 0.67248 0.82032 0.0374 0.0
C372 C 0.69516 0.82938 0.05262 0.0
C373 C 0.69752 0.83657 0.07868 0.0
C374 C 0.67051 0.87473 0.10824 0.0
C375 C 0.64608 0.8694 0.10864 0.0
C376 C 0.63787 0.88187 0.09399 0.0
C377 C 0.65405 0.8999 0.07885 0.0
C378 C 0.67822 0.90462 0.07761 0.0
C379 C 0.68643 0.89199 0.09225 0.0
C380 C 0.68384 0.894 0.16097 0.0
C381 C 0.66422 0.89183 0.17394 0.0
C382 C 0.6637 0.9129 0.18147 0.0
C383 C 0.68274 0.93653 0.17599 0.0
C384 C 0.70234 0.93859 0.16294 0.0
C385 C 0.70288 0.9175 0.15551 0.0
C386 C 0.69138 0.86631 0.19818 0.0
C387 C 0.67206 0.85303 0.21352 0.0
C388 C 0.67447 0.86169 0.23909 0.0
C389 C 0.69624 0.88369 0.24958 0.0
C390 C 0.71579 0.89666 0.23441 0.0
C391 C 0.71332 0.88808 0.20882 0.0
C392 C 0.68867 0.82037 0.18216 0.0
C393 C 0.66843 0.79614 0.18346 0.0
C394 C 0.66742 0.78329 0.20452 0.0
C395 C 0.68553 0.79515 0.22573 0.0
C396 C 0.70647 0.81884 0.2239 0.0
C397 C 0.70848 0.8309 0.20185 0.0
C398 C 0.66987 0.81264 0.00971 0.0
C399 C 0.68214 0.95896 0.1837 0.0
H400 H 0.14821 0.80771 0.97895 0.0
H401 H 0.31216 0.02346 0.17889 0.0
H402 H 0.12199 0.81701 0.10922 0.0
H403 H 0.09555 0.77231 0.0953 0.0
H404 H 0.14755 0.75968 0.13814 0.0
H405 H 0.17381 0.80423 0.15223 0.0
H406 H 0.16127 0.86382 0.07629 0.0
H407 H 0.15308 0.84436 0.03255 0.0
H408 H 0.18326 0.80077 0.05773 0.0
H409 H 0.19158 0.82055 0.10128 0.0
H410 H 0.2093 0.92035 0.0986 0.0
H411 H 0.24443 0.94395 0.07294 0.0
H412 H 0.2677 0.89212 0.08444 0.0
H413 H 0.23319 0.86896 0.11015 0.0
H414 H 0.19432 0.92765 0.16122 0.0
H415 H 0.22424 0.97212 0.17186 0.0
H416 H 0.28485 0.9605 0.16289 0.0
H417 H 0.25478 0.91616 0.15207 0.0
H418 H 0.16225 0.88058 0.20569 0.0
H419 H 0.17368 0.8882 0.25229 0.0
H420 H 0.24832 0.9077 0.24029 0.0
H421 H 0.23609 0.89679 0.19465 0.0
H422 H 0.1222 0.82916 0.16721 0.0
H423 H 0.09947 0.80667 0.20264 0.0
H424 H 0.16758 0.81808 0.24052 0.0
H425 H 0.18993 0.83906 0.20428 0.0
O426 O 0.15181 0.81533 0.99632 0.0
O427 O 0.16712 0.79306 0.01035 0.0
O428 O 0.26812 0.01091 0.17963 0.0
O429 O 0.29992 0.00597 0.17476 0.0
C430 C 0.16722 0.84082 0.13779 0.0
C431 C 0.18124 0.85504 0.11855 0.0
C432 C 0.20009 0.88023 0.12461 0.0
C433 C 0.2039 0.89169 0.14961 0.0
C434 C 0.19033 0.87735 0.16918 0.0
C435 C 0.17193 0.85177 0.16315 0.0
C436 C 0.14969 0.81373 0.1318 0.0
C437 C 0.12742 0.80451 0.11592 0.0
C438 C 0.11247 0.77918 0.10795 0.0
C439 C 0.11981 0.76294 0.11566 0.0
C440 C 0.14173 0.77206 0.13205 0.0
C441 C 0.15654 0.79732 0.14017 0.0
C442 C 0.17674 0.84339 0.09198 0.0
C443 C 0.16613 0.85009 0.07228 0.0
C444 C 0.16145 0.83892 0.04734 0.0
C445 C 0.1674 0.82091 0.04167 0.0
C446 C 0.17835 0.81449 0.06145 0.0
C447 C 0.18303 0.82568 0.08637 0.0
C448 C 0.21875 0.89298 0.10624 0.0
C449 C 0.2217 0.91387 0.09511 0.0
C450 C 0.24154 0.92717 0.08042 0.0
C451 C 0.25846 0.9196 0.07682 0.0
C452 C 0.25467 0.89804 0.08686 0.0
C453 C 0.23504 0.88489 0.10152 0.0
C454 C 0.22233 0.91871 0.15558 0.0
C455 C 0.21406 0.93478 0.16142 0.0
C456 C 0.23119 0.96015 0.16753 0.0
C457 C 0.25695 0.96989 0.16807 0.0
C458 C 0.26516 0.95366 0.16243 0.0
C459 C 0.24801 0.92833 0.15614 0.0
C460 C 0.19828 0.88802 0.19651 0.0
C461 C 0.18116 0.88681 0.21311 0.0
C462 C 0.18771 0.89136 0.23966 0.0
C463 C 0.21187 0.89851 0.24976 0.0
C464 C 0.2296 0.90226 0.23293 0.0
C465 C 0.2227 0.89635 0.20673 0.0
C466 C 0.15783 0.83618 0.18342 0.0
C467 C 0.13211 0.82637 0.1829 0.0
C468 C 0.11921 0.81367 0.2031 0.0
C469 C 0.13197 0.81116 0.2244 0.0
C470 C 0.15747 0.82007 0.22439 0.0
C471 C 0.17021 0.83208 0.20383 0.0
C472 C 0.16215 0.80888 0.01522 0.0
C473 C 0.27524 0.99682 0.17452 0.0
H474 H 0.34044 0.20337 0.09615 0.0
H475 H 0.36192 0.03327 0.90202 0.0
H476 H 0.29726 0.18282 0.9604 0.0
H477 H 0.30343 0.2233 0.97473 0.0
H478 H 0.37324 0.26042 0.9416 0.0
H479 H 0.36701 0.22005 0.92713 0.0
H480 H 0.30644 0.1454 0.99619 0.0
H481 H 0.31426 0.16393 0.04029 0.0
H482 H 0.38434 0.22645 0.02295 0.0
H483 H 0.37629 0.20772 0.97895 0.0
H484 H 0.31369 0.0978 0.97201 0.0
H485 H 0.3333 0.08161 0.00012 0.0
H486 H 0.40255 0.1525 0.00667 0.0
H487 H 0.38347 0.16823 0.97754 0.0
H488 H 0.2934 0.08434 0.91146 0.0
H489 H 0.29599 0.04785 0.9013 0.0
H490 H 0.37605 0.09282 0.91912 0.0
H491 H 0.37324 0.12922 0.92879 0.0
H492 H 0.28106 0.11798 0.87665 0.0
H493 H 0.27305 0.09942 0.83221 0.0
H494 H 0.35043 0.12259 0.83305 0.0
H495 H 0.35848 0.14124 0.87733 0.0
H496 H 0.28547 0.16851 0.89786 0.0
H497 H 0.28089 0.18914 0.86119 0.0
H498 H 0.35347 0.20802 0.8415 0.0
H499 H 0.35809 0.18767 0.87796 0.0
O500 O 0.3378 0.19629 0.07868 0.0
O501 O 0.37343 0.22822 0.06863 0.0
O502 O 0.3192 0.02519 0.89641 0.0
O503 O 0.36036 0.04741 0.90581 0.0
C504 C 0.33 0.17471 0.93737 0.0
C505 C 0.33564 0.16402 0.95758 0.0
C506 C 0.33707 0.14284 0.95228 0.0
C507 C 0.33143 0.13152 0.92693 0.0
C508 C 0.32518 0.14191 0.90689 0.0
C509 C 0.32506 0.16383 0.912 0.0
C510 C 0.33167 0.19862 0.9427 0.0
C511 C 0.31358 0.19969 0.95577 0.0
C512 C 0.3171 0.22264 0.96393 0.0
C513 C 0.3388 0.24463 0.95921 0.0
C514 C 0.3564 0.24354 0.9453 0.0
C515 C 0.3528 0.22063 0.93699 0.0
C516 C 0.34067 0.17533 0.98435 0.0
C517 C 0.32346 0.1631 0.00198 0.0
C518 C 0.32797 0.17373 0.02714 0.0
C519 C 0.34987 0.19674 0.03512 0.0
C520 C 0.36724 0.20877 0.01742 0.0
C521 C 0.36265 0.19817 0.99225 0.0
C522 C 0.34716 0.13418 0.97269 0.0
C523 C 0.33298 0.10993 0.9798 0.0
C524 C 0.3441 0.10075 0.99582 0.0
C525 C 0.36934 0.1159 0.00527 0.0
C526 C 0.38304 0.14063 0.99954 0.0
C527 C 0.37211 0.1496 0.98309 0.0
C528 C 0.33309 0.10936 0.92102 0.0
C529 C 0.31147 0.08625 0.91312 0.0
C530 C 0.31301 0.06545 0.90736 0.0
C531 C 0.33624 0.06741 0.90947 0.0
C532 C 0.35788 0.09065 0.91734 0.0
C533 C 0.35632 0.11145 0.92296 0.0
C534 C 0.32028 0.1307 0.88017 0.0
C535 C 0.29624 0.11903 0.86721 0.0
C536 C 0.29169 0.10851 0.84202 0.0
C537 C 0.31118 0.10968 0.82962 0.0
C538 C 0.33524 0.12154 0.84248 0.0
C539 C 0.33977 0.13203 0.86764 0.0
C540 C 0.32208 0.17656 0.89044 0.0
C541 C 0.30035 0.17716 0.88563 0.0
C542 C 0.29771 0.18878 0.86479 0.0
C543 C 0.31684 0.19993 0.84873 0.0
C544 C 0.33854 0.19941 0.85369 0.0
C545 C 0.34116 0.18785 0.8744 0.0
C546 C 0.35451 0.2081 0.06178 0.0
C547 C 0.33798 0.04535 0.90348 0.0
H548 H 0.83582 0.1793 0.10966 0.0
H549 H 0.6967 0.98171 0.89481 0.0
H550 H 0.83112 0.19363 0.97783 0.0
H551 H 0.85964 0.237 0.99292 0.0
H552 H 0.91764 0.23656 0.95447 0.0
H553 H 0.89063 0.19156 0.94446 0.0
H554 H 0.79824 0.15563 0.00127 0.0
H555 H 0.80784 0.1659 0.04751 0.0
H556 H 0.8741 0.16271 0.04389 0.0
H557 H 0.86402 0.15191 0.99763 0.0
H558 H 0.76096 0.12272 0.95383 0.0
H559 H 0.72507 0.1012 0.9783 0.0
H560 H 0.76224 0.07199 0.02197 0.0
H561 H 0.79855 0.09372 0.99717 0.0
H562 H 0.75949 0.10531 0.90007 0.0
H563 H 0.72298 0.06499 0.88363 0.0
H564 H 0.75331 0.02845 0.92595 0.0
H565 H 0.78996 0.06892 0.94186 0.0
H566 H 0.8004 0.14793 0.87813 0.0
H567 H 0.78954 0.13354 0.83246 0.0
H568 H 0.8095 0.07924 0.84402 0.0
H569 H 0.82075 0.09393 0.88999 0.0
H570 H 0.8384 0.19515 0.90824 0.0
H571 H 0.86057 0.21881 0.87295 0.0
H572 H 0.89173 0.17316 0.86316 0.0
H573 H 0.86981 0.14969 0.89846 0.0
O574 O 0.83233 0.17511 0.09132 0.0
O575 O 0.86631 0.17347 0.08839 0.0
O576 O 0.69646 0.01759 0.87917 0.0
O577 O 0.71101 0.9979 0.9009 0.0
C578 C 0.8404 0.16232 0.95089 0.0
C579 C 0.82442 0.14585 0.96789 0.0
C580 C 0.80326 0.12275 0.95806 0.0
C581 C 0.79974 0.11455 0.93188 0.0
C582 C 0.8166 0.13006 0.91517 0.0
C583 C 0.83657 0.15416 0.92448 0.0
C584 C 0.85862 0.18892 0.96027 0.0
C585 C 0.85035 0.20235 0.97387 0.0
C586 C 0.86654 0.22739 0.98198 0.0
C587 C 0.89078 0.24033 0.97456 0.0
C588 C 0.89908 0.22708 0.9606 0.0
C589 C 0.88349 0.20142 0.95448 0.0
C590 C 0.8302 0.15259 0.99606 0.0
C591 C 0.81463 0.15678 0.01049 0.0
C592 C 0.82026 0.16285 0.03693 0.0
C593 C 0.8417 0.16504 0.04943 0.0
C594 C 0.85741 0.1611 0.03488 0.0
C595 C 0.8517 0.15496 0.00845 0.0
C596 C 0.7822 0.1096 0.97367 0.0
C597 C 0.76143 0.11171 0.96869 0.0
C598 C 0.7411 0.09962 0.98269 0.0
C599 C 0.74122 0.08525 0.00193 0.0
C600 C 0.76206 0.08323 0.00725 0.0
C601 C 0.78258 0.09543 0.99313 0.0
C602 C 0.77754 0.09002 0.92186 0.0
C603 C 0.75835 0.08857 0.90553 0.0
C604 C 0.73745 0.06552 0.89629 0.0
C605 C 0.73525 0.04348 0.90343 0.0
C606 C 0.75443 0.04504 0.92001 0.0
C607 C 0.77538 0.06812 0.92914 0.0
C608 C 0.81154 0.1221 0.8873 0.0
C609 C 0.80288 0.13325 0.87079 0.0
C610 C 0.79664 0.12502 0.84484 0.0
C611 C 0.79883 0.10545 0.83504 0.0
C612 C 0.80787 0.09448 0.85136 0.0
C613 C 0.81419 0.10278 0.87744 0.0
C614 C 0.85257 0.17076 0.90589 0.0
C615 C 0.85048 0.19067 0.89887 0.0
C616 C 0.86301 0.20406 0.8788 0.0
C617 C 0.87766 0.19759 0.86559 0.0
C618 C 0.88054 0.17838 0.87328 0.0
C619 C 0.86809 0.16505 0.89332 0.0
C620 C 0.84761 0.17146 0.07753 0.0
C621 C 0.71305 0.01894 0.89372 0.0
H622 H 0.88267 0.66798 0.11215 0.0
H623 H 0.69107 0.65497 0.9105 0.0
H624 H 0.90225 0.69892 0.97902 0.0
H625 H 0.93541 0.69237 0.99529 0.0
H626 H 0.89225 0.61662 0.96122 0.0
H627 H 0.85934 0.62336 0.94454 0.0
H628 H 0.86017 0.69669 0.01498 0.0
H629 H 0.87153 0.69161 0.05859 0.0
H630 H 0.84848 0.61591 0.03456 0.0
H631 H 0.83699 0.6212 0.99112 0.0
H632 H 0.81011 0.6948 0.99421 0.0
H633 H 0.77511 0.68207 0.02043 0.0
H634 H 0.75434 0.60582 0.00702 0.0
H635 H 0.78939 0.61853 0.98136 0.0
H636 H 0.8146 0.70947 0.93231 0.0
H637 H 0.77819 0.71241 0.92104 0.0
H638 H 0.72995 0.63352 0.92578 0.0
H639 H 0.76648 0.63084 0.93685 0.0
H640 H 0.85715 0.70967 0.89581 0.0
H641 H 0.84678 0.71426 0.85127 0.0
H642 H 0.77989 0.64152 0.84592 0.0
H643 H 0.79035 0.63678 0.8901 0.0
H644 H 0.89855 0.69975 0.91817 0.0
H645 H 0.91887 0.69661 0.88212 0.0
H646 H 0.85149 0.62631 0.855 0.0
H647 H 0.83246 0.62966 0.89126 0.0
O648 O 0.87775 0.66948 0.09487 0.0
O649 O 0.86595 0.63079 0.08145 0.0
O650 O 0.73143 0.69464 0.9115 0.0
O651 O 0.7058 0.65434 0.91473 0.0
C652 C 0.85715 0.66444 0.95411 0.0
C653 C 0.84195 0.66292 0.97334 0.0
C654 C 0.82063 0.66405 0.96717 0.0
C655 C 0.81531 0.66829 0.94212 0.0
C656 C 0.8306 0.66995 0.92292 0.0
C657 C 0.85101 0.66713 0.92874 0.0
C658 C 0.87854 0.66163 0.96056 0.0
C659 C 0.90025 0.68111 0.97459 0.0
C660 C 0.91902 0.67736 0.98391 0.0
C661 C 0.9161 0.65398 0.97953 0.0
C662 C 0.89476 0.63476 0.96472 0.0
C663 C 0.87613 0.63861 0.95516 0.0
C664 C 0.84797 0.65939 0.99992 0.0
C665 C 0.8575 0.67901 0.01924 0.0
C666 C 0.86401 0.67606 0.04409 0.0
C667 C 0.86102 0.65338 0.05004 0.0
C668 C 0.8511 0.63364 0.03063 0.0
C669 C 0.84458 0.63662 0.0058 0.0
C670 C 0.80215 0.65754 0.98591 0.0
C671 C 0.79835 0.67547 0.99749 0.0
C672 C 0.77854 0.66825 0.01242 0.0
C673 C 0.76224 0.64302 0.01547 0.0
C674 C 0.76681 0.62534 0.00487 0.0
C675 C 0.78673 0.63257 0.99029 0.0
C676 C 0.79314 0.67001 0.93566 0.0
C677 C 0.79613 0.69288 0.93097 0.0
C678 C 0.77532 0.69449 0.92451 0.0
C679 C 0.75114 0.6732 0.92261 0.0
C680 C 0.74828 0.65028 0.92716 0.0
C681 C 0.7691 0.64871 0.93362 0.0
C682 C 0.82432 0.67303 0.89624 0.0
C683 C 0.84028 0.69475 0.88498 0.0
C684 C 0.83446 0.69734 0.85969 0.0
C685 C 0.81264 0.67818 0.84548 0.0
C686 C 0.79681 0.65644 0.85669 0.0
C687 C 0.80265 0.65383 0.88186 0.0
C688 C 0.86433 0.66458 0.90777 0.0
C689 C 0.8888 0.68316 0.90487 0.0
C690 C 0.90057 0.6809 0.88423 0.0
C691 C 0.88855 0.65954 0.86628 0.0
C692 C 0.86329 0.64173 0.86898 0.0
C693 C 0.8517 0.64391 0.8897 0.0
C694 C 0.86833 0.65044 0.07636 0.0
C695 C 0.72894 0.6748 0.91592 0.0
H696 H 0.83405 0.72734 0.32047 0.0
H697 H 0.97812 0.66126 0.50458 0.0
H698 H 0.83077 0.72502 0.46045 0.0
H699 H 0.79705 0.72985 0.44227 0.0
H700 H 0.74603 0.6506 0.43765 0.0
H701 H 0.77989 0.64576 0.45591 0.0
H702 H 0.86991 0.72861 0.42609 0.0
H703 H 0.86065 0.73534 0.38245 0.0
H704 H 0.80085 0.6583 0.36912 0.0
H705 H 0.81055 0.65176 0.41269 0.0
H706 H 0.91158 0.72988 0.45815 0.0
H707 H 0.94596 0.74007 0.43218 0.0
H708 H 0.90202 0.66777 0.39005 0.0
H709 H 0.86756 0.65736 0.41647 0.0
H710 H 0.91634 0.71981 0.50786 0.0
H711 H 0.95442 0.71972 0.51859 0.0
H712 H 0.91785 0.64425 0.48373 0.0
H713 H 0.87978 0.64453 0.4734 0.0
H714 H 0.88354 0.7198 0.53305 0.0
H715 H 0.89422 0.72276 0.57782 0.0
H716 H 0.85369 0.64262 0.57516 0.0
H717 H 0.84474 0.6403 0.52916 0.0
H718 H 0.82751 0.71372 0.51652 0.0
H719 H 0.80538 0.70948 0.55459 0.0
H720 H 0.77998 0.63172 0.55077 0.0
H721 H 0.80135 0.63579 0.51231 0.0
O722 O 0.83762 0.7242 0.33753 0.0
O723 O 0.80682 0.68455 0.33183 0.0
O724 O 0.98097 0.70028 0.51908 0.0
O725 O 0.96317 0.66165 0.50096 0.0
C726 C 0.8289 0.68226 0.46712 0.0
C727 C 0.84598 0.68581 0.44923 0.0
C728 C 0.86789 0.68619 0.45702 0.0
C729 C 0.87251 0.68244 0.4825 0.0
C730 C 0.85553 0.67898 0.50035 0.0
C731 C 0.83347 0.67846 0.49255 0.0
C732 C 0.80767 0.68505 0.45952 0.0
C733 C 0.81222 0.70874 0.45591 0.0
C734 C 0.79311 0.71149 0.44549 0.0
C735 C 0.76923 0.69056 0.43855 0.0
C736 C 0.76443 0.6669 0.4429 0.0
C737 C 0.78359 0.66416 0.45341 0.0
C738 C 0.84102 0.68967 0.42244 0.0
C739 C 0.85502 0.71316 0.4136 0.0
C740 C 0.8496 0.71697 0.38872 0.0
C741 C 0.83 0.69736 0.37229 0.0
C742 C 0.81608 0.6738 0.38125 0.0
C743 C 0.82158 0.67001 0.4061 0.0
C744 C 0.88727 0.69282 0.43931 0.0
C745 C 0.90927 0.71631 0.44317 0.0
C746 C 0.92875 0.72215 0.42834 0.0
C747 C 0.92639 0.70465 0.40931 0.0
C748 C 0.904 0.68148 0.40463 0.0
C749 C 0.88448 0.67556 0.41964 0.0
C750 C 0.8952 0.68202 0.49028 0.0
C751 C 0.91645 0.70314 0.50299 0.0
C752 C 0.93824 0.7031 0.5089 0.0
C753 C 0.93917 0.68195 0.50206 0.0
C754 C 0.91776 0.66081 0.48934 0.0
C755 C 0.89597 0.66088 0.4835 0.0
C756 C 0.86255 0.67986 0.52798 0.0
C757 C 0.87652 0.70285 0.54234 0.0
C758 C 0.88169 0.70436 0.5687 0.0
C759 C 0.87132 0.68283 0.58206 0.0
C760 C 0.85939 0.65976 0.5668 0.0
C761 C 0.85475 0.65828 0.54017 0.0
C762 C 0.81601 0.67505 0.51173 0.0
C763 C 0.81645 0.69561 0.52338 0.0
C764 C 0.80398 0.69323 0.5451 0.0
C765 C 0.79134 0.67035 0.55557 0.0
C766 C 0.78969 0.64951 0.54298 0.0
C767 C 0.8018 0.65181 0.52108 0.0
C768 C 0.82404 0.70154 0.34599 0.0
C769 C 0.96239 0.68194 0.50794 0.0
H770 H 0.25806 0.10016 0.31807 0.0
H771 H 0.35329 0.32816 0.50168 0.0
H772 H 0.27785 0.11029 0.45652 0.0
H773 H 0.2691 0.06919 0.44096 0.0
H774 H 0.34781 0.0969 0.44976 0.0
H775 H 0.35662 0.13824 0.46526 0.0
H776 H 0.27237 0.14466 0.42256 0.0
H777 H 0.25934 0.12475 0.37871 0.0
H778 H 0.33323 0.13841 0.37293 0.0
H779 H 0.34612 0.15863 0.41667 0.0
H780 H 0.27834 0.18938 0.45408 0.0
H781 H 0.26725 0.21236 0.42569 0.0
H782 H 0.33294 0.23436 0.38727 0.0
H783 H 0.34417 0.21138 0.41589 0.0
H784 H 0.29844 0.20653 0.5111 0.0
H785 H 0.30125 0.24579 0.52217 0.0
H786 H 0.36413 0.28333 0.47802 0.0
H787 H 0.3614 0.24402 0.46747 0.0
H788 H 0.30514 0.16883 0.54015 0.0
H789 H 0.31407 0.18844 0.58408 0.0
H790 H 0.38457 0.24894 0.56554 0.0
H791 H 0.37581 0.22913 0.52157 0.0
H792 H 0.29671 0.12037 0.51206 0.0
H793 H 0.30264 0.10178 0.54948 0.0
H794 H 0.38047 0.15965 0.56048 0.0
H795 H 0.37474 0.17796 0.52249 0.0
O796 O 0.26368 0.10835 0.33528 0.0
O797 O 0.30185 0.1155 0.33345 0.0
O798 O 0.32016 0.29244 0.5211 0.0
O799 O 0.35193 0.31243 0.49782 0.0
C800 C 0.32291 0.15243 0.46864 0.0
C801 C 0.31797 0.16466 0.4496 0.0
C802 C 0.32001 0.18743 0.45627 0.0
C803 C 0.32794 0.19855 0.48172 0.0
C804 C 0.33341 0.18661 0.50067 0.0
C805 C 0.33091 0.16349 0.49413 0.0
C806 C 0.31786 0.12719 0.46191 0.0
C807 C 0.29319 0.10744 0.45532 0.0
C808 C 0.28821 0.08411 0.44647 0.0
C809 C 0.30783 0.08022 0.44414 0.0
C810 C 0.3325 0.09972 0.45143 0.0
C811 C 0.33749 0.12314 0.46032 0.0
C812 C 0.31024 0.15327 0.42269 0.0
C813 C 0.28579 0.14359 0.41168 0.0
C814 C 0.27836 0.13211 0.38668 0.0
C815 C 0.29525 0.12999 0.3723 0.0
C816 C 0.31977 0.13976 0.38345 0.0
C817 C 0.32718 0.15132 0.40841 0.0
C818 C 0.31214 0.19896 0.43711 0.0
C819 C 0.29015 0.19886 0.4393 0.0
C820 C 0.28378 0.2118 0.4231 0.0
C821 C 0.2993 0.22494 0.40451 0.0
C822 C 0.32074 0.22415 0.40149 0.0
C823 C 0.32714 0.21117 0.41776 0.0
C824 C 0.32982 0.22247 0.48862 0.0
C825 C 0.31294 0.22329 0.50402 0.0
C826 C 0.31452 0.24572 0.51022 0.0
C827 C 0.33292 0.26771 0.50097 0.0
C828 C 0.34976 0.26676 0.48549 0.0
C829 C 0.34823 0.24434 0.47941 0.0
C830 C 0.33987 0.19753 0.52772 0.0
C831 C 0.3227 0.1861 0.54566 0.0
C832 C 0.32771 0.19729 0.57059 0.0
C833 C 0.34989 0.22011 0.57786 0.0
C834 C 0.36736 0.23131 0.56015 0.0
C835 C 0.36238 0.22006 0.5352 0.0
C836 C 0.33532 0.15042 0.51445 0.0
C837 C 0.31521 0.12862 0.522 0.0
C838 C 0.31855 0.11811 0.54336 0.0
C839 C 0.34197 0.12938 0.55756 0.0
C840 C 0.36233 0.15067 0.54956 0.0
C841 C 0.35904 0.16107 0.52801 0.0
C842 C 0.28723 0.11754 0.34585 0.0
C843 C 0.33454 0.29154 0.5073 0.0
H844 H 0.80928 0.13812 0.30971 0.0
H845 H 0.98074 0.34869 0.50785 0.0
H846 H 0.78203 0.15094 0.43846 0.0
H847 H 0.75304 0.1069 0.42306 0.0
H848 H 0.79735 0.08723 0.46972 0.0
H849 H 0.82646 0.13113 0.48481 0.0
H850 H 0.82357 0.19502 0.4069 0.0
H851 H 0.81535 0.17559 0.36315 0.0
H852 H 0.83902 0.12709 0.38951 0.0
H853 H 0.84714 0.14666 0.43314 0.0
H854 H 0.87495 0.2493 0.429 0.0
H855 H 0.91059 0.2692 0.4032 0.0
H856 H 0.92583 0.21184 0.41654 0.0
H857 H 0.89096 0.19247 0.4426 0.0
H858 H 0.86014 0.25919 0.49198 0.0
H859 H 0.89264 0.30305 0.50193 0.0
H860 H 0.94897 0.2852 0.49254 0.0
H861 H 0.91635 0.24146 0.48264 0.0
H862 H 0.82477 0.21289 0.53653 0.0
H863 H 0.83639 0.22112 0.58309 0.0
H864 H 0.90959 0.236 0.57131 0.0
H865 H 0.89693 0.2243 0.52582 0.0
H866 H 0.78233 0.16125 0.49976 0.0
H867 H 0.75998 0.13943 0.53568 0.0
H868 H 0.82772 0.14858 0.57178 0.0
H869 H 0.84954 0.16863 0.53501 0.0
O870 O 0.81276 0.14563 0.32712 0.0
O871 O 0.82465 0.12081 0.34176 0.0
O872 O 0.93784 0.33967 0.50888 0.0
O873 O 0.9675 0.33148 0.50398 0.0
C874 C 0.8259 0.17078 0.46896 0.0
C875 C 0.8407 0.18407 0.44969 0.0
C876 C 0.86118 0.20853 0.45573 0.0
C877 C 0.8658 0.22054 0.48058 0.0
C878 C 0.85157 0.20708 0.50024 0.0
C879 C 0.83173 0.18196 0.49438 0.0
C880 C 0.80626 0.14417 0.46281 0.0
C881 C 0.78519 0.13706 0.44571 0.0
C882 C 0.76876 0.11209 0.43692 0.0
C883 C 0.77325 0.09404 0.44525 0.0
C884 C 0.79368 0.10101 0.46318 0.0
C885 C 0.81012 0.12594 0.47188 0.0
C886 C 0.83563 0.17203 0.42321 0.0
C887 C 0.82689 0.18015 0.40317 0.0
C888 C 0.82223 0.16903 0.37821 0.0
C889 C 0.8264 0.14969 0.37285 0.0
C890 C 0.83549 0.14185 0.39299 0.0
C891 C 0.84003 0.1529 0.41794 0.0
C892 C 0.8804 0.21945 0.4376 0.0
C893 C 0.88575 0.24087 0.42595 0.0
C894 C 0.90588 0.25207 0.41121 0.0
C895 C 0.92056 0.24176 0.40795 0.0
C896 C 0.91449 0.21982 0.41868 0.0
C897 C 0.89464 0.20882 0.4335 0.0
C898 C 0.88582 0.24716 0.48627 0.0
C899 C 0.87951 0.26481 0.49198 0.0
C900 C 0.89811 0.28984 0.49767 0.0
C901 C 0.92342 0.29765 0.49789 0.0
C902 C 0.92968 0.27986 0.49235 0.0
C903 C 0.91106 0.25486 0.48656 0.0
C904 C 0.85996 0.21796 0.52749 0.0
C905 C 0.84341 0.21821 0.54398 0.0
C906 C 0.85009 0.22311 0.5705 0.0
C907 C 0.87389 0.2292 0.58067 0.0
C908 C 0.89116 0.2314 0.5639 0.0
C909 C 0.88403 0.22508 0.53777 0.0
C910 C 0.81769 0.16698 0.51501 0.0
C911 C 0.79221 0.1581 0.51517 0.0
C912 C 0.77953 0.14579 0.53566 0.0
C913 C 0.79235 0.14285 0.55659 0.0
C914 C 0.81759 0.15091 0.55594 0.0
C915 C 0.83002 0.16242 0.53507 0.0
C916 C 0.82126 0.13779 0.34636 0.0
C917 C 0.94327 0.32421 0.50392 0.0
H918 H 0.01985 0.53832 0.43689 0.0
H919 H 0.04501 0.37522 0.23825 0.0
H920 H 0.97338 0.51719 0.30241 0.0
H921 H 0.97765 0.55644 0.31842 0.0
H922 H 0.04685 0.59741 0.28474 0.0
H923 H 0.04248 0.55828 0.26856 0.0
H924 H 0.98507 0.48133 0.33636 0.0
H925 H 0.99334 0.49931 0.38076 0.0
H926 H 0.06247 0.56284 0.36298 0.0
H927 H 0.05402 0.54459 0.31871 0.0
H928 H 0.9898 0.4345 0.30859 0.0
H929 H 0.00744 0.41544 0.33489 0.0
H930 H 0.07863 0.48451 0.3446 0.0
H931 H 0.0613 0.50329 0.31738 0.0
H932 H 0.97301 0.42235 0.24848 0.0
H933 H 0.97716 0.38693 0.23742 0.0
H934 H 0.05703 0.43393 0.25565 0.0
H935 H 0.05265 0.46921 0.26637 0.0
H936 H 0.95877 0.45673 0.21602 0.0
H937 H 0.95077 0.44045 0.17073 0.0
H938 H 0.02828 0.4646 0.17005 0.0
H939 H 0.03635 0.48109 0.2152 0.0
H940 H 0.96117 0.50473 0.24025 0.0
H941 H 0.95366 0.52341 0.20336 0.0
H942 H 0.02602 0.54489 0.18063 0.0
H943 H 0.03365 0.52675 0.21743 0.0
O944 O 0.01706 0.53143 0.41931 0.0
O945 O 0.05217 0.56389 0.40903 0.0
O946 O 0.00181 0.36581 0.23186 0.0
O947 O 0.04284 0.38895 0.24217 0.0
C948 C 0.00708 0.51181 0.27785 0.0
C949 C 0.01346 0.50096 0.29732 0.0
C950 C 0.01524 0.48016 0.29101 0.0
C951 C 0.00993 0.46973 0.26529 0.0
C952 C 0.00308 0.48032 0.24597 0.0
C953 C 0.0021 0.50163 0.25219 0.0
C954 C 0.0076 0.535 0.28431 0.0
C955 C 0.98916 0.53464 0.29805 0.0
C956 C 0.9916 0.55689 0.30717 0.0
C957 C 0.01261 0.57963 0.30277 0.0
C958 C 0.03055 0.57996 0.28823 0.0
C959 C 0.028 0.55774 0.27896 0.0
C960 C 0.01885 0.51175 0.32433 0.0
C961 C 0.002 0.4991 0.34214 0.0
C962 C 0.00677 0.50943 0.36746 0.0
C963 C 0.02853 0.53257 0.3754 0.0
C964 C 0.04551 0.54503 0.3575 0.0
C965 C 0.0407 0.5347 0.33219 0.0
C966 C 0.02432 0.47019 0.31092 0.0
C967 C 0.00907 0.44565 0.31677 0.0
C968 C 0.01908 0.43484 0.33176 0.0
C969 C 0.04435 0.44856 0.34137 0.0
C970 C 0.05911 0.47369 0.33724 0.0
C971 C 0.0492 0.48438 0.32186 0.0
C972 C 0.0125 0.44829 0.25837 0.0
C973 C 0.99138 0.42495 0.25 0.0
C974 C 0.99381 0.40476 0.24373 0.0
C975 C 0.01744 0.40758 0.24577 0.0
C976 C 0.03857 0.43108 0.25398 0.0
C977 C 0.03612 0.45126 0.26016 0.0
C978 C 0.99808 0.46986 0.21889 0.0
C979 C 0.97399 0.45845 0.2061 0.0
C980 C 0.96945 0.44924 0.1804 0.0
C981 C 0.98898 0.45139 0.16728 0.0
C982 C 0.01306 0.46283 0.18001 0.0
C983 C 0.0176 0.47205 0.20568 0.0
C984 C 0.99791 0.51434 0.23137 0.0
C985 C 0.97545 0.51373 0.22743 0.0
C986 C 0.97113 0.5242 0.20645 0.0
C987 C 0.98926 0.53527 0.18932 0.0
C988 C 0.01183 0.53628 0.19363 0.0
C989 C 0.01618 0.52601 0.21456 0.0
C990 C 0.03339 0.54364 0.40222 0.0
C991 C 0.02012 0.38615 0.23947 0.0
H992 H 0.47803 0.53201 0.42036 0.0
H993 H 0.34969 0.31749 0.21335 0.0
H994 H 0.49167 0.53209 0.28247 0.0
H995 H 0.52248 0.57456 0.3007 0.0
H996 H 0.57947 0.5567 0.30483 0.0
H997 H 0.54838 0.51384 0.28659 0.0
H998 H 0.45279 0.49606 0.3117 0.0
H999 H 0.45754 0.51216 0.35623 0.0
H1000 H 0.51857 0.5011 0.37282 0.0
H1001 H 0.51333 0.48462 0.32831 0.0
H1002 H 0.41503 0.45406 0.2724 0.0
H1003 H 0.37927 0.43329 0.29732 0.0
H1004 H 0.41903 0.41009 0.34622 0.0
H1005 H 0.45505 0.4309 0.32103 0.0
H1006 H 0.41892 0.44109 0.21936 0.0
H1007 H 0.38166 0.40186 0.20165 0.0
H1008 H 0.40582 0.36203 0.2472 0.0
H1009 H 0.4432 0.40141 0.2645 0.0
H1010 H 0.46553 0.48459 0.20063 0.0
H1011 H 0.4535 0.47033 0.15503 0.0
H1012 H 0.46247 0.40871 0.16678 0.0
H1013 H 0.47477 0.42317 0.21274 0.0
H1014 H 0.50686 0.52913 0.23046 0.0
H1015 H 0.5344 0.55089 0.19756 0.0
H1016 H 0.55537 0.49645 0.1934 0.0
H1017 H 0.52821 0.47494 0.22666 0.0
O1018 O 0.47633 0.52538 0.40288 0.0
O1019 O 0.50782 0.51965 0.41032 0.0
O1020 O 0.35301 0.35461 0.19657 0.0
O1021 O 0.36429 0.33327 0.22002 0.0
C1022 C 0.49849 0.49414 0.27381 0.0
C1023 C 0.48 0.47953 0.28971 0.0
C1024 C 0.45883 0.45665 0.27952 0.0
C1025 C 0.45657 0.4479 0.25369 0.0
C1026 C 0.47534 0.4623 0.23791 0.0
C1027 C 0.49647 0.48536 0.24806 0.0
C1028 C 0.51787 0.51999 0.28333 0.0
C1029 C 0.51081 0.53734 0.28724 0.0
C1030 C 0.52828 0.56143 0.29762 0.0
C1031 C 0.55305 0.56852 0.30413 0.0
C1032 C 0.56033 0.55135 0.2999 0.0
C1033 C 0.54275 0.5271 0.28948 0.0
C1034 C 0.4825 0.48886 0.31688 0.0
C1035 C 0.46696 0.49683 0.32506 0.0
C1036 C 0.46982 0.50616 0.35048 0.0
C1037 C 0.48841 0.50788 0.36811 0.0
C1038 C 0.50403 0.49997 0.35976 0.0
C1039 C 0.50107 0.49054 0.33437 0.0
C1040 C 0.43742 0.44367 0.29476 0.0
C1041 C 0.41601 0.44441 0.28841 0.0
C1042 C 0.39579 0.43282 0.3027 0.0
C1043 C 0.39674 0.42041 0.3236 0.0
C1044 C 0.4182 0.4198 0.33022 0.0
C1045 C 0.43854 0.43147 0.31585 0.0
C1046 C 0.4339 0.42406 0.24296 0.0
C1047 C 0.41624 0.42386 0.22531 0.0
C1048 C 0.39491 0.40143 0.21533 0.0
C1049 C 0.3908 0.37878 0.22295 0.0
C1050 C 0.40845 0.37911 0.24085 0.0
C1051 C 0.42981 0.40157 0.25077 0.0
C1052 C 0.47106 0.45494 0.20996 0.0
C1053 C 0.46548 0.46834 0.19333 0.0
C1054 C 0.45856 0.46019 0.1674 0.0
C1055 C 0.457 0.43845 0.15772 0.0
C1056 C 0.46362 0.42554 0.17404 0.0
C1057 C 0.47055 0.43373 0.20012 0.0
C1058 C 0.51571 0.50058 0.2311 0.0
C1059 C 0.51798 0.52234 0.22306 0.0
C1060 C 0.53352 0.53463 0.20425 0.0
C1061 C 0.54679 0.52518 0.19316 0.0
C1062 C 0.5453 0.504 0.20189 0.0
C1063 C 0.52988 0.49179 0.22078 0.0
C1064 C 0.49152 0.51797 0.39505 0.0
C1065 C 0.36821 0.3549 0.21234 0.0
H1066 H 0.53885 0.96986 0.43796 0.0
H1067 H 0.35659 0.98733 0.23247 0.0
H1068 H 0.56561 0.01773 0.29426 0.0
H1069 H 0.59639 0.00805 0.30767 0.0
H1070 H 0.53748 0.93071 0.3064 0.0
H1071 H 0.5077 0.94089 0.29235 0.0
H1072 H 0.53593 0.01223 0.34257 0.0
H1073 H 0.54332 0.00132 0.38476 0.0
H1074 H 0.47845 0.92737 0.36667 0.0
H1075 H 0.47147 0.93844 0.32443 0.0
H1076 H 0.47974 0.01377 0.34103 0.0
H1077 H 0.44516 0.00309 0.36736 0.0
H1078 H 0.40048 0.93205 0.32293 0.0
H1079 H 0.4347 0.94284 0.29651 0.0
H1080 H 0.46932 0.03035 0.2936 0.0
H1081 H 0.43337 0.03452 0.2845 0.0
H1082 H 0.39743 0.96671 0.23378 0.0
H1083 H 0.43331 0.9626 0.24337 0.0
H1084 H 0.49984 0.04116 0.24171 0.0
H1085 H 0.48892 0.04905 0.19886 0.0
H1086 H 0.46133 0.97322 0.17111 0.0
H1087 H 0.47247 0.96545 0.21363 0.0
H1088 H 0.54518 0.03588 0.24225 0.0
H1089 H 0.56447 0.03901 0.20243 0.0
H1090 H 0.53363 0.96008 0.19597 0.0
H1091 H 0.51386 0.95684 0.23555 0.0
O1092 O 0.53556 0.97379 0.42119 0.0
O1093 O 0.50195 0.93607 0.41102 0.0
O1094 O 0.39008 0.02062 0.26312 0.0
O1095 O 0.37106 0.98618 0.23636 0.0
C1096 C 0.51527 0.98612 0.28616 0.0
C1097 C 0.49899 0.98293 0.30488 0.0
C1098 C 0.47885 0.98608 0.2991 0.0
C1099 C 0.47552 0.9935 0.27512 0.0
C1100 C 0.49206 0.99728 0.25664 0.0
C1101 C 0.51195 0.99354 0.2621 0.0
C1102 C 0.53454 0.97991 0.29138 0.0
C1103 C 0.55976 0.9985 0.29558 0.0
C1104 C 0.57752 0.9926 0.3028 0.0
C1105 C 0.57078 0.9677 0.30502 0.0
C1106 C 0.54493 0.94952 0.30204 0.0
C1107 C 0.52728 0.95542 0.29463 0.0
C1108 C 0.50305 0.97621 0.33058 0.0
C1109 C 0.52332 0.9937 0.3478 0.0
C1110 C 0.5275 0.98742 0.37187 0.0
C1111 C 0.51143 0.96349 0.37912 0.0
C1112 C 0.49113 0.94598 0.36173 0.0
C1113 C 0.48702 0.95229 0.33765 0.0
C1114 C 0.45958 0.97905 0.31695 0.0
C1115 C 0.46263 0.99578 0.33734 0.0
C1116 C 0.44305 0.9897 0.3523 0.0
C1117 C 0.42048 0.96675 0.34707 0.0
C1118 C 0.41789 0.94971 0.32731 0.0
C1119 C 0.43728 0.95588 0.31226 0.0
C1120 C 0.45394 0.99627 0.26902 0.0
C1121 C 0.45366 0.01645 0.28052 0.0
C1122 C 0.43312 0.01878 0.27527 0.0
C1123 C 0.41252 0.00095 0.25838 0.0
C1124 C 0.41297 0.98078 0.24685 0.0
C1125 C 0.43347 0.97843 0.2522 0.0
C1126 C 0.48699 0.00276 0.23066 0.0
C1127 C 0.49173 0.02639 0.22627 0.0
C1128 C 0.48561 0.0309 0.20195 0.0
C1129 C 0.47449 0.01171 0.18196 0.0
C1130 C 0.47006 0.98823 0.18634 0.0
C1131 C 0.47638 0.98381 0.21049 0.0
C1132 C 0.52815 0.99615 0.24178 0.0
C1133 C 0.54314 0.01936 0.23262 0.0
C1134 C 0.55404 0.02114 0.20995 0.0
C1135 C 0.55027 -0.00026 0.19631 0.0
C1136 C 0.5367 0.97675 0.20634 0.0
C1137 C 0.52561 0.97494 0.22893 0.0
C1138 C 0.51594 0.95686 0.4047 0.0
C1139 C 0.39061 0.00326 0.25283 0.0
H1140 H 0.50646 0.07945 0.66373 0.0
H1141 H 0.61503 0.95732 0.83644 0.0
H1142 H 0.4929 0.05898 0.80856 0.0
H1143 H 0.46269 0.06749 0.78739 0.0
H1144 H 0.41789 0.99118 0.75538 0.0
H1145 H 0.44819 0.98281 0.77615 0.0
H1146 H 0.52448 0.06589 0.77036 0.0
H1147 H 0.52058 0.07895 0.72822 0.0
H1148 H 0.48409 0.00284 0.69532 0.0
H1149 H 0.4882 0.99009 0.7376 0.0
H1150 H 0.5665 0.06099 0.78059 0.0
H1151 H 0.60149 0.07202 0.75525 0.0
H1152 H 0.56906 0.99475 0.72961 0.0
H1153 H 0.53411 0.98362 0.75548 0.0
H1154 H 0.58167 0.03984 0.8208 0.0
H1155 H 0.61435 0.03075 0.82917 0.0
H1156 H 0.55824 0.95238 0.82364 0.0
H1157 H 0.52575 0.96173 0.81498 0.0
H1158 H 0.5558 0.03126 0.86563 0.0
H1159 H 0.56228 0.02126 0.90863 0.0
H1160 H 0.49067 0.95274 0.89667 0.0
H1161 H 0.48423 0.96264 0.85318 0.0
H1162 H 0.51616 0.04088 0.86933 0.0
H1163 H 0.49628 0.03612 0.90865 0.0
H1164 H 0.42591 0.97863 0.86866 0.0
H1165 H 0.44669 0.98127 0.82998 0.0
O1166 O 0.50796 0.07392 0.68018 0.0
O1167 O 0.48982 0.0346 0.6641 0.0
O1168 O 0.63059 0.00189 0.83526 0.0
O1169 O 0.60247 0.96143 0.83317 0.0
C1170 C 0.49322 0.01646 0.801 0.0
C1171 C 0.50946 0.0193 0.7824 0.0
C1172 C 0.52892 0.01516 0.78797 0.0
C1173 C 0.53155 0.00692 0.81168 0.0
C1174 C 0.51564 0.00443 0.8305 0.0
C1175 C 0.49698 0.01011 0.82553 0.0
C1176 C 0.47251 0.02022 0.79409 0.0
C1177 C 0.47614 0.04394 0.7977 0.0
C1178 C 0.45908 0.04882 0.78552 0.0
C1179 C 0.4382 0.02993 0.76986 0.0
C1180 C 0.43387 0.00589 0.76751 0.0
C1181 C 0.45099 0.0011 0.77946 0.0
C1182 C 0.50644 0.02706 0.75697 0.0
C1183 C 0.51554 0.05209 0.75402 0.0
C1184 C 0.51339 0.05949 0.72993 0.0
C1185 C 0.50203 0.04194 0.70838 0.0
C1186 C 0.49293 0.01683 0.71149 0.0
C1187 C 0.49519 0.00948 0.7356 0.0
C1188 C 0.54793 0.02154 0.76987 0.0
C1189 C 0.56669 0.04649 0.76913 0.0
C1190 C 0.58656 0.05276 0.75474 0.0
C1191 C 0.58774 0.03417 0.74071 0.0
C1192 C 0.56828 0.00927 0.74031 0.0
C1193 C 0.5485 0.00296 0.75502 0.0
C1194 C 0.55138 0.00141 0.81702 0.0
C1195 C 0.5765 0.02071 0.82121 0.0
C1196 C 0.59511 0.01547 0.82611 0.0
C1197 C 0.58891 0.99081 0.827 0.0
C1198 C 0.56367 0.97155 0.82302 0.0
C1199 C 0.54507 0.97683 0.81808 0.0
C1200 C 0.51971 0.99752 0.85614 0.0
C1201 C 0.54164 0.01391 0.87206 0.0
C1202 C 0.54523 0.00834 0.89661 0.0
C1203 C 0.5269 0.98636 0.90572 0.0
C1204 C 0.50494 0.96981 0.88988 0.0
C1205 C 0.50134 0.97541 0.86518 0.0
C1206 C 0.48305 0.01111 0.84684 0.0
C1207 C 0.49643 0.02726 0.86896 0.0
C1208 C 0.48506 0.02461 0.89139 0.0
C1209 C 0.45963 0.0068 0.89177 0.0
C1210 C 0.44563 0.99227 0.86892 0.0
C1211 C 0.45738 0.99401 0.84674 0.0
C1212 C 0.49955 0.04983 0.68286 0.0
C1213 C 0.60864 0.98515 0.83207 0.0
H1214 H 0.91554 0.42523 0.65654 0.0
H1215 H 0.01018 0.65731 0.83389 0.0
H1216 H 0.94493 0.44323 0.79726 0.0
H1217 H 0.93476 0.40145 0.78245 0.0
H1218 H 0.0127 0.42977 0.77717 0.0
H1219 H 0.02296 0.47175 0.79237 0.0
H1220 H 0.93635 0.4751 0.75959 0.0
H1221 H 0.9206 0.45287 0.71679 0.0
H1222 H 0.99424 0.46823 0.70548 0.0
H1223 H 0.00979 0.49068 0.74819 0.0
H1224 H 0.94438 0.52369 0.7883 0.0
H1225 H 0.93448 0.54746 0.75983 0.0
H1226 H 0.99756 0.56401 0.71896 0.0
H1227 H 0.00789 0.54072 0.74794 0.0
H1228 H 0.96321 0.53709 0.84591 0.0
H1229 H 0.96347 0.57509 0.85666 0.0
H1230 H 0.02413 0.61476 0.81029 0.0
H1231 H 0.02392 0.57673 0.8 0.0
H1232 H 0.97438 0.49801 0.87438 0.0
H1233 H 0.98355 0.51499 0.91915 0.0
H1234 H 0.04613 0.58354 0.8995 0.0
H1235 H 0.03846 0.56552 0.855 0.0
H1236 H 0.96878 0.45493 0.84881 0.0
H1237 H 0.97954 0.44012 0.88661 0.0
H1238 H 0.05624 0.50003 0.88904 0.0
H1239 H 0.04543 0.51498 0.85102 0.0
O1240 O 0.92224 0.43442 0.67325 0.0
O1241 O 0.96037 0.44255 0.66854 0.0
O1242 O 0.97923 0.62106 0.85449 0.0
O1243 O 0.00989 0.6421 0.83024 0.0
C1244 C 0.98996 0.48574 0.80219 0.0
C1245 C 0.98348 0.49704 0.78334 0.0
C1246 C 0.98499 0.51958 0.78988 0.0
C1247 C 0.99305 0.53093 0.8153 0.0
C1248 C -0.00012 0.51979 0.83411 0.0
C1249 C 0.99894 0.49746 0.82733 0.0
C1250 C 0.98467 0.46038 0.79593 0.0
C1251 C 0.95985 0.44035 0.79328 0.0
C1252 C 0.95405 0.41665 0.7848 0.0
C1253 C 0.973 0.41274 0.77869 0.0
C1254 C 0.99792 0.43262 0.78184 0.0
C1255 C 0.00376 0.45639 0.79057 0.0
C1256 C 0.97422 0.48459 0.7569 0.0
C1257 C 0.94909 0.47387 0.74771 0.0
C1258 C 0.94013 0.46108 0.72331 0.0
C1259 C 0.95615 0.45874 0.70772 0.0
C1260 C 0.98139 0.46969 0.71698 0.0
C1261 C 0.99033 0.48252 0.74135 0.0
C1262 C 0.97707 0.53086 0.77041 0.0
C1263 C 0.95588 0.53218 0.77301 0.0
C1264 C 0.95016 0.54555 0.75673 0.0
C1265 C 0.96538 0.55749 0.73746 0.0
C1266 C 0.98563 0.55482 0.73374 0.0
C1267 C 0.99152 0.54165 0.75024 0.0
C1268 C 0.99362 0.55418 0.82228 0.0
C1269 C 0.97667 0.55405 0.83827 0.0
C1270 C 0.9768 0.57576 0.8443 0.0
C1271 C 0.99381 0.59797 0.83429 0.0
C1272 C 0.01079 0.598 0.81831 0.0
C1273 C 0.01071 0.5763 0.81239 0.0
C1274 C 0.00594 0.53034 0.86138 0.0
C1275 C 0.99054 0.5164 0.87979 0.0
C1276 C 0.99559 0.52619 0.90527 0.0
C1277 C 0.01546 0.55056 0.91266 0.0
C1278 C 0.03078 0.56465 0.89423 0.0
C1279 C 0.02632 0.55445 0.86887 0.0
C1280 C 0.00634 0.48597 0.84709 0.0
C1281 C 0.98805 0.46443 0.85692 0.0
C1282 C 0.99415 0.45613 0.87858 0.0
C1283 C 0.01859 0.46919 0.89068 0.0
C1284 C 0.03727 0.48983 0.87995 0.0
C1285 C 0.03112 0.49826 0.85832 0.0
C1286 C 0.94649 0.44479 0.68199 0.0
C1287 C 0.9938 0.62101 0.84036 0.0
H1288 H 0.47493 0.48498 0.64395 0.0
H1289 H 0.67378 0.65378 0.86197 0.0
H1290 H 0.45184 0.49305 0.77492 0.0
H1291 H 0.41899 0.45052 0.75756 0.0
H1292 H 0.4585 0.42177 0.79776 0.0
H1293 H 0.49095 0.46394 0.81525 0.0
H1294 H 0.4992 0.53785 0.74594 0.0
H1295 H 0.488 0.52118 0.70091 0.0
H1296 H 0.49959 0.46217 0.71913 0.0
H1297 H 0.51085 0.4791 0.76403 0.0
H1298 H 0.55518 0.58712 0.77483 0.0
H1299 H 0.59139 0.60711 0.74996 0.0
H1300 H 0.59416 0.54075 0.74677 0.0
H1301 H 0.55859 0.52107 0.77204 0.0
H1302 H 0.55032 0.59661 0.83607 0.0
H1303 H 0.59043 0.63405 0.85165 0.0
H1304 H 0.62736 0.59407 0.83846 0.0
H1305 H 0.58719 0.55686 0.8228 0.0
H1306 H 0.50622 0.55723 0.87179 0.0
H1307 H 0.51929 0.56873 0.91812 0.0
H1308 H 0.57436 0.54896 0.91158 0.0
H1309 H 0.56099 0.53694 0.86575 0.0
H1310 H 0.45688 0.51098 0.83594 0.0
H1311 H 0.42996 0.49098 0.86999 0.0
H1312 H 0.48145 0.47141 0.9007 0.0
H1313 H 0.50812 0.49103 0.86655 0.0
O1314 O 0.47961 0.49137 0.66181 0.0
O1315 O 0.48537 0.46115 0.67229 0.0
O1316 O 0.63771 0.65877 0.86318 0.0
O1317 O 0.65766 0.63926 0.85595 0.0
C1318 C 0.49545 0.50681 0.80384 0.0
C1319 C 0.51202 0.51963 0.78558 0.0
C1320 C 0.53515 0.54166 0.79341 0.0
C1321 C 0.5414 0.55128 0.81943 0.0
C1322 C 0.52475 0.53854 0.83766 0.0
C1323 C 0.50169 0.51639 0.8298 0.0
C1324 C 0.47366 0.48147 0.79638 0.0
C1325 C 0.45305 0.47749 0.78038 0.0
C1326 C 0.43446 0.45339 0.77048 0.0
C1327 C 0.43662 0.43323 0.77626 0.0
C1328 C 0.45668 0.43719 0.79307 0.0
C1329 C 0.47503 0.46114 0.80314 0.0
C1330 C 0.50557 0.50954 0.75825 0.0
C1331 C 0.49931 0.52134 0.74014 0.0
C1332 C 0.49291 0.51176 0.71445 0.0
C1333 C 0.49278 0.49027 0.70644 0.0
C1334 C 0.4994 0.47869 0.72466 0.0
C1335 C 0.50575 0.48826 0.75033 0.0
C1336 C 0.55425 0.55264 0.77516 0.0
C1337 C 0.56327 0.57675 0.76827 0.0
C1338 C 0.58374 0.58805 0.75403 0.0
C1339 C 0.59515 0.57523 0.74646 0.0
C1340 C 0.5853 0.55071 0.7522 0.0
C1341 C 0.56506 0.53953 0.76656 0.0
C1342 C 0.56591 0.57415 0.82803 0.0
C1343 C 0.56713 0.59606 0.8364 0.0
C1344 C 0.59005 0.61737 0.84535 0.0
C1345 C 0.61214 0.61708 0.84619 0.0
C1346 C 0.61075 0.59499 0.83794 0.0
C1347 C 0.58785 0.57373 0.82887 0.0
C1348 C 0.53291 0.54658 0.86537 0.0
C1349 C 0.52115 0.55549 0.88039 0.0
C1350 C 0.52854 0.56199 0.90667 0.0
C1351 C 0.54782 0.55973 0.91804 0.0
C1352 C 0.55954 0.5509 0.90302 0.0
C1353 C 0.55204 0.54423 0.87693 0.0
C1354 C 0.48451 0.50262 0.849 0.0
C1355 C 0.46215 0.50208 0.84983 0.0
C1356 C 0.44688 0.49075 0.86915 0.0
C1357 C 0.45385 0.47983 0.88772 0.0
C1358 C 0.47585 0.47976 0.88645 0.0
C1359 C 0.49103 0.49097 0.86711 0.0
C1360 C 0.48573 0.47999 0.67919 0.0
C1361 C 0.63654 0.63966 0.85564 0.0
H1362 H 0.67161 0.87141 0.77174 0.0
H1363 H 0.69248 0.69844 0.57184 0.0
H1364 H 0.63354 0.85082 0.63564 0.0
H1365 H 0.63923 0.89085 0.65101 0.0
H1366 H 0.71134 0.92937 0.62258 0.0
H1367 H 0.70562 0.88944 0.6071 0.0
H1368 H 0.63916 0.8145 0.67123 0.0
H1369 H 0.64597 0.83287 0.71525 0.0
H1370 H 0.72018 0.89109 0.70196 0.0
H1371 H 0.71314 0.87244 0.65805 0.0
H1372 H 0.63892 0.76937 0.65249 0.0
H1373 H 0.64954 0.74489 0.67925 0.0
H1374 H 0.72775 0.7988 0.67704 0.0
H1375 H 0.7171 0.82356 0.65098 0.0
H1376 H 0.62838 0.75322 0.59008 0.0
H1377 H 0.62892 0.71584 0.578 0.0
H1378 H 0.70944 0.75858 0.5909 0.0
H1379 H 0.70858 0.79577 0.60292 0.0
H1380 H 0.62354 0.78667 0.54901 0.0
H1381 H 0.62099 0.76944 0.50515 0.0
H1382 H 0.70012 0.79926 0.51444 0.0
H1383 H 0.70268 0.81647 0.5582 0.0
H1384 H 0.6241 0.83631 0.57254 0.0
H1385 H 0.61885 0.85456 0.53411 0.0
H1386 H 0.69368 0.87795 0.51837 0.0
H1387 H 0.69903 0.86014 0.55676 0.0
O1388 O 0.66942 0.86428 0.75438 0.0
O1389 O 0.70726 0.89399 0.74642 0.0
O1390 O 0.65035 0.69191 0.56952 0.0
O1391 O 0.69172 0.71291 0.57654 0.0
C1392 C 0.66755 0.84352 0.61439 0.0
C1393 C 0.67112 0.83147 0.63462 0.0
C1394 C 0.67136 0.80969 0.62917 0.0
C1395 C 0.668 0.79989 0.60358 0.0
C1396 C 0.66481 0.81209 0.58344 0.0
C1397 C 0.66445 0.83385 0.58878 0.0
C1398 C 0.66914 0.86734 0.6202 0.0
C1399 C 0.65031 0.86792 0.63226 0.0
C1400 C 0.65355 0.89062 0.64103 0.0
C1401 C 0.67572 0.91286 0.63793 0.0
C1402 C 0.69414 0.9123 0.62504 0.0
C1403 C 0.69083 0.88963 0.61615 0.0
C1404 C 0.67562 0.84221 0.66151 0.0
C1405 C 0.6569 0.83115 0.67794 0.0
C1406 C 0.66083 0.84171 0.70304 0.0
C1407 C 0.68359 0.8635 0.7121 0.0
C1408 C 0.70243 0.87433 0.69559 0.0
C1409 C 0.69846 0.86375 0.67051 0.0
C1410 C 0.67728 0.79811 0.64984 0.0
C1411 C 0.6583 0.77632 0.65863 0.0
C1412 C 0.66434 0.76243 0.67382 0.0
C1413 C 0.68941 0.77001 0.67984 0.0
C1414 C 0.70834 0.79275 0.67259 0.0
C1415 C 0.70229 0.80681 0.65778 0.0
C1416 C 0.66841 0.77706 0.59762 0.0
C1417 C 0.64608 0.75438 0.59046 0.0
C1418 C 0.64646 0.73311 0.58348 0.0
C1419 C 0.66924 0.73423 0.58347 0.0
C1420 C 0.69159 0.75706 0.59069 0.0
C1421 C 0.69116 0.77829 0.59774 0.0
C1422 C 0.66326 0.80267 0.55667 0.0
C1423 C 0.6403 0.78956 0.5415 0.0
C1424 C 0.63885 0.77974 0.51666 0.0
C1425 C 0.66037 0.78305 0.50685 0.0
C1426 C 0.68339 0.79653 0.52187 0.0
C1427 C 0.68481 0.80626 0.54668 0.0
C1428 C 0.66192 0.84689 0.56732 0.0
C1429 C 0.63943 0.84569 0.56096 0.0
C1430 C 0.6364 0.85593 0.5391 0.0
C1431 C 0.65584 0.86736 0.52347 0.0
C1432 C 0.67848 0.86907 0.53022 0.0
C1433 C 0.68154 0.859 0.55206 0.0
C1434 C 0.68757 0.8749 0.73864 0.0
C1435 C 0.66976 0.7117 0.57606 0.0
H1436 H 0.16681 0.85248 0.76949 0.0
H1437 H 0.02845 0.64723 0.5566 0.0
H1438 H 0.17245 0.85917 0.632 0.0
H1439 H 0.20382 0.9025 0.64654 0.0
H1440 H 0.26231 0.88836 0.63558 0.0
H1441 H 0.23066 0.84446 0.62141 0.0
H1442 H 0.13723 0.82369 0.65979 0.0
H1443 H 0.14397 0.83706 0.70548 0.0
H1444 H 0.20457 0.82427 0.71395 0.0
H1445 H 0.19733 0.81051 0.66824 0.0
H1446 H 0.0992 0.78612 0.61852 0.0
H1447 H 0.06413 0.76713 0.64443 0.0
H1448 H 0.10008 0.73704 0.68868 0.0
H1449 H 0.13564 0.75643 0.66263 0.0
H1450 H 0.09894 0.77085 0.56486 0.0
H1451 H 0.06094 0.73214 0.54748 0.0
H1452 H 0.08588 0.69072 0.58897 0.0
H1453 H 0.12406 0.72961 0.60588 0.0
H1454 H 0.14197 0.81205 0.54408 0.0
H1455 H 0.13027 0.79832 0.49833 0.0
H1456 H 0.14452 0.73983 0.5083 0.0
H1457 H 0.15652 0.75377 0.5544 0.0
H1458 H 0.18114 0.85742 0.57585 0.0
H1459 H 0.20432 0.88156 0.54144 0.0
H1460 H 0.23149 0.83275 0.52887 0.0
H1461 H 0.20861 0.80879 0.56357 0.0
O1462 O 0.1644 0.84702 0.75147 0.0
O1463 O 0.1956 0.84043 0.75475 0.0
O1464 O 0.03161 0.68499 0.54189 0.0
O1465 O 0.04339 0.66281 0.5631 0.0
C1466 C 0.17985 0.82277 0.61651 0.0
C1467 C 0.16247 0.80747 0.63304 0.0
C1468 C 0.14088 0.78485 0.62299 0.0
C1469 C 0.13755 0.77656 0.59682 0.0
C1470 C 0.15539 0.79143 0.58045 0.0
C1471 C 0.17638 0.81474 0.59023 0.0
C1472 C 0.19932 0.84865 0.62601 0.0
C1473 C 0.19201 0.86525 0.63315 0.0
C1474 C 0.20981 0.8899 0.6413 0.0
C1475 C 0.2352 0.89838 0.64219 0.0
C1476 C 0.2427 0.88191 0.63509 0.0
C1477 C 0.22477 0.85705 0.62703 0.0
C1478 C 0.16654 0.81574 0.66079 0.0
C1479 C 0.15175 0.8235 0.6716 0.0
C1480 C 0.15575 0.83128 0.69768 0.0
C1481 C 0.17476 0.83166 0.7134 0.0
C1482 C 0.18972 0.82412 0.70241 0.0
C1483 C 0.18563 0.81626 0.67633 0.0
C1484 C 0.11973 0.77236 0.63858 0.0
C1485 C 0.0995 0.77536 0.63373 0.0
C1486 C 0.07969 0.76477 0.6486 0.0
C1487 C 0.07975 0.75095 0.66849 0.0
C1488 C 0.09996 0.74789 0.67349 0.0
C1489 C 0.12001 0.75871 0.65862 0.0
C1490 C 0.11442 0.753 0.58632 0.0
C1491 C 0.09629 0.75339 0.56995 0.0
C1492 C 0.07453 0.73125 0.56017 0.0
C1493 C 0.0704 0.70831 0.56678 0.0
C1494 C 0.08851 0.70804 0.58343 0.0
C1495 C 0.11033 0.73021 0.59312 0.0
C1496 C 0.15028 0.78403 0.55248 0.0
C1497 C 0.14306 0.79659 0.53637 0.0
C1498 C 0.13632 0.78873 0.51037 0.0
C1499 C 0.13661 0.76815 0.50011 0.0
C1500 C 0.14435 0.75583 0.51601 0.0
C1501 C 0.15112 0.76373 0.54215 0.0
C1502 C 0.19335 0.83146 0.5723 0.0
C1503 C 0.1927 0.85239 0.56623 0.0
C1504 C 0.20577 0.86605 0.5466 0.0
C1505 C 0.21951 0.85883 0.53277 0.0
C1506 C 0.22104 0.83858 0.53952 0.0
C1507 C 0.20804 0.82497 0.55922 0.0
C1508 C 0.17896 0.83995 0.74111 0.0
C1509 C 0.04728 0.68474 0.55646 0.0
H1510 H 0.20053 0.31919 0.76864 0.0
H1511 H 0.01111 0.32198 0.57864 0.0
H1512 H 0.21864 0.35539 0.6358 0.0
H1513 H 0.25168 0.3485 0.65152 0.0
H1514 H 0.20828 0.2731 0.61653 0.0
H1515 H 0.17544 0.28019 0.60037 0.0
H1516 H 0.17757 0.35146 0.67422 0.0
H1517 H 0.18926 0.34484 0.71697 0.0
H1518 H 0.16522 0.26956 0.6897 0.0
H1519 H 0.15357 0.27643 0.64709 0.0
H1520 H 0.12485 0.35035 0.65318 0.0
H1521 H 0.09021 0.33665 0.67997 0.0
H1522 H 0.07492 0.26204 0.67085 0.0
H1523 H 0.10885 0.27545 0.64353 0.0
H1524 H 0.13377 0.3692 0.59506 0.0
H1525 H 0.09887 0.37512 0.58668 0.0
H1526 H 0.04712 0.29667 0.59039 0.0
H1527 H 0.08216 0.29103 0.5989 0.0
H1528 H 0.17367 0.36678 0.55372 0.0
H1529 H 0.16391 0.36925 0.50844 0.0
H1530 H 0.09267 0.301 0.5078 0.0
H1531 H 0.10332 0.29748 0.5521 0.0
H1532 H 0.21363 0.35986 0.57668 0.0
H1533 H 0.233 0.36103 0.53721 0.0
H1534 H 0.1691 0.28933 0.50897 0.0
H1535 H 0.14973 0.28823 0.54828 0.0
O1536 O 0.19552 0.32132 0.75168 0.0
O1537 O 0.18305 0.28283 0.73665 0.0
O1538 O 0.05262 0.36031 0.5797 0.0
O1539 O 0.02525 0.32018 0.58189 0.0
C1540 C 0.17316 0.32106 0.61166 0.0
C1541 C 0.15837 0.31887 0.63158 0.0
C1542 C 0.13725 0.32068 0.62683 0.0
C1543 C 0.13181 0.32631 0.60252 0.0
C1544 C 0.14645 0.32828 0.58247 0.0
C1545 C 0.16673 0.3249 0.58691 0.0
C1546 C 0.19478 0.31831 0.6169 0.0
C1547 C 0.2166 0.33762 0.63093 0.0
C1548 C 0.23531 0.33366 0.63996 0.0
C1549 C 0.23226 0.31026 0.63528 0.0
C1550 C 0.21091 0.29127 0.62026 0.0
C1551 C 0.19232 0.29533 0.61097 0.0
C1552 C 0.16493 0.3145 0.65757 0.0
C1553 C 0.17481 0.33355 0.67757 0.0
C1554 C 0.18148 0.32972 0.70194 0.0
C1555 C 0.17826 0.30669 0.70673 0.0
C1556 C 0.16801 0.28753 0.68665 0.0
C1557 C 0.16143 0.29142 0.66228 0.0
C1558 C 0.1193 0.31387 0.64634 0.0
C1559 C 0.11434 0.33117 0.65738 0.0
C1560 C 0.09476 0.32343 0.67273 0.0
C1561 C 0.08025 0.2984 0.67743 0.0
C1562 C 0.08616 0.28145 0.66764 0.0
C1563 C 0.10548 0.28911 0.65209 0.0
C1564 C 0.11048 0.32974 0.59779 0.0
C1565 C 0.11487 0.35335 0.59414 0.0
C1566 C 0.09492 0.35666 0.58934 0.0
C1567 C 0.07019 0.33636 0.58798 0.0
C1568 C 0.06591 0.31271 0.59146 0.0
C1569 C 0.08588 0.30944 0.59639 0.0
C1570 C 0.13931 0.33184 0.55623 0.0
C1571 C 0.15592 0.35243 0.54381 0.0
C1572 C 0.15022 0.35399 0.51809 0.0
C1573 C 0.12763 0.3352 0.50458 0.0
C1574 C 0.1103 0.31563 0.5177 0.0
C1575 C 0.11631 0.31368 0.54306 0.0
C1576 C 0.18024 0.32403 0.56522 0.0
C1577 C 0.20411 0.34416 0.56224 0.0
C1578 C 0.21512 0.34481 0.53982 0.0
C1579 C 0.20243 0.32526 0.52027 0.0
C1580 C 0.17919 0.3045 0.52393 0.0
C1581 C 0.16816 0.30391 0.54625 0.0
C1582 C 0.1857 0.30279 0.73254 0.0
C1583 C 0.04891 0.33977 0.58293 0.0
C1584 C 0.98713 0.44825 0.09473 0.0
C1585 C 0.97753 0.42261 0.08875 0.0
C1586 C 0.97549 0.41588 0.1342 0.0
C1587 C 0.98421 0.44132 0.14016 0.0
N1588 N 0.99548 0.48129 0.12673 0.0
N1589 N 0.95851 0.38115 0.10157 0.0
C1590 C 0.98911 0.45738 0.12056 0.0
C1591 C 0.97049 0.40616 0.10816 0.0
N1592 N 0.99522 0.46393 0.07583 0.0
N1593 N 0.97286 0.40127 0.15349 0.0
H1594 H 0.95462 0.37341 0.08264 0.0
H1595 H 0.95056 0.36791 0.11454 0.0
H1596 H 0.97585 0.40759 0.17282 0.0
H1597 H 0.96944 0.3834 0.15049 0.0
H1598 H 0.00495 0.48317 0.07916 0.0
H1599 H 0.99349 0.45775 0.05663 0.0
H1600 H 0.99703 0.49336 0.11331 0.0
H1601 H 0.99773 0.48873 0.14553 0.0
C1602 C 0.60009 0.55942 0.15202 0.0
C1603 C 0.58655 0.55477 0.12777 0.0
C1604 C 0.54704 0.53046 0.14631 0.0
C1605 C 0.56054 0.53609 0.17081 0.0
N1606 N 0.59927 0.55888 0.19809 0.0
N1607 N 0.54757 0.53971 0.10207 0.0
C1608 C 0.58693 0.55144 0.174 0.0
C1609 C 0.56011 0.54141 0.12499 0.0
N1610 N 0.62546 0.57084 0.15386 0.0
N1611 N 0.52181 0.51399 0.1433 0.0
H1612 H 0.55651 0.54715 0.08588 0.0
H1613 H 0.52851 0.53267 0.09947 0.0
H1614 H 0.51151 0.50549 0.15841 0.0
H1615 H 0.51117 0.50731 0.12562 0.0
H1616 H 0.63628 0.5724 0.17042 0.0
H1617 H 0.63569 0.57738 0.13821 0.0
H1618 H 0.61822 0.5721 0.20196 0.0
H1619 H 0.59016 0.55323 0.21455 0.0
C1620 C 0.42959 0.00511 0.1269 0.0
C1621 C 0.44491 0.01142 0.10652 0.0
C1622 C 0.48111 0.02221 0.13655 0.0
C1623 C 0.46557 0.01524 0.15674 0.0
N1624 N 0.42701 0.0057 0.17274 0.0
N1625 N 0.48556 0.03019 0.0918 0.0
C1626 C 0.44044 0.00863 0.1524 0.0
C1627 C 0.47087 0.02144 0.11135 0.0
N1628 N 0.40442 0.99453 0.12168 0.0
N1629 N 0.50536 0.02877 0.14144 0.0
H1630 H 0.47836 0.02966 0.07321 0.0
H1631 H 0.50492 0.03951 0.09415 0.0
H1632 H 0.51359 0.03054 0.15988 0.0
H1633 H 0.51711 0.03146 0.12734 0.0
H1634 H 0.39176 0.98668 0.13516 0.0
H1635 H 0.39584 0.99216 0.1033 0.0
H1636 H 0.40943 0.00337 0.17118 0.0
H1637 H 0.43426 0.00765 0.19166 0.0
C1638 C 0.42315 0.97548 0.94779 0.0
C1639 C 0.42992 0.99639 0.96523 0.0
C1640 C 0.45111 0.02333 0.93182 0.0
C1641 C 0.44826 0.00288 0.91647 0.0
N1642 N 0.43725 0.96011 0.91425 0.0
N1643 N 0.45747 0.04098 0.9752 0.0
C1644 C 0.43594 0.97907 0.92568 0.0
C1645 C 0.44588 0.02062 0.95767 0.0
N1646 N 0.40382 0.95236 0.95137 0.0
N1647 N 0.45841 0.04526 0.92178 0.0
H1648 H 0.45678 0.03988 0.99484 0.0
H1649 H 0.4706 0.05862 0.97045 0.0
H1650 H 0.46127 0.04762 0.90255 0.0
H1651 H 0.4588 0.05999 0.9319 0.0
H1652 H 0.39741 0.93712 0.93793 0.0
H1653 H 0.39214 0.94902 0.96573 0.0
H1654 H 0.43018 0.94311 0.92187 0.0
H1655 H 0.44785 0.96226 0.8991 0.0
C1656 C 0.02352 0.46421 0.96211 0.0
C1657 C 0.01766 0.43943 0.9615 0.0
C1658 C 0.0234 0.43943 0.91588 0.0
C1659 C 0.02367 0.46182 0.91555 0.0
N1660 N 0.02465 0.49633 0.93821 0.0
N1661 N 0.01274 0.40322 0.93823 0.0
C1662 C 0.02455 0.4748 0.93873 0.0
C1663 C 0.01848 0.42717 0.93864 0.0
N1664 N 0.02772 0.47732 0.98517 0.0
N1665 N 0.02749 0.42985 0.89427 0.0
H1666 H 0.00969 0.39384 0.9546 0.0
H1667 H 0.00985 0.3922 0.92151 0.0
H1668 H 0.03106 0.4386 0.8774 0.0
H1669 H 0.02964 0.4147 0.8937 0.0
H1670 H 0.03407 0.49615 0.98726 0.0
H1671 H 0.02713 0.46974 0.00248 0.0
H1672 H 0.02221 0.50504 0.95401 0.0
H1673 H 0.02587 0.50493 0.92155 0.0
C1674 C 0.59035 0.59334 0.97877 0.0
C1675 C 0.57815 0.5756 0.99653 0.0
C1676 C 0.5441 0.54854 0.96332 0.0
C1677 C 0.5561 0.56644 0.94578 0.0
N1678 N 0.587 0.60813 0.93797 0.0
N1679 N 0.54072 0.53978 0.00774 0.0
C1680 C 0.57796 0.58969 0.954 0.0
C1681 C 0.55407 0.55431 0.98943 0.0
N1682 N 0.61444 0.61265 0.98474 0.0
N1683 N 0.52397 0.5256 0.95479 0.0
H1684 H 0.54748 0.54383 0.02709 0.0
H1685 H 0.52217 0.52529 0.00417 0.0
H1686 H 0.51616 0.52075 0.93578 0.0
H1687 H 0.51607 0.51085 0.96611 0.0
H1688 H 0.62519 0.62431 0.97145 0.0
H1689 H 0.62455 0.61595 0.00242 0.0
H1690 H 0.60145 0.62629 0.94373 0.0
H1691 H 0.5785 0.60584 0.91954 0.0
C1692 C 0.04684 0.58388 0.97888 0.0
C1693 C 0.02614 0.58094 0.99105 0.0
C1694 C -0.00012 0.56214 0.95037 0.0
C1695 C 0.01947 0.56149 0.93952 0.0
N1696 N 0.06004 0.56654 0.94616 0.0
N1697 N 0.98112 0.56001 0.98931 0.0
C1698 C 0.04253 0.57078 0.95457 0.0
C1699 C 0.00208 0.568 0.97709 0.0
N1700 N 0.07069 0.60011 0.98963 0.0
N1701 N 0.97945 0.5579 0.93522 0.0
H1702 H 0.98145 0.56161 0.00916 0.0
H1703 H 0.9632 0.54886 0.97988 0.0
H1704 H 0.97762 0.55476 0.91533 0.0
H1705 H 0.96578 0.56035 0.94222 0.0
H1706 H 0.08623 0.60423 0.98022 0.0
H1707 H 0.07499 0.61172 0.00631 0.0
H1708 H 0.07616 0.57105 0.95762 0.0
H1709 H 0.05724 0.5562 0.9289 0.0
C1710 C 0.43696 0.47151 0.9557 0.0
C1711 C 0.41375 0.4485 0.9524 0.0
C1712 C 0.41679 0.44576 0.90624 0.0
C1713 C 0.43895 0.46958 0.90948 0.0
N1714 N 0.46666 0.50774 0.93602 0.0
N1715 N 0.37889 0.41642 0.92396 0.0
C1716 C 0.44793 0.48329 0.93383 0.0
C1717 C 0.40286 0.43635 0.92747 0.0
N1718 N 0.44933 0.48143 0.97958 0.0
N1719 N 0.40942 0.43187 0.88312 0.0
H1720 H 0.36781 0.40944 0.93894 0.0
H1721 H 0.36917 0.40834 0.90598 0.0
H1722 H 0.41893 0.43835 0.86702 0.0
H1723 H 0.39499 0.41331 0.8804 0.0
H1724 H 0.4675 0.49678 0.98268 0.0
H1725 H 0.44262 0.47293 0.99617 0.0
H1726 H 0.47222 0.5193 0.95298 0.0
H1727 H 0.47506 0.51706 0.92032 0.0
C1728 C 0.53098 0.98662 0.97809 0.0
C1729 C 0.55221 0.98464 0.9821 0.0
C1730 C 0.54923 0.97394 0.93607 0.0
C1731 C 0.53161 0.98099 0.93184 0.0
N1732 N 0.50505 0.99382 0.94833 0.0
N1733 N 0.58275 0.97773 0.96446 0.0
C1734 C 0.52192 0.98684 0.95273 0.0
C1735 C 0.56136 0.97807 0.96106 0.0
N1736 N 0.51951 0.98816 0.99862 0.0
N1737 N 0.55456 0.96362 0.91601 0.0
H1738 H 0.59259 0.98075 0.98222 0.0
H1739 H 0.59192 0.97627 0.94937 0.0
H1740 H 0.546 0.96058 0.89745 0.0
H1741 H 0.56546 0.95588 0.91819 0.0
H1742 H 0.50274 0.98756 0.99697 0.0
H1743 H 0.52562 0.98761 0.01734 0.0
H1744 H 0.49945 0.00111 0.96269 0.0
H1745 H 0.49755 0.99353 0.93 0.0
C1746 C 0.59278 0.01561 0.14311 0.0
C1747 C 0.57508 0.00695 0.12122 0.0
C1748 C 0.54115 0.99371 0.14851 0.0
C1749 C 0.55871 0.00126 0.17042 0.0
N1750 N 0.60034 0.01564 0.18895 0.0
N1751 N 0.53243 0.9847 0.10234 0.0
C1752 C 0.58431 0.01117 0.16782 0.0
C1753 C 0.54923 0.99506 0.12371 0.0
N1754 N 0.61769 0.02861 0.14023 0.0
N1755 N 0.51692 0.98602 0.15146 0.0
H1756 H 0.53774 0.98592 0.08383 0.0
H1757 H 0.51326 0.97339 0.10285 0.0
H1758 H 0.51023 0.9846 0.16928 0.0
H1759 H 0.50371 0.98267 0.13645 0.0
H1760 H 0.63162 0.03782 0.15541 0.0
H1761 H 0.62453 0.03169 0.12237 0.0
H1762 H 0.61869 0.02043 0.18815 0.0
H1763 H 0.59472 0.01265 0.20733 0.0
C1764 C 0.99698 0.58342 0.14515 0.0
C1765 C 0.99354 0.56982 0.12149 0.0
C1766 C 0.97692 0.53156 0.1426 0.0
C1767 C 0.98525 0.54603 0.16655 0.0
N1768 N 0.00136 0.58508 0.19155 0.0
N1769 N 0.97838 0.531 0.09653 0.0
C1770 C 0.99422 0.57173 0.16811 0.0
C1771 C 0.98246 0.54375 0.11981 0.0
N1772 N 0.00335 0.60757 0.14552 0.0
N1773 N 0.96402 0.50628 0.14187 0.0
H1774 H 0.98123 0.53943 0.07948 0.0
H1775 H 0.97293 0.51243 0.09406 0.0
H1776 H 0.96001 0.49706 0.15844 0.0
H1777 H 0.95566 0.49442 0.12513 0.0
H1778 H 0.0044 0.61813 0.16184 0.0
H1779 H 0.00554 0.61647 0.12888 0.0
H1780 H 0.0108 0.60435 0.19419 0.0
H1781 H 0.99857 0.57677 0.20865 0.0
C1782 C 0.44896 0.43729 0.0859 0.0
C1783 C 0.42329 0.41878 0.08058 0.0
C1784 C 0.42097 0.4096 0.12532 0.0
C1785 C 0.44649 0.4286 0.1308 0.0
N1786 N 0.48634 0.45559 0.11585 0.0
N1787 N 0.38673 0.38271 0.09303 0.0
C1788 C 0.46103 0.44082 0.11084 0.0
C1789 C 0.40998 0.40327 0.09956 0.0
N1790 N 0.46152 0.45193 0.0673 0.0
N1791 N 0.40686 0.39869 0.14485 0.0
H1792 H 0.37801 0.37766 0.07439 0.0
H1793 H 0.37707 0.3694 0.1055 0.0
H1794 H 0.41425 0.40245 0.16395 0.0
H1795 H 0.38753 0.38709 0.14239 0.0
H1796 H 0.4794 0.46766 0.07071 0.0
H1797 H 0.45352 0.44889 0.04848 0.0
H1798 H 0.49833 0.46343 0.10178 0.0
H1799 H 0.49552 0.45823 0.134 0.0
C1800 C 0.66008 0.77573 0.43466 0.0
C1801 C 0.65276 0.75047 0.4309 0.0
C1802 C 0.65395 0.74775 0.4772 0.0
C1803 C 0.65874 0.7722 0.48077 0.0
N1804 N 0.66556 0.8095 0.46369 0.0
N1805 N 0.64104 0.71159 0.44764 0.0
C1806 C 0.66169 0.78627 0.4597 0.0
C1807 C 0.64945 0.73628 0.45193 0.0
N1808 N 0.66611 0.78973 0.41432 0.0
N1809 N 0.65406 0.73572 0.49803 0.0
H1810 H 0.63804 0.70269 0.4294 0.0
H1811 H 0.63552 0.69948 0.46186 0.0
H1812 H 0.65659 0.7433 0.51683 0.0
H1813 H 0.65341 0.71902 0.49687 0.0
H1814 H 0.67392 0.80884 0.41595 0.0
H1815 H 0.66508 0.78253 0.39572 0.0
H1816 H 0.66526 0.81981 0.44907 0.0
H1817 H 0.66781 0.81817 0.48188 0.0
C1818 C 0.22549 0.874 0.46359 0.0
C1819 C 0.25164 0.89051 0.46456 0.0
C1820 C 0.25599 0.88963 0.51106 0.0
C1821 C 0.23034 0.87091 0.50959 0.0
N1822 N 0.19058 0.84388 0.48479 0.0
N1823 N 0.29234 0.91336 0.48828 0.0
C1824 C 0.21499 0.86282 0.48595 0.0
C1825 C 0.26706 0.89834 0.48809 0.0
N1826 N 0.21073 0.8694 0.44134 0.0
N1827 N 0.26956 0.8993 0.53445 0.0
H1828 H 0.30097 0.92062 0.47189 0.0
H1829 H 0.30491 0.9175 0.50424 0.0
H1830 H 0.26199 0.89308 0.55158 0.0
H1831 H 0.28769 0.91467 0.53712 0.0
H1832 H 0.19134 0.85955 0.43988 0.0
H1833 H 0.21788 0.87721 0.42456 0.0
H1834 H 0.17901 0.83536 0.46781 0.0
H1835 H 0.18209 0.83548 0.50082 0.0
C1836 C 0.11791 0.35108 0.43709 0.0
C1837 C 0.10572 0.32705 0.42351 0.0
C1838 C 0.1164 0.31205 0.46115 0.0
C1839 C 0.12283 0.33405 0.47624 0.0
N1840 N 0.12613 0.37376 0.47845 0.0
N1841 N 0.08737 0.28278 0.42708 0.0
C1842 C 0.1228 0.35353 0.4642 0.0
C1843 C 0.1035 0.30695 0.43656 0.0
N1844 N 0.12538 0.37159 0.42422 0.0
N1845 N 0.12228 0.29583 0.47029 0.0
H1846 H 0.07432 0.27728 0.41124 0.0
H1847 H 0.08434 0.26797 0.43732 0.0
H1848 H 0.13249 0.2993 0.488 0.0
H1849 H 0.11948 0.28048 0.45896 0.0
H1850 H 0.13591 0.38959 0.43327 0.0
H1851 H 0.12376 0.37074 0.4043 0.0
H1852 H 0.12392 0.38726 0.47046 0.0
H1853 H 0.12861 0.37581 0.49838 0.0
C1854 C 0.08541 0.33872 0.26859 0.0
C1855 C 0.07622 0.31563 0.27946 0.0
C1856 C 0.08978 0.30057 0.24427 0.0
C1857 C 0.09983 0.32365 0.23386 0.0
N1858 N 0.10178 0.36237 0.23206 0.0
N1859 N 0.05727 0.27163 0.2681 0.0
C1860 C 0.09617 0.34216 0.24491 0.0
C1861 C 0.07462 0.29558 0.26445 0.0
N1862 N 0.08322 0.35707 0.28015 0.0
N1863 N 0.09514 0.2835 0.23544 0.0
H1864 H 0.04322 0.26718 0.28001 0.0
H1865 H 0.05441 0.25647 0.25637 0.0
H1866 H 0.10672 0.28653 0.22103 0.0
H1867 H 0.09 0.26738 0.24426 0.0
H1868 H 0.09383 0.37556 0.27639 0.0
H1869 H 0.06976 0.35364 0.29246 0.0
H1870 H 0.09726 0.37536 0.23756 0.0
H1871 H 0.10928 0.36522 0.21456 0.0
C1872 C 0.6497 0.75911 0.27895 0.0
C1873 C 0.66821 0.75928 0.29588 0.0
C1874 C 0.69827 0.78058 0.26484 0.0
C1875 C 0.6806 0.78393 0.2506 0.0
N1876 N 0.64239 0.78393 0.25106 0.0
N1877 N 0.71242 0.77663 0.30706 0.0
C1878 C 0.65725 0.77568 0.25989 0.0
C1879 C 0.69326 0.77186 0.28952 0.0
N1880 N 0.6249 0.74217 0.27965 0.0
N1881 N 0.71931 0.78482 0.2547 0.0
H1882 H 0.71004 0.77256 0.32599 0.0
H1883 H 0.73105 0.78743 0.3036 0.0
H1884 H 0.72305 0.79003 0.23624 0.0
H1885 H 0.73158 0.78056 0.26365 0.0
H1886 H 0.61127 0.74099 0.26639 0.0
H1887 H 0.61826 0.72715 0.29062 0.0
H1888 H 0.62587 0.77925 0.25879 0.0
H1889 H 0.64807 0.79769 0.23849 0.0
C1890 C 0.22595 0.91529 0.32246 0.0
C1891 C 0.23859 0.90283 0.32836 0.0
C1892 C 0.22634 0.88258 0.28477 0.0
C1893 C 0.21813 0.89849 0.27754 0.0
N1894 N 0.21298 0.93258 0.2893 0.0
N1895 N 0.25702 0.88046 0.3117 0.0
C1896 C 0.21857 0.91554 0.29634 0.0
C1897 C 0.2404 0.88792 0.30864 0.0
N1898 N 0.22027 0.92615 0.34164 0.0
N1899 N 0.22087 0.8624 0.26879 0.0
H1900 H 0.27017 0.88638 0.32757 0.0
H1901 H 0.26008 0.87122 0.29684 0.0
H1902 H 0.20994 0.85744 0.2513 0.0
H1903 H 0.22487 0.84922 0.27429 0.0
H1904 H 0.20925 0.93364 0.33837 0.0
H1905 H 0.22426 0.92527 0.36095 0.0
H1906 H 0.21551 0.94703 0.30196 0.0
H1907 H 0.20782 0.93353 0.27038 0.0
C1908 C 0.70112 0.9268 0.30536 0.0
C1909 C 0.70105 0.91362 0.3264 0.0
C1910 C 0.70083 0.88223 0.29717 0.0
C1911 C 0.69804 0.89398 0.27609 0.0
N1912 N 0.6909 0.92483 0.25987 0.0
N1913 N 0.69691 0.87678 0.34226 0.0
C1914 C 0.6969 0.91555 0.2801 0.0
C1915 C 0.69996 0.89081 0.32234 0.0
N1916 N 0.70617 0.95047 0.3095 0.0
N1917 N 0.70486 0.86327 0.29318 0.0
H1918 H 0.69585 0.88223 0.36091 0.0
H1919 H 0.69327 0.85878 0.33994 0.0
H1920 H 0.70552 0.85645 0.275 0.0
H1921 H 0.70961 0.8557 0.30793 0.0
H1922 H 0.70899 0.96186 0.29487 0.0
H1923 H 0.71009 0.95971 0.32773 0.0
H1924 H 0.68713 0.93887 0.262 0.0
H1925 H 0.68739 0.917 0.24102 0.0
C1926 C 0.10965 0.77155 0.28023 0.0
C1927 C 0.09607 0.78071 0.29204 0.0
C1928 C 0.10825 0.81149 0.26092 0.0
C1929 C 0.11896 0.80021 0.24726 0.0
N1930 N 0.12428 0.7655 0.2408 0.0
N1931 N 0.07687 0.80497 0.2887 0.0
C1932 C 0.11791 0.77895 0.25592 0.0
C1933 C 0.0937 0.79939 0.28095 0.0
N1934 N 0.11608 0.75704 0.2927 0.0
N1935 N 0.11278 0.83424 0.25564 0.0
H1936 H 0.06462 0.79545 0.30214 0.0
H1937 H 0.07307 0.81697 0.27955 0.0
H1938 H 0.12431 0.84439 0.24194 0.0
H1939 H 0.10725 0.84415 0.26681 0.0
H1940 H 0.12792 0.75191 0.28569 0.0
H1941 H 0.11214 0.75257 0.3113 0.0
H1942 H 0.12159 0.74854 0.24532 0.0
H1943 H 0.12976 0.76993 0.22254 0.0
C1944 C 0.21608 0.34469 0.29284 0.0
C1945 C 0.21228 0.32473 0.3071 0.0
C1946 C 0.18972 0.29588 0.26856 0.0
C1947 C 0.19158 0.31571 0.2555 0.0
N1948 N 0.19851 0.3569 0.25898 0.0
N1949 N 0.18926 0.28038 0.30981 0.0
C1950 C 0.20188 0.33935 0.26903 0.0
C1951 C 0.19714 0.29996 0.29538 0.0
N1952 N 0.23472 0.36863 0.30052 0.0
N1953 N 0.18198 0.27359 0.25537 0.0
H1954 H 0.19311 0.28263 0.32965 0.0
H1955 H 0.17658 0.26208 0.30241 0.0
H1956 H 0.17681 0.27002 0.2357 0.0
H1957 H 0.18276 0.25943 0.26367 0.0
H1958 H 0.23897 0.38321 0.28936 0.0
H1959 H 0.24822 0.37356 0.31581 0.0
H1960 H 0.20424 0.37382 0.26921 0.0
H1961 H 0.18758 0.35336 0.24174 0.0
C1962 C 0.2083 0.33374 0.44949 0.0
C1963 C 0.23057 0.33413 0.44659 0.0
C1964 C 0.23257 0.32519 0.49126 0.0
C1965 C 0.21203 0.3278 0.49483 0.0
N1966 N 0.1829 0.33867 0.4785 0.0
N1967 N 0.26569 0.33289 0.46507 0.0
C1968 C 0.20055 0.33314 0.47423 0.0
C1969 C 0.24315 0.3304 0.46753 0.0
N1970 N 0.19406 0.33309 0.42845 0.0
N1971 N 0.2416 0.31728 0.51034 0.0
H1972 H 0.27396 0.33664 0.448 0.0
H1973 H 0.27706 0.33309 0.48037 0.0
H1974 H 0.23438 0.31354 0.52799 0.0
H1975 H 0.25484 0.31254 0.50803 0.0
H1976 H 0.1763 0.33009 0.42915 0.0
H1977 H 0.19887 0.33302 0.40985 0.0
H1978 H 0.17603 0.34561 0.46495 0.0
H1979 H 0.1767 0.33837 0.49638 0.0
C1980 C 0.65179 0.87454 0.45292 0.0
C1981 C 0.66049 0.90014 0.45377 0.0
C1982 C 0.66009 0.9027 0.50031 0.0
C1983 C 0.65292 0.87747 0.49962 0.0
N1984 N 0.63528 0.83762 0.47574 0.0
N1985 N 0.66648 0.93698 0.47639 0.0
C1986 C 0.64644 0.86276 0.47598 0.0
C1987 C 0.66232 0.91364 0.47691 0.0
N1988 N 0.64978 0.86187 0.43023 0.0
N1989 N 0.66596 0.91641 0.52336 0.0
H1990 H 0.66819 0.94533 0.45943 0.0
H1991 H 0.6661 0.94721 0.49221 0.0
H1992 H 0.6636 0.90867 0.54078 0.0
H1993 H 0.67414 0.93557 0.52542 0.0
H1994 H 0.64638 0.84396 0.42863 0.0
H1995 H 0.65246 0.86981 0.4129 0.0
H1996 H 0.62798 0.8255 0.45911 0.0
H1997 H 0.63147 0.82863 0.49245 0.0
C1998 C 0.09141 0.73516 0.4404 0.0
C1999 C 0.10577 0.75113 0.42216 0.0
C2000 C 0.14262 0.77161 0.45371 0.0
C2001 C 0.12714 0.75896 0.47289 0.0
N2002 N 0.08693 0.72868 0.48529 0.0
N2003 N 0.14516 0.78365 0.41038 0.0
C2004 C 0.10166 0.74031 0.46639 0.0
C2005 C 0.13156 0.76889 0.42843 0.0
N2006 N 0.06784 0.71541 0.43299 0.0
N2007 N 0.16784 0.78619 0.45984 0.0
H2008 H 0.13789 0.78098 0.39131 0.0
H2009 H 0.16321 0.799 0.41436 0.0
H2010 H 0.17626 0.78841 0.4783 0.0
H2011 H 0.18053 0.79448 0.44647 0.0
H2012 H 0.05736 0.70173 0.44481 0.0
H2013 H 0.05942 0.71136 0.4143 0.0
H2014 H 0.06759 0.71735 0.48234 0.0
H2015 H 0.0939 0.73144 0.50446 0.0
C2016 C 0.31031 0.10314 0.75741 0.0
C2017 C 0.30151 0.07753 0.75302 0.0
C2018 C 0.29833 0.0728 0.79876 0.0
C2019 C 0.3065 0.09826 0.8031 0.0
N2020 N 0.31686 0.13704 0.78701 0.0
N2021 N 0.28314 0.03693 0.76796 0.0
C2022 C 0.3114 0.11325 0.7825 0.0
C2023 C 0.29426 0.06201 0.77326 0.0
N2024 N 0.31845 0.11789 0.73773 0.0
N2025 N 0.29537 0.05922 0.8191 0.0
H2026 H 0.28019 0.0285 0.74947 0.0
H2027 H 0.2751 0.02424 0.78142 0.0
H2028 H 0.29759 0.06632 0.83804 0.0
H2029 H 0.29229 0.04143 0.81748 0.0
H2030 H 0.32774 0.13715 0.7401 0.0
H2031 H 0.31718 0.11093 0.71895 0.0
H2032 H 0.31828 0.14825 0.77264 0.0
H2033 H 0.31835 0.14517 0.80528 0.0
C2034 C 0.92551 0.23592 0.82077 0.0
C2035 C 0.91053 0.22668 0.79693 0.0
C2036 C 0.87346 0.20017 0.81839 0.0
C2037 C 0.88844 0.20939 0.84226 0.0
N2038 N 0.9271 0.23923 0.86716 0.0
N2039 N 0.86993 0.20456 0.773 0.0
C2040 C 0.914 0.22836 0.84375 0.0
C2041 C 0.88435 0.21021 0.79576 0.0
N2042 N 0.95082 0.25104 0.82132 0.0
N2043 N 0.84908 0.18118 0.81729 0.0
H2044 H 0.87738 0.21166 0.75607 0.0
H2045 H 0.85053 0.19461 0.77117 0.0
H2046 H 0.84029 0.17364 0.83349 0.0
H2047 H 0.83783 0.17183 0.80032 0.0
H2048 H 0.96312 0.25617 0.83776 0.0
H2049 H 0.95977 0.25741 0.80489 0.0
H2050 H 0.94514 0.25476 0.86968 0.0
H2051 H 0.91916 0.23388 0.8843 0.0
C2052 C 0.77419 0.68152 0.78999 0.0
C2053 C 0.78399 0.67598 0.76883 0.0
C2054 C 0.81526 0.67521 0.79808 0.0
C2055 C 0.80547 0.68084 0.81904 0.0
N2056 N 0.78061 0.69599 0.83495 0.0
N2057 N 0.81753 0.67401 0.7522 0.0
C2058 C 0.78664 0.68632 0.81492 0.0
C2059 C 0.80577 0.67492 0.77275 0.0
N2060 N 0.75201 0.68038 0.78672 0.0
N2061 N 0.83281 0.66911 0.80241 0.0
H2062 H 0.81124 0.6743 0.73348 0.0
H2063 H 0.83469 0.6754 0.75384 0.0
H2064 H 0.84062 0.66974 0.82071 0.0
H2065 H 0.83856 0.662 0.78802 0.0
H2066 H 0.74252 0.68106 0.80189 0.0
H2067 H 0.74185 0.67675 0.76903 0.0
H2068 H 0.76886 0.70277 0.83272 0.0
H2069 H 0.78923 0.69945 0.85354 0.0
C2070 C 0.78935 0.67654 0.62771 0.0
C2071 C 0.76346 0.66062 0.62933 0.0
C2072 C 0.75557 0.65477 0.5825 0.0
C2073 C 0.78166 0.66844 0.58091 0.0
N2074 N 0.82367 0.68996 0.60186 0.0
N2075 N 0.72176 0.63294 0.60895 0.0
C2076 C 0.79865 0.67888 0.60347 0.0
C2077 C 0.74648 0.64928 0.60689 0.0
N2078 N 0.80502 0.68956 0.64937 0.0
N2079 N 0.73956 0.64768 0.56071 0.0
H2080 H 0.71434 0.62921 0.6265 0.0
H2081 H 0.70884 0.62191 0.59347 0.0
H2082 H 0.74568 0.65161 0.5426 0.0
H2083 H 0.72042 0.63981 0.56066 0.0
H2084 H 0.82358 0.70369 0.64917 0.0
H2085 H 0.79904 0.68761 0.66761 0.0
H2086 H 0.83664 0.69519 0.61771 0.0
H2087 H 0.8314 0.69212 0.58457 0.0
C2088 C 0.34388 0.08701 0.60457 0.0
C2089 C 0.33891 0.09619 0.62707 0.0
C2090 C 0.33984 0.12951 0.60488 0.0
C2091 C 0.34425 0.12006 0.58219 0.0
N2092 N 0.3562 0.09387 0.56145 0.0
N2093 N 0.33901 0.12946 0.65092 0.0
C2094 C 0.34831 0.10018 0.58244 0.0
C2095 C 0.33924 0.11864 0.62794 0.0
N2096 N 0.34281 0.06496 0.6039 0.0
N2097 N 0.33489 0.14798 0.60407 0.0
H2098 H 0.33873 0.12183 0.66811 0.0
H2099 H 0.3415 0.14701 0.6533 0.0
H2100 H 0.33568 0.1568 0.58765 0.0
H2101 H 0.32852 0.15356 0.61917 0.0
H2102 H 0.3432 0.05569 0.58724 0.0
H2103 H 0.34023 0.05516 0.61992 0.0
H2104 H 0.36171 0.08106 0.56114 0.0
H2105 H 0.35919 0.103 0.54487 0.0
C2106 C 0.90145 0.21907 0.64065 0.0
C2107 C 0.90024 0.23489 0.65976 0.0
C2108 C 0.88132 0.2478 0.62674 0.0
C2109 C 0.88013 0.22983 0.6086 0.0
N2110 N 0.88122 0.19262 0.60143 0.0
N2111 N 0.8832 0.25977 0.67168 0.0
C2112 C 0.88747 0.21348 0.61667 0.0
C2113 C 0.88841 0.24795 0.65306 0.0
N2114 N 0.91742 0.21089 0.64436 0.0
N2115 N 0.87674 0.2653 0.61889 0.0
H2116 H 0.88688 0.25912 0.69113 0.0
H2117 H 0.87277 0.2678 0.66784 0.0
H2118 H 0.87193 0.26605 0.59979 0.0
H2119 H 0.87983 0.28029 0.63107 0.0
H2120 H 0.92004 0.20092 0.62991 0.0
H2121 H 0.93051 0.21686 0.66029 0.0
H2122 H 0.88462 0.17922 0.60758 0.0
H2123 H 0.87024 0.18743 0.58394 0.0
C2124 C 0.3603 0.23248 0.65024 0.0
C2125 C 0.35828 0.25362 0.65382 0.0
C2126 C 0.35024 0.2525 0.60742 0.0
C2127 C 0.35422 0.23263 0.60385 0.0
N2128 N 0.36852 0.20741 0.62126 0.0
N2129 N 0.35727 0.28727 0.63563 0.0
C2130 C 0.36098 0.22377 0.62511 0.0
C2131 C 0.35493 0.26466 0.63234 0.0
N2132 N 0.3602 0.21987 0.67058 0.0
N2133 N 0.3413 0.25929 0.58715 0.0
H2134 H 0.36173 0.29729 0.65348 0.0
H2135 H 0.35736 0.29726 0.62049 0.0
H2136 H 0.33791 0.25105 0.56851 0.0
H2137 H 0.33534 0.27168 0.58917 0.0
H2138 H 0.35895 0.20286 0.66861 0.0
H2139 H 0.35889 0.22507 0.68924 0.0
H2140 H 0.37593 0.20207 0.63602 0.0
H2141 H 0.36959 0.20098 0.60304 0.0
C2142 C 0.77114 0.10409 0.61306 0.0
C2143 C 0.75803 0.1136 0.62525 0.0
C2144 C 0.76962 0.14394 0.59374 0.0
C2145 C 0.77972 0.13224 0.57972 0.0
N2146 N 0.78424 0.09702 0.57303 0.0
N2147 N 0.73893 0.13798 0.6222 0.0
C2148 C 0.77863 0.11097 0.58841 0.0
C2149 C 0.75551 0.13218 0.61414 0.0
N2150 N 0.77788 0.08976 0.62543 0.0
N2151 N 0.77431 0.16674 0.58845 0.0
H2152 H 0.72687 0.12862 0.63584 0.0
H2153 H 0.73508 0.14996 0.61308 0.0
H2154 H 0.78564 0.1767 0.57454 0.0
H2155 H 0.76919 0.17688 0.59984 0.0
H2156 H 0.78937 0.08436 0.61801 0.0
H2157 H 0.77464 0.08578 0.64427 0.0
H2158 H 0.78151 0.08008 0.57769 0.0
H2159 H 0.78903 0.10102 0.55449 0.0
C2160 C 0.87418 0.66214 0.64865 0.0
C2161 C 0.89727 0.68354 0.65915 0.0
C2162 C 0.89287 0.70663 0.62585 0.0
C2163 C 0.87509 0.68424 0.61116 0.0
N2164 N 0.83816 0.64537 0.61691 0.0
N2165 N 0.93037 0.72592 0.65426 0.0
C2166 C 0.86248 0.66294 0.62484 0.0
C2167 C 0.90709 0.70576 0.64686 0.0
N2168 N 0.86351 0.64125 0.66127 0.0
N2169 N 0.89318 0.72793 0.6229 0.0
H2170 H 0.94294 0.7258 0.66793 0.0
H2171 H 0.93801 0.74176 0.64439 0.0
H2172 H 0.87916 0.72794 0.61136 0.0
H2173 H 0.90489 0.74425 0.63481 0.0
H2174 H 0.84853 0.62419 0.65315 0.0
H2175 H 0.87015 0.64074 0.67973 0.0
H2176 H 0.82694 0.63033 0.62694 0.0
H2177 H 0.82838 0.64769 0.60171 0.0
C2178 C 0.93559 0.68295 0.81778 0.0
C2179 C 0.91858 0.67133 0.79525 0.0
C2180 C 0.88768 0.64177 0.82112 0.0
C2181 C 0.90134 0.65795 0.84337 0.0
N2182 N 0.94345 0.68089 0.86314 0.0
N2183 N 0.87748 0.63906 0.77584 0.0
C2184 C 0.92708 0.67497 0.84196 0.0
C2185 C 0.89441 0.6504 0.79694 0.0
N2186 N 0.95966 0.70156 0.81615 0.0
N2187 N 0.87165 0.61712 0.82291 0.0
H2188 H 0.88112 0.64515 0.75767 0.0
H2189 H 0.85906 0.62494 0.77711 0.0
H2190 H 0.87065 0.60946 0.84025 0.0
H2191 H 0.86274 0.60421 0.8069 0.0
H2192 H 0.97189 0.71267 0.83204 0.0
H2193 H 0.96719 0.7065 0.79879 0.0
H2194 H 0.96274 0.69143 0.86315 0.0
H2195 H 0.93741 0.67264 0.88006 0.0
C2196 C 0.33138 0.25231 0.80818 0.0
C2197 C 0.3239 0.23925 0.78342 0.0
C2198 C 0.30556 0.19953 0.80206 0.0
C2199 C 0.31489 0.21274 0.82673 0.0
N2200 N 0.3308 0.25038 0.85421 0.0
N2201 N 0.29942 0.20112 0.75616 0.0
C2202 C 0.32579 0.23877 0.83007 0.0
C2203 C 0.30928 0.21298 0.78019 0.0
N2204 N 0.34471 0.2777 0.81061 0.0
N2205 N 0.29406 0.17426 0.79969 0.0
H2206 H 0.30215 0.21069 0.73994 0.0
H2207 H 0.28728 0.18206 0.75226 0.0
H2208 H 0.29036 0.16397 0.81546 0.0
H2209 H 0.2886 0.16337 0.78233 0.0
H2210 H 0.35335 0.28861 0.82786 0.0
H2211 H 0.34785 0.28808 0.79496 0.0
H2212 H 0.3369 0.26901 0.85816 0.0
H2213 H 0.32701 0.24084 0.87055 0.0
C2214 C 0.79469 0.10524 0.76326 0.0
C2215 C 0.76912 0.08684 0.75675 0.0
C2216 C 0.7648 0.07641 0.80111 0.0
C2217 C 0.78997 0.09579 0.80783 0.0
N2218 N 0.83063 0.12404 0.79529 0.0
N2219 N 0.73153 0.05065 0.76748 0.0
C2220 C 0.80555 0.10863 0.78878 0.0
C2221 C 0.75481 0.07082 0.77499 0.0
N2222 N 0.80824 0.11999 0.74517 0.0
N2223 N 0.75008 0.06446 0.8199 0.0
H2224 H 0.72321 0.04634 0.74871 0.0
H2225 H 0.72115 0.03695 0.77932 0.0
H2226 H 0.75695 0.06749 0.83914 0.0
H2227 H 0.73082 0.0525 0.8168 0.0
H2228 H 0.82604 0.13573 0.74921 0.0
H2229 H 0.80117 0.11687 0.72598 0.0
H2230 H 0.84347 0.13259 0.7821 0.0
H2231 H 0.83889 0.1268 0.81394 0.0
C2232 C 0.07863 0.3955 0.05693 0.0
C2233 C 0.05987 0.39535 0.07042 0.0
C2234 C 0.06891 0.37623 0.10549 0.0
C2235 C 0.08816 0.3771 0.09233 0.0
N2236 N 0.11453 0.39121 0.05809 0.0
N2237 N 0.03895 0.38879 0.10871 0.0
C2238 C 0.09396 0.38783 0.06877 0.0
C2239 C 0.05568 0.38684 0.09516 0.0
N2240 N 0.08147 0.40259 0.03263 0.0
N2241 N 0.06262 0.3643 0.12726 0.0
H2242 H 0.02784 0.39512 0.1013 0.0
H2243 H 0.03705 0.38561 0.12788 0.0
H2244 H 0.07224 0.35677 0.13561 0.0
H2245 H 0.04696 0.36041 0.13625 0.0
H2246 H 0.09261 0.40027 0.02053 0.0
H2247 H 0.07156 0.40967 0.02389 0.0
H2248 H 0.12136 0.40115 0.04234 0.0
H2249 H 0.12608 0.38569 0.06621 0.0
C2250 C 0.66592 0.70287 0.07031 0.0
C2251 C 0.64494 0.68214 0.07912 0.0
C2252 C 0.64269 0.70988 0.11125 0.0
C2253 C 0.66117 0.73063 0.09996 0.0
N2254 N 0.68754 0.74691 0.06584 0.0
N2255 N 0.61029 0.66641 0.1048 0.0
C2256 C 0.67206 0.72718 0.07868 0.0
C2257 C 0.63251 0.68573 0.09882 0.0
N2258 N 0.68068 0.69949 0.0549 0.0
N2259 N 0.63517 0.71321 0.13408 0.0
H2260 H 0.60148 0.64862 0.09536 0.0
H2261 H 0.5993 0.66865 0.11724 0.0
H2262 H 0.64256 0.73066 0.14397 0.0
H2263 H 0.62352 0.69856 0.14439 0.0
H2264 H 0.69754 0.71409 0.05005 0.0
H2265 H 0.67755 0.68206 0.04922 0.0
H2266 H 0.69378 0.74495 0.04854 0.0
H2267 H 0.6924 0.76503 0.0712 0.0
C2268 C 0.30927 0.94039 0.03234 0.0
C2269 C 0.33001 0.95949 0.04864 0.0
C2270 C 0.3028 0.9549 0.08189 0.0
C2271 C 0.28215 0.93566 0.06572 0.0
N2272 N 0.26417 0.91294 0.02437 0.0
N2273 N 0.34611 0.98813 0.08706 0.0
C2274 C 0.28493 0.92934 0.04049 0.0
C2275 C 0.32658 0.96792 0.07269 0.0
N2276 N 0.31298 0.93267 0.00926 0.0
N2277 N 0.29998 0.95962 0.1067 0.0
H2278 H 0.36443 0.99701 0.08262 0.0
H2279 H 0.34401 0.99721 0.10278 0.0
H2280 H 0.28277 0.95112 0.11401 0.0
H2281 H 0.31476 0.97077 0.12063 0.0
H2282 H 0.2993 0.91705 0.99764 0.0
H2283 H 0.33026 0.94147 0.00201 0.0
H2284 H 0.26439 0.90885 0.00505 0.0
H2285 H 0.24621 0.9047 0.02999 0.0
C2286 C 0.41085 0.09062 0.01996 0.0
C2287 C 0.40212 0.07999 0.04297 0.0
C2288 C 0.3777 0.09968 0.04488 0.0
C2289 C 0.38211 0.10529 0.01922 0.0
N2290 N 0.40184 0.10481 0.98146 0.0
N2291 N 0.3887 0.08588 0.08299 0.0
C2292 C 0.39874 0.10081 0.00663 0.0
C2293 C 0.38884 0.08789 0.05727 0.0
N2294 N 0.43162 0.09226 0.0117 0.0
N2295 N 0.36242 0.10505 0.05703 0.0
H2296 H 0.39969 0.08055 0.09286 0.0
H2297 H 0.38059 0.09246 0.09504 0.0
H2298 H 0.35515 0.11491 0.04899 0.0
H2299 H 0.35602 0.09889 0.07454 0.0
H2300 H 0.43996 0.10155 0.996 0.0
H2301 H 0.44246 0.08749 0.02277 0.0
H2302 H 0.41151 0.09909 0.97071 0.0
H2303 H 0.39298 0.11182 0.97061 0.0
C2304 C 0.94699 0.30576 0.99379 0.0
C2305 C 0.9354 0.31985 0.99478 0.0
C2306 C 0.89657 0.28275 0.9761 0.0
C2307 C 0.90674 0.26784 0.98061 0.0
N2308 N 0.941 0.26592 0.00096 0.0
N2309 N 0.89581 0.31763 0.9943 0.0
C2310 C 0.93179 0.2795 0.99165 0.0
C2311 C 0.90919 0.30725 0.98805 0.0
N2312 N 0.97215 0.31692 0.99332 0.0
N2313 N 0.87529 0.27396 0.96004 0.0
H2314 H 0.90325 0.33395 0.00632 0.0
H2315 H 0.87643 0.30798 0.9907 0.0
H2316 H 0.8665 0.25677 0.94923 0.0
H2317 H 0.86838 0.28511 0.95522 0.0
H2318 H 0.98065 0.30675 0.99111 0.0
H2319 H 0.98389 0.3357 0.99118 0.0
H2320 H 0.95877 0.27421 0.01078 0.0
H2321 H 0.93003 0.24677 0.00163 0.0
C2322 C 0.69388 0.61781 0.02099 0.0
C2323 C 0.69213 0.61206 0.04681 0.0
C2324 C 0.73687 0.62799 0.05277 0.0
C2325 C 0.73873 0.63445 0.0272 0.0
N2326 N 0.72032 0.63933 0.98809 0.0
N2327 N 0.71164 0.61449 0.08848 0.0
C2328 C 0.71762 0.63062 0.0117 0.0
C2329 C 0.71357 0.618 0.0631 0.0
N2330 N 0.67265 0.6101 0.00507 0.0
N2331 N 0.75728 0.63094 0.06689 0.0
H2332 H 0.69471 0.60677 0.09639 0.0
H2333 H 0.72687 0.62063 0.10205 0.0
H2334 H 0.77485 0.63929 0.06028 0.0
H2335 H 0.75668 0.62411 0.08457 0.0
H2336 H 0.6723 0.61104 0.98537 0.0
H2337 H 0.65486 0.60098 0.01116 0.0
H2338 H 0.70636 0.63979 0.97709 0.0
H2339 H 0.73719 0.6479 0.98009 0.0
C2340 C 0.96567 0.63754 0.98781 0.0
C2341 C 0.97029 0.64021 0.0149 0.0
C2342 C 0.93717 0.64885 0.01861 0.0
C2343 C 0.93478 0.64923 0.99165 0.0
N2344 N 0.94968 0.64813 0.95083 0.0
N2345 N 0.96368 0.65299 0.05612 0.0
C2346 C 0.94988 0.64478 0.97629 0.0
C2347 C 0.95689 0.64707 0.03036 0.0
N2348 N 0.97542 0.62703 0.97311 0.0
N2349 N 0.92017 0.64941 0.03292 0.0
H2350 H 0.97848 0.65262 0.06545 0.0
H2351 H 0.95623 0.66062 0.06782 0.0
H2352 H 0.90523 0.6504 0.02502 0.0
H2353 H 0.9195 0.64655 0.05226 0.0
H2354 H 0.97059 0.62236 0.95346 0.0
H2355 H 0.9863 0.62056 0.98082 0.0
H2356 H 0.96224 0.64768 0.9393 0.0
H2357 H 0.93847 0.65361 0.94171 0.0
C2358 C 0.34122 0.3056 0.96743 0.0
C2359 C 0.35559 0.3157 0.99159 0.0
C2360 C 0.35656 0.27802 0.99553 0.0
C2361 C 0.3441 0.2689 0.97045 0.0
N2362 N 0.32727 0.27484 0.931 0.0
N2363 N 0.38038 0.31363 0.02695 0.0
C2364 C 0.33724 0.28296 0.95591 0.0
C2365 C 0.36412 0.30244 0.00527 0.0
N2366 N 0.33039 0.31703 0.95607 0.0
N2367 N 0.36088 0.26319 0.01014 0.0
H2368 H 0.38663 0.33164 0.03452 0.0
H2369 H 0.38941 0.30597 0.03624 0.0
H2370 H 0.35633 0.24547 0.00338 0.0
H2371 H 0.36725 0.26763 0.02954 0.0
H2372 H 0.31755 0.3092 0.93984 0.0
H2373 H 0.33248 0.33342 0.96408 0.0
H2374 H 0.3246 0.28561 0.91848 0.0
H2375 H 0.32325 0.25789 0.92223 0.0
C2376 C 0.69249 0.06932 0.04846 0.0
C2377 C 0.67126 0.04975 0.03319 0.0
C2378 C 0.69786 0.04945 0.00157 0.0
C2379 C 0.71842 0.07116 0.01494 0.0
N2380 N 0.73569 0.10311 0.05017 0.0
N2381 N 0.65305 0.02385 0.99308 0.0
C2382 C 0.71593 0.0814 0.03828 0.0
C2383 C 0.67375 0.04031 0.00927 0.0
N2384 N 0.69034 0.07588 0.07284 0.0
N2385 N 0.70143 0.03767 0.98138 0.0
H2386 H 0.63493 0.0175 0.9973 0.0
H2387 H 0.6538 0.01838 0.97434 0.0
H2388 H 0.71892 0.04408 0.9751 0.0
H2389 H 0.68756 0.02038 0.97248 0.0
H2390 H 0.70554 0.08832 0.08581 0.0
H2391 H 0.67344 0.06731 0.08085 0.0
H2392 H 0.7343 0.11308 0.06557 0.0
H2393 H 0.75332 0.11194 0.04367 0.0
C2394 C 0.61907 0.9194 0.03448 0.0
C2395 C 0.62637 0.94273 0.04725 0.0
C2396 C 0.65297 0.93858 0.07979 0.0
C2397 C 0.64625 0.91556 0.06669 0.0
N2398 N 0.62669 0.8858 0.02962 0.0
N2399 N 0.65494 0.97747 0.07781 0.0
C2400 C 0.63048 0.90652 0.04334 0.0
C2401 C 0.64474 0.95322 0.06865 0.0
N2402 N 0.60059 0.9092 0.01459 0.0
N2403 N 0.6664 0.94602 0.10337 0.0
H2404 H 0.64974 0.98901 0.06989 0.0
H2405 H 0.67025 0.98688 0.0916 0.0
H2406 H 0.67331 0.93614 0.11205 0.0
H2407 H 0.66913 0.96104 0.11521 0.0
H2408 H 0.59248 0.89112 0.0062 0.0
H2409 H 0.59219 0.91837 0.00743 0.0
H2410 H 0.61733 0.87949 0.01129 0.0
H2411 H 0.63468 0.87593 0.03581 0.0
C2412 C 0.07248 0.69351 0.11146 0.0
C2413 C 0.07724 0.68563 0.08793 0.0
C2414 C 0.10895 0.72862 0.08195 0.0
C2415 C 0.10491 0.73634 0.10598 0.0
N2416 N 0.08515 0.72674 0.14501 0.0
N2417 N 0.10117 0.69454 0.05178 0.0
C2418 C 0.08727 0.71894 0.12113 0.0
C2419 C 0.09588 0.70288 0.07347 0.0
N2420 N 0.05363 0.67663 0.12444 0.0
N2421 N 0.12494 0.74604 0.06707 0.0
H2422 H 0.09116 0.67597 0.04434 0.0
H2423 H 0.11629 0.70563 0.0418 0.0
H2424 H 0.1355 0.76497 0.07305 0.0
H2425 H 0.12681 0.74212 0.04822 0.0
H2426 H 0.04705 0.68139 0.13993 0.0
H2427 H 0.04357 0.65759 0.11903 0.0
H2428 H 0.07485 0.71484 0.15834 0.0
H2429 H 0.09491 0.74536 0.15228 0.0
C2430 C 0.30213 0.36382 0.04862 0.0
C2431 C 0.30678 0.37674 0.02636 0.0
C2432 C 0.26362 0.3665 0.02106 0.0
C2433 C 0.25911 0.35386 0.04348 0.0
N2434 N 0.27182 0.33563 0.07544 0.0
N2435 N 0.29155 0.38644 0.98849 0.0
C2436 C 0.27761 0.35076 0.05608 0.0
C2437 C 0.28733 0.37681 0.01161 0.0
N2438 N 0.32148 0.36541 0.06358 0.0
N2439 N 0.24545 0.36927 0.00938 0.0
H2440 H 0.3088 0.39414 0.98124 0.0
H2441 H 0.27767 0.38518 0.97564 0.0
H2442 H 0.22748 0.36074 0.01505 0.0
H2443 H 0.24831 0.3807 0.99481 0.0
H2444 H 0.31992 0.35907 0.08165 0.0
H2445 H 0.33977 0.37477 0.05888 0.0
H2446 H 0.28363 0.33043 0.08351 0.0
H2447 H 0.25432 0.32648 0.08215 0.0
C2448 C 0.72014 0.7074 0.42863 0.0
C2449 C 0.71247 0.70009 0.40208 0.0
C2450 C 0.74382 0.68881 0.39904 0.0
C2451 C 0.74947 0.69354 0.42601 0.0
N2452 N 0.74081 0.70395 0.46712 0.0
N2453 N 0.71422 0.68036 0.36258 0.0
C2454 C 0.73699 0.70188 0.44101 0.0
C2455 C 0.72363 0.68996 0.38735 0.0
N2456 N 0.71214 0.72057 0.4418 0.0
N2457 N 0.75811 0.68379 0.38454 0.0
H2458 H 0.6993 0.68061 0.35337 0.0
H2459 H 0.71978 0.67027 0.35181 0.0
H2460 H 0.77284 0.68247 0.39243 0.0
H2461 H 0.75669 0.68293 0.36464 0.0
H2462 H 0.71906 0.72857 0.46053 0.0
H2463 H 0.70039 0.72568 0.43325 0.0
H2464 H 0.73019 0.70726 0.47912 0.0
H2465 H 0.75323 0.7003 0.47687 0.0
C2466 C 0.28371 0.01133 0.43714 0.0
C2467 C 0.28944 0.00837 0.41204 0.0
C2468 C 0.30593 0.05236 0.40746 0.0
C2469 C 0.30235 0.05571 0.43334 0.0
N2470 N 0.29184 0.03962 0.47427 0.0
N2471 N 0.31022 0.02687 0.37504 0.0
C2472 C 0.29245 0.03554 0.44864 0.0
C2473 C 0.30167 0.0291 0.39761 0.0
N2474 N 0.26893 0.99093 0.44953 0.0
N2475 N 0.3127 0.07118 0.39208 0.0
H2476 H 0.30794 0.01028 0.36739 0.0
H2477 H 0.3216 0.04195 0.36509 0.0
H2478 H 0.31626 0.0886 0.39865 0.0
H2479 H 0.31282 0.0689 0.37236 0.0
H2480 H 0.26201 0.99184 0.46672 0.0
H2481 H 0.26151 0.9728 0.4415 0.0
H2482 H 0.28734 0.02613 0.48692 0.0
H2483 H 0.29796 0.05713 0.48331 0.0
C2484 C 0.98934 0.28463 0.40105 0.0
C2485 C 0.9905 0.27587 0.37611 0.0
C2486 C 0.94504 0.24791 0.37047 0.0
C2487 C 0.94418 0.25521 0.39609 0.0
N2488 N 0.9651 0.27842 0.43687 0.0
N2489 N 0.97042 0.24844 0.33743 0.0
C2490 C 0.9662 0.2732 0.41161 0.0
C2491 C 0.96859 0.25728 0.36088 0.0
N2492 N 0.01044 0.30384 0.41472 0.0
N2493 N 0.92326 0.23235 0.35531 0.0
H2494 H 0.98728 0.25564 0.32946 0.0
H2495 H 0.95562 0.23314 0.32639 0.0
H2496 H 0.90579 0.22518 0.36194 0.0
H2497 H 0.92224 0.22792 0.3358 0.0
H2498 H 0.0103 0.31333 0.43132 0.0
H2499 H 0.02824 0.31135 0.40888 0.0
H2500 H 0.98069 0.28884 0.45013 0.0
H2501 H 0.94843 0.27102 0.44519 0.0
C2502 C 0.08028 0.41644 0.35067 0.0
C2503 C 0.06965 0.40352 0.37209 0.0
C2504 C 0.0489 0.4266 0.37758 0.0
C2505 C 0.05564 0.43569 0.35346 0.0
N2506 N 0.07578 0.43718 0.31542 0.0
N2507 N 0.0423 0.39488 0.40534 0.0
C2508 C 0.07111 0.43037 0.33967 0.0
C2509 C 0.05388 0.40852 0.38576 0.0
N2510 N 0.0992 0.41535 0.34089 0.0
N2511 N 0.03769 0.43526 0.39256 0.0
H2512 H 0.04531 0.3814 0.41196 0.0
H2513 H 0.02833 0.39569 0.41389 0.0
H2514 H 0.03383 0.44852 0.38696 0.0
H2515 H 0.03442 0.4311 0.41135 0.0
H2516 H 0.10921 0.42615 0.32669 0.0
H2517 H 0.10659 0.40557 0.34891 0.0
H2518 H 0.08438 0.4311 0.30344 0.0
H2519 H 0.06926 0.4472 0.30636 0.0
C2520 C 0.58468 0.62616 0.35115 0.0
C2521 C 0.60042 0.64423 0.33529 0.0
C2522 C 0.58646 0.61233 0.29936 0.0
C2523 C 0.57116 0.59417 0.31539 0.0
N2524 N 0.55856 0.58242 0.35725 0.0
N2525 N 0.61984 0.6547 0.29601 0.0
C2526 C 0.57117 0.60069 0.34157 0.0
C2527 C 0.60249 0.63733 0.30993 0.0
N2528 N 0.58231 0.63346 0.37514 0.0
N2529 N 0.5848 0.60585 0.2738 0.0
H2530 H 0.63122 0.67344 0.30265 0.0
H2531 H 0.62426 0.65037 0.27858 0.0
H2532 H 0.57371 0.58761 0.26545 0.0
H2533 H 0.59311 0.61863 0.26047 0.0
H2534 H 0.56912 0.62161 0.38668 0.0
H2535 H 0.5927 0.65188 0.38308 0.0
H2536 H 0.55962 0.58563 0.37701 0.0
H2537 H 0.54841 0.56359 0.35074 0.0
C2538 C 0.36998 0.93898 0.39213 0.0
C2539 C 0.35235 0.94365 0.38008 0.0
C2540 C 0.38093 0.96623 0.34829 0.0
C2541 C 0.39839 0.96127 0.36018 0.0
N2542 N 0.41204 0.94678 0.39514 0.0
N2543 N 0.34159 0.96402 0.34874 0.0
C2544 C 0.39369 0.94886 0.38273 0.0
C2545 C 0.35811 0.95819 0.35892 0.0
N2546 N 0.36378 0.9247 0.41225 0.0
N2547 N 0.38578 0.97763 0.32611 0.0
H2548 H 0.32368 0.9567 0.35415 0.0
H2549 H 0.34588 0.97709 0.33566 0.0
H2550 H 0.40279 0.98492 0.31844 0.0
H2551 H 0.37274 0.97899 0.31446 0.0
H2552 H 0.37445 0.9182 0.42026 0.0
H2553 H 0.34719 0.91844 0.42052 0.0
H2554 H 0.41089 0.93989 0.41285 0.0
H2555 H 0.42942 0.95355 0.38843 0.0
C2556 C 0.59797 0.93743 0.34334 0.0
C2557 C 0.62225 0.95831 0.3508 0.0
C2558 C 0.61603 0.97996 0.31653 0.0
C2559 C 0.59022 0.96167 0.3139 0.0
N2560 N 0.56647 0.91708 0.30757 0.0
N2561 N 0.65602 0.99865 0.34177 0.0
C2562 C 0.58349 0.93834 0.32232 0.0
C2563 C 0.63187 0.97937 0.33651 0.0
N2564 N 0.58838 0.91688 0.35649 0.0
N2565 N 0.62574 0.99541 0.29771 0.0
H2566 H 0.66898 0.99813 0.35451 0.0
H2567 H 0.66289 0.0156 0.33412 0.0
H2568 H 0.61467 0.99349 0.28112 0.0
H2569 H 0.64477 0.00768 0.297 0.0
H2570 H 0.56989 0.90219 0.35274 0.0
H2571 H 0.59816 0.91548 0.37234 0.0
H2572 H 0.56249 0.89958 0.31177 0.0
H2573 H 0.55943 0.91761 0.28927 0.0
C2574 C 0.03692 0.63661 0.34975 0.0
C2575 C 0.02819 0.64988 0.33636 0.0
C2576 C 0.00924 0.61707 0.30074 0.0
C2577 C 0.0168 0.60323 0.31475 0.0
N2578 N 0.03413 0.59747 0.35403 0.0
N2579 N 0.00223 0.65108 0.30162 0.0
C2580 C 0.02943 0.61226 0.33977 0.0
C2581 C 0.01329 0.63966 0.31251 0.0
N2582 N 0.05343 0.64777 0.37126 0.0
N2583 N 0.99865 0.60883 0.27602 0.0
H2584 H 0.00449 0.66747 0.30988 0.0
H2585 H 0.98911 0.64327 0.28562 0.0
H2586 H 0.99449 0.59187 0.26713 0.0
H2587 H 0.99544 0.61946 0.26376 0.0
H2588 H 0.06266 0.64016 0.38022 0.0
H2589 H 0.05962 0.6657 0.37908 0.0
H2590 H 0.04071 0.60183 0.37337 0.0
H2591 H 0.02965 0.57982 0.34707 0.0
C2592 C 0.33021 0.37403 0.33393 0.0
C2593 C 0.32814 0.38392 0.3578 0.0
C2594 C 0.37198 0.41758 0.36022 0.0
C2595 C 0.37425 0.4067 0.33718 0.0
N2596 N 0.35753 0.37185 0.30523 0.0
N2597 N 0.34762 0.41241 0.39586 0.0
C2598 C 0.35399 0.38397 0.32511 0.0
C2599 C 0.34922 0.40494 0.37164 0.0
N2600 N 0.30929 0.35624 0.31882 0.0
N2601 N 0.39124 0.44033 0.37064 0.0
H2602 H 0.33118 0.40351 0.40467 0.0
H2603 H 0.36294 0.42606 0.40793 0.0
H2604 H 0.40837 0.44977 0.36312 0.0
H2605 H 0.38978 0.45053 0.38575 0.0
H2606 H 0.30958 0.35034 0.3001 0.0
H2607 H 0.29126 0.34911 0.32385 0.0
H2608 H 0.34404 0.35393 0.29743 0.0
H2609 H 0.37476 0.37872 0.29813 0.0
C2610 C 0.30123 0.28284 0.38616 0.0
C2611 C 0.28006 0.27215 0.36779 0.0
C2612 C 0.27531 0.23147 0.36934 0.0
C2613 C 0.29425 0.24156 0.39019 0.0
N2614 N 0.32377 0.27617 0.42042 0.0
N2615 N 0.24624 0.23662 0.34201 0.0
C2616 C 0.30702 0.26713 0.39899 0.0
C2617 C 0.267 0.24655 0.3592 0.0
N2618 N 0.31592 0.30807 0.39113 0.0
N2619 N 0.26552 0.20758 0.3592 0.0
H2620 H 0.2403 0.24743 0.33362 0.0
H2621 H 0.23421 0.21767 0.33703 0.0
H2622 H 0.27123 0.19613 0.36638 0.0
H2623 H 0.25327 0.19969 0.34256 0.0
H2624 H 0.33303 0.31709 0.40232 0.0
H2625 H 0.31217 0.3202 0.38218 0.0
H2626 H 0.33129 0.29387 0.42963 0.0
H2627 H 0.32887 0.26541 0.43026 0.0
C2628 C 0.74842 0.03519 0.4007 0.0
C2629 C 0.73177 0.01729 0.41611 0.0
C2630 C 0.73869 0.05024 0.44807 0.0
C2631 C 0.75754 0.06789 0.43415 0.0
N2632 N 0.78192 0.07769 0.39823 0.0
N2633 N 0.71189 0.00691 0.45511 0.0
C2634 C 0.76272 0.06055 0.4106 0.0
C2635 C 0.72693 0.02457 0.43989 0.0
N2636 N 0.75017 0.02792 0.37643 0.0
N2637 N 0.73187 0.05812 0.46888 0.0
H2638 H 0.70257 0.98793 0.44954 0.0
H2639 H 0.70987 0.01088 0.47389 0.0
H2640 H 0.74035 0.07682 0.47548 0.0
H2641 H 0.71658 0.04645 0.47839 0.0
H2642 H 0.76 0.04025 0.3632 0.0
H2643 H 0.74004 0.00942 0.36871 0.0
H2644 H 0.78859 0.07316 0.38264 0.0
H2645 H 0.79236 0.09654 0.40454 0.0
C2646 C 0.97576 0.72997 0.3625 0.0
C2647 C 0.99412 0.727 0.37565 0.0
C2648 C 0.96567 0.70476 0.40757 0.0
C2649 C 0.94842 0.71015 0.39605 0.0
N2650 N 0.93691 0.72886 0.36368 0.0
N2651 N 0.00822 0.71455 0.41242 0.0
C2652 C 0.95335 0.72291 0.3737 0.0
C2653 C 0.98945 0.71496 0.39852 0.0
N2654 N 0.97961 0.73905 0.33909 0.0
N2655 N 0.95927 0.68989 0.42721 0.0
H2656 H 0.02605 0.72202 0.40672 0.0
H2657 H 0.00688 0.70868 0.4307 0.0
H2658 H 0.94229 0.68268 0.43492 0.0
H2659 H 0.96986 0.683 0.43456 0.0
H2660 H 0.96606 0.73948 0.32728 0.0
H2661 H 0.99592 0.74447 0.33054 0.0
H2662 H 0.94061 0.74056 0.34922 0.0
H2663 H 0.91989 0.72309 0.37084 0.0
C2664 C 0.41198 0.04777 0.71354 0.0
C2665 C 0.38866 0.04165 0.72161 0.0
C2666 C 0.39987 0.03203 0.76307 0.0
C2667 C 0.42195 0.03558 0.75394 0.0
N2668 N 0.44833 0.04447 0.71985 0.0
N2669 N 0.35854 0.02443 0.75243 0.0
C2670 C 0.42788 0.0429 0.729 0.0
C2671 C 0.38214 0.03302 0.74605 0.0
N2672 N 0.41919 0.05887 0.69142 0.0
N2673 N 0.39596 0.02787 0.78808 0.0
H2674 H 0.34478 0.02437 0.74041 0.0
H2675 H 0.35184 0.01536 0.76871 0.0
H2676 H 0.40835 0.02651 0.8009 0.0
H2677 H 0.38157 0.02781 0.79668 0.0
H2678 H 0.437 0.06619 0.68579 0.0
H2679 H 0.40795 0.06268 0.67965 0.0
H2680 H 0.45208 0.0468 0.70086 0.0
H2681 H 0.4608 0.04177 0.73089 0.0
C2682 C 0.95505 0.34553 0.77563 0.0
C2683 C 0.9501 0.33897 0.74878 0.0
C2684 C 0.95983 0.38079 0.74153 0.0
C2685 C 0.96634 0.38774 0.76824 0.0
N2686 N 0.97374 0.37839 0.81049 0.0
N2687 N 0.95112 0.35078 0.70582 0.0
C2688 C 0.96509 0.3706 0.78522 0.0
C2689 C 0.95334 0.3567 0.73159 0.0
N2690 N 0.94905 0.32756 0.79197 0.0
N2691 N 0.95939 0.39707 0.72576 0.0
H2692 H 0.94628 0.33328 0.69786 0.0
H2693 H 0.95591 0.36364 0.69239 0.0
H2694 H 0.96503 0.41522 0.73217 0.0
H2695 H 0.952 0.39221 0.70666 0.0
H2696 H 0.94964 0.33063 0.81169 0.0
H2697 H 0.94135 0.3089 0.78571 0.0
H2698 H 0.97595 0.36755 0.8233 0.0
H2699 H 0.98058 0.39647 0.81833 0.0
C2700 C 0.64446 0.59637 0.69975 0.0
C2701 C 0.66639 0.61056 0.71696 0.0
C2702 C 0.64155 0.60162 0.75328 0.0
C2703 C 0.61955 0.58843 0.73598 0.0
N2704 N 0.59927 0.57531 0.69297 0.0
N2705 N 0.68643 0.62919 0.75953 0.0
C2706 C 0.62077 0.58637 0.70922 0.0
C2707 C 0.66509 0.61398 0.74356 0.0
N2708 N 0.6464 0.59222 0.6745 0.0
N2709 N 0.63993 0.60142 0.7791 0.0
H2710 H 0.70424 0.63703 0.75366 0.0
H2711 H 0.6866 0.63521 0.77834 0.0
H2712 H 0.62303 0.59312 0.78704 0.0
H2713 H 0.65515 0.608 0.79278 0.0
H2714 H 0.63132 0.58007 0.66129 0.0
H2715 H 0.6635 0.59995 0.66694 0.0
H2716 H 0.59877 0.57513 0.67316 0.0
H2717 H 0.58169 0.56761 0.69944 0.0
C2718 C 0.69643 0.71455 0.6843 0.0
C2719 C 0.71184 0.72153 0.70771 0.0
C2720 C 0.70823 0.7578 0.71527 0.0
C2721 C 0.6959 0.75263 0.69022 0.0
N2722 N 0.68193 0.72825 0.64911 0.0
N2723 N 0.73407 0.75048 0.74505 0.0
C2724 C 0.69089 0.73154 0.67426 0.0
C2725 C 0.71806 0.74326 0.72325 0.0
N2726 N 0.68636 0.69133 0.67203 0.0
N2727 N 0.7101 0.77628 0.7315 0.0
H2728 H 0.74136 0.74009 0.75153 0.0
H2729 H 0.74148 0.76751 0.75574 0.0
H2730 H 0.70304 0.78719 0.72615 0.0
H2731 H 0.71673 0.77947 0.75078 0.0
H2732 H 0.67295 0.68441 0.65628 0.0
H2733 H 0.68933 0.67797 0.67916 0.0
H2734 H 0.68078 0.71481 0.63597 0.0
H2735 H 0.67775 0.7403 0.6407 0.0
C2736 C 0.27149 0.9592 0.68373 0.0
C2737 C 0.27849 0.97606 0.66471 0.0
C2738 C 0.26119 0.9419 0.63076 0.0
C2739 C 0.25355 0.92497 0.64975 0.0
N2740 N 0.25578 0.91686 0.69371 0.0
N2741 N 0.2859 0.9847 0.621 0.0
C2742 C 0.26026 0.93348 0.67611 0.0
C2743 C 0.27523 0.96777 0.63845 0.0
N2744 N 0.27452 0.96768 0.70891 0.0
N2745 N 0.25404 0.93318 0.60547 0.0
H2746 H 0.29632 0.00381 0.6261 0.0
H2747 H 0.2863 0.97993 0.60191 0.0
H2748 H 0.24462 0.91435 0.59909 0.0
H2749 H 0.2563 0.94441 0.59084 0.0
H2750 H 0.2673 0.95616 0.72349 0.0
H2751 H 0.28323 0.98647 0.71517 0.0
H2752 H 0.26211 0.92192 0.71307 0.0
H2753 H 0.24735 0.89788 0.68857 0.0
C2754 C 0.03262 0.27511 0.72623 0.0
C2755 C 0.01103 0.26967 0.71051 0.0
C2756 C 0.03465 0.28214 0.67321 0.0
C2757 C 0.05664 0.28909 0.6892 0.0
N2758 N 0.07773 0.29486 0.73101 0.0
N2759 N 0.99165 0.27101 0.67008 0.0
C2760 C 0.05597 0.28632 0.71579 0.0
C2761 C 0.0121 0.27406 0.68428 0.0
N2762 N 0.03061 0.26909 0.75092 0.0
N2763 N 0.03518 0.28251 0.64726 0.0
H2764 H 0.97438 0.26417 0.67706 0.0
H2765 H 0.99212 0.2769 0.65189 0.0
H2766 H 0.05144 0.28883 0.63838 0.0
H2767 H 0.0193 0.27486 0.63427 0.0
H2768 H 0.04502 0.27027 0.76281 0.0
H2769 H 0.01382 0.26135 0.75912 0.0
H2770 H 0.07902 0.29565 0.75089 0.0
H2771 H 0.095 0.30273 0.72379 0.0
C2772 C 0.28264 0.29487 0.64492 0.0
C2773 C 0.28675 0.29755 0.67206 0.0
C2774 C 0.25244 0.30457 0.67468 0.0
C2775 C 0.25062 0.30519 0.64773 0.0
N2776 N 0.26636 0.30449 0.60734 0.0
N2777 N 0.27853 0.30943 0.71285 0.0
C2778 C 0.26635 0.30128 0.63284 0.0
C2779 C 0.27237 0.30348 0.68702 0.0
N2780 N 0.29357 0.28533 0.6307 0.0
N2781 N 0.23478 0.30443 0.68845 0.0
H2782 H 0.29346 0.30964 0.72267 0.0
H2783 H 0.27034 0.3165 0.72419 0.0
H2784 H 0.21977 0.30503 0.68008 0.0
H2785 H 0.2337 0.30134 0.70772 0.0
H2786 H 0.28935 0.28071 0.611 0.0
H2787 H 0.30497 0.27964 0.63887 0.0
H2788 H 0.27935 0.30453 0.59614 0.0
H2789 H 0.25475 0.30928 0.59782 0.0
C2790 C 0.67811 0.97382 0.64673 0.0
C2791 C 0.69231 0.98367 0.67099 0.0
C2792 C 0.69235 0.94547 0.67492 0.0
C2793 C 0.68047 0.9368 0.64959 0.0
N2794 N 0.66425 0.9433 0.61009 0.0
N2795 N 0.71607 0.9807 0.70679 0.0
C2796 C 0.67395 0.95114 0.6351 0.0
C2797 C 0.70014 0.96992 0.68484 0.0
N2798 N 0.66775 0.98565 0.6353 0.0
N2799 N 0.69597 0.93022 0.68956 0.0
H2800 H 0.72248 0.99869 0.71456 0.0
H2801 H 0.72465 0.97267 0.71619 0.0
H2802 H 0.69114 0.91243 0.68272 0.0
H2803 H 0.70193 0.93437 0.70906 0.0
H2804 H 0.6551 0.97811 0.61892 0.0
H2805 H 0.67002 0.00209 0.64344 0.0
H2806 H 0.66185 0.95427 0.59762 0.0
H2807 H 0.66014 0.92635 0.60122 0.0
C2808 C 0.03484 0.73765 0.71899 0.0
C2809 C 0.01211 0.72022 0.70411 0.0
C2810 C 0.03517 0.71847 0.66936 0.0
C2811 C 0.05746 0.73844 0.68258 0.0
N2812 N 0.07874 0.76895 0.71898 0.0
N2813 N 0.99047 0.69819 0.66282 0.0
C2814 C 0.05745 0.7485 0.70724 0.0
C2815 C 0.01218 0.71155 0.67872 0.0
N2816 N 0.03489 0.74333 0.74438 0.0
N2817 N 0.03601 0.70617 0.64776 0.0
H2818 H 0.97321 0.69404 0.66812 0.0
H2819 H 0.98993 0.69361 0.64341 0.0
H2820 H 0.05267 0.71079 0.64038 0.0
H2821 H 0.02051 0.68991 0.63876 0.0
H2822 H 0.05114 0.75404 0.75677 0.0
H2823 H 0.01866 0.73553 0.75357 0.0
H2824 H 0.07921 0.77881 0.73562 0.0
H2825 H 0.09572 0.77707 0.71113 0.0
C2826 C 0.97382 0.61774 0.7172 0.0
C2827 C 0.95109 0.60856 0.70158 0.0
C2828 C 0.94081 0.56595 0.70471 0.0
C2829 C 0.96164 0.57506 0.72332 0.0
N2830 N 0.99629 0.60946 0.74997 0.0
N2831 N 0.91234 0.57431 0.68078 0.0
C2832 C 0.9779 0.60094 0.73009 0.0
C2833 C 0.93446 0.58273 0.69523 0.0
N2834 N 0.99149 0.64258 0.71984 0.0
N2835 N 0.92738 0.54134 0.69599 0.0
H2836 H 0.90776 0.58625 0.67269 0.0
H2837 H 0.89809 0.5557 0.67785 0.0
H2838 H 0.93168 0.52869 0.70262 0.0
H2839 H 0.91334 0.53382 0.68081 0.0
H2840 H 0.00944 0.65 0.72877 0.0
H2841 H 0.9891 0.65561 0.71102 0.0
H2842 H 0.00662 0.62786 0.75784 0.0
H2843 H -8e-05 0.59788 0.76019 0.0
C2844 C 0.38513 0.36504 0.76787 0.0
C2845 C 0.39145 0.35736 0.7453 0.0
C2846 C 0.42289 0.40057 0.73982 0.0
C2847 C 0.41872 0.40785 0.76399 0.0
N2848 N 0.39635 0.39801 0.80129 0.0
N2849 N 0.41551 0.36694 0.70922 0.0
C2850 C 0.3997 0.39039 0.77794 0.0
C2851 C 0.40996 0.37494 0.73097 0.0
N2852 N 0.36535 0.34805 0.77974 0.0
N2853 N 0.43923 0.41827 0.72542 0.0
H2854 H 0.40531 0.3485 0.70133 0.0
H2855 H 0.43069 0.37819 0.6994 0.0
H2856 H 0.44939 0.43714 0.73159 0.0
H2857 H 0.44161 0.41468 0.70666 0.0
H2858 H 0.3581 0.35269 0.79468 0.0
H2859 H 0.35498 0.32915 0.77367 0.0
H2860 H 0.38505 0.38604 0.81404 0.0
H2861 H 0.40583 0.41663 0.80854 0.0
C2862 C 0.65353 0.05025 0.73336 0.0
C2863 C 0.65695 0.05948 0.70894 0.0
C2864 C 0.61432 0.05086 0.70454 0.0
C2865 C 0.61068 0.0409 0.72858 0.0
N2866 N 0.62492 0.02737 0.76421 0.0
N2867 N 0.64032 0.06553 0.66953 0.0
C2868 C 0.62969 0.03932 0.7424 0.0
C2869 C 0.63723 0.0589 0.69398 0.0
N2870 N 0.67345 0.05307 0.74844 0.0
N2871 N 0.59606 0.0531 0.69217 0.0
H2872 H 0.65701 0.07176 0.66147 0.0
H2873 H 0.62601 0.06329 0.6566 0.0
H2874 H 0.57864 0.04629 0.69879 0.0
H2875 H 0.59846 0.06271 0.67609 0.0
H2876 H 0.67295 0.04948 0.76755 0.0
H2877 H 0.69126 0.06086 0.74256 0.0
H2878 H 0.63692 0.02299 0.7735 0.0
H2879 H 0.60808 0.02009 0.77217 0.0
loop_
_geom_bond_atom_site_label_1
_geom_bond_atom_site_label_2
_geom_bond_distance
_geom_bond_site_symmetry_2
_ccdc_geom_bond_type
Zn0 O3 2.031 1_554 S
Zn0 O5 2.049 . S
Zn0 O10 2.067 . S
Zn1 O2 1.962 1_455 S
Zn1 O4 1.986 . S
Zn1 O6 1.996 1_455 S
Zn1 O9 1.943 . S
O2 Zn1 1.962 1_655 S
O2 C7 1.254 . S
O3 Zn0 2.031 1_556 S
O3 C7 1.269 1_556 S
O4 Zn1 1.986 . S
O4 C11 1.262 . S
O5 Zn0 2.049 . S
O5 C13 1.260 . S
O6 Zn1 1.996 1_655 S
O6 C13 1.257 . S
C7 O2 1.254 . S
C7 O3 1.269 1_554 S
C8 O9 1.249 1_556 S
C8 O10 1.270 1_456 S
O9 Zn1 1.943 . S
O9 C8 1.249 1_554 S
O10 Zn0 2.067 . S
O10 C8 1.270 1_654 S
C11 O4 1.262 . S
C11 O12 1.232 . S
O12 C11 1.232 . S
C13 O5 1.260 . S
C13 O6 1.257 . S
Zn14 O17 2.031 . S
Zn14 O19 2.049 . S
Zn14 O24 2.067 . S
Zn15 O16 1.962 . S
Zn15 O18 1.986 . S
Zn15 O20 1.996 . S
Zn15 O23 1.943 . S
O16 Zn15 1.962 . S
O16 C21 1.254 . S
O17 Zn14 2.031 . S
O17 C21 1.269 . S
O18 Zn15 1.986 . S
O18 C25 1.262 . S
O19 Zn14 2.049 . S
O19 C27 1.260 . S
O20 Zn15 1.996 . S
O20 C27 1.257 . S
C21 O16 1.254 . S
C21 O17 1.269 . S
C22 O23 1.249 . S
C22 O24 1.270 . S
O23 Zn15 1.943 . S
O23 C22 1.249 . S
O24 Zn14 2.067 . S
O24 C22 1.270 . S
C25 O18 1.262 . S
C25 O26 1.232 . S
O26 C25 1.232 . S
C27 O19 1.260 . S
C27 O20 1.257 . S
Zn28 O31 2.031 . S
Zn28 O33 2.049 . S
Zn28 O38 2.067 . S
Zn29 O30 1.962 1_545 S
Zn29 O32 1.986 1_554 S
Zn29 O34 1.996 1_545 S
Zn29 O37 1.943 . S
O30 Zn29 1.962 1_565 S
O30 C35 1.254 . S
O31 Zn28 2.031 . S
O31 C35 1.269 . S
O32 Zn29 1.986 1_556 S
O32 C39 1.262 1_556 S
O33 Zn28 2.049 . S
O33 C41 1.260 1_554 S
O34 Zn29 1.996 1_565 S
O34 C41 1.257 1_554 S
C35 O30 1.254 . S
C35 O31 1.269 . S
C36 O37 1.249 . S
C36 O38 1.270 1_545 S
O37 Zn29 1.943 . S
O37 C36 1.249 . S
O38 Zn28 2.067 . S
O38 C36 1.270 1_565 S
C39 O32 1.262 1_554 S
C39 O40 1.232 . S
O40 C39 1.232 . S
C41 O33 1.260 1_556 S
C41 O34 1.257 1_556 S
Zn42 O45 2.031 . S
Zn42 O47 2.049 . S
Zn42 O52 2.067 . S
Zn43 O44 1.962 1_655 S
Zn43 O46 1.986 . S
Zn43 O48 1.996 1_655 S
Zn43 O51 1.943 . S
O44 Zn43 1.962 1_455 S
O44 C49 1.254 . S
O45 Zn42 2.031 . S
O45 C49 1.269 . S
O46 Zn43 1.986 . S
O46 C53 1.262 . S
O47 Zn42 2.049 . S
O47 C55 1.260 . S
O48 Zn43 1.996 1_455 S
O48 C55 1.257 . S
C49 O44 1.254 . S
C49 O45 1.269 . S
C50 O51 1.249 . S
C50 O52 1.270 1_655 S
O51 Zn43 1.943 . S
O51 C50 1.249 . S
O52 Zn42 2.067 . S
O52 C50 1.270 1_455 S
C53 O46 1.262 . S
C53 O54 1.232 . S
O54 C53 1.232 . S
C55 O47 1.260 . S
C55 O48 1.257 . S
Zn56 O59 2.031 . S
Zn56 O61 2.049 1_554 S
Zn56 O66 2.067 . S
Zn57 O58 1.962 . S
Zn57 O60 1.986 1_554 S
Zn57 O62 1.996 1_554 S
Zn57 O65 1.943 . S
O58 Zn57 1.962 . S
O58 C63 1.254 . S
O59 Zn56 2.031 . S
O59 C63 1.269 . S
O60 Zn57 1.986 1_556 S
O60 C67 1.262 . S
O61 Zn56 2.049 1_556 S
O61 C69 1.260 . S
O62 Zn57 1.996 1_556 S
O62 C69 1.257 . S
C63 O58 1.254 . S
C63 O59 1.269 . S
C64 O65 1.249 . S
C64 O66 1.270 . S
O65 Zn57 1.943 . S
O65 C64 1.249 . S
O66 Zn56 2.067 . S
O66 C64 1.270 . S
C67 O60 1.262 . S
C67 O68 1.232 1_556 S
O68 C67 1.232 1_554 S
C69 O61 1.260 . S
C69 O62 1.257 . S
Zn70 O73 2.031 . S
Zn70 O75 2.049 . S
Zn70 O80 2.067 . S
Zn71 O72 1.962 1_565 S
Zn71 O74 1.986 . S
Zn71 O76 1.996 1_565 S
Zn71 O79 1.943 . S
O72 Zn71 1.962 1_545 S
O72 C77 1.254 . S
O73 Zn70 2.031 . S
O73 C77 1.269 . S
O74 Zn71 1.986 . S
O74 C81 1.262 . S
O75 Zn70 2.049 . S
O75 C83 1.260 . S
O76 Zn71 1.996 1_545 S
O76 C83 1.257 . S
C77 O72 1.254 . S
C77 O73 1.269 . S
C78 O79 1.249 . S
C78 O80 1.270 1_565 S
O79 Zn71 1.943 . S
O79 C78 1.249 . S
O80 Zn70 2.067 . S
O80 C78 1.270 1_545 S
C81 O74 1.262 . S
C81 O82 1.232 . S
O82 C81 1.232 . S
C83 O75 1.260 . S
C83 O76 1.257 . S
Zn84 O87 2.031 . S
Zn84 O89 2.049 . S
Zn84 O94 2.067 . S
Zn85 O86 1.962 . S
Zn85 O88 1.986 . S
Zn85 O90 1.996 . S
Zn85 O93 1.943 . S
O86 Zn85 1.962 . S
O86 C91 1.254 . S
O87 Zn84 2.031 . S
O87 C91 1.269 . S
O88 Zn85 1.986 . S
O88 C95 1.262 . S
O89 Zn84 2.049 . S
O89 C97 1.260 . S
O90 Zn85 1.996 . S
O90 C97 1.257 . S
C91 O86 1.254 . S
C91 O87 1.269 . S
C92 O93 1.249 . S
C92 O94 1.270 . S
O93 Zn85 1.943 . S
O93 C92 1.249 . S
O94 Zn84 2.067 . S
O94 C92 1.270 . S
C95 O88 1.262 . S
C95 O96 1.232 . S
O96 C95 1.232 . S
C97 O89 1.260 . S
C97 O90 1.257 . S
Zn98 O101 2.031 . S
Zn98 O103 2.049 . S
Zn98 O108 2.067 . S
Zn99 O100 1.962 . S
Zn99 O102 1.986 . S
Zn99 O104 1.996 . S
Zn99 O107 1.943 . S
O100 Zn99 1.962 . S
O100 C105 1.254 . S
O101 Zn98 2.031 . S
O101 C105 1.269 . S
O102 Zn99 1.986 . S
O102 C109 1.262 1_565 S
O103 Zn98 2.049 . S
O103 C111 1.260 . S
O104 Zn99 1.996 . S
O104 C111 1.257 . S
C105 O100 1.254 . S
C105 O101 1.269 . S
C106 O107 1.249 . S
C106 O108 1.270 . S
O107 Zn99 1.943 . S
O107 C106 1.249 . S
O108 Zn98 2.067 . S
O108 C106 1.270 . S
C109 O102 1.262 1_545 S
C109 O110 1.232 . S
O110 C109 1.232 . S
C111 O103 1.260 . S
C111 O104 1.257 . S
Zn112 O115 2.031 . S
Zn112 O117 2.049 . S
Zn112 O122 2.067 . S
Zn113 O114 1.962 . S
Zn113 O116 1.986 . S
Zn113 O118 1.996 . S
Zn113 O121 1.943 . S
O114 Zn113 1.962 . S
O114 C119 1.254 . S
O115 Zn112 2.031 . S
O115 C119 1.269 . S
O116 Zn113 1.986 . S
O116 C123 1.262 . S
O117 Zn112 2.049 . S
O117 C125 1.260 . S
O118 Zn113 1.996 . S
O118 C125 1.257 . S
C119 O114 1.254 . S
C119 O115 1.269 . S
C120 O121 1.249 . S
C120 O122 1.270 . S
O121 Zn113 1.943 . S
O121 C120 1.249 . S
O122 Zn112 2.067 . S
O122 C120 1.270 . S
C123 O116 1.262 . S
C123 O124 1.232 . S
O124 C123 1.232 . S
C125 O117 1.260 . S
C125 O118 1.257 . S
Zn126 O129 2.031 . S
Zn126 O131 2.049 . S
Zn126 O136 2.067 . S
Zn127 O128 1.954 1_565 S
Zn127 O130 1.986 . S
Zn127 O132 1.996 . S
Zn127 O135 1.943 . S
O128 Zn127 1.954 1_545 S
O128 C133 1.250 . S
O129 Zn126 2.031 . S
O129 C133 1.269 1_565 S
O130 Zn127 1.986 . S
O130 C137 1.262 . S
O131 Zn126 2.049 . S
O131 C139 1.260 . S
O132 Zn127 1.996 . S
O132 C139 1.257 . S
C133 O128 1.250 . S
C133 O129 1.269 1_545 S
C134 O135 1.249 . S
C134 O136 1.270 . S
O135 Zn127 1.943 . S
O135 C134 1.249 . S
O136 Zn126 2.067 . S
O136 C134 1.270 . S
C137 O130 1.262 . S
C137 O138 1.232 . S
O138 C137 1.232 . S
C139 O131 1.260 . S
C139 O132 1.257 . S
Zn140 O143 2.031 . S
Zn140 O145 2.049 . S
Zn140 O150 2.067 . S
Zn141 O142 1.962 . S
Zn141 O144 1.986 . S
Zn141 O146 1.996 . S
Zn141 O149 1.943 . S
O142 Zn141 1.962 . S
O142 C147 1.254 . S
O143 Zn140 2.031 . S
O143 C147 1.269 . S
O144 Zn141 1.986 . S
O144 C151 1.262 . S
O145 Zn140 2.049 . S
O145 C153 1.260 . S
O146 Zn141 1.996 . S
O146 C153 1.257 . S
C147 O142 1.254 . S
C147 O143 1.269 . S
C148 O149 1.249 . S
C148 O150 1.270 . S
O149 Zn141 1.943 . S
O149 C148 1.249 . S
O150 Zn140 2.067 . S
O150 C148 1.270 . S
C151 O144 1.262 . S
C151 O152 1.232 . S
O152 C151 1.232 . S
C153 O145 1.260 . S
C153 O146 1.257 . S
Zn154 O157 2.031 . S
Zn154 O159 2.049 . S
Zn154 O164 2.067 . S
Zn155 O156 1.962 . S
Zn155 O158 1.986 . S
Zn155 O160 1.996 . S
Zn155 O163 1.943 . S
O156 Zn155 1.962 . S
O156 C161 1.254 . S
O157 Zn154 2.031 . S
O157 C161 1.269 . S
O158 Zn155 1.986 . S
O158 C165 1.262 . S
O159 Zn154 2.049 . S
O159 C167 1.260 . S
O160 Zn155 1.996 . S
O160 C167 1.257 . S
C161 O156 1.254 . S
C161 O157 1.269 . S
C162 O163 1.249 . S
C162 O164 1.270 . S
O163 Zn155 1.943 . S
O163 C162 1.249 . S
O164 Zn154 2.067 . S
O164 C162 1.270 . S
C165 O158 1.262 . S
C165 O166 1.232 . S
O166 C165 1.232 . S
C167 O159 1.260 . S
C167 O160 1.257 . S
Zn168 O171 2.031 . S
Zn168 O173 2.049 . S
Zn168 O178 2.067 . S
Zn169 O170 1.962 . S
Zn169 O172 1.986 . S
Zn169 O174 1.996 . S
Zn169 O177 1.943 . S
O170 Zn169 1.962 . S
O170 C175 1.261 1_545 S
O171 Zn168 2.031 . S
O171 C175 1.248 1_545 S
O172 Zn169 1.986 . S
O172 C179 1.262 . S
O173 Zn168 2.049 . S
O173 C181 1.260 . S
O174 Zn169 1.996 . S
O174 C181 1.257 . S
C175 O170 1.261 1_565 S
C175 O171 1.248 1_565 S
C176 O177 1.249 . S
C176 O178 1.270 . S
O177 Zn169 1.943 . S
O177 C176 1.249 . S
O178 Zn168 2.067 . S
O178 C176 1.270 . S
C179 O172 1.262 . S
C179 O180 1.232 . S
O180 C179 1.232 . S
C181 O173 1.260 . S
C181 O174 1.257 . S
Zn182 O185 2.031 . S
Zn182 O187 2.049 . S
Zn182 O192 2.067 . S
Zn183 O184 1.964 . S
Zn183 O186 1.986 . S
Zn183 O188 1.996 . S
Zn183 O191 1.943 . S
O184 Zn183 1.964 . S
O184 C189 1.243 1_655 S
O185 Zn182 2.031 . S
O185 C189 1.261 1_655 S
O186 Zn183 1.986 . S
O186 C193 1.262 . S
O187 Zn182 2.049 . S
O187 C195 1.260 . S
O188 Zn183 1.996 . S
O188 C195 1.257 . S
C189 O184 1.243 1_455 S
C189 O185 1.261 1_455 S
C190 O191 1.249 . S
C190 O192 1.270 . S
O191 Zn183 1.943 . S
O191 C190 1.249 . S
O192 Zn182 2.067 . S
O192 C190 1.270 . S
C193 O186 1.262 . S
C193 O194 1.232 . S
O194 C193 1.232 . S
C195 O187 1.260 . S
C195 O188 1.257 . S
Zn196 O199 2.031 . S
Zn196 O201 2.049 . S
Zn196 O206 2.067 . S
Zn197 O198 1.962 . S
Zn197 O200 1.986 . S
Zn197 O202 1.996 . S
Zn197 O205 1.943 . S
O198 Zn197 1.962 . S
O198 C203 1.254 . S
O199 Zn196 2.031 . S
O199 C203 1.269 . S
O200 Zn197 1.986 . S
O200 C207 1.262 . S
O201 Zn196 2.049 . S
O201 C209 1.260 . S
O202 Zn197 1.996 . S
O202 C209 1.257 . S
C203 O198 1.254 . S
C203 O199 1.269 . S
C204 O205 1.249 . S
C204 O206 1.270 . S
O205 Zn197 1.943 . S
O205 C204 1.249 . S
O206 Zn196 2.067 . S
O206 C204 1.270 . S
C207 O200 1.262 . S
C207 O208 1.232 . S
O208 C207 1.232 . S
C209 O201 1.260 . S
C209 O202 1.257 . S
Zn210 O213 2.031 . S
Zn210 O215 2.049 . S
Zn210 O220 2.067 . S
Zn211 O212 1.962 . S
Zn211 O214 1.986 . S
Zn211 O216 1.996 . S
Zn211 O219 1.943 . S
O212 Zn211 1.962 . S
O212 C217 1.254 . S
O213 Zn210 2.031 . S
O213 C217 1.269 . S
O214 Zn211 1.986 . S
O214 C221 1.262 . S
O215 Zn210 2.049 . S
O215 C223 1.260 . S
O216 Zn211 1.996 . S
O216 C223 1.257 . S
C217 O212 1.254 . S
C217 O213 1.269 . S
C218 O219 1.249 . S
C218 O220 1.270 . S
O219 Zn211 1.943 . S
O219 C218 1.249 . S
O220 Zn210 2.067 . S
O220 C218 1.270 . S
C221 O214 1.262 . S
C221 O222 1.232 . S
O222 C221 1.232 . S
C223 O215 1.260 . S
C223 O216 1.257 . S
Zn224 O227 2.031 . S
Zn224 O229 2.049 . S
Zn224 O234 2.067 . S
Zn225 O226 1.962 . S
Zn225 O228 1.986 . S
Zn225 O230 1.996 . S
Zn225 O233 1.943 . S
O226 Zn225 1.962 . S
O226 C231 1.254 . S
O227 Zn224 2.031 . S
O227 C231 1.269 . S
O228 Zn225 1.986 . S
O228 C235 1.262 1_545 S
O229 Zn224 2.049 . S
O229 C237 1.260 . S
O230 Zn225 1.996 . S
O230 C237 1.257 . S
C231 O226 1.254 . S
C231 O227 1.269 . S
C232 O233 1.249 . S
C232 O234 1.270 . S
O233 Zn225 1.943 . S
O233 C232 1.249 . S
O234 Zn224 2.067 . S
O234 C232 1.270 . S
C235 O228 1.262 1_565 S
C235 O236 1.232 . S
O236 C235 1.232 . S
C237 O229 1.260 . S
C237 O230 1.257 . S
Zn238 O241 2.031 . S
Zn238 O243 2.049 . S
Zn238 O248 2.067 . S
Zn239 O240 1.962 . S
Zn239 O242 1.986 . S
Zn239 O244 1.996 . S
Zn239 O247 1.943 . S
O240 Zn239 1.962 . S
O240 C245 1.254 . S
O241 Zn238 2.031 . S
O241 C245 1.269 . S
O242 Zn239 1.986 . S
O242 C249 1.262 . S
O243 Zn238 2.049 . S
O243 C251 1.260 . S
O244 Zn239 1.996 . S
O244 C251 1.257 . S
C245 O240 1.254 . S
C245 O241 1.269 . S
C246 O247 1.249 . S
C246 O248 1.270 . S
O247 Zn239 1.943 . S
O247 C246 1.249 . S
O248 Zn238 2.067 . S
O248 C246 1.270 . S
C249 O242 1.262 . S
C249 O250 1.232 . S
O250 C249 1.232 . S
C251 O243 1.260 . S
C251 O244 1.257 . S
H252 O278 0.856 1_556 S
H253 O281 0.854 . S
H254 C289 0.930 . S
H255 C290 0.930 . S
H256 C292 0.930 . S
H257 C293 0.930 . S
H258 C295 0.931 . S
H259 C296 0.930 . S
H260 C298 0.930 . S
H261 C299 0.929 . S
H262 C301 0.930 . S
H263 C302 0.931 . S
H264 C304 0.930 . S
H265 C305 0.929 . S
H266 C307 0.931 . S
H267 C308 0.930 . S
H268 C310 0.930 . S
H269 C311 0.932 . S
H270 C313 0.930 . S
H271 C314 0.929 . S
H272 C316 0.931 . S
H273 C317 0.930 . S
H274 C319 0.929 . S
H275 C320 0.931 . S
H276 C322 0.930 . S
H277 C323 0.929 . S
O278 H252 0.856 1_554 S
O278 C324 1.300 . S
O279 C324 1.209 . S
O280 C325 1.199 . S
O281 H253 0.854 . S
O281 C325 1.297 . S
C282 C283 1.404 . S
C282 C287 1.397 . S
C282 C288 1.492 . S
C283 C282 1.404 . S
C283 C284 1.396 . S
C283 C294 1.492 . S
C284 C283 1.396 . S
C284 C285 1.397 . S
C284 C300 1.509 . S
C285 C284 1.397 . S
C285 C286 1.412 . S
C285 C306 1.485 . S
C286 C285 1.412 . S
C286 C287 1.388 . S
C286 C312 1.490 . S
C287 C282 1.397 . S
C287 C286 1.388 . S
C287 C318 1.519 . S
C288 C282 1.492 . S
C288 C289 1.363 . S
C288 C293 1.390 . S
C289 H254 0.930 . S
C289 C288 1.363 . S
C289 C290 1.372 . S
C290 H255 0.930 . S
C290 C289 1.372 . S
C290 C291 1.383 . S
C291 C290 1.383 . S
C291 C292 1.395 . S
C292 H256 0.930 . S
C292 C291 1.395 . S
C292 C293 1.362 . S
C293 H257 0.930 . S
C293 C288 1.390 . S
C293 C292 1.362 . S
C294 C283 1.492 . S
C294 C295 1.377 . S
C294 C299 1.397 . S
C295 H258 0.931 . S
C295 C294 1.377 . S
C295 C296 1.376 . S
C296 H259 0.930 . S
C296 C295 1.376 . S
C296 C297 1.376 . S
C297 C296 1.376 . S
C297 C298 1.378 . S
C297 C324 1.486 . S
C298 H260 0.930 . S
C298 C297 1.378 . S
C298 C299 1.376 . S
C299 H261 0.929 . S
C299 C294 1.397 . S
C299 C298 1.376 . S
C300 C284 1.509 . S
C300 C301 1.391 . S
C300 C305 1.386 . S
C301 H262 0.930 . S
C301 C300 1.391 . S
C301 C302 1.375 . S
C302 H263 0.931 . S
C302 C301 1.375 . S
C302 C303 1.375 . S
C303 C302 1.375 . S
C303 C304 1.361 . S
C304 H264 0.930 . S
C304 C303 1.361 . S
C304 C305 1.399 . S
C305 H265 0.929 . S
C305 C300 1.386 . S
C305 C304 1.399 . S
C306 C285 1.485 . S
C306 C307 1.394 . S
C306 C311 1.360 . S
C307 H266 0.931 . S
C307 C306 1.394 . S
C307 C308 1.372 . S
C308 H267 0.930 . S
C308 C307 1.372 . S
C308 C309 1.397 . S
C309 C308 1.397 . S
C309 C310 1.390 . S
C309 C325 1.476 . S
C310 H268 0.930 . S
C310 C309 1.390 . S
C310 C311 1.366 . S
C311 H269 0.932 . S
C311 C306 1.360 . S
C311 C310 1.366 . S
C312 C286 1.490 . S
C312 C313 1.380 . S
C312 C317 1.386 . S
C313 H270 0.930 . S
C313 C312 1.380 . S
C313 C314 1.381 . S
C314 H271 0.929 . S
C314 C313 1.381 . S
C314 C315 1.371 . S
C315 C314 1.371 . S
C315 C316 1.380 . S
C316 H272 0.931 . S
C316 C315 1.380 . S
C316 C317 1.387 . S
C317 H273 0.930 . S
C317 C312 1.386 . S
C317 C316 1.387 . S
C318 C287 1.519 . S
C318 C319 1.377 . S
C318 C323 1.361 . S
C319 H274 0.929 . S
C319 C318 1.377 . S
C319 C320 1.386 . S
C320 H275 0.931 . S
C320 C319 1.386 . S
C320 C321 1.363 . S
C321 C320 1.363 . S
C321 C322 1.385 . S
C322 H276 0.930 . S
C322 C321 1.385 . S
C322 C323 1.396 . S
C323 H277 0.929 . S
C323 C318 1.361 . S
C323 C322 1.396 . S
C324 O278 1.300 . S
C324 O279 1.209 . S
C324 C297 1.486 . S
C325 O280 1.199 . S
C325 O281 1.297 . S
C325 C309 1.476 . S
H326 O352 0.856 . S
H327 O355 0.854 1_545 S
H328 C363 0.930 . S
H329 C364 0.930 . S
H330 C366 0.930 . S
H331 C367 0.930 . S
H332 C369 0.931 . S
H333 C370 0.930 . S
H334 C372 0.930 . S
H335 C373 0.929 . S
H336 C375 0.930 . S
H337 C376 0.931 . S
H338 C378 0.930 . S
H339 C379 0.929 . S
H340 C381 0.931 . S
H341 C382 0.930 . S
H342 C384 0.930 . S
H343 C385 0.932 . S
H344 C387 0.930 . S
H345 C388 0.929 . S
H346 C390 0.931 . S
H347 C391 0.930 . S
H348 C393 0.929 . S
H349 C394 0.931 . S
H350 C396 0.930 . S
H351 C397 0.929 . S
O352 H326 0.856 . S
O352 C398 1.300 . S
O353 C398 1.209 . S
O354 C399 1.199 . S
O355 H327 0.854 1_565 S
O355 C399 1.297 . S
C356 C357 1.404 . S
C356 C361 1.397 . S
C356 C362 1.492 . S
C357 C356 1.404 . S
C357 C358 1.396 . S
C357 C368 1.492 . S
C358 C357 1.396 . S
C358 C359 1.397 . S
C358 C374 1.509 . S
C359 C358 1.397 . S
C359 C360 1.412 . S
C359 C380 1.485 . S
C360 C359 1.412 . S
C360 C361 1.388 . S
C360 C386 1.490 . S
C361 C356 1.397 . S
C361 C360 1.388 . S
C361 C392 1.519 . S
C362 C356 1.492 . S
C362 C363 1.363 . S
C362 C367 1.390 . S
C363 H328 0.930 . S
C363 C362 1.363 . S
C363 C364 1.372 . S
C364 H329 0.930 . S
C364 C363 1.372 . S
C364 C365 1.383 . S
C365 C364 1.383 . S
C365 C366 1.395 . S
C366 H330 0.930 . S
C366 C365 1.395 . S
C366 C367 1.362 . S
C367 H331 0.930 . S
C367 C362 1.390 . S
C367 C366 1.362 . S
C368 C357 1.492 . S
C368 C369 1.377 . S
C368 C373 1.397 . S
C369 H332 0.931 . S
C369 C368 1.377 . S
C369 C370 1.376 . S
C370 H333 0.930 . S
C370 C369 1.376 . S
C370 C371 1.376 . S
C371 C370 1.376 . S
C371 C372 1.378 . S
C371 C398 1.486 . S
C372 H334 0.930 . S
C372 C371 1.378 . S
C372 C373 1.376 . S
C373 H335 0.929 . S
C373 C368 1.397 . S
C373 C372 1.376 . S
C374 C358 1.509 . S
C374 C375 1.391 . S
C374 C379 1.386 . S
C375 H336 0.930 . S
C375 C374 1.391 . S
C375 C376 1.375 . S
C376 H337 0.931 . S
C376 C375 1.375 . S
C376 C377 1.375 . S
C377 C376 1.375 . S
C377 C378 1.361 . S
C378 H338 0.930 . S
C378 C377 1.361 . S
C378 C379 1.399 . S
C379 H339 0.929 . S
C379 C374 1.386 . S
C379 C378 1.399 . S
C380 C359 1.485 . S
C380 C381 1.394 . S
C380 C385 1.360 . S
C381 H340 0.931 . S
C381 C380 1.394 . S
C381 C382 1.372 . S
C382 H341 0.930 . S
C382 C381 1.372 . S
C382 C383 1.397 . S
C383 C382 1.397 . S
C383 C384 1.390 . S
C383 C399 1.476 . S
C384 H342 0.930 . S
C384 C383 1.390 . S
C384 C385 1.366 . S
C385 H343 0.932 . S
C385 C380 1.360 . S
C385 C384 1.366 . S
C386 C360 1.490 . S
C386 C387 1.380 . S
C386 C391 1.386 . S
C387 H344 0.930 . S
C387 C386 1.380 . S
C387 C388 1.381 . S
C388 H345 0.929 . S
C388 C387 1.381 . S
C388 C389 1.371 . S
C389 C388 1.371 . S
C389 C390 1.380 . S
C390 H346 0.931 . S
C390 C389 1.380 . S
C390 C391 1.387 . S
C391 H347 0.930 . S
C391 C386 1.386 . S
C391 C390 1.387 . S
C392 C361 1.519 . S
C392 C393 1.377 . S
C392 C397 1.361 . S
C393 H348 0.929 . S
C393 C392 1.377 . S
C393 C394 1.386 . S
C394 H349 0.931 . S
C394 C393 1.386 . S
C394 C395 1.363 . S
C395 C394 1.363 . S
C395 C396 1.385 . S
C396 H350 0.930 . S
C396 C395 1.385 . S
C396 C397 1.396 . S
C397 H351 0.929 . S
C397 C392 1.361 . S
C397 C396 1.396 . S
C398 O352 1.300 . S
C398 O353 1.209 . S
C398 C371 1.486 . S
C399 O354 1.199 . S
C399 O355 1.297 . S
C399 C383 1.476 . S
H400 O426 0.856 . S
H401 O429 0.883 . S
H402 C437 0.930 . S
H403 C438 0.930 . S
H404 C440 0.930 . S
H405 C441 0.930 . S
H406 C443 0.931 . S
H407 C444 0.930 . S
H408 C446 0.930 . S
H409 C447 0.929 . S
H410 C449 0.930 . S
H411 C450 0.931 . S
H412 C452 0.930 . S
H413 C453 0.929 . S
H414 C455 0.931 . S
H415 C456 0.930 . S
H416 C458 0.930 . S
H417 C459 0.932 . S
H418 C461 0.930 . S
H419 C462 0.929 . S
H420 C464 0.931 . S
H421 C465 0.930 . S
H422 C467 0.929 . S
H423 C468 0.931 . S
H424 C470 0.930 . S
H425 C471 0.929 . S
O426 H400 0.856 . S
O426 C472 1.300 . S
O427 C472 1.209 . S
O428 C473 1.180 1_545 S
O429 H401 0.883 . S
O429 C473 1.297 . S
C430 C431 1.404 . S
C430 C435 1.397 . S
C430 C436 1.492 . S
C431 C430 1.404 . S
C431 C432 1.396 . S
C431 C442 1.492 . S
C432 C431 1.396 . S
C432 C433 1.397 . S
C432 C448 1.509 . S
C433 C432 1.397 . S
C433 C434 1.412 . S
C433 C454 1.485 . S
C434 C433 1.412 . S
C434 C435 1.388 . S
C434 C460 1.490 . S
C435 C430 1.397 . S
C435 C434 1.388 . S
C435 C466 1.519 . S
C436 C430 1.492 . S
C436 C437 1.363 . S
C436 C441 1.390 . S
C437 H402 0.930 . S
C437 C436 1.363 . S
C437 C438 1.372 . S
C438 H403 0.930 . S
C438 C437 1.372 . S
C438 C439 1.383 . S
C439 C438 1.383 . S
C439 C440 1.395 . S
C440 H404 0.930 . S
C440 C439 1.395 . S
C440 C441 1.362 . S
C441 H405 0.930 . S
C441 C436 1.390 . S
C441 C440 1.362 . S
C442 C431 1.492 . S
C442 C443 1.377 . S
C442 C447 1.397 . S
C443 H406 0.931 . S
C443 C442 1.377 . S
C443 C444 1.376 . S
C444 H407 0.930 . S
C444 C443 1.376 . S
C444 C445 1.376 . S
C445 C444 1.376 . S
C445 C446 1.378 . S
C445 C472 1.486 . S
C446 H408 0.930 . S
C446 C445 1.378 . S
C446 C447 1.376 . S
C447 H409 0.929 . S
C447 C442 1.397 . S
C447 C446 1.376 . S
C448 C432 1.509 . S
C448 C449 1.391 . S
C448 C453 1.386 . S
C449 H410 0.930 . S
C449 C448 1.391 . S
C449 C450 1.375 . S
C450 H411 0.931 . S
C450 C449 1.375 . S
C450 C451 1.375 . S
C451 C450 1.375 . S
C451 C452 1.361 . S
C452 H412 0.930 . S
C452 C451 1.361 . S
C452 C453 1.399 . S
C453 H413 0.929 . S
C453 C448 1.386 . S
C453 C452 1.399 . S
C454 C433 1.485 . S
C454 C455 1.394 . S
C454 C459 1.360 . S
C455 H414 0.931 . S
C455 C454 1.394 . S
C455 C456 1.372 . S
C456 H415 0.930 . S
C456 C455 1.372 . S
C456 C457 1.397 . S
C457 C456 1.397 . S
C457 C458 1.390 . S
C457 C473 1.476 . S
C458 H416 0.930 . S
C458 C457 1.390 . S
C458 C459 1.366 . S
C459 H417 0.932 . S
C459 C454 1.360 . S
C459 C458 1.366 . S
C460 C434 1.490 . S
C460 C461 1.380 . S
C460 C465 1.386 . S
C461 H418 0.930 . S
C461 C460 1.380 . S
C461 C462 1.381 . S
C462 H419 0.929 . S
C462 C461 1.381 . S
C462 C463 1.371 . S
C463 C462 1.371 . S
C463 C464 1.380 . S
C464 H420 0.931 . S
C464 C463 1.380 . S
C464 C465 1.387 . S
C465 H421 0.930 . S
C465 C460 1.386 . S
C465 C464 1.387 . S
C466 C435 1.519 . S
C466 C467 1.377 . S
C466 C471 1.361 . S
C467 H422 0.929 . S
C467 C466 1.377 . S
C467 C468 1.386 . S
C468 H423 0.931 . S
C468 C467 1.386 . S
C468 C469 1.363 . S
C469 C468 1.363 . S
C469 C470 1.385 . S
C470 H424 0.930 . S
C470 C469 1.385 . S
C470 C471 1.396 . S
C471 H425 0.929 . S
C471 C466 1.361 . S
C471 C470 1.396 . S
C472 O426 1.300 . S
C472 O427 1.209 . S
C472 C445 1.486 . S
C473 O428 1.180 1_565 S
C473 O429 1.297 . S
C473 C457 1.476 . S
H474 O500 0.856 . S
H475 O503 0.854 . S
H476 C511 0.930 . S
H477 C512 0.930 . S
H478 C514 0.930 . S
H479 C515 0.930 . S
H480 C517 0.931 . S
H481 C518 0.930 1_554 S
H482 C520 0.930 . S
H483 C521 0.929 . S
H484 C523 0.930 . S
H485 C524 0.931 . S
H486 C526 0.930 . S
H487 C527 0.929 . S
H488 C529 0.931 . S
H489 C530 0.930 . S
H490 C532 0.930 . S
H491 C533 0.932 . S
H492 C535 0.930 . S
H493 C536 0.929 . S
H494 C538 0.931 . S
H495 C539 0.930 . S
H496 C541 0.929 . S
H497 C542 0.931 . S
H498 C544 0.930 . S
H499 C545 0.929 . S
O500 H474 0.856 . S
O500 C546 1.300 . S
O501 C546 1.209 . S
O502 C547 1.199 . S
O503 H475 0.854 . S
O503 C547 1.297 . S
C504 C505 1.404 . S
C504 C509 1.397 . S
C504 C510 1.492 . S
C505 C504 1.404 . S
C505 C506 1.396 . S
C505 C516 1.492 . S
C506 C505 1.396 . S
C506 C507 1.397 . S
C506 C522 1.509 . S
C507 C506 1.397 . S
C507 C508 1.412 . S
C507 C528 1.485 . S
C508 C507 1.412 . S
C508 C509 1.388 . S
C508 C534 1.490 . S
C509 C504 1.397 . S
C509 C508 1.388 . S
C509 C540 1.519 . S
C510 C504 1.492 . S
C510 C511 1.363 . S
C510 C515 1.390 . S
C511 H476 0.930 . S
C511 C510 1.363 . S
C511 C512 1.372 . S
C512 H477 0.930 . S
C512 C511 1.372 . S
C512 C513 1.383 . S
C513 C512 1.383 . S
C513 C514 1.395 . S
C514 H478 0.930 . S
C514 C513 1.395 . S
C514 C515 1.362 . S
C515 H479 0.930 . S
C515 C510 1.390 . S
C515 C514 1.362 . S
C516 C505 1.492 . S
C516 C517 1.377 . S
C516 C521 1.397 . S
C517 H480 0.931 . S
C517 C516 1.377 . S
C517 C518 1.376 . S
C518 H481 0.930 1_556 S
C518 C517 1.376 . S
C518 C519 1.376 1_556 S
C519 C518 1.376 1_554 S
C519 C520 1.378 1_554 S
C519 C546 1.486 . S
C520 H482 0.930 . S
C520 C519 1.378 1_556 S
C520 C521 1.376 . S
C521 H483 0.929 . S
C521 C516 1.397 . S
C521 C520 1.376 . S
C522 C506 1.509 . S
C522 C523 1.391 . S
C522 C527 1.386 . S
C523 H484 0.930 . S
C523 C522 1.391 . S
C523 C524 1.375 . S
C524 H485 0.931 . S
C524 C523 1.375 . S
C524 C525 1.375 . S
C525 C524 1.375 . S
C525 C526 1.361 . S
C526 H486 0.930 . S
C526 C525 1.361 . S
C526 C527 1.399 . S
C527 H487 0.929 . S
C527 C522 1.386 . S
C527 C526 1.399 . S
C528 C507 1.485 . S
C528 C529 1.394 . S
C528 C533 1.360 . S
C529 H488 0.931 . S
C529 C528 1.394 . S
C529 C530 1.372 . S
C530 H489 0.930 . S
C530 C529 1.372 . S
C530 C531 1.397 . S
C531 C530 1.397 . S
C531 C532 1.390 . S
C531 C547 1.476 . S
C532 H490 0.930 . S
C532 C531 1.390 . S
C532 C533 1.366 . S
C533 H491 0.932 . S
C533 C528 1.360 . S
C533 C532 1.366 . S
C534 C508 1.490 . S
C534 C535 1.380 . S
C534 C539 1.386 . S
C535 H492 0.930 . S
C535 C534 1.380 . S
C535 C536 1.381 . S
C536 H493 0.929 . S
C536 C535 1.381 . S
C536 C537 1.371 . S
C537 C536 1.371 . S
C537 C538 1.380 . S
C538 H494 0.931 . S
C538 C537 1.380 . S
C538 C539 1.387 . S
C539 H495 0.930 . S
C539 C534 1.386 . S
C539 C538 1.387 . S
C540 C509 1.519 . S
C540 C541 1.377 . S
C540 C545 1.361 . S
C541 H496 0.929 . S
C541 C540 1.377 . S
C541 C542 1.386 . S
C542 H497 0.931 . S
C542 C541 1.386 . S
C542 C543 1.363 . S
C543 C542 1.363 . S
C543 C544 1.385 . S
C544 H498 0.930 . S
C544 C543 1.385 . S
C544 C545 1.396 . S
C545 H499 0.929 . S
C545 C540 1.361 . S
C545 C544 1.396 . S
C546 O500 1.300 . S
C546 O501 1.209 . S
C546 C519 1.486 . S
C547 O502 1.199 . S
C547 O503 1.297 . S
C547 C531 1.476 . S
H548 O574 0.856 . S
H549 O577 0.854 . S
H550 C585 0.930 . S
H551 C586 0.930 . S
H552 C588 0.930 . S
H553 C589 0.930 . S
H554 C591 0.931 . S
H555 C592 0.930 . S
H556 C594 0.930 . S
H557 C595 0.929 . S
H558 C597 0.930 . S
H559 C598 0.931 . S
H560 C600 0.930 . S
H561 C601 0.929 . S
H562 C603 0.931 . S
H563 C604 0.930 . S
H564 C606 0.930 . S
H565 C607 0.932 . S
H566 C609 0.930 . S
H567 C610 0.929 . S
H568 C612 0.931 . S
H569 C613 0.930 . S
H570 C615 0.929 . S
H571 C616 0.931 . S
H572 C618 0.930 . S
H573 C619 0.929 . S
O574 H548 0.856 . S
O574 C620 1.300 . S
O575 C620 1.209 . S
O576 C621 1.199 . S
O577 H549 0.854 . S
O577 C621 1.297 1_565 S
C578 C579 1.404 . S
C578 C583 1.397 . S
C578 C584 1.492 . S
C579 C578 1.404 . S
C579 C580 1.396 . S
C579 C590 1.492 . S
C580 C579 1.396 . S
C580 C581 1.397 . S
C580 C596 1.509 . S
C581 C580 1.397 . S
C581 C582 1.412 . S
C581 C602 1.485 . S
C582 C581 1.412 . S
C582 C583 1.388 . S
C582 C608 1.490 . S
C583 C578 1.397 . S
C583 C582 1.388 . S
C583 C614 1.519 . S
C584 C578 1.492 . S
C584 C585 1.363 . S
C584 C589 1.390 . S
C585 H550 0.930 . S
C585 C584 1.363 . S
C585 C586 1.372 . S
C586 H551 0.930 . S
C586 C585 1.372 . S
C586 C587 1.383 . S
C587 C586 1.383 . S
C587 C588 1.395 . S
C588 H552 0.930 . S
C588 C587 1.395 . S
C588 C589 1.362 . S
C589 H553 0.930 . S
C589 C584 1.390 . S
C589 C588 1.362 . S
C590 C579 1.492 . S
C590 C591 1.377 . S
C590 C595 1.397 . S
C591 H554 0.931 . S
C591 C590 1.377 . S
C591 C592 1.376 1_556 S
C592 H555 0.930 . S
C592 C591 1.376 1_554 S
C592 C593 1.376 . S
C593 C592 1.376 . S
C593 C594 1.378 . S
C593 C620 1.486 . S
C594 H556 0.930 . S
C594 C593 1.378 . S
C594 C595 1.376 1_554 S
C595 H557 0.929 . S
C595 C590 1.397 . S
C595 C594 1.376 1_556 S
C596 C580 1.509 . S
C596 C597 1.391 . S
C596 C601 1.386 . S
C597 H558 0.930 . S
C597 C596 1.391 . S
C597 C598 1.375 . S
C598 H559 0.931 . S
C598 C597 1.375 . S
C598 C599 1.375 . S
C599 C598 1.375 . S
C599 C600 1.361 . S
C600 H560 0.930 . S
C600 C599 1.361 . S
C600 C601 1.399 . S
C601 H561 0.929 . S
C601 C596 1.386 . S
C601 C600 1.399 . S
C602 C581 1.485 . S
C602 C603 1.394 . S
C602 C607 1.360 . S
C603 H562 0.931 . S
C603 C602 1.394 . S
C603 C604 1.372 . S
C604 H563 0.930 . S
C604 C603 1.372 . S
C604 C605 1.397 . S
C605 C604 1.397 . S
C605 C606 1.390 . S
C605 C621 1.476 . S
C606 H564 0.930 . S
C606 C605 1.390 . S
C606 C607 1.366 . S
C607 H565 0.932 . S
C607 C602 1.360 . S
C607 C606 1.366 . S
C608 C582 1.490 . S
C608 C609 1.380 . S
C608 C613 1.386 . S
C609 H566 0.930 . S
C609 C608 1.380 . S
C609 C610 1.381 . S
C610 H567 0.929 . S
C610 C609 1.381 . S
C610 C611 1.371 . S
C611 C610 1.371 . S
C611 C612 1.380 . S
C612 H568 0.931 . S
C612 C611 1.380 . S
C612 C613 1.387 . S
C613 H569 0.930 . S
C613 C608 1.386 . S
C613 C612 1.387 . S
C614 C583 1.519 . S
C614 C615 1.377 . S
C614 C619 1.361 . S
C615 H570 0.929 . S
C615 C614 1.377 . S
C615 C616 1.386 . S
C616 H571 0.931 . S
C616 C615 1.386 . S
C616 C617 1.363 . S
C617 C616 1.363 . S
C617 C618 1.385 . S
C618 H572 0.930 . S
C618 C617 1.385 . S
C618 C619 1.396 . S
C619 H573 0.929 . S
C619 C614 1.361 . S
C619 C618 1.396 . S
C620 O574 1.300 . S
C620 O575 1.209 . S
C620 C593 1.486 . S
C621 O576 1.199 . S
C621 O577 1.297 1_545 S
C621 C605 1.476 . S
H622 O648 0.856 . S
H623 O651 0.854 . S
H624 C659 0.930 . S
H625 C660 0.930 . S
H626 C662 0.930 . S
H627 C663 0.930 . S
H628 C665 0.931 . S
H629 C666 0.930 . S
H630 C668 0.930 . S
H631 C669 0.929 . S
H632 C671 0.930 . S
H633 C672 0.931 . S
H634 C674 0.930 . S
H635 C675 0.929 . S
H636 C677 0.931 . S
H637 C678 0.930 . S
H638 C680 0.930 . S
H639 C681 0.932 . S
H640 C683 0.930 . S
H641 C684 0.929 . S
H642 C686 0.931 . S
H643 C687 0.930 . S
H644 C689 0.929 . S
H645 C690 0.931 . S
H646 C692 0.930 . S
H647 C693 0.929 . S
O648 H622 0.856 . S
O648 C694 1.300 . S
O649 C694 1.209 . S
O650 C695 1.199 . S
O651 H623 0.854 . S
O651 C695 1.297 . S
C652 C653 1.404 . S
C652 C657 1.397 . S
C652 C658 1.492 . S
C653 C652 1.404 . S
C653 C654 1.396 . S
C653 C664 1.492 . S
C654 C653 1.396 . S
C654 C655 1.397 . S
C654 C670 1.509 . S
C655 C654 1.397 . S
C655 C656 1.412 . S
C655 C676 1.485 . S
C656 C655 1.412 . S
C656 C657 1.388 . S
C656 C682 1.490 . S
C657 C652 1.397 . S
C657 C656 1.388 . S
C657 C688 1.519 . S
C658 C652 1.492 . S
C658 C659 1.363 . S
C658 C663 1.390 . S
C659 H624 0.930 . S
C659 C658 1.363 . S
C659 C660 1.372 . S
C660 H625 0.930 . S
C660 C659 1.372 . S
C660 C661 1.383 . S
C661 C660 1.383 . S
C661 C662 1.395 . S
C662 H626 0.930 . S
C662 C661 1.395 . S
C662 C663 1.362 . S
C663 H627 0.930 . S
C663 C658 1.390 . S
C663 C662 1.362 . S
C664 C653 1.492 . S
C664 C665 1.377 . S
C664 C669 1.397 . S
C665 H628 0.931 . S
C665 C664 1.377 . S
C665 C666 1.376 1_556 S
C666 H629 0.930 . S
C666 C665 1.376 1_554 S
C666 C667 1.376 . S
C667 C666 1.376 . S
C667 C668 1.378 . S
C667 C694 1.486 . S
C668 H630 0.930 . S
C668 C667 1.378 . S
C668 C669 1.376 1_554 S
C669 H631 0.929 . S
C669 C664 1.397 . S
C669 C668 1.376 1_556 S
C670 C654 1.509 . S
C670 C671 1.391 . S
C670 C675 1.386 . S
C671 H632 0.930 . S
C671 C670 1.391 . S
C671 C672 1.375 . S
C672 H633 0.931 . S
C672 C671 1.375 . S
C672 C673 1.375 . S
C673 C672 1.375 . S
C673 C674 1.361 . S
C674 H634 0.930 . S
C674 C673 1.361 . S
C674 C675 1.399 . S
C675 H635 0.929 . S
C675 C670 1.386 . S
C675 C674 1.399 . S
C676 C655 1.485 . S
C676 C677 1.394 . S
C676 C681 1.360 . S
C677 H636 0.931 . S
C677 C676 1.394 . S
C677 C678 1.372 . S
C678 H637 0.930 . S
C678 C677 1.372 . S
C678 C679 1.397 . S
C679 C678 1.397 . S
C679 C680 1.390 . S
C679 C695 1.476 . S
C680 H638 0.930 . S
C680 C679 1.390 . S
C680 C681 1.366 . S
C681 H639 0.932 . S
C681 C676 1.360 . S
C681 C680 1.366 . S
C682 C656 1.490 . S
C682 C683 1.380 . S
C682 C687 1.386 . S
C683 H640 0.930 . S
C683 C682 1.380 . S
C683 C684 1.381 . S
C684 H641 0.929 . S
C684 C683 1.381 . S
C684 C685 1.371 . S
C685 C684 1.371 . S
C685 C686 1.380 . S
C686 H642 0.931 . S
C686 C685 1.380 . S
C686 C687 1.387 . S
C687 H643 0.930 . S
C687 C682 1.386 . S
C687 C686 1.387 . S
C688 C657 1.519 . S
C688 C689 1.377 . S
C688 C693 1.361 . S
C689 H644 0.929 . S
C689 C688 1.377 . S
C689 C690 1.386 . S
C690 H645 0.931 . S
C690 C689 1.386 . S
C690 C691 1.363 . S
C691 C690 1.363 . S
C691 C692 1.385 . S
C692 H646 0.930 . S
C692 C691 1.385 . S
C692 C693 1.396 . S
C693 H647 0.929 . S
C693 C688 1.361 . S
C693 C692 1.396 . S
C694 O648 1.300 . S
C694 O649 1.209 . S
C694 C667 1.486 . S
C695 O650 1.199 . S
C695 O651 1.297 . S
C695 C679 1.476 . S
H696 O722 0.856 . S
H697 O725 0.854 . S
H698 C733 0.930 . S
H699 C734 0.930 . S
H700 C736 0.930 . S
H701 C737 0.930 . S
H702 C739 0.931 . S
H703 C740 0.930 . S
H704 C742 0.930 . S
H705 C743 0.929 . S
H706 C745 0.930 . S
H707 C746 0.931 . S
H708 C748 0.930 . S
H709 C749 0.929 . S
H710 C751 0.931 . S
H711 C752 0.930 . S
H712 C754 0.930 . S
H713 C755 0.932 . S
H714 C757 0.930 . S
H715 C758 0.929 . S
H716 C760 0.931 . S
H717 C761 0.930 . S
H718 C763 0.929 . S
H719 C764 0.931 . S
H720 C766 0.930 . S
H721 C767 0.929 . S
O722 H696 0.856 . S
O722 C768 1.300 . S
O723 C768 1.209 . S
O724 C769 1.199 . S
O725 H697 0.854 . S
O725 C769 1.297 . S
C726 C727 1.404 . S
C726 C731 1.397 . S
C726 C732 1.492 . S
C727 C726 1.404 . S
C727 C728 1.396 . S
C727 C738 1.492 . S
C728 C727 1.396 . S
C728 C729 1.397 . S
C728 C744 1.509 . S
C729 C728 1.397 . S
C729 C730 1.412 . S
C729 C750 1.485 . S
C730 C729 1.412 . S
C730 C731 1.388 . S
C730 C756 1.490 . S
C731 C726 1.397 . S
C731 C730 1.388 . S
C731 C762 1.519 . S
C732 C726 1.492 . S
C732 C733 1.363 . S
C732 C737 1.390 . S
C733 H698 0.930 . S
C733 C732 1.363 . S
C733 C734 1.372 . S
C734 H699 0.930 . S
C734 C733 1.372 . S
C734 C735 1.383 . S
C735 C734 1.383 . S
C735 C736 1.395 . S
C736 H700 0.930 . S
C736 C735 1.395 . S
C736 C737 1.362 . S
C737 H701 0.930 . S
C737 C732 1.390 . S
C737 C736 1.362 . S
C738 C727 1.492 . S
C738 C739 1.377 . S
C738 C743 1.397 . S
C739 H702 0.931 . S
C739 C738 1.377 . S
C739 C740 1.376 . S
C740 H703 0.930 . S
C740 C739 1.376 . S
C740 C741 1.376 . S
C741 C740 1.376 . S
C741 C742 1.378 . S
C741 C768 1.486 . S
C742 H704 0.930 . S
C742 C741 1.378 . S
C742 C743 1.376 . S
C743 H705 0.929 . S
C743 C738 1.397 . S
C743 C742 1.376 . S
C744 C728 1.509 . S
C744 C745 1.391 . S
C744 C749 1.386 . S
C745 H706 0.930 . S
C745 C744 1.391 . S
C745 C746 1.375 . S
C746 H707 0.931 . S
C746 C745 1.375 . S
C746 C747 1.375 . S
C747 C746 1.375 . S
C747 C748 1.361 . S
C748 H708 0.930 . S
C748 C747 1.361 . S
C748 C749 1.399 . S
C749 H709 0.929 . S
C749 C744 1.386 . S
C749 C748 1.399 . S
C750 C729 1.485 . S
C750 C751 1.394 . S
C750 C755 1.360 . S
C751 H710 0.931 . S
C751 C750 1.394 . S
C751 C752 1.372 . S
C752 H711 0.930 . S
C752 C751 1.372 . S
C752 C753 1.397 . S
C753 C752 1.397 . S
C753 C754 1.390 . S
C753 C769 1.476 . S
C754 H712 0.930 . S
C754 C753 1.390 . S
C754 C755 1.366 . S
C755 H713 0.932 . S
C755 C750 1.360 . S
C755 C754 1.366 . S
C756 C730 1.490 . S
C756 C757 1.380 . S
C756 C761 1.386 . S
C757 H714 0.930 . S
C757 C756 1.380 . S
C757 C758 1.381 . S
C758 H715 0.929 . S
C758 C757 1.381 . S
C758 C759 1.371 . S
C759 C758 1.371 . S
C759 C760 1.380 . S
C760 H716 0.931 . S
C760 C759 1.380 . S
C760 C761 1.387 . S
C761 H717 0.930 . S
C761 C756 1.386 . S
C761 C760 1.387 . S
C762 C731 1.519 . S
C762 C763 1.377 . S
C762 C767 1.361 . S
C763 H718 0.929 . S
C763 C762 1.377 . S
C763 C764 1.386 . S
C764 H719 0.931 . S
C764 C763 1.386 . S
C764 C765 1.363 . S
C765 C764 1.363 . S
C765 C766 1.385 . S
C766 H720 0.930 . S
C766 C765 1.385 . S
C766 C767 1.396 . S
C767 H721 0.929 . S
C767 C762 1.361 . S
C767 C766 1.396 . S
C768 O722 1.300 . S
C768 O723 1.209 . S
C768 C741 1.486 . S
C769 O724 1.199 . S
C769 O725 1.297 . S
C769 C753 1.476 . S
H770 O796 0.856 . S
H771 O799 0.854 . S
H772 C807 0.930 . S
H773 C808 0.930 . S
H774 C810 0.930 . S
H775 C811 0.930 . S
H776 C813 0.931 . S
H777 C814 0.930 . S
H778 C816 0.930 . S
H779 C817 0.929 . S
H780 C819 0.930 . S
H781 C820 0.931 . S
H782 C822 0.930 . S
H783 C823 0.929 . S
H784 C825 0.931 . S
H785 C826 0.930 . S
H786 C828 0.930 . S
H787 C829 0.932 . S
H788 C831 0.930 . S
H789 C832 0.929 . S
H790 C834 0.931 . S
H791 C835 0.930 . S
H792 C837 0.929 . S
H793 C838 0.931 . S
H794 C840 0.930 . S
H795 C841 0.929 . S
O796 H770 0.856 . S
O796 C842 1.300 . S
O797 C842 1.209 . S
O798 C843 1.199 . S
O799 H771 0.854 . S
O799 C843 1.297 . S
C800 C801 1.404 . S
C800 C805 1.397 . S
C800 C806 1.492 . S
C801 C800 1.404 . S
C801 C802 1.396 . S
C801 C812 1.492 . S
C802 C801 1.396 . S
C802 C803 1.397 . S
C802 C818 1.509 . S
C803 C802 1.397 . S
C803 C804 1.412 . S
C803 C824 1.485 . S
C804 C803 1.412 . S
C804 C805 1.388 . S
C804 C830 1.490 . S
C805 C800 1.397 . S
C805 C804 1.388 . S
C805 C836 1.519 . S
C806 C800 1.492 . S
C806 C807 1.363 . S
C806 C811 1.390 . S
C807 H772 0.930 . S
C807 C806 1.363 . S
C807 C808 1.372 . S
C808 H773 0.930 . S
C808 C807 1.372 . S
C808 C809 1.383 . S
C809 C808 1.383 . S
C809 C810 1.395 . S
C810 H774 0.930 . S
C810 C809 1.395 . S
C810 C811 1.362 . S
C811 H775 0.930 . S
C811 C806 1.390 . S
C811 C810 1.362 . S
C812 C801 1.492 . S
C812 C813 1.377 . S
C812 C817 1.397 . S
C813 H776 0.931 . S
C813 C812 1.377 . S
C813 C814 1.376 . S
C814 H777 0.930 . S
C814 C813 1.376 . S
C814 C815 1.376 . S
C815 C814 1.376 . S
C815 C816 1.378 . S
C815 C842 1.486 . S
C816 H778 0.930 . S
C816 C815 1.378 . S
C816 C817 1.376 . S
C817 H779 0.929 . S
C817 C812 1.397 . S
C817 C816 1.376 . S
C818 C802 1.509 . S
C818 C819 1.391 . S
C818 C823 1.386 . S
C819 H780 0.930 . S
C819 C818 1.391 . S
C819 C820 1.375 . S
C820 H781 0.931 . S
C820 C819 1.375 . S
C820 C821 1.375 . S
C821 C820 1.375 . S
C821 C822 1.361 . S
C822 H782 0.930 . S
C822 C821 1.361 . S
C822 C823 1.399 . S
C823 H783 0.929 . S
C823 C818 1.386 . S
C823 C822 1.399 . S
C824 C803 1.485 . S
C824 C825 1.394 . S
C824 C829 1.360 . S
C825 H784 0.931 . S
C825 C824 1.394 . S
C825 C826 1.372 . S
C826 H785 0.930 . S
C826 C825 1.372 . S
C826 C827 1.397 . S
C827 C826 1.397 . S
C827 C828 1.390 . S
C827 C843 1.476 . S
C828 H786 0.930 . S
C828 C827 1.390 . S
C828 C829 1.366 . S
C829 H787 0.932 . S
C829 C824 1.360 . S
C829 C828 1.366 . S
C830 C804 1.490 . S
C830 C831 1.380 . S
C830 C835 1.386 . S
C831 H788 0.930 . S
C831 C830 1.380 . S
C831 C832 1.381 . S
C832 H789 0.929 . S
C832 C831 1.381 . S
C832 C833 1.371 . S
C833 C832 1.371 . S
C833 C834 1.380 . S
C834 H790 0.931 . S
C834 C833 1.380 . S
C834 C835 1.387 . S
C835 H791 0.930 . S
C835 C830 1.386 . S
C835 C834 1.387 . S
C836 C805 1.519 . S
C836 C837 1.377 . S
C836 C841 1.361 . S
C837 H792 0.929 . S
C837 C836 1.377 . S
C837 C838 1.386 . S
C838 H793 0.931 . S
C838 C837 1.386 . S
C838 C839 1.363 . S
C839 C838 1.363 . S
C839 C840 1.385 . S
C840 H794 0.930 . S
C840 C839 1.385 . S
C840 C841 1.396 . S
C841 H795 0.929 . S
C841 C836 1.361 . S
C841 C840 1.396 . S
C842 O796 1.300 . S
C842 O797 1.209 . S
C842 C815 1.486 . S
C843 O798 1.199 . S
C843 O799 1.297 . S
C843 C827 1.476 . S
H844 O870 0.856 . S
H845 O873 0.854 . S
H846 C881 0.930 . S
H847 C882 0.930 . S
H848 C884 0.930 . S
H849 C885 0.930 . S
H850 C887 0.931 . S
H851 C888 0.930 . S
H852 C890 0.930 . S
H853 C891 0.929 . S
H854 C893 0.930 . S
H855 C894 0.931 . S
H856 C896 0.930 . S
H857 C897 0.929 . S
H858 C899 0.931 . S
H859 C900 0.930 . S
H860 C902 0.930 . S
H861 C903 0.932 . S
H862 C905 0.930 . S
H863 C906 0.929 . S
H864 C908 0.931 . S
H865 C909 0.930 . S
H866 C911 0.929 . S
H867 C912 0.931 . S
H868 C914 0.930 . S
H869 C915 0.929 . S
O870 H844 0.856 . S
O870 C916 1.300 . S
O871 C916 1.209 . S
O872 C917 1.199 . S
O873 H845 0.854 . S
O873 C917 1.297 . S
C874 C875 1.404 . S
C874 C879 1.397 . S
C874 C880 1.492 . S
C875 C874 1.404 . S
C875 C876 1.396 . S
C875 C886 1.492 . S
C876 C875 1.396 . S
C876 C877 1.397 . S
C876 C892 1.509 . S
C877 C876 1.397 . S
C877 C878 1.412 . S
C877 C898 1.485 . S
C878 C877 1.412 . S
C878 C879 1.388 . S
C878 C904 1.490 . S
C879 C874 1.397 . S
C879 C878 1.388 . S
C879 C910 1.519 . S
C880 C874 1.492 . S
C880 C881 1.363 . S
C880 C885 1.390 . S
C881 H846 0.930 . S
C881 C880 1.363 . S
C881 C882 1.372 . S
C882 H847 0.930 . S
C882 C881 1.372 . S
C882 C883 1.383 . S
C883 C882 1.383 . S
C883 C884 1.395 . S
C884 H848 0.930 . S
C884 C883 1.395 . S
C884 C885 1.362 . S
C885 H849 0.930 . S
C885 C880 1.390 . S
C885 C884 1.362 . S
C886 C875 1.492 . S
C886 C887 1.377 . S
C886 C891 1.397 . S
C887 H850 0.931 . S
C887 C886 1.377 . S
C887 C888 1.376 . S
C888 H851 0.930 . S
C888 C887 1.376 . S
C888 C889 1.376 . S
C889 C888 1.376 . S
C889 C890 1.378 . S
C889 C916 1.486 . S
C890 H852 0.930 . S
C890 C889 1.378 . S
C890 C891 1.376 . S
C891 H853 0.929 . S
C891 C886 1.397 . S
C891 C890 1.376 . S
C892 C876 1.509 . S
C892 C893 1.391 . S
C892 C897 1.386 . S
C893 H854 0.930 . S
C893 C892 1.391 . S
C893 C894 1.375 . S
C894 H855 0.931 . S
C894 C893 1.375 . S
C894 C895 1.375 . S
C895 C894 1.375 . S
C895 C896 1.361 . S
C896 H856 0.930 . S
C896 C895 1.361 . S
C896 C897 1.399 . S
C897 H857 0.929 . S
C897 C892 1.386 . S
C897 C896 1.399 . S
C898 C877 1.485 . S
C898 C899 1.394 . S
C898 C903 1.360 . S
C899 H858 0.931 . S
C899 C898 1.394 . S
C899 C900 1.372 . S
C900 H859 0.930 . S
C900 C899 1.372 . S
C900 C901 1.397 . S
C901 C900 1.397 . S
C901 C902 1.390 . S
C901 C917 1.476 . S
C902 H860 0.930 . S
C902 C901 1.390 . S
C902 C903 1.366 . S
C903 H861 0.932 . S
C903 C898 1.360 . S
C903 C902 1.366 . S
C904 C878 1.490 . S
C904 C905 1.380 . S
C904 C909 1.386 . S
C905 H862 0.930 . S
C905 C904 1.380 . S
C905 C906 1.381 . S
C906 H863 0.929 . S
C906 C905 1.381 . S
C906 C907 1.371 . S
C907 C906 1.371 . S
C907 C908 1.380 . S
C908 H864 0.931 . S
C908 C907 1.380 . S
C908 C909 1.387 . S
C909 H865 0.930 . S
C909 C904 1.386 . S
C909 C908 1.387 . S
C910 C879 1.519 . S
C910 C911 1.377 . S
C910 C915 1.361 . S
C911 H866 0.929 . S
C911 C910 1.377 . S
C911 C912 1.386 . S
C912 H867 0.931 . S
C912 C911 1.386 . S
C912 C913 1.363 . S
C913 C912 1.363 . S
C913 C914 1.385 . S
C914 H868 0.930 . S
C914 C913 1.385 . S
C914 C915 1.396 . S
C915 H869 0.929 . S
C915 C910 1.361 . S
C915 C914 1.396 . S
C916 O870 1.300 . S
C916 O871 1.209 . S
C916 C889 1.486 . S
C917 O872 1.199 . S
C917 O873 1.297 . S
C917 C901 1.476 . S
H918 O944 0.856 . S
H919 O947 0.854 . S
H920 C955 0.930 . S
H921 C956 0.930 . S
H922 C958 0.930 . S
H923 C959 0.930 . S
H924 C961 0.931 . S
H925 C962 0.930 1_655 S
H926 C964 0.930 . S
H927 C965 0.929 . S
H928 C967 0.930 . S
H929 C968 0.931 1_655 S
H930 C970 0.930 . S
H931 C971 0.929 . S
H932 C973 0.931 . S
H933 C974 0.930 . S
H934 C976 0.930 . S
H935 C977 0.932 . S
H936 C979 0.930 . S
H937 C980 0.929 . S
H938 C982 0.931 . S
H939 C983 0.930 . S
H940 C985 0.929 . S
H941 C986 0.931 . S
H942 C988 0.930 . S
H943 C989 0.929 . S
O944 H918 0.856 . S
O944 C990 1.300 . S
O945 C990 1.209 . S
O946 C991 1.199 1_655 S
O947 H919 0.854 . S
O947 C991 1.297 . S
C948 C949 1.404 . S
C948 C953 1.397 . S
C948 C954 1.492 . S
C949 C948 1.404 . S
C949 C950 1.396 . S
C949 C960 1.492 . S
C950 C949 1.396 . S
C950 C951 1.397 . S
C950 C966 1.509 . S
C951 C950 1.397 . S
C951 C952 1.425 . S
C951 C972 1.485 . S
C952 C951 1.425 . S
C952 C953 1.375 . S
C952 C978 1.491 1_455 S
C953 C948 1.397 . S
C953 C952 1.375 . S
C953 C984 1.499 1_455 S
C954 C948 1.492 . S
C954 C955 1.363 1_455 S
C954 C959 1.390 . S
C955 H920 0.930 . S
C955 C954 1.363 1_655 S
C955 C956 1.372 . S
C956 H921 0.930 . S
C956 C955 1.372 . S
C956 C957 1.383 . S
C957 C956 1.383 . S
C957 C958 1.395 1_655 S
C958 H922 0.930 . S
C958 C957 1.395 1_455 S
C958 C959 1.362 . S
C959 H923 0.930 . S
C959 C954 1.390 . S
C959 C958 1.362 . S
C960 C949 1.492 . S
C960 C961 1.377 1_455 S
C960 C965 1.397 . S
C961 H924 0.931 . S
C961 C960 1.377 1_655 S
C961 C962 1.376 1_655 S
C962 H925 0.930 1_455 S
C962 C961 1.376 1_455 S
C962 C963 1.376 . S
C963 C962 1.376 . S
C963 C964 1.378 . S
C963 C990 1.486 . S
C964 H926 0.930 . S
C964 C963 1.378 . S
C964 C965 1.376 . S
C965 H927 0.929 . S
C965 C960 1.397 . S
C965 C964 1.376 . S
C966 C950 1.509 . S
C966 C967 1.391 1_455 S
C966 C971 1.386 . S
C967 H928 0.930 . S
C967 C966 1.391 1_655 S
C967 C968 1.375 1_655 S
C968 H929 0.931 1_455 S
C968 C967 1.375 1_455 S
C968 C969 1.375 . S
C969 C968 1.375 . S
C969 C970 1.361 . S
C970 H930 0.930 . S
C970 C969 1.361 . S
C970 C971 1.399 . S
C971 H931 0.929 . S
C971 C966 1.386 . S
C971 C970 1.399 . S
C972 C951 1.485 . S
C972 C973 1.394 1_455 S
C972 C977 1.360 . S
C973 H932 0.931 . S
C973 C972 1.394 1_655 S
C973 C974 1.372 . S
C974 H933 0.930 . S
C974 C973 1.372 . S
C974 C975 1.397 1_655 S
C975 C974 1.397 1_455 S
C975 C976 1.390 . S
C975 C991 1.476 . S
C976 H934 0.930 . S
C976 C975 1.390 . S
C976 C977 1.366 . S
C977 H935 0.932 . S
C977 C972 1.360 . S
C977 C976 1.366 . S
C978 C952 1.491 1_655 S
C978 C979 1.380 . S
C978 C983 1.386 1_655 S
C979 H936 0.930 . S
C979 C978 1.380 . S
C979 C980 1.381 . S
C980 H937 0.929 . S
C980 C979 1.381 . S
C980 C981 1.371 . S
C981 C980 1.371 . S
C981 C982 1.380 1_655 S
C982 H938 0.931 . S
C982 C981 1.380 1_455 S
C982 C983 1.387 . S
C983 H939 0.930 . S
C983 C978 1.386 1_455 S
C983 C982 1.387 . S
C984 C953 1.499 1_655 S
C984 C985 1.431 . S
C984 C989 1.327 1_655 S
C985 H940 0.929 . S
C985 C984 1.431 . S
C985 C986 1.386 . S
C986 H941 0.931 . S
C986 C985 1.386 . S
C986 C987 1.363 . S
C987 C986 1.363 . S
C987 C988 1.385 1_655 S
C988 H942 0.930 . S
C988 C987 1.385 1_455 S
C988 C989 1.396 . S
C989 H943 0.929 . S
C989 C984 1.327 1_455 S
C989 C988 1.396 . S
C990 O944 1.300 . S
C990 O945 1.209 . S
C990 C963 1.486 . S
C991 O946 1.199 1_455 S
C991 O947 1.297 . S
C991 C975 1.476 . S
H992 O1018 0.856 . S
H993 O1021 0.854 . S
H994 C1029 0.930 . S
H995 C1030 0.930 . S
H996 C1032 0.930 . S
H997 C1033 0.930 . S
H998 C1035 0.931 . S
H999 C1036 0.930 . S
H1000 C1038 0.930 . S
H1001 C1039 0.929 . S
H1002 C1041 0.930 . S
H1003 C1042 0.931 . S
H1004 C1044 0.930 . S
H1005 C1045 0.929 . S
H1006 C1047 0.931 . S
H1007 C1048 0.930 . S
H1008 C1050 0.930 . S
H1009 C1051 0.932 . S
H1010 C1053 0.930 . S
H1011 C1054 0.929 . S
H1012 C1056 0.931 . S
H1013 C1057 0.930 . S
H1014 C1059 0.929 . S
H1015 C1060 0.931 . S
H1016 C1062 0.930 . S
H1017 C1063 0.929 . S
O1018 H992 0.856 . S
O1018 C1064 1.300 . S
O1019 C1064 1.209 . S
O1020 C1065 1.199 . S
O1021 H993 0.854 . S
O1021 C1065 1.297 . S
C1022 C1023 1.404 . S
C1022 C1027 1.397 . S
C1022 C1028 1.492 . S
C1023 C1022 1.404 . S
C1023 C1024 1.396 . S
C1023 C1034 1.492 . S
C1024 C1023 1.396 . S
C1024 C1025 1.397 . S
C1024 C1040 1.509 . S
C1025 C1024 1.397 . S
C1025 C1026 1.412 . S
C1025 C1046 1.485 . S
C1026 C1025 1.412 . S
C1026 C1027 1.388 . S
C1026 C1052 1.490 . S
C1027 C1022 1.397 . S
C1027 C1026 1.388 . S
C1027 C1058 1.519 . S
C1028 C1022 1.492 . S
C1028 C1029 1.363 . S
C1028 C1033 1.390 . S
C1029 H994 0.930 . S
C1029 C1028 1.363 . S
C1029 C1030 1.372 . S
C1030 H995 0.930 . S
C1030 C1029 1.372 . S
C1030 C1031 1.383 . S
C1031 C1030 1.383 . S
C1031 C1032 1.395 . S
C1032 H996 0.930 . S
C1032 C1031 1.395 . S
C1032 C1033 1.362 . S
C1033 H997 0.930 . S
C1033 C1028 1.390 . S
C1033 C1032 1.362 . S
C1034 C1023 1.492 . S
C1034 C1035 1.377 . S
C1034 C1039 1.397 . S
C1035 H998 0.931 . S
C1035 C1034 1.377 . S
C1035 C1036 1.376 . S
C1036 H999 0.930 . S
C1036 C1035 1.376 . S
C1036 C1037 1.376 . S
C1037 C1036 1.376 . S
C1037 C1038 1.378 . S
C1037 C1064 1.486 . S
C1038 H1000 0.930 . S
C1038 C1037 1.378 . S
C1038 C1039 1.376 . S
C1039 H1001 0.929 . S
C1039 C1034 1.397 . S
C1039 C1038 1.376 . S
C1040 C1024 1.509 . S
C1040 C1041 1.391 . S
C1040 C1045 1.386 . S
C1041 H1002 0.930 . S
C1041 C1040 1.391 . S
C1041 C1042 1.375 . S
C1042 H1003 0.931 . S
C1042 C1041 1.375 . S
C1042 C1043 1.375 . S
C1043 C1042 1.375 . S
C1043 C1044 1.361 . S
C1044 H1004 0.930 . S
C1044 C1043 1.361 . S
C1044 C1045 1.399 . S
C1045 H1005 0.929 . S
C1045 C1040 1.386 . S
C1045 C1044 1.399 . S
C1046 C1025 1.485 . S
C1046 C1047 1.394 . S
C1046 C1051 1.360 . S
C1047 H1006 0.931 . S
C1047 C1046 1.394 . S
C1047 C1048 1.372 . S
C1048 H1007 0.930 . S
C1048 C1047 1.372 . S
C1048 C1049 1.397 . S
C1049 C1048 1.397 . S
C1049 C1050 1.390 . S
C1049 C1065 1.476 . S
C1050 H1008 0.930 . S
C1050 C1049 1.390 . S
C1050 C1051 1.366 . S
C1051 H1009 0.932 . S
C1051 C1046 1.360 . S
C1051 C1050 1.366 . S
C1052 C1026 1.490 . S
C1052 C1053 1.380 . S
C1052 C1057 1.386 . S
C1053 H1010 0.930 . S
C1053 C1052 1.380 . S
C1053 C1054 1.381 . S
C1054 H1011 0.929 . S
C1054 C1053 1.381 . S
C1054 C1055 1.371 . S
C1055 C1054 1.371 . S
C1055 C1056 1.380 . S
C1056 H1012 0.931 . S
C1056 C1055 1.380 . S
C1056 C1057 1.387 . S
C1057 H1013 0.930 . S
C1057 C1052 1.386 . S
C1057 C1056 1.387 . S
C1058 C1027 1.519 . S
C1058 C1059 1.377 . S
C1058 C1063 1.361 . S
C1059 H1014 0.929 . S
C1059 C1058 1.377 . S
C1059 C1060 1.386 . S
C1060 H1015 0.931 . S
C1060 C1059 1.386 . S
C1060 C1061 1.363 . S
C1061 C1060 1.363 . S
C1061 C1062 1.385 . S
C1062 H1016 0.930 . S
C1062 C1061 1.385 . S
C1062 C1063 1.396 . S
C1063 H1017 0.929 . S
C1063 C1058 1.361 . S
C1063 C1062 1.396 . S
C1064 O1018 1.300 . S
C1064 O1019 1.209 . S
C1064 C1037 1.486 . S
C1065 O1020 1.199 . S
C1065 O1021 1.297 . S
C1065 C1049 1.476 . S
H1066 O1092 0.856 . S
H1067 O1095 0.854 . S
H1068 C1103 0.930 . S
H1069 C1104 0.930 . S
H1070 C1106 0.930 . S
H1071 C1107 0.930 . S
H1072 C1109 0.931 . S
H1073 C1110 0.926 1_545 S
H1074 C1112 0.930 . S
H1075 C1113 0.929 . S
H1076 C1115 0.930 . S
H1077 C1116 0.931 . S
H1078 C1118 0.930 . S
H1079 C1119 0.929 . S
H1080 C1121 0.931 . S
H1081 C1122 0.930 . S
H1082 C1124 0.930 . S
H1083 C1125 0.932 . S
H1084 C1127 0.930 . S
H1085 C1128 0.929 . S
H1086 C1130 0.931 . S
H1087 C1131 0.930 . S
H1088 C1133 0.929 . S
H1089 C1134 0.931 . S
H1090 C1136 0.930 . S
H1091 C1137 0.929 . S
O1092 H1066 0.856 . S
O1092 C1138 1.300 . S
O1093 C1138 1.209 . S
O1094 C1139 1.199 1_545 S
O1095 H1067 0.854 . S
O1095 C1139 1.297 . S
C1096 C1097 1.404 . S
C1096 C1101 1.414 . S
C1096 C1102 1.492 . S
C1097 C1096 1.404 . S
C1097 C1098 1.396 . S
C1097 C1108 1.492 . S
C1098 C1097 1.396 . S
C1098 C1099 1.397 . S
C1098 C1114 1.509 . S
C1099 C1098 1.397 . S
C1099 C1100 1.413 1_565 S
C1099 C1120 1.485 . S
C1100 C1099 1.413 1_545 S
C1100 C1101 1.359 1_545 S
C1100 C1126 1.492 . S
C1101 C1096 1.414 . S
C1101 C1100 1.359 1_565 S
C1101 C1132 1.533 1_565 S
C1102 C1096 1.492 . S
C1102 C1103 1.363 1_565 S
C1102 C1107 1.390 . S
C1103 H1068 0.930 . S
C1103 C1102 1.363 1_545 S
C1103 C1104 1.372 . S
C1104 H1069 0.930 . S
C1104 C1103 1.372 . S
C1104 C1105 1.383 . S
C1105 C1104 1.383 . S
C1105 C1106 1.395 1_545 S
C1106 H1070 0.930 . S
C1106 C1105 1.395 1_565 S
C1106 C1107 1.362 . S
C1107 H1071 0.930 . S
C1107 C1102 1.390 . S
C1107 C1106 1.362 . S
C1108 C1097 1.492 . S
C1108 C1109 1.377 1_565 S
C1108 C1113 1.397 . S
C1109 H1072 0.931 . S
C1109 C1108 1.377 1_545 S
C1109 C1110 1.373 1_545 S
C1110 H1073 0.926 1_565 S
C1110 C1109 1.373 1_565 S
C1110 C1111 1.382 . S
C1111 C1110 1.382 . S
C1111 C1112 1.378 . S
C1111 C1138 1.486 . S
C1112 H1074 0.930 . S
C1112 C1111 1.378 . S
C1112 C1113 1.376 . S
C1113 H1075 0.929 . S
C1113 C1108 1.397 . S
C1113 C1112 1.376 . S
C1114 C1098 1.509 . S
C1114 C1115 1.391 1_565 S
C1114 C1119 1.386 . S
C1115 H1076 0.930 . S
C1115 C1114 1.391 1_545 S
C1115 C1116 1.375 . S
C1116 H1077 0.931 . S
C1116 C1115 1.375 . S
C1116 C1117 1.375 1_545 S
C1117 C1116 1.375 1_565 S
C1117 C1118 1.361 . S
C1118 H1078 0.930 . S
C1118 C1117 1.361 . S
C1118 C1119 1.399 . S
C1119 H1079 0.929 . S
C1119 C1114 1.386 . S
C1119 C1118 1.399 . S
C1120 C1099 1.485 . S
C1120 C1121 1.394 1_565 S
C1120 C1125 1.360 . S
C1121 H1080 0.931 . S
C1121 C1120 1.394 1_545 S
C1121 C1122 1.372 . S
C1122 H1081 0.930 . S
C1122 C1121 1.372 . S
C1122 C1123 1.397 1_545 S
C1123 C1122 1.397 1_565 S
C1123 C1124 1.390 . S
C1123 C1139 1.476 . S
C1124 H1082 0.930 . S
C1124 C1123 1.390 . S
C1124 C1125 1.366 . S
C1125 H1083 0.932 . S
C1125 C1120 1.360 . S
C1125 C1124 1.366 . S
C1126 C1100 1.492 . S
C1126 C1127 1.380 . S
C1126 C1131 1.386 1_545 S
C1127 H1084 0.930 . S
C1127 C1126 1.380 . S
C1127 C1128 1.381 . S
C1128 H1085 0.929 . S
C1128 C1127 1.381 . S
C1128 C1129 1.371 . S
C1129 C1128 1.371 . S
C1129 C1130 1.380 1_545 S
C1130 H1086 0.931 . S
C1130 C1129 1.380 1_565 S
C1130 C1131 1.387 . S
C1131 H1087 0.930 . S
C1131 C1126 1.386 1_565 S
C1131 C1130 1.387 . S
C1132 C1101 1.533 1_545 S
C1132 C1133 1.376 . S
C1132 C1137 1.363 1_545 S
C1133 H1088 0.929 . S
C1133 C1132 1.376 . S
C1133 C1134 1.386 . S
C1134 H1089 0.931 . S
C1134 C1133 1.386 . S
C1134 C1135 1.363 1_545 S
C1135 C1134 1.363 1_565 S
C1135 C1136 1.385 . S
C1136 H1090 0.930 . S
C1136 C1135 1.385 . S
C1136 C1137 1.396 . S
C1137 H1091 0.929 . S
C1137 C1132 1.363 1_565 S
C1137 C1136 1.396 . S
C1138 O1092 1.300 . S
C1138 O1093 1.209 . S
C1138 C1111 1.486 . S
C1139 O1094 1.199 1_565 S
C1139 O1095 1.297 . S
C1139 C1123 1.476 . S
H1140 O1166 0.856 . S
H1141 O1169 0.854 . S
H1142 C1177 0.930 . S
H1143 C1178 0.930 . S
H1144 C1180 0.930 . S
H1145 C1181 0.930 . S
H1146 C1183 0.931 . S
H1147 C1184 0.930 . S
H1148 C1186 0.930 . S
H1149 C1187 0.929 . S
H1150 C1189 0.930 . S
H1151 C1190 0.931 . S
H1152 C1192 0.930 . S
H1153 C1193 0.929 . S
H1154 C1195 0.931 . S
H1155 C1196 0.930 . S
H1156 C1198 0.930 . S
H1157 C1199 0.932 . S
H1158 C1201 0.930 . S
H1159 C1202 0.929 . S
H1160 C1204 0.931 . S
H1161 C1205 0.930 . S
H1162 C1207 0.929 . S
H1163 C1208 0.931 . S
H1164 C1210 0.930 . S
H1165 C1211 0.929 . S
O1166 H1140 0.856 . S
O1166 C1212 1.300 . S
O1167 C1212 1.209 1_565 S
O1168 C1213 1.199 1_545 S
O1169 H1141 0.854 . S
O1169 C1213 1.297 . S
C1170 C1171 1.404 . S
C1170 C1175 1.396 1_545 S
C1170 C1176 1.492 . S
C1171 C1170 1.404 . S
C1171 C1172 1.427 . S
C1171 C1182 1.492 . S
C1172 C1171 1.427 . S
C1172 C1173 1.372 1_545 S
C1172 C1188 1.503 . S
C1173 C1172 1.372 1_565 S
C1173 C1174 1.395 . S
C1173 C1194 1.518 . S
C1174 C1173 1.395 . S
C1174 C1175 1.391 . S
C1174 C1200 1.490 . S
C1175 C1170 1.396 1_565 S
C1175 C1174 1.391 . S
C1175 C1206 1.518 . S
C1176 C1170 1.492 . S
C1176 C1177 1.363 . S
C1176 C1181 1.390 1_545 S
C1177 H1142 0.930 . S
C1177 C1176 1.363 . S
C1177 C1178 1.372 . S
C1178 H1143 0.930 . S
C1178 C1177 1.372 . S
C1178 C1179 1.383 . S
C1179 C1178 1.383 . S
C1179 C1180 1.395 1_545 S
C1180 H1144 0.930 . S
C1180 C1179 1.395 1_565 S
C1180 C1181 1.362 . S
C1181 H1145 0.930 . S
C1181 C1176 1.390 1_565 S
C1181 C1180 1.362 . S
C1182 C1171 1.492 . S
C1182 C1183 1.377 . S
C1182 C1187 1.397 1_545 S
C1183 H1146 0.931 . S
C1183 C1182 1.377 . S
C1183 C1184 1.376 . S
C1184 H1147 0.930 . S
C1184 C1183 1.376 . S
C1184 C1185 1.376 . S
C1185 C1184 1.376 . S
C1185 C1186 1.378 1_545 S
C1185 C1212 1.486 . S
C1186 H1148 0.930 . S
C1186 C1185 1.378 1_565 S
C1186 C1187 1.376 . S
C1187 H1149 0.929 . S
C1187 C1182 1.397 1_565 S
C1187 C1186 1.376 . S
C1188 C1172 1.503 . S
C1188 C1189 1.405 . S
C1188 C1193 1.361 1_545 S
C1189 H1150 0.930 . S
C1189 C1188 1.405 . S
C1189 C1190 1.375 . S
C1190 H1151 0.931 . S
C1190 C1189 1.375 . S
C1190 C1191 1.372 . S
C1191 C1190 1.372 . S
C1191 C1192 1.363 1_545 S
C1192 H1152 0.930 . S
C1192 C1191 1.363 1_565 S
C1192 C1193 1.399 . S
C1193 H1153 0.929 . S
C1193 C1188 1.361 1_565 S
C1193 C1192 1.399 . S
C1194 C1173 1.518 . S
C1194 C1195 1.394 1_565 S
C1194 C1199 1.360 . S
C1195 H1154 0.931 . S
C1195 C1194 1.394 1_545 S
C1195 C1196 1.372 . S
C1196 H1155 0.930 . S
C1196 C1195 1.372 . S
C1196 C1197 1.397 1_545 S
C1197 C1196 1.397 1_565 S
C1197 C1198 1.390 . S
C1197 C1213 1.476 . S
C1198 H1156 0.930 . S
C1198 C1197 1.390 . S
C1198 C1199 1.366 . S
C1199 H1157 0.932 . S
C1199 C1194 1.360 . S
C1199 C1198 1.366 . S
C1200 C1174 1.490 . S
C1200 C1201 1.380 1_565 S
C1200 C1205 1.386 . S
C1201 H1158 0.930 . S
C1201 C1200 1.380 1_545 S
C1201 C1202 1.381 . S
C1202 H1159 0.929 . S
C1202 C1201 1.381 . S
C1202 C1203 1.328 1_545 S
C1203 C1202 1.328 1_565 S
C1203 C1204 1.415 . S
C1204 H1160 0.931 . S
C1204 C1203 1.415 . S
C1204 C1205 1.387 . S
C1205 H1161 0.930 . S
C1205 C1200 1.386 . S
C1205 C1204 1.387 . S
C1206 C1175 1.518 . S
C1206 C1207 1.377 1_565 S
C1206 C1211 1.361 . S
C1207 H1162 0.929 . S
C1207 C1206 1.377 1_545 S
C1207 C1208 1.386 . S
C1208 H1163 0.931 . S
C1208 C1207 1.386 . S
C1208 C1209 1.363 1_545 S
C1209 C1208 1.363 1_565 S
C1209 C1210 1.385 . S
C1210 H1164 0.930 . S
C1210 C1209 1.385 . S
C1210 C1211 1.396 . S
C1211 H1165 0.929 . S
C1211 C1206 1.361 . S
C1211 C1210 1.396 . S
C1212 O1166 1.300 . S
C1212 O1167 1.209 1_545 S
C1212 C1185 1.486 . S
C1213 O1168 1.199 1_565 S
C1213 O1169 1.297 . S
C1213 C1197 1.476 . S
H1214 O1240 0.856 . S
H1215 O1243 0.854 . S
H1216 C1251 0.930 . S
H1217 C1252 0.930 . S
H1218 C1254 0.930 . S
H1219 C1255 0.930 . S
H1220 C1257 0.931 . S
H1221 C1258 0.930 . S
H1222 C1260 0.930 . S
H1223 C1261 0.929 . S
H1224 C1263 0.930 . S
H1225 C1264 0.931 . S
H1226 C1266 0.930 . S
H1227 C1267 0.929 . S
H1228 C1269 0.931 . S
H1229 C1270 0.930 . S
H1230 C1272 0.930 . S
H1231 C1273 0.932 . S
H1232 C1275 0.930 . S
H1233 C1276 0.929 . S
H1234 C1278 0.931 . S
H1235 C1279 0.930 . S
H1236 C1281 0.929 . S
H1237 C1282 0.931 . S
H1238 C1284 0.930 . S
H1239 C1285 0.929 . S
O1240 H1214 0.856 . S
O1240 C1286 1.300 . S
O1241 C1286 1.209 1_455 S
O1242 C1287 1.199 1_655 S
O1243 H1215 0.854 . S
O1243 C1287 1.297 . S
C1244 C1245 1.404 . S
C1244 C1249 1.398 . S
C1244 C1250 1.492 . S
C1245 C1244 1.404 . S
C1245 C1246 1.396 . S
C1245 C1256 1.492 . S
C1246 C1245 1.396 . S
C1246 C1247 1.394 . S
C1246 C1262 1.509 . S
C1247 C1246 1.394 . S
C1247 C1248 1.388 1_655 S
C1247 C1268 1.500 1_655 S
C1248 C1247 1.388 1_455 S
C1248 C1249 1.407 1_455 S
C1248 C1274 1.485 . S
C1249 C1244 1.398 . S
C1249 C1248 1.407 1_655 S
C1249 C1280 1.521 1_655 S
C1250 C1244 1.492 . S
C1250 C1251 1.363 . S
C1250 C1255 1.390 1_655 S
C1251 H1216 0.930 . S
C1251 C1250 1.363 . S
C1251 C1252 1.372 . S
C1252 H1217 0.930 . S
C1252 C1251 1.372 . S
C1252 C1253 1.383 . S
C1253 C1252 1.383 . S
C1253 C1254 1.395 1_655 S
C1254 H1218 0.930 . S
C1254 C1253 1.395 1_455 S
C1254 C1255 1.362 . S
C1255 H1219 0.930 . S
C1255 C1250 1.390 1_455 S
C1255 C1254 1.362 . S
C1256 C1245 1.492 . S
C1256 C1257 1.377 . S
C1256 C1261 1.397 1_655 S
C1257 H1220 0.931 . S
C1257 C1256 1.377 . S
C1257 C1258 1.376 . S
C1258 H1221 0.930 . S
C1258 C1257 1.376 . S
C1258 C1259 1.376 . S
C1259 C1258 1.376 . S
C1259 C1260 1.378 1_655 S
C1259 C1286 1.486 . S
C1260 H1222 0.930 . S
C1260 C1259 1.378 1_455 S
C1260 C1261 1.376 . S
C1261 H1223 0.929 . S
C1261 C1256 1.397 1_455 S
C1261 C1260 1.376 . S
C1262 C1246 1.509 . S
C1262 C1263 1.391 . S
C1262 C1267 1.386 1_655 S
C1263 H1224 0.930 . S
C1263 C1262 1.391 . S
C1263 C1264 1.375 . S
C1264 H1225 0.931 . S
C1264 C1263 1.375 . S
C1264 C1265 1.375 . S
C1265 C1264 1.375 . S
C1265 C1266 1.361 1_655 S
C1266 H1226 0.930 . S
C1266 C1265 1.361 1_455 S
C1266 C1267 1.399 . S
C1267 H1227 0.929 . S
C1267 C1262 1.386 1_455 S
C1267 C1266 1.399 . S
C1268 C1247 1.500 1_455 S
C1268 C1269 1.394 1_455 S
C1268 C1273 1.360 . S
C1269 H1228 0.931 . S
C1269 C1268 1.394 1_655 S
C1269 C1270 1.372 . S
C1270 H1229 0.930 . S
C1270 C1269 1.372 . S
C1270 C1271 1.397 1_655 S
C1271 C1270 1.397 1_455 S
C1271 C1272 1.390 . S
C1271 C1287 1.476 . S
C1272 H1230 0.930 . S
C1272 C1271 1.390 . S
C1272 C1273 1.366 . S
C1273 H1231 0.932 . S
C1273 C1268 1.360 . S
C1273 C1272 1.366 . S
C1274 C1248 1.485 . S
C1274 C1275 1.380 1_455 S
C1274 C1279 1.386 . S
C1275 H1232 0.930 . S
C1275 C1274 1.380 1_655 S
C1275 C1276 1.381 . S
C1276 H1233 0.929 . S
C1276 C1275 1.381 . S
C1276 C1277 1.371 1_655 S
C1277 C1276 1.371 1_455 S
C1277 C1278 1.380 . S
C1278 H1234 0.931 . S
C1278 C1277 1.380 . S
C1278 C1279 1.387 . S
C1279 H1235 0.930 . S
C1279 C1274 1.386 . S
C1279 C1278 1.387 . S
C1280 C1249 1.521 1_455 S
C1280 C1281 1.377 1_455 S
C1280 C1285 1.361 . S
C1281 H1236 0.929 . S
C1281 C1280 1.377 1_655 S
C1281 C1282 1.386 . S
C1282 H1237 0.931 . S
C1282 C1281 1.386 . S
C1282 C1283 1.363 1_655 S
C1283 C1282 1.363 1_455 S
C1283 C1284 1.385 . S
C1284 H1238 0.930 . S
C1284 C1283 1.385 . S
C1284 C1285 1.396 . S
C1285 H1239 0.929 . S
C1285 C1280 1.361 . S
C1285 C1284 1.396 . S
C1286 O1240 1.300 . S
C1286 O1241 1.209 1_655 S
C1286 C1259 1.486 . S
C1287 O1242 1.199 1_455 S
C1287 O1243 1.297 . S
C1287 C1271 1.476 . S
H1288 O1314 0.856 . S
H1289 O1317 0.854 . S
H1290 C1325 0.930 . S
H1291 C1326 0.930 . S
H1292 C1328 0.930 . S
H1293 C1329 0.930 . S
H1294 C1331 0.931 . S
H1295 C1332 0.930 . S
H1296 C1334 0.930 . S
H1297 C1335 0.929 . S
H1298 C1337 0.930 . S
H1299 C1338 0.931 . S
H1300 C1340 0.930 . S
H1301 C1341 0.929 . S
H1302 C1343 0.931 . S
H1303 C1344 0.930 . S
H1304 C1346 0.930 . S
H1305 C1347 0.932 . S
H1306 C1349 0.930 . S
H1307 C1350 0.929 . S
H1308 C1352 0.931 . S
H1309 C1353 0.930 . S
H1310 C1355 0.929 . S
H1311 C1356 0.931 . S
H1312 C1358 0.930 . S
H1313 C1359 0.929 . S
O1314 H1288 0.856 . S
O1314 C1360 1.300 . S
O1315 C1360 1.209 . S
O1316 C1361 1.199 . S
O1317 H1289 0.854 . S
O1317 C1361 1.297 . S
C1318 C1319 1.404 . S
C1318 C1323 1.397 . S
C1318 C1324 1.492 . S
C1319 C1318 1.404 . S
C1319 C1320 1.396 . S
C1319 C1330 1.492 . S
C1320 C1319 1.396 . S
C1320 C1321 1.397 . S
C1320 C1336 1.509 . S
C1321 C1320 1.397 . S
C1321 C1322 1.412 . S
C1321 C1342 1.485 . S
C1322 C1321 1.412 . S
C1322 C1323 1.388 . S
C1322 C1348 1.490 . S
C1323 C1318 1.397 . S
C1323 C1322 1.388 . S
C1323 C1354 1.519 . S
C1324 C1318 1.492 . S
C1324 C1325 1.363 . S
C1324 C1329 1.390 . S
C1325 H1290 0.930 . S
C1325 C1324 1.363 . S
C1325 C1326 1.372 . S
C1326 H1291 0.930 . S
C1326 C1325 1.372 . S
C1326 C1327 1.383 . S
C1327 C1326 1.383 . S
C1327 C1328 1.395 . S
C1328 H1292 0.930 . S
C1328 C1327 1.395 . S
C1328 C1329 1.362 . S
C1329 H1293 0.930 . S
C1329 C1324 1.390 . S
C1329 C1328 1.362 . S
C1330 C1319 1.492 . S
C1330 C1331 1.377 . S
C1330 C1335 1.397 . S
C1331 H1294 0.931 . S
C1331 C1330 1.377 . S
C1331 C1332 1.376 . S
C1332 H1295 0.930 . S
C1332 C1331 1.376 . S
C1332 C1333 1.376 . S
C1333 C1332 1.376 . S
C1333 C1334 1.378 . S
C1333 C1360 1.486 . S
C1334 H1296 0.930 . S
C1334 C1333 1.378 . S
C1334 C1335 1.376 . S
C1335 H1297 0.929 . S
C1335 C1330 1.397 . S
C1335 C1334 1.376 . S
C1336 C1320 1.509 . S
C1336 C1337 1.391 . S
C1336 C1341 1.386 . S
C1337 H1298 0.930 . S
C1337 C1336 1.391 . S
C1337 C1338 1.375 . S
C1338 H1299 0.931 . S
C1338 C1337 1.375 . S
C1338 C1339 1.375 . S
C1339 C1338 1.375 . S
C1339 C1340 1.361 . S
C1340 H1300 0.930 . S
C1340 C1339 1.361 . S
C1340 C1341 1.399 . S
C1341 H1301 0.929 . S
C1341 C1336 1.386 . S
C1341 C1340 1.399 . S
C1342 C1321 1.485 . S
C1342 C1343 1.394 . S
C1342 C1347 1.360 . S
C1343 H1302 0.931 . S
C1343 C1342 1.394 . S
C1343 C1344 1.372 . S
C1344 H1303 0.930 . S
C1344 C1343 1.372 . S
C1344 C1345 1.397 . S
C1345 C1344 1.397 . S
C1345 C1346 1.390 . S
C1345 C1361 1.476 . S
C1346 H1304 0.930 . S
C1346 C1345 1.390 . S
C1346 C1347 1.366 . S
C1347 H1305 0.932 . S
C1347 C1342 1.360 . S
C1347 C1346 1.366 . S
C1348 C1322 1.490 . S
C1348 C1349 1.380 . S
C1348 C1353 1.386 . S
C1349 H1306 0.930 . S
C1349 C1348 1.380 . S
C1349 C1350 1.381 . S
C1350 H1307 0.929 . S
C1350 C1349 1.381 . S
C1350 C1351 1.371 . S
C1351 C1350 1.371 . S
C1351 C1352 1.380 . S
C1352 H1308 0.931 . S
C1352 C1351 1.380 . S
C1352 C1353 1.387 . S
C1353 H1309 0.930 . S
C1353 C1348 1.386 . S
C1353 C1352 1.387 . S
C1354 C1323 1.519 . S
C1354 C1355 1.377 . S
C1354 C1359 1.361 . S
C1355 H1310 0.929 . S
C1355 C1354 1.377 . S
C1355 C1356 1.386 . S
C1356 H1311 0.931 . S
C1356 C1355 1.386 . S
C1356 C1357 1.363 . S
C1357 C1356 1.363 . S
C1357 C1358 1.385 . S
C1358 H1312 0.930 . S
C1358 C1357 1.385 . S
C1358 C1359 1.396 . S
C1359 H1313 0.929 . S
C1359 C1354 1.361 . S
C1359 C1358 1.396 . S
C1360 O1314 1.300 . S
C1360 O1315 1.209 . S
C1360 C1333 1.486 . S
C1361 O1316 1.199 . S
C1361 O1317 1.297 . S
C1361 C1345 1.476 . S
H1362 O1388 0.856 . S
H1363 O1391 0.854 . S
H1364 C1399 0.930 . S
H1365 C1400 0.930 . S
H1366 C1402 0.930 . S
H1367 C1403 0.930 . S
H1368 C1405 0.931 . S
H1369 C1406 0.930 . S
H1370 C1408 0.930 . S
H1371 C1409 0.929 . S
H1372 C1411 0.930 . S
H1373 C1412 0.931 . S
H1374 C1414 0.930 . S
H1375 C1415 0.929 . S
H1376 C1417 0.931 . S
H1377 C1418 0.930 . S
H1378 C1420 0.930 . S
H1379 C1421 0.932 . S
H1380 C1423 0.930 . S
H1381 C1424 0.929 . S
H1382 C1426 0.931 . S
H1383 C1427 0.930 . S
H1384 C1429 0.929 . S
H1385 C1430 0.931 . S
H1386 C1432 0.930 . S
H1387 C1433 0.929 . S
O1388 H1362 0.856 . S
O1388 C1434 1.300 . S
O1389 C1434 1.209 . S
O1390 C1435 1.199 . S
O1391 H1363 0.854 . S
O1391 C1435 1.297 . S
C1392 C1393 1.404 . S
C1392 C1397 1.397 . S
C1392 C1398 1.492 . S
C1393 C1392 1.404 . S
C1393 C1394 1.396 . S
C1393 C1404 1.492 . S
C1394 C1393 1.396 . S
C1394 C1395 1.397 . S
C1394 C1410 1.509 . S
C1395 C1394 1.397 . S
C1395 C1396 1.412 . S
C1395 C1416 1.485 . S
C1396 C1395 1.412 . S
C1396 C1397 1.388 . S
C1396 C1422 1.490 . S
C1397 C1392 1.397 . S
C1397 C1396 1.388 . S
C1397 C1428 1.519 . S
C1398 C1392 1.492 . S
C1398 C1399 1.363 . S
C1398 C1403 1.390 . S
C1399 H1364 0.930 . S
C1399 C1398 1.363 . S
C1399 C1400 1.372 . S
C1400 H1365 0.930 . S
C1400 C1399 1.372 . S
C1400 C1401 1.383 . S
C1401 C1400 1.383 . S
C1401 C1402 1.395 . S
C1402 H1366 0.930 . S
C1402 C1401 1.395 . S
C1402 C1403 1.362 . S
C1403 H1367 0.930 . S
C1403 C1398 1.390 . S
C1403 C1402 1.362 . S
C1404 C1393 1.492 . S
C1404 C1405 1.377 . S
C1404 C1409 1.397 . S
C1405 H1368 0.931 . S
C1405 C1404 1.377 . S
C1405 C1406 1.376 . S
C1406 H1369 0.930 . S
C1406 C1405 1.376 . S
C1406 C1407 1.376 . S
C1407 C1406 1.376 . S
C1407 C1408 1.378 . S
C1407 C1434 1.486 . S
C1408 H1370 0.930 . S
C1408 C1407 1.378 . S
C1408 C1409 1.376 . S
C1409 H1371 0.929 . S
C1409 C1404 1.397 . S
C1409 C1408 1.376 . S
C1410 C1394 1.509 . S
C1410 C1411 1.391 . S
C1410 C1415 1.386 . S
C1411 H1372 0.930 . S
C1411 C1410 1.391 . S
C1411 C1412 1.375 . S
C1412 H1373 0.931 . S
C1412 C1411 1.375 . S
C1412 C1413 1.375 . S
C1413 C1412 1.375 . S
C1413 C1414 1.361 . S
C1414 H1374 0.930 . S
C1414 C1413 1.361 . S
C1414 C1415 1.399 . S
C1415 H1375 0.929 . S
C1415 C1410 1.386 . S
C1415 C1414 1.399 . S
C1416 C1395 1.485 . S
C1416 C1417 1.394 . S
C1416 C1421 1.360 . S
C1417 H1376 0.931 . S
C1417 C1416 1.394 . S
C1417 C1418 1.372 . S
C1418 H1377 0.930 . S
C1418 C1417 1.372 . S
C1418 C1419 1.397 . S
C1419 C1418 1.397 . S
C1419 C1420 1.390 . S
C1419 C1435 1.476 . S
C1420 H1378 0.930 . S
C1420 C1419 1.390 . S
C1420 C1421 1.366 . S
C1421 H1379 0.932 . S
C1421 C1416 1.360 . S
C1421 C1420 1.366 . S
C1422 C1396 1.490 . S
C1422 C1423 1.380 . S
C1422 C1427 1.386 . S
C1423 H1380 0.930 . S
C1423 C1422 1.380 . S
C1423 C1424 1.381 . S
C1424 H1381 0.929 . S
C1424 C1423 1.381 . S
C1424 C1425 1.371 . S
C1425 C1424 1.371 . S
C1425 C1426 1.380 . S
C1426 H1382 0.931 . S
C1426 C1425 1.380 . S
C1426 C1427 1.387 . S
C1427 H1383 0.930 . S
C1427 C1422 1.386 . S
C1427 C1426 1.387 . S
C1428 C1397 1.519 . S
C1428 C1429 1.377 . S
C1428 C1433 1.361 . S
C1429 H1384 0.929 . S
C1429 C1428 1.377 . S
C1429 C1430 1.386 . S
C1430 H1385 0.931 . S
C1430 C1429 1.386 . S
C1430 C1431 1.363 . S
C1431 C1430 1.363 . S
C1431 C1432 1.385 . S
C1432 H1386 0.930 . S
C1432 C1431 1.385 . S
C1432 C1433 1.396 . S
C1433 H1387 0.929 . S
C1433 C1428 1.361 . S
C1433 C1432 1.396 . S
C1434 O1388 1.300 . S
C1434 O1389 1.209 . S
C1434 C1407 1.486 . S
C1435 O1390 1.199 . S
C1435 O1391 1.297 . S
C1435 C1419 1.476 . S
H1436 O1462 0.856 . S
H1437 O1465 0.854 . S
H1438 C1473 0.930 . S
H1439 C1474 0.930 . S
H1440 C1476 0.930 . S
H1441 C1477 0.930 . S
H1442 C1479 0.931 . S
H1443 C1480 0.930 . S
H1444 C1482 0.930 . S
H1445 C1483 0.929 . S
H1446 C1485 0.930 . S
H1447 C1486 0.931 . S
H1448 C1488 0.930 . S
H1449 C1489 0.929 . S
H1450 C1491 0.931 . S
H1451 C1492 0.930 . S
H1452 C1494 0.930 . S
H1453 C1495 0.932 . S
H1454 C1497 0.930 . S
H1455 C1498 0.929 . S
H1456 C1500 0.931 . S
H1457 C1501 0.930 . S
H1458 C1503 0.929 . S
H1459 C1504 0.931 . S
H1460 C1506 0.930 . S
H1461 C1507 0.929 . S
O1462 H1436 0.856 . S
O1462 C1508 1.300 . S
O1463 C1508 1.209 . S
O1464 C1509 1.199 . S
O1465 H1437 0.854 . S
O1465 C1509 1.297 . S
C1466 C1467 1.404 . S
C1466 C1471 1.397 . S
C1466 C1472 1.492 . S
C1467 C1466 1.404 . S
C1467 C1468 1.396 . S
C1467 C1478 1.492 . S
C1468 C1467 1.396 . S
C1468 C1469 1.397 . S
C1468 C1484 1.509 . S
C1469 C1468 1.397 . S
C1469 C1470 1.412 . S
C1469 C1490 1.485 . S
C1470 C1469 1.412 . S
C1470 C1471 1.388 . S
C1470 C1496 1.490 . S
C1471 C1466 1.397 . S
C1471 C1470 1.388 . S
C1471 C1502 1.519 . S
C1472 C1466 1.492 . S
C1472 C1473 1.363 . S
C1472 C1477 1.390 . S
C1473 H1438 0.930 . S
C1473 C1472 1.363 . S
C1473 C1474 1.372 . S
C1474 H1439 0.930 . S
C1474 C1473 1.372 . S
C1474 C1475 1.383 . S
C1475 C1474 1.383 . S
C1475 C1476 1.395 . S
C1476 H1440 0.930 . S
C1476 C1475 1.395 . S
C1476 C1477 1.362 . S
C1477 H1441 0.930 . S
C1477 C1472 1.390 . S
C1477 C1476 1.362 . S
C1478 C1467 1.492 . S
C1478 C1479 1.377 . S
C1478 C1483 1.397 . S
C1479 H1442 0.931 . S
C1479 C1478 1.377 . S
C1479 C1480 1.376 . S
C1480 H1443 0.930 . S
C1480 C1479 1.376 . S
C1480 C1481 1.376 . S
C1481 C1480 1.376 . S
C1481 C1482 1.378 . S
C1481 C1508 1.486 . S
C1482 H1444 0.930 . S
C1482 C1481 1.378 . S
C1482 C1483 1.376 . S
C1483 H1445 0.929 . S
C1483 C1478 1.397 . S
C1483 C1482 1.376 . S
C1484 C1468 1.509 . S
C1484 C1485 1.391 . S
C1484 C1489 1.386 . S
C1485 H1446 0.930 . S
C1485 C1484 1.391 . S
C1485 C1486 1.375 . S
C1486 H1447 0.931 . S
C1486 C1485 1.375 . S
C1486 C1487 1.375 . S
C1487 C1486 1.375 . S
C1487 C1488 1.361 . S
C1488 H1448 0.930 . S
C1488 C1487 1.361 . S
C1488 C1489 1.399 . S
C1489 H1449 0.929 . S
C1489 C1484 1.386 . S
C1489 C1488 1.399 . S
C1490 C1469 1.485 . S
C1490 C1491 1.394 . S
C1490 C1495 1.360 . S
C1491 H1450 0.931 . S
C1491 C1490 1.394 . S
C1491 C1492 1.372 . S
C1492 H1451 0.930 . S
C1492 C1491 1.372 . S
C1492 C1493 1.397 . S
C1493 C1492 1.397 . S
C1493 C1494 1.390 . S
C1493 C1509 1.476 . S
C1494 H1452 0.930 . S
C1494 C1493 1.390 . S
C1494 C1495 1.366 . S
C1495 H1453 0.932 . S
C1495 C1490 1.360 . S
C1495 C1494 1.366 . S
C1496 C1470 1.490 . S
C1496 C1497 1.380 . S
C1496 C1501 1.386 . S
C1497 H1454 0.930 . S
C1497 C1496 1.380 . S
C1497 C1498 1.381 . S
C1498 H1455 0.929 . S
C1498 C1497 1.381 . S
C1498 C1499 1.371 . S
C1499 C1498 1.371 . S
C1499 C1500 1.380 . S
C1500 H1456 0.931 . S
C1500 C1499 1.380 . S
C1500 C1501 1.387 . S
C1501 H1457 0.930 . S
C1501 C1496 1.386 . S
C1501 C1500 1.387 . S
C1502 C1471 1.519 . S
C1502 C1503 1.377 . S
C1502 C1507 1.361 . S
C1503 H1458 0.929 . S
C1503 C1502 1.377 . S
C1503 C1504 1.386 . S
C1504 H1459 0.931 . S
C1504 C1503 1.386 . S
C1504 C1505 1.363 . S
C1505 C1504 1.363 . S
C1505 C1506 1.385 . S
C1506 H1460 0.930 . S
C1506 C1505 1.385 . S
C1506 C1507 1.396 . S
C1507 H1461 0.929 . S
C1507 C1502 1.361 . S
C1507 C1506 1.396 . S
C1508 O1462 1.300 . S
C1508 O1463 1.209 . S
C1508 C1481 1.486 . S
C1509 O1464 1.199 . S
C1509 O1465 1.297 . S
C1509 C1493 1.476 . S
H1510 O1536 0.856 . S
H1511 O1539 0.854 . S
H1512 C1547 0.930 . S
H1513 C1548 0.930 . S
H1514 C1550 0.930 . S
H1515 C1551 0.930 . S
H1516 C1553 0.931 . S
H1517 C1554 0.930 . S
H1518 C1556 0.930 . S
H1519 C1557 0.929 . S
H1520 C1559 0.930 . S
H1521 C1560 0.931 . S
H1522 C1562 0.930 . S
H1523 C1563 0.929 . S
H1524 C1565 0.931 . S
H1525 C1566 0.930 . S
H1526 C1568 0.930 . S
H1527 C1569 0.932 . S
H1528 C1571 0.930 . S
H1529 C1572 0.929 . S
H1530 C1574 0.931 . S
H1531 C1575 0.930 . S
H1532 C1577 0.929 . S
H1533 C1578 0.931 . S
H1534 C1580 0.930 . S
H1535 C1581 0.929 . S
O1536 H1510 0.856 . S
O1536 C1582 1.300 . S
O1537 C1582 1.209 . S
O1538 C1583 1.199 . S
O1539 H1511 0.854 . S
O1539 C1583 1.297 . S
C1540 C1541 1.404 . S
C1540 C1545 1.397 . S
C1540 C1546 1.492 . S
C1541 C1540 1.404 . S
C1541 C1542 1.396 . S
C1541 C1552 1.492 . S
C1542 C1541 1.396 . S
C1542 C1543 1.397 . S
C1542 C1558 1.509 . S
C1543 C1542 1.397 . S
C1543 C1544 1.412 . S
C1543 C1564 1.485 . S
C1544 C1543 1.412 . S
C1544 C1545 1.388 . S
C1544 C1570 1.490 . S
C1545 C1540 1.397 . S
C1545 C1544 1.388 . S
C1545 C1576 1.519 . S
C1546 C1540 1.492 . S
C1546 C1547 1.363 . S
C1546 C1551 1.390 . S
C1547 H1512 0.930 . S
C1547 C1546 1.363 . S
C1547 C1548 1.372 . S
C1548 H1513 0.930 . S
C1548 C1547 1.372 . S
C1548 C1549 1.383 . S
C1549 C1548 1.383 . S
C1549 C1550 1.395 . S
C1550 H1514 0.930 . S
C1550 C1549 1.395 . S
C1550 C1551 1.362 . S
C1551 H1515 0.930 . S
C1551 C1546 1.390 . S
C1551 C1550 1.362 . S
C1552 C1541 1.492 . S
C1552 C1553 1.377 . S
C1552 C1557 1.397 . S
C1553 H1516 0.931 . S
C1553 C1552 1.377 . S
C1553 C1554 1.376 . S
C1554 H1517 0.930 . S
C1554 C1553 1.376 . S
C1554 C1555 1.376 . S
C1555 C1554 1.376 . S
C1555 C1556 1.378 . S
C1555 C1582 1.486 . S
C1556 H1518 0.930 . S
C1556 C1555 1.378 . S
C1556 C1557 1.376 . S
C1557 H1519 0.929 . S
C1557 C1552 1.397 . S
C1557 C1556 1.376 . S
C1558 C1542 1.509 . S
C1558 C1559 1.391 . S
C1558 C1563 1.386 . S
C1559 H1520 0.930 . S
C1559 C1558 1.391 . S
C1559 C1560 1.375 . S
C1560 H1521 0.931 . S
C1560 C1559 1.375 . S
C1560 C1561 1.375 . S
C1561 C1560 1.375 . S
C1561 C1562 1.361 . S
C1562 H1522 0.930 . S
C1562 C1561 1.361 . S
C1562 C1563 1.399 . S
C1563 H1523 0.929 . S
C1563 C1558 1.386 . S
C1563 C1562 1.399 . S
C1564 C1543 1.485 . S
C1564 C1565 1.394 . S
C1564 C1569 1.360 . S
C1565 H1524 0.931 . S
C1565 C1564 1.394 . S
C1565 C1566 1.372 . S
C1566 H1525 0.930 . S
C1566 C1565 1.372 . S
C1566 C1567 1.397 . S
C1567 C1566 1.397 . S
C1567 C1568 1.390 . S
C1567 C1583 1.476 . S
C1568 H1526 0.930 . S
C1568 C1567 1.390 . S
C1568 C1569 1.366 . S
C1569 H1527 0.932 . S
C1569 C1564 1.360 . S
C1569 C1568 1.366 . S
C1570 C1544 1.490 . S
C1570 C1571 1.380 . S
C1570 C1575 1.386 . S
C1571 H1528 0.930 . S
C1571 C1570 1.380 . S
C1571 C1572 1.381 . S
C1572 H1529 0.929 . S
C1572 C1571 1.381 . S
C1572 C1573 1.371 . S
C1573 C1572 1.371 . S
C1573 C1574 1.380 . S
C1574 H1530 0.931 . S
C1574 C1573 1.380 . S
C1574 C1575 1.387 . S
C1575 H1531 0.930 . S
C1575 C1570 1.386 . S
C1575 C1574 1.387 . S
C1576 C1545 1.519 . S
C1576 C1577 1.377 . S
C1576 C1581 1.361 . S
C1577 H1532 0.929 . S
C1577 C1576 1.377 . S
C1577 C1578 1.386 . S
C1578 H1533 0.931 . S
C1578 C1577 1.386 . S
C1578 C1579 1.363 . S
C1579 C1578 1.363 . S
C1579 C1580 1.385 . S
C1580 H1534 0.930 . S
C1580 C1579 1.385 . S
C1580 C1581 1.396 . S
C1581 H1535 0.929 . S
C1581 C1576 1.361 . S
C1581 C1580 1.396 . S
C1582 O1536 1.300 . S
C1582 O1537 1.209 . S
C1582 C1555 1.486 . S
C1583 O1538 1.199 . S
C1583 O1539 1.297 . S
C1583 C1567 1.476 . S
C1584 C1585 1.363 1_455 S
C1584 C1590 1.379 1_455 S
C1584 N1592 1.356 . S
C1585 C1584 1.363 1_655 S
C1585 C1591 1.363 . S
C1586 C1587 1.363 . S
C1586 C1591 1.379 . S
C1586 N1593 1.356 . S
C1587 C1586 1.363 . S
C1587 C1590 1.363 . S
N1588 C1590 1.356 1_455 S
N1588 H1600 0.984 . S
N1588 H1601 0.954 1_455 S
N1589 C1591 1.356 . S
N1589 H1594 0.984 . S
N1589 H1595 0.985 . S
C1590 C1584 1.379 1_655 S
C1590 C1587 1.363 . S
C1590 N1588 1.356 1_655 S
C1591 C1585 1.363 . S
C1591 C1586 1.379 . S
C1591 N1589 1.356 . S
N1592 C1584 1.356 . S
N1592 H1598 0.984 . S
N1592 H1599 0.984 . S
N1593 C1586 1.356 . S
N1593 H1596 0.984 . S
N1593 H1597 0.985 . S
H1594 N1589 0.984 . S
H1595 N1589 0.985 . S
H1596 N1593 0.984 . S
H1597 N1593 0.985 . S
H1598 N1592 0.984 . S
H1599 N1592 0.984 . S
H1600 N1588 0.984 . S
H1601 N1588 0.954 1_655 S
C1602 C1603 1.363 . S
C1602 C1608 1.379 . S
C1602 N1610 1.356 . S
C1603 C1602 1.363 . S
C1603 C1609 1.363 . S
C1604 C1605 1.363 . S
C1604 C1609 1.379 . S
C1604 N1611 1.356 . S
C1605 C1604 1.363 . S
C1605 C1608 1.363 . S
N1606 C1608 1.356 . S
N1606 H1618 0.984 . S
N1606 H1619 0.985 . S
N1607 C1609 1.356 . S
N1607 H1612 0.984 . S
N1607 H1613 0.985 . S
C1608 C1602 1.379 . S
C1608 C1605 1.363 . S
C1608 N1606 1.356 . S
C1609 C1603 1.363 . S
C1609 C1604 1.379 . S
C1609 N1607 1.356 . S
N1610 C1602 1.356 . S
N1610 H1616 0.984 . S
N1610 H1617 0.984 . S
N1611 C1604 1.356 . S
N1611 H1614 0.984 . S
N1611 H1615 0.985 . S
H1612 N1607 0.984 . S
H1613 N1607 0.985 . S
H1614 N1611 0.984 . S
H1615 N1611 0.985 . S
H1616 N1610 0.984 . S
H1617 N1610 0.984 . S
H1618 N1606 0.984 . S
H1619 N1606 0.985 . S
C1620 C1621 1.363 . S
C1620 C1626 1.379 . S
C1620 N1628 1.356 1_545 S
C1621 C1620 1.363 . S
C1621 C1627 1.363 . S
C1622 C1623 1.363 . S
C1622 C1627 1.379 . S
C1622 N1629 1.356 . S
C1623 C1622 1.363 . S
C1623 C1626 1.363 . S
N1624 C1626 1.356 1_565 S
N1624 H1636 0.984 . S
N1624 H1637 0.985 . S
N1625 C1627 1.356 . S
N1625 H1630 0.984 . S
N1625 H1631 0.985 . S
C1626 C1620 1.379 . S
C1626 C1623 1.363 . S
C1626 N1624 1.356 1_545 S
C1627 C1621 1.363 . S
C1627 C1622 1.379 . S
C1627 N1625 1.356 . S
N1628 C1620 1.356 1_565 S
N1628 H1634 0.984 . S
N1628 H1635 0.984 . S
N1629 C1622 1.356 . S
N1629 H1632 0.984 . S
N1629 H1633 0.985 . S
H1630 N1625 0.984 . S
H1631 N1625 0.985 . S
H1632 N1629 0.984 . S
H1633 N1629 0.985 . S
H1634 N1628 0.984 . S
H1635 N1628 0.984 . S
H1636 N1624 0.984 . S
H1637 N1624 0.985 . S
C1638 C1639 1.363 . S
C1638 C1644 1.379 . S
C1638 N1646 1.356 . S
C1639 C1638 1.363 . S
C1639 C1645 1.363 1_565 S
C1640 C1641 1.329 1_545 S
C1640 C1645 1.389 . S
C1640 N1647 1.373 . S
C1641 C1640 1.329 1_565 S
C1641 C1644 1.363 . S
N1642 C1644 1.356 . S
N1642 H1654 0.984 . S
N1642 H1655 0.985 . S
N1643 C1645 1.356 . S
N1643 H1648 0.984 . S
N1643 H1649 0.985 . S
C1644 C1638 1.379 . S
C1644 C1641 1.363 . S
C1644 N1642 1.356 . S
C1645 C1639 1.363 1_545 S
C1645 C1640 1.389 . S
C1645 N1643 1.356 . S
N1646 C1638 1.356 . S
N1646 H1652 0.984 . S
N1646 H1653 0.984 . S
N1647 C1640 1.373 . S
N1647 H1650 0.984 . S
N1647 H1651 0.985 . S
H1648 N1643 0.984 . S
H1649 N1643 0.985 . S
H1650 N1647 0.984 . S
H1651 N1647 0.985 . S
H1652 N1646 0.984 . S
H1653 N1646 0.984 . S
H1654 N1642 0.984 . S
H1655 N1642 0.985 . S
C1656 C1657 1.363 . S
C1656 C1662 1.379 . S
C1656 N1664 1.356 1_556 S
C1657 C1656 1.363 . S
C1657 C1663 1.363 . S
C1658 C1659 1.363 . S
C1658 C1663 1.379 . S
C1658 N1665 1.356 . S
C1659 C1658 1.363 . S
C1659 C1662 1.363 . S
N1660 C1662 1.356 . S
N1660 H1672 0.984 . S
N1660 H1673 0.985 . S
N1661 C1663 1.356 . S
N1661 H1666 0.984 . S
N1661 H1667 0.985 . S
C1662 C1656 1.379 . S
C1662 C1659 1.363 . S
C1662 N1660 1.356 . S
C1663 C1657 1.363 . S
C1663 C1658 1.379 . S
C1663 N1661 1.356 . S
N1664 C1656 1.356 1_554 S
N1664 H1670 0.984 . S
N1664 H1671 0.984 . S
N1665 C1658 1.356 . S
N1665 H1668 0.984 . S
N1665 H1669 0.985 . S
H1666 N1661 0.984 . S
H1667 N1661 0.985 . S
H1668 N1665 0.984 . S
H1669 N1665 0.985 . S
H1670 N1664 0.984 . S
H1671 N1664 0.984 . S
H1672 N1660 0.984 . S
H1673 N1660 0.985 . S
C1674 C1675 1.363 1_556 S
C1674 C1680 1.379 . S
C1674 N1682 1.356 . S
C1675 C1674 1.363 1_554 S
C1675 C1681 1.363 . S
C1676 C1677 1.363 . S
C1676 C1681 1.379 1_556 S
C1676 N1683 1.356 . S
C1677 C1676 1.363 . S
C1677 C1680 1.363 . S
N1678 C1680 1.356 . S
N1678 H1690 0.984 . S
N1678 H1691 0.985 . S
N1679 C1681 1.356 . S
N1679 H1684 0.984 . S
N1679 H1685 0.985 . S
C1680 C1674 1.379 . S
C1680 C1677 1.363 . S
C1680 N1678 1.356 . S
C1681 C1675 1.363 . S
C1681 C1676 1.379 1_554 S
C1681 N1679 1.356 . S
N1682 C1674 1.356 . S
N1682 H1688 0.984 . S
N1682 H1689 0.984 1_556 S
N1683 C1676 1.356 . S
N1683 H1686 0.984 . S
N1683 H1687 0.985 1_556 S
H1684 N1679 0.984 . S
H1685 N1679 0.985 . S
H1686 N1683 0.984 . S
H1687 N1683 0.985 1_554 S
H1688 N1682 0.984 . S
H1689 N1682 0.984 1_554 S
H1690 N1678 0.984 . S
H1691 N1678 0.985 . S
C1692 C1693 1.363 1_554 S
C1692 C1698 1.379 1_554 S
C1692 N1700 1.356 . S
C1693 C1692 1.363 1_556 S
C1693 C1699 1.363 1_455 S
C1694 C1695 1.363 1_655 S
C1694 C1699 1.379 . S
C1694 N1701 1.356 . S
C1695 C1694 1.363 1_455 S
C1695 C1698 1.363 . S
N1696 C1698 1.356 . S
N1696 H1708 0.984 1_556 S
N1696 H1709 0.985 . S
N1697 C1699 1.356 . S
N1697 H1702 0.984 . S
N1697 H1703 0.985 . S
C1698 C1692 1.379 1_556 S
C1698 C1695 1.363 . S
C1698 N1696 1.356 . S
C1699 C1693 1.363 1_655 S
C1699 C1694 1.379 . S
C1699 N1697 1.356 . S
N1700 C1692 1.356 . S
N1700 H1706 0.984 . S
N1700 H1707 0.984 . S
N1701 C1694 1.356 . S
N1701 H1704 0.984 . S
N1701 H1705 0.985 . S
H1702 N1697 0.984 . S
H1703 N1697 0.985 . S
H1704 N1701 0.984 . S
H1705 N1701 0.985 . S
H1706 N1700 0.984 . S
H1707 N1700 0.984 . S
H1708 N1696 0.984 1_554 S
H1709 N1696 0.985 . S
C1710 C1711 1.363 . S
C1710 C1716 1.379 . S
C1710 N1718 1.356 . S
C1711 C1710 1.363 . S
C1711 C1717 1.363 . S
C1712 C1713 1.363 . S
C1712 C1717 1.379 . S
C1712 N1719 1.356 . S
C1713 C1712 1.363 . S
C1713 C1716 1.363 . S
N1714 C1716 1.356 . S
N1714 H1726 0.984 . S
N1714 H1727 0.985 . S
N1715 C1717 1.356 . S
N1715 H1720 0.984 . S
N1715 H1721 0.985 . S
C1716 C1710 1.379 . S
C1716 C1713 1.363 . S
C1716 N1714 1.356 . S
C1717 C1711 1.363 . S
C1717 C1712 1.379 . S
C1717 N1715 1.356 . S
N1718 C1710 1.356 . S
N1718 H1724 0.984 . S
N1718 H1725 0.984 . S
N1719 C1712 1.356 . S
N1719 H1722 0.984 . S
N1719 H1723 0.985 . S
H1720 N1715 0.984 . S
H1721 N1715 0.985 . S
H1722 N1719 0.984 . S
H1723 N1719 0.985 . S
H1724 N1718 0.984 . S
H1725 N1718 0.984 . S
H1726 N1714 0.984 . S
H1727 N1714 0.985 . S
C1728 C1729 1.362 1_544 S
C1728 C1734 1.374 1_554 S
C1728 N1736 1.363 . S
C1729 C1728 1.362 1_566 S
C1729 C1735 1.363 . S
C1730 C1731 1.363 . S
C1730 C1735 1.379 . S
C1730 N1737 1.356 . S
C1731 C1730 1.363 . S
C1731 C1734 1.363 1_565 S
N1732 C1734 1.356 . S
N1732 H1744 0.984 . S
N1732 H1745 0.985 . S
N1733 C1735 1.356 . S
N1733 H1738 0.984 . S
N1733 H1739 0.985 . S
C1734 C1728 1.374 1_556 S
C1734 C1731 1.363 1_545 S
C1734 N1732 1.356 . S
C1735 C1729 1.363 . S
C1735 C1730 1.379 . S
C1735 N1733 1.356 . S
N1736 C1728 1.363 . S
N1736 H1742 0.984 . S
N1736 H1743 0.984 . S
N1737 C1730 1.356 . S
N1737 H1740 0.984 . S
N1737 H1741 0.985 . S
H1738 N1733 0.984 . S
H1739 N1733 0.985 . S
H1740 N1737 0.984 . S
H1741 N1737 0.985 . S
H1742 N1736 0.984 . S
H1743 N1736 0.984 . S
H1744 N1732 0.984 . S
H1745 N1732 0.985 . S
C1746 C1747 1.363 . S
C1746 C1752 1.379 . S
C1746 N1754 1.356 . S
C1747 C1746 1.363 . S
C1747 C1753 1.363 1_545 S
C1748 C1749 1.363 1_565 S
C1748 C1753 1.379 . S
C1748 N1755 1.356 . S
C1749 C1748 1.363 1_545 S
C1749 C1752 1.363 . S
N1750 C1752 1.356 . S
N1750 H1762 0.984 . S
N1750 H1763 0.985 . S
N1751 C1753 1.356 . S
N1751 H1756 0.984 . S
N1751 H1757 0.985 . S
C1752 C1746 1.379 . S
C1752 C1749 1.363 . S
C1752 N1750 1.356 . S
C1753 C1747 1.363 1_565 S
C1753 C1748 1.379 . S
C1753 N1751 1.356 . S
N1754 C1746 1.356 . S
N1754 H1760 0.984 . S
N1754 H1761 0.984 . S
N1755 C1748 1.356 . S
N1755 H1758 0.984 . S
N1755 H1759 0.985 . S
H1756 N1751 0.984 . S
H1757 N1751 0.985 . S
H1758 N1755 0.984 . S
H1759 N1755 0.985 . S
H1760 N1754 0.984 . S
H1761 N1754 0.984 . S
H1762 N1750 0.984 . S
H1763 N1750 0.985 . S
C1764 C1765 1.363 1_455 S
C1764 C1770 1.379 . S
C1764 N1772 1.356 . S
C1765 C1764 1.363 1_655 S
C1765 C1771 1.363 . S
C1766 C1767 1.363 . S
C1766 C1771 1.379 . S
C1766 N1773 1.356 . S
C1767 C1766 1.363 . S
C1767 C1770 1.363 1_655 S
N1768 C1770 1.356 . S
N1768 H1780 0.984 . S
N1768 H1781 0.985 . S
N1769 C1771 1.356 . S
N1769 H1774 0.984 . S
N1769 H1775 0.985 . S
C1770 C1764 1.379 . S
C1770 C1767 1.363 1_455 S
C1770 N1768 1.356 . S
C1771 C1765 1.363 . S
C1771 C1766 1.379 . S
C1771 N1769 1.356 . S
N1772 C1764 1.356 . S
N1772 H1778 0.984 . S
N1772 H1779 0.984 . S
N1773 C1766 1.356 . S
N1773 H1776 0.984 . S
N1773 H1777 0.985 . S
H1774 N1769 0.984 . S
H1775 N1769 0.985 . S
H1776 N1773 0.984 . S
H1777 N1773 0.985 . S
H1778 N1772 0.984 . S
H1779 N1772 0.984 . S
H1780 N1768 0.984 . S
H1781 N1768 0.985 . S
C1782 C1783 1.363 . S
C1782 C1788 1.379 . S
C1782 N1790 1.356 . S
C1783 C1782 1.363 . S
C1783 C1789 1.363 . S
C1784 C1785 1.363 . S
C1784 C1789 1.379 . S
C1784 N1791 1.356 . S
C1785 C1784 1.363 . S
C1785 C1788 1.363 . S
N1786 C1788 1.356 . S
N1786 H1798 0.984 . S
N1786 H1799 0.985 . S
N1787 C1789 1.356 . S
N1787 H1792 0.984 . S
N1787 H1793 0.985 . S
C1788 C1782 1.379 . S
C1788 C1785 1.363 . S
C1788 N1786 1.356 . S
C1789 C1783 1.363 . S
C1789 C1784 1.379 . S
C1789 N1787 1.356 . S
N1790 C1782 1.356 . S
N1790 H1796 0.984 . S
N1790 H1797 0.984 . S
N1791 C1784 1.356 . S
N1791 H1794 0.984 . S
N1791 H1795 0.985 . S
H1792 N1787 0.984 . S
H1793 N1787 0.985 . S
H1794 N1791 0.984 . S
H1795 N1791 0.985 . S
H1796 N1790 0.984 . S
H1797 N1790 0.984 . S
H1798 N1786 0.984 . S
H1799 N1786 0.985 . S
C1800 C1801 1.363 . S
C1800 C1806 1.379 . S
C1800 N1808 1.356 . S
C1801 C1800 1.363 . S
C1801 C1807 1.363 . S
C1802 C1803 1.363 . S
C1802 C1807 1.379 . S
C1802 N1809 1.356 . S
C1803 C1802 1.363 . S
C1803 C1806 1.363 . S
N1804 C1806 1.356 . S
N1804 H1816 0.984 . S
N1804 H1817 0.985 . S
N1805 C1807 1.356 . S
N1805 H1810 0.984 . S
N1805 H1811 0.985 . S
C1806 C1800 1.379 . S
C1806 C1803 1.363 . S
C1806 N1804 1.356 . S
C1807 C1801 1.363 . S
C1807 C1802 1.379 . S
C1807 N1805 1.356 . S
N1808 C1800 1.356 . S
N1808 H1814 0.984 . S
N1808 H1815 0.984 . S
N1809 C1802 1.356 . S
N1809 H1812 0.984 . S
N1809 H1813 0.985 . S
H1810 N1805 0.984 . S
H1811 N1805 0.985 . S
H1812 N1809 0.984 . S
H1813 N1809 0.985 . S
H1814 N1808 0.984 . S
H1815 N1808 0.984 . S
H1816 N1804 0.984 . S
H1817 N1804 0.985 . S
C1818 C1819 1.363 . S
C1818 C1824 1.379 . S
C1818 N1826 1.356 . S
C1819 C1818 1.363 . S
C1819 C1825 1.363 . S
C1820 C1821 1.363 . S
C1820 C1825 1.379 . S
C1820 N1827 1.356 . S
C1821 C1820 1.363 . S
C1821 C1824 1.363 . S
N1822 C1824 1.356 . S
N1822 H1834 0.984 . S
N1822 H1835 0.985 . S
N1823 C1825 1.356 . S
N1823 H1828 0.984 . S
N1823 H1829 0.985 . S
C1824 C1818 1.379 . S
C1824 C1821 1.363 . S
C1824 N1822 1.356 . S
C1825 C1819 1.363 . S
C1825 C1820 1.379 . S
C1825 N1823 1.356 . S
N1826 C1818 1.356 . S
N1826 H1832 0.984 . S
N1826 H1833 0.984 . S
N1827 C1820 1.356 . S
N1827 H1830 0.984 . S
N1827 H1831 0.985 . S
H1828 N1823 0.984 . S
H1829 N1823 0.985 . S
H1830 N1827 0.984 . S
H1831 N1827 0.985 . S
H1832 N1826 0.984 . S
H1833 N1826 0.984 . S
H1834 N1822 0.984 . S
H1835 N1822 0.985 . S
C1836 C1837 1.363 . S
C1836 C1842 1.379 . S
C1836 N1844 1.356 . S
C1837 C1836 1.363 . S
C1837 C1843 1.363 . S
C1838 C1839 1.363 . S
C1838 C1843 1.379 . S
C1838 N1845 1.356 . S
C1839 C1838 1.363 . S
C1839 C1842 1.363 . S
N1840 C1842 1.356 . S
N1840 H1852 0.984 . S
N1840 H1853 0.985 . S
N1841 C1843 1.356 . S
N1841 H1846 0.984 . S
N1841 H1847 0.985 . S
C1842 C1836 1.379 . S
C1842 C1839 1.363 . S
C1842 N1840 1.356 . S
C1843 C1837 1.363 . S
C1843 C1838 1.379 . S
C1843 N1841 1.356 . S
N1844 C1836 1.356 . S
N1844 H1850 0.984 . S
N1844 H1851 0.984 . S
N1845 C1838 1.356 . S
N1845 H1848 0.984 . S
N1845 H1849 0.985 . S
H1846 N1841 0.984 . S
H1847 N1841 0.985 . S
H1848 N1845 0.984 . S
H1849 N1845 0.985 . S
H1850 N1844 0.984 . S
H1851 N1844 0.984 . S
H1852 N1840 0.984 . S
H1853 N1840 0.985 . S
C1854 C1855 1.363 . S
C1854 C1860 1.379 . S
C1854 N1862 1.356 . S
C1855 C1854 1.363 . S
C1855 C1861 1.363 . S
C1856 C1857 1.363 . S
C1856 C1861 1.379 . S
C1856 N1863 1.356 . S
C1857 C1856 1.363 . S
C1857 C1860 1.363 . S
N1858 C1860 1.356 . S
N1858 H1870 0.984 . S
N1858 H1871 0.985 . S
N1859 C1861 1.356 . S
N1859 H1864 0.984 . S
N1859 H1865 0.985 . S
C1860 C1854 1.379 . S
C1860 C1857 1.363 . S
C1860 N1858 1.356 . S
C1861 C1855 1.363 . S
C1861 C1856 1.379 . S
C1861 N1859 1.356 . S
N1862 C1854 1.356 . S
N1862 H1868 0.984 . S
N1862 H1869 0.984 . S
N1863 C1856 1.356 . S
N1863 H1866 0.984 . S
N1863 H1867 0.985 . S
H1864 N1859 0.984 . S
H1865 N1859 0.985 . S
H1866 N1863 0.984 . S
H1867 N1863 0.985 . S
H1868 N1862 0.984 . S
H1869 N1862 0.984 . S
H1870 N1858 0.984 . S
H1871 N1858 0.985 . S
C1872 C1873 1.363 . S
C1872 C1878 1.379 . S
C1872 N1880 1.356 . S
C1873 C1872 1.363 . S
C1873 C1879 1.363 . S
C1874 C1875 1.363 . S
C1874 C1879 1.379 . S
C1874 N1881 1.356 . S
C1875 C1874 1.363 . S
C1875 C1878 1.363 . S
N1876 C1878 1.356 . S
N1876 H1888 0.984 . S
N1876 H1889 0.985 . S
N1877 C1879 1.356 . S
N1877 H1882 0.984 . S
N1877 H1883 0.985 . S
C1878 C1872 1.379 . S
C1878 C1875 1.363 . S
C1878 N1876 1.356 . S
C1879 C1873 1.363 . S
C1879 C1874 1.379 . S
C1879 N1877 1.356 . S
N1880 C1872 1.356 . S
N1880 H1886 0.984 . S
N1880 H1887 0.984 . S
N1881 C1874 1.356 . S
N1881 H1884 0.984 . S
N1881 H1885 0.985 . S
H1882 N1877 0.984 . S
H1883 N1877 0.985 . S
H1884 N1881 0.984 . S
H1885 N1881 0.985 . S
H1886 N1880 0.984 . S
H1887 N1880 0.984 . S
H1888 N1876 0.984 . S
H1889 N1876 0.985 . S
C1890 C1891 1.363 . S
C1890 C1896 1.379 . S
C1890 N1898 1.356 . S
C1891 C1890 1.363 . S
C1891 C1897 1.363 . S
C1892 C1893 1.363 . S
C1892 C1897 1.379 . S
C1892 N1899 1.356 . S
C1893 C1892 1.363 . S
C1893 C1896 1.363 . S
N1894 C1896 1.356 . S
N1894 H1906 0.984 . S
N1894 H1907 0.985 . S
N1895 C1897 1.356 . S
N1895 H1900 0.984 . S
N1895 H1901 0.985 . S
C1896 C1890 1.379 . S
C1896 C1893 1.363 . S
C1896 N1894 1.356 . S
C1897 C1891 1.363 . S
C1897 C1892 1.379 . S
C1897 N1895 1.356 . S
N1898 C1890 1.356 . S
N1898 H1904 0.984 . S
N1898 H1905 0.984 . S
N1899 C1892 1.356 . S
N1899 H1902 0.984 . S
N1899 H1903 0.985 . S
H1900 N1895 0.984 . S
H1901 N1895 0.985 . S
H1902 N1899 0.984 . S
H1903 N1899 0.985 . S
H1904 N1898 0.984 . S
H1905 N1898 0.984 . S
H1906 N1894 0.984 . S
H1907 N1894 0.985 . S
C1908 C1909 1.363 . S
C1908 C1914 1.379 . S
C1908 N1916 1.356 . S
C1909 C1908 1.363 . S
C1909 C1915 1.363 . S
C1910 C1911 1.363 . S
C1910 C1915 1.379 . S
C1910 N1917 1.356 . S
C1911 C1910 1.363 . S
C1911 C1914 1.363 . S
N1912 C1914 1.356 . S
N1912 H1924 0.984 . S
N1912 H1925 0.985 . S
N1913 C1915 1.356 . S
N1913 H1918 0.984 . S
N1913 H1919 0.985 . S
C1914 C1908 1.379 . S
C1914 C1911 1.363 . S
C1914 N1912 1.356 . S
C1915 C1909 1.363 . S
C1915 C1910 1.379 . S
C1915 N1913 1.356 . S
N1916 C1908 1.356 . S
N1916 H1922 0.984 . S
N1916 H1923 0.984 . S
N1917 C1910 1.356 . S
N1917 H1920 0.984 . S
N1917 H1921 0.985 . S
H1918 N1913 0.984 . S
H1919 N1913 0.985 . S
H1920 N1917 0.984 . S
H1921 N1917 0.985 . S
H1922 N1916 0.984 . S
H1923 N1916 0.984 . S
H1924 N1912 0.984 . S
H1925 N1912 0.985 . S
C1926 C1927 1.363 . S
C1926 C1932 1.379 . S
C1926 N1934 1.356 . S
C1927 C1926 1.363 . S
C1927 C1933 1.363 . S
C1928 C1929 1.363 . S
C1928 C1933 1.379 . S
C1928 N1935 1.356 . S
C1929 C1928 1.363 . S
C1929 C1932 1.363 . S
N1930 C1932 1.356 . S
N1930 H1942 0.984 . S
N1930 H1943 0.985 . S
N1931 C1933 1.356 . S
N1931 H1936 0.984 . S
N1931 H1937 0.985 . S
C1932 C1926 1.379 . S
C1932 C1929 1.363 . S
C1932 N1930 1.356 . S
C1933 C1927 1.363 . S
C1933 C1928 1.379 . S
C1933 N1931 1.356 . S
N1934 C1926 1.356 . S
N1934 H1940 0.984 . S
N1934 H1941 0.984 . S
N1935 C1928 1.356 . S
N1935 H1938 0.984 . S
N1935 H1939 0.985 . S
H1936 N1931 0.984 . S
H1937 N1931 0.985 . S
H1938 N1935 0.984 . S
H1939 N1935 0.985 . S
H1940 N1934 0.984 . S
H1941 N1934 0.984 . S
H1942 N1930 0.984 . S
H1943 N1930 0.985 . S
C1944 C1945 1.363 . S
C1944 C1950 1.379 . S
C1944 N1952 1.356 . S
C1945 C1944 1.363 . S
C1945 C1951 1.363 . S
C1946 C1947 1.363 . S
C1946 C1951 1.379 . S
C1946 N1953 1.356 . S
C1947 C1946 1.363 . S
C1947 C1950 1.363 . S
N1948 C1950 1.356 . S
N1948 H1960 0.984 . S
N1948 H1961 0.985 . S
N1949 C1951 1.356 . S
N1949 H1954 0.984 . S
N1949 H1955 0.985 . S
C1950 C1944 1.379 . S
C1950 C1947 1.363 . S
C1950 N1948 1.356 . S
C1951 C1945 1.363 . S
C1951 C1946 1.379 . S
C1951 N1949 1.356 . S
N1952 C1944 1.356 . S
N1952 H1958 0.984 . S
N1952 H1959 0.984 . S
N1953 C1946 1.356 . S
N1953 H1956 0.984 . S
N1953 H1957 0.985 . S
H1954 N1949 0.984 . S
H1955 N1949 0.985 . S
H1956 N1953 0.984 . S
H1957 N1953 0.985 . S
H1958 N1952 0.984 . S
H1959 N1952 0.984 . S
H1960 N1948 0.984 . S
H1961 N1948 0.985 . S
C1962 C1963 1.363 . S
C1962 C1968 1.379 . S
C1962 N1970 1.356 . S
C1963 C1962 1.363 . S
C1963 C1969 1.363 . S
C1964 C1965 1.363 . S
C1964 C1969 1.379 . S
C1964 N1971 1.356 . S
C1965 C1964 1.363 . S
C1965 C1968 1.363 . S
N1966 C1968 1.356 . S
N1966 H1978 0.984 . S
N1966 H1979 0.985 . S
N1967 C1969 1.356 . S
N1967 H1972 0.984 . S
N1967 H1973 0.985 . S
C1968 C1962 1.379 . S
C1968 C1965 1.363 . S
C1968 N1966 1.356 . S
C1969 C1963 1.363 . S
C1969 C1964 1.379 . S
C1969 N1967 1.356 . S
N1970 C1962 1.356 . S
N1970 H1976 0.984 . S
N1970 H1977 0.984 . S
N1971 C1964 1.356 . S
N1971 H1974 0.984 . S
N1971 H1975 0.985 . S
H1972 N1967 0.984 . S
H1973 N1967 0.985 . S
H1974 N1971 0.984 . S
H1975 N1971 0.985 . S
H1976 N1970 0.984 . S
H1977 N1970 0.984 . S
H1978 N1966 0.984 . S
H1979 N1966 0.985 . S
C1980 C1981 1.363 . S
C1980 C1986 1.379 . S
C1980 N1988 1.356 . S
C1981 C1980 1.363 . S
C1981 C1987 1.363 . S
C1982 C1983 1.363 . S
C1982 C1987 1.379 . S
C1982 N1989 1.356 . S
C1983 C1982 1.363 . S
C1983 C1986 1.363 . S
N1984 C1986 1.356 . S
N1984 H1996 0.984 . S
N1984 H1997 0.985 . S
N1985 C1987 1.356 . S
N1985 H1990 0.984 . S
N1985 H1991 0.985 . S
C1986 C1980 1.379 . S
C1986 C1983 1.363 . S
C1986 N1984 1.356 . S
C1987 C1981 1.363 . S
C1987 C1982 1.379 . S
C1987 N1985 1.356 . S
N1988 C1980 1.356 . S
N1988 H1994 0.984 . S
N1988 H1995 0.984 . S
N1989 C1982 1.356 . S
N1989 H1992 0.984 . S
N1989 H1993 0.985 . S
H1990 N1985 0.984 . S
H1991 N1985 0.985 . S
H1992 N1989 0.984 . S
H1993 N1989 0.985 . S
H1994 N1988 0.984 . S
H1995 N1988 0.984 . S
H1996 N1984 0.984 . S
H1997 N1984 0.985 . S
C1998 C1999 1.363 . S
C1998 C2004 1.379 . S
C1998 N2006 1.356 . S
C1999 C1998 1.363 . S
C1999 C2005 1.363 . S
C2000 C2001 1.363 . S
C2000 C2005 1.379 . S
C2000 N2007 1.356 . S
C2001 C2000 1.363 . S
C2001 C2004 1.363 . S
N2002 C2004 1.356 . S
N2002 H2014 0.984 . S
N2002 H2015 0.985 . S
N2003 C2005 1.356 . S
N2003 H2008 0.984 . S
N2003 H2009 0.985 . S
C2004 C1998 1.379 . S
C2004 C2001 1.363 . S
C2004 N2002 1.356 . S
C2005 C1999 1.363 . S
C2005 C2000 1.379 . S
C2005 N2003 1.356 . S
N2006 C1998 1.356 . S
N2006 H2012 0.984 . S
N2006 H2013 0.984 . S
N2007 C2000 1.356 . S
N2007 H2010 0.984 . S
N2007 H2011 0.985 . S
H2008 N2003 0.984 . S
H2009 N2003 0.985 . S
H2010 N2007 0.984 . S
H2011 N2007 0.985 . S
H2012 N2006 0.984 . S
H2013 N2006 0.984 . S
H2014 N2002 0.984 . S
H2015 N2002 0.985 . S
C2016 C2017 1.363 . S
C2016 C2022 1.379 . S
C2016 N2024 1.356 . S
C2017 C2016 1.363 . S
C2017 C2023 1.363 . S
C2018 C2019 1.363 . S
C2018 C2023 1.379 . S
C2018 N2025 1.356 . S
C2019 C2018 1.363 . S
C2019 C2022 1.363 . S
N2020 C2022 1.356 . S
N2020 H2032 0.984 . S
N2020 H2033 0.985 . S
N2021 C2023 1.356 . S
N2021 H2026 0.984 . S
N2021 H2027 0.985 . S
C2022 C2016 1.379 . S
C2022 C2019 1.363 . S
C2022 N2020 1.356 . S
C2023 C2017 1.363 . S
C2023 C2018 1.379 . S
C2023 N2021 1.356 . S
N2024 C2016 1.356 . S
N2024 H2030 0.984 . S
N2024 H2031 0.984 . S
N2025 C2018 1.356 . S
N2025 H2028 0.984 . S
N2025 H2029 0.985 . S
H2026 N2021 0.984 . S
H2027 N2021 0.985 . S
H2028 N2025 0.984 . S
H2029 N2025 0.985 . S
H2030 N2024 0.984 . S
H2031 N2024 0.984 . S
H2032 N2020 0.984 . S
H2033 N2020 0.985 . S
C2034 C2035 1.363 . S
C2034 C2040 1.379 . S
C2034 N2042 1.356 . S
C2035 C2034 1.363 . S
C2035 C2041 1.363 . S
C2036 C2037 1.363 . S
C2036 C2041 1.379 . S
C2036 N2043 1.356 . S
C2037 C2036 1.363 . S
C2037 C2040 1.363 . S
N2038 C2040 1.356 . S
N2038 H2050 0.984 . S
N2038 H2051 0.985 . S
N2039 C2041 1.356 . S
N2039 H2044 0.984 . S
N2039 H2045 0.985 . S
C2040 C2034 1.379 . S
C2040 C2037 1.363 . S
C2040 N2038 1.356 . S
C2041 C2035 1.363 . S
C2041 C2036 1.379 . S
C2041 N2039 1.356 . S
N2042 C2034 1.356 . S
N2042 H2048 0.984 . S
N2042 H2049 0.984 . S
N2043 C2036 1.356 . S
N2043 H2046 0.984 . S
N2043 H2047 0.985 . S
H2044 N2039 0.984 . S
H2045 N2039 0.985 . S
H2046 N2043 0.984 . S
H2047 N2043 0.985 . S
H2048 N2042 0.984 . S
H2049 N2042 0.984 . S
H2050 N2038 0.984 . S
H2051 N2038 0.985 . S
C2052 C2053 1.363 . S
C2052 C2058 1.379 . S
C2052 N2060 1.356 . S
C2053 C2052 1.363 . S
C2053 C2059 1.363 . S
C2054 C2055 1.363 . S
C2054 C2059 1.379 . S
C2054 N2061 1.356 . S
C2055 C2054 1.363 . S
C2055 C2058 1.363 . S
N2056 C2058 1.356 . S
N2056 H2068 0.984 . S
N2056 H2069 0.985 . S
N2057 C2059 1.356 . S
N2057 H2062 0.984 . S
N2057 H2063 0.985 . S
C2058 C2052 1.379 . S
C2058 C2055 1.363 . S
C2058 N2056 1.356 . S
C2059 C2053 1.363 . S
C2059 C2054 1.379 . S
C2059 N2057 1.356 . S
N2060 C2052 1.356 . S
N2060 H2066 0.984 . S
N2060 H2067 0.984 . S
N2061 C2054 1.356 . S
N2061 H2064 0.984 . S
N2061 H2065 0.985 . S
H2062 N2057 0.984 . S
H2063 N2057 0.985 . S
H2064 N2061 0.984 . S
H2065 N2061 0.985 . S
H2066 N2060 0.984 . S
H2067 N2060 0.984 . S
H2068 N2056 0.984 . S
H2069 N2056 0.985 . S
C2070 C2071 1.363 . S
C2070 C2076 1.379 . S
C2070 N2078 1.356 . S
C2071 C2070 1.363 . S
C2071 C2077 1.363 . S
C2072 C2073 1.363 . S
C2072 C2077 1.379 . S
C2072 N2079 1.356 . S
C2073 C2072 1.363 . S
C2073 C2076 1.363 . S
N2074 C2076 1.356 . S
N2074 H2086 0.984 . S
N2074 H2087 0.985 . S
N2075 C2077 1.356 . S
N2075 H2080 0.984 . S
N2075 H2081 0.985 . S
C2076 C2070 1.379 . S
C2076 C2073 1.363 . S
C2076 N2074 1.356 . S
C2077 C2071 1.363 . S
C2077 C2072 1.379 . S
C2077 N2075 1.356 . S
N2078 C2070 1.356 . S
N2078 H2084 0.984 . S
N2078 H2085 0.984 . S
N2079 C2072 1.356 . S
N2079 H2082 0.984 . S
N2079 H2083 0.985 . S
H2080 N2075 0.984 . S
H2081 N2075 0.985 . S
H2082 N2079 0.984 . S
H2083 N2079 0.985 . S
H2084 N2078 0.984 . S
H2085 N2078 0.984 . S
H2086 N2074 0.984 . S
H2087 N2074 0.985 . S
C2088 C2089 1.363 . S
C2088 C2094 1.379 . S
C2088 N2096 1.356 . S
C2089 C2088 1.363 . S
C2089 C2095 1.363 . S
C2090 C2091 1.363 . S
C2090 C2095 1.379 . S
C2090 N2097 1.356 . S
C2091 C2090 1.363 . S
C2091 C2094 1.363 . S
N2092 C2094 1.356 . S
N2092 H2104 0.984 . S
N2092 H2105 0.985 . S
N2093 C2095 1.356 . S
N2093 H2098 0.984 . S
N2093 H2099 0.985 . S
C2094 C2088 1.379 . S
C2094 C2091 1.363 . S
C2094 N2092 1.356 . S
C2095 C2089 1.363 . S
C2095 C2090 1.379 . S
C2095 N2093 1.356 . S
N2096 C2088 1.356 . S
N2096 H2102 0.984 . S
N2096 H2103 0.984 . S
N2097 C2090 1.356 . S
N2097 H2100 0.984 . S
N2097 H2101 0.985 . S
H2098 N2093 0.984 . S
H2099 N2093 0.985 . S
H2100 N2097 0.984 . S
H2101 N2097 0.985 . S
H2102 N2096 0.984 . S
H2103 N2096 0.984 . S
H2104 N2092 0.984 . S
H2105 N2092 0.985 . S
C2106 C2107 1.363 . S
C2106 C2112 1.379 . S
C2106 N2114 1.356 . S
C2107 C2106 1.363 . S
C2107 C2113 1.363 . S
C2108 C2109 1.363 . S
C2108 C2113 1.379 . S
C2108 N2115 1.356 . S
C2109 C2108 1.363 . S
C2109 C2112 1.363 . S
N2110 C2112 1.356 . S
N2110 H2122 0.984 . S
N2110 H2123 0.985 . S
N2111 C2113 1.356 . S
N2111 H2116 0.984 . S
N2111 H2117 0.985 . S
C2112 C2106 1.379 . S
C2112 C2109 1.363 . S
C2112 N2110 1.356 . S
C2113 C2107 1.363 . S
C2113 C2108 1.379 . S
C2113 N2111 1.356 . S
N2114 C2106 1.356 . S
N2114 H2120 0.984 . S
N2114 H2121 0.984 . S
N2115 C2108 1.356 . S
N2115 H2118 0.984 . S
N2115 H2119 0.985 . S
H2116 N2111 0.984 . S
H2117 N2111 0.985 . S
H2118 N2115 0.984 . S
H2119 N2115 0.985 . S
H2120 N2114 0.984 . S
H2121 N2114 0.984 . S
H2122 N2110 0.984 . S
H2123 N2110 0.985 . S
C2124 C2125 1.363 . S
C2124 C2130 1.379 . S
C2124 N2132 1.356 . S
C2125 C2124 1.363 . S
C2125 C2131 1.363 . S
C2126 C2127 1.363 . S
C2126 C2131 1.379 . S
C2126 N2133 1.356 . S
C2127 C2126 1.363 . S
C2127 C2130 1.363 . S
N2128 C2130 1.356 . S
N2128 H2140 0.984 . S
N2128 H2141 0.985 . S
N2129 C2131 1.356 . S
N2129 H2134 0.984 . S
N2129 H2135 0.985 . S
C2130 C2124 1.379 . S
C2130 C2127 1.363 . S
C2130 N2128 1.356 . S
C2131 C2125 1.363 . S
C2131 C2126 1.379 . S
C2131 N2129 1.356 . S
N2132 C2124 1.356 . S
N2132 H2138 0.984 . S
N2132 H2139 0.984 . S
N2133 C2126 1.356 . S
N2133 H2136 0.984 . S
N2133 H2137 0.985 . S
H2134 N2129 0.984 . S
H2135 N2129 0.985 . S
H2136 N2133 0.984 . S
H2137 N2133 0.985 . S
H2138 N2132 0.984 . S
H2139 N2132 0.984 . S
H2140 N2128 0.984 . S
H2141 N2128 0.985 . S
C2142 C2143 1.363 . S
C2142 C2148 1.379 . S
C2142 N2150 1.356 . S
C2143 C2142 1.363 . S
C2143 C2149 1.363 . S
C2144 C2145 1.363 . S
C2144 C2149 1.379 . S
C2144 N2151 1.356 . S
C2145 C2144 1.363 . S
C2145 C2148 1.363 . S
N2146 C2148 1.356 . S
N2146 H2158 0.984 . S
N2146 H2159 0.985 . S
N2147 C2149 1.356 . S
N2147 H2152 0.984 . S
N2147 H2153 0.985 . S
C2148 C2142 1.379 . S
C2148 C2145 1.363 . S
C2148 N2146 1.356 . S
C2149 C2143 1.363 . S
C2149 C2144 1.379 . S
C2149 N2147 1.356 . S
N2150 C2142 1.356 . S
N2150 H2156 0.984 . S
N2150 H2157 0.984 . S
N2151 C2144 1.356 . S
N2151 H2154 0.984 . S
N2151 H2155 0.985 . S
H2152 N2147 0.984 . S
H2153 N2147 0.985 . S
H2154 N2151 0.984 . S
H2155 N2151 0.985 . S
H2156 N2150 0.984 . S
H2157 N2150 0.984 . S
H2158 N2146 0.984 . S
H2159 N2146 0.985 . S
C2160 C2161 1.363 . S
C2160 C2166 1.379 . S
C2160 N2168 1.356 . S
C2161 C2160 1.363 . S
C2161 C2167 1.363 . S
C2162 C2163 1.363 . S
C2162 C2167 1.379 . S
C2162 N2169 1.356 . S
C2163 C2162 1.363 . S
C2163 C2166 1.363 . S
N2164 C2166 1.356 . S
N2164 H2176 0.984 . S
N2164 H2177 0.985 . S
N2165 C2167 1.356 . S
N2165 H2170 0.984 . S
N2165 H2171 0.985 . S
C2166 C2160 1.379 . S
C2166 C2163 1.363 . S
C2166 N2164 1.356 . S
C2167 C2161 1.363 . S
C2167 C2162 1.379 . S
C2167 N2165 1.356 . S
N2168 C2160 1.356 . S
N2168 H2174 0.984 . S
N2168 H2175 0.984 . S
N2169 C2162 1.356 . S
N2169 H2172 0.984 . S
N2169 H2173 0.985 . S
H2170 N2165 0.984 . S
H2171 N2165 0.985 . S
H2172 N2169 0.984 . S
H2173 N2169 0.985 . S
H2174 N2168 0.984 . S
H2175 N2168 0.984 . S
H2176 N2164 0.984 . S
H2177 N2164 0.985 . S
C2178 C2179 1.363 . S
C2178 C2184 1.379 . S
C2178 N2186 1.356 . S
C2179 C2178 1.363 . S
C2179 C2185 1.363 . S
C2180 C2181 1.363 . S
C2180 C2185 1.379 . S
C2180 N2187 1.356 . S
C2181 C2180 1.363 . S
C2181 C2184 1.363 . S
N2182 C2184 1.356 . S
N2182 H2194 0.984 . S
N2182 H2195 0.985 . S
N2183 C2185 1.356 . S
N2183 H2188 0.984 . S
N2183 H2189 0.985 . S
C2184 C2178 1.379 . S
C2184 C2181 1.363 . S
C2184 N2182 1.356 . S
C2185 C2179 1.363 . S
C2185 C2180 1.379 . S
C2185 N2183 1.356 . S
N2186 C2178 1.356 . S
N2186 H2192 0.984 . S
N2186 H2193 0.984 . S
N2187 C2180 1.356 . S
N2187 H2190 0.984 . S
N2187 H2191 0.985 . S
H2188 N2183 0.984 . S
H2189 N2183 0.985 . S
H2190 N2187 0.984 . S
H2191 N2187 0.985 . S
H2192 N2186 0.984 . S
H2193 N2186 0.984 . S
H2194 N2182 0.984 . S
H2195 N2182 0.985 . S
C2196 C2197 1.363 . S
C2196 C2202 1.379 . S
C2196 N2204 1.356 . S
C2197 C2196 1.363 . S
C2197 C2203 1.363 . S
C2198 C2199 1.363 . S
C2198 C2203 1.379 . S
C2198 N2205 1.356 . S
C2199 C2198 1.363 . S
C2199 C2202 1.363 . S
N2200 C2202 1.356 . S
N2200 H2212 0.984 . S
N2200 H2213 0.985 . S
N2201 C2203 1.356 . S
N2201 H2206 0.984 . S
N2201 H2207 0.985 . S
C2202 C2196 1.379 . S
C2202 C2199 1.363 . S
C2202 N2200 1.356 . S
C2203 C2197 1.363 . S
C2203 C2198 1.379 . S
C2203 N2201 1.356 . S
N2204 C2196 1.356 . S
N2204 H2210 0.984 . S
N2204 H2211 0.984 . S
N2205 C2198 1.356 . S
N2205 H2208 0.984 . S
N2205 H2209 0.985 . S
H2206 N2201 0.984 . S
H2207 N2201 0.985 . S
H2208 N2205 0.984 . S
H2209 N2205 0.985 . S
H2210 N2204 0.984 . S
H2211 N2204 0.984 . S
H2212 N2200 0.984 . S
H2213 N2200 0.985 . S
C2214 C2215 1.363 . S
C2214 C2220 1.379 . S
C2214 N2222 1.356 . S
C2215 C2214 1.363 . S
C2215 C2221 1.363 . S
C2216 C2217 1.363 . S
C2216 C2221 1.379 . S
C2216 N2223 1.356 . S
C2217 C2216 1.363 . S
C2217 C2220 1.363 . S
N2218 C2220 1.356 . S
N2218 H2230 0.984 . S
N2218 H2231 0.985 . S
N2219 C2221 1.356 . S
N2219 H2224 0.984 . S
N2219 H2225 0.985 . S
C2220 C2214 1.379 . S
C2220 C2217 1.363 . S
C2220 N2218 1.356 . S
C2221 C2215 1.363 . S
C2221 C2216 1.379 . S
C2221 N2219 1.356 . S
N2222 C2214 1.356 . S
N2222 H2228 0.984 . S
N2222 H2229 0.984 . S
N2223 C2216 1.356 . S
N2223 H2226 0.984 . S
N2223 H2227 0.985 . S
H2224 N2219 0.984 . S
H2225 N2219 0.985 . S
H2226 N2223 0.984 . S
H2227 N2223 0.985 . S
H2228 N2222 0.984 . S
H2229 N2222 0.984 . S
H2230 N2218 0.984 . S
H2231 N2218 0.985 . S
C2232 C2233 1.363 . S
C2232 C2238 1.379 . S
C2232 N2240 1.356 . S
C2233 C2232 1.363 . S
C2233 C2239 1.363 . S
C2234 C2235 1.363 . S
C2234 C2239 1.379 . S
C2234 N2241 1.356 . S
C2235 C2234 1.363 . S
C2235 C2238 1.363 . S
N2236 C2238 1.356 . S
N2236 H2248 0.984 . S
N2236 H2249 0.985 . S
N2237 C2239 1.356 . S
N2237 H2242 0.984 . S
N2237 H2243 0.985 . S
C2238 C2232 1.379 . S
C2238 C2235 1.363 . S
C2238 N2236 1.356 . S
C2239 C2233 1.363 . S
C2239 C2234 1.379 . S
C2239 N2237 1.356 . S
N2240 C2232 1.356 . S
N2240 H2246 0.984 . S
N2240 H2247 0.984 . S
N2241 C2234 1.356 . S
N2241 H2244 0.984 . S
N2241 H2245 0.985 . S
H2242 N2237 0.984 . S
H2243 N2237 0.985 . S
H2244 N2241 0.984 . S
H2245 N2241 0.985 . S
H2246 N2240 0.984 . S
H2247 N2240 0.984 . S
H2248 N2236 0.984 . S
H2249 N2236 0.985 . S
C2250 C2251 1.363 . S
C2250 C2256 1.379 . S
C2250 N2258 1.356 . S
C2251 C2250 1.363 . S
C2251 C2257 1.363 . S
C2252 C2253 1.363 . S
C2252 C2257 1.379 . S
C2252 N2259 1.356 . S
C2253 C2252 1.363 . S
C2253 C2256 1.363 . S
N2254 C2256 1.356 . S
N2254 H2266 0.984 . S
N2254 H2267 0.985 . S
N2255 C2257 1.356 . S
N2255 H2260 0.984 . S
N2255 H2261 0.985 . S
C2256 C2250 1.379 . S
C2256 C2253 1.363 . S
C2256 N2254 1.356 . S
C2257 C2251 1.363 . S
C2257 C2252 1.379 . S
C2257 N2255 1.356 . S
N2258 C2250 1.356 . S
N2258 H2264 0.984 . S
N2258 H2265 0.984 . S
N2259 C2252 1.356 . S
N2259 H2262 0.984 . S
N2259 H2263 0.985 . S
H2260 N2255 0.984 . S
H2261 N2255 0.985 . S
H2262 N2259 0.984 . S
H2263 N2259 0.985 . S
H2264 N2258 0.984 . S
H2265 N2258 0.984 . S
H2266 N2254 0.984 . S
H2267 N2254 0.985 . S
C2268 C2269 1.363 . S
C2268 C2274 1.379 . S
C2268 N2276 1.356 . S
C2269 C2268 1.363 . S
C2269 C2275 1.363 . S
C2270 C2271 1.363 . S
C2270 C2275 1.379 . S
C2270 N2277 1.356 . S
C2271 C2270 1.363 . S
C2271 C2274 1.363 . S
N2272 C2274 1.356 . S
N2272 H2284 0.984 . S
N2272 H2285 0.985 . S
N2273 C2275 1.356 . S
N2273 H2278 0.984 . S
N2273 H2279 0.985 1_565 S
C2274 C2268 1.379 . S
C2274 C2271 1.363 . S
C2274 N2272 1.356 . S
C2275 C2269 1.363 . S
C2275 C2270 1.379 . S
C2275 N2273 1.356 . S
N2276 C2268 1.356 . S
N2276 H2282 0.984 . S
N2276 H2283 0.984 . S
N2277 C2270 1.356 . S
N2277 H2280 0.984 . S
N2277 H2281 0.985 . S
H2278 N2273 0.984 . S
H2279 N2273 0.985 1_545 S
H2280 N2277 0.984 . S
H2281 N2277 0.985 . S
H2282 N2276 0.984 . S
H2283 N2276 0.984 . S
H2284 N2272 0.984 . S
H2285 N2272 0.985 . S
C2286 C2287 1.363 1_556 S
C2286 C2292 1.379 . S
C2286 N2294 1.356 . S
C2287 C2286 1.363 1_554 S
C2287 C2293 1.363 . S
C2288 C2289 1.363 1_554 S
C2288 C2293 1.379 . S
C2288 N2295 1.356 . S
C2289 C2288 1.363 1_556 S
C2289 C2292 1.363 . S
N2290 C2292 1.356 . S
N2290 H2302 0.984 . S
N2290 H2303 0.985 . S
N2291 C2293 1.356 . S
N2291 H2296 0.984 . S
N2291 H2297 0.985 . S
C2292 C2286 1.379 . S
C2292 C2289 1.363 . S
C2292 N2290 1.356 . S
C2293 C2287 1.363 . S
C2293 C2288 1.379 . S
C2293 N2291 1.356 . S
N2294 C2286 1.356 . S
N2294 H2300 0.984 . S
N2294 H2301 0.984 . S
N2295 C2288 1.356 . S
N2295 H2298 0.984 . S
N2295 H2299 0.985 . S
H2296 N2291 0.984 . S
H2297 N2291 0.985 . S
H2298 N2295 0.984 . S
H2299 N2295 0.985 . S
H2300 N2294 0.984 . S
H2301 N2294 0.984 . S
H2302 N2290 0.984 . S
H2303 N2290 0.985 . S
C2304 C2305 1.363 . S
C2304 C2310 1.379 . S
C2304 N2312 1.357 1_556 S
C2305 C2304 1.363 . S
C2305 C2311 1.363 . S
C2306 C2307 1.363 . S
C2306 C2311 1.379 . S
C2306 N2313 1.356 . S
C2307 C2306 1.363 . S
C2307 C2310 1.363 . S
N2308 C2310 1.356 . S
N2308 H2320 0.984 . S
N2308 H2321 0.985 . S
N2309 C2311 1.356 . S
N2309 H2314 0.984 . S
N2309 H2315 0.985 . S
C2310 C2304 1.379 . S
C2310 C2307 1.363 . S
C2310 N2308 1.356 . S
C2311 C2305 1.363 . S
C2311 C2306 1.379 . S
C2311 N2309 1.356 . S
N2312 C2304 1.357 1_554 S
N2312 H2318 0.984 . S
N2312 H2319 0.984 . S
N2313 C2306 1.356 . S
N2313 H2316 0.984 . S
N2313 H2317 0.985 . S
H2314 N2309 0.984 . S
H2315 N2309 0.985 . S
H2316 N2313 0.984 . S
H2317 N2313 0.985 . S
H2318 N2312 0.984 . S
H2319 N2312 0.984 . S
H2320 N2308 0.984 . S
H2321 N2308 0.985 . S
C2322 C2323 1.363 . S
C2322 C2328 1.379 . S
C2322 N2330 1.356 . S
C2323 C2322 1.363 . S
C2323 C2329 1.363 . S
C2324 C2325 1.363 . S
C2324 C2329 1.379 . S
C2324 N2331 1.356 . S
C2325 C2324 1.363 . S
C2325 C2328 1.363 . S
N2326 C2328 1.356 1_556 S
N2326 H2338 0.984 . S
N2326 H2339 0.985 . S
N2327 C2329 1.356 . S
N2327 H2332 0.984 . S
N2327 H2333 0.985 . S
C2328 C2322 1.379 . S
C2328 C2325 1.363 . S
C2328 N2326 1.356 1_554 S
C2329 C2323 1.363 . S
C2329 C2324 1.379 . S
C2329 N2327 1.356 . S
N2330 C2322 1.356 . S
N2330 H2336 0.984 . S
N2330 H2337 0.984 . S
N2331 C2324 1.356 . S
N2331 H2334 0.984 . S
N2331 H2335 0.985 . S
H2332 N2327 0.984 . S
H2333 N2327 0.985 . S
H2334 N2331 0.984 . S
H2335 N2331 0.985 . S
H2336 N2330 0.984 . S
H2337 N2330 0.984 . S
H2338 N2326 0.984 . S
H2339 N2326 0.985 . S
C2340 C2341 1.363 1_556 S
C2340 C2346 1.379 . S
C2340 N2348 1.356 . S
C2341 C2340 1.363 1_554 S
C2341 C2347 1.363 . S
C2342 C2343 1.328 1_554 S
C2342 C2347 1.401 . S
C2342 N2349 1.359 . S
C2343 C2342 1.328 1_556 S
C2343 C2346 1.363 . S
N2344 C2346 1.356 . S
N2344 H2356 0.984 . S
N2344 H2357 0.985 . S
N2345 C2347 1.356 . S
N2345 H2350 0.984 . S
N2345 H2351 0.985 . S
C2346 C2340 1.379 . S
C2346 C2343 1.363 . S
C2346 N2344 1.356 . S
C2347 C2341 1.363 . S
C2347 C2342 1.401 . S
C2347 N2345 1.356 . S
N2348 C2340 1.356 . S
N2348 H2354 0.984 . S
N2348 H2355 0.984 . S
N2349 C2342 1.359 . S
N2349 H2352 0.984 1_554 S
N2349 H2353 0.985 . S
H2350 N2345 0.984 . S
H2351 N2345 0.985 . S
H2352 N2349 0.984 1_556 S
H2353 N2349 0.985 . S
H2354 N2348 0.984 . S
H2355 N2348 0.984 . S
H2356 N2344 0.984 . S
H2357 N2344 0.985 . S
C2358 C2359 1.363 . S
C2358 C2364 1.379 . S
C2358 N2366 1.356 . S
C2359 C2358 1.363 . S
C2359 C2365 1.363 . S
C2360 C2361 1.363 . S
C2360 C2365 1.379 . S
C2360 N2367 1.356 . S
C2361 C2360 1.363 . S
C2361 C2364 1.363 . S
N2362 C2364 1.356 . S
N2362 H2374 0.984 . S
N2362 H2375 0.985 . S
N2363 C2365 1.356 . S
N2363 H2368 0.984 1_556 S
N2363 H2369 0.985 1_556 S
C2364 C2358 1.379 . S
C2364 C2361 1.363 . S
C2364 N2362 1.356 . S
C2365 C2359 1.363 . S
C2365 C2360 1.379 . S
C2365 N2363 1.356 . S
N2366 C2358 1.356 . S
N2366 H2372 0.984 . S
N2366 H2373 0.984 . S
N2367 C2360 1.356 . S
N2367 H2370 0.984 . S
N2367 H2371 0.985 . S
H2368 N2363 0.984 1_554 S
H2369 N2363 0.985 1_554 S
H2370 N2367 0.984 . S
H2371 N2367 0.985 . S
H2372 N2366 0.984 . S
H2373 N2366 0.984 . S
H2374 N2362 0.984 . S
H2375 N2362 0.985 . S
C2376 C2377 1.363 . S
C2376 C2382 1.379 . S
C2376 N2384 1.356 . S
C2377 C2376 1.363 . S
C2377 C2383 1.373 . S
C2378 C2379 1.363 1_556 S
C2378 C2383 1.374 1_556 S
C2378 N2385 1.356 . S
C2379 C2378 1.363 1_554 S
C2379 C2382 1.363 . S
N2380 C2382 1.356 . S
N2380 H2392 0.984 . S
N2380 H2393 0.985 . S
N2381 C2383 1.354 1_556 S
N2381 H2386 0.984 1_556 S
N2381 H2387 0.985 . S
C2382 C2376 1.379 . S
C2382 C2379 1.363 . S
C2382 N2380 1.356 . S
C2383 C2377 1.373 . S
C2383 C2378 1.374 1_554 S
C2383 N2381 1.354 1_554 S
N2384 C2376 1.356 . S
N2384 H2390 0.984 . S
N2384 H2391 0.984 . S
N2385 C2378 1.356 . S
N2385 H2388 0.984 . S
N2385 H2389 0.985 . S
H2386 N2381 0.984 1_554 S
H2387 N2381 0.985 . S
H2388 N2385 0.984 . S
H2389 N2385 0.985 . S
H2390 N2384 0.984 . S
H2391 N2384 0.984 . S
H2392 N2380 0.984 . S
H2393 N2380 0.985 . S
C2394 C2395 1.363 . S
C2394 C2400 1.379 . S
C2394 N2402 1.356 . S
C2395 C2394 1.363 . S
C2395 C2401 1.363 . S
C2396 C2397 1.363 . S
C2396 C2401 1.379 . S
C2396 N2403 1.356 . S
C2397 C2396 1.363 . S
C2397 C2400 1.363 . S
N2398 C2400 1.356 . S
N2398 H2410 0.984 . S
N2398 H2411 0.985 . S
N2399 C2401 1.356 . S
N2399 H2404 0.984 . S
N2399 H2405 0.985 . S
C2400 C2394 1.379 . S
C2400 C2397 1.363 . S
C2400 N2398 1.356 . S
C2401 C2395 1.363 . S
C2401 C2396 1.379 . S
C2401 N2399 1.356 . S
N2402 C2394 1.356 . S
N2402 H2408 0.984 . S
N2402 H2409 0.984 . S
N2403 C2396 1.356 . S
N2403 H2406 0.984 . S
N2403 H2407 0.985 . S
H2404 N2399 0.984 . S
H2405 N2399 0.985 . S
H2406 N2403 0.984 . S
H2407 N2403 0.985 . S
H2408 N2402 0.984 . S
H2409 N2402 0.984 . S
H2410 N2398 0.984 . S
H2411 N2398 0.985 . S
C2412 C2413 1.363 . S
C2412 C2418 1.379 . S
C2412 N2420 1.356 . S
C2413 C2412 1.363 . S
C2413 C2419 1.363 . S
C2414 C2415 1.363 . S
C2414 C2419 1.379 . S
C2414 N2421 1.356 . S
C2415 C2414 1.363 . S
C2415 C2418 1.363 . S
N2416 C2418 1.356 . S
N2416 H2428 0.984 . S
N2416 H2429 0.985 . S
N2417 C2419 1.356 . S
N2417 H2422 0.984 . S
N2417 H2423 0.985 . S
C2418 C2412 1.379 . S
C2418 C2415 1.363 . S
C2418 N2416 1.356 . S
C2419 C2413 1.363 . S
C2419 C2414 1.379 . S
C2419 N2417 1.356 . S
N2420 C2412 1.356 . S
N2420 H2426 0.946 1_455 S
N2420 H2427 0.984 . S
N2421 C2414 1.356 . S
N2421 H2424 0.984 . S
N2421 H2425 0.985 . S
H2422 N2417 0.984 . S
H2423 N2417 0.985 . S
H2424 N2421 0.984 . S
H2425 N2421 0.985 . S
H2426 N2420 0.946 1_655 S
H2427 N2420 0.984 . S
H2428 N2416 0.984 . S
H2429 N2416 0.985 . S
C2430 C2431 1.363 . S
C2430 C2436 1.379 . S
C2430 N2438 1.356 . S
C2431 C2430 1.363 . S
C2431 C2437 1.363 . S
C2432 C2433 1.363 . S
C2432 C2437 1.379 . S
C2432 N2439 1.356 . S
C2433 C2432 1.363 . S
C2433 C2436 1.363 . S
N2434 C2436 1.356 . S
N2434 H2446 0.984 . S
N2434 H2447 0.985 . S
N2435 C2437 1.356 . S
N2435 H2440 0.984 . S
N2435 H2441 0.985 1_554 S
C2436 C2430 1.379 . S
C2436 C2433 1.363 . S
C2436 N2434 1.356 . S
C2437 C2431 1.363 . S
C2437 C2432 1.379 . S
C2437 N2435 1.356 . S
N2438 C2430 1.356 . S
N2438 H2444 0.984 . S
N2438 H2445 0.984 . S
N2439 C2432 1.356 . S
N2439 H2442 0.984 . S
N2439 H2443 0.985 . S
H2440 N2435 0.984 . S
H2441 N2435 0.985 1_556 S
H2442 N2439 0.984 . S
H2443 N2439 0.985 . S
H2444 N2438 0.984 . S
H2445 N2438 0.984 . S
H2446 N2434 0.984 . S
H2447 N2434 0.985 . S
C2448 C2449 1.363 . S
C2448 C2454 1.379 . S
C2448 N2456 1.356 . S
C2449 C2448 1.363 . S
C2449 C2455 1.363 . S
C2450 C2451 1.363 . S
C2450 C2455 1.379 . S
C2450 N2457 1.356 . S
C2451 C2450 1.363 . S
C2451 C2454 1.363 . S
N2452 C2454 1.356 . S
N2452 H2464 0.984 . S
N2452 H2465 0.985 . S
N2453 C2455 1.356 . S
N2453 H2458 0.984 . S
N2453 H2459 0.985 . S
C2454 C2448 1.379 . S
C2454 C2451 1.363 . S
C2454 N2452 1.356 . S
C2455 C2449 1.363 . S
C2455 C2450 1.379 . S
C2455 N2453 1.356 . S
N2456 C2448 1.356 . S
N2456 H2462 0.984 . S
N2456 H2463 0.984 . S
N2457 C2450 1.356 . S
N2457 H2460 0.984 . S
N2457 H2461 0.985 . S
H2458 N2453 0.984 . S
H2459 N2453 0.985 . S
H2460 N2457 0.984 . S
H2461 N2457 0.985 . S
H2462 N2456 0.984 . S
H2463 N2456 0.984 . S
H2464 N2452 0.984 . S
H2465 N2452 0.985 . S
C2466 C2467 1.363 . S
C2466 C2472 1.379 . S
C2466 N2474 1.356 . S
C2467 C2466 1.363 . S
C2467 C2473 1.363 . S
C2468 C2469 1.363 . S
C2468 C2473 1.379 . S
C2468 N2475 1.356 . S
C2469 C2468 1.363 . S
C2469 C2472 1.363 . S
N2470 C2472 1.356 . S
N2470 H2482 0.984 . S
N2470 H2483 0.985 . S
N2471 C2473 1.356 . S
N2471 H2476 0.984 . S
N2471 H2477 0.985 . S
C2472 C2466 1.379 . S
C2472 C2469 1.363 . S
C2472 N2470 1.356 . S
C2473 C2467 1.363 . S
C2473 C2468 1.379 . S
C2473 N2471 1.356 . S
N2474 C2466 1.356 . S
N2474 H2480 0.984 . S
N2474 H2481 0.984 . S
N2475 C2468 1.356 . S
N2475 H2478 0.984 . S
N2475 H2479 0.985 . S
H2476 N2471 0.984 . S
H2477 N2471 0.985 . S
H2478 N2475 0.984 . S
H2479 N2475 0.985 . S
H2480 N2474 0.984 . S
H2481 N2474 0.984 . S
H2482 N2470 0.984 . S
H2483 N2470 0.985 . S
C2484 C2485 1.363 . S
C2484 C2490 1.379 . S
C2484 N2492 1.356 1_655 S
C2485 C2484 1.363 . S
C2485 C2491 1.363 . S
C2486 C2487 1.363 . S
C2486 C2491 1.379 . S
C2486 N2493 1.356 . S
C2487 C2486 1.363 . S
C2487 C2490 1.363 . S
N2488 C2490 1.356 . S
N2488 H2500 0.984 . S
N2488 H2501 0.985 . S
N2489 C2491 1.356 . S
N2489 H2494 0.984 . S
N2489 H2495 0.985 . S
C2490 C2484 1.379 . S
C2490 C2487 1.363 . S
C2490 N2488 1.356 . S
C2491 C2485 1.363 . S
C2491 C2486 1.379 . S
C2491 N2489 1.356 . S
N2492 C2484 1.356 1_455 S
N2492 H2498 0.984 . S
N2492 H2499 0.984 . S
N2493 C2486 1.356 . S
N2493 H2496 0.984 . S
N2493 H2497 0.985 . S
H2494 N2489 0.984 . S
H2495 N2489 0.985 . S
H2496 N2493 0.984 . S
H2497 N2493 0.985 . S
H2498 N2492 0.984 . S
H2499 N2492 0.984 . S
H2500 N2488 0.984 . S
H2501 N2488 0.985 . S
C2502 C2503 1.363 . S
C2502 C2508 1.379 . S
C2502 N2510 1.356 . S
C2503 C2502 1.363 . S
C2503 C2509 1.363 . S
C2504 C2505 1.363 . S
C2504 C2509 1.379 . S
C2504 N2511 1.356 . S
C2505 C2504 1.363 . S
C2505 C2508 1.363 . S
N2506 C2508 1.356 . S
N2506 H2518 0.984 . S
N2506 H2519 0.985 . S
N2507 C2509 1.356 . S
N2507 H2512 0.984 . S
N2507 H2513 0.985 . S
C2508 C2502 1.379 . S
C2508 C2505 1.363 . S
C2508 N2506 1.356 . S
C2509 C2503 1.363 . S
C2509 C2504 1.379 . S
C2509 N2507 1.356 . S
N2510 C2502 1.356 . S
N2510 H2516 0.984 . S
N2510 H2517 0.984 . S
N2511 C2504 1.356 . S
N2511 H2514 0.984 . S
N2511 H2515 0.985 1_455 S
H2512 N2507 0.984 . S
H2513 N2507 0.985 . S
H2514 N2511 0.984 . S
H2515 N2511 0.985 1_655 S
H2516 N2510 0.984 . S
H2517 N2510 0.984 . S
H2518 N2506 0.984 . S
H2519 N2506 0.985 . S
C2520 C2521 1.363 . S
C2520 C2526 1.379 . S
C2520 N2528 1.356 . S
C2521 C2520 1.363 . S
C2521 C2527 1.363 . S
C2522 C2523 1.363 . S
C2522 C2527 1.379 . S
C2522 N2529 1.356 . S
C2523 C2522 1.363 . S
C2523 C2526 1.363 . S
N2524 C2526 1.356 . S
N2524 H2536 0.984 . S
N2524 H2537 0.985 . S
N2525 C2527 1.356 . S
N2525 H2530 0.984 . S
N2525 H2531 0.985 . S
C2526 C2520 1.379 . S
C2526 C2523 1.363 . S
C2526 N2524 1.356 . S
C2527 C2521 1.363 . S
C2527 C2522 1.379 . S
C2527 N2525 1.356 . S
N2528 C2520 1.356 . S
N2528 H2534 0.984 . S
N2528 H2535 0.984 . S
N2529 C2522 1.356 . S
N2529 H2532 0.984 . S
N2529 H2533 0.985 . S
H2530 N2525 0.984 . S
H2531 N2525 0.985 . S
H2532 N2529 0.984 . S
H2533 N2529 0.985 . S
H2534 N2528 0.984 . S
H2535 N2528 0.984 . S
H2536 N2524 0.984 . S
H2537 N2524 0.985 . S
C2538 C2539 1.363 . S
C2538 C2544 1.379 . S
C2538 N2546 1.356 . S
C2539 C2538 1.363 . S
C2539 C2545 1.363 . S
C2540 C2541 1.363 . S
C2540 C2545 1.379 . S
C2540 N2547 1.356 1_565 S
C2541 C2540 1.363 . S
C2541 C2544 1.363 . S
N2542 C2544 1.356 . S
N2542 H2554 0.984 . S
N2542 H2555 0.985 . S
N2543 C2545 1.356 . S
N2543 H2548 0.984 . S
N2543 H2549 0.985 1_565 S
C2544 C2538 1.379 . S
C2544 C2541 1.363 . S
C2544 N2542 1.356 . S
C2545 C2539 1.363 . S
C2545 C2540 1.379 . S
C2545 N2543 1.356 . S
N2546 C2538 1.356 . S
N2546 H2552 0.984 . S
N2546 H2553 0.984 . S
N2547 C2540 1.356 1_545 S
N2547 H2550 0.984 . S
N2547 H2551 0.985 . S
H2548 N2543 0.984 . S
H2549 N2543 0.985 1_545 S
H2550 N2547 0.984 . S
H2551 N2547 0.985 . S
H2552 N2546 0.984 . S
H2553 N2546 0.984 . S
H2554 N2542 0.984 . S
H2555 N2542 0.985 . S
C2556 C2557 1.363 . S
C2556 C2562 1.379 . S
C2556 N2564 1.356 . S
C2557 C2556 1.363 . S
C2557 C2563 1.363 . S
C2558 C2559 1.363 1_545 S
C2558 C2563 1.379 1_545 S
C2558 N2565 1.356 . S
C2559 C2558 1.363 1_565 S
C2559 C2562 1.363 . S
N2560 C2562 1.356 . S
N2560 H2572 0.984 . S
N2560 H2573 0.985 . S
N2561 C2563 1.356 1_545 S
N2561 H2566 0.984 1_545 S
N2561 H2567 0.985 . S
C2562 C2556 1.379 . S
C2562 C2559 1.363 . S
C2562 N2560 1.356 . S
C2563 C2557 1.363 . S
C2563 C2558 1.379 1_565 S
C2563 N2561 1.356 1_565 S
N2564 C2556 1.356 . S
N2564 H2570 0.984 . S
N2564 H2571 0.984 . S
N2565 C2558 1.356 . S
N2565 H2568 0.984 . S
N2565 H2569 0.985 . S
H2566 N2561 0.984 1_565 S
H2567 N2561 0.985 . S
H2568 N2565 0.984 . S
H2569 N2565 0.985 . S
H2570 N2564 0.984 . S
H2571 N2564 0.984 . S
H2572 N2560 0.984 . S
H2573 N2560 0.985 . S
C2574 C2575 1.363 . S
C2574 C2580 1.379 . S
C2574 N2582 1.356 . S
C2575 C2574 1.363 . S
C2575 C2581 1.363 . S
C2576 C2577 1.363 . S
C2576 C2581 1.379 . S
C2576 N2583 1.356 1_455 S
C2577 C2576 1.363 . S
C2577 C2580 1.363 . S
N2578 C2580 1.356 . S
N2578 H2590 0.984 . S
N2578 H2591 0.985 1_455 S
N2579 C2581 1.356 . S
N2579 H2584 0.984 . S
N2579 H2585 0.985 . S
C2580 C2574 1.379 . S
C2580 C2577 1.363 . S
C2580 N2578 1.356 . S
C2581 C2575 1.363 . S
C2581 C2576 1.379 . S
C2581 N2579 1.356 . S
N2582 C2574 1.356 . S
N2582 H2588 0.984 . S
N2582 H2589 0.984 . S
N2583 C2576 1.356 1_655 S
N2583 H2586 0.984 . S
N2583 H2587 0.985 . S
H2584 N2579 0.984 . S
H2585 N2579 0.985 . S
H2586 N2583 0.984 . S
H2587 N2583 0.985 . S
H2588 N2582 0.984 . S
H2589 N2582 0.984 . S
H2590 N2578 0.984 . S
H2591 N2578 0.985 1_655 S
C2592 C2593 1.363 . S
C2592 C2598 1.379 . S
C2592 N2600 1.356 . S
C2593 C2592 1.363 . S
C2593 C2599 1.363 . S
C2594 C2595 1.363 . S
C2594 C2599 1.379 . S
C2594 N2601 1.356 . S
C2595 C2594 1.363 . S
C2595 C2598 1.363 . S
N2596 C2598 1.356 . S
N2596 H2608 0.984 . S
N2596 H2609 0.985 . S
N2597 C2599 1.356 . S
N2597 H2602 0.984 . S
N2597 H2603 0.985 . S
C2598 C2592 1.379 . S
C2598 C2595 1.363 . S
C2598 N2596 1.356 . S
C2599 C2593 1.363 . S
C2599 C2594 1.379 . S
C2599 N2597 1.356 . S
N2600 C2592 1.356 . S
N2600 H2606 0.984 . S
N2600 H2607 0.984 . S
N2601 C2594 1.356 . S
N2601 H2604 0.984 . S
N2601 H2605 0.985 . S
H2602 N2597 0.984 . S
H2603 N2597 0.985 . S
H2604 N2601 0.984 . S
H2605 N2601 0.985 . S
H2606 N2600 0.984 . S
H2607 N2600 0.984 . S
H2608 N2596 0.984 . S
H2609 N2596 0.985 . S
C2610 C2611 1.363 . S
C2610 C2616 1.379 . S
C2610 N2618 1.356 . S
C2611 C2610 1.363 . S
C2611 C2617 1.363 . S
C2612 C2613 1.363 . S
C2612 C2617 1.379 . S
C2612 N2619 1.356 . S
C2613 C2612 1.363 . S
C2613 C2616 1.363 . S
N2614 C2616 1.356 . S
N2614 H2626 0.984 . S
N2614 H2627 0.985 . S
N2615 C2617 1.356 . S
N2615 H2620 0.984 . S
N2615 H2621 0.985 . S
C2616 C2610 1.379 . S
C2616 C2613 1.363 . S
C2616 N2614 1.356 . S
C2617 C2611 1.363 . S
C2617 C2612 1.379 . S
C2617 N2615 1.356 . S
N2618 C2610 1.356 . S
N2618 H2624 0.984 . S
N2618 H2625 0.984 . S
N2619 C2612 1.356 . S
N2619 H2622 0.984 . S
N2619 H2623 0.985 . S
H2620 N2615 0.984 . S
H2621 N2615 0.985 . S
H2622 N2619 0.984 . S
H2623 N2619 0.985 . S
H2624 N2618 0.984 . S
H2625 N2618 0.984 . S
H2626 N2614 0.984 . S
H2627 N2614 0.985 . S
C2628 C2629 1.363 . S
C2628 C2634 1.379 . S
C2628 N2636 1.356 . S
C2629 C2628 1.363 . S
C2629 C2635 1.363 . S
C2630 C2631 1.363 . S
C2630 C2635 1.379 . S
C2630 N2637 1.356 . S
C2631 C2630 1.363 . S
C2631 C2634 1.363 . S
N2632 C2634 1.356 . S
N2632 H2644 0.984 . S
N2632 H2645 0.985 . S
N2633 C2635 1.356 . S
N2633 H2638 0.984 . S
N2633 H2639 0.985 . S
C2634 C2628 1.379 . S
C2634 C2631 1.363 . S
C2634 N2632 1.356 . S
C2635 C2629 1.363 . S
C2635 C2630 1.379 . S
C2635 N2633 1.356 . S
N2636 C2628 1.356 . S
N2636 H2642 0.984 . S
N2636 H2643 0.984 . S
N2637 C2630 1.356 . S
N2637 H2640 0.984 . S
N2637 H2641 0.985 . S
H2638 N2633 0.984 . S
H2639 N2633 0.985 . S
H2640 N2637 0.984 . S
H2641 N2637 0.985 . S
H2642 N2636 0.984 . S
H2643 N2636 0.984 . S
H2644 N2632 0.984 . S
H2645 N2632 0.985 . S
C2646 C2647 1.363 . S
C2646 C2652 1.379 . S
C2646 N2654 1.356 . S
C2647 C2646 1.363 . S
C2647 C2653 1.363 . S
C2648 C2649 1.363 . S
C2648 C2653 1.379 . S
C2648 N2655 1.356 . S
C2649 C2648 1.363 . S
C2649 C2652 1.363 . S
N2650 C2652 1.356 . S
N2650 H2662 0.984 . S
N2650 H2663 0.985 . S
N2651 C2653 1.356 . S
N2651 H2656 0.984 1_655 S
N2651 H2657 0.985 . S
C2652 C2646 1.379 . S
C2652 C2649 1.363 . S
C2652 N2650 1.356 . S
C2653 C2647 1.363 . S
C2653 C2648 1.379 . S
C2653 N2651 1.356 . S
N2654 C2646 1.356 . S
N2654 H2660 0.984 . S
N2654 H2661 0.984 . S
N2655 C2648 1.356 . S
N2655 H2658 0.984 . S
N2655 H2659 0.985 . S
H2656 N2651 0.984 1_455 S
H2657 N2651 0.985 . S
H2658 N2655 0.984 . S
H2659 N2655 0.985 . S
H2660 N2654 0.984 . S
H2661 N2654 0.984 . S
H2662 N2650 0.984 . S
H2663 N2650 0.985 . S
C2664 C2665 1.363 . S
C2664 C2670 1.379 . S
C2664 N2672 1.356 . S
C2665 C2664 1.363 . S
C2665 C2671 1.363 . S
C2666 C2667 1.363 . S
C2666 C2671 1.379 . S
C2666 N2673 1.356 1_545 S
C2667 C2666 1.363 . S
C2667 C2670 1.363 . S
N2668 C2670 1.356 . S
N2668 H2680 0.984 . S
N2668 H2681 0.985 . S
N2669 C2671 1.356 1_565 S
N2669 H2674 0.984 1_565 S
N2669 H2675 0.985 . S
C2670 C2664 1.379 . S
C2670 C2667 1.363 . S
C2670 N2668 1.356 . S
C2671 C2665 1.363 . S
C2671 C2666 1.379 . S
C2671 N2669 1.356 1_545 S
N2672 C2664 1.356 . S
N2672 H2678 0.984 . S
N2672 H2679 0.984 . S
N2673 C2666 1.356 1_565 S
N2673 H2676 0.984 . S
N2673 H2677 0.985 . S
H2674 N2669 0.984 1_545 S
H2675 N2669 0.985 . S
H2676 N2673 0.984 . S
H2677 N2673 0.985 . S
H2678 N2672 0.984 . S
H2679 N2672 0.984 . S
H2680 N2668 0.984 . S
H2681 N2668 0.985 . S
C2682 C2683 1.363 . S
C2682 C2688 1.379 . S
C2682 N2690 1.356 . S
C2683 C2682 1.363 . S
C2683 C2689 1.363 . S
C2684 C2685 1.363 . S
C2684 C2689 1.379 . S
C2684 N2691 1.356 1_655 S
C2685 C2684 1.363 . S
C2685 C2688 1.363 . S
N2686 C2688 1.356 . S
N2686 H2698 0.984 . S
N2686 H2699 0.985 . S
N2687 C2689 1.356 . S
N2687 H2692 0.984 . S
N2687 H2693 0.985 1_655 S
C2688 C2682 1.379 . S
C2688 C2685 1.363 . S
C2688 N2686 1.356 . S
C2689 C2683 1.363 . S
C2689 C2684 1.379 . S
C2689 N2687 1.356 . S
N2690 C2682 1.356 . S
N2690 H2696 0.984 . S
N2690 H2697 0.984 . S
N2691 C2684 1.356 1_455 S
N2691 H2694 0.984 . S
N2691 H2695 0.985 . S
H2692 N2687 0.984 . S
H2693 N2687 0.985 1_455 S
H2694 N2691 0.984 . S
H2695 N2691 0.985 . S
H2696 N2690 0.984 . S
H2697 N2690 0.984 . S
H2698 N2686 0.984 . S
H2699 N2686 0.985 . S
C2700 C2701 1.363 . S
C2700 C2706 1.379 . S
C2700 N2708 1.356 . S
C2701 C2700 1.363 . S
C2701 C2707 1.363 . S
C2702 C2703 1.363 . S
C2702 C2707 1.379 . S
C2702 N2709 1.356 . S
C2703 C2702 1.363 . S
C2703 C2706 1.363 . S
N2704 C2706 1.356 . S
N2704 H2716 0.984 . S
N2704 H2717 0.985 . S
N2705 C2707 1.356 . S
N2705 H2710 0.984 . S
N2705 H2711 0.985 . S
C2706 C2700 1.379 . S
C2706 C2703 1.363 . S
C2706 N2704 1.356 . S
C2707 C2701 1.363 . S
C2707 C2702 1.379 . S
C2707 N2705 1.356 . S
N2708 C2700 1.356 . S
N2708 H2714 0.984 . S
N2708 H2715 0.984 . S
N2709 C2702 1.356 . S
N2709 H2712 0.984 . S
N2709 H2713 0.985 . S
H2710 N2705 0.984 . S
H2711 N2705 0.985 . S
H2712 N2709 0.984 . S
H2713 N2709 0.985 . S
H2714 N2708 0.984 . S
H2715 N2708 0.984 . S
H2716 N2704 0.984 . S
H2717 N2704 0.985 . S
C2718 C2719 1.363 . S
C2718 C2724 1.379 . S
C2718 N2726 1.356 . S
C2719 C2718 1.363 . S
C2719 C2725 1.363 . S
C2720 C2721 1.363 . S
C2720 C2725 1.379 . S
C2720 N2727 1.356 . S
C2721 C2720 1.363 . S
C2721 C2724 1.363 . S
N2722 C2724 1.356 . S
N2722 H2734 0.984 . S
N2722 H2735 0.985 . S
N2723 C2725 1.356 . S
N2723 H2728 0.984 . S
N2723 H2729 0.985 . S
C2724 C2718 1.379 . S
C2724 C2721 1.363 . S
C2724 N2722 1.356 . S
C2725 C2719 1.363 . S
C2725 C2720 1.379 . S
C2725 N2723 1.356 . S
N2726 C2718 1.356 . S
N2726 H2732 0.984 . S
N2726 H2733 0.984 . S
N2727 C2720 1.356 . S
N2727 H2730 0.984 . S
N2727 H2731 0.985 . S
H2728 N2723 0.984 . S
H2729 N2723 0.985 . S
H2730 N2727 0.984 . S
H2731 N2727 0.985 . S
H2732 N2726 0.984 . S
H2733 N2726 0.984 . S
H2734 N2722 0.984 . S
H2735 N2722 0.985 . S
C2736 C2737 1.363 . S
C2736 C2742 1.379 . S
C2736 N2744 1.356 . S
C2737 C2736 1.363 . S
C2737 C2743 1.363 . S
C2738 C2739 1.363 . S
C2738 C2743 1.379 . S
C2738 N2745 1.356 . S
C2739 C2738 1.363 . S
C2739 C2742 1.363 . S
N2740 C2742 1.356 . S
N2740 H2752 0.984 . S
N2740 H2753 0.985 . S
N2741 C2743 1.356 . S
N2741 H2746 0.984 1_565 S
N2741 H2747 0.985 . S
C2742 C2736 1.379 . S
C2742 C2739 1.363 . S
C2742 N2740 1.356 . S
C2743 C2737 1.363 . S
C2743 C2738 1.379 . S
C2743 N2741 1.356 . S
N2744 C2736 1.356 . S
N2744 H2750 0.984 . S
N2744 H2751 0.984 . S
N2745 C2738 1.356 . S
N2745 H2748 0.984 . S
N2745 H2749 0.985 . S
H2746 N2741 0.984 1_545 S
H2747 N2741 0.985 . S
H2748 N2745 0.984 . S
H2749 N2745 0.985 . S
H2750 N2744 0.984 . S
H2751 N2744 0.984 . S
H2752 N2740 0.984 . S
H2753 N2740 0.985 . S
C2754 C2755 1.363 . S
C2754 C2760 1.379 . S
C2754 N2762 1.356 . S
C2755 C2754 1.363 . S
C2755 C2761 1.363 . S
C2756 C2757 1.363 . S
C2756 C2761 1.379 . S
C2756 N2763 1.356 . S
C2757 C2756 1.363 . S
C2757 C2760 1.363 . S
N2758 C2760 1.356 . S
N2758 H2770 0.984 . S
N2758 H2771 0.985 . S
N2759 C2761 1.356 . S
N2759 H2764 0.984 . S
N2759 H2765 0.985 . S
C2760 C2754 1.379 . S
C2760 C2757 1.363 . S
C2760 N2758 1.356 . S
C2761 C2755 1.363 . S
C2761 C2756 1.379 . S
C2761 N2759 1.356 . S
N2762 C2754 1.356 . S
N2762 H2768 0.984 . S
N2762 H2769 0.984 . S
N2763 C2756 1.356 . S
N2763 H2766 0.984 . S
N2763 H2767 0.985 . S
H2764 N2759 0.984 . S
H2765 N2759 0.985 . S
H2766 N2763 0.984 . S
H2767 N2763 0.985 . S
H2768 N2762 0.984 . S
H2769 N2762 0.984 . S
H2770 N2758 0.984 . S
H2771 N2758 0.985 . S
C2772 C2773 1.363 . S
C2772 C2778 1.379 . S
C2772 N2780 1.356 . S
C2773 C2772 1.363 . S
C2773 C2779 1.363 . S
C2774 C2775 1.363 . S
C2774 C2779 1.379 . S
C2774 N2781 1.356 . S
C2775 C2774 1.363 . S
C2775 C2778 1.363 . S
N2776 C2778 1.356 . S
N2776 H2788 0.984 . S
N2776 H2789 0.985 . S
N2777 C2779 1.356 . S
N2777 H2782 0.984 . S
N2777 H2783 0.985 . S
C2778 C2772 1.379 . S
C2778 C2775 1.363 . S
C2778 N2776 1.356 . S
C2779 C2773 1.363 . S
C2779 C2774 1.379 . S
C2779 N2777 1.356 . S
N2780 C2772 1.356 . S
N2780 H2786 0.984 . S
N2780 H2787 0.984 . S
N2781 C2774 1.356 . S
N2781 H2784 0.984 . S
N2781 H2785 0.985 . S
H2782 N2777 0.984 . S
H2783 N2777 0.985 . S
H2784 N2781 0.984 . S
H2785 N2781 0.985 . S
H2786 N2780 0.984 . S
H2787 N2780 0.984 . S
H2788 N2776 0.984 . S
H2789 N2776 0.985 . S
C2790 C2791 1.363 . S
C2790 C2796 1.379 . S
C2790 N2798 1.356 . S
C2791 C2790 1.363 . S
C2791 C2797 1.363 . S
C2792 C2793 1.363 . S
C2792 C2797 1.379 . S
C2792 N2799 1.356 . S
C2793 C2792 1.363 . S
C2793 C2796 1.363 . S
N2794 C2796 1.356 . S
N2794 H2806 0.984 . S
N2794 H2807 0.985 . S
N2795 C2797 1.356 . S
N2795 H2800 0.984 . S
N2795 H2801 0.985 . S
C2796 C2790 1.379 . S
C2796 C2793 1.363 . S
C2796 N2794 1.356 . S
C2797 C2791 1.363 . S
C2797 C2792 1.379 . S
C2797 N2795 1.356 . S
N2798 C2790 1.356 . S
N2798 H2804 0.984 . S
N2798 H2805 0.984 . S
N2799 C2792 1.356 . S
N2799 H2802 0.984 . S
N2799 H2803 0.985 . S
H2800 N2795 0.984 . S
H2801 N2795 0.985 . S
H2802 N2799 0.984 . S
H2803 N2799 0.985 . S
H2804 N2798 0.984 . S
H2805 N2798 0.984 . S
H2806 N2794 0.984 . S
H2807 N2794 0.985 . S
C2808 C2809 1.363 . S
C2808 C2814 1.379 . S
C2808 N2816 1.356 . S
C2809 C2808 1.363 . S
C2809 C2815 1.363 . S
C2810 C2811 1.363 . S
C2810 C2815 1.379 . S
C2810 N2817 1.356 . S
C2811 C2810 1.363 . S
C2811 C2814 1.363 . S
N2812 C2814 1.356 . S
N2812 H2824 0.984 . S
N2812 H2825 0.985 . S
N2813 C2815 1.356 . S
N2813 H2818 0.984 1_455 S
N2813 H2819 0.985 . S
C2814 C2808 1.379 . S
C2814 C2811 1.363 . S
C2814 N2812 1.356 . S
C2815 C2809 1.363 . S
C2815 C2810 1.379 . S
C2815 N2813 1.356 . S
N2816 C2808 1.356 . S
N2816 H2822 0.984 . S
N2816 H2823 0.984 . S
N2817 C2810 1.356 . S
N2817 H2820 0.984 . S
N2817 H2821 0.985 . S
H2818 N2813 0.984 1_655 S
H2819 N2813 0.985 . S
H2820 N2817 0.984 . S
H2821 N2817 0.985 . S
H2822 N2816 0.984 . S
H2823 N2816 0.984 . S
H2824 N2812 0.984 . S
H2825 N2812 0.985 . S
C2826 C2827 1.363 . S
C2826 C2832 1.379 . S
C2826 N2834 1.356 . S
C2827 C2826 1.363 . S
C2827 C2833 1.363 . S
C2828 C2829 1.363 . S
C2828 C2833 1.379 . S
C2828 N2835 1.356 . S
C2829 C2828 1.363 . S
C2829 C2832 1.363 . S
N2830 C2832 1.356 1_455 S
N2830 H2842 0.984 . S
N2830 H2843 0.985 . S
N2831 C2833 1.356 . S
N2831 H2836 0.984 . S
N2831 H2837 0.985 . S
C2832 C2826 1.379 . S
C2832 C2829 1.363 . S
C2832 N2830 1.356 1_655 S
C2833 C2827 1.363 . S
C2833 C2828 1.379 . S
C2833 N2831 1.356 . S
N2834 C2826 1.356 . S
N2834 H2840 0.984 1_655 S
N2834 H2841 0.984 . S
N2835 C2828 1.356 . S
N2835 H2838 0.984 . S
N2835 H2839 0.985 . S
H2836 N2831 0.984 . S
H2837 N2831 0.985 . S
H2838 N2835 0.984 . S
H2839 N2835 0.985 . S
H2840 N2834 0.984 1_455 S
H2841 N2834 0.984 . S
H2842 N2830 0.984 . S
H2843 N2830 0.985 . S
C2844 C2845 1.363 . S
C2844 C2850 1.379 . S
C2844 N2852 1.356 . S
C2845 C2844 1.363 . S
C2845 C2851 1.363 . S
C2846 C2847 1.363 . S
C2846 C2851 1.379 . S
C2846 N2853 1.356 . S
C2847 C2846 1.363 . S
C2847 C2850 1.363 . S
N2848 C2850 1.356 . S
N2848 H2860 0.984 . S
N2848 H2861 0.985 . S
N2849 C2851 1.356 . S
N2849 H2854 0.984 . S
N2849 H2855 0.985 . S
C2850 C2844 1.379 . S
C2850 C2847 1.363 . S
C2850 N2848 1.356 . S
C2851 C2845 1.363 . S
C2851 C2846 1.379 . S
C2851 N2849 1.356 . S
N2852 C2844 1.356 . S
N2852 H2858 0.984 . S
N2852 H2859 0.984 . S
N2853 C2846 1.356 . S
N2853 H2856 0.984 . S
N2853 H2857 0.985 . S
H2854 N2849 0.984 . S
H2855 N2849 0.985 . S
H2856 N2853 0.984 . S
H2857 N2853 0.985 . S
H2858 N2852 0.984 . S
H2859 N2852 0.984 . S
H2860 N2848 0.984 . S
H2861 N2848 0.985 . S
C2862 C2863 1.363 . S
C2862 C2868 1.379 1_545 S
C2862 N2870 1.356 . S
C2863 C2862 1.363 . S
C2863 C2869 1.363 . S
C2864 C2865 1.363 . S
C2864 C2869 1.379 . S
C2864 N2871 1.356 . S
C2865 C2864 1.363 . S
C2865 C2868 1.363 1_545 S
N2866 C2868 1.356 . S
N2866 H2878 0.984 . S
N2866 H2879 0.985 . S
N2867 C2869 1.356 . S
N2867 H2872 0.984 . S
N2867 H2873 0.985 . S
C2868 C2862 1.379 1_565 S
C2868 C2865 1.363 1_565 S
C2868 N2866 1.356 . S
C2869 C2863 1.363 . S
C2869 C2864 1.379 . S
C2869 N2867 1.356 . S
N2870 C2862 1.356 . S
N2870 H2876 0.984 1_545 S
N2870 H2877 0.984 . S
N2871 C2864 1.356 . S
N2871 H2874 0.984 . S
N2871 H2875 0.985 . S
H2872 N2867 0.984 . S
H2873 N2867 0.985 . S
H2874 N2871 0.984 . S
H2875 N2871 0.985 . S
H2876 N2870 0.984 1_565 S
H2877 N2870 0.984 . S
H2878 N2866 0.984 . S
H2879 N2866 0.985 . S
C1585 C13 1.267 . S
C1587 C981 1.281 . S
C1603 C27 1.398 . S
C1605 C1061 1.444 . S
C1623 C1129 1.329 . S
C1621 C36 1.303 . S
C1639 C41 1.672 . S
C1641 C1209 1.684 . S
C1657 C8 1.507 . S
C1659 C1283 1.582 . S
C1675 C22 1.547 . S
C1677 C1351 1.491 . S
C1693 C55 1.255 1_556 S
C1695 C1277 1.245 . S
C1713 C1357 1.375 . S
C1711 C69 1.327 . S
C1731 C1203 1.353 . S
C1729 C78 1.255 1_556 S
C1747 C83 1.699 . S
C1749 C1135 1.687 1_545 S
C1767 C987 1.572 . S
C1765 C50 1.455 . S
C1783 C64 1.359 . S
C1785 C1055 1.399 . S
C1801 C97 1.451 . S
C1803 C1425 1.459 . S
C1819 C111 1.451 . S
C1821 C1505 1.488 . S
C1839 C1573 1.503 . S
C1837 C120 1.607 . S
C1855 C125 1.814 . S
C1857 C321 1.803 . S
C1873 C92 1.800 . S
C1875 C395 1.755 . S
C1891 C106 1.601 . S
C1893 C463 1.519 . S
C1909 C139 1.211 . S
C1911 C389 1.250 . S
C1927 C153 1.363 . S
C1929 C469 1.404 . S
C1947 C315 1.393 . S
C1945 C162 1.362 . S
C1965 C1579 1.774 . S
C1963 C167 1.752 . S
C1983 C1431 1.618 . S
C1981 C134 1.575 . S
C2001 C1499 1.428 . S
C1999 C148 1.409 . S
C2017 C181 1.394 . S
C2019 C537 1.394 . S
C2035 C195 1.460 . S
C2037 C617 1.487 . S
C2053 C204 1.617 . S
C2055 C685 1.525 . S
C2071 C209 1.871 . S
C2073 C765 1.862 . S
C2091 C839 1.746 . S
C2089 C176 1.803 . S
C2109 C907 1.549 . S
C2107 C190 1.646 . S
C2127 C833 1.325 . S
C2125 C223 1.272 . S
C2145 C913 1.390 . S
C2143 C237 1.339 . S
C2161 C246 1.330 . S
C2163 C759 1.349 . S
C2181 C691 1.706 . S
C2179 C251 1.691 . S
C2197 C218 1.588 . S
C2199 C543 1.643 . S
C2217 C611 1.410 . S
C2215 C232 1.381 . S
C2235 C291 1.936 . S
C2233 C11 1.923 . S
C2251 C25 1.381 . S
C2253 C365 1.398 . S
C2271 C451 1.509 . S
C2269 C35 1.525 . S
C2289 C525 1.349 . S
C2287 C39 1.345 . S
C2307 C587 1.635 . S
C2305 C7 1.667 1_556 S
C2325 C673 1.570 1_554 S
C2323 C21 1.595 . S
C2341 C53 2.120 . S
C2343 C661 2.067 . S
C2359 C67 1.641 . S
C2361 C513 1.576 . S
C2377 C77 1.820 . S
C2379 C599 1.734 1_554 S
C2395 C81 1.664 . S
C2397 C377 1.625 . S
C2415 C439 1.785 . S
C2413 C49 1.921 . S
C2431 C63 1.909 . S
C2433 C303 1.803 . S
C2451 C735 1.863 . S
C2449 C95 1.866 . S
C2467 C109 1.457 . S
C2469 C809 1.463 . S
C2485 C119 1.556 1_655 S
C2487 C895 1.528 . S
C2505 C969 1.148 . S
C2503 C123 1.167 . S
C2521 C91 1.570 . S
C2523 C1031 1.544 . S
C2539 C105 1.381 . S
C2541 C1117 1.385 . S
C2557 C137 1.823 . S
C2559 C1105 1.774 1_565 S
C2575 C151 1.326 . S
C2577 C957 1.296 1_455 S
C2595 C1043 1.632 . S
C2593 C161 1.712 . S
C2611 C165 1.659 . S
C2613 C821 1.601 . S
C2629 C133 1.914 . S
C2631 C883 1.785 . S
C2649 C747 1.833 . S
C2647 C147 1.944 1_655 S
C2667 C1179 1.733 . S
C2665 C179 1.758 . S
C2683 C193 1.178 . S
C2685 C1253 1.172 . S
C2701 C203 1.449 . S
C2703 C1339 1.433 . S
C2721 C1413 1.336 . S
C2719 C207 1.347 . S
C2739 C1475 1.648 . S
C2737 C175 1.692 . S
C2755 C189 1.658 . S
C2757 C1561 1.610 . S
C2773 C221 2.069 . S
C2775 C1549 2.000 . S
C2791 C235 1.707 . S
C2793 C1401 1.632 . S
C2811 C1487 1.731 . S
C2809 C245 1.834 1_455 S
C2829 C1265 1.268 . S
C2827 C249 1.297 . S
C2847 C1327 1.689 . S
C2845 C217 1.805 . S
C2863 C231 1.557 . S
C2865 C1191 1.514 . S
