# Generated by pormake.
# Topology zzz, (3,6)-cn, num edge types: 1
# Building blocks:
#     Node 0, Type 0, BuildingBlock: PAMTOO_clean_linker_0, # of connection points: 3
#     Node 1, Type 0, BuildingBlock: PAMTOO_clean_linker_0, # of connection points: 3
#     Node 2, Type 0, BuildingBlock: PAMTOO_clean_linker_0, # of connection points: 3
#     Node 3, Type 0, BuildingBlock: PAMTOO_clean_linker_0, # of connection points: 3
#     Node 4, Type 0, BuildingBlock: PAMTOO_clean_linker_0, # of connection points: 3
#     Node 5, Type 0, BuildingBlock: PAMTOO_clean_linker_0, # of connection points: 3
#     Node 6, Type 0, BuildingBlock: PAMTOO_clean_linker_0, # of connection points: 3
#     Node 7, Type 0, BuildingBlock: PAMTOO_clean_linker_0, # of connection points: 3
#     Node 8, Type 1, BuildingBlock: LEVNOQ01_clean_sbu_1, # of connection points: 6
#     Node 9, Type 1, BuildingBlock: LEVNOQ01_clean_sbu_1, # of connection points: 6
#     Node 10, Type 1, BuildingBlock: LEVNOQ01_clean_sbu_1, # of connection points: 6
#     Node 11, Type 1, BuildingBlock: LEVNOQ01_clean_sbu_1, # of connection points: 6
#     Edge 12, Type (0, 1), BuildingBlock: TEMPAE_clean_linker_10, # of connection points: 2
#     Edge 13, Type (0, 1), BuildingBlock: TEMPAE_clean_linker_10, # of connection points: 2
#     Edge 14, Type (0, 1), BuildingBlock: TEMPAE_clean_linker_10, # of connection points: 2
#     Edge 15, Type (0, 1), BuildingBlock: TEMPAE_clean_linker_10, # of connection points: 2
#     Edge 16, Type (0, 1), BuildingBlock: TEMPAE_clean_linker_10, # of connection points: 2
#     Edge 17, Type (0, 1), BuildingBlock: TEMPAE_clean_linker_10, # of connection points: 2
#     Edge 18, Type (0, 1), BuildingBlock: TEMPAE_clean_linker_10, # of connection points: 2
#     Edge 19, Type (0, 1), BuildingBlock: TEMPAE_clean_linker_10, # of connection points: 2
#     Edge 20, Type (0, 1), BuildingBlock: TEMPAE_clean_linker_10, # of connection points: 2
#     Edge 21, Type (0, 1), BuildingBlock: TEMPAE_clean_linker_10, # of connection points: 2
#     Edge 22, Type (0, 1), BuildingBlock: TEMPAE_clean_linker_10, # of connection points: 2
#     Edge 23, Type (0, 1), BuildingBlock: TEMPAE_clean_linker_10, # of connection points: 2
#     Edge 24, Type (0, 1), BuildingBlock: TEMPAE_clean_linker_10, # of connection points: 2
#     Edge 25, Type (0, 1), BuildingBlock: TEMPAE_clean_linker_10, # of connection points: 2
#     Edge 26, Type (0, 1), BuildingBlock: TEMPAE_clean_linker_10, # of connection points: 2
#     Edge 27, Type (0, 1), BuildingBlock: TEMPAE_clean_linker_10, # of connection points: 2
#     Edge 28, Type (0, 1), BuildingBlock: TEMPAE_clean_linker_10, # of connection points: 2
#     Edge 29, Type (0, 1), BuildingBlock: TEMPAE_clean_linker_10, # of connection points: 2
#     Edge 30, Type (0, 1), BuildingBlock: TEMPAE_clean_linker_10, # of connection points: 2
#     Edge 31, Type (0, 1), BuildingBlock: TEMPAE_clean_linker_10, # of connection points: 2
#     Edge 32, Type (0, 1), BuildingBlock: TEMPAE_clean_linker_10, # of connection points: 2
#     Edge 33, Type (0, 1), BuildingBlock: TEMPAE_clean_linker_10, # of connection points: 2
#     Edge 34, Type (0, 1), BuildingBlock: TEMPAE_clean_linker_10, # of connection points: 2
#     Edge 35, Type (0, 1), BuildingBlock: TEMPAE_clean_linker_10, # of connection points: 2
# Relax obj value: 0.134
# Max RMSD: 0.181
# Mean RMSD: 0.104
data_MOF--net-zzz--node1-LEVNOQ01_clean_sbu_1--node2-PAMTOO_clean_linker_0--edge1-TEMPAE_clean_linker_10
_symmetry_space_group_name_H-M    P1
_symmetry_Int_Tables_number       1
_symmetry_cell_setting            triclinic
loop_
_symmetry_equiv_pos_as_xyz
'x, y, z'
_cell_length_a     50.620647
_cell_length_b     50.525086
_cell_length_c     16.05148
_cell_angle_alpha  89.736153
_cell_angle_beta   90.114395
_cell_angle_gamma 90.009199
loop_
_atom_site_label
_atom_site_type_symbol
_atom_site_fract_x
_atom_site_fract_y
_atom_site_fract_z
_atom_type_partial_charge
H0 H 0.84327 0.56936 0.2023 0.0
H1 H 0.77583 0.57207 0.03916 0.0
H2 H 0.76687 0.54772 0.29534 0.0
H3 H 0.72699 0.52095 0.18236 0.0
C4 C 0.73182 0.53309 0.12647 0.0
O5 O 0.74179 0.55717 0.15245 0.0
H6 H 0.74693 0.5219 0.09052 0.0
C7 C 0.82205 0.56806 0.19287 0.0
C8 C 0.80647 0.5588 0.25818 0.0
C9 C 0.81141 0.57266 0.11365 0.0
C10 C 0.78422 0.56924 0.10073 0.0
C11 C 0.76794 0.56094 0.16666 0.0
C12 C 0.77915 0.55537 0.24557 0.0
H13 H 0.96585 0.83796 0.22278 0.0
H14 H 0.96449 0.77065 0.06001 0.0
H15 H 0.97797 0.76013 0.32366 0.0
H16 H 0.0065 0.71864 0.21731 0.0
C17 C 0.99611 0.72373 0.15829 0.0
O18 O 0.9723 0.73559 0.17808 0.0
H19 H 0.00887 0.73771 0.1226 0.0
C20 C 0.96618 0.81665 0.21398 0.0
C21 C 0.97139 0.80049 0.28248 0.0
C22 C 0.96385 0.80628 0.13376 0.0
C23 C 0.96579 0.77888 0.12212 0.0
C24 C 0.97026 0.76205 0.1907 0.0
C25 C 0.97349 0.77293 0.2712 0.0
H26 H 0.68179 0.94652 0.18909 0.0
H27 H 0.75002 0.94172 0.03098 0.0
H28 H 0.75684 0.97394 0.27805 0.0
H29 H 0.79468 0.99959 0.15602 0.0
C30 C 0.79103 0.98524 0.10497 0.0
O31 O 0.78278 0.96156 0.1398 0.0
H32 H 0.77531 0.99387 0.06442 0.0
C33 C 0.70301 0.94817 0.18061 0.0
C34 C 0.71788 0.96015 0.24312 0.0
C35 C 0.71417 0.94184 0.10357 0.0
C36 C 0.7413 0.9457 0.09124 0.0
C37 C 0.75692 0.95654 0.15488 0.0
C38 C 0.74514 0.96406 0.23094 0.0
H39 H 0.55801 0.68656 0.1724 0.0
H40 H 0.5617 0.75883 0.03214 0.0
H41 H 0.55446 0.76091 0.30043 0.0
H42 H 0.52708 0.81179 0.21382 0.0
C43 C 0.53253 0.80341 0.15233 0.0
O44 O 0.55617 0.78988 0.16133 0.0
H45 H 0.51638 0.78971 0.13315 0.0
C46 C 0.55868 0.70806 0.17122 0.0
C47 C 0.55727 0.72184 0.24598 0.0
C48 C 0.56136 0.72098 0.09488 0.0
C49 C 0.56028 0.74861 0.09146 0.0
C50 C 0.55738 0.7631 0.16552 0.0
C51 C 0.55608 0.74972 0.2433 0.0
H52 H 0.19105 0.45876 0.22805 0.0
H53 H 0.26062 0.47215 0.37277 0.0
H54 H 0.26669 0.46208 0.10642 0.0
H55 H 0.31965 0.44094 0.21314 0.0
C56 C 0.31066 0.44917 0.27058 0.0
O57 O 0.29368 0.46951 0.24782 0.0
H58 H 0.29972 0.43276 0.30175 0.0
C59 C 0.21247 0.45985 0.23113 0.0
C60 C 0.22716 0.45904 0.15772 0.0
C61 C 0.22428 0.46432 0.30804 0.0
C62 C 0.25157 0.46793 0.31319 0.0
C63 C 0.26714 0.46623 0.24109 0.0
C64 C 0.25487 0.46228 0.16256 0.0
H65 H 0.08058 0.1877 0.24935 0.0
H66 H 0.07808 0.25977 0.38954 0.0
H67 H 0.06271 0.2611 0.12558 0.0
H68 H 0.03067 0.28684 0.30789 0.0
C69 C 0.04403 0.30154 0.27768 0.0
O70 O 0.06851 0.29051 0.26147 0.0
H71 H 0.03493 0.30735 0.21721 0.0
C72 C 0.07941 0.20918 0.25074 0.0
C73 C 0.07215 0.22271 0.17833 0.0
C74 C 0.08092 0.22217 0.32714 0.0
C75 C 0.0777 0.24967 0.33015 0.0
C76 C 0.07224 0.26397 0.25695 0.0
C77 C 0.0689 0.25039 0.18086 0.0
H78 H 0.34058 0.06847 0.24137 0.0
H79 H 0.27077 0.06326 0.39124 0.0
H80 H 0.26646 0.04858 0.12692 0.0
H81 H 0.21046 0.0701 0.20437 0.0
C82 C 0.21968 0.06958 0.2672 0.0
O83 O 0.23931 0.05048 0.26818 0.0
H84 H 0.22816 0.08957 0.27907 0.0
C85 C 0.3193 0.06615 0.24542 0.0
C86 C 0.30513 0.05944 0.17387 0.0
C87 C 0.30722 0.06809 0.32332 0.0
C88 C 0.2802 0.06268 0.33074 0.0
C89 C 0.26533 0.05616 0.25968 0.0
C90 C 0.27784 0.05427 0.18115 0.0
H91 H 0.45963 0.33507 0.23019 0.0
H92 H 0.46891 0.26749 0.39071 0.0
H93 H 0.48293 0.26049 0.12672 0.0
H94 H 0.46353 0.20393 0.21498 0.0
C95 C 0.46346 0.21458 0.27534 0.0
O96 O 0.48193 0.23482 0.27196 0.0
H97 H 0.44322 0.22277 0.28435 0.0
C98 C 0.46299 0.31397 0.23794 0.0
C99 C 0.47035 0.2992 0.16863 0.0
C100 C 0.46229 0.3029 0.31788 0.0
C101 C 0.46871 0.27615 0.32883 0.0
C102 C 0.47541 0.26058 0.25975 0.0
C103 C 0.47672 0.27222 0.17947 0.0
O104 O 0.04844 0.9741 0.89061 0.0
Mg105 Mg 0.05783 0.97717 0.76205 0.0
O106 O 0.01184 0.98482 0.82798 0.0
Mg107 Mg 0.01536 0.01392 0.72037 0.0
O108 O 0.0612 0.01209 0.69632 0.0
O109 O 0.0956 0.98624 0.72951 0.0
O110 O 0.01799 0.04338 0.60956 0.0
O111 O 0.02748 0.04924 0.81285 0.0
Mg112 Mg 0.98022 0.05069 0.76044 0.0
O113 O 0.9677 0.01316 0.74222 0.0
O114 O 0.99646 0.07561 0.67055 0.0
O115 O 0.99194 0.05981 0.88168 0.0
O116 O 0.94118 0.04899 0.74975 0.0
C117 C 0.01778 0.95415 0.63832 0.0
C118 C 0.02356 0.97267 0.8865 0.0
C119 C 0.08642 0.00697 0.69205 0.0
C120 C 0.0117 0.06769 0.61393 0.0
C121 C 0.01656 0.06186 0.8724 0.0
C122 C 0.94408 0.0236 0.74929 0.0
O123 O 0.03696 0.94962 0.68757 0.0
O124 O 0.00765 0.97738 0.63179 0.0
O125 O 0.44599 0.99184 0.73742 0.0
Mg126 Mg 0.47152 0.97235 0.65118 0.0
O127 O 0.47593 0.01731 0.80077 0.0
Mg128 Mg 0.51291 0.01247 0.71384 0.0
O129 O 0.50643 0.96686 0.71412 0.0
O130 O 0.48184 0.93327 0.66985 0.0
O131 O 0.55041 0.0079 0.62733 0.0
O132 O 0.54014 0.00226 0.82044 0.0
Mg133 Mg 0.55462 0.05459 0.77666 0.0
O134 O 0.51917 0.05776 0.71653 0.0
O135 O 0.57887 0.03611 0.68553 0.0
O136 O 0.55605 0.03488 0.89417 0.0
O137 O 0.54157 0.09314 0.75749 0.0
C138 C 0.47308 0.01472 0.54355 0.0
C139 C 0.45229 0.00845 0.79345 0.0
C140 C 0.50196 0.9415 0.71195 0.0
C141 C 0.57354 0.01838 0.63179 0.0
C142 C 0.5537 0.01025 0.88176 0.0
C143 C 0.52201 0.08332 0.71618 0.0
O144 O 0.47195 0.99005 0.53101 0.0
O145 O 0.48561 0.02312 0.60653 0.0
O146 O 0.52952 0.44478 0.73653 0.0
Mg147 Mg 0.55055 0.47193 0.66041 0.0
O148 O 0.50515 0.4749 0.80125 0.0
Mg149 Mg 0.51383 0.51093 0.71019 0.0
O150 O 0.56003 0.50509 0.7286 0.0
O151 O 0.58965 0.47511 0.68617 0.0
O152 O 0.52248 0.54668 0.61956 0.0
O153 O 0.521 0.53972 0.81677 0.0
Mg154 Mg 0.47132 0.55434 0.74681 0.0
O155 O 0.46879 0.51796 0.69263 0.0
O156 O 0.49364 0.57753 0.6602 0.0
O157 O 0.48488 0.55558 0.87198 0.0
O158 O 0.43343 0.54296 0.71499 0.0
C159 C 0.51463 0.47078 0.54183 0.0
C160 C 0.51278 0.45086 0.79204 0.0
C161 C 0.5843 0.49635 0.72732 0.0
C162 C 0.51279 0.57011 0.61465 0.0
C163 C 0.5098 0.55362 0.87209 0.0
C164 C 0.4436 0.52194 0.68292 0.0
O165 O 0.53941 0.47095 0.53285 0.0
O166 O 0.50492 0.48282 0.60358 0.0
O167 O 0.97322 0.48245 0.89871 0.0
Mg168 Mg 0.97634 0.46932 0.77313 0.0
O169 O 0.98726 0.51654 0.82876 0.0
Mg170 Mg 0.01516 0.50965 0.72182 0.0
O171 O 0.01075 0.46375 0.70712 0.0
O172 O 0.98454 0.43062 0.74811 0.0
O173 O 0.04386 0.50323 0.61227 0.0
O174 O 0.05073 0.50071 0.81124 0.0
Mg175 Mg 0.05482 0.55026 0.68448 0.0
O176 O 0.01936 0.55583 0.74285 0.0
O177 O 0.05418 0.54105 0.55617 0.0
O178 O 0.08111 0.52895 0.76543 0.0
O179 O 0.0475 0.58865 0.71256 0.0
C180 C 0.95487 0.50769 0.64012 0.0
C181 C 0.97422 0.50728 0.88935 0.0
C182 C 0.005 0.4386 0.70707 0.0
C183 C 0.05513 0.51615 0.55432 0.0
C184 C 0.07427 0.50991 0.81272 0.0
C185 C 0.02574 0.58083 0.74646 0.0
O186 O 0.94994 0.4893 0.69216 0.0
O187 O 0.97827 0.5174 0.63348 0.0
C188 C 0.18522 0.03887 0.3278 0.0
C189 C 0.19868 0.06307 0.33125 0.0
C190 C 0.16562 0.03242 0.38649 0.0
C191 C 0.15909 0.05072 0.44998 0.0
C192 C 0.17214 0.07552 0.45227 0.0
C193 C 0.19185 0.08134 0.3932 0.0
C194 C 0.1523 0.00574 0.38164 0.0
C195 C 0.16597 0.09566 0.51859 0.0
C196 C 0.09506 0.0369 0.56875 0.0
C197 C 0.10452 0.02237 0.63734 0.0
C198 C 0.11261 0.04718 0.50852 0.0
C199 C 0.1402 0.0429 0.5174 0.0
C200 C 0.14981 0.0297 0.58922 0.0
C201 C 0.13191 0.0196 0.64795 0.0
C202 C 0.10158 0.06146 0.43345 0.0
C203 C 0.17901 0.02509 0.60226 0.0
H204 H 0.19028 0.02486 0.27942 0.0
H205 H 0.20204 0.10019 0.39582 0.0
H206 H 0.1568 0.99409 0.43872 0.0
H207 H 0.13055 0.00825 0.37861 0.0
H208 H 0.15879 0.99421 0.32657 0.0
H209 H 0.17659 0.09026 0.57672 0.0
H210 H 0.17231 0.11587 0.49976 0.0
H211 H 0.14456 0.09603 0.53295 0.0
H212 H 0.07394 0.0391 0.55982 0.0
H213 H 0.13944 0.00866 0.70118 0.0
H214 H 0.10331 0.0486 0.37792 0.0
H215 H 0.11304 0.07973 0.4206 0.0
H216 H 0.08047 0.06676 0.44166 0.0
H217 H 0.18672 0.01214 0.55225 0.0
H218 H 0.18336 0.01567 0.66343 0.0
H219 H 0.18987 0.04412 0.59849 0.0
C220 C 0.45017 0.18572 0.39819 0.0
C221 C 0.47002 0.1951 0.34462 0.0
C222 C 0.45567 0.16659 0.45996 0.0
C223 C 0.48169 0.15665 0.46887 0.0
C224 C 0.50173 0.16586 0.41425 0.0
C225 C 0.49561 0.18479 0.35253 0.0
C226 C 0.43367 0.15741 0.51646 0.0
C227 C 0.52973 0.15578 0.42115 0.0
C228 C 0.50603 0.12832 0.67551 0.0
C229 C 0.50682 0.10105 0.65937 0.0
C230 C 0.49694 0.14649 0.61535 0.0
C231 C 0.48834 0.13726 0.53668 0.0
C232 C 0.48776 0.10963 0.52145 0.0
C233 C 0.49714 0.09188 0.58279 0.0
C234 C 0.49789 0.17569 0.63455 0.0
C235 C 0.47823 0.09894 0.43904 0.0
H236 H 0.43024 0.19329 0.39162 0.0
H237 H 0.51086 0.19157 0.31022 0.0
H238 H 0.43461 0.13571 0.52663 0.0
H239 H 0.43586 0.16698 0.57814 0.0
H240 H 0.41389 0.16257 0.49103 0.0
H241 H 0.54296 0.16474 0.37364 0.0
H242 H 0.53776 0.16022 0.48393 0.0
H243 H 0.53004 0.13396 0.4137 0.0
H244 H 0.5136 0.13562 0.73431 0.0
H245 H 0.49839 0.07102 0.56868 0.0
H246 H 0.47832 0.18486 0.62276 0.0
H247 H 0.51231 0.18559 0.59277 0.0
H248 H 0.50369 0.1796 0.70014 0.0
H249 H 0.45753 0.10522 0.42794 0.0
H250 H 0.47922 0.07701 0.43637 0.0
H251 H 0.49032 0.10719 0.38752 0.0
C252 C 0.35868 0.4551 0.31275 0.0
C253 C 0.3318 0.45891 0.33036 0.0
C254 C 0.37846 0.46292 0.3694 0.0
C255 C 0.37125 0.475 0.44559 0.0
C256 C 0.3441 0.47854 0.46413 0.0
C257 C 0.32476 0.47033 0.40661 0.0
C258 C 0.40706 0.45895 0.34624 0.0
C259 C 0.33545 0.49141 0.5443 0.0
C260 C 0.42057 0.48149 0.6261 0.0
C261 C 0.42805 0.50806 0.61827 0.0
C262 C 0.40232 0.47023 0.56965 0.0
C263 C 0.39195 0.48576 0.50314 0.0
C264 C 0.40051 0.51225 0.49346 0.0
C265 C 0.41819 0.52307 0.55143 0.0
C266 C 0.39341 0.44205 0.58256 0.0
C267 C 0.39022 0.52954 0.42357 0.0
H268 H 0.36428 0.44598 0.2544 0.0
H269 H 0.30408 0.47288 0.42132 0.0
H270 H 0.41544 0.47806 0.32458 0.0
H271 H 0.41887 0.45233 0.40077 0.0
H272 H 0.40933 0.44428 0.2954 0.0
H273 H 0.31362 0.49153 0.55139 0.0
H274 H 0.34425 0.4809 0.59847 0.0
H275 H 0.34264 0.51215 0.54611 0.0
H276 H 0.42804 0.46994 0.67811 0.0
H277 H 0.424 0.54366 0.54547 0.0
H278 H 0.3986 0.43011 0.52721 0.0
H279 H 0.37161 0.44128 0.58902 0.0
H280 H 0.40241 0.43292 0.63886 0.0
H281 H 0.39354 0.51981 0.36267 0.0
H282 H 0.39982 0.54931 0.42231 0.0
H283 H 0.3686 0.53236 0.43057 0.0
C284 C 0.02704 0.34546 0.3276 0.0
C285 C 0.04593 0.3253 0.33488 0.0
C286 C 0.02515 0.36565 0.38717 0.0
C287 C 0.04255 0.36577 0.45646 0.0
C288 C 0.06257 0.3462 0.46209 0.0
C289 C 0.06377 0.32596 0.40198 0.0
C290 C 0.0033 0.38583 0.37873 0.0
C291 C 0.08181 0.34582 0.53398 0.0
C292 C 0.03742 0.42767 0.59212 0.0
C293 C 0.01881 0.41944 0.6517 0.0
C294 C 0.04677 0.41002 0.53082 0.0
C295 C 0.03694 0.38371 0.52837 0.0
C296 C 0.01937 0.37502 0.59132 0.0
C297 C 0.01078 0.39284 0.65224 0.0
C298 C 0.06615 0.41992 0.46652 0.0
C299 C 0.00822 0.34726 0.59157 0.0
H300 H 0.01291 0.34478 0.27679 0.0
H301 H 0.07816 0.31024 0.40898 0.0
H302 H 0.98861 0.38273 0.42909 0.0
H303 H 0.0113 0.40614 0.38561 0.0
H304 H 0.99295 0.38448 0.31779 0.0
H305 H 0.09873 0.33235 0.52226 0.0
H306 H 0.0895 0.36601 0.54612 0.0
H307 H 0.07157 0.33902 0.59124 0.0
H308 H 0.04392 0.4481 0.59121 0.0
H309 H 0.99664 0.38608 0.69828 0.0
H310 H 0.05575 0.4231 0.40642 0.0
H311 H 0.08192 0.40507 0.45577 0.0
H312 H 0.07545 0.43891 0.48533 0.0
H313 H 0.99589 0.3443 0.53513 0.0
H314 H 0.99587 0.34319 0.64731 0.0
H315 H 0.02441 0.3325 0.58971 0.0
C316 C 0.83888 0.99489 0.0726 0.0
C317 C 0.8155 0.98154 0.05222 0.0
C318 C 0.86033 0.99559 0.01723 0.0
C319 C 0.85846 0.98251 0.93945 0.0
C320 C 0.83568 0.96724 0.92147 0.0
C321 C 0.81435 0.96711 0.97779 0.0
C322 C 0.88431 0.01184 0.03978 0.0
C323 C 0.83332 0.95217 0.8409 0.0
C324 C 0.89571 0.01953 0.77121 0.0
C325 C 0.92079 0.0077 0.77529 0.0
C326 C 0.87473 0.01039 0.82041 0.0
C327 C 0.87853 0.98824 0.87342 0.0
C328 C 0.90279 0.97423 0.87002 0.0
C329 C 0.9238 0.98428 0.82161 0.0
C330 C 0.84937 0.02614 0.82166 0.0
C331 C 0.90747 0.94986 0.92224 0.0
H332 H 0.83992 0.00591 0.13031 0.0
H333 H 0.79633 0.95665 0.96209 0.0
H334 H 0.9025 0.99982 0.03292 0.0
H335 H 0.88595 0.02899 -0.00338 0.0
H336 H 0.88342 0.01938 0.10463 0.0
H337 H 0.81672 0.93779 0.84238 0.0
H338 H 0.82988 0.96623 0.78874 0.0
H339 H 0.85193 0.94139 0.82755 0.0
H340 H 0.89307 0.03746 0.73475 0.0
H341 H 0.94305 0.97493 0.82538 0.0
H342 H 0.84726 0.03596 0.88303 0.0
H343 H 0.83209 0.01293 0.81341 0.0
H344 H 0.84882 0.04161 0.77225 0.0
H345 H 0.91579 0.95577 0.98339 0.0
H346 H 0.92193 0.93663 0.8915 0.0
H347 H 0.88895 0.93866 0.9335 0.0
C348 C 0.55562 0.82956 0.0352 0.0
C349 C 0.53391 0.82565 0.08842 0.0
C350 C 0.55526 0.84961 0.97362 0.0
C351 C 0.53245 0.86563 0.96356 0.0
C352 C 0.51076 0.86196 0.01809 0.0
C353 C 0.51184 0.84217 0.07969 0.0
C354 C 0.57899 0.85315 0.91794 0.0
C355 C 0.48591 0.87831 0.0096 0.0
C356 C 0.52785 0.93063 0.84238 0.0
C357 C 0.51568 0.92236 0.76824 0.0
C358 C 0.53542 0.91216 0.90425 0.0
C359 C 0.53008 0.88486 0.89259 0.0
C360 C 0.51921 0.87635 0.81591 0.0
C361 C 0.51243 0.89512 0.75467 0.0
C362 C 0.54739 0.92198 0.98455 0.0
C363 C 0.51272 0.84759 0.80091 0.0
H364 H 0.57278 0.81686 0.04081 0.0
H365 H 0.49502 0.83911 0.12036 0.0
H366 H 0.57454 0.8451 0.8553 0.0
H367 H 0.58373 0.87446 0.90997 0.0
H368 H 0.59668 0.84277 0.94291 0.0
H369 H 0.47113 0.87349 0.05843 0.0
H370 H 0.49069 0.89968 0.01354 0.0
H371 H 0.4768 0.87485 0.94764 0.0
H372 H 0.52986 0.95156 0.85463 0.0
H373 H 0.50305 0.88846 0.69771 0.0
H374 H 0.56422 0.90926 0.00365 0.0
H375 H 0.53245 0.92095 0.03489 0.0
H376 H 0.55429 0.94274 0.97941 0.0
H377 H 0.53013 0.83495 0.81446 0.0
H378 H 0.50621 0.8439 0.73585 0.0
H379 H 0.49666 0.84131 0.84366 0.0
C380 C 0.68269 0.52888 0.09994 0.0
C381 C 0.70769 0.53669 0.07154 0.0
C382 C 0.66101 0.52739 0.04515 0.0
C383 C 0.66437 0.53396 0.95985 0.0
C384 C 0.689 0.5442 0.93276 0.0
C385 C 0.71042 0.54533 0.98885 0.0
C386 C 0.63509 0.51676 0.07732 0.0
C387 C 0.69324 0.55222 0.84314 0.0
C388 C 0.6269 0.49166 0.80426 0.0
C389 C 0.60516 0.50757 0.7827 0.0
C390 C 0.64603 0.50014 0.86146 0.0
C391 C 0.644 0.52559 0.89738 0.0
C392 C 0.62242 0.54212 0.87492 0.0
C393 C 0.6031 0.53282 0.81834 0.0
C394 C 0.66818 0.48144 0.88495 0.0
C395 C 0.61988 0.56968 0.90962 0.0
H396 H 0.68041 0.52254 0.16413 0.0
H397 H 0.72967 0.55167 0.96702 0.0
H398 H 0.61843 0.52926 0.05536 0.0
H399 H 0.63189 0.49652 0.05271 0.0
H400 H 0.63462 0.51583 0.14648 0.0
H401 H 0.71186 0.56355 0.83474 0.0
H402 H 0.69417 0.53427 0.8037 0.0
H403 H 0.67644 0.56442 0.82049 0.0
H404 H 0.62864 0.47198 0.77828 0.0
H405 H 0.58647 0.54529 0.80195 0.0
H406 H 0.66803 0.47779 0.95318 0.0
H407 H 0.68752 0.49045 0.86914 0.0
H408 H 0.66662 0.46209 0.85272 0.0
H409 H 0.62478 0.57016 0.97698 0.0
H410 H 0.59967 0.57769 0.90078 0.0
H411 H 0.63398 0.58296 0.87701 0.0
C412 C 0.01375 0.68098 0.10278 0.0
C413 C 0.99277 0.69904 0.10565 0.0
C414 C 0.01392 0.65995 0.0459 0.0
C415 C 0.99256 0.65681 0.98965 0.0
C416 C 0.97063 0.67417 -0.00524 0.0
C417 C 0.97112 0.69534 0.05189 0.0
C418 C 0.03778 0.64204 0.04286 0.0
C419 C 0.94725 0.67111 0.93713 0.0
C420 C 0.01533 0.62722 0.78566 0.0
C421 C 0.01108 0.60008 0.79878 0.0
C422 C 0.00775 0.64603 0.84494 0.0
C423 C 0.99515 0.63766 0.91921 0.0
C424 C 0.98855 0.61053 0.9294 0.0
C425 C 0.99686 0.59198 0.86941 0.0
C426 C 0.01534 0.67463 0.83101 0.0
C427 C 0.9746 0.60074 0.00655 0.0
H428 H 0.03068 0.68398 0.14315 0.0
H429 H 0.95494 0.70937 0.0527 0.0
H430 H 0.03158 0.62102 0.0472 0.0
H431 H 0.0481 0.64469 0.98244 0.0
H432 H 0.05202 0.64614 0.09395 0.0
H433 H 0.93032 0.68367 0.95622 0.0
H434 H 0.95304 0.67677 0.87286 0.0
H435 H 0.94074 0.65013 0.93537 0.0
H436 H 0.02612 0.6337 0.73095 0.0
H437 H 0.99385 0.57106 0.88088 0.0
H438 H 0.03092 0.6803 0.87631 0.0
H439 H 0.99816 0.68779 0.84155 0.0
H440 H 0.02296 0.67826 0.76711 0.0
H441 H 0.96411 0.58181 -0.00509 0.0
H442 H 0.96021 0.61554 0.02963 0.0
H443 H 0.98936 0.59724 0.05655 0.0
C444 C 0.09733 0.18557 0.41601 0.0
C445 C 0.07855 0.20543 0.40177 0.0
C446 C 0.09049 0.16243 0.45925 0.0
C447 C 0.06419 0.15912 0.48698 0.0
C448 C 0.04602 0.18033 0.48034 0.0
C449 C 0.05358 0.20346 0.43845 0.0
C450 C 0.11073 0.14068 0.46734 0.0
C451 C 0.01782 0.17763 0.50988 0.0
C452 C 0.03032 0.0922 0.49124 0.0
C453 C 0.02875 0.08793 0.57696 0.0
C454 C 0.04344 0.11473 0.46031 0.0
C455 C 0.05482 0.13304 0.51701 0.0
C456 C 0.0548 0.12756 0.6032 0.0
C457 C 0.04188 0.10496 0.63195 0.0
C458 C 0.04397 0.11967 0.36754 0.0
C459 C 0.06699 0.14629 0.66554 0.0
H460 H 0.11654 0.18704 0.3865 0.0
H461 H 0.03896 0.21869 0.42602 0.0
H462 H 0.10752 0.1285 0.52409 0.0
H463 H 0.10923 0.12759 0.41228 0.0
H464 H 0.13108 0.1489 0.46903 0.0
H465 H 0.00685 0.19664 0.50602 0.0
H466 H 0.00738 0.16281 0.47096 0.0
H467 H 0.01728 0.1704 0.57521 0.0
H468 H 0.02037 0.07875 0.44915 0.0
H469 H 0.04113 0.10107 0.69836 0.0
H470 H 0.06453 0.12341 0.34672 0.0
H471 H 0.0322 0.1376 0.35242 0.0
H472 H 0.03587 0.10272 0.3318 0.0
H473 H 0.08709 0.15226 0.6454 0.0
H474 H 0.06827 0.1374 0.72888 0.0
H475 H 0.05484 0.16452 0.66941 0.0
C476 C 0.34411 0.09208 0.38867 0.0
C477 C 0.32484 0.07221 0.39537 0.0
C478 C 0.36949 0.08804 0.42079 0.0
C479 C 0.3748 0.0645 0.46566 0.0
C480 C 0.35375 0.04732 0.48757 0.0
C481 C 0.32888 0.05116 0.4508 0.0
C482 C 0.391 0.10706 0.39509 0.0
C483 C 0.35828 0.0231 0.5411 0.0
C484 C 0.43792 0.02536 0.43888 0.0
C485 C 0.4514 0.03162 0.51228 0.0
C486 C 0.41367 0.03749 0.42006 0.0
C487 C 0.40237 0.05544 0.47768 0.0
C488 C 0.41663 0.063 0.54921 0.0
C489 C 0.44113 0.05128 0.56505 0.0
C490 C 0.39951 0.03005 0.34062 0.0
C491 C 0.40531 0.08224 0.61142 0.0
H492 H 0.3407 0.10862 0.34666 0.0
H493 H 0.31386 0.03598 0.45718 0.0
H494 H 0.40873 0.10572 0.43524 0.0
H495 H 0.39702 0.10256 0.33021 0.0
H496 H 0.38355 0.12774 0.39592 0.0
H497 H 0.33946 0.01529 0.56683 0.0
H498 H 0.36752 0.00735 0.50299 0.0
H499 H 0.37191 0.0276 0.59343 0.0
H500 H 0.44578 0.01027 0.39803 0.0
H501 H 0.45126 0.0562 0.62249 0.0
H502 H 0.39222 0.04806 0.30801 0.0
H503 H 0.3821 0.01759 0.3557 0.0
H504 H 0.41245 0.01884 0.29748 0.0
H505 H 0.41838 0.08498 0.66639 0.0
H506 H 0.38576 0.07515 0.63314 0.0
H507 H 0.40212 0.10177 0.58133 0.0
C508 C 0.4803 0.32487 0.44303 0.0
C509 C 0.45912 0.32141 0.38797 0.0
C510 C 0.4848 0.3496 0.47963 0.0
C511 C 0.46814 0.37111 0.45814 0.0
C512 C 0.44459 0.36652 0.41303 0.0
C513 C 0.4399 0.3413 0.38086 0.0
C514 C 0.5091 0.35338 0.53296 0.0
C515 C 0.42625 0.3887 0.38774 0.0
C516 C 0.47962 0.43705 0.56128 0.0
C517 C 0.49917 0.44826 0.50962 0.0
C518 C 0.46913 0.41205 0.54498 0.0
C519 C 0.47725 0.39851 0.47293 0.0
C520 C 0.49522 0.41061 0.41662 0.0
C521 C 0.50651 0.43516 0.43673 0.0
C522 C 0.45067 0.3994 0.6074 0.0
C523 C 0.50335 0.3971 0.33696 0.0
H524 H 0.49501 0.3094 0.4497 0.0
H525 H 0.42324 0.33835 0.33927 0.0
H526 H 0.52523 0.36172 0.49421 0.0
H527 H 0.50522 0.36745 0.58439 0.0
H528 H 0.51603 0.33431 0.55994 0.0
H529 H 0.40572 0.38139 0.37946 0.0
H530 H 0.42615 0.40497 0.4336 0.0
H531 H 0.43296 0.39696 0.32717 0.0
H532 H 0.47391 0.44684 0.61843 0.0
H533 H 0.52157 0.44371 0.39693 0.0
H534 H 0.45917 0.38046 0.62997 0.0
H535 H 0.43154 0.39459 0.57734 0.0
H536 H 0.44693 0.41231 0.66196 0.0
H537 H 0.51568 0.37955 0.35187 0.0
H538 H 0.51484 0.41044 0.29542 0.0
H539 H 0.48566 0.39002 0.30264 0.0
C540 C 0.1881 0.44884 0.39769 0.0
C541 C 0.20636 0.46876 0.37817 0.0
C542 C 0.16342 0.45524 0.43093 0.0
C543 C 0.15731 0.48209 0.44583 0.0
C544 C 0.1769 0.50184 0.43563 0.0
C545 C 0.20136 0.49489 0.40159 0.0
C546 C 0.14317 0.43364 0.44341 0.0
C547 C 0.17139 0.53048 0.4555 0.0
C548 C 0.08596 0.50514 0.43756 0.0
C549 C 0.07954 0.50455 0.52211 0.0
C550 C 0.11115 0.49699 0.41117 0.0
C551 C 0.13035 0.48956 0.47152 0.0
C552 C 0.12391 0.48949 0.55681 0.0
C553 C 0.09835 0.49617 0.58068 0.0
C554 C 0.11743 0.4968 0.31928 0.0
C555 C 0.14396 0.48272 0.62341 0.0
H556 H 0.19207 0.42868 0.37846 0.0
H557 H 0.21546 0.51025 0.38546 0.0
H558 H 0.13514 0.43435 0.50761 0.0
H559 H 0.12637 0.43678 0.3999 0.0
H560 H 0.1515 0.41362 0.43251 0.0
H561 H 0.1894 0.54296 0.45056 0.0
H562 H 0.15626 0.53836 0.41185 0.0
H563 H 0.16332 0.53225 0.51949 0.0
H564 H 0.07146 0.51203 0.39268 0.0
H565 H 0.09344 0.49618 0.64618 0.0
H566 H 0.12472 0.47695 0.30084 0.0
H567 H 0.13343 0.51119 0.3058 0.0
H568 H 0.09998 0.50189 0.28031 0.0
H569 H 0.14406 0.46098 0.63304 0.0
H570 H 0.13903 0.49238 0.68331 0.0
H571 H 0.16424 0.48888 0.60606 0.0
C572 C 0.98528 0.82616 0.00988 0.0
C573 C 0.96368 0.82544 0.06422 0.0
C574 C 0.99248 0.84991 0.97041 0.0
C575 C 0.97803 0.87324 0.98782 0.0
C576 C 0.95439 0.87172 0.03438 0.0
C577 C 0.94711 0.84756 0.07015 0.0
C578 C 0.01709 0.85051 0.91753 0.0
C579 C 0.93852 0.89601 0.05591 0.0
C580 C 0.0179 0.93691 -0.00596 0.0
C581 C 0.01006 0.94899 0.91951 0.0
C582 C 0.00709 0.91242 0.01811 0.0
C583 C 0.98891 0.89945 0.96455 0.0
C584 C 0.98099 0.91157 0.88933 0.0
C585 C 0.99127 0.93635 0.86848 0.0
C586 C 0.01534 0.90022 0.10015 0.0
C587 C 0.96232 0.898 0.82961 0.0
H588 H 0.99811 0.80905 0.00512 0.0
H589 H 0.9303 0.84684 0.11194 0.0
H590 H 0.01481 0.86428 0.86395 0.0
H591 H 0.03394 0.85759 0.95574 0.0
H592 H 0.02207 0.83053 0.89363 0.0
H593 H 0.94721 0.90531 0.11216 0.0
H594 H 0.93892 0.91083 0.00509 0.0
H595 H 0.91764 0.89091 0.06986 0.0
H596 H 0.03258 0.94647 0.03288 0.0
H597 H 0.98553 0.94517 0.80947 0.0
H598 H 0.02578 0.88127 0.08888 0.0
H599 H 0.99764 0.89567 0.13834 0.0
H600 H 0.02858 0.91341 0.13642 0.0
H601 H 0.97126 0.87923 0.80779 0.0
H602 H 0.95761 0.91048 0.77437 0.0
H603 H 0.94362 0.89279 0.86168 0.0
C604 C 0.69451 0.95823 0.97307 0.0
C605 C 0.69566 0.9382 0.03354 0.0
C606 C 0.67036 0.96497 0.93592 0.0
C607 C 0.64725 0.95124 0.96041 0.0
C608 C 0.64928 0.92815 0.00997 0.0
C609 C 0.67377 0.92157 0.04504 0.0
C610 C 0.66909 0.98889 0.8793 0.0
C611 C 0.62515 0.91252 0.03492 0.0
C612 C 0.58865 0.99716 0.98474 0.0
C613 C 0.57469 0.99223 0.91128 0.0
C614 C 0.61168 0.98282 0.00354 0.0
C615 C 0.62115 0.96367 0.94628 0.0
C616 C 0.60668 0.95806 0.8734 0.0
C617 C 0.58354 0.97222 0.85723 0.0
C618 C 0.62659 0.98905 0.08274 0.0
C619 C 0.61604 0.93791 0.8107 0.0
H620 H 0.7115 0.97095 0.96331 0.0
H621 H 0.67488 0.9058 0.09099 0.0
H622 H 0.65578 0.98517 0.82559 0.0
H623 H 0.66096 0.00593 0.91434 0.0
H624 H 0.68891 0.99448 0.85538 0.0
H625 H 0.63041 0.89335 0.06479 0.0
H626 H 0.61324 0.92424 0.07953 0.0
H627 H 0.61257 0.90859 0.97984 0.0
H628 H 0.58204 0.01273 0.026 0.0
H629 H 0.57321 0.96852 0.79922 0.0
H630 H 0.64592 0.99816 0.06711 0.0
H631 H 0.63066 0.9706 0.11826 0.0
H632 H 0.61556 0.00288 0.12355 0.0
H633 H 0.63743 0.94033 0.79771 0.0
H634 H 0.60507 0.93937 0.75082 0.0
H635 H 0.61309 0.91771 0.83627 0.0
C636 C 0.54251 0.69975 0.97043 0.0
C637 C 0.56445 0.70386 0.02172 0.0
C638 C 0.53791 0.67472 0.9358 0.0
C639 C 0.55507 0.65354 0.95678 0.0
C640 C 0.57905 0.65867 -0.00116 0.0
C641 C 0.58409 0.68431 0.02703 0.0
C642 C 0.51332 0.67033 0.88443 0.0
C643 C 0.59762 0.6366 0.02404 0.0
C644 C 0.51773 0.58886 0.9784 0.0
C645 C 0.52519 0.57597 0.90524 0.0
C646 C 0.52874 0.61353 -0.00115 0.0
C647 C 0.54656 0.6259 0.94263 0.0
C648 C 0.55501 0.61239 0.87093 0.0
C649 C 0.54448 0.58748 0.85362 0.0
C650 C 0.52052 0.62681 0.07878 0.0
C651 C 0.57329 0.62509 0.80831 0.0
H652 H 0.52747 0.71497 0.96554 0.0
H653 H 0.60118 0.68779 0.06642 0.0
H654 H 0.51761 0.65726 0.83071 0.0
H655 H 0.49808 0.66042 0.92319 0.0
H656 H 0.505 0.68928 0.86079 0.0
H657 H 0.61621 0.6442 0.052 0.0
H658 H 0.5877 0.62363 0.0704 0.0
H659 H 0.6027 0.62414 0.96983 0.0
H660 H 0.50274 0.58009 0.01799 0.0
H661 H 0.54991 0.578 0.79569 0.0
H662 H 0.50739 0.64381 0.06434 0.0
H663 H 0.53807 0.63467 0.1121 0.0
H664 H 0.50979 0.61306 0.12102 0.0
H665 H 0.56148 0.6387 0.76879 0.0
H666 H 0.58288 0.61011 0.76796 0.0
H667 H 0.58894 0.63705 0.83831 0.0
C668 C 0.85221 0.59213 0.05494 0.0
C669 C 0.83035 0.57538 0.04442 0.0
C670 C 0.87666 0.58562 0.02007 0.0
C671 C 0.87869 0.56251 0.97135 0.0
C672 C 0.85559 0.54869 0.94748 0.0
C673 C 0.8315 0.55516 0.98516 0.0
C674 C 0.90074 0.6016 0.04309 0.0
C675 C 0.85684 0.52534 0.88928 0.0
C676 C 0.94318 0.54463 0.8682 0.0
C677 C 0.95241 0.524 0.92 0.0
C678 C 0.91943 0.55762 0.8842 0.0
C679 C 0.9049 0.55056 0.95572 0.0
C680 C 0.9148 0.53093 0.01128 0.0
C681 C 0.93828 0.51748 0.99186 0.0
C682 C 0.91002 0.57837 0.82281 0.0
C683 C 0.9001 0.5235 0.08979 0.0
H684 H 0.85105 0.60815 0.09956 0.0
H685 H 0.81452 0.54241 0.97585 0.0
H686 H 0.91401 0.58947 0.08305 0.0
H687 H 0.91189 0.60706 0.98618 0.0
H688 H 0.89556 0.61997 0.0771 0.0
H689 H 0.83693 0.5196 0.86633 0.0
H690 H 0.86963 0.52995 0.83498 0.0
H691 H 0.86562 0.50814 0.92246 0.0
H692 H 0.95373 0.54979 0.81168 0.0
H693 H 0.94522 0.50152 0.03162 0.0
H694 H 0.91921 0.59763 0.83886 0.0
H695 H 0.88826 0.58084 0.82304 0.0
H696 H 0.91629 0.57338 0.75843 0.0
H697 H 0.91157 0.50968 0.1299 0.0
H698 H 0.88107 0.51393 0.07325 0.0
H699 H 0.89544 0.54151 0.12632 0.0
C700 C 0.08051 0.19749 0.04735 0.0
C701 C 0.06287 0.20605 0.10868 0.0
C702 C 0.07483 0.17496 -0.00104 0.0
C703 C 0.05145 0.1603 0.01465 0.0
C704 C 0.0331 0.16968 0.07407 0.0
C705 C 0.03889 0.19261 0.11942 0.0
C706 C 0.09451 0.16599 0.93456 0.0
C707 C 0.00814 0.15453 0.09401 0.0
C708 C 0.02181 0.11027 0.86633 0.0
C709 C 0.02899 0.08622 0.90375 0.0
C710 C 0.03043 0.1345 0.89858 0.0
C711 C 0.0462 0.13474 0.97139 0.0
C712 C 0.05436 0.11036 0.00781 0.0
C713 C 0.04566 0.08625 0.97327 0.0
C714 C 0.02143 0.15983 0.85717 0.0
C715 C 0.07114 0.10978 0.08563 0.0
H716 H 0.09937 0.20744 0.04072 0.0
H717 H 0.02565 0.19881 0.16869 0.0
H718 H 0.10412 0.14742 0.95595 0.0
H719 H 0.08439 0.16162 0.8748 0.0
H720 H 0.11008 0.18106 0.92311 0.0
H721 H 0.99547 0.16503 0.1396 0.0
H722 H 0.99651 0.15109 0.03644 0.0
H723 H 0.01333 0.13485 0.12036 0.0
H724 H 0.00871 0.11011 0.81279 0.0
H725 H 0.05103 0.06759 0.00229 0.0
H726 H 0.03826 0.17369 0.84943 0.0
H727 H 0.00658 0.16972 0.89714 0.0
H728 H 0.0124 0.15622 0.79509 0.0
H729 H 0.08873 0.12263 0.07777 0.0
H730 H 0.07783 0.08944 0.10167 0.0
H731 H 0.05962 0.11768 0.13877 0.0
C732 C 0.3199 0.03213 0.0518 0.0
C733 C 0.32068 0.05601 0.09586 0.0
C734 C 0.34014 0.02559 -0.00471 0.0
C735 C 0.36193 0.04296 0.98473 0.0
C736 C 0.3616 0.06795 0.0238 0.0
C737 C 0.34073 0.07439 0.07725 0.0
C738 C 0.33892 0.99958 0.94978 0.0
C739 C 0.38412 0.08727 0.01317 0.0
C740 C 0.42911 0.01358 0.93013 0.0
C741 C 0.43074 0.01918 0.84488 0.0
C742 C 0.40664 0.02102 0.97614 0.0
C743 C 0.3856 0.03466 0.93591 0.0
C744 C 0.38763 0.04084 0.84998 0.0
C745 C 0.41007 0.0328 0.80556 0.0
C746 C 0.40524 0.014 0.06759 0.0
C747 C 0.36656 0.05611 0.80364 0.0
H748 H 0.30449 0.01787 0.06546 0.0
H749 H 0.34118 0.09311 0.11 0.0
H750 H 0.34231 0.00284 0.88217 0.0
H751 H 0.35482 0.98631 0.9729 0.0
H752 H 0.3196 0.98949 0.95822 0.0
H753 H 0.38066 0.10613 0.04672 0.0
H754 H 0.40268 0.07829 0.03702 0.0
H755 H 0.38707 0.09172 0.94607 0.0
H756 H 0.44496 0.00265 0.96004 0.0
H757 H 0.41137 0.03701 0.73937 0.0
H758 H 0.38782 0.0012 0.07938 0.0
H759 H 0.40266 0.03222 0.10509 0.0
H760 H 0.42323 0.00349 0.08969 0.0
H761 H 0.36307 0.04718 0.74149 0.0
H762 H 0.37365 0.07665 0.79315 0.0
H763 H 0.34746 0.05701 0.83713 0.0
C764 C 0.45286 0.33061 0.06234 0.0
C765 C 0.47363 0.31423 0.08946 0.0
C766 C 0.45749 0.35239 0.00969 0.0
C767 C 0.48347 0.35774 0.98217 0.0
C768 C 0.50408 0.33982 0.00292 0.0
C769 C 0.49896 0.31833 0.05684 0.0
C770 C 0.43487 0.37063 0.98793 0.0
C771 C 0.53183 0.3442 0.97169 0.0
C772 C 0.49457 0.40546 0.8014 0.0
C773 C 0.50186 0.42882 0.84234 0.0
C774 C 0.4881 0.38239 0.84581 0.0
C775 C 0.48922 0.38248 0.9339 0.0
C776 C 0.49605 0.40625 0.97592 0.0
C777 C 0.50208 0.42927 0.92954 0.0
C778 C 0.48007 0.35809 0.79753 0.0
C779 C 0.49786 0.40706 0.0698 0.0
H780 H 0.43329 0.32763 0.08816 0.0
H781 H 0.51513 0.30601 0.07848 0.0
H782 H 0.43836 0.39039 0.01581 0.0
H783 H 0.43366 0.37338 0.91942 0.0
H784 H 0.4156 0.36299 0.01076 0.0
H785 H 0.54526 0.32766 0.98892 0.0
H786 H 0.53173 0.34641 0.90285 0.0
H787 H 0.53983 0.36283 -0.00193 0.0
H788 H 0.49445 0.4051 0.73385 0.0
H789 H 0.50818 0.44717 0.96123 0.0
H790 H 0.48618 0.33951 0.82915 0.0
H791 H 0.48865 0.35825 0.73391 0.0
H792 H 0.45824 0.35785 0.7912 0.0
H793 H 0.47876 0.40095 0.09774 0.0
H794 H 0.50306 0.42706 0.09318 0.0
H795 H 0.51305 0.3928 0.0918 0.0
C796 C 0.2118 0.47923 0.02342 0.0
C797 C 0.21152 0.45779 0.07912 0.0
C798 C 0.18989 0.48441 0.97141 0.0
C799 C 0.16689 0.46846 0.97815 0.0
C800 C 0.16762 0.4454 0.02838 0.0
C801 C 0.19032 0.43982 0.07549 0.0
C802 C 0.19057 0.50814 0.91411 0.0
C803 C 0.14345 0.42824 0.04011 0.0
C804 C 0.10258 0.50597 0.93983 0.0
C805 C 0.09506 0.49648 0.86159 0.0
C806 C 0.1253 0.49609 0.98012 0.0
C807 C 0.14145 0.47719 0.93925 0.0
C808 C 0.1333 0.46696 0.86136 0.0
C809 C 0.10995 0.47644 0.82423 0.0
C810 C 0.13227 0.50626 0.06573 0.0
C811 C 0.14991 0.44717 0.81465 0.0
H812 H 0.22802 0.49322 0.02568 0.0
H813 H 0.1901 0.42313 0.11824 0.0
H814 H 0.18199 0.50311 0.85248 0.0
H815 H 0.1785 0.5243 0.94094 0.0
H816 H 0.21101 0.51561 0.90498 0.0
H817 H 0.14808 0.40954 0.07377 0.0
H818 H 0.12854 0.43931 0.07672 0.0
H819 H 0.13427 0.42328 0.97942 0.0
H820 H 0.09101 0.52148 0.96865 0.0
H821 H 0.10395 0.469 0.76389 0.0
H822 H 0.1504 0.51852 0.06219 0.0
H823 H 0.13646 0.48947 0.10864 0.0
H824 H 0.11619 0.51845 0.09279 0.0
H825 H 0.16665 0.45772 0.78475 0.0
H826 H 0.13834 0.43696 0.76549 0.0
H827 H 0.15846 0.43199 0.85684 0.0
C828 C 0.95662 0.82673 0.404 0.0
C829 C 0.97736 0.81447 0.3611 0.0
C830 C 0.96126 0.84875 0.45543 0.0
C831 C 0.98719 0.85903 0.46281 0.0
C832 C 0.00841 0.84565 0.42372 0.0
C833 C 0.00323 0.82347 0.37368 0.0
C834 C 0.93813 0.86213 0.49688 0.0
C835 C 0.03636 0.85591 0.4298 0.0
C836 C 0.9984 0.93229 0.51082 0.0
C837 C 0.00661 0.931 0.59409 0.0
C838 C 0.99137 0.90904 0.46755 0.0
C839 C 0.9922 0.88415 0.5092 0.0
C840 C 0.99921 0.88311 0.59442 0.0
C841 C 0.00638 0.90645 0.63551 0.0
C842 C 0.9841 0.91095 0.37647 0.0
C843 C -0.00015 0.85722 0.64179 0.0
H844 H 0.93651 0.82039 0.39204 0.0
H845 H 0.01914 0.81464 0.33818 0.0
H846 H 0.94267 0.86639 0.56312 0.0
H847 H 0.93416 0.88134 0.46551 0.0
H848 H 0.91992 0.84989 0.4939 0.0
H849 H 0.05082 0.84237 0.40019 0.0
H850 H 0.03769 0.87553 0.39871 0.0
H851 H 0.04204 0.85868 0.49598 0.0
H852 H 0.99862 0.9512 0.47861 0.0
H853 H 0.01231 0.90542 0.70042 0.0
H854 H 0.96471 0.90136 0.36526 0.0
H855 H 0.99894 0.90022 0.33866 0.0
H856 H 0.9831 0.93178 0.35419 0.0
H857 H 0.97992 0.8481 0.64153 0.0
H858 H 0.00631 0.85975 0.70742 0.0
H859 H 0.01349 0.84315 0.61099 0.0
C860 C 0.69907 0.95838 0.38704 0.0
C861 C 0.70276 0.97216 0.31211 0.0
C862 C 0.67865 0.96551 0.44214 0.0
C863 C 0.66125 0.98651 0.4206 0.0
C864 C 0.66557 0.00098 0.34612 0.0
C865 C 0.68635 0.99374 0.29324 0.0
C866 C 0.67492 0.94984 0.52151 0.0
C867 C 0.64745 0.02329 0.32009 0.0
C868 C 0.59206 0.99018 0.5154 0.0
C869 C 0.59551 0.00967 0.57648 0.0
C870 C 0.61337 0.98209 0.4649 0.0
C871 C 0.63869 0.99368 0.47599 0.0
C872 C 0.64226 0.01312 0.53791 0.0
C873 C 0.62077 0.02086 0.58697 0.0
C874 C 0.60878 0.9613 0.39919 0.0
C875 C 0.66882 0.02604 0.55192 0.0
H876 H 0.71124 0.94121 0.40033 0.0
H877 H 0.68874 0.00386 0.23397 0.0
H878 H 0.67395 0.96333 0.57577 0.0
H879 H 0.6559 0.93896 0.51884 0.0
H880 H 0.69111 0.93536 0.53201 0.0
H881 H 0.62715 0.01557 0.3106 0.0
H882 H 0.64643 0.03841 0.36989 0.0
H883 H 0.65399 0.03305 0.26149 0.0
H884 H 0.57276 0.98129 0.50689 0.0
H885 H 0.62393 0.03585 0.63402 0.0
H886 H 0.62246 0.94442 0.40913 0.0
H887 H 0.61307 0.96966 0.33661 0.0
H888 H 0.58817 0.95375 0.39958 0.0
H889 H 0.68403 0.01074 0.56462 0.0
H890 H 0.66857 0.04017 0.60473 0.0
H891 H 0.67494 0.03687 0.49485 0.0
C892 C 0.53574 0.70563 0.37786 0.0
C893 C 0.55724 0.70537 0.32311 0.0
C894 C 0.53113 0.68404 0.43203 0.0
C895 C 0.54766 0.66137 0.4281 0.0
C896 C 0.57044 0.66201 0.37746 0.0
C897 C 0.57546 0.6844 0.32826 0.0
C898 C 0.50776 0.68483 0.49008 0.0
C899 C 0.58845 0.63829 0.37024 0.0
C900 C 0.54368 0.60759 0.59477 0.0
C901 C 0.52498 0.59035 0.56068 0.0
C902 C 0.55168 0.63054 0.55192 0.0
C903 C 0.54049 0.63644 0.47308 0.0
C904 C 0.52248 0.6183 0.43657 0.0
C905 C 0.51465 0.59561 0.48142 0.0
C906 C 0.57106 0.64893 0.59373 0.0
C907 C 0.51113 0.62311 0.35075 0.0
H908 H 0.52163 0.72173 0.37441 0.0
H909 H 0.59232 0.6843 0.28662 0.0
H910 H 0.49222 0.67114 0.46745 0.0
H911 H 0.51371 0.6781 0.55335 0.0
H912 H 0.49919 0.70501 0.49451 0.0
H913 H 0.6055 0.64209 0.32836 0.0
H914 H 0.59609 0.6325 0.4325 0.0
H915 H 0.57713 0.62121 0.34551 0.0
H916 H 0.55124 0.60363 0.65665 0.0
H917 H 0.49986 0.58243 0.45571 0.0
H918 H 0.55998 0.66269 0.63447 0.0
H919 H 0.58255 0.66101 0.54885 0.0
H920 H 0.58522 0.63763 0.633 0.0
H921 H 0.49836 0.64095 0.35151 0.0
H922 H 0.4992 0.60609 0.32842 0.0
H923 H 0.52726 0.62691 0.30548 0.0
C924 C 0.83383 0.52512 0.32914 0.0
C925 C 0.82089 0.54959 0.33312 0.0
C926 C 0.8553 0.51927 0.38167 0.0
C927 C 0.86391 0.5383 0.44036 0.0
C928 C 0.84989 0.56247 0.44791 0.0
C929 C 0.82872 0.56795 0.39345 0.0
C930 C 0.8697 0.49334 0.371 0.0
C931 C 0.85818 0.58312 0.51034 0.0
C932 C 0.90637 0.51218 0.61754 0.0
C933 C 0.93217 0.51779 0.59008 0.0
C934 C 0.88413 0.51938 0.57065 0.0
C935 C 0.88749 0.53268 0.49383 0.0
C936 C 0.91338 0.53933 0.4667 0.0
C937 C 0.93547 0.53187 0.51536 0.0
C938 C 0.85702 0.512 0.60241 0.0
C939 C 0.91772 0.5537 0.38524 0.0
H940 H 0.82842 0.51134 0.28035 0.0
H941 H 0.81935 0.58725 0.39448 0.0
H942 H 0.89018 0.49718 0.34955 0.0
H943 H 0.87106 0.48273 0.43152 0.0
H944 H 0.85984 0.48022 0.32509 0.0
H945 H 0.84392 0.5998 0.51343 0.0
H946 H 0.86012 0.57418 0.57332 0.0
H947 H 0.87784 0.59112 0.493 0.0
H948 H 0.90343 0.50176 0.67599 0.0
H949 H 0.95525 0.53641 0.49385 0.0
H950 H 0.84777 0.49751 0.55955 0.0
H951 H 0.84406 0.52969 0.60383 0.0
H952 H 0.85769 0.50317 0.66589 0.0
H953 H 0.91084 0.5412 0.33284 0.0
H954 H 0.93884 0.55873 0.37502 0.0
H955 H 0.90594 0.57221 0.38356 0.0
loop_
_geom_bond_atom_site_label_1
_geom_bond_atom_site_label_2
_geom_bond_distance
_geom_bond_site_symmetry_2
_ccdc_geom_bond_type
H0 C7 0.929 . S
H1 C10 0.930 1_556 S
H2 C12 0.929 . S
H3 C4 0.969 . S
C4 H3 0.969 . S
C4 O5 1.550 . S
C4 H6 0.973 1_554 S
O5 C4 1.550 . S
O5 C11 1.412 . S
H6 C4 0.973 1_556 S
C7 H0 0.929 . S
C7 C8 1.400 . S
C7 C9 1.364 . S
C8 C7 1.400 . S
C8 C12 1.377 . S
C9 C7 1.364 . S
C9 C10 1.374 . S
C10 H1 0.930 1_554 S
C10 C9 1.374 . S
C10 C11 1.383 . S
C11 O5 1.412 . S
C11 C10 1.383 . S
C11 C12 1.394 . S
C12 H2 0.929 . S
C12 C8 1.377 . S
C12 C11 1.394 . S
H13 C20 0.929 . S
H14 C23 0.930 1_556 S
H15 C25 0.929 . S
H16 C17 0.987 . S
C17 H16 0.987 . S
C17 O18 1.550 . S
C17 H19 0.973 1_554 S
O18 C17 1.550 . S
O18 C24 1.412 . S
H19 C17 0.973 1_556 S
C20 H13 0.929 . S
C20 C21 1.400 . S
C20 C22 1.364 . S
C21 C20 1.400 . S
C21 C25 1.377 . S
C22 C20 1.364 . S
C22 C23 1.374 . S
C23 H14 0.930 1_554 S
C23 C22 1.374 . S
C23 C24 1.383 . S
C24 O18 1.412 . S
C24 C23 1.383 . S
C24 C25 1.394 . S
C25 H15 0.929 . S
C25 C21 1.377 . S
C25 C24 1.394 . S
H26 C33 0.929 . S
H27 C36 0.930 1_556 S
H28 C38 0.929 . S
H29 C30 0.969 . S
C30 H29 0.969 . S
C30 O31 1.550 . S
C30 H32 0.973 1_554 S
O31 C30 1.550 . S
O31 C37 1.412 . S
H32 C30 0.973 1_556 S
C33 H26 0.929 . S
C33 C34 1.400 . S
C33 C35 1.364 . S
C34 C33 1.400 . S
C34 C38 1.377 . S
C35 C33 1.364 . S
C35 C36 1.374 . S
C36 H27 0.930 1_554 S
C36 C35 1.374 . S
C36 C37 1.383 . S
C37 O31 1.412 . S
C37 C36 1.383 . S
C37 C38 1.394 . S
C38 H28 0.929 . S
C38 C34 1.377 . S
C38 C37 1.394 . S
H39 C46 0.929 . S
H40 C49 0.930 1_556 S
H41 C51 0.929 . S
H42 C43 0.969 . S
C43 H42 0.969 . S
C43 O44 1.550 . S
C43 H45 0.973 1_554 S
O44 C43 1.550 . S
O44 C50 1.412 . S
H45 C43 0.973 1_556 S
C46 H39 0.929 . S
C46 C47 1.400 . S
C46 C48 1.364 . S
C47 C46 1.400 . S
C47 C51 1.377 . S
C48 C46 1.364 . S
C48 C49 1.374 . S
C49 H40 0.930 1_554 S
C49 C48 1.374 . S
C49 C50 1.383 . S
C50 O44 1.412 . S
C50 C49 1.383 . S
C50 C51 1.394 . S
C51 H41 0.929 . S
C51 C47 1.377 . S
C51 C50 1.394 . S
H52 C59 0.929 . S
H53 C62 0.930 . S
H54 C64 0.929 . S
H55 C56 0.969 . S
C56 H55 0.969 . S
C56 O57 1.550 . S
C56 H58 0.973 . S
O57 C56 1.550 . S
O57 C63 1.412 . S
H58 C56 0.973 . S
C59 H52 0.929 . S
C59 C60 1.400 . S
C59 C61 1.364 . S
C60 C59 1.400 . S
C60 C64 1.377 . S
C61 C59 1.364 . S
C61 C62 1.374 . S
C62 H53 0.930 . S
C62 C61 1.374 . S
C62 C63 1.383 . S
C63 O57 1.412 . S
C63 C62 1.383 . S
C63 C64 1.394 . S
C64 H54 0.929 . S
C64 C60 1.377 . S
C64 C63 1.394 . S
H65 C72 0.929 . S
H66 C75 0.930 . S
H67 C77 0.929 . S
H68 C69 0.969 . S
C69 H68 0.969 . S
C69 O70 1.550 . S
C69 H71 0.973 . S
O70 C69 1.550 . S
O70 C76 1.412 . S
H71 C69 0.973 . S
C72 H65 0.929 . S
C72 C73 1.400 . S
C72 C74 1.364 . S
C73 C72 1.400 . S
C73 C77 1.377 . S
C74 C72 1.364 . S
C74 C75 1.374 . S
C75 H66 0.930 . S
C75 C74 1.374 . S
C75 C76 1.383 . S
C76 O70 1.412 . S
C76 C75 1.383 . S
C76 C77 1.394 . S
C77 H67 0.929 . S
C77 C73 1.377 . S
C77 C76 1.394 . S
H78 C85 0.929 . S
H79 C88 0.930 . S
H80 C90 0.929 . S
H81 C82 0.969 . S
C82 H81 0.969 . S
C82 O83 1.550 . S
C82 H84 0.973 . S
O83 C82 1.550 . S
O83 C89 1.412 . S
H84 C82 0.973 . S
C85 H78 0.929 . S
C85 C86 1.400 . S
C85 C87 1.364 . S
C86 C85 1.400 . S
C86 C90 1.377 . S
C87 C85 1.364 . S
C87 C88 1.374 . S
C88 H79 0.930 . S
C88 C87 1.374 . S
C88 C89 1.383 . S
C89 O83 1.412 . S
C89 C88 1.383 . S
C89 C90 1.394 . S
C90 H80 0.929 . S
C90 C86 1.377 . S
C90 C89 1.394 . S
H91 C98 0.929 . S
H92 C101 0.930 . S
H93 C103 0.929 . S
H94 C95 0.969 . S
C95 H94 0.969 . S
C95 O96 1.550 . S
C95 H97 0.973 . S
O96 C95 1.550 . S
O96 C102 1.412 . S
H97 C95 0.973 . S
C98 H91 0.929 . S
C98 C99 1.400 . S
C98 C100 1.364 . S
C99 C98 1.400 . S
C99 C103 1.377 . S
C100 C98 1.364 . S
C100 C101 1.374 . S
C101 H92 0.930 . S
C101 C100 1.374 . S
C101 C102 1.383 . S
C102 O96 1.412 . S
C102 C101 1.383 . S
C102 C103 1.394 . S
C103 H93 0.929 . S
C103 C99 1.377 . S
C103 C102 1.394 . S
O104 Mg105 1.990 . S
O104 C118 1.253 . S
Mg105 O104 1.990 . S
Mg105 O108 2.180 1_565 S
Mg105 O109 2.117 . S
Mg105 O123 2.030 . S
O106 Mg107 2.072 1_565 S
O106 C118 1.260 . S
Mg107 O106 2.072 1_545 S
Mg107 O108 2.099 . S
Mg107 O110 2.079 . S
Mg107 O111 2.072 . S
Mg107 O113 2.099 1_455 S
Mg107 O124 2.079 1_545 S
O108 Mg105 2.180 1_545 S
O108 Mg107 2.099 . S
O108 C119 1.279 . S
O109 Mg105 2.117 . S
O109 C119 1.250 1_565 S
O110 Mg107 2.079 . S
O110 C120 1.264 . S
O111 Mg107 2.072 . S
O111 C121 1.260 . S
Mg112 O113 2.180 . S
Mg112 O114 2.030 . S
Mg112 O115 1.957 1_655 S
Mg112 O116 2.117 . S
O113 Mg107 2.099 1_655 S
O113 Mg112 2.180 . S
O113 C122 1.279 . S
O114 Mg112 2.030 . S
O114 C120 1.248 1_655 S
O115 Mg112 1.957 1_455 S
O115 C121 1.294 . S
O116 Mg112 2.117 . S
O116 C122 1.250 . S
C117 O123 1.248 . S
C117 O124 1.264 . S
C118 O104 1.253 . S
C118 O106 1.260 . S
C119 O108 1.279 . S
C119 O109 1.250 1_545 S
C120 O110 1.264 . S
C120 O114 1.248 1_455 S
C121 O111 1.260 . S
C121 O115 1.294 . S
C122 O113 1.279 . S
C122 O116 1.250 . S
O123 Mg105 2.030 . S
O123 C117 1.248 . S
O124 Mg107 2.079 1_565 S
O124 C117 1.264 . S
O125 Mg126 1.990 . S
O125 C139 1.253 1_565 S
Mg126 O125 1.990 . S
Mg126 O129 2.180 . S
Mg126 O130 2.117 . S
Mg126 O144 2.030 . S
O127 Mg128 2.072 . S
O127 C139 1.260 . S
Mg128 O127 2.072 . S
Mg128 O129 2.099 1_545 S
Mg128 O131 2.079 1_545 S
Mg128 O132 2.072 . S
Mg128 O134 2.099 . S
Mg128 O145 2.079 . S
O129 Mg126 2.180 . S
O129 Mg128 2.099 1_565 S
O129 C140 1.279 . S
O130 Mg126 2.117 . S
O130 C140 1.250 . S
O131 Mg128 2.079 1_565 S
O131 C141 1.264 1_565 S
O132 Mg128 2.072 . S
O132 C142 1.260 . S
Mg133 O134 2.180 . S
Mg133 O135 2.030 . S
Mg133 O136 1.990 . S
Mg133 O137 2.117 . S
O134 Mg128 2.099 . S
O134 Mg133 2.180 . S
O134 C143 1.279 . S
O135 Mg133 2.030 . S
O135 C141 1.248 . S
O136 Mg133 1.990 . S
O136 C142 1.253 . S
O137 Mg133 2.117 . S
O137 C143 1.250 . S
C138 O144 1.248 1_545 S
C138 O145 1.264 . S
C139 O125 1.253 1_545 S
C139 O127 1.260 . S
C140 O129 1.279 . S
C140 O130 1.250 . S
C141 O131 1.264 1_545 S
C141 O135 1.248 . S
C142 O132 1.260 . S
C142 O136 1.253 . S
C143 O134 1.279 . S
C143 O137 1.250 . S
O144 Mg126 2.030 . S
O144 C138 1.248 1_565 S
O145 Mg128 2.079 . S
O145 C138 1.264 . S
O146 Mg147 1.990 . S
O146 C160 1.253 . S
Mg147 O146 1.990 . S
Mg147 O150 2.180 . S
Mg147 O151 2.117 . S
Mg147 O165 2.030 . S
O148 Mg149 2.072 . S
O148 C160 1.260 . S
Mg149 O148 2.072 . S
Mg149 O150 2.099 . S
Mg149 O152 2.079 . S
Mg149 O153 2.072 . S
Mg149 O155 2.099 . S
Mg149 O166 2.079 . S
O150 Mg147 2.180 . S
O150 Mg149 2.099 . S
O150 C161 1.279 . S
O151 Mg147 2.117 . S
O151 C161 1.250 . S
O152 Mg149 2.079 . S
O152 C162 1.264 . S
O153 Mg149 2.072 . S
O153 C163 1.260 . S
Mg154 O155 2.180 . S
Mg154 O156 2.030 . S
Mg154 O157 1.990 . S
Mg154 O158 2.117 . S
O155 Mg149 2.099 . S
O155 Mg154 2.180 . S
O155 C164 1.279 . S
O156 Mg154 2.030 . S
O156 C162 1.248 . S
O157 Mg154 1.990 . S
O157 C163 1.253 . S
O158 Mg154 2.117 . S
O158 C164 1.250 . S
C159 O165 1.248 . S
C159 O166 1.264 . S
C160 O146 1.253 . S
C160 O148 1.260 . S
C161 O150 1.279 . S
C161 O151 1.250 . S
C162 O152 1.264 . S
C162 O156 1.248 . S
C163 O153 1.260 . S
C163 O157 1.253 . S
C164 O155 1.279 . S
C164 O158 1.250 . S
O165 Mg147 2.030 . S
O165 C159 1.248 . S
O166 Mg149 2.079 . S
O166 C159 1.264 . S
O167 Mg168 1.990 . S
O167 C181 1.253 . S
Mg168 O167 1.990 . S
Mg168 O171 2.180 1_655 S
Mg168 O172 2.117 . S
Mg168 O186 2.030 . S
O169 Mg170 2.072 1_655 S
O169 C181 1.260 . S
Mg170 O169 2.072 1_455 S
Mg170 O171 2.099 . S
Mg170 O173 2.079 . S
Mg170 O174 2.072 . S
Mg170 O176 2.099 . S
Mg170 O187 2.079 1_455 S
O171 Mg168 2.180 1_455 S
O171 Mg170 2.099 . S
O171 C182 1.279 . S
O172 Mg168 2.117 . S
O172 C182 1.250 1_655 S
O173 Mg170 2.079 . S
O173 C183 1.264 . S
O174 Mg170 2.072 . S
O174 C184 1.260 . S
Mg175 O176 2.180 . S
Mg175 O177 2.030 . S
Mg175 O178 1.990 . S
Mg175 O179 2.117 . S
O176 Mg170 2.099 . S
O176 Mg175 2.180 . S
O176 C185 1.279 . S
O177 Mg175 2.030 . S
O177 C183 1.248 . S
O178 Mg175 1.990 . S
O178 C184 1.253 . S
O179 Mg175 2.117 . S
O179 C185 1.250 . S
C180 O186 1.248 . S
C180 O187 1.264 . S
C181 O167 1.253 . S
C181 O169 1.260 . S
C182 O171 1.279 . S
C182 O172 1.250 1_455 S
C183 O173 1.264 . S
C183 O177 1.248 . S
C184 O174 1.260 . S
C184 O178 1.253 . S
C185 O176 1.279 . S
C185 O179 1.250 . S
O186 Mg168 2.030 . S
O186 C180 1.248 . S
O187 Mg170 2.079 1_655 S
O187 C180 1.264 . S
C188 C189 1.391 . S
C188 C190 1.394 . S
C188 H204 0.931 . S
C189 C188 1.391 . S
C189 C193 1.376 . S
C190 C188 1.394 . S
C190 C191 1.369 . S
C190 C194 1.531 1_545 S
C191 C190 1.369 . S
C191 C192 1.410 . S
C191 C199 1.503 . S
C192 C191 1.410 . S
C192 C193 1.392 . S
C192 C195 1.511 . S
C193 C189 1.376 . S
C193 C192 1.392 . S
C193 H205 0.929 . S
C194 C190 1.531 1_565 S
C194 H206 0.960 . S
C194 H207 0.962 . S
C194 H208 0.960 . S
C195 C192 1.511 . S
C195 H209 0.961 . S
C195 H210 0.961 . S
C195 H211 0.961 . S
C196 C197 1.370 . S
C196 C198 1.363 . S
C196 H212 0.931 . S
C197 C196 1.370 . S
C197 C201 1.408 . S
C198 C196 1.363 . S
C198 C199 1.370 . S
C198 C202 1.524 . S
C199 C191 1.503 . S
C199 C198 1.370 . S
C199 C200 1.403 . S
C200 C199 1.403 . S
C200 C201 1.404 . S
C200 C203 1.539 . S
C201 C197 1.408 . S
C201 C200 1.404 . S
C201 H213 0.930 . S
C202 C198 1.524 . S
C202 H214 0.956 . S
C202 H215 0.961 . S
C202 H216 0.961 . S
C203 C200 1.539 . S
C203 H217 0.958 . S
C203 H218 0.961 . S
C203 H219 0.960 . S
H204 C188 0.931 . S
H205 C193 0.929 . S
H206 C194 0.960 . S
H207 C194 0.962 . S
H208 C194 0.960 . S
H209 C195 0.961 . S
H210 C195 0.961 . S
H211 C195 0.961 . S
H212 C196 0.931 . S
H213 C201 0.930 . S
H214 C202 0.956 . S
H215 C202 0.961 . S
H216 C202 0.961 . S
H217 C203 0.958 . S
H218 C203 0.961 . S
H219 C203 0.960 . S
C220 C221 1.391 . S
C220 C222 1.394 . S
C220 H236 0.931 . S
C221 C220 1.391 . S
C221 C225 1.376 . S
C222 C220 1.394 . S
C222 C223 1.369 . S
C222 C226 1.531 . S
C223 C222 1.369 . S
C223 C224 1.410 . S
C223 C231 1.503 . S
C224 C223 1.410 . S
C224 C225 1.392 . S
C224 C227 1.511 . S
C225 C221 1.376 . S
C225 C224 1.392 . S
C225 H237 0.929 . S
C226 C222 1.531 . S
C226 H238 0.960 . S
C226 H239 0.962 . S
C226 H240 0.960 . S
C227 C224 1.511 . S
C227 H241 0.961 . S
C227 H242 0.961 . S
C227 H243 0.961 . S
C228 C229 1.370 . S
C228 C230 1.363 . S
C228 H244 0.931 . S
C229 C228 1.370 . S
C229 C233 1.408 . S
C230 C228 1.363 . S
C230 C231 1.370 . S
C230 C234 1.524 . S
C231 C223 1.503 . S
C231 C230 1.370 . S
C231 C232 1.403 . S
C232 C231 1.403 . S
C232 C233 1.404 . S
C232 C235 1.539 . S
C233 C229 1.408 . S
C233 C232 1.404 . S
C233 H245 0.930 . S
C234 C230 1.524 . S
C234 H246 0.956 . S
C234 H247 0.961 . S
C234 H248 0.961 . S
C235 C232 1.539 . S
C235 H249 0.958 . S
C235 H250 0.961 . S
C235 H251 0.960 . S
H236 C220 0.931 . S
H237 C225 0.929 . S
H238 C226 0.960 . S
H239 C226 0.962 . S
H240 C226 0.960 . S
H241 C227 0.961 . S
H242 C227 0.961 . S
H243 C227 0.961 . S
H244 C228 0.931 . S
H245 C233 0.930 . S
H246 C234 0.956 . S
H247 C234 0.961 . S
H248 C234 0.961 . S
H249 C235 0.958 . S
H250 C235 0.961 . S
H251 C235 0.960 . S
C252 C253 1.391 . S
C252 C254 1.394 . S
C252 H268 0.931 . S
C253 C252 1.391 . S
C253 C257 1.376 . S
C254 C252 1.394 . S
C254 C255 1.369 . S
C254 C258 1.531 . S
C255 C254 1.369 . S
C255 C256 1.410 . S
C255 C263 1.503 . S
C256 C255 1.410 . S
C256 C257 1.392 . S
C256 C259 1.511 . S
C257 C253 1.376 . S
C257 C256 1.392 . S
C257 H269 0.929 . S
C258 C254 1.531 . S
C258 H270 0.960 . S
C258 H271 0.962 . S
C258 H272 0.960 . S
C259 C256 1.511 . S
C259 H273 0.961 . S
C259 H274 0.961 . S
C259 H275 0.961 . S
C260 C261 1.370 . S
C260 C262 1.363 . S
C260 H276 0.931 . S
C261 C260 1.370 . S
C261 C265 1.408 . S
C262 C260 1.363 . S
C262 C263 1.370 . S
C262 C266 1.524 . S
C263 C255 1.503 . S
C263 C262 1.370 . S
C263 C264 1.403 . S
C264 C263 1.403 . S
C264 C265 1.404 . S
C264 C267 1.539 . S
C265 C261 1.408 . S
C265 C264 1.404 . S
C265 H277 0.930 . S
C266 C262 1.524 . S
C266 H278 0.956 . S
C266 H279 0.961 . S
C266 H280 0.961 . S
C267 C264 1.539 . S
C267 H281 0.958 . S
C267 H282 0.961 . S
C267 H283 0.960 . S
H268 C252 0.931 . S
H269 C257 0.929 . S
H270 C258 0.960 . S
H271 C258 0.962 . S
H272 C258 0.960 . S
H273 C259 0.961 . S
H274 C259 0.961 . S
H275 C259 0.961 . S
H276 C260 0.931 . S
H277 C265 0.930 . S
H278 C266 0.956 . S
H279 C266 0.961 . S
H280 C266 0.961 . S
H281 C267 0.958 . S
H282 C267 0.961 . S
H283 C267 0.960 . S
C284 C285 1.391 . S
C284 C286 1.394 . S
C284 H300 0.931 . S
C285 C284 1.391 . S
C285 C289 1.376 . S
C286 C284 1.394 . S
C286 C287 1.369 . S
C286 C290 1.531 . S
C287 C286 1.369 . S
C287 C288 1.410 . S
C287 C295 1.503 . S
C288 C287 1.410 . S
C288 C289 1.392 . S
C288 C291 1.511 . S
C289 C285 1.376 . S
C289 C288 1.392 . S
C289 H301 0.929 . S
C290 C286 1.531 . S
C290 H302 0.960 1_455 S
C290 H303 0.962 . S
C290 H304 0.960 1_455 S
C291 C288 1.511 . S
C291 H305 0.961 . S
C291 H306 0.961 . S
C291 H307 0.961 . S
C292 C293 1.370 . S
C292 C294 1.363 . S
C292 H308 0.931 . S
C293 C292 1.370 . S
C293 C297 1.408 . S
C294 C292 1.363 . S
C294 C295 1.370 . S
C294 C298 1.524 . S
C295 C287 1.503 . S
C295 C294 1.370 . S
C295 C296 1.403 . S
C296 C295 1.403 . S
C296 C297 1.404 . S
C296 C299 1.539 1_455 S
C297 C293 1.408 . S
C297 C296 1.404 . S
C297 H309 0.930 1_455 S
C298 C294 1.524 . S
C298 H310 0.956 . S
C298 H311 0.961 . S
C298 H312 0.961 . S
C299 C296 1.539 1_655 S
C299 H313 0.958 . S
C299 H314 0.961 . S
C299 H315 0.960 . S
H300 C284 0.931 . S
H301 C289 0.929 . S
H302 C290 0.960 1_655 S
H303 C290 0.962 . S
H304 C290 0.960 1_655 S
H305 C291 0.961 . S
H306 C291 0.961 . S
H307 C291 0.961 . S
H308 C292 0.931 . S
H309 C297 0.930 1_655 S
H310 C298 0.956 . S
H311 C298 0.961 . S
H312 C298 0.961 . S
H313 C299 0.958 . S
H314 C299 0.961 . S
H315 C299 0.960 . S
C316 C317 1.391 . S
C316 C318 1.394 . S
C316 H332 0.931 . S
C317 C316 1.391 . S
C317 C321 1.376 1_554 S
C318 C316 1.394 . S
C318 C319 1.369 1_554 S
C318 C322 1.531 . S
C319 C318 1.369 1_556 S
C319 C320 1.410 . S
C319 C327 1.503 . S
C320 C319 1.410 . S
C320 C321 1.392 . S
C320 C323 1.511 . S
C321 C317 1.376 1_556 S
C321 C320 1.392 . S
C321 H333 0.929 . S
C322 C318 1.531 . S
C322 H334 0.960 . S
C322 H335 0.962 1_565 S
C322 H336 0.960 . S
C323 C320 1.511 . S
C323 H337 0.961 . S
C323 H338 0.961 . S
C323 H339 0.961 . S
C324 C325 1.395 . S
C324 C326 1.363 . S
C324 H340 0.931 . S
C325 C324 1.395 . S
C325 C329 1.374 1_545 S
C326 C324 1.363 . S
C326 C327 1.370 1_545 S
C326 C330 1.524 . S
C327 C319 1.503 . S
C327 C326 1.370 1_565 S
C327 C328 1.403 . S
C328 C327 1.403 . S
C328 C329 1.404 . S
C328 C331 1.539 . S
C329 C325 1.374 1_565 S
C329 C328 1.404 . S
C329 H341 0.930 . S
C330 C326 1.524 . S
C330 H342 0.956 . S
C330 H343 0.961 . S
C330 H344 0.961 . S
C331 C328 1.539 . S
C331 H345 0.958 . S
C331 H346 0.961 . S
C331 H347 0.960 . S
H332 C316 0.931 . S
H333 C321 0.929 . S
H334 C322 0.960 . S
H335 C322 0.962 1_545 S
H336 C322 0.960 . S
H337 C323 0.961 . S
H338 C323 0.961 . S
H339 C323 0.961 . S
H340 C324 0.931 . S
H341 C329 0.930 . S
H342 C330 0.956 . S
H343 C330 0.961 . S
H344 C330 0.961 . S
H345 C331 0.958 . S
H346 C331 0.961 . S
H347 C331 0.960 . S
C348 C349 1.391 1_556 S
C348 C350 1.394 . S
C348 H364 0.931 . S
C349 C348 1.391 1_554 S
C349 C353 1.376 . S
C350 C348 1.394 . S
C350 C351 1.369 . S
C350 C354 1.531 . S
C351 C350 1.369 . S
C351 C352 1.410 1_556 S
C351 C359 1.503 . S
C352 C351 1.410 1_554 S
C352 C353 1.392 . S
C352 C355 1.511 . S
C353 C349 1.376 . S
C353 C352 1.392 . S
C353 H365 0.929 . S
C354 C350 1.531 . S
C354 H366 0.960 . S
C354 H367 0.962 . S
C354 H368 0.960 . S
C355 C352 1.511 . S
C355 H369 0.961 . S
C355 H370 0.961 . S
C355 H371 0.961 . S
C356 C357 1.370 . S
C356 C358 1.363 . S
C356 H372 0.931 . S
C357 C356 1.370 . S
C357 C361 1.408 . S
C358 C356 1.363 . S
C358 C359 1.370 . S
C358 C362 1.524 . S
C359 C351 1.503 . S
C359 C358 1.370 . S
C359 C360 1.403 . S
C360 C359 1.403 . S
C360 C361 1.404 . S
C360 C363 1.539 . S
C361 C357 1.408 . S
C361 C360 1.404 . S
C361 H373 0.930 . S
C362 C358 1.524 . S
C362 H374 0.956 . S
C362 H375 0.961 . S
C362 H376 0.961 . S
C363 C360 1.539 . S
C363 H377 0.958 . S
C363 H378 0.961 . S
C363 H379 0.960 . S
H364 C348 0.931 . S
H365 C353 0.929 . S
H366 C354 0.960 . S
H367 C354 0.962 . S
H368 C354 0.960 . S
H369 C355 0.961 . S
H370 C355 0.961 . S
H371 C355 0.961 . S
H372 C356 0.931 . S
H373 C361 0.930 . S
H374 C362 0.956 . S
H375 C362 0.961 . S
H376 C362 0.961 . S
H377 C363 0.958 . S
H378 C363 0.961 . S
H379 C363 0.960 . S
C380 C381 1.391 . S
C380 C382 1.394 . S
C380 H396 0.931 . S
C381 C380 1.391 . S
C381 C385 1.376 1_554 S
C382 C380 1.394 . S
C382 C383 1.369 1_554 S
C382 C386 1.531 . S
C383 C382 1.369 1_556 S
C383 C384 1.410 . S
C383 C391 1.503 . S
C384 C383 1.410 . S
C384 C385 1.392 . S
C384 C387 1.511 . S
C385 C381 1.376 1_556 S
C385 C384 1.392 . S
C385 H397 0.929 . S
C386 C382 1.531 . S
C386 H398 0.960 . S
C386 H399 0.962 . S
C386 H400 0.960 . S
C387 C384 1.511 . S
C387 H401 0.961 . S
C387 H402 0.961 . S
C387 H403 0.961 . S
C388 C389 1.370 . S
C388 C390 1.363 . S
C388 H404 0.931 . S
C389 C388 1.370 . S
C389 C393 1.408 . S
C390 C388 1.363 . S
C390 C391 1.370 . S
C390 C394 1.524 . S
C391 C383 1.503 . S
C391 C390 1.370 . S
C391 C392 1.403 . S
C392 C391 1.403 . S
C392 C393 1.404 . S
C392 C395 1.539 . S
C393 C389 1.408 . S
C393 C392 1.404 . S
C393 H405 0.930 . S
C394 C390 1.524 . S
C394 H406 0.956 1_556 S
C394 H407 0.961 . S
C394 H408 0.961 . S
C395 C392 1.539 . S
C395 H409 0.958 . S
C395 H410 0.961 . S
C395 H411 0.960 . S
H396 C380 0.931 . S
H397 C385 0.929 . S
H398 C386 0.960 . S
H399 C386 0.962 . S
H400 C386 0.960 . S
H401 C387 0.961 . S
H402 C387 0.961 . S
H403 C387 0.961 . S
H404 C388 0.931 . S
H405 C393 0.930 . S
H406 C394 0.956 1_554 S
H407 C394 0.961 . S
H408 C394 0.961 . S
H409 C395 0.958 . S
H410 C395 0.961 . S
H411 C395 0.960 . S
C412 C413 1.391 . S
C412 C414 1.394 . S
C412 H428 0.931 1_655 S
C413 C412 1.391 . S
C413 C417 1.376 1_554 S
C414 C412 1.394 . S
C414 C415 1.369 1_554 S
C414 C418 1.531 1_655 S
C415 C414 1.369 1_556 S
C415 C416 1.410 . S
C415 C423 1.503 . S
C416 C415 1.410 . S
C416 C417 1.392 . S
C416 C419 1.511 . S
C417 C413 1.376 1_556 S
C417 C416 1.392 . S
C417 H429 0.929 . S
C418 C414 1.531 1_455 S
C418 H430 0.960 . S
C418 H431 0.962 . S
C418 H432 0.960 . S
C419 C416 1.511 . S
C419 H433 0.961 . S
C419 H434 0.961 . S
C419 H435 0.961 . S
C420 C421 1.370 . S
C420 C422 1.363 . S
C420 H436 0.931 . S
C421 C420 1.370 . S
C421 C425 1.408 1_455 S
C422 C420 1.363 . S
C422 C423 1.370 1_455 S
C422 C426 1.524 . S
C423 C415 1.503 . S
C423 C422 1.370 1_655 S
C423 C424 1.403 . S
C424 C423 1.403 . S
C424 C425 1.404 . S
C424 C427 1.539 . S
C425 C421 1.408 1_655 S
C425 C424 1.404 . S
C425 H437 0.930 . S
C426 C422 1.524 . S
C426 H438 0.956 . S
C426 H439 0.961 . S
C426 H440 0.961 . S
C427 C424 1.539 . S
C427 H441 0.958 1_556 S
C427 H442 0.961 . S
C427 H443 0.960 . S
H428 C412 0.931 1_455 S
H429 C417 0.929 . S
H430 C418 0.960 . S
H431 C418 0.962 . S
H432 C418 0.960 . S
H433 C419 0.961 . S
H434 C419 0.961 . S
H435 C419 0.961 . S
H436 C420 0.931 . S
H437 C425 0.930 . S
H438 C426 0.956 . S
H439 C426 0.961 . S
H440 C426 0.961 . S
H441 C427 0.958 1_554 S
H442 C427 0.961 . S
H443 C427 0.960 . S
C444 C445 1.391 . S
C444 C446 1.394 . S
C444 H460 0.931 . S
C445 C444 1.391 . S
C445 C449 1.376 . S
C446 C444 1.394 . S
C446 C447 1.369 . S
C446 C450 1.531 . S
C447 C446 1.369 . S
C447 C448 1.410 . S
C447 C455 1.503 . S
C448 C447 1.410 . S
C448 C449 1.392 . S
C448 C451 1.511 1_455 S
C449 C445 1.376 . S
C449 C448 1.392 . S
C449 H461 0.929 . S
C450 C446 1.531 . S
C450 H462 0.960 . S
C450 H463 0.962 . S
C450 H464 0.960 . S
C451 C448 1.511 1_655 S
C451 H465 0.961 . S
C451 H466 0.961 . S
C451 H467 0.961 . S
C452 C453 1.370 . S
C452 C454 1.363 . S
C452 H468 0.931 . S
C453 C452 1.370 . S
C453 C457 1.408 . S
C454 C452 1.363 . S
C454 C455 1.370 . S
C454 C458 1.524 . S
C455 C447 1.503 . S
C455 C454 1.370 . S
C455 C456 1.403 . S
C456 C455 1.403 . S
C456 C457 1.404 . S
C456 C459 1.539 . S
C457 C453 1.408 . S
C457 C456 1.404 . S
C457 H469 0.930 . S
C458 C454 1.524 . S
C458 H470 0.956 . S
C458 H471 0.961 . S
C458 H472 0.961 . S
C459 C456 1.539 . S
C459 H473 0.958 . S
C459 H474 0.961 1_455 S
C459 H475 0.960 . S
H460 C444 0.931 . S
H461 C449 0.929 . S
H462 C450 0.960 . S
H463 C450 0.962 . S
H464 C450 0.960 . S
H465 C451 0.961 . S
H466 C451 0.961 . S
H467 C451 0.961 . S
H468 C452 0.931 . S
H469 C457 0.930 . S
H470 C458 0.956 . S
H471 C458 0.961 . S
H472 C458 0.961 . S
H473 C459 0.958 . S
H474 C459 0.961 1_655 S
H475 C459 0.960 . S
C476 C477 1.391 . S
C476 C478 1.394 . S
C476 H492 0.931 . S
C477 C476 1.391 . S
C477 C481 1.376 . S
C478 C476 1.394 . S
C478 C479 1.369 . S
C478 C482 1.531 . S
C479 C478 1.369 . S
C479 C480 1.410 . S
C479 C487 1.503 . S
C480 C479 1.410 . S
C480 C481 1.392 . S
C480 C483 1.511 . S
C481 C477 1.376 . S
C481 C480 1.392 . S
C481 H493 0.929 . S
C482 C478 1.531 . S
C482 H494 0.960 . S
C482 H495 0.962 . S
C482 H496 0.960 . S
C483 C480 1.511 . S
C483 H497 0.952 1_545 S
C483 H498 0.954 1_545 S
C483 H499 0.961 . S
C484 C485 1.370 1_565 S
C484 C486 1.363 1_565 S
C484 H500 0.931 . S
C485 C484 1.370 1_545 S
C485 C489 1.408 . S
C486 C484 1.363 1_545 S
C486 C487 1.370 . S
C486 C490 1.524 1_545 S
C487 C479 1.503 . S
C487 C486 1.370 . S
C487 C488 1.403 . S
C488 C487 1.403 . S
C488 C489 1.404 . S
C488 C491 1.539 . S
C489 C485 1.408 . S
C489 C488 1.404 . S
C489 H501 0.930 . S
C490 C486 1.524 1_565 S
C490 H502 0.956 1_565 S
C490 H503 0.961 . S
C490 H504 0.961 . S
C491 C488 1.539 . S
C491 H505 0.958 . S
C491 H506 0.961 . S
C491 H507 0.960 . S
H492 C476 0.931 . S
H493 C481 0.929 . S
H494 C482 0.960 . S
H495 C482 0.962 . S
H496 C482 0.960 . S
H497 C483 0.952 1_565 S
H498 C483 0.954 1_565 S
H499 C483 0.961 . S
H500 C484 0.931 . S
H501 C489 0.930 . S
H502 C490 0.956 1_545 S
H503 C490 0.961 . S
H504 C490 0.961 . S
H505 C491 0.958 . S
H506 C491 0.961 . S
H507 C491 0.960 . S
C508 C509 1.391 . S
C508 C510 1.394 . S
C508 H524 0.931 . S
C509 C508 1.391 . S
C509 C513 1.376 . S
C510 C508 1.394 . S
C510 C511 1.369 . S
C510 C514 1.531 . S
C511 C510 1.369 . S
C511 C512 1.410 . S
C511 C519 1.503 . S
C512 C511 1.410 . S
C512 C513 1.392 . S
C512 C515 1.511 . S
C513 C509 1.376 . S
C513 C512 1.392 . S
C513 H525 0.929 . S
C514 C510 1.531 . S
C514 H526 0.960 . S
C514 H527 0.962 . S
C514 H528 0.960 . S
C515 C512 1.511 . S
C515 H529 0.961 . S
C515 H530 0.961 . S
C515 H531 0.961 . S
C516 C517 1.370 . S
C516 C518 1.363 . S
C516 H532 0.931 . S
C517 C516 1.370 . S
C517 C521 1.408 . S
C518 C516 1.363 . S
C518 C519 1.370 . S
C518 C522 1.524 . S
C519 C511 1.503 . S
C519 C518 1.370 . S
C519 C520 1.403 . S
C520 C519 1.403 . S
C520 C521 1.404 . S
C520 C523 1.539 . S
C521 C517 1.408 . S
C521 C520 1.404 . S
C521 H533 0.930 . S
C522 C518 1.524 . S
C522 H534 0.956 . S
C522 H535 0.961 . S
C522 H536 0.961 . S
C523 C520 1.539 . S
C523 H537 0.958 . S
C523 H538 0.961 . S
C523 H539 0.960 . S
H524 C508 0.931 . S
H525 C513 0.929 . S
H526 C514 0.960 . S
H527 C514 0.962 . S
H528 C514 0.960 . S
H529 C515 0.961 . S
H530 C515 0.961 . S
H531 C515 0.961 . S
H532 C516 0.931 . S
H533 C521 0.930 . S
H534 C522 0.956 . S
H535 C522 0.961 . S
H536 C522 0.961 . S
H537 C523 0.958 . S
H538 C523 0.961 . S
H539 C523 0.960 . S
C540 C541 1.391 . S
C540 C542 1.394 . S
C540 H556 0.931 . S
C541 C540 1.391 . S
C541 C545 1.376 . S
C542 C540 1.394 . S
C542 C543 1.369 . S
C542 C546 1.531 . S
C543 C542 1.369 . S
C543 C544 1.410 . S
C543 C551 1.503 . S
C544 C543 1.410 . S
C544 C545 1.392 . S
C544 C547 1.511 . S
C545 C541 1.376 . S
C545 C544 1.392 . S
C545 H557 0.929 . S
C546 C542 1.531 . S
C546 H558 0.960 . S
C546 H559 0.962 . S
C546 H560 0.960 . S
C547 C544 1.511 . S
C547 H561 0.961 . S
C547 H562 0.961 . S
C547 H563 0.961 . S
C548 C549 1.370 . S
C548 C550 1.363 . S
C548 H564 0.931 . S
C549 C548 1.370 . S
C549 C553 1.408 . S
C550 C548 1.363 . S
C550 C551 1.370 . S
C550 C554 1.524 . S
C551 C543 1.503 . S
C551 C550 1.370 . S
C551 C552 1.403 . S
C552 C551 1.403 . S
C552 C553 1.404 . S
C552 C555 1.539 . S
C553 C549 1.408 . S
C553 C552 1.404 . S
C553 H565 0.930 . S
C554 C550 1.524 . S
C554 H566 0.956 . S
C554 H567 0.961 . S
C554 H568 0.961 . S
C555 C552 1.539 . S
C555 H569 0.958 . S
C555 H570 0.961 . S
C555 H571 0.960 . S
H556 C540 0.931 . S
H557 C545 0.929 . S
H558 C546 0.960 . S
H559 C546 0.962 . S
H560 C546 0.960 . S
H561 C547 0.961 . S
H562 C547 0.961 . S
H563 C547 0.961 . S
H564 C548 0.931 . S
H565 C553 0.930 . S
H566 C554 0.956 . S
H567 C554 0.961 . S
H568 C554 0.961 . S
H569 C555 0.958 . S
H570 C555 0.961 . S
H571 C555 0.960 . S
C572 C573 1.391 1_556 S
C572 C574 1.394 . S
C572 H588 0.931 . S
C573 C572 1.391 1_554 S
C573 C577 1.376 . S
C574 C572 1.394 . S
C574 C575 1.369 . S
C574 C578 1.531 1_655 S
C575 C574 1.369 . S
C575 C576 1.410 1_556 S
C575 C583 1.503 . S
C576 C575 1.410 1_554 S
C576 C577 1.392 . S
C576 C579 1.511 . S
C577 C573 1.376 . S
C577 C576 1.392 . S
C577 H589 0.929 . S
C578 C574 1.531 1_455 S
C578 H590 0.960 1_455 S
C578 H591 0.962 . S
C578 H592 0.960 1_455 S
C579 C576 1.511 . S
C579 H593 0.961 . S
C579 H594 0.961 . S
C579 H595 0.961 . S
C580 C581 1.370 . S
C580 C582 1.363 . S
C580 H596 0.931 . S
C581 C580 1.370 . S
C581 C585 1.408 1_455 S
C582 C580 1.363 . S
C582 C583 1.370 1_455 S
C582 C586 1.524 . S
C583 C575 1.503 . S
C583 C582 1.370 1_655 S
C583 C584 1.403 . S
C584 C583 1.403 . S
C584 C585 1.404 . S
C584 C587 1.539 . S
C585 C581 1.408 1_655 S
C585 C584 1.404 . S
C585 H597 0.930 . S
C586 C582 1.524 . S
C586 H598 0.956 . S
C586 H599 0.961 1_556 S
C586 H600 0.961 . S
C587 C584 1.539 . S
C587 H601 0.958 . S
C587 H602 0.961 . S
C587 H603 0.960 . S
H588 C572 0.931 . S
H589 C577 0.929 . S
H590 C578 0.960 1_655 S
H591 C578 0.962 . S
H592 C578 0.960 1_655 S
H593 C579 0.961 . S
H594 C579 0.961 . S
H595 C579 0.961 . S
H596 C580 0.931 . S
H597 C585 0.930 . S
H598 C586 0.956 . S
H599 C586 0.961 1_554 S
H600 C586 0.961 . S
H601 C587 0.958 . S
H602 C587 0.961 . S
H603 C587 0.960 . S
C604 C605 1.391 1_556 S
C604 C606 1.394 . S
C604 H620 0.924 1_565 S
C605 C604 1.391 1_554 S
C605 C609 1.376 . S
C606 C604 1.394 . S
C606 C607 1.369 . S
C606 C610 1.531 1_565 S
C607 C606 1.369 . S
C607 C608 1.410 . S
C607 C615 1.503 . S
C608 C607 1.410 . S
C608 C609 1.392 1_556 S
C608 C611 1.511 1_556 S
C609 C605 1.376 . S
C609 C608 1.392 1_554 S
C609 H621 0.929 . S
C610 C606 1.531 1_545 S
C610 H622 0.960 . S
C610 H623 0.962 . S
C610 H624 0.960 . S
C611 C608 1.511 1_554 S
C611 H625 0.961 . S
C611 H626 0.961 . S
C611 H627 0.961 1_554 S
C612 C613 1.370 . S
C612 C614 1.363 . S
C612 H628 0.931 . S
C613 C612 1.370 . S
C613 C617 1.408 1_545 S
C614 C612 1.363 . S
C614 C615 1.370 1_545 S
C614 C618 1.524 1_556 S
C615 C607 1.503 . S
C615 C614 1.370 1_565 S
C615 C616 1.403 . S
C616 C615 1.403 . S
C616 C617 1.404 . S
C616 C619 1.539 . S
C617 C613 1.408 1_565 S
C617 C616 1.404 . S
C617 H629 0.930 . S
C618 C614 1.524 1_554 S
C618 H630 0.956 . S
C618 H631 0.961 . S
C618 H632 0.961 . S
C619 C616 1.539 . S
C619 H633 0.958 . S
C619 H634 0.961 . S
C619 H635 0.960 . S
H620 C604 0.924 1_545 S
H621 C609 0.929 . S
H622 C610 0.960 . S
H623 C610 0.962 . S
H624 C610 0.960 . S
H625 C611 0.961 . S
H626 C611 0.961 . S
H627 C611 0.961 1_556 S
H628 C612 0.931 . S
H629 C617 0.930 . S
H630 C618 0.956 . S
H631 C618 0.961 . S
H632 C618 0.961 . S
H633 C619 0.958 . S
H634 C619 0.961 . S
H635 C619 0.960 . S
C636 C637 1.391 1_556 S
C636 C638 1.394 . S
C636 H652 0.931 . S
C637 C636 1.391 1_554 S
C637 C641 1.376 . S
C638 C636 1.394 . S
C638 C639 1.369 . S
C638 C642 1.531 . S
C639 C638 1.369 . S
C639 C640 1.410 . S
C639 C647 1.503 . S
C640 C639 1.410 . S
C640 C641 1.392 1_556 S
C640 C643 1.511 . S
C641 C637 1.376 . S
C641 C640 1.392 1_554 S
C641 H653 0.929 . S
C642 C638 1.531 . S
C642 H654 0.960 . S
C642 H655 0.962 . S
C642 H656 0.960 . S
C643 C640 1.511 . S
C643 H657 0.961 1_556 S
C643 H658 0.961 . S
C643 H659 0.961 . S
C644 C645 1.370 . S
C644 C646 1.363 . S
C644 H660 0.931 . S
C645 C644 1.370 . S
C645 C649 1.408 . S
C646 C644 1.363 . S
C646 C647 1.370 . S
C646 C650 1.524 1_556 S
C647 C639 1.503 . S
C647 C646 1.370 . S
C647 C648 1.403 . S
C648 C647 1.403 . S
C648 C649 1.404 . S
C648 C651 1.539 . S
C649 C645 1.408 . S
C649 C648 1.404 . S
C649 H661 0.930 . S
C650 C646 1.524 1_554 S
C650 H662 0.956 . S
C650 H663 0.961 . S
C650 H664 0.961 . S
C651 C648 1.539 . S
C651 H665 0.958 . S
C651 H666 0.961 . S
C651 H667 0.960 . S
H652 C636 0.931 . S
H653 C641 0.929 . S
H654 C642 0.960 . S
H655 C642 0.962 . S
H656 C642 0.960 . S
H657 C643 0.961 1_554 S
H658 C643 0.961 . S
H659 C643 0.961 . S
H660 C644 0.931 . S
H661 C649 0.930 . S
H662 C650 0.956 . S
H663 C650 0.961 . S
H664 C650 0.961 . S
H665 C651 0.958 . S
H666 C651 0.961 . S
H667 C651 0.960 . S
C668 C669 1.391 . S
C668 C670 1.394 . S
C668 H684 0.931 . S
C669 C668 1.391 . S
C669 C673 1.376 1_554 S
C670 C668 1.394 . S
C670 C671 1.369 1_554 S
C670 C674 1.531 . S
C671 C670 1.369 1_556 S
C671 C672 1.410 . S
C671 C679 1.503 . S
C672 C671 1.410 . S
C672 C673 1.392 . S
C672 C675 1.511 . S
C673 C669 1.376 1_556 S
C673 C672 1.392 . S
C673 H685 0.929 . S
C674 C670 1.531 . S
C674 H686 0.960 . S
C674 H687 0.962 . S
C674 H688 0.960 . S
C675 C672 1.511 . S
C675 H689 0.961 . S
C675 H690 0.961 . S
C675 H691 0.961 . S
C676 C677 1.370 . S
C676 C678 1.363 . S
C676 H692 0.931 . S
C677 C676 1.370 . S
C677 C681 1.408 . S
C678 C676 1.363 . S
C678 C679 1.370 . S
C678 C682 1.524 . S
C679 C671 1.503 . S
C679 C678 1.370 . S
C679 C680 1.403 . S
C680 C679 1.403 . S
C680 C681 1.404 . S
C680 C683 1.539 . S
C681 C677 1.408 . S
C681 C680 1.404 . S
C681 H693 0.930 . S
C682 C678 1.524 . S
C682 H694 0.956 . S
C682 H695 0.961 . S
C682 H696 0.961 . S
C683 C680 1.539 . S
C683 H697 0.958 1_556 S
C683 H698 0.961 . S
C683 H699 0.960 . S
H684 C668 0.931 . S
H685 C673 0.929 . S
H686 C674 0.960 . S
H687 C674 0.962 . S
H688 C674 0.960 . S
H689 C675 0.961 . S
H690 C675 0.961 . S
H691 C675 0.961 . S
H692 C676 0.931 . S
H693 C681 0.930 . S
H694 C682 0.956 . S
H695 C682 0.961 . S
H696 C682 0.961 . S
H697 C683 0.958 1_554 S
H698 C683 0.961 . S
H699 C683 0.960 . S
C700 C701 1.391 . S
C700 C702 1.394 . S
C700 H716 0.931 . S
C701 C700 1.391 . S
C701 C705 1.376 . S
C702 C700 1.394 . S
C702 C703 1.369 . S
C702 C706 1.531 1_554 S
C703 C702 1.369 . S
C703 C704 1.410 . S
C703 C711 1.503 . S
C704 C703 1.410 . S
C704 C705 1.392 . S
C704 C707 1.511 . S
C705 C701 1.376 . S
C705 C704 1.392 . S
C705 H717 0.929 . S
C706 C702 1.531 1_556 S
C706 H718 0.960 . S
C706 H719 0.962 . S
C706 H720 0.960 . S
C707 C704 1.511 . S
C707 H721 0.961 . S
C707 H722 0.961 . S
C707 H723 0.961 . S
C708 C709 1.370 . S
C708 C710 1.363 . S
C708 H724 0.931 . S
C709 C708 1.370 . S
C709 C713 1.408 . S
C710 C708 1.363 . S
C710 C711 1.370 1_556 S
C710 C714 1.507 1_455 S
C711 C703 1.503 . S
C711 C710 1.370 1_554 S
C711 C712 1.403 1_554 S
C712 C711 1.403 1_556 S
C712 C713 1.404 . S
C712 C715 1.539 1_556 S
C713 C709 1.408 . S
C713 C712 1.404 . S
C713 H725 0.930 . S
C714 C710 1.507 1_655 S
C714 H726 0.954 1_655 S
C714 H727 0.959 1_556 S
C714 H728 0.982 . S
C715 C712 1.539 1_554 S
C715 H729 0.958 1_554 S
C715 H730 0.961 . S
C715 H731 0.960 . S
H716 C700 0.931 . S
H717 C705 0.929 . S
H718 C706 0.960 . S
H719 C706 0.962 . S
H720 C706 0.960 . S
H721 C707 0.961 . S
H722 C707 0.961 . S
H723 C707 0.961 . S
H724 C708 0.931 . S
H725 C713 0.930 . S
H726 C714 0.954 1_455 S
H727 C714 0.959 1_554 S
H728 C714 0.982 . S
H729 C715 0.958 1_556 S
H730 C715 0.961 . S
H731 C715 0.960 . S
C732 C733 1.391 . S
C732 C734 1.394 . S
C732 H748 0.931 . S
C733 C732 1.391 . S
C733 C737 1.376 . S
C734 C732 1.394 . S
C734 C735 1.369 . S
C734 C738 1.531 1_554 S
C735 C734 1.369 . S
C735 C736 1.410 . S
C735 C743 1.503 . S
C736 C735 1.410 . S
C736 C737 1.392 . S
C736 C739 1.511 . S
C737 C733 1.376 . S
C737 C736 1.392 . S
C737 H749 0.929 . S
C738 C734 1.531 1_556 S
C738 H750 0.960 . S
C738 H751 0.962 . S
C738 H752 0.960 . S
C739 C736 1.511 . S
C739 H753 0.961 . S
C739 H754 0.961 . S
C739 H755 0.961 . S
C740 C741 1.370 . S
C740 C742 1.363 . S
C740 H756 0.931 1_545 S
C741 C740 1.370 . S
C741 C745 1.408 . S
C742 C740 1.363 . S
C742 C743 1.370 1_556 S
C742 C746 1.524 1_546 S
C743 C735 1.503 . S
C743 C742 1.370 1_554 S
C743 C744 1.403 1_554 S
C744 C743 1.403 1_556 S
C744 C745 1.404 . S
C744 C747 1.539 . S
C745 C741 1.408 . S
C745 C744 1.404 . S
C745 H757 0.930 . S
C746 C742 1.524 1_564 S
C746 H758 0.956 . S
C746 H759 0.967 . S
C746 H760 0.961 . S
C747 C744 1.539 . S
C747 H761 0.958 . S
C747 H762 0.961 . S
C747 H763 0.960 1_556 S
H748 C732 0.931 . S
H749 C737 0.929 . S
H750 C738 0.960 . S
H751 C738 0.962 . S
H752 C738 0.960 . S
H753 C739 0.961 . S
H754 C739 0.961 . S
H755 C739 0.961 . S
H756 C740 0.931 1_565 S
H757 C745 0.930 . S
H758 C746 0.956 . S
H759 C746 0.967 . S
H760 C746 0.961 . S
H761 C747 0.958 . S
H762 C747 0.961 . S
H763 C747 0.960 1_554 S
C764 C765 1.391 . S
C764 C766 1.394 . S
C764 H780 0.931 . S
C765 C764 1.391 . S
C765 C769 1.376 . S
C766 C764 1.394 . S
C766 C767 1.369 . S
C766 C770 1.531 . S
C767 C766 1.369 . S
C767 C768 1.410 . S
C767 C775 1.503 . S
C768 C767 1.410 . S
C768 C769 1.392 . S
C768 C771 1.511 1_554 S
C769 C765 1.376 . S
C769 C768 1.392 . S
C769 H781 0.929 . S
C770 C766 1.531 . S
C770 H782 0.960 . S
C770 H783 0.962 . S
C770 H784 0.960 . S
C771 C768 1.511 1_556 S
C771 H785 0.961 . S
C771 H786 0.961 . S
C771 H787 0.961 . S
C772 C773 1.370 . S
C772 C774 1.363 . S
C772 H788 0.931 . S
C773 C772 1.370 . S
C773 C777 1.408 . S
C774 C772 1.363 . S
C774 C775 1.370 1_556 S
C774 C778 1.524 1_556 S
C775 C767 1.503 . S
C775 C774 1.370 1_554 S
C775 C776 1.403 1_554 S
C776 C775 1.403 1_556 S
C776 C777 1.404 . S
C776 C779 1.540 . S
C777 C773 1.408 . S
C777 C776 1.404 . S
C777 H789 0.930 . S
C778 C774 1.524 1_554 S
C778 H790 0.956 . S
C778 H791 0.962 . S
C778 H792 0.961 1_554 S
C779 C776 1.540 . S
C779 H793 0.955 1_556 S
C779 H794 0.964 . S
C779 H795 0.959 1_556 S
H780 C764 0.931 . S
H781 C769 0.929 . S
H782 C770 0.960 . S
H783 C770 0.962 . S
H784 C770 0.960 . S
H785 C771 0.961 . S
H786 C771 0.961 . S
H787 C771 0.961 . S
H788 C772 0.931 . S
H789 C777 0.930 . S
H790 C778 0.956 . S
H791 C778 0.962 . S
H792 C778 0.961 1_556 S
H793 C779 0.955 1_554 S
H794 C779 0.964 . S
H795 C779 0.959 1_554 S
C796 C797 1.391 . S
C796 C798 1.394 . S
C796 H812 0.931 . S
C797 C796 1.391 . S
C797 C801 1.376 . S
C798 C796 1.394 . S
C798 C799 1.369 . S
C798 C802 1.531 . S
C799 C798 1.369 . S
C799 C800 1.410 . S
C799 C807 1.503 1_554 S
C800 C799 1.410 . S
C800 C801 1.392 . S
C800 C803 1.511 . S
C801 C797 1.376 . S
C801 C800 1.392 . S
C801 H813 0.929 . S
C802 C798 1.531 . S
C802 H814 0.960 1_554 S
C802 H815 0.962 . S
C802 H816 0.960 . S
C803 C800 1.511 . S
C803 H817 0.961 . S
C803 H818 0.961 . S
C803 H819 0.961 1_554 S
C804 C805 1.370 . S
C804 C806 1.363 1_556 S
C804 H820 0.931 1_556 S
C805 C804 1.370 . S
C805 C809 1.408 . S
C806 C804 1.363 1_554 S
C806 C807 1.370 1_554 S
C806 C810 1.524 . S
C807 C799 1.503 1_556 S
C807 C806 1.370 1_556 S
C807 C808 1.403 . S
C808 C807 1.403 . S
C808 C809 1.404 . S
C808 C811 1.539 . S
C809 C805 1.408 . S
C809 C808 1.404 . S
C809 H821 0.930 . S
C810 C806 1.524 . S
C810 H822 0.956 . S
C810 H823 0.961 . S
C810 H824 0.961 . S
C811 C808 1.539 . S
C811 H825 0.958 . S
C811 H826 0.961 . S
C811 H827 0.960 . S
H812 C796 0.931 . S
H813 C801 0.929 . S
H814 C802 0.960 1_556 S
H815 C802 0.962 . S
H816 C802 0.960 . S
H817 C803 0.961 . S
H818 C803 0.961 . S
H819 C803 0.961 1_556 S
H820 C804 0.931 1_554 S
H821 C809 0.930 . S
H822 C810 0.956 . S
H823 C810 0.961 . S
H824 C810 0.961 . S
H825 C811 0.958 . S
H826 C811 0.961 . S
H827 C811 0.960 . S
C828 C829 1.391 . S
C828 C830 1.394 . S
C828 H844 0.931 . S
C829 C828 1.391 . S
C829 C833 1.376 1_655 S
C830 C828 1.394 . S
C830 C831 1.369 . S
C830 C834 1.531 . S
C831 C830 1.369 . S
C831 C832 1.410 1_655 S
C831 C839 1.503 . S
C832 C831 1.410 1_455 S
C832 C833 1.392 . S
C832 C835 1.511 . S
C833 C829 1.376 1_455 S
C833 C832 1.392 . S
C833 H845 0.929 . S
C834 C830 1.531 . S
C834 H846 0.960 . S
C834 H847 0.962 . S
C834 H848 0.960 . S
C835 C832 1.511 . S
C835 H849 0.961 . S
C835 H850 0.961 . S
C835 H851 0.961 . S
C836 C837 1.370 . S
C836 C838 1.363 . S
C836 H852 0.931 . S
C837 C836 1.370 . S
C837 C841 1.408 1_655 S
C838 C836 1.363 . S
C838 C839 1.370 . S
C838 C842 1.524 . S
C839 C831 1.503 . S
C839 C838 1.370 . S
C839 C840 1.403 1_655 S
C840 C839 1.403 1_455 S
C840 C841 1.404 . S
C840 C843 1.539 . S
C841 C837 1.408 1_455 S
C841 C840 1.404 . S
C841 H853 0.930 . S
C842 C838 1.524 . S
C842 H854 0.956 . S
C842 H855 0.961 . S
C842 H856 0.961 . S
C843 C840 1.539 . S
C843 H857 0.980 . S
C843 H858 0.961 . S
C843 H859 0.960 . S
H844 C828 0.931 . S
H845 C833 0.929 . S
H846 C834 0.960 . S
H847 C834 0.962 . S
H848 C834 0.960 . S
H849 C835 0.961 . S
H850 C835 0.961 . S
H851 C835 0.961 . S
H852 C836 0.931 . S
H853 C841 0.930 . S
H854 C842 0.956 . S
H855 C842 0.961 . S
H856 C842 0.961 . S
H857 C843 0.980 . S
H858 C843 0.961 . S
H859 C843 0.960 . S
C860 C861 1.391 . S
C860 C862 1.394 . S
C860 H876 0.931 . S
C861 C860 1.391 . S
C861 C865 1.376 . S
C862 C860 1.394 . S
C862 C863 1.369 . S
C862 C866 1.531 . S
C863 C862 1.369 . S
C863 C864 1.410 . S
C863 C871 1.503 . S
C864 C863 1.410 . S
C864 C865 1.392 . S
C864 C867 1.511 1_565 S
C865 C861 1.376 . S
C865 C864 1.392 . S
C865 H877 0.929 . S
C866 C862 1.531 . S
C866 H878 0.960 . S
C866 H879 0.962 . S
C866 H880 0.960 . S
C867 C864 1.511 1_545 S
C867 H881 0.961 1_545 S
C867 H882 0.961 1_545 S
C867 H883 0.961 . S
C868 C869 1.370 . S
C868 C870 1.363 . S
C868 H884 0.931 . S
C869 C868 1.370 . S
C869 C873 1.408 1_565 S
C870 C868 1.363 . S
C870 C871 1.370 . S
C870 C874 1.524 . S
C871 C863 1.503 . S
C871 C870 1.370 . S
C871 C872 1.403 1_565 S
C872 C871 1.403 1_545 S
C872 C873 1.404 . S
C872 C875 1.539 . S
C873 C869 1.408 1_545 S
C873 C872 1.404 . S
C873 H885 0.930 . S
C874 C870 1.524 . S
C874 H886 0.956 . S
C874 H887 0.961 . S
C874 H888 0.961 . S
C875 C872 1.539 . S
C875 H889 0.958 . S
C875 H890 0.961 . S
C875 H891 0.960 . S
H876 C860 0.931 . S
H877 C865 0.929 . S
H878 C866 0.960 . S
H879 C866 0.962 . S
H880 C866 0.960 . S
H881 C867 0.961 1_565 S
H882 C867 0.961 1_565 S
H883 C867 0.961 . S
H884 C868 0.931 . S
H885 C873 0.930 . S
H886 C874 0.956 . S
H887 C874 0.961 . S
H888 C874 0.961 . S
H889 C875 0.958 . S
H890 C875 0.961 . S
H891 C875 0.960 . S
C892 C893 1.391 . S
C892 C894 1.394 . S
C892 H908 0.931 . S
C893 C892 1.391 . S
C893 C897 1.376 . S
C894 C892 1.394 . S
C894 C895 1.369 . S
C894 C898 1.531 . S
C895 C894 1.369 . S
C895 C896 1.410 . S
C895 C903 1.503 . S
C896 C895 1.410 . S
C896 C897 1.392 . S
C896 C899 1.511 . S
C897 C893 1.376 . S
C897 C896 1.392 . S
C897 H909 0.929 . S
C898 C894 1.531 . S
C898 H910 0.960 . S
C898 H911 0.962 . S
C898 H912 0.960 . S
C899 C896 1.511 . S
C899 H913 0.961 . S
C899 H914 0.961 . S
C899 H915 0.961 . S
C900 C901 1.370 . S
C900 C902 1.363 . S
C900 H916 0.931 . S
C901 C900 1.370 . S
C901 C905 1.408 . S
C902 C900 1.363 . S
C902 C903 1.370 . S
C902 C906 1.524 . S
C903 C895 1.503 . S
C903 C902 1.370 . S
C903 C904 1.403 . S
C904 C903 1.403 . S
C904 C905 1.404 . S
C904 C907 1.539 . S
C905 C901 1.408 . S
C905 C904 1.404 . S
C905 H917 0.930 . S
C906 C902 1.524 . S
C906 H918 0.956 . S
C906 H919 0.961 . S
C906 H920 0.961 . S
C907 C904 1.539 . S
C907 H921 0.958 . S
C907 H922 0.961 . S
C907 H923 0.960 . S
H908 C892 0.931 . S
H909 C897 0.929 . S
H910 C898 0.960 . S
H911 C898 0.962 . S
H912 C898 0.960 . S
H913 C899 0.961 . S
H914 C899 0.961 . S
H915 C899 0.961 . S
H916 C900 0.931 . S
H917 C905 0.930 . S
H918 C906 0.956 . S
H919 C906 0.961 . S
H920 C906 0.961 . S
H921 C907 0.958 . S
H922 C907 0.961 . S
H923 C907 0.960 . S
C924 C925 1.391 . S
C924 C926 1.394 . S
C924 H940 0.931 . S
C925 C924 1.391 . S
C925 C929 1.376 . S
C926 C924 1.394 . S
C926 C927 1.369 . S
C926 C930 1.531 . S
C927 C926 1.369 . S
C927 C928 1.410 . S
C927 C935 1.503 . S
C928 C927 1.410 . S
C928 C929 1.392 . S
C928 C931 1.511 . S
C929 C925 1.376 . S
C929 C928 1.392 . S
C929 H941 0.929 . S
C930 C926 1.531 . S
C930 H942 0.960 . S
C930 H943 0.962 . S
C930 H944 0.960 . S
C931 C928 1.511 . S
C931 H945 0.961 . S
C931 H946 0.961 . S
C931 H947 0.961 . S
C932 C933 1.370 . S
C932 C934 1.363 . S
C932 H948 0.931 . S
C933 C932 1.370 . S
C933 C937 1.408 . S
C934 C932 1.363 . S
C934 C935 1.370 . S
C934 C938 1.524 . S
C935 C927 1.503 . S
C935 C934 1.370 . S
C935 C936 1.403 . S
C936 C935 1.403 . S
C936 C937 1.404 . S
C936 C939 1.539 . S
C937 C933 1.408 . S
C937 C936 1.404 . S
C937 H949 0.930 . S
C938 C934 1.524 . S
C938 H950 0.956 . S
C938 H951 0.961 . S
C938 H952 0.961 . S
C939 C936 1.539 . S
C939 H953 0.958 . S
C939 H954 0.961 . S
C939 H955 0.960 . S
H940 C924 0.931 . S
H941 C929 0.929 . S
H942 C930 0.960 . S
H943 C930 0.962 . S
H944 C930 0.960 . S
H945 C931 0.961 . S
H946 C931 0.961 . S
H947 C931 0.961 . S
H948 C932 0.931 . S
H949 C937 0.930 . S
H950 C938 0.956 . S
H951 C938 0.961 . S
H952 C938 0.961 . S
H953 C939 0.958 . S
H954 C939 0.961 . S
H955 C939 0.960 . S
C189 C82 1.456 . S
C197 C119 1.437 . S
C229 C143 1.406 . S
C221 C95 1.537 . S
C261 C164 1.400 . S
C253 C56 1.516 . S
C293 C182 1.411 . S
C285 C69 1.481 . S
C325 C122 1.393 . S
C317 C30 1.422 . S
C349 C43 1.350 . S
C357 C140 1.328 . S
C381 C4 1.402 . S
C389 C161 1.371 . S
C413 C17 1.435 . S
C421 C185 1.363 . S
C453 C120 0.621 . S
C445 C74 0.711 . S
C485 C138 0.628 . S
C477 C87 0.723 . S
C517 C159 0.658 . S
C509 C100 0.606 . S
C541 C61 0.728 . S
C549 C183 0.619 . S
C573 C22 0.793 . S
C581 C118 0.748 . S
C613 C142 0.739 . S
C605 C35 0.806 . S
C645 C163 0.735 . S
C637 C48 0.807 . S
C669 C9 0.700 . S
C677 C181 0.735 . S
C701 C73 1.590 . S
C709 C121 1.568 . S
C733 C86 1.601 . S
C741 C139 1.568 . S
C773 C160 1.537 . S
C765 C99 1.592 . S
C805 C184 1.552 . S
C797 C60 1.621 . S
C829 C21 1.476 . S
C837 C117 1.401 1_655 S
C869 C141 1.401 1_565 S
C861 C34 1.454 . S
C901 C162 1.406 . S
C893 C47 1.439 . S
C925 C8 1.445 . S
C933 C180 1.433 . S
