# Generated by pormake.
# Topology pyr, (3,6)-cn, num edge types: 1
# Building blocks:
#     Node 0, Type 0, BuildingBlock: MIDCAF_clean_linker_0, # of connection points: 3
#     Node 1, Type 0, BuildingBlock: MIDCAF_clean_linker_0, # of connection points: 3
#     Node 2, Type 0, BuildingBlock: MIDCAF_clean_linker_0, # of connection points: 3
#     Node 3, Type 0, BuildingBlock: MIDCAF_clean_linker_0, # of connection points: 3
#     Node 4, Type 0, BuildingBlock: MIDCAF_clean_linker_0, # of connection points: 3
#     Node 5, Type 0, BuildingBlock: MIDCAF_clean_linker_0, # of connection points: 3
#     Node 6, Type 0, BuildingBlock: MIDCAF_clean_linker_0, # of connection points: 3
#     Node 7, Type 0, BuildingBlock: MIDCAF_clean_linker_0, # of connection points: 3
#     Node 8, Type 1, BuildingBlock: FUNLAD_clean_sbu_0, # of connection points: 6
#     Node 9, Type 1, BuildingBlock: FUNLAD_clean_sbu_0, # of connection points: 6
#     Node 10, Type 1, BuildingBlock: FUNLAD_clean_sbu_0, # of connection points: 6
#     Node 11, Type 1, BuildingBlock: FUNLAD_clean_sbu_0, # of connection points: 6
#     Edge 12, Type (0, 1), BuildingBlock: AJUNOK_clean_linker_0, # of connection points: 2
#     Edge 13, Type (0, 1), BuildingBlock: AJUNOK_clean_linker_0, # of connection points: 2
#     Edge 14, Type (0, 1), BuildingBlock: AJUNOK_clean_linker_0, # of connection points: 2
#     Edge 15, Type (0, 1), BuildingBlock: AJUNOK_clean_linker_0, # of connection points: 2
#     Edge 16, Type (0, 1), BuildingBlock: AJUNOK_clean_linker_0, # of connection points: 2
#     Edge 17, Type (0, 1), BuildingBlock: AJUNOK_clean_linker_0, # of connection points: 2
#     Edge 18, Type (0, 1), BuildingBlock: AJUNOK_clean_linker_0, # of connection points: 2
#     Edge 19, Type (0, 1), BuildingBlock: AJUNOK_clean_linker_0, # of connection points: 2
#     Edge 20, Type (0, 1), BuildingBlock: AJUNOK_clean_linker_0, # of connection points: 2
#     Edge 21, Type (0, 1), BuildingBlock: AJUNOK_clean_linker_0, # of connection points: 2
#     Edge 22, Type (0, 1), BuildingBlock: AJUNOK_clean_linker_0, # of connection points: 2
#     Edge 23, Type (0, 1), BuildingBlock: AJUNOK_clean_linker_0, # of connection points: 2
#     Edge 24, Type (0, 1), BuildingBlock: AJUNOK_clean_linker_0, # of connection points: 2
#     Edge 25, Type (0, 1), BuildingBlock: AJUNOK_clean_linker_0, # of connection points: 2
#     Edge 26, Type (0, 1), BuildingBlock: AJUNOK_clean_linker_0, # of connection points: 2
#     Edge 27, Type (0, 1), BuildingBlock: AJUNOK_clean_linker_0, # of connection points: 2
#     Edge 28, Type (0, 1), BuildingBlock: AJUNOK_clean_linker_0, # of connection points: 2
#     Edge 29, Type (0, 1), BuildingBlock: AJUNOK_clean_linker_0, # of connection points: 2
#     Edge 30, Type (0, 1), BuildingBlock: AJUNOK_clean_linker_0, # of connection points: 2
#     Edge 31, Type (0, 1), BuildingBlock: AJUNOK_clean_linker_0, # of connection points: 2
#     Edge 32, Type (0, 1), BuildingBlock: AJUNOK_clean_linker_0, # of connection points: 2
#     Edge 33, Type (0, 1), BuildingBlock: AJUNOK_clean_linker_0, # of connection points: 2
#     Edge 34, Type (0, 1), BuildingBlock: AJUNOK_clean_linker_0, # of connection points: 2
#     Edge 35, Type (0, 1), BuildingBlock: AJUNOK_clean_linker_0, # of connection points: 2
# Relax obj value: 0.086
# Max RMSD: 0.073
# Mean RMSD: 0.034
data_MOF--net-pry--node1-FUNLAD_clean_sbu_0--node2-MIDCAF_clean_linker_0--edge1-AJUNOK_clean_linker_0
_symmetry_space_group_name_H-M    P1
_symmetry_Int_Tables_number       1
_symmetry_cell_setting            triclinic
loop_
_symmetry_equiv_pos_as_xyz
'x, y, z'
_cell_length_a     34.183757
_cell_length_b     36.550159
_cell_length_c     36.593987
_cell_angle_alpha  89.947374
_cell_angle_beta   90.358891
_cell_angle_gamma 83.440666
loop_
_atom_site_label
_atom_site_type_symbol
_atom_site_fract_x
_atom_site_fract_y
_atom_site_fract_z
_atom_type_partial_charge
C0 C 0.07702 0.14138 0.30369 0.0
C1 C 0.09392 0.10633 0.31565 0.0
C2 C 0.12527 0.08858 0.29526 0.0
C3 C 0.13923 0.10513 0.26402 0.0
H4 H 0.22009 0.08351 0.1765 0.0
H5 H 0.27946 0.05479 0.14645 0.0
H6 H 0.30266 0.16115 0.10581 0.0
H7 H 0.24239 0.18936 0.13404 0.0
H8 H 0.16743 0.24298 0.11815 0.0
H9 H 0.1401 0.29937 0.08834 0.0
H10 H 0.0393 0.3058 0.15933 0.0
H11 H 0.06723 0.24896 0.19022 0.0
H12 H 0.07717 0.18493 0.26401 0.0
H13 H 0.05284 0.15597 0.31865 0.0
H14 H 0.13974 0.06205 0.3039 0.0
H15 H 0.1636 0.0903 0.24952 0.0
N16 N 0.17263 0.14113 0.20347 0.0
N17 N 0.17158 0.18856 0.16044 0.0
N18 N 0.12144 0.19024 0.20426 0.0
C19 C 0.18922 0.15644 0.17437 0.0
C20 C 0.13774 0.20575 0.17467 0.0
C21 C 0.13892 0.15773 0.21892 0.0
C22 C 0.22635 0.13876 0.15773 0.0
C23 C 0.23798 0.10075 0.16128 0.0
C24 C 0.27229 0.08432 0.14424 0.0
C25 C 0.29638 0.10563 0.12393 0.0
C26 C 0.2848 0.1437 0.1208 0.0
C27 C 0.25021 0.15996 0.13721 0.0
C28 C 0.11977 0.24099 0.15703 0.0
C29 C 0.1394 0.25613 0.12777 0.0
C30 C 0.12358 0.28864 0.11028 0.0
C31 C 0.08752 0.3075 0.1213 0.0
C32 C 0.06752 0.29246 0.15041 0.0
C33 C 0.08346 0.25968 0.16809 0.0
C34 C 0.12243 0.14017 0.25187 0.0
C35 C 0.09091 0.15797 0.27218 0.0
C36 C 0.2392 0.94271 0.6542 0.0
C37 C 0.22948 0.93034 0.6192 0.0
C38 C 0.25568 0.90318 0.60233 0.0
C39 C 0.28983 0.88777 0.6204 0.0
H40 H 0.35893 0.79423 0.62059 0.0
H41 H 0.38673 0.73678 0.59358 0.0
H42 H 0.48308 0.73004 0.67094 0.0
H43 H 0.45448 0.78786 0.6991 0.0
H44 H 0.44437 0.85295 0.76852 0.0
H45 H 0.46819 0.88188 0.8235 0.0
H46 H 0.37677 0.97263 0.81083 0.0
H47 H 0.35329 0.94436 0.75597 0.0
H48 H 0.27987 0.93716 0.69941 0.0
H49 H 0.2197 0.96368 0.66796 0.0
H50 H 0.24988 0.89381 0.57497 0.0
H51 H 0.30893 0.86665 0.60643 0.0
N52 N 0.35348 0.84941 0.66188 0.0
N53 N 0.40004 0.84664 0.70952 0.0
N54 N 0.34916 0.89592 0.70598 0.0
C55 C 0.38582 0.83164 0.67856 0.0
C56 C 0.38178 0.87899 0.72344 0.0
C57 C 0.3349 0.88135 0.67511 0.0
C58 C 0.40425 0.79608 0.66239 0.0
C59 C 0.38607 0.78079 0.63217 0.0
C60 C 0.40217 0.74767 0.61634 0.0
C61 C 0.43711 0.72843 0.63 0.0
C62 C 0.4557 0.74367 0.66003 0.0
C63 C 0.43942 0.77701 0.6761 0.0
C64 C 0.39687 0.89617 0.75732 0.0
C65 C 0.42939 0.87915 0.77729 0.0
C66 C 0.44302 0.89572 0.80897 0.0
C67 C 0.42481 0.92995 0.82148 0.0
C68 C 0.39221 0.94678 0.80167 0.0
C69 C 0.37851 0.93024 0.77018 0.0
C70 C 0.2992 0.89938 0.65577 0.0
C71 C 0.27368 0.92746 0.67226 0.0
C72 C 0.60343 0.32629 1.0158 0.0
C73 C 0.56522 0.31952 1.00566 0.0
C74 C 0.53636 0.34932 0.99939 0.0
C75 C 0.54656 0.38519 0.99948 0.0
H76 H 0.51827 0.46456 0.9275 0.0
H77 H 0.49551 0.47142 0.86443 0.0
H78 H 0.59471 0.5295 0.8385 0.0
H79 H 0.61833 0.5223 0.90147 0.0
H80 H 0.68335 0.52823 0.97456 0.0
H81 H 0.75305 0.53718 0.98005 0.0
H82 H 0.77979 0.42548 1.01841 0.0
H83 H 0.71023 0.41638 1.01357 0.0
H84 H 0.64405 0.3663 0.02134 0.0
H85 H 0.6259 0.30363 0.02163 0.0
H86 H 0.5066 0.34473 0.9919 0.0
H87 H 0.52426 0.40748 0.99206 0.0
N88 N 0.57702 0.44802 0.96976 0.0
N89 N 0.62767 0.4851 0.96179 0.0
N90 N 0.63548 0.43569 1.00328 0.0
C91 C 0.59106 0.47677 0.95291 0.0
C92 C 0.64983 0.465 0.98736 0.0
C93 C 0.59875 0.42738 0.99494 0.0
C94 C 0.57086 0.49189 0.91934 0.0
C95 C 0.53482 0.47971 0.90874 0.0
C96 C 0.5217 0.48351 0.87265 0.0
C97 C 0.54397 0.50014 0.84678 0.0
C98 C 0.5773 0.5163 0.85815 0.0
C99 C 0.59072 0.51221 0.89423 0.0
C100 C 0.69124 0.47161 0.99362 0.0
C101 C 0.70401 0.50567 0.98446 0.0
C102 C 0.74378 0.51083 0.98757 0.0
C103 C 0.77151 0.48185 0.99923 0.0
C104 C 0.75883 0.44804 1.00899 0.0
C105 C 0.71901 0.44303 1.00648 0.0
C106 C 0.58579 0.39179 1.00589 0.0
C107 C 0.61365 0.36219 1.01603 0.0
C108 C 0.76709 0.58199 0.53184 0.0
C109 C 0.74986 0.55512 0.51183 0.0
C110 C 0.77227 0.53431 0.48564 0.0
C111 C 0.8107 0.54114 0.47844 0.0
H112 H 0.86229 0.59799 0.38314 0.0
H113 H 0.876 0.59809 0.31814 0.0
H114 H 0.99551 0.55006 0.33974 0.0
H115 H 0.98235 0.55348 0.40564 0.0
H116 H 0.99615 0.62797 0.48824 0.0
H117 H 0.01986 0.68815 0.49479 0.0
H118 H 0.90537 0.73352 0.53327 0.0
H119 H 0.88198 0.67317 0.52777 0.0
H120 H 0.81779 0.61083 0.53929 0.0
H121 H 0.7502 0.59851 0.55208 0.0
H122 H 0.75975 0.51312 0.47023 0.0
H123 H 0.82675 0.52498 0.45742 0.0
N124 N 0.87947 0.56836 0.45153 0.0
N125 N 0.93278 0.60254 0.45765 0.0
N126 N 0.88567 0.60371 0.50426 0.0
C127 C 0.91283 0.57947 0.43792 0.0
C128 C 0.91957 0.61474 0.49087 0.0
C129 C 0.86607 0.57957 0.48495 0.0
C130 C 0.92109 0.57487 0.39896 0.0
C131 C 0.89131 0.58698 0.37385 0.0
C132 C 0.89914 0.5868 0.33663 0.0
C133 C 0.93651 0.573 0.32362 0.0
C134 C 0.9664 0.5608 0.34893 0.0
C135 C 0.95888 0.56229 0.38646 0.0
C136 C 0.93706 0.64611 0.50692 0.0
C137 C 0.97651 0.65052 0.49938 0.0
C138 C 0.98995 0.685 0.50271 0.0
C139 C 0.96399 0.71567 0.51319 0.0
C140 C 0.92591 0.71035 0.5248 0.0
C141 C 0.91256 0.67572 0.52185 0.0
C142 C 0.82758 0.5692 0.49707 0.0
C143 C 0.80573 0.58898 0.52453 0.0
C144 C 0.75533 0.95118 0.89746 0.0
C145 C 0.73245 0.9297 0.91892 0.0
C146 C 0.74512 0.89183 0.9225 0.0
C147 C 0.77936 0.87594 0.90517 0.0
H148 H 0.90753 0.821 0.93519 0.0
H149 H 0.93435 0.76434 0.96566 0.0
H150 H 0.94488 0.709 0.86132 0.0
H151 H 0.92061 0.76704 0.83062 0.0
H152 H 0.96051 0.87528 0.79008 0.0
H153 H 0.98294 0.90628 0.73563 0.0
H154 H 0.86346 0.95151 0.71221 0.0
H155 H 0.84106 0.92162 0.7669 0.0
H156 H 0.80594 0.95246 0.86318 0.0
H157 H 0.74752 0.98061 0.89495 0.0
H158 H 0.72829 0.87424 0.93844 0.0
H159 H 0.78801 0.84669 0.90859 0.0
N160 N 0.85822 0.8491 0.87932 0.0
N161 N 0.90457 0.84732 0.83189 0.0
N162 N 0.85169 0.89472 0.83396 0.0
C163 C 0.89128 0.83248 0.86317 0.0
C164 C 0.88484 0.8787 0.81714 0.0
C165 C 0.83814 0.88005 0.86499 0.0
C166 C 0.91184 0.79856 0.88047 0.0
C167 C 0.91604 0.79683 0.9187 0.0
C168 C 0.93084 0.764 0.93626 0.0
C169 C 0.94055 0.73129 0.91632 0.0
C170 C 0.93765 0.73339 0.87781 0.0
C171 C 0.92378 0.76669 0.86009 0.0
C172 C 0.89892 0.89589 0.7831 0.0
C173 C 0.93899 0.89177 0.77332 0.0
C174 C 0.9519 0.90972 0.74226 0.0
C175 C 0.92498 0.93154 0.71973 0.0
C176 C 0.88492 0.93501 0.72904 0.0
C177 C 0.87214 0.91785 0.76047 0.0
C178 C 0.8017 0.89728 0.8832 0.0
C179 C 0.78915 0.93509 0.87944 0.0
C180 C 0.63601 0.10989 0.23178 0.0
C181 C 0.59598 0.11145 0.22221 0.0
C182 C 0.56817 0.13153 0.24496 0.0
C183 C 0.58016 0.14933 0.27662 0.0
H184 H 0.59516 0.27254 0.34153 0.0
H185 H 0.57156 0.32889 0.37493 0.0
H186 H 0.58126 0.26774 0.47628 0.0
H187 H 0.60732 0.21261 0.44318 0.0
H188 H 0.70507 0.17114 0.44082 0.0
H189 H 0.76543 0.14427 0.47055 0.0
H190 H 0.79756 0.08141 0.37336 0.0
H191 H 0.73637 0.1076 0.34363 0.0
H192 H 0.679 0.12439 0.27045 0.0
H193 H 0.65817 0.09475 0.21486 0.0
H194 H 0.53712 0.13356 0.23816 0.0
H195 H 0.55795 0.16419 0.29367 0.0
N196 N 0.61226 0.19247 0.33823 0.0
N197 N 0.65748 0.18835 0.3872 0.0
N198 N 0.66681 0.14669 0.33866 0.0
C199 C 0.62444 0.20538 0.37102 0.0
C200 C 0.67903 0.15923 0.37132 0.0
C201 C 0.63335 0.16274 0.32197 0.0
C202 C 0.60328 0.2381 0.38968 0.0
C203 C 0.5918 0.27119 0.37089 0.0
C204 C 0.57836 0.30355 0.39018 0.0
C205 C 0.5755 0.30353 0.42872 0.0
C206 C 0.5847 0.26966 0.44699 0.0
C207 C 0.59901 0.23772 0.42788 0.0
C208 C 0.71574 0.14184 0.38957 0.0
C209 C 0.72489 0.15164 0.42559 0.0
C210 C 0.75976 0.1364 0.44266 0.0
C211 C 0.7868 0.11121 0.42415 0.0
C212 C 0.7774 0.10078 0.38841 0.0
C213 C 0.74231 0.11588 0.37133 0.0
C214 C 0.62021 0.14683 0.28676 0.0
C215 C 0.6479 0.12692 0.26374 0.0
C216 C 0.27655 0.53543 0.07383 0.0
C217 C 0.25543 0.55493 0.04562 0.0
C218 C 0.27457 0.57881 0.02364 0.0
C219 C 0.31399 0.58364 0.03025 0.0
H220 H 0.38626 0.66738 0.02749 0.0
H221 H 0.40567 0.72951 0.02361 0.0
H222 H 0.52164 0.68973 0.06389 0.0
H223 H 0.50264 0.6275 0.06759 0.0
H224 H 0.49361 0.58697 0.14498 0.0
H225 H 0.50799 0.58139 0.20994 0.0
H226 H 0.4166 0.51008 0.22217 0.0
H227 H 0.40095 0.51654 0.15723 0.0
H228 H 0.33107 0.52494 0.10273 0.0
H229 H 0.26248 0.51665 0.09096 0.0
H230 H 0.25875 0.59445 1.00193 0.0
H231 H 0.32762 0.60285 1.0133 0.0
N232 N 0.39232 0.59935 0.05092 0.0
N233 N 0.44599 0.59149 0.09134 0.0
N234 N 0.39418 0.55559 0.09804 0.0
C235 C 0.42788 0.60874 0.06201 0.0
C236 C 0.4295 0.56497 0.10959 0.0
C237 C 0.37558 0.57227 0.06848 0.0
C238 C 0.44266 0.64269 0.0486 0.0
C239 C 0.41631 0.67154 0.03429 0.0
C240 C 0.42725 0.70715 0.0324 0.0
C241 C 0.46471 0.71429 0.04447 0.0
C242 C 0.49246 0.68485 0.0548 0.0
C243 C 0.4815 0.64929 0.05691 0.0
C244 C 0.44526 0.55309 0.146 0.0
C245 C 0.47694 0.56949 0.16123 0.0
C246 C 0.48532 0.5663 0.19851 0.0
C247 C 0.46246 0.5464 0.22118 0.0
C248 C 0.4337 0.52671 0.20538 0.0
C249 C 0.42503 0.53013 0.16812 0.0
C250 C 0.33503 0.56466 0.059 0.0
C251 C 0.31594 0.54009 0.08036 0.0
C252 C 0.09793 0.33254 0.52378 0.0
C253 C 0.06064 0.32408 0.53458 0.0
C254 C 0.03139 0.35274 0.54327 0.0
C255 C 0.04057 0.38891 0.54507 0.0
H256 H 0.01835 0.45587 0.62747 0.0
H257 H 0.99803 0.46348 0.69086 0.0
H258 H 0.08755 0.53565 0.70936 0.0
H259 H 0.10854 0.52801 0.646 0.0
H260 H 0.18426 0.51646 0.60006 0.0
H261 H 0.25394 0.52369 0.59493 0.0
H262 H 0.26454 0.44707 0.50499 0.0
H263 H 0.19463 0.43965 0.50974 0.0
H264 H 0.13703 0.374 0.51974 0.0
H265 H 0.12065 0.31084 0.5161 0.0
H266 H 1.00229 0.34689 0.5513 0.0
H267 H 0.01815 0.41012 0.55444 0.0
N268 N 0.07077 0.4501 0.57856 0.0
N269 N 0.12103 0.48724 0.58859 0.0
N270 N 0.12795 0.44159 0.54329 0.0
C271 C 0.08499 0.4777 0.59726 0.0
C272 C 0.14252 0.46968 0.56134 0.0
C273 C 0.09179 0.43194 0.55154 0.0
C274 C 0.06577 0.49067 0.63178 0.0
C275 C 0.03318 0.47418 0.64462 0.0
C276 C 0.02148 0.47839 0.68094 0.0
C277 C 0.04158 0.49972 0.70483 0.0
C278 C 0.07156 0.51912 0.69127 0.0
C279 C 0.08359 0.51465 0.655 0.0
C280 C 0.18375 0.47719 0.55549 0.0
C281 C 0.20119 0.5013 0.57893 0.0
C282 C 0.24119 0.50526 0.57628 0.0
C283 C 0.26461 0.48538 0.55006 0.0
C284 C 0.24705 0.46251 0.52559 0.0
C285 C 0.20703 0.45832 0.52835 0.0
C286 C 0.07916 0.39695 0.53824 0.0
C287 C 0.10713 0.36876 0.52549 0.0
C288 C 0.04104 0.04083 0.45206 0.0
N289 N 0.02203 0.0984 0.5499 0.0
C290 C 0.05819 0.10892 0.54305 0.0
C291 C 0.06459 0.14566 0.54601 0.0
C292 C 0.03344 0.17197 0.55587 0.0
C293 C 0.99679 0.16038 0.56434 0.0
C294 C 0.99174 0.12306 0.56136 0.0
Zn295 Zn 0.01325 0.04715 0.53243 0.0
C296 C 0.93547 0.04888 0.49237 0.0
N297 N 0.99715 0.94256 0.48889 0.0
C298 C 0.02804 0.91811 0.47831 0.0
C299 C 0.96154 0.93136 0.49679 0.0
C300 C 0.95679 0.89408 0.49708 0.0
C301 C 0.98894 0.86809 0.48912 0.0
C302 C 0.02453 0.88036 0.47823 0.0
Zn303 Zn 1.00562 0.99407 0.50602 0.0
O304 O 0.03708 0.06129 0.48023 0.0
C305 C 0.08322 0.9923 0.54651 0.0
O306 O 0.03115 1.00828 0.45439 0.0
H307 H 0.93756 0.95108 0.50578 0.0
H308 H 0.08156 0.08925 0.53286 0.0
H309 H 0.05621 0.92757 0.47258 0.0
O310 O 0.07027 0.02573 0.55233 0.0
O311 O 0.06244 0.97283 0.5273 0.0
H312 H 0.96311 0.11418 0.56622 0.0
O313 O 0.98011 0.98061 0.5576 0.0
O314 O 0.98932 0.03242 0.58451 0.0
O315 O 0.94902 1.01584 0.48521 0.0
O316 O 0.95586 0.06796 0.51245 0.0
C317 C 0.97765 1.00055 0.58615 0.0
H318 H 0.09299 0.15368 0.53844 0.0
H319 H 0.97209 0.18008 0.57193 0.0
H320 H 0.9288 0.88553 0.50526 0.0
H321 H 0.05001 0.86097 0.47209 0.0
C322 C 0.58786 0.9909 0.99333 0.0
N323 N 0.52303 0.09554 0.99014 0.0
C324 C 0.5596 0.10605 0.99511 0.0
C325 C 0.56585 0.14271 0.99118 0.0
C326 C 0.53413 0.16898 0.98233 0.0
C327 C 0.49699 0.15739 0.97568 0.0
C328 C 0.49208 0.12011 0.97955 0.0
Zn329 Zn 0.51562 0.04437 1.00873 0.0
C330 C 0.48108 0.99625 0.95628 0.0
N331 N 0.50628 0.93926 0.05419 0.0
C332 C 0.53696 0.91491 0.06584 0.0
C333 C 0.47001 0.92848 0.04811 0.0
C334 C 0.46377 0.89184 0.05222 0.0
C335 C 0.49517 0.86581 0.06254 0.0
C336 C 0.53204 0.87765 0.07005 0.0
Zn337 Zn 0.51366 0.9906 0.03589 0.0
O338 O 0.57139 0.02311 0.98635 0.0
C339 C 0.54766 0.03904 0.08838 0.0
O340 O 0.571 0.97064 1.0151 0.0
H341 H 0.4463 0.94785 0.03773 0.0
H342 H 0.58357 0.08646 1.00462 0.0
H343 H 0.56567 0.92399 0.07004 0.0
O344 O 0.5427 0.05902 0.05983 0.0
O345 O 0.53854 1.00621 0.08707 0.0
H346 H 0.46317 0.11122 0.97614 0.0
O347 O 0.4571 1.01128 0.05705 0.0
O348 O 0.45921 0.06477 0.03067 0.0
O349 O 0.48824 0.9756 0.98414 0.0
O350 O 0.48863 0.02953 0.95837 0.0
C351 C 0.44147 0.04399 0.05114 0.0
H352 H 0.5947 0.15075 0.99738 0.0
H353 H 0.47185 0.17709 0.96893 0.0
H354 H 0.43519 0.88363 0.04526 0.0
H355 H 0.55694 0.85817 0.07793 0.0
C356 C 0.52915 0.44301 0.50642 0.0
N357 N 0.52653 0.48865 0.61407 0.0
C358 C 0.50649 0.4643 0.63238 0.0
C359 C 0.50782 0.46291 0.67062 0.0
C360 C 0.53029 0.48656 0.68983 0.0
C361 C 0.55228 0.50975 0.67006 0.0
C362 C 0.54962 0.51069 0.63223 0.0
Zn363 Zn 0.51526 0.50242 0.56062 0.0
C364 C 0.58627 0.52839 0.52571 0.0
N365 N 0.49056 0.54171 0.45298 0.0
C366 C 0.46656 0.52067 0.43463 0.0
C367 C 0.50856 0.56807 0.43553 0.0
C368 C 0.50342 0.57328 0.39784 0.0
C369 C 0.47907 0.55155 0.37853 0.0
C370 C 0.46014 0.52537 0.39736 0.0
Zn371 Zn 0.50273 0.52684 0.50582 0.0
O372 O 0.53176 0.44713 0.54095 0.0
C373 C 0.43148 0.50172 0.54112 0.0
O374 O 0.51752 0.47098 0.48682 0.0
H375 H 0.52788 0.58416 0.45056 0.0
H376 H 0.4877 0.44751 0.61756 0.0
H377 H 0.45349 0.49905 0.44855 0.0
O378 O 0.45598 0.4916 0.56637 0.0
O379 O 0.44339 0.51731 0.51297 0.0
H380 H 0.5641 0.53097 0.6177 0.0
O381 O 0.488 0.58253 0.5255 0.0
O382 O 0.49887 0.55758 0.57941 0.0
O383 O 0.5623 0.53672 0.49954 0.0
O384 O 0.57415 0.51345 0.55412 0.0
C385 C 0.48896 0.5861 0.56014 0.0
H386 H 0.48999 0.44493 0.68492 0.0
H387 H 0.57026 0.52815 0.68379 0.0
H388 H 0.51859 0.59361 0.38386 0.0
H389 H 0.44178 0.50767 0.38309 0.0
C390 C 0.99111 0.59002 0.99001 0.0
N391 N 0.99295 0.54681 0.09686 0.0
C392 C 1.00076 0.57913 0.11216 0.0
C393 C 0.99026 0.58705 0.14848 0.0
C394 C 0.97196 0.56125 0.16888 0.0
C395 C 0.96523 0.52795 0.15243 0.0
C396 C 0.97512 0.52166 0.11618 0.0
Zn397 Zn 1.00699 0.53155 0.04485 0.0
C398 C 0.93676 0.50384 1.00902 0.0
N399 N 0.03236 0.49192 0.93795 0.0
C400 C 0.05526 0.51392 0.91975 0.0
C401 C 0.0127 0.46702 0.91984 0.0
C402 C 0.01349 0.46556 0.88164 0.0
C403 C 0.03475 0.48992 0.86233 0.0
C404 C 0.05732 0.51296 0.88189 0.0
Zn405 Zn 0.02003 0.50646 0.99074 0.0
O406 O 0.9889 0.58586 0.02444 0.0
C407 C 0.09018 0.53446 0.02696 0.0
O408 O 1.00358 0.56226 0.97064 0.0
H409 H 0.99443 0.44997 0.93477 0.0
H410 H 0.01502 0.59868 0.09624 0.0
H411 H 0.06985 0.53425 0.93425 0.0
O412 O 0.06553 0.54441 0.05192 0.0
O413 O 0.07875 0.51785 0.99909 0.0
H414 H 0.96866 0.49631 0.10359 0.0
O415 O 0.03633 0.45084 1.01141 0.0
O416 O 0.02539 0.47678 0.06467 0.0
O417 O 0.961 0.49504 0.98352 0.0
O418 O 0.94857 0.51907 0.03751 0.0
C419 C 0.0357 0.44793 0.04616 0.0
H420 H 0.99616 0.61299 0.16039 0.0
H421 H 0.95267 0.50663 0.16748 0.0
H422 H 0.99602 0.44712 0.86736 0.0
H423 H 0.07502 0.53135 0.86797 0.0
C424 C 0.07428 0.10938 0.38232 0.0
C425 C 0.07992 0.08883 0.34984 0.0
C426 C 0.0624 0.09345 0.41496 0.0
C427 C 0.05519 0.05616 0.41686 0.0
H428 H 0.07965 0.13801 0.38271 0.0
H429 H 0.05867 0.1108 0.43896 0.0
S430 S 0.06393 0.99051 0.33909 0.0
N431 N 0.07617 0.0292 0.32148 0.0
N432 N 0.05397 0.9994 0.3825 0.0
C433 C 0.06043 0.03534 0.38446 0.0
C434 C 0.07274 0.05156 0.3512 0.0
C435 C 0.44704 0.92696 0.88764 0.0
C436 C 0.4392 0.94769 0.85541 0.0
C437 C 0.45987 0.94302 0.91994 0.0
C438 C 0.46583 0.98062 0.92164 0.0
H439 H 0.44277 0.89805 0.88809 0.0
H440 H 0.46536 0.92557 0.94379 0.0
S441 S 0.4512 0.04684 0.8443 0.0
N442 N 0.43951 1.00779 0.82701 0.0
N443 N 0.46343 0.0379 0.88738 0.0
C444 C 0.4583 1.00164 0.88949 0.0
C445 C 0.44506 0.98527 0.8566 0.0
C446 C 0.52928 0.52745 0.78505 0.0
C447 C 0.53585 0.49621 0.80745 0.0
C448 C 0.5259 0.52391 0.74713 0.0
C449 C 0.52973 0.48901 0.73025 0.0
H450 H 0.52738 0.55475 0.7969 0.0
H451 H 0.52102 0.54877 0.7308 0.0
S452 S 0.54779 0.39875 0.77731 0.0
N453 N 0.54574 0.42936 0.81061 0.0
N454 N 0.54042 0.42269 0.7391 0.0
C455 C 0.53551 0.45755 0.75254 0.0
C456 C 0.53845 0.46117 0.79121 0.0
C457 C 0.97954 0.58223 0.26991 0.0
C458 C 0.94421 0.57155 0.28377 0.0
C459 C 0.98774 0.5803 0.23246 0.0
C460 C 0.96075 0.56788 0.20753 0.0
H461 H 1.00116 0.59197 0.28816 0.0
H462 H 0.01591 0.58746 0.22314 0.0
S463 S 0.86299 0.53879 0.22934 0.0
N464 N 0.88192 0.5483 0.26932 0.0
N465 N 0.89601 0.54752 0.19882 0.0
C466 C 0.92462 0.55862 0.22081 0.0
C467 C 0.91669 0.55972 0.25893 0.0
C468 C 0.34268 0.1 0.07016 0.0
C469 C 0.33317 0.08856 0.10556 0.0
C470 C 0.37756 0.08544 0.05269 0.0
C471 C 0.40412 0.05827 0.06954 0.0
H472 H 0.32293 0.12039 0.05565 0.0
H473 H 0.38361 0.09536 0.02563 0.0
S474 S 0.39509 0.02039 0.16286 0.0
N475 N 0.35501 0.04976 0.15756 0.0
N476 N 0.41948 0.02144 0.12416 0.0
C477 C 0.39509 0.04642 0.1048 0.0
C478 C 0.35994 0.06171 0.12289 0.0
C479 C 0.18073 0.98379 0.59919 0.0
C480 C 0.19215 0.94555 0.60029 0.0
C481 C 0.14593 0.99863 0.5813 0.0
C482 C 0.12099 0.97589 0.56367 0.0
H483 H 0.19903 1.0025 0.61199 0.0
H484 H 0.13855 0.02825 0.58138 0.0
S485 S 0.13626 0.87363 0.56044 0.0
N486 N 0.17463 0.8851 0.58356 0.0
N487 N 0.10988 0.91282 0.54954 0.0
C488 C 0.13202 0.93754 0.56469 0.0
C489 C 0.16735 0.92245 0.58306 0.0
C490 C 0.82642 0.51407 0.02391 0.0
C491 C 0.81373 0.48689 1.00108 0.0
C492 C 0.86635 0.51908 0.02644 0.0
C493 C 0.89491 0.49754 1.00566 0.0
H494 H 0.80536 0.53129 0.04024 0.0
H495 H 0.87482 0.54029 0.04455 0.0
S496 S 0.87623 0.42317 0.94111 0.0
N497 N 0.83229 0.43833 0.95715 0.0
N498 N 0.90744 0.44814 0.96126 0.0
C499 C 0.88243 0.47051 0.98237 0.0
C500 C 0.8418 0.46505 0.98028 0.0
C501 C 0.68283 0.55111 0.48597 0.0
C502 C 0.70801 0.54961 0.51661 0.0
C503 C 0.64342 0.54465 0.48925 0.0
C504 C 0.62783 0.53599 0.52325 0.0
H505 H 0.69372 0.55736 0.4592 0.0
H506 H 0.62525 0.54597 0.46482 0.0
S507 S 0.68189 0.5291 0.61194 0.0
N508 N 0.71487 0.53935 0.58197 0.0
N509 N 0.64083 0.52695 0.58844 0.0
C510 C 0.65277 0.53471 0.55422 0.0
C511 C 0.69282 0.54166 0.55084 0.0
C512 C 0.07286 0.34617 0.06411 0.0
C513 C 0.07183 0.34297 0.10258 0.0
C514 C 0.06072 0.37975 0.04605 0.0
C515 C 0.04717 0.4119 0.06558 0.0
H516 H 0.08327 0.32243 0.04771 0.0
H517 H 0.06241 0.38055 1.01652 0.0
S518 S 0.03907 0.41865 0.16689 0.0
N519 N 0.05638 0.37529 0.15952 0.0
N520 N 0.03337 0.43788 0.12612 0.0
C521 C 0.04565 0.40893 0.10412 0.0
C522 C 0.05792 0.37473 0.12241 0.0
C523 C 0.52381 0.268 1.01432 0.0
C524 C 0.55642 0.28161 0.99812 0.0
C525 C 0.51555 0.23191 1.00761 0.0
C526 C 0.53949 0.20846 0.98434 0.0
H527 H 0.50522 0.28504 0.03297 0.0
H528 H 0.4912 0.22184 0.02183 0.0
S529 S 0.62494 0.23276 0.9314 0.0
N530 N 0.61036 0.27022 0.9551 0.0
N531 N 0.59478 0.20239 0.94255 0.0
C532 C 0.57104 0.22235 0.96672 0.0
C533 C 0.57953 0.25894 0.97361 0.0
C534 C 0.96637 0.78016 0.53522 0.0
C535 C 0.97458 0.75352 0.50784 0.0
C536 C 0.97192 0.81701 0.52908 0.0
C537 C 0.98584 0.82856 0.49534 0.0
H538 H 0.955 0.77255 0.56139 0.0
H539 H 0.96489 0.83675 0.55081 0.0
S540 S 0.01096 0.76996 0.41446 0.0
N541 N 0.99689 0.7414 0.44546 0.0
N542 N 0.00777 0.81074 0.43431 0.0
C543 C 0.99499 0.80218 0.46801 0.0
C544 C 0.98921 0.76464 0.47416 0.0
C545 C 0.45401 0.68854 0.57449 0.0
C546 C 0.45311 0.69244 0.61288 0.0
C547 C 0.46614 0.65447 0.55767 0.0
C548 C 0.47787 0.62257 0.57844 0.0
H549 H 0.44505 0.71209 0.55716 0.0
H550 H 0.46585 0.65312 0.52811 0.0
S551 S 0.48086 0.61765 0.68009 0.0
N552 N 0.46493 0.66109 0.67113 0.0
N553 N 0.48817 0.59753 0.63998 0.0
C554 C 0.47769 0.62623 0.61693 0.0
C555 C 0.4653 0.66093 0.63399 0.0
C556 C 0.92407 0.94158 0.65148 0.0
C557 C 0.93828 0.95025 0.68624 0.0
C558 C 0.93655 0.95833 0.61952 0.0
C559 C 0.96296 0.98531 0.62091 0.0
H560 H 0.90366 0.92111 0.6489 0.0
H561 H 0.92535 0.95001 0.59342 0.0
S562 S 0.00799 0.01864 0.70539 0.0
N563 N 0.98001 0.9878 0.72019 0.0
N564 N 1.00251 0.02004 0.66049 0.0
C565 C 0.97673 0.99479 0.65564 0.0
C566 C 0.96469 0.97707 0.68812 0.0
C567 C 0.59859 0.10031 0.15406 0.0
C568 C 0.58363 0.09213 0.18855 0.0
C569 C 0.58723 0.08274 0.12201 0.0
C570 C 0.56135 0.05534 0.12312 0.0
H571 H 0.61873 0.12102 0.15173 0.0
H572 H 0.5989 0.09067 0.09609 0.0
S573 S 0.51423 0.02331 0.20661 0.0
N574 N 0.54144 0.05473 0.22176 0.0
N575 N 0.52107 0.02103 0.16198 0.0
C576 C 0.54672 0.04645 0.15754 0.0
C577 C 0.55755 0.065 0.19005 0.0
C578 C 0.50385 0.54382 0.2781 0.0
C579 C 0.46643 0.54884 0.26137 0.0
C580 C 0.50797 0.54637 0.31612 0.0
C581 C 0.4748 0.55401 0.3385 0.0
H582 H 0.53001 0.53716 0.26176 0.0
H583 H 0.5371 0.54114 0.32818 0.0
S584 S 0.371 0.57364 0.30806 0.0
N585 N 0.39603 0.56513 0.26997 0.0
N586 N 0.4039 0.56911 0.34146 0.0
C587 C 0.43746 0.56026 0.3221 0.0
C588 C 0.43323 0.55785 0.28351 0.0
C589 C 0.03985 0.46341 0.76227 0.0
C590 C 0.03505 0.49785 0.74456 0.0
C591 C 0.03856 0.46088 0.80042 0.0
C592 C 0.03239 0.49273 0.82202 0.0
H593 H 0.04621 0.43833 0.74659 0.0
H594 H 0.04386 0.43396 0.8131 0.0
S595 S 0.01266 0.589 0.78837 0.0
N596 N 0.02048 0.56405 0.75097 0.0
N597 N 0.01709 0.55948 0.82275 0.0
C598 C 0.0255 0.52721 0.80446 0.0
C599 C 0.02713 0.52973 0.76568 0.0
C600 C 0.68689 0.93528 0.97341 0.0
C601 C 0.6957 0.94643 0.93771 0.0
C602 C 0.65216 0.94974 0.99128 0.0
C603 C 0.62503 0.97654 0.97453 0.0
H604 H 0.70709 0.91524 0.98788 0.0
H605 H 0.64671 0.94008 1.01857 0.0
S606 S 0.63209 1.01344 0.88054 0.0
N607 N 0.67245 0.98442 0.88557 0.0
N608 N 0.60843 1.01262 0.91966 0.0
C609 C 0.63335 0.98803 0.93895 0.0
C610 C 0.6683 0.97281 0.92048 0.0
C611 C 0.83735 0.05791 0.44068 0.0
C612 C 0.82467 0.09592 0.44206 0.0
C613 C 0.8728 0.04295 0.45737 0.0
C614 C 0.89719 0.06534 0.4762 0.0
H615 H 0.81955 0.03944 0.42683 0.0
H616 H 0.88111 1.01352 0.45542 0.0
S617 S 0.8785 0.16704 0.48605 0.0
N618 N 0.84027 0.15587 0.4625 0.0
N619 N 0.90633 0.12792 0.49422 0.0
C620 C 0.88488 0.10347 0.47767 0.0
C621 C 0.84885 0.11868 0.46056 0.0
C622 C 0.18692 0.5553 0.06928 0.0
C623 C 0.21324 0.55077 0.03981 0.0
C624 C 0.14702 0.55074 0.06472 0.0
C625 C 0.13205 0.54103 0.0306 0.0
H626 H 0.19726 0.56251 0.09608 0.0
H627 H 0.12797 0.55424 0.08831 0.0
S628 S 0.18919 0.52616 0.94471 0.0
N629 N 0.22182 0.53632 0.97542 0.0
N630 N 0.14696 0.52764 0.9666 0.0
C631 C 0.15816 0.53672 1.00081 0.0
C632 C 0.19869 0.54166 1.00547 0.0
C633 C 0.32438 0.49762 0.51529 0.0
C634 C 0.30737 0.48838 0.54837 0.0
C635 C 0.36456 0.50162 0.51326 0.0
C636 C 0.38937 0.49611 0.54417 0.0
H637 H 0.30634 0.50243 0.49093 0.0
H638 H 0.37619 0.50916 0.48719 0.0
S639 S 0.35921 0.46951 0.6369 0.0
N640 N 0.31824 0.47243 0.61239 0.0
N641 N 0.39388 0.47982 0.60873 0.0
C642 C 0.37276 0.48611 0.57731 0.0
C643 C 0.33173 0.48234 0.57938 0.0
C644 C 0.98328 0.6698 0.92139 0.0
C645 C 0.95306 0.69527 0.93566 0.0
C646 C 0.9954 0.63604 0.93907 0.0
C647 C 0.97836 0.62636 0.97219 0.0
H648 H 0.99807 0.67608 0.89647 0.0
H649 H 0.01867 0.61751 0.92684 0.0
S650 S 0.89566 0.68095 1.01957 0.0
N651 N 0.90416 0.7063 0.98375 0.0
N652 N 0.92826 0.64406 1.0175 0.0
C653 C 0.948 0.65126 0.98667 0.0
C654 C 0.93507 0.68529 0.96834 0.0
C655 C 0.50675 0.76528 0.03503 0.0
C656 C 0.47327 0.75254 0.05045 0.0
C657 C 0.51478 0.80167 0.04047 0.0
C658 C 0.48972 0.82627 0.06175 0.0
H659 H 0.52627 0.74727 1.01798 0.0
H660 H 0.5399 0.81099 0.02686 0.0
S661 S 0.40154 0.80459 0.11224 0.0
N662 N 0.41716 0.76605 0.09068 0.0
N663 N 0.43239 0.83433 0.10107 0.0
C664 C 0.45725 0.81325 0.07868 0.0
C665 C 0.44898 0.7764 0.07298 0.0
C666 C 0.02025 0.27175 0.52557 0.0
C667 C 0.0535 0.28544 0.5408 0.0
C668 C 0.01301 0.23528 0.53178 0.0
C669 C 0.03868 0.21148 0.55361 0.0
H670 H 1.00015 0.28914 0.50821 0.0
H671 H 0.98788 0.2253 0.51849 0.0
S672 S 0.12692 0.23548 0.60346 0.0
N673 N 0.11028 0.27348 0.58123 0.0
N674 N 0.09664 0.20496 0.59285 0.0
C675 C 0.07115 0.22529 0.57008 0.0
C676 C 0.07858 0.26227 0.56368 0.0
C677 C 0.53386 0.36519 0.43608 0.0
C678 C 0.56355 0.3386 0.44971 0.0
C679 C 0.52271 0.39842 0.45479 0.0
C680 C 0.54023 0.40654 0.48838 0.0
H681 H 0.51883 0.36031 0.41071 0.0
H682 H 0.49996 0.41792 0.44281 0.0
S683 S 0.62129 0.34806 0.53513 0.0
N684 N 0.61205 0.3244 0.49828 0.0
N685 N 0.58978 0.38581 0.53386 0.0
C686 C 0.5698 0.38033 0.50249 0.0
C687 C 0.58174 0.34674 0.48313 0.0
loop_
_geom_bond_atom_site_label_1
_geom_bond_atom_site_label_2
_geom_bond_distance
_geom_bond_site_symmetry_2
_ccdc_geom_bond_type
C0 C1 1.384 . S
C0 H13 0.947 . S
C0 C35 1.382 . S
C1 C0 1.384 . S
C1 C2 1.378 . S
C2 C1 1.378 . S
C2 C3 1.378 . S
C2 H14 0.952 . S
C3 C2 1.378 . S
C3 H15 0.950 . S
C3 C34 1.383 . S
H4 C23 0.947 . S
H5 C24 0.946 . S
H6 C26 0.953 . S
H7 C27 0.945 . S
H8 C29 0.952 . S
H9 C30 0.949 . S
H10 C32 0.950 . S
H11 C33 0.948 . S
H12 C35 0.951 . S
H13 C0 0.947 . S
H14 C2 0.952 . S
H15 C3 0.950 . S
N16 C19 1.382 . S
N16 C21 1.363 . S
N17 C19 1.371 . S
N17 C20 1.372 . S
N18 C20 1.361 . S
N18 C21 1.377 . S
C19 N16 1.382 . S
C19 N17 1.371 . S
C19 C22 1.480 . S
C20 N17 1.372 . S
C20 N18 1.361 . S
C20 C28 1.457 . S
C21 N16 1.363 . S
C21 N18 1.377 . S
C21 C34 1.479 . S
C22 C19 1.480 . S
C22 C23 1.383 . S
C22 C27 1.385 . S
C23 H4 0.947 . S
C23 C22 1.383 . S
C23 C24 1.388 . S
C24 H5 0.946 . S
C24 C23 1.388 . S
C24 C25 1.384 . S
C25 C24 1.384 . S
C25 C26 1.377 . S
C26 H6 0.953 . S
C26 C25 1.377 . S
C26 C27 1.369 . S
C27 H7 0.945 . S
C27 C22 1.385 . S
C27 C26 1.369 . S
C28 C20 1.457 . S
C28 C29 1.372 . S
C28 C33 1.364 . S
C29 H8 0.952 . S
C29 C28 1.372 . S
C29 C30 1.389 . S
C30 H9 0.949 . S
C30 C29 1.389 . S
C30 C31 1.387 . S
C31 C30 1.387 . S
C31 C32 1.372 . S
C32 H10 0.950 . S
C32 C31 1.372 . S
C32 C33 1.379 . S
C33 H11 0.948 . S
C33 C28 1.364 . S
C33 C32 1.379 . S
C34 C3 1.383 . S
C34 C21 1.479 . S
C34 C35 1.398 . S
C35 C0 1.382 . S
C35 H12 0.951 . S
C35 C34 1.398 . S
C36 C37 1.384 . S
C36 H49 0.947 . S
C36 C71 1.382 . S
C37 C36 1.384 . S
C37 C38 1.378 . S
C38 C37 1.378 . S
C38 C39 1.378 . S
C38 H50 0.952 . S
C39 C38 1.378 . S
C39 H51 0.950 . S
C39 C70 1.383 . S
H40 C59 0.947 . S
H41 C60 0.946 . S
H42 C62 0.953 . S
H43 C63 0.945 . S
H44 C65 0.952 . S
H45 C66 0.949 . S
H46 C68 0.950 . S
H47 C69 0.948 . S
H48 C71 0.951 . S
H49 C36 0.947 . S
H50 C38 0.952 . S
H51 C39 0.950 . S
N52 C55 1.382 . S
N52 C57 1.363 . S
N53 C55 1.371 . S
N53 C56 1.372 . S
N54 C56 1.361 . S
N54 C57 1.377 . S
C55 N52 1.382 . S
C55 N53 1.371 . S
C55 C58 1.480 . S
C56 N53 1.372 . S
C56 N54 1.361 . S
C56 C64 1.457 . S
C57 N52 1.363 . S
C57 N54 1.377 . S
C57 C70 1.479 . S
C58 C55 1.480 . S
C58 C59 1.383 . S
C58 C63 1.385 . S
C59 H40 0.947 . S
C59 C58 1.383 . S
C59 C60 1.388 . S
C60 H41 0.946 . S
C60 C59 1.388 . S
C60 C61 1.384 . S
C61 C60 1.384 . S
C61 C62 1.377 . S
C62 H42 0.953 . S
C62 C61 1.377 . S
C62 C63 1.369 . S
C63 H43 0.945 . S
C63 C58 1.385 . S
C63 C62 1.369 . S
C64 C56 1.457 . S
C64 C65 1.372 . S
C64 C69 1.364 . S
C65 H44 0.952 . S
C65 C64 1.372 . S
C65 C66 1.389 . S
C66 H45 0.949 . S
C66 C65 1.389 . S
C66 C67 1.387 . S
C67 C66 1.387 . S
C67 C68 1.372 . S
C68 H46 0.950 . S
C68 C67 1.372 . S
C68 C69 1.379 . S
C69 H47 0.948 . S
C69 C64 1.364 . S
C69 C68 1.379 . S
C70 C39 1.383 . S
C70 C57 1.479 . S
C70 C71 1.398 . S
C71 C36 1.382 . S
C71 H48 0.951 . S
C71 C70 1.398 . S
C72 C73 1.384 . S
C72 H85 0.941 1_556 S
C72 C107 1.382 . S
C73 C72 1.384 . S
C73 C74 1.378 . S
C74 C73 1.378 . S
C74 C75 1.378 . S
C74 H86 0.952 . S
C75 C74 1.378 . S
C75 H87 0.950 . S
C75 C106 1.383 . S
H76 C95 0.947 . S
H77 C96 0.946 . S
H78 C98 0.953 . S
H79 C99 0.945 . S
H80 C101 0.952 . S
H81 C102 0.949 . S
H82 C104 0.950 . S
H83 C105 0.948 . S
H84 C107 0.951 . S
H85 C72 0.941 1_554 S
H86 C74 0.952 . S
H87 C75 0.950 . S
N88 C91 1.382 . S
N88 C93 1.363 . S
N89 C91 1.371 . S
N89 C92 1.372 . S
N90 C92 1.361 . S
N90 C93 1.377 . S
C91 N88 1.382 . S
C91 N89 1.371 . S
C91 C94 1.480 . S
C92 N89 1.372 . S
C92 N90 1.361 . S
C92 C100 1.457 . S
C93 N88 1.363 . S
C93 N90 1.377 . S
C93 C106 1.479 . S
C94 C91 1.480 . S
C94 C95 1.383 . S
C94 C99 1.385 . S
C95 H76 0.947 . S
C95 C94 1.383 . S
C95 C96 1.388 . S
C96 H77 0.946 . S
C96 C95 1.388 . S
C96 C97 1.384 . S
C97 C96 1.384 . S
C97 C98 1.377 . S
C98 H78 0.953 . S
C98 C97 1.377 . S
C98 C99 1.369 . S
C99 H79 0.945 . S
C99 C94 1.385 . S
C99 C98 1.369 . S
C100 C92 1.457 . S
C100 C101 1.372 . S
C100 C105 1.364 . S
C101 H80 0.952 . S
C101 C100 1.372 . S
C101 C102 1.389 . S
C102 H81 0.949 . S
C102 C101 1.389 . S
C102 C103 1.387 . S
C103 C102 1.387 . S
C103 C104 1.372 . S
C104 H82 0.950 . S
C104 C103 1.372 . S
C104 C105 1.379 . S
C105 H83 0.948 . S
C105 C100 1.364 . S
C105 C104 1.379 . S
C106 C75 1.383 . S
C106 C93 1.479 . S
C106 C107 1.398 . S
C107 C72 1.382 . S
C107 H84 0.951 . S
C107 C106 1.398 . S
C108 C109 1.384 . S
C108 H121 0.947 . S
C108 C143 1.382 . S
C109 C108 1.384 . S
C109 C110 1.378 . S
C110 C109 1.378 . S
C110 C111 1.378 . S
C110 H122 0.952 . S
C111 C110 1.378 . S
C111 H123 0.950 . S
C111 C142 1.383 . S
H112 C131 0.947 . S
H113 C132 0.946 . S
H114 C134 0.953 . S
H115 C135 0.945 . S
H116 C137 0.952 . S
H117 C138 0.949 . S
H118 C140 0.950 . S
H119 C141 0.948 . S
H120 C143 0.951 . S
H121 C108 0.947 . S
H122 C110 0.952 . S
H123 C111 0.950 . S
N124 C127 1.382 . S
N124 C129 1.363 . S
N125 C127 1.371 . S
N125 C128 1.372 . S
N126 C128 1.361 . S
N126 C129 1.377 . S
C127 N124 1.382 . S
C127 N125 1.371 . S
C127 C130 1.480 . S
C128 N125 1.372 . S
C128 N126 1.361 . S
C128 C136 1.457 . S
C129 N124 1.363 . S
C129 N126 1.377 . S
C129 C142 1.479 . S
C130 C127 1.480 . S
C130 C131 1.383 . S
C130 C135 1.385 . S
C131 H112 0.947 . S
C131 C130 1.383 . S
C131 C132 1.388 . S
C132 H113 0.946 . S
C132 C131 1.388 . S
C132 C133 1.384 . S
C133 C132 1.384 . S
C133 C134 1.377 . S
C134 H114 0.953 . S
C134 C133 1.377 . S
C134 C135 1.369 . S
C135 H115 0.945 . S
C135 C130 1.385 . S
C135 C134 1.369 . S
C136 C128 1.457 . S
C136 C137 1.372 . S
C136 C141 1.364 . S
C137 H116 0.952 . S
C137 C136 1.372 . S
C137 C138 1.389 . S
C138 H117 0.949 . S
C138 C137 1.389 . S
C138 C139 1.387 . S
C139 C138 1.387 . S
C139 C140 1.372 . S
C140 H118 0.950 . S
C140 C139 1.372 . S
C140 C141 1.379 . S
C141 H119 0.948 . S
C141 C136 1.364 . S
C141 C140 1.379 . S
C142 C111 1.383 . S
C142 C129 1.479 . S
C142 C143 1.398 . S
C143 C108 1.382 . S
C143 H120 0.951 . S
C143 C142 1.398 . S
C144 C145 1.384 . S
C144 H157 0.947 . S
C144 C179 1.382 . S
C145 C144 1.384 . S
C145 C146 1.378 . S
C146 C145 1.378 . S
C146 C147 1.378 . S
C146 H158 0.952 . S
C147 C146 1.378 . S
C147 H159 0.950 . S
C147 C178 1.383 . S
H148 C167 0.947 . S
H149 C168 0.946 . S
H150 C170 0.953 . S
H151 C171 0.945 . S
H152 C173 0.952 . S
H153 C174 0.949 . S
H154 C176 0.950 . S
H155 C177 0.948 . S
H156 C179 0.951 . S
H157 C144 0.947 . S
H158 C146 0.952 . S
H159 C147 0.950 . S
N160 C163 1.382 . S
N160 C165 1.363 . S
N161 C163 1.371 . S
N161 C164 1.372 . S
N162 C164 1.361 . S
N162 C165 1.377 . S
C163 N160 1.382 . S
C163 N161 1.371 . S
C163 C166 1.480 . S
C164 N161 1.372 . S
C164 N162 1.361 . S
C164 C172 1.457 . S
C165 N160 1.363 . S
C165 N162 1.377 . S
C165 C178 1.479 . S
C166 C163 1.480 . S
C166 C167 1.383 . S
C166 C171 1.385 . S
C167 H148 0.947 . S
C167 C166 1.383 . S
C167 C168 1.388 . S
C168 H149 0.946 . S
C168 C167 1.388 . S
C168 C169 1.384 . S
C169 C168 1.384 . S
C169 C170 1.377 . S
C170 H150 0.953 . S
C170 C169 1.377 . S
C170 C171 1.369 . S
C171 H151 0.945 . S
C171 C166 1.385 . S
C171 C170 1.369 . S
C172 C164 1.457 . S
C172 C173 1.372 . S
C172 C177 1.364 . S
C173 H152 0.952 . S
C173 C172 1.372 . S
C173 C174 1.389 . S
C174 H153 0.949 . S
C174 C173 1.389 . S
C174 C175 1.387 . S
C175 C174 1.387 . S
C175 C176 1.372 . S
C176 H154 0.950 . S
C176 C175 1.372 . S
C176 C177 1.379 . S
C177 H155 0.948 . S
C177 C172 1.364 . S
C177 C176 1.379 . S
C178 C147 1.383 . S
C178 C165 1.479 . S
C178 C179 1.398 . S
C179 C144 1.382 . S
C179 H156 0.951 . S
C179 C178 1.398 . S
C180 C181 1.384 . S
C180 H193 0.947 . S
C180 C215 1.382 . S
C181 C180 1.384 . S
C181 C182 1.378 . S
C182 C181 1.378 . S
C182 C183 1.378 . S
C182 H194 0.952 . S
C183 C182 1.378 . S
C183 H195 0.950 . S
C183 C214 1.383 . S
H184 C203 0.947 . S
H185 C204 0.946 . S
H186 C206 0.953 . S
H187 C207 0.945 . S
H188 C209 0.952 . S
H189 C210 0.949 . S
H190 C212 0.950 . S
H191 C213 0.948 . S
H192 C215 0.951 . S
H193 C180 0.947 . S
H194 C182 0.952 . S
H195 C183 0.950 . S
N196 C199 1.382 . S
N196 C201 1.363 . S
N197 C199 1.371 . S
N197 C200 1.372 . S
N198 C200 1.361 . S
N198 C201 1.377 . S
C199 N196 1.382 . S
C199 N197 1.371 . S
C199 C202 1.480 . S
C200 N197 1.372 . S
C200 N198 1.361 . S
C200 C208 1.457 . S
C201 N196 1.363 . S
C201 N198 1.377 . S
C201 C214 1.479 . S
C202 C199 1.480 . S
C202 C203 1.383 . S
C202 C207 1.385 . S
C203 H184 0.947 . S
C203 C202 1.383 . S
C203 C204 1.388 . S
C204 H185 0.946 . S
C204 C203 1.388 . S
C204 C205 1.384 . S
C205 C204 1.384 . S
C205 C206 1.377 . S
C206 H186 0.953 . S
C206 C205 1.377 . S
C206 C207 1.369 . S
C207 H187 0.945 . S
C207 C202 1.385 . S
C207 C206 1.369 . S
C208 C200 1.457 . S
C208 C209 1.372 . S
C208 C213 1.364 . S
C209 H188 0.952 . S
C209 C208 1.372 . S
C209 C210 1.389 . S
C210 H189 0.949 . S
C210 C209 1.389 . S
C210 C211 1.387 . S
C211 C210 1.387 . S
C211 C212 1.372 . S
C212 H190 0.950 . S
C212 C211 1.372 . S
C212 C213 1.379 . S
C213 H191 0.948 . S
C213 C208 1.364 . S
C213 C212 1.379 . S
C214 C183 1.383 . S
C214 C201 1.479 . S
C214 C215 1.398 . S
C215 C180 1.382 . S
C215 H192 0.951 . S
C215 C214 1.398 . S
C216 C217 1.384 . S
C216 H229 0.947 . S
C216 C251 1.382 . S
C217 C216 1.384 . S
C217 C218 1.378 . S
C218 C217 1.378 . S
C218 C219 1.378 . S
C218 H230 0.952 1_554 S
C219 C218 1.378 . S
C219 H231 0.950 . S
C219 C250 1.383 . S
H220 C239 0.947 . S
H221 C240 0.946 . S
H222 C242 0.953 . S
H223 C243 0.945 . S
H224 C245 0.952 . S
H225 C246 0.949 . S
H226 C248 0.950 . S
H227 C249 0.948 . S
H228 C251 0.951 . S
H229 C216 0.947 . S
H230 C218 0.952 1_556 S
H231 C219 0.950 . S
N232 C235 1.382 . S
N232 C237 1.363 . S
N233 C235 1.371 . S
N233 C236 1.372 . S
N234 C236 1.361 . S
N234 C237 1.377 . S
C235 N232 1.382 . S
C235 N233 1.371 . S
C235 C238 1.480 . S
C236 N233 1.372 . S
C236 N234 1.361 . S
C236 C244 1.457 . S
C237 N232 1.363 . S
C237 N234 1.377 . S
C237 C250 1.479 . S
C238 C235 1.480 . S
C238 C239 1.383 . S
C238 C243 1.385 . S
C239 H220 0.947 . S
C239 C238 1.383 . S
C239 C240 1.388 . S
C240 H221 0.946 . S
C240 C239 1.388 . S
C240 C241 1.384 . S
C241 C240 1.384 . S
C241 C242 1.377 . S
C242 H222 0.953 . S
C242 C241 1.377 . S
C242 C243 1.369 . S
C243 H223 0.945 . S
C243 C238 1.385 . S
C243 C242 1.369 . S
C244 C236 1.457 . S
C244 C245 1.372 . S
C244 C249 1.364 . S
C245 H224 0.952 . S
C245 C244 1.372 . S
C245 C246 1.389 . S
C246 H225 0.949 . S
C246 C245 1.389 . S
C246 C247 1.387 . S
C247 C246 1.387 . S
C247 C248 1.372 . S
C248 H226 0.950 . S
C248 C247 1.372 . S
C248 C249 1.379 . S
C249 H227 0.948 . S
C249 C244 1.364 . S
C249 C248 1.379 . S
C250 C219 1.383 . S
C250 C237 1.479 . S
C250 C251 1.398 . S
C251 C216 1.382 . S
C251 H228 0.951 . S
C251 C250 1.398 . S
C252 C253 1.384 . S
C252 H265 0.947 . S
C252 C287 1.382 . S
C253 C252 1.384 . S
C253 C254 1.378 . S
C254 C253 1.378 . S
C254 C255 1.378 . S
C254 H266 0.952 . S
C255 C254 1.378 . S
C255 H267 0.950 . S
C255 C286 1.383 . S
H256 C275 0.947 . S
H257 C276 0.946 . S
H258 C278 0.953 . S
H259 C279 0.945 . S
H260 C281 0.952 . S
H261 C282 0.949 . S
H262 C284 0.950 . S
H263 C285 0.948 . S
H264 C287 0.951 . S
H265 C252 0.947 . S
H266 C254 0.952 . S
H267 C255 0.950 . S
N268 C271 1.382 . S
N268 C273 1.363 . S
N269 C271 1.371 . S
N269 C272 1.372 . S
N270 C272 1.361 . S
N270 C273 1.377 . S
C271 N268 1.382 . S
C271 N269 1.371 . S
C271 C274 1.480 . S
C272 N269 1.372 . S
C272 N270 1.361 . S
C272 C280 1.457 . S
C273 N268 1.363 . S
C273 N270 1.377 . S
C273 C286 1.479 . S
C274 C271 1.480 . S
C274 C275 1.383 . S
C274 C279 1.385 . S
C275 H256 0.947 . S
C275 C274 1.383 . S
C275 C276 1.388 . S
C276 H257 0.946 . S
C276 C275 1.388 . S
C276 C277 1.384 . S
C277 C276 1.384 . S
C277 C278 1.377 . S
C278 H258 0.953 . S
C278 C277 1.377 . S
C278 C279 1.369 . S
C279 H259 0.945 . S
C279 C274 1.385 . S
C279 C278 1.369 . S
C280 C272 1.457 . S
C280 C281 1.372 . S
C280 C285 1.364 . S
C281 H260 0.952 . S
C281 C280 1.372 . S
C281 C282 1.389 . S
C282 H261 0.949 . S
C282 C281 1.389 . S
C282 C283 1.387 . S
C283 C282 1.387 . S
C283 C284 1.372 . S
C284 H262 0.950 . S
C284 C283 1.372 . S
C284 C285 1.379 . S
C285 H263 0.948 . S
C285 C280 1.364 . S
C285 C284 1.379 . S
C286 C255 1.383 . S
C286 C273 1.479 . S
C286 C287 1.398 . S
C287 C252 1.382 . S
C287 H264 0.951 . S
C287 C286 1.398 . S
C288 O304 1.251 . S
C288 O306 1.254 1_545 S
N289 C290 1.333 . S
N289 C294 1.307 . S
N289 Zn295 2.020 . S
C290 N289 1.333 . S
C290 C291 1.379 . S
C290 H308 0.952 . S
C291 C290 1.379 . S
C291 C292 1.390 . S
C291 H318 0.949 . S
C292 C291 1.390 . S
C292 C293 1.357 . S
C293 C292 1.357 . S
C293 C294 1.370 . S
C293 H319 0.950 . S
C294 N289 1.307 . S
C294 C293 1.370 . S
C294 H312 0.948 1_455 S
Zn295 N289 2.020 . S
Zn295 O304 2.039 . S
Zn295 O310 2.034 . S
Zn295 O314 2.025 1_455 S
Zn295 O316 2.024 1_455 S
C296 O315 1.246 1_545 S
C296 O316 1.249 . S
N297 C298 1.307 . S
N297 C299 1.333 . S
N297 Zn303 2.020 . S
C298 N297 1.307 . S
C298 C302 1.370 . S
C298 H309 0.948 1_655 S
C299 N297 1.333 . S
C299 C300 1.379 . S
C299 H307 0.952 . S
C300 C299 1.379 . S
C300 C301 1.390 . S
C300 H320 0.949 . S
C301 C300 1.390 . S
C301 C302 1.357 . S
C302 C298 1.370 . S
C302 C301 1.357 . S
C302 H321 0.950 . S
Zn303 N297 2.020 . S
Zn303 O306 2.025 1_655 S
Zn303 O311 2.024 1_655 S
Zn303 O313 2.039 . S
Zn303 O315 2.034 . S
O304 C288 1.251 . S
O304 Zn295 2.039 . S
C305 O310 1.246 1_565 S
C305 O311 1.249 . S
O306 C288 1.254 1_565 S
O306 Zn303 2.025 1_455 S
H307 C299 0.952 . S
H308 C290 0.952 . S
H309 C298 0.948 1_455 S
O310 Zn295 2.034 . S
O310 C305 1.246 1_545 S
O311 Zn303 2.024 1_455 S
O311 C305 1.249 . S
H312 C294 0.948 1_655 S
O313 Zn303 2.039 . S
O313 C317 1.251 . S
O314 Zn295 2.025 1_655 S
O314 C317 1.254 1_545 S
O315 C296 1.246 1_565 S
O315 Zn303 2.034 . S
O316 Zn295 2.024 1_655 S
O316 C296 1.249 . S
C317 O313 1.251 . S
C317 O314 1.254 1_565 S
H318 C291 0.949 . S
H319 C293 0.950 . S
H320 C300 0.949 . S
H321 C302 0.950 . S
C322 O338 1.251 1_565 S
C322 O340 1.254 . S
N323 C324 1.333 . S
N323 C328 1.307 . S
N323 Zn329 2.020 . S
C324 N323 1.333 . S
C324 C325 1.379 . S
C324 H342 0.952 . S
C325 C324 1.379 . S
C325 C326 1.390 . S
C325 H352 0.949 . S
C326 C325 1.390 . S
C326 C327 1.357 . S
C327 C326 1.357 . S
C327 C328 1.370 . S
C327 H353 0.950 . S
C328 N323 1.307 . S
C328 C327 1.370 . S
C328 H346 0.948 . S
Zn329 N323 2.020 . S
Zn329 O338 2.039 . S
Zn329 O344 2.034 1_556 S
Zn329 O348 2.025 1_556 S
Zn329 O350 2.024 . S
C330 O349 1.246 . S
C330 O350 1.249 1_565 S
N331 C332 1.307 . S
N331 C333 1.333 . S
N331 Zn337 2.020 . S
C332 N331 1.307 . S
C332 C336 1.370 . S
C332 H343 0.948 . S
C333 N331 1.333 . S
C333 C334 1.379 . S
C333 H341 0.952 . S
C334 C333 1.379 . S
C334 C335 1.390 . S
C334 H354 0.949 . S
C335 C334 1.390 . S
C335 C336 1.357 . S
C336 C332 1.370 . S
C336 C335 1.357 . S
C336 H355 0.950 . S
Zn337 N331 2.020 . S
Zn337 O340 2.025 1_554 S
Zn337 O345 2.024 . S
Zn337 O347 2.039 . S
Zn337 O349 2.034 1_554 S
O338 C322 1.251 1_545 S
O338 Zn329 2.039 . S
C339 O344 1.246 . S
C339 O345 1.249 1_545 S
O340 C322 1.254 . S
O340 Zn337 2.025 1_556 S
H341 C333 0.952 . S
H342 C324 0.952 . S
H343 C332 0.948 . S
O344 Zn329 2.034 1_554 S
O344 C339 1.246 . S
O345 Zn337 2.024 . S
O345 C339 1.249 1_565 S
H346 C328 0.948 . S
O347 Zn337 2.039 . S
O347 C351 1.251 1_565 S
O348 Zn329 2.025 1_554 S
O348 C351 1.254 . S
O349 C330 1.246 . S
O349 Zn337 2.034 1_556 S
O350 Zn329 2.024 . S
O350 C330 1.249 1_545 S
C351 O347 1.251 1_545 S
C351 O348 1.254 . S
H352 C325 0.949 . S
H353 C327 0.950 . S
H354 C334 0.949 . S
H355 C336 0.950 . S
C356 O372 1.251 . S
C356 O374 1.254 . S
N357 C358 1.333 . S
N357 C362 1.307 . S
N357 Zn363 2.020 . S
C358 N357 1.333 . S
C358 C359 1.379 . S
C358 H376 0.952 . S
C359 C358 1.379 . S
C359 C360 1.390 . S
C359 H386 0.949 . S
C360 C359 1.390 . S
C360 C361 1.357 . S
C361 C360 1.357 . S
C361 C362 1.370 . S
C361 H387 0.950 . S
C362 N357 1.307 . S
C362 C361 1.370 . S
C362 H380 0.948 . S
Zn363 N357 2.020 . S
Zn363 O372 2.039 . S
Zn363 O378 2.034 . S
Zn363 O382 2.025 . S
Zn363 O384 2.024 . S
C364 O383 1.246 . S
C364 O384 1.249 . S
N365 C366 1.307 . S
N365 C367 1.333 . S
N365 Zn371 2.020 . S
C366 N365 1.307 . S
C366 C370 1.370 . S
C366 H377 0.948 . S
C367 N365 1.333 . S
C367 C368 1.379 . S
C367 H375 0.952 . S
C368 C367 1.379 . S
C368 C369 1.390 . S
C368 H388 0.949 . S
C369 C368 1.390 . S
C369 C370 1.357 . S
C370 C366 1.370 . S
C370 C369 1.357 . S
C370 H389 0.950 . S
Zn371 N365 2.020 . S
Zn371 O374 2.025 . S
Zn371 O379 2.024 . S
Zn371 O381 2.039 . S
Zn371 O383 2.034 . S
O372 C356 1.251 . S
O372 Zn363 2.039 . S
C373 O378 1.246 . S
C373 O379 1.249 . S
O374 C356 1.254 . S
O374 Zn371 2.025 . S
H375 C367 0.952 . S
H376 C358 0.952 . S
H377 C366 0.948 . S
O378 Zn363 2.034 . S
O378 C373 1.246 . S
O379 Zn371 2.024 . S
O379 C373 1.249 . S
H380 C362 0.948 . S
O381 Zn371 2.039 . S
O381 C385 1.251 . S
O382 Zn363 2.025 . S
O382 C385 1.254 . S
O383 C364 1.246 . S
O383 Zn371 2.034 . S
O384 Zn363 2.024 . S
O384 C364 1.249 . S
C385 O381 1.251 . S
C385 O382 1.254 . S
H386 C359 0.949 . S
H387 C361 0.950 . S
H388 C368 0.949 . S
H389 C370 0.950 . S
C390 O406 1.251 1_556 S
C390 O408 1.254 . S
N391 C392 1.333 . S
N391 C396 1.307 . S
N391 Zn397 2.020 . S
C392 N391 1.333 . S
C392 C393 1.379 . S
C392 H410 0.952 . S
C393 C392 1.379 . S
C393 C394 1.390 . S
C393 H420 0.949 . S
C394 C393 1.390 . S
C394 C395 1.357 . S
C395 C394 1.357 . S
C395 C396 1.370 . S
C395 H421 0.950 . S
C396 N391 1.307 . S
C396 C395 1.370 . S
C396 H414 0.948 . S
Zn397 N391 2.020 . S
Zn397 O406 2.039 . S
Zn397 O412 2.034 1_655 S
Zn397 O416 2.025 1_655 S
Zn397 O418 2.024 . S
C398 O417 1.246 . S
C398 O418 1.249 1_556 S
N399 C400 1.307 . S
N399 C401 1.333 . S
N399 Zn405 2.020 . S
C400 N399 1.307 . S
C400 C404 1.370 . S
C400 H411 0.948 . S
C401 N399 1.333 . S
C401 C402 1.379 . S
C401 H409 0.952 . S
C402 C401 1.379 . S
C402 C403 1.390 . S
C402 H422 0.949 . S
C403 C402 1.390 . S
C403 C404 1.357 . S
C404 C400 1.370 . S
C404 C403 1.357 . S
C404 H423 0.950 . S
Zn405 N399 2.020 . S
Zn405 O408 2.025 1_455 S
Zn405 O413 2.024 . S
Zn405 O415 2.039 . S
Zn405 O417 2.034 1_455 S
O406 C390 1.251 1_554 S
O406 Zn397 2.039 . S
C407 O412 1.246 . S
C407 O413 1.249 1_554 S
O408 C390 1.254 . S
O408 Zn405 2.025 1_655 S
H409 C401 0.952 . S
H410 C392 0.952 . S
H411 C400 0.948 . S
O412 Zn397 2.034 1_455 S
O412 C407 1.246 . S
O413 Zn405 2.024 . S
O413 C407 1.249 1_556 S
H414 C396 0.948 . S
O415 Zn405 2.039 . S
O415 C419 1.251 1_556 S
O416 Zn397 2.025 1_455 S
O416 C419 1.254 . S
O417 C398 1.246 . S
O417 Zn405 2.034 1_655 S
O418 Zn397 2.024 . S
O418 C398 1.249 1_554 S
C419 O415 1.251 1_554 S
C419 O416 1.254 . S
H420 C393 0.949 . S
H421 C395 0.950 . S
H422 C402 0.949 . S
H423 C404 0.950 . S
C424 C425 1.369 . S
C424 C426 1.419 . S
C424 H428 0.930 . S
C425 C424 1.369 . S
C425 C434 1.429 . S
C426 C424 1.419 . S
C426 C427 1.363 . S
C426 H429 0.929 . S
C427 C426 1.363 . S
C427 C433 1.428 . S
H428 C424 0.930 . S
H429 C426 0.929 . S
S430 N431 1.613 1_655 S
S430 N432 1.610 1_655 S
N431 S430 1.613 1_455 S
N431 C434 1.350 1_565 S
N432 S430 1.610 1_455 S
N432 C433 1.351 1_565 S
C433 C427 1.428 . S
C433 N432 1.351 1_545 S
C433 C434 1.434 . S
C434 C425 1.429 . S
C434 N431 1.350 1_545 S
C434 C433 1.434 . S
C435 C436 1.369 . S
C435 C437 1.419 . S
C435 H439 0.930 . S
C436 C435 1.369 . S
C436 C445 1.429 . S
C437 C435 1.419 . S
C437 C438 1.363 . S
C437 H440 0.929 . S
C438 C437 1.363 . S
C438 C444 1.428 . S
H439 C435 0.930 . S
H440 C437 0.929 . S
S441 N442 1.613 . S
S441 N443 1.610 . S
N442 S441 1.613 . S
N442 C445 1.350 1_545 S
N443 S441 1.610 . S
N443 C444 1.351 1_545 S
C444 C438 1.428 . S
C444 N443 1.351 1_565 S
C444 C445 1.434 . S
C445 C436 1.429 . S
C445 N442 1.350 1_565 S
C445 C444 1.434 . S
C446 C447 1.369 . S
C446 C448 1.419 . S
C446 H450 0.930 . S
C447 C446 1.369 . S
C447 C456 1.429 . S
C448 C446 1.419 . S
C448 C449 1.363 . S
C448 H451 0.929 . S
C449 C448 1.363 . S
C449 C455 1.428 . S
H450 C446 0.930 . S
H451 C448 0.929 . S
S452 N453 1.613 . S
S452 N454 1.610 . S
N453 S452 1.613 . S
N453 C456 1.350 . S
N454 S452 1.610 . S
N454 C455 1.351 . S
C455 C449 1.428 . S
C455 N454 1.351 . S
C455 C456 1.434 . S
C456 C447 1.429 . S
C456 N453 1.350 . S
C456 C455 1.434 . S
C457 C458 1.369 . S
C457 C459 1.419 . S
C457 H461 0.930 . S
C458 C457 1.369 . S
C458 C467 1.429 . S
C459 C457 1.419 . S
C459 C460 1.363 . S
C459 H462 0.929 . S
C460 C459 1.363 . S
C460 C466 1.428 . S
H461 C457 0.930 . S
H462 C459 0.929 . S
S463 N464 1.613 . S
S463 N465 1.610 . S
N464 S463 1.613 . S
N464 C467 1.350 . S
N465 S463 1.610 . S
N465 C466 1.351 . S
C466 C460 1.428 . S
C466 N465 1.351 . S
C466 C467 1.434 . S
C467 C458 1.429 . S
C467 N464 1.350 . S
C467 C466 1.434 . S
C468 C469 1.369 . S
C468 C470 1.419 . S
C468 H472 0.930 . S
C469 C468 1.369 . S
C469 C478 1.429 . S
C470 C468 1.419 . S
C470 C471 1.363 . S
C470 H473 0.913 1_554 S
C471 C470 1.363 . S
C471 C477 1.428 . S
H472 C468 0.930 . S
H473 C470 0.913 1_556 S
S474 N475 1.613 1_565 S
S474 N476 1.610 . S
N475 S474 1.613 1_545 S
N475 C478 1.350 . S
N476 S474 1.610 . S
N476 C477 1.351 1_565 S
C477 C471 1.428 . S
C477 N476 1.351 1_545 S
C477 C478 1.434 . S
C478 C469 1.429 . S
C478 N475 1.350 . S
C478 C477 1.434 . S
C479 C480 1.369 . S
C479 C481 1.419 . S
C479 H483 0.930 1_565 S
C480 C479 1.369 . S
C480 C489 1.429 . S
C481 C479 1.419 . S
C481 C482 1.363 . S
C481 H484 0.929 1_565 S
C482 C481 1.363 . S
C482 C488 1.428 . S
H483 C479 0.930 1_545 S
H484 C481 0.929 1_545 S
S485 N486 1.613 . S
S485 N487 1.610 . S
N486 S485 1.613 . S
N486 C489 1.350 . S
N487 S485 1.610 . S
N487 C488 1.351 . S
C488 C482 1.428 . S
C488 N487 1.351 . S
C488 C489 1.434 . S
C489 C480 1.429 . S
C489 N486 1.350 . S
C489 C488 1.434 . S
C490 C491 1.369 . S
C490 C492 1.419 . S
C490 H494 0.930 1_556 S
C491 C490 1.369 . S
C491 C500 1.429 . S
C492 C490 1.419 . S
C492 C493 1.363 . S
C492 H495 0.929 1_556 S
C493 C492 1.363 . S
C493 C499 1.428 . S
H494 C490 0.930 1_554 S
H495 C492 0.929 1_554 S
S496 N497 1.613 . S
S496 N498 1.610 . S
N497 S496 1.613 . S
N497 C500 1.350 . S
N498 S496 1.610 . S
N498 C499 1.351 . S
C499 C493 1.428 . S
C499 N498 1.351 . S
C499 C500 1.434 . S
C500 C491 1.429 . S
C500 N497 1.350 . S
C500 C499 1.434 . S
C501 C502 1.369 . S
C501 C503 1.419 . S
C501 H505 0.930 . S
C502 C501 1.369 . S
C502 C511 1.429 . S
C503 C501 1.419 . S
C503 C504 1.363 . S
C503 H506 0.929 . S
C504 C503 1.363 . S
C504 C510 1.428 . S
H505 C501 0.930 . S
H506 C503 0.929 . S
S507 N508 1.613 . S
S507 N509 1.610 . S
N508 S507 1.613 . S
N508 C511 1.350 . S
N509 S507 1.610 . S
N509 C510 1.351 . S
C510 C504 1.428 . S
C510 N509 1.351 . S
C510 C511 1.434 . S
C511 C502 1.429 . S
C511 N508 1.350 . S
C511 C510 1.434 . S
C512 C513 1.369 . S
C512 C514 1.419 . S
C512 H516 0.930 . S
C513 C512 1.369 . S
C513 C522 1.429 . S
C514 C512 1.419 . S
C514 C515 1.363 . S
C514 H517 0.929 . S
C515 C514 1.363 . S
C515 C521 1.428 . S
H516 C512 0.930 . S
H517 C514 0.929 . S
S518 N519 1.613 . S
S518 N520 1.610 . S
N519 S518 1.613 . S
N519 C522 1.350 1_655 S
N520 S518 1.610 . S
N520 C521 1.351 1_655 S
C521 C515 1.428 . S
C521 N520 1.351 1_455 S
C521 C522 1.434 . S
C522 C513 1.429 . S
C522 N519 1.350 1_455 S
C522 C521 1.434 . S
C523 C524 1.369 . S
C523 C525 1.419 . S
C523 H527 0.930 . S
C524 C523 1.369 . S
C524 C533 1.429 . S
C525 C523 1.419 . S
C525 C526 1.363 . S
C525 H528 0.929 . S
C526 C525 1.363 . S
C526 C532 1.428 . S
H527 C523 0.930 . S
H528 C525 0.929 . S
S529 N530 1.613 . S
S529 N531 1.610 . S
N530 S529 1.613 . S
N530 C533 1.350 . S
N531 S529 1.610 . S
N531 C532 1.351 . S
C532 C526 1.428 . S
C532 N531 1.351 . S
C532 C533 1.434 . S
C533 C524 1.429 . S
C533 N530 1.350 . S
C533 C532 1.434 . S
C534 C535 1.369 . S
C534 C536 1.419 . S
C534 H538 0.930 . S
C535 C534 1.369 . S
C535 C544 1.429 . S
C536 C534 1.419 . S
C536 C537 1.363 . S
C536 H539 0.929 . S
C537 C536 1.363 . S
C537 C543 1.428 . S
H538 C534 0.930 . S
H539 C536 0.929 . S
S540 N541 1.613 . S
S540 N542 1.610 . S
N541 S540 1.613 . S
N541 C544 1.350 . S
N542 S540 1.610 . S
N542 C543 1.351 . S
C543 C537 1.428 . S
C543 N542 1.351 . S
C543 C544 1.434 . S
C544 C535 1.429 . S
C544 N541 1.350 . S
C544 C543 1.434 . S
C545 C546 1.369 . S
C545 C547 1.419 . S
C545 H549 0.930 . S
C546 C545 1.369 . S
C546 C555 1.429 . S
C547 C545 1.419 . S
C547 C548 1.363 . S
C547 H550 0.929 . S
C548 C547 1.363 . S
C548 C554 1.428 . S
H549 C545 0.930 . S
H550 C547 0.929 . S
S551 N552 1.613 . S
S551 N553 1.610 . S
N552 S551 1.613 . S
N552 C555 1.350 . S
N553 S551 1.610 . S
N553 C554 1.351 . S
C554 C548 1.428 . S
C554 N553 1.351 . S
C554 C555 1.434 . S
C555 C546 1.429 . S
C555 N552 1.350 . S
C555 C554 1.434 . S
C556 C557 1.369 . S
C556 C558 1.419 . S
C556 H560 0.930 . S
C557 C556 1.369 . S
C557 C566 1.429 . S
C558 C556 1.419 . S
C558 C559 1.363 . S
C558 H561 0.929 . S
C559 C558 1.363 . S
C559 C565 1.428 . S
H560 C556 0.930 . S
H561 C558 0.929 . S
S562 N563 1.613 . S
S562 N564 1.610 . S
N563 S562 1.613 . S
N563 C566 1.350 1_455 S
N564 S562 1.610 . S
N564 C565 1.351 1_455 S
C565 C559 1.428 . S
C565 N564 1.351 1_655 S
C565 C566 1.434 . S
C566 C557 1.429 . S
C566 N563 1.350 1_655 S
C566 C565 1.434 . S
C567 C568 1.369 . S
C567 C569 1.419 . S
C567 H571 0.930 . S
C568 C567 1.369 . S
C568 C577 1.429 . S
C569 C567 1.419 . S
C569 C570 1.363 . S
C569 H572 0.929 . S
C570 C569 1.363 . S
C570 C576 1.428 . S
H571 C567 0.930 . S
H572 C569 0.929 . S
S573 N574 1.613 . S
S573 N575 1.610 . S
N574 S573 1.613 . S
N574 C577 1.350 . S
N575 S573 1.610 . S
N575 C576 1.351 . S
C576 C570 1.428 . S
C576 N575 1.351 . S
C576 C577 1.434 . S
C577 C568 1.429 . S
C577 N574 1.350 . S
C577 C576 1.434 . S
C578 C579 1.369 . S
C578 C580 1.419 . S
C578 H582 0.930 . S
C579 C578 1.369 . S
C579 C588 1.429 . S
C580 C578 1.419 . S
C580 C581 1.363 . S
C580 H583 0.929 . S
C581 C580 1.363 . S
C581 C587 1.428 . S
H582 C578 0.930 . S
H583 C580 0.929 . S
S584 N585 1.613 . S
S584 N586 1.610 . S
N585 S584 1.613 . S
N585 C588 1.350 . S
N586 S584 1.610 . S
N586 C587 1.351 . S
C587 C581 1.428 . S
C587 N586 1.351 . S
C587 C588 1.434 . S
C588 C579 1.429 . S
C588 N585 1.350 . S
C588 C587 1.434 . S
C589 C590 1.369 . S
C589 C591 1.419 . S
C589 H593 0.930 . S
C590 C589 1.369 . S
C590 C599 1.429 . S
C591 C589 1.419 . S
C591 C592 1.363 . S
C591 H594 0.929 . S
C592 C591 1.363 . S
C592 C598 1.428 . S
H593 C589 0.930 . S
H594 C591 0.929 . S
S595 N596 1.613 . S
S595 N597 1.610 . S
N596 S595 1.613 . S
N596 C599 1.350 . S
N597 S595 1.610 . S
N597 C598 1.351 . S
C598 C592 1.428 . S
C598 N597 1.351 . S
C598 C599 1.434 . S
C599 C590 1.429 . S
C599 N596 1.350 . S
C599 C598 1.434 . S
C600 C601 1.369 . S
C600 C602 1.419 . S
C600 H604 0.930 . S
C601 C600 1.369 . S
C601 C610 1.429 . S
C602 C600 1.419 . S
C602 C603 1.363 . S
C602 H605 0.929 1_556 S
C603 C602 1.363 . S
C603 C609 1.428 . S
H604 C600 0.930 . S
H605 C602 0.929 1_554 S
S606 N607 1.613 . S
S606 N608 1.610 . S
N607 S606 1.613 . S
N607 C610 1.350 . S
N608 S606 1.610 . S
N608 C609 1.351 . S
C609 C603 1.428 . S
C609 N608 1.351 . S
C609 C610 1.434 . S
C610 C601 1.429 . S
C610 N607 1.350 . S
C610 C609 1.434 . S
C611 C612 1.369 . S
C611 C613 1.419 . S
C611 H615 0.930 1_545 S
C612 C611 1.369 . S
C612 C621 1.429 . S
C613 C611 1.419 . S
C613 C614 1.363 . S
C613 H616 0.929 1_545 S
C614 C613 1.363 . S
C614 C620 1.428 . S
H615 C611 0.930 1_565 S
H616 C613 0.929 1_565 S
S617 N618 1.613 . S
S617 N619 1.610 . S
N618 S617 1.613 . S
N618 C621 1.350 . S
N619 S617 1.610 . S
N619 C620 1.351 . S
C620 C614 1.428 . S
C620 N619 1.351 . S
C620 C621 1.434 . S
C621 C612 1.429 . S
C621 N618 1.350 . S
C621 C620 1.434 . S
C622 C623 1.369 . S
C622 C624 1.419 . S
C622 H626 0.930 . S
C623 C622 1.369 . S
C623 C632 1.429 1_554 S
C624 C622 1.419 . S
C624 C625 1.363 . S
C624 H627 0.929 . S
C625 C624 1.363 . S
C625 C631 1.428 1_554 S
H626 C622 0.930 . S
H627 C624 0.929 . S
S628 N629 1.613 . S
S628 N630 1.610 . S
N629 S628 1.613 . S
N629 C632 1.350 . S
N630 S628 1.610 . S
N630 C631 1.351 . S
C631 C625 1.428 1_556 S
C631 N630 1.351 . S
C631 C632 1.434 . S
C632 C623 1.429 1_556 S
C632 N629 1.350 . S
C632 C631 1.434 . S
C633 C634 1.369 . S
C633 C635 1.419 . S
C633 H637 0.930 . S
C634 C633 1.369 . S
C634 C643 1.429 . S
C635 C633 1.419 . S
C635 C636 1.363 . S
C635 H638 0.929 . S
C636 C635 1.363 . S
C636 C642 1.428 . S
H637 C633 0.930 . S
H638 C635 0.929 . S
S639 N640 1.613 . S
S639 N641 1.610 . S
N640 S639 1.613 . S
N640 C643 1.350 . S
N641 S639 1.610 . S
N641 C642 1.351 . S
C642 C636 1.428 . S
C642 N641 1.351 . S
C642 C643 1.434 . S
C643 C634 1.429 . S
C643 N640 1.350 . S
C643 C642 1.434 . S
C644 C645 1.369 . S
C644 C646 1.419 . S
C644 H648 0.930 1_655 S
C645 C644 1.369 . S
C645 C654 1.429 . S
C646 C644 1.419 . S
C646 C647 1.363 . S
C646 H649 0.929 1_655 S
C647 C646 1.363 . S
C647 C653 1.428 . S
H648 C644 0.930 1_455 S
H649 C646 0.929 1_455 S
S650 N651 1.613 . S
S650 N652 1.610 . S
N651 S650 1.613 . S
N651 C654 1.350 . S
N652 S650 1.610 . S
N652 C653 1.351 . S
C653 C647 1.428 . S
C653 N652 1.351 . S
C653 C654 1.434 . S
C654 C645 1.429 . S
C654 N651 1.350 . S
C654 C653 1.434 . S
C655 C656 1.369 . S
C655 C657 1.419 . S
C655 H659 0.930 . S
C656 C655 1.369 . S
C656 C665 1.429 . S
C657 C655 1.419 . S
C657 C658 1.363 . S
C657 H660 0.929 . S
C658 C657 1.363 . S
C658 C664 1.428 . S
H659 C655 0.930 . S
H660 C657 0.929 . S
S661 N662 1.613 . S
S661 N663 1.610 . S
N662 S661 1.613 . S
N662 C665 1.350 . S
N663 S661 1.610 . S
N663 C664 1.351 . S
C664 C658 1.428 . S
C664 N663 1.351 . S
C664 C665 1.434 . S
C665 C656 1.429 . S
C665 N662 1.350 . S
C665 C664 1.434 . S
C666 C667 1.369 . S
C666 C668 1.419 . S
C666 H670 0.930 . S
C667 C666 1.369 . S
C667 C676 1.429 . S
C668 C666 1.419 . S
C668 C669 1.363 . S
C668 H671 0.929 . S
C669 C668 1.363 . S
C669 C675 1.428 . S
H670 C666 0.930 . S
H671 C668 0.929 . S
S672 N673 1.613 . S
S672 N674 1.610 . S
N673 S672 1.613 . S
N673 C676 1.350 . S
N674 S672 1.610 . S
N674 C675 1.351 . S
C675 C669 1.428 . S
C675 N674 1.351 . S
C675 C676 1.434 . S
C676 C667 1.429 . S
C676 N673 1.350 . S
C676 C675 1.434 . S
C677 C678 1.369 . S
C677 C679 1.419 . S
C677 H681 0.930 . S
C678 C677 1.369 . S
C678 C687 1.429 . S
C679 C677 1.419 . S
C679 C680 1.363 . S
C679 H682 0.929 . S
C680 C679 1.363 . S
C680 C686 1.428 . S
H681 C677 0.930 . S
H682 C679 0.929 . S
S683 N684 1.613 . S
S683 N685 1.610 . S
N684 S683 1.613 . S
N684 C687 1.350 . S
N685 S683 1.610 . S
N685 C686 1.351 . S
C686 C680 1.428 . S
C686 N685 1.351 . S
C686 C687 1.434 . S
C687 C678 1.429 . S
C687 N684 1.350 . S
C687 C686 1.434 . S
C425 C1 2.302 . S
C427 C288 2.345 . S
C436 C67 2.280 . S
C438 C330 2.331 . S
C449 C360 1.112 . S
C447 C97 1.067 . S
C458 C133 1.182 . S
C460 C394 1.169 . S
C471 C351 1.887 . S
C469 C25 1.829 . S
C482 C305 1.885 . S
C480 C37 1.837 . S
C493 C398 1.440 . S
C491 C103 1.362 . S
C504 C364 1.491 . S
C502 C109 1.472 . S
C513 C31 2.206 . S
C515 C419 2.247 . S
C526 C326 1.257 . S
C524 C73 1.201 . S
C535 C139 1.258 . S
C537 C301 1.284 . S
C546 C61 2.170 . S
C548 C385 2.219 . S
C559 C317 2.356 . S
C557 C175 2.351 . S
C568 C181 2.276 . S
C570 C339 2.316 . S
C579 C247 1.124 . S
C581 C369 1.122 . S
C590 C277 1.197 . S
C592 C403 1.171 . S
C601 C145 1.870 . S
C603 C322 1.886 . S
C614 C296 1.888 . S
C612 C211 1.839 . S
C625 C407 1.422 . S
C623 C217 1.405 . S
C636 C373 1.509 . S
C634 C283 1.487 . S
C645 C169 2.245 . S
C647 C390 2.243 . S
C658 C335 1.248 . S
C656 C241 1.238 . S
C669 C292 1.279 . S
C667 C253 1.237 . S
C678 C205 2.167 . S
C680 C356 2.225 . S
