# Generated by pormake.
# Topology pyr, (3,6)-cn, num edge types: 1
# Building blocks:
#     Node 0, Type 0, BuildingBlock: PAMTOO_clean_linker_0, # of connection points: 3
#     Node 1, Type 0, BuildingBlock: PAMTOO_clean_linker_0, # of connection points: 3
#     Node 2, Type 0, BuildingBlock: PAMTOO_clean_linker_0, # of connection points: 3
#     Node 3, Type 0, BuildingBlock: PAMTOO_clean_linker_0, # of connection points: 3
#     Node 4, Type 0, BuildingBlock: PAMTOO_clean_linker_0, # of connection points: 3
#     Node 5, Type 0, BuildingBlock: PAMTOO_clean_linker_0, # of connection points: 3
#     Node 6, Type 0, BuildingBlock: PAMTOO_clean_linker_0, # of connection points: 3
#     Node 7, Type 0, BuildingBlock: PAMTOO_clean_linker_0, # of connection points: 3
#     Node 8, Type 1, BuildingBlock: INOVEN_clean_sbu_0, # of connection points: 6
#     Node 9, Type 1, BuildingBlock: INOVEN_clean_sbu_0, # of connection points: 6
#     Node 10, Type 1, BuildingBlock: INOVEN_clean_sbu_0, # of connection points: 6
#     Node 11, Type 1, BuildingBlock: INOVEN_clean_sbu_0, # of connection points: 6
#     Edge 12, Type (0, 1), BuildingBlock: UVAHIK_clean_linker_0, # of connection points: 2
#     Edge 13, Type (0, 1), BuildingBlock: UVAHIK_clean_linker_0, # of connection points: 2
#     Edge 14, Type (0, 1), BuildingBlock: UVAHIK_clean_linker_0, # of connection points: 2
#     Edge 15, Type (0, 1), BuildingBlock: UVAHIK_clean_linker_0, # of connection points: 2
#     Edge 16, Type (0, 1), BuildingBlock: UVAHIK_clean_linker_0, # of connection points: 2
#     Edge 17, Type (0, 1), BuildingBlock: UVAHIK_clean_linker_0, # of connection points: 2
#     Edge 18, Type (0, 1), BuildingBlock: UVAHIK_clean_linker_0, # of connection points: 2
#     Edge 19, Type (0, 1), BuildingBlock: UVAHIK_clean_linker_0, # of connection points: 2
#     Edge 20, Type (0, 1), BuildingBlock: UVAHIK_clean_linker_0, # of connection points: 2
#     Edge 21, Type (0, 1), BuildingBlock: UVAHIK_clean_linker_0, # of connection points: 2
#     Edge 22, Type (0, 1), BuildingBlock: UVAHIK_clean_linker_0, # of connection points: 2
#     Edge 23, Type (0, 1), BuildingBlock: UVAHIK_clean_linker_0, # of connection points: 2
#     Edge 24, Type (0, 1), BuildingBlock: UVAHIK_clean_linker_0, # of connection points: 2
#     Edge 25, Type (0, 1), BuildingBlock: UVAHIK_clean_linker_0, # of connection points: 2
#     Edge 26, Type (0, 1), BuildingBlock: UVAHIK_clean_linker_0, # of connection points: 2
#     Edge 27, Type (0, 1), BuildingBlock: UVAHIK_clean_linker_0, # of connection points: 2
#     Edge 28, Type (0, 1), BuildingBlock: UVAHIK_clean_linker_0, # of connection points: 2
#     Edge 29, Type (0, 1), BuildingBlock: UVAHIK_clean_linker_0, # of connection points: 2
#     Edge 30, Type (0, 1), BuildingBlock: UVAHIK_clean_linker_0, # of connection points: 2
#     Edge 31, Type (0, 1), BuildingBlock: UVAHIK_clean_linker_0, # of connection points: 2
#     Edge 32, Type (0, 1), BuildingBlock: UVAHIK_clean_linker_0, # of connection points: 2
#     Edge 33, Type (0, 1), BuildingBlock: UVAHIK_clean_linker_0, # of connection points: 2
#     Edge 34, Type (0, 1), BuildingBlock: UVAHIK_clean_linker_0, # of connection points: 2
#     Edge 35, Type (0, 1), BuildingBlock: UVAHIK_clean_linker_0, # of connection points: 2
# Relax obj value: 0.133
# Max RMSD: 0.214
# Mean RMSD: 0.147
data_MOF--net-pyr--node1-INOVEN_clean_sbu_0--node2-PAMTOO_clean_linker_0--edge1-UVAHIK_clean_linker_0
_symmetry_space_group_name_H-M    P1
_symmetry_Int_Tables_number       1
_symmetry_cell_setting            triclinic
loop_
_symmetry_equiv_pos_as_xyz
'x, y, z'
_cell_length_a     49.304047
_cell_length_b     52.042436
_cell_length_c     46.075113
_cell_angle_alpha  91.676021
_cell_angle_beta   89.498502
_cell_angle_gamma 104.51367
loop_
_atom_site_label
_atom_site_type_symbol
_atom_site_fract_x
_atom_site_fract_y
_atom_site_fract_z
_atom_type_partial_charge
H0 H 0.29801 0.32233 0.24812 0.0
H1 H 0.33962 0.26001 0.26027 0.0
H2 H 0.34945 0.30096 0.18006 0.0
H3 H 0.33315 0.24149 0.17865 0.0
C4 C 0.34739 0.23815 0.196 0.0
O5 O 0.36127 0.26233 0.20834 0.0
H6 H 0.33455 0.22565 0.2128 0.0
C7 C 0.31224 0.31082 0.24031 0.0
C8 C 0.32353 0.31471 0.21216 0.0
C9 C 0.31779 0.29116 0.25791 0.0
C10 C 0.33572 0.27585 0.24746 0.0
C11 C 0.34682 0.27928 0.21936 0.0
C12 C 0.34096 0.29878 0.20187 0.0
H13 H 0.27163 0.87779 0.6781 0.0
H14 H 0.23674 0.8307 0.60239 0.0
H15 H 0.3158 0.82547 0.63623 0.0
H16 H 0.29671 0.83714 0.56719 0.0
C17 C 0.291 0.81519 0.56975 0.0
O18 O 0.27765 0.80811 0.59585 0.0
H19 H 0.27643 0.80652 0.55173 0.0
C20 C 0.27277 0.86345 0.66088 0.0
C21 C 0.29627 0.85289 0.65922 0.0
C22 C 0.25083 0.85544 0.64076 0.0
C23 C 0.25287 0.83671 0.61879 0.0
C24 C 0.27613 0.82595 0.61723 0.0
C25 C 0.29773 0.83377 0.63764 0.0
H26 H 0.72004 0.33278 0.91578 0.0
H27 H 0.65439 0.32719 0.85324 0.0
H28 H 0.72114 0.3979 0.85945 0.0
H29 H 0.66191 0.40257 0.85348 0.0
C30 C 0.65581 0.38811 0.83493 0.0
O31 O 0.67593 0.37392 0.83108 0.0
H32 H 0.63545 0.37422 0.84037 0.0
C33 C 0.71052 0.3418 0.89907 0.0
C34 C 0.72403 0.36746 0.88974 0.0
C35 C 0.68519 0.32711 0.88651 0.0
C36 C 0.67376 0.3381 0.86338 0.0
C37 C 0.68688 0.36355 0.85362 0.0
C38 C 0.71172 0.37814 0.86694 0.0
H39 H 0.85904 0.72839 0.42306 0.0
H40 H 0.85841 0.66484 0.36085 0.0
H41 H 0.92547 0.73565 0.36001 0.0
H42 H 0.90667 0.71321 0.30124 0.0
C43 C 0.89936 0.69185 0.30652 0.0
O44 O 0.90523 0.68866 0.3353 0.0
H45 H 0.8763 0.68574 0.30293 0.0
C46 C 0.86879 0.72013 0.40513 0.0
C47 C 0.89399 0.73529 0.39327 0.0
C48 C 0.85558 0.69472 0.39368 0.0
C49 C 0.86792 0.6845 0.36976 0.0
C50 C 0.89299 0.69928 0.35756 0.0
C51 C 0.90589 0.72461 0.36929 0.0
H52 H 0.70247 0.82942 0.8537 0.0
H53 H 0.6931 0.77829 0.92676 0.0
H54 H 0.7546 0.77476 0.86164 0.0
H55 H 0.7152 0.72428 0.88018 0.0
C56 C 0.72237 0.72787 0.90315 0.0
O57 O 0.73181 0.75468 0.90965 0.0
H58 H 0.70422 0.71932 0.91738 0.0
C59 C 0.70835 0.81365 0.86498 0.0
C60 C 0.73003 0.80303 0.85391 0.0
C61 C 0.69529 0.80528 0.89147 0.0
C62 C 0.70281 0.78485 0.90618 0.0
C63 C 0.72365 0.77346 0.89484 0.0
C64 C 0.73747 0.7828 0.86912 0.0
H65 H 0.79322 0.17449 0.41266 0.0
H66 H 0.75194 0.23283 0.44667 0.0
H67 H 0.81036 0.20717 0.49953 0.0
H68 H 0.80611 0.2692 0.48444 0.0
C69 C 0.79077 0.26259 0.50232 0.0
O70 O 0.77545 0.23672 0.49787 0.0
H71 H 0.80301 0.26401 0.5227 0.0
C72 C 0.79013 0.18801 0.42998 0.0
C73 C 0.80436 0.18881 0.45642 0.0
C74 C 0.77133 0.20397 0.42597 0.0
C75 C 0.76633 0.22036 0.44914 0.0
C76 C 0.78034 0.22115 0.47555 0.0
C77 C 0.79933 0.20566 0.47908 0.0
H78 H 0.36111 0.73803 0.1696 0.0
H79 H 0.3588 0.6774 0.2321 0.0
H80 H 0.42518 0.74866 0.23498 0.0
H81 H 0.44505 0.70269 0.24948 0.0
C82 C 0.42514 0.68897 0.25654 0.0
O83 O 0.40457 0.70276 0.25913 0.0
H84 H 0.41888 0.67294 0.23955 0.0
C85 C 0.36979 0.73088 0.18836 0.0
C86 C 0.3946 0.74666 0.20093 0.0
C87 C 0.35648 0.70578 0.19921 0.0
C88 C 0.36874 0.69639 0.22295 0.0
C89 C 0.39354 0.71175 0.23569 0.0
C90 C 0.40633 0.7368 0.22467 0.0
H91 H 0.13692 0.34652 0.76544 0.0
H92 H 0.20058 0.42043 0.76198 0.0
H93 H 0.20588 0.35565 0.70494 0.0
H94 H 0.25753 0.3858 0.73817 0.0
C95 C 0.25578 0.40603 0.73267 0.0
O96 O 0.22975 0.40444 0.72075 0.0
H97 H 0.25809 0.41824 0.75312 0.0
C98 C 0.1561 0.35848 0.75625 0.0
C99 C 0.17004 0.34749 0.73397 0.0
C100 C 0.16681 0.38493 0.76659 0.0
C101 C 0.19173 0.40021 0.7543 0.0
C102 C 0.20584 0.38949 0.73243 0.0
C103 C 0.19496 0.36336 0.72232 0.0
Gd104 Gd 0.0577 0.04957 0.53382 0.0
Gd105 Gd 0.02665 1.02978 0.58913 0.0
C106 C 0.06823 0.08877 0.59131 0.0
C107 C 0.08339 0.0737 0.48946 0.0
C108 C 0.10148 0.09965 0.48136 0.0
C109 C 0.12956 0.10107 0.47439 0.0
C110 C 0.0915 0.12262 0.47968 0.0
C111 C 0.13763 0.14784 0.464 0.0
C112 C 0.10946 0.14655 0.47092 0.0
C113 C 0.14744 0.12485 0.46597 0.0
C114 C 0.07763 1.01439 0.56321 0.0
C115 C 0.01444 0.99269 0.53124 0.0
C116 C 0.00895 1.01094 0.63878 0.0
C117 C 0.984 0.99141 0.64921 0.0
C118 C 0.95687 0.9926 0.64132 0.0
C119 C 0.98736 0.97102 0.667 0.0
C120 C 0.93682 0.95365 0.66957 0.0
C121 C 0.96397 0.95221 0.677 0.0
C122 C 0.93349 0.97396 0.65156 0.0
C123 C 0.99635 0.04823 0.55006 0.0
O124 O 0.0736 0.08572 0.56337 0.0
O125 O 0.05168 0.06958 0.60605 0.0
O126 O 0.09468 0.06039 0.50741 0.0
O127 O 0.05666 0.07153 0.4945 0.0
O128 O 0.07495 1.01353 0.53529 0.0
O129 O 0.0697 0.0336 0.57435 0.0
O130 O 0.01697 0.99302 0.55988 0.0
O131 O 0.02454 1.0144 0.51623 0.0
O132 O 0.00502 0.03329 0.62941 0.0
O133 O 0.02628 1.0013 0.62258 0.0
O134 O 0.98587 1.0283 0.56641 0.0
O135 O 0.02159 0.05823 0.5564 0.0
H136 H 0.1377 0.08359 0.47513 0.0
H137 H 0.0699 0.12208 0.48486 0.0
H138 H 0.10136 0.16398 0.46949 0.0
H139 H 0.16881 0.12501 0.46012 0.0
H140 H 0.95368 1.00792 0.62729 0.0
H141 H 0.0081 0.96971 0.67323 0.0
H142 H 0.96709 0.9369 0.69108 0.0
H143 H 0.91279 0.97535 0.6453 0.0
Gd144 Gd 0.56305 0.04526 0.06048 0.0
Gd145 Gd 0.51371 1.02664 1.02194 0.0
C146 C 0.51033 0.06631 0.0768 0.0
C147 C 0.61116 0.06652 0.0839 0.0
C148 C 0.62136 0.08534 0.10817 0.0
C149 C 0.60577 0.08464 0.13389 0.0
C150 C 0.64714 0.10407 0.10573 0.0
C151 C 0.64257 0.12021 0.15525 0.0
C152 C 0.65763 0.12143 0.129 0.0
C153 C 0.61634 0.10179 0.15726 0.0
C154 C 0.52433 1.00307 0.08092 0.0
C155 C 0.5655 1.00364 1.00658 0.0
C156 C 0.46575 1.00706 0.99739 0.0
C157 C 0.45643 0.99305 0.96981 0.0
C158 C 0.47539 0.99332 0.94686 0.0
C159 C 0.42829 0.97951 0.96623 0.0
C160 C 0.43768 0.96754 0.91632 0.0
C161 C 0.41898 0.96679 0.93973 0.0
C162 C 0.46608 0.98072 0.92029 0.0
C163 C 0.55272 0.06886 1.00172 0.0
O164 O 0.53782 0.07194 0.07893 0.0
O165 O 0.49655 0.04688 0.05936 0.0
O166 O 0.59557 0.04325 0.09078 0.0
O167 O 0.60185 0.07626 0.06128 0.0
O168 O 0.53804 1.02281 0.09715 0.0
O169 O 0.53225 1.00635 0.05485 0.0
O170 O 0.5384 1.00007 1.00269 0.0
O171 O 0.57963 1.02172 1.02534 0.0
O172 O 0.47963 1.03188 0.99547 0.0
O173 O 0.47681 0.99405 1.01588 0.0
O174 O 0.53912 0.04913 0.98546 0.0
O175 O 0.54446 0.06555 1.02766 0.0
H176 H 0.58563 0.0705 0.13615 0.0
H177 H 0.6593 0.10508 0.0859 0.0
H178 H 0.67763 0.13568 0.12647 0.0
H179 H 0.60431 0.10001 0.1772 0.0
H180 H 0.49729 1.00361 0.94939 0.0
H181 H 0.41348 0.97893 0.98386 0.0
H182 H 0.39709 0.9564 0.93758 0.0
H183 H 0.48097 0.98189 0.90266 0.0
Gd184 Gd 0.54618 0.52655 0.52902 0.0
Gd185 Gd 0.54912 0.57168 0.56987 0.0
C186 C 0.57084 0.52416 0.59432 0.0
C187 C 0.55574 0.48867 0.49614 0.0
C188 C 0.56932 0.46694 0.49949 0.0
C189 C 0.56158 0.44427 0.48134 0.0
C190 C 0.59001 0.46863 0.52065 0.0
C191 C 0.59592 0.42545 0.50474 0.0
C192 C 0.60318 0.44803 0.5233 0.0
C193 C 0.57482 0.42366 0.48388 0.0
C194 C 0.49799 0.52412 0.55865 0.0
C195 C 0.52384 0.57341 0.50443 0.0
C196 C 0.53972 0.60962 0.60289 0.0
C197 C 0.52736 0.63219 0.59949 0.0
C198 C 0.53363 0.65355 0.61959 0.0
C199 C 0.50906 0.63248 0.57645 0.0
C200 C 0.50256 0.67495 0.59423 0.0
C201 C 0.49683 0.65372 0.57378 0.0
C202 C 0.52125 0.67477 0.61706 0.0
C203 C 0.59757 0.57384 0.54087 0.0
O204 O 0.57012 0.51555 0.56693 0.0
O205 O 0.56077 0.54461 0.60182 0.0
O206 O 0.53242 0.48664 0.51056 0.0
O207 O 0.57226 0.51265 0.49743 0.0
O208 O 0.49906 0.5179 0.53128 0.0
O209 O 0.5224 0.53096 0.56908 0.0
O210 O 0.52535 0.58267 0.53163 0.0
O211 O 0.53356 0.55276 0.49708 0.0
O212 O 0.56347 0.61111 0.58945 0.0
O213 O 0.52243 0.58607 0.60041 0.0
O214 O 0.59611 0.57994 0.56823 0.0
O215 O 0.57329 0.56729 0.52997 0.0
H216 H 0.5455 0.44262 0.46502 0.0
H217 H 0.59634 0.48605 0.5348 0.0
H218 H 0.61963 0.45015 0.53929 0.0
H219 H 0.56863 0.40637 0.46949 0.0
H220 H 0.54782 0.65364 0.63745 0.0
H221 H 0.50376 0.61606 0.56088 0.0
H222 H 0.48215 0.65307 0.55625 0.0
H223 H 0.52613 0.69094 0.63303 0.0
Gd224 Gd 0.04253 0.50719 0.0619 0.0
Gd225 Gd 0.03737 0.56036 0.03349 0.0
C226 C 0.09475 0.56073 0.06617 0.0
C227 C 0.05837 0.46678 0.07988 0.0
C228 C 0.08503 0.45953 0.08443 0.0
C229 C 0.09008 0.44983 0.11139 0.0
C230 C 0.10555 0.46228 0.06256 0.0
C231 C 0.13565 0.44541 0.09464 0.0
C232 C 0.1306 0.45512 0.06759 0.0
C233 C 0.11517 0.44293 0.1165 0.0
C234 C 0.01402 0.53704 0.0927 0.0
C235 C 0.98816 0.50529 1.02332 0.0
C236 C 0.0206 0.60285 1.02638 0.0
C237 C 8e-05 0.61066 1.00786 0.0
C238 C 0.00184 0.63762 1.0039 0.0
C239 C 0.97736 0.59142 0.99605 0.0
C240 C 0.95705 0.62612 0.97868 0.0
C241 C 0.95596 0.59909 0.98169 0.0
C242 C 0.98053 0.64532 0.98928 0.0
C243 C 0.05806 0.52997 0.9939 0.0
O244 O 0.08629 0.53443 0.06716 0.0
O245 O 0.07857 0.57533 0.05623 0.0
O246 O 0.05349 0.48539 0.0974 0.0
O247 O 0.05087 0.46886 0.05299 0.0
O248 O 0.00728 0.51124 0.092 0.0
O249 O 0.03599 0.54554 0.07798 0.0
O250 O 0.99576 0.5316 1.02279 0.0
O251 O 0.00379 0.49108 0.03518 0.0
O252 O 0.04309 0.59872 1.01359 0.0
O253 O 0.00979 0.58503 0.0456 0.0
O254 O 0.05403 0.55309 0.98842 0.0
O255 O 0.05111 0.52509 1.0199 0.0
H256 H 0.07453 0.44753 0.12853 0.0
H257 H 0.10229 0.46995 0.04162 0.0
H258 H 0.14611 0.45739 0.05044 0.0
H259 H 0.11833 0.43517 0.13742 0.0
H260 H 0.0192 0.65272 1.01295 0.0
H261 H 0.97569 0.57049 0.99877 0.0
H262 H 0.93827 0.58388 0.97343 0.0
H263 H 0.98181 0.66629 0.98744 0.0
C264 C 0.27345 0.28287 0.28689 0.0
C265 C 0.30235 0.28463 0.28563 0.0
C266 C 0.25814 0.27457 0.31199 0.0
C267 C 0.2596 0.23393 0.37525 0.0
H268 H 0.19428 0.2586 0.39798 0.0
C269 C 0.18473 0.18003 0.46183 0.0
C270 C 0.15664 0.17228 0.45274 0.0
C271 C 0.20415 0.19963 0.44725 0.0
C272 C 0.2125 0.25157 0.39193 0.0
H273 H 0.33805 0.27996 0.31011 0.0
H274 H 0.31127 0.26552 0.35423 0.0
H275 H 0.22641 0.28241 0.36144 0.0
H276 H 0.12644 0.18033 0.42268 0.0
H277 H 0.16035 0.2146 0.39716 0.0
H278 H 0.24534 0.20268 0.40502 0.0
C279 C 0.30041 0.2703 0.33559 0.0
C280 C 0.23088 0.26515 0.37099 0.0
C281 C 0.31576 0.27857 0.31037 0.0
C282 C 0.1479 0.18599 0.43027 0.0
C283 C 0.16736 0.20563 0.41566 0.0
C284 C 0.24133 0.22046 0.39625 0.0
C285 C 0.27132 0.26779 0.33651 0.0
C286 C 0.25422 0.25603 0.36182 0.0
C287 C 0.19588 0.21192 0.4233 0.0
C288 C 0.2172 0.22872 0.4043 0.0
H289 H 0.26235 0.28686 0.26804 0.0
H290 H 0.23571 0.27233 0.31166 0.0
H291 H 0.2771 0.2261 0.36845 0.0
H292 H 0.19194 0.17011 0.47945 0.0
H293 H 0.22587 0.20443 0.454 0.0
C294 C 0.33537 0.88895 0.67857 0.0
C295 C 0.3193 0.86267 0.67996 0.0
C296 C 0.35399 0.89998 0.70086 0.0
C297 C 0.38703 0.88468 0.76875 0.0
H298 H 0.3814 0.95538 0.79199 0.0
C299 C 0.4432 0.94165 0.87055 0.0
C300 C 0.42735 0.95541 0.88763 0.0
C301 C 0.43343 0.93065 0.84338 0.0
C302 C 0.38313 0.93559 0.78589 0.0
H303 H 0.31055 0.82683 0.70462 0.0
H304 H 0.34251 0.84625 0.74427 0.0
H305 H 0.35926 0.93492 0.74742 0.0
H306 H 0.38898 0.96866 0.88932 0.0
H307 H 0.37161 0.94886 0.8426 0.0
H308 H 0.40971 0.885 0.80827 0.0
C309 C 0.34138 0.85824 0.72573 0.0
C310 C 0.3708 0.92398 0.76002 0.0
C311 C 0.32301 0.8471 0.70316 0.0
C312 C 0.40155 0.95789 0.87695 0.0
C313 C 0.39178 0.94686 0.84992 0.0
C314 C 0.39927 0.89629 0.79481 0.0
C315 C 0.35644 0.88509 0.72527 0.0
C316 C 0.3722 0.89822 0.7513 0.0
C317 C 0.40764 0.93323 0.83272 0.0
C318 C 0.39695 0.92168 0.80393 0.0
H319 H 0.33274 0.9012 0.66071 0.0
H320 H 0.36571 0.9205 0.69945 0.0
H321 H 0.3888 0.86494 0.76253 0.0
H322 H 0.46305 0.93919 0.87827 0.0
H323 H 0.44621 0.9204 0.83059 0.0
C324 C 0.64931 0.42889 0.80994 0.0
C325 C 0.6519 0.40261 0.80772 0.0
C326 C 0.64283 0.44172 0.78558 0.0
C327 C 0.61135 0.42813 0.71156 0.0
H328 H 0.64135 0.50398 0.70425 0.0
C329 C 0.58875 0.48564 0.61133 0.0
C330 C 0.58233 0.51016 0.61728 0.0
C331 C 0.59868 0.47223 0.63332 0.0
C332 C 0.63259 0.48281 0.70603 0.0
H333 H 0.64912 0.36902 0.77813 0.0
H334 H 0.63856 0.39156 0.73526 0.0
H335 H 0.65658 0.48131 0.74415 0.0
H336 H 0.58171 0.53978 0.65122 0.0
H337 H 0.59905 0.51658 0.68929 0.0
H338 H 0.58744 0.42977 0.67325 0.0
C339 C 0.64138 0.40231 0.75594 0.0
C340 C 0.6413 0.46975 0.72903 0.0
C341 C 0.64778 0.38943 0.78043 0.0
C342 C 0.58642 0.52099 0.64573 0.0
C343 C 0.59656 0.50772 0.6676 0.0
C344 C 0.60277 0.4412 0.68841 0.0
C345 C 0.63861 0.42863 0.75817 0.0
C346 C 0.63056 0.44224 0.73244 0.0
C347 C 0.60274 0.48309 0.6618 0.0
C348 C 0.613 0.4688 0.68552 0.0
H349 H 0.6517 0.43941 0.83077 0.0
H350 H 0.64032 0.4617 0.78853 0.0
H351 H 0.60223 0.40704 0.71352 0.0
H352 H 0.58581 0.47661 0.58974 0.0
H353 H 0.60342 0.45343 0.62795 0.0
C354 C 0.9374 0.68705 0.27071 0.0
C355 C 0.91321 0.67523 0.28654 0.0
C356 C 0.94879 0.67207 0.25037 0.0
C357 C 0.92934 0.60975 0.20509 0.0
H358 H 0.0095 0.62291 0.19301 0.0
C359 C 0.97821 0.54169 0.13016 0.0
C360 C 0.00169 0.55351 0.11333 0.0
C361 C 0.96742 0.55669 0.15095 0.0
C362 C 0.98703 0.61918 0.1958 0.0
H363 H 0.88281 0.63825 0.29455 0.0
H364 H 0.90284 0.61188 0.25941 0.0
H365 H 0.99143 0.64807 0.2307 0.0
H366 H 0.03206 0.59051 0.10489 0.0
H367 H 0.01308 0.61684 0.14091 0.0
H368 H 0.92494 0.58086 0.17023 0.0
C369 C 0.91269 0.63288 0.26211 0.0
C370 C 0.97663 0.63363 0.21752 0.0
C371 C 0.90132 0.64789 0.28244 0.0
C372 C 0.01391 0.58081 0.11748 0.0
C373 C 0.00316 0.59585 0.13834 0.0
C374 C 0.93974 0.5953 0.18341 0.0
C375 C 0.93637 0.64482 0.24543 0.0
C376 C 0.94761 0.62913 0.22253 0.0
C377 C 0.97985 0.58397 0.15554 0.0
C378 C 0.96875 0.59976 0.17842 0.0
H379 H 0.94708 0.70808 0.2735 0.0
H380 H 0.96687 0.68209 0.2379 0.0
H381 H 0.90687 0.60603 0.20781 0.0
H382 H 0.96836 0.52067 0.12757 0.0
H383 H 0.9497 0.54671 0.16392 0.0
C384 C 0.35953 0.2063 0.15918 0.0
C385 C 0.36759 0.22335 0.18343 0.0
C386 C 0.37679 0.19064 0.14852 0.0
C387 C 0.435 0.16183 0.16979 0.0
H388 H 0.43804 0.1479 0.08683 0.0
C389 C 0.50785 0.1025 0.11329 0.0
C390 C 0.49464 0.08327 0.0924 0.0
C391 C 0.49351 0.12005 0.12597 0.0
C392 C 0.43728 0.15153 0.11006 0.0
H393 H 0.39953 0.23659 0.21639 0.0
H394 H 0.43032 0.2099 0.19715 0.0
H395 H 0.41196 0.17894 0.10525 0.0
H396 H 0.45577 0.06697 0.06907 0.0
H397 H 0.43103 0.0977 0.09095 0.0
H398 H 0.4608 0.13451 0.17429 0.0
C399 C 0.41058 0.20857 0.18636 0.0
C400 C 0.42227 0.16925 0.12066 0.0
C401 C 0.39314 0.22412 0.19718 0.0
C402 C 0.46661 0.08152 0.08505 0.0
C403 C 0.45246 0.09923 0.09742 0.0
C404 C 0.45033 0.14429 0.1591 0.0
C405 C 0.40257 0.19156 0.16191 0.0
C406 C 0.42047 0.17427 0.15069 0.0
C407 C 0.46588 0.11891 0.11766 0.0
C408 C 0.45117 0.13863 0.12917 0.0
H409 H 0.33957 0.20475 0.14872 0.0
H410 H 0.36952 0.17729 0.13016 0.0
H411 H 0.43385 0.16497 0.19305 0.0
H412 H 0.52941 0.10431 0.11947 0.0
H413 H 0.50432 0.13507 0.14152 0.0
C414 C 0.19947 0.852 0.6343 0.0
C415 C 0.22638 0.86731 0.64192 0.0
C416 C 0.1771 0.86381 0.63251 0.0
C417 C 0.15111 0.92183 0.65265 0.0
H418 H 0.12374 0.91656 0.57358 0.0
C419 C 0.10282 1.00064 0.60413 0.0
C420 C 0.0858 0.99386 0.57953 0.0
C421 C 0.11395 0.98154 0.61697 0.0
C422 C 0.13028 0.91778 0.59604 0.0
H423 H 0.25044 0.90691 0.65488 0.0
H424 H 0.21111 0.92721 0.65253 0.0
H425 H 0.15395 0.88906 0.58798 0.0
H426 H 0.06439 0.96177 0.5507 0.0
H427 H 0.08201 0.92795 0.57422 0.0
H428 H 0.12745 0.95056 0.66084 0.0
C429 C 0.20749 0.90607 0.64799 0.0
C430 C 0.1478 0.90204 0.60419 0.0
C431 C 0.22999 0.89439 0.64932 0.0
C432 C 0.07806 0.96744 0.56934 0.0
C433 C 0.08835 0.94817 0.58273 0.0
C434 C 0.133 0.93722 0.64469 0.0
C435 C 0.18108 0.89102 0.63884 0.0
C436 C 0.15897 0.90447 0.63227 0.0
C437 C 0.10752 0.95518 0.60585 0.0
C438 C 0.12303 0.93599 0.61599 0.0
H439 H 0.19578 0.83098 0.62915 0.0
H440 H 0.15682 0.85186 0.62547 0.0
H441 H 0.15948 0.9239 0.6745 0.0
H442 H 0.1089 1.02101 0.6123 0.0
H443 H 0.12878 0.9879 0.63451 0.0
C444 C 0.75657 0.37937 0.93313 0.0
C445 C 0.75096 0.38276 0.90368 0.0
C446 C 0.78212 0.39269 0.94585 0.0
C447 C 0.83889 0.45206 0.94358 0.0
H448 H 0.88509 0.41074 0.97784 0.0
C449 C 0.95005 0.50271 0.98678 0.0
C450 C 0.96103 0.4913 1.00975 0.0
C451 C 0.92464 0.48952 0.97366 0.0
C452 C 0.87236 0.42279 0.96898 0.0
H453 H 0.76859 0.40357 0.86493 0.0
H454 H 0.81239 0.4278 0.88776 0.0
H455 H 0.84019 0.38828 0.9562 0.0
H456 H 0.95363 0.45731 0.03738 0.0
H457 H 0.9087 0.43495 1.01581 0.0
H458 H 0.86999 0.48663 0.95738 0.0
C459 C 0.79691 0.4144 0.90068 0.0
C460 C 0.84665 0.40977 0.95632 0.0
C461 C 0.7716 0.40059 0.8877 0.0
C462 C 0.94585 0.46651 1.01953 0.0
C463 C 0.92008 0.45358 1.00689 0.0
C464 C 0.86427 0.46515 0.95686 0.0
C465 C 0.80254 0.41033 0.92978 0.0
C466 C 0.82974 0.42425 0.94335 0.0
C467 C 0.90905 0.46477 0.98357 0.0
C468 C 0.88159 0.45076 0.96968 0.0
H469 H 0.74116 0.36654 0.94661 0.0
H470 H 0.7858 0.38944 0.96844 0.0
H471 H 0.8261 0.46371 0.93397 0.0
H472 H 0.9614 0.52165 0.97848 0.0
H473 H 0.91755 0.4987 0.95541 0.0
C474 C 0.80651 0.66502 0.3898 0.0
C475 C 0.82914 0.67894 0.40709 0.0
C476 C 0.7814 0.65103 0.4026 0.0
C477 C 0.75179 0.62117 0.47187 0.0
H478 H 0.68098 0.6283 0.44167 0.0
C479 C 0.64946 0.59217 0.5383 0.0
C480 C 0.62395 0.58155 0.52389 0.0
C481 C 0.67427 0.60141 0.52265 0.0
C482 C 0.70049 0.62568 0.45014 0.0
H483 H 0.84325 0.68834 0.45147 0.0
H484 H 0.79962 0.66418 0.47369 0.0
H485 H 0.72456 0.64924 0.41693 0.0
H486 H 0.60457 0.57161 0.48168 0.0
H487 H 0.64805 0.58742 0.45418 0.0
H488 H 0.7279 0.59774 0.50512 0.0
C489 C 0.80121 0.66399 0.45023 0.0
C490 C 0.72554 0.63777 0.43595 0.0
C491 C 0.82617 0.67811 0.43747 0.0
C492 C 0.62391 0.57976 0.49339 0.0
C493 C 0.64881 0.58902 0.47766 0.0
C494 C 0.72679 0.60901 0.48597 0.0
C495 C 0.77841 0.65038 0.43301 0.0
C496 C 0.75156 0.63602 0.44688 0.0
C497 C 0.67433 0.60022 0.49209 0.0
C498 C 0.70078 0.61143 0.47561 0.0
H499 H 0.808 0.66536 0.36634 0.0
H500 H 0.76436 0.64061 0.38866 0.0
H501 H 0.77137 0.61895 0.4806 0.0
H502 H 0.65021 0.59387 0.56179 0.0
H503 H 0.69329 0.61023 0.53461 0.0
C504 C 0.31081 0.35773 0.20416 0.0
C505 C 0.31449 0.33343 0.1929 0.0
C506 C 0.29767 0.37321 0.18771 0.0
C507 C 0.24635 0.36453 0.12855 0.0
H508 H 0.25902 0.44085 0.13866 0.0
C509 C 0.17152 0.42084 0.0798 0.0
C510 C 0.16183 0.43721 0.10005 0.0
C511 C 0.19463 0.411 0.08622 0.0
C512 C 0.25531 0.41953 0.13557 0.0
H513 H 0.30899 0.3073 0.15468 0.0
H514 H 0.28701 0.33479 0.1256 0.0
H515 H 0.29292 0.41867 0.15795 0.0
H516 H 0.16957 0.45728 0.14216 0.0
H517 H 0.20986 0.44007 0.15342 0.0
H518 H 0.20849 0.36534 0.1067 0.0
C519 C 0.29362 0.34154 0.14747 0.0
C520 C 0.27466 0.40681 0.14667 0.0
C521 C 0.30658 0.32594 0.16403 0.0
C522 C 0.17643 0.44448 0.12628 0.0
C523 C 0.19966 0.43485 0.13258 0.0
C524 C 0.22715 0.37727 0.11726 0.0
C525 C 0.2881 0.36489 0.15947 0.0
C526 C 0.27003 0.37904 0.14397 0.0
C527 C 0.20866 0.41757 0.11288 0.0
C528 C 0.23105 0.40481 0.1213 0.0
H529 H 0.3171 0.36429 0.22617 0.0
H530 H 0.29367 0.39095 0.19781 0.0
H531 H 0.24177 0.34309 0.12644 0.0
H532 H 0.16058 0.41482 0.05946 0.0
H533 H 0.20122 0.39784 0.07056 0.0
C534 C 0.65901 0.27884 0.8791 0.0
C535 C 0.67089 0.30044 0.89794 0.0
C536 C 0.64649 0.25372 0.89009 0.0
C537 C 0.61557 0.22022 0.95735 0.0
H538 H 0.62907 0.15719 0.91928 0.0
C539 C 0.57904 0.11674 1.0088 0.0
C540 C 0.5684 0.09476 0.99011 0.0
C541 C 0.59222 0.14158 0.99761 0.0
C542 C 0.62475 0.1745 0.93005 0.0
H543 H 0.67808 0.31249 0.94325 0.0
H544 H 0.65656 0.2689 0.96228 0.0
H545 H 0.6496 0.20069 0.89937 0.0
H546 H 0.56368 0.08155 0.945 0.0
H547 H 0.58617 0.12475 0.92546 0.0
H548 H 0.59054 0.19414 0.98786 0.0
C549 C 0.65684 0.27129 0.939 0.0
C550 C 0.63657 0.19953 0.91858 0.0
C551 C 0.66948 0.2963 0.92804 0.0
C552 C 0.57171 0.09807 0.96001 0.0
C553 C 0.58479 0.12289 0.9488 0.0
C554 C 0.60366 0.19521 0.96874 0.0
C555 C 0.64527 0.24958 0.92021 0.0
C556 C 0.63221 0.22278 0.93209 0.0
C557 C 0.59504 0.14513 0.9674 0.0
C558 C 0.60808 0.17192 0.95533 0.0
H559 H 0.65983 0.28121 0.85582 0.0
H560 H 0.63756 0.23757 0.87494 0.0
H561 H 0.61136 0.23759 0.96814 0.0
H562 H 0.57688 0.11485 0.03211 0.0
H563 H 0.60024 0.15801 1.01271 0.0
C564 C 0.91942 0.78376 0.38876 0.0
C565 C 0.9077 0.76205 0.40631 0.0
C566 C 0.93099 0.80907 0.40122 0.0
C567 C 0.92985 0.84886 0.46974 0.0
H568 H 0.99665 0.89578 0.43813 0.0
C569 C 0.99 0.94408 0.53168 0.0
C570 C 0.00118 0.96706 0.51583 0.0
C571 C 0.97828 0.91971 0.51748 0.0
C572 C 0.97778 0.88308 0.44705 0.0
H573 H 0.90021 0.74994 0.45091 0.0
H574 H 0.92044 0.79369 0.47251 0.0
H575 H 0.97748 0.85221 0.41507 0.0
H576 H 0.0086 0.98219 0.47235 0.0
H577 H 0.98802 0.93965 0.44756 0.0
H578 H 0.93023 0.87957 0.50182 0.0
C579 C 0.92007 0.79145 0.44906 0.0
C580 C 0.96675 0.85802 0.4338 0.0
C581 C 0.90848 0.76625 0.43664 0.0
C582 C 0.0002 0.96497 0.48531 0.0
C583 C 0.98855 0.94049 0.47107 0.0
C584 C 0.9409 0.87383 0.483 0.0
C585 C 0.93123 0.81335 0.43158 0.0
C586 C 0.94273 0.84043 0.44509 0.0
C587 C 0.97743 0.9175 0.48697 0.0
C588 C 0.96514 0.89125 0.47201 0.0
H589 H 0.91899 0.78136 0.36533 0.0
H590 H 0.93912 0.82542 0.38698 0.0
H591 H 0.91098 0.83623 0.47875 0.0
H592 H 0.99045 0.9448 0.5552 0.0
H593 H 0.97033 0.90244 0.53051 0.0
C594 C 0.31326 0.77715 0.56305 0.0
C595 C 0.31646 0.80443 0.56813 0.0
C596 C 0.33617 0.76618 0.56538 0.0
C597 C 0.41257 0.7804 0.56514 0.0
H598 H 0.39986 0.71796 0.61237 0.0
C599 C 0.48328 0.7068 0.56598 0.0
C600 C 0.48741 0.6961 0.59276 0.0
C601 C 0.46578 0.72403 0.56407 0.0
C602 C 0.40384 0.73556 0.59941 0.0
H603 H 0.34578 0.84177 0.57957 0.0
H604 H 0.38626 0.82257 0.58318 0.0
H605 H 0.36212 0.73971 0.60554 0.0
H606 H 0.47757 0.696 0.63874 0.0
H607 H 0.44711 0.7262 0.6354 0.0
H608 H 0.45429 0.77585 0.55869 0.0
C609 C 0.36607 0.80978 0.57711 0.0
C610 C 0.38215 0.7478 0.59522 0.0
C611 C 0.34303 0.82073 0.57501 0.0
C612 C 0.4749 0.70404 0.61783 0.0
C613 C 0.4573 0.72113 0.61589 0.0
C614 C 0.43427 0.76793 0.56908 0.0
C615 C 0.36267 0.78232 0.57288 0.0
C616 C 0.38621 0.77015 0.57784 0.0
C617 C 0.45198 0.73071 0.58889 0.0
C618 C 0.43001 0.74531 0.58614 0.0
H619 H 0.29283 0.76423 0.55813 0.0
H620 H 0.33308 0.74497 0.56181 0.0
H621 H 0.41615 0.79762 0.55163 0.0
H622 H 0.49293 0.70122 0.54637 0.0
H623 H 0.46194 0.73103 0.54296 0.0
C624 C 0.75751 0.79871 0.80836 0.0
C625 C 0.74645 0.81464 0.82808 0.0
C626 C 0.77488 0.81018 0.78557 0.0
C627 C 0.79533 0.86983 0.74178 0.0
H628 H 0.86944 0.85692 0.74052 0.0
C629 C 0.89011 0.94385 0.69409 0.0
C630 C 0.91202 0.93461 0.68148 0.0
C631 C 0.8675 0.92624 0.707 0.0
C632 C 0.84868 0.86036 0.73999 0.0
H633 H 0.74506 0.85524 0.8389 0.0
H634 H 0.77432 0.87486 0.7987 0.0
H635 H 0.83321 0.83069 0.77147 0.0
H636 H 0.927 0.89964 0.67137 0.0
H637 H 0.88712 0.86865 0.69339 0.0
H638 H 0.81068 0.89963 0.71058 0.0
C639 C 0.76941 0.85351 0.80084 0.0
C640 C 0.82796 0.84533 0.7578 0.0
C641 C 0.75249 0.84217 0.82384 0.0
C642 C 0.91051 0.9073 0.68128 0.0
C643 C 0.88771 0.8896 0.69394 0.0
C644 C 0.81591 0.88462 0.72369 0.0
C645 C 0.78111 0.83771 0.78177 0.0
C646 C 0.80137 0.85049 0.75948 0.0
C647 C 0.86611 0.89891 0.70735 0.0
C648 C 0.84312 0.88065 0.72327 0.0
H649 H 0.75299 0.77741 0.81067 0.0
H650 H 0.78361 0.79759 0.77103 0.0
H651 H 0.77484 0.87394 0.74249 0.0
H652 H 0.89093 0.96486 0.69486 0.0
H653 H 0.85161 0.93426 0.71762 0.0
C654 C 0.7285 0.20314 0.39628 0.0
C655 C 0.757 0.20324 0.39762 0.0
C656 C 0.71474 0.20057 0.36954 0.0
C657 C 0.72733 0.20293 0.28954 0.0
H658 H 0.65497 0.15195 0.28608 0.0
C659 C 0.68356 0.14168 0.18703 0.0
C660 C 0.65479 0.13694 0.18096 0.0
C661 C 0.69473 0.15535 0.21245 0.0
C662 C 0.67492 0.16661 0.28674 0.0
H663 H 0.79375 0.20221 0.37181 0.0
H664 H 0.76967 0.19677 0.32547 0.0
H665 H 0.6769 0.16588 0.333 0.0
H666 H 0.61551 0.14415 0.19631 0.0
H667 H 0.63502 0.16742 0.24116 0.0
H668 H 0.72584 0.2025 0.24306 0.0
C669 C 0.75791 0.19901 0.34493 0.0
C670 C 0.6875 0.17466 0.31365 0.0
C671 C 0.77165 0.2017 0.37159 0.0
C672 C 0.63765 0.14698 0.20055 0.0
C673 C 0.6488 0.16042 0.22616 0.0
C674 C 0.71485 0.19469 0.26263 0.0
C675 C 0.72919 0.19801 0.34357 0.0
C676 C 0.71418 0.19241 0.31534 0.0
C677 C 0.67738 0.16439 0.23253 0.0
C678 C 0.68883 0.17598 0.26095 0.0
H679 H 0.71658 0.20421 0.41594 0.0
H680 H 0.69269 0.20021 0.36924 0.0
H681 H 0.74761 0.21707 0.29009 0.0
H682 H 0.69733 0.13389 0.17277 0.0
H683 H 0.71676 0.15778 0.21701 0.0
C684 C 0.43646 0.69317 0.3106 0.0
C685 C 0.43032 0.67723 0.28516 0.0
C686 C 0.44404 0.68275 0.33626 0.0
C687 C 0.44403 0.61836 0.37095 0.0
H688 H 0.50291 0.66213 0.41906 0.0
C689 C 0.50466 0.57341 0.4541 0.0
C690 C 0.51112 0.58626 0.4814 0.0
C691 C 0.49302 0.58518 0.43206 0.0
C692 C 0.48619 0.64972 0.40609 0.0
H693 H 0.42791 0.63802 0.26661 0.0
H694 H 0.44132 0.61997 0.31085 0.0
H695 H 0.4857 0.68127 0.37735 0.0
H696 H 0.5104 0.6219 0.50664 0.0
H697 H 0.49018 0.6426 0.46795 0.0
H698 H 0.44504 0.58666 0.39924 0.0
C699 C 0.43957 0.64031 0.3115 0.0
C700 C 0.47623 0.66072 0.38212 0.0
C701 C 0.43194 0.65068 0.28598 0.0
C702 C 0.5056 0.61134 0.48599 0.0
C703 C 0.49417 0.62329 0.46372 0.0
C704 C 0.45411 0.60736 0.39473 0.0
C705 C 0.44593 0.65618 0.33705 0.0
C706 C 0.45526 0.6451 0.3639 0.0
C707 C 0.48764 0.6103 0.43646 0.0
C708 C 0.4756 0.62275 0.41241 0.0
H709 H 0.43583 0.71382 0.31049 0.0
H710 H 0.4485 0.6956 0.35545 0.0
H711 H 0.42742 0.60578 0.358 0.0
H712 H 0.50856 0.5541 0.44966 0.0
H713 H 0.48866 0.57472 0.41128 0.0
C714 C 0.14238 0.38309 0.81541 0.0
C715 C 0.15233 0.39695 0.7901 0.0
C716 C 0.13054 0.39531 0.83815 0.0
C717 C 0.09802 0.45145 0.85422 0.0
H718 H 0.11984 0.44529 0.93385 0.0
C719 C 0.07616 0.52248 0.94445 0.0
C720 C 0.06847 0.51286 0.97229 0.0
C721 C 0.08523 0.50675 0.9232 0.0
C722 C 0.11317 0.44696 0.91181 0.0
H723 H 0.1567 0.43429 0.76864 0.0
H724 H 0.13619 0.45544 0.80799 0.0
H725 H 0.13692 0.42042 0.89491 0.0
H726 H 0.06457 0.47909 0.99967 0.0
H727 H 0.0802 0.45127 0.96244 0.0
H728 H 0.0743 0.47786 0.87084 0.0
C729 C 0.13749 0.43514 0.81041 0.0
C730 C 0.123 0.43267 0.88943 0.0
C731 C 0.14951 0.42307 0.78788 0.0
C732 C 0.07039 0.48709 0.97849 0.0
C733 C 0.07946 0.4712 0.95711 0.0
C734 C 0.08812 0.46559 0.87652 0.0
C735 C 0.128 0.42156 0.83599 0.0
C736 C 0.11594 0.43508 0.86024 0.0
C737 C 0.08678 0.48075 0.92901 0.0
C738 C 0.09592 0.46399 0.90563 0.0
H739 H 0.14438 0.36303 0.81795 0.0
H740 H 0.12327 0.38414 0.8574 0.0
H741 H 0.09161 0.4534 0.83214 0.0
H742 H 0.07513 0.54231 0.93895 0.0
H743 H 0.09126 0.51517 0.90219 0.0
C744 C 0.68256 0.83174 0.93304 0.0
C745 C 0.67657 0.82039 0.9051 0.0
C746 C 0.66837 0.85 0.94409 0.0
C747 C 0.62856 0.8967 0.91842 0.0
H748 H 0.61578 0.90593 1.00078 0.0
C749 C 0.56708 0.9692 0.96801 0.0
C750 C 0.57967 0.98495 0.99194 0.0
C751 C 0.5786 0.94918 0.9564 0.0
C752 C 0.61942 0.90365 0.97774 0.0
H753 H 0.64996 0.81784 0.86746 0.0
H754 H 0.62422 0.84887 0.88717 0.0
H755 H 0.63365 0.86858 0.9835 0.0
H756 H 0.61461 0.99254 1.02197 0.0
H757 H 0.63451 0.95731 1.00186 0.0
H758 H 0.61364 0.93156 0.91282 0.0
C759 C 0.64054 0.84444 0.90023 0.0
C760 C 0.62969 0.88228 0.9678 0.0
C761 C 0.65504 0.82646 0.88903 0.0
C762 C 0.60449 0.98083 1.00346 0.0
C763 C 0.61574 0.96053 0.99214 0.0
C764 C 0.61788 0.91783 0.92835 0.0
C765 C 0.64761 0.85707 0.92755 0.0
C766 C 0.63472 0.87868 0.93802 0.0
C767 C 0.60267 0.94428 0.9688 0.0
C768 C 0.61353 0.92167 0.95812 0.0
H769 H 0.69937 0.82769 0.94569 0.0
H770 H 0.67472 0.85951 0.96501 0.0
H771 H 0.63266 0.89496 0.89542 0.0
H772 H 0.54795 0.97193 0.95864 0.0
H773 H 0.56811 0.93688 0.93843 0.0
C774 C 0.82687 0.16129 0.48754 0.0
C775 C 0.82458 0.17233 0.46044 0.0
C776 C 0.84716 0.14744 0.4921 0.0
C777 C 0.88816 0.10667 0.4607 0.0
H778 H 0.94194 0.13579 0.5216 0.0
C779 C 0.95161 0.04821 0.52543 0.0
C780 C 0.97972 0.06082 0.53141 0.0
C781 C 0.93492 0.06144 0.51047 0.0
C782 C 0.92732 0.12763 0.50427 0.0
H783 H 0.84143 0.17664 0.4166 0.0
H784 H 0.87623 0.15128 0.42448 0.0
H785 H 0.90724 0.15959 0.50818 0.0
H786 H 0.01305 0.09635 0.5251 0.0
H787 H 0.98362 0.11973 0.49947 0.0
H788 H 0.90744 0.07398 0.45785 0.0
C789 C 0.86237 0.15383 0.4421 0.0
C790 C 0.90744 0.14112 0.49678 0.0
C791 C 0.84237 0.16818 0.43764 0.0
C792 C 0.99134 0.08629 0.52093 0.0
C793 C 0.97457 0.09964 0.5063 0.0
C794 C 0.90779 0.09286 0.46859 0.0
C795 C 0.86517 0.14384 0.46952 0.0
C796 C 0.88753 0.13056 0.47526 0.0
C797 C 0.94608 0.08755 0.50158 0.0
C798 C 0.92731 0.10314 0.49067 0.0
H799 H 0.81308 0.16346 0.50537 0.0
H800 H 0.84886 0.13956 0.51333 0.0
H801 H 0.87284 0.09824 0.44408 0.0
H802 H 0.94229 1.02847 0.53314 0.0
H803 H 0.91294 0.05181 0.50725 0.0
C804 C 0.30933 0.70224 0.17622 0.0
C805 C 0.32967 0.68973 0.18594 0.0
C806 C 0.28439 0.68749 0.16344 0.0
C807 C 0.25134 0.62184 0.12796 0.0
H808 H 0.18289 0.64394 0.14256 0.0
C809 C 0.14109 0.56021 0.08896 0.0
C810 C 0.12281 0.57456 0.07816 0.0
C811 C 0.16671 0.57346 0.10181 0.0
C812 C 0.20185 0.63761 0.13798 0.0
H813 H 0.33934 0.65153 0.1896 0.0
H814 H 0.29553 0.62573 0.16806 0.0
H815 H 0.22618 0.66808 0.16601 0.0
H816 H 0.11772 0.61429 0.07203 0.0
H817 H 0.16213 0.63716 0.09419 0.0
H818 H 0.22671 0.59115 0.10008 0.0
C819 C 0.2991 0.6471 0.16992 0.0
C820 C 0.22678 0.65153 0.15144 0.0
C821 C 0.32414 0.66191 0.18266 0.0
C822 C 0.1311 0.60248 0.08012 0.0
C823 C 0.15656 0.61566 0.09307 0.0
C824 C 0.2263 0.6078 0.11459 0.0
C825 C 0.27883 0.65967 0.1601 0.0
C826 C 0.25201 0.64405 0.14645 0.0
C827 C 0.17462 0.60137 0.10438 0.0
C828 C 0.20126 0.61567 0.1192 0.0
H829 H 0.31251 0.72355 0.17868 0.0
H830 H 0.2696 0.69803 0.15585 0.0
H831 H 0.27032 0.61561 0.12324 0.0
H832 H 0.13547 0.53871 0.08789 0.0
H833 H 0.17999 0.56178 0.11041 0.0
C834 C 0.29921 0.40538 0.70315 0.0
C835 C 0.27895 0.41876 0.712 0.0
C836 C 0.32207 0.41796 0.68612 0.0
C837 C 0.34807 0.47421 0.63722 0.0
H838 H 0.42089 0.46417 0.65721 0.0
C839 C 0.44609 0.50553 0.56306 0.0
C840 C 0.4722 0.51596 0.57644 0.0
C841 C 0.42206 0.49561 0.57976 0.0
C842 C 0.40078 0.46741 0.65146 0.0
H843 H 0.26658 0.45569 0.70977 0.0
H844 H 0.30651 0.47779 0.67978 0.0
H845 H 0.37984 0.44284 0.68547 0.0
H846 H 0.49342 0.52503 0.61785 0.0
H847 H 0.45149 0.50778 0.64705 0.0
H848 H 0.36915 0.49891 0.60324 0.0
C849 C 0.30461 0.45746 0.68581 0.0
C850 C 0.37714 0.45488 0.66747 0.0
C851 C 0.28177 0.44487 0.70299 0.0
C852 C 0.47362 0.51701 0.60691 0.0
C853 C 0.44961 0.50696 0.62362 0.0
C854 C 0.37173 0.48663 0.62107 0.0
C855 C 0.32527 0.44428 0.67749 0.0
C856 C 0.35044 0.458 0.66051 0.0
C857 C 0.42358 0.49577 0.61026 0.0
C858 C 0.39841 0.48334 0.62794 0.0
H859 H 0.29764 0.38527 0.70981 0.0
H860 H 0.33731 0.40706 0.67976 0.0
H861 H 0.32783 0.47695 0.63115 0.0
H862 H 0.44433 0.50448 0.53962 0.0
H863 H 0.40246 0.48698 0.56871 0.0
C864 C 0.74423 0.6956 0.92864 0.0
C865 C 0.74596 0.7148 0.90745 0.0
C866 C 0.7668 0.68444 0.93325 0.0
C867 C 0.84286 0.69912 0.92621 0.0
H868 H 0.83264 0.62347 0.93526 0.0
C869 C 0.93688 0.65466 0.94634 0.0
C870 C 0.93287 0.63428 0.96645 0.0
C871 C 0.91405 0.66321 0.9362 0.0
C872 C 0.83585 0.64468 0.93311 0.0
H873 H 0.77214 0.73697 0.87409 0.0
H874 H 0.81184 0.71782 0.88245 0.0
H875 H 0.79248 0.64074 0.92362 0.0
H876 H 0.90192 0.60695 0.99182 0.0
H877 H 0.86226 0.62221 0.9748 0.0
H878 H 0.88591 0.70336 0.93667 0.0
C879 C 0.7931 0.71145 0.89551 0.0
C880 C 0.81284 0.65452 0.92635 0.0
C881 C 0.77043 0.72235 0.89068 0.0
C882 C 0.90559 0.62242 0.97596 0.0
C883 C 0.88283 0.63115 0.9661 0.0
C884 C 0.86581 0.68934 0.93331 0.0
C885 C 0.79158 0.69251 0.91696 0.0
C886 C 0.8161 0.68186 0.923 0.0
C887 C 0.88675 0.6518 0.94625 0.0
C888 C 0.86259 0.662 0.93706 0.0
H889 H 0.72558 0.68947 0.94185 0.0
H890 H 0.76516 0.67003 0.95008 0.0
H891 H 0.84591 0.72034 0.92408 0.0
H892 H 0.95769 0.66397 0.93845 0.0
H893 H 0.91784 0.67882 0.92052 0.0
C894 C 0.39133 0.79064 0.18157 0.0
C895 C 0.4079 0.77345 0.18927 0.0
C896 C 0.40355 0.81552 0.17007 0.0
C897 C 0.46687 0.85318 0.13193 0.0
H898 H 0.44087 0.91471 0.15692 0.0
C899 C 0.50248 0.97487 0.12239 0.0
C900 C 0.50883 0.97718 0.09264 0.0
C901 C 0.48945 0.95017 0.13391 0.0
C902 C 0.44847 0.89777 0.14975 0.0
H903 H 0.45046 0.76918 0.19076 0.0
H904 H 0.47182 0.81265 0.17072 0.0
H905 H 0.42035 0.87167 0.17807 0.0
H906 H 0.50607 0.95539 0.05153 0.0
H907 H 0.48339 0.91224 0.07161 0.0
H908 H 0.49512 0.87934 0.10373 0.0
C909 C 0.44929 0.80677 0.1735 0.0
C910 C 0.43652 0.87301 0.16171 0.0
C911 C 0.43708 0.78194 0.18526 0.0
C912 C 0.50147 0.95427 0.07456 0.0
C913 C 0.48865 0.9295 0.08612 0.0
C914 C 0.47866 0.87791 0.11977 0.0
C915 C 0.43269 0.82391 0.16572 0.0
C916 C 0.44558 0.85036 0.15303 0.0
C917 C 0.48263 0.92708 0.11601 0.0
C918 C 0.46967 0.90058 0.12856 0.0
H919 H 0.36883 0.78491 0.1846 0.0
H920 H 0.39006 0.82804 0.16414 0.0
H921 H 0.47422 0.83617 0.12451 0.0
H922 H 0.50791 0.99214 0.1369 0.0
H923 H 0.48537 0.94907 0.15704 0.0
C924 C 0.17699 0.30352 0.71542 0.0
C925 C 0.15875 0.31977 0.72216 0.0
C926 C 0.16706 0.27842 0.70208 0.0
C927 C 0.10217 0.22529 0.68614 0.0
H928 H 0.14896 0.20334 0.62717 0.0
C929 C 0.07517 0.11834 0.63633 0.0
C930 C 0.08002 0.11491 0.60647 0.0
C931 C 0.08482 0.14316 0.65042 0.0
C932 C 0.13546 0.20917 0.64339 0.0
H933 H 0.11545 0.32186 0.72051 0.0
H934 H 0.09807 0.27808 0.69715 0.0
H935 H 0.16484 0.24657 0.65162 0.0
H936 H 0.09915 0.13525 0.56816 0.0
H937 H 0.11577 0.17851 0.59266 0.0
H938 H 0.0725 0.18812 0.67741 0.0
C939 C 0.12012 0.28467 0.70246 0.0
C940 C 0.14477 0.23392 0.65776 0.0
C941 C 0.13008 0.30983 0.71592 0.0
C942 C 0.09513 0.13701 0.59119 0.0
C943 C 0.10477 0.16188 0.60531 0.0
C944 C 0.09286 0.20052 0.67176 0.0
C945 C 0.13855 0.26873 0.69497 0.0
C946 C 0.12833 0.24234 0.67945 0.0
C947 C 0.09959 0.16538 0.63513 0.0
C948 C 0.1094 0.19202 0.65023 0.0
H949 H 0.19912 0.31026 0.72039 0.0
H950 H 0.18184 0.26657 0.69738 0.0
H951 H 0.08896 0.23089 0.70281 0.0
H952 H 0.06371 0.10185 0.64892 0.0
H953 H 0.08082 0.14484 0.67346 0.0
C954 C 0.75978 0.28552 0.5313 0.0
C955 C 0.77083 0.28004 0.50433 0.0
C956 C 0.73916 0.29964 0.53284 0.0
C957 C 0.68428 0.3162 0.48915 0.0
H958 H 0.68997 0.37422 0.54537 0.0
C959 C 0.62083 0.39437 0.48046 0.0
C960 C 0.6115 0.40464 0.50611 0.0
C961 C 0.63775 0.37661 0.48166 0.0
C962 C 0.68779 0.35776 0.52989 0.0
H963 H 0.76884 0.2842 0.45787 0.0
H964 H 0.7329 0.30917 0.46046 0.0
H965 H 0.72527 0.34873 0.54476 0.0
H966 H 0.61135 0.4034 0.55311 0.0
H967 H 0.64087 0.37219 0.55524 0.0
H968 H 0.64694 0.32533 0.4741 0.0
C969 C 0.74016 0.30262 0.48041 0.0
C970 C 0.70806 0.34324 0.52949 0.0
C971 C 0.76086 0.28864 0.47891 0.0
C972 C 0.61861 0.39609 0.533 0.0
C973 C 0.6355 0.37827 0.53421 0.0
C974 C 0.66396 0.33064 0.48961 0.0
C975 C 0.72899 0.30812 0.50738 0.0
C976 C 0.70672 0.32259 0.50884 0.0
C977 C 0.64565 0.36871 0.50856 0.0
C978 C 0.66573 0.35183 0.50971 0.0
H979 H 0.76679 0.27851 0.55111 0.0
H980 H 0.73068 0.30335 0.55388 0.0
H981 H 0.68246 0.30003 0.47334 0.0
H982 H 0.61601 0.40088 0.45943 0.0
H983 H 0.64556 0.36992 0.46152 0.0
loop_
_geom_bond_atom_site_label_1
_geom_bond_atom_site_label_2
_geom_bond_distance
_geom_bond_site_symmetry_2
_ccdc_geom_bond_type
H0 C7 0.929 . S
H1 C10 0.930 . S
H2 C12 0.929 . S
H3 C4 0.969 . S
C4 H3 0.969 . S
C4 O5 1.550 . S
C4 H6 0.973 . S
O5 C4 1.550 . S
O5 C11 1.412 . S
H6 C4 0.973 . S
C7 H0 0.929 . S
C7 C8 1.400 . S
C7 C9 1.364 . S
C8 C7 1.400 . S
C8 C12 1.377 . S
C9 C7 1.364 . S
C9 C10 1.374 . S
C10 H1 0.930 . S
C10 C9 1.374 . S
C10 C11 1.383 . S
C11 O5 1.412 . S
C11 C10 1.383 . S
C11 C12 1.394 . S
C12 H2 0.929 . S
C12 C8 1.377 . S
C12 C11 1.394 . S
H13 C20 0.929 . S
H14 C23 0.930 . S
H15 C25 0.929 . S
H16 C17 0.969 . S
C17 H16 0.969 . S
C17 O18 1.550 . S
C17 H19 0.973 . S
O18 C17 1.550 . S
O18 C24 1.412 . S
H19 C17 0.973 . S
C20 H13 0.929 . S
C20 C21 1.400 . S
C20 C22 1.364 . S
C21 C20 1.400 . S
C21 C25 1.377 . S
C22 C20 1.364 . S
C22 C23 1.374 . S
C23 H14 0.930 . S
C23 C22 1.374 . S
C23 C24 1.383 . S
C24 O18 1.412 . S
C24 C23 1.383 . S
C24 C25 1.394 . S
C25 H15 0.929 . S
C25 C21 1.377 . S
C25 C24 1.394 . S
H26 C33 0.929 . S
H27 C36 0.930 . S
H28 C38 0.929 . S
H29 C30 0.969 . S
C30 H29 0.969 . S
C30 O31 1.550 . S
C30 H32 0.973 . S
O31 C30 1.550 . S
O31 C37 1.412 . S
H32 C30 0.973 . S
C33 H26 0.929 . S
C33 C34 1.400 . S
C33 C35 1.364 . S
C34 C33 1.400 . S
C34 C38 1.377 . S
C35 C33 1.364 . S
C35 C36 1.374 . S
C36 H27 0.930 . S
C36 C35 1.374 . S
C36 C37 1.383 . S
C37 O31 1.412 . S
C37 C36 1.383 . S
C37 C38 1.394 . S
C38 H28 0.929 . S
C38 C34 1.377 . S
C38 C37 1.394 . S
H39 C46 0.929 . S
H40 C49 0.930 . S
H41 C51 0.929 . S
H42 C43 0.969 . S
C43 H42 0.969 . S
C43 O44 1.550 . S
C43 H45 0.973 . S
O44 C43 1.550 . S
O44 C50 1.412 . S
H45 C43 0.973 . S
C46 H39 0.929 . S
C46 C47 1.400 . S
C46 C48 1.364 . S
C47 C46 1.400 . S
C47 C51 1.377 . S
C48 C46 1.364 . S
C48 C49 1.374 . S
C49 H40 0.930 . S
C49 C48 1.374 . S
C49 C50 1.383 . S
C50 O44 1.412 . S
C50 C49 1.383 . S
C50 C51 1.394 . S
C51 H41 0.929 . S
C51 C47 1.377 . S
C51 C50 1.394 . S
H52 C59 0.929 . S
H53 C62 0.930 . S
H54 C64 0.929 . S
H55 C56 0.969 . S
C56 H55 0.969 . S
C56 O57 1.550 . S
C56 H58 0.973 . S
O57 C56 1.550 . S
O57 C63 1.412 . S
H58 C56 0.973 . S
C59 H52 0.929 . S
C59 C60 1.400 . S
C59 C61 1.364 . S
C60 C59 1.400 . S
C60 C64 1.377 . S
C61 C59 1.364 . S
C61 C62 1.374 . S
C62 H53 0.930 . S
C62 C61 1.374 . S
C62 C63 1.383 . S
C63 O57 1.412 . S
C63 C62 1.383 . S
C63 C64 1.394 . S
C64 H54 0.929 . S
C64 C60 1.377 . S
C64 C63 1.394 . S
H65 C72 0.929 . S
H66 C75 0.930 . S
H67 C77 0.929 . S
H68 C69 0.969 . S
C69 H68 0.969 . S
C69 O70 1.550 . S
C69 H71 0.973 . S
O70 C69 1.550 . S
O70 C76 1.412 . S
H71 C69 0.973 . S
C72 H65 0.929 . S
C72 C73 1.400 . S
C72 C74 1.364 . S
C73 C72 1.400 . S
C73 C77 1.377 . S
C74 C72 1.364 . S
C74 C75 1.374 . S
C75 H66 0.930 . S
C75 C74 1.374 . S
C75 C76 1.383 . S
C76 O70 1.412 . S
C76 C75 1.383 . S
C76 C77 1.394 . S
C77 H67 0.929 . S
C77 C73 1.377 . S
C77 C76 1.394 . S
H78 C85 0.929 . S
H79 C88 0.930 . S
H80 C90 0.929 . S
H81 C82 0.969 . S
C82 H81 0.969 . S
C82 O83 1.550 . S
C82 H84 0.973 . S
O83 C82 1.550 . S
O83 C89 1.412 . S
H84 C82 0.973 . S
C85 H78 0.929 . S
C85 C86 1.400 . S
C85 C87 1.364 . S
C86 C85 1.400 . S
C86 C90 1.377 . S
C87 C85 1.364 . S
C87 C88 1.374 . S
C88 H79 0.930 . S
C88 C87 1.374 . S
C88 C89 1.383 . S
C89 O83 1.412 . S
C89 C88 1.383 . S
C89 C90 1.394 . S
C90 H80 0.929 . S
C90 C86 1.377 . S
C90 C89 1.394 . S
H91 C98 0.929 . S
H92 C101 0.930 . S
H93 C103 0.929 . S
H94 C95 0.969 . S
C95 H94 0.969 . S
C95 O96 1.550 . S
C95 H97 0.973 . S
O96 C95 1.550 . S
O96 C102 1.412 . S
H97 C95 0.973 . S
C98 H91 0.929 . S
C98 C99 1.400 . S
C98 C100 1.364 . S
C99 C98 1.400 . S
C99 C103 1.377 . S
C100 C98 1.364 . S
C100 C101 1.374 . S
C101 H92 0.930 . S
C101 C100 1.374 . S
C101 C102 1.383 . S
C102 O96 1.412 . S
C102 C101 1.383 . S
C102 C103 1.394 . S
C103 H93 0.929 . S
C103 C99 1.377 . S
C103 C102 1.394 . S
Gd104 C107 2.818 . S
Gd104 O124 2.377 . S
Gd104 O126 2.448 . S
Gd104 O127 2.506 . S
Gd104 O128 2.435 . S
Gd104 O129 2.717 . S
Gd104 O131 2.395 1_545 S
Gd104 O135 2.327 . S
Gd105 C116 2.818 1_545 S
Gd105 O125 2.395 1_655 S
Gd105 O129 2.327 1_655 S
Gd105 O130 2.377 1_545 S
Gd105 O132 2.448 1_545 S
Gd105 O133 2.506 1_545 S
Gd105 O134 2.435 . S
Gd105 O135 2.717 1_655 S
C106 O124 1.240 . S
C106 O125 1.240 . S
C107 Gd104 2.818 . S
C107 C108 1.510 . S
C107 O126 1.249 . S
C107 O127 1.252 . S
C108 C107 1.510 . S
C108 C109 1.404 . S
C108 C110 1.352 . S
C109 C108 1.404 . S
C109 C113 1.389 . S
C109 H136 0.930 . S
C110 C108 1.352 . S
C110 C112 1.374 . S
C110 H137 0.931 . S
C111 C112 1.359 . S
C111 C113 1.364 . S
C112 C110 1.374 . S
C112 C111 1.359 . S
C112 H138 0.931 . S
C113 C109 1.389 . S
C113 C111 1.364 . S
C113 H139 0.931 . S
C114 O128 1.256 1_565 S
C114 O129 1.257 1_565 S
C115 O130 1.240 . S
C115 O131 1.240 1_655 S
C116 Gd105 2.818 1_565 S
C116 C117 1.510 . S
C116 O132 1.249 . S
C116 O133 1.252 . S
C117 C116 1.510 . S
C117 C118 1.404 . S
C117 C119 1.352 . S
C118 C117 1.404 . S
C118 C122 1.389 . S
C118 H140 0.930 . S
C119 C117 1.352 . S
C119 C121 1.374 . S
C119 H141 0.931 . S
C120 C121 1.359 . S
C120 C122 1.364 . S
C121 C119 1.374 . S
C121 C120 1.359 . S
C121 H142 0.931 . S
C122 C118 1.389 . S
C122 C120 1.364 . S
C122 H143 0.931 . S
C123 O134 1.256 . S
C123 O135 1.257 1_655 S
O124 Gd104 2.377 . S
O124 C106 1.240 . S
O125 Gd105 2.395 1_455 S
O125 C106 1.240 . S
O126 Gd104 2.448 . S
O126 C107 1.249 . S
O127 Gd104 2.506 . S
O127 C107 1.252 . S
O128 Gd104 2.435 . S
O128 C114 1.256 1_545 S
O129 Gd104 2.717 . S
O129 Gd105 2.327 1_455 S
O129 C114 1.257 1_545 S
O130 Gd105 2.377 1_565 S
O130 C115 1.240 . S
O131 Gd104 2.395 1_565 S
O131 C115 1.240 1_455 S
O132 Gd105 2.448 1_565 S
O132 C116 1.249 . S
O133 Gd105 2.506 1_565 S
O133 C116 1.252 . S
O134 Gd105 2.435 . S
O134 C123 1.256 . S
O135 Gd104 2.327 . S
O135 Gd105 2.717 1_455 S
O135 C123 1.257 1_455 S
H136 C109 0.930 . S
H137 C110 0.931 . S
H138 C112 0.931 . S
H139 C113 0.931 . S
H140 C118 0.930 . S
H141 C119 0.931 . S
H142 C121 0.931 . S
H143 C122 0.931 . S
Gd144 C147 2.818 . S
Gd144 O164 2.377 . S
Gd144 O166 2.448 . S
Gd144 O167 2.506 . S
Gd144 O168 2.435 1_545 S
Gd144 O169 2.717 1_545 S
Gd144 O171 2.395 1_544 S
Gd144 O175 2.321 1_554 S
Gd145 C156 2.818 1_545 S
Gd145 O165 2.395 1_556 S
Gd145 O169 2.327 1_546 S
Gd145 O170 2.377 1_545 S
Gd145 O172 2.448 1_545 S
Gd145 O173 2.506 1_545 S
Gd145 O174 2.435 . S
Gd145 O175 2.720 . S
C146 O164 1.240 . S
C146 O165 1.240 . S
C147 Gd144 2.818 . S
C147 C148 1.510 . S
C147 O166 1.249 . S
C147 O167 1.252 . S
C148 C147 1.510 . S
C148 C149 1.404 . S
C148 C150 1.352 . S
C149 C148 1.404 . S
C149 C153 1.389 . S
C149 H176 0.930 . S
C150 C148 1.352 . S
C150 C152 1.374 . S
C150 H177 0.931 . S
C151 C152 1.359 . S
C151 C153 1.364 . S
C152 C150 1.374 . S
C152 C151 1.359 . S
C152 H178 0.931 . S
C153 C149 1.389 . S
C153 C151 1.364 . S
C153 H179 0.931 . S
C154 O168 1.256 . S
C154 O169 1.257 . S
C155 O170 1.240 . S
C155 O171 1.240 . S
C156 Gd145 2.818 1_565 S
C156 C157 1.510 . S
C156 O172 1.249 . S
C156 O173 1.252 . S
C157 C156 1.510 . S
C157 C158 1.404 . S
C157 C159 1.352 . S
C158 C157 1.404 . S
C158 C162 1.389 . S
C158 H180 0.930 . S
C159 C157 1.352 . S
C159 C161 1.374 . S
C159 H181 0.931 . S
C160 C161 1.359 . S
C160 C162 1.364 . S
C161 C159 1.374 . S
C161 C160 1.359 . S
C161 H182 0.931 . S
C162 C158 1.389 . S
C162 C160 1.364 . S
C162 H183 0.931 . S
C163 O174 1.256 . S
C163 O175 1.264 . S
O164 Gd144 2.377 . S
O164 C146 1.240 . S
O165 Gd145 2.395 1_554 S
O165 C146 1.240 . S
O166 Gd144 2.448 . S
O166 C147 1.249 . S
O167 Gd144 2.506 . S
O167 C147 1.252 . S
O168 Gd144 2.435 1_565 S
O168 C154 1.256 . S
O169 Gd144 2.717 1_565 S
O169 Gd145 2.327 1_564 S
O169 C154 1.257 . S
O170 Gd145 2.377 1_565 S
O170 C155 1.240 . S
O171 Gd144 2.395 1_566 S
O171 C155 1.240 . S
O172 Gd145 2.448 1_565 S
O172 C156 1.249 . S
O173 Gd145 2.506 1_565 S
O173 C156 1.252 . S
O174 Gd145 2.435 . S
O174 C163 1.256 . S
O175 Gd144 2.321 1_556 S
O175 Gd145 2.720 . S
O175 C163 1.264 . S
H176 C149 0.930 . S
H177 C150 0.931 . S
H178 C152 0.931 . S
H179 C153 0.931 . S
H180 C158 0.930 . S
H181 C159 0.931 . S
H182 C161 0.931 . S
H183 C162 0.931 . S
Gd184 C187 2.818 . S
Gd184 O204 2.377 . S
Gd184 O206 2.448 . S
Gd184 O207 2.506 . S
Gd184 O208 2.435 . S
Gd184 O209 2.717 . S
Gd184 O211 2.395 . S
Gd184 O215 2.327 . S
Gd185 C196 2.818 . S
Gd185 O205 2.395 . S
Gd185 O209 2.327 . S
Gd185 O210 2.377 . S
Gd185 O212 2.448 . S
Gd185 O213 2.506 . S
Gd185 O214 2.435 . S
Gd185 O215 2.717 . S
C186 O204 1.240 . S
C186 O205 1.240 . S
C187 Gd184 2.818 . S
C187 C188 1.510 . S
C187 O206 1.249 . S
C187 O207 1.252 . S
C188 C187 1.510 . S
C188 C189 1.404 . S
C188 C190 1.352 . S
C189 C188 1.404 . S
C189 C193 1.389 . S
C189 H216 0.930 . S
C190 C188 1.352 . S
C190 C192 1.374 . S
C190 H217 0.931 . S
C191 C192 1.359 . S
C191 C193 1.364 . S
C192 C190 1.374 . S
C192 C191 1.359 . S
C192 H218 0.931 . S
C193 C189 1.389 . S
C193 C191 1.364 . S
C193 H219 0.931 . S
C194 O208 1.256 . S
C194 O209 1.257 . S
C195 O210 1.240 . S
C195 O211 1.240 . S
C196 Gd185 2.818 . S
C196 C197 1.510 . S
C196 O212 1.249 . S
C196 O213 1.252 . S
C197 C196 1.510 . S
C197 C198 1.404 . S
C197 C199 1.352 . S
C198 C197 1.404 . S
C198 C202 1.389 . S
C198 H220 0.930 . S
C199 C197 1.352 . S
C199 C201 1.374 . S
C199 H221 0.931 . S
C200 C201 1.359 . S
C200 C202 1.364 . S
C201 C199 1.374 . S
C201 C200 1.359 . S
C201 H222 0.931 . S
C202 C198 1.389 . S
C202 C200 1.364 . S
C202 H223 0.931 . S
C203 O214 1.256 . S
C203 O215 1.257 . S
O204 Gd184 2.377 . S
O204 C186 1.240 . S
O205 Gd185 2.395 . S
O205 C186 1.240 . S
O206 Gd184 2.448 . S
O206 C187 1.249 . S
O207 Gd184 2.506 . S
O207 C187 1.252 . S
O208 Gd184 2.435 . S
O208 C194 1.256 . S
O209 Gd184 2.717 . S
O209 Gd185 2.327 . S
O209 C194 1.257 . S
O210 Gd185 2.377 . S
O210 C195 1.240 . S
O211 Gd184 2.395 . S
O211 C195 1.240 . S
O212 Gd185 2.448 . S
O212 C196 1.249 . S
O213 Gd185 2.506 . S
O213 C196 1.252 . S
O214 Gd185 2.435 . S
O214 C203 1.256 . S
O215 Gd184 2.327 . S
O215 Gd185 2.717 . S
O215 C203 1.257 . S
H216 C189 0.930 . S
H217 C190 0.931 . S
H218 C192 0.931 . S
H219 C193 0.931 . S
H220 C198 0.930 . S
H221 C199 0.931 . S
H222 C201 0.931 . S
H223 C202 0.931 . S
Gd224 C227 2.818 . S
Gd224 O244 2.377 . S
Gd224 O246 2.448 . S
Gd224 O247 2.506 . S
Gd224 O248 2.435 . S
Gd224 O249 2.717 . S
Gd224 O251 2.395 1_455 S
Gd224 O255 2.327 . S
Gd225 C236 2.818 1_454 S
Gd225 O245 2.395 . S
Gd225 O249 2.327 . S
Gd225 O250 2.377 1_455 S
Gd225 O252 2.448 1_554 S
Gd225 O253 2.506 1_455 S
Gd225 O254 2.435 1_554 S
Gd225 O255 2.717 . S
C226 O244 1.240 . S
C226 O245 1.240 . S
C227 Gd224 2.818 . S
C227 C228 1.510 . S
C227 O246 1.249 . S
C227 O247 1.252 . S
C228 C227 1.510 . S
C228 C229 1.404 . S
C228 C230 1.352 . S
C229 C228 1.404 . S
C229 C233 1.389 . S
C229 H256 0.930 . S
C230 C228 1.352 . S
C230 C232 1.374 . S
C230 H257 0.931 . S
C231 C232 1.359 . S
C231 C233 1.364 . S
C232 C230 1.374 . S
C232 C231 1.359 . S
C232 H258 0.931 . S
C233 C229 1.389 . S
C233 C231 1.364 . S
C233 H259 0.931 . S
C234 O248 1.256 . S
C234 O249 1.257 . S
C235 O250 1.240 . S
C235 O251 1.240 . S
C236 Gd225 2.818 1_656 S
C236 C237 1.510 . S
C236 O252 1.249 1_655 S
C236 O253 1.252 1_556 S
C237 C236 1.510 . S
C237 C238 1.404 . S
C237 C239 1.352 . S
C238 C237 1.404 . S
C238 C242 1.389 . S
C238 H260 0.930 . S
C239 C237 1.352 . S
C239 C241 1.374 . S
C239 H261 0.931 1_556 S
C240 C241 1.359 . S
C240 C242 1.364 . S
C241 C239 1.374 . S
C241 C240 1.359 . S
C241 H262 0.931 . S
C242 C238 1.389 . S
C242 C240 1.364 . S
C242 H263 0.931 . S
C243 O254 1.256 . S
C243 O255 1.257 1_556 S
O244 Gd224 2.377 . S
O244 C226 1.240 . S
O245 Gd225 2.395 . S
O245 C226 1.240 . S
O246 Gd224 2.448 . S
O246 C227 1.249 . S
O247 Gd224 2.506 . S
O247 C227 1.252 . S
O248 Gd224 2.435 . S
O248 C234 1.256 . S
O249 Gd224 2.717 . S
O249 Gd225 2.327 . S
O249 C234 1.257 . S
O250 Gd225 2.377 1_655 S
O250 C235 1.240 . S
O251 Gd224 2.395 1_655 S
O251 C235 1.240 . S
O252 Gd225 2.448 1_556 S
O252 C236 1.249 1_455 S
O253 Gd225 2.506 1_655 S
O253 C236 1.252 1_554 S
O254 Gd225 2.435 1_556 S
O254 C243 1.256 . S
O255 Gd224 2.327 . S
O255 Gd225 2.717 . S
O255 C243 1.257 1_554 S
H256 C229 0.930 . S
H257 C230 0.931 . S
H258 C232 0.931 . S
H259 C233 0.931 . S
H260 C238 0.930 . S
H261 C239 0.931 1_554 S
H262 C241 0.931 . S
H263 C242 0.931 . S
C264 C265 1.349 . S
C264 C266 1.327 . S
C264 H289 0.950 . S
C265 C264 1.349 . S
C265 C281 1.349 . S
C266 C264 1.327 . S
C266 C285 1.429 . S
C266 H290 0.950 . S
C267 C284 1.574 . S
C267 C286 1.368 . S
C267 H291 0.949 . S
H268 C272 0.949 . S
C269 C270 1.349 . S
C269 C271 1.327 . S
C269 H292 0.950 . S
C270 C269 1.349 . S
C270 C282 1.349 . S
C271 C269 1.327 . S
C271 C287 1.429 . S
C271 H293 0.950 . S
C272 H268 0.949 . S
C272 C280 1.574 . S
C272 C288 1.368 . S
H273 C281 0.950 . S
H274 C279 0.950 . S
H275 C280 0.949 . S
H276 C282 0.950 . S
H277 C283 0.950 . S
H278 C284 0.949 . S
C279 H274 0.950 . S
C279 C281 1.327 . S
C279 C285 1.429 . S
C280 C272 1.574 . S
C280 H275 0.949 . S
C280 C286 1.368 . S
C281 C265 1.349 . S
C281 H273 0.950 . S
C281 C279 1.327 . S
C282 C270 1.349 . S
C282 H276 0.950 . S
C282 C283 1.327 . S
C283 H277 0.950 . S
C283 C282 1.327 . S
C283 C287 1.429 . S
C284 C267 1.574 . S
C284 H278 0.949 . S
C284 C288 1.368 . S
C285 C266 1.429 . S
C285 C279 1.429 . S
C285 C286 1.523 . S
C286 C267 1.368 . S
C286 C280 1.368 . S
C286 C285 1.523 . S
C287 C271 1.429 . S
C287 C283 1.429 . S
C287 C288 1.523 . S
C288 C272 1.368 . S
C288 C284 1.368 . S
C288 C287 1.523 . S
H289 C264 0.950 . S
H290 C266 0.950 . S
H291 C267 0.949 . S
H292 C269 0.950 . S
H293 C271 0.950 . S
C294 C295 1.349 . S
C294 C296 1.327 . S
C294 H319 0.950 . S
C295 C294 1.349 . S
C295 C311 1.349 . S
C296 C294 1.327 . S
C296 C315 1.429 . S
C296 H320 0.950 . S
C297 C314 1.574 . S
C297 C316 1.368 . S
C297 H321 0.949 . S
H298 C302 0.949 . S
C299 C300 1.349 . S
C299 C301 1.327 . S
C299 H322 0.950 . S
C300 C299 1.349 . S
C300 C312 1.349 . S
C301 C299 1.327 . S
C301 C317 1.429 . S
C301 H323 0.950 . S
C302 H298 0.949 . S
C302 C310 1.574 . S
C302 C318 1.368 . S
H303 C311 0.950 . S
H304 C309 0.950 . S
H305 C310 0.949 . S
H306 C312 0.950 . S
H307 C313 0.950 . S
H308 C314 0.949 . S
C309 H304 0.950 . S
C309 C311 1.327 . S
C309 C315 1.429 . S
C310 C302 1.574 . S
C310 H305 0.949 . S
C310 C316 1.368 . S
C311 C295 1.349 . S
C311 H303 0.950 . S
C311 C309 1.327 . S
C312 C300 1.349 . S
C312 H306 0.950 . S
C312 C313 1.327 . S
C313 H307 0.950 . S
C313 C312 1.327 . S
C313 C317 1.429 . S
C314 C297 1.574 . S
C314 H308 0.949 . S
C314 C318 1.368 . S
C315 C296 1.429 . S
C315 C309 1.429 . S
C315 C316 1.523 . S
C316 C297 1.368 . S
C316 C310 1.368 . S
C316 C315 1.523 . S
C317 C301 1.429 . S
C317 C313 1.429 . S
C317 C318 1.523 . S
C318 C302 1.368 . S
C318 C314 1.368 . S
C318 C317 1.523 . S
H319 C294 0.950 . S
H320 C296 0.950 . S
H321 C297 0.949 . S
H322 C299 0.950 . S
H323 C301 0.950 . S
C324 C325 1.349 . S
C324 C326 1.327 . S
C324 H349 0.950 . S
C325 C324 1.349 . S
C325 C341 1.349 . S
C326 C324 1.327 . S
C326 C345 1.429 . S
C326 H350 0.950 . S
C327 C344 1.574 . S
C327 C346 1.368 . S
C327 H351 0.949 . S
H328 C332 0.949 . S
C329 C330 1.349 . S
C329 C331 1.327 . S
C329 H352 0.950 . S
C330 C329 1.349 . S
C330 C342 1.349 . S
C331 C329 1.327 . S
C331 C347 1.429 . S
C331 H353 0.950 . S
C332 H328 0.949 . S
C332 C340 1.574 . S
C332 C348 1.368 . S
H333 C341 0.950 . S
H334 C339 0.950 . S
H335 C340 0.949 . S
H336 C342 0.950 . S
H337 C343 0.950 . S
H338 C344 0.949 . S
C339 H334 0.950 . S
C339 C341 1.327 . S
C339 C345 1.429 . S
C340 C332 1.574 . S
C340 H335 0.949 . S
C340 C346 1.368 . S
C341 C325 1.349 . S
C341 H333 0.950 . S
C341 C339 1.327 . S
C342 C330 1.349 . S
C342 H336 0.950 . S
C342 C343 1.327 . S
C343 H337 0.950 . S
C343 C342 1.327 . S
C343 C347 1.429 . S
C344 C327 1.574 . S
C344 H338 0.949 . S
C344 C348 1.368 . S
C345 C326 1.429 . S
C345 C339 1.429 . S
C345 C346 1.523 . S
C346 C327 1.368 . S
C346 C340 1.368 . S
C346 C345 1.523 . S
C347 C331 1.429 . S
C347 C343 1.429 . S
C347 C348 1.523 . S
C348 C332 1.368 . S
C348 C344 1.368 . S
C348 C347 1.523 . S
H349 C324 0.950 . S
H350 C326 0.950 . S
H351 C327 0.949 . S
H352 C329 0.950 . S
H353 C331 0.950 . S
C354 C355 1.349 . S
C354 C356 1.327 . S
C354 H379 0.950 . S
C355 C354 1.349 . S
C355 C371 1.349 . S
C356 C354 1.327 . S
C356 C375 1.429 . S
C356 H380 0.950 . S
C357 C374 1.574 . S
C357 C376 1.368 . S
C357 H381 0.949 . S
H358 C362 0.949 . S
C359 C360 1.349 . S
C359 C361 1.327 . S
C359 H382 0.950 . S
C360 C359 1.349 . S
C360 C372 1.349 . S
C361 C359 1.327 . S
C361 C377 1.429 . S
C361 H383 0.950 . S
C362 H358 0.949 . S
C362 C370 1.574 . S
C362 C378 1.368 . S
H363 C371 0.950 . S
H364 C369 0.950 . S
H365 C370 0.949 . S
H366 C372 0.950 1_455 S
H367 C373 0.950 . S
H368 C374 0.949 . S
C369 H364 0.950 . S
C369 C371 1.327 . S
C369 C375 1.429 . S
C370 C362 1.574 . S
C370 H365 0.949 . S
C370 C376 1.368 . S
C371 C355 1.349 . S
C371 H363 0.950 . S
C371 C369 1.327 . S
C372 C360 1.349 . S
C372 H366 0.950 1_655 S
C372 C373 1.327 . S
C373 H367 0.950 . S
C373 C372 1.327 . S
C373 C377 1.429 . S
C374 C357 1.574 . S
C374 H368 0.949 . S
C374 C378 1.368 . S
C375 C356 1.429 . S
C375 C369 1.429 . S
C375 C376 1.523 . S
C376 C357 1.368 . S
C376 C370 1.368 . S
C376 C375 1.523 . S
C377 C361 1.429 . S
C377 C373 1.429 . S
C377 C378 1.523 . S
C378 C362 1.368 . S
C378 C374 1.368 . S
C378 C377 1.523 . S
H379 C354 0.950 . S
H380 C356 0.950 . S
H381 C357 0.949 . S
H382 C359 0.950 . S
H383 C361 0.950 . S
C384 C385 1.349 . S
C384 C386 1.327 . S
C384 H409 0.950 . S
C385 C384 1.349 . S
C385 C401 1.349 . S
C386 C384 1.327 . S
C386 C405 1.429 . S
C386 H410 0.950 . S
C387 C404 1.574 . S
C387 C406 1.368 . S
C387 H411 0.949 . S
H388 C392 0.949 . S
C389 C390 1.349 . S
C389 C391 1.327 . S
C389 H412 0.950 . S
C390 C389 1.349 . S
C390 C402 1.349 . S
C391 C389 1.327 . S
C391 C407 1.429 . S
C391 H413 0.950 . S
C392 H388 0.949 . S
C392 C400 1.574 . S
C392 C408 1.368 . S
H393 C401 0.950 . S
H394 C399 0.950 . S
H395 C400 0.949 . S
H396 C402 0.950 . S
H397 C403 0.950 . S
H398 C404 0.949 . S
C399 H394 0.950 . S
C399 C401 1.327 . S
C399 C405 1.429 . S
C400 C392 1.574 . S
C400 H395 0.949 . S
C400 C406 1.368 . S
C401 C385 1.349 . S
C401 H393 0.950 . S
C401 C399 1.327 . S
C402 C390 1.349 . S
C402 H396 0.950 . S
C402 C403 1.327 . S
C403 H397 0.950 . S
C403 C402 1.327 . S
C403 C407 1.429 . S
C404 C387 1.574 . S
C404 H398 0.949 . S
C404 C408 1.368 . S
C405 C386 1.429 . S
C405 C399 1.429 . S
C405 C406 1.523 . S
C406 C387 1.368 . S
C406 C400 1.368 . S
C406 C405 1.523 . S
C407 C391 1.429 . S
C407 C403 1.429 . S
C407 C408 1.523 . S
C408 C392 1.368 . S
C408 C404 1.368 . S
C408 C407 1.523 . S
H409 C384 0.950 . S
H410 C386 0.950 . S
H411 C387 0.949 . S
H412 C389 0.950 . S
H413 C391 0.950 . S
C414 C415 1.349 . S
C414 C416 1.327 . S
C414 H439 0.950 . S
C415 C414 1.349 . S
C415 C431 1.349 . S
C416 C414 1.327 . S
C416 C435 1.429 . S
C416 H440 0.950 . S
C417 C434 1.574 . S
C417 C436 1.368 . S
C417 H441 0.949 . S
H418 C422 0.949 . S
C419 C420 1.349 . S
C419 C421 1.327 . S
C419 H442 0.950 1_565 S
C420 C419 1.349 . S
C420 C432 1.349 . S
C421 C419 1.327 . S
C421 C437 1.429 . S
C421 H443 0.950 . S
C422 H418 0.949 . S
C422 C430 1.574 . S
C422 C438 1.368 . S
H423 C431 0.950 . S
H424 C429 0.950 . S
H425 C430 0.949 . S
H426 C432 0.950 . S
H427 C433 0.950 . S
H428 C434 0.949 . S
C429 H424 0.950 . S
C429 C431 1.327 . S
C429 C435 1.429 . S
C430 C422 1.574 . S
C430 H425 0.949 . S
C430 C436 1.368 . S
C431 C415 1.349 . S
C431 H423 0.950 . S
C431 C429 1.327 . S
C432 C420 1.349 . S
C432 H426 0.950 . S
C432 C433 1.327 . S
C433 H427 0.950 . S
C433 C432 1.327 . S
C433 C437 1.429 . S
C434 C417 1.574 . S
C434 H428 0.949 . S
C434 C438 1.368 . S
C435 C416 1.429 . S
C435 C429 1.429 . S
C435 C436 1.523 . S
C436 C417 1.368 . S
C436 C430 1.368 . S
C436 C435 1.523 . S
C437 C421 1.429 . S
C437 C433 1.429 . S
C437 C438 1.523 . S
C438 C422 1.368 . S
C438 C434 1.368 . S
C438 C437 1.523 . S
H439 C414 0.950 . S
H440 C416 0.950 . S
H441 C417 0.949 . S
H442 C419 0.950 1_545 S
H443 C421 0.950 . S
C444 C445 1.349 . S
C444 C446 1.327 . S
C444 H469 0.950 . S
C445 C444 1.349 . S
C445 C461 1.349 . S
C446 C444 1.327 . S
C446 C465 1.429 . S
C446 H470 0.950 . S
C447 C464 1.574 . S
C447 C466 1.368 . S
C447 H471 0.949 . S
H448 C452 0.949 . S
C449 C450 1.324 1_556 S
C449 C451 1.327 . S
C449 H472 0.950 . S
C450 C449 1.324 1_554 S
C450 C462 1.359 . S
C451 C449 1.327 . S
C451 C467 1.429 . S
C451 H473 0.950 . S
C452 H448 0.949 . S
C452 C460 1.574 . S
C452 C468 1.368 . S
H453 C461 0.950 . S
H454 C459 0.950 . S
H455 C460 0.949 . S
H456 C462 0.950 . S
H457 C463 0.950 1_554 S
H458 C464 0.949 . S
C459 H454 0.950 . S
C459 C461 1.327 . S
C459 C465 1.429 . S
C460 C452 1.574 . S
C460 H455 0.949 . S
C460 C466 1.368 . S
C461 C445 1.349 . S
C461 H453 0.950 . S
C461 C459 1.327 . S
C462 C450 1.359 . S
C462 H456 0.950 . S
C462 C463 1.327 1_554 S
C463 H457 0.950 1_556 S
C463 C462 1.327 1_556 S
C463 C467 1.429 . S
C464 C447 1.574 . S
C464 H458 0.949 . S
C464 C468 1.368 . S
C465 C446 1.429 . S
C465 C459 1.429 . S
C465 C466 1.523 . S
C466 C447 1.368 . S
C466 C460 1.368 . S
C466 C465 1.523 . S
C467 C451 1.429 . S
C467 C463 1.429 . S
C467 C468 1.523 . S
C468 C452 1.368 . S
C468 C464 1.368 . S
C468 C467 1.523 . S
H469 C444 0.950 . S
H470 C446 0.950 . S
H471 C447 0.949 . S
H472 C449 0.950 . S
H473 C451 0.950 . S
C474 C475 1.349 . S
C474 C476 1.327 . S
C474 H499 0.950 . S
C475 C474 1.349 . S
C475 C491 1.349 . S
C476 C474 1.327 . S
C476 C495 1.429 . S
C476 H500 0.950 . S
C477 C494 1.574 . S
C477 C496 1.368 . S
C477 H501 0.949 . S
H478 C482 0.949 . S
C479 C480 1.349 . S
C479 C481 1.327 . S
C479 H502 0.950 . S
C480 C479 1.349 . S
C480 C492 1.349 . S
C481 C479 1.327 . S
C481 C497 1.429 . S
C481 H503 0.950 . S
C482 H478 0.949 . S
C482 C490 1.574 . S
C482 C498 1.368 . S
H483 C491 0.950 . S
H484 C489 0.950 . S
H485 C490 0.949 . S
H486 C492 0.950 . S
H487 C493 0.950 . S
H488 C494 0.949 . S
C489 H484 0.950 . S
C489 C491 1.327 . S
C489 C495 1.429 . S
C490 C482 1.574 . S
C490 H485 0.949 . S
C490 C496 1.368 . S
C491 C475 1.349 . S
C491 H483 0.950 . S
C491 C489 1.327 . S
C492 C480 1.349 . S
C492 H486 0.950 . S
C492 C493 1.327 . S
C493 H487 0.950 . S
C493 C492 1.327 . S
C493 C497 1.429 . S
C494 C477 1.574 . S
C494 H488 0.949 . S
C494 C498 1.368 . S
C495 C476 1.429 . S
C495 C489 1.429 . S
C495 C496 1.523 . S
C496 C477 1.368 . S
C496 C490 1.368 . S
C496 C495 1.523 . S
C497 C481 1.429 . S
C497 C493 1.429 . S
C497 C498 1.523 . S
C498 C482 1.368 . S
C498 C494 1.368 . S
C498 C497 1.523 . S
H499 C474 0.950 . S
H500 C476 0.950 . S
H501 C477 0.949 . S
H502 C479 0.950 . S
H503 C481 0.950 . S
C504 C505 1.349 . S
C504 C506 1.327 . S
C504 H529 0.950 . S
C505 C504 1.349 . S
C505 C521 1.349 . S
C506 C504 1.327 . S
C506 C525 1.429 . S
C506 H530 0.950 . S
C507 C524 1.574 . S
C507 C526 1.368 . S
C507 H531 0.949 . S
H508 C512 0.949 . S
C509 C510 1.349 . S
C509 C511 1.327 . S
C509 H532 0.950 . S
C510 C509 1.349 . S
C510 C522 1.349 . S
C511 C509 1.327 . S
C511 C527 1.429 . S
C511 H533 0.950 . S
C512 H508 0.949 . S
C512 C520 1.574 . S
C512 C528 1.368 . S
H513 C521 0.950 . S
H514 C519 0.950 . S
H515 C520 0.949 . S
H516 C522 0.950 . S
H517 C523 0.950 . S
H518 C524 0.949 . S
C519 H514 0.950 . S
C519 C521 1.327 . S
C519 C525 1.429 . S
C520 C512 1.574 . S
C520 H515 0.949 . S
C520 C526 1.368 . S
C521 C505 1.349 . S
C521 H513 0.950 . S
C521 C519 1.327 . S
C522 C510 1.349 . S
C522 H516 0.950 . S
C522 C523 1.327 . S
C523 H517 0.950 . S
C523 C522 1.327 . S
C523 C527 1.429 . S
C524 C507 1.574 . S
C524 H518 0.949 . S
C524 C528 1.368 . S
C525 C506 1.429 . S
C525 C519 1.429 . S
C525 C526 1.523 . S
C526 C507 1.368 . S
C526 C520 1.368 . S
C526 C525 1.523 . S
C527 C511 1.429 . S
C527 C523 1.429 . S
C527 C528 1.523 . S
C528 C512 1.368 . S
C528 C524 1.368 . S
C528 C527 1.523 . S
H529 C504 0.950 . S
H530 C506 0.950 . S
H531 C507 0.949 . S
H532 C509 0.950 . S
H533 C511 0.950 . S
C534 C535 1.349 . S
C534 C536 1.327 . S
C534 H559 0.950 . S
C535 C534 1.349 . S
C535 C551 1.349 . S
C536 C534 1.327 . S
C536 C555 1.429 . S
C536 H560 0.950 . S
C537 C554 1.574 . S
C537 C556 1.368 . S
C537 H561 0.949 . S
H538 C542 0.949 . S
C539 C540 1.349 . S
C539 C541 1.327 . S
C539 H562 0.950 . S
C540 C539 1.349 . S
C540 C552 1.349 . S
C541 C539 1.327 . S
C541 C557 1.429 . S
C541 H563 0.950 . S
C542 H538 0.949 . S
C542 C550 1.574 . S
C542 C558 1.368 . S
H543 C551 0.950 . S
H544 C549 0.950 . S
H545 C550 0.949 . S
H546 C552 0.950 . S
H547 C553 0.950 . S
H548 C554 0.949 . S
C549 H544 0.950 . S
C549 C551 1.327 . S
C549 C555 1.429 . S
C550 C542 1.574 . S
C550 H545 0.949 . S
C550 C556 1.368 . S
C551 C535 1.349 . S
C551 H543 0.950 . S
C551 C549 1.327 . S
C552 C540 1.349 . S
C552 H546 0.950 . S
C552 C553 1.327 . S
C553 H547 0.950 . S
C553 C552 1.327 . S
C553 C557 1.429 . S
C554 C537 1.574 . S
C554 H548 0.949 . S
C554 C558 1.368 . S
C555 C536 1.429 . S
C555 C549 1.429 . S
C555 C556 1.523 . S
C556 C537 1.368 . S
C556 C550 1.368 . S
C556 C555 1.523 . S
C557 C541 1.429 . S
C557 C553 1.429 . S
C557 C558 1.523 . S
C558 C542 1.368 . S
C558 C554 1.368 . S
C558 C557 1.523 . S
H559 C534 0.950 . S
H560 C536 0.950 . S
H561 C537 0.949 . S
H562 C539 0.950 . S
H563 C541 0.950 . S
C564 C565 1.349 . S
C564 C566 1.327 . S
C564 H589 0.950 . S
C565 C564 1.349 . S
C565 C581 1.349 . S
C566 C564 1.327 . S
C566 C585 1.429 . S
C566 H590 0.950 . S
C567 C584 1.574 . S
C567 C586 1.368 . S
C567 H591 0.949 . S
H568 C572 0.949 . S
C569 C570 1.349 . S
C569 C571 1.327 . S
C569 H592 0.950 . S
C570 C569 1.349 . S
C570 C582 1.349 . S
C571 C569 1.327 . S
C571 C587 1.429 . S
C571 H593 0.950 . S
C572 H568 0.949 . S
C572 C580 1.574 . S
C572 C588 1.368 . S
H573 C581 0.950 . S
H574 C579 0.950 . S
H575 C580 0.949 . S
H576 C582 0.950 . S
H577 C583 0.950 . S
H578 C584 0.949 . S
C579 H574 0.950 . S
C579 C581 1.327 . S
C579 C585 1.429 . S
C580 C572 1.574 . S
C580 H575 0.949 . S
C580 C586 1.368 . S
C581 C565 1.349 . S
C581 H573 0.950 . S
C581 C579 1.327 . S
C582 C570 1.349 . S
C582 H576 0.950 . S
C582 C583 1.327 . S
C583 H577 0.950 . S
C583 C582 1.327 . S
C583 C587 1.429 . S
C584 C567 1.574 . S
C584 H578 0.949 . S
C584 C588 1.368 . S
C585 C566 1.429 . S
C585 C579 1.429 . S
C585 C586 1.523 . S
C586 C567 1.368 . S
C586 C580 1.368 . S
C586 C585 1.523 . S
C587 C571 1.429 . S
C587 C583 1.429 . S
C587 C588 1.523 . S
C588 C572 1.368 . S
C588 C584 1.368 . S
C588 C587 1.523 . S
H589 C564 0.950 . S
H590 C566 0.950 . S
H591 C567 0.949 . S
H592 C569 0.950 . S
H593 C571 0.950 . S
C594 C595 1.349 . S
C594 C596 1.327 . S
C594 H619 0.950 . S
C595 C594 1.349 . S
C595 C611 1.349 . S
C596 C594 1.327 . S
C596 C615 1.429 . S
C596 H620 0.950 . S
C597 C614 1.574 . S
C597 C616 1.368 . S
C597 H621 0.949 . S
H598 C602 0.949 . S
C599 C600 1.349 . S
C599 C601 1.327 . S
C599 H622 0.950 . S
C600 C599 1.349 . S
C600 C612 1.349 . S
C601 C599 1.327 . S
C601 C617 1.429 . S
C601 H623 0.950 . S
C602 H598 0.949 . S
C602 C610 1.574 . S
C602 C618 1.368 . S
H603 C611 0.950 . S
H604 C609 0.950 . S
H605 C610 0.949 . S
H606 C612 0.950 . S
H607 C613 0.950 . S
H608 C614 0.949 . S
C609 H604 0.950 . S
C609 C611 1.327 . S
C609 C615 1.429 . S
C610 C602 1.574 . S
C610 H605 0.949 . S
C610 C616 1.368 . S
C611 C595 1.349 . S
C611 H603 0.950 . S
C611 C609 1.327 . S
C612 C600 1.349 . S
C612 H606 0.950 . S
C612 C613 1.327 . S
C613 H607 0.950 . S
C613 C612 1.327 . S
C613 C617 1.429 . S
C614 C597 1.574 . S
C614 H608 0.949 . S
C614 C618 1.368 . S
C615 C596 1.429 . S
C615 C609 1.429 . S
C615 C616 1.523 . S
C616 C597 1.368 . S
C616 C610 1.368 . S
C616 C615 1.523 . S
C617 C601 1.429 . S
C617 C613 1.429 . S
C617 C618 1.523 . S
C618 C602 1.368 . S
C618 C614 1.368 . S
C618 C617 1.523 . S
H619 C594 0.950 . S
H620 C596 0.950 . S
H621 C597 0.949 . S
H622 C599 0.950 . S
H623 C601 0.950 . S
C624 C625 1.349 . S
C624 C626 1.327 . S
C624 H649 0.950 . S
C625 C624 1.349 . S
C625 C641 1.349 . S
C626 C624 1.327 . S
C626 C645 1.429 . S
C626 H650 0.950 . S
C627 C644 1.574 . S
C627 C646 1.368 . S
C627 H651 0.949 . S
H628 C632 0.949 . S
C629 C630 1.349 . S
C629 C631 1.327 . S
C629 H652 0.950 . S
C630 C629 1.349 . S
C630 C642 1.349 . S
C631 C629 1.327 . S
C631 C647 1.429 . S
C631 H653 0.950 . S
C632 H628 0.949 . S
C632 C640 1.574 . S
C632 C648 1.368 . S
H633 C641 0.950 . S
H634 C639 0.950 . S
H635 C640 0.949 . S
H636 C642 0.950 . S
H637 C643 0.950 . S
H638 C644 0.949 . S
C639 H634 0.950 . S
C639 C641 1.327 . S
C639 C645 1.429 . S
C640 C632 1.574 . S
C640 H635 0.949 . S
C640 C646 1.368 . S
C641 C625 1.349 . S
C641 H633 0.950 . S
C641 C639 1.327 . S
C642 C630 1.349 . S
C642 H636 0.950 . S
C642 C643 1.327 . S
C643 H637 0.950 . S
C643 C642 1.327 . S
C643 C647 1.429 . S
C644 C627 1.574 . S
C644 H638 0.949 . S
C644 C648 1.368 . S
C645 C626 1.429 . S
C645 C639 1.429 . S
C645 C646 1.523 . S
C646 C627 1.368 . S
C646 C640 1.368 . S
C646 C645 1.523 . S
C647 C631 1.429 . S
C647 C643 1.429 . S
C647 C648 1.523 . S
C648 C632 1.368 . S
C648 C644 1.368 . S
C648 C647 1.523 . S
H649 C624 0.950 . S
H650 C626 0.950 . S
H651 C627 0.949 . S
H652 C629 0.950 . S
H653 C631 0.950 . S
C654 C655 1.349 . S
C654 C656 1.327 . S
C654 H679 0.950 . S
C655 C654 1.349 . S
C655 C671 1.349 . S
C656 C654 1.327 . S
C656 C675 1.429 . S
C656 H680 0.950 . S
C657 C674 1.574 . S
C657 C676 1.368 . S
C657 H681 0.949 . S
H658 C662 0.949 . S
C659 C660 1.349 . S
C659 C661 1.327 . S
C659 H682 0.950 . S
C660 C659 1.349 . S
C660 C672 1.349 . S
C661 C659 1.327 . S
C661 C677 1.429 . S
C661 H683 0.950 . S
C662 H658 0.949 . S
C662 C670 1.574 . S
C662 C678 1.368 . S
H663 C671 0.950 . S
H664 C669 0.950 . S
H665 C670 0.949 . S
H666 C672 0.950 . S
H667 C673 0.950 . S
H668 C674 0.949 . S
C669 H664 0.950 . S
C669 C671 1.327 . S
C669 C675 1.429 . S
C670 C662 1.574 . S
C670 H665 0.949 . S
C670 C676 1.368 . S
C671 C655 1.349 . S
C671 H663 0.950 . S
C671 C669 1.327 . S
C672 C660 1.349 . S
C672 H666 0.950 . S
C672 C673 1.327 . S
C673 H667 0.950 . S
C673 C672 1.327 . S
C673 C677 1.429 . S
C674 C657 1.574 . S
C674 H668 0.949 . S
C674 C678 1.368 . S
C675 C656 1.429 . S
C675 C669 1.429 . S
C675 C676 1.523 . S
C676 C657 1.368 . S
C676 C670 1.368 . S
C676 C675 1.523 . S
C677 C661 1.429 . S
C677 C673 1.429 . S
C677 C678 1.523 . S
C678 C662 1.368 . S
C678 C674 1.368 . S
C678 C677 1.523 . S
H679 C654 0.950 . S
H680 C656 0.950 . S
H681 C657 0.949 . S
H682 C659 0.950 . S
H683 C661 0.950 . S
C684 C685 1.349 . S
C684 C686 1.327 . S
C684 H709 0.950 . S
C685 C684 1.349 . S
C685 C701 1.349 . S
C686 C684 1.327 . S
C686 C705 1.429 . S
C686 H710 0.950 . S
C687 C704 1.574 . S
C687 C706 1.368 . S
C687 H711 0.949 . S
H688 C692 0.949 . S
C689 C690 1.349 . S
C689 C691 1.327 . S
C689 H712 0.950 . S
C690 C689 1.349 . S
C690 C702 1.349 . S
C691 C689 1.327 . S
C691 C707 1.429 . S
C691 H713 0.950 . S
C692 H688 0.949 . S
C692 C700 1.574 . S
C692 C708 1.368 . S
H693 C701 0.950 . S
H694 C699 0.950 . S
H695 C700 0.949 . S
H696 C702 0.950 . S
H697 C703 0.950 . S
H698 C704 0.949 . S
C699 H694 0.950 . S
C699 C701 1.327 . S
C699 C705 1.429 . S
C700 C692 1.574 . S
C700 H695 0.949 . S
C700 C706 1.368 . S
C701 C685 1.349 . S
C701 H693 0.950 . S
C701 C699 1.327 . S
C702 C690 1.349 . S
C702 H696 0.950 . S
C702 C703 1.327 . S
C703 H697 0.950 . S
C703 C702 1.327 . S
C703 C707 1.429 . S
C704 C687 1.574 . S
C704 H698 0.949 . S
C704 C708 1.368 . S
C705 C686 1.429 . S
C705 C699 1.429 . S
C705 C706 1.523 . S
C706 C687 1.368 . S
C706 C700 1.368 . S
C706 C705 1.523 . S
C707 C691 1.429 . S
C707 C703 1.429 . S
C707 C708 1.523 . S
C708 C692 1.368 . S
C708 C704 1.368 . S
C708 C707 1.523 . S
H709 C684 0.950 . S
H710 C686 0.950 . S
H711 C687 0.949 . S
H712 C689 0.950 . S
H713 C691 0.950 . S
C714 C715 1.349 . S
C714 C716 1.327 . S
C714 H739 0.950 . S
C715 C714 1.349 . S
C715 C731 1.349 . S
C716 C714 1.327 . S
C716 C735 1.429 . S
C716 H740 0.950 . S
C717 C734 1.574 . S
C717 C736 1.368 . S
C717 H741 0.949 . S
H718 C722 0.949 . S
C719 C720 1.349 . S
C719 C721 1.327 . S
C719 H742 0.950 . S
C720 C719 1.349 . S
C720 C732 1.349 . S
C721 C719 1.327 . S
C721 C737 1.429 . S
C721 H743 0.950 . S
C722 H718 0.949 . S
C722 C730 1.574 . S
C722 C738 1.368 . S
H723 C731 0.950 . S
H724 C729 0.950 . S
H725 C730 0.949 . S
H726 C732 0.950 . S
H727 C733 0.950 . S
H728 C734 0.949 . S
C729 H724 0.950 . S
C729 C731 1.327 . S
C729 C735 1.429 . S
C730 C722 1.574 . S
C730 H725 0.949 . S
C730 C736 1.368 . S
C731 C715 1.349 . S
C731 H723 0.950 . S
C731 C729 1.327 . S
C732 C720 1.349 . S
C732 H726 0.950 . S
C732 C733 1.327 . S
C733 H727 0.950 . S
C733 C732 1.327 . S
C733 C737 1.429 . S
C734 C717 1.574 . S
C734 H728 0.949 . S
C734 C738 1.368 . S
C735 C716 1.429 . S
C735 C729 1.429 . S
C735 C736 1.523 . S
C736 C717 1.368 . S
C736 C730 1.368 . S
C736 C735 1.523 . S
C737 C721 1.429 . S
C737 C733 1.429 . S
C737 C738 1.523 . S
C738 C722 1.368 . S
C738 C734 1.368 . S
C738 C737 1.523 . S
H739 C714 0.950 . S
H740 C716 0.950 . S
H741 C717 0.949 . S
H742 C719 0.950 . S
H743 C721 0.950 . S
C744 C745 1.349 . S
C744 C746 1.327 . S
C744 H769 0.950 . S
C745 C744 1.349 . S
C745 C761 1.349 . S
C746 C744 1.327 . S
C746 C765 1.429 . S
C746 H770 0.950 . S
C747 C764 1.574 . S
C747 C766 1.368 . S
C747 H771 0.949 . S
H748 C752 0.949 . S
C749 C750 1.349 . S
C749 C751 1.327 . S
C749 H772 0.950 . S
C750 C749 1.349 . S
C750 C762 1.349 . S
C751 C749 1.327 . S
C751 C767 1.429 . S
C751 H773 0.950 . S
C752 H748 0.949 . S
C752 C760 1.574 . S
C752 C768 1.368 . S
H753 C761 0.950 . S
H754 C759 0.950 . S
H755 C760 0.949 . S
H756 C762 0.950 . S
H757 C763 0.950 . S
H758 C764 0.949 . S
C759 H754 0.950 . S
C759 C761 1.327 . S
C759 C765 1.429 . S
C760 C752 1.574 . S
C760 H755 0.949 . S
C760 C766 1.368 . S
C761 C745 1.349 . S
C761 H753 0.950 . S
C761 C759 1.327 . S
C762 C750 1.349 . S
C762 H756 0.950 . S
C762 C763 1.327 . S
C763 H757 0.950 . S
C763 C762 1.327 . S
C763 C767 1.429 . S
C764 C747 1.574 . S
C764 H758 0.949 . S
C764 C768 1.368 . S
C765 C746 1.429 . S
C765 C759 1.429 . S
C765 C766 1.523 . S
C766 C747 1.368 . S
C766 C760 1.368 . S
C766 C765 1.523 . S
C767 C751 1.429 . S
C767 C763 1.429 . S
C767 C768 1.523 . S
C768 C752 1.368 . S
C768 C764 1.368 . S
C768 C767 1.523 . S
H769 C744 0.950 . S
H770 C746 0.950 . S
H771 C747 0.949 . S
H772 C749 0.950 . S
H773 C751 0.950 . S
C774 C775 1.349 . S
C774 C776 1.327 . S
C774 H799 0.950 . S
C775 C774 1.349 . S
C775 C791 1.349 . S
C776 C774 1.327 . S
C776 C795 1.429 . S
C776 H800 0.950 . S
C777 C794 1.574 . S
C777 C796 1.368 . S
C777 H801 0.949 . S
H778 C782 0.949 . S
C779 C780 1.349 . S
C779 C781 1.327 . S
C779 H802 0.950 . S
C780 C779 1.349 . S
C780 C792 1.349 . S
C781 C779 1.327 . S
C781 C797 1.429 . S
C781 H803 0.950 . S
C782 H778 0.949 . S
C782 C790 1.574 . S
C782 C798 1.368 . S
H783 C791 0.950 . S
H784 C789 0.950 . S
H785 C790 0.949 . S
H786 C792 0.950 . S
H787 C793 0.950 . S
H788 C794 0.949 . S
C789 H784 0.950 . S
C789 C791 1.327 . S
C789 C795 1.429 . S
C790 C782 1.574 . S
C790 H785 0.949 . S
C790 C796 1.368 . S
C791 C775 1.349 . S
C791 H783 0.950 . S
C791 C789 1.327 . S
C792 C780 1.349 . S
C792 H786 0.950 . S
C792 C793 1.327 . S
C793 H787 0.950 . S
C793 C792 1.327 . S
C793 C797 1.429 . S
C794 C777 1.574 . S
C794 H788 0.949 . S
C794 C798 1.368 . S
C795 C776 1.429 . S
C795 C789 1.429 . S
C795 C796 1.523 . S
C796 C777 1.368 . S
C796 C790 1.368 . S
C796 C795 1.523 . S
C797 C781 1.429 . S
C797 C793 1.429 . S
C797 C798 1.523 . S
C798 C782 1.368 . S
C798 C794 1.368 . S
C798 C797 1.523 . S
H799 C774 0.950 . S
H800 C776 0.950 . S
H801 C777 0.949 . S
H802 C779 0.950 . S
H803 C781 0.950 . S
C804 C805 1.349 . S
C804 C806 1.327 . S
C804 H829 0.950 . S
C805 C804 1.349 . S
C805 C821 1.349 . S
C806 C804 1.327 . S
C806 C825 1.429 . S
C806 H830 0.950 . S
C807 C824 1.574 . S
C807 C826 1.368 . S
C807 H831 0.949 . S
H808 C812 0.949 . S
C809 C810 1.349 . S
C809 C811 1.327 . S
C809 H832 0.950 . S
C810 C809 1.349 . S
C810 C822 1.349 . S
C811 C809 1.327 . S
C811 C827 1.429 . S
C811 H833 0.950 . S
C812 H808 0.949 . S
C812 C820 1.574 . S
C812 C828 1.368 . S
H813 C821 0.950 . S
H814 C819 0.950 . S
H815 C820 0.949 . S
H816 C822 0.950 . S
H817 C823 0.950 . S
H818 C824 0.949 . S
C819 H814 0.950 . S
C819 C821 1.327 . S
C819 C825 1.429 . S
C820 C812 1.574 . S
C820 H815 0.949 . S
C820 C826 1.368 . S
C821 C805 1.349 . S
C821 H813 0.950 . S
C821 C819 1.327 . S
C822 C810 1.349 . S
C822 H816 0.950 . S
C822 C823 1.327 . S
C823 H817 0.950 . S
C823 C822 1.327 . S
C823 C827 1.429 . S
C824 C807 1.574 . S
C824 H818 0.949 . S
C824 C828 1.368 . S
C825 C806 1.429 . S
C825 C819 1.429 . S
C825 C826 1.523 . S
C826 C807 1.368 . S
C826 C820 1.368 . S
C826 C825 1.523 . S
C827 C811 1.429 . S
C827 C823 1.429 . S
C827 C828 1.523 . S
C828 C812 1.368 . S
C828 C824 1.368 . S
C828 C827 1.523 . S
H829 C804 0.950 . S
H830 C806 0.950 . S
H831 C807 0.949 . S
H832 C809 0.950 . S
H833 C811 0.950 . S
C834 C835 1.349 . S
C834 C836 1.327 . S
C834 H859 0.950 . S
C835 C834 1.349 . S
C835 C851 1.349 . S
C836 C834 1.327 . S
C836 C855 1.429 . S
C836 H860 0.950 . S
C837 C854 1.574 . S
C837 C856 1.368 . S
C837 H861 0.949 . S
H838 C842 0.949 . S
C839 C840 1.349 . S
C839 C841 1.327 . S
C839 H862 0.950 . S
C840 C839 1.349 . S
C840 C852 1.349 . S
C841 C839 1.327 . S
C841 C857 1.429 . S
C841 H863 0.950 . S
C842 H838 0.949 . S
C842 C850 1.574 . S
C842 C858 1.368 . S
H843 C851 0.950 . S
H844 C849 0.950 . S
H845 C850 0.949 . S
H846 C852 0.950 . S
H847 C853 0.950 . S
H848 C854 0.949 . S
C849 H844 0.950 . S
C849 C851 1.327 . S
C849 C855 1.429 . S
C850 C842 1.574 . S
C850 H845 0.949 . S
C850 C856 1.368 . S
C851 C835 1.349 . S
C851 H843 0.950 . S
C851 C849 1.327 . S
C852 C840 1.349 . S
C852 H846 0.950 . S
C852 C853 1.327 . S
C853 H847 0.950 . S
C853 C852 1.327 . S
C853 C857 1.429 . S
C854 C837 1.574 . S
C854 H848 0.949 . S
C854 C858 1.368 . S
C855 C836 1.429 . S
C855 C849 1.429 . S
C855 C856 1.523 . S
C856 C837 1.368 . S
C856 C850 1.368 . S
C856 C855 1.523 . S
C857 C841 1.429 . S
C857 C853 1.429 . S
C857 C858 1.523 . S
C858 C842 1.368 . S
C858 C854 1.368 . S
C858 C857 1.523 . S
H859 C834 0.950 . S
H860 C836 0.950 . S
H861 C837 0.949 . S
H862 C839 0.950 . S
H863 C841 0.950 . S
C864 C865 1.349 . S
C864 C866 1.327 . S
C864 H889 0.950 . S
C865 C864 1.349 . S
C865 C881 1.349 . S
C866 C864 1.327 . S
C866 C885 1.429 . S
C866 H890 0.950 . S
C867 C884 1.574 . S
C867 C886 1.368 . S
C867 H891 0.949 . S
H868 C872 0.949 . S
C869 C870 1.349 . S
C869 C871 1.327 . S
C869 H892 0.950 . S
C870 C869 1.349 . S
C870 C882 1.349 . S
C871 C869 1.327 . S
C871 C887 1.429 . S
C871 H893 0.950 . S
C872 H868 0.949 . S
C872 C880 1.574 . S
C872 C888 1.368 . S
H873 C881 0.950 . S
H874 C879 0.950 . S
H875 C880 0.949 . S
H876 C882 0.950 . S
H877 C883 0.950 . S
H878 C884 0.949 . S
C879 H874 0.950 . S
C879 C881 1.327 . S
C879 C885 1.429 . S
C880 C872 1.574 . S
C880 H875 0.949 . S
C880 C886 1.368 . S
C881 C865 1.349 . S
C881 H873 0.950 . S
C881 C879 1.327 . S
C882 C870 1.349 . S
C882 H876 0.950 . S
C882 C883 1.327 . S
C883 H877 0.950 . S
C883 C882 1.327 . S
C883 C887 1.429 . S
C884 C867 1.574 . S
C884 H878 0.949 . S
C884 C888 1.368 . S
C885 C866 1.429 . S
C885 C879 1.429 . S
C885 C886 1.523 . S
C886 C867 1.368 . S
C886 C880 1.368 . S
C886 C885 1.523 . S
C887 C871 1.429 . S
C887 C883 1.429 . S
C887 C888 1.523 . S
C888 C872 1.368 . S
C888 C884 1.368 . S
C888 C887 1.523 . S
H889 C864 0.950 . S
H890 C866 0.950 . S
H891 C867 0.949 . S
H892 C869 0.950 . S
H893 C871 0.950 . S
C894 C895 1.349 . S
C894 C896 1.327 . S
C894 H919 0.950 . S
C895 C894 1.349 . S
C895 C911 1.349 . S
C896 C894 1.327 . S
C896 C915 1.429 . S
C896 H920 0.950 . S
C897 C914 1.574 . S
C897 C916 1.368 . S
C897 H921 0.949 . S
H898 C902 0.949 . S
C899 C900 1.349 . S
C899 C901 1.327 . S
C899 H922 0.950 . S
C900 C899 1.349 . S
C900 C912 1.349 . S
C901 C899 1.327 . S
C901 C917 1.429 . S
C901 H923 0.950 . S
C902 H898 0.949 . S
C902 C910 1.574 . S
C902 C918 1.368 . S
H903 C911 0.950 . S
H904 C909 0.950 . S
H905 C910 0.949 . S
H906 C912 0.950 . S
H907 C913 0.950 . S
H908 C914 0.949 . S
C909 H904 0.950 . S
C909 C911 1.327 . S
C909 C915 1.429 . S
C910 C902 1.574 . S
C910 H905 0.949 . S
C910 C916 1.368 . S
C911 C895 1.349 . S
C911 H903 0.950 . S
C911 C909 1.327 . S
C912 C900 1.349 . S
C912 H906 0.950 . S
C912 C913 1.327 . S
C913 H907 0.950 . S
C913 C912 1.327 . S
C913 C917 1.429 . S
C914 C897 1.574 . S
C914 H908 0.949 . S
C914 C918 1.368 . S
C915 C896 1.429 . S
C915 C909 1.429 . S
C915 C916 1.523 . S
C916 C897 1.368 . S
C916 C910 1.368 . S
C916 C915 1.523 . S
C917 C901 1.429 . S
C917 C913 1.429 . S
C917 C918 1.523 . S
C918 C902 1.368 . S
C918 C914 1.368 . S
C918 C917 1.523 . S
H919 C894 0.950 . S
H920 C896 0.950 . S
H921 C897 0.949 . S
H922 C899 0.950 . S
H923 C901 0.950 . S
C924 C925 1.349 . S
C924 C926 1.327 . S
C924 H949 0.950 . S
C925 C924 1.349 . S
C925 C941 1.349 . S
C926 C924 1.327 . S
C926 C945 1.429 . S
C926 H950 0.950 . S
C927 C944 1.574 . S
C927 C946 1.368 . S
C927 H951 0.949 . S
H928 C932 0.949 . S
C929 C930 1.349 . S
C929 C931 1.327 . S
C929 H952 0.950 . S
C930 C929 1.349 . S
C930 C942 1.349 . S
C931 C929 1.327 . S
C931 C947 1.429 . S
C931 H953 0.950 . S
C932 H928 0.949 . S
C932 C940 1.574 . S
C932 C948 1.368 . S
H933 C941 0.950 . S
H934 C939 0.950 . S
H935 C940 0.949 . S
H936 C942 0.950 . S
H937 C943 0.950 . S
H938 C944 0.949 . S
C939 H934 0.950 . S
C939 C941 1.327 . S
C939 C945 1.429 . S
C940 C932 1.574 . S
C940 H935 0.949 . S
C940 C946 1.368 . S
C941 C925 1.349 . S
C941 H933 0.950 . S
C941 C939 1.327 . S
C942 C930 1.349 . S
C942 H936 0.950 . S
C942 C943 1.327 . S
C943 H937 0.950 . S
C943 C942 1.327 . S
C943 C947 1.429 . S
C944 C927 1.574 . S
C944 H938 0.949 . S
C944 C948 1.368 . S
C945 C926 1.429 . S
C945 C939 1.429 . S
C945 C946 1.523 . S
C946 C927 1.368 . S
C946 C940 1.368 . S
C946 C945 1.523 . S
C947 C931 1.429 . S
C947 C943 1.429 . S
C947 C948 1.523 . S
C948 C932 1.368 . S
C948 C944 1.368 . S
C948 C947 1.523 . S
H949 C924 0.950 . S
H950 C926 0.950 . S
H951 C927 0.949 . S
H952 C929 0.950 . S
H953 C931 0.950 . S
C954 C955 1.349 . S
C954 C956 1.327 . S
C954 H979 0.950 . S
C955 C954 1.349 . S
C955 C971 1.349 . S
C956 C954 1.327 . S
C956 C975 1.429 . S
C956 H980 0.950 . S
C957 C974 1.574 . S
C957 C976 1.368 . S
C957 H981 0.949 . S
H958 C962 0.949 . S
C959 C960 1.349 . S
C959 C961 1.327 . S
C959 H982 0.950 . S
C960 C959 1.349 . S
C960 C972 1.349 . S
C961 C959 1.327 . S
C961 C977 1.429 . S
C961 H983 0.950 . S
C962 H958 0.949 . S
C962 C970 1.574 . S
C962 C978 1.368 . S
H963 C971 0.950 . S
H964 C969 0.950 . S
H965 C970 0.949 . S
H966 C972 0.950 . S
H967 C973 0.950 . S
H968 C974 0.949 . S
C969 H964 0.950 . S
C969 C971 1.327 . S
C969 C975 1.429 . S
C970 C962 1.574 . S
C970 H965 0.949 . S
C970 C976 1.368 . S
C971 C955 1.349 . S
C971 H963 0.950 . S
C971 C969 1.327 . S
C972 C960 1.349 . S
C972 H966 0.950 . S
C972 C973 1.327 . S
C973 H967 0.950 . S
C973 C972 1.327 . S
C973 C977 1.429 . S
C974 C957 1.574 . S
C974 H968 0.949 . S
C974 C978 1.368 . S
C975 C956 1.429 . S
C975 C969 1.429 . S
C975 C976 1.523 . S
C976 C957 1.368 . S
C976 C970 1.368 . S
C976 C975 1.523 . S
C977 C961 1.429 . S
C977 C973 1.429 . S
C977 C978 1.523 . S
C978 C962 1.368 . S
C978 C974 1.368 . S
C978 C977 1.523 . S
H979 C954 0.950 . S
H980 C956 0.950 . S
H981 C957 0.949 . S
H982 C959 0.950 . S
H983 C961 0.950 . S
C265 C9 1.507 . S
C270 C111 1.541 . S
C295 C21 1.044 . S
C300 C160 1.045 . S
C330 C186 2.079 . S
C325 C30 2.066 . S
C355 C43 2.074 . S
C360 C234 2.135 1_655 S
C390 C146 2.156 . S
C385 C4 1.934 . S
C420 C114 1.708 . S
C415 C22 1.755 . S
C450 C235 1.459 . S
C445 C34 1.473 . S
C480 C203 1.351 . S
C475 C48 1.368 . S
C505 C8 1.629 . S
C510 C231 1.667 . S
C540 C163 2.253 . S
C535 C35 2.312 . S
C565 C47 2.565 . S
C570 C115 2.558 . S
C595 C17 0.693 . S
C600 C200 0.692 . S
C630 C120 1.052 . S
C625 C60 1.039 . S
C655 C74 1.121 . S
C660 C151 1.116 . S
C685 C82 1.789 . S
C690 C195 1.843 . S
C715 C100 2.698 . S
C720 C243 2.631 . S
C745 C61 2.597 . S
C750 C155 2.677 . S
C780 C123 0.894 . S
C775 C73 0.908 . S
C810 C226 2.119 . S
C805 C87 2.157 . S
C840 C194 1.110 . S
C835 C95 1.101 . S
C865 C56 1.587 . S
C870 C240 1.589 . S
C900 C154 2.462 . S
C895 C86 2.521 . S
C930 C106 2.295 . S
C925 C99 2.297 . S
C955 C69 0.661 . S
C960 C191 0.620 . S
