# Generated by pormake.
# Topology pyr, (3,6)-cn, num edge types: 1
# Building blocks:
#     Node 0, Type 0, BuildingBlock: VETTIZ_charged_linker_0, # of connection points: 3
#     Node 1, Type 0, BuildingBlock: VETTIZ_charged_linker_0, # of connection points: 3
#     Node 2, Type 0, BuildingBlock: VETTIZ_charged_linker_0, # of connection points: 3
#     Node 3, Type 0, BuildingBlock: VETTIZ_charged_linker_0, # of connection points: 3
#     Node 4, Type 0, BuildingBlock: VETTIZ_charged_linker_0, # of connection points: 3
#     Node 5, Type 0, BuildingBlock: VETTIZ_charged_linker_0, # of connection points: 3
#     Node 6, Type 0, BuildingBlock: VETTIZ_charged_linker_0, # of connection points: 3
#     Node 7, Type 0, BuildingBlock: VETTIZ_charged_linker_0, # of connection points: 3
#     Node 8, Type 1, BuildingBlock: PAMTUU_clean_sbu_0, # of connection points: 6
#     Node 9, Type 1, BuildingBlock: PAMTUU_clean_sbu_0, # of connection points: 6
#     Node 10, Type 1, BuildingBlock: PAMTUU_clean_sbu_0, # of connection points: 6
#     Node 11, Type 1, BuildingBlock: PAMTUU_clean_sbu_0, # of connection points: 6
#     Edge 12, Type (0, 1), BuildingBlock: XUDNAN_clean_linker_2, # of connection points: 2
#     Edge 13, Type (0, 1), BuildingBlock: XUDNAN_clean_linker_2, # of connection points: 2
#     Edge 14, Type (0, 1), BuildingBlock: XUDNAN_clean_linker_2, # of connection points: 2
#     Edge 15, Type (0, 1), BuildingBlock: XUDNAN_clean_linker_2, # of connection points: 2
#     Edge 16, Type (0, 1), BuildingBlock: XUDNAN_clean_linker_2, # of connection points: 2
#     Edge 17, Type (0, 1), BuildingBlock: XUDNAN_clean_linker_2, # of connection points: 2
#     Edge 18, Type (0, 1), BuildingBlock: XUDNAN_clean_linker_2, # of connection points: 2
#     Edge 19, Type (0, 1), BuildingBlock: XUDNAN_clean_linker_2, # of connection points: 2
#     Edge 20, Type (0, 1), BuildingBlock: XUDNAN_clean_linker_2, # of connection points: 2
#     Edge 21, Type (0, 1), BuildingBlock: XUDNAN_clean_linker_2, # of connection points: 2
#     Edge 22, Type (0, 1), BuildingBlock: XUDNAN_clean_linker_2, # of connection points: 2
#     Edge 23, Type (0, 1), BuildingBlock: XUDNAN_clean_linker_2, # of connection points: 2
#     Edge 24, Type (0, 1), BuildingBlock: XUDNAN_clean_linker_2, # of connection points: 2
#     Edge 25, Type (0, 1), BuildingBlock: XUDNAN_clean_linker_2, # of connection points: 2
#     Edge 26, Type (0, 1), BuildingBlock: XUDNAN_clean_linker_2, # of connection points: 2
#     Edge 27, Type (0, 1), BuildingBlock: XUDNAN_clean_linker_2, # of connection points: 2
#     Edge 28, Type (0, 1), BuildingBlock: XUDNAN_clean_linker_2, # of connection points: 2
#     Edge 29, Type (0, 1), BuildingBlock: XUDNAN_clean_linker_2, # of connection points: 2
#     Edge 30, Type (0, 1), BuildingBlock: XUDNAN_clean_linker_2, # of connection points: 2
#     Edge 31, Type (0, 1), BuildingBlock: XUDNAN_clean_linker_2, # of connection points: 2
#     Edge 32, Type (0, 1), BuildingBlock: XUDNAN_clean_linker_2, # of connection points: 2
#     Edge 33, Type (0, 1), BuildingBlock: XUDNAN_clean_linker_2, # of connection points: 2
#     Edge 34, Type (0, 1), BuildingBlock: XUDNAN_clean_linker_2, # of connection points: 2
#     Edge 35, Type (0, 1), BuildingBlock: XUDNAN_clean_linker_2, # of connection points: 2
# Relax obj value: 0.087
# Max RMSD: 0.125
# Mean RMSD: 0.052
data_MOF--net-pyr--node1-PAMTUU_clean_sbu_0--node2-VETTIZ_charged_linker_0--edge1-XUDNAN_clean_linker_2
_symmetry_space_group_name_H-M    P1
_symmetry_Int_Tables_number       1
_symmetry_cell_setting            triclinic
loop_
_symmetry_equiv_pos_as_xyz
'x, y, z'
_cell_length_a     46.241521
_cell_length_b     47.790216
_cell_length_c     46.698477
_cell_angle_alpha  90.212541
_cell_angle_beta   89.023543
_cell_angle_gamma 99.674074
loop_
_atom_site_label
_atom_site_type_symbol
_atom_site_fract_x
_atom_site_fract_y
_atom_site_fract_z
_atom_type_partial_charge
C0 C 0.30072 0.20077 0.28507 0.0
C1 C 0.27165 0.19817 0.2955 0.0
C2 C 0.25242 0.21382 0.28198 0.0
C3 C 0.28983 0.23067 0.24624 0.0
C4 C 0.30903 0.21636 0.26013 0.0
C5 C 0.33708 0.21647 0.24335 0.0
H6 H 0.40524 0.22901 0.1152 0.0
C7 C 0.30393 0.24163 0.21899 0.0
C8 C 0.33155 0.23331 0.21706 0.0
H9 H 0.43251 0.19435 0.19388 0.0
H10 H 0.39501 0.21299 0.22013 0.0
H11 H 0.39395 0.28889 0.14625 0.0
H12 H 0.33599 0.21195 0.12355 0.0
H13 H 0.32177 0.24187 0.11145 0.0
H14 H 0.35665 0.23569 0.09797 0.0
H15 H 0.38049 0.28292 0.11058 0.0
H16 H 0.36003 0.29849 0.13793 0.0
C17 C 0.36285 0.23217 0.26114 0.0
C18 C 0.33921 0.18513 0.23606 0.0
C19 C 0.2475 0.29323 0.15066 0.0
C20 C 0.25371 0.30491 0.12324 0.0
C21 C 0.28078 0.30263 0.1098 0.0
C22 C 0.30127 0.28891 0.12358 0.0
C23 C 0.29453 0.27724 0.15097 0.0
C24 C 0.26815 0.27985 0.16412 0.0
C25 C 0.26452 0.26639 0.19321 0.0
C26 C 0.29357 0.25609 0.19587 0.0
C27 C 0.31087 0.26198 0.17089 0.0
C28 C 0.26118 0.28973 0.21554 0.0
C29 C 0.23816 0.2415 0.19237 0.0
C30 C 0.40311 0.2256 0.13811 0.0
C31 C 0.42149 0.20963 0.1523 0.0
C32 C 0.41876 0.20651 0.1823 0.0
C33 C 0.39664 0.21697 0.19753 0.0
C34 C 0.37661 0.2302 0.18266 0.0
C35 C 0.38093 0.23586 0.15377 0.0
C36 C 0.35827 0.25196 0.14224 0.0
C37 C 0.33834 0.25258 0.16843 0.0
C38 C 0.34901 0.23926 0.19181 0.0
C39 C 0.37382 0.2821 0.13356 0.0
C40 C 0.34228 0.23465 0.11737 0.0
H41 H 0.24558 0.24106 0.24803 0.0
H42 H 0.31639 0.18964 0.29511 0.0
H43 H 0.31732 0.17308 0.23038 0.0
H44 H 0.35335 0.18263 0.21738 0.0
H45 H 0.3472 0.17433 0.25463 0.0
H46 H 0.35558 0.24848 0.27535 0.0
H47 H 0.37225 0.2172 0.27494 0.0
H48 H 0.38052 0.24413 0.24754 0.0
H49 H 0.22669 0.29395 0.16139 0.0
H50 H 0.28621 0.31163 0.08876 0.0
H51 H 0.32144 0.28768 0.11232 0.0
H52 H 0.2768 0.30955 0.21065 0.0
H53 H 0.23865 0.29493 0.21546 0.0
H54 H 0.26623 0.28386 0.23752 0.0
H55 H 0.23387 0.23339 0.17021 0.0
H56 H 0.24217 0.22274 0.20455 0.0
H57 H 0.21771 0.24819 0.20062 0.0
H58 H 0.22981 0.21222 0.2891 0.0
C59 C 0.26148 0.23029 0.25768 0.0
C60 C 0.1395 0.83093 0.65389 0.0
C61 C 0.12296 0.84714 0.67073 0.0
C62 C 0.12698 0.84845 0.70057 0.0
C63 C 0.16496 0.81935 0.69613 0.0
C64 C 0.16013 0.81705 0.66703 0.0
C65 C 0.17954 0.79887 0.65237 0.0
H66 H 0.2934 0.72718 0.66052 0.0
C67 C 0.18882 0.80356 0.70288 0.0
C68 C 0.19714 0.79108 0.67741 0.0
H69 H 0.24263 0.7387 0.58583 0.0
H70 H 0.21134 0.76391 0.61462 0.0
H71 H 0.29628 0.78905 0.68461 0.0
H72 H 0.23905 0.7105 0.70333 0.0
H73 H 0.24469 0.72856 0.7361 0.0
H74 H 0.27557 0.71836 0.71692 0.0
H75 H 0.30786 0.76055 0.70386 0.0
H76 H 0.29136 0.7874 0.72191 0.0
C77 C 0.19908 0.81745 0.63003 0.0
C78 C 0.1598 0.77254 0.6396 0.0
C79 C 0.23508 0.81389 0.80108 0.0
C80 C 0.25935 0.80388 0.81259 0.0
C81 C 0.27239 0.78386 0.79696 0.0
C82 C 0.26261 0.7753 0.76959 0.0
C83 C 0.23968 0.78701 0.75757 0.0
C84 C 0.22564 0.8052 0.77362 0.0
C85 C 0.20143 0.8152 0.75741 0.0
C86 C 0.20415 0.80094 0.72857 0.0
C87 C 0.22681 0.78477 0.72876 0.0
C88 C 0.20865 0.84798 0.75519 0.0
C89 C 0.17183 0.80382 0.77279 0.0
C90 C 0.27522 0.73457 0.65034 0.0
C91 C 0.27046 0.73076 0.62082 0.0
C92 C 0.24695 0.74153 0.60847 0.0
C93 C 0.22875 0.75607 0.62525 0.0
C94 C 0.2342 0.76004 0.65467 0.0
C95 C 0.25693 0.74902 0.66671 0.0
C96 C 0.25992 0.75537 0.69812 0.0
C97 C 0.23509 0.77193 0.70313 0.0
C98 C 0.22024 0.77489 0.67761 0.0
C99 C 0.29043 0.77389 0.70266 0.0
C100 C 0.25479 0.72684 0.71466 0.0
H101 H 0.15028 0.83683 0.73608 0.0
H102 H 0.1365 0.82918 0.63095 0.0
H103 H 0.13994 0.76583 0.6533 0.0
H104 H 0.17077 0.75372 0.6385 0.0
H105 H 0.1523 0.77711 0.6179 0.0
H106 H 0.20699 0.83899 0.63884 0.0
H107 H 0.18666 0.82002 0.61033 0.0
H108 H 0.2191 0.809 0.624 0.0
H109 H 0.22432 0.82894 0.81282 0.0
H110 H 0.29119 0.77593 0.80525 0.0
H111 H 0.27405 0.76071 0.75843 0.0
H112 H 0.23223 0.85493 0.74955 0.0
H113 H 0.2042 0.85809 0.7759 0.0
H114 H 0.19638 0.8568 0.73838 0.0
H115 H 0.17291 0.78409 0.78502 0.0
H116 H 0.15376 0.79766 0.75757 0.0
H117 H 0.1656 0.81965 0.78818 0.0
H118 H 0.11454 0.86089 0.71394 0.0
C119 C 0.14786 0.83463 0.71335 0.0
C120 C 0.63329 0.26926 0.89193 0.0
C121 C 0.60757 0.25152 0.88215 0.0
C122 C 0.59328 0.26231 0.85882 0.0
C123 C 0.63034 0.30556 0.85491 0.0
C124 C 0.64408 0.29576 0.87816 0.0
C125 C 0.67114 0.31659 0.88601 0.0
H126 H 0.77131 0.43709 0.86359 0.0
C127 C 0.6477 0.33389 0.84511 0.0
C128 C 0.67172 0.3402 0.86376 0.0
H129 H 0.76927 0.37348 0.92942 0.0
H130 H 0.72377 0.34838 0.91172 0.0
H131 H 0.69731 0.43858 0.86779 0.0
H132 H 0.74728 0.3924 0.81089 0.0
H133 H 0.7226 0.40919 0.79145 0.0
H134 H 0.75186 0.43051 0.81062 0.0
H135 H 0.72317 0.45641 0.84194 0.0
H136 H 0.68632 0.44131 0.83209 0.0
C137 C 0.66641 0.32742 0.91679 0.0
C138 C 0.69798 0.30128 0.88242 0.0
C139 C 0.61612 0.3892 0.75763 0.0
C140 C 0.62753 0.41584 0.7445 0.0
C141 C 0.65378 0.43085 0.75618 0.0
C142 C 0.66798 0.42044 0.77962 0.0
C143 C 0.65617 0.39438 0.79276 0.0
C144 C 0.63061 0.37906 0.78163 0.0
C145 C 0.62096 0.35199 0.79902 0.0
C146 C 0.64464 0.35352 0.8221 0.0
C147 C 0.66555 0.37871 0.81834 0.0
C148 C 0.59048 0.35321 0.81247 0.0
C149 C 0.62125 0.32634 0.77893 0.0
C150 C 0.76074 0.41803 0.87445 0.0
C151 C 0.77453 0.40755 0.89836 0.0
C152 C 0.75971 0.38232 0.91123 0.0
C153 C 0.73304 0.36753 0.90072 0.0
C154 C 0.72005 0.37752 0.87657 0.0
C155 C 0.73356 0.40266 0.86399 0.0
C156 C 0.71577 0.4098 0.83855 0.0
C157 C 0.68995 0.38475 0.83776 0.0
C158 C 0.69281 0.36577 0.86028 0.0
C159 C 0.70513 0.43812 0.84516 0.0
C160 C 0.73532 0.41075 0.81132 0.0
H161 H 0.59219 0.29489 0.82778 0.0
H162 H 0.6453 0.26246 0.90958 0.0
H163 H 0.69555 0.28716 0.8633 0.0
H164 H 0.71876 0.316 0.87862 0.0
H165 H 0.70034 0.28792 0.90137 0.0
H166 H 0.64286 0.32846 0.92107 0.0
H167 H 0.67339 0.31317 0.93309 0.0
H168 H 0.6779 0.34933 0.92037 0.0
H169 H 0.59583 0.37699 0.75006 0.0
H170 H 0.66338 0.45125 0.74722 0.0
H171 H 0.68769 0.43341 0.78693 0.0
H172 H 0.58988 0.37459 0.82171 0.0
H173 H 0.57308 0.34892 0.79615 0.0
H174 H 0.5849 0.33809 0.8303 0.0
H175 H 0.64201 0.32904 0.76608 0.0
H176 H 0.62011 0.30621 0.79068 0.0
H177 H 0.60269 0.32419 0.76383 0.0
H178 H 0.57304 0.25044 0.8508 0.0
C179 C 0.60437 0.28864 0.84533 0.0
C180 C 0.91615 0.77471 0.36702 0.0
C181 C 0.9062 0.78832 0.39178 0.0
C182 C 0.88209 0.77336 0.40722 0.0
C183 C 0.87706 0.73352 0.37371 0.0
C184 C 0.90124 0.74716 0.35845 0.0
C185 C 0.90767 0.72884 0.33281 0.0
H186 H 0.86794 0.60449 0.25459 0.0
C187 C 0.86522 0.70601 0.35927 0.0
C188 C 0.88309 0.70264 0.33507 0.0
H189 H 0.94301 0.66963 0.2375 0.0
H190 H 0.92876 0.69708 0.27787 0.0
H191 H 0.8748 0.60448 0.32454 0.0
H192 H 0.82131 0.64802 0.27072 0.0
H193 H 0.8002 0.6313 0.29961 0.0
H194 H 0.81558 0.60997 0.27346 0.0
H195 H 0.84543 0.58558 0.30373 0.0
H196 H 0.83855 0.60023 0.33826 0.0
C197 C 0.9382 0.72067 0.3367 0.0
C198 C 0.90545 0.74563 0.30506 0.0
C199 C 0.77251 0.64719 0.40294 0.0
C200 C 0.75499 0.62062 0.39705 0.0
C201 C 0.76301 0.60587 0.37253 0.0
C202 C 0.78786 0.61693 0.35511 0.0
C203 C 0.80542 0.64325 0.36195 0.0
C204 C 0.79726 0.65773 0.38562 0.0
C205 C 0.81803 0.68506 0.39055 0.0
C206 C 0.84012 0.68507 0.36597 0.0
C207 C 0.83293 0.66058 0.34894 0.0
C208 C 0.83244 0.68294 0.42011 0.0
C209 C 0.80031 0.70975 0.38786 0.0
C210 C 0.88184 0.62443 0.25941 0.0
C211 C 0.9072 0.63415 0.24214 0.0
C212 C 0.92342 0.66106 0.24967 0.0
C213 C 0.91522 0.67704 0.27351 0.0
C214 C 0.89028 0.6665 0.2907 0.0
C215 C 0.87402 0.64051 0.28317 0.0
C216 C 0.84809 0.63205 0.30338 0.0
C217 C 0.85129 0.65677 0.32451 0.0
C218 C 0.87623 0.67746 0.31727 0.0
C219 C 0.85162 0.604 0.31825 0.0
C220 C 0.81966 0.63 0.28601 0.0
H221 H 0.84933 0.7372 0.41147 0.0
H222 H 0.93441 0.7855 0.3543 0.0
H223 H 0.88457 0.75427 0.30501 0.0
H224 H 0.90552 0.73224 0.28578 0.0
H225 H 0.92391 0.76372 0.30314 0.0
H226 H 0.94007 0.71213 0.35859 0.0
H227 H 0.95572 0.73948 0.33379 0.0
H228 H 0.94248 0.704 0.32159 0.0
H229 H 0.76722 0.6599 0.42089 0.0
H230 H 0.75048 0.58539 0.36708 0.0
H231 H 0.7927 0.60439 0.33707 0.0
H232 H 0.83388 0.66055 0.4255 0.0
H233 H 0.81964 0.69128 0.43755 0.0
H234 H 0.85544 0.69405 0.42059 0.0
H235 H 0.78318 0.70496 0.37127 0.0
H236 H 0.81386 0.72985 0.38073 0.0
H237 H 0.78906 0.71342 0.4084 0.0
H238 H 0.87372 0.78291 0.42604 0.0
C239 C 0.86773 0.74655 0.39852 0.0
C240 C 0.76858 0.74025 0.89439 0.0
C241 C 0.79502 0.73463 0.88212 0.0
C242 C 0.80145 0.74181 0.85315 0.0
C243 C 0.75631 0.76095 0.84975 0.0
C244 C 0.74973 0.75346 0.87794 0.0
C245 C 0.72177 0.76254 0.88835 0.0
H246 H 0.62244 0.84793 0.86868 0.0
C247 C 0.73267 0.77518 0.83901 0.0
C248 C 0.71223 0.77603 0.86143 0.0
H249 H 0.64299 0.80701 0.94618 0.0
H250 H 0.67238 0.77869 0.91903 0.0
H251 H 0.61501 0.79284 0.828 0.0
H252 H 0.68777 0.86003 0.84166 0.0
H253 H 0.67952 0.85528 0.80476 0.0
H254 H 0.65222 0.86399 0.82876 0.0
H255 H 0.62114 0.82359 0.8055 0.0
H256 H 0.63789 0.79287 0.79741 0.0
C257 C 0.69975 0.73568 0.89687 0.0
C258 C 0.72929 0.78428 0.91314 0.0
C259 C 0.74329 0.82345 0.74182 0.0
C260 C 0.72448 0.83763 0.72587 0.0
C261 C 0.69512 0.83608 0.73568 0.0
C262 C 0.6858 0.82357 0.76207 0.0
C263 C 0.70585 0.81224 0.77882 0.0
C264 C 0.7333 0.81044 0.76778 0.0
C265 C 0.75008 0.79401 0.78709 0.0
C266 C 0.72874 0.78798 0.8123 0.0
C267 C 0.70339 0.79978 0.80773 0.0
C268 C 0.75478 0.76643 0.77137 0.0
C269 C 0.77883 0.8136 0.79561 0.0
C270 C 0.6327 0.83227 0.87952 0.0
C271 C 0.63094 0.82992 0.9095 0.0
C272 C 0.64444 0.80937 0.9231 0.0
C273 C 0.66176 0.79325 0.90738 0.0
C274 C 0.66613 0.79819 0.87789 0.0
C275 C 0.65073 0.81647 0.86412 0.0
C276 C 0.65889 0.81956 0.83277 0.0
C277 C 0.68334 0.80183 0.83071 0.0
C278 C 0.68753 0.78959 0.85729 0.0
C279 C 0.63191 0.80672 0.81488 0.0
C280 C 0.67021 0.85136 0.82648 0.0
H281 H 0.78857 0.76014 0.81517 0.0
H282 H 0.76273 0.73479 0.91646 0.0
H283 H 0.75323 0.79251 0.91425 0.0
H284 H 0.71919 0.8035 0.91038 0.0
H285 H 0.72236 0.77464 0.93429 0.0
H286 H 0.70001 0.71863 0.88062 0.0
H287 H 0.70543 0.7273 0.91783 0.0
H288 H 0.67684 0.7395 0.89801 0.0
H289 H 0.76578 0.82339 0.73519 0.0
H290 H 0.67936 0.84512 0.72335 0.0
H291 H 0.66359 0.82378 0.7689 0.0
H292 H 0.7378 0.76004 0.75491 0.0
H293 H 0.77652 0.76917 0.76031 0.0
H294 H 0.75266 0.74799 0.786 0.0
H295 H 0.77441 0.83511 0.8014 0.0
H296 H 0.78918 0.80601 0.81451 0.0
H297 H 0.79506 0.81601 0.77761 0.0
H298 H 0.82179 0.73813 0.84319 0.0
C299 C 0.78219 0.75478 0.83691 0.0
C300 C 0.88703 0.20404 0.39235 0.0
C301 C 0.90483 0.18683 0.37841 0.0
C302 C 0.90202 0.18239 0.34866 0.0
C303 C 0.86362 0.21123 0.34749 0.0
C304 C 0.86671 0.21598 0.37655 0.0
C305 C 0.84567 0.23423 0.3882 0.0
H306 H 0.7282 0.29848 0.36686 0.0
C307 C 0.83996 0.22595 0.33762 0.0
C308 C 0.82947 0.23967 0.3613 0.0
H309 H 0.77565 0.29399 0.44535 0.0
H310 H 0.81034 0.26989 0.42038 0.0
H311 H 0.73223 0.23548 0.34374 0.0
H312 H 0.78486 0.31731 0.32799 0.0
H313 H 0.78538 0.2981 0.29592 0.0
H314 H 0.75099 0.30615 0.30986 0.0
H315 H 0.71928 0.26385 0.32542 0.0
H316 H 0.73849 0.23956 0.30656 0.0
C317 C 0.82522 0.21648 0.4105 0.0
C318 C 0.8637 0.2619 0.40027 0.0
C319 C 0.80503 0.21229 0.23531 0.0
C320 C 0.78257 0.22201 0.22032 0.0
C321 C 0.76719 0.24179 0.2335 0.0
C322 C 0.773 0.25056 0.2618 0.0
C323 C 0.79439 0.23941 0.27708 0.0
C324 C 0.81065 0.22135 0.2635 0.0
C325 C 0.83296 0.21217 0.28283 0.0
C326 C 0.82689 0.22711 0.31047 0.0
C327 C 0.80398 0.24265 0.30711 0.0
C328 C 0.82583 0.17942 0.28581 0.0
C329 C 0.86394 0.22359 0.27029 0.0
C330 C 0.74624 0.29271 0.37869 0.0
C331 C 0.74878 0.2979 0.40832 0.0
C332 C 0.77262 0.2897 0.42272 0.0
C333 C 0.79289 0.27581 0.40813 0.0
C334 C 0.78944 0.26999 0.37876 0.0
C335 C 0.76677 0.27897 0.36442 0.0
C336 C 0.7669 0.27162 0.33308 0.0
C337 C 0.79303 0.25621 0.3311 0.0
C338 C 0.80594 0.25501 0.35799 0.0
C339 C 0.73771 0.2517 0.32659 0.0
C340 C 0.77209 0.29961 0.31562 0.0
H341 H 0.88047 0.19024 0.3106 0.0
H342 H 0.88833 0.20762 0.41524 0.0
H343 H 0.88443 0.26825 0.38774 0.0
H344 H 0.85212 0.28026 0.39873 0.0
H345 H 0.86965 0.25916 0.42291 0.0
H346 H 0.81889 0.1942 0.40301 0.0
H347 H 0.83631 0.21593 0.43135 0.0
H348 H 0.8043 0.22422 0.41411 0.0
H349 H 0.81738 0.1973 0.22555 0.0
H350 H 0.74967 0.24942 0.22238 0.0
H351 H 0.75999 0.265 0.27097 0.0
H352 H 0.8017 0.17211 0.28737 0.0
H353 H 0.83422 0.1688 0.26697 0.0
H354 H 0.83463 0.17144 0.30541 0.0
H355 H 0.86421 0.24378 0.2584 0.0
H356 H 0.88056 0.22902 0.28706 0.0
H357 H 0.87131 0.20813 0.25516 0.0
H358 H 0.9157 0.16954 0.33734 0.0
C359 C 0.88163 0.19456 0.33314 0.0
C360 C 0.41251 0.64741 0.28725 0.0
C361 C 0.40002 0.62117 0.30075 0.0
C362 C 0.3728 0.60755 0.28973 0.0
C363 C 0.37199 0.64384 0.25272 0.0
C364 C 0.3982 0.65821 0.26341 0.0
C365 C 0.40845 0.68511 0.2458 0.0
H366 H 0.38364 0.77724 0.13759 0.0
C367 C 0.36285 0.65987 0.22732 0.0
C368 C 0.38427 0.68453 0.22326 0.0
H369 H 0.45878 0.78468 0.19283 0.0
H370 H 0.43845 0.74096 0.21592 0.0
H371 H 0.33291 0.7511 0.18499 0.0
H372 H 0.3842 0.71021 0.12495 0.0
H373 H 0.34832 0.69104 0.1255 0.0
H374 H 0.35477 0.7275 0.11362 0.0
H375 H 0.32908 0.7532 0.14687 0.0
H376 H 0.3096 0.72378 0.16718 0.0
C377 C 0.40979 0.71092 0.26596 0.0
C378 C 0.43831 0.68265 0.23162 0.0
C379 C 0.26908 0.61947 0.17092 0.0
C380 C 0.25505 0.62844 0.14632 0.0
C381 C 0.26823 0.65478 0.13423 0.0
C382 C 0.29396 0.67115 0.1456 0.0
C383 C 0.30768 0.66159 0.16965 0.0
C384 C 0.29509 0.63608 0.18196 0.0
C385 C 0.31273 0.62917 0.20746 0.0
C386 C 0.33821 0.65432 0.20822 0.0
C387 C 0.33507 0.6735 0.18592 0.0
C388 C 0.29294 0.62829 0.23458 0.0
C389 C 0.32372 0.60094 0.20108 0.0
C390 C 0.39597 0.76974 0.15458 0.0
C391 C 0.42283 0.78635 0.16348 0.0
C392 C 0.43756 0.77425 0.18571 0.0
C393 C 0.42582 0.74815 0.19923 0.0
C394 C 0.39886 0.73248 0.19061 0.0
C395 C 0.38471 0.74319 0.16816 0.0
C396 C 0.35712 0.72284 0.16052 0.0
C397 C 0.35653 0.69882 0.18233 0.0
C398 C 0.38111 0.70441 0.20047 0.0
C399 C 0.33065 0.73843 0.16487 0.0
C400 C 0.36098 0.71238 0.12948 0.0
H401 H 0.33866 0.60632 0.25953 0.0
H402 H 0.43333 0.65883 0.29446 0.0
H403 H 0.43786 0.66101 0.22259 0.0
H404 H 0.44389 0.69739 0.21348 0.0
H405 H 0.45621 0.68655 0.24745 0.0
H406 H 0.38923 0.70921 0.27903 0.0
H407 H 0.42844 0.7121 0.28085 0.0
H408 H 0.41192 0.73117 0.25426 0.0
H409 H 0.26003 0.59989 0.18171 0.0
H410 H 0.25908 0.66273 0.11534 0.0
H411 H 0.30238 0.69077 0.13495 0.0
H412 H 0.27914 0.64522 0.23381 0.0
H413 H 0.278 0.60757 0.23651 0.0
H414 H 0.30559 0.6324 0.25443 0.0
H415 H 0.33174 0.60049 0.17851 0.0
H416 H 0.34246 0.59789 0.21432 0.0
H417 H 0.30581 0.58252 0.20421 0.0
H418 H 0.36189 0.58786 0.29923 0.0
C419 C 0.35904 0.61844 0.26635 0.0
C420 C 0.11087 0.26387 0.67141 0.0
C421 C 0.12253 0.2506 0.64734 0.0
C422 C 0.15067 0.26321 0.63716 0.0
C423 C 0.15367 0.3022 0.67142 0.0
C424 C 0.12695 0.28963 0.68315 0.0
C425 C 0.11885 0.30721 0.70863 0.0
H426 H 0.15196 0.42769 0.79395 0.0
C427 C 0.16448 0.32946 0.68682 0.0
C428 C 0.14424 0.33274 0.70909 0.0
H429 H 0.07974 0.35848 0.80534 0.0
H430 H 0.09511 0.33539 0.76273 0.0
H431 H 0.14826 0.43021 0.72201 0.0
H432 H 0.20062 0.38792 0.77796 0.0
H433 H 0.22302 0.40503 0.75016 0.0
H434 H 0.20556 0.42592 0.77518 0.0
H435 H 0.1766 0.44951 0.74371 0.0
H436 H 0.18479 0.43549 0.70917 0.0
C437 C 0.08924 0.31663 0.70267 0.0
C438 C 0.11823 0.28889 0.73583 0.0
C439 C 0.25816 0.39276 0.64838 0.0
C440 C 0.27328 0.42005 0.65564 0.0
C441 C 0.26243 0.43354 0.67971 0.0
C442 C 0.23728 0.42082 0.69549 0.0
C443 C 0.22202 0.39396 0.68751 0.0
C444 C 0.23274 0.38038 0.66433 0.0
C445 C 0.21356 0.35218 0.65851 0.0
C446 C 0.18956 0.35104 0.68168 0.0
C447 C 0.1945 0.3756 0.69892 0.0
C448 C 0.20107 0.35351 0.62804 0.0
C449 C 0.23235 0.32853 0.66267 0.0
C450 C 0.13917 0.40778 0.78711 0.0
C451 C 0.11421 0.39531 0.80353 0.0
C452 C 0.09892 0.36891 0.79358 0.0
C453 C 0.10803 0.35527 0.76874 0.0
C454 C 0.13333 0.36753 0.75312 0.0
C455 C 0.14838 0.39353 0.76242 0.0
C456 C 0.17525 0.40318 0.74364 0.0
C457 C 0.17426 0.37884 0.72202 0.0
C458 C 0.14931 0.35768 0.72733 0.0
C459 C 0.17133 0.43119 0.7289 0.0
C460 C 0.20269 0.40591 0.76259 0.0
H461 H 0.18684 0.29659 0.63909 0.0
H462 H 0.08955 0.25497 0.68028 0.0
H463 H 0.13763 0.27792 0.73609 0.0
H464 H 0.11929 0.30156 0.75567 0.0
H465 H 0.09819 0.2724 0.73669 0.0
H466 H 0.0895 0.32594 0.68085 0.0
H467 H 0.07098 0.29829 0.70391 0.0
H468 H 0.08437 0.33312 0.71774 0.0
H469 H 0.26534 0.3816 0.63007 0.0
H470 H 0.27346 0.45425 0.68645 0.0
H471 H 0.2305 0.43257 0.7133 0.0
H472 H 0.19526 0.37479 0.62391 0.0
H473 H 0.21739 0.34963 0.6114 0.0
H474 H 0.18053 0.33846 0.62484 0.0
H475 H 0.24978 0.33489 0.6787 0.0
H476 H 0.21942 0.30871 0.67138 0.0
H477 H 0.24332 0.32376 0.64232 0.0
H478 H 0.16091 0.25366 0.61944 0.0
C479 C 0.16595 0.28847 0.64874 0.0
Tb480 Tb 0.04003 1.0152 0.5064 0.0
Tb481 Tb 0.98114 0.01763 0.54414 0.0
C482 C 0.98366 0.96927 0.49645 0.0
C483 C 0.10764 0.03185 0.45969 0.0
C484 C 0.15131 0.06576 0.4265 0.0
C485 C 0.14121 0.03732 0.41894 0.0
C486 C 0.11966 0.02053 0.43547 0.0
C487 C 0.11696 0.06044 0.46698 0.0
C488 C 0.13871 0.07726 0.45052 0.0
C489 C 0.08611 1.01309 0.47732 0.0
O490 O 1.01303 0.03817 0.48025 0.0
O491 O 0.98682 0.05454 0.51681 0.0
O492 O 0.01517 0.0499 0.56433 0.0
O493 O 0.0478 0.05769 0.52644 0.0
O494 O 0.93694 0.02252 0.54469 0.0
O495 O 0.95927 1.01663 0.584 0.0
O496 O 0.99777 0.98107 0.56023 0.0
O497 O 0.04578 0.99535 0.54715 0.0
O498 O 1.01239 0.97372 0.49869 0.0
O499 O 0.96818 0.98729 0.50848 0.0
C500 C 0.99663 0.05594 0.49036 0.0
O501 O 0.08575 0.01842 0.5047 0.0
O502 O 0.05977 1.00678 0.46713 0.0
C503 C 0.03783 0.06578 0.55136 0.0
C504 C 0.90841 0.99981 0.58281 0.0
C505 C 0.85737 0.96427 0.60296 0.0
C506 C 0.86444 0.99247 0.61263 0.0
C507 C 0.88968 1.01005 0.60259 0.0
C508 C 0.90181 0.97163 0.5732 0.0
C509 C 0.87643 0.95394 0.58325 0.0
C510 C 0.9344 0.01916 0.57237 0.0
C511 C 0.02555 0.97911 0.56229 0.0
H512 H 0.14993 0.02799 0.4002 0.0
H513 H 0.11254 0.99856 0.42944 0.0
H514 H 0.10778 0.06962 0.48557 0.0
H515 H 0.1461 0.09904 0.45697 0.0
H516 H 0.85066 1.00093 0.62829 0.0
H517 H 0.89459 0.03172 0.61031 0.0
H518 H 0.91615 0.96343 0.55789 0.0
H519 H 0.87155 0.93235 0.57537 0.0
Tb520 Tb 0.54514 0.02745 0.0426 0.0
Tb521 Tb 0.4871 1.01134 1.0038 0.0
C522 C 0.54385 0.98657 0.99151 0.0
C523 C 0.61732 0.06226 0.07225 0.0
C524 C 0.66795 0.10277 0.08229 0.0
C525 C 0.66921 0.07354 0.08278 0.0
C526 C 0.64406 0.05349 0.07802 0.0
C527 C 0.61655 0.09138 0.0693 0.0
C528 C 0.64157 0.11143 0.07441 0.0
C529 C 0.59011 0.04117 0.0727 0.0
O530 O 0.54665 0.0659 1.01546 0.0
O531 O 0.51595 0.04578 0.98004 0.0
O532 O 0.48329 0.04909 0.02894 0.0
O533 O 0.50723 0.03545 0.0666 0.0
O534 O 0.46792 1.00267 0.96374 0.0
O535 O 0.44119 1.00631 1.00174 0.0
O536 O 0.47921 0.97885 0.03841 0.0
O537 O 0.52516 0.98464 0.05832 0.0
O538 O 0.55784 1.01015 1.00242 0.0
O539 O 0.51519 0.98039 0.99339 0.0
C540 C 0.53557 0.06717 0.98961 0.0
O541 O 0.56573 0.05106 0.07643 0.0
O542 O 0.58762 0.02098 0.0536 0.0
C543 C 0.49036 0.05183 0.05589 0.0
C544 C 0.42065 0.97475 0.96585 0.0
C545 C 0.38069 0.92806 0.94571 0.0
C546 C 0.3716 0.95426 0.95114 0.0
C547 C 0.39144 0.97738 0.96103 0.0
C548 C 0.42965 0.94839 0.96162 0.0
C549 C 0.40983 0.92522 0.95155 0.0
C550 C 0.44135 0.99995 0.97455 0.0
C551 C 0.49811 0.97023 0.05605 0.0
H552 H 0.68932 0.06611 0.08812 0.0
H553 H 0.64519 0.03113 0.08016 0.0
H554 H 0.59625 0.09878 0.06458 0.0
H555 H 0.63958 0.13367 0.07401 0.0
H556 H 0.3492 0.95701 0.94738 0.0
H557 H 0.38407 0.99751 0.96448 0.0
H558 H 0.45212 0.9459 0.96547 0.0
H559 H 0.4176 0.90543 0.94738 0.0
Tb560 Tb 0.51349 0.48846 0.50882 0.0
Tb561 Tb 0.51247 0.54899 0.53749 0.0
C562 C 0.48638 0.53656 0.47446 0.0
C563 C 0.54077 0.4245 0.4821 0.0
C564 C 0.5874 0.3938 0.47457 0.0
C565 C 0.56727 0.39501 0.45255 0.0
C566 C 0.54412 0.41017 0.45633 0.0
C567 C 0.5609 0.42345 0.50412 0.0
C568 C 0.5839 0.4081 0.50044 0.0
C569 C 0.51697 0.44133 0.48527 0.0
O570 O 0.55345 0.51589 0.49165 0.0
O571 O 0.55869 0.55087 0.52553 0.0
O572 O 0.52699 0.52326 0.5725 0.0
O573 O 0.54029 0.48588 0.54768 0.0
O574 O 0.52244 0.59352 0.53611 0.0
O575 O 0.50055 0.57197 0.57295 0.0
O576 O 0.46684 0.52735 0.54037 0.0
O577 O 0.47348 0.48128 0.53652 0.0
O578 O 0.48524 0.50915 0.4801 0.0
O579 O 0.49945 0.55564 0.49265 0.0
C580 C 0.56916 0.53844 0.50341 0.0
O581 O 0.50674 0.44394 0.51109 0.0
O582 O 0.52094 0.4654 0.47168 0.0
C583 C 0.53933 0.50011 0.57195 0.0
C584 C 0.48497 0.61386 0.55894 0.0
C585 C 0.43653 0.64255 0.55981 0.0
C586 C 0.4538 0.64211 0.58425 0.0
C587 C 0.47786 0.62793 0.58378 0.0
C588 C 0.46813 0.61474 0.53426 0.0
C589 C 0.44423 0.62919 0.53464 0.0
C590 C 0.50808 0.59621 0.55994 0.0
C591 C 0.45718 0.50015 0.54455 0.0
H592 H 0.56927 0.384 0.43248 0.0
H593 H 0.52891 0.41086 0.43905 0.0
H594 H 0.55902 0.43465 0.5241 0.0
H595 H 0.59926 0.40783 0.51766 0.0
H596 H 0.44851 0.65251 0.60384 0.0
H597 H 0.49045 0.6273 0.60305 0.0
H598 H 0.47296 0.60366 0.51494 0.0
H599 H 0.43114 0.62903 0.51559 0.0
Tb600 Tb 0.01516 0.54393 1.00648 0.0
Tb601 Tb 1.01309 0.48616 0.04182 0.0
C602 C 0.04375 0.49185 0.97969 0.0
C603 C 0.99195 0.60696 0.9738 0.0
C604 C 0.94766 0.63908 0.96256 0.0
C605 C 0.97092 0.63863 0.94286 0.0
C606 C 0.99292 0.62273 0.94849 0.0
C607 C 0.96882 0.60737 0.99359 0.0
C608 C 0.94694 0.62345 0.98809 0.0
C609 C 0.01435 0.58914 0.97863 0.0
O610 O 0.96966 0.5209 0.99926 0.0
O611 O 0.97738 0.47645 1.01111 0.0
O612 O 0.9836 0.50891 0.06699 0.0
O613 O 0.99674 0.55387 0.04914 0.0
O614 O 1.00312 0.44166 0.04335 0.0
O615 O 0.02005 0.46549 0.08021 0.0
O616 O 0.05323 0.51279 0.05702 0.0
O617 O 0.05992 0.54982 0.02519 0.0
O618 O 0.03271 0.51521 0.97501 0.0
O619 O 0.04293 0.48128 1.00576 0.0
C620 C 0.96144 0.49301 0.99841 0.0
O621 O 0.02383 0.58849 1.00464 0.0
O622 O 1.00898 0.56388 0.96753 0.0
C623 C 0.98382 0.53651 0.06929 0.0
C624 C 0.03826 0.42365 0.06999 0.0
C625 C 0.08485 0.39281 0.07275 0.0
C626 C 0.06162 0.388 0.09295 0.0
C627 C 0.03831 0.40324 0.09145 0.0
C628 C 0.06168 0.42866 0.05016 0.0
C629 C 0.08459 0.4132 0.05132 0.0
C630 C 0.01452 0.44048 0.06849 0.0
C631 C 0.06919 0.53625 0.04701 0.0
H632 H 0.97217 0.65068 0.92314 0.0
H633 H 1.01054 0.62251 0.93294 0.0
H634 H 0.96751 0.59502 1.01312 0.0
H635 H 0.9291 0.62315 1.00348 0.0
H636 H 0.06144 0.37239 0.10974 0.0
H637 H 0.02054 0.39929 0.1071 0.0
H638 H 0.06247 0.44474 0.03391 0.0
H639 H 0.10249 0.4177 0.03585 0.0
H640 H 0.22812 0.20021 0.33663 0.0
H641 H 0.28877 0.1466 0.30445 0.0
H642 H 0.26791 0.10943 0.33838 0.0
H643 H 0.22332 0.17588 0.41143 0.0
H644 H 0.18443 0.17614 0.4141 0.0
H645 H 0.20716 0.20074 0.39058 0.0
H646 H 0.17399 0.18249 0.34794 0.0
H647 H 0.15123 0.15785 0.37129 0.0
H648 H 0.16763 0.14513 0.33957 0.0
H649 H 0.23832 0.07636 0.3725 0.0
H650 H 0.20048 0.04888 0.4037 0.0
H651 H 0.15586 0.12174 0.41055 0.0
C652 C 0.23728 0.18081 0.3368 0.0
C653 C 0.26061 0.17684 0.31802 0.0
C654 C 0.27173 0.15091 0.31916 0.0
C655 C 0.25982 0.1294 0.33825 0.0
C656 C 0.23655 0.13386 0.35594 0.0
C657 C 0.22526 0.15883 0.35535 0.0
C658 C 0.19831 0.15705 0.37461 0.0
C659 C 0.20364 0.17874 0.39914 0.0
C660 C 0.1712 0.16085 0.35731 0.0
C661 C 0.19596 0.12698 0.38561 0.0
C662 C 0.21851 0.11417 0.37488 0.0
C663 C 0.22058 0.08615 0.38114 0.0
C664 C 0.19883 0.07065 0.39867 0.0
C665 C 0.17508 0.08308 0.40942 0.0
C666 C 0.17392 0.11175 0.40301 0.0
H667 H 0.2706 0.85997 0.82636 0.0
H668 H 0.28098 0.77689 0.85746 0.0
H669 H 0.31012 0.79954 0.89789 0.0
H670 H 0.34129 0.89307 0.83928 0.0
H671 H 0.33175 0.92673 0.84982 0.0
H672 H 0.30856 0.9039 0.82585 0.0
H673 H 0.26399 0.90446 0.86017 0.0
H674 H 0.28703 0.92753 0.88421 0.0
H675 H 0.2664 0.89448 0.89713 0.0
H676 H 0.34211 0.83183 0.93219 0.0
H677 H 0.37367 0.87082 0.95751 0.0
H678 H 0.34245 0.93208 0.90259 0.0
C679 C 0.27812 0.84646 0.8422 0.0
C680 C 0.27325 0.81667 0.839 0.0
C681 C 0.28443 0.79978 0.8596 0.0
C682 C 0.30088 0.81244 0.88265 0.0
C683 C 0.30586 0.84197 0.88477 0.0
C684 C 0.29463 0.85872 0.86515 0.0
C685 C 0.30501 0.88994 0.87068 0.0
C686 C 0.3227 0.90423 0.84488 0.0
C687 C 0.27906 0.90498 0.87852 0.0
C688 C 0.32437 0.88821 0.89612 0.0
C689 C 0.32442 0.86043 0.90417 0.0
C690 C 0.34197 0.85368 0.92626 0.0
C691 C 0.35997 0.87593 0.94037 0.0
C692 C 0.36038 0.90453 0.93219 0.0
C693 C 0.34213 0.91055 0.90989 0.0
H694 H 0.60886 0.39815 0.68755 0.0
H695 H 0.61079 0.46778 0.74761 0.0
H696 H 0.58924 0.4951 0.71137 0.0
H697 H 0.6283 0.44268 0.62432 0.0
H698 H 0.60461 0.42044 0.60012 0.0
H699 H 0.61897 0.40507 0.6309 0.0
H700 H 0.56636 0.38388 0.64758 0.0
H701 H 0.55187 0.3991 0.61678 0.0
H702 H 0.5395 0.40691 0.65227 0.0
H703 H 0.5676 0.51631 0.66828 0.0
H704 H 0.54829 0.52959 0.62247 0.0
H705 H 0.56017 0.44839 0.5864 0.0
C706 C 0.60435 0.41898 0.69325 0.0
C707 C 0.61163 0.43037 0.72129 0.0
C708 C 0.60564 0.45812 0.7269 0.0
C709 C 0.59329 0.47399 0.7062 0.0
C710 C 0.58679 0.46249 0.67899 0.0
C711 C 0.59211 0.43558 0.67231 0.0
C712 C 0.58358 0.42897 0.64084 0.0
C713 C 0.61047 0.42398 0.62299 0.0
C714 C 0.55886 0.40317 0.63928 0.0
C715 C 0.57273 0.4562 0.63106 0.0
C716 C 0.57477 0.4751 0.6537 0.0
C717 C 0.56602 0.50155 0.65053 0.0
C718 C 0.55492 0.50899 0.62403 0.0
C719 C 0.55237 0.49049 0.59991 0.0
C720 C 0.5617 0.46349 0.60386 0.0
H721 H 0.93883 0.64973 0.18957 0.0
H722 H 0.89886 0.57553 0.23828 0.0
H723 H 0.91241 0.54475 0.20002 0.0
H724 H 0.91838 0.62094 0.11863 0.0
H725 H 0.95244 0.63621 0.10122 0.0
H726 H 0.93936 0.65337 0.13213 0.0
H727 H 0.9882 0.65184 0.15764 0.0
H728 H 1.00145 0.63476 0.12677 0.0
H729 H 1.0008 0.61837 0.16153 0.0
H730 H 0.93033 0.52054 0.15632 0.0
H731 H 0.95206 0.50522 0.1118 0.0
H732 H 0.98271 0.59329 0.08884 0.0
C733 C 0.93292 0.62702 0.19239 0.0
C734 C 0.91688 0.61568 0.21761 0.0
C735 C 0.91006 0.58554 0.21951 0.0
C736 C 0.91801 0.56755 0.1977 0.0
C737 C 0.93326 0.57933 0.17334 0.0
C738 C 0.94084 0.6084 0.17049 0.0
C739 C 0.95768 0.61518 0.14191 0.0
C740 C 0.94097 0.63246 0.12231 0.0
C741 C 0.98889 0.63098 0.14729 0.0
C742 C 0.95836 0.58547 0.12932 0.0
C743 C 0.94401 0.56522 0.14801 0.0
C744 C 0.9416 0.53634 0.14164 0.0
C745 C 0.95416 0.52777 0.11594 0.0
C746 C 0.96938 0.54765 0.096 0.0
C747 C 0.97124 0.57717 0.10309 0.0
H748 H 0.40871 0.17912 0.10306 0.0
H749 H 0.47694 0.20145 0.16583 0.0
H750 H 0.50315 0.1647 0.14599 0.0
H751 H 0.40479 0.10772 0.10532 0.0
H752 H 0.39991 0.10069 0.06761 0.0
H753 H 0.38846 0.13156 0.08328 0.0
H754 H 0.42113 0.16422 0.04714 0.0
H755 H 0.43213 0.13336 0.03075 0.0
H756 H 0.45951 0.16183 0.04347 0.0
H757 H 0.51681 0.12064 0.12572 0.0
H758 H 0.52223 0.07652 0.1005 0.0
H759 H 0.44726 0.08426 0.04816 0.0
C760 C 0.4298 0.17715 0.11184 0.0
C761 C 0.44071 0.19305 0.13611 0.0
C762 C 0.46802 0.18928 0.14745 0.0
C763 C 0.4831 0.16852 0.13628 0.0
C764 C 0.47088 0.15214 0.11341 0.0
C765 C 0.44531 0.15671 0.10073 0.0
C766 C 0.43611 0.13504 0.07739 0.0
C767 C 0.40551 0.11774 0.08381 0.0
C768 C 0.4373 0.14947 0.04794 0.0
C769 C 0.4598 0.11686 0.07984 0.0
C770 C 0.47958 0.12715 0.10079 0.0
C771 C 0.50194 0.11277 0.10876 0.0
C772 C 0.50462 0.08753 0.09448 0.0
C773 C 0.48525 0.07706 0.07224 0.0
C774 C 0.46255 0.09196 0.06487 0.0
H775 H 0.13403 0.88211 0.6244 0.0
H776 H 0.06634 0.85013 0.68704 0.0
H777 H 0.03331 0.87978 0.66558 0.0
H778 H 0.12085 0.95316 0.62459 0.0
H779 H 0.12817 0.95863 0.5868 0.0
H780 H 0.14568 0.9337 0.60606 0.0
H781 H 0.12498 0.8939 0.57043 0.0
H782 H 0.10753 0.91877 0.55095 0.0
H783 H 0.08604 0.88636 0.56439 0.0
H784 H 1.00796 0.91338 0.63721 0.0
H785 H 0.99286 0.94933 0.60529 0.0
H786 H 0.07815 0.96018 0.56259 0.0
C787 C 0.11208 0.88103 0.6333 0.0
C788 C 0.10257 0.86371 0.65719 0.0
C789 C 0.07398 0.86332 0.66872 0.0
C790 C 0.05509 0.88 0.65664 0.0
C791 C 0.06526 0.89705 0.6332 0.0
C792 C 0.09313 0.89773 0.62172 0.0
C793 C 0.09923 0.91868 0.59727 0.0
C794 C 0.125 0.94245 0.60411 0.0
C795 C 0.10476 0.90351 0.56909 0.0
C796 C 0.07049 0.92978 0.59681 0.0
C797 C 0.05106 0.91691 0.61752 0.0
C798 C 0.02301 0.92363 0.62095 0.0
C799 C 0.01463 0.94405 0.60272 0.0
C800 C 0.03438 0.95768 0.58157 0.0
C801 C 0.06263 0.95035 0.57871 0.0
H802 H 0.79927 0.46227 0.92084 0.0
H803 H 0.82042 0.3793 0.90067 0.0
H804 H 0.86877 0.39298 0.92247 0.0
H805 H 0.87553 0.50232 0.90844 0.0
H806 H 0.87356 0.52658 0.93778 0.0
H807 H 0.84068 0.51146 0.91926 0.0
H808 H 0.81667 0.49253 0.96727 0.0
H809 H 0.84953 0.50744 0.98589 0.0
H810 H 0.83492 0.47017 0.98928 0.0
H811 H 0.91363 0.41322 0.94917 0.0
H812 H 0.95395 0.43976 0.97648 0.0
H813 H 0.90864 0.51232 0.98037 0.0
C814 C 0.81435 0.44724 0.92046 0.0
C815 C 0.80553 0.41944 0.90856 0.0
C816 C 0.82614 0.40054 0.90932 0.0
C817 C 0.85388 0.40816 0.92182 0.0
C818 C 0.86162 0.43512 0.93381 0.0
C819 C 0.84274 0.45465 0.93306 0.0
C820 C 0.85716 0.48207 0.94825 0.0
C821 C 0.86201 0.5071 0.92718 0.0
C822 C 0.83844 0.48843 0.97422 0.0
C823 C 0.88669 0.47463 0.95782 0.0
C824 C 0.88839 0.44727 0.94913 0.0
C825 C 0.91254 0.43473 0.95585 0.0
C826 C 0.93553 0.45018 0.9717 0.0
C827 C 0.93522 0.47849 0.98105 0.0
C828 C 0.91015 0.49091 0.97363 0.0
H829 H 0.70078 0.58506 0.38536 0.0
H830 H 0.75107 0.62745 0.45556 0.0
H831 H 0.71022 0.61095 0.48875 0.0
H832 H 0.62972 0.59825 0.40944 0.0
H833 H 0.61003 0.56392 0.39935 0.0
H834 H 0.6432 0.57892 0.38029 0.0
H835 H 0.66552 0.53407 0.39114 0.0
H836 H 0.63239 0.51892 0.41022 0.0
H837 H 0.66727 0.52261 0.42771 0.0
H838 H 0.66311 0.59193 0.51502 0.0
H839 H 0.61417 0.56956 0.53263 0.0
H840 H 0.59323 0.53577 0.44773 0.0
C841 C 0.70341 0.59073 0.40772 0.0
C842 C 0.72958 0.60844 0.41721 0.0
C843 C 0.73142 0.61498 0.44695 0.0
C844 C 0.70823 0.60537 0.46631 0.0
C845 C 0.68283 0.58861 0.45621 0.0
C846 C 0.68027 0.581 0.42768 0.0
C847 C 0.65032 0.56245 0.42285 0.0
C848 C 0.63225 0.57674 0.40172 0.0
C849 C 0.65411 0.53274 0.41235 0.0
C850 C 0.63652 0.56112 0.45299 0.0
C851 C 0.65579 0.57655 0.47178 0.0
C852 C 0.648 0.57959 0.5005 0.0
C853 C 0.61994 0.56675 0.51036 0.0
C854 C 0.59952 0.55052 0.49189 0.0
C855 C 0.60826 0.54758 0.46269 0.0
H856 H 0.21868 0.33955 0.14762 0.0
H857 H 0.23807 0.30125 0.06661 0.0
H858 H 0.19754 0.32064 0.04429 0.0
H859 H 0.14186 0.32299 0.14283 0.0
H860 H 0.13504 0.3554 0.15947 0.0
H861 H 0.1674 0.34112 0.16825 0.0
H862 H 0.20019 0.3886 0.15382 0.0
H863 H 0.1679 0.40318 0.14531 0.0
H864 H 0.19665 0.4032 0.11876 0.0
H865 H 0.15316 0.3423 0.03166 0.0
H866 H 0.10913 0.36537 0.02947 0.0
H867 H 0.11766 0.38675 0.1196 0.0
C868 C 0.21451 0.33525 0.12515 0.0
C869 C 0.23151 0.3188 0.10887 0.0
C870 C 0.22559 0.31409 0.07942 0.0
C871 C 0.20249 0.32485 0.06662 0.0
C872 C 0.18561 0.34021 0.08359 0.0
C873 C 0.19146 0.34551 0.11219 0.0
C874 C 0.16942 0.36154 0.12613 0.0
C875 C 0.15243 0.34422 0.15061 0.0
C876 C 0.18444 0.39087 0.13661 0.0
C877 C 0.14989 0.3641 0.10101 0.0
C878 C 0.15972 0.35192 0.07658 0.0
C879 C 0.1453 0.35193 0.05063 0.0
C880 C 0.12037 0.36501 0.0496 0.0
C881 C 0.11002 0.37757 0.07443 0.0
C882 C 0.1249 0.3769 0.10044 0.0
H883 H 0.61047 0.2292 0.93896 0.0
H884 H 0.57842 0.20428 0.85413 0.0
H885 H 0.55742 0.15719 0.87243 0.0
H886 H 0.63006 0.15973 0.95709 0.0
H887 H 0.61881 0.16076 0.99418 0.0
H888 H 0.63145 0.19336 0.97508 0.0
H889 H 0.58312 0.21107 0.98824 0.0
H890 H 0.57035 0.1785 1.00734 0.0
H891 H 0.54857 0.18962 0.97923 0.0
H892 H 0.53822 0.11186 0.89946 0.0
H893 H 0.52422 0.07183 0.93257 0.0
H894 H 0.56914 0.12195 1.00128 0.0
C895 C 0.59918 0.21389 0.92408 0.0
C896 C 0.59591 0.22173 0.89474 0.0
C897 C 0.58081 0.20021 0.87666 0.0
C898 C 0.56885 0.17285 0.88689 0.0
C899 C 0.572 0.16615 0.91563 0.0
C900 C 0.58698 0.18592 0.93406 0.0
C901 C 0.58717 0.17254 0.96403 0.0
C902 C 0.61875 0.17155 0.97314 0.0
C903 C 0.57137 0.18892 0.98602 0.0
C904 C 0.56998 0.14238 0.95945 0.0
C905 C 0.56144 0.13943 0.93125 0.0
C906 C 0.54498 0.11404 0.92154 0.0
C907 C 0.53701 0.09117 0.94078 0.0
C908 C 0.54535 0.09293 0.96998 0.0
C909 C 0.56232 0.1193 0.97924 0.0
H910 H 0.95969 0.81347 0.41746 0.0
H911 H 0.87617 0.8322 0.38949 0.0
H912 H 0.88686 0.87932 0.41241 0.0
H913 H 0.95969 0.84741 0.48565 0.0
H914 H 0.99824 0.86208 0.4857 0.0
H915 H 0.98545 0.83029 0.46558 0.0
H916 H 1.00972 0.85398 0.41951 0.0
H917 H 0.02287 0.88574 0.43957 0.0
H918 H 1.00102 0.8876 0.40826 0.0
H919 H 0.90412 0.92323 0.44256 0.0
H920 H 0.92902 0.96236 0.47254 0.0
H921 H 1.00351 0.91865 0.48007 0.0
C922 C 0.94411 0.82786 0.41536 0.0
C923 C 0.91712 0.81892 0.40087 0.0
C924 C 0.8971 0.83838 0.39978 0.0
C925 C 0.90293 0.86529 0.41303 0.0
C926 C 0.92918 0.87321 0.42759 0.0
C927 C 0.94978 0.85532 0.42845 0.0
C928 C 0.97611 0.86933 0.446 0.0
C929 C 0.9801 0.85119 0.47229 0.0
C930 C 1.0041 0.87447 0.42722 0.0
C931 C 0.96691 0.89753 0.45504 0.0
C932 C 0.93957 0.89908 0.44432 0.0
C933 C 0.92571 0.92229 0.45069 0.0
C934 C 0.94008 0.94455 0.46799 0.0
C935 C 0.9685 0.94421 0.47885 0.0
C936 C 0.98197 0.92007 0.47207 0.0
H937 H 0.29517 0.68468 0.63528 0.0
H938 H 0.29295 0.74563 0.56703 0.0
H939 H 0.33223 0.72621 0.5411 0.0
H940 H 0.37062 0.69235 0.63766 0.0
H941 H 0.37187 0.65567 0.6455 0.0
H942 H 0.34027 0.67082 0.65612 0.0
H943 H 0.30651 0.63161 0.62815 0.0
H944 H 0.33803 0.61612 0.61764 0.0
H945 H 0.31408 0.62596 0.59077 0.0
H946 H 0.37566 0.70342 0.52531 0.0
H947 H 0.41916 0.67949 0.52135 0.0
H948 H 0.39386 0.63563 0.60134 0.0
C949 C 0.30263 0.69375 0.61469 0.0
C950 C 0.29095 0.7167 0.60321 0.0
C951 C 0.30121 0.72776 0.57608 0.0
C952 C 0.32364 0.71695 0.56126 0.0
C953 C 0.33543 0.69504 0.57381 0.0
C954 C 0.32511 0.68347 0.59986 0.0
C955 C 0.34304 0.66189 0.61011 0.0
C956 C 0.35729 0.67073 0.63905 0.0
C957 C 0.3243 0.63213 0.61175 0.0
C958 C 0.3657 0.66373 0.58621 0.0
C959 C 0.36074 0.68256 0.56519 0.0
C960 C 0.37956 0.68841 0.54151 0.0
C961 C 0.40416 0.67476 0.53942 0.0
C962 C 0.40987 0.6559 0.56113 0.0
C963 C 0.39015 0.65017 0.58457 0.0
H964 H 0.77116 0.83254 0.6888 0.0
H965 H 0.70528 0.88577 0.70671 0.0
H966 H 0.72781 0.91933 0.67021 0.0
H967 H 0.82858 0.88846 0.68804 0.0
H968 H 0.84995 0.87441 0.66054 0.0
H969 H 0.82477 0.85065 0.6826 0.0
H970 H 0.79874 0.8282 0.63728 0.0
H971 H 0.82393 0.85196 0.615 0.0
H972 H 0.78494 0.85059 0.61165 0.0
H973 H 0.76069 0.9507 0.63719 0.0
H974 H 0.80317 0.97871 0.61215 0.0
H975 H 0.85102 0.9084 0.61973 0.0
C976 C 0.76109 0.85101 0.68503 0.0
C977 C 0.73597 0.85592 0.70085 0.0
C978 C 0.72377 0.88054 0.69458 0.0
C979 C 0.7366 0.90006 0.67386 0.0
C980 C 0.76188 0.89503 0.65963 0.0
C981 C 0.77411 0.87117 0.66499 0.0
C982 C 0.80368 0.87288 0.64993 0.0
C983 C 0.82818 0.87154 0.67157 0.0
C984 C 0.80275 0.84952 0.6271 0.0
C985 C 0.80663 0.90195 0.63628 0.0
C986 C 0.7819 0.91399 0.64153 0.0
C987 C 0.78007 0.94142 0.6327 0.0
C988 C 0.80443 0.95725 0.61873 0.0
C989 C 0.83051 0.94583 0.61415 0.0
C990 C 0.83126 0.91755 0.62246 0.0
H991 H 0.77018 0.16588 0.20802 0.0
H992 H 0.77128 0.24901 0.17091 0.0
H993 H 0.74892 0.22646 0.12685 0.0
H994 H 0.78203 0.12681 0.14026 0.0
H995 H 0.75678 0.09593 0.15205 0.0
H996 H 0.77804 0.1184 0.17788 0.0
H997 H 0.73023 0.12478 0.20511 0.0
H998 H 0.70894 0.10238 0.17949 0.0
H999 H 0.70158 0.13773 0.18605 0.0
H1000 H 0.72115 0.19486 0.08955 0.0
H1001 H 0.68753 0.15775 0.06404 0.0
H1002 H 0.70277 0.09602 0.1276 0.0
C1003 C 0.76674 0.17929 0.19017 0.0
C1004 C 0.77289 0.20911 0.19252 0.0
C1005 C 0.76693 0.22608 0.16929 0.0
C1006 C 0.75443 0.21345 0.14419 0.0
C1007 C 0.74801 0.18388 0.1428 0.0
C1008 C 0.75397 0.16705 0.16525 0.0
C1009 C 0.74145 0.13615 0.16028 0.0
C1010 C 0.76605 0.11827 0.15744 0.0
C1011 C 0.71923 0.12461 0.18413 0.0
C1012 C 0.72656 0.13826 0.132 0.0
C1013 C 0.73113 0.16581 0.12187 0.0
C1014 C 0.71771 0.17316 0.09713 0.0
C1015 C 0.69847 0.15196 0.08289 0.0
C1016 C 0.69244 0.12386 0.09373 0.0
C1017 C 0.7074 0.11699 0.11818 0.0
H1018 H 0.42946 0.64142 0.35316 0.0
H1019 H 0.40462 0.56491 0.30286 0.0
H1020 H 0.4229 0.53689 0.34038 0.0
H1021 H 0.49728 0.62075 0.38244 0.0
H1022 H 0.49285 0.63558 0.41747 0.0
H1023 H 0.47837 0.65062 0.38655 0.0
H1024 H 0.42705 0.64343 0.41075 0.0
H1025 H 0.44135 0.62822 0.44167 0.0
H1026 H 0.4106 0.60856 0.42304 0.0
H1027 H 0.44229 0.51528 0.38443 0.0
H1028 H 0.46327 0.50276 0.42979 0.0
H1029 H 0.47826 0.59156 0.45453 0.0
C1030 C 0.42816 0.61883 0.34982 0.0
C1031 C 0.4149 0.6058 0.32429 0.0
C1032 C 0.41389 0.57593 0.32174 0.0
C1033 C 0.42444 0.55958 0.34319 0.0
C1034 C 0.43656 0.57274 0.36802 0.0
C1035 C 0.43878 0.60178 0.3715 0.0
C1036 C 0.4529 0.6101 0.40075 0.0
C1037 C 0.48209 0.63049 0.39655 0.0
C1038 C 0.43172 0.62338 0.4202 0.0
C1039 C 0.45808 0.58137 0.41296 0.0
C1040 C 0.4483 0.56019 0.39351 0.0
C1041 C 0.45009 0.53187 0.39964 0.0
C1042 C 0.46215 0.52486 0.42585 0.0
C1043 C 0.47285 0.54575 0.44659 0.0
C1044 C 0.47058 0.57467 0.43962 0.0
H1045 H 0.10173 0.45033 0.81852 0.0
H1046 H 0.10597 0.36771 0.85468 0.0
H1047 H 0.09028 0.38398 0.90168 0.0
H1048 H 0.12627 0.49271 0.88261 0.0
H1049 H 0.10116 0.51741 0.87851 0.0
H1050 H 0.11401 0.50025 0.84747 0.0
H1051 H 0.06045 0.48147 0.83347 0.0
H1052 H 0.04745 0.49857 0.86446 0.0
H1053 H 0.03595 0.46102 0.859 0.0
H1054 H 0.07423 0.4085 0.94554 0.0
H1055 H 0.0565 0.4382 0.98246 0.0
H1056 H 0.05883 0.50633 0.92074 0.0
C1057 C 0.09961 0.43575 0.8364 0.0
C1058 C 0.10544 0.4074 0.83236 0.0
C1059 C 0.10177 0.38926 0.85664 0.0
C1060 C 0.09285 0.39843 0.88368 0.0
C1061 C 0.08706 0.42606 0.88688 0.0
C1062 C 0.09005 0.44454 0.86392 0.0
C1063 C 0.08114 0.47283 0.87359 0.0
C1064 C 0.1072 0.49726 0.87034 0.0
C1065 C 0.05468 0.47883 0.85661 0.0
C1066 C 0.0728 0.46731 0.90541 0.0
C1067 C 0.07677 0.44015 0.91239 0.0
C1068 C 0.07108 0.42978 0.94016 0.0
C1069 C 0.06101 0.44717 0.9613 0.0
C1070 C 0.05613 0.47519 0.95538 0.0
C1071 C 0.06221 0.48524 0.92658 0.0
H1072 H 0.57794 0.8492 0.90645 0.0
H1073 H 0.66117 0.86204 0.95021 0.0
H1074 H 0.64772 0.90355 0.97525 0.0
H1075 H 0.57298 0.92165 0.8961 0.0
H1076 H 0.53412 0.91792 0.90342 0.0
H1077 H 0.54939 0.88831 0.88937 0.0
H1078 H 0.52706 0.85722 0.93221 0.0
H1079 H 0.5114 0.88664 0.9462 0.0
H1080 H 0.5349 0.86956 0.96823 0.0
H1081 H 0.62802 0.94555 0.99193 0.0
H1082 H 0.59972 0.98283 1.00547 0.0
H1083 H 0.52699 0.94198 0.95424 0.0
C1084 C 0.59301 0.86057 0.92166 0.0
C1085 C 0.62047 0.85236 0.92666 0.0
C1086 C 0.63983 0.86774 0.94651 0.0
C1087 C 0.63251 0.89146 0.96064 0.0
C1088 C 0.60555 0.8993 0.95498 0.0
C1089 C 0.58576 0.88408 0.9365 0.0
C1090 C 0.55808 0.89715 0.93478 0.0
C1091 C 0.55338 0.90683 0.90409 0.0
C1092 C 0.53128 0.8764 0.94603 0.0
C1093 C 0.56578 0.92232 0.95476 0.0
C1094 C 0.59344 0.9232 0.96582 0.0
C1095 C 0.60617 0.94495 0.98374 0.0
C1096 C 0.58997 0.96616 0.99111 0.0
C1097 C 0.56114 0.96527 0.98093 0.0
C1098 C 0.54893 0.94308 0.96243 0.0
H1099 H 0.91562 0.1322 0.37308 0.0
H1100 H 0.94044 0.20986 0.42172 0.0
H1101 H 0.97142 0.18557 0.4523 0.0
H1102 H 0.90894 0.08583 0.4304 0.0
H1103 H 0.92388 0.05795 0.41228 0.0
H1104 H 0.90638 0.08215 0.39204 0.0
H1105 H 0.95331 0.09527 0.36049 0.0
H1106 H 0.97097 0.07099 0.38063 0.0
H1107 H 0.98797 0.10766 0.37722 0.0
H1108 H 0.994 0.15188 0.48118 0.0
H1109 H 1.00813 0.11085 0.50601 0.0
H1110 H 0.97175 0.05527 0.43741 0.0
C1111 C 0.92822 0.14432 0.38964 0.0
C1112 C 0.92558 0.17295 0.39502 0.0
C1113 C 0.94185 0.18785 0.4174 0.0
C1114 C 0.95972 0.17431 0.43471 0.0
C1115 C 0.96138 0.14595 0.42917 0.0
C1116 C 0.94631 0.13115 0.40704 0.0
C1117 C 0.95029 0.10028 0.40701 0.0
C1118 C 0.92061 0.0804 0.41066 0.0
C1119 C 0.96661 0.09314 0.37971 0.0
C1120 C 0.96913 0.09983 0.43318 0.0
C1121 C 0.9754 0.12651 0.44549 0.0
C1122 C 0.98991 0.13107 0.47139 0.0
C1123 C 0.99782 0.1077 0.48532 0.0
C1124 C 0.99157 0.08025 0.47318 0.0
C1125 C 0.97756 0.07629 0.44654 0.0
H1126 H 0.2098 0.64476 0.11233 0.0
H1127 H 0.23733 0.56987 0.14828 0.0
H1128 H 0.19464 0.54012 0.12697 0.0
H1129 H 0.13123 0.6211 0.12082 0.0
H1130 H 0.12196 0.63567 0.08731 0.0
H1131 H 0.15447 0.65179 0.10579 0.0
H1132 H 0.18591 0.64608 0.06056 0.0
H1133 H 0.1535 0.62988 0.04195 0.0
H1134 H 0.18432 0.61146 0.04459 0.0
H1135 H 0.14811 0.51732 0.10184 0.0
H1136 H 0.10242 0.50365 0.07534 0.0
H1137 H 0.10365 0.59174 0.05232 0.0
C1138 C 0.20723 0.62211 0.11571 0.0
C1139 C 0.22779 0.6103 0.13282 0.0
C1140 C 0.22237 0.58028 0.13632 0.0
C1141 C 0.19799 0.56288 0.12388 0.0
C1142 C 0.17851 0.5752 0.10739 0.0
C1143 C 0.18282 0.60416 0.10316 0.0
C1144 C 0.15835 0.61177 0.08423 0.0
C1145 C 0.14044 0.63124 0.10051 0.0
C1146 C 0.1713 0.62563 0.05617 0.0
C1147 C 0.13964 0.58261 0.07851 0.0
C1148 C 0.15184 0.56192 0.09227 0.0
C1149 C 0.13859 0.53346 0.09098 0.0
C1150 C 0.11233 0.52586 0.0757 0.0
C1151 C 0.09882 0.54628 0.06121 0.0
C1152 C 0.11317 0.57526 0.0626 0.0
H1153 H 0.32161 0.39967 0.62959 0.0
H1154 H 0.28343 0.47613 0.64024 0.0
H1155 H 0.32464 0.50316 0.61279 0.0
H1156 H 0.39748 0.43408 0.63637 0.0
H1157 H 0.41191 0.41261 0.60963 0.0
H1158 H 0.37901 0.39843 0.62953 0.0
H1159 H 0.35125 0.38729 0.58217 0.0
H1160 H 0.38408 0.40146 0.56212 0.0
H1161 H 0.35068 0.41529 0.55653 0.0
H1162 H 0.37019 0.52296 0.58463 0.0
H1163 H 0.41726 0.53435 0.5586 0.0
H1164 H 0.42892 0.44628 0.56476 0.0
C1165 C 0.3218 0.42206 0.62598 0.0
C1166 C 0.29887 0.43557 0.63766 0.0
C1167 C 0.30053 0.46505 0.6323 0.0
C1168 C 0.32394 0.4807 0.61643 0.0
C1169 C 0.34616 0.46696 0.60565 0.0
C1170 C 0.34545 0.43829 0.61016 0.0
C1171 C 0.37283 0.4292 0.59649 0.0
C1172 C 0.39141 0.41791 0.61937 0.0
C1173 C 0.36419 0.40698 0.57293 0.0
C1174 C 0.38892 0.45718 0.58372 0.0
C1175 C 0.37286 0.47856 0.58929 0.0
C1176 C 0.38286 0.50631 0.58015 0.0
C1177 C 0.40989 0.51259 0.56522 0.0
C1178 C 0.42736 0.49142 0.55919 0.0
C1179 C 0.41635 0.46313 0.56862 0.0
H1180 H 0.8292 0.69527 0.86567 0.0
H1181 H 0.80932 0.74632 0.93824 0.0
H1182 H 0.84512 0.72644 0.96715 0.0
H1183 H 0.84009 0.63359 0.90553 0.0
H1184 H 0.8701 0.62665 0.88296 0.0
H1185 H 0.84191 0.64395 0.86837 0.0
H1186 H 0.8814 0.68598 0.85146 0.0
H1187 H 0.9097 0.66882 0.86603 0.0
H1188 H 0.90653 0.70437 0.87709 0.0
H1189 H 0.88376 0.70155 0.98799 0.0
H1190 H 0.92312 0.67413 0.99875 0.0
H1191 H 0.91872 0.64075 0.91211 0.0
C1192 C 0.83243 0.70241 0.88759 0.0
C1193 C 0.81624 0.72225 0.89968 0.0
C1194 C 0.82098 0.73074 0.9286 0.0
C1195 C 0.84143 0.71971 0.94517 0.0
C1196 C 0.85707 0.70032 0.93251 0.0
C1197 C 0.85286 0.69179 0.90437 0.0
C1198 C 0.87296 0.67118 0.89567 0.0
C1199 C 0.8552 0.64212 0.88767 0.0
C1200 C 0.89389 0.68332 0.87111 0.0
C1201 C 0.88928 0.66961 0.92326 0.0
C1202 C 0.87967 0.68642 0.94433 0.0
C1203 C 0.89144 0.68829 0.97168 0.0
C1204 C 0.91367 0.67258 0.97763 0.0
C1205 C 0.92399 0.65543 0.95624 0.0
C1206 C 0.91152 0.65397 0.92877 0.0
H1207 H 0.4137 0.81221 0.10929 0.0
H1208 H 0.46083 0.83047 0.18882 0.0
H1209 H 0.48444 0.87607 0.16959 0.0
H1210 H 0.47085 0.84757 0.06094 0.0
H1211 H 0.44647 0.86286 0.03826 0.0
H1212 H 0.43332 0.8303 0.05723 0.0
H1213 H 0.39165 0.85293 0.08036 0.0
H1214 H 0.40465 0.88554 0.06138 0.0
H1215 H 0.40056 0.88581 0.09983 0.0
H1216 H 0.50589 0.92015 0.14156 0.0
H1217 H 0.51918 0.96069 0.10877 0.0
H1218 H 0.45593 0.91981 0.04773 0.0
C1219 C 0.42887 0.82567 0.12288 0.0
C1220 C 0.43568 0.81596 0.15075 0.0
C1221 C 0.45567 0.83544 0.16716 0.0
C1222 C 0.46921 0.86212 0.15645 0.0
C1223 C 0.46258 0.8705 0.12908 0.0
C1224 C 0.44248 0.85314 0.11258 0.0
C1225 C 0.43877 0.86838 0.08416 0.0
C1226 C 0.44789 0.85125 0.05863 0.0
C1227 C 0.40701 0.87346 0.08126 0.0
C1228 C 0.46001 0.89671 0.08734 0.0
C1229 C 0.47368 0.89709 0.11345 0.0
C1230 C 0.49501 0.92008 0.12121 0.0
C1231 C 0.50256 0.94321 0.10221 0.0
C1232 C 0.48875 0.94423 0.07538 0.0
C1233 C 0.46689 0.92032 0.06807 0.0
H1234 H 0.09112 0.19614 0.66516 0.0
H1235 H 0.1168 0.24763 0.58964 0.0
H1236 H 0.09853 0.20704 0.55888 0.0
H1237 H 0.1087 0.13062 0.63729 0.0
H1238 H 0.07724 0.10768 0.65236 0.0
H1239 H 0.09131 0.14086 0.66961 0.0
H1240 H 0.04035 0.15599 0.66693 0.0
H1241 H 0.02606 0.12273 0.64988 0.0
H1242 H 0.0226 0.15576 0.63283 0.0
H1243 H 0.08241 0.1602 0.53524 0.0
H1244 H 0.06288 0.11153 0.51997 0.0
H1245 H 0.04179 0.08776 0.60845 0.0
C1246 C 0.09235 0.19902 0.64217 0.0
C1247 C 0.10609 0.22563 0.63017 0.0
C1248 C 0.1071 0.22784 0.59978 0.0
C1249 C 0.09667 0.20471 0.58191 0.0
C1250 C 0.0844 0.1788 0.59419 0.0
C1251 C 0.08147 0.17578 0.62358 0.0
C1252 C 0.06686 0.14514 0.63055 0.0
C1253 C 0.08724 0.13019 0.64853 0.0
C1254 C 0.0372 0.14489 0.64597 0.0
C1255 C 0.06259 0.13161 0.60062 0.0
C1256 C 0.07329 0.15163 0.58014 0.0
C1257 C 0.07356 0.1445 0.55112 0.0
C1258 C 0.06244 0.11649 0.5426 0.0
C1259 C 0.05034 0.09528 0.56265 0.0
C1260 C 0.05043 0.10324 0.59229 0.0
H1261 H 0.71896 0.33974 0.38992 0.0
H1262 H 0.72668 0.28517 0.46263 0.0
H1263 H 0.68786 0.30526 0.48824 0.0
H1264 H 0.70329 0.40064 0.42986 0.0
H1265 H 0.67705 0.40884 0.40442 0.0
H1266 H 0.70696 0.39164 0.3926 0.0
H1267 H 0.66993 0.35076 0.37066 0.0
H1268 H 0.63992 0.36778 0.38246 0.0
H1269 H 0.64102 0.33173 0.39298 0.0
H1270 H 0.64693 0.33015 0.50542 0.0
H1271 H 0.60634 0.35737 0.51235 0.0
H1272 H 0.624 0.39402 0.42768 0.0
C1273 C 0.71252 0.33189 0.41119 0.0
C1274 C 0.72616 0.31093 0.42424 0.0
C1275 C 0.71713 0.30161 0.4523 0.0
C1276 C 0.6949 0.31275 0.467 0.0
C1277 C 0.68176 0.33311 0.45334 0.0
C1278 C 0.6902 0.34257 0.42605 0.0
C1279 C 0.67181 0.36382 0.41574 0.0
C1280 C 0.69092 0.39296 0.41035 0.0
C1281 C 0.65466 0.35285 0.38887 0.0
C1282 C 0.65151 0.36463 0.44139 0.0
C1283 C 0.65776 0.34696 0.46296 0.0
C1284 C 0.64189 0.34413 0.48872 0.0
C1285 C 0.61897 0.35973 0.4925 0.0
C1286 C 0.612 0.37775 0.47054 0.0
C1287 C 0.62861 0.38019 0.44472 0.0
loop_
_geom_bond_atom_site_label_1
_geom_bond_atom_site_label_2
_geom_bond_distance
_geom_bond_site_symmetry_2
_ccdc_geom_bond_type
C0 C1 1.391 . S
C0 C4 1.391 . S
C0 H42 0.948 . S
C1 C0 1.391 . S
C1 C2 1.391 . S
C2 C1 1.391 . S
C2 H58 0.947 . S
C2 C59 1.392 . S
C3 C4 1.391 . S
C3 C7 1.397 . S
C3 C59 1.419 . S
C4 C0 1.391 . S
C4 C3 1.391 . S
C4 C5 1.399 . S
C5 C4 1.399 . S
C5 C8 1.396 . S
C5 C17 1.453 . S
C5 C18 1.684 . S
H6 C30 0.948 . S
C7 C3 1.397 . S
C7 C8 1.394 . S
C7 C26 1.723 . S
C8 C5 1.396 . S
C8 C7 1.394 . S
C8 C38 1.723 . S
H9 C32 0.947 . S
H10 C33 0.948 . S
H11 C39 0.982 . S
H12 C40 0.979 . S
H13 C40 0.980 . S
H14 C40 0.983 . S
H15 C39 0.979 . S
H16 C39 0.977 . S
C17 C5 1.453 . S
C17 H46 0.982 . S
C17 H47 0.979 . S
C17 H48 0.977 . S
C18 C5 1.684 . S
C18 H43 0.979 . S
C18 H44 0.980 . S
C18 H45 0.983 . S
C19 C20 1.391 . S
C19 C24 1.391 . S
C19 H49 0.948 . S
C20 C19 1.391 . S
C20 C21 1.391 . S
C21 C20 1.391 . S
C21 C22 1.392 . S
C21 H50 0.947 . S
C22 C21 1.392 . S
C22 C23 1.419 . S
C22 H51 0.948 . S
C23 C22 1.419 . S
C23 C24 1.391 . S
C23 C27 1.397 . S
C24 C19 1.391 . S
C24 C23 1.391 . S
C24 C25 1.399 . S
C25 C24 1.399 . S
C25 C26 1.396 . S
C25 C28 1.453 . S
C25 C29 1.684 . S
C26 C7 1.723 . S
C26 C25 1.396 . S
C26 C27 1.394 . S
C27 C23 1.397 . S
C27 C26 1.394 . S
C27 C37 1.723 . S
C28 C25 1.453 . S
C28 H52 0.982 . S
C28 H53 0.979 . S
C28 H54 0.977 . S
C29 C25 1.684 . S
C29 H55 0.979 . S
C29 H56 0.980 . S
C29 H57 0.983 . S
C30 H6 0.948 . S
C30 C31 1.391 . S
C30 C35 1.391 . S
C31 C30 1.391 . S
C31 C32 1.391 . S
C32 H9 0.947 . S
C32 C31 1.391 . S
C32 C33 1.392 . S
C33 H10 0.948 . S
C33 C32 1.392 . S
C33 C34 1.419 . S
C34 C33 1.419 . S
C34 C35 1.391 . S
C34 C38 1.397 . S
C35 C30 1.391 . S
C35 C34 1.391 . S
C35 C36 1.399 . S
C36 C35 1.399 . S
C36 C37 1.396 . S
C36 C39 1.453 . S
C36 C40 1.684 . S
C37 C27 1.723 . S
C37 C36 1.396 . S
C37 C38 1.394 . S
C38 C8 1.723 . S
C38 C34 1.397 . S
C38 C37 1.394 . S
C39 H11 0.982 . S
C39 H15 0.979 . S
C39 H16 0.977 . S
C39 C36 1.453 . S
C40 H12 0.979 . S
C40 H13 0.980 . S
C40 H14 0.983 . S
C40 C36 1.684 . S
H41 C59 0.948 . S
H42 C0 0.948 . S
H43 C18 0.979 . S
H44 C18 0.980 . S
H45 C18 0.983 . S
H46 C17 0.982 . S
H47 C17 0.979 . S
H48 C17 0.977 . S
H49 C19 0.948 . S
H50 C21 0.947 . S
H51 C22 0.948 . S
H52 C28 0.982 . S
H53 C28 0.979 . S
H54 C28 0.977 . S
H55 C29 0.979 . S
H56 C29 0.980 . S
H57 C29 0.983 . S
H58 C2 0.947 . S
C59 C2 1.392 . S
C59 C3 1.419 . S
C59 H41 0.948 . S
C60 C61 1.391 . S
C60 C64 1.391 . S
C60 H102 0.948 . S
C61 C60 1.391 . S
C61 C62 1.391 . S
C62 C61 1.391 . S
C62 H118 0.947 . S
C62 C119 1.392 . S
C63 C64 1.391 . S
C63 C67 1.397 . S
C63 C119 1.419 . S
C64 C60 1.391 . S
C64 C63 1.391 . S
C64 C65 1.399 . S
C65 C64 1.399 . S
C65 C68 1.396 . S
C65 C77 1.453 . S
C65 C78 1.684 . S
H66 C90 0.948 . S
C67 C63 1.397 . S
C67 C68 1.394 . S
C67 C86 1.723 . S
C68 C65 1.396 . S
C68 C67 1.394 . S
C68 C98 1.723 . S
H69 C92 0.947 . S
H70 C93 0.948 . S
H71 C99 0.982 . S
H72 C100 0.979 . S
H73 C100 0.980 . S
H74 C100 0.983 . S
H75 C99 0.979 . S
H76 C99 0.977 . S
C77 C65 1.453 . S
C77 H106 0.982 . S
C77 H107 0.979 . S
C77 H108 0.977 . S
C78 C65 1.684 . S
C78 H103 0.979 . S
C78 H104 0.980 . S
C78 H105 0.983 . S
C79 C80 1.391 . S
C79 C84 1.391 . S
C79 H109 0.948 . S
C80 C79 1.391 . S
C80 C81 1.391 . S
C81 C80 1.391 . S
C81 C82 1.392 . S
C81 H110 0.947 . S
C82 C81 1.392 . S
C82 C83 1.419 . S
C82 H111 0.948 . S
C83 C82 1.419 . S
C83 C84 1.391 . S
C83 C87 1.397 . S
C84 C79 1.391 . S
C84 C83 1.391 . S
C84 C85 1.399 . S
C85 C84 1.399 . S
C85 C86 1.396 . S
C85 C88 1.453 . S
C85 C89 1.684 . S
C86 C67 1.723 . S
C86 C85 1.396 . S
C86 C87 1.394 . S
C87 C83 1.397 . S
C87 C86 1.394 . S
C87 C97 1.723 . S
C88 C85 1.453 . S
C88 H112 0.982 . S
C88 H113 0.979 . S
C88 H114 0.977 . S
C89 C85 1.684 . S
C89 H115 0.979 . S
C89 H116 0.980 . S
C89 H117 0.983 . S
C90 H66 0.948 . S
C90 C91 1.391 . S
C90 C95 1.391 . S
C91 C90 1.391 . S
C91 C92 1.391 . S
C92 H69 0.947 . S
C92 C91 1.391 . S
C92 C93 1.392 . S
C93 H70 0.948 . S
C93 C92 1.392 . S
C93 C94 1.419 . S
C94 C93 1.419 . S
C94 C95 1.391 . S
C94 C98 1.397 . S
C95 C90 1.391 . S
C95 C94 1.391 . S
C95 C96 1.399 . S
C96 C95 1.399 . S
C96 C97 1.396 . S
C96 C99 1.453 . S
C96 C100 1.684 . S
C97 C87 1.723 . S
C97 C96 1.396 . S
C97 C98 1.394 . S
C98 C68 1.723 . S
C98 C94 1.397 . S
C98 C97 1.394 . S
C99 H71 0.982 . S
C99 H75 0.979 . S
C99 H76 0.977 . S
C99 C96 1.453 . S
C100 H72 0.979 . S
C100 H73 0.980 . S
C100 H74 0.983 . S
C100 C96 1.684 . S
H101 C119 0.948 . S
H102 C60 0.948 . S
H103 C78 0.979 . S
H104 C78 0.980 . S
H105 C78 0.983 . S
H106 C77 0.982 . S
H107 C77 0.979 . S
H108 C77 0.977 . S
H109 C79 0.948 . S
H110 C81 0.947 . S
H111 C82 0.948 . S
H112 C88 0.982 . S
H113 C88 0.979 . S
H114 C88 0.977 . S
H115 C89 0.979 . S
H116 C89 0.980 . S
H117 C89 0.983 . S
H118 C62 0.947 . S
C119 C62 1.392 . S
C119 C63 1.419 . S
C119 H101 0.948 . S
C120 C121 1.391 . S
C120 C124 1.391 . S
C120 H162 0.948 . S
C121 C120 1.391 . S
C121 C122 1.391 . S
C122 C121 1.391 . S
C122 H178 0.947 . S
C122 C179 1.392 . S
C123 C124 1.391 . S
C123 C127 1.397 . S
C123 C179 1.419 . S
C124 C120 1.391 . S
C124 C123 1.391 . S
C124 C125 1.399 . S
C125 C124 1.399 . S
C125 C128 1.396 . S
C125 C137 1.453 . S
C125 C138 1.684 . S
H126 C150 0.948 . S
C127 C123 1.397 . S
C127 C128 1.394 . S
C127 C146 1.723 . S
C128 C125 1.396 . S
C128 C127 1.394 . S
C128 C158 1.723 . S
H129 C152 0.947 . S
H130 C153 0.948 . S
H131 C159 0.982 . S
H132 C160 0.979 . S
H133 C160 0.980 . S
H134 C160 0.983 . S
H135 C159 0.979 . S
H136 C159 0.977 . S
C137 C125 1.453 . S
C137 H166 0.982 . S
C137 H167 0.979 . S
C137 H168 0.977 . S
C138 C125 1.684 . S
C138 H163 0.979 . S
C138 H164 0.980 . S
C138 H165 0.983 . S
C139 C140 1.391 . S
C139 C144 1.391 . S
C139 H169 0.948 . S
C140 C139 1.391 . S
C140 C141 1.391 . S
C141 C140 1.391 . S
C141 C142 1.392 . S
C141 H170 0.947 . S
C142 C141 1.392 . S
C142 C143 1.419 . S
C142 H171 0.948 . S
C143 C142 1.419 . S
C143 C144 1.391 . S
C143 C147 1.397 . S
C144 C139 1.391 . S
C144 C143 1.391 . S
C144 C145 1.399 . S
C145 C144 1.399 . S
C145 C146 1.396 . S
C145 C148 1.453 . S
C145 C149 1.684 . S
C146 C127 1.723 . S
C146 C145 1.396 . S
C146 C147 1.394 . S
C147 C143 1.397 . S
C147 C146 1.394 . S
C147 C157 1.723 . S
C148 C145 1.453 . S
C148 H172 0.982 . S
C148 H173 0.979 . S
C148 H174 0.977 . S
C149 C145 1.684 . S
C149 H175 0.979 . S
C149 H176 0.980 . S
C149 H177 0.983 . S
C150 H126 0.948 . S
C150 C151 1.391 . S
C150 C155 1.391 . S
C151 C150 1.391 . S
C151 C152 1.391 . S
C152 H129 0.947 . S
C152 C151 1.391 . S
C152 C153 1.392 . S
C153 H130 0.948 . S
C153 C152 1.392 . S
C153 C154 1.419 . S
C154 C153 1.419 . S
C154 C155 1.391 . S
C154 C158 1.397 . S
C155 C150 1.391 . S
C155 C154 1.391 . S
C155 C156 1.399 . S
C156 C155 1.399 . S
C156 C157 1.396 . S
C156 C159 1.453 . S
C156 C160 1.684 . S
C157 C147 1.723 . S
C157 C156 1.396 . S
C157 C158 1.394 . S
C158 C128 1.723 . S
C158 C154 1.397 . S
C158 C157 1.394 . S
C159 H131 0.982 . S
C159 H135 0.979 . S
C159 H136 0.977 . S
C159 C156 1.453 . S
C160 H132 0.979 . S
C160 H133 0.980 . S
C160 H134 0.983 . S
C160 C156 1.684 . S
H161 C179 0.948 . S
H162 C120 0.948 . S
H163 C138 0.979 . S
H164 C138 0.980 . S
H165 C138 0.983 . S
H166 C137 0.982 . S
H167 C137 0.979 . S
H168 C137 0.977 . S
H169 C139 0.948 . S
H170 C141 0.947 . S
H171 C142 0.948 . S
H172 C148 0.982 . S
H173 C148 0.979 . S
H174 C148 0.977 . S
H175 C149 0.979 . S
H176 C149 0.980 . S
H177 C149 0.983 . S
H178 C122 0.947 . S
C179 C122 1.392 . S
C179 C123 1.419 . S
C179 H161 0.948 . S
C180 C181 1.391 . S
C180 C184 1.391 . S
C180 H222 0.948 . S
C181 C180 1.391 . S
C181 C182 1.391 . S
C182 C181 1.391 . S
C182 H238 0.947 . S
C182 C239 1.392 . S
C183 C184 1.391 . S
C183 C187 1.397 . S
C183 C239 1.419 . S
C184 C180 1.391 . S
C184 C183 1.391 . S
C184 C185 1.399 . S
C185 C184 1.399 . S
C185 C188 1.396 . S
C185 C197 1.453 . S
C185 C198 1.684 . S
H186 C210 0.948 . S
C187 C183 1.397 . S
C187 C188 1.394 . S
C187 C206 1.723 . S
C188 C185 1.396 . S
C188 C187 1.394 . S
C188 C218 1.723 . S
H189 C212 0.947 . S
H190 C213 0.948 . S
H191 C219 0.982 . S
H192 C220 0.979 . S
H193 C220 0.980 . S
H194 C220 0.983 . S
H195 C219 0.979 . S
H196 C219 0.977 . S
C197 C185 1.453 . S
C197 H226 0.982 . S
C197 H227 0.979 . S
C197 H228 0.977 . S
C198 C185 1.684 . S
C198 H223 0.979 . S
C198 H224 0.980 . S
C198 H225 0.983 . S
C199 C200 1.391 . S
C199 C204 1.391 . S
C199 H229 0.948 . S
C200 C199 1.391 . S
C200 C201 1.391 . S
C201 C200 1.391 . S
C201 C202 1.392 . S
C201 H230 0.947 . S
C202 C201 1.392 . S
C202 C203 1.419 . S
C202 H231 0.948 . S
C203 C202 1.419 . S
C203 C204 1.391 . S
C203 C207 1.397 . S
C204 C199 1.391 . S
C204 C203 1.391 . S
C204 C205 1.399 . S
C205 C204 1.399 . S
C205 C206 1.396 . S
C205 C208 1.453 . S
C205 C209 1.684 . S
C206 C187 1.723 . S
C206 C205 1.396 . S
C206 C207 1.394 . S
C207 C203 1.397 . S
C207 C206 1.394 . S
C207 C217 1.723 . S
C208 C205 1.453 . S
C208 H232 0.982 . S
C208 H233 0.979 . S
C208 H234 0.977 . S
C209 C205 1.684 . S
C209 H235 0.979 . S
C209 H236 0.980 . S
C209 H237 0.983 . S
C210 H186 0.948 . S
C210 C211 1.391 . S
C210 C215 1.391 . S
C211 C210 1.391 . S
C211 C212 1.391 . S
C212 H189 0.947 . S
C212 C211 1.391 . S
C212 C213 1.392 . S
C213 H190 0.948 . S
C213 C212 1.392 . S
C213 C214 1.419 . S
C214 C213 1.419 . S
C214 C215 1.391 . S
C214 C218 1.397 . S
C215 C210 1.391 . S
C215 C214 1.391 . S
C215 C216 1.399 . S
C216 C215 1.399 . S
C216 C217 1.396 . S
C216 C219 1.453 . S
C216 C220 1.684 . S
C217 C207 1.723 . S
C217 C216 1.396 . S
C217 C218 1.394 . S
C218 C188 1.723 . S
C218 C214 1.397 . S
C218 C217 1.394 . S
C219 H191 0.982 . S
C219 H195 0.979 . S
C219 H196 0.977 . S
C219 C216 1.453 . S
C220 H192 0.979 . S
C220 H193 0.980 . S
C220 H194 0.983 . S
C220 C216 1.684 . S
H221 C239 0.948 . S
H222 C180 0.948 . S
H223 C198 0.979 . S
H224 C198 0.980 . S
H225 C198 0.983 . S
H226 C197 0.982 . S
H227 C197 0.979 . S
H228 C197 0.977 . S
H229 C199 0.948 . S
H230 C201 0.947 . S
H231 C202 0.948 . S
H232 C208 0.982 . S
H233 C208 0.979 . S
H234 C208 0.977 . S
H235 C209 0.979 . S
H236 C209 0.980 . S
H237 C209 0.983 . S
H238 C182 0.947 . S
C239 C182 1.392 . S
C239 C183 1.419 . S
C239 H221 0.948 . S
C240 C241 1.391 . S
C240 C244 1.391 . S
C240 H282 0.948 . S
C241 C240 1.391 . S
C241 C242 1.391 . S
C242 C241 1.391 . S
C242 H298 0.947 . S
C242 C299 1.392 . S
C243 C244 1.391 . S
C243 C247 1.397 . S
C243 C299 1.419 . S
C244 C240 1.391 . S
C244 C243 1.391 . S
C244 C245 1.399 . S
C245 C244 1.399 . S
C245 C248 1.396 . S
C245 C257 1.453 . S
C245 C258 1.684 . S
H246 C270 0.948 . S
C247 C243 1.397 . S
C247 C248 1.394 . S
C247 C266 1.723 . S
C248 C245 1.396 . S
C248 C247 1.394 . S
C248 C278 1.723 . S
H249 C272 0.947 . S
H250 C273 0.948 . S
H251 C279 0.982 . S
H252 C280 0.979 . S
H253 C280 0.980 . S
H254 C280 0.983 . S
H255 C279 0.979 . S
H256 C279 0.977 . S
C257 C245 1.453 . S
C257 H286 0.982 . S
C257 H287 0.979 . S
C257 H288 0.977 . S
C258 C245 1.684 . S
C258 H283 0.979 . S
C258 H284 0.980 . S
C258 H285 0.983 . S
C259 C260 1.391 . S
C259 C264 1.391 . S
C259 H289 0.948 . S
C260 C259 1.391 . S
C260 C261 1.391 . S
C261 C260 1.391 . S
C261 C262 1.392 . S
C261 H290 0.947 . S
C262 C261 1.392 . S
C262 C263 1.419 . S
C262 H291 0.948 . S
C263 C262 1.419 . S
C263 C264 1.391 . S
C263 C267 1.397 . S
C264 C259 1.391 . S
C264 C263 1.391 . S
C264 C265 1.399 . S
C265 C264 1.399 . S
C265 C266 1.396 . S
C265 C268 1.453 . S
C265 C269 1.684 . S
C266 C247 1.723 . S
C266 C265 1.396 . S
C266 C267 1.394 . S
C267 C263 1.397 . S
C267 C266 1.394 . S
C267 C277 1.723 . S
C268 C265 1.453 . S
C268 H292 0.982 . S
C268 H293 0.979 . S
C268 H294 0.977 . S
C269 C265 1.684 . S
C269 H295 0.979 . S
C269 H296 0.980 . S
C269 H297 0.983 . S
C270 H246 0.948 . S
C270 C271 1.391 . S
C270 C275 1.391 . S
C271 C270 1.391 . S
C271 C272 1.391 . S
C272 H249 0.947 . S
C272 C271 1.391 . S
C272 C273 1.392 . S
C273 H250 0.948 . S
C273 C272 1.392 . S
C273 C274 1.419 . S
C274 C273 1.419 . S
C274 C275 1.391 . S
C274 C278 1.397 . S
C275 C270 1.391 . S
C275 C274 1.391 . S
C275 C276 1.399 . S
C276 C275 1.399 . S
C276 C277 1.396 . S
C276 C279 1.453 . S
C276 C280 1.684 . S
C277 C267 1.723 . S
C277 C276 1.396 . S
C277 C278 1.394 . S
C278 C248 1.723 . S
C278 C274 1.397 . S
C278 C277 1.394 . S
C279 H251 0.982 . S
C279 H255 0.979 . S
C279 H256 0.977 . S
C279 C276 1.453 . S
C280 H252 0.979 . S
C280 H253 0.980 . S
C280 H254 0.983 . S
C280 C276 1.684 . S
H281 C299 0.948 . S
H282 C240 0.948 . S
H283 C258 0.979 . S
H284 C258 0.980 . S
H285 C258 0.983 . S
H286 C257 0.982 . S
H287 C257 0.979 . S
H288 C257 0.977 . S
H289 C259 0.948 . S
H290 C261 0.947 . S
H291 C262 0.948 . S
H292 C268 0.982 . S
H293 C268 0.979 . S
H294 C268 0.977 . S
H295 C269 0.979 . S
H296 C269 0.980 . S
H297 C269 0.983 . S
H298 C242 0.947 . S
C299 C242 1.392 . S
C299 C243 1.419 . S
C299 H281 0.948 . S
C300 C301 1.391 . S
C300 C304 1.391 . S
C300 H342 0.948 . S
C301 C300 1.391 . S
C301 C302 1.391 . S
C302 C301 1.391 . S
C302 H358 0.947 . S
C302 C359 1.392 . S
C303 C304 1.391 . S
C303 C307 1.397 . S
C303 C359 1.419 . S
C304 C300 1.391 . S
C304 C303 1.391 . S
C304 C305 1.399 . S
C305 C304 1.399 . S
C305 C308 1.396 . S
C305 C317 1.453 . S
C305 C318 1.684 . S
H306 C330 0.948 . S
C307 C303 1.397 . S
C307 C308 1.394 . S
C307 C326 1.723 . S
C308 C305 1.396 . S
C308 C307 1.394 . S
C308 C338 1.723 . S
H309 C332 0.947 . S
H310 C333 0.948 . S
H311 C339 0.982 . S
H312 C340 0.979 . S
H313 C340 0.980 . S
H314 C340 0.983 . S
H315 C339 0.979 . S
H316 C339 0.977 . S
C317 C305 1.453 . S
C317 H346 0.982 . S
C317 H347 0.979 . S
C317 H348 0.977 . S
C318 C305 1.684 . S
C318 H343 0.979 . S
C318 H344 0.980 . S
C318 H345 0.983 . S
C319 C320 1.391 . S
C319 C324 1.391 . S
C319 H349 0.948 . S
C320 C319 1.391 . S
C320 C321 1.391 . S
C321 C320 1.391 . S
C321 C322 1.392 . S
C321 H350 0.947 . S
C322 C321 1.392 . S
C322 C323 1.419 . S
C322 H351 0.948 . S
C323 C322 1.419 . S
C323 C324 1.391 . S
C323 C327 1.397 . S
C324 C319 1.391 . S
C324 C323 1.391 . S
C324 C325 1.399 . S
C325 C324 1.399 . S
C325 C326 1.396 . S
C325 C328 1.453 . S
C325 C329 1.684 . S
C326 C307 1.723 . S
C326 C325 1.396 . S
C326 C327 1.394 . S
C327 C323 1.397 . S
C327 C326 1.394 . S
C327 C337 1.723 . S
C328 C325 1.453 . S
C328 H352 0.982 . S
C328 H353 0.979 . S
C328 H354 0.977 . S
C329 C325 1.684 . S
C329 H355 0.979 . S
C329 H356 0.980 . S
C329 H357 0.983 . S
C330 H306 0.948 . S
C330 C331 1.391 . S
C330 C335 1.391 . S
C331 C330 1.391 . S
C331 C332 1.391 . S
C332 H309 0.947 . S
C332 C331 1.391 . S
C332 C333 1.392 . S
C333 H310 0.948 . S
C333 C332 1.392 . S
C333 C334 1.419 . S
C334 C333 1.419 . S
C334 C335 1.391 . S
C334 C338 1.397 . S
C335 C330 1.391 . S
C335 C334 1.391 . S
C335 C336 1.399 . S
C336 C335 1.399 . S
C336 C337 1.396 . S
C336 C339 1.453 . S
C336 C340 1.684 . S
C337 C327 1.723 . S
C337 C336 1.396 . S
C337 C338 1.394 . S
C338 C308 1.723 . S
C338 C334 1.397 . S
C338 C337 1.394 . S
C339 H311 0.982 . S
C339 H315 0.979 . S
C339 H316 0.977 . S
C339 C336 1.453 . S
C340 H312 0.979 . S
C340 H313 0.980 . S
C340 H314 0.983 . S
C340 C336 1.684 . S
H341 C359 0.948 . S
H342 C300 0.948 . S
H343 C318 0.979 . S
H344 C318 0.980 . S
H345 C318 0.983 . S
H346 C317 0.982 . S
H347 C317 0.979 . S
H348 C317 0.977 . S
H349 C319 0.948 . S
H350 C321 0.947 . S
H351 C322 0.948 . S
H352 C328 0.982 . S
H353 C328 0.979 . S
H354 C328 0.977 . S
H355 C329 0.979 . S
H356 C329 0.980 . S
H357 C329 0.983 . S
H358 C302 0.947 . S
C359 C302 1.392 . S
C359 C303 1.419 . S
C359 H341 0.948 . S
C360 C361 1.391 . S
C360 C364 1.391 . S
C360 H402 0.948 . S
C361 C360 1.391 . S
C361 C362 1.391 . S
C362 C361 1.391 . S
C362 H418 0.947 . S
C362 C419 1.392 . S
C363 C364 1.391 . S
C363 C367 1.397 . S
C363 C419 1.419 . S
C364 C360 1.391 . S
C364 C363 1.391 . S
C364 C365 1.399 . S
C365 C364 1.399 . S
C365 C368 1.396 . S
C365 C377 1.453 . S
C365 C378 1.684 . S
H366 C390 0.948 . S
C367 C363 1.397 . S
C367 C368 1.394 . S
C367 C386 1.723 . S
C368 C365 1.396 . S
C368 C367 1.394 . S
C368 C398 1.723 . S
H369 C392 0.947 . S
H370 C393 0.948 . S
H371 C399 0.982 . S
H372 C400 0.979 . S
H373 C400 0.980 . S
H374 C400 0.983 . S
H375 C399 0.979 . S
H376 C399 0.977 . S
C377 C365 1.453 . S
C377 H406 0.982 . S
C377 H407 0.979 . S
C377 H408 0.977 . S
C378 C365 1.684 . S
C378 H403 0.979 . S
C378 H404 0.980 . S
C378 H405 0.983 . S
C379 C380 1.391 . S
C379 C384 1.391 . S
C379 H409 0.948 . S
C380 C379 1.391 . S
C380 C381 1.391 . S
C381 C380 1.391 . S
C381 C382 1.392 . S
C381 H410 0.947 . S
C382 C381 1.392 . S
C382 C383 1.419 . S
C382 H411 0.948 . S
C383 C382 1.419 . S
C383 C384 1.391 . S
C383 C387 1.397 . S
C384 C379 1.391 . S
C384 C383 1.391 . S
C384 C385 1.399 . S
C385 C384 1.399 . S
C385 C386 1.396 . S
C385 C388 1.453 . S
C385 C389 1.684 . S
C386 C367 1.723 . S
C386 C385 1.396 . S
C386 C387 1.394 . S
C387 C383 1.397 . S
C387 C386 1.394 . S
C387 C397 1.723 . S
C388 C385 1.453 . S
C388 H412 0.982 . S
C388 H413 0.979 . S
C388 H414 0.977 . S
C389 C385 1.684 . S
C389 H415 0.979 . S
C389 H416 0.980 . S
C389 H417 0.983 . S
C390 H366 0.948 . S
C390 C391 1.391 . S
C390 C395 1.391 . S
C391 C390 1.391 . S
C391 C392 1.391 . S
C392 H369 0.947 . S
C392 C391 1.391 . S
C392 C393 1.392 . S
C393 H370 0.948 . S
C393 C392 1.392 . S
C393 C394 1.419 . S
C394 C393 1.419 . S
C394 C395 1.391 . S
C394 C398 1.397 . S
C395 C390 1.391 . S
C395 C394 1.391 . S
C395 C396 1.399 . S
C396 C395 1.399 . S
C396 C397 1.396 . S
C396 C399 1.453 . S
C396 C400 1.684 . S
C397 C387 1.723 . S
C397 C396 1.396 . S
C397 C398 1.394 . S
C398 C368 1.723 . S
C398 C394 1.397 . S
C398 C397 1.394 . S
C399 H371 0.982 . S
C399 H375 0.979 . S
C399 H376 0.977 . S
C399 C396 1.453 . S
C400 H372 0.979 . S
C400 H373 0.980 . S
C400 H374 0.983 . S
C400 C396 1.684 . S
H401 C419 0.948 . S
H402 C360 0.948 . S
H403 C378 0.979 . S
H404 C378 0.980 . S
H405 C378 0.983 . S
H406 C377 0.982 . S
H407 C377 0.979 . S
H408 C377 0.977 . S
H409 C379 0.948 . S
H410 C381 0.947 . S
H411 C382 0.948 . S
H412 C388 0.982 . S
H413 C388 0.979 . S
H414 C388 0.977 . S
H415 C389 0.979 . S
H416 C389 0.980 . S
H417 C389 0.983 . S
H418 C362 0.947 . S
C419 C362 1.392 . S
C419 C363 1.419 . S
C419 H401 0.948 . S
C420 C421 1.391 . S
C420 C424 1.391 . S
C420 H462 0.948 . S
C421 C420 1.391 . S
C421 C422 1.391 . S
C422 C421 1.391 . S
C422 H478 0.947 . S
C422 C479 1.392 . S
C423 C424 1.391 . S
C423 C427 1.397 . S
C423 C479 1.419 . S
C424 C420 1.391 . S
C424 C423 1.391 . S
C424 C425 1.399 . S
C425 C424 1.399 . S
C425 C428 1.396 . S
C425 C437 1.453 . S
C425 C438 1.684 . S
H426 C450 0.948 . S
C427 C423 1.397 . S
C427 C428 1.394 . S
C427 C446 1.723 . S
C428 C425 1.396 . S
C428 C427 1.394 . S
C428 C458 1.723 . S
H429 C452 0.947 . S
H430 C453 0.948 . S
H431 C459 0.982 . S
H432 C460 0.979 . S
H433 C460 0.980 . S
H434 C460 0.983 . S
H435 C459 0.979 . S
H436 C459 0.977 . S
C437 C425 1.453 . S
C437 H466 0.982 . S
C437 H467 0.979 . S
C437 H468 0.977 . S
C438 C425 1.684 . S
C438 H463 0.979 . S
C438 H464 0.980 . S
C438 H465 0.983 . S
C439 C440 1.391 . S
C439 C444 1.391 . S
C439 H469 0.948 . S
C440 C439 1.391 . S
C440 C441 1.391 . S
C441 C440 1.391 . S
C441 C442 1.392 . S
C441 H470 0.947 . S
C442 C441 1.392 . S
C442 C443 1.419 . S
C442 H471 0.948 . S
C443 C442 1.419 . S
C443 C444 1.391 . S
C443 C447 1.397 . S
C444 C439 1.391 . S
C444 C443 1.391 . S
C444 C445 1.399 . S
C445 C444 1.399 . S
C445 C446 1.396 . S
C445 C448 1.453 . S
C445 C449 1.684 . S
C446 C427 1.723 . S
C446 C445 1.396 . S
C446 C447 1.394 . S
C447 C443 1.397 . S
C447 C446 1.394 . S
C447 C457 1.723 . S
C448 C445 1.453 . S
C448 H472 0.982 . S
C448 H473 0.979 . S
C448 H474 0.977 . S
C449 C445 1.684 . S
C449 H475 0.979 . S
C449 H476 0.980 . S
C449 H477 0.983 . S
C450 H426 0.948 . S
C450 C451 1.391 . S
C450 C455 1.391 . S
C451 C450 1.391 . S
C451 C452 1.391 . S
C452 H429 0.947 . S
C452 C451 1.391 . S
C452 C453 1.392 . S
C453 H430 0.948 . S
C453 C452 1.392 . S
C453 C454 1.419 . S
C454 C453 1.419 . S
C454 C455 1.391 . S
C454 C458 1.397 . S
C455 C450 1.391 . S
C455 C454 1.391 . S
C455 C456 1.399 . S
C456 C455 1.399 . S
C456 C457 1.396 . S
C456 C459 1.453 . S
C456 C460 1.684 . S
C457 C447 1.723 . S
C457 C456 1.396 . S
C457 C458 1.394 . S
C458 C428 1.723 . S
C458 C454 1.397 . S
C458 C457 1.394 . S
C459 H431 0.982 . S
C459 H435 0.979 . S
C459 H436 0.977 . S
C459 C456 1.453 . S
C460 H432 0.979 . S
C460 H433 0.980 . S
C460 H434 0.983 . S
C460 C456 1.684 . S
H461 C479 0.948 . S
H462 C420 0.948 . S
H463 C438 0.979 . S
H464 C438 0.980 . S
H465 C438 0.983 . S
H466 C437 0.982 . S
H467 C437 0.979 . S
H468 C437 0.977 . S
H469 C439 0.948 . S
H470 C441 0.947 . S
H471 C442 0.948 . S
H472 C448 0.982 . S
H473 C448 0.979 . S
H474 C448 0.977 . S
H475 C449 0.979 . S
H476 C449 0.980 . S
H477 C449 0.983 . S
H478 C422 0.947 . S
C479 C422 1.392 . S
C479 C423 1.419 . S
C479 H461 0.948 . S
Tb480 C489 2.764 . S
Tb480 O490 2.325 1_455 S
Tb480 O493 2.303 . S
Tb480 O497 2.322 1_545 S
Tb480 O498 2.349 1_545 S
Tb480 O501 2.415 . S
Tb480 O502 2.399 . S
Tb481 O491 2.322 1_565 S
Tb481 O492 2.349 1_565 S
Tb481 O494 2.415 . S
Tb481 O495 2.399 . S
Tb481 O496 2.325 1_655 S
Tb481 O499 2.303 . S
Tb481 C510 2.764 . S
C482 O498 1.261 1_655 S
C482 O499 1.257 . S
C483 C486 1.358 . S
C483 C487 1.332 . S
C483 C489 1.504 . S
C484 C485 1.373 . S
C484 C488 1.308 . S
C485 C484 1.373 . S
C485 C486 1.429 . S
C485 H512 0.932 . S
C486 C483 1.358 . S
C486 C485 1.429 . S
C486 H513 0.930 . S
C487 C483 1.332 . S
C487 C488 1.394 . S
C487 H514 0.932 . S
C488 C484 1.308 . S
C488 C487 1.394 . S
C488 H515 0.929 . S
C489 Tb480 2.764 . S
C489 C483 1.504 . S
C489 O501 1.239 . S
C489 O502 1.263 . S
O490 Tb480 2.325 1_655 S
O490 C500 1.236 . S
O491 Tb481 2.322 1_545 S
O491 C500 1.257 . S
O492 Tb481 2.349 1_545 S
O492 C503 1.261 1_655 S
O493 Tb480 2.303 . S
O493 C503 1.257 . S
O494 Tb481 2.415 . S
O494 C510 1.239 . S
O495 Tb481 2.399 . S
O495 C510 1.263 . S
O496 Tb481 2.325 1_455 S
O496 C511 1.236 . S
O497 Tb480 2.322 1_565 S
O497 C511 1.257 . S
O498 Tb480 2.349 1_565 S
O498 C482 1.261 1_455 S
O499 Tb481 2.303 . S
O499 C482 1.257 . S
C500 O490 1.236 . S
C500 O491 1.257 . S
O501 Tb480 2.415 . S
O501 C489 1.239 . S
O502 Tb480 2.399 . S
O502 C489 1.263 . S
C503 O492 1.261 1_455 S
C503 O493 1.257 . S
C504 C507 1.358 . S
C504 C508 1.332 . S
C504 C510 1.504 . S
C505 C506 1.373 . S
C505 C509 1.308 . S
C506 C505 1.373 . S
C506 C507 1.429 . S
C506 H516 0.932 . S
C507 C504 1.358 . S
C507 C506 1.429 . S
C507 H517 0.930 . S
C508 C504 1.332 . S
C508 C509 1.394 . S
C508 H518 0.932 . S
C509 C505 1.308 . S
C509 C508 1.394 . S
C509 H519 0.929 . S
C510 Tb481 2.764 . S
C510 O494 1.239 . S
C510 O495 1.263 . S
C510 C504 1.504 . S
C511 O496 1.236 . S
C511 O497 1.257 . S
H512 C485 0.932 . S
H513 C486 0.930 . S
H514 C487 0.932 . S
H515 C488 0.929 . S
H516 C506 0.932 . S
H517 C507 0.930 . S
H518 C508 0.932 . S
H519 C509 0.929 . S
Tb520 C529 2.764 . S
Tb520 O530 2.325 1_554 S
Tb520 O533 2.303 . S
Tb520 O537 2.322 1_545 S
Tb520 O538 2.349 1_544 S
Tb520 O541 2.415 . S
Tb520 O542 2.399 . S
Tb521 O531 2.322 1_565 S
Tb521 O532 2.349 1_566 S
Tb521 O534 2.415 . S
Tb521 O535 2.399 . S
Tb521 O536 2.325 1_556 S
Tb521 O539 2.303 . S
Tb521 C550 2.764 . S
C522 O538 1.261 . S
C522 O539 1.257 . S
C523 C526 1.358 . S
C523 C527 1.332 . S
C523 C529 1.504 . S
C524 C525 1.373 . S
C524 C528 1.308 . S
C525 C524 1.373 . S
C525 C526 1.429 . S
C525 H552 0.932 . S
C526 C523 1.358 . S
C526 C525 1.429 . S
C526 H553 0.930 . S
C527 C523 1.332 . S
C527 C528 1.394 . S
C527 H554 0.932 . S
C528 C524 1.308 . S
C528 C527 1.394 . S
C528 H555 0.929 . S
C529 Tb520 2.764 . S
C529 C523 1.504 . S
C529 O541 1.239 . S
C529 O542 1.263 . S
O530 Tb520 2.325 1_556 S
O530 C540 1.236 . S
O531 Tb521 2.322 1_545 S
O531 C540 1.257 . S
O532 Tb521 2.349 1_544 S
O532 C543 1.261 . S
O533 Tb520 2.303 . S
O533 C543 1.257 . S
O534 Tb521 2.415 . S
O534 C550 1.239 . S
O535 Tb521 2.399 . S
O535 C550 1.263 . S
O536 Tb521 2.325 1_554 S
O536 C551 1.236 . S
O537 Tb520 2.322 1_565 S
O537 C551 1.257 . S
O538 Tb520 2.349 1_566 S
O538 C522 1.261 . S
O539 Tb521 2.303 . S
O539 C522 1.257 . S
C540 O530 1.236 . S
C540 O531 1.257 . S
O541 Tb520 2.415 . S
O541 C529 1.239 . S
O542 Tb520 2.399 . S
O542 C529 1.263 . S
C543 O532 1.261 . S
C543 O533 1.257 . S
C544 C547 1.358 . S
C544 C548 1.332 . S
C544 C550 1.504 . S
C545 C546 1.373 . S
C545 C549 1.308 . S
C546 C545 1.373 . S
C546 C547 1.429 . S
C546 H556 0.932 . S
C547 C544 1.358 . S
C547 C546 1.429 . S
C547 H557 0.930 . S
C548 C544 1.332 . S
C548 C549 1.394 . S
C548 H558 0.932 . S
C549 C545 1.308 . S
C549 C548 1.394 . S
C549 H559 0.929 . S
C550 Tb521 2.764 . S
C550 O534 1.239 . S
C550 O535 1.263 . S
C550 C544 1.504 . S
C551 O536 1.236 . S
C551 O537 1.257 . S
H552 C525 0.932 . S
H553 C526 0.930 . S
H554 C527 0.932 . S
H555 C528 0.929 . S
H556 C546 0.932 . S
H557 C547 0.930 . S
H558 C548 0.932 . S
H559 C549 0.929 . S
Tb560 C569 2.764 . S
Tb560 O570 2.325 . S
Tb560 O573 2.303 . S
Tb560 O577 2.322 . S
Tb560 O578 2.349 . S
Tb560 O581 2.415 . S
Tb560 O582 2.399 . S
Tb561 O571 2.322 . S
Tb561 O572 2.349 . S
Tb561 O574 2.415 . S
Tb561 O575 2.399 . S
Tb561 O576 2.325 . S
Tb561 O579 2.303 . S
Tb561 C590 2.764 . S
C562 O578 1.261 . S
C562 O579 1.257 . S
C563 C566 1.358 . S
C563 C567 1.332 . S
C563 C569 1.504 . S
C564 C565 1.373 . S
C564 C568 1.308 . S
C565 C564 1.373 . S
C565 C566 1.429 . S
C565 H592 0.932 . S
C566 C563 1.358 . S
C566 C565 1.429 . S
C566 H593 0.930 . S
C567 C563 1.332 . S
C567 C568 1.394 . S
C567 H594 0.932 . S
C568 C564 1.308 . S
C568 C567 1.394 . S
C568 H595 0.929 . S
C569 Tb560 2.764 . S
C569 C563 1.504 . S
C569 O581 1.239 . S
C569 O582 1.263 . S
O570 Tb560 2.325 . S
O570 C580 1.236 . S
O571 Tb561 2.322 . S
O571 C580 1.257 . S
O572 Tb561 2.349 . S
O572 C583 1.261 . S
O573 Tb560 2.303 . S
O573 C583 1.257 . S
O574 Tb561 2.415 . S
O574 C590 1.239 . S
O575 Tb561 2.399 . S
O575 C590 1.263 . S
O576 Tb561 2.325 . S
O576 C591 1.236 . S
O577 Tb560 2.322 . S
O577 C591 1.257 . S
O578 Tb560 2.349 . S
O578 C562 1.261 . S
O579 Tb561 2.303 . S
O579 C562 1.257 . S
C580 O570 1.236 . S
C580 O571 1.257 . S
O581 Tb560 2.415 . S
O581 C569 1.239 . S
O582 Tb560 2.399 . S
O582 C569 1.263 . S
C583 O572 1.261 . S
C583 O573 1.257 . S
C584 C587 1.358 . S
C584 C588 1.332 . S
C584 C590 1.504 . S
C585 C586 1.373 . S
C585 C589 1.308 . S
C586 C585 1.373 . S
C586 C587 1.429 . S
C586 H596 0.932 . S
C587 C584 1.358 . S
C587 C586 1.429 . S
C587 H597 0.930 . S
C588 C584 1.332 . S
C588 C589 1.394 . S
C588 H598 0.932 . S
C589 C585 1.308 . S
C589 C588 1.394 . S
C589 H599 0.929 . S
C590 Tb561 2.764 . S
C590 O574 1.239 . S
C590 O575 1.263 . S
C590 C584 1.504 . S
C591 O576 1.236 . S
C591 O577 1.257 . S
H592 C565 0.932 . S
H593 C566 0.930 . S
H594 C567 0.932 . S
H595 C568 0.929 . S
H596 C586 0.932 . S
H597 C587 0.930 . S
H598 C588 0.932 . S
H599 C589 0.929 . S
Tb600 C609 2.764 . S
Tb600 O610 2.325 . S
Tb600 O613 2.303 1_556 S
Tb600 O617 2.334 1_655 S
Tb600 O618 2.349 1_655 S
Tb600 O621 2.415 . S
Tb600 O622 2.399 . S
Tb601 O611 2.338 1_455 S
Tb601 O612 2.349 1_455 S
Tb601 O614 2.415 . S
Tb601 O615 2.399 . S
Tb601 O616 2.325 . S
Tb601 O619 2.303 1_554 S
Tb601 C630 2.764 . S
C602 O618 1.261 . S
C602 O619 1.257 . S
C603 C606 1.358 . S
C603 C607 1.332 . S
C603 C609 1.504 . S
C604 C605 1.373 . S
C604 C608 1.308 . S
C605 C604 1.373 . S
C605 C606 1.429 . S
C605 H632 0.932 . S
C606 C603 1.358 . S
C606 C605 1.429 . S
C606 H633 0.930 . S
C607 C603 1.332 . S
C607 C608 1.394 . S
C607 H634 0.932 . S
C608 C604 1.308 . S
C608 C607 1.394 . S
C608 H635 0.929 . S
C609 Tb600 2.764 . S
C609 C603 1.504 . S
C609 O621 1.239 . S
C609 O622 1.263 . S
O610 Tb600 2.325 . S
O610 C620 1.236 . S
O611 Tb601 2.338 1_655 S
O611 C620 1.233 1_554 S
O612 Tb601 2.349 1_655 S
O612 C623 1.261 . S
O613 Tb600 2.303 1_554 S
O613 C623 1.257 . S
O614 Tb601 2.415 . S
O614 C630 1.239 . S
O615 Tb601 2.399 . S
O615 C630 1.263 . S
O616 Tb601 2.325 . S
O616 C631 1.236 . S
O617 Tb600 2.334 1_455 S
O617 C631 1.239 1_556 S
O618 Tb600 2.349 1_455 S
O618 C602 1.261 . S
O619 Tb601 2.303 1_556 S
O619 C602 1.257 . S
C620 O610 1.236 . S
C620 O611 1.233 1_556 S
O621 Tb600 2.415 . S
O621 C609 1.239 . S
O622 Tb600 2.399 . S
O622 C609 1.263 . S
C623 O612 1.261 . S
C623 O613 1.257 . S
C624 C627 1.358 . S
C624 C628 1.332 . S
C624 C630 1.504 . S
C625 C626 1.373 . S
C625 C629 1.308 . S
C626 C625 1.373 . S
C626 C627 1.429 . S
C626 H636 0.932 . S
C627 C624 1.358 . S
C627 C626 1.429 . S
C627 H637 0.930 . S
C628 C624 1.332 . S
C628 C629 1.394 . S
C628 H638 0.932 . S
C629 C625 1.308 . S
C629 C628 1.394 . S
C629 H639 0.929 . S
C630 Tb601 2.764 . S
C630 O614 1.239 . S
C630 O615 1.263 . S
C630 C624 1.504 . S
C631 O616 1.236 . S
C631 O617 1.239 1_554 S
H632 C605 0.932 . S
H633 C606 0.930 . S
H634 C607 0.932 . S
H635 C608 0.929 . S
H636 C626 0.932 . S
H637 C627 0.930 . S
H638 C628 0.932 . S
H639 C629 0.929 . S
H640 C652 0.930 . S
H641 C654 0.930 . S
H642 C655 0.930 . S
H643 C659 0.959 . S
H644 C659 0.959 . S
H645 C659 0.961 . S
H646 C660 0.960 . S
H647 C660 0.961 . S
H648 C660 0.959 . S
H649 C663 0.929 . S
H650 C664 0.931 . S
H651 C666 0.930 . S
C652 H640 0.930 . S
C652 C653 1.399 . S
C652 C657 1.399 . S
C653 C652 1.399 . S
C653 C654 1.376 . S
C654 H641 0.930 . S
C654 C653 1.376 . S
C654 C655 1.388 . S
C655 H642 0.930 . S
C655 C654 1.388 . S
C655 C656 1.390 . S
C656 C655 1.390 . S
C656 C657 1.394 . S
C656 C662 1.465 . S
C657 C652 1.399 . S
C657 C656 1.394 . S
C657 C658 1.516 . S
C658 C657 1.516 . S
C658 C659 1.502 . S
C658 C660 1.561 . S
C658 C661 1.526 . S
C659 H643 0.959 . S
C659 H644 0.959 . S
C659 H645 0.961 . S
C659 C658 1.502 . S
C660 H646 0.960 . S
C660 H647 0.961 . S
C660 H648 0.959 . S
C660 C658 1.561 . S
C661 C658 1.526 . S
C661 C662 1.396 . S
C661 C666 1.390 . S
C662 C656 1.465 . S
C662 C661 1.396 . S
C662 C663 1.399 . S
C663 H649 0.929 . S
C663 C662 1.399 . S
C663 C664 1.385 . S
C664 H650 0.931 . S
C664 C663 1.385 . S
C664 C665 1.389 . S
C665 C664 1.389 . S
C665 C666 1.387 . S
C666 H651 0.930 . S
C666 C661 1.390 . S
C666 C665 1.387 . S
H667 C679 0.930 . S
H668 C681 0.930 . S
H669 C682 0.930 . S
H670 C686 0.959 . S
H671 C686 0.959 . S
H672 C686 0.961 . S
H673 C687 0.960 . S
H674 C687 0.961 . S
H675 C687 0.959 . S
H676 C690 0.929 . S
H677 C691 0.931 . S
H678 C693 0.930 . S
C679 H667 0.930 . S
C679 C680 1.399 . S
C679 C684 1.399 . S
C680 C679 1.399 . S
C680 C681 1.376 . S
C681 H668 0.930 . S
C681 C680 1.376 . S
C681 C682 1.388 . S
C682 H669 0.930 . S
C682 C681 1.388 . S
C682 C683 1.390 . S
C683 C682 1.390 . S
C683 C684 1.394 . S
C683 C689 1.465 . S
C684 C679 1.399 . S
C684 C683 1.394 . S
C684 C685 1.516 . S
C685 C684 1.516 . S
C685 C686 1.502 . S
C685 C687 1.561 . S
C685 C688 1.526 . S
C686 H670 0.959 . S
C686 H671 0.959 . S
C686 H672 0.961 . S
C686 C685 1.502 . S
C687 H673 0.960 . S
C687 H674 0.961 . S
C687 H675 0.959 . S
C687 C685 1.561 . S
C688 C685 1.526 . S
C688 C689 1.396 . S
C688 C693 1.390 . S
C689 C683 1.465 . S
C689 C688 1.396 . S
C689 C690 1.399 . S
C690 H676 0.929 . S
C690 C689 1.399 . S
C690 C691 1.385 . S
C691 H677 0.931 . S
C691 C690 1.385 . S
C691 C692 1.389 . S
C692 C691 1.389 . S
C692 C693 1.387 . S
C693 H678 0.930 . S
C693 C688 1.390 . S
C693 C692 1.387 . S
H694 C706 0.930 . S
H695 C708 0.930 . S
H696 C709 0.930 . S
H697 C713 0.959 . S
H698 C713 0.959 . S
H699 C713 0.961 . S
H700 C714 0.960 . S
H701 C714 0.961 . S
H702 C714 0.959 . S
H703 C717 0.929 . S
H704 C718 0.931 . S
H705 C720 0.930 . S
C706 H694 0.930 . S
C706 C707 1.399 . S
C706 C711 1.399 . S
C707 C706 1.399 . S
C707 C708 1.376 . S
C708 H695 0.930 . S
C708 C707 1.376 . S
C708 C709 1.388 . S
C709 H696 0.930 . S
C709 C708 1.388 . S
C709 C710 1.390 . S
C710 C709 1.390 . S
C710 C711 1.394 . S
C710 C716 1.465 . S
C711 C706 1.399 . S
C711 C710 1.394 . S
C711 C712 1.516 . S
C712 C711 1.516 . S
C712 C713 1.502 . S
C712 C714 1.561 . S
C712 C715 1.526 . S
C713 H697 0.959 . S
C713 H698 0.959 . S
C713 H699 0.961 . S
C713 C712 1.502 . S
C714 H700 0.960 . S
C714 H701 0.961 . S
C714 H702 0.959 . S
C714 C712 1.561 . S
C715 C712 1.526 . S
C715 C716 1.396 . S
C715 C720 1.390 . S
C716 C710 1.465 . S
C716 C715 1.396 . S
C716 C717 1.399 . S
C717 H703 0.929 . S
C717 C716 1.399 . S
C717 C718 1.385 . S
C718 H704 0.931 . S
C718 C717 1.385 . S
C718 C719 1.389 . S
C719 C718 1.389 . S
C719 C720 1.387 . S
C720 H705 0.930 . S
C720 C715 1.390 . S
C720 C719 1.387 . S
H721 C733 0.930 . S
H722 C735 0.930 . S
H723 C736 0.930 . S
H724 C740 0.959 . S
H725 C740 0.959 . S
H726 C740 0.961 . S
H727 C741 0.960 . S
H728 C741 0.961 . S
H729 C741 0.959 . S
H730 C744 0.929 . S
H731 C745 0.931 . S
H732 C747 0.930 . S
C733 H721 0.930 . S
C733 C734 1.399 . S
C733 C738 1.399 . S
C734 C733 1.399 . S
C734 C735 1.376 . S
C735 H722 0.930 . S
C735 C734 1.376 . S
C735 C736 1.388 . S
C736 H723 0.930 . S
C736 C735 1.388 . S
C736 C737 1.390 . S
C737 C736 1.390 . S
C737 C738 1.394 . S
C737 C743 1.465 . S
C738 C733 1.399 . S
C738 C737 1.394 . S
C738 C739 1.516 . S
C739 C738 1.516 . S
C739 C740 1.502 . S
C739 C741 1.561 . S
C739 C742 1.526 . S
C740 H724 0.959 . S
C740 H725 0.959 . S
C740 H726 0.961 . S
C740 C739 1.502 . S
C741 H727 0.960 . S
C741 H728 0.961 . S
C741 H729 0.959 . S
C741 C739 1.561 . S
C742 C739 1.526 . S
C742 C743 1.396 . S
C742 C747 1.390 . S
C743 C737 1.465 . S
C743 C742 1.396 . S
C743 C744 1.399 . S
C744 H730 0.929 . S
C744 C743 1.399 . S
C744 C745 1.385 . S
C745 H731 0.931 . S
C745 C744 1.385 . S
C745 C746 1.389 . S
C746 C745 1.389 . S
C746 C747 1.387 . S
C747 H732 0.930 . S
C747 C742 1.390 . S
C747 C746 1.387 . S
H748 C760 0.930 . S
H749 C762 0.930 . S
H750 C763 0.930 . S
H751 C767 0.959 . S
H752 C767 0.959 . S
H753 C767 0.961 . S
H754 C768 0.960 . S
H755 C768 0.961 . S
H756 C768 0.959 . S
H757 C771 0.929 . S
H758 C772 0.931 . S
H759 C774 0.930 . S
C760 H748 0.930 . S
C760 C761 1.399 . S
C760 C765 1.399 . S
C761 C760 1.399 . S
C761 C762 1.376 . S
C762 H749 0.930 . S
C762 C761 1.376 . S
C762 C763 1.388 . S
C763 H750 0.930 . S
C763 C762 1.388 . S
C763 C764 1.390 . S
C764 C763 1.390 . S
C764 C765 1.394 . S
C764 C770 1.465 . S
C765 C760 1.399 . S
C765 C764 1.394 . S
C765 C766 1.516 . S
C766 C765 1.516 . S
C766 C767 1.502 . S
C766 C768 1.561 . S
C766 C769 1.526 . S
C767 H751 0.959 . S
C767 H752 0.959 . S
C767 H753 0.961 . S
C767 C766 1.502 . S
C768 H754 0.960 . S
C768 H755 0.961 . S
C768 H756 0.959 . S
C768 C766 1.561 . S
C769 C766 1.526 . S
C769 C770 1.396 . S
C769 C774 1.390 . S
C770 C764 1.465 . S
C770 C769 1.396 . S
C770 C771 1.399 . S
C771 H757 0.929 . S
C771 C770 1.399 . S
C771 C772 1.385 . S
C772 H758 0.931 . S
C772 C771 1.385 . S
C772 C773 1.389 . S
C773 C772 1.389 . S
C773 C774 1.387 . S
C774 H759 0.930 . S
C774 C769 1.390 . S
C774 C773 1.387 . S
H775 C787 0.930 . S
H776 C789 0.930 . S
H777 C790 0.930 . S
H778 C794 0.959 . S
H779 C794 0.959 . S
H780 C794 0.961 . S
H781 C795 0.960 . S
H782 C795 0.961 . S
H783 C795 0.959 . S
H784 C798 0.929 1_655 S
H785 C799 0.931 1_655 S
H786 C801 0.930 . S
C787 H775 0.930 . S
C787 C788 1.399 . S
C787 C792 1.399 . S
C788 C787 1.399 . S
C788 C789 1.376 . S
C789 H776 0.930 . S
C789 C788 1.376 . S
C789 C790 1.388 . S
C790 H777 0.930 . S
C790 C789 1.388 . S
C790 C791 1.390 . S
C791 C790 1.390 . S
C791 C792 1.394 . S
C791 C797 1.465 . S
C792 C787 1.399 . S
C792 C791 1.394 . S
C792 C793 1.516 . S
C793 C792 1.516 . S
C793 C794 1.502 . S
C793 C795 1.561 . S
C793 C796 1.526 . S
C794 H778 0.959 . S
C794 H779 0.959 . S
C794 H780 0.961 . S
C794 C793 1.502 . S
C795 H781 0.960 . S
C795 H782 0.961 . S
C795 H783 0.959 . S
C795 C793 1.561 . S
C796 C793 1.526 . S
C796 C797 1.396 . S
C796 C801 1.390 . S
C797 C791 1.465 . S
C797 C796 1.396 . S
C797 C798 1.399 . S
C798 H784 0.929 1_455 S
C798 C797 1.399 . S
C798 C799 1.385 . S
C799 H785 0.931 1_455 S
C799 C798 1.385 . S
C799 C800 1.389 . S
C800 C799 1.389 . S
C800 C801 1.387 . S
C801 H786 0.930 . S
C801 C796 1.390 . S
C801 C800 1.387 . S
H802 C814 0.930 . S
H803 C816 0.930 . S
H804 C817 0.930 . S
H805 C821 0.959 . S
H806 C821 0.959 . S
H807 C821 0.961 . S
H808 C822 0.960 . S
H809 C822 0.961 . S
H810 C822 0.959 . S
H811 C825 0.929 . S
H812 C826 0.931 . S
H813 C828 0.930 . S
C814 H802 0.930 . S
C814 C815 1.399 . S
C814 C819 1.399 . S
C815 C814 1.399 . S
C815 C816 1.376 . S
C816 H803 0.930 . S
C816 C815 1.376 . S
C816 C817 1.388 . S
C817 H804 0.930 . S
C817 C816 1.388 . S
C817 C818 1.390 . S
C818 C817 1.390 . S
C818 C819 1.394 . S
C818 C824 1.465 . S
C819 C814 1.399 . S
C819 C818 1.394 . S
C819 C820 1.516 . S
C820 C819 1.516 . S
C820 C821 1.502 . S
C820 C822 1.561 . S
C820 C823 1.526 . S
C821 H805 0.959 . S
C821 H806 0.959 . S
C821 H807 0.961 . S
C821 C820 1.502 . S
C822 H808 0.960 . S
C822 H809 0.961 . S
C822 H810 0.959 . S
C822 C820 1.561 . S
C823 C820 1.526 . S
C823 C824 1.396 . S
C823 C828 1.390 . S
C824 C818 1.465 . S
C824 C823 1.396 . S
C824 C825 1.399 . S
C825 H811 0.929 . S
C825 C824 1.399 . S
C825 C826 1.385 . S
C826 H812 0.931 . S
C826 C825 1.385 . S
C826 C827 1.389 . S
C827 C826 1.389 . S
C827 C828 1.387 . S
C828 H813 0.930 . S
C828 C823 1.390 . S
C828 C827 1.387 . S
H829 C841 0.930 . S
H830 C843 0.930 . S
H831 C844 0.930 . S
H832 C848 0.959 . S
H833 C848 0.959 . S
H834 C848 0.961 . S
H835 C849 0.960 . S
H836 C849 0.961 . S
H837 C849 0.959 . S
H838 C852 0.929 . S
H839 C853 0.931 . S
H840 C855 0.930 . S
C841 H829 0.930 . S
C841 C842 1.399 . S
C841 C846 1.399 . S
C842 C841 1.399 . S
C842 C843 1.376 . S
C843 H830 0.930 . S
C843 C842 1.376 . S
C843 C844 1.388 . S
C844 H831 0.930 . S
C844 C843 1.388 . S
C844 C845 1.390 . S
C845 C844 1.390 . S
C845 C846 1.394 . S
C845 C851 1.465 . S
C846 C841 1.399 . S
C846 C845 1.394 . S
C846 C847 1.516 . S
C847 C846 1.516 . S
C847 C848 1.502 . S
C847 C849 1.561 . S
C847 C850 1.526 . S
C848 H832 0.959 . S
C848 H833 0.959 . S
C848 H834 0.961 . S
C848 C847 1.502 . S
C849 H835 0.960 . S
C849 H836 0.961 . S
C849 H837 0.959 . S
C849 C847 1.561 . S
C850 C847 1.526 . S
C850 C851 1.396 . S
C850 C855 1.390 . S
C851 C845 1.465 . S
C851 C850 1.396 . S
C851 C852 1.399 . S
C852 H838 0.929 . S
C852 C851 1.399 . S
C852 C853 1.385 . S
C853 H839 0.931 . S
C853 C852 1.385 . S
C853 C854 1.389 . S
C854 C853 1.389 . S
C854 C855 1.387 . S
C855 H840 0.930 . S
C855 C850 1.390 . S
C855 C854 1.387 . S
H856 C868 0.930 . S
H857 C870 0.930 . S
H858 C871 0.930 . S
H859 C875 0.959 . S
H860 C875 0.959 . S
H861 C875 0.961 . S
H862 C876 0.960 . S
H863 C876 0.961 . S
H864 C876 0.959 . S
H865 C879 0.929 . S
H866 C880 0.931 . S
H867 C882 0.930 . S
C868 H856 0.930 . S
C868 C869 1.399 . S
C868 C873 1.399 . S
C869 C868 1.399 . S
C869 C870 1.376 . S
C870 H857 0.930 . S
C870 C869 1.376 . S
C870 C871 1.388 . S
C871 H858 0.930 . S
C871 C870 1.388 . S
C871 C872 1.390 . S
C872 C871 1.390 . S
C872 C873 1.394 . S
C872 C878 1.465 . S
C873 C868 1.399 . S
C873 C872 1.394 . S
C873 C874 1.516 . S
C874 C873 1.516 . S
C874 C875 1.502 . S
C874 C876 1.561 . S
C874 C877 1.526 . S
C875 H859 0.959 . S
C875 H860 0.959 . S
C875 H861 0.961 . S
C875 C874 1.502 . S
C876 H862 0.960 . S
C876 H863 0.961 . S
C876 H864 0.959 . S
C876 C874 1.561 . S
C877 C874 1.526 . S
C877 C878 1.396 . S
C877 C882 1.390 . S
C878 C872 1.465 . S
C878 C877 1.396 . S
C878 C879 1.399 . S
C879 H865 0.929 . S
C879 C878 1.399 . S
C879 C880 1.385 . S
C880 H866 0.931 . S
C880 C879 1.385 . S
C880 C881 1.389 . S
C881 C880 1.389 . S
C881 C882 1.387 . S
C882 H867 0.930 . S
C882 C877 1.390 . S
C882 C881 1.387 . S
H883 C895 0.930 . S
H884 C897 0.930 . S
H885 C898 0.930 . S
H886 C902 0.959 . S
H887 C902 0.959 1_554 S
H888 C902 0.961 . S
H889 C903 0.960 . S
H890 C903 0.961 . S
H891 C903 0.959 . S
H892 C906 0.929 . S
H893 C907 0.931 . S
H894 C909 0.930 . S
C895 H883 0.930 . S
C895 C896 1.399 . S
C895 C900 1.399 . S
C896 C895 1.399 . S
C896 C897 1.376 . S
C897 H884 0.930 . S
C897 C896 1.376 . S
C897 C898 1.388 . S
C898 H885 0.930 . S
C898 C897 1.388 . S
C898 C899 1.390 . S
C899 C898 1.390 . S
C899 C900 1.394 . S
C899 C905 1.465 . S
C900 C895 1.399 . S
C900 C899 1.394 . S
C900 C901 1.516 . S
C901 C900 1.516 . S
C901 C902 1.502 . S
C901 C903 1.561 . S
C901 C904 1.526 . S
C902 H886 0.959 . S
C902 H887 0.959 1_556 S
C902 H888 0.961 . S
C902 C901 1.502 . S
C903 H889 0.960 . S
C903 H890 0.961 . S
C903 H891 0.959 . S
C903 C901 1.561 . S
C904 C901 1.526 . S
C904 C905 1.396 . S
C904 C909 1.390 . S
C905 C899 1.465 . S
C905 C904 1.396 . S
C905 C906 1.399 . S
C906 H892 0.929 . S
C906 C905 1.399 . S
C906 C907 1.385 . S
C907 H893 0.931 . S
C907 C906 1.385 . S
C907 C908 1.389 . S
C908 C907 1.389 . S
C908 C909 1.387 . S
C909 H894 0.930 . S
C909 C904 1.390 . S
C909 C908 1.387 . S
H910 C922 0.930 . S
H911 C924 0.930 . S
H912 C925 0.930 . S
H913 C929 0.959 . S
H914 C929 0.959 1_455 S
H915 C929 0.961 . S
H916 C930 0.960 1_455 S
H917 C930 0.961 1_455 S
H918 C930 0.959 . S
H919 C933 0.929 . S
H920 C934 0.931 . S
H921 C936 0.930 . S
C922 H910 0.930 . S
C922 C923 1.399 . S
C922 C927 1.399 . S
C923 C922 1.399 . S
C923 C924 1.376 . S
C924 H911 0.930 . S
C924 C923 1.376 . S
C924 C925 1.388 . S
C925 H912 0.930 . S
C925 C924 1.388 . S
C925 C926 1.390 . S
C926 C925 1.390 . S
C926 C927 1.394 . S
C926 C932 1.465 . S
C927 C922 1.399 . S
C927 C926 1.394 . S
C927 C928 1.516 . S
C928 C927 1.516 . S
C928 C929 1.502 . S
C928 C930 1.561 . S
C928 C931 1.526 . S
C929 H913 0.959 . S
C929 H914 0.959 1_655 S
C929 H915 0.961 . S
C929 C928 1.502 . S
C930 H916 0.960 1_655 S
C930 H917 0.961 1_655 S
C930 H918 0.959 . S
C930 C928 1.561 . S
C931 C928 1.526 . S
C931 C932 1.396 . S
C931 C936 1.390 . S
C932 C926 1.465 . S
C932 C931 1.396 . S
C932 C933 1.399 . S
C933 H919 0.929 . S
C933 C932 1.399 . S
C933 C934 1.385 . S
C934 H920 0.931 . S
C934 C933 1.385 . S
C934 C935 1.389 . S
C935 C934 1.389 . S
C935 C936 1.387 . S
C936 H921 0.930 . S
C936 C931 1.390 . S
C936 C935 1.387 . S
H937 C949 0.930 . S
H938 C951 0.930 . S
H939 C952 0.930 . S
H940 C956 0.959 . S
H941 C956 0.959 . S
H942 C956 0.961 . S
H943 C957 0.960 . S
H944 C957 0.961 . S
H945 C957 0.959 . S
H946 C960 0.929 . S
H947 C961 0.931 . S
H948 C963 0.930 . S
C949 H937 0.930 . S
C949 C950 1.399 . S
C949 C954 1.399 . S
C950 C949 1.399 . S
C950 C951 1.376 . S
C951 H938 0.930 . S
C951 C950 1.376 . S
C951 C952 1.388 . S
C952 H939 0.930 . S
C952 C951 1.388 . S
C952 C953 1.390 . S
C953 C952 1.390 . S
C953 C954 1.394 . S
C953 C959 1.465 . S
C954 C949 1.399 . S
C954 C953 1.394 . S
C954 C955 1.516 . S
C955 C954 1.516 . S
C955 C956 1.502 . S
C955 C957 1.561 . S
C955 C958 1.526 . S
C956 H940 0.959 . S
C956 H941 0.959 . S
C956 H942 0.961 . S
C956 C955 1.502 . S
C957 H943 0.960 . S
C957 H944 0.961 . S
C957 H945 0.959 . S
C957 C955 1.561 . S
C958 C955 1.526 . S
C958 C959 1.396 . S
C958 C963 1.390 . S
C959 C953 1.465 . S
C959 C958 1.396 . S
C959 C960 1.399 . S
C960 H946 0.929 . S
C960 C959 1.399 . S
C960 C961 1.385 . S
C961 H947 0.931 . S
C961 C960 1.385 . S
C961 C962 1.389 . S
C962 C961 1.389 . S
C962 C963 1.387 . S
C963 H948 0.930 . S
C963 C958 1.390 . S
C963 C962 1.387 . S
H964 C976 0.930 . S
H965 C978 0.930 . S
H966 C979 0.930 . S
H967 C983 0.959 . S
H968 C983 0.959 . S
H969 C983 0.961 . S
H970 C984 0.960 . S
H971 C984 0.961 . S
H972 C984 0.959 . S
H973 C987 0.929 . S
H974 C988 0.931 . S
H975 C990 0.930 . S
C976 H964 0.930 . S
C976 C977 1.399 . S
C976 C981 1.399 . S
C977 C976 1.399 . S
C977 C978 1.376 . S
C978 H965 0.930 . S
C978 C977 1.376 . S
C978 C979 1.388 . S
C979 H966 0.930 . S
C979 C978 1.388 . S
C979 C980 1.390 . S
C980 C979 1.390 . S
C980 C981 1.394 . S
C980 C986 1.465 . S
C981 C976 1.399 . S
C981 C980 1.394 . S
C981 C982 1.516 . S
C982 C981 1.516 . S
C982 C983 1.502 . S
C982 C984 1.561 . S
C982 C985 1.526 . S
C983 H967 0.959 . S
C983 H968 0.959 . S
C983 H969 0.961 . S
C983 C982 1.502 . S
C984 H970 0.960 . S
C984 H971 0.961 . S
C984 H972 0.959 . S
C984 C982 1.561 . S
C985 C982 1.526 . S
C985 C986 1.396 . S
C985 C990 1.390 . S
C986 C980 1.465 . S
C986 C985 1.396 . S
C986 C987 1.399 . S
C987 H973 0.929 . S
C987 C986 1.399 . S
C987 C988 1.385 . S
C988 H974 0.931 . S
C988 C987 1.385 . S
C988 C989 1.389 . S
C989 C988 1.389 . S
C989 C990 1.387 . S
C990 H975 0.930 . S
C990 C985 1.390 . S
C990 C989 1.387 . S
H991 C1003 0.930 . S
H992 C1005 0.930 . S
H993 C1006 0.930 . S
H994 C1010 0.959 . S
H995 C1010 0.959 . S
H996 C1010 0.961 . S
H997 C1011 0.960 . S
H998 C1011 0.961 . S
H999 C1011 0.959 . S
H1000 C1014 0.929 . S
H1001 C1015 0.931 . S
H1002 C1017 0.930 . S
C1003 H991 0.930 . S
C1003 C1004 1.399 . S
C1003 C1008 1.399 . S
C1004 C1003 1.399 . S
C1004 C1005 1.376 . S
C1005 H992 0.930 . S
C1005 C1004 1.376 . S
C1005 C1006 1.388 . S
C1006 H993 0.930 . S
C1006 C1005 1.388 . S
C1006 C1007 1.390 . S
C1007 C1006 1.390 . S
C1007 C1008 1.394 . S
C1007 C1013 1.465 . S
C1008 C1003 1.399 . S
C1008 C1007 1.394 . S
C1008 C1009 1.516 . S
C1009 C1008 1.516 . S
C1009 C1010 1.502 . S
C1009 C1011 1.561 . S
C1009 C1012 1.526 . S
C1010 H994 0.959 . S
C1010 H995 0.959 . S
C1010 H996 0.961 . S
C1010 C1009 1.502 . S
C1011 H997 0.960 . S
C1011 H998 0.961 . S
C1011 H999 0.959 . S
C1011 C1009 1.561 . S
C1012 C1009 1.526 . S
C1012 C1013 1.396 . S
C1012 C1017 1.390 . S
C1013 C1007 1.465 . S
C1013 C1012 1.396 . S
C1013 C1014 1.399 . S
C1014 H1000 0.929 . S
C1014 C1013 1.399 . S
C1014 C1015 1.385 . S
C1015 H1001 0.931 . S
C1015 C1014 1.385 . S
C1015 C1016 1.389 . S
C1016 C1015 1.389 . S
C1016 C1017 1.387 . S
C1017 H1002 0.930 . S
C1017 C1012 1.390 . S
C1017 C1016 1.387 . S
H1018 C1030 0.930 . S
H1019 C1032 0.930 . S
H1020 C1033 0.930 . S
H1021 C1037 0.959 . S
H1022 C1037 0.959 . S
H1023 C1037 0.961 . S
H1024 C1038 0.960 . S
H1025 C1038 0.961 . S
H1026 C1038 0.959 . S
H1027 C1041 0.929 . S
H1028 C1042 0.931 . S
H1029 C1044 0.930 . S
C1030 H1018 0.930 . S
C1030 C1031 1.399 . S
C1030 C1035 1.399 . S
C1031 C1030 1.399 . S
C1031 C1032 1.376 . S
C1032 H1019 0.930 . S
C1032 C1031 1.376 . S
C1032 C1033 1.388 . S
C1033 H1020 0.930 . S
C1033 C1032 1.388 . S
C1033 C1034 1.390 . S
C1034 C1033 1.390 . S
C1034 C1035 1.394 . S
C1034 C1040 1.465 . S
C1035 C1030 1.399 . S
C1035 C1034 1.394 . S
C1035 C1036 1.516 . S
C1036 C1035 1.516 . S
C1036 C1037 1.502 . S
C1036 C1038 1.561 . S
C1036 C1039 1.526 . S
C1037 H1021 0.959 . S
C1037 H1022 0.959 . S
C1037 H1023 0.961 . S
C1037 C1036 1.502 . S
C1038 H1024 0.960 . S
C1038 H1025 0.961 . S
C1038 H1026 0.959 . S
C1038 C1036 1.561 . S
C1039 C1036 1.526 . S
C1039 C1040 1.396 . S
C1039 C1044 1.390 . S
C1040 C1034 1.465 . S
C1040 C1039 1.396 . S
C1040 C1041 1.399 . S
C1041 H1027 0.929 . S
C1041 C1040 1.399 . S
C1041 C1042 1.385 . S
C1042 H1028 0.931 . S
C1042 C1041 1.385 . S
C1042 C1043 1.389 . S
C1043 C1042 1.389 . S
C1043 C1044 1.387 . S
C1044 H1029 0.930 . S
C1044 C1039 1.390 . S
C1044 C1043 1.387 . S
H1045 C1057 0.930 . S
H1046 C1059 0.930 . S
H1047 C1060 0.930 . S
H1048 C1064 0.959 . S
H1049 C1064 0.959 . S
H1050 C1064 0.961 . S
H1051 C1065 0.960 . S
H1052 C1065 0.961 . S
H1053 C1065 0.959 . S
H1054 C1068 0.929 . S
H1055 C1069 0.931 . S
H1056 C1071 0.930 . S
C1057 H1045 0.930 . S
C1057 C1058 1.399 . S
C1057 C1062 1.399 . S
C1058 C1057 1.399 . S
C1058 C1059 1.376 . S
C1059 H1046 0.930 . S
C1059 C1058 1.376 . S
C1059 C1060 1.388 . S
C1060 H1047 0.930 . S
C1060 C1059 1.388 . S
C1060 C1061 1.390 . S
C1061 C1060 1.390 . S
C1061 C1062 1.394 . S
C1061 C1067 1.465 . S
C1062 C1057 1.399 . S
C1062 C1061 1.394 . S
C1062 C1063 1.516 . S
C1063 C1062 1.516 . S
C1063 C1064 1.502 . S
C1063 C1065 1.561 . S
C1063 C1066 1.526 . S
C1064 H1048 0.959 . S
C1064 H1049 0.959 . S
C1064 H1050 0.961 . S
C1064 C1063 1.502 . S
C1065 H1051 0.960 . S
C1065 H1052 0.961 . S
C1065 H1053 0.959 . S
C1065 C1063 1.561 . S
C1066 C1063 1.526 . S
C1066 C1067 1.396 . S
C1066 C1071 1.390 . S
C1067 C1061 1.465 . S
C1067 C1066 1.396 . S
C1067 C1068 1.399 . S
C1068 H1054 0.929 . S
C1068 C1067 1.399 . S
C1068 C1069 1.385 . S
C1069 H1055 0.931 . S
C1069 C1068 1.385 . S
C1069 C1070 1.389 . S
C1070 C1069 1.389 . S
C1070 C1071 1.387 . S
C1071 H1056 0.930 . S
C1071 C1066 1.390 . S
C1071 C1070 1.387 . S
H1072 C1084 0.930 . S
H1073 C1086 0.930 . S
H1074 C1087 0.930 . S
H1075 C1091 0.959 . S
H1076 C1091 0.959 . S
H1077 C1091 0.961 . S
H1078 C1092 0.960 . S
H1079 C1092 0.961 . S
H1080 C1092 0.959 . S
H1081 C1095 0.929 . S
H1082 C1096 0.931 . S
H1083 C1098 0.930 . S
C1084 H1072 0.930 . S
C1084 C1085 1.399 . S
C1084 C1089 1.399 . S
C1085 C1084 1.399 . S
C1085 C1086 1.376 . S
C1086 H1073 0.930 . S
C1086 C1085 1.376 . S
C1086 C1087 1.388 . S
C1087 H1074 0.930 . S
C1087 C1086 1.388 . S
C1087 C1088 1.390 . S
C1088 C1087 1.390 . S
C1088 C1089 1.394 . S
C1088 C1094 1.465 . S
C1089 C1084 1.399 . S
C1089 C1088 1.394 . S
C1089 C1090 1.516 . S
C1090 C1089 1.516 . S
C1090 C1091 1.502 . S
C1090 C1092 1.561 . S
C1090 C1093 1.526 . S
C1091 H1075 0.959 . S
C1091 H1076 0.959 . S
C1091 H1077 0.961 . S
C1091 C1090 1.502 . S
C1092 H1078 0.960 . S
C1092 H1079 0.961 . S
C1092 H1080 0.959 . S
C1092 C1090 1.561 . S
C1093 C1090 1.526 . S
C1093 C1094 1.396 . S
C1093 C1098 1.390 . S
C1094 C1088 1.465 . S
C1094 C1093 1.396 . S
C1094 C1095 1.399 . S
C1095 H1081 0.929 . S
C1095 C1094 1.399 . S
C1095 C1096 1.385 . S
C1096 H1082 0.931 . S
C1096 C1095 1.385 . S
C1096 C1097 1.389 . S
C1097 C1096 1.389 . S
C1097 C1098 1.387 . S
C1098 H1083 0.930 . S
C1098 C1093 1.390 . S
C1098 C1097 1.387 . S
H1099 C1111 0.930 . S
H1100 C1113 0.930 . S
H1101 C1114 0.930 . S
H1102 C1118 0.959 . S
H1103 C1118 0.959 . S
H1104 C1118 0.961 . S
H1105 C1119 0.960 . S
H1106 C1119 0.961 . S
H1107 C1119 0.959 . S
H1108 C1122 0.929 . S
H1109 C1123 0.931 . S
H1110 C1125 0.930 . S
C1111 H1099 0.930 . S
C1111 C1112 1.399 . S
C1111 C1116 1.399 . S
C1112 C1111 1.399 . S
C1112 C1113 1.376 . S
C1113 H1100 0.930 . S
C1113 C1112 1.376 . S
C1113 C1114 1.388 . S
C1114 H1101 0.930 . S
C1114 C1113 1.388 . S
C1114 C1115 1.390 . S
C1115 C1114 1.390 . S
C1115 C1116 1.394 . S
C1115 C1121 1.465 . S
C1116 C1111 1.399 . S
C1116 C1115 1.394 . S
C1116 C1117 1.516 . S
C1117 C1116 1.516 . S
C1117 C1118 1.502 . S
C1117 C1119 1.561 . S
C1117 C1120 1.526 . S
C1118 H1102 0.959 . S
C1118 H1103 0.959 . S
C1118 H1104 0.961 . S
C1118 C1117 1.502 . S
C1119 H1105 0.960 . S
C1119 H1106 0.961 . S
C1119 H1107 0.959 . S
C1119 C1117 1.561 . S
C1120 C1117 1.526 . S
C1120 C1121 1.396 . S
C1120 C1125 1.390 . S
C1121 C1115 1.465 . S
C1121 C1120 1.396 . S
C1121 C1122 1.399 . S
C1122 H1108 0.929 . S
C1122 C1121 1.399 . S
C1122 C1123 1.385 . S
C1123 H1109 0.931 . S
C1123 C1122 1.385 . S
C1123 C1124 1.389 . S
C1124 C1123 1.389 . S
C1124 C1125 1.387 . S
C1125 H1110 0.930 . S
C1125 C1120 1.390 . S
C1125 C1124 1.387 . S
H1126 C1138 0.930 . S
H1127 C1140 0.930 . S
H1128 C1141 0.930 . S
H1129 C1145 0.959 . S
H1130 C1145 0.959 . S
H1131 C1145 0.961 . S
H1132 C1146 0.960 . S
H1133 C1146 0.961 . S
H1134 C1146 0.959 . S
H1135 C1149 0.929 . S
H1136 C1150 0.931 . S
H1137 C1152 0.930 . S
C1138 H1126 0.930 . S
C1138 C1139 1.399 . S
C1138 C1143 1.399 . S
C1139 C1138 1.399 . S
C1139 C1140 1.376 . S
C1140 H1127 0.930 . S
C1140 C1139 1.376 . S
C1140 C1141 1.388 . S
C1141 H1128 0.930 . S
C1141 C1140 1.388 . S
C1141 C1142 1.390 . S
C1142 C1141 1.390 . S
C1142 C1143 1.394 . S
C1142 C1148 1.465 . S
C1143 C1138 1.399 . S
C1143 C1142 1.394 . S
C1143 C1144 1.516 . S
C1144 C1143 1.516 . S
C1144 C1145 1.502 . S
C1144 C1146 1.561 . S
C1144 C1147 1.526 . S
C1145 H1129 0.959 . S
C1145 H1130 0.959 . S
C1145 H1131 0.961 . S
C1145 C1144 1.502 . S
C1146 H1132 0.960 . S
C1146 H1133 0.961 . S
C1146 H1134 0.959 . S
C1146 C1144 1.561 . S
C1147 C1144 1.526 . S
C1147 C1148 1.396 . S
C1147 C1152 1.390 . S
C1148 C1142 1.465 . S
C1148 C1147 1.396 . S
C1148 C1149 1.399 . S
C1149 H1135 0.929 . S
C1149 C1148 1.399 . S
C1149 C1150 1.385 . S
C1150 H1136 0.931 . S
C1150 C1149 1.385 . S
C1150 C1151 1.389 . S
C1151 C1150 1.389 . S
C1151 C1152 1.387 . S
C1152 H1137 0.930 . S
C1152 C1147 1.390 . S
C1152 C1151 1.387 . S
H1153 C1165 0.930 . S
H1154 C1167 0.930 . S
H1155 C1168 0.930 . S
H1156 C1172 0.959 . S
H1157 C1172 0.959 . S
H1158 C1172 0.961 . S
H1159 C1173 0.960 . S
H1160 C1173 0.961 . S
H1161 C1173 0.959 . S
H1162 C1176 0.929 . S
H1163 C1177 0.931 . S
H1164 C1179 0.930 . S
C1165 H1153 0.930 . S
C1165 C1166 1.399 . S
C1165 C1170 1.399 . S
C1166 C1165 1.399 . S
C1166 C1167 1.376 . S
C1167 H1154 0.930 . S
C1167 C1166 1.376 . S
C1167 C1168 1.388 . S
C1168 H1155 0.930 . S
C1168 C1167 1.388 . S
C1168 C1169 1.390 . S
C1169 C1168 1.390 . S
C1169 C1170 1.394 . S
C1169 C1175 1.465 . S
C1170 C1165 1.399 . S
C1170 C1169 1.394 . S
C1170 C1171 1.516 . S
C1171 C1170 1.516 . S
C1171 C1172 1.502 . S
C1171 C1173 1.561 . S
C1171 C1174 1.526 . S
C1172 H1156 0.959 . S
C1172 H1157 0.959 . S
C1172 H1158 0.961 . S
C1172 C1171 1.502 . S
C1173 H1159 0.960 . S
C1173 H1160 0.961 . S
C1173 H1161 0.959 . S
C1173 C1171 1.561 . S
C1174 C1171 1.526 . S
C1174 C1175 1.396 . S
C1174 C1179 1.390 . S
C1175 C1169 1.465 . S
C1175 C1174 1.396 . S
C1175 C1176 1.399 . S
C1176 H1162 0.929 . S
C1176 C1175 1.399 . S
C1176 C1177 1.385 . S
C1177 H1163 0.931 . S
C1177 C1176 1.385 . S
C1177 C1178 1.389 . S
C1178 C1177 1.389 . S
C1178 C1179 1.387 . S
C1179 H1164 0.930 . S
C1179 C1174 1.390 . S
C1179 C1178 1.387 . S
H1180 C1192 0.930 . S
H1181 C1194 0.930 . S
H1182 C1195 0.930 . S
H1183 C1199 0.959 . S
H1184 C1199 0.959 . S
H1185 C1199 0.961 . S
H1186 C1200 0.960 . S
H1187 C1200 0.961 . S
H1188 C1200 0.959 . S
H1189 C1203 0.929 . S
H1190 C1204 0.931 . S
H1191 C1206 0.930 . S
C1192 H1180 0.930 . S
C1192 C1193 1.399 . S
C1192 C1197 1.399 . S
C1193 C1192 1.399 . S
C1193 C1194 1.376 . S
C1194 H1181 0.930 . S
C1194 C1193 1.376 . S
C1194 C1195 1.388 . S
C1195 H1182 0.930 . S
C1195 C1194 1.388 . S
C1195 C1196 1.390 . S
C1196 C1195 1.390 . S
C1196 C1197 1.394 . S
C1196 C1202 1.465 . S
C1197 C1192 1.399 . S
C1197 C1196 1.394 . S
C1197 C1198 1.516 . S
C1198 C1197 1.516 . S
C1198 C1199 1.502 . S
C1198 C1200 1.561 . S
C1198 C1201 1.526 . S
C1199 H1183 0.959 . S
C1199 H1184 0.959 . S
C1199 H1185 0.961 . S
C1199 C1198 1.502 . S
C1200 H1186 0.960 . S
C1200 H1187 0.961 . S
C1200 H1188 0.959 . S
C1200 C1198 1.561 . S
C1201 C1198 1.526 . S
C1201 C1202 1.396 . S
C1201 C1206 1.390 . S
C1202 C1196 1.465 . S
C1202 C1201 1.396 . S
C1202 C1203 1.399 . S
C1203 H1189 0.929 . S
C1203 C1202 1.399 . S
C1203 C1204 1.385 . S
C1204 H1190 0.931 . S
C1204 C1203 1.385 . S
C1204 C1205 1.389 . S
C1205 C1204 1.389 . S
C1205 C1206 1.387 . S
C1206 H1191 0.930 . S
C1206 C1201 1.390 . S
C1206 C1205 1.387 . S
H1207 C1219 0.930 . S
H1208 C1221 0.930 . S
H1209 C1222 0.930 . S
H1210 C1226 0.959 . S
H1211 C1226 0.959 . S
H1212 C1226 0.961 . S
H1213 C1227 0.960 . S
H1214 C1227 0.961 1_556 S
H1215 C1227 0.959 . S
H1216 C1230 0.929 . S
H1217 C1231 0.931 . S
H1218 C1233 0.930 . S
C1219 H1207 0.930 . S
C1219 C1220 1.399 . S
C1219 C1224 1.399 . S
C1220 C1219 1.399 . S
C1220 C1221 1.376 . S
C1221 H1208 0.930 . S
C1221 C1220 1.376 . S
C1221 C1222 1.388 . S
C1222 H1209 0.930 . S
C1222 C1221 1.388 . S
C1222 C1223 1.390 . S
C1223 C1222 1.390 . S
C1223 C1224 1.394 . S
C1223 C1229 1.465 . S
C1224 C1219 1.399 . S
C1224 C1223 1.394 . S
C1224 C1225 1.516 . S
C1225 C1224 1.516 . S
C1225 C1226 1.502 . S
C1225 C1227 1.561 . S
C1225 C1228 1.526 . S
C1226 H1210 0.959 . S
C1226 H1211 0.959 . S
C1226 H1212 0.961 . S
C1226 C1225 1.502 . S
C1227 H1213 0.960 . S
C1227 H1214 0.961 1_554 S
C1227 H1215 0.959 . S
C1227 C1225 1.561 . S
C1228 C1225 1.526 . S
C1228 C1229 1.396 . S
C1228 C1233 1.390 . S
C1229 C1223 1.465 . S
C1229 C1228 1.396 . S
C1229 C1230 1.399 . S
C1230 H1216 0.929 . S
C1230 C1229 1.399 . S
C1230 C1231 1.385 . S
C1231 H1217 0.931 . S
C1231 C1230 1.385 . S
C1231 C1232 1.389 . S
C1232 C1231 1.389 . S
C1232 C1233 1.387 . S
C1233 H1218 0.930 . S
C1233 C1228 1.390 . S
C1233 C1232 1.387 . S
H1234 C1246 0.930 . S
H1235 C1248 0.930 . S
H1236 C1249 0.930 . S
H1237 C1253 0.959 . S
H1238 C1253 0.959 . S
H1239 C1253 0.961 . S
H1240 C1254 0.960 . S
H1241 C1254 0.961 . S
H1242 C1254 0.959 . S
H1243 C1257 0.929 . S
H1244 C1258 0.931 . S
H1245 C1260 0.930 . S
C1246 H1234 0.930 . S
C1246 C1247 1.399 . S
C1246 C1251 1.399 . S
C1247 C1246 1.399 . S
C1247 C1248 1.376 . S
C1248 H1235 0.930 . S
C1248 C1247 1.376 . S
C1248 C1249 1.388 . S
C1249 H1236 0.930 . S
C1249 C1248 1.388 . S
C1249 C1250 1.390 . S
C1250 C1249 1.390 . S
C1250 C1251 1.394 . S
C1250 C1256 1.465 . S
C1251 C1246 1.399 . S
C1251 C1250 1.394 . S
C1251 C1252 1.516 . S
C1252 C1251 1.516 . S
C1252 C1253 1.502 . S
C1252 C1254 1.561 . S
C1252 C1255 1.526 . S
C1253 H1237 0.959 . S
C1253 H1238 0.959 . S
C1253 H1239 0.961 . S
C1253 C1252 1.502 . S
C1254 H1240 0.960 . S
C1254 H1241 0.961 . S
C1254 H1242 0.959 . S
C1254 C1252 1.561 . S
C1255 C1252 1.526 . S
C1255 C1256 1.396 . S
C1255 C1260 1.390 . S
C1256 C1250 1.465 . S
C1256 C1255 1.396 . S
C1256 C1257 1.399 . S
C1257 H1243 0.929 . S
C1257 C1256 1.399 . S
C1257 C1258 1.385 . S
C1258 H1244 0.931 . S
C1258 C1257 1.385 . S
C1258 C1259 1.389 . S
C1259 C1258 1.389 . S
C1259 C1260 1.387 . S
C1260 H1245 0.930 . S
C1260 C1255 1.390 . S
C1260 C1259 1.387 . S
H1261 C1273 0.930 . S
H1262 C1275 0.930 . S
H1263 C1276 0.930 . S
H1264 C1280 0.959 . S
H1265 C1280 0.959 . S
H1266 C1280 0.961 . S
H1267 C1281 0.960 . S
H1268 C1281 0.961 . S
H1269 C1281 0.959 . S
H1270 C1284 0.929 . S
H1271 C1285 0.931 . S
H1272 C1287 0.930 . S
C1273 H1261 0.930 . S
C1273 C1274 1.399 . S
C1273 C1278 1.399 . S
C1274 C1273 1.399 . S
C1274 C1275 1.376 . S
C1275 H1262 0.930 . S
C1275 C1274 1.376 . S
C1275 C1276 1.388 . S
C1276 H1263 0.930 . S
C1276 C1275 1.388 . S
C1276 C1277 1.390 . S
C1277 C1276 1.390 . S
C1277 C1278 1.394 . S
C1277 C1283 1.465 . S
C1278 C1273 1.399 . S
C1278 C1277 1.394 . S
C1278 C1279 1.516 . S
C1279 C1278 1.516 . S
C1279 C1280 1.502 . S
C1279 C1281 1.561 . S
C1279 C1282 1.526 . S
C1280 H1264 0.959 . S
C1280 H1265 0.959 . S
C1280 H1266 0.961 . S
C1280 C1279 1.502 . S
C1281 H1267 0.960 . S
C1281 H1268 0.961 . S
C1281 H1269 0.959 . S
C1281 C1279 1.561 . S
C1282 C1279 1.526 . S
C1282 C1283 1.396 . S
C1282 C1287 1.390 . S
C1283 C1277 1.465 . S
C1283 C1282 1.396 . S
C1283 C1284 1.399 . S
C1284 H1270 0.929 . S
C1284 C1283 1.399 . S
C1284 C1285 1.385 . S
C1285 H1271 0.931 . S
C1285 C1284 1.385 . S
C1285 C1286 1.389 . S
C1286 C1285 1.389 . S
C1286 C1287 1.387 . S
C1287 H1272 0.930 . S
C1287 C1282 1.390 . S
C1287 C1286 1.387 . S
C653 C1 0.873 . S
C665 C484 0.943 . S
C680 C80 1.224 . S
C692 C545 1.221 . S
C719 C583 2.479 . S
C707 C140 2.534 . S
C734 C211 2.320 . S
C746 C623 2.269 . S
C773 C543 1.303 . S
C761 C31 1.160 . S
C800 C511 2.126 . S
C788 C61 2.073 . S
C827 C620 1.723 . S
C815 C151 1.654 . S
C854 C580 1.860 . S
C842 C200 1.856 . S
C869 C20 1.078 . S
C881 C625 1.107 . S
C908 C540 2.378 . S
C896 C121 2.341 . S
C923 C181 2.109 . S
C935 C482 2.156 . S
C950 C91 1.575 . S
C962 C585 1.572 . S
C989 C505 0.918 . S
C977 C260 0.931 . S
C1004 C320 1.129 . S
C1016 C524 1.236 . S
C1031 C361 2.532 . S
C1043 C562 2.489 . S
C1058 C451 2.298 . S
C1070 C602 2.303 . S
C1085 C271 1.182 . S
C1097 C522 1.288 . S
C1124 C500 2.131 . S
C1112 C301 2.075 . S
C1151 C631 1.739 . S
C1139 C380 1.694 . S
C1178 C591 1.841 . S
C1166 C440 1.844 . S
C1193 C241 1.004 . S
C1205 C604 1.112 . S
C1232 C551 2.380 . S
C1220 C391 2.380 . S
C1259 C503 2.148 . S
C1247 C421 2.141 . S
C1274 C331 1.551 . S
C1286 C564 1.598 . S
