# Generated by pormake.
# Topology pyr, (3,6)-cn, num edge types: 1
# Building blocks:
#     Node 0, Type 0, BuildingBlock: VETTIZ_charged_linker_0, # of connection points: 3
#     Node 1, Type 0, BuildingBlock: VETTIZ_charged_linker_0, # of connection points: 3
#     Node 2, Type 0, BuildingBlock: VETTIZ_charged_linker_0, # of connection points: 3
#     Node 3, Type 0, BuildingBlock: VETTIZ_charged_linker_0, # of connection points: 3
#     Node 4, Type 0, BuildingBlock: VETTIZ_charged_linker_0, # of connection points: 3
#     Node 5, Type 0, BuildingBlock: VETTIZ_charged_linker_0, # of connection points: 3
#     Node 6, Type 0, BuildingBlock: VETTIZ_charged_linker_0, # of connection points: 3
#     Node 7, Type 0, BuildingBlock: VETTIZ_charged_linker_0, # of connection points: 3
#     Node 8, Type 1, BuildingBlock: MIDCAF_clean_sbu_0, # of connection points: 6
#     Node 9, Type 1, BuildingBlock: MIDCAF_clean_sbu_0, # of connection points: 6
#     Node 10, Type 1, BuildingBlock: MIDCAF_clean_sbu_0, # of connection points: 6
#     Node 11, Type 1, BuildingBlock: MIDCAF_clean_sbu_0, # of connection points: 6
#     Edge 12, Type (0, 1), BuildingBlock: UVAHIK_clean_linker_0, # of connection points: 2
#     Edge 13, Type (0, 1), BuildingBlock: UVAHIK_clean_linker_0, # of connection points: 2
#     Edge 14, Type (0, 1), BuildingBlock: UVAHIK_clean_linker_0, # of connection points: 2
#     Edge 15, Type (0, 1), BuildingBlock: UVAHIK_clean_linker_0, # of connection points: 2
#     Edge 16, Type (0, 1), BuildingBlock: UVAHIK_clean_linker_0, # of connection points: 2
#     Edge 17, Type (0, 1), BuildingBlock: UVAHIK_clean_linker_0, # of connection points: 2
#     Edge 18, Type (0, 1), BuildingBlock: UVAHIK_clean_linker_0, # of connection points: 2
#     Edge 19, Type (0, 1), BuildingBlock: UVAHIK_clean_linker_0, # of connection points: 2
#     Edge 20, Type (0, 1), BuildingBlock: UVAHIK_clean_linker_0, # of connection points: 2
#     Edge 21, Type (0, 1), BuildingBlock: UVAHIK_clean_linker_0, # of connection points: 2
#     Edge 22, Type (0, 1), BuildingBlock: UVAHIK_clean_linker_0, # of connection points: 2
#     Edge 23, Type (0, 1), BuildingBlock: UVAHIK_clean_linker_0, # of connection points: 2
#     Edge 24, Type (0, 1), BuildingBlock: UVAHIK_clean_linker_0, # of connection points: 2
#     Edge 25, Type (0, 1), BuildingBlock: UVAHIK_clean_linker_0, # of connection points: 2
#     Edge 26, Type (0, 1), BuildingBlock: UVAHIK_clean_linker_0, # of connection points: 2
#     Edge 27, Type (0, 1), BuildingBlock: UVAHIK_clean_linker_0, # of connection points: 2
#     Edge 28, Type (0, 1), BuildingBlock: UVAHIK_clean_linker_0, # of connection points: 2
#     Edge 29, Type (0, 1), BuildingBlock: UVAHIK_clean_linker_0, # of connection points: 2
#     Edge 30, Type (0, 1), BuildingBlock: UVAHIK_clean_linker_0, # of connection points: 2
#     Edge 31, Type (0, 1), BuildingBlock: UVAHIK_clean_linker_0, # of connection points: 2
#     Edge 32, Type (0, 1), BuildingBlock: UVAHIK_clean_linker_0, # of connection points: 2
#     Edge 33, Type (0, 1), BuildingBlock: UVAHIK_clean_linker_0, # of connection points: 2
#     Edge 34, Type (0, 1), BuildingBlock: UVAHIK_clean_linker_0, # of connection points: 2
#     Edge 35, Type (0, 1), BuildingBlock: UVAHIK_clean_linker_0, # of connection points: 2
# Relax obj value: 0.019
# Max RMSD: 0.063
# Mean RMSD: 0.021
data_MOF--net-pry--node1-MIDCAF_clean_sbu_0--node2-VETTIZ_charged_linker_0--edge1-UVAHIK_clean_linker_0
_symmetry_space_group_name_H-M    P1
_symmetry_Int_Tables_number       1
_symmetry_cell_setting            triclinic
loop_
_symmetry_equiv_pos_as_xyz
'x, y, z'
_cell_length_a     54.294452
_cell_length_b     54.280302
_cell_length_c     54.291536
_cell_angle_alpha  89.876086
_cell_angle_beta   90.044736
_cell_angle_gamma 90.189506
loop_
_atom_site_label
_atom_site_type_symbol
_atom_site_fract_x
_atom_site_fract_y
_atom_site_fract_z
_atom_type_partial_charge
C0 C 0.18738 0.18404 0.29045 0.0
C1 C 0.16607 0.19511 0.30024 0.0
C2 C 0.15735 0.21701 0.28925 0.0
C3 C 0.19043 0.21608 0.25928 0.0
C4 C 0.19929 0.1949 0.27024 0.0
C5 C 0.22253 0.18589 0.25814 0.0
H6 H 0.30755 0.19865 0.16775 0.0
C7 C 0.20703 0.2226 0.23867 0.0
C8 C 0.22604 0.20512 0.23806 0.0
H9 H 0.30515 0.14345 0.22534 0.0
H10 H 0.26831 0.1619 0.24179 0.0
H11 H 0.29651 0.24357 0.2023 0.0
H12 H 0.24889 0.19959 0.1566 0.0
H13 H 0.24135 0.23075 0.15195 0.0
H14 H 0.27185 0.22022 0.14455 0.0
H15 H 0.29474 0.24819 0.16963 0.0
H16 H 0.27409 0.26363 0.19057 0.0
C17 C 0.24357 0.18666 0.27743 0.0
C18 C 0.21736 0.16001 0.24734 0.0
C19 C 0.18658 0.29533 0.18313 0.0
C20 C 0.19875 0.30613 0.16295 0.0
C21 C 0.22149 0.29642 0.15526 0.0
C22 C 0.23171 0.27589 0.16713 0.0
C23 C 0.21917 0.26503 0.18707 0.0
C24 C 0.19719 0.27501 0.19501 0.0
C25 C 0.18706 0.26179 0.21721 0.0
C26 C 0.20629 0.24184 0.2209 0.0
C27 C 0.2249 0.2437 0.20305 0.0
C28 C 0.18643 0.28015 0.23906 0.0
C29 C 0.16164 0.25085 0.21022 0.0
C30 C 0.29937 0.19065 0.18411 0.0
C31 C 0.30945 0.16946 0.19518 0.0
C32 C 0.29771 0.15952 0.21618 0.0
C33 C 0.27635 0.17037 0.22582 0.0
C34 C 0.26655 0.19148 0.21444 0.0
C35 C 0.27817 0.20133 0.19404 0.0
C36 C 0.26545 0.22399 0.18449 0.0
C37 C 0.24417 0.22608 0.20245 0.0
C38 C 0.24479 0.20692 0.21988 0.0
C39 C 0.28354 0.24607 0.18661 0.0
C40 C 0.25647 0.21861 0.15794 0.0
H41 H 0.16167 0.24405 0.26137 0.0
H42 H 0.19461 0.16712 0.29812 0.0
H43 H 0.19871 0.15926 0.23885 0.0
H44 H 0.23018 0.15495 0.23244 0.0
H45 H 0.21811 0.14565 0.26193 0.0
H46 H 0.24104 0.20222 0.29049 0.0
H47 H 0.24414 0.16939 0.28842 0.0
H48 H 0.26184 0.18995 0.26908 0.0
H49 H 0.16927 0.30271 0.18969 0.0
H50 H 0.23113 0.30445 0.13971 0.0
H51 H 0.24893 0.26918 0.16022 0.0
H52 H 0.2008 0.29469 0.23707 0.0
H53 H 0.16832 0.28952 0.24029 0.0
H54 H 0.19061 0.27124 0.25692 0.0
H55 H 0.16231 0.24239 0.19158 0.0
H56 H 0.15558 0.23597 0.2227 0.0
H57 H 0.14728 0.26538 0.20991 0.0
H58 H 0.14137 0.22635 0.29658 0.0
C59 C 0.16931 0.22745 0.26885 0.0
C60 C 0.2371 0.84414 0.68128 0.0
C61 C 0.22677 0.86558 0.69154 0.0
C62 C 0.23756 0.87552 0.71302 0.0
C63 C 0.26839 0.84326 0.71325 0.0
C64 C 0.25765 0.83327 0.69246 0.0
C65 C 0.27042 0.81017 0.68416 0.0
H66 H 0.36369 0.72893 0.69833 0.0
C67 C 0.28956 0.8276 0.72015 0.0
C68 C 0.29072 0.80805 0.7033 0.0
H69 H 0.30498 0.72736 0.64436 0.0
H70 H 0.28772 0.7642 0.66184 0.0
H71 H 0.37287 0.78803 0.69733 0.0
H72 H 0.32905 0.74073 0.74374 0.0
H73 H 0.34124 0.76387 0.76273 0.0
H74 H 0.36184 0.743 0.74717 0.0
H75 H 0.38597 0.76635 0.71862 0.0
H76 H 0.37754 0.79693 0.72814 0.0
C77 C 0.2809 0.8148 0.65803 0.0
C78 C 0.25182 0.78849 0.68583 0.0
C79 C 0.34435 0.85232 0.79195 0.0
C80 C 0.36525 0.84159 0.80283 0.0
C81 C 0.37408 0.81907 0.79351 0.0
C82 C 0.36257 0.8077 0.77334 0.0
C83 C 0.34189 0.81886 0.76243 0.0
C84 C 0.33296 0.84065 0.77198 0.0
C85 C 0.31037 0.84949 0.7586 0.0
C86 C 0.30743 0.82962 0.73918 0.0
C87 C 0.32604 0.81183 0.74138 0.0
C88 C 0.31635 0.87491 0.74702 0.0
C89 C 0.28854 0.84964 0.77701 0.0
C90 C 0.34694 0.73627 0.6904 0.0
C91 C 0.33583 0.72509 0.66977 0.0
C92 C 0.31424 0.7357 0.65994 0.0
C93 C 0.3041 0.75706 0.67024 0.0
C94 C 0.31554 0.76802 0.69073 0.0
C95 C 0.33648 0.75749 0.70058 0.0
C96 C 0.34587 0.77134 0.72268 0.0
C97 C 0.32719 0.79201 0.72437 0.0
C98 C 0.30957 0.79008 0.70551 0.0
C99 C 0.37201 0.78113 0.71663 0.0
C100 C 0.34468 0.75394 0.74533 0.0
H101 H 0.26557 0.87306 0.74011 0.0
H102 H 0.2296 0.83604 0.66467 0.0
H103 H 0.23839 0.79138 0.70102 0.0
H104 H 0.26073 0.77075 0.69027 0.0
H105 H 0.24117 0.78653 0.66846 0.0
H106 H 0.28885 0.83367 0.65661 0.0
H107 H 0.26623 0.81313 0.64385 0.0
H108 H 0.29611 0.80229 0.65323 0.0
H109 H 0.33688 0.8694 0.79899 0.0
H110 H 0.39019 0.81051 0.80156 0.0
H111 H 0.37033 0.79074 0.76692 0.0
H112 H 0.33522 0.87501 0.73904 0.0
H113 H 0.31552 0.88973 0.76107 0.0
H114 H 0.30403 0.87979 0.73161 0.0
H115 H 0.2908 0.83522 0.79143 0.0
H116 H 0.27073 0.84523 0.76816 0.0
H117 H 0.28709 0.86768 0.78651 0.0
H118 H 0.22984 0.8917 0.72168 0.0
C119 C 0.25826 0.86454 0.72385 0.0
C120 C 0.7059 0.23649 0.85644 0.0
C121 C 0.68585 0.2223 0.84798 0.0
C122 C 0.67302 0.23023 0.82678 0.0
C123 C 0.69983 0.26579 0.82308 0.0
C124 C 0.71249 0.25809 0.84378 0.0
C125 C 0.73289 0.27563 0.85064 0.0
H126 H 0.79762 0.37987 0.82613 0.0
C127 C 0.71094 0.28919 0.81455 0.0
C128 C 0.73034 0.29509 0.83063 0.0
H129 H 0.80722 0.32927 0.88687 0.0
H130 H 0.77348 0.30426 0.87194 0.0
H131 H 0.74097 0.38256 0.83067 0.0
H132 H 0.78585 0.33816 0.78307 0.0
H133 H 0.76196 0.35124 0.7654 0.0
H134 H 0.78367 0.3711 0.78076 0.0
H135 H 0.75387 0.39476 0.80279 0.0
H136 H 0.72434 0.37934 0.80317 0.0
C137 C 0.72731 0.28614 0.87657 0.0
C138 C 0.75762 0.26164 0.84873 0.0
C139 C 0.67554 0.3331 0.73968 0.0
C140 C 0.68088 0.35588 0.72853 0.0
C141 C 0.70049 0.37024 0.73771 0.0
C142 C 0.71456 0.36209 0.75776 0.0
C143 C 0.7088 0.33945 0.769 0.0
C144 C 0.68952 0.3254 0.75998 0.0
C145 C 0.68529 0.30247 0.77503 0.0
C146 C 0.70525 0.30504 0.79449 0.0
C147 C 0.71908 0.32662 0.79073 0.0
C148 C 0.65909 0.30381 0.78631 0.0
C149 C 0.68968 0.27991 0.75819 0.0
C150 C 0.79257 0.36323 0.83597 0.0
C151 C 0.80512 0.35633 0.85753 0.0
C152 C 0.79772 0.33489 0.87023 0.0
C153 C 0.77818 0.3204 0.8615 0.0
C154 C 0.76568 0.32756 0.83997 0.0
C155 C 0.77281 0.34876 0.8277 0.0
C156 C 0.75656 0.35422 0.80592 0.0
C157 C 0.73888 0.33249 0.80681 0.0
C158 C 0.7444 0.31687 0.82671 0.0
C159 C 0.74329 0.37905 0.81062 0.0
C160 C 0.77272 0.35385 0.78245 0.0
H161 H 0.66931 0.25676 0.79841 0.0
H162 H 0.7163 0.23095 0.87253 0.0
H163 H 0.75768 0.24935 0.83235 0.0
H164 H 0.77362 0.27397 0.84619 0.0
H165 H 0.76076 0.24999 0.86528 0.0
H166 H 0.70711 0.28764 0.87969 0.0
H167 H 0.73492 0.2741 0.89127 0.0
H168 H 0.73437 0.30508 0.87909 0.0
H169 H 0.66031 0.32189 0.73322 0.0
H170 H 0.70494 0.38781 0.72929 0.0
H171 H 0.72924 0.37385 0.76386 0.0
H172 H 0.65378 0.32321 0.79017 0.0
H173 H 0.6451 0.29598 0.77359 0.0
H174 H 0.65768 0.29442 0.80433 0.0
H175 H 0.70547 0.28332 0.74555 0.0
H176 H 0.69467 0.26312 0.76852 0.0
H177 H 0.67322 0.27599 0.74667 0.0
H178 H 0.6572 0.22008 0.82007 0.0
C179 C 0.67994 0.25176 0.81429 0.0
C180 C 0.84961 0.78864 0.3521 0.0
C181 C 0.83774 0.80035 0.37193 0.0
C182 C 0.81477 0.79106 0.37992 0.0
C183 C 0.81593 0.75929 0.34858 0.0
C184 C 0.83836 0.7684 0.34066 0.0
C185 C 0.84823 0.75438 0.31893 0.0
H186 H 0.83175 0.66595 0.23275 0.0
C187 C 0.80913 0.73836 0.33251 0.0
C188 C 0.82788 0.73553 0.31495 0.0
H189 H 0.89535 0.71317 0.24338 0.0
H190 H 0.87561 0.73219 0.27805 0.0
H191 H 0.8275 0.65237 0.2897 0.0
H192 H 0.78952 0.70564 0.24486 0.0
H193 H 0.7676 0.69117 0.26392 0.0
H194 H 0.7846 0.67304 0.24198 0.0
H195 H 0.80397 0.6436 0.26818 0.0
H196 H 0.79668 0.65243 0.29935 0.0
C197 C 0.87278 0.74208 0.32667 0.0
C198 C 0.85051 0.77249 0.29696 0.0
C199 C 0.73072 0.68976 0.3494 0.0
C200 C 0.71934 0.66961 0.33763 0.0
C201 C 0.73009 0.66023 0.31593 0.0
C202 C 0.75192 0.67039 0.30646 0.0
C203 C 0.76326 0.69018 0.31874 0.0
C204 C 0.75247 0.69973 0.33967 0.0
C205 C 0.76678 0.72114 0.35 0.0
C206 C 0.78836 0.72237 0.33227 0.0
C207 C 0.78624 0.70417 0.31403 0.0
C208 C 0.77513 0.71434 0.37643 0.0
C209 C 0.75038 0.74444 0.34842 0.0
C210 C 0.84165 0.68023 0.24256 0.0
C211 C 0.86521 0.68808 0.23487 0.0
C212 C 0.87701 0.70702 0.24829 0.0
C213 C 0.86559 0.71795 0.26867 0.0
C214 C 0.84213 0.70981 0.27604 0.0
C215 C 0.8307 0.69104 0.26322 0.0
C216 C 0.80646 0.68373 0.27456 0.0
C217 C 0.80501 0.70156 0.29601 0.0
C218 C 0.82584 0.71696 0.29665 0.0
C219 C 0.80849 0.6566 0.28332 0.0
C220 C 0.78584 0.68841 0.25541 0.0
H221 H 0.78641 0.76452 0.37539 0.0
H222 H 0.86741 0.79493 0.34563 0.0
H223 H 0.8344 0.78511 0.2963 0.0
H224 H 0.85065 0.76321 0.27891 0.0
H225 H 0.86738 0.78401 0.29862 0.0
H226 H 0.87264 0.73711 0.34657 0.0
H227 H 0.88867 0.75464 0.32353 0.0
H228 H 0.87611 0.72449 0.31704 0.0
H229 H 0.72321 0.69736 0.36621 0.0
H230 H 0.72157 0.64506 0.30617 0.0
H231 H 0.75917 0.66236 0.28995 0.0
H232 H 0.78162 0.69493 0.37718 0.0
H233 H 0.7597 0.71621 0.38971 0.0
H234 H 0.7908 0.72554 0.38297 0.0
H235 H 0.73712 0.74321 0.33282 0.0
H236 H 0.76112 0.76139 0.34466 0.0
H237 H 0.73952 0.74697 0.36555 0.0
H238 H 0.80494 0.79984 0.39485 0.0
C239 C 0.80388 0.77063 0.36842 0.0
C240 C 0.91742 0.83268 0.949 0.0
C241 C 0.93711 0.81756 0.94167 0.0
C242 C 0.95231 0.82546 0.92209 0.0
C243 C 0.92765 0.86214 0.91678 0.0
C244 C 0.91308 0.85482 0.93636 0.0
C245 C 0.89292 0.87305 0.94161 0.0
H246 H 0.83104 0.97635 0.90898 0.0
C247 C 0.91794 0.88568 0.90721 0.0
C248 C 0.89767 0.89229 0.92176 0.0
H249 H 0.8174 0.92813 0.97096 0.0
H250 H 0.85257 0.90345 0.96002 0.0
H251 H 0.84598 0.93323 0.86917 0.0
H252 H 0.88818 0.97986 0.91751 0.0
H253 H 0.90611 0.97576 0.89097 0.0
H254 H 0.87661 0.99091 0.88858 0.0
H255 H 0.84839 0.96604 0.86551 0.0
H256 H 0.87094 0.94566 0.8525 0.0
C257 C 0.86788 0.8598 0.93792 0.0
C258 C 0.89699 0.88355 0.96784 0.0
C259 C 0.95686 0.9248 0.83141 0.0
C260 C 0.95198 0.94662 0.81833 0.0
C261 C 0.93278 0.96207 0.82637 0.0
C262 C 0.91846 0.95576 0.84691 0.0
C263 C 0.92341 0.9338 0.85969 0.0
C264 C 0.94252 0.91889 0.85206 0.0
C265 C 0.94561 0.8967 0.86839 0.0
C266 C 0.92507 0.90065 0.88693 0.0
C267 C 0.91197 0.92227 0.88159 0.0
C268 C 0.94119 0.87342 0.8525 0.0
C269 C 0.97143 0.8981 0.88057 0.0
C270 C 0.83563 0.96037 0.92004 0.0
C271 C 0.82142 0.95404 0.94075 0.0
C272 C 0.82818 0.93341 0.955 0.0
C273 C 0.84854 0.91903 0.94855 0.0
C274 C 0.86243 0.92538 0.92766 0.0
C275 C 0.85615 0.94597 0.91401 0.0
C276 C 0.87381 0.95051 0.89312 0.0
C277 C 0.89134 0.92895 0.89619 0.0
C278 C 0.88441 0.91416 0.91629 0.0
C279 C 0.85916 0.94896 0.86869 0.0
C280 C 0.88682 0.9756 0.89751 0.0
H281 H 0.95988 0.85236 0.89485 0.0
H282 H 0.90536 0.82723 0.96395 0.0
H283 H 0.91688 0.88375 0.97281 0.0
H284 H 0.89117 0.90298 0.96948 0.0
H285 H 0.88721 0.87231 0.98192 0.0
H286 H 0.86841 0.84782 0.92132 0.0
H287 H 0.86339 0.84794 0.95401 0.0
H288 H 0.85246 0.87258 0.93472 0.0
H289 H 0.97169 0.91273 0.82584 0.0
H290 H 0.92855 0.97888 0.81646 0.0
H291 H 0.90399 0.96817 0.85195 0.0
H292 H 0.92572 0.87639 0.83938 0.0
H293 H 0.95781 0.86883 0.84154 0.0
H294 H 0.93575 0.85713 0.86342 0.0
H295 H 0.97743 0.91755 0.88313 0.0
H296 H 0.97174 0.89011 0.89932 0.0
H297 H 0.98554 0.88882 0.86908 0.0
H298 H 0.968 0.81459 0.91642 0.0
C299 C 0.94768 0.84755 0.90964 0.0
C300 C 0.70348 0.09183 0.43859 0.0
C301 C 0.71255 0.07068 0.42678 0.0
C302 C 0.70066 0.06208 0.40538 0.0
C303 C 0.67144 0.09572 0.40763 0.0
C304 C 0.68309 0.10409 0.42866 0.0
C305 C 0.67192 0.12755 0.4382 0.0
H306 H 0.58734 0.21808 0.42537 0.0
C307 C 0.65131 0.11305 0.40173 0.0
C308 C 0.65153 0.13178 0.41953 0.0
H309 H 0.64441 0.21201 0.48071 0.0
H310 H 0.65735 0.17328 0.46328 0.0
H311 H 0.57099 0.16068 0.42569 0.0
H312 H 0.62119 0.20264 0.38065 0.0
H313 H 0.60549 0.18229 0.36104 0.0
H314 H 0.58839 0.20532 0.37766 0.0
H315 H 0.56073 0.18293 0.40346 0.0
H316 H 0.56665 0.15139 0.395 0.0
C317 C 0.66155 0.12243 0.46428 0.0
C318 C 0.69183 0.14806 0.43717 0.0
C319 C 0.5983 0.09845 0.32605 0.0
C320 C 0.57899 0.11174 0.315 0.0
C321 C 0.57038 0.13323 0.3267 0.0
C322 C 0.58115 0.14157 0.34868 0.0
C323 C 0.60084 0.12837 0.3591 0.0
C324 C 0.60895 0.1071 0.34786 0.0
C325 C 0.63029 0.0956 0.36123 0.0
C326 C 0.63372 0.11351 0.38237 0.0
C327 C 0.61645 0.13265 0.38106 0.0
C328 C 0.62215 0.06978 0.37039 0.0
C329 C 0.65279 0.09547 0.34363 0.0
C330 C 0.60279 0.20859 0.43366 0.0
C331 C 0.61494 0.21833 0.45442 0.0
C332 C 0.63457 0.20492 0.46487 0.0
C333 C 0.64218 0.18248 0.45459 0.0
C334 C 0.63014 0.17332 0.43356 0.0
C335 C 0.61073 0.18632 0.42353 0.0
C336 C 0.60031 0.17413 0.40095 0.0
C337 C 0.61671 0.15166 0.39898 0.0
C338 C 0.63413 0.15123 0.41814 0.0
C339 C 0.57319 0.16698 0.4063 0.0
C340 C 0.60377 0.19193 0.37883 0.0
H341 H 0.67187 0.06694 0.37948 0.0
H342 H 0.7125 0.09911 0.45484 0.0
H343 H 0.70434 0.1454 0.42118 0.0
H344 H 0.68402 0.16662 0.43446 0.0
H345 H 0.70334 0.14804 0.4541 0.0
H346 H 0.65275 0.10391 0.46513 0.0
H347 H 0.67644 0.1229 0.47832 0.0
H348 H 0.64696 0.13545 0.46969 0.0
H349 H 0.60513 0.08163 0.31787 0.0
H350 H 0.55568 0.14396 0.31856 0.0
H351 H 0.57394 0.15818 0.35652 0.0
H352 H 0.60271 0.07011 0.37685 0.0
H353 H 0.62341 0.05594 0.3554 0.0
H354 H 0.63288 0.06325 0.38638 0.0
H355 H 0.65236 0.11154 0.33087 0.0
H356 H 0.67055 0.09726 0.35342 0.0
H357 H 0.65307 0.07852 0.3322 0.0
H358 H 0.70727 0.04577 0.39607 0.0
C359 C 0.68009 0.0744 0.39583 0.0
C360 C 0.46116 0.60554 0.19648 0.0
C361 C 0.45561 0.58381 0.20949 0.0
C362 C 0.43673 0.56823 0.20069 0.0
C363 C 0.4288 0.59634 0.16691 0.0
C364 C 0.44769 0.61131 0.17522 0.0
C365 C 0.4514 0.6335 0.15899 0.0
H366 H 0.41324 0.70371 0.06328 0.0
C367 C 0.41811 0.60785 0.14467 0.0
C368 C 0.43145 0.6295 0.13977 0.0
H369 H 0.47522 0.71596 0.11196 0.0
H370 H 0.46682 0.67775 0.13275 0.0
H371 H 0.37571 0.68235 0.10478 0.0
H372 H 0.42495 0.64725 0.05376 0.0
H373 H 0.39916 0.62785 0.05642 0.0
H374 H 0.39545 0.65863 0.04425 0.0
H375 H 0.37127 0.68264 0.072 0.0
H376 H 0.35991 0.65773 0.09074 0.0
C377 C 0.44659 0.65678 0.17472 0.0
C378 C 0.47759 0.63216 0.14768 0.0
C379 C 0.34203 0.5703 0.10471 0.0
C380 C 0.32806 0.57691 0.08394 0.0
C381 C 0.33539 0.59746 0.06977 0.0
C382 C 0.35598 0.61153 0.07646 0.0
C383 C 0.36951 0.60501 0.09753 0.0
C384 C 0.36274 0.58444 0.11101 0.0
C385 C 0.37993 0.57977 0.13225 0.0
C386 C 0.39777 0.60124 0.12957 0.0
C387 C 0.39138 0.6161 0.10937 0.0
C388 C 0.36482 0.58135 0.15637 0.0
C389 C 0.39274 0.55462 0.12808 0.0
C390 C 0.42512 0.69807 0.07829 0.0
C391 C 0.44466 0.71322 0.08622 0.0
C392 C 0.45964 0.70506 0.10585 0.0
C393 C 0.45484 0.68273 0.11786 0.0
C394 C 0.43485 0.66818 0.11021 0.0
C395 C 0.42061 0.6757 0.09049 0.0
C396 C 0.4005 0.65747 0.08464 0.0
C397 C 0.40486 0.63802 0.10435 0.0
C398 C 0.42488 0.64454 0.11938 0.0
C399 C 0.37544 0.67059 0.08802 0.0
C400 C 0.40498 0.64729 0.05837 0.0
H401 H 0.40902 0.5619 0.17395 0.0
H402 H 0.47577 0.61769 0.20263 0.0
H403 H 0.48368 0.61273 0.1455 0.0
H404 H 0.47846 0.63997 0.12887 0.0
H405 H 0.49133 0.64165 0.15953 0.0
H406 H 0.43052 0.65386 0.18712 0.0
H407 H 0.46278 0.66123 0.18644 0.0
H408 H 0.44188 0.67314 0.16363 0.0
H409 H 0.33701 0.55439 0.11573 0.0
H410 H 0.3248 0.60299 0.05377 0.0
H411 H 0.36041 0.6271 0.06509 0.0
H412 H 0.35174 0.59708 0.15559 0.0
H413 H 0.35388 0.56428 0.15936 0.0
H414 H 0.37627 0.5847 0.17281 0.0
H415 H 0.3944 0.55037 0.10811 0.0
H416 H 0.41191 0.55438 0.135 0.0
H417 H 0.38221 0.53935 0.1368 0.0
H418 H 0.43199 0.55149 0.21052 0.0
C419 C 0.42331 0.57438 0.17952 0.0
C420 C 0.08462 0.33498 0.59339 0.0
C421 C 0.09635 0.32458 0.57275 0.0
C422 C 0.11659 0.33713 0.56226 0.0
C423 C 0.11389 0.36887 0.59354 0.0
C424 C 0.09372 0.35692 0.60349 0.0
C425 C 0.08418 0.36958 0.62618 0.0
H426 H 0.09672 0.46011 0.71085 0.0
C427 C 0.11942 0.39051 0.60915 0.0
C428 C 0.10204 0.39105 0.62828 0.0
H429 H 0.04283 0.40121 0.70957 0.0
H430 H 0.05918 0.38693 0.67088 0.0
H431 H 0.09468 0.47309 0.65171 0.0
H432 H 0.14119 0.42725 0.69665 0.0
H433 H 0.16027 0.44093 0.67444 0.0
H434 H 0.14427 0.46016 0.69621 0.0
H435 H 0.11643 0.48532 0.67344 0.0
H436 H 0.12535 0.47792 0.64234 0.0
C437 C 0.05759 0.37836 0.62091 0.0
C438 C 0.08649 0.35147 0.64818 0.0
C439 C 0.19484 0.44304 0.59092 0.0
C440 C 0.2061 0.4629 0.60325 0.0
C441 C 0.19416 0.47306 0.62393 0.0
C442 C 0.1719 0.46311 0.6326 0.0
C443 C 0.16146 0.44262 0.62062 0.0
C444 C 0.17279 0.43315 0.59996 0.0
C445 C 0.15949 0.41098 0.58991 0.0
C446 C 0.13842 0.40854 0.60811 0.0
C447 C 0.13964 0.42712 0.62603 0.0
C448 C 0.15017 0.41735 0.5637 0.0
C449 C 0.17724 0.38867 0.5911 0.0
C450 C 0.08847 0.44404 0.70238 0.0
C451 C 0.06849 0.43173 0.71353 0.0
C452 C 0.05807 0.41122 0.70141 0.0
C453 C 0.06775 0.4028 0.67899 0.0
C454 C 0.08822 0.41485 0.66857 0.0
C455 C 0.09807 0.43526 0.68017 0.0
C456 C 0.12018 0.44541 0.66686 0.0
C457 C 0.12203 0.42771 0.64536 0.0
C458 C 0.10328 0.40985 0.64643 0.0
C459 C 0.11409 0.4719 0.65819 0.0
C460 C 0.14272 0.44359 0.68433 0.0
H461 H 0.14097 0.36765 0.56378 0.0
H462 H 0.06876 0.32615 0.60173 0.0
H463 H 0.10313 0.33971 0.64626 0.0
H464 H 0.08894 0.36086 0.66603 0.0
H465 H 0.07023 0.33905 0.64931 0.0
H466 H 0.05584 0.38514 0.60163 0.0
H467 H 0.04414 0.3631 0.62341 0.0
H468 H 0.05203 0.39407 0.63252 0.0
H469 H 0.20318 0.43501 0.57471 0.0
H470 H 0.20241 0.48824 0.63392 0.0
H471 H 0.16395 0.47142 0.64863 0.0
H472 H 0.14385 0.43681 0.56273 0.0
H473 H 0.16501 0.41503 0.54983 0.0
H474 H 0.13402 0.40626 0.55812 0.0
H475 H 0.1897 0.39002 0.60734 0.0
H476 H 0.16761 0.3709 0.59353 0.0
H477 H 0.18898 0.38774 0.57438 0.0
H478 H 0.12617 0.32953 0.54654 0.0
C479 C 0.12532 0.35921 0.57245 0.0
Zn480 Zn 0.98046 0.0533 0.55019 0.0
Zn481 Zn 0.03609 0.99765 0.49199 0.0
Zn482 Zn 0.00794 0.02607 0.52188 0.0
C483 C 0.04816 0.04713 0.48267 0.0
C484 C 0.98661 0.98742 0.48121 0.0
O485 O 0.01643 0.01671 0.56086 0.0
O486 O 0.99575 0.04454 0.58208 0.0
C487 C 0.00692 0.08588 0.52117 0.0
O488 O 0.03072 0.05054 0.4984 0.0
O489 O 0.0551 0.02559 0.47736 0.0
O490 O 0.00801 0.98299 0.47327 0.0
O491 O 0.98343 0.0026 0.49917 0.0
O492 O 0.98882 0.08569 0.53572 0.0
O493 O 0.01699 0.06546 0.51452 0.0
O494 O 0.96858 0.01861 0.5132 0.0
O495 O 0.94806 0.03877 0.54193 0.0
C496 C 0.94808 0.02472 0.52344 0.0
O497 O 0.03134 0.00244 0.54544 0.0
O498 O 0.05092 0.97804 0.51934 0.0
C499 C 0.01042 0.02658 0.58156 0.0
C500 C 0.04638 0.98463 0.54117 0.0
Zn501 Zn 0.49578 0.03846 0.99429 0.0
Zn502 Zn 0.55229 0.9825 0.05148 0.0
Zn503 Zn 0.5247 0.00981 0.023 0.0
C504 C 0.58442 0.01069 0.02343 0.0
C505 C 0.52484 0.95013 0.0231 0.0
O506 O 0.50252 0.0343 0.04679 0.0
O507 O 0.48318 0.05973 0.02139 0.0
C508 C 0.54489 0.04558 0.97959 0.0
O509 O 0.56388 0.01664 0.01312 0.0
O510 O 0.58452 0.99701 0.04225 0.0
O511 O 0.54326 0.95013 0.03729 0.0
O512 O 0.51481 0.97062 0.01658 0.0
O513 O 0.52318 0.05067 0.97298 0.0
O514 O 0.54881 0.03134 0.99819 0.0
O515 O 0.50025 0.98547 0.00123 0.0
O516 O 0.47472 0.01088 0.98208 0.0
C517 C 0.48165 0.98922 0.98695 0.0
O518 O 0.51815 0.02028 0.06198 0.0
O519 O 0.5379 0.99197 0.08361 0.0
C520 C 0.48806 0.05272 0.04305 0.0
C521 C 0.52423 0.01072 0.08287 0.0
Zn522 Zn 0.53422 0.53714 0.53863 0.0
Zn523 Zn 0.47777 0.47809 0.48411 0.0
Zn524 Zn 0.50546 0.50748 0.51064 0.0
C525 C 0.50775 0.4475 0.5114 0.0
C526 C 0.50503 0.50637 0.4511 0.0
O527 O 0.48121 0.52934 0.53493 0.0
O528 O 0.50676 0.54976 0.55941 0.0
C529 C 0.54868 0.48855 0.5476 0.0
O530 O 0.51682 0.46867 0.51732 0.0
O531 O 0.48865 0.44626 0.49818 0.0
O532 O 0.49119 0.48765 0.45154 0.0
O533 O 0.51162 0.51687 0.47134 0.0
O534 O 0.55549 0.51037 0.55202 0.0
O535 O 0.5303 0.48434 0.53315 0.0
O536 O 0.52667 0.53209 0.48584 0.0
O537 O 0.54641 0.55776 0.51071 0.0
C538 C 0.54106 0.55072 0.48919 0.0
O539 O 0.46625 0.51359 0.52089 0.0
O540 O 0.44533 0.49139 0.49385 0.0
C541 C 0.48507 0.54424 0.55299 0.0
C542 C 0.4456 0.50625 0.51169 0.0
Zn543 Zn 0.05184 0.55538 0.98211 0.0
Zn544 Zn 0.00117 0.49493 0.04032 0.0
Zn545 Zn 0.02635 0.52639 0.01093 0.0
C546 C 0.05098 0.48806 0.05032 0.0
C547 C 0.98909 0.48364 0.99147 0.0
O548 O 0.01506 0.56494 0.01873 0.0
O549 O 0.04151 0.58694 0.99675 0.0
C550 C 0.08618 0.52837 0.0079 0.0
O551 O 0.05275 0.50426 0.03298 0.0
O552 O 0.03011 0.48119 0.05801 0.0
O553 O 0.98578 0.47561 0.01308 0.0
O554 O 0.00328 0.50233 0.98756 0.0
O555 O 0.08512 0.54295 0.98981 0.0
O556 O 0.06626 0.52089 0.01849 0.0
O557 O 0.01807 0.51683 0.97188 0.0
O558 O 0.0371 0.54571 0.95024 0.0
C559 C 0.0235 0.52683 0.951 0.0
O560 O 0.00269 0.549 0.03536 0.0
O561 O 0.98167 0.52119 0.05668 0.0
C562 C 0.02374 0.58594 0.01169 0.0
C563 C 0.98641 0.54348 0.05178 0.0
C564 C 0.16614 0.17173 0.34045 0.0
C565 C 0.15298 0.18389 0.32172 0.0
C566 C 0.15382 0.1606 0.36018 0.0
C567 C 0.09193 0.13717 0.37836 0.0
H568 H 0.12287 0.13186 0.44255 0.0
C569 C 0.04506 0.08722 0.46008 0.0
C570 C 0.05959 0.06809 0.46963 0.0
C571 C 0.05555 0.10514 0.4447 0.0
C572 C 0.11398 0.13333 0.42474 0.0
H573 H 0.11627 0.1939 0.30943 0.0
H574 H 0.095 0.17571 0.34433 0.0
H575 H 0.14266 0.15623 0.41027 0.0
H576 H 0.09645 0.0531 0.4715 0.0
H577 H 0.11488 0.08466 0.44508 0.0
H578 H 0.06319 0.11433 0.39305 0.0
C579 C 0.11485 0.17419 0.34349 0.0
C580 C 0.12539 0.1471 0.40614 0.0
C581 C 0.12715 0.18501 0.32358 0.0
C582 C 0.0849 0.06774 0.46442 0.0
C583 C 0.09545 0.08584 0.44942 0.0
C584 C 0.08035 0.12374 0.39708 0.0
C585 C 0.12798 0.16159 0.36197 0.0
C586 C 0.1148 0.14877 0.38249 0.0
C587 C 0.08077 0.10436 0.43891 0.0
C588 C 0.09151 0.12127 0.42029 0.0
H589 H 0.18605 0.17079 0.33998 0.0
H590 H 0.16463 0.15079 0.37376 0.0
H591 H 0.08331 0.13761 0.36038 0.0
H592 H 0.02543 0.08768 0.46358 0.0
H593 H 0.04386 0.11927 0.43686 0.0
C594 C 0.38306 0.87944 0.82214 0.0
C595 C 0.37792 0.85412 0.82355 0.0
C596 C 0.39432 0.89161 0.84179 0.0
C597 C 0.42964 0.88169 0.89975 0.0
H598 H 0.40815 0.94849 0.91228 0.0
C599 C 0.4824 0.94975 0.96331 0.0
C600 C 0.46895 0.96855 0.97474 0.0
C601 C 0.47053 0.93286 0.9478 0.0
C602 C 0.41415 0.92971 0.90946 0.0
H603 H 0.38075 0.82158 0.84653 0.0
H604 H 0.39991 0.84297 0.88127 0.0
H605 H 0.38901 0.92509 0.87961 0.0
H606 H 0.43254 0.98348 0.9806 0.0
H607 H 0.41161 0.95346 0.95465 0.0
H608 H 0.45435 0.88624 0.93025 0.0
C609 C 0.39568 0.85336 0.86477 0.0
C610 C 0.40344 0.91639 0.89028 0.0
C611 C 0.38463 0.84111 0.84492 0.0
C612 C 0.44331 0.96924 0.97179 0.0
C613 C 0.4314 0.95216 0.95671 0.0
C614 C 0.44024 0.89499 0.9192 0.0
C615 C 0.40044 0.87885 0.86354 0.0
C616 C 0.41127 0.89235 0.88488 0.0
C617 C 0.44495 0.9344 0.94364 0.0
C618 C 0.43277 0.91928 0.92416 0.0
H619 H 0.3785 0.88984 0.80571 0.0
H620 H 0.39829 0.91107 0.83984 0.0
H621 H 0.43625 0.86326 0.89607 0.0
H622 H 0.50225 0.94902 0.96515 0.0
H623 H 0.48165 0.91958 0.93801 0.0
C624 C 0.66108 0.35053 0.6871 0.0
C625 C 0.66554 0.36515 0.70798 0.0
C626 C 0.64692 0.35965 0.66755 0.0
C627 C 0.63163 0.39388 0.62419 0.0
H628 H 0.56875 0.42478 0.63771 0.0
C629 C 0.58674 0.46935 0.56446 0.0
C630 C 0.56123 0.46818 0.56043 0.0
C631 C 0.59835 0.45191 0.57938 0.0
C632 C 0.58609 0.4159 0.63358 0.0
H633 H 0.65829 0.40034 0.72518 0.0
H634 H 0.63311 0.41608 0.69127 0.0
H635 H 0.59094 0.40386 0.6709 0.0
H636 H 0.52784 0.44773 0.56835 0.0
H637 H 0.54814 0.41735 0.59496 0.0
H638 H 0.62733 0.40702 0.58712 0.0
C639 C 0.64073 0.39771 0.68992 0.0
C640 C 0.59885 0.40413 0.65259 0.0
C641 C 0.65525 0.3888 0.7092 0.0
C642 C 0.54759 0.44883 0.57097 0.0
C643 C 0.55915 0.43158 0.58626 0.0
C644 C 0.61906 0.40605 0.60525 0.0
C645 C 0.63655 0.38329 0.66886 0.0
C646 C 0.62192 0.39338 0.64816 0.0
C647 C 0.58457 0.43327 0.59097 0.0
C648 C 0.59635 0.4175 0.60988 0.0
H649 H 0.66889 0.33224 0.68575 0.0
H650 H 0.64393 0.3482 0.6515 0.0
H651 H 0.64944 0.38582 0.62036 0.0
H652 H 0.59761 0.48417 0.55658 0.0
H653 H 0.61791 0.45379 0.5829 0.0
C654 C 0.89353 0.68987 0.19791 0.0
C655 C 0.87758 0.67627 0.21333 0.0
C656 C 0.90532 0.67861 0.17798 0.0
C657 C 0.89928 0.62875 0.13411 0.0
H658 H 0.9706 0.62703 0.13123 0.0
C659 C 0.94985 0.55744 0.07556 0.0
C660 C 0.97318 0.56275 0.06571 0.0
C661 C 0.93794 0.57431 0.09074 0.0
C662 C 0.95069 0.62776 0.13132 0.0
H663 H 0.8621 0.63981 0.21973 0.0
H664 H 0.88169 0.62073 0.18432 0.0
H665 H 0.95025 0.65115 0.16317 0.0
H666 H 0.00252 0.58978 0.06452 0.0
H667 H 0.9811 0.6201 0.08981 0.0
H668 H 0.89939 0.60582 0.10222 0.0
C669 C 0.88502 0.6401 0.18785 0.0
C670 C 0.93907 0.64148 0.14975 0.0
C671 C 0.87366 0.65116 0.20806 0.0
C672 C 0.98419 0.58555 0.07108 0.0
C673 C 0.97209 0.60269 0.08605 0.0
C674 C 0.91083 0.61545 0.11543 0.0
C675 C 0.90101 0.65368 0.1727 0.0
C676 C 0.91329 0.64155 0.15166 0.0
C677 C 0.94891 0.59714 0.09639 0.0
C678 C 0.93672 0.61413 0.11419 0.0
H679 H 0.89674 0.70931 0.20098 0.0
H680 H 0.9175 0.68946 0.16644 0.0
H681 H 0.87935 0.62883 0.13504 0.0
H682 H 0.94095 0.53992 0.07196 0.0
H683 H 0.92046 0.56896 0.09873 0.0
C684 C 0.35053 0.17217 0.1739 0.0
C685 C 0.33177 0.15766 0.18448 0.0
C686 C 0.37041 0.1612 0.16191 0.0
C687 C 0.40595 0.10424 0.15465 0.0
H688 H 0.4161 0.12778 0.08797 0.0
C689 C 0.46451 0.0516 0.08258 0.0
C690 C 0.47591 0.06524 0.06377 0.0
C691 C 0.4498 0.06341 0.10011 0.0
C692 C 0.41405 0.12127 0.10672 0.0
H693 H 0.3199 0.12004 0.19143 0.0
H694 H 0.35502 0.10094 0.17094 0.0
H695 H 0.3855 0.14735 0.11381 0.0
H696 H 0.48227 0.10184 0.04924 0.0
H697 H 0.45772 0.12265 0.08037 0.0
H698 H 0.43475 0.07829 0.14766 0.0
C699 C 0.35416 0.12085 0.17197 0.0
C700 C 0.39632 0.13246 0.12148 0.0
C701 C 0.33407 0.13183 0.18374 0.0
C702 C 0.47347 0.09093 0.06349 0.0
C703 C 0.4592 0.10278 0.08122 0.0
C704 C 0.42404 0.09323 0.13996 0.0
C705 C 0.37223 0.13545 0.16047 0.0
C706 C 0.39195 0.12399 0.14552 0.0
C707 C 0.4464 0.08913 0.09925 0.0
C708 C 0.42823 0.10151 0.1157 0.0
H709 H 0.34977 0.19209 0.17464 0.0
H710 H 0.38427 0.17288 0.15349 0.0
H711 H 0.403 0.09745 0.17319 0.0
H712 H 0.46596 0.0317 0.08299 0.0
H713 H 0.44017 0.05219 0.11352 0.0
C714 C 0.18663 0.86332 0.66833 0.0
C715 C 0.20505 0.87759 0.67977 0.0
C716 C 0.167 0.87458 0.65608 0.0
C717 C 0.13112 0.93146 0.65042 0.0
H718 H 0.12086 0.91016 0.5831 0.0
C719 C 0.07049 0.98529 0.58048 0.0
C720 C 0.05915 0.97193 0.56148 0.0
C721 C 0.08582 0.97332 0.59746 0.0
C722 C 0.12297 0.91604 0.60203 0.0
H723 H 0.21675 0.91509 0.68758 0.0
H724 H 0.18205 0.93461 0.66674 0.0
H725 H 0.15189 0.89007 0.60819 0.0
H726 H 0.05344 0.93562 0.54612 0.0
H727 H 0.079 0.91452 0.57629 0.0
H728 H 0.10192 0.95724 0.64439 0.0
C729 C 0.18295 0.91468 0.66733 0.0
C730 C 0.14093 0.90457 0.61635 0.0
C731 C 0.2028 0.90344 0.67931 0.0
C732 C 0.0622 0.94632 0.56051 0.0
C733 C 0.07707 0.93431 0.57769 0.0
C734 C 0.1128 0.94274 0.63617 0.0
C735 C 0.16509 0.90036 0.65526 0.0
C736 C 0.1453 0.91221 0.64063 0.0
C737 C 0.08985 0.94773 0.59585 0.0
C738 C 0.10854 0.93524 0.61171 0.0
H739 H 0.18734 0.8434 0.66877 0.0
H740 H 0.15331 0.8631 0.64716 0.0
H741 H 0.13407 0.9376 0.66917 0.0
H742 H 0.06856 0.00512 0.58141 0.0
H743 H 0.0954 0.98435 0.61103 0.0
C744 C 0.84544 0.37828 0.85196 0.0
C745 C 0.82551 0.3717 0.86714 0.0
C746 C 0.86497 0.39229 0.86136 0.0
C747 C 0.90953 0.4057 0.89486 0.0
H748 H 0.89611 0.46558 0.93131 0.0
C749 C 0.97153 0.44656 0.97092 0.0
C750 C 0.97535 0.47214 0.97107 0.0
C751 C 0.95597 0.43581 0.95348 0.0
C752 C 0.90018 0.44909 0.92089 0.0
H753 H 0.80995 0.37502 0.90369 0.0
H754 H 0.84382 0.40002 0.91997 0.0
H755 H 0.86245 0.44412 0.91028 0.0
H756 H 0.96637 0.50657 0.953 0.0
H757 H 0.93857 0.48775 0.92268 0.0
H758 H 0.94707 0.41002 0.90658 0.0
C759 C 0.84444 0.39415 0.90092 0.0
C760 C 0.88092 0.43675 0.90905 0.0
C761 C 0.82519 0.37975 0.89169 0.0
C762 C 0.96391 0.48675 0.95305 0.0
C763 C 0.94796 0.47604 0.93585 0.0
C764 C 0.92873 0.41781 0.90711 0.0
C765 C 0.86458 0.4004 0.88591 0.0
C766 C 0.88536 0.41474 0.89626 0.0
C767 C 0.94352 0.45052 0.93621 0.0
C768 C 0.92414 0.43942 0.92053 0.0
H769 H 0.84609 0.37219 0.83298 0.0
H770 H 0.88032 0.39691 0.84945 0.0
H771 H 0.91337 0.3887 0.8852 0.0
H772 H 0.98012 0.43495 0.9847 0.0
H773 H 0.95267 0.41613 0.95431 0.0
C774 C 0.69353 0.63232 0.34804 0.0
C775 C 0.69679 0.65807 0.34835 0.0
C776 C 0.67326 0.6214 0.3597 0.0
C777 C 0.63173 0.6322 0.41106 0.0
H778 H 0.5928 0.57869 0.38395 0.0
C779 C 0.5547 0.58931 0.46858 0.0
C780 C 0.55254 0.56358 0.46819 0.0
C781 C 0.56871 0.60158 0.45081 0.0
C782 C 0.60362 0.59347 0.39188 0.0
H783 H 0.68037 0.69252 0.36007 0.0
H784 H 0.64543 0.67339 0.38091 0.0
H785 H 0.62454 0.5985 0.35867 0.0
H786 H 0.5626 0.53041 0.44867 0.0
H787 H 0.58787 0.55167 0.41796 0.0
H788 H 0.61199 0.62672 0.44453 0.0
C789 C 0.65871 0.66169 0.37178 0.0
C790 C 0.62173 0.60485 0.37735 0.0
C791 C 0.67882 0.67263 0.35994 0.0
C792 C 0.56382 0.55033 0.44915 0.0
C793 C 0.57825 0.56257 0.43155 0.0
C794 C 0.61394 0.62068 0.42564 0.0
C795 C 0.65592 0.63595 0.37212 0.0
C796 C 0.63597 0.62432 0.38684 0.0
C797 C 0.58149 0.58832 0.43262 0.0
C798 C 0.5996 0.60114 0.41632 0.0
H799 H 0.70711 0.62048 0.33959 0.0
H800 H 0.67171 0.6015 0.35989 0.0
H801 H 0.64273 0.64683 0.41905 0.0
H802 H 0.54599 0.59993 0.48301 0.0
H803 H 0.57008 0.62145 0.45182 0.0
C804 C 0.20125 0.34868 0.1449 0.0
C805 C 0.18755 0.32718 0.14968 0.0
C806 C 0.19048 0.36856 0.1325 0.0
C807 C 0.14146 0.38422 0.08917 0.0
H808 H 0.14082 0.44868 0.11988 0.0
C809 C 0.07444 0.47125 0.08589 0.0
C810 C 0.07303 0.47604 0.06053 0.0
C811 C 0.09324 0.4565 0.09537 0.0
C812 C 0.14114 0.43085 0.11097 0.0
H813 H 0.15213 0.30935 0.1449 0.0
H814 H 0.13344 0.3439 0.1228 0.0
H815 H 0.16422 0.41506 0.13892 0.0
H816 H 0.09026 0.46973 0.02517 0.0
H817 H 0.12305 0.44342 0.04174 0.0
H818 H 0.11799 0.39977 0.06152 0.0
C819 C 0.15242 0.34543 0.12879 0.0
C820 C 0.15454 0.41168 0.1218 0.0
C821 C 0.16302 0.32578 0.14158 0.0
C822 C 0.0912 0.46654 0.04485 0.0
C823 C 0.10981 0.45141 0.05428 0.0
C824 C 0.12844 0.40347 0.07812 0.0
C825 C 0.166 0.36704 0.12422 0.0
C826 C 0.15428 0.38804 0.11132 0.0
C827 C 0.11065 0.44582 0.07957 0.0
C828 C 0.12766 0.4268 0.08923 0.0
H829 H 0.22018 0.35022 0.15106 0.0
H830 H 0.20131 0.38503 0.12918 0.0
H831 H 0.14111 0.36618 0.08066 0.0
H832 H 0.06052 0.47827 0.0983 0.0
H833 H 0.09329 0.45229 0.11489 0.0
C834 C 0.66842 0.17934 0.84851 0.0
C835 C 0.67762 0.19981 0.86148 0.0
C836 C 0.65821 0.1593 0.86107 0.0
C837 C 0.65348 0.12724 0.92054 0.0
H838 H 0.58709 0.11226 0.89887 0.0
C839 C 0.58422 0.06959 0.97854 0.0
C840 C 0.56549 0.05687 0.96604 0.0
C841 C 0.6013 0.08385 0.9654 0.0
C842 C 0.6058 0.11562 0.90491 0.0
H843 H 0.68429 0.21459 0.89803 0.0
H844 H 0.66687 0.17924 0.91993 0.0
H845 H 0.61125 0.14261 0.87669 0.0
H846 H 0.55084 0.04737 0.93024 0.0
H847 H 0.58131 0.07094 0.90719 0.0
H848 H 0.6481 0.10001 0.9487 0.0
C849 C 0.66758 0.17886 0.9 0.0
C850 C 0.6196 0.13322 0.8922 0.0
C851 C 0.67758 0.19909 0.88742 0.0
C852 C 0.56502 0.05727 0.94025 0.0
C853 C 0.58236 0.071 0.92711 0.0
C854 C 0.63977 0.10924 0.9331 0.0
C855 C 0.65723 0.15909 0.88691 0.0
C856 C 0.64348 0.13935 0.89996 0.0
C857 C 0.60009 0.08536 0.9395 0.0
C858 C 0.61564 0.10331 0.92553 0.0
H859 H 0.66872 0.17894 0.82857 0.0
H860 H 0.65064 0.14412 0.85055 0.0
H861 H 0.67192 0.13161 0.92683 0.0
H862 H 0.58479 0.06962 0.99849 0.0
H863 H 0.61455 0.09468 0.97566 0.0
C864 C 0.86238 0.83971 0.37026 0.0
C865 C 0.84918 0.82218 0.38412 0.0
C866 C 0.8736 0.85988 0.3817 0.0
C867 C 0.89595 0.88111 0.44271 0.0
H868 H 0.90223 0.94368 0.40862 0.0
C869 C 0.94715 0.96394 0.48584 0.0
C870 C 0.96565 0.97371 0.47059 0.0
C871 C 0.92922 0.94808 0.47616 0.0
C872 C 0.90055 0.92632 0.41837 0.0
H873 H 0.83736 0.81245 0.42108 0.0
H874 H 0.85607 0.84806 0.44086 0.0
H875 H 0.87779 0.91065 0.39026 0.0
H876 H 0.9796 0.97527 0.43327 0.0
H877 H 0.94817 0.94785 0.41626 0.0
H878 H 0.91881 0.89687 0.47076 0.0
C879 C 0.85819 0.84596 0.42115 0.0
C880 C 0.88669 0.90731 0.40781 0.0
C881 C 0.84714 0.82565 0.40972 0.0
C882 C 0.96543 0.96808 0.44537 0.0
C883 C 0.94737 0.95249 0.43564 0.0
C884 C 0.90958 0.90021 0.45338 0.0
C885 C 0.87174 0.86326 0.40733 0.0
C886 C 0.88463 0.88426 0.41958 0.0
C887 C 0.92943 0.94187 0.45102 0.0
C888 C 0.91243 0.92284 0.4411 0.0
H889 H 0.86404 0.83793 0.35047 0.0
H890 H 0.88415 0.87256 0.37044 0.0
H891 H 0.89512 0.86356 0.4522 0.0
H892 H 0.94717 0.9677 0.50543 0.0
H893 H 0.91554 0.94024 0.48841 0.0
C894 C 0.34685 0.69947 0.63269 0.0
C895 C 0.34693 0.70272 0.65842 0.0
C896 C 0.35844 0.67913 0.62201 0.0
C897 C 0.40928 0.63726 0.63318 0.0
H898 H 0.38098 0.59749 0.581 0.0
C899 C 0.46539 0.55895 0.59152 0.0
C900 C 0.46443 0.55614 0.56588 0.0
C901 C 0.44801 0.57339 0.60366 0.0
C902 C 0.38925 0.60856 0.59539 0.0
H903 H 0.35834 0.68626 0.69307 0.0
H904 H 0.37918 0.65129 0.67435 0.0
H905 H 0.35634 0.62986 0.60025 0.0
H906 H 0.44429 0.56545 0.53277 0.0
H907 H 0.4143 0.5915 0.55377 0.0
H908 H 0.44245 0.61715 0.62782 0.0
C909 C 0.3702 0.66461 0.6625 0.0
C910 C 0.37509 0.62702 0.60645 0.0
C911 C 0.35839 0.68475 0.67319 0.0
C912 C 0.44522 0.5672 0.55263 0.0
C913 C 0.42802 0.58207 0.56472 0.0
C914 C 0.42351 0.61914 0.62194 0.0
C915 C 0.3706 0.66174 0.6368 0.0
C916 C 0.385 0.64154 0.62545 0.0
C917 C 0.42965 0.58596 0.59034 0.0
C918 C 0.41375 0.60448 0.60288 0.0
H919 H 0.33853 0.71305 0.62067 0.0
H920 H 0.3587 0.67751 0.60213 0.0
H921 H 0.41755 0.64846 0.64747 0.0
H922 H 0.47998 0.55043 0.60213 0.0
H923 H 0.44944 0.57524 0.62346 0.0
C924 C 0.97046 0.93578 0.77742 0.0
C925 C 0.96645 0.95319 0.79611 0.0
C926 C 0.98206 0.94269 0.75544 0.0
C927 C 0.9923 0.99841 0.71798 0.0
H928 H 0.03315 0.95563 0.67816 0.0
C929 C 0.02393 0.03215 0.62477 0.0
C930 C 0.01849 0.01613 0.60527 0.0
C931 C 0.02492 0.02337 0.64889 0.0
C932 C 0.02179 0.96776 0.68912 0.0
H933 H 0.97291 0.99095 0.80722 0.0
H934 H 0.99363 0.00292 0.76921 0.0
H935 H 0.02053 0.94242 0.7195 0.0
H936 H 0.01183 0.97813 0.5952 0.0
H937 H 0.01302 0.96269 0.63762 0.0
H938 H 0.99289 0.02345 0.68772 0.0
C939 C 0.98717 0.98412 0.77111 0.0
C940 C 0.0145 0.96019 0.71275 0.0
C941 C 0.97535 0.97729 0.79292 0.0
C942 C 0.01621 0.99079 0.60999 0.0
C943 C 0.01689 0.98199 0.63427 0.0
C944 C -0.00039 0.00595 0.69457 0.0
C945 C 0.99007 0.96711 0.75181 0.0
C946 C -0.00052 0.9754 0.72738 0.0
C947 C 0.01995 0.99846 0.65406 0.0
C948 C 0.01431 0.99072 0.67975 0.0
H949 H 0.96367 0.91709 0.77938 0.0
H950 H 0.98374 0.92916 0.74092 0.0
H951 H 0.98021 0.01036 0.72835 0.0
H952 H 0.02594 0.05176 0.62151 0.0
H953 H 0.02801 0.03641 0.66366 0.0
C954 C 0.54297 0.10484 0.28635 0.0
C955 C 0.56843 0.10343 0.29111 0.0
C956 C 0.53323 0.09599 0.26414 0.0
C957 C 0.52185 0.08709 0.20858 0.0
H958 H 0.54642 0.02324 0.18845 0.0
C959 C 0.5192 0.04822 0.10902 0.0
C960 C 0.51757 0.02254 0.10634 0.0
C961 C 0.5189 0.05883 0.13252 0.0
C962 C 0.53901 0.0409 0.19392 0.0
H963 H 0.60368 0.09286 0.27559 0.0
H964 H 0.58666 0.07703 0.23733 0.0
H965 H 0.55955 0.04059 0.22749 0.0
H966 H 0.51213 0.98801 0.12564 0.0
H967 H 0.51112 0.00646 0.16653 0.0
H968 H 0.50166 0.08747 0.17451 0.0
C969 C 0.5742 0.08464 0.25089 0.0
C970 C 0.5468 0.05097 0.21618 0.0
C971 C 0.58393 0.09362 0.27289 0.0
C972 C 0.51359 0.00786 0.12726 0.0
C973 C 0.51314 0.01842 0.15065 0.0
C974 C 0.51415 0.07705 0.18606 0.0
C975 C 0.54874 0.08541 0.24641 0.0
C976 C 0.53867 0.07431 0.22358 0.0
C977 C 0.51705 0.04385 0.15363 0.0
C978 C 0.52286 0.05391 0.1784 0.0
H979 H 0.53049 0.11216 0.30003 0.0
H980 H 0.51351 0.09672 0.26116 0.0
H981 H 0.51534 0.10516 0.21387 0.0
H982 H 0.52258 0.0599 0.09317 0.0
H983 H 0.52202 0.07847 0.13419 0.0
C984 C 0.47714 0.55342 0.23666 0.0
C985 C 0.46885 0.57755 0.23254 0.0
C986 C 0.48747 0.54684 0.25928 0.0
C987 C 0.5119 0.57131 0.31866 0.0
H988 H 0.48711 0.50902 0.34355 0.0
C989 C 0.50982 0.54178 0.42189 0.0
C990 C 0.51201 0.5165 0.42691 0.0
C991 C 0.51069 0.55033 0.39752 0.0
C992 C 0.49466 0.52625 0.33678 0.0
H993 H 0.46571 0.61396 0.24848 0.0
H994 H 0.48328 0.60236 0.28828 0.0
H995 H 0.47685 0.52174 0.30209 0.0
H996 H 0.51907 0.48067 0.41106 0.0
H997 H 0.52128 0.49555 0.36876 0.0
H998 H 0.52906 0.57595 0.35405 0.0
C999 C 0.48221 0.58861 0.2739 0.0
C1000 C 0.48876 0.53356 0.31291 0.0
C1001 C 0.47206 0.59525 0.25114 0.0
C1002 C 0.51712 0.50023 0.40757 0.0
C1003 C 0.51823 0.50875 0.38337 0.0
C1004 C 0.51779 0.56396 0.34274 0.0
C1005 C 0.48949 0.56416 0.27843 0.0
C1006 C 0.4972 0.55619 0.30352 0.0
C1007 C 0.51378 0.53366 0.37794 0.0
C1008 C 0.50918 0.54133 0.35204 0.0
H1009 H 0.4753 0.53953 0.22248 0.0
H1010 H 0.49343 0.528 0.26192 0.0
H1011 H 0.51883 0.58879 0.31193 0.0
H1012 H 0.50567 0.55463 0.43654 0.0
H1013 H 0.50719 0.56964 0.39395 0.0
C1014 C 0.07589 0.44828 0.75603 0.0
C1015 C 0.05925 0.43982 0.73805 0.0
C1016 C 0.06746 0.45667 0.77877 0.0
C1017 C 0.01682 0.45393 0.82306 0.0
H1018 H 0.04421 0.5162 0.84498 0.0
C1019 C 0.01205 0.53062 0.90689 0.0
C1020 C 0.01622 0.51546 0.92743 0.0
C1021 C 0.01119 0.52063 0.88326 0.0
C1022 C 0.03608 0.49895 0.83905 0.0
H1023 H 0.02058 0.43304 0.7303 0.0
H1024 H 0.00592 0.44735 0.77044 0.0
H1025 H 0.05555 0.50009 0.80487 0.0
H1026 H 0.02108 0.47779 0.93965 0.0
H1027 H 0.01968 0.46019 0.89816 0.0
H1028 H 0.99772 0.4527 0.85772 0.0
C1029 C 0.02552 0.44748 0.7667 0.0
C1030 C 0.04282 0.4896 0.81616 0.0
C1031 C 0.03395 0.43927 0.74375 0.0
C1032 C 0.01757 0.48984 0.92412 0.0
C1033 C 0.01681 0.47979 0.90036 0.0
C1034 C 0.01023 0.46322 0.84623 0.0
C1035 C 0.04219 0.45661 0.78426 0.0
C1036 C 0.03353 0.46688 0.80802 0.0
C1037 C 0.0148 0.49527 0.87963 0.0
C1038 C 0.01992 0.4858 0.85449 0.0
H1039 H 0.09554 0.44833 0.75264 0.0
H1040 H 0.08078 0.46319 0.79214 0.0
H1041 H 0.00946 0.43631 0.81722 0.0
H1042 H 0.01079 0.55043 0.90897 0.0
H1043 H 0.00907 0.53296 0.8677 0.0
C1044 C 0.78088 0.97331 0.92998 0.0
C1045 C 0.79932 0.96846 0.94748 0.0
C1046 C 0.75872 0.98432 0.93712 0.0
C1047 C 0.72074 0.99114 0.99298 0.0
H1048 H 0.68055 0.03353 0.95183 0.0
C1049 C 0.62822 0.02265 0.02847 0.0
C1050 C 0.60834 0.01779 0.01269 0.0
C1051 C 0.65221 0.02331 0.01938 0.0
C1052 C 0.69161 0.02171 0.96348 0.0
H1053 H 0.80996 0.97293 0.98564 0.0
H1054 H 0.77176 0.99282 0.99801 0.0
H1055 H 0.72197 0.02191 0.93817 0.0
H1056 H 0.59759 0.01156 0.9748 0.0
H1057 H 0.63978 0.0124 0.95878 0.0
H1058 H 0.69055 0.99046 0.01804 0.0
C1059 C 0.7739 0.98738 0.97895 0.0
C1060 C 0.71529 0.015 0.95566 0.0
C1061 C 0.79583 0.97609 0.97189 0.0
C1062 C 0.61264 0.01557 0.98729 0.0
C1063 C 0.63679 0.01602 0.97816 0.0
C1064 C 0.69731 0.99793 0.00079 0.0
C1065 C 0.75472 0.99093 0.96185 0.0
C1066 C 0.73009 -0.00049 0.97031 0.0
C1067 C 0.65688 0.01869 0.99436 0.0
C1068 C 0.6824 0.01322 0.98617 0.0
H1069 H 0.78311 0.96751 0.91104 0.0
H1070 H 0.74433 0.98658 0.92348 0.0
H1071 H 0.7312 0.97863 0.00446 0.0
H1072 H 0.62533 0.02461 0.04812 0.0
H1073 H 0.66725 0.02602 0.03222 0.0
C1074 C 0.75435 0.0523 0.42039 0.0
C1075 C 0.73488 0.05823 0.43631 0.0
C1076 C 0.77631 0.04258 0.42971 0.0
C1077 C 0.81178 0.04117 0.48767 0.0
H1078 H 0.85385 0.99592 0.45207 0.0
C1079 C 0.90392 0.01388 0.52855 0.0
C1080 C 0.92414 0.01746 0.51285 0.0
C1081 C 0.88011 0.0125 0.51901 0.0
C1082 C 0.84225 0.00855 0.46219 0.0
H1083 H 0.72244 0.0573 0.47418 0.0
H1084 H 0.76043 0.03978 0.49045 0.0
H1085 H 0.81285 0.00567 0.43594 0.0
H1086 H 0.9356 0.0209 0.4748 0.0
H1087 H 0.89379 0.01862 0.458 0.0
H1088 H 0.84108 0.04445 0.51364 0.0
C1089 C 0.75914 0.04329 0.47085 0.0
C1090 C 0.81882 0.01421 0.45295 0.0
C1091 C 0.73734 0.05326 0.46157 0.0
C1092 C 0.92031 0.01787 0.48726 0.0
C1093 C 0.89638 0.01659 0.47768 0.0
C1094 C 0.835 0.03542 0.49692 0.0
C1095 C 0.77915 0.03841 0.45514 0.0
C1096 C 0.80338 0.03078 0.4655 0.0
C1097 C 0.87597 0.015 0.49358 0.0
C1098 C 0.8506 0.0192 0.48425 0.0
H1099 H 0.753 0.05611 0.40084 0.0
H1100 H 0.79138 0.03935 0.41709 0.0
H1101 H 0.80076 0.05448 0.49755 0.0
H1102 H 0.90643 0.01335 0.54834 0.0
H1103 H 0.86481 0.01073 0.53169 0.0
C1104 C 0.30111 0.55624 0.05278 0.0
C1105 C 0.30543 0.56311 0.07731 0.0
C1106 C 0.27865 0.54571 0.04594 0.0
C1107 C 0.21987 0.51886 0.0698 0.0
H1108 H 0.19386 0.54712 0.00959 0.0
C1109 C 0.11615 0.52213 0.0424 0.0
C1110 C 0.11068 0.52132 0.01714 0.0
C1111 C 0.14067 0.52091 0.05041 0.0
C1112 C 0.20094 0.53861 0.0262 0.0
H1113 H 0.29013 0.56343 0.11414 0.0
H1114 H 0.25054 0.5456 0.10213 0.0
H1115 H 0.23545 0.55696 0.02218 0.0
H1116 H 0.1259 0.51639 0.98065 0.0
H1117 H 0.16847 0.51364 0.99456 0.0
H1118 H 0.18462 0.50122 0.07404 0.0
C1119 C 0.26465 0.5479 0.08822 0.0
C1120 C 0.2249 0.54426 0.03344 0.0
C1121 C 0.28729 0.5582 0.09511 0.0
C1122 C 0.12974 0.5173 0.00022 0.0
C1123 C 0.15409 0.51585 0.00819 0.0
C1124 C 0.1957 0.51325 0.06254 0.0
C1125 C 0.25982 0.54214 0.06342 0.0
C1126 C 0.2347 0.53457 0.05536 0.0
C1127 C 0.15996 0.51888 0.03322 0.0
C1128 C 0.18598 0.52314 0.04066 0.0
H1129 H 0.31498 0.55944 0.03878 0.0
H1130 H 0.27581 0.54093 0.02679 0.0
H1131 H 0.22691 0.51096 0.08672 0.0
H1132 H 0.10172 0.52539 0.05575 0.0
H1133 H 0.14459 0.52331 0.06982 0.0
C1134 C 0.24858 0.45545 0.58684 0.0
C1135 C 0.23068 0.47213 0.59517 0.0
C1136 C 0.27146 0.46381 0.57866 0.0
C1137 C 0.31617 0.51427 0.58185 0.0
H1138 H 0.33895 0.48633 0.52032 0.0
C1139 C 0.40164 0.51739 0.50673 0.0
C1140 C 0.4218 0.51353 0.52242 0.0
C1141 C 0.37783 0.5186 0.51621 0.0
C1142 C 0.33279 0.49464 0.53734 0.0
H1143 H 0.2232 0.5108 0.60193 0.0
H1144 H 0.2636 0.52536 0.58791 0.0
H1145 H 0.29839 0.4755 0.53574 0.0
H1146 H 0.43322 0.50949 0.56042 0.0
H1147 H 0.39134 0.51128 0.57714 0.0
H1148 H 0.35104 0.5331 0.58352 0.0
C1149 C 0.25968 0.50578 0.58774 0.0
C1150 C 0.30963 0.48817 0.54632 0.0
C1151 C 0.23658 0.49741 0.59577 0.0
C1152 C 0.41795 0.51272 0.54798 0.0
C1153 C 0.39398 0.51374 0.55752 0.0
C1154 C 0.3396 0.52063 0.57292 0.0
C1155 C 0.2772 0.48906 0.57879 0.0
C1156 C 0.30118 0.49761 0.5688 0.0
C1157 C 0.3736 0.51553 0.54156 0.0
C1158 C 0.3482 0.51072 0.55061 0.0
H1159 H 0.24501 0.43581 0.58677 0.0
H1160 H 0.28478 0.45044 0.5723 0.0
H1161 H 0.3101 0.52175 0.59929 0.0
H1162 H 0.40419 0.51824 0.48695 0.0
H1163 H 0.36256 0.52057 0.5035 0.0
C1164 C 0.94967 0.77322 0.94008 0.0
C1165 C 0.94195 0.79356 0.95404 0.0
C1166 C 0.95625 0.75122 0.95157 0.0
C1167 C 0.95059 0.71292 0.00647 0.0
H1168 H 0.01447 0.68886 0.98579 0.0
C1169 C 0.02677 0.6301 0.02265 0.0
C1170 C 0.01193 0.60934 0.01846 0.0
C1171 C 0.01665 0.65365 0.022 0.0
C1172 C 0.99676 0.69544 0.99212 0.0
H1173 H 0.93398 0.80621 0.99108 0.0
H1174 H 0.94517 0.7673 0.01117 0.0
H1175 H -0.00081 0.72751 0.96936 0.0
H1176 H 0.97462 0.59656 0.01246 0.0
H1177 H 0.9568 0.63797 0.01083 0.0
H1178 H 0.94805 0.68022 0.0288 0.0
C1179 C 0.94619 0.76867 0.99129 0.0
C1180 C 0.9879 0.71746 0.98245 0.0
C1181 C 0.93977 0.79089 0.97977 0.0
C1182 C 0.98638 0.61233 0.01587 0.0
C1183 C 0.97622 0.63603 0.01496 0.0
C1184 C 0.9594 0.69056 0.01601 0.0
C1185 C 0.95505 0.74887 0.97729 0.0
C1186 C 0.96462 0.72627 0.98921 0.0
C1187 C 0.99154 0.65693 0.01666 0.0
C1188 C 0.98255 0.68154 0.00878 0.0
H1189 H 0.95088 0.77435 0.9202 0.0
H1190 H 0.96262 0.73607 0.94032 0.0
H1191 H 0.93255 0.71937 0.01193 0.0
H1192 H 0.04653 0.6282 0.02484 0.0
H1193 H 0.02881 0.66939 0.02394 0.0
C1194 C 0.44742 0.7409 0.04886 0.0
C1195 C 0.44944 0.73758 0.07452 0.0
C1196 C 0.4535 0.76358 0.03802 0.0
C1197 C 0.49373 0.816 0.0488 0.0
H1198 H 0.45317 0.85295 0.00301 0.0
C1199 C 0.48866 0.92194 0.01824 0.0
C1200 C 0.5141 0.92618 0.01617 0.0
C1201 C 0.47945 0.89779 0.01844 0.0
C1202 C 0.46471 0.84271 0.01565 0.0
H1203 H 0.45781 0.75604 0.10897 0.0
H1204 H 0.46894 0.79515 0.09004 0.0
H1205 H 0.43882 0.81274 0.01851 0.0
H1206 H 0.54951 0.90909 0.00998 0.0
H1207 H 0.53347 0.86711 0.00968 0.0
H1208 H 0.51931 0.84576 0.04673 0.0
C1209 C 0.46298 0.78015 0.0783 0.0
C1210 C 0.45657 0.81974 0.02441 0.0
C1211 C 0.45674 0.75768 0.08911 0.0
C1212 C 0.52984 0.90623 0.01184 0.0
C1213 C 0.52066 0.88222 0.01179 0.0
C1214 C 0.50193 0.83865 0.03993 0.0
C1215 C 0.46186 0.78321 0.05265 0.0
C1216 C 0.47085 0.80647 0.04147 0.0
C1217 C 0.49561 0.87766 0.01653 0.0
C1218 C 0.48744 0.85246 0.0235 0.0
H1219 H 0.44195 0.72577 0.03707 0.0
H1220 H 0.45256 0.76549 0.01818 0.0
H1221 H 0.5052 0.80604 0.06175 0.0
H1222 H 0.4762 0.93707 0.02178 0.0
H1223 H 0.46006 0.89487 0.02213 0.0
C1224 C 0.08816 0.29552 0.53736 0.0
C1225 C 0.08806 0.30034 0.56285 0.0
C1226 C 0.08026 0.27267 0.5283 0.0
C1227 C 0.0401 0.22097 0.54461 0.0
H1228 H 0.07727 0.18288 0.4971 0.0
C1229 C 0.04286 0.11421 0.5149 0.0
C1230 C 0.01734 0.11 0.51413 0.0
C1231 C 0.05211 0.13836 0.51483 0.0
C1232 C 0.06669 0.19339 0.51029 0.0
H1233 H 0.08041 0.28438 0.59876 0.0
H1234 H 0.0661 0.24499 0.58293 0.0
H1235 H 0.09251 0.22349 0.51017 0.0
H1236 H 0.98166 0.12729 0.51024 0.0
H1237 H 0.99773 0.16924 0.50962 0.0
H1238 H 0.0146 0.19102 0.54535 0.0
C1239 C 0.07207 0.25898 0.56996 0.0
C1240 C 0.07531 0.21664 0.51765 0.0
C1241 C 0.08015 0.28164 0.57901 0.0
C1242 C 0.00142 0.13008 0.51105 0.0
C1243 C 0.01061 0.15409 0.51084 0.0
C1244 C 0.0314 0.198 0.53713 0.0
C1245 C 0.07187 0.25429 0.54452 0.0
C1246 C 0.06226 0.23044 0.5352 0.0
C1247 C 0.03591 0.15855 0.51404 0.0
C1248 C 0.04466 0.18381 0.52006 0.0
H1249 H 0.09391 0.30954 0.52435 0.0
H1250 H 0.08013 0.26959 0.5086 0.0
H1251 H 0.02953 0.23129 0.55798 0.0
H1252 H 0.05549 0.09902 0.5175 0.0
H1253 H 0.07171 0.14121 0.51732 0.0
C1254 C 0.59974 0.26159 0.4489 0.0
C1255 C 0.6072 0.24249 0.46475 0.0
C1256 C 0.59077 0.28368 0.45835 0.0
C1257 C 0.589 0.32452 0.51169 0.0
H1258 H 0.52653 0.34472 0.48358 0.0
C1259 C 0.50694 0.40256 0.52016 0.0
C1260 C 0.52065 0.42435 0.51736 0.0
C1261 C 0.51857 0.37971 0.51969 0.0
C1262 C 0.54382 0.33923 0.49188 0.0
H1263 H 0.61197 0.2322 0.50312 0.0
H1264 H 0.59665 0.27123 0.51961 0.0
H1265 H 0.54544 0.30656 0.47006 0.0
H1266 H 0.55742 0.43947 0.51354 0.0
H1267 H 0.57789 0.39935 0.51277 0.0
H1268 H 0.58745 0.35775 0.53314 0.0
C1269 C 0.59772 0.26884 0.49984 0.0
C1270 C 0.55477 0.3175 0.48391 0.0
C1271 C 0.60651 0.24654 0.49036 0.0
C1272 C 0.54645 0.42296 0.51606 0.0
C1273 C 0.55815 0.39999 0.51556 0.0
C1274 C 0.57812 0.34659 0.51949 0.0
C1275 C 0.58927 0.28738 0.48388 0.0
C1276 C 0.57755 0.31002 0.49352 0.0
C1277 C 0.54415 0.37814 0.51618 0.0
C1278 C 0.55541 0.35415 0.50959 0.0
H1279 H 0.60067 0.25945 0.42909 0.0
H1280 H 0.58478 0.29786 0.44563 0.0
H1281 H 0.60661 0.31914 0.51933 0.0
H1282 H 0.48703 0.40314 0.52133 0.0
H1283 H 0.50737 0.36318 0.52068 0.0
loop_
_geom_bond_atom_site_label_1
_geom_bond_atom_site_label_2
_geom_bond_distance
_geom_bond_site_symmetry_2
_ccdc_geom_bond_type
C0 C1 1.391 . S
C0 C4 1.391 . S
C0 H42 0.948 . S
C1 C0 1.391 . S
C1 C2 1.391 . S
C2 C1 1.391 . S
C2 H58 0.947 . S
C2 C59 1.392 . S
C3 C4 1.391 . S
C3 C7 1.397 . S
C3 C59 1.419 . S
C4 C0 1.391 . S
C4 C3 1.391 . S
C4 C5 1.399 . S
C5 C4 1.399 . S
C5 C8 1.396 . S
C5 C17 1.453 . S
C5 C18 1.684 . S
H6 C30 0.948 . S
C7 C3 1.397 . S
C7 C8 1.394 . S
C7 C26 1.723 . S
C8 C5 1.396 . S
C8 C7 1.394 . S
C8 C38 1.723 . S
H9 C32 0.947 . S
H10 C33 0.948 . S
H11 C39 0.982 . S
H12 C40 0.979 . S
H13 C40 0.980 . S
H14 C40 0.983 . S
H15 C39 0.979 . S
H16 C39 0.977 . S
C17 C5 1.453 . S
C17 H46 0.982 . S
C17 H47 0.979 . S
C17 H48 0.977 . S
C18 C5 1.684 . S
C18 H43 0.979 . S
C18 H44 0.980 . S
C18 H45 0.983 . S
C19 C20 1.391 . S
C19 C24 1.391 . S
C19 H49 0.948 . S
C20 C19 1.391 . S
C20 C21 1.391 . S
C21 C20 1.391 . S
C21 C22 1.392 . S
C21 H50 0.947 . S
C22 C21 1.392 . S
C22 C23 1.419 . S
C22 H51 0.948 . S
C23 C22 1.419 . S
C23 C24 1.391 . S
C23 C27 1.397 . S
C24 C19 1.391 . S
C24 C23 1.391 . S
C24 C25 1.399 . S
C25 C24 1.399 . S
C25 C26 1.396 . S
C25 C28 1.453 . S
C25 C29 1.684 . S
C26 C7 1.723 . S
C26 C25 1.396 . S
C26 C27 1.394 . S
C27 C23 1.397 . S
C27 C26 1.394 . S
C27 C37 1.723 . S
C28 C25 1.453 . S
C28 H52 0.982 . S
C28 H53 0.979 . S
C28 H54 0.977 . S
C29 C25 1.684 . S
C29 H55 0.979 . S
C29 H56 0.980 . S
C29 H57 0.983 . S
C30 H6 0.948 . S
C30 C31 1.391 . S
C30 C35 1.391 . S
C31 C30 1.391 . S
C31 C32 1.391 . S
C32 H9 0.947 . S
C32 C31 1.391 . S
C32 C33 1.392 . S
C33 H10 0.948 . S
C33 C32 1.392 . S
C33 C34 1.419 . S
C34 C33 1.419 . S
C34 C35 1.391 . S
C34 C38 1.397 . S
C35 C30 1.391 . S
C35 C34 1.391 . S
C35 C36 1.399 . S
C36 C35 1.399 . S
C36 C37 1.396 . S
C36 C39 1.453 . S
C36 C40 1.684 . S
C37 C27 1.723 . S
C37 C36 1.396 . S
C37 C38 1.394 . S
C38 C8 1.723 . S
C38 C34 1.397 . S
C38 C37 1.394 . S
C39 H11 0.982 . S
C39 H15 0.979 . S
C39 H16 0.977 . S
C39 C36 1.453 . S
C40 H12 0.979 . S
C40 H13 0.980 . S
C40 H14 0.983 . S
C40 C36 1.684 . S
H41 C59 0.948 . S
H42 C0 0.948 . S
H43 C18 0.979 . S
H44 C18 0.980 . S
H45 C18 0.983 . S
H46 C17 0.982 . S
H47 C17 0.979 . S
H48 C17 0.977 . S
H49 C19 0.948 . S
H50 C21 0.947 . S
H51 C22 0.948 . S
H52 C28 0.982 . S
H53 C28 0.979 . S
H54 C28 0.977 . S
H55 C29 0.979 . S
H56 C29 0.980 . S
H57 C29 0.983 . S
H58 C2 0.947 . S
C59 C2 1.392 . S
C59 C3 1.419 . S
C59 H41 0.948 . S
C60 C61 1.391 . S
C60 C64 1.391 . S
C60 H102 0.948 . S
C61 C60 1.391 . S
C61 C62 1.391 . S
C62 C61 1.391 . S
C62 H118 0.947 . S
C62 C119 1.392 . S
C63 C64 1.391 . S
C63 C67 1.397 . S
C63 C119 1.419 . S
C64 C60 1.391 . S
C64 C63 1.391 . S
C64 C65 1.399 . S
C65 C64 1.399 . S
C65 C68 1.396 . S
C65 C77 1.453 . S
C65 C78 1.684 . S
H66 C90 0.948 . S
C67 C63 1.397 . S
C67 C68 1.394 . S
C67 C86 1.723 . S
C68 C65 1.396 . S
C68 C67 1.394 . S
C68 C98 1.723 . S
H69 C92 0.947 . S
H70 C93 0.948 . S
H71 C99 0.982 . S
H72 C100 0.979 . S
H73 C100 0.980 . S
H74 C100 0.983 . S
H75 C99 0.979 . S
H76 C99 0.977 . S
C77 C65 1.453 . S
C77 H106 0.982 . S
C77 H107 0.979 . S
C77 H108 0.977 . S
C78 C65 1.684 . S
C78 H103 0.979 . S
C78 H104 0.980 . S
C78 H105 0.983 . S
C79 C80 1.391 . S
C79 C84 1.391 . S
C79 H109 0.948 . S
C80 C79 1.391 . S
C80 C81 1.391 . S
C81 C80 1.391 . S
C81 C82 1.392 . S
C81 H110 0.947 . S
C82 C81 1.392 . S
C82 C83 1.419 . S
C82 H111 0.948 . S
C83 C82 1.419 . S
C83 C84 1.391 . S
C83 C87 1.397 . S
C84 C79 1.391 . S
C84 C83 1.391 . S
C84 C85 1.399 . S
C85 C84 1.399 . S
C85 C86 1.396 . S
C85 C88 1.453 . S
C85 C89 1.684 . S
C86 C67 1.723 . S
C86 C85 1.396 . S
C86 C87 1.394 . S
C87 C83 1.397 . S
C87 C86 1.394 . S
C87 C97 1.723 . S
C88 C85 1.453 . S
C88 H112 0.982 . S
C88 H113 0.979 . S
C88 H114 0.977 . S
C89 C85 1.684 . S
C89 H115 0.979 . S
C89 H116 0.980 . S
C89 H117 0.983 . S
C90 H66 0.948 . S
C90 C91 1.391 . S
C90 C95 1.391 . S
C91 C90 1.391 . S
C91 C92 1.391 . S
C92 H69 0.947 . S
C92 C91 1.391 . S
C92 C93 1.392 . S
C93 H70 0.948 . S
C93 C92 1.392 . S
C93 C94 1.419 . S
C94 C93 1.419 . S
C94 C95 1.391 . S
C94 C98 1.397 . S
C95 C90 1.391 . S
C95 C94 1.391 . S
C95 C96 1.399 . S
C96 C95 1.399 . S
C96 C97 1.396 . S
C96 C99 1.453 . S
C96 C100 1.684 . S
C97 C87 1.723 . S
C97 C96 1.396 . S
C97 C98 1.394 . S
C98 C68 1.723 . S
C98 C94 1.397 . S
C98 C97 1.394 . S
C99 H71 0.982 . S
C99 H75 0.979 . S
C99 H76 0.977 . S
C99 C96 1.453 . S
C100 H72 0.979 . S
C100 H73 0.980 . S
C100 H74 0.983 . S
C100 C96 1.684 . S
H101 C119 0.948 . S
H102 C60 0.948 . S
H103 C78 0.979 . S
H104 C78 0.980 . S
H105 C78 0.983 . S
H106 C77 0.982 . S
H107 C77 0.979 . S
H108 C77 0.977 . S
H109 C79 0.948 . S
H110 C81 0.947 . S
H111 C82 0.948 . S
H112 C88 0.982 . S
H113 C88 0.979 . S
H114 C88 0.977 . S
H115 C89 0.979 . S
H116 C89 0.980 . S
H117 C89 0.983 . S
H118 C62 0.947 . S
C119 C62 1.392 . S
C119 C63 1.419 . S
C119 H101 0.948 . S
C120 C121 1.391 . S
C120 C124 1.391 . S
C120 H162 0.948 . S
C121 C120 1.391 . S
C121 C122 1.391 . S
C122 C121 1.391 . S
C122 H178 0.947 . S
C122 C179 1.392 . S
C123 C124 1.391 . S
C123 C127 1.397 . S
C123 C179 1.419 . S
C124 C120 1.391 . S
C124 C123 1.391 . S
C124 C125 1.399 . S
C125 C124 1.399 . S
C125 C128 1.396 . S
C125 C137 1.453 . S
C125 C138 1.684 . S
H126 C150 0.948 . S
C127 C123 1.397 . S
C127 C128 1.394 . S
C127 C146 1.723 . S
C128 C125 1.396 . S
C128 C127 1.394 . S
C128 C158 1.723 . S
H129 C152 0.947 . S
H130 C153 0.948 . S
H131 C159 0.982 . S
H132 C160 0.979 . S
H133 C160 0.980 . S
H134 C160 0.983 . S
H135 C159 0.979 . S
H136 C159 0.977 . S
C137 C125 1.453 . S
C137 H166 0.982 . S
C137 H167 0.979 . S
C137 H168 0.977 . S
C138 C125 1.684 . S
C138 H163 0.979 . S
C138 H164 0.980 . S
C138 H165 0.983 . S
C139 C140 1.391 . S
C139 C144 1.391 . S
C139 H169 0.948 . S
C140 C139 1.391 . S
C140 C141 1.391 . S
C141 C140 1.391 . S
C141 C142 1.392 . S
C141 H170 0.947 . S
C142 C141 1.392 . S
C142 C143 1.419 . S
C142 H171 0.948 . S
C143 C142 1.419 . S
C143 C144 1.391 . S
C143 C147 1.397 . S
C144 C139 1.391 . S
C144 C143 1.391 . S
C144 C145 1.399 . S
C145 C144 1.399 . S
C145 C146 1.396 . S
C145 C148 1.453 . S
C145 C149 1.684 . S
C146 C127 1.723 . S
C146 C145 1.396 . S
C146 C147 1.394 . S
C147 C143 1.397 . S
C147 C146 1.394 . S
C147 C157 1.723 . S
C148 C145 1.453 . S
C148 H172 0.982 . S
C148 H173 0.979 . S
C148 H174 0.977 . S
C149 C145 1.684 . S
C149 H175 0.979 . S
C149 H176 0.980 . S
C149 H177 0.983 . S
C150 H126 0.948 . S
C150 C151 1.391 . S
C150 C155 1.391 . S
C151 C150 1.391 . S
C151 C152 1.391 . S
C152 H129 0.947 . S
C152 C151 1.391 . S
C152 C153 1.392 . S
C153 H130 0.948 . S
C153 C152 1.392 . S
C153 C154 1.419 . S
C154 C153 1.419 . S
C154 C155 1.391 . S
C154 C158 1.397 . S
C155 C150 1.391 . S
C155 C154 1.391 . S
C155 C156 1.399 . S
C156 C155 1.399 . S
C156 C157 1.396 . S
C156 C159 1.453 . S
C156 C160 1.684 . S
C157 C147 1.723 . S
C157 C156 1.396 . S
C157 C158 1.394 . S
C158 C128 1.723 . S
C158 C154 1.397 . S
C158 C157 1.394 . S
C159 H131 0.982 . S
C159 H135 0.979 . S
C159 H136 0.977 . S
C159 C156 1.453 . S
C160 H132 0.979 . S
C160 H133 0.980 . S
C160 H134 0.983 . S
C160 C156 1.684 . S
H161 C179 0.948 . S
H162 C120 0.948 . S
H163 C138 0.979 . S
H164 C138 0.980 . S
H165 C138 0.983 . S
H166 C137 0.982 . S
H167 C137 0.979 . S
H168 C137 0.977 . S
H169 C139 0.948 . S
H170 C141 0.947 . S
H171 C142 0.948 . S
H172 C148 0.982 . S
H173 C148 0.979 . S
H174 C148 0.977 . S
H175 C149 0.979 . S
H176 C149 0.980 . S
H177 C149 0.983 . S
H178 C122 0.947 . S
C179 C122 1.392 . S
C179 C123 1.419 . S
C179 H161 0.948 . S
C180 C181 1.391 . S
C180 C184 1.391 . S
C180 H222 0.948 . S
C181 C180 1.391 . S
C181 C182 1.391 . S
C182 C181 1.391 . S
C182 H238 0.947 . S
C182 C239 1.392 . S
C183 C184 1.391 . S
C183 C187 1.397 . S
C183 C239 1.419 . S
C184 C180 1.391 . S
C184 C183 1.391 . S
C184 C185 1.399 . S
C185 C184 1.399 . S
C185 C188 1.396 . S
C185 C197 1.453 . S
C185 C198 1.684 . S
H186 C210 0.948 . S
C187 C183 1.397 . S
C187 C188 1.394 . S
C187 C206 1.723 . S
C188 C185 1.396 . S
C188 C187 1.394 . S
C188 C218 1.723 . S
H189 C212 0.947 . S
H190 C213 0.948 . S
H191 C219 0.982 . S
H192 C220 0.979 . S
H193 C220 0.980 . S
H194 C220 0.983 . S
H195 C219 0.979 . S
H196 C219 0.977 . S
C197 C185 1.453 . S
C197 H226 0.982 . S
C197 H227 0.979 . S
C197 H228 0.977 . S
C198 C185 1.684 . S
C198 H223 0.979 . S
C198 H224 0.980 . S
C198 H225 0.983 . S
C199 C200 1.391 . S
C199 C204 1.391 . S
C199 H229 0.948 . S
C200 C199 1.391 . S
C200 C201 1.391 . S
C201 C200 1.391 . S
C201 C202 1.392 . S
C201 H230 0.947 . S
C202 C201 1.392 . S
C202 C203 1.419 . S
C202 H231 0.948 . S
C203 C202 1.419 . S
C203 C204 1.391 . S
C203 C207 1.397 . S
C204 C199 1.391 . S
C204 C203 1.391 . S
C204 C205 1.399 . S
C205 C204 1.399 . S
C205 C206 1.396 . S
C205 C208 1.453 . S
C205 C209 1.684 . S
C206 C187 1.723 . S
C206 C205 1.396 . S
C206 C207 1.394 . S
C207 C203 1.397 . S
C207 C206 1.394 . S
C207 C217 1.723 . S
C208 C205 1.453 . S
C208 H232 0.982 . S
C208 H233 0.979 . S
C208 H234 0.977 . S
C209 C205 1.684 . S
C209 H235 0.979 . S
C209 H236 0.980 . S
C209 H237 0.983 . S
C210 H186 0.948 . S
C210 C211 1.391 . S
C210 C215 1.391 . S
C211 C210 1.391 . S
C211 C212 1.391 . S
C212 H189 0.947 . S
C212 C211 1.391 . S
C212 C213 1.392 . S
C213 H190 0.948 . S
C213 C212 1.392 . S
C213 C214 1.419 . S
C214 C213 1.419 . S
C214 C215 1.391 . S
C214 C218 1.397 . S
C215 C210 1.391 . S
C215 C214 1.391 . S
C215 C216 1.399 . S
C216 C215 1.399 . S
C216 C217 1.396 . S
C216 C219 1.453 . S
C216 C220 1.684 . S
C217 C207 1.723 . S
C217 C216 1.396 . S
C217 C218 1.394 . S
C218 C188 1.723 . S
C218 C214 1.397 . S
C218 C217 1.394 . S
C219 H191 0.982 . S
C219 H195 0.979 . S
C219 H196 0.977 . S
C219 C216 1.453 . S
C220 H192 0.979 . S
C220 H193 0.980 . S
C220 H194 0.983 . S
C220 C216 1.684 . S
H221 C239 0.948 . S
H222 C180 0.948 . S
H223 C198 0.979 . S
H224 C198 0.980 . S
H225 C198 0.983 . S
H226 C197 0.982 . S
H227 C197 0.979 . S
H228 C197 0.977 . S
H229 C199 0.948 . S
H230 C201 0.947 . S
H231 C202 0.948 . S
H232 C208 0.982 . S
H233 C208 0.979 . S
H234 C208 0.977 . S
H235 C209 0.979 . S
H236 C209 0.980 . S
H237 C209 0.983 . S
H238 C182 0.947 . S
C239 C182 1.392 . S
C239 C183 1.419 . S
C239 H221 0.948 . S
C240 C241 1.391 . S
C240 C244 1.391 . S
C240 H282 0.948 . S
C241 C240 1.391 . S
C241 C242 1.391 . S
C242 C241 1.391 . S
C242 H298 0.947 1_655 S
C242 C299 1.392 . S
C243 C244 1.391 . S
C243 C247 1.397 . S
C243 C299 1.419 . S
C244 C240 1.391 . S
C244 C243 1.391 . S
C244 C245 1.399 . S
C245 C244 1.399 . S
C245 C248 1.396 . S
C245 C257 1.453 . S
C245 C258 1.684 1_556 S
H246 C270 0.948 . S
C247 C243 1.397 . S
C247 C248 1.394 . S
C247 C266 1.723 . S
C248 C245 1.396 . S
C248 C247 1.394 . S
C248 C278 1.723 . S
H249 C272 0.947 1_554 S
H250 C273 0.948 . S
H251 C279 0.982 . S
H252 C280 0.979 . S
H253 C280 0.980 . S
H254 C280 0.983 . S
H255 C279 0.979 . S
H256 C279 0.977 . S
C257 C245 1.453 . S
C257 H286 0.982 . S
C257 H287 0.979 . S
C257 H288 0.977 . S
C258 C245 1.684 1_554 S
C258 H283 0.979 . S
C258 H284 0.980 . S
C258 H285 0.983 . S
C259 C260 1.391 . S
C259 C264 1.391 . S
C259 H289 0.948 . S
C260 C259 1.391 . S
C260 C261 1.391 . S
C261 C260 1.391 . S
C261 C262 1.392 . S
C261 H290 0.947 1_565 S
C262 C261 1.392 . S
C262 C263 1.419 . S
C262 H291 0.948 . S
C263 C262 1.419 . S
C263 C264 1.391 . S
C263 C267 1.397 . S
C264 C259 1.391 . S
C264 C263 1.391 . S
C264 C265 1.399 . S
C265 C264 1.399 . S
C265 C266 1.396 . S
C265 C268 1.453 . S
C265 C269 1.684 1_655 S
C266 C247 1.723 . S
C266 C265 1.396 . S
C266 C267 1.394 . S
C267 C263 1.397 . S
C267 C266 1.394 . S
C267 C277 1.723 . S
C268 C265 1.453 . S
C268 H292 0.982 . S
C268 H293 0.979 . S
C268 H294 0.977 . S
C269 C265 1.684 1_455 S
C269 H295 0.979 . S
C269 H296 0.980 . S
C269 H297 0.983 . S
C270 H246 0.948 . S
C270 C271 1.391 . S
C270 C275 1.391 . S
C271 C270 1.391 . S
C271 C272 1.391 . S
C272 H249 0.947 1_556 S
C272 C271 1.391 . S
C272 C273 1.392 . S
C273 H250 0.948 . S
C273 C272 1.392 . S
C273 C274 1.419 . S
C274 C273 1.419 . S
C274 C275 1.391 . S
C274 C278 1.397 . S
C275 C270 1.391 . S
C275 C274 1.391 . S
C275 C276 1.399 . S
C276 C275 1.399 . S
C276 C277 1.396 . S
C276 C279 1.453 . S
C276 C280 1.684 1_565 S
C277 C267 1.723 . S
C277 C276 1.396 . S
C277 C278 1.394 . S
C278 C248 1.723 . S
C278 C274 1.397 . S
C278 C277 1.394 . S
C279 H251 0.982 . S
C279 H255 0.979 . S
C279 H256 0.977 . S
C279 C276 1.453 . S
C280 H252 0.979 . S
C280 H253 0.980 . S
C280 H254 0.983 . S
C280 C276 1.684 1_545 S
H281 C299 0.948 . S
H282 C240 0.948 . S
H283 C258 0.979 . S
H284 C258 0.980 . S
H285 C258 0.983 . S
H286 C257 0.982 . S
H287 C257 0.979 . S
H288 C257 0.977 . S
H289 C259 0.948 . S
H290 C261 0.947 1_545 S
H291 C262 0.948 . S
H292 C268 0.982 . S
H293 C268 0.979 . S
H294 C268 0.977 . S
H295 C269 0.979 . S
H296 C269 0.980 . S
H297 C269 0.983 . S
H298 C242 0.947 1_455 S
C299 C242 1.392 . S
C299 C243 1.419 . S
C299 H281 0.948 . S
C300 C301 1.391 . S
C300 C304 1.391 . S
C300 H342 0.948 . S
C301 C300 1.391 . S
C301 C302 1.391 . S
C302 C301 1.391 . S
C302 H358 0.947 . S
C302 C359 1.392 . S
C303 C304 1.391 . S
C303 C307 1.397 . S
C303 C359 1.419 . S
C304 C300 1.391 . S
C304 C303 1.391 . S
C304 C305 1.399 . S
C305 C304 1.399 . S
C305 C308 1.396 . S
C305 C317 1.453 . S
C305 C318 1.684 . S
H306 C330 0.948 . S
C307 C303 1.397 . S
C307 C308 1.394 . S
C307 C326 1.723 . S
C308 C305 1.396 . S
C308 C307 1.394 . S
C308 C338 1.723 . S
H309 C332 0.947 . S
H310 C333 0.948 . S
H311 C339 0.982 . S
H312 C340 0.979 . S
H313 C340 0.980 . S
H314 C340 0.983 . S
H315 C339 0.979 . S
H316 C339 0.977 . S
C317 C305 1.453 . S
C317 H346 0.982 . S
C317 H347 0.979 . S
C317 H348 0.977 . S
C318 C305 1.684 . S
C318 H343 0.979 . S
C318 H344 0.980 . S
C318 H345 0.983 . S
C319 C320 1.391 . S
C319 C324 1.391 . S
C319 H349 0.948 . S
C320 C319 1.391 . S
C320 C321 1.391 . S
C321 C320 1.391 . S
C321 C322 1.392 . S
C321 H350 0.947 . S
C322 C321 1.392 . S
C322 C323 1.419 . S
C322 H351 0.948 . S
C323 C322 1.419 . S
C323 C324 1.391 . S
C323 C327 1.397 . S
C324 C319 1.391 . S
C324 C323 1.391 . S
C324 C325 1.399 . S
C325 C324 1.399 . S
C325 C326 1.396 . S
C325 C328 1.453 . S
C325 C329 1.684 . S
C326 C307 1.723 . S
C326 C325 1.396 . S
C326 C327 1.394 . S
C327 C323 1.397 . S
C327 C326 1.394 . S
C327 C337 1.723 . S
C328 C325 1.453 . S
C328 H352 0.982 . S
C328 H353 0.979 . S
C328 H354 0.977 . S
C329 C325 1.684 . S
C329 H355 0.979 . S
C329 H356 0.980 . S
C329 H357 0.983 . S
C330 H306 0.948 . S
C330 C331 1.391 . S
C330 C335 1.391 . S
C331 C330 1.391 . S
C331 C332 1.391 . S
C332 H309 0.947 . S
C332 C331 1.391 . S
C332 C333 1.392 . S
C333 H310 0.948 . S
C333 C332 1.392 . S
C333 C334 1.419 . S
C334 C333 1.419 . S
C334 C335 1.391 . S
C334 C338 1.397 . S
C335 C330 1.391 . S
C335 C334 1.391 . S
C335 C336 1.399 . S
C336 C335 1.399 . S
C336 C337 1.396 . S
C336 C339 1.453 . S
C336 C340 1.684 . S
C337 C327 1.723 . S
C337 C336 1.396 . S
C337 C338 1.394 . S
C338 C308 1.723 . S
C338 C334 1.397 . S
C338 C337 1.394 . S
C339 H311 0.982 . S
C339 H315 0.979 . S
C339 H316 0.977 . S
C339 C336 1.453 . S
C340 H312 0.979 . S
C340 H313 0.980 . S
C340 H314 0.983 . S
C340 C336 1.684 . S
H341 C359 0.948 . S
H342 C300 0.948 . S
H343 C318 0.979 . S
H344 C318 0.980 . S
H345 C318 0.983 . S
H346 C317 0.982 . S
H347 C317 0.979 . S
H348 C317 0.977 . S
H349 C319 0.948 . S
H350 C321 0.947 . S
H351 C322 0.948 . S
H352 C328 0.982 . S
H353 C328 0.979 . S
H354 C328 0.977 . S
H355 C329 0.979 . S
H356 C329 0.980 . S
H357 C329 0.983 . S
H358 C302 0.947 . S
C359 C302 1.392 . S
C359 C303 1.419 . S
C359 H341 0.948 . S
C360 C361 1.391 . S
C360 C364 1.391 . S
C360 H402 0.948 . S
C361 C360 1.391 . S
C361 C362 1.391 . S
C362 C361 1.391 . S
C362 H418 0.947 . S
C362 C419 1.392 . S
C363 C364 1.391 . S
C363 C367 1.397 . S
C363 C419 1.419 . S
C364 C360 1.391 . S
C364 C363 1.391 . S
C364 C365 1.399 . S
C365 C364 1.399 . S
C365 C368 1.396 . S
C365 C377 1.453 . S
C365 C378 1.684 . S
H366 C390 0.948 . S
C367 C363 1.397 . S
C367 C368 1.394 . S
C367 C386 1.723 . S
C368 C365 1.396 . S
C368 C367 1.394 . S
C368 C398 1.723 . S
H369 C392 0.947 . S
H370 C393 0.948 . S
H371 C399 0.982 . S
H372 C400 0.979 . S
H373 C400 0.980 . S
H374 C400 0.983 . S
H375 C399 0.979 . S
H376 C399 0.977 . S
C377 C365 1.453 . S
C377 H406 0.982 . S
C377 H407 0.979 . S
C377 H408 0.977 . S
C378 C365 1.684 . S
C378 H403 0.979 . S
C378 H404 0.980 . S
C378 H405 0.983 . S
C379 C380 1.391 . S
C379 C384 1.391 . S
C379 H409 0.948 . S
C380 C379 1.391 . S
C380 C381 1.391 . S
C381 C380 1.391 . S
C381 C382 1.392 . S
C381 H410 0.947 . S
C382 C381 1.392 . S
C382 C383 1.419 . S
C382 H411 0.948 . S
C383 C382 1.419 . S
C383 C384 1.391 . S
C383 C387 1.397 . S
C384 C379 1.391 . S
C384 C383 1.391 . S
C384 C385 1.399 . S
C385 C384 1.399 . S
C385 C386 1.396 . S
C385 C388 1.453 . S
C385 C389 1.684 . S
C386 C367 1.723 . S
C386 C385 1.396 . S
C386 C387 1.394 . S
C387 C383 1.397 . S
C387 C386 1.394 . S
C387 C397 1.723 . S
C388 C385 1.453 . S
C388 H412 0.982 . S
C388 H413 0.979 . S
C388 H414 0.977 . S
C389 C385 1.684 . S
C389 H415 0.979 . S
C389 H416 0.980 . S
C389 H417 0.983 . S
C390 H366 0.948 . S
C390 C391 1.391 . S
C390 C395 1.391 . S
C391 C390 1.391 . S
C391 C392 1.391 . S
C392 H369 0.947 . S
C392 C391 1.391 . S
C392 C393 1.392 . S
C393 H370 0.948 . S
C393 C392 1.392 . S
C393 C394 1.419 . S
C394 C393 1.419 . S
C394 C395 1.391 . S
C394 C398 1.397 . S
C395 C390 1.391 . S
C395 C394 1.391 . S
C395 C396 1.399 . S
C396 C395 1.399 . S
C396 C397 1.396 . S
C396 C399 1.453 . S
C396 C400 1.684 . S
C397 C387 1.723 . S
C397 C396 1.396 . S
C397 C398 1.394 . S
C398 C368 1.723 . S
C398 C394 1.397 . S
C398 C397 1.394 . S
C399 H371 0.982 . S
C399 H375 0.979 . S
C399 H376 0.977 . S
C399 C396 1.453 . S
C400 H372 0.979 . S
C400 H373 0.980 . S
C400 H374 0.983 . S
C400 C396 1.684 . S
H401 C419 0.948 . S
H402 C360 0.948 . S
H403 C378 0.979 . S
H404 C378 0.980 . S
H405 C378 0.983 . S
H406 C377 0.982 . S
H407 C377 0.979 . S
H408 C377 0.977 . S
H409 C379 0.948 . S
H410 C381 0.947 . S
H411 C382 0.948 . S
H412 C388 0.982 . S
H413 C388 0.979 . S
H414 C388 0.977 . S
H415 C389 0.979 . S
H416 C389 0.980 . S
H417 C389 0.983 . S
H418 C362 0.947 . S
C419 C362 1.392 . S
C419 C363 1.419 . S
C419 H401 0.948 . S
C420 C421 1.391 . S
C420 C424 1.391 . S
C420 H462 0.948 . S
C421 C420 1.391 . S
C421 C422 1.391 . S
C422 C421 1.391 . S
C422 H478 0.947 . S
C422 C479 1.392 . S
C423 C424 1.391 . S
C423 C427 1.397 . S
C423 C479 1.419 . S
C424 C420 1.391 . S
C424 C423 1.391 . S
C424 C425 1.399 . S
C425 C424 1.399 . S
C425 C428 1.396 . S
C425 C437 1.453 . S
C425 C438 1.684 . S
H426 C450 0.948 . S
C427 C423 1.397 . S
C427 C428 1.394 . S
C427 C446 1.723 . S
C428 C425 1.396 . S
C428 C427 1.394 . S
C428 C458 1.723 . S
H429 C452 0.947 . S
H430 C453 0.948 . S
H431 C459 0.982 . S
H432 C460 0.979 . S
H433 C460 0.980 . S
H434 C460 0.983 . S
H435 C459 0.979 . S
H436 C459 0.977 . S
C437 C425 1.453 . S
C437 H466 0.982 . S
C437 H467 0.979 . S
C437 H468 0.977 . S
C438 C425 1.684 . S
C438 H463 0.979 . S
C438 H464 0.980 . S
C438 H465 0.983 . S
C439 C440 1.391 . S
C439 C444 1.391 . S
C439 H469 0.948 . S
C440 C439 1.391 . S
C440 C441 1.391 . S
C441 C440 1.391 . S
C441 C442 1.392 . S
C441 H470 0.947 . S
C442 C441 1.392 . S
C442 C443 1.419 . S
C442 H471 0.948 . S
C443 C442 1.419 . S
C443 C444 1.391 . S
C443 C447 1.397 . S
C444 C439 1.391 . S
C444 C443 1.391 . S
C444 C445 1.399 . S
C445 C444 1.399 . S
C445 C446 1.396 . S
C445 C448 1.453 . S
C445 C449 1.684 . S
C446 C427 1.723 . S
C446 C445 1.396 . S
C446 C447 1.394 . S
C447 C443 1.397 . S
C447 C446 1.394 . S
C447 C457 1.723 . S
C448 C445 1.453 . S
C448 H472 0.982 . S
C448 H473 0.979 . S
C448 H474 0.977 . S
C449 C445 1.684 . S
C449 H475 0.979 . S
C449 H476 0.980 . S
C449 H477 0.983 . S
C450 H426 0.948 . S
C450 C451 1.391 . S
C450 C455 1.391 . S
C451 C450 1.391 . S
C451 C452 1.391 . S
C452 H429 0.947 . S
C452 C451 1.391 . S
C452 C453 1.392 . S
C453 H430 0.948 . S
C453 C452 1.392 . S
C453 C454 1.419 . S
C454 C453 1.419 . S
C454 C455 1.391 . S
C454 C458 1.397 . S
C455 C450 1.391 . S
C455 C454 1.391 . S
C455 C456 1.399 . S
C456 C455 1.399 . S
C456 C457 1.396 . S
C456 C459 1.453 . S
C456 C460 1.684 . S
C457 C447 1.723 . S
C457 C456 1.396 . S
C457 C458 1.394 . S
C458 C428 1.723 . S
C458 C454 1.397 . S
C458 C457 1.394 . S
C459 H431 0.982 . S
C459 H435 0.979 . S
C459 H436 0.977 . S
C459 C456 1.453 . S
C460 H432 0.979 . S
C460 H433 0.980 . S
C460 H434 0.983 . S
C460 C456 1.684 . S
H461 C479 0.948 . S
H462 C420 0.948 . S
H463 C438 0.979 . S
H464 C438 0.980 . S
H465 C438 0.983 . S
H466 C437 0.982 . S
H467 C437 0.979 . S
H468 C437 0.977 . S
H469 C439 0.948 . S
H470 C441 0.947 . S
H471 C442 0.948 . S
H472 C448 0.982 . S
H473 C448 0.979 . S
H474 C448 0.977 . S
H475 C449 0.979 . S
H476 C449 0.980 . S
H477 C449 0.983 . S
H478 C422 0.947 . S
C479 C422 1.392 . S
C479 C423 1.419 . S
C479 H461 0.948 . S
Zn480 O486 1.920 . S
Zn480 O492 1.898 . S
Zn480 O495 1.905 . S
Zn481 O489 1.905 1_565 S
Zn481 O490 1.898 . S
Zn481 O498 1.920 . S
Zn482 O485 2.080 1_455 S
Zn482 O488 2.114 . S
Zn482 O491 2.120 1_445 S
Zn482 O493 2.120 . S
Zn482 O494 2.114 1_455 S
Zn482 O497 2.080 . S
C483 O488 1.166 . S
C483 O489 1.182 . S
C484 O490 1.167 1_655 S
C484 O491 1.299 . S
O485 Zn482 2.080 1_655 S
O485 C499 1.305 . S
O486 Zn480 1.920 . S
O486 C499 1.234 . S
C487 O492 1.167 1_455 S
C487 O493 1.299 . S
O488 Zn482 2.114 . S
O488 C483 1.166 . S
O489 Zn481 1.905 1_545 S
O489 C483 1.182 . S
O490 Zn481 1.898 . S
O490 C484 1.167 1_455 S
O491 Zn482 2.120 1_665 S
O491 C484 1.299 . S
O492 Zn480 1.898 . S
O492 C487 1.167 1_655 S
O493 Zn482 2.120 . S
O493 C487 1.299 . S
O494 Zn482 2.114 1_655 S
O494 C496 1.166 . S
O495 Zn480 1.905 . S
O495 C496 1.182 . S
C496 O494 1.166 . S
C496 O495 1.182 . S
O497 Zn482 2.080 . S
O497 C500 1.306 1_545 S
O498 Zn481 1.920 . S
O498 C500 1.233 . S
C499 O485 1.305 . S
C499 O486 1.234 . S
C500 O497 1.306 1_565 S
C500 O498 1.233 . S
Zn501 O507 1.920 1_556 S
Zn501 O513 1.898 . S
Zn501 O516 1.905 . S
Zn502 O510 1.905 . S
Zn502 O511 1.898 . S
Zn502 O519 1.920 . S
Zn503 O506 2.080 . S
Zn503 O509 2.114 1_545 S
Zn503 O512 2.120 1_545 S
Zn503 O514 2.120 . S
Zn503 O515 2.114 1_544 S
Zn503 O518 2.080 . S
C504 O509 1.166 . S
C504 O510 1.182 . S
C505 O511 1.167 . S
C505 O512 1.299 . S
O506 Zn503 2.080 . S
O506 C520 1.305 . S
O507 Zn501 1.920 1_554 S
O507 C520 1.234 . S
C508 O513 1.167 . S
C508 O514 1.299 1_556 S
O509 Zn503 2.114 1_565 S
O509 C504 1.166 . S
O510 Zn502 1.905 . S
O510 C504 1.182 . S
O511 Zn502 1.898 . S
O511 C505 1.167 . S
O512 Zn503 2.120 1_565 S
O512 C505 1.299 . S
O513 Zn501 1.898 . S
O513 C508 1.167 . S
O514 Zn503 2.120 . S
O514 C508 1.299 1_554 S
O515 Zn503 2.114 1_566 S
O515 C517 1.166 . S
O516 Zn501 1.905 . S
O516 C517 1.182 1_545 S
C517 O515 1.166 . S
C517 O516 1.182 1_565 S
O518 Zn503 2.080 . S
O518 C521 1.305 . S
O519 Zn502 1.920 . S
O519 C521 1.234 1_565 S
C520 O506 1.305 . S
C520 O507 1.234 . S
C521 O518 1.305 . S
C521 O519 1.234 1_545 S
Zn522 O528 1.920 . S
Zn522 O534 1.898 . S
Zn522 O537 1.905 . S
Zn523 O531 1.905 . S
Zn523 O532 1.898 . S
Zn523 O540 1.920 . S
Zn524 O527 2.080 . S
Zn524 O530 2.114 . S
Zn524 O533 2.120 . S
Zn524 O535 2.120 . S
Zn524 O536 2.114 . S
Zn524 O539 2.080 . S
C525 O530 1.166 . S
C525 O531 1.182 . S
C526 O532 1.167 . S
C526 O533 1.299 . S
O527 Zn524 2.080 . S
O527 C541 1.305 . S
O528 Zn522 1.920 . S
O528 C541 1.234 . S
C529 O534 1.167 . S
C529 O535 1.299 . S
O530 Zn524 2.114 . S
O530 C525 1.166 . S
O531 Zn523 1.905 . S
O531 C525 1.182 . S
O532 Zn523 1.898 . S
O532 C526 1.167 . S
O533 Zn524 2.120 . S
O533 C526 1.299 . S
O534 Zn522 1.898 . S
O534 C529 1.167 . S
O535 Zn524 2.120 . S
O535 C529 1.299 . S
O536 Zn524 2.114 . S
O536 C538 1.166 . S
O537 Zn522 1.905 . S
O537 C538 1.182 . S
C538 O536 1.166 . S
C538 O537 1.182 . S
O539 Zn524 2.080 . S
O539 C542 1.305 . S
O540 Zn523 1.920 . S
O540 C542 1.234 . S
C541 O527 1.305 . S
C541 O528 1.234 . S
C542 O539 1.305 . S
C542 O540 1.234 . S
Zn543 O549 1.920 . S
Zn543 O555 1.898 . S
Zn543 O558 1.905 . S
Zn544 O552 1.905 1_655 S
Zn544 O553 1.898 . S
Zn544 O561 1.920 . S
Zn545 O548 2.080 1_554 S
Zn545 O551 2.114 . S
Zn545 O554 2.120 1_454 S
Zn545 O556 2.120 . S
Zn545 O557 2.114 1_554 S
Zn545 O560 2.080 . S
C546 O551 1.166 . S
C546 O552 1.182 . S
C547 O553 1.167 1_556 S
C547 O554 1.299 . S
O548 Zn545 2.080 1_556 S
O548 C562 1.305 . S
O549 Zn543 1.920 . S
O549 C562 1.234 . S
C550 O555 1.167 1_554 S
C550 O556 1.299 . S
O551 Zn545 2.114 . S
O551 C546 1.166 . S
O552 Zn544 1.905 1_455 S
O552 C546 1.182 . S
O553 Zn544 1.898 . S
O553 C547 1.167 1_554 S
O554 Zn545 2.120 1_656 S
O554 C547 1.299 . S
O555 Zn543 1.898 . S
O555 C550 1.167 1_556 S
O556 Zn545 2.120 . S
O556 C550 1.299 . S
O557 Zn545 2.114 1_556 S
O557 C559 1.166 . S
O558 Zn543 1.905 . S
O558 C559 1.182 . S
C559 O557 1.166 . S
C559 O558 1.182 . S
O560 Zn545 2.080 . S
O560 C563 1.266 1_455 S
O561 Zn544 1.920 . S
O561 C563 1.263 . S
C562 O548 1.305 . S
C562 O549 1.234 . S
C563 O560 1.266 1_655 S
C563 O561 1.263 . S
C564 C565 1.349 . S
C564 C566 1.327 . S
C564 H589 0.950 . S
C565 C564 1.349 . S
C565 C581 1.349 . S
C566 C564 1.327 . S
C566 C585 1.429 . S
C566 H590 0.950 . S
C567 C584 1.574 . S
C567 C586 1.368 . S
C567 H591 0.949 . S
H568 C572 0.949 . S
C569 C570 1.349 . S
C569 C571 1.327 . S
C569 H592 0.950 . S
C570 C569 1.349 . S
C570 C582 1.349 . S
C571 C569 1.327 . S
C571 C587 1.429 . S
C571 H593 0.950 . S
C572 H568 0.949 . S
C572 C580 1.574 . S
C572 C588 1.368 . S
H573 C581 0.950 . S
H574 C579 0.950 . S
H575 C580 0.949 . S
H576 C582 0.950 . S
H577 C583 0.950 . S
H578 C584 0.949 . S
C579 H574 0.950 . S
C579 C581 1.327 . S
C579 C585 1.429 . S
C580 C572 1.574 . S
C580 H575 0.949 . S
C580 C586 1.368 . S
C581 C565 1.349 . S
C581 H573 0.950 . S
C581 C579 1.327 . S
C582 C570 1.349 . S
C582 H576 0.950 . S
C582 C583 1.327 . S
C583 H577 0.950 . S
C583 C582 1.327 . S
C583 C587 1.429 . S
C584 C567 1.574 . S
C584 H578 0.949 . S
C584 C588 1.368 . S
C585 C566 1.429 . S
C585 C579 1.429 . S
C585 C586 1.523 . S
C586 C567 1.368 . S
C586 C580 1.368 . S
C586 C585 1.523 . S
C587 C571 1.429 . S
C587 C583 1.429 . S
C587 C588 1.523 . S
C588 C572 1.368 . S
C588 C584 1.368 . S
C588 C587 1.523 . S
H589 C564 0.950 . S
H590 C566 0.950 . S
H591 C567 0.949 . S
H592 C569 0.950 . S
H593 C571 0.950 . S
C594 C595 1.349 . S
C594 C596 1.327 . S
C594 H619 0.950 . S
C595 C594 1.349 . S
C595 C611 1.349 . S
C596 C594 1.327 . S
C596 C615 1.429 . S
C596 H620 0.950 . S
C597 C614 1.574 . S
C597 C616 1.368 . S
C597 H621 0.949 . S
H598 C602 0.949 . S
C599 C600 1.349 . S
C599 C601 1.327 . S
C599 H622 0.950 . S
C600 C599 1.349 . S
C600 C612 1.349 . S
C601 C599 1.327 . S
C601 C617 1.429 . S
C601 H623 0.950 . S
C602 H598 0.949 . S
C602 C610 1.574 . S
C602 C618 1.368 . S
H603 C611 0.950 . S
H604 C609 0.950 . S
H605 C610 0.949 . S
H606 C612 0.950 1_545 S
H607 C613 0.950 . S
H608 C614 0.949 . S
C609 H604 0.950 . S
C609 C611 1.327 . S
C609 C615 1.429 . S
C610 C602 1.574 . S
C610 H605 0.949 . S
C610 C616 1.368 . S
C611 C595 1.349 . S
C611 H603 0.950 . S
C611 C609 1.327 . S
C612 C600 1.349 . S
C612 H606 0.950 1_565 S
C612 C613 1.327 . S
C613 H607 0.950 . S
C613 C612 1.327 . S
C613 C617 1.429 . S
C614 C597 1.574 . S
C614 H608 0.949 . S
C614 C618 1.368 . S
C615 C596 1.429 . S
C615 C609 1.429 . S
C615 C616 1.523 . S
C616 C597 1.368 . S
C616 C610 1.368 . S
C616 C615 1.523 . S
C617 C601 1.429 . S
C617 C613 1.429 . S
C617 C618 1.523 . S
C618 C602 1.368 . S
C618 C614 1.368 . S
C618 C617 1.523 . S
H619 C594 0.950 . S
H620 C596 0.950 . S
H621 C597 0.949 . S
H622 C599 0.950 . S
H623 C601 0.950 . S
C624 C625 1.349 . S
C624 C626 1.327 . S
C624 H649 0.950 . S
C625 C624 1.349 . S
C625 C641 1.349 . S
C626 C624 1.327 . S
C626 C645 1.429 . S
C626 H650 0.950 . S
C627 C644 1.574 . S
C627 C646 1.368 . S
C627 H651 0.949 . S
H628 C632 0.949 . S
C629 C630 1.349 . S
C629 C631 1.327 . S
C629 H652 0.950 . S
C630 C629 1.349 . S
C630 C642 1.349 . S
C631 C629 1.327 . S
C631 C647 1.429 . S
C631 H653 0.950 . S
C632 H628 0.949 . S
C632 C640 1.574 . S
C632 C648 1.368 . S
H633 C641 0.950 . S
H634 C639 0.950 . S
H635 C640 0.949 . S
H636 C642 0.950 . S
H637 C643 0.950 . S
H638 C644 0.949 . S
C639 H634 0.950 . S
C639 C641 1.327 . S
C639 C645 1.429 . S
C640 C632 1.574 . S
C640 H635 0.949 . S
C640 C646 1.368 . S
C641 C625 1.349 . S
C641 H633 0.950 . S
C641 C639 1.327 . S
C642 C630 1.349 . S
C642 H636 0.950 . S
C642 C643 1.327 . S
C643 H637 0.950 . S
C643 C642 1.327 . S
C643 C647 1.429 . S
C644 C627 1.574 . S
C644 H638 0.949 . S
C644 C648 1.368 . S
C645 C626 1.429 . S
C645 C639 1.429 . S
C645 C646 1.523 . S
C646 C627 1.368 . S
C646 C640 1.368 . S
C646 C645 1.523 . S
C647 C631 1.429 . S
C647 C643 1.429 . S
C647 C648 1.523 . S
C648 C632 1.368 . S
C648 C644 1.368 . S
C648 C647 1.523 . S
H649 C624 0.950 . S
H650 C626 0.950 . S
H651 C627 0.949 . S
H652 C629 0.950 . S
H653 C631 0.950 . S
C654 C655 1.349 . S
C654 C656 1.327 . S
C654 H679 0.950 . S
C655 C654 1.349 . S
C655 C671 1.349 . S
C656 C654 1.327 . S
C656 C675 1.429 . S
C656 H680 0.950 . S
C657 C674 1.574 . S
C657 C676 1.368 . S
C657 H681 0.949 . S
H658 C662 0.949 . S
C659 C660 1.349 . S
C659 C661 1.327 . S
C659 H682 0.950 . S
C660 C659 1.349 . S
C660 C672 1.356 . S
C661 C659 1.327 . S
C661 C677 1.429 . S
C661 H683 0.950 . S
C662 H658 0.949 . S
C662 C670 1.574 . S
C662 C678 1.368 . S
H663 C671 0.950 . S
H664 C669 0.950 . S
H665 C670 0.949 . S
H666 C672 0.932 1_455 S
H667 C673 0.950 . S
H668 C674 0.949 . S
C669 H664 0.950 . S
C669 C671 1.327 . S
C669 C675 1.429 . S
C670 C662 1.574 . S
C670 H665 0.949 . S
C670 C676 1.368 . S
C671 C655 1.349 . S
C671 H663 0.950 . S
C671 C669 1.327 . S
C672 C660 1.356 . S
C672 H666 0.932 1_655 S
C672 C673 1.337 . S
C673 H667 0.950 . S
C673 C672 1.337 . S
C673 C677 1.429 . S
C674 C657 1.574 . S
C674 H668 0.949 . S
C674 C678 1.368 . S
C675 C656 1.429 . S
C675 C669 1.429 . S
C675 C676 1.523 . S
C676 C657 1.368 . S
C676 C670 1.368 . S
C676 C675 1.523 . S
C677 C661 1.429 . S
C677 C673 1.429 . S
C677 C678 1.523 . S
C678 C662 1.368 . S
C678 C674 1.368 . S
C678 C677 1.523 . S
H679 C654 0.950 . S
H680 C656 0.950 . S
H681 C657 0.949 . S
H682 C659 0.950 . S
H683 C661 0.950 . S
C684 C685 1.349 . S
C684 C686 1.327 . S
C684 H709 0.950 . S
C685 C684 1.349 . S
C685 C701 1.349 . S
C686 C684 1.327 . S
C686 C705 1.429 . S
C686 H710 0.950 . S
C687 C704 1.574 . S
C687 C706 1.368 . S
C687 H711 0.949 . S
H688 C692 0.949 . S
C689 C690 1.349 . S
C689 C691 1.327 . S
C689 H712 0.950 . S
C690 C689 1.349 . S
C690 C702 1.349 . S
C691 C689 1.327 . S
C691 C707 1.429 . S
C691 H713 0.950 . S
C692 H688 0.949 . S
C692 C700 1.574 . S
C692 C708 1.368 . S
H693 C701 0.950 . S
H694 C699 0.950 . S
H695 C700 0.949 . S
H696 C702 0.950 . S
H697 C703 0.950 . S
H698 C704 0.949 . S
C699 H694 0.950 . S
C699 C701 1.327 . S
C699 C705 1.429 . S
C700 C692 1.574 . S
C700 H695 0.949 . S
C700 C706 1.368 . S
C701 C685 1.349 . S
C701 H693 0.950 . S
C701 C699 1.327 . S
C702 C690 1.349 . S
C702 H696 0.950 . S
C702 C703 1.327 . S
C703 H697 0.950 . S
C703 C702 1.327 . S
C703 C707 1.429 . S
C704 C687 1.574 . S
C704 H698 0.949 . S
C704 C708 1.368 . S
C705 C686 1.429 . S
C705 C699 1.429 . S
C705 C706 1.523 . S
C706 C687 1.368 . S
C706 C700 1.368 . S
C706 C705 1.523 . S
C707 C691 1.429 . S
C707 C703 1.429 . S
C707 C708 1.523 . S
C708 C692 1.368 . S
C708 C704 1.368 . S
C708 C707 1.523 . S
H709 C684 0.950 . S
H710 C686 0.950 . S
H711 C687 0.949 . S
H712 C689 0.950 . S
H713 C691 0.950 . S
C714 C715 1.349 . S
C714 C716 1.327 . S
C714 H739 0.950 . S
C715 C714 1.349 . S
C715 C731 1.349 . S
C716 C714 1.327 . S
C716 C735 1.429 . S
C716 H740 0.950 . S
C717 C734 1.574 . S
C717 C736 1.368 . S
C717 H741 0.949 . S
H718 C722 0.949 . S
C719 C720 1.349 1_545 S
C719 C721 1.327 1_545 S
C719 H742 0.950 . S
C720 C719 1.349 1_565 S
C720 C732 1.349 . S
C721 C719 1.327 1_565 S
C721 C737 1.429 . S
C721 H743 0.950 1_565 S
C722 H718 0.949 . S
C722 C730 1.574 . S
C722 C738 1.368 . S
H723 C731 0.950 . S
H724 C729 0.950 . S
H725 C730 0.949 . S
H726 C732 0.950 . S
H727 C733 0.950 . S
H728 C734 0.949 . S
C729 H724 0.950 . S
C729 C731 1.327 . S
C729 C735 1.429 . S
C730 C722 1.574 . S
C730 H725 0.949 . S
C730 C736 1.368 . S
C731 C715 1.349 . S
C731 H723 0.950 . S
C731 C729 1.327 . S
C732 C720 1.349 . S
C732 H726 0.950 . S
C732 C733 1.327 . S
C733 H727 0.950 . S
C733 C732 1.327 . S
C733 C737 1.429 . S
C734 C717 1.574 . S
C734 H728 0.949 . S
C734 C738 1.368 . S
C735 C716 1.429 . S
C735 C729 1.429 . S
C735 C736 1.523 . S
C736 C717 1.368 . S
C736 C730 1.368 . S
C736 C735 1.523 . S
C737 C721 1.429 . S
C737 C733 1.429 . S
C737 C738 1.523 . S
C738 C722 1.368 . S
C738 C734 1.368 . S
C738 C737 1.523 . S
H739 C714 0.950 . S
H740 C716 0.950 . S
H741 C717 0.949 . S
H742 C719 0.950 . S
H743 C721 0.950 1_545 S
C744 C745 1.349 . S
C744 C746 1.327 . S
C744 H769 0.950 . S
C745 C744 1.349 . S
C745 C761 1.349 . S
C746 C744 1.327 . S
C746 C765 1.429 . S
C746 H770 0.950 . S
C747 C764 1.574 . S
C747 C766 1.368 . S
C747 H771 0.949 . S
H748 C752 0.949 . S
C749 C750 1.349 . S
C749 C751 1.327 . S
C749 H772 0.950 1_556 S
C750 C749 1.349 . S
C750 C762 1.349 . S
C751 C749 1.327 . S
C751 C767 1.429 . S
C751 H773 0.950 . S
C752 H748 0.949 . S
C752 C760 1.574 . S
C752 C768 1.368 . S
H753 C761 0.950 . S
H754 C759 0.950 . S
H755 C760 0.949 . S
H756 C762 0.950 . S
H757 C763 0.950 . S
H758 C764 0.949 . S
C759 H754 0.950 . S
C759 C761 1.327 . S
C759 C765 1.429 . S
C760 C752 1.574 . S
C760 H755 0.949 . S
C760 C766 1.368 . S
C761 C745 1.349 . S
C761 H753 0.950 . S
C761 C759 1.327 . S
C762 C750 1.349 . S
C762 H756 0.950 . S
C762 C763 1.327 . S
C763 H757 0.950 . S
C763 C762 1.327 . S
C763 C767 1.429 . S
C764 C747 1.574 . S
C764 H758 0.949 . S
C764 C768 1.368 . S
C765 C746 1.429 . S
C765 C759 1.429 . S
C765 C766 1.523 . S
C766 C747 1.368 . S
C766 C760 1.368 . S
C766 C765 1.523 . S
C767 C751 1.429 . S
C767 C763 1.429 . S
C767 C768 1.523 . S
C768 C752 1.368 . S
C768 C764 1.368 . S
C768 C767 1.523 . S
H769 C744 0.950 . S
H770 C746 0.950 . S
H771 C747 0.949 . S
H772 C749 0.950 1_554 S
H773 C751 0.950 . S
C774 C775 1.349 . S
C774 C776 1.327 . S
C774 H799 0.950 . S
C775 C774 1.349 . S
C775 C791 1.349 . S
C776 C774 1.327 . S
C776 C795 1.429 . S
C776 H800 0.950 . S
C777 C794 1.574 . S
C777 C796 1.368 . S
C777 H801 0.949 . S
H778 C782 0.949 . S
C779 C780 1.349 . S
C779 C781 1.327 . S
C779 H802 0.950 . S
C780 C779 1.349 . S
C780 C792 1.349 . S
C781 C779 1.327 . S
C781 C797 1.429 . S
C781 H803 0.950 . S
C782 H778 0.949 . S
C782 C790 1.574 . S
C782 C798 1.368 . S
H783 C791 0.950 . S
H784 C789 0.950 . S
H785 C790 0.949 . S
H786 C792 0.950 . S
H787 C793 0.950 . S
H788 C794 0.949 . S
C789 H784 0.950 . S
C789 C791 1.327 . S
C789 C795 1.429 . S
C790 C782 1.574 . S
C790 H785 0.949 . S
C790 C796 1.368 . S
C791 C775 1.349 . S
C791 H783 0.950 . S
C791 C789 1.327 . S
C792 C780 1.349 . S
C792 H786 0.950 . S
C792 C793 1.327 . S
C793 H787 0.950 . S
C793 C792 1.327 . S
C793 C797 1.429 . S
C794 C777 1.574 . S
C794 H788 0.949 . S
C794 C798 1.368 . S
C795 C776 1.429 . S
C795 C789 1.429 . S
C795 C796 1.523 . S
C796 C777 1.368 . S
C796 C790 1.368 . S
C796 C795 1.523 . S
C797 C781 1.429 . S
C797 C793 1.429 . S
C797 C798 1.523 . S
C798 C782 1.368 . S
C798 C794 1.368 . S
C798 C797 1.523 . S
H799 C774 0.950 . S
H800 C776 0.950 . S
H801 C777 0.949 . S
H802 C779 0.950 . S
H803 C781 0.950 . S
C804 C805 1.349 . S
C804 C806 1.327 . S
C804 H829 0.950 . S
C805 C804 1.349 . S
C805 C821 1.349 . S
C806 C804 1.327 . S
C806 C825 1.429 . S
C806 H830 0.950 . S
C807 C824 1.574 . S
C807 C826 1.368 . S
C807 H831 0.949 . S
H808 C812 0.949 . S
C809 C810 1.349 . S
C809 C811 1.327 . S
C809 H832 0.950 . S
C810 C809 1.349 . S
C810 C822 1.349 . S
C811 C809 1.327 . S
C811 C827 1.429 . S
C811 H833 0.950 . S
C812 H808 0.949 . S
C812 C820 1.574 . S
C812 C828 1.368 . S
H813 C821 0.950 . S
H814 C819 0.950 . S
H815 C820 0.949 . S
H816 C822 0.950 . S
H817 C823 0.950 . S
H818 C824 0.949 . S
C819 H814 0.950 . S
C819 C821 1.327 . S
C819 C825 1.429 . S
C820 C812 1.574 . S
C820 H815 0.949 . S
C820 C826 1.368 . S
C821 C805 1.349 . S
C821 H813 0.950 . S
C821 C819 1.327 . S
C822 C810 1.349 . S
C822 H816 0.950 . S
C822 C823 1.327 . S
C823 H817 0.950 . S
C823 C822 1.327 . S
C823 C827 1.429 . S
C824 C807 1.574 . S
C824 H818 0.949 . S
C824 C828 1.368 . S
C825 C806 1.429 . S
C825 C819 1.429 . S
C825 C826 1.523 . S
C826 C807 1.368 . S
C826 C820 1.368 . S
C826 C825 1.523 . S
C827 C811 1.429 . S
C827 C823 1.429 . S
C827 C828 1.523 . S
C828 C812 1.368 . S
C828 C824 1.368 . S
C828 C827 1.523 . S
H829 C804 0.950 . S
H830 C806 0.950 . S
H831 C807 0.949 . S
H832 C809 0.950 . S
H833 C811 0.950 . S
C834 C835 1.349 . S
C834 C836 1.327 . S
C834 H859 0.950 . S
C835 C834 1.349 . S
C835 C851 1.349 . S
C836 C834 1.327 . S
C836 C855 1.429 . S
C836 H860 0.950 . S
C837 C854 1.574 . S
C837 C856 1.368 . S
C837 H861 0.949 . S
H838 C842 0.949 . S
C839 C840 1.346 1_554 S
C839 C841 1.324 1_554 S
C839 H862 0.955 . S
C840 C839 1.346 1_556 S
C840 C852 1.349 . S
C841 C839 1.324 1_556 S
C841 C857 1.429 . S
C841 H863 0.950 . S
C842 H838 0.949 . S
C842 C850 1.574 . S
C842 C858 1.368 . S
H843 C851 0.950 . S
H844 C849 0.950 . S
H845 C850 0.949 . S
H846 C852 0.950 . S
H847 C853 0.950 . S
H848 C854 0.949 . S
C849 H844 0.950 . S
C849 C851 1.327 . S
C849 C855 1.429 . S
C850 C842 1.574 . S
C850 H845 0.949 . S
C850 C856 1.368 . S
C851 C835 1.349 . S
C851 H843 0.950 . S
C851 C849 1.327 . S
C852 C840 1.349 . S
C852 H846 0.950 . S
C852 C853 1.327 . S
C853 H847 0.950 . S
C853 C852 1.327 . S
C853 C857 1.429 . S
C854 C837 1.574 . S
C854 H848 0.949 . S
C854 C858 1.368 . S
C855 C836 1.429 . S
C855 C849 1.429 . S
C855 C856 1.523 . S
C856 C837 1.368 . S
C856 C850 1.368 . S
C856 C855 1.523 . S
C857 C841 1.429 . S
C857 C853 1.429 . S
C857 C858 1.523 . S
C858 C842 1.368 . S
C858 C854 1.368 . S
C858 C857 1.523 . S
H859 C834 0.950 . S
H860 C836 0.950 . S
H861 C837 0.949 . S
H862 C839 0.955 . S
H863 C841 0.950 . S
C864 C865 1.349 . S
C864 C866 1.327 . S
C864 H889 0.950 . S
C865 C864 1.349 . S
C865 C881 1.349 . S
C866 C864 1.327 . S
C866 C885 1.429 . S
C866 H890 0.950 . S
C867 C884 1.574 . S
C867 C886 1.368 . S
C867 H891 0.949 . S
H868 C872 0.949 . S
C869 C870 1.349 . S
C869 C871 1.327 . S
C869 H892 0.928 1_655 S
C870 C869 1.349 . S
C870 C882 1.349 . S
C871 C869 1.327 . S
C871 C887 1.429 . S
C871 H893 0.950 . S
C872 H868 0.949 . S
C872 C880 1.574 . S
C872 C888 1.368 . S
H873 C881 0.950 . S
H874 C879 0.950 . S
H875 C880 0.949 . S
H876 C882 0.950 . S
H877 C883 0.950 . S
H878 C884 0.949 . S
C879 H874 0.950 . S
C879 C881 1.327 . S
C879 C885 1.429 . S
C880 C872 1.574 . S
C880 H875 0.949 . S
C880 C886 1.368 . S
C881 C865 1.349 . S
C881 H873 0.950 . S
C881 C879 1.327 . S
C882 C870 1.349 . S
C882 H876 0.950 . S
C882 C883 1.327 . S
C883 H877 0.950 . S
C883 C882 1.327 . S
C883 C887 1.429 . S
C884 C867 1.574 . S
C884 H878 0.949 . S
C884 C888 1.368 . S
C885 C866 1.429 . S
C885 C879 1.429 . S
C885 C886 1.523 . S
C886 C867 1.368 . S
C886 C880 1.368 . S
C886 C885 1.523 . S
C887 C871 1.429 . S
C887 C883 1.429 . S
C887 C888 1.523 . S
C888 C872 1.368 . S
C888 C884 1.368 . S
C888 C887 1.523 . S
H889 C864 0.950 . S
H890 C866 0.950 . S
H891 C867 0.949 . S
H892 C869 0.928 1_455 S
H893 C871 0.950 . S
C894 C895 1.349 . S
C894 C896 1.327 . S
C894 H919 0.950 . S
C895 C894 1.349 . S
C895 C911 1.349 . S
C896 C894 1.327 . S
C896 C915 1.429 . S
C896 H920 0.950 . S
C897 C914 1.574 . S
C897 C916 1.368 . S
C897 H921 0.949 . S
H898 C902 0.949 . S
C899 C900 1.349 . S
C899 C901 1.327 . S
C899 H922 0.950 . S
C900 C899 1.349 . S
C900 C912 1.349 . S
C901 C899 1.327 . S
C901 C917 1.429 . S
C901 H923 0.950 . S
C902 H898 0.949 . S
C902 C910 1.574 . S
C902 C918 1.368 . S
H903 C911 0.950 . S
H904 C909 0.950 . S
H905 C910 0.949 . S
H906 C912 0.950 . S
H907 C913 0.950 . S
H908 C914 0.949 . S
C909 H904 0.950 . S
C909 C911 1.327 . S
C909 C915 1.429 . S
C910 C902 1.574 . S
C910 H905 0.949 . S
C910 C916 1.368 . S
C911 C895 1.349 . S
C911 H903 0.950 . S
C911 C909 1.327 . S
C912 C900 1.349 . S
C912 H906 0.950 . S
C912 C913 1.327 . S
C913 H907 0.950 . S
C913 C912 1.327 . S
C913 C917 1.429 . S
C914 C897 1.574 . S
C914 H908 0.949 . S
C914 C918 1.368 . S
C915 C896 1.429 . S
C915 C909 1.429 . S
C915 C916 1.523 . S
C916 C897 1.368 . S
C916 C910 1.368 . S
C916 C915 1.523 . S
C917 C901 1.429 . S
C917 C913 1.429 . S
C917 C918 1.523 . S
C918 C902 1.368 . S
C918 C914 1.368 . S
C918 C917 1.523 . S
H919 C894 0.950 . S
H920 C896 0.950 . S
H921 C897 0.949 . S
H922 C899 0.950 . S
H923 C901 0.950 . S
C924 C925 1.349 . S
C924 C926 1.327 . S
C924 H949 0.950 . S
C925 C924 1.349 . S
C925 C941 1.349 1_565 S
C926 C924 1.327 . S
C926 C945 1.429 . S
C926 H950 0.950 . S
C927 C944 1.574 . S
C927 C946 1.368 1_545 S
C927 H951 0.949 1_655 S
H928 C932 0.949 . S
C929 C930 1.349 1_455 S
C929 C931 1.327 . S
C929 H952 0.950 . S
C930 C929 1.349 1_655 S
C930 C942 1.349 1_545 S
C931 C929 1.327 . S
C931 C947 1.429 1_455 S
C931 H953 0.950 . S
C932 H928 0.949 . S
C932 C940 1.574 . S
C932 C948 1.368 1_565 S
H933 C941 0.950 . S
H934 C939 0.939 1_455 S
H935 C940 0.949 . S
H936 C942 0.950 . S
H937 C943 0.950 . S
H938 C944 0.949 1_455 S
C939 H934 0.939 1_655 S
C939 C941 1.327 . S
C939 C945 1.429 1_545 S
C940 C932 1.574 . S
C940 H935 0.949 . S
C940 C946 1.368 . S
C941 C925 1.349 1_545 S
C941 H933 0.950 . S
C941 C939 1.327 . S
C942 C930 1.349 1_565 S
C942 H936 0.950 . S
C942 C943 1.327 . S
C943 H937 0.950 . S
C943 C942 1.327 . S
C943 C947 1.429 1_565 S
C944 C927 1.574 . S
C944 H938 0.949 1_655 S
C944 C948 1.368 . S
C945 C926 1.429 . S
C945 C939 1.429 1_565 S
C945 C946 1.523 . S
C946 C927 1.368 1_565 S
C946 C940 1.368 . S
C946 C945 1.523 . S
C947 C931 1.429 1_655 S
C947 C943 1.429 1_545 S
C947 C948 1.523 . S
C948 C932 1.368 1_545 S
C948 C944 1.368 . S
C948 C947 1.523 . S
H949 C924 0.950 . S
H950 C926 0.950 . S
H951 C927 0.949 1_455 S
H952 C929 0.950 . S
H953 C931 0.950 . S
C954 C955 1.349 . S
C954 C956 1.327 . S
C954 H979 0.950 . S
C955 C954 1.349 . S
C955 C971 1.349 . S
C956 C954 1.327 . S
C956 C975 1.429 . S
C956 H980 0.950 . S
C957 C974 1.574 . S
C957 C976 1.368 . S
C957 H981 0.949 . S
H958 C962 0.949 . S
C959 C960 1.349 . S
C959 C961 1.327 . S
C959 H982 0.950 . S
C960 C959 1.349 . S
C960 C972 1.349 . S
C961 C959 1.327 . S
C961 C977 1.429 . S
C961 H983 0.950 . S
C962 H958 0.949 . S
C962 C970 1.574 . S
C962 C978 1.368 . S
H963 C971 0.950 . S
H964 C969 0.950 . S
H965 C970 0.949 . S
H966 C972 0.950 1_565 S
H967 C973 0.950 1_565 S
H968 C974 0.949 . S
C969 H964 0.950 . S
C969 C971 1.327 . S
C969 C975 1.429 . S
C970 C962 1.574 . S
C970 H965 0.949 . S
C970 C976 1.368 . S
C971 C955 1.349 . S
C971 H963 0.950 . S
C971 C969 1.327 . S
C972 C960 1.349 . S
C972 H966 0.950 1_545 S
C972 C973 1.327 . S
C973 H967 0.950 1_545 S
C973 C972 1.327 . S
C973 C977 1.429 . S
C974 C957 1.574 . S
C974 H968 0.949 . S
C974 C978 1.368 . S
C975 C956 1.429 . S
C975 C969 1.429 . S
C975 C976 1.523 . S
C976 C957 1.368 . S
C976 C970 1.368 . S
C976 C975 1.523 . S
C977 C961 1.429 . S
C977 C973 1.429 . S
C977 C978 1.523 . S
C978 C962 1.368 . S
C978 C974 1.368 . S
C978 C977 1.523 . S
H979 C954 0.950 . S
H980 C956 0.950 . S
H981 C957 0.949 . S
H982 C959 0.950 . S
H983 C961 0.950 . S
C984 C985 1.349 . S
C984 C986 1.327 . S
C984 H1009 0.950 . S
C985 C984 1.349 . S
C985 C1001 1.349 . S
C986 C984 1.327 . S
C986 C1005 1.429 . S
C986 H1010 0.950 . S
C987 C1004 1.574 . S
C987 C1006 1.368 . S
C987 H1011 0.949 . S
H988 C992 0.949 . S
C989 C990 1.349 . S
C989 C991 1.327 . S
C989 H1012 0.950 . S
C990 C989 1.349 . S
C990 C1002 1.349 . S
C991 C989 1.327 . S
C991 C1007 1.429 . S
C991 H1013 0.950 . S
C992 H988 0.949 . S
C992 C1000 1.574 . S
C992 C1008 1.368 . S
H993 C1001 0.950 . S
H994 C999 0.950 . S
H995 C1000 0.949 . S
H996 C1002 0.950 . S
H997 C1003 0.950 . S
H998 C1004 0.949 . S
C999 H994 0.950 . S
C999 C1001 1.327 . S
C999 C1005 1.429 . S
C1000 C992 1.574 . S
C1000 H995 0.949 . S
C1000 C1006 1.368 . S
C1001 C985 1.349 . S
C1001 H993 0.950 . S
C1001 C999 1.327 . S
C1002 C990 1.349 . S
C1002 H996 0.950 . S
C1002 C1003 1.327 . S
C1003 H997 0.950 . S
C1003 C1002 1.327 . S
C1003 C1007 1.429 . S
C1004 C987 1.574 . S
C1004 H998 0.949 . S
C1004 C1008 1.368 . S
C1005 C986 1.429 . S
C1005 C999 1.429 . S
C1005 C1006 1.523 . S
C1006 C987 1.368 . S
C1006 C1000 1.368 . S
C1006 C1005 1.523 . S
C1007 C991 1.429 . S
C1007 C1003 1.429 . S
C1007 C1008 1.523 . S
C1008 C992 1.368 . S
C1008 C1004 1.368 . S
C1008 C1007 1.523 . S
H1009 C984 0.950 . S
H1010 C986 0.950 . S
H1011 C987 0.949 . S
H1012 C989 0.950 . S
H1013 C991 0.950 . S
C1014 C1015 1.349 . S
C1014 C1016 1.327 . S
C1014 H1039 0.950 . S
C1015 C1014 1.349 . S
C1015 C1031 1.349 . S
C1016 C1014 1.327 . S
C1016 C1035 1.429 . S
C1016 H1040 0.950 . S
C1017 C1034 1.574 . S
C1017 C1036 1.368 . S
C1017 H1041 0.949 . S
H1018 C1022 0.949 . S
C1019 C1020 1.349 . S
C1019 C1021 1.327 . S
C1019 H1042 0.950 . S
C1020 C1019 1.349 . S
C1020 C1032 1.349 . S
C1021 C1019 1.327 . S
C1021 C1037 1.429 . S
C1021 H1043 0.950 . S
C1022 H1018 0.949 . S
C1022 C1030 1.574 . S
C1022 C1038 1.368 . S
H1023 C1031 0.950 . S
H1024 C1029 0.950 . S
H1025 C1030 0.949 . S
H1026 C1032 0.950 . S
H1027 C1033 0.950 . S
H1028 C1034 0.949 . S
C1029 H1024 0.950 . S
C1029 C1031 1.327 . S
C1029 C1035 1.429 . S
C1030 C1022 1.574 . S
C1030 H1025 0.949 . S
C1030 C1036 1.368 . S
C1031 C1015 1.349 . S
C1031 H1023 0.950 . S
C1031 C1029 1.327 . S
C1032 C1020 1.349 . S
C1032 H1026 0.950 . S
C1032 C1033 1.327 . S
C1033 H1027 0.950 . S
C1033 C1032 1.327 . S
C1033 C1037 1.429 . S
C1034 C1017 1.574 . S
C1034 H1028 0.949 . S
C1034 C1038 1.368 . S
C1035 C1016 1.429 . S
C1035 C1029 1.429 . S
C1035 C1036 1.523 . S
C1036 C1017 1.368 . S
C1036 C1030 1.368 . S
C1036 C1035 1.523 . S
C1037 C1021 1.429 . S
C1037 C1033 1.429 . S
C1037 C1038 1.523 . S
C1038 C1022 1.368 . S
C1038 C1034 1.368 . S
C1038 C1037 1.523 . S
H1039 C1014 0.950 . S
H1040 C1016 0.950 . S
H1041 C1017 0.949 . S
H1042 C1019 0.950 . S
H1043 C1021 0.950 . S
C1044 C1045 1.349 . S
C1044 C1046 1.327 . S
C1044 H1069 0.950 . S
C1045 C1044 1.349 . S
C1045 C1061 1.349 1_556 S
C1046 C1044 1.327 . S
C1046 C1065 1.429 . S
C1046 H1070 0.950 . S
C1047 C1064 1.574 . S
C1047 C1066 1.368 1_554 S
C1047 H1071 0.949 . S
H1048 C1052 0.949 . S
C1049 C1050 1.349 . S
C1049 C1051 1.327 . S
C1049 H1072 0.950 . S
C1050 C1049 1.349 . S
C1050 C1062 1.349 1_554 S
C1051 C1049 1.327 . S
C1051 C1067 1.429 . S
C1051 H1073 0.950 . S
C1052 H1048 0.949 . S
C1052 C1060 1.574 . S
C1052 C1068 1.368 1_556 S
H1053 C1061 0.950 . S
H1054 C1059 0.950 . S
H1055 C1060 0.949 . S
H1056 C1062 0.950 . S
H1057 C1063 0.950 . S
H1058 C1064 0.949 . S
C1059 H1054 0.950 . S
C1059 C1061 1.327 . S
C1059 C1065 1.429 1_554 S
C1060 C1052 1.574 . S
C1060 H1055 0.949 . S
C1060 C1066 1.368 . S
C1061 C1045 1.349 1_554 S
C1061 H1053 0.950 . S
C1061 C1059 1.327 . S
C1062 C1050 1.349 1_556 S
C1062 H1056 0.950 . S
C1062 C1063 1.327 . S
C1063 H1057 0.950 . S
C1063 C1062 1.327 . S
C1063 C1067 1.429 1_556 S
C1064 C1047 1.574 . S
C1064 H1058 0.949 . S
C1064 C1068 1.368 . S
C1065 C1046 1.429 . S
C1065 C1059 1.429 1_556 S
C1065 C1066 1.523 . S
C1066 C1047 1.368 1_556 S
C1066 C1060 1.368 . S
C1066 C1065 1.523 . S
C1067 C1051 1.429 . S
C1067 C1063 1.429 1_554 S
C1067 C1068 1.523 . S
C1068 C1052 1.368 1_554 S
C1068 C1064 1.368 . S
C1068 C1067 1.523 . S
H1069 C1044 0.950 . S
H1070 C1046 0.950 . S
H1071 C1047 0.949 . S
H1072 C1049 0.950 . S
H1073 C1051 0.950 . S
C1074 C1075 1.349 . S
C1074 C1076 1.327 . S
C1074 H1099 0.950 . S
C1075 C1074 1.349 . S
C1075 C1091 1.349 . S
C1076 C1074 1.327 . S
C1076 C1095 1.429 . S
C1076 H1100 0.950 . S
C1077 C1094 1.574 . S
C1077 C1096 1.368 . S
C1077 H1101 0.949 . S
H1078 C1082 0.949 . S
C1079 C1080 1.349 . S
C1079 C1081 1.327 . S
C1079 H1102 0.950 . S
C1080 C1079 1.349 . S
C1080 C1092 1.349 . S
C1081 C1079 1.327 . S
C1081 C1097 1.429 . S
C1081 H1103 0.950 . S
C1082 H1078 0.949 . S
C1082 C1090 1.574 . S
C1082 C1098 1.368 . S
H1083 C1091 0.950 . S
H1084 C1089 0.950 . S
H1085 C1090 0.949 . S
H1086 C1092 0.950 . S
H1087 C1093 0.950 . S
H1088 C1094 0.949 . S
C1089 H1084 0.950 . S
C1089 C1091 1.327 . S
C1089 C1095 1.429 . S
C1090 C1082 1.574 . S
C1090 H1085 0.949 . S
C1090 C1096 1.368 . S
C1091 C1075 1.349 . S
C1091 H1083 0.950 . S
C1091 C1089 1.327 . S
C1092 C1080 1.349 . S
C1092 H1086 0.950 . S
C1092 C1093 1.327 . S
C1093 H1087 0.950 . S
C1093 C1092 1.327 . S
C1093 C1097 1.429 . S
C1094 C1077 1.574 . S
C1094 H1088 0.949 . S
C1094 C1098 1.368 . S
C1095 C1076 1.429 . S
C1095 C1089 1.429 . S
C1095 C1096 1.523 . S
C1096 C1077 1.368 . S
C1096 C1090 1.368 . S
C1096 C1095 1.523 . S
C1097 C1081 1.429 . S
C1097 C1093 1.429 . S
C1097 C1098 1.523 . S
C1098 C1082 1.368 . S
C1098 C1094 1.368 . S
C1098 C1097 1.523 . S
H1099 C1074 0.950 . S
H1100 C1076 0.950 . S
H1101 C1077 0.949 . S
H1102 C1079 0.950 . S
H1103 C1081 0.950 . S
C1104 C1105 1.349 . S
C1104 C1106 1.327 . S
C1104 H1129 0.950 . S
C1105 C1104 1.349 . S
C1105 C1121 1.349 . S
C1106 C1104 1.327 . S
C1106 C1125 1.429 . S
C1106 H1130 0.950 . S
C1107 C1124 1.574 . S
C1107 C1126 1.368 . S
C1107 H1131 0.949 . S
H1108 C1112 0.949 . S
C1109 C1110 1.349 . S
C1109 C1111 1.327 . S
C1109 H1132 0.950 . S
C1110 C1109 1.349 . S
C1110 C1122 1.349 . S
C1111 C1109 1.327 . S
C1111 C1127 1.429 . S
C1111 H1133 0.950 . S
C1112 H1108 0.949 . S
C1112 C1120 1.574 . S
C1112 C1128 1.368 . S
H1113 C1121 0.950 . S
H1114 C1119 0.950 . S
H1115 C1120 0.949 . S
H1116 C1122 0.950 1_556 S
H1117 C1123 0.950 1_556 S
H1118 C1124 0.949 . S
C1119 H1114 0.950 . S
C1119 C1121 1.327 . S
C1119 C1125 1.429 . S
C1120 C1112 1.574 . S
C1120 H1115 0.949 . S
C1120 C1126 1.368 . S
C1121 C1105 1.349 . S
C1121 H1113 0.950 . S
C1121 C1119 1.327 . S
C1122 C1110 1.349 . S
C1122 H1116 0.950 1_554 S
C1122 C1123 1.327 . S
C1123 H1117 0.950 1_554 S
C1123 C1122 1.327 . S
C1123 C1127 1.429 . S
C1124 C1107 1.574 . S
C1124 H1118 0.949 . S
C1124 C1128 1.368 . S
C1125 C1106 1.429 . S
C1125 C1119 1.429 . S
C1125 C1126 1.523 . S
C1126 C1107 1.368 . S
C1126 C1120 1.368 . S
C1126 C1125 1.523 . S
C1127 C1111 1.429 . S
C1127 C1123 1.429 . S
C1127 C1128 1.523 . S
C1128 C1112 1.368 . S
C1128 C1124 1.368 . S
C1128 C1127 1.523 . S
H1129 C1104 0.950 . S
H1130 C1106 0.950 . S
H1131 C1107 0.949 . S
H1132 C1109 0.950 . S
H1133 C1111 0.950 . S
C1134 C1135 1.349 . S
C1134 C1136 1.327 . S
C1134 H1159 0.950 . S
C1135 C1134 1.349 . S
C1135 C1151 1.349 . S
C1136 C1134 1.327 . S
C1136 C1155 1.429 . S
C1136 H1160 0.950 . S
C1137 C1154 1.574 . S
C1137 C1156 1.368 . S
C1137 H1161 0.949 . S
H1138 C1142 0.949 . S
C1139 C1140 1.349 . S
C1139 C1141 1.327 . S
C1139 H1162 0.950 . S
C1140 C1139 1.349 . S
C1140 C1152 1.349 . S
C1141 C1139 1.327 . S
C1141 C1157 1.429 . S
C1141 H1163 0.950 . S
C1142 H1138 0.949 . S
C1142 C1150 1.574 . S
C1142 C1158 1.368 . S
H1143 C1151 0.950 . S
H1144 C1149 0.950 . S
H1145 C1150 0.949 . S
H1146 C1152 0.950 . S
H1147 C1153 0.950 . S
H1148 C1154 0.949 . S
C1149 H1144 0.950 . S
C1149 C1151 1.327 . S
C1149 C1155 1.429 . S
C1150 C1142 1.574 . S
C1150 H1145 0.949 . S
C1150 C1156 1.368 . S
C1151 C1135 1.349 . S
C1151 H1143 0.950 . S
C1151 C1149 1.327 . S
C1152 C1140 1.349 . S
C1152 H1146 0.950 . S
C1152 C1153 1.327 . S
C1153 H1147 0.950 . S
C1153 C1152 1.327 . S
C1153 C1157 1.429 . S
C1154 C1137 1.574 . S
C1154 H1148 0.949 . S
C1154 C1158 1.368 . S
C1155 C1136 1.429 . S
C1155 C1149 1.429 . S
C1155 C1156 1.523 . S
C1156 C1137 1.368 . S
C1156 C1150 1.368 . S
C1156 C1155 1.523 . S
C1157 C1141 1.429 . S
C1157 C1153 1.429 . S
C1157 C1158 1.523 . S
C1158 C1142 1.368 . S
C1158 C1154 1.368 . S
C1158 C1157 1.523 . S
H1159 C1134 0.950 . S
H1160 C1136 0.950 . S
H1161 C1137 0.949 . S
H1162 C1139 0.950 . S
H1163 C1141 0.950 . S
C1164 C1165 1.376 . S
C1164 C1166 1.320 1_655 S
C1164 H1189 0.931 1_655 S
C1165 C1164 1.376 . S
C1165 C1181 1.349 . S
C1166 C1164 1.320 1_455 S
C1166 C1185 1.429 1_455 S
C1166 H1190 0.950 . S
C1167 C1184 1.574 . S
C1167 C1186 1.368 1_554 S
C1167 H1191 0.949 . S
H1168 C1172 0.949 . S
C1169 C1170 1.358 1_554 S
C1169 C1171 1.325 1_455 S
C1169 H1192 0.943 1_455 S
C1170 C1169 1.358 1_556 S
C1170 C1182 1.349 . S
C1171 C1169 1.325 1_655 S
C1171 C1187 1.429 1_654 S
C1171 H1193 0.950 . S
C1172 H1168 0.949 . S
C1172 C1180 1.574 . S
C1172 C1188 1.368 . S
H1173 C1181 0.950 1_554 S
H1174 C1179 0.950 1_554 S
H1175 C1180 0.949 . S
H1176 C1182 0.950 . S
H1177 C1183 0.950 . S
H1178 C1184 0.949 . S
C1179 H1174 0.950 1_556 S
C1179 C1181 1.327 . S
C1179 C1185 1.429 . S
C1180 C1172 1.574 . S
C1180 H1175 0.949 . S
C1180 C1186 1.368 1_455 S
C1181 C1165 1.349 . S
C1181 H1173 0.950 1_556 S
C1181 C1179 1.327 . S
C1182 C1170 1.349 . S
C1182 H1176 0.950 . S
C1182 C1183 1.327 . S
C1183 H1177 0.950 . S
C1183 C1182 1.327 . S
C1183 C1187 1.429 . S
C1184 C1167 1.574 . S
C1184 H1178 0.949 . S
C1184 C1188 1.368 1_654 S
C1185 C1166 1.429 1_655 S
C1185 C1179 1.429 . S
C1185 C1186 1.523 . S
C1186 C1167 1.368 1_556 S
C1186 C1180 1.368 1_655 S
C1186 C1185 1.523 . S
C1187 C1171 1.429 1_456 S
C1187 C1183 1.429 . S
C1187 C1188 1.523 . S
C1188 C1172 1.368 . S
C1188 C1184 1.368 1_456 S
C1188 C1187 1.523 . S
H1189 C1164 0.931 1_455 S
H1190 C1166 0.950 . S
H1191 C1167 0.949 . S
H1192 C1169 0.943 1_655 S
H1193 C1171 0.950 . S
C1194 C1195 1.349 . S
C1194 C1196 1.327 . S
C1194 H1219 0.950 . S
C1195 C1194 1.349 . S
C1195 C1211 1.349 . S
C1196 C1194 1.327 . S
C1196 C1215 1.429 . S
C1196 H1220 0.950 . S
C1197 C1214 1.574 . S
C1197 C1216 1.368 . S
C1197 H1221 0.949 . S
H1198 C1202 0.949 . S
C1199 C1200 1.349 . S
C1199 C1201 1.327 . S
C1199 H1222 0.950 . S
C1200 C1199 1.349 . S
C1200 C1212 1.349 . S
C1201 C1199 1.327 . S
C1201 C1217 1.429 . S
C1201 H1223 0.950 . S
C1202 H1198 0.949 . S
C1202 C1210 1.574 . S
C1202 C1218 1.368 . S
H1203 C1211 0.950 . S
H1204 C1209 0.950 . S
H1205 C1210 0.949 . S
H1206 C1212 0.950 . S
H1207 C1213 0.950 . S
H1208 C1214 0.949 . S
C1209 H1204 0.950 . S
C1209 C1211 1.327 . S
C1209 C1215 1.429 . S
C1210 C1202 1.574 . S
C1210 H1205 0.949 . S
C1210 C1216 1.368 . S
C1211 C1195 1.349 . S
C1211 H1203 0.950 . S
C1211 C1209 1.327 . S
C1212 C1200 1.349 . S
C1212 H1206 0.950 . S
C1212 C1213 1.327 . S
C1213 H1207 0.950 . S
C1213 C1212 1.327 . S
C1213 C1217 1.429 . S
C1214 C1197 1.574 . S
C1214 H1208 0.949 . S
C1214 C1218 1.368 . S
C1215 C1196 1.429 . S
C1215 C1209 1.429 . S
C1215 C1216 1.523 . S
C1216 C1197 1.368 . S
C1216 C1210 1.368 . S
C1216 C1215 1.523 . S
C1217 C1201 1.429 . S
C1217 C1213 1.429 . S
C1217 C1218 1.523 . S
C1218 C1202 1.368 . S
C1218 C1214 1.368 . S
C1218 C1217 1.523 . S
H1219 C1194 0.950 . S
H1220 C1196 0.950 . S
H1221 C1197 0.949 . S
H1222 C1199 0.950 . S
H1223 C1201 0.950 . S
C1224 C1225 1.349 . S
C1224 C1226 1.327 . S
C1224 H1249 0.950 . S
C1225 C1224 1.349 . S
C1225 C1241 1.349 . S
C1226 C1224 1.327 . S
C1226 C1245 1.429 . S
C1226 H1250 0.950 . S
C1227 C1244 1.574 . S
C1227 C1246 1.368 . S
C1227 H1251 0.949 . S
H1228 C1232 0.949 . S
C1229 C1230 1.349 . S
C1229 C1231 1.327 . S
C1229 H1252 0.950 . S
C1230 C1229 1.349 . S
C1230 C1242 1.349 . S
C1231 C1229 1.327 . S
C1231 C1247 1.429 . S
C1231 H1253 0.950 . S
C1232 H1228 0.949 . S
C1232 C1240 1.574 . S
C1232 C1248 1.368 . S
H1233 C1241 0.950 . S
H1234 C1239 0.950 . S
H1235 C1240 0.949 . S
H1236 C1242 0.950 . S
H1237 C1243 0.950 . S
H1238 C1244 0.949 . S
C1239 H1234 0.950 . S
C1239 C1241 1.327 . S
C1239 C1245 1.429 . S
C1240 C1232 1.574 . S
C1240 H1235 0.949 . S
C1240 C1246 1.368 . S
C1241 C1225 1.349 . S
C1241 H1233 0.950 . S
C1241 C1239 1.327 . S
C1242 C1230 1.349 . S
C1242 H1236 0.950 . S
C1242 C1243 1.327 . S
C1243 H1237 0.950 . S
C1243 C1242 1.327 . S
C1243 C1247 1.429 . S
C1244 C1227 1.574 . S
C1244 H1238 0.949 . S
C1244 C1248 1.368 . S
C1245 C1226 1.429 . S
C1245 C1239 1.429 . S
C1245 C1246 1.523 . S
C1246 C1227 1.368 . S
C1246 C1240 1.368 . S
C1246 C1245 1.523 . S
C1247 C1231 1.429 . S
C1247 C1243 1.429 . S
C1247 C1248 1.523 . S
C1248 C1232 1.368 . S
C1248 C1244 1.368 . S
C1248 C1247 1.523 . S
H1249 C1224 0.950 . S
H1250 C1226 0.950 . S
H1251 C1227 0.949 . S
H1252 C1229 0.950 . S
H1253 C1231 0.950 . S
C1254 C1255 1.349 . S
C1254 C1256 1.327 . S
C1254 H1279 0.950 . S
C1255 C1254 1.349 . S
C1255 C1271 1.349 . S
C1256 C1254 1.327 . S
C1256 C1275 1.429 . S
C1256 H1280 0.950 . S
C1257 C1274 1.574 . S
C1257 C1276 1.368 . S
C1257 H1281 0.949 . S
H1258 C1262 0.949 . S
C1259 C1260 1.349 . S
C1259 C1261 1.327 . S
C1259 H1282 0.950 . S
C1260 C1259 1.349 . S
C1260 C1272 1.349 . S
C1261 C1259 1.327 . S
C1261 C1277 1.429 . S
C1261 H1283 0.950 . S
C1262 H1258 0.949 . S
C1262 C1270 1.574 . S
C1262 C1278 1.368 . S
H1263 C1271 0.950 . S
H1264 C1269 0.950 . S
H1265 C1270 0.949 . S
H1266 C1272 0.950 . S
H1267 C1273 0.950 . S
H1268 C1274 0.949 . S
C1269 H1264 0.950 . S
C1269 C1271 1.327 . S
C1269 C1275 1.429 . S
C1270 C1262 1.574 . S
C1270 H1265 0.949 . S
C1270 C1276 1.368 . S
C1271 C1255 1.349 . S
C1271 H1263 0.950 . S
C1271 C1269 1.327 . S
C1272 C1260 1.349 . S
C1272 H1266 0.950 . S
C1272 C1273 1.327 . S
C1273 H1267 0.950 . S
C1273 C1272 1.327 . S
C1273 C1277 1.429 . S
C1274 C1257 1.574 . S
C1274 H1268 0.949 . S
C1274 C1278 1.368 . S
C1275 C1256 1.429 . S
C1275 C1269 1.429 . S
C1275 C1276 1.523 . S
C1276 C1257 1.368 . S
C1276 C1270 1.368 . S
C1276 C1275 1.523 . S
C1277 C1261 1.429 . S
C1277 C1273 1.429 . S
C1277 C1278 1.523 . S
C1278 C1262 1.368 . S
C1278 C1274 1.368 . S
C1278 C1277 1.523 . S
H1279 C1254 0.950 . S
H1280 C1256 0.950 . S
H1281 C1257 0.949 . S
H1282 C1259 0.950 . S
H1283 C1261 0.950 . S
C565 C1 1.515 . S
C570 C483 1.429 . S
C595 C80 1.491 . S
C600 C517 1.406 . S
C630 C529 1.397 . S
C625 C140 1.482 . S
C655 C211 1.497 . S
C660 C563 1.424 . S
C690 C520 1.420 . S
C685 C31 1.509 . S
C720 C500 1.401 . S
C715 C61 1.490 . S
C750 C547 1.387 . S
C745 C151 1.472 . S
C780 C538 1.415 . S
C775 C200 1.499 . S
C805 C20 1.512 . S
C810 C546 1.426 . S
C840 C508 1.398 . S
C835 C121 1.485 . S
C865 C181 1.492 . S
C870 C484 1.398 . S
C895 C91 1.498 . S
C900 C541 1.410 . S
C930 C499 1.602 . S
C925 C260 1.707 . S
C955 C320 1.634 . S
C960 C521 1.598 . S
C985 C361 1.732 . S
C990 C526 1.622 . S
C1015 C451 1.665 . S
C1020 C559 1.636 . S
C1045 C271 1.719 . S
C1050 C504 1.619 . S
C1080 C496 1.631 . S
C1075 C301 1.662 . S
C1110 C550 1.626 . S
C1105 C380 1.736 . S
C1140 C542 1.606 . S
C1135 C440 1.641 . S
C1165 C241 1.690 . S
C1170 C562 1.589 . S
C1200 C505 1.625 . S
C1195 C391 1.734 . S
C1230 C487 1.600 . S
C1225 C421 1.641 . S
C1255 C331 1.643 . S
C1260 C525 1.613 . S
