# Generated by pormake.
# Topology pth, (4,4)-cn, num edge types: 1
# Building blocks:
#     Node 0, Type 0, BuildingBlock: KUFVIS_clean_sbu_0, # of connection points: 4
#     Node 1, Type 0, BuildingBlock: KUFVIS_clean_sbu_0, # of connection points: 4
#     Node 2, Type 0, BuildingBlock: KUFVIS_clean_sbu_0, # of connection points: 4
#     Node 3, Type 1, BuildingBlock: NAWXER_clean_linker_0, # of connection points: 4
#     Node 4, Type 1, BuildingBlock: NAWXER_clean_linker_0, # of connection points: 4
#     Node 5, Type 1, BuildingBlock: NAWXER_clean_linker_0, # of connection points: 4
#     Edge 6, Type (0, 1), BuildingBlock: MIFKUJ_clean_linker_0, # of connection points: 2
#     Edge 7, Type (0, 1), BuildingBlock: MIFKUJ_clean_linker_0, # of connection points: 2
#     Edge 8, Type (0, 1), BuildingBlock: MIFKUJ_clean_linker_0, # of connection points: 2
#     Edge 9, Type (0, 1), BuildingBlock: MIFKUJ_clean_linker_0, # of connection points: 2
#     Edge 10, Type (0, 1), BuildingBlock: MIFKUJ_clean_linker_0, # of connection points: 2
#     Edge 11, Type (0, 1), BuildingBlock: MIFKUJ_clean_linker_0, # of connection points: 2
#     Edge 12, Type (0, 1), BuildingBlock: MIFKUJ_clean_linker_0, # of connection points: 2
#     Edge 13, Type (0, 1), BuildingBlock: MIFKUJ_clean_linker_0, # of connection points: 2
#     Edge 14, Type (0, 1), BuildingBlock: MIFKUJ_clean_linker_0, # of connection points: 2
#     Edge 15, Type (0, 1), BuildingBlock: MIFKUJ_clean_linker_0, # of connection points: 2
#     Edge 16, Type (0, 1), BuildingBlock: MIFKUJ_clean_linker_0, # of connection points: 2
#     Edge 17, Type (0, 1), BuildingBlock: MIFKUJ_clean_linker_0, # of connection points: 2
# Relax obj value: 0.011
# Max RMSD: 0.077
# Mean RMSD: 0.050
data_MOF--net-pth--node1-KUFVIS_clean_sbu_0--node2-NAWXER_clean_linker_0--edge1-MIFKUJ_clean_linker_0
_symmetry_space_group_name_H-M    P1
_symmetry_Int_Tables_number       1
_symmetry_cell_setting            triclinic
loop_
_symmetry_equiv_pos_as_xyz
'x, y, z'
_cell_length_a     35.746225
_cell_length_b     35.846636
_cell_length_c     82.555755
_cell_angle_alpha  90.370806
_cell_angle_beta   91.74406
_cell_angle_gamma 120.24288
loop_
_atom_site_label
_atom_site_type_symbol
_atom_site_fract_x
_atom_site_fract_y
_atom_site_fract_z
_atom_type_partial_charge
Mn0 Mn 0.03903 0.05953 0.05074 0.0
Mn1 Mn 0.97902 0.09243 0.02955 0.0
C2 C 0.99557 0.01863 0.02883 0.0
C3 C 0.04606 0.02186 0.07245 0.0
C4 C 0.0755 0.13054 0.02552 0.0
O5 O 0.03996 0.10506 0.0658 0.0
O6 O 0.99731 0.12278 0.05113 0.0
C7 C 0.90301 0.05457 0.05032 0.0
N8 N 0.92006 0.05831 0.03549 0.0
C9 C 0.84984 0.00909 0.02327 0.0
C10 C 0.83148 0.00492 0.0384 0.0
C11 C 0.85821 0.02767 0.05199 0.0
C12 C 0.89469 0.0363 0.02236 0.0
H13 H 0.92347 0.07191 0.0608 0.0
C14 C 0.0206 0.1265 0.06384 0.0
O15 O 0.07994 0.05236 0.06568 0.0
O16 O 0.00852 0.01415 0.06683 0.0
N17 N 0.95874 0.06597 0.00847 0.0
C18 C 0.98165 0.07286 0.99482 0.0
C19 C 0.9597 0.05281 0.9801 0.0
C20 C 0.91445 0.02607 0.97955 0.0
C21 C 0.89153 0.01947 0.99374 0.0
C22 C 0.9151 0.04084 0.008 0.0
H23 H 0.01642 0.09331 0.99516 0.0
O24 O 0.02756 0.01403 0.03405 0.0
O25 O 0.98951 0.04648 0.03676 0.0
O26 O 0.08092 0.10705 0.03583 0.0
O27 O 0.03896 0.12793 0.02242 0.0
C28 C 0.84627 0.9924 0.99431 0.0
C29 C 0.82547 0.98702 0.00909 0.0
H30 H 0.79696 0.98418 0.03974 0.0
H31 H 0.84431 0.02447 0.06372 0.0
H32 H 0.97763 0.05795 0.96921 0.0
H33 H 0.89768 0.01083 0.96815 0.0
H34 H 0.82719 0.97526 0.98349 0.0
H35 H 0.79072 0.96576 0.00941 0.0
Mn36 Mn 0.01012 0.04984 0.38182 0.0
Mn37 Mn 0.07326 0.14317 0.40284 0.0
C38 C 0.053 0.05146 0.40367 0.0
C39 C 0.00164 0.00434 0.35995 0.0
C40 C 0.97589 0.08801 0.40652 0.0
O41 O 0.0107 0.09516 0.36693 0.0
O42 O 0.05864 0.15584 0.38085 0.0
C43 C 0.15126 0.17725 0.38321 0.0
N44 N 0.13247 0.1651 0.39781 0.0
C45 C 0.20055 0.18315 0.41112 0.0
C46 C 0.22071 0.19621 0.39625 0.0
C47 C 0.19592 0.19312 0.38223 0.0
C48 C 0.15595 0.1676 0.41135 0.0
H49 H 0.13228 0.17472 0.3724 0.0
C50 C 0.03384 0.1362 0.3684 0.0
O51 O 0.96821 0.00176 0.36684 0.0
O52 O 0.03953 0.03378 0.36556 0.0
N53 N 0.09034 0.13606 0.42428 0.0
C54 C 0.06572 0.12075 0.43756 0.0
C55 C 0.08556 0.12138 0.45258 0.0
C56 C 0.13049 0.13793 0.45383 0.0
C57 C 0.15521 0.15365 0.44002 0.0
C58 C 0.13372 0.15268 0.42541 0.0
H59 H 0.03119 0.10799 0.43671 0.0
O60 O 0.02034 0.01511 0.39838 0.0
O61 O 0.06007 0.08553 0.3958 0.0
O62 O 0.9695 0.05719 0.39685 0.0
O63 O 0.01296 0.12194 0.40914 0.0
C64 C 0.20025 0.16992 0.44014 0.0
C65 C 0.22286 0.18444 0.42568 0.0
H66 H 0.25513 0.20838 0.39544 0.0
H67 H 0.2112 0.2029 0.3707 0.0
H68 H 0.06624 0.10909 0.46318 0.0
H69 H 0.14562 0.13831 0.46544 0.0
H70 H 0.21776 0.17101 0.45124 0.0
H71 H 0.25738 0.19635 0.42589 0.0
Mn72 Mn 0.03308 0.05319 0.71611 0.0
Mn73 Mn 0.99844 0.10982 0.73751 0.0
C74 C 0.07176 0.09229 0.73914 0.0
C75 C 0.07344 0.04974 0.69508 0.0
C76 C 0.9577 0.01247 0.73904 0.0
O77 O 0.9896 0.05625 0.7004 0.0
O78 O 0.97238 0.09829 0.71511 0.0
C79 C 0.04203 0.19142 0.71966 0.0
N80 N 0.03499 0.17004 0.73383 0.0
C81 C 0.08333 0.23591 0.7487 0.0
C82 C 0.09089 0.2587 0.73428 0.0
C83 C 0.07022 0.23632 0.7197 0.0
C84 C 0.05487 0.1912 0.74792 0.0
H85 H 0.02632 0.17429 0.70842 0.0
C86 C 0.96942 0.0769 0.70215 0.0
O87 O 0.04122 0.01487 0.70063 0.0
O88 O 0.08119 0.08628 0.70136 0.0
N89 N 0.02113 0.12336 0.75941 0.0
C90 C 0.01137 0.0964 0.77215 0.0
C91 C 0.02967 0.11361 0.78762 0.0
C92 C 0.05755 0.15834 0.78985 0.0
C93 C 0.0668 0.18548 0.77659 0.0
C94 C 0.0472 0.16653 0.76149 0.0
H95 H 0.98981 0.06201 0.77054 0.0
O96 O 0.07657 0.06103 0.73365 0.0
O97 O 0.04484 0.09984 0.7309 0.0
O98 O 0.98345 0.00882 0.72962 0.0
O99 O 0.95994 0.04843 0.74235 0.0
C100 C 0.09501 0.23054 0.77771 0.0
C101 C 0.10341 0.25571 0.76377 0.0
H102 H 0.11273 0.29331 0.73424 0.0
H103 H 0.07607 0.25366 0.70851 0.0
H104 H 0.0223 0.09247 0.7978 0.0
H105 H 0.07172 0.17145 0.80179 0.0
H106 H 0.1108 0.2461 0.78921 0.0
H107 H 0.1256 0.29023 0.76475 0.0
C108 C 0.9959 0.41935 0.2392 0.0
C109 C 0.02198 0.43053 0.25355 0.0
C110 C 0.99543 0.4513 0.2297 0.0
C111 C 0.02185 0.49523 0.2341 0.0
C112 C 0.04745 0.4745 0.25812 0.0
C113 C 0.04739 0.50638 0.24851 0.0
C114 C 0.02181 0.52988 0.22435 0.0
C115 C 0.06528 0.46084 0.19027 0.0
C116 C 0.03517 0.43902 0.17732 0.0
C117 C 0.06155 0.4906 0.20014 0.0
C118 C 0.02763 0.49905 0.19728 0.0
C119 C 0.00121 0.44765 0.17457 0.0
C120 C 0.99778 0.47765 0.18434 0.0
C121 C 0.0238 0.53124 0.20727 0.0
C122 C 0.06194 0.71102 0.19355 0.0
C123 C 0.03557 0.70352 0.17952 0.0
C124 C 0.05749 0.6765 0.20275 0.0
C125 C 0.02638 0.63381 0.19817 0.0
C126 C 0.00482 0.6607 0.17485 0.0
C127 C 1.00052 0.62619 0.18403 0.0
C128 C 0.02206 0.59696 0.20762 0.0
C129 C 0.97894 0.66913 0.23937 0.0
C130 C 0.00339 0.68593 0.25397 0.0
C131 C 0.98369 0.63948 0.22985 0.0
C132 C 0.01364 0.62672 0.23456 0.0
C133 C 0.03262 0.67239 0.25884 0.0
C134 C 0.03759 0.64301 0.24925 0.0
C135 C 0.01888 0.59506 0.22466 0.0
H136 H 0.97594 0.38591 0.23524 0.0
H137 H 0.97407 0.44151 0.219 0.0
H138 H 0.06707 0.48444 0.26927 0.0
H139 H 0.06749 0.53994 0.25235 0.0
H140 H 0.09225 0.45563 0.19259 0.0
H141 H 0.08545 0.50742 0.20988 0.0
H142 H 0.97695 0.43097 0.16494 0.0
H143 H 0.97143 0.4838 0.18191 0.0
H144 H 0.08579 0.74361 0.1975 0.0
H145 H 0.07859 0.68318 0.21339 0.0
H146 H 0.9845 0.65383 0.16397 0.0
H147 H 0.97673 0.5935 0.18014 0.0
H148 H 0.9556 0.67835 0.23545 0.0
H149 H 0.96358 0.62623 0.21888 0.0
H150 H 0.05216 0.685 0.26997 0.0
H151 H 0.06058 0.63337 0.25324 0.0
N152 N 0.01942 0.56188 0.23234 0.0
N153 N 0.02379 0.56468 0.19959 0.0
C154 C 0.65153 0.08833 0.51981 0.0
C155 C 0.6412 0.05347 0.50906 0.0
C156 C 0.62047 0.08724 0.52999 0.0
C157 C 0.57829 0.05146 0.52956 0.0
C158 C 0.59884 0.01753 0.50881 0.0
C159 C 0.56762 0.01682 0.51881 0.0
C160 C 0.54468 0.05096 0.53971 0.0
C161 C 0.63372 0.03169 0.57389 0.0
C162 C 0.65607 0.06515 0.58558 0.0
C163 C 0.5997 0.02949 0.5643 0.0
C164 C 0.58742 0.0608 0.56613 0.0
C165 C 0.64385 0.09664 0.58726 0.0
C166 C 0.60966 0.09425 0.57773 0.0
C167 C 0.54986 0.05741 0.55671 0.0
C168 C 0.37311 0.0147 0.57658 0.0
C169 C 0.38247 0.04958 0.58718 0.0
C170 C 0.40504 0.01596 0.56684 0.0
C171 C 0.44715 0.05191 0.56757 0.0
C172 C 0.42489 0.0855 0.58784 0.0
C173 C 0.45696 0.08637 0.5783 0.0
C174 C 0.48119 0.05336 0.55739 0.0
C175 C 0.39037 0.0719 0.52409 0.0
C176 C 0.37242 0.04275 0.51082 0.0
C177 C 0.4239 0.07346 0.53378 0.0
C178 C 0.43924 0.04494 0.5307 0.0
C179 C 0.38814 0.01472 0.50756 0.0
C180 C 0.42116 0.01576 0.51742 0.0
C181 C 0.47629 0.04753 0.54033 0.0
H182 H 0.68337 0.117 0.52015 0.0
H183 H 0.62913 0.11475 0.53797 0.0
H184 H 0.58971 0.98972 0.50096 0.0
H185 H 0.53518 0.98895 0.51827 0.0
H186 H 0.64158 0.0064 0.57247 0.0
H187 H 0.58226 0.00265 0.55575 0.0
H188 H 0.66066 0.12319 0.59597 0.0
H189 H 0.60063 0.11865 0.5794 0.0
H190 H 0.34126 0.98604 0.57595 0.0
H191 H 0.39699 0.98865 0.55884 0.0
H192 H 0.43336 0.11336 0.59557 0.0
H193 H 0.48929 0.1144 0.57904 0.0
H194 H 0.3794 0.09444 0.52666 0.0
H195 H 0.4385 0.09779 0.5434 0.0
H196 H 0.3748 0.99192 0.4974 0.0
H197 H 0.43273 0.99382 0.51463 0.0
N198 N 0.50814 0.04622 0.5322 0.0
N199 N 0.51794 0.05847 0.5649 0.0
C200 C 0.41689 0.41038 0.859 0.0
C201 C 0.3934 0.41996 0.84743 0.0
C202 C 0.45093 0.44334 0.86833 0.0
C203 C 0.46212 0.48658 0.86634 0.0
C204 C 0.40457 0.46334 0.84558 0.0
C205 C 0.43881 0.4963 0.85485 0.0
C206 C 0.49963 0.52194 0.8755 0.0
C207 C 0.39969 0.4513 0.91278 0.0
C208 C 0.41155 0.42945 0.92409 0.0
C209 C 0.42999 0.48082 0.90231 0.0
C210 C 0.47285 0.48929 0.90296 0.0
C211 C 0.45463 0.43812 0.92465 0.0
C212 C 0.48502 0.46804 0.91431 0.0
C213 C 0.50564 0.52199 0.89247 0.0
C214 C 0.65758 0.69962 0.90753 0.0
C215 C 0.67635 0.68928 0.92066 0.0
C216 C 0.62444 0.66689 0.8978 0.0
C217 C 0.61035 0.62324 0.90073 0.0
C218 C 0.66202 0.64571 0.92368 0.0
C219 C 0.6294 0.61305 0.9138 0.0
C220 C 0.57335 0.58786 0.89128 0.0
C221 C 0.67405 0.662 0.85465 0.0
C222 C 0.66105 0.68173 0.84284 0.0
C223 C 0.64386 0.63149 0.86491 0.0
C224 C 0.60012 0.62036 0.86365 0.0
C225 C 0.61712 0.66996 0.84145 0.0
C226 C 0.58697 0.63941 0.85168 0.0
C227 C 0.56751 0.58762 0.87423 0.0
H228 H 0.40985 0.37752 0.86053 0.0
H229 H 0.4692 0.43512 0.87682 0.0
H230 H 0.38684 0.47192 0.83697 0.0
H231 H 0.44702 0.52946 0.85307 0.0
H232 H 0.36718 0.4463 0.9122 0.0
H233 H 0.42014 0.49769 0.89393 0.0
H234 H 0.4649 0.42153 0.93299 0.0
H235 H 0.51802 0.47431 0.91506 0.0
H236 H 0.66756 0.73297 0.90513 0.0
H237 H 0.60917 0.6758 0.88827 0.0
H238 H 0.67608 0.63691 0.9337 0.0
H239 H 0.61881 0.57968 0.91645 0.0
H240 H 0.70766 0.67044 0.85606 0.0
H241 H 0.65465 0.61645 0.87378 0.0
H242 H 0.60591 0.68399 0.8323 0.0
H243 H 0.55332 0.6309 0.85033 0.0
N244 N 0.5307 0.55482 0.86705 0.0
N245 N 0.54227 0.55482 0.89968 0.0
H246 H 0.99593 0.18726 0.06224 0.0
H247 H 0.00573 0.24035 0.08301 0.0
H248 H 0.06646 0.19093 0.11542 0.0
H249 H 0.05687 0.13736 0.09462 0.0
H250 H 0.00492 0.20529 0.13026 0.0
H251 H 0.12903 0.28219 0.09828 0.0
H252 H 0.1689 0.30886 0.07315 0.0
H253 H 0.10125 0.37697 0.06245 0.0
H254 H 0.06044 0.35015 0.08738 0.0
H255 H 0.06115 0.38102 0.18565 0.0
H256 H 0.06677 0.32944 0.16787 0.0
H257 H 0.02196 0.37303 0.12706 0.0
H258 H 0.01895 0.42641 0.14449 0.0
H259 H 0.08461 0.36146 0.11823 0.0
H260 H 0.95438 0.27728 0.14825 0.0
H261 H 0.91355 0.25024 0.17317 0.0
H262 H 0.99207 0.19568 0.18738 0.0
H263 H 0.03367 0.2228 0.16261 0.0
C264 C 0.01132 0.18745 0.07377 0.0
C265 C 0.02576 0.15804 0.0767 0.0
C266 C 0.01706 0.21802 0.08562 0.0
C267 C 0.03725 0.21987 0.10068 0.0
C268 C 0.05095 0.1901 0.10383 0.0
C269 C 0.04554 0.15962 0.09191 0.0
C270 C 0.04371 0.25301 0.11303 0.0
C271 C 0.02301 0.23951 0.12779 0.0
C272 C 0.06685 0.29757 0.10967 0.0
C273 C 0.09143 0.31388 0.09466 0.0
C274 C 0.12238 0.30257 0.0905 0.0
C275 C 0.1452 0.31776 0.0763 0.0
C276 C 0.13757 0.34455 0.06621 0.0
C277 C 0.10712 0.35621 0.07029 0.0
C278 C 0.08417 0.34106 0.08446 0.0
C279 C 0.05311 0.38012 0.17285 0.0
C280 C 0.03923 0.40776 0.16657 0.0
C281 C 0.05585 0.35019 0.16272 0.0
C282 C 0.04407 0.34676 0.14615 0.0
C283 C 0.03103 0.37485 0.13981 0.0
C284 C 0.02879 0.40506 0.14987 0.0
C285 C 0.04469 0.31376 0.13531 0.0
C286 C 0.06689 0.3273 0.12083 0.0
C287 C 0.02278 0.26924 0.1389 0.0
C288 C 0.99741 0.25245 0.15367 0.0
C289 C 0.96308 0.25971 0.15673 0.0
C290 C 0.93978 0.24435 0.17082 0.0
C291 C 0.95029 0.22137 0.18188 0.0
C292 C 0.98401 0.21354 0.17882 0.0
C293 C 0.00742 0.22886 0.16476 0.0
H294 H 0.93227 0.20956 0.19279 0.0
H295 H 0.15533 0.35637 0.05524 0.0
H296 H 0.97942 0.1362 0.43295 0.0
H297 H 0.91971 0.12682 0.44928 0.0
H298 H 0.82906 0.02186 0.4176 0.0
H299 H 0.88891 0.03028 0.40123 0.0
H300 H 0.80614 0.08892 0.42704 0.0
H301 H 0.84974 0.99206 0.4498 0.0
H302 H 0.90365 0.97424 0.46075 0.0
H303 H 0.93987 0.06932 0.49902 0.0
H304 H 0.88662 0.0882 0.48813 0.0
H305 H 0.62857 0.02004 0.47794 0.0
H306 H 0.68247 0.02216 0.46006 0.0
H307 H 0.78315 0.09503 0.49655 0.0
H308 H 0.72903 0.08994 0.51503 0.0
H309 H 0.79934 0.04055 0.48362 0.0
H310 H 0.76233 0.14165 0.46174 0.0
H311 H 0.71427 0.16713 0.45092 0.0
H312 H 0.67176 0.07395 0.41162 0.0
H313 H 0.71919 0.04753 0.42233 0.0
C314 C 0.94685 0.11114 0.42935 0.0
C315 C 0.93907 0.08376 0.41581 0.0
C316 C 0.91277 0.10587 0.43873 0.0
C317 C 0.87014 0.07353 0.43467 0.0
C318 C 0.86186 0.04697 0.4209 0.0
C319 C 0.89609 0.05176 0.41162 0.0
C320 C 0.83459 0.06698 0.44517 0.0
C321 C 0.80403 0.07764 0.43933 0.0
C322 C 0.83298 0.05365 0.46134 0.0
C323 C 0.86445 0.04179 0.46807 0.0
C324 C 0.86942 0.00939 0.46048 0.0
C325 C 0.89983 0.99907 0.46669 0.0
C326 C 0.92524 0.02071 0.48055 0.0
C327 C 0.92019 0.05261 0.48827 0.0
C328 C 0.88987 0.06311 0.4821 0.0
C329 C 0.66203 0.03588 0.48234 0.0
C330 C 0.67422 0.05492 0.49801 0.0
C331 C 0.69302 0.03769 0.47194 0.0
C332 C 0.73714 0.05954 0.47678 0.0
C333 C 0.74939 0.07817 0.49246 0.0
C334 C 0.71834 0.0757 0.50297 0.0
C335 C 0.77055 0.06279 0.4656 0.0
C336 C 0.80093 0.05157 0.47131 0.0
C337 C 0.77251 0.0765 0.4494 0.0
C338 C 0.74395 0.0923 0.44293 0.0
C339 C 0.74248 0.12637 0.45086 0.0
C340 C 0.7154 0.14102 0.44474 0.0
C341 C 0.68988 0.12208 0.43062 0.0
C342 C 0.69149 0.08853 0.42257 0.0
C343 C 0.71849 0.07373 0.42865 0.0
H344 H 0.66894 0.13348 0.4259 0.0
H345 H 0.94879 0.01269 0.48533 0.0
H346 H 0.88634 0.00259 0.75394 0.0
H347 H 0.83696 0.94298 0.77046 0.0
H348 H 0.90546 0.87557 0.76028 0.0
H349 H 0.95484 0.93505 0.74333 0.0
H350 H 0.81808 0.82016 0.76072 0.0
H351 H 0.92673 0.93205 0.7952 0.0
H352 H 0.97234 0.00713 0.8054 0.0
H353 H 0.85905 0.009 0.82006 0.0
H354 H 0.81265 0.93415 0.80965 0.0
H355 H 0.72683 0.67952 0.82741 0.0
H356 H 0.77874 0.73316 0.80926 0.0
H357 H 0.71898 0.81086 0.81526 0.0
H358 H 0.66773 0.75797 0.8337 0.0
H359 H 0.80674 0.85955 0.81738 0.0
H360 H 0.69834 0.74842 0.7813 0.0
H361 H 0.65341 0.67395 0.77037 0.0
H362 H 0.76807 0.67057 0.75894 0.0
H363 H 0.81371 0.74487 0.77001 0.0
C364 C 0.89077 0.97496 0.75505 0.0
C365 C 0.92492 0.97386 0.74745 0.0
C366 C 0.86252 0.94091 0.76455 0.0
C367 C 0.86812 0.90528 0.76691 0.0
C368 C 0.90073 0.90291 0.7587 0.0
C369 C 0.92892 0.93693 0.74902 0.0
C370 C 0.84115 0.8718 0.77859 0.0
C371 C 0.8161 0.82861 0.77318 0.0
C372 C 0.83829 0.88295 0.79482 0.0
C373 C 0.86617 0.92755 0.80154 0.0
C374 C 0.91151 0.94852 0.80053 0.0
C375 C 0.93751 0.99106 0.80634 0.0
C376 C 0.9186 0.01285 0.81334 0.0
C377 C 0.87365 0.99208 0.81461 0.0
C378 C 0.84748 0.94958 0.80877 0.0
C379 C 0.72501 0.70823 0.82498 0.0
C380 C 0.69303 0.7144 0.83196 0.0
C381 C 0.75445 0.73866 0.8145 0.0
C382 C 0.75246 0.77581 0.81077 0.0
C383 C 0.72104 0.78237 0.81792 0.0
C384 C 0.69154 0.75194 0.82835 0.0
C385 C 0.783 0.80799 0.79944 0.0
C386 C 0.80891 0.851 0.80495 0.0
C387 C 0.78683 0.79659 0.78336 0.0
C388 C 0.75942 0.75202 0.77664 0.0
C389 C 0.71397 0.73167 0.77658 0.0
C390 C 0.68837 0.68952 0.77033 0.0
C391 C 0.70787 0.6675 0.76401 0.0
C392 C 0.75301 0.68764 0.76387 0.0
C393 C 0.77875 0.72978 0.77012 0.0
H394 H 0.688 0.63487 0.75918 0.0
H395 H 0.93879 0.04581 0.81781 0.0
H396 H 0.11954 0.02676 0.08604 0.0
H397 H 0.12356 0.97867 0.10614 0.0
H398 H 0.98409 0.90817 0.10781 0.0
H399 H 0.9799 0.95631 0.08807 0.0
H400 H 0.01941 0.91901 0.13747 0.0
H401 H 0.03876 0.87133 0.08519 0.0
H402 H 0.07382 0.87962 0.05914 0.0
H403 H 0.19411 0.91418 0.08444 0.0
H404 H 0.15985 0.90663 0.11066 0.0
H405 H 0.97114 0.71479 0.16615 0.0
H406 H 0.97876 0.77451 0.14968 0.0
H407 H 0.11793 0.83514 0.15445 0.0
H408 H 0.11053 0.77496 0.17067 0.0
H409 H 0.0901 0.83507 0.12322 0.0
H410 H 0.06706 0.87493 0.17577 0.0
H411 H 0.02989 0.86399 0.20147 0.0
H412 H 0.91452 0.84198 0.17536 0.0
H413 H 0.95079 0.85216 0.14947 0.0
C414 C 0.0898 0.00126 0.09082 0.0
C415 C 0.04941 0.99522 0.08541 0.0
C416 C 0.09212 0.97368 0.10224 0.0
C417 C 0.05407 0.93945 0.10834 0.0
C418 C 0.01387 0.93431 0.1033 0.0
C419 C 0.01154 0.96183 0.09195 0.0
C420 C 0.05558 0.90795 0.11956 0.0
C421 C 0.03464 0.90047 0.13431 0.0
C422 C 0.07629 0.88441 0.11562 0.0
C423 C 0.0969 0.88893 0.09987 0.0
C424 C 0.07278 0.88104 0.0852 0.0
C425 C 0.09248 0.88554 0.0704 0.0
C426 C 0.1362 0.89756 0.07014 0.0
C427 C 0.16027 0.90497 0.08467 0.0
C428 C 0.14073 0.90057 0.0995 0.0
C429 C 0.00337 0.74072 0.16362 0.0
C430 C 0.04023 0.74016 0.16973 0.0
C431 C 0.00768 0.77502 0.15434 0.0
C432 C 0.04892 0.80952 0.15099 0.0
C433 C 0.08581 0.80895 0.15695 0.0
C434 C 0.08152 0.77471 0.16631 0.0
C435 C 0.05333 0.84568 0.14099 0.0
C436 C 0.07536 0.854 0.12648 0.0
C437 C 0.0334 0.8698 0.1451 0.0
C438 C 0.01157 0.86399 0.16067 0.0
C439 C 0.03366 0.86745 0.1755 0.0
C440 C 0.01277 0.86143 0.1901 0.0
C441 C 0.96984 0.85221 0.19005 0.0
C442 C 0.94776 0.8491 0.17539 0.0
C443 C 0.96849 0.85504 0.16074 0.0
H444 H 0.95372 0.84755 0.20137 0.0
H445 H 0.1514 0.90101 0.05867 0.0
H446 H 0.13742 0.07961 0.39885 0.0
H447 H 0.19002 0.07615 0.41769 0.0
H448 H 0.09189 0.01798 0.45324 0.0
H449 H 0.03885 0.02042 0.43419 0.0
H450 H 0.18087 0.0947 0.46374 0.0
H451 H 0.10914 0.95315 0.43745 0.0
H452 H 0.08247 0.90363 0.41358 0.0
H453 H 0.21205 0.96065 0.39682 0.0
H454 H 0.2394 0.01101 0.42048 0.0
H455 H 0.29765 0.03899 0.51963 0.0
H456 H 0.24171 0.03929 0.50187 0.0
H457 H 0.31559 0.04827 0.46015 0.0
H458 H 0.3706 0.04622 0.47788 0.0
H459 H 0.23632 0.99533 0.45294 0.0
H460 H 0.31064 0.13684 0.477 0.0
H461 H 0.34161 0.19272 0.49881 0.0
H462 H 0.21492 0.14555 0.5173 0.0
H463 H 0.18324 0.08896 0.49572 0.0
C464 C 0.12733 0.06645 0.41075 0.0
C465 C 0.0847 0.05137 0.41536 0.0
C466 C 0.15719 0.06427 0.42142 0.0
C467 C 0.14474 0.04698 0.43683 0.0
C468 C 0.10203 0.03165 0.44142 0.0
C469 C 0.0719 0.03303 0.43059 0.0
C470 C 0.17638 0.0445 0.44803 0.0
C471 C 0.19269 0.07268 0.46156 0.0
C472 C 0.19257 0.01663 0.4448 0.0
C473 C 0.17624 0.98613 0.43065 0.0
C474 C 0.13189 0.95541 0.4286 0.0
C475 C 0.11666 0.92713 0.41512 0.0
C476 C 0.14553 0.92907 0.40366 0.0
C477 C 0.18972 0.95922 0.40569 0.0
C478 C 0.2051 0.98761 0.41914 0.0
C479 C 0.30183 0.04105 0.50666 0.0
C480 C 0.33837 0.04261 0.5001 0.0
C481 C 0.27001 0.04144 0.49652 0.0
C482 C 0.27468 0.04453 0.47965 0.0
C483 C 0.31113 0.04581 0.4731 0.0
C484 C 0.34255 0.04464 0.48322 0.0
C485 C 0.24145 0.04597 0.46878 0.0
C486 C 0.22473 0.01754 0.45524 0.0
C487 C 0.22569 0.07451 0.47179 0.0
C488 C 0.24465 0.10829 0.48487 0.0
C489 C 0.28943 0.1381 0.48581 0.0
C490 C 0.3071 0.16996 0.49811 0.0
C491 C 0.28027 0.17258 0.50947 0.0
C492 C 0.23568 0.14341 0.50852 0.0
C493 C 0.21785 0.11144 0.49625 0.0
H494 H 0.29401 0.1973 0.51898 0.0
H495 H 0.13368 0.90715 0.39324 0.0
H496 H 0.12515 0.17736 0.73492 0.0
H497 H 0.17968 0.2303 0.75426 0.0
H498 H 0.14611 0.13017 0.78914 0.0
H499 H 0.09136 0.07693 0.76964 0.0
H500 H 0.15292 0.20705 0.80211 0.0
H501 H 0.2358 0.16391 0.77048 0.0
H502 H 0.26147 0.14929 0.74515 0.0
H503 H 0.31528 0.28187 0.73207 0.0
H504 H 0.28935 0.29716 0.75723 0.0
H505 H 0.33317 0.33752 0.85583 0.0
H506 H 0.27821 0.27957 0.83821 0.0
H507 H 0.31816 0.36571 0.79793 0.0
H508 H 0.37466 0.42302 0.8152 0.0
H509 H 0.30772 0.29179 0.78849 0.0
H510 H 0.22311 0.33587 0.81836 0.0
H511 H 0.19491 0.35229 0.84262 0.0
H512 H 0.14193 0.22145 0.85785 0.0
H513 H 0.17033 0.20439 0.83378 0.0
C514 C 0.12929 0.16684 0.74677 0.0
C515 C 0.10352 0.1236 0.75107 0.0
C516 C 0.16058 0.19692 0.75774 0.0
C517 C 0.16691 0.18409 0.77311 0.0
C518 C 0.14152 0.14066 0.77735 0.0
C519 C 0.11045 0.11039 0.76627 0.0
C520 C 0.20017 0.21632 0.78467 0.0
C521 C 0.18688 0.22519 0.79928 0.0
C522 C 0.24425 0.24057 0.78074 0.0
C523 C 0.26033 0.2316 0.76569 0.0
C524 C 0.25284 0.18989 0.76215 0.0
C525 C 0.26748 0.18149 0.74783 0.0
C526 C 0.28992 0.21461 0.73699 0.0
C527 C 0.29787 0.25624 0.74048 0.0
C528 C 0.28326 0.2648 0.75478 0.0
C529 C 0.33051 0.34408 0.84319 0.0
C530 C 0.35842 0.38506 0.83697 0.0
C531 C 0.29867 0.31101 0.83317 0.0
C532 C 0.29365 0.31836 0.81677 0.0
C533 C 0.3213 0.35925 0.81055 0.0
C534 C 0.35334 0.39219 0.82051 0.0
C535 C 0.26046 0.28323 0.80592 0.0
C536 C 0.27379 0.27369 0.79141 0.0
C537 C 0.21628 0.25879 0.80985 0.0
C538 C 0.19935 0.26901 0.82438 0.0
C539 C 0.20581 0.3107 0.82697 0.0
C540 C 0.18971 0.32011 0.84067 0.0
C541 C 0.16678 0.28798 0.8518 0.0
C542 C 0.15979 0.24634 0.84923 0.0
C543 C 0.17586 0.23677 0.83556 0.0
H544 H 0.15432 0.29532 0.8624 0.0
H545 H 0.30121 0.20804 0.72591 0.0
H546 H 0.96048 0.04568 0.67082 0.0
H547 H 0.90934 0.04145 0.64936 0.0
H548 H 0.86008 0.09968 0.68189 0.0
H549 H 0.91074 0.10425 0.70326 0.0
H550 H 0.79518 0.02564 0.66587 0.0
H551 H 0.9259 0.15839 0.65339 0.0
H552 H 0.00286 0.20176 0.64674 0.0
H553 H 0.97847 0.12305 0.60389 0.0
H554 H 0.90142 0.0788 0.61042 0.0
H555 H 0.67218 0.08721 0.61791 0.0
H556 H 0.72758 0.08734 0.63585 0.0
H557 H 0.7727 0.04346 0.59619 0.0
H558 H 0.71852 0.04532 0.57788 0.0
H559 H 0.83979 0.10296 0.61409 0.0
H560 H 0.70935 0.97323 0.62488 0.0
H561 H 0.63238 0.92758 0.63115 0.0
H562 H 0.65569 0.99603 0.67662 0.0
H563 H 0.73271 0.04254 0.67052 0.0
C564 C 0.93887 0.05773 0.67338 0.0
C565 C 0.9398 0.0753 0.6888 0.0
C566 C 0.90976 0.05537 0.6611 0.0
C567 C 0.88098 0.07029 0.66405 0.0
C568 C 0.88194 0.08789 0.67937 0.0
C569 C 0.91115 0.09062 0.69157 0.0
C570 C 0.8491 0.06712 0.65139 0.0
C571 C 0.8049 0.04279 0.6546 0.0
C572 C 0.8618 0.08826 0.63645 0.0
C573 C 0.90803 0.11498 0.63249 0.0
C574 C 0.93703 0.15009 0.64262 0.0
C575 C 0.98065 0.17488 0.63887 0.0
C576 C 0.99558 0.16508 0.62493 0.0
C577 C 0.96688 0.13055 0.6147 0.0
C578 C 0.92323 0.10562 0.61842 0.0
C579 C 0.69426 0.07825 0.61289 0.0
C580 C 0.69071 0.06617 0.59641 0.0
C581 C 0.72564 0.0778 0.62324 0.0
C582 C 0.75382 0.06462 0.61746 0.0
C583 C 0.75111 0.05345 0.60096 0.0
C584 C 0.71983 0.05415 0.59054 0.0
C585 C 0.78577 0.06232 0.62875 0.0
C586 C 0.82994 0.08543 0.62528 0.0
C587 C 0.77305 0.03963 0.64341 0.0
C588 C 0.72676 0.0116 0.64718 0.0
C589 C 0.69801 0.97876 0.63617 0.0
C590 C 0.65438 0.95269 0.6397 0.0
C591 C 0.63914 0.95895 0.65426 0.0
C592 C 0.66754 0.99124 0.66534 0.0
C593 C 0.7112 0.01743 0.66186 0.0
H594 H 0.60534 0.93874 0.65698 0.0
H595 H 0.02936 0.18431 0.62204 0.0
H596 H 0.91042 0.96455 0.03344 0.0
H597 H 0.85703 0.9084 0.01453 0.0
H598 H 0.95548 0.9444 0.97932 0.0
H599 H 0.0093 0.9998 0.99845 0.0
H600 H 0.8638 0.93394 0.96958 0.0
H601 H 0.93912 0.86461 0.99332 0.0
H602 H 0.96744 0.84211 0.01656 0.0
H603 H 0.83923 0.76917 0.03455 0.0
H604 H 0.81027 0.79186 0.01153 0.0
H605 H 0.74965 0.76251 0.91217 0.0
H606 H 0.80488 0.8192 0.93025 0.0
H607 H 0.73249 0.75098 0.97168 0.0
H608 H 0.67817 0.6936 0.95364 0.0
H609 H 0.81241 0.7791 0.97845 0.0
H610 H 0.7344 0.84365 0.95636 0.0
H611 H 0.70167 0.86805 0.93532 0.0
H612 H 0.82729 0.95187 0.91673 0.0
H613 H 0.86074 0.9275 0.93753 0.0
C614 C 0.92041 0.9606 0.02159 0.0
C615 C 0.96339 0.98699 0.0171 0.0
C616 C 0.8901 0.92854 0.01089 0.0
C617 C 0.90246 0.92259 0.99557 0.0
C618 C 0.94546 0.94884 0.99109 0.0
C619 C 0.97601 0.98029 0.00195 0.0
C620 C 0.87044 0.88839 0.98435 0.0
C621 C 0.85292 0.90013 0.97132 0.0
C622 C 0.85533 0.84431 0.98708 0.0
C623 C 0.87263 0.83033 0.00082 0.0
C624 C 0.91705 0.84414 0.00232 0.0
C625 C 0.9332 0.83128 0.01544 0.0
C626 C 0.90518 0.80434 0.02706 0.0
C627 C 0.86091 0.7901 0.02556 0.0
C628 C 0.84461 0.80292 0.01248 0.0
C629 C 0.7456 0.75979 0.92514 0.0
C630 C 0.70973 0.72377 0.93153 0.0
C631 C 0.77703 0.79223 0.93547 0.0
C632 C 0.7726 0.78977 0.95236 0.0
C633 C 0.73675 0.75364 0.95872 0.0
C634 C 0.70573 0.72088 0.94842 0.0
C635 C 0.8055 0.8245 0.96342 0.0
C636 C 0.82319 0.8129 0.97655 0.0
C637 C 0.82004 0.86879 0.96098 0.0
C638 C 0.80001 0.88331 0.94838 0.0
C639 C 0.75501 0.86697 0.94769 0.0
C640 C 0.73633 0.88086 0.93583 0.0
C641 C 0.76236 0.91137 0.92466 0.0
C642 C 0.80716 0.92815 0.92537 0.0
C643 C 0.82599 0.91432 0.93719 0.0
H644 H 0.74784 0.92211 0.9155 0.0
H645 H 0.91774 0.79441 0.0372 0.0
H646 H 0.06442 0.01225 0.34014 0.0
H647 H 0.06063 0.95929 0.32049 0.0
H648 H 0.92669 0.87338 0.3312 0.0
H649 H 0.93001 0.9271 0.35061 0.0
H650 H 0.04944 0.88381 0.3257 0.0
H651 H 0.87386 0.80508 0.29862 0.0
H652 H 0.81872 0.82526 0.29195 0.0
H653 H 0.91879 0.9573 0.28685 0.0
H654 H 0.97453 0.93782 0.29328 0.0
H655 H 0.99702 0.68711 0.28687 0.0
H656 H 0.99241 0.74099 0.30365 0.0
H657 H 0.99448 0.81023 0.26081 0.0
H658 H 0.99866 0.75612 0.24394 0.0
H659 H 0.93819 0.80962 0.28139 0.0
H660 H 0.08604 0.84326 0.28464 0.0
H661 H 0.14587 0.82865 0.2894 0.0
H662 H 0.11004 0.79796 0.3388 0.0
H663 H 0.04958 0.81181 0.33426 0.0
C664 C 0.03395 0.98233 0.33816 0.0
C665 C 0.99751 0.97379 0.34694 0.0
C666 C 0.03187 0.95199 0.32695 0.0
C667 C 0.99342 0.91227 0.32433 0.0
C668 C 0.95658 0.90401 0.33282 0.0
C669 C 0.95852 0.93468 0.34394 0.0
C670 C 0.99297 0.87886 0.3134 0.0
C671 C 0.02505 0.86765 0.31602 0.0
C672 C 0.96153 0.858 0.30063 0.0
C673 C 0.92831 0.87003 0.29661 0.0
C674 C 0.88409 0.83839 0.29603 0.0
C675 C 0.85274 0.84971 0.29229 0.0
C676 C 0.86524 0.89256 0.28903 0.0
C677 C 0.90914 0.92416 0.28944 0.0
C678 C 0.94062 0.913 0.29316 0.0
C679 C 0.99656 0.71385 0.28103 0.0
C680 C 0.9986 0.71759 0.26409 0.0
C681 C 0.99383 0.74458 0.29062 0.0
C682 C 0.99371 0.78001 0.28351 0.0
C683 C 0.99448 0.78316 0.26657 0.0
C684 C 0.99688 0.75223 0.25694 0.0
C685 C 0.99447 0.81459 0.29379 0.0
C686 C 0.96245 0.82584 0.2911 0.0
C687 C 0.02661 0.83634 0.30627 0.0
C688 C 0.06304 0.82817 0.30906 0.0
C689 C 0.09073 0.83309 0.29648 0.0
C690 C 0.12478 0.82499 0.29915 0.0
C691 C 0.13168 0.81228 0.31438 0.0
C692 C 0.10461 0.80775 0.327 0.0
C693 C 0.07047 0.81575 0.32439 0.0
H694 H 0.15806 0.80603 0.31642 0.0
H695 H 0.84091 0.90127 0.28615 0.0
H696 H 0.15943 0.10499 0.693 0.0
H697 H 0.20848 0.10275 0.6737 0.0
H698 H 0.10121 0.99059 0.64983 0.0
H699 H 0.05249 0.99095 0.6701 0.0
H700 H 0.16417 0.9787 0.64996 0.0
H701 H 0.1528 0.09994 0.63407 0.0
H702 H 0.15336 0.16866 0.63732 0.0
H703 H 0.28739 0.23256 0.65317 0.0
H704 H 0.2875 0.1641 0.65021 0.0
H705 H 0.2949 0.01278 0.57999 0.0
H706 H 0.23932 0.01026 0.59723 0.0
H707 H 0.33663 0.08306 0.63466 0.0
H708 H 0.39217 0.08371 0.61802 0.0
H709 H 0.27492 0.11356 0.62505 0.0
H710 H 0.2804 0.98578 0.64122 0.0
H711 H 0.2763 0.91614 0.63558 0.0
H712 H 0.14689 0.86406 0.61544 0.0
H713 H 0.15049 0.93365 0.62075 0.0
C714 C 0.1463 0.07994 0.68359 0.0
C715 C 0.10215 0.04837 0.68291 0.0
C716 C 0.17433 0.07887 0.67244 0.0
C717 C 0.15857 0.04731 0.6599 0.0
C718 C 0.1143 0.01548 0.65929 0.0
C719 C 0.08642 0.01573 0.67082 0.0
C720 C 0.18864 0.04708 0.64778 0.0
C721 C 0.18776 0.00816 0.64432 0.0
C722 C 0.21986 0.08541 0.64036 0.0
C723 C 0.22005 0.12678 0.64202 0.0
C724 C 0.18233 0.12859 0.63833 0.0
C725 C 0.18253 0.16751 0.64011 0.0
C726 C 0.22036 0.20493 0.64547 0.0
C727 C 0.2581 0.20354 0.64902 0.0
C728 C 0.25807 0.1647 0.64727 0.0
C729 C 0.30459 0.02766 0.59198 0.0
C730 C 0.34834 0.04844 0.59754 0.0
C731 C 0.27272 0.02646 0.60176 0.0
C732 C 0.28397 0.04651 0.61718 0.0
C733 C 0.32742 0.06763 0.62273 0.0
C734 C 0.35919 0.0682 0.61311 0.0
C735 C 0.2505 0.04559 0.62759 0.0
C736 C 0.25085 0.08424 0.63064 0.0
C737 C 0.21814 0.00693 0.63427 0.0
C738 C 0.2159 0.96504 0.63122 0.0
C739 C 0.25122 0.9596 0.63546 0.0
C740 C 0.24896 0.92011 0.63235 0.0
C741 C 0.21141 0.88573 0.62512 0.0
C742 C 0.17599 0.89073 0.62102 0.0
C743 C 0.17811 0.93018 0.62409 0.0
H744 H 0.20971 0.85519 0.62272 0.0
H745 H 0.22044 0.23502 0.64686 0.0
H746 H 0.16234 0.16275 0.03242 0.0
H747 H 0.2234 0.21353 0.01638 0.0
H748 H 0.13419 0.21812 0.98127 0.0
H749 H 0.07337 0.1689 0.99732 0.0
H750 H 0.20266 0.20152 0.96887 0.0
H751 H 0.17907 0.29736 0.00347 0.0
H752 H 0.172 0.32445 0.03004 0.0
H753 H 0.30102 0.35488 0.04438 0.0
H754 H 0.30852 0.32718 0.01794 0.0
H755 H 0.32493 0.37271 0.91777 0.0
H756 H 0.27189 0.32256 0.93621 0.0
H757 H 0.37173 0.36243 0.97395 0.0
H758 H 0.42456 0.41502 0.95591 0.0
H759 H 0.30254 0.35376 0.98661 0.0
H760 H 0.33029 0.26426 0.95207 0.0
H761 H 0.33869 0.23486 0.92623 0.0
H762 H 0.20543 0.1895 0.91268 0.0
H763 H 0.19636 0.21915 0.93835 0.0
C764 C 0.15574 0.17464 0.02131 0.0
C765 C 0.1129 0.16157 0.01614 0.0
C766 C 0.19062 0.20361 0.01219 0.0
C767 C 0.1831 0.21929 0.99765 0.0
C768 C 0.14052 0.20615 0.99243 0.0
C769 C 0.10581 0.17805 0.00167 0.0
C770 C 0.21942 0.24954 0.98776 0.0
C771 C 0.22443 0.2349 0.97265 0.0
C772 C 0.24842 0.29257 0.99301 0.0
C773 C 0.24414 0.30968 0.00882 0.0
C774 C 0.20577 0.30941 0.01235 0.0
C775 C 0.20171 0.32496 0.02737 0.0
C776 C 0.23599 0.34125 0.03892 0.0
C777 C 0.27445 0.34216 0.03543 0.0
C778 C 0.27863 0.32655 0.02043 0.0
C779 C 0.33566 0.37137 0.93005 0.0
C780 C 0.37924 0.39802 0.93528 0.0
C781 C 0.30531 0.3421 0.94054 0.0
C782 C 0.31789 0.33798 0.95641 0.0
C783 C 0.36123 0.36474 0.96174 0.0
C784 C 0.39155 0.39449 0.95131 0.0
C785 C 0.28561 0.30609 0.96743 0.0
C786 C 0.28128 0.32031 0.9828 0.0
C787 C 0.25754 0.26238 0.96251 0.0
C788 C 0.26275 0.24424 0.94709 0.0
C789 C 0.30284 0.24826 0.94353 0.0
C790 C 0.30772 0.23152 0.92892 0.0
C791 C 0.27264 0.2104 0.91781 0.0
C792 C 0.23258 0.20589 0.9213 0.0
C793 C 0.22754 0.22261 0.93589 0.0
H794 H 0.27648 0.19747 0.9065 0.0
H795 H 0.23279 0.35329 0.05055 0.0
H796 H 0.09476 0.21877 0.36154 0.0
H797 H 0.0907 0.26451 0.34069 0.0
H798 H 0.96423 0.16098 0.32471 0.0
H799 H 0.96891 0.11423 0.34524 0.0
H800 H 0.00709 0.20159 0.29939 0.0
H801 H 0.97755 0.24658 0.34943 0.0
H802 H 0.9893 0.26993 0.3782 0.0
H803 H 0.10922 0.3834 0.36736 0.0
H804 H 0.09849 0.36042 0.33854 0.0
H805 H 0.95379 0.34981 0.25995 0.0
H806 H 0.95431 0.29588 0.27781 0.0
H807 H 0.09042 0.38101 0.28902 0.0
H808 H 0.09087 0.43435 0.27069 0.0
H809 H 0.03731 0.34744 0.31654 0.0
H810 H 0.06367 0.29871 0.26563 0.0
H811 H 0.04674 0.27431 0.23697 0.0
H812 H 0.92504 0.16619 0.24989 0.0
H813 H 0.94096 0.19033 0.27861 0.0
C814 C 0.06611 0.20561 0.35357 0.0
C815 C 0.03194 0.16299 0.35517 0.0
C816 C 0.06374 0.23189 0.34167 0.0
C817 C 0.02668 0.21662 0.33136 0.0
C818 C 0.99306 0.1736 0.33257 0.0
C819 C 0.99573 0.14694 0.34433 0.0
C820 C 0.02292 0.24603 0.31964 0.0
C821 C 0.01309 0.23322 0.3032 0.0
C822 C 0.03089 0.28747 0.32453 0.0
C823 C 0.03737 0.30157 0.34184 0.0
C824 C 0.00657 0.27637 0.3532 0.0
C825 C 0.01303 0.28956 0.36951 0.0
C826 C 0.05003 0.32807 0.37461 0.0
C827 C 0.0806 0.35355 0.3634 0.0
C828 C 0.07432 0.34048 0.34707 0.0
C829 C 0.98409 0.35683 0.26594 0.0
C830 C 0.02227 0.39671 0.2639 0.0
C831 C 0.98422 0.326 0.27621 0.0
C832 C 0.02239 0.33455 0.28473 0.0
C833 C 0.06057 0.37396 0.28261 0.0
C834 C 0.06064 0.40453 0.2722 0.0
C835 C 0.02235 0.30326 0.29636 0.0
C836 C 0.03123 0.31573 0.3128 0.0
C837 C 0.0127 0.26135 0.29149 0.0
C838 C 0.0033 0.2466 0.27425 0.0
C839 C 0.03312 0.26995 0.26234 0.0
C840 C 0.02374 0.25612 0.24609 0.0
C841 C 0.98478 0.2188 0.2416 0.0
C842 C 0.95518 0.19513 0.25338 0.0
C843 C 0.96438 0.20886 0.26965 0.0
H844 H 0.97756 0.20816 0.22901 0.0
H845 H 0.05498 0.33823 0.38725 0.0
loop_
_geom_bond_atom_site_label_1
_geom_bond_atom_site_label_2
_geom_bond_distance
_geom_bond_site_symmetry_2
_ccdc_geom_bond_type
Mn0 O5 2.095 . S
Mn0 O15 2.162 . S
Mn0 O16 2.297 . S
Mn0 O24 2.367 1_545 S
Mn0 O25 2.209 1_455 S
Mn0 O26 2.094 . S
Mn1 O6 2.121 . S
Mn1 N8 2.257 1_455 S
Mn1 N17 2.282 1_455 S
Mn1 O25 2.215 1_455 S
Mn1 O27 2.117 . S
C2 O24 1.212 1_645 S
C2 O25 1.283 . S
C3 O15 1.280 1_565 S
C3 O16 1.234 1_565 S
C4 O26 1.240 . S
C4 O27 1.264 . S
O5 Mn0 2.095 . S
O5 C14 1.250 . S
O6 Mn1 2.121 . S
O6 C14 1.258 . S
C7 N8 1.326 . S
C7 C11 1.460 . S
C7 H13 0.929 . S
N8 Mn1 2.257 1_655 S
N8 C7 1.326 . S
N8 C12 1.362 . S
C9 C10 1.258 . S
C9 C12 1.431 . S
C9 C29 1.449 1_554 S
C10 C9 1.258 . S
C10 C11 1.477 . S
C10 H30 0.931 . S
C11 C7 1.460 . S
C11 C10 1.477 . S
C11 H31 0.930 . S
C12 N8 1.362 . S
C12 C9 1.431 . S
C12 C22 1.463 1_554 S
H13 C7 0.929 . S
C14 O5 1.250 . S
C14 O6 1.258 . S
O15 Mn0 2.162 . S
O15 C3 1.280 1_545 S
O16 Mn0 2.297 . S
O16 C3 1.234 1_545 S
N17 Mn1 2.282 1_655 S
N17 C18 1.328 1_654 S
N17 C22 1.314 1_554 S
C18 N17 1.328 1_456 S
C18 C19 1.457 1_455 S
C18 H23 0.929 . S
C19 C18 1.457 1_655 S
C19 C20 1.291 . S
C19 H32 0.931 1_655 S
C20 C19 1.291 . S
C20 C21 1.373 . S
C20 H33 0.929 . S
C21 C20 1.373 . S
C21 C22 1.412 . S
C21 C28 1.403 . S
C22 C12 1.463 1_556 S
C22 N17 1.314 1_556 S
C22 C21 1.412 . S
H23 C18 0.929 . S
O24 Mn0 2.367 1_565 S
O24 C2 1.212 1_465 S
O25 Mn0 2.209 1_655 S
O25 Mn1 2.215 1_655 S
O25 C2 1.283 . S
O26 Mn0 2.094 . S
O26 C4 1.240 . S
O27 Mn1 2.117 . S
O27 C4 1.264 . S
C28 C21 1.403 . S
C28 C29 1.399 . S
C28 H34 0.929 . S
C29 C9 1.449 1_556 S
C29 C28 1.399 . S
C29 H35 0.930 . S
H30 C10 0.931 . S
H31 C11 0.930 . S
H32 C19 0.931 1_455 S
H33 C20 0.929 . S
H34 C28 0.929 . S
H35 C29 0.930 . S
Mn36 O41 2.095 . S
Mn36 O51 2.162 1_545 S
Mn36 O52 2.297 1_655 S
Mn36 O60 2.385 1_655 S
Mn36 O61 2.209 1_655 S
Mn36 O62 2.094 . S
Mn37 O42 2.121 . S
Mn37 N44 2.257 . S
Mn37 N53 2.282 . S
Mn37 O61 2.215 . S
Mn37 O63 2.117 1_455 S
C38 O60 1.234 . S
C38 O61 1.283 . S
C39 O51 1.281 1_455 S
C39 O52 1.236 1_565 S
C40 O62 1.240 . S
C40 O63 1.264 . S
O41 Mn36 2.095 . S
O41 C50 1.250 1_655 S
O42 Mn37 2.121 . S
O42 C50 1.258 . S
C43 N44 1.326 . S
C43 C47 1.460 . S
C43 H49 0.929 . S
N44 Mn37 2.257 . S
N44 C43 1.326 . S
N44 C48 1.362 . S
C45 C46 1.258 . S
C45 C48 1.431 . S
C45 C65 1.449 . S
C46 C45 1.258 . S
C46 C47 1.477 . S
C46 H66 0.931 . S
C47 C43 1.460 . S
C47 C46 1.477 . S
C47 H67 0.930 . S
C48 N44 1.362 . S
C48 C45 1.431 . S
C48 C58 1.476 . S
H49 C43 0.929 . S
C50 O41 1.250 1_455 S
C50 O42 1.258 . S
O51 Mn36 2.162 1_565 S
O51 C39 1.281 1_655 S
O52 Mn36 2.297 1_455 S
O52 C39 1.236 1_545 S
N53 Mn37 2.282 . S
N53 C54 1.328 . S
N53 C58 1.318 . S
C54 N53 1.328 . S
C54 C55 1.457 . S
C54 H59 0.929 . S
C55 C54 1.457 . S
C55 C56 1.291 . S
C55 H68 0.931 . S
C56 C55 1.291 . S
C56 C57 1.373 . S
C56 H69 0.929 . S
C57 C56 1.373 . S
C57 C58 1.396 . S
C57 C64 1.403 . S
C58 C48 1.476 . S
C58 N53 1.318 . S
C58 C57 1.396 . S
H59 C54 0.929 . S
O60 Mn36 2.385 1_455 S
O60 C38 1.234 . S
O61 Mn36 2.209 1_455 S
O61 Mn37 2.215 . S
O61 C38 1.283 . S
O62 Mn36 2.094 . S
O62 C40 1.240 . S
O63 Mn37 2.117 1_655 S
O63 C40 1.264 . S
C64 C57 1.403 . S
C64 C65 1.399 . S
C64 H70 0.929 . S
C65 C45 1.449 . S
C65 C64 1.399 . S
C65 H71 0.930 . S
H66 C46 0.931 . S
H67 C47 0.930 . S
H68 C55 0.931 . S
H69 C56 0.929 . S
H70 C64 0.929 . S
H71 C65 0.930 . S
Mn72 O77 2.095 1_455 S
Mn72 O87 2.162 . S
Mn72 O88 2.297 . S
Mn72 O96 2.385 . S
Mn72 O97 2.209 . S
Mn72 O98 2.094 1_445 S
Mn73 O78 2.121 . S
Mn73 N80 2.257 . S
Mn73 N89 2.282 1_655 S
Mn73 O97 2.215 1_655 S
Mn73 O99 2.117 . S
C74 O96 1.234 . S
C74 O97 1.283 . S
C75 O87 1.281 . S
C75 O88 1.236 . S
C76 O98 1.240 . S
C76 O99 1.264 1_565 S
O77 Mn72 2.095 1_655 S
O77 C86 1.250 . S
O78 Mn73 2.121 . S
O78 C86 1.258 . S
C79 N80 1.326 . S
C79 C83 1.460 1_655 S
C79 H85 0.929 . S
N80 Mn73 2.257 . S
N80 C79 1.326 . S
N80 C84 1.362 1_655 S
C81 C82 1.258 . S
C81 C84 1.431 . S
C81 C101 1.449 . S
C82 C81 1.258 . S
C82 C83 1.477 . S
C82 H102 0.931 . S
C83 C79 1.460 1_455 S
C83 C82 1.477 . S
C83 H103 0.940 . S
C84 N80 1.362 1_455 S
C84 C81 1.431 . S
C84 C94 1.476 . S
H85 C79 0.929 . S
C86 O77 1.250 . S
C86 O78 1.258 . S
O87 Mn72 2.162 . S
O87 C75 1.281 . S
O88 Mn72 2.297 . S
O88 C75 1.236 . S
N89 Mn73 2.282 1_455 S
N89 C90 1.328 . S
N89 C94 1.318 . S
C90 N89 1.328 . S
C90 C91 1.457 . S
C90 H95 0.924 . S
C91 C90 1.457 . S
C91 C92 1.291 . S
C91 H104 0.931 . S
C92 C91 1.291 . S
C92 C93 1.373 . S
C92 H105 0.929 . S
C93 C92 1.373 . S
C93 C94 1.396 . S
C93 C100 1.403 . S
C94 C84 1.476 . S
C94 N89 1.318 . S
C94 C93 1.396 . S
H95 C90 0.924 . S
O96 Mn72 2.385 . S
O96 C74 1.234 . S
O97 Mn72 2.209 . S
O97 Mn73 2.215 1_455 S
O97 C74 1.283 . S
O98 Mn72 2.094 1_665 S
O98 C76 1.240 . S
O99 Mn73 2.117 . S
O99 C76 1.264 1_545 S
C100 C93 1.403 . S
C100 C101 1.399 . S
C100 H106 0.929 . S
C101 C81 1.449 . S
C101 C100 1.399 . S
C101 H107 0.930 . S
H102 C82 0.931 . S
H103 C83 0.940 . S
H104 C91 0.931 . S
H105 C92 0.929 . S
H106 C100 0.929 . S
H107 C101 0.930 . S
C108 C109 1.384 1_655 S
C108 C110 1.384 . S
C108 H136 0.931 . S
C109 C108 1.384 1_455 S
C109 C112 1.382 . S
C110 C108 1.384 . S
C110 C111 1.381 1_655 S
C110 H137 0.930 . S
C111 C110 1.381 1_455 S
C111 C113 1.381 . S
C111 C114 1.487 . S
C112 C109 1.382 . S
C112 C113 1.387 . S
C112 H138 0.930 . S
C113 C111 1.381 . S
C113 C112 1.387 . S
C113 H139 0.931 . S
C114 C111 1.487 . S
C114 C121 1.399 . S
C114 N152 1.343 . S
C115 C116 1.384 . S
C115 C117 1.384 . S
C115 H140 0.931 . S
C116 C115 1.384 . S
C116 C119 1.382 1_455 S
C117 C115 1.384 . S
C117 C118 1.381 . S
C117 H141 0.930 . S
C118 C117 1.381 . S
C118 C120 1.381 1_455 S
C118 C121 1.487 . S
C119 C116 1.382 1_655 S
C119 C120 1.387 . S
C119 H142 0.930 . S
C120 C118 1.381 1_655 S
C120 C119 1.387 . S
C120 H143 0.931 . S
C121 C114 1.399 . S
C121 C118 1.487 . S
C121 N153 1.343 . S
C122 C123 1.384 . S
C122 C124 1.384 . S
C122 H144 0.931 . S
C123 C122 1.384 . S
C123 C126 1.382 1_455 S
C124 C122 1.384 . S
C124 C125 1.381 . S
C124 H145 0.930 . S
C125 C124 1.381 . S
C125 C127 1.381 1_455 S
C125 C128 1.487 . S
C126 C123 1.382 1_655 S
C126 C127 1.387 . S
C126 H146 0.930 . S
C127 C125 1.381 1_655 S
C127 C126 1.387 . S
C127 H147 0.931 . S
C128 C125 1.487 . S
C128 C135 1.399 . S
C128 N153 1.343 . S
C129 C130 1.384 1_655 S
C129 C131 1.384 . S
C129 H148 0.931 . S
C130 C129 1.384 1_455 S
C130 C133 1.382 . S
C131 C129 1.384 . S
C131 C132 1.381 1_655 S
C131 H149 0.930 . S
C132 C131 1.381 1_455 S
C132 C134 1.381 . S
C132 C135 1.487 . S
C133 C130 1.382 . S
C133 C134 1.387 . S
C133 H150 0.930 . S
C134 C132 1.381 . S
C134 C133 1.387 . S
C134 H151 0.931 . S
C135 C128 1.399 . S
C135 C132 1.487 . S
C135 N152 1.343 . S
H136 C108 0.931 . S
H137 C110 0.930 . S
H138 C112 0.930 . S
H139 C113 0.931 . S
H140 C115 0.931 . S
H141 C117 0.930 . S
H142 C119 0.930 . S
H143 C120 0.931 . S
H144 C122 0.931 . S
H145 C124 0.930 . S
H146 C126 0.930 . S
H147 C127 0.931 . S
H148 C129 0.931 . S
H149 C131 0.930 . S
H150 C133 0.930 . S
H151 C134 0.931 . S
N152 C114 1.343 . S
N152 C135 1.343 . S
N153 C121 1.343 . S
N153 C128 1.343 . S
C154 C155 1.384 . S
C154 C156 1.384 . S
C154 H182 0.931 . S
C155 C154 1.384 . S
C155 C158 1.382 . S
C156 C154 1.384 . S
C156 C157 1.381 . S
C156 H183 0.930 . S
C157 C156 1.381 . S
C157 C159 1.381 . S
C157 C160 1.487 . S
C158 C155 1.382 . S
C158 C159 1.387 . S
C158 H184 0.930 . S
C159 C157 1.381 . S
C159 C158 1.387 . S
C159 H185 0.931 . S
C160 C157 1.487 . S
C160 C167 1.399 . S
C160 N198 1.343 . S
C161 C162 1.384 . S
C161 C163 1.384 . S
C161 H186 0.931 . S
C162 C161 1.384 . S
C162 C165 1.382 . S
C163 C161 1.384 . S
C163 C164 1.381 . S
C163 H187 0.930 . S
C164 C163 1.381 . S
C164 C166 1.381 . S
C164 C167 1.487 . S
C165 C162 1.382 . S
C165 C166 1.387 . S
C165 H188 0.930 . S
C166 C164 1.381 . S
C166 C165 1.387 . S
C166 H189 0.931 . S
C167 C160 1.399 . S
C167 C164 1.487 . S
C167 N199 1.343 . S
C168 C169 1.384 . S
C168 C170 1.384 . S
C168 H190 0.931 . S
C169 C168 1.384 . S
C169 C172 1.382 . S
C170 C168 1.384 . S
C170 C171 1.381 . S
C170 H191 0.930 . S
C171 C170 1.381 . S
C171 C173 1.381 . S
C171 C174 1.487 . S
C172 C169 1.382 . S
C172 C173 1.387 . S
C172 H192 0.930 . S
C173 C171 1.381 . S
C173 C172 1.387 . S
C173 H193 0.931 . S
C174 C171 1.487 . S
C174 C181 1.399 . S
C174 N199 1.343 . S
C175 C176 1.384 . S
C175 C177 1.384 . S
C175 H194 0.931 . S
C176 C175 1.384 . S
C176 C179 1.382 . S
C177 C175 1.384 . S
C177 C178 1.381 . S
C177 H195 0.930 . S
C178 C177 1.381 . S
C178 C180 1.381 . S
C178 C181 1.487 . S
C179 C176 1.382 . S
C179 C180 1.387 . S
C179 H196 0.930 . S
C180 C178 1.381 . S
C180 C179 1.387 . S
C180 H197 0.931 . S
C181 C174 1.399 . S
C181 C178 1.487 . S
C181 N198 1.343 . S
H182 C154 0.931 . S
H183 C156 0.930 . S
H184 C158 0.930 . S
H185 C159 0.931 . S
H186 C161 0.931 . S
H187 C163 0.930 . S
H188 C165 0.930 . S
H189 C166 0.931 . S
H190 C168 0.931 . S
H191 C170 0.930 . S
H192 C172 0.930 . S
H193 C173 0.931 . S
H194 C175 0.931 . S
H195 C177 0.930 . S
H196 C179 0.930 . S
H197 C180 0.931 . S
N198 C160 1.343 . S
N198 C181 1.343 . S
N199 C167 1.343 . S
N199 C174 1.343 . S
C200 C201 1.384 . S
C200 C202 1.384 . S
C200 H228 0.931 . S
C201 C200 1.384 . S
C201 C204 1.382 . S
C202 C200 1.384 . S
C202 C203 1.381 . S
C202 H229 0.930 . S
C203 C202 1.381 . S
C203 C205 1.381 . S
C203 C206 1.487 . S
C204 C201 1.382 . S
C204 C205 1.387 . S
C204 H230 0.930 . S
C205 C203 1.381 . S
C205 C204 1.387 . S
C205 H231 0.931 . S
C206 C203 1.487 . S
C206 C213 1.399 . S
C206 N244 1.343 . S
C207 C208 1.384 . S
C207 C209 1.384 . S
C207 H232 0.931 . S
C208 C207 1.384 . S
C208 C211 1.382 . S
C209 C207 1.384 . S
C209 C210 1.381 . S
C209 H233 0.930 . S
C210 C209 1.381 . S
C210 C212 1.381 . S
C210 C213 1.487 . S
C211 C208 1.382 . S
C211 C212 1.387 . S
C211 H234 0.930 . S
C212 C210 1.381 . S
C212 C211 1.387 . S
C212 H235 0.931 . S
C213 C206 1.399 . S
C213 C210 1.487 . S
C213 N245 1.343 . S
C214 C215 1.384 . S
C214 C216 1.384 . S
C214 H236 0.931 . S
C215 C214 1.384 . S
C215 C218 1.382 . S
C216 C214 1.384 . S
C216 C217 1.381 . S
C216 H237 0.930 . S
C217 C216 1.381 . S
C217 C219 1.381 . S
C217 C220 1.487 . S
C218 C215 1.382 . S
C218 C219 1.387 . S
C218 H238 0.930 . S
C219 C217 1.381 . S
C219 C218 1.387 . S
C219 H239 0.931 . S
C220 C217 1.487 . S
C220 C227 1.399 . S
C220 N245 1.343 . S
C221 C222 1.384 . S
C221 C223 1.384 . S
C221 H240 0.931 . S
C222 C221 1.384 . S
C222 C225 1.382 . S
C223 C221 1.384 . S
C223 C224 1.381 . S
C223 H241 0.930 . S
C224 C223 1.381 . S
C224 C226 1.381 . S
C224 C227 1.487 . S
C225 C222 1.382 . S
C225 C226 1.387 . S
C225 H242 0.930 . S
C226 C224 1.381 . S
C226 C225 1.387 . S
C226 H243 0.931 . S
C227 C220 1.399 . S
C227 C224 1.487 . S
C227 N244 1.343 . S
H228 C200 0.931 . S
H229 C202 0.930 . S
H230 C204 0.930 . S
H231 C205 0.931 . S
H232 C207 0.931 . S
H233 C209 0.930 . S
H234 C211 0.930 . S
H235 C212 0.931 . S
H236 C214 0.931 . S
H237 C216 0.930 . S
H238 C218 0.930 . S
H239 C219 0.931 . S
H240 C221 0.931 . S
H241 C223 0.930 . S
H242 C225 0.930 . S
H243 C226 0.931 . S
N244 C206 1.343 . S
N244 C227 1.343 . S
N245 C213 1.343 . S
N245 C220 1.343 . S
H246 C264 0.951 1_655 S
H247 C266 0.951 1_655 S
H248 C268 0.950 . S
H249 C269 0.950 . S
H250 C271 0.950 . S
H251 C274 0.950 . S
H252 C275 0.950 . S
H253 C277 0.950 . S
H254 C278 0.950 1_655 S
H255 C279 0.951 . S
H256 C281 0.951 . S
H257 C283 0.950 1_655 S
H258 C284 0.950 1_655 S
H259 C286 0.950 . S
H260 C289 0.950 . S
H261 C290 0.950 . S
H262 C292 0.950 . S
H263 C293 0.950 . S
C264 H246 0.951 1_455 S
C264 C265 1.366 . S
C264 C266 1.388 . S
C265 C264 1.366 . S
C265 C269 1.385 . S
C266 H247 0.951 1_455 S
C266 C264 1.388 . S
C266 C267 1.366 . S
C267 C266 1.366 . S
C267 C268 1.414 . S
C267 C270 1.499 . S
C268 H248 0.950 . S
C268 C267 1.414 . S
C268 C269 1.374 . S
C269 H249 0.950 . S
C269 C265 1.385 . S
C269 C268 1.374 . S
C270 C267 1.499 . S
C270 C271 1.373 . S
C270 C272 1.389 . S
C271 H250 0.950 . S
C271 C270 1.373 . S
C271 C287 1.377 . S
C272 C270 1.389 . S
C272 C273 1.524 . S
C272 C286 1.377 . S
C273 C272 1.524 . S
C273 C274 1.397 . S
C273 C278 1.363 . S
C274 H251 0.950 . S
C274 C273 1.397 . S
C274 C275 1.334 . S
C275 H252 0.950 . S
C275 C274 1.334 . S
C275 C276 1.287 . S
C276 C275 1.287 . S
C276 C277 1.524 . S
C276 H295 0.913 . S
C277 H253 0.950 . S
C277 C276 1.524 . S
C277 C278 1.415 . S
C278 H254 0.950 1_455 S
C278 C273 1.363 . S
C278 C277 1.415 . S
C279 H255 0.951 . S
C279 C280 1.366 . S
C279 C281 1.388 . S
C280 C279 1.366 . S
C280 C284 1.385 . S
C281 H256 0.951 . S
C281 C279 1.388 . S
C281 C282 1.366 . S
C282 C281 1.366 . S
C282 C283 1.414 . S
C282 C285 1.499 . S
C283 H257 0.950 1_455 S
C283 C282 1.414 . S
C283 C284 1.374 . S
C284 H258 0.950 1_455 S
C284 C280 1.385 . S
C284 C283 1.374 . S
C285 C282 1.499 . S
C285 C286 1.373 . S
C285 C287 1.389 . S
C286 H259 0.950 . S
C286 C272 1.377 . S
C286 C285 1.373 . S
C287 C271 1.377 . S
C287 C285 1.389 . S
C287 C288 1.524 . S
C288 C287 1.524 . S
C288 C289 1.397 1_455 S
C288 C293 1.363 . S
C289 H260 0.950 . S
C289 C288 1.397 1_655 S
C289 C290 1.334 . S
C290 H261 0.950 . S
C290 C289 1.334 . S
C290 C291 1.287 . S
C291 C290 1.287 . S
C291 C292 1.524 1_655 S
C291 H294 0.999 . S
C292 H262 0.950 . S
C292 C291 1.524 1_455 S
C292 C293 1.415 . S
C293 H263 0.950 . S
C293 C288 1.363 . S
C293 C292 1.415 . S
H294 C291 0.999 . S
H295 C276 0.913 . S
H296 C314 0.951 . S
H297 C316 0.951 . S
H298 C318 0.950 . S
H299 C319 0.950 . S
H300 C321 0.950 . S
H301 C324 0.950 . S
H302 C325 0.950 . S
H303 C327 0.950 . S
H304 C328 0.950 . S
H305 C329 0.951 . S
H306 C331 0.951 . S
H307 C333 0.950 . S
H308 C334 0.950 . S
H309 C336 0.950 . S
H310 C339 0.950 . S
H311 C340 0.950 . S
H312 C342 0.950 . S
H313 C343 0.950 . S
C314 H296 0.951 . S
C314 C315 1.366 . S
C314 C316 1.388 . S
C315 C314 1.366 . S
C315 C319 1.385 . S
C316 H297 0.951 . S
C316 C314 1.388 . S
C316 C317 1.366 . S
C317 C316 1.366 . S
C317 C318 1.414 . S
C317 C320 1.499 . S
C318 H298 0.950 . S
C318 C317 1.414 . S
C318 C319 1.374 . S
C319 H299 0.950 . S
C319 C315 1.385 . S
C319 C318 1.374 . S
C320 C317 1.499 . S
C320 C321 1.373 . S
C320 C322 1.389 . S
C321 H300 0.950 . S
C321 C320 1.373 . S
C321 C337 1.377 . S
C322 C320 1.389 . S
C322 C323 1.524 . S
C322 C336 1.377 . S
C323 C322 1.524 . S
C323 C324 1.397 1_545 S
C323 C328 1.363 . S
C324 H301 0.950 . S
C324 C323 1.397 1_565 S
C324 C325 1.334 . S
C325 H302 0.950 . S
C325 C324 1.334 . S
C325 C326 1.287 . S
C326 C325 1.287 . S
C326 C327 1.524 1_565 S
C326 H345 0.913 . S
C327 H303 0.950 . S
C327 C326 1.524 1_545 S
C327 C328 1.415 . S
C328 H304 0.950 . S
C328 C323 1.363 . S
C328 C327 1.415 . S
C329 H305 0.951 . S
C329 C330 1.366 . S
C329 C331 1.388 . S
C330 C329 1.366 . S
C330 C334 1.385 . S
C331 H306 0.951 . S
C331 C329 1.388 . S
C331 C332 1.366 . S
C332 C331 1.366 . S
C332 C333 1.414 . S
C332 C335 1.499 . S
C333 H307 0.950 . S
C333 C332 1.414 . S
C333 C334 1.374 . S
C334 H308 0.950 . S
C334 C330 1.385 . S
C334 C333 1.374 . S
C335 C332 1.499 . S
C335 C336 1.373 . S
C335 C337 1.389 . S
C336 H309 0.950 . S
C336 C322 1.377 . S
C336 C335 1.373 . S
C337 C321 1.377 . S
C337 C335 1.389 . S
C337 C338 1.524 . S
C338 C337 1.524 . S
C338 C339 1.397 . S
C338 C343 1.363 . S
C339 H310 0.950 . S
C339 C338 1.397 . S
C339 C340 1.334 . S
C340 H311 0.950 . S
C340 C339 1.334 . S
C340 C341 1.287 . S
C341 C340 1.287 . S
C341 C342 1.524 . S
C341 H344 0.999 . S
C342 H312 0.950 . S
C342 C341 1.524 . S
C342 C343 1.415 . S
C343 H313 0.950 . S
C343 C338 1.363 . S
C343 C342 1.415 . S
H344 C341 0.999 . S
H345 C326 0.913 . S
H346 C364 0.951 . S
H347 C366 0.951 . S
H348 C368 0.950 . S
H349 C369 0.950 . S
H350 C371 0.950 . S
H351 C374 0.950 . S
H352 C375 0.950 1_545 S
H353 C377 0.950 . S
H354 C378 0.950 . S
H355 C379 0.951 . S
H356 C381 0.951 . S
H357 C383 0.950 . S
H358 C384 0.950 . S
H359 C386 0.950 . S
H360 C389 0.950 . S
H361 C390 0.950 . S
H362 C392 0.950 . S
H363 C393 0.950 . S
C364 H346 0.951 . S
C364 C365 1.366 . S
C364 C366 1.388 . S
C365 C364 1.366 . S
C365 C369 1.385 . S
C366 H347 0.951 . S
C366 C364 1.388 . S
C366 C367 1.366 . S
C367 C366 1.366 . S
C367 C368 1.414 . S
C367 C370 1.499 . S
C368 H348 0.950 . S
C368 C367 1.414 . S
C368 C369 1.374 . S
C369 H349 0.950 . S
C369 C365 1.385 . S
C369 C368 1.374 . S
C370 C367 1.499 . S
C370 C371 1.373 . S
C370 C372 1.389 . S
C371 H350 0.950 . S
C371 C370 1.373 . S
C371 C387 1.377 . S
C372 C370 1.389 . S
C372 C373 1.524 . S
C372 C386 1.377 . S
C373 C372 1.524 . S
C373 C374 1.397 . S
C373 C378 1.363 . S
C374 H351 0.950 . S
C374 C373 1.397 . S
C374 C375 1.334 . S
C375 H352 0.950 1_565 S
C375 C374 1.334 . S
C375 C376 1.287 1_565 S
C376 C375 1.287 1_545 S
C376 C377 1.524 1_545 S
C376 H395 0.913 . S
C377 H353 0.950 . S
C377 C376 1.524 1_565 S
C377 C378 1.415 . S
C378 H354 0.950 . S
C378 C373 1.363 . S
C378 C377 1.415 . S
C379 H355 0.951 . S
C379 C380 1.366 . S
C379 C381 1.388 . S
C380 C379 1.366 . S
C380 C384 1.385 . S
C381 H356 0.951 . S
C381 C379 1.388 . S
C381 C382 1.366 . S
C382 C381 1.366 . S
C382 C383 1.414 . S
C382 C385 1.499 . S
C383 H357 0.950 . S
C383 C382 1.414 . S
C383 C384 1.374 . S
C384 H358 0.950 . S
C384 C380 1.385 . S
C384 C383 1.374 . S
C385 C382 1.499 . S
C385 C386 1.373 . S
C385 C387 1.389 . S
C386 H359 0.950 . S
C386 C372 1.377 . S
C386 C385 1.373 . S
C387 C371 1.377 . S
C387 C385 1.389 . S
C387 C388 1.524 . S
C388 C387 1.524 . S
C388 C389 1.397 . S
C388 C393 1.363 . S
C389 H360 0.950 . S
C389 C388 1.397 . S
C389 C390 1.334 . S
C390 H361 0.950 . S
C390 C389 1.334 . S
C390 C391 1.287 . S
C391 C390 1.287 . S
C391 C392 1.524 . S
C391 H394 0.999 . S
C392 H362 0.950 . S
C392 C391 1.524 . S
C392 C393 1.415 . S
C393 H363 0.950 . S
C393 C388 1.363 . S
C393 C392 1.415 . S
H394 C391 0.999 . S
H395 C376 0.913 . S
H396 C414 0.951 . S
H397 C416 0.951 . S
H398 C418 0.950 1_655 S
H399 C419 0.950 1_655 S
H400 C421 0.950 1_655 S
H401 C424 0.950 . S
H402 C425 0.950 . S
H403 C427 0.950 . S
H404 C428 0.950 . S
H405 C429 0.951 . S
H406 C431 0.951 . S
H407 C433 0.950 . S
H408 C434 0.950 . S
H409 C436 0.950 . S
H410 C439 0.950 1_455 S
H411 C440 0.950 . S
H412 C442 0.950 . S
H413 C443 0.950 . S
C414 H396 0.951 . S
C414 C415 1.366 . S
C414 C416 1.388 . S
C415 C414 1.366 . S
C415 C419 1.385 . S
C416 H397 0.951 . S
C416 C414 1.388 . S
C416 C417 1.366 . S
C417 C416 1.366 . S
C417 C418 1.414 . S
C417 C420 1.499 . S
C418 H398 0.950 1_455 S
C418 C417 1.414 . S
C418 C419 1.374 . S
C419 H399 0.950 1_455 S
C419 C415 1.385 . S
C419 C418 1.374 . S
C420 C417 1.499 . S
C420 C421 1.373 . S
C420 C422 1.389 . S
C421 H400 0.950 1_455 S
C421 C420 1.373 . S
C421 C437 1.377 . S
C422 C420 1.389 . S
C422 C423 1.524 . S
C422 C436 1.377 . S
C423 C422 1.524 . S
C423 C424 1.397 . S
C423 C428 1.363 . S
C424 H401 0.950 . S
C424 C423 1.397 . S
C424 C425 1.334 . S
C425 H402 0.950 . S
C425 C424 1.334 . S
C425 C426 1.287 . S
C426 C425 1.287 . S
C426 C427 1.524 . S
C426 H445 0.913 . S
C427 H403 0.950 . S
C427 C426 1.524 . S
C427 C428 1.415 . S
C428 H404 0.950 . S
C428 C423 1.363 . S
C428 C427 1.415 . S
C429 H405 0.951 . S
C429 C430 1.366 1_655 S
C429 C431 1.388 . S
C430 C429 1.366 1_455 S
C430 C434 1.385 . S
C431 H406 0.951 . S
C431 C429 1.388 . S
C431 C432 1.366 1_655 S
C432 C431 1.366 1_455 S
C432 C433 1.414 . S
C432 C435 1.499 . S
C433 H407 0.950 . S
C433 C432 1.414 . S
C433 C434 1.374 . S
C434 H408 0.950 . S
C434 C430 1.385 . S
C434 C433 1.374 . S
C435 C432 1.499 . S
C435 C436 1.373 . S
C435 C437 1.389 . S
C436 H409 0.950 . S
C436 C422 1.377 . S
C436 C435 1.373 . S
C437 C421 1.377 . S
C437 C435 1.389 . S
C437 C438 1.524 1_455 S
C438 C437 1.524 1_655 S
C438 C439 1.397 . S
C438 C443 1.363 . S
C439 H410 0.950 1_655 S
C439 C438 1.397 . S
C439 C440 1.334 . S
C440 H411 0.950 . S
C440 C439 1.334 . S
C440 C441 1.287 . S
C441 C440 1.287 . S
C441 C442 1.524 . S
C441 H444 0.999 . S
C442 H412 0.950 . S
C442 C441 1.524 . S
C442 C443 1.415 . S
C443 H413 0.950 . S
C443 C438 1.363 . S
C443 C442 1.415 . S
H444 C441 0.999 . S
H445 C426 0.913 . S
H446 C464 0.951 . S
H447 C466 0.951 . S
H448 C468 0.950 . S
H449 C469 0.950 . S
H450 C471 0.950 . S
H451 C474 0.950 . S
H452 C475 0.950 . S
H453 C477 0.950 . S
H454 C478 0.950 . S
H455 C479 0.951 . S
H456 C481 0.951 . S
H457 C483 0.950 . S
H458 C484 0.950 . S
H459 C486 0.950 . S
H460 C489 0.950 . S
H461 C490 0.950 . S
H462 C492 0.950 . S
H463 C493 0.950 . S
C464 H446 0.951 . S
C464 C465 1.366 . S
C464 C466 1.388 . S
C465 C464 1.366 . S
C465 C469 1.385 . S
C466 H447 0.951 . S
C466 C464 1.388 . S
C466 C467 1.366 . S
C467 C466 1.366 . S
C467 C468 1.414 . S
C467 C470 1.499 . S
C468 H448 0.950 . S
C468 C467 1.414 . S
C468 C469 1.374 . S
C469 H449 0.950 . S
C469 C465 1.385 . S
C469 C468 1.374 . S
C470 C467 1.499 . S
C470 C471 1.373 . S
C470 C472 1.389 . S
C471 H450 0.950 . S
C471 C470 1.373 . S
C471 C487 1.377 . S
C472 C470 1.389 . S
C472 C473 1.524 1_545 S
C472 C486 1.377 . S
C473 C472 1.524 1_565 S
C473 C474 1.397 . S
C473 C478 1.363 . S
C474 H451 0.950 . S
C474 C473 1.397 . S
C474 C475 1.334 . S
C475 H452 0.950 . S
C475 C474 1.334 . S
C475 C476 1.287 . S
C476 C475 1.287 . S
C476 C477 1.524 . S
C476 H495 0.913 . S
C477 H453 0.950 . S
C477 C476 1.524 . S
C477 C478 1.415 . S
C478 H454 0.950 . S
C478 C473 1.363 . S
C478 C477 1.415 . S
C479 H455 0.951 . S
C479 C480 1.366 . S
C479 C481 1.388 . S
C480 C479 1.366 . S
C480 C484 1.385 . S
C481 H456 0.951 . S
C481 C479 1.388 . S
C481 C482 1.366 . S
C482 C481 1.366 . S
C482 C483 1.414 . S
C482 C485 1.499 . S
C483 H457 0.950 . S
C483 C482 1.414 . S
C483 C484 1.374 . S
C484 H458 0.950 . S
C484 C480 1.385 . S
C484 C483 1.374 . S
C485 C482 1.499 . S
C485 C486 1.373 . S
C485 C487 1.389 . S
C486 H459 0.950 . S
C486 C472 1.377 . S
C486 C485 1.373 . S
C487 C471 1.377 . S
C487 C485 1.389 . S
C487 C488 1.524 . S
C488 C487 1.524 . S
C488 C489 1.397 . S
C488 C493 1.363 . S
C489 H460 0.950 . S
C489 C488 1.397 . S
C489 C490 1.334 . S
C490 H461 0.950 . S
C490 C489 1.334 . S
C490 C491 1.287 . S
C491 C490 1.287 . S
C491 C492 1.524 . S
C491 H494 0.999 . S
C492 H462 0.950 . S
C492 C491 1.524 . S
C492 C493 1.415 . S
C493 H463 0.950 . S
C493 C488 1.363 . S
C493 C492 1.415 . S
H494 C491 0.999 . S
H495 C476 0.913 . S
H496 C514 0.951 . S
H497 C516 0.951 . S
H498 C518 0.950 . S
H499 C519 0.950 . S
H500 C521 0.950 . S
H501 C524 0.950 . S
H502 C525 0.950 . S
H503 C527 0.950 . S
H504 C528 0.950 . S
H505 C529 0.951 . S
H506 C531 0.951 . S
H507 C533 0.950 . S
H508 C534 0.950 . S
H509 C536 0.950 . S
H510 C539 0.950 . S
H511 C540 0.950 . S
H512 C542 0.950 . S
H513 C543 0.950 . S
C514 H496 0.951 . S
C514 C515 1.366 . S
C514 C516 1.388 . S
C515 C514 1.366 . S
C515 C519 1.385 . S
C516 H497 0.951 . S
C516 C514 1.388 . S
C516 C517 1.366 . S
C517 C516 1.366 . S
C517 C518 1.414 . S
C517 C520 1.499 . S
C518 H498 0.950 . S
C518 C517 1.414 . S
C518 C519 1.374 . S
C519 H499 0.950 . S
C519 C515 1.385 . S
C519 C518 1.374 . S
C520 C517 1.499 . S
C520 C521 1.373 . S
C520 C522 1.389 . S
C521 H500 0.950 . S
C521 C520 1.373 . S
C521 C537 1.377 . S
C522 C520 1.389 . S
C522 C523 1.524 . S
C522 C536 1.377 . S
C523 C522 1.524 . S
C523 C524 1.397 . S
C523 C528 1.363 . S
C524 H501 0.950 . S
C524 C523 1.397 . S
C524 C525 1.334 . S
C525 H502 0.950 . S
C525 C524 1.334 . S
C525 C526 1.287 . S
C526 C525 1.287 . S
C526 C527 1.524 . S
C526 H545 0.913 . S
C527 H503 0.950 . S
C527 C526 1.524 . S
C527 C528 1.415 . S
C528 H504 0.950 . S
C528 C523 1.363 . S
C528 C527 1.415 . S
C529 H505 0.951 . S
C529 C530 1.366 . S
C529 C531 1.388 . S
C530 C529 1.366 . S
C530 C534 1.385 . S
C531 H506 0.951 . S
C531 C529 1.388 . S
C531 C532 1.366 . S
C532 C531 1.366 . S
C532 C533 1.414 . S
C532 C535 1.499 . S
C533 H507 0.950 . S
C533 C532 1.414 . S
C533 C534 1.374 . S
C534 H508 0.950 . S
C534 C530 1.385 . S
C534 C533 1.374 . S
C535 C532 1.499 . S
C535 C536 1.373 . S
C535 C537 1.389 . S
C536 H509 0.950 . S
C536 C522 1.377 . S
C536 C535 1.373 . S
C537 C521 1.377 . S
C537 C535 1.389 . S
C537 C538 1.524 . S
C538 C537 1.524 . S
C538 C539 1.397 . S
C538 C543 1.363 . S
C539 H510 0.950 . S
C539 C538 1.397 . S
C539 C540 1.334 . S
C540 H511 0.950 . S
C540 C539 1.334 . S
C540 C541 1.287 . S
C541 C540 1.287 . S
C541 C542 1.524 . S
C541 H544 0.999 . S
C542 H512 0.950 . S
C542 C541 1.524 . S
C542 C543 1.415 . S
C543 H513 0.950 . S
C543 C538 1.363 . S
C543 C542 1.415 . S
H544 C541 0.999 . S
H545 C526 0.913 . S
H546 C564 0.951 . S
H547 C566 0.951 . S
H548 C568 0.950 . S
H549 C569 0.950 . S
H550 C571 0.950 . S
H551 C574 0.950 . S
H552 C575 0.950 . S
H553 C577 0.950 . S
H554 C578 0.950 . S
H555 C579 0.951 . S
H556 C581 0.951 . S
H557 C583 0.950 . S
H558 C584 0.950 . S
H559 C586 0.950 . S
H560 C589 0.950 . S
H561 C590 0.950 . S
H562 C592 0.950 . S
H563 C593 0.950 . S
C564 H546 0.951 . S
C564 C565 1.366 . S
C564 C566 1.388 . S
C565 C564 1.366 . S
C565 C569 1.385 . S
C566 H547 0.951 . S
C566 C564 1.388 . S
C566 C567 1.366 . S
C567 C566 1.366 . S
C567 C568 1.414 . S
C567 C570 1.499 . S
C568 H548 0.950 . S
C568 C567 1.414 . S
C568 C569 1.374 . S
C569 H549 0.950 . S
C569 C565 1.385 . S
C569 C568 1.374 . S
C570 C567 1.499 . S
C570 C571 1.373 . S
C570 C572 1.389 . S
C571 H550 0.950 . S
C571 C570 1.373 . S
C571 C587 1.377 . S
C572 C570 1.389 . S
C572 C573 1.524 . S
C572 C586 1.377 . S
C573 C572 1.524 . S
C573 C574 1.397 . S
C573 C578 1.363 . S
C574 H551 0.950 . S
C574 C573 1.397 . S
C574 C575 1.334 . S
C575 H552 0.950 . S
C575 C574 1.334 . S
C575 C576 1.287 . S
C576 C575 1.287 . S
C576 C577 1.524 . S
C576 H595 0.913 1_655 S
C577 H553 0.950 . S
C577 C576 1.524 . S
C577 C578 1.415 . S
C578 H554 0.950 . S
C578 C573 1.363 . S
C578 C577 1.415 . S
C579 H555 0.951 . S
C579 C580 1.366 . S
C579 C581 1.388 . S
C580 C579 1.366 . S
C580 C584 1.385 . S
C581 H556 0.951 . S
C581 C579 1.388 . S
C581 C582 1.366 . S
C582 C581 1.366 . S
C582 C583 1.414 . S
C582 C585 1.499 . S
C583 H557 0.950 . S
C583 C582 1.414 . S
C583 C584 1.374 . S
C584 H558 0.950 . S
C584 C580 1.385 . S
C584 C583 1.374 . S
C585 C582 1.499 . S
C585 C586 1.373 . S
C585 C587 1.389 . S
C586 H559 0.950 . S
C586 C572 1.377 . S
C586 C585 1.373 . S
C587 C571 1.377 . S
C587 C585 1.389 . S
C587 C588 1.524 . S
C588 C587 1.524 . S
C588 C589 1.397 1_545 S
C588 C593 1.363 . S
C589 H560 0.950 . S
C589 C588 1.397 1_565 S
C589 C590 1.334 . S
C590 H561 0.950 . S
C590 C589 1.334 . S
C590 C591 1.287 . S
C591 C590 1.287 . S
C591 C592 1.524 . S
C591 H594 0.999 . S
C592 H562 0.950 . S
C592 C591 1.524 . S
C592 C593 1.415 1_565 S
C593 H563 0.950 . S
C593 C588 1.363 . S
C593 C592 1.415 1_545 S
H594 C591 0.999 . S
H595 C576 0.913 1_455 S
H596 C614 0.951 . S
H597 C616 0.951 . S
H598 C618 0.950 . S
H599 C619 0.950 1_546 S
H600 C621 0.950 . S
H601 C624 0.950 . S
H602 C625 0.959 . S
H603 C627 0.950 . S
H604 C628 0.950 . S
H605 C629 0.951 . S
H606 C631 0.951 . S
H607 C633 0.950 . S
H608 C634 0.950 . S
H609 C636 0.950 . S
H610 C639 0.950 . S
H611 C640 0.950 . S
H612 C642 0.950 . S
H613 C643 0.950 . S
C614 H596 0.951 . S
C614 C615 1.366 . S
C614 C616 1.388 . S
C615 C614 1.366 . S
C615 C619 1.385 . S
C616 H597 0.951 . S
C616 C614 1.388 . S
C616 C617 1.366 1_554 S
C617 C616 1.366 1_556 S
C617 C618 1.414 . S
C617 C620 1.499 . S
C618 H598 0.950 . S
C618 C617 1.414 . S
C618 C619 1.374 1_556 S
C619 H599 0.950 1_564 S
C619 C615 1.385 . S
C619 C618 1.374 1_554 S
C620 C617 1.499 . S
C620 C621 1.373 . S
C620 C622 1.389 . S
C621 H600 0.950 . S
C621 C620 1.373 . S
C621 C637 1.377 . S
C622 C620 1.389 . S
C622 C623 1.524 . S
C622 C636 1.377 . S
C623 C622 1.524 . S
C623 C624 1.397 . S
C623 C628 1.363 1_556 S
C624 H601 0.950 . S
C624 C623 1.397 . S
C624 C625 1.334 1_556 S
C625 H602 0.959 . S
C625 C624 1.334 1_554 S
C625 C626 1.287 . S
C626 C625 1.287 . S
C626 C627 1.524 . S
C626 H645 0.913 . S
C627 H603 0.950 . S
C627 C626 1.524 . S
C627 C628 1.415 . S
C628 H604 0.950 . S
C628 C623 1.363 1_554 S
C628 C627 1.415 . S
C629 H605 0.951 . S
C629 C630 1.366 . S
C629 C631 1.388 . S
C630 C629 1.366 . S
C630 C634 1.385 . S
C631 H606 0.951 . S
C631 C629 1.388 . S
C631 C632 1.366 . S
C632 C631 1.366 . S
C632 C633 1.414 . S
C632 C635 1.499 . S
C633 H607 0.950 . S
C633 C632 1.414 . S
C633 C634 1.374 . S
C634 H608 0.950 . S
C634 C630 1.385 . S
C634 C633 1.374 . S
C635 C632 1.499 . S
C635 C636 1.373 . S
C635 C637 1.389 . S
C636 H609 0.950 . S
C636 C622 1.377 . S
C636 C635 1.373 . S
C637 C621 1.377 . S
C637 C635 1.389 . S
C637 C638 1.524 . S
C638 C637 1.524 . S
C638 C639 1.397 . S
C638 C643 1.363 . S
C639 H610 0.950 . S
C639 C638 1.397 . S
C639 C640 1.334 . S
C640 H611 0.950 . S
C640 C639 1.334 . S
C640 C641 1.287 . S
C641 C640 1.287 . S
C641 C642 1.524 . S
C641 H644 0.999 . S
C642 H612 0.950 . S
C642 C641 1.524 . S
C642 C643 1.415 . S
C643 H613 0.950 . S
C643 C638 1.363 . S
C643 C642 1.415 . S
H644 C641 0.999 . S
H645 C626 0.913 . S
H646 C664 0.943 1_655 S
H647 C666 0.951 . S
H648 C668 0.950 . S
H649 C669 0.950 . S
H650 C671 0.950 . S
H651 C674 0.950 . S
H652 C675 0.950 . S
H653 C677 0.950 . S
H654 C678 0.950 . S
H655 C679 0.951 . S
H656 C681 0.951 . S
H657 C683 0.950 . S
H658 C684 0.950 . S
H659 C686 0.950 . S
H660 C689 0.950 . S
H661 C690 0.950 . S
H662 C692 0.950 . S
H663 C693 0.950 . S
C664 H646 0.943 1_455 S
C664 C665 1.366 . S
C664 C666 1.388 . S
C665 C664 1.366 . S
C665 C669 1.385 . S
C666 H647 0.951 . S
C666 C664 1.388 . S
C666 C667 1.366 . S
C667 C666 1.366 . S
C667 C668 1.414 . S
C667 C670 1.499 . S
C668 H648 0.950 . S
C668 C667 1.414 . S
C668 C669 1.374 . S
C669 H649 0.950 . S
C669 C665 1.385 . S
C669 C668 1.374 . S
C670 C667 1.499 . S
C670 C671 1.373 . S
C670 C672 1.389 1_455 S
C671 H650 0.950 . S
C671 C670 1.373 . S
C671 C687 1.377 . S
C672 C670 1.389 1_655 S
C672 C673 1.524 . S
C672 C686 1.377 . S
C673 C672 1.524 . S
C673 C674 1.397 . S
C673 C678 1.363 . S
C674 H651 0.950 . S
C674 C673 1.397 . S
C674 C675 1.334 . S
C675 H652 0.950 . S
C675 C674 1.334 . S
C675 C676 1.287 . S
C676 C675 1.287 . S
C676 C677 1.524 . S
C676 H695 0.913 . S
C677 H653 0.950 . S
C677 C676 1.524 . S
C677 C678 1.415 . S
C678 H654 0.950 . S
C678 C673 1.363 . S
C678 C677 1.415 . S
C679 H655 0.951 . S
C679 C680 1.366 . S
C679 C681 1.388 . S
C680 C679 1.366 . S
C680 C684 1.385 . S
C681 H656 0.951 . S
C681 C679 1.388 . S
C681 C682 1.366 . S
C682 C681 1.366 . S
C682 C683 1.414 . S
C682 C685 1.499 . S
C683 H657 0.950 . S
C683 C682 1.414 . S
C683 C684 1.374 . S
C684 H658 0.950 . S
C684 C680 1.385 . S
C684 C683 1.374 . S
C685 C682 1.499 . S
C685 C686 1.373 1_455 S
C685 C687 1.389 . S
C686 H659 0.950 . S
C686 C672 1.377 . S
C686 C685 1.373 1_655 S
C687 C671 1.377 . S
C687 C685 1.389 . S
C687 C688 1.524 . S
C688 C687 1.524 . S
C688 C689 1.397 . S
C688 C693 1.363 . S
C689 H660 0.950 . S
C689 C688 1.397 . S
C689 C690 1.334 . S
C690 H661 0.950 . S
C690 C689 1.334 . S
C690 C691 1.287 . S
C691 C690 1.287 . S
C691 C692 1.524 . S
C691 H694 0.999 . S
C692 H662 0.950 . S
C692 C691 1.524 . S
C692 C693 1.415 . S
C693 H663 0.950 . S
C693 C688 1.363 . S
C693 C692 1.415 . S
H694 C691 0.999 . S
H695 C676 0.913 . S
H696 C714 0.951 . S
H697 C716 0.951 . S
H698 C718 0.950 . S
H699 C719 0.950 . S
H700 C721 0.950 . S
H701 C724 0.950 . S
H702 C725 0.950 . S
H703 C727 0.950 . S
H704 C728 0.950 . S
H705 C729 0.951 . S
H706 C731 0.951 . S
H707 C733 0.950 . S
H708 C734 0.950 . S
H709 C736 0.950 . S
H710 C739 0.950 . S
H711 C740 0.950 . S
H712 C742 0.950 . S
H713 C743 0.950 . S
C714 H696 0.951 . S
C714 C715 1.366 . S
C714 C716 1.388 . S
C715 C714 1.366 . S
C715 C719 1.385 . S
C716 H697 0.951 . S
C716 C714 1.388 . S
C716 C717 1.366 . S
C717 C716 1.366 . S
C717 C718 1.414 . S
C717 C720 1.499 . S
C718 H698 0.950 . S
C718 C717 1.414 . S
C718 C719 1.374 . S
C719 H699 0.950 . S
C719 C715 1.385 . S
C719 C718 1.374 . S
C720 C717 1.499 . S
C720 C721 1.373 . S
C720 C722 1.389 . S
C721 H700 0.950 . S
C721 C720 1.373 . S
C721 C737 1.377 . S
C722 C720 1.389 . S
C722 C723 1.524 . S
C722 C736 1.377 . S
C723 C722 1.524 . S
C723 C724 1.397 . S
C723 C728 1.363 . S
C724 H701 0.950 . S
C724 C723 1.397 . S
C724 C725 1.334 . S
C725 H702 0.950 . S
C725 C724 1.334 . S
C725 C726 1.287 . S
C726 C725 1.287 . S
C726 C727 1.524 . S
C726 H745 0.913 . S
C727 H703 0.950 . S
C727 C726 1.524 . S
C727 C728 1.415 . S
C728 H704 0.950 . S
C728 C723 1.363 . S
C728 C727 1.415 . S
C729 H705 0.951 . S
C729 C730 1.366 . S
C729 C731 1.388 . S
C730 C729 1.366 . S
C730 C734 1.385 . S
C731 H706 0.951 . S
C731 C729 1.388 . S
C731 C732 1.366 . S
C732 C731 1.366 . S
C732 C733 1.414 . S
C732 C735 1.499 . S
C733 H707 0.950 . S
C733 C732 1.414 . S
C733 C734 1.374 . S
C734 H708 0.950 . S
C734 C730 1.385 . S
C734 C733 1.374 . S
C735 C732 1.499 . S
C735 C736 1.373 . S
C735 C737 1.389 . S
C736 H709 0.950 . S
C736 C722 1.377 . S
C736 C735 1.373 . S
C737 C721 1.377 . S
C737 C735 1.389 . S
C737 C738 1.524 1_545 S
C738 C737 1.524 1_565 S
C738 C739 1.397 . S
C738 C743 1.363 . S
C739 H710 0.950 . S
C739 C738 1.397 . S
C739 C740 1.334 . S
C740 H711 0.950 . S
C740 C739 1.334 . S
C740 C741 1.287 . S
C741 C740 1.287 . S
C741 C742 1.524 . S
C741 H744 0.999 . S
C742 H712 0.950 . S
C742 C741 1.524 . S
C742 C743 1.415 . S
C743 H713 0.950 . S
C743 C738 1.363 . S
C743 C742 1.415 . S
H744 C741 0.999 . S
H745 C726 0.913 . S
H746 C764 0.951 . S
H747 C766 0.951 . S
H748 C768 0.950 . S
H749 C769 0.946 1_556 S
H750 C771 0.950 . S
H751 C774 0.950 1_556 S
H752 C775 0.950 . S
H753 C777 0.950 . S
H754 C778 0.950 . S
H755 C779 0.951 . S
H756 C781 0.951 . S
H757 C783 0.950 . S
H758 C784 0.950 . S
H759 C786 0.950 . S
H760 C789 0.950 . S
H761 C790 0.950 . S
H762 C792 0.950 . S
H763 C793 0.950 . S
C764 H746 0.951 . S
C764 C765 1.366 . S
C764 C766 1.388 . S
C765 C764 1.366 . S
C765 C769 1.396 . S
C766 H747 0.951 . S
C766 C764 1.388 . S
C766 C767 1.366 1_554 S
C767 C766 1.366 1_556 S
C767 C768 1.414 . S
C767 C770 1.499 . S
C768 H748 0.950 . S
C768 C767 1.414 . S
C768 C769 1.366 1_556 S
C769 H749 0.946 1_554 S
C769 C765 1.396 . S
C769 C768 1.366 1_554 S
C770 C767 1.499 . S
C770 C771 1.373 . S
C770 C772 1.389 . S
C771 H750 0.950 . S
C771 C770 1.373 . S
C771 C787 1.377 . S
C772 C770 1.389 . S
C772 C773 1.524 1_556 S
C772 C786 1.377 . S
C773 C772 1.524 1_554 S
C773 C774 1.397 . S
C773 C778 1.363 . S
C774 H751 0.950 1_554 S
C774 C773 1.397 . S
C774 C775 1.334 . S
C775 H752 0.950 . S
C775 C774 1.334 . S
C775 C776 1.287 . S
C776 C775 1.287 . S
C776 C777 1.524 . S
C776 H795 0.913 . S
C777 H753 0.950 . S
C777 C776 1.524 . S
C777 C778 1.415 . S
C778 H754 0.950 . S
C778 C773 1.363 . S
C778 C777 1.415 . S
C779 H755 0.951 . S
C779 C780 1.366 . S
C779 C781 1.388 . S
C780 C779 1.366 . S
C780 C784 1.385 . S
C781 H756 0.951 . S
C781 C779 1.388 . S
C781 C782 1.366 . S
C782 C781 1.366 . S
C782 C783 1.414 . S
C782 C785 1.499 . S
C783 H757 0.950 . S
C783 C782 1.414 . S
C783 C784 1.374 . S
C784 H758 0.950 . S
C784 C780 1.385 . S
C784 C783 1.374 . S
C785 C782 1.499 . S
C785 C786 1.373 . S
C785 C787 1.389 . S
C786 H759 0.950 . S
C786 C772 1.377 . S
C786 C785 1.373 . S
C787 C771 1.377 . S
C787 C785 1.389 . S
C787 C788 1.524 . S
C788 C787 1.524 . S
C788 C789 1.397 . S
C788 C793 1.363 . S
C789 H760 0.950 . S
C789 C788 1.397 . S
C789 C790 1.334 . S
C790 H761 0.950 . S
C790 C789 1.334 . S
C790 C791 1.287 . S
C791 C790 1.287 . S
C791 C792 1.524 . S
C791 H794 0.999 . S
C792 H762 0.950 . S
C792 C791 1.524 . S
C792 C793 1.415 . S
C793 H763 0.950 . S
C793 C788 1.363 . S
C793 C792 1.415 . S
H794 C791 0.999 . S
H795 C776 0.913 . S
H796 C814 0.951 . S
H797 C816 0.951 . S
H798 C818 0.950 . S
H799 C819 0.950 . S
H800 C821 0.950 . S
H801 C824 0.950 . S
H802 C825 0.950 . S
H803 C827 0.950 . S
H804 C828 0.950 . S
H805 C829 0.951 . S
H806 C831 0.951 . S
H807 C833 0.950 . S
H808 C834 0.950 . S
H809 C836 0.950 . S
H810 C839 0.950 . S
H811 C840 0.950 1_455 S
H812 C842 0.950 . S
H813 C843 0.950 . S
C814 H796 0.951 . S
C814 C815 1.366 . S
C814 C816 1.388 . S
C815 C814 1.366 . S
C815 C819 1.385 1_455 S
C816 H797 0.951 . S
C816 C814 1.388 . S
C816 C817 1.366 . S
C817 C816 1.366 . S
C817 C818 1.414 1_455 S
C817 C820 1.499 . S
C818 H798 0.950 . S
C818 C817 1.414 1_655 S
C818 C819 1.374 . S
C819 H799 0.950 . S
C819 C815 1.385 1_655 S
C819 C818 1.374 . S
C820 C817 1.499 . S
C820 C821 1.373 1_455 S
C820 C822 1.389 . S
C821 H800 0.950 . S
C821 C820 1.373 1_655 S
C821 C837 1.371 . S
C822 C820 1.389 . S
C822 C823 1.524 . S
C822 C836 1.377 . S
C823 C822 1.524 . S
C823 C824 1.397 . S
C823 C828 1.363 . S
C824 H801 0.950 . S
C824 C823 1.397 . S
C824 C825 1.334 . S
C825 H802 0.950 . S
C825 C824 1.334 . S
C825 C826 1.287 . S
C826 C825 1.287 . S
C826 C827 1.524 . S
C826 H845 0.913 . S
C827 H803 0.950 . S
C827 C826 1.524 . S
C827 C828 1.415 . S
C828 H804 0.950 . S
C828 C823 1.363 . S
C828 C827 1.415 . S
C829 H805 0.951 . S
C829 C830 1.366 1_655 S
C829 C831 1.388 . S
C830 C829 1.366 1_455 S
C830 C834 1.385 . S
C831 H806 0.951 . S
C831 C829 1.388 . S
C831 C832 1.366 1_655 S
C832 C831 1.366 1_455 S
C832 C833 1.414 . S
C832 C835 1.499 . S
C833 H807 0.950 . S
C833 C832 1.414 . S
C833 C834 1.374 . S
C834 H808 0.950 . S
C834 C830 1.385 . S
C834 C833 1.374 . S
C835 C832 1.499 . S
C835 C836 1.373 . S
C835 C837 1.390 1_455 S
C836 H809 0.950 . S
C836 C822 1.377 . S
C836 C835 1.373 . S
C837 C821 1.371 . S
C837 C835 1.390 1_655 S
C837 C838 1.528 . S
C838 C837 1.528 . S
C838 C839 1.397 1_655 S
C838 C843 1.363 . S
C839 H810 0.950 . S
C839 C838 1.397 1_455 S
C839 C840 1.334 1_455 S
C840 H811 0.950 1_655 S
C840 C839 1.334 1_655 S
C840 C841 1.287 . S
C841 C840 1.287 . S
C841 C842 1.524 . S
C841 H844 0.999 . S
C842 H812 0.950 . S
C842 C841 1.524 . S
C842 C843 1.415 . S
C843 H813 0.950 . S
C843 C838 1.363 . S
C843 C842 1.415 . S
H844 C841 0.999 . S
H845 C826 0.913 . S
C280 C116 1.471 . S
C265 C14 1.424 . S
C315 C40 1.484 . S
C330 C155 1.496 . S
C365 C76 1.464 . S
C380 C222 1.478 . S
C415 C3 1.458 . S
C430 C123 1.456 . S
C480 C176 1.495 . S
C465 C38 1.481 . S
C515 C74 1.456 . S
C530 C201 1.470 . S
C580 C162 1.445 . S
C565 C86 1.398 . S
C615 C2 1.456 1_565 S
C630 C215 1.471 . S
C680 C130 1.456 . S
C665 C39 1.456 . S
C730 C169 1.457 . S
C715 C75 1.456 . S
C780 C208 1.476 . S
C765 C4 1.464 . S
C815 C50 1.424 . S
C830 C109 1.471 . S
