# Generated by pormake.
# Topology pyr, (3,6)-cn, num edge types: 1
# Building blocks:
#     Node 0, Type 0, BuildingBlock: BELTOD_clean_linker_0, # of connection points: 3
#     Node 1, Type 0, BuildingBlock: BELTOD_clean_linker_0, # of connection points: 3
#     Node 2, Type 0, BuildingBlock: BELTOD_clean_linker_0, # of connection points: 3
#     Node 3, Type 0, BuildingBlock: BELTOD_clean_linker_0, # of connection points: 3
#     Node 4, Type 0, BuildingBlock: BELTOD_clean_linker_0, # of connection points: 3
#     Node 5, Type 0, BuildingBlock: BELTOD_clean_linker_0, # of connection points: 3
#     Node 6, Type 0, BuildingBlock: BELTOD_clean_linker_0, # of connection points: 3
#     Node 7, Type 0, BuildingBlock: BELTOD_clean_linker_0, # of connection points: 3
#     Node 8, Type 1, BuildingBlock: MIFKUJ_clean_sbu_0, # of connection points: 6
#     Node 9, Type 1, BuildingBlock: MIFKUJ_clean_sbu_0, # of connection points: 6
#     Node 10, Type 1, BuildingBlock: MIFKUJ_clean_sbu_0, # of connection points: 6
#     Node 11, Type 1, BuildingBlock: MIFKUJ_clean_sbu_0, # of connection points: 6
#     Edge 12, Type (0, 1), BuildingBlock: OJICUG_clean_linker_0, # of connection points: 2
#     Edge 13, Type (0, 1), BuildingBlock: OJICUG_clean_linker_0, # of connection points: 2
#     Edge 14, Type (0, 1), BuildingBlock: OJICUG_clean_linker_0, # of connection points: 2
#     Edge 15, Type (0, 1), BuildingBlock: OJICUG_clean_linker_0, # of connection points: 2
#     Edge 16, Type (0, 1), BuildingBlock: OJICUG_clean_linker_0, # of connection points: 2
#     Edge 17, Type (0, 1), BuildingBlock: OJICUG_clean_linker_0, # of connection points: 2
#     Edge 18, Type (0, 1), BuildingBlock: OJICUG_clean_linker_0, # of connection points: 2
#     Edge 19, Type (0, 1), BuildingBlock: OJICUG_clean_linker_0, # of connection points: 2
#     Edge 20, Type (0, 1), BuildingBlock: OJICUG_clean_linker_0, # of connection points: 2
#     Edge 21, Type (0, 1), BuildingBlock: OJICUG_clean_linker_0, # of connection points: 2
#     Edge 22, Type (0, 1), BuildingBlock: OJICUG_clean_linker_0, # of connection points: 2
#     Edge 23, Type (0, 1), BuildingBlock: OJICUG_clean_linker_0, # of connection points: 2
#     Edge 24, Type (0, 1), BuildingBlock: OJICUG_clean_linker_0, # of connection points: 2
#     Edge 25, Type (0, 1), BuildingBlock: OJICUG_clean_linker_0, # of connection points: 2
#     Edge 26, Type (0, 1), BuildingBlock: OJICUG_clean_linker_0, # of connection points: 2
#     Edge 27, Type (0, 1), BuildingBlock: OJICUG_clean_linker_0, # of connection points: 2
#     Edge 28, Type (0, 1), BuildingBlock: OJICUG_clean_linker_0, # of connection points: 2
#     Edge 29, Type (0, 1), BuildingBlock: OJICUG_clean_linker_0, # of connection points: 2
#     Edge 30, Type (0, 1), BuildingBlock: OJICUG_clean_linker_0, # of connection points: 2
#     Edge 31, Type (0, 1), BuildingBlock: OJICUG_clean_linker_0, # of connection points: 2
#     Edge 32, Type (0, 1), BuildingBlock: OJICUG_clean_linker_0, # of connection points: 2
#     Edge 33, Type (0, 1), BuildingBlock: OJICUG_clean_linker_0, # of connection points: 2
#     Edge 34, Type (0, 1), BuildingBlock: OJICUG_clean_linker_0, # of connection points: 2
#     Edge 35, Type (0, 1), BuildingBlock: OJICUG_clean_linker_0, # of connection points: 2
# Relax obj value: 0.036
# Max RMSD: 0.090
# Mean RMSD: 0.054
data_MOF--net-pyr--node1-MIFKUJ_clean_sbu_0--node2-BELTOD_clean_linker_0--edge1-OJICUG_clean_linker_0
_symmetry_space_group_name_H-M    P1
_symmetry_Int_Tables_number       1
_symmetry_cell_setting            triclinic
loop_
_symmetry_equiv_pos_as_xyz
'x, y, z'
_cell_length_a     34.710114
_cell_length_b     31.604073
_cell_length_c     32.913854
_cell_angle_alpha  85.396836
_cell_angle_beta   87.905563
_cell_angle_gamma 97.159968
loop_
_atom_site_label
_atom_site_type_symbol
_atom_site_fract_x
_atom_site_fract_y
_atom_site_fract_z
_atom_type_partial_charge
P0 P 0.24208 0.22686 0.25613 0.0
H1 H 0.31924 0.24599 0.21579 0.0
H2 H 0.35828 0.20443 0.17456 0.0
H3 H 0.26583 0.09856 0.18819 0.0
H4 H 0.22712 0.1402 0.22947 0.0
H5 H 0.19242 0.29106 0.27382 0.0
H6 H 0.1483 0.32877 0.23279 0.0
H7 H 0.18869 0.27313 0.12567 0.0
H8 H 0.23073 0.23361 0.16748 0.0
H9 H 0.25332 0.17488 0.33132 0.0
H10 H 0.15779 0.20047 0.25676 0.0
O11 O 0.27145 0.25863 0.28301 0.0
H12 H 0.20839 0.1263 0.37819 0.0
H13 H 0.11291 0.15486 0.30418 0.0
C14 C 0.27081 0.19574 0.22655 0.0
C15 C 0.30754 0.21373 0.21009 0.0
C16 C 0.32963 0.19011 0.18623 0.0
C17 C 0.3152 0.14812 0.17834 0.0
C18 C 0.27798 0.13055 0.1943 0.0
C19 C 0.25586 0.15431 0.21795 0.0
C20 C 0.21492 0.25968 0.22376 0.0
C21 C 0.19199 0.28742 0.24138 0.0
C22 C 0.16679 0.30905 0.21776 0.0
C23 C 0.16455 0.30393 0.17576 0.0
C24 C 0.18878 0.27715 0.15802 0.0
C25 C 0.21341 0.25491 0.18187 0.0
C26 C 0.20889 0.19199 0.29102 0.0
C27 C 0.22265 0.17053 0.32537 0.0
C28 C 0.19691 0.14299 0.35222 0.0
C29 C 0.15694 0.13658 0.34505 0.0
C30 C 0.1435 0.1583 0.31044 0.0
C31 C 0.16924 0.18514 0.28344 0.0
P32 P 0.3776 0.88373 0.65339 0.0
H33 H 0.44521 0.93024 0.68723 0.0
H34 H 0.46181 0.94371 0.75685 0.0
H35 H 0.35472 0.86773 0.80293 0.0
H36 H 0.33803 0.85457 0.73275 0.0
H37 H 0.38996 0.85285 0.57413 0.0
H38 H 0.40298 0.78378 0.55221 0.0
H39 H 0.39785 0.73188 0.67806 0.0
H40 H 0.38491 0.80127 0.69987 0.0
H41 H 0.33549 0.95369 0.67162 0.0
H42 H 0.30999 0.83113 0.62271 0.0
O43 O 0.40425 0.92129 0.62211 0.0
H44 H 0.26895 0.96812 0.66069 0.0
H45 H 0.24335 0.84558 0.61155 0.0
C46 C 0.39027 0.89174 0.70492 0.0
C47 C 0.4252 0.91659 0.71223 0.0
C48 C 0.43454 0.92448 0.75201 0.0
C49 C 0.4093 0.90719 0.78521 0.0
C50 C 0.37463 0.88148 0.77786 0.0
C51 C 0.3651 0.87399 0.7379 0.0
C52 C 0.3872 0.83239 0.63858 0.0
C53 C 0.39178 0.82665 0.59702 0.0
C54 C 0.39888 0.7871 0.58453 0.0
C55 C 0.40153 0.75251 0.61345 0.0
C56 C 0.39643 0.75818 0.65516 0.0
C57 C 0.389 0.7978 0.66763 0.0
C58 C 0.32763 0.89144 0.64803 0.0
C59 C 0.31542 0.92971 0.65895 0.0
C60 C 0.27741 0.93783 0.65285 0.0
C61 C 0.25107 0.90788 0.63536 0.0
C62 C 0.26322 0.86925 0.62486 0.0
C63 C 0.30127 0.86099 0.63131 0.0
P64 P 0.68673 0.3107 0.78285 0.0
H65 H 0.7516 0.28266 0.82644 0.0
H66 H 0.80628 0.32092 0.85899 0.0
H67 H 0.7599 0.43998 0.83106 0.0
H68 H 0.7053 0.40151 0.79853 0.0
H69 H 0.62201 0.24658 0.76893 0.0
H70 H 0.58142 0.19254 0.81469 0.0
H71 H 0.63573 0.2458 0.91846 0.0
H72 H 0.67606 0.29966 0.8727 0.0
H73 H 0.7095 0.3503 0.70153 0.0
H74 H 0.61358 0.34943 0.78872 0.0
O75 O 0.70793 0.27802 0.75431 0.0
H76 H 0.67661 0.39247 0.65134 0.0
H77 H 0.58037 0.39201 0.73835 0.0
C78 C 0.72481 0.33934 0.80949 0.0
C79 C 0.75311 0.31699 0.82757 0.0
C80 C 0.78419 0.33882 0.84641 0.0
C81 C 0.78756 0.3835 0.8473 0.0
C82 C 0.75837 0.40561 0.8303 0.0
C83 C 0.72712 0.38366 0.81174 0.0
C84 C 0.65225 0.2769 0.81733 0.0
C85 C 0.62459 0.24711 0.80159 0.0
C86 C 0.60136 0.21632 0.82777 0.0
C87 C 0.60565 0.21469 0.87016 0.0
C88 C 0.63217 0.2459 0.88589 0.0
C89 C 0.65519 0.27683 0.8597 0.0
C90 C 0.66354 0.34585 0.74842 0.0
C91 C 0.68142 0.35941 0.70994 0.0
C92 C 0.66262 0.38352 0.6813 0.0
C93 C 0.62573 0.39508 0.69078 0.0
C94 C 0.6088 0.38358 0.73025 0.0
C95 C 0.62761 0.35905 0.75891 0.0
P96 P 0.80539 0.69371 0.24512 0.0
H97 H 0.82771 0.7864 0.23547 0.0
H98 H 0.85749 0.8366 0.28157 0.0
H99 H 0.8775 0.73087 0.36608 0.0
H100 H 0.84655 0.68042 0.32031 0.0
H101 H 0.79072 0.6543 0.16975 0.0
H102 H 0.82821 0.61278 0.12744 0.0
H103 H 0.92023 0.62204 0.21252 0.0
H104 H 0.88206 0.66302 0.25518 0.0
H105 H 0.75157 0.71556 0.30734 0.0
H106 H 0.77959 0.60071 0.25694 0.0
O107 O 0.78116 0.72276 0.21274 0.0
H108 H 0.69858 0.67361 0.34965 0.0
H109 H 0.72693 0.55858 0.29934 0.0
C110 C 0.83464 0.72972 0.27469 0.0
C111 C 0.83898 0.77385 0.26356 0.0
C112 C 0.85599 0.80252 0.28983 0.0
C113 C 0.86948 0.78738 0.32726 0.0
C114 C 0.86744 0.74312 0.33721 0.0
C115 C 0.84981 0.71442 0.31116 0.0
C116 C 0.83384 0.66244 0.21522 0.0
C117 C 0.81901 0.6475 0.17928 0.0
C118 C 0.84057 0.62386 0.15502 0.0
C119 C 0.87746 0.61445 0.16631 0.0
C120 C 0.89185 0.62854 0.20303 0.0
C121 C 0.87014 0.65227 0.22734 0.0
C122 C 0.76956 0.66128 0.27907 0.0
C123 C 0.74667 0.6812 0.30585 0.0
C124 C 0.71649 0.65719 0.33014 0.0
C125 C 0.70843 0.61279 0.32775 0.0
C126 C 0.73211 0.59281 0.30152 0.0
C127 C 0.76238 0.61687 0.27735 0.0
P128 P 0.82756 0.85503 0.81087 0.0
H129 H 0.79776 0.86214 0.89267 0.0
H130 H 0.73602 0.87965 0.91982 0.0
H131 H 0.68968 0.87515 0.7998 0.0
H132 H 0.75217 0.8586 0.77271 0.0
H133 H 0.90472 0.83141 0.82184 0.0
H134 H 0.92842 0.76607 0.84949 0.0
H135 H 0.81 0.70391 0.86641 0.0
H136 H 0.78655 0.77008 0.83956 0.0
H137 H 0.82388 0.92895 0.75374 0.0
H138 H 0.84207 0.79702 0.74765 0.0
O139 O 0.85717 0.89469 0.8281 0.0
H140 H 0.84753 0.94494 0.68279 0.0
H141 H 0.86559 0.81276 0.67653 0.0
C142 C 0.77961 0.85977 0.8307 0.0
C143 C 0.77408 0.86431 0.87236 0.0
C144 C 0.73863 0.87405 0.88786 0.0
C145 C 0.70794 0.8792 0.86191 0.0
C146 C 0.71297 0.87218 0.82044 0.0
C147 C 0.74861 0.86252 0.80494 0.0
C148 C 0.84394 0.80579 0.82976 0.0
C149 C 0.88389 0.80372 0.83168 0.0
C150 C 0.8974 0.76616 0.84707 0.0
C151 C 0.87111 0.72979 0.86049 0.0
C152 C 0.83099 0.73162 0.85711 0.0
C153 C 0.81752 0.76934 0.84171 0.0
C154 C 0.83229 0.8622 0.75616 0.0
C155 C 0.8317 0.90312 0.73666 0.0
C156 C 0.8449 0.91212 0.69595 0.0
C157 C 0.859 0.8802 0.67431 0.0
C158 C 0.85537 0.83806 0.69269 0.0
C159 C 0.84207 0.82911 0.73342 0.0
P160 P 0.71597 0.20739 0.2851 0.0
H161 H 0.73941 0.28116 0.32961 0.0
H162 H 0.70358 0.3232 0.37317 0.0
H163 H 0.59886 0.23602 0.3625 0.0
H164 H 0.63507 0.19398 0.31874 0.0
H165 H 0.7831 0.1698 0.25812 0.0
H166 H 0.82532 0.12383 0.29251 0.0
H167 H 0.75454 0.11904 0.40402 0.0
H168 H 0.71245 0.16589 0.36921 0.0
H169 H 0.65862 0.2394 0.23374 0.0
H170 H 0.70207 0.11867 0.26057 0.0
O171 O 0.74631 0.24411 0.2566 0.0
H172 H 0.61607 0.20745 0.18424 0.0
H173 H 0.66048 0.08666 0.2097 0.0
C174 C 0.68969 0.23514 0.32029 0.0
C175 C 0.7088 0.27096 0.33685 0.0
C176 C 0.68832 0.29478 0.36193 0.0
C177 C 0.64833 0.28303 0.37105 0.0
C178 C 0.62951 0.24616 0.35549 0.0
C179 C 0.65018 0.22212 0.33057 0.0
C180 C 0.74498 0.17151 0.31119 0.0
C181 C 0.7766 0.15879 0.28994 0.0
C182 C 0.80055 0.13226 0.30962 0.0
C183 C 0.7932 0.11763 0.35102 0.0
C184 C 0.76112 0.1301 0.37224 0.0
C185 C 0.73699 0.15669 0.35234 0.0
C186 C 0.68337 0.18146 0.25086 0.0
C187 C 0.65895 0.20593 0.22893 0.0
C188 C 0.63492 0.18767 0.20032 0.0
C189 C 0.63524 0.14459 0.19252 0.0
C190 C 0.65938 0.11985 0.2151 0.0
C191 C 0.68333 0.13819 0.24407 0.0
P192 P 0.36823 0.63259 0.17481 0.0
H193 H 0.33834 0.60407 0.09881 0.0
H194 H 0.2731 0.58262 0.07676 0.0
H195 H 0.22514 0.61142 0.19304 0.0
H196 H 0.29099 0.63115 0.21534 0.0
H197 H 0.44482 0.68185 0.169 0.0
H198 H 0.46883 0.75539 0.14427 0.0
H199 H 0.3512 0.77916 0.12103 0.0
H200 H 0.32731 0.70617 0.14832 0.0
H201 H 0.34334 0.5537 0.2258 0.0
H202 H 0.40765 0.67682 0.24078 0.0
O203 O 0.39724 0.60486 0.14893 0.0
H204 H 0.36166 0.52691 0.29315 0.0
H205 H 0.42753 0.64989 0.30699 0.0
C206 C 0.31949 0.61793 0.15913 0.0
C207 C 0.31376 0.60541 0.11968 0.0
C208 C 0.27627 0.5937 0.10688 0.0
C209 C 0.24358 0.59488 0.13312 0.0
C210 C 0.24954 0.6091 0.17225 0.0
C211 C 0.28717 0.62052 0.18511 0.0
C212 C 0.38437 0.6884 0.16033 0.0
C213 C 0.42416 0.70313 0.15916 0.0
C214 C 0.43786 0.74517 0.14453 0.0
C215 C 0.4121 0.77327 0.12979 0.0
C216 C 0.37196 0.75871 0.13229 0.0
C217 C 0.35822 0.7167 0.14765 0.0
C218 C 0.37397 0.61727 0.2281 0.0
C219 C 0.36082 0.57523 0.24387 0.0
C220 C 0.3718 0.55978 0.28221 0.0
C221 C 0.39666 0.58595 0.30541 0.0
C222 C 0.40818 0.62879 0.29029 0.0
C223 C 0.39694 0.64426 0.25205 0.0
P224 P 0.20448 0.3017 0.76985 0.0
H225 H 0.20857 0.21453 0.74955 0.0
H226 H 0.17251 0.16866 0.70424 0.0
H227 H 0.10211 0.26874 0.67233 0.0
H228 H 0.13839 0.31477 0.71836 0.0
H229 H 0.28489 0.33045 0.78593 0.0
H230 H 0.33837 0.37167 0.74469 0.0
H231 H 0.26139 0.38993 0.64623 0.0
H232 H 0.20802 0.3473 0.68755 0.0
H233 H 0.17255 0.28709 0.85336 0.0
H234 H 0.17073 0.38216 0.75218 0.0
O235 O 0.22594 0.26985 0.80244 0.0
H236 H 0.1342 0.32716 0.89556 0.0
H237 H 0.13007 0.42181 0.79379 0.0
C238 C 0.17575 0.26781 0.73788 0.0
C239 C 0.18505 0.22654 0.73334 0.0
C240 C 0.16435 0.20026 0.70742 0.0
C241 C 0.13426 0.21499 0.68499 0.0
C242 C 0.12518 0.2566 0.68924 0.0
C243 C 0.14571 0.28278 0.71567 0.0
C244 C 0.24256 0.33531 0.7397 0.0
C245 C 0.27942 0.34328 0.75549 0.0
C246 C 0.31001 0.36715 0.73186 0.0
C247 C 0.30428 0.38417 0.69202 0.0
C248 C 0.267 0.37675 0.67651 0.0
C249 C 0.23635 0.35262 0.70024 0.0
C250 C 0.17495 0.33188 0.79976 0.0
C251 C 0.16368 0.3166 0.84009 0.0
C252 C 0.14119 0.33946 0.86416 0.0
C253 C 0.1286 0.37782 0.84823 0.0
C254 C 0.13959 0.39279 0.80741 0.0
C255 C 0.16263 0.37001 0.78342 0.0
Zn256 Zn 0.05294 0.00801 0.5509 0.0
Zn257 Zn 0.96213 0.98384 0.46603 0.0
C258 C 0.06844 0.0996 0.57097 0.0
O259 O 0.06405 0.11242 0.53266 0.0
C260 C 0.91536 0.91055 0.44188 0.0
O261 O 0.88887 0.92729 0.46265 0.0
O262 O 0.09819 0.97507 0.55883 0.0
O263 O 0.00668 0.97168 0.57967 0.0
O264 O 0.97689 0.97421 0.52298 0.0
C265 C 0.10539 0.96655 0.59597 0.0
O266 O 0.08276 0.97851 0.62464 0.0
O267 O 0.06437 0.05985 0.58222 0.0
C268 C 0.90892 0.02068 0.41989 0.0
O269 O 0.92995 0.00272 0.39381 0.0
O270 O 0.91721 0.01817 0.45727 0.0
O271 O 0.00919 0.01734 0.43669 0.0
O272 O 0.04584 0.0221 0.49006 0.0
O273 O 0.95043 0.92797 0.44071 0.0
C274 C 0.97659 0.9613 0.56031 0.0
C275 C 0.0411 0.03069 0.45218 0.0
Zn276 Zn 0.52806 0.97974 0.98953 0.0
Zn277 Zn 0.47262 0.03128 0.03349 0.0
C278 C 0.47154 0.93557 0.94163 0.0
O279 O 0.48139 0.90234 0.96354 0.0
C280 C 0.52916 0.08175 0.07349 0.0
O281 O 0.51465 0.11075 0.04987 0.0
O282 O 0.57028 0.9492 0.96683 0.0
O283 O 0.54979 0.04167 0.98763 0.0
O284 O 0.49199 0.06075 0.97759 0.0
C285 C 0.57993 0.95605 0.92902 0.0
O286 O 0.56288 0.98377 0.90645 0.0
O287 O 0.48607 0.97292 0.94912 0.0
C288 C 0.4147 0.04945 0.09016 0.0
O289 O 0.4247 0.01432 0.10866 0.0
O290 O 0.43066 0.06321 0.05542 0.0
O291 O 0.45152 0.96798 0.04053 0.0
O292 O 0.50981 0.94786 0.04293 0.0
O293 O 0.51593 0.04254 0.07217 0.0
C294 C 0.52875 0.06793 0.97153 0.0
C295 C 0.47358 0.94038 0.05167 0.0
Zn296 Zn 0.52489 0.46542 0.47466 0.0
Zn297 Zn 0.48393 0.52853 0.53731 0.0
C298 C 0.57344 0.51424 0.41401 0.0
O299 O 0.54963 0.48947 0.39329 0.0
C300 C 0.43508 0.48322 0.59898 0.0
O301 O 0.46069 0.50696 0.61868 0.0
O302 O 0.53889 0.41375 0.44809 0.0
O303 O 0.5289 0.44848 0.53446 0.0
O304 O 0.5333 0.51062 0.56114 0.0
C305 C 0.57226 0.404 0.45678 0.0
O306 O 0.59296 0.42704 0.48167 0.0
O307 O 0.56796 0.51233 0.45264 0.0
C308 C 0.44163 0.59611 0.55332 0.0
O309 O 0.41883 0.57541 0.52848 0.0
O310 O 0.47342 0.58232 0.56226 0.0
O311 O 0.47945 0.54352 0.47645 0.0
O312 O 0.47404 0.47959 0.4534 0.0
O313 O 0.43905 0.48478 0.56026 0.0
C314 C 0.54053 0.47209 0.56215 0.0
C315 C 0.46739 0.51831 0.45009 0.0
Zn316 Zn 0.97493 0.51887 0.96238 0.0
Zn317 Zn 0.03555 0.47389 0.04632 0.0
C318 C 0.92556 0.4764 0.90754 0.0
O319 O 0.94707 0.50511 0.8825 0.0
C320 C 0.09151 0.52331 0.08471 0.0
O321 O 0.06536 0.50728 0.11355 0.0
O322 O 0.96364 0.57328 0.93148 0.0
O323 O 0.96391 0.52889 0.02093 0.0
O324 O 0.99218 0.49979 0.0734 0.0
C325 C 0.92928 0.58165 0.93895 0.0
O326 O 0.90629 0.5556 0.96508 0.0
O327 O 0.93327 0.47343 0.94511 0.0
C328 C 0.06441 0.39419 0.07295 0.0
O329 O 0.0663 0.38862 0.03386 0.0
O330 O 0.04923 0.42584 0.08496 0.0
O331 O 0.02711 0.44971 0.99117 0.0
O332 O 0.0281 0.50442 0.94492 0.0
O333 O 0.08468 0.51616 0.04788 0.0
C334 C 0.96785 0.52318 0.05909 0.0
C335 C 0.03963 0.4691 0.95698 0.0
C336 C 0.09757 0.08251 0.35705 0.0
C337 C 0.12906 0.10725 0.37299 0.0
H338 H 0.04535 0.03945 0.36934 0.0
C339 C 0.13268 0.10464 0.41557 0.0
H340 H 0.09436 0.08262 0.32444 0.0
C341 C 0.10474 0.07889 0.44153 0.0
C342 C 0.07244 0.05573 0.42541 0.0
H343 H 0.15646 0.12338 0.42894 0.0
H344 H 0.10795 0.07799 0.47418 0.0
C345 C 0.06951 0.05743 0.38287 0.0
C346 C 0.43468 0.95677 0.83636 0.0
C347 C 0.42003 0.91531 0.82727 0.0
H348 H 0.46174 -0.00411 0.87999 0.0
C349 C 0.41836 0.88134 0.85777 0.0
H350 H 0.43575 0.98362 0.81353 0.0
C351 C 0.43337 0.88827 0.89587 0.0
C352 C 0.44995 0.92939 0.90422 0.0
H353 H 0.40725 0.84905 0.85152 0.0
H354 H 0.43328 0.86115 0.9182 0.0
C355 C 0.4493 0.96379 0.87452 0.0
C356 C 0.60115 0.39849 0.62049 0.0
C357 C 0.60403 0.41587 0.65834 0.0
H358 H 0.57864 0.40211 0.5611 0.0
C359 C 0.58591 0.45239 0.66462 0.0
H360 H 0.61436 0.37005 0.61493 0.0
C361 C 0.56579 0.47146 0.63323 0.0
C362 C 0.56276 0.4537 0.59543 0.0
H363 H 0.58768 0.4664 0.69357 0.0
H364 H 0.55212 0.49958 0.63876 0.0
C365 C 0.58054 0.41689 0.58963 0.0
C366 C 0.92256 0.55918 0.15543 0.0
C367 C 0.9009 0.59083 0.13926 0.0
H368 H 0.96046 0.51265 0.14291 0.0
C369 C 0.90157 0.59984 0.09671 0.0
H370 H 0.92244 0.55122 0.18806 0.0
C371 C 0.92295 0.57757 0.07094 0.0
C372 C 0.94442 0.5457 0.08695 0.0
H373 H 0.88595 0.62464 0.08321 0.0
H374 H 0.92304 0.5859 0.03838 0.0
C375 C 0.94413 0.53687 0.12954 0.0
C376 C 0.36041 0.14057 0.11865 0.0
C377 C 0.33926 0.12236 0.1544 0.0
H378 H 0.40047 0.13166 0.06993 0.0
C379 C 0.34194 0.07953 0.16778 0.0
H380 H 0.35862 0.17339 0.10739 0.0
C381 C 0.36591 0.0557 0.14644 0.0
C382 C 0.38748 0.07403 0.11102 0.0
H383 H 0.32628 0.06472 0.1954 0.0
H384 H 0.36782 0.02299 0.15799 0.0
C385 C 0.38413 0.11658 0.09705 0.0
C386 C 0.18966 0.93569 0.65605 0.0
C387 C 0.21169 0.91823 0.62653 0.0
H388 H 0.13854 0.96415 0.66961 0.0
C389 C 0.19711 0.91376 0.58763 0.0
H390 H 0.20013 0.93911 0.68637 0.0
C391 C 0.16197 0.92848 0.57782 0.0
C392 C 0.14064 0.94737 0.60696 0.0
H393 H 0.21367 0.90056 0.56429 0.0
H394 H 0.15194 0.92587 0.54724 0.0
C395 C 0.15436 0.94986 0.64644 0.0
C396 C 0.84178 0.44405 0.84141 0.0
C397 C 0.82254 0.40722 0.86365 0.0
H398 H 0.88941 0.49419 0.83755 0.0
C399 C 0.83768 0.39278 0.90061 0.0
H400 H 0.83116 0.45568 0.81259 0.0
C401 C 0.87118 0.41508 0.91516 0.0
C402 C 0.89053 0.45174 0.89259 0.0
H403 H 0.82339 0.36452 0.91846 0.0
H404 H 0.88205 0.4035 0.94385 0.0
C405 C 0.87544 0.46586 0.85556 0.0
C406 C 0.64964 0.55785 0.3309 0.0
C407 C 0.67407 0.58778 0.35056 0.0
H408 H 0.59887 0.51184 0.33524 0.0
C409 C 0.66482 0.59411 0.39146 0.0
H410 H 0.65553 0.55269 0.29926 0.0
C411 C 0.63206 0.5705 0.41233 0.0
C412 C 0.60769 0.54055 0.39251 0.0
H413 H 0.68318 0.61689 0.40746 0.0
H414 H 0.62585 0.5757 0.4439 0.0
C415 C 0.61686 0.5347 0.35152 0.0
C416 C 0.11898 0.30666 0.11792 0.0
C417 C 0.13691 0.32607 0.15067 0.0
H418 H 0.08194 0.31302 0.06763 0.0
C419 C 0.12845 0.36702 0.15899 0.0
H420 H 0.1239 0.27477 0.11111 0.0
C421 C 0.10329 0.38817 0.1349 0.0
C422 C 0.08661 0.3693 0.1014 0.0
H423 H 0.14211 0.38345 0.18337 0.0
H424 H 0.0983 0.42015 0.14147 0.0
C425 C 0.09449 0.32828 0.09326 0.0
C426 C 0.54523 0.16452 0.89352 0.0
C427 C 0.58487 0.17866 0.89751 0.0
H428 H 0.4961 0.1187 0.91427 0.0
C429 C 0.60534 0.15685 0.92679 0.0
H430 H 0.52871 0.1808 0.87128 0.0
C431 C 0.58689 0.12123 0.95095 0.0
C432 C 0.54738 0.10681 0.9468 0.0
H433 H 0.636 0.1666 0.93027 0.0
H434 H 0.60371 0.10486 0.97284 0.0
C435 C 0.52656 0.12914 0.91821 0.0
C436 C 0.91894 0.82055 0.37287 0.0
C437 C 0.88161 0.81776 0.35752 0.0
H438 H 0.95926 0.85285 0.41165 0.0
C439 C 0.85518 0.84419 0.37131 0.0
H440 H 0.93968 0.80032 0.36258 0.0
C441 C 0.86588 0.87321 0.39988 0.0
C442 C 0.90351 0.87697 0.41458 0.0
H443 H 0.82614 0.84229 0.35999 0.0
H444 H 0.84498 0.89358 0.40952 0.0
C445 C 0.93002 0.85043 0.40084 0.0
C446 C 0.39109 0.69365 0.56694 0.0
C447 C 0.41028 0.71103 0.59982 0.0
H448 H 0.38584 0.64363 0.52668 0.0
C449 C 0.43903 0.68953 0.61829 0.0
H450 H 0.36852 0.70932 0.55241 0.0
C451 C 0.44923 0.65205 0.60334 0.0
C452 C 0.43047 0.63511 0.56998 0.0
H453 H 0.45441 0.70236 0.64356 0.0
H454 H 0.47187 0.63644 0.61778 0.0
C455 C 0.40093 0.65596 0.55233 0.0
C456 C 0.87651 0.92423 0.60743 0.0
C457 C 0.88502 0.89295 0.63752 0.0
H458 H 0.89928 0.97009 0.55786 0.0
C459 C 0.92214 0.8796 0.63668 0.0
H460 H 0.84809 0.93502 0.60739 0.0
C461 C 0.95122 0.90003 0.60914 0.0
C462 C 0.94361 0.93357 0.58134 0.0
H463 H 0.92985 0.85601 0.65967 0.0
H464 H 0.98036 0.8913 0.61119 0.0
C465 C 0.90563 0.94416 0.57911 0.0
C466 C 0.59048 0.08463 0.16645 0.0
C467 C 0.61068 0.12628 0.16053 0.0
H468 H 0.54882 0.03758 0.14327 0.0
C469 C 0.60611 0.15135 0.12419 0.0
H470 H 0.59325 0.06452 0.19414 0.0
C471 C 0.58041 0.13621 0.09554 0.0
C472 C 0.55903 0.09537 0.10219 0.0
H473 H 0.62207 0.18306 0.11804 0.0
H474 H 0.57695 0.1568 0.06833 0.0
C475 C 0.56498 0.06923 0.1374 0.0
C476 C 0.42331 0.52625 0.34627 0.0
C477 C 0.41269 0.56792 0.34364 0.0
H478 H 0.44872 0.478 0.38159 0.0
C479 C 0.41928 0.59266 0.377 0.0
H480 H 0.41947 0.50649 0.32097 0.0
C481 C 0.4366 0.57642 0.4117 0.0
C482 C 0.44761 0.53495 0.41402 0.0
H483 H 0.41109 0.62466 0.37635 0.0
H484 H 0.44151 0.59652 0.43665 0.0
C485 C 0.4404 0.50995 0.38102 0.0
C486 C 0.07747 0.37944 0.90418 0.0
C487 C 0.10436 0.40175 0.87447 0.0
H488 H 0.03641 0.38305 0.95341 0.0
C489 C 0.10855 0.44685 0.87115 0.0
H490 H 0.07239 0.34481 0.90703 0.0
C491 C 0.087 0.46887 0.89737 0.0
C492 C 0.0613 0.44631 0.92789 0.0
H493 H 0.1292 0.46525 0.84903 0.0
H494 H 0.09123 0.50355 0.8945 0.0
C495 C 0.05659 0.40139 0.93076 0.0
C496 C 0.65671 0.88211 0.91724 0.0
C497 C 0.67234 0.89537 0.87758 0.0
H498 H 0.61534 0.8909 0.96465 0.0
C499 C 0.65567 0.92696 0.85419 0.0
H500 H 0.66844 0.85735 0.93582 0.0
C501 C 0.62504 0.94593 0.87059 0.0
C502 C 0.61057 0.93394 0.91083 0.0
H503 H 0.66729 0.93837 0.82374 0.0
H504 H 0.6135 0.97088 0.85208 0.0
C505 C 0.62624 0.90129 0.93374 0.0
C506 C 0.83359 0.05755 0.3504 0.0
C507 C 0.81949 0.08982 0.37142 0.0
H508 H 0.87261 0.01055 0.34936 0.0
C509 C 0.83269 0.09685 0.41056 0.0
H510 H 0.8233 0.05057 0.32068 0.0
C511 C 0.8609 0.0734 0.42734 0.0
C512 C 0.87643 0.04283 0.40509 0.0
H513 H 0.82243 0.1216 0.42745 0.0
H514 H 0.87158 0.08033 0.45692 0.0
C515 C 0.86182 0.03453 0.36692 0.0
C516 C 0.1932 0.58521 0.07961 0.0
C517 C 0.20375 0.57923 0.12049 0.0
H518 H 0.14954 0.57224 0.03597 0.0
C519 C 0.17639 0.55618 0.14915 0.0
H520 H 0.21324 0.60334 0.05674 0.0
C521 C 0.13986 0.53923 0.13737 0.0
C522 C 0.12964 0.54427 0.09646 0.0
H523 H 0.18351 0.54996 0.18064 0.0
H524 H 0.11999 0.52099 0.16037 0.0
C525 C 0.15662 0.56764 0.06767 0.0
C526 C 0.3639 0.43833 0.68614 0.0
C527 C 0.33718 0.40991 0.66732 0.0
H528 H 0.41544 0.48315 0.67959 0.0
C529 C 0.34271 0.40593 0.62524 0.0
H530 H 0.36019 0.44295 0.71823 0.0
C531 C 0.3745 0.42956 0.60274 0.0
C532 C 0.4014 0.45749 0.62192 0.0
H533 H 0.32288 0.38404 0.60984 0.0
H534 H 0.37812 0.42574 0.57047 0.0
C535 C 0.3956 0.4616 0.66384 0.0
C536 C 0.86572 0.66805 0.91404 0.0
C537 C 0.88554 0.69086 0.87949 0.0
H538 H 0.86414 0.61599 0.95992 0.0
C539 C 0.91997 0.67718 0.86439 0.0
H540 H 0.83954 0.67812 0.92695 0.0
C541 C 0.93448 0.64185 0.88376 0.0
C542 C 0.91465 0.6193 0.91838 0.0
H543 H 0.93567 0.69367 0.83748 0.0
H544 H 0.961 0.63201 0.87143 0.0
C545 C 0.88002 0.63261 0.93315 0.0
C546 C 0.46276 0.82259 0.08676 0.0
C547 C 0.42743 0.81661 0.11011 0.0
H548 H 0.50491 0.86609 0.05051 0.0
C549 C 0.40698 0.85207 0.11369 0.0
H550 H 0.47885 0.79602 0.0821 0.0
C551 C 0.42163 0.89237 0.09447 0.0
C552 C 0.45729 0.89814 0.07188 0.0
H553 H 0.37989 0.84889 0.13171 0.0
H554 H 0.40538 0.91911 0.0978 0.0
C555 C 0.47765 0.86284 0.0683 0.0
C556 C 0.10174 0.14351 0.66916 0.0
C557 C 0.11338 0.18689 0.65673 0.0
H558 H 0.07812 0.08223 0.65211 0.0
C559 C 0.10727 0.20228 0.6165 0.0
H560 H 0.10552 0.13088 0.70014 0.0
C561 C 0.09149 0.1743 0.58872 0.0
C562 C 0.08142 0.1305 0.60078 0.0
H563 H 0.11616 0.23556 0.60606 0.0
H564 H 0.08832 0.18673 0.55756 0.0
C565 C 0.08592 0.11567 0.64158 0.0
C566 C 0.64264 0.32746 0.43001 0.0
C567 C 0.62642 0.3103 0.3955 0.0
H568 H 0.63802 0.37011 0.47658 0.0
C569 C 0.5905 0.3217 0.38304 0.0
H570 H 0.66994 0.3187 0.44073 0.0
C571 C 0.57202 0.35114 0.40372 0.0
C572 C 0.5892 0.36967 0.43717 0.0
H573 H 0.57747 0.30922 0.35633 0.0
H574 H 0.54504 0.36046 0.39266 0.0
C575 C 0.62426 0.35683 0.45059 0.0
loop_
_geom_bond_atom_site_label_1
_geom_bond_atom_site_label_2
_geom_bond_distance
_geom_bond_site_symmetry_2
_ccdc_geom_bond_type
P0 O11 1.490 . S
P0 C14 1.812 . S
P0 C20 1.803 . S
P0 C26 1.819 . S
H1 C15 0.941 . S
H2 C16 0.939 . S
H3 C18 0.940 . S
H4 C19 0.940 . S
H5 C21 0.939 . S
H6 C22 0.942 . S
H7 C24 0.940 . S
H8 C25 0.939 . S
H9 C27 0.941 . S
H10 C31 0.939 . S
O11 P0 1.490 . S
H12 C28 0.939 . S
H13 C30 0.940 . S
C14 P0 1.812 . S
C14 C15 1.389 . S
C14 C19 1.391 . S
C15 H1 0.941 . S
C15 C14 1.389 . S
C15 C16 1.397 . S
C16 H2 0.939 . S
C16 C15 1.397 . S
C16 C17 1.378 . S
C17 C16 1.378 . S
C17 C18 1.378 . S
C18 H3 0.940 . S
C18 C17 1.378 . S
C18 C19 1.396 . S
C19 H4 0.940 . S
C19 C14 1.391 . S
C19 C18 1.396 . S
C20 P0 1.803 . S
C20 C21 1.378 . S
C20 C25 1.400 . S
C21 H5 0.939 . S
C21 C20 1.378 . S
C21 C22 1.361 . S
C22 H6 0.942 . S
C22 C21 1.361 . S
C22 C23 1.369 . S
C23 C22 1.369 . S
C23 C24 1.404 . S
C24 H7 0.940 . S
C24 C23 1.404 . S
C24 C25 1.389 . S
C25 H8 0.939 . S
C25 C20 1.400 . S
C25 C24 1.389 . S
C26 P0 1.819 . S
C26 C27 1.391 . S
C26 C31 1.391 . S
C27 H9 0.941 . S
C27 C26 1.391 . S
C27 C28 1.396 . S
C28 H12 0.939 . S
C28 C27 1.396 . S
C28 C29 1.397 . S
C29 C28 1.397 . S
C29 C30 1.385 . S
C30 H13 0.940 . S
C30 C29 1.385 . S
C30 C31 1.388 . S
C31 H10 0.939 . S
C31 C26 1.391 . S
C31 C30 1.388 . S
P32 O43 1.490 . S
P32 C46 1.812 . S
P32 C52 1.803 . S
P32 C58 1.819 . S
H33 C47 0.941 . S
H34 C48 0.939 . S
H35 C50 0.940 . S
H36 C51 0.940 . S
H37 C53 0.939 . S
H38 C54 0.942 . S
H39 C56 0.940 . S
H40 C57 0.939 . S
H41 C59 0.941 . S
H42 C63 0.939 . S
O43 P32 1.490 . S
H44 C60 0.939 . S
H45 C62 0.940 . S
C46 P32 1.812 . S
C46 C47 1.389 . S
C46 C51 1.391 . S
C47 H33 0.941 . S
C47 C46 1.389 . S
C47 C48 1.397 . S
C48 H34 0.939 . S
C48 C47 1.397 . S
C48 C49 1.378 . S
C49 C48 1.378 . S
C49 C50 1.378 . S
C50 H35 0.940 . S
C50 C49 1.378 . S
C50 C51 1.396 . S
C51 H36 0.940 . S
C51 C46 1.391 . S
C51 C50 1.396 . S
C52 P32 1.803 . S
C52 C53 1.378 . S
C52 C57 1.400 . S
C53 H37 0.939 . S
C53 C52 1.378 . S
C53 C54 1.361 . S
C54 H38 0.942 . S
C54 C53 1.361 . S
C54 C55 1.369 . S
C55 C54 1.369 . S
C55 C56 1.404 . S
C56 H39 0.940 . S
C56 C55 1.404 . S
C56 C57 1.389 . S
C57 H40 0.939 . S
C57 C52 1.400 . S
C57 C56 1.389 . S
C58 P32 1.819 . S
C58 C59 1.391 . S
C58 C63 1.391 . S
C59 H41 0.941 . S
C59 C58 1.391 . S
C59 C60 1.396 . S
C60 H44 0.939 . S
C60 C59 1.396 . S
C60 C61 1.397 . S
C61 C60 1.397 . S
C61 C62 1.385 . S
C62 H45 0.940 . S
C62 C61 1.385 . S
C62 C63 1.388 . S
C63 H42 0.939 . S
C63 C58 1.391 . S
C63 C62 1.388 . S
P64 O75 1.490 . S
P64 C78 1.812 . S
P64 C84 1.803 . S
P64 C90 1.819 . S
H65 C79 0.941 . S
H66 C80 0.939 . S
H67 C82 0.940 . S
H68 C83 0.940 . S
H69 C85 0.939 . S
H70 C86 0.942 . S
H71 C88 0.940 . S
H72 C89 0.939 . S
H73 C91 0.941 . S
H74 C95 0.939 . S
O75 P64 1.490 . S
H76 C92 0.939 . S
H77 C94 0.940 . S
C78 P64 1.812 . S
C78 C79 1.389 . S
C78 C83 1.391 . S
C79 H65 0.941 . S
C79 C78 1.389 . S
C79 C80 1.397 . S
C80 H66 0.939 . S
C80 C79 1.397 . S
C80 C81 1.378 . S
C81 C80 1.378 . S
C81 C82 1.378 . S
C82 H67 0.940 . S
C82 C81 1.378 . S
C82 C83 1.396 . S
C83 H68 0.940 . S
C83 C78 1.391 . S
C83 C82 1.396 . S
C84 P64 1.803 . S
C84 C85 1.378 . S
C84 C89 1.400 . S
C85 H69 0.939 . S
C85 C84 1.378 . S
C85 C86 1.361 . S
C86 H70 0.942 . S
C86 C85 1.361 . S
C86 C87 1.369 . S
C87 C86 1.369 . S
C87 C88 1.404 . S
C88 H71 0.940 . S
C88 C87 1.404 . S
C88 C89 1.389 . S
C89 H72 0.939 . S
C89 C84 1.400 . S
C89 C88 1.389 . S
C90 P64 1.819 . S
C90 C91 1.391 . S
C90 C95 1.391 . S
C91 H73 0.941 . S
C91 C90 1.391 . S
C91 C92 1.396 . S
C92 H76 0.939 . S
C92 C91 1.396 . S
C92 C93 1.397 . S
C93 C92 1.397 . S
C93 C94 1.385 . S
C94 H77 0.940 . S
C94 C93 1.385 . S
C94 C95 1.388 . S
C95 H74 0.939 . S
C95 C90 1.391 . S
C95 C94 1.388 . S
P96 O107 1.490 . S
P96 C110 1.812 . S
P96 C116 1.803 . S
P96 C122 1.819 . S
H97 C111 0.941 . S
H98 C112 0.939 . S
H99 C114 0.940 . S
H100 C115 0.940 . S
H101 C117 0.939 . S
H102 C118 0.942 . S
H103 C120 0.940 . S
H104 C121 0.939 . S
H105 C123 0.941 . S
H106 C127 0.939 . S
O107 P96 1.490 . S
H108 C124 0.939 . S
H109 C126 0.940 . S
C110 P96 1.812 . S
C110 C111 1.389 . S
C110 C115 1.391 . S
C111 H97 0.941 . S
C111 C110 1.389 . S
C111 C112 1.397 . S
C112 H98 0.939 . S
C112 C111 1.397 . S
C112 C113 1.378 . S
C113 C112 1.378 . S
C113 C114 1.378 . S
C114 H99 0.940 . S
C114 C113 1.378 . S
C114 C115 1.396 . S
C115 H100 0.940 . S
C115 C110 1.391 . S
C115 C114 1.396 . S
C116 P96 1.803 . S
C116 C117 1.378 . S
C116 C121 1.400 . S
C117 H101 0.939 . S
C117 C116 1.378 . S
C117 C118 1.361 . S
C118 H102 0.942 . S
C118 C117 1.361 . S
C118 C119 1.369 . S
C119 C118 1.369 . S
C119 C120 1.404 . S
C120 H103 0.940 . S
C120 C119 1.404 . S
C120 C121 1.389 . S
C121 H104 0.939 . S
C121 C116 1.400 . S
C121 C120 1.389 . S
C122 P96 1.819 . S
C122 C123 1.391 . S
C122 C127 1.391 . S
C123 H105 0.941 . S
C123 C122 1.391 . S
C123 C124 1.396 . S
C124 H108 0.939 . S
C124 C123 1.396 . S
C124 C125 1.397 . S
C125 C124 1.397 . S
C125 C126 1.385 . S
C126 H109 0.940 . S
C126 C125 1.385 . S
C126 C127 1.388 . S
C127 H106 0.939 . S
C127 C122 1.391 . S
C127 C126 1.388 . S
P128 O139 1.490 . S
P128 C142 1.812 . S
P128 C148 1.803 . S
P128 C154 1.819 . S
H129 C143 0.941 . S
H130 C144 0.939 . S
H131 C146 0.940 . S
H132 C147 0.940 . S
H133 C149 0.939 . S
H134 C150 0.942 . S
H135 C152 0.940 . S
H136 C153 0.939 . S
H137 C155 0.941 . S
H138 C159 0.939 . S
O139 P128 1.490 . S
H140 C156 0.939 . S
H141 C158 0.940 . S
C142 P128 1.812 . S
C142 C143 1.389 . S
C142 C147 1.391 . S
C143 H129 0.941 . S
C143 C142 1.389 . S
C143 C144 1.397 . S
C144 H130 0.939 . S
C144 C143 1.397 . S
C144 C145 1.378 . S
C145 C144 1.378 . S
C145 C146 1.378 . S
C146 H131 0.940 . S
C146 C145 1.378 . S
C146 C147 1.396 . S
C147 H132 0.940 . S
C147 C142 1.391 . S
C147 C146 1.396 . S
C148 P128 1.803 . S
C148 C149 1.378 . S
C148 C153 1.400 . S
C149 H133 0.939 . S
C149 C148 1.378 . S
C149 C150 1.361 . S
C150 H134 0.942 . S
C150 C149 1.361 . S
C150 C151 1.369 . S
C151 C150 1.369 . S
C151 C152 1.404 . S
C152 H135 0.940 . S
C152 C151 1.404 . S
C152 C153 1.389 . S
C153 H136 0.939 . S
C153 C148 1.400 . S
C153 C152 1.389 . S
C154 P128 1.819 . S
C154 C155 1.391 . S
C154 C159 1.391 . S
C155 H137 0.941 . S
C155 C154 1.391 . S
C155 C156 1.396 . S
C156 H140 0.939 . S
C156 C155 1.396 . S
C156 C157 1.397 . S
C157 C156 1.397 . S
C157 C158 1.385 . S
C158 H141 0.940 . S
C158 C157 1.385 . S
C158 C159 1.388 . S
C159 H138 0.939 . S
C159 C154 1.391 . S
C159 C158 1.388 . S
P160 O171 1.490 . S
P160 C174 1.812 . S
P160 C180 1.803 . S
P160 C186 1.819 . S
H161 C175 0.941 . S
H162 C176 0.939 . S
H163 C178 0.940 . S
H164 C179 0.940 . S
H165 C181 0.939 . S
H166 C182 0.942 . S
H167 C184 0.940 . S
H168 C185 0.939 . S
H169 C187 0.941 . S
H170 C191 0.939 . S
O171 P160 1.490 . S
H172 C188 0.939 . S
H173 C190 0.940 . S
C174 P160 1.812 . S
C174 C175 1.389 . S
C174 C179 1.391 . S
C175 H161 0.941 . S
C175 C174 1.389 . S
C175 C176 1.397 . S
C176 H162 0.939 . S
C176 C175 1.397 . S
C176 C177 1.378 . S
C177 C176 1.378 . S
C177 C178 1.378 . S
C178 H163 0.940 . S
C178 C177 1.378 . S
C178 C179 1.396 . S
C179 H164 0.940 . S
C179 C174 1.391 . S
C179 C178 1.396 . S
C180 P160 1.803 . S
C180 C181 1.378 . S
C180 C185 1.400 . S
C181 H165 0.939 . S
C181 C180 1.378 . S
C181 C182 1.361 . S
C182 H166 0.942 . S
C182 C181 1.361 . S
C182 C183 1.369 . S
C183 C182 1.369 . S
C183 C184 1.404 . S
C184 H167 0.940 . S
C184 C183 1.404 . S
C184 C185 1.389 . S
C185 H168 0.939 . S
C185 C180 1.400 . S
C185 C184 1.389 . S
C186 P160 1.819 . S
C186 C187 1.391 . S
C186 C191 1.391 . S
C187 H169 0.941 . S
C187 C186 1.391 . S
C187 C188 1.396 . S
C188 H172 0.939 . S
C188 C187 1.396 . S
C188 C189 1.397 . S
C189 C188 1.397 . S
C189 C190 1.385 . S
C190 H173 0.940 . S
C190 C189 1.385 . S
C190 C191 1.388 . S
C191 H170 0.939 . S
C191 C186 1.391 . S
C191 C190 1.388 . S
P192 O203 1.490 . S
P192 C206 1.812 . S
P192 C212 1.803 . S
P192 C218 1.819 . S
H193 C207 0.941 . S
H194 C208 0.939 . S
H195 C210 0.940 . S
H196 C211 0.940 . S
H197 C213 0.939 . S
H198 C214 0.942 . S
H199 C216 0.940 . S
H200 C217 0.939 . S
H201 C219 0.941 . S
H202 C223 0.939 . S
O203 P192 1.490 . S
H204 C220 0.939 . S
H205 C222 0.940 . S
C206 P192 1.812 . S
C206 C207 1.389 . S
C206 C211 1.391 . S
C207 H193 0.941 . S
C207 C206 1.389 . S
C207 C208 1.397 . S
C208 H194 0.939 . S
C208 C207 1.397 . S
C208 C209 1.378 . S
C209 C208 1.378 . S
C209 C210 1.378 . S
C210 H195 0.940 . S
C210 C209 1.378 . S
C210 C211 1.396 . S
C211 H196 0.940 . S
C211 C206 1.391 . S
C211 C210 1.396 . S
C212 P192 1.803 . S
C212 C213 1.378 . S
C212 C217 1.400 . S
C213 H197 0.939 . S
C213 C212 1.378 . S
C213 C214 1.361 . S
C214 H198 0.942 . S
C214 C213 1.361 . S
C214 C215 1.369 . S
C215 C214 1.369 . S
C215 C216 1.404 . S
C216 H199 0.940 . S
C216 C215 1.404 . S
C216 C217 1.389 . S
C217 H200 0.939 . S
C217 C212 1.400 . S
C217 C216 1.389 . S
C218 P192 1.819 . S
C218 C219 1.391 . S
C218 C223 1.391 . S
C219 H201 0.941 . S
C219 C218 1.391 . S
C219 C220 1.396 . S
C220 H204 0.939 . S
C220 C219 1.396 . S
C220 C221 1.397 . S
C221 C220 1.397 . S
C221 C222 1.385 . S
C222 H205 0.940 . S
C222 C221 1.385 . S
C222 C223 1.388 . S
C223 H202 0.939 . S
C223 C218 1.391 . S
C223 C222 1.388 . S
P224 O235 1.490 . S
P224 C238 1.812 . S
P224 C244 1.803 . S
P224 C250 1.819 . S
H225 C239 0.941 . S
H226 C240 0.939 . S
H227 C242 0.940 . S
H228 C243 0.940 . S
H229 C245 0.939 . S
H230 C246 0.942 . S
H231 C248 0.940 . S
H232 C249 0.939 . S
H233 C251 0.941 . S
H234 C255 0.939 . S
O235 P224 1.490 . S
H236 C252 0.939 . S
H237 C254 0.940 . S
C238 P224 1.812 . S
C238 C239 1.389 . S
C238 C243 1.391 . S
C239 H225 0.941 . S
C239 C238 1.389 . S
C239 C240 1.397 . S
C240 H226 0.939 . S
C240 C239 1.397 . S
C240 C241 1.378 . S
C241 C240 1.378 . S
C241 C242 1.378 . S
C242 H227 0.940 . S
C242 C241 1.378 . S
C242 C243 1.396 . S
C243 H228 0.940 . S
C243 C238 1.391 . S
C243 C242 1.396 . S
C244 P224 1.803 . S
C244 C245 1.378 . S
C244 C249 1.400 . S
C245 H229 0.939 . S
C245 C244 1.378 . S
C245 C246 1.361 . S
C246 H230 0.942 . S
C246 C245 1.361 . S
C246 C247 1.369 . S
C247 C246 1.369 . S
C247 C248 1.404 . S
C248 H231 0.940 . S
C248 C247 1.404 . S
C248 C249 1.389 . S
C249 H232 0.939 . S
C249 C244 1.400 . S
C249 C248 1.389 . S
C250 P224 1.819 . S
C250 C251 1.391 . S
C250 C255 1.391 . S
C251 H233 0.941 . S
C251 C250 1.391 . S
C251 C252 1.396 . S
C252 H236 0.939 . S
C252 C251 1.396 . S
C252 C253 1.397 . S
C253 C252 1.397 . S
C253 C254 1.385 . S
C254 H237 0.940 . S
C254 C253 1.385 . S
C254 C255 1.388 . S
C255 H234 0.939 . S
C255 C250 1.391 . S
C255 C254 1.388 . S
Zn256 O262 1.969 1_545 S
Zn256 O263 1.965 1_545 S
Zn256 O267 2.024 . S
Zn256 O272 1.969 . S
Zn257 O264 1.969 . S
Zn257 O270 1.969 1_565 S
Zn257 O271 1.965 1_665 S
Zn257 O273 2.024 . S
C258 O259 1.229 . S
C258 O267 1.058 . S
O259 C258 1.229 . S
C260 O261 1.229 . S
C260 O273 1.058 . S
O261 C260 1.229 . S
O262 Zn256 1.969 1_565 S
O262 C265 1.267 . S
O263 Zn256 1.965 1_565 S
O263 C274 1.260 1_455 S
O264 Zn257 1.969 . S
O264 C274 1.258 . S
C265 O262 1.267 . S
C265 O266 1.228 . S
O266 C265 1.228 . S
O267 Zn256 2.024 . S
O267 C258 1.058 . S
C268 O269 1.228 . S
C268 O270 1.267 . S
O269 C268 1.228 . S
O270 Zn257 1.969 1_545 S
O270 C268 1.267 . S
O271 Zn257 1.965 1_445 S
O271 C275 1.260 . S
O272 Zn256 1.969 . S
O272 C275 1.258 . S
O273 Zn257 2.024 . S
O273 C260 1.058 . S
C274 O263 1.260 1_655 S
C274 O264 1.258 . S
C275 O271 1.260 . S
C275 O272 1.258 . S
Zn276 O282 1.969 . S
Zn276 O283 1.965 1_565 S
Zn276 O287 2.024 . S
Zn276 O292 1.969 1_556 S
Zn277 O284 1.969 . S
Zn277 O290 1.969 . S
Zn277 O291 1.965 1_545 S
Zn277 O293 2.024 . S
C278 O279 1.229 . S
C278 O287 1.058 . S
O279 C278 1.229 . S
C280 O281 1.229 . S
C280 O293 1.058 . S
O281 C280 1.229 . S
O282 Zn276 1.969 . S
O282 C285 1.267 . S
O283 Zn276 1.965 1_545 S
O283 C294 1.260 . S
O284 Zn277 1.969 . S
O284 C294 1.258 1_554 S
C285 O282 1.267 . S
C285 O286 1.228 . S
O286 C285 1.228 . S
O287 Zn276 2.024 . S
O287 C278 1.058 . S
C288 O289 1.228 . S
C288 O290 1.267 . S
O289 C288 1.228 . S
O290 Zn277 1.969 . S
O290 C288 1.267 . S
O291 Zn277 1.965 1_565 S
O291 C295 1.260 . S
O292 Zn276 1.969 1_554 S
O292 C295 1.258 . S
O293 Zn277 2.024 . S
O293 C280 1.058 . S
C294 O283 1.260 . S
C294 O284 1.258 1_556 S
C295 O291 1.260 . S
C295 O292 1.258 . S
Zn296 O302 1.969 . S
Zn296 O303 1.965 . S
Zn296 O307 2.024 . S
Zn296 O312 1.969 . S
Zn297 O304 1.969 . S
Zn297 O310 1.969 . S
Zn297 O311 1.965 . S
Zn297 O313 2.024 . S
C298 O299 1.229 . S
C298 O307 1.058 . S
O299 C298 1.229 . S
C300 O301 1.229 . S
C300 O313 1.058 . S
O301 C300 1.229 . S
O302 Zn296 1.969 . S
O302 C305 1.267 . S
O303 Zn296 1.965 . S
O303 C314 1.260 . S
O304 Zn297 1.969 . S
O304 C314 1.258 . S
C305 O302 1.267 . S
C305 O306 1.228 . S
O306 C305 1.228 . S
O307 Zn296 2.024 . S
O307 C298 1.058 . S
C308 O309 1.228 . S
C308 O310 1.267 . S
O309 C308 1.228 . S
O310 Zn297 1.969 . S
O310 C308 1.267 . S
O311 Zn297 1.965 . S
O311 C315 1.260 . S
O312 Zn296 1.969 . S
O312 C315 1.258 . S
O313 Zn297 2.024 . S
O313 C300 1.058 . S
C314 O303 1.260 . S
C314 O304 1.258 . S
C315 O311 1.260 . S
C315 O312 1.258 . S
Zn316 O322 1.969 . S
Zn316 O323 1.965 1_556 S
Zn316 O327 2.024 . S
Zn316 O332 1.969 1_655 S
Zn317 O324 1.969 . S
Zn317 O330 1.969 . S
Zn317 O331 1.965 1_554 S
Zn317 O333 2.024 . S
C318 O319 1.229 . S
C318 O327 1.058 . S
O319 C318 1.229 . S
C320 O321 1.229 . S
C320 O333 1.058 . S
O321 C320 1.229 . S
O322 Zn316 1.969 . S
O322 C325 1.267 . S
O323 Zn316 1.965 1_554 S
O323 C334 1.260 . S
O324 Zn317 1.969 . S
O324 C334 1.258 1_455 S
C325 O322 1.267 . S
C325 O326 1.228 . S
O326 C325 1.228 . S
O327 Zn316 2.024 . S
O327 C318 1.058 . S
C328 O329 1.228 . S
C328 O330 1.267 . S
O329 C328 1.228 . S
O330 Zn317 1.969 . S
O330 C328 1.267 . S
O331 Zn317 1.965 1_556 S
O331 C335 1.260 . S
O332 Zn316 1.969 1_455 S
O332 C335 1.258 . S
O333 Zn317 2.024 . S
O333 C320 1.058 . S
C334 O323 1.260 . S
C334 O324 1.258 1_655 S
C335 O331 1.260 . S
C335 O332 1.258 . S
C336 C337 1.387 . S
C336 H340 0.950 . S
C336 C345 1.390 . S
C337 C336 1.387 . S
C337 C339 1.387 . S
H338 C345 0.950 . S
C339 C337 1.387 . S
C339 C341 1.390 . S
C339 H343 0.950 . S
H340 C336 0.950 . S
C341 C339 1.390 . S
C341 C342 1.387 . S
C341 H344 0.950 . S
C342 C341 1.387 . S
C342 C345 1.387 . S
H343 C339 0.950 . S
H344 C341 0.950 . S
C345 C336 1.390 . S
C345 H338 0.950 . S
C345 C342 1.387 . S
C346 C347 1.387 . S
C346 H350 0.950 . S
C346 C355 1.390 . S
C347 C346 1.387 . S
C347 C349 1.387 . S
H348 C355 0.950 1_545 S
C349 C347 1.387 . S
C349 C351 1.390 . S
C349 H353 0.950 . S
H350 C346 0.950 . S
C351 C349 1.390 . S
C351 C352 1.387 . S
C351 H354 0.950 . S
C352 C351 1.387 . S
C352 C355 1.387 . S
H353 C349 0.950 . S
H354 C351 0.950 . S
C355 C346 1.390 . S
C355 H348 0.950 1_565 S
C355 C352 1.387 . S
C356 C357 1.387 . S
C356 H360 0.950 . S
C356 C365 1.390 . S
C357 C356 1.387 . S
C357 C359 1.387 . S
H358 C365 0.950 . S
C359 C357 1.387 . S
C359 C361 1.390 . S
C359 H363 0.950 . S
H360 C356 0.950 . S
C361 C359 1.390 . S
C361 C362 1.387 . S
C361 H364 0.950 . S
C362 C361 1.387 . S
C362 C365 1.387 . S
H363 C359 0.950 . S
H364 C361 0.950 . S
C365 C356 1.390 . S
C365 H358 0.950 . S
C365 C362 1.387 . S
C366 C367 1.387 . S
C366 H370 0.950 . S
C366 C375 1.390 . S
C367 C366 1.387 . S
C367 C369 1.387 . S
H368 C375 0.950 . S
C369 C367 1.387 . S
C369 C371 1.390 . S
C369 H373 0.950 . S
H370 C366 0.950 . S
C371 C369 1.390 . S
C371 C372 1.387 . S
C371 H374 0.950 . S
C372 C371 1.387 . S
C372 C375 1.387 . S
H373 C369 0.950 . S
H374 C371 0.950 . S
C375 C366 1.390 . S
C375 H368 0.950 . S
C375 C372 1.387 . S
C376 C377 1.387 . S
C376 H380 0.950 . S
C376 C385 1.390 . S
C377 C376 1.387 . S
C377 C379 1.387 . S
H378 C385 0.950 . S
C379 C377 1.387 . S
C379 C381 1.390 . S
C379 H383 0.950 . S
H380 C376 0.950 . S
C381 C379 1.390 . S
C381 C382 1.387 . S
C381 H384 0.950 . S
C382 C381 1.387 . S
C382 C385 1.387 . S
H383 C379 0.950 . S
H384 C381 0.950 . S
C385 C376 1.390 . S
C385 H378 0.950 . S
C385 C382 1.387 . S
C386 C387 1.387 . S
C386 H390 0.950 . S
C386 C395 1.390 . S
C387 C386 1.387 . S
C387 C389 1.387 . S
H388 C395 0.950 . S
C389 C387 1.387 . S
C389 C391 1.390 . S
C389 H393 0.950 . S
H390 C386 0.950 . S
C391 C389 1.390 . S
C391 C392 1.387 . S
C391 H394 0.950 . S
C392 C391 1.387 . S
C392 C395 1.387 . S
H393 C389 0.950 . S
H394 C391 0.950 . S
C395 C386 1.390 . S
C395 H388 0.950 . S
C395 C392 1.387 . S
C396 C397 1.387 . S
C396 H400 0.950 . S
C396 C405 1.390 . S
C397 C396 1.387 . S
C397 C399 1.387 . S
H398 C405 0.950 . S
C399 C397 1.387 . S
C399 C401 1.390 . S
C399 H403 0.950 . S
H400 C396 0.950 . S
C401 C399 1.390 . S
C401 C402 1.387 . S
C401 H404 0.950 . S
C402 C401 1.387 . S
C402 C405 1.387 . S
H403 C399 0.950 . S
H404 C401 0.950 . S
C405 C396 1.390 . S
C405 H398 0.950 . S
C405 C402 1.387 . S
C406 C407 1.387 . S
C406 H410 0.950 . S
C406 C415 1.390 . S
C407 C406 1.387 . S
C407 C409 1.387 . S
H408 C415 0.950 . S
C409 C407 1.387 . S
C409 C411 1.390 . S
C409 H413 0.950 . S
H410 C406 0.950 . S
C411 C409 1.390 . S
C411 C412 1.387 . S
C411 H414 0.950 . S
C412 C411 1.387 . S
C412 C415 1.387 . S
H413 C409 0.950 . S
H414 C411 0.950 . S
C415 C406 1.390 . S
C415 H408 0.950 . S
C415 C412 1.387 . S
C416 C417 1.387 . S
C416 H420 0.950 . S
C416 C425 1.390 . S
C417 C416 1.387 . S
C417 C419 1.387 . S
H418 C425 0.950 . S
C419 C417 1.387 . S
C419 C421 1.390 . S
C419 H423 0.950 . S
H420 C416 0.950 . S
C421 C419 1.390 . S
C421 C422 1.387 . S
C421 H424 0.950 . S
C422 C421 1.387 . S
C422 C425 1.387 . S
H423 C419 0.950 . S
H424 C421 0.950 . S
C425 C416 1.390 . S
C425 H418 0.950 . S
C425 C422 1.387 . S
C426 C427 1.387 . S
C426 H430 0.950 . S
C426 C435 1.390 . S
C427 C426 1.387 . S
C427 C429 1.387 . S
H428 C435 0.950 . S
C429 C427 1.387 . S
C429 C431 1.390 . S
C429 H433 0.950 . S
H430 C426 0.950 . S
C431 C429 1.390 . S
C431 C432 1.387 . S
C431 H434 0.950 . S
C432 C431 1.387 . S
C432 C435 1.387 . S
H433 C429 0.950 . S
H434 C431 0.950 . S
C435 C426 1.390 . S
C435 H428 0.950 . S
C435 C432 1.387 . S
C436 C437 1.387 . S
C436 H440 0.950 . S
C436 C445 1.390 . S
C437 C436 1.387 . S
C437 C439 1.387 . S
H438 C445 0.950 . S
C439 C437 1.387 . S
C439 C441 1.390 . S
C439 H443 0.950 . S
H440 C436 0.950 . S
C441 C439 1.390 . S
C441 C442 1.387 . S
C441 H444 0.950 . S
C442 C441 1.387 . S
C442 C445 1.387 . S
H443 C439 0.950 . S
H444 C441 0.950 . S
C445 C436 1.390 . S
C445 H438 0.950 . S
C445 C442 1.387 . S
C446 C447 1.387 . S
C446 H450 0.950 . S
C446 C455 1.390 . S
C447 C446 1.387 . S
C447 C449 1.387 . S
H448 C455 0.950 . S
C449 C447 1.387 . S
C449 C451 1.390 . S
C449 H453 0.950 . S
H450 C446 0.950 . S
C451 C449 1.390 . S
C451 C452 1.387 . S
C451 H454 0.950 . S
C452 C451 1.387 . S
C452 C455 1.387 . S
H453 C449 0.950 . S
H454 C451 0.950 . S
C455 C446 1.390 . S
C455 H448 0.950 . S
C455 C452 1.387 . S
C456 C457 1.387 . S
C456 H460 0.950 . S
C456 C465 1.390 . S
C457 C456 1.387 . S
C457 C459 1.387 . S
H458 C465 0.950 . S
C459 C457 1.387 . S
C459 C461 1.390 . S
C459 H463 0.950 . S
H460 C456 0.950 . S
C461 C459 1.390 . S
C461 C462 1.387 . S
C461 H464 0.950 . S
C462 C461 1.387 . S
C462 C465 1.387 . S
H463 C459 0.950 . S
H464 C461 0.950 . S
C465 C456 1.390 . S
C465 H458 0.950 . S
C465 C462 1.387 . S
C466 C467 1.387 . S
C466 H470 0.950 . S
C466 C475 1.390 . S
C467 C466 1.387 . S
C467 C469 1.387 . S
H468 C475 0.950 . S
C469 C467 1.387 . S
C469 C471 1.390 . S
C469 H473 0.950 . S
H470 C466 0.950 . S
C471 C469 1.390 . S
C471 C472 1.387 . S
C471 H474 0.950 . S
C472 C471 1.387 . S
C472 C475 1.387 . S
H473 C469 0.950 . S
H474 C471 0.950 . S
C475 C466 1.390 . S
C475 H468 0.950 . S
C475 C472 1.387 . S
C476 C477 1.387 . S
C476 H480 0.950 . S
C476 C485 1.390 . S
C477 C476 1.387 . S
C477 C479 1.387 . S
H478 C485 0.950 . S
C479 C477 1.387 . S
C479 C481 1.390 . S
C479 H483 0.950 . S
H480 C476 0.950 . S
C481 C479 1.390 . S
C481 C482 1.387 . S
C481 H484 0.950 . S
C482 C481 1.387 . S
C482 C485 1.387 . S
H483 C479 0.950 . S
H484 C481 0.950 . S
C485 C476 1.390 . S
C485 H478 0.950 . S
C485 C482 1.387 . S
C486 C487 1.387 . S
C486 H490 0.950 . S
C486 C495 1.390 . S
C487 C486 1.387 . S
C487 C489 1.387 . S
H488 C495 0.950 . S
C489 C487 1.387 . S
C489 C491 1.390 . S
C489 H493 0.950 . S
H490 C486 0.950 . S
C491 C489 1.390 . S
C491 C492 1.387 . S
C491 H494 0.950 . S
C492 C491 1.387 . S
C492 C495 1.387 . S
H493 C489 0.950 . S
H494 C491 0.950 . S
C495 C486 1.390 . S
C495 H488 0.950 . S
C495 C492 1.387 . S
C496 C497 1.387 . S
C496 H500 0.950 . S
C496 C505 1.390 . S
C497 C496 1.387 . S
C497 C499 1.387 . S
H498 C505 0.950 . S
C499 C497 1.387 . S
C499 C501 1.390 . S
C499 H503 0.950 . S
H500 C496 0.950 . S
C501 C499 1.390 . S
C501 C502 1.387 . S
C501 H504 0.950 . S
C502 C501 1.387 . S
C502 C505 1.387 . S
H503 C499 0.950 . S
H504 C501 0.950 . S
C505 C496 1.390 . S
C505 H498 0.950 . S
C505 C502 1.387 . S
C506 C507 1.387 . S
C506 H510 0.950 . S
C506 C515 1.390 . S
C507 C506 1.387 . S
C507 C509 1.387 . S
H508 C515 0.950 . S
C509 C507 1.387 . S
C509 C511 1.390 . S
C509 H513 0.950 . S
H510 C506 0.950 . S
C511 C509 1.390 . S
C511 C512 1.387 . S
C511 H514 0.950 . S
C512 C511 1.387 . S
C512 C515 1.387 . S
H513 C509 0.950 . S
H514 C511 0.950 . S
C515 C506 1.390 . S
C515 H508 0.950 . S
C515 C512 1.387 . S
C516 C517 1.387 . S
C516 H520 0.950 . S
C516 C525 1.390 . S
C517 C516 1.387 . S
C517 C519 1.387 . S
H518 C525 0.950 . S
C519 C517 1.387 . S
C519 C521 1.390 . S
C519 H523 0.950 . S
H520 C516 0.950 . S
C521 C519 1.390 . S
C521 C522 1.387 . S
C521 H524 0.950 . S
C522 C521 1.387 . S
C522 C525 1.387 . S
H523 C519 0.950 . S
H524 C521 0.950 . S
C525 C516 1.390 . S
C525 H518 0.950 . S
C525 C522 1.387 . S
C526 C527 1.387 . S
C526 H530 0.950 . S
C526 C535 1.390 . S
C527 C526 1.387 . S
C527 C529 1.387 . S
H528 C535 0.950 . S
C529 C527 1.387 . S
C529 C531 1.390 . S
C529 H533 0.950 . S
H530 C526 0.950 . S
C531 C529 1.390 . S
C531 C532 1.387 . S
C531 H534 0.950 . S
C532 C531 1.387 . S
C532 C535 1.387 . S
H533 C529 0.950 . S
H534 C531 0.950 . S
C535 C526 1.390 . S
C535 H528 0.950 . S
C535 C532 1.387 . S
C536 C537 1.387 . S
C536 H540 0.950 . S
C536 C545 1.390 . S
C537 C536 1.387 . S
C537 C539 1.387 . S
H538 C545 0.950 . S
C539 C537 1.387 . S
C539 C541 1.390 . S
C539 H543 0.950 . S
H540 C536 0.950 . S
C541 C539 1.390 . S
C541 C542 1.387 . S
C541 H544 0.950 . S
C542 C541 1.387 . S
C542 C545 1.387 . S
H543 C539 0.950 . S
H544 C541 0.950 . S
C545 C536 1.390 . S
C545 H538 0.950 . S
C545 C542 1.387 . S
C546 C547 1.387 . S
C546 H550 0.950 . S
C546 C555 1.390 . S
C547 C546 1.387 . S
C547 C549 1.387 . S
H548 C555 0.950 . S
C549 C547 1.387 . S
C549 C551 1.390 . S
C549 H553 0.950 . S
H550 C546 0.950 . S
C551 C549 1.390 . S
C551 C552 1.387 . S
C551 H554 0.950 . S
C552 C551 1.387 . S
C552 C555 1.387 . S
H553 C549 0.950 . S
H554 C551 0.950 . S
C555 C546 1.390 . S
C555 H548 0.950 . S
C555 C552 1.387 . S
C556 C557 1.387 . S
C556 H560 0.950 . S
C556 C565 1.390 . S
C557 C556 1.387 . S
C557 C559 1.387 . S
H558 C565 0.950 . S
C559 C557 1.387 . S
C559 C561 1.390 . S
C559 H563 0.950 . S
H560 C556 0.950 . S
C561 C559 1.390 . S
C561 C562 1.387 . S
C561 H564 0.950 . S
C562 C561 1.387 . S
C562 C565 1.387 . S
H563 C559 0.950 . S
H564 C561 0.950 . S
C565 C556 1.390 . S
C565 H558 0.950 . S
C565 C562 1.387 . S
C566 C567 1.387 . S
C566 H570 0.950 . S
C566 C575 1.390 . S
C567 C566 1.387 . S
C567 C569 1.387 . S
H568 C575 0.950 . S
C569 C567 1.387 . S
C569 C571 1.390 . S
C569 H573 0.950 . S
H570 C566 0.950 . S
C571 C569 1.390 . S
C571 C572 1.387 . S
C571 H574 0.950 . S
C572 C571 1.387 . S
C572 C575 1.387 . S
H573 C569 0.950 . S
H574 C571 0.950 . S
C575 C566 1.390 . S
C575 H568 0.950 . S
C575 C572 1.387 . S
C337 C29 1.575 . S
C342 C275 1.513 . S
C347 C49 1.221 . S
C352 C278 1.237 . S
C362 C314 1.823 . S
C357 C93 1.818 . S
C367 C119 1.678 . S
C372 C334 1.651 . S
C382 C288 1.608 . S
C377 C17 1.647 . S
C392 C265 1.507 . S
C387 C61 1.491 . S
C402 C318 1.564 . S
C397 C81 1.689 . S
C412 C298 1.422 . S
C407 C125 1.533 . S
C417 C23 1.383 . S
C422 C328 1.304 . S
C432 C294 1.650 . S
C427 C87 1.642 . S
C437 C113 1.661 . S
C442 C260 1.607 . S
C447 C55 1.301 . S
C452 C308 1.293 . S
C462 C274 1.466 . S
C457 C157 1.398 . S
C467 C189 1.287 . S
C472 C280 1.252 . S
C477 C221 1.765 . S
C482 C315 1.801 . S
C487 C253 1.729 . S
C492 C335 1.704 . S
C497 C145 1.621 . S
C502 C285 1.647 . S
C512 C268 1.443 . S
C507 C183 1.442 . S
C522 C320 1.591 . S
C517 C209 1.672 . S
C532 C300 1.397 . S
C527 C247 1.504 . S
C537 C151 1.299 . S
C542 C325 1.296 . S
C552 C295 1.636 . S
C547 C215 1.610 . S
C562 C258 1.626 . S
C557 C241 1.637 . S
C567 C177 1.330 . S
C572 C305 1.320 . S
