# Generated by pormake.
# Topology anh, (6,3)-cn, num edge types: 1
# Building blocks:
#     Node 0, Type 0, BuildingBlock: VOLQOD_clean_sbu_1, # of connection points: 6
#     Node 1, Type 0, BuildingBlock: VOLQOD_clean_sbu_1, # of connection points: 6
#     Node 2, Type 0, BuildingBlock: VOLQOD_clean_sbu_1, # of connection points: 6
#     Node 3, Type 1, BuildingBlock: KAKCAD_clean_linker_0, # of connection points: 3
#     Node 4, Type 1, BuildingBlock: KAKCAD_clean_linker_0, # of connection points: 3
#     Node 5, Type 1, BuildingBlock: KAKCAD_clean_linker_0, # of connection points: 3
#     Node 6, Type 1, BuildingBlock: KAKCAD_clean_linker_0, # of connection points: 3
#     Node 7, Type 1, BuildingBlock: KAKCAD_clean_linker_0, # of connection points: 3
#     Node 8, Type 1, BuildingBlock: KAKCAD_clean_linker_0, # of connection points: 3
#     Edge 9, Type (0, 1), None
#     Edge 10, Type (0, 1), None
#     Edge 11, Type (0, 1), None
#     Edge 12, Type (0, 1), None
#     Edge 13, Type (0, 1), None
#     Edge 14, Type (0, 1), None
#     Edge 15, Type (0, 1), None
#     Edge 16, Type (0, 1), None
#     Edge 17, Type (0, 1), None
#     Edge 18, Type (0, 1), None
#     Edge 19, Type (0, 1), None
#     Edge 20, Type (0, 1), None
#     Edge 21, Type (0, 1), None
#     Edge 22, Type (0, 1), None
#     Edge 23, Type (0, 1), None
#     Edge 24, Type (0, 1), None
#     Edge 25, Type (0, 1), None
#     Edge 26, Type (0, 1), None
# Relax obj value: 0.167
# Max RMSD: 0.230
# Mean RMSD: 0.114
data_MOF--net-anh--node1-VOLQOD_clean_sbu_1--node2-KAKCAD_clean_linker_0--edge1-none
_symmetry_space_group_name_H-M    P1
_symmetry_Int_Tables_number       1
_symmetry_cell_setting            triclinic
loop_
_symmetry_equiv_pos_as_xyz
'x, y, z'
_cell_length_a     19.973882
_cell_length_b     19.703937
_cell_length_c     42.33272
_cell_angle_alpha  89.172724
_cell_angle_beta   90.516921
_cell_angle_gamma 121.17265
loop_
_atom_site_label
_atom_site_type_symbol
_atom_site_fract_x
_atom_site_fract_y
_atom_site_fract_z
_atom_type_partial_charge
O0 O -0.00276 0.56432 0.22573 0.0
Zn1 Zn 0.00811 0.58552 0.17862 0.0
O2 O 0.028 0.50895 0.15829 0.0
Zn3 Zn 0.94331 0.438 0.13114 0.0
Zn4 Zn 0.03988 0.44394 0.19001 0.0
Zn5 Zn 0.11959 0.56455 0.13216 0.0
O6 O 0.9766 0.4385 0.08668 0.0
O7 O 0.09434 0.54779 0.08557 0.0
O8 O 0.90979 0.57941 0.16058 0.0
O9 O 0.87245 0.47885 0.12785 0.0
O10 O 0.87613 0.32801 0.14921 0.0
O11 O 0.93966 0.33822 0.19378 0.0
O12 O 0.13309 0.43256 0.18079 0.0
O13 O 0.10315 0.69667 0.17407 0.0
O14 O 0.1889 0.52324 0.14231 0.0
O15 O 0.18095 0.67991 0.14223 0.0
C16 C 0.02351 0.5309 0.24379 0.0
C17 C 0.03614 0.49091 0.07143 0.0
C18 C 0.88053 0.29982 0.17582 0.0
C19 C 0.86281 0.53191 0.13979 0.0
C20 C 0.18842 0.47231 0.16121 0.0
C21 C 0.16789 0.72422 0.15945 0.0
O22 O 0.05094 0.49045 0.23272 0.0
O23 O 0.4225 0.02948 0.41932 0.0
Zn24 Zn 0.3894 0.02759 0.46461 0.0
O25 O 0.45752 0.01094 0.49257 0.0
Zn26 Zn 0.52122 0.10125 0.51858 0.0
Zn27 Zn 0.52653 0.98949 0.46842 0.0
Zn28 Zn 0.39463 0.92525 0.52102 0.0
O29 O 0.51913 0.07145 0.56413 0.0
O30 O 0.40412 0.95877 0.56595 0.0
O31 O 0.39126 0.12881 0.47642 0.0
O32 O 0.47736 0.17065 0.51613 0.0
O33 O 0.63081 0.16699 0.50234 0.0
O34 O 0.63203 0.09011 0.46481 0.0
O35 O 0.53478 0.89844 0.48799 0.0
O36 O 0.27852 0.93301 0.46722 0.0
O37 O 0.43718 0.8552 0.52231 0.0
O38 O 0.28343 0.86104 0.50694 0.0
C39 C 0.45613 -0.00373 0.40675 0.0
C40 C 0.46354 0.01494 0.57971 0.0
C41 C 0.66499 0.15524 0.47976 0.0
C42 C 0.42914 0.17731 0.49857 0.0
C43 C 0.49195 0.85027 0.50976 0.0
C44 C 0.24572 0.87121 0.48487 0.0
O45 O 0.48971 0.968 0.42347 0.0
O46 O 0.4359 0.46278 0.75733 0.0
Zn47 Zn 0.40321 0.42675 0.80219 0.0
O48 O 0.48539 0.49855 0.8308 0.0
Zn49 Zn 0.45383 0.55834 0.85609 0.0
Zn50 Zn 0.5796 0.5719 0.80692 0.0
Zn51 Zn 0.50402 0.43452 0.85989 0.0
O52 O 0.46421 0.54564 0.90313 0.0
O53 O 0.47072 0.43658 0.90386 0.0
O54 O 0.30016 0.42005 0.81174 0.0
O55 O 0.34159 0.51639 0.84724 0.0
O56 O 0.50753 0.67287 0.84273 0.0
O57 O 0.58795 0.67891 0.80537 0.0
O58 O 0.6774 0.57682 0.8259 0.0
O59 O 0.39434 0.32002 0.80335 0.0
O60 O 0.61756 0.48195 0.86229 0.0
O61 O 0.46334 0.32365 0.84525 0.0
C62 C 0.50321 0.50145 0.74444 0.0
C63 C 0.46451 0.48933 0.91821 0.0
C64 C 0.55669 0.71053 0.82083 0.0
C65 C 0.28804 0.46353 0.83 0.0
C66 C 0.67964 0.53486 0.84873 0.0
C67 C 0.42183 0.28783 0.82134 0.0
O68 O 0.56548 0.53985 0.7609 0.0
C69 C 0.4145 0.01285 0.35251 0.0
C70 C 0.46037 0.99423 0.37193 0.0
C71 C 0.42224 0.01529 0.31966 0.0
C72 C 0.47664 0.00012 0.30567 0.0
C73 C 0.52141 0.98007 0.32499 0.0
C74 C 0.51307 0.9767 0.35777 0.0
C75 C 0.48872 0.00832 0.27105 0.0
C76 C 0.56437 0.05338 0.2586 0.0
C77 C 0.57694 0.06679 0.2258 0.0
C78 C 0.51138 0.02946 0.20548 0.0
C79 C 0.43534 0.98022 0.21764 0.0
C80 C 0.42474 0.97173 0.25053 0.0
C81 C 0.36762 0.93066 0.19655 0.0
C82 C 0.37615 0.89013 0.17136 0.0
C83 C 0.29197 0.91338 0.20441 0.0
C84 C 0.22607 0.85043 0.1901 0.0
C85 C 0.23461 0.80401 0.16745 0.0
C86 C 0.65792 0.12157 0.2133 0.0
C87 C 0.71417 0.18408 0.23206 0.0
C88 C 0.67961 0.11427 0.18244 0.0
C89 C 0.75353 0.17009 0.17034 0.0
C90 C 0.80846 0.23236 0.18926 0.0
C91 C 0.78864 0.23743 0.22044 0.0
C92 C 0.31035 0.82773 0.15685 0.0
H93 H 0.37322 0.02639 0.36267 0.0
H94 H 0.38731 0.03128 0.30523 0.0
H95 H 0.56321 0.96738 0.31473 0.0
H96 H 0.54937 0.96218 0.37201 0.0
H97 H 0.61325 0.07873 0.27487 0.0
H98 H 0.36691 0.93342 0.26037 0.0
H99 H 0.51871 0.03885 0.1802 0.0
H100 H 0.43339 0.90185 0.16459 0.0
H101 H 0.28347 0.94512 0.22311 0.0
H102 H 0.16865 0.83474 0.19846 0.0
H103 H 0.70042 0.19474 0.25542 0.0
H104 H 0.63941 0.06635 0.16731 0.0
H105 H 0.3193 0.79401 0.13917 0.0
H106 H 0.82899 0.28618 0.2353 0.0
H107 H 0.7673 0.1654 0.14608 0.0
C108 C 0.44536 0.44415 0.69176 0.0
C109 C 0.50844 0.50211 0.70955 0.0
C110 C 0.44797 0.4466 0.65879 0.0
C111 C 0.51331 0.50758 0.64284 0.0
C112 C 0.57717 0.56465 0.66056 0.0
C113 C 0.57505 0.56157 0.69362 0.0
C114 C 0.51159 0.51469 0.60794 0.0
C115 C 0.52923 0.58695 0.59396 0.0
C116 C 0.51729 0.5923 0.56144 0.0
C117 C 0.49221 0.52544 0.5425 0.0
C118 C 0.47577 0.45297 0.55603 0.0
C119 C 0.48524 0.44801 0.58881 0.0
C120 C 0.44896 0.38216 0.53614 0.0
C121 C 0.38907 0.30721 0.54678 0.0
C122 C 0.48848 0.38774 0.50802 0.0
C123 C 0.47404 0.31902 0.49273 0.0
C124 C 0.4194 0.2442 0.50518 0.0
C125 C 0.51928 0.66358 0.54848 0.0
C126 C 0.48417 0.69697 0.56582 0.0
C127 C 0.55 0.69509 0.51835 0.0
C128 C 0.54407 0.75803 0.50566 0.0
C129 C 0.50638 0.78915 0.52284 0.0
C130 C 0.47805 0.75885 0.55326 0.0
C131 C 0.37465 0.23868 0.53146 0.0
H132 H 0.39341 0.39721 0.7033 0.0
H133 H 0.39756 0.40233 0.64575 0.0
H134 H 0.62835 0.61217 0.64882 0.0
H135 H 0.6246 0.60704 0.70665 0.0
H136 H 0.54793 0.63816 0.60879 0.0
H137 H 0.47261 0.39228 0.5995 0.0
H138 H 0.48126 0.52844 0.51754 0.0
H139 H 0.35669 0.30134 0.56807 0.0
H140 H 0.53501 0.4447 0.49932 0.0
H141 H 0.51068 0.32427 0.47299 0.0
H142 H 0.45846 0.67333 0.58878 0.0
H143 H 0.57756 0.67043 0.50451 0.0
H144 H 0.33354 0.18134 0.54181 0.0
H145 H 0.44947 0.782 0.56738 0.0
H146 H 0.56655 0.78047 0.4822 0.0
C147 C 0.10175 0.53631 0.01848 0.0
C148 C 0.03374 0.48946 0.03651 0.0
C149 C 0.09716 0.53956 0.98551 0.0
C150 C 0.02436 0.49728 0.97026 0.0
C151 C 0.95689 0.4491 0.98817 0.0
C152 C 0.96155 0.4447 0.02091 0.0
C153 C 0.01717 0.50459 0.93583 0.0
C154 C 0.05747 0.4847 0.91474 0.0
C155 C 0.04511 0.48526 0.88203 0.0
C156 C -0.00816 0.50609 0.87044 0.0
C157 C 0.95017 0.52526 0.89154 0.0
C158 C 0.96535 0.52658 0.92412 0.0
C159 C 0.88469 0.53512 0.88057 0.0
C160 C 0.88732 0.57368 0.85186 0.0
C161 C 0.81656 0.50229 0.89895 0.0
C162 C 0.75276 0.5069 0.88906 0.0
C163 C 0.75367 0.54272 0.85999 0.0
C164 C 0.09085 0.46655 0.86049 0.0
C165 C 0.14156 0.52395 0.8386 0.0
C166 C 0.09493 0.39814 0.86572 0.0
C167 C 0.15439 0.39137 0.85186 0.0
C168 C 0.21047 0.45327 0.8329 0.0
C169 C 0.20164 0.51771 0.82512 0.0
C170 C 0.82213 0.57754 0.84164 0.0
H171 H 0.1582 0.57127 0.02984 0.0
H172 H 0.14991 0.57698 0.97203 0.0
H173 H 0.90024 0.4154 0.97679 0.0
H174 H 0.90799 0.4082 0.03404 0.0
H175 H 0.09809 0.46817 0.92383 0.0
H176 H 0.93533 0.54306 0.94073 0.0
H177 H -0.01925 0.50404 0.84527 0.0
H178 H 0.93921 0.60003 0.83724 0.0
H179 H 0.81098 0.47028 0.92073 0.0
H180 H 0.70135 0.47966 0.90401 0.0
H181 H 0.1397 0.57733 0.83438 0.0
H182 H 0.05604 0.35306 0.8825 0.0
H183 H 0.82441 0.60526 0.81907 0.0
H184 H 0.24541 0.56672 0.81097 0.0
H185 H 0.16127 0.34206 0.8586 0.0
C186 C -0.00207 0.58663 0.29195 0.0
C187 C 0.01783 0.53469 0.27843 0.0
C188 C -0.0123 0.58605 0.32458 0.0
C189 C -0.00367 0.53292 0.34419 0.0
C190 C 0.01785 0.48227 0.3308 0.0
C191 C 0.02889 0.48341 0.29828 0.0
C192 C 0.97988 0.52825 0.37838 0.0
C193 C 0.93031 0.45471 0.39293 0.0
C194 C 0.91004 0.44924 0.42504 0.0
C195 C 0.94458 0.51958 0.44284 0.0
C196 C -0.00205 0.59341 0.42884 0.0
C197 C 0.01359 0.59709 0.39639 0.0
C198 C 0.04464 0.66555 0.44821 0.0
C199 C 0.07852 0.66057 0.4767 0.0
C200 C 0.06649 0.74101 0.43593 0.0
C201 C 0.12772 0.80945 0.44963 0.0
C202 C 0.16771 0.80369 0.47603 0.0
C203 C 0.85162 0.37052 0.43935 0.0
C204 C 0.79279 0.31071 0.4204 0.0
C205 C 0.85208 0.3546 0.47195 0.0
C206 C 0.79327 0.2829 0.48526 0.0
C207 C 0.73488 0.22439 0.46607 0.0
C208 C 0.7364 0.23822 0.43348 0.0
C209 C 0.13921 0.72899 0.49056 0.0
H210 H -0.01076 0.627 0.27732 0.0
H211 H 0.97079 0.62547 0.3344 0.0
H212 H 0.02563 0.44137 0.3455 0.0
H213 H 0.04424 0.4426 0.28866 0.0
H214 H 0.90713 0.40187 0.3788 0.0
H215 H 0.05529 0.65312 0.38525 0.0
H216 H 0.93003 0.51768 0.46752 0.0
H217 H 0.06309 0.60353 0.48686 0.0
H218 H 0.03988 0.74691 0.41448 0.0
H219 H 0.14717 0.86616 0.43817 0.0
H220 H 0.78755 0.3203 0.39552 0.0
H221 H 0.89696 0.39765 0.48741 0.0
H222 H 0.16792 0.72233 0.51117 0.0
H223 H 0.69061 0.19493 0.41828 0.0
H224 H 0.79266 0.27365 0.51057 0.0
C225 C 0.42961 0.93953 0.63071 0.0
C226 C 0.4697 0.01241 0.6143 0.0
C227 C 0.43707 0.9367 0.66342 0.0
C228 C 0.48354 0.0068 0.68021 0.0
C229 C 0.52358 0.07963 0.66389 0.0
C230 C 0.51734 0.08236 0.63113 0.0
C231 C 0.4871 0.00463 0.71492 0.0
C232 C 0.51039 0.95734 0.7304 0.0
C233 C 0.50996 0.95181 0.7637 0.0
C234 C 0.49206 0.00133 0.78122 0.0
C235 C 0.47269 0.05272 0.76547 0.0
C236 C 0.4667 0.05026 0.73242 0.0
C237 C 0.46129 0.11224 0.78208 0.0
C238 C 0.42205 0.09633 0.81124 0.0
C239 C 0.48742 0.18616 0.76721 0.0
C240 C 0.47035 0.24011 0.77967 0.0
C241 C 0.42985 0.22387 0.80819 0.0
C242 C 0.52661 0.89289 0.77911 0.0
C243 C 0.51041 0.82432 0.76255 0.0
C244 C 0.55754 0.90272 0.80999 0.0
C245 C 0.57042 0.845 0.82378 0.0
C246 C 0.55598 0.77853 0.80642 0.0
C247 C 0.52678 0.76945 0.77565 0.0
C248 C 0.40753 0.15264 0.82451 0.0
H249 H 0.39317 0.88462 0.61823 0.0
H250 H 0.40534 0.88005 0.67569 0.0
H251 H 0.55972 0.13436 0.67654 0.0
H252 H 0.54894 0.13924 0.61903 0.0
H253 H 0.52932 0.92537 0.71604 0.0
H254 H 0.44659 0.08486 0.7199 0.0
H255 H 0.49343 0.00048 0.80676 0.0
H256 H 0.40154 0.04031 0.82343 0.0
H257 H 0.5211 0.20266 0.74557 0.0
H258 H 0.49115 0.29616 0.76734 0.0
H259 H 0.4826 0.81076 0.73958 0.0
H260 H 0.57144 0.95437 0.82366 0.0
H261 H 0.37816 0.14025 0.84709 0.0
H262 H 0.51198 0.71695 0.76226 0.0
H263 H 0.59119 0.85202 0.84792 0.0
C264 C 0.48679 0.44005 0.9694 0.0
C265 C 0.46464 0.48814 0.95314 0.0
C266 C 0.49471 0.44361 0.00212 0.0
C267 C 0.47963 0.49441 0.01937 0.0
C268 C 0.45425 0.54015 0.0035 0.0
C269 C 0.44744 0.53757 0.97052 0.0
C270 C 0.49419 0.50142 0.0537 0.0
C271 C 0.56748 0.51991 0.06521 0.0
C272 C 0.58111 0.51952 0.0978 0.0
C273 C 0.52101 0.50359 0.11907 0.0
C274 C 0.44727 0.48516 0.10769 0.0
C275 C 0.43435 0.48462 0.07497 0.0
C276 C 0.3834 0.46843 0.12953 0.0
C277 C 0.30842 0.4016 0.12495 0.0
C278 C 0.39389 0.52582 0.15145 0.0
C279 C 0.32892 0.52142 0.16558 0.0
C280 C 0.25332 0.45885 0.15839 0.0
C281 C 0.65514 0.527 0.10882 0.0
C282 C 0.68428 0.48617 0.09262 0.0
C283 C 0.69626 0.57246 0.13528 0.0
C284 C 0.76554 0.57666 0.14525 0.0
C285 C 0.79384 0.53486 0.12898 0.0
C286 C 0.75268 0.49044 0.10239 0.0
C287 C 0.24357 0.3967 0.13945 0.0
H288 H 0.50054 0.4013 0.95682 0.0
H289 H 0.5137 0.40731 0.01399 0.0
H290 H 0.44232 0.57969 0.01649 0.0
H291 H 0.42998 0.57507 0.95865 0.0
H292 H 0.61373 0.53303 0.04856 0.0
H293 H 0.37748 0.47032 0.06604 0.0
H294 H 0.53027 0.50204 0.14428 0.0
H295 H 0.29937 0.35643 0.10825 0.0
H296 H 0.4512 0.5779 0.15521 0.0
H297 H 0.33715 0.57067 0.17968 0.0
H298 H 0.65327 0.44925 0.07259 0.0
H299 H 0.67498 0.60467 0.14813 0.0
H300 H 0.18549 0.34888 0.13315 0.0
H301 H 0.77252 0.45747 0.08915 0.0
H302 H 0.79587 0.61106 0.1659 0.0
loop_
_geom_bond_atom_site_label_1
_geom_bond_atom_site_label_2
_geom_bond_distance
_geom_bond_site_symmetry_2
_ccdc_geom_bond_type
O0 Zn1 1.953 . S
O0 C16 1.225 1_655 S
Zn1 O0 1.953 . S
Zn1 O2 1.949 1_655 S
Zn1 O8 1.919 . S
Zn1 O13 1.924 1_655 S
O2 Zn1 1.949 1_455 S
O2 Zn3 1.923 1_455 S
O2 Zn4 1.950 . S
O2 Zn5 1.945 . S
Zn3 O2 1.923 1_655 S
Zn3 O6 1.933 . S
Zn3 O9 1.941 . S
Zn3 O10 1.965 . S
Zn4 O2 1.950 . S
Zn4 O11 1.938 1_455 S
Zn4 O12 1.906 . S
Zn4 O22 1.953 . S
Zn5 O2 1.945 . S
Zn5 O7 1.932 . S
Zn5 O14 1.977 . S
Zn5 O15 1.910 . S
O6 Zn3 1.933 . S
O6 C17 1.226 1_655 S
O7 Zn5 1.932 . S
O7 C17 1.307 . S
O8 Zn1 1.919 . S
O8 C19 1.253 . S
O9 Zn3 1.941 . S
O9 C19 1.283 . S
O10 Zn3 1.965 . S
O10 C18 1.303 . S
O11 Zn4 1.938 1_655 S
O11 C18 1.247 . S
O12 Zn4 1.906 . S
O12 C20 1.304 . S
O13 Zn1 1.924 1_455 S
O13 C21 1.311 . S
O14 Zn5 1.977 . S
O14 C20 1.272 . S
O15 Zn5 1.910 . S
O15 C21 1.231 . S
C16 O0 1.225 1_455 S
C16 O22 1.298 . S
C17 O6 1.226 1_455 S
C17 O7 1.307 . S
C18 O10 1.303 . S
C18 O11 1.247 . S
C19 O8 1.253 . S
C19 O9 1.283 . S
C20 O12 1.304 . S
C20 O14 1.272 . S
C21 O13 1.311 . S
C21 O15 1.231 . S
O22 Zn4 1.953 . S
O22 C16 1.298 . S
O23 Zn24 1.953 . S
O23 C39 1.225 . S
Zn24 O23 1.953 . S
Zn24 O25 1.949 . S
Zn24 O31 1.919 . S
Zn24 O36 1.924 1_545 S
O25 Zn24 1.949 . S
O25 Zn26 1.923 . S
O25 Zn27 1.950 1_545 S
O25 Zn28 1.945 1_545 S
Zn26 O25 1.923 . S
Zn26 O29 1.933 . S
Zn26 O32 1.941 . S
Zn26 O33 1.965 . S
Zn27 O25 1.950 1_565 S
Zn27 O34 1.938 1_565 S
Zn27 O35 1.906 . S
Zn27 O45 1.953 . S
Zn28 O25 1.945 1_565 S
Zn28 O30 1.932 . S
Zn28 O37 1.977 . S
Zn28 O38 1.910 . S
O29 Zn26 1.933 . S
O29 C40 1.226 . S
O30 Zn28 1.932 . S
O30 C40 1.307 1_565 S
O31 Zn24 1.919 . S
O31 C42 1.253 . S
O32 Zn26 1.941 . S
O32 C42 1.283 . S
O33 Zn26 1.965 . S
O33 C41 1.303 . S
O34 Zn27 1.938 1_545 S
O34 C41 1.247 . S
O35 Zn27 1.906 . S
O35 C43 1.304 . S
O36 Zn24 1.924 1_565 S
O36 C44 1.311 . S
O37 Zn28 1.977 . S
O37 C43 1.272 . S
O38 Zn28 1.910 . S
O38 C44 1.231 . S
C39 O23 1.225 . S
C39 O45 1.298 1_545 S
C40 O29 1.226 . S
C40 O30 1.307 1_545 S
C41 O33 1.303 . S
C41 O34 1.247 . S
C42 O31 1.253 . S
C42 O32 1.283 . S
C43 O35 1.304 . S
C43 O37 1.272 . S
C44 O36 1.311 . S
C44 O38 1.231 . S
O45 Zn27 1.953 . S
O45 C39 1.298 1_565 S
O46 Zn47 1.953 . S
O46 C62 1.225 . S
Zn47 O46 1.953 . S
Zn47 O48 1.949 . S
Zn47 O54 1.919 . S
Zn47 O59 1.924 . S
O48 Zn47 1.949 . S
O48 Zn49 1.923 . S
O48 Zn50 1.950 . S
O48 Zn51 1.945 . S
Zn49 O48 1.923 . S
Zn49 O52 1.933 . S
Zn49 O55 1.941 . S
Zn49 O56 1.965 . S
Zn50 O48 1.950 . S
Zn50 O57 1.938 . S
Zn50 O58 1.906 . S
Zn50 O68 1.953 . S
Zn51 O48 1.945 . S
Zn51 O53 1.932 . S
Zn51 O60 1.977 . S
Zn51 O61 1.910 . S
O52 Zn49 1.933 . S
O52 C63 1.226 . S
O53 Zn51 1.932 . S
O53 C63 1.307 . S
O54 Zn47 1.919 . S
O54 C65 1.253 . S
O55 Zn49 1.941 . S
O55 C65 1.283 . S
O56 Zn49 1.965 . S
O56 C64 1.303 . S
O57 Zn50 1.938 . S
O57 C64 1.247 . S
O58 Zn50 1.906 . S
O58 C66 1.304 . S
O59 Zn47 1.924 . S
O59 C67 1.311 . S
O60 Zn51 1.977 . S
O60 C66 1.272 . S
O61 Zn51 1.910 . S
O61 C67 1.231 . S
C62 O46 1.225 . S
C62 O68 1.298 . S
C63 O52 1.226 . S
C63 O53 1.307 . S
C64 O56 1.303 . S
C64 O57 1.247 . S
C65 O54 1.253 . S
C65 O55 1.283 . S
C66 O58 1.304 . S
C66 O60 1.272 . S
C67 O59 1.311 . S
C67 O61 1.231 . S
O68 Zn50 1.953 . S
O68 C62 1.298 . S
C69 C70 1.386 . S
C69 C71 1.397 . S
C69 H93 0.931 . S
C70 C69 1.386 . S
C70 C74 1.397 1_545 S
C71 C69 1.397 . S
C71 C72 1.384 . S
C71 H94 0.930 . S
C72 C71 1.384 . S
C72 C73 1.377 1_545 S
C72 C75 1.481 . S
C73 C72 1.377 1_565 S
C73 C74 1.389 . S
C73 H95 0.929 . S
C74 C70 1.397 1_565 S
C74 C73 1.389 . S
C74 H96 0.931 . S
C75 C72 1.481 . S
C75 C76 1.387 . S
C75 C80 1.390 1_545 S
C76 C75 1.387 . S
C76 C77 1.401 . S
C76 H97 0.930 . S
C77 C76 1.401 . S
C77 C78 1.376 . S
C77 C86 1.511 . S
C78 C77 1.376 . S
C78 C79 1.392 1_545 S
C78 H99 0.931 . S
C79 C78 1.392 1_565 S
C79 C80 1.361 . S
C79 C81 1.500 . S
C80 C75 1.390 1_565 S
C80 C79 1.361 . S
C80 H98 0.931 . S
C81 C79 1.500 . S
C81 C82 1.371 . S
C81 C83 1.365 . S
C82 C81 1.371 . S
C82 C92 1.386 . S
C82 H100 0.931 . S
C83 C81 1.365 . S
C83 C84 1.409 . S
C83 H101 0.929 . S
C84 C83 1.409 . S
C84 C85 1.380 . S
C84 H102 0.930 . S
C85 C84 1.380 . S
C85 C92 1.357 . S
C86 C77 1.511 . S
C86 C87 1.341 . S
C86 C88 1.371 . S
C87 C86 1.341 . S
C87 C91 1.394 . S
C87 H103 0.930 . S
C88 C86 1.371 . S
C88 C89 1.392 . S
C88 H104 0.931 . S
C89 C88 1.392 . S
C89 C90 1.331 . S
C89 H107 0.932 . S
C90 C89 1.331 . S
C90 C91 1.336 . S
C91 C87 1.394 . S
C91 C90 1.336 . S
C91 H106 0.929 . S
C92 C82 1.386 . S
C92 C85 1.357 . S
C92 H105 0.928 . S
H93 C69 0.931 . S
H94 C71 0.930 . S
H95 C73 0.929 . S
H96 C74 0.931 . S
H97 C76 0.930 . S
H98 C80 0.931 . S
H99 C78 0.931 . S
H100 C82 0.931 . S
H101 C83 0.929 . S
H102 C84 0.930 . S
H103 C87 0.930 . S
H104 C88 0.931 . S
H105 C92 0.928 . S
H106 C91 0.929 . S
H107 C89 0.932 . S
C108 C109 1.386 . S
C108 C110 1.397 . S
C108 H132 0.931 . S
C109 C108 1.386 . S
C109 C113 1.397 . S
C110 C108 1.397 . S
C110 C111 1.384 . S
C110 H133 0.930 . S
C111 C110 1.384 . S
C111 C112 1.377 . S
C111 C114 1.481 . S
C112 C111 1.377 . S
C112 C113 1.389 . S
C112 H134 0.929 . S
C113 C109 1.397 . S
C113 C112 1.389 . S
C113 H135 0.931 . S
C114 C111 1.481 . S
C114 C115 1.387 . S
C114 C119 1.390 . S
C115 C114 1.387 . S
C115 C116 1.401 . S
C115 H136 0.930 . S
C116 C115 1.401 . S
C116 C117 1.376 . S
C116 C125 1.511 . S
C117 C116 1.376 . S
C117 C118 1.392 . S
C117 H138 0.931 . S
C118 C117 1.392 . S
C118 C119 1.361 . S
C118 C120 1.500 . S
C119 C114 1.390 . S
C119 C118 1.361 . S
C119 H137 0.931 . S
C120 C118 1.500 . S
C120 C121 1.371 . S
C120 C122 1.365 . S
C121 C120 1.371 . S
C121 C131 1.386 . S
C121 H139 0.931 . S
C122 C120 1.365 . S
C122 C123 1.409 . S
C122 H140 0.929 . S
C123 C122 1.409 . S
C123 C124 1.380 . S
C123 H141 0.930 . S
C124 C123 1.380 . S
C124 C131 1.357 . S
C125 C116 1.511 . S
C125 C126 1.341 . S
C125 C127 1.371 . S
C126 C125 1.341 . S
C126 C130 1.394 . S
C126 H142 0.930 . S
C127 C125 1.371 . S
C127 C128 1.392 . S
C127 H143 0.931 . S
C128 C127 1.392 . S
C128 C129 1.331 . S
C128 H146 0.932 . S
C129 C128 1.331 . S
C129 C130 1.336 . S
C130 C126 1.394 . S
C130 C129 1.336 . S
C130 H145 0.929 . S
C131 C121 1.386 . S
C131 C124 1.357 . S
C131 H144 0.928 . S
H132 C108 0.931 . S
H133 C110 0.930 . S
H134 C112 0.929 . S
H135 C113 0.931 . S
H136 C115 0.930 . S
H137 C119 0.931 . S
H138 C117 0.931 . S
H139 C121 0.931 . S
H140 C122 0.929 . S
H141 C123 0.930 . S
H142 C126 0.930 . S
H143 C127 0.931 . S
H144 C131 0.928 . S
H145 C130 0.929 . S
H146 C128 0.932 . S
C147 C148 1.386 . S
C147 C149 1.397 1_554 S
C147 H171 0.931 . S
C148 C147 1.386 . S
C148 C152 1.397 1_455 S
C149 C147 1.397 1_556 S
C149 C150 1.384 . S
C149 H172 0.930 . S
C150 C149 1.384 . S
C150 C151 1.377 1_455 S
C150 C153 1.481 . S
C151 C150 1.377 1_655 S
C151 C152 1.389 1_556 S
C151 H173 0.929 . S
C152 C148 1.397 1_655 S
C152 C151 1.389 1_554 S
C152 H174 0.931 . S
C153 C150 1.481 . S
C153 C154 1.387 . S
C153 C158 1.390 1_455 S
C154 C153 1.387 . S
C154 C155 1.401 . S
C154 H175 0.930 . S
C155 C154 1.401 . S
C155 C156 1.376 . S
C155 C164 1.511 . S
C156 C155 1.376 . S
C156 C157 1.392 1_455 S
C156 H177 0.931 . S
C157 C156 1.392 1_655 S
C157 C158 1.361 . S
C157 C159 1.500 . S
C158 C153 1.390 1_655 S
C158 C157 1.361 . S
C158 H176 0.931 . S
C159 C157 1.500 . S
C159 C160 1.371 . S
C159 C161 1.365 . S
C160 C159 1.371 . S
C160 C170 1.386 . S
C160 H178 0.931 . S
C161 C159 1.365 . S
C161 C162 1.409 . S
C161 H179 0.929 . S
C162 C161 1.409 . S
C162 C163 1.380 . S
C162 H180 0.930 . S
C163 C162 1.380 . S
C163 C170 1.357 . S
C164 C155 1.511 . S
C164 C165 1.341 . S
C164 C166 1.371 . S
C165 C164 1.341 . S
C165 C169 1.394 . S
C165 H181 0.930 . S
C166 C164 1.371 . S
C166 C167 1.392 . S
C166 H182 0.931 . S
C167 C166 1.392 . S
C167 C168 1.331 . S
C167 H185 0.932 . S
C168 C167 1.331 . S
C168 C169 1.336 . S
C169 C165 1.394 . S
C169 C168 1.336 . S
C169 H184 0.929 . S
C170 C160 1.386 . S
C170 C163 1.357 . S
C170 H183 0.928 . S
H171 C147 0.931 . S
H172 C149 0.930 . S
H173 C151 0.929 . S
H174 C152 0.931 . S
H175 C154 0.930 . S
H176 C158 0.931 . S
H177 C156 0.931 . S
H178 C160 0.931 . S
H179 C161 0.929 . S
H180 C162 0.930 . S
H181 C165 0.930 . S
H182 C166 0.931 . S
H183 C170 0.928 . S
H184 C169 0.929 . S
H185 C167 0.932 . S
C186 C187 1.386 1_655 S
C186 C188 1.397 . S
C186 H210 0.931 . S
C187 C186 1.386 1_455 S
C187 C191 1.397 . S
C188 C186 1.397 . S
C188 C189 1.384 1_655 S
C188 H211 0.930 . S
C189 C188 1.384 1_455 S
C189 C190 1.377 . S
C189 C192 1.481 . S
C190 C189 1.377 . S
C190 C191 1.389 . S
C190 H212 0.929 . S
C191 C187 1.397 . S
C191 C190 1.389 . S
C191 H213 0.931 . S
C192 C189 1.481 . S
C192 C193 1.387 1_455 S
C192 C197 1.390 . S
C193 C192 1.387 1_655 S
C193 C194 1.401 . S
C193 H214 0.930 . S
C194 C193 1.401 . S
C194 C195 1.376 1_655 S
C194 C203 1.511 . S
C195 C194 1.376 1_455 S
C195 C196 1.392 . S
C195 H216 0.931 . S
C196 C195 1.392 . S
C196 C197 1.361 . S
C196 C198 1.500 . S
C197 C192 1.390 . S
C197 C196 1.361 . S
C197 H215 0.931 . S
C198 C196 1.500 . S
C198 C199 1.371 . S
C198 C200 1.365 . S
C199 C198 1.371 . S
C199 C209 1.386 . S
C199 H217 0.931 . S
C200 C198 1.365 . S
C200 C201 1.409 . S
C200 H218 0.929 . S
C201 C200 1.409 . S
C201 C202 1.380 . S
C201 H219 0.930 . S
C202 C201 1.380 . S
C202 C209 1.357 . S
C203 C194 1.511 . S
C203 C204 1.341 . S
C203 C205 1.371 . S
C204 C203 1.341 . S
C204 C208 1.394 . S
C204 H220 0.930 . S
C205 C203 1.371 . S
C205 C206 1.392 . S
C205 H221 0.931 . S
C206 C205 1.392 . S
C206 C207 1.331 . S
C206 H224 0.932 . S
C207 C206 1.331 . S
C207 C208 1.336 . S
C208 C204 1.394 . S
C208 C207 1.336 . S
C208 H223 0.929 . S
C209 C199 1.386 . S
C209 C202 1.357 . S
C209 H222 0.928 . S
H210 C186 0.931 . S
H211 C188 0.930 . S
H212 C190 0.929 . S
H213 C191 0.931 . S
H214 C193 0.930 . S
H215 C197 0.931 . S
H216 C195 0.931 . S
H217 C199 0.931 . S
H218 C200 0.929 . S
H219 C201 0.930 . S
H220 C204 0.930 . S
H221 C205 0.931 . S
H222 C209 0.928 . S
H223 C208 0.929 . S
H224 C206 0.932 . S
C225 C226 1.386 1_565 S
C225 C227 1.397 . S
C225 H249 0.931 . S
C226 C225 1.386 1_545 S
C226 C230 1.397 . S
C227 C225 1.397 . S
C227 C228 1.384 1_565 S
C227 H250 0.930 . S
C228 C227 1.384 1_545 S
C228 C229 1.377 . S
C228 C231 1.481 . S
C229 C228 1.377 . S
C229 C230 1.389 . S
C229 H251 0.929 . S
C230 C226 1.397 . S
C230 C229 1.389 . S
C230 H252 0.931 . S
C231 C228 1.481 . S
C231 C232 1.387 1_545 S
C231 C236 1.390 . S
C232 C231 1.387 1_565 S
C232 C233 1.401 . S
C232 H253 0.930 . S
C233 C232 1.401 . S
C233 C234 1.376 1_565 S
C233 C242 1.511 . S
C234 C233 1.376 1_545 S
C234 C235 1.392 . S
C234 H255 0.931 . S
C235 C234 1.392 . S
C235 C236 1.361 . S
C235 C237 1.500 . S
C236 C231 1.390 . S
C236 C235 1.361 . S
C236 H254 0.931 . S
C237 C235 1.500 . S
C237 C238 1.371 . S
C237 C239 1.365 . S
C238 C237 1.371 . S
C238 C248 1.386 . S
C238 H256 0.931 . S
C239 C237 1.365 . S
C239 C240 1.409 . S
C239 H257 0.929 . S
C240 C239 1.409 . S
C240 C241 1.380 . S
C240 H258 0.930 . S
C241 C240 1.380 . S
C241 C248 1.357 . S
C242 C233 1.511 . S
C242 C243 1.341 . S
C242 C244 1.371 . S
C243 C242 1.341 . S
C243 C247 1.394 . S
C243 H259 0.930 . S
C244 C242 1.371 . S
C244 C245 1.392 . S
C244 H260 0.931 . S
C245 C244 1.392 . S
C245 C246 1.331 . S
C245 H263 0.932 . S
C246 C245 1.331 . S
C246 C247 1.336 . S
C247 C243 1.394 . S
C247 C246 1.336 . S
C247 H262 0.929 . S
C248 C238 1.386 . S
C248 C241 1.357 . S
C248 H261 0.928 . S
H249 C225 0.931 . S
H250 C227 0.930 . S
H251 C229 0.929 . S
H252 C230 0.931 . S
H253 C232 0.930 . S
H254 C236 0.931 . S
H255 C234 0.931 . S
H256 C238 0.931 . S
H257 C239 0.929 . S
H258 C240 0.930 . S
H259 C243 0.930 . S
H260 C244 0.931 . S
H261 C248 0.928 . S
H262 C247 0.929 . S
H263 C245 0.932 . S
C264 C265 1.386 . S
C264 C266 1.397 1_556 S
C264 H288 0.931 . S
C265 C264 1.386 . S
C265 C269 1.397 . S
C266 C264 1.397 1_554 S
C266 C267 1.384 . S
C266 H289 0.930 . S
C267 C266 1.384 . S
C267 C268 1.377 . S
C267 C270 1.481 . S
C268 C267 1.377 . S
C268 C269 1.389 1_554 S
C268 H290 0.929 . S
C269 C265 1.397 . S
C269 C268 1.389 1_556 S
C269 H291 0.931 . S
C270 C267 1.481 . S
C270 C271 1.387 . S
C270 C275 1.390 . S
C271 C270 1.387 . S
C271 C272 1.401 . S
C271 H292 0.930 . S
C272 C271 1.401 . S
C272 C273 1.376 . S
C272 C281 1.511 . S
C273 C272 1.376 . S
C273 C274 1.392 . S
C273 H294 0.931 . S
C274 C273 1.392 . S
C274 C275 1.361 . S
C274 C276 1.500 . S
C275 C270 1.390 . S
C275 C274 1.361 . S
C275 H293 0.931 . S
C276 C274 1.500 . S
C276 C277 1.371 . S
C276 C278 1.365 . S
C277 C276 1.371 . S
C277 C287 1.386 . S
C277 H295 0.931 . S
C278 C276 1.365 . S
C278 C279 1.409 . S
C278 H296 0.929 . S
C279 C278 1.409 . S
C279 C280 1.380 . S
C279 H297 0.930 . S
C280 C279 1.380 . S
C280 C287 1.357 . S
C281 C272 1.511 . S
C281 C282 1.341 . S
C281 C283 1.371 . S
C282 C281 1.341 . S
C282 C286 1.394 . S
C282 H298 0.930 . S
C283 C281 1.371 . S
C283 C284 1.392 . S
C283 H299 0.931 . S
C284 C283 1.392 . S
C284 C285 1.331 . S
C284 H302 0.932 . S
C285 C284 1.331 . S
C285 C286 1.336 . S
C286 C282 1.394 . S
C286 C285 1.336 . S
C286 H301 0.929 . S
C287 C277 1.386 . S
C287 C280 1.357 . S
C287 H300 0.928 . S
H288 C264 0.931 . S
H289 C266 0.930 . S
H290 C268 0.929 . S
H291 C269 0.931 . S
H292 C271 0.930 . S
H293 C275 0.931 . S
H294 C273 0.931 . S
H295 C277 0.931 . S
H296 C278 0.929 . S
H297 C279 0.930 . S
H298 C282 0.930 . S
H299 C283 0.931 . S
H300 C287 0.928 . S
H301 C286 0.929 . S
H302 C284 0.932 . S
C20 C280 1.368 . S
C41 C207 1.732 . S
C64 C246 1.850 . S
C19 C285 1.612 . S
C202 C44 1.634 . S
C241 C67 1.561 . S
C43 C129 1.404 . S
C66 C163 1.374 . S
C21 C85 1.621 . S
C124 C42 1.532 . S
C168 C65 1.610 . S
C18 C90 1.752 . S
C148 C17 1.471 . S
C39 C70 1.453 . S
C62 C109 1.489 . S
C226 C40 1.433 . S
C265 C63 1.472 . S
C16 C187 1.452 . S
