# Generated by pormake.
# Topology llj, (12,3)-cn, num edge types: 1
# Building blocks:
#     Node 0, Type 0, BuildingBlock: QEWDON_clean_sbu_0, # of connection points: 12
#     Node 1, Type 0, BuildingBlock: QEWDON_clean_sbu_0, # of connection points: 12
#     Node 2, Type 1, BuildingBlock: QEWDON_clean_linker_0, # of connection points: 3
#     Node 3, Type 1, BuildingBlock: QEWDON_clean_linker_0, # of connection points: 3
#     Node 4, Type 1, BuildingBlock: QEWDON_clean_linker_0, # of connection points: 3
#     Node 5, Type 1, BuildingBlock: QEWDON_clean_linker_0, # of connection points: 3
#     Node 6, Type 1, BuildingBlock: QEWDON_clean_linker_0, # of connection points: 3
#     Node 7, Type 1, BuildingBlock: QEWDON_clean_linker_0, # of connection points: 3
#     Node 8, Type 1, BuildingBlock: QEWDON_clean_linker_0, # of connection points: 3
#     Node 9, Type 1, BuildingBlock: QEWDON_clean_linker_0, # of connection points: 3
#     Edge 10, Type (0, 1), BuildingBlock: ZUJKAS_clean_linker_0, # of connection points: 2
#     Edge 11, Type (0, 1), BuildingBlock: ZUJKAS_clean_linker_0, # of connection points: 2
#     Edge 12, Type (0, 1), BuildingBlock: ZUJKAS_clean_linker_0, # of connection points: 2
#     Edge 13, Type (0, 1), BuildingBlock: ZUJKAS_clean_linker_0, # of connection points: 2
#     Edge 14, Type (0, 1), BuildingBlock: ZUJKAS_clean_linker_0, # of connection points: 2
#     Edge 15, Type (0, 1), BuildingBlock: ZUJKAS_clean_linker_0, # of connection points: 2
#     Edge 16, Type (0, 1), BuildingBlock: ZUJKAS_clean_linker_0, # of connection points: 2
#     Edge 17, Type (0, 1), BuildingBlock: ZUJKAS_clean_linker_0, # of connection points: 2
#     Edge 18, Type (0, 1), BuildingBlock: ZUJKAS_clean_linker_0, # of connection points: 2
#     Edge 19, Type (0, 1), BuildingBlock: ZUJKAS_clean_linker_0, # of connection points: 2
#     Edge 20, Type (0, 1), BuildingBlock: ZUJKAS_clean_linker_0, # of connection points: 2
#     Edge 21, Type (0, 1), BuildingBlock: ZUJKAS_clean_linker_0, # of connection points: 2
#     Edge 22, Type (0, 1), BuildingBlock: ZUJKAS_clean_linker_0, # of connection points: 2
#     Edge 23, Type (0, 1), BuildingBlock: ZUJKAS_clean_linker_0, # of connection points: 2
#     Edge 24, Type (0, 1), BuildingBlock: ZUJKAS_clean_linker_0, # of connection points: 2
#     Edge 25, Type (0, 1), BuildingBlock: ZUJKAS_clean_linker_0, # of connection points: 2
#     Edge 26, Type (0, 1), BuildingBlock: ZUJKAS_clean_linker_0, # of connection points: 2
#     Edge 27, Type (0, 1), BuildingBlock: ZUJKAS_clean_linker_0, # of connection points: 2
#     Edge 28, Type (0, 1), BuildingBlock: ZUJKAS_clean_linker_0, # of connection points: 2
#     Edge 29, Type (0, 1), BuildingBlock: ZUJKAS_clean_linker_0, # of connection points: 2
#     Edge 30, Type (0, 1), BuildingBlock: ZUJKAS_clean_linker_0, # of connection points: 2
#     Edge 31, Type (0, 1), BuildingBlock: ZUJKAS_clean_linker_0, # of connection points: 2
#     Edge 32, Type (0, 1), BuildingBlock: ZUJKAS_clean_linker_0, # of connection points: 2
#     Edge 33, Type (0, 1), BuildingBlock: ZUJKAS_clean_linker_0, # of connection points: 2
# Relax obj value: 0.027
# Max RMSD: 0.179
# Mean RMSD: 0.154
data_MOF--net-llj--node1-QEWDON_clean_sbu_0--node2-QEWDON_clean_linker_0--edge1-ZUJKAS_clean_linker_0
_symmetry_space_group_name_H-M    P1
_symmetry_Int_Tables_number       1
_symmetry_cell_setting            triclinic
loop_
_symmetry_equiv_pos_as_xyz
'x, y, z'
_cell_length_a     52.067679
_cell_length_b     52.076376
_cell_length_c     30.998436
_cell_angle_alpha  91.114391
_cell_angle_beta   91.005674
_cell_angle_gamma 90.123079
loop_
_atom_site_label
_atom_site_type_symbol
_atom_site_fract_x
_atom_site_fract_y
_atom_site_fract_z
_atom_type_partial_charge
Zn0 Zn 0.95264 0.07019 0.96181 0.0
Zn1 Zn 0.96159 0.063 0.06293 0.0
O2 O 0.97933 0.05985 0.00645 0.0
H3 H 0.99376 0.04891 -4e-05 0.0
C4 C 0.91893 0.0253 0.9045 0.0
O5 O 0.91772 0.0329 0.94507 0.0
Zn6 Zn 0.03491 0.95504 0.04781 0.0
Zn7 Zn 0.02824 0.94493 0.94515 0.0
O8 O 0.01237 0.96234 0.99671 0.0
H9 H 0.99959 0.97572 0.99497 0.0
Zn10 Zn 0.93638 0.97892 0.94596 0.0
O11 O 0.95151 0.99576 -3e-05 0.0
Zn12 Zn 0.94503 0.97179 0.04799 0.0
H13 H 0.96468 0.00887 -9e-05 0.0
Zn14 Zn 0.06192 0.0382 0.95091 0.0
O15 O 0.04386 0.0228 0.00133 0.0
H16 H 0.02859 0.01235 0.99812 0.0
Zn17 Zn 0.05241 0.04473 0.05308 0.0
C18 C 0.08203 0.99058 0.91193 0.0
O19 O 0.08101 0.98265 0.95185 0.0
O20 O 0.924 0.09226 0.98785 0.0
O21 O 0.93183 0.08847 0.05819 0.0
O22 O 0.05865 0.92163 0.96079 0.0
O23 O 0.06338 0.92995 0.03119 0.0
O24 O 0.91344 0.94763 0.95717 0.0
O25 O 0.92 0.94328 0.0278 0.0
C26 C 0.01109 0.0723 0.1041 0.0
O27 O 0.08608 0.06812 0.96812 0.0
O28 O 0.07972 0.07118 0.0388 0.0
O29 O 0.00403 0.93277 0.89536 0.0
C30 C 0.91889 0.09789 0.02692 0.0
O31 O 0.96654 0.08131 0.90292 0.0
C32 C 0.9893 0.94388 0.09499 0.0
O33 O 0.92637 0.0026 0.89577 0.0
C34 C 0.07026 0.91823 0.99675 0.0
O35 O 0.0746 0.01318 0.90334 0.0
C36 C 0.93511 0.01601 0.10326 0.0
O37 O 0.98719 0.07616 0.10855 0.0
O38 O 0.01846 0.05968 0.07113 0.0
C39 C 0.90926 0.93603 0.99218 0.0
O40 O 0.01333 0.93975 0.09446 0.0
O41 O 0.9796 0.9574 0.06511 0.0
C42 C 0.06212 0.99866 0.09998 0.0
O43 O 0.93065 0.9921 0.09825 0.0
O44 O 0.94888 0.02701 0.07549 0.0
C45 C 0.09104 0.07845 0.00493 0.0
O46 O 0.06632 0.02271 0.10085 0.0
O47 O 0.04909 0.98933 0.06827 0.0
C48 C 0.98113 0.9256 0.9022 0.0
O49 O 0.97248 0.92642 0.94177 0.0
C50 C 0.98748 0.09387 0.90443 0.0
O51 O 0.9985 0.09868 0.94219 0.0
Zn52 Zn 0.45314 0.56795 0.45642 0.0
Zn53 Zn 0.46129 0.56394 0.55859 0.0
O54 O 0.47954 0.55987 0.50302 0.0
H55 H 0.49545 0.55075 0.49862 0.0
C56 C 0.43265 0.51591 0.38286 0.0
O57 O 0.45765 0.5127 0.38553 0.0
Zn58 Zn 0.53606 0.45155 0.55038 0.0
Zn59 Zn 0.53147 0.44192 0.44735 0.0
O60 O 0.51461 0.45916 0.49824 0.0
H61 H 0.50171 0.4724 0.4961 0.0
Zn62 Zn 0.43367 0.47753 0.45053 0.0
O63 O 0.45361 0.49309 0.50115 0.0
Zn64 Zn 0.44703 0.47104 0.55162 0.0
H65 H 0.46692 0.50595 0.49925 0.0
Zn66 Zn 0.55999 0.54154 0.46031 0.0
O67 O 0.54398 0.52222 0.50876 0.0
H68 H 0.52964 0.51059 0.50449 0.0
Zn69 Zn 0.5511 0.5426 0.56266 0.0
C70 C 0.56161 0.49995 0.39522 0.0
O71 O 0.53843 0.49543 0.40942 0.0
O72 O 0.42239 0.58848 0.47983 0.0
O73 O 0.42978 0.58657 0.55059 0.0
O74 O 0.56263 0.41979 0.46398 0.0
O75 O 0.56563 0.42769 0.5347 0.0
O76 O 0.41238 0.44552 0.46514 0.0
O77 O 0.42142 0.44235 0.53526 0.0
C78 C 0.50943 0.57623 0.60215 0.0
O79 O 0.58261 0.5718 0.48191 0.0
O80 O 0.57777 0.57056 0.55306 0.0
O81 O 0.50783 0.42823 0.39791 0.0
C82 C 0.4165 0.59444 0.51849 0.0
O83 O 0.4681 0.58031 0.39905 0.0
C84 C 0.48997 0.43944 0.59498 0.0
O85 O 0.41822 0.50289 0.40682 0.0
C86 C 0.57363 0.4165 0.5005 0.0
O87 O 0.57439 0.5188 0.41104 0.0
C88 C 0.43648 0.51756 0.60224 0.0
O89 O 0.4857 0.58182 0.60142 0.0
O90 O 0.51689 0.55788 0.57785 0.0
C91 C 0.40963 0.43438 0.50102 0.0
O92 O 0.51381 0.43437 0.59398 0.0
O93 O 0.48127 0.45591 0.56871 0.0
C94 C 0.56055 0.49478 0.60664 0.0
O95 O 0.43274 0.49343 0.59956 0.0
O96 O 0.45092 0.52783 0.57467 0.0
C97 C 0.58798 0.58023 0.5199 0.0
O98 O 0.56409 0.51889 0.60917 0.0
O99 O 0.54862 0.48576 0.57353 0.0
C100 C 0.48432 0.42299 0.40388 0.0
O101 O 0.47461 0.42683 0.4423 0.0
C102 C 0.48914 0.57102 0.3858 0.0
O103 O 0.50053 0.55297 0.40811 0.0
H104 H 0.36579 0.27116 0.04841 0.0
C105 C 0.36864 0.28234 0.01973 0.0
C106 C 0.37631 0.30816 0.02361 0.0
C107 C 0.36637 0.27033 0.97896 0.0
H108 H 0.38591 0.34223 0.98887 0.0
C109 C 0.38057 0.32213 0.98606 0.0
C110 C 0.37832 0.31034 0.94502 0.0
C111 C 0.37128 0.28432 0.94179 0.0
C112 C 0.36033 0.2427 0.97528 0.0
H113 H 0.37012 0.27474 0.91045 0.0
C114 C 0.337 0.23324 0.99055 0.0
C115 C 0.33106 0.20694 0.98652 0.0
C116 C 0.3779 0.22571 0.95626 0.0
H117 H 0.39601 0.23271 0.94435 0.0
C118 C 0.37234 0.19952 0.95297 0.0
H119 H 0.3234 0.24641 0.00506 0.0
C120 C 0.34906 0.19013 0.96795 0.0
H121 H 0.34488 0.16983 0.96402 0.0
H122 H 0.38598 0.18649 0.93838 0.0
H123 H 0.72318 0.36929 0.07278 0.0
C124 C 0.71278 0.37198 0.0426 0.0
C125 C 0.68661 0.37847 0.04289 0.0
C126 C 0.72583 0.36978 0.00352 0.0
H127 H 0.65348 0.38779 0.00357 0.0
C128 C 0.67345 0.38194 0.00348 0.0
C129 C 0.68628 0.37969 0.9641 0.0
C130 C 0.71257 0.37373 0.96445 0.0
C131 C 0.7536 0.36428 0.00348 0.0
H132 H 0.72274 0.37198 0.93432 0.0
C133 C 0.76303 0.34124 0.02032 0.0
C134 C 0.78941 0.33552 0.01884 0.0
C135 C 0.77069 0.3819 0.98581 0.0
H136 H 0.76371 0.39977 0.97269 0.0
C137 C 0.79694 0.37665 0.98523 0.0
H138 H 0.74974 0.32762 0.03378 0.0
C139 C 0.80629 0.3536 0.00148 0.0
H140 H 0.82664 0.34964 -0.00071 0.0
H141 H 0.81005 0.39032 0.97158 0.0
H142 H 0.68405 0.68739 0.95102 0.0
C143 C 0.66987 0.68427 0.97559 0.0
C144 C 0.64538 0.67488 0.96363 0.0
C145 C 0.67665 0.68758 0.01953 0.0
H146 H 0.60856 0.66254 0.98645 0.0
C147 C 0.62746 0.66977 0.99569 0.0
C148 C 0.63378 0.67339 0.03946 0.0
C149 C 0.65831 0.68256 0.05111 0.0
C150 C 0.70351 0.69337 0.03321 0.0
H151 H 0.66358 0.68471 0.08499 0.0
C152 C 0.71711 0.71426 0.01651 0.0
C153 C 0.7424 0.71977 0.03118 0.0
C154 C 0.71556 0.67778 0.06402 0.0
H155 H 0.70564 0.66139 0.07695 0.0
C156 C 0.74053 0.68303 0.07838 0.0
H157 H 0.70795 0.72628 0.99262 0.0
C158 C 0.75382 0.70391 0.06235 0.0
H159 H 0.77296 0.70789 0.07507 0.0
H160 H 0.74954 0.67099 0.10232 0.0
H161 H 0.26737 0.64803 0.06342 0.0
C162 C 0.2779 0.64309 0.03458 0.0
C163 C 0.3039 0.636 0.03779 0.0
C164 C 0.26527 0.64317 0.99418 0.0
H165 H 0.33711 0.62368 0.00226 0.0
C166 C 0.31716 0.62949 4e-05 0.0
C167 C 0.30475 0.62962 0.95954 0.0
C168 C 0.27878 0.63648 0.95688 0.0
C169 C 0.23779 0.64979 0.9904 0.0
H170 H 0.26889 0.63628 0.92579 0.0
C171 C 0.22907 0.674 0.00434 0.0
C172 C 0.2035 0.68157 0.99611 0.0
C173 C 0.22058 0.63255 0.96989 0.0
H174 H 0.22699 0.61378 0.95894 0.0
C175 C 0.19504 0.63951 0.96291 0.0
H176 H 0.24249 0.68711 0.02034 0.0
C177 C 0.18658 0.6639 0.9754 0.0
H178 H 0.16696 0.66907 0.96753 0.0
H179 H 0.1819 0.62619 0.94677 0.0
H180 H 0.86083 0.77519 0.54632 0.0
C181 C 0.86356 0.78612 0.51733 0.0
C182 C 0.87193 0.81176 0.52053 0.0
C183 C 0.8605 0.77391 0.47683 0.0
H184 H 0.88269 0.84514 0.48488 0.0
C185 C 0.8761 0.82539 0.48259 0.0
C186 C 0.87292 0.81347 0.44182 0.0
C187 C 0.86526 0.78761 0.43925 0.0
C188 C 0.85383 0.74636 0.47383 0.0
H189 H 0.8629 0.7781 0.408 0.0
C190 C 0.83127 0.73716 0.49243 0.0
C191 C 0.82482 0.71094 0.48913 0.0
C192 C 0.87013 0.72915 0.45229 0.0
H193 H 0.88766 0.73589 0.43788 0.0
C194 C 0.8641 0.70305 0.44965 0.0
H195 H 0.81863 0.75048 0.50893 0.0
C196 C 0.84159 0.69395 0.46786 0.0
H197 H 0.83698 0.67372 0.46428 0.0
H198 H 0.87677 0.68987 0.43306 0.0
H199 H 0.22996 0.86882 0.5603 0.0
C200 C 0.21791 0.87228 0.53213 0.0
C201 C 0.19279 0.88148 0.53712 0.0
C202 C 0.22823 0.86934 0.49083 0.0
H203 H 0.15815 0.89319 0.5039 0.0
C204 C 0.17773 0.88658 0.50022 0.0
C205 C 0.1878 0.88359 0.45871 0.0
C206 C 0.21316 0.875 0.45431 0.0
C207 C 0.25543 0.86229 0.48588 0.0
H208 H 0.22148 0.87334 0.42255 0.0
C209 C 0.26434 0.83817 0.49882 0.0
C210 C 0.2902 0.83126 0.49309 0.0
C211 C 0.27251 0.87974 0.46771 0.0
H212 H 0.26591 0.89845 0.45764 0.0
C213 C 0.29828 0.87327 0.46292 0.0
H214 H 0.2509 0.82455 0.51187 0.0
C215 C 0.30713 0.84923 0.47548 0.0
H216 H 0.32725 0.84473 0.47146 0.0
H217 H 0.31144 0.8869 0.44927 0.0
H218 H 0.18533 0.18362 0.45753 0.0
C219 C 0.17042 0.18178 0.48125 0.0
C220 C 0.14601 0.17257 0.46852 0.0
C221 C 0.17616 0.18638 0.52522 0.0
H222 H 0.10836 0.16188 0.48956 0.0
C223 C 0.12715 0.16903 0.49962 0.0
C224 C 0.13253 0.1738 0.5435 0.0
C225 C 0.15709 0.18261 0.55601 0.0
C226 C 0.20286 0.1913 0.54014 0.0
H227 H 0.16187 0.1853 0.58999 0.0
C228 C 0.21589 0.21406 0.53006 0.0
C229 C 0.24075 0.2189 0.54726 0.0
C230 C 0.21504 0.17315 0.56637 0.0
H231 H 0.20532 0.15549 0.57437 0.0
C232 C 0.23983 0.17755 0.58246 0.0
H233 H 0.20636 0.22828 0.51041 0.0
C234 C 0.2526 0.20027 0.57314 0.0
H235 H 0.27185 0.20322 0.58611 0.0
H236 H 0.24912 0.16339 0.60248 0.0
H237 H 0.76457 0.1451 0.56363 0.0
C238 C 0.77568 0.14046 0.53527 0.0
C239 C 0.80165 0.13371 0.53981 0.0
C240 C 0.76395 0.14093 0.49421 0.0
H241 H 0.83568 0.12156 0.50678 0.0
C242 C 0.81587 0.12759 0.50299 0.0
C243 C 0.80432 0.12783 0.46172 0.0
C244 C 0.77832 0.1346 0.45768 0.0
C245 C 0.73678 0.14845 0.48887 0.0
H246 H 0.76928 0.13544 0.42597 0.0
C247 C 0.72841 0.17238 0.50466 0.0
C248 C 0.70334 0.18105 0.49544 0.0
C249 C 0.71962 0.13253 0.46534 0.0
H250 H 0.72575 0.11398 0.4529 0.0
C251 C 0.69449 0.14054 0.45734 0.0
H252 H 0.74177 0.18451 0.52293 0.0
C253 C 0.68642 0.16471 0.47181 0.0
H254 H 0.66717 0.1708 0.46327 0.0
H255 H 0.68138 0.12824 0.43894 0.0
H256 H 0.11588 0.10228 0.9399 0.0
H257 H 0.15516 0.12784 0.94582 0.0
H258 H 0.15406 0.12262 0.08442 0.0
H259 H 0.11444 0.09727 0.07899 0.0
H260 H 0.17014 0.17171 0.05349 0.0
H261 H 0.22241 0.09021 0.97799 0.0
H262 H 0.19538 0.10094 0.94649 0.0
H263 H 0.19032 0.08705 0.99833 0.0
C264 C 0.12373 0.10685 0.97172 0.0
C265 C 0.11225 0.09736 0.00894 0.0
C266 C 0.14622 0.12141 0.97501 0.0
C267 C 0.15777 0.12655 0.01547 0.0
C268 C 0.1455 0.11864 0.05288 0.0
H269 H 0.32069 0.16383 0.03209 0.0
H270 H 0.27846 0.14548 0.04667 0.0
C271 C 0.12286 0.10416 0.04967 0.0
C272 C 0.18355 0.13848 0.01822 0.0
H273 H 0.24512 0.12968 0.98546 0.0
C274 C 0.18662 0.16251 0.03893 0.0
C275 C 0.20508 0.12611 6e-05 0.0
C276 C 0.20328 0.09954 0.97984 0.0
C277 C 0.21059 0.17499 0.04042 0.0
C278 C 0.2318 0.16322 0.02008 0.0
C279 C 0.22883 0.13878 0.0008 0.0
C280 C 0.25705 0.17612 0.0166 0.0
C281 C 0.213 0.20055 0.06388 0.0
C282 C 0.25901 0.19955 0.99528 0.0
C283 C 0.28308 0.21008 0.98703 0.0
C284 C 0.30563 0.19717 -0.00055 0.0
C285 C 0.30362 0.17406 0.02182 0.0
C286 C 0.27954 0.16365 0.03033 0.0
H287 H 0.19802 0.20285 0.08876 0.0
H288 H 0.23219 0.20283 0.07969 0.0
H289 H 0.21041 0.21619 0.04041 0.0
H290 H 0.24197 0.20917 0.98332 0.0
H291 H 0.28405 0.22772 0.96917 0.0
H292 H 0.90952 0.12351 0.10331 0.0
H293 H 0.88303 0.16195 0.113 0.0
H294 H 0.85785 0.15591 0.97992 0.0
H295 H 0.88433 0.11783 0.96971 0.0
H296 H 0.88254 0.2026 0.00406 0.0
H297 H 0.80459 0.17781 0.1167 0.0
H298 H 0.83671 0.16869 0.13226 0.0
H299 H 0.82163 0.15374 0.08573 0.0
C300 C 0.89786 0.13 0.07639 0.0
C301 C 0.89934 0.11784 0.03555 0.0
C302 C 0.88265 0.15191 0.08207 0.0
C303 C 0.86852 0.16172 0.04716 0.0
C304 C 0.86866 0.14862 0.00723 0.0
H305 H 0.76758 0.28836 0.0033 0.0
H306 H 0.78639 0.24632 0.01745 0.0
C307 C 0.88386 0.12687 0.00147 0.0
C308 C 0.85638 0.18733 0.05013 0.0
H309 H 0.80759 0.22132 0.0961 0.0
C310 C 0.8662 0.20673 0.0243 0.0
C311 C 0.83512 0.19255 0.07659 0.0
C312 C 0.82368 0.17212 0.10426 0.0
C313 C 0.85512 0.23118 0.02366 0.0
C314 C 0.83385 0.23648 0.05008 0.0
C315 C 0.82407 0.21717 0.07624 0.0
C316 C 0.82079 0.26162 0.04852 0.0
C317 C 0.8658 0.25095 0.99377 0.0
C318 C 0.8336 0.28405 0.0626 0.0
C319 C 0.82291 0.30812 0.05464 0.0
C320 C 0.79919 0.31012 0.03254 0.0
C321 C 0.78577 0.28751 0.02071 0.0
C322 C 0.79649 0.26346 0.0287 0.0
H323 H 0.87908 0.24231 0.96989 0.0
H324 H 0.85004 0.26077 0.97606 0.0
H325 H 0.8766 0.26571 0.01304 0.0
H326 H 0.8523 0.28294 0.07832 0.0
H327 H 0.8335 0.32517 0.06482 0.0
H328 H 0.87778 0.91962 0.92556 0.0
H329 H 0.84625 0.88486 0.9256 0.0
H330 H 0.86847 0.8674 0.05649 0.0
H331 H 0.89943 0.90274 0.05732 0.0
H332 H 0.85081 0.83494 0.93404 0.0
H333 H 0.79219 0.87251 0.06804 0.0
H334 H 0.81667 0.89153 0.04327 0.0
H335 H 0.82516 0.8689 0.08436 0.0
C336 C 0.8759 0.90849 0.95447 0.0
C337 C 0.89095 0.91418 0.99163 0.0
C338 C 0.85785 0.88859 0.95442 0.0
C339 C 0.85452 0.87389 0.99138 0.0
C340 C 0.87008 0.879 0.02806 0.0
H341 H 0.79332 0.72253 0.01177 0.0
H342 H 0.81838 0.76079 0.99715 0.0
C343 C 0.88795 0.89909 0.02833 0.0
C344 C 0.83527 0.85278 0.99118 0.0
H345 H 0.78578 0.82816 0.04828 0.0
C346 C 0.83641 0.83361 0.95877 0.0
C347 C 0.816 0.85133 0.02272 0.0
C348 C 0.81222 0.87233 0.05624 0.0
C349 C 0.81958 0.8125 0.95815 0.0
C350 C 0.80163 0.81007 0.9916 0.0
C351 C 0.79973 0.82981 0.02289 0.0
C352 C 0.78581 0.78656 0.99652 0.0
C353 C 0.82123 0.79309 0.92153 0.0
C354 C 0.75909 0.78823 0.00164 0.0
C355 C 0.7447 0.76635 0.01108 0.0
C356 C 0.75681 0.74242 0.01574 0.0
C357 C 0.78341 0.74071 0.00897 0.0
C358 C 0.79776 0.76255 -6e-05 0.0
H359 H 0.82846 0.80208 0.89186 0.0
H360 H 0.83496 0.77777 0.93064 0.0
H361 H 0.80227 0.78412 0.91399 0.0
H362 H 0.74946 0.80659 -0.00058 0.0
H363 H 0.72432 0.76842 0.01654 0.0
H364 H 0.08027 0.88041 0.93762 0.0
H365 H 0.10942 0.84436 0.94559 0.0
H366 H 0.13641 0.87561 0.06821 0.0
H367 H 0.10602 0.91123 0.06154 0.0
H368 H 0.1585 0.83829 0.95214 0.0
H369 H 0.11536 0.80609 0.10467 0.0
H370 H 0.10158 0.8315 0.07328 0.0
H371 H 0.12909 0.83769 0.10797 0.0
C372 C 0.09248 0.87976 0.96623 0.0
C373 C 0.09054 0.89847 -0.00073 0.0
C374 C 0.10921 0.8591 0.97073 0.0
C375 C 0.12468 0.85686 0.00802 0.0
C376 C 0.12403 0.87643 0.03984 0.0
H377 H 0.23154 0.72645 0.99352 0.0
H378 H 0.21619 0.7702 0.00385 0.0
C379 C 0.10684 0.89689 0.0358 0.0
C380 C 0.14058 0.83347 0.01351 0.0
H381 H 0.14916 0.78128 0.07717 0.0
C382 C 0.15658 0.82588 0.97961 0.0
C383 C 0.1379 0.81719 0.04926 0.0
C384 C 0.1199 0.82335 0.08568 0.0
C385 C 0.16896 0.80199 0.97931 0.0
C386 C 0.16631 0.7857 0.01507 0.0
C387 C 0.15128 0.79382 0.04992 0.0
C388 C 0.17679 0.7592 0.01507 0.0
C389 C 0.18337 0.79391 0.93943 0.0
C390 C 0.16023 0.73833 0.02118 0.0
C391 C 0.16918 0.71318 0.01718 0.0
C392 C 0.19484 0.70827 0.00617 0.0
C393 C 0.21169 0.72928 0.0022 0.0
C394 C 0.20283 0.75445 0.00728 0.0
H395 H 0.17775 0.80549 0.91106 0.0
H396 H 0.20426 0.79677 0.94535 0.0
H397 H 0.1799 0.77335 0.93113 0.0
H398 H 0.1401 0.74147 0.02777 0.0
H399 H 0.15578 0.6976 0.02186 0.0
H400 H 0.61472 0.59394 0.59392 0.0
H401 H 0.6534 0.62075 0.59928 0.0
H402 H 0.64579 0.63788 0.46409 0.0
H403 H 0.60759 0.61083 0.45819 0.0
H404 H 0.69228 0.61653 0.48613 0.0
H405 H 0.66947 0.69802 0.59733 0.0
H406 H 0.66243 0.6666 0.6171 0.0
H407 H 0.64488 0.67838 0.57123 0.0
C408 C 0.62096 0.6039 0.56557 0.0
C409 C 0.6083 0.59998 0.52546 0.0
C410 C 0.643 0.61932 0.56877 0.0
C411 C 0.65243 0.63132 0.53208 0.0
C412 C 0.63885 0.62873 0.49276 0.0
H413 H 0.77749 0.73297 0.48019 0.0
H414 H 0.73591 0.71422 0.49772 0.0
C415 C 0.61703 0.61322 0.48944 0.0
C416 C 0.67799 0.64384 0.53285 0.0
H417 H 0.71289 0.69413 0.57556 0.0
C418 C 0.69678 0.63349 0.50574 0.0
C419 C 0.68377 0.66592 0.55851 0.0
C420 C 0.66406 0.67808 0.58748 0.0
C421 C 0.7211 0.64477 0.503 0.0
C422 C 0.727 0.66677 0.52877 0.0
C423 C 0.70831 0.67711 0.5562 0.0
C424 C 0.75207 0.6799 0.52536 0.0
C425 C 0.74003 0.63347 0.47156 0.0
C426 C 0.77489 0.66718 0.53655 0.0
C427 C 0.79865 0.67779 0.52647 0.0
C428 C 0.79998 0.70139 0.50532 0.0
C429 C 0.77711 0.71484 0.4967 0.0
C430 C 0.75334 0.70416 0.50665 0.0
H431 H 0.73064 0.62001 0.44789 0.0
H432 H 0.74974 0.64886 0.45358 0.0
H433 H 0.75496 0.62269 0.4896 0.0
H434 H 0.77427 0.64858 0.55154 0.0
H435 H 0.81597 0.66722 0.53418 0.0
H436 H 0.38429 0.61553 0.45833 0.0
H437 H 0.35646 0.65268 0.46831 0.0
H438 H 0.37369 0.65367 0.60488 0.0
H439 H 0.40188 0.61651 0.59532 0.0
H440 H 0.31359 0.66597 0.52306 0.0
H441 H 0.40273 0.72244 0.55949 0.0
H442 H 0.40364 0.69036 0.53655 0.0
H443 H 0.39665 0.6952 0.59261 0.0
C444 C 0.38183 0.62327 0.49068 0.0
C445 C 0.39576 0.61336 0.52589 0.0
C446 C 0.36581 0.64447 0.49632 0.0
C447 C 0.36343 0.65614 0.53718 0.0
C448 C 0.37562 0.6451 0.57299 0.0
H449 H 0.27797 0.80223 0.5631 0.0
H450 H 0.29344 0.75899 0.57993 0.0
C451 C 0.39167 0.62384 0.56742 0.0
C452 C 0.35074 0.68144 0.5408 0.0
H453 H 0.36445 0.74542 0.55121 0.0
C454 C 0.32452 0.68335 0.53007 0.0
C455 C 0.36524 0.70404 0.5495 0.0
C456 C 0.39366 0.70312 0.55994 0.0
C457 C 0.3126 0.7074 0.52641 0.0
C458 C 0.32735 0.72991 0.53361 0.0
C459 C 0.35327 0.728 0.54597 0.0
C460 C 0.31715 0.75557 0.52356 0.0
C461 C 0.28472 0.70875 0.51266 0.0
C462 C 0.32546 0.76778 0.48642 0.0
C463 C 0.3166 0.79225 0.47656 0.0
C464 C 0.29939 0.80512 0.5039 0.0
C465 C 0.29102 0.79274 0.54116 0.0
C466 C 0.29985 0.76812 0.55091 0.0
H467 H 0.27624 0.68943 0.50627 0.0
H468 H 0.27358 0.71855 0.53833 0.0
H469 H 0.28272 0.72027 0.48302 0.0
H470 H 0.33878 0.75829 0.46492 0.0
H471 H 0.32305 0.80096 0.4472 0.0
H472 H 0.38277 0.41083 0.43449 0.0
H473 H 0.35159 0.37585 0.43874 0.0
H474 H 0.36489 0.37254 0.5762 0.0
H475 H 0.39591 0.4077 0.57251 0.0
H476 H 0.358 0.32585 0.46911 0.0
H477 H 0.28649 0.3799 0.56519 0.0
H478 H 0.31244 0.39547 0.53792 0.0
H479 H 0.31827 0.38019 0.58867 0.0
C480 C 0.37907 0.40272 0.4657 0.0
C481 C 0.39169 0.41229 0.50324 0.0
C482 C 0.36124 0.38271 0.46802 0.0
C483 C 0.35555 0.37197 0.50788 0.0
C484 C 0.36857 0.38098 0.54525 0.0
H485 H 0.2668 0.24895 0.60617 0.0
H486 H 0.29293 0.28688 0.59294 0.0
C487 C 0.38643 0.40097 0.543 0.0
C488 C 0.33627 0.35107 0.51033 0.0
H489 H 0.27999 0.33472 0.55778 0.0
C490 C 0.3408 0.32783 0.48811 0.0
C491 C 0.31378 0.35381 0.53496 0.0
C492 C 0.30725 0.37876 0.55774 0.0
C493 C 0.32398 0.30686 0.49131 0.0
C494 C 0.30182 0.30939 0.51684 0.0
C495 C 0.29698 0.33285 0.53821 0.0
C496 C 0.2845 0.28735 0.52439 0.0
C497 C 0.33058 0.28184 0.46881 0.0
C498 C 0.27052 0.27541 0.49036 0.0
C499 C 0.25557 0.25358 0.49782 0.0
C500 C 0.25445 0.24337 0.53942 0.0
C501 C 0.26767 0.25606 0.57361 0.0
C502 C 0.28249 0.27783 0.56617 0.0
H503 H 0.35073 0.28158 0.45759 0.0
H504 H 0.32775 0.26542 0.49058 0.0
H505 H 0.31769 0.27898 0.44023 0.0
H506 H 0.27147 0.28275 0.45798 0.0
H507 H 0.24558 0.24423 0.47088 0.0
H508 H 0.60628 0.40845 0.56931 0.0
H509 H 0.63756 0.37374 0.57711 0.0
H510 H 0.61806 0.34595 0.44857 0.0
H511 H 0.58784 0.38099 0.43986 0.0
H512 H 0.62865 0.32508 0.57911 0.0
H513 H 0.69357 0.3399 0.44383 0.0
H514 H 0.67109 0.36422 0.4609 0.0
H515 H 0.66122 0.339 0.42335 0.0
C516 C 0.60912 0.39526 0.54236 0.0
C517 C 0.59461 0.39751 0.50391 0.0
C518 C 0.62698 0.37542 0.5469 0.0
C519 C 0.63053 0.35744 0.51317 0.0
C520 C 0.61637 0.36001 0.47454 0.0
H521 H 0.65566 0.19779 0.52017 0.0
H522 H 0.64156 0.2419 0.53072 0.0
C523 C 0.59887 0.38 0.46973 0.0
C524 C 0.6469 0.33448 0.51947 0.0
H525 H 0.68891 0.29549 0.46661 0.0
C526 C 0.64228 0.31888 0.555 0.0
C527 C 0.66523 0.3266 0.48881 0.0
C528 C 0.67325 0.34354 0.45243 0.0
C529 C 0.65407 0.29482 0.55895 0.0
C530 C 0.67011 0.28571 0.52561 0.0
C531 C 0.67618 0.30212 0.4918 0.0
C532 C 0.67928 0.25874 0.52322 0.0
C533 C 0.64893 0.27943 0.59864 0.0
C534 C 0.70507 0.25337 0.51437 0.0
C535 C 0.71301 0.22815 0.50647 0.0
C536 C 0.69538 0.20763 0.50775 0.0
C537 C 0.66974 0.21303 0.51824 0.0
C538 C 0.66172 0.23831 0.52523 0.0
H539 H 0.64571 0.29229 0.62705 0.0
H540 H 0.6312 0.26787 0.59323 0.0
H541 H 0.66508 0.26631 0.60634 0.0
H542 H 0.71896 0.2688 0.51229 0.0
H543 H 0.7328 0.22495 0.49769 0.0
H544 H 0.00577 0.07236 0.19112 0.0
H545 H 0.03463 0.09205 0.24584 0.0
H546 H 0.08578 0.11552 0.14595 0.0
H547 H 0.05637 0.09669 0.09127 0.0
H548 H 0.11026 0.09205 0.22209 0.0
H549 H 0.04347 0.17172 0.26148 0.0
H550 H 0.02919 0.14028 0.26229 0.0
H551 H 0.0406 0.1526 0.21236 0.0
C552 C 0.02332 0.0815 0.18098 0.0
C553 C 0.02944 0.08223 0.13711 0.0
C554 C 0.0397 0.09278 0.21214 0.0
C555 C 0.06229 0.10524 0.19984 0.0
C556 C 0.06859 0.10573 0.15608 0.0
H557 H 0.1442 0.20102 0.39514 0.0
H558 H 0.12828 0.18652 0.32331 0.0
C559 C 0.05212 0.09452 0.12493 0.0
C560 C 0.07893 0.1182 0.23277 0.0
H561 H 0.07848 0.16531 0.31079 0.0
C562 C 0.1035 0.10828 0.24116 0.0
C563 C 0.07024 0.13969 0.25691 0.0
C564 C 0.04453 0.15191 0.24765 0.0
C565 C 0.11901 0.11838 0.27495 0.0
C566 C 0.10958 0.13875 0.30098 0.0
C567 C 0.08564 0.14963 0.29088 0.0
C568 C 0.12267 0.14703 0.34171 0.0
C569 C 0.14513 0.10681 0.28312 0.0
C570 C 0.12496 0.12961 0.37547 0.0
C571 C 0.13375 0.13786 0.41614 0.0
C572 C 0.1405 0.16368 0.4238 0.0
C573 C 0.1393 0.18098 0.38969 0.0
C574 C 0.13018 0.17274 0.34889 0.0
H575 H 0.15272 0.09746 0.25346 0.0
H576 H 0.15909 0.1216 0.29499 0.0
H577 H 0.14356 0.09192 0.30808 0.0
H578 H 0.11877 0.10985 0.37093 0.0
H579 H 0.13445 0.12425 0.44213 0.0
H580 H 0.9417 0.06674 0.12828 0.0
H581 H 0.92212 0.08943 0.18872 0.0
H582 H 0.8838 0.0197 0.22417 0.0
H583 H 0.90297 0.99695 0.16327 0.0
H584 H 0.8667 0.0932 0.20535 0.0
H585 H 0.9228 0.04637 0.33602 0.0
H586 H 0.93329 0.0468 0.28077 0.0
H587 H 0.90867 0.02479 0.29627 0.0
C588 C 0.92903 0.05624 0.14844 0.0
C589 C 0.92381 0.0301 0.14031 0.0
C590 C 0.91793 0.06923 0.18323 0.0
C591 C 0.90173 0.05614 0.21096 0.0
C592 C 0.89652 0.03003 0.2033 0.0
H593 H 0.78788 0.09843 0.3925 0.0
H594 H 0.81264 0.08443 0.3302 0.0
C595 C 0.90746 0.01712 0.16835 0.0
C596 C 0.88971 0.0698 0.24746 0.0
H597 H 0.88624 0.07061 0.35723 0.0
C598 C 0.87111 0.08849 0.2386 0.0
C599 C 0.8958 0.06374 0.29066 0.0
C600 C 0.91639 0.04449 0.30172 0.0
C601 C 0.85759 0.10058 0.27202 0.0
C602 C 0.86286 0.09364 0.31511 0.0
C603 C 0.8822 0.07572 0.32404 0.0
C604 C 0.8476 0.10374 0.35129 0.0
C605 C 0.83762 0.12047 0.26107 0.0
C606 C 0.8592 0.11909 0.38379 0.0
C607 C 0.84504 0.12736 0.41929 0.0
C608 C 0.81913 0.12012 0.42309 0.0
C609 C 0.80762 0.10479 0.39022 0.0
C610 C 0.82174 0.0967 0.35464 0.0
H611 H 0.84011 0.12796 0.22808 0.0
H612 H 0.81824 0.11164 0.26255 0.0
H613 H 0.83844 0.1368 0.28465 0.0
H614 H 0.87922 0.12459 0.38172 0.0
H615 H 0.85439 0.1394 0.44376 0.0
H616 H 0.93661 0.94277 0.10279 0.0
H617 H 0.91182 0.92391 0.16025 0.0
H618 H 0.98211 0.90095 0.22401 0.0
H619 H 0.00699 0.92009 0.16701 0.0
H620 H 0.9118 0.87265 0.18595 0.0
H621 H 0.94286 0.93786 0.32032 0.0
H622 H 0.94727 0.94551 0.26435 0.0
H623 H 0.96928 0.92431 0.2913 0.0
C624 C 0.94683 0.93404 0.12907 0.0
C625 C 0.9738 0.93317 0.13011 0.0
C626 C 0.93261 0.92315 0.16194 0.0
C627 C 0.94515 0.91138 0.19669 0.0
C628 C 0.97205 0.91041 0.1979 0.0
H629 H 0.9007 0.79638 0.37309 0.0
H630 H 0.91445 0.82095 0.31123 0.0
C631 C 0.98623 0.92124 0.16506 0.0
C632 C 0.93025 0.89912 0.23093 0.0
H633 H 0.92338 0.8982 0.3401 0.0
C634 C 0.91404 0.8784 0.21963 0.0
C635 C 0.9329 0.90695 0.27471 0.0
C636 C 0.94881 0.93005 0.28843 0.0
C637 C 0.90133 0.86452 0.25127 0.0
C638 C 0.9053 0.87135 0.29528 0.0
C639 C 0.92056 0.89281 0.30636 0.0
C640 C 0.89489 0.85585 0.33056 0.0
C641 C 0.88388 0.84263 0.23727 0.0
C642 C 0.87951 0.86737 0.36219 0.0
C643 C 0.87171 0.85339 0.3977 0.0
C644 C 0.87925 0.82765 0.40231 0.0
C645 C 0.8942 0.81602 0.37008 0.0
C646 C 0.90204 0.83003 0.33466 0.0
H647 H 0.87663 0.845 0.20365 0.0
H648 H 0.89481 0.82438 0.23834 0.0
H649 H 0.86722 0.84103 0.25893 0.0
H650 H 0.87387 0.88731 0.35971 0.0
H651 H 0.86002 0.8628 0.42183 0.0
H652 H 0.08613 0.01536 0.17405 0.0
H653 H 0.10479 0.98962 0.23155 0.0
H654 H 0.08044 0.92029 0.16449 0.0
H655 H 0.06182 0.94587 0.10669 0.0
H656 H 0.07142 0.93718 0.27325 0.0
H657 H 0.16785 0.92896 0.19886 0.0
H658 H 0.14961 0.95813 0.19251 0.0
H659 H 0.13863 0.92902 0.16651 0.0
C660 C 0.08461 0.99464 0.17138 0.0
C661 C 0.07239 0.98268 0.1354 0.0
C662 C 0.09527 0.98001 0.20436 0.0
C663 C 0.09396 0.95317 0.20201 0.0
C664 C 0.08157 0.94106 0.1667 0.0
H665 H 0.1831 0.85809 0.38071 0.0
H666 H 0.15836 0.87139 0.31689 0.0
C667 C 0.07088 0.95573 0.13364 0.0
C668 C 0.10605 0.93803 0.23645 0.0
H669 H 0.16417 0.91546 0.27071 0.0
C670 C 0.0916 0.93207 0.27262 0.0
C671 C 0.13223 0.93124 0.235 0.0
C672 C 0.14816 0.93701 0.19617 0.0
C673 C 0.10305 0.92027 0.30841 0.0
C674 C 0.12968 0.91488 0.30812 0.0
C675 C 0.1438 0.91975 0.27096 0.0
C676 C 0.14365 0.90604 0.34708 0.0
C677 C 0.08657 0.91396 0.34634 0.0
C678 C 0.14384 0.92129 0.38488 0.0
C679 C 0.15793 0.91381 0.42117 0.0
C680 C 0.17233 0.891 0.42029 0.0
C681 C 0.17227 0.8758 0.38227 0.0
C682 C 0.15807 0.8833 0.34592 0.0
H683 H 0.06612 0.91134 0.33631 0.0
H684 H 0.09331 0.89625 0.36236 0.0
H685 H 0.08754 0.93008 0.37027 0.0
H686 H 0.13349 0.9393 0.38605 0.0
H687 H 0.15805 0.92623 0.4496 0.0
H688 H 0.08685 0.00172 0.82696 0.0
H689 H 0.10812 0.97631 0.7713 0.0
H690 H 0.12447 0.91714 0.86314 0.0
H691 H 0.1031 0.94252 0.9195 0.0
H692 H 0.16189 0.95952 0.77969 0.0
H693 H 0.09188 0.87928 0.75326 0.0
H694 H 0.08241 0.90973 0.77685 0.0
H695 H 0.10164 0.88799 0.80767 0.0
C696 C 0.09474 0.98322 0.8354 0.0
C697 C 0.09333 0.97418 0.87773 0.0
C698 C 0.1069 0.96874 0.80352 0.0
C699 C 0.11776 0.94489 0.81316 0.0
C700 C 0.11596 0.93543 0.85506 0.0
H701 H 0.19601 0.85322 0.61107 0.0
H702 H 0.18043 0.86557 0.68308 0.0
C703 C 0.10379 0.94998 0.88717 0.0
C704 C 0.132 0.93087 0.77934 0.0
H705 H 0.12668 0.88132 0.70597 0.0
C706 C 0.15445 0.94217 0.764 0.0
C707 C 0.12232 0.90815 0.75934 0.0
C708 C 0.09819 0.89547 0.7748 0.0
C709 C 0.16682 0.93204 0.72773 0.0
C710 C 0.15621 0.91031 0.70598 0.0
C711 C 0.13466 0.89804 0.7228 0.0
C712 C 0.16537 0.90221 0.66301 0.0
C713 C 0.19065 0.9452 0.71201 0.0
C714 C 0.16168 0.91859 0.62814 0.0
C715 C 0.17041 0.91165 0.58736 0.0
C716 C 0.18296 0.88809 0.58055 0.0
C717 C 0.1865 0.87154 0.6155 0.0
C718 C 0.17756 0.87849 0.65647 0.0
H719 H 0.20026 0.95672 0.73819 0.0
H720 H 0.20453 0.93099 0.69901 0.0
H721 H 0.18523 0.9584 0.68571 0.0
H722 H 0.15209 0.93688 0.63256 0.0
H723 H 0.16773 0.92498 0.56128 0.0
H724 H 0.96773 0.09165 0.82179 0.0
H725 H 0.98869 0.10555 0.75585 0.0
H726 H 0.05521 0.1297 0.83102 0.0
H727 H 0.03457 0.116 0.89687 0.0
H728 H 0.0116 0.15801 0.73856 0.0
H729 H 0.08076 0.07682 0.73536 0.0
H730 H 0.05102 0.07571 0.76445 0.0
H731 H 0.07795 0.09348 0.78643 0.0
C732 C 0.98681 0.09995 0.82425 0.0
C733 C 0.99957 0.10262 0.86451 0.0
C734 C 0.99868 0.10793 0.78663 0.0
C735 C 0.02351 0.11842 0.78874 0.0
C736 C 0.0361 0.12143 0.82885 0.0
H737 H 0.11981 0.20128 0.61637 0.0
H738 H 0.09065 0.18824 0.67327 0.0
C739 C 0.02425 0.11363 0.86641 0.0
C740 C 0.03672 0.12588 0.74913 0.0
H741 H 0.08853 0.11099 0.68781 0.0
C742 C 0.02829 0.14767 0.72712 0.0
C743 C 0.0583 0.11214 0.73428 0.0
C744 C 0.06751 0.0881 0.75605 0.0
C745 C 0.0415 0.15659 0.6912 0.0
C746 C 0.06372 0.14341 0.67743 0.0
C747 C 0.07159 0.12115 0.69868 0.0
C748 C 0.07945 0.15248 0.64146 0.0
C749 C 0.03164 0.17996 0.66828 0.0
C750 C 0.08293 0.1366 0.60502 0.0
C751 C 0.09966 0.14388 0.57276 0.0
C752 C 0.11339 0.16714 0.57645 0.0
C753 C 0.10957 0.18322 0.61273 0.0
C754 C 0.09273 0.17593 0.64499 0.0
H755 H 0.01125 0.18396 0.67588 0.0
H756 H 0.04327 0.19693 0.67872 0.0
H757 H 0.0334 0.17755 0.63278 0.0
H758 H 0.07304 0.1183 0.60196 0.0
H759 H 0.10249 0.13084 0.54561 0.0
H760 H 0.91326 0.0134 0.81878 0.0
H761 H 0.89721 0.04097 0.7618 0.0
H762 H 0.89061 0.10391 0.85351 0.0
H763 H 0.90577 0.07605 0.91118 0.0
H764 H 0.84843 0.0996 0.80654 0.0
H765 H 0.93014 0.09706 0.69616 0.0
H766 H 0.92069 0.06494 0.70829 0.0
H767 H 0.93279 0.086 0.75087 0.0
C768 C 0.90866 0.03318 0.82682 0.0
C769 C 0.9108 0.04255 0.86954 0.0
C770 C 0.89973 0.04902 0.79407 0.0
C771 C 0.89322 0.07469 0.80316 0.0
C772 C 0.89571 0.08423 0.84569 0.0
H773 H 0.84614 0.15581 0.56986 0.0
H774 H 0.86851 0.14766 0.6385 0.0
C775 C 0.90438 0.06828 0.87861 0.0
C776 C 0.88176 0.09065 0.7688 0.0
H777 H 0.88835 0.10552 0.66301 0.0
C778 C 0.85738 0.10137 0.77539 0.0
C779 C 0.89368 0.09367 0.72858 0.0
C780 C 0.9209 0.08506 0.72078 0.0
C781 C 0.84386 0.11337 0.74188 0.0
C782 C 0.85462 0.1138 0.70027 0.0
C783 C 0.87977 0.10476 0.6946 0.0
C784 C 0.83957 0.12157 0.66157 0.0
C785 C 0.8181 0.12519 0.75148 0.0
C786 C 0.81573 0.10993 0.65188 0.0
C787 C 0.80275 0.11499 0.6132 0.0
C788 C 0.81371 0.13124 0.58299 0.0
C789 C 0.83734 0.14323 0.59282 0.0
C790 C 0.8501 0.13855 0.63191 0.0
H791 H 0.81751 0.13244 0.7854 0.0
H792 H 0.81361 0.14131 0.72969 0.0
H793 H 0.80292 0.11032 0.74743 0.0
H794 H 0.80759 0.09606 0.67337 0.0
H795 H 0.78478 0.10518 0.60593 0.0
H796 H 0.99351 0.92192 0.81731 0.0
H797 H 0.96873 0.90159 0.75857 0.0
H798 H 0.90802 0.88427 0.84638 0.0
H799 H 0.93273 0.90478 0.90574 0.0
H800 H 0.95226 0.84858 0.75971 0.0
H801 H 0.87108 0.91722 0.73975 0.0
H802 H 0.90097 0.92647 0.76624 0.0
H803 H 0.87867 0.90632 0.79326 0.0
C804 C 0.9748 0.91404 0.8242 0.0
C805 C 0.96514 0.9149 0.86626 0.0
C806 C 0.96067 0.90242 0.79056 0.0
C807 C 0.93656 0.89155 0.79816 0.0
C808 C 0.92649 0.89284 0.83983 0.0
H809 H 0.84486 0.80994 0.59575 0.0
H810 H 0.85795 0.82764 0.66697 0.0
C811 C 0.94067 0.90449 0.87368 0.0
C812 C 0.92297 0.87766 0.76253 0.0
H813 H 0.87278 0.88215 0.69069 0.0
C814 C 0.93471 0.85572 0.74493 0.0
C815 C 0.89998 0.88695 0.74368 0.0
C816 C 0.88687 0.9106 0.76138 0.0
C817 C 0.9246 0.84336 0.70787 0.0
C818 C 0.9024 0.85344 0.68761 0.0
C819 C 0.88986 0.87459 0.70638 0.0
C820 C 0.8936 0.84369 0.6448 0.0
C821 C 0.93811 0.81997 0.68997 0.0
C822 C 0.90914 0.84731 0.60898 0.0
C823 C 0.90181 0.8373 0.56861 0.0
C824 C 0.87868 0.82354 0.56321 0.0
C825 C 0.86286 0.82033 0.59906 0.0
C826 C 0.87021 0.83049 0.63959 0.0
H827 H 0.95044 0.81078 0.71487 0.0
H828 H 0.92406 0.80559 0.67702 0.0
H829 H 0.95058 0.82579 0.66316 0.0
H830 H 0.92718 0.85763 0.61241 0.0
H831 H 0.91461 0.83978 0.54184 0.0
H832 H 0.50247 0.6248 0.63384 0.0
H833 H 0.53052 0.64925 0.68365 0.0
H834 H 0.58458 0.5866 0.68406 0.0
H835 H 0.5568 0.56247 0.634 0.0
H836 H 0.54155 0.63563 0.76259 0.0
H837 H 0.63327 0.64625 0.67777 0.0
H838 H 0.60379 0.63707 0.64999 0.0
H839 H 0.62293 0.6134 0.67728 0.0
C840 C 0.52054 0.61639 0.64402 0.0
C841 C 0.52748 0.5916 0.62973 0.0
C842 C 0.53662 0.63046 0.67232 0.0
C843 C 0.55993 0.62001 0.68709 0.0
C844 C 0.56713 0.59549 0.67214 0.0
H845 H 0.62901 0.62876 0.93262 0.0
H846 H 0.61069 0.61877 0.86115 0.0
C847 C 0.55112 0.58153 0.64359 0.0
C848 C 0.57487 0.63307 0.7224 0.0
H849 H 0.63575 0.6493 0.75617 0.0
C850 C 0.56205 0.63912 0.76072 0.0
C851 C 0.6016 0.63788 0.72002 0.0
C852 C 0.61612 0.63356 0.67885 0.0
C853 C 0.57541 0.64839 0.7974 0.0
C854 C 0.60236 0.65129 0.79604 0.0
C855 C 0.6151 0.64673 0.75716 0.0
C856 C 0.61742 0.65661 0.83609 0.0
C857 C 0.56069 0.65416 0.83797 0.0
C858 C 0.62822 0.68093 0.84491 0.0
C859 C 0.63885 0.68668 0.8859 0.0
C860 C 0.63857 0.66817 0.91828 0.0
C861 C 0.62917 0.64342 0.90829 0.0
C862 C 0.61877 0.63769 0.86755 0.0
H863 H 0.53989 0.657 0.83099 0.0
H864 H 0.56271 0.6378 0.86017 0.0
H865 H 0.5684 0.67162 0.85484 0.0
H866 H 0.62731 0.69575 0.82089 0.0
H867 H 0.64597 0.70588 0.89299 0.0
H868 H 0.44277 0.56861 0.62564 0.0
H869 H 0.42019 0.59276 0.68138 0.0
H870 H 0.37745 0.52471 0.71211 0.0
H871 H 0.3994 0.50068 0.6556 0.0
H872 H 0.34719 0.56939 0.70624 0.0
H873 H 0.4339 0.58405 0.81156 0.0
H874 H 0.43634 0.59485 0.75706 0.0
H875 H 0.43308 0.56117 0.76707 0.0
C876 C 0.42846 0.55884 0.64373 0.0
C877 C 0.42297 0.53274 0.63577 0.0
C878 C 0.41568 0.57263 0.67594 0.0
C879 C 0.39736 0.56042 0.70109 0.0
C880 C 0.39156 0.53448 0.693 0.0
H881 H 0.3363 0.58828 0.9498 0.0
H882 H 0.35879 0.57433 0.88499 0.0
C883 C 0.40425 0.52076 0.66076 0.0
C884 C 0.38443 0.57431 0.73656 0.0
H885 H 0.39493 0.601 0.8367 0.0
C886 C 0.35759 0.57655 0.73465 0.0
C887 C 0.39815 0.58338 0.77357 0.0
C888 C 0.42694 0.58064 0.77784 0.0
C889 C 0.34397 0.58711 0.76933 0.0
C890 C 0.35767 0.59597 0.8065 0.0
C891 C 0.38456 0.59429 0.80797 0.0
C892 C 0.34438 0.60516 0.84558 0.0
C893 C 0.315 0.58769 0.76666 0.0
C894 C 0.32904 0.62726 0.84488 0.0
C895 C 0.31616 0.6353 0.88194 0.0
C896 C 0.31864 0.62146 0.92029 0.0
C897 C 0.33429 0.59952 0.92091 0.0
C898 C 0.34707 0.59148 0.8839 0.0
H899 H 0.30731 0.57551 0.73957 0.0
H900 H 0.30661 0.58105 0.7972 0.0
H901 H 0.30855 0.6077 0.7615 0.0
H902 H 0.32709 0.6383 0.81576 0.0
H903 H 0.30446 0.65246 0.88073 0.0
H904 H 0.50399 0.40058 0.6478 0.0
H905 H 0.47794 0.37874 0.70034 0.0
H906 H 0.41268 0.4251 0.66495 0.0
H907 H 0.43875 0.44725 0.61267 0.0
H908 H 0.42256 0.42347 0.75413 0.0
H909 H 0.42014 0.32559 0.68113 0.0
H910 H 0.45202 0.33873 0.68528 0.0
H911 H 0.42843 0.35369 0.65097 0.0
C912 C 0.48404 0.40609 0.65079 0.0
C913 C 0.47346 0.42578 0.62563 0.0
C914 C 0.46912 0.39339 0.68068 0.0
C915 C 0.44328 0.40001 0.68597 0.0
C916 C 0.43256 0.41956 0.66101 0.0
H917 H 0.35311 0.30965 0.86649 0.0
H918 H 0.36493 0.33268 0.80145 0.0
C919 C 0.44751 0.43224 0.63099 0.0
C920 C 0.42819 0.38762 0.71979 0.0
H921 H 0.41086 0.32892 0.75681 0.0
C922 C 0.41959 0.40285 0.75443 0.0
C923 C 0.42398 0.3608 0.71971 0.0
C924 C 0.43139 0.34376 0.68205 0.0
C925 C 0.40828 0.39173 0.79031 0.0
C926 C 0.4059 0.3647 0.79171 0.0
C927 C 0.41302 0.34963 0.75588 0.0
C928 C 0.39794 0.3516 0.83124 0.0
C929 C 0.39942 0.40897 0.82676 0.0
C930 C 0.4128 0.35439 0.86921 0.0
C931 C 0.40624 0.3412 0.90616 0.0
C932 C 0.38472 0.32483 0.90585 0.0
C933 C 0.36988 0.322 0.86767 0.0
C934 C 0.3765 0.33522 0.8306 0.0
H935 H 0.3951 0.42863 0.81539 0.0
H936 H 0.38203 0.40108 0.84202 0.0
H937 H 0.41492 0.41057 0.8517 0.0
H938 H 0.42983 0.36639 0.87001 0.0
H939 H 0.41842 0.34335 0.9347 0.0
H940 H 0.56194 0.44182 0.61069 0.0
H941 H 0.57955 0.41585 0.66879 0.0
H942 H 0.59959 0.48486 0.74087 0.0
H943 H 0.58182 0.51086 0.68324 0.0
H944 H 0.6302 0.41631 0.70199 0.0
H945 H 0.56069 0.44236 0.82858 0.0
H946 H 0.5545 0.44788 0.77201 0.0
H947 H 0.57418 0.46994 0.80348 0.0
C948 C 0.56979 0.45149 0.63886 0.0
C949 C 0.57028 0.47844 0.64203 0.0
C950 C 0.57993 0.4366 0.67213 0.0
C951 C 0.5905 0.44844 0.70939 0.0
C952 C 0.59103 0.47531 0.71275 0.0
H953 H 0.70303 0.40832 0.89718 0.0
H954 H 0.6789 0.42044 0.8325 0.0
C955 C 0.58098 0.49014 0.67954 0.0
C956 C 0.60208 0.433 0.74422 0.0
H957 H 0.60083 0.4247 0.853 0.0
C958 C 0.62358 0.41779 0.73494 0.0
C959 C 0.59313 0.43462 0.78697 0.0
C960 C 0.56919 0.44937 0.79835 0.0
C961 C 0.63724 0.40529 0.76782 0.0
C962 C 0.62938 0.40848 0.81105 0.0
C963 C 0.60703 0.42251 0.81991 0.0
C964 C 0.6448 0.39886 0.84793 0.0
C965 C 0.66012 0.38906 0.75601 0.0
C966 C 0.63357 0.3829 0.87834 0.0
C967 C 0.64729 0.37604 0.91549 0.0
C968 C 0.67246 0.38513 0.92299 0.0
C969 C 0.68385 0.40065 0.89199 0.0
C970 C 0.6701 0.40754 0.85492 0.0
H971 H 0.65857 0.38182 0.7221 0.0
H972 H 0.67781 0.40093 0.75907 0.0
H973 H 0.66219 0.37242 0.77767 0.0
H974 H 0.61401 0.37611 0.87366 0.0
H975 H 0.63809 0.36387 0.93863 0.0
H976 H 0.53833 0.46094 0.34848 0.0
H977 H 0.55765 0.43321 0.29311 0.0
H978 H 0.62987 0.47295 0.31152 0.0
H979 H 0.61088 0.50061 0.36676 0.0
H980 H 0.58131 0.45125 0.216 0.0
H981 H 0.64916 0.39575 0.31759 0.0
H982 H 0.62181 0.41253 0.33944 0.0
H983 H 0.65055 0.42988 0.32703 0.0
C984 C 0.55837 0.46363 0.34097 0.0
C985 C 0.57308 0.48296 0.36203 0.0
C986 C 0.56936 0.44777 0.3094 0.0
C987 C 0.59527 0.4508 0.29883 0.0
C988 C 0.60998 0.46999 0.31988 0.0
H989 H 0.70468 0.40678 0.11191 0.0
H990 H 0.68103 0.42058 0.17567 0.0
C991 C 0.59901 0.48592 0.35118 0.0
C992 C 0.60669 0.43519 0.26378 0.0
H993 H 0.65648 0.3948 0.24159 0.0
C994 C 0.59746 0.43854 0.22153 0.0
C995 C 0.6278 0.41876 0.27132 0.0
C996 C 0.63781 0.41377 0.31634 0.0
C997 C 0.60964 0.42691 0.18621 0.0
C998 C 0.63124 0.41102 0.19359 0.0
C999 C 0.63992 0.40697 0.23605 0.0
C1000 C 0.64619 0.40006 0.15747 0.0
C1001 C 0.60008 0.43283 0.14122 0.0
C1002 C 0.63471 0.38325 0.12687 0.0
C1003 C 0.64817 0.37538 0.09033 0.0
C1004 C 0.67344 0.38396 0.08408 0.0
C1005 C 0.68533 0.39966 0.116 0.0
C1006 C 0.67181 0.40764 0.15236 0.0
H1007 H 0.58703 0.44968 0.14095 0.0
H1008 H 0.61638 0.43668 0.11963 0.0
H1009 H 0.58926 0.41603 0.12778 0.0
H1010 H 0.61513 0.37673 0.13073 0.0
H1011 H 0.63867 0.36298 0.06653 0.0
H1012 H 0.53368 0.55516 0.3484 0.0
H1013 H 0.5554 0.57444 0.28772 0.0
H1014 H 0.49448 0.62998 0.27568 0.0
H1015 H 0.47225 0.61041 0.33565 0.0
H1016 H 0.50965 0.6117 0.19748 0.0
H1017 H 0.59439 0.64186 0.29662 0.0
H1018 H 0.58825 0.608 0.29891 0.0
H1019 H 0.56515 0.63039 0.32008 0.0
C1020 C 0.52482 0.57141 0.33275 0.0
C1021 C 0.50142 0.5815 0.34724 0.0
C1022 C 0.53736 0.58251 0.29825 0.0
C1023 C 0.52688 0.60406 0.27796 0.0
C1024 C 0.50302 0.61353 0.29121 0.0
H1025 H 0.62063 0.69961 0.11324 0.0
H1026 H 0.59225 0.68501 0.17019 0.0
C1027 C 0.49038 0.60235 0.32555 0.0
C1028 C 0.54095 0.61685 0.2432 0.0
H1029 H 0.59848 0.64448 0.22032 0.0
C1030 C 0.52901 0.61904 0.2025 0.0
C1031 C 0.56596 0.62698 0.2501 0.0
C1032 C 0.5791 0.62696 0.29391 0.0
C1033 C 0.54177 0.63027 0.16805 0.0
C1034 C 0.56737 0.63897 0.1743 0.0
C1035 C 0.57896 0.63757 0.21541 0.0
C1036 C 0.58292 0.64869 0.13843 0.0
C1037 C 0.52761 0.63287 0.12548 0.0
C1038 C 0.58714 0.63312 0.1018 0.0
C1039 C 0.60316 0.64147 0.06926 0.0
C1040 C 0.61559 0.66543 0.07298 0.0
C1041 C 0.61134 0.68104 0.10963 0.0
C1042 C 0.59511 0.67275 0.14205 0.0
H1043 H 0.50649 0.63346 0.12993 0.0
H1044 H 0.53355 0.65049 0.10865 0.0
H1045 H 0.53188 0.61598 0.10448 0.0
H1046 H 0.57862 0.61416 0.09889 0.0
H1047 H 0.60648 0.6288 0.04181 0.0
H1048 H 0.45721 0.5433 0.32126 0.0
H1049 H 0.43793 0.57257 0.26916 0.0
H1050 H 0.36309 0.55788 0.32109 0.0
H1051 H 0.38227 0.52949 0.37422 0.0
H1052 H 0.40338 0.5592 0.20745 0.0
H1053 H 0.36122 0.63493 0.31158 0.0
H1054 H 0.38471 0.6124 0.33148 0.0
H1055 H 0.35133 0.60344 0.32691 0.0
C1056 C 0.43672 0.54673 0.32217 0.0
C1057 C 0.4213 0.5342 0.35206 0.0
C1058 C 0.42573 0.56341 0.29232 0.0
C1059 C 0.39912 0.56779 0.29176 0.0
C1060 C 0.38373 0.5554 0.32172 0.0
H1061 H 0.28507 0.61343 0.10957 0.0
H1062 H 0.3094 0.60129 0.1743 0.0
C1063 C 0.39472 0.5389 0.35174 0.0
C1064 C 0.38702 0.58315 0.25724 0.0
H1065 H 0.34404 0.63139 0.2388 0.0
C1066 C 0.39079 0.57529 0.21427 0.0
C1067 C 0.37055 0.6041 0.26624 0.0
C1068 C 0.36691 0.61438 0.31156 0.0
C1069 C 0.37764 0.58705 0.18017 0.0
C1070 C 0.36047 0.60734 0.18931 0.0
C1071 C 0.35719 0.61575 0.23208 0.0
C1072 C 0.34485 0.61892 0.1546 0.0
C1073 C 0.3814 0.57703 0.13468 0.0
C1074 C 0.35655 0.63374 0.12319 0.0
C1075 C 0.3427 0.64081 0.08635 0.0
C1076 C 0.31695 0.6331 0.08034 0.0
C1077 C 0.3048 0.61981 0.11339 0.0
C1078 C 0.31868 0.61278 0.1503 0.0
H1079 H 0.39244 0.55879 0.13382 0.0
H1080 H 0.36255 0.57377 0.11814 0.0
H1081 H 0.39206 0.59151 0.11619 0.0
H1082 H 0.37669 0.63882 0.12628 0.0
H1083 H 0.35243 0.65141 0.06171 0.0
H1084 H 0.43438 0.40614 0.40629 0.0
H1085 H 0.40976 0.38434 0.34804 0.0
H1086 H 0.47415 0.39182 0.26354 0.0
H1087 H 0.49884 0.4134 0.32114 0.0
H1088 H 0.39744 0.40132 0.26124 0.0
H1089 H 0.45784 0.31387 0.26204 0.0
H1090 H 0.45771 0.33684 0.30648 0.0
H1091 H 0.47623 0.34298 0.2593 0.0
C1092 C 0.44324 0.40323 0.37523 0.0
C1093 C 0.46866 0.41127 0.36844 0.0
C1094 C 0.42915 0.39077 0.34208 0.0
C1095 C 0.44037 0.38608 0.30188 0.0
C1096 C 0.46538 0.39482 0.29467 0.0
H1097 H 0.4178 0.33746 0.04663 0.0
H1098 H 0.42905 0.35532 0.11781 0.0
C1099 C 0.47942 0.40724 0.32761 0.0
C1100 C 0.4263 0.37198 0.267 0.0
H1101 H 0.43222 0.32058 0.19804 0.0
C1102 C 0.40462 0.38337 0.24791 0.0
C1103 C 0.43567 0.34848 0.25003 0.0
C1104 C 0.45799 0.33466 0.27078 0.0
C1105 C 0.39315 0.37269 0.2103 0.0
C1106 C 0.40365 0.35014 0.19181 0.0
C1107 C 0.42436 0.33798 0.21233 0.0
C1108 C 0.39541 0.34042 0.14875 0.0
C1109 C 0.37085 0.38622 0.18904 0.0
C1110 C 0.37268 0.3262 0.1428 0.0
C1111 C 0.36611 0.31596 0.10196 0.0
C1112 C 0.38218 0.31994 0.06664 0.0
C1113 C 0.40478 0.33445 0.07293 0.0
C1114 C 0.41133 0.34454 0.1136 0.0
H1115 H 0.36526 0.40393 0.20705 0.0
H1116 H 0.37592 0.39139 0.15565 0.0
H1117 H 0.35404 0.37309 0.18679 0.0
H1118 H 0.36029 0.32273 0.16979 0.0
H1119 H 0.34855 0.30491 0.098 0.0
loop_
_geom_bond_atom_site_label_1
_geom_bond_atom_site_label_2
_geom_bond_distance
_geom_bond_site_symmetry_2
_ccdc_geom_bond_type
Zn0 O2 1.933 1_556 S
Zn0 O20 1.985 . S
Zn0 O31 1.955 . S
Zn1 O2 1.911 . S
Zn1 O21 1.970 . S
Zn1 O37 1.945 . S
Zn1 O44 1.981 . S
O2 Zn0 1.933 1_554 S
O2 Zn1 1.911 . S
O2 H3 0.841 1_655 S
H3 O2 0.841 1_455 S
C4 O5 1.246 . S
C4 O33 1.277 1_545 S
O5 C4 1.246 . S
Zn6 O8 1.911 . S
Zn6 O23 1.970 . S
Zn6 O40 1.945 . S
Zn6 O47 1.981 . S
Zn7 O8 1.933 1_556 S
Zn7 O22 1.985 . S
Zn7 O29 1.955 . S
O8 Zn6 1.911 . S
O8 Zn7 1.933 1_554 S
O8 H9 0.841 1_455 S
H9 O8 0.841 1_655 S
Zn10 O11 1.933 1_556 S
Zn10 O24 1.985 . S
Zn10 O33 1.954 . S
O11 Zn10 1.933 1_554 S
O11 Zn12 1.911 . S
O11 H13 0.841 1_565 S
Zn12 O11 1.911 . S
Zn12 O25 1.970 . S
Zn12 O41 1.981 . S
Zn12 O43 1.945 . S
H13 O11 0.841 1_545 S
Zn14 O15 1.933 1_556 S
Zn14 O27 1.985 . S
Zn14 O35 1.955 . S
O15 Zn14 1.933 1_554 S
O15 H16 0.841 1_545 S
O15 Zn17 1.911 . S
H16 O15 0.841 1_565 S
Zn17 O15 1.911 . S
Zn17 O28 1.970 . S
Zn17 O38 1.981 . S
Zn17 O46 1.945 . S
C18 O19 1.246 . S
C18 O35 1.276 1_565 S
O19 C18 1.246 . S
O20 Zn0 1.985 . S
O20 C30 1.245 1_556 S
O21 Zn1 1.970 . S
O21 C30 1.263 . S
O22 Zn7 1.985 . S
O22 C34 1.245 1_556 S
O23 Zn6 1.970 . S
O23 C34 1.263 . S
O24 Zn10 1.985 . S
O24 C39 1.245 1_556 S
O25 Zn12 1.970 . S
O25 C39 1.263 . S
C26 O37 1.262 1_455 S
C26 O38 1.245 . S
O27 Zn14 1.985 . S
O27 C45 1.245 1_556 S
O28 Zn17 1.970 . S
O28 C45 1.263 . S
O29 Zn7 1.955 . S
O29 C48 1.276 1_455 S
C30 O20 1.245 1_554 S
C30 O21 1.263 . S
O31 Zn0 1.955 . S
O31 C50 1.276 1_655 S
C32 O40 1.262 1_655 S
C32 O41 1.245 . S
O33 C4 1.277 1_565 S
O33 Zn10 1.954 . S
C34 O22 1.245 1_554 S
C34 O23 1.263 . S
O35 Zn14 1.955 . S
O35 C18 1.276 1_545 S
C36 O43 1.262 1_545 S
C36 O44 1.245 . S
O37 Zn1 1.945 . S
O37 C26 1.262 1_655 S
O38 Zn17 1.981 . S
O38 C26 1.245 . S
C39 O24 1.245 1_554 S
C39 O25 1.263 . S
O40 Zn6 1.945 . S
O40 C32 1.262 1_455 S
O41 Zn12 1.981 . S
O41 C32 1.245 . S
C42 O46 1.262 1_565 S
C42 O47 1.245 . S
O43 Zn12 1.945 . S
O43 C36 1.262 1_565 S
O44 Zn1 1.981 . S
O44 C36 1.245 . S
C45 O27 1.245 1_554 S
C45 O28 1.263 . S
O46 Zn17 1.945 . S
O46 C42 1.262 1_545 S
O47 Zn6 1.981 . S
O47 C42 1.245 . S
C48 O29 1.276 1_655 S
C48 O49 1.246 . S
O49 C48 1.246 . S
C50 O31 1.276 1_455 S
C50 O51 1.246 . S
O51 C50 1.246 . S
Zn52 O54 1.933 . S
Zn52 O72 1.985 . S
Zn52 O83 1.955 . S
Zn53 O54 1.911 . S
Zn53 O73 1.970 . S
Zn53 O89 1.945 . S
Zn53 O96 1.981 . S
O54 Zn52 1.933 . S
O54 Zn53 1.911 . S
O54 H55 0.841 . S
H55 O54 0.841 . S
C56 O57 1.246 . S
C56 O85 1.276 . S
O57 C56 1.246 . S
Zn58 O60 1.911 . S
Zn58 O75 1.970 . S
Zn58 O92 1.945 . S
Zn58 O99 1.981 . S
Zn59 O60 1.933 . S
Zn59 O74 1.985 . S
Zn59 O81 1.955 . S
O60 Zn58 1.911 . S
O60 Zn59 1.933 . S
O60 H61 0.841 . S
H61 O60 0.841 . S
Zn62 O63 1.933 . S
Zn62 O76 1.985 . S
Zn62 O85 1.955 . S
O63 Zn62 1.933 . S
O63 Zn64 1.911 . S
O63 H65 0.841 . S
Zn64 O63 1.911 . S
Zn64 O77 1.970 . S
Zn64 O93 1.981 . S
Zn64 O95 1.945 . S
H65 O63 0.841 . S
Zn66 O67 1.933 . S
Zn66 O79 1.985 . S
Zn66 O87 1.955 . S
O67 Zn66 1.933 . S
O67 H68 0.841 . S
O67 Zn69 1.911 . S
H68 O67 0.841 . S
Zn69 O67 1.911 . S
Zn69 O80 1.970 . S
Zn69 O90 1.981 . S
Zn69 O98 1.945 . S
C70 O71 1.246 . S
C70 O87 1.276 . S
O71 C70 1.246 . S
O72 Zn52 1.985 . S
O72 C82 1.245 . S
O73 Zn53 1.970 . S
O73 C82 1.263 . S
O74 Zn59 1.985 . S
O74 C86 1.245 . S
O75 Zn58 1.970 . S
O75 C86 1.263 . S
O76 Zn62 1.985 . S
O76 C91 1.245 . S
O77 Zn64 1.970 . S
O77 C91 1.263 . S
C78 O89 1.262 . S
C78 O90 1.245 . S
O79 Zn66 1.985 . S
O79 C97 1.245 . S
O80 Zn69 1.970 . S
O80 C97 1.263 . S
O81 Zn59 1.955 . S
O81 C100 1.276 . S
C82 O72 1.245 . S
C82 O73 1.263 . S
O83 Zn52 1.955 . S
O83 C102 1.276 . S
C84 O92 1.262 . S
C84 O93 1.245 . S
O85 C56 1.276 . S
O85 Zn62 1.955 . S
C86 O74 1.245 . S
C86 O75 1.263 . S
O87 Zn66 1.955 . S
O87 C70 1.276 . S
C88 O95 1.262 . S
C88 O96 1.245 . S
O89 Zn53 1.945 . S
O89 C78 1.262 . S
O90 Zn69 1.981 . S
O90 C78 1.245 . S
C91 O76 1.245 . S
C91 O77 1.263 . S
O92 Zn58 1.945 . S
O92 C84 1.262 . S
O93 Zn64 1.981 . S
O93 C84 1.245 . S
C94 O98 1.262 . S
C94 O99 1.245 . S
O95 Zn64 1.945 . S
O95 C88 1.262 . S
O96 Zn53 1.981 . S
O96 C88 1.245 . S
C97 O79 1.245 . S
C97 O80 1.263 . S
O98 Zn69 1.945 . S
O98 C94 1.262 . S
O99 Zn58 1.981 . S
O99 C94 1.245 . S
C100 O81 1.276 . S
C100 O101 1.246 . S
O101 C100 1.246 . S
C102 O83 1.276 . S
C102 O103 1.246 . S
O103 C102 1.246 . S
H104 C105 0.949 . S
C105 H104 0.949 . S
C105 C106 1.395 . S
C105 C107 1.391 1_554 S
C106 C105 1.395 . S
C106 C109 1.390 . S
C107 C105 1.391 1_556 S
C107 C111 1.387 . S
C107 C112 1.491 . S
H108 C109 0.950 . S
C109 C106 1.390 . S
C109 H108 0.950 . S
C109 C110 1.378 1_554 S
C110 C109 1.378 1_556 S
C110 C111 1.409 . S
C111 C107 1.387 . S
C111 C110 1.409 . S
C111 H113 0.951 . S
C112 C107 1.491 . S
C112 C114 1.382 1_556 S
C112 C116 1.404 . S
H113 C111 0.951 . S
C114 C112 1.382 1_554 S
C114 C115 1.388 1_554 S
C114 H119 0.949 . S
C115 C114 1.388 1_556 S
C115 C120 1.410 . S
C116 C112 1.404 . S
C116 H117 0.950 . S
C116 C118 1.375 . S
H117 C116 0.950 . S
C118 C116 1.375 . S
C118 C120 1.382 . S
C118 H122 0.950 . S
H119 C114 0.949 . S
C120 C115 1.410 . S
C120 C118 1.382 . S
C120 H121 0.952 . S
H121 C120 0.952 . S
H122 C118 0.950 . S
H123 C124 0.949 . S
C124 H123 0.949 . S
C124 C125 1.395 . S
C124 C126 1.391 1_554 S
C125 C124 1.395 . S
C125 C128 1.390 . S
C126 C124 1.391 1_556 S
C126 C130 1.387 . S
C126 C131 1.491 . S
H127 C128 0.950 . S
C128 C125 1.390 . S
C128 H127 0.950 . S
C128 C129 1.378 1_554 S
C129 C128 1.378 1_556 S
C129 C130 1.409 . S
C130 C126 1.387 . S
C130 C129 1.409 . S
C130 H132 0.951 . S
C131 C126 1.491 . S
C131 C133 1.382 1_556 S
C131 C135 1.404 . S
H132 C130 0.951 . S
C133 C131 1.382 1_554 S
C133 C134 1.390 . S
C133 H138 0.949 . S
C134 C133 1.390 . S
C134 C139 1.399 1_554 S
C135 C131 1.404 . S
C135 H136 0.950 . S
C135 C137 1.375 . S
H136 C135 0.950 . S
C137 C135 1.375 . S
C137 C139 1.382 . S
C137 H141 0.950 . S
H138 C133 0.949 . S
C139 C134 1.399 1_556 S
C139 C137 1.382 . S
C139 H140 0.952 . S
H140 C139 0.952 . S
H141 C137 0.950 . S
H142 C143 0.949 . S
C143 H142 0.949 . S
C143 C144 1.395 . S
C143 C145 1.391 1_556 S
C144 C143 1.395 . S
C144 C147 1.390 1_556 S
C145 C143 1.391 1_554 S
C145 C149 1.387 . S
C145 C150 1.491 . S
H146 C147 0.950 . S
C147 C144 1.390 1_554 S
C147 H146 0.950 . S
C147 C148 1.378 . S
C148 C147 1.378 . S
C148 C149 1.409 . S
C149 C145 1.387 . S
C149 C148 1.409 . S
C149 H151 0.951 . S
C150 C145 1.491 . S
C150 C152 1.382 . S
C150 C154 1.404 . S
H151 C149 0.951 . S
C152 C150 1.382 . S
C152 C153 1.390 . S
C152 H157 0.949 1_554 S
C153 C152 1.390 . S
C153 C158 1.399 . S
C154 C150 1.404 . S
C154 H155 0.950 . S
C154 C156 1.375 . S
H155 C154 0.950 . S
C156 C154 1.375 . S
C156 C158 1.382 . S
C156 H160 0.950 . S
H157 C152 0.949 1_556 S
C158 C153 1.399 . S
C158 C156 1.382 . S
C158 H159 0.952 . S
H159 C158 0.952 . S
H160 C156 0.950 . S
H161 C162 0.949 . S
C162 H161 0.949 . S
C162 C163 1.395 . S
C162 C164 1.391 1_554 S
C163 C162 1.395 . S
C163 C166 1.390 . S
C164 C162 1.391 1_556 S
C164 C168 1.387 . S
C164 C169 1.491 . S
H165 C166 0.950 . S
C166 C163 1.390 . S
C166 H165 0.950 . S
C166 C167 1.378 1_554 S
C167 C166 1.378 1_556 S
C167 C168 1.409 . S
C168 C164 1.387 . S
C168 C167 1.409 . S
C168 H170 0.951 . S
C169 C164 1.491 . S
C169 C171 1.382 1_556 S
C169 C173 1.404 . S
H170 C168 0.951 . S
C171 C169 1.382 1_554 S
C171 C172 1.393 . S
C171 H176 0.949 . S
C172 C171 1.393 . S
C172 C177 1.381 1_554 S
C173 C169 1.404 . S
C173 H174 0.950 . S
C173 C175 1.375 . S
H174 C173 0.950 . S
C175 C173 1.375 . S
C175 C177 1.382 . S
C175 H179 0.950 . S
H176 C171 0.949 . S
C177 C172 1.381 1_556 S
C177 C175 1.382 . S
C177 H178 0.952 . S
H178 C177 0.952 . S
H179 C175 0.950 . S
H180 C181 0.949 . S
C181 H180 0.949 . S
C181 C182 1.395 . S
C181 C183 1.391 . S
C182 C181 1.395 . S
C182 C185 1.390 . S
C183 C181 1.391 . S
C183 C187 1.387 . S
C183 C188 1.491 . S
H184 C185 0.950 . S
C185 C182 1.390 . S
C185 H184 0.950 . S
C185 C186 1.378 . S
C186 C185 1.378 . S
C186 C187 1.409 . S
C187 C183 1.387 . S
C187 C186 1.409 . S
C187 H189 0.951 . S
C188 C183 1.491 . S
C188 C190 1.382 . S
C188 C192 1.404 . S
H189 C187 0.951 . S
C190 C188 1.382 . S
C190 C191 1.390 . S
C190 H195 0.949 . S
C191 C190 1.390 . S
C191 C196 1.399 . S
C192 C188 1.404 . S
C192 H193 0.950 . S
C192 C194 1.375 . S
H193 C192 0.950 . S
C194 C192 1.375 . S
C194 C196 1.382 . S
C194 H198 0.950 . S
H195 C190 0.949 . S
C196 C191 1.399 . S
C196 C194 1.382 . S
C196 H197 0.952 . S
H197 C196 0.952 . S
H198 C194 0.950 . S
H199 C200 0.949 . S
C200 H199 0.949 . S
C200 C201 1.395 . S
C200 C202 1.391 . S
C201 C200 1.395 . S
C201 C204 1.390 . S
C202 C200 1.391 . S
C202 C206 1.387 . S
C202 C207 1.491 . S
H203 C204 0.950 . S
C204 C201 1.390 . S
C204 H203 0.950 . S
C204 C205 1.378 . S
C205 C204 1.378 . S
C205 C206 1.409 . S
C206 C202 1.387 . S
C206 C205 1.409 . S
C206 H208 0.951 . S
C207 C202 1.491 . S
C207 C209 1.382 . S
C207 C211 1.404 . S
H208 C206 0.951 . S
C209 C207 1.382 . S
C209 C210 1.390 . S
C209 H214 0.949 . S
C210 C209 1.390 . S
C210 C215 1.399 . S
C211 C207 1.404 . S
C211 H212 0.950 . S
C211 C213 1.375 . S
H212 C211 0.950 . S
C213 C211 1.375 . S
C213 C215 1.382 . S
C213 H217 0.950 . S
H214 C209 0.949 . S
C215 C210 1.399 . S
C215 C213 1.382 . S
C215 H216 0.952 . S
H216 C215 0.952 . S
H217 C213 0.950 . S
H218 C219 0.949 . S
C219 H218 0.949 . S
C219 C220 1.395 . S
C219 C221 1.391 . S
C220 C219 1.395 . S
C220 C223 1.390 . S
C221 C219 1.391 . S
C221 C225 1.387 . S
C221 C226 1.491 . S
H222 C223 0.950 . S
C223 C220 1.390 . S
C223 H222 0.950 . S
C223 C224 1.378 . S
C224 C223 1.378 . S
C224 C225 1.409 . S
C225 C221 1.387 . S
C225 C224 1.409 . S
C225 H227 0.951 . S
C226 C221 1.491 . S
C226 C228 1.382 . S
C226 C230 1.404 . S
H227 C225 0.951 . S
C228 C226 1.382 . S
C228 C229 1.390 . S
C228 H233 0.949 . S
C229 C228 1.390 . S
C229 C234 1.399 . S
C230 C226 1.404 . S
C230 H231 0.950 . S
C230 C232 1.375 . S
H231 C230 0.950 . S
C232 C230 1.375 . S
C232 C234 1.382 . S
C232 H236 0.950 . S
H233 C228 0.949 . S
C234 C229 1.399 . S
C234 C232 1.382 . S
C234 H235 0.952 . S
H235 C234 0.952 . S
H236 C232 0.950 . S
H237 C238 0.949 . S
C238 H237 0.949 . S
C238 C239 1.395 . S
C238 C240 1.391 . S
C239 C238 1.395 . S
C239 C242 1.390 . S
C240 C238 1.391 . S
C240 C244 1.387 . S
C240 C245 1.491 . S
H241 C242 0.950 . S
C242 C239 1.390 . S
C242 H241 0.950 . S
C242 C243 1.378 . S
C243 C242 1.378 . S
C243 C244 1.409 . S
C244 C240 1.387 . S
C244 C243 1.409 . S
C244 H246 0.951 . S
C245 C240 1.491 . S
C245 C247 1.382 . S
C245 C249 1.404 . S
H246 C244 0.951 . S
C247 C245 1.382 . S
C247 C248 1.390 . S
C247 H252 0.949 . S
C248 C247 1.390 . S
C248 C253 1.399 . S
C249 C245 1.404 . S
C249 H250 0.950 . S
C249 C251 1.375 . S
H250 C249 0.950 . S
C251 C249 1.375 . S
C251 C253 1.382 . S
C251 H255 0.950 . S
H252 C247 0.949 . S
C253 C248 1.399 . S
C253 C251 1.382 . S
C253 H254 0.952 . S
H254 C253 0.952 . S
H255 C251 0.950 . S
H256 C264 0.929 . S
H257 C266 0.930 . S
H258 C268 0.930 . S
H259 C271 0.929 . S
H260 C274 0.930 . S
H261 C276 0.960 . S
H262 C276 0.960 . S
H263 C276 0.946 1_554 S
C264 H256 0.929 . S
C264 C265 1.377 1_556 S
C264 C266 1.384 . S
C265 C264 1.377 1_554 S
C265 C271 1.390 . S
C266 H257 0.930 . S
C266 C264 1.384 . S
C266 C267 1.372 1_556 S
C267 C266 1.372 1_554 S
C267 C268 1.400 . S
C267 C272 1.490 . S
C268 H258 0.930 . S
C268 C267 1.400 . S
C268 C271 1.386 . S
H269 C285 0.930 . S
H270 C286 0.931 . S
C271 H259 0.929 . S
C271 C265 1.390 . S
C271 C268 1.386 . S
C272 C267 1.490 . S
C272 C274 1.395 . S
C272 C275 1.403 1_554 S
H273 C279 0.933 . S
C274 H260 0.930 . S
C274 C272 1.395 . S
C274 C277 1.403 . S
C275 C272 1.403 1_556 S
C275 C276 1.524 . S
C275 C279 1.400 . S
C276 H261 0.960 . S
C276 H262 0.960 . S
C276 H263 0.946 1_556 S
C276 C275 1.524 . S
C277 C274 1.403 . S
C277 C278 1.392 . S
C277 C281 1.495 . S
C278 C277 1.392 . S
C278 C279 1.382 1_554 S
C278 C280 1.478 . S
C279 H273 0.933 . S
C279 C275 1.400 . S
C279 C278 1.382 1_556 S
C280 C278 1.478 . S
C280 C282 1.381 1_554 S
C280 C286 1.383 . S
C281 C277 1.495 . S
C281 H287 0.959 . S
C281 H288 0.961 . S
C281 H289 0.960 . S
C282 C280 1.381 1_556 S
C282 C283 1.394 . S
C282 H290 0.930 . S
C283 C282 1.394 . S
C283 C284 1.383 1_556 S
C283 H291 0.929 . S
C284 C283 1.383 1_554 S
C284 C285 1.377 . S
C285 H269 0.930 . S
C285 C284 1.377 . S
C285 C286 1.379 . S
C286 H270 0.931 . S
C286 C280 1.383 . S
C286 C285 1.379 . S
H287 C281 0.959 . S
H288 C281 0.961 . S
H289 C281 0.960 . S
H290 C282 0.930 . S
H291 C283 0.929 . S
H292 C300 0.929 . S
H293 C302 0.930 . S
H294 C304 0.930 . S
H295 C307 0.929 . S
H296 C310 0.930 . S
H297 C312 0.960 . S
H298 C312 0.960 . S
H299 C312 0.960 . S
C300 H292 0.929 . S
C300 C301 1.377 . S
C300 C302 1.384 . S
C301 C300 1.377 . S
C301 C307 1.390 . S
C302 H293 0.930 . S
C302 C300 1.384 . S
C302 C303 1.372 . S
C303 C302 1.372 . S
C303 C304 1.400 . S
C303 C308 1.490 . S
C304 H294 0.930 . S
C304 C303 1.400 . S
C304 C307 1.386 . S
H305 C321 0.930 . S
H306 C322 0.931 1_556 S
C307 H295 0.929 . S
C307 C301 1.390 . S
C307 C304 1.386 . S
C308 C303 1.490 . S
C308 C310 1.395 1_554 S
C308 C311 1.403 . S
H309 C315 0.930 . S
C310 H296 0.930 . S
C310 C308 1.395 1_556 S
C310 C313 1.403 . S
C311 C308 1.403 . S
C311 C312 1.524 . S
C311 C315 1.400 . S
C312 H297 0.960 . S
C312 H298 0.960 . S
C312 H299 0.960 . S
C312 C311 1.524 . S
C313 C310 1.403 . S
C313 C314 1.392 1_556 S
C313 C317 1.495 . S
C314 C313 1.392 1_554 S
C314 C315 1.385 . S
C314 C316 1.478 . S
C315 H309 0.930 . S
C315 C311 1.400 . S
C315 C314 1.385 . S
C316 C314 1.478 . S
C316 C318 1.381 . S
C316 C322 1.383 . S
C317 C313 1.495 . S
C317 H323 0.959 . S
C317 H324 0.961 . S
C317 H325 0.960 . S
C318 C316 1.381 . S
C318 C319 1.394 . S
C318 H326 0.930 . S
C319 C318 1.394 . S
C319 C320 1.383 . S
C319 H327 0.929 . S
C320 C319 1.383 . S
C320 C321 1.377 . S
C321 H305 0.930 . S
C321 C320 1.377 . S
C321 C322 1.379 . S
C322 H306 0.931 1_554 S
C322 C316 1.383 . S
C322 C321 1.379 . S
H323 C317 0.959 . S
H324 C317 0.961 . S
H325 C317 0.960 . S
H326 C318 0.930 . S
H327 C319 0.929 . S
H328 C336 0.929 1_556 S
H329 C338 0.933 . S
H330 C340 0.930 . S
H331 C343 0.929 . S
H332 C346 0.930 . S
H333 C348 0.960 . S
H334 C348 0.960 . S
H335 C348 0.960 . S
C336 H328 0.929 1_554 S
C336 C337 1.378 . S
C336 C338 1.384 1_554 S
C337 C336 1.378 . S
C337 C343 1.390 . S
C338 H329 0.933 . S
C338 C336 1.384 1_556 S
C338 C339 1.370 1_556 S
C339 C338 1.370 1_554 S
C339 C340 1.400 . S
C339 C344 1.490 1_554 S
C340 H330 0.930 . S
C340 C339 1.400 . S
C340 C343 1.386 . S
H341 C357 0.930 . S
H342 C358 0.931 . S
C343 H331 0.929 . S
C343 C337 1.390 . S
C343 C340 1.386 . S
C344 C339 1.490 1_556 S
C344 C346 1.398 . S
C344 C347 1.400 1_556 S
H345 C351 0.930 . S
C346 H332 0.930 . S
C346 C344 1.398 . S
C346 C349 1.403 . S
C347 C344 1.400 1_554 S
C347 C348 1.524 . S
C347 C351 1.400 . S
C348 H333 0.960 . S
C348 H334 0.960 . S
C348 H335 0.960 . S
C348 C347 1.524 . S
C349 C346 1.403 . S
C349 C350 1.392 . S
C349 C353 1.495 . S
C350 C349 1.392 . S
C350 C351 1.385 1_556 S
C350 C352 1.478 . S
C351 H345 0.930 . S
C351 C347 1.400 . S
C351 C350 1.385 1_554 S
C352 C350 1.478 . S
C352 C354 1.381 . S
C352 C358 1.383 . S
C353 C349 1.495 . S
C353 H359 0.959 . S
C353 H360 0.961 . S
C353 H361 0.960 . S
C354 C352 1.381 . S
C354 C355 1.394 . S
C354 H362 0.930 . S
C355 C354 1.394 . S
C355 C356 1.383 . S
C355 H363 0.929 . S
C356 C355 1.383 . S
C356 C357 1.377 . S
C357 H341 0.930 . S
C357 C356 1.377 . S
C357 C358 1.379 . S
C358 H342 0.931 . S
C358 C352 1.383 . S
C358 C357 1.379 . S
H359 C353 0.959 . S
H360 C353 0.961 . S
H361 C353 0.960 . S
H362 C354 0.930 . S
H363 C355 0.929 . S
H364 C372 0.929 . S
H365 C374 0.930 . S
H366 C376 0.930 . S
H367 C379 0.929 . S
H368 C382 0.930 . S
H369 C384 0.960 . S
H370 C384 0.960 . S
H371 C384 0.960 . S
C372 H364 0.929 . S
C372 C373 1.377 . S
C372 C374 1.384 . S
C373 C372 1.377 . S
C373 C379 1.390 . S
C374 H365 0.930 . S
C374 C372 1.384 . S
C374 C375 1.372 . S
C375 C374 1.372 . S
C375 C376 1.400 . S
C375 C380 1.490 . S
C376 H366 0.930 . S
C376 C375 1.400 . S
C376 C379 1.386 . S
H377 C393 0.930 . S
H378 C394 0.931 . S
C379 H367 0.929 . S
C379 C373 1.390 . S
C379 C376 1.386 . S
C380 C375 1.490 . S
C380 C382 1.395 1_554 S
C380 C383 1.403 . S
H381 C387 0.930 . S
C382 H368 0.930 . S
C382 C380 1.395 1_556 S
C382 C385 1.403 . S
C383 C380 1.403 . S
C383 C384 1.524 . S
C383 C387 1.400 . S
C384 H369 0.960 . S
C384 H370 0.960 . S
C384 H371 0.960 . S
C384 C383 1.524 . S
C385 C382 1.403 . S
C385 C386 1.392 1_556 S
C385 C389 1.495 . S
C386 C385 1.392 1_554 S
C386 C387 1.385 . S
C386 C388 1.478 . S
C387 H381 0.930 . S
C387 C383 1.400 . S
C387 C386 1.385 . S
C388 C386 1.478 . S
C388 C390 1.381 . S
C388 C394 1.383 . S
C389 C385 1.495 . S
C389 H395 0.959 . S
C389 H396 0.961 . S
C389 H397 0.960 . S
C390 C388 1.381 . S
C390 C391 1.394 . S
C390 H398 0.930 . S
C391 C390 1.394 . S
C391 C392 1.383 . S
C391 H399 0.929 . S
C392 C391 1.383 . S
C392 C393 1.377 . S
C393 H377 0.930 . S
C393 C392 1.377 . S
C393 C394 1.379 . S
C394 H378 0.931 . S
C394 C388 1.383 . S
C394 C393 1.379 . S
H395 C389 0.959 . S
H396 C389 0.961 . S
H397 C389 0.960 . S
H398 C390 0.930 . S
H399 C391 0.929 . S
H400 C408 0.929 . S
H401 C410 0.930 . S
H402 C412 0.930 . S
H403 C415 0.929 . S
H404 C418 0.930 . S
H405 C420 0.960 . S
H406 C420 0.960 . S
H407 C420 0.960 . S
C408 H400 0.929 . S
C408 C409 1.377 . S
C408 C410 1.384 . S
C409 C408 1.377 . S
C409 C415 1.390 . S
C410 H401 0.930 . S
C410 C408 1.384 . S
C410 C411 1.372 . S
C411 C410 1.372 . S
C411 C412 1.400 . S
C411 C416 1.490 . S
C412 H402 0.930 . S
C412 C411 1.400 . S
C412 C415 1.386 . S
H413 C429 0.930 . S
H414 C430 0.931 . S
C415 H403 0.929 . S
C415 C409 1.390 . S
C415 C412 1.386 . S
C416 C411 1.490 . S
C416 C418 1.395 . S
C416 C419 1.403 . S
H417 C423 0.930 . S
C418 H404 0.930 . S
C418 C416 1.395 . S
C418 C421 1.403 . S
C419 C416 1.403 . S
C419 C420 1.524 . S
C419 C423 1.400 . S
C420 H405 0.960 . S
C420 H406 0.960 . S
C420 H407 0.960 . S
C420 C419 1.524 . S
C421 C418 1.403 . S
C421 C422 1.392 . S
C421 C425 1.495 . S
C422 C421 1.392 . S
C422 C423 1.385 . S
C422 C424 1.478 . S
C423 H417 0.930 . S
C423 C419 1.400 . S
C423 C422 1.385 . S
C424 C422 1.478 . S
C424 C426 1.381 . S
C424 C430 1.383 . S
C425 C421 1.495 . S
C425 H431 0.959 . S
C425 H432 0.961 . S
C425 H433 0.960 . S
C426 C424 1.381 . S
C426 C427 1.394 . S
C426 H434 0.930 . S
C427 C426 1.394 . S
C427 C428 1.383 . S
C427 H435 0.929 . S
C428 C427 1.383 . S
C428 C429 1.377 . S
C429 H413 0.930 . S
C429 C428 1.377 . S
C429 C430 1.379 . S
C430 H414 0.931 . S
C430 C424 1.383 . S
C430 C429 1.379 . S
H431 C425 0.959 . S
H432 C425 0.961 . S
H433 C425 0.960 . S
H434 C426 0.930 . S
H435 C427 0.929 . S
H436 C444 0.929 . S
H437 C446 0.930 . S
H438 C448 0.930 . S
H439 C451 0.929 . S
H440 C454 0.930 . S
H441 C456 0.960 . S
H442 C456 0.960 . S
H443 C456 0.960 . S
C444 H436 0.929 . S
C444 C445 1.377 . S
C444 C446 1.384 . S
C445 C444 1.377 . S
C445 C451 1.390 . S
C446 H437 0.930 . S
C446 C444 1.384 . S
C446 C447 1.372 . S
C447 C446 1.372 . S
C447 C448 1.400 . S
C447 C452 1.490 . S
C448 H438 0.930 . S
C448 C447 1.400 . S
C448 C451 1.386 . S
H449 C465 0.930 . S
H450 C466 0.931 . S
C451 H439 0.929 . S
C451 C445 1.390 . S
C451 C448 1.386 . S
C452 C447 1.490 . S
C452 C454 1.395 . S
C452 C455 1.403 . S
H453 C459 0.930 . S
C454 H440 0.930 . S
C454 C452 1.395 . S
C454 C457 1.403 . S
C455 C452 1.403 . S
C455 C456 1.524 . S
C455 C459 1.400 . S
C456 H441 0.960 . S
C456 H442 0.960 . S
C456 H443 0.960 . S
C456 C455 1.524 . S
C457 C454 1.403 . S
C457 C458 1.392 . S
C457 C461 1.495 . S
C458 C457 1.392 . S
C458 C459 1.385 . S
C458 C460 1.478 . S
C459 H453 0.930 . S
C459 C455 1.400 . S
C459 C458 1.385 . S
C460 C458 1.478 . S
C460 C462 1.381 . S
C460 C466 1.383 . S
C461 C457 1.495 . S
C461 H467 0.959 . S
C461 H468 0.961 . S
C461 H469 0.960 . S
C462 C460 1.381 . S
C462 C463 1.394 . S
C462 H470 0.930 . S
C463 C462 1.394 . S
C463 C464 1.383 . S
C463 H471 0.929 . S
C464 C463 1.383 . S
C464 C465 1.377 . S
C465 H449 0.930 . S
C465 C464 1.377 . S
C465 C466 1.379 . S
C466 H450 0.931 . S
C466 C460 1.383 . S
C466 C465 1.379 . S
H467 C461 0.959 . S
H468 C461 0.961 . S
H469 C461 0.960 . S
H470 C462 0.930 . S
H471 C463 0.929 . S
H472 C480 0.929 . S
H473 C482 0.930 . S
H474 C484 0.930 . S
H475 C487 0.929 . S
H476 C490 0.930 . S
H477 C492 0.960 . S
H478 C492 0.960 . S
H479 C492 0.960 . S
C480 H472 0.929 . S
C480 C481 1.377 . S
C480 C482 1.384 . S
C481 C480 1.377 . S
C481 C487 1.390 . S
C482 H473 0.930 . S
C482 C480 1.384 . S
C482 C483 1.372 . S
C483 C482 1.372 . S
C483 C484 1.400 . S
C483 C488 1.490 . S
C484 H474 0.930 . S
C484 C483 1.400 . S
C484 C487 1.386 . S
H485 C501 0.930 . S
H486 C502 0.931 . S
C487 H475 0.929 . S
C487 C481 1.390 . S
C487 C484 1.386 . S
C488 C483 1.490 . S
C488 C490 1.395 . S
C488 C491 1.403 . S
H489 C495 0.930 . S
C490 H476 0.930 . S
C490 C488 1.395 . S
C490 C493 1.403 . S
C491 C488 1.403 . S
C491 C492 1.524 . S
C491 C495 1.400 . S
C492 H477 0.960 . S
C492 H478 0.960 . S
C492 H479 0.960 . S
C492 C491 1.524 . S
C493 C490 1.403 . S
C493 C494 1.392 . S
C493 C497 1.495 . S
C494 C493 1.392 . S
C494 C495 1.385 . S
C494 C496 1.478 . S
C495 H489 0.930 . S
C495 C491 1.400 . S
C495 C494 1.385 . S
C496 C494 1.478 . S
C496 C498 1.381 . S
C496 C502 1.383 . S
C497 C493 1.495 . S
C497 H503 0.959 . S
C497 H504 0.961 . S
C497 H505 0.960 . S
C498 C496 1.381 . S
C498 C499 1.394 . S
C498 H506 0.930 . S
C499 C498 1.394 . S
C499 C500 1.383 . S
C499 H507 0.929 . S
C500 C499 1.383 . S
C500 C501 1.377 . S
C501 H485 0.930 . S
C501 C500 1.377 . S
C501 C502 1.379 . S
C502 H486 0.931 . S
C502 C496 1.383 . S
C502 C501 1.379 . S
H503 C497 0.959 . S
H504 C497 0.961 . S
H505 C497 0.960 . S
H506 C498 0.930 . S
H507 C499 0.929 . S
H508 C516 0.929 . S
H509 C518 0.930 . S
H510 C520 0.930 . S
H511 C523 0.929 . S
H512 C526 0.930 . S
H513 C528 0.960 . S
H514 C528 0.960 . S
H515 C528 0.960 . S
C516 H508 0.929 . S
C516 C517 1.377 . S
C516 C518 1.384 . S
C517 C516 1.377 . S
C517 C523 1.390 . S
C518 H509 0.930 . S
C518 C516 1.384 . S
C518 C519 1.372 . S
C519 C518 1.372 . S
C519 C520 1.400 . S
C519 C524 1.490 . S
C520 H510 0.930 . S
C520 C519 1.400 . S
C520 C523 1.386 . S
H521 C537 0.930 . S
H522 C538 0.931 . S
C523 H511 0.929 . S
C523 C517 1.390 . S
C523 C520 1.386 . S
C524 C519 1.490 . S
C524 C526 1.395 . S
C524 C527 1.403 . S
H525 C531 0.930 . S
C526 H512 0.930 . S
C526 C524 1.395 . S
C526 C529 1.403 . S
C527 C524 1.403 . S
C527 C528 1.524 . S
C527 C531 1.400 . S
C528 H513 0.960 . S
C528 H514 0.960 . S
C528 H515 0.960 . S
C528 C527 1.524 . S
C529 C526 1.403 . S
C529 C530 1.392 . S
C529 C533 1.495 . S
C530 C529 1.392 . S
C530 C531 1.385 . S
C530 C532 1.478 . S
C531 H525 0.930 . S
C531 C527 1.400 . S
C531 C530 1.385 . S
C532 C530 1.478 . S
C532 C534 1.381 . S
C532 C538 1.383 . S
C533 C529 1.495 . S
C533 H539 0.959 . S
C533 H540 0.961 . S
C533 H541 0.960 . S
C534 C532 1.381 . S
C534 C535 1.394 . S
C534 H542 0.930 . S
C535 C534 1.394 . S
C535 C536 1.383 . S
C535 H543 0.929 . S
C536 C535 1.383 . S
C536 C537 1.377 . S
C537 H521 0.930 . S
C537 C536 1.377 . S
C537 C538 1.379 . S
C538 H522 0.931 . S
C538 C532 1.383 . S
C538 C537 1.379 . S
H539 C533 0.959 . S
H540 C533 0.961 . S
H541 C533 0.960 . S
H542 C534 0.930 . S
H543 C535 0.929 . S
H544 C552 0.929 . S
H545 C554 0.930 . S
H546 C556 0.930 . S
H547 C559 0.929 . S
H548 C562 0.930 . S
H549 C564 0.960 . S
H550 C564 0.960 . S
H551 C564 0.960 . S
C552 H544 0.929 . S
C552 C553 1.377 . S
C552 C554 1.384 . S
C553 C552 1.377 . S
C553 C559 1.390 . S
C554 H545 0.930 . S
C554 C552 1.384 . S
C554 C555 1.372 . S
C555 C554 1.372 . S
C555 C556 1.400 . S
C555 C560 1.490 . S
C556 H546 0.930 . S
C556 C555 1.400 . S
C556 C559 1.386 . S
H557 C573 0.930 . S
H558 C574 0.931 . S
C559 H547 0.929 . S
C559 C553 1.390 . S
C559 C556 1.386 . S
C560 C555 1.490 . S
C560 C562 1.395 . S
C560 C563 1.403 . S
H561 C567 0.930 . S
C562 H548 0.930 . S
C562 C560 1.395 . S
C562 C565 1.403 . S
C563 C560 1.403 . S
C563 C564 1.524 . S
C563 C567 1.400 . S
C564 H549 0.960 . S
C564 H550 0.960 . S
C564 H551 0.960 . S
C564 C563 1.524 . S
C565 C562 1.403 . S
C565 C566 1.392 . S
C565 C569 1.495 . S
C566 C565 1.392 . S
C566 C567 1.385 . S
C566 C568 1.478 . S
C567 H561 0.930 . S
C567 C563 1.400 . S
C567 C566 1.385 . S
C568 C566 1.478 . S
C568 C570 1.381 . S
C568 C574 1.383 . S
C569 C565 1.495 . S
C569 H575 0.959 . S
C569 H576 0.961 . S
C569 H577 0.960 . S
C570 C568 1.381 . S
C570 C571 1.394 . S
C570 H578 0.930 . S
C571 C570 1.394 . S
C571 C572 1.383 . S
C571 H579 0.929 . S
C572 C571 1.383 . S
C572 C573 1.377 . S
C573 H557 0.930 . S
C573 C572 1.377 . S
C573 C574 1.379 . S
C574 H558 0.931 . S
C574 C568 1.383 . S
C574 C573 1.379 . S
H575 C569 0.959 . S
H576 C569 0.961 . S
H577 C569 0.960 . S
H578 C570 0.930 . S
H579 C571 0.929 . S
H580 C588 0.929 . S
H581 C590 0.930 . S
H582 C592 0.930 . S
H583 C595 0.929 . S
H584 C598 0.930 . S
H585 C600 0.960 . S
H586 C600 0.960 . S
H587 C600 0.960 . S
C588 H580 0.929 . S
C588 C589 1.377 . S
C588 C590 1.384 . S
C589 C588 1.377 . S
C589 C595 1.390 . S
C590 H581 0.930 . S
C590 C588 1.384 . S
C590 C591 1.372 . S
C591 C590 1.372 . S
C591 C592 1.400 . S
C591 C596 1.490 . S
C592 H582 0.930 . S
C592 C591 1.400 . S
C592 C595 1.386 . S
H593 C609 0.930 . S
H594 C610 0.931 . S
C595 H583 0.929 . S
C595 C589 1.390 . S
C595 C592 1.386 . S
C596 C591 1.490 . S
C596 C598 1.395 . S
C596 C599 1.403 . S
H597 C603 0.930 . S
C598 H584 0.930 . S
C598 C596 1.395 . S
C598 C601 1.403 . S
C599 C596 1.403 . S
C599 C600 1.524 . S
C599 C603 1.400 . S
C600 H585 0.960 . S
C600 H586 0.960 . S
C600 H587 0.960 . S
C600 C599 1.524 . S
C601 C598 1.403 . S
C601 C602 1.392 . S
C601 C605 1.495 . S
C602 C601 1.392 . S
C602 C603 1.385 . S
C602 C604 1.478 . S
C603 H597 0.930 . S
C603 C599 1.400 . S
C603 C602 1.385 . S
C604 C602 1.478 . S
C604 C606 1.381 . S
C604 C610 1.383 . S
C605 C601 1.495 . S
C605 H611 0.959 . S
C605 H612 0.961 . S
C605 H613 0.960 . S
C606 C604 1.381 . S
C606 C607 1.394 . S
C606 H614 0.930 . S
C607 C606 1.394 . S
C607 C608 1.383 . S
C607 H615 0.929 . S
C608 C607 1.383 . S
C608 C609 1.377 . S
C609 H593 0.930 . S
C609 C608 1.377 . S
C609 C610 1.379 . S
C610 H594 0.931 . S
C610 C604 1.383 . S
C610 C609 1.379 . S
H611 C605 0.959 . S
H612 C605 0.961 . S
H613 C605 0.960 . S
H614 C606 0.930 . S
H615 C607 0.929 . S
H616 C624 0.929 . S
H617 C626 0.930 . S
H618 C628 0.930 . S
H619 C631 0.929 . S
H620 C634 0.930 . S
H621 C636 0.970 . S
H622 C636 0.960 . S
H623 C636 0.941 1_455 S
C624 H616 0.929 . S
C624 C625 1.377 . S
C624 C626 1.384 . S
C625 C624 1.377 . S
C625 C631 1.390 . S
C626 H617 0.930 . S
C626 C624 1.384 . S
C626 C627 1.372 . S
C627 C626 1.372 . S
C627 C628 1.400 . S
C627 C632 1.490 . S
C628 H618 0.930 . S
C628 C627 1.400 . S
C628 C631 1.386 . S
H629 C645 0.930 . S
H630 C646 0.931 . S
C631 H619 0.929 . S
C631 C625 1.390 . S
C631 C628 1.386 . S
C632 C627 1.490 . S
C632 C634 1.395 . S
C632 C635 1.403 . S
H633 C639 0.930 . S
C634 H620 0.930 . S
C634 C632 1.395 . S
C634 C637 1.403 . S
C635 C632 1.403 . S
C635 C636 1.524 . S
C635 C639 1.400 . S
C636 H621 0.970 . S
C636 H622 0.960 . S
C636 H623 0.941 1_655 S
C636 C635 1.524 . S
C637 C634 1.403 . S
C637 C638 1.392 . S
C637 C641 1.495 . S
C638 C637 1.392 . S
C638 C639 1.385 . S
C638 C640 1.478 . S
C639 H633 0.930 . S
C639 C635 1.400 . S
C639 C638 1.385 . S
C640 C638 1.478 . S
C640 C642 1.381 . S
C640 C646 1.383 . S
C641 C637 1.495 . S
C641 H647 0.959 . S
C641 H648 0.961 . S
C641 H649 0.960 . S
C642 C640 1.381 . S
C642 C643 1.394 . S
C642 H650 0.930 . S
C643 C642 1.394 . S
C643 C644 1.383 . S
C643 H651 0.929 . S
C644 C643 1.383 . S
C644 C645 1.377 . S
C645 H629 0.930 . S
C645 C644 1.377 . S
C645 C646 1.379 . S
C646 H630 0.931 . S
C646 C640 1.383 . S
C646 C645 1.379 . S
H647 C641 0.959 . S
H648 C641 0.961 . S
H649 C641 0.960 . S
H650 C642 0.930 . S
H651 C643 0.929 . S
H652 C660 0.929 1_545 S
H653 C662 0.930 . S
H654 C664 0.930 . S
H655 C667 0.929 . S
H656 C670 0.930 . S
H657 C672 0.960 . S
H658 C672 0.960 . S
H659 C672 0.960 . S
C660 H652 0.929 1_565 S
C660 C661 1.377 . S
C660 C662 1.384 . S
C661 C660 1.377 . S
C661 C667 1.390 . S
C662 H653 0.930 . S
C662 C660 1.384 . S
C662 C663 1.372 . S
C663 C662 1.372 . S
C663 C664 1.400 . S
C663 C668 1.490 . S
C664 H654 0.930 . S
C664 C663 1.400 . S
C664 C667 1.386 . S
H665 C681 0.930 . S
H666 C682 0.931 . S
C667 H655 0.929 . S
C667 C661 1.390 . S
C667 C664 1.386 . S
C668 C663 1.490 . S
C668 C670 1.395 . S
C668 C671 1.403 . S
H669 C675 0.930 . S
C670 H656 0.930 . S
C670 C668 1.395 . S
C670 C673 1.403 . S
C671 C668 1.403 . S
C671 C672 1.524 . S
C671 C675 1.400 . S
C672 H657 0.960 . S
C672 H658 0.960 . S
C672 H659 0.960 . S
C672 C671 1.524 . S
C673 C670 1.403 . S
C673 C674 1.392 . S
C673 C677 1.495 . S
C674 C673 1.392 . S
C674 C675 1.385 . S
C674 C676 1.478 . S
C675 H669 0.930 . S
C675 C671 1.400 . S
C675 C674 1.385 . S
C676 C674 1.478 . S
C676 C678 1.381 . S
C676 C682 1.383 . S
C677 C673 1.495 . S
C677 H683 0.959 . S
C677 H684 0.961 . S
C677 H685 0.960 . S
C678 C676 1.381 . S
C678 C679 1.394 . S
C678 H686 0.930 . S
C679 C678 1.394 . S
C679 C680 1.383 . S
C679 H687 0.929 . S
C680 C679 1.383 . S
C680 C681 1.377 . S
C681 H665 0.930 . S
C681 C680 1.377 . S
C681 C682 1.379 . S
C682 H666 0.931 . S
C682 C676 1.383 . S
C682 C681 1.379 . S
H683 C677 0.959 . S
H684 C677 0.961 . S
H685 C677 0.960 . S
H686 C678 0.930 . S
H687 C679 0.929 . S
H688 C696 0.929 1_545 S
H689 C698 0.930 . S
H690 C700 0.930 . S
H691 C703 0.929 . S
H692 C706 0.930 . S
H693 C708 0.960 . S
H694 C708 0.960 . S
H695 C708 0.960 . S
C696 H688 0.929 1_565 S
C696 C697 1.377 . S
C696 C698 1.384 . S
C697 C696 1.377 . S
C697 C703 1.390 . S
C698 H689 0.930 . S
C698 C696 1.384 . S
C698 C699 1.372 . S
C699 C698 1.372 . S
C699 C700 1.400 . S
C699 C704 1.490 . S
C700 H690 0.930 . S
C700 C699 1.400 . S
C700 C703 1.386 . S
H701 C717 0.930 . S
H702 C718 0.931 . S
C703 H691 0.929 . S
C703 C697 1.390 . S
C703 C700 1.386 . S
C704 C699 1.490 . S
C704 C706 1.395 . S
C704 C707 1.403 . S
H705 C711 0.930 . S
C706 H692 0.930 . S
C706 C704 1.395 . S
C706 C709 1.403 . S
C707 C704 1.403 . S
C707 C708 1.524 . S
C707 C711 1.400 . S
C708 H693 0.960 . S
C708 H694 0.960 . S
C708 H695 0.960 . S
C708 C707 1.524 . S
C709 C706 1.403 . S
C709 C710 1.392 . S
C709 C713 1.495 . S
C710 C709 1.392 . S
C710 C711 1.385 . S
C710 C712 1.478 . S
C711 H705 0.930 . S
C711 C707 1.400 . S
C711 C710 1.385 . S
C712 C710 1.478 . S
C712 C714 1.381 . S
C712 C718 1.383 . S
C713 C709 1.495 . S
C713 H719 0.959 . S
C713 H720 0.961 . S
C713 H721 0.960 . S
C714 C712 1.381 . S
C714 C715 1.394 . S
C714 H722 0.930 . S
C715 C714 1.394 . S
C715 C716 1.383 . S
C715 H723 0.929 . S
C716 C715 1.383 . S
C716 C717 1.377 . S
C717 H701 0.930 . S
C717 C716 1.377 . S
C717 C718 1.379 . S
C718 H702 0.931 . S
C718 C712 1.383 . S
C718 C717 1.379 . S
H719 C713 0.959 . S
H720 C713 0.961 . S
H721 C713 0.960 . S
H722 C714 0.930 . S
H723 C715 0.929 . S
H724 C732 0.929 . S
H725 C734 0.930 . S
H726 C736 0.930 . S
H727 C739 0.929 . S
H728 C742 0.930 . S
H729 C744 0.960 . S
H730 C744 0.960 . S
H731 C744 0.960 . S
C732 H724 0.929 . S
C732 C733 1.377 . S
C732 C734 1.384 . S
C733 C732 1.377 . S
C733 C739 1.390 . S
C734 H725 0.930 . S
C734 C732 1.384 . S
C734 C735 1.372 . S
C735 C734 1.372 . S
C735 C736 1.400 . S
C735 C740 1.490 . S
C736 H726 0.930 . S
C736 C735 1.400 . S
C736 C739 1.386 . S
H737 C753 0.930 . S
H738 C754 0.931 . S
C739 H727 0.929 . S
C739 C733 1.390 . S
C739 C736 1.386 . S
C740 C735 1.490 . S
C740 C742 1.395 . S
C740 C743 1.403 . S
H741 C747 0.930 . S
C742 H728 0.930 . S
C742 C740 1.395 . S
C742 C745 1.403 . S
C743 C740 1.403 . S
C743 C744 1.524 . S
C743 C747 1.400 . S
C744 H729 0.960 . S
C744 H730 0.960 . S
C744 H731 0.960 . S
C744 C743 1.524 . S
C745 C742 1.403 . S
C745 C746 1.392 . S
C745 C749 1.495 . S
C746 C745 1.392 . S
C746 C747 1.385 . S
C746 C748 1.478 . S
C747 H741 0.930 . S
C747 C743 1.400 . S
C747 C746 1.385 . S
C748 C746 1.478 . S
C748 C750 1.381 . S
C748 C754 1.383 . S
C749 C745 1.495 . S
C749 H755 0.959 1_455 S
C749 H756 0.961 . S
C749 H757 0.960 . S
C750 C748 1.381 . S
C750 C751 1.394 . S
C750 H758 0.930 . S
C751 C750 1.394 . S
C751 C752 1.383 . S
C751 H759 0.929 . S
C752 C751 1.383 . S
C752 C753 1.377 . S
C753 H737 0.930 . S
C753 C752 1.377 . S
C753 C754 1.379 . S
C754 H738 0.931 . S
C754 C748 1.383 . S
C754 C753 1.379 . S
H755 C749 0.959 1_655 S
H756 C749 0.961 . S
H757 C749 0.960 . S
H758 C750 0.930 . S
H759 C751 0.929 . S
H760 C768 0.929 . S
H761 C770 0.930 . S
H762 C772 0.930 . S
H763 C775 0.929 . S
H764 C778 0.930 . S
H765 C780 0.960 . S
H766 C780 0.960 . S
H767 C780 0.960 . S
C768 H760 0.929 . S
C768 C769 1.377 . S
C768 C770 1.384 . S
C769 C768 1.377 . S
C769 C775 1.390 . S
C770 H761 0.930 . S
C770 C768 1.384 . S
C770 C771 1.372 . S
C771 C770 1.372 . S
C771 C772 1.400 . S
C771 C776 1.490 . S
C772 H762 0.930 . S
C772 C771 1.400 . S
C772 C775 1.386 . S
H773 C789 0.930 . S
H774 C790 0.931 . S
C775 H763 0.929 . S
C775 C769 1.390 . S
C775 C772 1.386 . S
C776 C771 1.490 . S
C776 C778 1.395 . S
C776 C779 1.403 . S
H777 C783 0.930 . S
C778 H764 0.930 . S
C778 C776 1.395 . S
C778 C781 1.403 . S
C779 C776 1.403 . S
C779 C780 1.524 . S
C779 C783 1.400 . S
C780 H765 0.960 . S
C780 H766 0.960 . S
C780 H767 0.960 . S
C780 C779 1.524 . S
C781 C778 1.403 . S
C781 C782 1.392 . S
C781 C785 1.495 . S
C782 C781 1.392 . S
C782 C783 1.385 . S
C782 C784 1.478 . S
C783 H777 0.930 . S
C783 C779 1.400 . S
C783 C782 1.385 . S
C784 C782 1.478 . S
C784 C786 1.381 . S
C784 C790 1.383 . S
C785 C781 1.495 . S
C785 H791 0.959 . S
C785 H792 0.961 . S
C785 H793 0.960 . S
C786 C784 1.381 . S
C786 C787 1.394 . S
C786 H794 0.930 . S
C787 C786 1.394 . S
C787 C788 1.383 . S
C787 H795 0.929 . S
C788 C787 1.383 . S
C788 C789 1.377 . S
C789 H773 0.930 . S
C789 C788 1.377 . S
C789 C790 1.379 . S
C790 H774 0.931 . S
C790 C784 1.383 . S
C790 C789 1.379 . S
H791 C785 0.959 . S
H792 C785 0.961 . S
H793 C785 0.960 . S
H794 C786 0.930 . S
H795 C787 0.929 . S
H796 C804 0.961 . S
H797 C806 0.930 . S
H798 C808 0.930 . S
H799 C811 0.929 . S
H800 C814 0.930 . S
H801 C816 0.960 . S
H802 C816 0.960 . S
H803 C816 0.960 . S
C804 H796 0.961 . S
C804 C805 1.377 . S
C804 C806 1.384 . S
C805 C804 1.377 . S
C805 C811 1.390 . S
C806 H797 0.930 . S
C806 C804 1.384 . S
C806 C807 1.372 . S
C807 C806 1.372 . S
C807 C808 1.400 . S
C807 C812 1.490 . S
C808 H798 0.930 . S
C808 C807 1.400 . S
C808 C811 1.386 . S
H809 C825 0.930 . S
H810 C826 0.931 . S
C811 H799 0.929 . S
C811 C805 1.390 . S
C811 C808 1.386 . S
C812 C807 1.490 . S
C812 C814 1.395 . S
C812 C815 1.403 . S
H813 C819 0.930 . S
C814 H800 0.930 . S
C814 C812 1.395 . S
C814 C817 1.403 . S
C815 C812 1.403 . S
C815 C816 1.524 . S
C815 C819 1.400 . S
C816 H801 0.960 . S
C816 H802 0.960 . S
C816 H803 0.960 . S
C816 C815 1.524 . S
C817 C814 1.403 . S
C817 C818 1.392 . S
C817 C821 1.495 . S
C818 C817 1.392 . S
C818 C819 1.385 . S
C818 C820 1.478 . S
C819 H813 0.930 . S
C819 C815 1.400 . S
C819 C818 1.385 . S
C820 C818 1.478 . S
C820 C822 1.381 . S
C820 C826 1.383 . S
C821 C817 1.495 . S
C821 H827 0.959 . S
C821 H828 0.961 . S
C821 H829 0.960 . S
C822 C820 1.381 . S
C822 C823 1.394 . S
C822 H830 0.930 . S
C823 C822 1.394 . S
C823 C824 1.383 . S
C823 H831 0.929 . S
C824 C823 1.383 . S
C824 C825 1.377 . S
C825 H809 0.930 . S
C825 C824 1.377 . S
C825 C826 1.379 . S
C826 H810 0.931 . S
C826 C820 1.383 . S
C826 C825 1.379 . S
H827 C821 0.959 . S
H828 C821 0.961 . S
H829 C821 0.960 . S
H830 C822 0.930 . S
H831 C823 0.929 . S
H832 C840 0.929 . S
H833 C842 0.930 . S
H834 C844 0.930 . S
H835 C847 0.929 . S
H836 C850 0.930 . S
H837 C852 0.960 . S
H838 C852 0.960 . S
H839 C852 0.960 . S
C840 H832 0.929 . S
C840 C841 1.377 . S
C840 C842 1.384 . S
C841 C840 1.377 . S
C841 C847 1.390 . S
C842 H833 0.930 . S
C842 C840 1.384 . S
C842 C843 1.372 . S
C843 C842 1.372 . S
C843 C844 1.400 . S
C843 C848 1.490 . S
C844 H834 0.930 . S
C844 C843 1.400 . S
C844 C847 1.386 . S
H845 C861 0.930 . S
H846 C862 0.931 . S
C847 H835 0.929 . S
C847 C841 1.390 . S
C847 C844 1.386 . S
C848 C843 1.490 . S
C848 C850 1.395 . S
C848 C851 1.403 . S
H849 C855 0.930 . S
C850 H836 0.930 . S
C850 C848 1.395 . S
C850 C853 1.403 . S
C851 C848 1.403 . S
C851 C852 1.524 . S
C851 C855 1.400 . S
C852 H837 0.960 . S
C852 H838 0.960 . S
C852 H839 0.960 . S
C852 C851 1.524 . S
C853 C850 1.403 . S
C853 C854 1.392 . S
C853 C857 1.495 . S
C854 C853 1.392 . S
C854 C855 1.385 . S
C854 C856 1.478 . S
C855 H849 0.930 . S
C855 C851 1.400 . S
C855 C854 1.385 . S
C856 C854 1.478 . S
C856 C858 1.381 . S
C856 C862 1.383 . S
C857 C853 1.495 . S
C857 H863 0.959 . S
C857 H864 0.961 . S
C857 H865 0.960 . S
C858 C856 1.381 . S
C858 C859 1.394 . S
C858 H866 0.930 . S
C859 C858 1.394 . S
C859 C860 1.383 . S
C859 H867 0.929 . S
C860 C859 1.383 . S
C860 C861 1.377 . S
C861 H845 0.930 . S
C861 C860 1.377 . S
C861 C862 1.379 . S
C862 H846 0.931 . S
C862 C856 1.383 . S
C862 C861 1.379 . S
H863 C857 0.959 . S
H864 C857 0.961 . S
H865 C857 0.960 . S
H866 C858 0.930 . S
H867 C859 0.929 . S
H868 C876 0.929 . S
H869 C878 0.930 . S
H870 C880 0.930 . S
H871 C883 0.929 . S
H872 C886 0.930 . S
H873 C888 0.960 . S
H874 C888 0.960 . S
H875 C888 0.960 . S
C876 H868 0.929 . S
C876 C877 1.377 . S
C876 C878 1.384 . S
C877 C876 1.377 . S
C877 C883 1.390 . S
C878 H869 0.930 . S
C878 C876 1.384 . S
C878 C879 1.372 . S
C879 C878 1.372 . S
C879 C880 1.400 . S
C879 C884 1.490 . S
C880 H870 0.930 . S
C880 C879 1.400 . S
C880 C883 1.386 . S
H881 C897 0.930 . S
H882 C898 0.931 . S
C883 H871 0.929 . S
C883 C877 1.390 . S
C883 C880 1.386 . S
C884 C879 1.490 . S
C884 C886 1.395 . S
C884 C887 1.403 . S
H885 C891 0.930 . S
C886 H872 0.930 . S
C886 C884 1.395 . S
C886 C889 1.403 . S
C887 C884 1.403 . S
C887 C888 1.524 . S
C887 C891 1.400 . S
C888 H873 0.960 . S
C888 H874 0.960 . S
C888 H875 0.960 . S
C888 C887 1.524 . S
C889 C886 1.403 . S
C889 C890 1.392 . S
C889 C893 1.495 . S
C890 C889 1.392 . S
C890 C891 1.385 . S
C890 C892 1.478 . S
C891 H885 0.930 . S
C891 C887 1.400 . S
C891 C890 1.385 . S
C892 C890 1.478 . S
C892 C894 1.381 . S
C892 C898 1.383 . S
C893 C889 1.495 . S
C893 H899 0.959 . S
C893 H900 0.961 . S
C893 H901 0.960 . S
C894 C892 1.381 . S
C894 C895 1.394 . S
C894 H902 0.930 . S
C895 C894 1.394 . S
C895 C896 1.383 . S
C895 H903 0.929 . S
C896 C895 1.383 . S
C896 C897 1.377 . S
C897 H881 0.930 . S
C897 C896 1.377 . S
C897 C898 1.379 . S
C898 H882 0.931 . S
C898 C892 1.383 . S
C898 C897 1.379 . S
H899 C893 0.959 . S
H900 C893 0.961 . S
H901 C893 0.960 . S
H902 C894 0.930 . S
H903 C895 0.929 . S
H904 C912 0.929 . S
H905 C914 0.930 . S
H906 C916 0.930 . S
H907 C919 0.929 . S
H908 C922 0.930 . S
H909 C924 0.960 . S
H910 C924 0.960 . S
H911 C924 0.960 . S
C912 H904 0.929 . S
C912 C913 1.377 . S
C912 C914 1.384 . S
C913 C912 1.377 . S
C913 C919 1.390 . S
C914 H905 0.930 . S
C914 C912 1.384 . S
C914 C915 1.372 . S
C915 C914 1.372 . S
C915 C916 1.400 . S
C915 C920 1.490 . S
C916 H906 0.930 . S
C916 C915 1.400 . S
C916 C919 1.386 . S
H917 C933 0.930 . S
H918 C934 0.931 . S
C919 H907 0.929 . S
C919 C913 1.390 . S
C919 C916 1.386 . S
C920 C915 1.490 . S
C920 C922 1.395 . S
C920 C923 1.403 . S
H921 C927 0.930 . S
C922 H908 0.930 . S
C922 C920 1.395 . S
C922 C925 1.403 . S
C923 C920 1.403 . S
C923 C924 1.524 . S
C923 C927 1.400 . S
C924 H909 0.960 . S
C924 H910 0.960 . S
C924 H911 0.960 . S
C924 C923 1.524 . S
C925 C922 1.403 . S
C925 C926 1.392 . S
C925 C929 1.495 . S
C926 C925 1.392 . S
C926 C927 1.385 . S
C926 C928 1.478 . S
C927 H921 0.930 . S
C927 C923 1.400 . S
C927 C926 1.385 . S
C928 C926 1.478 . S
C928 C930 1.381 . S
C928 C934 1.383 . S
C929 C925 1.495 . S
C929 H935 0.959 . S
C929 H936 0.961 . S
C929 H937 0.960 . S
C930 C928 1.381 . S
C930 C931 1.394 . S
C930 H938 0.930 . S
C931 C930 1.394 . S
C931 C932 1.383 . S
C931 H939 0.929 . S
C932 C931 1.383 . S
C932 C933 1.377 . S
C933 H917 0.930 . S
C933 C932 1.377 . S
C933 C934 1.379 . S
C934 H918 0.931 . S
C934 C928 1.383 . S
C934 C933 1.379 . S
H935 C929 0.959 . S
H936 C929 0.961 . S
H937 C929 0.960 . S
H938 C930 0.930 . S
H939 C931 0.929 . S
H940 C948 0.929 . S
H941 C950 0.930 . S
H942 C952 0.930 . S
H943 C955 0.929 . S
H944 C958 0.930 . S
H945 C960 0.960 . S
H946 C960 0.960 . S
H947 C960 0.960 . S
C948 H940 0.929 . S
C948 C949 1.377 . S
C948 C950 1.384 . S
C949 C948 1.377 . S
C949 C955 1.390 . S
C950 H941 0.930 . S
C950 C948 1.384 . S
C950 C951 1.372 . S
C951 C950 1.372 . S
C951 C952 1.400 . S
C951 C956 1.490 . S
C952 H942 0.930 . S
C952 C951 1.400 . S
C952 C955 1.386 . S
H953 C969 0.930 . S
H954 C970 0.931 . S
C955 H943 0.929 . S
C955 C949 1.390 . S
C955 C952 1.386 . S
C956 C951 1.490 . S
C956 C958 1.395 . S
C956 C959 1.403 . S
H957 C963 0.930 . S
C958 H944 0.930 . S
C958 C956 1.395 . S
C958 C961 1.403 . S
C959 C956 1.403 . S
C959 C960 1.524 . S
C959 C963 1.400 . S
C960 H945 0.960 . S
C960 H946 0.960 . S
C960 H947 0.960 . S
C960 C959 1.524 . S
C961 C958 1.403 . S
C961 C962 1.392 . S
C961 C965 1.495 . S
C962 C961 1.392 . S
C962 C963 1.385 . S
C962 C964 1.478 . S
C963 H957 0.930 . S
C963 C959 1.400 . S
C963 C962 1.385 . S
C964 C962 1.478 . S
C964 C966 1.381 . S
C964 C970 1.383 . S
C965 C961 1.495 . S
C965 H971 0.959 . S
C965 H972 0.961 . S
C965 H973 0.960 . S
C966 C964 1.381 . S
C966 C967 1.394 . S
C966 H974 0.930 . S
C967 C966 1.394 . S
C967 C968 1.383 . S
C967 H975 0.929 . S
C968 C967 1.383 . S
C968 C969 1.377 . S
C969 H953 0.930 . S
C969 C968 1.377 . S
C969 C970 1.379 . S
C970 H954 0.931 . S
C970 C964 1.383 . S
C970 C969 1.379 . S
H971 C965 0.959 . S
H972 C965 0.961 . S
H973 C965 0.960 . S
H974 C966 0.930 . S
H975 C967 0.929 . S
H976 C984 0.929 . S
H977 C986 0.930 . S
H978 C988 0.930 . S
H979 C991 0.929 . S
H980 C994 0.930 . S
H981 C996 0.960 . S
H982 C996 0.960 . S
H983 C996 0.960 . S
C984 H976 0.929 . S
C984 C985 1.377 . S
C984 C986 1.384 . S
C985 C984 1.377 . S
C985 C991 1.390 . S
C986 H977 0.930 . S
C986 C984 1.384 . S
C986 C987 1.372 . S
C987 C986 1.372 . S
C987 C988 1.400 . S
C987 C992 1.490 . S
C988 H978 0.930 . S
C988 C987 1.400 . S
C988 C991 1.386 . S
H989 C1005 0.930 . S
H990 C1006 0.931 . S
C991 H979 0.929 . S
C991 C985 1.390 . S
C991 C988 1.386 . S
C992 C987 1.490 . S
C992 C994 1.395 . S
C992 C995 1.403 . S
H993 C999 0.930 . S
C994 H980 0.930 . S
C994 C992 1.395 . S
C994 C997 1.403 . S
C995 C992 1.403 . S
C995 C996 1.524 . S
C995 C999 1.400 . S
C996 H981 0.960 . S
C996 H982 0.960 . S
C996 H983 0.960 . S
C996 C995 1.524 . S
C997 C994 1.403 . S
C997 C998 1.392 . S
C997 C1001 1.495 . S
C998 C997 1.392 . S
C998 C999 1.385 . S
C998 C1000 1.478 . S
C999 H993 0.930 . S
C999 C995 1.400 . S
C999 C998 1.385 . S
C1000 C998 1.478 . S
C1000 C1002 1.381 . S
C1000 C1006 1.383 . S
C1001 C997 1.495 . S
C1001 H1007 0.959 . S
C1001 H1008 0.961 . S
C1001 H1009 0.960 . S
C1002 C1000 1.381 . S
C1002 C1003 1.394 . S
C1002 H1010 0.930 . S
C1003 C1002 1.394 . S
C1003 C1004 1.383 . S
C1003 H1011 0.929 . S
C1004 C1003 1.383 . S
C1004 C1005 1.377 . S
C1005 H989 0.930 . S
C1005 C1004 1.377 . S
C1005 C1006 1.379 . S
C1006 H990 0.931 . S
C1006 C1000 1.383 . S
C1006 C1005 1.379 . S
H1007 C1001 0.959 . S
H1008 C1001 0.961 . S
H1009 C1001 0.960 . S
H1010 C1002 0.930 . S
H1011 C1003 0.929 . S
H1012 C1020 0.929 . S
H1013 C1022 0.930 . S
H1014 C1024 0.930 . S
H1015 C1027 0.929 . S
H1016 C1030 0.930 . S
H1017 C1032 0.960 . S
H1018 C1032 0.960 . S
H1019 C1032 0.960 . S
C1020 H1012 0.929 . S
C1020 C1021 1.377 . S
C1020 C1022 1.384 . S
C1021 C1020 1.377 . S
C1021 C1027 1.390 . S
C1022 H1013 0.930 . S
C1022 C1020 1.384 . S
C1022 C1023 1.372 . S
C1023 C1022 1.372 . S
C1023 C1024 1.400 . S
C1023 C1028 1.490 . S
C1024 H1014 0.930 . S
C1024 C1023 1.400 . S
C1024 C1027 1.386 . S
H1025 C1041 0.930 . S
H1026 C1042 0.931 . S
C1027 H1015 0.929 . S
C1027 C1021 1.390 . S
C1027 C1024 1.386 . S
C1028 C1023 1.490 . S
C1028 C1030 1.395 . S
C1028 C1031 1.403 . S
H1029 C1035 0.930 . S
C1030 H1016 0.930 . S
C1030 C1028 1.395 . S
C1030 C1033 1.403 . S
C1031 C1028 1.403 . S
C1031 C1032 1.524 . S
C1031 C1035 1.400 . S
C1032 H1017 0.960 . S
C1032 H1018 0.960 . S
C1032 H1019 0.960 . S
C1032 C1031 1.524 . S
C1033 C1030 1.403 . S
C1033 C1034 1.392 . S
C1033 C1037 1.495 . S
C1034 C1033 1.392 . S
C1034 C1035 1.385 . S
C1034 C1036 1.478 . S
C1035 H1029 0.930 . S
C1035 C1031 1.400 . S
C1035 C1034 1.385 . S
C1036 C1034 1.478 . S
C1036 C1038 1.381 . S
C1036 C1042 1.383 . S
C1037 C1033 1.495 . S
C1037 H1043 0.959 . S
C1037 H1044 0.961 . S
C1037 H1045 0.960 . S
C1038 C1036 1.381 . S
C1038 C1039 1.394 . S
C1038 H1046 0.930 . S
C1039 C1038 1.394 . S
C1039 C1040 1.383 . S
C1039 H1047 0.929 . S
C1040 C1039 1.383 . S
C1040 C1041 1.377 . S
C1041 H1025 0.930 . S
C1041 C1040 1.377 . S
C1041 C1042 1.379 . S
C1042 H1026 0.931 . S
C1042 C1036 1.383 . S
C1042 C1041 1.379 . S
H1043 C1037 0.959 . S
H1044 C1037 0.961 . S
H1045 C1037 0.960 . S
H1046 C1038 0.930 . S
H1047 C1039 0.929 . S
H1048 C1056 0.929 . S
H1049 C1058 0.930 . S
H1050 C1060 0.930 . S
H1051 C1063 0.929 . S
H1052 C1066 0.930 . S
H1053 C1068 0.960 . S
H1054 C1068 0.960 . S
H1055 C1068 0.960 . S
C1056 H1048 0.929 . S
C1056 C1057 1.377 . S
C1056 C1058 1.384 . S
C1057 C1056 1.377 . S
C1057 C1063 1.390 . S
C1058 H1049 0.930 . S
C1058 C1056 1.384 . S
C1058 C1059 1.372 . S
C1059 C1058 1.372 . S
C1059 C1060 1.400 . S
C1059 C1064 1.490 . S
C1060 H1050 0.930 . S
C1060 C1059 1.400 . S
C1060 C1063 1.386 . S
H1061 C1077 0.930 . S
H1062 C1078 0.931 . S
C1063 H1051 0.929 . S
C1063 C1057 1.390 . S
C1063 C1060 1.386 . S
C1064 C1059 1.490 . S
C1064 C1066 1.395 . S
C1064 C1067 1.403 . S
H1065 C1071 0.930 . S
C1066 H1052 0.930 . S
C1066 C1064 1.395 . S
C1066 C1069 1.403 . S
C1067 C1064 1.403 . S
C1067 C1068 1.524 . S
C1067 C1071 1.400 . S
C1068 H1053 0.960 . S
C1068 H1054 0.960 . S
C1068 H1055 0.960 . S
C1068 C1067 1.524 . S
C1069 C1066 1.403 . S
C1069 C1070 1.392 . S
C1069 C1073 1.495 . S
C1070 C1069 1.392 . S
C1070 C1071 1.385 . S
C1070 C1072 1.478 . S
C1071 H1065 0.930 . S
C1071 C1067 1.400 . S
C1071 C1070 1.385 . S
C1072 C1070 1.478 . S
C1072 C1074 1.381 . S
C1072 C1078 1.383 . S
C1073 C1069 1.495 . S
C1073 H1079 0.959 . S
C1073 H1080 0.961 . S
C1073 H1081 0.960 . S
C1074 C1072 1.381 . S
C1074 C1075 1.394 . S
C1074 H1082 0.930 . S
C1075 C1074 1.394 . S
C1075 C1076 1.383 . S
C1075 H1083 0.929 . S
C1076 C1075 1.383 . S
C1076 C1077 1.377 . S
C1077 H1061 0.930 . S
C1077 C1076 1.377 . S
C1077 C1078 1.379 . S
C1078 H1062 0.931 . S
C1078 C1072 1.383 . S
C1078 C1077 1.379 . S
H1079 C1073 0.959 . S
H1080 C1073 0.961 . S
H1081 C1073 0.960 . S
H1082 C1074 0.930 . S
H1083 C1075 0.929 . S
H1084 C1092 0.929 . S
H1085 C1094 0.930 . S
H1086 C1096 0.930 . S
H1087 C1099 0.929 . S
H1088 C1102 0.930 . S
H1089 C1104 0.960 . S
H1090 C1104 0.960 . S
H1091 C1104 0.960 . S
C1092 H1084 0.929 . S
C1092 C1093 1.377 . S
C1092 C1094 1.384 . S
C1093 C1092 1.377 . S
C1093 C1099 1.390 . S
C1094 H1085 0.930 . S
C1094 C1092 1.384 . S
C1094 C1095 1.372 . S
C1095 C1094 1.372 . S
C1095 C1096 1.400 . S
C1095 C1100 1.490 . S
C1096 H1086 0.930 . S
C1096 C1095 1.400 . S
C1096 C1099 1.386 . S
H1097 C1113 0.930 . S
H1098 C1114 0.931 . S
C1099 H1087 0.929 . S
C1099 C1093 1.390 . S
C1099 C1096 1.386 . S
C1100 C1095 1.490 . S
C1100 C1102 1.395 . S
C1100 C1103 1.403 . S
H1101 C1107 0.930 . S
C1102 H1088 0.930 . S
C1102 C1100 1.395 . S
C1102 C1105 1.403 . S
C1103 C1100 1.403 . S
C1103 C1104 1.524 . S
C1103 C1107 1.400 . S
C1104 H1089 0.960 . S
C1104 H1090 0.960 . S
C1104 H1091 0.960 . S
C1104 C1103 1.524 . S
C1105 C1102 1.403 . S
C1105 C1106 1.392 . S
C1105 C1109 1.495 . S
C1106 C1105 1.392 . S
C1106 C1107 1.385 . S
C1106 C1108 1.478 . S
C1107 H1101 0.930 . S
C1107 C1103 1.400 . S
C1107 C1106 1.385 . S
C1108 C1106 1.478 . S
C1108 C1110 1.381 . S
C1108 C1114 1.383 . S
C1109 C1105 1.495 . S
C1109 H1115 0.959 . S
C1109 H1116 0.961 . S
C1109 H1117 0.960 . S
C1110 C1108 1.381 . S
C1110 C1111 1.394 . S
C1110 H1118 0.930 . S
C1111 C1110 1.394 . S
C1111 C1112 1.383 . S
C1111 H1119 0.929 . S
C1112 C1111 1.383 . S
C1112 C1113 1.377 . S
C1113 H1097 0.930 . S
C1113 C1112 1.377 . S
C1113 C1114 1.379 . S
C1114 H1098 0.931 . S
C1114 C1108 1.383 . S
C1114 C1113 1.379 . S
H1115 C1109 0.959 . S
H1116 C1109 0.961 . S
H1117 C1109 0.960 . S
H1118 C1110 0.930 . S
H1119 C1111 0.929 . S
C265 C45 1.581 . S
C284 C115 1.527 1_554 S
C301 C30 1.583 . S
C320 C134 1.472 . S
C337 C39 1.580 . S
C356 C153 1.448 1_556 S
C392 C172 1.477 . S
C373 C34 1.583 . S
C409 C97 1.583 . S
C428 C191 1.489 . S
C464 C210 1.509 . S
C445 C82 1.583 . S
C500 C229 1.374 . S
C481 C91 1.581 . S
C536 C248 1.535 . S
C517 C86 1.587 . S
C572 C220 1.591 . S
C553 C26 1.580 . S
C608 C243 1.522 . S
C589 C36 1.485 . S
C644 C186 1.612 . S
C625 C32 1.572 . S
C680 C205 1.520 . S
C661 C42 1.478 . S
C697 C18 1.752 . S
C716 C201 1.804 . S
C752 C224 1.714 . S
C733 C50 1.649 . S
C769 C4 1.750 . S
C788 C239 1.804 . S
C805 C48 1.663 . S
C824 C182 1.710 . S
C860 C144 1.603 . S
C841 C78 1.577 . S
C877 C88 1.486 . S
C896 C167 1.533 . S
C932 C110 1.611 . S
C913 C84 1.563 . S
C968 C129 1.526 . S
C949 C94 1.488 . S
C1004 C125 1.774 . S
C985 C70 1.751 . S
C1040 C148 1.700 . S
C1021 C102 1.647 . S
C1057 C56 1.753 . S
C1076 C163 1.771 . S
C1093 C100 1.654 . S
C1112 C106 1.691 . S
