# Generated by pormake.
# Topology ptr, (4,4)-cn, num edge types: 1
# Building blocks:
#     Node 0, Type 0, BuildingBlock: QUQFOY_clean_sbu_3, # of connection points: 4
#     Node 1, Type 0, BuildingBlock: QUQFOY_clean_sbu_3, # of connection points: 4
#     Node 2, Type 0, BuildingBlock: QUQFOY_clean_sbu_3, # of connection points: 4
#     Node 3, Type 0, BuildingBlock: QUQFOY_clean_sbu_3, # of connection points: 4
#     Node 4, Type 0, BuildingBlock: QUQFOY_clean_sbu_3, # of connection points: 4
#     Node 5, Type 0, BuildingBlock: QUQFOY_clean_sbu_3, # of connection points: 4
#     Node 6, Type 0, BuildingBlock: QUQFOY_clean_sbu_3, # of connection points: 4
#     Node 7, Type 0, BuildingBlock: QUQFOY_clean_sbu_3, # of connection points: 4
#     Node 8, Type 0, BuildingBlock: QUQFOY_clean_sbu_3, # of connection points: 4
#     Node 9, Type 0, BuildingBlock: QUQFOY_clean_sbu_3, # of connection points: 4
#     Node 10, Type 0, BuildingBlock: QUQFOY_clean_sbu_3, # of connection points: 4
#     Node 11, Type 0, BuildingBlock: QUQFOY_clean_sbu_3, # of connection points: 4
#     Node 12, Type 0, BuildingBlock: QUQFOY_clean_sbu_3, # of connection points: 4
#     Node 13, Type 0, BuildingBlock: QUQFOY_clean_sbu_3, # of connection points: 4
#     Node 14, Type 0, BuildingBlock: QUQFOY_clean_sbu_3, # of connection points: 4
#     Node 15, Type 0, BuildingBlock: QUQFOY_clean_sbu_3, # of connection points: 4
#     Node 16, Type 0, BuildingBlock: QUQFOY_clean_sbu_3, # of connection points: 4
#     Node 17, Type 0, BuildingBlock: QUQFOY_clean_sbu_3, # of connection points: 4
#     Node 18, Type 1, BuildingBlock: GIZVER_clean_linker_0, # of connection points: 4
#     Node 19, Type 1, BuildingBlock: GIZVER_clean_linker_0, # of connection points: 4
#     Node 20, Type 1, BuildingBlock: GIZVER_clean_linker_0, # of connection points: 4
#     Node 21, Type 1, BuildingBlock: GIZVER_clean_linker_0, # of connection points: 4
#     Node 22, Type 1, BuildingBlock: GIZVER_clean_linker_0, # of connection points: 4
#     Node 23, Type 1, BuildingBlock: GIZVER_clean_linker_0, # of connection points: 4
#     Node 24, Type 1, BuildingBlock: GIZVER_clean_linker_0, # of connection points: 4
#     Node 25, Type 1, BuildingBlock: GIZVER_clean_linker_0, # of connection points: 4
#     Node 26, Type 1, BuildingBlock: GIZVER_clean_linker_0, # of connection points: 4
#     Node 27, Type 1, BuildingBlock: GIZVER_clean_linker_0, # of connection points: 4
#     Node 28, Type 1, BuildingBlock: GIZVER_clean_linker_0, # of connection points: 4
#     Node 29, Type 1, BuildingBlock: GIZVER_clean_linker_0, # of connection points: 4
#     Node 30, Type 1, BuildingBlock: GIZVER_clean_linker_0, # of connection points: 4
#     Node 31, Type 1, BuildingBlock: GIZVER_clean_linker_0, # of connection points: 4
#     Node 32, Type 1, BuildingBlock: GIZVER_clean_linker_0, # of connection points: 4
#     Node 33, Type 1, BuildingBlock: GIZVER_clean_linker_0, # of connection points: 4
#     Node 34, Type 1, BuildingBlock: GIZVER_clean_linker_0, # of connection points: 4
#     Node 35, Type 1, BuildingBlock: GIZVER_clean_linker_0, # of connection points: 4
#     Edge 36, Type (0, 1), BuildingBlock: ZUJKAS_clean_linker_0, # of connection points: 2
#     Edge 37, Type (0, 1), BuildingBlock: ZUJKAS_clean_linker_0, # of connection points: 2
#     Edge 38, Type (0, 1), BuildingBlock: ZUJKAS_clean_linker_0, # of connection points: 2
#     Edge 39, Type (0, 1), BuildingBlock: ZUJKAS_clean_linker_0, # of connection points: 2
#     Edge 40, Type (0, 1), BuildingBlock: ZUJKAS_clean_linker_0, # of connection points: 2
#     Edge 41, Type (0, 1), BuildingBlock: ZUJKAS_clean_linker_0, # of connection points: 2
#     Edge 42, Type (0, 1), BuildingBlock: ZUJKAS_clean_linker_0, # of connection points: 2
#     Edge 43, Type (0, 1), BuildingBlock: ZUJKAS_clean_linker_0, # of connection points: 2
#     Edge 44, Type (0, 1), BuildingBlock: ZUJKAS_clean_linker_0, # of connection points: 2
#     Edge 45, Type (0, 1), BuildingBlock: ZUJKAS_clean_linker_0, # of connection points: 2
#     Edge 46, Type (0, 1), BuildingBlock: ZUJKAS_clean_linker_0, # of connection points: 2
#     Edge 47, Type (0, 1), BuildingBlock: ZUJKAS_clean_linker_0, # of connection points: 2
#     Edge 48, Type (0, 1), BuildingBlock: ZUJKAS_clean_linker_0, # of connection points: 2
#     Edge 49, Type (0, 1), BuildingBlock: ZUJKAS_clean_linker_0, # of connection points: 2
#     Edge 50, Type (0, 1), BuildingBlock: ZUJKAS_clean_linker_0, # of connection points: 2
#     Edge 51, Type (0, 1), BuildingBlock: ZUJKAS_clean_linker_0, # of connection points: 2
#     Edge 52, Type (0, 1), BuildingBlock: ZUJKAS_clean_linker_0, # of connection points: 2
#     Edge 53, Type (0, 1), BuildingBlock: ZUJKAS_clean_linker_0, # of connection points: 2
#     Edge 54, Type (0, 1), BuildingBlock: ZUJKAS_clean_linker_0, # of connection points: 2
#     Edge 55, Type (0, 1), BuildingBlock: ZUJKAS_clean_linker_0, # of connection points: 2
#     Edge 56, Type (0, 1), BuildingBlock: ZUJKAS_clean_linker_0, # of connection points: 2
#     Edge 57, Type (0, 1), BuildingBlock: ZUJKAS_clean_linker_0, # of connection points: 2
#     Edge 58, Type (0, 1), BuildingBlock: ZUJKAS_clean_linker_0, # of connection points: 2
#     Edge 59, Type (0, 1), BuildingBlock: ZUJKAS_clean_linker_0, # of connection points: 2
#     Edge 60, Type (0, 1), BuildingBlock: ZUJKAS_clean_linker_0, # of connection points: 2
#     Edge 61, Type (0, 1), BuildingBlock: ZUJKAS_clean_linker_0, # of connection points: 2
#     Edge 62, Type (0, 1), BuildingBlock: ZUJKAS_clean_linker_0, # of connection points: 2
#     Edge 63, Type (0, 1), BuildingBlock: ZUJKAS_clean_linker_0, # of connection points: 2
#     Edge 64, Type (0, 1), BuildingBlock: ZUJKAS_clean_linker_0, # of connection points: 2
#     Edge 65, Type (0, 1), BuildingBlock: ZUJKAS_clean_linker_0, # of connection points: 2
#     Edge 66, Type (0, 1), BuildingBlock: ZUJKAS_clean_linker_0, # of connection points: 2
#     Edge 67, Type (0, 1), BuildingBlock: ZUJKAS_clean_linker_0, # of connection points: 2
#     Edge 68, Type (0, 1), BuildingBlock: ZUJKAS_clean_linker_0, # of connection points: 2
#     Edge 69, Type (0, 1), BuildingBlock: ZUJKAS_clean_linker_0, # of connection points: 2
#     Edge 70, Type (0, 1), BuildingBlock: ZUJKAS_clean_linker_0, # of connection points: 2
#     Edge 71, Type (0, 1), BuildingBlock: ZUJKAS_clean_linker_0, # of connection points: 2
#     Edge 72, Type (0, 1), BuildingBlock: ZUJKAS_clean_linker_0, # of connection points: 2
#     Edge 73, Type (0, 1), BuildingBlock: ZUJKAS_clean_linker_0, # of connection points: 2
#     Edge 74, Type (0, 1), BuildingBlock: ZUJKAS_clean_linker_0, # of connection points: 2
#     Edge 75, Type (0, 1), BuildingBlock: ZUJKAS_clean_linker_0, # of connection points: 2
#     Edge 76, Type (0, 1), BuildingBlock: ZUJKAS_clean_linker_0, # of connection points: 2
#     Edge 77, Type (0, 1), BuildingBlock: ZUJKAS_clean_linker_0, # of connection points: 2
#     Edge 78, Type (0, 1), BuildingBlock: ZUJKAS_clean_linker_0, # of connection points: 2
#     Edge 79, Type (0, 1), BuildingBlock: ZUJKAS_clean_linker_0, # of connection points: 2
#     Edge 80, Type (0, 1), BuildingBlock: ZUJKAS_clean_linker_0, # of connection points: 2
#     Edge 81, Type (0, 1), BuildingBlock: ZUJKAS_clean_linker_0, # of connection points: 2
#     Edge 82, Type (0, 1), BuildingBlock: ZUJKAS_clean_linker_0, # of connection points: 2
#     Edge 83, Type (0, 1), BuildingBlock: ZUJKAS_clean_linker_0, # of connection points: 2
#     Edge 84, Type (0, 1), BuildingBlock: ZUJKAS_clean_linker_0, # of connection points: 2
#     Edge 85, Type (0, 1), BuildingBlock: ZUJKAS_clean_linker_0, # of connection points: 2
#     Edge 86, Type (0, 1), BuildingBlock: ZUJKAS_clean_linker_0, # of connection points: 2
#     Edge 87, Type (0, 1), BuildingBlock: ZUJKAS_clean_linker_0, # of connection points: 2
#     Edge 88, Type (0, 1), BuildingBlock: ZUJKAS_clean_linker_0, # of connection points: 2
#     Edge 89, Type (0, 1), BuildingBlock: ZUJKAS_clean_linker_0, # of connection points: 2
#     Edge 90, Type (0, 1), BuildingBlock: ZUJKAS_clean_linker_0, # of connection points: 2
#     Edge 91, Type (0, 1), BuildingBlock: ZUJKAS_clean_linker_0, # of connection points: 2
#     Edge 92, Type (0, 1), BuildingBlock: ZUJKAS_clean_linker_0, # of connection points: 2
#     Edge 93, Type (0, 1), BuildingBlock: ZUJKAS_clean_linker_0, # of connection points: 2
#     Edge 94, Type (0, 1), BuildingBlock: ZUJKAS_clean_linker_0, # of connection points: 2
#     Edge 95, Type (0, 1), BuildingBlock: ZUJKAS_clean_linker_0, # of connection points: 2
#     Edge 96, Type (0, 1), BuildingBlock: ZUJKAS_clean_linker_0, # of connection points: 2
#     Edge 97, Type (0, 1), BuildingBlock: ZUJKAS_clean_linker_0, # of connection points: 2
#     Edge 98, Type (0, 1), BuildingBlock: ZUJKAS_clean_linker_0, # of connection points: 2
#     Edge 99, Type (0, 1), BuildingBlock: ZUJKAS_clean_linker_0, # of connection points: 2
#     Edge 100, Type (0, 1), BuildingBlock: ZUJKAS_clean_linker_0, # of connection points: 2
#     Edge 101, Type (0, 1), BuildingBlock: ZUJKAS_clean_linker_0, # of connection points: 2
#     Edge 102, Type (0, 1), BuildingBlock: ZUJKAS_clean_linker_0, # of connection points: 2
#     Edge 103, Type (0, 1), BuildingBlock: ZUJKAS_clean_linker_0, # of connection points: 2
#     Edge 104, Type (0, 1), BuildingBlock: ZUJKAS_clean_linker_0, # of connection points: 2
#     Edge 105, Type (0, 1), BuildingBlock: ZUJKAS_clean_linker_0, # of connection points: 2
#     Edge 106, Type (0, 1), BuildingBlock: ZUJKAS_clean_linker_0, # of connection points: 2
#     Edge 107, Type (0, 1), BuildingBlock: ZUJKAS_clean_linker_0, # of connection points: 2
# Relax obj value: 0.044
# Max RMSD: 0.105
# Mean RMSD: 0.074
data_MOF--net-ptr--node1-QUQFOY_clean_sbu_3--node2-GIZVER_clean_linker_0--edge1-ZUJKAS_clean_linker_0
_symmetry_space_group_name_H-M    P1
_symmetry_Int_Tables_number       1
_symmetry_cell_setting            triclinic
loop_
_symmetry_equiv_pos_as_xyz
'x, y, z'
_cell_length_a     103.6734
_cell_length_b     104.00789
_cell_length_c     63.813472
_cell_angle_alpha  90.448928
_cell_angle_beta   89.898551
_cell_angle_gamma 120.47238
loop_
_atom_site_label
_atom_site_type_symbol
_atom_site_fract_x
_atom_site_fract_y
_atom_site_fract_z
_atom_type_partial_charge
C0 C 0.96555 0.32314 0.00573 0.0
O1 O 0.95935 0.33021 0.01242 0.0
Cd2 Cd 0.97259 0.35594 0.02315 0.0
O3 O 0.97979 0.32949 0.005 0.0
Cd4 Cd 0.00234 0.35384 0.01473 0.0
C5 C 0.99464 0.37354 0.97988 0.0
O6 O 0.99241 0.35975 0.04597 0.0
O7 O 0.01342 0.37736 0.034 0.0
O8 O 0.01264 0.33995 0.03114 0.0
C9 C 0.0032 0.37309 0.04766 0.0
O10 O 0.98381 0.37094 0.992 0.0
C11 C 0.02475 0.34577 0.0208 0.0
O12 O 0.0029 0.36795 0.98347 0.0
O13 O 0.02655 0.35544 0.00725 0.0
C14 C 0.63863 0.68046 0.01326 0.0
O15 O 0.62502 0.67273 0.00764 0.0
Cd16 Cd 0.61254 0.64684 -0.00204 0.0
O17 O 0.64688 0.67463 0.01387 0.0
Cd18 Cd 0.64482 0.65013 0.00605 0.0
C19 C 0.6176 0.63016 0.04138 0.0
O20 O 0.62851 0.64295 0.97534 0.0
O21 O 0.63134 0.62567 0.98928 0.0
O22 O 0.66764 0.6601 0.98569 0.0
C23 C 0.62568 0.62956 0.97481 0.0
O24 O 0.60906 0.63215 0.02919 0.0
C25 C 0.67497 0.65716 -0.00126 0.0
O26 O 0.63161 0.63634 0.03773 0.0
O27 O 0.66841 0.65107 0.01577 0.0
C28 C 0.32458 0.96943 0.00553 0.0
O29 O 0.33147 0.96337 -0.00239 0.0
Cd30 Cd 0.35722 0.97679 0.98698 0.0
O31 O 0.33118 0.98355 0.00786 0.0
Cd32 Cd 0.35571 0.00618 0.00043 0.0
C33 C 0.37472 0.9958 0.03261 0.0
O34 O 0.36105 0.99783 0.96737 0.0
O35 O 0.37902 0.01822 0.9804 0.0
O36 O 0.34128 0.01733 0.98885 0.0
C37 C 0.37444 0.00852 0.96588 0.0
O38 O 0.37229 0.98593 0.01875 0.0
C39 C 0.34821 0.0291 -7e-05 0.0
O40 O 0.36913 0.0042 0.03082 0.0
O41 O 0.3587 0.03025 0.01155 0.0
C42 C 0.9614 0.64119 0.00823 0.0
O43 O 0.9552 0.62784 0.01467 0.0
Cd44 Cd 0.96844 0.61529 0.02412 0.0
O45 O 0.97559 0.64903 0.00664 0.0
Cd46 Cd 0.99812 0.64712 0.01321 0.0
C47 C 0.9881 0.61845 0.97882 0.0
O48 O 0.98959 0.632 0.0449 0.0
O49 O 0.01017 0.63547 0.03139 0.0
O50 O 0.01071 0.67196 0.02882 0.0
C51 C 0.00041 0.62958 0.04565 0.0
O52 O 0.9779 0.61044 0.99189 0.0
C53 C 0.02149 0.67771 0.01593 0.0
O54 O 0.99657 0.63245 0.98188 0.0
O55 O 0.02145 0.66921 0.00147 0.0
C56 C 0.32372 0.36388 0.01076 0.0
O57 O 0.33096 0.37695 0.00325 0.0
Cd58 Cd 0.3563 0.38898 0.99088 0.0
O59 O 0.32973 0.35583 0.01202 0.0
Cd60 Cd 0.35363 0.35697 0.00277 0.0
C61 C 0.37535 0.387 0.03411 0.0
O62 O 0.35832 0.37091 0.9705 0.0
O63 O 0.37614 0.36761 0.98092 0.0
O64 O 0.33962 0.33159 0.98916 0.0
C65 C 0.3714 0.3732 0.96756 0.0
O66 O 0.37271 0.39463 0.02109 0.0
C67 C 0.34569 0.32629 0.00081 0.0
O68 O 0.36904 0.37285 0.03216 0.0
O69 O 0.35539 0.33525 0.01388 0.0
C70 C 0.67948 0.03403 0.00745 0.0
O71 O 0.67232 0.03986 0.01519 0.0
Cd72 Cd 0.6467 0.02639 0.02627 0.0
O73 O 0.67331 0.01988 0.00575 0.0
Cd74 Cd 0.64925 0.99679 0.0149 0.0
C75 C 0.62902 0.00537 0.98177 0.0
O76 O 0.64402 0.00628 0.04684 0.0
O77 O 0.62639 0.98484 0.0362 0.0
O78 O 0.66454 0.98693 0.02811 0.0
C79 C 0.63088 0.99538 0.04948 0.0
O80 O 0.63162 0.01581 0.99472 0.0
C81 C 0.65792 0.97468 0.01803 0.0
O82 O 0.63467 0.99707 0.98444 0.0
O83 O 0.64725 0.97266 0.00605 0.0
C84 C 0.63168 0.65912 0.33677 0.0
O85 O 0.6257 0.66676 0.34182 0.0
Cd86 Cd 0.63852 0.69208 0.35441 0.0
O87 O 0.64584 0.66481 0.33794 0.0
Cd88 Cd 0.66835 0.68911 0.34846 0.0
C89 C 0.6629 0.71088 0.31388 0.0
O90 O 0.65709 0.6945 0.37835 0.0
O91 O 0.67893 0.71221 0.36937 0.0
O92 O 0.67976 0.67708 0.36739 0.0
C93 C 0.6678 0.70769 0.38153 0.0
O94 O 0.65175 0.70837 0.32524 0.0
C95 C 0.69105 0.68149 0.35552 0.0
O96 O 0.67038 0.70445 0.31761 0.0
O97 O 0.69184 0.68943 0.33999 0.0
C98 C 0.30662 0.01075 0.34998 0.0
O99 O 0.29335 0.00363 0.3428 0.0
Cd100 Cd 0.28098 0.97887 0.32839 0.0
O101 O 0.31481 0.00482 0.34999 0.0
Cd102 Cd 0.31318 0.98105 0.33821 0.0
C103 C 0.28358 0.95871 0.36939 0.0
O104 O 0.29903 0.97815 0.30639 0.0
O105 O 0.30203 0.95972 0.3137 0.0
O106 O 0.33923 0.99633 0.32735 0.0
C107 C 0.29651 0.96526 0.30153 0.0
O108 O 0.27567 0.96146 0.35698 0.0
C109 C 0.34368 0.98813 0.33542 0.0
O110 O 0.29777 0.96526 0.36733 0.0
O111 O 0.334 0.97675 0.34535 0.0
C112 C 0.99255 0.30161 0.33559 0.0
O113 O -0.00017 0.29569 0.32861 0.0
Cd114 Cd 0.02576 0.30881 0.31931 0.0
O115 O 0.99881 0.31574 0.33759 0.0
Cd116 Cd 0.02358 0.33834 0.3302 0.0
C117 C 0.04294 0.32942 0.36413 0.0
O118 O 0.02958 0.32929 0.29868 0.0
O119 O 0.04775 0.34949 0.31186 0.0
O120 O 0.01388 0.3523 0.31261 0.0
C121 C 0.04314 0.33963 0.29751 0.0
O122 O 0.04051 0.31896 0.35131 0.0
C123 C 0.01736 0.36208 0.3269 0.0
O124 O 0.03737 0.33772 0.36101 0.0
O125 O 0.02368 0.36082 0.34316 0.0
C126 C 0.63075 0.97194 0.33689 0.0
O127 O 0.6254 0.95917 0.34518 0.0
Cd128 Cd 0.64008 0.94913 0.35853 0.0
O129 O 0.64486 0.9805 0.33509 0.0
Cd130 Cd 0.66841 0.98094 0.34388 0.0
C131 C 0.66021 0.95056 0.31443 0.0
O132 O 0.66027 0.96853 0.37761 0.0
O133 O 0.68092 0.97123 0.36578 0.0
O134 O 0.67777 0.00688 0.35343 0.0
C135 C 0.67119 0.96646 0.38018 0.0
O136 O 0.65095 0.94315 0.32888 0.0
C137 C 0.69026 0.01215 0.34416 0.0
O138 O 0.66719 0.96481 0.31445 0.0
O139 O 0.69264 0.0029 0.33426 0.0
C140 C 0.99007 0.69569 0.34499 0.0
O141 O 0.99736 0.70896 0.33821 0.0
Cd142 Cd 0.02288 0.72166 0.32677 0.0
O143 O 0.99619 0.68772 0.34605 0.0
Cd144 Cd 0.02074 0.68999 0.33715 0.0
C145 C 0.04151 0.71931 0.37003 0.0
O146 O 0.02554 0.70445 0.30521 0.0
O147 O 0.04374 0.70199 0.31627 0.0
O148 O 0.00819 0.66474 0.32258 0.0
C149 C 0.03884 0.70727 0.30267 0.0
O150 O 0.03899 0.72717 0.3573 0.0
C151 C 0.01461 0.65988 0.33436 0.0
O152 O 0.03539 0.70523 0.3674 0.0
O153 O 0.02369 0.66895 0.34792 0.0
C154 C 0.34544 0.36672 0.33128 0.0
O155 O 0.33805 0.37329 0.33397 0.0
Cd156 Cd 0.31281 0.36171 0.34667 0.0
O157 O 0.33945 0.35274 0.3344 0.0
Cd158 Cd 0.31474 0.33108 0.3449 0.0
C159 C 0.29362 0.33578 0.30779 0.0
O160 O 0.31063 0.34459 0.37298 0.0
O161 O 0.29287 0.32195 0.36801 0.0
O162 O 0.32893 0.32131 0.36212 0.0
C163 C 0.29774 0.33411 0.37805 0.0
O164 O 0.2966 0.34767 0.31765 0.0
C165 C 0.32241 0.30865 0.35306 0.0
O166 O 0.29935 0.32799 0.31342 0.0
O167 O 0.31219 0.3063 0.33999 0.0
C168 C 0.29964 0.9917 0.66659 0.0
O169 O 0.29319 0.99888 0.67168 0.0
Cd170 Cd 0.30546 0.02398 0.68486 0.0
O171 O 0.31383 0.9978 0.66806 0.0
Cd172 Cd 0.33579 0.02223 0.67955 0.0
C173 C 0.32995 0.04371 0.64499 0.0
O174 O 0.32352 0.02602 0.70975 0.0
O175 O 0.34548 0.04426 0.70255 0.0
O176 O 0.34632 0.00806 0.69491 0.0
C177 C 0.33403 0.03907 0.71419 0.0
O178 O 0.31844 0.04061 0.65588 0.0
C179 C 0.35889 0.01507 0.68576 0.0
O180 O 0.3379 0.03786 0.64914 0.0
O181 O 0.36076 0.02541 0.67343 0.0
C182 C 0.96993 0.34131 0.67778 0.0
O183 O 0.95708 0.33411 0.66929 0.0
Cd184 Cd 0.94499 0.30886 0.6569 0.0
O185 O 0.97824 0.33558 0.67952 0.0
Cd186 Cd 0.97798 0.31229 0.66829 0.0
C187 C 0.94851 0.29035 0.69979 0.0
O188 O 0.96358 0.30806 0.6366 0.0
O189 O 0.96722 0.2902 0.6448 0.0
O190 O 0.00382 0.32774 0.65651 0.0
C191 C 0.9612 0.29512 0.63247 0.0
O192 O 0.94048 0.29275 0.6871 0.0
C193 C 0.00885 0.32054 0.6661 0.0
O194 O 0.96268 0.29682 0.69754 0.0
O195 O -0.00043 0.30962 0.67717 0.0
C196 C 0.65828 0.63485 0.68 0.0
O197 O 0.66553 0.62841 0.67523 0.0
Cd198 Cd 0.69102 0.6405 0.66345 0.0
O199 O 0.66448 0.64902 0.67909 0.0
Cd200 Cd 0.6889 0.67115 0.66948 0.0
C201 C 0.70994 0.6648 0.70445 0.0
O202 O 0.69295 0.65897 0.64001 0.0
O203 O 0.71083 0.68138 0.64594 0.0
O204 O 0.67534 0.68213 0.65398 0.0
C205 C 0.70584 0.6695 0.63515 0.0
O206 O 0.70714 0.65344 0.69334 0.0
C207 C 0.68139 0.69391 0.66516 0.0
O208 O 0.70404 0.67265 0.7001 0.0
O209 O 0.69104 0.69517 0.67854 0.0
C210 C 0.29485 0.30475 0.66816 0.0
O211 O 0.2883 0.2912 0.67388 0.0
Cd212 Cd 0.30057 0.27864 0.68738 0.0
O213 O 0.30907 0.31285 0.66903 0.0
Cd214 Cd 0.33126 0.31135 0.67995 0.0
C215 C 0.32457 0.28279 0.64678 0.0
O216 O 0.31923 0.2962 0.71039 0.0
O217 O 0.34136 0.30028 0.70421 0.0
O218 O 0.34102 0.33673 0.69264 0.0
C219 C 0.32969 0.29391 0.71542 0.0
O220 O 0.31351 0.2745 0.65854 0.0
C221 C 0.35379 0.34214 0.68412 0.0
O222 O 0.33225 0.29687 0.64983 0.0
O223 O 0.35617 0.33321 0.67339 0.0
C224 C 0.65785 0.02989 0.67654 0.0
O225 O 0.66562 0.0427 0.66841 0.0
Cd226 Cd 0.69089 0.05318 0.65652 0.0
O227 O 0.66321 0.0213 0.67842 0.0
Cd228 Cd 0.68661 0.02124 0.66927 0.0
C229 C 0.70857 0.05072 0.70086 0.0
O230 O 0.6923 0.0347 0.63615 0.0
O231 O 0.70991 0.03202 0.64921 0.0
O232 O 0.67172 0.99547 0.65676 0.0
C233 C 0.70548 0.03696 0.6345 0.0
O234 O 0.70685 0.05863 0.68725 0.0
C235 C 0.67805 0.99033 0.66819 0.0
O236 O 0.70154 0.03652 0.69922 0.0
O237 O 0.68825 0.99953 0.68049 0.0
C238 C 0.00938 0.7004 0.66666 0.0
O239 O 0.00228 0.70661 0.6733 0.0
Cd240 Cd 0.97728 0.69425 0.68671 0.0
O241 O 0.00327 0.68622 0.66677 0.0
Cd242 Cd 0.97899 0.66407 0.67809 0.0
C243 C 0.95727 0.67093 0.6453 0.0
O244 O 0.97558 0.67556 0.70946 0.0
O245 O 0.95695 0.65408 0.7011 0.0
O246 O 0.99346 0.65351 0.69206 0.0
C247 C 0.96243 0.66517 0.71354 0.0
O248 O 0.96029 0.6819 0.65743 0.0
C249 C 0.98607 0.64091 0.68299 0.0
O250 O 0.96337 0.66304 0.64806 0.0
O251 O 0.97544 0.63906 0.67108 0.0
H252 H 0.1401 0.30216 0.16336 0.0
H253 H 0.13587 0.30105 0.09601 0.0
H254 H 0.12275 0.32705 0.13324 0.0
H255 H 0.13978 0.28168 0.14068 0.0
H256 H 0.14214 0.28421 0.11295 0.0
H257 H 0.16114 0.29418 0.16433 0.0
H258 H 0.20505 0.32064 0.1381 0.0
H259 H 0.16643 0.30453 0.09833 0.0
C260 C 0.13732 0.30591 0.14917 0.0
C261 C 0.13159 0.31555 0.15058 0.0
C262 C 0.13921 0.30087 0.1295 0.0
C263 C 0.13494 0.30528 0.11118 0.0
C264 C 0.12922 0.31494 0.11249 0.0
C265 C 0.12784 0.32017 0.13217 0.0
C266 C 0.14508 0.29024 0.12825 0.0
C267 C 0.16186 0.29858 0.13106 0.0
C268 C 0.16826 0.29964 0.15096 0.0
C269 C 0.18386 0.30776 0.15356 0.0
C270 C 0.19298 0.31478 0.13624 0.0
C271 C 0.18683 0.31358 0.11632 0.0
C272 C 0.17124 0.30549 0.11374 0.0
H273 H 0.71044 0.84174 0.16743 0.0
H274 H 0.70382 0.83931 0.10037 0.0
H275 H 0.69263 0.79975 0.13492 0.0
H276 H 0.72315 0.86432 0.14662 0.0
H277 H 0.72279 0.86314 0.11873 0.0
H278 H 0.70171 0.86379 0.16586 0.0
H279 H 0.68062 0.88377 0.13166 0.0
H280 H 0.70594 0.86794 0.0987 0.0
C281 C 0.70661 0.83526 0.15304 0.0
C282 C 0.70132 0.81987 0.15345 0.0
C283 C 0.7077 0.84242 0.13386 0.0
C284 C 0.70288 0.83391 0.11522 0.0
C285 C 0.69751 0.81854 0.11568 0.0
C286 C 0.69679 0.81166 0.13472 0.0
C287 C 0.71556 0.85923 0.13289 0.0
C288 C 0.70469 0.86484 0.13233 0.0
C289 C 0.69891 0.86697 0.15118 0.0
C290 C 0.69015 0.87379 0.1512 0.0
C291 C 0.68679 0.87792 0.13197 0.0
C292 C 0.6923 0.87571 0.11309 0.0
C293 C 0.70126 0.86918 0.11325 0.0
H294 H 0.15642 0.82421 0.16178 0.0
H295 H 0.15446 0.81582 0.09531 0.0
H296 H 0.1145 0.79377 0.13221 0.0
H297 H 0.17861 0.82707 0.14075 0.0
H298 H 0.1781 0.82744 0.1129 0.0
H299 H 0.1803 0.8479 0.16217 0.0
H300 H 0.20241 0.89028 0.13142 0.0
H301 H 0.18321 0.84985 0.09489 0.0
C302 C 0.14993 0.81912 0.14771 0.0
C303 C 0.13444 0.80921 0.14925 0.0
C304 C 0.15722 0.82177 0.12823 0.0
C305 C 0.14884 0.81447 0.11016 0.0
C306 C 0.13344 0.80431 0.11165 0.0
C307 C 0.12631 0.80207 0.13106 0.0
C308 C 0.17408 0.83037 0.12735 0.0
C309 C 0.18039 0.84701 0.12837 0.0
C310 C 0.18332 0.85434 0.14789 0.0
C311 C 0.19104 0.86999 0.14907 0.0
C312 C 0.19551 0.87823 0.13049 0.0
C313 C 0.19291 0.87112 0.11088 0.0
C314 C 0.185 0.85546 0.10991 0.0
H315 H 0.33162 0.17848 0.85155 0.0
H316 H 0.3403 0.19073 0.9168 0.0
H317 H 0.31574 0.20543 0.87981 0.0
H318 H 0.35356 0.1799 0.87188 0.0
H319 H 0.35333 0.18024 0.89976 0.0
H320 H 0.33588 0.15723 0.85192 0.0
H321 H 0.31922 0.11627 0.88538 0.0
H322 H 0.33717 0.15777 0.91933 0.0
C323 C 0.3299 0.18353 0.86539 0.0
C324 C 0.32241 0.19153 0.86359 0.0
C325 C 0.33605 0.18284 0.8847 0.0
C326 C 0.33477 0.19041 0.90226 0.0
C327 C 0.32763 0.19878 0.90046 0.0
C328 C 0.32096 0.19871 0.88134 0.0
C329 C 0.34596 0.17613 0.88567 0.0
C330 C 0.33704 0.15931 0.88567 0.0
C331 C 0.3331 0.15129 0.86663 0.0
C332 C 0.3263 0.13569 0.8665 0.0
C333 C 0.32342 0.12817 0.88562 0.0
C334 C 0.32742 0.13596 0.90481 0.0
C335 C 0.33388 0.15155 0.90469 0.0
H336 H 0.8636 0.1616 0.84991 0.0
H337 H 0.86541 0.16616 0.91729 0.0
H338 H 0.88328 0.20503 0.87852 0.0
H339 H 0.86009 0.14077 0.87324 0.0
H340 H 0.85907 0.14233 0.90104 0.0
H341 H 0.83887 0.13687 0.85028 0.0
H342 H 0.79585 0.11805 0.87974 0.0
H343 H 0.83552 0.13645 0.91774 0.0
C344 C 0.86645 0.16854 0.86385 0.0
C345 C 0.87346 0.18409 0.86187 0.0
C346 C 0.86324 0.16194 0.88382 0.0
C347 C 0.86747 0.1711 0.90186 0.0
C348 C 0.87454 0.18667 0.89997 0.0
C349 C 0.87729 0.19298 0.87999 0.0
C350 C 0.85597 0.14523 0.88585 0.0
C351 C 0.83915 0.1378 0.88419 0.0
C352 C 0.83217 0.13432 0.86435 0.0
C353 C 0.81655 0.12738 0.86269 0.0
C354 C 0.80797 0.12398 0.88096 0.0
C355 C 0.81465 0.1271 0.90081 0.0
C356 C 0.83029 0.13408 0.90241 0.0
H357 H 0.84507 0.66782 0.84809 0.0
H358 H 0.84517 0.66668 0.91549 0.0
H359 H 0.88658 0.68532 0.8816 0.0
H360 H 0.82238 0.65083 0.86732 0.0
H361 H 0.82258 0.64984 0.89517 0.0
H362 H 0.82226 0.67262 0.85029 0.0
H363 H 0.79665 0.68765 0.88501 0.0
H364 H 0.81394 0.66315 0.91607 0.0
C365 C 0.85119 0.67077 0.86278 0.0
C366 C 0.86686 0.67764 0.8626 0.0
C367 C 0.84331 0.66695 0.88184 0.0
C368 C 0.85125 0.67014 0.90083 0.0
C369 C 0.86692 0.67693 0.90087 0.0
C370 C 0.87459 0.68092 0.88172 0.0
C371 C 0.82646 0.65776 0.88184 0.0
C372 C 0.81951 0.66744 0.88321 0.0
C373 C 0.81782 0.67398 0.865 0.0
C374 C 0.80956 0.68131 0.8654 0.0
C375 C 0.80371 0.68274 0.88458 0.0
C376 C 0.80531 0.67628 0.90283 0.0
C377 C 0.81326 0.66869 0.90214 0.0
H378 H 0.80441 0.6352 0.49751 0.0
H379 H 0.80336 0.6392 0.43044 0.0
H380 H 0.78645 0.66054 0.47092 0.0
H381 H 0.80565 0.61696 0.47327 0.0
H382 H 0.80711 0.61992 0.44567 0.0
H383 H 0.8277 0.6332 0.49697 0.0
H384 H 0.87059 0.65036 0.46749 0.0
H385 H 0.83131 0.63492 0.42946 0.0
C386 C 0.80216 0.63991 0.48387 0.0
C387 C 0.79572 0.64885 0.48647 0.0
C388 C 0.80517 0.63656 0.46369 0.0
C389 C 0.80147 0.64212 0.44601 0.0
C390 C 0.79483 0.65097 0.44844 0.0
C391 C 0.79226 0.65441 0.46878 0.0
C392 C 0.81074 0.62575 0.46109 0.0
C393 C 0.82757 0.63344 0.463 0.0
C394 C 0.83445 0.63618 0.48291 0.0
C395 C 0.85005 0.64258 0.4846 0.0
C396 C 0.85861 0.6459 0.46633 0.0
C397 C 0.85194 0.64309 0.44654 0.0
C398 C 0.83647 0.63718 0.44483 0.0
H399 H 0.37464 0.1762 0.50079 0.0
H400 H 0.36548 0.16839 0.43451 0.0
H401 H 0.34683 0.13161 0.47726 0.0
H402 H 0.3901 0.19556 0.47477 0.0
H403 H 0.38595 0.19237 0.44743 0.0
H404 H 0.37497 0.20213 0.49828 0.0
H405 H 0.35293 0.22258 0.46819 0.0
H406 H 0.3682 0.19823 0.43121 0.0
C407 C 0.36893 0.16865 0.48779 0.0
C408 C 0.36013 0.15327 0.49144 0.0
C409 C 0.37064 0.17424 0.46729 0.0
C410 C 0.36377 0.16423 0.45041 0.0
C411 C 0.35503 0.14884 0.45398 0.0
C412 C 0.35306 0.14355 0.47453 0.0
C413 C 0.38076 0.19068 0.4632 0.0
C414 C 0.3723 0.19896 0.46464 0.0
C415 C 0.37052 0.20425 0.48422 0.0
C416 C 0.36374 0.21297 0.48545 0.0
C417 C 0.35814 0.21579 0.46724 0.0
C418 C 0.35957 0.21044 0.44773 0.0
C419 C 0.36674 0.20208 0.44638 0.0
H420 H 0.82097 0.14903 0.49086 0.0
H421 H 0.82135 0.15439 0.42399 0.0
H422 H 0.77968 0.1284 0.4563 0.0
H423 H 0.8439 0.15742 0.47052 0.0
H424 H 0.84409 0.16002 0.44291 0.0
H425 H 0.84165 0.17591 0.49507 0.0
H426 H 0.86692 0.22099 0.47322 0.0
H427 H 0.85457 0.18453 0.4303 0.0
C428 C 0.81494 0.1474 0.47631 0.0
C429 C 0.79931 0.1381 0.47587 0.0
C430 C 0.82296 0.15359 0.4577 0.0
C431 C 0.81519 0.15038 0.43851 0.0
C432 C 0.79954 0.14131 0.43796 0.0
C433 C 0.79173 0.13571 0.45676 0.0
C434 C 0.83983 0.16188 0.45798 0.0
C435 C 0.84632 0.17838 0.46185 0.0
C436 C 0.84655 0.18371 0.48227 0.0
C437 C 0.85397 0.1991 0.48645 0.0
C438 C 0.86083 0.2091 0.46991 0.0
C439 C 0.86161 0.20405 0.44977 0.0
C440 C 0.85383 0.18862 0.44565 0.0
H441 H 0.01268 0.51823 0.18326 0.0
H442 H 0.02096 0.52951 0.2489 0.0
H443 H -0.0006 0.54735 0.21154 0.0
H444 H 0.03275 0.5168 0.20314 0.0
H445 H 0.03399 0.51896 0.23091 0.0
H446 H 0.01479 0.49333 0.18675 0.0
H447 H 0.99371 0.4548 0.2265 0.0
H448 H 0.01688 0.49862 0.25382 0.0
C449 C 0.01139 0.52361 0.19707 0.0
C450 C 0.00483 0.53251 0.19522 0.0
C451 C 0.01702 0.52228 0.21647 0.0
C452 C 0.016 0.52991 0.23415 0.0
C453 C 0.00976 0.53908 0.23233 0.0
C454 C 0.00385 0.53995 0.21302 0.0
C455 C 0.02592 0.51448 0.21761 0.0
C456 C 0.0159 0.49785 0.21996 0.0
C457 C 0.01131 0.48845 0.20215 0.0
C458 C 0.00357 0.47285 0.20435 0.0
C459 C -0.00047 0.46681 0.22452 0.0
C460 C 0.00448 0.47599 0.24235 0.0
C461 C 0.01252 0.49152 0.24005 0.0
H462 H 0.53229 0.49761 0.18378 0.0
H463 H 0.53211 0.49908 0.25142 0.0
H464 H 0.55038 0.53958 0.2163 0.0
H465 H 0.52874 0.47603 0.20523 0.0
H466 H 0.52694 0.47626 0.23305 0.0
H467 H 0.50796 0.4753 0.18202 0.0
H468 H 0.464 0.44903 0.20778 0.0
H469 H 0.50245 0.46436 0.24779 0.0
C470 C 0.53449 0.50386 0.1983 0.0
C471 C 0.54135 0.51947 0.1977 0.0
C472 C 0.53073 0.49633 0.21762 0.0
C473 C 0.53438 0.50466 0.23645 0.0
C474 C 0.54134 0.52026 0.23587 0.0
C475 C 0.54452 0.52748 0.21656 0.0
C476 C 0.52397 0.47959 0.21811 0.0
C477 C 0.50714 0.47146 0.21547 0.0
C478 C 0.50081 0.47028 0.19549 0.0
C479 C 0.48523 0.46235 0.19281 0.0
C480 C 0.47603 0.45537 0.21005 0.0
C481 C 0.48206 0.45558 0.22977 0.0
C482 C 0.49766 0.46408 0.2326 0.0
H483 H 0.50532 0.98769 0.17933 0.0
H484 H 0.50667 0.98733 0.24678 0.0
H485 H 0.5475 0.00688 0.21147 0.0
H486 H 0.48304 0.97041 0.19981 0.0
H487 H 0.48365 0.97048 0.22775 0.0
H488 H 0.48126 0.99036 0.18086 0.0
H489 H 0.45875 0.00903 0.21489 0.0
H490 H 0.47715 0.98618 0.24797 0.0
C491 C 0.51168 0.99094 0.19382 0.0
C492 C 0.52738 0.99833 0.19314 0.0
C493 C 0.50414 0.98715 0.21317 0.0
C494 C 0.51244 0.99074 0.23189 0.0
C495 C 0.52813 0.99801 0.23138 0.0
C496 C 0.53545 0.00203 0.21199 0.0
C497 C 0.4873 0.97787 0.21382 0.0
C498 C 0.48036 0.98758 0.2144 0.0
C499 C 0.47778 0.99288 0.1956 0.0
C500 C 0.47008 0.00077 0.19566 0.0
C501 C 0.46543 0.00371 0.21485 0.0
C502 C 0.46789 0.99851 0.23378 0.0
C503 C 0.47549 0.99052 0.23348 0.0
H504 H 0.47776 0.97955 0.83325 0.0
H505 H 0.47219 0.97402 0.76616 0.0
H506 H 0.45537 0.99834 0.79964 0.0
H507 H 0.4787 0.95861 0.81298 0.0
H508 H 0.48102 0.96006 0.78519 0.0
H509 H 0.49989 0.97248 0.83616 0.0
H510 H 0.54352 0.99914 0.80928 0.0
H511 H 0.5046 0.98111 0.76971 0.0
C512 C 0.47409 0.98184 0.81858 0.0
C513 C 0.46667 0.99 0.81867 0.0
C514 C 0.47642 0.97628 0.79964 0.0
C515 C 0.471 0.97874 0.78074 0.0
C516 C 0.46356 0.98685 0.7808 0.0
C517 C 0.46167 0.99261 0.79966 0.0
C518 C 0.48355 0.96672 0.79992 0.0
C519 C 0.5003 0.97612 0.80271 0.0
C520 C 0.50687 0.97788 0.82265 0.0
C521 C 0.52248 0.98637 0.82507 0.0
C522 C 0.53144 0.99314 0.80753 0.0
C523 C 0.52515 0.99121 0.78752 0.0
C524 C 0.50954 0.98277 0.78517 0.0
H525 H 0.03008 0.50387 0.83524 0.0
H526 H 0.01841 0.49475 0.76976 0.0
H527 H 0.00533 0.4587 0.81308 0.0
H528 H 0.04285 0.52357 0.80888 0.0
H529 H 0.03854 0.51962 0.78167 0.0
H530 H 0.02483 0.52634 0.83277 0.0
H531 H -0.00024 0.54359 0.80286 0.0
H532 H 0.02093 0.52506 0.76537 0.0
C533 C 0.02449 0.496 0.82252 0.0
C534 C 0.01712 0.48065 0.82648 0.0
C535 C 0.02484 0.50117 0.80206 0.0
C536 C 0.01793 0.49079 0.78557 0.0
C537 C 0.01073 0.47538 0.78938 0.0
C538 C 0.01029 0.47051 0.80995 0.0
C539 C 0.03345 0.51768 0.79754 0.0
C540 C 0.02349 0.52436 0.79895 0.0
C541 C 0.02025 0.52824 0.81865 0.0
C542 C 0.01151 0.53499 0.82008 0.0
C543 C 0.0059 0.53771 0.80176 0.0
C544 C 0.00934 0.53433 0.78198 0.0
C545 C 0.01806 0.52752 0.78063 0.0
H546 H 0.4906 0.48868 0.82733 0.0
H547 H 0.4868 0.48406 0.76018 0.0
H548 H 0.44732 0.46349 0.79829 0.0
H549 H 0.51171 0.49159 0.80485 0.0
H550 H 0.51056 0.49212 0.77704 0.0
H551 H 0.51776 0.51333 0.82644 0.0
H552 H 0.53679 0.55539 0.79494 0.0
H553 H 0.51426 0.51456 0.75939 0.0
C554 C 0.48368 0.48482 0.81335 0.0
C555 C 0.46805 0.47617 0.81521 0.0
C556 C 0.49051 0.48782 0.79353 0.0
C557 C 0.48157 0.48224 0.77543 0.0
C558 C 0.46593 0.47366 0.77706 0.0
C559 C 0.4593 0.47093 0.79695 0.0
C560 C 0.50729 0.49538 0.79189 0.0
C561 C 0.51445 0.51211 0.79294 0.0
C562 C 0.51942 0.51966 0.81227 0.0
C563 C 0.52769 0.53531 0.81304 0.0
C564 C 0.53014 0.54332 0.79444 0.0
C565 C 0.52561 0.53599 0.77499 0.0
C566 C 0.51749 0.52034 0.77437 0.0
H567 H 0.67038 0.85406 0.52304 0.0
H568 H 0.66726 0.84896 0.58999 0.0
H569 H 0.64976 0.87361 0.55946 0.0
H570 H 0.68633 0.84727 0.54192 0.0
H571 H 0.68524 0.84536 0.56964 0.0
H572 H 0.66656 0.82683 0.51894 0.0
H573 H 0.65075 0.78309 0.54393 0.0
H574 H 0.67143 0.82133 0.58472 0.0
C575 C 0.66615 0.85549 0.5379 0.0
C576 C 0.6595 0.86434 0.53904 0.0
C577 C 0.66875 0.84968 0.55621 0.0
C578 C 0.6645 0.85269 0.57577 0.0
C579 C 0.65767 0.8614 0.57711 0.0
C580 C 0.65467 0.86657 0.55856 0.0
C581 C 0.67831 0.84257 0.55518 0.0
C582 C 0.66907 0.82585 0.55241 0.0
C583 C 0.66429 0.81958 0.53226 0.0
C584 C 0.65757 0.8041 0.52908 0.0
C585 C 0.65535 0.79497 0.54636 0.0
C586 C 0.6606 0.80107 0.56635 0.0
C587 C 0.66697 0.81648 0.56945 0.0
H588 H 0.2003 0.82784 0.51736 0.0
H589 H 0.199 0.83191 0.58465 0.0
H590 H 0.22206 0.87111 0.5467 0.0
H591 H 0.19382 0.80635 0.54021 0.0
H592 H 0.19334 0.80805 0.56802 0.0
H593 H 0.17291 0.80526 0.518 0.0
H594 H 0.13005 0.78425 0.54846 0.0
H595 H 0.16998 0.80068 0.58531 0.0
C596 C 0.20289 0.83469 0.53136 0.0
C597 C 0.21166 0.85026 0.52979 0.0
C598 C 0.19821 0.82794 0.55115 0.0
C599 C 0.20221 0.83699 0.56932 0.0
C600 C 0.21062 0.85258 0.56767 0.0
C601 C 0.2152 0.85906 0.54792 0.0
C602 C 0.19021 0.81115 0.55301 0.0
C603 C 0.17343 0.80427 0.55184 0.0
C604 C 0.1663 0.80189 0.53221 0.0
C605 C 0.15063 0.79482 0.5309 0.0
C606 C 0.14218 0.79025 0.54935 0.0
C607 C 0.14905 0.79225 0.56888 0.0
C608 C 0.16469 0.79935 0.57018 0.0
H609 H 0.17942 0.33211 0.51488 0.0
H610 H 0.17887 0.3339 0.58235 0.0
H611 H 0.22049 0.3506 0.54951 0.0
H612 H 0.15665 0.31603 0.53433 0.0
H613 H 0.15667 0.31596 0.5622 0.0
H614 H 0.15452 0.33564 0.515 0.0
H615 H 0.12768 0.35017 0.54709 0.0
H616 H 0.14918 0.33097 0.58185 0.0
C617 C 0.18537 0.33587 0.52967 0.0
C618 C 0.20096 0.3422 0.53007 0.0
C619 C 0.17731 0.33297 0.54855 0.0
C620 C 0.18508 0.33683 0.56777 0.0
C621 C 0.20071 0.34336 0.56824 0.0
C622 C 0.20853 0.34634 0.54929 0.0
C623 C 0.16048 0.32347 0.54839 0.0
C624 C 0.15302 0.33271 0.54849 0.0
C625 C 0.15028 0.33762 0.52947 0.0
C626 C 0.14129 0.34414 0.5289 0.0
C627 C 0.13546 0.34612 0.54771 0.0
C628 C 0.13816 0.34142 0.56695 0.0
C629 C 0.14723 0.33495 0.56723 0.0
H630 H 0.98409 0.36724 0.08063 0.0
H631 H 0.98327 0.38532 0.10461 0.0
H632 H 0.02004 0.42131 0.07155 0.0
H633 H 0.02126 0.40332 0.04809 0.0
H634 H 0.02457 0.42502 0.11195 0.0
H635 H 0.96692 0.41257 0.09586 0.0
H636 H 0.96735 0.39629 0.10382 0.0
H637 H 0.97618 0.40538 0.07969 0.0
C638 C 0.99198 0.37901 0.0785 0.0
C639 C 0.00275 0.38385 0.0625 0.0
C640 C 0.99139 0.38935 0.09205 0.0
C641 C 0.00138 0.40471 0.0896 0.0
C642 C 0.01216 0.40953 0.07367 0.0
H643 H 0.9959 0.4741 0.16324 0.0
H644 H 0.99538 0.45853 0.13363 0.0
C645 C 0.01287 0.39922 0.06031 0.0
C646 C 0.00124 0.41575 0.10438 0.0
H647 H 0.97866 0.42705 0.12695 0.0
C648 C 0.01456 0.42555 0.11501 0.0
C649 C 0.98827 0.41669 0.10812 0.0
C650 C 0.97392 0.40728 0.09609 0.0
C651 C 0.01511 0.43582 0.12986 0.0
C652 C 0.0019 0.43604 0.13466 0.0
C653 C 0.98873 0.42672 0.12342 0.0
C654 C 0.00141 0.4451 0.15234 0.0
C655 C 0.02987 0.44628 0.14038 0.0
C656 C 0.00465 0.44248 0.17261 0.0
C657 C 0.00509 0.45135 0.18935 0.0
C658 C 0.00202 0.46294 0.18635 0.0
C659 C 0.99837 0.46532 0.16606 0.0
C660 C 0.998 0.45641 0.14918 0.0
H661 H 0.03947 0.44805 0.13053 0.0
H662 H 0.03098 0.45729 0.14378 0.0
H663 H 0.03056 0.44137 0.15541 0.0
H664 H 0.00709 0.43367 0.17546 0.0
H665 H 0.0083 0.44935 0.20458 0.0
H666 H 0.5885 0.6161 0.05407 0.0
H667 H 0.57634 0.59623 0.07968 0.0
H668 H 0.61856 0.59936 0.09331 0.0
H669 H 0.63096 0.61941 0.06759 0.0
H670 H 0.57617 0.56831 0.07813 0.0
H671 H 0.60095 0.60091 0.15159 0.0
H672 H 0.60103 0.60969 0.12724 0.0
H673 H 0.61372 0.60295 0.131 0.0
C674 C 0.5953 0.61273 0.06264 0.0
C675 C 0.61074 0.61937 0.05874 0.0
C676 C 0.58829 0.60131 0.07721 0.0
C677 C 0.59654 0.59633 0.08833 0.0
C678 C 0.61202 0.60314 0.08497 0.0
H679 H 0.55762 0.51616 0.16648 0.0
H680 H 0.57081 0.53366 0.13787 0.0
C681 C 0.61909 0.61461 0.0703 0.0
C682 C 0.58871 0.58374 0.10301 0.0
H683 H 0.58392 0.57519 0.155 0.0
C684 C 0.57794 0.56974 0.09493 0.0
C685 C 0.59102 0.58573 0.12488 0.0
C686 C 0.60222 0.60063 0.13433 0.0
C687 C 0.56922 0.5577 0.10825 0.0
C688 C 0.57137 0.55977 0.13012 0.0
C689 C 0.58234 0.57368 0.13817 0.0
C690 C 0.56184 0.54796 0.14512 0.0
C691 C 0.55742 0.543 0.09898 0.0
C692 C 0.55214 0.55001 0.15818 0.0
C693 C 0.54455 0.54003 0.17433 0.0
C694 C 0.54664 0.52788 0.17785 0.0
C695 C 0.55567 0.52533 0.16398 0.0
C696 C 0.56327 0.53535 0.14773 0.0
H697 H 0.5559 0.54377 0.0819 0.0
H698 H 0.56071 0.5345 0.10146 0.0
H699 H 0.54654 0.53908 0.10697 0.0
H700 H 0.55086 0.55965 0.15633 0.0
H701 H 0.53758 0.5422 0.18471 0.0
H702 H 0.38694 0.01866 0.0616 0.0
H703 H 0.40598 0.02337 0.08813 0.0
H704 H 0.40483 0.98284 0.06966 0.0
H705 H 0.38606 0.97812 0.04312 0.0
H706 H 0.40529 0.00604 0.12184 0.0
H707 H 0.44927 0.01406 0.06529 0.0
H708 H 0.43266 0.01432 0.05759 0.0
H709 H 0.43203 0.99686 0.06106 0.0
C710 C 0.39068 0.01071 0.06328 0.0
C711 C 0.38507 0.99808 0.0501 0.0
C712 C 0.4016 0.01346 0.07838 0.0
C713 C 0.40709 0.00366 0.08044 0.0
C714 C 0.40107 0.99077 0.06789 0.0
H715 H 0.45802 0.98262 0.16139 0.0
H716 H 0.44478 0.98596 0.13224 0.0
C717 C 0.39023 0.98804 0.05283 0.0
C718 C 0.41889 0.00658 0.09597 0.0
H719 H 0.45296 0.00921 0.10089 0.0
C720 C 0.41583 0.00701 0.11729 0.0
C721 C 0.43266 0.00791 0.08993 0.0
C722 C 0.43694 0.00842 0.0672 0.0
C723 C 0.42582 0.00786 0.13281 0.0
C724 C 0.43928 0.00851 0.12676 0.0
C725 C 0.44261 0.00867 0.10543 0.0
C726 C 0.44939 0.00778 0.14242 0.0
C727 C 0.42157 0.00732 0.15556 0.0
C728 C 0.45695 0.01927 0.15719 0.0
C729 C 0.46464 0.01745 0.17379 0.0
C730 C 0.46488 0.00411 0.17587 0.0
C731 C 0.45818 0.99309 0.16016 0.0
C732 C 0.45052 0.99493 0.14356 0.0
H733 H 0.40972 0.00432 0.15749 0.0
H734 H 0.42336 0.9991 0.16417 0.0
H735 H 0.42879 0.01843 0.1629 0.0
H736 H 0.45641 0.02938 0.15633 0.0
H737 H 0.46988 0.02622 0.1855 0.0
H738 H 0.40435 0.02845 0.96228 0.0
H739 H 0.42223 0.02685 0.93893 0.0
H740 H 0.38653 0.98608 0.91212 0.0
H741 H 0.36852 0.98761 0.93536 0.0
H742 H 0.42818 0.00272 0.93626 0.0
H743 H 0.40804 0.01288 0.86103 0.0
H744 H 0.40324 0.01739 0.88616 0.0
H745 H 0.3938 0.99842 0.87687 0.0
C746 C 0.40026 0.01922 0.95127 0.0
C747 C 0.38501 0.00817 0.9506 0.0
C748 C 0.41051 0.01829 0.93803 0.0
C749 C 0.40568 0.0064 0.92377 0.0
C750 C 0.39044 0.99545 0.92287 0.0
H751 H 0.45303 0.97259 0.85269 0.0
H752 H 0.44017 0.97779 0.88082 0.0
C753 C 0.38018 0.99634 0.93615 0.0
C754 C 0.41662 0.00531 0.91008 0.0
H755 H 0.42592 0.00514 0.85886 0.0
C756 C 0.42777 0.00332 0.91933 0.0
C757 C 0.41611 0.00626 0.88806 0.0
C758 C 0.40475 0.00898 0.87738 0.0
C759 C 0.43825 0.00192 0.90703 0.0
C760 C 0.43747 0.00246 0.88498 0.0
C761 C 0.42649 0.00473 0.8758 0.0
C762 C 0.44761 0.00034 0.87087 0.0
C763 C 0.45013 -0.0 0.91769 0.0
C764 C 0.45639 0.01143 0.85633 0.0
C765 C 0.46371 0.00848 0.84029 0.0
C766 C 0.46232 0.99436 0.83844 0.0
C767 C 0.45445 0.98363 0.85391 0.0
C768 C 0.44708 0.98659 0.86996 0.0
H769 H 0.45162 0.00363 0.93437 0.0
H770 H 0.44678 0.98803 0.91723 0.0
H771 H 0.46104 0.00642 0.90952 0.0
H772 H 0.45695 0.02212 0.85678 0.0
H773 H 0.46977 0.01696 0.82862 0.0
H774 H 0.97621 0.38179 0.96181 0.0
H775 H 0.98293 0.40205 0.9372 0.0
H776 H 0.02828 0.41078 0.93544 0.0
H777 H 0.0215 0.39017 0.95972 0.0
H778 H 0.00302 0.43119 0.94429 0.0
H779 H 0.01968 0.41136 0.87384 0.0
H780 H 0.00968 0.39924 0.89541 0.0
H781 H 0.02947 0.41212 0.89742 0.0
C782 C 0.98756 0.38783 0.9559 0.0
C783 C 0.99832 0.38435 0.9627 0.0
C784 C 0.9914 0.39946 0.94189 0.0
C785 C 0.00609 0.40793 0.93441 0.0
C786 C 0.0168 0.40424 0.94069 0.0
H787 H 0.0412 0.4833 0.84743 0.0
H788 H 0.04047 0.46769 0.87669 0.0
C789 C 0.01291 0.39246 0.95458 0.0
C790 C 0.0102 0.42106 0.92097 0.0
H791 H 0.02294 0.43551 0.87238 0.0
C792 C 0.00744 0.43216 0.92859 0.0
C793 C 0.01608 0.42238 0.90056 0.0
C794 C 0.0188 0.4106 0.8912 0.0
C795 C 0.01005 0.44433 0.9162 0.0
C796 C 0.01553 0.44543 0.89562 0.0
C797 C 0.01882 0.43466 0.88824 0.0
C798 C 0.01648 0.45674 0.88073 0.0
C799 C 0.00675 0.45584 0.92509 0.0
C800 C 0.00329 0.45601 0.87376 0.0
C801 C 0.0037 0.46485 0.85712 0.0
C802 C 0.01731 0.47464 0.84729 0.0
C803 C 0.03063 0.47605 0.85509 0.0
C804 C 0.0302 0.46706 0.87162 0.0
H805 H 0.00656 0.4557 0.94249 0.0
H806 H 0.01518 0.46721 0.9198 0.0
H807 H 0.9956 0.45339 0.91949 0.0
H808 H 0.99256 0.44795 0.88032 0.0
H809 H 0.99327 0.4634 0.85108 0.0
H810 H 0.6126 0.59926 0.97626 0.0
H811 H 0.59355 0.58084 0.95263 0.0
H812 H 0.59454 0.61624 0.91658 0.0
H813 H 0.61328 0.63474 0.94055 0.0
H814 H 0.56589 0.59327 0.92357 0.0
H815 H 0.6017 0.57144 0.89423 0.0
H816 H 0.59912 0.57041 0.92211 0.0
H817 H 0.60908 0.58831 0.90967 0.0
C818 C 0.60881 0.60313 0.96324 0.0
C819 C 0.61453 0.61846 0.96013 0.0
C820 C 0.59794 0.59258 0.94974 0.0
C821 C 0.59279 0.59718 0.93268 0.0
C822 C 0.59838 0.61246 0.92965 0.0
H823 H 0.55663 0.55771 0.81595 0.0
H824 H 0.57051 0.57123 0.84699 0.0
C825 C 0.60914 0.62302 0.94328 0.0
C826 C 0.58178 0.58613 0.9177 0.0
H827 H 0.57703 0.55983 0.88137 0.0
C828 C 0.56825 0.58587 0.91441 0.0
C829 C 0.58493 0.57652 0.90579 0.0
C830 C 0.59954 0.57672 0.90794 0.0
C831 C 0.55799 0.57658 0.89905 0.0
C832 C 0.56126 0.56714 0.88697 0.0
C833 C 0.57453 0.56702 0.8908 0.0
C834 C 0.5522 0.55881 0.86845 0.0
C835 C 0.54411 0.57746 0.89516 0.0
C836 C 0.53723 0.54727 0.8702 0.0
C837 C 0.52909 0.53958 0.85225 0.0
C838 C 0.53585 0.54336 0.83237 0.0
C839 C 0.55091 0.55479 0.83089 0.0
C840 C 0.55894 0.56244 0.84868 0.0
H841 H 0.54448 0.58706 0.9035 0.0
H842 H 0.54263 0.57847 0.87814 0.0
H843 H 0.53417 0.56707 0.90073 0.0
H844 H 0.5319 0.54413 0.8854 0.0
H845 H 0.51754 0.53076 0.85388 0.0
H846 H 0.96987 0.59006 0.96448 0.0
H847 H 0.97548 0.57665 0.93779 0.0
H848 H 0.01805 0.61616 0.9261 0.0
H849 H 0.01258 0.62981 0.95288 0.0
H850 H 0.99062 0.59184 0.8895 0.0
H851 H 0.019 0.57371 0.94624 0.0
H852 H 0.00351 0.57578 0.95466 0.0
H853 H 0.02097 0.59197 0.94808 0.0
C854 C 0.98038 0.59599 0.95612 0.0
C855 C 0.99081 0.611 0.96089 0.0
C856 C 0.98355 0.58829 0.94091 0.0
C857 C 0.9972 0.59541 0.93022 0.0
C858 C 0.00747 0.61051 0.93433 0.0
H859 H 0.03329 0.55457 0.84664 0.0
H860 H 0.0304 0.56931 0.87452 0.0
C861 C 0.00429 0.61828 0.94954 0.0
C862 C 0.00072 0.58682 0.91513 0.0
H863 H 0.01496 0.5636 0.91205 0.0
C864 C 0.99603 0.58573 0.89432 0.0
C865 C 0.00787 0.57901 0.92158 0.0
C866 C 0.0132 0.5801 0.94384 0.0
C867 C 0.9981 0.57678 0.87972 0.0
C868 C 0.00467 0.56841 0.88635 0.0
C869 C 0.00976 0.56987 0.90708 0.0
C870 C 0.00627 0.55809 0.87188 0.0
C871 C 0.99333 0.57649 0.8573 0.0
C872 C 0.99362 0.54637 0.86204 0.0
C873 C 0.99525 0.53801 0.84614 0.0
C874 C 0.00956 0.54106 0.8401 0.0
C875 C 0.02214 0.55193 0.85117 0.0
C876 C 0.0205 0.56041 0.86696 0.0
H877 H 0.99264 0.58654 0.85357 0.0
H878 H 0.00123 0.57583 0.84618 0.0
H879 H 0.98207 0.56656 0.85479 0.0
H880 H 0.9825 0.54411 0.86602 0.0
H881 H 0.9854 0.52965 0.83785 0.0
H882 H 0.4003 0.38103 0.95932 0.0
H883 H 0.41795 0.40078 0.93614 0.0
H884 H 0.38353 0.41021 0.91815 0.0
H885 H 0.3658 0.39055 0.94146 0.0
H886 H 0.41552 0.4035 0.89268 0.0
H887 H 0.41861 0.45133 0.93659 0.0
H888 H 0.41107 0.43302 0.94787 0.0
H889 H 0.40002 0.4367 0.92993 0.0
C890 C 0.39646 0.38727 0.95038 0.0
C891 C 0.38168 0.38428 0.95227 0.0
C892 C 0.40657 0.39857 0.93721 0.0
C893 C 0.40211 0.40713 0.9258 0.0
C894 C 0.38726 0.40394 0.92721 0.0
H895 H 0.44194 0.47347 0.82987 0.0
H896 H 0.42693 0.45797 0.8591 0.0
C897 C 0.37712 0.39261 0.94036 0.0
C898 C 0.41292 0.41911 0.91193 0.0
H899 H 0.43067 0.45666 0.90343 0.0
C900 C 0.41893 0.41514 0.8951 0.0
C901 C 0.41728 0.43425 0.91516 0.0
C902 C 0.41153 0.43916 0.93346 0.0
C903 C 0.42896 0.42588 0.88108 0.0
C904 C 0.43334 0.44104 0.88428 0.0
C905 C 0.42737 0.44504 0.90116 0.0
C906 C 0.44354 0.45268 0.8695 0.0
C907 C 0.43442 0.42082 0.86258 0.0
C908 C 0.45815 0.45549 0.86646 0.0
C909 C 0.4667 0.46423 0.8497 0.0
C910 C 0.46078 0.47037 0.8358 0.0
C911 C 0.44669 0.46869 0.84014 0.0
C912 C 0.43813 0.45989 0.85686 0.0
H913 H 0.42744 0.4086 0.85981 0.0
H914 H 0.43441 0.42666 0.84809 0.0
H915 H 0.44607 0.42351 0.86559 0.0
H916 H 0.4626 0.45021 0.87633 0.0
H917 H 0.47746 0.46524 0.84677 0.0
H918 H 0.62024 0.02413 0.96654 0.0
H919 H 0.601 0.01869 0.94028 0.0
H920 H 0.59423 0.97457 0.93136 0.0
H921 H 0.61367 0.97993 0.95768 0.0
H922 H 0.59967 0.00529 0.89455 0.0
H923 H 0.55192 0.97271 0.94883 0.0
H924 H 0.56998 0.987 0.95853 0.0
H925 H 0.56767 0.9698 0.94863 0.0
C926 C 0.61478 0.0133 0.9589 0.0
C927 C 0.61847 0.00244 0.96426 0.0
C928 C 0.60378 0.01022 0.94392 0.0
C929 C 0.59613 0.99621 0.93412 0.0
C930 C 0.59999 0.98543 0.93893 0.0
H931 H 0.52006 0.9632 0.84789 0.0
H932 H 0.53732 0.96474 0.87546 0.0
C933 C 0.61114 0.98855 0.95384 0.0
C934 C 0.58404 0.993 0.91903 0.0
H935 H 0.54614 0.97751 0.91516 0.0
C936 C 0.58795 0.99912 0.89895 0.0
C937 C 0.56881 0.98488 0.92487 0.0
C938 C 0.5642 0.97819 0.94638 0.0
C939 C 0.577 0.99749 0.88455 0.0
C940 C 0.56176 0.98994 0.89067 0.0
C941 C 0.55782 0.98343 0.91059 0.0
C942 C 0.54988 0.98888 0.87655 0.0
C943 C 0.58188 0.0038 0.86285 0.0
C944 C 0.55069 0.0019 0.86893 0.0
C945 C 0.54092 0.00103 0.85321 0.0
C946 C 0.52998 0.98712 0.84513 0.0
C947 C 0.52832 0.97405 0.85403 0.0
C948 C 0.53823 0.97493 0.86964 0.0
H949 H 0.59293 0.00516 0.85876 0.0
H950 H 0.57358 0.99653 0.85083 0.0
H951 H 0.58297 0.01497 0.86222 0.0
H952 H 0.55933 0.01277 0.87446 0.0
H953 H 0.54239 0.01125 0.84659 0.0
H954 H 0.63573 0.01893 0.07443 0.0
H955 H 0.61754 0.02087 0.09671 0.0
H956 H 0.58404 0.97574 0.08026 0.0
H957 H 0.60206 0.97378 0.05768 0.0
H958 H 0.57371 0.99565 0.07722 0.0
H959 H 0.6019 0.00192 0.15367 0.0
H960 H 0.61358 0.01518 0.13431 0.0
H961 H 0.60693 0.99568 0.13023 0.0
C962 C 0.62454 0.00936 0.07575 0.0
C963 C 0.62035 0.99618 0.06437 0.0
C964 C 0.61417 0.01048 0.08851 0.0
C965 C 0.59948 0.9984 0.09029 0.0
C966 C 0.59532 0.98519 0.07911 0.0
H967 H 0.52096 0.97768 0.16218 0.0
H968 H 0.53785 0.97888 0.13446 0.0
C969 C 0.60565 0.98407 0.06629 0.0
C970 C 0.58834 0.9996 0.10347 0.0
H971 H 0.58104 0.00537 0.15373 0.0
C972 C 0.57528 0.99776 0.09396 0.0
C973 C 0.59044 0.00237 0.12529 0.0
C974 C 0.60389 0.00377 0.13655 0.0
C975 C 0.56432 0.99874 0.10568 0.0
C976 C 0.56642 0.00147 0.12749 0.0
C977 C 0.57952 0.0034 0.13695 0.0
C978 C 0.55498 0.00171 0.14117 0.0
C979 C 0.55068 0.99701 0.09462 0.0
C980 C 0.55881 0.01427 0.15378 0.0
C981 C 0.54917 0.0136 0.16961 0.0
C982 C 0.53556 0.00033 0.1732 0.0
C983 C 0.53126 0.98812 0.15958 0.0
C984 C 0.54093 0.98879 0.14375 0.0
H985 H 0.55265 0.9991 0.07755 0.0
H986 H 0.54124 0.98543 0.09668 0.0
H987 H 0.54729 0.00475 0.1013 0.0
H988 H 0.56959 0.02435 0.15205 0.0
H989 H 0.55274 0.02319 0.17983 0.0
H990 H 0.97952 0.61295 0.07535 0.0
H991 H 0.97925 0.59383 0.09792 0.0
H992 H 0.02071 0.60183 0.07049 0.0
H993 H 0.02119 0.62102 0.04823 0.0
H994 H 0.97936 0.56746 0.08611 0.0
H995 H 0.02937 0.60584 0.13352 0.0
H996 H 0.01971 0.61239 0.11722 0.0
H997 H 0.03245 0.60741 0.10573 0.0
C998 C 0.98866 0.61073 0.07428 0.0
C999 C 0.00045 0.61857 0.06011 0.0
C1000 C 0.98842 0.59975 0.0871 0.0
C1001 C 2e-05 0.59653 0.08599 0.0
C1002 C 0.01177 0.60432 0.07182 0.0
H1003 H 0.02222 0.54106 0.16019 0.0
H1004 H 0.01977 0.55408 0.13008 0.0
C1005 C 0.01204 0.61528 0.05906 0.0
C1006 C -0.00014 0.585 0.09964 0.0
H1007 H 0.01943 0.58002 0.13846 0.0
C1008 C 0.9881 0.57017 0.09758 0.0
C1009 C 0.0113 0.5886 0.11453 0.0
C1010 C 0.02386 0.60444 0.11808 0.0
C1011 C 0.98756 0.55879 0.10996 0.0
C1012 C 0.99899 0.56242 0.12488 0.0
C1013 C 0.01078 0.57723 0.1268 0.0
C1014 C 0.99856 0.5514 0.13987 0.0
C1015 C 0.97487 0.54299 0.10686 0.0
C1016 C 0.98711 0.545 0.15483 0.0
C1017 C 0.98843 0.53746 0.17196 0.0
C1018 C 0.00129 0.53632 0.17449 0.0
C1019 C 0.01212 0.54162 0.15856 0.0
C1020 C 0.01079 0.54917 0.14143 0.0
H1021 H 0.96969 0.54134 0.09109 0.0
H1022 H 0.97874 0.53489 0.10884 0.0
H1023 H 0.96609 0.54052 0.11872 0.0
H1024 H 0.97769 0.54677 0.15413 0.0
H1025 H 0.97991 0.53344 0.18399 0.0
H1026 H 0.39042 0.41689 0.04275 0.0
H1027 H 0.41081 0.4305 0.06764 0.0
H1028 H 0.40704 0.38922 0.08757 0.0
H1029 H 0.38644 0.37536 0.06269 0.0
H1030 H 0.40972 0.40835 0.12063 0.0
H1031 H 0.45366 0.43835 0.06085 0.0
H1032 H 0.43752 0.44029 0.05761 0.0
H1033 H 0.43569 0.42223 0.05463 0.0
C1034 C 0.39384 0.41063 0.05245 0.0
C1035 C 0.38682 0.395 0.0506 0.0
C1036 C 0.40561 0.41848 0.06655 0.0
C1037 C 0.41067 0.41091 0.07906 0.0
C1038 C 0.4034 0.39528 0.07784 0.0
H1039 H 0.48999 0.44917 0.15898 0.0
H1040 H 0.47279 0.43746 0.12925 0.0
C1041 C 0.39159 0.38738 0.06368 0.0
C1042 C 0.42334 0.41936 0.09375 0.0
H1043 H 0.46003 0.44717 0.09616 0.0
C1044 C 0.42074 0.41677 0.11528 0.0
C1045 C 0.43777 0.43019 0.08669 0.0
C1046 C 0.44142 0.43286 0.06367 0.0
C1047 C 0.43204 0.42506 0.13001 0.0
C1048 C 0.44626 0.43639 0.12301 0.0
C1049 C 0.44904 0.43865 0.10146 0.0
C1050 C 0.45827 0.44589 0.13808 0.0
C1051 C 0.4287 0.42158 0.15298 0.0
C1052 C 0.45626 0.45521 0.15203 0.0
C1053 C 0.46606 0.46191 0.16888 0.0
C1054 C 0.47808 0.45949 0.17193 0.0
C1055 C 0.4809 0.45133 0.15682 0.0
C1056 C 0.47103 0.44455 0.13996 0.0
H1057 H 0.41866 0.4104 0.1554 0.0
H1058 H 0.43835 0.42203 0.16119 0.0
H1059 H 0.42652 0.43001 0.16032 0.0
H1060 H 0.44661 0.45657 0.15061 0.0
H1061 H 0.46366 0.46814 0.18036 0.0
H1062 H 0.64346 0.70229 0.40505 0.0
H1063 H 0.64043 0.72016 0.42662 0.0
H1064 H 0.68525 0.75467 0.411 0.0
H1065 H 0.68845 0.73687 0.38961 0.0
H1066 H 0.67879 0.7531 0.45356 0.0
H1067 H 0.63446 0.75421 0.40628 0.0
H1068 H 0.63033 0.73591 0.41391 0.0
H1069 H 0.64559 0.74665 0.39635 0.0
C1070 C 0.65269 0.71367 0.40626 0.0
C1071 C 0.66619 0.71817 0.39559 0.0
C1072 C 0.65088 0.7239 0.41841 0.0
C1073 C 0.6625 0.73881 0.42004 0.0
C1074 C 0.67609 0.74325 0.40976 0.0
H1075 H 0.67745 0.81451 0.49671 0.0
H1076 H 0.67786 0.79982 0.46689 0.0
C1077 C 0.67791 0.73305 0.39761 0.0
C1078 C 0.6608 0.74968 0.43318 0.0
H1079 H 0.64019 0.76673 0.43933 0.0
C1080 C 0.67044 0.75618 0.45035 0.0
C1081 C 0.64984 0.75361 0.42896 0.0
C1082 C 0.63953 0.74735 0.41027 0.0
C1083 C 0.66924 0.76628 0.46373 0.0
C1084 C 0.6583 0.77024 0.45954 0.0
C1085 C 0.64865 0.76377 0.44234 0.0
C1086 C 0.65634 0.78046 0.47375 0.0
C1087 C 0.67941 0.77227 0.48263 0.0
C1088 C 0.64357 0.77486 0.48641 0.0
C1089 C 0.6432 0.78331 0.50329 0.0
C1090 C 0.65563 0.79748 0.50778 0.0
C1091 C 0.66768 0.80368 0.49365 0.0
C1092 C 0.66801 0.79523 0.47674 0.0
H1093 H 0.68492 0.76572 0.48602 0.0
H1094 H 0.6883 0.78397 0.4797 0.0
H1095 H 0.67308 0.77218 0.49674 0.0
H1096 H 0.63439 0.76353 0.48424 0.0
H1097 H 0.6337 0.77831 0.5138 0.0
H1098 H 0.2962 0.95014 0.40009 0.0
H1099 H 0.2832 0.9298 0.42513 0.0
H1100 H 0.24069 0.92012 0.39955 0.0
H1101 H 0.25349 0.94057 0.37493 0.0
H1102 H 0.24039 0.92016 0.44164 0.0
H1103 H 0.26359 0.88554 0.4131 0.0
H1104 H 0.27774 0.90411 0.42047 0.0
H1105 H 0.26555 0.90129 0.39869 0.0
C1106 C 0.28409 0.94372 0.39984 0.0
C1107 C 0.27591 0.94699 0.38544 0.0
C1108 C 0.27667 0.932 0.41403 0.0
C1109 C 0.26098 0.92322 0.41388 0.0
C1110 C 0.25281 0.92666 0.39983 0.0
H1111 H 0.19705 0.84965 0.49373 0.0
H1112 H 0.20817 0.86588 0.46307 0.0
C1113 C 0.26017 0.93841 0.38578 0.0
C1114 C 0.25297 0.91068 0.42872 0.0
H1115 H 0.25016 0.87821 0.44539 0.0
C1116 C 0.24241 0.9109 0.4423 0.0
C1117 C 0.25555 0.89857 0.42948 0.0
C1118 C 0.26611 0.89724 0.41452 0.0
C1119 C 0.23473 0.89961 0.45708 0.0
C1120 C 0.23758 0.8877 0.45816 0.0
C1121 C 0.24796 0.88733 0.4444 0.0
C1122 C 0.2309 0.87634 0.4748 0.0
C1123 C 0.22403 0.90078 0.47197 0.0
C1124 C 0.24007 0.87644 0.49096 0.0
C1125 C 0.23378 0.86726 0.5083 0.0
C1126 C 0.21821 0.85772 0.50969 0.0
C1127 C 0.20908 0.85689 0.49291 0.0
C1128 C 0.2154 0.8662 0.47554 0.0
H1129 H 0.22485 0.91183 0.47121 0.0
H1130 H 0.2124 0.89207 0.46792 0.0
H1131 H 0.22623 0.89885 0.48833 0.0
H1132 H 0.25204 0.88415 0.49064 0.0
H1133 H 0.24103 0.86804 0.52107 0.0
H1134 H 0.05466 0.31257 0.37731 0.0
H1135 H 0.07351 0.31872 0.4044 0.0
H1136 H 0.07414 0.35973 0.41789 0.0
H1137 H 0.05504 0.35356 0.39091 0.0
H1138 H 0.10232 0.34384 0.40543 0.0
H1139 H 0.06946 0.34132 0.47594 0.0
H1140 H 0.06074 0.3335 0.45097 0.0
H1141 H 0.07012 0.3533 0.45532 0.0
C1142 C 0.05865 0.32283 0.38617 0.0
C1143 C 0.05331 0.33256 0.38194 0.0
C1144 C 0.06947 0.32634 0.40161 0.0
C1145 C 0.07517 0.33964 0.4132 0.0
C1146 C 0.06972 0.3493 0.40932 0.0
H1147 H 0.13818 0.36788 0.51813 0.0
H1148 H 0.12431 0.36937 0.48809 0.0
C1149 C 0.05882 0.34576 0.39388 0.0
C1150 C 0.08713 0.34344 0.42886 0.0
H1151 H 0.09454 0.34795 0.48133 0.0
C1152 C 0.10067 0.34484 0.42203 0.0
C1153 C 0.08498 0.34485 0.45045 0.0
C1154 C 0.07052 0.34306 0.45873 0.0
C1155 C 0.11201 0.34729 0.43627 0.0
C1156 C 0.10964 0.34816 0.45792 0.0
C1157 C 0.09633 0.34731 0.46469 0.0
C1158 C 0.12014 0.34861 0.47401 0.0
C1159 C 0.12636 0.34882 0.42804 0.0
C1160 C 0.1227 0.33664 0.47575 0.0
C1161 C 0.13055 0.33574 0.49289 0.0
C1162 C 0.13591 0.34675 0.5087 0.0
C1163 C 0.13408 0.35917 0.50628 0.0
C1164 C 0.12619 0.36005 0.48914 0.0
H1165 H 0.12836 0.35259 0.41149 0.0
H1166 H 0.13611 0.35683 0.43767 0.0
H1167 H 0.12561 0.3378 0.4286 0.0
H1168 H 0.11786 0.32753 0.46449 0.0
H1169 H 0.13152 0.3259 0.49444 0.0
H1170 H 0.03658 0.31846 0.26731 0.0
H1171 H 0.05416 0.3154 0.24525 0.0
H1172 H 0.09102 0.35489 0.27297 0.0
H1173 H 0.07352 0.358 0.29525 0.0
H1174 H 0.0748 0.33551 0.21618 0.0
H1175 H 0.10298 0.32273 0.27992 0.0
H1176 H 0.08526 0.32184 0.28351 0.0
H1177 H 0.10235 0.33957 0.28346 0.0
C1178 C 0.04842 0.32654 0.26867 0.0
C1179 C 0.05367 0.33845 0.28307 0.0
C1180 C 0.05844 0.32474 0.2561 0.0
C1181 C 0.07389 0.33476 0.25778 0.0
C1182 C 0.07916 0.34686 0.27177 0.0
H1183 H 0.13817 0.34313 0.1642 0.0
H1184 H 0.12584 0.34857 0.19281 0.0
C1185 C 0.06914 0.34869 0.28434 0.0
C1186 C 0.08439 0.33269 0.24442 0.0
H1187 H 0.11297 0.3253 0.2457 0.0
C1188 C 0.08317 0.33331 0.22263 0.0
C1189 C 0.09516 0.32966 0.25292 0.0
C1190 C 0.0965 0.32827 0.27623 0.0
C1191 C 0.09251 0.33109 0.20906 0.0
C1192 C 0.1035 0.32837 0.21754 0.0
C1193 C 0.10465 0.32759 0.23933 0.0
C1194 C 0.11343 0.3258 0.2037 0.0
C1195 C 0.09038 0.33139 0.1857 0.0
C1196 C 0.11119 0.31139 0.20125 0.0
C1197 C 0.11827 0.30827 0.18497 0.0
C1198 C 0.12763 0.31954 0.17096 0.0
C1199 C 0.1309 0.33423 0.17469 0.0
C1200 C 0.12386 0.33734 0.19097 0.0
H1201 H 0.07961 0.3307 0.18177 0.0
H1202 H 0.09961 0.34197 0.17928 0.0
H1203 H 0.09072 0.32202 0.17779 0.0
H1204 H 0.10317 0.30236 0.21098 0.0
H1205 H 0.11547 0.29683 0.18234 0.0
H1206 H 0.68534 0.71912 0.28465 0.0
H1207 H 0.69358 0.73889 0.25846 0.0
H1208 H 0.6598 0.74846 0.27976 0.0
H1209 H 0.65127 0.72862 0.30535 0.0
H1210 H 0.66049 0.74758 0.23808 0.0
H1211 H 0.7183 0.7834 0.26831 0.0
H1212 H 0.71377 0.76476 0.26171 0.0
H1213 H 0.70409 0.7678 0.28284 0.0
C1214 C 0.67964 0.7254 0.28368 0.0
C1215 C 0.66765 0.72226 0.29716 0.0
C1216 C 0.68446 0.7368 0.26884 0.0
C1217 C 0.67751 0.74539 0.26743 0.0
C1218 C 0.6654 0.74207 0.28061 0.0
H1219 H 0.68704 0.8188 0.19008 0.0
H1220 H 0.68216 0.80181 0.21958 0.0
C1221 C 0.66052 0.73066 0.29526 0.0
C1222 C 0.68245 0.7576 0.25194 0.0
H1223 H 0.7124 0.79068 0.23615 0.0
C1224 C 0.67182 0.75704 0.23777 0.0
C1225 C 0.69724 0.76999 0.25156 0.0
C1226 C 0.70899 0.77165 0.26704 0.0
C1227 C 0.67559 0.76837 0.22308 0.0
C1228 C 0.69037 0.78067 0.22262 0.0
C1229 C 0.70105 0.78127 0.23669 0.0
C1230 C 0.69504 0.79251 0.20671 0.0
C1231 C 0.66382 0.76694 0.20781 0.0
C1232 C 0.70437 0.79331 0.19026 0.0
C1233 C 0.70713 0.80292 0.17352 0.0
C1234 C 0.7007 0.81201 0.17303 0.0
C1235 C 0.69217 0.81195 0.19018 0.0
C1236 C 0.6893 0.8022 0.2069 0.0
H1237 H 0.6537 0.75562 0.20794 0.0
H1238 H 0.66039 0.77515 0.21204 0.0
H1239 H 0.66838 0.76943 0.19164 0.0
H1240 H 0.70893 0.78596 0.18987 0.0
H1241 H 0.71381 0.80283 0.16051 0.0
H1242 H 0.27966 0.9728 0.27732 0.0
H1243 H 0.25902 0.95644 0.25383 0.0
H1244 H 0.26674 0.92026 0.26682 0.0
H1245 H 0.28726 0.93645 0.29045 0.0
H1246 H 0.25918 0.94074 0.21816 0.0
H1247 H 0.222 0.90214 0.27942 0.0
H1248 H 0.23805 0.92016 0.28552 0.0
H1249 H 0.24044 0.90459 0.27934 0.0
C1250 C 0.27701 0.96138 0.27508 0.0
C1251 C 0.28502 0.95589 0.28583 0.0
C1252 C 0.26519 0.95205 0.26173 0.0
C1253 C 0.26115 0.93707 0.259 0.0
C1254 C 0.26944 0.93169 0.26916 0.0
H1255 H 0.20482 0.86337 0.18001 0.0
H1256 H 0.21988 0.87973 0.20877 0.0
C1257 C 0.28125 0.941 0.2825 0.0
C1258 C 0.2485 0.92712 0.2451 0.0
H1259 H 0.21515 0.89422 0.24388 0.0
C1260 C 0.24946 0.93066 0.22379 0.0
C1261 C 0.23584 0.91401 0.25257 0.0
C1262 C 0.2339 0.91004 0.2755 0.0
C1263 C 0.23837 0.92111 0.20954 0.0
C1264 C 0.22586 0.90782 0.21692 0.0
C1265 C 0.22473 0.90444 0.23832 0.0
C1266 C 0.21446 0.89684 0.2023 0.0
C1267 C 0.24046 0.92502 0.18657 0.0
C1268 C 0.20579 0.9007 0.18991 0.0
C1269 C 0.19713 0.89135 0.17349 0.0
C1270 C 0.19694 0.87795 0.16932 0.0
C1271 C 0.20461 0.87354 0.18292 0.0
C1272 C 0.21331 0.88292 0.19929 0.0
H1273 H 0.25207 0.93399 0.18301 0.0
H1274 H 0.23778 0.91509 0.1768 0.0
H1275 H 0.23276 0.92899 0.18196 0.0
H1276 H 0.20632 0.91129 0.19228 0.0
H1277 H 0.19119 0.89495 0.16337 0.0
H1278 H 0.65733 0.92329 0.31827 0.0
H1279 H 0.66302 0.90954 0.29244 0.0
H1280 H 0.67532 0.94491 0.24788 0.0
H1281 H 0.6704 0.95916 0.27427 0.0
H1282 H 0.65112 0.89787 0.25722 0.0
H1283 H 0.71047 0.9397 0.24212 0.0
H1284 H 0.70004 0.94183 0.26314 0.0
H1285 H 0.69842 0.94697 0.23678 0.0
C1286 C 0.66131 0.92819 0.30299 0.0
C1287 C 0.66344 0.94232 0.29828 0.0
C1288 C 0.66457 0.9203 0.28822 0.0
C1289 C 0.66984 0.92624 0.26827 0.0
C1290 C 0.67172 0.94026 0.26336 0.0
H1291 H 0.66406 0.87346 0.15981 0.0
H1292 H 0.65915 0.88536 0.18922 0.0
C1293 C 0.66877 0.94835 0.27836 0.0
C1294 C 0.67282 0.91742 0.25256 0.0
H1295 H 0.69887 0.91919 0.21809 0.0
C1296 C 0.66163 0.90252 0.24881 0.0
C1297 C 0.68663 0.92332 0.24186 0.0
C1298 C 0.69962 0.93877 0.24634 0.0
C1299 C 0.66375 0.89346 0.23447 0.0
C1300 C 0.6772 0.89964 0.22283 0.0
C1301 C 0.6885 0.91445 0.22685 0.0
C1302 C 0.67962 0.8912 0.20587 0.0
C1303 C 0.65164 0.87729 0.23235 0.0
C1304 C 0.69285 0.89061 0.20518 0.0
C1305 C 0.69594 0.88421 0.18794 0.0
C1306 C 0.68581 0.87822 0.17107 0.0
C1307 C 0.67222 0.87815 0.17236 0.0
C1308 C 0.66927 0.88477 0.18938 0.0
H1309 H 0.64517 0.87312 0.24712 0.0
H1310 H 0.64368 0.8762 0.21989 0.0
H1311 H 0.65632 0.87009 0.2282 0.0
H1312 H 0.70103 0.89552 0.21768 0.0
H1313 H 0.70661 0.88468 0.18741 0.0
H1314 H 0.06835 0.71682 0.29607 0.0
H1315 H 0.08567 0.73675 0.27288 0.0
H1316 H 0.04981 0.7431 0.25178 0.0
H1317 H 0.0324 0.72329 0.27516 0.0
H1318 H 0.08415 0.73847 0.22958 0.0
H1319 H 0.08252 0.78543 0.26895 0.0
H1320 H 0.07561 0.76751 0.28117 0.0
H1321 H 0.06451 0.76997 0.26178 0.0
C1322 C 0.06413 0.72243 0.28647 0.0
C1323 C 0.04902 0.71852 0.28749 0.0
C1324 C 0.07405 0.73384 0.27328 0.0
C1325 C 0.06908 0.74159 0.26097 0.0
C1326 C 0.05393 0.73749 0.26155 0.0
H1327 H 0.10713 0.80479 0.16112 0.0
H1328 H 0.09215 0.78992 0.19083 0.0
C1329 C 0.04398 0.72607 0.27475 0.0
C1330 C 0.07968 0.7536 0.24694 0.0
H1331 H 0.09526 0.79071 0.23626 0.0
C1332 C 0.08668 0.74992 0.23114 0.0
C1333 C 0.0829 0.7685 0.24903 0.0
C1334 C 0.07611 0.77318 0.26626 0.0
C1335 C 0.09658 0.76066 0.21702 0.0
C1336 C 0.09979 0.77556 0.21905 0.0
C1337 C 0.09284 0.77929 0.23489 0.0
C1338 C 0.10976 0.78712 0.20403 0.0
C1339 C 0.10318 0.75587 0.19964 0.0
C1340 C 0.12485 0.79114 0.20237 0.0
C1341 C 0.1334 0.79956 0.18538 0.0
C1342 C 0.12697 0.80411 0.16986 0.0
C1343 C 0.1123 0.80127 0.17272 0.0
C1344 C 0.10375 0.79282 0.18969 0.0
H1345 H 0.09715 0.74355 0.19763 0.0
H1346 H 0.10289 0.76094 0.18452 0.0
H1347 H 0.11504 0.7597 0.20339 0.0
H1348 H 0.12972 0.787 0.2135 0.0
H1349 H 0.14463 0.80148 0.18358 0.0
H1350 H 0.28521 0.35253 0.28558 0.0
H1351 H 0.26493 0.34395 0.26009 0.0
H1352 H 0.25614 0.29894 0.26568 0.0
H1353 H 0.27663 0.30746 0.29134 0.0
H1354 H 0.2609 0.32565 0.2202 0.0
H1355 H 0.21536 0.2993 0.27954 0.0
H1356 H 0.234 0.3139 0.2867 0.0
H1357 H 0.23062 0.29567 0.28013 0.0
C1358 C 0.27908 0.34081 0.28129 0.0
C1359 C 0.28251 0.33066 0.29054 0.0
C1360 C 0.26749 0.33594 0.26673 0.0
C1361 C 0.25896 0.32082 0.26125 0.0
C1362 C 0.26256 0.31065 0.26991 0.0
H1363 H 0.18107 0.28441 0.17648 0.0
H1364 H 0.19829 0.28582 0.20412 0.0
C1365 C 0.27431 0.31556 0.28441 0.0
C1366 C 0.24625 0.31592 0.24659 0.0
H1367 H 0.20834 0.30112 0.24509 0.0
C1368 C 0.24938 0.3201 0.22555 0.0
C1369 C 0.23127 0.30865 0.25367 0.0
C1370 C 0.22747 0.3041 0.27625 0.0
C1371 C 0.23795 0.31757 0.21147 0.0
C1372 C 0.22305 0.31104 0.21878 0.0
C1373 C 0.2198 0.30624 0.23962 0.0
C1374 C 0.21099 0.30995 0.2051 0.0
C1375 C 0.24196 0.32214 0.18891 0.0
C1376 C 0.21195 0.32301 0.19745 0.0
C1377 C 0.20219 0.32222 0.18181 0.0
C1378 C 0.19119 0.30835 0.17371 0.0
C1379 C 0.18938 0.29522 0.18264 0.0
C1380 C 0.19925 0.29602 0.19828 0.0
H1381 H 0.25278 0.32306 0.18459 0.0
H1382 H 0.23313 0.31403 0.17812 0.0
H1383 H 0.24306 0.33321 0.18658 0.0
H1384 H 0.22077 0.33385 0.2028 0.0
H1385 H 0.20378 0.33248 0.17516 0.0
H1386 H 0.30275 0.36048 0.39509 0.0
H1387 H 0.28607 0.3644 0.41804 0.0
H1388 H 0.25427 0.31713 0.41696 0.0
H1389 H 0.27068 0.31316 0.39363 0.0
H1390 H 0.24079 0.33392 0.41173 0.0
H1391 H 0.2797 0.35455 0.47989 0.0
H1392 H 0.28716 0.36488 0.45616 0.0
H1393 H 0.28272 0.3458 0.4574 0.0
C1394 C 0.29224 0.35091 0.39986 0.0
C1395 C 0.28807 0.33649 0.3927 0.0
C1396 C 0.28274 0.35317 0.41298 0.0
C1397 C 0.269 0.34104 0.41939 0.0
C1398 C 0.26481 0.32665 0.41218 0.0
H1399 H 0.21531 0.32689 0.5257 0.0
H1400 H 0.23125 0.32782 0.49692 0.0
C1401 C 0.27423 0.32439 0.39894 0.0
C1402 C 0.25902 0.34316 0.43388 0.0
H1403 H 0.25671 0.35365 0.48389 0.0
C1404 C 0.24428 0.33834 0.42747 0.0
C1405 C 0.26362 0.3489 0.45441 0.0
C1406 C 0.27911 0.35372 0.46251 0.0
C1407 C 0.23387 0.33869 0.44127 0.0
C1408 C 0.23842 0.34419 0.46188 0.0
C1409 C 0.2533 0.3495 0.46802 0.0
C1410 C 0.22766 0.34298 0.47816 0.0
C1411 C 0.21794 0.33253 0.43404 0.0
C1412 C 0.22007 0.35097 0.47698 0.0
C1413 C 0.21079 0.35034 0.49348 0.0
C1414 C 0.20921 0.34188 0.51135 0.0
C1415 C 0.21647 0.33359 0.51213 0.0
C1416 C 0.22558 0.33414 0.49573 0.0
H1417 H 0.21569 0.32652 0.41881 0.0
H1418 H 0.20999 0.3248 0.44589 0.0
H1419 H 0.21575 0.34185 0.43215 0.0
H1420 H 0.22166 0.358 0.46364 0.0
H1421 H 0.20532 0.35685 0.49264 0.0
H1422 H 0.6523 0.95503 0.41359 0.0
H1423 H 0.65054 0.93645 0.43856 0.0
H1424 H 0.68658 0.93502 0.40683 0.0
H1425 H 0.68873 0.95391 0.3823 0.0
H1426 H 0.64421 0.90794 0.43174 0.0
H1427 H 0.70088 0.94172 0.46668 0.0
H1428 H 0.69279 0.94971 0.45 0.0
H1429 H 0.70101 0.93962 0.43876 0.0
C1430 C 0.65997 0.95089 0.41212 0.0
C1431 C 0.67075 0.95603 0.39613 0.0
C1432 C 0.6589 0.94022 0.4263 0.0
C1433 C 0.66854 0.93447 0.42469 0.0
C1434 C 0.67925 0.93954 0.40866 0.0
H1435 H 0.65352 0.85592 0.49737 0.0
H1436 H 0.65561 0.87178 0.46766 0.0
C1437 C 0.68045 0.95032 0.39463 0.0
C1438 C 0.6673 0.92312 0.43972 0.0
H1439 H 0.68675 0.91652 0.47696 0.0
C1440 C 0.6535 0.90978 0.44163 0.0
C1441 C 0.67944 0.92559 0.45262 0.0
C1442 C 0.69432 0.93998 0.4521 0.0
C1443 C 0.65144 0.89895 0.4564 0.0
C1444 C 0.6636 0.90143 0.46925 0.0
C1445 C 0.67748 0.9146 0.46695 0.0
C1446 C 0.66189 0.89141 0.48674 0.0
C1447 C 0.63614 0.88526 0.45871 0.0
C1448 C 0.665 0.89725 0.50716 0.0
C1449 C 0.66409 0.88838 0.52393 0.0
C1450 C 0.65984 0.87333 0.52081 0.0
C1451 C 0.65673 0.86743 0.5003 0.0
C1452 C 0.65778 0.87643 0.48336 0.0
H1453 H 0.62735 0.8865 0.45062 0.0
H1454 H 0.63624 0.87551 0.45174 0.0
H1455 H 0.63309 0.88287 0.4755 0.0
H1456 H 0.66829 0.9088 0.51012 0.0
H1457 H 0.66706 0.8935 0.53935 0.0
H1458 H 0.05597 0.74891 0.38049 0.0
H1459 H 0.07596 0.76202 0.40612 0.0
H1460 H 0.07271 0.72049 0.42345 0.0
H1461 H 0.05252 0.70715 0.39785 0.0
H1462 H 0.07473 0.7385 0.45768 0.0
H1463 H 0.1191 0.77077 0.39935 0.0
H1464 H 0.10283 0.77253 0.39647 0.0
H1465 H 0.10131 0.75469 0.3923 0.0
C1466 C 0.05942 0.7425 0.38978 0.0
C1467 C 0.05267 0.72696 0.38699 0.0
C1468 C 0.07096 0.75005 0.40431 0.0
C1469 C 0.07606 0.74228 0.4163 0.0
C1470 C 0.06903 0.72671 0.41415 0.0
H1471 H 0.15491 0.78059 0.49776 0.0
H1472 H 0.13768 0.76829 0.46824 0.0
C1473 C 0.05746 0.71911 0.39957 0.0
C1474 C 0.08854 0.75044 0.43136 0.0
H1475 H 0.125 0.77862 0.43511 0.0
C1476 C 0.08575 0.74719 0.45274 0.0
C1477 C 0.10297 0.76164 0.42483 0.0
C1478 C 0.10682 0.76504 0.40197 0.0
C1479 C 0.09686 0.75521 0.46784 0.0
C1480 C 0.11104 0.76689 0.46139 0.0
C1481 C 0.11403 0.7698 0.43998 0.0
C1482 C 0.12275 0.77626 0.47688 0.0
C1483 C 0.09333 0.75114 0.49063 0.0
C1484 C 0.12044 0.78541 0.49075 0.0
C1485 C 0.13026 0.79249 0.50745 0.0
C1486 C 0.1426 0.79056 0.51054 0.0
C1487 C 0.14556 0.78236 0.49565 0.0
C1488 C 0.13569 0.77525 0.4789 0.0
H1489 H 0.08333 0.73985 0.49254 0.0
H1490 H 0.10296 0.75147 0.49874 0.0
H1491 H 0.09102 0.75932 0.49846 0.0
H1492 H 0.11064 0.78652 0.4892 0.0
H1493 H 0.1278 0.79886 0.5186 0.0
H1494 H 0.30959 0.03181 0.73868 0.0
H1495 H 0.30582 0.04836 0.76219 0.0
H1496 H 0.35005 0.08455 0.74763 0.0
H1497 H 0.35389 0.06817 0.72404 0.0
H1498 H 0.32292 0.06435 0.7974 0.0
H1499 H 0.32331 0.10251 0.73683 0.0
H1500 H 0.32084 0.08443 0.73052 0.0
H1501 H 0.33921 0.1 0.73586 0.0
C1502 C 0.31853 0.04328 0.74053 0.0
C1503 C 0.33202 0.0487 0.72944 0.0
C1504 C 0.31633 0.05272 0.7539 0.0
C1505 C 0.32754 0.06774 0.75628 0.0
C1506 C 0.34113 0.07309 0.74561 0.0
H1507 H 0.34629 0.14241 0.83465 0.0
H1508 H 0.34482 0.12578 0.80623 0.0
C1509 C 0.34335 0.06367 0.73228 0.0
C1510 C 0.32528 0.07774 0.77054 0.0
H1511 H 0.32513 0.1105 0.77242 0.0
C1512 C 0.32322 0.07435 0.79194 0.0
C1513 C 0.3257 0.09077 0.76331 0.0
C1514 C 0.32724 0.09461 0.74035 0.0
C1515 C 0.32214 0.08395 0.80647 0.0
C1516 C 0.32281 0.09713 0.79931 0.0
C1517 C 0.32458 0.10038 0.77784 0.0
C1518 C 0.32255 0.10804 0.81414 0.0
C1519 C 0.3209 0.08019 0.82947 0.0
C1520 C 0.31021 0.10386 0.8273 0.0
C1521 C 0.31102 0.11333 0.84354 0.0
C1522 C 0.32413 0.1272 0.84674 0.0
C1523 C 0.336 0.13185 0.83248 0.0
C1524 C 0.33521 0.12233 0.8163 0.0
H1525 H 0.32394 0.07157 0.83269 0.0
H1526 H 0.32824 0.09027 0.83903 0.0
H1527 H 0.30918 0.07577 0.83465 0.0
H1528 H 0.3002 0.09301 0.82557 0.0
H1529 H 0.30166 0.10955 0.85419 0.0
H1530 H 0.9186 0.2742 0.70837 0.0
H1531 H 0.90597 0.25469 0.73442 0.0
H1532 H 0.94846 0.26109 0.75484 0.0
H1533 H 0.96132 0.28078 0.72882 0.0
H1534 H 0.90687 0.22775 0.73841 0.0
H1535 H 0.92831 0.26424 0.80923 0.0
H1536 H 0.92926 0.27157 0.78336 0.0
H1537 H 0.94219 0.26576 0.79089 0.0
C1538 C 0.92533 0.27158 0.71847 0.0
C1539 C 0.94102 0.27914 0.71653 0.0
C1540 C 0.91805 0.26036 0.73329 0.0
C1541 C 0.92628 0.2565 0.74658 0.0
C1542 C 0.94193 0.26403 0.74485 0.0
H1543 H 0.88924 0.17982 0.83094 0.0
H1544 H 0.90155 0.19617 0.80091 0.0
C1545 C 0.94925 0.27528 0.72997 0.0
C1546 C 0.91833 0.24457 0.76223 0.0
H1547 H 0.91281 0.23844 0.81478 0.0
C1548 C 0.90821 0.23003 0.75513 0.0
C1549 C 0.92006 0.24765 0.78398 0.0
C1550 C 0.93045 0.26316 0.79243 0.0
C1551 C 0.89963 0.2185 0.76927 0.0
C1552 C 0.90131 0.22162 0.79099 0.0
C1553 C 0.91158 0.23611 0.79807 0.0
C1554 C 0.89215 0.21027 0.80681 0.0
C1555 C 0.88855 0.20318 0.76091 0.0
C1556 C 0.88251 0.21257 0.81968 0.0
C1557 C 0.87549 0.20328 0.83671 0.0
C1558 C 0.87804 0.19155 0.84127 0.0
C1559 C 0.88695 0.18867 0.82761 0.0
C1560 C 0.89402 0.19802 0.81052 0.0
H1561 H 0.88671 0.20326 0.74378 0.0
H1562 H 0.89282 0.19551 0.76391 0.0
H1563 H 0.87764 0.19868 0.76906 0.0
H1564 H 0.88089 0.22194 0.81703 0.0
H1565 H 0.86863 0.2057 0.84694 0.0
H1566 H 0.72333 0.64983 0.719 0.0
H1567 H 0.74313 0.65818 0.74511 0.0
H1568 H 0.74206 0.6987 0.75472 0.0
H1569 H 0.72202 0.69038 0.72855 0.0
H1570 H 0.77174 0.68509 0.74332 0.0
H1571 H 0.73922 0.68219 0.81458 0.0
H1572 H 0.7302 0.67272 0.79046 0.0
H1573 H 0.73848 0.69258 0.79266 0.0
C1574 C 0.72716 0.66047 0.72675 0.0
C1575 C 0.72104 0.66943 0.72166 0.0
C1576 C 0.73854 0.66524 0.74163 0.0
C1577 C 0.74404 0.67903 0.75184 0.0
C1578 C 0.73785 0.68794 0.74714 0.0
H1579 H 0.80692 0.70582 0.8573 0.0
H1580 H 0.79362 0.70889 0.82782 0.0
C1581 C 0.7264 0.68316 0.73219 0.0
C1582 C 0.75643 0.68396 0.76711 0.0
H1583 H 0.76409 0.68826 0.81949 0.0
C1584 C 0.77016 0.686 0.75997 0.0
C1585 C 0.75437 0.68528 0.78874 0.0
C1586 C 0.73977 0.68301 0.79722 0.0
C1587 C 0.78168 0.68869 0.77401 0.0
C1588 C 0.77929 0.6891 0.79575 0.0
C1589 C 0.76589 0.68793 0.8028 0.0
C1590 C 0.78962 0.68886 0.81156 0.0
C1591 C 0.79618 0.69076 0.76545 0.0
C1592 C 0.79208 0.67679 0.81193 0.0
C1593 C 0.79957 0.67495 0.82875 0.0
C1594 C 0.80469 0.68513 0.84564 0.0
C1595 C 0.803 0.69771 0.84462 0.0
C1596 C 0.79544 0.69951 0.82778 0.0
H1597 H 0.79826 0.69529 0.7493 0.0
H1598 H 0.80582 0.69837 0.77555 0.0
H1599 H 0.79552 0.67977 0.76475 0.0
H1600 H 0.78739 0.66824 0.79984 0.0
H1601 H 0.80037 0.66498 0.82915 0.0
H1602 H 0.73274 0.69052 0.61896 0.0
H1603 H 0.74925 0.68635 0.596 0.0
H1604 H 0.71774 0.639 0.5965 0.0
H1605 H 0.70099 0.64312 0.61878 0.0
H1606 H 0.76312 0.67068 0.60255 0.0
H1607 H 0.72449 0.64637 0.53479 0.0
H1608 H 0.72094 0.6555 0.55627 0.0
H1609 H 0.7166 0.63647 0.55865 0.0
C1610 C 0.72926 0.67924 0.61395 0.0
C1611 C 0.71551 0.66717 0.62048 0.0
C1612 C 0.73873 0.67687 0.60092 0.0
C1613 C 0.73464 0.66239 0.59428 0.0
C1614 C 0.72096 0.6503 0.60097 0.0
H1615 H 0.77766 0.6273 0.51397 0.0
H1616 H 0.76412 0.63021 0.54348 0.0
C1617 C 0.71142 0.65268 0.61376 0.0
C1618 C 0.74478 0.6599 0.58065 0.0
H1619 H 0.74658 0.64489 0.53373 0.0
C1620 C 0.75952 0.66507 0.58748 0.0
C1621 C 0.74007 0.65258 0.56097 0.0
C1622 C 0.72471 0.64754 0.55212 0.0
C1623 C 0.76962 0.66307 0.57519 0.0
C1624 C 0.76484 0.65568 0.55565 0.0
C1625 C 0.75011 0.65038 0.5489 0.0
C1626 C 0.77514 0.65422 0.54111 0.0
C1627 C 0.78532 0.6688 0.58309 0.0
C1628 C 0.78608 0.66682 0.5305 0.0
C1629 C 0.79374 0.66518 0.51363 0.0
C1630 C 0.7906 0.65092 0.50721 0.0
C1631 C 0.78042 0.63842 0.51881 0.0
C1632 C 0.77264 0.64006 0.53556 0.0
H1633 H 0.78641 0.6716 0.60008 0.0
H1634 H 0.78876 0.66041 0.5803 0.0
H1635 H 0.79316 0.67903 0.57439 0.0
H1636 H 0.78801 0.67782 0.5344 0.0
H1637 H 0.8015 0.67496 0.50484 0.0
H1638 H 0.35759 0.06015 0.62655 0.0
H1639 H 0.36583 0.08155 0.60315 0.0
H1640 H 0.32115 0.07464 0.60299 0.0
H1641 H 0.31294 0.05358 0.62654 0.0
H1642 H 0.35687 0.08469 0.564 0.0
H1643 H 0.3456 0.11785 0.62147 0.0
H1644 H 0.34585 0.10122 0.62863 0.0
H1645 H 0.32941 0.09984 0.61687 0.0
C1646 C 0.3495 0.06311 0.62134 0.0
C1647 C 0.33465 0.05526 0.6286 0.0
C1648 C 0.35424 0.07538 0.60807 0.0
C1649 C 0.34421 0.07998 0.60186 0.0
C1650 C 0.32921 0.07163 0.60815 0.0
H1651 H 0.3351 0.13462 0.51337 0.0
H1652 H 0.33338 0.1188 0.54275 0.0
C1653 C 0.3245 0.05949 0.62148 0.0
C1654 C 0.34923 0.0934 0.58869 0.0
H1655 H 0.34839 0.12578 0.58558 0.0
C1656 C 0.35528 0.09381 0.56885 0.0
C1657 C 0.34727 0.10538 0.59512 0.0
C1658 C 0.34183 0.10615 0.61678 0.0
C1659 C 0.35859 0.10543 0.55481 0.0
C1660 C 0.35588 0.11696 0.56087 0.0
C1661 C 0.35041 0.11688 0.58099 0.0
C1662 C 0.3573 0.12833 0.54574 0.0
C1663 C 0.3643 0.10495 0.53322 0.0
C1664 C 0.37136 0.13938 0.53841 0.0
C1665 C 0.37237 0.14856 0.52179 0.0
C1666 C 0.35932 0.14671 0.51225 0.0
C1667 C 0.34531 0.1363 0.52056 0.0
C1668 C 0.34432 0.12725 0.53725 0.0
H1669 H 0.36424 0.09439 0.53018 0.0
H1670 H 0.35736 0.10622 0.52109 0.0
H1671 H 0.37594 0.11439 0.53154 0.0
H1672 H 0.3815 0.14042 0.54488 0.0
H1673 H 0.38328 0.15637 0.51546 0.0
H1674 H 0.95258 0.26631 0.62203 0.0
H1675 H 0.93123 0.24906 0.60023 0.0
H1676 H 0.92075 0.28362 0.58921 0.0
H1677 H 0.94221 0.301 0.61057 0.0
H1678 H 0.901 0.23945 0.60591 0.0
H1679 H 0.92161 0.26902 0.5303 0.0
H1680 H 0.93362 0.27325 0.55284 0.0
H1681 H 0.92116 0.28048 0.55112 0.0
C1682 C 0.94584 0.27029 0.61473 0.0
C1683 C 0.94914 0.28505 0.6179 0.0
C1684 C 0.9336 0.2604 0.6024 0.0
C1685 C 0.92448 0.26509 0.59298 0.0
C1686 C 0.9278 0.27984 0.59603 0.0
H1687 H 0.85183 0.22212 0.50361 0.0
H1688 H 0.86628 0.23733 0.53369 0.0
C1689 C 0.94006 0.28976 0.60825 0.0
C1690 C 0.91141 0.25453 0.58014 0.0
H1691 H 0.89678 0.24875 0.53083 0.0
C1692 C 0.90005 0.24147 0.58949 0.0
C1693 C 0.91019 0.25721 0.55875 0.0
C1694 C 0.92235 0.27067 0.54757 0.0
C1695 C 0.88745 0.23103 0.57798 0.0
C1696 C 0.88631 0.23369 0.55658 0.0
C1697 C 0.89758 0.24683 0.54734 0.0
C1698 C 0.87427 0.22258 0.54275 0.0
C1699 C 0.87548 0.21729 0.58881 0.0
C1700 C 0.8733 0.20884 0.53862 0.0
C1701 C 0.86499 0.20011 0.5215 0.0
C1702 C 0.85768 0.20509 0.50815 0.0
C1703 C 0.8574 0.21806 0.51363 0.0
C1704 C 0.86568 0.22677 0.53076 0.0
H1705 H 0.8757 0.219 0.60604 0.0
H1706 H 0.86419 0.21406 0.58276 0.0
H1707 H 0.87744 0.20789 0.5858 0.0
H1708 H 0.88002 0.2055 0.54743 0.0
H1709 H 0.8656 0.19028 0.51752 0.0
H1710 H 0.34561 0.2963 0.61576 0.0
H1711 H 0.35336 0.28413 0.58965 0.0
H1712 H 0.32192 0.24116 0.6153 0.0
H1713 H 0.31383 0.25307 0.64087 0.0
H1714 H 0.3658 0.26666 0.59515 0.0
H1715 H 0.31138 0.23417 0.55403 0.0
H1716 H 0.31517 0.24902 0.57227 0.0
H1717 H 0.30993 0.23073 0.58166 0.0
C1718 C 0.34023 0.28425 0.61566 0.0
C1719 C 0.32898 0.27566 0.63027 0.0
C1720 C 0.34471 0.27732 0.6008 0.0
C1721 C 0.33803 0.26171 0.6003 0.0
C1722 C 0.32694 0.25317 0.615 0.0
H1723 H 0.34993 0.19925 0.52193 0.0
H1724 H 0.34502 0.21093 0.55226 0.0
C1725 C 0.32237 0.26004 0.62969 0.0
C1726 C 0.34285 0.25431 0.58476 0.0
H1727 H 0.32986 0.22781 0.54602 0.0
C1728 C 0.35796 0.25821 0.58435 0.0
C1729 C 0.3326 0.24325 0.5707 0.0
C1730 C 0.3164 0.23914 0.5695 0.0
C1731 C 0.36305 0.25124 0.57037 0.0
C1732 C 0.35276 0.24014 0.55647 0.0
C1733 C 0.33766 0.23618 0.55695 0.0
C1734 C 0.35755 0.23334 0.54003 0.0
C1735 C 0.37935 0.25573 0.57062 0.0
C1736 C 0.36639 0.24213 0.5234 0.0
C1737 C 0.36908 0.2355 0.50617 0.0
C1738 C 0.36303 0.21998 0.5053 0.0
C1739 C 0.35481 0.21125 0.5224 0.0
C1740 C 0.35197 0.21789 0.53961 0.0
H1741 H 0.38496 0.2616 0.5854 0.0
H1742 H 0.38064 0.24583 0.56862 0.0
H1743 H 0.38514 0.2634 0.55739 0.0
H1744 H 0.37059 0.25402 0.52326 0.0
H1745 H 0.37542 0.24243 0.49309 0.0
H1746 H 0.6992 0.04835 0.60013 0.0
H1747 H 0.71707 0.06689 0.57568 0.0
H1748 H 0.75365 0.06874 0.61039 0.0
H1749 H 0.73588 0.04988 0.63439 0.0
H1750 H 0.73943 0.09546 0.58268 0.0
H1751 H 0.76306 0.06171 0.55169 0.0
H1752 H 0.74635 0.05375 0.56746 0.0
H1753 H 0.76449 0.06413 0.57962 0.0
C1754 C 0.71105 0.05258 0.60239 0.0
C1755 C 0.71613 0.04754 0.61904 0.0
C1756 C 0.72124 0.06323 0.58849 0.0
C1757 C 0.73668 0.06907 0.59106 0.0
C1758 C 0.74178 0.06415 0.60781 0.0
H1759 H 0.80216 0.14696 0.51734 0.0
H1760 H 0.78833 0.13141 0.54747 0.0
C1761 C 0.7316 0.05338 0.62155 0.0
C1762 C 0.74741 0.08033 0.57622 0.0
H1763 H 0.77445 0.08666 0.54044 0.0
C1764 C 0.74713 0.09358 0.57347 0.0
C1765 C 0.75742 0.07782 0.56423 0.0
C1766 C 0.7578 0.06353 0.56571 0.0
C1767 C 0.75635 0.10423 0.55865 0.0
C1768 C 0.76631 0.10168 0.54662 0.0
C1769 C 0.76688 0.08864 0.54982 0.0
C1770 C 0.77496 0.11141 0.52893 0.0
C1771 C 0.75488 0.11779 0.55537 0.0
C1772 C 0.77228 0.10524 0.50871 0.0
C1773 C 0.78023 0.11395 0.4917 0.0
C1774 C 0.79101 0.12914 0.49441 0.0
C1775 C 0.79387 0.13532 0.51475 0.0
C1776 C 0.78589 0.1265 0.53191 0.0
H1777 H 0.74472 0.11665 0.56303 0.0
H1778 H 0.7648 0.12773 0.56216 0.0
H1779 H 0.75442 0.1198 0.5384 0.0
H1780 H 0.76398 0.09361 0.50606 0.0
H1781 H 0.77804 0.10868 0.47639 0.0
H1782 H 0.94563 0.64703 0.61784 0.0
H1783 H 0.92556 0.64007 0.59204 0.0
H1784 H 0.92286 0.67874 0.60961 0.0
H1785 H 0.94268 0.68573 0.63534 0.0
H1786 H 0.89466 0.6518 0.60738 0.0
H1787 H 0.92921 0.66139 0.53594 0.0
H1788 H 0.92982 0.64923 0.55528 0.0
H1789 H 0.93742 0.66864 0.56136 0.0
C1790 C 0.94085 0.65412 0.61609 0.0
C1791 C 0.94583 0.66697 0.62865 0.0
C1792 C 0.92938 0.65012 0.60135 0.0
C1793 C 0.92276 0.65892 0.59889 0.0
C1794 C 0.92777 0.67176 0.61131 0.0
H1795 H 0.87414 0.66822 0.4985 0.0
H1796 H 0.8904 0.67118 0.52808 0.0
C1797 C 0.93919 0.67577 0.62596 0.0
C1798 C 0.91063 0.65496 0.5834 0.0
H1799 H 0.90368 0.65308 0.53089 0.0
C1800 C 0.89656 0.65195 0.59064 0.0
C1801 C 0.91322 0.65528 0.56161 0.0
C1802 C 0.92824 0.65891 0.55296 0.0
C1803 C 0.88507 0.64949 0.57662 0.0
C1804 C 0.88772 0.64998 0.55484 0.0
C1805 C 0.90169 0.6527 0.54763 0.0
C1806 C 0.87657 0.64859 0.53911 0.0
C1807 C 0.87037 0.64692 0.58514 0.0
C1808 C 0.86311 0.63504 0.53595 0.0
C1809 C 0.85372 0.63336 0.51906 0.0
C1810 C 0.85776 0.64517 0.50507 0.0
C1811 C 0.87079 0.65895 0.50904 0.0
C1812 C 0.8801 0.66063 0.52586 0.0
H1813 H 0.871 0.64939 0.6022 0.0
H1814 H 0.86683 0.65395 0.57678 0.0
H1815 H 0.86162 0.63507 0.58256 0.0
H1816 H 0.86025 0.62556 0.54586 0.0
H1817 H 0.84384 0.62257 0.51616 0.0
H1818 H 0.93312 0.64569 0.7228 0.0
H1819 H 0.91684 0.64991 0.74607 0.0
H1820 H 0.95373 0.69357 0.76192 0.0
H1821 H 0.97016 0.6894 0.73878 0.0
H1822 H 0.93703 0.67701 0.79651 0.0
H1823 H 0.90008 0.67744 0.73407 0.0
H1824 H 0.902 0.66122 0.73365 0.0
H1825 H 0.91803 0.67926 0.72859 0.0
C1826 C 0.9378 0.65617 0.7313 0.0
C1827 C 0.95291 0.66724 0.72888 0.0
C1828 C 0.92844 0.65861 0.74444 0.0
C1829 C 0.93401 0.67218 0.75532 0.0
C1830 C 0.94919 0.68308 0.75346 0.0
H1831 H 0.89328 0.70164 0.84986 0.0
H1832 H 0.90964 0.70191 0.82189 0.0
C1833 C 0.95856 0.68066 0.7403 0.0
C1834 C 0.92404 0.67483 0.76906 0.0
H1835 H 0.89188 0.67635 0.76929 0.0
C1836 C 0.92725 0.67703 0.79056 0.0
C1837 C 0.91129 0.67485 0.76119 0.0
C1838 C 0.90768 0.6732 0.73809 0.0
C1839 C 0.91775 0.67872 0.80457 0.0
C1840 C 0.90487 0.67851 0.79675 0.0
C1841 C 0.90178 0.67655 0.7752 0.0
C1842 C 0.8941 0.6795 0.81101 0.0
C1843 C 0.9213 0.68016 0.8277 0.0
C1844 C 0.87961 0.66718 0.81323 0.0
C1845 C 0.87021 0.66704 0.82906 0.0
C1846 C 0.87517 0.67924 0.84291 0.0
C1847 C 0.88924 0.69202 0.83955 0.0
C1848 C 0.89861 0.69217 0.82367 0.0
H1849 H 0.92966 0.67684 0.83148 0.0
H1850 H 0.92599 0.69195 0.83268 0.0
H1851 H 0.91103 0.67318 0.837 0.0
H1852 H 0.87591 0.65732 0.80353 0.0
H1853 H 0.85949 0.65698 0.83136 0.0
H1854 H 0.30423 0.27561 0.73724 0.0
H1855 H 0.29954 0.25464 0.75954 0.0
H1856 H 0.34468 0.26423 0.74918 0.0
H1857 H 0.34944 0.28512 0.72668 0.0
H1858 H 0.32209 0.2335 0.74375 0.0
H1859 H 0.31625 0.25746 0.819 0.0
H1860 H 0.30464 0.25705 0.79783 0.0
H1861 H 0.32461 0.26871 0.79605 0.0
C1862 C 0.31321 0.27335 0.73988 0.0
C1863 C 0.32723 0.28206 0.73028 0.0
C1864 C 0.31051 0.26137 0.75261 0.0
C1865 C 0.3218 0.25796 0.75606 0.0
C1866 C 0.33583 0.26669 0.74665 0.0
H1867 H 0.34044 0.20185 0.82942 0.0
H1868 H 0.33765 0.21506 0.80001 0.0
C1869 C 0.33854 0.27867 0.73392 0.0
C1870 C 0.31902 0.24525 0.76942 0.0
H1871 H 0.31235 0.23317 0.81991 0.0
C1872 C 0.31987 0.23335 0.7604 0.0
C1873 C 0.31604 0.24508 0.79106 0.0
C1874 C 0.31543 0.25779 0.80167 0.0
C1875 C 0.31799 0.22132 0.77255 0.0
C1876 C 0.31544 0.22136 0.79431 0.0
C1877 C 0.31419 0.23308 0.80318 0.0
C1878 C 0.31544 0.21025 0.80871 0.0
C1879 C 0.31877 0.20871 0.76197 0.0
C1880 C 0.3037 0.20272 0.82304 0.0
C1881 C 0.30532 0.19521 0.83996 0.0
C1882 C 0.31872 0.19514 0.84283 0.0
C1883 C 0.3299 0.20151 0.82744 0.0
C1884 C 0.32831 0.20909 0.81058 0.0
H1885 H 0.31558 0.2077 0.74517 0.0
H1886 H 0.33044 0.21099 0.76275 0.0
H1887 H 0.31136 0.1979 0.76977 0.0
H1888 H 0.29368 0.20348 0.82189 0.0
H1889 H 0.29653 0.19035 0.8516 0.0
H1890 H 0.72515 0.08064 0.70892 0.0
H1891 H 0.74498 0.09345 0.73483 0.0
H1892 H 0.73755 0.05116 0.75695 0.0
H1893 H 0.7175 0.03812 0.73105 0.0
H1894 H 0.74052 0.07107 0.78902 0.0
H1895 H 0.78684 0.09831 0.73176 0.0
H1896 H 0.77166 0.10151 0.72674 0.0
H1897 H 0.76858 0.0829 0.72479 0.0
C1898 C 0.72765 0.074 0.7193 0.0
C1899 C 0.71975 0.05832 0.7178 0.0
C1900 C 0.7391 0.08137 0.734 0.0
C1901 C 0.74297 0.07327 0.74744 0.0
C1902 C 0.73483 0.05762 0.74651 0.0
H1903 H 0.82029 0.11099 0.83213 0.0
H1904 H 0.80329 0.09796 0.80262 0.0
C1905 C 0.72335 0.05019 0.73176 0.0
C1906 C 0.75528 0.08121 0.76281 0.0
H1907 H 0.79238 0.1076 0.767 0.0
C1908 C 0.75189 0.07896 0.78422 0.0
C1909 C 0.77014 0.09134 0.75648 0.0
C1910 C 0.77459 0.09358 0.73369 0.0
C1911 C 0.76284 0.087 0.79949 0.0
C1912 C 0.7775 0.09771 0.79314 0.0
C1913 C 0.78107 0.09954 0.77177 0.0
C1914 C 0.7891 0.10725 0.80866 0.0
C1915 C 0.75863 0.08401 0.82233 0.0
C1916 C 0.78715 0.11734 0.82103 0.0
C1917 C 0.79684 0.1248 0.83772 0.0
C1918 C 0.80868 0.12235 0.84228 0.0
C1919 C 0.81132 0.11314 0.82887 0.0
C1920 C 0.80157 0.10563 0.81213 0.0
H1921 H 0.74821 0.07309 0.82457 0.0
H1922 H 0.76776 0.08416 0.83159 0.0
H1923 H 0.75669 0.09286 0.82864 0.0
H1924 H 0.77775 0.11894 0.81832 0.0
H1925 H 0.79465 0.13195 0.84772 0.0
H1926 H 0.05306 0.3582 0.00433 0.0
H1927 H 0.07264 0.35267 0.01391 0.0
H1928 H 0.0421 0.31872 0.05632 0.0
H1929 H 0.02263 0.32429 0.0471 0.0
H1930 H 0.0688 0.33898 0.07476 0.0
H1931 H 0.07872 0.31733 0.0003 0.0
H1932 H 0.07954 0.33497 -0.00159 0.0
H1933 H 0.06214 0.31852 0.0048 0.0
C1934 C 0.05048 0.34943 0.01548 0.0
C1935 C 0.03631 0.34173 0.02503 0.0
C1936 C 0.06165 0.34621 0.02084 0.0
C1937 C 0.05879 0.33518 0.03568 0.0
C1938 C 0.04454 0.32724 0.04478 0.0
H1939 H 0.10727 0.29531 0.08612 0.0
H1940 H 0.0915 0.30087 0.06376 0.0
C1941 C 0.03342 0.33046 0.0395 0.0
C1942 C 0.0709 0.33272 0.04327 0.0
H1943 H 0.09532 0.32135 0.02852 0.0
C1944 C 0.0746 0.33514 0.06463 0.0
C1945 C 0.07838 0.32761 0.03004 0.0
C1946 C 0.07445 0.32431 0.00713 0.0
C1947 C 0.08555 0.3326 0.07317 0.0
C1948 C 0.09324 0.32776 0.05992 0.0
C1949 C 0.08953 0.32525 0.03855 0.0
C1950 C 0.10471 0.32476 0.06856 0.0
C1951 C 0.08855 0.3348 0.09646 0.0
C1952 C 0.11781 0.33641 0.07759 0.0
C1953 C 0.12677 0.33326 0.09036 0.0
C1954 C 0.12285 0.31841 0.09411 0.0
C1955 C 0.11061 0.30685 0.0833 0.0
C1956 C 0.10157 0.31001 0.07061 0.0
H1957 H 0.07954 0.33545 0.10501 0.0
H1958 H 0.08963 0.32556 0.10313 0.0
H1959 H 0.09923 0.34538 0.0993 0.0
H1960 H 0.1205 0.34787 0.076 0.0
H1961 H 0.13616 0.34235 0.09854 0.0
H1962 H 0.66711 0.70051 0.02663 0.0
H1963 H 0.67686 0.72636 0.03802 0.0
H1964 H 0.63418 0.72227 0.02467 0.0
H1965 H 0.62426 0.69642 0.01347 0.0
H1966 H 0.67839 0.7515 0.01641 0.0
H1967 H 0.64208 0.73486 0.08709 0.0
H1968 H 0.64519 0.72182 0.07229 0.0
H1969 H 0.63253 0.72742 0.0626 0.0
C1970 C 0.65979 0.7051 0.02606 0.0
C1971 C 0.64485 0.69632 0.01934 0.0
C1972 C 0.66541 0.7199 0.03249 0.0
C1973 C 0.65618 0.72615 0.03239 0.0
C1974 C 0.64141 0.71758 0.02514 0.0
H1975 H 0.67189 0.80835 0.0931 0.0
H1976 H 0.66163 0.78742 0.06795 0.0
C1977 C 0.63578 0.7028 0.01872 0.0
C1978 C 0.66183 0.74143 0.04069 0.0
H1979 H 0.65752 0.76053 0.08115 0.0
C1980 C 0.67379 0.75352 0.03049 0.0
C1981 C 0.65575 0.744 0.05901 0.0
C1982 C 0.64326 0.73136 0.07104 0.0
C1983 C 0.67994 0.76815 0.03829 0.0
C1984 C 0.67409 0.77067 0.0569 0.0
C1985 C 0.66188 0.75861 0.06675 0.0
C1986 C 0.68136 0.78531 0.06785 0.0
C1987 C 0.69266 0.78077 0.0266 0.0
C1988 C 0.69599 0.79134 0.07557 0.0
C1989 C 0.7018 0.80323 0.08981 0.0
C1990 C 0.6931 0.8093 0.09651 0.0
C1991 C 0.67886 0.80398 0.08777 0.0
C1992 C 0.673 0.79201 0.07356 0.0
H1993 H 0.69251 0.77793 0.00974 0.0
H1994 H 0.6922 0.79118 0.02793 0.0
H1995 H 0.70344 0.78291 0.03336 0.0
H1996 H 0.70251 0.78615 0.07182 0.0
H1997 H 0.7127 0.80701 0.09672 0.0
H1998 H 0.30752 0.93897 0.00477 0.0
H1999 H 0.28188 0.92341 0.01704 0.0
H2000 H 0.28008 0.96278 0.03344 0.0
H2001 H 0.30589 0.9785 0.0215 0.0
H2002 H 0.27088 0.9428 0.06504 0.0
H2003 H 0.24204 0.91363 0.99185 0.0
H2004 H 0.25821 0.91211 -0.00298 0.0
H2005 H 0.26043 0.93014 0.99199 0.0
C2006 C 0.30165 0.94436 0.01079 0.0
C2007 C 0.30879 0.96 0.01217 0.0
C2008 C 0.28692 0.93543 0.01761 0.0
C2009 C 0.27895 0.94193 0.02575 0.0
C2010 C 0.28598 0.95753 0.027 0.0
H2011 H 0.19562 0.89748 0.09803 0.0
H2012 H 0.21459 0.91543 0.07401 0.0
C2013 C 0.30075 0.96649 0.02023 0.0
C2014 C 0.26381 0.9324 0.03467 0.0
H2015 H 0.22939 0.90216 0.0241 0.0
C2016 C 0.26171 0.93411 0.05601 0.0
C2017 C 0.25187 0.92106 0.02283 0.0
C2018 C 0.25319 0.91921 -0.0004 0.0
C2019 C 0.24826 0.92428 0.06611 0.0
C2020 C 0.23652 0.91256 0.05446 0.0
C2021 C 0.23841 0.91117 0.03295 0.0
C2022 C 0.2229 0.90087 0.06496 0.0
C2023 C 0.24704 0.92602 0.08943 0.0
C2024 C 0.22069 0.88645 0.06668 0.0
C2025 C 0.20987 0.87619 0.08029 0.0
C2026 C 0.20107 0.88019 0.09238 0.0
C2027 C 0.20237 0.89416 0.08908 0.0
C2028 C 0.2132 0.90442 0.07543 0.0
H2029 H 0.25801 0.934 0.09667 0.0
H2030 H 0.23928 0.93024 0.09236 0.0
H2031 H 0.24245 0.9151 0.09738 0.0
H2032 H 0.22807 0.8835 0.05867 0.0
H2033 H 0.20927 0.86559 0.08259 0.0
H2034 H 0.36462 0.05777 0.01472 0.0
H2035 H 0.3601 0.07838 0.00821 0.0
H2036 H 0.31946 0.04829 0.97501 0.0
H2037 H 0.32391 0.02772 0.9813 0.0
H2038 H 0.35775 0.08613 0.96575 0.0
H2039 H 0.30763 0.07372 0.01247 0.0
H2040 H 0.3195 0.0662 0.01872 0.0
H2041 H 0.30603 0.05813 -0.00214 0.0
C2042 C 0.35457 0.0555 0.0064 0.0
C2043 C 0.34467 0.04116 -0.00161 0.0
C2044 C 0.352 0.06726 0.00274 0.0
C2045 C 0.33935 0.06479 0.99138 0.0
C2046 C 0.32913 0.05036 0.98417 0.0
H2047 H 0.30582 0.10797 0.91729 0.0
H2048 H 0.30901 0.09238 0.94271 0.0
C2049 C 0.33176 0.03865 0.98762 0.0
C2050 C 0.33784 0.07751 0.98446 0.0
H2051 H 0.31398 0.09109 0.98441 0.0
C2052 C 0.34836 0.08745 0.97013 0.0
C2053 C 0.32548 0.07901 0.99007 0.0
C2054 C 0.31405 0.06878 0.00576 0.0
C2055 C 0.34644 0.09837 0.96031 0.0
C2056 C 0.33389 0.09973 0.96557 0.0
C2057 C 0.32364 0.09012 0.98053 0.0
C2058 C 0.33051 0.11 0.95398 0.0
C2059 C 0.35737 0.10765 0.94339 0.0
C2060 C 0.34105 0.1253 0.95286 0.0
C2061 C 0.33944 0.13416 0.93794 0.0
C2062 C 0.32709 0.12792 0.9242 0.0
C2063 C 0.31567 0.11303 0.92722 0.0
C2064 C 0.31742 0.10412 0.94188 0.0
H2065 H 0.36424 0.10283 0.93799 0.0
H2066 H 0.35142 0.10866 0.92961 0.0
H2067 H 0.36511 0.11901 0.94961 0.0
H2068 H 0.35103 0.13016 0.96251 0.0
H2069 H 0.34847 0.14557 0.93616 0.0
H2070 H 0.93499 0.30608 0.00582 0.0
H2071 H 0.91941 0.28046 0.99332 0.0
H2072 H 0.95895 0.27871 0.97751 0.0
H2073 H 0.9747 0.30447 0.98978 0.0
H2074 H 0.93855 0.26935 0.94543 0.0
H2075 H 0.91015 0.24083 0.01877 0.0
H2076 H 0.90868 0.25698 0.01357 0.0
H2077 H 0.92675 0.25914 0.01859 0.0
C2078 C 0.94042 0.30024 -0.00015 0.0
C2079 C 0.95612 0.30738 -0.00122 0.0
C2080 C 0.93147 0.28551 0.9929 0.0
C2081 C 0.93801 0.27756 0.98485 0.0
C2082 C 0.95367 0.2846 0.98386 0.0
H2083 H 0.89341 0.18739 0.93035 0.0
H2084 H 0.90855 0.20836 0.95434 0.0
C2085 C 0.96265 0.29934 0.99084 0.0
C2086 C 0.92846 0.26239 0.97587 0.0
H2087 H 0.89895 0.22765 0.9866 0.0
C2088 C 0.93005 0.26018 0.95452 0.0
C2089 C 0.91741 0.2504 0.98777 0.0
C2090 C 0.91572 0.25188 0.011 0.0
C2091 C 0.92049 0.24652 0.94457 0.0
C2092 C 0.909 0.2348 0.95623 0.0
C2093 C 0.90771 0.23674 0.97772 0.0
C2094 C 0.89787 0.22081 0.94571 0.0
C2095 C 0.92244 0.24477 0.92147 0.0
C2096 C 0.88648 0.22067 0.93374 0.0
C2097 C 0.87786 0.20878 0.92015 0.0
C2098 C 0.8805 0.19683 0.91834 0.0
C2099 C 0.89106 0.19639 0.93165 0.0
C2100 C 0.89974 0.20837 0.94524 0.0
H2101 H 0.93308 0.25414 0.91534 0.0
H2102 H 0.92224 0.23414 0.91842 0.0
H2103 H 0.91301 0.24434 0.91266 0.0
H2104 H 0.88491 0.23021 0.93393 0.0
H2105 H 0.86979 0.20936 0.91004 0.0
H2106 H 0.68723 0.66062 0.96019 0.0
H2107 H 0.71204 0.66525 0.95122 0.0
H2108 H 0.72243 0.66623 0.01691 0.0
H2109 H 0.69709 0.66072 0.02593 0.0
H2110 H 0.73824 0.68779 0.95863 0.0
H2111 H 0.7353 0.63837 -0.00384 0.0
H2112 H 0.71916 0.64048 0.99369 0.0
H2113 H 0.73283 0.65041 0.0139 0.0
C2114 C 0.69476 0.66175 0.97275 0.0
C2115 C 0.69021 0.66025 0.99376 0.0
C2116 C 0.70898 0.66442 0.96761 0.0
C2117 C 0.71912 0.66592 0.98335 0.0
C2118 C 0.71471 0.66472 0.00444 0.0
H2119 H 0.80872 0.69848 0.92947 0.0
H2120 H 0.79006 0.69717 0.9545 0.0
C2121 C 0.70028 0.66169 0.00959 0.0
C2122 C 0.73427 0.66895 0.97722 0.0
H2123 H 0.75777 0.65495 0.97907 0.0
C2124 C 0.74255 0.68065 0.9632 0.0
C2125 C 0.73991 0.65963 0.98318 0.0
C2126 C 0.73131 0.64644 -0.00259 0.0
C2127 C 0.75577 0.68276 0.95398 0.0
C2128 C 0.76139 0.67338 0.95981 0.0
C2129 C 0.75354 0.66219 0.97472 0.0
C2130 C 0.77419 0.67376 0.94866 0.0
C2131 C 0.76292 0.69434 0.93702 0.0
C2132 C 0.7721 0.66079 0.93853 0.0
C2133 C 0.78298 0.66142 0.92497 0.0
C2134 C 0.79607 0.67506 0.92114 0.0
C2135 C 0.79868 0.68784 0.9323 0.0
C2136 C 0.78795 0.68712 0.94633 0.0
H2137 H 0.75516 0.69788 0.93094 0.0
H2138 H 0.77288 0.70439 0.94352 0.0
H2139 H 0.76653 0.69004 0.92364 0.0
H2140 H 0.76164 0.65033 0.94008 0.0
H2141 H 0.78069 0.65148 0.91631 0.0
H2142 H 0.93089 0.62682 0.00494 0.0
H2143 H 0.91564 0.63702 0.99256 0.0
H2144 H 0.95531 0.68026 0.98577 0.0
H2145 H 0.97073 0.6701 -0.0023 0.0
H2146 H 0.91178 0.66046 0.00661 0.0
H2147 H 0.93716 0.67135 0.92712 0.0
H2148 H 0.93995 0.66022 0.94609 0.0
H2149 H 0.9502 0.68023 0.94827 0.0
C2150 C 0.93639 0.63852 0.0009 0.0
C2151 C 0.95206 0.64759 0.00205 0.0
C2152 C 0.92764 0.64434 0.99391 0.0
C2153 C 0.93436 0.65933 0.98796 0.0
C2154 C 0.94993 0.66858 0.9899 0.0
H2155 H 0.89369 0.69996 0.91503 0.0
H2156 H 0.91031 0.69822 0.9406 0.0
C2157 C 0.95871 0.66275 -0.00324 0.0
C2158 C 0.9251 0.66498 0.97871 0.0
H2159 H 0.91878 0.67774 0.93304 0.0
C2160 C 0.91337 0.66436 0.99058 0.0
C2161 C 0.92721 0.67008 0.9578 0.0
C2162 C 0.93922 0.67042 0.94397 0.0
C2163 C 0.90354 0.66849 0.98195 0.0
C2164 C 0.90542 0.67318 0.96088 0.0
C2165 C 0.91744 0.67426 0.94927 0.0
C2166 C 0.89432 0.67559 0.94965 0.0
C2167 C 0.89119 0.66769 0.99541 0.0
C2168 C 0.87963 0.66366 0.94689 0.0
C2169 C 0.87013 0.66464 0.93232 0.0
C2170 C 0.87522 0.67752 0.92011 0.0
C2171 C 0.88951 0.68988 0.92414 0.0
C2172 C 0.899 0.6889 0.93874 0.0
H2173 H 0.89414 0.66877 0.01232 0.0
H2174 H 0.88869 0.67655 0.99124 0.0
H2175 H 0.88089 0.6567 0.99298 0.0
H2176 H 0.87588 0.65317 0.95478 0.0
H2177 H 0.85928 0.65485 0.92936 0.0
H2178 H 0.35686 0.3116 0.02316 0.0
H2179 H 0.353 0.28669 0.01594 0.0
H2180 H 0.32327 0.28112 0.96499 0.0
H2181 H 0.32674 0.30571 0.97239 0.0
H2182 H 0.31344 0.25511 0.9876 0.0
H2183 H 0.37349 0.28057 0.96553 0.0
H2184 H 0.36971 0.28412 0.99176 0.0
H2185 H 0.36487 0.29167 0.96992 0.0
C2186 C 0.34934 0.30497 0.01061 0.0
C2187 C 0.34225 0.31071 -0.00182 0.0
C2188 C 0.3472 0.29077 0.00646 0.0
C2189 C 0.33805 0.28216 0.98969 0.0
C2190 C 0.33039 0.28757 0.97799 0.0
H2191 H 0.33665 0.22792 0.89516 0.0
H2192 H 0.3391 0.24612 0.92136 0.0
C2193 C 0.33245 0.30168 0.98219 0.0
C2194 C 0.33727 0.26809 0.98295 0.0
H2195 H 0.35782 0.25522 0.95826 0.0
C2196 C 0.32318 0.25501 0.9816 0.0
C2197 C 0.35001 0.26803 0.97506 0.0
C2198 C 0.36538 0.28184 0.97545 0.0
C2199 C 0.32136 0.24215 0.97143 0.0
C2200 C 0.33399 0.24238 0.96261 0.0
C2201 C 0.34819 0.2551 0.96519 0.0
C2202 C 0.33242 0.23086 0.94738 0.0
C2203 C 0.30585 0.2288 0.9688 0.0
C2204 C 0.32792 0.2162 0.95337 0.0
C2205 C 0.3264 0.20563 0.93825 0.0
C2206 C 0.32926 0.20962 0.91701 0.0
C2207 C 0.334 0.22439 0.9113 0.0
C2208 C 0.33554 0.23485 0.92629 0.0
H2209 H 0.29709 0.23076 0.9755 0.0
H2210 H 0.30339 0.22593 0.95192 0.0
H2211 H 0.30523 0.21903 0.97671 0.0
H2212 H 0.32561 0.21297 0.96965 0.0
H2213 H 0.32283 0.19435 0.94307 0.0
H2214 H 0.6968 0.06433 0.01189 0.0
H2215 H 0.72199 0.08069 -0.00163 0.0
H2216 H 0.72286 0.04255 0.9732 0.0
H2217 H 0.69758 0.02601 0.98665 0.0
H2218 H 0.75018 0.08046 0.00463 0.0
H2219 H 0.72942 0.0705 0.92229 0.0
H2220 H 0.71706 0.06602 0.94446 0.0
H2221 H 0.72441 0.0542 0.93764 0.0
C2222 C 0.70234 0.05936 0.00358 0.0
C2223 C 0.69508 0.04384 0.00018 0.0
C2224 C 0.71678 0.06875 -0.00403 0.0
C2225 C 0.72422 0.06283 0.9847 0.0
C2226 C 0.71723 0.04733 0.98176 0.0
H2227 H 0.8139 0.10837 0.93112 0.0
H2228 H 0.79297 0.09363 0.95501 0.0
C2229 C 0.70279 0.0379 0.98945 0.0
C2230 C 0.73887 0.073 0.9749 0.0
H2231 H 0.75529 0.08628 0.92746 0.0
C2232 C 0.75137 0.08171 0.98776 0.0
C2233 C 0.74028 0.07469 0.95292 0.0
C2234 C 0.72709 0.06596 0.93844 0.0
C2235 C 0.7653 0.09208 0.97911 0.0
C2236 C 0.76667 0.09374 0.95713 0.0
C2237 C 0.75418 0.08497 0.94434 0.0
C2238 C 0.78078 0.10469 0.94677 0.0
C2239 C 0.77837 0.10144 0.99344 0.0
C2240 C 0.78109 0.11612 0.93484 0.0
C2241 C 0.79299 0.1245 0.92129 0.0
C2242 C 0.80476 0.12157 0.91936 0.0
C2243 C 0.80506 0.11097 0.93256 0.0
C2244 C 0.7931 0.10253 0.94614 0.0
H2245 H 0.77489 0.10056 0.01009 0.0
H2246 H 0.78661 0.09765 0.99213 0.0
H2247 H 0.78409 0.11333 0.98874 0.0
H2248 H 0.77169 0.11794 0.9351 0.0
H2249 H 0.79249 0.13259 0.91124 0.0
H2250 H 0.64282 0.94556 0.00445 0.0
H2251 H 0.64851 0.92594 0.0128 0.0
H2252 H 0.68789 0.95796 0.04671 0.0
H2253 H 0.68228 0.97757 0.03865 0.0
H2254 H 0.6891 0.93421 0.01593 0.0
H2255 H 0.64555 0.91322 0.0784 0.0
H2256 H 0.64116 0.91738 0.05293 0.0
H2257 H 0.65441 0.93225 0.06942 0.0
C2258 C 0.65281 0.94846 0.01344 0.0
C2259 C 0.66204 0.9631 0.02103 0.0
C2260 C 0.65603 0.93726 0.01816 0.0
C2261 C 0.6686 0.94054 0.03037 0.0
C2262 C 0.67817 0.95524 0.0372 0.0
H2263 H 0.71206 0.9016 0.09446 0.0
H2264 H 0.70601 0.91575 0.06995 0.0
C2265 C 0.6749 0.96641 0.03265 0.0
C2266 C 0.67114 0.92853 0.03768 0.0
H2267 H 0.66047 0.90237 0.07587 0.0
C2268 C 0.68274 0.92708 0.02885 0.0
C2269 C 0.66277 0.91924 0.05443 0.0
C2270 C 0.65028 0.92052 0.06451 0.0
C2271 C 0.68637 0.91668 0.03666 0.0
C2272 C 0.67845 0.90785 0.05413 0.0
C2273 C 0.66653 0.90904 0.06244 0.0
C2274 C 0.68296 0.89821 0.0653 0.0
C2275 C 0.69863 0.9153 0.02607 0.0
C2276 C 0.67212 0.88355 0.07078 0.0
C2277 C 0.67554 0.87559 0.0851 0.0
C2278 C 0.6899 0.88205 0.09391 0.0
C2279 C 0.70102 0.89627 0.0874 0.0
C2280 C 0.69755 0.90434 0.07334 0.0
H2281 H 0.69944 0.91816 0.0092 0.0
H2282 H 0.70952 0.92325 0.0335 0.0
H2283 H 0.69679 0.90385 0.02745 0.0
H2284 H 0.66077 0.8786 0.06493 0.0
H2285 H 0.66673 0.86475 0.09027 0.0
H2286 H 0.02513 0.69725 0.04717 0.0
H2287 H 0.04619 0.72235 0.05284 0.0
H2288 H 0.06663 0.71904 0.99567 0.0
H2289 H 0.04563 0.69358 0.99014 0.0
H2290 H 0.08603 0.72846 0.0268 0.0
H2291 H 0.05892 0.76225 0.02817 0.0
H2292 H 0.04934 0.7469 0.04572 0.0
H2293 H 0.04956 0.74338 0.01802 0.0
C2294 C 0.03398 0.70191 0.03561 0.0
C2295 C 0.03372 0.6934 0.01822 0.0
C2296 C 0.04597 0.71637 0.03875 0.0
C2297 C 0.05786 0.72275 0.02444 0.0
C2298 C 0.0575 0.7144 0.0068 0.0
H2299 H 0.12812 0.81105 0.07216 0.0
H2300 H 0.112 0.79309 0.04488 0.0
C2301 C 0.04551 0.69986 0.00369 0.0
C2302 C 0.07132 0.73739 0.02939 0.0
H2303 H 0.0816 0.77173 0.04977 0.0
C2304 C 0.08514 0.73806 0.03125 0.0
C2305 C 0.07036 0.75012 0.03474 0.0
C2306 C 0.05625 0.75067 0.03131 0.0
C2307 C 0.09757 0.75052 0.04025 0.0
C2308 C 0.09603 0.76246 0.04796 0.0
C2309 C 0.0827 0.76245 0.04418 0.0
C2310 C 0.10698 0.77356 0.06295 0.0
C2311 C 0.11202 0.75046 0.04239 0.0
C2312 C 0.10941 0.7685 0.08202 0.0
C2313 C 0.11839 0.77861 0.09742 0.0
C2314 C 0.12511 0.79402 0.09417 0.0
C2315 C 0.12307 0.7992 0.0749 0.0
C2316 C 0.11389 0.78899 0.05942 0.0
H2317 H 0.11325 0.74391 0.02951 0.0
H2318 H 0.12186 0.76197 0.0423 0.0
H2319 H 0.11197 0.74513 0.0574 0.0
H2320 H 0.10392 0.75668 0.08529 0.0
H2321 H 0.11986 0.77438 0.11215 0.0
H2322 H 0.30697 0.37741 0.00865 0.0
H2323 H 0.2817 0.36817 0.02207 0.0
H2324 H 0.27978 0.32785 0.04259 0.0
H2325 H 0.30512 0.33699 0.02932 0.0
H2326 H 0.25349 0.34037 0.01335 0.0
H2327 H 0.27279 0.3468 0.09612 0.0
H2328 H 0.28558 0.35553 0.07461 0.0
H2329 H 0.27769 0.33596 0.07936 0.0
C2330 C 0.30119 0.36655 0.01595 0.0
C2331 C 0.30816 0.35801 0.01811 0.0
C2332 C 0.28671 0.36126 0.02349 0.0
C2333 C 0.27896 0.3474 0.03343 0.0
C2334 C 0.28567 0.33865 0.03511 0.0
H2335 H 0.18827 0.29884 0.08175 0.0
H2336 H 0.20978 0.30756 0.05814 0.0
C2337 C 0.30014 0.3439 0.02753 0.0
C2338 C 0.26422 0.34254 0.0431 0.0
H2339 H 0.24693 0.33636 0.0905 0.0
C2340 C 0.252 0.33946 0.03021 0.0
C2341 C 0.26242 0.34153 0.06509 0.0
C2342 C 0.27531 0.34523 0.07969 0.0
C2343 C 0.23792 0.33528 0.03883 0.0
C2344 C 0.23612 0.33418 0.06081 0.0
C2345 C 0.24837 0.33727 0.07363 0.0
C2346 C 0.22174 0.32991 0.07122 0.0
C2347 C 0.22516 0.33235 0.02447 0.0
C2348 C 0.22114 0.33972 0.08586 0.0
C2349 C 0.20894 0.33475 0.09933 0.0
C2350 C 0.19715 0.31988 0.09837 0.0
C2351 C 0.19715 0.31041 0.08256 0.0
C2352 C 0.20943 0.31538 0.06911 0.0
H2353 H 0.22912 0.33671 0.00846 0.0
H2354 H 0.21732 0.32014 0.02322 0.0
H2355 H 0.21885 0.3375 0.03086 0.0
H2356 H 0.23054 0.35097 0.08775 0.0
H2357 H 0.20919 0.34222 0.11146 0.0
H2358 H 0.71355 0.68431 0.32966 0.0
H2359 H 0.73275 0.67786 0.33753 0.0
H2360 H 0.71462 0.66452 0.39971 0.0
H2361 H 0.69517 0.67031 0.39167 0.0
H2362 H 0.75463 0.6884 0.36465 0.0
H2363 H 0.71734 0.62911 0.38325 0.0
H2364 H 0.71048 0.64013 0.37119 0.0
H2365 H 0.71255 0.64027 0.39929 0.0
C2366 C 0.7136 0.67986 0.34493 0.0
C2367 C 0.70275 0.67768 0.35997 0.0
C2368 C 0.72457 0.67618 0.34942 0.0
C2369 C 0.72494 0.67033 0.36905 0.0
C2370 C 0.71429 0.66848 0.38419 0.0
H2371 H 0.7957 0.67739 0.44222 0.0
H2372 H 0.78021 0.68187 0.41832 0.0
C2373 C 0.70322 0.67193 0.37963 0.0
C2374 C 0.73681 0.66679 0.37428 0.0
H2375 H 0.74215 0.64079 0.39873 0.0
C2376 C 0.75189 0.67788 0.37175 0.0
C2377 C 0.73337 0.65291 0.38292 0.0
C2378 C 0.71755 0.63989 0.38407 0.0
C2379 C 0.76354 0.67584 0.37897 0.0
C2380 C 0.76002 0.66257 0.3897 0.0
C2381 C 0.74497 0.6511 0.39087 0.0
C2382 C 0.7714 0.66084 0.40162 0.0
C2383 C 0.77948 0.68801 0.37509 0.0
C2384 C 0.7718 0.64753 0.40034 0.0
C2385 C 0.78038 0.64473 0.41455 0.0
C2386 C 0.78875 0.65522 0.43031 0.0
C2387 C 0.78924 0.66899 0.43046 0.0
C2388 C 0.78051 0.67167 0.41653 0.0
H2389 H 0.78038 0.69372 0.36005 0.0
H2390 H 0.78307 0.69653 0.38776 0.0
H2391 H 0.78724 0.68361 0.37465 0.0
H2392 H 0.76488 0.63896 0.38903 0.0
H2393 H 0.77962 0.63396 0.41406 0.0
H2394 H 0.33379 0.02909 0.36884 0.0
H2395 H 0.34324 0.05441 0.38254 0.0
H2396 H 0.30259 0.05262 0.36294 0.0
H2397 H 0.29306 0.02743 0.34917 0.0
H2398 H 0.33027 0.08032 0.35336 0.0
H2399 H 0.32566 0.06267 0.4365 0.0
H2400 H 0.33606 0.05747 0.41933 0.0
H2401 H 0.31631 0.04951 0.41539 0.0
C2402 C 0.32687 0.03409 0.3674 0.0
C2403 C 0.3126 0.02616 0.35806 0.0
C2404 C 0.33229 0.04855 0.37523 0.0
C2405 C 0.32356 0.05531 0.37384 0.0
C2406 C 0.30949 0.04758 0.36413 0.0
H2407 H 0.32674 0.12537 0.44886 0.0
H2408 H 0.31908 0.10356 0.42624 0.0
C2409 C 0.30404 0.03314 0.35638 0.0
C2410 C 0.3287 0.07019 0.38328 0.0
H2411 H 0.33513 0.08818 0.43037 0.0
C2412 C 0.33142 0.0821 0.37018 0.0
C2413 C 0.33003 0.07238 0.40522 0.0
C2414 C 0.32677 0.05984 0.42003 0.0
C2415 C 0.33542 0.0962 0.37854 0.0
C2416 C 0.33671 0.09835 0.40049 0.0
C2417 C 0.3341 0.08646 0.41352 0.0
C2418 C 0.34045 0.1127 0.41059 0.0
C2419 C 0.33789 0.10858 0.36396 0.0
C2420 C 0.35481 0.12529 0.40863 0.0
C2421 C 0.35918 0.13782 0.42149 0.0
C2422 C 0.34928 0.13781 0.43658 0.0
C2423 C 0.33457 0.12563 0.43736 0.0
C2424 C 0.33021 0.11317 0.42451 0.0
H2425 H 0.33377 0.10439 0.34786 0.0
H2426 H 0.33217 0.11445 0.36997 0.0
H2427 H 0.35004 0.11684 0.36309 0.0
H2428 H 0.36293 0.12506 0.39818 0.0
H2429 H 0.37064 0.14698 0.42079 0.0
H2430 H 0.97554 0.30882 0.36052 0.0
H2431 H 0.95067 0.29173 0.37478 0.0
H2432 H 0.949 0.25542 0.3394 0.0
H2433 H 0.97395 0.27227 0.32554 0.0
H2434 H 0.92202 0.27184 0.3579 0.0
H2435 H 0.94597 0.2421 0.40006 0.0
H2436 H 0.95752 0.25976 0.38741 0.0
H2437 H 0.94843 0.24281 0.37216 0.0
C2438 C 0.96981 0.29723 0.3556 0.0
C2439 C 0.97683 0.29184 0.34222 0.0
C2440 C 0.95558 0.2875 0.36369 0.0
C2441 C 0.94813 0.27227 0.35843 0.0
C2442 C 0.9547 0.26707 0.34399 0.0
H2443 H 0.85915 0.20495 0.40669 0.0
H2444 H 0.87896 0.22133 0.38212 0.0
C2445 C 0.96896 0.27673 0.3361 0.0
C2446 C 0.93419 0.26162 0.36945 0.0
H2447 H 0.92012 0.23251 0.40353 0.0
C2448 C 0.92153 0.26316 0.36779 0.0
C2449 C 0.93368 0.25043 0.38249 0.0
C2450 C 0.94715 0.24871 0.38584 0.0
C2451 C 0.90839 0.25387 0.37907 0.0
C2452 C 0.90794 0.24272 0.39209 0.0
C2453 C 0.92049 0.24101 0.39337 0.0
C2454 C 0.8953 0.2337 0.40636 0.0
C2455 C 0.89531 0.25638 0.37768 0.0
C2456 C 0.89796 0.23523 0.42798 0.0
C2457 C 0.88688 0.22584 0.44188 0.0
C2458 C 0.87272 0.21473 0.43456 0.0
C2459 C 0.86991 0.2134 0.41283 0.0
C2460 C 0.88115 0.22282 0.39881 0.0
H2461 H 0.89822 0.2668 0.36923 0.0
H2462 H 0.88597 0.24686 0.36922 0.0
H2463 H 0.89128 0.25692 0.39361 0.0
H2464 H 0.90884 0.24345 0.43411 0.0
H2465 H 0.88969 0.22697 0.45839 0.0
H2466 H 0.01489 0.37362 0.29028 0.0
H2467 H 0.01064 0.39434 0.28515 0.0
H2468 H 0.00819 0.39883 0.35215 0.0
H2469 H 0.01342 0.37854 0.35735 0.0
H2470 H 0.98804 0.39711 0.29366 0.0
H2471 H 0.03643 0.44115 0.33848 0.0
H2472 H 0.03439 0.4232 0.33293 0.0
H2473 H 0.02375 0.42524 0.35365 0.0
C2474 C 0.01354 0.37907 0.30394 0.0
C2475 C 0.01455 0.37453 0.32421 0.0
C2476 C 0.01107 0.39092 0.30101 0.0
C2477 C 0.00925 0.39833 0.31825 0.0
C2478 C 0.00997 0.39361 0.33859 0.0
H2479 H 0.98067 0.45826 0.26757 0.0
H2480 H 0.98007 0.44054 0.29334 0.0
C2481 C 0.01284 0.38195 0.34155 0.0
C2482 C 0.00638 0.41076 0.31441 0.0
H2483 H 0.02067 0.44813 0.32209 0.0
C2484 C 0.99512 0.40827 0.29997 0.0
C2485 C 0.01557 0.4253 0.32277 0.0
C2486 C 0.02829 0.42897 0.33767 0.0
C2487 C 0.99355 0.42 0.29234 0.0
C2488 C 0.00291 0.43463 0.3004 0.0
C2489 C 0.01344 0.43694 0.31601 0.0
C2490 C 0.00364 0.44787 0.2904 0.0
C2491 C 0.98269 0.41666 0.2745 0.0
C2492 C 0.01734 0.459 0.28214 0.0
C2493 C 0.01779 0.46955 0.26835 0.0
C2494 C 0.00453 0.46901 0.26233 0.0
C2495 C 0.99104 0.45888 0.27212 0.0
C2496 C 0.99067 0.44861 0.28651 0.0
H2497 H 0.97896 0.40559 0.26717 0.0
H2498 H 0.9726 0.41657 0.2805 0.0
H2499 H 0.98782 0.42524 0.2621 0.0
H2500 H 0.02755 0.4588 0.28495 0.0
H2501 H 0.02829 0.47715 0.26075 0.0
H2502 H 0.60167 0.64467 0.32852 0.0
H2503 H 0.58564 0.61907 0.31616 0.0
H2504 H 0.62337 0.61233 0.31616 0.0
H2505 H 0.63963 0.63805 0.32856 0.0
H2506 H 0.59116 0.60725 0.27752 0.0
H2507 H 0.58903 0.57559 0.34865 0.0
H2508 H 0.59383 0.59489 0.34984 0.0
H2509 H 0.60716 0.59015 0.34014 0.0
C2510 C 0.6066 0.63777 0.32604 0.0
C2511 C 0.62197 0.64346 0.32953 0.0
C2512 C 0.59739 0.62312 0.319 0.0
C2513 C 0.60328 0.61377 0.31551 0.0
C2514 C 0.61857 0.61931 0.31909 0.0
H2515 H 0.56544 0.52581 0.25924 0.0
H2516 H 0.58 0.54788 0.28159 0.0
C2517 C 0.62786 0.63404 0.32602 0.0
C2518 C 0.59352 0.59857 0.30683 0.0
H2519 H 0.57657 0.56146 0.31838 0.0
C2520 C 0.58793 0.59723 0.28646 0.0
C2521 C 0.58947 0.58557 0.3185 0.0
C2522 C 0.59507 0.5865 0.34056 0.0
C2523 C 0.57845 0.58322 0.27733 0.0
C2524 C 0.57404 0.57017 0.28916 0.0
C2525 C 0.57979 0.57148 0.30947 0.0
C2526 C 0.56381 0.55514 0.28018 0.0
C2527 C 0.57352 0.58255 0.25488 0.0
C2528 C 0.54947 0.55139 0.27317 0.0
C2529 C 0.54121 0.53886 0.26039 0.0
C2530 C 0.54702 0.52971 0.25485 0.0
C2531 C 0.56064 0.53257 0.26366 0.0
C2532 C 0.569 0.54523 0.27627 0.0
H2533 H 0.58092 0.5931 0.24646 0.0
H2534 H 0.57345 0.57322 0.24619 0.0
H2535 H 0.56201 0.58072 0.25465 0.0
H2536 H 0.54514 0.55875 0.27635 0.0
H2537 H 0.53083 0.53695 0.25352 0.0
H2538 H 0.36787 0.01397 0.32202 0.0
H2539 H 0.39234 0.01788 0.31179 0.0
H2540 H 0.37859 0.97284 0.32977 0.0
H2541 H 0.35423 0.96901 0.34076 0.0
H2542 H 0.40842 0.99252 0.33904 0.0
H2543 H 0.39531 0.99959 0.25714 0.0
H2544 H 0.39498 0.01278 0.27508 0.0
H2545 H 0.38153 0.99321 0.27771 0.0
C2546 C 0.37013 0.00497 0.32409 0.0
C2547 C 0.35906 0.99111 0.33192 0.0
C2548 C 0.3841 0.0072 0.31816 0.0
C2549 C 0.38714 0.99553 0.3195 0.0
C2550 C 0.37644 0.98197 0.32848 0.0
H2551 H 0.45033 0.97636 0.26112 0.0
H2552 H 0.43267 0.97674 0.28628 0.0
C2553 C 0.36252 0.97979 0.33471 0.0
C2554 C 0.40094 0.99707 0.31002 0.0
H2555 H 0.41954 0.00378 0.26355 0.0
C2556 C 0.41089 0.99501 0.32255 0.0
C2557 C 0.40404 0.00012 0.28843 0.0
C2558 C 0.39334 0.0014 0.27374 0.0
C2559 C 0.42398 0.99617 0.31406 0.0
C2560 C 0.42712 0.99944 0.29257 0.0
C2561 C 0.41719 0.00149 0.28012 0.0
C2562 C 0.44021 0.00012 0.28207 0.0
C2563 C 0.43441 0.994 0.32806 0.0
C2564 C 0.45064 0.01327 0.27195 0.0
C2565 C 0.46074 0.01308 0.25761 0.0
C2566 C 0.46048 0.99971 0.25301 0.0
C2567 C 0.4509 0.98686 0.26451 0.0
C2568 C 0.44079 0.98706 0.27889 0.0
H2569 H 0.43213 0.99471 0.34491 0.0
H2570 H 0.43295 0.98282 0.32497 0.0
H2571 H 0.44625 0.00247 0.32469 0.0
H2572 H 0.45033 0.02345 0.27414 0.0
H2573 H 0.46806 0.02317 0.24906 0.0
H2574 H 0.60022 0.95559 0.33417 0.0
H2575 H 0.58335 0.9637 0.32124 0.0
H2576 H 0.62099 0.00779 0.31067 0.0
H2577 H 0.63802 0.9997 0.32314 0.0
H2578 H 0.57815 0.98623 0.33464 0.0
H2579 H 0.60075 0.99625 0.25353 0.0
H2580 H 0.6052 0.98639 0.27262 0.0
H2581 H 0.61439 0.0064 0.27358 0.0
C2582 C 0.60494 0.96701 0.32908 0.0
C2583 C 0.6205 0.97695 0.32947 0.0
C2584 C 0.59526 0.97165 0.32179 0.0
C2585 C 0.60093 0.98628 0.31476 0.0
C2586 C 0.61641 0.99636 0.31565 0.0
H2587 H 0.55449 0.02204 0.2446 0.0
H2588 H 0.5723 0.0215 0.26922 0.0
C2589 C 0.62612 0.99171 0.32281 0.0
C2590 C 0.59062 0.99078 0.3059 0.0
H2591 H 0.58176 0.00168 0.26052 0.0
C2592 C 0.57898 0.98971 0.31847 0.0
C2593 C 0.59174 0.99532 0.28481 0.0
C2594 C 0.6036 0.99605 0.27025 0.0
C2595 C 0.56831 0.9929 0.31042 0.0
C2596 C 0.56926 0.9971 0.28922 0.0
C2597 C 0.58114 0.99858 0.27685 0.0
C2598 C 0.55742 0.99871 0.27875 0.0
C2599 C 0.55608 0.99165 0.32459 0.0
C2600 C 0.54295 0.98628 0.27664 0.0
C2601 C 0.53277 0.98657 0.26261 0.0
C2602 C 0.53697 0.99925 0.25033 0.0
C2603 C 0.55101 0.0121 0.25379 0.0
C2604 C 0.56117 0.01181 0.26784 0.0
H2605 H 0.55948 0.99297 0.34134 0.0
H2606 H 0.55301 0.00015 0.32071 0.0
H2607 H 0.546 0.98044 0.32256 0.0
H2608 H 0.53991 0.97596 0.28457 0.0
H2609 H 0.52212 0.97644 0.26007 0.0
H2610 H 0.99714 0.63909 0.30504 0.0
H2611 H 0.99563 0.61539 0.29731 0.0
H2612 H 0.02531 0.62248 0.34904 0.0
H2613 H 0.02716 0.6465 0.35661 0.0
H2614 H 0.03471 0.61573 0.31434 0.0
H2615 H 0.97466 0.57464 0.32277 0.0
H2616 H 0.97715 0.5895 0.30607 0.0
H2617 H 0.98293 0.5934 0.33313 0.0
C2618 C 0.00315 0.63551 0.31504 0.0
C2619 C 0.01231 0.64471 0.33141 0.0
C2620 C 0.00215 0.62185 0.31072 0.0
C2621 C 0.01013 0.61698 0.32282 0.0
C2622 C 0.01894 0.62594 0.33961 0.0
H2623 H 0.00105 0.53277 0.27357 0.0
H2624 H 0.00212 0.55042 0.30057 0.0
C2625 C 0.01999 0.63966 0.3439 0.0
C2626 C 0.01062 0.6035 0.31623 0.0
H2627 H 0.98838 0.56787 0.29812 0.0
C2628 C 0.02458 0.60515 0.31131 0.0
C2629 C 0.99747 0.58955 0.31264 0.0
C2630 C 0.98224 0.58663 0.31917 0.0
C2631 C 0.02565 0.59369 0.30124 0.0
C2632 C 0.01242 0.58036 0.2956 0.0
C2633 C 0.99853 0.57819 0.30217 0.0
C2634 C 0.01265 0.56967 0.28034 0.0
C2635 C 0.04095 0.59622 0.29594 0.0
C2636 C 0.01816 0.57465 0.26013 0.0
C2637 C 0.01751 0.5647 0.24488 0.0
C2638 C 0.01122 0.54948 0.2494 0.0
C2639 C 0.00598 0.54446 0.26976 0.0
C2640 C 0.00655 0.55449 0.2851 0.0
H2641 H 0.04949 0.60402 0.30732 0.0
H2642 H 0.04103 0.58558 0.29577 0.0
H2643 H 0.04425 0.60131 0.28018 0.0
H2644 H 0.02264 0.58623 0.25597 0.0
H2645 H 0.02177 0.5689 0.22938 0.0
H2646 H 0.36847 0.36269 0.34302 0.0
H2647 H 0.39503 0.37842 0.33431 0.0
H2648 H 0.38443 0.4057 0.2956 0.0
H2649 H 0.35817 0.3907 0.30553 0.0
H2650 H 0.41001 0.38365 0.30179 0.0
H2651 H 0.41824 0.43811 0.32568 0.0
H2652 H 0.40136 0.42097 0.33204 0.0
H2653 H 0.40313 0.43001 0.30725 0.0
C2654 C 0.37189 0.37213 0.33276 0.0
C2655 C 0.36132 0.37558 0.32507 0.0
C2656 C 0.38707 0.38114 0.32783 0.0
C2657 C 0.39192 0.3936 0.31478 0.0
C2658 C 0.3812 0.39664 0.30647 0.0
H2659 H 0.45923 0.42701 0.22546 0.0
H2660 H 0.43974 0.41226 0.25036 0.0
C2661 C 0.36612 0.38793 0.31191 0.0
C2662 C 0.40797 0.40289 0.30872 0.0
H2663 H 0.43487 0.43874 0.29789 0.0
C2664 C 0.41553 0.39572 0.3014 0.0
C2665 C 0.41562 0.4187 0.30893 0.0
C2666 C 0.40919 0.42735 0.31918 0.0
C2667 C 0.4299 0.40382 0.2927 0.0
C2668 C 0.43662 0.41945 0.29021 0.0
C2669 C 0.42965 0.42673 0.2992 0.0
C2670 C 0.44963 0.42806 0.27607 0.0
C2671 C 0.43759 0.39543 0.28603 0.0
C2672 C 0.4617 0.44216 0.28186 0.0
C2673 C 0.47272 0.451 0.26718 0.0
C2674 C 0.47179 0.44586 0.24648 0.0
C2675 C 0.46013 0.43146 0.24115 0.0
C2676 C 0.44909 0.42282 0.25559 0.0
H2677 H 0.43487 0.38614 0.29699 0.0
H2678 H 0.43345 0.39038 0.2703 0.0
H2679 H 0.44994 0.40279 0.28543 0.0
H2680 H 0.46234 0.44652 0.29754 0.0
H2681 H 0.48156 0.46205 0.27175 0.0
H2682 H 0.34474 0.3116 0.37875 0.0
H2683 H 0.35054 0.29247 0.38863 0.0
H2684 H 0.31478 0.26049 0.349 0.0
H2685 H 0.30901 0.27972 0.33873 0.0
H2686 H 0.33115 0.26662 0.40895 0.0
H2687 H 0.34957 0.25391 0.33371 0.0
H2688 H 0.34848 0.27055 0.33771 0.0
H2689 H 0.33176 0.25294 0.33289 0.0
C2690 C 0.33819 0.30055 0.37193 0.0
C2691 C 0.32638 0.29717 0.35799 0.0
C2692 C 0.34154 0.28963 0.37758 0.0
C2693 C 0.3332 0.27509 0.36941 0.0
C2694 C 0.32156 0.27171 0.35519 0.0
H2695 H 0.33105 0.20197 0.43698 0.0
H2696 H 0.32343 0.2157 0.41394 0.0
C2697 C 0.31821 0.28268 0.34946 0.0
C2698 C 0.33601 0.26332 0.37723 0.0
H2699 H 0.34704 0.23861 0.3627 0.0
C2700 C 0.33458 0.26048 0.39881 0.0
C2701 C 0.34059 0.25538 0.36399 0.0
C2702 C 0.34283 0.25839 0.3408 0.0
C2703 C 0.33769 0.25003 0.40758 0.0
C2704 C 0.34204 0.2419 0.39434 0.0
C2705 C 0.34349 0.2447 0.37273 0.0
C2706 C 0.34587 0.23112 0.40321 0.0
C2707 C 0.3367 0.2481 0.43108 0.0
C2708 C 0.36083 0.23453 0.40353 0.0
C2709 C 0.36515 0.22651 0.4164 0.0
C2710 C 0.35454 0.21502 0.42907 0.0
C2711 C 0.33938 0.2107 0.42717 0.0
C2712 C 0.33506 0.21861 0.41417 0.0
H2713 H 0.33646 0.25744 0.43927 0.0
H2714 H 0.32627 0.2376 0.43505 0.0
H2715 H 0.34632 0.24734 0.43718 0.0
H2716 H 0.36935 0.24414 0.39519 0.0
H2717 H 0.37693 0.23016 0.4179 0.0
H2718 H 0.72036 0.02545 0.33672 0.0
H2719 H 0.73963 0.05118 0.34538 0.0
H2720 H 0.70535 0.0607 0.36425 0.0
H2721 H 0.68612 0.03495 0.35631 0.0
H2722 H 0.74634 0.07996 0.33422 0.0
H2723 H 0.72943 0.06821 0.41768 0.0
H2724 H 0.72269 0.05372 0.39796 0.0
H2725 H 0.71446 0.06528 0.40055 0.0
C2726 C 0.71694 0.0331 0.34244 0.0
C2727 C 0.70176 0.02813 0.34618 0.0
C2728 C 0.72795 0.04779 0.34734 0.0
C2729 C 0.72393 0.05775 0.3559 0.0
C2730 C 0.70872 0.0531 0.35814 0.0
H2731 H 0.77393 0.14024 0.42499 0.0
H2732 H 0.75594 0.12222 0.39984 0.0
C2733 C 0.69774 0.03839 0.35355 0.0
C2734 C 0.73558 0.0725 0.36419 0.0
H2735 H 0.74766 0.09289 0.40948 0.0
C2736 C 0.74663 0.08284 0.35065 0.0
C2737 C 0.73602 0.07617 0.38569 0.0
C2738 C 0.72512 0.06522 0.40137 0.0
C2739 C 0.75801 0.09683 0.35806 0.0
C2740 C 0.75833 0.10048 0.37951 0.0
C2741 C 0.74724 0.09016 0.39295 0.0
C2742 C 0.77055 0.11436 0.3891 0.0
C2743 C 0.76956 0.10762 0.34296 0.0
C2744 C 0.78503 0.11651 0.39051 0.0
C2745 C 0.79536 0.12686 0.40482 0.0
C2746 C 0.79126 0.13506 0.41805 0.0
C2747 C 0.77735 0.13404 0.41498 0.0
C2748 C 0.76706 0.12373 0.40065 0.0
H2749 H 0.76563 0.1049 0.32647 0.0
H2750 H 0.77245 0.11925 0.34654 0.0
H2751 H 0.77991 0.10702 0.34446 0.0
H2752 H 0.78789 0.10924 0.38203 0.0
H2753 H 0.80592 0.12727 0.40705 0.0
H2754 H 0.97276 0.70842 0.34069 0.0
H2755 H 0.94697 0.69857 0.35206 0.0
H2756 H 0.94573 0.65921 0.37557 0.0
H2757 H 0.97154 0.66885 0.36387 0.0
H2758 H 0.91962 0.65315 0.35345 0.0
H2759 H 0.93535 0.69776 0.4134 0.0
H2760 H 0.94155 0.70443 0.38733 0.0
H2761 H 0.94897 0.69444 0.40074 0.0
C2762 C 0.96704 0.69766 0.34827 0.0
C2763 C 0.97429 0.68949 0.35156 0.0
C2764 C 0.95229 0.69207 0.3548 0.0
C2765 C 0.94453 0.67828 0.36495 0.0
C2766 C 0.95157 0.66991 0.36782 0.0
H2767 H 0.8653 0.6276 0.4354 0.0
H2768 H 0.88616 0.63552 0.41104 0.0
C2769 C 0.96632 0.67546 0.36119 0.0
C2770 C 0.92923 0.6728 0.3731 0.0
H2771 H 0.90961 0.68085 0.40857 0.0
C2772 C 0.9174 0.65922 0.36545 0.0
C2773 C 0.92637 0.68077 0.3887 0.0
C2774 C 0.93873 0.69509 0.39819 0.0
C2775 C 0.90277 0.65335 0.3731 0.0
C2776 C 0.89998 0.6612 0.38895 0.0
C2777 C 0.91175 0.67493 0.39623 0.0
C2778 C 0.88542 0.65476 0.39995 0.0
C2779 C 0.89045 0.63879 0.36421 0.0
C2780 C 0.87788 0.66278 0.40154 0.0
C2781 C 0.86591 0.65822 0.41548 0.0
C2782 C 0.86148 0.64567 0.42806 0.0
C2783 C 0.86843 0.63718 0.42556 0.0
C2784 C 0.88031 0.64168 0.41161 0.0
H2785 H 0.89317 0.63676 0.34812 0.0
H2786 H 0.88907 0.6295 0.37423 0.0
H2787 H 0.87963 0.63856 0.36379 0.0
H2788 H 0.88176 0.67299 0.39284 0.0
H2789 H 0.86083 0.66504 0.41748 0.0
H2790 H 0.35684 0.99196 0.70844 0.0
H2791 H 0.37696 0.98716 0.71736 0.0
H2792 H 0.40817 0.02552 0.68173 0.0
H2793 H 0.38807 0.0304 0.67261 0.0
H2794 H 0.39868 0.98393 0.6885 0.0
H2795 H 0.42448 0.03202 0.74438 0.0
H2796 H 0.40522 0.02361 0.73603 0.0
H2797 H 0.42001 0.03522 0.71839 0.0
C2798 C 0.36795 0.99932 0.70234 0.0
C2799 C 0.37088 0.01162 0.68992 0.0
C2800 C 0.37941 0.99652 0.7074 0.0
C2801 C 0.39404 0.00603 0.70029 0.0
C2802 C 0.39695 0.0181 0.68744 0.0
H2803 H 0.47341 0.01036 0.75436 0.0
H2804 H 0.45795 0.01485 0.72977 0.0
C2805 C 0.38546 0.02085 0.68224 0.0
C2806 C 0.40631 0.00372 0.7074 0.0
H2807 H 0.43528 0.01704 0.74218 0.0
C2808 C 0.40681 0.99123 0.70007 0.0
C2809 C 0.41692 0.01333 0.72236 0.0
C2810 C 0.4167 0.02678 0.73092 0.0
C2811 C 0.41757 0.98796 0.7076 0.0
C2812 C 0.42779 0.9972 0.72331 0.0
C2813 C 0.42753 0.00996 0.7301 0.0
C2814 C 0.43799 0.99331 0.73434 0.0
C2815 C 0.41783 0.97464 0.69859 0.0
C2816 C 0.43212 0.97953 0.74455 0.0
C2817 C 0.44105 0.97687 0.75817 0.0
C2818 C 0.45593 0.988 0.76204 0.0
C2819 C 0.46205 0.0015 0.75117 0.0
C2820 C 0.45318 0.0041 0.73731 0.0
H2821 H 0.41371 0.97242 0.68215 0.0
H2822 H 0.42927 0.97626 0.69896 0.0
H2823 H 0.41029 0.96462 0.70788 0.0
H2824 H 0.42037 0.97119 0.74315 0.0
H2825 H 0.43601 0.96655 0.7669 0.0
H2826 H 0.98708 0.35495 0.71239 0.0
H2827 H 0.99388 0.37952 0.72678 0.0
H2828 H 0.97244 0.38701 0.67418 0.0
H2829 H 0.96476 0.36209 0.66062 0.0
H2830 H 0.01014 0.40667 0.71498 0.0
H2831 H 0.95193 0.3953 0.71968 0.0
H2832 H 0.95617 0.38099 0.71303 0.0
H2833 H 0.95713 0.39381 0.69338 0.0
C2834 C 0.98382 0.36187 0.70397 0.0
C2835 C 0.97521 0.35658 0.68561 0.0
C2836 C 0.98772 0.37591 0.71216 0.0
C2837 C 0.98331 0.385 0.70189 0.0
C2838 C 0.97545 0.38001 0.68287 0.0
H2839 H 0.02306 0.47704 0.75056 0.0
H2840 H 0.01595 0.4565 0.72563 0.0
C2841 C 0.97118 0.36582 0.67503 0.0
C2842 C 0.98683 0.39958 0.71127 0.0
H2843 H 0.9711 0.42003 0.72706 0.0
C2844 C 0.0016 0.40958 0.71765 0.0
C2845 C 0.97566 0.40336 0.71493 0.0
C2846 C 0.95933 0.39274 0.7101 0.0
C2847 C 0.00544 0.42301 0.72806 0.0
C2848 C 0.99434 0.42694 0.73129 0.0
C2849 C 0.97966 0.41714 0.72435 0.0
C2850 C 0.99723 0.44022 0.74397 0.0
C2851 C 0.02118 0.43239 0.73644 0.0
C2852 C 0.98828 0.43829 0.76154 0.0
C2853 C 0.99195 0.45012 0.77532 0.0
C2854 C 0.00485 0.46412 0.77211 0.0
C2855 C 0.0131 0.4664 0.7536 0.0
C2856 C 0.00921 0.45457 0.73952 0.0
H2857 H 0.02703 0.42594 0.73737 0.0
H2858 H 0.02772 0.44193 0.7258 0.0
H2859 H 0.02119 0.43686 0.75231 0.0
H2860 H 0.97882 0.42741 0.76521 0.0
H2861 H 0.98509 0.44809 0.78911 0.0
H2862 H 0.63861 0.64442 0.68917 0.0
H2863 H 0.6122 0.62913 0.69883 0.0
H2864 H 0.61543 0.58948 0.69415 0.0
H2865 H 0.6417 0.60457 0.68425 0.0
H2866 H 0.58928 0.58689 0.67494 0.0
H2867 H 0.59817 0.60935 0.75652 0.0
H2868 H 0.60454 0.62278 0.73577 0.0
H2869 H 0.61349 0.61208 0.73999 0.0
C2870 C 0.63372 0.63245 0.69022 0.0
C2871 C 0.64233 0.62574 0.68608 0.0
C2872 C 0.61863 0.62374 0.69574 0.0
C2873 C 0.61192 0.60821 0.69734 0.0
C2874 C 0.62041 0.60147 0.69295 0.0
H2875 H 0.54028 0.53047 0.74417 0.0
H2876 H 0.5585 0.54877 0.72024 0.0
C2877 C 0.63546 0.61013 0.68741 0.0
C2878 C 0.59622 0.59887 0.7043 0.0
H2879 H 0.57409 0.59027 0.74755 0.0
C2880 C 0.58586 0.58773 0.69072 0.0
C2881 C 0.59179 0.60009 0.72483 0.0
C2882 C 0.60255 0.61163 0.74024 0.0
C2883 C 0.5713 0.57741 0.6974 0.0
C2884 C 0.56713 0.57813 0.71829 0.0
C2885 C 0.57726 0.58976 0.73149 0.0
C2886 C 0.55329 0.56597 0.72786 0.0
C2887 C 0.56065 0.5657 0.68214 0.0
C2888 C 0.54385 0.56929 0.73956 0.0
C2889 C 0.53341 0.55879 0.75337 0.0
C2890 C 0.53233 0.54485 0.75578 0.0
C2891 C 0.54069 0.54102 0.74247 0.0
C2892 C 0.55115 0.55153 0.72873 0.0
H2893 H 0.56314 0.56984 0.66579 0.0
H2894 H 0.56197 0.55578 0.68303 0.0
H2895 H 0.54883 0.56218 0.68573 0.0
H2896 H 0.54531 0.58037 0.73914 0.0
H2897 H 0.52705 0.56201 0.7634 0.0
H2898 H 0.66318 0.69495 0.63536 0.0
H2899 H 0.65882 0.71543 0.62812 0.0
H2900 H 0.68652 0.74008 0.68093 0.0
H2901 H 0.69128 0.7197 0.688 0.0
H2902 H 0.64709 0.72994 0.65087 0.0
H2903 H 0.70732 0.76812 0.63225 0.0
H2904 H 0.69957 0.74837 0.63573 0.0
H2905 H 0.70318 0.76033 0.6581 0.0
C2906 C 0.66828 0.70467 0.64555 0.0
C2907 C 0.67775 0.7058 0.66207 0.0
C2908 C 0.66571 0.71634 0.64145 0.0
C2909 C 0.67251 0.72936 0.65381 0.0
C2910 C 0.68139 0.73024 0.67097 0.0
H2911 H 0.65382 0.79929 0.60851 0.0
H2912 H 0.65662 0.7836 0.63483 0.0
C2913 C 0.68406 0.71858 0.675 0.0
C2914 C 0.67106 0.74225 0.64748 0.0
H2915 H 0.69078 0.77648 0.62476 0.0
C2916 C 0.65666 0.74028 0.64557 0.0
C2917 C 0.68359 0.7557 0.64054 0.0
C2918 C 0.69929 0.75831 0.64158 0.0
C2919 C 0.65437 0.75098 0.63569 0.0
C2920 C 0.66683 0.76403 0.62777 0.0
C2921 C 0.68129 0.76647 0.631 0.0
C2922 C 0.66503 0.77373 0.6127 0.0
C2923 C 0.63862 0.74781 0.63235 0.0
C2924 C 0.66898 0.77346 0.59179 0.0
C2925 C 0.66746 0.78231 0.57696 0.0
C2926 C 0.66185 0.79165 0.58265 0.0
C2927 C 0.65806 0.79211 0.60371 0.0
C2928 C 0.65959 0.78314 0.61867 0.0
H2929 H 0.6301 0.73671 0.63842 0.0
H2930 H 0.63718 0.75649 0.64045 0.0
H2931 H 0.63652 0.74827 0.61539 0.0
H2932 H 0.67327 0.76632 0.58689 0.0
H2933 H 0.67088 0.78198 0.56101 0.0
H2934 H 0.27 0.97673 0.65602 0.0
H2935 H 0.25459 0.95074 0.64513 0.0
H2936 H 0.29265 0.94472 0.65075 0.0
H2937 H 0.30834 0.97095 0.66117 0.0
H2938 H 0.27774 0.9328 0.61516 0.0
H2939 H 0.23684 0.91368 0.67993 0.0
H2940 H 0.23802 0.92947 0.66696 0.0
H2941 H 0.2541 0.93141 0.68068 0.0
C2942 C 0.27512 0.96989 0.65503 0.0
C2943 C 0.29042 0.97594 0.65956 0.0
C2944 C 0.26623 0.95496 0.649 0.0
C2945 C 0.27234 0.94563 0.64768 0.0
C2946 C 0.28765 0.95166 0.6519 0.0
H2947 H 0.23 0.85402 0.59754 0.0
H2948 H 0.24488 0.8753 0.62121 0.0
C2949 C 0.29661 0.96667 0.65779 0.0
C2950 C 0.26288 0.92987 0.64066 0.0
H2951 H 0.22919 0.89811 0.64883 0.0
C2952 C 0.26728 0.92512 0.62278 0.0
C2953 C 0.24923 0.9198 0.65066 0.0
C2954 C 0.24435 0.9238 0.67075 0.0
C2955 C 0.25804 0.91091 0.61399 0.0
C2956 C 0.24409 0.90116 0.62339 0.0
C2957 C 0.2399 0.90565 0.64168 0.0
C2958 C 0.23324 0.88692 0.6131 0.0
C2959 C 0.26292 0.90662 0.59413 0.0
C2960 C 0.22136 0.88616 0.60159 0.0
C2961 C 0.21292 0.87409 0.58813 0.0
C2962 C 0.21613 0.86254 0.5862 0.0
C2963 C 0.22718 0.86269 0.59906 0.0
C2964 C 0.23574 0.87486 0.61241 0.0
H2965 H 0.27344 0.91601 0.58771 0.0
H2966 H 0.26477 0.89721 0.59737 0.0
H2967 H 0.25402 0.90281 0.58201 0.0
H2968 H 0.2193 0.89539 0.60189 0.0
H2969 H 0.20456 0.87427 0.57815 0.0
H2970 H 0.02131 0.30406 0.67834 0.0
H2971 H 0.04631 0.30852 0.66977 0.0
H2972 H 0.05665 0.34934 0.63879 0.0
H2973 H 0.03171 0.34494 0.64716 0.0
H2974 H 0.05567 0.31134 0.62651 0.0
H2975 H 0.09487 0.36063 0.67439 0.0
H2976 H 0.0754 0.34869 0.68122 0.0
H2977 H 0.08057 0.36229 0.66092 0.0
C2978 C 0.02901 0.31413 0.67006 0.0
C2979 C 0.02451 0.32411 0.66333 0.0
C2980 C 0.04328 0.31667 0.66521 0.0
C2981 C 0.05337 0.32934 0.65387 0.0
C2982 C 0.04913 0.33963 0.64789 0.0
H2983 H 0.13178 0.36283 0.57986 0.0
H2984 H 0.11233 0.35952 0.60454 0.0
C2985 C 0.03483 0.33704 0.65255 0.0
C2986 C 0.06754 0.3309 0.64596 0.0
H2987 H 0.10547 0.35413 0.64586 0.0
C2988 C 0.0666 0.32054 0.63098 0.0
C2989 C 0.08171 0.34301 0.6517 0.0
C2990 C 0.08329 0.35425 0.66807 0.0
C2991 C 0.0794 0.32231 0.62079 0.0
C2992 C 0.09363 0.33456 0.62629 0.0
C2993 C 0.09459 0.3447 0.64177 0.0
C2994 C 0.10734 0.33767 0.6147 0.0
C2995 C 0.07739 0.31153 0.60337 0.0
C2996 C 0.11164 0.32688 0.6131 0.0
C2997 C 0.12253 0.32858 0.59862 0.0
C2998 C 0.12953 0.34125 0.58576 0.0
C2999 C 0.12634 0.35276 0.58912 0.0
C3000 C 0.11529 0.35094 0.60336 0.0
H3001 H 0.06561 0.30508 0.59781 0.0
H3002 H 0.08464 0.31749 0.58979 0.0
H3003 H 0.08052 0.30345 0.60918 0.0
H3004 H 0.10595 0.31674 0.62216 0.0
H3005 H 0.12466 0.31948 0.59653 0.0
H3006 H 0.26451 0.29053 0.66258 0.0
H3007 H 0.24959 0.30137 0.65137 0.0
H3008 H 0.28955 0.34465 0.64738 0.0
H3009 H 0.30466 0.33388 0.65827 0.0
H3010 H 0.24661 0.32467 0.66944 0.0
H3011 H 0.27067 0.33853 0.58914 0.0
H3012 H 0.27328 0.32625 0.60614 0.0
H3013 H 0.28397 0.34609 0.61026 0.0
C3014 C 0.27017 0.30235 0.65926 0.0
C3015 C 0.28582 0.3113 0.66115 0.0
C3016 C 0.2616 0.30854 0.65297 0.0
C3017 C 0.26848 0.32378 0.64839 0.0
C3018 C 0.28406 0.33282 0.65054 0.0
H3019 H 0.22719 0.36661 0.58267 0.0
H3020 H 0.24413 0.36465 0.6074 0.0
C3021 C 0.29266 0.32663 0.65678 0.0
C3022 C 0.2593 0.33002 0.64082 0.0
H3023 H 0.25238 0.34461 0.59755 0.0
C3024 C 0.24793 0.32916 0.65379 0.0
C3025 C 0.26112 0.33594 0.62045 0.0
C3026 C 0.27283 0.33669 0.60558 0.0
C3027 C 0.23811 0.33379 0.64673 0.0
C3028 C 0.23959 0.3392 0.6261 0.0
C3029 C 0.25132 0.34057 0.61345 0.0
C3030 C 0.22827 0.34193 0.61623 0.0
C3031 C 0.22617 0.33271 0.66136 0.0
C3032 C 0.21348 0.33009 0.61384 0.0
C3033 C 0.20377 0.33124 0.59984 0.0
C3034 C 0.20877 0.34417 0.58781 0.0
C3035 C 0.22308 0.35652 0.59174 0.0
C3036 C 0.23277 0.35539 0.6058 0.0
H3037 H 0.22965 0.33352 0.678 0.0
H3038 H 0.2235 0.3416 0.65825 0.0
H3039 H 0.21583 0.32172 0.65909 0.0
H3040 H 0.20984 0.3195 0.62135 0.0
H3041 H 0.19291 0.32146 0.59692 0.0
H3042 H 0.69221 0.97711 0.68659 0.0
H3043 H 0.68749 0.95178 0.68035 0.0
H3044 H 0.65078 0.94269 0.63935 0.0
H3045 H 0.6554 0.96795 0.6454 0.0
H3046 H 0.64682 0.91822 0.67064 0.0
H3047 H 0.69701 0.94186 0.61894 0.0
H3048 H 0.69895 0.95006 0.64454 0.0
H3049 H 0.68759 0.952 0.62511 0.0
C3050 C 0.68299 0.96965 0.67649 0.0
C3051 C 0.67426 0.97458 0.66634 0.0
C3052 C 0.68032 0.9552 0.67296 0.0
C3053 C 0.66883 0.94543 0.65935 0.0
C3054 C 0.65966 0.95007 0.64997 0.0
H3055 H 0.6347 0.86512 0.5909 0.0
H3056 H 0.63704 0.88371 0.61645 0.0
C3057 C 0.66238 0.96453 0.65337 0.0
C3058 C 0.66721 0.93093 0.65323 0.0
H3059 H 0.68251 0.91592 0.62109 0.0
C3060 C 0.6547 0.91765 0.66002 0.0
C3061 C 0.67755 0.93027 0.63946 0.0
C3062 C 0.69103 0.94426 0.63142 0.0
C3063 C 0.6521 0.90366 0.65305 0.0
C3064 C 0.6621 0.90302 0.63852 0.0
C3065 C 0.67488 0.91635 0.63234 0.0
C3066 C 0.65893 0.88902 0.62759 0.0
C3067 C 0.63865 0.88976 0.66125 0.0
C3068 C 0.67018 0.88532 0.62578 0.0
C3069 C 0.669 0.87489 0.6108 0.0
C3070 C 0.65652 0.86796 0.59735 0.0
C3071 C 0.64453 0.8704 0.60088 0.0
C3072 C 0.64579 0.88096 0.61568 0.0
H3073 H 0.63577 0.89162 0.67734 0.0
H3074 H 0.62887 0.88682 0.65103 0.0
H3075 H 0.64057 0.88018 0.66149 0.0
H3076 H 0.68042 0.89137 0.63482 0.0
H3077 H 0.6785 0.87338 0.60844 0.0
H3078 H 0.02542 0.7308 0.66433 0.0
H3079 H 0.05092 0.74659 0.65174 0.0
H3080 H 0.0544 0.70767 0.63927 0.0
H3081 H 0.02876 0.69163 0.65203 0.0
H3082 H 0.08037 0.73291 0.66057 0.0
H3083 H 0.06224 0.74925 0.58867 0.0
H3084 H 0.05451 0.75157 0.61265 0.0
H3085 H 0.04964 0.73317 0.60397 0.0
C3086 C 0.03155 0.72552 0.65892 0.0
C3087 C 0.02496 0.7099 0.65905 0.0
C3088 C 0.04614 0.7346 0.65172 0.0
C3089 C 0.05448 0.72829 0.6444 0.0
C3090 C 0.04812 0.71274 0.64484 0.0
H3091 H 0.14204 0.76603 0.58684 0.0
H3092 H 0.12 0.75072 0.60851 0.0
C3093 C 0.03345 0.7036 0.65204 0.0
C3094 C 0.06967 0.73802 0.63578 0.0
H3095 H 0.08812 0.76242 0.59623 0.0
C3096 C 0.08212 0.73934 0.64646 0.0
C3097 C 0.07187 0.74638 0.6174 0.0
C3098 C 0.05887 0.74497 0.60486 0.0
C3099 C 0.09679 0.74914 0.63949 0.0
C3100 C 0.09898 0.75761 0.62118 0.0
C3101 C 0.08647 0.75609 0.61043 0.0
C3102 C 0.11402 0.76776 0.61221 0.0
C3103 C 0.10977 0.75056 0.65204 0.0
C3104 C 0.11822 0.78256 0.60743 0.0
C3105 C 0.1307 0.79122 0.59489 0.0
C3106 C 0.13929 0.7853 0.58715 0.0
C3107 C 0.13578 0.77093 0.59316 0.0
C3108 C 0.12318 0.76218 0.60552 0.0
H3109 H 0.10653 0.74706 0.66854 0.0
H3110 H 0.11353 0.74322 0.64502 0.0
H3111 H 0.11936 0.7622 0.65198 0.0
H3112 H 0.11129 0.78708 0.61233 0.0
H3113 H 0.13305 0.80216 0.59004 0.0
H3114 H 0.00938 0.64278 0.70526 0.0
H3115 H 0.01326 0.62243 0.71554 0.0
H3116 H 0.97362 0.59113 0.68135 0.0
H3117 H 0.96978 0.61154 0.67067 0.0
H3118 H 0.99324 0.59904 0.73942 0.0
H3119 H 0.0036 0.57815 0.66462 0.0
H3120 H 0.00508 0.59618 0.66699 0.0
H3121 H 0.98702 0.57956 0.66491 0.0
C3122 C 0.00161 0.63161 0.69961 0.0
C3123 C 0.98923 0.62877 0.68721 0.0
C3124 C 0.00385 0.61998 0.7055 0.0
C3125 C 0.99381 0.60526 0.6991 0.0
C3126 C 0.98169 0.60243 0.68615 0.0
H3127 H 0.98196 0.52997 0.77125 0.0
H3128 H 0.9772 0.54549 0.7475 0.0
C3129 C 0.97945 0.6141 0.68016 0.0
C3130 C 0.99525 0.59285 0.70783 0.0
H3131 H 0.00027 0.56367 0.69504 0.0
C3132 C 0.99479 0.59133 0.72969 0.0
C3133 C 0.99733 0.58283 0.69512 0.0
C3134 C 0.99843 0.58428 0.67161 0.0
C3135 C 0.99633 0.58009 0.73921 0.0
C3136 C 0.99812 0.56988 0.72654 0.0
C3137 C 0.9987 0.57141 0.70467 0.0
C3138 C -4e-05 0.55799 0.73619 0.0
C3139 C 0.9963 0.57939 0.76285 0.0
C3140 C 0.01409 0.55923 0.7366 0.0
C3141 C 0.0168 0.55028 0.75004 0.0
C3142 C 0.00542 0.54003 0.76327 0.0
C3143 C 0.99093 0.53782 0.76125 0.0
C3144 C 0.98821 0.5467 0.74776 0.0
H3145 H 0.99786 0.58979 0.77027 0.0
H3146 H 0.98542 0.56996 0.76818 0.0
H3147 H 0.00529 0.57744 0.76851 0.0
H3148 H 0.02329 0.5679 0.72778 0.0
H3149 H 0.0281 0.55231 0.75144 0.0
H3150 H 0.3503 0.36421 0.70142 0.0
H3151 H 0.3698 0.38969 0.71006 0.0
H3152 H 0.40316 0.3812 0.68377 0.0
H3153 H 0.38362 0.35576 0.67458 0.0
H3154 H 0.39199 0.39608 0.73717 0.0
H3155 H 0.41655 0.42234 0.66093 0.0
H3156 H 0.39876 0.40521 0.66293 0.0
H3157 H 0.41595 0.40497 0.66483 0.0
C3158 C 0.36176 0.36784 0.69715 0.0
C3159 C 0.36544 0.35795 0.68741 0.0
C3160 C 0.37288 0.38242 0.70205 0.0
C3161 C 0.38793 0.38743 0.69737 0.0
C3162 C 0.3916 0.37772 0.68709 0.0
H3163 H 0.47066 0.45675 0.7487 0.0
H3164 H 0.45183 0.43746 0.72566 0.0
C3165 C 0.38043 0.36313 0.682 0.0
C3166 C 0.39981 0.40212 0.70549 0.0
H3167 H 0.43055 0.43523 0.69168 0.0
C3168 C 0.40029 0.4047 0.72717 0.0
C3169 C 0.41072 0.41332 0.69243 0.0
C3170 C 0.41042 0.41141 0.66896 0.0
C3171 C 0.41152 0.418 0.73623 0.0
C3172 C 0.42249 0.42915 0.72323 0.0
C3173 C 0.42204 0.42667 0.70153 0.0
C3174 C 0.43482 0.44308 0.73242 0.0
C3175 C 0.41182 0.41984 0.75976 0.0
C3176 C 0.43172 0.45313 0.74284 0.0
C3177 C 0.44244 0.46414 0.756 0.0
C3178 C 0.45644 0.4653 0.75883 0.0
C3179 C 0.46002 0.4562 0.7467 0.0
C3180 C 0.44925 0.44513 0.73359 0.0
H3181 H 0.40434 0.40912 0.76776 0.0
H3182 H 0.42336 0.42444 0.76594 0.0
H3183 H 0.40803 0.42779 0.76387 0.0
H3184 H 0.42066 0.45178 0.74194 0.0
H3185 H 0.43944 0.4711 0.76505 0.0
H3186 H 0.64257 0.04486 0.67333 0.0
H3187 H 0.61805 0.03778 0.68785 0.0
H3188 H 0.61385 0.9971 0.71142 0.0
H3189 H 0.63846 0.0041 0.69707 0.0
H3190 H 0.58873 0.01117 0.68194 0.0
H3191 H 0.61024 0.01929 0.76368 0.0
H3192 H 0.6225 0.02638 0.74129 0.0
H3193 H 0.61345 0.00692 0.74761 0.0
C3194 C 0.63643 0.03436 0.6815 0.0
C3195 C 0.64258 0.02513 0.68423 0.0
C3196 C 0.62238 0.03031 0.68969 0.0
C3197 C 0.61423 0.017 0.70085 0.0
C3198 C 0.62007 0.00751 0.70303 0.0
H3199 H 0.52495 0.97516 0.75342 0.0
H3200 H 0.54576 0.98211 0.72911 0.0
C3201 C 0.63412 0.01153 0.6948 0.0
C3202 C 0.60006 0.01354 0.71122 0.0
H3203 H 0.58446 0.01019 0.75942 0.0
C3204 C 0.58774 0.01093 0.69888 0.0
C3205 C 0.59892 0.01345 0.7333 0.0
C3206 C 0.61199 0.01677 0.74732 0.0
C3207 C 0.57421 0.00805 0.70812 0.0
C3208 C 0.57304 0.00776 0.7302 0.0
C3209 C 0.5854 0.01045 0.74247 0.0
C3210 C 0.55917 0.00462 0.74123 0.0
C3211 C 0.56137 0.00559 0.69427 0.0
C3212 C 0.55961 0.01511 0.7556 0.0
C3213 C 0.54778 0.01115 0.76948 0.0
C3214 C 0.53533 0.99662 0.76925 0.0
C3215 C 0.53433 0.9865 0.75372 0.0
C3216 C 0.54623 0.99045 0.73985 0.0
H3217 H 0.56511 0.00953 0.67805 0.0
H3218 H 0.553 0.99349 0.69353 0.0
H3219 H 0.55575 0.01143 0.70076 0.0
H3220 H 0.56949 0.0261 0.75691 0.0
H3221 H 0.54879 0.01915 0.78131 0.0
loop_
_geom_bond_atom_site_label_1
_geom_bond_atom_site_label_2
_geom_bond_distance
_geom_bond_site_symmetry_2
_ccdc_geom_bond_type
C0 O1 1.306 1_556 S
C0 O3 1.160 . S
O1 C0 1.306 1_554 S
O1 Cd2 2.228 . S
Cd2 O1 2.228 . S
Cd2 O6 2.273 . S
Cd2 O10 2.277 1_554 S
O3 C0 1.160 . S
O3 Cd4 2.203 1_656 S
Cd4 O3 2.203 1_454 S
Cd4 O6 2.411 1_455 S
Cd4 O7 2.333 . S
Cd4 O8 2.352 . S
Cd4 O12 2.277 1_554 S
Cd4 O13 2.356 . S
C5 O10 1.209 1_455 S
C5 O12 1.226 . S
O6 Cd2 2.273 . S
O6 Cd4 2.411 1_655 S
O6 C9 1.320 1_655 S
O7 Cd4 2.333 . S
O7 C9 1.214 . S
O8 Cd4 2.352 . S
O8 C11 1.258 . S
C9 O6 1.320 1_455 S
C9 O7 1.214 . S
O10 Cd2 2.277 1_556 S
O10 C5 1.209 1_655 S
C11 O8 1.258 . S
C11 O13 1.282 . S
O12 Cd4 2.277 1_556 S
O12 C5 1.226 . S
O13 Cd4 2.356 . S
O13 C11 1.282 . S
C14 O15 1.306 . S
C14 O17 1.160 . S
O15 C14 1.306 . S
O15 Cd16 2.228 . S
Cd16 O15 2.228 . S
Cd16 O20 2.273 1_554 S
Cd16 O24 2.277 . S
O17 C14 1.160 . S
O17 Cd18 2.203 . S
Cd18 O17 2.203 . S
Cd18 O20 2.411 1_554 S
Cd18 O21 2.333 1_554 S
Cd18 O22 2.352 1_554 S
Cd18 O26 2.277 . S
Cd18 O27 2.356 . S
C19 O24 1.209 . S
C19 O26 1.226 . S
O20 Cd16 2.273 1_556 S
O20 Cd18 2.411 1_556 S
O20 C23 1.320 . S
O21 Cd18 2.333 1_556 S
O21 C23 1.214 . S
O22 Cd18 2.352 1_556 S
O22 C25 1.258 . S
C23 O20 1.320 . S
C23 O21 1.214 . S
O24 Cd16 2.277 . S
O24 C19 1.209 . S
C25 O22 1.258 . S
C25 O27 1.282 1_556 S
O26 Cd18 2.277 . S
O26 C19 1.226 . S
O27 Cd18 2.356 . S
O27 C25 1.282 1_554 S
C28 O29 1.306 . S
C28 O31 1.160 . S
O29 C28 1.306 . S
O29 Cd30 2.228 . S
Cd30 O29 2.228 . S
Cd30 O34 2.273 1_554 S
Cd30 O38 2.277 . S
O31 C28 1.160 . S
O31 Cd32 2.203 1_565 S
Cd32 O31 2.203 1_545 S
Cd32 O34 2.411 1_544 S
Cd32 O35 2.333 1_554 S
Cd32 O36 2.352 1_554 S
Cd32 O40 2.277 . S
Cd32 O41 2.356 . S
C33 O38 1.209 1_545 S
C33 O40 1.226 . S
O34 Cd30 2.273 1_556 S
O34 Cd32 2.411 1_566 S
O34 C37 1.320 1_565 S
O35 Cd32 2.333 1_556 S
O35 C37 1.214 . S
O36 Cd32 2.352 1_556 S
O36 C39 1.258 . S
C37 O34 1.320 1_545 S
C37 O35 1.214 . S
O38 Cd30 2.277 . S
O38 C33 1.209 1_565 S
C39 O36 1.258 . S
C39 O41 1.282 1_556 S
O40 Cd32 2.277 . S
O40 C33 1.226 . S
O41 Cd32 2.356 . S
O41 C39 1.282 1_554 S
C42 O43 1.306 1_556 S
C42 O45 1.160 . S
O43 C42 1.306 1_554 S
O43 Cd44 2.228 . S
Cd44 O43 2.228 . S
Cd44 O48 2.273 . S
Cd44 O52 2.277 1_554 S
O45 C42 1.160 . S
O45 Cd46 2.203 1_656 S
Cd46 O45 2.203 1_454 S
Cd46 O48 2.411 1_455 S
Cd46 O49 2.333 . S
Cd46 O50 2.352 . S
Cd46 O54 2.277 1_554 S
Cd46 O55 2.356 . S
C47 O52 1.209 1_455 S
C47 O54 1.226 . S
O48 Cd44 2.273 . S
O48 Cd46 2.411 1_655 S
O48 C51 1.320 1_655 S
O49 Cd46 2.333 . S
O49 C51 1.214 . S
O50 Cd46 2.352 . S
O50 C53 1.258 . S
C51 O48 1.320 1_455 S
C51 O49 1.214 . S
O52 Cd44 2.277 1_556 S
O52 C47 1.209 1_655 S
C53 O50 1.258 . S
C53 O55 1.282 . S
O54 Cd46 2.277 1_556 S
O54 C47 1.226 . S
O55 Cd46 2.356 . S
O55 C53 1.282 . S
C56 O57 1.306 . S
C56 O59 1.160 . S
O57 C56 1.306 . S
O57 Cd58 2.228 . S
Cd58 O57 2.228 . S
Cd58 O62 2.273 1_554 S
Cd58 O66 2.277 . S
O59 C56 1.160 . S
O59 Cd60 2.203 . S
Cd60 O59 2.203 . S
Cd60 O62 2.411 1_554 S
Cd60 O63 2.333 1_554 S
Cd60 O64 2.352 1_554 S
Cd60 O68 2.277 . S
Cd60 O69 2.356 . S
C61 O66 1.209 . S
C61 O68 1.226 . S
O62 Cd58 2.273 1_556 S
O62 Cd60 2.411 1_556 S
O62 C65 1.320 . S
O63 Cd60 2.333 1_556 S
O63 C65 1.214 . S
O64 Cd60 2.352 1_556 S
O64 C67 1.258 . S
C65 O62 1.320 . S
C65 O63 1.214 . S
O66 Cd58 2.277 . S
O66 C61 1.209 . S
C67 O64 1.258 . S
C67 O69 1.282 1_556 S
O68 Cd60 2.277 . S
O68 C61 1.226 . S
O69 Cd60 2.356 . S
O69 C67 1.282 1_554 S
C70 O71 1.306 1_556 S
C70 O73 1.160 . S
O71 C70 1.306 1_554 S
O71 Cd72 2.228 . S
Cd72 O71 2.228 . S
Cd72 O76 2.273 . S
Cd72 O80 2.277 1_554 S
O73 C70 1.160 . S
O73 Cd74 2.203 1_546 S
Cd74 O73 2.203 1_564 S
Cd74 O76 2.411 1_565 S
Cd74 O77 2.333 . S
Cd74 O78 2.352 . S
Cd74 O82 2.277 1_554 S
Cd74 O83 2.356 . S
C75 O80 1.185 1_565 S
C75 O82 1.261 . S
O76 Cd72 2.273 . S
O76 Cd74 2.411 1_545 S
O76 C79 1.340 . S
O77 Cd74 2.333 . S
O77 C79 1.172 1_565 S
O78 Cd74 2.352 . S
O78 C81 1.258 . S
C79 O76 1.340 . S
C79 O77 1.172 1_545 S
O80 Cd72 2.277 1_556 S
O80 C75 1.185 1_545 S
C81 O78 1.258 . S
C81 O83 1.282 . S
O82 Cd74 2.277 1_556 S
O82 C75 1.261 . S
O83 Cd74 2.356 . S
O83 C81 1.282 . S
C84 O85 1.306 . S
C84 O87 1.160 . S
O85 C84 1.306 . S
O85 Cd86 2.228 . S
Cd86 O85 2.228 . S
Cd86 O90 2.273 . S
Cd86 O94 2.277 . S
O87 C84 1.160 . S
O87 Cd88 2.203 . S
Cd88 O87 2.203 . S
Cd88 O90 2.411 . S
Cd88 O91 2.333 . S
Cd88 O92 2.352 . S
Cd88 O96 2.277 . S
Cd88 O97 2.356 . S
C89 O94 1.209 . S
C89 O96 1.226 . S
O90 Cd86 2.273 . S
O90 Cd88 2.411 . S
O90 C93 1.320 . S
O91 Cd88 2.333 . S
O91 C93 1.214 . S
O92 Cd88 2.352 . S
O92 C95 1.258 . S
C93 O90 1.320 . S
C93 O91 1.214 . S
O94 Cd86 2.277 . S
O94 C89 1.209 . S
C95 O92 1.258 . S
C95 O97 1.282 . S
O96 Cd88 2.277 . S
O96 C89 1.226 . S
O97 Cd88 2.356 . S
O97 C95 1.282 . S
C98 O99 1.306 . S
C98 O101 1.160 . S
O99 C98 1.306 . S
O99 Cd100 2.228 1_545 S
Cd100 O99 2.228 1_565 S
Cd100 O104 2.273 . S
Cd100 O108 2.277 . S
O101 C98 1.160 . S
O101 Cd102 2.203 1_545 S
Cd102 O101 2.203 1_565 S
Cd102 O104 2.411 . S
Cd102 O105 2.333 . S
Cd102 O106 2.352 . S
Cd102 O110 2.277 . S
Cd102 O111 2.356 . S
C103 O108 1.209 . S
C103 O110 1.226 . S
O104 Cd100 2.273 . S
O104 Cd102 2.411 . S
O104 C107 1.320 . S
O105 Cd102 2.333 . S
O105 C107 1.214 . S
O106 Cd102 2.352 . S
O106 C109 1.258 . S
C107 O104 1.320 . S
C107 O105 1.214 . S
O108 Cd100 2.277 . S
O108 C103 1.209 . S
C109 O106 1.258 . S
C109 O111 1.282 . S
O110 Cd102 2.277 . S
O110 C103 1.226 . S
O111 Cd102 2.356 . S
O111 C109 1.282 . S
C112 O113 1.244 1_655 S
C112 O115 1.160 1_655 S
O113 C112 1.244 1_455 S
O113 Cd114 2.316 . S
Cd114 O113 2.316 . S
Cd114 O118 2.273 . S
Cd114 O122 2.277 . S
O115 C112 1.160 1_455 S
O115 Cd116 2.203 . S
Cd116 O115 2.203 . S
Cd116 O118 2.411 . S
Cd116 O119 2.333 . S
Cd116 O120 2.352 . S
Cd116 O124 2.277 . S
Cd116 O125 2.356 . S
C117 O122 1.209 . S
C117 O124 1.226 . S
O118 Cd114 2.273 . S
O118 Cd116 2.411 . S
O118 C121 1.320 . S
O119 Cd116 2.333 . S
O119 C121 1.214 . S
O120 Cd116 2.352 . S
O120 C123 1.258 . S
C121 O118 1.320 . S
C121 O119 1.214 . S
O122 Cd114 2.277 . S
O122 C117 1.209 . S
C123 O120 1.258 . S
C123 O125 1.282 . S
O124 Cd116 2.277 . S
O124 C117 1.226 . S
O125 Cd116 2.356 . S
O125 C123 1.282 . S
C126 O127 1.306 . S
C126 O129 1.160 . S
O127 C126 1.306 . S
O127 Cd128 2.228 . S
Cd128 O127 2.228 . S
Cd128 O132 2.273 . S
Cd128 O136 2.277 . S
O129 C126 1.160 . S
O129 Cd130 2.203 . S
Cd130 O129 2.203 . S
Cd130 O132 2.411 . S
Cd130 O133 2.333 . S
Cd130 O134 2.352 1_565 S
Cd130 O138 2.277 . S
Cd130 O139 2.356 1_565 S
C131 O136 1.209 . S
C131 O138 1.226 . S
O132 Cd128 2.273 . S
O132 Cd130 2.411 . S
O132 C135 1.320 . S
O133 Cd130 2.333 . S
O133 C135 1.214 . S
O134 Cd130 2.352 1_545 S
O134 C137 1.258 . S
C135 O132 1.320 . S
C135 O133 1.214 . S
O136 Cd128 2.277 . S
O136 C131 1.209 . S
C137 O134 1.258 . S
C137 O139 1.282 . S
O138 Cd130 2.277 . S
O138 C131 1.226 . S
O139 Cd130 2.356 1_545 S
O139 C137 1.282 . S
C140 O141 1.306 . S
C140 O143 1.158 1_655 S
O141 C140 1.306 . S
O141 Cd142 2.228 1_655 S
Cd142 O141 2.228 1_455 S
Cd142 O146 2.273 . S
Cd142 O150 2.277 . S
O143 C140 1.158 1_455 S
O143 Cd144 2.205 . S
Cd144 O143 2.205 . S
Cd144 O146 2.411 . S
Cd144 O147 2.333 . S
Cd144 O148 2.352 . S
Cd144 O152 2.277 . S
Cd144 O153 2.356 . S
C145 O150 1.209 . S
C145 O152 1.226 . S
O146 Cd142 2.273 . S
O146 Cd144 2.411 . S
O146 C149 1.320 . S
O147 Cd144 2.333 . S
O147 C149 1.214 . S
O148 Cd144 2.352 . S
O148 C151 1.258 . S
C149 O146 1.320 . S
C149 O147 1.214 . S
O150 Cd142 2.277 . S
O150 C145 1.209 . S
C151 O148 1.258 . S
C151 O153 1.282 . S
O152 Cd144 2.277 . S
O152 C145 1.226 . S
O153 Cd144 2.356 . S
O153 C151 1.282 . S
C154 O155 1.306 . S
C154 O157 1.160 . S
O155 C154 1.306 . S
O155 Cd156 2.228 . S
Cd156 O155 2.228 . S
Cd156 O160 2.273 . S
Cd156 O164 2.277 . S
O157 C154 1.160 . S
O157 Cd158 2.203 . S
Cd158 O157 2.203 . S
Cd158 O160 2.411 . S
Cd158 O161 2.333 . S
Cd158 O162 2.352 . S
Cd158 O166 2.277 . S
Cd158 O167 2.356 . S
C159 O164 1.209 . S
C159 O166 1.226 . S
O160 Cd156 2.273 . S
O160 Cd158 2.411 . S
O160 C163 1.320 . S
O161 Cd158 2.333 . S
O161 C163 1.214 . S
O162 Cd158 2.352 . S
O162 C165 1.258 . S
C163 O160 1.320 . S
C163 O161 1.214 . S
O164 Cd156 2.277 . S
O164 C159 1.209 . S
C165 O162 1.258 . S
C165 O167 1.282 . S
O166 Cd158 2.277 . S
O166 C159 1.226 . S
O167 Cd158 2.356 . S
O167 C165 1.282 . S
C168 O169 1.306 . S
C168 O171 1.160 . S
O169 C168 1.306 . S
O169 Cd170 2.228 1_565 S
Cd170 O169 2.228 1_545 S
Cd170 O174 2.273 . S
Cd170 O178 2.277 . S
O171 C168 1.160 . S
O171 Cd172 2.180 1_565 S
Cd172 O171 2.180 1_545 S
Cd172 O174 2.411 . S
Cd172 O175 2.333 . S
Cd172 O176 2.352 . S
Cd172 O180 2.277 . S
Cd172 O181 2.356 . S
C173 O178 1.209 . S
C173 O180 1.226 . S
O174 Cd170 2.273 . S
O174 Cd172 2.411 . S
O174 C177 1.320 . S
O175 Cd172 2.333 . S
O175 C177 1.214 . S
O176 Cd172 2.352 . S
O176 C179 1.258 . S
C177 O174 1.320 . S
C177 O175 1.214 . S
O178 Cd170 2.277 . S
O178 C173 1.209 . S
C179 O176 1.258 . S
C179 O181 1.282 . S
O180 Cd172 2.277 . S
O180 C173 1.226 . S
O181 Cd172 2.356 . S
O181 C179 1.282 . S
C182 O183 1.306 . S
C182 O185 1.160 . S
O183 C182 1.306 . S
O183 Cd184 2.228 . S
Cd184 O183 2.228 . S
Cd184 O188 2.273 . S
Cd184 O192 2.277 . S
O185 C182 1.160 . S
O185 Cd186 2.203 . S
Cd186 O185 2.203 . S
Cd186 O188 2.411 . S
Cd186 O189 2.333 . S
Cd186 O190 2.352 1_655 S
Cd186 O194 2.277 . S
Cd186 O195 2.356 1_655 S
C187 O192 1.209 . S
C187 O194 1.226 . S
O188 Cd184 2.273 . S
O188 Cd186 2.411 . S
O188 C191 1.320 . S
O189 Cd186 2.333 . S
O189 C191 1.214 . S
O190 Cd186 2.352 1_455 S
O190 C193 1.258 . S
C191 O188 1.320 . S
C191 O189 1.214 . S
O192 Cd184 2.277 . S
O192 C187 1.209 . S
C193 O190 1.258 . S
C193 O195 1.282 . S
O194 Cd186 2.277 . S
O194 C187 1.226 . S
O195 Cd186 2.356 1_455 S
O195 C193 1.282 . S
C196 O197 1.306 . S
C196 O199 1.160 . S
O197 C196 1.306 . S
O197 Cd198 2.228 . S
Cd198 O197 2.228 . S
Cd198 O202 2.273 . S
Cd198 O206 2.277 . S
O199 C196 1.160 . S
O199 Cd200 2.203 . S
Cd200 O199 2.203 . S
Cd200 O202 2.411 . S
Cd200 O203 2.333 . S
Cd200 O204 2.352 . S
Cd200 O208 2.277 . S
Cd200 O209 2.356 . S
C201 O206 1.209 . S
C201 O208 1.226 . S
O202 Cd198 2.273 . S
O202 Cd200 2.411 . S
O202 C205 1.320 . S
O203 Cd200 2.333 . S
O203 C205 1.214 . S
O204 Cd200 2.352 . S
O204 C207 1.258 . S
C205 O202 1.320 . S
C205 O203 1.214 . S
O206 Cd198 2.277 . S
O206 C201 1.209 . S
C207 O204 1.258 . S
C207 O209 1.282 . S
O208 Cd200 2.277 . S
O208 C201 1.226 . S
O209 Cd200 2.356 . S
O209 C207 1.282 . S
C210 O211 1.306 . S
C210 O213 1.160 . S
O211 C210 1.306 . S
O211 Cd212 2.228 . S
Cd212 O211 2.228 . S
Cd212 O216 2.273 . S
Cd212 O220 2.277 . S
O213 C210 1.160 . S
O213 Cd214 2.203 . S
Cd214 O213 2.203 . S
Cd214 O216 2.411 . S
Cd214 O217 2.333 . S
Cd214 O218 2.352 . S
Cd214 O222 2.277 . S
Cd214 O223 2.356 . S
C215 O220 1.209 . S
C215 O222 1.226 . S
O216 Cd212 2.273 . S
O216 Cd214 2.411 . S
O216 C219 1.320 . S
O217 Cd214 2.333 . S
O217 C219 1.214 . S
O218 Cd214 2.352 . S
O218 C221 1.258 . S
C219 O216 1.320 . S
C219 O217 1.214 . S
O220 Cd212 2.277 . S
O220 C215 1.209 . S
C221 O218 1.258 . S
C221 O223 1.282 . S
O222 Cd214 2.277 . S
O222 C215 1.226 . S
O223 Cd214 2.356 . S
O223 C221 1.282 . S
C224 O225 1.306 . S
C224 O227 1.160 . S
O225 C224 1.306 . S
O225 Cd226 2.228 . S
Cd226 O225 2.228 . S
Cd226 O230 2.273 . S
Cd226 O234 2.277 . S
O227 C224 1.160 . S
O227 Cd228 2.203 . S
Cd228 O227 2.203 . S
Cd228 O230 2.411 . S
Cd228 O231 2.333 . S
Cd228 O232 2.352 1_545 S
Cd228 O236 2.277 . S
Cd228 O237 2.356 1_545 S
C229 O234 1.209 . S
C229 O236 1.226 . S
O230 Cd226 2.273 . S
O230 Cd228 2.411 . S
O230 C233 1.320 . S
O231 Cd228 2.333 . S
O231 C233 1.214 . S
O232 Cd228 2.352 1_565 S
O232 C235 1.258 . S
C233 O230 1.320 . S
C233 O231 1.214 . S
O234 Cd226 2.277 . S
O234 C229 1.209 . S
C235 O232 1.258 . S
C235 O237 1.282 . S
O236 Cd228 2.277 . S
O236 C229 1.226 . S
O237 Cd228 2.356 1_565 S
O237 C235 1.282 . S
C238 O239 1.306 . S
C238 O241 1.160 . S
O239 C238 1.306 . S
O239 Cd240 2.228 1_455 S
Cd240 O239 2.228 1_655 S
Cd240 O244 2.273 . S
Cd240 O248 2.277 . S
O241 C238 1.160 . S
O241 Cd242 2.203 1_455 S
Cd242 O241 2.203 1_655 S
Cd242 O244 2.411 . S
Cd242 O245 2.333 . S
Cd242 O246 2.352 . S
Cd242 O250 2.277 . S
Cd242 O251 2.356 . S
C243 O248 1.209 . S
C243 O250 1.226 . S
O244 Cd240 2.273 . S
O244 Cd242 2.411 . S
O244 C247 1.320 . S
O245 Cd242 2.333 . S
O245 C247 1.214 . S
O246 Cd242 2.352 . S
O246 C249 1.258 . S
C247 O244 1.320 . S
C247 O245 1.214 . S
O248 Cd240 2.277 . S
O248 C243 1.209 . S
C249 O246 1.258 . S
C249 O251 1.282 . S
O250 Cd242 2.277 . S
O250 C243 1.226 . S
O251 Cd242 2.356 . S
O251 C249 1.282 . S
H252 C260 0.930 . S
H253 C263 0.930 . S
H254 C265 0.930 . S
H255 C266 0.970 . S
H256 C266 0.970 . S
H257 C268 0.930 . S
H258 C270 0.930 . S
H259 C272 0.930 . S
C260 H252 0.930 . S
C260 C261 1.382 . S
C260 C262 1.426 . S
C261 C260 1.382 . S
C261 C265 1.389 . S
C262 C260 1.426 . S
C262 C263 1.375 . S
C262 C266 1.532 . S
C263 H253 0.930 . S
C263 C262 1.375 . S
C263 C264 1.416 . S
C264 C263 1.416 . S
C264 C265 1.371 . S
C265 H254 0.930 . S
C265 C261 1.389 . S
C265 C264 1.371 . S
C266 H255 0.970 . S
C266 H256 0.970 . S
C266 C262 1.532 . S
C266 C267 1.499 . S
C267 C266 1.499 . S
C267 C268 1.370 . S
C267 C272 1.415 . S
C268 H257 0.930 . S
C268 C267 1.370 . S
C268 C269 1.407 . S
C269 C268 1.407 . S
C269 C270 1.365 . S
C270 H258 0.930 . S
C270 C269 1.365 . S
C270 C271 1.393 . S
C271 C270 1.393 . S
C271 C272 1.387 . S
C272 H259 0.930 . S
C272 C267 1.415 . S
C272 C271 1.387 . S
H273 C281 0.930 . S
H274 C284 0.930 . S
H275 C286 0.930 . S
H276 C287 0.970 . S
H277 C287 0.970 . S
H278 C289 0.930 . S
H279 C291 0.930 . S
H280 C293 0.930 . S
C281 H273 0.930 . S
C281 C282 1.382 . S
C281 C283 1.426 . S
C282 C281 1.382 . S
C282 C286 1.389 . S
C283 C281 1.426 . S
C283 C284 1.375 . S
C283 C287 1.532 . S
C284 H274 0.930 . S
C284 C283 1.375 . S
C284 C285 1.416 . S
C285 C284 1.416 . S
C285 C286 1.371 . S
C286 H275 0.930 . S
C286 C282 1.389 . S
C286 C285 1.371 . S
C287 H276 0.970 . S
C287 H277 0.970 . S
C287 C283 1.532 . S
C287 C288 1.499 . S
C288 C287 1.499 . S
C288 C289 1.370 . S
C288 C293 1.415 . S
C289 H278 0.930 . S
C289 C288 1.370 . S
C289 C290 1.407 . S
C290 C289 1.407 . S
C290 C291 1.365 . S
C291 H279 0.930 . S
C291 C290 1.365 . S
C291 C292 1.393 . S
C292 C291 1.393 . S
C292 C293 1.387 . S
C293 H280 0.930 . S
C293 C288 1.415 . S
C293 C292 1.387 . S
H294 C302 0.930 . S
H295 C305 0.930 . S
H296 C307 0.930 . S
H297 C308 0.970 . S
H298 C308 0.970 . S
H299 C310 0.930 . S
H300 C312 0.930 . S
H301 C314 0.930 . S
C302 H294 0.930 . S
C302 C303 1.382 . S
C302 C304 1.426 . S
C303 C302 1.382 . S
C303 C307 1.389 . S
C304 C302 1.426 . S
C304 C305 1.375 . S
C304 C308 1.532 . S
C305 H295 0.930 . S
C305 C304 1.375 . S
C305 C306 1.416 . S
C306 C305 1.416 . S
C306 C307 1.371 . S
C307 H296 0.930 . S
C307 C303 1.389 . S
C307 C306 1.371 . S
C308 H297 0.970 . S
C308 H298 0.970 . S
C308 C304 1.532 . S
C308 C309 1.499 . S
C309 C308 1.499 . S
C309 C310 1.370 . S
C309 C314 1.415 . S
C310 H299 0.930 . S
C310 C309 1.370 . S
C310 C311 1.407 . S
C311 C310 1.407 . S
C311 C312 1.365 . S
C312 H300 0.930 . S
C312 C311 1.365 . S
C312 C313 1.393 . S
C313 C312 1.393 . S
C313 C314 1.387 . S
C314 H301 0.930 . S
C314 C309 1.415 . S
C314 C313 1.387 . S
H315 C323 0.930 . S
H316 C326 0.930 . S
H317 C328 0.930 . S
H318 C329 0.970 . S
H319 C329 0.970 . S
H320 C331 0.930 . S
H321 C333 0.930 . S
H322 C335 0.930 . S
C323 H315 0.930 . S
C323 C324 1.382 . S
C323 C325 1.426 . S
C324 C323 1.382 . S
C324 C328 1.389 . S
C325 C323 1.426 . S
C325 C326 1.375 . S
C325 C329 1.532 . S
C326 H316 0.930 . S
C326 C325 1.375 . S
C326 C327 1.416 . S
C327 C326 1.416 . S
C327 C328 1.371 . S
C328 H317 0.930 . S
C328 C324 1.389 . S
C328 C327 1.371 . S
C329 H318 0.970 . S
C329 H319 0.970 . S
C329 C325 1.532 . S
C329 C330 1.499 . S
C330 C329 1.499 . S
C330 C331 1.370 . S
C330 C335 1.415 . S
C331 H320 0.930 . S
C331 C330 1.370 . S
C331 C332 1.407 . S
C332 C331 1.407 . S
C332 C333 1.365 . S
C333 H321 0.930 . S
C333 C332 1.365 . S
C333 C334 1.393 . S
C334 C333 1.393 . S
C334 C335 1.387 . S
C335 H322 0.930 . S
C335 C330 1.415 . S
C335 C334 1.387 . S
H336 C344 0.930 . S
H337 C347 0.930 . S
H338 C349 0.930 . S
H339 C350 0.970 . S
H340 C350 0.970 . S
H341 C352 0.930 . S
H342 C354 0.930 . S
H343 C356 0.930 . S
C344 H336 0.930 . S
C344 C345 1.382 . S
C344 C346 1.426 . S
C345 C344 1.382 . S
C345 C349 1.389 . S
C346 C344 1.426 . S
C346 C347 1.375 . S
C346 C350 1.532 . S
C347 H337 0.930 . S
C347 C346 1.375 . S
C347 C348 1.416 . S
C348 C347 1.416 . S
C348 C349 1.371 . S
C349 H338 0.930 . S
C349 C345 1.389 . S
C349 C348 1.371 . S
C350 H339 0.970 . S
C350 H340 0.970 . S
C350 C346 1.532 . S
C350 C351 1.499 . S
C351 C350 1.499 . S
C351 C352 1.370 . S
C351 C356 1.415 . S
C352 H341 0.930 . S
C352 C351 1.370 . S
C352 C353 1.407 . S
C353 C352 1.407 . S
C353 C354 1.365 . S
C354 H342 0.930 . S
C354 C353 1.365 . S
C354 C355 1.393 . S
C355 C354 1.393 . S
C355 C356 1.387 . S
C356 H343 0.930 . S
C356 C351 1.415 . S
C356 C355 1.387 . S
H357 C365 0.930 . S
H358 C368 0.930 . S
H359 C370 0.930 . S
H360 C371 0.970 . S
H361 C371 0.970 . S
H362 C373 0.930 . S
H363 C375 0.930 . S
H364 C377 0.930 . S
C365 H357 0.930 . S
C365 C366 1.382 . S
C365 C367 1.426 . S
C366 C365 1.382 . S
C366 C370 1.389 . S
C367 C365 1.426 . S
C367 C368 1.375 . S
C367 C371 1.532 . S
C368 H358 0.930 . S
C368 C367 1.375 . S
C368 C369 1.416 . S
C369 C368 1.416 . S
C369 C370 1.371 . S
C370 H359 0.930 . S
C370 C366 1.389 . S
C370 C369 1.371 . S
C371 H360 0.970 . S
C371 H361 0.970 . S
C371 C367 1.532 . S
C371 C372 1.499 . S
C372 C371 1.499 . S
C372 C373 1.370 . S
C372 C377 1.415 . S
C373 H362 0.930 . S
C373 C372 1.370 . S
C373 C374 1.407 . S
C374 C373 1.407 . S
C374 C375 1.365 . S
C375 H363 0.930 . S
C375 C374 1.365 . S
C375 C376 1.393 . S
C376 C375 1.393 . S
C376 C377 1.387 . S
C377 H364 0.930 . S
C377 C372 1.415 . S
C377 C376 1.387 . S
H378 C386 0.930 . S
H379 C389 0.930 . S
H380 C391 0.930 . S
H381 C392 0.970 . S
H382 C392 0.970 . S
H383 C394 0.930 . S
H384 C396 0.930 . S
H385 C398 0.930 . S
C386 H378 0.930 . S
C386 C387 1.382 . S
C386 C388 1.426 . S
C387 C386 1.382 . S
C387 C391 1.389 . S
C388 C386 1.426 . S
C388 C389 1.375 . S
C388 C392 1.532 . S
C389 H379 0.930 . S
C389 C388 1.375 . S
C389 C390 1.416 . S
C390 C389 1.416 . S
C390 C391 1.371 . S
C391 H380 0.930 . S
C391 C387 1.389 . S
C391 C390 1.371 . S
C392 H381 0.970 . S
C392 H382 0.970 . S
C392 C388 1.532 . S
C392 C393 1.499 . S
C393 C392 1.499 . S
C393 C394 1.370 . S
C393 C398 1.415 . S
C394 H383 0.930 . S
C394 C393 1.370 . S
C394 C395 1.407 . S
C395 C394 1.407 . S
C395 C396 1.365 . S
C396 H384 0.930 . S
C396 C395 1.365 . S
C396 C397 1.393 . S
C397 C396 1.393 . S
C397 C398 1.387 . S
C398 H385 0.930 . S
C398 C393 1.415 . S
C398 C397 1.387 . S
H399 C407 0.930 . S
H400 C410 0.930 . S
H401 C412 0.930 . S
H402 C413 0.970 . S
H403 C413 0.970 . S
H404 C415 0.930 . S
H405 C417 0.930 . S
H406 C419 0.930 . S
C407 H399 0.930 . S
C407 C408 1.382 . S
C407 C409 1.426 . S
C408 C407 1.382 . S
C408 C412 1.389 . S
C409 C407 1.426 . S
C409 C410 1.375 . S
C409 C413 1.532 . S
C410 H400 0.930 . S
C410 C409 1.375 . S
C410 C411 1.416 . S
C411 C410 1.416 . S
C411 C412 1.371 . S
C412 H401 0.930 . S
C412 C408 1.389 . S
C412 C411 1.371 . S
C413 H402 0.970 . S
C413 H403 0.970 . S
C413 C409 1.532 . S
C413 C414 1.499 . S
C414 C413 1.499 . S
C414 C415 1.370 . S
C414 C419 1.415 . S
C415 H404 0.930 . S
C415 C414 1.370 . S
C415 C416 1.407 . S
C416 C415 1.407 . S
C416 C417 1.365 . S
C417 H405 0.930 . S
C417 C416 1.365 . S
C417 C418 1.393 . S
C418 C417 1.393 . S
C418 C419 1.387 . S
C419 H406 0.930 . S
C419 C414 1.415 . S
C419 C418 1.387 . S
H420 C428 0.930 . S
H421 C431 0.930 . S
H422 C433 0.930 . S
H423 C434 0.970 . S
H424 C434 0.970 . S
H425 C436 0.930 . S
H426 C438 0.930 . S
H427 C440 0.930 . S
C428 H420 0.930 . S
C428 C429 1.382 . S
C428 C430 1.426 . S
C429 C428 1.382 . S
C429 C433 1.389 . S
C430 C428 1.426 . S
C430 C431 1.375 . S
C430 C434 1.532 . S
C431 H421 0.930 . S
C431 C430 1.375 . S
C431 C432 1.416 . S
C432 C431 1.416 . S
C432 C433 1.371 . S
C433 H422 0.930 . S
C433 C429 1.389 . S
C433 C432 1.371 . S
C434 H423 0.970 . S
C434 H424 0.970 . S
C434 C430 1.532 . S
C434 C435 1.499 . S
C435 C434 1.499 . S
C435 C436 1.370 . S
C435 C440 1.415 . S
C436 H425 0.930 . S
C436 C435 1.370 . S
C436 C437 1.407 . S
C437 C436 1.407 . S
C437 C438 1.365 . S
C438 H426 0.930 . S
C438 C437 1.365 . S
C438 C439 1.393 . S
C439 C438 1.393 . S
C439 C440 1.387 . S
C440 H427 0.930 . S
C440 C435 1.415 . S
C440 C439 1.387 . S
H441 C449 0.930 . S
H442 C452 0.930 . S
H443 C454 0.930 . S
H444 C455 0.970 . S
H445 C455 0.970 . S
H446 C457 0.930 . S
H447 C459 0.930 . S
H448 C461 0.930 . S
C449 H441 0.930 . S
C449 C450 1.382 . S
C449 C451 1.426 . S
C450 C449 1.382 . S
C450 C454 1.389 1_455 S
C451 C449 1.426 . S
C451 C452 1.375 . S
C451 C455 1.532 . S
C452 H442 0.930 . S
C452 C451 1.375 . S
C452 C453 1.416 . S
C453 C452 1.416 . S
C453 C454 1.371 1_455 S
C454 H443 0.930 . S
C454 C450 1.389 1_655 S
C454 C453 1.371 1_655 S
C455 H444 0.970 . S
C455 H445 0.970 . S
C455 C451 1.532 . S
C455 C456 1.499 . S
C456 C455 1.499 . S
C456 C457 1.370 . S
C456 C461 1.415 . S
C457 H446 0.930 . S
C457 C456 1.370 . S
C457 C458 1.411 . S
C458 C457 1.411 . S
C458 C459 1.371 1_455 S
C459 H447 0.930 . S
C459 C458 1.371 1_655 S
C459 C460 1.393 1_655 S
C460 C459 1.393 1_455 S
C460 C461 1.387 . S
C461 H448 0.930 . S
C461 C456 1.415 . S
C461 C460 1.387 . S
H462 C470 0.930 . S
H463 C473 0.930 . S
H464 C475 0.930 . S
H465 C476 0.970 . S
H466 C476 0.970 . S
H467 C478 0.930 . S
H468 C480 0.930 . S
H469 C482 0.930 . S
C470 H462 0.930 . S
C470 C471 1.382 . S
C470 C472 1.426 . S
C471 C470 1.382 . S
C471 C475 1.389 . S
C472 C470 1.426 . S
C472 C473 1.375 . S
C472 C476 1.532 . S
C473 H463 0.930 . S
C473 C472 1.375 . S
C473 C474 1.416 . S
C474 C473 1.416 . S
C474 C475 1.371 . S
C475 H464 0.930 . S
C475 C471 1.389 . S
C475 C474 1.371 . S
C476 H465 0.970 . S
C476 H466 0.970 . S
C476 C472 1.532 . S
C476 C477 1.499 . S
C477 C476 1.499 . S
C477 C478 1.370 . S
C477 C482 1.415 . S
C478 H467 0.930 . S
C478 C477 1.370 . S
C478 C479 1.407 . S
C479 C478 1.407 . S
C479 C480 1.365 . S
C480 H468 0.930 . S
C480 C479 1.365 . S
C480 C481 1.393 . S
C481 C480 1.393 . S
C481 C482 1.387 . S
C482 H469 0.930 . S
C482 C477 1.415 . S
C482 C481 1.387 . S
H483 C491 0.930 . S
H484 C494 0.930 . S
H485 C496 0.930 . S
H486 C497 0.970 . S
H487 C497 0.970 . S
H488 C499 0.930 . S
H489 C501 0.930 . S
H490 C503 0.930 . S
C491 H483 0.930 . S
C491 C492 1.382 . S
C491 C493 1.426 . S
C492 C491 1.382 . S
C492 C496 1.389 1_565 S
C493 C491 1.426 . S
C493 C494 1.375 . S
C493 C497 1.532 . S
C494 H484 0.930 . S
C494 C493 1.375 . S
C494 C495 1.416 . S
C495 C494 1.416 . S
C495 C496 1.371 1_565 S
C496 H485 0.930 . S
C496 C492 1.389 1_545 S
C496 C495 1.371 1_545 S
C497 H486 0.970 . S
C497 H487 0.970 . S
C497 C493 1.532 . S
C497 C498 1.499 . S
C498 C497 1.499 . S
C498 C499 1.370 . S
C498 C503 1.415 . S
C499 H488 0.930 . S
C499 C498 1.370 . S
C499 C500 1.431 . S
C500 C499 1.431 . S
C500 C501 1.355 1_565 S
C501 H489 0.930 . S
C501 C500 1.355 1_545 S
C501 C502 1.393 1_545 S
C502 C501 1.393 1_565 S
C502 C503 1.387 . S
C503 H490 0.930 . S
C503 C498 1.415 . S
C503 C502 1.387 . S
H504 C512 0.930 . S
H505 C515 0.930 . S
H506 C517 0.930 . S
H507 C518 0.970 . S
H508 C518 0.970 . S
H509 C520 0.930 . S
H510 C522 0.930 . S
H511 C524 0.930 . S
C512 H504 0.930 . S
C512 C513 1.382 . S
C512 C514 1.426 . S
C513 C512 1.382 . S
C513 C517 1.389 1_565 S
C514 C512 1.426 . S
C514 C515 1.375 . S
C514 C518 1.532 . S
C515 H505 0.930 . S
C515 C514 1.375 . S
C515 C516 1.486 . S
C516 C515 1.486 . S
C516 C517 1.345 1_565 S
C517 H506 0.930 . S
C517 C513 1.389 1_545 S
C517 C516 1.345 1_545 S
C518 H507 0.970 . S
C518 H508 0.970 . S
C518 C514 1.532 . S
C518 C519 1.499 . S
C519 C518 1.499 . S
C519 C520 1.370 . S
C519 C524 1.415 . S
C520 H509 0.930 . S
C520 C519 1.370 . S
C520 C521 1.407 . S
C521 C520 1.407 . S
C521 C522 1.365 1_565 S
C522 H510 0.930 . S
C522 C521 1.365 1_545 S
C522 C523 1.393 1_545 S
C523 C522 1.393 1_565 S
C523 C524 1.387 . S
C524 H511 0.930 . S
C524 C519 1.415 . S
C524 C523 1.387 . S
H525 C533 0.930 . S
H526 C536 0.930 . S
H527 C538 0.930 . S
H528 C539 0.970 . S
H529 C539 0.970 . S
H530 C541 0.930 . S
H531 C543 0.930 . S
H532 C545 0.930 . S
C533 H525 0.930 . S
C533 C534 1.382 . S
C533 C535 1.426 . S
C534 C533 1.382 . S
C534 C538 1.389 1_455 S
C535 C533 1.426 . S
C535 C536 1.375 . S
C535 C539 1.532 . S
C536 H526 0.930 . S
C536 C535 1.375 . S
C536 C537 1.416 . S
C537 C536 1.416 . S
C537 C538 1.371 1_455 S
C538 H527 0.930 . S
C538 C534 1.389 1_655 S
C538 C537 1.371 1_655 S
C539 H528 0.970 . S
C539 H529 0.970 . S
C539 C535 1.532 . S
C539 C540 1.499 . S
C540 C539 1.499 . S
C540 C541 1.370 . S
C540 C545 1.415 . S
C541 H530 0.930 . S
C541 C540 1.370 . S
C541 C542 1.407 . S
C542 C541 1.407 . S
C542 C543 1.365 1_455 S
C543 H531 0.930 . S
C543 C542 1.365 1_655 S
C543 C544 1.393 1_655 S
C544 C543 1.393 1_455 S
C544 C545 1.387 . S
C545 H532 0.930 . S
C545 C540 1.415 . S
C545 C544 1.387 . S
H546 C554 0.930 . S
H547 C557 0.930 . S
H548 C559 0.930 . S
H549 C560 0.970 . S
H550 C560 0.970 . S
H551 C562 0.930 . S
H552 C564 0.930 . S
H553 C566 0.930 . S
C554 H546 0.930 . S
C554 C555 1.382 . S
C554 C556 1.426 . S
C555 C554 1.382 . S
C555 C559 1.389 . S
C556 C554 1.426 . S
C556 C557 1.375 . S
C556 C560 1.532 . S
C557 H547 0.930 . S
C557 C556 1.375 . S
C557 C558 1.416 . S
C558 C557 1.416 . S
C558 C559 1.371 . S
C559 H548 0.930 . S
C559 C555 1.389 . S
C559 C558 1.371 . S
C560 H549 0.970 . S
C560 H550 0.970 . S
C560 C556 1.532 . S
C560 C561 1.499 . S
C561 C560 1.499 . S
C561 C562 1.370 . S
C561 C566 1.415 . S
C562 H551 0.930 . S
C562 C561 1.370 . S
C562 C563 1.407 . S
C563 C562 1.407 . S
C563 C564 1.365 . S
C564 H552 0.930 . S
C564 C563 1.365 . S
C564 C565 1.393 . S
C565 C564 1.393 . S
C565 C566 1.387 . S
C566 H553 0.930 . S
C566 C561 1.415 . S
C566 C565 1.387 . S
H567 C575 0.930 . S
H568 C578 0.930 . S
H569 C580 0.930 . S
H570 C581 0.970 . S
H571 C581 0.970 . S
H572 C583 0.930 . S
H573 C585 0.930 . S
H574 C587 0.930 . S
C575 H567 0.930 . S
C575 C576 1.382 . S
C575 C577 1.426 . S
C576 C575 1.382 . S
C576 C580 1.389 . S
C577 C575 1.426 . S
C577 C578 1.375 . S
C577 C581 1.532 . S
C578 H568 0.930 . S
C578 C577 1.375 . S
C578 C579 1.416 . S
C579 C578 1.416 . S
C579 C580 1.371 . S
C580 H569 0.930 . S
C580 C576 1.389 . S
C580 C579 1.371 . S
C581 H570 0.970 . S
C581 H571 0.970 . S
C581 C577 1.532 . S
C581 C582 1.499 . S
C582 C581 1.499 . S
C582 C583 1.370 . S
C582 C587 1.415 . S
C583 H572 0.930 . S
C583 C582 1.370 . S
C583 C584 1.407 . S
C584 C583 1.407 . S
C584 C585 1.365 . S
C585 H573 0.930 . S
C585 C584 1.365 . S
C585 C586 1.393 . S
C586 C585 1.393 . S
C586 C587 1.387 . S
C587 H574 0.930 . S
C587 C582 1.415 . S
C587 C586 1.387 . S
H588 C596 0.930 . S
H589 C599 0.930 . S
H590 C601 0.930 . S
H591 C602 0.970 . S
H592 C602 0.970 . S
H593 C604 0.930 . S
H594 C606 0.930 . S
H595 C608 0.930 . S
C596 H588 0.930 . S
C596 C597 1.382 . S
C596 C598 1.426 . S
C597 C596 1.382 . S
C597 C601 1.389 . S
C598 C596 1.426 . S
C598 C599 1.375 . S
C598 C602 1.532 . S
C599 H589 0.930 . S
C599 C598 1.375 . S
C599 C600 1.416 . S
C600 C599 1.416 . S
C600 C601 1.371 . S
C601 H590 0.930 . S
C601 C597 1.389 . S
C601 C600 1.371 . S
C602 H591 0.970 . S
C602 H592 0.970 . S
C602 C598 1.532 . S
C602 C603 1.499 . S
C603 C602 1.499 . S
C603 C604 1.370 . S
C603 C608 1.415 . S
C604 H593 0.930 . S
C604 C603 1.370 . S
C604 C605 1.407 . S
C605 C604 1.407 . S
C605 C606 1.365 . S
C606 H594 0.930 . S
C606 C605 1.365 . S
C606 C607 1.393 . S
C607 C606 1.393 . S
C607 C608 1.387 . S
C608 H595 0.930 . S
C608 C603 1.415 . S
C608 C607 1.387 . S
H609 C617 0.930 . S
H610 C620 0.930 . S
H611 C622 0.930 . S
H612 C623 0.970 . S
H613 C623 0.970 . S
H614 C625 0.930 . S
H615 C627 0.930 . S
H616 C629 0.930 . S
C617 H609 0.930 . S
C617 C618 1.382 . S
C617 C619 1.426 . S
C618 C617 1.382 . S
C618 C622 1.389 . S
C619 C617 1.426 . S
C619 C620 1.375 . S
C619 C623 1.532 . S
C620 H610 0.930 . S
C620 C619 1.375 . S
C620 C621 1.416 . S
C621 C620 1.416 . S
C621 C622 1.371 . S
C622 H611 0.930 . S
C622 C618 1.389 . S
C622 C621 1.371 . S
C623 H612 0.970 . S
C623 H613 0.970 . S
C623 C619 1.532 . S
C623 C624 1.499 . S
C624 C623 1.499 . S
C624 C625 1.370 . S
C624 C629 1.415 . S
C625 H614 0.930 . S
C625 C624 1.370 . S
C625 C626 1.407 . S
C626 C625 1.407 . S
C626 C627 1.365 . S
C627 H615 0.930 . S
C627 C626 1.365 . S
C627 C628 1.393 . S
C628 C627 1.393 . S
C628 C629 1.387 . S
C629 H616 0.930 . S
C629 C624 1.415 . S
C629 C628 1.387 . S
H630 C638 0.929 . S
H631 C640 0.930 . S
H632 C642 0.930 . S
H633 C645 0.929 . S
H634 C648 0.930 . S
H635 C650 0.960 . S
H636 C650 0.960 . S
H637 C650 0.960 . S
C638 H630 0.929 . S
C638 C639 1.386 . S
C638 C640 1.384 . S
C639 C638 1.386 . S
C639 C645 1.401 1_655 S
C640 H631 0.930 . S
C640 C638 1.384 . S
C640 C641 1.372 . S
C641 C640 1.372 . S
C641 C642 1.400 1_655 S
C641 C646 1.490 . S
C642 H632 0.930 . S
C642 C641 1.400 1_455 S
C642 C645 1.386 . S
H643 C659 0.930 . S
H644 C660 0.931 . S
C645 H633 0.929 . S
C645 C639 1.401 1_455 S
C645 C642 1.386 . S
C646 C641 1.490 . S
C646 C648 1.395 1_655 S
C646 C649 1.403 . S
H647 C653 0.930 . S
C648 H634 0.930 . S
C648 C646 1.395 1_455 S
C648 C651 1.403 . S
C649 C646 1.403 . S
C649 C650 1.524 . S
C649 C653 1.400 . S
C650 H635 0.960 . S
C650 H636 0.960 . S
C650 H637 0.960 . S
C650 C649 1.524 . S
C651 C648 1.403 . S
C651 C652 1.386 . S
C651 C655 1.495 . S
C652 C651 1.386 . S
C652 C653 1.389 1_455 S
C652 C654 1.480 . S
C653 H647 0.930 . S
C653 C649 1.400 . S
C653 C652 1.389 1_655 S
C654 C652 1.480 . S
C654 C656 1.382 1_455 S
C654 C660 1.383 . S
C655 C651 1.495 . S
C655 H661 0.959 . S
C655 H662 0.961 . S
C655 H663 0.960 . S
C656 C654 1.382 1_655 S
C656 C657 1.394 . S
C656 H664 0.930 . S
C657 C656 1.394 . S
C657 C658 1.383 . S
C657 H665 0.929 . S
C658 C657 1.383 . S
C658 C659 1.377 1_655 S
C659 H643 0.930 . S
C659 C658 1.377 1_455 S
C659 C660 1.379 . S
C660 H644 0.931 . S
C660 C654 1.383 . S
C660 C659 1.379 . S
H661 C655 0.959 . S
H662 C655 0.961 . S
H663 C655 0.960 . S
H664 C656 0.930 . S
H665 C657 0.929 . S
H666 C674 0.929 . S
H667 C676 0.930 . S
H668 C678 0.930 . S
H669 C681 0.929 . S
H670 C684 0.930 . S
H671 C686 0.960 . S
H672 C686 0.960 . S
H673 C686 0.960 . S
C674 H666 0.929 . S
C674 C675 1.377 . S
C674 C676 1.384 . S
C675 C674 1.377 . S
C675 C681 1.390 . S
C676 H667 0.930 . S
C676 C674 1.384 . S
C676 C677 1.372 . S
C677 C676 1.372 . S
C677 C678 1.400 . S
C677 C682 1.490 . S
C678 H668 0.930 . S
C678 C677 1.400 . S
C678 C681 1.386 . S
H679 C695 0.930 . S
H680 C696 0.931 . S
C681 H669 0.929 . S
C681 C675 1.390 . S
C681 C678 1.386 . S
C682 C677 1.490 . S
C682 C684 1.395 . S
C682 C685 1.403 . S
H683 C689 0.930 . S
C684 H670 0.930 . S
C684 C682 1.395 . S
C684 C687 1.403 . S
C685 C682 1.403 . S
C685 C686 1.524 . S
C685 C689 1.400 . S
C686 H671 0.960 . S
C686 H672 0.960 . S
C686 H673 0.960 . S
C686 C685 1.524 . S
C687 C684 1.403 . S
C687 C688 1.392 . S
C687 C691 1.495 . S
C688 C687 1.392 . S
C688 C689 1.385 . S
C688 C690 1.478 . S
C689 H683 0.930 . S
C689 C685 1.400 . S
C689 C688 1.385 . S
C690 C688 1.478 . S
C690 C692 1.381 . S
C690 C696 1.383 . S
C691 C687 1.495 . S
C691 H697 0.959 . S
C691 H698 0.961 . S
C691 H699 0.960 . S
C692 C690 1.381 . S
C692 C693 1.394 . S
C692 H700 0.930 . S
C693 C692 1.394 . S
C693 C694 1.383 . S
C693 H701 0.929 . S
C694 C693 1.383 . S
C694 C695 1.377 . S
C695 H679 0.930 . S
C695 C694 1.377 . S
C695 C696 1.379 . S
C696 H680 0.931 . S
C696 C690 1.383 . S
C696 C695 1.379 . S
H697 C691 0.959 . S
H698 C691 0.961 . S
H699 C691 0.960 . S
H700 C692 0.930 . S
H701 C693 0.929 . S
H702 C710 0.929 . S
H703 C712 0.930 . S
H704 C714 0.930 . S
H705 C717 0.929 . S
H706 C720 0.930 . S
H707 C722 0.944 1_565 S
H708 C722 0.982 . S
H709 C722 0.949 1_565 S
C710 H702 0.929 . S
C710 C711 1.377 . S
C710 C712 1.384 . S
C711 C710 1.377 . S
C711 C717 1.390 1_545 S
C712 H703 0.930 . S
C712 C710 1.384 . S
C712 C713 1.372 . S
C713 C712 1.372 . S
C713 C714 1.400 1_545 S
C713 C718 1.490 . S
C714 H704 0.930 . S
C714 C713 1.400 1_565 S
C714 C717 1.386 . S
H715 C731 0.930 . S
H716 C732 0.931 . S
C717 H705 0.929 . S
C717 C711 1.390 1_565 S
C717 C714 1.386 . S
C718 C713 1.490 . S
C718 C720 1.395 . S
C718 C721 1.403 . S
H719 C725 0.945 . S
C720 H706 0.930 . S
C720 C718 1.395 . S
C720 C723 1.403 . S
C721 C718 1.403 . S
C721 C722 1.530 . S
C721 C725 1.400 . S
C722 H707 0.944 1_545 S
C722 H708 0.982 . S
C722 H709 0.949 1_545 S
C722 C721 1.530 . S
C723 C720 1.403 . S
C723 C724 1.392 . S
C723 C727 1.495 . S
C724 C723 1.392 . S
C724 C725 1.385 . S
C724 C726 1.478 . S
C725 H719 0.945 . S
C725 C721 1.400 . S
C725 C724 1.385 . S
C726 C724 1.478 . S
C726 C728 1.381 . S
C726 C732 1.383 1_545 S
C727 C723 1.495 . S
C727 H733 0.959 . S
C727 H734 0.961 . S
C727 H735 0.960 . S
C728 C726 1.381 . S
C728 C729 1.394 . S
C728 H736 0.930 . S
C729 C728 1.394 . S
C729 C730 1.383 . S
C729 H737 0.929 . S
C730 C729 1.383 . S
C730 C731 1.377 1_545 S
C731 H715 0.930 . S
C731 C730 1.377 1_565 S
C731 C732 1.379 . S
C732 H716 0.931 . S
C732 C726 1.383 1_565 S
C732 C731 1.379 . S
H733 C727 0.959 . S
H734 C727 0.961 . S
H735 C727 0.960 . S
H736 C728 0.930 . S
H737 C729 0.929 . S
H738 C746 0.929 . S
H739 C748 0.930 . S
H740 C750 0.930 . S
H741 C753 0.929 . S
H742 C756 0.930 . S
H743 C758 0.960 . S
H744 C758 0.960 1_545 S
H745 C758 0.960 . S
C746 H738 0.929 . S
C746 C747 1.407 . S
C746 C748 1.384 . S
C747 C746 1.407 . S
C747 C753 1.333 1_545 S
C748 H739 0.930 . S
C748 C746 1.384 . S
C748 C749 1.420 . S
C749 C748 1.420 . S
C749 C750 1.379 1_545 S
C749 C754 1.476 . S
C750 H740 0.930 . S
C750 C749 1.379 1_565 S
C750 C753 1.386 . S
H751 C767 0.930 . S
H752 C768 0.931 . S
C753 H741 0.929 . S
C753 C747 1.333 1_565 S
C753 C750 1.386 . S
C754 C749 1.476 . S
C754 C756 1.384 . S
C754 C757 1.402 1_545 S
H755 C761 0.930 . S
C756 H742 0.930 . S
C756 C754 1.384 . S
C756 C759 1.403 . S
C757 C754 1.402 1_565 S
C757 C758 1.524 . S
C757 C761 1.400 . S
C758 H743 0.960 . S
C758 H744 0.960 1_565 S
C758 H745 0.960 . S
C758 C757 1.524 . S
C759 C756 1.403 . S
C759 C760 1.391 1_545 S
C759 C763 1.495 . S
C760 C759 1.391 1_565 S
C760 C761 1.369 . S
C760 C762 1.496 . S
C761 H755 0.930 . S
C761 C757 1.400 . S
C761 C760 1.369 . S
C762 C760 1.496 . S
C762 C764 1.381 1_565 S
C762 C768 1.383 . S
C763 C759 1.495 . S
C763 H769 0.959 . S
C763 H770 0.961 1_545 S
C763 H771 0.960 . S
C764 C762 1.381 1_545 S
C764 C765 1.394 . S
C764 H772 0.930 . S
C765 C764 1.394 . S
C765 C766 1.383 1_545 S
C765 H773 0.929 . S
C766 C765 1.383 1_565 S
C766 C767 1.377 . S
C767 H751 0.930 . S
C767 C766 1.377 . S
C767 C768 1.379 . S
C768 H752 0.931 . S
C768 C762 1.383 . S
C768 C767 1.379 . S
H769 C763 0.959 . S
H770 C763 0.961 1_565 S
H771 C763 0.960 . S
H772 C764 0.930 . S
H773 C765 0.929 . S
H774 C782 0.929 . S
H775 C784 0.930 . S
H776 C786 0.930 . S
H777 C789 0.929 . S
H778 C792 0.930 . S
H779 C794 0.960 . S
H780 C794 0.960 . S
H781 C794 0.960 . S
C782 H774 0.929 . S
C782 C783 1.377 1_655 S
C782 C784 1.384 . S
C783 C782 1.377 1_455 S
C783 C789 1.390 . S
C784 H775 0.930 . S
C784 C782 1.384 . S
C784 C785 1.372 1_655 S
C785 C784 1.372 1_455 S
C785 C786 1.400 . S
C785 C790 1.490 . S
C786 H776 0.930 . S
C786 C785 1.400 . S
C786 C789 1.386 . S
H787 C803 0.930 . S
H788 C804 0.931 . S
C789 H777 0.929 . S
C789 C783 1.390 . S
C789 C786 1.386 . S
C790 C785 1.490 . S
C790 C792 1.395 1_455 S
C790 C793 1.403 . S
H791 C797 0.930 . S
C792 H778 0.930 . S
C792 C790 1.395 1_655 S
C792 C795 1.403 . S
C793 C790 1.403 . S
C793 C794 1.524 . S
C793 C797 1.400 . S
C794 H779 0.960 . S
C794 H780 0.960 . S
C794 H781 0.960 . S
C794 C793 1.524 . S
C795 C792 1.403 . S
C795 C796 1.392 1_655 S
C795 C799 1.495 . S
C796 C795 1.392 1_455 S
C796 C797 1.385 . S
C796 C798 1.478 . S
C797 H791 0.930 . S
C797 C793 1.400 . S
C797 C796 1.385 . S
C798 C796 1.478 . S
C798 C800 1.381 1_455 S
C798 C804 1.383 . S
C799 C795 1.495 . S
C799 H805 0.959 . S
C799 H806 0.961 1_655 S
C799 H807 0.960 . S
C800 C798 1.381 1_655 S
C800 C801 1.394 . S
C800 H808 0.930 . S
C801 C800 1.394 . S
C801 C802 1.383 1_655 S
C801 H809 0.929 . S
C802 C801 1.383 1_455 S
C802 C803 1.377 . S
C803 H787 0.930 . S
C803 C802 1.377 . S
C803 C804 1.379 . S
C804 H788 0.931 . S
C804 C798 1.383 . S
C804 C803 1.379 . S
H805 C799 0.959 . S
H806 C799 0.961 1_455 S
H807 C799 0.960 . S
H808 C800 0.930 . S
H809 C801 0.929 . S
H810 C818 0.929 . S
H811 C820 0.930 . S
H812 C822 0.930 . S
H813 C825 0.929 . S
H814 C828 0.930 . S
H815 C830 0.960 . S
H816 C830 0.960 . S
H817 C830 0.960 . S
C818 H810 0.929 . S
C818 C819 1.377 . S
C818 C820 1.384 . S
C819 C818 1.377 . S
C819 C825 1.390 . S
C820 H811 0.930 . S
C820 C818 1.384 . S
C820 C821 1.372 . S
C821 C820 1.372 . S
C821 C822 1.400 . S
C821 C826 1.490 . S
C822 H812 0.930 . S
C822 C821 1.400 . S
C822 C825 1.386 . S
H823 C839 0.930 . S
H824 C840 0.931 . S
C825 H813 0.929 . S
C825 C819 1.390 . S
C825 C822 1.386 . S
C826 C821 1.490 . S
C826 C828 1.395 . S
C826 C829 1.403 . S
H827 C833 0.930 . S
C828 H814 0.930 . S
C828 C826 1.395 . S
C828 C831 1.403 . S
C829 C826 1.403 . S
C829 C830 1.524 . S
C829 C833 1.400 . S
C830 H815 0.960 . S
C830 H816 0.960 . S
C830 H817 0.960 . S
C830 C829 1.524 . S
C831 C828 1.403 . S
C831 C832 1.392 . S
C831 C835 1.495 . S
C832 C831 1.392 . S
C832 C833 1.385 . S
C832 C834 1.478 . S
C833 H827 0.930 . S
C833 C829 1.400 . S
C833 C832 1.385 . S
C834 C832 1.478 . S
C834 C836 1.381 . S
C834 C840 1.383 . S
C835 C831 1.495 . S
C835 H841 0.959 . S
C835 H842 0.961 . S
C835 H843 0.960 . S
C836 C834 1.381 . S
C836 C837 1.394 . S
C836 H844 0.930 . S
C837 C836 1.394 . S
C837 C838 1.383 . S
C837 H845 0.929 . S
C838 C837 1.383 . S
C838 C839 1.377 . S
C839 H823 0.930 . S
C839 C838 1.377 . S
C839 C840 1.379 . S
C840 H824 0.931 . S
C840 C834 1.383 . S
C840 C839 1.379 . S
H841 C835 0.959 . S
H842 C835 0.961 . S
H843 C835 0.960 . S
H844 C836 0.930 . S
H845 C837 0.929 . S
H846 C854 0.929 . S
H847 C856 0.930 . S
H848 C858 0.930 . S
H849 C861 0.929 . S
H850 C864 0.930 . S
H851 C866 0.960 . S
H852 C866 0.960 . S
H853 C866 0.960 . S
C854 H846 0.929 . S
C854 C855 1.377 1_655 S
C854 C856 1.384 . S
C855 C854 1.377 1_455 S
C855 C861 1.390 . S
C856 H847 0.930 . S
C856 C854 1.384 . S
C856 C857 1.372 1_655 S
C857 C856 1.372 1_455 S
C857 C858 1.400 . S
C857 C862 1.490 . S
C858 H848 0.930 . S
C858 C857 1.400 . S
C858 C861 1.386 . S
H859 C875 0.930 . S
H860 C876 0.931 . S
C861 H849 0.929 . S
C861 C855 1.390 . S
C861 C858 1.386 . S
C862 C857 1.490 . S
C862 C864 1.395 1_455 S
C862 C865 1.403 . S
H863 C869 0.930 . S
C864 H850 0.930 . S
C864 C862 1.395 1_655 S
C864 C867 1.403 . S
C865 C862 1.403 . S
C865 C866 1.524 . S
C865 C869 1.400 . S
C866 H851 0.960 . S
C866 H852 0.960 . S
C866 H853 0.960 . S
C866 C865 1.524 . S
C867 C864 1.403 . S
C867 C868 1.392 . S
C867 C871 1.495 . S
C868 C867 1.392 . S
C868 C869 1.385 1_655 S
C868 C870 1.478 . S
C869 H863 0.930 . S
C869 C865 1.400 . S
C869 C868 1.385 1_455 S
C870 C868 1.478 . S
C870 C872 1.381 . S
C870 C876 1.383 1_655 S
C871 C867 1.495 . S
C871 H877 0.959 . S
C871 H878 0.961 . S
C871 H879 0.960 . S
C872 C870 1.381 . S
C872 C873 1.394 . S
C872 H880 0.930 . S
C873 C872 1.394 . S
C873 C874 1.409 . S
C873 H881 0.929 . S
C874 C873 1.409 . S
C874 C875 1.376 1_655 S
C875 H859 0.930 . S
C875 C874 1.376 1_455 S
C875 C876 1.379 . S
C876 H860 0.931 . S
C876 C870 1.383 1_455 S
C876 C875 1.379 . S
H877 C871 0.959 . S
H878 C871 0.961 . S
H879 C871 0.960 . S
H880 C872 0.930 . S
H881 C873 0.929 . S
H882 C890 0.929 . S
H883 C892 0.930 . S
H884 C894 0.930 . S
H885 C897 0.929 . S
H886 C900 0.930 . S
H887 C902 0.960 . S
H888 C902 0.960 . S
H889 C902 0.960 . S
C890 H882 0.929 . S
C890 C891 1.377 . S
C890 C892 1.384 . S
C891 C890 1.377 . S
C891 C897 1.390 . S
C892 H883 0.930 . S
C892 C890 1.384 . S
C892 C893 1.372 . S
C893 C892 1.372 . S
C893 C894 1.400 . S
C893 C898 1.490 . S
C894 H884 0.930 . S
C894 C893 1.400 . S
C894 C897 1.386 . S
H895 C911 0.930 . S
H896 C912 0.931 . S
C897 H885 0.929 . S
C897 C891 1.390 . S
C897 C894 1.386 . S
C898 C893 1.490 . S
C898 C900 1.395 . S
C898 C901 1.403 . S
H899 C905 0.930 . S
C900 H886 0.930 . S
C900 C898 1.395 . S
C900 C903 1.403 . S
C901 C898 1.403 . S
C901 C902 1.524 . S
C901 C905 1.400 . S
C902 H887 0.960 . S
C902 H888 0.960 . S
C902 H889 0.960 . S
C902 C901 1.524 . S
C903 C900 1.403 . S
C903 C904 1.392 . S
C903 C907 1.495 . S
C904 C903 1.392 . S
C904 C905 1.385 . S
C904 C906 1.478 . S
C905 H899 0.930 . S
C905 C901 1.400 . S
C905 C904 1.385 . S
C906 C904 1.478 . S
C906 C908 1.381 . S
C906 C912 1.383 . S
C907 C903 1.495 . S
C907 H913 0.959 . S
C907 H914 0.961 . S
C907 H915 0.960 . S
C908 C906 1.381 . S
C908 C909 1.394 . S
C908 H916 0.930 . S
C909 C908 1.394 . S
C909 C910 1.383 . S
C909 H917 0.929 . S
C910 C909 1.383 . S
C910 C911 1.377 . S
C911 H895 0.930 . S
C911 C910 1.377 . S
C911 C912 1.379 . S
C912 H896 0.931 . S
C912 C906 1.383 . S
C912 C911 1.379 . S
H913 C907 0.959 . S
H914 C907 0.961 . S
H915 C907 0.960 . S
H916 C908 0.930 . S
H917 C909 0.929 . S
H918 C926 0.929 . S
H919 C928 0.930 . S
H920 C930 0.930 . S
H921 C933 0.929 . S
H922 C936 0.930 . S
H923 C938 0.960 . S
H924 C938 0.960 . S
H925 C938 0.960 . S
C926 H918 0.929 . S
C926 C927 1.291 1_545 S
C926 C928 1.384 . S
C927 C926 1.291 1_565 S
C927 C933 1.440 . S
C928 H919 0.930 . S
C928 C926 1.384 . S
C928 C929 1.361 1_545 S
C929 C928 1.361 1_565 S
C929 C930 1.419 . S
C929 C934 1.473 1_565 S
C930 H920 0.930 . S
C930 C929 1.419 . S
C930 C933 1.386 . S
H931 C947 0.930 . S
H932 C948 0.931 . S
C933 H921 0.929 . S
C933 C927 1.440 . S
C933 C930 1.386 . S
C934 C929 1.473 1_545 S
C934 C936 1.411 . S
C934 C937 1.396 1_545 S
H935 C941 0.930 . S
C936 H922 0.930 . S
C936 C934 1.411 . S
C936 C939 1.403 . S
C937 C934 1.396 1_565 S
C937 C938 1.524 . S
C937 C941 1.400 . S
C938 H923 0.960 . S
C938 H924 0.960 . S
C938 H925 0.960 . S
C938 C937 1.524 . S
C939 C936 1.403 . S
C939 C940 1.392 . S
C939 C943 1.495 . S
C940 C939 1.392 . S
C940 C941 1.385 1_545 S
C940 C942 1.478 . S
C941 H935 0.930 . S
C941 C937 1.400 . S
C941 C940 1.385 1_565 S
C942 C940 1.478 . S
C942 C944 1.381 . S
C942 C948 1.383 1_545 S
C943 C939 1.495 . S
C943 H949 0.959 . S
C943 H950 0.961 . S
C943 H951 0.960 . S
C944 C942 1.381 . S
C944 C945 1.394 . S
C944 H952 0.930 . S
C945 C944 1.394 . S
C945 C946 1.413 . S
C945 H953 0.929 . S
C946 C945 1.413 . S
C946 C947 1.328 1_545 S
C947 H931 0.930 . S
C947 C946 1.328 1_565 S
C947 C948 1.379 . S
C948 H932 0.931 . S
C948 C942 1.383 1_565 S
C948 C947 1.379 . S
H949 C943 0.959 . S
H950 C943 0.961 . S
H951 C943 0.960 . S
H952 C944 0.930 . S
H953 C945 0.929 . S
H954 C962 0.929 . S
H955 C964 0.930 . S
H956 C966 0.930 . S
H957 C969 0.929 . S
H958 C972 0.930 . S
H959 C974 0.960 . S
H960 C974 0.960 . S
H961 C974 0.960 1_565 S
C962 H954 0.929 . S
C962 C963 1.377 . S
C962 C964 1.384 . S
C963 C962 1.377 . S
C963 C969 1.390 1_545 S
C964 H955 0.930 . S
C964 C962 1.384 . S
C964 C965 1.372 . S
C965 C964 1.372 . S
C965 C966 1.400 1_545 S
C965 C970 1.490 . S
C966 H956 0.930 . S
C966 C965 1.400 1_565 S
C966 C969 1.386 . S
H967 C983 0.930 . S
H968 C984 0.931 . S
C969 H957 0.929 . S
C969 C963 1.390 1_565 S
C969 C966 1.386 . S
C970 C965 1.490 . S
C970 C972 1.395 . S
C970 C973 1.403 . S
H971 C977 0.930 . S
C972 H958 0.930 . S
C972 C970 1.395 . S
C972 C975 1.403 . S
C973 C970 1.403 . S
C973 C974 1.524 . S
C973 C977 1.400 . S
C974 H959 0.960 . S
C974 H960 0.960 . S
C974 H961 0.960 1_545 S
C974 C973 1.524 . S
C975 C972 1.403 . S
C975 C976 1.392 . S
C975 C979 1.495 . S
C976 C975 1.392 . S
C976 C977 1.385 . S
C976 C978 1.451 . S
C977 H971 0.930 . S
C977 C973 1.400 . S
C977 C976 1.385 . S
C978 C976 1.451 . S
C978 C980 1.461 . S
C978 C984 1.334 1_545 S
C979 C975 1.495 . S
C979 H985 0.959 . S
C979 H986 0.961 1_545 S
C979 H987 0.960 . S
C980 C978 1.461 . S
C980 C981 1.394 . S
C980 H988 0.930 . S
C981 C980 1.394 . S
C981 C982 1.397 . S
C981 H989 0.929 . S
C982 C981 1.397 . S
C982 C983 1.356 1_545 S
C983 H967 0.930 . S
C983 C982 1.356 1_565 S
C983 C984 1.379 . S
C984 H968 0.931 . S
C984 C978 1.334 1_565 S
C984 C983 1.379 . S
H985 C979 0.959 . S
H986 C979 0.961 1_565 S
H987 C979 0.960 . S
H988 C980 0.930 . S
H989 C981 0.929 . S
H990 C998 0.929 . S
H991 C1000 0.930 . S
H992 C1002 0.930 . S
H993 C1005 0.929 . S
H994 C1008 0.930 . S
H995 C1010 0.960 . S
H996 C1010 0.960 . S
H997 C1010 0.960 . S
C998 H990 0.929 . S
C998 C999 1.405 . S
C998 C1000 1.384 . S
C999 C998 1.405 . S
C999 C1005 1.345 1_655 S
C1000 H991 0.930 . S
C1000 C998 1.384 . S
C1000 C1001 1.372 . S
C1001 C1000 1.372 . S
C1001 C1002 1.400 1_655 S
C1001 C1006 1.490 . S
C1002 H992 0.930 . S
C1002 C1001 1.400 1_455 S
C1002 C1005 1.386 . S
H1003 C1019 0.930 . S
H1004 C1020 0.931 . S
C1005 H993 0.929 . S
C1005 C999 1.345 1_455 S
C1005 C1002 1.386 . S
C1006 C1001 1.490 . S
C1006 C1008 1.395 . S
C1006 C1009 1.403 1_655 S
H1007 C1013 0.930 . S
C1008 H994 0.930 . S
C1008 C1006 1.395 . S
C1008 C1011 1.403 . S
C1009 C1006 1.403 1_455 S
C1009 C1010 1.524 . S
C1009 C1013 1.400 . S
C1010 H995 0.960 . S
C1010 H996 0.960 . S
C1010 H997 0.960 . S
C1010 C1009 1.524 . S
C1011 C1008 1.403 . S
C1011 C1012 1.392 . S
C1011 C1015 1.495 . S
C1012 C1011 1.392 . S
C1012 C1013 1.385 1_655 S
C1012 C1014 1.478 . S
C1013 H1007 0.930 . S
C1013 C1009 1.400 . S
C1013 C1012 1.385 1_455 S
C1014 C1012 1.478 . S
C1014 C1016 1.381 . S
C1014 C1020 1.383 1_655 S
C1015 C1011 1.495 . S
C1015 H1021 0.959 . S
C1015 H1022 0.961 . S
C1015 H1023 0.960 . S
C1016 C1014 1.381 . S
C1016 C1017 1.394 . S
C1016 H1024 0.930 . S
C1017 C1016 1.394 . S
C1017 C1018 1.383 . S
C1017 H1025 0.929 . S
C1018 C1017 1.383 . S
C1018 C1019 1.377 1_655 S
C1019 H1003 0.930 . S
C1019 C1018 1.377 1_455 S
C1019 C1020 1.379 . S
C1020 H1004 0.931 . S
C1020 C1014 1.383 1_455 S
C1020 C1019 1.379 . S
H1021 C1015 0.959 . S
H1022 C1015 0.961 . S
H1023 C1015 0.960 . S
H1024 C1016 0.930 . S
H1025 C1017 0.929 . S
H1026 C1034 0.929 . S
H1027 C1036 0.930 . S
H1028 C1038 0.930 . S
H1029 C1041 0.929 . S
H1030 C1044 0.930 . S
H1031 C1046 0.960 . S
H1032 C1046 0.960 . S
H1033 C1046 0.960 . S
C1034 H1026 0.929 . S
C1034 C1035 1.377 . S
C1034 C1036 1.384 . S
C1035 C1034 1.377 . S
C1035 C1041 1.390 . S
C1036 H1027 0.930 . S
C1036 C1034 1.384 . S
C1036 C1037 1.372 . S
C1037 C1036 1.372 . S
C1037 C1038 1.400 . S
C1037 C1042 1.490 . S
C1038 H1028 0.930 . S
C1038 C1037 1.400 . S
C1038 C1041 1.386 . S
H1039 C1055 0.930 . S
H1040 C1056 0.931 . S
C1041 H1029 0.929 . S
C1041 C1035 1.390 . S
C1041 C1038 1.386 . S
C1042 C1037 1.490 . S
C1042 C1044 1.395 . S
C1042 C1045 1.403 . S
H1043 C1049 0.930 . S
C1044 H1030 0.930 . S
C1044 C1042 1.395 . S
C1044 C1047 1.403 . S
C1045 C1042 1.403 . S
C1045 C1046 1.524 . S
C1045 C1049 1.400 . S
C1046 H1031 0.960 . S
C1046 H1032 0.960 . S
C1046 H1033 0.960 . S
C1046 C1045 1.524 . S
C1047 C1044 1.403 . S
C1047 C1048 1.392 . S
C1047 C1051 1.495 . S
C1048 C1047 1.392 . S
C1048 C1049 1.385 . S
C1048 C1050 1.478 . S
C1049 H1043 0.930 . S
C1049 C1045 1.400 . S
C1049 C1048 1.385 . S
C1050 C1048 1.478 . S
C1050 C1052 1.381 . S
C1050 C1056 1.383 . S
C1051 C1047 1.495 . S
C1051 H1057 0.959 . S
C1051 H1058 0.961 . S
C1051 H1059 0.960 . S
C1052 C1050 1.381 . S
C1052 C1053 1.394 . S
C1052 H1060 0.930 . S
C1053 C1052 1.394 . S
C1053 C1054 1.383 . S
C1053 H1061 0.929 . S
C1054 C1053 1.383 . S
C1054 C1055 1.377 . S
C1055 H1039 0.930 . S
C1055 C1054 1.377 . S
C1055 C1056 1.379 . S
C1056 H1040 0.931 . S
C1056 C1050 1.383 . S
C1056 C1055 1.379 . S
H1057 C1051 0.959 . S
H1058 C1051 0.961 . S
H1059 C1051 0.960 . S
H1060 C1052 0.930 . S
H1061 C1053 0.929 . S
H1062 C1070 0.929 . S
H1063 C1072 0.930 . S
H1064 C1074 0.930 . S
H1065 C1077 0.929 . S
H1066 C1080 0.930 . S
H1067 C1082 0.960 . S
H1068 C1082 0.960 . S
H1069 C1082 0.960 . S
C1070 H1062 0.929 . S
C1070 C1071 1.377 . S
C1070 C1072 1.384 . S
C1071 C1070 1.377 . S
C1071 C1077 1.390 . S
C1072 H1063 0.930 . S
C1072 C1070 1.384 . S
C1072 C1073 1.372 . S
C1073 C1072 1.372 . S
C1073 C1074 1.400 . S
C1073 C1078 1.490 . S
C1074 H1064 0.930 . S
C1074 C1073 1.400 . S
C1074 C1077 1.386 . S
H1075 C1091 0.930 . S
H1076 C1092 0.931 . S
C1077 H1065 0.929 . S
C1077 C1071 1.390 . S
C1077 C1074 1.386 . S
C1078 C1073 1.490 . S
C1078 C1080 1.395 . S
C1078 C1081 1.403 . S
H1079 C1085 0.930 . S
C1080 H1066 0.930 . S
C1080 C1078 1.395 . S
C1080 C1083 1.403 . S
C1081 C1078 1.403 . S
C1081 C1082 1.524 . S
C1081 C1085 1.400 . S
C1082 H1067 0.960 . S
C1082 H1068 0.960 . S
C1082 H1069 0.960 . S
C1082 C1081 1.524 . S
C1083 C1080 1.403 . S
C1083 C1084 1.392 . S
C1083 C1087 1.495 . S
C1084 C1083 1.392 . S
C1084 C1085 1.385 . S
C1084 C1086 1.478 . S
C1085 H1079 0.930 . S
C1085 C1081 1.400 . S
C1085 C1084 1.385 . S
C1086 C1084 1.478 . S
C1086 C1088 1.381 . S
C1086 C1092 1.383 . S
C1087 C1083 1.495 . S
C1087 H1093 0.959 . S
C1087 H1094 0.961 . S
C1087 H1095 0.960 . S
C1088 C1086 1.381 . S
C1088 C1089 1.394 . S
C1088 H1096 0.930 . S
C1089 C1088 1.394 . S
C1089 C1090 1.383 . S
C1089 H1097 0.929 . S
C1090 C1089 1.383 . S
C1090 C1091 1.377 . S
C1091 H1075 0.930 . S
C1091 C1090 1.377 . S
C1091 C1092 1.379 . S
C1092 H1076 0.931 . S
C1092 C1086 1.383 . S
C1092 C1091 1.379 . S
H1093 C1087 0.959 . S
H1094 C1087 0.961 . S
H1095 C1087 0.960 . S
H1096 C1088 0.930 . S
H1097 C1089 0.929 . S
H1098 C1106 0.929 . S
H1099 C1108 0.930 . S
H1100 C1110 0.930 . S
H1101 C1113 0.929 . S
H1102 C1116 0.930 . S
H1103 C1118 0.960 . S
H1104 C1118 0.960 . S
H1105 C1118 0.960 . S
C1106 H1098 0.929 . S
C1106 C1107 1.377 . S
C1106 C1108 1.384 . S
C1107 C1106 1.377 . S
C1107 C1113 1.390 . S
C1108 H1099 0.930 . S
C1108 C1106 1.384 . S
C1108 C1109 1.372 . S
C1109 C1108 1.372 . S
C1109 C1110 1.400 . S
C1109 C1114 1.490 . S
C1110 H1100 0.930 . S
C1110 C1109 1.400 . S
C1110 C1113 1.386 . S
H1111 C1127 0.930 . S
H1112 C1128 0.931 . S
C1113 H1101 0.929 . S
C1113 C1107 1.390 . S
C1113 C1110 1.386 . S
C1114 C1109 1.490 . S
C1114 C1116 1.395 . S
C1114 C1117 1.403 . S
H1115 C1121 0.930 . S
C1116 H1102 0.930 . S
C1116 C1114 1.395 . S
C1116 C1119 1.403 . S
C1117 C1114 1.403 . S
C1117 C1118 1.524 . S
C1117 C1121 1.400 . S
C1118 H1103 0.960 . S
C1118 H1104 0.960 . S
C1118 H1105 0.960 . S
C1118 C1117 1.524 . S
C1119 C1116 1.403 . S
C1119 C1120 1.392 . S
C1119 C1123 1.495 . S
C1120 C1119 1.392 . S
C1120 C1121 1.385 . S
C1120 C1122 1.478 . S
C1121 H1115 0.930 . S
C1121 C1117 1.400 . S
C1121 C1120 1.385 . S
C1122 C1120 1.478 . S
C1122 C1124 1.381 . S
C1122 C1128 1.383 . S
C1123 C1119 1.495 . S
C1123 H1129 0.959 . S
C1123 H1130 0.961 . S
C1123 H1131 0.960 . S
C1124 C1122 1.381 . S
C1124 C1125 1.394 . S
C1124 H1132 0.930 . S
C1125 C1124 1.394 . S
C1125 C1126 1.383 . S
C1125 H1133 0.929 . S
C1126 C1125 1.383 . S
C1126 C1127 1.377 . S
C1127 H1111 0.930 . S
C1127 C1126 1.377 . S
C1127 C1128 1.379 . S
C1128 H1112 0.931 . S
C1128 C1122 1.383 . S
C1128 C1127 1.379 . S
H1129 C1123 0.959 . S
H1130 C1123 0.961 . S
H1131 C1123 0.960 . S
H1132 C1124 0.930 . S
H1133 C1125 0.929 . S
H1134 C1142 0.929 . S
H1135 C1144 0.930 . S
H1136 C1146 0.930 . S
H1137 C1149 0.929 . S
H1138 C1152 0.930 . S
H1139 C1154 0.960 . S
H1140 C1154 0.960 . S
H1141 C1154 0.960 . S
C1142 H1134 0.929 . S
C1142 C1143 1.377 . S
C1142 C1144 1.384 . S
C1143 C1142 1.377 . S
C1143 C1149 1.390 . S
C1144 H1135 0.930 . S
C1144 C1142 1.384 . S
C1144 C1145 1.372 . S
C1145 C1144 1.372 . S
C1145 C1146 1.400 . S
C1145 C1150 1.490 . S
C1146 H1136 0.930 . S
C1146 C1145 1.400 . S
C1146 C1149 1.386 . S
H1147 C1163 0.930 . S
H1148 C1164 0.931 . S
C1149 H1137 0.929 . S
C1149 C1143 1.390 . S
C1149 C1146 1.386 . S
C1150 C1145 1.490 . S
C1150 C1152 1.395 . S
C1150 C1153 1.403 . S
H1151 C1157 0.930 . S
C1152 H1138 0.930 . S
C1152 C1150 1.395 . S
C1152 C1155 1.403 . S
C1153 C1150 1.403 . S
C1153 C1154 1.524 . S
C1153 C1157 1.400 . S
C1154 H1139 0.960 . S
C1154 H1140 0.960 . S
C1154 H1141 0.960 . S
C1154 C1153 1.524 . S
C1155 C1152 1.403 . S
C1155 C1156 1.392 . S
C1155 C1159 1.495 . S
C1156 C1155 1.392 . S
C1156 C1157 1.385 . S
C1156 C1158 1.478 . S
C1157 H1151 0.930 . S
C1157 C1153 1.400 . S
C1157 C1156 1.385 . S
C1158 C1156 1.478 . S
C1158 C1160 1.381 . S
C1158 C1164 1.383 . S
C1159 C1155 1.495 . S
C1159 H1165 0.959 . S
C1159 H1166 0.961 . S
C1159 H1167 0.960 . S
C1160 C1158 1.381 . S
C1160 C1161 1.394 . S
C1160 H1168 0.930 . S
C1161 C1160 1.394 . S
C1161 C1162 1.383 . S
C1161 H1169 0.929 . S
C1162 C1161 1.383 . S
C1162 C1163 1.377 . S
C1163 H1147 0.930 . S
C1163 C1162 1.377 . S
C1163 C1164 1.379 . S
C1164 H1148 0.931 . S
C1164 C1158 1.383 . S
C1164 C1163 1.379 . S
H1165 C1159 0.959 . S
H1166 C1159 0.961 . S
H1167 C1159 0.960 . S
H1168 C1160 0.930 . S
H1169 C1161 0.929 . S
H1170 C1178 0.929 . S
H1171 C1180 0.930 . S
H1172 C1182 0.930 . S
H1173 C1185 0.929 . S
H1174 C1188 0.930 . S
H1175 C1190 0.960 . S
H1176 C1190 0.960 . S
H1177 C1190 0.960 . S
C1178 H1170 0.929 . S
C1178 C1179 1.377 . S
C1178 C1180 1.384 . S
C1179 C1178 1.377 . S
C1179 C1185 1.390 . S
C1180 H1171 0.930 . S
C1180 C1178 1.384 . S
C1180 C1181 1.372 . S
C1181 C1180 1.372 . S
C1181 C1182 1.400 . S
C1181 C1186 1.490 . S
C1182 H1172 0.930 . S
C1182 C1181 1.400 . S
C1182 C1185 1.386 . S
H1183 C1199 0.930 . S
H1184 C1200 0.931 . S
C1185 H1173 0.929 . S
C1185 C1179 1.390 . S
C1185 C1182 1.386 . S
C1186 C1181 1.490 . S
C1186 C1188 1.395 . S
C1186 C1189 1.403 . S
H1187 C1193 0.930 . S
C1188 H1174 0.930 . S
C1188 C1186 1.395 . S
C1188 C1191 1.403 . S
C1189 C1186 1.403 . S
C1189 C1190 1.524 . S
C1189 C1193 1.400 . S
C1190 H1175 0.960 . S
C1190 H1176 0.960 . S
C1190 H1177 0.960 . S
C1190 C1189 1.524 . S
C1191 C1188 1.403 . S
C1191 C1192 1.392 . S
C1191 C1195 1.495 . S
C1192 C1191 1.392 . S
C1192 C1193 1.385 . S
C1192 C1194 1.478 . S
C1193 H1187 0.930 . S
C1193 C1189 1.400 . S
C1193 C1192 1.385 . S
C1194 C1192 1.478 . S
C1194 C1196 1.381 . S
C1194 C1200 1.383 . S
C1195 C1191 1.495 . S
C1195 H1201 0.959 . S
C1195 H1202 0.961 . S
C1195 H1203 0.960 . S
C1196 C1194 1.381 . S
C1196 C1197 1.394 . S
C1196 H1204 0.930 . S
C1197 C1196 1.394 . S
C1197 C1198 1.383 . S
C1197 H1205 0.929 . S
C1198 C1197 1.383 . S
C1198 C1199 1.377 . S
C1199 H1183 0.930 . S
C1199 C1198 1.377 . S
C1199 C1200 1.379 . S
C1200 H1184 0.931 . S
C1200 C1194 1.383 . S
C1200 C1199 1.379 . S
H1201 C1195 0.959 . S
H1202 C1195 0.961 . S
H1203 C1195 0.960 . S
H1204 C1196 0.930 . S
H1205 C1197 0.929 . S
H1206 C1214 0.929 . S
H1207 C1216 0.930 . S
H1208 C1218 0.930 . S
H1209 C1221 0.929 . S
H1210 C1224 0.930 . S
H1211 C1226 0.960 . S
H1212 C1226 0.960 . S
H1213 C1226 0.960 . S
C1214 H1206 0.929 . S
C1214 C1215 1.377 . S
C1214 C1216 1.384 . S
C1215 C1214 1.377 . S
C1215 C1221 1.390 . S
C1216 H1207 0.930 . S
C1216 C1214 1.384 . S
C1216 C1217 1.372 . S
C1217 C1216 1.372 . S
C1217 C1218 1.400 . S
C1217 C1222 1.490 . S
C1218 H1208 0.930 . S
C1218 C1217 1.400 . S
C1218 C1221 1.386 . S
H1219 C1235 0.930 . S
H1220 C1236 0.931 . S
C1221 H1209 0.929 . S
C1221 C1215 1.390 . S
C1221 C1218 1.386 . S
C1222 C1217 1.490 . S
C1222 C1224 1.395 . S
C1222 C1225 1.403 . S
H1223 C1229 0.930 . S
C1224 H1210 0.930 . S
C1224 C1222 1.395 . S
C1224 C1227 1.403 . S
C1225 C1222 1.403 . S
C1225 C1226 1.524 . S
C1225 C1229 1.400 . S
C1226 H1211 0.960 . S
C1226 H1212 0.960 . S
C1226 H1213 0.960 . S
C1226 C1225 1.524 . S
C1227 C1224 1.403 . S
C1227 C1228 1.392 . S
C1227 C1231 1.495 . S
C1228 C1227 1.392 . S
C1228 C1229 1.385 . S
C1228 C1230 1.478 . S
C1229 H1223 0.930 . S
C1229 C1225 1.400 . S
C1229 C1228 1.385 . S
C1230 C1228 1.478 . S
C1230 C1232 1.381 . S
C1230 C1236 1.383 . S
C1231 C1227 1.495 . S
C1231 H1237 0.959 . S
C1231 H1238 0.961 . S
C1231 H1239 0.960 . S
C1232 C1230 1.381 . S
C1232 C1233 1.394 . S
C1232 H1240 0.930 . S
C1233 C1232 1.394 . S
C1233 C1234 1.383 . S
C1233 H1241 0.929 . S
C1234 C1233 1.383 . S
C1234 C1235 1.377 . S
C1235 H1219 0.930 . S
C1235 C1234 1.377 . S
C1235 C1236 1.379 . S
C1236 H1220 0.931 . S
C1236 C1230 1.383 . S
C1236 C1235 1.379 . S
H1237 C1231 0.959 . S
H1238 C1231 0.961 . S
H1239 C1231 0.960 . S
H1240 C1232 0.930 . S
H1241 C1233 0.929 . S
H1242 C1250 0.929 . S
H1243 C1252 0.930 . S
H1244 C1254 0.930 . S
H1245 C1257 0.929 . S
H1246 C1260 0.930 . S
H1247 C1262 0.960 . S
H1248 C1262 0.960 . S
H1249 C1262 0.960 . S
C1250 H1242 0.929 . S
C1250 C1251 1.377 . S
C1250 C1252 1.384 . S
C1251 C1250 1.377 . S
C1251 C1257 1.390 . S
C1252 H1243 0.930 . S
C1252 C1250 1.384 . S
C1252 C1253 1.372 . S
C1253 C1252 1.372 . S
C1253 C1254 1.400 . S
C1253 C1258 1.490 . S
C1254 H1244 0.930 . S
C1254 C1253 1.400 . S
C1254 C1257 1.386 . S
H1255 C1271 0.930 . S
H1256 C1272 0.931 . S
C1257 H1245 0.929 . S
C1257 C1251 1.390 . S
C1257 C1254 1.386 . S
C1258 C1253 1.490 . S
C1258 C1260 1.395 . S
C1258 C1261 1.403 . S
H1259 C1265 0.930 . S
C1260 H1246 0.930 . S
C1260 C1258 1.395 . S
C1260 C1263 1.403 . S
C1261 C1258 1.403 . S
C1261 C1262 1.524 . S
C1261 C1265 1.400 . S
C1262 H1247 0.960 . S
C1262 H1248 0.960 . S
C1262 H1249 0.960 . S
C1262 C1261 1.524 . S
C1263 C1260 1.403 . S
C1263 C1264 1.392 . S
C1263 C1267 1.495 . S
C1264 C1263 1.392 . S
C1264 C1265 1.385 . S
C1264 C1266 1.478 . S
C1265 H1259 0.930 . S
C1265 C1261 1.400 . S
C1265 C1264 1.385 . S
C1266 C1264 1.478 . S
C1266 C1268 1.381 . S
C1266 C1272 1.383 . S
C1267 C1263 1.495 . S
C1267 H1273 0.959 . S
C1267 H1274 0.961 . S
C1267 H1275 0.960 . S
C1268 C1266 1.381 . S
C1268 C1269 1.394 . S
C1268 H1276 0.930 . S
C1269 C1268 1.394 . S
C1269 C1270 1.383 . S
C1269 H1277 0.929 . S
C1270 C1269 1.383 . S
C1270 C1271 1.377 . S
C1271 H1255 0.930 . S
C1271 C1270 1.377 . S
C1271 C1272 1.379 . S
C1272 H1256 0.931 . S
C1272 C1266 1.383 . S
C1272 C1271 1.379 . S
H1273 C1267 0.959 . S
H1274 C1267 0.961 . S
H1275 C1267 0.960 . S
H1276 C1268 0.930 . S
H1277 C1269 0.929 . S
H1278 C1286 0.929 . S
H1279 C1288 0.930 . S
H1280 C1290 0.930 . S
H1281 C1293 0.929 . S
H1282 C1296 0.930 . S
H1283 C1298 0.960 . S
H1284 C1298 0.960 . S
H1285 C1298 0.960 . S
C1286 H1278 0.929 . S
C1286 C1287 1.377 . S
C1286 C1288 1.384 . S
C1287 C1286 1.377 . S
C1287 C1293 1.390 . S
C1288 H1279 0.930 . S
C1288 C1286 1.384 . S
C1288 C1289 1.372 . S
C1289 C1288 1.372 . S
C1289 C1290 1.400 . S
C1289 C1294 1.490 . S
C1290 H1280 0.930 . S
C1290 C1289 1.400 . S
C1290 C1293 1.386 . S
H1291 C1307 0.930 . S
H1292 C1308 0.931 . S
C1293 H1281 0.929 . S
C1293 C1287 1.390 . S
C1293 C1290 1.386 . S
C1294 C1289 1.490 . S
C1294 C1296 1.395 . S
C1294 C1297 1.403 . S
H1295 C1301 0.930 . S
C1296 H1282 0.930 . S
C1296 C1294 1.395 . S
C1296 C1299 1.403 . S
C1297 C1294 1.403 . S
C1297 C1298 1.524 . S
C1297 C1301 1.400 . S
C1298 H1283 0.960 . S
C1298 H1284 0.960 . S
C1298 H1285 0.960 . S
C1298 C1297 1.524 . S
C1299 C1296 1.403 . S
C1299 C1300 1.392 . S
C1299 C1303 1.495 . S
C1300 C1299 1.392 . S
C1300 C1301 1.385 . S
C1300 C1302 1.478 . S
C1301 H1295 0.930 . S
C1301 C1297 1.400 . S
C1301 C1300 1.385 . S
C1302 C1300 1.478 . S
C1302 C1304 1.381 . S
C1302 C1308 1.383 . S
C1303 C1299 1.495 . S
C1303 H1309 0.959 . S
C1303 H1310 0.961 . S
C1303 H1311 0.960 . S
C1304 C1302 1.381 . S
C1304 C1305 1.394 . S
C1304 H1312 0.930 . S
C1305 C1304 1.394 . S
C1305 C1306 1.383 . S
C1305 H1313 0.929 . S
C1306 C1305 1.383 . S
C1306 C1307 1.377 . S
C1307 H1291 0.930 . S
C1307 C1306 1.377 . S
C1307 C1308 1.379 . S
C1308 H1292 0.931 . S
C1308 C1302 1.383 . S
C1308 C1307 1.379 . S
H1309 C1303 0.959 . S
H1310 C1303 0.961 . S
H1311 C1303 0.960 . S
H1312 C1304 0.930 . S
H1313 C1305 0.929 . S
H1314 C1322 0.929 . S
H1315 C1324 0.930 . S
H1316 C1326 0.930 . S
H1317 C1329 0.929 . S
H1318 C1332 0.930 . S
H1319 C1334 0.960 . S
H1320 C1334 0.960 . S
H1321 C1334 0.960 . S
C1322 H1314 0.929 . S
C1322 C1323 1.377 . S
C1322 C1324 1.384 . S
C1323 C1322 1.377 . S
C1323 C1329 1.390 . S
C1324 H1315 0.930 . S
C1324 C1322 1.384 . S
C1324 C1325 1.372 . S
C1325 C1324 1.372 . S
C1325 C1326 1.400 . S
C1325 C1330 1.490 . S
C1326 H1316 0.930 . S
C1326 C1325 1.400 . S
C1326 C1329 1.386 . S
H1327 C1343 0.930 . S
H1328 C1344 0.931 . S
C1329 H1317 0.929 . S
C1329 C1323 1.390 . S
C1329 C1326 1.386 . S
C1330 C1325 1.490 . S
C1330 C1332 1.395 . S
C1330 C1333 1.403 . S
H1331 C1337 0.930 . S
C1332 H1318 0.930 . S
C1332 C1330 1.395 . S
C1332 C1335 1.403 . S
C1333 C1330 1.403 . S
C1333 C1334 1.524 . S
C1333 C1337 1.400 . S
C1334 H1319 0.960 . S
C1334 H1320 0.960 . S
C1334 H1321 0.960 . S
C1334 C1333 1.524 . S
C1335 C1332 1.403 . S
C1335 C1336 1.392 . S
C1335 C1339 1.495 . S
C1336 C1335 1.392 . S
C1336 C1337 1.385 . S
C1336 C1338 1.478 . S
C1337 H1331 0.930 . S
C1337 C1333 1.400 . S
C1337 C1336 1.385 . S
C1338 C1336 1.478 . S
C1338 C1340 1.381 . S
C1338 C1344 1.383 . S
C1339 C1335 1.495 . S
C1339 H1345 0.959 . S
C1339 H1346 0.961 . S
C1339 H1347 0.960 . S
C1340 C1338 1.381 . S
C1340 C1341 1.394 . S
C1340 H1348 0.930 . S
C1341 C1340 1.394 . S
C1341 C1342 1.383 . S
C1341 H1349 0.929 . S
C1342 C1341 1.383 . S
C1342 C1343 1.377 . S
C1343 H1327 0.930 . S
C1343 C1342 1.377 . S
C1343 C1344 1.379 . S
C1344 H1328 0.931 . S
C1344 C1338 1.383 . S
C1344 C1343 1.379 . S
H1345 C1339 0.959 . S
H1346 C1339 0.961 . S
H1347 C1339 0.960 . S
H1348 C1340 0.930 . S
H1349 C1341 0.929 . S
H1350 C1358 0.929 . S
H1351 C1360 0.930 . S
H1352 C1362 0.930 . S
H1353 C1365 0.929 . S
H1354 C1368 0.930 . S
H1355 C1370 0.960 . S
H1356 C1370 0.960 . S
H1357 C1370 0.960 . S
C1358 H1350 0.929 . S
C1358 C1359 1.377 . S
C1358 C1360 1.384 . S
C1359 C1358 1.377 . S
C1359 C1365 1.390 . S
C1360 H1351 0.930 . S
C1360 C1358 1.384 . S
C1360 C1361 1.372 . S
C1361 C1360 1.372 . S
C1361 C1362 1.400 . S
C1361 C1366 1.490 . S
C1362 H1352 0.930 . S
C1362 C1361 1.400 . S
C1362 C1365 1.386 . S
H1363 C1379 0.930 . S
H1364 C1380 0.931 . S
C1365 H1353 0.929 . S
C1365 C1359 1.390 . S
C1365 C1362 1.386 . S
C1366 C1361 1.490 . S
C1366 C1368 1.395 . S
C1366 C1369 1.403 . S
H1367 C1373 0.930 . S
C1368 H1354 0.930 . S
C1368 C1366 1.395 . S
C1368 C1371 1.403 . S
C1369 C1366 1.403 . S
C1369 C1370 1.524 . S
C1369 C1373 1.400 . S
C1370 H1355 0.960 . S
C1370 H1356 0.960 . S
C1370 H1357 0.960 . S
C1370 C1369 1.524 . S
C1371 C1368 1.403 . S
C1371 C1372 1.392 . S
C1371 C1375 1.495 . S
C1372 C1371 1.392 . S
C1372 C1373 1.385 . S
C1372 C1374 1.478 . S
C1373 H1367 0.930 . S
C1373 C1369 1.400 . S
C1373 C1372 1.385 . S
C1374 C1372 1.478 . S
C1374 C1376 1.381 . S
C1374 C1380 1.383 . S
C1375 C1371 1.495 . S
C1375 H1381 0.959 . S
C1375 H1382 0.961 . S
C1375 H1383 0.960 . S
C1376 C1374 1.381 . S
C1376 C1377 1.394 . S
C1376 H1384 0.930 . S
C1377 C1376 1.394 . S
C1377 C1378 1.383 . S
C1377 H1385 0.929 . S
C1378 C1377 1.383 . S
C1378 C1379 1.377 . S
C1379 H1363 0.930 . S
C1379 C1378 1.377 . S
C1379 C1380 1.379 . S
C1380 H1364 0.931 . S
C1380 C1374 1.383 . S
C1380 C1379 1.379 . S
H1381 C1375 0.959 . S
H1382 C1375 0.961 . S
H1383 C1375 0.960 . S
H1384 C1376 0.930 . S
H1385 C1377 0.929 . S
H1386 C1394 0.929 . S
H1387 C1396 0.930 . S
H1388 C1398 0.930 . S
H1389 C1401 0.929 . S
H1390 C1404 0.930 . S
H1391 C1406 0.960 . S
H1392 C1406 0.960 . S
H1393 C1406 0.960 . S
C1394 H1386 0.929 . S
C1394 C1395 1.377 . S
C1394 C1396 1.384 . S
C1395 C1394 1.377 . S
C1395 C1401 1.390 . S
C1396 H1387 0.930 . S
C1396 C1394 1.384 . S
C1396 C1397 1.372 . S
C1397 C1396 1.372 . S
C1397 C1398 1.400 . S
C1397 C1402 1.490 . S
C1398 H1388 0.930 . S
C1398 C1397 1.400 . S
C1398 C1401 1.386 . S
H1399 C1415 0.930 . S
H1400 C1416 0.931 . S
C1401 H1389 0.929 . S
C1401 C1395 1.390 . S
C1401 C1398 1.386 . S
C1402 C1397 1.490 . S
C1402 C1404 1.395 . S
C1402 C1405 1.403 . S
H1403 C1409 0.930 . S
C1404 H1390 0.930 . S
C1404 C1402 1.395 . S
C1404 C1407 1.403 . S
C1405 C1402 1.403 . S
C1405 C1406 1.524 . S
C1405 C1409 1.400 . S
C1406 H1391 0.960 . S
C1406 H1392 0.960 . S
C1406 H1393 0.960 . S
C1406 C1405 1.524 . S
C1407 C1404 1.403 . S
C1407 C1408 1.392 . S
C1407 C1411 1.495 . S
C1408 C1407 1.392 . S
C1408 C1409 1.385 . S
C1408 C1410 1.478 . S
C1409 H1403 0.930 . S
C1409 C1405 1.400 . S
C1409 C1408 1.385 . S
C1410 C1408 1.478 . S
C1410 C1412 1.381 . S
C1410 C1416 1.383 . S
C1411 C1407 1.495 . S
C1411 H1417 0.959 . S
C1411 H1418 0.961 . S
C1411 H1419 0.960 . S
C1412 C1410 1.381 . S
C1412 C1413 1.394 . S
C1412 H1420 0.930 . S
C1413 C1412 1.394 . S
C1413 C1414 1.383 . S
C1413 H1421 0.929 . S
C1414 C1413 1.383 . S
C1414 C1415 1.377 . S
C1415 H1399 0.930 . S
C1415 C1414 1.377 . S
C1415 C1416 1.379 . S
C1416 H1400 0.931 . S
C1416 C1410 1.383 . S
C1416 C1415 1.379 . S
H1417 C1411 0.959 . S
H1418 C1411 0.961 . S
H1419 C1411 0.960 . S
H1420 C1412 0.930 . S
H1421 C1413 0.929 . S
H1422 C1430 0.929 . S
H1423 C1432 0.930 . S
H1424 C1434 0.930 . S
H1425 C1437 0.929 . S
H1426 C1440 0.930 . S
H1427 C1442 0.960 . S
H1428 C1442 0.960 . S
H1429 C1442 0.960 . S
C1430 H1422 0.929 . S
C1430 C1431 1.377 . S
C1430 C1432 1.384 . S
C1431 C1430 1.377 . S
C1431 C1437 1.390 . S
C1432 H1423 0.930 . S
C1432 C1430 1.384 . S
C1432 C1433 1.372 . S
C1433 C1432 1.372 . S
C1433 C1434 1.400 . S
C1433 C1438 1.490 . S
C1434 H1424 0.930 . S
C1434 C1433 1.400 . S
C1434 C1437 1.386 . S
H1435 C1451 0.930 . S
H1436 C1452 0.931 . S
C1437 H1425 0.929 . S
C1437 C1431 1.390 . S
C1437 C1434 1.386 . S
C1438 C1433 1.490 . S
C1438 C1440 1.395 . S
C1438 C1441 1.403 . S
H1439 C1445 0.930 . S
C1440 H1426 0.930 . S
C1440 C1438 1.395 . S
C1440 C1443 1.403 . S
C1441 C1438 1.403 . S
C1441 C1442 1.524 . S
C1441 C1445 1.400 . S
C1442 H1427 0.960 . S
C1442 H1428 0.960 . S
C1442 H1429 0.960 . S
C1442 C1441 1.524 . S
C1443 C1440 1.403 . S
C1443 C1444 1.392 . S
C1443 C1447 1.495 . S
C1444 C1443 1.392 . S
C1444 C1445 1.385 . S
C1444 C1446 1.478 . S
C1445 H1439 0.930 . S
C1445 C1441 1.400 . S
C1445 C1444 1.385 . S
C1446 C1444 1.478 . S
C1446 C1448 1.381 . S
C1446 C1452 1.383 . S
C1447 C1443 1.495 . S
C1447 H1453 0.959 . S
C1447 H1454 0.961 . S
C1447 H1455 0.960 . S
C1448 C1446 1.381 . S
C1448 C1449 1.394 . S
C1448 H1456 0.930 . S
C1449 C1448 1.394 . S
C1449 C1450 1.383 . S
C1449 H1457 0.929 . S
C1450 C1449 1.383 . S
C1450 C1451 1.377 . S
C1451 H1435 0.930 . S
C1451 C1450 1.377 . S
C1451 C1452 1.379 . S
C1452 H1436 0.931 . S
C1452 C1446 1.383 . S
C1452 C1451 1.379 . S
H1453 C1447 0.959 . S
H1454 C1447 0.961 . S
H1455 C1447 0.960 . S
H1456 C1448 0.930 . S
H1457 C1449 0.929 . S
H1458 C1466 0.929 . S
H1459 C1468 0.930 . S
H1460 C1470 0.930 . S
H1461 C1473 0.929 . S
H1462 C1476 0.930 . S
H1463 C1478 0.960 . S
H1464 C1478 0.960 . S
H1465 C1478 0.960 . S
C1466 H1458 0.929 . S
C1466 C1467 1.377 . S
C1466 C1468 1.384 . S
C1467 C1466 1.377 . S
C1467 C1473 1.390 . S
C1468 H1459 0.930 . S
C1468 C1466 1.384 . S
C1468 C1469 1.372 . S
C1469 C1468 1.372 . S
C1469 C1470 1.400 . S
C1469 C1474 1.490 . S
C1470 H1460 0.930 . S
C1470 C1469 1.400 . S
C1470 C1473 1.386 . S
H1471 C1487 0.930 . S
H1472 C1488 0.931 . S
C1473 H1461 0.929 . S
C1473 C1467 1.390 . S
C1473 C1470 1.386 . S
C1474 C1469 1.490 . S
C1474 C1476 1.395 . S
C1474 C1477 1.403 . S
H1475 C1481 0.930 . S
C1476 H1462 0.930 . S
C1476 C1474 1.395 . S
C1476 C1479 1.403 . S
C1477 C1474 1.403 . S
C1477 C1478 1.524 . S
C1477 C1481 1.400 . S
C1478 H1463 0.960 . S
C1478 H1464 0.960 . S
C1478 H1465 0.960 . S
C1478 C1477 1.524 . S
C1479 C1476 1.403 . S
C1479 C1480 1.392 . S
C1479 C1483 1.495 . S
C1480 C1479 1.392 . S
C1480 C1481 1.385 . S
C1480 C1482 1.478 . S
C1481 H1475 0.930 . S
C1481 C1477 1.400 . S
C1481 C1480 1.385 . S
C1482 C1480 1.478 . S
C1482 C1484 1.381 . S
C1482 C1488 1.383 . S
C1483 C1479 1.495 . S
C1483 H1489 0.959 . S
C1483 H1490 0.961 . S
C1483 H1491 0.960 . S
C1484 C1482 1.381 . S
C1484 C1485 1.394 . S
C1484 H1492 0.930 . S
C1485 C1484 1.394 . S
C1485 C1486 1.383 . S
C1485 H1493 0.929 . S
C1486 C1485 1.383 . S
C1486 C1487 1.377 . S
C1487 H1471 0.930 . S
C1487 C1486 1.377 . S
C1487 C1488 1.379 . S
C1488 H1472 0.931 . S
C1488 C1482 1.383 . S
C1488 C1487 1.379 . S
H1489 C1483 0.959 . S
H1490 C1483 0.961 . S
H1491 C1483 0.960 . S
H1492 C1484 0.930 . S
H1493 C1485 0.929 . S
H1494 C1502 0.929 . S
H1495 C1504 0.930 . S
H1496 C1506 0.930 . S
H1497 C1509 0.929 . S
H1498 C1512 0.930 . S
H1499 C1514 0.960 . S
H1500 C1514 0.960 . S
H1501 C1514 0.960 . S
C1502 H1494 0.929 . S
C1502 C1503 1.377 . S
C1502 C1504 1.384 . S
C1503 C1502 1.377 . S
C1503 C1509 1.390 . S
C1504 H1495 0.930 . S
C1504 C1502 1.384 . S
C1504 C1505 1.372 . S
C1505 C1504 1.372 . S
C1505 C1506 1.400 . S
C1505 C1510 1.490 . S
C1506 H1496 0.930 . S
C1506 C1505 1.400 . S
C1506 C1509 1.386 . S
H1507 C1523 0.930 . S
H1508 C1524 0.931 . S
C1509 H1497 0.929 . S
C1509 C1503 1.390 . S
C1509 C1506 1.386 . S
C1510 C1505 1.490 . S
C1510 C1512 1.395 . S
C1510 C1513 1.403 . S
H1511 C1517 0.930 . S
C1512 H1498 0.930 . S
C1512 C1510 1.395 . S
C1512 C1515 1.403 . S
C1513 C1510 1.403 . S
C1513 C1514 1.524 . S
C1513 C1517 1.400 . S
C1514 H1499 0.960 . S
C1514 H1500 0.960 . S
C1514 H1501 0.960 . S
C1514 C1513 1.524 . S
C1515 C1512 1.403 . S
C1515 C1516 1.392 . S
C1515 C1519 1.495 . S
C1516 C1515 1.392 . S
C1516 C1517 1.385 . S
C1516 C1518 1.478 . S
C1517 H1511 0.930 . S
C1517 C1513 1.400 . S
C1517 C1516 1.385 . S
C1518 C1516 1.478 . S
C1518 C1520 1.381 . S
C1518 C1524 1.383 . S
C1519 C1515 1.495 . S
C1519 H1525 0.959 . S
C1519 H1526 0.961 . S
C1519 H1527 0.960 . S
C1520 C1518 1.381 . S
C1520 C1521 1.394 . S
C1520 H1528 0.930 . S
C1521 C1520 1.394 . S
C1521 C1522 1.383 . S
C1521 H1529 0.929 . S
C1522 C1521 1.383 . S
C1522 C1523 1.377 . S
C1523 H1507 0.930 . S
C1523 C1522 1.377 . S
C1523 C1524 1.379 . S
C1524 H1508 0.931 . S
C1524 C1518 1.383 . S
C1524 C1523 1.379 . S
H1525 C1519 0.959 . S
H1526 C1519 0.961 . S
H1527 C1519 0.960 . S
H1528 C1520 0.930 . S
H1529 C1521 0.929 . S
H1530 C1538 0.929 . S
H1531 C1540 0.930 . S
H1532 C1542 0.930 . S
H1533 C1545 0.929 . S
H1534 C1548 0.930 . S
H1535 C1550 0.960 . S
H1536 C1550 0.960 . S
H1537 C1550 0.960 . S
C1538 H1530 0.929 . S
C1538 C1539 1.377 . S
C1538 C1540 1.384 . S
C1539 C1538 1.377 . S
C1539 C1545 1.390 . S
C1540 H1531 0.930 . S
C1540 C1538 1.384 . S
C1540 C1541 1.372 . S
C1541 C1540 1.372 . S
C1541 C1542 1.400 . S
C1541 C1546 1.490 . S
C1542 H1532 0.930 . S
C1542 C1541 1.400 . S
C1542 C1545 1.386 . S
H1543 C1559 0.930 . S
H1544 C1560 0.931 . S
C1545 H1533 0.929 . S
C1545 C1539 1.390 . S
C1545 C1542 1.386 . S
C1546 C1541 1.490 . S
C1546 C1548 1.395 . S
C1546 C1549 1.403 . S
H1547 C1553 0.930 . S
C1548 H1534 0.930 . S
C1548 C1546 1.395 . S
C1548 C1551 1.403 . S
C1549 C1546 1.403 . S
C1549 C1550 1.524 . S
C1549 C1553 1.400 . S
C1550 H1535 0.960 . S
C1550 H1536 0.960 . S
C1550 H1537 0.960 . S
C1550 C1549 1.524 . S
C1551 C1548 1.403 . S
C1551 C1552 1.392 . S
C1551 C1555 1.495 . S
C1552 C1551 1.392 . S
C1552 C1553 1.385 . S
C1552 C1554 1.478 . S
C1553 H1547 0.930 . S
C1553 C1549 1.400 . S
C1553 C1552 1.385 . S
C1554 C1552 1.478 . S
C1554 C1556 1.381 . S
C1554 C1560 1.383 . S
C1555 C1551 1.495 . S
C1555 H1561 0.959 . S
C1555 H1562 0.961 . S
C1555 H1563 0.960 . S
C1556 C1554 1.381 . S
C1556 C1557 1.394 . S
C1556 H1564 0.930 . S
C1557 C1556 1.394 . S
C1557 C1558 1.383 . S
C1557 H1565 0.929 . S
C1558 C1557 1.383 . S
C1558 C1559 1.377 . S
C1559 H1543 0.930 . S
C1559 C1558 1.377 . S
C1559 C1560 1.379 . S
C1560 H1544 0.931 . S
C1560 C1554 1.383 . S
C1560 C1559 1.379 . S
H1561 C1555 0.959 . S
H1562 C1555 0.961 . S
H1563 C1555 0.960 . S
H1564 C1556 0.930 . S
H1565 C1557 0.929 . S
H1566 C1574 0.929 . S
H1567 C1576 0.930 . S
H1568 C1578 0.930 . S
H1569 C1581 0.929 . S
H1570 C1584 0.930 . S
H1571 C1586 0.960 . S
H1572 C1586 0.960 . S
H1573 C1586 0.960 . S
C1574 H1566 0.929 . S
C1574 C1575 1.377 . S
C1574 C1576 1.384 . S
C1575 C1574 1.377 . S
C1575 C1581 1.390 . S
C1576 H1567 0.930 . S
C1576 C1574 1.384 . S
C1576 C1577 1.372 . S
C1577 C1576 1.372 . S
C1577 C1578 1.400 . S
C1577 C1582 1.490 . S
C1578 H1568 0.930 . S
C1578 C1577 1.400 . S
C1578 C1581 1.386 . S
H1579 C1595 0.930 . S
H1580 C1596 0.931 . S
C1581 H1569 0.929 . S
C1581 C1575 1.390 . S
C1581 C1578 1.386 . S
C1582 C1577 1.490 . S
C1582 C1584 1.395 . S
C1582 C1585 1.403 . S
H1583 C1589 0.930 . S
C1584 H1570 0.930 . S
C1584 C1582 1.395 . S
C1584 C1587 1.403 . S
C1585 C1582 1.403 . S
C1585 C1586 1.524 . S
C1585 C1589 1.400 . S
C1586 H1571 0.960 . S
C1586 H1572 0.960 . S
C1586 H1573 0.960 . S
C1586 C1585 1.524 . S
C1587 C1584 1.403 . S
C1587 C1588 1.392 . S
C1587 C1591 1.495 . S
C1588 C1587 1.392 . S
C1588 C1589 1.385 . S
C1588 C1590 1.478 . S
C1589 H1583 0.930 . S
C1589 C1585 1.400 . S
C1589 C1588 1.385 . S
C1590 C1588 1.478 . S
C1590 C1592 1.381 . S
C1590 C1596 1.383 . S
C1591 C1587 1.495 . S
C1591 H1597 0.959 . S
C1591 H1598 0.961 . S
C1591 H1599 0.960 . S
C1592 C1590 1.381 . S
C1592 C1593 1.394 . S
C1592 H1600 0.930 . S
C1593 C1592 1.394 . S
C1593 C1594 1.383 . S
C1593 H1601 0.929 . S
C1594 C1593 1.383 . S
C1594 C1595 1.377 . S
C1595 H1579 0.930 . S
C1595 C1594 1.377 . S
C1595 C1596 1.379 . S
C1596 H1580 0.931 . S
C1596 C1590 1.383 . S
C1596 C1595 1.379 . S
H1597 C1591 0.959 . S
H1598 C1591 0.961 . S
H1599 C1591 0.960 . S
H1600 C1592 0.930 . S
H1601 C1593 0.929 . S
H1602 C1610 0.929 . S
H1603 C1612 0.930 . S
H1604 C1614 0.930 . S
H1605 C1617 0.929 . S
H1606 C1620 0.930 . S
H1607 C1622 0.960 . S
H1608 C1622 0.960 . S
H1609 C1622 0.960 . S
C1610 H1602 0.929 . S
C1610 C1611 1.377 . S
C1610 C1612 1.384 . S
C1611 C1610 1.377 . S
C1611 C1617 1.390 . S
C1612 H1603 0.930 . S
C1612 C1610 1.384 . S
C1612 C1613 1.372 . S
C1613 C1612 1.372 . S
C1613 C1614 1.400 . S
C1613 C1618 1.490 . S
C1614 H1604 0.930 . S
C1614 C1613 1.400 . S
C1614 C1617 1.386 . S
H1615 C1631 0.930 . S
H1616 C1632 0.931 . S
C1617 H1605 0.929 . S
C1617 C1611 1.390 . S
C1617 C1614 1.386 . S
C1618 C1613 1.490 . S
C1618 C1620 1.395 . S
C1618 C1621 1.403 . S
H1619 C1625 0.930 . S
C1620 H1606 0.930 . S
C1620 C1618 1.395 . S
C1620 C1623 1.403 . S
C1621 C1618 1.403 . S
C1621 C1622 1.524 . S
C1621 C1625 1.400 . S
C1622 H1607 0.960 . S
C1622 H1608 0.960 . S
C1622 H1609 0.960 . S
C1622 C1621 1.524 . S
C1623 C1620 1.403 . S
C1623 C1624 1.392 . S
C1623 C1627 1.495 . S
C1624 C1623 1.392 . S
C1624 C1625 1.385 . S
C1624 C1626 1.478 . S
C1625 H1619 0.930 . S
C1625 C1621 1.400 . S
C1625 C1624 1.385 . S
C1626 C1624 1.478 . S
C1626 C1628 1.381 . S
C1626 C1632 1.383 . S
C1627 C1623 1.495 . S
C1627 H1633 0.959 . S
C1627 H1634 0.961 . S
C1627 H1635 0.960 . S
C1628 C1626 1.381 . S
C1628 C1629 1.394 . S
C1628 H1636 0.930 . S
C1629 C1628 1.394 . S
C1629 C1630 1.383 . S
C1629 H1637 0.929 . S
C1630 C1629 1.383 . S
C1630 C1631 1.377 . S
C1631 H1615 0.930 . S
C1631 C1630 1.377 . S
C1631 C1632 1.379 . S
C1632 H1616 0.931 . S
C1632 C1626 1.383 . S
C1632 C1631 1.379 . S
H1633 C1627 0.959 . S
H1634 C1627 0.961 . S
H1635 C1627 0.960 . S
H1636 C1628 0.930 . S
H1637 C1629 0.929 . S
H1638 C1646 0.929 . S
H1639 C1648 0.930 . S
H1640 C1650 0.930 . S
H1641 C1653 0.929 . S
H1642 C1656 0.930 . S
H1643 C1658 0.960 . S
H1644 C1658 0.960 . S
H1645 C1658 0.960 . S
C1646 H1638 0.929 . S
C1646 C1647 1.377 . S
C1646 C1648 1.384 . S
C1647 C1646 1.377 . S
C1647 C1653 1.390 . S
C1648 H1639 0.930 . S
C1648 C1646 1.384 . S
C1648 C1649 1.372 . S
C1649 C1648 1.372 . S
C1649 C1650 1.400 . S
C1649 C1654 1.490 . S
C1650 H1640 0.930 . S
C1650 C1649 1.400 . S
C1650 C1653 1.386 . S
H1651 C1667 0.930 . S
H1652 C1668 0.931 . S
C1653 H1641 0.929 . S
C1653 C1647 1.390 . S
C1653 C1650 1.386 . S
C1654 C1649 1.490 . S
C1654 C1656 1.395 . S
C1654 C1657 1.403 . S
H1655 C1661 0.930 . S
C1656 H1642 0.930 . S
C1656 C1654 1.395 . S
C1656 C1659 1.403 . S
C1657 C1654 1.403 . S
C1657 C1658 1.524 . S
C1657 C1661 1.400 . S
C1658 H1643 0.960 . S
C1658 H1644 0.960 . S
C1658 H1645 0.960 . S
C1658 C1657 1.524 . S
C1659 C1656 1.403 . S
C1659 C1660 1.392 . S
C1659 C1663 1.495 . S
C1660 C1659 1.392 . S
C1660 C1661 1.385 . S
C1660 C1662 1.478 . S
C1661 H1655 0.930 . S
C1661 C1657 1.400 . S
C1661 C1660 1.385 . S
C1662 C1660 1.478 . S
C1662 C1664 1.381 . S
C1662 C1668 1.383 . S
C1663 C1659 1.495 . S
C1663 H1669 0.959 . S
C1663 H1670 0.961 . S
C1663 H1671 0.960 . S
C1664 C1662 1.381 . S
C1664 C1665 1.394 . S
C1664 H1672 0.930 . S
C1665 C1664 1.394 . S
C1665 C1666 1.383 . S
C1665 H1673 0.929 . S
C1666 C1665 1.383 . S
C1666 C1667 1.377 . S
C1667 H1651 0.930 . S
C1667 C1666 1.377 . S
C1667 C1668 1.379 . S
C1668 H1652 0.931 . S
C1668 C1662 1.383 . S
C1668 C1667 1.379 . S
H1669 C1663 0.959 . S
H1670 C1663 0.961 . S
H1671 C1663 0.960 . S
H1672 C1664 0.930 . S
H1673 C1665 0.929 . S
H1674 C1682 0.929 . S
H1675 C1684 0.930 . S
H1676 C1686 0.930 . S
H1677 C1689 0.929 . S
H1678 C1692 0.930 . S
H1679 C1694 0.960 . S
H1680 C1694 0.960 . S
H1681 C1694 0.960 . S
C1682 H1674 0.929 . S
C1682 C1683 1.377 . S
C1682 C1684 1.384 . S
C1683 C1682 1.377 . S
C1683 C1689 1.390 . S
C1684 H1675 0.930 . S
C1684 C1682 1.384 . S
C1684 C1685 1.372 . S
C1685 C1684 1.372 . S
C1685 C1686 1.400 . S
C1685 C1690 1.490 . S
C1686 H1676 0.930 . S
C1686 C1685 1.400 . S
C1686 C1689 1.386 . S
H1687 C1703 0.930 . S
H1688 C1704 0.931 . S
C1689 H1677 0.929 . S
C1689 C1683 1.390 . S
C1689 C1686 1.386 . S
C1690 C1685 1.490 . S
C1690 C1692 1.395 . S
C1690 C1693 1.403 . S
H1691 C1697 0.930 . S
C1692 H1678 0.930 . S
C1692 C1690 1.395 . S
C1692 C1695 1.403 . S
C1693 C1690 1.403 . S
C1693 C1694 1.524 . S
C1693 C1697 1.400 . S
C1694 H1679 0.960 . S
C1694 H1680 0.960 . S
C1694 H1681 0.960 . S
C1694 C1693 1.524 . S
C1695 C1692 1.403 . S
C1695 C1696 1.392 . S
C1695 C1699 1.495 . S
C1696 C1695 1.392 . S
C1696 C1697 1.385 . S
C1696 C1698 1.478 . S
C1697 H1691 0.930 . S
C1697 C1693 1.400 . S
C1697 C1696 1.385 . S
C1698 C1696 1.478 . S
C1698 C1700 1.381 . S
C1698 C1704 1.383 . S
C1699 C1695 1.495 . S
C1699 H1705 0.959 . S
C1699 H1706 0.961 . S
C1699 H1707 0.960 . S
C1700 C1698 1.381 . S
C1700 C1701 1.394 . S
C1700 H1708 0.930 . S
C1701 C1700 1.394 . S
C1701 C1702 1.383 . S
C1701 H1709 0.929 . S
C1702 C1701 1.383 . S
C1702 C1703 1.377 . S
C1703 H1687 0.930 . S
C1703 C1702 1.377 . S
C1703 C1704 1.379 . S
C1704 H1688 0.931 . S
C1704 C1698 1.383 . S
C1704 C1703 1.379 . S
H1705 C1699 0.959 . S
H1706 C1699 0.961 . S
H1707 C1699 0.960 . S
H1708 C1700 0.930 . S
H1709 C1701 0.929 . S
H1710 C1718 0.929 . S
H1711 C1720 0.930 . S
H1712 C1722 0.930 . S
H1713 C1725 0.929 . S
H1714 C1728 0.930 . S
H1715 C1730 0.960 . S
H1716 C1730 0.960 . S
H1717 C1730 0.960 . S
C1718 H1710 0.929 . S
C1718 C1719 1.377 . S
C1718 C1720 1.384 . S
C1719 C1718 1.377 . S
C1719 C1725 1.390 . S
C1720 H1711 0.930 . S
C1720 C1718 1.384 . S
C1720 C1721 1.372 . S
C1721 C1720 1.372 . S
C1721 C1722 1.400 . S
C1721 C1726 1.490 . S
C1722 H1712 0.930 . S
C1722 C1721 1.400 . S
C1722 C1725 1.386 . S
H1723 C1739 0.930 . S
H1724 C1740 0.931 . S
C1725 H1713 0.929 . S
C1725 C1719 1.390 . S
C1725 C1722 1.386 . S
C1726 C1721 1.490 . S
C1726 C1728 1.395 . S
C1726 C1729 1.403 . S
H1727 C1733 0.930 . S
C1728 H1714 0.930 . S
C1728 C1726 1.395 . S
C1728 C1731 1.403 . S
C1729 C1726 1.403 . S
C1729 C1730 1.524 . S
C1729 C1733 1.400 . S
C1730 H1715 0.960 . S
C1730 H1716 0.960 . S
C1730 H1717 0.960 . S
C1730 C1729 1.524 . S
C1731 C1728 1.403 . S
C1731 C1732 1.392 . S
C1731 C1735 1.495 . S
C1732 C1731 1.392 . S
C1732 C1733 1.385 . S
C1732 C1734 1.478 . S
C1733 H1727 0.930 . S
C1733 C1729 1.400 . S
C1733 C1732 1.385 . S
C1734 C1732 1.478 . S
C1734 C1736 1.381 . S
C1734 C1740 1.383 . S
C1735 C1731 1.495 . S
C1735 H1741 0.959 . S
C1735 H1742 0.961 . S
C1735 H1743 0.960 . S
C1736 C1734 1.381 . S
C1736 C1737 1.394 . S
C1736 H1744 0.930 . S
C1737 C1736 1.394 . S
C1737 C1738 1.383 . S
C1737 H1745 0.929 . S
C1738 C1737 1.383 . S
C1738 C1739 1.377 . S
C1739 H1723 0.930 . S
C1739 C1738 1.377 . S
C1739 C1740 1.379 . S
C1740 H1724 0.931 . S
C1740 C1734 1.383 . S
C1740 C1739 1.379 . S
H1741 C1735 0.959 . S
H1742 C1735 0.961 . S
H1743 C1735 0.960 . S
H1744 C1736 0.930 . S
H1745 C1737 0.929 . S
H1746 C1754 0.929 . S
H1747 C1756 0.930 . S
H1748 C1758 0.930 . S
H1749 C1761 0.929 . S
H1750 C1764 0.930 . S
H1751 C1766 0.960 . S
H1752 C1766 0.960 . S
H1753 C1766 0.960 . S
C1754 H1746 0.929 . S
C1754 C1755 1.377 . S
C1754 C1756 1.384 . S
C1755 C1754 1.377 . S
C1755 C1761 1.390 . S
C1756 H1747 0.930 . S
C1756 C1754 1.384 . S
C1756 C1757 1.372 . S
C1757 C1756 1.372 . S
C1757 C1758 1.400 . S
C1757 C1762 1.490 . S
C1758 H1748 0.930 . S
C1758 C1757 1.400 . S
C1758 C1761 1.386 . S
H1759 C1775 0.930 . S
H1760 C1776 0.931 . S
C1761 H1749 0.929 . S
C1761 C1755 1.390 . S
C1761 C1758 1.386 . S
C1762 C1757 1.490 . S
C1762 C1764 1.395 . S
C1762 C1765 1.403 . S
H1763 C1769 0.930 . S
C1764 H1750 0.930 . S
C1764 C1762 1.395 . S
C1764 C1767 1.403 . S
C1765 C1762 1.403 . S
C1765 C1766 1.524 . S
C1765 C1769 1.400 . S
C1766 H1751 0.960 . S
C1766 H1752 0.960 . S
C1766 H1753 0.960 . S
C1766 C1765 1.524 . S
C1767 C1764 1.403 . S
C1767 C1768 1.392 . S
C1767 C1771 1.495 . S
C1768 C1767 1.392 . S
C1768 C1769 1.385 . S
C1768 C1770 1.478 . S
C1769 H1763 0.930 . S
C1769 C1765 1.400 . S
C1769 C1768 1.385 . S
C1770 C1768 1.478 . S
C1770 C1772 1.381 . S
C1770 C1776 1.383 . S
C1771 C1767 1.495 . S
C1771 H1777 0.959 . S
C1771 H1778 0.961 . S
C1771 H1779 0.960 . S
C1772 C1770 1.381 . S
C1772 C1773 1.394 . S
C1772 H1780 0.930 . S
C1773 C1772 1.394 . S
C1773 C1774 1.383 . S
C1773 H1781 0.929 . S
C1774 C1773 1.383 . S
C1774 C1775 1.377 . S
C1775 H1759 0.930 . S
C1775 C1774 1.377 . S
C1775 C1776 1.379 . S
C1776 H1760 0.931 . S
C1776 C1770 1.383 . S
C1776 C1775 1.379 . S
H1777 C1771 0.959 . S
H1778 C1771 0.961 . S
H1779 C1771 0.960 . S
H1780 C1772 0.930 . S
H1781 C1773 0.929 . S
H1782 C1790 0.929 . S
H1783 C1792 0.930 . S
H1784 C1794 0.930 . S
H1785 C1797 0.929 . S
H1786 C1800 0.930 . S
H1787 C1802 0.960 . S
H1788 C1802 0.960 . S
H1789 C1802 0.960 . S
C1790 H1782 0.929 . S
C1790 C1791 1.377 . S
C1790 C1792 1.384 . S
C1791 C1790 1.377 . S
C1791 C1797 1.390 . S
C1792 H1783 0.930 . S
C1792 C1790 1.384 . S
C1792 C1793 1.372 . S
C1793 C1792 1.372 . S
C1793 C1794 1.400 . S
C1793 C1798 1.490 . S
C1794 H1784 0.930 . S
C1794 C1793 1.400 . S
C1794 C1797 1.386 . S
H1795 C1811 0.930 . S
H1796 C1812 0.931 . S
C1797 H1785 0.929 . S
C1797 C1791 1.390 . S
C1797 C1794 1.386 . S
C1798 C1793 1.490 . S
C1798 C1800 1.395 . S
C1798 C1801 1.403 . S
H1799 C1805 0.930 . S
C1800 H1786 0.930 . S
C1800 C1798 1.395 . S
C1800 C1803 1.403 . S
C1801 C1798 1.403 . S
C1801 C1802 1.524 . S
C1801 C1805 1.400 . S
C1802 H1787 0.960 . S
C1802 H1788 0.960 . S
C1802 H1789 0.960 . S
C1802 C1801 1.524 . S
C1803 C1800 1.403 . S
C1803 C1804 1.392 . S
C1803 C1807 1.495 . S
C1804 C1803 1.392 . S
C1804 C1805 1.385 . S
C1804 C1806 1.478 . S
C1805 H1799 0.930 . S
C1805 C1801 1.400 . S
C1805 C1804 1.385 . S
C1806 C1804 1.478 . S
C1806 C1808 1.381 . S
C1806 C1812 1.383 . S
C1807 C1803 1.495 . S
C1807 H1813 0.959 . S
C1807 H1814 0.961 . S
C1807 H1815 0.960 . S
C1808 C1806 1.381 . S
C1808 C1809 1.394 . S
C1808 H1816 0.930 . S
C1809 C1808 1.394 . S
C1809 C1810 1.383 . S
C1809 H1817 0.929 . S
C1810 C1809 1.383 . S
C1810 C1811 1.377 . S
C1811 H1795 0.930 . S
C1811 C1810 1.377 . S
C1811 C1812 1.379 . S
C1812 H1796 0.931 . S
C1812 C1806 1.383 . S
C1812 C1811 1.379 . S
H1813 C1807 0.959 . S
H1814 C1807 0.961 . S
H1815 C1807 0.960 . S
H1816 C1808 0.930 . S
H1817 C1809 0.929 . S
H1818 C1826 0.929 . S
H1819 C1828 0.930 . S
H1820 C1830 0.930 . S
H1821 C1833 0.929 . S
H1822 C1836 0.930 . S
H1823 C1838 0.960 . S
H1824 C1838 0.960 . S
H1825 C1838 0.960 . S
C1826 H1818 0.929 . S
C1826 C1827 1.377 . S
C1826 C1828 1.384 . S
C1827 C1826 1.377 . S
C1827 C1833 1.390 . S
C1828 H1819 0.930 . S
C1828 C1826 1.384 . S
C1828 C1829 1.372 . S
C1829 C1828 1.372 . S
C1829 C1830 1.400 . S
C1829 C1834 1.490 . S
C1830 H1820 0.930 . S
C1830 C1829 1.400 . S
C1830 C1833 1.386 . S
H1831 C1847 0.930 . S
H1832 C1848 0.931 . S
C1833 H1821 0.929 . S
C1833 C1827 1.390 . S
C1833 C1830 1.386 . S
C1834 C1829 1.490 . S
C1834 C1836 1.395 . S
C1834 C1837 1.403 . S
H1835 C1841 0.930 . S
C1836 H1822 0.930 . S
C1836 C1834 1.395 . S
C1836 C1839 1.403 . S
C1837 C1834 1.403 . S
C1837 C1838 1.524 . S
C1837 C1841 1.400 . S
C1838 H1823 0.960 . S
C1838 H1824 0.960 . S
C1838 H1825 0.960 . S
C1838 C1837 1.524 . S
C1839 C1836 1.403 . S
C1839 C1840 1.392 . S
C1839 C1843 1.495 . S
C1840 C1839 1.392 . S
C1840 C1841 1.385 . S
C1840 C1842 1.478 . S
C1841 H1835 0.930 . S
C1841 C1837 1.400 . S
C1841 C1840 1.385 . S
C1842 C1840 1.478 . S
C1842 C1844 1.381 . S
C1842 C1848 1.383 . S
C1843 C1839 1.495 . S
C1843 H1849 0.959 . S
C1843 H1850 0.961 . S
C1843 H1851 0.960 . S
C1844 C1842 1.381 . S
C1844 C1845 1.394 . S
C1844 H1852 0.930 . S
C1845 C1844 1.394 . S
C1845 C1846 1.383 . S
C1845 H1853 0.929 . S
C1846 C1845 1.383 . S
C1846 C1847 1.377 . S
C1847 H1831 0.930 . S
C1847 C1846 1.377 . S
C1847 C1848 1.379 . S
C1848 H1832 0.931 . S
C1848 C1842 1.383 . S
C1848 C1847 1.379 . S
H1849 C1843 0.959 . S
H1850 C1843 0.961 . S
H1851 C1843 0.960 . S
H1852 C1844 0.930 . S
H1853 C1845 0.929 . S
H1854 C1862 0.929 . S
H1855 C1864 0.930 . S
H1856 C1866 0.930 . S
H1857 C1869 0.929 . S
H1858 C1872 0.930 . S
H1859 C1874 0.960 . S
H1860 C1874 0.960 . S
H1861 C1874 0.960 . S
C1862 H1854 0.929 . S
C1862 C1863 1.377 . S
C1862 C1864 1.384 . S
C1863 C1862 1.377 . S
C1863 C1869 1.390 . S
C1864 H1855 0.930 . S
C1864 C1862 1.384 . S
C1864 C1865 1.372 . S
C1865 C1864 1.372 . S
C1865 C1866 1.400 . S
C1865 C1870 1.490 . S
C1866 H1856 0.930 . S
C1866 C1865 1.400 . S
C1866 C1869 1.386 . S
H1867 C1883 0.930 . S
H1868 C1884 0.931 . S
C1869 H1857 0.929 . S
C1869 C1863 1.390 . S
C1869 C1866 1.386 . S
C1870 C1865 1.490 . S
C1870 C1872 1.395 . S
C1870 C1873 1.403 . S
H1871 C1877 0.930 . S
C1872 H1858 0.930 . S
C1872 C1870 1.395 . S
C1872 C1875 1.403 . S
C1873 C1870 1.403 . S
C1873 C1874 1.524 . S
C1873 C1877 1.400 . S
C1874 H1859 0.960 . S
C1874 H1860 0.960 . S
C1874 H1861 0.960 . S
C1874 C1873 1.524 . S
C1875 C1872 1.403 . S
C1875 C1876 1.392 . S
C1875 C1879 1.495 . S
C1876 C1875 1.392 . S
C1876 C1877 1.385 . S
C1876 C1878 1.478 . S
C1877 H1871 0.930 . S
C1877 C1873 1.400 . S
C1877 C1876 1.385 . S
C1878 C1876 1.478 . S
C1878 C1880 1.381 . S
C1878 C1884 1.383 . S
C1879 C1875 1.495 . S
C1879 H1885 0.959 . S
C1879 H1886 0.961 . S
C1879 H1887 0.960 . S
C1880 C1878 1.381 . S
C1880 C1881 1.394 . S
C1880 H1888 0.930 . S
C1881 C1880 1.394 . S
C1881 C1882 1.383 . S
C1881 H1889 0.929 . S
C1882 C1881 1.383 . S
C1882 C1883 1.377 . S
C1883 H1867 0.930 . S
C1883 C1882 1.377 . S
C1883 C1884 1.379 . S
C1884 H1868 0.931 . S
C1884 C1878 1.383 . S
C1884 C1883 1.379 . S
H1885 C1879 0.959 . S
H1886 C1879 0.961 . S
H1887 C1879 0.960 . S
H1888 C1880 0.930 . S
H1889 C1881 0.929 . S
H1890 C1898 0.929 . S
H1891 C1900 0.930 . S
H1892 C1902 0.930 . S
H1893 C1905 0.929 . S
H1894 C1908 0.930 . S
H1895 C1910 0.960 . S
H1896 C1910 0.960 . S
H1897 C1910 0.960 . S
C1898 H1890 0.929 . S
C1898 C1899 1.377 . S
C1898 C1900 1.384 . S
C1899 C1898 1.377 . S
C1899 C1905 1.390 . S
C1900 H1891 0.930 . S
C1900 C1898 1.384 . S
C1900 C1901 1.372 . S
C1901 C1900 1.372 . S
C1901 C1902 1.400 . S
C1901 C1906 1.490 . S
C1902 H1892 0.930 . S
C1902 C1901 1.400 . S
C1902 C1905 1.386 . S
H1903 C1919 0.930 . S
H1904 C1920 0.931 . S
C1905 H1893 0.929 . S
C1905 C1899 1.390 . S
C1905 C1902 1.386 . S
C1906 C1901 1.490 . S
C1906 C1908 1.395 . S
C1906 C1909 1.403 . S
H1907 C1913 0.930 . S
C1908 H1894 0.930 . S
C1908 C1906 1.395 . S
C1908 C1911 1.403 . S
C1909 C1906 1.403 . S
C1909 C1910 1.524 . S
C1909 C1913 1.400 . S
C1910 H1895 0.960 . S
C1910 H1896 0.960 . S
C1910 H1897 0.960 . S
C1910 C1909 1.524 . S
C1911 C1908 1.403 . S
C1911 C1912 1.392 . S
C1911 C1915 1.495 . S
C1912 C1911 1.392 . S
C1912 C1913 1.385 . S
C1912 C1914 1.478 . S
C1913 H1907 0.930 . S
C1913 C1909 1.400 . S
C1913 C1912 1.385 . S
C1914 C1912 1.478 . S
C1914 C1916 1.381 . S
C1914 C1920 1.383 . S
C1915 C1911 1.495 . S
C1915 H1921 0.959 . S
C1915 H1922 0.961 . S
C1915 H1923 0.960 . S
C1916 C1914 1.381 . S
C1916 C1917 1.394 . S
C1916 H1924 0.930 . S
C1917 C1916 1.394 . S
C1917 C1918 1.383 . S
C1917 H1925 0.929 . S
C1918 C1917 1.383 . S
C1918 C1919 1.377 . S
C1919 H1903 0.930 . S
C1919 C1918 1.377 . S
C1919 C1920 1.379 . S
C1920 H1904 0.931 . S
C1920 C1914 1.383 . S
C1920 C1919 1.379 . S
H1921 C1915 0.959 . S
H1922 C1915 0.961 . S
H1923 C1915 0.960 . S
H1924 C1916 0.930 . S
H1925 C1917 0.929 . S
H1926 C1934 0.929 . S
H1927 C1936 0.930 . S
H1928 C1938 0.930 . S
H1929 C1941 0.929 . S
H1930 C1944 0.930 . S
H1931 C1946 0.960 . S
H1932 C1946 0.960 . S
H1933 C1946 0.960 . S
C1934 H1926 0.929 . S
C1934 C1935 1.377 . S
C1934 C1936 1.384 . S
C1935 C1934 1.377 . S
C1935 C1941 1.390 . S
C1936 H1927 0.930 . S
C1936 C1934 1.384 . S
C1936 C1937 1.372 . S
C1937 C1936 1.372 . S
C1937 C1938 1.400 . S
C1937 C1942 1.490 . S
C1938 H1928 0.930 . S
C1938 C1937 1.400 . S
C1938 C1941 1.386 . S
H1939 C1955 0.930 . S
H1940 C1956 0.931 . S
C1941 H1929 0.929 . S
C1941 C1935 1.390 . S
C1941 C1938 1.386 . S
C1942 C1937 1.490 . S
C1942 C1944 1.395 . S
C1942 C1945 1.403 . S
H1943 C1949 0.930 . S
C1944 H1930 0.930 . S
C1944 C1942 1.395 . S
C1944 C1947 1.403 . S
C1945 C1942 1.403 . S
C1945 C1946 1.524 . S
C1945 C1949 1.400 . S
C1946 H1931 0.960 . S
C1946 H1932 0.960 . S
C1946 H1933 0.960 . S
C1946 C1945 1.524 . S
C1947 C1944 1.403 . S
C1947 C1948 1.392 . S
C1947 C1951 1.495 . S
C1948 C1947 1.392 . S
C1948 C1949 1.385 . S
C1948 C1950 1.478 . S
C1949 H1943 0.930 . S
C1949 C1945 1.400 . S
C1949 C1948 1.385 . S
C1950 C1948 1.478 . S
C1950 C1952 1.381 . S
C1950 C1956 1.383 . S
C1951 C1947 1.495 . S
C1951 H1957 0.959 . S
C1951 H1958 0.961 . S
C1951 H1959 0.960 . S
C1952 C1950 1.381 . S
C1952 C1953 1.394 . S
C1952 H1960 0.930 . S
C1953 C1952 1.394 . S
C1953 C1954 1.383 . S
C1953 H1961 0.929 . S
C1954 C1953 1.383 . S
C1954 C1955 1.377 . S
C1955 H1939 0.930 . S
C1955 C1954 1.377 . S
C1955 C1956 1.379 . S
C1956 H1940 0.931 . S
C1956 C1950 1.383 . S
C1956 C1955 1.379 . S
H1957 C1951 0.959 . S
H1958 C1951 0.961 . S
H1959 C1951 0.960 . S
H1960 C1952 0.930 . S
H1961 C1953 0.929 . S
H1962 C1970 0.929 . S
H1963 C1972 0.930 . S
H1964 C1974 0.930 . S
H1965 C1977 0.929 . S
H1966 C1980 0.930 . S
H1967 C1982 0.960 . S
H1968 C1982 0.960 . S
H1969 C1982 0.960 . S
C1970 H1962 0.929 . S
C1970 C1971 1.377 . S
C1970 C1972 1.384 . S
C1971 C1970 1.377 . S
C1971 C1977 1.390 . S
C1972 H1963 0.930 . S
C1972 C1970 1.384 . S
C1972 C1973 1.372 . S
C1973 C1972 1.372 . S
C1973 C1974 1.400 . S
C1973 C1978 1.490 . S
C1974 H1964 0.930 . S
C1974 C1973 1.400 . S
C1974 C1977 1.386 . S
H1975 C1991 0.930 . S
H1976 C1992 0.931 . S
C1977 H1965 0.929 . S
C1977 C1971 1.390 . S
C1977 C1974 1.386 . S
C1978 C1973 1.490 . S
C1978 C1980 1.395 . S
C1978 C1981 1.403 . S
H1979 C1985 0.930 . S
C1980 H1966 0.930 . S
C1980 C1978 1.395 . S
C1980 C1983 1.403 . S
C1981 C1978 1.403 . S
C1981 C1982 1.524 . S
C1981 C1985 1.400 . S
C1982 H1967 0.960 . S
C1982 H1968 0.960 . S
C1982 H1969 0.960 . S
C1982 C1981 1.524 . S
C1983 C1980 1.403 . S
C1983 C1984 1.392 . S
C1983 C1987 1.495 . S
C1984 C1983 1.392 . S
C1984 C1985 1.385 . S
C1984 C1986 1.478 . S
C1985 H1979 0.930 . S
C1985 C1981 1.400 . S
C1985 C1984 1.385 . S
C1986 C1984 1.478 . S
C1986 C1988 1.381 . S
C1986 C1992 1.383 . S
C1987 C1983 1.495 . S
C1987 H1993 0.959 . S
C1987 H1994 0.961 . S
C1987 H1995 0.960 . S
C1988 C1986 1.381 . S
C1988 C1989 1.394 . S
C1988 H1996 0.930 . S
C1989 C1988 1.394 . S
C1989 C1990 1.383 . S
C1989 H1997 0.929 . S
C1990 C1989 1.383 . S
C1990 C1991 1.377 . S
C1991 H1975 0.930 . S
C1991 C1990 1.377 . S
C1991 C1992 1.379 . S
C1992 H1976 0.931 . S
C1992 C1986 1.383 . S
C1992 C1991 1.379 . S
H1993 C1987 0.959 . S
H1994 C1987 0.961 . S
H1995 C1987 0.960 . S
H1996 C1988 0.930 . S
H1997 C1989 0.929 . S
H1998 C2006 0.929 . S
H1999 C2008 0.930 . S
H2000 C2010 0.930 . S
H2001 C2013 0.929 . S
H2002 C2016 0.930 . S
H2003 C2018 0.960 . S
H2004 C2018 0.960 . S
H2005 C2018 0.960 . S
C2006 H1998 0.929 . S
C2006 C2007 1.377 . S
C2006 C2008 1.384 . S
C2007 C2006 1.377 . S
C2007 C2013 1.390 . S
C2008 H1999 0.930 . S
C2008 C2006 1.384 . S
C2008 C2009 1.372 . S
C2009 C2008 1.372 . S
C2009 C2010 1.400 . S
C2009 C2014 1.490 . S
C2010 H2000 0.930 . S
C2010 C2009 1.400 . S
C2010 C2013 1.386 . S
H2011 C2027 0.930 . S
H2012 C2028 0.931 . S
C2013 H2001 0.929 . S
C2013 C2007 1.390 . S
C2013 C2010 1.386 . S
C2014 C2009 1.490 . S
C2014 C2016 1.395 . S
C2014 C2017 1.403 . S
H2015 C2021 0.930 . S
C2016 H2002 0.930 . S
C2016 C2014 1.395 . S
C2016 C2019 1.403 . S
C2017 C2014 1.403 . S
C2017 C2018 1.524 . S
C2017 C2021 1.400 . S
C2018 H2003 0.960 . S
C2018 H2004 0.960 . S
C2018 H2005 0.960 . S
C2018 C2017 1.524 . S
C2019 C2016 1.403 . S
C2019 C2020 1.392 . S
C2019 C2023 1.495 . S
C2020 C2019 1.392 . S
C2020 C2021 1.385 . S
C2020 C2022 1.478 . S
C2021 H2015 0.930 . S
C2021 C2017 1.400 . S
C2021 C2020 1.385 . S
C2022 C2020 1.478 . S
C2022 C2024 1.381 . S
C2022 C2028 1.383 . S
C2023 C2019 1.495 . S
C2023 H2029 0.959 . S
C2023 H2030 0.961 . S
C2023 H2031 0.960 . S
C2024 C2022 1.381 . S
C2024 C2025 1.394 . S
C2024 H2032 0.930 . S
C2025 C2024 1.394 . S
C2025 C2026 1.383 . S
C2025 H2033 0.929 . S
C2026 C2025 1.383 . S
C2026 C2027 1.377 . S
C2027 H2011 0.930 . S
C2027 C2026 1.377 . S
C2027 C2028 1.379 . S
C2028 H2012 0.931 . S
C2028 C2022 1.383 . S
C2028 C2027 1.379 . S
H2029 C2023 0.959 . S
H2030 C2023 0.961 . S
H2031 C2023 0.960 . S
H2032 C2024 0.930 . S
H2033 C2025 0.929 . S
H2034 C2042 0.929 . S
H2035 C2044 0.930 . S
H2036 C2046 0.930 . S
H2037 C2049 0.929 . S
H2038 C2052 0.930 . S
H2039 C2054 0.960 . S
H2040 C2054 0.928 1_554 S
H2041 C2054 0.960 . S
C2042 H2034 0.929 . S
C2042 C2043 1.377 . S
C2042 C2044 1.384 . S
C2043 C2042 1.377 . S
C2043 C2049 1.390 . S
C2044 H2035 0.930 . S
C2044 C2042 1.384 . S
C2044 C2045 1.372 . S
C2045 C2044 1.372 . S
C2045 C2046 1.400 . S
C2045 C2050 1.490 . S
C2046 H2036 0.930 . S
C2046 C2045 1.400 . S
C2046 C2049 1.386 . S
H2047 C2063 0.930 . S
H2048 C2064 0.931 . S
C2049 H2037 0.929 . S
C2049 C2043 1.390 . S
C2049 C2046 1.386 . S
C2050 C2045 1.490 . S
C2050 C2052 1.395 . S
C2050 C2053 1.403 . S
H2051 C2057 0.930 . S
C2052 H2038 0.930 . S
C2052 C2050 1.395 . S
C2052 C2055 1.403 . S
C2053 C2050 1.403 . S
C2053 C2054 1.524 . S
C2053 C2057 1.400 . S
C2054 H2039 0.960 . S
C2054 H2040 0.928 1_556 S
C2054 H2041 0.960 . S
C2054 C2053 1.524 . S
C2055 C2052 1.403 . S
C2055 C2056 1.392 . S
C2055 C2059 1.495 . S
C2056 C2055 1.392 . S
C2056 C2057 1.385 . S
C2056 C2058 1.478 . S
C2057 H2051 0.930 . S
C2057 C2053 1.400 . S
C2057 C2056 1.385 . S
C2058 C2056 1.478 . S
C2058 C2060 1.381 . S
C2058 C2064 1.383 . S
C2059 C2055 1.495 . S
C2059 H2065 0.959 . S
C2059 H2066 0.961 . S
C2059 H2067 0.960 . S
C2060 C2058 1.381 . S
C2060 C2061 1.394 . S
C2060 H2068 0.930 . S
C2061 C2060 1.394 . S
C2061 C2062 1.383 . S
C2061 H2069 0.929 . S
C2062 C2061 1.383 . S
C2062 C2063 1.377 . S
C2063 H2047 0.930 . S
C2063 C2062 1.377 . S
C2063 C2064 1.379 . S
C2064 H2048 0.931 . S
C2064 C2058 1.383 . S
C2064 C2063 1.379 . S
H2065 C2059 0.959 . S
H2066 C2059 0.961 . S
H2067 C2059 0.960 . S
H2068 C2060 0.930 . S
H2069 C2061 0.929 . S
H2070 C2078 0.929 . S
H2071 C2080 0.930 . S
H2072 C2082 0.930 . S
H2073 C2085 0.929 1_554 S
H2074 C2088 0.930 . S
H2075 C2090 0.960 1_554 S
H2076 C2090 0.964 . S
H2077 C2090 0.960 1_554 S
C2078 H2070 0.929 . S
C2078 C2079 1.377 . S
C2078 C2080 1.384 . S
C2079 C2078 1.377 . S
C2079 C2085 1.390 . S
C2080 H2071 0.930 . S
C2080 C2078 1.384 . S
C2080 C2081 1.372 . S
C2081 C2080 1.372 . S
C2081 C2082 1.400 . S
C2081 C2086 1.490 . S
C2082 H2072 0.930 . S
C2082 C2081 1.400 . S
C2082 C2085 1.386 . S
H2083 C2099 0.930 . S
H2084 C2100 0.931 . S
C2085 H2073 0.929 1_556 S
C2085 C2079 1.390 . S
C2085 C2082 1.386 . S
C2086 C2081 1.490 . S
C2086 C2088 1.395 . S
C2086 C2089 1.403 . S
H2087 C2093 0.930 . S
C2088 H2074 0.930 . S
C2088 C2086 1.395 . S
C2088 C2091 1.403 . S
C2089 C2086 1.403 . S
C2089 C2090 1.524 . S
C2089 C2093 1.400 . S
C2090 H2075 0.960 1_556 S
C2090 H2076 0.964 . S
C2090 H2077 0.960 1_556 S
C2090 C2089 1.524 . S
C2091 C2088 1.403 . S
C2091 C2092 1.392 . S
C2091 C2095 1.495 . S
C2092 C2091 1.392 . S
C2092 C2093 1.385 . S
C2092 C2094 1.478 . S
C2093 H2087 0.930 . S
C2093 C2089 1.400 . S
C2093 C2092 1.385 . S
C2094 C2092 1.478 . S
C2094 C2096 1.381 . S
C2094 C2100 1.383 . S
C2095 C2091 1.495 . S
C2095 H2101 0.959 . S
C2095 H2102 0.961 . S
C2095 H2103 0.960 . S
C2096 C2094 1.381 . S
C2096 C2097 1.394 . S
C2096 H2104 0.930 . S
C2097 C2096 1.394 . S
C2097 C2098 1.383 . S
C2097 H2105 0.929 . S
C2098 C2097 1.383 . S
C2098 C2099 1.377 . S
C2099 H2083 0.930 . S
C2099 C2098 1.377 . S
C2099 C2100 1.379 . S
C2100 H2084 0.931 . S
C2100 C2094 1.383 . S
C2100 C2099 1.379 . S
H2101 C2095 0.959 . S
H2102 C2095 0.961 . S
H2103 C2095 0.960 . S
H2104 C2096 0.930 . S
H2105 C2097 0.929 . S
H2106 C2114 0.929 . S
H2107 C2116 0.930 . S
H2108 C2118 0.930 . S
H2109 C2121 0.929 1_554 S
H2110 C2124 0.930 . S
H2111 C2126 0.960 . S
H2112 C2126 0.960 . S
H2113 C2126 0.960 . S
C2114 H2106 0.929 . S
C2114 C2115 1.377 . S
C2114 C2116 1.384 . S
C2115 C2114 1.377 . S
C2115 C2121 1.390 . S
C2116 H2107 0.930 . S
C2116 C2114 1.384 . S
C2116 C2117 1.372 . S
C2117 C2116 1.372 . S
C2117 C2118 1.400 . S
C2117 C2122 1.490 . S
C2118 H2108 0.930 . S
C2118 C2117 1.400 . S
C2118 C2121 1.386 . S
H2119 C2135 0.930 . S
H2120 C2136 0.931 . S
C2121 H2109 0.929 1_556 S
C2121 C2115 1.390 . S
C2121 C2118 1.386 . S
C2122 C2117 1.490 . S
C2122 C2124 1.395 . S
C2122 C2125 1.403 . S
H2123 C2129 0.930 . S
C2124 H2110 0.930 . S
C2124 C2122 1.395 . S
C2124 C2127 1.403 . S
C2125 C2122 1.403 . S
C2125 C2126 1.524 . S
C2125 C2129 1.400 . S
C2126 H2111 0.960 . S
C2126 H2112 0.960 . S
C2126 H2113 0.960 . S
C2126 C2125 1.524 . S
C2127 C2124 1.403 . S
C2127 C2128 1.392 . S
C2127 C2131 1.495 . S
C2128 C2127 1.392 . S
C2128 C2129 1.385 . S
C2128 C2130 1.478 . S
C2129 H2123 0.930 . S
C2129 C2125 1.400 . S
C2129 C2128 1.385 . S
C2130 C2128 1.478 . S
C2130 C2132 1.381 . S
C2130 C2136 1.383 . S
C2131 C2127 1.495 . S
C2131 H2137 0.959 . S
C2131 H2138 0.961 . S
C2131 H2139 0.960 . S
C2132 C2130 1.381 . S
C2132 C2133 1.394 . S
C2132 H2140 0.930 . S
C2133 C2132 1.394 . S
C2133 C2134 1.383 . S
C2133 H2141 0.929 . S
C2134 C2133 1.383 . S
C2134 C2135 1.377 . S
C2135 H2119 0.930 . S
C2135 C2134 1.377 . S
C2135 C2136 1.379 . S
C2136 H2120 0.931 . S
C2136 C2130 1.383 . S
C2136 C2135 1.379 . S
H2137 C2131 0.959 . S
H2138 C2131 0.961 . S
H2139 C2131 0.960 . S
H2140 C2132 0.930 . S
H2141 C2133 0.929 . S
H2142 C2150 0.929 . S
H2143 C2152 0.930 . S
H2144 C2154 0.930 . S
H2145 C2157 0.893 1_554 S
H2146 C2160 0.930 . S
H2147 C2162 0.960 . S
H2148 C2162 0.960 . S
H2149 C2162 0.960 . S
C2150 H2142 0.929 . S
C2150 C2151 1.377 . S
C2150 C2152 1.384 . S
C2151 C2150 1.377 . S
C2151 C2157 1.390 . S
C2152 H2143 0.930 . S
C2152 C2150 1.384 . S
C2152 C2153 1.372 . S
C2153 C2152 1.372 . S
C2153 C2154 1.400 . S
C2153 C2158 1.490 . S
C2154 H2144 0.930 . S
C2154 C2153 1.400 . S
C2154 C2157 1.386 . S
H2155 C2171 0.930 . S
H2156 C2172 0.931 . S
C2157 H2145 0.893 1_556 S
C2157 C2151 1.390 . S
C2157 C2154 1.386 . S
C2158 C2153 1.490 . S
C2158 C2160 1.395 . S
C2158 C2161 1.403 . S
H2159 C2165 0.930 . S
C2160 H2146 0.930 . S
C2160 C2158 1.395 . S
C2160 C2163 1.403 . S
C2161 C2158 1.403 . S
C2161 C2162 1.524 . S
C2161 C2165 1.400 . S
C2162 H2147 0.960 . S
C2162 H2148 0.960 . S
C2162 H2149 0.960 . S
C2162 C2161 1.524 . S
C2163 C2160 1.403 . S
C2163 C2164 1.392 . S
C2163 C2167 1.495 . S
C2164 C2163 1.392 . S
C2164 C2165 1.385 . S
C2164 C2166 1.478 . S
C2165 H2159 0.930 . S
C2165 C2161 1.400 . S
C2165 C2164 1.385 . S
C2166 C2164 1.478 . S
C2166 C2168 1.381 . S
C2166 C2172 1.383 . S
C2167 C2163 1.495 . S
C2167 H2173 0.959 . S
C2167 H2174 0.961 . S
C2167 H2175 0.960 . S
C2168 C2166 1.381 . S
C2168 C2169 1.394 . S
C2168 H2176 0.930 . S
C2169 C2168 1.394 . S
C2169 C2170 1.383 . S
C2169 H2177 0.929 . S
C2170 C2169 1.383 . S
C2170 C2171 1.377 . S
C2171 H2155 0.930 . S
C2171 C2170 1.377 . S
C2171 C2172 1.379 . S
C2172 H2156 0.931 . S
C2172 C2166 1.383 . S
C2172 C2171 1.379 . S
H2173 C2167 0.959 . S
H2174 C2167 0.961 . S
H2175 C2167 0.960 . S
H2176 C2168 0.930 . S
H2177 C2169 0.929 . S
H2178 C2186 0.929 1_554 S
H2179 C2188 0.930 . S
H2180 C2190 0.930 . S
H2181 C2193 0.929 . S
H2182 C2196 0.930 . S
H2183 C2198 0.960 . S
H2184 C2198 0.960 . S
H2185 C2198 0.960 . S
C2186 H2178 0.929 1_556 S
C2186 C2187 1.377 . S
C2186 C2188 1.384 . S
C2187 C2186 1.377 . S
C2187 C2193 1.390 . S
C2188 H2179 0.930 . S
C2188 C2186 1.384 . S
C2188 C2189 1.372 . S
C2189 C2188 1.372 . S
C2189 C2190 1.400 . S
C2189 C2194 1.490 . S
C2190 H2180 0.930 . S
C2190 C2189 1.400 . S
C2190 C2193 1.386 . S
H2191 C2207 0.930 . S
H2192 C2208 0.931 . S
C2193 H2181 0.929 . S
C2193 C2187 1.390 . S
C2193 C2190 1.386 . S
C2194 C2189 1.490 . S
C2194 C2196 1.395 . S
C2194 C2197 1.403 . S
H2195 C2201 0.930 . S
C2196 H2182 0.930 . S
C2196 C2194 1.395 . S
C2196 C2199 1.403 . S
C2197 C2194 1.403 . S
C2197 C2198 1.524 . S
C2197 C2201 1.400 . S
C2198 H2183 0.960 . S
C2198 H2184 0.960 . S
C2198 H2185 0.960 . S
C2198 C2197 1.524 . S
C2199 C2196 1.403 . S
C2199 C2200 1.392 . S
C2199 C2203 1.495 . S
C2200 C2199 1.392 . S
C2200 C2201 1.385 . S
C2200 C2202 1.478 . S
C2201 H2195 0.930 . S
C2201 C2197 1.400 . S
C2201 C2200 1.385 . S
C2202 C2200 1.478 . S
C2202 C2204 1.381 . S
C2202 C2208 1.383 . S
C2203 C2199 1.495 . S
C2203 H2209 0.959 . S
C2203 H2210 0.961 . S
C2203 H2211 0.960 . S
C2204 C2202 1.381 . S
C2204 C2205 1.394 . S
C2204 H2212 0.930 . S
C2205 C2204 1.394 . S
C2205 C2206 1.383 . S
C2205 H2213 0.929 . S
C2206 C2205 1.383 . S
C2206 C2207 1.377 . S
C2207 H2191 0.930 . S
C2207 C2206 1.377 . S
C2207 C2208 1.379 . S
C2208 H2192 0.931 . S
C2208 C2202 1.383 . S
C2208 C2207 1.379 . S
H2209 C2203 0.959 . S
H2210 C2203 0.961 . S
H2211 C2203 0.960 . S
H2212 C2204 0.930 . S
H2213 C2205 0.929 . S
H2214 C2222 0.929 1_554 S
H2215 C2224 0.930 . S
H2216 C2226 0.930 . S
H2217 C2229 0.929 . S
H2218 C2232 0.930 . S
H2219 C2234 0.960 . S
H2220 C2234 0.960 . S
H2221 C2234 0.960 . S
C2222 H2214 0.929 1_556 S
C2222 C2223 1.377 . S
C2222 C2224 1.384 . S
C2223 C2222 1.377 . S
C2223 C2229 1.390 . S
C2224 H2215 0.930 . S
C2224 C2222 1.384 . S
C2224 C2225 1.372 . S
C2225 C2224 1.372 . S
C2225 C2226 1.400 . S
C2225 C2230 1.490 . S
C2226 H2216 0.930 . S
C2226 C2225 1.400 . S
C2226 C2229 1.386 . S
H2227 C2243 0.930 . S
H2228 C2244 0.931 . S
C2229 H2217 0.929 . S
C2229 C2223 1.390 . S
C2229 C2226 1.386 . S
C2230 C2225 1.490 . S
C2230 C2232 1.395 . S
C2230 C2233 1.403 . S
H2231 C2237 0.930 . S
C2232 H2218 0.930 . S
C2232 C2230 1.395 . S
C2232 C2235 1.403 . S
C2233 C2230 1.403 . S
C2233 C2234 1.524 . S
C2233 C2237 1.400 . S
C2234 H2219 0.960 . S
C2234 H2220 0.960 . S
C2234 H2221 0.960 . S
C2234 C2233 1.524 . S
C2235 C2232 1.403 . S
C2235 C2236 1.392 . S
C2235 C2239 1.495 . S
C2236 C2235 1.392 . S
C2236 C2237 1.385 . S
C2236 C2238 1.478 . S
C2237 H2231 0.930 . S
C2237 C2233 1.400 . S
C2237 C2236 1.385 . S
C2238 C2236 1.478 . S
C2238 C2240 1.381 . S
C2238 C2244 1.383 . S
C2239 C2235 1.495 . S
C2239 H2245 0.959 . S
C2239 H2246 0.961 . S
C2239 H2247 0.960 . S
C2240 C2238 1.381 . S
C2240 C2241 1.394 . S
C2240 H2248 0.930 . S
C2241 C2240 1.394 . S
C2241 C2242 1.383 . S
C2241 H2249 0.929 . S
C2242 C2241 1.383 . S
C2242 C2243 1.377 . S
C2243 H2227 0.930 . S
C2243 C2242 1.377 . S
C2243 C2244 1.379 . S
C2244 H2228 0.931 . S
C2244 C2238 1.383 . S
C2244 C2243 1.379 . S
H2245 C2239 0.959 . S
H2246 C2239 0.961 . S
H2247 C2239 0.960 . S
H2248 C2240 0.930 . S
H2249 C2241 0.929 . S
H2250 C2258 0.929 . S
H2251 C2260 0.930 . S
H2252 C2262 0.930 . S
H2253 C2265 0.929 . S
H2254 C2268 0.930 . S
H2255 C2270 0.960 . S
H2256 C2270 0.960 . S
H2257 C2270 0.960 . S
C2258 H2250 0.929 . S
C2258 C2259 1.377 . S
C2258 C2260 1.384 . S
C2259 C2258 1.377 . S
C2259 C2265 1.390 . S
C2260 H2251 0.930 . S
C2260 C2258 1.384 . S
C2260 C2261 1.372 . S
C2261 C2260 1.372 . S
C2261 C2262 1.400 . S
C2261 C2266 1.490 . S
C2262 H2252 0.930 . S
C2262 C2261 1.400 . S
C2262 C2265 1.386 . S
H2263 C2279 0.930 . S
H2264 C2280 0.931 . S
C2265 H2253 0.929 . S
C2265 C2259 1.390 . S
C2265 C2262 1.386 . S
C2266 C2261 1.490 . S
C2266 C2268 1.395 . S
C2266 C2269 1.403 . S
H2267 C2273 0.930 . S
C2268 H2254 0.930 . S
C2268 C2266 1.395 . S
C2268 C2271 1.403 . S
C2269 C2266 1.403 . S
C2269 C2270 1.524 . S
C2269 C2273 1.400 . S
C2270 H2255 0.960 . S
C2270 H2256 0.960 . S
C2270 H2257 0.960 . S
C2270 C2269 1.524 . S
C2271 C2268 1.403 . S
C2271 C2272 1.392 . S
C2271 C2275 1.495 . S
C2272 C2271 1.392 . S
C2272 C2273 1.385 . S
C2272 C2274 1.478 . S
C2273 H2267 0.930 . S
C2273 C2269 1.400 . S
C2273 C2272 1.385 . S
C2274 C2272 1.478 . S
C2274 C2276 1.381 . S
C2274 C2280 1.383 . S
C2275 C2271 1.495 . S
C2275 H2281 0.959 . S
C2275 H2282 0.961 . S
C2275 H2283 0.960 . S
C2276 C2274 1.381 . S
C2276 C2277 1.394 . S
C2276 H2284 0.930 . S
C2277 C2276 1.394 . S
C2277 C2278 1.383 . S
C2277 H2285 0.929 . S
C2278 C2277 1.383 . S
C2278 C2279 1.377 . S
C2279 H2263 0.930 . S
C2279 C2278 1.377 . S
C2279 C2280 1.379 . S
C2280 H2264 0.931 . S
C2280 C2274 1.383 . S
C2280 C2279 1.379 . S
H2281 C2275 0.959 . S
H2282 C2275 0.961 . S
H2283 C2275 0.960 . S
H2284 C2276 0.930 . S
H2285 C2277 0.929 . S
H2286 C2294 0.929 . S
H2287 C2296 0.930 . S
H2288 C2298 0.930 . S
H2289 C2301 0.929 . S
H2290 C2304 0.930 . S
H2291 C2306 0.960 . S
H2292 C2306 0.960 . S
H2293 C2306 0.960 . S
C2294 H2286 0.929 . S
C2294 C2295 1.377 . S
C2294 C2296 1.384 . S
C2295 C2294 1.377 . S
C2295 C2301 1.390 . S
C2296 H2287 0.930 . S
C2296 C2294 1.384 . S
C2296 C2297 1.372 . S
C2297 C2296 1.372 . S
C2297 C2298 1.400 . S
C2297 C2302 1.490 . S
C2298 H2288 0.930 . S
C2298 C2297 1.400 . S
C2298 C2301 1.386 . S
H2299 C2315 0.930 . S
H2300 C2316 0.931 . S
C2301 H2289 0.929 . S
C2301 C2295 1.390 . S
C2301 C2298 1.386 . S
C2302 C2297 1.490 . S
C2302 C2304 1.395 . S
C2302 C2305 1.403 . S
H2303 C2309 0.930 . S
C2304 H2290 0.930 . S
C2304 C2302 1.395 . S
C2304 C2307 1.403 . S
C2305 C2302 1.403 . S
C2305 C2306 1.524 . S
C2305 C2309 1.400 . S
C2306 H2291 0.960 . S
C2306 H2292 0.960 . S
C2306 H2293 0.960 . S
C2306 C2305 1.524 . S
C2307 C2304 1.403 . S
C2307 C2308 1.392 . S
C2307 C2311 1.495 . S
C2308 C2307 1.392 . S
C2308 C2309 1.385 . S
C2308 C2310 1.478 . S
C2309 H2303 0.930 . S
C2309 C2305 1.400 . S
C2309 C2308 1.385 . S
C2310 C2308 1.478 . S
C2310 C2312 1.381 . S
C2310 C2316 1.383 . S
C2311 C2307 1.495 . S
C2311 H2317 0.959 . S
C2311 H2318 0.961 . S
C2311 H2319 0.960 . S
C2312 C2310 1.381 . S
C2312 C2313 1.394 . S
C2312 H2320 0.930 . S
C2313 C2312 1.394 . S
C2313 C2314 1.383 . S
C2313 H2321 0.929 . S
C2314 C2313 1.383 . S
C2314 C2315 1.377 . S
C2315 H2299 0.930 . S
C2315 C2314 1.377 . S
C2315 C2316 1.379 . S
C2316 H2300 0.931 . S
C2316 C2310 1.383 . S
C2316 C2315 1.379 . S
H2317 C2311 0.959 . S
H2318 C2311 0.961 . S
H2319 C2311 0.960 . S
H2320 C2312 0.930 . S
H2321 C2313 0.929 . S
H2322 C2330 0.929 . S
H2323 C2332 0.930 . S
H2324 C2334 0.930 . S
H2325 C2337 0.929 . S
H2326 C2340 0.930 . S
H2327 C2342 0.960 . S
H2328 C2342 0.960 . S
H2329 C2342 0.960 . S
C2330 H2322 0.929 . S
C2330 C2331 1.377 . S
C2330 C2332 1.384 . S
C2331 C2330 1.377 . S
C2331 C2337 1.390 . S
C2332 H2323 0.930 . S
C2332 C2330 1.384 . S
C2332 C2333 1.372 . S
C2333 C2332 1.372 . S
C2333 C2334 1.400 . S
C2333 C2338 1.490 . S
C2334 H2324 0.930 . S
C2334 C2333 1.400 . S
C2334 C2337 1.386 . S
H2335 C2351 0.930 . S
H2336 C2352 0.931 . S
C2337 H2325 0.929 . S
C2337 C2331 1.390 . S
C2337 C2334 1.386 . S
C2338 C2333 1.490 . S
C2338 C2340 1.395 . S
C2338 C2341 1.403 . S
H2339 C2345 0.930 . S
C2340 H2326 0.930 . S
C2340 C2338 1.395 . S
C2340 C2343 1.403 . S
C2341 C2338 1.403 . S
C2341 C2342 1.524 . S
C2341 C2345 1.400 . S
C2342 H2327 0.960 . S
C2342 H2328 0.960 . S
C2342 H2329 0.960 . S
C2342 C2341 1.524 . S
C2343 C2340 1.403 . S
C2343 C2344 1.392 . S
C2343 C2347 1.495 . S
C2344 C2343 1.392 . S
C2344 C2345 1.385 . S
C2344 C2346 1.478 . S
C2345 H2339 0.930 . S
C2345 C2341 1.400 . S
C2345 C2344 1.385 . S
C2346 C2344 1.478 . S
C2346 C2348 1.381 . S
C2346 C2352 1.383 . S
C2347 C2343 1.495 . S
C2347 H2353 0.959 . S
C2347 H2354 0.961 . S
C2347 H2355 0.960 . S
C2348 C2346 1.381 . S
C2348 C2349 1.394 . S
C2348 H2356 0.930 . S
C2349 C2348 1.394 . S
C2349 C2350 1.383 . S
C2349 H2357 0.929 . S
C2350 C2349 1.383 . S
C2350 C2351 1.377 . S
C2351 H2335 0.930 . S
C2351 C2350 1.377 . S
C2351 C2352 1.379 . S
C2352 H2336 0.931 . S
C2352 C2346 1.383 . S
C2352 C2351 1.379 . S
H2353 C2347 0.959 . S
H2354 C2347 0.961 . S
H2355 C2347 0.960 . S
H2356 C2348 0.930 . S
H2357 C2349 0.929 . S
H2358 C2366 0.929 . S
H2359 C2368 0.930 . S
H2360 C2370 0.930 . S
H2361 C2373 0.929 . S
H2362 C2376 0.930 . S
H2363 C2378 0.960 . S
H2364 C2378 0.960 . S
H2365 C2378 0.960 . S
C2366 H2358 0.929 . S
C2366 C2367 1.377 . S
C2366 C2368 1.384 . S
C2367 C2366 1.377 . S
C2367 C2373 1.390 . S
C2368 H2359 0.930 . S
C2368 C2366 1.384 . S
C2368 C2369 1.372 . S
C2369 C2368 1.372 . S
C2369 C2370 1.400 . S
C2369 C2374 1.490 . S
C2370 H2360 0.930 . S
C2370 C2369 1.400 . S
C2370 C2373 1.386 . S
H2371 C2387 0.930 . S
H2372 C2388 0.931 . S
C2373 H2361 0.929 . S
C2373 C2367 1.390 . S
C2373 C2370 1.386 . S
C2374 C2369 1.490 . S
C2374 C2376 1.395 . S
C2374 C2377 1.403 . S
H2375 C2381 0.930 . S
C2376 H2362 0.930 . S
C2376 C2374 1.395 . S
C2376 C2379 1.403 . S
C2377 C2374 1.403 . S
C2377 C2378 1.524 . S
C2377 C2381 1.400 . S
C2378 H2363 0.960 . S
C2378 H2364 0.960 . S
C2378 H2365 0.960 . S
C2378 C2377 1.524 . S
C2379 C2376 1.403 . S
C2379 C2380 1.392 . S
C2379 C2383 1.495 . S
C2380 C2379 1.392 . S
C2380 C2381 1.385 . S
C2380 C2382 1.478 . S
C2381 H2375 0.930 . S
C2381 C2377 1.400 . S
C2381 C2380 1.385 . S
C2382 C2380 1.478 . S
C2382 C2384 1.381 . S
C2382 C2388 1.383 . S
C2383 C2379 1.495 . S
C2383 H2389 0.959 . S
C2383 H2390 0.961 . S
C2383 H2391 0.960 . S
C2384 C2382 1.381 . S
C2384 C2385 1.394 . S
C2384 H2392 0.930 . S
C2385 C2384 1.394 . S
C2385 C2386 1.383 . S
C2385 H2393 0.929 . S
C2386 C2385 1.383 . S
C2386 C2387 1.377 . S
C2387 H2371 0.930 . S
C2387 C2386 1.377 . S
C2387 C2388 1.379 . S
C2388 H2372 0.931 . S
C2388 C2382 1.383 . S
C2388 C2387 1.379 . S
H2389 C2383 0.959 . S
H2390 C2383 0.961 . S
H2391 C2383 0.960 . S
H2392 C2384 0.930 . S
H2393 C2385 0.929 . S
H2394 C2402 0.929 . S
H2395 C2404 0.930 . S
H2396 C2406 0.930 . S
H2397 C2409 0.929 . S
H2398 C2412 0.930 . S
H2399 C2414 0.960 . S
H2400 C2414 0.960 . S
H2401 C2414 0.960 . S
C2402 H2394 0.929 . S
C2402 C2403 1.377 . S
C2402 C2404 1.384 . S
C2403 C2402 1.377 . S
C2403 C2409 1.390 . S
C2404 H2395 0.930 . S
C2404 C2402 1.384 . S
C2404 C2405 1.372 . S
C2405 C2404 1.372 . S
C2405 C2406 1.400 . S
C2405 C2410 1.490 . S
C2406 H2396 0.930 . S
C2406 C2405 1.400 . S
C2406 C2409 1.386 . S
H2407 C2423 0.930 . S
H2408 C2424 0.931 . S
C2409 H2397 0.929 . S
C2409 C2403 1.390 . S
C2409 C2406 1.386 . S
C2410 C2405 1.490 . S
C2410 C2412 1.395 . S
C2410 C2413 1.403 . S
H2411 C2417 0.930 . S
C2412 H2398 0.930 . S
C2412 C2410 1.395 . S
C2412 C2415 1.403 . S
C2413 C2410 1.403 . S
C2413 C2414 1.524 . S
C2413 C2417 1.400 . S
C2414 H2399 0.960 . S
C2414 H2400 0.960 . S
C2414 H2401 0.960 . S
C2414 C2413 1.524 . S
C2415 C2412 1.403 . S
C2415 C2416 1.392 . S
C2415 C2419 1.495 . S
C2416 C2415 1.392 . S
C2416 C2417 1.385 . S
C2416 C2418 1.478 . S
C2417 H2411 0.930 . S
C2417 C2413 1.400 . S
C2417 C2416 1.385 . S
C2418 C2416 1.478 . S
C2418 C2420 1.381 . S
C2418 C2424 1.383 . S
C2419 C2415 1.495 . S
C2419 H2425 0.959 . S
C2419 H2426 0.961 . S
C2419 H2427 0.960 . S
C2420 C2418 1.381 . S
C2420 C2421 1.394 . S
C2420 H2428 0.930 . S
C2421 C2420 1.394 . S
C2421 C2422 1.383 . S
C2421 H2429 0.929 . S
C2422 C2421 1.383 . S
C2422 C2423 1.377 . S
C2423 H2407 0.930 . S
C2423 C2422 1.377 . S
C2423 C2424 1.379 . S
C2424 H2408 0.931 . S
C2424 C2418 1.383 . S
C2424 C2423 1.379 . S
H2425 C2419 0.959 . S
H2426 C2419 0.961 . S
H2427 C2419 0.960 . S
H2428 C2420 0.930 . S
H2429 C2421 0.929 . S
H2430 C2438 0.929 . S
H2431 C2440 0.930 . S
H2432 C2442 0.930 . S
H2433 C2445 0.929 . S
H2434 C2448 0.930 . S
H2435 C2450 0.960 . S
H2436 C2450 0.960 . S
H2437 C2450 0.960 . S
C2438 H2430 0.929 . S
C2438 C2439 1.377 . S
C2438 C2440 1.384 . S
C2439 C2438 1.377 . S
C2439 C2445 1.390 . S
C2440 H2431 0.930 . S
C2440 C2438 1.384 . S
C2440 C2441 1.372 . S
C2441 C2440 1.372 . S
C2441 C2442 1.400 . S
C2441 C2446 1.490 . S
C2442 H2432 0.930 . S
C2442 C2441 1.400 . S
C2442 C2445 1.386 . S
H2443 C2459 0.930 . S
H2444 C2460 0.931 . S
C2445 H2433 0.929 . S
C2445 C2439 1.390 . S
C2445 C2442 1.386 . S
C2446 C2441 1.490 . S
C2446 C2448 1.395 . S
C2446 C2449 1.403 . S
H2447 C2453 0.930 . S
C2448 H2434 0.930 . S
C2448 C2446 1.395 . S
C2448 C2451 1.403 . S
C2449 C2446 1.403 . S
C2449 C2450 1.524 . S
C2449 C2453 1.400 . S
C2450 H2435 0.960 . S
C2450 H2436 0.960 . S
C2450 H2437 0.960 . S
C2450 C2449 1.524 . S
C2451 C2448 1.403 . S
C2451 C2452 1.392 . S
C2451 C2455 1.495 . S
C2452 C2451 1.392 . S
C2452 C2453 1.385 . S
C2452 C2454 1.478 . S
C2453 H2447 0.930 . S
C2453 C2449 1.400 . S
C2453 C2452 1.385 . S
C2454 C2452 1.478 . S
C2454 C2456 1.381 . S
C2454 C2460 1.383 . S
C2455 C2451 1.495 . S
C2455 H2461 0.959 . S
C2455 H2462 0.961 . S
C2455 H2463 0.960 . S
C2456 C2454 1.381 . S
C2456 C2457 1.394 . S
C2456 H2464 0.930 . S
C2457 C2456 1.394 . S
C2457 C2458 1.383 . S
C2457 H2465 0.929 . S
C2458 C2457 1.383 . S
C2458 C2459 1.377 . S
C2459 H2443 0.930 . S
C2459 C2458 1.377 . S
C2459 C2460 1.379 . S
C2460 H2444 0.931 . S
C2460 C2454 1.383 . S
C2460 C2459 1.379 . S
H2461 C2455 0.959 . S
H2462 C2455 0.961 . S
H2463 C2455 0.960 . S
H2464 C2456 0.930 . S
H2465 C2457 0.929 . S
H2466 C2474 0.929 . S
H2467 C2476 0.930 . S
H2468 C2478 0.930 . S
H2469 C2481 0.929 . S
H2470 C2484 0.930 . S
H2471 C2486 0.960 . S
H2472 C2486 0.960 . S
H2473 C2486 0.960 . S
C2474 H2466 0.929 . S
C2474 C2475 1.377 . S
C2474 C2476 1.384 . S
C2475 C2474 1.377 . S
C2475 C2481 1.390 . S
C2476 H2467 0.930 . S
C2476 C2474 1.384 . S
C2476 C2477 1.372 . S
C2477 C2476 1.372 . S
C2477 C2478 1.400 . S
C2477 C2482 1.490 . S
C2478 H2468 0.930 . S
C2478 C2477 1.400 . S
C2478 C2481 1.386 . S
H2479 C2495 0.930 . S
H2480 C2496 0.931 . S
C2481 H2469 0.929 . S
C2481 C2475 1.390 . S
C2481 C2478 1.386 . S
C2482 C2477 1.490 . S
C2482 C2484 1.395 1_455 S
C2482 C2485 1.403 . S
H2483 C2489 0.930 . S
C2484 H2470 0.930 . S
C2484 C2482 1.395 1_655 S
C2484 C2487 1.403 . S
C2485 C2482 1.403 . S
C2485 C2486 1.524 . S
C2485 C2489 1.400 . S
C2486 H2471 0.960 . S
C2486 H2472 0.960 . S
C2486 H2473 0.960 . S
C2486 C2485 1.524 . S
C2487 C2484 1.403 . S
C2487 C2488 1.392 1_655 S
C2487 C2491 1.495 . S
C2488 C2487 1.392 1_455 S
C2488 C2489 1.385 . S
C2488 C2490 1.478 . S
C2489 H2483 0.930 . S
C2489 C2485 1.400 . S
C2489 C2488 1.385 . S
C2490 C2488 1.478 . S
C2490 C2492 1.381 . S
C2490 C2496 1.383 . S
C2491 C2487 1.495 . S
C2491 H2497 0.959 . S
C2491 H2498 0.961 . S
C2491 H2499 0.960 . S
C2492 C2490 1.381 . S
C2492 C2493 1.394 . S
C2492 H2500 0.930 . S
C2493 C2492 1.394 . S
C2493 C2494 1.383 . S
C2493 H2501 0.929 . S
C2494 C2493 1.383 . S
C2494 C2495 1.377 . S
C2495 H2479 0.930 . S
C2495 C2494 1.377 . S
C2495 C2496 1.379 . S
C2496 H2480 0.931 . S
C2496 C2490 1.383 . S
C2496 C2495 1.379 . S
H2497 C2491 0.959 . S
H2498 C2491 0.961 . S
H2499 C2491 0.960 . S
H2500 C2492 0.930 . S
H2501 C2493 0.929 . S
H2502 C2510 0.929 . S
H2503 C2512 0.930 . S
H2504 C2514 0.930 . S
H2505 C2517 0.929 . S
H2506 C2520 0.930 . S
H2507 C2522 0.960 . S
H2508 C2522 0.960 . S
H2509 C2522 0.960 . S
C2510 H2502 0.929 . S
C2510 C2511 1.377 . S
C2510 C2512 1.384 . S
C2511 C2510 1.377 . S
C2511 C2517 1.390 . S
C2512 H2503 0.930 . S
C2512 C2510 1.384 . S
C2512 C2513 1.372 . S
C2513 C2512 1.372 . S
C2513 C2514 1.400 . S
C2513 C2518 1.490 . S
C2514 H2504 0.930 . S
C2514 C2513 1.400 . S
C2514 C2517 1.386 . S
H2515 C2531 0.930 . S
H2516 C2532 0.931 . S
C2517 H2505 0.929 . S
C2517 C2511 1.390 . S
C2517 C2514 1.386 . S
C2518 C2513 1.490 . S
C2518 C2520 1.395 . S
C2518 C2521 1.403 . S
H2519 C2525 0.930 . S
C2520 H2506 0.930 . S
C2520 C2518 1.395 . S
C2520 C2523 1.403 . S
C2521 C2518 1.403 . S
C2521 C2522 1.524 . S
C2521 C2525 1.400 . S
C2522 H2507 0.960 . S
C2522 H2508 0.960 . S
C2522 H2509 0.960 . S
C2522 C2521 1.524 . S
C2523 C2520 1.403 . S
C2523 C2524 1.392 . S
C2523 C2527 1.495 . S
C2524 C2523 1.392 . S
C2524 C2525 1.385 . S
C2524 C2526 1.478 . S
C2525 H2519 0.930 . S
C2525 C2521 1.400 . S
C2525 C2524 1.385 . S
C2526 C2524 1.478 . S
C2526 C2528 1.381 . S
C2526 C2532 1.383 . S
C2527 C2523 1.495 . S
C2527 H2533 0.959 . S
C2527 H2534 0.961 . S
C2527 H2535 0.960 . S
C2528 C2526 1.381 . S
C2528 C2529 1.394 . S
C2528 H2536 0.930 . S
C2529 C2528 1.394 . S
C2529 C2530 1.383 . S
C2529 H2537 0.929 . S
C2530 C2529 1.383 . S
C2530 C2531 1.377 . S
C2531 H2515 0.930 . S
C2531 C2530 1.377 . S
C2531 C2532 1.379 . S
C2532 H2516 0.931 . S
C2532 C2526 1.383 . S
C2532 C2531 1.379 . S
H2533 C2527 0.959 . S
H2534 C2527 0.961 . S
H2535 C2527 0.960 . S
H2536 C2528 0.930 . S
H2537 C2529 0.929 . S
H2538 C2546 0.929 . S
H2539 C2548 0.930 . S
H2540 C2550 0.930 . S
H2541 C2553 0.929 . S
H2542 C2556 0.930 . S
H2543 C2558 0.960 . S
H2544 C2558 0.960 . S
H2545 C2558 0.960 1_565 S
C2546 H2538 0.929 . S
C2546 C2547 1.377 1_545 S
C2546 C2548 1.384 . S
C2547 C2546 1.377 1_565 S
C2547 C2553 1.390 . S
C2548 H2539 0.930 . S
C2548 C2546 1.384 . S
C2548 C2549 1.372 1_545 S
C2549 C2548 1.372 1_565 S
C2549 C2550 1.400 . S
C2549 C2554 1.490 . S
C2550 H2540 0.930 . S
C2550 C2549 1.400 . S
C2550 C2553 1.386 . S
H2551 C2567 0.930 . S
H2552 C2568 0.931 . S
C2553 H2541 0.929 . S
C2553 C2547 1.390 . S
C2553 C2550 1.386 . S
C2554 C2549 1.490 . S
C2554 C2556 1.395 . S
C2554 C2557 1.403 . S
H2555 C2561 0.926 1_545 S
C2556 H2542 0.930 . S
C2556 C2554 1.395 . S
C2556 C2559 1.403 . S
C2557 C2554 1.403 . S
C2557 C2558 1.524 1_565 S
C2557 C2561 1.400 . S
C2558 H2543 0.960 . S
C2558 H2544 0.960 . S
C2558 H2545 0.960 1_545 S
C2558 C2557 1.524 1_545 S
C2559 C2556 1.403 . S
C2559 C2560 1.392 . S
C2559 C2563 1.495 . S
C2560 C2559 1.392 . S
C2560 C2561 1.385 . S
C2560 C2562 1.478 . S
C2561 H2555 0.926 1_565 S
C2561 C2557 1.400 . S
C2561 C2560 1.385 . S
C2562 C2560 1.478 . S
C2562 C2564 1.381 1_565 S
C2562 C2568 1.383 . S
C2563 C2559 1.495 . S
C2563 H2569 0.959 . S
C2563 H2570 0.961 . S
C2563 H2571 0.960 . S
C2564 C2562 1.381 1_545 S
C2564 C2565 1.394 . S
C2564 H2572 0.930 . S
C2565 C2564 1.394 . S
C2565 C2566 1.383 1_545 S
C2565 H2573 0.929 . S
C2566 C2565 1.383 1_565 S
C2566 C2567 1.377 . S
C2567 H2551 0.930 . S
C2567 C2566 1.377 . S
C2567 C2568 1.379 . S
C2568 H2552 0.931 . S
C2568 C2562 1.383 . S
C2568 C2567 1.379 . S
H2569 C2563 0.959 . S
H2570 C2563 0.961 . S
H2571 C2563 0.960 . S
H2572 C2564 0.930 . S
H2573 C2565 0.929 . S
H2574 C2582 0.929 . S
H2575 C2584 0.930 . S
H2576 C2586 0.930 . S
H2577 C2589 0.929 . S
H2578 C2592 0.930 . S
H2579 C2594 0.960 . S
H2580 C2594 0.960 1_565 S
H2581 C2594 0.960 . S
C2582 H2574 0.929 . S
C2582 C2583 1.377 . S
C2582 C2584 1.384 . S
C2583 C2582 1.377 . S
C2583 C2589 1.390 1_565 S
C2584 H2575 0.930 . S
C2584 C2582 1.384 . S
C2584 C2585 1.372 . S
C2585 C2584 1.372 . S
C2585 C2586 1.400 1_565 S
C2585 C2590 1.490 . S
C2586 H2576 0.930 . S
C2586 C2585 1.400 1_545 S
C2586 C2589 1.386 . S
H2587 C2603 0.930 . S
H2588 C2604 0.931 . S
C2589 H2577 0.929 . S
C2589 C2583 1.390 1_545 S
C2589 C2586 1.386 . S
C2590 C2585 1.490 . S
C2590 C2592 1.395 . S
C2590 C2593 1.403 . S
H2591 C2597 0.903 1_545 S
C2592 H2578 0.930 . S
C2592 C2590 1.395 . S
C2592 C2595 1.403 . S
C2593 C2590 1.403 . S
C2593 C2594 1.524 1_565 S
C2593 C2597 1.432 . S
C2594 H2579 0.960 . S
C2594 H2580 0.960 1_545 S
C2594 H2581 0.960 . S
C2594 C2593 1.524 1_545 S
C2595 C2592 1.403 . S
C2595 C2596 1.392 . S
C2595 C2599 1.495 . S
C2596 C2595 1.392 . S
C2596 C2597 1.383 . S
C2596 C2598 1.478 . S
C2597 H2591 0.903 1_565 S
C2597 C2593 1.432 . S
C2597 C2596 1.383 . S
C2598 C2596 1.478 . S
C2598 C2600 1.381 . S
C2598 C2604 1.383 1_565 S
C2599 C2595 1.495 . S
C2599 H2605 0.959 . S
C2599 H2606 0.961 . S
C2599 H2607 0.960 . S
C2600 C2598 1.381 . S
C2600 C2601 1.394 . S
C2600 H2608 0.930 . S
C2601 C2600 1.394 . S
C2601 C2602 1.383 . S
C2601 H2609 0.929 . S
C2602 C2601 1.383 . S
C2602 C2603 1.377 1_565 S
C2603 H2587 0.930 . S
C2603 C2602 1.377 1_545 S
C2603 C2604 1.379 . S
C2604 H2588 0.931 . S
C2604 C2598 1.383 1_545 S
C2604 C2603 1.379 . S
H2605 C2599 0.959 . S
H2606 C2599 0.961 . S
H2607 C2599 0.960 . S
H2608 C2600 0.930 . S
H2609 C2601 0.929 . S
H2610 C2618 0.929 . S
H2611 C2620 0.930 . S
H2612 C2622 0.930 . S
H2613 C2625 0.929 . S
H2614 C2628 0.930 . S
H2615 C2630 0.960 . S
H2616 C2630 0.960 . S
H2617 C2630 0.960 . S
C2618 H2610 0.929 . S
C2618 C2619 1.377 . S
C2618 C2620 1.384 . S
C2619 C2618 1.377 . S
C2619 C2625 1.390 . S
C2620 H2611 0.930 . S
C2620 C2618 1.384 . S
C2620 C2621 1.372 . S
C2621 C2620 1.372 . S
C2621 C2622 1.400 . S
C2621 C2626 1.490 . S
C2622 H2612 0.930 . S
C2622 C2621 1.400 . S
C2622 C2625 1.386 . S
H2623 C2639 0.938 1_655 S
H2624 C2640 0.931 . S
C2625 H2613 0.929 . S
C2625 C2619 1.390 . S
C2625 C2622 1.386 . S
C2626 C2621 1.490 . S
C2626 C2628 1.395 . S
C2626 C2629 1.403 1_455 S
H2627 C2633 0.930 . S
C2628 H2614 0.930 . S
C2628 C2626 1.395 . S
C2628 C2631 1.403 . S
C2629 C2626 1.403 1_655 S
C2629 C2630 1.524 . S
C2629 C2633 1.400 . S
C2630 H2615 0.960 . S
C2630 H2616 0.960 . S
C2630 H2617 0.960 . S
C2630 C2629 1.524 . S
C2631 C2628 1.403 . S
C2631 C2632 1.392 . S
C2631 C2635 1.495 . S
C2632 C2631 1.392 . S
C2632 C2633 1.385 1_455 S
C2632 C2634 1.478 . S
C2633 H2627 0.930 . S
C2633 C2629 1.400 . S
C2633 C2632 1.385 1_655 S
C2634 C2632 1.478 . S
C2634 C2636 1.381 . S
C2634 C2640 1.383 . S
C2635 C2631 1.495 . S
C2635 H2641 0.959 . S
C2635 H2642 0.961 . S
C2635 H2643 0.960 . S
C2636 C2634 1.381 . S
C2636 C2637 1.394 . S
C2636 H2644 0.930 . S
C2637 C2636 1.394 . S
C2637 C2638 1.383 . S
C2637 H2645 0.929 . S
C2638 C2637 1.383 . S
C2638 C2639 1.384 . S
C2639 H2623 0.938 1_455 S
C2639 C2638 1.384 . S
C2639 C2640 1.366 . S
C2640 H2624 0.931 . S
C2640 C2634 1.383 . S
C2640 C2639 1.366 . S
H2641 C2635 0.959 . S
H2642 C2635 0.961 . S
H2643 C2635 0.960 . S
H2644 C2636 0.930 . S
H2645 C2637 0.929 . S
H2646 C2654 0.929 . S
H2647 C2656 0.930 . S
H2648 C2658 0.930 . S
H2649 C2661 0.929 . S
H2650 C2664 0.930 . S
H2651 C2666 0.960 . S
H2652 C2666 0.960 . S
H2653 C2666 0.960 . S
C2654 H2646 0.929 . S
C2654 C2655 1.377 . S
C2654 C2656 1.384 . S
C2655 C2654 1.377 . S
C2655 C2661 1.390 . S
C2656 H2647 0.930 . S
C2656 C2654 1.384 . S
C2656 C2657 1.372 . S
C2657 C2656 1.372 . S
C2657 C2658 1.400 . S
C2657 C2662 1.490 . S
C2658 H2648 0.930 . S
C2658 C2657 1.400 . S
C2658 C2661 1.386 . S
H2659 C2675 0.930 . S
H2660 C2676 0.931 . S
C2661 H2649 0.929 . S
C2661 C2655 1.390 . S
C2661 C2658 1.386 . S
C2662 C2657 1.490 . S
C2662 C2664 1.395 . S
C2662 C2665 1.403 . S
H2663 C2669 0.930 . S
C2664 H2650 0.930 . S
C2664 C2662 1.395 . S
C2664 C2667 1.403 . S
C2665 C2662 1.403 . S
C2665 C2666 1.524 . S
C2665 C2669 1.400 . S
C2666 H2651 0.960 . S
C2666 H2652 0.960 . S
C2666 H2653 0.960 . S
C2666 C2665 1.524 . S
C2667 C2664 1.403 . S
C2667 C2668 1.392 . S
C2667 C2671 1.495 . S
C2668 C2667 1.392 . S
C2668 C2669 1.385 . S
C2668 C2670 1.478 . S
C2669 H2663 0.930 . S
C2669 C2665 1.400 . S
C2669 C2668 1.385 . S
C2670 C2668 1.478 . S
C2670 C2672 1.381 . S
C2670 C2676 1.383 . S
C2671 C2667 1.495 . S
C2671 H2677 0.959 . S
C2671 H2678 0.961 . S
C2671 H2679 0.960 . S
C2672 C2670 1.381 . S
C2672 C2673 1.394 . S
C2672 H2680 0.930 . S
C2673 C2672 1.394 . S
C2673 C2674 1.383 . S
C2673 H2681 0.929 . S
C2674 C2673 1.383 . S
C2674 C2675 1.377 . S
C2675 H2659 0.930 . S
C2675 C2674 1.377 . S
C2675 C2676 1.379 . S
C2676 H2660 0.931 . S
C2676 C2670 1.383 . S
C2676 C2675 1.379 . S
H2677 C2671 0.959 . S
H2678 C2671 0.961 . S
H2679 C2671 0.960 . S
H2680 C2672 0.930 . S
H2681 C2673 0.929 . S
H2682 C2690 0.929 . S
H2683 C2692 0.930 . S
H2684 C2694 0.930 . S
H2685 C2697 0.929 . S
H2686 C2700 0.930 . S
H2687 C2702 0.960 . S
H2688 C2702 0.960 . S
H2689 C2702 0.960 . S
C2690 H2682 0.929 . S
C2690 C2691 1.377 . S
C2690 C2692 1.384 . S
C2691 C2690 1.377 . S
C2691 C2697 1.390 . S
C2692 H2683 0.930 . S
C2692 C2690 1.384 . S
C2692 C2693 1.372 . S
C2693 C2692 1.372 . S
C2693 C2694 1.400 . S
C2693 C2698 1.490 . S
C2694 H2684 0.930 . S
C2694 C2693 1.400 . S
C2694 C2697 1.386 . S
H2695 C2711 0.930 . S
H2696 C2712 0.931 . S
C2697 H2685 0.929 . S
C2697 C2691 1.390 . S
C2697 C2694 1.386 . S
C2698 C2693 1.490 . S
C2698 C2700 1.395 . S
C2698 C2701 1.403 . S
H2699 C2705 0.930 . S
C2700 H2686 0.930 . S
C2700 C2698 1.395 . S
C2700 C2703 1.403 . S
C2701 C2698 1.403 . S
C2701 C2702 1.524 . S
C2701 C2705 1.400 . S
C2702 H2687 0.960 . S
C2702 H2688 0.960 . S
C2702 H2689 0.960 . S
C2702 C2701 1.524 . S
C2703 C2700 1.403 . S
C2703 C2704 1.392 . S
C2703 C2707 1.495 . S
C2704 C2703 1.392 . S
C2704 C2705 1.385 . S
C2704 C2706 1.478 . S
C2705 H2699 0.930 . S
C2705 C2701 1.400 . S
C2705 C2704 1.385 . S
C2706 C2704 1.478 . S
C2706 C2708 1.381 . S
C2706 C2712 1.383 . S
C2707 C2703 1.495 . S
C2707 H2713 0.959 . S
C2707 H2714 0.961 . S
C2707 H2715 0.960 . S
C2708 C2706 1.381 . S
C2708 C2709 1.394 . S
C2708 H2716 0.930 . S
C2709 C2708 1.394 . S
C2709 C2710 1.383 . S
C2709 H2717 0.929 . S
C2710 C2709 1.383 . S
C2710 C2711 1.377 . S
C2711 H2695 0.930 . S
C2711 C2710 1.377 . S
C2711 C2712 1.379 . S
C2712 H2696 0.931 . S
C2712 C2706 1.383 . S
C2712 C2711 1.379 . S
H2713 C2707 0.959 . S
H2714 C2707 0.961 . S
H2715 C2707 0.960 . S
H2716 C2708 0.930 . S
H2717 C2709 0.929 . S
H2718 C2726 0.929 . S
H2719 C2728 0.930 . S
H2720 C2730 0.930 . S
H2721 C2733 0.929 . S
H2722 C2736 0.930 . S
H2723 C2738 0.960 . S
H2724 C2738 0.960 . S
H2725 C2738 0.960 . S
C2726 H2718 0.929 . S
C2726 C2727 1.377 . S
C2726 C2728 1.384 . S
C2727 C2726 1.377 . S
C2727 C2733 1.390 . S
C2728 H2719 0.930 . S
C2728 C2726 1.384 . S
C2728 C2729 1.372 . S
C2729 C2728 1.372 . S
C2729 C2730 1.400 . S
C2729 C2734 1.490 . S
C2730 H2720 0.930 . S
C2730 C2729 1.400 . S
C2730 C2733 1.386 . S
H2731 C2747 0.930 . S
H2732 C2748 0.931 . S
C2733 H2721 0.929 . S
C2733 C2727 1.390 . S
C2733 C2730 1.386 . S
C2734 C2729 1.490 . S
C2734 C2736 1.395 . S
C2734 C2737 1.403 . S
H2735 C2741 0.930 . S
C2736 H2722 0.930 . S
C2736 C2734 1.395 . S
C2736 C2739 1.403 . S
C2737 C2734 1.403 . S
C2737 C2738 1.524 . S
C2737 C2741 1.400 . S
C2738 H2723 0.960 . S
C2738 H2724 0.960 . S
C2738 H2725 0.960 . S
C2738 C2737 1.524 . S
C2739 C2736 1.403 . S
C2739 C2740 1.392 . S
C2739 C2743 1.495 . S
C2740 C2739 1.392 . S
C2740 C2741 1.385 . S
C2740 C2742 1.478 . S
C2741 H2735 0.930 . S
C2741 C2737 1.400 . S
C2741 C2740 1.385 . S
C2742 C2740 1.478 . S
C2742 C2744 1.381 . S
C2742 C2748 1.383 . S
C2743 C2739 1.495 . S
C2743 H2749 0.959 . S
C2743 H2750 0.961 . S
C2743 H2751 0.960 . S
C2744 C2742 1.381 . S
C2744 C2745 1.394 . S
C2744 H2752 0.930 . S
C2745 C2744 1.394 . S
C2745 C2746 1.383 . S
C2745 H2753 0.929 . S
C2746 C2745 1.383 . S
C2746 C2747 1.377 . S
C2747 H2731 0.930 . S
C2747 C2746 1.377 . S
C2747 C2748 1.379 . S
C2748 H2732 0.931 . S
C2748 C2742 1.383 . S
C2748 C2747 1.379 . S
H2749 C2743 0.959 . S
H2750 C2743 0.961 . S
H2751 C2743 0.960 . S
H2752 C2744 0.930 . S
H2753 C2745 0.929 . S
H2754 C2762 0.929 . S
H2755 C2764 0.930 . S
H2756 C2766 0.930 . S
H2757 C2769 0.929 . S
H2758 C2772 0.930 . S
H2759 C2774 0.960 . S
H2760 C2774 0.960 . S
H2761 C2774 0.960 . S
C2762 H2754 0.929 . S
C2762 C2763 1.377 . S
C2762 C2764 1.384 . S
C2763 C2762 1.377 . S
C2763 C2769 1.390 . S
C2764 H2755 0.930 . S
C2764 C2762 1.384 . S
C2764 C2765 1.372 . S
C2765 C2764 1.372 . S
C2765 C2766 1.400 . S
C2765 C2770 1.490 . S
C2766 H2756 0.930 . S
C2766 C2765 1.400 . S
C2766 C2769 1.386 . S
H2767 C2783 0.930 . S
H2768 C2784 0.931 . S
C2769 H2757 0.929 . S
C2769 C2763 1.390 . S
C2769 C2766 1.386 . S
C2770 C2765 1.490 . S
C2770 C2772 1.395 . S
C2770 C2773 1.403 . S
H2771 C2777 0.930 . S
C2772 H2758 0.930 . S
C2772 C2770 1.395 . S
C2772 C2775 1.403 . S
C2773 C2770 1.403 . S
C2773 C2774 1.524 . S
C2773 C2777 1.400 . S
C2774 H2759 0.960 . S
C2774 H2760 0.960 . S
C2774 H2761 0.960 . S
C2774 C2773 1.524 . S
C2775 C2772 1.403 . S
C2775 C2776 1.392 . S
C2775 C2779 1.495 . S
C2776 C2775 1.392 . S
C2776 C2777 1.385 . S
C2776 C2778 1.478 . S
C2777 H2771 0.930 . S
C2777 C2773 1.400 . S
C2777 C2776 1.385 . S
C2778 C2776 1.478 . S
C2778 C2780 1.381 . S
C2778 C2784 1.383 . S
C2779 C2775 1.495 . S
C2779 H2785 0.959 . S
C2779 H2786 0.961 . S
C2779 H2787 0.960 . S
C2780 C2778 1.381 . S
C2780 C2781 1.394 . S
C2780 H2788 0.930 . S
C2781 C2780 1.394 . S
C2781 C2782 1.383 . S
C2781 H2789 0.929 . S
C2782 C2781 1.383 . S
C2782 C2783 1.377 . S
C2783 H2767 0.930 . S
C2783 C2782 1.377 . S
C2783 C2784 1.379 . S
C2784 H2768 0.931 . S
C2784 C2778 1.383 . S
C2784 C2783 1.379 . S
H2785 C2779 0.959 . S
H2786 C2779 0.961 . S
H2787 C2779 0.960 . S
H2788 C2780 0.930 . S
H2789 C2781 0.929 . S
H2790 C2798 0.929 1_565 S
H2791 C2800 0.930 1_565 S
H2792 C2802 0.930 . S
H2793 C2805 0.929 . S
H2794 C2808 0.930 . S
H2795 C2810 0.960 . S
H2796 C2810 0.960 . S
H2797 C2810 0.960 . S
C2798 H2790 0.929 1_545 S
C2798 C2799 1.377 . S
C2798 C2800 1.384 . S
C2799 C2798 1.377 . S
C2799 C2805 1.390 . S
C2800 H2791 0.930 1_545 S
C2800 C2798 1.384 . S
C2800 C2801 1.372 . S
C2801 C2800 1.372 . S
C2801 C2802 1.400 . S
C2801 C2806 1.490 . S
C2802 H2792 0.930 . S
C2802 C2801 1.400 . S
C2802 C2805 1.386 . S
H2803 C2819 0.930 . S
H2804 C2820 0.931 . S
C2805 H2793 0.929 . S
C2805 C2799 1.390 . S
C2805 C2802 1.386 . S
C2806 C2801 1.490 . S
C2806 C2808 1.395 1_545 S
C2806 C2809 1.403 . S
H2807 C2813 0.930 . S
C2808 H2794 0.930 . S
C2808 C2806 1.395 1_565 S
C2808 C2811 1.403 . S
C2809 C2806 1.403 . S
C2809 C2810 1.524 . S
C2809 C2813 1.400 . S
C2810 H2795 0.960 . S
C2810 H2796 0.960 . S
C2810 H2797 0.960 . S
C2810 C2809 1.524 . S
C2811 C2808 1.403 . S
C2811 C2812 1.392 1_565 S
C2811 C2815 1.495 . S
C2812 C2811 1.392 1_545 S
C2812 C2813 1.385 . S
C2812 C2814 1.478 . S
C2813 H2807 0.930 . S
C2813 C2809 1.400 . S
C2813 C2812 1.385 . S
C2814 C2812 1.478 . S
C2814 C2816 1.381 1_545 S
C2814 C2820 1.383 . S
C2815 C2811 1.495 . S
C2815 H2821 0.959 . S
C2815 H2822 0.961 . S
C2815 H2823 0.960 . S
C2816 C2814 1.381 1_565 S
C2816 C2817 1.394 . S
C2816 H2824 0.930 . S
C2817 C2816 1.394 . S
C2817 C2818 1.383 1_565 S
C2817 H2825 0.929 . S
C2818 C2817 1.383 1_545 S
C2818 C2819 1.377 . S
C2819 H2803 0.930 . S
C2819 C2818 1.377 . S
C2819 C2820 1.379 . S
C2820 H2804 0.931 . S
C2820 C2814 1.383 . S
C2820 C2819 1.379 . S
H2821 C2815 0.959 . S
H2822 C2815 0.961 . S
H2823 C2815 0.960 . S
H2824 C2816 0.930 . S
H2825 C2817 0.929 . S
H2826 C2834 0.929 . S
H2827 C2836 0.930 . S
H2828 C2838 0.930 . S
H2829 C2841 0.929 . S
H2830 C2844 0.930 . S
H2831 C2846 0.960 . S
H2832 C2846 0.960 . S
H2833 C2846 0.960 . S
C2834 H2826 0.929 . S
C2834 C2835 1.377 . S
C2834 C2836 1.384 . S
C2835 C2834 1.377 . S
C2835 C2841 1.390 . S
C2836 H2827 0.930 . S
C2836 C2834 1.384 . S
C2836 C2837 1.372 . S
C2837 C2836 1.372 . S
C2837 C2838 1.400 . S
C2837 C2842 1.490 . S
C2838 H2828 0.930 . S
C2838 C2837 1.400 . S
C2838 C2841 1.386 . S
H2839 C2855 0.930 . S
H2840 C2856 0.931 . S
C2841 H2829 0.929 . S
C2841 C2835 1.390 . S
C2841 C2838 1.386 . S
C2842 C2837 1.490 . S
C2842 C2844 1.395 1_655 S
C2842 C2845 1.403 . S
H2843 C2849 0.930 . S
C2844 H2830 0.930 . S
C2844 C2842 1.395 1_455 S
C2844 C2847 1.403 . S
C2845 C2842 1.403 . S
C2845 C2846 1.524 . S
C2845 C2849 1.400 . S
C2846 H2831 0.960 . S
C2846 H2832 0.960 . S
C2846 H2833 0.960 . S
C2846 C2845 1.524 . S
C2847 C2844 1.403 . S
C2847 C2848 1.392 1_455 S
C2847 C2851 1.495 . S
C2848 C2847 1.392 1_655 S
C2848 C2849 1.385 . S
C2848 C2850 1.478 . S
C2849 H2843 0.930 . S
C2849 C2845 1.400 . S
C2849 C2848 1.385 . S
C2850 C2848 1.478 . S
C2850 C2852 1.381 . S
C2850 C2856 1.383 1_655 S
C2851 C2847 1.495 . S
C2851 H2857 0.959 . S
C2851 H2858 0.961 . S
C2851 H2859 0.960 . S
C2852 C2850 1.381 . S
C2852 C2853 1.394 . S
C2852 H2860 0.930 . S
C2853 C2852 1.394 . S
C2853 C2854 1.383 . S
C2853 H2861 0.929 . S
C2854 C2853 1.383 . S
C2854 C2855 1.377 1_655 S
C2855 H2839 0.930 . S
C2855 C2854 1.377 1_455 S
C2855 C2856 1.379 . S
C2856 H2840 0.931 . S
C2856 C2850 1.383 1_455 S
C2856 C2855 1.379 . S
H2857 C2851 0.959 . S
H2858 C2851 0.961 . S
H2859 C2851 0.960 . S
H2860 C2852 0.930 . S
H2861 C2853 0.929 . S
H2862 C2870 0.929 . S
H2863 C2872 0.930 . S
H2864 C2874 0.930 . S
H2865 C2877 0.929 . S
H2866 C2880 0.930 . S
H2867 C2882 0.960 . S
H2868 C2882 0.960 . S
H2869 C2882 0.960 . S
C2870 H2862 0.929 . S
C2870 C2871 1.377 . S
C2870 C2872 1.384 . S
C2871 C2870 1.377 . S
C2871 C2877 1.390 . S
C2872 H2863 0.930 . S
C2872 C2870 1.384 . S
C2872 C2873 1.372 . S
C2873 C2872 1.372 . S
C2873 C2874 1.400 . S
C2873 C2878 1.490 . S
C2874 H2864 0.930 . S
C2874 C2873 1.400 . S
C2874 C2877 1.386 . S
H2875 C2891 0.930 . S
H2876 C2892 0.931 . S
C2877 H2865 0.929 . S
C2877 C2871 1.390 . S
C2877 C2874 1.386 . S
C2878 C2873 1.490 . S
C2878 C2880 1.395 . S
C2878 C2881 1.403 . S
H2879 C2885 0.930 . S
C2880 H2866 0.930 . S
C2880 C2878 1.395 . S
C2880 C2883 1.403 . S
C2881 C2878 1.403 . S
C2881 C2882 1.524 . S
C2881 C2885 1.400 . S
C2882 H2867 0.960 . S
C2882 H2868 0.960 . S
C2882 H2869 0.960 . S
C2882 C2881 1.524 . S
C2883 C2880 1.403 . S
C2883 C2884 1.392 . S
C2883 C2887 1.495 . S
C2884 C2883 1.392 . S
C2884 C2885 1.385 . S
C2884 C2886 1.478 . S
C2885 H2879 0.930 . S
C2885 C2881 1.400 . S
C2885 C2884 1.385 . S
C2886 C2884 1.478 . S
C2886 C2888 1.381 . S
C2886 C2892 1.383 . S
C2887 C2883 1.495 . S
C2887 H2893 0.959 . S
C2887 H2894 0.961 . S
C2887 H2895 0.960 . S
C2888 C2886 1.381 . S
C2888 C2889 1.394 . S
C2888 H2896 0.930 . S
C2889 C2888 1.394 . S
C2889 C2890 1.383 . S
C2889 H2897 0.929 . S
C2890 C2889 1.383 . S
C2890 C2891 1.377 . S
C2891 H2875 0.930 . S
C2891 C2890 1.377 . S
C2891 C2892 1.379 . S
C2892 H2876 0.931 . S
C2892 C2886 1.383 . S
C2892 C2891 1.379 . S
H2893 C2887 0.959 . S
H2894 C2887 0.961 . S
H2895 C2887 0.960 . S
H2896 C2888 0.930 . S
H2897 C2889 0.929 . S
H2898 C2906 0.929 . S
H2899 C2908 0.930 . S
H2900 C2910 0.930 . S
H2901 C2913 0.929 . S
H2902 C2916 0.930 . S
H2903 C2918 0.960 . S
H2904 C2918 0.960 . S
H2905 C2918 0.960 . S
C2906 H2898 0.929 . S
C2906 C2907 1.377 . S
C2906 C2908 1.384 . S
C2907 C2906 1.377 . S
C2907 C2913 1.390 . S
C2908 H2899 0.930 . S
C2908 C2906 1.384 . S
C2908 C2909 1.372 . S
C2909 C2908 1.372 . S
C2909 C2910 1.400 . S
C2909 C2914 1.490 . S
C2910 H2900 0.930 . S
C2910 C2909 1.400 . S
C2910 C2913 1.386 . S
H2911 C2927 0.930 . S
H2912 C2928 0.931 . S
C2913 H2901 0.929 . S
C2913 C2907 1.390 . S
C2913 C2910 1.386 . S
C2914 C2909 1.490 . S
C2914 C2916 1.395 . S
C2914 C2917 1.403 . S
H2915 C2921 0.930 . S
C2916 H2902 0.930 . S
C2916 C2914 1.395 . S
C2916 C2919 1.403 . S
C2917 C2914 1.403 . S
C2917 C2918 1.524 . S
C2917 C2921 1.400 . S
C2918 H2903 0.960 . S
C2918 H2904 0.960 . S
C2918 H2905 0.960 . S
C2918 C2917 1.524 . S
C2919 C2916 1.403 . S
C2919 C2920 1.392 . S
C2919 C2923 1.495 . S
C2920 C2919 1.392 . S
C2920 C2921 1.385 . S
C2920 C2922 1.478 . S
C2921 H2915 0.930 . S
C2921 C2917 1.400 . S
C2921 C2920 1.385 . S
C2922 C2920 1.478 . S
C2922 C2924 1.381 . S
C2922 C2928 1.383 . S
C2923 C2919 1.495 . S
C2923 H2929 0.959 . S
C2923 H2930 0.961 . S
C2923 H2931 0.960 . S
C2924 C2922 1.381 . S
C2924 C2925 1.394 . S
C2924 H2932 0.930 . S
C2925 C2924 1.394 . S
C2925 C2926 1.383 . S
C2925 H2933 0.929 . S
C2926 C2925 1.383 . S
C2926 C2927 1.377 . S
C2927 H2911 0.930 . S
C2927 C2926 1.377 . S
C2927 C2928 1.379 . S
C2928 H2912 0.931 . S
C2928 C2922 1.383 . S
C2928 C2927 1.379 . S
H2929 C2923 0.959 . S
H2930 C2923 0.961 . S
H2931 C2923 0.960 . S
H2932 C2924 0.930 . S
H2933 C2925 0.929 . S
H2934 C2942 0.929 . S
H2935 C2944 0.930 . S
H2936 C2946 0.930 . S
H2937 C2949 0.929 . S
H2938 C2952 0.930 . S
H2939 C2954 0.960 . S
H2940 C2954 0.960 . S
H2941 C2954 0.960 . S
C2942 H2934 0.929 . S
C2942 C2943 1.377 . S
C2942 C2944 1.384 . S
C2943 C2942 1.377 . S
C2943 C2949 1.390 . S
C2944 H2935 0.930 . S
C2944 C2942 1.384 . S
C2944 C2945 1.372 . S
C2945 C2944 1.372 . S
C2945 C2946 1.400 . S
C2945 C2950 1.490 . S
C2946 H2936 0.930 . S
C2946 C2945 1.400 . S
C2946 C2949 1.386 . S
H2947 C2963 0.930 . S
H2948 C2964 0.931 . S
C2949 H2937 0.929 . S
C2949 C2943 1.390 . S
C2949 C2946 1.386 . S
C2950 C2945 1.490 . S
C2950 C2952 1.395 . S
C2950 C2953 1.403 . S
H2951 C2957 0.930 . S
C2952 H2938 0.930 . S
C2952 C2950 1.395 . S
C2952 C2955 1.403 . S
C2953 C2950 1.403 . S
C2953 C2954 1.524 . S
C2953 C2957 1.400 . S
C2954 H2939 0.960 . S
C2954 H2940 0.960 . S
C2954 H2941 0.960 . S
C2954 C2953 1.524 . S
C2955 C2952 1.403 . S
C2955 C2956 1.392 . S
C2955 C2959 1.495 . S
C2956 C2955 1.392 . S
C2956 C2957 1.385 . S
C2956 C2958 1.478 . S
C2957 H2951 0.930 . S
C2957 C2953 1.400 . S
C2957 C2956 1.385 . S
C2958 C2956 1.478 . S
C2958 C2960 1.381 . S
C2958 C2964 1.383 . S
C2959 C2955 1.495 . S
C2959 H2965 0.959 . S
C2959 H2966 0.961 . S
C2959 H2967 0.960 . S
C2960 C2958 1.381 . S
C2960 C2961 1.394 . S
C2960 H2968 0.930 . S
C2961 C2960 1.394 . S
C2961 C2962 1.383 . S
C2961 H2969 0.929 . S
C2962 C2961 1.383 . S
C2962 C2963 1.377 . S
C2963 H2947 0.930 . S
C2963 C2962 1.377 . S
C2963 C2964 1.379 . S
C2964 H2948 0.931 . S
C2964 C2958 1.383 . S
C2964 C2963 1.379 . S
H2965 C2959 0.959 . S
H2966 C2959 0.961 . S
H2967 C2959 0.960 . S
H2968 C2960 0.930 . S
H2969 C2961 0.929 . S
H2970 C2978 0.929 . S
H2971 C2980 0.930 . S
H2972 C2982 0.930 . S
H2973 C2985 0.929 . S
H2974 C2988 0.930 . S
H2975 C2990 0.960 . S
H2976 C2990 0.960 . S
H2977 C2990 0.960 . S
C2978 H2970 0.929 . S
C2978 C2979 1.377 . S
C2978 C2980 1.384 . S
C2979 C2978 1.377 . S
C2979 C2985 1.390 . S
C2980 H2971 0.930 . S
C2980 C2978 1.384 . S
C2980 C2981 1.372 . S
C2981 C2980 1.372 . S
C2981 C2982 1.400 . S
C2981 C2986 1.490 . S
C2982 H2972 0.930 . S
C2982 C2981 1.400 . S
C2982 C2985 1.386 . S
H2983 C2999 0.930 . S
H2984 C3000 0.931 . S
C2985 H2973 0.929 . S
C2985 C2979 1.390 . S
C2985 C2982 1.386 . S
C2986 C2981 1.490 . S
C2986 C2988 1.395 . S
C2986 C2989 1.403 . S
H2987 C2993 0.930 . S
C2988 H2974 0.930 . S
C2988 C2986 1.395 . S
C2988 C2991 1.403 . S
C2989 C2986 1.403 . S
C2989 C2990 1.524 . S
C2989 C2993 1.400 . S
C2990 H2975 0.960 . S
C2990 H2976 0.960 . S
C2990 H2977 0.960 . S
C2990 C2989 1.524 . S
C2991 C2988 1.403 . S
C2991 C2992 1.392 . S
C2991 C2995 1.495 . S
C2992 C2991 1.392 . S
C2992 C2993 1.385 . S
C2992 C2994 1.478 . S
C2993 H2987 0.930 . S
C2993 C2989 1.400 . S
C2993 C2992 1.385 . S
C2994 C2992 1.478 . S
C2994 C2996 1.381 . S
C2994 C3000 1.383 . S
C2995 C2991 1.495 . S
C2995 H3001 0.959 . S
C2995 H3002 0.961 . S
C2995 H3003 0.960 . S
C2996 C2994 1.381 . S
C2996 C2997 1.394 . S
C2996 H3004 0.930 . S
C2997 C2996 1.394 . S
C2997 C2998 1.383 . S
C2997 H3005 0.929 . S
C2998 C2997 1.383 . S
C2998 C2999 1.377 . S
C2999 H2983 0.930 . S
C2999 C2998 1.377 . S
C2999 C3000 1.379 . S
C3000 H2984 0.931 . S
C3000 C2994 1.383 . S
C3000 C2999 1.379 . S
H3001 C2995 0.959 . S
H3002 C2995 0.961 . S
H3003 C2995 0.960 . S
H3004 C2996 0.930 . S
H3005 C2997 0.929 . S
H3006 C3014 0.929 . S
H3007 C3016 0.930 . S
H3008 C3018 0.930 . S
H3009 C3021 0.929 . S
H3010 C3024 0.930 . S
H3011 C3026 0.960 . S
H3012 C3026 0.960 . S
H3013 C3026 0.960 . S
C3014 H3006 0.929 . S
C3014 C3015 1.377 . S
C3014 C3016 1.384 . S
C3015 C3014 1.377 . S
C3015 C3021 1.390 . S
C3016 H3007 0.930 . S
C3016 C3014 1.384 . S
C3016 C3017 1.372 . S
C3017 C3016 1.372 . S
C3017 C3018 1.400 . S
C3017 C3022 1.490 . S
C3018 H3008 0.930 . S
C3018 C3017 1.400 . S
C3018 C3021 1.386 . S
H3019 C3035 0.930 . S
H3020 C3036 0.931 . S
C3021 H3009 0.929 . S
C3021 C3015 1.390 . S
C3021 C3018 1.386 . S
C3022 C3017 1.490 . S
C3022 C3024 1.395 . S
C3022 C3025 1.403 . S
H3023 C3029 0.930 . S
C3024 H3010 0.930 . S
C3024 C3022 1.395 . S
C3024 C3027 1.403 . S
C3025 C3022 1.403 . S
C3025 C3026 1.524 . S
C3025 C3029 1.400 . S
C3026 H3011 0.960 . S
C3026 H3012 0.960 . S
C3026 H3013 0.960 . S
C3026 C3025 1.524 . S
C3027 C3024 1.403 . S
C3027 C3028 1.392 . S
C3027 C3031 1.495 . S
C3028 C3027 1.392 . S
C3028 C3029 1.385 . S
C3028 C3030 1.478 . S
C3029 H3023 0.930 . S
C3029 C3025 1.400 . S
C3029 C3028 1.385 . S
C3030 C3028 1.478 . S
C3030 C3032 1.381 . S
C3030 C3036 1.383 . S
C3031 C3027 1.495 . S
C3031 H3037 0.959 . S
C3031 H3038 0.961 . S
C3031 H3039 0.960 . S
C3032 C3030 1.381 . S
C3032 C3033 1.394 . S
C3032 H3040 0.930 . S
C3033 C3032 1.394 . S
C3033 C3034 1.383 . S
C3033 H3041 0.929 . S
C3034 C3033 1.383 . S
C3034 C3035 1.377 . S
C3035 H3019 0.930 . S
C3035 C3034 1.377 . S
C3035 C3036 1.379 . S
C3036 H3020 0.931 . S
C3036 C3030 1.383 . S
C3036 C3035 1.379 . S
H3037 C3031 0.959 . S
H3038 C3031 0.961 . S
H3039 C3031 0.960 . S
H3040 C3032 0.930 . S
H3041 C3033 0.929 . S
H3042 C3050 0.929 . S
H3043 C3052 0.930 . S
H3044 C3054 0.930 . S
H3045 C3057 0.929 . S
H3046 C3060 0.930 . S
H3047 C3062 0.960 . S
H3048 C3062 0.960 . S
H3049 C3062 0.960 . S
C3050 H3042 0.929 . S
C3050 C3051 1.377 . S
C3050 C3052 1.384 . S
C3051 C3050 1.377 . S
C3051 C3057 1.390 . S
C3052 H3043 0.930 . S
C3052 C3050 1.384 . S
C3052 C3053 1.372 . S
C3053 C3052 1.372 . S
C3053 C3054 1.400 . S
C3053 C3058 1.490 . S
C3054 H3044 0.930 . S
C3054 C3053 1.400 . S
C3054 C3057 1.386 . S
H3055 C3071 0.930 . S
H3056 C3072 0.931 . S
C3057 H3045 0.929 . S
C3057 C3051 1.390 . S
C3057 C3054 1.386 . S
C3058 C3053 1.490 . S
C3058 C3060 1.395 . S
C3058 C3061 1.403 . S
H3059 C3065 0.930 . S
C3060 H3046 0.930 . S
C3060 C3058 1.395 . S
C3060 C3063 1.403 . S
C3061 C3058 1.403 . S
C3061 C3062 1.524 . S
C3061 C3065 1.400 . S
C3062 H3047 0.960 . S
C3062 H3048 0.960 . S
C3062 H3049 0.960 . S
C3062 C3061 1.524 . S
C3063 C3060 1.403 . S
C3063 C3064 1.392 . S
C3063 C3067 1.495 . S
C3064 C3063 1.392 . S
C3064 C3065 1.385 . S
C3064 C3066 1.478 . S
C3065 H3059 0.930 . S
C3065 C3061 1.400 . S
C3065 C3064 1.385 . S
C3066 C3064 1.478 . S
C3066 C3068 1.381 . S
C3066 C3072 1.383 . S
C3067 C3063 1.495 . S
C3067 H3073 0.959 . S
C3067 H3074 0.961 . S
C3067 H3075 0.960 . S
C3068 C3066 1.381 . S
C3068 C3069 1.394 . S
C3068 H3076 0.930 . S
C3069 C3068 1.394 . S
C3069 C3070 1.383 . S
C3069 H3077 0.929 . S
C3070 C3069 1.383 . S
C3070 C3071 1.377 . S
C3071 H3055 0.930 . S
C3071 C3070 1.377 . S
C3071 C3072 1.379 . S
C3072 H3056 0.931 . S
C3072 C3066 1.383 . S
C3072 C3071 1.379 . S
H3073 C3067 0.959 . S
H3074 C3067 0.961 . S
H3075 C3067 0.960 . S
H3076 C3068 0.930 . S
H3077 C3069 0.929 . S
H3078 C3086 0.929 . S
H3079 C3088 0.930 . S
H3080 C3090 0.930 . S
H3081 C3093 0.929 . S
H3082 C3096 0.930 . S
H3083 C3098 0.960 . S
H3084 C3098 0.960 . S
H3085 C3098 0.960 . S
C3086 H3078 0.929 . S
C3086 C3087 1.377 . S
C3086 C3088 1.384 . S
C3087 C3086 1.377 . S
C3087 C3093 1.390 . S
C3088 H3079 0.930 . S
C3088 C3086 1.384 . S
C3088 C3089 1.372 . S
C3089 C3088 1.372 . S
C3089 C3090 1.400 . S
C3089 C3094 1.490 . S
C3090 H3080 0.930 . S
C3090 C3089 1.400 . S
C3090 C3093 1.386 . S
H3091 C3107 0.930 . S
H3092 C3108 0.931 . S
C3093 H3081 0.929 . S
C3093 C3087 1.390 . S
C3093 C3090 1.386 . S
C3094 C3089 1.490 . S
C3094 C3096 1.395 . S
C3094 C3097 1.403 . S
H3095 C3101 0.930 . S
C3096 H3082 0.930 . S
C3096 C3094 1.395 . S
C3096 C3099 1.403 . S
C3097 C3094 1.403 . S
C3097 C3098 1.524 . S
C3097 C3101 1.400 . S
C3098 H3083 0.960 . S
C3098 H3084 0.960 . S
C3098 H3085 0.960 . S
C3098 C3097 1.524 . S
C3099 C3096 1.403 . S
C3099 C3100 1.392 . S
C3099 C3103 1.495 . S
C3100 C3099 1.392 . S
C3100 C3101 1.385 . S
C3100 C3102 1.478 . S
C3101 H3095 0.930 . S
C3101 C3097 1.400 . S
C3101 C3100 1.385 . S
C3102 C3100 1.478 . S
C3102 C3104 1.381 . S
C3102 C3108 1.383 . S
C3103 C3099 1.495 . S
C3103 H3109 0.959 . S
C3103 H3110 0.961 . S
C3103 H3111 0.960 . S
C3104 C3102 1.381 . S
C3104 C3105 1.394 . S
C3104 H3112 0.930 . S
C3105 C3104 1.394 . S
C3105 C3106 1.383 . S
C3105 H3113 0.929 . S
C3106 C3105 1.383 . S
C3106 C3107 1.377 . S
C3107 H3091 0.930 . S
C3107 C3106 1.377 . S
C3107 C3108 1.379 . S
C3108 H3092 0.931 . S
C3108 C3102 1.383 . S
C3108 C3107 1.379 . S
H3109 C3103 0.959 . S
H3110 C3103 0.961 . S
H3111 C3103 0.960 . S
H3112 C3104 0.930 . S
H3113 C3105 0.929 . S
H3114 C3122 0.929 . S
H3115 C3124 0.930 . S
H3116 C3126 0.930 . S
H3117 C3129 0.929 . S
H3118 C3132 0.930 . S
H3119 C3134 0.960 . S
H3120 C3134 0.960 . S
H3121 C3134 0.960 . S
C3122 H3114 0.929 . S
C3122 C3123 1.377 1_455 S
C3122 C3124 1.384 . S
C3123 C3122 1.377 1_655 S
C3123 C3129 1.390 . S
C3124 H3115 0.930 . S
C3124 C3122 1.384 . S
C3124 C3125 1.372 1_455 S
C3125 C3124 1.372 1_655 S
C3125 C3126 1.400 . S
C3125 C3130 1.490 . S
C3126 H3116 0.930 . S
C3126 C3125 1.400 . S
C3126 C3129 1.386 . S
H3127 C3143 0.930 . S
H3128 C3144 0.931 . S
C3129 H3117 0.929 . S
C3129 C3123 1.390 . S
C3129 C3126 1.386 . S
C3130 C3125 1.490 . S
C3130 C3132 1.395 1_655 S
C3130 C3133 1.403 . S
H3131 C3137 0.930 . S
C3132 H3118 0.930 . S
C3132 C3130 1.395 1_455 S
C3132 C3135 1.403 . S
C3133 C3130 1.403 . S
C3133 C3134 1.524 . S
C3133 C3137 1.400 . S
C3134 H3119 0.960 . S
C3134 H3120 0.960 . S
C3134 H3121 0.960 . S
C3134 C3133 1.524 . S
C3135 C3132 1.403 . S
C3135 C3136 1.392 1_455 S
C3135 C3139 1.495 . S
C3136 C3135 1.392 1_655 S
C3136 C3137 1.385 . S
C3136 C3138 1.478 . S
C3137 H3131 0.930 . S
C3137 C3133 1.400 . S
C3137 C3136 1.385 . S
C3138 C3136 1.478 . S
C3138 C3140 1.381 1_655 S
C3138 C3144 1.383 . S
C3139 C3135 1.495 . S
C3139 H3145 0.959 . S
C3139 H3146 0.961 . S
C3139 H3147 0.960 . S
C3140 C3138 1.381 1_455 S
C3140 C3141 1.394 . S
C3140 H3148 0.930 . S
C3141 C3140 1.394 . S
C3141 C3142 1.359 1_455 S
C3141 H3149 0.929 . S
C3142 C3141 1.359 1_655 S
C3142 C3143 1.427 . S
C3143 H3127 0.930 . S
C3143 C3142 1.427 . S
C3143 C3144 1.379 . S
C3144 H3128 0.931 . S
C3144 C3138 1.383 . S
C3144 C3143 1.379 . S
H3145 C3139 0.959 . S
H3146 C3139 0.961 . S
H3147 C3139 0.960 . S
H3148 C3140 0.930 . S
H3149 C3141 0.929 . S
H3150 C3158 0.929 . S
H3151 C3160 0.930 . S
H3152 C3162 0.930 . S
H3153 C3165 0.929 . S
H3154 C3168 0.930 . S
H3155 C3170 0.960 . S
H3156 C3170 0.960 . S
H3157 C3170 0.960 . S
C3158 H3150 0.929 . S
C3158 C3159 1.377 . S
C3158 C3160 1.384 . S
C3159 C3158 1.377 . S
C3159 C3165 1.390 . S
C3160 H3151 0.930 . S
C3160 C3158 1.384 . S
C3160 C3161 1.372 . S
C3161 C3160 1.372 . S
C3161 C3162 1.400 . S
C3161 C3166 1.490 . S
C3162 H3152 0.930 . S
C3162 C3161 1.400 . S
C3162 C3165 1.386 . S
H3163 C3179 0.930 . S
H3164 C3180 0.931 . S
C3165 H3153 0.929 . S
C3165 C3159 1.390 . S
C3165 C3162 1.386 . S
C3166 C3161 1.490 . S
C3166 C3168 1.395 . S
C3166 C3169 1.403 . S
H3167 C3173 0.930 . S
C3168 H3154 0.930 . S
C3168 C3166 1.395 . S
C3168 C3171 1.403 . S
C3169 C3166 1.403 . S
C3169 C3170 1.524 . S
C3169 C3173 1.400 . S
C3170 H3155 0.960 . S
C3170 H3156 0.960 . S
C3170 H3157 0.960 . S
C3170 C3169 1.524 . S
C3171 C3168 1.403 . S
C3171 C3172 1.392 . S
C3171 C3175 1.495 . S
C3172 C3171 1.392 . S
C3172 C3173 1.385 . S
C3172 C3174 1.478 . S
C3173 H3167 0.930 . S
C3173 C3169 1.400 . S
C3173 C3172 1.385 . S
C3174 C3172 1.478 . S
C3174 C3176 1.381 . S
C3174 C3180 1.383 . S
C3175 C3171 1.495 . S
C3175 H3181 0.959 . S
C3175 H3182 0.961 . S
C3175 H3183 0.960 . S
C3176 C3174 1.381 . S
C3176 C3177 1.394 . S
C3176 H3184 0.930 . S
C3177 C3176 1.394 . S
C3177 C3178 1.383 . S
C3177 H3185 0.929 . S
C3178 C3177 1.383 . S
C3178 C3179 1.377 . S
C3179 H3163 0.930 . S
C3179 C3178 1.377 . S
C3179 C3180 1.379 . S
C3180 H3164 0.931 . S
C3180 C3174 1.383 . S
C3180 C3179 1.379 . S
H3181 C3175 0.959 . S
H3182 C3175 0.961 . S
H3183 C3175 0.960 . S
H3184 C3176 0.930 . S
H3185 C3177 0.929 . S
H3186 C3194 0.929 . S
H3187 C3196 0.930 . S
H3188 C3198 0.930 1_565 S
H3189 C3201 0.906 1_565 S
H3190 C3204 0.913 1_565 S
H3191 C3206 0.960 . S
H3192 C3206 0.960 . S
H3193 C3206 0.960 . S
C3194 H3186 0.929 . S
C3194 C3195 1.377 . S
C3194 C3196 1.384 . S
C3195 C3194 1.377 . S
C3195 C3201 1.390 . S
C3196 H3187 0.930 . S
C3196 C3194 1.384 . S
C3196 C3197 1.372 . S
C3197 C3196 1.372 . S
C3197 C3198 1.400 . S
C3197 C3202 1.490 . S
C3198 H3188 0.930 1_545 S
C3198 C3197 1.400 . S
C3198 C3201 1.386 . S
H3199 C3215 0.930 . S
H3200 C3216 0.931 . S
C3201 H3189 0.906 1_545 S
C3201 C3195 1.390 . S
C3201 C3198 1.386 . S
C3202 C3197 1.490 . S
C3202 C3204 1.395 . S
C3202 C3205 1.403 . S
H3203 C3209 0.930 . S
C3204 H3190 0.913 1_545 S
C3204 C3202 1.395 . S
C3204 C3207 1.404 . S
C3205 C3202 1.403 . S
C3205 C3206 1.524 . S
C3205 C3209 1.400 . S
C3206 H3191 0.960 . S
C3206 H3192 0.960 . S
C3206 H3193 0.960 . S
C3206 C3205 1.524 . S
C3207 C3204 1.404 . S
C3207 C3208 1.391 . S
C3207 C3211 1.495 1_545 S
C3208 C3207 1.391 . S
C3208 C3209 1.385 . S
C3208 C3210 1.478 . S
C3209 H3203 0.930 . S
C3209 C3205 1.400 . S
C3209 C3208 1.385 . S
C3210 C3208 1.478 . S
C3210 C3212 1.381 . S
C3210 C3216 1.383 1_545 S
C3211 C3207 1.495 1_565 S
C3211 H3217 0.959 . S
C3211 H3218 0.961 . S
C3211 H3219 0.990 . S
C3212 C3210 1.381 . S
C3212 C3213 1.394 . S
C3212 H3220 0.930 . S
C3213 C3212 1.394 . S
C3213 C3214 1.400 . S
C3213 H3221 0.929 . S
C3214 C3213 1.400 . S
C3214 C3215 1.348 1_545 S
C3215 H3199 0.930 . S
C3215 C3214 1.348 1_565 S
C3215 C3216 1.379 . S
C3216 H3200 0.931 . S
C3216 C3210 1.383 1_565 S
C3216 C3215 1.379 . S
H3217 C3211 0.959 . S
H3218 C3211 0.961 . S
H3219 C3211 0.990 . S
H3220 C3212 0.930 . S
H3221 C3213 0.929 . S
C639 C9 1.537 1_655 S
C658 C458 1.466 1_655 S
C675 C19 1.566 . S
C694 C471 1.546 . S
C730 C500 1.473 1_545 S
C711 C33 1.578 . S
C747 C37 1.582 . S
C766 C513 1.524 . S
C783 C5 1.540 . S
C802 C534 1.520 . S
C819 C23 1.586 . S
C838 C563 1.520 . S
C855 C47 1.557 . S
C874 C542 1.477 1_655 S
C910 C555 1.493 . S
C891 C65 1.590 . S
C946 C521 1.496 1_545 S
C927 C75 1.558 . S
C963 C79 1.513 . S
C982 C492 1.459 1_545 S
C1018 C450 1.539 1_655 S
C999 C51 1.584 1_655 S
C1035 C61 1.567 . S
C1054 C479 1.504 . S
C1071 C93 1.661 . S
C1090 C584 1.531 . S
C1107 C103 1.607 . S
C1126 C597 1.577 . S
C1162 C626 1.565 . S
C1143 C117 1.635 . S
C1179 C121 1.602 . S
C1198 C261 1.544 . S
C1215 C89 1.615 . S
C1234 C282 1.584 . S
C1251 C107 1.615 . S
C1270 C311 1.504 . S
C1287 C131 1.591 . S
C1306 C290 1.565 . S
C1323 C149 1.610 . S
C1342 C303 1.508 . S
C1378 C269 1.514 . S
C1359 C159 1.583 . S
C1414 C618 1.525 . S
C1395 C163 1.595 . S
C1450 C576 1.574 . S
C1431 C135 1.633 . S
C1486 C605 1.537 . S
C1467 C145 1.607 . S
C1503 C177 1.614 . S
C1522 C332 1.529 . S
C1539 C187 1.584 . S
C1558 C345 1.564 . S
C1575 C201 1.637 . S
C1594 C374 1.573 . S
C1611 C205 1.649 . S
C1630 C387 1.619 . S
C1666 C408 1.558 . S
C1647 C173 1.610 . S
C1702 C437 1.530 . S
C1683 C191 1.637 . S
C1738 C416 1.572 . S
C1719 C215 1.642 . S
C1774 C429 1.567 . S
C1755 C233 1.637 . S
C1791 C243 1.579 . S
C1810 C395 1.554 . S
C1846 C366 1.453 . S
C1827 C247 1.539 . S
C1863 C219 1.637 . S
C1882 C324 1.560 . S
C1918 C353 1.536 . S
C1899 C229 1.595 . S
C1954 C264 1.382 . S
C1935 C11 1.503 . S
C1971 C14 1.454 . S
C1990 C285 1.363 . S
C2026 C313 1.396 . S
C2007 C28 1.537 . S
C2062 C334 1.380 . S
C2043 C39 1.528 . S
C2098 C348 1.360 . S
C2079 C0 1.499 . S
C2134 C376 1.303 . S
C2115 C25 1.421 . S
C2151 C42 1.572 . S
C2170 C369 1.416 . S
C2187 C67 1.482 . S
C2206 C327 1.367 . S
C2223 C70 1.464 . S
C2242 C355 1.413 . S
C2259 C81 1.491 . S
C2278 C292 1.421 . S
C2314 C306 1.364 . S
C2295 C53 1.537 . S
C2331 C56 1.496 . S
C2350 C271 1.443 . S
C2386 C390 1.420 . S
C2367 C95 1.493 . S
C2403 C98 1.535 . S
C2422 C411 1.458 . S
C2439 C112 1.594 . S
C2458 C439 1.499 . S
C2494 C460 1.362 . S
C2475 C123 1.441 . S
C2511 C84 1.500 . S
C2530 C474 1.384 . S
C2547 C109 1.407 . S
C2566 C502 1.356 . S
C2583 C126 1.494 . S
C2602 C495 1.396 . S
C2619 C151 1.443 . S
C2638 C453 1.299 . S
C2674 C481 1.394 . S
C2655 C154 1.488 . S
C2691 C165 1.472 . S
C2710 C418 1.378 . S
C2727 C137 1.579 . S
C2746 C432 1.409 . S
C2782 C397 1.502 . S
C2763 C140 1.576 . S
C2818 C516 1.279 1_545 S
C2799 C179 1.441 . S
C2835 C182 1.428 . S
C2854 C537 1.285 1_655 S
C2871 C196 1.542 . S
C2890 C565 1.462 . S
C2926 C586 1.424 . S
C2907 C207 1.515 . S
C2962 C600 1.399 . S
C2943 C168 1.543 . S
C2979 C193 1.511 . S
C2998 C628 1.369 . S
C3015 C210 1.569 . S
C3034 C621 1.407 . S
C3051 C235 1.562 . S
C3070 C579 1.448 . S
C3106 C607 1.448 . S
C3087 C238 1.530 . S
C3142 C544 1.251 1_655 S
C3123 C249 1.390 . S
C3178 C558 1.356 . S
C3159 C221 1.531 . S
C3195 C224 1.462 . S
C3214 C523 1.419 1_545 S
