# Generated by pormake.
# Topology ctn, (3,4)-cn, num edge types: 1
# Building blocks:
#     Node 0, Type 0, BuildingBlock: CUQRIR_clean_linker_1, # of connection points: 3
#     Node 1, Type 0, BuildingBlock: CUQRIR_clean_linker_1, # of connection points: 3
#     Node 2, Type 0, BuildingBlock: CUQRIR_clean_linker_1, # of connection points: 3
#     Node 3, Type 0, BuildingBlock: CUQRIR_clean_linker_1, # of connection points: 3
#     Node 4, Type 0, BuildingBlock: CUQRIR_clean_linker_1, # of connection points: 3
#     Node 5, Type 0, BuildingBlock: CUQRIR_clean_linker_1, # of connection points: 3
#     Node 6, Type 0, BuildingBlock: CUQRIR_clean_linker_1, # of connection points: 3
#     Node 7, Type 0, BuildingBlock: CUQRIR_clean_linker_1, # of connection points: 3
#     Node 8, Type 0, BuildingBlock: CUQRIR_clean_linker_1, # of connection points: 3
#     Node 9, Type 0, BuildingBlock: CUQRIR_clean_linker_1, # of connection points: 3
#     Node 10, Type 0, BuildingBlock: CUQRIR_clean_linker_1, # of connection points: 3
#     Node 11, Type 0, BuildingBlock: CUQRIR_clean_linker_1, # of connection points: 3
#     Node 12, Type 0, BuildingBlock: CUQRIR_clean_linker_1, # of connection points: 3
#     Node 13, Type 0, BuildingBlock: CUQRIR_clean_linker_1, # of connection points: 3
#     Node 14, Type 0, BuildingBlock: CUQRIR_clean_linker_1, # of connection points: 3
#     Node 15, Type 0, BuildingBlock: CUQRIR_clean_linker_1, # of connection points: 3
#     Node 16, Type 1, BuildingBlock: NAHDIM_clean_sbu_0, # of connection points: 4
#     Node 17, Type 1, BuildingBlock: NAHDIM_clean_sbu_0, # of connection points: 4
#     Node 18, Type 1, BuildingBlock: NAHDIM_clean_sbu_0, # of connection points: 4
#     Node 19, Type 1, BuildingBlock: NAHDIM_clean_sbu_0, # of connection points: 4
#     Node 20, Type 1, BuildingBlock: NAHDIM_clean_sbu_0, # of connection points: 4
#     Node 21, Type 1, BuildingBlock: NAHDIM_clean_sbu_0, # of connection points: 4
#     Node 22, Type 1, BuildingBlock: NAHDIM_clean_sbu_0, # of connection points: 4
#     Node 23, Type 1, BuildingBlock: NAHDIM_clean_sbu_0, # of connection points: 4
#     Node 24, Type 1, BuildingBlock: NAHDIM_clean_sbu_0, # of connection points: 4
#     Node 25, Type 1, BuildingBlock: NAHDIM_clean_sbu_0, # of connection points: 4
#     Node 26, Type 1, BuildingBlock: NAHDIM_clean_sbu_0, # of connection points: 4
#     Node 27, Type 1, BuildingBlock: NAHDIM_clean_sbu_0, # of connection points: 4
#     Edge 28, Type (0, 1), BuildingBlock: UVAHIK_clean_linker_0, # of connection points: 2
#     Edge 29, Type (0, 1), BuildingBlock: UVAHIK_clean_linker_0, # of connection points: 2
#     Edge 30, Type (0, 1), BuildingBlock: UVAHIK_clean_linker_0, # of connection points: 2
#     Edge 31, Type (0, 1), BuildingBlock: UVAHIK_clean_linker_0, # of connection points: 2
#     Edge 32, Type (0, 1), BuildingBlock: UVAHIK_clean_linker_0, # of connection points: 2
#     Edge 33, Type (0, 1), BuildingBlock: UVAHIK_clean_linker_0, # of connection points: 2
#     Edge 34, Type (0, 1), BuildingBlock: UVAHIK_clean_linker_0, # of connection points: 2
#     Edge 35, Type (0, 1), BuildingBlock: UVAHIK_clean_linker_0, # of connection points: 2
#     Edge 36, Type (0, 1), BuildingBlock: UVAHIK_clean_linker_0, # of connection points: 2
#     Edge 37, Type (0, 1), BuildingBlock: UVAHIK_clean_linker_0, # of connection points: 2
#     Edge 38, Type (0, 1), BuildingBlock: UVAHIK_clean_linker_0, # of connection points: 2
#     Edge 39, Type (0, 1), BuildingBlock: UVAHIK_clean_linker_0, # of connection points: 2
#     Edge 40, Type (0, 1), BuildingBlock: UVAHIK_clean_linker_0, # of connection points: 2
#     Edge 41, Type (0, 1), BuildingBlock: UVAHIK_clean_linker_0, # of connection points: 2
#     Edge 42, Type (0, 1), BuildingBlock: UVAHIK_clean_linker_0, # of connection points: 2
#     Edge 43, Type (0, 1), BuildingBlock: UVAHIK_clean_linker_0, # of connection points: 2
#     Edge 44, Type (0, 1), BuildingBlock: UVAHIK_clean_linker_0, # of connection points: 2
#     Edge 45, Type (0, 1), BuildingBlock: UVAHIK_clean_linker_0, # of connection points: 2
#     Edge 46, Type (0, 1), BuildingBlock: UVAHIK_clean_linker_0, # of connection points: 2
#     Edge 47, Type (0, 1), BuildingBlock: UVAHIK_clean_linker_0, # of connection points: 2
#     Edge 48, Type (0, 1), BuildingBlock: UVAHIK_clean_linker_0, # of connection points: 2
#     Edge 49, Type (0, 1), BuildingBlock: UVAHIK_clean_linker_0, # of connection points: 2
#     Edge 50, Type (0, 1), BuildingBlock: UVAHIK_clean_linker_0, # of connection points: 2
#     Edge 51, Type (0, 1), BuildingBlock: UVAHIK_clean_linker_0, # of connection points: 2
#     Edge 52, Type (0, 1), BuildingBlock: UVAHIK_clean_linker_0, # of connection points: 2
#     Edge 53, Type (0, 1), BuildingBlock: UVAHIK_clean_linker_0, # of connection points: 2
#     Edge 54, Type (0, 1), BuildingBlock: UVAHIK_clean_linker_0, # of connection points: 2
#     Edge 55, Type (0, 1), BuildingBlock: UVAHIK_clean_linker_0, # of connection points: 2
#     Edge 56, Type (0, 1), BuildingBlock: UVAHIK_clean_linker_0, # of connection points: 2
#     Edge 57, Type (0, 1), BuildingBlock: UVAHIK_clean_linker_0, # of connection points: 2
#     Edge 58, Type (0, 1), BuildingBlock: UVAHIK_clean_linker_0, # of connection points: 2
#     Edge 59, Type (0, 1), BuildingBlock: UVAHIK_clean_linker_0, # of connection points: 2
#     Edge 60, Type (0, 1), BuildingBlock: UVAHIK_clean_linker_0, # of connection points: 2
#     Edge 61, Type (0, 1), BuildingBlock: UVAHIK_clean_linker_0, # of connection points: 2
#     Edge 62, Type (0, 1), BuildingBlock: UVAHIK_clean_linker_0, # of connection points: 2
#     Edge 63, Type (0, 1), BuildingBlock: UVAHIK_clean_linker_0, # of connection points: 2
#     Edge 64, Type (0, 1), BuildingBlock: UVAHIK_clean_linker_0, # of connection points: 2
#     Edge 65, Type (0, 1), BuildingBlock: UVAHIK_clean_linker_0, # of connection points: 2
#     Edge 66, Type (0, 1), BuildingBlock: UVAHIK_clean_linker_0, # of connection points: 2
#     Edge 67, Type (0, 1), BuildingBlock: UVAHIK_clean_linker_0, # of connection points: 2
#     Edge 68, Type (0, 1), BuildingBlock: UVAHIK_clean_linker_0, # of connection points: 2
#     Edge 69, Type (0, 1), BuildingBlock: UVAHIK_clean_linker_0, # of connection points: 2
#     Edge 70, Type (0, 1), BuildingBlock: UVAHIK_clean_linker_0, # of connection points: 2
#     Edge 71, Type (0, 1), BuildingBlock: UVAHIK_clean_linker_0, # of connection points: 2
#     Edge 72, Type (0, 1), BuildingBlock: UVAHIK_clean_linker_0, # of connection points: 2
#     Edge 73, Type (0, 1), BuildingBlock: UVAHIK_clean_linker_0, # of connection points: 2
#     Edge 74, Type (0, 1), BuildingBlock: UVAHIK_clean_linker_0, # of connection points: 2
#     Edge 75, Type (0, 1), BuildingBlock: UVAHIK_clean_linker_0, # of connection points: 2
# Relax obj value: 0.076
# Max RMSD: 0.205
# Mean RMSD: 0.129
data_MOF--net-ctn--node1-NAHDIM_clean_sbu_0--node2-CUQRIR_clean_linker_1--edge1-UVAHIK_clean_linker_0
_symmetry_space_group_name_H-M    P1
_symmetry_Int_Tables_number       1
_symmetry_cell_setting            triclinic
loop_
_symmetry_equiv_pos_as_xyz
'x, y, z'
_cell_length_a     68.746572
_cell_length_b     64.541287
_cell_length_c     65.474983
_cell_angle_alpha  97.726698
_cell_angle_beta   88.82694
_cell_angle_gamma 94.726511
loop_
_atom_site_label
_atom_site_type_symbol
_atom_site_fract_x
_atom_site_fract_y
_atom_site_fract_z
_atom_type_partial_charge
C0 C 0.03662 0.02044 0.08252 0.0
N1 N 0.04474 0.02564 0.06471 0.0
N2 N 0.01876 0.02774 0.08545 0.0
C3 C 0.04565 0.00726 0.09648 0.0
C4 C 0.01623 0.03749 0.06876 0.0
N5 N 0.03195 0.03597 0.05595 0.0
C6 C 0.99931 0.05025 0.06606 0.0
H7 H 0.05444 0.99549 0.08745 0.0
H8 H 0.03431 0.99906 0.10546 0.0
H9 H 0.05549 0.01758 0.1074 0.0
H10 H 0.00416 0.06433 0.05869 0.0
H11 H 0.99221 0.05535 0.08105 0.0
H12 H 0.98836 0.04051 0.05595 0.0
C13 C 0.28633 0.71552 0.21479 0.0
N14 N 0.29247 0.70787 0.23156 0.0
N15 N 0.29419 0.73536 0.21428 0.0
C16 C 0.27174 0.70409 0.19956 0.0
C17 C 0.30524 0.73958 0.23145 0.0
N18 N 0.30407 0.72287 0.2421 0.0
C19 C 0.31827 0.75936 0.2369 0.0
H20 H 0.27959 0.69408 0.18754 0.0
H21 H 0.26384 0.71523 0.19197 0.0
H22 H 0.26101 0.6938 0.20723 0.0
H23 H 0.31054 0.7703 0.24815 0.0
H24 H 0.32197 0.76718 0.22307 0.0
H25 H 0.33194 0.75596 0.24407 0.0
C26 C 0.97111 0.48591 0.06207 0.0
N27 N 0.98065 0.46848 0.06284 0.0
N28 N 0.95565 0.48159 0.04928 0.0
C29 C 0.97602 0.50673 0.07496 0.0
C30 C 0.95605 0.46088 0.04239 0.0
N31 N 0.97111 0.45284 0.05084 0.0
C32 C 0.94283 0.44899 0.02603 0.0
H33 H 0.98231 0.50457 0.08993 0.0
H34 H 0.96291 0.51566 0.07788 0.0
H35 H 0.98703 0.51605 0.0666 0.0
H36 H 0.93709 0.4597 0.01612 0.0
H37 H 0.93033 0.44095 0.03357 0.0
H38 H 0.95066 0.43693 0.01618 0.0
C39 C 0.68071 0.75899 0.22555 0.0
N40 N 0.69659 0.76935 0.21793 0.0
N41 N 0.67287 0.77112 0.24159 0.0
C42 C 0.672 0.73769 0.21643 0.0
C43 C 0.6845 0.78922 0.24346 0.0
N44 N 0.69882 0.78826 0.22891 0.0
C45 C 0.68286 0.807 0.26067 0.0
H46 H 0.65608 0.73592 0.21958 0.0
H47 H 0.67902 0.72553 0.22349 0.0
H48 H 0.6746 0.73502 0.19954 0.0
H49 H 0.67575 0.80134 0.27447 0.0
H50 H 0.67384 0.81874 0.25546 0.0
H51 H 0.69745 0.81482 0.265 0.0
C52 C 0.03492 0.97015 0.46786 0.0
N53 N 0.05105 0.97553 0.47951 0.0
N54 N 0.03196 0.98527 0.45608 0.0
C55 C 0.02139 0.95077 0.46896 0.0
C56 C 0.04678 1.00012 0.46108 0.0
N57 N 0.05829 0.99431 0.47554 0.0
C58 C 0.05081 0.01949 0.45071 0.0
H59 H 0.02697 0.93758 0.45845 0.0
H60 H 0.00642 0.95308 0.46417 0.0
H61 H 0.0208 0.94641 0.48479 0.0
H62 H 0.04448 0.03286 0.46026 0.0
H63 H 0.04414 0.01742 0.43521 0.0
H64 H 0.06675 0.02341 0.44917 0.0
C65 C 0.17739 0.71383 0.80326 0.0
N66 N 0.19274 0.70624 0.81158 0.0
N67 N 0.1752 0.70544 0.7833 0.0
C68 C 0.16549 0.73064 0.81411 0.0
C69 C 0.18988 0.69265 0.77966 0.0
N70 N 0.20067 0.69326 0.79686 0.0
C71 C 0.19285 0.67862 0.75977 0.0
H72 H 0.15363 0.7232 0.82307 0.0
H73 H 0.15881 0.73939 0.80295 0.0
H74 H 0.17463 0.74188 0.82497 0.0
H75 H 0.20404 0.68649 0.75034 0.0
H76 H 0.17913 0.67548 0.75084 0.0
H77 H 0.19812 0.66352 0.76275 0.0
C78 C 0.95326 0.53296 0.45734 0.0
N79 N 0.96592 0.55019 0.45752 0.0
N80 N 0.93852 0.53673 0.471 0.0
C81 C 0.9546 0.51289 0.44292 0.0
C82 C 0.94261 0.55691 0.47944 0.0
N83 N 0.95916 0.56521 0.47103 0.0
C84 C 0.93158 0.56773 0.49735 0.0
H85 H 0.93994 0.5046 0.43993 0.0
H86 H 0.96377 0.5025 0.45004 0.0
H87 H 0.96148 0.51605 0.42805 0.0
H88 H 0.92395 0.55621 0.50652 0.0
H89 H 0.92053 0.57692 0.49138 0.0
H90 H 0.94155 0.57865 0.50763 0.0
C91 C 0.789 0.80066 0.81326 0.0
N92 N 0.80395 0.78829 0.80895 0.0
N93 N 0.78572 0.81097 0.79714 0.0
C94 C 0.77676 0.80167 0.83263 0.0
C95 C 0.79911 0.80436 0.78282 0.0
N96 N 0.81004 0.79035 0.78988 0.0
C97 C 0.80252 0.81285 0.76261 0.0
H98 H 0.76213 0.80688 0.83007 0.0
H99 H 0.7842 0.81304 0.84478 0.0
H100 H 0.77499 0.78613 0.83823 0.0
H101 H 0.81831 0.81414 0.75868 0.0
H102 H 0.7968 0.82848 0.76305 0.0
H103 H 0.7949 0.80188 0.75027 0.0
C104 C 0.29166 0.3064 0.31484 0.0
N105 N 0.30592 0.29341 0.30922 0.0
N106 N 0.28934 0.31896 0.30025 0.0
C107 C 0.27889 0.30563 0.33372 0.0
C108 C 0.30259 0.31309 0.28548 0.0
N109 N 0.31252 0.29736 0.29079 0.0
C110 C 0.30684 0.32386 0.26667 0.0
H111 H 0.27657 0.28938 0.33757 0.0
H112 H 0.26451 0.31158 0.3315 0.0
H113 H 0.28621 0.3156 0.34694 0.0
H114 H 0.3026 0.34023 0.26923 0.0
H115 H 0.29836 0.31519 0.25354 0.0
H116 H 0.32258 0.32402 0.26251 0.0
C117 C 0.46992 0.98729 0.55921 0.0
N118 N 0.47996 0.97016 0.55963 0.0
N119 N 0.45468 0.98278 0.5462 0.0
C120 C 0.47508 0.00842 0.57141 0.0
C121 C 0.45568 0.96228 0.5388 0.0
N122 N 0.47093 0.95449 0.54719 0.0
C123 C 0.44208 0.95004 0.52301 0.0
H124 H 0.46243 0.01814 0.57314 0.0
H125 H 0.48695 0.01678 0.56324 0.0
H126 H 0.48045 0.00659 0.58689 0.0
H127 H 0.45028 0.93943 0.51186 0.0
H128 H 0.4342 0.96046 0.51453 0.0
H129 H 0.43112 0.94026 0.53095 0.0
C130 C 0.18656 0.26057 0.72601 0.0
N131 N 0.20393 0.26952 0.72011 0.0
N132 N 0.18232 0.26804 0.74579 0.0
C133 C 0.17444 0.24341 0.71307 0.0
C134 C 0.19775 0.28177 0.75175 0.0
N135 N 0.21097 0.2825 0.73622 0.0
C136 C 0.19922 0.29558 0.77219 0.0
H137 H 0.16462 0.2506 0.70328 0.0
H138 H 0.16534 0.2336 0.72288 0.0
H139 H 0.18386 0.23326 0.70285 0.0
H140 H 0.20753 0.28784 0.78295 0.0
H141 H 0.18456 0.29818 0.77896 0.0
H142 H 0.20709 0.31099 0.77053 0.0
C143 C 0.77428 0.22632 0.73145 0.0
N144 N 0.78165 0.21622 0.74603 0.0
N145 N 0.78788 0.24054 0.72518 0.0
C146 C 0.7544 0.22102 0.722 0.0
C147 C 0.80388 0.23859 0.73626 0.0
N148 N 0.80015 0.22367 0.74887 0.0
C149 C 0.82268 0.25217 0.73563 0.0
H150 H 0.75416 0.22523 0.70613 0.0
H151 H 0.74361 0.22999 0.73156 0.0
H152 H 0.74991 0.20405 0.7215 0.0
H153 H 0.82022 0.26732 0.73025 0.0
H154 H 0.83296 0.24391 0.72474 0.0
H155 H 0.8295 0.25526 0.75107 0.0
C156 C 0.53436 0.50891 0.572 0.0
N157 N 0.54301 0.51535 0.55495 0.0
N158 N 0.51663 0.51651 0.57516 0.0
C159 C 0.54307 0.49501 0.58546 0.0
C160 C 0.51474 0.5277 0.55933 0.0
N161 N 0.53072 0.52678 0.54688 0.0
C162 C 0.49736 0.53954 0.55593 0.0
H163 H 0.53846 0.47842 0.57967 0.0
H164 H 0.53786 0.49837 0.60163 0.0
H165 H 0.55924 0.49697 0.5851 0.0
H166 H 0.50233 0.55567 0.55295 0.0
H167 H 0.487 0.54034 0.56912 0.0
H168 H 0.48941 0.53159 0.54212 0.0
C169 C 0.52973 0.47446 0.97624 0.0
N170 N 0.54641 0.4787 0.98723 0.0
N171 N 0.52733 0.48983 0.96457 0.0
C172 C 0.51496 0.45624 0.9782 0.0
C173 C 0.54304 0.50367 0.96896 0.0
N174 N 0.55453 0.49703 0.98294 0.0
C175 C 0.5479 0.52283 0.95846 0.0
H176 H 0.51911 0.44243 0.96753 0.0
H177 H 0.50013 0.45986 0.97417 0.0
H178 H 0.51462 0.4521 0.99412 0.0
H179 H 0.54229 0.53661 0.96805 0.0
H180 H 0.54106 0.52105 0.94305 0.0
H181 H 0.56392 0.52588 0.95667 0.0
C182 C 0.69499 0.23053 0.2899 0.0
N183 N 0.70812 0.22145 0.30018 0.0
N184 N 0.68669 0.21655 0.27466 0.0
C185 C 0.68908 0.2525 0.29585 0.0
C186 C 0.69508 0.19856 0.27621 0.0
N187 N 0.70801 0.2015 0.29189 0.0
C188 C 0.69172 0.17865 0.26147 0.0
H189 H 0.67381 0.25381 0.29133 0.0
H190 H 0.69884 0.26343 0.28783 0.0
H191 H 0.69048 0.25735 0.3127 0.0
H192 H 0.6867 0.18194 0.24632 0.0
H193 H 0.68031 0.16818 0.26798 0.0
H194 H 0.70526 0.17034 0.2592 0.0
C195 C 0.45609 0.02508 0.96001 0.0
N196 N 0.46985 0.0414 0.96048 0.0
N197 N 0.44421 0.0276 0.97677 0.0
C198 C 0.45496 0.00611 0.94387 0.0
C199 C 0.45122 0.04605 0.98743 0.0
N200 N 0.46688 0.05434 0.9776 0.0
C201 C 0.4424 0.05624 0.0071 0.0
H202 H 0.44586 0.00916 0.93096 0.0
H203 H 0.44821 0.99211 0.95024 0.0
H204 H 0.4697 0.00282 0.93767 0.0
H205 H 0.44877 0.05013 0.02031 0.0
H206 H 0.42636 0.05245 0.00739 0.0
H207 H 0.44554 0.07351 0.00914 0.0
C208 C 0.21342 0.9128 0.0387 0.0
O209 O 0.22897 0.91993 0.04961 0.0
O210 O 0.23194 0.85402 0.00215 0.0
Zn211 Zn 0.23665 0.87779 0.02539 0.0
O212 O 0.26053 0.89618 0.01893 0.0
C213 C 0.25314 0.85124 0.05005 0.0
O214 O 0.2621 0.84641 0.03235 0.0
O215 O 0.21327 0.89498 0.02772 0.0
C216 C 0.27321 0.90363 0.0324 0.0
O217 O 0.27067 0.89962 0.05145 0.0
C218 C 0.24453 0.8495 0.9881 0.0
O219 O 0.2613 0.86087 0.98828 0.0
O220 O 0.24089 0.86511 0.05142 0.0
C221 C 0.15905 0.47922 0.28682 0.0
O222 O 0.15986 0.49636 0.30022 0.0
O223 O 0.116 0.50939 0.29227 0.0
Zn224 Zn 0.1332 0.50278 0.26735 0.0
O225 O 0.15273 0.52763 0.26531 0.0
C226 C 0.11916 0.50444 0.22565 0.0
O227 O 0.13348 0.51916 0.22521 0.0
O228 O 0.14813 0.47803 0.2712 0.0
C229 C 0.16875 0.52515 0.25558 0.0
O230 O 0.17205 0.50642 0.24624 0.0
C231 C 0.10626 0.52547 0.2944 0.0
O232 O 0.10736 0.53781 0.27994 0.0
O233 O 0.11641 0.49559 0.24182 0.0
C234 C 0.81622 0.62088 0.99977 0.0
O235 O 0.82159 0.6402 0.99656 0.0
O236 O 0.78414 0.6525 0.97527 0.0
Zn237 Zn 0.77709 0.63435 0.99771 0.0
O238 O 0.75162 0.61646 0.99203 0.0
C239 C 0.77109 0.67181 0.02689 0.0
O240 O 0.76987 0.68083 0.01018 0.0
O241 O 0.79815 0.615 1.00048 0.0
C242 C 0.73539 0.62378 0.99742 0.0
O243 O 0.73527 0.64354 0.00547 0.0
C244 C 0.78495 0.64538 0.95622 0.0
O245 O 0.78078 0.62524 0.95044 0.0
O246 O 0.77435 0.65253 0.02514 0.0
C247 C 0.82311 0.02833 0.29454 0.0
O248 O 0.81443 0.01021 0.298 0.0
O249 O 0.87175 1.00025 0.30611 0.0
Zn250 Zn 0.85536 0.00318 0.28151 0.0
O251 O 0.83665 0.97749 0.27419 0.0
C252 C 0.88938 0.01745 0.25925 0.0
O253 O 0.89453 0.02692 0.2776 0.0
O254 O 0.84054 0.02904 0.28765 0.0
C255 C 0.84195 0.96156 0.26244 0.0
O256 O 0.85988 0.96178 0.25514 0.0
C257 C 0.88467 0.9871 0.30451 0.0
O258 O 0.88675 0.97505 0.28691 0.0
O259 O 0.87311 0.00657 0.25719 0.0
C260 C 0.31271 0.11552 0.48916 0.0
O261 O 0.31301 0.12093 0.47051 0.0
O262 O 0.28503 0.15442 0.47077 0.0
Zn263 Zn 0.27746 0.13843 0.49476 0.0
O264 O 0.25299 0.11889 0.48894 0.0
C265 C 0.28231 0.16365 0.53547 0.0
O266 O 0.29849 0.1543 0.53624 0.0
O267 O 0.2992 0.12129 0.50167 0.0
C268 C 0.23635 0.12592 0.49267 0.0
O269 O 0.23546 0.14603 0.49897 0.0
C270 C 0.28203 0.14724 0.45194 0.0
O271 O 0.27355 0.12823 0.44729 0.0
O272 O 0.2717 0.15943 0.51953 0.0
C273 C 0.32986 0.53085 0.796 0.0
O274 O 0.32417 0.51473 0.80557 0.0
O275 O 0.37909 0.50466 0.80317 0.0
Zn276 Zn 0.36075 0.50479 0.77957 0.0
O277 O 0.34299 0.47803 0.77452 0.0
C278 C 0.38502 0.49161 0.74458 0.0
O279 O 0.38152 0.4732 0.75094 0.0
O280 O 0.34492 0.52997 0.78442 0.0
C281 C 0.34707 0.46089 0.78036 0.0
O282 O 0.36319 0.46044 0.79067 0.0
C283 C 0.3743 0.50109 0.8213 0.0
O284 O 0.3558 0.49705 0.82587 0.0
O285 O 0.37746 0.50741 0.75431 0.0
C286 C 0.71598 0.40939 0.53664 0.0
O287 O 0.7316 0.4185 0.54635 0.0
O288 O 0.7406 0.35379 0.50172 0.0
Zn289 Zn 0.74118 0.37581 0.52678 0.0
O290 O 0.76406 0.39698 0.52404 0.0
C291 C 0.75303 0.34573 0.55172 0.0
O292 O 0.75965 0.33733 0.5338 0.0
O293 O 0.71642 0.39074 0.52754 0.0
C294 C 0.78155 0.39188 0.52317 0.0
O295 O 0.78492 0.3724 0.52465 0.0
C296 C 0.74687 0.35873 0.48447 0.0
O297 O 0.75334 0.37825 0.48325 0.0
O298 O 0.74406 0.36231 0.55265 0.0
C299 C 0.66095 0.97485 0.77901 0.0
O300 O 0.66714 0.99375 0.78758 0.0
O301 O 0.61231 0.00468 0.78641 0.0
Zn302 Zn 0.6316 0.99771 0.76325 0.0
O303 O 0.6516 0.02231 0.762 0.0
C304 C 0.62083 0.99849 0.72021 0.0
O305 O 0.63643 0.01165 0.7198 0.0
O306 O 0.64574 0.97252 0.76793 0.0
C307 C 0.64767 0.04121 0.76716 0.0
O308 O 0.62975 0.04514 0.77283 0.0
C309 C 0.61726 0.01142 0.80487 0.0
O310 O 0.63585 0.01383 0.8096 0.0
O311 O 0.61635 0.99081 0.73673 0.0
C312 C 0.01185 0.19286 0.92878 0.0
O313 O 0.02487 0.20884 0.92804 0.0
O314 O 0.96658 0.21263 0.88863 0.0
Zn315 Zn 0.99072 0.2183 0.90635 0.0
O316 O 0.9881 0.24376 0.92777 0.0
C317 C 0.01255 0.23184 0.87146 0.0
O318 O 0.99551 0.23731 0.86633 0.0
O319 O 0.99532 0.19319 0.92048 0.0
C320 C 0.00232 0.25747 0.93213 0.0
O321 O 0.01909 0.25508 0.92249 0.0
C322 C 0.9494 0.21528 0.8955 0.0
O323 O 0.94682 0.22138 0.91526 0.0
O324 O 0.01392 0.22354 0.88785 0.0
C325 C 0.50946 0.69175 0.43017 0.0
O326 O 0.52253 0.7077 0.4295 0.0
O327 O 0.46256 0.71334 0.39303 0.0
Zn328 Zn 0.488 0.71788 0.40882 0.0
O329 O 0.48788 0.74361 0.43043 0.0
C330 C 0.50996 0.73597 0.37659 0.0
O331 O 0.49558 0.74831 0.37784 0.0
O332 O 0.49278 0.6924 0.42232 0.0
C333 C 0.50288 0.75638 0.4342 0.0
O334 O 0.51921 0.75269 0.4241 0.0
C335 C 0.44984 0.72675 0.39527 0.0
O336 O 0.45289 0.74361 0.40881 0.0
O337 O 0.5098 0.72186 0.38839 0.0
C338 C 0.02766 0.81528 0.60497 0.0
O339 O 0.03565 0.79773 0.59863 0.0
O340 O 0.98365 0.79077 0.65005 0.0
Zn341 Zn 0.00737 0.78833 0.63104 0.0
O342 O 0.00258 0.76437 0.60771 0.0
C343 C 0.02599 0.76826 0.66046 0.0
O344 O 0.00815 0.75949 0.66171 0.0
O345 O 0.01476 0.81543 0.61919 0.0
C346 C 0.01578 0.752 0.60214 0.0
O347 O 0.03266 0.75499 0.61155 0.0
C348 C 0.96808 0.7787 0.64717 0.0
O349 O 0.96654 0.76495 0.63045 0.0
O350 O 0.02954 0.78181 0.64817 0.0
C351 C 0.51831 0.32764 0.12268 0.0
O352 O 0.51862 0.33062 0.14293 0.0
O353 O 0.48191 0.28666 0.14589 0.0
Zn354 Zn 0.50609 0.28393 0.12756 0.0
O355 O 0.5022 0.25893 0.10541 0.0
C356 C 0.52821 0.26277 0.15374 0.0
O357 O 0.5129 0.24916 0.15102 0.0
O358 O 0.51301 0.30953 0.11339 0.0
C359 C 0.5169 0.24963 0.09801 0.0
O360 O 0.53441 0.25665 0.10473 0.0
C361 C 0.47072 0.27041 0.14826 0.0
O362 O 0.47434 0.25234 0.13767 0.0
O363 O 0.52867 0.27941 0.14525 0.0
C364 C 0.21932 0.72394 0.83355 0.0
C365 C 0.20069 0.71335 0.83166 0.0
C366 C 0.22544 0.73486 0.85254 0.0
C367 C 0.20337 0.76203 0.89881 0.0
H368 H 0.25642 0.77033 0.91905 0.0
C369 C 0.2232 0.81825 0.97256 0.0
C370 C 0.24041 0.8315 0.97184 0.0
C371 C 0.21913 0.80147 0.95702 0.0
C372 C 0.24156 0.76825 0.91351 0.0
H373 H 0.17446 0.70415 0.84797 0.0
H374 H 0.18517 0.72291 0.88137 0.0
H375 H 0.24834 0.74394 0.88938 0.0
H376 H 0.267 0.8373 0.95436 0.0
H377 H 0.2597 0.80829 0.92704 0.0
H378 H 0.19661 0.78663 0.92243 0.0
C379 C 0.19493 0.72325 0.8682 0.0
C380 C 0.23693 0.75311 0.89656 0.0
C381 C 0.18884 0.71242 0.84922 0.0
C382 C 0.2536 0.8274 0.95539 0.0
C383 C 0.24949 0.81065 0.9398 0.0
C384 C 0.20798 0.77715 0.91567 0.0
C385 C 0.21298 0.73529 0.86989 0.0
C386 C 0.2178 0.74996 0.88893 0.0
C387 C 0.23213 0.79759 0.94034 0.0
C388 C 0.22716 0.78061 0.92312 0.0
H389 H 0.22856 0.7249 0.82006 0.0
H390 H 0.23938 0.74406 0.85327 0.0
H391 H 0.18859 0.76037 0.89306 0.0
H392 H 0.2128 0.82085 0.98512 0.0
H393 H 0.20576 0.79153 0.95809 0.0
C394 C 0.99749 0.53775 0.44541 0.0
C395 C 0.98324 0.552 0.44498 0.0
C396 C 0.01271 0.53704 0.43098 0.0
C397 C 0.03849 0.56492 0.39104 0.0
H398 H 0.04704 0.50841 0.366 0.0
C399 C 0.08169 0.54686 0.31455 0.0
C400 C 0.09367 0.53005 0.31283 0.0
C401 C 0.06943 0.55081 0.33172 0.0
C402 C 0.04509 0.52429 0.373 0.0
H403 H 0.97408 0.57746 0.43018 0.0
H404 H 0.00076 0.57628 0.40463 0.0
H405 H 0.02414 0.51367 0.3946 0.0
H406 H 0.10251 0.50455 0.32808 0.0
H407 H 0.08136 0.51158 0.35806 0.0
H408 H 0.05938 0.57549 0.36917 0.0
C409 C 1.00028 0.56571 0.41618 0.0
C410 C 0.03194 0.52732 0.38944 0.0
C411 C 0.98504 0.56643 0.43073 0.0
C412 C 0.09336 0.51752 0.32882 0.0
C413 C 0.08116 0.5215 0.34598 0.0
C414 C 0.05172 0.56189 0.37456 0.0
C415 C 0.01394 0.55054 0.41576 0.0
C416 C 0.02847 0.54765 0.39868 0.0
C417 C 0.0689 0.53806 0.34756 0.0
C418 C 0.05516 0.54151 0.36533 0.0
H419 H 0.9964 0.52669 0.45652 0.0
H420 H 0.02324 0.5255 0.43139 0.0
H421 H 0.03623 0.58077 0.39792 0.0
H422 H 0.08157 0.55682 0.3025 0.0
H423 H 0.06003 0.56355 0.33232 0.0
C424 C 0.8073 0.75205 0.8153 0.0
C425 C 0.81024 0.77367 0.82172 0.0
C426 C 0.8086 0.73778 0.82948 0.0
C427 C 0.8013 0.73656 0.88502 0.0
H428 H 0.819 0.68064 0.87371 0.0
C429 C 0.79649 0.68091 0.94705 0.0
C430 C 0.79043 0.65971 0.94074 0.0
C431 C 0.80132 0.69455 0.93251 0.0
C432 C 0.81383 0.69615 0.87705 0.0
H433 H 0.81846 0.79745 0.84716 0.0
H434 H 0.8212 0.77265 0.87194 0.0
H435 H 0.82443 0.70486 0.84808 0.0
H436 H 0.78494 0.63621 0.91412 0.0
H437 H 0.79296 0.6601 0.88876 0.0
H438 H 0.79025 0.72786 0.91365 0.0
C439 C 0.81742 0.7666 0.85617 0.0
C440 C 0.81701 0.71005 0.86238 0.0
C441 C 0.81606 0.78079 0.84201 0.0
C442 C 0.78956 0.65244 0.91952 0.0
C443 C 0.79431 0.66612 0.90496 0.0
C444 C 0.79807 0.7227 0.89961 0.0
C445 C 0.81289 0.74498 0.85029 0.0
C446 C 0.81073 0.73041 0.86617 0.0
C447 C 0.80011 0.68741 0.91127 0.0
C448 C 0.80421 0.70228 0.89582 0.0
H449 H 0.8026 0.74633 0.79973 0.0
H450 H 0.80496 0.72126 0.82443 0.0
H451 H 0.79583 0.75194 0.88829 0.0
H452 H 0.7975 0.68702 0.96327 0.0
H453 H 0.80605 0.71073 0.93797 0.0
C454 C 0.0134 0.96911 0.42547 0.0
C455 C 0.01652 0.98553 0.44166 0.0
C456 C 0.9983 0.96924 0.41153 0.0
C457 C 0.96563 0.00467 0.39172 0.0
H458 H 0.93612 0.95249 0.37112 0.0
C459 C 0.89851 0.00153 0.33918 0.0
C460 C 0.89809 0.98624 0.32171 0.0
C461 C 0.91203 0.00132 0.35481 0.0
C462 C 0.94431 0.96717 0.37665 0.0
H463 H 0.0065 0.01479 0.45633 0.0
H464 H 0.97983 0.01505 0.43214 0.0
H465 H 0.96159 0.9525 0.39649 0.0
H466 H 0.91125 0.95848 0.30717 0.0
H467 H 0.93475 0.95809 0.33444 0.0
H468 H 0.94826 0.0193 0.37186 0.0
C469 C 0.98919 0.00222 0.42991 0.0
C470 C 0.95895 0.96718 0.39115 0.0
C471 C 0.00436 0.0021 0.44378 0.0
C472 C 0.91119 0.97049 0.32042 0.0
C473 C 0.92459 0.97019 0.3361 0.0
C474 C 0.9509 0.00467 0.37731 0.0
C475 C 0.98597 0.98577 0.4136 0.0
C476 C 0.96992 0.9859 0.39872 0.0
C477 C 0.92529 0.98571 0.35337 0.0
C478 C 0.94021 0.98589 0.36948 0.0
H479 H 0.02279 0.9563 0.42354 0.0
H480 H 0.99648 0.95651 0.39897 0.0
H481 H 0.97396 0.01933 0.39698 0.0
H482 H 0.88862 0.01388 0.34064 0.0
H483 H 0.91211 0.01337 0.36804 0.0
C484 C 0.23256 0.25699 0.70044 0.0
C485 C 0.21395 0.26442 0.70081 0.0
C486 C 0.2412 0.24929 0.68172 0.0
C487 C 0.2269 0.22528 0.62952 0.0
H488 H 0.28238 0.23165 0.61759 0.0
C489 C 0.25867 0.18829 0.55244 0.0
C490 C 0.27589 0.17814 0.55338 0.0
C491 C 0.25199 0.20106 0.56967 0.0
C492 C 0.26687 0.22961 0.62077 0.0
H493 H 0.19024 0.27107 0.68218 0.0
H494 H 0.2053 0.25779 0.64931 0.0
H495 H 0.26933 0.25064 0.64904 0.0
H496 H 0.29983 0.17385 0.57307 0.0
H497 H 0.28802 0.19588 0.60322 0.0
H498 H 0.2244 0.20399 0.60158 0.0
C499 C 0.21311 0.25744 0.66344 0.0
C500 C 0.25939 0.24051 0.63877 0.0
C501 C 0.20451 0.26511 0.68216 0.0
C502 C 0.28652 0.18144 0.57181 0.0
C503 C 0.2798 0.19419 0.58907 0.0
C504 C 0.23435 0.21439 0.61159 0.0
C505 C 0.23133 0.24892 0.66303 0.0
C506 C 0.23932 0.23838 0.64341 0.0
C507 C 0.26232 0.20394 0.58829 0.0
C508 C 0.25444 0.21631 0.60702 0.0
H509 H 0.23997 0.25621 0.71472 0.0
H510 H 0.25516 0.24271 0.68199 0.0
H511 H 0.21143 0.22292 0.63281 0.0
H512 H 0.25018 0.18621 0.53845 0.0
H513 H 0.23865 0.20861 0.56841 0.0
C514 C 0.49834 0.53125 0.60562 0.0
C515 C 0.50329 0.51382 0.59193 0.0
C516 C 0.48536 0.52869 0.62193 0.0
C517 C 0.46553 0.49017 0.65479 0.0
H518 H 0.42344 0.52681 0.66521 0.0
C519 C 0.40467 0.47628 0.71453 0.0
C520 C 0.39804 0.494 0.72666 0.0
C521 C 0.41727 0.47854 0.69782 0.0
C522 C 0.43525 0.51662 0.6627 0.0
H523 H 0.49921 0.48013 0.58454 0.0
H524 H 0.47654 0.47543 0.61332 0.0
H525 H 0.44621 0.53114 0.63678 0.0
H526 H 0.39947 0.52801 0.73081 0.0
H527 H 0.42177 0.53197 0.70197 0.0
H528 H 0.45485 0.47586 0.68088 0.0
C529 C 0.4826 0.49109 0.61141 0.0
C530 C 0.44826 0.51908 0.64637 0.0
C531 C 0.49545 0.49372 0.59498 0.0
C532 C 0.40422 0.51403 0.72169 0.0
C533 C 0.41693 0.51629 0.70508 0.0
C534 C 0.45262 0.48781 0.67122 0.0
C535 C 0.47734 0.50857 0.62498 0.0
C536 C 0.46351 0.50588 0.64226 0.0
C537 C 0.42364 0.49858 0.69295 0.0
C538 C 0.43731 0.501 0.67538 0.0
H539 H 0.50458 0.54682 0.60363 0.0
H540 H 0.48179 0.5424 0.63233 0.0
H541 H 0.47731 0.47995 0.65211 0.0
H542 H 0.40009 0.46062 0.71788 0.0
H543 H 0.42188 0.46454 0.68861 0.0
C544 C 0.79781 0.25194 0.69186 0.0
C545 C 0.78589 0.2538 0.70951 0.0
C546 C 0.79481 0.26358 0.67583 0.0
C547 C 0.75675 0.29203 0.65456 0.0
H548 H 0.79986 0.31185 0.62127 0.0
C549 C 0.74734 0.34297 0.58933 0.0
C550 C 0.75672 0.33637 0.57057 0.0
C551 C 0.75107 0.33408 0.60708 0.0
C552 C 0.78768 0.30632 0.6304 0.0
H553 H 0.76204 0.26952 0.72484 0.0
H554 H 0.75701 0.29046 0.69715 0.0
H555 H 0.80646 0.29482 0.65119 0.0
H556 H 0.77745 0.31539 0.5558 0.0
H557 H 0.78402 0.30008 0.58675 0.0
H558 H 0.73802 0.30375 0.63377 0.0
C559 C 0.76837 0.27967 0.69531 0.0
C560 C 0.79144 0.2965 0.64751 0.0
C561 C 0.77128 0.26786 0.71122 0.0
C562 C 0.76995 0.3208 0.56998 0.0
C563 C 0.77383 0.31212 0.58774 0.0
C564 C 0.75301 0.30206 0.63757 0.0
C565 C 0.77991 0.27746 0.67725 0.0
C566 C 0.77601 0.28899 0.65969 0.0
C567 C 0.76442 0.31863 0.60646 0.0
C568 C 0.76843 0.30908 0.62518 0.0
H569 H 0.80901 0.24096 0.69024 0.0
H570 H 0.80379 0.26118 0.66207 0.0
H571 H 0.74446 0.28615 0.66333 0.0
H572 H 0.73708 0.35493 0.59029 0.0
H573 H 0.74368 0.33946 0.62134 0.0
C574 C 0.51356 0.98208 0.57032 0.0
C575 C 0.49661 0.96884 0.57219 0.0
C576 C 0.5287 0.9831 0.5844 0.0
C577 C 0.54774 0.95705 0.62654 0.0
H578 H 0.56976 0.01341 0.64573 0.0
C579 C 0.59183 0.9786 0.702 0.0
C580 C 0.6082 0.99319 0.70184 0.0
C581 C 0.5795 0.97419 0.68497 0.0
C582 C 0.56399 0.99753 0.64036 0.0
H583 H 0.4823 0.94559 0.58941 0.0
H584 H 0.50865 0.94744 0.61443 0.0
H585 H 0.54624 0.00785 0.61794 0.0
H586 H 0.62463 0.01422 0.68342 0.0
H587 H 0.60312 0.00651 0.65373 0.0
H588 H 0.56526 0.94689 0.64945 0.0
C589 C 0.51046 0.9569 0.60196 0.0
C590 C 0.5505 0.99431 0.62436 0.0
C591 C 0.49537 0.95581 0.58773 0.0
C592 C 0.61212 0.00298 0.68411 0.0
C593 C 0.59974 0.99863 0.66712 0.0
C594 C 0.5612 0.9603 0.64266 0.0
C595 C 0.52712 0.97097 0.60079 0.0
C596 C 0.54214 0.97405 0.61725 0.0
C597 C 0.58319 0.98432 0.66741 0.0
C598 C 0.56942 0.9806 0.6498 0.0
H599 H 0.5148 0.99205 0.55823 0.0
H600 H 0.54149 0.99372 0.58269 0.0
H601 H 0.54179 0.94121 0.62132 0.0
H602 H 0.58839 0.97075 0.71539 0.0
H603 H 0.56677 0.96325 0.68578 0.0
C604 C 0.80761 0.21966 0.78472 0.0
C605 C 0.81313 0.2181 0.76388 0.0
C606 C 0.82095 0.21644 0.79962 0.0
C607 C 0.86842 0.19469 0.80672 0.0
H608 H 0.8718 0.23614 0.85548 0.0
C609 C 0.93566 0.2076 0.85981 0.0
C610 C 0.93268 0.21261 0.88115 0.0
C611 C 0.92007 0.20613 0.84616 0.0
C612 C 0.87088 0.22421 0.84214 0.0
H613 H 0.83631 0.21089 0.74195 0.0
H614 H 0.85982 0.20547 0.7679 0.0
H615 H 0.84616 0.23684 0.83054 0.0
H616 H 0.9108 0.2195 0.9049 0.0
H617 H 0.88358 0.2167 0.88112 0.0
H618 H 0.89335 0.18225 0.8182 0.0
C619 C 0.84522 0.2091 0.77286 0.0
C620 C 0.85615 0.22461 0.82782 0.0
C621 C 0.83188 0.21237 0.75801 0.0
C622 C 0.91365 0.21571 0.88856 0.0
C623 C 0.89804 0.21422 0.8749 0.0
C624 C 0.88315 0.19427 0.82106 0.0
C625 C 0.84005 0.21149 0.7939 0.0
C626 C 0.85486 0.21 0.80982 0.0
C627 C 0.90108 0.2096 0.85351 0.0
C628 C 0.88471 0.20918 0.83885 0.0
H629 H 0.7932 0.2241 0.78952 0.0
H630 H 0.8164 0.21811 0.81565 0.0
H631 H 0.86768 0.18302 0.79316 0.0
H632 H 0.95013 0.20517 0.85356 0.0
H633 H 0.92302 0.20283 0.82979 0.0
C634 C 0.49615 0.93129 0.53331 0.0
C635 C 0.47748 0.93382 0.5418 0.0
C636 C 0.50137 0.91139 0.52492 0.0
C637 C 0.48566 0.8541 0.52061 0.0
H638 H 0.51176 0.85256 0.46743 0.0
C639 C 0.48455 0.77959 0.46043 0.0
C640 C 0.50179 0.77568 0.44914 0.0
C641 C 0.48334 0.79824 0.47386 0.0
C642 C 0.50472 0.85269 0.4824 0.0
H643 H 0.45011 0.91772 0.5496 0.0
H644 H 0.45886 0.88299 0.53454 0.0
H645 H 0.50707 0.88618 0.4878 0.0
H646 H 0.5314 0.78815 0.44346 0.0
H647 H 0.52924 0.82065 0.46684 0.0
H648 H 0.48279 0.8205 0.51476 0.0
C649 C 0.46964 0.89619 0.53443 0.0
C650 C 0.50208 0.87201 0.49415 0.0
C651 C 0.46451 0.91606 0.54289 0.0
C652 C 0.51788 0.79068 0.45185 0.0
C653 C 0.51663 0.80936 0.46519 0.0
C654 C 0.48821 0.83476 0.50878 0.0
C655 C 0.48795 0.89366 0.52481 0.0
C656 C 0.49232 0.87299 0.51331 0.0
C657 C 0.4993 0.81344 0.47622 0.0
C658 C 0.49758 0.83385 0.48943 0.0
H659 H 0.50633 0.94485 0.53229 0.0
H660 H 0.51573 0.90999 0.51801 0.0
H661 H 0.47834 0.85423 0.53542 0.0
H662 H 0.47189 0.76837 0.45871 0.0
H663 H 0.46972 0.80101 0.48197 0.0
C664 C 0.14662 0.26559 0.75048 0.0
C665 C 0.16521 0.26299 0.75768 0.0
C666 C 0.13003 0.2616 0.76248 0.0
C667 C 0.11484 0.2575 0.81641 0.0
H668 H 0.06683 0.23103 0.79137 0.0
C669 C 0.04847 0.2308 0.86456 0.0
C670 C 0.02998 0.23519 0.85828 0.0
C671 C 0.06492 0.23393 0.85213 0.0
C672 C 0.08009 0.23861 0.79856 0.0
H673 H 0.18126 0.25375 0.78253 0.0
H674 H 0.15228 0.24643 0.80355 0.0
H675 H 0.09568 0.23651 0.76982 0.0
H676 H 0.01429 0.24629 0.834 0.0
H677 H 0.04306 0.25179 0.81234 0.0
H678 H 0.09926 0.25951 0.84515 0.0
C679 C 0.15044 0.25195 0.78886 0.0
C680 C 0.09661 0.24177 0.78621 0.0
C681 C 0.167 0.25601 0.77686 0.0
C682 C 0.02831 0.24274 0.83928 0.0
C683 C 0.04477 0.24577 0.82681 0.0
C684 C 0.09835 0.25427 0.82875 0.0
C685 C 0.13175 0.25486 0.78189 0.0
C686 C 0.11419 0.25127 0.79499 0.0
C687 C 0.06326 0.24144 0.83311 0.0
C688 C 0.08078 0.24481 0.81996 0.0
H689 H 0.14503 0.27116 0.73578 0.0
H690 H 0.11591 0.26427 0.75676 0.0
H691 H 0.12802 0.26522 0.82364 0.0
H692 H 0.05026 0.22494 0.87909 0.0
H693 H 0.07894 0.23023 0.85731 0.0
C694 C 0.52163 0.53633 0.51346 0.0
C695 C 0.53472 0.5385 0.52988 0.0
C696 C 0.52246 0.55117 0.49972 0.0
C697 C 0.5386 0.60701 0.49957 0.0
H698 H 0.52022 0.59649 0.44324 0.0
C699 C 0.53195 0.67383 0.45038 0.0
C700 C 0.51431 0.67331 0.43975 0.0
C701 C 0.53659 0.65659 0.4596 0.0
C702 C 0.52532 0.59965 0.45898 0.0
H703 H 0.55996 0.55654 0.54394 0.0
H704 H 0.56212 0.58213 0.5194 0.0
H705 H 0.52619 0.56698 0.46141 0.0
H706 H 0.48784 0.6541 0.4302 0.0
H707 H 0.49599 0.62393 0.44632 0.0
H708 H 0.53759 0.63964 0.49718 0.0
C709 C 0.55076 0.56939 0.51745 0.0
C710 C 0.52875 0.58275 0.46941 0.0
C711 C 0.54978 0.5546 0.5313 0.0
C712 C 0.50152 0.65503 0.43832 0.0
C713 C 0.50625 0.63769 0.44741 0.0
C714 C 0.53533 0.62386 0.4891 0.0
C715 C 0.53657 0.56838 0.50204 0.0
C716 C 0.53514 0.5862 0.48997 0.0
C717 C 0.52378 0.63835 0.45827 0.0
C718 C 0.52837 0.62037 0.46881 0.0
H719 H 0.51003 0.52383 0.51205 0.0
H720 H 0.51124 0.54983 0.48815 0.0
H721 H 0.54309 0.61035 0.51551 0.0
H722 H 0.54216 0.68764 0.45173 0.0
H723 H 0.55027 0.65749 0.46771 0.0
C724 C 0.82572 0.77053 0.76028 0.0
C725 C 0.82719 0.78228 0.7799 0.0
C726 C 0.84242 0.76718 0.74814 0.0
C727 C 0.8902 0.79388 0.73994 0.0
H728 H 0.89872 0.74361 0.70241 0.0
C729 C 0.95577 0.79014 0.68297 0.0
C730 C 0.95255 0.77888 0.66326 0.0
C731 C 0.94151 0.78931 0.69847 0.0
C732 C 0.89645 0.75786 0.71263 0.0
H733 H 0.84701 0.79877 0.80281 0.0
H734 H 0.87646 0.79286 0.78166 0.0
H735 H 0.87241 0.74292 0.72797 0.0
H736 H 0.93163 0.7582 0.64429 0.0
H737 H 0.90658 0.75725 0.67105 0.0
H738 H 0.91369 0.8091 0.72424 0.0
C739 C 0.86242 0.7863 0.77559 0.0
C740 C 0.88144 0.7574 0.72737 0.0
C741 C 0.84568 0.78946 0.78779 0.0
C742 C 0.93463 0.767 0.65933 0.0
C743 C 0.92032 0.7663 0.67477 0.0
C744 C 0.9051 0.7944 0.72511 0.0
C745 C 0.86089 0.77574 0.75535 0.0
C746 C 0.87801 0.77546 0.74107 0.0
C747 C 0.92359 0.77732 0.69461 0.0
C748 C 0.9083 0.77647 0.71108 0.0
H749 H 0.8115 0.76508 0.75393 0.0
H750 H 0.8407 0.75911 0.7326 0.0
H751 H 0.88773 0.80819 0.75002 0.0
H752 H 0.96948 0.7993 0.68659 0.0
H753 H 0.94469 0.79779 0.7136 0.0
C754 C 0.06355 0.94421 0.49022 0.0
C755 C 0.05722 0.96435 0.49544 0.0
C756 C 0.06467 0.93095 0.50529 0.0
C757 C 0.03912 0.9203 0.5521 0.0
H758 H 0.07802 0.88063 0.55499 0.0
C759 C 0.02746 0.85405 0.60363 0.0
C760 C 0.03345 0.83436 0.59525 0.0
C761 C 0.03284 0.87189 0.59411 0.0
C762 C 0.06692 0.89148 0.55428 0.0
H763 H 0.04799 0.987 0.52027 0.0
H764 H 0.04984 0.96377 0.54689 0.0
H765 H 0.08425 0.90881 0.53371 0.0
H766 H 0.0498 0.81799 0.5703 0.0
H767 H 0.05858 0.84872 0.55342 0.0
H768 H 0.02131 0.90249 0.5717 0.0
C769 C 0.05403 0.95824 0.53119 0.0
C770 C 0.07059 0.9077 0.54219 0.0
C771 C 0.05318 0.97158 0.51611 0.0
C772 C 0.04501 0.83293 0.57725 0.0
C773 C 0.05021 0.85066 0.56764 0.0
C774 C 0.03535 0.90394 0.564 0.0
C775 C 0.05916 0.93754 0.52579 0.0
C776 C 0.05658 0.92208 0.5407 0.0
C777 C 0.04418 0.8704 0.57588 0.0
C778 C 0.04903 0.88905 0.56493 0.0
H779 H 0.06642 0.93835 0.47425 0.0
H780 H 0.0685 0.91505 0.5006 0.0
H781 H 0.02791 0.93094 0.55102 0.0
H782 H 0.01865 0.85571 0.61757 0.0
H783 H 0.02813 0.88684 0.60109 0.0
C784 C 0.1408 0.70574 0.77414 0.0
C785 C 0.16061 0.70951 0.76933 0.0
C786 C 0.1265 0.71134 0.76157 0.0
C787 C 0.11822 0.72674 0.70993 0.0
H788 H 0.07324 0.7508 0.73754 0.0
C789 C 0.06144 0.7678 0.66858 0.0
C790 C 0.04175 0.76192 0.67273 0.0
C791 C 0.07627 0.7613 0.67995 0.0
C792 C 0.08565 0.74397 0.72961 0.0
H793 H 0.18127 0.72161 0.74773 0.0
H794 H 0.1563 0.73191 0.72573 0.0
H795 H 0.09853 0.73921 0.75784 0.0
H796 H 0.02219 0.74477 0.69211 0.0
H797 H 0.04807 0.73364 0.71205 0.0
H798 H 0.10534 0.73195 0.6817 0.0
C799 C 0.1517 0.72428 0.73897 0.0
C800 C 0.10012 0.73723 0.74122 0.0
C801 C 0.16599 0.71847 0.75151 0.0
C802 C 0.03721 0.74957 0.68855 0.0
C803 C 0.05201 0.74327 0.70003 0.0
C804 C 0.10379 0.73367 0.69832 0.0
C805 C 0.13177 0.72106 0.74403 0.0
C806 C 0.11651 0.72837 0.73153 0.0
C807 C 0.07169 0.74902 0.69582 0.0
C808 C 0.08731 0.74222 0.70806 0.0
H809 H 0.13648 0.69869 0.78781 0.0
H810 H 0.11132 0.70818 0.76569 0.0
H811 H 0.13053 0.71979 0.70194 0.0
H812 H 0.0654 0.77726 0.65644 0.0
H813 H 0.09132 0.76608 0.67649 0.0
C814 C 0.95848 0.60351 0.47834 0.0
C815 C 0.96884 0.58559 0.47747 0.0
C816 C 0.96632 0.62276 0.48835 0.0
C817 C 0.00097 0.6428 0.52983 0.0
H818 H 0.98903 0.69702 0.5163 0.0
C819 C 0.02644 0.71985 0.58055 0.0
C820 C 0.01223 0.73425 0.58546 0.0
C821 C 0.02301 0.70269 0.56529 0.0
C822 C 0.9924 0.68197 0.52029 0.0
H823 H 0.99595 0.57378 0.48495 0.0
H824 H 0.01015 0.60763 0.50187 0.0
H825 H 0.98082 0.66546 0.49202 0.0
H826 H 0.98341 0.74212 0.57785 0.0
H827 H 0.97741 0.71204 0.55119 0.0
H828 H 0.01236 0.65926 0.55815 0.0
C829 C 0.99573 0.60677 0.49532 0.0
C830 C 0.98772 0.66389 0.50639 0.0
C831 C 0.98778 0.58748 0.4854 0.0
C832 C 0.99465 0.7313 0.57447 0.0
C833 C 0.99126 0.71416 0.5591 0.0
C834 C 0.00576 0.66086 0.54362 0.0
C835 C 0.98479 0.62449 0.49758 0.0
C836 C 0.99168 0.64402 0.51113 0.0
C837 C 0.00534 0.69955 0.5545 0.0
C838 C 0.00129 0.68061 0.53915 0.0
H839 H 0.94387 0.60231 0.47218 0.0
H840 H 0.95739 0.63595 0.48988 0.0
H841 H 0.00388 0.62779 0.53424 0.0
H842 H 0.04018 0.72168 0.58864 0.0
H843 H 0.03422 0.69183 0.56195 0.0
C844 C 0.73387 0.79974 0.2268 0.0
C845 C 0.71428 0.80426 0.22659 0.0
C846 C 0.74881 0.81587 0.22722 0.0
C847 C 0.7585 0.87301 0.22199 0.0
H848 H 0.80166 0.86936 0.25824 0.0
C849 C 0.80783 0.94469 0.25881 0.0
C850 C 0.82805 0.94305 0.25676 0.0
C851 C 0.79474 0.92724 0.253 0.0
C852 C 0.78977 0.87049 0.24793 0.0
H853 H 0.69483 0.82868 0.22539 0.0
H854 H 0.72063 0.85702 0.22712 0.0
H855 H 0.77753 0.83957 0.25102 0.0
H856 H 0.85043 0.92184 0.24729 0.0
H857 H 0.82749 0.8912 0.23769 0.0
H858 H 0.77041 0.90444 0.21988 0.0
C859 C 0.72473 0.84112 0.22656 0.0
C860 C 0.77599 0.85337 0.24363 0.0
C861 C 0.70988 0.82495 0.22582 0.0
C862 C 0.83492 0.92359 0.24899 0.0
C863 C 0.82184 0.90605 0.24356 0.0
C864 C 0.77211 0.89025 0.2266 0.0
C865 C 0.74441 0.83688 0.2277 0.0
C866 C 0.76003 0.85446 0.23077 0.0
C867 C 0.80164 0.90776 0.2454 0.0
C868 C 0.78775 0.8892 0.23975 0.0
H869 H 0.73756 0.78385 0.22745 0.0
H870 H 0.76378 0.8119 0.22762 0.0
H871 H 0.7467 0.87434 0.21167 0.0
H872 H 0.80211 0.9595 0.26469 0.0
H873 H 0.77921 0.92889 0.25472 0.0
C874 C 0.74087 0.19071 0.29705 0.0
C875 C 0.72056 0.18647 0.29749 0.0
C876 C 0.75314 0.17516 0.30003 0.0
C877 C 0.75452 0.12364 0.31891 0.0
H878 H 0.79572 0.11534 0.27801 0.0
C879 C 0.79254 0.0465 0.30309 0.0
C880 C 0.8125 0.04759 0.2979 0.0
C881 C 0.78233 0.06454 0.30537 0.0
C882 C 0.78453 0.11761 0.2898 0.0
H883 H 0.69696 0.1634 0.30246 0.0
H884 H 0.7183 0.13603 0.30761 0.0
H885 H 0.7763 0.14527 0.27864 0.0
H886 H 0.83753 0.06863 0.29163 0.0
H887 H 0.8198 0.10012 0.29595 0.0
H888 H 0.76262 0.09582 0.32992 0.0
C889 C 0.72485 0.15131 0.30501 0.0
C890 C 0.77338 0.1348 0.29015 0.0
C891 C 0.71263 0.16684 0.30193 0.0
C892 C 0.82212 0.0672 0.29548 0.0
C893 C 0.81193 0.08526 0.29786 0.0
C894 C 0.76574 0.10648 0.31862 0.0
C895 C 0.74525 0.15514 0.30364 0.0
C896 C 0.75809 0.13787 0.30453 0.0
C897 C 0.79185 0.08412 0.30261 0.0
C898 C 0.78072 0.1031 0.30388 0.0
H899 H 0.7472 0.20577 0.29357 0.0
H900 H 0.76879 0.17866 0.29913 0.0
H901 H 0.74299 0.12573 0.33034 0.0
H902 H 0.78468 0.03163 0.30502 0.0
H903 H 0.76683 0.06301 0.30875 0.0
C904 C 0.42601 0.00712 0.00112 0.0
C905 C 0.42754 0.0142 0.98179 0.0
C906 C 0.40948 0.99476 0.0063 0.0
C907 C 0.3578 0.98102 0.992 0.0
H908 H 0.36256 0.93514 0.02375 0.0
C909 C 0.29298 0.92177 0.00647 0.0
C910 C 0.2908 0.91638 0.02654 0.0
C911 C 0.30969 0.93361 0.00087 0.0
C912 C 0.36099 0.94803 0.01504 0.0
H913 H 0.41333 0.01394 0.95261 0.0
H914 H 0.38454 0.99182 0.96132 0.0
H915 H 0.39185 0.95558 0.01391 0.0
H916 H 0.30447 0.91921 0.05647 0.0
H917 H 0.33364 0.9399 0.04667 0.0
H918 H 0.32693 0.97333 0.99303 0.0
C919 C 0.39592 0.99607 0.97268 0.0
C920 C 0.37777 0.95975 0.00941 0.0
C921 C 0.41243 0.0085 0.96756 0.0
C922 C 0.3057 0.92309 0.04088 0.0
C923 C 0.32246 0.93483 0.03524 0.0
C924 C 0.34104 0.96922 0.99754 0.0
C925 C 0.39418 0.98916 0.99217 0.0
C926 C 0.37637 0.97643 0.99787 0.0
C927 C 0.32464 0.94021 0.01518 0.0
C928 C 0.34245 0.95264 0.00917 0.0
H929 H 0.43761 0.01125 0.01222 0.0
H930 H 0.40854 0.98992 0.02153 0.0
H931 H 0.35616 0.99398 0.98341 0.0
H932 H 0.28179 0.91682 0.99503 0.0
H933 H 0.31105 0.93733 0.98523 0.0
C934 C 0.26279 0.33342 0.2834 0.0
C935 C 0.2755 0.33447 0.30004 0.0
C936 C 0.24955 0.34865 0.28295 0.0
C937 C 0.24112 0.40299 0.30424 0.0
H938 H 0.18835 0.3872 0.28485 0.0
C939 C 0.18331 0.46331 0.30678 0.0
C940 C 0.17133 0.46198 0.28944 0.0
C941 C 0.19544 0.4474 0.30893 0.0
C942 C 0.20309 0.39189 0.29012 0.0
H943 H 0.28449 0.35193 0.32926 0.0
H944 H 0.26117 0.37864 0.32871 0.0
H945 H 0.21063 0.36008 0.2871 0.0
H946 H 0.16255 0.44277 0.26084 0.0
H947 H 0.18385 0.41514 0.26448 0.0
H948 H 0.23369 0.4348 0.30706 0.0
C949 C 0.26151 0.36617 0.3159 0.0
C950 C 0.21585 0.37635 0.29142 0.0
C951 C 0.27472 0.35088 0.31633 0.0
C952 C 0.17156 0.44426 0.27442 0.0
C953 C 0.1837 0.42835 0.27656 0.0
C954 C 0.22838 0.41854 0.30291 0.0
C955 C 0.24881 0.36526 0.29916 0.0
C956 C 0.23504 0.38172 0.29839 0.0
C957 C 0.19587 0.42979 0.29379 0.0
C958 C 0.20924 0.41319 0.29574 0.0
H959 H 0.26314 0.32078 0.27076 0.0
H960 H 0.24013 0.34761 0.26973 0.0
H961 H 0.2559 0.40768 0.30939 0.0
H962 H 0.18343 0.47671 0.31868 0.0
H963 H 0.20441 0.44886 0.32253 0.0
C964 C 0.09398 0.99616 0.47917 0.0
C965 C 0.07626 0.00529 0.48324 0.0
C966 C 0.11174 0.00835 0.48251 0.0
C967 C 0.13074 0.06341 0.48362 0.0
H968 H 0.17854 0.04492 0.50283 0.0
C969 C 0.20019 0.11942 0.497 0.0
C970 C 0.21829 0.11156 0.49139 0.0
C971 C 0.18319 0.10595 0.49673 0.0
C972 C 0.16536 0.05022 0.49721 0.0
H973 H 0.06292 0.03355 0.49542 0.0
H974 H 0.09385 0.05489 0.50168 0.0
H975 H 0.1483 0.02209 0.50269 0.0
H976 H 0.23265 0.0833 0.48091 0.0
H977 H 0.20285 0.05978 0.4801 0.0
H978 H 0.14766 0.09134 0.47784 0.0
C979 C 0.09417 0.03851 0.49545 0.0
C980 C 0.14802 0.03716 0.4972 0.0
C981 C 0.0765 0.02633 0.49208 0.0
C982 C 0.21895 0.08988 0.48533 0.0
C983 C 0.20189 0.07637 0.48502 0.0
C984 C 0.14801 0.07639 0.48357 0.0
C985 C 0.11199 0.02987 0.48999 0.0
C986 C 0.13048 0.04367 0.49051 0.0
C987 C 0.18379 0.08425 0.49075 0.0
C988 C 0.16554 0.07005 0.49045 0.0
H989 H 0.09403 0.97998 0.47217 0.0
H990 H 0.12518 0.00122 0.47809 0.0
H991 H 0.11762 0.06872 0.47786 0.0
H992 H 0.19914 0.13601 0.50188 0.0
H993 H 0.16959 0.11256 0.50154 0.0
C994 C 0.77962 0.179 0.75111 0.0
C995 C 0.77204 0.19868 0.75463 0.0
C996 C 0.76848 0.16114 0.75594 0.0
C997 C 0.72351 0.14302 0.78343 0.0
H998 H 0.72134 0.09667 0.739 0.0
C999 C 0.65913 0.07938 0.77384 0.0
C1000 C 0.66325 0.05853 0.76741 0.0
C1001 C 0.67388 0.0957 0.7743 0.0
C1002 C 0.72196 0.10931 0.75171 0.0
H1003 H 0.74775 0.21564 0.76711 0.0
H1004 H 0.72809 0.18454 0.77546 0.0
H1005 H 0.74521 0.12645 0.73749 0.0
H1006 H 0.68618 0.03845 0.75657 0.0
H1007 H 0.71189 0.06693 0.75743 0.0
H1008 H 0.69988 0.12604 0.79737 0.0
C1009 C 0.74261 0.18272 0.76911 0.0
C1010 C 0.73571 0.12638 0.75088 0.0
C1011 C 0.75376 0.20051 0.76427 0.0
C1012 C 0.68247 0.05436 0.7615 0.0
C1013 C 0.69721 0.07069 0.76194 0.0
C1014 C 0.70974 0.12594 0.78425 0.0
C1015 C 0.74958 0.16272 0.7644 0.0
C1016 C 0.73646 0.1436 0.76657 0.0
C1017 C 0.69309 0.09156 0.76833 0.0
C1018 C 0.7086 0.10903 0.76823 0.0
H1019 H 0.79369 0.17733 0.74359 0.0
H1020 H 0.7744 0.14601 0.75242 0.0
H1021 H 0.72387 0.15589 0.79591 0.0
H1022 H 0.64449 0.08316 0.77848 0.0
H1023 H 0.67013 0.11163 0.77901 0.0
C1024 C 0.42621 0.00303 0.555 0.0
C1025 C 0.44091 0.99672 0.54096 0.0
C1026 C 0.41262 0.01637 0.5498 0.0
C1027 C 0.40452 0.05434 0.51369 0.0
H1028 H 0.3501 0.04353 0.52859 0.0
C1029 C 0.34276 0.0961 0.48172 0.0
C1030 C 0.32777 0.10255 0.49547 0.0
C1031 C 0.3568 0.08361 0.48758 0.0
C1032 C 0.36527 0.04692 0.52452 0.0
H1033 H 0.45329 0.99912 0.51075 0.0
H1034 H 0.42938 0.0223 0.50131 0.0
H1035 H 0.37416 0.021 0.53827 0.0
H1036 H 0.31593 0.10105 0.52626 0.0
H1037 H 0.34048 0.07938 0.5365 0.0
H1038 H 0.39558 0.08019 0.49982 0.0
C1039 C 0.4284 0.01726 0.51645 0.0
C1040 C 0.37907 0.034 0.53009 0.0
C1041 C 0.44199 0.00395 0.52171 0.0
C1042 C 0.32722 0.09631 0.51525 0.0
C1043 C 0.34124 0.08378 0.52109 0.0
C1044 C 0.3907 0.06723 0.5081 0.0
C1045 C 0.41351 0.0236 0.53042 0.0
C1046 C 0.39887 0.03753 0.52471 0.0
C1047 C 0.35617 0.07724 0.50731 0.0
C1048 C 0.37091 0.06366 0.51343 0.0
H1049 H 0.42529 0.99755 0.56994 0.0
H1050 H 0.40152 0.02116 0.56102 0.0
H1051 H 0.41968 0.0577 0.50958 0.0
H1052 H 0.3436 0.10059 0.46635 0.0
H1053 H 0.36797 0.07864 0.47651 0.0
C1054 C 0.56132 0.49158 0.53093 0.0
C1055 C 0.56121 0.50904 0.54612 0.0
C1056 C 0.57867 0.48214 0.52579 0.0
C1057 C 0.63258 0.48847 0.53219 0.0
H1058 H 0.62685 0.42836 0.5334 0.0
C1059 C 0.69767 0.44135 0.54634 0.0
C1060 C 0.6984 0.42104 0.53561 0.0
C1061 C 0.68126 0.45254 0.54512 0.0
C1062 C 0.62874 0.44507 0.53266 0.0
H1063 H 0.57879 0.53113 0.56718 0.0
H1064 H 0.60933 0.51488 0.55819 0.0
H1065 H 0.59794 0.4478 0.53419 0.0
H1066 H 0.68245 0.39663 0.51502 0.0
H1067 H 0.65391 0.41622 0.51272 0.0
H1068 H 0.66342 0.48575 0.53099 0.0
C1069 C 0.59617 0.50848 0.55004 0.0
C1070 C 0.61213 0.45623 0.53307 0.0
C1071 C 0.57879 0.51782 0.55519 0.0
C1072 C 0.68233 0.41219 0.52359 0.0
C1073 C 0.66593 0.42341 0.52232 0.0
C1074 C 0.64921 0.47728 0.5317 0.0
C1075 C 0.59618 0.49007 0.53581 0.0
C1076 C 0.61385 0.4781 0.53313 0.0
C1077 C 0.66517 0.44372 0.53309 0.0
C1078 C 0.6475 0.45548 0.53224 0.0
H1079 H 0.54776 0.48455 0.524 0.0
H1080 H 0.57824 0.46815 0.51458 0.0
H1081 H 0.63438 0.50527 0.53201 0.0
H1082 H 0.70977 0.44864 0.55577 0.0
H1083 H 0.68106 0.46798 0.55391 0.0
C1084 C 0.73095 0.24931 0.31726 0.0
C1085 C 0.71859 0.23109 0.31821 0.0
C1086 C 0.73795 0.26131 0.33533 0.0
C1087 C 0.74218 0.26287 0.3921 0.0
H1088 H 0.73516 0.32185 0.39193 0.0
C1089 C 0.73811 0.32237 0.4665 0.0
C1090 C 0.74662 0.34286 0.46591 0.0
C1091 C 0.73723 0.30773 0.44866 0.0
C1092 C 0.73753 0.30551 0.3922 0.0
H1093 H 0.70474 0.2102 0.33823 0.0
H1094 H 0.71681 0.23126 0.37012 0.0
H1095 H 0.73018 0.29764 0.36045 0.0
H1096 H 0.76153 0.36378 0.44629 0.0
H1097 H 0.76019 0.33824 0.41533 0.0
H1098 H 0.74915 0.27086 0.42411 0.0
C1099 C 0.72131 0.23624 0.35547 0.0
C1100 C 0.73471 0.2916 0.3741 0.0
C1101 C 0.7144 0.22417 0.33732 0.0
C1102 C 0.75468 0.34821 0.44724 0.0
C1103 C 0.75385 0.33358 0.42946 0.0
C1104 C 0.74503 0.27685 0.41028 0.0
C1105 C 0.73256 0.25536 0.35469 0.0
C1106 C 0.73691 0.2701 0.37381 0.0
C1107 C 0.74487 0.31326 0.42987 0.0
C1108 C 0.74264 0.29833 0.41054 0.0
H1109 H 0.73435 0.25474 0.30256 0.0
H1110 H 0.74695 0.2757 0.33417 0.0
H1111 H 0.7441 0.24642 0.39235 0.0
H1112 H 0.7318 0.31774 0.48066 0.0
H1113 H 0.73004 0.29229 0.44947 0.0
C1114 C 0.50461 0.0443 0.95057 0.0
C1115 C 0.48494 0.04417 0.94534 0.0
C1116 C 0.51912 0.04376 0.93525 0.0
C1117 C 0.52522 0.02463 0.88053 0.0
H1118 H 0.5759 0.05583 0.88615 0.0
C1119 C 0.58264 0.01733 0.81519 0.0
C1120 C 0.60222 0.01686 0.82076 0.0
C1121 C 0.56842 0.02242 0.83017 0.0
C1122 C 0.56189 0.04683 0.88443 0.0
H1123 H 0.46483 0.04421 0.92044 0.0
H1124 H 0.49013 0.04328 0.89348 0.0
H1125 H 0.55097 0.06245 0.91283 0.0
H1126 H 0.62221 0.02143 0.84647 0.0
H1127 H 0.59733 0.02979 0.87266 0.0
H1128 H 0.53614 0.00858 0.85252 0.0
C1129 C 0.49442 0.04366 0.90936 0.0
C1130 C 0.5476 0.0507 0.89969 0.0
C1131 C 0.47998 0.04431 0.9247 0.0
C1132 C 0.60726 0.0217 0.84165 0.0
C1133 C 0.59301 0.02665 0.85666 0.0
C1134 C 0.53952 0.02066 0.86538 0.0
C1135 C 0.51411 0.04289 0.91441 0.0
C1136 C 0.52911 0.03961 0.8979 0.0
C1137 C 0.57338 0.02701 0.85112 0.0
C1138 C 0.55807 0.03166 0.86713 0.0
H1139 H 0.50865 0.04365 0.96634 0.0
H1140 H 0.53412 0.04294 0.93961 0.0
H1141 H 0.51125 0.01552 0.8789 0.0
H1142 H 0.57828 0.01386 0.79921 0.0
H1143 H 0.55353 0.0229 0.82527 0.0
C1144 C 0.3073 0.25578 0.31139 0.0
C1145 C 0.3111 0.27674 0.32008 0.0
C1146 C 0.30806 0.2396 0.32357 0.0
C1147 C 0.32357 0.2274 0.37464 0.0
H1148 H 0.27731 0.18848 0.36988 0.0
C1149 C 0.29654 0.18082 0.44048 0.0
C1150 C 0.288 0.16025 0.43547 0.0
C1151 C 0.30176 0.19328 0.42502 0.0
C1152 C 0.2905 0.19894 0.37124 0.0
H1153 H 0.31994 0.29739 0.3476 0.0
H1154 H 0.32139 0.26931 0.36899 0.0
H1155 H 0.28342 0.21289 0.34478 0.0
H1156 H 0.27861 0.13653 0.41015 0.0
H1157 H 0.28787 0.1582 0.38318 0.0
H1158 H 0.3304 0.21374 0.40141 0.0
C1159 C 0.31788 0.26516 0.35283 0.0
C1160 C 0.29403 0.21295 0.35678 0.0
C1161 C 0.31703 0.28126 0.34067 0.0
C1162 C 0.28506 0.15234 0.41458 0.0
C1163 C 0.2903 0.16481 0.39911 0.0
C1164 C 0.32005 0.21336 0.38909 0.0
C1165 C 0.31274 0.24418 0.34463 0.0
C1166 C 0.31042 0.22761 0.35851 0.0
C1167 C 0.29861 0.18549 0.40413 0.0
C1168 C 0.30328 0.19921 0.38779 0.0
H1169 H 0.30256 0.25205 0.29555 0.0
H1170 H 0.30429 0.22359 0.3167 0.0
H1171 H 0.33646 0.2383 0.37627 0.0
H1172 H 0.29901 0.18744 0.4564 0.0
H1173 H 0.30784 0.20922 0.42951 0.0
C1174 C 0.5011 0.50882 0.9524 0.0
C1175 C 0.51174 0.49103 0.95057 0.0
C1176 C 0.48592 0.50995 0.93881 0.0
C1177 C 0.44763 0.50304 0.91538 0.0
H1178 H 0.45462 0.48261 0.85747 0.0
C1179 C 0.38488 0.49499 0.85634 0.0
C1180 C 0.38964 0.50065 0.83675 0.0
C1181 C 0.39954 0.49399 0.8706 0.0
C1182 C 0.45247 0.48853 0.87357 0.0
H1183 H 0.51512 0.46055 0.93333 0.0
H1184 H 0.48836 0.46222 0.90967 0.0
H1185 H 0.48077 0.48084 0.88153 0.0
H1186 H 0.41352 0.5101 0.81693 0.0
H1187 H 0.43896 0.50864 0.84183 0.0
H1188 H 0.41947 0.51115 0.90729 0.0
C1189 C 0.49182 0.47544 0.92141 0.0
C1190 C 0.46738 0.48728 0.88741 0.0
C1191 C 0.50699 0.47436 0.935 0.0
C1192 C 0.40933 0.50556 0.83183 0.0
C1193 C 0.42396 0.5046 0.84607 0.0
C1194 C 0.4327 0.5043 0.90152 0.0
C1195 C 0.48112 0.49328 0.92313 0.0
C1196 C 0.46516 0.49454 0.90847 0.0
C1197 C 0.41927 0.49865 0.86557 0.0
C1198 C 0.43498 0.49712 0.88044 0.0
H1199 H 0.50451 0.52178 0.96442 0.0
H1200 H 0.47813 0.52401 0.94041 0.0
H1201 H 0.44537 0.50857 0.93155 0.0
H1202 H 0.36985 0.49107 0.86059 0.0
H1203 H 0.39546 0.48917 0.88542 0.0
C1204 C 0.71673 0.74277 0.19976 0.0
C1205 C 0.70819 0.76182 0.20036 0.0
C1206 C 0.72624 0.73423 0.18194 0.0
C1207 C 0.74726 0.74603 0.13168 0.0
H1208 H 0.7344 0.68656 0.11531 0.0
C1209 C 0.76138 0.70401 0.04939 0.0
C1210 C 0.76712 0.68342 0.04746 0.0
C1211 C 0.75628 0.71439 0.06867 0.0
C1212 C 0.73842 0.7031 0.11977 0.0
H1213 H 0.70336 0.78738 0.18339 0.0
H1214 H 0.71993 0.77245 0.15194 0.0
H1215 H 0.72207 0.70337 0.14789 0.0
H1216 H 0.77274 0.6579 0.06441 0.0
H1217 H 0.76409 0.67607 0.09799 0.0
H1218 H 0.7634 0.74572 0.1033 0.0
C1219 C 0.71948 0.76415 0.16528 0.0
C1220 C 0.73134 0.71276 0.13849 0.0
C1221 C 0.70998 0.7727 0.18319 0.0
C1222 C 0.76823 0.67369 0.06531 0.0
C1223 C 0.76317 0.68407 0.08457 0.0
C1224 C 0.75437 0.73634 0.1129 0.0
C1225 C 0.72734 0.74457 0.1643 0.0
C1226 C 0.73561 0.73435 0.14467 0.0
C1227 C 0.75683 0.70442 0.08645 0.0
C1228 C 0.74997 0.71476 0.1067 0.0
H1229 H 0.71568 0.73434 0.21302 0.0
H1230 H 0.73248 0.71935 0.18186 0.0
H1231 H 0.75098 0.76264 0.13608 0.0
H1232 H 0.76036 0.71197 0.03595 0.0
H1233 H 0.75129 0.72997 0.06952 0.0
C1234 C 0.01235 0.03406 0.12278 0.0
C1235 C 0.00585 0.02641 0.10283 0.0
C1236 C 0.99973 0.03309 0.13967 0.0
C1237 C 0.94725 0.02759 0.15343 0.0
H1238 H 0.96657 0.01375 0.20476 0.0
C1239 C 0.89652 0.00994 0.22144 0.0
C1240 C 0.90256 0.01893 0.24128 0.0
C1241 C 0.90907 0.01105 0.2045 0.0
C1242 C 0.96102 0.01784 0.19058 0.0
H1243 H 0.98143 0.01161 0.08463 0.0
H1244 H 0.95925 0.00953 0.11418 0.0
H1245 H 0.98859 0.01492 0.1752 0.0
H1246 H 0.9265 0.03619 0.25888 0.0
H1247 H 0.9484 0.0381 0.22927 0.0
H1248 H 0.91961 0.03029 0.16882 0.0
C1249 C 0.97396 0.01663 0.11683 0.0
C1250 C 0.97363 0.01853 0.17365 0.0
C1251 C 0.9866 0.0177 0.09995 0.0
C1252 C 0.9214 0.02909 0.24381 0.0
C1253 C 0.93399 0.03009 0.22687 0.0
C1254 C 0.93462 0.02679 0.17034 0.0
C1255 C 0.98037 0.02437 0.13691 0.0
C1256 C 0.96691 0.02345 0.15487 0.0
C1257 C 0.92796 0.02105 0.20705 0.0
C1258 C 0.94138 0.02194 0.1891 0.0
H1259 H 0.02713 0.04105 0.12519 0.0
H1260 H 0.00506 0.0395 0.15485 0.0
H1261 H 0.94167 0.03177 0.13931 0.0
H1262 H 0.8821 0.00197 0.21897 0.0
H1263 H 0.90409 0.00375 0.18944 0.0
C1264 C 0.28336 0.76784 0.20389 0.0
C1265 C 0.29151 0.74859 0.19876 0.0
C1266 C 0.27929 0.77987 0.18847 0.0
C1267 C 0.27105 0.77439 0.1321 0.0
H1268 H 0.2779 0.83517 0.14011 0.0
C1269 C 0.26833 0.82289 0.06499 0.0
C1270 C 0.25725 0.84043 0.06786 0.0
C1271 C 0.27214 0.81233 0.08153 0.0
C1272 C 0.27574 0.81821 0.13776 0.0
H1273 H 0.30257 0.72705 0.17399 0.0
H1274 H 0.29603 0.74818 0.14697 0.0
H1275 H 0.28598 0.8157 0.16794 0.0
H1276 H 0.24173 0.86083 0.09044 0.0
H1277 H 0.24859 0.84236 0.11952 0.0
H1278 H 0.26118 0.77688 0.10182 0.0
C1279 C 0.29221 0.75385 0.16274 0.0
C1280 C 0.28034 0.80704 0.15369 0.0
C1281 C 0.29611 0.7418 0.17814 0.0
C1282 C 0.25026 0.84733 0.08774 0.0
C1283 C 0.25426 0.83685 0.10438 0.0
C1284 C 0.26663 0.78552 0.11617 0.0
C1285 C 0.28343 0.77287 0.16764 0.0
C1286 C 0.2782 0.78496 0.15098 0.0
C1287 C 0.26512 0.81913 0.10139 0.0
C1288 C 0.26906 0.80753 0.11875 0.0
H1289 H 0.27962 0.77319 0.21977 0.0
H1290 H 0.27237 0.79431 0.19281 0.0
H1291 H 0.26872 0.75744 0.12962 0.0
H1292 H 0.27397 0.81716 0.0499 0.0
H1293 H 0.28075 0.79889 0.0788 0.0
C1294 C 0.01424 0.48008 0.07361 0.0
C1295 C 0.9972 0.46696 0.07547 0.0
C1296 C 0.029 0.48165 0.08821 0.0
C1297 C 0.04712 0.45798 0.13229 0.0
H1298 H 0.06687 0.51539 0.15051 0.0
C1299 C 0.09057 0.48304 0.20798 0.0
C1300 C 0.10627 0.4984 0.20756 0.0
C1301 C 0.07821 0.47775 0.19101 0.0
C1302 C 0.06175 0.49922 0.14544 0.0
H1303 H 0.98244 0.44434 0.09313 0.0
H1304 H 0.00821 0.44708 0.11897 0.0
H1305 H 0.04424 0.50804 0.12197 0.0
H1306 H 0.12151 0.51992 0.18877 0.0
H1307 H 0.1001 0.51062 0.15923 0.0
H1308 H 0.06451 0.4493 0.15613 0.0
C1309 C 0.01034 0.45605 0.10615 0.0
C1310 C 0.04877 0.49499 0.12901 0.0
C1311 C 0.9956 0.45443 0.09142 0.0
C1312 C 0.10948 0.50813 0.1897 0.0
C1313 C 0.09714 0.50285 0.17277 0.0
C1314 C 0.06014 0.46224 0.1488 0.0
C1315 C 0.02694 0.47021 0.10508 0.0
C1316 C 0.04129 0.47432 0.12219 0.0
C1317 C 0.08125 0.48773 0.17326 0.0
C1318 C 0.06761 0.48294 0.15557 0.0
H1319 H 0.01572 0.48974 0.06128 0.0
H1320 H 0.04177 0.49232 0.0866 0.0
H1321 H 0.04175 0.44188 0.12734 0.0
H1322 H 0.08767 0.47523 0.2215 0.0
H1323 H 0.066 0.46619 0.192 0.0
C1324 C 0.32742 0.70424 0.25942 0.0
C1325 C 0.31515 0.72062 0.25999 0.0
C1326 C 0.33997 0.70343 0.2758 0.0
C1327 C 0.36507 0.73857 0.31784 0.0
H1328 H 0.37804 0.68679 0.33625 0.0
C1329 C 0.41842 0.739 0.38453 0.0
C1330 C 0.43246 0.72419 0.38183 0.0
C1331 C 0.4027 0.7375 0.37108 0.0
C1332 C 0.37468 0.70137 0.33117 0.0
H1333 H 0.30536 0.74824 0.27834 0.0
H1334 H 0.32715 0.74687 0.30718 0.0
H1335 H 0.35267 0.68588 0.31046 0.0
H1336 H 0.44067 0.69584 0.36312 0.0
H1337 H 0.41334 0.69336 0.33948 0.0
H1338 H 0.38721 0.75406 0.33821 0.0
C1339 C 0.32745 0.73486 0.29394 0.0
C1340 C 0.36012 0.70085 0.31641 0.0
C1341 C 0.31494 0.73565 0.27755 0.0
C1342 C 0.43011 0.70751 0.36566 0.0
C1343 C 0.41437 0.70602 0.35216 0.0
C1344 C 0.37959 0.73909 0.33256 0.0
C1345 C 0.34044 0.71901 0.29308 0.0
C1346 C 0.3552 0.71945 0.3095 0.0
C1347 C 0.40062 0.72118 0.35453 0.0
C1348 C 0.38465 0.7205 0.33936 0.0
H1349 H 0.32791 0.69262 0.2459 0.0
H1350 H 0.34989 0.69111 0.27451 0.0
H1351 H 0.36197 0.75315 0.31258 0.0
H1352 H 0.41969 0.75197 0.3969 0.0
H1353 H 0.3922 0.74923 0.37358 0.0
C1354 C 0.96333 0.41472 0.04799 0.0
C1355 C 0.97686 0.4318 0.04593 0.0
C1356 C 0.96716 0.3945 0.03928 0.0
C1357 C 0.00537 0.36143 0.01517 0.0
H1358 H 0.96214 0.33316 0.98253 0.0
C1359 C 0.01505 0.29228 0.95076 0.0
C1360 C 0.99998 0.27612 0.9476 0.0
C1361 C 0.01272 0.31018 0.96491 0.0
C1362 C 0.97428 0.34059 0.99182 0.0
H1363 H 0.00543 0.44125 0.03444 0.0
H1364 H 0.01236 0.40577 0.01915 0.0
H1365 H 0.9577 0.36594 0.00443 0.0
H1366 H 0.9708 0.26588 0.95726 0.0
H1367 H 0.96685 0.29692 0.9822 0.0
H1368 H 0.02201 0.3361 0.00232 0.0
C1369 C 0.99879 0.40792 0.02757 0.0
C1370 C 0.97173 0.35944 0.00441 0.0
C1371 C 0.99491 0.4282 0.03632 0.0
C1372 C 0.98265 0.27811 0.9592 0.0
C1373 C 0.98035 0.29597 0.97344 0.0
C1374 C 0.00791 0.34248 0.00261 0.0
C1375 C 0.98464 0.39097 0.02831 0.0
C1376 C 0.98726 0.37018 0.01612 0.0
C1377 C 0.99529 0.31234 0.97635 0.0
C1378 C 0.99243 0.33191 0.99062 0.0
H1379 H 0.94938 0.41726 0.0555 0.0
H1380 H 0.95613 0.38172 0.04049 0.0
H1381 H 0.01757 0.36924 0.02413 0.0
H1382 H 0.02859 0.29129 0.94206 0.0
H1383 H 0.02443 0.32257 0.96649 0.0
C1384 C 0.64063 0.77939 0.25591 0.0
C1385 C 0.65592 0.76615 0.25378 0.0
C1386 C 0.62446 0.77508 0.26836 0.0
C1387 C 0.60942 0.74733 0.31228 0.0
H1388 H 0.55706 0.75462 0.29505 0.0
C1389 C 0.54129 0.7249 0.36002 0.0
C1390 C 0.52632 0.73864 0.36188 0.0
C1391 C 0.55684 0.7275 0.34628 0.0
C1392 C 0.5716 0.75272 0.30018 0.0
H1393 H 0.6665 0.73807 0.26262 0.0
H1394 H 0.63808 0.73027 0.28439 0.0
H1395 H 0.58463 0.7603 0.27185 0.0
H1396 H 0.51596 0.7659 0.35076 0.0
H1397 H 0.54324 0.77063 0.32702 0.0
H1398 H 0.59648 0.74002 0.3407 0.0
C1399 C 0.63862 0.74407 0.27659 0.0
C1400 C 0.58739 0.75594 0.28687 0.0
C1401 C 0.65476 0.74838 0.26405 0.0
C1402 C 0.52722 0.755 0.34965 0.0
C1403 C 0.5428 0.75763 0.33594 0.0
C1404 C 0.59365 0.74417 0.32561 0.0
C1405 C 0.62333 0.75745 0.27896 0.0
C1406 C 0.60648 0.75336 0.29281 0.0
C1407 C 0.55782 0.74393 0.33412 0.0
C1408 C 0.57455 0.74691 0.31976 0.0
H1409 H 0.6413 0.79312 0.248 0.0
H1410 H 0.61304 0.7858 0.27003 0.0
H1411 H 0.62398 0.74552 0.31742 0.0
H1412 H 0.54101 0.71208 0.36916 0.0
H1413 H 0.56801 0.71649 0.34506 0.0
C1414 C 0.05114 0.06162 0.03748 0.0
C1415 C 0.03537 0.04649 0.03803 0.0
C1416 C 0.05201 0.07526 0.02253 0.0
C1417 C 0.02849 0.08634 0.97447 0.0
H1418 H 0.04074 0.14422 0.99807 0.0
C1419 C 0.00323 0.15704 0.93901 0.0
C1420 C 0.01649 0.17485 0.93915 0.0
C1421 C 0.00766 0.14022 0.94906 0.0
C1422 C 0.03754 0.12813 0.99111 0.0
H1423 H 0.00909 0.0324 0.02265 0.0
H1424 H 0.01023 0.05638 0.99676 0.0
H1425 H 0.04579 0.11622 0.01828 0.0
H1426 H 0.04494 0.18878 0.94973 0.0
H1427 H 0.05259 0.15952 0.96726 0.0
H1428 H 0.01957 0.09849 0.94753 0.0
C1429 C 0.02208 0.05777 0.00763 0.0
C1430 C 0.04053 0.11202 0.00268 0.0
C1431 C 0.02132 0.04409 0.02249 0.0
C1432 C 0.03434 0.17536 0.94938 0.0
C1433 C 0.03872 0.15861 0.9595 0.0
C1434 C 0.02539 0.1025 0.96293 0.0
C1435 C 0.03704 0.07406 0.00794 0.0
C1436 C 0.03583 0.09091 0.99463 0.0
C1437 C 0.0254 0.1409 0.95956 0.0
C1438 C 0.02967 0.12359 0.97123 0.0
H1439 H 0.06208 0.06375 0.04941 0.0
H1440 H 0.06398 0.08732 0.02296 0.0
H1441 H 0.02495 0.07026 0.96767 0.0
H1442 H 0.98936 0.15613 0.93125 0.0
H1443 H 0.997 0.12689 0.94903 0.0
C1444 C 0.34704 0.28959 0.28752 0.0
C1445 C 0.32826 0.28788 0.27921 0.0
C1446 C 0.3631 0.28453 0.27484 0.0
C1447 C 0.37705 0.25955 0.22219 0.0
H1448 H 0.42221 0.2998 0.23006 0.0
C1449 C 0.44494 0.25273 0.16898 0.0
C1450 C 0.45463 0.27135 0.16372 0.0
C1451 C 0.43022 0.25335 0.18404 0.0
C1452 C 0.40966 0.28851 0.22752 0.0
H1453 H 0.31113 0.27821 0.25181 0.0
H1454 H 0.33896 0.26963 0.22952 0.0
H1455 H 0.39535 0.302 0.25482 0.0
H1456 H 0.4563 0.30528 0.17009 0.0
H1457 H 0.43019 0.30643 0.19593 0.0
H1458 H 0.39088 0.24672 0.19434 0.0
C1459 C 0.34153 0.27469 0.24575 0.0
C1460 C 0.39436 0.28954 0.24196 0.0
C1461 C 0.32556 0.27967 0.25844 0.0
C1462 C 0.44916 0.29064 0.17381 0.0
C1463 C 0.43428 0.29127 0.18877 0.0
C1464 C 0.39228 0.25862 0.20768 0.0
C1465 C 0.36061 0.27767 0.25362 0.0
C1466 C 0.37773 0.27522 0.23936 0.0
C1467 C 0.42464 0.27262 0.19414 0.0
C1468 C 0.40872 0.27321 0.21002 0.0
H1469 H 0.34938 0.29599 0.30351 0.0
H1470 H 0.37752 0.28662 0.28153 0.0
H1471 H 0.36462 0.2481 0.21978 0.0
H1472 H 0.4489 0.23757 0.16167 0.0
H1473 H 0.42341 0.23864 0.18795 0.0
C1474 C 0.5552 0.44522 0.99677 0.0
C1475 C 0.55283 0.4666 0.00235 0.0
C1476 C 0.55652 0.43207 0.01187 0.0
C1477 C 0.53974 0.42883 0.06507 0.0
H1478 H 0.56575 0.37724 0.05707 0.0
C1479 C 0.52868 0.36557 0.12048 0.0
C1480 C 0.52487 0.34491 0.11068 0.0
C1481 C 0.53506 0.38174 0.10904 0.0
C1482 C 0.55838 0.39158 0.0595 0.0
H1483 H 0.55149 0.49149 0.02777 0.0
H1484 H 0.55435 0.46863 0.05446 0.0
H1485 H 0.57358 0.40381 0.0343 0.0
H1486 H 0.52496 0.32502 0.08119 0.0
H1487 H 0.53608 0.35314 0.06134 0.0
H1488 H 0.52432 0.41639 0.09007 0.0
C1489 C 0.55477 0.46187 0.03842 0.0
C1490 C 0.56287 0.40682 0.04647 0.0
C1491 C 0.55342 0.47502 0.02322 0.0
C1492 C 0.52771 0.34076 0.08924 0.0
C1493 C 0.53426 0.35684 0.07787 0.0
C1494 C 0.53537 0.41365 0.07821 0.0
C1495 C 0.55557 0.44007 0.03292 0.0
C1496 C 0.55322 0.42541 0.04873 0.0
C1497 C 0.53798 0.37752 0.08761 0.0
C1498 C 0.54426 0.39462 0.07522 0.0
H1499 H 0.55474 0.43851 0.9807 0.0
H1500 H 0.55695 0.41541 0.00697 0.0
H1501 H 0.53179 0.44277 0.06713 0.0
H1502 H 0.52666 0.3693 0.13697 0.0
H1503 H 0.53787 0.39751 0.11699 0.0
C1504 C 0.67454 0.23685 0.24903 0.0
C1505 C 0.6719 0.22002 0.26057 0.0
C1506 C 0.65965 0.24116 0.23642 0.0
C1507 C 0.61451 0.21794 0.21009 0.0
H1508 H 0.60195 0.27578 0.2131 0.0
C1509 C 0.54388 0.2403 0.17587 0.0
C1510 C 0.54496 0.25825 0.16577 0.0
C1511 C 0.55979 0.23564 0.18686 0.0
C1512 C 0.60543 0.25959 0.21185 0.0
H1513 H 0.65202 0.1943 0.26792 0.0
H1514 H 0.62589 0.20164 0.2457 0.0
H1515 H 0.62924 0.26727 0.2328 0.0
H1516 H 0.56361 0.28542 0.15931 0.0
H1517 H 0.5915 0.27715 0.1783 0.0
H1518 H 0.59073 0.21023 0.18914 0.0
C1519 C 0.63949 0.21144 0.24625 0.0
C1520 C 0.62106 0.25472 0.22315 0.0
C1521 C 0.65437 0.20721 0.25893 0.0
C1522 C 0.56228 0.27152 0.16699 0.0
C1523 C 0.57823 0.26682 0.17795 0.0
C1524 C 0.59893 0.22282 0.19873 0.0
C1525 C 0.64189 0.22863 0.23505 0.0
C1526 C 0.6257 0.23383 0.22248 0.0
C1527 C 0.57719 0.24878 0.18796 0.0
C1528 C 0.59412 0.24369 0.19958 0.0
H1529 H 0.68808 0.24675 0.24997 0.0
H1530 H 0.66204 0.25432 0.22774 0.0
H1531 H 0.61791 0.20173 0.20904 0.0
H1532 H 0.53072 0.22979 0.17532 0.0
H1533 H 0.55836 0.22183 0.19468 0.0
C1534 C 0.46872 0.09262 0.97967 0.0
C1535 C 0.47704 0.07449 0.98357 0.0
C1536 C 0.476 0.1123 0.98927 0.0
C1537 C 0.50423 0.13537 0.03579 0.0
H1538 H 0.4981 0.18748 0.01412 0.0
C1539 C 0.52917 0.21673 0.0795 0.0
C1540 C 0.51435 0.23062 0.08267 0.0
C1541 C 0.52653 0.19828 0.06568 0.0
C1542 C 0.49989 0.17301 0.0203 0.0
H1543 H 0.49973 0.06233 0.99966 0.0
H1544 H 0.51356 0.09675 0.01534 0.0
H1545 H 0.49159 0.1541 0.99199 0.0
H1546 H 0.48539 0.23639 0.07341 0.0
H1547 H 0.48098 0.20426 0.04883 0.0
H1548 H 0.51286 0.15444 0.06398 0.0
C1549 C 0.501 0.09596 0.00548 0.0
C1550 C 0.49608 0.15386 0.00769 0.0
C1551 C 0.49341 0.07626 0.99622 0.0
C1552 C 0.49703 0.22595 0.07134 0.0
C1553 C 0.49455 0.20766 0.05721 0.0
C1554 C 0.50839 0.1545 0.04821 0.0
C1555 C 0.49194 0.11421 0.00279 0.0
C1556 C 0.49788 0.13473 0.01537 0.0
C1557 C 0.50918 0.19356 0.05446 0.0
C1558 C 0.50597 0.17346 0.0407 0.0
H1559 H 0.45582 0.09135 0.97023 0.0
H1560 H 0.46837 0.12581 0.98698 0.0
H1561 H 0.50535 0.12111 0.04254 0.0
H1562 H 0.54265 0.21987 0.08804 0.0
H1563 H 0.53803 0.18764 0.06378 0.0
C1564 C 0.2429 0.2961 0.75065 0.0
C1565 C 0.22818 0.29671 0.73633 0.0
C1566 C 0.25794 0.31209 0.7534 0.0
C1567 C 0.28059 0.35923 0.73176 0.0
H1568 H 0.29351 0.37792 0.78903 0.0
C1569 C 0.31921 0.4408 0.76043 0.0
C1570 C 0.33435 0.4414 0.77467 0.0
C1571 C 0.30754 0.42223 0.75468 0.0
C1572 C 0.29023 0.37276 0.77294 0.0
H1573 H 0.21775 0.31365 0.71305 0.0
H1574 H 0.24378 0.34206 0.71803 0.0
H1575 H 0.27152 0.34666 0.78022 0.0
H1576 H 0.34906 0.42299 0.79407 0.0
H1577 H 0.32851 0.39066 0.78421 0.0
H1578 H 0.2989 0.38593 0.72471 0.0
C1579 C 0.24408 0.3291 0.72692 0.0
C1580 C 0.27769 0.35475 0.76784 0.0
C1581 C 0.22917 0.31292 0.72402 0.0
C1582 C 0.3375 0.42307 0.7831 0.0
C1583 C 0.32571 0.40456 0.7775 0.0
C1584 C 0.29301 0.3774 0.73691 0.0
C1585 C 0.25836 0.3292 0.74208 0.0
C1586 C 0.27263 0.34775 0.74719 0.0
C1587 C 0.31063 0.40393 0.76321 0.0
C1588 C 0.29789 0.38438 0.75757 0.0
H1589 H 0.2423 0.2836 0.76019 0.0
H1590 H 0.26893 0.31135 0.76484 0.0
H1591 H 0.27724 0.35419 0.71568 0.0
H1592 H 0.31644 0.45464 0.7536 0.0
H1593 H 0.29589 0.42226 0.7438 0.0
C1594 C 0.23259 0.68035 0.78638 0.0
C1595 C 0.2163 0.68043 0.7996 0.0
C1596 C 0.24675 0.66625 0.78763 0.0
C1597 C 0.2645 0.62889 0.82044 0.0
H1598 H 0.28287 0.60142 0.7681 0.0
C1599 C 0.30251 0.55128 0.81173 0.0
C1600 C 0.31852 0.54958 0.79807 0.0
C1601 C 0.29142 0.56865 0.81311 0.0
C1602 C 0.27809 0.60912 0.78286 0.0
H1603 H 0.20214 0.66664 0.82485 0.0
H1604 H 0.22669 0.64166 0.82698 0.0
H1605 H 0.26135 0.62957 0.7686 0.0
H1606 H 0.33565 0.56503 0.77543 0.0
H1607 H 0.31627 0.59525 0.77782 0.0
H1608 H 0.28093 0.60792 0.83459 0.0
C1609 C 0.2288 0.65262 0.81583 0.0
C1610 C 0.26579 0.62533 0.78317 0.0
C1611 C 0.21472 0.66684 0.81463 0.0
C1612 C 0.32337 0.56579 0.78606 0.0
C1613 C 0.31222 0.58307 0.78735 0.0
C1614 C 0.27674 0.61256 0.82011 0.0
C1615 C 0.24481 0.65186 0.80206 0.0
C1616 C 0.25875 0.63537 0.80195 0.0
C1617 C 0.29603 0.58462 0.80077 0.0
C1618 C 0.28359 0.60244 0.8013 0.0
H1619 H 0.23412 0.69096 0.77487 0.0
H1620 H 0.25909 0.66642 0.77708 0.0
H1621 H 0.25958 0.63645 0.83519 0.0
H1622 H 0.2984 0.53909 0.82123 0.0
H1623 H 0.27893 0.5693 0.82346 0.0
C1624 C 0.9034 0.52759 0.47603 0.0
C1625 C 0.92276 0.52227 0.47624 0.0
C1626 C 0.88811 0.51368 0.48148 0.0
C1627 C 0.87551 0.45785 0.48569 0.0
H1628 H 0.83387 0.47867 0.5216 0.0
C1629 C 0.8172 0.40191 0.51884 0.0
C1630 C 0.79781 0.40735 0.51923 0.0
C1631 C 0.83251 0.41619 0.51421 0.0
C1632 C 0.84527 0.47263 0.51138 0.0
H1633 H 0.94152 0.49861 0.48243 0.0
H1634 H 0.91481 0.47408 0.49182 0.0
H1635 H 0.86037 0.50307 0.5119 0.0
H1636 H 0.7793 0.43216 0.51529 0.0
H1637 H 0.80599 0.45694 0.50692 0.0
H1638 H 0.86038 0.42746 0.48498 0.0
C1639 C 0.91137 0.48887 0.48725 0.0
C1640 C 0.86045 0.48662 0.50583 0.0
C1641 C 0.92663 0.50283 0.48189 0.0
C1642 C 0.79409 0.42749 0.51519 0.0
C1643 C 0.8094 0.44175 0.51048 0.0
C1644 C 0.86031 0.44388 0.49117 0.0
C1645 C 0.89194 0.49416 0.48714 0.0
C1646 C 0.87575 0.47936 0.49295 0.0
C1647 C 0.82878 0.43621 0.50978 0.0
C1648 C 0.84501 0.4511 0.5041 0.0
H1649 H 0.90016 0.54247 0.47155 0.0
H1650 H 0.87328 0.51809 0.48101 0.0
H1651 H 0.88694 0.45183 0.47549 0.0
H1652 H 0.82058 0.38656 0.522 0.0
H1653 H 0.8473 0.41154 0.51414 0.0
C1654 C 0.75805 0.8232 0.78006 0.0
C1655 C 0.77182 0.8262 0.79588 0.0
C1656 C 0.74475 0.8382 0.77863 0.0
C1657 C 0.72343 0.88412 0.80886 0.0
H1658 H 0.71083 0.89726 0.75482 0.0
C1659 C 0.68699 0.95882 0.79631 0.0
C1660 C 0.672 0.95668 0.78172 0.0
C1661 C 0.69792 0.94195 0.79848 0.0
C1662 C 0.71403 0.89359 0.77 0.0
H1663 H 0.78281 0.84693 0.82251 0.0
H1664 H 0.75992 0.87351 0.81992 0.0
H1665 H 0.73245 0.86972 0.7577 0.0
H1666 H 0.65661 0.93506 0.75807 0.0
H1667 H 0.67589 0.90561 0.76176 0.0
H1668 H 0.70538 0.90846 0.82111 0.0
C1669 C 0.75895 0.85942 0.80884 0.0
C1670 C 0.72639 0.87776 0.77168 0.0
C1671 C 0.77212 0.84433 0.81032 0.0
C1672 C 0.66805 0.93722 0.76946 0.0
C1673 C 0.67915 0.92039 0.77149 0.0
C1674 C 0.71121 0.90007 0.80718 0.0
C1675 C 0.7451 0.85658 0.79295 0.0
C1676 C 0.73136 0.87291 0.79114 0.0
C1677 C 0.69423 0.92261 0.78598 0.0
C1678 C 0.70647 0.90505 0.78774 0.0
H1679 H 0.75758 0.80919 0.76888 0.0
H1680 H 0.73412 0.83531 0.76639 0.0
H1681 H 0.7266 0.88055 0.82408 0.0
H1682 H 0.69038 0.97358 0.80602 0.0
H1683 H 0.70958 0.94419 0.80965 0.0
C1684 C 0.574 0.52794 0.99981 0.0
C1685 C 0.57298 0.50713 0.99023 0.0
C1686 C 0.59201 0.53953 0.00278 0.0
C1687 C 0.64578 0.53655 0.00165 0.0
H1688 H 0.64566 0.59208 0.9852 0.0
C1689 C 0.71699 0.58842 0.98881 0.0
C1690 C 0.71701 0.60992 0.99618 0.0
C1691 C 0.6997 0.57528 0.98863 0.0
C1692 C 0.64595 0.57673 0.99009 0.0
H1693 H 0.58971 0.48156 0.97733 0.0
H1694 H 0.62148 0.50178 0.98248 0.0
H1695 H 0.61527 0.57006 0.98561 0.0
H1696 H 0.69882 0.63445 0.00909 0.0
H1697 H 0.66886 0.61163 0.00891 0.0
H1698 H 0.6766 0.54331 0.00601 0.0
C1699 C 0.6084 0.50918 0.98784 0.0
C1700 C 0.62849 0.56409 0.99038 0.0
C1701 C 0.5903 0.49756 0.98493 0.0
C1702 C 0.69934 0.618 0.00319 0.0
C1703 C 0.68211 0.6049 0.00302 0.0
C1704 C 0.66331 0.54925 0.00139 0.0
C1705 C 0.60939 0.53054 0.99611 0.0
C1706 C 0.62813 0.54389 0.99627 0.0
C1707 C 0.68205 0.58337 0.99578 0.0
C1708 C 0.66358 0.56954 0.99569 0.0
H1709 H 0.56073 0.5355 0.00403 0.0
H1710 H 0.59227 0.55578 0.00965 0.0
H1711 H 0.646 0.52111 0.00634 0.0
H1712 H 0.73035 0.58167 0.9833 0.0
H1713 H 0.70014 0.55883 0.98272 0.0
C1714 C 0.27313 0.68775 0.25523 0.0
C1715 C 0.28559 0.68817 0.23809 0.0
C1716 C 0.26305 0.66892 0.25907 0.0
C1717 C 0.24549 0.61774 0.23028 0.0
H1718 H 0.22884 0.60469 0.28435 0.0
C1719 C 0.19994 0.54097 0.24172 0.0
C1720 C 0.18353 0.54307 0.25477 0.0
C1721 C 0.21385 0.55788 0.24079 0.0
C1722 C 0.23334 0.60821 0.26916 0.0
H1723 H 0.29857 0.66956 0.21235 0.0
H1724 H 0.28173 0.63633 0.21941 0.0
H1725 H 0.25182 0.63516 0.28143 0.0
H1726 H 0.16903 0.56449 0.27734 0.0
H1727 H 0.19341 0.59402 0.27574 0.0
H1728 H 0.22703 0.59081 0.21803 0.0
C1729 C 0.27911 0.65052 0.22958 0.0
C1730 C 0.24648 0.62567 0.26746 0.0
C1731 C 0.28894 0.6694 0.22563 0.0
C1732 C 0.18147 0.56238 0.26708 0.0
C1733 C 0.1955 0.57924 0.26629 0.0
C1734 C 0.23253 0.60023 0.23199 0.0
C1735 C 0.26545 0.65015 0.24587 0.0
C1736 C 0.2526 0.63077 0.24797 0.0
C1737 C 0.21176 0.5772 0.25302 0.0
C1738 C 0.22617 0.59537 0.25142 0.0
H1739 H 0.27027 0.70223 0.26483 0.0
H1740 H 0.25257 0.66934 0.27165 0.0
H1741 H 0.24943 0.6214 0.21499 0.0
H1742 H 0.20199 0.5263 0.23207 0.0
H1743 H 0.22631 0.5558 0.23054 0.0
C1744 C 0.92187 0.49074 0.04584 0.0
C1745 C 0.94201 0.49575 0.04402 0.0
C1746 C 0.90859 0.50429 0.04041 0.0
C1747 C 0.90411 0.55932 0.03322 0.0
H1748 H 0.85832 0.53633 0.00173 0.0
C1749 C 0.85103 0.6124 0.00209 0.0
C1750 C 0.83099 0.60634 0.00345 0.0
C1751 C 0.86491 0.59887 0.00623 0.0
C1752 C 0.87091 0.543 0.01072 0.0
H1753 H 0.9642 0.51861 0.03508 0.0
H1754 H 0.94102 0.54257 0.02571 0.0
H1755 H 0.88182 0.5129 0.01087 0.0
H1756 H 0.80981 0.58124 0.01013 0.0
H1757 H 0.83394 0.55787 0.01765 0.0
H1758 H 0.8931 0.5894 0.03333 0.0
C1759 C 0.93545 0.52825 0.03148 0.0
C1760 C 0.88439 0.52956 0.01594 0.0
C1761 C 0.94871 0.51461 0.03681 0.0
C1762 C 0.82514 0.58639 0.00885 0.0
C1763 C 0.839 0.57291 0.01305 0.0
C1764 C 0.89058 0.57277 0.02808 0.0
C1765 C 0.91524 0.5232 0.03314 0.0
C1766 C 0.9011 0.53755 0.02731 0.0
C1767 C 0.85906 0.579 0.01188 0.0
C1768 C 0.87376 0.56477 0.01684 0.0
H1769 H 0.91645 0.47637 0.0516 0.0
H1770 H 0.89312 0.5001 0.04215 0.0
H1771 H 0.91672 0.56594 0.04221 0.0
H1772 H 0.85604 0.62763 0.99789 0.0
H1773 H 0.88024 0.60395 0.00489 0.0
C1774 C 0.08027 0.02544 0.06747 0.0
C1775 C 0.06315 0.01954 0.05617 0.0
C1776 C 0.09747 0.01604 0.06165 0.0
C1777 C 0.11249 0.96594 0.03669 0.0
H1778 H 0.16468 0.99366 0.04254 0.0
C1779 C 0.18109 0.91944 0.02481 0.0
C1780 C 0.19657 0.9257 0.03856 0.0
C1781 C 0.16537 0.93182 0.0244 0.0
C1782 C 0.1502 0.98565 0.04101 0.0
H1783 H 0.05054 1.00032 0.02943 0.0
H1784 H 0.08076 0.98372 0.019 0.0
H1785 H 0.13652 0.01461 0.04522 0.0
H1786 H 0.2076 0.94987 0.06274 0.0
H1787 H 0.17998 0.97115 0.0624 0.0
H1788 H 0.12599 0.93699 0.03325 0.0
C1789 C 0.08089 0.99553 0.03243 0.0
C1790 C 0.13409 0.99768 0.04243 0.0
C1791 C 0.06371 0.00511 0.0382 0.0
C1792 C 0.19594 0.94461 0.05191 0.0
C1793 C 0.18017 0.95692 0.05159 0.0
C1794 C 0.12858 0.95392 0.0354 0.0
C1795 C 0.0978 1.00043 0.04448 0.0
C1796 C 0.11504 0.98795 0.04056 0.0
C1797 C 0.16467 0.9507 0.03781 0.0
C1798 C 0.14764 0.96359 0.03785 0.0
H1799 H 0.07998 0.03652 0.08142 0.0
H1800 H 0.11017 0.02007 0.07135 0.0
H1801 H 0.098 0.95795 0.03554 0.0
H1802 H 0.18117 0.90505 0.0142 0.0
H1803 H 0.15384 0.92666 0.0134 0.0
loop_
_geom_bond_atom_site_label_1
_geom_bond_atom_site_label_2
_geom_bond_distance
_geom_bond_site_symmetry_2
_ccdc_geom_bond_type
C0 N1 1.317 . S
C0 N2 1.348 . S
C0 C3 1.485 1_545 S
N1 C0 1.317 . S
N1 N5 1.370 . S
N2 C0 1.348 . S
N2 C4 1.346 . S
C3 C0 1.485 1_565 S
C3 H7 0.960 . S
C3 H8 0.961 . S
C3 H9 0.960 . S
C4 N2 1.346 . S
C4 N5 1.307 . S
C4 C6 1.486 1_455 S
N5 N1 1.370 . S
N5 C4 1.307 . S
C6 C4 1.486 1_655 S
C6 H10 0.960 . S
C6 H11 0.960 . S
C6 H12 0.959 . S
H7 C3 0.960 . S
H8 C3 0.961 . S
H9 C3 0.960 . S
H10 C6 0.960 . S
H11 C6 0.960 . S
H12 C6 0.959 . S
C13 N14 1.317 . S
C13 N15 1.348 . S
C13 C16 1.485 . S
N14 C13 1.317 . S
N14 N18 1.370 . S
N15 C13 1.348 . S
N15 C17 1.346 . S
C16 C13 1.485 . S
C16 H20 0.960 . S
C16 H21 0.961 . S
C16 H22 0.960 . S
C17 N15 1.346 . S
C17 N18 1.307 . S
C17 C19 1.486 . S
N18 N14 1.370 . S
N18 C17 1.307 . S
C19 C17 1.486 . S
C19 H23 0.960 . S
C19 H24 0.960 . S
C19 H25 0.959 . S
H20 C16 0.960 . S
H21 C16 0.961 . S
H22 C16 0.960 . S
H23 C19 0.960 . S
H24 C19 0.960 . S
H25 C19 0.959 . S
C26 N27 1.317 . S
C26 N28 1.348 . S
C26 C29 1.485 . S
N27 C26 1.317 . S
N27 N31 1.370 . S
N28 C26 1.348 . S
N28 C30 1.346 . S
C29 C26 1.485 . S
C29 H33 0.960 . S
C29 H34 0.961 . S
C29 H35 0.960 . S
C30 N28 1.346 . S
C30 N31 1.307 . S
C30 C32 1.486 . S
N31 N27 1.370 . S
N31 C30 1.307 . S
C32 C30 1.486 . S
C32 H36 0.960 . S
C32 H37 0.960 . S
C32 H38 0.959 . S
H33 C29 0.960 . S
H34 C29 0.961 . S
H35 C29 0.960 . S
H36 C32 0.960 . S
H37 C32 0.960 . S
H38 C32 0.959 . S
C39 N40 1.317 . S
C39 N41 1.348 . S
C39 C42 1.485 . S
N40 C39 1.317 . S
N40 N44 1.370 . S
N41 C39 1.348 . S
N41 C43 1.346 . S
C42 C39 1.485 . S
C42 H46 0.960 . S
C42 H47 0.961 . S
C42 H48 0.960 . S
C43 N41 1.346 . S
C43 N44 1.307 . S
C43 C45 1.486 . S
N44 N40 1.370 . S
N44 C43 1.307 . S
C45 C43 1.486 . S
C45 H49 0.960 . S
C45 H50 0.960 . S
C45 H51 0.959 . S
H46 C42 0.960 . S
H47 C42 0.961 . S
H48 C42 0.960 . S
H49 C45 0.960 . S
H50 C45 0.960 . S
H51 C45 0.959 . S
C52 N53 1.317 . S
C52 N54 1.348 . S
C52 C55 1.485 . S
N53 C52 1.317 . S
N53 N57 1.370 . S
N54 C52 1.348 . S
N54 C56 1.346 . S
C55 C52 1.485 . S
C55 H59 0.960 . S
C55 H60 0.961 1_455 S
C55 H61 0.960 . S
C56 N54 1.346 . S
C56 N57 1.307 . S
C56 C58 1.486 1_565 S
N57 N53 1.370 . S
N57 C56 1.307 . S
C58 C56 1.486 1_545 S
C58 H62 0.960 . S
C58 H63 0.960 . S
C58 H64 0.959 . S
H59 C55 0.960 . S
H60 C55 0.961 1_655 S
H61 C55 0.960 . S
H62 C58 0.960 . S
H63 C58 0.960 . S
H64 C58 0.959 . S
C65 N66 1.317 . S
C65 N67 1.348 . S
C65 C68 1.485 . S
N66 C65 1.317 . S
N66 N70 1.370 . S
N67 C65 1.348 . S
N67 C69 1.346 . S
C68 C65 1.485 . S
C68 H72 0.960 . S
C68 H73 0.961 . S
C68 H74 0.960 . S
C69 N67 1.346 . S
C69 N70 1.307 . S
C69 C71 1.486 . S
N70 N66 1.370 . S
N70 C69 1.307 . S
C71 C69 1.486 . S
C71 H75 0.960 . S
C71 H76 0.960 . S
C71 H77 0.959 . S
H72 C68 0.960 . S
H73 C68 0.961 . S
H74 C68 0.960 . S
H75 C71 0.960 . S
H76 C71 0.960 . S
H77 C71 0.959 . S
C78 N79 1.317 . S
C78 N80 1.348 . S
C78 C81 1.485 . S
N79 C78 1.317 . S
N79 N83 1.370 . S
N80 C78 1.348 . S
N80 C82 1.346 . S
C81 C78 1.485 . S
C81 H85 0.960 . S
C81 H86 0.961 . S
C81 H87 0.960 . S
C82 N80 1.346 . S
C82 N83 1.307 . S
C82 C84 1.486 . S
N83 N79 1.370 . S
N83 C82 1.307 . S
C84 C82 1.486 . S
C84 H88 0.960 . S
C84 H89 0.960 . S
C84 H90 0.959 . S
H85 C81 0.960 . S
H86 C81 0.961 . S
H87 C81 0.960 . S
H88 C84 0.960 . S
H89 C84 0.960 . S
H90 C84 0.959 . S
C91 N92 1.317 . S
C91 N93 1.348 . S
C91 C94 1.485 . S
N92 C91 1.317 . S
N92 N96 1.370 . S
N93 C91 1.348 . S
N93 C95 1.346 . S
C94 C91 1.485 . S
C94 H98 0.960 . S
C94 H99 0.961 . S
C94 H100 0.960 . S
C95 N93 1.346 . S
C95 N96 1.307 . S
C95 C97 1.486 . S
N96 N92 1.370 . S
N96 C95 1.307 . S
C97 C95 1.486 . S
C97 H101 0.960 . S
C97 H102 0.960 . S
C97 H103 0.959 . S
H98 C94 0.960 . S
H99 C94 0.961 . S
H100 C94 0.960 . S
H101 C97 0.960 . S
H102 C97 0.960 . S
H103 C97 0.959 . S
C104 N105 1.317 . S
C104 N106 1.348 . S
C104 C107 1.485 . S
N105 C104 1.317 . S
N105 N109 1.370 . S
N106 C104 1.348 . S
N106 C108 1.346 . S
C107 C104 1.485 . S
C107 H111 0.960 . S
C107 H112 0.961 . S
C107 H113 0.960 . S
C108 N106 1.346 . S
C108 N109 1.307 . S
C108 C110 1.486 . S
N109 N105 1.370 . S
N109 C108 1.307 . S
C110 C108 1.486 . S
C110 H114 0.960 . S
C110 H115 0.960 . S
C110 H116 0.959 . S
H111 C107 0.960 . S
H112 C107 0.961 . S
H113 C107 0.960 . S
H114 C110 0.960 . S
H115 C110 0.960 . S
H116 C110 0.959 . S
C117 N118 1.317 . S
C117 N119 1.348 . S
C117 C120 1.514 . S
N118 C117 1.317 . S
N118 N122 1.370 . S
N119 C117 1.348 . S
N119 C121 1.346 . S
C120 C117 1.514 . S
C120 H124 0.968 . S
C120 H125 0.923 1_565 S
C120 H126 0.964 1_565 S
C121 N119 1.346 . S
C121 N122 1.307 . S
C121 C123 1.486 . S
N122 N118 1.370 . S
N122 C121 1.307 . S
C123 C121 1.486 . S
C123 H127 0.960 . S
C123 H128 0.960 . S
C123 H129 0.959 . S
H124 C120 0.968 . S
H125 C120 0.923 1_545 S
H126 C120 0.964 1_545 S
H127 C123 0.960 . S
H128 C123 0.960 . S
H129 C123 0.959 . S
C130 N131 1.317 . S
C130 N132 1.348 . S
C130 C133 1.485 . S
N131 C130 1.317 . S
N131 N135 1.370 . S
N132 C130 1.348 . S
N132 C134 1.346 . S
C133 C130 1.485 . S
C133 H137 0.960 . S
C133 H138 0.961 . S
C133 H139 0.960 . S
C134 N132 1.346 . S
C134 N135 1.307 . S
C134 C136 1.486 . S
N135 N131 1.370 . S
N135 C134 1.307 . S
C136 C134 1.486 . S
C136 H140 0.960 . S
C136 H141 0.960 . S
C136 H142 0.959 . S
H137 C133 0.960 . S
H138 C133 0.961 . S
H139 C133 0.960 . S
H140 C136 0.960 . S
H141 C136 0.960 . S
H142 C136 0.959 . S
C143 N144 1.317 . S
C143 N145 1.348 . S
C143 C146 1.485 . S
N144 C143 1.317 . S
N144 N148 1.370 . S
N145 C143 1.348 . S
N145 C147 1.346 . S
C146 C143 1.485 . S
C146 H150 0.960 . S
C146 H151 0.961 . S
C146 H152 0.960 . S
C147 N145 1.346 . S
C147 N148 1.307 . S
C147 C149 1.486 . S
N148 N144 1.370 . S
N148 C147 1.307 . S
C149 C147 1.486 . S
C149 H153 0.960 . S
C149 H154 0.960 . S
C149 H155 0.959 . S
H150 C146 0.960 . S
H151 C146 0.961 . S
H152 C146 0.960 . S
H153 C149 0.960 . S
H154 C149 0.960 . S
H155 C149 0.959 . S
C156 N157 1.317 . S
C156 N158 1.348 . S
C156 C159 1.485 . S
N157 C156 1.317 . S
N157 N161 1.370 . S
N158 C156 1.348 . S
N158 C160 1.346 . S
C159 C156 1.485 . S
C159 H163 0.960 . S
C159 H164 0.961 . S
C159 H165 0.960 . S
C160 N158 1.346 . S
C160 N161 1.307 . S
C160 C162 1.486 . S
N161 N157 1.370 . S
N161 C160 1.307 . S
C162 C160 1.486 . S
C162 H166 0.960 . S
C162 H167 0.960 . S
C162 H168 0.959 . S
H163 C159 0.960 . S
H164 C159 0.961 . S
H165 C159 0.960 . S
H166 C162 0.960 . S
H167 C162 0.960 . S
H168 C162 0.959 . S
C169 N170 1.317 . S
C169 N171 1.348 . S
C169 C172 1.485 . S
N170 C169 1.317 . S
N170 N174 1.370 . S
N171 C169 1.348 . S
N171 C173 1.346 . S
C172 C169 1.485 . S
C172 H176 0.960 . S
C172 H177 0.961 . S
C172 H178 0.960 . S
C173 N171 1.346 . S
C173 N174 1.307 . S
C173 C175 1.486 . S
N174 N170 1.370 . S
N174 C173 1.307 . S
C175 C173 1.486 . S
C175 H179 0.960 . S
C175 H180 0.960 . S
C175 H181 0.959 . S
H176 C172 0.960 . S
H177 C172 0.961 . S
H178 C172 0.960 . S
H179 C175 0.960 . S
H180 C175 0.960 . S
H181 C175 0.959 . S
C182 N183 1.317 . S
C182 N184 1.348 . S
C182 C185 1.485 . S
N183 C182 1.317 . S
N183 N187 1.370 . S
N184 C182 1.348 . S
N184 C186 1.346 . S
C185 C182 1.485 . S
C185 H189 0.960 . S
C185 H190 0.961 . S
C185 H191 0.960 . S
C186 N184 1.346 . S
C186 N187 1.307 . S
C186 C188 1.486 . S
N187 N183 1.370 . S
N187 C186 1.307 . S
C188 C186 1.486 . S
C188 H192 0.960 . S
C188 H193 0.960 . S
C188 H194 0.959 . S
H189 C185 0.960 . S
H190 C185 0.961 . S
H191 C185 0.960 . S
H192 C188 0.960 . S
H193 C188 0.960 . S
H194 C188 0.959 . S
C195 N196 1.317 . S
C195 N197 1.348 . S
C195 C198 1.485 . S
N196 C195 1.317 . S
N196 N200 1.370 . S
N197 C195 1.348 . S
N197 C199 1.346 . S
C198 C195 1.485 . S
C198 H202 0.960 . S
C198 H203 0.961 1_545 S
C198 H204 0.960 . S
C199 N197 1.346 . S
C199 N200 1.307 . S
C199 C201 1.486 1_556 S
N200 N196 1.370 . S
N200 C199 1.307 . S
C201 C199 1.486 1_554 S
C201 H205 0.960 . S
C201 H206 0.971 . S
C201 H207 0.959 . S
H202 C198 0.960 . S
H203 C198 0.961 1_565 S
H204 C198 0.960 . S
H205 C201 0.960 . S
H206 C201 0.971 . S
H207 C201 0.959 . S
C208 O209 1.160 . S
C208 O215 1.185 . S
O209 C208 1.160 . S
O210 Zn211 1.899 1_556 S
O210 C218 1.284 . S
Zn211 O210 1.899 1_554 S
Zn211 O212 2.032 . S
Zn211 O215 2.086 . S
Zn211 O220 1.977 . S
O212 Zn211 2.032 . S
O212 C216 1.278 . S
C213 O214 1.203 . S
C213 O220 1.267 . S
O214 C213 1.203 . S
O215 C208 1.185 . S
O215 Zn211 2.086 . S
C216 O212 1.278 . S
C216 O217 1.211 . S
O217 C216 1.211 . S
C218 O210 1.284 . S
C218 O219 1.273 . S
O219 C218 1.273 . S
O220 Zn211 1.977 . S
O220 C213 1.267 . S
C221 O222 1.160 . S
C221 O228 1.185 . S
O222 C221 1.160 . S
O223 Zn224 1.899 . S
O223 C231 1.284 . S
Zn224 O223 1.899 . S
Zn224 O225 2.032 . S
Zn224 O228 2.086 . S
Zn224 O233 1.977 . S
O225 Zn224 2.032 . S
O225 C229 1.278 . S
C226 O227 1.203 . S
C226 O233 1.267 . S
O227 C226 1.203 . S
O228 C221 1.185 . S
O228 Zn224 2.086 . S
C229 O225 1.278 . S
C229 O230 1.211 . S
O230 C229 1.211 . S
C231 O223 1.284 . S
C231 O232 1.273 . S
O232 C231 1.273 . S
O233 Zn224 1.977 . S
O233 C226 1.267 . S
C234 O235 1.160 1_554 S
C234 O241 1.185 . S
O235 C234 1.160 1_556 S
O236 Zn237 1.899 1_556 S
O236 C244 1.284 . S
Zn237 O236 1.899 1_554 S
Zn237 O238 2.032 1_554 S
Zn237 O241 2.086 . S
Zn237 O246 1.977 . S
O238 Zn237 2.032 1_556 S
O238 C242 1.278 . S
C239 O240 1.203 . S
C239 O246 1.267 . S
O240 C239 1.203 . S
O241 C234 1.185 . S
O241 Zn237 2.086 . S
C242 O238 1.278 . S
C242 O243 1.211 1_556 S
O243 C242 1.211 1_554 S
C244 O236 1.284 . S
C244 O245 1.273 . S
O245 C244 1.273 . S
O246 Zn237 1.977 . S
O246 C239 1.267 . S
C247 O248 1.160 . S
C247 O254 1.185 . S
O248 C247 1.160 . S
O249 Zn250 1.899 . S
O249 C257 1.284 . S
Zn250 O249 1.899 . S
Zn250 O251 2.032 1_545 S
Zn250 O254 2.086 . S
Zn250 O259 1.977 . S
O251 Zn250 2.032 1_565 S
O251 C255 1.278 . S
C252 O253 1.203 1_545 S
C252 O259 1.267 . S
O253 C252 1.203 1_565 S
O254 C247 1.185 . S
O254 Zn250 2.086 . S
C255 O251 1.278 . S
C255 O256 1.211 . S
O256 C255 1.211 . S
C257 O249 1.284 . S
C257 O258 1.273 1_545 S
O258 C257 1.273 1_565 S
O259 Zn250 1.977 . S
O259 C252 1.267 . S
C260 O261 1.160 . S
C260 O267 1.185 . S
O261 C260 1.160 . S
O262 Zn263 1.899 . S
O262 C270 1.284 . S
Zn263 O262 1.899 . S
Zn263 O264 2.032 . S
Zn263 O267 2.086 . S
Zn263 O272 1.977 . S
O264 Zn263 2.032 . S
O264 C268 1.278 . S
C265 O266 1.203 . S
C265 O272 1.267 . S
O266 C265 1.203 . S
O267 C260 1.185 . S
O267 Zn263 2.086 . S
C268 O264 1.278 . S
C268 O269 1.211 . S
O269 C268 1.211 . S
C270 O262 1.284 . S
C270 O271 1.273 . S
O271 C270 1.273 . S
O272 Zn263 1.977 . S
O272 C265 1.267 . S
C273 O274 1.160 . S
C273 O280 1.185 . S
O274 C273 1.160 . S
O275 Zn276 1.899 . S
O275 C283 1.284 . S
Zn276 O275 1.899 . S
Zn276 O277 2.032 . S
Zn276 O280 2.086 . S
Zn276 O285 1.977 . S
O277 Zn276 2.032 . S
O277 C281 1.278 . S
C278 O279 1.203 . S
C278 O285 1.267 . S
O279 C278 1.203 . S
O280 C273 1.185 . S
O280 Zn276 2.086 . S
C281 O277 1.278 . S
C281 O282 1.211 . S
O282 C281 1.211 . S
C283 O275 1.284 . S
C283 O284 1.273 . S
O284 C283 1.273 . S
O285 Zn276 1.977 . S
O285 C278 1.267 . S
C286 O287 1.160 . S
C286 O293 1.185 . S
O287 C286 1.160 . S
O288 Zn289 1.899 . S
O288 C296 1.284 . S
Zn289 O288 1.899 . S
Zn289 O290 2.032 . S
Zn289 O293 2.086 . S
Zn289 O298 1.977 . S
O290 Zn289 2.032 . S
O290 C294 1.278 . S
C291 O292 1.203 . S
C291 O298 1.267 . S
O292 C291 1.203 . S
O293 C286 1.185 . S
O293 Zn289 2.086 . S
C294 O290 1.278 . S
C294 O295 1.211 . S
O295 C294 1.211 . S
C296 O288 1.284 . S
C296 O297 1.273 . S
O297 C296 1.273 . S
O298 Zn289 1.977 . S
O298 C291 1.267 . S
C299 O300 1.160 . S
C299 O306 1.185 . S
O300 C299 1.160 . S
O301 Zn302 1.905 . S
O301 C309 1.284 1_565 S
Zn302 O301 1.905 . S
Zn302 O303 1.998 1_565 S
Zn302 O306 2.128 . S
Zn302 O311 1.982 . S
O303 Zn302 1.998 1_545 S
O303 C307 1.278 . S
C304 O305 1.179 1_565 S
C304 O311 1.287 . S
O305 C304 1.179 1_545 S
O306 C299 1.185 . S
O306 Zn302 2.128 . S
C307 O303 1.278 . S
C307 O308 1.211 . S
O308 C307 1.211 . S
C309 O301 1.284 1_545 S
C309 O310 1.273 . S
O310 C309 1.273 . S
O311 Zn302 1.982 . S
O311 C304 1.287 . S
C312 O313 1.153 . S
C312 O319 1.190 1_655 S
O313 C312 1.153 . S
O314 Zn315 1.899 1_655 S
O314 C322 1.284 . S
Zn315 O314 1.899 1_455 S
Zn315 O316 2.032 1_455 S
Zn315 O319 2.086 . S
Zn315 O324 1.977 . S
O316 Zn315 2.032 1_655 S
O316 C320 1.278 1_655 S
C317 O318 1.203 . S
C317 O324 1.267 . S
O318 C317 1.203 . S
O319 C312 1.190 1_455 S
O319 Zn315 2.086 . S
C320 O316 1.278 1_455 S
C320 O321 1.211 . S
O321 C320 1.211 . S
C322 O314 1.284 . S
C322 O323 1.273 . S
O323 C322 1.273 . S
O324 Zn315 1.977 . S
O324 C317 1.267 . S
C325 O326 1.160 . S
C325 O332 1.185 . S
O326 C325 1.160 . S
O327 Zn328 1.899 . S
O327 C335 1.284 . S
Zn328 O327 1.899 . S
Zn328 O329 2.032 . S
Zn328 O332 2.086 . S
Zn328 O337 1.977 . S
O329 Zn328 2.032 . S
O329 C333 1.278 . S
C330 O331 1.203 . S
C330 O337 1.267 . S
O331 C330 1.203 . S
O332 C325 1.185 . S
O332 Zn328 2.086 . S
C333 O329 1.278 . S
C333 O334 1.211 . S
O334 C333 1.211 . S
C335 O327 1.284 . S
C335 O336 1.273 . S
O336 C335 1.273 . S
O337 Zn328 1.977 . S
O337 C330 1.267 . S
C338 O339 1.160 . S
C338 O345 1.185 . S
O339 C338 1.160 . S
O340 Zn341 1.899 . S
O340 C348 1.284 1_455 S
Zn341 O340 1.899 . S
Zn341 O342 2.032 . S
Zn341 O345 2.086 . S
Zn341 O350 1.977 . S
O342 Zn341 2.032 . S
O342 C346 1.278 . S
C343 O344 1.203 . S
C343 O350 1.267 . S
O344 C343 1.203 . S
O345 C338 1.185 . S
O345 Zn341 2.086 . S
C346 O342 1.278 . S
C346 O347 1.211 . S
O347 C346 1.211 . S
C348 O340 1.284 1_655 S
C348 O349 1.273 . S
O349 C348 1.273 . S
O350 Zn341 1.977 . S
O350 C343 1.267 . S
C351 O352 1.160 . S
C351 O358 1.185 . S
O352 C351 1.160 . S
O353 Zn354 1.899 . S
O353 C361 1.284 . S
Zn354 O353 1.899 . S
Zn354 O355 2.032 . S
Zn354 O358 2.086 . S
Zn354 O363 1.977 . S
O355 Zn354 2.032 . S
O355 C359 1.278 . S
C356 O357 1.203 . S
C356 O363 1.267 . S
O357 C356 1.203 . S
O358 C351 1.185 . S
O358 Zn354 2.086 . S
C359 O355 1.278 . S
C359 O360 1.211 . S
O360 C359 1.211 . S
C361 O353 1.284 . S
C361 O362 1.273 . S
O362 C361 1.273 . S
O363 Zn354 1.977 . S
O363 C356 1.267 . S
C364 C365 1.349 . S
C364 C366 1.327 . S
C364 H389 0.950 . S
C365 C364 1.349 . S
C365 C381 1.349 . S
C366 C364 1.327 . S
C366 C385 1.429 . S
C366 H390 0.950 . S
C367 C384 1.574 . S
C367 C386 1.368 . S
C367 H391 0.949 . S
H368 C372 0.949 . S
C369 C370 1.349 . S
C369 C371 1.327 . S
C369 H392 0.950 . S
C370 C369 1.349 . S
C370 C382 1.349 . S
C371 C369 1.327 . S
C371 C387 1.429 . S
C371 H393 0.950 . S
C372 H368 0.949 . S
C372 C380 1.574 . S
C372 C388 1.368 . S
H373 C381 0.950 . S
H374 C379 0.950 . S
H375 C380 0.949 . S
H376 C382 0.950 . S
H377 C383 0.950 . S
H378 C384 0.949 . S
C379 H374 0.950 . S
C379 C381 1.327 . S
C379 C385 1.429 . S
C380 C372 1.574 . S
C380 H375 0.949 . S
C380 C386 1.368 . S
C381 C365 1.349 . S
C381 H373 0.950 . S
C381 C379 1.327 . S
C382 C370 1.349 . S
C382 H376 0.950 . S
C382 C383 1.327 . S
C383 H377 0.950 . S
C383 C382 1.327 . S
C383 C387 1.429 . S
C384 C367 1.574 . S
C384 H378 0.949 . S
C384 C388 1.368 . S
C385 C366 1.429 . S
C385 C379 1.429 . S
C385 C386 1.523 . S
C386 C367 1.368 . S
C386 C380 1.368 . S
C386 C385 1.523 . S
C387 C371 1.429 . S
C387 C383 1.429 . S
C387 C388 1.523 . S
C388 C372 1.368 . S
C388 C384 1.368 . S
C388 C387 1.523 . S
H389 C364 0.950 . S
H390 C366 0.950 . S
H391 C367 0.949 . S
H392 C369 0.950 . S
H393 C371 0.950 . S
C394 C395 1.349 . S
C394 C396 1.327 1_655 S
C394 H419 0.950 . S
C395 C394 1.349 . S
C395 C411 1.349 . S
C396 C394 1.327 1_455 S
C396 C415 1.429 . S
C396 H420 0.950 . S
C397 C414 1.574 . S
C397 C416 1.368 . S
C397 H421 0.949 . S
H398 C402 0.949 . S
C399 C400 1.349 . S
C399 C401 1.327 . S
C399 H422 0.950 . S
C400 C399 1.349 . S
C400 C412 1.349 . S
C401 C399 1.327 . S
C401 C417 1.429 . S
C401 H423 0.950 . S
C402 H398 0.949 . S
C402 C410 1.574 . S
C402 C418 1.368 . S
H403 C411 0.950 . S
H404 C409 0.948 1_455 S
H405 C410 0.949 . S
H406 C412 0.950 . S
H407 C413 0.950 . S
H408 C414 0.949 . S
C409 H404 0.948 1_655 S
C409 C411 1.327 . S
C409 C415 1.429 1_655 S
C410 C402 1.574 . S
C410 H405 0.949 . S
C410 C416 1.368 . S
C411 C395 1.349 . S
C411 H403 0.950 . S
C411 C409 1.327 . S
C412 C400 1.349 . S
C412 H406 0.950 . S
C412 C413 1.327 . S
C413 H407 0.950 . S
C413 C412 1.327 . S
C413 C417 1.429 . S
C414 C397 1.574 . S
C414 H408 0.949 . S
C414 C418 1.368 . S
C415 C396 1.429 . S
C415 C409 1.429 1_455 S
C415 C416 1.523 . S
C416 C397 1.368 . S
C416 C410 1.368 . S
C416 C415 1.523 . S
C417 C401 1.429 . S
C417 C413 1.429 . S
C417 C418 1.523 . S
C418 C402 1.368 . S
C418 C414 1.368 . S
C418 C417 1.523 . S
H419 C394 0.950 . S
H420 C396 0.950 . S
H421 C397 0.949 . S
H422 C399 0.950 . S
H423 C401 0.950 . S
C424 C425 1.349 . S
C424 C426 1.327 . S
C424 H449 0.950 . S
C425 C424 1.349 . S
C425 C441 1.349 . S
C426 C424 1.327 . S
C426 C445 1.429 . S
C426 H450 0.950 . S
C427 C444 1.574 . S
C427 C446 1.368 . S
C427 H451 0.949 . S
H428 C432 0.949 . S
C429 C430 1.349 . S
C429 C431 1.327 . S
C429 H452 0.950 . S
C430 C429 1.349 . S
C430 C442 1.349 . S
C431 C429 1.327 . S
C431 C447 1.429 . S
C431 H453 0.950 . S
C432 H428 0.949 . S
C432 C440 1.574 . S
C432 C448 1.368 . S
H433 C441 0.950 . S
H434 C439 0.950 . S
H435 C440 0.949 . S
H436 C442 0.950 . S
H437 C443 0.950 . S
H438 C444 0.949 . S
C439 H434 0.950 . S
C439 C441 1.327 . S
C439 C445 1.429 . S
C440 C432 1.574 . S
C440 H435 0.949 . S
C440 C446 1.368 . S
C441 C425 1.349 . S
C441 H433 0.950 . S
C441 C439 1.327 . S
C442 C430 1.349 . S
C442 H436 0.950 . S
C442 C443 1.327 . S
C443 H437 0.950 . S
C443 C442 1.327 . S
C443 C447 1.429 . S
C444 C427 1.574 . S
C444 H438 0.949 . S
C444 C448 1.368 . S
C445 C426 1.429 . S
C445 C439 1.429 . S
C445 C446 1.523 . S
C446 C427 1.368 . S
C446 C440 1.368 . S
C446 C445 1.523 . S
C447 C431 1.429 . S
C447 C443 1.429 . S
C447 C448 1.523 . S
C448 C432 1.368 . S
C448 C444 1.368 . S
C448 C447 1.523 . S
H449 C424 0.950 . S
H450 C426 0.950 . S
H451 C427 0.949 . S
H452 C429 0.950 . S
H453 C431 0.950 . S
C454 C455 1.349 . S
C454 C456 1.327 1_455 S
C454 H479 0.950 . S
C455 C454 1.349 . S
C455 C471 1.349 1_565 S
C456 C454 1.327 1_655 S
C456 C475 1.429 . S
C456 H480 0.950 . S
C457 C474 1.574 . S
C457 C476 1.368 1_545 S
C457 H481 0.949 . S
H458 C462 0.949 . S
C459 C460 1.349 . S
C459 C461 1.327 . S
C459 H482 0.950 . S
C460 C459 1.349 . S
C460 C472 1.349 1_545 S
C461 C459 1.327 . S
C461 C477 1.462 . S
C461 H483 0.950 . S
C462 H458 0.949 . S
C462 C470 1.574 . S
C462 C478 1.368 . S
H463 C471 0.950 . S
H464 C469 0.950 . S
H465 C470 0.949 . S
H466 C472 0.950 . S
H467 C473 0.950 . S
H468 C474 0.949 . S
C469 H464 0.950 . S
C469 C471 1.327 1_655 S
C469 C475 1.429 1_545 S
C470 C462 1.574 . S
C470 H465 0.949 . S
C470 C476 1.368 . S
C471 C455 1.349 1_545 S
C471 H463 0.950 . S
C471 C469 1.327 1_455 S
C472 C460 1.349 1_565 S
C472 H466 0.950 . S
C472 C473 1.327 . S
C473 H467 0.950 . S
C473 C472 1.327 . S
C473 C477 1.406 1_565 S
C474 C457 1.574 . S
C474 H468 0.949 . S
C474 C478 1.368 1_545 S
C475 C456 1.429 . S
C475 C469 1.429 1_565 S
C475 C476 1.523 . S
C476 C457 1.368 1_565 S
C476 C470 1.368 . S
C476 C475 1.523 . S
C477 C461 1.462 . S
C477 C473 1.406 1_545 S
C477 C478 1.514 1_545 S
C478 C462 1.368 . S
C478 C474 1.368 1_565 S
C478 C477 1.514 1_565 S
H479 C454 0.950 . S
H480 C456 0.950 . S
H481 C457 0.949 . S
H482 C459 0.950 . S
H483 C461 0.950 . S
C484 C485 1.349 . S
C484 C486 1.327 . S
C484 H509 0.950 . S
C485 C484 1.349 . S
C485 C501 1.349 . S
C486 C484 1.327 . S
C486 C505 1.429 . S
C486 H510 0.950 . S
C487 C504 1.574 . S
C487 C506 1.368 . S
C487 H511 0.949 . S
H488 C492 0.949 . S
C489 C490 1.349 . S
C489 C491 1.327 . S
C489 H512 0.950 . S
C490 C489 1.349 . S
C490 C502 1.349 . S
C491 C489 1.327 . S
C491 C507 1.429 . S
C491 H513 0.950 . S
C492 H488 0.949 . S
C492 C500 1.574 . S
C492 C508 1.368 . S
H493 C501 0.950 . S
H494 C499 0.950 . S
H495 C500 0.949 . S
H496 C502 0.950 . S
H497 C503 0.950 . S
H498 C504 0.949 . S
C499 H494 0.950 . S
C499 C501 1.327 . S
C499 C505 1.429 . S
C500 C492 1.574 . S
C500 H495 0.949 . S
C500 C506 1.368 . S
C501 C485 1.349 . S
C501 H493 0.950 . S
C501 C499 1.327 . S
C502 C490 1.349 . S
C502 H496 0.950 . S
C502 C503 1.327 . S
C503 H497 0.950 . S
C503 C502 1.327 . S
C503 C507 1.429 . S
C504 C487 1.574 . S
C504 H498 0.949 . S
C504 C508 1.368 . S
C505 C486 1.429 . S
C505 C499 1.429 . S
C505 C506 1.523 . S
C506 C487 1.368 . S
C506 C500 1.368 . S
C506 C505 1.523 . S
C507 C491 1.429 . S
C507 C503 1.429 . S
C507 C508 1.523 . S
C508 C492 1.368 . S
C508 C504 1.368 . S
C508 C507 1.523 . S
H509 C484 0.950 . S
H510 C486 0.950 . S
H511 C487 0.949 . S
H512 C489 0.950 . S
H513 C491 0.950 . S
C514 C515 1.349 . S
C514 C516 1.327 . S
C514 H539 0.950 . S
C515 C514 1.349 . S
C515 C531 1.349 . S
C516 C514 1.327 . S
C516 C535 1.429 . S
C516 H540 0.950 . S
C517 C534 1.574 . S
C517 C536 1.368 . S
C517 H541 0.949 . S
H518 C522 0.949 . S
C519 C520 1.349 . S
C519 C521 1.327 . S
C519 H542 0.950 . S
C520 C519 1.349 . S
C520 C532 1.349 . S
C521 C519 1.327 . S
C521 C537 1.429 . S
C521 H543 0.950 . S
C522 H518 0.949 . S
C522 C530 1.574 . S
C522 C538 1.368 . S
H523 C531 0.950 . S
H524 C529 0.950 . S
H525 C530 0.949 . S
H526 C532 0.950 . S
H527 C533 0.950 . S
H528 C534 0.949 . S
C529 H524 0.950 . S
C529 C531 1.327 . S
C529 C535 1.429 . S
C530 C522 1.574 . S
C530 H525 0.949 . S
C530 C536 1.368 . S
C531 C515 1.349 . S
C531 H523 0.950 . S
C531 C529 1.327 . S
C532 C520 1.349 . S
C532 H526 0.950 . S
C532 C533 1.327 . S
C533 H527 0.950 . S
C533 C532 1.327 . S
C533 C537 1.429 . S
C534 C517 1.574 . S
C534 H528 0.949 . S
C534 C538 1.368 . S
C535 C516 1.429 . S
C535 C529 1.429 . S
C535 C536 1.523 . S
C536 C517 1.368 . S
C536 C530 1.368 . S
C536 C535 1.523 . S
C537 C521 1.429 . S
C537 C533 1.429 . S
C537 C538 1.523 . S
C538 C522 1.368 . S
C538 C534 1.368 . S
C538 C537 1.523 . S
H539 C514 0.950 . S
H540 C516 0.950 . S
H541 C517 0.949 . S
H542 C519 0.950 . S
H543 C521 0.950 . S
C544 C545 1.349 . S
C544 C546 1.327 . S
C544 H569 0.950 . S
C545 C544 1.349 . S
C545 C561 1.349 . S
C546 C544 1.327 . S
C546 C565 1.429 . S
C546 H570 0.950 . S
C547 C564 1.574 . S
C547 C566 1.368 . S
C547 H571 0.949 . S
H548 C552 0.949 . S
C549 C550 1.349 . S
C549 C551 1.327 . S
C549 H572 0.950 . S
C550 C549 1.349 . S
C550 C562 1.349 . S
C551 C549 1.327 . S
C551 C567 1.429 . S
C551 H573 0.950 . S
C552 H548 0.949 . S
C552 C560 1.574 . S
C552 C568 1.368 . S
H553 C561 0.950 . S
H554 C559 0.950 . S
H555 C560 0.949 . S
H556 C562 0.950 . S
H557 C563 0.950 . S
H558 C564 0.949 . S
C559 H554 0.950 . S
C559 C561 1.327 . S
C559 C565 1.429 . S
C560 C552 1.574 . S
C560 H555 0.949 . S
C560 C566 1.368 . S
C561 C545 1.349 . S
C561 H553 0.950 . S
C561 C559 1.327 . S
C562 C550 1.349 . S
C562 H556 0.950 . S
C562 C563 1.327 . S
C563 H557 0.950 . S
C563 C562 1.327 . S
C563 C567 1.429 . S
C564 C547 1.574 . S
C564 H558 0.949 . S
C564 C568 1.368 . S
C565 C546 1.429 . S
C565 C559 1.429 . S
C565 C566 1.523 . S
C566 C547 1.368 . S
C566 C560 1.368 . S
C566 C565 1.523 . S
C567 C551 1.429 . S
C567 C563 1.429 . S
C567 C568 1.523 . S
C568 C552 1.368 . S
C568 C564 1.368 . S
C568 C567 1.523 . S
H569 C544 0.950 . S
H570 C546 0.950 . S
H571 C547 0.949 . S
H572 C549 0.950 . S
H573 C551 0.950 . S
C574 C575 1.349 . S
C574 C576 1.327 . S
C574 H599 0.950 . S
C575 C574 1.349 . S
C575 C591 1.349 . S
C576 C574 1.327 . S
C576 C595 1.429 . S
C576 H600 0.950 1_565 S
C577 C594 1.574 . S
C577 C596 1.368 . S
C577 H601 0.949 . S
H578 C582 0.954 1_545 S
C579 C580 1.349 . S
C579 C581 1.327 . S
C579 H602 0.950 . S
C580 C579 1.349 . S
C580 C592 1.349 1_565 S
C581 C579 1.327 . S
C581 C597 1.429 . S
C581 H603 0.950 . S
C582 H578 0.954 1_565 S
C582 C590 1.574 . S
C582 C598 1.362 . S
H583 C591 0.950 . S
H584 C589 0.950 . S
H585 C590 0.949 1_545 S
H586 C592 0.950 . S
H587 C593 0.950 . S
H588 C594 0.949 . S
C589 H584 0.950 . S
C589 C591 1.327 . S
C589 C595 1.429 . S
C590 C582 1.574 . S
C590 H585 0.949 1_565 S
C590 C596 1.368 . S
C591 C575 1.349 . S
C591 H583 0.950 . S
C591 C589 1.327 . S
C592 C580 1.349 1_545 S
C592 H586 0.950 . S
C592 C593 1.327 . S
C593 H587 0.950 . S
C593 C592 1.327 . S
C593 C597 1.429 1_545 S
C594 C577 1.574 . S
C594 H588 0.949 . S
C594 C598 1.368 . S
C595 C576 1.429 . S
C595 C589 1.429 . S
C595 C596 1.523 . S
C596 C577 1.368 . S
C596 C590 1.368 . S
C596 C595 1.523 . S
C597 C581 1.429 . S
C597 C593 1.429 1_565 S
C597 C598 1.523 . S
C598 C582 1.362 . S
C598 C594 1.368 . S
C598 C597 1.523 . S
H599 C574 0.950 . S
H600 C576 0.950 1_545 S
H601 C577 0.949 . S
H602 C579 0.950 . S
H603 C581 0.950 . S
C604 C605 1.349 . S
C604 C606 1.327 . S
C604 H629 0.950 . S
C605 C604 1.349 . S
C605 C621 1.349 . S
C606 C604 1.327 . S
C606 C625 1.429 . S
C606 H630 0.950 . S
C607 C624 1.574 . S
C607 C626 1.368 . S
C607 H631 0.949 . S
H608 C612 0.949 . S
C609 C610 1.349 . S
C609 C611 1.327 . S
C609 H632 0.950 . S
C610 C609 1.349 . S
C610 C622 1.349 . S
C611 C609 1.327 . S
C611 C627 1.429 . S
C611 H633 0.950 . S
C612 H608 0.949 . S
C612 C620 1.574 . S
C612 C628 1.368 . S
H613 C621 0.950 . S
H614 C619 0.950 . S
H615 C620 0.949 . S
H616 C622 0.950 . S
H617 C623 0.950 . S
H618 C624 0.949 . S
C619 H614 0.950 . S
C619 C621 1.327 . S
C619 C625 1.429 . S
C620 C612 1.574 . S
C620 H615 0.949 . S
C620 C626 1.368 . S
C621 C605 1.349 . S
C621 H613 0.950 . S
C621 C619 1.327 . S
C622 C610 1.349 . S
C622 H616 0.950 . S
C622 C623 1.327 . S
C623 H617 0.950 . S
C623 C622 1.327 . S
C623 C627 1.429 . S
C624 C607 1.574 . S
C624 H618 0.949 . S
C624 C628 1.368 . S
C625 C606 1.429 . S
C625 C619 1.429 . S
C625 C626 1.523 . S
C626 C607 1.368 . S
C626 C620 1.368 . S
C626 C625 1.523 . S
C627 C611 1.429 . S
C627 C623 1.429 . S
C627 C628 1.523 . S
C628 C612 1.368 . S
C628 C624 1.368 . S
C628 C627 1.523 . S
H629 C604 0.950 . S
H630 C606 0.950 . S
H631 C607 0.949 . S
H632 C609 0.950 . S
H633 C611 0.950 . S
C634 C635 1.349 . S
C634 C636 1.327 . S
C634 H659 0.950 . S
C635 C634 1.349 . S
C635 C651 1.349 . S
C636 C634 1.327 . S
C636 C655 1.429 . S
C636 H660 0.950 . S
C637 C654 1.574 . S
C637 C656 1.368 . S
C637 H661 0.949 . S
H638 C642 0.949 . S
C639 C640 1.349 . S
C639 C641 1.327 . S
C639 H662 0.950 . S
C640 C639 1.349 . S
C640 C652 1.349 . S
C641 C639 1.327 . S
C641 C657 1.429 . S
C641 H663 0.950 . S
C642 H638 0.949 . S
C642 C650 1.574 . S
C642 C658 1.368 . S
H643 C651 0.950 . S
H644 C649 0.950 . S
H645 C650 0.949 . S
H646 C652 0.950 . S
H647 C653 0.950 . S
H648 C654 0.949 . S
C649 H644 0.950 . S
C649 C651 1.327 . S
C649 C655 1.429 . S
C650 C642 1.574 . S
C650 H645 0.949 . S
C650 C656 1.368 . S
C651 C635 1.349 . S
C651 H643 0.950 . S
C651 C649 1.327 . S
C652 C640 1.349 . S
C652 H646 0.950 . S
C652 C653 1.327 . S
C653 H647 0.950 . S
C653 C652 1.327 . S
C653 C657 1.429 . S
C654 C637 1.574 . S
C654 H648 0.949 . S
C654 C658 1.368 . S
C655 C636 1.429 . S
C655 C649 1.429 . S
C655 C656 1.523 . S
C656 C637 1.368 . S
C656 C650 1.368 . S
C656 C655 1.523 . S
C657 C641 1.429 . S
C657 C653 1.429 . S
C657 C658 1.523 . S
C658 C642 1.368 . S
C658 C654 1.368 . S
C658 C657 1.523 . S
H659 C634 0.950 . S
H660 C636 0.950 . S
H661 C637 0.949 . S
H662 C639 0.950 . S
H663 C641 0.950 . S
C664 C665 1.349 . S
C664 C666 1.327 . S
C664 H689 0.950 . S
C665 C664 1.349 . S
C665 C681 1.349 . S
C666 C664 1.327 . S
C666 C685 1.429 . S
C666 H690 0.950 . S
C667 C684 1.574 . S
C667 C686 1.368 . S
C667 H691 0.949 . S
H668 C672 0.949 . S
C669 C670 1.349 . S
C669 C671 1.327 . S
C669 H692 0.950 . S
C670 C669 1.349 . S
C670 C682 1.349 . S
C671 C669 1.327 . S
C671 C687 1.429 . S
C671 H693 0.950 . S
C672 H668 0.949 . S
C672 C680 1.574 . S
C672 C688 1.368 . S
H673 C681 0.950 . S
H674 C679 0.950 . S
H675 C680 0.949 . S
H676 C682 0.950 . S
H677 C683 0.950 . S
H678 C684 0.949 . S
C679 H674 0.950 . S
C679 C681 1.327 . S
C679 C685 1.429 . S
C680 C672 1.574 . S
C680 H675 0.949 . S
C680 C686 1.368 . S
C681 C665 1.349 . S
C681 H673 0.950 . S
C681 C679 1.327 . S
C682 C670 1.349 . S
C682 H676 0.950 . S
C682 C683 1.327 . S
C683 H677 0.950 . S
C683 C682 1.327 . S
C683 C687 1.429 . S
C684 C667 1.574 . S
C684 H678 0.949 . S
C684 C688 1.368 . S
C685 C666 1.429 . S
C685 C679 1.429 . S
C685 C686 1.523 . S
C686 C667 1.368 . S
C686 C680 1.368 . S
C686 C685 1.523 . S
C687 C671 1.429 . S
C687 C683 1.429 . S
C687 C688 1.523 . S
C688 C672 1.368 . S
C688 C684 1.368 . S
C688 C687 1.523 . S
H689 C664 0.950 . S
H690 C666 0.950 . S
H691 C667 0.949 . S
H692 C669 0.950 . S
H693 C671 0.950 . S
C694 C695 1.349 . S
C694 C696 1.327 . S
C694 H719 0.950 . S
C695 C694 1.349 . S
C695 C711 1.349 . S
C696 C694 1.327 . S
C696 C715 1.429 . S
C696 H720 0.950 . S
C697 C714 1.574 . S
C697 C716 1.368 . S
C697 H721 0.949 . S
H698 C702 0.949 . S
C699 C700 1.349 . S
C699 C701 1.327 . S
C699 H722 0.950 . S
C700 C699 1.349 . S
C700 C712 1.349 . S
C701 C699 1.327 . S
C701 C717 1.429 . S
C701 H723 0.950 . S
C702 H698 0.949 . S
C702 C710 1.574 . S
C702 C718 1.368 . S
H703 C711 0.950 . S
H704 C709 0.950 . S
H705 C710 0.949 . S
H706 C712 0.950 . S
H707 C713 0.950 . S
H708 C714 0.949 . S
C709 H704 0.950 . S
C709 C711 1.327 . S
C709 C715 1.429 . S
C710 C702 1.574 . S
C710 H705 0.949 . S
C710 C716 1.368 . S
C711 C695 1.349 . S
C711 H703 0.950 . S
C711 C709 1.327 . S
C712 C700 1.349 . S
C712 H706 0.950 . S
C712 C713 1.327 . S
C713 H707 0.950 . S
C713 C712 1.327 . S
C713 C717 1.429 . S
C714 C697 1.574 . S
C714 H708 0.949 . S
C714 C718 1.368 . S
C715 C696 1.429 . S
C715 C709 1.429 . S
C715 C716 1.523 . S
C716 C697 1.368 . S
C716 C710 1.368 . S
C716 C715 1.523 . S
C717 C701 1.429 . S
C717 C713 1.429 . S
C717 C718 1.523 . S
C718 C702 1.368 . S
C718 C714 1.368 . S
C718 C717 1.523 . S
H719 C694 0.950 . S
H720 C696 0.950 . S
H721 C697 0.949 . S
H722 C699 0.950 . S
H723 C701 0.950 . S
C724 C725 1.349 . S
C724 C726 1.327 . S
C724 H749 0.950 . S
C725 C724 1.349 . S
C725 C741 1.349 . S
C726 C724 1.327 . S
C726 C745 1.429 . S
C726 H750 0.950 . S
C727 C744 1.574 . S
C727 C746 1.368 . S
C727 H751 0.949 . S
H728 C732 0.949 . S
C729 C730 1.349 . S
C729 C731 1.327 . S
C729 H752 0.950 . S
C730 C729 1.349 . S
C730 C742 1.349 . S
C731 C729 1.327 . S
C731 C747 1.429 . S
C731 H753 0.950 . S
C732 H728 0.949 . S
C732 C740 1.574 . S
C732 C748 1.368 . S
H733 C741 0.950 . S
H734 C739 0.950 . S
H735 C740 0.949 . S
H736 C742 0.950 . S
H737 C743 0.950 . S
H738 C744 0.949 . S
C739 H734 0.950 . S
C739 C741 1.327 . S
C739 C745 1.429 . S
C740 C732 1.574 . S
C740 H735 0.949 . S
C740 C746 1.368 . S
C741 C725 1.349 . S
C741 H733 0.950 . S
C741 C739 1.327 . S
C742 C730 1.349 . S
C742 H736 0.950 . S
C742 C743 1.327 . S
C743 H737 0.950 . S
C743 C742 1.327 . S
C743 C747 1.429 . S
C744 C727 1.574 . S
C744 H738 0.949 . S
C744 C748 1.368 . S
C745 C726 1.429 . S
C745 C739 1.429 . S
C745 C746 1.523 . S
C746 C727 1.368 . S
C746 C740 1.368 . S
C746 C745 1.523 . S
C747 C731 1.429 . S
C747 C743 1.429 . S
C747 C748 1.523 . S
C748 C732 1.368 . S
C748 C744 1.368 . S
C748 C747 1.523 . S
H749 C724 0.950 . S
H750 C726 0.950 . S
H751 C727 0.949 . S
H752 C729 0.950 . S
H753 C731 0.950 . S
C754 C755 1.349 . S
C754 C756 1.327 . S
C754 H779 0.950 . S
C755 C754 1.349 . S
C755 C771 1.349 . S
C756 C754 1.327 . S
C756 C775 1.429 . S
C756 H780 0.950 . S
C757 C774 1.574 . S
C757 C776 1.368 . S
C757 H781 0.949 . S
H758 C762 0.949 . S
C759 C760 1.349 . S
C759 C761 1.327 . S
C759 H782 0.950 . S
C760 C759 1.349 . S
C760 C772 1.349 . S
C761 C759 1.327 . S
C761 C777 1.429 . S
C761 H783 0.950 . S
C762 H758 0.949 . S
C762 C770 1.574 . S
C762 C778 1.368 . S
H763 C771 0.950 . S
H764 C769 0.950 . S
H765 C770 0.949 . S
H766 C772 0.950 . S
H767 C773 0.950 . S
H768 C774 0.949 . S
C769 H764 0.950 . S
C769 C771 1.327 . S
C769 C775 1.429 . S
C770 C762 1.574 . S
C770 H765 0.949 . S
C770 C776 1.368 . S
C771 C755 1.349 . S
C771 H763 0.950 . S
C771 C769 1.327 . S
C772 C760 1.349 . S
C772 H766 0.950 . S
C772 C773 1.327 . S
C773 H767 0.950 . S
C773 C772 1.327 . S
C773 C777 1.429 . S
C774 C757 1.574 . S
C774 H768 0.949 . S
C774 C778 1.368 . S
C775 C756 1.429 . S
C775 C769 1.429 . S
C775 C776 1.523 . S
C776 C757 1.368 . S
C776 C770 1.368 . S
C776 C775 1.523 . S
C777 C761 1.429 . S
C777 C773 1.429 . S
C777 C778 1.523 . S
C778 C762 1.368 . S
C778 C774 1.368 . S
C778 C777 1.523 . S
H779 C754 0.950 . S
H780 C756 0.950 . S
H781 C757 0.949 . S
H782 C759 0.950 . S
H783 C761 0.950 . S
C784 C785 1.349 . S
C784 C786 1.327 . S
C784 H809 0.950 . S
C785 C784 1.349 . S
C785 C801 1.349 . S
C786 C784 1.327 . S
C786 C805 1.429 . S
C786 H810 0.950 . S
C787 C804 1.574 . S
C787 C806 1.368 . S
C787 H811 0.949 . S
H788 C792 0.949 . S
C789 C790 1.349 . S
C789 C791 1.327 . S
C789 H812 0.950 . S
C790 C789 1.349 . S
C790 C802 1.349 . S
C791 C789 1.327 . S
C791 C807 1.429 . S
C791 H813 0.950 . S
C792 H788 0.949 . S
C792 C800 1.574 . S
C792 C808 1.368 . S
H793 C801 0.950 . S
H794 C799 0.950 . S
H795 C800 0.949 . S
H796 C802 0.950 . S
H797 C803 0.950 . S
H798 C804 0.949 . S
C799 H794 0.950 . S
C799 C801 1.327 . S
C799 C805 1.429 . S
C800 C792 1.574 . S
C800 H795 0.949 . S
C800 C806 1.368 . S
C801 C785 1.349 . S
C801 H793 0.950 . S
C801 C799 1.327 . S
C802 C790 1.349 . S
C802 H796 0.950 . S
C802 C803 1.327 . S
C803 H797 0.950 . S
C803 C802 1.327 . S
C803 C807 1.429 . S
C804 C787 1.574 . S
C804 H798 0.949 . S
C804 C808 1.368 . S
C805 C786 1.429 . S
C805 C799 1.429 . S
C805 C806 1.523 . S
C806 C787 1.368 . S
C806 C800 1.368 . S
C806 C805 1.523 . S
C807 C791 1.429 . S
C807 C803 1.429 . S
C807 C808 1.523 . S
C808 C792 1.368 . S
C808 C804 1.368 . S
C808 C807 1.523 . S
H809 C784 0.950 . S
H810 C786 0.950 . S
H811 C787 0.949 . S
H812 C789 0.950 . S
H813 C791 0.950 . S
C814 C815 1.349 . S
C814 C816 1.327 . S
C814 H839 0.950 . S
C815 C814 1.349 . S
C815 C831 1.349 . S
C816 C814 1.327 . S
C816 C835 1.429 . S
C816 H840 0.950 . S
C817 C834 1.570 1_655 S
C817 C836 1.368 . S
C817 H841 0.949 . S
H818 C822 0.949 . S
C819 C820 1.349 . S
C819 C821 1.327 . S
C819 H842 0.950 . S
C820 C819 1.349 . S
C820 C832 1.349 1_455 S
C821 C819 1.327 . S
C821 C837 1.429 1_455 S
C821 H843 0.950 . S
C822 H818 0.949 . S
C822 C830 1.574 . S
C822 C838 1.368 . S
H823 C831 0.950 . S
H824 C829 0.950 . S
H825 C830 0.949 . S
H826 C832 0.950 . S
H827 C833 0.950 . S
H828 C834 0.960 . S
C829 H824 0.950 . S
C829 C831 1.327 . S
C829 C835 1.429 . S
C830 C822 1.574 . S
C830 H825 0.949 . S
C830 C836 1.368 . S
C831 C815 1.349 . S
C831 H823 0.950 . S
C831 C829 1.327 . S
C832 C820 1.349 1_655 S
C832 H826 0.950 . S
C832 C833 1.327 . S
C833 H827 0.950 . S
C833 C832 1.327 . S
C833 C837 1.429 . S
C834 C817 1.570 1_455 S
C834 H828 0.960 . S
C834 C838 1.360 1_455 S
C835 C816 1.429 . S
C835 C829 1.429 . S
C835 C836 1.523 . S
C836 C817 1.368 . S
C836 C830 1.368 . S
C836 C835 1.523 . S
C837 C821 1.429 1_655 S
C837 C833 1.429 . S
C837 C838 1.523 . S
C838 C822 1.368 . S
C838 C834 1.360 1_655 S
C838 C837 1.523 . S
H839 C814 0.950 . S
H840 C816 0.950 . S
H841 C817 0.949 . S
H842 C819 0.950 . S
H843 C821 0.950 . S
C844 C845 1.349 . S
C844 C846 1.327 . S
C844 H869 0.950 . S
C845 C844 1.349 . S
C845 C861 1.349 . S
C846 C844 1.327 . S
C846 C865 1.429 . S
C846 H870 0.950 . S
C847 C864 1.574 . S
C847 C866 1.368 . S
C847 H871 0.949 . S
H848 C852 0.949 . S
C849 C850 1.349 . S
C849 C851 1.327 . S
C849 H872 0.950 . S
C850 C849 1.349 . S
C850 C862 1.349 . S
C851 C849 1.327 . S
C851 C867 1.429 . S
C851 H873 0.950 . S
C852 H848 0.949 . S
C852 C860 1.574 . S
C852 C868 1.368 . S
H853 C861 0.950 . S
H854 C859 0.950 . S
H855 C860 0.949 . S
H856 C862 0.950 . S
H857 C863 0.950 . S
H858 C864 0.949 . S
C859 H854 0.950 . S
C859 C861 1.327 . S
C859 C865 1.429 . S
C860 C852 1.574 . S
C860 H855 0.949 . S
C860 C866 1.368 . S
C861 C845 1.349 . S
C861 H853 0.950 . S
C861 C859 1.327 . S
C862 C850 1.349 . S
C862 H856 0.950 . S
C862 C863 1.327 . S
C863 H857 0.950 . S
C863 C862 1.327 . S
C863 C867 1.429 . S
C864 C847 1.574 . S
C864 H858 0.949 . S
C864 C868 1.368 . S
C865 C846 1.429 . S
C865 C859 1.429 . S
C865 C866 1.523 . S
C866 C847 1.368 . S
C866 C860 1.368 . S
C866 C865 1.523 . S
C867 C851 1.429 . S
C867 C863 1.429 . S
C867 C868 1.523 . S
C868 C852 1.368 . S
C868 C864 1.368 . S
C868 C867 1.523 . S
H869 C844 0.950 . S
H870 C846 0.950 . S
H871 C847 0.949 . S
H872 C849 0.950 . S
H873 C851 0.950 . S
C874 C875 1.349 . S
C874 C876 1.327 . S
C874 H899 0.950 . S
C875 C874 1.349 . S
C875 C891 1.349 . S
C876 C874 1.327 . S
C876 C895 1.429 . S
C876 H900 0.950 . S
C877 C894 1.574 . S
C877 C896 1.368 . S
C877 H901 0.949 . S
H878 C882 0.949 . S
C879 C880 1.349 . S
C879 C881 1.327 . S
C879 H902 0.950 . S
C880 C879 1.349 . S
C880 C892 1.349 . S
C881 C879 1.327 . S
C881 C897 1.429 . S
C881 H903 0.950 . S
C882 H878 0.949 . S
C882 C890 1.574 . S
C882 C898 1.368 . S
H883 C891 0.950 . S
H884 C889 0.950 . S
H885 C890 0.949 . S
H886 C892 0.950 . S
H887 C893 0.950 . S
H888 C894 0.949 . S
C889 H884 0.950 . S
C889 C891 1.327 . S
C889 C895 1.429 . S
C890 C882 1.574 . S
C890 H885 0.949 . S
C890 C896 1.368 . S
C891 C875 1.349 . S
C891 H883 0.950 . S
C891 C889 1.327 . S
C892 C880 1.349 . S
C892 H886 0.950 . S
C892 C893 1.327 . S
C893 H887 0.950 . S
C893 C892 1.327 . S
C893 C897 1.429 . S
C894 C877 1.574 . S
C894 H888 0.949 . S
C894 C898 1.368 . S
C895 C876 1.429 . S
C895 C889 1.429 . S
C895 C896 1.523 . S
C896 C877 1.368 . S
C896 C890 1.368 . S
C896 C895 1.523 . S
C897 C881 1.429 . S
C897 C893 1.429 . S
C897 C898 1.523 . S
C898 C882 1.368 . S
C898 C894 1.368 . S
C898 C897 1.523 . S
H899 C874 0.950 . S
H900 C876 0.950 . S
H901 C877 0.949 . S
H902 C879 0.950 . S
H903 C881 0.950 . S
C904 C905 1.389 . S
C904 C906 1.301 1_545 S
C904 H929 0.937 1_545 S
C905 C904 1.389 . S
C905 C921 1.349 . S
C906 C904 1.301 1_565 S
C906 C925 1.429 . S
C906 H930 0.953 . S
C907 C924 1.574 . S
C907 C926 1.368 . S
C907 H931 0.949 . S
H908 C912 0.949 . S
C909 C910 1.349 1_556 S
C909 C911 1.327 . S
C909 H932 0.950 . S
C910 C909 1.349 1_554 S
C910 C922 1.349 . S
C911 C909 1.327 . S
C911 C927 1.429 1_556 S
C911 H933 0.950 . S
C912 H908 0.949 . S
C912 C920 1.585 . S
C912 C928 1.368 1_554 S
H913 C921 0.950 . S
H914 C919 0.950 . S
H915 C920 0.965 . S
H916 C922 0.950 . S
H917 C923 0.950 . S
H918 C924 0.949 . S
C919 H914 0.950 . S
C919 C921 1.327 . S
C919 C925 1.429 1_545 S
C920 C912 1.585 . S
C920 H915 0.965 . S
C920 C926 1.340 1_554 S
C921 C905 1.349 . S
C921 H913 0.950 . S
C921 C919 1.327 . S
C922 C910 1.349 . S
C922 H916 0.950 . S
C922 C923 1.327 . S
C923 H917 0.950 . S
C923 C922 1.327 . S
C923 C927 1.429 . S
C924 C907 1.574 . S
C924 H918 0.949 . S
C924 C928 1.368 . S
C925 C906 1.429 . S
C925 C919 1.429 1_565 S
C925 C926 1.523 . S
C926 C907 1.368 . S
C926 C920 1.340 1_556 S
C926 C925 1.523 . S
C927 C911 1.429 1_554 S
C927 C923 1.429 . S
C927 C928 1.523 1_554 S
C928 C912 1.368 1_556 S
C928 C924 1.368 . S
C928 C927 1.523 1_556 S
H929 C904 0.937 1_565 S
H930 C906 0.953 . S
H931 C907 0.949 . S
H932 C909 0.950 . S
H933 C911 0.950 . S
C934 C935 1.349 . S
C934 C936 1.327 . S
C934 H959 0.950 . S
C935 C934 1.349 . S
C935 C951 1.349 . S
C936 C934 1.327 . S
C936 C955 1.429 . S
C936 H960 0.950 . S
C937 C954 1.574 . S
C937 C956 1.368 . S
C937 H961 0.949 . S
H938 C942 0.949 . S
C939 C940 1.349 . S
C939 C941 1.327 . S
C939 H962 0.950 . S
C940 C939 1.349 . S
C940 C952 1.349 . S
C941 C939 1.327 . S
C941 C957 1.429 . S
C941 H963 0.950 . S
C942 H938 0.949 . S
C942 C950 1.574 . S
C942 C958 1.368 . S
H943 C951 0.950 . S
H944 C949 0.950 . S
H945 C950 0.949 . S
H946 C952 0.950 . S
H947 C953 0.950 . S
H948 C954 0.949 . S
C949 H944 0.950 . S
C949 C951 1.327 . S
C949 C955 1.429 . S
C950 C942 1.574 . S
C950 H945 0.949 . S
C950 C956 1.368 . S
C951 C935 1.349 . S
C951 H943 0.950 . S
C951 C949 1.327 . S
C952 C940 1.349 . S
C952 H946 0.950 . S
C952 C953 1.327 . S
C953 H947 0.950 . S
C953 C952 1.327 . S
C953 C957 1.429 . S
C954 C937 1.574 . S
C954 H948 0.949 . S
C954 C958 1.368 . S
C955 C936 1.429 . S
C955 C949 1.429 . S
C955 C956 1.523 . S
C956 C937 1.368 . S
C956 C950 1.368 . S
C956 C955 1.523 . S
C957 C941 1.429 . S
C957 C953 1.429 . S
C957 C958 1.523 . S
C958 C942 1.368 . S
C958 C954 1.368 . S
C958 C957 1.523 . S
H959 C934 0.950 . S
H960 C936 0.950 . S
H961 C937 0.949 . S
H962 C939 0.950 . S
H963 C941 0.950 . S
C964 C965 1.350 1_565 S
C964 C966 1.327 1_565 S
C964 H989 0.950 . S
C965 C964 1.350 1_545 S
C965 C981 1.347 . S
C966 C964 1.327 1_545 S
C966 C985 1.429 . S
C966 H990 0.950 1_545 S
C967 C984 1.574 . S
C967 C986 1.368 . S
C967 H991 0.949 . S
H968 C972 0.949 . S
C969 C970 1.349 . S
C969 C971 1.327 . S
C969 H992 0.950 . S
C970 C969 1.349 . S
C970 C982 1.349 . S
C971 C969 1.327 . S
C971 C987 1.429 . S
C971 H993 0.950 . S
C972 H968 0.949 . S
C972 C980 1.574 . S
C972 C988 1.368 . S
H973 C981 0.950 . S
H974 C979 0.950 . S
H975 C980 0.949 . S
H976 C982 0.950 . S
H977 C983 0.950 . S
H978 C984 0.949 . S
C979 H974 0.950 . S
C979 C981 1.327 . S
C979 C985 1.429 . S
C980 C972 1.574 . S
C980 H975 0.949 . S
C980 C986 1.368 . S
C981 C965 1.347 . S
C981 H973 0.950 . S
C981 C979 1.327 . S
C982 C970 1.349 . S
C982 H976 0.950 . S
C982 C983 1.327 . S
C983 H977 0.950 . S
C983 C982 1.327 . S
C983 C987 1.429 . S
C984 C967 1.574 . S
C984 H978 0.949 . S
C984 C988 1.368 . S
C985 C966 1.429 . S
C985 C979 1.429 . S
C985 C986 1.523 . S
C986 C967 1.368 . S
C986 C980 1.368 . S
C986 C985 1.523 . S
C987 C971 1.429 . S
C987 C983 1.429 . S
C987 C988 1.523 . S
C988 C972 1.368 . S
C988 C984 1.368 . S
C988 C987 1.523 . S
H989 C964 0.950 . S
H990 C966 0.950 1_565 S
H991 C967 0.949 . S
H992 C969 0.950 . S
H993 C971 0.950 . S
C994 C995 1.349 . S
C994 C996 1.327 . S
C994 H1019 0.950 . S
C995 C994 1.349 . S
C995 C1011 1.349 . S
C996 C994 1.327 . S
C996 C1015 1.429 . S
C996 H1020 0.950 . S
C997 C1014 1.574 . S
C997 C1016 1.368 . S
C997 H1021 0.949 . S
H998 C1002 0.949 . S
C999 C1000 1.349 . S
C999 C1001 1.327 . S
C999 H1022 0.950 . S
C1000 C999 1.349 . S
C1000 C1012 1.349 . S
C1001 C999 1.327 . S
C1001 C1017 1.429 . S
C1001 H1023 0.950 . S
C1002 H998 0.949 . S
C1002 C1010 1.574 . S
C1002 C1018 1.368 . S
H1003 C1011 0.950 . S
H1004 C1009 0.950 . S
H1005 C1010 0.949 . S
H1006 C1012 0.950 . S
H1007 C1013 0.950 . S
H1008 C1014 0.949 . S
C1009 H1004 0.950 . S
C1009 C1011 1.327 . S
C1009 C1015 1.429 . S
C1010 C1002 1.574 . S
C1010 H1005 0.949 . S
C1010 C1016 1.368 . S
C1011 C995 1.349 . S
C1011 H1003 0.950 . S
C1011 C1009 1.327 . S
C1012 C1000 1.349 . S
C1012 H1006 0.950 . S
C1012 C1013 1.327 . S
C1013 H1007 0.950 . S
C1013 C1012 1.327 . S
C1013 C1017 1.429 . S
C1014 C997 1.574 . S
C1014 H1008 0.949 . S
C1014 C1018 1.368 . S
C1015 C996 1.429 . S
C1015 C1009 1.429 . S
C1015 C1016 1.523 . S
C1016 C997 1.368 . S
C1016 C1010 1.368 . S
C1016 C1015 1.523 . S
C1017 C1001 1.429 . S
C1017 C1013 1.429 . S
C1017 C1018 1.523 . S
C1018 C1002 1.368 . S
C1018 C1014 1.368 . S
C1018 C1017 1.523 . S
H1019 C994 0.950 . S
H1020 C996 0.950 . S
H1021 C997 0.949 . S
H1022 C999 0.950 . S
H1023 C1001 0.950 . S
C1024 C1025 1.349 . S
C1024 C1026 1.327 1_565 S
C1024 H1049 0.950 . S
C1025 C1024 1.349 . S
C1025 C1041 1.349 1_565 S
C1026 C1024 1.327 1_545 S
C1026 C1045 1.429 . S
C1026 H1050 0.950 . S
C1027 C1044 1.574 . S
C1027 C1046 1.368 . S
C1027 H1051 0.949 . S
H1028 C1032 0.949 . S
C1029 C1030 1.349 . S
C1029 C1031 1.327 . S
C1029 H1052 0.950 . S
C1030 C1029 1.349 . S
C1030 C1042 1.349 . S
C1031 C1029 1.327 . S
C1031 C1047 1.429 . S
C1031 H1053 0.950 . S
C1032 H1028 0.949 . S
C1032 C1040 1.574 . S
C1032 C1048 1.368 . S
H1033 C1041 0.949 1_565 S
H1034 C1039 0.950 . S
H1035 C1040 0.949 . S
H1036 C1042 0.950 . S
H1037 C1043 0.950 . S
H1038 C1044 0.949 . S
C1039 H1034 0.950 . S
C1039 C1041 1.327 . S
C1039 C1045 1.429 . S
C1040 C1032 1.574 . S
C1040 H1035 0.949 . S
C1040 C1046 1.368 . S
C1041 C1025 1.349 1_545 S
C1041 H1033 0.949 1_545 S
C1041 C1039 1.327 . S
C1042 C1030 1.349 . S
C1042 H1036 0.950 . S
C1042 C1043 1.327 . S
C1043 H1037 0.950 . S
C1043 C1042 1.327 . S
C1043 C1047 1.429 . S
C1044 C1027 1.574 . S
C1044 H1038 0.949 . S
C1044 C1048 1.368 . S
C1045 C1026 1.429 . S
C1045 C1039 1.429 . S
C1045 C1046 1.523 . S
C1046 C1027 1.368 . S
C1046 C1040 1.368 . S
C1046 C1045 1.523 . S
C1047 C1031 1.429 . S
C1047 C1043 1.429 . S
C1047 C1048 1.523 . S
C1048 C1032 1.368 . S
C1048 C1044 1.368 . S
C1048 C1047 1.523 . S
H1049 C1024 0.950 . S
H1050 C1026 0.950 . S
H1051 C1027 0.949 . S
H1052 C1029 0.950 . S
H1053 C1031 0.950 . S
C1054 C1055 1.349 . S
C1054 C1056 1.327 . S
C1054 H1079 0.950 . S
C1055 C1054 1.349 . S
C1055 C1071 1.349 . S
C1056 C1054 1.327 . S
C1056 C1075 1.429 . S
C1056 H1080 0.950 . S
C1057 C1074 1.574 . S
C1057 C1076 1.368 . S
C1057 H1081 0.949 . S
H1058 C1062 0.949 . S
C1059 C1060 1.349 . S
C1059 C1061 1.327 . S
C1059 H1082 0.950 . S
C1060 C1059 1.349 . S
C1060 C1072 1.349 . S
C1061 C1059 1.327 . S
C1061 C1077 1.429 . S
C1061 H1083 0.950 . S
C1062 H1058 0.949 . S
C1062 C1070 1.574 . S
C1062 C1078 1.368 . S
H1063 C1071 0.950 . S
H1064 C1069 0.950 . S
H1065 C1070 0.949 . S
H1066 C1072 0.950 . S
H1067 C1073 0.950 . S
H1068 C1074 0.949 . S
C1069 H1064 0.950 . S
C1069 C1071 1.327 . S
C1069 C1075 1.429 . S
C1070 C1062 1.574 . S
C1070 H1065 0.949 . S
C1070 C1076 1.368 . S
C1071 C1055 1.349 . S
C1071 H1063 0.950 . S
C1071 C1069 1.327 . S
C1072 C1060 1.349 . S
C1072 H1066 0.950 . S
C1072 C1073 1.327 . S
C1073 H1067 0.950 . S
C1073 C1072 1.327 . S
C1073 C1077 1.429 . S
C1074 C1057 1.574 . S
C1074 H1068 0.949 . S
C1074 C1078 1.368 . S
C1075 C1056 1.429 . S
C1075 C1069 1.429 . S
C1075 C1076 1.523 . S
C1076 C1057 1.368 . S
C1076 C1070 1.368 . S
C1076 C1075 1.523 . S
C1077 C1061 1.429 . S
C1077 C1073 1.429 . S
C1077 C1078 1.523 . S
C1078 C1062 1.368 . S
C1078 C1074 1.368 . S
C1078 C1077 1.523 . S
H1079 C1054 0.950 . S
H1080 C1056 0.950 . S
H1081 C1057 0.949 . S
H1082 C1059 0.950 . S
H1083 C1061 0.950 . S
C1084 C1085 1.349 . S
C1084 C1086 1.327 . S
C1084 H1109 0.950 . S
C1085 C1084 1.349 . S
C1085 C1101 1.349 . S
C1086 C1084 1.327 . S
C1086 C1105 1.429 . S
C1086 H1110 0.950 . S
C1087 C1104 1.574 . S
C1087 C1106 1.368 . S
C1087 H1111 0.949 . S
H1088 C1092 0.949 . S
C1089 C1090 1.349 . S
C1089 C1091 1.327 . S
C1089 H1112 0.950 . S
C1090 C1089 1.349 . S
C1090 C1102 1.349 . S
C1091 C1089 1.327 . S
C1091 C1107 1.429 . S
C1091 H1113 0.950 . S
C1092 H1088 0.949 . S
C1092 C1100 1.574 . S
C1092 C1108 1.368 . S
H1093 C1101 0.950 . S
H1094 C1099 0.950 . S
H1095 C1100 0.949 . S
H1096 C1102 0.950 . S
H1097 C1103 0.950 . S
H1098 C1104 0.949 . S
C1099 H1094 0.950 . S
C1099 C1101 1.327 . S
C1099 C1105 1.429 . S
C1100 C1092 1.574 . S
C1100 H1095 0.949 . S
C1100 C1106 1.368 . S
C1101 C1085 1.349 . S
C1101 H1093 0.950 . S
C1101 C1099 1.327 . S
C1102 C1090 1.349 . S
C1102 H1096 0.950 . S
C1102 C1103 1.327 . S
C1103 H1097 0.950 . S
C1103 C1102 1.327 . S
C1103 C1107 1.429 . S
C1104 C1087 1.574 . S
C1104 H1098 0.949 . S
C1104 C1108 1.368 . S
C1105 C1086 1.429 . S
C1105 C1099 1.429 . S
C1105 C1106 1.523 . S
C1106 C1087 1.368 . S
C1106 C1100 1.368 . S
C1106 C1105 1.523 . S
C1107 C1091 1.429 . S
C1107 C1103 1.429 . S
C1107 C1108 1.523 . S
C1108 C1092 1.368 . S
C1108 C1104 1.368 . S
C1108 C1107 1.523 . S
H1109 C1084 0.950 . S
H1110 C1086 0.950 . S
H1111 C1087 0.949 . S
H1112 C1089 0.950 . S
H1113 C1091 0.950 . S
C1114 C1115 1.349 . S
C1114 C1116 1.327 . S
C1114 H1139 0.950 . S
C1115 C1114 1.349 . S
C1115 C1131 1.349 . S
C1116 C1114 1.327 . S
C1116 C1135 1.429 . S
C1116 H1140 0.950 . S
C1117 C1134 1.574 . S
C1117 C1136 1.368 . S
C1117 H1141 0.949 . S
H1118 C1122 0.949 . S
C1119 C1120 1.349 . S
C1119 C1121 1.327 . S
C1119 H1142 0.950 1_545 S
C1120 C1119 1.349 . S
C1120 C1132 1.349 . S
C1121 C1119 1.327 . S
C1121 C1137 1.429 . S
C1121 H1143 0.950 1_545 S
C1122 H1118 0.949 . S
C1122 C1130 1.574 . S
C1122 C1138 1.368 . S
H1123 C1131 0.950 . S
H1124 C1129 0.950 . S
H1125 C1130 0.949 . S
H1126 C1132 0.950 . S
H1127 C1133 0.950 . S
H1128 C1134 0.949 1_565 S
C1129 H1124 0.950 . S
C1129 C1131 1.327 . S
C1129 C1135 1.429 . S
C1130 C1122 1.574 . S
C1130 H1125 0.949 . S
C1130 C1136 1.368 . S
C1131 C1115 1.349 . S
C1131 H1123 0.950 . S
C1131 C1129 1.327 . S
C1132 C1120 1.349 . S
C1132 H1126 0.950 . S
C1132 C1133 1.327 . S
C1133 H1127 0.950 . S
C1133 C1132 1.327 . S
C1133 C1137 1.429 . S
C1134 C1117 1.574 . S
C1134 H1128 0.949 1_545 S
C1134 C1138 1.368 . S
C1135 C1116 1.429 . S
C1135 C1129 1.429 . S
C1135 C1136 1.523 . S
C1136 C1117 1.368 . S
C1136 C1130 1.368 . S
C1136 C1135 1.523 . S
C1137 C1121 1.429 . S
C1137 C1133 1.429 . S
C1137 C1138 1.523 . S
C1138 C1122 1.368 . S
C1138 C1134 1.368 . S
C1138 C1137 1.523 . S
H1139 C1114 0.950 . S
H1140 C1116 0.950 . S
H1141 C1117 0.949 . S
H1142 C1119 0.950 1_565 S
H1143 C1121 0.950 1_565 S
C1144 C1145 1.349 . S
C1144 C1146 1.327 . S
C1144 H1169 0.950 . S
C1145 C1144 1.349 . S
C1145 C1161 1.349 . S
C1146 C1144 1.327 . S
C1146 C1165 1.429 . S
C1146 H1170 0.950 . S
C1147 C1164 1.574 . S
C1147 C1166 1.368 . S
C1147 H1171 0.949 . S
H1148 C1152 0.949 . S
C1149 C1150 1.349 . S
C1149 C1151 1.327 . S
C1149 H1172 0.950 . S
C1150 C1149 1.349 . S
C1150 C1162 1.349 . S
C1151 C1149 1.327 . S
C1151 C1167 1.429 . S
C1151 H1173 0.950 . S
C1152 H1148 0.949 . S
C1152 C1160 1.574 . S
C1152 C1168 1.368 . S
H1153 C1161 0.950 . S
H1154 C1159 0.950 . S
H1155 C1160 0.949 . S
H1156 C1162 0.950 . S
H1157 C1163 0.950 . S
H1158 C1164 0.949 . S
C1159 H1154 0.950 . S
C1159 C1161 1.327 . S
C1159 C1165 1.429 . S
C1160 C1152 1.574 . S
C1160 H1155 0.949 . S
C1160 C1166 1.368 . S
C1161 C1145 1.349 . S
C1161 H1153 0.950 . S
C1161 C1159 1.327 . S
C1162 C1150 1.349 . S
C1162 H1156 0.950 . S
C1162 C1163 1.327 . S
C1163 H1157 0.950 . S
C1163 C1162 1.327 . S
C1163 C1167 1.429 . S
C1164 C1147 1.574 . S
C1164 H1158 0.949 . S
C1164 C1168 1.368 . S
C1165 C1146 1.429 . S
C1165 C1159 1.429 . S
C1165 C1166 1.523 . S
C1166 C1147 1.368 . S
C1166 C1160 1.368 . S
C1166 C1165 1.523 . S
C1167 C1151 1.429 . S
C1167 C1163 1.429 . S
C1167 C1168 1.523 . S
C1168 C1152 1.368 . S
C1168 C1164 1.368 . S
C1168 C1167 1.523 . S
H1169 C1144 0.950 . S
H1170 C1146 0.950 . S
H1171 C1147 0.949 . S
H1172 C1149 0.950 . S
H1173 C1151 0.950 . S
C1174 C1175 1.349 . S
C1174 C1176 1.327 . S
C1174 H1199 0.950 . S
C1175 C1174 1.349 . S
C1175 C1191 1.349 . S
C1176 C1174 1.327 . S
C1176 C1195 1.429 . S
C1176 H1200 0.950 . S
C1177 C1194 1.574 . S
C1177 C1196 1.368 . S
C1177 H1201 0.949 . S
H1178 C1182 0.949 . S
C1179 C1180 1.349 . S
C1179 C1181 1.327 . S
C1179 H1202 0.950 . S
C1180 C1179 1.349 . S
C1180 C1192 1.349 . S
C1181 C1179 1.327 . S
C1181 C1197 1.429 . S
C1181 H1203 0.950 . S
C1182 H1178 0.949 . S
C1182 C1190 1.574 . S
C1182 C1198 1.368 . S
H1183 C1191 0.950 . S
H1184 C1189 0.950 . S
H1185 C1190 0.949 . S
H1186 C1192 0.950 . S
H1187 C1193 0.950 . S
H1188 C1194 0.949 . S
C1189 H1184 0.950 . S
C1189 C1191 1.327 . S
C1189 C1195 1.429 . S
C1190 C1182 1.574 . S
C1190 H1185 0.949 . S
C1190 C1196 1.368 . S
C1191 C1175 1.349 . S
C1191 H1183 0.950 . S
C1191 C1189 1.327 . S
C1192 C1180 1.349 . S
C1192 H1186 0.950 . S
C1192 C1193 1.327 . S
C1193 H1187 0.950 . S
C1193 C1192 1.327 . S
C1193 C1197 1.429 . S
C1194 C1177 1.574 . S
C1194 H1188 0.949 . S
C1194 C1198 1.368 . S
C1195 C1176 1.429 . S
C1195 C1189 1.429 . S
C1195 C1196 1.523 . S
C1196 C1177 1.368 . S
C1196 C1190 1.368 . S
C1196 C1195 1.523 . S
C1197 C1181 1.429 . S
C1197 C1193 1.429 . S
C1197 C1198 1.523 . S
C1198 C1182 1.368 . S
C1198 C1194 1.368 . S
C1198 C1197 1.523 . S
H1199 C1174 0.950 . S
H1200 C1176 0.950 . S
H1201 C1177 0.949 . S
H1202 C1179 0.950 . S
H1203 C1181 0.950 . S
C1204 C1205 1.349 . S
C1204 C1206 1.327 . S
C1204 H1229 0.950 . S
C1205 C1204 1.349 . S
C1205 C1221 1.349 . S
C1206 C1204 1.327 . S
C1206 C1225 1.429 . S
C1206 H1230 0.950 . S
C1207 C1224 1.574 . S
C1207 C1226 1.368 . S
C1207 H1231 0.949 . S
H1208 C1212 0.949 . S
C1209 C1210 1.349 . S
C1209 C1211 1.327 . S
C1209 H1232 0.950 . S
C1210 C1209 1.349 . S
C1210 C1222 1.349 . S
C1211 C1209 1.327 . S
C1211 C1227 1.429 . S
C1211 H1233 0.950 . S
C1212 H1208 0.949 . S
C1212 C1220 1.574 . S
C1212 C1228 1.368 . S
H1213 C1221 0.950 . S
H1214 C1219 0.950 . S
H1215 C1220 0.949 . S
H1216 C1222 0.950 . S
H1217 C1223 0.950 . S
H1218 C1224 0.949 . S
C1219 H1214 0.950 . S
C1219 C1221 1.327 . S
C1219 C1225 1.429 . S
C1220 C1212 1.574 . S
C1220 H1215 0.949 . S
C1220 C1226 1.368 . S
C1221 C1205 1.349 . S
C1221 H1213 0.950 . S
C1221 C1219 1.327 . S
C1222 C1210 1.349 . S
C1222 H1216 0.950 . S
C1222 C1223 1.327 . S
C1223 H1217 0.950 . S
C1223 C1222 1.327 . S
C1223 C1227 1.429 . S
C1224 C1207 1.574 . S
C1224 H1218 0.949 . S
C1224 C1228 1.368 . S
C1225 C1206 1.429 . S
C1225 C1219 1.429 . S
C1225 C1226 1.523 . S
C1226 C1207 1.368 . S
C1226 C1220 1.368 . S
C1226 C1225 1.523 . S
C1227 C1211 1.429 . S
C1227 C1223 1.429 . S
C1227 C1228 1.523 . S
C1228 C1212 1.368 . S
C1228 C1224 1.368 . S
C1228 C1227 1.523 . S
H1229 C1204 0.950 . S
H1230 C1206 0.950 . S
H1231 C1207 0.949 . S
H1232 C1209 0.950 . S
H1233 C1211 0.950 . S
C1234 C1235 1.335 1_455 S
C1234 C1236 1.307 1_455 S
C1234 H1259 0.985 . S
C1235 C1234 1.335 1_655 S
C1235 C1251 1.349 . S
C1236 C1234 1.307 1_655 S
C1236 C1255 1.429 . S
C1236 H1260 0.950 . S
C1237 C1254 1.574 . S
C1237 C1256 1.368 . S
C1237 H1261 0.949 . S
H1238 C1242 0.949 . S
C1239 C1240 1.349 . S
C1239 C1241 1.327 . S
C1239 H1262 0.950 . S
C1240 C1239 1.349 . S
C1240 C1252 1.349 . S
C1241 C1239 1.327 . S
C1241 C1257 1.429 . S
C1241 H1263 0.950 . S
C1242 H1238 0.949 . S
C1242 C1250 1.574 . S
C1242 C1258 1.368 . S
H1243 C1251 0.950 . S
H1244 C1249 0.950 . S
H1245 C1250 0.949 . S
H1246 C1252 0.950 . S
H1247 C1253 0.950 . S
H1248 C1254 0.949 . S
C1249 H1244 0.950 . S
C1249 C1251 1.327 . S
C1249 C1255 1.429 . S
C1250 C1242 1.574 . S
C1250 H1245 0.949 . S
C1250 C1256 1.368 . S
C1251 C1235 1.349 . S
C1251 H1243 0.950 . S
C1251 C1249 1.327 . S
C1252 C1240 1.349 . S
C1252 H1246 0.950 . S
C1252 C1253 1.327 . S
C1253 H1247 0.950 . S
C1253 C1252 1.327 . S
C1253 C1257 1.429 . S
C1254 C1237 1.574 . S
C1254 H1248 0.949 . S
C1254 C1258 1.368 . S
C1255 C1236 1.429 . S
C1255 C1249 1.429 . S
C1255 C1256 1.523 . S
C1256 C1237 1.368 . S
C1256 C1250 1.368 . S
C1256 C1255 1.523 . S
C1257 C1241 1.429 . S
C1257 C1253 1.429 . S
C1257 C1258 1.523 . S
C1258 C1242 1.368 . S
C1258 C1254 1.368 . S
C1258 C1257 1.523 . S
H1259 C1234 0.985 . S
H1260 C1236 0.950 . S
H1261 C1237 0.949 . S
H1262 C1239 0.950 . S
H1263 C1241 0.950 . S
C1264 C1265 1.349 . S
C1264 C1266 1.327 . S
C1264 H1289 0.950 . S
C1265 C1264 1.349 . S
C1265 C1281 1.349 . S
C1266 C1264 1.327 . S
C1266 C1285 1.429 . S
C1266 H1290 0.950 . S
C1267 C1284 1.574 . S
C1267 C1286 1.368 . S
C1267 H1291 0.949 . S
H1268 C1272 0.949 . S
C1269 C1270 1.349 . S
C1269 C1271 1.327 . S
C1269 H1292 0.950 . S
C1270 C1269 1.349 . S
C1270 C1282 1.349 . S
C1271 C1269 1.327 . S
C1271 C1287 1.429 . S
C1271 H1293 0.950 . S
C1272 H1268 0.949 . S
C1272 C1280 1.574 . S
C1272 C1288 1.368 . S
H1273 C1281 0.950 . S
H1274 C1279 0.950 . S
H1275 C1280 0.949 . S
H1276 C1282 0.950 . S
H1277 C1283 0.950 . S
H1278 C1284 0.949 . S
C1279 H1274 0.950 . S
C1279 C1281 1.327 . S
C1279 C1285 1.429 . S
C1280 C1272 1.574 . S
C1280 H1275 0.949 . S
C1280 C1286 1.368 . S
C1281 C1265 1.349 . S
C1281 H1273 0.950 . S
C1281 C1279 1.327 . S
C1282 C1270 1.349 . S
C1282 H1276 0.950 . S
C1282 C1283 1.327 . S
C1283 H1277 0.950 . S
C1283 C1282 1.327 . S
C1283 C1287 1.429 . S
C1284 C1267 1.574 . S
C1284 H1278 0.949 . S
C1284 C1288 1.368 . S
C1285 C1266 1.429 . S
C1285 C1279 1.429 . S
C1285 C1286 1.523 . S
C1286 C1267 1.368 . S
C1286 C1280 1.368 . S
C1286 C1285 1.523 . S
C1287 C1271 1.429 . S
C1287 C1283 1.429 . S
C1287 C1288 1.523 . S
C1288 C1272 1.368 . S
C1288 C1284 1.368 . S
C1288 C1287 1.523 . S
H1289 C1264 0.950 . S
H1290 C1266 0.950 . S
H1291 C1267 0.949 . S
H1292 C1269 0.950 . S
H1293 C1271 0.950 . S
C1294 C1295 1.350 . S
C1294 C1296 1.322 1_655 S
C1294 H1319 0.954 . S
C1295 C1294 1.350 . S
C1295 C1311 1.349 1_655 S
C1296 C1294 1.322 1_455 S
C1296 C1315 1.429 . S
C1296 H1320 0.950 . S
C1297 C1314 1.574 . S
C1297 C1316 1.368 . S
C1297 H1321 0.949 . S
H1298 C1302 0.949 . S
C1299 C1300 1.349 . S
C1299 C1301 1.327 . S
C1299 H1322 0.950 . S
C1300 C1299 1.349 . S
C1300 C1312 1.349 . S
C1301 C1299 1.327 . S
C1301 C1317 1.429 . S
C1301 H1323 0.950 . S
C1302 H1298 0.949 . S
C1302 C1310 1.574 . S
C1302 C1318 1.368 . S
H1303 C1311 0.950 . S
H1304 C1309 0.950 . S
H1305 C1310 0.949 . S
H1306 C1312 0.950 . S
H1307 C1313 0.950 . S
H1308 C1314 0.949 . S
C1309 H1304 0.950 . S
C1309 C1311 1.327 . S
C1309 C1315 1.429 . S
C1310 C1302 1.574 . S
C1310 H1305 0.949 . S
C1310 C1316 1.368 . S
C1311 C1295 1.349 1_455 S
C1311 H1303 0.950 . S
C1311 C1309 1.327 . S
C1312 C1300 1.349 . S
C1312 H1306 0.950 . S
C1312 C1313 1.327 . S
C1313 H1307 0.950 . S
C1313 C1312 1.327 . S
C1313 C1317 1.429 . S
C1314 C1297 1.574 . S
C1314 H1308 0.949 . S
C1314 C1318 1.368 . S
C1315 C1296 1.429 . S
C1315 C1309 1.429 . S
C1315 C1316 1.523 . S
C1316 C1297 1.368 . S
C1316 C1310 1.368 . S
C1316 C1315 1.523 . S
C1317 C1301 1.429 . S
C1317 C1313 1.429 . S
C1317 C1318 1.523 . S
C1318 C1302 1.368 . S
C1318 C1314 1.368 . S
C1318 C1317 1.523 . S
H1319 C1294 0.954 . S
H1320 C1296 0.950 . S
H1321 C1297 0.949 . S
H1322 C1299 0.950 . S
H1323 C1301 0.950 . S
C1324 C1325 1.349 . S
C1324 C1326 1.327 . S
C1324 H1349 0.950 . S
C1325 C1324 1.349 . S
C1325 C1341 1.349 . S
C1326 C1324 1.327 . S
C1326 C1345 1.429 . S
C1326 H1350 0.950 . S
C1327 C1344 1.574 . S
C1327 C1346 1.368 . S
C1327 H1351 0.949 . S
H1328 C1332 0.949 . S
C1329 C1330 1.349 . S
C1329 C1331 1.327 . S
C1329 H1352 0.950 . S
C1330 C1329 1.349 . S
C1330 C1342 1.349 . S
C1331 C1329 1.327 . S
C1331 C1347 1.429 . S
C1331 H1353 0.950 . S
C1332 H1328 0.949 . S
C1332 C1340 1.574 . S
C1332 C1348 1.368 . S
H1333 C1341 0.950 . S
H1334 C1339 0.950 . S
H1335 C1340 0.949 . S
H1336 C1342 0.950 . S
H1337 C1343 0.950 . S
H1338 C1344 0.949 . S
C1339 H1334 0.950 . S
C1339 C1341 1.327 . S
C1339 C1345 1.429 . S
C1340 C1332 1.574 . S
C1340 H1335 0.949 . S
C1340 C1346 1.368 . S
C1341 C1325 1.349 . S
C1341 H1333 0.950 . S
C1341 C1339 1.327 . S
C1342 C1330 1.349 . S
C1342 H1336 0.950 . S
C1342 C1343 1.327 . S
C1343 H1337 0.950 . S
C1343 C1342 1.327 . S
C1343 C1347 1.429 . S
C1344 C1327 1.574 . S
C1344 H1338 0.949 . S
C1344 C1348 1.368 . S
C1345 C1326 1.429 . S
C1345 C1339 1.429 . S
C1345 C1346 1.523 . S
C1346 C1327 1.368 . S
C1346 C1340 1.368 . S
C1346 C1345 1.523 . S
C1347 C1331 1.429 . S
C1347 C1343 1.429 . S
C1347 C1348 1.523 . S
C1348 C1332 1.368 . S
C1348 C1344 1.368 . S
C1348 C1347 1.523 . S
H1349 C1324 0.950 . S
H1350 C1326 0.950 . S
H1351 C1327 0.949 . S
H1352 C1329 0.950 . S
H1353 C1331 0.950 . S
C1354 C1355 1.349 . S
C1354 C1356 1.327 . S
C1354 H1379 0.950 . S
C1355 C1354 1.349 . S
C1355 C1371 1.349 . S
C1356 C1354 1.327 . S
C1356 C1375 1.429 . S
C1356 H1380 0.950 . S
C1357 C1374 1.574 . S
C1357 C1376 1.368 1_455 S
C1357 H1381 0.949 . S
H1358 C1362 0.949 . S
C1359 C1360 1.349 1_455 S
C1359 C1361 1.327 . S
C1359 H1382 0.950 . S
C1360 C1359 1.349 1_655 S
C1360 C1372 1.349 . S
C1361 C1359 1.327 . S
C1361 C1377 1.429 1_455 S
C1361 H1383 0.950 . S
C1362 H1358 0.949 . S
C1362 C1370 1.574 . S
C1362 C1378 1.368 . S
H1363 C1371 0.950 1_455 S
H1364 C1369 0.950 1_455 S
H1365 C1370 0.949 1_554 S
H1366 C1372 0.950 . S
H1367 C1373 0.950 . S
H1368 C1374 0.949 . S
C1369 H1364 0.950 1_655 S
C1369 C1371 1.327 . S
C1369 C1375 1.429 . S
C1370 C1362 1.574 . S
C1370 H1365 0.949 1_556 S
C1370 C1376 1.368 . S
C1371 C1355 1.349 . S
C1371 H1363 0.950 1_655 S
C1371 C1369 1.327 . S
C1372 C1360 1.349 . S
C1372 H1366 0.950 . S
C1372 C1373 1.327 . S
C1373 H1367 0.950 . S
C1373 C1372 1.327 . S
C1373 C1377 1.429 . S
C1374 C1357 1.574 . S
C1374 H1368 0.949 . S
C1374 C1378 1.368 1_455 S
C1375 C1356 1.429 . S
C1375 C1369 1.429 . S
C1375 C1376 1.523 1_554 S
C1376 C1357 1.368 1_655 S
C1376 C1370 1.368 . S
C1376 C1375 1.523 1_556 S
C1377 C1361 1.429 1_655 S
C1377 C1373 1.429 . S
C1377 C1378 1.523 . S
C1378 C1362 1.368 . S
C1378 C1374 1.368 1_655 S
C1378 C1377 1.523 . S
H1379 C1354 0.950 . S
H1380 C1356 0.950 . S
H1381 C1357 0.949 . S
H1382 C1359 0.950 . S
H1383 C1361 0.950 . S
C1384 C1385 1.349 . S
C1384 C1386 1.327 . S
C1384 H1409 0.950 . S
C1385 C1384 1.349 . S
C1385 C1401 1.349 . S
C1386 C1384 1.327 . S
C1386 C1405 1.429 . S
C1386 H1410 0.950 . S
C1387 C1404 1.574 . S
C1387 C1406 1.368 . S
C1387 H1411 0.949 . S
H1388 C1392 0.949 . S
C1389 C1390 1.349 . S
C1389 C1391 1.327 . S
C1389 H1412 0.950 . S
C1390 C1389 1.349 . S
C1390 C1402 1.349 . S
C1391 C1389 1.327 . S
C1391 C1407 1.429 . S
C1391 H1413 0.950 . S
C1392 H1388 0.949 . S
C1392 C1400 1.574 . S
C1392 C1408 1.368 . S
H1393 C1401 0.950 . S
H1394 C1399 0.950 . S
H1395 C1400 0.949 . S
H1396 C1402 0.950 . S
H1397 C1403 0.950 . S
H1398 C1404 0.949 . S
C1399 H1394 0.950 . S
C1399 C1401 1.327 . S
C1399 C1405 1.429 . S
C1400 C1392 1.574 . S
C1400 H1395 0.949 . S
C1400 C1406 1.368 . S
C1401 C1385 1.349 . S
C1401 H1393 0.950 . S
C1401 C1399 1.327 . S
C1402 C1390 1.349 . S
C1402 H1396 0.950 . S
C1402 C1403 1.327 . S
C1403 H1397 0.950 . S
C1403 C1402 1.327 . S
C1403 C1407 1.429 . S
C1404 C1387 1.574 . S
C1404 H1398 0.949 . S
C1404 C1408 1.368 . S
C1405 C1386 1.429 . S
C1405 C1399 1.429 . S
C1405 C1406 1.523 . S
C1406 C1387 1.368 . S
C1406 C1400 1.368 . S
C1406 C1405 1.523 . S
C1407 C1391 1.429 . S
C1407 C1403 1.429 . S
C1407 C1408 1.523 . S
C1408 C1392 1.368 . S
C1408 C1404 1.368 . S
C1408 C1407 1.523 . S
H1409 C1384 0.950 . S
H1410 C1386 0.950 . S
H1411 C1387 0.949 . S
H1412 C1389 0.950 . S
H1413 C1391 0.950 . S
C1414 C1415 1.349 . S
C1414 C1416 1.327 . S
C1414 H1439 0.950 . S
C1415 C1414 1.349 . S
C1415 C1431 1.349 . S
C1416 C1414 1.327 . S
C1416 C1435 1.429 . S
C1416 H1440 0.950 . S
C1417 C1434 1.574 . S
C1417 C1436 1.358 1_556 S
C1417 H1441 0.949 . S
H1418 C1422 0.949 1_554 S
C1419 C1420 1.349 . S
C1419 C1421 1.327 . S
C1419 H1442 0.950 . S
C1420 C1419 1.349 . S
C1420 C1432 1.349 . S
C1421 C1419 1.327 . S
C1421 C1437 1.429 . S
C1421 H1443 0.950 . S
C1422 H1418 0.949 1_556 S
C1422 C1430 1.574 1_556 S
C1422 C1438 1.368 . S
H1423 C1431 0.950 . S
H1424 C1429 0.950 1_556 S
H1425 C1430 0.949 . S
H1426 C1432 0.950 . S
H1427 C1433 0.950 . S
H1428 C1434 0.949 . S
C1429 H1424 0.950 1_554 S
C1429 C1431 1.327 . S
C1429 C1435 1.429 . S
C1430 C1422 1.574 1_554 S
C1430 H1425 0.949 . S
C1430 C1436 1.373 . S
C1431 C1415 1.349 . S
C1431 H1423 0.950 . S
C1431 C1429 1.327 . S
C1432 C1420 1.349 . S
C1432 H1426 0.950 . S
C1432 C1433 1.327 . S
C1433 H1427 0.950 . S
C1433 C1432 1.327 . S
C1433 C1437 1.429 . S
C1434 C1417 1.574 . S
C1434 H1428 0.949 . S
C1434 C1438 1.368 . S
C1435 C1416 1.429 . S
C1435 C1429 1.429 . S
C1435 C1436 1.530 . S
C1436 C1417 1.358 1_554 S
C1436 C1430 1.373 . S
C1436 C1435 1.530 . S
C1437 C1421 1.429 . S
C1437 C1433 1.429 . S
C1437 C1438 1.523 . S
C1438 C1422 1.368 . S
C1438 C1434 1.368 . S
C1438 C1437 1.523 . S
H1439 C1414 0.950 . S
H1440 C1416 0.950 . S
H1441 C1417 0.949 . S
H1442 C1419 0.950 . S
H1443 C1421 0.950 . S
C1444 C1445 1.349 . S
C1444 C1446 1.327 . S
C1444 H1469 0.950 . S
C1445 C1444 1.349 . S
C1445 C1461 1.349 . S
C1446 C1444 1.327 . S
C1446 C1465 1.429 . S
C1446 H1470 0.950 . S
C1447 C1464 1.574 . S
C1447 C1466 1.368 . S
C1447 H1471 0.949 . S
H1448 C1452 0.949 . S
C1449 C1450 1.349 . S
C1449 C1451 1.327 . S
C1449 H1472 0.950 . S
C1450 C1449 1.349 . S
C1450 C1462 1.349 . S
C1451 C1449 1.327 . S
C1451 C1467 1.429 . S
C1451 H1473 0.950 . S
C1452 H1448 0.949 . S
C1452 C1460 1.574 . S
C1452 C1468 1.368 . S
H1453 C1461 0.950 . S
H1454 C1459 0.950 . S
H1455 C1460 0.949 . S
H1456 C1462 0.950 . S
H1457 C1463 0.950 . S
H1458 C1464 0.949 . S
C1459 H1454 0.950 . S
C1459 C1461 1.327 . S
C1459 C1465 1.429 . S
C1460 C1452 1.574 . S
C1460 H1455 0.949 . S
C1460 C1466 1.368 . S
C1461 C1445 1.349 . S
C1461 H1453 0.950 . S
C1461 C1459 1.327 . S
C1462 C1450 1.349 . S
C1462 H1456 0.950 . S
C1462 C1463 1.327 . S
C1463 H1457 0.950 . S
C1463 C1462 1.327 . S
C1463 C1467 1.429 . S
C1464 C1447 1.574 . S
C1464 H1458 0.949 . S
C1464 C1468 1.368 . S
C1465 C1446 1.429 . S
C1465 C1459 1.429 . S
C1465 C1466 1.523 . S
C1466 C1447 1.368 . S
C1466 C1460 1.368 . S
C1466 C1465 1.523 . S
C1467 C1451 1.429 . S
C1467 C1463 1.429 . S
C1467 C1468 1.523 . S
C1468 C1452 1.368 . S
C1468 C1464 1.368 . S
C1468 C1467 1.523 . S
H1469 C1444 0.950 . S
H1470 C1446 0.950 . S
H1471 C1447 0.949 . S
H1472 C1449 0.950 . S
H1473 C1451 0.950 . S
C1474 C1475 1.349 . S
C1474 C1476 1.327 . S
C1474 H1499 0.950 . S
C1475 C1474 1.349 . S
C1475 C1491 1.349 . S
C1476 C1474 1.327 . S
C1476 C1495 1.429 1_556 S
C1476 H1500 0.950 . S
C1477 C1494 1.574 . S
C1477 C1496 1.368 . S
C1477 H1501 0.949 . S
H1478 C1482 0.949 . S
C1479 C1480 1.349 . S
C1479 C1481 1.327 . S
C1479 H1502 0.950 . S
C1480 C1479 1.349 . S
C1480 C1492 1.349 . S
C1481 C1479 1.327 . S
C1481 C1497 1.429 . S
C1481 H1503 0.950 . S
C1482 H1478 0.949 . S
C1482 C1490 1.574 . S
C1482 C1498 1.368 . S
H1483 C1491 0.950 . S
H1484 C1489 0.950 . S
H1485 C1490 0.949 . S
H1486 C1492 0.950 . S
H1487 C1493 0.950 . S
H1488 C1494 0.949 . S
C1489 H1484 0.950 . S
C1489 C1491 1.327 1_554 S
C1489 C1495 1.429 . S
C1490 C1482 1.574 . S
C1490 H1485 0.949 . S
C1490 C1496 1.368 . S
C1491 C1475 1.349 . S
C1491 H1483 0.950 . S
C1491 C1489 1.327 1_556 S
C1492 C1480 1.349 . S
C1492 H1486 0.950 . S
C1492 C1493 1.327 . S
C1493 H1487 0.950 . S
C1493 C1492 1.327 . S
C1493 C1497 1.429 . S
C1494 C1477 1.574 . S
C1494 H1488 0.949 . S
C1494 C1498 1.368 . S
C1495 C1476 1.429 1_554 S
C1495 C1489 1.429 . S
C1495 C1496 1.523 . S
C1496 C1477 1.368 . S
C1496 C1490 1.368 . S
C1496 C1495 1.523 . S
C1497 C1481 1.429 . S
C1497 C1493 1.429 . S
C1497 C1498 1.523 . S
C1498 C1482 1.368 . S
C1498 C1494 1.368 . S
C1498 C1497 1.523 . S
H1499 C1474 0.950 . S
H1500 C1476 0.950 . S
H1501 C1477 0.949 . S
H1502 C1479 0.950 . S
H1503 C1481 0.950 . S
C1504 C1505 1.349 . S
C1504 C1506 1.327 . S
C1504 H1529 0.950 . S
C1505 C1504 1.349 . S
C1505 C1521 1.349 . S
C1506 C1504 1.327 . S
C1506 C1525 1.429 . S
C1506 H1530 0.950 . S
C1507 C1524 1.574 . S
C1507 C1526 1.368 . S
C1507 H1531 0.949 . S
H1508 C1512 0.949 . S
C1509 C1510 1.349 . S
C1509 C1511 1.327 . S
C1509 H1532 0.950 . S
C1510 C1509 1.349 . S
C1510 C1522 1.349 . S
C1511 C1509 1.327 . S
C1511 C1527 1.429 . S
C1511 H1533 0.950 . S
C1512 H1508 0.949 . S
C1512 C1520 1.574 . S
C1512 C1528 1.368 . S
H1513 C1521 0.950 . S
H1514 C1519 0.950 . S
H1515 C1520 0.949 . S
H1516 C1522 0.950 . S
H1517 C1523 0.950 . S
H1518 C1524 0.949 . S
C1519 H1514 0.950 . S
C1519 C1521 1.327 . S
C1519 C1525 1.429 . S
C1520 C1512 1.574 . S
C1520 H1515 0.949 . S
C1520 C1526 1.368 . S
C1521 C1505 1.349 . S
C1521 H1513 0.950 . S
C1521 C1519 1.327 . S
C1522 C1510 1.349 . S
C1522 H1516 0.950 . S
C1522 C1523 1.327 . S
C1523 H1517 0.950 . S
C1523 C1522 1.327 . S
C1523 C1527 1.429 . S
C1524 C1507 1.574 . S
C1524 H1518 0.949 . S
C1524 C1528 1.368 . S
C1525 C1506 1.429 . S
C1525 C1519 1.429 . S
C1525 C1526 1.523 . S
C1526 C1507 1.368 . S
C1526 C1520 1.368 . S
C1526 C1525 1.523 . S
C1527 C1511 1.429 . S
C1527 C1523 1.429 . S
C1527 C1528 1.523 . S
C1528 C1512 1.368 . S
C1528 C1524 1.368 . S
C1528 C1527 1.523 . S
H1529 C1504 0.950 . S
H1530 C1506 0.950 . S
H1531 C1507 0.949 . S
H1532 C1509 0.950 . S
H1533 C1511 0.950 . S
C1534 C1535 1.349 . S
C1534 C1536 1.327 . S
C1534 H1559 0.950 . S
C1535 C1534 1.349 . S
C1535 C1551 1.349 1_556 S
C1536 C1534 1.327 . S
C1536 C1555 1.429 1_556 S
C1536 H1560 0.950 . S
C1537 C1554 1.574 . S
C1537 C1556 1.368 . S
C1537 H1561 0.949 . S
H1538 C1542 0.949 . S
C1539 C1540 1.349 . S
C1539 C1541 1.327 . S
C1539 H1562 0.950 . S
C1540 C1539 1.349 . S
C1540 C1552 1.349 . S
C1541 C1539 1.327 . S
C1541 C1557 1.429 . S
C1541 H1563 0.950 . S
C1542 H1538 0.949 . S
C1542 C1550 1.574 . S
C1542 C1558 1.368 . S
H1543 C1551 0.950 . S
H1544 C1549 0.950 . S
H1545 C1550 0.949 . S
H1546 C1552 0.950 . S
H1547 C1553 0.950 . S
H1548 C1554 0.949 . S
C1549 H1544 0.950 . S
C1549 C1551 1.327 . S
C1549 C1555 1.429 . S
C1550 C1542 1.574 . S
C1550 H1545 0.949 . S
C1550 C1556 1.368 . S
C1551 C1535 1.349 1_554 S
C1551 H1543 0.950 . S
C1551 C1549 1.327 . S
C1552 C1540 1.349 . S
C1552 H1546 0.950 . S
C1552 C1553 1.327 . S
C1553 H1547 0.950 . S
C1553 C1552 1.327 . S
C1553 C1557 1.429 . S
C1554 C1537 1.574 . S
C1554 H1548 0.949 . S
C1554 C1558 1.368 . S
C1555 C1536 1.429 1_554 S
C1555 C1549 1.429 . S
C1555 C1556 1.523 . S
C1556 C1537 1.368 . S
C1556 C1550 1.368 . S
C1556 C1555 1.523 . S
C1557 C1541 1.429 . S
C1557 C1553 1.429 . S
C1557 C1558 1.523 . S
C1558 C1542 1.368 . S
C1558 C1554 1.368 . S
C1558 C1557 1.523 . S
H1559 C1534 0.950 . S
H1560 C1536 0.950 . S
H1561 C1537 0.949 . S
H1562 C1539 0.950 . S
H1563 C1541 0.950 . S
C1564 C1565 1.349 . S
C1564 C1566 1.327 . S
C1564 H1589 0.950 . S
C1565 C1564 1.349 . S
C1565 C1581 1.349 . S
C1566 C1564 1.327 . S
C1566 C1585 1.429 . S
C1566 H1590 0.950 . S
C1567 C1584 1.574 . S
C1567 C1586 1.368 . S
C1567 H1591 0.949 . S
H1568 C1572 0.949 . S
C1569 C1570 1.349 . S
C1569 C1571 1.327 . S
C1569 H1592 0.950 . S
C1570 C1569 1.349 . S
C1570 C1582 1.349 . S
C1571 C1569 1.327 . S
C1571 C1587 1.429 . S
C1571 H1593 0.950 . S
C1572 H1568 0.949 . S
C1572 C1580 1.574 . S
C1572 C1588 1.368 . S
H1573 C1581 0.950 . S
H1574 C1579 0.950 . S
H1575 C1580 0.949 . S
H1576 C1582 0.950 . S
H1577 C1583 0.950 . S
H1578 C1584 0.949 . S
C1579 H1574 0.950 . S
C1579 C1581 1.327 . S
C1579 C1585 1.429 . S
C1580 C1572 1.574 . S
C1580 H1575 0.949 . S
C1580 C1586 1.368 . S
C1581 C1565 1.349 . S
C1581 H1573 0.950 . S
C1581 C1579 1.327 . S
C1582 C1570 1.349 . S
C1582 H1576 0.950 . S
C1582 C1583 1.327 . S
C1583 H1577 0.950 . S
C1583 C1582 1.327 . S
C1583 C1587 1.429 . S
C1584 C1567 1.574 . S
C1584 H1578 0.949 . S
C1584 C1588 1.368 . S
C1585 C1566 1.429 . S
C1585 C1579 1.429 . S
C1585 C1586 1.523 . S
C1586 C1567 1.368 . S
C1586 C1580 1.368 . S
C1586 C1585 1.523 . S
C1587 C1571 1.429 . S
C1587 C1583 1.429 . S
C1587 C1588 1.523 . S
C1588 C1572 1.368 . S
C1588 C1584 1.368 . S
C1588 C1587 1.523 . S
H1589 C1564 0.950 . S
H1590 C1566 0.950 . S
H1591 C1567 0.949 . S
H1592 C1569 0.950 . S
H1593 C1571 0.950 . S
C1594 C1595 1.349 . S
C1594 C1596 1.327 . S
C1594 H1619 0.950 . S
C1595 C1594 1.349 . S
C1595 C1611 1.349 . S
C1596 C1594 1.327 . S
C1596 C1615 1.429 . S
C1596 H1620 0.950 . S
C1597 C1614 1.574 . S
C1597 C1616 1.368 . S
C1597 H1621 0.949 . S
H1598 C1602 0.949 . S
C1599 C1600 1.349 . S
C1599 C1601 1.327 . S
C1599 H1622 0.950 . S
C1600 C1599 1.349 . S
C1600 C1612 1.349 . S
C1601 C1599 1.327 . S
C1601 C1617 1.429 . S
C1601 H1623 0.950 . S
C1602 H1598 0.949 . S
C1602 C1610 1.574 . S
C1602 C1618 1.368 . S
H1603 C1611 0.950 . S
H1604 C1609 0.950 . S
H1605 C1610 0.949 . S
H1606 C1612 0.950 . S
H1607 C1613 0.950 . S
H1608 C1614 0.949 . S
C1609 H1604 0.950 . S
C1609 C1611 1.327 . S
C1609 C1615 1.429 . S
C1610 C1602 1.574 . S
C1610 H1605 0.949 . S
C1610 C1616 1.368 . S
C1611 C1595 1.349 . S
C1611 H1603 0.950 . S
C1611 C1609 1.327 . S
C1612 C1600 1.349 . S
C1612 H1606 0.950 . S
C1612 C1613 1.327 . S
C1613 H1607 0.950 . S
C1613 C1612 1.327 . S
C1613 C1617 1.429 . S
C1614 C1597 1.574 . S
C1614 H1608 0.949 . S
C1614 C1618 1.368 . S
C1615 C1596 1.429 . S
C1615 C1609 1.429 . S
C1615 C1616 1.523 . S
C1616 C1597 1.368 . S
C1616 C1610 1.368 . S
C1616 C1615 1.523 . S
C1617 C1601 1.429 . S
C1617 C1613 1.429 . S
C1617 C1618 1.523 . S
C1618 C1602 1.368 . S
C1618 C1614 1.368 . S
C1618 C1617 1.523 . S
H1619 C1594 0.950 . S
H1620 C1596 0.950 . S
H1621 C1597 0.949 . S
H1622 C1599 0.950 . S
H1623 C1601 0.950 . S
C1624 C1625 1.349 . S
C1624 C1626 1.327 . S
C1624 H1649 0.950 . S
C1625 C1624 1.349 . S
C1625 C1641 1.349 . S
C1626 C1624 1.327 . S
C1626 C1645 1.429 . S
C1626 H1650 0.950 . S
C1627 C1644 1.574 . S
C1627 C1646 1.368 . S
C1627 H1651 0.949 . S
H1628 C1632 0.949 . S
C1629 C1630 1.349 . S
C1629 C1631 1.327 . S
C1629 H1652 0.950 . S
C1630 C1629 1.349 . S
C1630 C1642 1.349 . S
C1631 C1629 1.327 . S
C1631 C1647 1.429 . S
C1631 H1653 0.950 . S
C1632 H1628 0.949 . S
C1632 C1640 1.574 . S
C1632 C1648 1.368 . S
H1633 C1641 0.950 . S
H1634 C1639 0.950 . S
H1635 C1640 0.949 . S
H1636 C1642 0.950 . S
H1637 C1643 0.950 . S
H1638 C1644 0.949 . S
C1639 H1634 0.950 . S
C1639 C1641 1.327 . S
C1639 C1645 1.429 . S
C1640 C1632 1.574 . S
C1640 H1635 0.949 . S
C1640 C1646 1.368 . S
C1641 C1625 1.349 . S
C1641 H1633 0.950 . S
C1641 C1639 1.327 . S
C1642 C1630 1.349 . S
C1642 H1636 0.950 . S
C1642 C1643 1.327 . S
C1643 H1637 0.950 . S
C1643 C1642 1.327 . S
C1643 C1647 1.429 . S
C1644 C1627 1.574 . S
C1644 H1638 0.949 . S
C1644 C1648 1.368 . S
C1645 C1626 1.429 . S
C1645 C1639 1.429 . S
C1645 C1646 1.523 . S
C1646 C1627 1.368 . S
C1646 C1640 1.368 . S
C1646 C1645 1.523 . S
C1647 C1631 1.429 . S
C1647 C1643 1.429 . S
C1647 C1648 1.523 . S
C1648 C1632 1.368 . S
C1648 C1644 1.368 . S
C1648 C1647 1.523 . S
H1649 C1624 0.950 . S
H1650 C1626 0.950 . S
H1651 C1627 0.949 . S
H1652 C1629 0.950 . S
H1653 C1631 0.950 . S
C1654 C1655 1.349 . S
C1654 C1656 1.327 . S
C1654 H1679 0.950 . S
C1655 C1654 1.349 . S
C1655 C1671 1.349 . S
C1656 C1654 1.327 . S
C1656 C1675 1.429 . S
C1656 H1680 0.950 . S
C1657 C1674 1.574 . S
C1657 C1676 1.368 . S
C1657 H1681 0.949 . S
H1658 C1662 0.949 . S
C1659 C1660 1.349 . S
C1659 C1661 1.327 . S
C1659 H1682 0.950 . S
C1660 C1659 1.349 . S
C1660 C1672 1.349 . S
C1661 C1659 1.327 . S
C1661 C1677 1.429 . S
C1661 H1683 0.950 . S
C1662 H1658 0.949 . S
C1662 C1670 1.574 . S
C1662 C1678 1.368 . S
H1663 C1671 0.950 . S
H1664 C1669 0.950 . S
H1665 C1670 0.949 . S
H1666 C1672 0.950 . S
H1667 C1673 0.950 . S
H1668 C1674 0.949 . S
C1669 H1664 0.950 . S
C1669 C1671 1.327 . S
C1669 C1675 1.429 . S
C1670 C1662 1.574 . S
C1670 H1665 0.949 . S
C1670 C1676 1.368 . S
C1671 C1655 1.349 . S
C1671 H1663 0.950 . S
C1671 C1669 1.327 . S
C1672 C1660 1.349 . S
C1672 H1666 0.950 . S
C1672 C1673 1.327 . S
C1673 H1667 0.950 . S
C1673 C1672 1.327 . S
C1673 C1677 1.429 . S
C1674 C1657 1.574 . S
C1674 H1668 0.949 . S
C1674 C1678 1.368 . S
C1675 C1656 1.429 . S
C1675 C1669 1.429 . S
C1675 C1676 1.523 . S
C1676 C1657 1.368 . S
C1676 C1670 1.368 . S
C1676 C1675 1.523 . S
C1677 C1661 1.429 . S
C1677 C1673 1.429 . S
C1677 C1678 1.523 . S
C1678 C1662 1.368 . S
C1678 C1674 1.368 . S
C1678 C1677 1.523 . S
H1679 C1654 0.950 . S
H1680 C1656 0.950 . S
H1681 C1657 0.949 . S
H1682 C1659 0.950 . S
H1683 C1661 0.950 . S
C1684 C1685 1.349 . S
C1684 C1686 1.327 . S
C1684 H1709 0.950 . S
C1685 C1684 1.349 . S
C1685 C1701 1.349 . S
C1686 C1684 1.327 . S
C1686 C1705 1.429 . S
C1686 H1710 0.950 . S
C1687 C1704 1.574 . S
C1687 C1706 1.368 . S
C1687 H1711 0.918 1_556 S
H1688 C1692 0.949 . S
C1689 C1690 1.349 1_554 S
C1689 C1691 1.328 . S
C1689 H1712 0.950 . S
C1690 C1689 1.349 1_556 S
C1690 C1702 1.349 . S
C1691 C1689 1.328 . S
C1691 C1707 1.417 1_554 S
C1691 H1713 0.961 . S
C1692 H1688 0.949 . S
C1692 C1700 1.574 . S
C1692 C1708 1.368 . S
H1693 C1701 0.950 . S
H1694 C1699 0.950 . S
H1695 C1700 0.949 . S
H1696 C1702 0.950 . S
H1697 C1703 0.950 . S
H1698 C1704 0.949 1_554 S
C1699 H1694 0.950 . S
C1699 C1701 1.327 . S
C1699 C1705 1.429 . S
C1700 C1692 1.574 . S
C1700 H1695 0.949 . S
C1700 C1706 1.368 . S
C1701 C1685 1.349 . S
C1701 H1693 0.950 . S
C1701 C1699 1.327 . S
C1702 C1690 1.349 . S
C1702 H1696 0.950 . S
C1702 C1703 1.327 . S
C1703 H1697 0.950 . S
C1703 C1702 1.327 . S
C1703 C1707 1.429 . S
C1704 C1687 1.574 . S
C1704 H1698 0.949 1_556 S
C1704 C1708 1.368 . S
C1705 C1686 1.429 . S
C1705 C1699 1.429 . S
C1705 C1706 1.523 . S
C1706 C1687 1.368 . S
C1706 C1700 1.368 . S
C1706 C1705 1.523 . S
C1707 C1691 1.417 1_556 S
C1707 C1703 1.429 . S
C1707 C1708 1.523 . S
C1708 C1692 1.368 . S
C1708 C1704 1.368 . S
C1708 C1707 1.523 . S
H1709 C1684 0.950 . S
H1710 C1686 0.950 . S
H1711 C1687 0.918 1_554 S
H1712 C1689 0.950 . S
H1713 C1691 0.961 . S
C1714 C1715 1.349 . S
C1714 C1716 1.327 . S
C1714 H1739 0.950 . S
C1715 C1714 1.349 . S
C1715 C1731 1.349 . S
C1716 C1714 1.327 . S
C1716 C1735 1.429 . S
C1716 H1740 0.950 . S
C1717 C1734 1.574 . S
C1717 C1736 1.368 . S
C1717 H1741 0.949 . S
H1718 C1722 0.949 . S
C1719 C1720 1.349 . S
C1719 C1721 1.327 . S
C1719 H1742 0.950 . S
C1720 C1719 1.349 . S
C1720 C1732 1.349 . S
C1721 C1719 1.327 . S
C1721 C1737 1.429 . S
C1721 H1743 0.950 . S
C1722 H1718 0.949 . S
C1722 C1730 1.574 . S
C1722 C1738 1.368 . S
H1723 C1731 0.950 . S
H1724 C1729 0.950 . S
H1725 C1730 0.949 . S
H1726 C1732 0.950 . S
H1727 C1733 0.950 . S
H1728 C1734 0.949 . S
C1729 H1724 0.950 . S
C1729 C1731 1.327 . S
C1729 C1735 1.429 . S
C1730 C1722 1.574 . S
C1730 H1725 0.949 . S
C1730 C1736 1.368 . S
C1731 C1715 1.349 . S
C1731 H1723 0.950 . S
C1731 C1729 1.327 . S
C1732 C1720 1.349 . S
C1732 H1726 0.950 . S
C1732 C1733 1.327 . S
C1733 H1727 0.950 . S
C1733 C1732 1.327 . S
C1733 C1737 1.429 . S
C1734 C1717 1.574 . S
C1734 H1728 0.949 . S
C1734 C1738 1.368 . S
C1735 C1716 1.429 . S
C1735 C1729 1.429 . S
C1735 C1736 1.523 . S
C1736 C1717 1.368 . S
C1736 C1730 1.368 . S
C1736 C1735 1.523 . S
C1737 C1721 1.429 . S
C1737 C1733 1.429 . S
C1737 C1738 1.523 . S
C1738 C1722 1.368 . S
C1738 C1734 1.368 . S
C1738 C1737 1.523 . S
H1739 C1714 0.950 . S
H1740 C1716 0.950 . S
H1741 C1717 0.949 . S
H1742 C1719 0.950 . S
H1743 C1721 0.950 . S
C1744 C1745 1.349 . S
C1744 C1746 1.327 . S
C1744 H1769 0.950 . S
C1745 C1744 1.349 . S
C1745 C1761 1.349 . S
C1746 C1744 1.327 . S
C1746 C1765 1.429 . S
C1746 H1770 0.950 . S
C1747 C1764 1.574 . S
C1747 C1766 1.368 . S
C1747 H1771 0.949 . S
H1748 C1752 0.949 . S
C1749 C1750 1.349 . S
C1749 C1751 1.327 . S
C1749 H1772 0.950 . S
C1750 C1749 1.349 . S
C1750 C1762 1.349 . S
C1751 C1749 1.327 . S
C1751 C1767 1.429 . S
C1751 H1773 0.950 . S
C1752 H1748 0.949 . S
C1752 C1760 1.574 . S
C1752 C1768 1.368 . S
H1753 C1761 0.950 . S
H1754 C1759 0.950 . S
H1755 C1760 0.949 . S
H1756 C1762 0.950 . S
H1757 C1763 0.950 . S
H1758 C1764 0.949 . S
C1759 H1754 0.950 . S
C1759 C1761 1.327 . S
C1759 C1765 1.429 . S
C1760 C1752 1.574 . S
C1760 H1755 0.949 . S
C1760 C1766 1.368 . S
C1761 C1745 1.349 . S
C1761 H1753 0.950 . S
C1761 C1759 1.327 . S
C1762 C1750 1.349 . S
C1762 H1756 0.950 . S
C1762 C1763 1.327 . S
C1763 H1757 0.950 . S
C1763 C1762 1.327 . S
C1763 C1767 1.429 . S
C1764 C1747 1.574 . S
C1764 H1758 0.949 . S
C1764 C1768 1.368 . S
C1765 C1746 1.429 . S
C1765 C1759 1.429 . S
C1765 C1766 1.523 . S
C1766 C1747 1.368 . S
C1766 C1760 1.368 . S
C1766 C1765 1.523 . S
C1767 C1751 1.429 . S
C1767 C1763 1.429 . S
C1767 C1768 1.523 . S
C1768 C1752 1.368 . S
C1768 C1764 1.368 . S
C1768 C1767 1.523 . S
H1769 C1744 0.950 . S
H1770 C1746 0.950 . S
H1771 C1747 0.949 . S
H1772 C1749 0.950 . S
H1773 C1751 0.950 . S
C1774 C1775 1.338 1_545 S
C1774 C1776 1.327 1_545 S
C1774 H1799 0.950 . S
C1775 C1774 1.338 1_565 S
C1775 C1791 1.374 . S
C1776 C1774 1.327 1_565 S
C1776 C1795 1.429 . S
C1776 H1800 0.950 1_565 S
C1777 C1794 1.574 . S
C1777 C1796 1.368 . S
C1777 H1801 0.949 . S
H1778 C1782 0.949 . S
C1779 C1780 1.349 . S
C1779 C1781 1.327 . S
C1779 H1802 0.950 . S
C1780 C1779 1.349 . S
C1780 C1792 1.349 . S
C1781 C1779 1.327 . S
C1781 C1797 1.429 . S
C1781 H1803 0.950 . S
C1782 H1778 0.949 . S
C1782 C1790 1.574 . S
C1782 C1798 1.368 . S
H1783 C1791 0.950 . S
H1784 C1789 0.950 . S
H1785 C1790 0.949 . S
H1786 C1792 0.950 . S
H1787 C1793 0.950 . S
H1788 C1794 0.949 . S
C1789 H1784 0.950 . S
C1789 C1791 1.327 . S
C1789 C1795 1.429 . S
C1790 C1782 1.574 . S
C1790 H1785 0.949 . S
C1790 C1796 1.368 . S
C1791 C1775 1.374 . S
C1791 H1783 0.950 . S
C1791 C1789 1.327 . S
C1792 C1780 1.349 . S
C1792 H1786 0.950 . S
C1792 C1793 1.327 . S
C1793 H1787 0.950 . S
C1793 C1792 1.327 . S
C1793 C1797 1.429 . S
C1794 C1777 1.574 . S
C1794 H1788 0.949 . S
C1794 C1798 1.368 . S
C1795 C1776 1.429 . S
C1795 C1789 1.429 . S
C1795 C1796 1.523 . S
C1796 C1777 1.368 . S
C1796 C1790 1.368 . S
C1796 C1795 1.523 . S
C1797 C1781 1.429 . S
C1797 C1793 1.429 . S
C1797 C1798 1.523 . S
C1798 C1782 1.368 . S
C1798 C1794 1.368 . S
C1798 C1797 1.523 . S
H1799 C1774 0.950 . S
H1800 C1776 0.950 1_545 S
H1801 C1777 0.949 . S
H1802 C1779 0.950 . S
H1803 C1781 0.950 . S
C370 C218 1.132 . S
C365 N66 1.120 . S
C400 C231 1.672 . S
C395 N79 1.660 . S
C425 N92 1.823 . S
C430 C244 1.830 . S
C460 C257 1.329 . S
C455 N54 1.346 . S
C490 C265 1.487 . S
C485 N131 1.489 . S
C520 C278 1.024 . S
C515 N158 1.036 . S
C545 N145 1.577 . S
C550 C291 1.557 . S
C580 C304 1.791 . S
C575 N118 1.795 . S
C605 N148 1.947 . S
C610 C322 1.918 . S
C640 C333 1.616 . S
C635 N122 1.638 . S
C665 N132 1.125 . S
C670 C317 1.102 . S
C700 C325 1.435 . S
C695 N161 1.423 . S
C725 N96 1.976 . S
C730 C348 1.993 . S
C755 N53 1.753 . S
C760 C338 1.738 . S
C785 N67 0.972 . S
C790 C343 0.954 . S
C815 N83 1.379 . S
C820 C346 1.376 . S
C845 N44 1.354 . S
C850 C255 1.344 . S
C875 N187 1.405 . S
C880 C247 1.408 . S
C910 C216 1.174 . S
C905 N197 1.197 . S
C940 C221 1.261 . S
C935 N106 1.278 . S
C965 N57 1.902 1_545 S
C970 C268 1.859 . S
C1000 C307 1.425 . S
C995 N144 1.435 . S
C1030 C260 1.363 . S
C1025 N119 1.375 . S
C1060 C286 1.765 . S
C1055 N157 1.785 . S
C1090 C296 1.132 . S
C1085 N183 1.120 . S
C1115 N196 1.660 . S
C1120 C309 1.672 . S
C1145 N105 1.823 . S
C1150 C270 1.830 . S
C1180 C283 1.329 . S
C1175 N171 1.346 . S
C1205 N40 1.489 . S
C1210 C239 1.487 . S
C1240 C252 1.024 . S
C1235 N2 1.036 1_655 S
C1270 C213 1.557 . S
C1265 N15 1.577 . S
C1300 C226 1.786 . S
C1295 N27 1.795 . S
C1325 N18 1.947 . S
C1330 C335 1.918 . S
C1355 N31 1.638 . S
C1360 C320 1.616 1_655 S
C1385 N41 1.125 . S
C1390 C330 1.102 . S
C1415 N5 1.423 . S
C1420 C312 1.437 1_455 S
C1450 C361 1.993 . S
C1445 N109 1.976 . S
C1480 C351 1.738 . S
C1475 N170 1.753 . S
C1510 C356 0.954 . S
C1505 N184 0.972 . S
C1535 N200 1.379 . S
C1540 C359 1.376 . S
C1565 N135 1.354 . S
C1570 C281 1.344 . S
C1600 C273 1.408 . S
C1595 N70 1.405 . S
C1630 C294 1.174 . S
C1625 N80 1.197 . S
C1660 C299 1.261 . S
C1655 N93 1.278 . S
C1685 N174 1.901 . S
C1690 C242 1.859 . S
C1720 C229 1.425 . S
C1715 N14 1.435 . S
C1745 N28 1.375 . S
C1750 C234 1.362 . S
C1780 C208 1.765 . S
C1775 N1 1.771 1_565 S
