# Generated by pormake.
# Topology tsx, (6,3)-cn, num edge types: 1
# Building blocks:
#     Node 0, Type 0, BuildingBlock: FUNLAD_clean_sbu_0, # of connection points: 6
#     Node 1, Type 0, BuildingBlock: FUNLAD_clean_sbu_0, # of connection points: 6
#     Node 2, Type 1, BuildingBlock: BETDAH_clean_linker_0, # of connection points: 3
#     Node 3, Type 1, BuildingBlock: BETDAH_clean_linker_0, # of connection points: 3
#     Node 4, Type 1, BuildingBlock: BETDAH_clean_linker_0, # of connection points: 3
#     Node 5, Type 1, BuildingBlock: BETDAH_clean_linker_0, # of connection points: 3
#     Edge 6, Type (0, 1), BuildingBlock: KIFKEQ_clean_linker_1, # of connection points: 2
#     Edge 7, Type (0, 1), BuildingBlock: KIFKEQ_clean_linker_1, # of connection points: 2
#     Edge 8, Type (0, 1), BuildingBlock: KIFKEQ_clean_linker_1, # of connection points: 2
#     Edge 9, Type (0, 1), BuildingBlock: KIFKEQ_clean_linker_1, # of connection points: 2
#     Edge 10, Type (0, 1), BuildingBlock: KIFKEQ_clean_linker_1, # of connection points: 2
#     Edge 11, Type (0, 1), BuildingBlock: KIFKEQ_clean_linker_1, # of connection points: 2
#     Edge 12, Type (0, 1), BuildingBlock: KIFKEQ_clean_linker_1, # of connection points: 2
#     Edge 13, Type (0, 1), BuildingBlock: KIFKEQ_clean_linker_1, # of connection points: 2
#     Edge 14, Type (0, 1), BuildingBlock: KIFKEQ_clean_linker_1, # of connection points: 2
#     Edge 15, Type (0, 1), BuildingBlock: KIFKEQ_clean_linker_1, # of connection points: 2
#     Edge 16, Type (0, 1), BuildingBlock: KIFKEQ_clean_linker_1, # of connection points: 2
#     Edge 17, Type (0, 1), BuildingBlock: KIFKEQ_clean_linker_1, # of connection points: 2
# Relax obj value: 0.107
# Max RMSD: 0.112
# Mean RMSD: 0.108
data_MOF--net-tsx--node1-FUNLAD_clean_sbu_0--node2-BETDAH_clean_linker_0--edge1-KIFKEQ_clean_linker_1
_symmetry_space_group_name_H-M    P1
_symmetry_Int_Tables_number       1
_symmetry_cell_setting            triclinic
loop_
_symmetry_equiv_pos_as_xyz
'x, y, z'
_cell_length_a     19.992381
_cell_length_b     22.102642
_cell_length_c     39.83856
_cell_angle_alpha  91.109012
_cell_angle_beta   101.58247
_cell_angle_gamma 89.443446
loop_
_atom_site_label
_atom_site_type_symbol
_atom_site_fract_x
_atom_site_fract_y
_atom_site_fract_z
_atom_type_partial_charge
C0 C 0.94092 0.90812 0.00378 0.0
N1 N 0.05578 0.00542 0.08591 0.0
C2 C -0.00067 0.00534 0.10009 0.0
C3 C 0.00541 0.0134 0.13539 0.0
C4 C 0.07017 0.02243 0.15635 0.0
C5 C 0.12755 0.02208 0.14094 0.0
C6 C 0.11919 0.01309 0.10558 0.0
Zn7 Zn 0.04463 -0.00025 0.03393 0.0
C8 C 0.13975 0.91154 0.01033 0.0
N9 N 0.02182 0.994 0.92496 0.0
C10 C 0.95982 -0.00043 0.90362 0.0
C11 C 0.08054 0.99393 0.91257 0.0
C12 C 0.07851 0.001 0.87767 0.0
C13 C 0.0155 0.00895 0.85521 0.0
C14 C 0.95549 0.00738 0.86849 0.0
Zn15 Zn 0.03055 -0.00453 0.97712 0.0
O16 O 0.97288 0.93223 0.03144 0.0
C17 C 0.93751 0.08514 -0.0012 0.0
O18 O 0.9543 0.92466 0.97528 0.0
H19 H 0.12941 0.99048 0.92995 0.0
H20 H 0.94934 -0.00047 0.08396 0.0
H21 H 0.91378 -0.00021 0.91397 0.0
O22 O 0.96537 0.06727 0.02855 0.0
O23 O 0.95509 0.06116 0.97274 0.0
H24 H 0.16339 0.01328 0.09377 0.0
O25 O 0.10523 0.06672 0.98068 0.0
O26 O 0.11489 0.06812 0.03639 0.0
O27 O 0.1071 0.93042 0.98182 0.0
O28 O 0.12467 0.93221 0.03799 0.0
C29 C 0.13103 0.08951 0.00993 0.0
H30 H 0.9598 0.012 0.14611 0.0
H31 H 0.1784 0.02953 0.15589 0.0
H32 H 0.12599 0.00251 0.86856 0.0
H33 H 0.9058 0.01263 0.85193 0.0
C34 C 0.4047 0.40139 0.49489 0.0
N35 N 0.52382 0.48788 0.58011 0.0
C36 C 0.46762 0.48664 0.59447 0.0
C37 C 0.47389 0.49456 0.62974 0.0
C38 C 0.5386 0.5042 0.6505 0.0
C39 C 0.5961 0.50262 0.63518 0.0
C40 C 0.58749 0.49433 0.59973 0.0
Zn41 Zn 0.50929 0.49121 0.52807 0.0
C42 C 0.60015 0.41063 0.4971 0.0
N43 N 0.47306 0.50618 0.41924 0.0
C44 C 0.41033 0.51229 0.39864 0.0
C45 C 0.53099 0.51163 0.40655 0.0
C46 C 0.52744 0.52483 0.3722 0.0
C47 C 0.46364 0.53323 0.35045 0.0
C48 C 0.40441 0.52588 0.36396 0.0
Zn49 Zn 0.48576 0.49765 0.47129 0.0
O50 O 0.43828 0.42217 0.52311 0.0
C51 C 0.39442 0.57783 0.50076 0.0
O52 O 0.41365 0.42392 0.46686 0.0
H53 H 0.58046 0.50729 0.42331 0.0
H54 H 0.41745 0.48172 0.57841 0.0
H55 H 0.3649 0.50835 0.40929 0.0
O56 O 0.43024 0.5579 0.52842 0.0
O57 O 0.4064 0.55917 0.47225 0.0
H58 H 0.63142 0.49554 0.58774 0.0
O59 O 0.55709 0.57185 0.47748 0.0
O60 O 0.57958 0.56024 0.53304 0.0
O61 O 0.5652 0.43521 0.47069 0.0
O62 O 0.58818 0.42483 0.5265 0.0
C63 C 0.58917 0.58833 0.50707 0.0
H64 H 0.42835 0.49411 0.64056 0.0
H65 H 0.64691 0.5101 0.6502 0.0
H66 H 0.57446 0.52865 0.36285 0.0
H67 H 0.35411 0.53222 0.3482 0.0
H68 H 0.14575 0.94002 0.41987 0.0
H69 H 0.95619 0.03966 0.39642 0.0
H70 H 0.99034 0.91181 0.47781 0.0
C71 C 0.09668 0.95239 0.42573 0.0
C72 C 0.07429 0.92307 0.45228 0.0
C73 C 0.05344 0.99247 0.40434 0.0
C74 C 0.99054 0.00916 0.41265 0.0
C75 C 0.96838 0.98105 0.43974 0.0
C76 C 0.00913 0.93631 0.45839 0.0
N77 N 0.90246 0.99253 0.44642 0.0
C78 C 0.87659 0.05047 0.44954 0.0
H79 H 0.88729 0.95252 0.61054 0.0
H80 H 0.03442 0.07573 0.58485 0.0
H81 H 0.9189 0.95847 0.50778 0.0
C82 C 0.912 0.97233 0.59155 0.0
C83 C 0.89746 0.94979 0.55783 0.0
C84 C 0.96062 0.01822 0.60151 0.0
C85 C -0.00398 0.04119 0.57726 0.0
C86 C 0.98091 0.01898 0.54319 0.0
C87 C 0.93137 0.97436 0.53396 0.0
N88 N 0.01417 0.03884 0.51714 0.0
C89 C 0.06087 0.0855 0.5197 0.0
H90 H 0.65058 0.4503 0.8996 0.0
H91 H 0.47398 0.55616 0.91091 0.0
H92 H 0.55812 0.42577 0.98634 0.0
C93 C 0.61342 0.46422 0.91467 0.0
C94 C 0.61207 0.43453 0.94531 0.0
C95 C 0.56362 0.50787 0.9018 0.0
C96 C 0.51335 0.52335 0.9207 0.0
C97 C 0.51141 0.49333 0.95119 0.0
C98 C 0.56024 0.44902 0.96303 0.0
N99 N 0.45746 0.50252 0.96889 0.0
C100 C 0.43138 0.55891 0.97527 0.0
H101 H 0.38938 0.47422 0.10614 0.0
H102 H 0.55905 0.58554 0.09455 0.0
H103 H 0.49191 0.43983 0.02346 0.0
C104 C 0.42717 0.48713 0.09159 0.0
C105 C 0.43332 0.45307 0.06236 0.0
C106 C 0.47289 0.53433 0.10384 0.0
C107 C 0.5235 0.54938 0.08535 0.0
C108 C 0.52954 0.5155 0.0558 0.0
C109 C 0.48581 0.4668 0.04542 0.0
N110 N 0.58025 0.52669 0.03639 0.0
C111 C 0.61578 0.58032 0.03637 0.0
H112 H 0.15591 0.16617 0.06454 0.0
H113 H 0.20388 0.13573 0.96442 0.0
H114 H 0.22552 0.25647 0.07249 0.0
H115 H 0.27549 0.22702 0.97294 0.0
H116 H 0.46499 0.34241 0.03681 0.0
H117 H 0.38871 0.25732 0.01865 0.0
H118 H 0.22044 0.36122 0.04305 0.0
H119 H 0.29582 0.44752 0.06003 0.0
C120 C 0.1816 0.17863 0.04421 0.0
C121 C 0.17475 0.14362 0.01387 0.0
C122 C 0.22096 0.23073 0.04871 0.0
C123 C 0.25526 0.24877 0.02324 0.0
C124 C 0.24922 0.21382 0.9929 0.0
C125 C 0.20845 0.16184 0.98805 0.0
C126 C 0.41143 0.34782 0.03757 0.0
C127 C 0.38661 0.4018 0.05014 0.0
C128 C 0.36788 0.29901 0.02713 0.0
C129 C 0.29898 0.30292 0.0295 0.0
C130 C 0.27363 0.35716 0.0412 0.0
C131 C 0.3169 0.40624 0.05122 0.0
H132 H 0.20457 0.8399 0.06323 0.0
H133 H 0.1974 0.87914 0.95669 0.0
H134 H 0.2873 0.75831 0.05972 0.0
H135 H 0.27777 0.79814 0.95308 0.0
H136 H 0.45266 0.67257 0.95651 0.0
H137 H 0.39393 0.76439 0.97099 0.0
H138 H 0.28294 0.65828 0.03153 0.0
H139 H 0.34336 0.56726 0.01764 0.0
C140 C 0.22109 0.83156 0.03926 0.0
C141 C 0.19397 0.86556 0.01019 0.0
C142 C 0.26813 0.78478 0.03718 0.0
C143 C 0.28919 0.77175 0.0061 0.0
C144 C 0.26369 0.8074 0.97755 0.0
C145 C 0.21683 0.85358 0.97956 0.0
C146 C 0.41617 0.66948 0.97318 0.0
C147 C 0.40108 0.61356 0.98556 0.0
C148 C 0.38254 0.72172 0.98146 0.0
C149 C 0.3331 0.71854 0.0021 0.0
C150 C 0.32095 0.66247 0.01582 0.0
C151 C 0.35482 0.61036 0.0076 0.0
H152 H 0.87218 0.8301 0.95341 0.0
H153 H 0.88968 0.88291 0.05985 0.0
H154 H 0.78988 0.7517 0.96049 0.0
H155 H 0.8078 0.80677 0.06653 0.0
H156 H 0.72877 0.61882 0.07958 0.0
H157 H 0.8059 0.69853 0.06949 0.0
H158 H 0.67405 0.73461 0.97177 0.0
H159 H 0.59772 0.65345 0.98192 0.0
C160 C 0.85824 0.82534 0.97813 0.0
C161 C 0.88831 0.86227 0.00611 0.0
C162 C 0.81096 0.78069 0.98218 0.0
C163 C 0.79297 0.77239 0.01425 0.0
C164 C 0.82163 0.81074 0.04173 0.0
C165 C 0.86859 0.85476 0.03777 0.0
C166 C 0.71611 0.64447 0.05622 0.0
C167 C 0.6573 0.63122 0.03177 0.0
C168 C 0.76009 0.69006 0.05034 0.0
C169 C 0.74603 0.72329 0.01984 0.0
C170 C 0.68669 0.70966 0.99536 0.0
C171 C 0.64266 0.66388 0.0013 0.0
H172 H 0.86627 0.13536 0.04489 0.0
H173 H 0.90027 0.1514 0.94159 0.0
H174 H 0.78857 0.22314 0.03567 0.0
H175 H 0.82443 0.23857 0.93291 0.0
H176 H 0.74844 0.43123 0.94418 0.0
H177 H 0.82849 0.34773 0.96055 0.0
H178 H 0.66985 0.24499 0.99189 0.0
H179 H 0.58878 0.32705 0.97432 0.0
C180 C 0.85722 0.15752 0.02036 0.0
C181 C 0.88909 0.13645 0.99395 0.0
C182 C 0.81297 0.20751 0.01513 0.0
C183 C 0.80143 0.23764 0.98373 0.0
C184 C 0.83333 0.21652 0.95748 0.0
C185 C 0.87627 0.16627 0.96243 0.0
C186 C 0.73048 0.39081 0.95444 0.0
C187 C 0.66206 0.38576 0.95767 0.0
C188 C 0.7764 0.34335 0.96404 0.0
C189 C 0.75503 0.29027 0.97746 0.0
C190 C 0.68756 0.28589 0.982 0.0
C191 C 0.64132 0.333 0.97196 0.0
H192 H 0.64309 0.64425 0.56749 0.0
H193 H 0.63646 0.65345 0.45852 0.0
H194 H 0.71397 0.73383 0.5771 0.0
H195 H 0.70859 0.74396 0.46847 0.0
H196 H 0.9097 0.85334 0.51521 0.0
H197 H 0.832 0.76844 0.49986 0.0
H198 H 0.69894 0.84519 0.56265 0.0
H199 H 0.77553 0.93126 0.57737 0.0
C200 C 0.65692 0.66528 0.54552 0.0
C201 C 0.63419 0.64169 0.51218 0.0
C202 C 0.6971 0.71695 0.55108 0.0
C203 C 0.71614 0.74601 0.52352 0.0
C204 C 0.69447 0.7222 0.49014 0.0
C205 C 0.65328 0.67061 0.48447 0.0
C206 C 0.86321 0.85287 0.52524 0.0
C207 C 0.84892 0.89911 0.54765 0.0
C208 C 0.81883 0.80417 0.51642 0.0
C209 C 0.75972 0.80031 0.53014 0.0
C210 C 0.74468 0.84689 0.55202 0.0
C211 C 0.78868 0.89591 0.56059 0.0
H212 H 0.66239 0.326 0.5431 0.0
H213 H 0.6532 0.38927 0.44033 0.0
H214 H 0.73556 0.24167 0.53178 0.0
H215 H 0.72702 0.30648 0.42937 0.0
H216 H 0.77544 0.10793 0.40703 0.0
H217 H 0.71441 0.19907 0.42002 0.0
H218 H 0.8464 0.21147 0.52017 0.0
H219 H 0.90601 0.11953 0.5071 0.0
C220 C 0.67693 0.32253 0.51836 0.0
C221 C 0.65134 0.36389 0.49252 0.0
C222 C 0.71898 0.27433 0.51186 0.0
C223 C 0.73641 0.26681 0.47946 0.0
C224 C 0.71333 0.31 0.4543 0.0
C225 C 0.67125 0.35774 0.4607 0.0
C226 C 0.79171 0.13083 0.43158 0.0
C227 C 0.84544 0.10748 0.45599 0.0
C228 C 0.75705 0.18304 0.43907 0.0
C229 C 0.77557 0.21277 0.47118 0.0
C230 C 0.83036 0.18946 0.49537 0.0
C231 C 0.86493 0.13719 0.48781 0.0
H232 H 0.30557 0.35479 0.44243 0.0
H233 H 0.3915 0.33711 0.5504 0.0
H234 H 0.21954 0.27861 0.44733 0.0
H235 H 0.30741 0.26152 0.55502 0.0
H236 H 0.10428 0.18005 0.5623 0.0
H237 H 0.18605 0.25753 0.55399 0.0
H238 H 0.20686 0.17009 0.45855 0.0
H239 H 0.12406 0.09354 0.46684 0.0
C240 C 0.30652 0.33439 0.46702 0.0
C241 C 0.35505 0.35245 0.49601 0.0
C242 C 0.25739 0.2908 0.46986 0.0
C243 C 0.25602 0.26468 0.50172 0.0
C244 C 0.30582 0.28174 0.53032 0.0
C245 C 0.35448 0.32495 0.52753 0.0
C246 C 0.12657 0.17775 0.53965 0.0
C247 C 0.10901 0.13118 0.51535 0.0
C248 C 0.17338 0.22178 0.53485 0.0
C249 C 0.20332 0.21977 0.50566 0.0
C250 C 0.18438 0.17329 0.4811 0.0
C251 C 0.1376 0.1293 0.48596 0.0
H252 H 0.38725 0.66415 0.5502 0.0
H253 H 0.28099 0.59553 0.45185 0.0
H254 H 0.30434 0.7478 0.54662 0.0
H255 H 0.19802 0.67775 0.44869 0.0
H256 H 0.03305 0.80846 0.46103 0.0
H257 H 0.10573 0.72119 0.48041 0.0
H258 H 0.28203 0.83735 0.50238 0.0
H259 H 0.20932 0.92473 0.48282 0.0
C260 C 0.34544 0.66627 0.52824 0.0
C261 C 0.34061 0.62374 0.50119 0.0
C262 C 0.29831 0.71405 0.52617 0.0
C263 C 0.2448 0.71893 0.49746 0.0
C264 C 0.2383 0.67464 0.47129 0.0
C265 C 0.28604 0.62786 0.47299 0.0
C266 C 0.08699 0.81559 0.47094 0.0
C267 C 0.1158 0.87314 0.47023 0.0
C268 C 0.12852 0.76568 0.48185 0.0
C269 C 0.19938 0.77264 0.49268 0.0
C270 C 0.22746 0.83089 0.49438 0.0
C271 C 0.18605 0.8807 0.483 0.0
H272 H 0.985 0.08322 0.19186 0.0
H273 H 0.17295 0.97967 0.20662 0.0
H274 H 0.99057 0.08495 0.2535 0.0
H275 H 0.18078 0.98509 0.26817 0.0
H276 H 0.10412 0.91627 0.3613 0.0
H277 H 0.11755 0.93374 0.30353 0.0
H278 H 0.04724 0.11813 0.31087 0.0
H279 H 0.03362 0.10038 0.36973 0.0
C280 C 0.02791 0.0614 0.20822 0.0
C281 C 0.0778 0.03025 0.19411 0.0
C282 C 0.0317 0.06337 0.24364 0.0
C283 C 0.08574 0.0346 0.26576 0.0
C284 C 0.1378 0.00679 0.25179 0.0
C285 C 0.13366 0.00427 0.21643 0.0
C286 C 0.09346 0.96126 0.35121 0.0
C287 C 0.06855 0.00719 0.37041 0.0
C288 C 0.10113 0.97126 0.31786 0.0
C289 C 0.08397 0.02747 0.30256 0.0
C290 C 0.0605 0.07416 0.3219 0.0
C291 C 0.0528 0.06408 0.35555 0.0
H292 H 0.93916 0.09373 0.81517 0.0
H293 H 0.08652 0.95067 0.81219 0.0
H294 H 0.93362 0.11185 0.75445 0.0
H295 H 0.08006 0.96768 0.75139 0.0
H296 H 0.08464 0.0245 0.6455 0.0
H297 H 0.10422 0.03374 0.70808 0.0
H298 H 0.88771 0.06153 0.70183 0.0
H299 H 0.86912 0.05444 0.63974 0.0
C300 C 0.97006 0.06592 0.80145 0.0
C301 C 0.01276 0.02039 0.81835 0.0
C302 C 0.9671 0.07641 0.76669 0.0
C303 C 0.00636 0.04124 0.74792 0.0
C304 C 0.0501 -0.00352 0.76509 0.0
C305 C 0.05343 0.98634 0.79991 0.0
C306 C 0.04182 0.03468 0.6576 0.0
C307 C 0.97535 0.03823 0.63792 0.0
C308 C 0.05276 0.03911 0.69342 0.0
C309 C -0.00262 0.04726 0.7101 0.0
C310 C 0.93169 0.05556 0.69004 0.0
C311 C 0.92088 0.05121 0.6544 0.0
H312 H 0.45664 0.57623 0.68189 0.0
H313 H 0.63647 0.46223 0.70325 0.0
H314 H 0.46404 0.59327 0.74321 0.0
H315 H 0.64412 0.47972 0.76446 0.0
H316 H 0.66787 0.54577 0.87224 0.0
H317 H 0.66431 0.55714 0.81103 0.0
H318 H 0.44634 0.52848 0.7903 0.0
H319 H 0.44995 0.51683 0.85123 0.0
C320 C 0.49771 0.55475 0.69967 0.0
C321 C 0.54551 0.51723 0.68772 0.0
C322 C 0.50211 0.56484 0.73475 0.0
C323 C 0.55462 0.53789 0.75863 0.0
C324 C 0.60369 0.50196 0.74667 0.0
C325 C 0.59918 0.49173 0.71159 0.0
C326 C 0.61905 0.54315 0.8546 0.0
C327 C 0.55933 0.52969 0.86647 0.0
C328 C 0.61707 0.54942 0.81961 0.0
C329 C 0.55526 0.54267 0.79586 0.0
C330 C 0.49472 0.53425 0.80799 0.0
C331 C 0.49673 0.52779 0.84296 0.0
H332 H 0.37255 0.49241 0.29387 0.0
H333 H 0.54592 0.61064 0.32437 0.0
H334 H 0.37275 0.51182 0.23394 0.0
H335 H 0.54669 0.62917 0.26428 0.0
H336 H 0.58078 0.5505 0.15708 0.0
H337 H 0.57501 0.56485 0.21727 0.0
H338 H 0.35649 0.5895 0.18888 0.0
H339 H 0.36242 0.57533 0.12858 0.0
C340 C 0.40991 0.52341 0.28786 0.0
C341 C 0.4597 0.5493 0.31399 0.0
C342 C 0.40997 0.53466 0.25346 0.0
C343 C 0.45991 0.57196 0.24437 0.0
C344 C 0.50811 0.59969 0.27048 0.0
C345 C 0.50781 0.58873 0.30489 0.0
C346 C 0.53193 0.56139 0.16357 0.0
C347 C 0.47195 0.56095 0.13821 0.0
C348 C 0.52851 0.56936 0.1981 0.0
C349 C 0.46504 0.57699 0.20784 0.0
C350 C 0.4059 0.58233 0.18219 0.0
C351 C 0.40936 0.5746 0.1477 0.0
loop_
_geom_bond_atom_site_label_1
_geom_bond_atom_site_label_2
_geom_bond_distance
_geom_bond_site_symmetry_2
_ccdc_geom_bond_type
C0 O16 1.251 . S
C0 O18 1.254 1_554 S
N1 C2 1.333 1_445 S
N1 C6 1.307 . S
N1 Zn7 2.020 . S
C2 N1 1.333 1_665 S
C2 C3 1.379 . S
C2 H20 0.952 . S
C3 C2 1.379 . S
C3 C4 1.390 1_665 S
C3 H30 0.949 . S
C4 C3 1.390 1_445 S
C4 C5 1.357 . S
C5 C4 1.357 . S
C5 C6 1.370 . S
C5 H31 0.950 . S
C6 N1 1.307 . S
C6 C5 1.370 . S
C6 H24 0.948 . S
Zn7 N1 2.020 . S
Zn7 O16 2.039 1_445 S
Zn7 O22 2.034 1_455 S
Zn7 O26 2.025 . S
Zn7 O28 2.024 1_545 S
C8 O27 1.246 1_554 S
C8 O28 1.249 . S
N9 C10 1.309 1_545 S
N9 C11 1.331 1_655 S
N9 Zn15 2.020 1_655 S
C10 N9 1.309 1_565 S
C10 C14 1.370 . S
C10 H21 0.948 . S
C11 N9 1.331 1_455 S
C11 C12 1.379 . S
C11 H19 0.952 . S
C12 C11 1.379 . S
C12 C13 1.390 1_455 S
C12 H32 0.949 . S
C13 C12 1.390 1_655 S
C13 C14 1.357 1_545 S
C14 C10 1.370 . S
C14 C13 1.357 1_565 S
C14 H33 0.950 . S
Zn15 N9 2.020 1_455 S
Zn15 O18 2.025 1_445 S
Zn15 O23 2.024 1_455 S
Zn15 O25 2.039 . S
Zn15 O27 2.034 1_545 S
O16 C0 1.251 . S
O16 Zn7 2.039 1_665 S
C17 O22 1.273 . S
C17 O23 1.219 1_554 S
O18 C0 1.254 1_556 S
O18 Zn15 2.025 1_665 S
H19 C11 0.952 . S
H20 C2 0.952 . S
H21 C10 0.948 . S
O22 Zn7 2.034 1_655 S
O22 C17 1.273 . S
O23 Zn15 2.024 1_655 S
O23 C17 1.219 1_556 S
H24 C6 0.948 . S
O25 Zn15 2.039 . S
O25 C29 1.251 1_556 S
O26 Zn7 2.025 . S
O26 C29 1.254 . S
O27 C8 1.246 1_556 S
O27 Zn15 2.034 1_565 S
O28 Zn7 2.024 1_565 S
O28 C8 1.249 . S
C29 O25 1.251 1_554 S
C29 O26 1.254 . S
H30 C3 0.949 . S
H31 C5 0.950 . S
H32 C12 0.949 . S
H33 C14 0.950 . S
C34 O50 1.251 . S
C34 O52 1.254 . S
N35 C36 1.333 . S
N35 C40 1.307 . S
N35 Zn41 2.020 . S
C36 N35 1.333 . S
C36 C37 1.379 . S
C36 H54 0.952 . S
C37 C36 1.379 . S
C37 C38 1.390 . S
C37 H64 0.949 . S
C38 C37 1.390 . S
C38 C39 1.357 . S
C39 C38 1.357 . S
C39 C40 1.370 . S
C39 H65 0.950 . S
C40 N35 1.307 . S
C40 C39 1.370 . S
C40 H58 0.948 . S
Zn41 N35 2.020 . S
Zn41 O50 2.039 . S
Zn41 O56 2.034 . S
Zn41 O60 2.025 . S
Zn41 O62 2.024 . S
C42 O61 1.246 . S
C42 O62 1.249 . S
N43 C44 1.307 . S
N43 C45 1.333 . S
N43 Zn49 2.020 . S
C44 N43 1.307 . S
C44 C48 1.370 . S
C44 H55 0.948 . S
C45 N43 1.333 . S
C45 C46 1.379 . S
C45 H53 0.952 . S
C46 C45 1.379 . S
C46 C47 1.390 . S
C46 H66 0.949 . S
C47 C46 1.390 . S
C47 C48 1.357 . S
C48 C44 1.370 . S
C48 C47 1.357 . S
C48 H67 0.950 . S
Zn49 N43 2.020 . S
Zn49 O52 2.025 . S
Zn49 O57 2.024 . S
Zn49 O59 2.039 . S
Zn49 O61 2.034 . S
O50 C34 1.251 . S
O50 Zn41 2.039 . S
C51 O56 1.246 . S
C51 O57 1.249 . S
O52 C34 1.254 . S
O52 Zn49 2.025 . S
H53 C45 0.952 . S
H54 C36 0.952 . S
H55 C44 0.948 . S
O56 Zn41 2.034 . S
O56 C51 1.246 . S
O57 Zn49 2.024 . S
O57 C51 1.249 . S
H58 C40 0.948 . S
O59 Zn49 2.039 . S
O59 C63 1.251 . S
O60 Zn41 2.025 . S
O60 C63 1.254 . S
O61 C42 1.246 . S
O61 Zn49 2.034 . S
O62 Zn41 2.024 . S
O62 C42 1.249 . S
C63 O59 1.251 . S
C63 O60 1.254 . S
H64 C37 0.949 . S
H65 C39 0.950 . S
H66 C46 0.949 . S
H67 C48 0.950 . S
H68 C71 0.929 . S
H69 C74 0.929 1_655 S
H70 C76 0.930 . S
C71 H68 0.929 . S
C71 C72 1.398 . S
C71 C73 1.396 1_565 S
C72 C71 1.398 . S
C72 C76 1.407 . S
C73 C71 1.396 1_545 S
C73 C74 1.394 . S
C74 H69 0.929 1_455 S
C74 C73 1.394 . S
C74 C75 1.382 . S
C75 C74 1.382 . S
C75 C76 1.392 1_545 S
C75 N77 1.420 1_455 S
C76 H70 0.930 . S
C76 C72 1.407 . S
C76 C75 1.392 1_565 S
N77 C75 1.420 1_655 S
N77 C78 1.244 . S
C78 N77 1.244 . S
H79 C82 0.929 . S
H80 C85 0.929 . S
H81 C87 0.930 . S
C82 H79 0.929 . S
C82 C83 1.398 . S
C82 C84 1.396 1_565 S
C83 C82 1.398 . S
C83 C87 1.407 . S
C84 C82 1.396 1_545 S
C84 C85 1.394 1_655 S
C85 H80 0.929 . S
C85 C84 1.394 1_455 S
C85 C86 1.382 . S
C86 C85 1.382 . S
C86 C87 1.392 1_445 S
C86 N88 1.420 . S
C87 H81 0.930 . S
C87 C83 1.407 . S
C87 C86 1.392 1_665 S
N88 C86 1.420 . S
N88 C89 1.244 . S
C89 N88 1.244 . S
H90 C93 0.929 . S
H91 C96 0.929 . S
H92 C98 0.930 1_554 S
C93 H90 0.929 . S
C93 C94 1.398 . S
C93 C95 1.396 . S
C94 C93 1.398 . S
C94 C98 1.407 . S
C95 C93 1.396 . S
C95 C96 1.394 . S
C96 H91 0.929 . S
C96 C95 1.394 . S
C96 C97 1.382 . S
C97 C96 1.382 . S
C97 C98 1.392 . S
C97 N99 1.420 . S
C98 H92 0.930 1_556 S
C98 C94 1.407 . S
C98 C97 1.392 . S
N99 C97 1.420 . S
N99 C100 1.244 . S
C100 N99 1.244 . S
H101 C104 0.929 . S
H102 C107 0.929 . S
H103 C109 0.930 1_556 S
C104 H101 0.929 . S
C104 C105 1.398 . S
C104 C106 1.396 . S
C105 C104 1.398 . S
C105 C109 1.407 . S
C106 C104 1.396 . S
C106 C107 1.394 . S
C107 H102 0.929 . S
C107 C106 1.394 . S
C107 C108 1.382 . S
C108 C107 1.382 . S
C108 C109 1.392 . S
C108 N110 1.420 . S
C109 H103 0.930 1_554 S
C109 C105 1.407 . S
C109 C108 1.392 . S
N110 C108 1.420 . S
N110 C111 1.244 . S
C111 N110 1.244 . S
H112 C120 0.950 . S
H113 C125 0.950 . S
H114 C122 0.950 . S
H115 C124 0.950 . S
H116 C126 0.950 . S
H117 C128 0.950 . S
H118 C130 0.950 . S
H119 C131 0.950 . S
C120 H112 0.950 . S
C120 C121 1.386 . S
C120 C122 1.391 . S
C121 C120 1.386 . S
C121 C125 1.393 . S
C122 H114 0.950 . S
C122 C120 1.391 . S
C122 C123 1.400 . S
C123 C122 1.400 . S
C123 C124 1.398 . S
C123 C129 1.491 . S
C124 H115 0.950 . S
C124 C123 1.398 . S
C124 C125 1.391 . S
C125 H113 0.950 . S
C125 C121 1.393 . S
C125 C124 1.391 . S
C126 H116 0.950 . S
C126 C127 1.386 . S
C126 C128 1.391 . S
C127 C126 1.386 . S
C127 C131 1.393 . S
C128 H117 0.950 . S
C128 C126 1.391 . S
C128 C129 1.400 . S
C129 C123 1.491 . S
C129 C128 1.400 . S
C129 C130 1.398 . S
C130 H118 0.950 . S
C130 C129 1.398 . S
C130 C131 1.391 . S
C131 H119 0.950 . S
C131 C127 1.393 . S
C131 C130 1.391 . S
H132 C140 0.950 . S
H133 C145 0.950 . S
H134 C142 0.950 . S
H135 C144 0.950 . S
H136 C146 0.950 . S
H137 C148 0.950 . S
H138 C150 0.950 . S
H139 C151 0.950 . S
C140 H132 0.950 . S
C140 C141 1.386 . S
C140 C142 1.391 . S
C141 C140 1.386 . S
C141 C145 1.393 1_554 S
C142 H134 0.950 . S
C142 C140 1.391 . S
C142 C143 1.400 . S
C143 C142 1.400 . S
C143 C144 1.398 1_554 S
C143 C149 1.491 . S
C144 H135 0.950 . S
C144 C143 1.398 1_556 S
C144 C145 1.391 . S
C145 H133 0.950 . S
C145 C141 1.393 1_556 S
C145 C144 1.391 . S
C146 H136 0.950 . S
C146 C147 1.386 . S
C146 C148 1.391 . S
C147 C146 1.386 . S
C147 C151 1.393 1_556 S
C148 H137 0.950 . S
C148 C146 1.391 . S
C148 C149 1.400 1_556 S
C149 C143 1.491 . S
C149 C148 1.400 1_554 S
C149 C150 1.398 . S
C150 H138 0.950 . S
C150 C149 1.398 . S
C150 C151 1.391 . S
C151 H139 0.950 . S
C151 C147 1.393 1_554 S
C151 C150 1.391 . S
H152 C160 0.950 . S
H153 C165 0.950 . S
H154 C162 0.950 . S
H155 C164 0.950 . S
H156 C166 0.950 . S
H157 C168 0.950 . S
H158 C170 0.950 . S
H159 C171 0.950 . S
C160 H152 0.950 . S
C160 C161 1.386 1_556 S
C160 C162 1.391 . S
C161 C160 1.386 1_554 S
C161 C165 1.393 . S
C162 H154 0.950 . S
C162 C160 1.391 . S
C162 C163 1.400 1_556 S
C163 C162 1.400 1_554 S
C163 C164 1.398 . S
C163 C169 1.491 . S
C164 H155 0.950 . S
C164 C163 1.398 . S
C164 C165 1.391 . S
C165 H153 0.950 . S
C165 C161 1.393 . S
C165 C164 1.391 . S
C166 H156 0.950 . S
C166 C167 1.386 . S
C166 C168 1.391 . S
C167 C166 1.386 . S
C167 C171 1.393 1_554 S
C168 H157 0.950 . S
C168 C166 1.391 . S
C168 C169 1.400 . S
C169 C163 1.491 . S
C169 C168 1.400 . S
C169 C170 1.398 1_554 S
C170 H158 0.950 . S
C170 C169 1.398 1_556 S
C170 C171 1.391 . S
C171 H159 0.950 . S
C171 C167 1.393 1_556 S
C171 C170 1.391 . S
H172 C180 0.950 . S
H173 C185 0.950 . S
H174 C182 0.950 . S
H175 C184 0.950 . S
H176 C186 0.950 . S
H177 C188 0.950 . S
H178 C190 0.950 1_554 S
H179 C191 0.950 . S
C180 H172 0.950 . S
C180 C181 1.392 . S
C180 C182 1.391 . S
C181 C180 1.392 . S
C181 C185 1.388 1_554 S
C182 H174 0.950 . S
C182 C180 1.391 . S
C182 C183 1.400 1_554 S
C183 C182 1.400 1_556 S
C183 C184 1.398 . S
C183 C189 1.491 . S
C184 H175 0.950 . S
C184 C183 1.398 . S
C184 C185 1.391 . S
C185 H173 0.950 . S
C185 C181 1.388 1_556 S
C185 C184 1.391 . S
C186 H176 0.950 . S
C186 C187 1.386 . S
C186 C188 1.391 . S
C187 C186 1.386 . S
C187 C191 1.393 . S
C188 H177 0.950 . S
C188 C186 1.391 . S
C188 C189 1.400 . S
C189 C183 1.491 . S
C189 C188 1.400 . S
C189 C190 1.398 . S
C190 H178 0.950 1_556 S
C190 C189 1.398 . S
C190 C191 1.391 . S
C191 H179 0.950 . S
C191 C187 1.393 . S
C191 C190 1.391 . S
H192 C200 0.950 . S
H193 C205 0.950 . S
H194 C202 0.950 . S
H195 C204 0.950 . S
H196 C206 0.950 . S
H197 C208 0.950 . S
H198 C210 0.950 . S
H199 C211 0.950 . S
C200 H192 0.950 . S
C200 C201 1.386 . S
C200 C202 1.391 . S
C201 C200 1.386 . S
C201 C205 1.393 . S
C202 H194 0.950 . S
C202 C200 1.391 . S
C202 C203 1.400 . S
C203 C202 1.400 . S
C203 C204 1.398 . S
C203 C209 1.491 . S
C204 H195 0.950 . S
C204 C203 1.398 . S
C204 C205 1.391 . S
C205 H193 0.950 . S
C205 C201 1.393 . S
C205 C204 1.391 . S
C206 H196 0.950 . S
C206 C207 1.386 . S
C206 C208 1.391 . S
C207 C206 1.386 . S
C207 C211 1.393 . S
C208 H197 0.950 . S
C208 C206 1.391 . S
C208 C209 1.400 . S
C209 C203 1.491 . S
C209 C208 1.400 . S
C209 C210 1.398 . S
C210 H198 0.950 . S
C210 C209 1.398 . S
C210 C211 1.391 . S
C211 H199 0.950 . S
C211 C207 1.393 . S
C211 C210 1.391 . S
H212 C220 0.950 . S
H213 C225 0.950 . S
H214 C222 0.950 . S
H215 C224 0.950 . S
H216 C226 0.950 . S
H217 C228 0.950 . S
H218 C230 0.950 . S
H219 C231 0.950 . S
C220 H212 0.950 . S
C220 C221 1.386 . S
C220 C222 1.391 . S
C221 C220 1.386 . S
C221 C225 1.393 . S
C222 H214 0.950 . S
C222 C220 1.391 . S
C222 C223 1.400 . S
C223 C222 1.400 . S
C223 C224 1.398 . S
C223 C229 1.491 . S
C224 H215 0.950 . S
C224 C223 1.398 . S
C224 C225 1.391 . S
C225 H213 0.950 . S
C225 C221 1.393 . S
C225 C224 1.391 . S
C226 H216 0.950 . S
C226 C227 1.386 . S
C226 C228 1.391 . S
C227 C226 1.386 . S
C227 C231 1.393 . S
C228 H217 0.950 . S
C228 C226 1.391 . S
C228 C229 1.400 . S
C229 C223 1.491 . S
C229 C228 1.400 . S
C229 C230 1.398 . S
C230 H218 0.950 . S
C230 C229 1.398 . S
C230 C231 1.391 . S
C231 H219 0.950 . S
C231 C227 1.393 . S
C231 C230 1.391 . S
H232 C240 0.950 . S
H233 C245 0.950 . S
H234 C242 0.950 . S
H235 C244 0.950 . S
H236 C246 0.950 . S
H237 C248 0.950 . S
H238 C250 0.950 . S
H239 C251 0.950 . S
C240 H232 0.950 . S
C240 C241 1.386 . S
C240 C242 1.391 . S
C241 C240 1.386 . S
C241 C245 1.393 . S
C242 H234 0.950 . S
C242 C240 1.391 . S
C242 C243 1.400 . S
C243 C242 1.400 . S
C243 C244 1.398 . S
C243 C249 1.491 . S
C244 H235 0.950 . S
C244 C243 1.398 . S
C244 C245 1.391 . S
C245 H233 0.950 . S
C245 C241 1.393 . S
C245 C244 1.391 . S
C246 H236 0.950 . S
C246 C247 1.386 . S
C246 C248 1.391 . S
C247 C246 1.386 . S
C247 C251 1.393 . S
C248 H237 0.950 . S
C248 C246 1.391 . S
C248 C249 1.400 . S
C249 C243 1.491 . S
C249 C248 1.400 . S
C249 C250 1.398 . S
C250 H238 0.950 . S
C250 C249 1.398 . S
C250 C251 1.391 . S
C251 H239 0.950 . S
C251 C247 1.393 . S
C251 C250 1.391 . S
H252 C260 0.950 . S
H253 C265 0.950 . S
H254 C262 0.950 . S
H255 C264 0.950 . S
H256 C266 0.950 . S
H257 C268 0.950 . S
H258 C270 0.950 . S
H259 C271 0.950 . S
C260 H252 0.950 . S
C260 C261 1.386 . S
C260 C262 1.391 . S
C261 C260 1.386 . S
C261 C265 1.393 . S
C262 H254 0.950 . S
C262 C260 1.391 . S
C262 C263 1.400 . S
C263 C262 1.400 . S
C263 C264 1.398 . S
C263 C269 1.491 . S
C264 H255 0.950 . S
C264 C263 1.398 . S
C264 C265 1.391 . S
C265 H253 0.950 . S
C265 C261 1.393 . S
C265 C264 1.391 . S
C266 H256 0.950 . S
C266 C267 1.386 . S
C266 C268 1.391 . S
C267 C266 1.386 . S
C267 C271 1.393 . S
C268 H257 0.950 . S
C268 C266 1.391 . S
C268 C269 1.400 . S
C269 C263 1.491 . S
C269 C268 1.400 . S
C269 C270 1.398 . S
C270 H258 0.950 . S
C270 C269 1.398 . S
C270 C271 1.391 . S
C271 H259 0.950 . S
C271 C267 1.393 . S
C271 C270 1.391 . S
H272 C280 0.950 . S
H273 C285 0.950 . S
H274 C282 0.950 . S
H275 C284 0.950 . S
H276 C286 0.950 . S
H277 C288 0.950 . S
H278 C290 0.950 . S
H279 C291 0.950 . S
C280 H272 0.950 . S
C280 C281 1.386 . S
C280 C282 1.391 . S
C281 C280 1.386 . S
C281 C285 1.393 1_545 S
C282 H274 0.950 . S
C282 C280 1.391 . S
C282 C283 1.400 . S
C283 C282 1.400 . S
C283 C284 1.398 1_545 S
C283 C289 1.491 . S
C284 H275 0.950 . S
C284 C283 1.398 1_565 S
C284 C285 1.391 . S
C285 H273 0.950 . S
C285 C281 1.393 1_565 S
C285 C284 1.391 . S
C286 H276 0.950 . S
C286 C287 1.386 1_565 S
C286 C288 1.391 . S
C287 C286 1.386 1_545 S
C287 C291 1.393 . S
C288 H277 0.950 . S
C288 C286 1.391 . S
C288 C289 1.400 1_565 S
C289 C283 1.491 . S
C289 C288 1.400 1_545 S
C289 C290 1.398 . S
C290 H278 0.950 . S
C290 C289 1.398 . S
C290 C291 1.391 . S
C291 H279 0.950 . S
C291 C287 1.393 . S
C291 C290 1.391 . S
H292 C300 0.950 . S
H293 C305 0.947 1_565 S
H294 C302 0.950 . S
H295 C304 0.950 . S
H296 C306 0.950 1_565 S
H297 C308 0.950 1_565 S
H298 C310 0.950 . S
H299 C311 0.950 . S
C300 H292 0.950 . S
C300 C301 1.386 . S
C300 C302 1.391 . S
C301 C300 1.386 . S
C301 C305 1.393 1_655 S
C302 H294 0.950 . S
C302 C300 1.391 . S
C302 C303 1.400 . S
C303 C302 1.400 . S
C303 C304 1.398 1_655 S
C303 C309 1.491 . S
C304 H295 0.950 . S
C304 C303 1.398 1_455 S
C304 C305 1.391 . S
C305 H293 0.947 1_545 S
C305 C301 1.393 1_455 S
C305 C304 1.391 . S
C306 H296 0.950 1_545 S
C306 C307 1.386 1_455 S
C306 C308 1.391 . S
C307 C306 1.386 1_655 S
C307 C311 1.393 . S
C308 H297 0.950 1_545 S
C308 C306 1.391 . S
C308 C309 1.400 1_455 S
C309 C303 1.491 . S
C309 C308 1.400 1_655 S
C309 C310 1.398 . S
C310 H298 0.950 . S
C310 C309 1.398 . S
C310 C311 1.391 . S
C311 H299 0.950 . S
C311 C307 1.393 . S
C311 C310 1.391 . S
H312 C320 0.950 . S
H313 C325 0.950 . S
H314 C322 0.950 . S
H315 C324 0.950 . S
H316 C326 0.950 . S
H317 C328 0.950 . S
H318 C330 0.950 . S
H319 C331 0.950 . S
C320 H312 0.950 . S
C320 C321 1.386 . S
C320 C322 1.391 . S
C321 C320 1.386 . S
C321 C325 1.393 . S
C322 H314 0.950 . S
C322 C320 1.391 . S
C322 C323 1.400 . S
C323 C322 1.400 . S
C323 C324 1.398 . S
C323 C329 1.491 . S
C324 H315 0.950 . S
C324 C323 1.398 . S
C324 C325 1.391 . S
C325 H313 0.950 . S
C325 C321 1.393 . S
C325 C324 1.391 . S
C326 H316 0.950 . S
C326 C327 1.386 . S
C326 C328 1.391 . S
C327 C326 1.386 . S
C327 C331 1.393 . S
C328 H317 0.950 . S
C328 C326 1.391 . S
C328 C329 1.400 . S
C329 C323 1.491 . S
C329 C328 1.400 . S
C329 C330 1.398 . S
C330 H318 0.950 . S
C330 C329 1.398 . S
C330 C331 1.391 . S
C331 H319 0.950 . S
C331 C327 1.393 . S
C331 C330 1.391 . S
H332 C340 0.950 . S
H333 C345 0.950 . S
H334 C342 0.950 . S
H335 C344 0.950 . S
H336 C346 0.950 . S
H337 C348 0.950 . S
H338 C350 0.950 . S
H339 C351 0.950 . S
C340 H332 0.950 . S
C340 C341 1.386 . S
C340 C342 1.391 . S
C341 C340 1.386 . S
C341 C345 1.393 . S
C342 H334 0.950 . S
C342 C340 1.391 . S
C342 C343 1.400 . S
C343 C342 1.400 . S
C343 C344 1.398 . S
C343 C349 1.491 . S
C344 H335 0.950 . S
C344 C343 1.398 . S
C344 C345 1.391 . S
C345 H333 0.950 . S
C345 C341 1.393 . S
C345 C344 1.391 . S
C346 H336 0.950 . S
C346 C347 1.386 . S
C346 C348 1.391 . S
C347 C346 1.386 . S
C347 C351 1.393 . S
C348 H337 0.950 . S
C348 C346 1.391 . S
C348 C349 1.400 . S
C349 C343 1.491 . S
C349 C348 1.400 . S
C349 C350 1.398 . S
C350 H338 0.950 . S
C350 C349 1.398 . S
C350 C351 1.391 . S
C351 H339 0.950 . S
C351 C347 1.393 . S
C351 C350 1.391 . S
C127 C105 1.462 . S
C121 C29 1.484 . S
C141 C8 1.404 . S
C147 C100 1.366 . S
C161 C0 1.411 . S
C167 C111 1.357 . S
C181 C17 1.491 . S
C187 C94 1.447 . S
C201 C63 1.484 . S
C207 C83 1.462 . S
C221 C42 1.405 . S
C227 C78 1.348 . S
C247 C89 1.359 . S
C241 C34 1.411 . S
C267 C72 1.463 . S
C261 C51 1.486 . S
C281 C4 1.518 . S
C287 C73 1.512 . S
C301 C13 1.513 . S
C307 C84 1.500 . S
C327 C95 1.515 . S
C321 C38 1.519 . S
C341 C47 1.513 . S
C347 C106 1.502 . S
