# Generated by pormake.
# Topology rtl, (3,6)-cn, num edge types: 1
# Building blocks:
#     Node 0, Type 0, BuildingBlock: VETTIZ_charged_linker_0, # of connection points: 3
#     Node 1, Type 0, BuildingBlock: VETTIZ_charged_linker_0, # of connection points: 3
#     Node 2, Type 0, BuildingBlock: VETTIZ_charged_linker_0, # of connection points: 3
#     Node 3, Type 0, BuildingBlock: VETTIZ_charged_linker_0, # of connection points: 3
#     Node 4, Type 1, BuildingBlock: LEVNOQ01_clean_sbu_1, # of connection points: 6
#     Node 5, Type 1, BuildingBlock: LEVNOQ01_clean_sbu_1, # of connection points: 6
#     Edge 6, Type (0, 1), BuildingBlock: MIFKUJ_clean_linker_0, # of connection points: 2
#     Edge 7, Type (0, 1), BuildingBlock: MIFKUJ_clean_linker_0, # of connection points: 2
#     Edge 8, Type (0, 1), BuildingBlock: MIFKUJ_clean_linker_0, # of connection points: 2
#     Edge 9, Type (0, 1), BuildingBlock: MIFKUJ_clean_linker_0, # of connection points: 2
#     Edge 10, Type (0, 1), BuildingBlock: MIFKUJ_clean_linker_0, # of connection points: 2
#     Edge 11, Type (0, 1), BuildingBlock: MIFKUJ_clean_linker_0, # of connection points: 2
#     Edge 12, Type (0, 1), BuildingBlock: MIFKUJ_clean_linker_0, # of connection points: 2
#     Edge 13, Type (0, 1), BuildingBlock: MIFKUJ_clean_linker_0, # of connection points: 2
#     Edge 14, Type (0, 1), BuildingBlock: MIFKUJ_clean_linker_0, # of connection points: 2
#     Edge 15, Type (0, 1), BuildingBlock: MIFKUJ_clean_linker_0, # of connection points: 2
#     Edge 16, Type (0, 1), BuildingBlock: MIFKUJ_clean_linker_0, # of connection points: 2
#     Edge 17, Type (0, 1), BuildingBlock: MIFKUJ_clean_linker_0, # of connection points: 2
# Relax obj value: 0.027
# Max RMSD: 0.061
# Mean RMSD: 0.048
data_MOF--net-rtl--node1-LEVNOQ01_clean_sbu_1--node2-VETTIZ_charged_linker_0--edge1-MIFKUJ_clean_linker_0
_symmetry_space_group_name_H-M    P1
_symmetry_Int_Tables_number       1
_symmetry_cell_setting            triclinic
loop_
_symmetry_equiv_pos_as_xyz
'x, y, z'
_cell_length_a     45.920265
_cell_length_b     52.307019
_cell_length_c     36.942528
_cell_angle_alpha  90.017907
_cell_angle_beta   97.60448
_cell_angle_gamma 89.92165
loop_
_atom_site_label
_atom_site_type_symbol
_atom_site_fract_x
_atom_site_fract_y
_atom_site_fract_z
_atom_type_partial_charge
C0 C 0.23173 0.91121 0.96456 0.0
C1 C 0.21106 0.93115 0.95805 0.0
C2 C 0.20464 0.94608 0.98782 0.0
C3 C 0.23767 0.92038 0.02962 0.0
C4 C 0.24474 0.90624 1.0004 0.0
C5 C 0.26639 0.88526 0.01228 0.0
H6 H 0.34586 0.81929 0.14931 0.0
C7 C 0.25411 0.90972 0.06337 0.0
C8 C 0.27122 0.88928 0.05339 0.0
H9 H 0.33586 0.80347 0.03358 0.0
H10 H 0.30633 0.84153 0.0215 0.0
H11 H 0.35384 0.88093 0.14379 0.0
H12 H 0.27842 0.83322 0.15077 0.0
H13 H 0.27688 0.85903 0.18088 0.0
H14 H 0.30743 0.83726 0.18798 0.0
H15 H 0.34731 0.86624 0.18586 0.0
H16 H 0.33165 0.89695 0.17179 0.0
C17 C 0.29473 0.89038 0.99493 0.0
C18 C 0.25149 0.85925 0.00157 0.0
C19 C 0.23396 0.94274 0.18712 0.0
C20 C 0.2452 0.93614 0.22326 0.0
C21 C 0.26881 0.91865 0.22901 0.0
C22 C 0.27988 0.90695 0.19953 0.0
C23 C 0.26729 0.9127 0.16372 0.0
C24 C 0.2454 0.93095 0.15796 0.0
C25 C 0.2355 0.93539 0.11797 0.0
C26 C 0.25425 0.91605 0.10079 0.0
C27 C 0.27255 0.90257 0.12776 0.0
C28 C 0.24323 0.96328 0.10867 0.0
C29 C 0.20235 0.92892 0.11011 0.0
C30 C 0.33763 0.82434 0.12138 0.0
C31 C 0.34308 0.80848 0.09233 0.0
C32 C 0.33171 0.81538 0.05636 0.0
C33 C 0.31456 0.83746 0.04944 0.0
C34 C 0.3083 0.85265 0.07884 0.0
C35 C 0.31997 0.84612 0.11407 0.0
C36 C 0.30975 0.86379 0.14199 0.0
C37 C 0.28999 0.88193 0.11773 0.0
C38 C 0.28929 0.87532 0.08076 0.0
C39 C 0.33693 0.87766 0.16226 0.0
C40 C 0.29233 0.84767 0.16702 0.0
H41 H 0.21167 0.95271 0.04485 0.0
H42 H 0.23704 0.89921 0.94245 0.0
H43 H 0.22733 0.86028 0.00198 0.0
H44 H 0.25893 0.84376 0.02095 0.0
H45 H 0.25519 0.85339 0.97364 0.0
H46 H 0.29999 0.91115 0.99561 0.0
H47 H 0.29213 0.88414 0.96594 0.0
H48 H 0.31431 0.88101 0.00978 0.0
H49 H 0.21586 0.95605 0.18148 0.0
H50 H 0.27857 0.91371 0.25642 0.0
H51 H 0.29747 0.89349 0.20579 0.0
H52 H 0.26247 0.97043 0.1274 0.0
H53 H 0.22456 0.97643 0.11104 0.0
H54 H 0.24988 0.96507 0.08108 0.0
H55 H 0.19739 0.91119 0.12478 0.0
H56 H 0.19483 0.92507 0.08103 0.0
H57 H 0.18876 0.9446 0.11937 0.0
H58 H 0.18931 0.96189 0.98358 0.0
C59 C 0.2178 0.94083 0.02343 0.0
C60 C 0.72906 0.61421 0.69958 0.0
C61 C 0.71073 0.59276 0.69999 0.0
C62 C 0.70118 0.57997 0.66701 0.0
C63 C 0.72659 0.6109 0.63366 0.0
C64 C 0.73699 0.62272 0.66628 0.0
C65 C 0.75683 0.6449 0.66102 0.0
H66 H 0.81899 0.72278 0.54672 0.0
C67 C 0.73791 0.62513 0.60388 0.0
C68 C 0.7561 0.64478 0.61979 0.0
H69 H 0.82825 0.72529 0.66476 0.0
H70 H 0.79768 0.68796 0.66538 0.0
H71 H 0.82447 0.66155 0.53907 0.0
H72 H 0.74967 0.71165 0.53631 0.0
H73 H 0.74148 0.68886 0.5016 0.0
H74 H 0.77193 0.71032 0.49991 0.0
H75 H 0.81302 0.68222 0.50104 0.0
H76 H 0.79757 0.65071 0.50416 0.0
C77 C 0.78788 0.63875 0.68105 0.0
C78 C 0.74271 0.66943 0.67457 0.0
C79 C 0.69953 0.60441 0.47177 0.0
C80 C 0.70484 0.61498 0.43825 0.0
C81 C 0.72629 0.63423 0.43825 0.0
C82 C 0.74146 0.64343 0.47114 0.0
C83 C 0.73514 0.6333 0.50449 0.0
C84 C 0.7149 0.61376 0.50437 0.0
C85 C 0.71154 0.60481 0.54229 0.0
C86 C 0.73235 0.62281 0.56527 0.0
C87 C 0.74596 0.63958 0.543 0.0
C88 C 0.72192 0.5766 0.5463 0.0
C89 C 0.67918 0.6091 0.54842 0.0
C90 C 0.81434 0.71539 0.57273 0.0
C91 C 0.82614 0.72713 0.60575 0.0
C92 C 0.81983 0.71652 0.63894 0.0
C93 C 0.80186 0.69489 0.63924 0.0
C94 C 0.78985 0.68369 0.60601 0.0
C95 C 0.79631 0.69385 0.5735 0.0
C96 C 0.78126 0.67963 0.54083 0.0
C97 C 0.76488 0.65914 0.55912 0.0
C98 C 0.76993 0.66169 0.5973 0.0
C99 C 0.80514 0.66799 0.51982 0.0
C100 C 0.76006 0.69846 0.51813 0.0
H101 H 0.70054 0.57872 0.60955 0.0
H102 H 0.73702 0.62416 0.72467 0.0
H103 H 0.71847 0.66924 0.66664 0.0
H104 H 0.75029 0.68709 0.66245 0.0
H105 H 0.74701 0.67099 0.7048 0.0
H106 H 0.79233 0.61783 0.68115 0.0
H107 H 0.79024 0.64522 0.70992 0.0
H108 H 0.80563 0.64723 0.66748 0.0
H109 H 0.68362 0.58923 0.47262 0.0
H110 H 0.73076 0.6427 0.41281 0.0
H111 H 0.75721 0.65835 0.46934 0.0
H112 H 0.7382 0.57203 0.52744 0.0
H113 H 0.70321 0.56316 0.54007 0.0
H114 H 0.73353 0.57236 0.57384 0.0
H115 H 0.67143 0.62828 0.53824 0.0
H116 H 0.6759 0.60867 0.57743 0.0
H117 H 0.66458 0.59455 0.53355 0.0
H118 H 0.68696 0.56344 0.6668 0.0
C119 C 0.70894 0.58897 0.63384 0.0
C120 C 0.79768 0.13589 0.12297 0.0
C121 C 0.81666 0.11497 0.13119 0.0
C122 C 0.82456 0.09993 0.10231 0.0
C123 C 0.79511 0.12677 0.05812 0.0
C124 C 0.78715 0.14134 0.08645 0.0
C125 C 0.76665 0.16276 0.07307 0.0
H126 H 0.69009 0.22751 0.93296 0.0
C127 C 0.78064 0.13778 0.02343 0.0
C128 C 0.76389 0.15882 0.03202 0.0
H129 H 0.6954 0.242 0.04902 0.0
H130 H 0.72771 0.20619 0.06166 0.0
H131 H 0.7596 0.21639 0.93456 0.0
H132 H 0.68658 0.16505 0.93805 0.0
H133 H 0.70926 0.15275 0.9073 0.0
H134 H 0.69154 0.18325 0.8981 0.0
H135 H 0.73337 0.21015 0.89505 0.0
H136 H 0.76493 0.18982 0.90711 0.0
C137 C 0.78197 0.18839 0.08496 0.0
C138 C 0.73706 0.15827 0.088 0.0
C139 C 0.80089 0.09965 0.90285 0.0
C140 C 0.79235 0.10643 0.86611 0.0
C141 C 0.77244 0.12692 0.85828 0.0
C142 C 0.76181 0.14068 0.88647 0.0
C143 C 0.77126 0.13407 0.92302 0.0
C144 C 0.79032 0.11372 0.93063 0.0
C145 C 0.79857 0.10964 0.97095 0.0
C146 C 0.78155 0.13102 0.98636 0.0
C147 C 0.7655 0.14529 0.95822 0.0
C148 C 0.83225 0.11333 0.98008 0.0
C149 C 0.78736 0.08292 0.98078 0.0
C150 C 0.69836 0.22301 0.96106 0.0
C151 C 0.68973 0.23753 0.99002 0.0
C152 C 0.70102 0.23089 0.02618 0.0
C153 C 0.72004 0.21011 0.03353 0.0
C154 C 0.72823 0.19568 0.00449 0.0
C155 C 0.71756 0.2022 0.96895 0.0
C156 C 0.72923 0.1847 0.94173 0.0
C157 C 0.74833 0.16656 0.96693 0.0
C158 C 0.74759 0.1732 0.00363 0.0
C159 C 0.74762 0.20095 0.91805 0.0
C160 C 0.70291 0.17072 0.91982 0.0
H161 H 0.82088 0.09358 0.04525 0.0
H162 H 0.79086 0.14762 0.14452 0.0
H163 H 0.73214 0.13749 0.08936 0.0
H164 H 0.71804 0.16639 0.07028 0.0
H165 H 0.7376 0.16618 0.11599 0.0
H166 H 0.80616 0.18698 0.08499 0.0
H167 H 0.77803 0.19384 0.11297 0.0
H168 H 0.7751 0.2043 0.06607 0.0
H169 H 0.81577 0.08383 0.91 0.0
H170 H 0.76569 0.13285 0.83035 0.0
H171 H 0.74699 0.1562 0.87871 0.0
H172 H 0.84011 0.12868 0.96292 0.0
H173 H 0.84425 0.09551 0.97498 0.0
H174 H 0.83907 0.1196 0.00846 0.0
H175 H 0.76623 0.07825 0.96368 0.0
H176 H 0.78242 0.08175 0.0092 0.0
H177 H 0.80341 0.06774 0.97622 0.0
H178 H 0.83938 0.08386 0.10786 0.0
C179 C 0.81391 0.1057 0.06591 0.0
C180 C 0.26167 0.42413 0.37274 0.0
C181 C 0.27897 0.44646 0.37409 0.0
C182 C 0.28614 0.45885 0.40809 0.0
C183 C 0.26091 0.42604 0.43829 0.0
C184 C 0.25268 0.41451 0.40487 0.0
C185 C 0.23391 0.39124 0.40795 0.0
H186 H 0.17266 0.30753 0.51536 0.0
C187 C 0.24908 0.41062 0.46654 0.0
C188 C 0.23283 0.3904 0.44883 0.0
H189 H 0.16715 0.30672 0.39761 0.0
H190 H 0.19587 0.34557 0.39951 0.0
H191 H 0.23841 0.32071 0.53038 0.0
H192 H 0.16189 0.36871 0.52335 0.0
H193 H 0.18654 0.37979 0.56049 0.0
H194 H 0.17261 0.34756 0.56101 0.0
H195 H 0.21642 0.32301 0.56691 0.0
H196 H 0.24663 0.34451 0.56349 0.0
C197 C 0.25012 0.36776 0.39462 0.0
C198 C 0.20323 0.39633 0.38623 0.0
C199 C 0.27988 0.42986 0.6013 0.0
C200 C 0.27402 0.41764 0.63354 0.0
C201 C 0.25408 0.39704 0.63084 0.0
C202 C 0.2409 0.38828 0.59677 0.0
C203 C 0.24777 0.40008 0.56482 0.0
C204 C 0.26657 0.42078 0.56737 0.0
C205 C 0.27114 0.43094 0.53037 0.0
C206 C 0.25271 0.41236 0.50529 0.0
C207 C 0.23919 0.39433 0.5257 0.0
C208 C 0.30426 0.42878 0.52673 0.0
C209 C 0.25878 0.45855 0.52664 0.0
C210 C 0.1771 0.31594 0.48986 0.0
C211 C 0.16738 0.3041 0.45625 0.0
C212 C 0.17448 0.31538 0.42387 0.0
C213 C 0.19106 0.33799 0.42504 0.0
C214 C 0.20085 0.3494 0.45898 0.0
C215 C 0.19364 0.33839 0.49058 0.0
C216 C 0.20642 0.35261 0.5243 0.0
C217 C 0.22227 0.37421 0.50779 0.0
C218 C 0.21904 0.37225 0.46955 0.0
C219 C 0.22796 0.3344 0.54781 0.0
C220 C 0.1807 0.36262 0.54366 0.0
H221 H 0.28377 0.45894 0.46503 0.0
H222 H 0.25574 0.41387 0.3474 0.0
H223 H 0.19699 0.41682 0.38796 0.0
H224 H 0.1855 0.38576 0.39716 0.0
H225 H 0.20291 0.39154 0.35688 0.0
H226 H 0.27415 0.36903 0.40382 0.0
H227 H 0.24692 0.36658 0.36433 0.0
H228 H 0.24324 0.34952 0.40581 0.0
H229 H 0.29471 0.44601 0.60241 0.0
H230 H 0.24935 0.38709 0.6551 0.0
H231 H 0.22632 0.37228 0.59666 0.0
H232 H 0.31304 0.40991 0.53694 0.0
H233 H 0.31704 0.44387 0.54295 0.0
H234 H 0.30894 0.43002 0.49829 0.0
H235 H 0.24051 0.46129 0.54327 0.0
H236 H 0.24902 0.46313 0.49839 0.0
H237 H 0.27602 0.47284 0.53596 0.0
H238 H 0.29863 0.47645 0.41012 0.0
C239 C 0.2773 0.44876 0.44007 0.0
O240 O 0.95953 0.05416 0.57496 0.0
Mg241 Mg 0.00461 0.04622 0.58342 0.0
O242 O 0.96704 0.01324 0.57646 0.0
Mg243 Mg 0.00762 0.01045 0.5408 0.0
O244 O 0.027 0.05354 0.54041 0.0
O245 O 0.02456 0.08016 0.58765 0.0
O246 O 0.04679 0.00436 0.50564 0.0
O247 O 0.97511 0.02332 0.48981 0.0
Mg248 Mg 0.99681 0.96614 0.48566 0.0
O249 O 0.99079 0.96838 0.53923 0.0
O250 O 0.04103 0.96677 0.47813 0.0
O251 O 0.9671 0.99001 0.45282 0.0
O252 O 0.98145 0.93316 0.50513 0.0
C253 C 0.03966 0.00555 0.62358 0.0
C254 C 0.95039 0.03219 0.58109 0.0
C255 C 0.03293 0.07555 0.55637 0.0
C256 C 0.05629 0.98649 0.48666 0.0
C257 C 0.96243 0.01318 0.46041 0.0
C258 C 0.98182 0.94481 0.53596 0.0
O259 O 0.02338 0.02423 0.62946 0.0
O260 O 0.04016 0.99792 0.591 0.0
O261 O 0.51047 0.50767 0.12162 0.0
Mg262 Mg 0.49342 0.48224 0.07854 0.0
O263 O 0.52484 0.53367 0.08085 0.0
Mg264 Mg 0.4922 0.51732 0.03315 0.0
O265 O 0.51607 0.4759 0.0352 0.0
O266 O 0.51701 0.44999 0.08383 0.0
O267 O 0.45949 0.49935 0.98557 0.0
O268 O 0.52764 0.52664 0.99393 0.0
Mg269 Mg 0.4677 0.55753 0.97346 0.0
O270 O 0.47086 0.55749 0.02895 0.0
O271 O 0.4386 0.52971 0.94905 0.0
O272 O 0.50983 0.55846 0.9578 0.0
O273 O 0.45134 0.58984 0.99435 0.0
C274 C 0.43888 0.49386 0.07819 0.0
C275 C 0.52496 0.52708 0.11401 0.0
C276 C 0.52452 0.4547 0.05211 0.0
C277 C 0.44115 0.50648 0.95841 0.0
C278 C 0.53048 0.54314 0.96902 0.0
C279 C 0.45887 0.58002 0.02626 0.0
O280 O 0.4486 0.47197 0.07249 0.0
O281 O 0.45437 0.51312 0.07186 0.0
H282 H 0.12357 0.29141 0.49616 0.0
H283 H 0.10229 0.2492 0.50271 0.0
H284 H 0.15232 0.21899 0.42152 0.0
H285 H 0.1743 0.26125 0.41524 0.0
H286 H 0.08977 0.1995 0.42044 0.0
H287 H 0.18194 0.2095 0.49944 0.0
H288 H 0.21645 0.23333 0.54393 0.0
H289 H 0.1534 0.23315 0.62002 0.0
H290 H 0.1183 0.20972 0.5757 0.0
H291 H 0.05945 0.0739 0.4932 0.0
H292 H 0.08485 0.1093 0.46644 0.0
H293 H 0.06539 0.15895 0.55344 0.0
H294 H 0.04099 0.12426 0.58029 0.0
H295 H 0.12042 0.16391 0.54414 0.0
H296 H 0.02655 0.16059 0.46657 0.0
H297 H 0.98813 0.14017 0.42311 0.0
H298 H 0.04981 0.13003 0.34647 0.0
H299 H 0.08873 0.15007 0.38974 0.0
C300 C 0.12989 0.27588 0.47942 0.0
C301 C 0.15101 0.27958 0.45564 0.0
C302 C 0.11753 0.25183 0.48299 0.0
C303 C 0.12598 0.231 0.46283 0.0
C304 C 0.14549 0.2349 0.43721 0.0
C305 C 0.158 0.25904 0.43368 0.0
C306 C 0.11692 0.2049 0.472 0.0
C307 C 0.09685 0.19137 0.44717 0.0
C308 C 0.12601 0.19455 0.50702 0.0
C309 C 0.14744 0.20797 0.53415 0.0
C310 C 0.17538 0.21466 0.52558 0.0
C311 C 0.19504 0.2281 0.55077 0.0
C312 C 0.18711 0.23478 0.58476 0.0
C313 C 0.15952 0.22796 0.59368 0.0
C314 C 0.13974 0.21457 0.56855 0.0
C315 C 0.06071 0.09239 0.50653 0.0
C316 C 0.04835 0.09615 0.53901 0.0
C317 C 0.07511 0.11259 0.49118 0.0
C318 C 0.07705 0.13679 0.50799 0.0
C319 C 0.06447 0.14044 0.54014 0.0
C320 C 0.05042 0.12045 0.55546 0.0
C321 C 0.09223 0.15873 0.49318 0.0
C322 C 0.11372 0.17157 0.51702 0.0
C323 C 0.084 0.16854 0.45754 0.0
C324 C 0.06064 0.1565 0.43157 0.0
C325 C 0.03198 0.15379 0.44058 0.0
C326 C 0.01011 0.14233 0.41597 0.0
C327 C 0.01655 0.13373 0.3821 0.0
C328 C 0.04487 0.13664 0.37275 0.0
C329 C 0.06685 0.14804 0.39731 0.0
H330 H 0.99957 0.12488 0.36306 0.0
H331 H 0.20235 0.24521 0.60421 0.0
H332 H 0.39714 0.80042 0.13177 0.0
H333 H 0.4237 0.75952 0.14126 0.0
H334 H 0.35073 0.72067 0.07918 0.0
H335 H 0.32452 0.76136 0.06908 0.0
H336 H 0.37579 0.69518 0.14688 0.0
H337 H 0.40373 0.73534 0.03666 0.0
H338 H 0.4249 0.77016 0.00351 0.0
H339 H 0.50635 0.76353 0.07484 0.0
H340 H 0.48546 0.72889 0.10876 0.0
H341 H 0.40541 0.59037 0.04398 0.0
H342 H 0.39288 0.62715 0.07915 0.0
H343 H 0.48506 0.64179 0.11243 0.0
H344 H 0.49753 0.60473 0.0765 0.0
H345 H 0.46052 0.68142 0.07865 0.0
H346 H 0.43685 0.63263 0.17695 0.0
H347 H 0.41646 0.59712 0.20945 0.0
H348 H 0.32906 0.61898 0.16414 0.0
H349 H 0.34889 0.65436 0.13079 0.0
C350 C 0.38681 0.78307 0.12041 0.0
C351 C 0.35896 0.78397 0.09943 0.0
C352 C 0.40191 0.7598 0.12589 0.0
C353 C 0.38907 0.73711 0.11104 0.0
C354 C 0.3609 0.73794 0.09106 0.0
C355 C 0.34609 0.76118 0.08502 0.0
C356 C 0.40545 0.71263 0.1138 0.0
C357 C 0.39441 0.69204 0.13217 0.0
C358 C 0.43046 0.70895 0.09585 0.0
C359 C 0.44291 0.72983 0.07558 0.0
C360 C 0.42604 0.74151 0.04553 0.0
C361 C 0.43801 0.76117 0.02654 0.0
C362 C 0.46691 0.76913 0.03716 0.0
C363 C 0.48393 0.7574 0.06672 0.0
C364 C 0.47204 0.73777 0.08584 0.0
C365 C 0.42291 0.60064 0.06041 0.0
C366 C 0.45235 0.59468 0.05801 0.0
C367 C 0.41578 0.62174 0.08056 0.0
C368 C 0.43801 0.63735 0.0986 0.0
C369 C 0.46753 0.63 0.09887 0.0
C370 C 0.47467 0.60871 0.0787 0.0
C371 C 0.43018 0.66335 0.11054 0.0
C372 C 0.44267 0.68443 0.09472 0.0
C373 C 0.40667 0.66743 0.13114 0.0
C374 C 0.39443 0.6462 0.15125 0.0
C375 C 0.41328 0.6298 0.17369 0.0
C376 C 0.40182 0.60968 0.1923 0.0
C377 C 0.37149 0.60579 0.18886 0.0
C378 C 0.35256 0.62204 0.16682 0.0
C379 C 0.3639 0.64218 0.1481 0.0
H380 H 0.36265 0.5902 0.2033 0.0
H381 H 0.47615 0.78433 0.0224 0.0
H382 H 0.87561 0.74013 0.65241 0.0
H383 H 0.90466 0.77934 0.6523 0.0
H384 H 0.84691 0.80659 0.55864 0.0
H385 H 0.81757 0.76775 0.55885 0.0
H386 H 0.90328 0.81292 0.54941 0.0
H387 H 0.84291 0.83014 0.64361 0.0
H388 H 0.82237 0.82188 0.70086 0.0
H389 H 0.90892 0.82488 0.76113 0.0
H390 H 0.93004 0.8328 0.70411 0.0
H391 H 0.92493 0.94375 0.5454 0.0
H392 H 0.90125 0.90788 0.5723 0.0
H393 H 0.98614 0.87767 0.61541 0.0
H394 H 0.00994 0.91333 0.5876 0.0
H395 H 0.92051 0.87219 0.65514 0.0
H396 H 0.98033 0.84854 0.55649 0.0
H397 H 0.99864 0.85916 0.49845 0.0
H398 H 0.91007 0.86985 0.44673 0.0
H399 H 0.89133 0.85971 0.50474 0.0
C400 C 0.86891 0.75458 0.632 0.0
C401 C 0.84423 0.75074 0.6056 0.0
C402 C 0.88558 0.77697 0.63196 0.0
C403 C 0.87784 0.79599 0.60562 0.0
C404 C 0.85335 0.79214 0.57916 0.0
C405 C 0.83668 0.76983 0.5792 0.0
C406 C 0.89548 0.81973 0.6049 0.0
C407 C 0.90701 0.82576 0.57265 0.0
C408 C 0.90074 0.83647 0.63528 0.0
C409 C 0.88808 0.83175 0.66955 0.0
C410 C 0.85759 0.8288 0.66903 0.0
C411 C 0.84584 0.82423 0.70144 0.0
C412 C 0.86434 0.82278 0.7346 0.0
C413 C 0.89463 0.82596 0.73542 0.0
C414 C 0.9065 0.8305 0.70307 0.0
C415 C 0.93845 0.93027 0.56245 0.0
C416 C 0.96916 0.93136 0.56494 0.0
C417 C 0.92493 0.90973 0.57763 0.0
C418 C 0.94199 0.89013 0.59561 0.0
C419 C 0.97266 0.89275 0.60183 0.0
C420 C 0.98622 0.91318 0.58619 0.0
C421 C 0.92821 0.86497 0.59989 0.0
C422 C 0.91722 0.8589 0.63243 0.0
C423 C 0.92337 0.84805 0.56989 0.0
C424 C 0.9345 0.85368 0.53493 0.0
C425 C 0.96482 0.85337 0.53278 0.0
C426 C 0.97526 0.85927 0.49992 0.0
C427 C 0.95554 0.86526 0.46894 0.0
C428 C 0.92532 0.86527 0.47076 0.0
C429 C 0.91478 0.85946 0.50361 0.0
H430 H 0.96366 0.86982 0.44351 0.0
H431 H 0.85519 0.81925 0.75967 0.0
H432 H 0.64516 0.25065 0.02847 0.0
H433 H 0.61504 0.28895 0.02245 0.0
H434 H 0.65609 0.31247 0.92935 0.0
H435 H 0.6878 0.27449 0.9366 0.0
H436 H 0.65312 0.35165 0.9724 0.0
H437 H 0.58245 0.29234 0.91991 0.0
H438 H 0.55407 0.25225 0.91306 0.0
H439 H 0.51913 0.26761 0.01307 0.0
H440 H 0.5476 0.3076 0.02085 0.0
H441 H 0.54608 0.45574 0.98541 0.0
H442 H 0.57189 0.42082 0.95782 0.0
H443 H 0.56644 0.37424 0.05295 0.0
H444 H 0.54133 0.40837 0.08044 0.0
H445 H 0.54722 0.34934 0.98636 0.0
H446 H 0.62895 0.40342 0.04281 0.0
H447 H 0.65682 0.44385 0.04768 0.0
H448 H 0.66872 0.43847 0.93457 0.0
H449 H 0.64063 0.39812 0.92898 0.0
C450 C 0.64792 0.26393 0.0067 0.0
C451 C 0.66917 0.25958 0.98326 0.0
C452 C 0.63028 0.28572 0.00291 0.0
C453 C 0.63285 0.30351 0.97504 0.0
C454 C 0.65355 0.29897 0.95093 0.0
C455 C 0.67149 0.27715 0.95493 0.0
C456 C 0.61515 0.32747 0.97319 0.0
C457 C 0.62978 0.35113 0.97443 0.0
C458 C 0.5846 0.32703 0.97554 0.0
C459 C 0.56725 0.303 0.97097 0.0
C460 C 0.56884 0.28712 0.94055 0.0
C461 C 0.55271 0.26441 0.9365 0.0
C462 C 0.53482 0.25739 0.96261 0.0
C463 C 0.53297 0.27309 0.99283 0.0
C464 C 0.54906 0.29581 0.99703 0.0
C465 C 0.55057 0.43808 1.00041 0.0
C466 C 0.54151 0.43488 0.03509 0.0
C467 C 0.56525 0.41818 0.98462 0.0
C468 C 0.57081 0.39488 0.00327 0.0
C469 C 0.56211 0.39193 0.03793 0.0
C470 C 0.54781 0.41164 0.05369 0.0
C471 C 0.58559 0.37302 0.98767 0.0
C472 C 0.57034 0.34978 0.98304 0.0
C473 C 0.61536 0.37391 0.98179 0.0
C474 C 0.63241 0.39798 0.98537 0.0
C475 C 0.63732 0.41098 0.01893 0.0
C476 C 0.6532 0.43384 0.02183 0.0
C477 C 0.66444 0.44377 0.99142 0.0
C478 C 0.65994 0.43079 0.95808 0.0
C479 C 0.64407 0.40793 0.95503 0.0
H480 H 0.67671 0.46148 0.99371 0.0
H481 H 0.52236 0.23979 0.95943 0.0
H482 H 0.23624 0.91052 0.28541 0.0
H483 H 0.2098 0.92504 0.33441 0.0
H484 H 0.19371 0.99788 0.2808 0.0
H485 H 0.22173 0.98398 0.23229 0.0
H486 H 0.20391 0.00381 0.35471 0.0
H487 H 0.14137 0.95264 0.2704 0.0
H488 H 0.12691 0.91509 0.23183 0.0
H489 H 0.13456 0.86719 0.327 0.0
H490 H 0.1495 0.9044 0.36611 0.0
H491 H 0.07562 0.02646 0.44848 0.0
H492 H 0.11375 0.02377 0.40774 0.0
H493 H 0.13709 0.9483 0.44915 0.0
H494 H 0.09857 0.95066 0.48861 0.0
H495 H 0.12157 0.94745 0.37776 0.0
H496 H 0.18471 1.00061 0.46214 0.0
H497 H 0.19723 0.03943 0.49879 0.0
H498 H 0.18534 0.08522 0.40148 0.0
H499 H 0.17239 0.04669 0.36429 0.0
C500 C 0.22784 0.92989 0.28432 0.0
C501 C 0.23108 0.946 0.25462 0.0
C502 C 0.21238 0.93807 0.31227 0.0
C503 C 0.19928 0.96237 0.31094 0.0
C504 C 0.20348 0.97898 0.28227 0.0
C505 C 0.21923 0.97088 0.25435 0.0
C506 C 0.17972 0.96953 0.33831 0.0
C507 C 0.1857 0.99166 0.35956 0.0
C508 C 0.15591 0.95372 0.34459 0.0
C509 C 0.14679 0.93129 0.32116 0.0
C510 C 0.14017 0.93407 0.28308 0.0
C511 C 0.13186 0.91285 0.26112 0.0
C512 C 0.12988 0.88876 0.27695 0.0
C513 C 0.13614 0.88586 0.31478 0.0
C514 C 0.1445 0.90701 0.33686 0.0
C515 C 0.08973 0.00977 0.44979 0.0
C516 C 0.08426 0.98873 0.47151 0.0
C517 C 0.11143 0.00819 0.42645 0.0
C518 C 0.12813 0.98571 0.42513 0.0
C519 C 0.12433 0.96573 0.44943 0.0
C520 C 0.10248 0.96715 0.47215 0.0
C521 C 0.14643 0.98117 0.39542 0.0
C522 C 0.13988 0.9596 0.3732 0.0
C523 C 0.16935 0.99768 0.38814 0.0
C524 C 0.17729 0.0208 0.41048 0.0
C525 C 0.18453 0.01898 0.44859 0.0
C526 C 0.19176 0.04093 0.46945 0.0
C527 C 0.192 0.06479 0.45249 0.0
C528 C 0.18511 0.06673 0.4146 0.0
C529 C 0.17786 0.04485 0.39361 0.0
H530 H 0.19758 0.08175 0.46869 0.0
H531 H 0.12343 0.87236 0.2599 0.0
H532 H 0.71451 0.54528 0.73127 0.0
H533 H 0.69464 0.53165 0.78665 0.0
H534 H 0.66174 0.60806 0.79958 0.0
H535 H 0.68298 0.62186 0.74562 0.0
H536 H 0.6806 0.59101 0.86271 0.0
H537 H 0.61863 0.5546 0.75817 0.0
H538 H 0.60886 0.52784 0.70289 0.0
H539 H 0.64017 0.46158 0.76488 0.0
H540 H 0.65043 0.48804 0.82045 0.0
H541 H 0.54933 0.58426 0.93456 0.0
H542 H 0.59 0.58691 0.89916 0.0
H543 H 0.61443 0.50913 0.92793 0.0
H544 H 0.57281 0.50616 0.96364 0.0
H545 H 0.61018 0.51873 0.85343 0.0
H546 H 0.6594 0.5572 0.96164 0.0
H547 H 0.66403 0.58606 0.01488 0.0
H548 H 0.65184 0.65112 0.94363 0.0
H549 H 0.64672 0.62268 0.88997 0.0
C550 C 0.70324 0.55911 0.74628 0.0
C551 C 0.70017 0.58458 0.7343 0.0
C552 C 0.69177 0.55132 0.77777 0.0
C553 C 0.67617 0.56868 0.79708 0.0
C554 C 0.67372 0.59426 0.78538 0.0
C555 C 0.68578 0.60217 0.75448 0.0
C556 C 0.66133 0.56039 0.82862 0.0
C557 C 0.6652 0.57521 0.86062 0.0
C558 C 0.64193 0.5392 0.82662 0.0
C559 C 0.63563 0.52332 0.7933 0.0
C560 C 0.62359 0.53435 0.75993 0.0
C561 C 0.61795 0.51924 0.72856 0.0
C562 C 0.62399 0.49304 0.73034 0.0
C563 C 0.63558 0.48188 0.76352 0.0
C564 C 0.6413 0.49692 0.79495 0.0
C565 C 0.56348 0.56772 0.93386 0.0
C566 C 0.55774 0.54493 0.9518 0.0
C567 C 0.58694 0.56936 0.91376 0.0
C568 C 0.60551 0.54836 0.91123 0.0
C569 C 0.60044 0.52564 0.92979 0.0
C570 C 0.57681 0.524 0.95028 0.0
C571 C 0.62849 0.55012 0.8866 0.0
C572 C 0.62622 0.53407 0.85594 0.0
C573 C 0.64891 0.5705 0.88949 0.0
C574 C 0.65269 0.58775 0.92174 0.0
C575 C 0.65763 0.57766 0.95731 0.0
C576 C 0.66033 0.59395 0.98758 0.0
C577 C 0.65823 0.62041 0.98264 0.0
C578 C 0.65351 0.63063 0.94742 0.0
C579 C 0.65079 0.61443 0.91706 0.0
H580 H 0.66028 0.63298 0.00611 0.0
H581 H 0.61961 0.48137 0.70603 0.0
H582 H 0.8381 0.14805 0.18582 0.0
H583 H 0.85854 0.13744 0.24873 0.0
H584 H 0.84223 0.05746 0.22599 0.0
H585 H 0.8213 0.06794 0.16347 0.0
H586 H 0.82653 0.07167 0.29213 0.0
H587 H 0.90949 0.08337 0.22438 0.0
H588 H 0.94065 0.10791 0.18743 0.0
H589 H 0.95623 0.16417 0.27245 0.0
H590 H 0.92476 0.14014 0.30968 0.0
H591 H 0.92387 0.99534 0.40398 0.0
H592 H 0.89482 0.01977 0.35625 0.0
H593 H 0.92715 0.09013 0.4076 0.0
H594 H 0.95685 0.06556 0.45587 0.0
H595 H 0.93143 0.08992 0.33509 0.0
H596 H 0.85579 0.0745 0.40732 0.0
H597 H 0.8255 0.04981 0.44515 0.0
H598 H 0.79614 0.00142 0.35371 0.0
H599 H 0.8266 0.02555 0.31544 0.0
C600 C 0.83858 0.12824 0.19439 0.0
C601 C 0.82826 0.1088 0.16964 0.0
C602 C 0.85042 0.12221 0.23024 0.0
C603 C 0.8521 0.09665 0.24193 0.0
C604 C 0.84116 0.07731 0.21752 0.0
C605 C 0.82946 0.0833 0.18171 0.0
C606 C 0.86598 0.08968 0.27916 0.0
C607 C 0.84948 0.0756 0.30156 0.0
C608 C 0.8956 0.09573 0.29203 0.0
C609 C 0.91442 0.11017 0.26957 0.0
C610 C 0.91931 0.10111 0.23503 0.0
C611 C 0.93707 0.1149 0.21407 0.0
C612 C 0.95031 0.13764 0.22752 0.0
C613 C 0.94588 0.1466 0.26201 0.0
C614 C 0.92808 0.13291 0.28305 0.0
C615 C 0.92465 0.01602 0.40549 0.0
C616 C 0.94276 0.0285 0.43372 0.0
C617 C 0.90781 0.02998 0.37825 0.0
C618 C 0.9085 0.05679 0.37856 0.0
C619 C 0.92616 0.06944 0.407 0.0
C620 C 0.943 0.0554 0.43458 0.0
C621 C 0.89228 0.07105 0.3475 0.0
C622 C 0.90829 0.08651 0.3262 0.0
C623 C 0.86216 0.06638 0.33571 0.0
C624 C 0.84361 0.05181 0.35853 0.0
C625 C 0.84303 0.05849 0.39532 0.0
C626 C 0.8258 0.0446 0.41684 0.0
C627 C 0.80892 0.02405 0.40185 0.0
C628 C 0.80921 0.01736 0.36528 0.0
C629 C 0.82641 0.03117 0.34363 0.0
H630 H 0.7956 0.01331 0.41856 0.0
H631 H 0.96408 0.14828 0.21126 0.0
H632 H 0.33193 0.43052 0.65058 0.0
H633 H 0.35831 0.44061 0.71067 0.0
H634 H 0.27841 0.43117 0.75882 0.0
H635 H 0.25158 0.4219 0.69851 0.0
H636 H 0.30872 0.47257 0.786 0.0
H637 H 0.33039 0.38434 0.76679 0.0
H638 H 0.34666 0.34759 0.73272 0.0
H639 H 0.43197 0.38151 0.73482 0.0
H640 H 0.41607 0.41866 0.76845 0.0
H641 H 0.38705 0.48607 0.96207 0.0
H642 H 0.35641 0.46376 0.91223 0.0
H643 H 0.42855 0.46516 0.84821 0.0
H644 H 0.45919 0.48653 0.89835 0.0
H645 H 0.39812 0.42327 0.8333 0.0
H646 H 0.37521 0.51336 0.84335 0.0
H647 H 0.3599 0.55156 0.87521 0.0
H648 H 0.27799 0.51541 0.88813 0.0
H649 H 0.29302 0.47686 0.85673 0.0
C650 C 0.31984 0.43097 0.67383 0.0
C651 C 0.28965 0.42531 0.66974 0.0
C652 C 0.33504 0.43642 0.70826 0.0
C653 C 0.32044 0.43614 0.73934 0.0
C654 C 0.29015 0.43125 0.73525 0.0
C655 C 0.27491 0.42582 0.7008 0.0
C656 C 0.33685 0.44108 0.77606 0.0
C657 C 0.32794 0.46147 0.79667 0.0
C658 C 0.3622 0.42685 0.78972 0.0
C659 C 0.37196 0.40436 0.76995 0.0
C660 C 0.35256 0.38403 0.75981 0.0
C661 C 0.36173 0.36313 0.74059 0.0
C662 C 0.39032 0.36224 0.73156 0.0
C663 C 0.40983 0.38223 0.74183 0.0
C664 C 0.40076 0.4032 0.76101 0.0
C665 C 0.39652 0.48065 0.93783 0.0
C666 C 0.42538 0.48765 0.93387 0.0
C667 C 0.379 0.4682 0.90926 0.0
C668 C 0.38998 0.46328 0.87612 0.0
C669 C 0.41954 0.46874 0.8734 0.0
C670 C 0.43707 0.48088 0.90204 0.0
C671 C 0.3703 0.45506 0.84296 0.0
C672 C 0.37861 0.43408 0.82293 0.0
C673 C 0.34454 0.4689 0.82962 0.0
C674 C 0.33537 0.49215 0.8481 0.0
C675 C 0.35401 0.51352 0.85318 0.0
C676 C 0.34538 0.53523 0.87113 0.0
C677 C 0.31802 0.53588 0.88378 0.0
C678 C 0.2992 0.51486 0.87839 0.0
C679 C 0.30776 0.49308 0.86051 0.0
H680 H 0.31138 0.5527 0.89769 0.0
H681 H 0.39736 0.34604 0.71666 0.0
H682 H 0.72432 0.60343 0.37311 0.0
H683 H 0.69488 0.58998 0.3161 0.0
H684 H 0.61625 0.59486 0.3681 0.0
H685 H 0.64561 0.60778 0.42515 0.0
H686 H 0.61578 0.55265 0.32974 0.0
H687 H 0.63661 0.64166 0.30694 0.0
H688 H 0.6694 0.67851 0.30236 0.0
H689 H 0.71056 0.63932 0.22041 0.0
H690 H 0.67826 0.60211 0.22484 0.0
H691 H 0.50837 0.54154 0.17861 0.0
H692 H 0.5393 0.55958 0.23134 0.0
H693 H 0.61341 0.5594 0.17052 0.0
H694 H 0.5817 0.54312 0.11676 0.0
H695 H 0.61844 0.59826 0.2125 0.0
H696 H 0.59907 0.50969 0.23406 0.0
H697 H 0.568 0.47166 0.23844 0.0
H698 H 0.52669 0.50804 0.32262 0.0
H699 H 0.55727 0.5464 0.31844 0.0
C700 C 0.70074 0.60172 0.37226 0.0
C701 C 0.68727 0.60663 0.4036 0.0
C702 C 0.68392 0.59411 0.33966 0.0
C703 C 0.65325 0.59173 0.3376 0.0
C704 C 0.63985 0.59652 0.36897 0.0
C705 C 0.65666 0.60385 0.4016 0.0
C706 C 0.63498 0.58382 0.30313 0.0
C707 C 0.61611 0.56284 0.30421 0.0
C708 C 0.63609 0.59651 0.26947 0.0
C709 C 0.65519 0.61904 0.26645 0.0
C710 C 0.65276 0.64086 0.28809 0.0
C711 C 0.67125 0.66181 0.2855 0.0
C712 C 0.6921 0.66123 0.26117 0.0
C713 C 0.69443 0.63974 0.23927 0.0
C714 C 0.67602 0.61873 0.24178 0.0
C715 C 0.53116 0.54581 0.1764 0.0
C716 C 0.54279 0.54086 0.14387 0.0
C717 C 0.54893 0.55586 0.20664 0.0
C718 C 0.57905 0.56 0.2055 0.0
C719 C 0.59035 0.55618 0.17231 0.0
C720 C 0.57226 0.5469 0.1416 0.0
C721 C 0.59883 0.56731 0.23922 0.0
C722 C 0.61808 0.58805 0.238 0.0
C723 C 0.59837 0.5542 0.27276 0.0
C724 C 0.58031 0.53098 0.27574 0.0
C725 C 0.58328 0.50961 0.2534 0.0
C726 C 0.56575 0.488 0.25585 0.0
C727 C 0.54534 0.48746 0.28074 0.0
C728 C 0.54249 0.50849 0.30334 0.0
C729 C 0.55994 0.53015 0.30098 0.0
H730 H 0.53177 0.47073 0.28256 0.0
H731 H 0.7064 0.67746 0.25923 0.0
H732 H 0.84888 0.08936 0.86693 0.0
H733 H 0.87095 0.06958 0.81741 0.0
H734 H 0.78815 0.07446 0.74747 0.0
H735 H 0.76538 0.09324 0.79761 0.0
H736 H 0.81663 0.02984 0.73563 0.0
H737 H 0.84012 0.11966 0.74332 0.0
H738 H 0.85901 0.15931 0.77402 0.0
H739 H 0.94427 0.125 0.79949 0.0
H740 H 0.92576 0.08501 0.76935 0.0
H741 H 0.90305 0.06349 0.57704 0.0
H742 H 0.87035 0.06879 0.62355 0.0
H743 H 0.90974 0.00317 0.68133 0.0
H744 H 0.94232 0.99745 0.63435 0.0
H745 H 0.90227 0.07619 0.69885 0.0
H746 H 0.86714 0.98156 0.70796 0.0
H747 H 0.84692 0.94375 0.67321 0.0
H748 H 0.78335 0.99134 0.60928 0.0
H749 H 0.80348 0.02939 0.64353 0.0
C750 C 0.83508 0.08575 0.84135 0.0
C751 C 0.8053 0.09307 0.83631 0.0
C752 C 0.84785 0.0746 0.8129 0.0
C753 C 0.83132 0.07085 0.77855 0.0
C754 C 0.80136 0.07723 0.77371 0.0
C755 C 0.78847 0.08827 0.80229 0.0
C756 C 0.84586 0.06198 0.74714 0.0
C757 C 0.83538 0.03999 0.72772 0.0
C758 C 0.87027 0.07519 0.73648 0.0
C759 C 0.88148 0.09928 0.75439 0.0
C760 C 0.86284 0.12052 0.75569 0.0
C761 C 0.87349 0.14306 0.77296 0.0
C762 C 0.9028 0.14465 0.78878 0.0
C763 C 0.92156 0.12373 0.78727 0.0
C764 C 0.91101 0.10113 0.77007 0.0
C765 C 0.90393 0.04955 0.59886 0.0
C766 C 0.92529 0.03012 0.60216 0.0
C767 C 0.88529 0.05265 0.62545 0.0
C768 C 0.88764 0.03641 0.65586 0.0
C769 C 0.90726 0.01567 0.65776 0.0
C770 C 0.92583 0.0124 0.63086 0.0
C771 C 0.87335 0.04396 0.68792 0.0
C772 C 0.88378 0.06589 0.70724 0.0
C773 C 0.84899 0.03084 0.69833 0.0
C774 C 0.83681 0.00815 0.67806 0.0
C775 C 0.8489 0.98387 0.68641 0.0
C776 C 0.83748 0.96245 0.66682 0.0
C777 C 0.81388 0.96514 0.63902 0.0
C778 C 0.80164 0.98928 0.63077 0.0
C779 C 0.81305 0.01076 0.65023 0.0
H780 H 0.80505 0.94854 0.6239 0.0
H781 H 0.911 0.16212 0.80213 0.0
H782 H 0.33178 0.47011 0.369 0.0
H783 H 0.35134 0.48395 0.314 0.0
H784 H 0.27296 0.45737 0.24778 0.0
H785 H 0.25219 0.44485 0.3027 0.0
H786 H 0.33096 0.43772 0.23115 0.0
H787 H 0.27928 0.51577 0.25059 0.0
H788 H 0.26629 0.55294 0.28625 0.0
H789 H 0.35605 0.57806 0.29932 0.0
H790 H 0.36972 0.54077 0.26435 0.0
H791 H 0.38639 0.46899 0.06961 0.0
H792 H 0.35133 0.46652 0.114 0.0
H793 H 0.40492 0.51889 0.18454 0.0
H794 H 0.43836 0.52303 0.13869 0.0
H795 H 0.35382 0.52632 0.1963 0.0
H796 H 0.40906 0.44862 0.19001 0.0
H797 H 0.42773 0.41061 0.16086 0.0
H798 H 0.33946 0.38374 0.13122 0.0
H799 H 0.32026 0.42176 0.15986 0.0
C800 C 0.31819 0.46781 0.34295 0.0
C801 C 0.2903 0.45622 0.34059 0.0
C802 C 0.32957 0.47562 0.31147 0.0
C803 C 0.31355 0.47172 0.27693 0.0
C804 C 0.28564 0.46051 0.27428 0.0
C805 C 0.27396 0.45313 0.30578 0.0
C806 C 0.32695 0.47762 0.24359 0.0
C807 C 0.3355 0.4571 0.22302 0.0
C808 C 0.3338 0.50286 0.23404 0.0
C809 C 0.32558 0.52528 0.25516 0.0
C810 C 0.29633 0.52904 0.26142 0.0
C811 C 0.28882 0.55018 0.28145 0.0
C812 C 0.31034 0.56781 0.29514 0.0
C813 C 0.33941 0.56437 0.28877 0.0
C814 C 0.34704 0.54323 0.26883 0.0
C815 C 0.39004 0.48054 0.09414 0.0
C816 C 0.41495 0.49618 0.10085 0.0
C817 C 0.37027 0.47887 0.11976 0.0
C818 C 0.37596 0.49172 0.15343 0.0
C819 C 0.39998 0.5086 0.15902 0.0
C820 C 0.41911 0.51102 0.13277 0.0
C821 C 0.35835 0.48634 0.18376 0.0
C822 C 0.34907 0.5069 0.20398 0.0
C823 C 0.35174 0.46103 0.1939 0.0
C824 C 0.36323 0.43817 0.17667 0.0
C825 C 0.39364 0.43468 0.17707 0.0
C826 C 0.40431 0.41313 0.16067 0.0
C827 C 0.38479 0.39481 0.14409 0.0
C828 C 0.35455 0.39797 0.14399 0.0
C829 C 0.34376 0.41951 0.16031 0.0
H830 H 0.39309 0.37814 0.13142 0.0
H831 H 0.30448 0.58417 0.31061 0.0
H832 H 0.23356 0.92998 0.89264 0.0
H833 H 0.20733 0.93784 0.83149 0.0
H834 H 0.12741 0.9516 0.87809 0.0
H835 H 0.15308 0.9428 0.93885 0.0
H836 H 0.11627 0.92298 0.81895 0.0
H837 H 0.17008 1.0008 0.85119 0.0
H838 H 0.21426 0.02687 0.8697 0.0
H839 H 0.25064 0.0028 0.77397 0.0
H840 H 0.2068 0.97631 0.75513 0.0
H841 H 0.03116 0.00532 0.69502 0.0
H842 H 0.06335 0.98738 0.74683 0.0
H843 H 0.12343 0.96143 0.67426 0.0
H844 H 0.09084 0.97887 0.62188 0.0
H845 H 0.14862 0.9913 0.74014 0.0
H846 H 0.0904 0.91777 0.70458 0.0
H847 H 0.04438 0.89422 0.68606 0.0
H848 H 0.01491 0.91209 0.7887 0.0
H849 H 0.06054 0.93619 0.80758 0.0
C850 C 0.21033 0.93444 0.8898 0.0
C851 C 0.19548 0.93595 0.92072 0.0
C852 C 0.19542 0.93914 0.85486 0.0
C853 C 0.16544 0.94557 0.85021 0.0
C854 C 0.15054 0.94671 0.88097 0.0
C855 C 0.16535 0.94197 0.91578 0.0
C856 C 0.14937 0.9514 0.81352 0.0
C857 C 0.12333 0.93799 0.80182 0.0
C858 C 0.15894 0.97051 0.79062 0.0
C859 C 0.18535 0.98632 0.80201 0.0
C860 C 0.18762 0.00088 0.83427 0.0
C861 C 0.21257 0.01577 0.84478 0.0
C862 C 0.23529 0.01642 0.82309 0.0
C863 C 0.23306 0.00223 0.79079 0.0
C864 C 0.20817 0.98728 0.78017 0.0
C865 C 0.05111 0.99564 0.69002 0.0
C866 C 0.0585 0.99348 0.65443 0.0
C867 C 0.06943 0.98538 0.71961 0.0
C868 C 0.09569 0.9731 0.71427 0.0
C869 C 0.1032 0.97084 0.67881 0.0
C870 C 0.08453 0.98068 0.649 0.0
C871 C 0.11535 0.96328 0.74622 0.0
C872 C 0.14196 0.97596 0.75702 0.0
C873 C 0.10622 0.94366 0.76844 0.0
C874 C 0.07882 0.92898 0.75737 0.0
C875 C 0.074 0.91689 0.72308 0.0
C876 C 0.048 0.9034 0.71254 0.0
C877 C 0.02671 0.9017 0.73616 0.0
C878 C 0.03141 0.91344 0.77042 0.0
C879 C 0.05736 0.927 0.78107 0.0
H880 H 0.00659 0.89125 0.72795 0.0
H881 H 0.25458 0.02797 0.83126 0.0
loop_
_geom_bond_atom_site_label_1
_geom_bond_atom_site_label_2
_geom_bond_distance
_geom_bond_site_symmetry_2
_ccdc_geom_bond_type
C0 C1 1.391 . S
C0 C4 1.391 . S
C0 H42 0.948 . S
C1 C0 1.391 . S
C1 C2 1.391 . S
C2 C1 1.391 . S
C2 H58 0.947 . S
C2 C59 1.392 1_556 S
C3 C4 1.391 1_554 S
C3 C7 1.397 . S
C3 C59 1.419 . S
C4 C0 1.391 . S
C4 C3 1.391 1_556 S
C4 C5 1.399 1_556 S
C5 C4 1.399 1_554 S
C5 C8 1.396 . S
C5 C17 1.453 1_554 S
C5 C18 1.684 1_554 S
H6 C30 0.948 . S
C7 C3 1.397 . S
C7 C8 1.394 . S
C7 C26 1.723 . S
C8 C5 1.396 . S
C8 C7 1.394 . S
C8 C38 1.723 . S
H9 C32 0.947 . S
H10 C33 0.948 . S
H11 C39 0.982 . S
H12 C40 0.979 . S
H13 C40 0.980 . S
H14 C40 0.983 . S
H15 C39 0.979 . S
H16 C39 0.977 . S
C17 C5 1.453 1_556 S
C17 H46 0.982 1_556 S
C17 H47 0.979 . S
C17 H48 0.977 1_556 S
C18 C5 1.684 1_556 S
C18 H43 0.979 . S
C18 H44 0.980 . S
C18 H45 0.983 . S
C19 C20 1.391 . S
C19 C24 1.391 . S
C19 H49 0.948 . S
C20 C19 1.391 . S
C20 C21 1.391 . S
C21 C20 1.391 . S
C21 C22 1.392 . S
C21 H50 0.947 . S
C22 C21 1.392 . S
C22 C23 1.419 . S
C22 H51 0.948 . S
C23 C22 1.419 . S
C23 C24 1.391 . S
C23 C27 1.397 . S
C24 C19 1.391 . S
C24 C23 1.391 . S
C24 C25 1.399 . S
C25 C24 1.399 . S
C25 C26 1.396 . S
C25 C28 1.453 . S
C25 C29 1.684 . S
C26 C7 1.723 . S
C26 C25 1.396 . S
C26 C27 1.394 . S
C27 C23 1.397 . S
C27 C26 1.394 . S
C27 C37 1.723 . S
C28 C25 1.453 . S
C28 H52 0.982 . S
C28 H53 0.979 . S
C28 H54 0.977 . S
C29 C25 1.684 . S
C29 H55 0.979 . S
C29 H56 0.980 . S
C29 H57 0.983 . S
C30 H6 0.948 . S
C30 C31 1.391 . S
C30 C35 1.391 . S
C31 C30 1.391 . S
C31 C32 1.391 . S
C32 H9 0.947 . S
C32 C31 1.391 . S
C32 C33 1.392 . S
C33 H10 0.948 . S
C33 C32 1.392 . S
C33 C34 1.419 . S
C34 C33 1.419 . S
C34 C35 1.391 . S
C34 C38 1.397 . S
C35 C30 1.391 . S
C35 C34 1.391 . S
C35 C36 1.399 . S
C36 C35 1.399 . S
C36 C37 1.396 . S
C36 C39 1.453 . S
C36 C40 1.684 . S
C37 C27 1.723 . S
C37 C36 1.396 . S
C37 C38 1.394 . S
C38 C8 1.723 . S
C38 C34 1.397 . S
C38 C37 1.394 . S
C39 H11 0.982 . S
C39 H15 0.979 . S
C39 H16 0.977 . S
C39 C36 1.453 . S
C40 H12 0.979 . S
C40 H13 0.980 . S
C40 H14 0.983 . S
C40 C36 1.684 . S
H41 C59 0.948 . S
H42 C0 0.948 . S
H43 C18 0.979 . S
H44 C18 0.980 . S
H45 C18 0.983 . S
H46 C17 0.982 1_554 S
H47 C17 0.979 . S
H48 C17 0.977 1_554 S
H49 C19 0.948 . S
H50 C21 0.947 . S
H51 C22 0.948 . S
H52 C28 0.982 . S
H53 C28 0.979 . S
H54 C28 0.977 . S
H55 C29 0.979 . S
H56 C29 0.980 . S
H57 C29 0.983 . S
H58 C2 0.947 . S
C59 C2 1.392 1_554 S
C59 C3 1.419 . S
C59 H41 0.948 . S
C60 C61 1.391 . S
C60 C64 1.391 . S
C60 H102 0.948 . S
C61 C60 1.391 . S
C61 C62 1.391 . S
C62 C61 1.391 . S
C62 H118 0.947 . S
C62 C119 1.392 . S
C63 C64 1.391 . S
C63 C67 1.397 . S
C63 C119 1.419 . S
C64 C60 1.391 . S
C64 C63 1.391 . S
C64 C65 1.399 . S
C65 C64 1.399 . S
C65 C68 1.396 . S
C65 C77 1.453 . S
C65 C78 1.684 . S
H66 C90 0.948 . S
C67 C63 1.397 . S
C67 C68 1.394 . S
C67 C86 1.723 . S
C68 C65 1.396 . S
C68 C67 1.394 . S
C68 C98 1.723 . S
H69 C92 0.947 . S
H70 C93 0.948 . S
H71 C99 0.982 . S
H72 C100 0.979 . S
H73 C100 0.980 . S
H74 C100 0.983 . S
H75 C99 0.979 . S
H76 C99 0.977 . S
C77 C65 1.453 . S
C77 H106 0.982 . S
C77 H107 0.979 . S
C77 H108 0.977 . S
C78 C65 1.684 . S
C78 H103 0.979 . S
C78 H104 0.980 . S
C78 H105 0.983 . S
C79 C80 1.391 . S
C79 C84 1.391 . S
C79 H109 0.948 . S
C80 C79 1.391 . S
C80 C81 1.391 . S
C81 C80 1.391 . S
C81 C82 1.392 . S
C81 H110 0.947 . S
C82 C81 1.392 . S
C82 C83 1.419 . S
C82 H111 0.948 . S
C83 C82 1.419 . S
C83 C84 1.391 . S
C83 C87 1.397 . S
C84 C79 1.391 . S
C84 C83 1.391 . S
C84 C85 1.399 . S
C85 C84 1.399 . S
C85 C86 1.396 . S
C85 C88 1.453 . S
C85 C89 1.684 . S
C86 C67 1.723 . S
C86 C85 1.396 . S
C86 C87 1.394 . S
C87 C83 1.397 . S
C87 C86 1.394 . S
C87 C97 1.723 . S
C88 C85 1.453 . S
C88 H112 0.982 . S
C88 H113 0.979 . S
C88 H114 0.977 . S
C89 C85 1.684 . S
C89 H115 0.979 . S
C89 H116 0.980 . S
C89 H117 0.983 . S
C90 H66 0.948 . S
C90 C91 1.391 . S
C90 C95 1.391 . S
C91 C90 1.391 . S
C91 C92 1.391 . S
C92 H69 0.947 . S
C92 C91 1.391 . S
C92 C93 1.392 . S
C93 H70 0.948 . S
C93 C92 1.392 . S
C93 C94 1.419 . S
C94 C93 1.419 . S
C94 C95 1.391 . S
C94 C98 1.397 . S
C95 C90 1.391 . S
C95 C94 1.391 . S
C95 C96 1.399 . S
C96 C95 1.399 . S
C96 C97 1.396 . S
C96 C99 1.453 . S
C96 C100 1.684 . S
C97 C87 1.723 . S
C97 C96 1.396 . S
C97 C98 1.394 . S
C98 C68 1.723 . S
C98 C94 1.397 . S
C98 C97 1.394 . S
C99 H71 0.982 . S
C99 H75 0.979 . S
C99 H76 0.977 . S
C99 C96 1.453 . S
C100 H72 0.979 . S
C100 H73 0.980 . S
C100 H74 0.983 . S
C100 C96 1.684 . S
H101 C119 0.948 . S
H102 C60 0.948 . S
H103 C78 0.979 . S
H104 C78 0.980 . S
H105 C78 0.983 . S
H106 C77 0.982 . S
H107 C77 0.979 . S
H108 C77 0.977 . S
H109 C79 0.948 . S
H110 C81 0.947 . S
H111 C82 0.948 . S
H112 C88 0.982 . S
H113 C88 0.979 . S
H114 C88 0.977 . S
H115 C89 0.979 . S
H116 C89 0.980 . S
H117 C89 0.983 . S
H118 C62 0.947 . S
C119 C62 1.392 . S
C119 C63 1.419 . S
C119 H101 0.948 . S
C120 C121 1.391 . S
C120 C124 1.391 . S
C120 H162 0.948 . S
C121 C120 1.391 . S
C121 C122 1.391 . S
C122 C121 1.391 . S
C122 H178 0.947 . S
C122 C179 1.392 . S
C123 C124 1.391 . S
C123 C127 1.397 . S
C123 C179 1.419 . S
C124 C120 1.391 . S
C124 C123 1.391 . S
C124 C125 1.399 . S
C125 C124 1.399 . S
C125 C128 1.396 . S
C125 C137 1.453 . S
C125 C138 1.684 . S
H126 C150 0.948 . S
C127 C123 1.397 . S
C127 C128 1.394 . S
C127 C146 1.723 1_554 S
C128 C125 1.396 . S
C128 C127 1.394 . S
C128 C158 1.723 . S
H129 C152 0.947 . S
H130 C153 0.948 . S
H131 C159 0.982 . S
H132 C160 0.979 . S
H133 C160 0.980 . S
H134 C160 0.983 . S
H135 C159 0.979 . S
H136 C159 0.977 . S
C137 C125 1.453 . S
C137 H166 0.982 . S
C137 H167 0.979 . S
C137 H168 0.977 . S
C138 C125 1.684 . S
C138 H163 0.979 . S
C138 H164 0.980 . S
C138 H165 0.983 . S
C139 C140 1.391 . S
C139 C144 1.391 . S
C139 H169 0.948 . S
C140 C139 1.391 . S
C140 C141 1.391 . S
C141 C140 1.391 . S
C141 C142 1.392 . S
C141 H170 0.947 . S
C142 C141 1.392 . S
C142 C143 1.419 . S
C142 H171 0.948 . S
C143 C142 1.419 . S
C143 C144 1.391 . S
C143 C147 1.397 . S
C144 C139 1.391 . S
C144 C143 1.391 . S
C144 C145 1.399 . S
C145 C144 1.399 . S
C145 C146 1.396 . S
C145 C148 1.453 . S
C145 C149 1.684 . S
C146 C127 1.723 1_556 S
C146 C145 1.396 . S
C146 C147 1.394 . S
C147 C143 1.397 . S
C147 C146 1.394 . S
C147 C157 1.723 . S
C148 C145 1.453 . S
C148 H172 0.982 . S
C148 H173 0.979 . S
C148 H174 0.977 1_556 S
C149 C145 1.684 . S
C149 H175 0.979 . S
C149 H176 0.980 1_556 S
C149 H177 0.983 . S
C150 H126 0.948 . S
C150 C151 1.400 . S
C150 C155 1.391 . S
C151 C150 1.400 . S
C151 C152 1.382 1_556 S
C152 H129 0.947 . S
C152 C151 1.382 1_554 S
C152 C153 1.392 . S
C153 H130 0.948 . S
C153 C152 1.392 . S
C153 C154 1.419 . S
C154 C153 1.419 . S
C154 C155 1.391 1_554 S
C154 C158 1.397 . S
C155 C150 1.391 . S
C155 C154 1.391 1_556 S
C155 C156 1.399 . S
C156 C155 1.399 . S
C156 C157 1.396 . S
C156 C159 1.453 . S
C156 C160 1.684 . S
C157 C147 1.723 . S
C157 C156 1.396 . S
C157 C158 1.394 1_556 S
C158 C128 1.723 . S
C158 C154 1.397 . S
C158 C157 1.394 1_554 S
C159 H131 0.982 . S
C159 H135 0.979 . S
C159 H136 0.977 . S
C159 C156 1.453 . S
C160 H132 0.979 . S
C160 H133 0.980 . S
C160 H134 0.983 . S
C160 C156 1.684 . S
H161 C179 0.948 . S
H162 C120 0.948 . S
H163 C138 0.979 . S
H164 C138 0.980 . S
H165 C138 0.983 . S
H166 C137 0.982 . S
H167 C137 0.979 . S
H168 C137 0.977 . S
H169 C139 0.948 . S
H170 C141 0.947 . S
H171 C142 0.948 . S
H172 C148 0.982 . S
H173 C148 0.979 . S
H174 C148 0.977 1_554 S
H175 C149 0.979 . S
H176 C149 0.980 1_554 S
H177 C149 0.983 . S
H178 C122 0.947 . S
C179 C122 1.392 . S
C179 C123 1.419 . S
C179 H161 0.948 . S
C180 C181 1.391 . S
C180 C184 1.391 . S
C180 H222 0.948 . S
C181 C180 1.391 . S
C181 C182 1.391 . S
C182 C181 1.391 . S
C182 H238 0.947 . S
C182 C239 1.392 . S
C183 C184 1.391 . S
C183 C187 1.397 . S
C183 C239 1.419 . S
C184 C180 1.391 . S
C184 C183 1.391 . S
C184 C185 1.399 . S
C185 C184 1.399 . S
C185 C188 1.396 . S
C185 C197 1.453 . S
C185 C198 1.684 . S
H186 C210 0.948 . S
C187 C183 1.397 . S
C187 C188 1.394 . S
C187 C206 1.723 . S
C188 C185 1.396 . S
C188 C187 1.394 . S
C188 C218 1.723 . S
H189 C212 0.947 . S
H190 C213 0.948 . S
H191 C219 0.982 . S
H192 C220 0.979 . S
H193 C220 0.980 . S
H194 C220 0.983 . S
H195 C219 0.979 . S
H196 C219 0.977 . S
C197 C185 1.453 . S
C197 H226 0.982 . S
C197 H227 0.979 . S
C197 H228 0.977 . S
C198 C185 1.684 . S
C198 H223 0.979 . S
C198 H224 0.980 . S
C198 H225 0.983 . S
C199 C200 1.391 . S
C199 C204 1.391 . S
C199 H229 0.948 . S
C200 C199 1.391 . S
C200 C201 1.391 . S
C201 C200 1.391 . S
C201 C202 1.392 . S
C201 H230 0.947 . S
C202 C201 1.392 . S
C202 C203 1.419 . S
C202 H231 0.948 . S
C203 C202 1.419 . S
C203 C204 1.391 . S
C203 C207 1.397 . S
C204 C199 1.391 . S
C204 C203 1.391 . S
C204 C205 1.399 . S
C205 C204 1.399 . S
C205 C206 1.396 . S
C205 C208 1.453 . S
C205 C209 1.684 . S
C206 C187 1.723 . S
C206 C205 1.396 . S
C206 C207 1.394 . S
C207 C203 1.397 . S
C207 C206 1.394 . S
C207 C217 1.723 . S
C208 C205 1.453 . S
C208 H232 0.982 . S
C208 H233 0.979 . S
C208 H234 0.977 . S
C209 C205 1.684 . S
C209 H235 0.979 . S
C209 H236 0.980 . S
C209 H237 0.983 . S
C210 H186 0.948 . S
C210 C211 1.391 . S
C210 C215 1.391 . S
C211 C210 1.391 . S
C211 C212 1.391 . S
C212 H189 0.947 . S
C212 C211 1.391 . S
C212 C213 1.392 . S
C213 H190 0.948 . S
C213 C212 1.392 . S
C213 C214 1.419 . S
C214 C213 1.419 . S
C214 C215 1.391 . S
C214 C218 1.397 . S
C215 C210 1.391 . S
C215 C214 1.391 . S
C215 C216 1.399 . S
C216 C215 1.399 . S
C216 C217 1.396 . S
C216 C219 1.453 . S
C216 C220 1.684 . S
C217 C207 1.723 . S
C217 C216 1.396 . S
C217 C218 1.394 . S
C218 C188 1.723 . S
C218 C214 1.397 . S
C218 C217 1.394 . S
C219 H191 0.982 . S
C219 H195 0.979 . S
C219 H196 0.977 . S
C219 C216 1.453 . S
C220 H192 0.979 . S
C220 H193 0.980 . S
C220 H194 0.983 . S
C220 C216 1.684 . S
H221 C239 0.948 . S
H222 C180 0.948 . S
H223 C198 0.979 . S
H224 C198 0.980 . S
H225 C198 0.983 . S
H226 C197 0.982 . S
H227 C197 0.979 . S
H228 C197 0.977 . S
H229 C199 0.948 . S
H230 C201 0.947 . S
H231 C202 0.948 . S
H232 C208 0.982 . S
H233 C208 0.979 . S
H234 C208 0.977 . S
H235 C209 0.979 . S
H236 C209 0.980 . S
H237 C209 0.983 . S
H238 C182 0.947 . S
C239 C182 1.392 . S
C239 C183 1.419 . S
C239 H221 0.948 . S
O240 Mg241 1.990 1_655 S
O240 C254 1.253 . S
Mg241 O240 1.990 1_455 S
Mg241 O244 2.180 . S
Mg241 O245 2.117 . S
Mg241 O259 2.030 . S
O242 Mg243 2.072 1_655 S
O242 C254 1.260 . S
Mg243 O242 2.072 1_455 S
Mg243 O244 2.099 . S
Mg243 O246 2.071 1_545 S
Mg243 O247 2.072 1_455 S
Mg243 O249 2.099 1_445 S
Mg243 O260 2.079 1_545 S
O244 Mg241 2.180 . S
O244 Mg243 2.099 . S
O244 C255 1.279 . S
O245 Mg241 2.117 . S
O245 C255 1.250 . S
O246 Mg243 2.071 1_565 S
O246 C256 1.273 . S
O247 Mg243 2.072 1_655 S
O247 C257 1.260 . S
Mg248 O249 2.180 . S
Mg248 O250 2.030 1_655 S
Mg248 O251 1.990 1_565 S
Mg248 O252 2.117 . S
O249 Mg243 2.099 1_665 S
O249 Mg248 2.180 . S
O249 C258 1.279 . S
O250 Mg248 2.030 1_455 S
O250 C256 1.248 . S
O251 Mg248 1.990 1_545 S
O251 C257 1.253 . S
O252 Mg248 2.117 . S
O252 C258 1.250 . S
C253 O259 1.243 . S
C253 O260 1.265 1_545 S
C254 O240 1.253 . S
C254 O242 1.260 . S
C255 O244 1.279 . S
C255 O245 1.250 . S
C256 O246 1.273 . S
C256 O250 1.248 . S
C257 O247 1.260 . S
C257 O251 1.253 . S
C258 O249 1.279 . S
C258 O252 1.250 . S
O259 Mg241 2.030 . S
O259 C253 1.243 . S
O260 Mg243 2.079 1_565 S
O260 C253 1.265 1_565 S
O261 Mg262 1.990 . S
O261 C275 1.253 . S
Mg262 O261 1.990 . S
Mg262 O265 2.180 . S
Mg262 O266 2.117 . S
Mg262 O280 2.030 . S
O263 Mg264 2.072 . S
O263 C275 1.260 . S
Mg264 O263 2.072 . S
Mg264 O265 2.099 . S
Mg264 O267 2.079 1_554 S
Mg264 O268 2.072 . S
Mg264 O270 2.099 . S
Mg264 O281 2.079 . S
O265 Mg262 2.180 . S
O265 Mg264 2.099 . S
O265 C276 1.279 . S
O266 Mg262 2.117 . S
O266 C276 1.250 . S
O267 Mg264 2.079 1_556 S
O267 C277 1.264 . S
O268 Mg264 2.072 . S
O268 C278 1.260 1_554 S
Mg269 O270 2.180 1_556 S
Mg269 O271 2.030 . S
Mg269 O272 1.990 . S
Mg269 O273 2.117 1_556 S
O270 Mg264 2.099 . S
O270 Mg269 2.180 1_554 S
O270 C279 1.279 . S
O271 Mg269 2.030 . S
O271 C277 1.248 . S
O272 Mg269 1.990 . S
O272 C278 1.253 . S
O273 Mg269 2.117 1_554 S
O273 C279 1.250 . S
C274 O280 1.248 . S
C274 O281 1.264 . S
C275 O261 1.253 . S
C275 O263 1.260 . S
C276 O265 1.279 . S
C276 O266 1.250 . S
C277 O267 1.264 . S
C277 O271 1.248 . S
C278 O268 1.260 1_556 S
C278 O272 1.253 . S
C279 O270 1.279 . S
C279 O273 1.250 . S
O280 Mg262 2.030 . S
O280 C274 1.248 . S
O281 Mg264 2.079 . S
O281 C274 1.264 . S
H282 C300 0.951 . S
H283 C302 0.951 . S
H284 C304 0.950 . S
H285 C305 0.950 . S
H286 C307 0.950 . S
H287 C310 0.950 . S
H288 C311 0.950 . S
H289 C313 0.950 . S
H290 C314 0.950 . S
H291 C315 0.951 . S
H292 C317 0.951 . S
H293 C319 0.950 . S
H294 C320 0.950 . S
H295 C322 0.950 . S
H296 C325 0.950 . S
H297 C326 0.950 1_655 S
H298 C328 0.950 . S
H299 C329 0.950 . S
C300 H282 0.951 . S
C300 C301 1.366 . S
C300 C302 1.388 . S
C301 C300 1.366 . S
C301 C305 1.385 . S
C302 H283 0.951 . S
C302 C300 1.388 . S
C302 C303 1.366 . S
C303 C302 1.366 . S
C303 C304 1.414 . S
C303 C306 1.499 . S
C304 H284 0.950 . S
C304 C303 1.414 . S
C304 C305 1.374 . S
C305 H285 0.950 . S
C305 C301 1.385 . S
C305 C304 1.374 . S
C306 C303 1.499 . S
C306 C307 1.373 . S
C306 C308 1.389 . S
C307 H286 0.950 . S
C307 C306 1.373 . S
C307 C323 1.377 . S
C308 C306 1.389 . S
C308 C309 1.524 . S
C308 C322 1.377 . S
C309 C308 1.524 . S
C309 C310 1.397 . S
C309 C314 1.363 . S
C310 H287 0.950 . S
C310 C309 1.397 . S
C310 C311 1.334 . S
C311 H288 0.950 . S
C311 C310 1.334 . S
C311 C312 1.287 . S
C312 C311 1.287 . S
C312 C313 1.524 . S
C312 H331 0.913 . S
C313 H289 0.950 . S
C313 C312 1.524 . S
C313 C314 1.415 . S
C314 H290 0.950 . S
C314 C309 1.363 . S
C314 C313 1.415 . S
C315 H291 0.951 . S
C315 C316 1.366 . S
C315 C317 1.388 . S
C316 C315 1.366 . S
C316 C320 1.385 . S
C317 H292 0.951 . S
C317 C315 1.388 . S
C317 C318 1.366 . S
C318 C317 1.366 . S
C318 C319 1.414 . S
C318 C321 1.499 . S
C319 H293 0.950 . S
C319 C318 1.414 . S
C319 C320 1.374 . S
C320 H294 0.950 . S
C320 C316 1.385 . S
C320 C319 1.374 . S
C321 C318 1.499 . S
C321 C322 1.373 . S
C321 C323 1.389 . S
C322 H295 0.950 . S
C322 C308 1.377 . S
C322 C321 1.373 . S
C323 C307 1.377 . S
C323 C321 1.389 . S
C323 C324 1.524 . S
C324 C323 1.524 . S
C324 C325 1.397 . S
C324 C329 1.363 . S
C325 H296 0.950 . S
C325 C324 1.397 . S
C325 C326 1.334 . S
C326 H297 0.950 1_455 S
C326 C325 1.334 . S
C326 C327 1.287 . S
C327 C326 1.287 . S
C327 C328 1.524 . S
C327 H330 1.010 . S
C328 H298 0.950 . S
C328 C327 1.524 . S
C328 C329 1.415 . S
C329 H299 0.950 . S
C329 C324 1.363 . S
C329 C328 1.415 . S
H330 C327 1.010 . S
H331 C312 0.913 . S
H332 C350 0.951 . S
H333 C352 0.951 . S
H334 C354 0.950 . S
H335 C355 0.950 . S
H336 C357 0.950 . S
H337 C360 0.950 . S
H338 C361 0.950 . S
H339 C363 0.950 . S
H340 C364 0.950 . S
H341 C365 0.951 . S
H342 C367 0.951 . S
H343 C369 0.950 . S
H344 C370 0.950 . S
H345 C372 0.950 . S
H346 C375 0.950 . S
H347 C376 0.950 . S
H348 C378 0.950 . S
H349 C379 0.950 . S
C350 H332 0.951 . S
C350 C351 1.366 . S
C350 C352 1.388 . S
C351 C350 1.366 . S
C351 C355 1.385 . S
C352 H333 0.951 . S
C352 C350 1.388 . S
C352 C353 1.366 . S
C353 C352 1.366 . S
C353 C354 1.414 . S
C353 C356 1.499 . S
C354 H334 0.950 . S
C354 C353 1.414 . S
C354 C355 1.374 . S
C355 H335 0.950 . S
C355 C351 1.385 . S
C355 C354 1.374 . S
C356 C353 1.499 . S
C356 C357 1.373 . S
C356 C358 1.389 . S
C357 H336 0.950 . S
C357 C356 1.373 . S
C357 C373 1.377 . S
C358 C356 1.389 . S
C358 C359 1.524 . S
C358 C372 1.377 . S
C359 C358 1.524 . S
C359 C360 1.397 . S
C359 C364 1.363 . S
C360 H337 0.950 . S
C360 C359 1.397 . S
C360 C361 1.334 1_554 S
C361 H338 0.950 . S
C361 C360 1.334 1_556 S
C361 C362 1.287 . S
C362 C361 1.287 . S
C362 C363 1.524 1_556 S
C362 H381 0.913 . S
C363 H339 0.950 . S
C363 C362 1.524 1_554 S
C363 C364 1.415 . S
C364 H340 0.950 . S
C364 C359 1.363 . S
C364 C363 1.415 . S
C365 H341 0.951 . S
C365 C366 1.366 . S
C365 C367 1.388 . S
C366 C365 1.366 . S
C366 C370 1.385 . S
C367 H342 0.951 . S
C367 C365 1.388 . S
C367 C368 1.366 . S
C368 C367 1.366 . S
C368 C369 1.414 . S
C368 C371 1.499 . S
C369 H343 0.950 . S
C369 C368 1.414 . S
C369 C370 1.374 . S
C370 H344 0.950 . S
C370 C366 1.385 . S
C370 C369 1.374 . S
C371 C368 1.499 . S
C371 C372 1.373 . S
C371 C373 1.389 . S
C372 H345 0.950 . S
C372 C358 1.377 . S
C372 C371 1.373 . S
C373 C357 1.377 . S
C373 C371 1.389 . S
C373 C374 1.524 . S
C374 C373 1.524 . S
C374 C375 1.397 . S
C374 C379 1.363 . S
C375 H346 0.950 . S
C375 C374 1.397 . S
C375 C376 1.334 . S
C376 H347 0.950 . S
C376 C375 1.334 . S
C376 C377 1.287 . S
C377 C376 1.287 . S
C377 C378 1.524 . S
C377 H380 0.999 . S
C378 H348 0.950 . S
C378 C377 1.524 . S
C378 C379 1.415 . S
C379 H349 0.950 . S
C379 C374 1.363 . S
C379 C378 1.415 . S
H380 C377 0.999 . S
H381 C362 0.913 . S
H382 C400 0.951 . S
H383 C402 0.951 . S
H384 C404 0.950 . S
H385 C405 0.950 . S
H386 C407 0.950 . S
H387 C410 0.950 . S
H388 C411 0.950 . S
H389 C413 0.950 . S
H390 C414 0.950 . S
H391 C415 0.951 . S
H392 C417 0.951 . S
H393 C419 0.950 . S
H394 C420 0.950 . S
H395 C422 0.950 . S
H396 C425 0.950 . S
H397 C426 0.950 . S
H398 C428 0.950 . S
H399 C429 0.950 . S
C400 H382 0.951 . S
C400 C401 1.366 . S
C400 C402 1.388 . S
C401 C400 1.366 . S
C401 C405 1.385 . S
C402 H383 0.951 . S
C402 C400 1.388 . S
C402 C403 1.366 . S
C403 C402 1.366 . S
C403 C404 1.414 . S
C403 C406 1.499 . S
C404 H384 0.950 . S
C404 C403 1.414 . S
C404 C405 1.374 . S
C405 H385 0.950 . S
C405 C401 1.385 . S
C405 C404 1.374 . S
C406 C403 1.499 . S
C406 C407 1.373 . S
C406 C408 1.389 . S
C407 H386 0.950 . S
C407 C406 1.373 . S
C407 C423 1.377 . S
C408 C406 1.389 . S
C408 C409 1.524 . S
C408 C422 1.377 . S
C409 C408 1.524 . S
C409 C410 1.397 . S
C409 C414 1.363 . S
C410 H387 0.950 . S
C410 C409 1.397 . S
C410 C411 1.334 . S
C411 H388 0.950 . S
C411 C410 1.334 . S
C411 C412 1.287 . S
C412 C411 1.287 . S
C412 C413 1.524 . S
C412 H431 0.913 . S
C413 H389 0.950 . S
C413 C412 1.524 . S
C413 C414 1.415 . S
C414 H390 0.950 . S
C414 C409 1.363 . S
C414 C413 1.415 . S
C415 H391 0.951 . S
C415 C416 1.366 . S
C415 C417 1.388 . S
C416 C415 1.366 . S
C416 C420 1.385 . S
C417 H392 0.951 . S
C417 C415 1.388 . S
C417 C418 1.366 . S
C418 C417 1.366 . S
C418 C419 1.414 . S
C418 C421 1.499 . S
C419 H393 0.950 . S
C419 C418 1.414 . S
C419 C420 1.374 . S
C420 H394 0.950 . S
C420 C416 1.385 . S
C420 C419 1.374 . S
C421 C418 1.499 . S
C421 C422 1.373 . S
C421 C423 1.389 . S
C422 H395 0.950 . S
C422 C408 1.377 . S
C422 C421 1.373 . S
C423 C407 1.377 . S
C423 C421 1.389 . S
C423 C424 1.524 . S
C424 C423 1.524 . S
C424 C425 1.397 . S
C424 C429 1.363 . S
C425 H396 0.950 . S
C425 C424 1.397 . S
C425 C426 1.334 . S
C426 H397 0.950 . S
C426 C425 1.334 . S
C426 C427 1.287 . S
C427 C426 1.287 . S
C427 C428 1.524 . S
C427 H430 0.999 . S
C428 H398 0.950 . S
C428 C427 1.524 . S
C428 C429 1.415 . S
C429 H399 0.950 . S
C429 C424 1.363 . S
C429 C428 1.415 . S
H430 C427 0.999 . S
H431 C412 0.913 . S
H432 C450 0.951 . S
H433 C452 0.951 . S
H434 C454 0.950 . S
H435 C455 0.950 . S
H436 C457 0.950 . S
H437 C460 0.950 . S
H438 C461 0.950 . S
H439 C463 0.950 . S
H440 C464 0.950 . S
H441 C465 0.951 . S
H442 C467 0.951 . S
H443 C469 0.950 . S
H444 C470 0.950 . S
H445 C472 0.950 . S
H446 C475 0.950 . S
H447 C476 0.950 . S
H448 C478 0.950 . S
H449 C479 0.950 . S
C450 H432 0.951 . S
C450 C451 1.366 1_554 S
C450 C452 1.388 . S
C451 C450 1.366 1_556 S
C451 C455 1.385 . S
C452 H433 0.951 . S
C452 C450 1.388 . S
C452 C453 1.366 . S
C453 C452 1.366 . S
C453 C454 1.414 1_554 S
C453 C456 1.499 . S
C454 H434 0.950 . S
C454 C453 1.414 1_556 S
C454 C455 1.374 . S
C455 H435 0.950 . S
C455 C451 1.385 . S
C455 C454 1.374 . S
C456 C453 1.499 . S
C456 C457 1.373 1_554 S
C456 C458 1.389 . S
C457 H436 0.950 . S
C457 C456 1.373 1_556 S
C457 C473 1.377 1_556 S
C458 C456 1.389 . S
C458 C459 1.524 . S
C458 C472 1.377 . S
C459 C458 1.524 . S
C459 C460 1.397 1_554 S
C459 C464 1.363 . S
C460 H437 0.950 . S
C460 C459 1.397 1_556 S
C460 C461 1.334 . S
C461 H438 0.950 . S
C461 C460 1.334 . S
C461 C462 1.287 1_556 S
C462 C461 1.287 1_554 S
C462 C463 1.524 . S
C462 H481 0.913 . S
C463 H439 0.950 . S
C463 C462 1.524 . S
C463 C464 1.415 . S
C464 H440 0.950 . S
C464 C459 1.363 . S
C464 C463 1.415 . S
C465 H441 0.951 . S
C465 C466 1.366 1_556 S
C465 C467 1.388 . S
C466 C465 1.366 1_554 S
C466 C470 1.385 . S
C467 H442 0.951 . S
C467 C465 1.388 . S
C467 C468 1.366 1_556 S
C468 C467 1.366 1_554 S
C468 C469 1.414 . S
C468 C471 1.499 . S
C469 H443 0.950 . S
C469 C468 1.414 . S
C469 C470 1.374 . S
C470 H444 0.950 . S
C470 C466 1.385 . S
C470 C469 1.374 . S
C471 C468 1.499 . S
C471 C472 1.373 . S
C471 C473 1.389 . S
C472 H445 0.950 . S
C472 C458 1.377 . S
C472 C471 1.373 . S
C473 C457 1.377 1_554 S
C473 C471 1.389 . S
C473 C474 1.523 1_554 S
C474 C473 1.523 1_556 S
C474 C475 1.392 1_556 S
C474 C479 1.368 . S
C475 H446 0.950 . S
C475 C474 1.392 1_554 S
C475 C476 1.334 . S
C476 H447 0.950 . S
C476 C475 1.334 . S
C476 C477 1.287 1_554 S
C477 C476 1.287 1_556 S
C477 C478 1.524 . S
C477 H480 0.999 . S
C478 H448 0.950 . S
C478 C477 1.524 . S
C478 C479 1.415 . S
C479 H449 0.950 . S
C479 C474 1.368 . S
C479 C478 1.415 . S
H480 C477 0.999 . S
H481 C462 0.913 . S
H482 C500 0.951 . S
H483 C502 0.951 . S
H484 C504 0.950 . S
H485 C505 0.950 . S
H486 C507 0.950 . S
H487 C510 0.950 . S
H488 C511 0.950 . S
H489 C513 0.950 . S
H490 C514 0.950 . S
H491 C515 0.951 . S
H492 C517 0.951 1_545 S
H493 C519 0.950 . S
H494 C520 0.950 . S
H495 C522 0.950 . S
H496 C525 0.950 1_565 S
H497 C526 0.950 . S
H498 C528 0.950 . S
H499 C529 0.950 . S
C500 H482 0.951 . S
C500 C501 1.366 . S
C500 C502 1.388 . S
C501 C500 1.366 . S
C501 C505 1.385 . S
C502 H483 0.951 . S
C502 C500 1.388 . S
C502 C503 1.366 . S
C503 C502 1.366 . S
C503 C504 1.414 . S
C503 C506 1.499 . S
C504 H484 0.950 . S
C504 C503 1.414 . S
C504 C505 1.374 . S
C505 H485 0.950 . S
C505 C501 1.385 . S
C505 C504 1.374 . S
C506 C503 1.499 . S
C506 C507 1.373 . S
C506 C508 1.389 . S
C507 H486 0.950 . S
C507 C506 1.373 . S
C507 C523 1.377 . S
C508 C506 1.389 . S
C508 C509 1.524 . S
C508 C522 1.377 . S
C509 C508 1.524 . S
C509 C510 1.397 . S
C509 C514 1.363 . S
C510 H487 0.950 . S
C510 C509 1.397 . S
C510 C511 1.334 . S
C511 H488 0.950 . S
C511 C510 1.334 . S
C511 C512 1.287 . S
C512 C511 1.287 . S
C512 C513 1.524 . S
C512 H531 0.913 . S
C513 H489 0.950 . S
C513 C512 1.524 . S
C513 C514 1.415 . S
C514 H490 0.950 . S
C514 C509 1.363 . S
C514 C513 1.415 . S
C515 H491 0.951 . S
C515 C516 1.366 1_545 S
C515 C517 1.388 1_545 S
C516 C515 1.366 1_565 S
C516 C520 1.385 . S
C517 H492 0.951 1_565 S
C517 C515 1.388 1_565 S
C517 C518 1.366 . S
C518 C517 1.366 . S
C518 C519 1.414 . S
C518 C521 1.499 . S
C519 H493 0.950 . S
C519 C518 1.414 . S
C519 C520 1.374 . S
C520 H494 0.950 . S
C520 C516 1.385 . S
C520 C519 1.374 . S
C521 C518 1.499 . S
C521 C522 1.373 . S
C521 C523 1.389 . S
C522 H495 0.950 . S
C522 C508 1.377 . S
C522 C521 1.373 . S
C523 C507 1.377 . S
C523 C521 1.389 . S
C523 C524 1.524 1_565 S
C524 C523 1.524 1_545 S
C524 C525 1.397 . S
C524 C529 1.363 . S
C525 H496 0.950 1_545 S
C525 C524 1.397 . S
C525 C526 1.334 . S
C526 H497 0.950 . S
C526 C525 1.334 . S
C526 C527 1.287 . S
C527 C526 1.287 . S
C527 C528 1.524 . S
C527 H530 0.999 . S
C528 H498 0.950 . S
C528 C527 1.524 . S
C528 C529 1.415 . S
C529 H499 0.950 . S
C529 C524 1.363 . S
C529 C528 1.415 . S
H530 C527 0.999 . S
H531 C512 0.913 . S
H532 C550 0.951 . S
H533 C552 0.951 . S
H534 C554 0.950 . S
H535 C555 0.950 . S
H536 C557 0.950 . S
H537 C560 0.950 . S
H538 C561 0.950 . S
H539 C563 0.950 . S
H540 C564 0.950 . S
H541 C565 0.951 . S
H542 C567 0.951 . S
H543 C569 0.950 . S
H544 C570 0.950 . S
H545 C572 0.950 . S
H546 C575 0.950 . S
H547 C576 0.950 . S
H548 C578 0.950 . S
H549 C579 0.950 . S
C550 H532 0.951 . S
C550 C551 1.366 . S
C550 C552 1.388 . S
C551 C550 1.366 . S
C551 C555 1.385 . S
C552 H533 0.951 . S
C552 C550 1.388 . S
C552 C553 1.366 . S
C553 C552 1.366 . S
C553 C554 1.414 . S
C553 C556 1.499 . S
C554 H534 0.950 . S
C554 C553 1.414 . S
C554 C555 1.374 . S
C555 H535 0.950 . S
C555 C551 1.385 . S
C555 C554 1.374 . S
C556 C553 1.499 . S
C556 C557 1.373 . S
C556 C558 1.389 . S
C557 H536 0.950 . S
C557 C556 1.373 . S
C557 C573 1.377 . S
C558 C556 1.389 . S
C558 C559 1.524 . S
C558 C572 1.377 . S
C559 C558 1.524 . S
C559 C560 1.397 . S
C559 C564 1.363 . S
C560 H537 0.950 . S
C560 C559 1.397 . S
C560 C561 1.334 . S
C561 H538 0.950 . S
C561 C560 1.334 . S
C561 C562 1.287 . S
C562 C561 1.287 . S
C562 C563 1.524 . S
C562 H581 0.913 . S
C563 H539 0.950 . S
C563 C562 1.524 . S
C563 C564 1.415 . S
C564 H540 0.950 . S
C564 C559 1.363 . S
C564 C563 1.415 . S
C565 H541 0.951 . S
C565 C566 1.366 . S
C565 C567 1.388 . S
C566 C565 1.366 . S
C566 C570 1.385 . S
C567 H542 0.951 . S
C567 C565 1.388 . S
C567 C568 1.366 . S
C568 C567 1.366 . S
C568 C569 1.414 . S
C568 C571 1.499 . S
C569 H543 0.950 . S
C569 C568 1.414 . S
C569 C570 1.374 . S
C570 H544 0.950 . S
C570 C566 1.385 . S
C570 C569 1.374 . S
C571 C568 1.499 . S
C571 C572 1.373 . S
C571 C573 1.389 . S
C572 H545 0.950 . S
C572 C558 1.377 . S
C572 C571 1.373 . S
C573 C557 1.377 . S
C573 C571 1.389 . S
C573 C574 1.524 . S
C574 C573 1.524 . S
C574 C575 1.397 . S
C574 C579 1.363 . S
C575 H546 0.950 . S
C575 C574 1.397 . S
C575 C576 1.334 . S
C576 H547 0.950 . S
C576 C575 1.334 . S
C576 C577 1.287 . S
C577 C576 1.287 . S
C577 C578 1.524 . S
C577 H580 0.999 . S
C578 H548 0.950 . S
C578 C577 1.524 . S
C578 C579 1.415 . S
C579 H549 0.950 . S
C579 C574 1.363 . S
C579 C578 1.415 . S
H580 C577 0.999 . S
H581 C562 0.913 . S
H582 C600 0.951 . S
H583 C602 0.951 . S
H584 C604 0.950 . S
H585 C605 0.950 . S
H586 C607 0.950 . S
H587 C610 0.950 . S
H588 C611 0.950 . S
H589 C613 0.950 . S
H590 C614 0.950 . S
H591 C615 0.951 . S
H592 C617 0.951 . S
H593 C619 0.950 . S
H594 C620 0.950 . S
H595 C622 0.950 . S
H596 C625 0.950 . S
H597 C626 0.950 . S
H598 C628 0.950 . S
H599 C629 0.950 . S
C600 H582 0.951 . S
C600 C601 1.366 . S
C600 C602 1.388 . S
C601 C600 1.366 . S
C601 C605 1.385 . S
C602 H583 0.951 . S
C602 C600 1.388 . S
C602 C603 1.366 . S
C603 C602 1.366 . S
C603 C604 1.414 . S
C603 C606 1.499 . S
C604 H584 0.950 . S
C604 C603 1.414 . S
C604 C605 1.374 . S
C605 H585 0.950 . S
C605 C601 1.385 . S
C605 C604 1.374 . S
C606 C603 1.499 . S
C606 C607 1.373 . S
C606 C608 1.389 . S
C607 H586 0.950 . S
C607 C606 1.373 . S
C607 C623 1.377 . S
C608 C606 1.389 . S
C608 C609 1.524 . S
C608 C622 1.377 . S
C609 C608 1.524 . S
C609 C610 1.397 . S
C609 C614 1.363 . S
C610 H587 0.950 . S
C610 C609 1.397 . S
C610 C611 1.334 . S
C611 H588 0.950 . S
C611 C610 1.334 . S
C611 C612 1.287 . S
C612 C611 1.287 . S
C612 C613 1.524 . S
C612 H631 0.913 . S
C613 H589 0.950 . S
C613 C612 1.524 . S
C613 C614 1.415 . S
C614 H590 0.950 . S
C614 C609 1.363 . S
C614 C613 1.415 . S
C615 H591 0.951 . S
C615 C616 1.366 . S
C615 C617 1.388 . S
C616 C615 1.366 . S
C616 C620 1.385 . S
C617 H592 0.951 . S
C617 C615 1.388 . S
C617 C618 1.366 . S
C618 C617 1.366 . S
C618 C619 1.414 . S
C618 C621 1.499 . S
C619 H593 0.950 . S
C619 C618 1.414 . S
C619 C620 1.374 . S
C620 H594 0.950 . S
C620 C616 1.385 . S
C620 C619 1.374 . S
C621 C618 1.499 . S
C621 C622 1.373 . S
C621 C623 1.389 . S
C622 H595 0.950 . S
C622 C608 1.377 . S
C622 C621 1.373 . S
C623 C607 1.377 . S
C623 C621 1.389 . S
C623 C624 1.524 . S
C624 C623 1.524 . S
C624 C625 1.397 . S
C624 C629 1.363 . S
C625 H596 0.950 . S
C625 C624 1.397 . S
C625 C626 1.334 . S
C626 H597 0.950 . S
C626 C625 1.334 . S
C626 C627 1.287 . S
C627 C626 1.287 . S
C627 C628 1.524 1_545 S
C627 H630 0.999 1_545 S
C628 H598 0.950 . S
C628 C627 1.524 1_565 S
C628 C629 1.415 1_565 S
C629 H599 0.950 . S
C629 C624 1.363 . S
C629 C628 1.415 1_545 S
H630 C627 0.999 1_565 S
H631 C612 0.913 . S
H632 C650 0.951 . S
H633 C652 0.951 . S
H634 C654 0.950 . S
H635 C655 0.950 . S
H636 C657 0.950 . S
H637 C660 0.950 . S
H638 C661 0.950 . S
H639 C663 0.950 . S
H640 C664 0.950 . S
H641 C665 0.951 . S
H642 C667 0.951 . S
H643 C669 0.950 . S
H644 C670 0.950 . S
H645 C672 0.950 . S
H646 C675 0.950 . S
H647 C676 0.950 . S
H648 C678 0.950 . S
H649 C679 0.950 . S
C650 H632 0.951 . S
C650 C651 1.366 . S
C650 C652 1.388 . S
C651 C650 1.366 . S
C651 C655 1.385 . S
C652 H633 0.951 . S
C652 C650 1.388 . S
C652 C653 1.366 . S
C653 C652 1.366 . S
C653 C654 1.414 . S
C653 C656 1.499 . S
C654 H634 0.950 . S
C654 C653 1.414 . S
C654 C655 1.374 . S
C655 H635 0.950 . S
C655 C651 1.385 . S
C655 C654 1.374 . S
C656 C653 1.499 . S
C656 C657 1.373 . S
C656 C658 1.389 . S
C657 H636 0.950 . S
C657 C656 1.373 . S
C657 C673 1.377 . S
C658 C656 1.389 . S
C658 C659 1.524 . S
C658 C672 1.377 . S
C659 C658 1.524 . S
C659 C660 1.397 . S
C659 C664 1.363 . S
C660 H637 0.950 . S
C660 C659 1.397 . S
C660 C661 1.334 . S
C661 H638 0.950 . S
C661 C660 1.334 . S
C661 C662 1.287 . S
C662 C661 1.287 . S
C662 C663 1.524 . S
C662 H681 0.913 . S
C663 H639 0.950 . S
C663 C662 1.524 . S
C663 C664 1.415 . S
C664 H640 0.950 . S
C664 C659 1.363 . S
C664 C663 1.415 . S
C665 H641 0.951 . S
C665 C666 1.366 . S
C665 C667 1.388 . S
C666 C665 1.366 . S
C666 C670 1.385 . S
C667 H642 0.951 . S
C667 C665 1.388 . S
C667 C668 1.366 . S
C668 C667 1.366 . S
C668 C669 1.414 . S
C668 C671 1.499 . S
C669 H643 0.950 . S
C669 C668 1.414 . S
C669 C670 1.374 . S
C670 H644 0.950 . S
C670 C666 1.385 . S
C670 C669 1.374 . S
C671 C668 1.499 . S
C671 C672 1.373 . S
C671 C673 1.389 . S
C672 H645 0.950 . S
C672 C658 1.377 . S
C672 C671 1.373 . S
C673 C657 1.377 . S
C673 C671 1.389 . S
C673 C674 1.524 . S
C674 C673 1.524 . S
C674 C675 1.397 . S
C674 C679 1.363 . S
C675 H646 0.950 . S
C675 C674 1.397 . S
C675 C676 1.334 . S
C676 H647 0.950 . S
C676 C675 1.334 . S
C676 C677 1.287 . S
C677 C676 1.287 . S
C677 C678 1.524 . S
C677 H680 0.999 . S
C678 H648 0.950 . S
C678 C677 1.524 . S
C678 C679 1.415 . S
C679 H649 0.950 . S
C679 C674 1.363 . S
C679 C678 1.415 . S
H680 C677 0.999 . S
H681 C662 0.913 . S
H682 C700 0.951 . S
H683 C702 0.951 . S
H684 C704 0.950 . S
H685 C705 0.950 . S
H686 C707 0.950 . S
H687 C710 0.950 . S
H688 C711 0.950 . S
H689 C713 0.950 . S
H690 C714 0.950 . S
H691 C715 0.951 . S
H692 C717 0.951 . S
H693 C719 0.950 . S
H694 C720 0.950 . S
H695 C722 0.950 . S
H696 C725 0.950 . S
H697 C726 0.950 . S
H698 C728 0.950 . S
H699 C729 0.950 . S
C700 H682 0.951 . S
C700 C701 1.366 . S
C700 C702 1.388 . S
C701 C700 1.366 . S
C701 C705 1.385 . S
C702 H683 0.951 . S
C702 C700 1.388 . S
C702 C703 1.366 . S
C703 C702 1.366 . S
C703 C704 1.414 . S
C703 C706 1.499 . S
C704 H684 0.950 . S
C704 C703 1.414 . S
C704 C705 1.374 . S
C705 H685 0.950 . S
C705 C701 1.385 . S
C705 C704 1.374 . S
C706 C703 1.499 . S
C706 C707 1.373 . S
C706 C708 1.389 . S
C707 H686 0.950 . S
C707 C706 1.373 . S
C707 C723 1.377 . S
C708 C706 1.389 . S
C708 C709 1.524 . S
C708 C722 1.377 . S
C709 C708 1.524 . S
C709 C710 1.397 . S
C709 C714 1.363 . S
C710 H687 0.950 . S
C710 C709 1.397 . S
C710 C711 1.334 . S
C711 H688 0.950 . S
C711 C710 1.334 . S
C711 C712 1.287 . S
C712 C711 1.287 . S
C712 C713 1.524 . S
C712 H731 0.913 . S
C713 H689 0.950 . S
C713 C712 1.524 . S
C713 C714 1.415 . S
C714 H690 0.950 . S
C714 C709 1.363 . S
C714 C713 1.415 . S
C715 H691 0.951 . S
C715 C716 1.366 . S
C715 C717 1.388 . S
C716 C715 1.366 . S
C716 C720 1.385 . S
C717 H692 0.951 . S
C717 C715 1.388 . S
C717 C718 1.366 . S
C718 C717 1.366 . S
C718 C719 1.414 . S
C718 C721 1.499 . S
C719 H693 0.950 . S
C719 C718 1.414 . S
C719 C720 1.374 . S
C720 H694 0.950 . S
C720 C716 1.385 . S
C720 C719 1.374 . S
C721 C718 1.499 . S
C721 C722 1.373 . S
C721 C723 1.389 . S
C722 H695 0.950 . S
C722 C708 1.377 . S
C722 C721 1.373 . S
C723 C707 1.377 . S
C723 C721 1.389 . S
C723 C724 1.524 . S
C724 C723 1.524 . S
C724 C725 1.397 . S
C724 C729 1.363 . S
C725 H696 0.950 . S
C725 C724 1.397 . S
C725 C726 1.334 . S
C726 H697 0.950 . S
C726 C725 1.334 . S
C726 C727 1.287 . S
C727 C726 1.287 . S
C727 C728 1.524 . S
C727 H730 0.999 . S
C728 H698 0.950 . S
C728 C727 1.524 . S
C728 C729 1.415 . S
C729 H699 0.950 . S
C729 C724 1.363 . S
C729 C728 1.415 . S
H730 C727 0.999 . S
H731 C712 0.913 . S
H732 C750 0.951 . S
H733 C752 0.951 . S
H734 C754 0.950 . S
H735 C755 0.950 . S
H736 C757 0.950 . S
H737 C760 0.950 . S
H738 C761 0.950 . S
H739 C763 0.950 . S
H740 C764 0.950 . S
H741 C765 0.951 . S
H742 C767 0.951 . S
H743 C769 0.950 . S
H744 C770 0.950 . S
H745 C772 0.950 . S
H746 C775 0.950 . S
H747 C776 0.950 . S
H748 C778 0.950 . S
H749 C779 0.950 . S
C750 H732 0.951 . S
C750 C751 1.366 . S
C750 C752 1.388 . S
C751 C750 1.366 . S
C751 C755 1.385 . S
C752 H733 0.951 . S
C752 C750 1.388 . S
C752 C753 1.366 . S
C753 C752 1.366 . S
C753 C754 1.414 . S
C753 C756 1.499 . S
C754 H734 0.950 . S
C754 C753 1.414 . S
C754 C755 1.374 . S
C755 H735 0.950 . S
C755 C751 1.385 . S
C755 C754 1.374 . S
C756 C753 1.499 . S
C756 C757 1.373 . S
C756 C758 1.389 . S
C757 H736 0.950 . S
C757 C756 1.373 . S
C757 C773 1.377 . S
C758 C756 1.389 . S
C758 C759 1.524 . S
C758 C772 1.377 . S
C759 C758 1.524 . S
C759 C760 1.397 . S
C759 C764 1.363 . S
C760 H737 0.950 . S
C760 C759 1.397 . S
C760 C761 1.334 . S
C761 H738 0.950 . S
C761 C760 1.334 . S
C761 C762 1.287 . S
C762 C761 1.287 . S
C762 C763 1.524 . S
C762 H781 0.913 . S
C763 H739 0.950 . S
C763 C762 1.524 . S
C763 C764 1.415 . S
C764 H740 0.950 . S
C764 C759 1.363 . S
C764 C763 1.415 . S
C765 H741 0.951 . S
C765 C766 1.366 . S
C765 C767 1.388 . S
C766 C765 1.366 . S
C766 C770 1.385 . S
C767 H742 0.951 . S
C767 C765 1.388 . S
C767 C768 1.366 . S
C768 C767 1.366 . S
C768 C769 1.414 . S
C768 C771 1.499 . S
C769 H743 0.950 . S
C769 C768 1.414 . S
C769 C770 1.374 . S
C770 H744 0.950 . S
C770 C766 1.385 . S
C770 C769 1.374 . S
C771 C768 1.499 . S
C771 C772 1.373 . S
C771 C773 1.389 . S
C772 H745 0.950 . S
C772 C758 1.377 . S
C772 C771 1.373 . S
C773 C757 1.377 . S
C773 C771 1.389 . S
C773 C774 1.524 . S
C774 C773 1.524 . S
C774 C775 1.397 . S
C774 C779 1.363 . S
C775 H746 0.950 . S
C775 C774 1.397 . S
C775 C776 1.334 1_545 S
C776 H747 0.950 . S
C776 C775 1.334 1_565 S
C776 C777 1.287 . S
C777 C776 1.287 . S
C777 C778 1.524 . S
C777 H780 0.999 . S
C778 H748 0.950 . S
C778 C777 1.524 . S
C778 C779 1.415 1_565 S
C779 H749 0.950 . S
C779 C774 1.363 . S
C779 C778 1.415 1_545 S
H780 C777 0.999 . S
H781 C762 0.913 . S
H782 C800 0.951 . S
H783 C802 0.951 . S
H784 C804 0.950 . S
H785 C805 0.950 . S
H786 C807 0.950 . S
H787 C810 0.950 . S
H788 C811 0.950 . S
H789 C813 0.950 . S
H790 C814 0.950 . S
H791 C815 0.951 . S
H792 C817 0.951 . S
H793 C819 0.950 . S
H794 C820 0.950 . S
H795 C822 0.950 . S
H796 C825 0.950 . S
H797 C826 0.950 . S
H798 C828 0.950 . S
H799 C829 0.950 . S
C800 H782 0.951 . S
C800 C801 1.366 . S
C800 C802 1.388 . S
C801 C800 1.366 . S
C801 C805 1.385 . S
C802 H783 0.951 . S
C802 C800 1.388 . S
C802 C803 1.366 . S
C803 C802 1.366 . S
C803 C804 1.414 . S
C803 C806 1.499 . S
C804 H784 0.950 . S
C804 C803 1.414 . S
C804 C805 1.374 . S
C805 H785 0.950 . S
C805 C801 1.385 . S
C805 C804 1.374 . S
C806 C803 1.499 . S
C806 C807 1.373 . S
C806 C808 1.389 . S
C807 H786 0.950 . S
C807 C806 1.373 . S
C807 C823 1.377 . S
C808 C806 1.389 . S
C808 C809 1.524 . S
C808 C822 1.377 . S
C809 C808 1.524 . S
C809 C810 1.397 . S
C809 C814 1.363 . S
C810 H787 0.950 . S
C810 C809 1.397 . S
C810 C811 1.334 . S
C811 H788 0.950 . S
C811 C810 1.334 . S
C811 C812 1.287 . S
C812 C811 1.287 . S
C812 C813 1.524 . S
C812 H831 0.913 . S
C813 H789 0.950 . S
C813 C812 1.524 . S
C813 C814 1.415 . S
C814 H790 0.950 . S
C814 C809 1.363 . S
C814 C813 1.415 . S
C815 H791 0.951 . S
C815 C816 1.366 . S
C815 C817 1.388 . S
C816 C815 1.366 . S
C816 C820 1.385 . S
C817 H792 0.951 . S
C817 C815 1.388 . S
C817 C818 1.366 . S
C818 C817 1.366 . S
C818 C819 1.414 . S
C818 C821 1.499 . S
C819 H793 0.950 . S
C819 C818 1.414 . S
C819 C820 1.374 . S
C820 H794 0.950 . S
C820 C816 1.385 . S
C820 C819 1.374 . S
C821 C818 1.499 . S
C821 C822 1.373 . S
C821 C823 1.389 . S
C822 H795 0.950 . S
C822 C808 1.377 . S
C822 C821 1.373 . S
C823 C807 1.377 . S
C823 C821 1.389 . S
C823 C824 1.524 . S
C824 C823 1.524 . S
C824 C825 1.397 . S
C824 C829 1.363 . S
C825 H796 0.950 . S
C825 C824 1.397 . S
C825 C826 1.334 . S
C826 H797 0.950 . S
C826 C825 1.334 . S
C826 C827 1.287 . S
C827 C826 1.287 . S
C827 C828 1.524 . S
C827 H830 0.999 . S
C828 H798 0.950 . S
C828 C827 1.524 . S
C828 C829 1.415 . S
C829 H799 0.950 . S
C829 C824 1.363 . S
C829 C828 1.415 . S
H830 C827 0.999 . S
H831 C812 0.913 . S
H832 C850 0.951 . S
H833 C852 0.951 . S
H834 C854 0.950 . S
H835 C855 0.950 . S
H836 C857 0.950 . S
H837 C860 0.950 . S
H838 C861 0.950 . S
H839 C863 0.950 . S
H840 C864 0.950 1_565 S
H841 C865 0.951 . S
H842 C867 0.951 . S
H843 C869 0.950 . S
H844 C870 0.950 . S
H845 C872 0.950 . S
H846 C875 0.950 . S
H847 C876 0.950 . S
H848 C878 0.950 . S
H849 C879 0.950 . S
C850 H832 0.951 . S
C850 C851 1.366 . S
C850 C852 1.388 . S
C851 C850 1.366 . S
C851 C855 1.385 . S
C852 H833 0.951 . S
C852 C850 1.388 . S
C852 C853 1.366 . S
C853 C852 1.366 . S
C853 C854 1.414 . S
C853 C856 1.499 . S
C854 H834 0.950 . S
C854 C853 1.414 . S
C854 C855 1.374 . S
C855 H835 0.950 . S
C855 C851 1.385 . S
C855 C854 1.374 . S
C856 C853 1.499 . S
C856 C857 1.373 . S
C856 C858 1.389 . S
C857 H836 0.950 . S
C857 C856 1.373 . S
C857 C873 1.377 . S
C858 C856 1.389 . S
C858 C859 1.524 . S
C858 C872 1.377 . S
C859 C858 1.524 . S
C859 C860 1.397 1_565 S
C859 C864 1.363 1_565 S
C860 H837 0.950 . S
C860 C859 1.397 1_545 S
C860 C861 1.334 . S
C861 H838 0.950 . S
C861 C860 1.334 . S
C861 C862 1.287 . S
C862 C861 1.287 . S
C862 C863 1.524 . S
C862 H881 0.913 . S
C863 H839 0.950 . S
C863 C862 1.524 . S
C863 C864 1.415 . S
C864 H840 0.950 1_545 S
C864 C859 1.363 1_545 S
C864 C863 1.415 . S
C865 H841 0.951 . S
C865 C866 1.366 . S
C865 C867 1.388 . S
C866 C865 1.366 . S
C866 C870 1.385 . S
C867 H842 0.951 . S
C867 C865 1.388 . S
C867 C868 1.366 . S
C868 C867 1.366 . S
C868 C869 1.414 . S
C868 C871 1.499 . S
C869 H843 0.950 . S
C869 C868 1.414 . S
C869 C870 1.374 . S
C870 H844 0.950 . S
C870 C866 1.385 . S
C870 C869 1.374 . S
C871 C868 1.499 . S
C871 C872 1.373 . S
C871 C873 1.389 . S
C872 H845 0.950 . S
C872 C858 1.377 . S
C872 C871 1.373 . S
C873 C857 1.377 . S
C873 C871 1.389 . S
C873 C874 1.524 . S
C874 C873 1.524 . S
C874 C875 1.397 . S
C874 C879 1.363 . S
C875 H846 0.950 . S
C875 C874 1.397 . S
C875 C876 1.334 . S
C876 H847 0.950 . S
C876 C875 1.334 . S
C876 C877 1.287 . S
C877 C876 1.287 . S
C877 C878 1.524 . S
C877 H880 0.999 . S
C878 H848 0.950 . S
C878 C877 1.524 . S
C878 C879 1.415 . S
C879 H849 0.950 . S
C879 C874 1.363 . S
C879 C878 1.415 . S
H880 C877 0.999 . S
H881 C862 0.913 . S
C316 C255 1.319 . S
C301 C211 1.511 . S
C351 C31 1.435 . S
C366 C279 1.318 . S
C401 C91 1.641 . S
C416 C258 1.467 . S
C451 C151 1.653 . S
C466 C276 1.467 . S
C516 C256 1.595 . S
C501 C20 1.578 . S
C566 C278 1.565 . S
C551 C61 1.539 . S
C601 C121 1.570 . S
C616 C257 1.515 . S
C651 C200 1.595 . S
C666 C277 1.532 . S
C716 C275 1.515 . S
C701 C80 1.541 . S
C766 C254 1.564 . S
C751 C140 1.617 . S
C816 C274 1.595 . S
C801 C181 1.586 . S
C851 C1 1.538 . S
C866 C253 1.533 1_565 S
