# Generated by pormake.
# Topology ssa, (4,4)-cn, num edge types: 1
# Building blocks:
#     Node 0, Type 0, BuildingBlock: KOZSID_clean_sbu_0, # of connection points: 4
#     Node 1, Type 0, BuildingBlock: KOZSID_clean_sbu_0, # of connection points: 4
#     Node 2, Type 0, BuildingBlock: KOZSID_clean_sbu_0, # of connection points: 4
#     Node 3, Type 0, BuildingBlock: KOZSID_clean_sbu_0, # of connection points: 4
#     Node 4, Type 0, BuildingBlock: KOZSID_clean_sbu_0, # of connection points: 4
#     Node 5, Type 0, BuildingBlock: KOZSID_clean_sbu_0, # of connection points: 4
#     Node 6, Type 1, BuildingBlock: KUFVIS_clean_linker_0, # of connection points: 4
#     Node 7, Type 1, BuildingBlock: KUFVIS_clean_linker_0, # of connection points: 4
#     Node 8, Type 1, BuildingBlock: KUFVIS_clean_linker_0, # of connection points: 4
#     Node 9, Type 1, BuildingBlock: KUFVIS_clean_linker_0, # of connection points: 4
#     Node 10, Type 1, BuildingBlock: KUFVIS_clean_linker_0, # of connection points: 4
#     Node 11, Type 1, BuildingBlock: KUFVIS_clean_linker_0, # of connection points: 4
#     Edge 12, Type (0, 1), BuildingBlock: OJICUG_clean_linker_0, # of connection points: 2
#     Edge 13, Type (0, 1), BuildingBlock: OJICUG_clean_linker_0, # of connection points: 2
#     Edge 14, Type (0, 1), BuildingBlock: OJICUG_clean_linker_0, # of connection points: 2
#     Edge 15, Type (0, 1), BuildingBlock: OJICUG_clean_linker_0, # of connection points: 2
#     Edge 16, Type (0, 1), BuildingBlock: OJICUG_clean_linker_0, # of connection points: 2
#     Edge 17, Type (0, 1), BuildingBlock: OJICUG_clean_linker_0, # of connection points: 2
#     Edge 18, Type (0, 1), BuildingBlock: OJICUG_clean_linker_0, # of connection points: 2
#     Edge 19, Type (0, 1), BuildingBlock: OJICUG_clean_linker_0, # of connection points: 2
#     Edge 20, Type (0, 1), BuildingBlock: OJICUG_clean_linker_0, # of connection points: 2
#     Edge 21, Type (0, 1), BuildingBlock: OJICUG_clean_linker_0, # of connection points: 2
#     Edge 22, Type (0, 1), BuildingBlock: OJICUG_clean_linker_0, # of connection points: 2
#     Edge 23, Type (0, 1), BuildingBlock: OJICUG_clean_linker_0, # of connection points: 2
#     Edge 24, Type (0, 1), BuildingBlock: OJICUG_clean_linker_0, # of connection points: 2
#     Edge 25, Type (0, 1), BuildingBlock: OJICUG_clean_linker_0, # of connection points: 2
#     Edge 26, Type (0, 1), BuildingBlock: OJICUG_clean_linker_0, # of connection points: 2
#     Edge 27, Type (0, 1), BuildingBlock: OJICUG_clean_linker_0, # of connection points: 2
#     Edge 28, Type (0, 1), BuildingBlock: OJICUG_clean_linker_0, # of connection points: 2
#     Edge 29, Type (0, 1), BuildingBlock: OJICUG_clean_linker_0, # of connection points: 2
#     Edge 30, Type (0, 1), BuildingBlock: OJICUG_clean_linker_0, # of connection points: 2
#     Edge 31, Type (0, 1), BuildingBlock: OJICUG_clean_linker_0, # of connection points: 2
#     Edge 32, Type (0, 1), BuildingBlock: OJICUG_clean_linker_0, # of connection points: 2
#     Edge 33, Type (0, 1), BuildingBlock: OJICUG_clean_linker_0, # of connection points: 2
#     Edge 34, Type (0, 1), BuildingBlock: OJICUG_clean_linker_0, # of connection points: 2
#     Edge 35, Type (0, 1), BuildingBlock: OJICUG_clean_linker_0, # of connection points: 2
# Relax obj value: 0.007
# Max RMSD: 0.055
# Mean RMSD: 0.031
data_MOF--net-ssa--node1-KOZSID_clean_sbu_0--node2-KUFVIS_clean_linker_0--edge1-OJICUG_clean_linker_0
_symmetry_space_group_name_H-M    P1
_symmetry_Int_Tables_number       1
_symmetry_cell_setting            triclinic
loop_
_symmetry_equiv_pos_as_xyz
'x, y, z'
_cell_length_a     44.100791
_cell_length_b     45.51858
_cell_length_c     24.914032
_cell_angle_alpha  85.966033
_cell_angle_beta   90.065005
_cell_angle_gamma 123.024
loop_
_atom_site_label
_atom_site_type_symbol
_atom_site_fract_x
_atom_site_fract_y
_atom_site_fract_z
_atom_type_partial_charge
C0 C 0.94713 0.51266 0.02619 0.0
C1 C 0.91984 0.5021 0.06508 0.0
C2 C 0.92543 0.48461 0.10658 0.0
C3 C 0.95572 0.48556 0.09075 0.0
N4 N 0.9704 0.5033 0.0422 0.0
Co5 Co 0.01312 0.50882 0.00262 0.0
N6 N 0.02005 0.48113 0.06216 0.0
C7 C 1.00022 0.46704 0.10913 0.0
C8 C 0.01287 0.45205 0.14427 0.0
C9 C 0.04301 0.45738 0.11878 0.0
C10 C 0.04695 0.47518 0.06898 0.0
N11 N 0.05503 0.51328 0.96222 0.0
C12 C 0.07795 0.50333 0.97763 0.0
C13 C 0.10368 0.51181 0.93716 0.0
C14 C 0.09742 0.5285 0.89517 0.0
C15 C 0.06819 0.52906 0.91218 0.0
N16 N 1.00703 0.53758 0.94394 0.0
C17 C 0.02834 0.55363 0.89861 0.0
C18 C 0.017 0.57051 0.86485 0.0
C19 C 0.9864 0.56461 0.88972 0.0
C20 C 0.98076 0.54442 0.93766 0.0
N21 N 0.04703 0.55271 0.03757 0.0
C22 C 0.09533 0.61453 0.08793 0.0
C23 C 0.10167 0.61129 0.03447 0.0
C24 C 0.07721 0.58055 0.01012 0.0
C25 C 0.06448 0.58628 0.11573 0.0
C26 C 0.04107 0.55589 0.09019 0.0
N27 N 0.97896 0.46509 0.96746 0.0
C28 C 0.95084 0.43762 0.88637 0.0
C29 C 0.9235 0.40753 0.91632 0.0
C30 C 0.92551 0.40564 0.97221 0.0
C31 C 0.9533 0.43464 0.99689 0.0
C32 C 0.97834 0.46559 0.91243 0.0
H33 H 0.95288 0.43218 0.0398 0.0
H34 H 0.9982 0.48774 0.88712 0.0
H35 H 0.08344 0.57993 0.9691 0.0
H36 H 0.01851 0.5352 0.11407 0.0
C37 C 0.97072 0.46958 0.11999 0.0
C38 C 0.94869 0.53007 0.9738 0.0
C39 C 0.07776 0.48766 0.03096 0.0
C40 C 0.05556 0.5481 0.88534 0.0
H41 H 0.89775 0.50603 0.06303 0.0
H42 H 0.90894 0.47207 0.14341 0.0
H43 H 1.0021 0.43968 0.18438 0.0
H44 H 0.0605 0.44977 0.13592 0.0
H45 H 0.12543 0.50739 0.93865 0.0
H46 H 0.11333 0.54026 0.85771 0.0
H47 H 0.0285 0.58392 0.82547 0.0
H48 H 0.96955 0.57317 0.87309 0.0
H49 H 0.12521 0.63252 0.01132 0.0
H50 H 0.05877 0.58725 0.15762 0.0
H51 H 0.95067 0.43979 0.84278 0.0
H52 H 0.90499 0.38254 0.99681 0.0
C53 C 0.57103 0.04118 0.58106 0.0
C54 C 0.57676 0.03678 0.63505 0.0
C55 C 0.54583 0.00712 0.65644 0.0
C56 C 0.52295 0.99524 0.61466 0.0
N57 N 0.5376 0.01503 0.56747 0.0
Co58 Co 0.51211 0.00947 0.4984 0.0
N59 N 0.46539 0.96787 0.53129 0.0
C60 C 0.45985 0.95242 0.58184 0.0
C61 C 0.42572 0.92305 0.59218 0.0
C62 C 0.40856 0.91902 0.54506 0.0
C63 C 0.43336 0.94627 0.50858 0.0
N64 N 0.48629 1.00512 0.43008 0.0
C65 C 0.45185 0.98087 0.41744 0.0
C66 C 0.44543 0.98733 0.36464 0.0
C67 C 0.47679 0.01649 0.34329 0.0
C68 C 0.50061 0.02621 0.38386 0.0
N69 N 0.55923 0.05006 0.46489 0.0
C70 C 0.56591 0.06308 0.41276 0.0
C71 C 0.60057 0.09154 0.40181 0.0
C72 C 0.61686 0.0974 0.45002 0.0
C73 C 0.59102 0.07219 0.4877 0.0
N74 N 0.52459 0.97603 0.47527 0.0
C75 C 0.53131 0.92214 0.44017 0.0
C76 C 0.53284 0.94755 0.40347 0.0
C77 C 0.53009 0.97435 0.42172 0.0
C78 C 0.52844 0.92515 0.49495 0.0
C79 C 0.52497 0.95205 0.51155 0.0
N80 N 0.49935 0.04255 0.52143 0.0
C81 C 0.50295 0.09769 0.50801 0.0
C82 C 0.4851 0.09146 0.55784 0.0
C83 C 0.47388 0.05998 0.58852 0.0
C84 C 0.48129 0.03621 0.56986 0.0
C85 C 0.5094 0.07291 0.49044 0.0
H86 H 0.47273 0.01317 0.59584 0.0
H87 H 0.523 0.07911 0.45194 0.0
H88 H 0.53172 0.99293 0.3915 0.0
H89 H 0.52182 0.95236 0.55384 0.0
C90 C 0.48717 0.96637 0.6188 0.0
C91 C 0.5973 0.07161 0.54509 0.0
C92 C 0.42535 0.95001 0.4526 0.0
C93 C 0.53766 0.05179 0.37756 0.0
H94 H 0.60043 0.0537 0.65721 0.0
H95 H 0.54029 0.99615 0.69793 0.0
H96 H 0.41474 0.90636 0.62938 0.0
H97 H 0.38103 0.89817 0.53806 0.0
H98 H 0.42111 0.97191 0.34286 0.0
H99 H 0.4821 0.02818 0.30224 0.0
H100 H 0.612 0.10736 0.36397 0.0
H101 H 0.6442 0.1186 0.45715 0.0
H102 H 0.53593 0.94659 0.36059 0.0
H103 H 0.52766 0.90619 0.52472 0.0
H104 H 0.51197 0.12161 0.48267 0.0
H105 H 0.46045 0.05415 0.62784 0.0
C106 C 0.58407 0.54037 0.93831 0.0
C107 C 0.60128 0.55845 0.88921 0.0
C108 C 0.57779 0.56417 0.86223 0.0
C109 C 0.54765 0.54925 0.89608 0.0
N110 N 0.55073 0.53502 0.94366 0.0
Co111 Co 0.51194 0.50747 0.00208 0.0
N112 N 0.47597 0.51257 0.95986 0.0
C113 C 0.48173 0.52978 0.91066 0.0
C114 C 0.45297 0.53129 0.8938 0.0
C115 C 0.4276 0.51485 0.93532 0.0
C116 C 0.44248 0.50425 0.9751 0.0
N117 N 0.47291 0.47906 0.05981 0.0
C118 C 0.43925 0.47296 0.0647 0.0
C119 C 0.42131 0.45308 0.1124 0.0
C120 C 0.44468 0.44694 0.13895 0.0
C121 C 0.47546 0.46333 0.10617 0.0
N122 N 0.54825 0.50327 0.04491 0.0
C123 C 0.54305 0.48769 0.09531 0.0
C124 C 0.57235 0.48743 0.11313 0.0
C125 C 0.59754 0.50317 0.07125 0.0
C126 C 0.58202 0.51203 0.03016 0.0
N127 N 0.52582 0.55123 0.03601 0.0
C128 C 0.52905 0.60664 0.08524 0.0
C129 C 0.52511 0.57787 0.11607 0.0
C130 C 0.5242 0.55102 0.09094 0.0
C131 C 0.53447 0.60879 0.02957 0.0
C132 C 0.53277 0.58088 0.00585 0.0
N133 N 0.4975 0.46351 0.96837 0.0
C134 C 0.48805 0.40566 0.97354 0.0
C135 C 0.48051 0.40262 0.91912 0.0
C136 C 0.48112 0.43032 0.88993 0.0
C137 C 0.48978 0.46031 0.91502 0.0
C138 C 0.49598 0.43589 0.99732 0.0
H139 H 0.49061 0.48076 0.89017 0.0
H140 H 0.50116 0.43639 0.03906 0.0
H141 H 0.52082 0.52973 0.1168 0.0
H142 H 0.53591 0.58334 0.96303 0.0
C143 C 0.51528 0.54613 0.88292 0.0
C144 C 0.59945 0.52669 0.97676 0.0
C145 C 0.42457 0.48812 0.02776 0.0
C146 C 0.50866 0.46885 0.12121 0.0
H147 H 0.62758 0.56572 0.87363 0.0
H148 H 0.58168 0.57652 0.82188 0.0
H149 H 0.45119 0.54398 0.85662 0.0
H150 H 0.40152 0.51188 0.93694 0.0
H151 H 0.3947 0.44513 0.12762 0.0
H152 H 0.44047 0.43385 0.1788 0.0
H153 H 0.5744 0.47542 0.15086 0.0
H154 H 0.62381 0.50654 0.07016 0.0
H155 H 0.52209 0.57579 0.1596 0.0
H156 H 0.53844 0.6311 0.00434 0.0
H157 H 0.48772 0.38475 0.99774 0.0
H158 H 0.47597 0.42936 0.84735 0.0
C159 C 0.94739 0.43881 0.47786 0.0
C160 C 0.92149 0.42213 0.44009 0.0
C161 C 0.92971 0.44686 0.39847 0.0
C162 C 0.96006 0.47709 0.41322 0.0
N163 N 0.9723 0.47293 0.46111 0.0
Co164 Co 0.01335 0.51058 0.5005 0.0
N165 N 0.02164 0.54825 0.44405 0.0
C166 C 1.00243 0.54401 0.39959 0.0
C167 C 0.01597 0.57428 0.36652 0.0
C168 C 0.04614 0.59916 0.39055 0.0
C169 C 0.04926 0.58256 0.43715 0.0
N170 N 0.0545 0.54825 0.5398 0.0
C171 C 0.07938 0.58239 0.52306 0.0
C172 C 0.10544 0.59901 0.56066 0.0
C173 C 0.09733 0.57424 0.60216 0.0
C174 C 0.06688 0.54404 0.58752 0.0
N175 N 1.00498 0.47291 0.55702 0.0
C176 C 0.02412 0.47715 0.60156 0.0
C177 C 1.01042 0.44693 0.6348 0.0
C178 C 0.98019 0.42209 0.61081 0.0
C179 C 0.97721 0.43865 0.56404 0.0
N180 N 0.04876 0.50501 0.46053 0.0
C181 C 0.10519 0.50781 0.40242 0.0
C182 C 0.10319 0.50402 0.45853 0.0
C183 C 0.07501 0.50285 0.48663 0.0
C184 C 0.0775 0.50819 0.37587 0.0
C185 C 0.04951 0.50624 0.40543 0.0
N186 N 0.97793 0.5161 0.54051 0.0
C187 C 0.94931 0.51276 0.62538 0.0
C188 C 0.92103 0.51216 0.59911 0.0
C189 C 0.9227 0.5157 0.54298 0.0
C190 C 0.95115 0.51746 0.51463 0.0
C191 C 0.97753 0.5153 0.59557 0.0
H192 H 0.95032 0.51897 0.47188 0.0
H193 H 0.99825 0.51569 0.61804 0.0
H194 H 0.07561 0.50107 0.52937 0.0
H195 H 0.02923 0.50656 0.38274 0.0
C196 C 0.9746 0.51053 0.38683 0.0
C197 C 0.94571 0.4219 0.53063 0.0
C198 C 0.08074 0.59944 0.47056 0.0
C199 C 0.05216 0.51061 0.61408 0.0
H200 H 0.89827 0.39526 0.44346 0.0
H201 H 0.91419 0.44369 0.36317 0.0
H202 H 1.00625 0.57743 0.328 0.0
H203 H 0.06464 0.62605 0.37427 0.0
H204 H 0.12863 0.62589 0.55731 0.0
H205 H 0.11291 0.57739 0.63738 0.0
H206 H 0.02009 0.4438 0.67338 0.0
H207 H 0.9616 0.39527 0.62727 0.0
H208 H 0.1239 0.50315 0.48063 0.0
H209 H 0.07748 0.5101 0.33226 0.0
H210 H 0.94957 0.51109 0.66898 0.0
H211 H 0.90155 0.51587 0.5211 0.0
C212 C 0.45784 0.97931 0.09649 0.0
C213 C 0.45461 0.9813 0.15149 0.0
C214 C 0.48881 1.0035 0.16843 0.0
C215 C 0.51108 0.0139 0.12324 0.0
N216 N 0.49302 1.00015 0.07853 0.0
Co217 Co 0.51582 0.00678 0.00613 0.0
N218 N 0.56305 0.04738 0.02673 0.0
C219 C 0.5737 0.05549 0.07709 0.0
C220 C 0.60722 0.0861 0.07828 0.0
C221 C 0.61824 0.09796 0.0253 0.0
C222 C 0.59076 0.0737 0.99479 0.0
N223 N 0.53886 0.01361 0.9342 0.0
C224 C 0.56861 0.0427 0.91019 0.0
C225 C 0.57535 0.03688 0.85891 0.0
C226 C 0.54849 1.0029 0.85063 0.0
C227 C 0.52704 0.98992 0.89725 0.0
N228 N 0.46877 0.96595 0.98501 0.0
C229 C 0.46397 0.94785 0.94174 0.0
C230 C 0.42879 0.92048 0.93752 0.0
C231 C 0.41039 0.92081 0.98145 0.0
C232 C 0.43552 0.94831 0.01042 0.0
N233 N 0.50144 0.03909 0.98099 0.0
C234 C 0.48948 0.09014 0.93694 0.0
C235 C 0.47914 0.06018 0.9102 0.0
C236 C 0.48557 0.0352 0.93262 0.0
C237 C 0.50484 0.09349 0.98715 0.0
C238 C 0.50998 0.06733 0.00892 0.0
N239 N 0.53053 0.97458 0.03094 0.0
C240 C 0.5159 0.92024 0.07857 0.0
C241 C 0.55125 0.92886 0.06951 0.0
C242 C 0.57602 0.96075 0.03994 0.0
C243 C 0.565 0.98304 0.02048 0.0
C244 C 0.50623 0.94339 0.05943 0.0
H245 H 0.58451 0.00737 0.99762 0.0
H246 H 0.47911 0.93607 0.06874 0.0
H247 H 0.47883 0.01338 0.90972 0.0
H248 H 0.52197 0.07056 0.04755 0.0
C249 C 0.54854 0.03848 0.12057 0.0
C250 C 0.42779 0.95342 0.06518 0.0
C251 C 0.59154 0.07552 0.93584 0.0
C252 C 0.49224 0.95939 0.90335 0.0
H253 H 0.43034 0.96712 0.17741 0.0
H254 H 0.49648 0.01104 0.20893 0.0
H255 H 0.62101 0.09941 0.11334 0.0
H256 H 0.64325 0.12196 0.01101 0.0
H257 H 0.59711 0.05535 0.83037 0.0
H258 H 0.54402 0.98997 0.8139 0.0
H259 H 0.41776 0.90256 0.90609 0.0
H260 H 0.38196 0.90212 0.99203 0.0
H261 H 0.46751 0.05677 0.87102 0.0
H262 H 0.51301 0.11621 0.00916 0.0
H263 H 0.49605 0.8963 0.1023 0.0
H264 H 0.6037 0.96849 0.03225 0.0
C265 C 0.52259 0.57874 0.51729 0.0
C266 C 0.51373 0.59488 0.55373 0.0
C267 C 0.49541 0.57063 0.59632 0.0
C268 C 0.49425 0.54124 0.58356 0.0
N269 N 0.51123 0.54537 0.53575 0.0
Co270 Co 0.51492 0.50885 0.50088 0.0
N271 N 0.48593 0.47247 0.56179 0.0
C272 C 0.47052 0.47632 0.60537 0.0
C273 C 0.45396 0.44734 0.64177 0.0
C274 C 0.45965 0.42378 0.62069 0.0
C275 C 0.47942 0.43979 0.57237 0.0
N276 N 0.5188 0.47235 0.46625 0.0
C277 C 0.50941 0.43981 0.48622 0.0
C278 C 0.51864 0.42371 0.45029 0.0
C279 C 0.53527 0.44724 0.40639 0.0
C280 C 0.53518 0.47618 0.41806 0.0
N281 N 0.54396 0.54521 0.43996 0.0
C282 C 0.55827 0.54082 0.39557 0.0
C283 C 0.57542 0.56988 0.35948 0.0
C284 C 0.5715 0.59421 0.38169 0.0
C285 C 0.55218 0.5786 0.43052 0.0
N286 N 0.56012 0.52306 0.53892 0.0
C287 C 0.62198 0.53859 0.59575 0.0
C288 C 0.62004 0.53301 0.54111 0.0
C289 C 0.58928 0.52583 0.51346 0.0
C290 C 0.59274 0.53681 0.62113 0.0
C291 C 0.56234 0.52888 0.5924 0.0
N292 N 0.46953 0.49468 0.46281 0.0
C293 C 0.4363 0.48078 0.38096 0.0
C294 C 0.40771 0.48025 0.40628 0.0
C295 C 0.41021 0.48628 0.46072 0.0
C296 C 0.44082 0.49285 0.48815 0.0
C297 C 0.46669 0.48817 0.40954 0.0
H298 H 0.44072 0.49677 0.52969 0.0
H299 H 0.48779 0.48908 0.3873 0.0
H300 H 0.5895 0.52219 0.47169 0.0
H301 H 0.5407 0.52696 0.61468 0.0
C302 C 0.47552 0.50869 0.61384 0.0
C303 C 0.5402 0.59566 0.46462 0.0
C304 C 0.49356 0.42394 0.53992 0.0
C305 C 0.55323 0.50845 0.38724 0.0
H306 H 0.51923 0.6212 0.54926 0.0
H307 H 0.48344 0.57372 0.63164 0.0
H308 H 0.44079 0.44432 0.68027 0.0
H309 H 0.4513 0.3982 0.63972 0.0
H310 H 0.51471 0.39804 0.45606 0.0
H311 H 0.54738 0.44419 0.37119 0.0
H312 H 0.58825 0.57267 0.32077 0.0
H313 H 0.58097 0.62013 0.36303 0.0
H314 H 0.64218 0.5343 0.51976 0.0
H315 H 0.59277 0.54045 0.66366 0.0
H316 H 0.43577 0.47657 0.3386 0.0
H317 H 0.38856 0.48579 0.48216 0.0
H318 H 0.35328 0.47981 0.2017 0.0
H319 H 0.2674 0.4763 0.28744 0.0
H320 H 0.28264 0.50012 0.11345 0.0
H321 H 0.22504 0.48259 0.11562 0.0
H322 H 0.15768 0.50644 0.19992 0.0
H323 H 0.24119 0.50496 0.28413 0.0
C324 C 0.3298 0.48177 0.20151 0.0
C325 C 0.31915 0.48934 0.15268 0.0
C326 C 0.31165 0.47757 0.25 0.0
C327 C 0.28159 0.48072 0.24943 0.0
C328 C 0.26988 0.48866 0.20027 0.0
C329 C 0.2895 0.49307 0.15177 0.0
C330 C 0.23814 0.49314 0.19986 0.0
C331 C 0.21863 0.48974 0.1524 0.0
C332 C 0.19028 0.49553 0.15234 0.0
C333 C 0.18035 0.50324 0.19974 0.0
C334 C 0.19814 0.50596 0.24717 0.0
C335 C 0.22712 0.50131 0.24721 0.0
H336 H 0.65022 0.1377 0.72588 0.0
H337 H 0.73063 0.22359 0.80861 0.0
H338 H 0.74481 0.21977 0.63651 0.0
H339 H 0.78735 0.27377 0.6327 0.0
H340 H 0.86825 0.35806 0.71796 0.0
H341 H 0.78475 0.26585 0.80847 0.0
C342 C 0.67603 0.1628 0.72487 0.0
C343 C 0.69597 0.17761 0.67629 0.0
C344 C 0.68894 0.17913 0.77233 0.0
C345 C 0.72245 0.21153 0.77108 0.0
C346 C 0.74386 0.22793 0.7222 0.0
C347 C 0.72991 0.20972 0.67479 0.0
C348 C 0.77966 0.26377 0.72079 0.0
C349 C 0.7978 0.28357 0.67112 0.0
C350 C 0.82979 0.31735 0.67038 0.0
C351 C 0.84364 0.33197 0.71872 0.0
C352 C 0.82701 0.31365 0.76804 0.0
C353 C 0.79588 0.2794 0.76927 0.0
H354 H 0.5279 0.6565 0.28103 0.0
H355 H 0.53685 0.74405 0.18978 0.0
H356 H 0.55319 0.74643 0.36217 0.0
H357 H 0.53411 0.78275 0.35762 0.0
H358 H 0.56379 0.8787 0.26733 0.0
H359 H 0.56848 0.80086 0.18842 0.0
C360 C 0.53246 0.68253 0.27956 0.0
C361 C 0.53926 0.69924 0.32696 0.0
C362 C 0.5324 0.6989 0.23021 0.0
C363 C 0.5386 0.73269 0.22828 0.0
C364 C 0.54576 0.75072 0.2758 0.0
C365 C 0.54672 0.73354 0.32515 0.0
C366 C 0.55179 0.78687 0.2739 0.0
C367 C 0.54477 0.79922 0.32022 0.0
C368 C 0.54987 0.83261 0.31779 0.0
C369 C 0.56153 0.85366 0.26934 0.0
C370 C 0.56724 0.84188 0.22258 0.0
C371 C 0.56304 0.8089 0.22503 0.0
H372 H 0.86801 0.51023 0.80297 0.0
H373 H 0.80113 0.5338 0.88946 0.0
H374 H 0.78437 0.51243 0.72062 0.0
H375 H 0.75971 0.5423 0.71852 0.0
H376 H 0.67431 0.53965 0.80404 0.0
H377 H 0.74338 0.51688 0.89208 0.0
C378 C 0.84532 0.51341 0.80375 0.0
C379 C 0.82746 0.51108 0.75659 0.0
C380 C 0.83558 0.52084 0.85161 0.0
C381 C 0.80738 0.52682 0.85235 0.0
C382 C 0.78782 0.52386 0.8052 0.0
C383 C 0.79855 0.51582 0.75737 0.0
C384 C 0.75654 0.52899 0.8054 0.0
C385 C 0.7454 0.53774 0.75648 0.0
C386 C 0.71574 0.5414 0.75587 0.0
C387 C 0.69754 0.53731 0.80432 0.0
C388 C 0.70768 0.52904 0.85315 0.0
C389 C 0.73686 0.52451 0.85393 0.0
H390 H 0.14978 0.66866 0.28363 0.0
H391 H 0.2277 0.76326 0.19155 0.0
H392 H 0.23498 0.75167 0.36562 0.0
H393 H 0.27527 0.80604 0.36248 0.0
H394 H 0.35586 0.89806 0.26763 0.0
H395 H 0.28138 0.80749 0.18761 0.0
C396 C 0.17419 0.69492 0.2821 0.0
C397 C 0.19097 0.70842 0.32965 0.0
C398 C 0.18764 0.71459 0.23274 0.0
C399 C 0.21905 0.74869 0.23051 0.0
C400 C 0.23764 0.76359 0.278 0.0
C401 C 0.22261 0.7425 0.32788 0.0
C402 C 0.27152 0.80088 0.27535 0.0
C403 C 0.28661 0.81851 0.32282 0.0
C404 C 0.31706 0.85329 0.31977 0.0
C405 C 0.33218 0.87132 0.26967 0.0
C406 C 0.31904 0.85489 0.22233 0.0
C407 C 0.28953 0.81963 0.2251 0.0
H408 H 0.4817 0.35228 0.72328 0.0
H409 H 0.46979 0.26388 0.81599 0.0
H410 H 0.49739 0.28125 0.64379 0.0
H411 H 0.47704 0.22596 0.6471 0.0
H412 H 0.47728 0.14432 0.74203 0.0
H413 H 0.4904 0.23068 0.82028 0.0
C414 C 0.48204 0.32853 0.72531 0.0
C415 C 0.48929 0.31817 0.67844 0.0
C416 C 0.47559 0.30933 0.77469 0.0
C417 C 0.4762 0.27872 0.77732 0.0
C418 C 0.48374 0.26723 0.73038 0.0
C419 C 0.49062 0.28792 0.68072 0.0
C420 C 0.4835 0.23363 0.73325 0.0
C421 C 0.47962 0.21596 0.68625 0.0
C422 C 0.47781 0.18406 0.68956 0.0
C423 C 0.47894 0.16909 0.73959 0.0
C424 C 0.48271 0.18547 0.78649 0.0
C425 C 0.48608 0.2181 0.78335 0.0
C426 C 0.11053 0.45883 0.06448 0.0
C427 C 0.11102 0.48949 0.04954 0.0
H428 H 0.13656 0.43674 0.10842 0.0
C429 C 0.14238 0.52226 0.05738 0.0
H430 H 0.08676 0.43326 0.05825 0.0
C431 C 0.17117 0.52427 0.08461 0.0
C432 C 0.16915 0.49354 0.10471 0.0
H433 H 0.14352 0.54627 0.04596 0.0
H434 H 0.1935 0.54978 0.09463 0.0
C435 C 0.13926 0.46082 0.09231 0.0
C436 C 0.65752 0.10266 0.58856 0.0
C437 C 0.62817 0.10322 0.5679 0.0
H438 H 0.70336 0.12717 0.63857 0.0
C439 C 0.62636 0.13265 0.57387 0.0
H440 H 0.65939 0.08017 0.58431 0.0
C441 C 0.65175 0.15972 0.60408 0.0
C442 C 0.67948 0.15787 0.62846 0.0
H443 H 0.6039 0.13355 0.55827 0.0
H444 H 0.64793 0.18059 0.61221 0.0
C445 C 0.6829 0.12972 0.61888 0.0
C446 C 0.55529 0.66877 0.10867 0.0
C447 C 0.52644 0.63328 0.1121 0.0
H448 H 0.57952 0.71825 0.14375 0.0
C449 C 0.49639 0.62219 0.1468 0.0
H450 H 0.57874 0.67788 0.08215 0.0
C451 C 0.49657 0.64522 0.18109 0.0
C452 C 0.52694 0.67976 0.1817 0.0
H453 H 0.47361 0.59505 0.14964 0.0
H454 H 0.47423 0.63521 0.21032 0.0
C455 C 0.5556 0.69189 0.14349 0.0
C456 C 0.87211 0.47948 0.67093 0.0
C457 C 0.89016 0.50753 0.631 0.0
H458 H 0.83637 0.45781 0.74101 0.0
C459 C 0.88109 0.53278 0.62603 0.0
H460 H 0.87824 0.4594 0.67502 0.0
C461 C 0.85703 0.53188 0.66398 0.0
C462 C 0.84164 0.50558 0.70694 0.0
H463 H 0.89464 0.5546 0.59541 0.0
H464 H 0.85297 0.55335 0.66243 0.0
C465 C 0.84791 0.47838 0.70829 0.0
C466 C 0.38906 0.89166 0.10815 0.0
C467 C 0.39412 0.92473 0.09556 0.0
H468 H 0.36 0.84276 0.15743 0.0
C469 C 0.36983 0.93175 0.11816 0.0
H470 H 0.40776 0.88583 0.09169 0.0
C471 C 0.34272 0.90722 0.15595 0.0
C472 C 0.33915 0.87508 0.17123 0.0
H473 H 0.3734 0.95713 0.10935 0.0
H474 H 0.32609 0.91432 0.17602 0.0
C475 C 0.36164 0.86695 0.14545 0.0
C476 C 0.46402 0.35968 0.5683 0.0
C477 C 0.4951 0.39394 0.564 0.0
H478 H 0.4384 0.30753 0.6073 0.0
C479 C 0.52673 0.40039 0.58804 0.0
H480 H 0.43936 0.35428 0.55005 0.0
C481 C 0.52634 0.37364 0.62006 0.0
C482 C 0.49437 0.34004 0.62825 0.0
H483 H 0.55093 0.42672 0.5852 0.0
H484 H 0.55 0.38007 0.64245 0.0
C485 C 0.46365 0.33288 0.60029 0.0
C486 C 0.50467 0.86981 0.38692 0.0
C487 C 0.53196 0.89257 0.42022 0.0
H488 H 0.48844 0.83125 0.32992 0.0
C489 C 0.56182 0.88968 0.42811 0.0
H490 H 0.48144 0.87162 0.38023 0.0
C491 C 0.56588 0.86656 0.39912 0.0
C492 C 0.5398 0.84569 0.36274 0.0
H493 H 0.5833 0.90718 0.45334 0.0
H494 H 0.59071 0.86714 0.40173 0.0
C495 C 0.50845 0.84644 0.3587 0.0
C496 C 0.66571 0.55484 0.9541 0.0
C497 C 0.63045 0.52461 0.95897 0.0
H498 H 0.71907 0.57949 0.91752 0.0
C499 C 0.62383 0.49355 0.93934 0.0
H500 H 0.67128 0.57911 0.9687 0.0
C501 C 0.65124 0.49362 0.91079 0.0
C502 C 0.6857 0.52472 0.90157 0.0
H503 H 0.59674 0.47002 0.9424 0.0
H504 H 0.64451 0.47033 0.89141 0.0
C505 C 0.69312 0.55493 0.92547 0.0
C506 C 0.14026 0.62562 0.4208 0.0
C507 C 0.11546 0.63061 0.44698 0.0
H508 H 0.18526 0.64761 0.36383 0.0
C509 C 0.12132 0.66429 0.44352 0.0
H510 H 0.13606 0.59978 0.42269 0.0
C511 C 0.14973 0.69181 0.41028 0.0
C512 C 0.1726 0.68595 0.38012 0.0
H513 H 0.1023 0.66855 0.4632 0.0
H514 H 0.15161 0.71655 0.40411 0.0
C515 C 0.16858 0.65306 0.38762 0.0
C516 C 0.51634 0.15259 0.8993 0.0
C517 C 0.48581 0.11819 0.91022 0.0
H518 H 0.53916 0.20179 0.85121 0.0
C519 C 0.45278 0.10938 0.88843 0.0
H520 H 0.5422 0.1599 0.91526 0.0
C521 C 0.45097 0.1334 0.85275 0.0
C522 C 0.48219 0.16662 0.83779 0.0
H523 H 0.42885 0.08312 0.89637 0.0
H524 H 0.42581 0.12494 0.83324 0.0
C525 C 0.51458 0.17662 0.86301 0.0
C526 C 0.36517 0.4983 0.37576 0.0
C527 C 0.37645 0.47473 0.375 0.0
H528 H 0.33485 0.51734 0.33665 0.0
C529 C 0.36013 0.44786 0.33984 0.0
H530 H 0.37732 0.51931 0.40244 0.0
C531 C 0.33544 0.44636 0.30314 0.0
C532 C 0.32682 0.47198 0.30018 0.0
H533 H 0.36782 0.42899 0.33892 0.0
H534 H 0.32518 0.42674 0.27414 0.0
C535 C 0.34062 0.49702 0.33847 0.0
C536 C 0.88631 0.34584 0.88757 0.0
C537 C 0.89255 0.37957 0.88838 0.0
H538 H 0.85961 0.29758 0.84845 0.0
C539 C 0.87178 0.38823 0.85664 0.0
H540 H 0.90218 0.33871 0.91162 0.0
C541 C 0.84725 0.36472 0.82159 0.0
C542 C 0.8432 0.33218 0.81708 0.0
H543 H 0.87599 0.41401 0.85683 0.0
H544 H 0.83341 0.37307 0.79491 0.0
C545 C 0.86183 0.32227 0.85185 0.0
C546 C 0.88505 0.4946 0.94387 0.0
C547 C 0.91545 0.52757 0.95371 0.0
H548 H 0.83444 0.46663 0.90548 0.0
C549 C 0.91476 0.55778 0.94067 0.0
H550 H 0.88482 0.47092 0.95389 0.0
C551 C 0.88581 0.55534 0.91292 0.0
C552 C 0.85689 0.52258 0.89879 0.0
H553 H 0.93772 0.58345 0.94867 0.0
H554 H 0.88758 0.57925 0.89842 0.0
C555 C 0.85602 0.49212 0.91686 0.0
C556 C 0.36482 0.92583 0.41172 0.0
C557 C 0.39208 0.9209 0.42955 0.0
H558 H 0.31859 0.90727 0.36295 0.0
C559 C 0.38947 0.88954 0.42027 0.0
H560 H 0.36629 0.94979 0.41868 0.0
C561 C 0.36175 0.86487 0.38957 0.0
C562 C 0.33635 0.8713 0.3676 0.0
H563 H 0.41024 0.88525 0.43372 0.0
H564 H 0.36205 0.84234 0.37904 0.0
C565 C 0.33737 0.90138 0.38049 0.0
C566 C 0.49769 0.36041 0.89665 0.0
C567 C 0.4738 0.37181 0.89169 0.0
H568 H 0.51649 0.33052 0.86326 0.0
C569 C 0.44579 0.35619 0.85559 0.0
H570 H 0.51957 0.37207 0.92414 0.0
C571 C 0.44375 0.33215 0.82157 0.0
C572 C 0.46985 0.32348 0.82264 0.0
H573 H 0.42666 0.36405 0.85158 0.0
H574 H 0.42354 0.32254 0.79129 0.0
C575 C 0.49578 0.33643 0.86219 0.0
C576 C 0.15419 0.53927 0.33049 0.0
C577 C 0.13576 0.51159 0.37088 0.0
H578 H 0.1901 0.55996 0.26063 0.0
C579 C 0.14429 0.48596 0.37689 0.0
H580 H 0.14852 0.55965 0.32563 0.0
C581 C 0.1682 0.48614 0.33954 0.0
C582 C 0.184 0.51211 0.29616 0.0
H583 H 0.13044 0.46441 0.40789 0.0
H584 H 0.17187 0.46442 0.34189 0.0
C585 C 0.17824 0.53965 0.29371 0.0
C586 C 0.60649 0.12371 0.86541 0.0
C587 C 0.61857 0.1079 0.9022 0.0
H588 H 0.62001 0.15985 0.7959 0.0
C589 C 0.65547 0.11992 0.90107 0.0
H590 H 0.57808 0.11455 0.86528 0.0
C591 C 0.67958 0.14615 0.86183 0.0
C592 C 0.66697 0.1603 0.82278 0.0
H593 H 0.66518 0.1075 0.92833 0.0
H594 H 0.70736 0.1533 0.85935 0.0
C595 C 0.63047 0.14968 0.82606 0.0
C596 C 0.50662 0.62139 0.42577 0.0
C597 C 0.53957 0.62638 0.44132 0.0
H598 H 0.48076 0.64197 0.3782 0.0
C599 C 0.57181 0.65932 0.42907 0.0
H600 H 0.48145 0.59622 0.43496 0.0
C601 C 0.57143 0.68561 0.39671 0.0
C602 C 0.53875 0.67932 0.37688 0.0
H603 H 0.59749 0.6637 0.44107 0.0
H604 H 0.5969 0.70947 0.38323 0.0
C605 C 0.50621 0.64766 0.39384 0.0
C606 C 0.44754 0.10752 0.60811 0.0
C607 C 0.48 0.11814 0.5799 0.0
H608 H 0.42106 0.12107 0.66396 0.0
C609 C 0.50893 0.15359 0.57883 0.0
H610 H 0.42459 0.08056 0.60901 0.0
C611 C 0.50667 0.17694 0.60986 0.0
C612 C 0.47539 0.16523 0.64205 0.0
H613 H 0.53435 0.16255 0.55768 0.0
H614 H 0.53048 0.20312 0.61257 0.0
C615 C 0.44529 0.13082 0.6389 0.0
C616 C 0.40264 0.52255 0.06743 0.0
C617 C 0.3946 0.49125 0.04696 0.0
H618 H 0.3836 0.54687 0.11599 0.0
C619 C 0.35877 0.46195 0.05088 0.0
H620 H 0.43019 0.54539 0.0649 0.0
C621 C 0.33203 0.46293 0.07947 0.0
C622 C 0.34078 0.49326 0.10423 0.0
H623 H 0.35214 0.43757 0.03537 0.0
H624 H 0.30548 0.43897 0.0867 0.0
C625 C 0.37592 0.52355 0.09592 0.0
C626 C 0.88536 0.39813 0.57616 0.0
C627 C 0.91045 0.39177 0.5547 0.0
H628 H 0.83868 0.37838 0.62887 0.0
C629 C 0.90378 0.35782 0.5623 0.0
H630 H 0.89009 0.42418 0.57089 0.0
C631 C 0.87412 0.33145 0.59507 0.0
C632 C 0.85077 0.33874 0.62047 0.0
H633 H 0.92291 0.35246 0.54608 0.0
H634 H 0.87139 0.30649 0.60447 0.0
C635 C 0.8558 0.37186 0.60881 0.0
C636 C 0.59254 0.92058 0.12834 0.0
C637 C 0.56231 0.90602 0.09604 0.0
H638 H 0.61844 0.911 0.19384 0.0
C639 C 0.53929 0.86919 0.09705 0.0
H640 H 0.6107 0.94882 0.12856 0.0
C641 C 0.54397 0.84752 0.13405 0.0
C642 C 0.57155 0.86238 0.17093 0.0
H643 H 0.51602 0.85725 0.07207 0.0
H644 H 0.52378 0.8195 0.13756 0.0
C645 C 0.59704 0.89892 0.16563 0.0
C646 C 0.66819 0.57107 0.66363 0.0
C647 C 0.65317 0.54467 0.62759 0.0
H648 H 0.70119 0.59156 0.73144 0.0
C649 C 0.66501 0.52154 0.62739 0.0
H650 H 0.65999 0.58957 0.66414 0.0
C651 C 0.68872 0.52269 0.6661 0.0
C652 C 0.701 0.54707 0.70532 0.0
H653 H 0.6538 0.50088 0.6001 0.0
H654 H 0.69497 0.50269 0.66815 0.0
C655 C 0.69196 0.57235 0.70188 0.0
C656 C 0.15844 0.66039 0.11334 0.0
C657 C 0.12099 0.64636 0.11578 0.0
H658 H 0.20959 0.69413 0.14859 0.0
C659 C 0.10768 0.6607 0.14952 0.0
H660 H 0.16945 0.64979 0.0878 0.0
C661 C 0.13065 0.68624 0.18353 0.0
C662 C 0.16741 0.69795 0.18466 0.0
H663 H 0.0791 0.65086 0.15162 0.0
H664 H 0.11915 0.69491 0.21199 0.0
C665 C 0.18148 0.68595 0.14774 0.0
loop_
_geom_bond_atom_site_label_1
_geom_bond_atom_site_label_2
_geom_bond_distance
_geom_bond_site_symmetry_2
_ccdc_geom_bond_type
C0 C1 1.443 1_556 S
C0 N4 1.376 1_556 S
C0 C38 1.389 . S
C1 C0 1.443 1_554 S
C1 C2 1.340 . S
C1 H41 0.951 . S
C2 C1 1.340 . S
C2 C3 1.439 . S
C2 H42 0.950 . S
C3 C2 1.439 . S
C3 N4 1.374 . S
C3 C37 1.395 . S
N4 C0 1.376 1_554 S
N4 C3 1.374 . S
N4 Co5 2.008 1_655 S
Co5 N4 2.008 1_455 S
Co5 N6 1.986 . S
Co5 N11 2.008 1_554 S
Co5 N16 1.995 1_554 S
Co5 N21 2.282 . S
Co5 N27 2.282 1_454 S
N6 Co5 1.986 . S
N6 C7 1.362 1_455 S
N6 C10 1.409 . S
C7 N6 1.362 1_655 S
C7 C8 1.446 . S
C7 C37 1.391 . S
C8 C7 1.446 . S
C8 C9 1.339 1_655 S
C8 H43 0.949 . S
C9 C8 1.339 1_455 S
C9 C10 1.439 . S
C9 H44 0.950 . S
C10 N6 1.409 . S
C10 C9 1.439 . S
C10 C39 1.392 . S
N11 Co5 2.008 1_556 S
N11 C12 1.376 1_556 S
N11 C15 1.374 . S
C12 N11 1.376 1_554 S
C12 C13 1.443 1_554 S
C12 C39 1.389 . S
C13 C12 1.443 1_556 S
C13 C14 1.340 . S
C13 H45 0.951 . S
C14 C13 1.340 . S
C14 C15 1.439 . S
C14 H46 0.950 . S
C15 N11 1.374 . S
C15 C14 1.439 . S
C15 C40 1.395 . S
N16 Co5 1.995 1_556 S
N16 C17 1.376 . S
N16 C20 1.383 1_455 S
C17 N16 1.376 . S
C17 C18 1.446 . S
C17 C40 1.391 . S
C18 C17 1.446 . S
C18 C19 1.339 1_455 S
C18 H47 0.949 . S
C19 C18 1.339 1_655 S
C19 C20 1.439 . S
C19 H48 0.950 . S
C20 N16 1.383 1_655 S
C20 C19 1.439 . S
C20 C38 1.392 . S
N21 Co5 2.282 . S
N21 C24 1.332 . S
N21 C26 1.332 . S
C22 C23 1.386 . S
C22 C25 1.388 . S
C23 C22 1.386 . S
C23 C24 1.382 . S
C23 H49 0.950 . S
C24 N21 1.332 . S
C24 C23 1.382 . S
C24 H35 0.952 1_554 S
C25 C22 1.388 . S
C25 C26 1.382 . S
C25 H50 0.950 . S
C26 N21 1.332 . S
C26 C25 1.382 . S
C26 H36 0.948 . S
N27 Co5 2.282 1_656 S
N27 C31 1.332 . S
N27 C32 1.332 . S
C28 C29 1.388 . S
C28 C32 1.382 . S
C28 H51 0.950 . S
C29 C28 1.388 . S
C29 C30 1.386 . S
C30 C29 1.386 . S
C30 C31 1.382 . S
C30 H52 0.950 . S
C31 N27 1.332 . S
C31 C30 1.382 . S
C31 H33 0.952 1_556 S
C32 N27 1.332 . S
C32 C28 1.382 . S
C32 H34 0.948 . S
H33 C31 0.952 1_554 S
H34 C32 0.948 . S
H35 C24 0.952 1_556 S
H36 C26 0.948 . S
C37 C3 1.395 . S
C37 C7 1.391 . S
C38 C0 1.389 . S
C38 C20 1.392 . S
C39 C10 1.392 . S
C39 C12 1.389 . S
C40 C15 1.395 . S
C40 C17 1.391 . S
H41 C1 0.951 . S
H42 C2 0.950 . S
H43 C8 0.949 . S
H44 C9 0.950 . S
H45 C13 0.951 . S
H46 C14 0.950 . S
H47 C18 0.949 . S
H48 C19 0.950 . S
H49 C23 0.950 . S
H50 C25 0.950 . S
H51 C28 0.950 . S
H52 C30 0.950 . S
C53 C54 1.443 . S
C53 N57 1.376 . S
C53 C91 1.389 . S
C54 C53 1.443 . S
C54 C55 1.340 1_545 S
C54 H94 0.951 . S
C55 C54 1.340 1_565 S
C55 C56 1.439 . S
C55 H95 0.950 . S
C56 C55 1.439 . S
C56 N57 1.374 1_565 S
C56 C90 1.395 . S
N57 C53 1.376 . S
N57 C56 1.374 1_545 S
N57 Co58 2.008 . S
Co58 N57 2.008 . S
Co58 N59 1.995 1_545 S
Co58 N64 2.005 . S
Co58 N69 1.995 . S
Co58 N74 2.282 1_545 S
Co58 N80 2.282 . S
N59 Co58 1.995 1_565 S
N59 C60 1.376 . S
N59 C63 1.383 . S
C60 N59 1.376 . S
C60 C61 1.446 . S
C60 C90 1.391 . S
C61 C60 1.446 . S
C61 C62 1.339 . S
C61 H96 0.949 . S
C62 C61 1.339 . S
C62 C63 1.439 . S
C62 H97 0.950 . S
C63 N59 1.383 . S
C63 C62 1.439 . S
C63 C92 1.392 . S
N64 Co58 2.005 . S
N64 C65 1.365 1_545 S
N64 C68 1.384 . S
C65 N64 1.365 1_565 S
C65 C66 1.443 . S
C65 C92 1.389 . S
C66 C65 1.443 . S
C66 C67 1.340 1_565 S
C66 H98 0.951 . S
C67 C66 1.340 1_545 S
C67 C68 1.439 . S
C67 H99 0.950 . S
C68 N64 1.384 . S
C68 C67 1.439 . S
C68 C93 1.395 . S
N69 Co58 1.995 . S
N69 C70 1.376 . S
N69 C73 1.383 . S
C70 N69 1.376 . S
C70 C71 1.446 . S
C70 C93 1.391 . S
C71 C70 1.446 . S
C71 C72 1.339 . S
C71 H100 0.949 . S
C72 C71 1.339 . S
C72 C73 1.439 . S
C72 H101 0.950 . S
C73 N69 1.383 . S
C73 C72 1.439 . S
C73 C91 1.392 . S
N74 Co58 2.282 1_565 S
N74 C77 1.332 . S
N74 C79 1.332 . S
C75 C76 1.386 . S
C75 C78 1.388 . S
C76 C75 1.386 . S
C76 C77 1.382 . S
C76 H102 0.950 . S
C77 N74 1.332 . S
C77 C76 1.382 . S
C77 H88 0.952 1_565 S
C78 C75 1.388 . S
C78 C79 1.382 . S
C78 H103 0.950 . S
C79 N74 1.332 . S
C79 C78 1.382 . S
C79 H89 0.948 . S
N80 Co58 2.282 . S
N80 C84 1.332 . S
N80 C85 1.332 . S
C81 C82 1.388 . S
C81 C85 1.382 . S
C81 H104 0.950 . S
C82 C81 1.388 . S
C82 C83 1.386 . S
C83 C82 1.386 . S
C83 C84 1.382 . S
C83 H105 0.950 . S
C84 N80 1.332 . S
C84 C83 1.382 . S
C84 H86 0.952 . S
C85 N80 1.332 . S
C85 C81 1.382 . S
C85 H87 0.948 . S
H86 C84 0.952 . S
H87 C85 0.948 . S
H88 C77 0.952 1_545 S
H89 C79 0.948 . S
C90 C56 1.395 . S
C90 C60 1.391 . S
C91 C53 1.389 . S
C91 C73 1.392 . S
C92 C63 1.392 . S
C92 C65 1.389 . S
C93 C68 1.395 . S
C93 C70 1.391 . S
H94 C54 0.951 . S
H95 C55 0.950 . S
H96 C61 0.949 . S
H97 C62 0.950 . S
H98 C66 0.951 . S
H99 C67 0.950 . S
H100 C71 0.949 . S
H101 C72 0.950 . S
H102 C76 0.950 . S
H103 C78 0.950 . S
H104 C81 0.950 . S
H105 C83 0.950 . S
C106 C107 1.443 . S
C106 N110 1.376 . S
C106 C144 1.389 . S
C107 C106 1.443 . S
C107 C108 1.340 . S
C107 H147 0.951 . S
C108 C107 1.340 . S
C108 C109 1.439 . S
C108 H148 0.950 . S
C109 C108 1.439 . S
C109 N110 1.374 . S
C109 C143 1.395 . S
N110 C106 1.376 . S
N110 C109 1.374 . S
N110 Co111 2.008 1_556 S
Co111 N110 2.008 1_554 S
Co111 N112 1.995 1_554 S
Co111 N117 2.008 . S
Co111 N122 1.995 . S
Co111 N127 2.282 . S
Co111 N133 2.282 1_554 S
N112 Co111 1.995 1_556 S
N112 C113 1.376 . S
N112 C116 1.383 1_556 S
C113 N112 1.376 . S
C113 C114 1.446 . S
C113 C143 1.391 . S
C114 C113 1.446 . S
C114 C115 1.339 . S
C114 H149 0.949 . S
C115 C114 1.339 . S
C115 C116 1.439 1_556 S
C115 H150 0.950 . S
C116 N112 1.383 1_554 S
C116 C115 1.439 1_554 S
C116 C145 1.392 . S
N117 Co111 2.008 . S
N117 C118 1.376 . S
N117 C121 1.374 . S
C118 N117 1.376 . S
C118 C119 1.443 . S
C118 C145 1.389 . S
C119 C118 1.443 . S
C119 C120 1.340 . S
C119 H151 0.951 . S
C120 C119 1.340 . S
C120 C121 1.439 . S
C120 H152 0.950 . S
C121 N117 1.374 . S
C121 C120 1.439 . S
C121 C146 1.395 . S
N122 Co111 1.995 . S
N122 C123 1.376 . S
N122 C126 1.381 1_554 S
C123 N122 1.376 . S
C123 C124 1.446 . S
C123 C146 1.391 . S
C124 C123 1.446 . S
C124 C125 1.339 . S
C124 H153 0.949 . S
C125 C124 1.339 . S
C125 C126 1.437 1_554 S
C125 H154 0.950 . S
C126 N122 1.381 1_556 S
C126 C125 1.437 1_556 S
C126 C144 1.395 . S
N127 Co111 2.282 . S
N127 C130 1.332 . S
N127 C132 1.332 . S
C128 C129 1.386 . S
C128 C131 1.388 . S
C129 C128 1.386 . S
C129 C130 1.382 . S
C129 H155 0.950 . S
C130 N127 1.332 . S
C130 C129 1.382 . S
C130 H141 0.952 . S
C131 C128 1.388 . S
C131 C132 1.382 . S
C131 H156 0.950 . S
C132 N127 1.332 . S
C132 C131 1.382 . S
C132 H142 0.948 1_554 S
N133 Co111 2.282 1_556 S
N133 C137 1.332 . S
N133 C138 1.332 . S
C134 C135 1.388 . S
C134 C138 1.382 . S
C134 H157 0.950 . S
C135 C134 1.388 . S
C135 C136 1.386 . S
C136 C135 1.386 . S
C136 C137 1.382 . S
C136 H158 0.950 . S
C137 N133 1.332 . S
C137 C136 1.382 . S
C137 H139 0.952 . S
C138 N133 1.332 . S
C138 C134 1.382 . S
C138 H140 0.948 1_556 S
H139 C137 0.952 . S
H140 C138 0.948 1_554 S
H141 C130 0.952 . S
H142 C132 0.948 1_556 S
C143 C109 1.395 . S
C143 C113 1.391 . S
C144 C106 1.389 . S
C144 C126 1.395 . S
C145 C116 1.392 . S
C145 C118 1.389 . S
C146 C121 1.395 . S
C146 C123 1.391 . S
H147 C107 0.951 . S
H148 C108 0.950 . S
H149 C114 0.949 . S
H150 C115 0.950 . S
H151 C119 0.951 . S
H152 C120 0.950 . S
H153 C124 0.949 . S
H154 C125 0.950 . S
H155 C129 0.950 . S
H156 C131 0.950 . S
H157 C134 0.950 . S
H158 C136 0.950 . S
C159 C160 1.443 . S
C159 N163 1.376 . S
C159 C197 1.389 . S
C160 C159 1.443 . S
C160 C161 1.340 . S
C160 H200 0.951 . S
C161 C160 1.340 . S
C161 C162 1.439 . S
C161 H201 0.950 . S
C162 C161 1.439 . S
C162 N163 1.374 . S
C162 C196 1.395 . S
N163 C159 1.376 . S
N163 C162 1.374 . S
N163 Co164 1.990 1_655 S
Co164 N163 1.990 1_455 S
Co164 N165 1.986 . S
Co164 N170 2.026 . S
Co164 N175 2.004 1_455 S
Co164 N180 2.306 . S
Co164 N186 2.259 1_455 S
N165 Co164 1.986 . S
N165 C166 1.376 1_455 S
N165 C169 1.383 . S
C166 N165 1.376 1_655 S
C166 C167 1.446 . S
C166 C196 1.391 . S
C167 C166 1.446 . S
C167 C168 1.339 1_655 S
C167 H202 0.949 . S
C168 C167 1.339 1_455 S
C168 C169 1.439 . S
C168 H203 0.950 . S
C169 N165 1.383 . S
C169 C168 1.439 . S
C169 C198 1.392 . S
N170 Co164 2.026 . S
N170 C171 1.376 . S
N170 C174 1.374 . S
C171 N170 1.376 . S
C171 C172 1.443 . S
C171 C198 1.389 . S
C172 C171 1.443 . S
C172 C173 1.340 . S
C172 H204 0.951 . S
C173 C172 1.340 . S
C173 C174 1.439 . S
C173 H205 0.950 . S
C174 N170 1.374 . S
C174 C173 1.439 . S
C174 C199 1.395 . S
N175 Co164 2.004 1_655 S
N175 C176 1.376 1_655 S
N175 C179 1.383 . S
C176 N175 1.376 1_455 S
C176 C177 1.446 . S
C176 C199 1.391 . S
C177 C176 1.446 . S
C177 C178 1.339 1_455 S
C177 H206 0.949 . S
C178 C177 1.339 1_655 S
C178 C179 1.439 . S
C178 H207 0.950 . S
C179 N175 1.383 . S
C179 C178 1.439 . S
C179 C197 1.392 . S
N180 Co164 2.306 . S
N180 C183 1.332 . S
N180 C185 1.332 . S
C181 C182 1.386 . S
C181 C184 1.388 . S
C182 C181 1.386 . S
C182 C183 1.382 . S
C182 H208 0.950 . S
C183 N180 1.332 . S
C183 C182 1.382 . S
C183 H194 0.952 . S
C184 C181 1.388 . S
C184 C185 1.382 . S
C184 H209 0.950 . S
C185 N180 1.332 . S
C185 C184 1.382 . S
C185 H195 0.948 . S
N186 Co164 2.259 1_655 S
N186 C190 1.332 . S
N186 C191 1.332 . S
C187 C188 1.388 . S
C187 C191 1.382 . S
C187 H210 0.950 . S
C188 C187 1.388 . S
C188 C189 1.386 . S
C189 C188 1.386 . S
C189 C190 1.382 . S
C189 H211 0.950 . S
C190 N186 1.332 . S
C190 C189 1.382 . S
C190 H192 0.952 . S
C191 N186 1.332 . S
C191 C187 1.382 . S
C191 H193 0.948 . S
H192 C190 0.952 . S
H193 C191 0.948 . S
H194 C183 0.952 . S
H195 C185 0.948 . S
C196 C162 1.395 . S
C196 C166 1.391 . S
C197 C159 1.389 . S
C197 C179 1.392 . S
C198 C169 1.392 . S
C198 C171 1.389 . S
C199 C174 1.395 . S
C199 C176 1.391 . S
H200 C160 0.951 . S
H201 C161 0.950 . S
H202 C167 0.949 . S
H203 C168 0.950 . S
H204 C172 0.951 . S
H205 C173 0.950 . S
H206 C177 0.949 . S
H207 C178 0.950 . S
H208 C182 0.950 . S
H209 C184 0.950 . S
H210 C187 0.950 . S
H211 C189 0.950 . S
C212 C213 1.443 . S
C212 N216 1.376 1_565 S
C212 C250 1.389 . S
C213 C212 1.443 . S
C213 C214 1.340 1_565 S
C213 H253 0.951 . S
C214 C213 1.340 1_545 S
C214 C215 1.439 . S
C214 H254 0.950 . S
C215 C214 1.439 . S
C215 N216 1.375 . S
C215 C249 1.395 . S
N216 C212 1.376 1_545 S
N216 C215 1.375 . S
N216 Co217 2.008 . S
Co217 N216 2.008 . S
Co217 N218 1.995 . S
Co217 N223 2.008 1_554 S
Co217 N228 1.995 1_544 S
Co217 N233 2.282 1_554 S
Co217 N239 2.282 1_545 S
N218 Co217 1.995 . S
N218 C219 1.376 . S
N218 C222 1.383 1_554 S
C219 N218 1.376 . S
C219 C220 1.446 . S
C219 C249 1.391 . S
C220 C219 1.446 . S
C220 C221 1.339 . S
C220 H255 0.949 . S
C221 C220 1.339 . S
C221 C222 1.439 1_554 S
C221 H256 0.950 1_554 S
C222 N218 1.383 1_556 S
C222 C221 1.439 1_556 S
C222 C251 1.392 . S
N223 Co217 2.008 1_556 S
N223 C224 1.376 . S
N223 C227 1.374 1_545 S
C224 N223 1.376 . S
C224 C225 1.443 . S
C224 C251 1.389 . S
C225 C224 1.443 . S
C225 C226 1.337 1_545 S
C225 H257 0.951 . S
C226 C225 1.337 1_565 S
C226 C227 1.439 . S
C226 H258 0.952 . S
C227 N223 1.374 1_565 S
C227 C226 1.439 . S
C227 C252 1.395 . S
N228 Co217 1.995 1_566 S
N228 C229 1.376 . S
N228 C232 1.383 1_556 S
C229 N228 1.376 . S
C229 C230 1.446 . S
C229 C252 1.391 . S
C230 C229 1.446 . S
C230 C231 1.317 1_556 S
C230 H259 0.949 . S
C231 C230 1.317 1_554 S
C231 C232 1.450 . S
C231 H260 0.958 . S
C232 N228 1.383 1_554 S
C232 C231 1.450 . S
C232 C250 1.392 . S
N233 Co217 2.282 1_556 S
N233 C236 1.332 . S
N233 C238 1.332 . S
C234 C235 1.386 . S
C234 C237 1.388 . S
C235 C234 1.386 . S
C235 C236 1.382 . S
C235 H261 0.950 . S
C236 N233 1.332 . S
C236 C235 1.382 . S
C236 H247 0.952 . S
C237 C234 1.388 . S
C237 C238 1.382 . S
C237 H262 0.950 . S
C238 N233 1.332 . S
C238 C237 1.382 . S
C238 H248 0.948 1_556 S
N239 Co217 2.282 1_565 S
N239 C243 1.332 . S
N239 C244 1.332 . S
C240 C241 1.388 . S
C240 C244 1.382 . S
C240 H263 0.950 . S
C241 C240 1.388 . S
C241 C242 1.386 . S
C242 C241 1.386 . S
C242 C243 1.382 . S
C242 H264 0.950 . S
C243 N239 1.332 . S
C243 C242 1.382 . S
C243 H245 0.925 1_565 S
C244 N239 1.332 . S
C244 C240 1.382 . S
C244 H246 0.948 1_554 S
H245 C243 0.925 1_545 S
H246 C244 0.948 1_556 S
H247 C236 0.952 . S
H248 C238 0.948 1_554 S
C249 C215 1.395 . S
C249 C219 1.391 . S
C250 C212 1.389 . S
C250 C232 1.392 . S
C251 C222 1.392 . S
C251 C224 1.389 . S
C252 C227 1.395 . S
C252 C229 1.391 . S
H253 C213 0.951 . S
H254 C214 0.950 . S
H255 C220 0.949 . S
H256 C221 0.950 1_556 S
H257 C225 0.951 . S
H258 C226 0.952 . S
H259 C230 0.949 . S
H260 C231 0.958 . S
H261 C235 0.950 . S
H262 C237 0.950 . S
H263 C240 0.950 . S
H264 C242 0.950 . S
C265 C266 1.443 . S
C265 N269 1.376 . S
C265 C303 1.389 . S
C266 C265 1.443 . S
C266 C267 1.340 . S
C266 H306 0.951 . S
C267 C266 1.340 . S
C267 C268 1.439 . S
C267 H307 0.950 . S
C268 C267 1.439 . S
C268 N269 1.374 . S
C268 C302 1.395 . S
N269 C265 1.376 . S
N269 C268 1.374 . S
N269 Co270 2.008 . S
Co270 N269 2.008 . S
Co270 N271 1.995 . S
Co270 N276 2.008 . S
Co270 N281 1.995 . S
Co270 N286 2.282 . S
Co270 N292 2.282 . S
N271 Co270 1.995 . S
N271 C272 1.376 . S
N271 C275 1.383 . S
C272 N271 1.376 . S
C272 C273 1.446 . S
C272 C302 1.391 . S
C273 C272 1.446 . S
C273 C274 1.339 . S
C273 H308 0.949 . S
C274 C273 1.339 . S
C274 C275 1.439 . S
C274 H309 0.950 . S
C275 N271 1.383 . S
C275 C274 1.439 . S
C275 C304 1.392 . S
N276 Co270 2.008 . S
N276 C277 1.376 . S
N276 C280 1.374 . S
C277 N276 1.376 . S
C277 C278 1.443 . S
C277 C304 1.389 . S
C278 C277 1.443 . S
C278 C279 1.340 . S
C278 H310 0.951 . S
C279 C278 1.340 . S
C279 C280 1.439 . S
C279 H311 0.950 . S
C280 N276 1.374 . S
C280 C279 1.439 . S
C280 C305 1.395 . S
N281 Co270 1.995 . S
N281 C282 1.376 . S
N281 C285 1.383 . S
C282 N281 1.376 . S
C282 C283 1.446 . S
C282 C305 1.391 . S
C283 C282 1.446 . S
C283 C284 1.339 . S
C283 H312 0.949 . S
C284 C283 1.339 . S
C284 C285 1.439 . S
C284 H313 0.950 . S
C285 N281 1.383 . S
C285 C284 1.439 . S
C285 C303 1.392 . S
N286 Co270 2.282 . S
N286 C289 1.332 . S
N286 C291 1.332 . S
C287 C288 1.386 . S
C287 C290 1.388 . S
C288 C287 1.386 . S
C288 C289 1.382 . S
C288 H314 0.950 . S
C289 N286 1.332 . S
C289 C288 1.382 . S
C289 H300 0.952 . S
C290 C287 1.388 . S
C290 C291 1.382 . S
C290 H315 0.950 . S
C291 N286 1.332 . S
C291 C290 1.382 . S
C291 H301 0.948 . S
N292 Co270 2.282 . S
N292 C296 1.332 . S
N292 C297 1.332 . S
C293 C294 1.388 . S
C293 C297 1.382 . S
C293 H316 0.950 . S
C294 C293 1.388 . S
C294 C295 1.386 . S
C295 C294 1.386 . S
C295 C296 1.382 . S
C295 H317 0.950 . S
C296 N292 1.332 . S
C296 C295 1.382 . S
C296 H298 0.952 . S
C297 N292 1.332 . S
C297 C293 1.382 . S
C297 H299 0.948 . S
H298 C296 0.952 . S
H299 C297 0.948 . S
H300 C289 0.952 . S
H301 C291 0.948 . S
C302 C268 1.395 . S
C302 C272 1.391 . S
C303 C265 1.389 . S
C303 C285 1.392 . S
C304 C275 1.392 . S
C304 C277 1.389 . S
C305 C280 1.395 . S
C305 C282 1.391 . S
H306 C266 0.951 . S
H307 C267 0.950 . S
H308 C273 0.949 . S
H309 C274 0.950 . S
H310 C278 0.951 . S
H311 C279 0.950 . S
H312 C283 0.949 . S
H313 C284 0.950 . S
H314 C288 0.950 . S
H315 C290 0.950 . S
H316 C293 0.950 . S
H317 C295 0.950 . S
H318 C324 0.930 . S
H319 C327 0.931 . S
H320 C329 0.931 . S
H321 C331 0.930 . S
H322 C333 0.930 . S
H323 C335 0.931 . S
C324 H318 0.930 . S
C324 C325 1.380 . S
C324 C326 1.394 . S
C325 C324 1.380 . S
C325 C329 1.382 . S
C326 C324 1.394 . S
C326 C327 1.400 . S
C327 H319 0.931 . S
C327 C326 1.400 . S
C327 C328 1.375 . S
C328 C327 1.375 . S
C328 C329 1.415 . S
C328 C330 1.501 . S
C329 H320 0.931 . S
C329 C325 1.382 . S
C329 C328 1.415 . S
C330 C328 1.501 . S
C330 C331 1.384 . S
C330 C335 1.408 . S
C331 H321 0.930 . S
C331 C330 1.384 . S
C331 C332 1.389 . S
C332 C331 1.389 . S
C332 C333 1.405 . S
C333 H322 0.930 . S
C333 C332 1.405 . S
C333 C334 1.364 . S
C334 C333 1.364 . S
C334 C335 1.400 . S
C335 H323 0.931 . S
C335 C330 1.408 . S
C335 C334 1.400 . S
H336 C342 0.930 . S
H337 C345 0.931 . S
H338 C347 0.931 . S
H339 C349 0.930 . S
H340 C351 0.930 . S
H341 C353 0.931 . S
C342 H336 0.930 . S
C342 C343 1.380 . S
C342 C344 1.394 . S
C343 C342 1.380 . S
C343 C347 1.382 . S
C344 C342 1.394 . S
C344 C345 1.400 . S
C345 H337 0.931 . S
C345 C344 1.400 . S
C345 C346 1.375 . S
C346 C345 1.375 . S
C346 C347 1.415 . S
C346 C348 1.501 . S
C347 H338 0.931 . S
C347 C343 1.382 . S
C347 C346 1.415 . S
C348 C346 1.501 . S
C348 C349 1.384 . S
C348 C353 1.408 . S
C349 H339 0.930 . S
C349 C348 1.384 . S
C349 C350 1.389 . S
C350 C349 1.389 . S
C350 C351 1.405 . S
C351 H340 0.930 . S
C351 C350 1.405 . S
C351 C352 1.364 . S
C352 C351 1.364 . S
C352 C353 1.400 . S
C353 H341 0.931 . S
C353 C348 1.408 . S
C353 C352 1.400 . S
H354 C360 0.930 . S
H355 C363 0.931 . S
H356 C365 0.931 . S
H357 C367 0.930 . S
H358 C369 0.930 . S
H359 C371 0.931 . S
C360 H354 0.930 . S
C360 C361 1.380 . S
C360 C362 1.394 . S
C361 C360 1.380 . S
C361 C365 1.382 . S
C362 C360 1.394 . S
C362 C363 1.400 . S
C363 H355 0.931 . S
C363 C362 1.400 . S
C363 C364 1.375 . S
C364 C363 1.375 . S
C364 C365 1.415 . S
C364 C366 1.501 . S
C365 H356 0.931 . S
C365 C361 1.382 . S
C365 C364 1.415 . S
C366 C364 1.501 . S
C366 C367 1.384 . S
C366 C371 1.408 . S
C367 H357 0.930 . S
C367 C366 1.384 . S
C367 C368 1.389 . S
C368 C367 1.389 . S
C368 C369 1.405 . S
C369 H358 0.930 . S
C369 C368 1.405 . S
C369 C370 1.364 . S
C370 C369 1.364 . S
C370 C371 1.400 . S
C371 H359 0.931 . S
C371 C366 1.408 . S
C371 C370 1.400 . S
H372 C378 0.930 . S
H373 C381 0.931 . S
H374 C383 0.931 . S
H375 C385 0.930 . S
H376 C387 0.930 . S
H377 C389 0.931 . S
C378 H372 0.930 . S
C378 C379 1.380 . S
C378 C380 1.394 . S
C379 C378 1.380 . S
C379 C383 1.382 . S
C380 C378 1.394 . S
C380 C381 1.400 . S
C381 H373 0.931 . S
C381 C380 1.400 . S
C381 C382 1.375 . S
C382 C381 1.375 . S
C382 C383 1.415 . S
C382 C384 1.501 . S
C383 H374 0.931 . S
C383 C379 1.382 . S
C383 C382 1.415 . S
C384 C382 1.501 . S
C384 C385 1.384 . S
C384 C389 1.408 . S
C385 H375 0.930 . S
C385 C384 1.384 . S
C385 C386 1.389 . S
C386 C385 1.389 . S
C386 C387 1.405 . S
C387 H376 0.930 . S
C387 C386 1.405 . S
C387 C388 1.364 . S
C388 C387 1.364 . S
C388 C389 1.400 . S
C389 H377 0.931 . S
C389 C384 1.408 . S
C389 C388 1.400 . S
H390 C396 0.930 . S
H391 C399 0.931 . S
H392 C401 0.931 . S
H393 C403 0.930 . S
H394 C405 0.930 . S
H395 C407 0.931 . S
C396 H390 0.930 . S
C396 C397 1.380 . S
C396 C398 1.394 . S
C397 C396 1.380 . S
C397 C401 1.382 . S
C398 C396 1.394 . S
C398 C399 1.400 . S
C399 H391 0.931 . S
C399 C398 1.400 . S
C399 C400 1.375 . S
C400 C399 1.375 . S
C400 C401 1.415 . S
C400 C402 1.501 . S
C401 H392 0.931 . S
C401 C397 1.382 . S
C401 C400 1.415 . S
C402 C400 1.501 . S
C402 C403 1.384 . S
C402 C407 1.408 . S
C403 H393 0.930 . S
C403 C402 1.384 . S
C403 C404 1.389 . S
C404 C403 1.389 . S
C404 C405 1.405 . S
C405 H394 0.930 . S
C405 C404 1.405 . S
C405 C406 1.364 . S
C406 C405 1.364 . S
C406 C407 1.400 . S
C407 H395 0.931 . S
C407 C402 1.408 . S
C407 C406 1.400 . S
H408 C414 0.930 . S
H409 C417 0.931 . S
H410 C419 0.931 . S
H411 C421 0.930 . S
H412 C423 0.930 . S
H413 C425 0.931 . S
C414 H408 0.930 . S
C414 C415 1.380 . S
C414 C416 1.394 . S
C415 C414 1.380 . S
C415 C419 1.382 . S
C416 C414 1.394 . S
C416 C417 1.400 . S
C417 H409 0.931 . S
C417 C416 1.400 . S
C417 C418 1.375 . S
C418 C417 1.375 . S
C418 C419 1.415 . S
C418 C420 1.501 . S
C419 H410 0.931 . S
C419 C415 1.382 . S
C419 C418 1.415 . S
C420 C418 1.501 . S
C420 C421 1.384 . S
C420 C425 1.408 . S
C421 H411 0.930 . S
C421 C420 1.384 . S
C421 C422 1.389 . S
C422 C421 1.389 . S
C422 C423 1.405 . S
C423 H412 0.930 . S
C423 C422 1.405 . S
C423 C424 1.364 . S
C424 C423 1.364 . S
C424 C425 1.400 . S
C425 H413 0.931 . S
C425 C420 1.408 . S
C425 C424 1.400 . S
C426 C427 1.387 . S
C426 H430 0.950 . S
C426 C435 1.390 . S
C427 C426 1.387 . S
C427 C429 1.387 . S
H428 C435 0.950 . S
C429 C427 1.387 . S
C429 C431 1.390 . S
C429 H433 0.950 . S
H430 C426 0.950 . S
C431 C429 1.390 . S
C431 C432 1.387 . S
C431 H434 0.950 . S
C432 C431 1.387 . S
C432 C435 1.387 . S
H433 C429 0.950 . S
H434 C431 0.950 . S
C435 C426 1.390 . S
C435 H428 0.950 . S
C435 C432 1.387 . S
C436 C437 1.387 . S
C436 H440 0.950 . S
C436 C445 1.390 . S
C437 C436 1.387 . S
C437 C439 1.387 . S
H438 C445 0.950 . S
C439 C437 1.387 . S
C439 C441 1.390 . S
C439 H443 0.950 . S
H440 C436 0.950 . S
C441 C439 1.390 . S
C441 C442 1.387 . S
C441 H444 0.950 . S
C442 C441 1.387 . S
C442 C445 1.387 . S
H443 C439 0.950 . S
H444 C441 0.950 . S
C445 C436 1.390 . S
C445 H438 0.950 . S
C445 C442 1.387 . S
C446 C447 1.387 . S
C446 H450 0.950 . S
C446 C455 1.390 . S
C447 C446 1.387 . S
C447 C449 1.387 . S
H448 C455 0.950 . S
C449 C447 1.387 . S
C449 C451 1.390 . S
C449 H453 0.950 . S
H450 C446 0.950 . S
C451 C449 1.390 . S
C451 C452 1.387 . S
C451 H454 0.950 . S
C452 C451 1.387 . S
C452 C455 1.387 . S
H453 C449 0.950 . S
H454 C451 0.950 . S
C455 C446 1.390 . S
C455 H448 0.950 . S
C455 C452 1.387 . S
C456 C457 1.387 . S
C456 H460 0.950 . S
C456 C465 1.390 . S
C457 C456 1.387 . S
C457 C459 1.387 . S
H458 C465 0.950 . S
C459 C457 1.387 . S
C459 C461 1.390 . S
C459 H463 0.950 . S
H460 C456 0.950 . S
C461 C459 1.390 . S
C461 C462 1.387 . S
C461 H464 0.950 . S
C462 C461 1.387 . S
C462 C465 1.387 . S
H463 C459 0.950 . S
H464 C461 0.950 . S
C465 C456 1.390 . S
C465 H458 0.950 . S
C465 C462 1.387 . S
C466 C467 1.387 . S
C466 H470 0.950 . S
C466 C475 1.390 . S
C467 C466 1.387 . S
C467 C469 1.387 . S
H468 C475 0.950 . S
C469 C467 1.387 . S
C469 C471 1.390 . S
C469 H473 0.950 . S
H470 C466 0.950 . S
C471 C469 1.390 . S
C471 C472 1.387 . S
C471 H474 0.950 . S
C472 C471 1.387 . S
C472 C475 1.387 . S
H473 C469 0.950 . S
H474 C471 0.950 . S
C475 C466 1.390 . S
C475 H468 0.950 . S
C475 C472 1.387 . S
C476 C477 1.387 . S
C476 H480 0.950 . S
C476 C485 1.390 . S
C477 C476 1.387 . S
C477 C479 1.387 . S
H478 C485 0.950 . S
C479 C477 1.387 . S
C479 C481 1.390 . S
C479 H483 0.950 . S
H480 C476 0.950 . S
C481 C479 1.390 . S
C481 C482 1.387 . S
C481 H484 0.950 . S
C482 C481 1.387 . S
C482 C485 1.387 . S
H483 C479 0.950 . S
H484 C481 0.950 . S
C485 C476 1.390 . S
C485 H478 0.950 . S
C485 C482 1.387 . S
C486 C487 1.387 . S
C486 H490 0.950 . S
C486 C495 1.390 . S
C487 C486 1.387 . S
C487 C489 1.387 . S
H488 C495 0.950 . S
C489 C487 1.387 . S
C489 C491 1.390 . S
C489 H493 0.950 . S
H490 C486 0.950 . S
C491 C489 1.390 . S
C491 C492 1.387 . S
C491 H494 0.950 . S
C492 C491 1.387 . S
C492 C495 1.387 . S
H493 C489 0.950 . S
H494 C491 0.950 . S
C495 C486 1.390 . S
C495 H488 0.950 . S
C495 C492 1.387 . S
C496 C497 1.387 . S
C496 H500 0.950 . S
C496 C505 1.390 . S
C497 C496 1.387 . S
C497 C499 1.387 . S
H498 C505 0.950 . S
C499 C497 1.387 . S
C499 C501 1.390 . S
C499 H503 0.950 . S
H500 C496 0.950 . S
C501 C499 1.390 . S
C501 C502 1.387 . S
C501 H504 0.950 . S
C502 C501 1.387 . S
C502 C505 1.387 . S
H503 C499 0.950 . S
H504 C501 0.950 . S
C505 C496 1.390 . S
C505 H498 0.950 . S
C505 C502 1.387 . S
C506 C507 1.387 . S
C506 H510 0.950 . S
C506 C515 1.390 . S
C507 C506 1.387 . S
C507 C509 1.387 . S
H508 C515 0.950 . S
C509 C507 1.387 . S
C509 C511 1.390 . S
C509 H513 0.950 . S
H510 C506 0.950 . S
C511 C509 1.390 . S
C511 C512 1.387 . S
C511 H514 0.950 . S
C512 C511 1.387 . S
C512 C515 1.387 . S
H513 C509 0.950 . S
H514 C511 0.950 . S
C515 C506 1.390 . S
C515 H508 0.950 . S
C515 C512 1.387 . S
C516 C517 1.387 . S
C516 H520 0.950 . S
C516 C525 1.390 . S
C517 C516 1.387 . S
C517 C519 1.387 . S
H518 C525 0.950 . S
C519 C517 1.387 . S
C519 C521 1.390 . S
C519 H523 0.950 . S
H520 C516 0.950 . S
C521 C519 1.390 . S
C521 C522 1.387 . S
C521 H524 0.950 . S
C522 C521 1.387 . S
C522 C525 1.387 . S
H523 C519 0.950 . S
H524 C521 0.950 . S
C525 C516 1.390 . S
C525 H518 0.950 . S
C525 C522 1.387 . S
C526 C527 1.387 . S
C526 H530 0.950 . S
C526 C535 1.390 . S
C527 C526 1.387 . S
C527 C529 1.387 . S
H528 C535 0.950 . S
C529 C527 1.387 . S
C529 C531 1.390 . S
C529 H533 0.950 . S
H530 C526 0.950 . S
C531 C529 1.390 . S
C531 C532 1.387 . S
C531 H534 0.950 . S
C532 C531 1.387 . S
C532 C535 1.387 . S
H533 C529 0.950 . S
H534 C531 0.950 . S
C535 C526 1.390 . S
C535 H528 0.950 . S
C535 C532 1.387 . S
C536 C537 1.387 . S
C536 H540 0.950 . S
C536 C545 1.390 . S
C537 C536 1.387 . S
C537 C539 1.387 . S
H538 C545 0.950 . S
C539 C537 1.387 . S
C539 C541 1.390 . S
C539 H543 0.950 . S
H540 C536 0.950 . S
C541 C539 1.390 . S
C541 C542 1.387 . S
C541 H544 0.950 . S
C542 C541 1.387 . S
C542 C545 1.387 . S
H543 C539 0.950 . S
H544 C541 0.950 . S
C545 C536 1.390 . S
C545 H538 0.950 . S
C545 C542 1.387 . S
C546 C547 1.387 . S
C546 H550 0.950 . S
C546 C555 1.390 . S
C547 C546 1.387 . S
C547 C549 1.387 . S
H548 C555 0.950 . S
C549 C547 1.387 . S
C549 C551 1.390 . S
C549 H553 0.950 . S
H550 C546 0.950 . S
C551 C549 1.390 . S
C551 C552 1.387 . S
C551 H554 0.950 . S
C552 C551 1.387 . S
C552 C555 1.387 . S
H553 C549 0.950 . S
H554 C551 0.950 . S
C555 C546 1.390 . S
C555 H548 0.950 . S
C555 C552 1.387 . S
C556 C557 1.387 . S
C556 H560 0.950 . S
C556 C565 1.390 . S
C557 C556 1.387 . S
C557 C559 1.387 . S
H558 C565 0.950 . S
C559 C557 1.387 . S
C559 C561 1.390 . S
C559 H563 0.950 . S
H560 C556 0.950 . S
C561 C559 1.390 . S
C561 C562 1.387 . S
C561 H564 0.950 . S
C562 C561 1.387 . S
C562 C565 1.387 . S
H563 C559 0.950 . S
H564 C561 0.950 . S
C565 C556 1.390 . S
C565 H558 0.950 . S
C565 C562 1.387 . S
C566 C567 1.387 . S
C566 H570 0.950 . S
C566 C575 1.390 . S
C567 C566 1.387 . S
C567 C569 1.387 . S
H568 C575 0.950 . S
C569 C567 1.387 . S
C569 C571 1.390 . S
C569 H573 0.950 . S
H570 C566 0.950 . S
C571 C569 1.390 . S
C571 C572 1.387 . S
C571 H574 0.950 . S
C572 C571 1.387 . S
C572 C575 1.387 . S
H573 C569 0.950 . S
H574 C571 0.950 . S
C575 C566 1.390 . S
C575 H568 0.950 . S
C575 C572 1.387 . S
C576 C577 1.387 . S
C576 H580 0.950 . S
C576 C585 1.390 . S
C577 C576 1.387 . S
C577 C579 1.387 . S
H578 C585 0.950 . S
C579 C577 1.387 . S
C579 C581 1.390 . S
C579 H583 0.950 . S
H580 C576 0.950 . S
C581 C579 1.390 . S
C581 C582 1.387 . S
C581 H584 0.950 . S
C582 C581 1.387 . S
C582 C585 1.387 . S
H583 C579 0.950 . S
H584 C581 0.950 . S
C585 C576 1.390 . S
C585 H578 0.950 . S
C585 C582 1.387 . S
C586 C587 1.387 . S
C586 H590 0.950 . S
C586 C595 1.390 . S
C587 C586 1.387 . S
C587 C589 1.387 . S
H588 C595 0.950 . S
C589 C587 1.387 . S
C589 C591 1.390 . S
C589 H593 0.950 . S
H590 C586 0.950 . S
C591 C589 1.390 . S
C591 C592 1.387 . S
C591 H594 0.950 . S
C592 C591 1.387 . S
C592 C595 1.387 . S
H593 C589 0.950 . S
H594 C591 0.950 . S
C595 C586 1.390 . S
C595 H588 0.950 . S
C595 C592 1.387 . S
C596 C597 1.387 . S
C596 H600 0.950 . S
C596 C605 1.390 . S
C597 C596 1.387 . S
C597 C599 1.387 . S
H598 C605 0.950 . S
C599 C597 1.387 . S
C599 C601 1.390 . S
C599 H603 0.950 . S
H600 C596 0.950 . S
C601 C599 1.390 . S
C601 C602 1.387 . S
C601 H604 0.950 . S
C602 C601 1.387 . S
C602 C605 1.387 . S
H603 C599 0.950 . S
H604 C601 0.950 . S
C605 C596 1.390 . S
C605 H598 0.950 . S
C605 C602 1.387 . S
C606 C607 1.387 . S
C606 H610 0.950 . S
C606 C615 1.390 . S
C607 C606 1.387 . S
C607 C609 1.387 . S
H608 C615 0.950 . S
C609 C607 1.387 . S
C609 C611 1.390 . S
C609 H613 0.950 . S
H610 C606 0.950 . S
C611 C609 1.390 . S
C611 C612 1.387 . S
C611 H614 0.950 . S
C612 C611 1.387 . S
C612 C615 1.387 . S
H613 C609 0.950 . S
H614 C611 0.950 . S
C615 C606 1.390 . S
C615 H608 0.950 . S
C615 C612 1.387 . S
C616 C617 1.387 . S
C616 H620 0.950 . S
C616 C625 1.390 . S
C617 C616 1.387 . S
C617 C619 1.387 . S
H618 C625 0.950 . S
C619 C617 1.387 . S
C619 C621 1.390 . S
C619 H623 0.950 . S
H620 C616 0.950 . S
C621 C619 1.390 . S
C621 C622 1.387 . S
C621 H624 0.950 . S
C622 C621 1.387 . S
C622 C625 1.387 . S
H623 C619 0.950 . S
H624 C621 0.950 . S
C625 C616 1.390 . S
C625 H618 0.950 . S
C625 C622 1.387 . S
C626 C627 1.387 . S
C626 H630 0.950 . S
C626 C635 1.390 . S
C627 C626 1.387 . S
C627 C629 1.387 . S
H628 C635 0.950 . S
C629 C627 1.387 . S
C629 C631 1.390 . S
C629 H633 0.950 . S
H630 C626 0.950 . S
C631 C629 1.390 . S
C631 C632 1.387 . S
C631 H634 0.950 . S
C632 C631 1.387 . S
C632 C635 1.387 . S
H633 C629 0.950 . S
H634 C631 0.950 . S
C635 C626 1.390 . S
C635 H628 0.950 . S
C635 C632 1.387 . S
C636 C637 1.387 . S
C636 H640 0.950 . S
C636 C645 1.390 . S
C637 C636 1.387 . S
C637 C639 1.387 . S
H638 C645 0.950 . S
C639 C637 1.387 . S
C639 C641 1.390 . S
C639 H643 0.950 . S
H640 C636 0.950 . S
C641 C639 1.390 . S
C641 C642 1.387 . S
C641 H644 0.950 . S
C642 C641 1.387 . S
C642 C645 1.387 . S
H643 C639 0.950 . S
H644 C641 0.950 . S
C645 C636 1.390 . S
C645 H638 0.950 . S
C645 C642 1.387 . S
C646 C647 1.387 . S
C646 H650 0.950 . S
C646 C655 1.390 . S
C647 C646 1.387 . S
C647 C649 1.387 . S
H648 C655 0.950 . S
C649 C647 1.387 . S
C649 C651 1.390 . S
C649 H653 0.950 . S
H650 C646 0.950 . S
C651 C649 1.390 . S
C651 C652 1.387 . S
C651 H654 0.950 . S
C652 C651 1.387 . S
C652 C655 1.387 . S
H653 C649 0.950 . S
H654 C651 0.950 . S
C655 C646 1.390 . S
C655 H648 0.950 . S
C655 C652 1.387 . S
C656 C657 1.387 . S
C656 H660 0.950 . S
C656 C665 1.390 . S
C657 C656 1.387 . S
C657 C659 1.387 . S
H658 C665 0.950 . S
C659 C657 1.387 . S
C659 C661 1.390 . S
C659 H663 0.950 . S
H660 C656 0.950 . S
C661 C659 1.390 . S
C661 C662 1.387 . S
C661 H664 0.950 . S
C662 C661 1.387 . S
C662 C665 1.387 . S
H663 C659 0.950 . S
H664 C661 0.950 . S
C665 C656 1.390 . S
C665 H658 0.950 . S
C665 C662 1.387 . S
C427 C39 1.682 . S
C432 C332 1.571 . S
C437 C91 1.630 . S
C442 C343 1.561 . S
C452 C362 1.441 . S
C447 C128 1.488 . S
C462 C379 1.420 . S
C457 C188 1.451 . S
C472 C406 1.503 . S
C467 C250 1.532 . S
C482 C415 1.557 . S
C477 C304 1.643 . S
C487 C75 1.572 . S
C492 C368 1.471 . S
C497 C144 1.678 . S
C502 C388 1.580 . S
C512 C397 1.527 . S
C507 C198 1.612 . S
C522 C424 1.431 . S
C517 C234 1.479 . S
C527 C294 1.434 . S
C532 C326 1.402 . S
C542 C352 1.433 . S
C537 C29 1.473 . S
C552 C380 1.608 . S
C547 C38 1.731 . S
C557 C92 1.675 . S
C562 C404 1.596 . S
C572 C416 1.478 . S
C567 C135 1.543 . S
C577 C181 1.501 . S
C582 C334 1.436 . S
C587 C251 1.582 . S
C592 C344 1.537 . S
C597 C303 1.706 . S
C602 C361 1.580 . S
C607 C82 1.629 . S
C612 C422 1.518 . S
C622 C325 1.590 . S
C617 C145 1.726 . S
C627 C197 1.663 . S
C632 C350 1.570 . S
C637 C241 1.535 . S
C642 C370 1.434 . S
C647 C287 1.482 . S
C652 C386 1.441 . S
C657 C22 1.516 . S
C662 C398 1.462 . S
