# Generated by pormake.
# Topology pyr, (3,6)-cn, num edge types: 1
# Building blocks:
#     Node 0, Type 0, BuildingBlock: ESEHIV_clean_linker_0, # of connection points: 3
#     Node 1, Type 0, BuildingBlock: ESEHIV_clean_linker_0, # of connection points: 3
#     Node 2, Type 0, BuildingBlock: ESEHIV_clean_linker_0, # of connection points: 3
#     Node 3, Type 0, BuildingBlock: ESEHIV_clean_linker_0, # of connection points: 3
#     Node 4, Type 0, BuildingBlock: ESEHIV_clean_linker_0, # of connection points: 3
#     Node 5, Type 0, BuildingBlock: ESEHIV_clean_linker_0, # of connection points: 3
#     Node 6, Type 0, BuildingBlock: ESEHIV_clean_linker_0, # of connection points: 3
#     Node 7, Type 0, BuildingBlock: ESEHIV_clean_linker_0, # of connection points: 3
#     Node 8, Type 1, BuildingBlock: GEDQOX_clean_sbu_0, # of connection points: 6
#     Node 9, Type 1, BuildingBlock: GEDQOX_clean_sbu_0, # of connection points: 6
#     Node 10, Type 1, BuildingBlock: GEDQOX_clean_sbu_0, # of connection points: 6
#     Node 11, Type 1, BuildingBlock: GEDQOX_clean_sbu_0, # of connection points: 6
#     Edge 12, Type (0, 1), BuildingBlock: XUDNAN_clean_linker_2, # of connection points: 2
#     Edge 13, Type (0, 1), BuildingBlock: XUDNAN_clean_linker_2, # of connection points: 2
#     Edge 14, Type (0, 1), BuildingBlock: XUDNAN_clean_linker_2, # of connection points: 2
#     Edge 15, Type (0, 1), BuildingBlock: XUDNAN_clean_linker_2, # of connection points: 2
#     Edge 16, Type (0, 1), BuildingBlock: XUDNAN_clean_linker_2, # of connection points: 2
#     Edge 17, Type (0, 1), BuildingBlock: XUDNAN_clean_linker_2, # of connection points: 2
#     Edge 18, Type (0, 1), BuildingBlock: XUDNAN_clean_linker_2, # of connection points: 2
#     Edge 19, Type (0, 1), BuildingBlock: XUDNAN_clean_linker_2, # of connection points: 2
#     Edge 20, Type (0, 1), BuildingBlock: XUDNAN_clean_linker_2, # of connection points: 2
#     Edge 21, Type (0, 1), BuildingBlock: XUDNAN_clean_linker_2, # of connection points: 2
#     Edge 22, Type (0, 1), BuildingBlock: XUDNAN_clean_linker_2, # of connection points: 2
#     Edge 23, Type (0, 1), BuildingBlock: XUDNAN_clean_linker_2, # of connection points: 2
#     Edge 24, Type (0, 1), BuildingBlock: XUDNAN_clean_linker_2, # of connection points: 2
#     Edge 25, Type (0, 1), BuildingBlock: XUDNAN_clean_linker_2, # of connection points: 2
#     Edge 26, Type (0, 1), BuildingBlock: XUDNAN_clean_linker_2, # of connection points: 2
#     Edge 27, Type (0, 1), BuildingBlock: XUDNAN_clean_linker_2, # of connection points: 2
#     Edge 28, Type (0, 1), BuildingBlock: XUDNAN_clean_linker_2, # of connection points: 2
#     Edge 29, Type (0, 1), BuildingBlock: XUDNAN_clean_linker_2, # of connection points: 2
#     Edge 30, Type (0, 1), BuildingBlock: XUDNAN_clean_linker_2, # of connection points: 2
#     Edge 31, Type (0, 1), BuildingBlock: XUDNAN_clean_linker_2, # of connection points: 2
#     Edge 32, Type (0, 1), BuildingBlock: XUDNAN_clean_linker_2, # of connection points: 2
#     Edge 33, Type (0, 1), BuildingBlock: XUDNAN_clean_linker_2, # of connection points: 2
#     Edge 34, Type (0, 1), BuildingBlock: XUDNAN_clean_linker_2, # of connection points: 2
#     Edge 35, Type (0, 1), BuildingBlock: XUDNAN_clean_linker_2, # of connection points: 2
# Relax obj value: 0.139
# Max RMSD: 0.166
# Mean RMSD: 0.067
data_MOF--net-pyr--node1-GEDQOX_clean_sbu_0--node2-ESEHIV_clean_linker_0--edge1-XUDNAN_clean_linker_2
_symmetry_space_group_name_H-M    P1
_symmetry_Int_Tables_number       1
_symmetry_cell_setting            triclinic
loop_
_symmetry_equiv_pos_as_xyz
'x, y, z'
_cell_length_a     37.95908
_cell_length_b     38.075443
_cell_length_c     33.497621
_cell_angle_alpha  88.884458
_cell_angle_beta   92.28108
_cell_angle_gamma 86.985617
loop_
_atom_site_label
_atom_site_type_symbol
_atom_site_fract_x
_atom_site_fract_y
_atom_site_fract_z
_atom_type_partial_charge
H0 H 0.15381 0.21772 0.1917 0.0
H1 H 0.23273 0.1327 0.20684 0.0
H2 H 0.24149 0.21079 0.11272 0.0
C3 C 0.1782 0.20498 0.18272 0.0
C4 C 0.19498 0.21959 0.14896 0.0
C5 C 0.19132 0.17386 0.20482 0.0
C6 C 0.22283 0.15633 0.1908 0.0
C7 C 0.24206 0.16886 0.15727 0.0
C8 C 0.22709 0.20052 0.13712 0.0
H9 H 0.3718 0.83794 0.77669 0.0
H10 H 0.46579 0.79427 0.72581 0.0
H11 H 0.36458 0.7729 0.67311 0.0
C12 C 0.3838 0.8216 0.75434 0.0
C13 C 0.36279 0.80664 0.72427 0.0
C14 C 0.42076 0.81812 0.75431 0.0
C15 C 0.43723 0.79657 0.72619 0.0
C16 C 0.41677 0.77922 0.69759 0.0
C17 C 0.3798 0.7849 0.69656 0.0
H18 H 0.77449 0.40251 0.89672 0.0
H19 H 0.77497 0.45934 0.78386 0.0
H20 H 0.70024 0.38035 0.8019 0.0
C21 C 0.76386 0.40775 0.86656 0.0
C22 C 0.73607 0.38823 0.85201 0.0
C23 C 0.77847 0.43331 0.84226 0.0
C24 C 0.76384 0.44011 0.80329 0.0
C25 C 0.73581 0.42076 0.78862 0.0
C26 C 0.72216 0.39499 0.81312 0.0
H27 H 0.81026 0.87023 0.36847 0.0
H28 H 0.84627 0.87919 0.2487 0.0
H29 H 0.79411 0.78755 0.28624 0.0
C30 C 0.81188 0.86056 0.3384 0.0
C31 C 0.79676 0.82868 0.3291 0.0
C32 C 0.83115 0.8784 0.31004 0.0
C33 C 0.83282 0.86497 0.27133 0.0
C34 C 0.82141 0.8313 0.2629 0.0
C35 C 0.80219 0.81397 0.29155 0.0
H36 H 0.83683 0.91895 0.82456 0.0
H37 H 0.92019 0.83849 0.83284 0.0
H38 H 0.83331 0.83328 0.91228 0.0
C39 C 0.84838 0.89514 0.83896 0.0
C40 C 0.83039 0.87947 0.87183 0.0
C41 C 0.88038 0.88023 0.82337 0.0
C42 C 0.89512 0.84892 0.84297 0.0
C43 C 0.87902 0.83019 0.87438 0.0
C44 C 0.84669 0.8467 0.88899 0.0
H45 H 0.62225 0.24328 0.27216 0.0
H46 H 0.73068 0.20587 0.26474 0.0
H47 H 0.70383 0.29063 0.34222 0.0
C48 C 0.64989 0.24528 0.28071 0.0
C49 C 0.66015 0.27117 0.30768 0.0
C50 C 0.67526 0.22115 0.26578 0.0
C51 C 0.71106 0.22391 0.27693 0.0
C52 C 0.72169 0.24924 0.30411 0.0
C53 C 0.69602 0.27249 0.31939 0.0
H54 H 0.27277 0.68822 0.17744 0.0
H55 H 0.2902 0.59706 0.25487 0.0
H56 H 0.33867 0.69329 0.28394 0.0
C57 C 0.28392 0.6761 0.20496 0.0
C58 C 0.30709 0.69468 0.22926 0.0
C59 C 0.27677 0.64114 0.21462 0.0
C60 C 0.29435 0.62443 0.24829 0.0
C61 C 0.31783 0.64265 0.27284 0.0
C62 C 0.3222 0.67832 0.26417 0.0
H63 H 0.19941 0.165 0.80364 0.0
H64 H 0.28125 0.15829 0.71799 0.0
H65 H 0.27929 0.24056 0.80309 0.0
C66 C 0.22386 0.17376 0.79235 0.0
C67 C 0.23835 0.20381 0.80869 0.0
C68 C 0.23885 0.15708 0.75932 0.0
C69 C 0.26971 0.17014 0.74389 0.0
C70 C 0.2838 0.20065 0.7591 0.0
C71 C 0.26886 0.21636 0.79237 0.0
Nd72 Nd 0.05808 0.998 0.50798 0.0
Nd73 Nd 1.01842 0.06069 0.52755 0.0
C74 C 0.08265 0.93268 0.49801 0.0
C75 C 0.09769 0.90671 0.52797 0.0
C76 C 0.12788 0.88581 0.51947 0.0
C77 C 0.14823 0.86864 0.55047 0.0
C78 C 0.13874 0.87241 0.59039 0.0
C79 C 0.10681 0.89075 0.59834 0.0
C80 C 0.08654 0.90785 0.56743 0.0
C81 C 0.09287 0.03712 0.56375 0.0
C82 C 1.00198 0.99412 0.58573 0.0
C83 C 0.99665 0.12639 0.54023 0.0
C84 C 0.98265 0.15377 0.51168 0.0
C85 C 0.98478 0.14783 0.47062 0.0
C86 C 0.96475 0.16909 0.443 0.0
C87 C 0.94222 0.19655 0.45603 0.0
C88 C 0.94218 0.20419 0.49692 0.0
C89 C 0.96219 0.18271 0.52469 0.0
C90 C 0.98288 0.02164 0.4727 0.0
C91 C 0.0726 0.06398 0.44768 0.0
O92 O 0.04891 0.94135 0.4996 0.0
O93 O 0.10159 0.95998 0.49342 0.0
O94 O 0.10778 0.02322 0.53342 0.0
O95 O 0.06088 0.03039 0.56403 0.0
O96 O 1.019 0.97717 0.55692 0.0
O97 O 1.00134 0.02902 0.58441 0.0
O98 O 1.03 0.1165 0.53752 0.0
O99 O 0.97651 0.09981 0.54353 0.0
O100 O 0.96785 0.03736 0.50191 0.0
O101 O 1.01508 0.02772 0.47213 0.0
O102 O 0.05564 0.08123 0.47637 0.0
O103 O 0.07401 0.02905 0.45005 0.0
H104 H 0.13715 0.88493 0.48931 0.0
H105 H 0.17288 0.85492 0.54348 0.0
H106 H 0.09872 0.89382 0.62879 0.0
H107 H 0.06356 0.924 0.57492 0.0
H108 H 1.00005 0.12534 0.46002 0.0
H109 H 0.96523 0.16277 0.41162 0.0
H110 H 0.92469 0.22502 0.50765 0.0
H111 H 0.95997 0.18736 0.55632 0.0
Nd112 Nd 0.53415 1.00017 0.03888 0.0
Nd113 Nd 0.5369 0.04473 0.99097 0.0
C114 C 0.52848 0.94153 0.0817 0.0
C115 C 0.50007 0.92235 0.09887 0.0
C116 C 0.50405 0.88572 0.10265 0.0
C117 C 0.47702 0.86663 0.11767 0.0
C118 C 0.44554 0.88388 0.12946 0.0
C119 C 0.4415 0.92072 0.12531 0.0
C120 C 0.46858 0.93984 0.10999 0.0
C121 C 0.47586 0.04893 0.05673 0.0
C122 C 0.49691 0.98543 0.95388 0.0
C123 C 0.53956 0.1065 0.95343 0.0
C124 C 0.56463 0.13464 0.95205 0.0
C125 C 0.55402 0.16829 0.96483 0.0
C126 C 0.57734 0.19538 0.96448 0.0
C127 C 0.61162 0.18936 0.95097 0.0
C128 C 0.62239 0.15558 0.93851 0.0
C129 C 0.59915 0.12836 0.93921 0.0
C130 C 0.59517 0.99654 0.97197 0.0
C131 C 0.5817 0.0558 0.07156 0.0
O132 O 0.52873 0.9425 0.04288 0.0
O133 O 0.53518 0.97162 0.09729 0.0
O134 O 0.50154 0.03696 0.08057 0.0
O135 O 0.48341 0.03748 0.02193 0.0
O136 O 0.51565 0.97002 0.98339 0.0
O137 O 0.49502 1.01964 0.95251 0.0
O138 O 0.52465 0.10226 0.98732 0.0
O139 O 0.54847 0.07667 0.93729 0.0
O140 O 0.57019 1.01006 0.94802 0.0
O141 O 0.5875 1.00665 1.00733 0.0
O142 O 0.56047 0.07263 0.04539 0.0
O143 O 0.58222 0.02162 0.07118 0.0
H144 H 0.528 0.87184 0.09363 0.0
H145 H 0.48067 0.83823 0.11956 0.0
H146 H 0.41764 0.93475 0.13427 0.0
H147 H 0.46494 0.96819 0.10679 0.0
H148 H 0.52755 0.17367 0.97496 0.0
H149 H 0.5682 0.2213 0.9737 0.0
H150 H 0.64877 0.15026 0.92815 0.0
H151 H 0.6082 0.10255 0.92961 0.0
Nd152 Nd 0.50046 0.49408 0.53296 0.0
Nd153 Nd 0.56593 0.52924 0.50672 0.0
C154 C 0.4396 0.47147 0.55548 0.0
C155 C 0.42813 0.43817 0.57182 0.0
C156 C 0.39238 0.43095 0.56929 0.0
C157 C 0.38115 0.39958 0.58549 0.0
C158 C 0.40557 0.375 0.60459 0.0
C159 C 0.44157 0.38203 0.60614 0.0
C160 C 0.45276 0.41337 0.5898 0.0
C161 C 0.56155 0.47354 0.57561 0.0
C162 C 0.51146 0.57657 0.55464 0.0
C163 C 0.63011 0.54885 0.49279 0.0
C164 C 0.64688 0.58222 0.48667 0.0
C165 C 0.68334 0.58385 0.49385 0.0
C166 C 0.69984 0.61515 0.48648 0.0
C167 C 0.68005 0.64518 0.47162 0.0
C168 C 0.64333 0.64362 0.4654 0.0
C169 C 0.62684 0.61242 0.47306 0.0
C170 C 0.50609 0.54864 0.46122 0.0
C171 C 0.54903 0.45037 0.47414 0.0
O172 O 0.46073 0.48869 0.57887 0.0
O173 O 0.4493 0.47081 0.5185 0.0
O174 O 0.53772 0.45212 0.56502 0.0
O175 O 0.55231 0.50464 0.56506 0.0
O176 O 0.48853 0.55302 0.5446 0.0
O177 O 0.54539 0.57149 0.54863 0.0
O178 O 0.60747 0.54033 0.46461 0.0
O179 O 0.61938 0.54264 0.52874 0.0
O180 O 0.5311 0.5699 0.46875 0.0
O181 O 0.51449 0.51813 0.47467 0.0
O182 O 0.57363 0.4723 0.48435 0.0
O183 O 0.51625 0.45532 0.48521 0.0
H184 H 0.37312 0.44969 0.55507 0.0
H185 H 0.35331 0.39466 0.58324 0.0
H186 H 0.46096 0.36384 0.62098 0.0
H187 H 0.48057 0.41846 0.59174 0.0
H188 H 0.69913 0.56077 0.50451 0.0
H189 H 0.72822 0.61551 0.49116 0.0
H190 H 0.62743 0.66649 0.45436 0.0
H191 H 0.59854 0.61169 0.46779 0.0
Nd192 Nd 1.0132 0.52263 0.04076 0.0
Nd193 Nd 0.06702 0.53074 0.9823 0.0
C194 C 0.9559 0.52964 0.08266 0.0
C195 C 0.94072 0.56384 0.09513 0.0
C196 C 0.90907 0.56756 0.11519 0.0
C197 C 0.8967 0.60102 0.12735 0.0
C198 C 0.91543 0.63119 0.11858 0.0
C199 C 0.94628 0.62688 0.09694 0.0
C200 C 0.95934 0.59371 0.08691 0.0
C201 C 0.07381 0.5495 0.07153 0.0
C202 C 1.00855 0.59782 0.98119 0.0
C203 C 0.12733 0.52754 0.94597 0.0
C204 C 0.14777 0.49566 0.93361 0.0
C205 C 0.14358 0.48438 0.8941 0.0
C206 C 0.15288 0.44972 0.88459 0.0
C207 C 0.16721 0.42593 0.9142 0.0
C208 C 0.17561 0.43827 0.9524 0.0
C209 C 0.1657 0.47286 0.96219 0.0
C210 C 1.00616 0.50709 0.94943 0.0
C211 C 0.07004 0.4535 0.03784 0.0
O212 O 0.95466 0.52474 0.04409 0.0
O213 O 0.9871 0.52117 0.09883 0.0
O214 O 0.05741 0.52494 0.08881 0.0
O215 O 0.05843 0.55931 0.03888 0.0
O216 O 0.99205 0.57597 1.00498 0.0
O217 O 0.04111 0.58789 0.97095 0.0
O218 O 0.1255 0.53244 0.98445 0.0
O219 O 0.09677 0.53357 0.92698 0.0
O220 O 1.02564 0.5291 0.93188 0.0
O221 O 1.02012 0.49585 0.98256 0.0
O222 O 0.08536 0.47511 1.01269 0.0
O223 O 0.03848 0.46409 0.05101 0.0
H224 H 0.89447 0.54471 0.1222 0.0
H225 H 0.87307 0.60295 0.14436 0.0
H226 H 0.9611 0.64904 0.0881 0.0
H227 H 0.98464 0.59145 0.07329 0.0
H228 H 0.13043 0.50146 0.87126 0.0
H229 H 0.14701 0.44096 0.85459 0.0
H230 H 0.18704 0.42044 0.97558 0.0
H231 H 0.16971 0.48078 0.99285 0.0
H232 H 0.18281 0.10432 0.24089 0.0
H233 H 0.15634 0.21481 0.26021 0.0
H234 H 0.12484 0.19889 0.31988 0.0
H235 H 0.09921 0.07149 0.27513 0.0
H236 H 0.11906 0.03256 0.3001 0.0
H237 H 0.14002 0.05178 0.25816 0.0
H238 H 0.19737 0.05628 0.30128 0.0
H239 H 0.17657 0.03705 0.34333 0.0
H240 H 0.19598 0.07905 0.34792 0.0
H241 H 0.09463 0.17141 0.38039 0.0
H242 H 0.06996 0.13575 0.43359 0.0
H243 H 0.11369 0.04097 0.3804 0.0
C244 C 0.17054 0.12539 0.25754 0.0
C245 C 0.17244 0.1615 0.24354 0.0
C246 C 0.15537 0.18715 0.26781 0.0
C247 C 0.13728 0.17825 0.30272 0.0
C248 C 0.13557 0.143 0.31503 0.0
C249 C 0.15183 0.1168 0.29317 0.0
C250 C 0.14559 0.08085 0.31363 0.0
C251 C 0.12474 0.05779 0.28504 0.0
C252 C 0.18099 0.06219 0.32734 0.0
C253 C 0.12351 0.09092 0.3501 0.0
C254 C 0.11822 0.12712 0.35006 0.0
C255 C 0.09886 0.14308 0.3803 0.0
C256 C 0.08471 0.12223 0.41095 0.0
C257 C 0.08916 0.08482 0.41274 0.0
C258 C 0.1092 0.06925 0.38105 0.0
H259 H 0.4265 0.82043 0.83622 0.0
H260 H 0.45812 0.87162 0.7277 0.0
H261 H 0.4805 0.92053 0.76724 0.0
H262 H 0.39703 0.89524 0.88564 0.0
H263 H 0.41424 0.88168 0.93479 0.0
H264 H 0.40311 0.84912 0.8988 0.0
H265 H 0.46645 0.82029 0.90611 0.0
H266 H 0.47756 0.85226 0.94287 0.0
H267 H 0.50373 0.84695 0.89944 0.0
H268 H 0.49119 0.96737 0.81704 0.0
H269 H 0.50154 1.00417 0.87589 0.0
H270 H 0.46875 0.92049 0.95345 0.0
C271 C 0.43922 0.84144 0.82112 0.0
C272 C 0.44111 0.84225 0.77908 0.0
C273 C 0.45716 0.87036 0.75998 0.0
C274 C 0.46956 0.89835 0.78213 0.0
C275 C 0.46629 0.89742 0.82342 0.0
C276 C 0.45256 0.86921 0.84294 0.0
C277 C 0.45222 0.87485 0.88765 0.0
C278 C 0.4144 0.87524 0.90258 0.0
C279 C 0.47644 0.84693 0.91036 0.0
C280 C 0.46707 0.91098 0.89003 0.0
C281 C 0.47443 0.92373 0.85252 0.0
C282 C 0.48616 0.95743 0.84665 0.0
C283 C 0.49155 0.97829 0.88015 0.0
C284 C 0.48588 0.96509 0.91901 0.0
C285 C 0.47336 0.93107 0.92398 0.0
H286 H 0.70397 0.48111 0.75478 0.0
H287 H 0.73126 0.37171 0.73151 0.0
H288 H 0.69531 0.37626 0.66845 0.0
H289 H 0.61731 0.47984 0.72569 0.0
H290 H 0.61257 0.5229 0.70214 0.0
H291 H 0.64601 0.51381 0.74101 0.0
H292 H 0.69422 0.53293 0.69378 0.0
H293 H 0.66079 0.54254 0.65476 0.0
H294 H 0.69799 0.51275 0.64579 0.0
H295 H 0.64849 0.38866 0.61635 0.0
H296 H 0.59629 0.40977 0.57464 0.0
H297 H 0.59967 0.51214 0.62865 0.0
C298 C 0.70348 0.45869 0.73541 0.0
C299 C 0.72059 0.42617 0.74751 0.0
C300 C 0.71851 0.39687 0.72236 0.0
C301 C 0.69822 0.39925 0.68654 0.0
C302 C 0.68039 0.4312 0.67613 0.0
C303 C 0.68318 0.46064 0.6994 0.0
C304 C 0.65829 0.49062 0.68338 0.0
C305 C 0.632 0.50246 0.71493 0.0
C306 C 0.67907 0.52154 0.66854 0.0
C307 C 0.63991 0.47283 0.64883 0.0
C308 C 0.65339 0.43866 0.64501 0.0
C309 C 0.63833 0.41564 0.61825 0.0
C310 C 0.60859 0.42774 0.59491 0.0
C311 C 0.59441 0.46258 0.59826 0.0
C312 C 0.61064 0.48562 0.62498 0.0
H313 H 0.79169 0.77892 0.21771 0.0
H314 H 0.88735 0.83607 0.23403 0.0
H315 H 0.91808 0.79545 0.19053 0.0
H316 H 0.83186 0.69767 0.22789 0.0
H317 H 0.80592 0.67578 0.19065 0.0
H318 H 0.78738 0.71394 0.21462 0.0
H319 H 0.77409 0.74516 0.1459 0.0
H320 H 0.79197 0.70675 0.12152 0.0
H321 H 0.80911 0.74915 0.11155 0.0
H322 H 0.94285 0.74276 0.16169 0.0
H323 H 0.95888 0.68409 0.13913 0.0
H324 H 0.84813 0.65915 0.13527 0.0
C325 C 0.81878 0.78352 0.21117 0.0
C326 C 0.83667 0.81127 0.22925 0.0
C327 C 0.8723 0.81602 0.21994 0.0
C328 C 0.89034 0.79272 0.19539 0.0
C329 C 0.87257 0.76471 0.18001 0.0
C330 C 0.83743 0.76022 0.18668 0.0
C331 C 0.82606 0.72557 0.16988 0.0
C332 C 0.81199 0.70186 0.20273 0.0
C333 C 0.79869 0.73205 0.13514 0.0
C334 C 0.86094 0.71056 0.15514 0.0
C335 C 0.88716 0.73392 0.1611 0.0
C336 C 0.92235 0.72482 0.15494 0.0
C337 C 0.93111 0.69116 0.14166 0.0
C338 C 0.90475 0.66683 0.13342 0.0
C339 C 0.86906 0.67692 0.14047 0.0
H340 H 0.27823 0.16063 0.08105 0.0
H341 H 0.29257 0.13244 0.20708 0.0
H342 H 0.34831 0.10045 0.19364 0.0
H343 H 0.31743 0.0769 0.04316 0.0
H344 H 0.33988 0.09674 1.00276 0.0
H345 H 0.30022 0.11805 0.02081 0.0
H346 H 0.33334 0.1744 0.03336 0.0
H347 H 0.37308 0.15327 1.01528 0.0
H348 H 0.3734 0.17203 0.06427 0.0
H349 H 0.40524 0.07042 0.1681 0.0
H350 H 0.45645 0.04606 0.13382 0.0
H351 H 0.41206 0.08988 0.02109 0.0
C352 C 0.29292 0.14783 0.10609 0.0
C353 C 0.27857 0.14956 0.14581 0.0
C354 C 0.3004 0.13177 0.17641 0.0
C355 C 0.3331 0.11333 0.16901 0.0
C356 C 0.34581 0.11181 0.13026 0.0
C357 C 0.32645 0.12864 0.09904 0.0
C358 C 0.34715 0.12235 0.0602 0.0
C359 C 0.32483 0.10233 0.02991 0.0
C360 C 0.35733 0.15762 0.04218 0.0
C361 C 0.38085 0.09954 0.07445 0.0
C362 C 0.37903 0.09416 0.11528 0.0
C363 C 0.40645 0.07468 0.13616 0.0
C364 C 0.43609 0.06064 0.11586 0.0
C365 C 0.44009 0.06487 0.07384 0.0
C366 C 0.41105 0.08502 0.05294 0.0
H367 H 0.30929 0.77026 0.68625 0.0
H368 H 0.32746 0.86806 0.74746 0.0
H369 H 0.26677 0.88851 0.73107 0.0
H370 H 0.26971 0.81309 0.60407 0.0
H371 H 0.23869 0.78014 0.59247 0.0
H372 H 0.27982 0.76774 0.61869 0.0
H373 H 0.24598 0.74004 0.67607 0.0
H374 H 0.2046 0.75239 0.64991 0.0
H375 H 0.21261 0.76627 0.70046 0.0
H376 H 0.20789 0.90332 0.70027 0.0
H377 H 0.15783 0.91363 0.6519 0.0
H378 H 0.17993 0.81087 0.60201 0.0
C379 C 0.30088 0.7959 0.69669 0.0
C380 C 0.32409 0.81695 0.71889 0.0
C381 C 0.31074 0.85022 0.73194 0.0
C382 C 0.27597 0.86247 0.72244 0.0
C383 C 0.25466 0.8417 0.69911 0.0
C384 C 0.26667 0.80927 0.68599 0.0
C385 C 0.24081 0.79504 0.65543 0.0
C386 C 0.25831 0.78865 0.61531 0.0
C387 C 0.22506 0.76144 0.67144 0.0
C388 C 0.21323 0.82533 0.65215 0.0
C389 C 0.22117 0.85135 0.67875 0.0
C390 C 0.20101 0.88289 0.67981 0.0
C391 C 0.17251 0.88844 0.65227 0.0
C392 C 0.16477 0.86287 0.62349 0.0
C393 C 0.18505 0.83065 0.62399 0.0
H394 H 0.83515 0.40533 0.88813 0.0
H395 H 0.79293 0.50267 0.83054 0.0
H396 H 0.84544 0.53258 0.85523 0.0
H397 H 0.87202 0.44598 0.97749 0.0
H398 H 0.90996 0.4154 0.98126 0.0
H399 H 0.86869 0.40181 0.95982 0.0
H400 H 0.89993 0.38341 0.89549 0.0
H401 H 0.94125 0.39692 0.91669 0.0
H402 H 0.92456 0.41507 0.86911 0.0
H403 H 0.90343 0.55081 0.88262 0.0
H404 H 0.96345 0.55679 0.91148 0.0
H405 H 0.96654 0.44875 0.95559 0.0
C406 C 0.83649 0.43312 0.88128 0.0
C407 C 0.80974 0.45168 0.85742 0.0
C408 C 0.81319 0.48778 0.84832 0.0
C409 C 0.84275 0.50506 0.86253 0.0
C410 C 0.86841 0.48596 0.8861 0.0
C411 C 0.86552 0.45084 0.89561 0.0
C412 C 0.89725 0.43615 0.9207 0.0
C413 C 0.88632 0.42413 0.96229 0.0
C414 C 0.9169 0.40612 0.8992 0.0
C415 C 0.91885 0.46839 0.9232 0.0
C416 C 0.9016 0.4968 0.90302 0.0
C417 C 0.91699 0.52892 0.89888 0.0
C418 C 0.9511 0.53199 0.91525 0.0
C419 C 0.96933 0.50323 0.93583 0.0
C420 C 0.95281 0.47122 0.94053 0.0
H421 H 0.73686 0.79236 0.31996 0.0
H422 H 0.81879 0.81687 0.40751 0.0
H423 H 0.79391 0.77673 0.45642 0.0
H424 H 0.66554 0.78111 0.39065 0.0
H425 H 0.64851 0.74491 0.36337 0.0
H426 H 0.66983 0.77924 0.33731 0.0
H427 H 0.71338 0.73262 0.30819 0.0
H428 H 0.69236 0.69823 0.33422 0.0
H429 H 0.73915 0.70285 0.34173 0.0
H430 H 0.76456 0.72863 0.49281 0.0
H431 H 0.73165 0.67765 0.51447 0.0
H432 H 0.66966 0.68429 0.40271 0.0
C433 C 0.74916 0.78977 0.34968 0.0
C434 C 0.77951 0.80802 0.36006 0.0
C435 C 0.79505 0.80377 0.39915 0.0
C436 C 0.78122 0.78087 0.42708 0.0
C437 C 0.75177 0.76262 0.41551 0.0
C438 C 0.73575 0.76704 0.37783 0.0
C439 C 0.70608 0.74244 0.37175 0.0
C440 C 0.67037 0.76317 0.36541 0.0
C441 C 0.71319 0.71757 0.33693 0.0
C442 C 0.7085 0.72281 0.41151 0.0
C443 C 0.73483 0.73496 0.43649 0.0
C444 C 0.74351 0.71925 0.47377 0.0
C445 C 0.72487 0.69024 0.48571 0.0
C446 C 0.69795 0.67732 0.4604 0.0
C447 C 0.68953 0.69415 0.42307 0.0
H448 H 0.14198 0.27366 0.1715 0.0
H449 H 0.20906 0.24793 0.07285 0.0
H450 H 0.18538 0.30132 0.03701 0.0
H451 H 0.06561 0.30826 0.10848 0.0
H452 H 0.05314 0.34271 0.14212 0.0
H453 H 0.07569 0.30267 0.16134 0.0
H454 H 0.12401 0.33869 0.19462 0.0
H455 H 0.10161 0.37884 0.17552 0.0
H456 H 0.14717 0.36908 0.16466 0.0
H457 H 0.15344 0.36056 1.0093 0.0
H458 H 0.11801 0.41569 0.99437 0.0
H459 H 0.06812 0.40597 0.10779 0.0
C460 C 0.15194 0.27852 0.14226 0.0
C461 C 0.17877 0.25446 0.12646 0.0
C462 C 0.18978 0.26436 0.08764 0.0
C463 C 0.17594 0.29529 0.0663 0.0
C464 C 0.15006 0.31779 0.0828 0.0
C465 C 0.138 0.30967 0.12002 0.0
C466 C 0.10957 0.33843 0.13068 0.0
C467 C 0.07388 0.32204 0.13599 0.0
C468 C 0.12128 0.35738 0.16864 0.0
C469 C 0.10756 0.36404 0.09396 0.0
C470 C 0.1314 0.35137 0.06677 0.0
C471 C 0.13494 0.37023 0.03083 0.0
C472 C 0.11445 0.40221 0.02251 0.0
C473 C 0.08955 0.41682 0.04922 0.0
C474 C 0.08623 0.3965 0.08578 0.0
H475 H 0.72147 0.32222 0.82885 0.0
H476 H 0.71874 0.39079 0.93071 0.0
H477 H 0.69174 0.3444 0.97026 0.0
H478 H 0.6388 0.28863 0.84063 0.0
H479 H 0.65148 0.2449 0.82497 0.0
H480 H 0.67412 0.2819 0.80672 0.0
H481 H 0.73391 0.25243 0.83316 0.0
H482 H 0.71139 0.2153 0.85163 0.0
H483 H 0.73945 0.23903 0.88505 0.0
H484 H 0.65951 0.29275 0.99597 0.0
H485 H 0.62529 0.23988 1.00593 0.0
H486 H 0.64945 0.2061 0.88672 0.0
C487 C 0.71542 0.32739 0.85958 0.0
C488 C 0.72205 0.36002 0.87678 0.0
C489 C 0.7141 0.36576 0.91716 0.0
C490 C 0.69877 0.33963 0.93977 0.0
C491 C 0.69197 0.30792 0.92159 0.0
C492 C 0.70026 0.30169 0.88246 0.0
C493 C 0.68841 0.26642 0.86895 0.0
C494 C 0.66161 0.27075 0.83323 0.0
C495 C 0.72019 0.24185 0.85913 0.0
C496 C 0.67124 0.2541 0.90624 0.0
C497 C 0.67378 0.2782 0.93644 0.0
C498 C 0.65778 0.27347 0.97275 0.0
C499 C 0.6383 0.24355 0.97807 0.0
C500 C 0.63506 0.2189 0.94719 0.0
C501 C 0.65223 0.22409 0.91117 0.0
H502 H 0.82167 0.92859 0.36846 0.0
H503 H 0.89687 0.88997 0.2827 0.0
H504 H 0.94055 0.92861 0.30999 0.0
H505 H 0.85325 1.01986 0.37632 0.0
H506 H 0.84764 1.02028 0.42949 0.0
H507 H 0.81904 0.99541 0.3979 0.0
H508 H 0.83609 0.93936 0.44097 0.0
H509 H 0.86497 0.96389 0.47237 0.0
H510 H 0.88199 0.92507 0.44813 0.0
H511 H 0.97946 0.96364 0.35183 0.0
H512 H 1.01049 0.9948 0.40543 0.0
H513 H 0.91255 1.00865 0.46727 0.0
C514 C 0.84703 0.92868 0.35482 0.0
C515 C 0.85513 0.90637 0.32272 0.0
C516 C 0.88897 0.90748 0.30615 0.0
C517 C 0.91439 0.92921 0.32177 0.0
C518 C 0.90595 0.94967 0.35423 0.0
C519 C 0.87309 0.94984 0.37055 0.0
C520 C 0.87233 0.97126 0.40823 0.0
C521 C 0.84653 1.00363 0.40263 0.0
C522 C 0.86332 0.94853 0.44456 0.0
C523 C 0.91027 0.98185 0.41121 0.0
C524 C 0.92899 0.96954 0.37935 0.0
C525 C 0.965 0.97398 0.37659 0.0
C526 C 0.98242 0.99153 0.40724 0.0
C527 C 0.96382 1.00421 0.44024 0.0
C528 C 0.92726 0.99951 0.44209 0.0
H529 H 0.47013 0.72777 0.71006 0.0
H530 H 0.40053 0.77778 0.61734 0.0
H531 H 0.42055 0.73333 0.56963 0.0
H532 H 0.54289 0.70202 0.64182 0.0
H533 H 0.5533 0.66115 0.66884 0.0
H534 H 0.5363 0.69908 0.69475 0.0
H535 H 0.4858 0.66276 0.72071 0.0
H536 H 0.50233 0.62491 0.69455 0.0
H537 H 0.45731 0.64148 0.68542 0.0
H538 H 0.44075 0.67918 0.53515 0.0
H539 H 0.46568 0.62162 0.51343 0.0
H540 H 0.52614 0.60837 0.62567 0.0
C541 C 0.45991 0.72993 0.67941 0.0
C542 C 0.43339 0.75598 0.66761 0.0
C543 C 0.42033 0.75766 0.62733 0.0
C544 C 0.4317 0.73266 0.5999 0.0
C545 C 0.45673 0.70648 0.61288 0.0
C546 C 0.4713 0.70529 0.6514 0.0
C547 C 0.49671 0.67336 0.65793 0.0
C548 C 0.53455 0.68458 0.66633 0.0
C549 C 0.48481 0.64921 0.69164 0.0
C550 C 0.49309 0.65621 0.61756 0.0
C551 C 0.46983 0.67583 0.59207 0.0
C552 C 0.45966 0.66399 0.55443 0.0
C553 C 0.47372 0.63129 0.54244 0.0
C554 C 0.49799 0.61114 0.56776 0.0
C555 C 0.50812 0.62384 0.60558 0.0
H556 H 0.89262 0.95109 0.79256 0.0
H557 H 0.9087 0.8411 0.76302 0.0
H558 H 0.93975 0.85804 0.70339 0.0
H559 H 0.87901 0.98411 0.68748 0.0
H560 H 0.90236 0.02363 0.69489 0.0
H561 H 0.88074 1.0038 0.73598 0.0
H562 H 0.93943 1.00066 0.77776 0.0
H563 H 0.96122 1.02041 0.73676 0.0
H564 H 0.97802 0.97871 0.75803 0.0
H565 H 0.97119 0.88607 0.64495 0.0
H566 H 0.99816 0.92228 0.59401 0.0
H567 H 0.96415 1.01654 0.6556 0.0
C568 C 0.90243 0.93044 0.77354 0.0
C569 C 0.89786 0.89402 0.78453 0.0
C570 C 0.91177 0.86885 0.75744 0.0
C571 C 0.92961 0.87835 0.72267 0.0
C572 C 0.93418 0.91378 0.71335 0.0
C573 C 0.92087 0.93964 0.73789 0.0
C574 C 0.92996 0.97587 0.72015 0.0
C575 C 0.89599 0.99819 0.70898 0.0
C576 C 0.95355 0.99507 0.74996 0.0
C577 C 0.95029 0.96626 0.68223 0.0
C578 C 0.95223 0.93008 0.67922 0.0
C579 C 0.96958 0.91441 0.64735 0.0
C580 C 0.98514 0.93557 0.61808 0.0
C581 C 0.98407 0.97298 0.61933 0.0
C582 C 0.96598 0.98826 0.65263 0.0
H583 H 0.63019 0.22317 0.19901 0.0
H584 H 0.69672 0.15211 0.2759 0.0
H585 H 0.68157 0.10238 0.23351 0.0
H586 H 0.56138 0.16327 0.17906 0.0
H587 H 0.55379 0.17761 0.12769 0.0
H588 H 0.5699 0.20768 0.16413 0.0
H589 H 0.62333 0.21878 0.12058 0.0
H590 H 0.60749 0.18853 0.08416 0.0
H591 H 0.65152 0.18201 0.10612 0.0
H592 H 0.65879 0.06015 0.18345 0.0
H593 H 0.62903 0.02822 0.12926 0.0
H594 H 0.57818 0.12667 0.08411 0.0
C595 C 0.64134 0.19709 0.20696 0.0
C596 C 0.66476 0.19148 0.2406 0.0
C597 C 0.67906 0.15702 0.24996 0.0
C598 C 0.67056 0.1286 0.22614 0.0
C599 C 0.64779 0.13503 0.19292 0.0
C600 C 0.63334 0.16837 0.18325 0.0
C601 C 0.60961 0.16798 0.14581 0.0
C602 C 0.57141 0.17983 0.15472 0.0
C603 C 0.62385 0.19067 0.11218 0.0
C604 C 0.61278 0.12922 0.13625 0.0
C605 C 0.63496 0.11068 0.16376 0.0
C606 C 0.64145 0.07438 0.16161 0.0
C607 C 0.62449 0.05648 0.13073 0.0
C608 C 0.60142 0.07493 0.10242 0.0
C609 C 0.59585 0.11182 0.10514 0.0
H610 H 0.38595 0.65583 0.29689 0.0
H611 H 0.30131 0.5871 0.32237 0.0
H612 H 0.34041 0.55532 0.37321 0.0
H613 H 0.45745 0.59423 0.30929 0.0
H614 H 0.4864 0.62394 0.33364 0.0
H615 H 0.45197 0.64088 0.2989 0.0
H616 H 0.42716 0.68201 0.353 0.0
H617 H 0.4617 0.66543 0.38789 0.0
H618 H 0.41613 0.66357 0.40061 0.0
H619 H 0.39053 0.5289 0.41842 0.0
H620 H 0.44545 0.51349 0.4585 0.0
H621 H 0.4938 0.60425 0.40886 0.0
C622 C 0.37495 0.63475 0.31366 0.0
C623 C 0.34019 0.62423 0.30535 0.0
C624 C 0.32787 0.59551 0.32747 0.0
C625 C 0.34983 0.57742 0.35669 0.0
C626 C 0.38381 0.58871 0.36394 0.0
C627 C 0.39604 0.61708 0.34346 0.0
C628 C 0.43334 0.62449 0.35718 0.0
C629 C 0.45878 0.62064 0.3227 0.0
C630 C 0.43464 0.66104 0.37578 0.0
C631 C 0.44048 0.59553 0.38838 0.0
C632 C 0.41174 0.5749 0.39154 0.0
C633 C 0.41292 0.54525 0.41667 0.0
C634 C 0.44418 0.53667 0.43929 0.0
C635 C 0.47351 0.55797 0.43716 0.0
C636 C 0.47151 0.58785 0.41151 0.0
H637 H 0.26464 0.24342 0.8699 0.0
H638 H 0.16677 0.21797 0.80821 0.0
H639 H 0.1357 0.2669 0.84065 0.0
H640 H 0.22355 0.28361 0.96294 0.0
H641 H 0.25519 0.31729 0.96368 0.0
H642 H 0.2676 0.27394 0.9465 0.0
H643 H 0.28689 0.30161 0.88008 0.0
H644 H 0.2739 0.34481 0.89652 0.0
H645 H 0.25547 0.32907 0.8502 0.0
H646 H 0.11822 0.32531 0.86498 0.0
H647 H 0.11485 0.38773 0.88329 0.0
H648 H 0.2241 0.37869 0.92685 0.0
C649 C 0.23641 0.24737 0.86435 0.0
C650 C 0.21827 0.22652 0.83658 0.0
C651 C 0.18133 0.23274 0.83001 0.0
C652 C 0.16336 0.26079 0.84817 0.0
C653 C 0.18256 0.28237 0.873 0.0
C654 C 0.21821 0.27573 0.88169 0.0
C655 C 0.2338 0.30599 0.90395 0.0
C656 C 0.24573 0.29451 0.94682 0.0
C657 C 0.26429 0.32126 0.88131 0.0
C658 C 0.20194 0.33167 0.90379 0.0
C659 C 0.17248 0.31709 0.88669 0.0
C660 C 0.14084 0.33673 0.8793 0.0
C661 C 0.13931 0.37223 0.88933 0.0
C662 C 0.16929 0.38786 0.90624 0.0
C663 C 0.20074 0.36712 0.91442 0.0
H664 H 0.79693 0.89159 0.94932 0.0
H665 H 0.77593 0.90696 0.82174 0.0
H666 H 0.71861 0.93636 0.83468 0.0
H667 H 0.70369 0.87647 0.97439 0.0
H668 H 0.70482 0.90028 0.02037 0.0
H669 H 0.74485 0.87953 1.00254 0.0
H670 H 0.77451 0.93881 1.00497 0.0
H671 H 0.73455 0.95975 0.02274 0.0
H672 H 0.75383 0.97656 0.97841 0.0
H673 H 0.66126 0.96521 0.85981 0.0
H674 H 0.61056 0.99072 0.89389 0.0
H675 H 0.66193 0.96129 1.00867 0.0
C676 C 0.78031 0.90089 0.9239 0.0
C677 C 0.79301 0.89631 0.88372 0.0
C678 C 0.76896 0.90977 0.85257 0.0
C679 C 0.7355 0.92673 0.85974 0.0
C680 C 0.72434 0.93118 0.89885 0.0
C681 C 0.74597 0.91867 0.9307 0.0
C682 C 0.72663 0.92785 0.96981 0.0
C683 C 0.7196 0.89402 0.99319 0.0
C684 C 0.74871 0.95217 0.99553 0.0
C685 C 0.69111 0.94726 0.95494 0.0
C686 C 0.69088 0.94845 0.91362 0.0
C687 C 0.66165 0.96428 0.89214 0.0
C688 C 0.63232 0.97906 0.91235 0.0
C689 C 0.63037 0.97921 0.95487 0.0
C690 C 0.66119 0.96258 0.97636 0.0
H691 H 0.76733 0.19244 0.3219 0.0
H692 H 0.76009 0.30662 0.3225 0.0
H693 H 0.81884 0.30626 0.35698 0.0
H694 H 0.80586 0.17865 0.41537 0.0
H695 H 0.8346 0.14168 0.40273 0.0
H696 H 0.7939 0.15109 0.37436 0.0
H697 H 0.82808 0.15425 0.30901 0.0
H698 H 0.86898 0.14452 0.33721 0.0
H699 H 0.86377 0.18343 0.30556 0.0
H700 H 0.87464 0.29277 0.39972 0.0
H701 H 0.92481 0.26697 0.44244 0.0
H702 H 0.89644 0.16247 0.40895 0.0
C703 C 0.77848 0.21748 0.32791 0.0
C704 C 0.75896 0.24954 0.3195 0.0
C705 C 0.77431 0.28165 0.32911 0.0
C706 C 0.80778 0.28175 0.34843 0.0
C707 C 0.82584 0.24957 0.35725 0.0
C708 C 0.81193 0.21807 0.34666 0.0
C709 C 0.8356 0.18698 0.36139 0.0
C710 C 0.81634 0.16323 0.39017 0.0
C711 C 0.84996 0.16607 0.32618 0.0
C712 C 0.86447 0.20585 0.38299 0.0
C713 C 0.85854 0.24195 0.38032 0.0
C714 C 0.88007 0.26457 0.40118 0.0
C715 C 0.90833 0.2498 0.42541 0.0
C716 C 0.91479 0.21289 0.4281 0.0
C717 C 0.89274 0.19084 0.4063 0.0
H718 H 0.21442 0.66669 0.17771 0.0
H719 H 0.28294 0.57191 0.19234 0.0
H720 H 0.24031 0.53951 0.15194 0.0
H721 H 0.13405 0.62715 0.18459 0.0
H722 H 0.11061 0.65478 0.14695 0.0
H723 H 0.14753 0.67111 0.17489 0.0
H724 H 0.17789 0.68495 0.10889 0.0
H725 H 0.141 0.66861 0.08068 0.0
H726 H 0.18507 0.65055 0.07342 0.0
H727 H 0.18795 0.51609 0.11614 0.0
H728 H 0.12966 0.50368 0.08555 0.0
H729 H 0.09711 0.61429 0.08899 0.0
C730 C 0.22089 0.63931 0.17177 0.0
C731 C 0.252 0.62185 0.18857 0.0
C732 C 0.25901 0.58578 0.1806 0.0
C733 C 0.23514 0.56721 0.15726 0.0
C734 C 0.20464 0.58518 0.14153 0.0
C735 C 0.19758 0.62049 0.14812 0.0
C736 C 0.16218 0.63323 0.1291 0.0
C737 C 0.13712 0.64738 0.16078 0.0
C738 C 0.16683 0.66098 0.09605 0.0
C739 C 0.14995 0.59929 0.11178 0.0
C740 C 0.17496 0.57192 0.1192 0.0
C741 C 0.16851 0.5374 0.10937 0.0
C742 C 0.13543 0.53059 0.09211 0.0
C743 C 0.10956 0.55821 0.0844 0.0
C744 C 0.11705 0.59304 0.0936 0.0
H745 H 0.27806 0.27003 0.73899 0.0
H746 H 0.34492 0.17555 0.72462 0.0
H747 H 0.38411 0.20962 0.68257 0.0
H748 H 0.28362 0.30443 0.64097 0.0
H749 H 0.28377 0.34954 0.6563 0.0
H750 H 0.262 0.31771 0.68563 0.0
H751 H 0.29985 0.33299 0.74847 0.0
H752 H 0.32147 0.36516 0.71946 0.0
H753 H 0.34731 0.33073 0.74651 0.0
H754 H 0.41543 0.25528 0.64149 0.0
H755 H 0.43579 0.30752 0.60564 0.0
H756 H 0.34772 0.3707 0.64972 0.0
C757 C 0.30136 0.25652 0.7278 0.0
C758 C 0.30892 0.22031 0.7357 0.0
C759 C 0.33889 0.20338 0.71912 0.0
C760 C 0.36122 0.22251 0.6953 0.0
C761 C 0.35291 0.25833 0.68831 0.0
C762 C 0.32366 0.27503 0.70421 0.0
C763 C 0.3198 0.31345 0.69206 0.0
C764 C 0.28525 0.32174 0.66727 0.0
C765 C 0.32228 0.33696 0.72881 0.0
C766 C 0.35157 0.31603 0.66679 0.0
C767 C 0.37043 0.28408 0.6648 0.0
C768 C 0.40087 0.2804 0.64296 0.0
C769 C 0.41228 0.3102 0.62285 0.0
C770 C 0.39323 0.34314 0.62473 0.0
C771 C 0.36253 0.34582 0.64706 0.0
H772 H 0.8876 0.78975 0.9515 0.0
H773 H 0.91004 0.78086 0.82583 0.0
H774 H 0.94434 0.72588 0.84035 0.0
H775 H 0.97166 0.74946 0.99297 0.0
H776 H 0.95311 0.7237 0.03186 0.0
H777 H 0.93029 0.76389 1.01348 0.0
H778 H 0.87461 0.72999 0.99738 0.0
H779 H 0.89741 0.68982 1.0159 0.0
H780 H 0.87773 0.69213 0.96597 0.0
H781 H 0.98178 0.67212 0.86754 0.0
H782 H 1.01093 0.62079 0.90359 0.0
H783 H 0.96176 0.65374 1.01227 0.0
C784 C 0.89943 0.77629 0.92681 0.0
C785 C 0.89626 0.79242 0.88702 0.0
C786 C 0.91245 0.77189 0.85671 0.0
C787 C 0.93219 0.73965 0.86465 0.0
C788 C 0.93584 0.72554 0.90351 0.0
C789 C 0.91918 0.74261 0.93422 0.0
C790 C 0.92671 0.71966 0.97296 0.0
C791 C 0.94662 0.74042 1.00472 0.0
C792 C 0.89205 0.70717 0.98902 0.0
C793 C 0.9503 0.68782 0.95911 0.0
C794 C 0.9554 0.69248 0.9188 0.0
C795 C 0.97735 0.66825 0.89899 0.0
C796 C 0.99419 0.63876 0.92007 0.0
C797 C 0.98929 0.63168 0.96128 0.0
C798 C 0.9664 0.65718 0.98084 0.0
H799 H 0.37399 0.71703 0.23589 0.0
H800 H 0.26831 0.75008 0.19104 0.0
H801 H 0.29125 0.80521 0.16438 0.0
H802 H 0.40063 0.8045 0.26562 0.0
H803 H 0.44532 0.79516 0.2511 0.0
H804 H 0.41959 0.76008 0.26892 0.0
H805 H 0.43099 0.72605 0.20399 0.0
H806 H 0.45642 0.76106 0.18578 0.0
H807 H 0.4192 0.74703 0.15626 0.0
H808 H 0.32768 0.85445 0.13785 0.0
H809 H 0.37369 0.89276 0.11437 0.0
H810 H 0.45365 0.82764 0.18126 0.0
C811 C 0.35525 0.73622 0.22167 0.0
C812 C 0.31922 0.72934 0.21602 0.0
C813 C 0.29605 0.75473 0.19566 0.0
C814 C 0.3088 0.78619 0.18067 0.0
C815 C 0.34462 0.79188 0.18667 0.0
C816 C 0.36736 0.76762 0.20703 0.0
C817 C 0.40497 0.77867 0.2079 0.0
C818 C 0.4184 0.78499 0.25094 0.0
C819 C 0.4293 0.7516 0.18724 0.0
C820 C 0.40015 0.81264 0.18396 0.0
C821 C 0.36522 0.82008 0.17207 0.0
C822 C 0.35501 0.84915 0.14754 0.0
C823 C 0.38129 0.87083 0.13449 0.0
C824 C 0.41728 0.86313 0.14592 0.0
C825 C 0.42646 0.83406 0.17164 0.0
H826 H 0.23419 0.14769 0.67793 0.0
H827 H 0.19724 0.10618 0.78972 0.0
H828 H 0.15671 0.06947 0.75168 0.0
H829 H 0.1559 0.15318 0.62399 0.0
H830 H 0.17324 0.13863 0.57743 0.0
H831 H 0.20124 0.15982 0.61309 0.0
H832 H 0.24637 0.1063 0.61438 0.0
H833 H 0.21888 0.08514 0.57802 0.0
H834 H 0.23171 0.06291 0.62475 0.0
H835 H 0.11439 0.04406 0.70121 0.0
H836 H 0.07997 0.02466 0.64201 0.0
H837 H 0.15006 0.07712 0.56413 0.0
C838 C 0.21879 0.12999 0.69483 0.0
C839 C 0.21901 0.13024 0.73713 0.0
C840 C 0.19721 0.10719 0.7574 0.0
C841 C 0.17422 0.08601 0.73606 0.0
C842 C 0.17402 0.0874 0.69446 0.0
C843 C 0.19646 0.10807 0.67412 0.0
C844 C 0.19078 0.10534 0.62933 0.0
C845 C 0.17962 0.14139 0.60985 0.0
C846 C 0.22391 0.08894 0.61052 0.0
C847 C 0.16083 0.08074 0.62759 0.0
C848 C 0.15128 0.07091 0.66547 0.0
C849 C 0.12219 0.05086 0.67143 0.0
C850 C 0.10268 0.04022 0.63776 0.0
C851 C 0.11282 0.04918 0.59883 0.0
C852 C 0.14231 0.06947 0.59371 0.0
H853 H 0.66709 0.34054 0.32494 0.0
H854 H 0.59452 0.25667 0.33441 0.0
H855 H 0.55579 0.29493 0.37472 0.0
H856 H 0.66328 0.365 0.42432 0.0
H857 H 0.66683 0.41136 0.41445 0.0
H858 H 0.68576 0.37972 0.38115 0.0
H859 H 0.64932 0.40925 0.32132 0.0
H860 H 0.63057 0.4413 0.35438 0.0
H861 H 0.60205 0.4154 0.32393 0.0
H862 H 0.52761 0.34112 0.41906 0.0
H863 H 0.51232 0.39099 0.46254 0.0
H864 H 0.60635 0.4419 0.42766 0.0
C865 C 0.64286 0.33023 0.33506 0.0
C866 C 0.63392 0.29551 0.32644 0.0
C867 C 0.60174 0.28331 0.34 0.0
C868 C 0.57969 0.30479 0.36321 0.0
C869 C 0.59022 0.33832 0.37258 0.0
C870 C 0.62101 0.35097 0.35871 0.0
C871 C 0.62802 0.3867 0.37537 0.0
C872 C 0.66304 0.3856 0.4003 0.0
C873 C 0.62744 0.41482 0.34174 0.0
C874 C 0.59668 0.39203 0.40144 0.0
C875 C 0.57488 0.36411 0.39908 0.0
C876 C 0.54443 0.36316 0.42093 0.0
C877 C 0.53601 0.39156 0.4456 0.0
C878 C 0.55825 0.42023 0.44865 0.0
C879 C 0.58896 0.42027 0.42625 0.0
loop_
_geom_bond_atom_site_label_1
_geom_bond_atom_site_label_2
_geom_bond_distance
_geom_bond_site_symmetry_2
_ccdc_geom_bond_type
H0 C3 0.931 . S
H1 C6 0.928 . S
H2 C8 0.930 . S
C3 H0 0.931 . S
C3 C4 1.413 . S
C3 C5 1.360 . S
C4 C3 1.413 . S
C4 C8 1.429 . S
C5 C3 1.360 . S
C5 C6 1.372 . S
C6 H1 0.928 . S
C6 C5 1.372 . S
C6 C7 1.404 . S
C7 C6 1.404 . S
C7 C8 1.391 . S
C8 H2 0.930 . S
C8 C4 1.429 . S
C8 C7 1.391 . S
H9 C12 0.931 . S
H10 C15 0.928 . S
H11 C17 0.930 . S
C12 H9 0.931 . S
C12 C13 1.413 . S
C12 C14 1.360 . S
C13 C12 1.413 . S
C13 C17 1.429 . S
C14 C12 1.360 . S
C14 C15 1.372 . S
C15 H10 0.928 . S
C15 C14 1.372 . S
C15 C16 1.404 . S
C16 C15 1.404 . S
C16 C17 1.391 . S
C17 H11 0.930 . S
C17 C13 1.429 . S
C17 C16 1.391 . S
H18 C21 0.931 . S
H19 C24 0.928 . S
H20 C26 0.930 . S
C21 H18 0.931 . S
C21 C22 1.413 . S
C21 C23 1.360 . S
C22 C21 1.413 . S
C22 C26 1.429 . S
C23 C21 1.360 . S
C23 C24 1.372 . S
C24 H19 0.928 . S
C24 C23 1.372 . S
C24 C25 1.404 . S
C25 C24 1.404 . S
C25 C26 1.391 . S
C26 H20 0.930 . S
C26 C22 1.429 . S
C26 C25 1.391 . S
H27 C30 0.931 . S
H28 C33 0.928 . S
H29 C35 0.930 . S
C30 H27 0.931 . S
C30 C31 1.413 . S
C30 C32 1.360 . S
C31 C30 1.413 . S
C31 C35 1.429 . S
C32 C30 1.360 . S
C32 C33 1.372 . S
C33 H28 0.928 . S
C33 C32 1.372 . S
C33 C34 1.404 . S
C34 C33 1.404 . S
C34 C35 1.391 . S
C35 H29 0.930 . S
C35 C31 1.429 . S
C35 C34 1.391 . S
H36 C39 0.931 . S
H37 C42 0.928 . S
H38 C44 0.930 . S
C39 H36 0.931 . S
C39 C40 1.413 . S
C39 C41 1.360 . S
C40 C39 1.413 . S
C40 C44 1.429 . S
C41 C39 1.360 . S
C41 C42 1.372 . S
C42 H37 0.928 . S
C42 C41 1.372 . S
C42 C43 1.404 . S
C43 C42 1.404 . S
C43 C44 1.391 . S
C44 H38 0.930 . S
C44 C40 1.429 . S
C44 C43 1.391 . S
H45 C48 0.931 . S
H46 C51 0.928 . S
H47 C53 0.930 . S
C48 H45 0.931 . S
C48 C49 1.413 . S
C48 C50 1.360 . S
C49 C48 1.413 . S
C49 C53 1.429 . S
C50 C48 1.360 . S
C50 C51 1.372 . S
C51 H46 0.928 . S
C51 C50 1.372 . S
C51 C52 1.404 . S
C52 C51 1.404 . S
C52 C53 1.391 . S
C53 H47 0.930 . S
C53 C49 1.429 . S
C53 C52 1.391 . S
H54 C57 0.931 . S
H55 C60 0.928 . S
H56 C62 0.930 . S
C57 H54 0.931 . S
C57 C58 1.413 . S
C57 C59 1.360 . S
C58 C57 1.413 . S
C58 C62 1.429 . S
C59 C57 1.360 . S
C59 C60 1.372 . S
C60 H55 0.928 . S
C60 C59 1.372 . S
C60 C61 1.404 . S
C61 C60 1.404 . S
C61 C62 1.391 . S
C62 H56 0.930 . S
C62 C58 1.429 . S
C62 C61 1.391 . S
H63 C66 0.931 . S
H64 C69 0.928 . S
H65 C71 0.930 . S
C66 H63 0.931 . S
C66 C67 1.413 . S
C66 C68 1.360 . S
C67 C66 1.413 . S
C67 C71 1.429 . S
C68 C66 1.360 . S
C68 C69 1.372 . S
C69 H64 0.928 . S
C69 C68 1.372 . S
C69 C70 1.404 . S
C70 C69 1.404 . S
C70 C71 1.391 . S
C71 H65 0.930 . S
C71 C67 1.429 . S
C71 C70 1.391 . S
Nd72 C74 2.836 . S
Nd72 O92 2.500 . S
Nd72 O93 2.492 . S
Nd72 O94 2.487 1_565 S
Nd72 O95 2.682 1_565 S
Nd72 O96 2.410 . S
Nd72 O101 2.414 1_455 S
Nd72 O103 2.424 1_565 S
Nd73 C83 2.836 . S
Nd73 O95 2.414 1_655 S
Nd73 O97 2.424 1_545 S
Nd73 O98 2.500 . S
Nd73 O99 2.492 . S
Nd73 O100 2.487 1_545 S
Nd73 O101 2.682 1_545 S
Nd73 O102 2.410 . S
C74 Nd72 2.836 . S
C74 C75 1.498 . S
C74 O92 1.258 . S
C74 O93 1.239 . S
C75 C74 1.498 . S
C75 C76 1.366 . S
C75 C80 1.407 . S
C76 C75 1.366 . S
C76 C77 1.392 . S
C76 H104 0.930 . S
C77 C76 1.392 . S
C77 C78 1.398 . S
C77 H105 0.929 . S
C78 C77 1.398 . S
C78 C79 1.352 . S
C79 C78 1.352 . S
C79 C80 1.384 . S
C79 H106 0.930 . S
C80 C75 1.407 . S
C80 C79 1.384 . S
C80 H107 0.929 . S
C81 O94 1.241 . S
C81 O95 1.273 . S
C82 O96 1.251 1_655 S
C82 O97 1.268 . S
C83 Nd73 2.836 . S
C83 C84 1.498 . S
C83 O98 1.258 . S
C83 O99 1.239 . S
C84 C83 1.498 . S
C84 C85 1.366 . S
C84 C89 1.407 . S
C85 C84 1.366 . S
C85 C86 1.392 . S
C85 H108 0.930 . S
C86 C85 1.392 . S
C86 C87 1.398 . S
C86 H109 0.929 . S
C87 C86 1.398 . S
C87 C88 1.352 . S
C88 C87 1.352 . S
C88 C89 1.384 . S
C88 H110 0.930 . S
C89 C84 1.407 . S
C89 C88 1.384 . S
C89 H111 0.929 . S
C90 O100 1.241 . S
C90 O101 1.273 . S
C91 O102 1.251 1_455 S
C91 O103 1.268 . S
O92 Nd72 2.500 . S
O92 C74 1.258 . S
O93 Nd72 2.492 . S
O93 C74 1.239 . S
O94 Nd72 2.487 1_545 S
O94 C81 1.241 . S
O95 Nd72 2.682 1_545 S
O95 Nd73 2.414 1_455 S
O95 C81 1.273 . S
O96 Nd72 2.410 . S
O96 C82 1.251 1_455 S
O97 Nd73 2.424 1_565 S
O97 C82 1.268 . S
O98 Nd73 2.500 . S
O98 C83 1.258 . S
O99 Nd73 2.492 . S
O99 C83 1.239 . S
O100 Nd73 2.487 1_565 S
O100 C90 1.241 . S
O101 Nd72 2.414 1_655 S
O101 Nd73 2.682 1_565 S
O101 C90 1.273 . S
O102 Nd73 2.410 . S
O102 C91 1.251 1_655 S
O103 Nd72 2.424 1_545 S
O103 C91 1.268 . S
H104 C76 0.930 . S
H105 C77 0.929 . S
H106 C79 0.930 . S
H107 C80 0.929 . S
H108 C85 0.930 . S
H109 C86 0.929 . S
H110 C88 0.930 . S
H111 C89 0.929 . S
Nd112 C114 2.836 . S
Nd112 O132 2.500 . S
Nd112 O133 2.492 . S
Nd112 O134 2.487 1_565 S
Nd112 O135 2.682 1_565 S
Nd112 O136 2.410 1_554 S
Nd112 O141 2.414 1_554 S
Nd112 O143 2.424 1_565 S
Nd113 C123 2.836 . S
Nd113 O135 2.414 1_556 S
Nd113 O137 2.424 1_545 S
Nd113 O138 2.500 . S
Nd113 O139 2.492 . S
Nd113 O140 2.487 1_545 S
Nd113 O141 2.682 1_545 S
Nd113 O142 2.410 1_556 S
C114 Nd112 2.836 . S
C114 C115 1.498 . S
C114 O132 1.258 . S
C114 O133 1.239 . S
C115 C114 1.498 . S
C115 C116 1.366 . S
C115 C120 1.407 . S
C116 C115 1.366 . S
C116 C117 1.392 . S
C116 H144 0.930 . S
C117 C116 1.392 . S
C117 C118 1.398 . S
C117 H145 0.929 . S
C118 C117 1.398 . S
C118 C119 1.352 . S
C119 C118 1.352 . S
C119 C120 1.384 . S
C119 H146 0.930 . S
C120 C115 1.407 . S
C120 C119 1.384 . S
C120 H147 0.929 . S
C121 O134 1.241 . S
C121 O135 1.273 . S
C122 O136 1.251 . S
C122 O137 1.268 . S
C123 Nd113 2.836 . S
C123 C124 1.498 . S
C123 O138 1.258 . S
C123 O139 1.239 . S
C124 C123 1.498 . S
C124 C125 1.366 . S
C124 C129 1.407 . S
C125 C124 1.366 . S
C125 C126 1.392 . S
C125 H148 0.930 . S
C126 C125 1.392 . S
C126 C127 1.398 . S
C126 H149 0.929 . S
C127 C126 1.398 . S
C127 C128 1.352 . S
C128 C127 1.352 . S
C128 C129 1.384 . S
C128 H150 0.930 . S
C129 C124 1.407 . S
C129 C128 1.384 . S
C129 H151 0.929 . S
C130 O140 1.241 . S
C130 O141 1.273 . S
C131 O142 1.251 . S
C131 O143 1.268 . S
O132 Nd112 2.500 . S
O132 C114 1.258 . S
O133 Nd112 2.492 . S
O133 C114 1.239 . S
O134 Nd112 2.487 1_545 S
O134 C121 1.241 . S
O135 Nd112 2.682 1_545 S
O135 Nd113 2.414 1_554 S
O135 C121 1.273 . S
O136 Nd112 2.410 1_556 S
O136 C122 1.251 . S
O137 Nd113 2.424 1_565 S
O137 C122 1.268 . S
O138 Nd113 2.500 . S
O138 C123 1.258 . S
O139 Nd113 2.492 . S
O139 C123 1.239 . S
O140 Nd113 2.487 1_565 S
O140 C130 1.241 . S
O141 Nd112 2.414 1_556 S
O141 Nd113 2.682 1_565 S
O141 C130 1.273 . S
O142 Nd113 2.410 1_554 S
O142 C131 1.251 . S
O143 Nd112 2.424 1_545 S
O143 C131 1.268 . S
H144 C116 0.930 . S
H145 C117 0.929 . S
H146 C119 0.930 . S
H147 C120 0.929 . S
H148 C125 0.930 . S
H149 C126 0.929 . S
H150 C128 0.930 . S
H151 C129 0.929 . S
Nd152 C154 2.836 . S
Nd152 O172 2.500 . S
Nd152 O173 2.492 . S
Nd152 O174 2.487 . S
Nd152 O175 2.682 . S
Nd152 O176 2.410 . S
Nd152 O181 2.414 . S
Nd152 O183 2.424 . S
Nd153 C163 2.836 . S
Nd153 O175 2.414 . S
Nd153 O177 2.424 . S
Nd153 O178 2.500 . S
Nd153 O179 2.492 . S
Nd153 O180 2.487 . S
Nd153 O181 2.682 . S
Nd153 O182 2.410 . S
C154 Nd152 2.836 . S
C154 C155 1.498 . S
C154 O172 1.258 . S
C154 O173 1.239 . S
C155 C154 1.498 . S
C155 C156 1.366 . S
C155 C160 1.407 . S
C156 C155 1.366 . S
C156 C157 1.392 . S
C156 H184 0.930 . S
C157 C156 1.392 . S
C157 C158 1.398 . S
C157 H185 0.929 . S
C158 C157 1.398 . S
C158 C159 1.352 . S
C159 C158 1.352 . S
C159 C160 1.384 . S
C159 H186 0.930 . S
C160 C155 1.407 . S
C160 C159 1.384 . S
C160 H187 0.929 . S
C161 O174 1.241 . S
C161 O175 1.273 . S
C162 O176 1.251 . S
C162 O177 1.268 . S
C163 Nd153 2.836 . S
C163 C164 1.498 . S
C163 O178 1.258 . S
C163 O179 1.239 . S
C164 C163 1.498 . S
C164 C165 1.366 . S
C164 C169 1.407 . S
C165 C164 1.366 . S
C165 C166 1.392 . S
C165 H188 0.930 . S
C166 C165 1.392 . S
C166 C167 1.398 . S
C166 H189 0.929 . S
C167 C166 1.398 . S
C167 C168 1.352 . S
C168 C167 1.352 . S
C168 C169 1.384 . S
C168 H190 0.930 . S
C169 C164 1.407 . S
C169 C168 1.384 . S
C169 H191 0.929 . S
C170 O180 1.241 . S
C170 O181 1.273 . S
C171 O182 1.251 . S
C171 O183 1.268 . S
O172 Nd152 2.500 . S
O172 C154 1.258 . S
O173 Nd152 2.492 . S
O173 C154 1.239 . S
O174 Nd152 2.487 . S
O174 C161 1.241 . S
O175 Nd152 2.682 . S
O175 Nd153 2.414 . S
O175 C161 1.273 . S
O176 Nd152 2.410 . S
O176 C162 1.251 . S
O177 Nd153 2.424 . S
O177 C162 1.268 . S
O178 Nd153 2.500 . S
O178 C163 1.258 . S
O179 Nd153 2.492 . S
O179 C163 1.239 . S
O180 Nd153 2.487 . S
O180 C170 1.241 . S
O181 Nd152 2.414 . S
O181 Nd153 2.682 . S
O181 C170 1.273 . S
O182 Nd153 2.410 . S
O182 C171 1.251 . S
O183 Nd152 2.424 . S
O183 C171 1.268 . S
H184 C156 0.930 . S
H185 C157 0.929 . S
H186 C159 0.930 . S
H187 C160 0.929 . S
H188 C165 0.930 . S
H189 C166 0.929 . S
H190 C168 0.930 . S
H191 C169 0.929 . S
Nd192 C194 2.836 . S
Nd192 O212 2.500 . S
Nd192 O213 2.492 . S
Nd192 O214 2.487 1_655 S
Nd192 O215 2.682 1_655 S
Nd192 O216 2.410 . S
Nd192 O221 2.414 1_554 S
Nd192 O223 2.424 1_655 S
Nd193 C203 2.836 . S
Nd193 O215 2.414 1_556 S
Nd193 O217 2.424 1_455 S
Nd193 O218 2.500 . S
Nd193 O219 2.492 . S
Nd193 O220 2.487 1_455 S
Nd193 O221 2.682 1_455 S
Nd193 O222 2.410 . S
C194 Nd192 2.836 . S
C194 C195 1.498 . S
C194 O212 1.258 . S
C194 O213 1.239 . S
C195 C194 1.498 . S
C195 C196 1.366 . S
C195 C200 1.407 . S
C196 C195 1.366 . S
C196 C197 1.392 . S
C196 H224 0.930 . S
C197 C196 1.392 . S
C197 C198 1.398 . S
C197 H225 0.929 . S
C198 C197 1.398 . S
C198 C199 1.352 . S
C199 C198 1.352 . S
C199 C200 1.384 . S
C199 H226 0.930 . S
C200 C195 1.407 . S
C200 C199 1.384 . S
C200 H227 0.929 . S
C201 O214 1.241 . S
C201 O215 1.273 . S
C202 O216 1.251 1_556 S
C202 O217 1.268 . S
C203 Nd193 2.836 . S
C203 C204 1.498 . S
C203 O218 1.258 . S
C203 O219 1.239 . S
C204 C203 1.498 . S
C204 C205 1.366 . S
C204 C209 1.407 . S
C205 C204 1.366 . S
C205 C206 1.392 . S
C205 H228 0.930 . S
C206 C205 1.392 . S
C206 C207 1.398 . S
C206 H229 0.929 . S
C207 C206 1.398 . S
C207 C208 1.352 . S
C208 C207 1.352 . S
C208 C209 1.384 . S
C208 H230 0.930 . S
C209 C204 1.407 . S
C209 C208 1.384 . S
C209 H231 0.929 . S
C210 O220 1.241 . S
C210 O221 1.273 . S
C211 O222 1.251 1_554 S
C211 O223 1.268 . S
O212 Nd192 2.500 . S
O212 C194 1.258 . S
O213 Nd192 2.492 . S
O213 C194 1.239 . S
O214 Nd192 2.487 1_455 S
O214 C201 1.241 . S
O215 Nd192 2.682 1_455 S
O215 Nd193 2.414 1_554 S
O215 C201 1.273 . S
O216 Nd192 2.410 . S
O216 C202 1.251 1_554 S
O217 Nd193 2.424 1_655 S
O217 C202 1.268 . S
O218 Nd193 2.500 . S
O218 C203 1.258 . S
O219 Nd193 2.492 . S
O219 C203 1.239 . S
O220 Nd193 2.487 1_655 S
O220 C210 1.241 . S
O221 Nd192 2.414 1_556 S
O221 Nd193 2.682 1_655 S
O221 C210 1.273 . S
O222 Nd193 2.410 . S
O222 C211 1.251 1_556 S
O223 Nd192 2.424 1_455 S
O223 C211 1.268 . S
H224 C196 0.930 . S
H225 C197 0.929 . S
H226 C199 0.930 . S
H227 C200 0.929 . S
H228 C205 0.930 . S
H229 C206 0.929 . S
H230 C208 0.930 . S
H231 C209 0.929 . S
H232 C244 0.930 . S
H233 C246 0.930 . S
H234 C247 0.930 . S
H235 C251 0.959 . S
H236 C251 0.959 . S
H237 C251 0.961 . S
H238 C252 0.960 . S
H239 C252 0.961 . S
H240 C252 0.959 . S
H241 C255 0.929 . S
H242 C256 0.931 . S
H243 C258 0.930 . S
C244 H232 0.930 . S
C244 C245 1.399 . S
C244 C249 1.399 . S
C245 C244 1.399 . S
C245 C246 1.376 . S
C246 H233 0.930 . S
C246 C245 1.376 . S
C246 C247 1.388 . S
C247 H234 0.930 . S
C247 C246 1.388 . S
C247 C248 1.390 . S
C248 C247 1.390 . S
C248 C249 1.394 . S
C248 C254 1.465 . S
C249 C244 1.399 . S
C249 C248 1.394 . S
C249 C250 1.516 . S
C250 C249 1.516 . S
C250 C251 1.502 . S
C250 C252 1.561 . S
C250 C253 1.526 . S
C251 H235 0.959 . S
C251 H236 0.959 . S
C251 H237 0.961 . S
C251 C250 1.502 . S
C252 H238 0.960 . S
C252 H239 0.961 . S
C252 H240 0.959 . S
C252 C250 1.561 . S
C253 C250 1.526 . S
C253 C254 1.396 . S
C253 C258 1.390 . S
C254 C248 1.465 . S
C254 C253 1.396 . S
C254 C255 1.399 . S
C255 H241 0.929 . S
C255 C254 1.399 . S
C255 C256 1.385 . S
C256 H242 0.931 . S
C256 C255 1.385 . S
C256 C257 1.389 . S
C257 C256 1.389 . S
C257 C258 1.387 . S
C258 H243 0.930 . S
C258 C253 1.390 . S
C258 C257 1.387 . S
H259 C271 0.930 . S
H260 C273 0.930 . S
H261 C274 0.930 . S
H262 C278 0.959 . S
H263 C278 0.959 . S
H264 C278 0.961 . S
H265 C279 0.960 . S
H266 C279 0.961 . S
H267 C279 0.959 . S
H268 C282 0.929 . S
H269 C283 0.931 . S
H270 C285 0.930 . S
C271 H259 0.930 . S
C271 C272 1.399 . S
C271 C276 1.399 . S
C272 C271 1.399 . S
C272 C273 1.376 . S
C273 H260 0.930 . S
C273 C272 1.376 . S
C273 C274 1.388 . S
C274 H261 0.930 . S
C274 C273 1.388 . S
C274 C275 1.390 . S
C275 C274 1.390 . S
C275 C276 1.394 . S
C275 C281 1.465 . S
C276 C271 1.399 . S
C276 C275 1.394 . S
C276 C277 1.516 . S
C277 C276 1.516 . S
C277 C278 1.502 . S
C277 C279 1.561 . S
C277 C280 1.526 . S
C278 H262 0.959 . S
C278 H263 0.959 . S
C278 H264 0.961 . S
C278 C277 1.502 . S
C279 H265 0.960 . S
C279 H266 0.961 . S
C279 H267 0.959 . S
C279 C277 1.561 . S
C280 C277 1.526 . S
C280 C281 1.396 . S
C280 C285 1.390 . S
C281 C275 1.465 . S
C281 C280 1.396 . S
C281 C282 1.399 . S
C282 H268 0.929 . S
C282 C281 1.399 . S
C282 C283 1.385 . S
C283 H269 0.931 . S
C283 C282 1.385 . S
C283 C284 1.389 . S
C284 C283 1.389 . S
C284 C285 1.387 . S
C285 H270 0.930 . S
C285 C280 1.390 . S
C285 C284 1.387 . S
H286 C298 0.930 . S
H287 C300 0.930 . S
H288 C301 0.930 . S
H289 C305 0.959 . S
H290 C305 0.959 . S
H291 C305 0.961 . S
H292 C306 0.960 . S
H293 C306 0.961 . S
H294 C306 0.959 . S
H295 C309 0.929 . S
H296 C310 0.931 . S
H297 C312 0.930 . S
C298 H286 0.930 . S
C298 C299 1.399 . S
C298 C303 1.399 . S
C299 C298 1.399 . S
C299 C300 1.376 . S
C300 H287 0.930 . S
C300 C299 1.376 . S
C300 C301 1.388 . S
C301 H288 0.930 . S
C301 C300 1.388 . S
C301 C302 1.390 . S
C302 C301 1.390 . S
C302 C303 1.394 . S
C302 C308 1.465 . S
C303 C298 1.399 . S
C303 C302 1.394 . S
C303 C304 1.516 . S
C304 C303 1.516 . S
C304 C305 1.502 . S
C304 C306 1.561 . S
C304 C307 1.526 . S
C305 H289 0.959 . S
C305 H290 0.959 . S
C305 H291 0.961 . S
C305 C304 1.502 . S
C306 H292 0.960 . S
C306 H293 0.961 . S
C306 H294 0.959 . S
C306 C304 1.561 . S
C307 C304 1.526 . S
C307 C308 1.396 . S
C307 C312 1.390 . S
C308 C302 1.465 . S
C308 C307 1.396 . S
C308 C309 1.399 . S
C309 H295 0.929 . S
C309 C308 1.399 . S
C309 C310 1.385 . S
C310 H296 0.931 . S
C310 C309 1.385 . S
C310 C311 1.389 . S
C311 C310 1.389 . S
C311 C312 1.387 . S
C312 H297 0.930 . S
C312 C307 1.390 . S
C312 C311 1.387 . S
H313 C325 0.930 . S
H314 C327 0.930 . S
H315 C328 0.930 . S
H316 C332 0.959 . S
H317 C332 0.959 . S
H318 C332 0.961 . S
H319 C333 0.960 . S
H320 C333 0.961 . S
H321 C333 0.959 . S
H322 C336 0.929 . S
H323 C337 0.931 . S
H324 C339 0.930 . S
C325 H313 0.930 . S
C325 C326 1.399 . S
C325 C330 1.399 . S
C326 C325 1.399 . S
C326 C327 1.376 . S
C327 H314 0.930 . S
C327 C326 1.376 . S
C327 C328 1.388 . S
C328 H315 0.930 . S
C328 C327 1.388 . S
C328 C329 1.390 . S
C329 C328 1.390 . S
C329 C330 1.394 . S
C329 C335 1.465 . S
C330 C325 1.399 . S
C330 C329 1.394 . S
C330 C331 1.516 . S
C331 C330 1.516 . S
C331 C332 1.502 . S
C331 C333 1.561 . S
C331 C334 1.526 . S
C332 H316 0.959 . S
C332 H317 0.959 . S
C332 H318 0.961 . S
C332 C331 1.502 . S
C333 H319 0.960 . S
C333 H320 0.961 . S
C333 H321 0.959 . S
C333 C331 1.561 . S
C334 C331 1.526 . S
C334 C335 1.396 . S
C334 C339 1.390 . S
C335 C329 1.465 . S
C335 C334 1.396 . S
C335 C336 1.399 . S
C336 H322 0.929 . S
C336 C335 1.399 . S
C336 C337 1.385 . S
C337 H323 0.931 . S
C337 C336 1.385 . S
C337 C338 1.389 . S
C338 C337 1.389 . S
C338 C339 1.387 . S
C339 H324 0.930 . S
C339 C334 1.390 . S
C339 C338 1.387 . S
H340 C352 0.930 . S
H341 C354 0.930 . S
H342 C355 0.930 . S
H343 C359 0.959 1_556 S
H344 C359 0.959 1_556 S
H345 C359 0.961 . S
H346 C360 0.960 . S
H347 C360 0.961 . S
H348 C360 0.959 . S
H349 C363 0.929 . S
H350 C364 0.931 . S
H351 C366 0.930 . S
C352 H340 0.930 . S
C352 C353 1.399 . S
C352 C357 1.399 . S
C353 C352 1.399 . S
C353 C354 1.376 . S
C354 H341 0.930 . S
C354 C353 1.376 . S
C354 C355 1.388 . S
C355 H342 0.930 . S
C355 C354 1.388 . S
C355 C356 1.390 . S
C356 C355 1.390 . S
C356 C357 1.394 . S
C356 C362 1.465 . S
C357 C352 1.399 . S
C357 C356 1.394 . S
C357 C358 1.516 . S
C358 C357 1.516 . S
C358 C359 1.502 . S
C358 C360 1.561 . S
C358 C361 1.526 . S
C359 H343 0.959 1_554 S
C359 H344 0.959 1_554 S
C359 H345 0.961 . S
C359 C358 1.502 . S
C360 H346 0.960 . S
C360 H347 0.961 . S
C360 H348 0.959 . S
C360 C358 1.561 . S
C361 C358 1.526 . S
C361 C362 1.396 . S
C361 C366 1.390 . S
C362 C356 1.465 . S
C362 C361 1.396 . S
C362 C363 1.399 . S
C363 H349 0.929 . S
C363 C362 1.399 . S
C363 C364 1.385 . S
C364 H350 0.931 . S
C364 C363 1.385 . S
C364 C365 1.389 . S
C365 C364 1.389 . S
C365 C366 1.387 . S
C366 H351 0.930 . S
C366 C361 1.390 . S
C366 C365 1.387 . S
H367 C379 0.930 . S
H368 C381 0.930 . S
H369 C382 0.930 . S
H370 C386 0.959 . S
H371 C386 0.959 . S
H372 C386 0.961 . S
H373 C387 0.960 . S
H374 C387 0.961 . S
H375 C387 0.959 . S
H376 C390 0.929 . S
H377 C391 0.931 . S
H378 C393 0.930 . S
C379 H367 0.930 . S
C379 C380 1.399 . S
C379 C384 1.399 . S
C380 C379 1.399 . S
C380 C381 1.376 . S
C381 H368 0.930 . S
C381 C380 1.376 . S
C381 C382 1.388 . S
C382 H369 0.930 . S
C382 C381 1.388 . S
C382 C383 1.390 . S
C383 C382 1.390 . S
C383 C384 1.394 . S
C383 C389 1.465 . S
C384 C379 1.399 . S
C384 C383 1.394 . S
C384 C385 1.516 . S
C385 C384 1.516 . S
C385 C386 1.502 . S
C385 C387 1.561 . S
C385 C388 1.526 . S
C386 H370 0.959 . S
C386 H371 0.959 . S
C386 H372 0.961 . S
C386 C385 1.502 . S
C387 H373 0.960 . S
C387 H374 0.961 . S
C387 H375 0.959 . S
C387 C385 1.561 . S
C388 C385 1.526 . S
C388 C389 1.396 . S
C388 C393 1.390 . S
C389 C383 1.465 . S
C389 C388 1.396 . S
C389 C390 1.399 . S
C390 H376 0.929 . S
C390 C389 1.399 . S
C390 C391 1.385 . S
C391 H377 0.931 . S
C391 C390 1.385 . S
C391 C392 1.389 . S
C392 C391 1.389 . S
C392 C393 1.387 . S
C393 H378 0.930 . S
C393 C388 1.390 . S
C393 C392 1.387 . S
H394 C406 0.930 . S
H395 C408 0.930 . S
H396 C409 0.930 . S
H397 C413 0.959 . S
H398 C413 0.959 . S
H399 C413 0.961 . S
H400 C414 0.960 . S
H401 C414 0.961 . S
H402 C414 0.959 . S
H403 C417 0.929 . S
H404 C418 0.931 . S
H405 C420 0.930 . S
C406 H394 0.930 . S
C406 C407 1.399 . S
C406 C411 1.399 . S
C407 C406 1.399 . S
C407 C408 1.376 . S
C408 H395 0.930 . S
C408 C407 1.376 . S
C408 C409 1.388 . S
C409 H396 0.930 . S
C409 C408 1.388 . S
C409 C410 1.390 . S
C410 C409 1.390 . S
C410 C411 1.394 . S
C410 C416 1.465 . S
C411 C406 1.399 . S
C411 C410 1.394 . S
C411 C412 1.516 . S
C412 C411 1.516 . S
C412 C413 1.502 . S
C412 C414 1.561 . S
C412 C415 1.526 . S
C413 H397 0.959 . S
C413 H398 0.959 . S
C413 H399 0.961 . S
C413 C412 1.502 . S
C414 H400 0.960 . S
C414 H401 0.961 . S
C414 H402 0.959 . S
C414 C412 1.561 . S
C415 C412 1.526 . S
C415 C416 1.396 . S
C415 C420 1.390 . S
C416 C410 1.465 . S
C416 C415 1.396 . S
C416 C417 1.399 . S
C417 H403 0.929 . S
C417 C416 1.399 . S
C417 C418 1.385 . S
C418 H404 0.931 . S
C418 C417 1.385 . S
C418 C419 1.389 . S
C419 C418 1.389 . S
C419 C420 1.387 . S
C420 H405 0.930 . S
C420 C415 1.390 . S
C420 C419 1.387 . S
H421 C433 0.930 . S
H422 C435 0.930 . S
H423 C436 0.930 . S
H424 C440 0.959 . S
H425 C440 0.959 . S
H426 C440 0.961 . S
H427 C441 0.960 . S
H428 C441 0.961 . S
H429 C441 0.959 . S
H430 C444 0.929 . S
H431 C445 0.931 . S
H432 C447 0.930 . S
C433 H421 0.930 . S
C433 C434 1.399 . S
C433 C438 1.399 . S
C434 C433 1.399 . S
C434 C435 1.376 . S
C435 H422 0.930 . S
C435 C434 1.376 . S
C435 C436 1.388 . S
C436 H423 0.930 . S
C436 C435 1.388 . S
C436 C437 1.390 . S
C437 C436 1.390 . S
C437 C438 1.394 . S
C437 C443 1.465 . S
C438 C433 1.399 . S
C438 C437 1.394 . S
C438 C439 1.516 . S
C439 C438 1.516 . S
C439 C440 1.502 . S
C439 C441 1.561 . S
C439 C442 1.526 . S
C440 H424 0.959 . S
C440 H425 0.959 . S
C440 H426 0.961 . S
C440 C439 1.502 . S
C441 H427 0.960 . S
C441 H428 0.961 . S
C441 H429 0.959 . S
C441 C439 1.561 . S
C442 C439 1.526 . S
C442 C443 1.396 . S
C442 C447 1.390 . S
C443 C437 1.465 . S
C443 C442 1.396 . S
C443 C444 1.399 . S
C444 H430 0.929 . S
C444 C443 1.399 . S
C444 C445 1.385 . S
C445 H431 0.931 . S
C445 C444 1.385 . S
C445 C446 1.389 . S
C446 C445 1.389 . S
C446 C447 1.387 . S
C447 H432 0.930 . S
C447 C442 1.390 . S
C447 C446 1.387 . S
H448 C460 0.930 . S
H449 C462 0.930 . S
H450 C463 0.930 . S
H451 C467 0.959 . S
H452 C467 0.959 . S
H453 C467 0.961 . S
H454 C468 0.960 . S
H455 C468 0.961 . S
H456 C468 0.959 . S
H457 C471 0.929 1_556 S
H458 C472 0.931 1_556 S
H459 C474 0.930 . S
C460 H448 0.930 . S
C460 C461 1.399 . S
C460 C465 1.399 . S
C461 C460 1.399 . S
C461 C462 1.376 . S
C462 H449 0.930 . S
C462 C461 1.376 . S
C462 C463 1.388 . S
C463 H450 0.930 . S
C463 C462 1.388 . S
C463 C464 1.390 . S
C464 C463 1.390 . S
C464 C465 1.394 . S
C464 C470 1.465 . S
C465 C460 1.399 . S
C465 C464 1.394 . S
C465 C466 1.516 . S
C466 C465 1.516 . S
C466 C467 1.502 . S
C466 C468 1.561 . S
C466 C469 1.526 . S
C467 H451 0.959 . S
C467 H452 0.959 . S
C467 H453 0.961 . S
C467 C466 1.502 . S
C468 H454 0.960 . S
C468 H455 0.961 . S
C468 H456 0.959 . S
C468 C466 1.561 . S
C469 C466 1.526 . S
C469 C470 1.396 . S
C469 C474 1.390 . S
C470 C464 1.465 . S
C470 C469 1.396 . S
C470 C471 1.399 . S
C471 H457 0.929 1_554 S
C471 C470 1.399 . S
C471 C472 1.385 . S
C472 H458 0.931 1_554 S
C472 C471 1.385 . S
C472 C473 1.389 . S
C473 C472 1.389 . S
C473 C474 1.387 . S
C474 H459 0.930 . S
C474 C469 1.390 . S
C474 C473 1.387 . S
H475 C487 0.930 . S
H476 C489 0.930 . S
H477 C490 0.930 . S
H478 C494 0.959 . S
H479 C494 0.959 . S
H480 C494 0.961 . S
H481 C495 0.960 . S
H482 C495 0.961 . S
H483 C495 0.959 . S
H484 C498 0.929 . S
H485 C499 0.931 . S
H486 C501 0.930 . S
C487 H475 0.930 . S
C487 C488 1.399 . S
C487 C492 1.399 . S
C488 C487 1.399 . S
C488 C489 1.376 . S
C489 H476 0.930 . S
C489 C488 1.376 . S
C489 C490 1.388 . S
C490 H477 0.930 . S
C490 C489 1.388 . S
C490 C491 1.390 . S
C491 C490 1.390 . S
C491 C492 1.394 . S
C491 C497 1.465 . S
C492 C487 1.399 . S
C492 C491 1.394 . S
C492 C493 1.516 . S
C493 C492 1.516 . S
C493 C494 1.502 . S
C493 C495 1.561 . S
C493 C496 1.526 . S
C494 H478 0.959 . S
C494 H479 0.959 . S
C494 H480 0.961 . S
C494 C493 1.502 . S
C495 H481 0.960 . S
C495 H482 0.961 . S
C495 H483 0.959 . S
C495 C493 1.561 . S
C496 C493 1.526 . S
C496 C497 1.396 . S
C496 C501 1.390 . S
C497 C491 1.465 . S
C497 C496 1.396 . S
C497 C498 1.399 . S
C498 H484 0.929 . S
C498 C497 1.399 . S
C498 C499 1.385 . S
C499 H485 0.931 . S
C499 C498 1.385 . S
C499 C500 1.389 . S
C500 C499 1.389 . S
C500 C501 1.387 . S
C501 H486 0.930 . S
C501 C496 1.390 . S
C501 C500 1.387 . S
H502 C514 0.930 . S
H503 C516 0.930 . S
H504 C517 0.930 . S
H505 C521 0.959 . S
H506 C521 0.959 . S
H507 C521 0.961 . S
H508 C522 0.960 . S
H509 C522 0.961 . S
H510 C522 0.959 . S
H511 C525 0.929 . S
H512 C526 0.931 1_455 S
H513 C528 0.930 . S
C514 H502 0.930 . S
C514 C515 1.399 . S
C514 C519 1.399 . S
C515 C514 1.399 . S
C515 C516 1.376 . S
C516 H503 0.930 . S
C516 C515 1.376 . S
C516 C517 1.388 . S
C517 H504 0.930 . S
C517 C516 1.388 . S
C517 C518 1.390 . S
C518 C517 1.390 . S
C518 C519 1.394 . S
C518 C524 1.465 . S
C519 C514 1.399 . S
C519 C518 1.394 . S
C519 C520 1.516 . S
C520 C519 1.516 . S
C520 C521 1.502 . S
C520 C522 1.561 . S
C520 C523 1.526 . S
C521 H505 0.959 . S
C521 H506 0.959 . S
C521 H507 0.961 . S
C521 C520 1.502 . S
C522 H508 0.960 . S
C522 H509 0.961 . S
C522 H510 0.959 . S
C522 C520 1.561 . S
C523 C520 1.526 . S
C523 C524 1.396 . S
C523 C528 1.390 . S
C524 C518 1.465 . S
C524 C523 1.396 . S
C524 C525 1.399 . S
C525 H511 0.929 . S
C525 C524 1.399 . S
C525 C526 1.385 . S
C526 H512 0.931 1_655 S
C526 C525 1.385 . S
C526 C527 1.389 . S
C527 C526 1.389 . S
C527 C528 1.387 . S
C528 H513 0.930 . S
C528 C523 1.390 . S
C528 C527 1.387 . S
H529 C541 0.930 . S
H530 C543 0.930 . S
H531 C544 0.930 . S
H532 C548 0.959 . S
H533 C548 0.959 . S
H534 C548 0.961 . S
H535 C549 0.960 . S
H536 C549 0.961 . S
H537 C549 0.959 . S
H538 C552 0.929 . S
H539 C553 0.931 . S
H540 C555 0.930 . S
C541 H529 0.930 . S
C541 C542 1.399 . S
C541 C546 1.399 . S
C542 C541 1.399 . S
C542 C543 1.376 . S
C543 H530 0.930 . S
C543 C542 1.376 . S
C543 C544 1.388 . S
C544 H531 0.930 . S
C544 C543 1.388 . S
C544 C545 1.390 . S
C545 C544 1.390 . S
C545 C546 1.394 . S
C545 C551 1.465 . S
C546 C541 1.399 . S
C546 C545 1.394 . S
C546 C547 1.516 . S
C547 C546 1.516 . S
C547 C548 1.502 . S
C547 C549 1.561 . S
C547 C550 1.526 . S
C548 H532 0.959 . S
C548 H533 0.959 . S
C548 H534 0.961 . S
C548 C547 1.502 . S
C549 H535 0.960 . S
C549 H536 0.961 . S
C549 H537 0.959 . S
C549 C547 1.561 . S
C550 C547 1.526 . S
C550 C551 1.396 . S
C550 C555 1.390 . S
C551 C545 1.465 . S
C551 C550 1.396 . S
C551 C552 1.399 . S
C552 H538 0.929 . S
C552 C551 1.399 . S
C552 C553 1.385 . S
C553 H539 0.931 . S
C553 C552 1.385 . S
C553 C554 1.389 . S
C554 C553 1.389 . S
C554 C555 1.387 . S
C555 H540 0.930 . S
C555 C550 1.390 . S
C555 C554 1.387 . S
H556 C568 0.930 . S
H557 C570 0.930 . S
H558 C571 0.930 . S
H559 C575 0.959 . S
H560 C575 0.973 . S
H561 C575 0.961 . S
H562 C576 0.960 . S
H563 C576 0.961 . S
H564 C576 0.959 . S
H565 C579 0.929 . S
H566 C580 0.931 . S
H567 C582 0.930 . S
C568 H556 0.930 . S
C568 C569 1.399 . S
C568 C573 1.399 . S
C569 C568 1.399 . S
C569 C570 1.376 . S
C570 H557 0.930 . S
C570 C569 1.376 . S
C570 C571 1.388 . S
C571 H558 0.930 . S
C571 C570 1.388 . S
C571 C572 1.390 . S
C572 C571 1.390 . S
C572 C573 1.394 . S
C572 C578 1.465 . S
C573 C568 1.399 . S
C573 C572 1.394 . S
C573 C574 1.516 . S
C574 C573 1.516 . S
C574 C575 1.502 . S
C574 C576 1.561 . S
C574 C577 1.526 . S
C575 H559 0.959 . S
C575 H560 0.973 . S
C575 H561 0.961 . S
C575 C574 1.502 . S
C576 H562 0.960 . S
C576 H563 0.961 . S
C576 H564 0.959 . S
C576 C574 1.561 . S
C577 C574 1.526 . S
C577 C578 1.396 . S
C577 C582 1.390 . S
C578 C572 1.465 . S
C578 C577 1.396 . S
C578 C579 1.399 . S
C579 H565 0.929 . S
C579 C578 1.399 . S
C579 C580 1.385 . S
C580 H566 0.931 . S
C580 C579 1.385 . S
C580 C581 1.389 . S
C581 C580 1.389 . S
C581 C582 1.387 . S
C582 H567 0.930 . S
C582 C577 1.390 . S
C582 C581 1.387 . S
H583 C595 0.930 . S
H584 C597 0.930 . S
H585 C598 0.930 . S
H586 C602 0.959 . S
H587 C602 0.959 . S
H588 C602 0.961 . S
H589 C603 0.960 . S
H590 C603 0.961 . S
H591 C603 0.959 . S
H592 C606 0.929 . S
H593 C607 0.931 . S
H594 C609 0.930 . S
C595 H583 0.930 . S
C595 C596 1.399 . S
C595 C600 1.399 . S
C596 C595 1.399 . S
C596 C597 1.376 . S
C597 H584 0.930 . S
C597 C596 1.376 . S
C597 C598 1.388 . S
C598 H585 0.930 . S
C598 C597 1.388 . S
C598 C599 1.390 . S
C599 C598 1.390 . S
C599 C600 1.394 . S
C599 C605 1.465 . S
C600 C595 1.399 . S
C600 C599 1.394 . S
C600 C601 1.516 . S
C601 C600 1.516 . S
C601 C602 1.502 . S
C601 C603 1.561 . S
C601 C604 1.526 . S
C602 H586 0.959 . S
C602 H587 0.959 . S
C602 H588 0.961 . S
C602 C601 1.502 . S
C603 H589 0.960 . S
C603 H590 0.961 . S
C603 H591 0.959 . S
C603 C601 1.561 . S
C604 C601 1.526 . S
C604 C605 1.396 . S
C604 C609 1.390 . S
C605 C599 1.465 . S
C605 C604 1.396 . S
C605 C606 1.399 . S
C606 H592 0.929 . S
C606 C605 1.399 . S
C606 C607 1.385 . S
C607 H593 0.931 . S
C607 C606 1.385 . S
C607 C608 1.389 . S
C608 C607 1.389 . S
C608 C609 1.387 . S
C609 H594 0.930 . S
C609 C604 1.390 . S
C609 C608 1.387 . S
H610 C622 0.930 . S
H611 C624 0.930 . S
H612 C625 0.930 . S
H613 C629 0.959 . S
H614 C629 0.959 . S
H615 C629 0.961 . S
H616 C630 0.960 . S
H617 C630 0.961 . S
H618 C630 0.959 . S
H619 C633 0.929 . S
H620 C634 0.931 . S
H621 C636 0.930 . S
C622 H610 0.930 . S
C622 C623 1.399 . S
C622 C627 1.399 . S
C623 C622 1.399 . S
C623 C624 1.376 . S
C624 H611 0.930 . S
C624 C623 1.376 . S
C624 C625 1.388 . S
C625 H612 0.930 . S
C625 C624 1.388 . S
C625 C626 1.390 . S
C626 C625 1.390 . S
C626 C627 1.394 . S
C626 C632 1.465 . S
C627 C622 1.399 . S
C627 C626 1.394 . S
C627 C628 1.516 . S
C628 C627 1.516 . S
C628 C629 1.502 . S
C628 C630 1.561 . S
C628 C631 1.526 . S
C629 H613 0.959 . S
C629 H614 0.959 . S
C629 H615 0.961 . S
C629 C628 1.502 . S
C630 H616 0.960 . S
C630 H617 0.961 . S
C630 H618 0.959 . S
C630 C628 1.561 . S
C631 C628 1.526 . S
C631 C632 1.396 . S
C631 C636 1.390 . S
C632 C626 1.465 . S
C632 C631 1.396 . S
C632 C633 1.399 . S
C633 H619 0.929 . S
C633 C632 1.399 . S
C633 C634 1.385 . S
C634 H620 0.931 . S
C634 C633 1.385 . S
C634 C635 1.389 . S
C635 C634 1.389 . S
C635 C636 1.387 . S
C636 H621 0.930 . S
C636 C631 1.390 . S
C636 C635 1.387 . S
H637 C649 0.930 . S
H638 C651 0.930 . S
H639 C652 0.930 . S
H640 C656 0.959 . S
H641 C656 0.959 . S
H642 C656 0.961 . S
H643 C657 0.960 . S
H644 C657 0.961 . S
H645 C657 0.959 . S
H646 C660 0.929 . S
H647 C661 0.931 . S
H648 C663 0.930 . S
C649 H637 0.930 . S
C649 C650 1.399 . S
C649 C654 1.399 . S
C650 C649 1.399 . S
C650 C651 1.376 . S
C651 H638 0.930 . S
C651 C650 1.376 . S
C651 C652 1.388 . S
C652 H639 0.930 . S
C652 C651 1.388 . S
C652 C653 1.390 . S
C653 C652 1.390 . S
C653 C654 1.394 . S
C653 C659 1.465 . S
C654 C649 1.399 . S
C654 C653 1.394 . S
C654 C655 1.516 . S
C655 C654 1.516 . S
C655 C656 1.502 . S
C655 C657 1.561 . S
C655 C658 1.526 . S
C656 H640 0.959 . S
C656 H641 0.959 . S
C656 H642 0.961 . S
C656 C655 1.502 . S
C657 H643 0.960 . S
C657 H644 0.961 . S
C657 H645 0.959 . S
C657 C655 1.561 . S
C658 C655 1.526 . S
C658 C659 1.396 . S
C658 C663 1.390 . S
C659 C653 1.465 . S
C659 C658 1.396 . S
C659 C660 1.399 . S
C660 H646 0.929 . S
C660 C659 1.399 . S
C660 C661 1.385 . S
C661 H647 0.931 . S
C661 C660 1.385 . S
C661 C662 1.389 . S
C662 C661 1.389 . S
C662 C663 1.387 . S
C663 H648 0.930 . S
C663 C658 1.390 . S
C663 C662 1.387 . S
H664 C676 0.930 . S
H665 C678 0.930 . S
H666 C679 0.930 . S
H667 C683 0.959 . S
H668 C683 0.959 . S
H669 C683 0.961 . S
H670 C684 0.960 . S
H671 C684 0.961 . S
H672 C684 0.959 . S
H673 C687 0.929 . S
H674 C688 0.931 . S
H675 C690 0.930 . S
C676 H664 0.930 . S
C676 C677 1.399 . S
C676 C681 1.399 . S
C677 C676 1.399 . S
C677 C678 1.376 . S
C678 H665 0.930 . S
C678 C677 1.376 . S
C678 C679 1.388 . S
C679 H666 0.930 . S
C679 C678 1.388 . S
C679 C680 1.390 . S
C680 C679 1.390 . S
C680 C681 1.394 . S
C680 C686 1.465 . S
C681 C676 1.399 . S
C681 C680 1.394 . S
C681 C682 1.516 . S
C682 C681 1.516 . S
C682 C683 1.502 1_556 S
C682 C684 1.561 . S
C682 C685 1.526 . S
C683 H667 0.959 . S
C683 H668 0.959 . S
C683 H669 0.961 . S
C683 C682 1.502 1_554 S
C684 H670 0.960 . S
C684 H671 0.961 . S
C684 H672 0.959 . S
C684 C682 1.561 . S
C685 C682 1.526 . S
C685 C686 1.396 . S
C685 C690 1.390 . S
C686 C680 1.465 . S
C686 C685 1.396 . S
C686 C687 1.399 . S
C687 H673 0.929 . S
C687 C686 1.399 . S
C687 C688 1.385 . S
C688 H674 0.931 . S
C688 C687 1.385 . S
C688 C689 1.389 . S
C689 C688 1.389 . S
C689 C690 1.387 . S
C690 H675 0.930 . S
C690 C685 1.390 . S
C690 C689 1.387 . S
H691 C703 0.930 . S
H692 C705 0.930 . S
H693 C706 0.930 . S
H694 C710 0.959 . S
H695 C710 0.959 . S
H696 C710 0.961 . S
H697 C711 0.960 . S
H698 C711 0.961 . S
H699 C711 0.959 . S
H700 C714 0.929 . S
H701 C715 0.931 . S
H702 C717 0.930 . S
C703 H691 0.930 . S
C703 C704 1.399 . S
C703 C708 1.399 . S
C704 C703 1.399 . S
C704 C705 1.376 . S
C705 H692 0.930 . S
C705 C704 1.376 . S
C705 C706 1.388 . S
C706 H693 0.930 . S
C706 C705 1.388 . S
C706 C707 1.390 . S
C707 C706 1.390 . S
C707 C708 1.394 . S
C707 C713 1.465 . S
C708 C703 1.399 . S
C708 C707 1.394 . S
C708 C709 1.516 . S
C709 C708 1.516 . S
C709 C710 1.502 . S
C709 C711 1.561 . S
C709 C712 1.526 . S
C710 H694 0.959 . S
C710 H695 0.959 . S
C710 H696 0.961 . S
C710 C709 1.502 . S
C711 H697 0.960 . S
C711 H698 0.961 . S
C711 H699 0.959 . S
C711 C709 1.561 . S
C712 C709 1.526 . S
C712 C713 1.396 . S
C712 C717 1.390 . S
C713 C707 1.465 . S
C713 C712 1.396 . S
C713 C714 1.399 . S
C714 H700 0.929 . S
C714 C713 1.399 . S
C714 C715 1.385 . S
C715 H701 0.931 . S
C715 C714 1.385 . S
C715 C716 1.389 . S
C716 C715 1.389 . S
C716 C717 1.387 . S
C717 H702 0.930 . S
C717 C712 1.390 . S
C717 C716 1.387 . S
H718 C730 0.930 . S
H719 C732 0.930 . S
H720 C733 0.930 . S
H721 C737 0.959 . S
H722 C737 0.959 . S
H723 C737 0.961 . S
H724 C738 0.960 . S
H725 C738 0.961 . S
H726 C738 0.959 . S
H727 C741 0.929 . S
H728 C742 0.931 . S
H729 C744 0.930 . S
C730 H718 0.930 . S
C730 C731 1.399 . S
C730 C735 1.399 . S
C731 C730 1.399 . S
C731 C732 1.376 . S
C732 H719 0.930 . S
C732 C731 1.376 . S
C732 C733 1.388 . S
C733 H720 0.930 . S
C733 C732 1.388 . S
C733 C734 1.390 . S
C734 C733 1.390 . S
C734 C735 1.394 . S
C734 C740 1.465 . S
C735 C730 1.399 . S
C735 C734 1.394 . S
C735 C736 1.516 . S
C736 C735 1.516 . S
C736 C737 1.502 . S
C736 C738 1.561 . S
C736 C739 1.526 . S
C737 H721 0.959 . S
C737 H722 0.959 . S
C737 H723 0.961 . S
C737 C736 1.502 . S
C738 H724 0.960 . S
C738 H725 0.961 . S
C738 H726 0.959 . S
C738 C736 1.561 . S
C739 C736 1.526 . S
C739 C740 1.396 . S
C739 C744 1.390 . S
C740 C734 1.465 . S
C740 C739 1.396 . S
C740 C741 1.399 . S
C741 H727 0.929 . S
C741 C740 1.399 . S
C741 C742 1.385 . S
C742 H728 0.931 . S
C742 C741 1.385 . S
C742 C743 1.389 . S
C743 C742 1.389 . S
C743 C744 1.387 . S
C744 H729 0.930 . S
C744 C739 1.390 . S
C744 C743 1.387 . S
H745 C757 0.930 . S
H746 C759 0.930 . S
H747 C760 0.930 . S
H748 C764 0.959 . S
H749 C764 0.959 . S
H750 C764 0.961 . S
H751 C765 0.960 . S
H752 C765 0.961 . S
H753 C765 0.959 . S
H754 C768 0.929 . S
H755 C769 0.931 . S
H756 C771 0.930 . S
C757 H745 0.930 . S
C757 C758 1.399 . S
C757 C762 1.399 . S
C758 C757 1.399 . S
C758 C759 1.376 . S
C759 H746 0.930 . S
C759 C758 1.376 . S
C759 C760 1.388 . S
C760 H747 0.930 . S
C760 C759 1.388 . S
C760 C761 1.390 . S
C761 C760 1.390 . S
C761 C762 1.394 . S
C761 C767 1.465 . S
C762 C757 1.399 . S
C762 C761 1.394 . S
C762 C763 1.516 . S
C763 C762 1.516 . S
C763 C764 1.502 . S
C763 C765 1.561 . S
C763 C766 1.526 . S
C764 H748 0.959 . S
C764 H749 0.959 . S
C764 H750 0.961 . S
C764 C763 1.502 . S
C765 H751 0.960 . S
C765 H752 0.961 . S
C765 H753 0.959 . S
C765 C763 1.561 . S
C766 C763 1.526 . S
C766 C767 1.396 . S
C766 C771 1.390 . S
C767 C761 1.465 . S
C767 C766 1.396 . S
C767 C768 1.399 . S
C768 H754 0.929 . S
C768 C767 1.399 . S
C768 C769 1.385 . S
C769 H755 0.931 . S
C769 C768 1.385 . S
C769 C770 1.389 . S
C770 C769 1.389 . S
C770 C771 1.387 . S
C771 H756 0.930 . S
C771 C766 1.390 . S
C771 C770 1.387 . S
H772 C784 0.930 . S
H773 C786 0.930 . S
H774 C787 0.930 . S
H775 C791 0.959 1_556 S
H776 C791 0.959 . S
H777 C791 0.961 . S
H778 C792 0.960 . S
H779 C792 0.961 . S
H780 C792 0.966 . S
H781 C795 0.929 . S
H782 C796 0.931 . S
H783 C798 0.930 1_554 S
C784 H772 0.930 . S
C784 C785 1.399 . S
C784 C789 1.399 . S
C785 C784 1.399 . S
C785 C786 1.376 . S
C786 H773 0.930 . S
C786 C785 1.376 . S
C786 C787 1.388 . S
C787 H774 0.930 . S
C787 C786 1.388 . S
C787 C788 1.390 . S
C788 C787 1.390 . S
C788 C789 1.394 . S
C788 C794 1.465 . S
C789 C784 1.399 . S
C789 C788 1.394 . S
C789 C790 1.516 . S
C790 C789 1.516 . S
C790 C791 1.502 1_556 S
C790 C792 1.561 1_556 S
C790 C793 1.526 . S
C791 H775 0.959 1_554 S
C791 H776 0.959 . S
C791 H777 0.961 . S
C791 C790 1.502 1_554 S
C792 H778 0.960 . S
C792 H779 0.961 . S
C792 H780 0.966 . S
C792 C790 1.561 1_554 S
C793 C790 1.526 . S
C793 C794 1.396 . S
C793 C798 1.390 . S
C794 C788 1.465 . S
C794 C793 1.396 . S
C794 C795 1.399 . S
C795 H781 0.929 . S
C795 C794 1.399 . S
C795 C796 1.385 . S
C796 H782 0.931 . S
C796 C795 1.385 . S
C796 C797 1.389 . S
C797 C796 1.389 . S
C797 C798 1.387 . S
C798 H783 0.930 1_556 S
C798 C793 1.390 . S
C798 C797 1.387 . S
H799 C811 0.930 . S
H800 C813 0.930 . S
H801 C814 0.930 . S
H802 C818 0.959 . S
H803 C818 0.959 . S
H804 C818 0.961 . S
H805 C819 0.960 . S
H806 C819 0.961 . S
H807 C819 0.959 . S
H808 C822 0.929 . S
H809 C823 0.931 . S
H810 C825 0.930 . S
C811 H799 0.930 . S
C811 C812 1.399 . S
C811 C816 1.399 . S
C812 C811 1.399 . S
C812 C813 1.376 . S
C813 H800 0.930 . S
C813 C812 1.376 . S
C813 C814 1.388 . S
C814 H801 0.930 . S
C814 C813 1.388 . S
C814 C815 1.390 . S
C815 C814 1.390 . S
C815 C816 1.394 . S
C815 C821 1.465 . S
C816 C811 1.399 . S
C816 C815 1.394 . S
C816 C817 1.516 . S
C817 C816 1.516 . S
C817 C818 1.502 . S
C817 C819 1.561 . S
C817 C820 1.526 . S
C818 H802 0.959 . S
C818 H803 0.959 . S
C818 H804 0.961 . S
C818 C817 1.502 . S
C819 H805 0.960 . S
C819 H806 0.961 . S
C819 H807 0.959 . S
C819 C817 1.561 . S
C820 C817 1.526 . S
C820 C821 1.396 . S
C820 C825 1.390 . S
C821 C815 1.465 . S
C821 C820 1.396 . S
C821 C822 1.399 . S
C822 H808 0.929 . S
C822 C821 1.399 . S
C822 C823 1.385 . S
C823 H809 0.931 . S
C823 C822 1.385 . S
C823 C824 1.389 . S
C824 C823 1.389 . S
C824 C825 1.387 . S
C825 H810 0.930 . S
C825 C820 1.390 . S
C825 C824 1.387 . S
H826 C838 0.930 . S
H827 C840 0.930 . S
H828 C841 0.930 . S
H829 C845 0.959 . S
H830 C845 0.959 . S
H831 C845 0.961 . S
H832 C846 0.960 . S
H833 C846 0.961 . S
H834 C846 0.959 . S
H835 C849 0.929 . S
H836 C850 0.931 . S
H837 C852 0.930 . S
C838 H826 0.930 . S
C838 C839 1.399 . S
C838 C843 1.399 . S
C839 C838 1.399 . S
C839 C840 1.376 . S
C840 H827 0.930 . S
C840 C839 1.376 . S
C840 C841 1.388 . S
C841 H828 0.930 . S
C841 C840 1.388 . S
C841 C842 1.390 . S
C842 C841 1.390 . S
C842 C843 1.394 . S
C842 C848 1.465 . S
C843 C838 1.399 . S
C843 C842 1.394 . S
C843 C844 1.516 . S
C844 C843 1.516 . S
C844 C845 1.502 . S
C844 C846 1.561 . S
C844 C847 1.526 . S
C845 H829 0.959 . S
C845 H830 0.959 . S
C845 H831 0.961 . S
C845 C844 1.502 . S
C846 H832 0.960 . S
C846 H833 0.961 . S
C846 H834 0.959 . S
C846 C844 1.561 . S
C847 C844 1.526 . S
C847 C848 1.396 . S
C847 C852 1.390 . S
C848 C842 1.465 . S
C848 C847 1.396 . S
C848 C849 1.399 . S
C849 H835 0.929 . S
C849 C848 1.399 . S
C849 C850 1.385 . S
C850 H836 0.931 . S
C850 C849 1.385 . S
C850 C851 1.389 . S
C851 C850 1.389 . S
C851 C852 1.387 . S
C852 H837 0.930 . S
C852 C847 1.390 . S
C852 C851 1.387 . S
H853 C865 0.930 . S
H854 C867 0.930 . S
H855 C868 0.930 . S
H856 C872 0.959 . S
H857 C872 0.959 . S
H858 C872 0.961 . S
H859 C873 0.960 . S
H860 C873 0.961 . S
H861 C873 0.959 . S
H862 C876 0.929 . S
H863 C877 0.931 . S
H864 C879 0.930 . S
C865 H853 0.930 . S
C865 C866 1.399 . S
C865 C870 1.399 . S
C866 C865 1.399 . S
C866 C867 1.376 . S
C867 H854 0.930 . S
C867 C866 1.376 . S
C867 C868 1.388 . S
C868 H855 0.930 . S
C868 C867 1.388 . S
C868 C869 1.390 . S
C869 C868 1.390 . S
C869 C870 1.394 . S
C869 C875 1.465 . S
C870 C865 1.399 . S
C870 C869 1.394 . S
C870 C871 1.516 . S
C871 C870 1.516 . S
C871 C872 1.502 . S
C871 C873 1.561 . S
C871 C874 1.526 . S
C872 H856 0.959 . S
C872 H857 0.959 . S
C872 H858 0.961 . S
C872 C871 1.502 . S
C873 H859 0.960 . S
C873 H860 0.961 . S
C873 H861 0.959 . S
C873 C871 1.561 . S
C874 C871 1.526 . S
C874 C875 1.396 . S
C874 C879 1.390 . S
C875 C869 1.465 . S
C875 C874 1.396 . S
C875 C876 1.399 . S
C876 H862 0.929 . S
C876 C875 1.399 . S
C876 C877 1.385 . S
C877 H863 0.931 . S
C877 C876 1.385 . S
C877 C878 1.389 . S
C878 C877 1.389 . S
C878 C879 1.387 . S
C879 H864 0.930 . S
C879 C874 1.390 . S
C879 C878 1.387 . S
C245 C5 2.860 . S
C257 C91 2.841 . S
C272 C14 2.078 . S
C284 C122 2.169 . S
C311 C161 1.350 . S
C299 C25 1.378 . S
C326 C34 0.559 . S
C338 C198 0.516 . S
C365 C121 2.721 . S
C353 C7 2.837 . S
C392 C78 1.295 . S
C380 C13 1.312 . S
C419 C210 1.424 . S
C407 C23 1.520 . S
C446 C167 1.083 . S
C434 C31 1.021 . S
C461 C4 2.293 . S
C473 C211 2.293 . S
C500 C127 1.293 . S
C488 C22 1.312 . S
C515 C32 0.443 . S
C527 C90 0.642 . S
C542 C16 2.216 . S
C554 C162 2.240 . S
C581 C82 2.839 . S
C569 C41 2.845 . S
C596 C50 2.090 . S
C608 C131 2.162 . S
C623 C61 1.383 . S
C635 C170 1.385 . S
C650 C67 0.516 . S
C662 C207 0.553 . S
C677 C40 2.851 . S
C689 C130 2.760 . S
C716 C87 1.327 . S
C704 C52 1.336 . S
C743 C201 1.476 . S
C731 C59 1.527 . S
C770 C158 1.001 . S
C758 C70 1.081 . S
C785 C43 2.283 . S
C797 C202 2.283 . S
C824 C118 1.283 . S
C812 C58 1.313 . S
C851 C81 0.430 . S
C839 C68 0.515 . S
C866 C49 2.205 . S
C878 C171 2.218 . S
