# Generated by pormake.
# Topology csq, (4,8)-cn, num edge types: 1
# Building blocks:
#     Node 0, Type 0, BuildingBlock: NAHDIM_clean_linker_0, # of connection points: 4
#     Node 1, Type 0, BuildingBlock: NAHDIM_clean_linker_0, # of connection points: 4
#     Node 2, Type 0, BuildingBlock: NAHDIM_clean_linker_0, # of connection points: 4
#     Node 3, Type 0, BuildingBlock: NAHDIM_clean_linker_0, # of connection points: 4
#     Node 4, Type 0, BuildingBlock: NAHDIM_clean_linker_0, # of connection points: 4
#     Node 5, Type 0, BuildingBlock: NAHDIM_clean_linker_0, # of connection points: 4
#     Node 6, Type 1, BuildingBlock: TAGTUT_clean_sbu_1, # of connection points: 8
#     Node 7, Type 1, BuildingBlock: TAGTUT_clean_sbu_1, # of connection points: 8
#     Node 8, Type 1, BuildingBlock: TAGTUT_clean_sbu_1, # of connection points: 8
#     Edge 9, Type (0, 1), BuildingBlock: AJUNOK_clean_linker_0, # of connection points: 2
#     Edge 10, Type (0, 1), BuildingBlock: AJUNOK_clean_linker_0, # of connection points: 2
#     Edge 11, Type (0, 1), BuildingBlock: AJUNOK_clean_linker_0, # of connection points: 2
#     Edge 12, Type (0, 1), BuildingBlock: AJUNOK_clean_linker_0, # of connection points: 2
#     Edge 13, Type (0, 1), BuildingBlock: AJUNOK_clean_linker_0, # of connection points: 2
#     Edge 14, Type (0, 1), BuildingBlock: AJUNOK_clean_linker_0, # of connection points: 2
#     Edge 15, Type (0, 1), BuildingBlock: AJUNOK_clean_linker_0, # of connection points: 2
#     Edge 16, Type (0, 1), BuildingBlock: AJUNOK_clean_linker_0, # of connection points: 2
#     Edge 17, Type (0, 1), BuildingBlock: AJUNOK_clean_linker_0, # of connection points: 2
#     Edge 18, Type (0, 1), BuildingBlock: AJUNOK_clean_linker_0, # of connection points: 2
#     Edge 19, Type (0, 1), BuildingBlock: AJUNOK_clean_linker_0, # of connection points: 2
#     Edge 20, Type (0, 1), BuildingBlock: AJUNOK_clean_linker_0, # of connection points: 2
#     Edge 21, Type (0, 1), BuildingBlock: AJUNOK_clean_linker_0, # of connection points: 2
#     Edge 22, Type (0, 1), BuildingBlock: AJUNOK_clean_linker_0, # of connection points: 2
#     Edge 23, Type (0, 1), BuildingBlock: AJUNOK_clean_linker_0, # of connection points: 2
#     Edge 24, Type (0, 1), BuildingBlock: AJUNOK_clean_linker_0, # of connection points: 2
#     Edge 25, Type (0, 1), BuildingBlock: AJUNOK_clean_linker_0, # of connection points: 2
#     Edge 26, Type (0, 1), BuildingBlock: AJUNOK_clean_linker_0, # of connection points: 2
#     Edge 27, Type (0, 1), BuildingBlock: AJUNOK_clean_linker_0, # of connection points: 2
#     Edge 28, Type (0, 1), BuildingBlock: AJUNOK_clean_linker_0, # of connection points: 2
#     Edge 29, Type (0, 1), BuildingBlock: AJUNOK_clean_linker_0, # of connection points: 2
#     Edge 30, Type (0, 1), BuildingBlock: AJUNOK_clean_linker_0, # of connection points: 2
#     Edge 31, Type (0, 1), BuildingBlock: AJUNOK_clean_linker_0, # of connection points: 2
#     Edge 32, Type (0, 1), BuildingBlock: AJUNOK_clean_linker_0, # of connection points: 2
# Relax obj value: 0.050
# Max RMSD: 0.132
# Mean RMSD: 0.088
data_MOF--net-csq--node1-TAGTUT_clean_sbu_1--node2-NAHDIM_clean_linker_0--edge1-AJUNOK_clean_linker_0
_symmetry_space_group_name_H-M    P1
_symmetry_Int_Tables_number       1
_symmetry_cell_setting            triclinic
loop_
_symmetry_equiv_pos_as_xyz
'x, y, z'
_cell_length_a     55.685669
_cell_length_b     54.768117
_cell_length_c     22.137012
_cell_angle_alpha  92.430599
_cell_angle_beta   92.363246
_cell_angle_gamma 119.93069
loop_
_atom_site_label
_atom_site_type_symbol
_atom_site_fract_x
_atom_site_fract_y
_atom_site_fract_z
_atom_type_partial_charge
C0 C 0.33102 0.45693 0.59987 0.0
C1 C 0.34428 0.46058 0.53916 0.0
C2 C 0.32137 0.47654 0.46528 0.0
C3 C 0.29862 0.44976 0.44627 0.0
C4 C 0.27887 0.44675 0.40067 0.0
C5 C 0.28121 0.47102 0.37506 0.0
C6 C 0.30357 0.49806 0.39533 0.0
C7 C 0.32356 0.50036 0.4395 0.0
C8 C 0.25526 0.41752 0.3804 0.0
C9 C 0.30618 0.52454 0.37099 0.0
C10 C 0.10833 0.41113 0.53818 0.0
C11 C 0.11781 0.43634 0.49926 0.0
C12 C 0.13818 0.43525 0.40464 0.0
C13 C 0.15858 0.46373 0.4031 0.0
C14 C 0.18194 0.47158 0.36964 0.0
C15 C 0.18507 0.45043 0.33792 0.0
C16 C 0.16397 0.42173 0.33797 0.0
C17 C 0.14046 0.41462 0.37035 0.0
C18 C 0.20364 0.50241 0.3696 0.0
C19 C 0.16674 0.39844 0.30607 0.0
C20 C 0.15826 0.43868 0.92315 0.0
C21 C 0.17347 0.46627 0.95011 0.0
C22 C 0.1952 0.47369 0.99437 0.0
C23 C 0.20145 0.45288 0.01237 0.0
C24 C 0.18626 0.42507 0.98449 0.0
C25 C 0.16505 0.41844 0.93943 0.0
C26 C 0.21147 0.50371 0.02182 0.0
C27 C 0.19243 0.40234 0.00211 0.0
C28 C 0.38291 0.45679 0.97001 0.0
C29 C 0.37025 0.46814 0.92378 0.0
C30 C 0.34383 0.48376 0.98479 0.0
C31 C 0.34176 0.50703 0.00577 0.0
C32 C 0.31914 0.50357 0.03792 0.0
C33 C 0.29826 0.4761 0.04999 0.0
C34 C 0.30067 0.45251 0.03084 0.0
C35 C 0.32322 0.45652 0.99809 0.0
C36 C 0.31716 0.52915 0.05771 0.0
C37 C 0.27896 0.42291 0.04351 0.0
C38 C 0.25937 0.46806 0.32961 0.0
C39 C 0.23402 0.4627 0.35075 0.0
C40 C 0.21173 0.45794 0.31098 0.0
C41 C 0.2149 0.45911 0.24787 0.0
C42 C 0.19301 0.45454 0.20638 0.0
C43 C 0.19608 0.45481 0.14423 0.0
C44 C 0.22136 0.4603 0.12132 0.0
C45 C 0.22465 0.46037 0.05829 0.0
C46 C 0.25016 0.46637 0.03718 0.0
C47 C 0.27255 0.47163 0.0771 0.0
C48 C 0.26957 0.47101 0.14025 0.0
C49 C 0.29136 0.47523 0.18161 0.0
C50 C 0.28802 0.47409 0.24361 0.0
C51 C 0.26293 0.46916 0.26668 0.0
C52 C 0.24063 0.46478 0.22573 0.0
C53 C 0.24391 0.46555 0.16243 0.0
C54 C 0.08842 0.40447 0.90166 0.0
C55 C 0.11374 0.4338 0.89648 0.0
O56 O 0.34151 0.48064 0.50829 0.0
O57 O 0.36577 0.4885 0.95191 0.0
O58 O 0.1363 0.43099 0.88288 0.0
O59 O 0.11617 0.42709 0.43905 0.0
H60 H 0.33318 0.43953 0.51401 0.0
H61 H 0.30816 0.44722 0.59148 0.0
H62 H 0.33887 0.47759 0.62586 0.0
H63 H 0.33514 0.44273 0.62722 0.0
H64 H 0.29573 0.431 0.46658 0.0
H65 H 0.34095 0.52096 0.45476 0.0
H66 H 0.23571 0.41478 0.39781 0.0
H67 H 0.2588 0.40068 0.39728 0.0
H68 H 0.25232 0.41471 0.33014 0.0
H69 H 0.32286 0.54399 0.39647 0.0
H70 H 0.28622 0.52441 0.37316 0.0
H71 H 0.31095 0.52533 0.3227 0.0
H72 H 0.13974 0.4519 0.51508 0.0
H73 H 0.10994 0.41797 0.58689 0.0
H74 H 0.12175 0.40164 0.53247 0.0
H75 H 0.08647 0.39474 0.5245 0.0
H76 H 0.15629 0.47976 0.42831 0.0
H77 H 0.12434 0.39272 0.37139 0.0
H78 H 0.21009 0.50788 0.32297 0.0
H79 H 0.2223 0.50663 0.39839 0.0
H80 H 0.19604 0.5164 0.38748 0.0
H81 H 0.14965 0.37711 0.31496 0.0
H82 H 0.18687 0.40017 0.32091 0.0
H83 H 0.16653 0.40052 0.25645 0.0
H84 H 0.11744 0.44501 0.94209 0.0
H85 H 0.16832 0.48194 0.9363 0.0
H86 H 0.15313 0.39722 0.91797 0.0
H87 H 0.20863 0.5041 0.07112 0.0
H88 H 0.2049 0.51768 0.00067 0.0
H89 H 0.23398 0.51234 0.01655 0.0
H90 H 0.17616 0.38102 0.98297 0.0
H91 H 0.19427 0.40216 0.05221 0.0
H92 H 0.21258 0.40687 0.98497 0.0
H93 H 0.3501 0.45031 0.90406 0.0
H94 H 0.38681 0.44076 0.94719 0.0
H95 H 0.36869 0.44659 0.00617 0.0
H96 H 0.40282 0.47416 0.99197 0.0
H97 H 0.35771 0.52798 0.99576 0.0
H98 H 0.32424 0.43809 0.98279 0.0
H99 H 0.31478 0.52963 0.10724 0.0
H100 H 0.29841 0.52778 0.03451 0.0
H101 H 0.3357 0.5492 0.04733 0.0
H102 H 0.28547 0.40721 0.03219 0.0
H103 H 0.25939 0.41679 0.01616 0.0
H104 H 0.27446 0.42202 0.09202 0.0
H105 H 0.23138 0.46155 0.39906 0.0
H106 H 0.17317 0.45042 0.22154 0.0
H107 H 0.1784 0.45075 0.11434 0.0
H108 H 0.25243 0.46629 0.98871 0.0
H109 H 0.31116 0.47926 0.1664 0.0
H110 H 0.30541 0.47719 0.27328 0.0
H111 H 0.08427 0.39041 0.86023 0.0
H112 H 0.06971 0.4062 0.90936 0.0
H113 H 0.09231 0.39451 0.94072 0.0
C114 C 0.84123 0.38041 0.50151 0.0
C115 C 0.85643 0.3676 0.46853 0.0
C116 C 0.83818 0.34018 0.37227 0.0
C117 C 0.84833 0.32143 0.37717 0.0
C118 C 0.83582 0.29567 0.34172 0.0
C119 C 0.81251 0.28852 0.3014 0.0
C120 C 0.80222 0.30744 0.29681 0.0
C121 C 0.81564 0.33334 0.33146 0.0
C122 C 0.84769 0.27632 0.34667 0.0
C123 C 0.77703 0.30037 0.25535 0.0
C124 C 0.72693 0.14685 0.52375 0.0
C125 C 0.70472 0.13968 0.47229 0.0
C126 C 0.72216 0.14816 0.37135 0.0
C127 C 0.71029 0.1638 0.34991 0.0
C128 C 0.72257 0.18277 0.30498 0.0
C129 C 0.74717 0.18611 0.2812 0.0
C130 C 0.75763 0.16844 0.29888 0.0
C131 C 0.74471 0.14939 0.34336 0.0
C132 C 0.71023 0.2005 0.28562 0.0
C133 C 0.78365 0.17118 0.27423 0.0
C134 C 0.71367 0.15712 0.85376 0.0
C135 C 0.70789 0.1758 0.88614 0.0
C136 C 0.72602 0.19412 0.93415 0.0
C137 C 0.75071 0.19376 0.95019 0.0
C138 C 0.75641 0.1744 0.91873 0.0
C139 C 0.73787 0.15628 0.87068 0.0
C140 C 0.71925 0.21457 0.96634 0.0
C141 C 0.78251 0.17348 0.9348 0.0
C142 C 0.91624 0.40383 0.06767 0.0
C143 C 0.91768 0.38789 0.01057 0.0
C144 C 0.87266 0.34711 0.97432 0.0
C145 C 0.84474 0.33976 0.96976 0.0
C146 C 0.82365 0.31179 0.97468 0.0
C147 C 0.83085 0.29076 0.9837 0.0
C148 C 0.85882 0.2975 0.98112 0.0
C149 C 0.87951 0.32567 0.97629 0.0
C150 C 0.79392 0.30516 0.9753 0.0
C151 C 0.86704 0.27533 0.98827 0.0
C152 C 0.79943 0.2619 0.26183 0.0
C153 C 0.78087 0.23683 0.28631 0.0
C154 C 0.76507 0.21178 0.24954 0.0
C155 C 0.76695 0.21201 0.18586 0.0
C156 C 0.74965 0.1881 0.14644 0.0
C157 C 0.75119 0.18922 0.0836 0.0
C158 C 0.77057 0.21408 0.05814 0.0
C159 C 0.7719 0.21598 0.99453 0.0
C160 C 0.79222 0.24081 0.97127 0.0
C161 C 0.81071 0.26421 0.00975 0.0
C162 C 0.80894 0.26312 0.07312 0.0
C163 C 0.82653 0.28684 0.1128 0.0
C164 C 0.82371 0.2863 0.17462 0.0
C165 C 0.80346 0.26192 0.19944 0.0
C166 C 0.78656 0.2372 0.16096 0.0
C167 C 0.78887 0.238 0.09738 0.0
C168 C 0.71278 0.12907 0.71859 0.0
C169 C 0.69456 0.11857 0.77247 0.0
O170 O 0.84956 0.36487 0.40689 0.0
O171 O 0.8922 0.37496 0.9773 0.0
O172 O 0.69572 0.14115 0.80583 0.0
O173 O 0.71266 0.13207 0.41932 0.0
H174 H 0.84885 0.34638 0.48623 0.0
H175 H 0.81843 0.36622 0.49314 0.0
H176 H 0.84674 0.40137 0.48529 0.0
H177 H 0.84656 0.38284 0.55117 0.0
H178 H 0.86621 0.32713 0.40812 0.0
H179 H 0.80809 0.34808 0.32812 0.0
H180 H 0.83219 0.25627 0.36483 0.0
H181 H 0.8671 0.28589 0.37684 0.0
H182 H 0.85212 0.27099 0.30105 0.0
H183 H 0.7689 0.31488 0.26497 0.0
H184 H 0.7602 0.27834 0.25992 0.0
H185 H 0.78265 0.30204 0.20759 0.0
H186 H 0.70347 0.15914 0.46753 0.0
H187 H 0.72067 0.15248 0.56682 0.0
H188 H 0.74691 0.16522 0.51284 0.0
H189 H 0.73029 0.12874 0.53026 0.0
H190 H 0.69183 0.16171 0.36915 0.0
H191 H 0.75324 0.13663 0.35915 0.0
H192 H 0.71097 0.20255 0.23593 0.0
H193 H 0.72262 0.22203 0.30856 0.0
H194 H 0.68838 0.19141 0.29774 0.0
H195 H 0.78815 0.15475 0.28976 0.0
H196 H 0.80162 0.1923 0.28909 0.0
H197 H 0.7816 0.1695 0.22392 0.0
H198 H 0.70281 0.10765 0.80051 0.0
H199 H 0.68919 0.17629 0.87285 0.0
H200 H 0.74288 0.14217 0.84587 0.0
H201 H 0.71857 0.21154 0.01563 0.0
H202 H 0.69901 0.21189 0.94894 0.0
H203 H 0.73581 0.23658 0.96068 0.0
H204 H 0.78251 0.15521 0.91094 0.0
H205 H 0.78491 0.17228 0.98446 0.0
H206 H 0.80082 0.19323 0.92238 0.0
H207 H 0.92288 0.37221 0.02773 0.0
H208 H 0.93721 0.41682 0.09144 0.0
H209 H 0.90243 0.38841 0.09909 0.0
H210 H 0.90755 0.4176 0.0567 0.0
H211 H 0.8396 0.35633 0.96608 0.0
H212 H 0.90094 0.33083 0.97554 0.0
H213 H 0.78692 0.30051 0.02182 0.0
H214 H 0.78025 0.28607 0.94475 0.0
H215 H 0.79135 0.32297 0.96097 0.0
H216 H 0.88846 0.28261 0.97486 0.0
H217 H 0.85232 0.2556 0.96057 0.0
H218 H 0.86606 0.27024 0.03644 0.0
H219 H 0.77839 0.2369 0.33469 0.0
H220 H 0.73439 0.16852 0.16382 0.0
H221 H 0.73709 0.17041 0.05512 0.0
H222 H 0.79305 0.24226 0.92259 0.0
H223 H 0.84242 0.3064 0.09667 0.0
H224 H 0.83758 0.30533 0.20274 0.0
H225 H 0.70848 0.14372 0.69328 0.0
H226 H 0.70924 0.11096 0.68742 0.0
H227 H 0.73505 0.14077 0.7351 0.0
C228 C 0.45823 0.83271 0.37273 0.0
C229 C 0.48553 0.84402 0.34183 0.0
C230 C 0.49109 0.82271 0.24924 0.0
C231 C 0.51872 0.82938 0.26176 0.0
C232 C 0.52927 0.81407 0.23184 0.0
C233 C 0.51182 0.79171 0.18854 0.0
C234 C 0.48423 0.78551 0.17452 0.0
C235 C 0.47432 0.80139 0.2047 0.0
C236 C 0.55902 0.82169 0.24648 0.0
C237 C 0.46517 0.76192 0.12818 0.0
C238 C 0.53141 0.6037 0.14068 0.0
C239 C 0.53628 0.62238 0.19862 0.0
C240 C 0.51747 0.65436 0.20028 0.0
C241 C 0.49559 0.65625 0.1724 0.0
C242 C 0.49827 0.68258 0.16242 0.0
C243 C 0.52337 0.70758 0.18181 0.0
C244 C 0.54445 0.7058 0.21584 0.0
C245 C 0.54129 0.67915 0.22475 0.0
C246 C 0.47498 0.68366 0.1276 0.0
C247 C 0.5711 0.73204 0.23883 0.0
C248 C 0.6038 0.70418 0.89318 0.0
C249 C 0.57635 0.69619 0.87377 0.0
C250 C 0.56742 0.71604 0.87585 0.0
C251 C 0.58612 0.74404 0.89947 0.0
C252 C 0.61452 0.75281 0.91155 0.0
C253 C 0.62304 0.73268 0.90778 0.0
C254 C 0.53728 0.70633 0.8595 0.0
C255 C 0.63524 0.78278 0.93448 0.0
C256 C 0.52964 0.9049 0.75744 0.0
C257 C 0.52585 0.88039 0.79088 0.0
C258 C 0.55247 0.85844 0.82569 0.0
C259 C 0.52965 0.83183 0.83464 0.0
C260 C 0.53333 0.81168 0.86424 0.0
C261 C 0.56024 0.81862 0.88744 0.0
C262 C 0.58332 0.84522 0.87774 0.0
C263 C 0.57913 0.86462 0.84608 0.0
C264 C 0.50826 0.78308 0.87132 0.0
C265 C 0.61227 0.85338 0.90192 0.0
C266 C 0.52258 0.77509 0.15724 0.0
C267 C 0.52009 0.75132 0.18418 0.0
C268 C 0.52945 0.73456 0.15628 0.0
C269 C 0.54225 0.74203 0.10097 0.0
C270 C 0.55287 0.72627 0.073 0.0
C271 C 0.56447 0.73304 0.01772 0.0
C272 C 0.56491 0.75515 0.98664 0.0
C273 C 0.5749 0.76085 0.92819 0.0
C274 C 0.57387 0.78208 0.8973 0.0
C275 C 0.56377 0.79846 0.92435 0.0
C276 C 0.55508 0.79398 0.98412 0.0
C277 C 0.54621 0.81098 0.01397 0.0
C278 C 0.53612 0.80527 0.07125 0.0
C279 C 0.53425 0.78215 0.10062 0.0
C280 C 0.54402 0.76546 0.07234 0.0
C281 C 0.55486 0.77167 0.01449 0.0
C282 C 0.61231 0.64679 0.94673 0.0
C283 C 0.59543 0.6567 0.90965 0.0
O284 O 0.47991 0.836 0.28043 0.0
O285 O 0.54976 0.8785 0.79711 0.0
O286 O 0.61226 0.68508 0.90062 0.0
O287 O 0.51494 0.62841 0.20173 0.0
H288 H 0.49629 0.83371 0.36354 0.0
H289 H 0.44695 0.80924 0.36876 0.0
H290 H 0.44449 0.8397 0.35148 0.0
H291 H 0.46243 0.83991 0.42169 0.0
H292 H 0.53202 0.84652 0.29493 0.0
H293 H 0.45312 0.79662 0.19506 0.0
H294 H 0.55958 0.80331 0.26422 0.0
H295 H 0.57006 0.84 0.28054 0.0
H296 H 0.57035 0.82685 0.20453 0.0
H297 H 0.44408 0.75936 0.12351 0.0
H298 H 0.46329 0.74173 0.14128 0.0
H299 H 0.47415 0.76619 0.08337 0.0
H300 H 0.5565 0.64181 0.19382 0.0
H301 H 0.54726 0.59703 0.13958 0.0
H302 H 0.53324 0.61583 0.10047 0.0
H303 H 0.51037 0.58468 0.13709 0.0
H304 H 0.47696 0.63697 0.15534 0.0
H305 H 0.5577 0.67786 0.24959 0.0
H306 H 0.48201 0.69265 0.0834 0.0
H307 H 0.46933 0.6977 0.1532 0.0
H308 H 0.45617 0.66244 0.11896 0.0
H309 H 0.58318 0.72746 0.27313 0.0
H310 H 0.56665 0.74815 0.25904 0.0
H311 H 0.58414 0.74124 0.20025 0.0
H312 H 0.57799 0.65394 0.93705 0.0
H313 H 0.56155 0.67436 0.85961 0.0
H314 H 0.6444 0.73878 0.9207 0.0
H315 H 0.52596 0.7017 0.90144 0.0
H316 H 0.52737 0.68682 0.82852 0.0
H317 H 0.53514 0.72311 0.83771 0.0
H318 H 0.65699 0.78727 0.93316 0.0
H319 H 0.6315 0.78641 0.98204 0.0
H320 H 0.63259 0.79788 0.907 0.0
H321 H 0.50688 0.86019 0.77449 0.0
H322 H 0.51558 0.89537 0.71473 0.0
H323 H 0.54935 0.91249 0.73347 0.0
H324 H 0.52431 0.9304 0.82267 0.0
H325 H 0.50891 0.82637 0.81822 0.0
H326 H 0.59664 0.8851 0.83849 0.0
H327 H 0.502 0.78212 0.91849 0.0
H328 H 0.5132 0.766 0.86255 0.0
H329 H 0.49026 0.77894 0.84017 0.0
H330 H 0.62766 0.87567 0.89467 0.0
H331 H 0.61879 0.83943 0.87897 0.0
H332 H 0.61253 0.85036 0.95119 0.0
H333 H 0.51022 0.74546 0.22656 0.0
H334 H 0.55245 0.70846 0.09338 0.0
H335 H 0.57253 0.72018 -0.00059 0.0
H336 H 0.58057 0.78559 0.85158 0.0
H337 H 0.54681 0.82881 0.99322 0.0
H338 H 0.52934 0.8189 0.0917 0.0
H339 H 0.63041 0.64945 0.92233 0.0
H340 H 0.59915 0.62419 0.95562 0.0
H341 H 0.62007 0.65941 0.99099 0.0
C342 C 0.86059 0.55638 0.54025 0.0
C343 C 0.86695 0.54496 0.48247 0.0
C344 C 0.85758 0.55473 0.37892 0.0
C345 C 0.84402 0.52675 0.35313 0.0
C346 C 0.8278 0.51942 0.29798 0.0
C347 C 0.82561 0.54053 0.26772 0.0
C348 C 0.84215 0.56916 0.28974 0.0
C349 C 0.85788 0.57585 0.34527 0.0
C350 C 0.81138 0.48885 0.27428 0.0
C351 C 0.84145 0.59247 0.25716 0.0
C352 C 0.64858 0.52787 0.44521 0.0
C353 C 0.67477 0.53362 0.4171 0.0
C354 C 0.69063 0.51716 0.33121 0.0
C355 C 0.71458 0.54341 0.32529 0.0
C356 C 0.73411 0.5462 0.28415 0.0
C357 C 0.73051 0.52202 0.24991 0.0
C358 C 0.70636 0.49555 0.2553 0.0
C359 C 0.68646 0.49362 0.295 0.0
C360 C 0.75928 0.575 0.27961 0.0
C361 C 0.70211 0.4691 0.22118 0.0
C362 C 0.69654 0.53121 0.84373 0.0
C363 C 0.71952 0.5564 0.86963 0.0
C364 C 0.73953 0.55582 0.90903 0.0
C365 C 0.73693 0.52957 0.9218 0.0
C366 C 0.71432 0.50419 0.89453 0.0
C367 C 0.69437 0.50537 0.85574 0.0
C368 C 0.76354 0.58332 0.93687 0.0
C369 C 0.71126 0.47592 0.90661 0.0
C370 C 0.88302 0.56423 0.71808 0.0
C371 C 0.89971 0.56153 0.77174 0.0
C372 C 0.86595 0.54001 0.84973 0.0
C373 C 0.86507 0.56434 0.86912 0.0
C374 C 0.84674 0.56308 0.91224 0.0
C375 C 0.82844 0.53692 0.93553 0.0
C376 C 0.83001 0.51266 0.91777 0.0
C377 C 0.84893 0.51464 0.87552 0.0
C378 C 0.84598 0.58954 0.93045 0.0
C379 C 0.81068 0.48432 0.94093 0.0
C380 C 0.80126 0.5324 0.22472 0.0
C381 C 0.77692 0.52725 0.25088 0.0
C382 C 0.75393 0.52402 0.21611 0.0
C383 C 0.75488 0.52516 0.15247 0.0
C384 C 0.7327 0.5233 0.116 0.0
C385 C 0.73388 0.52451 0.05343 0.0
C386 C 0.75728 0.52758 0.025 0.0
C387 C 0.7587 0.52898 0.96157 0.0
C388 C 0.78202 0.53168 0.93464 0.0
C389 C 0.80467 0.53393 0.96927 0.0
C390 C 0.80408 0.53342 0.03315 0.0
C391 C 0.82687 0.53677 0.06998 0.0
C392 C 0.82606 0.5365 0.1329 0.0
C393 C 0.80232 0.53252 0.16107 0.0
C394 C 0.77898 0.52888 0.1248 0.0
C395 C 0.78005 0.52978 0.06091 0.0
C396 C 0.64355 0.54599 0.77807 0.0
C397 C 0.67138 0.55366 0.80555 0.0
O398 O 0.8699 0.56234 0.43616 0.0
O399 O 0.88216 0.53964 0.80565 0.0
O400 O 0.67605 0.53111 0.80794 0.0
O401 O 0.6714 0.51374 0.37136 0.0
H402 H 0.84881 0.52341 0.47209 0.0
H403 H 0.84065 0.55618 0.53245 0.0
H404 H 0.87712 0.57841 0.55397 0.0
H405 H 0.85853 0.54286 0.57796 0.0
H406 H 0.84519 0.51036 0.37638 0.0
H407 H 0.86926 0.59754 0.36439 0.0
H408 H 0.78939 0.48004 0.28504 0.0
H409 H 0.81948 0.47603 0.295 0.0
H410 H 0.81177 0.48694 0.22423 0.0
H411 H 0.8576 0.61377 0.27667 0.0
H412 H 0.82079 0.59066 0.26012 0.0
H413 H 0.84457 0.59043 0.20841 0.0
H414 H 0.6929 0.53934 0.44972 0.0
H415 H 0.64332 0.56154 0.42016 0.0
H416 H 0.65171 0.52428 0.49389 0.0
H417 H 0.63281 0.50508 0.43188 0.0
H418 H 0.71851 0.56194 0.35296 0.0
H419 H 0.66797 0.47344 0.29959 0.0
H420 H 0.76582 0.57809 0.23251 0.0
H421 H 0.77672 0.57691 0.30948 0.0
H422 H 0.75527 0.59219 0.29459 0.0
H423 H 0.68312 0.44989 0.23329 0.0
H424 H 0.72034 0.46639 0.23085 0.0
H425 H 0.70034 0.47098 0.17171 0.0
H426 H 0.67695 0.56657 0.84969 0.0
H427 H 0.72203 0.57663 0.85915 0.0
H428 H 0.67675 0.48606 0.8352 0.0
H429 H 0.76488 0.58288 0.98696 0.0
H430 H 0.76162 0.60186 0.92539 0.0
H431 H 0.78325 0.58608 0.92054 0.0
H432 H 0.69248 0.45809 0.88192 0.0
H433 H 0.70998 0.47302 0.95595 0.0
H434 H 0.72987 0.47523 0.89278 0.0
H435 H 0.90979 0.58202 0.79942 0.0
H436 H 0.89719 0.57967 0.68712 0.0
H437 H 0.86925 0.57187 0.7349 0.0
H438 H 0.86969 0.54344 0.69261 0.0
H439 H 0.878 0.58425 0.85001 0.0
H440 H 0.84983 0.49601 0.86069 0.0
H441 H 0.84257 0.59054 0.97936 0.0
H442 H 0.8285 0.58934 0.90405 0.0
H443 H 0.86549 0.6089 0.92112 0.0
H444 H 0.81491 0.46759 0.9237 0.0
H445 H 0.78883 0.47791 0.92688 0.0
H446 H 0.81277 0.48586 0.99122 0.0
H447 H 0.77638 0.52722 0.29988 0.0
H448 H 0.71421 0.52094 0.13553 0.0
H449 H 0.71617 0.52292 0.02754 0.0
H450 H 0.78277 0.53258 0.8858 0.0
H451 H 0.84561 0.53984 0.05047 0.0
H452 H 0.84417 0.53927 0.15934 0.0
H453 H 0.65258 0.56883 0.70063 0.0
H454 H 0.63247 0.54939 0.81608 0.0
H455 H 0.63059 0.52223 0.77596 0.0
C456 C 0.32613 0.8511 0.75791 0.0
C457 C 0.3378 0.87871 0.79774 0.0
C458 C 0.32208 0.86237 0.89715 0.0
C459 C 0.30211 0.87052 0.90434 0.0
C460 C 0.28079 0.85669 0.94324 0.0
C461 C 0.27934 0.83411 0.97488 0.0
C462 C 0.30038 0.82691 0.96998 0.0
C463 C 0.32183 0.84162 0.93195 0.0
C464 C 0.25913 0.86539 0.9485 0.0
C465 C 0.29936 0.80262 0.00191 0.0
C466 C 0.12664 0.68853 0.70334 0.0
C467 C 0.13221 0.6802 0.76527 0.0
C468 C 0.14573 0.71307 0.85447 0.0
C469 C 0.16624 0.70835 0.88102 0.0
C470 C 0.18633 0.72815 0.92427 0.0
C471 C 0.18547 0.75281 0.94198 0.0
C472 C 0.16411 0.757 0.91726 0.0
C473 C 0.14431 0.73685 0.87391 0.0
C474 C 0.20863 0.72286 0.95067 0.0
C475 C 0.16245 0.78287 0.9362 0.0
C476 C 0.12947 0.68377 0.26644 0.0
C477 C 0.1549 0.68479 0.25881 0.0
C478 C 0.17945 0.71073 0.25584 0.0
C479 C 0.1786 0.73613 0.26075 0.0
C480 C 0.15363 0.7353 0.27433 0.0
C481 C 0.12938 0.70906 0.27727 0.0
C482 C 0.20597 0.71091 0.24328 0.0
C483 C 0.15211 0.762 0.28089 0.0
C484 C 0.35331 0.92725 0.36711 0.0
C485 C 0.35101 0.91027 0.42237 0.0
C486 C 0.31836 0.86291 0.37363 0.0
C487 C 0.3173 0.83909 0.34527 0.0
C488 C 0.29377 0.81915 0.30892 0.0
C489 C 0.27074 0.82328 0.3007 0.0
C490 C 0.27108 0.84659 0.33171 0.0
C491 C 0.2948 0.86604 0.36844 0.0
C492 C 0.29389 0.79419 0.27769 0.0
C493 C 0.24672 0.85138 0.32447 0.0
C494 C 0.25352 0.81488 0.00341 0.0
C495 C 0.23115 0.79541 0.96419 0.0
C496 C 0.20707 0.77419 0.98633 0.0
C497 C 0.20491 0.77211 0.04928 0.0
C498 C 0.1811 0.75044 0.07252 0.0
C499 C 0.17981 0.7474 0.13431 0.0
C500 C 0.20217 0.76609 0.17543 0.0
C501 C 0.20159 0.76203 0.23808 0.0
C502 C 0.22389 0.7812 0.27805 0.0
C503 C 0.24715 0.80427 0.25664 0.0
C504 C 0.24839 0.80819 0.19372 0.0
C505 C 0.27174 0.83063 0.17021 0.0
C506 C 0.27337 0.8332 0.10789 0.0
C507 C 0.25162 0.81361 0.06687 0.0
C508 C 0.22734 0.79176 0.08977 0.0
C509 C 0.22585 0.78888 0.1531 0.0
C510 C 0.08058 0.63027 0.17396 0.0
C511 C 0.0975 0.63352 0.2332 0.0
O512 O 0.342 0.87421 0.85746 0.0
O513 O 0.34263 0.88242 0.40429 0.0
O514 O 0.1047 0.65917 0.26392 0.0
O515 O 0.12709 0.69516 0.80991 0.0
H516 H 0.3226 0.8862 0.79403 0.0
H517 H 0.30562 0.83523 0.77282 0.0
H518 H 0.34032 0.84235 0.76109 0.0
H519 H 0.32322 0.85473 0.70983 0.0
H520 H 0.30304 0.88756 0.87958 0.0
H521 H 0.33775 0.83596 0.92673 0.0
H522 H 0.23986 0.84982 0.92124 0.0
H523 H 0.26616 0.88658 0.93168 0.0
H524 H 0.25393 0.86561 0.99636 0.0
H525 H 0.31642 0.7987 0.99022 0.0
H526 H 0.2792 0.78301 0.98979 0.0
H527 H 0.30101 0.80717 0.05168 0.0
H528 H 0.15445 0.68596 0.76813 0.0
H529 H 0.13079 0.67703 0.6664 0.0
H530 H 0.14053 0.71156 0.69995 0.0
H531 H 0.10475 0.68366 0.69687 0.0
H532 H 0.16657 0.68924 0.86807 0.0
H533 H 0.12804 0.73995 0.85375 0.0
H534 H 0.20777 0.7223 0.00063 0.0
H535 H 0.22941 0.74042 0.94134 0.0
H536 H 0.20644 0.70268 0.93178 0.0
H537 H 0.14416 0.78269 0.91363 0.0
H538 H 0.1816 0.80211 0.92495 0.0
H539 H 0.16123 0.78425 0.98607 0.0
H540 H 0.1159 0.63251 0.21937 0.0
H541 H 0.15592 0.66564 0.25424 0.0
H542 H 0.10986 0.70816 0.28494 0.0
H543 H 0.21099 0.71641 0.19595 0.0
H544 H 0.20428 0.69007 0.24913 0.0
H545 H 0.2235 0.7272 0.27389 0.0
H546 H 0.13259 0.75832 0.30027 0.0
H547 H 0.15312 0.77034 0.23563 0.0
H548 H 0.17012 0.7784 0.31029 0.0
H549 H 0.33568 0.91068 0.45244 0.0
H550 H 0.36136 0.94982 0.38178 0.0
H551 H 0.3328 0.91929 0.34229 0.0
H552 H 0.36759 0.92588 0.33526 0.0
H553 H 0.33539 0.8366 0.35031 0.0
H554 H 0.29495 0.88385 0.39193 0.0
H555 H 0.29449 0.7964 0.22807 0.0
H556 H 0.27455 0.77434 0.28539 0.0
H557 H 0.31205 0.79237 0.29383 0.0
H558 H 0.2501 0.87042 0.35195 0.0
H559 H 0.2277 0.83268 0.33818 0.0
H560 H 0.24296 0.85385 0.27604 0.0
H561 H 0.23291 0.79612 0.91554 0.0
H562 H 0.16335 0.73526 0.04314 0.0
H563 H 0.16105 0.72997 0.14914 0.0
H564 H 0.22344 0.77778 0.32599 0.0
H565 H 0.28923 0.84619 0.19963 0.0
H566 H 0.29196 0.85054 0.09208 0.0
H567 H 0.06277 0.63342 0.18266 0.0
H568 H 0.07292 0.60911 0.15039 0.0
H569 H 0.09399 0.6465 0.14343 0.0
C570 C 0.44025 0.32872 0.5496 0.0
C571 C 0.46255 0.34133 0.50391 0.0
C572 C 0.46062 0.31241 0.41598 0.0
C573 C 0.4891 0.322 0.41398 0.0
C574 C 0.49829 0.30553 0.38382 0.0
C575 C 0.47855 0.27904 0.3547 0.0
C576 C 0.44983 0.26959 0.35551 0.0
C577 C 0.44124 0.28663 0.38576 0.0
C578 C 0.52908 0.31658 0.38223 0.0
C579 C 0.4283 0.24163 0.32407 0.0
C580 C 0.58831 0.17733 0.48938 0.0
C581 C 0.55741 0.16432 0.46985 0.0
C582 C 0.54201 0.18384 0.39287 0.0
C583 C 0.51318 0.17207 0.39274 0.0
C584 C 0.50042 0.18711 0.37236 0.0
C585 C 0.51706 0.21453 0.35273 0.0
C586 C 0.54641 0.22702 0.35673 0.0
C587 C 0.55847 0.21124 0.37575 0.0
C588 C 0.4692 0.17326 0.36894 0.0
C589 C 0.56506 0.25657 0.33817 0.0
C590 C 0.54188 0.17948 0.00593 0.0
C591 C 0.51477 0.17449 0.99322 0.0
C592 C 0.50804 0.19545 0.00723 0.0
C593 C 0.5287 0.22176 0.03523 0.0
C594 C 0.55642 0.22755 0.04417 0.0
C595 C 0.56258 0.20618 0.02981 0.0
C596 C 0.47831 0.18864 0.99684 0.0
C597 C 0.579 0.25549 0.07358 0.0
C598 C 0.5214 0.40779 0.07535 0.0
C599 C 0.52847 0.40323 0.01118 0.0
C600 C 0.51356 0.3524 0.00655 0.0
C601 C 0.49155 0.32553 0.98725 0.0
C602 C 0.49083 0.30105 0.00625 0.0
C603 C 0.51297 0.30365 0.04482 0.0
C604 C 0.53609 0.33073 0.06175 0.0
C605 C 0.53606 0.35485 0.04291 0.0
C606 C 0.46594 0.27252 0.98726 0.0
C607 C 0.56042 0.33428 0.10172 0.0
C608 C 0.48799 0.26221 0.31949 0.0
C609 C 0.49493 0.24443 0.35004 0.0
C610 C 0.50425 0.22842 0.31858 0.0
C611 C 0.50526 0.229 0.25504 0.0
C612 C 0.51213 0.21127 0.22157 0.0
C613 C 0.51595 0.21398 0.16027 0.0
C614 C 0.5137 0.235 0.13026 0.0
C615 C 0.52003 0.23961 0.06918 0.0
C616 C 0.51888 0.26151 0.04137 0.0
C617 C 0.51078 0.27859 0.07309 0.0
C618 C 0.50298 0.27327 0.13329 0.0
C619 C 0.49348 0.28913 0.16558 0.0
C620 C 0.4877 0.28498 0.22605 0.0
C621 C 0.49172 0.2652 0.25689 0.0
C622 C 0.50036 0.24846 0.22463 0.0
C623 C 0.50535 0.25202 0.16246 0.0
C624 C 0.54823 0.11544 0.96325 0.0
C625 C 0.53322 0.13386 0.96155 0.0
O626 O 0.45133 0.32746 0.44738 0.0
O627 O 0.51191 0.37515 0.9897 0.0
O628 O 0.54878 0.1591 0.99666 0.0
O629 O 0.55422 0.16898 0.41002 0.0
H630 H 0.47926 0.33734 0.52112 0.0
H631 H 0.43407 0.30623 0.55406 0.0
H632 H 0.4214 0.32952 0.53464 0.0
H633 H 0.44846 0.3403 0.59488 0.0
H634 H 0.50414 0.34248 0.43554 0.0
H635 H 0.41931 0.27961 0.3871 0.0
H636 H 0.53446 0.30175 0.40339 0.0
H637 H 0.54175 0.33781 0.40645 0.0
H638 H 0.53475 0.31785 0.33449 0.0
H639 H 0.40678 0.23639 0.33267 0.0
H640 H 0.43171 0.2245 0.33955 0.0
H641 H 0.43046 0.24227 0.27445 0.0
H642 H 0.54994 0.17572 0.49981 0.0
H643 H 0.591 0.1718 0.53593 0.0
H644 H 0.59866 0.20071 0.4896 0.0
H645 H 0.59888 0.17019 0.45777 0.0
H646 H 0.50073 0.15085 0.40691 0.0
H647 H 0.5808 0.22019 0.37712 0.0
H648 H 0.46118 0.17062 0.32093 0.0
H649 H 0.46303 0.18701 0.39405 0.0
H650 H 0.45926 0.15224 0.38802 0.0
H651 H 0.58677 0.26546 0.35751 0.0
H652 H 0.55731 0.27087 0.35288 0.0
H653 H 0.56528 0.25609 0.28802 0.0
H654 H 0.51233 0.12153 0.97951 0.0
H655 H 0.49841 0.15396 0.9749 0.0
H656 H 0.5835 0.20999 0.03881 0.0
H657 H 0.46875 0.18539 0.04098 0.0
H658 H 0.46573 0.16923 0.9663 0.0
H659 H 0.47752 0.20654 0.97701 0.0
H660 H 0.60003 0.25858 0.0676 0.0
H661 H 0.57628 0.25632 0.12289 0.0
H662 H 0.57759 0.27318 0.05439 0.0
H663 H 0.55069 0.40915 0.01166 0.0
H664 H 0.53432 0.43036 0.09207 0.0
H665 H 0.52563 0.395 0.10705 0.0
H666 H 0.4991 0.40149 0.07579 0.0
H667 H 0.47442 0.32382 0.95871 0.0
H668 H 0.55349 0.37541 0.05763 0.0
H669 H 0.45552 0.26209 0.02803 0.0
H670 H 0.47277 0.25883 0.96429 0.0
H671 H 0.45063 0.27403 0.95617 0.0
H672 H 0.57858 0.35599 0.10242 0.0
H673 H 0.56682 0.31897 0.08608 0.0
H674 H 0.55418 0.32994 0.14881 0.0
H675 H 0.49399 0.24381 0.39883 0.0
H676 H 0.51487 0.19523 0.24251 0.0
H677 H 0.52147 0.19982 0.1374 0.0
H678 H 0.52482 0.26561 0.99524 0.0
H679 H 0.4906 0.30507 0.14461 0.0
H680 H 0.4808 0.29805 0.2487 0.0
H681 H 0.5313 0.0938 0.97348 0.0
H682 H 0.55917 0.12197 0.01005 0.0
H683 H 0.57538 0.12012 0.86506 0.0
C684 C 0.99088 0.454 0.82888 0.0
C685 C 0.0641 0.47898 0.73947 0.0
C686 C 0.05914 0.57067 0.68466 0.0
Mg687 Mg 0.00377 0.45124 0.69401 0.0
O688 O 0.00311 0.48507 0.6993 0.0
Mg689 Mg 0.02941 0.51466 0.76306 0.0
Mg690 Mg 0.01436 0.5071 0.62649 0.0
O691 O 0.02604 0.52881 0.55348 0.0
Mg692 Mg 0.03003 0.56455 0.5545 0.0
Mg693 Mg 0.99916 0.49964 0.49026 0.0
C694 C 0.96885 0.4432 0.56904 0.0
C695 C 0.04415 0.48211 0.53945 0.0
O696 O 0.00457 0.4812 0.83158 0.0
O697 O 0.98796 0.43859 0.78084 0.0
O698 O 0.06035 0.49825 0.764 0.0
O699 O 0.04583 0.45998 0.70137 0.0
O700 O 0.97679 0.43273 0.6111 0.0
O701 O 0.9786 0.47005 0.56843 0.0
C702 C 0.98431 0.53188 0.71378 0.0
O703 O 0.98668 0.52497 0.659 0.0
O704 O 0.99811 0.52958 0.75868 0.0
O705 O 0.02389 0.53258 0.41881 0.0
O706 O 0.04783 0.57539 0.47016 0.0
O707 O 0.96839 0.51687 0.49544 0.0
C708 C 0.04154 0.55929 0.42167 0.0
O709 O 0.9895 0.55903 0.54715 0.0
O710 O 0.05405 0.58176 0.63964 0.0
C711 C 0.96811 0.53853 0.51872 0.0
O712 O 0.0498 0.54397 0.68546 0.0
O713 O 0.04172 0.48947 0.59373 0.0
O714 O 0.03024 0.48369 0.49351 0.0
C715 C 0.49866 0.05669 0.8023 0.0
C716 C 0.44295 0.96993 0.72431 0.0
C717 C 0.53465 0.96679 0.69664 0.0
Mg718 Mg 0.47709 0.02709 0.67316 0.0
O719 O 0.51044 0.0269 0.68644 0.0
Mg720 Mg 0.51287 0.0061 0.75671 0.0
Mg721 Mg 0.51973 0.00826 0.62072 0.0
O722 O 0.52917 0.98927 0.55622 0.0
Mg723 Mg 0.5612 0.98633 0.57079 0.0
Mg724 Mg 0.52841 0.01109 0.48686 0.0
C725 C 0.50531 0.05085 0.54946 0.0
C726 C 0.46528 0.97308 0.52564 0.0
O727 O 0.5091 0.04085 0.8134 0.0
O728 O 0.48483 0.05416 0.75242 0.0
O729 O 0.46556 0.9753 0.75329 0.0
O730 O 0.44254 0.98631 0.6857 0.0
O731 O 0.48619 0.04567 0.58598 0.0
O732 O 0.52168 0.04066 0.55576 0.0
C733 C 0.57525 0.04348 0.71288 0.0
O734 O 0.56534 0.03668 0.65755 0.0
O735 O 0.55954 0.03497 0.75692 0.0
O736 O 0.53296 0.9768 0.42871 0.0
O737 O 0.55305 0.95963 0.49103 0.0
O738 O 0.57613 0.04157 0.49661 0.0
C739 C 0.54136 0.95922 0.43963 0.0
O740 O 0.59717 0.02637 0.56028 0.0
O741 O 0.55264 0.96889 0.65962 0.0
C742 C 0.59794 0.04468 0.52559 0.0
O743 O 0.51829 0.97659 0.68692 0.0
O744 O 0.47396 0.98004 0.58182 0.0
O745 O 0.48182 0.98178 0.48305 0.0
C746 C 0.53937 0.56794 0.41874 0.0
C747 C 0.5891 0.53807 0.50009 0.0
C748 C 0.49445 0.45316 0.57202 0.0
Mg749 Mg 0.56291 0.57137 0.54989 0.0
O750 O 0.52845 0.53908 0.55292 0.0
Mg751 Mg 0.51891 0.50759 0.48958 0.0
Mg752 Mg 0.52287 0.51839 0.6275 0.0
O753 O 0.51715 0.49779 0.7021 0.0
Mg754 Mg 0.48272 0.46535 0.70639 0.0
Mg755 Mg 0.52723 0.52923 0.76594 0.0
C756 C 0.55188 0.58356 0.68494 0.0
C757 C 0.58277 0.54074 0.70034 0.0
O758 O 0.52516 0.54077 0.4187 0.0
O759 O 0.55451 0.58368 0.46519 0.0
O760 O 0.5648 0.51935 0.47825 0.0
O761 O 0.59306 0.55874 0.53595 0.0
O762 O 0.56497 0.59222 0.63692 0.0
O763 O 0.53206 0.55789 0.68736 0.0
C764 C 0.46292 0.49643 0.55438 0.0
O765 O 0.47664 0.50388 0.6064 0.0
O766 O 0.47446 0.49668 0.50522 0.0
O767 O 0.52309 0.49622 0.83504 0.0
O768 O 0.49319 0.45318 0.78949 0.0
O769 O 0.48118 0.51682 0.77936 0.0
C770 C 0.50968 0.46904 0.83442 0.0
O771 O 0.45242 0.47703 0.724 0.0
O772 O 0.48074 0.44461 0.61931 0.0
C773 C 0.45653 0.4977 0.76006 0.0
O774 O 0.51388 0.47889 0.56863 0.0
O775 O 0.56916 0.5326 0.64832 0.0
O776 O 0.57152 0.54119 0.74931 0.0
C777 C 0.07515 0.44026 0.47092 0.0
C778 C 0.09982 0.44965 0.50778 0.0
C779 C 0.05752 0.4512 0.48098 0.0
C780 C 0.06347 0.47139 0.52925 0.0
H781 H 0.06924 0.42413 0.4343 0.0
H782 H 0.03876 0.4433 0.45149 0.0
S783 S 0.12532 0.5029 0.63902 0.0
N784 N 0.1292 0.48034 0.59446 0.0
N785 N 0.09596 0.50073 0.61366 0.0
C786 C 0.08794 0.48087 0.56665 0.0
C787 C 0.10606 0.46998 0.55595 0.0
C788 C 0.67304 0.08819 0.48998 0.0
C789 C 0.67694 0.1156 0.48775 0.0
C790 C 0.64761 0.06551 0.50412 0.0
C791 C 0.62503 0.06932 0.51555 0.0
H792 H 0.68977 0.08425 0.48033 0.0
H793 H 0.64537 0.0447 0.50446 0.0
S794 S 0.62505 0.137 0.5218 0.0
N795 N 0.65656 0.1455 0.50312 0.0
N796 N 0.6085 0.10255 0.52817 0.0
C797 C 0.62871 0.09657 0.51491 0.0
C798 C 0.65474 0.1198 0.50149 0.0
C799 C 0.51608 0.58112 0.26579 0.0
C800 C 0.53776 0.60829 0.25508 0.0
C801 C 0.5169 0.56801 0.31826 0.0
C802 C 0.53902 0.58188 0.36297 0.0
H803 H 0.49822 0.56988 0.23352 0.0
H804 H 0.49981 0.54706 0.32427 0.0
S805 S 0.60048 0.65373 0.35799 0.0
N806 N 0.58176 0.64875 0.29414 0.0
N807 N 0.58309 0.62458 0.39328 0.0
C808 C 0.56062 0.60927 0.35331 0.0
C809 C 0.55998 0.62238 0.29944 0.0
C810 C 0.89212 0.51752 0.49549 0.0
C811 C 0.89335 0.54373 0.49265 0.0
C812 C 0.91638 0.51593 0.50408 0.0
C813 C 0.94267 0.54051 0.51075 0.0
H814 H 0.87226 0.49808 0.49075 0.0
H815 H 0.91449 0.49534 0.50627 0.0
S816 S 0.95715 0.61435 0.50701 0.0
N817 N 0.92301 0.59481 0.49727 0.0
N818 N 0.96851 0.59189 0.51402 0.0
C819 C 0.94415 0.56688 0.50881 0.0
C820 C 0.91953 0.56847 0.49959 0.0
C821 C 0.39946 0.91719 0.43868 0.0
C822 C 0.37934 0.92388 0.45692 0.0
C823 C 0.42694 0.93239 0.46369 0.0
C824 C 0.43543 0.95491 0.50774 0.0
H825 H 0.39423 0.90077 0.40312 0.0
H826 H 0.44189 0.92705 0.44701 0.0
S827 S 0.39175 0.98252 0.56749 0.0
N828 N 0.37027 0.95531 0.52032 0.0
N829 N 0.42219 0.98423 0.56621 0.0
C830 C 0.41568 0.96179 0.52674 0.0
C831 C 0.38761 0.94626 0.50144 0.0
C832 C 0.45548 0.38306 0.48919 0.0
C833 C 0.47377 0.37282 0.50135 0.0
C834 C 0.46376 0.41148 0.50332 0.0
C835 C 0.4908 0.43065 0.52797 0.0
H836 H 0.43396 0.36858 0.47414 0.0
H837 H 0.44816 0.4178 0.501 0.0
S838 S 0.54857 0.41626 0.55227 0.0
N839 N 0.5216 0.38533 0.52818 0.0
N840 N 0.5372 0.43893 0.55257 0.0
C841 C 0.51034 0.42166 0.53123 0.0
C842 C 0.5018 0.39261 0.51848 0.0
C843 C 0.49061 0.89414 0.80909 0.0
C844 C 0.52322 0.89587 0.84001 0.0
C845 C 0.49603 0.92083 0.7572 0.0
C846 C 0.53073 0.94961 0.74773 0.0
H847 H 0.47054 0.87522 0.80986 0.0
H848 H 0.47865 0.91864 0.72902 0.0
S849 S 0.60405 0.96333 0.83537 0.0
N850 N 0.58223 0.93339 0.8673 0.0
N851 N 0.58722 0.97394 0.78758 0.0
C852 C 0.56063 0.95403 0.79234 0.0
C853 C 0.55757 0.92904 0.84454 0.0
C854 C 0.66214 0.53957 0.69129 0.0
C855 C 0.68063 0.56848 0.7532 0.0
C856 C 0.62621 0.52986 0.67323 0.0
C857 C 0.61249 0.55104 0.70545 0.0
H858 H 0.67007 0.52599 0.67678 0.0
H859 H 0.6127 0.51084 0.64482 0.0
S860 S 0.65476 0.62239 0.82408 0.0
N861 N 0.68112 0.61604 0.81527 0.0
N862 N 0.62577 0.59936 0.78108 0.0
C863 C 0.6342 0.58323 0.75212 0.0
C864 C 0.66958 0.59456 0.77222 0.0
C865 C 0.12375 0.63061 0.75043 0.0
C866 C 0.11387 0.64868 0.76937 0.0
C867 C 0.10534 0.60194 0.73382 0.0
C868 C 0.07657 0.59068 0.73509 0.0
H869 H 0.14549 0.63925 0.74248 0.0
H870 H 0.11337 0.58969 0.71192 0.0
S871 S 0.04058 0.62722 0.79339 0.0
N872 N 0.07374 0.65182 0.79843 0.0
N873 N 0.03939 0.59799 0.76678 0.0
C874 C 0.06686 0.60741 0.76216 0.0
C875 C 0.08545 0.63656 0.77889 0.0
C876 C 0.50525 0.1258 0.86544 0.0
C877 C 0.5318 0.14039 0.89658 0.0
C878 C 0.49414 0.09827 0.83734 0.0
C879 C 0.50852 0.08316 0.8398 0.0
H880 H 0.49169 0.13458 0.86892 0.0
H881 H 0.47334 0.08822 0.81549 0.0
S882 S 0.59149 0.1182 0.94504 0.0
N883 N 0.58262 0.1502 0.91808 0.0
N884 N 0.55399 0.08591 0.89862 0.0
C885 C 0.53588 0.09834 0.86311 0.0
C886 C 0.55238 0.13659 0.87506 0.0
C887 C 0.41594 0.50478 0.88549 0.0
C888 C 0.38967 0.48041 0.87323 0.0
C889 C 0.43689 0.51227 0.84506 0.0
C890 C 0.43236 0.49564 0.79081 0.0
H891 H 0.42098 0.51693 0.92869 0.0
H892 H 0.45738 0.52985 0.85898 0.0
S893 S 0.36521 0.43352 0.73144 0.0
N894 N 0.35892 0.44242 0.79859 0.0
N895 N 0.39793 0.45673 0.72216 0.0
C896 C 0.40517 0.47323 0.77486 0.0
C897 C 0.38396 0.46549 0.81626 0.0
C898 C 0.94223 0.43284 0.95491 0.0
C899 C 0.93987 0.40701 0.97022 0.0
C900 C 0.96035 0.44902 0.91202 0.0
C901 C 0.97602 0.43949 0.88133 0.0
H902 H 0.92937 0.44028 0.97452 0.0
H903 H 0.96086 0.46828 0.90029 0.0
S904 S 0.97816 0.37399 0.90491 0.0
N905 N 0.95568 0.37334 0.9521 0.0
N906 N 0.98906 0.40342 0.87016 0.0
C907 C 0.97434 0.41411 0.8967 0.0
C908 C 0.95634 0.3979 0.94118 0.0
C909 C 0.92244 0.5434 0.69634 0.0
C910 C 0.92289 0.55623 0.75348 0.0
C911 C 0.94292 0.53657 0.68311 0.0
C912 C 0.96433 0.54164 0.72666 0.0
H913 H 0.90605 0.53808 0.66153 0.0
H914 H 0.94134 0.52627 0.63912 0.0
S915 S 0.97458 0.57428 0.88332 0.0
N916 N 0.94654 0.57355 0.85367 0.0
N917 N 0.98469 0.56043 0.82944 0.0
C918 C 0.96506 0.55452 0.78378 0.0
C919 C 0.94442 0.56174 0.79696 0.0
C920 C 0.36582 0.92176 0.7397 0.0
C921 C 0.36511 0.90095 0.77587 0.0
C922 C 0.39099 0.94344 0.7215 0.0
C923 C 0.41644 0.94516 0.73882 0.0
H924 H 0.34681 0.92162 0.72638 0.0
H925 H 0.39048 0.95943 0.69525 0.0
S926 S 0.42538 0.8937 0.82717 0.0
N927 N 0.39163 0.88166 0.82309 0.0
N928 N 0.43899 0.92272 0.79036 0.0
C929 C 0.41584 0.92369 0.7727 0.0
C930 C 0.39018 0.90147 0.79063 0.0
C931 C 0.49714 0.41222 0.94053 0.0
C932 C 0.52369 0.4218 0.96914 0.0
C933 C 0.49264 0.42825 0.89881 0.0
C934 C 0.51428 0.45484 0.88522 0.0
H935 H 0.47982 0.39182 0.9492 0.0
H936 H 0.4721 0.41949 0.87616 0.0
S937 S 0.58675 0.49111 0.95341 0.0
N938 N 0.57131 0.46067 0.9851 0.0
N939 N 0.5627 0.49104 0.90703 0.0
C940 C 0.54047 0.46552 0.91632 0.0
C941 C 0.54517 0.44899 0.95831 0.0
C942 C 0.09746 0.43748 0.78994 0.0
C943 C 0.10816 0.4499 0.849 0.0
C944 C 0.08612 0.44909 0.75053 0.0
C945 C 0.08552 0.47376 0.76853 0.0
H946 H 0.09597 0.41759 0.77561 0.0
H947 H 0.07577 0.43734 0.70782 0.0
S948 S 0.12015 0.51955 0.9099 0.0
N949 N 0.1238 0.49171 0.91751 0.0
N950 N 0.10347 0.5141 0.84292 0.0
C951 C 0.10038 0.48875 0.82339 0.0
C952 C 0.11143 0.47665 0.86386 0.0
C953 C 0.65078 0.09894 0.6997 0.0
C954 C 0.66415 0.09753 0.75403 0.0
C955 C 0.62218 0.08093 0.68608 0.0
C956 C 0.60562 0.06138 0.72679 0.0
H957 H 0.66218 0.11422 0.6675 0.0
H958 H 0.6128 0.08297 0.64422 0.0
S959 S 0.62996 0.04976 0.87576 0.0
N960 N 0.65823 0.07517 0.84904 0.0
N961 N 0.60455 0.04159 0.82364 0.0
C962 C 0.61856 0.05985 0.7813 0.0
C963 C 0.6477 0.07791 0.79488 0.0
C964 C 0.5579 0.6143 0.8459 0.0
C965 C 0.58415 0.63902 0.84989 0.0
C966 C 0.54737 0.59663 0.7923 0.0
C967 C 0.56271 0.60304 0.74061 0.0
H968 H 0.54551 0.60846 0.88483 0.0
H969 H 0.5271 0.57781 0.79155 0.0
S970 S 0.63325 0.665 0.72847 0.0
N971 N 0.62572 0.6685 0.7984 0.0
N972 N 0.60594 0.636 0.69741 0.0
C973 C 0.58906 0.62786 0.74409 0.0
C974 C 0.59984 0.64558 0.79882 0.0
C975 C 0.51868 0.12328 0.51637 0.0
C976 C 0.54095 0.13299 0.47906 0.0
C977 C 0.50537 0.09559 0.53356 0.0
C978 C 0.51407 0.0764 0.51515 0.0
H979 H 0.51221 0.13757 0.53481 0.0
H980 H 0.48943 0.09005 0.56526 0.0
S981 S 0.56578 0.08891 0.4025 0.0
N982 N 0.56676 0.11947 0.41247 0.0
N983 N 0.54256 0.06749 0.44747 0.0
C984 C 0.53432 0.08491 0.47259 0.0
C985 C 0.54753 0.11315 0.45386 0.0
C986 C 0.39303 0.48679 0.59415 0.0
C987 C 0.37485 0.46915 0.54487 0.0
C988 C 0.42135 0.49515 0.59736 0.0
C989 C 0.43283 0.48693 0.55069 0.0
H990 H 0.38558 0.49433 0.63071 0.0
H991 H 0.43443 0.50859 0.63626 0.0
S992 S 0.39459 0.44223 0.41021 0.0
N993 N 0.37076 0.4448 0.44732 0.0
N994 N 0.42383 0.46054 0.45313 0.0
C995 C 0.41504 0.46981 0.50065 0.0
C996 C 0.38621 0.4611 0.49768 0.0
C997 C 0.90098 0.37657 0.52279 0.0
C998 C 0.88755 0.3857 0.48233 0.0
C999 C 0.92835 0.39466 0.54578 0.0
C1000 C 0.94339 0.42297 0.53036 0.0
H1001 H 0.8898 0.35567 0.53926 0.0
H1002 H 0.93697 0.38673 0.57924 0.0
S1003 S 0.91951 0.45505 0.41523 0.0
N1004 N 0.8926 0.42311 0.41956 0.0
N1005 N 0.94411 0.45744 0.46358 0.0
C1006 C 0.93105 0.43148 0.48543 0.0
C1007 C 0.90312 0.41283 0.4614 0.0
C1008 C 0.52864 0.88736 0.38801 0.0
C1009 C 0.50337 0.87586 0.35264 0.0
C1010 C 0.54291 0.91577 0.40964 0.0
C1011 C 0.53218 0.93372 0.39785 0.0
H1012 H 0.53667 0.87395 0.40219 0.0
H1013 H 0.5613 0.92303 0.44004 0.0
S1014 S 0.47014 0.9154 0.29537 0.0
N1015 N 0.47112 0.88578 0.29648 0.0
N1016 N 0.49723 0.93904 0.33945 0.0
C1017 C 0.50865 0.92331 0.35669 0.0
C1018 C 0.49434 0.89436 0.33375 0.0
C1019 C 0.63887 0.53736 0.34938 0.0
C1020 C 0.6731 0.5564 0.39508 0.0
C1021 C 0.60897 0.52713 0.39341 0.0
C1022 C 0.61341 0.54015 0.47227 0.0
H1023 H 0.63677 0.52864 0.30342 0.0
H1024 H 0.58832 0.5144 0.37151 0.0
S1025 S 0.68799 0.59476 0.57009 0.0
N1026 N 0.70126 0.59172 0.50487 0.0
N1027 N 0.65294 0.57622 0.56555 0.0
C1028 C 0.64726 0.56457 0.5084 0.0
C1029 C 0.6778 0.57576 0.46948 0.0
C1030 C 0.05344 0.59234 0.27205 0.0
C1031 C 0.08265 0.61019 0.27573 0.0
C1032 C 0.04019 0.57377 0.3171 0.0
C1033 C 0.05556 0.57286 0.36784 0.0
H1034 H 0.0404 0.59318 0.23563 0.0
H1035 H 0.0177 0.56145 0.31421 0.0
S1036 S 0.13202 0.61366 0.39821 0.0
N1037 N 0.12625 0.62417 0.33316 0.0
N1038 N 0.10116 0.58992 0.41838 0.0
C1039 C 0.08459 0.58962 0.37114 0.0
C1040 C 0.09813 0.60812 0.32505 0.0
loop_
_geom_bond_atom_site_label_1
_geom_bond_atom_site_label_2
_geom_bond_distance
_geom_bond_site_symmetry_2
_ccdc_geom_bond_type
C0 C1 1.560 . S
C0 H61 0.959 . S
C0 H62 0.959 . S
C0 H63 0.960 . S
C1 C0 1.560 . S
C1 O56 1.426 . S
C1 H60 0.980 . S
C2 C3 1.407 . S
C2 C7 1.418 . S
C2 O56 1.334 . S
C3 C2 1.407 . S
C3 C4 1.360 . S
C3 H64 0.929 . S
C4 C3 1.360 . S
C4 C5 1.401 . S
C4 C8 1.527 . S
C5 C4 1.401 . S
C5 C6 1.405 . S
C5 C38 1.587 . S
C6 C5 1.405 . S
C6 C7 1.332 . S
C6 C9 1.496 . S
C7 C2 1.418 . S
C7 C6 1.332 . S
C7 H65 0.929 . S
C8 C4 1.527 . S
C8 H66 0.959 . S
C8 H67 0.961 . S
C8 H68 0.961 . S
C9 C6 1.496 . S
C9 H69 0.960 . S
C9 H70 0.960 . S
C9 H71 0.961 . S
C10 C11 1.517 . S
C10 H73 0.961 . S
C10 H74 0.960 . S
C10 H75 0.959 . S
C11 C10 1.517 . S
C11 O59 1.468 . S
C11 H72 0.980 . S
C12 C13 1.349 . S
C12 C17 1.367 . S
C12 O59 1.408 . S
C13 C12 1.349 . S
C13 C14 1.407 . S
C13 H76 0.930 . S
C14 C13 1.407 . S
C14 C15 1.449 . S
C14 C18 1.535 . S
C15 C14 1.449 . S
C15 C16 1.384 . S
C15 C40 1.553 . S
C16 C15 1.384 . S
C16 C17 1.364 . S
C16 C19 1.450 . S
C17 C12 1.367 . S
C17 C16 1.364 . S
C17 H77 0.931 . S
C18 C14 1.535 . S
C18 H78 0.959 . S
C18 H79 0.961 . S
C18 H80 0.959 . S
C19 C16 1.450 . S
C19 H81 0.960 . S
C19 H82 0.960 . S
C19 H83 0.960 . S
C20 C21 1.309 . S
C20 C25 1.304 . S
C20 O58 1.435 . S
C21 C20 1.309 . S
C21 C22 1.476 1_556 S
C21 H85 0.930 . S
C22 C21 1.476 1_554 S
C22 C23 1.400 . S
C22 C26 1.567 . S
C23 C22 1.400 . S
C23 C24 1.373 . S
C23 C45 1.432 . S
C24 C23 1.373 . S
C24 C25 1.339 1_554 S
C24 C27 1.530 . S
C25 C20 1.304 . S
C25 C24 1.339 1_556 S
C25 H86 0.930 . S
C26 C22 1.567 . S
C26 H87 0.961 . S
C26 H88 0.960 . S
C26 H89 0.958 . S
C27 C24 1.530 . S
C27 H90 0.961 1_554 S
C27 H91 0.960 . S
C27 H92 0.960 1_554 S
C28 C29 1.530 . S
C28 H94 0.961 . S
C28 H95 0.961 . S
C28 H96 0.959 . S
C29 C28 1.530 . S
C29 O57 1.412 . S
C29 H93 0.980 . S
C30 C31 1.288 . S
C30 C35 1.377 . S
C30 O57 1.393 . S
C31 C30 1.288 . S
C31 C32 1.369 1_556 S
C31 H97 0.932 . S
C32 C31 1.369 1_554 S
C32 C33 1.398 . S
C32 C36 1.527 . S
C33 C32 1.398 . S
C33 C34 1.380 . S
C33 C47 1.497 . S
C34 C33 1.380 . S
C34 C35 1.383 1_554 S
C34 C37 1.603 . S
C35 C30 1.377 . S
C35 C34 1.383 1_556 S
C35 H98 0.929 . S
C36 C32 1.527 . S
C36 H99 0.961 . S
C36 H100 0.959 . S
C36 H101 0.959 . S
C37 C34 1.603 . S
C37 H102 0.960 1_554 S
C37 H103 0.962 . S
C37 H104 0.961 . S
C38 C5 1.587 . S
C38 C39 1.360 . S
C38 C51 1.412 . S
C39 C38 1.360 . S
C39 C40 1.365 . S
C39 H105 0.929 . S
C40 C15 1.553 . S
C40 C39 1.365 . S
C40 C41 1.404 . S
C41 C40 1.404 . S
C41 C42 1.395 . S
C41 C52 1.451 . S
C42 C41 1.395 . S
C42 C43 1.322 . S
C42 H106 0.930 . S
C43 C42 1.322 . S
C43 C44 1.459 . S
C43 H107 0.929 . S
C44 C43 1.459 . S
C44 C45 1.445 . S
C44 C53 1.395 . S
C45 C23 1.432 . S
C45 C44 1.445 . S
C45 C46 1.370 . S
C46 C45 1.370 . S
C46 C47 1.438 . S
C46 H108 0.930 1_554 S
C47 C33 1.497 . S
C47 C46 1.438 . S
C47 C48 1.360 . S
C48 C47 1.360 . S
C48 C49 1.401 . S
C48 C53 1.446 . S
C49 C48 1.401 . S
C49 C50 1.347 . S
C49 H109 0.929 . S
C50 C49 1.347 . S
C50 C51 1.455 . S
C50 H110 0.930 . S
C51 C38 1.412 . S
C51 C50 1.455 . S
C51 C52 1.331 . S
C52 C41 1.451 . S
C52 C51 1.331 . S
C52 C53 1.497 . S
C53 C44 1.395 . S
C53 C48 1.446 . S
C53 C52 1.497 . S
C54 C55 1.582 . S
C54 H111 0.962 . S
C54 H112 0.959 . S
C54 H113 0.958 . S
C55 C54 1.582 . S
C55 O58 1.458 . S
C55 H84 0.980 . S
O56 C1 1.426 . S
O56 C2 1.334 . S
O57 C29 1.412 . S
O57 C30 1.393 . S
O58 C20 1.435 . S
O58 C55 1.458 . S
O59 C11 1.468 . S
O59 C12 1.408 . S
H60 C1 0.980 . S
H61 C0 0.959 . S
H62 C0 0.959 . S
H63 C0 0.960 . S
H64 C3 0.929 . S
H65 C7 0.929 . S
H66 C8 0.959 . S
H67 C8 0.961 . S
H68 C8 0.961 . S
H69 C9 0.960 . S
H70 C9 0.960 . S
H71 C9 0.961 . S
H72 C11 0.980 . S
H73 C10 0.961 . S
H74 C10 0.960 . S
H75 C10 0.959 . S
H76 C13 0.930 . S
H77 C17 0.931 . S
H78 C18 0.959 . S
H79 C18 0.961 . S
H80 C18 0.959 . S
H81 C19 0.960 . S
H82 C19 0.960 . S
H83 C19 0.960 . S
H84 C55 0.980 . S
H85 C21 0.930 . S
H86 C25 0.930 . S
H87 C26 0.961 . S
H88 C26 0.960 . S
H89 C26 0.958 . S
H90 C27 0.961 1_556 S
H91 C27 0.960 . S
H92 C27 0.960 1_556 S
H93 C29 0.980 . S
H94 C28 0.961 . S
H95 C28 0.961 . S
H96 C28 0.959 . S
H97 C31 0.932 . S
H98 C35 0.929 . S
H99 C36 0.961 . S
H100 C36 0.959 . S
H101 C36 0.959 . S
H102 C37 0.960 1_556 S
H103 C37 0.962 . S
H104 C37 0.961 . S
H105 C39 0.929 . S
H106 C42 0.930 . S
H107 C43 0.929 . S
H108 C46 0.930 1_556 S
H109 C49 0.929 . S
H110 C50 0.930 . S
H111 C54 0.962 . S
H112 C54 0.959 . S
H113 C54 0.958 . S
C114 C115 1.560 . S
C114 H175 0.959 . S
C114 H176 0.959 . S
C114 H177 0.960 . S
C115 C114 1.560 . S
C115 O170 1.426 . S
C115 H174 0.980 . S
C116 C117 1.407 . S
C116 C121 1.418 . S
C116 O170 1.334 . S
C117 C116 1.407 . S
C117 C118 1.360 . S
C117 H178 0.929 . S
C118 C117 1.360 . S
C118 C119 1.401 . S
C118 C122 1.527 . S
C119 C118 1.401 . S
C119 C120 1.405 . S
C119 C152 1.587 . S
C120 C119 1.405 . S
C120 C121 1.332 . S
C120 C123 1.496 . S
C121 C116 1.418 . S
C121 C120 1.332 . S
C121 H179 0.929 . S
C122 C118 1.527 . S
C122 H180 0.959 . S
C122 H181 0.961 . S
C122 H182 0.961 . S
C123 C120 1.496 . S
C123 H183 0.960 . S
C123 H184 0.960 . S
C123 H185 0.961 . S
C124 C125 1.517 . S
C124 H187 0.961 . S
C124 H188 0.960 . S
C124 H189 0.959 . S
C125 C124 1.517 . S
C125 O173 1.468 . S
C125 H186 0.980 . S
C126 C127 1.349 . S
C126 C131 1.367 . S
C126 O173 1.408 . S
C127 C126 1.349 . S
C127 C128 1.407 . S
C127 H190 0.930 . S
C128 C127 1.407 . S
C128 C129 1.449 . S
C128 C132 1.535 . S
C129 C128 1.449 . S
C129 C130 1.384 . S
C129 C154 1.553 . S
C130 C129 1.384 . S
C130 C131 1.364 . S
C130 C133 1.450 . S
C131 C126 1.367 . S
C131 C130 1.364 . S
C131 H191 0.931 . S
C132 C128 1.535 . S
C132 H192 0.959 . S
C132 H193 0.961 . S
C132 H194 0.959 . S
C133 C130 1.450 . S
C133 H195 0.960 . S
C133 H196 0.960 . S
C133 H197 0.960 . S
C134 C135 1.309 . S
C134 C139 1.304 . S
C134 O172 1.435 . S
C135 C134 1.309 . S
C135 C136 1.476 . S
C135 H199 0.930 . S
C136 C135 1.476 . S
C136 C137 1.400 . S
C136 C140 1.567 1_556 S
C137 C136 1.400 . S
C137 C138 1.373 . S
C137 C159 1.432 1_556 S
C138 C137 1.373 . S
C138 C139 1.339 . S
C138 C141 1.530 . S
C139 C134 1.304 . S
C139 C138 1.339 . S
C139 H200 0.930 . S
C140 C136 1.567 1_554 S
C140 H201 0.961 . S
C140 H202 0.960 . S
C140 H203 0.958 1_554 S
C141 C138 1.530 . S
C141 H204 0.961 . S
C141 H205 0.960 1_556 S
C141 H206 0.960 . S
C142 C143 1.530 . S
C142 H208 0.961 . S
C142 H209 0.961 . S
C142 H210 0.959 . S
C143 C142 1.530 . S
C143 O171 1.412 . S
C143 H207 0.980 . S
C144 C145 1.288 . S
C144 C149 1.377 . S
C144 O171 1.393 . S
C145 C144 1.288 . S
C145 C146 1.369 . S
C145 H211 0.932 . S
C146 C145 1.369 . S
C146 C147 1.398 . S
C146 C150 1.527 1_556 S
C147 C146 1.398 . S
C147 C148 1.380 . S
C147 C161 1.497 1_556 S
C148 C147 1.380 . S
C148 C149 1.383 . S
C148 C151 1.603 . S
C149 C144 1.377 . S
C149 C148 1.383 . S
C149 H212 0.929 . S
C150 C146 1.527 1_554 S
C150 H213 0.961 . S
C150 H214 0.959 1_554 S
C150 H215 0.959 1_554 S
C151 C148 1.603 . S
C151 H216 0.960 . S
C151 H217 0.962 1_556 S
C151 H218 0.961 1_556 S
C152 C119 1.587 . S
C152 C153 1.360 . S
C152 C165 1.412 . S
C153 C152 1.360 . S
C153 C154 1.365 . S
C153 H219 0.929 . S
C154 C129 1.553 . S
C154 C153 1.365 . S
C154 C155 1.404 . S
C155 C154 1.404 . S
C155 C156 1.395 . S
C155 C166 1.451 . S
C156 C155 1.395 . S
C156 C157 1.322 . S
C156 H220 0.930 . S
C157 C156 1.322 . S
C157 C158 1.459 . S
C157 H221 0.929 . S
C158 C157 1.459 . S
C158 C159 1.445 . S
C158 C167 1.395 . S
C159 C137 1.432 1_554 S
C159 C158 1.445 . S
C159 C160 1.370 . S
C160 C159 1.370 . S
C160 C161 1.438 . S
C160 H222 0.930 1_554 S
C161 C147 1.497 1_554 S
C161 C160 1.438 . S
C161 C162 1.360 . S
C162 C161 1.360 . S
C162 C163 1.401 . S
C162 C167 1.446 . S
C163 C162 1.401 . S
C163 C164 1.347 . S
C163 H223 0.929 . S
C164 C163 1.347 . S
C164 C165 1.455 . S
C164 H224 0.930 . S
C165 C152 1.412 . S
C165 C164 1.455 . S
C165 C166 1.331 . S
C166 C155 1.451 . S
C166 C165 1.331 . S
C166 C167 1.497 . S
C167 C158 1.395 . S
C167 C162 1.446 . S
C167 C166 1.497 . S
C168 C169 1.582 . S
C168 H225 0.962 . S
C168 H226 0.959 . S
C168 H227 0.958 . S
C169 C168 1.582 . S
C169 O172 1.458 . S
C169 H198 0.980 . S
O170 C115 1.426 . S
O170 C116 1.334 . S
O171 C143 1.412 . S
O171 C144 1.393 . S
O172 C134 1.435 . S
O172 C169 1.458 . S
O173 C125 1.468 . S
O173 C126 1.408 . S
H174 C115 0.980 . S
H175 C114 0.959 . S
H176 C114 0.959 . S
H177 C114 0.960 . S
H178 C117 0.929 . S
H179 C121 0.929 . S
H180 C122 0.959 . S
H181 C122 0.961 . S
H182 C122 0.961 . S
H183 C123 0.960 . S
H184 C123 0.960 . S
H185 C123 0.961 . S
H186 C125 0.980 . S
H187 C124 0.961 . S
H188 C124 0.960 . S
H189 C124 0.959 . S
H190 C127 0.930 . S
H191 C131 0.931 . S
H192 C132 0.959 . S
H193 C132 0.961 . S
H194 C132 0.959 . S
H195 C133 0.960 . S
H196 C133 0.960 . S
H197 C133 0.960 . S
H198 C169 0.980 . S
H199 C135 0.930 . S
H200 C139 0.930 . S
H201 C140 0.961 . S
H202 C140 0.960 . S
H203 C140 0.958 1_556 S
H204 C141 0.961 . S
H205 C141 0.960 1_554 S
H206 C141 0.960 . S
H207 C143 0.980 . S
H208 C142 0.961 . S
H209 C142 0.961 . S
H210 C142 0.959 . S
H211 C145 0.932 . S
H212 C149 0.929 . S
H213 C150 0.961 . S
H214 C150 0.959 1_556 S
H215 C150 0.959 1_556 S
H216 C151 0.960 . S
H217 C151 0.962 1_554 S
H218 C151 0.961 1_554 S
H219 C153 0.929 . S
H220 C156 0.930 . S
H221 C157 0.929 . S
H222 C160 0.930 1_556 S
H223 C163 0.929 . S
H224 C164 0.930 . S
H225 C168 0.962 . S
H226 C168 0.959 . S
H227 C168 0.958 . S
C228 C229 1.560 . S
C228 H289 0.959 . S
C228 H290 0.959 . S
C228 H291 0.960 . S
C229 C228 1.560 . S
C229 O284 1.426 . S
C229 H288 0.980 . S
C230 C231 1.407 . S
C230 C235 1.418 . S
C230 O284 1.334 . S
C231 C230 1.407 . S
C231 C232 1.360 . S
C231 H292 0.929 . S
C232 C231 1.360 . S
C232 C233 1.401 . S
C232 C236 1.527 . S
C233 C232 1.401 . S
C233 C234 1.405 . S
C233 C266 1.587 . S
C234 C233 1.405 . S
C234 C235 1.332 . S
C234 C237 1.496 . S
C235 C230 1.418 . S
C235 C234 1.332 . S
C235 H293 0.929 . S
C236 C232 1.527 . S
C236 H294 0.959 . S
C236 H295 0.961 . S
C236 H296 0.961 . S
C237 C234 1.496 . S
C237 H297 0.960 . S
C237 H298 0.960 . S
C237 H299 0.961 . S
C238 C239 1.517 . S
C238 H301 0.961 . S
C238 H302 0.960 . S
C238 H303 0.959 . S
C239 C238 1.517 . S
C239 O287 1.468 . S
C239 H300 0.980 . S
C240 C241 1.349 . S
C240 C245 1.367 . S
C240 O287 1.408 . S
C241 C240 1.349 . S
C241 C242 1.407 . S
C241 H304 0.930 . S
C242 C241 1.407 . S
C242 C243 1.449 . S
C242 C246 1.535 . S
C243 C242 1.449 . S
C243 C244 1.384 . S
C243 C268 1.553 . S
C244 C243 1.384 . S
C244 C245 1.364 . S
C244 C247 1.450 . S
C245 C240 1.367 . S
C245 C244 1.364 . S
C245 H305 0.931 . S
C246 C242 1.535 . S
C246 H306 0.959 . S
C246 H307 0.961 . S
C246 H308 0.959 . S
C247 C244 1.450 . S
C247 H309 0.960 . S
C247 H310 0.960 . S
C247 H311 0.960 . S
C248 C249 1.309 . S
C248 C253 1.304 . S
C248 O286 1.435 . S
C249 C248 1.309 . S
C249 C250 1.476 . S
C249 H313 0.930 . S
C250 C249 1.476 . S
C250 C251 1.400 . S
C250 C254 1.567 . S
C251 C250 1.400 . S
C251 C252 1.373 . S
C251 C273 1.432 . S
C252 C251 1.373 . S
C252 C253 1.339 . S
C252 C255 1.530 . S
C253 C248 1.304 . S
C253 C252 1.339 . S
C253 H314 0.930 . S
C254 C250 1.567 . S
C254 H315 0.961 . S
C254 H316 0.960 . S
C254 H317 0.958 . S
C255 C252 1.530 . S
C255 H318 0.961 . S
C255 H319 0.960 . S
C255 H320 0.960 . S
C256 C257 1.530 . S
C256 H322 0.961 . S
C256 H323 0.961 . S
C256 H324 0.959 . S
C257 C256 1.530 . S
C257 O285 1.412 . S
C257 H321 0.980 . S
C258 C259 1.288 . S
C258 C263 1.377 . S
C258 O285 1.393 . S
C259 C258 1.288 . S
C259 C260 1.369 . S
C259 H325 0.932 . S
C260 C259 1.369 . S
C260 C261 1.398 . S
C260 C264 1.527 . S
C261 C260 1.398 . S
C261 C262 1.380 . S
C261 C275 1.497 . S
C262 C261 1.380 . S
C262 C263 1.383 . S
C262 C265 1.603 . S
C263 C258 1.377 . S
C263 C262 1.383 . S
C263 H326 0.929 . S
C264 C260 1.527 . S
C264 H327 0.961 . S
C264 H328 0.959 . S
C264 H329 0.959 . S
C265 C262 1.603 . S
C265 H330 0.960 . S
C265 H331 0.962 . S
C265 H332 0.961 . S
C266 C233 1.587 . S
C266 C267 1.360 . S
C266 C279 1.412 . S
C267 C266 1.360 . S
C267 C268 1.365 . S
C267 H333 0.929 . S
C268 C243 1.553 . S
C268 C267 1.365 . S
C268 C269 1.404 . S
C269 C268 1.404 . S
C269 C270 1.395 . S
C269 C280 1.451 . S
C270 C269 1.395 . S
C270 C271 1.322 . S
C270 H334 0.930 . S
C271 C270 1.322 . S
C271 C272 1.459 1_554 S
C271 H335 0.929 1_554 S
C272 C271 1.459 1_556 S
C272 C273 1.445 . S
C272 C281 1.395 1_556 S
C273 C251 1.432 . S
C273 C272 1.445 . S
C273 C274 1.370 . S
C274 C273 1.370 . S
C274 C275 1.438 . S
C274 H336 0.930 . S
C275 C261 1.497 . S
C275 C274 1.438 . S
C275 C276 1.360 . S
C276 C275 1.360 . S
C276 C277 1.401 1_556 S
C276 C281 1.446 1_556 S
C277 C276 1.401 1_554 S
C277 C278 1.347 . S
C277 H337 0.929 1_554 S
C278 C277 1.347 . S
C278 C279 1.455 . S
C278 H338 0.930 . S
C279 C266 1.412 . S
C279 C278 1.455 . S
C279 C280 1.331 . S
C280 C269 1.451 . S
C280 C279 1.331 . S
C280 C281 1.497 . S
C281 C272 1.395 1_554 S
C281 C276 1.446 1_554 S
C281 C280 1.497 . S
C282 C283 1.582 . S
C282 H339 0.962 . S
C282 H340 0.959 . S
C282 H341 0.958 . S
C283 C282 1.582 . S
C283 O286 1.458 . S
C283 H312 0.980 . S
O284 C229 1.426 . S
O284 C230 1.334 . S
O285 C257 1.412 . S
O285 C258 1.393 . S
O286 C248 1.435 . S
O286 C283 1.458 . S
O287 C239 1.468 . S
O287 C240 1.408 . S
H288 C229 0.980 . S
H289 C228 0.959 . S
H290 C228 0.959 . S
H291 C228 0.960 . S
H292 C231 0.929 . S
H293 C235 0.929 . S
H294 C236 0.959 . S
H295 C236 0.961 . S
H296 C236 0.961 . S
H297 C237 0.960 . S
H298 C237 0.960 . S
H299 C237 0.961 . S
H300 C239 0.980 . S
H301 C238 0.961 . S
H302 C238 0.960 . S
H303 C238 0.959 . S
H304 C241 0.930 . S
H305 C245 0.931 . S
H306 C246 0.959 . S
H307 C246 0.961 . S
H308 C246 0.959 . S
H309 C247 0.960 . S
H310 C247 0.960 . S
H311 C247 0.960 . S
H312 C283 0.980 . S
H313 C249 0.930 . S
H314 C253 0.930 . S
H315 C254 0.961 . S
H316 C254 0.960 . S
H317 C254 0.958 . S
H318 C255 0.961 . S
H319 C255 0.960 . S
H320 C255 0.960 . S
H321 C257 0.980 . S
H322 C256 0.961 . S
H323 C256 0.961 . S
H324 C256 0.959 . S
H325 C259 0.932 . S
H326 C263 0.929 . S
H327 C264 0.961 . S
H328 C264 0.959 . S
H329 C264 0.959 . S
H330 C265 0.960 . S
H331 C265 0.962 . S
H332 C265 0.961 . S
H333 C267 0.929 . S
H334 C270 0.930 . S
H335 C271 0.929 1_556 S
H336 C274 0.930 . S
H337 C277 0.929 1_556 S
H338 C278 0.930 . S
H339 C282 0.962 . S
H340 C282 0.959 . S
H341 C282 0.958 . S
C342 C343 1.560 . S
C342 H403 0.959 . S
C342 H404 0.959 . S
C342 H405 0.960 . S
C343 C342 1.560 . S
C343 O398 1.426 . S
C343 H402 0.980 . S
C344 C345 1.407 . S
C344 C349 1.418 . S
C344 O398 1.334 . S
C345 C344 1.407 . S
C345 C346 1.360 . S
C345 H406 0.929 . S
C346 C345 1.360 . S
C346 C347 1.401 . S
C346 C350 1.527 . S
C347 C346 1.401 . S
C347 C348 1.405 . S
C347 C380 1.587 . S
C348 C347 1.405 . S
C348 C349 1.332 . S
C348 C351 1.496 . S
C349 C344 1.418 . S
C349 C348 1.332 . S
C349 H407 0.929 . S
C350 C346 1.527 . S
C350 H408 0.959 . S
C350 H409 0.961 . S
C350 H410 0.961 . S
C351 C348 1.496 . S
C351 H411 0.960 . S
C351 H412 0.960 . S
C351 H413 0.961 . S
C352 C353 1.517 . S
C352 H415 0.961 . S
C352 H416 0.960 . S
C352 H417 0.959 . S
C353 C352 1.517 . S
C353 O401 1.468 . S
C353 H414 0.980 . S
C354 C355 1.349 . S
C354 C359 1.367 . S
C354 O401 1.408 . S
C355 C354 1.349 . S
C355 C356 1.407 . S
C355 H418 0.930 . S
C356 C355 1.407 . S
C356 C357 1.449 . S
C356 C360 1.535 . S
C357 C356 1.449 . S
C357 C358 1.384 . S
C357 C382 1.553 . S
C358 C357 1.384 . S
C358 C359 1.364 . S
C358 C361 1.450 . S
C359 C354 1.367 . S
C359 C358 1.364 . S
C359 H419 0.931 . S
C360 C356 1.535 . S
C360 H420 0.959 . S
C360 H421 0.961 . S
C360 H422 0.959 . S
C361 C358 1.450 . S
C361 H423 0.960 . S
C361 H424 0.960 . S
C361 H425 0.960 . S
C362 C363 1.309 . S
C362 C367 1.304 . S
C362 O400 1.435 . S
C363 C362 1.309 . S
C363 C364 1.476 . S
C363 H427 0.930 . S
C364 C363 1.476 . S
C364 C365 1.400 . S
C364 C368 1.567 . S
C365 C364 1.400 . S
C365 C366 1.373 . S
C365 C387 1.432 . S
C366 C365 1.373 . S
C366 C367 1.339 . S
C366 C369 1.530 . S
C367 C362 1.304 . S
C367 C366 1.339 . S
C367 H428 0.930 . S
C368 C364 1.567 . S
C368 H429 0.961 . S
C368 H430 0.960 . S
C368 H431 0.958 . S
C369 C366 1.530 . S
C369 H432 0.961 . S
C369 H433 0.960 . S
C369 H434 0.960 . S
C370 C371 1.530 . S
C370 H436 0.961 . S
C370 H437 0.961 . S
C370 H438 0.959 . S
C371 C370 1.530 . S
C371 O399 1.412 . S
C371 H435 0.980 . S
C372 C373 1.288 . S
C372 C377 1.377 . S
C372 O399 1.393 . S
C373 C372 1.288 . S
C373 C374 1.369 . S
C373 H439 0.932 . S
C374 C373 1.369 . S
C374 C375 1.398 . S
C374 C378 1.527 . S
C375 C374 1.398 . S
C375 C376 1.380 . S
C375 C389 1.497 . S
C376 C375 1.380 . S
C376 C377 1.383 . S
C376 C379 1.603 . S
C377 C372 1.377 . S
C377 C376 1.383 . S
C377 H440 0.929 . S
C378 C374 1.527 . S
C378 H441 0.961 . S
C378 H442 0.959 . S
C378 H443 0.959 . S
C379 C376 1.603 . S
C379 H444 0.960 . S
C379 H445 0.962 . S
C379 H446 0.961 . S
C380 C347 1.587 . S
C380 C381 1.360 . S
C380 C393 1.412 . S
C381 C380 1.360 . S
C381 C382 1.365 . S
C381 H447 0.929 . S
C382 C357 1.553 . S
C382 C381 1.365 . S
C382 C383 1.404 . S
C383 C382 1.404 . S
C383 C384 1.395 . S
C383 C394 1.451 . S
C384 C383 1.395 . S
C384 C385 1.322 . S
C384 H448 0.930 . S
C385 C384 1.322 . S
C385 C386 1.459 . S
C385 H449 0.929 . S
C386 C385 1.459 . S
C386 C387 1.445 1_554 S
C386 C395 1.395 . S
C387 C365 1.432 . S
C387 C386 1.445 1_556 S
C387 C388 1.370 . S
C388 C387 1.370 . S
C388 C389 1.438 . S
C388 H450 0.930 . S
C389 C375 1.497 . S
C389 C388 1.438 . S
C389 C390 1.360 1_556 S
C390 C389 1.360 1_554 S
C390 C391 1.401 . S
C390 C395 1.446 . S
C391 C390 1.401 . S
C391 C392 1.347 . S
C391 H451 0.929 . S
C392 C391 1.347 . S
C392 C393 1.455 . S
C392 H452 0.930 . S
C393 C380 1.412 . S
C393 C392 1.455 . S
C393 C394 1.331 . S
C394 C383 1.451 . S
C394 C393 1.331 . S
C394 C395 1.497 . S
C395 C386 1.395 . S
C395 C390 1.446 . S
C395 C394 1.497 . S
C396 C397 1.582 . S
C396 H453 0.962 . S
C396 H454 0.959 . S
C396 H455 0.958 . S
C397 C396 1.582 . S
C397 O400 1.458 . S
C397 H426 0.980 . S
O398 C343 1.426 . S
O398 C344 1.334 . S
O399 C371 1.412 . S
O399 C372 1.393 . S
O400 C362 1.435 . S
O400 C397 1.458 . S
O401 C353 1.468 . S
O401 C354 1.408 . S
H402 C343 0.980 . S
H403 C342 0.959 . S
H404 C342 0.959 . S
H405 C342 0.960 . S
H406 C345 0.929 . S
H407 C349 0.929 . S
H408 C350 0.959 . S
H409 C350 0.961 . S
H410 C350 0.961 . S
H411 C351 0.960 . S
H412 C351 0.960 . S
H413 C351 0.961 . S
H414 C353 0.980 . S
H415 C352 0.961 . S
H416 C352 0.960 . S
H417 C352 0.959 . S
H418 C355 0.930 . S
H419 C359 0.931 . S
H420 C360 0.959 . S
H421 C360 0.961 . S
H422 C360 0.959 . S
H423 C361 0.960 . S
H424 C361 0.960 . S
H425 C361 0.960 . S
H426 C397 0.980 . S
H427 C363 0.930 . S
H428 C367 0.930 . S
H429 C368 0.961 . S
H430 C368 0.960 . S
H431 C368 0.958 . S
H432 C369 0.961 . S
H433 C369 0.960 . S
H434 C369 0.960 . S
H435 C371 0.980 . S
H436 C370 0.961 . S
H437 C370 0.961 . S
H438 C370 0.959 . S
H439 C373 0.932 . S
H440 C377 0.929 . S
H441 C378 0.961 . S
H442 C378 0.959 . S
H443 C378 0.959 . S
H444 C379 0.960 . S
H445 C379 0.962 . S
H446 C379 0.961 . S
H447 C381 0.929 . S
H448 C384 0.930 . S
H449 C385 0.929 . S
H450 C388 0.930 . S
H451 C391 0.929 . S
H452 C392 0.930 . S
H453 C396 0.962 . S
H454 C396 0.959 . S
H455 C396 0.958 . S
C456 C457 1.560 . S
C456 H517 0.959 . S
C456 H518 0.959 . S
C456 H519 0.960 . S
C457 C456 1.560 . S
C457 O512 1.426 . S
C457 H516 0.980 . S
C458 C459 1.407 . S
C458 C463 1.418 . S
C458 O512 1.334 . S
C459 C458 1.407 . S
C459 C460 1.360 . S
C459 H520 0.929 . S
C460 C459 1.360 . S
C460 C461 1.401 . S
C460 C464 1.527 . S
C461 C460 1.401 . S
C461 C462 1.405 . S
C461 C494 1.587 . S
C462 C461 1.405 . S
C462 C463 1.332 . S
C462 C465 1.496 . S
C463 C458 1.418 . S
C463 C462 1.332 . S
C463 H521 0.929 . S
C464 C460 1.527 . S
C464 H522 0.959 . S
C464 H523 0.961 . S
C464 H524 0.961 . S
C465 C462 1.496 . S
C465 H525 0.960 . S
C465 H526 0.960 . S
C465 H527 0.976 . S
C466 C467 1.517 . S
C466 H529 0.961 . S
C466 H530 0.960 . S
C466 H531 0.959 . S
C467 C466 1.517 . S
C467 O515 1.468 . S
C467 H528 0.980 . S
C468 C469 1.349 . S
C468 C473 1.367 . S
C468 O515 1.408 . S
C469 C468 1.349 . S
C469 C470 1.407 . S
C469 H532 0.930 . S
C470 C469 1.407 . S
C470 C471 1.449 . S
C470 C474 1.535 . S
C471 C470 1.449 . S
C471 C472 1.384 . S
C471 C496 1.553 . S
C472 C471 1.384 . S
C472 C473 1.364 . S
C472 C475 1.450 . S
C473 C468 1.367 . S
C473 C472 1.364 . S
C473 H533 0.931 . S
C474 C470 1.535 . S
C474 H534 0.959 . S
C474 H535 0.961 . S
C474 H536 0.959 . S
C475 C472 1.450 . S
C475 H537 0.960 . S
C475 H538 0.960 . S
C475 H539 0.960 . S
C476 C477 1.309 . S
C476 C481 1.304 . S
C476 O514 1.435 . S
C477 C476 1.309 . S
C477 C478 1.476 . S
C477 H541 0.930 . S
C478 C477 1.476 . S
C478 C479 1.400 . S
C478 C482 1.567 . S
C479 C478 1.400 . S
C479 C480 1.373 . S
C479 C501 1.432 . S
C480 C479 1.373 . S
C480 C481 1.339 . S
C480 C483 1.530 . S
C481 C476 1.304 . S
C481 C480 1.339 . S
C481 H542 0.930 . S
C482 C478 1.567 . S
C482 H543 0.961 . S
C482 H544 0.960 . S
C482 H545 0.958 . S
C483 C480 1.530 . S
C483 H546 0.961 . S
C483 H547 0.960 . S
C483 H548 0.960 . S
C484 C485 1.530 . S
C484 H550 0.961 . S
C484 H551 0.961 . S
C484 H552 0.959 . S
C485 C484 1.530 . S
C485 O513 1.412 . S
C485 H549 0.980 . S
C486 C487 1.288 . S
C486 C491 1.377 . S
C486 O513 1.393 . S
C487 C486 1.288 . S
C487 C488 1.369 . S
C487 H553 0.932 . S
C488 C487 1.369 . S
C488 C489 1.398 . S
C488 C492 1.527 . S
C489 C488 1.398 . S
C489 C490 1.380 . S
C489 C503 1.497 . S
C490 C489 1.380 . S
C490 C491 1.383 . S
C490 C493 1.603 . S
C491 C486 1.377 . S
C491 C490 1.383 . S
C491 H554 0.929 . S
C492 C488 1.527 . S
C492 H555 0.961 . S
C492 H556 0.959 . S
C492 H557 0.959 . S
C493 C490 1.603 . S
C493 H558 0.960 . S
C493 H559 0.962 . S
C493 H560 0.961 . S
C494 C461 1.587 . S
C494 C495 1.360 . S
C494 C507 1.412 1_556 S
C495 C494 1.360 . S
C495 C496 1.365 . S
C495 H561 0.929 . S
C496 C471 1.553 . S
C496 C495 1.365 . S
C496 C497 1.404 1_556 S
C497 C496 1.404 1_554 S
C497 C498 1.395 . S
C497 C508 1.451 . S
C498 C497 1.395 . S
C498 C499 1.322 . S
C498 H562 0.930 . S
C499 C498 1.322 . S
C499 C500 1.459 . S
C499 H563 0.929 . S
C500 C499 1.459 . S
C500 C501 1.445 . S
C500 C509 1.395 . S
C501 C479 1.432 . S
C501 C500 1.445 . S
C501 C502 1.370 . S
C502 C501 1.370 . S
C502 C503 1.438 . S
C502 H564 0.930 . S
C503 C489 1.497 . S
C503 C502 1.438 . S
C503 C504 1.360 . S
C504 C503 1.360 . S
C504 C505 1.401 . S
C504 C509 1.446 . S
C505 C504 1.401 . S
C505 C506 1.347 . S
C505 H565 0.929 . S
C506 C505 1.347 . S
C506 C507 1.455 . S
C506 H566 0.930 . S
C507 C494 1.412 1_554 S
C507 C506 1.455 . S
C507 C508 1.331 . S
C508 C497 1.451 . S
C508 C507 1.331 . S
C508 C509 1.497 . S
C509 C500 1.395 . S
C509 C504 1.446 . S
C509 C508 1.497 . S
C510 C511 1.582 . S
C510 H567 0.962 . S
C510 H568 0.959 . S
C510 H569 0.958 . S
C511 C510 1.582 . S
C511 O514 1.458 . S
C511 H540 0.980 . S
O512 C457 1.426 . S
O512 C458 1.334 . S
O513 C485 1.412 . S
O513 C486 1.393 . S
O514 C476 1.435 . S
O514 C511 1.458 . S
O515 C467 1.468 . S
O515 C468 1.408 . S
H516 C457 0.980 . S
H517 C456 0.959 . S
H518 C456 0.959 . S
H519 C456 0.960 . S
H520 C459 0.929 . S
H521 C463 0.929 . S
H522 C464 0.959 . S
H523 C464 0.961 . S
H524 C464 0.961 . S
H525 C465 0.960 . S
H526 C465 0.960 . S
H527 C465 0.976 . S
H528 C467 0.980 . S
H529 C466 0.961 . S
H530 C466 0.960 . S
H531 C466 0.959 . S
H532 C469 0.930 . S
H533 C473 0.931 . S
H534 C474 0.959 . S
H535 C474 0.961 . S
H536 C474 0.959 . S
H537 C475 0.960 . S
H538 C475 0.960 . S
H539 C475 0.960 . S
H540 C511 0.980 . S
H541 C477 0.930 . S
H542 C481 0.930 . S
H543 C482 0.961 . S
H544 C482 0.960 . S
H545 C482 0.958 . S
H546 C483 0.961 . S
H547 C483 0.960 . S
H548 C483 0.960 . S
H549 C485 0.980 . S
H550 C484 0.961 . S
H551 C484 0.961 . S
H552 C484 0.959 . S
H553 C487 0.932 . S
H554 C491 0.929 . S
H555 C492 0.961 . S
H556 C492 0.959 . S
H557 C492 0.959 . S
H558 C493 0.960 . S
H559 C493 0.962 . S
H560 C493 0.961 . S
H561 C495 0.929 . S
H562 C498 0.930 . S
H563 C499 0.929 . S
H564 C502 0.930 . S
H565 C505 0.929 . S
H566 C506 0.930 . S
H567 C510 0.962 . S
H568 C510 0.959 . S
H569 C510 0.958 . S
C570 C571 1.560 . S
C570 H631 0.959 . S
C570 H632 0.959 . S
C570 H633 0.960 . S
C571 C570 1.560 . S
C571 O626 1.426 . S
C571 H630 0.980 . S
C572 C573 1.407 . S
C572 C577 1.418 . S
C572 O626 1.334 . S
C573 C572 1.407 . S
C573 C574 1.360 . S
C573 H634 0.929 . S
C574 C573 1.360 . S
C574 C575 1.401 . S
C574 C578 1.527 . S
C575 C574 1.401 . S
C575 C576 1.405 . S
C575 C608 1.587 . S
C576 C575 1.405 . S
C576 C577 1.332 . S
C576 C579 1.496 . S
C577 C572 1.418 . S
C577 C576 1.332 . S
C577 H635 0.929 . S
C578 C574 1.527 . S
C578 H636 0.959 . S
C578 H637 0.961 . S
C578 H638 0.961 . S
C579 C576 1.496 . S
C579 H639 0.960 . S
C579 H640 0.960 . S
C579 H641 0.961 . S
C580 C581 1.517 . S
C580 H643 0.961 . S
C580 H644 0.960 . S
C580 H645 0.959 . S
C581 C580 1.517 . S
C581 O629 1.468 . S
C581 H642 0.980 . S
C582 C583 1.349 . S
C582 C587 1.367 . S
C582 O629 1.408 . S
C583 C582 1.349 . S
C583 C584 1.407 . S
C583 H646 0.930 . S
C584 C583 1.407 . S
C584 C585 1.449 . S
C584 C588 1.535 . S
C585 C584 1.449 . S
C585 C586 1.384 . S
C585 C610 1.553 . S
C586 C585 1.384 . S
C586 C587 1.364 . S
C586 C589 1.450 . S
C587 C582 1.367 . S
C587 C586 1.364 . S
C587 H647 0.931 . S
C588 C584 1.535 . S
C588 H648 0.959 . S
C588 H649 0.961 . S
C588 H650 0.959 . S
C589 C586 1.450 . S
C589 H651 0.960 . S
C589 H652 0.960 . S
C589 H653 0.960 . S
C590 C591 1.309 . S
C590 C595 1.304 . S
C590 O628 1.435 1_554 S
C591 C590 1.309 . S
C591 C592 1.476 . S
C591 H655 0.930 . S
C592 C591 1.476 . S
C592 C593 1.400 . S
C592 C596 1.567 . S
C593 C592 1.400 . S
C593 C594 1.373 . S
C593 C615 1.432 . S
C594 C593 1.373 . S
C594 C595 1.339 . S
C594 C597 1.530 . S
C595 C590 1.304 . S
C595 C594 1.339 . S
C595 H656 0.930 . S
C596 C592 1.567 . S
C596 H657 0.961 . S
C596 H658 0.960 . S
C596 H659 0.958 . S
C597 C594 1.530 . S
C597 H660 0.961 . S
C597 H661 0.960 . S
C597 H662 0.960 . S
C598 C599 1.530 . S
C598 H664 0.961 . S
C598 H665 0.961 . S
C598 H666 0.959 . S
C599 C598 1.530 . S
C599 O627 1.412 . S
C599 H663 0.980 . S
C600 C601 1.287 . S
C600 C605 1.377 . S
C600 O627 1.393 1_554 S
C601 C600 1.287 . S
C601 C602 1.369 . S
C601 H667 0.932 1_554 S
C602 C601 1.369 . S
C602 C603 1.398 . S
C602 C606 1.527 . S
C603 C602 1.398 . S
C603 C604 1.380 . S
C603 C617 1.497 . S
C604 C603 1.380 . S
C604 C605 1.383 . S
C604 C607 1.603 . S
C605 C600 1.377 . S
C605 C604 1.383 . S
C605 H668 0.929 . S
C606 C602 1.527 . S
C606 H669 0.961 . S
C606 H670 0.959 . S
C606 H671 0.959 . S
C607 C604 1.603 . S
C607 H672 0.960 . S
C607 H673 0.962 . S
C607 H674 0.961 . S
C608 C575 1.587 . S
C608 C609 1.360 . S
C608 C621 1.412 . S
C609 C608 1.360 . S
C609 C610 1.365 . S
C609 H675 0.929 . S
C610 C585 1.553 . S
C610 C609 1.365 . S
C610 C611 1.404 . S
C611 C610 1.404 . S
C611 C612 1.395 . S
C611 C622 1.451 . S
C612 C611 1.395 . S
C612 C613 1.322 . S
C612 H676 0.930 . S
C613 C612 1.322 . S
C613 C614 1.459 . S
C613 H677 0.929 . S
C614 C613 1.459 . S
C614 C615 1.445 . S
C614 C623 1.395 . S
C615 C593 1.432 . S
C615 C614 1.445 . S
C615 C616 1.370 . S
C616 C615 1.370 . S
C616 C617 1.438 . S
C616 H678 0.930 . S
C617 C603 1.497 . S
C617 C616 1.438 . S
C617 C618 1.360 . S
C618 C617 1.360 . S
C618 C619 1.401 . S
C618 C623 1.446 . S
C619 C618 1.401 . S
C619 C620 1.347 . S
C619 H679 0.929 . S
C620 C619 1.347 . S
C620 C621 1.455 . S
C620 H680 0.930 . S
C621 C608 1.412 . S
C621 C620 1.455 . S
C621 C622 1.331 . S
C622 C611 1.451 . S
C622 C621 1.331 . S
C622 C623 1.497 . S
C623 C614 1.395 . S
C623 C618 1.446 . S
C623 C622 1.497 . S
C624 C625 1.582 . S
C624 H681 0.962 . S
C624 H682 0.959 . S
C624 H683 0.958 . S
C625 C624 1.582 . S
C625 O628 1.458 . S
C625 H654 0.980 1_556 S
O626 C571 1.426 . S
O626 C572 1.334 . S
O627 C599 1.412 . S
O627 C600 1.393 1_556 S
O628 C590 1.435 1_556 S
O628 C625 1.458 . S
O629 C581 1.468 . S
O629 C582 1.408 . S
H630 C571 0.980 . S
H631 C570 0.959 . S
H632 C570 0.959 . S
H633 C570 0.960 . S
H634 C573 0.929 . S
H635 C577 0.929 . S
H636 C578 0.959 . S
H637 C578 0.961 . S
H638 C578 0.961 . S
H639 C579 0.960 . S
H640 C579 0.960 . S
H641 C579 0.961 . S
H642 C581 0.980 . S
H643 C580 0.961 . S
H644 C580 0.960 . S
H645 C580 0.959 . S
H646 C583 0.930 . S
H647 C587 0.931 . S
H648 C588 0.959 . S
H649 C588 0.961 . S
H650 C588 0.959 . S
H651 C589 0.960 . S
H652 C589 0.960 . S
H653 C589 0.960 . S
H654 C625 0.980 1_554 S
H655 C591 0.930 . S
H656 C595 0.930 . S
H657 C596 0.961 . S
H658 C596 0.960 . S
H659 C596 0.958 . S
H660 C597 0.961 . S
H661 C597 0.960 . S
H662 C597 0.960 . S
H663 C599 0.980 . S
H664 C598 0.961 . S
H665 C598 0.961 . S
H666 C598 0.959 . S
H667 C601 0.932 1_556 S
H668 C605 0.929 . S
H669 C606 0.961 . S
H670 C606 0.959 . S
H671 C606 0.959 . S
H672 C607 0.960 . S
H673 C607 0.962 . S
H674 C607 0.961 . S
H675 C609 0.929 . S
H676 C612 0.930 . S
H677 C613 0.929 . S
H678 C616 0.930 . S
H679 C619 0.929 . S
H680 C620 0.930 . S
H681 C624 0.962 . S
H682 C624 0.959 . S
H683 C624 0.958 . S
C684 O696 1.241 . S
C684 O697 1.280 . S
C685 O698 1.277 . S
C685 O699 1.245 . S
C686 O710 1.247 . S
C686 O712 1.289 . S
Mg687 O688 1.926 . S
Mg687 O697 1.984 1_455 S
Mg687 O699 1.988 . S
Mg687 O700 2.061 1_455 S
O688 Mg687 1.926 . S
O688 Mg689 1.986 . S
O688 Mg690 1.917 . S
Mg689 O688 1.986 . S
Mg689 O696 2.042 1_455 S
Mg689 O698 2.041 . S
Mg689 O704 2.038 1_455 S
Mg689 O712 2.238 . S
Mg690 O688 1.917 . S
Mg690 O691 1.917 . S
Mg690 O701 2.106 1_455 S
Mg690 O703 2.079 1_455 S
Mg690 O712 2.106 . S
Mg690 O713 2.079 . S
O691 Mg690 1.917 . S
O691 Mg692 1.926 . S
O691 Mg693 1.986 . S
Mg692 O691 1.926 . S
Mg692 O706 1.984 . S
Mg692 O709 1.988 1_455 S
Mg692 O710 2.061 . S
Mg693 O691 1.986 . S
Mg693 O701 2.238 1_455 S
Mg693 O705 2.042 . S
Mg693 O707 2.041 1_455 S
Mg693 O714 2.038 . S
C694 O700 1.247 . S
C694 O701 1.289 . S
C695 O713 1.245 . S
C695 O714 1.274 . S
O696 C684 1.241 . S
O696 Mg689 2.042 1_655 S
O697 C684 1.280 . S
O697 Mg687 1.984 1_655 S
O698 C685 1.277 . S
O698 Mg689 2.041 . S
O699 C685 1.245 . S
O699 Mg687 1.988 . S
O700 Mg687 2.061 1_655 S
O700 C694 1.247 . S
O701 Mg690 2.106 1_655 S
O701 Mg693 2.238 1_655 S
O701 C694 1.289 . S
C702 O703 1.245 . S
C702 O704 1.274 . S
O703 Mg690 2.079 1_655 S
O703 C702 1.245 . S
O704 Mg689 2.038 1_655 S
O704 C702 1.274 . S
O705 Mg693 2.042 . S
O705 C708 1.241 . S
O706 Mg692 1.984 . S
O706 C708 1.280 . S
O707 Mg693 2.041 1_655 S
O707 C711 1.277 . S
C708 O705 1.241 . S
C708 O706 1.280 . S
O709 Mg692 1.988 1_655 S
O709 C711 1.245 . S
O710 C686 1.247 . S
O710 Mg692 2.061 . S
C711 O707 1.277 . S
C711 O709 1.245 . S
O712 C686 1.289 . S
O712 Mg689 2.238 . S
O712 Mg690 2.106 . S
O713 Mg690 2.079 . S
O713 C695 1.245 . S
O714 Mg693 2.038 . S
O714 C695 1.274 . S
C715 O727 1.241 . S
C715 O728 1.280 . S
C716 O729 1.277 . S
C716 O730 1.245 . S
C717 O741 1.247 . S
C717 O743 1.289 . S
Mg718 O719 1.926 . S
Mg718 O728 1.984 . S
Mg718 O730 1.988 1_545 S
Mg718 O731 2.061 . S
O719 Mg718 1.926 . S
O719 Mg720 1.986 . S
O719 Mg721 1.917 . S
Mg720 O719 1.986 . S
Mg720 O727 2.042 . S
Mg720 O729 2.041 1_545 S
Mg720 O735 2.038 . S
Mg720 O743 2.238 1_545 S
Mg721 O719 1.917 . S
Mg721 O722 1.917 1_545 S
Mg721 O732 2.106 . S
Mg721 O734 2.079 . S
Mg721 O743 2.106 1_545 S
Mg721 O744 2.079 1_545 S
O722 Mg721 1.917 1_565 S
O722 Mg723 1.926 . S
O722 Mg724 1.986 1_565 S
Mg723 O722 1.926 . S
Mg723 O737 1.984 . S
Mg723 O740 1.988 1_565 S
Mg723 O741 2.061 . S
Mg724 O722 1.986 1_545 S
Mg724 O732 2.238 . S
Mg724 O736 2.042 1_545 S
Mg724 O738 2.041 . S
Mg724 O745 2.038 1_545 S
C725 O731 1.247 . S
C725 O732 1.289 . S
C726 O744 1.245 . S
C726 O745 1.274 . S
O727 C715 1.241 . S
O727 Mg720 2.042 . S
O728 C715 1.280 . S
O728 Mg718 1.984 . S
O729 C716 1.277 . S
O729 Mg720 2.041 1_565 S
O730 C716 1.245 . S
O730 Mg718 1.988 1_565 S
O731 Mg718 2.061 . S
O731 C725 1.247 . S
O732 Mg721 2.106 . S
O732 Mg724 2.238 . S
O732 C725 1.289 . S
C733 O734 1.245 . S
C733 O735 1.274 . S
O734 Mg721 2.079 . S
O734 C733 1.245 . S
O735 Mg720 2.038 . S
O735 C733 1.274 . S
O736 Mg724 2.042 1_565 S
O736 C739 1.241 . S
O737 Mg723 1.984 . S
O737 C739 1.280 . S
O738 Mg724 2.041 . S
O738 C742 1.277 . S
C739 O736 1.241 . S
C739 O737 1.280 . S
O740 Mg723 1.988 1_545 S
O740 C742 1.245 . S
O741 C717 1.247 . S
O741 Mg723 2.061 . S
C742 O738 1.277 . S
C742 O740 1.245 . S
O743 C717 1.289 . S
O743 Mg720 2.238 1_565 S
O743 Mg721 2.106 1_565 S
O744 Mg721 2.079 1_565 S
O744 C726 1.245 . S
O745 Mg724 2.038 1_565 S
O745 C726 1.274 . S
C746 O758 1.241 . S
C746 O759 1.280 . S
C747 O760 1.277 . S
C747 O761 1.245 . S
C748 O772 1.247 . S
C748 O774 1.289 . S
Mg749 O750 1.926 . S
Mg749 O759 1.984 . S
Mg749 O761 1.988 . S
Mg749 O762 2.061 . S
O750 Mg749 1.926 . S
O750 Mg751 1.986 . S
O750 Mg752 1.917 . S
Mg751 O750 1.986 . S
Mg751 O758 2.042 . S
Mg751 O760 2.041 . S
Mg751 O766 2.038 . S
Mg751 O774 2.238 . S
Mg752 O750 1.917 . S
Mg752 O753 1.917 . S
Mg752 O763 2.106 . S
Mg752 O765 2.079 . S
Mg752 O774 2.106 . S
Mg752 O775 2.079 . S
O753 Mg752 1.917 . S
O753 Mg754 1.926 . S
O753 Mg755 1.986 . S
Mg754 O753 1.926 . S
Mg754 O768 1.984 . S
Mg754 O771 1.988 . S
Mg754 O772 2.061 . S
Mg755 O753 1.986 . S
Mg755 O763 2.238 . S
Mg755 O767 2.042 . S
Mg755 O769 2.041 . S
Mg755 O776 2.038 . S
C756 O762 1.247 . S
C756 O763 1.289 . S
C757 O775 1.245 . S
C757 O776 1.274 . S
O758 C746 1.241 . S
O758 Mg751 2.042 . S
O759 C746 1.280 . S
O759 Mg749 1.984 . S
O760 C747 1.277 . S
O760 Mg751 2.041 . S
O761 C747 1.245 . S
O761 Mg749 1.988 . S
O762 Mg749 2.061 . S
O762 C756 1.247 . S
O763 Mg752 2.106 . S
O763 Mg755 2.238 . S
O763 C756 1.289 . S
C764 O765 1.245 . S
C764 O766 1.274 . S
O765 Mg752 2.079 . S
O765 C764 1.245 . S
O766 Mg751 2.038 . S
O766 C764 1.274 . S
O767 Mg755 2.042 . S
O767 C770 1.241 . S
O768 Mg754 1.984 . S
O768 C770 1.280 . S
O769 Mg755 2.041 . S
O769 C773 1.277 . S
C770 O767 1.241 . S
C770 O768 1.280 . S
O771 Mg754 1.988 . S
O771 C773 1.245 . S
O772 C748 1.247 . S
O772 Mg754 2.061 . S
C773 O769 1.277 . S
C773 O771 1.245 . S
O774 C748 1.289 . S
O774 Mg751 2.238 . S
O774 Mg752 2.106 . S
O775 Mg752 2.079 . S
O775 C757 1.245 . S
O776 Mg755 2.038 . S
O776 C757 1.274 . S
C777 C778 1.369 . S
C777 C779 1.419 . S
C777 H781 0.930 . S
C778 C777 1.369 . S
C778 C787 1.429 . S
C779 C777 1.419 . S
C779 C780 1.363 . S
C779 H782 0.929 . S
C780 C779 1.363 . S
C780 C786 1.428 . S
H781 C777 0.930 . S
H782 C779 0.929 . S
S783 N784 1.613 . S
S783 N785 1.610 . S
N784 S783 1.613 . S
N784 C787 1.350 . S
N785 S783 1.610 . S
N785 C786 1.351 . S
C786 C780 1.428 . S
C786 N785 1.351 . S
C786 C787 1.434 . S
C787 C778 1.429 . S
C787 N784 1.350 . S
C787 C786 1.434 . S
C788 C789 1.369 . S
C788 C790 1.419 . S
C788 H792 0.930 . S
C789 C788 1.369 . S
C789 C798 1.429 . S
C790 C788 1.419 . S
C790 C791 1.363 . S
C790 H793 0.929 . S
C791 C790 1.363 . S
C791 C797 1.428 . S
H792 C788 0.930 . S
H793 C790 0.929 . S
S794 N795 1.613 . S
S794 N796 1.610 . S
N795 S794 1.613 . S
N795 C798 1.350 . S
N796 S794 1.610 . S
N796 C797 1.351 . S
C797 C791 1.428 . S
C797 N796 1.351 . S
C797 C798 1.434 . S
C798 C789 1.429 . S
C798 N795 1.350 . S
C798 C797 1.434 . S
C799 C800 1.369 . S
C799 C801 1.419 . S
C799 H803 0.930 . S
C800 C799 1.369 . S
C800 C809 1.429 . S
C801 C799 1.419 . S
C801 C802 1.363 . S
C801 H804 0.929 . S
C802 C801 1.363 . S
C802 C808 1.428 . S
H803 C799 0.930 . S
H804 C801 0.929 . S
S805 N806 1.613 . S
S805 N807 1.610 . S
N806 S805 1.613 . S
N806 C809 1.350 . S
N807 S805 1.610 . S
N807 C808 1.351 . S
C808 C802 1.428 . S
C808 N807 1.351 . S
C808 C809 1.434 . S
C809 C800 1.429 . S
C809 N806 1.350 . S
C809 C808 1.434 . S
C810 C811 1.369 . S
C810 C812 1.419 . S
C810 H814 0.930 . S
C811 C810 1.369 . S
C811 C820 1.429 . S
C812 C810 1.419 . S
C812 C813 1.363 . S
C812 H815 0.929 . S
C813 C812 1.363 . S
C813 C819 1.428 . S
H814 C810 0.930 . S
H815 C812 0.929 . S
S816 N817 1.613 . S
S816 N818 1.610 . S
N817 S816 1.613 . S
N817 C820 1.350 . S
N818 S816 1.610 . S
N818 C819 1.351 . S
C819 C813 1.428 . S
C819 N818 1.351 . S
C819 C820 1.434 . S
C820 C811 1.429 . S
C820 N817 1.350 . S
C820 C819 1.434 . S
C821 C822 1.369 . S
C821 C823 1.419 . S
C821 H825 0.930 . S
C822 C821 1.369 . S
C822 C831 1.429 . S
C823 C821 1.419 . S
C823 C824 1.363 . S
C823 H826 0.929 . S
C824 C823 1.363 . S
C824 C830 1.428 . S
H825 C821 0.930 . S
H826 C823 0.929 . S
S827 N828 1.613 . S
S827 N829 1.610 . S
N828 S827 1.613 . S
N828 C831 1.350 . S
N829 S827 1.610 . S
N829 C830 1.351 . S
C830 C824 1.428 . S
C830 N829 1.351 . S
C830 C831 1.434 . S
C831 C822 1.429 . S
C831 N828 1.350 . S
C831 C830 1.434 . S
C832 C833 1.369 . S
C832 C834 1.419 . S
C832 H836 0.930 . S
C833 C832 1.369 . S
C833 C842 1.429 . S
C834 C832 1.419 . S
C834 C835 1.363 . S
C834 H837 0.929 . S
C835 C834 1.363 . S
C835 C841 1.428 . S
H836 C832 0.930 . S
H837 C834 0.929 . S
S838 N839 1.613 . S
S838 N840 1.610 . S
N839 S838 1.613 . S
N839 C842 1.350 . S
N840 S838 1.610 . S
N840 C841 1.351 . S
C841 C835 1.428 . S
C841 N840 1.351 . S
C841 C842 1.434 . S
C842 C833 1.429 . S
C842 N839 1.350 . S
C842 C841 1.434 . S
C843 C844 1.369 . S
C843 C845 1.419 . S
C843 H847 0.930 . S
C844 C843 1.369 . S
C844 C853 1.429 . S
C845 C843 1.419 . S
C845 C846 1.363 . S
C845 H848 0.929 . S
C846 C845 1.363 . S
C846 C852 1.428 . S
H847 C843 0.930 . S
H848 C845 0.929 . S
S849 N850 1.613 . S
S849 N851 1.610 . S
N850 S849 1.613 . S
N850 C853 1.350 . S
N851 S849 1.610 . S
N851 C852 1.351 . S
C852 C846 1.428 . S
C852 N851 1.351 . S
C852 C853 1.434 . S
C853 C844 1.429 . S
C853 N850 1.350 . S
C853 C852 1.434 . S
C854 C855 1.369 . S
C854 C856 1.419 . S
C854 H858 0.930 . S
C855 C854 1.369 . S
C855 C864 1.429 . S
C856 C854 1.419 . S
C856 C857 1.363 . S
C856 H859 0.929 . S
C857 C856 1.363 . S
C857 C863 1.428 . S
H858 C854 0.930 . S
H859 C856 0.929 . S
S860 N861 1.613 . S
S860 N862 1.610 . S
N861 S860 1.613 . S
N861 C864 1.350 . S
N862 S860 1.610 . S
N862 C863 1.351 . S
C863 C857 1.428 . S
C863 N862 1.351 . S
C863 C864 1.434 . S
C864 C855 1.429 . S
C864 N861 1.350 . S
C864 C863 1.434 . S
C865 C866 1.369 . S
C865 C867 1.419 . S
C865 H869 0.930 . S
C866 C865 1.369 . S
C866 C875 1.429 . S
C867 C865 1.419 . S
C867 C868 1.363 . S
C867 H870 0.929 . S
C868 C867 1.363 . S
C868 C874 1.428 . S
H869 C865 0.930 . S
H870 C867 0.929 . S
S871 N872 1.613 . S
S871 N873 1.610 . S
N872 S871 1.613 . S
N872 C875 1.350 . S
N873 S871 1.610 . S
N873 C874 1.351 . S
C874 C868 1.428 . S
C874 N873 1.351 . S
C874 C875 1.434 . S
C875 C866 1.429 . S
C875 N872 1.350 . S
C875 C874 1.434 . S
C876 C877 1.369 . S
C876 C878 1.419 . S
C876 H880 0.930 . S
C877 C876 1.369 . S
C877 C886 1.429 . S
C878 C876 1.419 . S
C878 C879 1.363 . S
C878 H881 0.929 . S
C879 C878 1.363 . S
C879 C885 1.428 . S
H880 C876 0.930 . S
H881 C878 0.929 . S
S882 N883 1.613 . S
S882 N884 1.610 . S
N883 S882 1.613 . S
N883 C886 1.350 . S
N884 S882 1.610 . S
N884 C885 1.351 . S
C885 C879 1.428 . S
C885 N884 1.351 . S
C885 C886 1.434 . S
C886 C877 1.429 . S
C886 N883 1.350 . S
C886 C885 1.434 . S
C887 C888 1.369 . S
C887 C889 1.419 . S
C887 H891 0.930 . S
C888 C887 1.369 . S
C888 C897 1.429 . S
C889 C887 1.419 . S
C889 C890 1.363 . S
C889 H892 0.929 . S
C890 C889 1.363 . S
C890 C896 1.428 . S
H891 C887 0.930 . S
H892 C889 0.929 . S
S893 N894 1.613 . S
S893 N895 1.610 . S
N894 S893 1.613 . S
N894 C897 1.350 . S
N895 S893 1.610 . S
N895 C896 1.351 . S
C896 C890 1.428 . S
C896 N895 1.351 . S
C896 C897 1.434 . S
C897 C888 1.429 . S
C897 N894 1.350 . S
C897 C896 1.434 . S
C898 C899 1.369 . S
C898 C900 1.419 . S
C898 H902 0.930 . S
C899 C898 1.369 . S
C899 C908 1.429 . S
C900 C898 1.419 . S
C900 C901 1.363 . S
C900 H903 0.929 . S
C901 C900 1.363 . S
C901 C907 1.428 . S
H902 C898 0.930 . S
H903 C900 0.929 . S
S904 N905 1.613 1_455 S
S904 N906 1.610 1_455 S
N905 S904 1.613 1_655 S
N905 C908 1.350 . S
N906 S904 1.610 1_655 S
N906 C907 1.351 . S
C907 C901 1.428 . S
C907 N906 1.351 . S
C907 C908 1.434 . S
C908 C899 1.429 . S
C908 N905 1.350 . S
C908 C907 1.434 . S
C909 C910 1.369 . S
C909 C911 1.419 . S
C909 H913 0.930 . S
C910 C909 1.369 . S
C910 C919 1.429 . S
C911 C909 1.419 . S
C911 C912 1.363 . S
C911 H914 0.929 . S
C912 C911 1.363 . S
C912 C918 1.428 . S
H913 C909 0.930 . S
H914 C911 0.929 . S
S915 N916 1.613 . S
S915 N917 1.610 . S
N916 S915 1.613 . S
N916 C919 1.350 . S
N917 S915 1.610 . S
N917 C918 1.351 . S
C918 C912 1.428 . S
C918 N917 1.351 . S
C918 C919 1.434 . S
C919 C910 1.429 . S
C919 N916 1.350 . S
C919 C918 1.434 . S
C920 C921 1.369 . S
C920 C922 1.419 . S
C920 H924 0.930 . S
C921 C920 1.369 . S
C921 C930 1.429 . S
C922 C920 1.419 . S
C922 C923 1.363 . S
C922 H925 0.929 . S
C923 C922 1.363 . S
C923 C929 1.428 . S
H924 C920 0.930 . S
H925 C922 0.929 . S
S926 N927 1.613 . S
S926 N928 1.610 . S
N927 S926 1.613 . S
N927 C930 1.350 . S
N928 S926 1.610 . S
N928 C929 1.351 . S
C929 C923 1.428 . S
C929 N928 1.351 . S
C929 C930 1.434 . S
C930 C921 1.429 . S
C930 N927 1.350 . S
C930 C929 1.434 . S
C931 C932 1.369 . S
C931 C933 1.419 . S
C931 H935 0.930 . S
C932 C931 1.369 . S
C932 C941 1.429 . S
C933 C931 1.419 . S
C933 C934 1.363 . S
C933 H936 0.929 . S
C934 C933 1.363 . S
C934 C940 1.428 . S
H935 C931 0.930 . S
H936 C933 0.929 . S
S937 N938 1.613 1_554 S
S937 N939 1.597 1_554 S
N938 S937 1.613 1_556 S
N938 C941 1.350 . S
N939 S937 1.597 1_556 S
N939 C940 1.351 . S
C940 C934 1.428 . S
C940 N939 1.351 . S
C940 C941 1.434 . S
C941 C932 1.429 . S
C941 N938 1.350 . S
C941 C940 1.434 . S
C942 C943 1.369 . S
C942 C944 1.419 . S
C942 H946 0.930 . S
C943 C942 1.369 . S
C943 C952 1.429 . S
C944 C942 1.419 . S
C944 C945 1.363 . S
C944 H947 0.929 . S
C945 C944 1.363 . S
C945 C951 1.428 . S
H946 C942 0.930 . S
H947 C944 0.929 . S
S948 N949 1.613 . S
S948 N950 1.610 . S
N949 S948 1.613 . S
N949 C952 1.350 . S
N950 S948 1.610 . S
N950 C951 1.351 . S
C951 C945 1.428 . S
C951 N950 1.351 . S
C951 C952 1.434 . S
C952 C943 1.429 . S
C952 N949 1.350 . S
C952 C951 1.434 . S
C953 C954 1.369 . S
C953 C955 1.419 . S
C953 H957 0.930 . S
C954 C953 1.369 . S
C954 C963 1.429 . S
C955 C953 1.419 . S
C955 C956 1.363 . S
C955 H958 0.929 . S
C956 C955 1.363 . S
C956 C962 1.428 . S
H957 C953 0.930 . S
H958 C955 0.929 . S
S959 N960 1.613 . S
S959 N961 1.610 . S
N960 S959 1.613 . S
N960 C963 1.350 . S
N961 S959 1.610 . S
N961 C962 1.351 . S
C962 C956 1.428 . S
C962 N961 1.351 . S
C962 C963 1.434 . S
C963 C954 1.429 . S
C963 N960 1.350 . S
C963 C962 1.434 . S
C964 C965 1.369 . S
C964 C966 1.419 . S
C964 H968 0.930 . S
C965 C964 1.369 . S
C965 C974 1.429 . S
C966 C964 1.419 . S
C966 C967 1.363 . S
C966 H969 0.929 . S
C967 C966 1.363 . S
C967 C973 1.428 . S
H968 C964 0.930 . S
H969 C966 0.929 . S
S970 N971 1.613 . S
S970 N972 1.610 . S
N971 S970 1.613 . S
N971 C974 1.350 . S
N972 S970 1.610 . S
N972 C973 1.351 . S
C973 C967 1.428 . S
C973 N972 1.351 . S
C973 C974 1.434 . S
C974 C965 1.429 . S
C974 N971 1.350 . S
C974 C973 1.434 . S
C975 C976 1.369 . S
C975 C977 1.419 . S
C975 H979 0.930 . S
C976 C975 1.369 . S
C976 C985 1.429 . S
C977 C975 1.419 . S
C977 C978 1.363 . S
C977 H980 0.929 . S
C978 C977 1.363 . S
C978 C984 1.428 . S
H979 C975 0.930 . S
H980 C977 0.929 . S
S981 N982 1.613 . S
S981 N983 1.610 . S
N982 S981 1.613 . S
N982 C985 1.350 . S
N983 S981 1.610 . S
N983 C984 1.351 . S
C984 C978 1.428 . S
C984 N983 1.351 . S
C984 C985 1.434 . S
C985 C976 1.429 . S
C985 N982 1.350 . S
C985 C984 1.434 . S
C986 C987 1.369 . S
C986 C988 1.419 . S
C986 H990 0.930 . S
C987 C986 1.369 . S
C987 C996 1.429 . S
C988 C986 1.419 . S
C988 C989 1.363 . S
C988 H991 0.929 . S
C989 C988 1.363 . S
C989 C995 1.428 . S
H990 C986 0.930 . S
H991 C988 0.929 . S
S992 N993 1.613 . S
S992 N994 1.610 . S
N993 S992 1.613 . S
N993 C996 1.350 . S
N994 S992 1.610 . S
N994 C995 1.351 . S
C995 C989 1.428 . S
C995 N994 1.351 . S
C995 C996 1.434 . S
C996 C987 1.429 . S
C996 N993 1.350 . S
C996 C995 1.434 . S
C997 C998 1.369 . S
C997 C999 1.419 . S
C997 H1001 0.930 . S
C998 C997 1.369 . S
C998 C1007 1.429 . S
C999 C997 1.419 . S
C999 C1000 1.363 . S
C999 H1002 0.929 . S
C1000 C999 1.363 . S
C1000 C1006 1.428 . S
H1001 C997 0.930 . S
H1002 C999 0.929 . S
S1003 N1004 1.613 . S
S1003 N1005 1.610 . S
N1004 S1003 1.613 . S
N1004 C1007 1.350 . S
N1005 S1003 1.610 . S
N1005 C1006 1.351 . S
C1006 C1000 1.428 . S
C1006 N1005 1.351 . S
C1006 C1007 1.434 . S
C1007 C998 1.429 . S
C1007 N1004 1.350 . S
C1007 C1006 1.434 . S
C1008 C1009 1.369 . S
C1008 C1010 1.419 . S
C1008 H1012 0.930 . S
C1009 C1008 1.369 . S
C1009 C1018 1.429 . S
C1010 C1008 1.419 . S
C1010 C1011 1.363 . S
C1010 H1013 0.929 . S
C1011 C1010 1.363 . S
C1011 C1017 1.428 . S
H1012 C1008 0.930 . S
H1013 C1010 0.929 . S
S1014 N1015 1.613 . S
S1014 N1016 1.610 . S
N1015 S1014 1.613 . S
N1015 C1018 1.350 . S
N1016 S1014 1.610 . S
N1016 C1017 1.351 . S
C1017 C1011 1.428 . S
C1017 N1016 1.351 . S
C1017 C1018 1.434 . S
C1018 C1009 1.429 . S
C1018 N1015 1.350 . S
C1018 C1017 1.434 . S
C1019 C1020 1.369 . S
C1019 C1021 1.419 . S
C1019 H1023 0.930 . S
C1020 C1019 1.369 . S
C1020 C1029 1.429 . S
C1021 C1019 1.419 . S
C1021 C1022 1.363 . S
C1021 H1024 0.929 . S
C1022 C1021 1.363 . S
C1022 C1028 1.428 . S
H1023 C1019 0.930 . S
H1024 C1021 0.929 . S
S1025 N1026 1.613 . S
S1025 N1027 1.610 . S
N1026 S1025 1.613 . S
N1026 C1029 1.350 . S
N1027 S1025 1.610 . S
N1027 C1028 1.351 . S
C1028 C1022 1.428 . S
C1028 N1027 1.351 . S
C1028 C1029 1.434 . S
C1029 C1020 1.429 . S
C1029 N1026 1.350 . S
C1029 C1028 1.434 . S
C1030 C1031 1.369 . S
C1030 C1032 1.419 . S
C1030 H1034 0.930 . S
C1031 C1030 1.369 . S
C1031 C1040 1.429 . S
C1032 C1030 1.419 . S
C1032 C1033 1.363 . S
C1032 H1035 0.929 . S
C1033 C1032 1.363 . S
C1033 C1039 1.428 . S
H1034 C1030 0.930 . S
H1035 C1032 0.929 . S
S1036 N1037 1.613 . S
S1036 N1038 1.610 . S
N1037 S1036 1.613 . S
N1037 C1040 1.350 . S
N1038 S1036 1.610 . S
N1038 C1039 1.351 . S
C1039 C1033 1.428 . S
C1039 N1038 1.351 . S
C1039 C1040 1.434 . S
C1040 C1031 1.429 . S
C1040 N1037 1.350 . S
C1040 C1039 1.434 . S
C778 C11 1.687 . S
C780 C695 1.993 . S
C789 C125 1.257 . S
C791 C742 1.647 . S
C802 C746 1.871 . S
C800 C239 1.370 . S
C813 C711 1.421 . S
C811 C343 1.266 . S
C822 C485 1.415 . S
C824 C726 1.929 . S
C835 C748 1.078 . S
C833 C571 1.183 . S
C846 C717 1.614 . S
C844 C257 1.052 . S
C855 C397 0.897 . S
C857 C757 1.623 . S
C868 C686 1.527 . S
C866 C467 1.323 . S
C877 C625 1.021 . S
C879 C715 1.497 . S
C888 C29 1.523 . S
C890 C773 1.942 . S
C901 C684 1.595 . S
C899 C143 1.083 . S
C912 C702 1.935 . S
C910 C371 1.699 . S
C923 C716 1.458 . S
C921 C457 1.171 . S
C934 C770 1.748 . S
C932 C599 1.563 . S
C945 C685 1.516 . S
C943 C55 1.289 . S
C956 C733 1.832 . S
C954 C169 1.713 . S
C965 C283 0.931 . S
C967 C756 1.090 . S
C978 C725 1.446 . S
C976 C581 0.982 . S
C989 C764 1.368 . S
C987 C1 1.100 . S
C1000 C694 1.278 . S
C998 C115 1.032 . S
C1011 C739 1.232 . S
C1009 C229 0.952 . S
C1020 C353 1.097 . S
C1022 C747 1.902 . S
C1031 C511 1.290 . S
C1033 C708 1.509 . S
