# Generated by pormake.
# Topology ssc, (4,4)-cn, num edge types: 1
# Building blocks:
#     Node 0, Type 0, BuildingBlock: CEKHIL_clean_sbu_0, # of connection points: 4
#     Node 1, Type 0, BuildingBlock: CEKHIL_clean_sbu_0, # of connection points: 4
#     Node 2, Type 0, BuildingBlock: CEKHIL_clean_sbu_0, # of connection points: 4
#     Node 3, Type 0, BuildingBlock: CEKHIL_clean_sbu_0, # of connection points: 4
#     Node 4, Type 0, BuildingBlock: CEKHIL_clean_sbu_0, # of connection points: 4
#     Node 5, Type 0, BuildingBlock: CEKHIL_clean_sbu_0, # of connection points: 4
#     Node 6, Type 0, BuildingBlock: CEKHIL_clean_sbu_0, # of connection points: 4
#     Node 7, Type 0, BuildingBlock: CEKHIL_clean_sbu_0, # of connection points: 4
#     Node 8, Type 0, BuildingBlock: CEKHIL_clean_sbu_0, # of connection points: 4
#     Node 9, Type 0, BuildingBlock: CEKHIL_clean_sbu_0, # of connection points: 4
#     Node 10, Type 0, BuildingBlock: CEKHIL_clean_sbu_0, # of connection points: 4
#     Node 11, Type 0, BuildingBlock: CEKHIL_clean_sbu_0, # of connection points: 4
#     Node 12, Type 1, BuildingBlock: KUFVIS_clean_linker_0, # of connection points: 4
#     Node 13, Type 1, BuildingBlock: KUFVIS_clean_linker_0, # of connection points: 4
#     Node 14, Type 1, BuildingBlock: KUFVIS_clean_linker_0, # of connection points: 4
#     Node 15, Type 1, BuildingBlock: KUFVIS_clean_linker_0, # of connection points: 4
#     Node 16, Type 1, BuildingBlock: KUFVIS_clean_linker_0, # of connection points: 4
#     Node 17, Type 1, BuildingBlock: KUFVIS_clean_linker_0, # of connection points: 4
#     Node 18, Type 1, BuildingBlock: KUFVIS_clean_linker_0, # of connection points: 4
#     Node 19, Type 1, BuildingBlock: KUFVIS_clean_linker_0, # of connection points: 4
#     Node 20, Type 1, BuildingBlock: KUFVIS_clean_linker_0, # of connection points: 4
#     Node 21, Type 1, BuildingBlock: KUFVIS_clean_linker_0, # of connection points: 4
#     Node 22, Type 1, BuildingBlock: KUFVIS_clean_linker_0, # of connection points: 4
#     Node 23, Type 1, BuildingBlock: KUFVIS_clean_linker_0, # of connection points: 4
#     Edge 24, Type (0, 1), BuildingBlock: TEMPAE_clean_linker_10, # of connection points: 2
#     Edge 25, Type (0, 1), BuildingBlock: TEMPAE_clean_linker_10, # of connection points: 2
#     Edge 26, Type (0, 1), BuildingBlock: TEMPAE_clean_linker_10, # of connection points: 2
#     Edge 27, Type (0, 1), BuildingBlock: TEMPAE_clean_linker_10, # of connection points: 2
#     Edge 28, Type (0, 1), BuildingBlock: TEMPAE_clean_linker_10, # of connection points: 2
#     Edge 29, Type (0, 1), BuildingBlock: TEMPAE_clean_linker_10, # of connection points: 2
#     Edge 30, Type (0, 1), BuildingBlock: TEMPAE_clean_linker_10, # of connection points: 2
#     Edge 31, Type (0, 1), BuildingBlock: TEMPAE_clean_linker_10, # of connection points: 2
#     Edge 32, Type (0, 1), BuildingBlock: TEMPAE_clean_linker_10, # of connection points: 2
#     Edge 33, Type (0, 1), BuildingBlock: TEMPAE_clean_linker_10, # of connection points: 2
#     Edge 34, Type (0, 1), BuildingBlock: TEMPAE_clean_linker_10, # of connection points: 2
#     Edge 35, Type (0, 1), BuildingBlock: TEMPAE_clean_linker_10, # of connection points: 2
#     Edge 36, Type (0, 1), BuildingBlock: TEMPAE_clean_linker_10, # of connection points: 2
#     Edge 37, Type (0, 1), BuildingBlock: TEMPAE_clean_linker_10, # of connection points: 2
#     Edge 38, Type (0, 1), BuildingBlock: TEMPAE_clean_linker_10, # of connection points: 2
#     Edge 39, Type (0, 1), BuildingBlock: TEMPAE_clean_linker_10, # of connection points: 2
#     Edge 40, Type (0, 1), BuildingBlock: TEMPAE_clean_linker_10, # of connection points: 2
#     Edge 41, Type (0, 1), BuildingBlock: TEMPAE_clean_linker_10, # of connection points: 2
#     Edge 42, Type (0, 1), BuildingBlock: TEMPAE_clean_linker_10, # of connection points: 2
#     Edge 43, Type (0, 1), BuildingBlock: TEMPAE_clean_linker_10, # of connection points: 2
#     Edge 44, Type (0, 1), BuildingBlock: TEMPAE_clean_linker_10, # of connection points: 2
#     Edge 45, Type (0, 1), BuildingBlock: TEMPAE_clean_linker_10, # of connection points: 2
#     Edge 46, Type (0, 1), BuildingBlock: TEMPAE_clean_linker_10, # of connection points: 2
#     Edge 47, Type (0, 1), BuildingBlock: TEMPAE_clean_linker_10, # of connection points: 2
#     Edge 48, Type (0, 1), BuildingBlock: TEMPAE_clean_linker_10, # of connection points: 2
#     Edge 49, Type (0, 1), BuildingBlock: TEMPAE_clean_linker_10, # of connection points: 2
#     Edge 50, Type (0, 1), BuildingBlock: TEMPAE_clean_linker_10, # of connection points: 2
#     Edge 51, Type (0, 1), BuildingBlock: TEMPAE_clean_linker_10, # of connection points: 2
#     Edge 52, Type (0, 1), BuildingBlock: TEMPAE_clean_linker_10, # of connection points: 2
#     Edge 53, Type (0, 1), BuildingBlock: TEMPAE_clean_linker_10, # of connection points: 2
#     Edge 54, Type (0, 1), BuildingBlock: TEMPAE_clean_linker_10, # of connection points: 2
#     Edge 55, Type (0, 1), BuildingBlock: TEMPAE_clean_linker_10, # of connection points: 2
#     Edge 56, Type (0, 1), BuildingBlock: TEMPAE_clean_linker_10, # of connection points: 2
#     Edge 57, Type (0, 1), BuildingBlock: TEMPAE_clean_linker_10, # of connection points: 2
#     Edge 58, Type (0, 1), BuildingBlock: TEMPAE_clean_linker_10, # of connection points: 2
#     Edge 59, Type (0, 1), BuildingBlock: TEMPAE_clean_linker_10, # of connection points: 2
#     Edge 60, Type (0, 1), BuildingBlock: TEMPAE_clean_linker_10, # of connection points: 2
#     Edge 61, Type (0, 1), BuildingBlock: TEMPAE_clean_linker_10, # of connection points: 2
#     Edge 62, Type (0, 1), BuildingBlock: TEMPAE_clean_linker_10, # of connection points: 2
#     Edge 63, Type (0, 1), BuildingBlock: TEMPAE_clean_linker_10, # of connection points: 2
#     Edge 64, Type (0, 1), BuildingBlock: TEMPAE_clean_linker_10, # of connection points: 2
#     Edge 65, Type (0, 1), BuildingBlock: TEMPAE_clean_linker_10, # of connection points: 2
#     Edge 66, Type (0, 1), BuildingBlock: TEMPAE_clean_linker_10, # of connection points: 2
#     Edge 67, Type (0, 1), BuildingBlock: TEMPAE_clean_linker_10, # of connection points: 2
#     Edge 68, Type (0, 1), BuildingBlock: TEMPAE_clean_linker_10, # of connection points: 2
#     Edge 69, Type (0, 1), BuildingBlock: TEMPAE_clean_linker_10, # of connection points: 2
#     Edge 70, Type (0, 1), BuildingBlock: TEMPAE_clean_linker_10, # of connection points: 2
#     Edge 71, Type (0, 1), BuildingBlock: TEMPAE_clean_linker_10, # of connection points: 2
# Relax obj value: 0.121
# Max RMSD: 0.311
# Mean RMSD: 0.273
data_MOF--net-ssc--node1-CEKHIL_clean_sbu_0--node2-KUFVIS_clean_linker_0--edge1-TEMPAE_clean_linker_10
_symmetry_space_group_name_H-M    P1
_symmetry_Int_Tables_number       1
_symmetry_cell_setting            triclinic
loop_
_symmetry_equiv_pos_as_xyz
'x, y, z'
_cell_length_a     31.181436
_cell_length_b     31.216757
_cell_length_c     31.062129
_cell_angle_alpha  91.137666
_cell_angle_beta   89.609288
_cell_angle_gamma 92.901387
loop_
_atom_site_label
_atom_site_type_symbol
_atom_site_fract_x
_atom_site_fract_y
_atom_site_fract_z
_atom_type_partial_charge
Co0 Co 0.0227 0.25462 0.13842 0.0
O1 O 0.06446 0.27146 0.09503 0.0
O2 O 0.00239 0.30153 0.10606 0.0
C3 C 0.06736 0.25045 0.19435 0.0
O4 O 0.97311 0.24934 0.18056 0.0
Co5 Co 0.02338 0.16677 0.18456 0.0
O6 O 0.98107 0.1933 0.22364 0.0
C7 C -0.00115 0.16999 0.09368 0.0
C8 C 0.03837 0.30083 0.08482 0.0
C9 C 0.96265 0.2273 0.21381 0.0
O10 O 0.99492 0.21082 0.09729 0.0
O11 O 0.01451 0.14763 0.12325 0.0
O12 O 0.05506 0.28759 0.18241 0.0
O13 O 0.05661 0.21837 0.16921 0.0
Co14 Co 0.01196 0.76035 0.42552 0.0
O15 O 0.05228 0.75225 0.47107 0.0
O16 O 0.99041 0.71508 0.46249 0.0
C17 C 0.05937 0.76403 0.37076 0.0
O18 O 0.96373 0.75623 0.38142 0.0
Co19 Co 0.01318 0.8421 0.37012 0.0
O20 O 0.98394 0.80101 0.32859 0.0
C21 C 0.98484 0.84648 0.4608 0.0
C22 C 0.02571 0.7217 0.48413 0.0
C23 C 0.963 0.76774 0.34192 0.0
O24 O 0.98302 0.80512 0.46199 0.0
O25 O -0.00117 0.86735 0.42806 0.0
O26 O 0.04636 0.72692 0.38576 0.0
O27 O 0.04702 0.79706 0.39217 0.0
Co28 Co 0.51856 0.76544 0.64519 0.0
O29 O 0.55816 0.7835 0.60031 0.0
O30 O 0.49559 0.8117 0.61372 0.0
C31 C 0.56552 0.76264 0.6997 0.0
O32 O 0.47083 0.75852 0.68977 0.0
Co33 Co 0.52428 0.67692 0.68844 0.0
O34 O 0.48433 0.70222 0.73081 0.0
C35 C 0.49277 0.68054 0.59995 0.0
C36 C 0.53072 0.8119 0.59097 0.0
C37 C 0.4639 0.73564 0.72332 0.0
O38 O 0.48987 0.72143 0.60452 0.0
O39 O 0.50966 0.65748 0.62823 0.0
O40 O 0.55166 0.79921 0.68797 0.0
O41 O 0.55529 0.73032 0.67454 0.0
Co42 Co 0.52709 0.25779 0.92594 0.0
O43 O 0.55958 0.24571 0.97631 0.0
O44 O 0.50004 0.20963 0.95546 0.0
C45 C 0.5819 0.26598 0.87875 0.0
O46 O 0.48632 0.25852 0.87536 0.0
Co47 Co 0.53807 0.34555 0.88008 0.0
O48 O 0.50916 0.31211 0.83235 0.0
C49 C 0.49695 0.34031 0.9652 0.0
C50 C 0.53097 0.21478 0.98321 0.0
C51 C 0.48702 0.27732 0.8389 0.0
O52 O 0.49256 0.29921 0.96098 0.0
O53 O 0.51796 0.36424 0.93863 0.0
O54 O 0.56715 0.22766 0.8887 0.0
O55 O 0.56688 0.29686 0.90148 0.0
Co56 Co 0.11576 -0.00058 0.25443 0.0
O57 O 0.15305 0.95993 0.22563 0.0
O58 O 0.14907 0.97026 0.29612 0.0
C59 C 0.05441 0.98535 0.21856 0.0
O60 O 0.08093 0.03486 0.29651 0.0
Co61 Co 0.07855 0.07616 0.20673 0.0
O62 O 0.04377 0.08229 0.26008 0.0
C63 C 0.17036 0.07454 0.22159 0.0
C64 C 0.16752 0.95165 0.26367 0.0
C65 C 0.05215 0.06294 0.29456 0.0
O66 O 0.16282 0.04519 0.24946 0.0
O67 O 0.14143 0.08982 0.19829 0.0
O68 O 0.06568 0.95967 0.24863 0.0
O69 O 0.08322 0.01417 0.20733 0.0
Co70 Co 0.26286 0.90139 0.52909 0.0
O71 O 0.24624 0.94208 0.5728 0.0
O72 O 0.21493 0.93241 0.50928 0.0
C73 C 0.27056 0.84447 0.57103 0.0
O74 O 0.2683 0.86148 0.47733 0.0
Co75 Co 0.35298 0.86226 0.5287 0.0
O76 O 0.32387 0.82003 0.48851 0.0
C77 C 0.34432 0.95349 0.51296 0.0
C78 C 0.21702 0.95304 0.546 0.0
C79 C 0.28921 0.82779 0.4692 0.0
O80 O 0.30434 0.94607 0.50444 0.0
O81 O 0.36838 0.92529 0.52767 0.0
O82 O 0.2324 0.85434 0.55903 0.0
O83 O 0.30132 0.872 0.56188 0.0
Co84 Co 0.39341 0.04474 0.77368 0.0
O85 O 0.339 0.06293 0.75431 0.0
O86 O 0.36213 0.06886 0.82161 0.0
C87 C 0.43432 0.07189 0.71963 0.0
O88 O 0.44749 0.03122 0.8058 0.0
Co89 Co 0.4475 0.9813 0.71986 0.0
O90 O 0.49334 0.99873 0.7613 0.0
C91 C 0.36537 0.95227 0.76024 0.0
C92 C 0.33173 0.07422 0.79411 0.0
C93 C 0.48469 0.01701 0.7971 0.0
O94 O 0.36589 0.98623 0.7844 0.0
O95 O 0.39298 0.94645 0.73028 0.0
O96 O 0.42334 0.09675 0.75161 0.0
O97 O 0.41691 0.03365 0.71964 0.0
Co98 Co 0.29005 0.12517 0.04021 0.0
O99 O 0.30198 0.07495 0.07181 0.0
O100 O 0.33966 0.09841 0.01555 0.0
C101 C 0.27961 0.16807 0.0978 0.0
O102 O 0.28907 0.17768 0.00175 0.0
Co103 Co 0.20147 0.16715 0.05016 0.0
O104 O 0.23413 0.21649 0.02447 0.0
C105 C 0.20784 0.08476 0.00386 0.0
C106 C 0.33429 0.07042 0.04589 0.0
C107 C 0.26895 0.21281 0.00321 0.0
O108 O 0.24913 0.08989 0.00152 0.0
O109 O 0.18405 0.10958 0.02552 0.0
O110 O 0.31858 0.16212 0.08447 0.0
O111 O 0.24999 0.14493 0.07879 0.0
Co112 Co 0.78645 0.41448 0.03684 0.0
O113 O 0.76396 0.4526 0.08016 0.0
O114 O 0.74216 0.44711 0.0124 0.0
C115 C 0.787 0.35469 0.07567 0.0
O116 O 0.7984 0.37796 0.98407 0.0
Co117 Co 0.87464 0.37323 0.04548 0.0
O118 O 0.84845 0.33237 0.00178 0.0
C119 C 0.87156 0.46504 0.02902 0.0
C120 C 0.73849 0.46493 0.05028 0.0
C121 C 0.81733 0.34271 0.97833 0.0
O122 O 0.83141 0.45972 0.02008 0.0
O123 O 0.89398 0.43549 0.04377 0.0
O124 O 0.75135 0.36648 0.05904 0.0
O125 O 0.81943 0.38198 0.07292 0.0
Co126 Co 0.89642 0.53359 0.26817 0.0
O127 O 0.85216 0.56479 0.24085 0.0
O128 O 0.86487 0.56581 0.31076 0.0
C129 C 0.95126 0.54748 0.22166 0.0
O130 O 0.93901 0.50788 0.30899 0.0
Co131 Co 0.936 0.45438 0.22348 0.0
O132 O 0.97197 0.45368 0.27583 0.0
C133 C 0.84482 0.45379 0.24518 0.0
C134 C 0.84098 0.57738 0.27937 0.0
C135 C 0.9667 0.47861 0.30825 0.0
O136 O 0.85359 0.48356 0.27348 0.0
O137 O 0.87281 0.4406 0.21844 0.0
O138 O 0.94171 0.57614 0.25086 0.0
O139 O 0.92471 0.51468 0.21867 0.0
Co140 Co 0.77911 0.62775 0.52983 0.0
O141 O 0.79377 0.5789 0.56195 0.0
O142 O 0.82461 0.59853 0.50048 0.0
C143 C 0.77646 0.67296 0.58664 0.0
O144 O 0.77434 0.67755 0.48866 0.0
Co145 Co 0.69307 0.67216 0.54738 0.0
O146 O 0.71667 0.71503 0.50622 0.0
C147 C 0.6937 0.585 0.51019 0.0
C148 C 0.82197 0.57174 0.53207 0.0
C149 C 0.75052 0.70963 0.48392 0.0
O150 O 0.73339 0.59115 0.49903 0.0
O151 O 0.67369 0.61147 0.53388 0.0
O152 O 0.81337 0.66633 0.56846 0.0
O153 O 0.74414 0.65035 0.57192 0.0
Co154 Co 0.63613 0.51202 0.77453 0.0
O155 O 0.67736 0.4782 0.74458 0.0
O156 O 0.67299 0.48638 0.81544 0.0
C157 C 0.57769 0.4905 0.73656 0.0
O158 O 0.59793 0.54203 0.81761 0.0
Co159 Co 0.58879 0.58358 0.72863 0.0
O160 O 0.55535 0.58613 0.78337 0.0
C161 C 0.68176 0.58881 0.73842 0.0
C162 C 0.6929 0.47064 0.78231 0.0
C163 C 0.56668 0.56734 0.81729 0.0
O164 O 0.67735 0.56298 0.76998 0.0
O165 O 0.65075 0.59848 0.71436 0.0
O166 O 0.59089 0.46664 0.76733 0.0
O167 O 0.60238 0.52342 0.72751 0.0
H168 H 0.94333 0.39977 0.68566 0.0
H169 H 0.98795 0.29682 0.76013 0.0
H170 H 0.03118 0.31399 0.6284 0.0
H171 H 0.02932 0.23815 0.63422 0.0
H172 H 0.11696 0.16897 0.70869 0.0
H173 H 0.06309 0.28131 0.76374 0.0
C174 C 0.96373 0.37284 0.68883 0.0
C175 C 0.98744 0.35958 0.6531 0.0
C176 C 0.96381 0.35074 0.72754 0.0
C177 C 0.98859 0.31456 0.73048 0.0
C178 C 0.01366 0.30102 0.69504 0.0
C179 C 0.01237 0.32363 0.65606 0.0
C180 C 0.04135 0.26369 0.69903 0.0
C181 C 0.04629 0.23442 0.66412 0.0
C182 C 0.07376 0.20044 0.6677 0.0
C183 C 0.09525 0.19495 0.70627 0.0
C184 C 0.09136 0.22372 0.74091 0.0
C185 C 0.06456 0.25816 0.73738 0.0
H186 H 0.98332 0.62261 0.84113 0.0
H187 H 0.03907 0.74404 0.88383 0.0
H188 H 0.97698 0.73317 0.76092 0.0
H189 H 0.05946 0.76381 0.75059 0.0
H190 H 0.08819 0.89532 0.78657 0.0
H191 H 0.0107 0.81534 0.86947 0.0
C192 C 0.99091 0.65612 0.83481 0.0
C193 C 0.97515 0.67466 0.7976 0.0
C194 C 0.0115 0.68144 0.86704 0.0
C195 C 0.02253 0.72458 0.85921 0.0
C196 C 0.0124 0.74229 0.81951 0.0
C197 C 0.9878 0.71766 0.78945 0.0
C198 C 0.02843 0.78603 0.80857 0.0
C199 C 0.05317 0.79148 0.77094 0.0
C200 C 0.07626 0.83036 0.76376 0.0
C201 C 0.06893 0.86571 0.79079 0.0
C202 C 0.04671 0.86016 0.82964 0.0
C203 C 0.02601 0.82034 0.83841 0.0
H204 H 0.43021 0.87857 0.18915 0.0
H205 H 0.46405 0.77152 0.26479 0.0
H206 H 0.52341 0.79452 0.14016 0.0
H207 H 0.51439 0.72048 0.13919 0.0
H208 H 0.59275 0.63956 0.2107 0.0
H209 H 0.54063 0.74934 0.27375 0.0
C210 C 0.44986 0.85137 0.19413 0.0
C211 C 0.47736 0.83906 0.16112 0.0
C212 C 0.44489 0.82777 0.23182 0.0
C213 C 0.46874 0.79087 0.23642 0.0
C214 C 0.49763 0.77841 0.20354 0.0
C215 C 0.50176 0.80321 0.16595 0.0
C216 C 0.52211 0.73865 0.20689 0.0
C217 C 0.52823 0.71263 0.16977 0.0
C218 C 0.55372 0.67719 0.17146 0.0
C219 C 0.57156 0.66614 0.21045 0.0
C220 C 0.56727 0.69176 0.24753 0.0
C221 C 0.54242 0.72823 0.24575 0.0
H222 H 0.45792 0.1277 0.35211 0.0
H223 H 0.51806 0.24629 0.39792 0.0
H224 H 0.45933 0.23842 0.27259 0.0
H225 H 0.53676 0.27568 0.26348 0.0
H226 H 0.5592 0.4053 0.30797 0.0
H227 H 0.48853 0.31542 0.38721 0.0
C228 C 0.46933 0.16048 0.34606 0.0
C229 C 0.45588 0.18026 0.30887 0.0
C230 C 0.49007 0.18449 0.37898 0.0
C231 C 0.50239 0.22758 0.37223 0.0
C232 C 0.49342 0.24648 0.33264 0.0
C233 C 0.4698 0.22272 0.30124 0.0
C234 C 0.50704 0.29146 0.32432 0.0
C235 C 0.52948 0.30123 0.28615 0.0
C236 C 0.54855 0.34225 0.28038 0.0
C237 C 0.54156 0.37459 0.31106 0.0
C238 C 0.52147 0.36469 0.35035 0.0
C239 C 0.5031 0.32337 0.35641 0.0
H240 H 0.69294 0.9577 0.41598 0.0
H241 H 0.75746 0.99688 0.29953 0.0
H242 H 0.62798 0.03375 0.32685 0.0
H243 H 0.62704 0.01852 0.25112 0.0
H244 H 0.69135 0.09551 0.15515 0.0
H245 H 0.75637 0.07104 0.27258 0.0
C246 C 0.69432 0.97662 0.38703 0.0
C247 C 0.65755 0.9972 0.37535 0.0
C248 C 0.73055 0.97594 0.36012 0.0
C249 C 0.73005 0.99797 0.3211 0.0
C250 C 0.69332 0.0194 0.30878 0.0
C251 C 0.65685 0.01841 0.33608 0.0
C252 C 0.69251 0.04065 0.26635 0.0
C253 C 0.65552 0.03664 0.24028 0.0
C254 C 0.65528 0.05585 0.19986 0.0
C255 C 0.69218 0.07889 0.18549 0.0
C256 C 0.72855 0.08468 0.21147 0.0
C257 C 0.72865 0.06556 0.25195 0.0
H258 H 0.13742 0.33208 0.44312 0.0
H259 H 0.21936 0.39603 0.53664 0.0
H260 H 0.23473 0.26221 0.50366 0.0
H261 H 0.24917 0.267 0.58254 0.0
H262 H 0.36726 0.32727 0.62841 0.0
H263 H 0.29492 0.39068 0.53464 0.0
C264 C 0.16273 0.33064 0.46682 0.0
C265 C 0.18333 0.29234 0.47216 0.0
C266 C 0.17614 0.368 0.48931 0.0
C267 C 0.20954 0.36695 0.51894 0.0
C268 C 0.2307 0.32859 0.52485 0.0
C269 C 0.21754 0.29136 0.50101 0.0
C270 C 0.26824 0.32804 0.55369 0.0
C271 C 0.27349 0.293 0.58098 0.0
C272 C 0.30938 0.29279 0.60777 0.0
C273 C 0.34011 0.32688 0.60671 0.0
C274 C 0.33449 0.36238 0.5813 0.0
C275 C 0.29875 0.36305 0.55457 0.0
H276 H 0.79532 0.08427 0.90813 0.0
H277 H 0.72864 0.06019 0.78871 0.0
H278 H 0.84712 -0.00047 0.81342 0.0
H279 H 0.84328 0.02896 0.72955 0.0
H280 H 0.77646 0.93243 0.65155 0.0
H281 H 0.72576 0.96665 0.77528 0.0
C282 C 0.79147 0.06658 0.87785 0.0
C283 C 0.82382 0.03971 0.86478 0.0
C284 C 0.75748 0.0751 0.85053 0.0
C285 C 0.75465 0.0539 0.81031 0.0
C286 C 0.7867 0.02628 0.797 0.0
C287 C 0.82181 0.01995 0.82396 0.0
C288 C 0.78283 0.00323 0.75531 0.0
C289 C 0.81542 0.00747 0.7238 0.0
C290 C 0.8125 0.98285 0.68547 0.0
C291 C 0.77698 0.9541 0.67934 0.0
C292 C 0.74632 0.94726 0.71195 0.0
C293 C 0.74848 0.97298 0.74928 0.0
H294 H 0.41654 0.71579 0.98517 0.0
H295 H 0.33258 0.64189 0.06709 0.0
H296 H 0.29173 0.76062 0.01534 0.0
H297 H 0.25652 0.75981 0.08384 0.0
H298 H 0.15015 0.67279 0.11331 0.0
H299 H 0.26133 0.62418 0.05265 0.0
C300 C 0.3871 0.71361 0.00395 0.0
C301 C 0.35597 0.74403 0.99855 0.0
C302 C 0.37877 0.67681 0.02818 0.0
C303 C 0.33904 0.67086 0.04902 0.0
C304 C 0.30745 0.70137 0.04522 0.0
C305 C 0.31642 0.73804 0.02013 0.0
C306 C 0.26388 0.69341 0.06428 0.0
C307 C 0.24136 0.72782 0.08208 0.0
C308 C 0.19989 0.72071 0.09934 0.0
C309 C 0.18128 0.67909 0.09845 0.0
C310 C 0.20369 0.64439 0.08304 0.0
C311 C 0.2447 0.65137 0.06532 0.0
H312 H 0.61343 0.83652 0.95511 0.0
H313 H 0.6701 0.9065 0.06153 0.0
H314 H 0.71964 0.78511 0.0195 0.0
H315 H 0.74318 0.78611 0.09024 0.0
H316 H 0.81722 0.87765 0.16808 0.0
H317 H 0.74185 0.92205 0.06605 0.0
C318 C 0.63572 0.8383 0.98185 0.0
C319 C 0.66384 0.80523 0.98655 0.0
C320 C 0.63853 0.87524 0.00796 0.0
C321 C 0.66905 0.87824 0.04067 0.0
C322 C 0.699 0.84616 0.04538 0.0
C323 C 0.69623 0.80946 0.01781 0.0
C324 C 0.73425 0.85336 0.07733 0.0
C325 C 0.75276 0.81903 0.09851 0.0
C326 C 0.78477 0.82769 0.12973 0.0
C327 C 0.79426 0.87042 0.14253 0.0
C328 C 0.78017 0.90421 0.11873 0.0
C329 C 0.75079 0.8957 0.08574 0.0
H330 H 0.27533 0.57731 0.41036 0.0
H331 H 0.22196 0.54431 0.28648 0.0
H332 H 0.34885 0.50654 0.31936 0.0
H333 H 0.35483 0.51871 0.24319 0.0
H334 H 0.29445 0.43764 0.1464 0.0
H335 H 0.22389 0.46976 0.26047 0.0
C336 C 0.27686 0.55988 0.37988 0.0
C337 C 0.31507 0.54071 0.36883 0.0
C338 C 0.24345 0.5623 0.35018 0.0
C339 C 0.24735 0.54194 0.30986 0.0
C340 C 0.28497 0.52112 0.29846 0.0
C341 C 0.31922 0.52136 0.32794 0.0
C342 C 0.28787 0.49966 0.25555 0.0
C343 C 0.32626 0.50146 0.23105 0.0
C344 C 0.32786 0.47984 0.19106 0.0
C345 C 0.29147 0.45671 0.17579 0.0
C346 C 0.25439 0.45166 0.20119 0.0
C347 C 0.25221 0.47445 0.24032 0.0
H348 H 0.90155 0.21624 0.45915 0.0
H349 H 0.81257 0.15138 0.5438 0.0
H350 H 0.79044 0.28014 0.50369 0.0
H351 H 0.76717 0.27963 0.58128 0.0
H352 H 0.64544 0.21551 0.60959 0.0
H353 H 0.73611 0.15151 0.53101 0.0
C354 C 0.87384 0.21766 0.48037 0.0
C355 C 0.84822 0.25329 0.4796 0.0
C356 C 0.86112 0.18089 0.50297 0.0
C357 C 0.82303 0.18033 0.52724 0.0
C358 C 0.79803 0.21688 0.52901 0.0
C359 C 0.81093 0.25316 0.50499 0.0
C360 C 0.75625 0.21624 0.55217 0.0
C361 C 0.74455 0.25238 0.57698 0.0
C362 C 0.70421 0.25269 0.59744 0.0
C363 C 0.67585 0.21692 0.5923 0.0
C364 C 0.68742 0.18054 0.56924 0.0
C365 C 0.72756 0.17991 0.54907 0.0
H366 H 0.21855 0.4425 0.9061 0.0
H367 H 0.26647 0.47981 0.78226 0.0
H368 H 0.1464 0.52647 0.83013 0.0
H369 H 0.13511 0.5202 0.75358 0.0
H370 H 0.19656 0.59902 0.65761 0.0
H371 H 0.27078 0.55644 0.76281 0.0
C372 C 0.21602 0.46216 0.87788 0.0
C373 C 0.17924 0.48527 0.87231 0.0
C374 C 0.24713 0.45965 0.84551 0.0
C375 C 0.24291 0.4829 0.80781 0.0
C376 C 0.20725 0.50845 0.8023 0.0
C377 C 0.17485 0.50853 0.83442 0.0
C378 C 0.20373 0.53375 0.76238 0.0
C379 C 0.164 0.53626 0.74097 0.0
C380 C 0.16183 0.55934 0.70275 0.0
C381 C 0.19899 0.57982 0.68619 0.0
C382 C 0.23826 0.57905 0.70754 0.0
C383 C 0.24057 0.55611 0.74572 0.0
C384 C 0.02729 0.37083 0.04931 0.0
C385 C 0.05004 0.33329 0.05208 0.0
C386 C 0.04016 0.40329 0.0205 0.0
C387 C 0.07606 0.39759 0.99317 0.0
C388 C 0.09811 0.359 0.99491 0.0
C389 C 0.08509 0.32757 0.02456 0.0
C390 C 0.01533 0.44351 0.01963 0.0
C391 C 0.13568 0.35087 0.96545 0.0
C392 C 0.10619 0.45514 0.89057 0.0
C393 C 0.14375 0.47812 0.90376 0.0
C394 C 0.08048 0.43212 0.92045 0.0
C395 C 0.09284 0.43227 0.96426 0.0
C396 C 0.12742 0.46013 0.97836 0.0
C397 C 0.15246 0.48281 0.94788 0.0
C398 C 0.04311 0.40386 0.90432 0.0
C399 C 0.14143 0.4618 0.02482 0.0
H400 H 2e-05 0.3754 0.07044 0.0
H401 H 0.10253 0.29848 0.02626 0.0
H402 H 0.03703 0.4721 0.01439 0.0
H403 H 0.99215 0.44103 0.99266 0.0
H404 H 0.99697 0.44838 0.04997 0.0
H405 H 0.15194 0.32123 0.97358 0.0
H406 H 0.12436 0.34783 0.93168 0.0
H407 H 0.15951 0.37837 0.96705 0.0
H408 H 0.09945 0.45139 0.85646 0.0
H409 H 0.18147 0.5007 0.9581 0.0
H410 H 0.01508 0.40622 0.92626 0.0
H411 H 0.05219 0.36993 0.9036 0.0
H412 H 0.03343 0.41245 0.87135 0.0
H413 H 0.11322 0.4621 0.04674 0.0
H414 H 0.16293 0.49047 0.03204 0.0
H415 H 0.15911 0.43276 0.03171 0.0
C416 C 0.89014 0.74629 0.31599 0.0
C417 C 0.93441 0.74451 0.31117 0.0
C418 C 0.86309 0.73703 0.28081 0.0
C419 C 0.88117 0.72658 0.24009 0.0
C420 C 0.92429 0.71452 0.23869 0.0
C421 C 0.9512 0.72549 0.27382 0.0
C422 C 0.81562 0.74022 0.28717 0.0
C423 C 0.94235 0.69272 0.19927 0.0
C424 C 0.79583 0.75392 0.15972 0.0
C425 C 0.81217 0.79438 0.14722 0.0
C426 C 0.82098 0.7276 0.18468 0.0
C427 C 0.86141 0.74376 0.20049 0.0
C428 C 0.87989 0.7821 0.18273 0.0
C429 C 0.8557 0.80541 0.15469 0.0
C430 C 0.80302 0.68359 0.19507 0.0
C431 C 0.9237 0.80114 0.1956 0.0
H432 H 0.87703 0.75829 0.34602 0.0
H433 H 0.98546 0.72137 0.27126 0.0
H434 H 0.79981 0.70807 0.28146 0.0
H435 H 0.80737 0.75038 0.32054 0.0
H436 H 0.80256 0.76293 0.26422 0.0
H437 H 0.97798 0.69588 0.19838 0.0
H438 H 0.93234 0.65813 0.20012 0.0
H439 H 0.92953 0.70511 0.16898 0.0
H440 H 0.7631 0.74349 0.1518 0.0
H441 H 0.86998 0.83463 0.1413 0.0
H442 H 0.773 0.68678 0.21376 0.0
H443 H 0.82595 0.66479 0.21312 0.0
H444 H 0.7942 0.66583 0.16481 0.0
H445 H 0.93178 0.83218 0.17997 0.0
H446 H 0.94911 0.77936 0.18583 0.0
H447 H 0.92517 0.80633 0.23103 0.0
C448 C 0.48836 0.61829 0.54796 0.0
C449 C 0.47401 0.65834 0.56136 0.0
C450 C 0.4687 0.59508 0.51367 0.0
C451 C 0.4332 0.6118 0.4929 0.0
C452 C 0.41933 0.6528 0.50545 0.0
C453 C 0.44039 0.67588 0.53905 0.0
C454 C 0.48543 0.55219 0.50084 0.0
C455 C 0.38147 0.6718 0.48417 0.0
C456 C 0.38845 0.57175 0.3853 0.0
C457 C 0.35173 0.54773 0.39861 0.0
C458 C 0.41715 0.5906 0.41569 0.0
C459 C 0.40848 0.58552 0.46017 0.0
C460 C 0.37377 0.55782 0.47347 0.0
C461 C 0.34581 0.53918 0.44245 0.0
C462 C 0.45538 0.61784 0.40036 0.0
C463 C 0.36486 0.54966 0.52054 0.0
H464 H 0.51495 0.60484 0.56445 0.0
H465 H 0.42947 0.707 0.54881 0.0
H466 H 0.46895 0.52678 0.52022 0.0
H467 H 0.47968 0.54412 0.46639 0.0
H468 H 0.52038 0.55191 0.50708 0.0
H469 H 0.37348 0.70313 0.49895 0.0
H470 H 0.38876 0.67653 0.44957 0.0
H471 H 0.35277 0.64938 0.48627 0.0
H472 H 0.39299 0.57848 0.35142 0.0
H473 H 0.31755 0.52026 0.45262 0.0
H474 H 0.4849 0.60882 0.41702 0.0
H475 H 0.45058 0.65206 0.40839 0.0
H476 H 0.46044 0.61452 0.36503 0.0
H477 H 0.39158 0.53224 0.53426 0.0
H478 H 0.33442 0.53033 0.52569 0.0
H479 H 0.36321 0.58046 0.53877 0.0
C480 C 0.61632 0.24139 0.8101 0.0
C481 C 0.60592 0.27482 0.83836 0.0
C482 C 0.63555 0.25008 0.76999 0.0
C483 C 0.64438 0.29325 0.75785 0.0
C484 C 0.63508 0.32696 0.7868 0.0
C485 C 0.61616 0.31739 0.82677 0.0
C486 C 0.64502 0.21306 0.73997 0.0
C487 C 0.64396 0.37315 0.77513 0.0
C488 C 0.72225 0.29283 0.66517 0.0
C489 C 0.69345 0.2847 0.63131 0.0
C490 C 0.70703 0.30209 0.70672 0.0
C491 C 0.6622 0.30235 0.71423 0.0
C492 C 0.63407 0.30258 0.67872 0.0
C493 C 0.65037 0.29488 0.63726 0.0
C494 C 0.73925 0.30662 0.74246 0.0
C495 C 0.58618 0.30518 0.68487 0.0
H496 H 0.60864 0.20845 0.81891 0.0
H497 H 0.60857 0.34347 0.84858 0.0
H498 H 0.62404 0.21383 0.71142 0.0
H499 H 0.67864 0.21615 0.7281 0.0
H500 H 0.6397 0.18147 0.75551 0.0
H501 H 0.62005 0.38247 0.75123 0.0
H502 H 0.64204 0.39495 0.80369 0.0
H503 H 0.67616 0.37755 0.76005 0.0
H504 H 0.75594 0.28671 0.6607 0.0
H505 H 0.62824 0.29053 0.61055 0.0
H506 H 0.75676 0.27672 0.74408 0.0
H507 H 0.72502 0.31429 0.7743 0.0
H508 H 0.76349 0.33237 0.73449 0.0
H509 H 0.57256 0.2742 0.69712 0.0
H510 H 0.5698 0.31191 0.65425 0.0
H511 H 0.5789 0.33046 0.70902 0.0
C512 C 0.0787 0.69334 0.53453 0.0
C513 C 0.0362 0.69437 0.52059 0.0
C514 C 0.0899 0.66615 0.56754 0.0
C515 C 0.05779 0.63935 0.58754 0.0
C516 C 0.0145 0.64106 0.57426 0.0
C517 C 0.00434 0.66826 0.54064 0.0
C518 C 0.13648 0.66575 0.58042 0.0
C519 C 0.9783 0.61466 0.59474 0.0
C520 C 0.11518 0.55016 0.63874 0.0
C521 C 0.12126 0.56703 0.68052 0.0
C522 C 0.08988 0.57075 0.60904 0.0
C523 C 0.07085 0.60942 0.6214 0.0
C524 C 0.07246 0.62337 0.6651 0.0
C525 C 0.09776 0.60191 0.69424 0.0
C526 C 0.08765 0.55361 0.56327 0.0
C527 C 0.05192 0.6639 0.67986 0.0
H528 H 0.10354 0.71319 0.51895 0.0
H529 H 0.97128 0.66909 0.53018 0.0
H530 H 0.15057 0.63624 0.56739 0.0
H531 H 0.15572 0.69383 0.56798 0.0
H532 H 0.13935 0.66548 0.61596 0.0
H533 H 0.96211 0.59375 0.56979 0.0
H534 H 0.98871 0.5946 0.62138 0.0
H535 H 0.95388 0.63633 0.6075 0.0
H536 H 0.1337 0.52342 0.628 0.0
H537 H 0.10297 0.61532 0.72638 0.0
H538 H 0.1136 0.56959 0.54388 0.0
H539 H 0.05652 0.56004 0.54821 0.0
H540 H 0.09218 0.51854 0.56185 0.0
H541 H 0.07097 0.69208 0.66744 0.0
H542 H 0.05035 0.66682 0.71555 0.0
H543 H 0.01895 0.66486 0.66685 0.0
C544 C 0.59278 0.79347 0.76944 0.0
C545 C 0.58552 0.75756 0.7423 0.0
C546 C 0.61025 0.78956 0.81052 0.0
C547 C 0.62188 0.7488 0.82455 0.0
C548 C 0.61561 0.71249 0.79695 0.0
C549 C 0.59671 0.71713 0.75639 0.0
C550 C 0.61514 0.82909 0.83928 0.0
C551 C 0.62912 0.66898 0.81018 0.0
C552 C 0.69256 0.77061 0.92073 0.0
C553 C 0.66127 0.77062 0.9533 0.0
C554 C 0.68156 0.7572 0.87857 0.0
C555 C 0.63823 0.74481 0.86916 0.0
C556 C 0.60846 0.73854 0.90335 0.0
C557 C 0.62086 0.75033 0.94539 0.0
C558 C 0.71478 0.76217 0.84329 0.0
C559 C 0.56185 0.72601 0.89486 0.0
H560 H 0.58409 0.82474 0.75887 0.0
H561 H 0.5913 0.68921 0.73547 0.0
H562 H 0.59674 0.82404 0.86963 0.0
H563 H 0.64935 0.83545 0.84795 0.0
H564 H 0.60358 0.85797 0.82361 0.0
H565 H 0.62417 0.64454 0.78409 0.0
H566 H 0.66354 0.67083 0.81921 0.0
H567 H 0.61063 0.65816 0.8389 0.0
H568 H 0.72395 0.78604 0.92679 0.0
H569 H 0.59684 0.75008 0.97083 0.0
H570 H 0.71209 0.79379 0.82812 0.0
H571 H 0.70967 0.73698 0.81788 0.0
H572 H 0.74783 0.76069 0.85612 0.0
H573 H 0.54719 0.7516 0.87652 0.0
H574 H 0.54318 0.72112 0.92507 0.0
H575 H 0.55902 0.69623 0.87493 0.0
C576 C 0.43399 0.3551 0.01195 0.0
C577 C 0.47777 0.36138 0.00281 0.0
C578 C 0.41509 0.37805 0.04581 0.0
C579 C 0.44104 0.40668 0.07192 0.0
C580 C 0.48571 0.41139 0.0638 0.0
C581 C 0.5034 0.38925 0.0288 0.0
C582 C 0.36732 0.37199 0.05338 0.0
C583 C 0.51522 0.43887 0.09234 0.0
C584 C 0.37646 0.49098 0.12832 0.0
C585 C 0.36837 0.47202 0.16821 0.0
C586 C 0.40321 0.47177 0.09774 0.0
C587 C 0.4209 0.43206 0.10701 0.0
C588 C 0.41575 0.41486 0.14864 0.0
C589 C 0.3898 0.43535 0.17895 0.0
C590 C 0.40998 0.49227 0.05443 0.0
C591 C 0.43484 0.3731 0.16006 0.0
H592 H 0.41436 0.33332 0.99175 0.0
H593 H 0.53751 0.39335 0.02197 0.0
H594 H 0.3611 0.36227 0.08701 0.0
H595 H 0.35184 0.40281 0.04889 0.0
H596 H 0.35198 0.34739 0.0313 0.0
H597 H 0.54512 0.44924 0.07501 0.0
H598 H 0.49927 0.46748 0.105 0.0
H599 H 0.52458 0.41987 0.12026 0.0
H600 H 0.35923 0.51889 0.11982 0.0
H601 H 0.3827 0.42029 0.20953 0.0
H602 H 0.3933 0.47218 0.02918 0.0
H603 H 0.4447 0.49433 0.04606 0.0
H604 H 0.3976 0.525 0.05383 0.0
H605 H 0.42734 0.36376 0.19371 0.0
H606 H 0.47022 0.37586 0.15596 0.0
H607 H 0.42248 0.34703 0.13796 0.0
C608 C 0.90911 0.21729 0.27303 0.0
C609 C 0.931 0.24454 0.24421 0.0
C610 C 0.88562 0.23407 0.30741 0.0
C611 C 0.88505 0.27922 0.31355 0.0
C612 C 0.90232 0.30658 0.28146 0.0
C613 C 0.92541 0.2889 0.2471 0.0
C614 C 0.86329 0.2034 0.33834 0.0
C615 C 0.89866 0.35453 0.28466 0.0
C616 C 0.82242 0.2896 0.41493 0.0
C617 C 0.8557 0.284 0.44416 0.0
C618 C 0.83172 0.29646 0.37128 0.0
C619 C 0.87487 0.29633 0.35714 0.0
C620 C 0.90831 0.29952 0.38793 0.0
C621 C 0.89803 0.2948 0.43155 0.0
C622 C 0.79505 0.29762 0.34016 0.0
C623 C 0.95502 0.29993 0.3747 0.0
H624 H 0.91185 0.18288 0.26974 0.0
H625 H 0.94126 0.31014 0.22409 0.0
H626 H 0.87379 0.21064 0.37187 0.0
H627 H 0.82817 0.2072 0.33719 0.0
H628 H 0.86928 0.16936 0.33039 0.0
H629 H 0.90284 0.36942 0.25265 0.0
H630 H 0.86706 0.36273 0.29836 0.0
H631 H 0.92396 0.36879 0.30619 0.0
H632 H 0.78931 0.28292 0.42457 0.0
H633 H 0.92368 0.29226 0.45463 0.0
H634 H 0.77989 0.26492 0.33585 0.0
H635 H 0.80543 0.30988 0.30825 0.0
H636 H 0.77019 0.31827 0.35381 0.0
H637 H 0.96227 0.26823 0.36035 0.0
H638 H 0.97678 0.30647 0.40248 0.0
H639 H 0.96214 0.32443 0.35002 0.0
C640 C 0.01664 0.03967 0.3632 0.0
C641 C 0.02618 0.07194 0.33337 0.0
C642 C 0.98844 0.04642 0.39787 0.0
C643 C 0.97066 0.08699 0.40381 0.0
C644 C 0.98122 0.12003 0.37423 0.0
C645 C 0.00842 0.11196 0.33919 0.0
C646 C 0.9785 0.00993 0.42787 0.0
C647 C 0.96338 0.16394 0.37932 0.0
C648 C 0.86789 0.11465 0.45948 0.0
C649 C 0.88428 0.14185 0.49249 0.0
C650 C 0.89559 0.09159 0.43293 0.0
C651 C 0.94045 0.09585 0.44001 0.0
C652 C 0.95605 0.1175 0.47764 0.0
C653 C 0.9278 0.14086 0.50324 0.0
C654 C 0.8774 0.0674 0.39411 0.0
C655 C 0.00324 0.11997 0.48806 0.0
H656 H 0.03006 0.0085 0.35865 0.0
H657 H 0.01587 0.13706 0.31626 0.0
H658 H 0.94733 0.01267 0.44481 0.0
H659 H 0.97805 0.97861 0.4102 0.0
H660 H 0.00449 0.00987 0.45198 0.0
H661 H 0.97152 0.18486 0.3516 0.0
H662 H 0.92805 0.16087 0.3829 0.0
H663 H 0.97612 0.17989 0.40914 0.0
H664 H 0.83426 0.1156 0.451 0.0
H665 H 0.94049 0.16191 0.5288 0.0
H666 H 0.89324 0.03661 0.38926 0.0
H667 H 0.88359 0.08685 0.36496 0.0
H668 H 0.84219 0.06065 0.39721 0.0
H669 H 0.01688 0.0882 0.48244 0.0
H670 H 0.00923 0.13044 0.52199 0.0
H671 H 0.02033 0.14318 0.46652 0.0
C672 C 0.32146 0.79021 0.5951 0.0
C673 C 0.27912 0.80281 0.59025 0.0
C674 C 0.33013 0.7521 0.61604 0.0
C675 C 0.29565 0.7264 0.63297 0.0
C676 C 0.25292 0.73931 0.62844 0.0
C677 C 0.24514 0.77679 0.60631 0.0
C678 C 0.37613 0.74053 0.62163 0.0
C679 C 0.21535 0.71423 0.64823 0.0
C680 C 0.28312 0.6085 0.64783 0.0
C681 C 0.27377 0.60813 0.69205 0.0
C682 C 0.29712 0.64668 0.62801 0.0
C683 C 0.30268 0.68465 0.65344 0.0
C684 C 0.30223 0.68194 0.69891 0.0
C685 C 0.28721 0.64351 0.71787 0.0
C686 C 0.29909 0.64781 0.57947 0.0
C687 C 0.31079 0.72101 0.72739 0.0
H688 H 0.34799 0.81049 0.58323 0.0
H689 H 0.21249 0.7867 0.60324 0.0
H690 H 0.38594 0.74756 0.65538 0.0
H691 H 0.37984 0.7058 0.61535 0.0
H692 H 0.39834 0.75927 0.60019 0.0
H693 H 0.18425 0.72858 0.64167 0.0
H694 H 0.21417 0.68066 0.63574 0.0
H695 H 0.21932 0.71321 0.68365 0.0
H696 H 0.27369 0.58064 0.62801 0.0
H697 H 0.28077 0.6431 0.75223 0.0
H698 H 0.32836 0.66641 0.56877 0.0
H699 H 0.27084 0.66402 0.56728 0.0
H700 H 0.29891 0.61511 0.56472 0.0
H701 H 0.33575 0.74321 0.71337 0.0
H702 H 0.32085 0.71202 0.7601 0.0
H703 H 0.28079 0.73826 0.73074 0.0
C704 C 0.55287 0.99192 0.82684 0.0
C705 C 0.51673 0.01656 0.83195 0.0
C706 C 0.57744 0.98187 0.8624 0.0
C707 C 0.56563 0.99702 0.90383 0.0
C708 C 0.53352 0.0273 0.9081 0.0
C709 C 0.50911 0.03654 0.87196 0.0
C710 C 0.61331 0.9515 0.8562 0.0
C711 C 0.52341 0.04815 0.95096 0.0
C712 C 0.57239 0.90537 0.9797 0.0
C713 C 0.61414 0.91257 0.99541 0.0
C714 C 0.55507 0.93407 0.9515 0.0
C715 C 0.57876 0.97268 0.94162 0.0
C716 C 0.61812 0.98311 0.96262 0.0
C717 C 0.63574 0.95254 0.98902 0.0
C718 C 0.51485 0.91919 0.9274 0.0
C719 C 0.6437 0.02435 0.9537 0.0
H720 H 0.56011 0.97767 0.79572 0.0
H721 H 0.48253 0.05745 0.87568 0.0
H722 H 0.60497 0.92095 0.87265 0.0
H723 H 0.61976 0.94423 0.82167 0.0
H724 H 0.64324 0.96545 0.871 0.0
H725 H 0.4917 0.06288 0.95098 0.0
H726 H 0.52388 0.02486 0.97736 0.0
H727 H 0.54831 0.07391 0.95808 0.0
H728 H 0.55535 0.87479 0.98526 0.0
H729 H 0.66801 0.95845 0.00128 0.0
H730 H 0.49574 0.94624 0.91754 0.0
H731 H 0.49417 0.89689 0.94694 0.0
H732 H 0.52424 0.90149 0.89773 0.0
H733 H 0.65976 0.02186 0.92185 0.0
H734 H 0.66882 0.03142 0.9784 0.0
H735 H 0.62237 0.05168 0.95271 0.0
C736 C 0.29671 0.24087 0.1307 0.0
C737 C 0.26742 0.20633 0.12245 0.0
C738 C 0.28246 0.27971 0.14776 0.0
C739 C 0.2379 0.28424 0.15505 0.0
C740 C 0.20871 0.24899 0.1479 0.0
C741 C 0.22389 0.21028 0.1326 0.0
C742 C 0.31489 0.31618 0.15722 0.0
C743 C 0.16113 0.25225 0.15367 0.0
C744 C 0.22349 0.38173 0.22443 0.0
C745 C 0.22603 0.41308 0.19266 0.0
C746 C 0.22174 0.33819 0.21273 0.0
C747 C 0.22234 0.32651 0.16859 0.0
C748 C 0.21538 0.35766 0.13726 0.0
C749 C 0.21659 0.40101 0.1499 0.0
C750 C 0.225 0.30531 0.24726 0.0
C751 C 0.21297 0.34606 0.08995 0.0
H752 H 0.33036 0.238 0.12282 0.0
H753 H 0.20098 0.18354 0.12667 0.0
H754 H 0.30654 0.34515 0.13959 0.0
H755 H 0.3141 0.32456 0.1921 0.0
H756 H 0.34808 0.30801 0.14829 0.0
H757 H 0.14602 0.22084 0.16315 0.0
H758 H 0.15327 0.27713 0.17797 0.0
H759 H 0.14705 0.26088 0.12252 0.0
H760 H 0.2293 0.39079 0.25784 0.0
H761 H 0.21692 0.4254 0.12548 0.0
H762 H 0.25834 0.29449 0.24814 0.0
H763 H 0.20317 0.27688 0.24032 0.0
H764 H 0.21693 0.31869 0.27952 0.0
H765 H 0.24596 0.34204 0.07735 0.0
H766 H 0.19826 0.37151 0.07134 0.0
H767 H 0.1941 0.31537 0.08451 0.0
C768 C 0.99614 0.02236 0.18127 0.0
C769 C 0.00948 0.98694 0.20404 0.0
C770 C 0.95356 0.02444 0.16746 0.0
C771 C 0.92421 0.98938 0.17483 0.0
C772 C 0.937 0.95448 0.19953 0.0
C773 C 0.97943 0.95384 0.21405 0.0
C774 C 0.94084 0.06364 0.14392 0.0
C775 C 0.90642 0.91674 0.20902 0.0
C776 C 0.80592 0.96956 0.15937 0.0
C777 C 0.80656 0.94453 0.12145 0.0
C778 C 0.84366 0.9913 0.17418 0.0
C779 C 0.88263 0.98529 0.15172 0.0
C780 C 0.88164 0.96576 0.11018 0.0
C781 C 0.84299 0.94669 0.09494 0.0
C782 C 0.84269 0.01611 0.21627 0.0
C783 C 0.92226 0.95863 0.08486 0.0
H784 H 0.01886 0.04863 0.17397 0.0
H785 H 0.98937 0.92679 0.23223 0.0
H786 H 0.95231 0.06163 0.11011 0.0
H787 H 0.90559 0.06705 0.14382 0.0
H788 H 0.95629 0.09303 0.15892 0.0
H789 H 0.8773 0.92766 0.2257 0.0
H790 H 0.89598 0.90086 0.17834 0.0
H791 H 0.92112 0.89287 0.22963 0.0
H792 H 0.77746 0.96828 0.17967 0.0
H793 H 0.8432 0.92734 0.06553 0.0
H794 H 0.868 0.04243 0.21719 0.0
H795 H 0.84819 0.99435 0.24326 0.0
H796 H 0.8109 0.0299 0.2215 0.0
H797 H 0.94365 0.98804 0.08496 0.0
H798 H 0.91544 0.94881 0.05091 0.0
H799 H 0.93989 0.93293 0.1001 0.0
C800 C 0.29265 0.75883 0.42781 0.0
C801 C 0.26914 0.79382 0.44105 0.0
C802 C 0.27228 0.72236 0.40867 0.0
C803 C 0.22708 0.72065 0.40287 0.0
C804 C 0.20359 0.75684 0.41392 0.0
C805 C 0.22492 0.7931 0.43269 0.0
C806 C 0.2991 0.6848 0.39683 0.0
C807 C 0.15571 0.75712 0.40851 0.0
C808 C 0.21024 0.62823 0.32765 0.0
C809 C 0.21184 0.59561 0.3579 0.0
C810 C 0.20723 0.67087 0.34165 0.0
C811 C 0.20557 0.68014 0.38627 0.0
C812 C 0.19561 0.64656 0.41512 0.0
C813 C 0.19803 0.60404 0.40023 0.0
C814 C 0.2143 0.70613 0.30982 0.0
C815 C 0.18969 0.65534 0.46263 0.0
H816 H 0.32686 0.75922 0.43395 0.0
H817 H 0.2063 0.81993 0.44294 0.0
H818 H 0.29115 0.65798 0.41891 0.0
H819 H 0.29226 0.67318 0.36352 0.0
H820 H 0.33403 0.6932 0.399 0.0
H821 H 0.13997 0.75241 0.44033 0.0
H822 H 0.14674 0.7888 0.39673 0.0
H823 H 0.14311 0.73159 0.38603 0.0
H824 H 0.21876 0.62187 0.29431 0.0
H825 H 0.19665 0.57832 0.42325 0.0
H826 H 0.24812 0.71857 0.3117 0.0
H827 H 0.19335 0.73286 0.31795 0.0
H828 H 0.20822 0.69463 0.27627 0.0
H829 H 0.2216 0.66197 0.47768 0.0
H830 H 0.17353 0.62747 0.47888 0.0
H831 H 0.17049 0.68393 0.46814 0.0
C832 C 0.48599 0.05068 0.66262 0.0
C833 C 0.4703 0.08277 0.68994 0.0
C834 C 0.52204 0.05867 0.63637 0.0
C835 C 0.54255 0.09999 0.6367 0.0
C836 C 0.52605 0.13307 0.66315 0.0
C837 C 0.49017 0.12395 0.68966 0.0
C838 C 0.53796 0.02294 0.60802 0.0
C839 C 0.54559 0.17833 0.66327 0.0
C840 C 0.66019 0.11889 0.60996 0.0
C841 C 0.65772 0.14279 0.5725 0.0
C842 C 0.62281 0.10192 0.6299 0.0
C843 C 0.58242 0.10825 0.61105 0.0
C844 C 0.58062 0.12728 0.57012 0.0
C845 C 0.61856 0.14395 0.55102 0.0
C846 C 0.6263 0.08271 0.6739 0.0
C847 C 0.53854 0.1332 0.54808 0.0
H848 H 0.47037 0.01891 0.66189 0.0
H849 H 0.47789 0.14901 0.71028 0.0
H850 H 0.54068 0.0337 0.57425 0.0
H851 H 0.57045 0.01469 0.61833 0.0
H852 H 0.51641 0.99351 0.60893 0.0
H853 H 0.53851 0.19579 0.69381 0.0
H854 H 0.58084 0.17901 0.65834 0.0
H855 H 0.53163 0.19595 0.63649 0.0
H856 H 0.69053 0.1188 0.62685 0.0
H857 H 0.6169 0.16277 0.52216 0.0
H858 H 0.65977 0.0748 0.6813 0.0
H859 H 0.6052 0.05321 0.6766 0.0
H860 H 0.61561 0.10612 0.69862 0.0
H861 H 0.52437 0.10126 0.5386 0.0
H862 H 0.54237 0.15277 0.51869 0.0
H863 H 0.5157 0.14871 0.57023 0.0
C864 C 0.26594 0.2899 0.98496 0.0
C865 C 0.28524 0.25065 0.97851 0.0
C866 C 0.27622 0.32501 0.95894 0.0
C867 C 0.30663 0.32106 0.92517 0.0
C868 C 0.32947 0.28305 0.92119 0.0
C869 C 0.31846 0.24815 0.94794 0.0
C870 C 0.25187 0.36527 0.96573 0.0
C871 C 0.36389 0.27775 0.88755 0.0
C872 C 0.26321 0.38409 0.836 0.0
C873 C 0.2777 0.42539 0.84915 0.0
C874 C 0.27716 0.34804 0.85695 0.0
C875 C 0.30747 0.35362 0.89063 0.0
C876 C 0.32824 0.39452 0.89783 0.0
C877 C 0.31209 0.43042 0.87793 0.0
C878 C 0.25445 0.3051 0.84767 0.0
C879 C 0.36382 0.40098 0.93026 0.0
H880 H 0.24131 0.29287 0.00946 0.0
H881 H 0.33461 0.21842 0.94345 0.0
H882 H 0.27444 0.39357 0.97001 0.0
H883 H 0.23206 0.37062 0.93698 0.0
H884 H 0.23053 0.36356 0.99444 0.0
H885 H 0.35169 0.25454 0.86251 0.0
H886 H 0.37423 0.30829 0.87201 0.0
H887 H 0.39234 0.26396 0.90228 0.0
H888 H 0.23655 0.38036 0.81374 0.0
H889 H 0.32352 0.46245 0.88794 0.0
H890 H 0.23172 0.29707 0.87432 0.0
H891 H 0.27798 0.27974 0.84567 0.0
H892 H 0.23606 0.30497 0.81717 0.0
H893 H 0.34998 0.40297 0.96316 0.0
H894 H 0.38335 0.43111 0.92452 0.0
H895 H 0.38504 0.37348 0.92894 0.0
C896 C 0.38997 0.02103 0.01838 0.0
C897 C 0.36381 0.03544 0.052 0.0
C898 C 0.41679 0.98668 0.02431 0.0
C899 C 0.41796 0.96691 0.06488 0.0
C900 C 0.39215 0.98211 0.09911 0.0
C901 C 0.3653 0.01591 0.09215 0.0
C902 C 0.4429 0.97088 0.98695 0.0
C903 C 0.39233 0.96215 0.14307 0.0
C904 C 0.44073 0.85458 0.09379 0.0
C905 C 0.47608 0.86293 0.12077 0.0
C906 C 0.4244 0.88741 0.0695 0.0
C907 C 0.44432 0.92919 0.07234 0.0
C908 C 0.48443 0.93532 0.09342 0.0
C909 C 0.49962 0.90209 0.11802 0.0
C910 C 0.38217 0.8788 0.04672 0.0
C911 C 0.50826 0.97849 0.09514 0.0
H912 H 0.38882 0.03599 0.98724 0.0
H913 H 0.3454 0.02715 0.11836 0.0
H914 H 0.47606 0.9654 0.99737 0.0
H915 H 0.42858 0.93974 0.97488 0.0
H916 H 0.44395 0.99364 0.95991 0.0
H917 H 0.37012 0.97737 0.16605 0.0
H918 H 0.38281 0.92748 0.14035 0.0
H919 H 0.42516 0.96504 0.15673 0.0
H920 H 0.42255 0.82414 0.0961 0.0
H921 H 0.52703 0.90839 0.13893 0.0
H922 H 0.38132 0.89652 0.01622 0.0
H923 H 0.35577 0.88985 0.06768 0.0
H924 H 0.37593 0.84403 0.03957 0.0
H925 H 0.50793 0.99369 0.06324 0.0
H926 H 0.54215 0.97592 0.10517 0.0
H927 H 0.49231 -0.00041 0.1188 0.0
C928 C 0.92211 0.52709 0.04712 0.0
C929 C 0.89391 0.50583 0.01799 0.0
C930 C 0.94629 0.56416 0.03513 0.0
C931 C 0.94371 0.57855 0.99228 0.0
C932 C 0.91317 0.55842 0.96375 0.0
C933 C 0.88839 0.52249 0.97715 0.0
C934 C 0.97328 0.58765 0.06899 0.0
C935 C 0.90765 0.57372 0.91834 0.0
C936 C 0.98302 0.6808 0.94132 0.0
C937 C 0.01146 0.66411 0.91093 0.0
C938 C 0.96449 0.65454 0.97332 0.0
C939 C 0.97515 0.61109 0.97464 0.0
C940 C 0.00962 0.5968 0.94903 0.0
C941 C 0.02742 0.62361 0.91725 0.0
C942 C 0.92904 0.67137 0.00116 0.0
C943 C 0.02309 0.55108 0.95003 0.0
H944 H 0.92517 0.51481 0.07933 0.0
H945 H 0.86613 0.5061 0.95491 0.0
H946 H 0.9963 0.61221 0.05567 0.0
H947 H 0.95169 0.60406 0.09182 0.0
H948 H 0.99066 0.56452 0.08812 0.0
H949 H 0.87868 0.55837 0.90276 0.0
H950 H 0.90498 0.60902 0.91817 0.0
H951 H 0.93611 0.56592 0.89859 0.0
H952 H 0.97087 0.71231 0.9366 0.0
H953 H 0.04976 0.61088 0.89395 0.0
H954 H 0.93223 0.66076 0.0348 0.0
H955 H 0.89756 0.65829 0.98894 0.0
H956 H 0.92909 0.70696 0.00108 0.0
H957 H 0.01649 0.53664 0.98181 0.0
H958 H 0.05781 0.5493 0.94229 0.0
H959 H 0.00482 0.53165 0.92535 0.0
C960 C 0.78923 0.61425 0.32903 0.0
C961 C 0.80037 0.59957 0.28752 0.0
C962 C 0.74954 0.63286 0.33718 0.0
C963 C 0.72043 0.63735 0.30292 0.0
C964 C 0.7317 0.62258 0.26106 0.0
C965 C 0.771 0.60337 0.25409 0.0
C966 C 0.73839 0.64584 0.38276 0.0
C967 C 0.70213 0.62712 0.22327 0.0
C968 C 0.60063 0.64239 0.29814 0.0
C969 C 0.59751 0.68424 0.28301 0.0
C970 C 0.64029 0.62791 0.31163 0.0
C971 C 0.67738 0.65592 0.30957 0.0
C972 C 0.6723 0.70009 0.3022 0.0
C973 C 0.63228 0.71378 0.28904 0.0
C974 C 0.64358 0.58123 0.32222 0.0
C975 C 0.71005 0.73191 0.30189 0.0
H976 H 0.81122 0.61054 0.35542 0.0
H977 H 0.77874 0.59137 0.22214 0.0
H978 H 0.76778 0.65267 0.40221 0.0
H979 H 0.71862 0.67439 0.38397 0.0
H980 H 0.71949 0.61902 0.39792 0.0
H981 H 0.71638 0.61581 0.19247 0.0
H982 H 0.67152 0.60849 0.22902 0.0
H983 H 0.69433 0.66119 0.21986 0.0
H984 H 0.57351 0.61954 0.29413 0.0
H985 H 0.63 0.74627 0.27782 0.0
H986 H 0.61155 0.56527 0.32826 0.0
H987 H 0.66403 0.57801 0.35098 0.0
H988 H 0.65887 0.56415 0.29493 0.0
H989 H 0.69989 0.76527 0.30663 0.0
H990 H 0.72624 0.72979 0.27007 0.0
H991 H 0.73314 0.72493 0.32746 0.0
C992 C 0.67851 0.52703 0.45517 0.0
C993 C 0.66885 0.54655 0.49467 0.0
C994 C 0.65155 0.49366 0.43825 0.0
C995 C 0.61424 0.47978 0.46145 0.0
C996 C 0.60606 0.49746 0.5027 0.0
C997 C 0.63345 0.53076 0.51878 0.0
C998 C 0.66214 0.47457 0.39476 0.0
C999 C 0.56842 0.4816 0.52986 0.0
C1000 C 0.52763 0.43685 0.38566 0.0
C1001 C 0.53288 0.39271 0.38769 0.0
C1002 C 0.55176 0.46562 0.41213 0.0
C1003 C 0.58216 0.44963 0.44066 0.0
C1004 C 0.58465 0.40491 0.44559 0.0
C1005 C 0.55958 0.37689 0.4192 0.0
C1006 C 0.54773 0.5131 0.40606 0.0
C1007 C 0.61718 0.38656 0.47493 0.0
H1008 H 0.70605 0.539 0.43667 0.0
H1009 H 0.6267 0.545 0.55007 0.0
H1010 H 0.64029 0.48679 0.37032 0.0
H1011 H 0.69578 0.48308 0.38499 0.0
H1012 H 0.65743 0.4391 0.39481 0.0
H1013 H 0.5392 0.47506 0.51013 0.0
H1014 H 0.57626 0.45114 0.54501 0.0
H1015 H 0.5611 0.50484 0.55609 0.0
H1016 H 0.50728 0.44898 0.36097 0.0
H1017 H 0.56426 0.34273 0.42019 0.0
H1018 H 0.57214 0.52457 0.3823 0.0
H1019 H 0.55346 0.5316 0.43647 0.0
H1020 H 0.51557 0.52007 0.39353 0.0
H1021 H 0.64955 0.39056 0.46001 0.0
H1022 H 0.61015 0.35185 0.48046 0.0
H1023 H 0.61836 0.40374 0.50647 0.0
C1024 C 0.22009 0.91605 0.3109 0.0
C1025 C 0.20621 0.9263 0.26954 0.0
C1026 C 0.25924 0.89627 0.31701 0.0
C1027 C 0.28528 0.88659 0.2809 0.0
C1028 C 0.27078 0.89595 0.23903 0.0
C1029 C 0.23154 0.91548 0.2339 0.0
C1030 C 0.27359 0.88761 0.36217 0.0
C1031 C 0.29715 0.88602 0.19939 0.0
C1032 C 0.40552 0.88386 0.27187 0.0
C1033 C 0.41019 0.84019 0.26209 0.0
C1034 C 0.36541 0.89913 0.28352 0.0
C1035 C 0.32922 0.86999 0.286 0.0
C1036 C 0.33576 0.82529 0.28408 0.0
C1037 C 0.37613 0.81087 0.2715 0.0
C1038 C 0.36105 0.94691 0.28814 0.0
C1039 C 0.30023 0.79201 0.29223 0.0
H1040 H 0.20085 0.92444 0.33871 0.0
H1041 H 0.22131 0.92339 0.20187 0.0
H1042 H 0.28552 0.85484 0.36423 0.0
H1043 H 0.30058 0.91056 0.37101 0.0
H1044 H 0.24731 0.89108 0.38613 0.0
H1045 H 0.27916 0.89026 0.16915 0.0
H1046 H 0.32648 0.90763 0.19883 0.0
H1047 H 0.3076 0.85257 0.20005 0.0
H1048 H 0.4322 0.90666 0.26591 0.0
H1049 H 0.37967 0.77693 0.26522 0.0
H1050 H 0.33729 0.9546 0.31354 0.0
H1051 H 0.34962 0.95928 0.25726 0.0
H1052 H 0.39227 0.96394 0.29595 0.0
H1053 H 0.31097 0.76944 0.31667 0.0
H1054 H 0.29375 0.77287 0.26226 0.0
H1055 H 0.27018 0.8058 0.304 0.0
C1056 C 0.16642 0.00874 0.52387 0.0
C1057 C 0.1888 0.98865 0.5563 0.0
C1058 C 0.14222 0.04469 0.53341 0.0
C1059 C 0.14001 0.06047 0.57638 0.0
C1060 C 0.16112 0.039 0.60927 0.0
C1061 C 0.18558 0.00379 0.59879 0.0
C1062 C 0.11971 0.06622 0.49755 0.0
C1063 C 0.15917 0.05398 0.65558 0.0
C1064 C 0.1241 0.17507 0.61204 0.0
C1065 C 0.08347 0.17107 0.6315 0.0
C1066 C 0.14144 0.14023 0.58997 0.0
C1067 C 0.11755 0.10042 0.58755 0.0
C1068 C 0.07473 0.09779 0.60334 0.0
C1069 C 0.05823 0.13318 0.62538 0.0
C1070 C 0.18707 0.14484 0.5735 0.0
C1071 C 0.04786 0.05636 0.60145 0.0
H1072 H 0.16876 0.99713 0.49086 0.0
H1073 H 0.20258 0.98828 0.624 0.0
H1074 H 0.08545 0.06937 0.5061 0.0
H1075 H 0.13414 0.09909 0.49326 0.0
H1076 H 0.12171 0.04819 0.46646 0.0
H1077 H 0.17324 0.0308 0.67745 0.0
H1078 H 0.17721 0.08539 0.65906 0.0
H1079 H 0.12553 0.05853 0.66577 0.0
H1080 H 0.14383 0.20429 0.61744 0.0
H1081 H 0.0271 0.1299 0.6411 0.0
H1082 H 0.19006 0.12906 0.54139 0.0
H1083 H 0.20851 0.12886 0.59587 0.0
H1084 H 0.19845 0.17903 0.57113 0.0
H1085 H 0.0552 0.03685 0.62969 0.0
H1086 H 0.05494 0.03738 0.57197 0.0
H1087 H 0.01309 0.06251 0.60248 0.0
C1088 C 0.76703 0.45352 0.26508 0.0
C1089 C 0.80044 0.43503 0.24207 0.0
C1090 C 0.72468 0.43661 0.26158 0.0
C1091 C 0.71556 0.40024 0.23455 0.0
C1092 C 0.74891 0.38206 0.21056 0.0
C1093 C 0.79092 0.39981 0.21434 0.0
C1094 C 0.69009 0.45642 0.28847 0.0
C1095 C 0.74056 0.34393 0.18076 0.0
C1096 C 0.62436 0.328 0.27436 0.0
C1097 C 0.58909 0.34674 0.2562 0.0
C1098 C 0.66603 0.34395 0.26594 0.0
C1099 C 0.6726 0.37784 0.23671 0.0
C1100 C 0.63746 0.39274 0.21363 0.0
C1101 C 0.59558 0.378 0.22478 0.0
C1102 C 0.7025 0.32727 0.29141 0.0
C1103 C 0.6441 0.42565 0.179 0.0
H1104 H 0.77391 0.48119 0.28601 0.0
H1105 H 0.81636 0.38567 0.19576 0.0
H1106 H 0.67699 0.43259 0.31179 0.0
H1107 H 0.70225 0.48569 0.3063 0.0
H1108 H 0.66312 0.46525 0.26795 0.0
H1109 H 0.76989 0.32561 0.17665 0.0
H1110 H 0.71437 0.32162 0.19222 0.0
H1111 H 0.73072 0.35571 0.14907 0.0
H1112 H 0.61908 0.30419 0.29909 0.0
H1113 H 0.5681 0.39243 0.21088 0.0
H1114 H 0.71781 0.35391 0.31099 0.0
H1115 H 0.72735 0.31494 0.26938 0.0
H1116 H 0.69173 0.30111 0.31333 0.0
H1117 H 0.65663 0.45653 0.19332 0.0
H1118 H 0.61391 0.43121 0.16162 0.0
H1119 H 0.66851 0.41494 0.15548 0.0
C1120 C 0.74205 0.64307 0.74368 0.0
C1121 C 0.72532 0.60392 0.72729 0.0
C1122 C 0.78638 0.65275 0.74237 0.0
C1123 C 0.81399 0.62258 0.72373 0.0
C1124 C 0.79643 0.58478 0.70346 0.0
C1125 C 0.75202 0.57576 0.70574 0.0
C1126 C 0.80387 0.69348 0.76437 0.0
C1127 C 0.82477 0.55207 0.68319 0.0
C1128 C 0.92992 0.6636 0.73028 0.0
C1129 C 0.93947 0.65212 0.77266 0.0
C1130 C 0.89002 0.65137 0.71171 0.0
C1131 C 0.85999 0.62578 0.73542 0.0
C1132 C 0.87169 0.6093 0.77546 0.0
C1133 C 0.91064 0.62338 0.79391 0.0
C1134 C 0.87877 0.6682 0.66824 0.0
C1135 C 0.8409 0.58103 0.80159 0.0
H1136 H 0.7209 0.66466 0.76007 0.0
H1137 H 0.73843 0.54544 0.69308 0.0
H1138 H 0.81746 0.71564 0.73973 0.0
H1139 H 0.77874 0.70969 0.78306 0.0
H1140 H 0.83004 0.68692 0.78694 0.0
H1141 H 0.80585 0.52372 0.6701 0.0
H1142 H 0.84406 0.56701 0.65681 0.0
H1143 H 0.84766 0.54081 0.70718 0.0
H1144 H 0.95239 0.68412 0.71246 0.0
H1145 H 0.91616 0.61431 0.82672 0.0
H1146 H 0.85238 0.69059 0.67184 0.0
H1147 H 0.86703 0.64138 0.64675 0.0
H1148 H 0.90657 0.68543 0.6526 0.0
H1149 H 0.81542 0.60073 0.81558 0.0
H1150 H 0.85731 0.56556 0.82832 0.0
H1151 H 0.82512 0.55539 0.78118 0.0
C1152 C 0.57816 0.84341 0.53339 0.0
C1153 C 0.53981 0.84396 0.5571 0.0
C1154 C 0.58836 0.87463 0.50259 0.0
C1155 C 0.55947 0.90736 0.49523 0.0
C1156 C 0.52045 0.90789 0.51875 0.0
C1157 C 0.51105 0.87614 0.5494 0.0
C1158 C 0.63058 0.87303 0.47852 0.0
C1159 C 0.48956 0.94294 0.51288 0.0
C1160 C 0.62189 0.00097 0.44649 0.0
C1161 C 0.61908 0.9896 0.40271 0.0
C1162 C 0.5987 0.97717 0.47745 0.0
C1163 C 0.57166 0.94162 0.46403 0.0
C1164 C 0.56378 0.93443 0.41951 0.0
C1165 C 0.58779 0.95857 0.38921 0.0
C1166 C 0.60837 0.98676 0.52426 0.0
C1167 C 0.53438 0.89764 0.40378 0.0
H1168 H 0.60062 0.8188 0.53926 0.0
H1169 H 0.48147 0.87699 0.56786 0.0
H1170 H 0.62484 0.87204 0.44329 0.0
H1171 H 0.65089 0.90244 0.48593 0.0
H1172 H 0.64878 0.84469 0.48695 0.0
H1173 H 0.45849 0.9361 0.52968 0.0
H1174 H 0.50412 0.97348 0.52614 0.0
H1175 H 0.48334 0.94767 0.47821 0.0
H1176 H 0.64624 0.02494 0.45692 0.0
H1177 H 0.58579 0.9496 0.35535 0.0
H1178 H 0.63945 0.97315 0.53238 0.0
H1179 H 0.58337 0.9728 0.54604 0.0
H1180 H 0.61176 0.02197 0.53033 0.0
H1181 H 0.55107 0.86723 0.40636 0.0
H1182 H 0.52518 0.90143 0.36962 0.0
H1183 H 0.50482 0.89483 0.42382 0.0
C1184 C 0.46643 0.27365 0.76145 0.0
C1185 C 0.46025 0.25874 0.80339 0.0
C1186 C 0.43795 0.26075 0.7285 0.0
C1187 C 0.40195 0.23289 0.73794 0.0
C1188 C 0.39894 0.21343 0.7786 0.0
C1189 C 0.42812 0.22664 0.81101 0.0
C1190 C 0.44463 0.27974 0.68452 0.0
C1191 C 0.36346 0.18086 0.78914 0.0
C1192 C 0.30799 0.2784 0.68444 0.0
C1193 C 0.31347 0.26208 0.64263 0.0
C1194 C 0.33404 0.26576 0.71785 0.0
C1195 C 0.36372 0.23359 0.70966 0.0
C1196 C 0.36235 0.21072 0.66979 0.0
C1197 C 0.33813 0.22625 0.63595 0.0
C1198 C 0.3344 0.29166 0.75951 0.0
C1199 C 0.38973 0.17301 0.66125 0.0
H1200 H 0.49265 0.29672 0.75465 0.0
H1201 H 0.42429 0.21328 0.84284 0.0
H1202 H 0.44539 0.25391 0.65963 0.0
H1203 H 0.41749 0.29988 0.67704 0.0
H1204 H 0.47513 0.29957 0.68219 0.0
H1205 H 0.33758 0.19688 0.8068 0.0
H1206 H 0.34968 0.16474 0.75983 0.0
H1207 H 0.37566 0.15638 0.81072 0.0
H1208 H 0.28866 0.30606 0.68932 0.0
H1209 H 0.34201 0.21326 0.60359 0.0
H1210 H 0.36489 0.31149 0.76203 0.0
H1211 H 0.33254 0.27015 0.78739 0.0
H1212 H 0.3073 0.31339 0.76176 0.0
H1213 H 0.42009 0.18387 0.64515 0.0
H1214 H 0.37297 0.14924 0.63929 0.0
H1215 H 0.39758 0.15699 0.69154 0.0
C1216 C 0.94805 0.16226 0.03204 0.0
C1217 C 0.98231 0.14679 0.05492 0.0
C1218 C 0.9289 0.13793 0.99829 0.0
C1219 C 0.94482 0.09746 0.98679 0.0
C1220 C 0.98072 0.08265 0.0085 0.0
C1221 C -0.00116 0.10736 0.04255 0.0
C1222 C 0.89046 0.15479 0.97612 0.0
C1223 C -0.00087 0.03998 0.99769 0.0
C1224 C 0.85567 0.02873 0.93617 0.0
C1225 C 0.8618 0.03855 0.89268 0.0
C1226 C 0.88514 0.04419 0.96726 0.0
C1227 C 0.9214 0.06992 0.95427 0.0
C1228 C 0.9307 0.07471 0.90989 0.0
C1229 C 0.90051 0.059 0.87938 0.0
C1230 C 0.87459 0.03725 0.01416 0.0
C1231 C 0.97009 0.10038 0.8949 0.0
H1232 H 0.93497 0.19254 0.04172 0.0
H1233 H 0.02552 0.09529 0.06006 0.0
H1234 H 0.89482 0.15275 0.94069 0.0
H1235 H 0.86127 0.13472 0.98438 0.0
H1236 H 0.88491 0.18859 0.98558 0.0
H1237 H 0.03456 0.04228 0.00135 0.0
H1238 H 0.98606 0.01577 0.02062 0.0
H1239 H 0.99137 0.0284 0.96455 0.0
H1240 H 0.82566 0.0128 0.9463 0.0
H1241 H 0.90516 0.06664 0.84571 0.0
H1242 H 0.85858 0.06566 0.02734 0.0
H1243 H 0.90409 0.03348 0.03314 0.0
H1244 H 0.85252 0.00859 0.01854 0.0
H1245 H 0.96538 0.13505 0.90058 0.0
H1246 H 0.97652 0.09495 0.86004 0.0
H1247 H 0.99871 0.09202 0.91343 0.0
C1248 C 0.08443 0.80874 0.30863 0.0
C1249 C 0.07982 0.76846 0.32792 0.0
C1250 C 0.1012 0.81306 0.2668 0.0
C1251 C 0.11495 0.77636 0.24431 0.0
C1252 C 0.11067 0.73562 0.26397 0.0
C1253 C 0.09277 0.7322 0.30529 0.0
C1254 C 0.10211 0.85653 0.24631 0.0
C1255 C 0.12277 0.69481 0.24111 0.0
C1256 C 0.13364 0.75433 0.12675 0.0
C1257 C 0.17869 0.75311 0.12658 0.0
C1258 C 0.11159 0.76734 0.16393 0.0
C1259 C 0.13534 0.7799 0.20103 0.0
C1260 C 0.18044 0.78648 0.19792 0.0
C1261 C 0.20178 0.77282 0.16065 0.0
C1262 C 0.06317 0.76354 0.16504 0.0
C1263 C 0.20674 0.80222 0.23589 0.0
H1264 H 0.07396 0.83695 0.32576 0.0
H1265 H 0.08884 0.70094 0.31982 0.0
H1266 H 0.10103 0.88268 0.27098 0.0
H1267 H 0.13093 0.86226 0.22571 0.0
H1268 H 0.07349 0.85822 0.22549 0.0
H1269 H 0.13135 0.67004 0.26431 0.0
H1270 H 0.09435 0.68177 0.22318 0.0
H1271 H 0.1498 0.69996 0.2181 0.0
H1272 H 0.11561 0.74047 0.09971 0.0
H1273 H 0.23655 0.77273 0.16058 0.0
H1274 H 0.05039 0.79364 0.17832 0.0
H1275 H 0.0522 0.73733 0.18671 0.0
H1276 H 0.04932 0.7568 0.1326 0.0
H1277 H 0.19182 0.8292 0.25299 0.0
H1278 H 0.23979 0.81239 0.22593 0.0
H1279 H 0.20863 0.77587 0.25882 0.0
C1280 C 0.50486 0.15133 0.0265 0.0
C1281 C 0.53417 0.18639 0.02054 0.0
C1282 C 0.51007 0.12252 0.06012 0.0
C1283 C 0.54593 0.12848 0.08775 0.0
C1284 C 0.57352 0.16574 0.08373 0.0
C1285 C 0.56751 0.19394 0.05006 0.0
C1286 C 0.47766 0.08545 0.06469 0.0
C1287 C 0.61114 0.17493 0.11345 0.0
C1288 C 0.58074 0.07927 0.1899 0.0
C1289 C 0.61584 0.05744 0.17378 0.0
C1290 C 0.55192 0.09734 0.16157 0.0
C1291 C 0.55936 0.09404 0.11662 0.0
C1292 C 0.59008 0.06568 0.10083 0.0
C1293 C 0.61806 0.04768 0.12968 0.0
C1294 C 0.51752 0.12486 0.17971 0.0
C1295 C 0.59729 0.05885 0.05326 0.0
H1296 H 0.47835 0.14573 0.00436 0.0
H1297 H 0.58981 0.22141 0.04625 0.0
H1298 H 0.48429 0.06056 0.03996 0.0
H1299 H 0.47822 0.0711 0.097 0.0
H1300 H 0.4448 0.09608 0.05872 0.0
H1301 H 0.62316 0.20893 0.11182 0.0
H1302 H 0.60234 0.1685 0.14739 0.0
H1303 H 0.63747 0.15388 0.10418 0.0
H1304 H 0.57855 0.08637 0.22413 0.0
H1305 H 0.64465 0.02989 0.11733 0.0
H1306 H 0.48854 0.12263 0.15908 0.0
H1307 H 0.5297 0.15889 0.18086 0.0
H1308 H 0.50832 0.1154 0.21294 0.0
H1309 H 0.56615 0.05449 0.03645 0.0
H1310 H 0.61634 0.03034 0.0466 0.0
H1311 H 0.61487 0.08748 0.03993 0.0
C1312 C 0.09887 0.20333 0.24891 0.0
C1313 C 0.0889 0.24449 0.23585 0.0
C1314 C 0.11797 0.19723 0.28899 0.0
C1315 C 0.12722 0.23307 0.3164 0.0
C1316 C 0.11851 0.27482 0.30269 0.0
C1317 C 0.09935 0.27997 0.26263 0.0
C1318 C 0.1279 0.15263 0.3023 0.0
C1319 C 0.12858 0.31409 0.33077 0.0
C1320 C 0.12956 0.24348 0.43587 0.0
C1321 C 0.17272 0.2569 0.44143 0.0
C1322 C 0.11474 0.22871 0.39554 0.0
C1323 C 0.14395 0.22778 0.36049 0.0
C1324 C 0.18862 0.23332 0.36831 0.0
C1325 C 0.20258 0.24788 0.40909 0.0
C1326 C 0.06707 0.22063 0.38921 0.0
C1327 C 0.2218 0.22937 0.33311 0.0
H1328 H 0.09139 0.17578 0.22801 0.0
H1329 H 0.09221 0.31184 0.25246 0.0
H1330 H 0.16256 0.15137 0.30975 0.0
H1331 H 0.10971 0.14407 0.33199 0.0
H1332 H 0.11971 0.12832 0.27681 0.0
H1333 H 0.12237 0.34439 0.31425 0.0
H1334 H 0.10864 0.31239 0.36043 0.0
H1335 H 0.16271 0.31521 0.3408 0.0
H1336 H 0.10661 0.24978 0.46134 0.0
H1337 H 0.23619 0.25749 0.4137 0.0
H1338 H 0.0604 0.19441 0.36523 0.0
H1339 H 0.05321 0.2501 0.37702 0.0
H1340 H 0.05064 0.21224 0.41997 0.0
H1341 H 0.24594 0.20663 0.34311 0.0
H1342 H 0.23924 0.26087 0.32876 0.0
H1343 H 0.20812 0.21805 0.30182 0.0
C1344 C 0.9462 0.85123 0.53173 0.0
C1345 C 0.96976 0.87149 0.49867 0.0
C1346 C 0.92921 0.87513 0.56601 0.0
C1347 C 0.93584 0.92043 0.56726 0.0
C1348 C 0.96325 0.94043 0.53648 0.0
C1349 C 0.97933 0.91593 0.50216 0.0
C1350 C 0.90472 0.85139 0.60093 0.0
C1351 C 0.97534 0.98775 0.5396 0.0
C1352 C 0.84073 0.97858 0.61046 0.0
C1353 C 0.84898 0.98005 0.65475 0.0
C1354 C 0.87028 0.96192 0.58122 0.0
C1355 C 0.90937 0.94692 0.59661 0.0
C1356 C 0.92009 0.95325 0.6406 0.0
C1357 C 0.88949 0.96938 0.66936 0.0
C1358 C 0.85805 0.95724 0.53436 0.0
C1359 C 0.96248 0.94037 0.65802 0.0
H1360 H 0.94008 0.81673 0.53039 0.0
H1361 H -0.00067 0.93176 0.478 0.0
H1362 H 0.87862 0.87031 0.61461 0.0
H1363 H 0.89111 0.81982 0.58901 0.0
H1364 H 0.92714 0.84516 0.62739 0.0
H1365 H 0.00756 0.99485 0.52532 0.0
H1366 H 0.95171 0.00599 0.52199 0.0
H1367 H 0.97553 -0.00063 0.57354 0.0
H1368 H 0.80963 0.9874 0.59911 0.0
H1369 H 0.89612 0.97049 0.7036 0.0
H1370 H 0.85774 0.92293 0.52429 0.0
H1371 H 0.8821 0.97479 0.51403 0.0
H1372 H 0.82611 0.96985 0.52789 0.0
H1373 H 0.9596 0.90619 0.66719 0.0
H1374 H 0.97165 0.95969 0.68726 0.0
H1375 H 0.98854 0.94421 0.63365 0.0
C1376 C 0.42956 0.79502 0.76408 0.0
C1377 C 0.43459 0.75095 0.75722 0.0
C1378 C 0.40984 0.81028 0.80186 0.0
C1379 C 0.39491 0.7807 0.83317 0.0
C1380 C 0.39605 0.73601 0.82409 0.0
C1381 C 0.41615 0.72178 0.78641 0.0
C1382 C 0.40679 0.85794 0.80893 0.0
C1383 C 0.37771 0.70294 0.85499 0.0
C1384 C 0.40442 0.79021 0.95235 0.0
C1385 C 0.3625 0.77543 0.96315 0.0
C1386 C 0.41564 0.79803 0.90934 0.0
C1387 C 0.38319 0.79495 0.87755 0.0
C1388 C 0.33967 0.79185 0.89066 0.0
C1389 C 0.32964 0.78067 0.93326 0.0
C1390 C 0.46269 0.80183 0.89741 0.0
C1391 C 0.30392 0.79403 0.85862 0.0
H1392 H 0.44337 0.81777 0.7413 0.0
H1393 H 0.41895 0.68766 0.78058 0.0
H1394 H 0.4104 0.87526 0.77817 0.0
H1395 H 0.3757 0.86533 0.82424 0.0
H1396 H 0.43274 0.87043 0.83063 0.0
H1397 H 0.38469 0.6697 0.84476 0.0
H1398 H 0.39062 0.70916 0.88783 0.0
H1399 H 0.34236 0.70491 0.85692 0.0
H1400 H 0.4296 0.78915 0.97616 0.0
H1401 H 0.29665 0.77136 0.94127 0.0
H1402 H 0.46925 0.82857 0.87507 0.0
H1403 H 0.4717 0.77183 0.88065 0.0
H1404 H 0.48359 0.80712 0.92606 0.0
H1405 H 0.31381 0.81412 0.83082 0.0
H1406 H 0.27517 0.80739 0.87414 0.0
H1407 H 0.29469 0.76125 0.8464 0.0
C1408 C 0.54459 0.54663 0.89249 0.0
C1409 C 0.54269 0.57491 0.85793 0.0
C1410 C 0.52047 0.5529 0.93039 0.0
C1411 C 0.49423 0.58852 0.93385 0.0
C1412 C 0.49276 0.61738 0.89923 0.0
C1413 C 0.51674 0.61009 0.86177 0.0
C1414 C 0.52212 0.52046 0.96566 0.0
C1415 C 0.46513 0.65577 0.90134 0.0
C1416 C 0.39435 0.60543 0.99782 0.0
C1417 C 0.40839 0.64157 0.02229 0.0
C1418 C 0.42361 0.58265 0.97292 0.0
C1419 C 0.46752 0.59663 0.97284 0.0
C1420 C 0.48249 0.6278 0.00367 0.0
C1421 C 0.45257 0.65019 0.02806 0.0
C1422 C 0.40662 0.54796 0.94216 0.0
C1423 C 0.52942 0.64172 0.0064 0.0
H1424 H 0.56419 0.519 0.88965 0.0
H1425 H 0.51518 0.63218 0.83539 0.0
H1426 H 0.51638 0.53505 0.99787 0.0
H1427 H 0.49682 0.49473 0.95996 0.0
H1428 H 0.55348 0.50509 0.96573 0.0
H1429 H 0.46781 0.67517 0.87175 0.0
H1430 H 0.43107 0.64479 0.90602 0.0
H1431 H 0.47436 0.67683 0.92927 0.0
H1432 H 0.36019 0.59841 0.99369 0.0
H1433 H 0.46343 0.67777 0.04758 0.0
H1434 H 0.42824 0.52084 0.9409 0.0
H1435 H 0.40514 0.56113 0.9093 0.0
H1436 H 0.37389 0.53558 0.95148 0.0
H1437 H 0.54924 0.61324 0.00635 0.0
H1438 H 0.53666 0.66161 0.03574 0.0
H1439 H 0.53885 0.66081 0.9778 0.0
C1440 C 0.75602 0.28157 0.09145 0.0
C1441 C 0.79136 0.31099 0.09207 0.0
C1442 C 0.75806 0.24146 0.11056 0.0
C1443 C 0.79642 0.23034 0.13086 0.0
C1444 C 0.83318 0.25874 0.12885 0.0
C1445 C 0.83022 0.29883 0.1095 0.0
C1446 C 0.71821 0.212 0.1107 0.0
C1447 C 0.87561 0.24704 0.14693 0.0
C1448 C 0.76533 0.15631 0.22091 0.0
C1449 C 0.76207 0.11709 0.19828 0.0
C1450 C 0.78194 0.19349 0.20082 0.0
C1451 C 0.79571 0.19096 0.15729 0.0
C1452 C 0.79926 0.15023 0.13711 0.0
C1453 C 0.7816 0.11363 0.15762 0.0
C1454 C 0.77966 0.236 0.22449 0.0
C1455 C 0.81715 0.14582 0.09209 0.0
H1456 H 0.72612 0.29045 0.07731 0.0
H1457 H 0.85809 0.32103 0.10901 0.0
H1458 H 0.70434 0.21118 0.14371 0.0
H1459 H 0.6937 0.22282 0.08814 0.0
H1460 H 0.72574 0.17879 0.10123 0.0
H1461 H 0.87129 0.22849 0.17683 0.0
H1462 H 0.89208 0.22663 0.12299 0.0
H1463 H 0.89676 0.27605 0.15368 0.0
H1464 H 0.75049 0.15891 0.25248 0.0
H1465 H 0.77966 0.08304 0.14039 0.0
H1466 H 0.77652 0.23184 0.25982 0.0
H1467 H 0.75119 0.25243 0.21321 0.0
H1468 H 0.80861 0.25707 0.21799 0.0
H1469 H 0.79215 0.15311 0.06843 0.0
H1470 H 0.82727 0.11273 0.08534 0.0
H1471 H 0.84505 0.16875 0.08719 0.0
C1472 C 0.00652 0.43236 0.35649 0.0
C1473 C 0.99448 0.47344 0.34608 0.0
C1474 C 0.03714 0.42639 0.38828 0.0
C1475 C 0.0568 0.46255 0.41008 0.0
C1476 C 0.04312 0.5041 0.40141 0.0
C1477 C 0.01181 0.50906 0.36956 0.0
C1478 C 0.04931 0.38122 0.3975 0.0
C1479 C 0.06308 0.54347 0.42383 0.0
C1480 C 0.11823 0.41798 0.50084 0.0
C1481 C 0.15554 0.40774 0.47873 0.0
C1482 C 0.08755 0.44227 0.4811 0.0
C1483 C 0.09435 0.45585 0.43823 0.0
C1484 C 0.13512 0.45116 0.41868 0.0
C1485 C 0.16523 0.42673 0.43916 0.0
C1486 C 0.04594 0.44857 0.50434 0.0
C1487 C 0.14452 0.46594 0.37347 0.0
H1488 H 0.99257 0.40474 0.33896 0.0
H1489 H 0.00255 0.54094 0.36154 0.0
H1490 H 0.03498 0.35733 0.37414 0.0
H1491 H 0.08463 0.37878 0.39636 0.0
H1492 H 0.03828 0.37253 0.43038 0.0
H1493 H 0.04214 0.57113 0.42206 0.0
H1494 H 0.06974 0.53731 0.45813 0.0
H1495 H 0.09414 0.55257 0.40801 0.0
H1496 H 0.11095 0.40321 0.53153 0.0
H1497 H 0.19425 0.4185 0.4221 0.0
H1498 H 0.02162 0.42376 0.49311 0.0
H1499 H 0.03427 0.48067 0.49786 0.0
H1500 H 0.0498 0.44548 0.5396 0.0
H1501 H 0.12883 0.44278 0.35019 0.0
H1502 H 0.17956 0.46787 0.36647 0.0
H1503 H 0.13151 0.49782 0.36821 0.0
C1504 C 0.73491 0.70391 0.64611 0.0
C1505 C 0.76875 0.70867 0.61644 0.0
C1506 C 0.71992 0.73932 0.66882 0.0
C1507 C 0.73917 0.78042 0.66154 0.0
C1508 C 0.77394 0.78523 0.63197 0.0
C1509 C 0.78885 0.74902 0.61021 0.0
C1510 C 0.68176 0.73311 0.6983 0.0
C1511 C 0.79485 0.82868 0.62247 0.0
C1512 C 0.69876 0.89044 0.67754 0.0
C1513 C 0.72425 0.90451 0.7125 0.0
C1514 C 0.69749 0.84718 0.6642 0.0
C1515 C 0.72419 0.81873 0.68514 0.0
C1516 C 0.74437 0.83167 0.72423 0.0
C1517 C 0.74283 0.87433 0.73831 0.0
C1518 C 0.67308 0.8338 0.62395 0.0
C1519 C 0.77302 0.80256 0.74763 0.0
H1520 H 0.71905 0.67252 0.65032 0.0
H1521 H 0.81442 0.75265 0.58652 0.0
H1522 H 0.69027 0.7433 0.73166 0.0
H1523 H 0.65611 0.75364 0.68758 0.0
H1524 H 0.66901 0.69924 0.69856 0.0
H1525 H 0.81543 0.82759 0.59326 0.0
H1526 H 0.77063 0.8527 0.61699 0.0
H1527 H 0.81445 0.84002 0.65054 0.0
H1528 H 0.68411 0.91388 0.65778 0.0
H1529 H 0.76232 0.88534 0.76555 0.0
H1530 H 0.6604 0.80002 0.62563 0.0
H1531 H 0.69495 0.8364 0.59567 0.0
H1532 H 0.64594 0.85478 0.61862 0.0
H1533 H 0.75646 0.77078 0.75161 0.0
H1534 H 0.78251 0.81567 0.77988 0.0
H1535 H 0.80256 0.79799 0.72827 0.0
C1536 C 0.51188 0.44403 0.72039 0.0
C1537 C 0.53709 0.48154 0.71316 0.0
C1538 C 0.47527 0.43394 0.69545 0.0
C1539 C 0.46376 0.46203 0.66254 0.0
C1540 C 0.48766 0.50117 0.65694 0.0
C1541 C 0.52424 0.5103 0.68209 0.0
C1542 C 0.44968 0.39248 0.70325 0.0
C1543 C 0.47657 0.53251 0.6229 0.0
C1544 C 0.407 0.39688 0.57503 0.0
C1545 C 0.36428 0.3998 0.58816 0.0
C1546 C 0.43988 0.42093 0.59623 0.0
C1547 C 0.42949 0.44779 0.63169 0.0
C1548 C 0.38597 0.45485 0.64134 0.0
C1549 C 0.35366 0.43059 0.61932 0.0
C1550 C 0.48582 0.41339 0.58405 0.0
C1551 C 0.37363 0.48449 0.67781 0.0
H1552 H 0.52141 0.42197 0.74468 0.0
H1553 H 0.54333 0.53969 0.67653 0.0
H1554 H 0.41601 0.39924 0.71159 0.0
H1555 H 0.44889 0.37257 0.67331 0.0
H1556 H 0.4632 0.37376 0.72954 0.0
H1557 H 0.48526 0.56597 0.63362 0.0
H1558 H 0.49555 0.52573 0.5935 0.0
H1559 H 0.44204 0.53018 0.61436 0.0
H1560 H 0.41504 0.37265 0.5512 0.0
H1561 H 0.32049 0.43237 0.62965 0.0
H1562 H 0.49856 0.38946 0.60595 0.0
H1563 H 0.50616 0.44338 0.58749 0.0
H1564 H 0.4885 0.40089 0.55044 0.0
H1565 H 0.37898 0.46882 0.70895 0.0
H1566 H 0.33932 0.49234 0.67616 0.0
H1567 H 0.39389 0.51475 0.67747 0.0
C1568 C 0.82129 0.27588 0.9335 0.0
C1569 C 0.79773 0.31017 0.94837 0.0
C1570 C 0.80089 0.2404 0.91248 0.0
C1571 C 0.75565 0.23875 0.90718 0.0
C1572 C 0.73213 0.27444 0.91986 0.0
C1573 C 0.75352 0.30993 0.93995 0.0
C1574 C 0.82763 0.20378 0.89775 0.0
C1575 C 0.68415 0.27478 0.91501 0.0
C1576 C 0.73331 0.14653 0.83141 0.0
C1577 C 0.73256 0.1132 0.86099 0.0
C1578 C 0.7337 0.1893 0.84603 0.0
C1579 C 0.73392 0.19826 0.89074 0.0
C1580 C 0.72364 0.16484 0.91968 0.0
C1581 C 0.7222 0.1223 0.90419 0.0
C1582 C 0.74053 0.22462 0.81424 0.0
C1583 C 0.72066 0.17337 0.96755 0.0
H1584 H 0.8555 0.27613 0.93961 0.0
H1585 H 0.7349 0.33627 0.95153 0.0
H1586 H 0.81803 0.17454 0.91593 0.0
H1587 H 0.82209 0.19636 0.86312 0.0
H1588 H 0.86253 0.21122 0.90231 0.0
H1589 H 0.67503 0.30647 0.90339 0.0
H1590 H 0.6713 0.24929 0.89264 0.0
H1591 H 0.6687 0.27009 0.94699 0.0
H1592 H 0.73979 0.13981 0.79767 0.0
H1593 H 0.71963 0.09633 0.9269 0.0
H1594 H 0.77454 0.23676 0.81523 0.0
H1595 H 0.72016 0.25169 0.82284 0.0
H1596 H 0.7332 0.2131 0.78097 0.0
H1597 H 0.75346 0.17978 0.98067 0.0
H1598 H 0.70535 0.14557 0.98462 0.0
H1599 H 0.70202 0.2021 0.97441 0.0
C1600 C 0.00978 0.51202 0.18072 0.0
C1601 C 0.99153 0.54976 0.19601 0.0
C1602 C 0.04854 0.5135 0.1572 0.0
C1603 C 0.06854 0.55375 0.14715 0.0
C1604 C 0.04879 0.59186 0.16046 0.0
C1605 C 0.01135 0.58939 0.18583 0.0
C1606 C 0.06757 0.47208 0.1427 0.0
C1607 C 0.067 0.63539 0.14745 0.0
C1608 C 0.18458 0.58696 0.13326 0.0
C1609 C 0.18379 0.60149 0.0909 0.0
C1610 C 0.1485 0.56499 0.15099 0.0
C1611 C 0.11138 0.55726 0.12537 0.0
C1612 C 0.11431 0.56413 0.08046 0.0
C1613 C 0.15058 0.58657 0.06371 0.0
C1614 C 0.14794 0.55628 0.19861 0.0
C1615 C 0.07754 0.55346 0.05054 0.0
H1616 H 0.99435 0.48115 0.18795 0.0
H1617 H 0.9971 0.61851 0.19696 0.0
H1618 H 0.06167 0.46692 0.10778 0.0
H1619 H 0.10284 0.47337 0.14762 0.0
H1620 H 0.053 0.44405 0.15995 0.0
H1621 H 0.04721 0.66178 0.15933 0.0
H1622 H 0.09998 0.64055 0.16018 0.0
H1623 H 0.06906 0.6369 0.11182 0.0
H1624 H 0.21054 0.59839 0.15428 0.0
H1625 H 0.15021 0.5974 0.03074 0.0
H1626 H 0.12971 0.5257 0.20545 0.0
H1627 H 0.1319 0.58255 0.21594 0.0
H1628 H 0.18098 0.55477 0.21149 0.0
H1629 H 0.05305 0.53094 0.06472 0.0
H1630 H 0.08971 0.53913 0.02013 0.0
H1631 H 0.06262 0.58354 0.04186 0.0
C1632 C 0.80605 0.7578 0.44746 0.0
C1633 C 0.76305 0.74308 0.45251 0.0
C1634 C 0.81661 0.79573 0.42498 0.0
C1635 C 0.78333 0.81892 0.40706 0.0
C1636 C 0.74041 0.80154 0.40856 0.0
C1637 C 0.73089 0.76402 0.43139 0.0
C1638 C 0.86284 0.81248 0.42359 0.0
C1639 C 0.70367 0.82476 0.38978 0.0
C1640 C 0.7731 0.93764 0.4137 0.0
C1641 C 0.76406 0.94536 0.37038 0.0
C1642 C 0.7843 0.8969 0.42644 0.0
C1643 C 0.79057 0.86464 0.39464 0.0
C1644 C 0.79146 0.87588 0.35068 0.0
C1645 C 0.77713 0.91593 0.33884 0.0
C1646 C 0.78215 0.88652 0.47373 0.0
C1647 C 0.80193 0.84381 0.31597 0.0
H1648 H 0.83108 0.74149 0.46359 0.0
H1649 H 0.69774 0.75215 0.43456 0.0
H1650 H 0.88509 0.7859 0.4256 0.0
H1651 H 0.87006 0.8306 0.39381 0.0
H1652 H 0.86932 0.83444 0.45156 0.0
H1653 H 0.7104 0.83245 0.35564 0.0
H1654 H 0.67271 0.80561 0.39143 0.0
H1655 H 0.69996 0.85553 0.4076 0.0
H1656 H 0.76517 0.96129 0.43814 0.0
H1657 H 0.77173 0.92193 0.30512 0.0
H1658 H 0.81125 0.87026 0.4834 0.0
H1659 H 0.75402 0.86422 0.47994 0.0
H1660 H 0.77872 0.91554 0.49442 0.0
H1661 H 0.82988 0.8257 0.32562 0.0
H1662 H 0.80937 0.85947 0.28479 0.0
H1663 H 0.77397 0.82085 0.31125 0.0
C1664 C 0.88204 0.52756 0.50436 0.0
C1665 C 0.85014 0.53519 0.53519 0.0
C1666 C 0.9105 0.49445 0.50959 0.0
C1667 C 0.90767 0.46939 0.54723 0.0
C1668 C 0.87406 0.47591 0.57725 0.0
C1669 C 0.84558 0.50825 0.57053 0.0
C1670 C 0.94404 0.48796 0.47532 0.0
C1671 C 0.86924 0.45025 0.61791 0.0
C1672 C 0.95524 0.3672 0.58082 0.0
C1673 C 0.98304 0.38368 0.61303 0.0
C1674 C 0.93459 0.39502 0.55347 0.0
C1675 C 0.94169 0.43996 0.55924 0.0
C1676 C 0.97453 0.45588 0.58739 0.0
C1677 C 0.99495 0.4275 0.61391 0.0
C1678 C 0.90112 0.37672 0.52251 0.0
C1679 C 0.98413 0.50333 0.59361 0.0
H1680 H 0.88531 0.54784 0.47646 0.0
H1681 H 0.82028 0.5132 0.59386 0.0
H1682 H 0.97095 0.51212 0.48033 0.0
H1683 H 0.95638 0.45532 0.47571 0.0
H1684 H 0.93077 0.49331 0.44287 0.0
H1685 H 0.83969 0.45765 0.63611 0.0
H1686 H 0.86803 0.41537 0.61021 0.0
H1687 H 0.89726 0.45754 0.63913 0.0
H1688 H 0.94598 0.33324 0.58021 0.0
H1689 H 0.01661 0.44015 0.63878 0.0
H1690 H 0.9047 0.39255 0.49091 0.0
H1691 H 0.86861 0.38293 0.53519 0.0
H1692 H 0.90331 0.34155 0.51774 0.0
H1693 H 0.98717 0.51896 0.5619 0.0
H1694 H 0.01406 0.51033 0.61217 0.0
H1695 H 0.95718 0.51758 0.61142 0.0
C1696 C 0.36101 0.01491 0.46515 0.0
C1697 C 0.36403 0.99622 0.50538 0.0
C1698 C 0.38501 0.05285 0.45597 0.0
C1699 C 0.41166 0.07275 0.48828 0.0
C1700 C 0.41115 0.056 0.53021 0.0
C1701 C 0.38826 0.01716 0.53795 0.0
C1702 C 0.38348 0.07039 0.41106 0.0
C1703 C 0.43646 0.07706 0.56651 0.0
C1704 C 0.50356 0.1264 0.42897 0.0
C1705 C 0.48674 0.16644 0.42235 0.0
C1706 C 0.4821 0.09671 0.45579 0.0
C1707 C 0.44316 0.10769 0.47597 0.0
C1708 C 0.43064 0.15058 0.47536 0.0
C1709 C 0.45304 0.17982 0.44864 0.0
C1710 C 0.49808 0.052 0.45804 0.0
C1711 C 0.3902 0.16401 0.49765 0.0
H1712 H 0.34183 0.99862 0.44021 0.0
H1713 H 0.3898 0.00283 0.56941 0.0
H1714 H 0.37721 0.10504 0.41255 0.0
H1715 H 0.41499 0.06698 0.39486 0.0
H1716 H 0.35829 0.05347 0.39103 0.0
H1717 H 0.46711 0.06105 0.56856 0.0
H1718 H 0.44335 0.11181 0.56174 0.0
H1719 H 0.41927 0.07267 0.59768 0.0
H1720 H 0.52989 0.11629 0.40883 0.0
H1721 H 0.44013 0.21094 0.44356 0.0
H1722 H 0.47833 0.03003 0.43673 0.0
H1723 H 0.49492 0.04006 0.49132 0.0
H1724 H 0.53219 0.05085 0.44769 0.0
H1725 H 0.3621 0.15407 0.47739 0.0
H1726 H 0.39046 0.19936 0.50269 0.0
H1727 H 0.38585 0.14835 0.52924 0.0
C1728 C 0.28819 0.12061 0.84299 0.0
C1729 C 0.29101 0.09342 0.80665 0.0
C1730 C 0.25191 0.14508 0.84972 0.0
C1731 C 0.21789 0.14163 0.81972 0.0
C1732 C 0.21848 0.10985 0.78657 0.0
C1733 C 0.2553 0.08673 0.78 0.0
C1734 C 0.25176 0.17675 0.88689 0.0
C1735 C 0.18215 0.10279 0.75506 0.0
C1736 C 0.11096 0.18995 0.80939 0.0
C1737 C 0.12117 0.21951 0.77703 0.0
C1738 C 0.14361 0.16877 0.83013 0.0
C1739 C 0.18669 0.17597 0.81617 0.0
C1740 C 0.19713 0.21018 0.78802 0.0
C1741 C 0.16413 0.23226 0.76957 0.0
C1742 C 0.13121 0.13417 0.86173 0.0
C1743 C 0.24231 0.21884 0.77158 0.0
H1744 H 0.31539 0.12509 0.86446 0.0
H1745 H 0.25669 0.06455 0.75275 0.0
H1746 H 0.21865 0.1831 0.89771 0.0
H1747 H 0.26994 0.16491 0.91446 0.0
H1748 H 0.2677 0.20746 0.8767 0.0
H1749 H 0.18183 0.06982 0.74122 0.0
H1750 H 0.15042 0.1071 0.77022 0.0
H1751 H 0.18649 0.12609 0.72866 0.0
H1752 H 0.07762 0.17999 0.81511 0.0
H1753 H 0.17183 0.25502 0.74437 0.0
H1754 H 0.15777 0.12858 0.88423 0.0
H1755 H 0.12311 0.10372 0.84389 0.0
H1756 H 0.10234 0.14266 0.88058 0.0
H1757 H 0.26563 0.21808 0.79819 0.0
H1758 H 0.24604 0.25039 0.75576 0.0
H1759 H 0.25031 0.19357 0.74762 0.0
C1760 C 0.1522 0.02571 0.00213 0.0
C1761 C 0.18539 0.04887 0.98091 0.0
C1762 C 0.12625 0.99478 0.98018 0.0
C1763 C 0.1336 0.98703 0.9358 0.0
C1764 C 0.16714 0.01056 0.91409 0.0
C1765 C 0.19297 0.04106 0.93715 0.0
C1766 C 0.09083 0.97069 0.00455 0.0
C1767 C 0.17514 0.00553 0.86632 0.0
C1768 C 0.09406 0.879 0.89041 0.0
C1769 C 0.05972 0.89015 0.86481 0.0
C1770 C 0.11833 0.91029 0.91371 0.0
C1771 C 0.10676 0.95349 0.91277 0.0
C1772 C 0.07034 0.96454 0.8891 0.0
C1773 C 0.04767 0.93272 0.86458 0.0
C1774 C 0.15835 0.89766 0.93641 0.0
C1775 C 0.05708 0.01029 0.88727 0.0
H1776 H 0.14624 0.0322 0.03603 0.0
H1777 H 0.21782 0.06003 0.92053 0.0
H1778 H 0.06081 0.96803 0.98547 0.0
H1779 H 0.10045 0.93765 0.01063 0.0
H1780 H 0.08392 0.98634 0.03611 0.0
H1781 H 0.21016 0.00741 0.85922 0.0
H1782 H 0.16082 0.97512 0.8526 0.0
H1783 H 0.16101 0.03251 0.8496 0.0
H1784 H 0.1043 0.84629 0.88904 0.0
H1785 H 0.02204 0.94141 0.84354 0.0
H1786 H 0.15684 0.90677 0.97104 0.0
H1787 H 0.18686 0.91521 0.92246 0.0
H1788 H 0.16311 0.86268 0.93357 0.0
H1789 H 0.06013 0.02655 0.91927 0.0
H1790 H 0.02349 0.01206 0.87598 0.0
H1791 H 0.07856 0.0282 0.86454 0.0
C1792 C 0.75581 0.43526 0.7502 0.0
C1793 C 0.73303 0.44766 0.78699 0.0
C1794 C 0.79546 0.41645 0.7535 0.0
C1795 C 0.81311 0.40987 0.79467 0.0
C1796 C 0.7897 0.42103 0.83208 0.0
C1797 C 0.74986 0.43986 0.82781 0.0
C1798 C 0.81905 0.40474 0.7126 0.0
C1799 C 0.80725 0.41409 0.87639 0.0
C1800 C 0.90195 0.33472 0.77718 0.0
C1801 C 0.93379 0.364 0.76207 0.0
C1802 C 0.86362 0.34924 0.79505 0.0
C1803 C 0.85728 0.39392 0.79716 0.0
C1804 C 0.89255 0.42316 0.7894 0.0
C1805 C 0.93048 0.40781 0.77183 0.0
C1806 C 0.82921 0.31616 0.80771 0.0
C1807 C 0.88838 0.47101 0.79401 0.0
H1808 H 0.74307 0.44105 0.71858 0.0
H1809 H 0.73231 0.44919 0.85644 0.0
H1810 H 0.84755 0.42707 0.70866 0.0
H1811 H 0.83074 0.37183 0.71424 0.0
H1812 H 0.79851 0.40643 0.68367 0.0
H1813 H 0.78389 0.42177 0.90224 0.0
H1814 H 0.81594 0.38027 0.87951 0.0
H1815 H 0.83701 0.4346 0.88127 0.0
H1816 H 0.90487 0.30068 0.77101 0.0
H1817 H 0.9558 0.4305 0.76152 0.0
H1818 H 0.82416 0.29224 0.7811 0.0
H1819 H 0.7982 0.32992 0.81648 0.0
H1820 H 0.8405 0.2985 0.83581 0.0
H1821 H 0.87249 0.48288 0.76501 0.0
H1822 H 0.92027 0.48831 0.79714 0.0
H1823 H 0.86837 0.47897 0.82245 0.0
C1824 C 0.69475 0.50756 0.10132 0.0
C1825 C 0.70672 0.49768 0.05893 0.0
C1826 C 0.66481 0.5386 0.11025 0.0
C1827 C 0.64689 0.561 0.07592 0.0
C1828 C 0.65832 0.55064 0.03293 0.0
C1829 C 0.68789 0.51883 0.02493 0.0
C1830 C 0.65168 0.54618 0.15656 0.0
C1831 C 0.63875 0.57249 0.99545 0.0
C1832 C 0.55026 0.61551 0.11989 0.0
C1833 C 0.56927 0.65523 0.13244 0.0
C1834 C 0.57378 0.58595 0.09605 0.0
C1835 C 0.61744 0.59606 0.0859 0.0
C1836 C 0.635 0.63809 0.09443 0.0
C1837 C 0.61043 0.66736 0.11733 0.0
C1838 C 0.55334 0.54219 0.08676 0.0
C1839 C 0.68152 0.65032 0.08499 0.0
H1840 H 0.70843 0.49061 0.12767 0.0
H1841 H 0.69669 0.5109 0.992 0.0
H1842 H 0.64414 0.57998 0.16306 0.0
H1843 H 0.6223 0.5259 0.16353 0.0
H1844 H 0.67705 0.53728 0.1792 0.0
H1845 H 0.65389 0.56371 0.96424 0.0
H1846 H 0.60409 0.56302 0.9939 0.0
H1847 H 0.64153 0.60787 -0.00012 0.0
H1848 H 0.51855 0.60605 0.132 0.0
H1849 H 0.62522 0.69799 0.12776 0.0
H1850 H 0.55893 0.52156 0.11463 0.0
H1851 H 0.56739 0.52711 0.05764 0.0
H1852 H 0.51811 0.54375 0.08242 0.0
H1853 H 0.70198 0.63536 0.10904 0.0
H1854 H 0.68814 0.68563 0.08675 0.0
H1855 H 0.69106 0.63835 0.05265 0.0
C1856 C 0.32419 0.8875 0.73225 0.0
C1857 C 0.32852 0.92073 0.76321 0.0
C1858 C 0.28555 0.86336 0.72762 0.0
C1859 C 0.25061 0.87201 0.75476 0.0
C1860 C 0.25638 0.90166 0.78955 0.0
C1861 C 0.2952 0.92628 0.79309 0.0
C1862 C 0.281 0.83177 0.69085 0.0
C1863 C 0.22075 0.90883 0.82153 0.0
C1864 C 0.13469 0.86599 0.72041 0.0
C1865 C 0.1191 0.83012 0.74317 0.0
C1866 C 0.17863 0.87801 0.72066 0.0
C1867 C 0.20704 0.85356 0.74439 0.0
C1868 C 0.1922 0.81391 0.76157 0.0
C1869 C 0.14837 0.8023 0.76011 0.0
C1870 C 0.19379 0.91918 0.6994 0.0
C1871 C 0.22088 0.78581 0.78618 0.0
H1872 H 0.34999 0.88207 0.70953 0.0
H1873 H 0.29862 0.95107 0.81794 0.0
H1874 H 0.26592 0.84813 0.66396 0.0
H1875 H 0.31271 0.82072 0.68022 0.0
H1876 H 0.2599 0.80354 0.69926 0.0
H1877 H 0.1941 0.92414 0.80524 0.0
H1878 H 0.20776 0.87765 0.83392 0.0
H1879 H 0.23177 0.9295 0.84922 0.0
H1880 H 0.11209 0.88724 0.70685 0.0
H1881 H 0.13669 0.77428 0.77761 0.0
H1882 H 0.22366 0.91446 0.68065 0.0
H1883 H 0.20118 0.94425 0.72448 0.0
H1884 H 0.16915 0.93109 0.67757 0.0
H1885 H 0.21243 0.75141 0.77901 0.0
H1886 H 0.21551 0.79135 0.82116 0.0
H1887 H 0.25535 0.79235 0.77887 0.0
C1888 C 0.22556 0.13466 0.21903 0.0
C1889 C 0.21483 0.09068 0.21658 0.0
C1890 C 0.2686 0.14924 0.22335 0.0
C1891 C 0.30096 0.11899 0.22411 0.0
C1892 C 0.29029 0.07498 0.21663 0.0
C1893 C 0.2471 0.06123 0.21355 0.0
C1894 C 0.27893 0.19622 0.2326 0.0
C1895 C 0.32394 0.04195 0.21709 0.0
C1896 C 0.41628 0.16112 0.2403 0.0
C1897 C 0.4187 0.16071 0.28529 0.0
C1898 C 0.37855 0.14613 0.21922 0.0
C1899 C 0.34265 0.13156 0.24407 0.0
C1900 C 0.34547 0.13032 0.28944 0.0
C1901 C 0.3833 0.14511 0.30935 0.0
C1902 C 0.37669 0.14771 0.17082 0.0
C1903 C 0.30809 0.11457 0.31729 0.0
H1904 H 0.20028 0.15726 0.2212 0.0
H1905 H 0.2384 0.02717 0.21092 0.0
H1906 H 0.30792 0.20754 0.21443 0.0
H1907 H 0.25173 0.21609 0.22458 0.0
H1908 H 0.28612 0.2011 0.26732 0.0
H1909 H 0.31131 0.01031 0.20436 0.0
H1910 H 0.35244 0.05277 0.19785 0.0
H1911 H 0.33475 0.03785 0.25065 0.0
H1912 H 0.44352 0.17368 0.22177 0.0
H1913 H 0.38451 0.14609 0.34422 0.0
H1914 H 0.36148 0.17752 0.16175 0.0
H1915 H 0.35717 0.12009 0.15707 0.0
H1916 H 0.40929 0.14812 0.15612 0.0
H1917 H 0.31589 0.11584 0.35214 0.0
H1918 H 0.2983 0.08095 0.30824 0.0
H1919 H 0.28003 0.13432 0.31224 0.0
loop_
_geom_bond_atom_site_label_1
_geom_bond_atom_site_label_2
_geom_bond_distance
_geom_bond_site_symmetry_2
_ccdc_geom_bond_type
Co0 O1 2.216 . S
Co0 O2 2.091 . S
Co0 O4 2.004 1_455 S
Co0 O10 2.021 1_455 S
Co0 O12 2.137 . S
Co0 O13 2.244 . S
O1 Co0 2.216 . S
O1 C8 1.247 . S
O2 Co0 2.091 . S
O2 C8 1.261 . S
C3 O12 1.247 . S
C3 O13 1.272 . S
O4 Co0 2.004 1_655 S
O4 C9 1.259 . S
Co5 O6 2.061 1_455 S
Co5 O11 2.052 1_455 S
Co5 O13 2.135 . S
O6 Co5 2.061 1_655 S
O6 C9 1.235 . S
C7 O10 1.238 . S
C7 O11 1.241 . S
C8 O1 1.247 . S
C8 O2 1.261 . S
C9 O4 1.259 . S
C9 O6 1.235 . S
O10 Co0 2.021 1_655 S
O10 C7 1.238 . S
O11 Co5 2.052 1_655 S
O11 C7 1.241 . S
O12 Co0 2.137 . S
O12 C3 1.247 . S
O13 Co0 2.244 . S
O13 C3 1.272 . S
O13 Co5 2.135 . S
Co14 O15 2.216 . S
Co14 O16 2.090 1_455 S
Co14 O18 2.004 1_455 S
Co14 O24 2.021 1_455 S
Co14 O26 2.137 . S
Co14 O27 2.244 . S
O15 Co14 2.216 . S
O15 C22 1.247 . S
O16 Co14 2.090 1_655 S
O16 C22 1.250 1_655 S
C17 O26 1.247 . S
C17 O27 1.272 . S
O18 Co14 2.004 1_655 S
O18 C23 1.259 . S
Co19 O20 2.061 1_455 S
Co19 O25 2.052 1_455 S
Co19 O27 2.135 . S
O20 Co19 2.061 1_655 S
O20 C23 1.235 . S
C21 O24 1.238 . S
C21 O25 1.241 . S
C22 O15 1.247 . S
C22 O16 1.250 1_455 S
C23 O18 1.259 . S
C23 O20 1.235 . S
O24 Co14 2.021 1_655 S
O24 C21 1.238 . S
O25 Co19 2.052 1_655 S
O25 C21 1.241 . S
O26 Co14 2.137 . S
O26 C17 1.247 . S
O27 Co14 2.244 . S
O27 C17 1.272 . S
O27 Co19 2.135 . S
Co28 O29 2.216 . S
Co28 O30 2.091 . S
Co28 O32 2.004 . S
Co28 O38 2.021 . S
Co28 O40 2.137 . S
Co28 O41 2.244 . S
O29 Co28 2.216 . S
O29 C36 1.247 . S
O30 Co28 2.091 . S
O30 C36 1.261 . S
C31 O40 1.247 . S
C31 O41 1.272 . S
O32 Co28 2.004 . S
O32 C37 1.259 . S
Co33 O34 2.061 . S
Co33 O39 2.052 . S
Co33 O41 2.135 . S
O34 Co33 2.061 . S
O34 C37 1.235 . S
C35 O38 1.238 . S
C35 O39 1.241 . S
C36 O29 1.247 . S
C36 O30 1.261 . S
C37 O32 1.259 . S
C37 O34 1.235 . S
O38 Co28 2.021 . S
O38 C35 1.238 . S
O39 Co33 2.052 . S
O39 C35 1.241 . S
O40 Co28 2.137 . S
O40 C31 1.247 . S
O41 Co28 2.244 . S
O41 C31 1.272 . S
O41 Co33 2.135 . S
Co42 O43 2.216 . S
Co42 O44 2.091 . S
Co42 O46 2.004 . S
Co42 O52 2.021 . S
Co42 O54 2.137 . S
Co42 O55 2.244 . S
O43 Co42 2.216 . S
O43 C50 1.247 . S
O44 Co42 2.091 . S
O44 C50 1.261 . S
C45 O54 1.247 . S
C45 O55 1.272 . S
O46 Co42 2.004 . S
O46 C51 1.259 . S
Co47 O48 2.061 . S
Co47 O53 2.052 . S
Co47 O55 2.135 . S
O48 Co47 2.061 . S
O48 C51 1.235 . S
C49 O52 1.238 . S
C49 O53 1.241 . S
C50 O43 1.247 . S
C50 O44 1.261 . S
C51 O46 1.259 . S
C51 O48 1.235 . S
O52 Co42 2.021 . S
O52 C49 1.238 . S
O53 Co47 2.052 . S
O53 C49 1.241 . S
O54 Co42 2.137 . S
O54 C45 1.247 . S
O55 Co42 2.244 . S
O55 C45 1.272 . S
O55 Co47 2.135 . S
Co56 O57 2.216 . S
Co56 O58 2.091 . S
Co56 O60 2.004 1_565 S
Co56 O66 2.021 1_565 S
Co56 O68 2.137 . S
Co56 O69 2.244 1_565 S
O57 Co56 2.216 . S
O57 C64 1.247 . S
O58 Co56 2.091 . S
O58 C64 1.261 . S
C59 O68 1.247 . S
C59 O69 1.272 1_565 S
O60 Co56 2.004 1_545 S
O60 C65 1.259 . S
Co61 O62 2.061 . S
Co61 O67 2.052 . S
Co61 O69 2.135 . S
O62 Co61 2.061 . S
O62 C65 1.235 . S
C63 O66 1.238 . S
C63 O67 1.241 . S
C64 O57 1.247 . S
C64 O58 1.261 . S
C65 O60 1.259 . S
C65 O62 1.235 . S
O66 Co56 2.021 1_545 S
O66 C63 1.238 . S
O67 Co61 2.052 . S
O67 C63 1.241 . S
O68 Co56 2.137 . S
O68 C59 1.247 . S
O69 Co56 2.244 1_545 S
O69 C59 1.272 1_545 S
O69 Co61 2.135 . S
Co70 O71 2.216 . S
Co70 O72 2.091 . S
Co70 O74 2.004 . S
Co70 O80 2.021 . S
Co70 O82 2.137 . S
Co70 O83 2.244 . S
O71 Co70 2.216 . S
O71 C78 1.247 . S
O72 Co70 2.091 . S
O72 C78 1.261 . S
C73 O82 1.247 . S
C73 O83 1.272 . S
O74 Co70 2.004 . S
O74 C79 1.259 . S
Co75 O76 2.061 . S
Co75 O81 2.052 . S
Co75 O83 2.135 . S
O76 Co75 2.061 . S
O76 C79 1.235 . S
C77 O80 1.238 . S
C77 O81 1.241 . S
C78 O71 1.247 . S
C78 O72 1.261 . S
C79 O74 1.259 . S
C79 O76 1.235 . S
O80 Co70 2.021 . S
O80 C77 1.238 . S
O81 Co75 2.052 . S
O81 C77 1.241 . S
O82 Co70 2.137 . S
O82 C73 1.247 . S
O83 Co70 2.244 . S
O83 C73 1.272 . S
O83 Co75 2.135 . S
Co84 O85 2.216 . S
Co84 O86 2.091 . S
Co84 O88 2.004 . S
Co84 O94 2.021 . S
Co84 O96 2.137 . S
Co84 O97 2.244 . S
O85 Co84 2.216 . S
O85 C92 1.247 . S
O86 Co84 2.091 . S
O86 C92 1.261 . S
C87 O96 1.247 . S
C87 O97 1.272 . S
O88 Co84 2.004 . S
O88 C93 1.259 . S
Co89 O90 2.061 . S
Co89 O95 2.052 . S
Co89 O97 2.135 1_565 S
O90 Co89 2.061 . S
O90 C93 1.235 1_565 S
C91 O94 1.238 1_565 S
C91 O95 1.241 . S
C92 O85 1.247 . S
C92 O86 1.261 . S
C93 O88 1.259 . S
C93 O90 1.235 1_545 S
O94 Co84 2.021 . S
O94 C91 1.238 1_545 S
O95 Co89 2.052 . S
O95 C91 1.241 . S
O96 Co84 2.137 . S
O96 C87 1.247 . S
O97 Co84 2.244 . S
O97 C87 1.272 . S
O97 Co89 2.135 1_545 S
Co98 O99 2.216 . S
Co98 O100 2.091 1_554 S
Co98 O102 2.004 1_554 S
Co98 O108 2.021 1_554 S
Co98 O110 2.137 . S
Co98 O111 2.244 . S
O99 Co98 2.216 . S
O99 C106 1.247 . S
O100 Co98 2.091 1_556 S
O100 C106 1.261 1_556 S
C101 O110 1.247 . S
C101 O111 1.272 . S
O102 Co98 2.004 1_556 S
O102 C107 1.259 . S
Co103 O104 2.062 1_554 S
Co103 O109 2.052 1_554 S
Co103 O111 2.134 . S
O104 Co103 2.062 1_556 S
O104 C107 1.235 . S
C105 O108 1.238 . S
C105 O109 1.241 . S
C106 O99 1.247 . S
C106 O100 1.261 1_554 S
C107 O102 1.259 . S
C107 O104 1.235 . S
O108 Co98 2.021 1_556 S
O108 C105 1.238 . S
O109 Co103 2.052 1_556 S
O109 C105 1.241 . S
O110 Co98 2.137 . S
O110 C101 1.247 . S
O111 Co98 2.244 . S
O111 C101 1.272 . S
O111 Co103 2.134 . S
Co112 O113 2.216 . S
Co112 O114 2.091 . S
Co112 O116 2.004 1_554 S
Co112 O122 2.021 1_554 S
Co112 O124 2.137 . S
Co112 O125 2.244 . S
O113 Co112 2.216 . S
O113 C120 1.247 . S
O114 Co112 2.091 . S
O114 C120 1.261 . S
C115 O124 1.247 . S
C115 O125 1.272 . S
O116 Co112 2.004 1_556 S
O116 C121 1.259 . S
Co117 O118 2.061 1_554 S
Co117 O123 2.052 . S
Co117 O125 2.135 . S
O118 Co117 2.061 1_556 S
O118 C121 1.235 . S
C119 O122 1.238 . S
C119 O123 1.241 1_556 S
C120 O113 1.247 . S
C120 O114 1.261 . S
C121 O116 1.259 . S
C121 O118 1.235 . S
O122 Co112 2.021 1_556 S
O122 C119 1.238 . S
O123 Co117 2.052 . S
O123 C119 1.241 1_554 S
O124 Co112 2.137 . S
O124 C115 1.247 . S
O125 Co112 2.244 . S
O125 C115 1.272 . S
O125 Co117 2.135 . S
Co126 O127 2.216 . S
Co126 O128 2.091 . S
Co126 O130 2.004 . S
Co126 O136 2.021 . S
Co126 O138 2.137 . S
Co126 O139 2.244 . S
O127 Co126 2.216 . S
O127 C134 1.247 . S
O128 Co126 2.091 . S
O128 C134 1.261 . S
C129 O138 1.247 . S
C129 O139 1.272 . S
O130 Co126 2.004 . S
O130 C135 1.259 . S
Co131 O132 2.061 . S
Co131 O137 2.052 . S
Co131 O139 2.135 . S
O132 Co131 2.061 . S
O132 C135 1.235 . S
C133 O136 1.238 . S
C133 O137 1.241 . S
C134 O127 1.247 . S
C134 O128 1.261 . S
C135 O130 1.259 . S
C135 O132 1.235 . S
O136 Co126 2.021 . S
O136 C133 1.238 . S
O137 Co131 2.052 . S
O137 C133 1.241 . S
O138 Co126 2.137 . S
O138 C129 1.247 . S
O139 Co126 2.244 . S
O139 C129 1.272 . S
O139 Co131 2.135 . S
Co140 O141 2.216 . S
Co140 O142 2.091 . S
Co140 O144 2.004 . S
Co140 O150 2.021 . S
Co140 O152 2.137 . S
Co140 O153 2.244 . S
O141 Co140 2.216 . S
O141 C148 1.247 . S
O142 Co140 2.091 . S
O142 C148 1.261 . S
C143 O152 1.247 . S
C143 O153 1.272 . S
O144 Co140 2.004 . S
O144 C149 1.259 . S
Co145 O146 2.061 . S
Co145 O151 2.052 . S
Co145 O153 2.135 . S
O146 Co145 2.061 . S
O146 C149 1.235 . S
C147 O150 1.238 . S
C147 O151 1.241 . S
C148 O141 1.247 . S
C148 O142 1.261 . S
C149 O144 1.259 . S
C149 O146 1.235 . S
O150 Co140 2.021 . S
O150 C147 1.238 . S
O151 Co145 2.052 . S
O151 C147 1.241 . S
O152 Co140 2.137 . S
O152 C143 1.247 . S
O153 Co140 2.244 . S
O153 C143 1.272 . S
O153 Co145 2.135 . S
Co154 O155 2.216 . S
Co154 O156 2.091 . S
Co154 O158 2.004 . S
Co154 O164 2.021 . S
Co154 O166 2.137 . S
Co154 O167 2.244 . S
O155 Co154 2.216 . S
O155 C162 1.247 . S
O156 Co154 2.091 . S
O156 C162 1.261 . S
C157 O166 1.247 . S
C157 O167 1.272 . S
O158 Co154 2.004 . S
O158 C163 1.259 . S
Co159 O160 2.061 . S
Co159 O165 2.052 . S
Co159 O167 2.135 . S
O160 Co159 2.061 . S
O160 C163 1.235 . S
C161 O164 1.238 . S
C161 O165 1.241 . S
C162 O155 1.247 . S
C162 O156 1.261 . S
C163 O158 1.259 . S
C163 O160 1.235 . S
O164 Co154 2.021 . S
O164 C161 1.238 . S
O165 Co159 2.052 . S
O165 C161 1.241 . S
O166 Co154 2.137 . S
O166 C157 1.247 . S
O167 Co154 2.244 . S
O167 C157 1.272 . S
O167 Co159 2.135 . S
H168 C174 0.930 . S
H169 C177 0.931 . S
H170 C179 0.931 . S
H171 C181 0.930 . S
H172 C183 0.930 . S
H173 C185 0.931 . S
C174 H168 0.930 . S
C174 C175 1.380 . S
C174 C176 1.394 . S
C175 C174 1.380 . S
C175 C179 1.382 . S
C176 C174 1.394 . S
C176 C177 1.400 . S
C177 H169 0.931 . S
C177 C176 1.400 . S
C177 C178 1.375 . S
C178 C177 1.375 . S
C178 C179 1.415 . S
C178 C180 1.501 1_655 S
C179 H170 0.931 . S
C179 C175 1.382 . S
C179 C178 1.415 . S
C180 C178 1.501 1_455 S
C180 C181 1.384 . S
C180 C185 1.408 . S
C181 H171 0.930 . S
C181 C180 1.384 . S
C181 C182 1.389 . S
C182 C181 1.389 . S
C182 C183 1.405 . S
C183 H172 0.930 . S
C183 C182 1.405 . S
C183 C184 1.364 . S
C184 C183 1.364 . S
C184 C185 1.400 . S
C185 H173 0.931 . S
C185 C180 1.408 . S
C185 C184 1.400 . S
H186 C192 0.930 . S
H187 C195 0.931 1_455 S
H188 C197 0.931 . S
H189 C199 0.930 . S
H190 C201 0.930 . S
H191 C203 0.931 . S
C192 H186 0.930 . S
C192 C193 1.380 . S
C192 C194 1.394 . S
C193 C192 1.380 . S
C193 C197 1.382 . S
C194 C192 1.394 . S
C194 C195 1.400 . S
C195 H187 0.931 1_655 S
C195 C194 1.400 . S
C195 C196 1.375 . S
C196 C195 1.375 . S
C196 C197 1.415 . S
C196 C198 1.501 1_655 S
C197 H188 0.931 . S
C197 C193 1.382 . S
C197 C196 1.415 . S
C198 C196 1.501 1_455 S
C198 C199 1.384 . S
C198 C203 1.408 . S
C199 H189 0.930 . S
C199 C198 1.384 . S
C199 C200 1.389 . S
C200 C199 1.389 . S
C200 C201 1.405 . S
C201 H190 0.930 . S
C201 C200 1.405 . S
C201 C202 1.364 . S
C202 C201 1.364 . S
C202 C203 1.400 . S
C203 H191 0.931 . S
C203 C198 1.408 . S
C203 C202 1.400 . S
H204 C210 0.930 . S
H205 C213 0.931 . S
H206 C215 0.931 . S
H207 C217 0.930 . S
H208 C219 0.930 . S
H209 C221 0.931 . S
C210 H204 0.930 . S
C210 C211 1.380 . S
C210 C212 1.394 . S
C211 C210 1.380 . S
C211 C215 1.382 . S
C212 C210 1.394 . S
C212 C213 1.400 . S
C213 H205 0.931 . S
C213 C212 1.400 . S
C213 C214 1.375 . S
C214 C213 1.375 . S
C214 C215 1.415 . S
C214 C216 1.501 . S
C215 H206 0.931 . S
C215 C211 1.382 . S
C215 C214 1.415 . S
C216 C214 1.501 . S
C216 C217 1.384 . S
C216 C221 1.408 . S
C217 H207 0.930 . S
C217 C216 1.384 . S
C217 C218 1.389 . S
C218 C217 1.389 . S
C218 C219 1.405 . S
C219 H208 0.930 . S
C219 C218 1.405 . S
C219 C220 1.364 . S
C220 C219 1.364 . S
C220 C221 1.400 . S
C221 H209 0.931 . S
C221 C216 1.408 . S
C221 C220 1.400 . S
H222 C228 0.930 . S
H223 C231 0.931 . S
H224 C233 0.931 . S
H225 C235 0.930 . S
H226 C237 0.930 . S
H227 C239 0.931 . S
C228 H222 0.930 . S
C228 C229 1.380 . S
C228 C230 1.394 . S
C229 C228 1.380 . S
C229 C233 1.382 . S
C230 C228 1.394 . S
C230 C231 1.400 . S
C231 H223 0.931 . S
C231 C230 1.400 . S
C231 C232 1.375 . S
C232 C231 1.375 . S
C232 C233 1.415 . S
C232 C234 1.501 . S
C233 H224 0.931 . S
C233 C229 1.382 . S
C233 C232 1.415 . S
C234 C232 1.501 . S
C234 C235 1.384 . S
C234 C239 1.408 . S
C235 H225 0.930 . S
C235 C234 1.384 . S
C235 C236 1.389 . S
C236 C235 1.389 . S
C236 C237 1.405 . S
C237 H226 0.930 . S
C237 C236 1.405 . S
C237 C238 1.364 . S
C238 C237 1.364 . S
C238 C239 1.400 . S
C239 H227 0.931 . S
C239 C234 1.408 . S
C239 C238 1.400 . S
H240 C246 0.930 . S
H241 C249 0.928 1_545 S
H242 C251 0.935 . S
H243 C253 0.930 . S
H244 C255 0.930 . S
H245 C257 0.931 . S
C246 H240 0.930 . S
C246 C247 1.380 . S
C246 C248 1.394 . S
C247 C246 1.380 . S
C247 C251 1.376 1_565 S
C248 C246 1.394 . S
C248 C249 1.400 . S
C249 H241 0.928 1_565 S
C249 C248 1.400 . S
C249 C250 1.375 1_565 S
C250 C249 1.375 1_545 S
C250 C251 1.417 . S
C250 C252 1.501 . S
C251 H242 0.935 . S
C251 C247 1.376 1_545 S
C251 C250 1.417 . S
C252 C250 1.501 . S
C252 C253 1.384 . S
C252 C257 1.408 . S
C253 H243 0.930 . S
C253 C252 1.384 . S
C253 C254 1.389 . S
C254 C253 1.389 . S
C254 C255 1.405 . S
C255 H244 0.930 . S
C255 C254 1.405 . S
C255 C256 1.364 . S
C256 C255 1.364 . S
C256 C257 1.400 . S
C257 H245 0.931 . S
C257 C252 1.408 . S
C257 C256 1.400 . S
H258 C264 0.930 . S
H259 C267 0.931 . S
H260 C269 0.931 . S
H261 C271 0.930 . S
H262 C273 0.930 . S
H263 C275 0.931 . S
C264 H258 0.930 . S
C264 C265 1.380 . S
C264 C266 1.394 . S
C265 C264 1.380 . S
C265 C269 1.382 . S
C266 C264 1.394 . S
C266 C267 1.400 . S
C267 H259 0.931 . S
C267 C266 1.400 . S
C267 C268 1.375 . S
C268 C267 1.375 . S
C268 C269 1.415 . S
C268 C270 1.501 . S
C269 H260 0.931 . S
C269 C265 1.382 . S
C269 C268 1.415 . S
C270 C268 1.501 . S
C270 C271 1.384 . S
C270 C275 1.408 . S
C271 H261 0.930 . S
C271 C270 1.384 . S
C271 C272 1.389 . S
C272 C271 1.389 . S
C272 C273 1.405 . S
C273 H262 0.930 . S
C273 C272 1.405 . S
C273 C274 1.364 . S
C274 C273 1.364 . S
C274 C275 1.400 . S
C275 H263 0.931 . S
C275 C270 1.408 . S
C275 C274 1.400 . S
H276 C282 0.930 . S
H277 C285 0.931 . S
H278 C287 0.931 . S
H279 C289 0.930 . S
H280 C291 0.930 . S
H281 C293 0.931 . S
C282 H276 0.930 . S
C282 C283 1.380 . S
C282 C284 1.394 . S
C283 C282 1.380 . S
C283 C287 1.382 . S
C284 C282 1.394 . S
C284 C285 1.400 . S
C285 H277 0.931 . S
C285 C284 1.400 . S
C285 C286 1.375 . S
C286 C285 1.375 . S
C286 C287 1.415 . S
C286 C288 1.501 1_545 S
C287 H278 0.931 . S
C287 C283 1.382 . S
C287 C286 1.415 . S
C288 C286 1.501 1_565 S
C288 C289 1.384 . S
C288 C293 1.408 . S
C289 H279 0.930 . S
C289 C288 1.384 . S
C289 C290 1.389 . S
C290 C289 1.389 . S
C290 C291 1.405 . S
C291 H280 0.930 . S
C291 C290 1.405 . S
C291 C292 1.364 . S
C292 C291 1.364 . S
C292 C293 1.400 . S
C293 H281 0.931 . S
C293 C288 1.408 . S
C293 C292 1.400 . S
H294 C300 0.930 . S
H295 C303 0.931 . S
H296 C305 0.931 . S
H297 C307 0.930 . S
H298 C309 0.930 . S
H299 C311 0.931 . S
C300 H294 0.930 . S
C300 C301 1.380 . S
C300 C302 1.394 . S
C301 C300 1.380 . S
C301 C305 1.382 1_556 S
C302 C300 1.394 . S
C302 C303 1.400 1_556 S
C303 H295 0.931 . S
C303 C302 1.400 1_554 S
C303 C304 1.375 . S
C304 C303 1.375 . S
C304 C305 1.415 . S
C304 C306 1.501 . S
C305 H296 0.931 . S
C305 C301 1.382 1_554 S
C305 C304 1.415 . S
C306 C304 1.501 . S
C306 C307 1.384 . S
C306 C311 1.408 . S
C307 H297 0.930 . S
C307 C306 1.384 . S
C307 C308 1.389 . S
C308 C307 1.389 . S
C308 C309 1.405 . S
C309 H298 0.930 . S
C309 C308 1.405 . S
C309 C310 1.364 . S
C310 C309 1.364 . S
C310 C311 1.400 . S
C311 H299 0.931 . S
C311 C306 1.408 . S
C311 C310 1.400 . S
H312 C318 0.930 . S
H313 C321 0.931 . S
H314 C323 0.931 . S
H315 C325 0.930 . S
H316 C327 0.930 . S
H317 C329 0.931 . S
C318 H312 0.930 . S
C318 C319 1.380 . S
C318 C320 1.394 . S
C319 C318 1.380 . S
C319 C323 1.382 . S
C320 C318 1.394 . S
C320 C321 1.400 1_556 S
C321 H313 0.931 . S
C321 C320 1.400 1_554 S
C321 C322 1.375 . S
C322 C321 1.375 . S
C322 C323 1.415 1_554 S
C322 C324 1.501 . S
C323 H314 0.931 . S
C323 C319 1.382 . S
C323 C322 1.415 1_556 S
C324 C322 1.501 . S
C324 C325 1.384 . S
C324 C329 1.408 . S
C325 H315 0.930 . S
C325 C324 1.384 . S
C325 C326 1.389 . S
C326 C325 1.389 . S
C326 C327 1.405 . S
C327 H316 0.930 . S
C327 C326 1.405 . S
C327 C328 1.364 . S
C328 C327 1.364 . S
C328 C329 1.400 . S
C329 H317 0.931 . S
C329 C324 1.408 . S
C329 C328 1.400 . S
H330 C336 0.930 . S
H331 C339 0.931 . S
H332 C341 0.931 . S
H333 C343 0.930 . S
H334 C345 0.930 . S
H335 C347 0.931 . S
C336 H330 0.930 . S
C336 C337 1.380 . S
C336 C338 1.394 . S
C337 C336 1.380 . S
C337 C341 1.382 . S
C338 C336 1.394 . S
C338 C339 1.400 . S
C339 H331 0.931 . S
C339 C338 1.400 . S
C339 C340 1.375 . S
C340 C339 1.375 . S
C340 C341 1.415 . S
C340 C342 1.501 . S
C341 H332 0.931 . S
C341 C337 1.382 . S
C341 C340 1.415 . S
C342 C340 1.501 . S
C342 C343 1.384 . S
C342 C347 1.408 . S
C343 H333 0.930 . S
C343 C342 1.384 . S
C343 C344 1.389 . S
C344 C343 1.389 . S
C344 C345 1.405 . S
C345 H334 0.930 . S
C345 C344 1.405 . S
C345 C346 1.364 . S
C346 C345 1.364 . S
C346 C347 1.400 . S
C347 H335 0.931 . S
C347 C342 1.408 . S
C347 C346 1.400 . S
H348 C354 0.930 . S
H349 C357 0.931 . S
H350 C359 0.931 . S
H351 C361 0.930 . S
H352 C363 0.930 . S
H353 C365 0.931 . S
C354 H348 0.930 . S
C354 C355 1.380 . S
C354 C356 1.394 . S
C355 C354 1.380 . S
C355 C359 1.382 . S
C356 C354 1.394 . S
C356 C357 1.400 . S
C357 H349 0.931 . S
C357 C356 1.400 . S
C357 C358 1.375 . S
C358 C357 1.375 . S
C358 C359 1.415 . S
C358 C360 1.501 . S
C359 H350 0.931 . S
C359 C355 1.382 . S
C359 C358 1.415 . S
C360 C358 1.501 . S
C360 C361 1.384 . S
C360 C365 1.408 . S
C361 H351 0.930 . S
C361 C360 1.384 . S
C361 C362 1.389 . S
C362 C361 1.389 . S
C362 C363 1.405 . S
C363 H352 0.930 . S
C363 C362 1.405 . S
C363 C364 1.364 . S
C364 C363 1.364 . S
C364 C365 1.400 . S
C365 H353 0.931 . S
C365 C360 1.408 . S
C365 C364 1.400 . S
H366 C372 0.930 . S
H367 C375 0.931 . S
H368 C377 0.931 . S
H369 C379 0.930 . S
H370 C381 0.930 . S
H371 C383 0.931 . S
C372 H366 0.930 . S
C372 C373 1.380 . S
C372 C374 1.394 . S
C373 C372 1.380 . S
C373 C377 1.382 . S
C374 C372 1.394 . S
C374 C375 1.400 . S
C375 H367 0.931 . S
C375 C374 1.400 . S
C375 C376 1.375 . S
C376 C375 1.375 . S
C376 C377 1.415 . S
C376 C378 1.501 . S
C377 H368 0.931 . S
C377 C373 1.382 . S
C377 C376 1.415 . S
C378 C376 1.501 . S
C378 C379 1.384 . S
C378 C383 1.408 . S
C379 H369 0.930 . S
C379 C378 1.384 . S
C379 C380 1.389 . S
C380 C379 1.389 . S
C380 C381 1.405 . S
C381 H370 0.930 . S
C381 C380 1.405 . S
C381 C382 1.364 . S
C382 C381 1.364 . S
C382 C383 1.400 . S
C383 H371 0.931 . S
C383 C378 1.408 . S
C383 C382 1.400 . S
C384 C385 1.391 . S
C384 C386 1.387 1_554 S
C384 H400 0.957 . S
C385 C384 1.391 . S
C385 C389 1.376 . S
C386 C384 1.387 1_556 S
C386 C387 1.370 . S
C386 C390 1.536 . S
C387 C386 1.370 . S
C387 C388 1.410 1_556 S
C387 C395 1.503 . S
C388 C387 1.410 1_554 S
C388 C389 1.392 . S
C388 C391 1.511 . S
C389 C385 1.376 . S
C389 C388 1.392 . S
C389 H401 0.929 . S
C390 C386 1.536 . S
C390 H402 0.960 . S
C390 H403 0.962 . S
C390 H404 0.960 1_455 S
C391 C388 1.511 . S
C391 H405 0.961 . S
C391 H406 0.961 1_554 S
C391 H407 0.961 . S
C392 C393 1.370 . S
C392 C394 1.363 . S
C392 H408 0.931 . S
C393 C392 1.370 . S
C393 C397 1.408 . S
C394 C392 1.363 . S
C394 C395 1.370 . S
C394 C398 1.524 . S
C395 C387 1.503 . S
C395 C394 1.370 . S
C395 C396 1.403 . S
C396 C395 1.403 . S
C396 C397 1.404 . S
C396 C399 1.539 . S
C397 C393 1.408 . S
C397 C396 1.404 . S
C397 H409 0.930 . S
C398 C394 1.524 . S
C398 H410 0.956 . S
C398 H411 0.961 . S
C398 H412 0.961 . S
C399 C396 1.539 . S
C399 H413 0.958 . S
C399 H414 0.961 . S
C399 H415 0.960 1_556 S
H400 C384 0.957 . S
H401 C389 0.929 . S
H402 C390 0.960 . S
H403 C390 0.962 . S
H404 C390 0.960 1_655 S
H405 C391 0.961 . S
H406 C391 0.961 1_556 S
H407 C391 0.961 . S
H408 C392 0.931 . S
H409 C397 0.930 . S
H410 C398 0.956 . S
H411 C398 0.961 . S
H412 C398 0.961 . S
H413 C399 0.958 . S
H414 C399 0.961 . S
H415 C399 0.960 1_554 S
C416 C417 1.391 . S
C416 C418 1.394 . S
C416 H432 0.931 . S
C417 C416 1.391 . S
C417 C421 1.376 . S
C418 C416 1.394 . S
C418 C419 1.369 . S
C418 C422 1.531 . S
C419 C418 1.369 . S
C419 C420 1.410 . S
C419 C427 1.503 . S
C420 C419 1.410 . S
C420 C421 1.392 . S
C420 C423 1.511 . S
C421 C417 1.376 . S
C421 C420 1.392 . S
C421 H433 0.929 . S
C422 C418 1.531 . S
C422 H434 0.960 . S
C422 H435 0.962 . S
C422 H436 0.960 . S
C423 C420 1.511 . S
C423 H437 0.961 . S
C423 H438 0.961 . S
C423 H439 0.961 . S
C424 C425 1.370 . S
C424 C426 1.363 . S
C424 H440 0.931 . S
C425 C424 1.370 . S
C425 C429 1.408 . S
C426 C424 1.363 . S
C426 C427 1.370 . S
C426 C430 1.524 . S
C427 C419 1.503 . S
C427 C426 1.370 . S
C427 C428 1.403 . S
C428 C427 1.403 . S
C428 C429 1.404 . S
C428 C431 1.539 . S
C429 C425 1.408 . S
C429 C428 1.404 . S
C429 H441 0.930 . S
C430 C426 1.524 . S
C430 H442 0.956 . S
C430 H443 0.961 . S
C430 H444 0.961 . S
C431 C428 1.539 . S
C431 H445 0.958 . S
C431 H446 0.961 . S
C431 H447 0.960 . S
H432 C416 0.931 . S
H433 C421 0.929 . S
H434 C422 0.960 . S
H435 C422 0.962 . S
H436 C422 0.960 . S
H437 C423 0.961 . S
H438 C423 0.961 . S
H439 C423 0.961 . S
H440 C424 0.931 . S
H441 C429 0.930 . S
H442 C430 0.956 . S
H443 C430 0.961 . S
H444 C430 0.961 . S
H445 C431 0.958 . S
H446 C431 0.961 . S
H447 C431 0.960 . S
C448 C449 1.391 . S
C448 C450 1.394 . S
C448 H464 0.931 . S
C449 C448 1.391 . S
C449 C453 1.376 . S
C450 C448 1.394 . S
C450 C451 1.369 . S
C450 C454 1.531 . S
C451 C450 1.369 . S
C451 C452 1.410 . S
C451 C459 1.503 . S
C452 C451 1.410 . S
C452 C453 1.392 . S
C452 C455 1.511 . S
C453 C449 1.376 . S
C453 C452 1.392 . S
C453 H465 0.929 . S
C454 C450 1.531 . S
C454 H466 0.960 . S
C454 H467 0.962 . S
C454 H468 0.960 . S
C455 C452 1.511 . S
C455 H469 0.961 . S
C455 H470 0.961 . S
C455 H471 0.961 . S
C456 C457 1.370 . S
C456 C458 1.363 . S
C456 H472 0.931 . S
C457 C456 1.370 . S
C457 C461 1.408 . S
C458 C456 1.363 . S
C458 C459 1.370 . S
C458 C462 1.524 . S
C459 C451 1.503 . S
C459 C458 1.370 . S
C459 C460 1.403 . S
C460 C459 1.403 . S
C460 C461 1.404 . S
C460 C463 1.539 . S
C461 C457 1.408 . S
C461 C460 1.404 . S
C461 H473 0.930 . S
C462 C458 1.524 . S
C462 H474 0.956 . S
C462 H475 0.961 . S
C462 H476 0.961 . S
C463 C460 1.539 . S
C463 H477 0.958 . S
C463 H478 0.961 . S
C463 H479 0.960 . S
H464 C448 0.931 . S
H465 C453 0.929 . S
H466 C454 0.960 . S
H467 C454 0.962 . S
H468 C454 0.960 . S
H469 C455 0.961 . S
H470 C455 0.961 . S
H471 C455 0.961 . S
H472 C456 0.931 . S
H473 C461 0.930 . S
H474 C462 0.956 . S
H475 C462 0.961 . S
H476 C462 0.961 . S
H477 C463 0.958 . S
H478 C463 0.961 . S
H479 C463 0.960 . S
C480 C481 1.391 . S
C480 C482 1.394 . S
C480 H496 0.931 . S
C481 C480 1.391 . S
C481 C485 1.376 . S
C482 C480 1.394 . S
C482 C483 1.369 . S
C482 C486 1.531 . S
C483 C482 1.369 . S
C483 C484 1.410 . S
C483 C491 1.503 . S
C484 C483 1.410 . S
C484 C485 1.392 . S
C484 C487 1.511 . S
C485 C481 1.376 . S
C485 C484 1.392 . S
C485 H497 0.929 . S
C486 C482 1.531 . S
C486 H498 0.960 . S
C486 H499 0.962 . S
C486 H500 0.960 . S
C487 C484 1.511 . S
C487 H501 0.961 . S
C487 H502 0.961 . S
C487 H503 0.961 . S
C488 C489 1.370 . S
C488 C490 1.363 . S
C488 H504 0.931 . S
C489 C488 1.370 . S
C489 C493 1.408 . S
C490 C488 1.363 . S
C490 C491 1.370 . S
C490 C494 1.524 . S
C491 C483 1.503 . S
C491 C490 1.370 . S
C491 C492 1.403 . S
C492 C491 1.403 . S
C492 C493 1.404 . S
C492 C495 1.539 . S
C493 C489 1.408 . S
C493 C492 1.404 . S
C493 H505 0.930 . S
C494 C490 1.524 . S
C494 H506 0.956 . S
C494 H507 0.961 . S
C494 H508 0.961 . S
C495 C492 1.539 . S
C495 H509 0.958 . S
C495 H510 0.961 . S
C495 H511 0.960 . S
H496 C480 0.931 . S
H497 C485 0.929 . S
H498 C486 0.960 . S
H499 C486 0.962 . S
H500 C486 0.960 . S
H501 C487 0.961 . S
H502 C487 0.961 . S
H503 C487 0.961 . S
H504 C488 0.931 . S
H505 C493 0.930 . S
H506 C494 0.956 . S
H507 C494 0.961 . S
H508 C494 0.961 . S
H509 C495 0.958 . S
H510 C495 0.961 . S
H511 C495 0.960 . S
C512 C513 1.391 . S
C512 C514 1.394 . S
C512 H528 0.931 . S
C513 C512 1.391 . S
C513 C517 1.376 . S
C514 C512 1.394 . S
C514 C515 1.369 . S
C514 C518 1.531 . S
C515 C514 1.369 . S
C515 C516 1.410 . S
C515 C523 1.503 . S
C516 C515 1.410 . S
C516 C517 1.392 . S
C516 C519 1.511 . S
C517 C513 1.376 . S
C517 C516 1.392 . S
C517 H529 0.929 1_455 S
C518 C514 1.531 . S
C518 H530 0.960 . S
C518 H531 0.962 . S
C518 H532 0.960 . S
C519 C516 1.511 . S
C519 H533 0.961 1_455 S
C519 H534 0.961 . S
C519 H535 0.961 1_455 S
C520 C521 1.370 . S
C520 C522 1.363 . S
C520 H536 0.931 . S
C521 C520 1.370 . S
C521 C525 1.408 . S
C522 C520 1.363 . S
C522 C523 1.370 . S
C522 C526 1.524 . S
C523 C515 1.503 . S
C523 C522 1.370 . S
C523 C524 1.403 . S
C524 C523 1.403 . S
C524 C525 1.404 . S
C524 C527 1.539 . S
C525 C521 1.408 . S
C525 C524 1.404 . S
C525 H537 0.930 . S
C526 C522 1.524 . S
C526 H538 0.956 . S
C526 H539 0.961 . S
C526 H540 0.961 . S
C527 C524 1.539 . S
C527 H541 0.958 . S
C527 H542 0.961 . S
C527 H543 0.960 . S
H528 C512 0.931 . S
H529 C517 0.929 1_655 S
H530 C518 0.960 . S
H531 C518 0.962 . S
H532 C518 0.960 . S
H533 C519 0.961 1_655 S
H534 C519 0.961 . S
H535 C519 0.961 1_655 S
H536 C520 0.931 . S
H537 C525 0.930 . S
H538 C526 0.956 . S
H539 C526 0.961 . S
H540 C526 0.961 . S
H541 C527 0.958 . S
H542 C527 0.961 . S
H543 C527 0.960 . S
C544 C545 1.391 . S
C544 C546 1.394 . S
C544 H560 0.931 . S
C545 C544 1.391 . S
C545 C549 1.376 . S
C546 C544 1.394 . S
C546 C547 1.369 . S
C546 C550 1.531 . S
C547 C546 1.369 . S
C547 C548 1.410 . S
C547 C555 1.503 . S
C548 C547 1.410 . S
C548 C549 1.392 . S
C548 C551 1.511 . S
C549 C545 1.376 . S
C549 C548 1.392 . S
C549 H561 0.929 . S
C550 C546 1.531 . S
C550 H562 0.960 . S
C550 H563 0.962 . S
C550 H564 0.960 . S
C551 C548 1.511 . S
C551 H565 0.961 . S
C551 H566 0.961 . S
C551 H567 0.961 . S
C552 C553 1.370 . S
C552 C554 1.363 . S
C552 H568 0.931 . S
C553 C552 1.370 . S
C553 C557 1.408 . S
C554 C552 1.363 . S
C554 C555 1.370 . S
C554 C558 1.524 . S
C555 C547 1.503 . S
C555 C554 1.370 . S
C555 C556 1.403 . S
C556 C555 1.403 . S
C556 C557 1.404 . S
C556 C559 1.539 . S
C557 C553 1.408 . S
C557 C556 1.404 . S
C557 H569 0.930 . S
C558 C554 1.524 . S
C558 H570 0.956 . S
C558 H571 0.961 . S
C558 H572 0.961 . S
C559 C556 1.539 . S
C559 H573 0.958 . S
C559 H574 0.961 . S
C559 H575 0.960 . S
H560 C544 0.931 . S
H561 C549 0.929 . S
H562 C550 0.960 . S
H563 C550 0.962 . S
H564 C550 0.960 . S
H565 C551 0.961 . S
H566 C551 0.961 . S
H567 C551 0.961 . S
H568 C552 0.931 . S
H569 C557 0.930 . S
H570 C558 0.956 . S
H571 C558 0.961 . S
H572 C558 0.961 . S
H573 C559 0.958 . S
H574 C559 0.961 . S
H575 C559 0.960 . S
C576 C577 1.391 1_554 S
C576 C578 1.394 . S
C576 H592 0.931 1_554 S
C577 C576 1.391 1_556 S
C577 C581 1.376 1_556 S
C578 C576 1.394 . S
C578 C579 1.369 . S
C578 C582 1.531 . S
C579 C578 1.369 . S
C579 C580 1.410 . S
C579 C587 1.503 . S
C580 C579 1.410 . S
C580 C581 1.392 . S
C580 C583 1.511 . S
C581 C577 1.376 1_554 S
C581 C580 1.392 . S
C581 H593 0.929 . S
C582 C578 1.531 . S
C582 H594 0.960 . S
C582 H595 0.962 . S
C582 H596 0.960 . S
C583 C580 1.511 . S
C583 H597 0.961 . S
C583 H598 0.961 . S
C583 H599 0.961 . S
C584 C585 1.370 . S
C584 C586 1.363 . S
C584 H600 0.931 . S
C585 C584 1.370 . S
C585 C589 1.408 . S
C586 C584 1.363 . S
C586 C587 1.370 . S
C586 C590 1.524 . S
C587 C579 1.503 . S
C587 C586 1.370 . S
C587 C588 1.403 . S
C588 C587 1.403 . S
C588 C589 1.404 . S
C588 C591 1.539 . S
C589 C585 1.408 . S
C589 C588 1.404 . S
C589 H601 0.930 . S
C590 C586 1.524 . S
C590 H602 0.956 . S
C590 H603 0.961 . S
C590 H604 0.961 . S
C591 C588 1.539 . S
C591 H605 0.958 . S
C591 H606 0.961 . S
C591 H607 0.960 . S
H592 C576 0.931 1_556 S
H593 C581 0.929 . S
H594 C582 0.960 . S
H595 C582 0.962 . S
H596 C582 0.960 . S
H597 C583 0.961 . S
H598 C583 0.961 . S
H599 C583 0.961 . S
H600 C584 0.931 . S
H601 C589 0.930 . S
H602 C590 0.956 . S
H603 C590 0.961 . S
H604 C590 0.961 . S
H605 C591 0.958 . S
H606 C591 0.961 . S
H607 C591 0.960 . S
C608 C609 1.391 . S
C608 C610 1.394 . S
C608 H624 0.931 . S
C609 C608 1.391 . S
C609 C613 1.376 . S
C610 C608 1.394 . S
C610 C611 1.369 . S
C610 C614 1.531 . S
C611 C610 1.369 . S
C611 C612 1.410 . S
C611 C619 1.503 . S
C612 C611 1.410 . S
C612 C613 1.392 . S
C612 C615 1.511 . S
C613 C609 1.376 . S
C613 C612 1.392 . S
C613 H625 0.929 . S
C614 C610 1.531 . S
C614 H626 0.960 . S
C614 H627 0.962 . S
C614 H628 0.960 . S
C615 C612 1.511 . S
C615 H629 0.961 . S
C615 H630 0.961 . S
C615 H631 0.961 . S
C616 C617 1.370 . S
C616 C618 1.363 . S
C616 H632 0.931 . S
C617 C616 1.370 . S
C617 C621 1.408 . S
C618 C616 1.363 . S
C618 C619 1.370 . S
C618 C622 1.524 . S
C619 C611 1.503 . S
C619 C618 1.370 . S
C619 C620 1.403 . S
C620 C619 1.403 . S
C620 C621 1.404 . S
C620 C623 1.539 . S
C621 C617 1.408 . S
C621 C620 1.404 . S
C621 H633 0.930 . S
C622 C618 1.524 . S
C622 H634 0.956 . S
C622 H635 0.961 . S
C622 H636 0.961 . S
C623 C620 1.539 . S
C623 H637 0.958 . S
C623 H638 0.961 . S
C623 H639 0.960 . S
H624 C608 0.931 . S
H625 C613 0.929 . S
H626 C614 0.960 . S
H627 C614 0.962 . S
H628 C614 0.960 . S
H629 C615 0.961 . S
H630 C615 0.961 . S
H631 C615 0.961 . S
H632 C616 0.931 . S
H633 C621 0.930 . S
H634 C622 0.956 . S
H635 C622 0.961 . S
H636 C622 0.961 . S
H637 C623 0.958 . S
H638 C623 0.961 . S
H639 C623 0.960 . S
C640 C641 1.391 . S
C640 C642 1.394 1_455 S
C640 H656 0.931 . S
C641 C640 1.391 . S
C641 C645 1.376 . S
C642 C640 1.394 1_655 S
C642 C643 1.369 . S
C642 C646 1.531 . S
C643 C642 1.369 . S
C643 C644 1.410 . S
C643 C651 1.503 . S
C644 C643 1.410 . S
C644 C645 1.392 1_655 S
C644 C647 1.511 . S
C645 C641 1.376 . S
C645 C644 1.392 1_455 S
C645 H657 0.929 . S
C646 C642 1.531 . S
C646 H658 0.960 . S
C646 H659 0.962 . S
C646 H660 0.960 . S
C647 C644 1.511 . S
C647 H661 0.961 . S
C647 H662 0.961 . S
C647 H663 0.957 1_655 S
C648 C649 1.370 . S
C648 C650 1.363 . S
C648 H664 0.931 . S
C649 C648 1.370 . S
C649 C653 1.408 . S
C650 C648 1.363 . S
C650 C651 1.370 . S
C650 C654 1.524 . S
C651 C643 1.503 . S
C651 C650 1.370 . S
C651 C652 1.403 . S
C652 C651 1.403 . S
C652 C653 1.404 . S
C652 C655 1.539 . S
C653 C649 1.408 . S
C653 C652 1.404 . S
C653 H665 0.930 . S
C654 C650 1.524 . S
C654 H666 0.956 . S
C654 H667 0.961 . S
C654 H668 0.961 . S
C655 C652 1.539 . S
C655 H669 0.958 . S
C655 H670 0.961 . S
C655 H671 0.960 . S
H656 C640 0.931 . S
H657 C645 0.929 . S
H658 C646 0.960 . S
H659 C646 0.962 . S
H660 C646 0.960 . S
H661 C647 0.961 . S
H662 C647 0.961 . S
H663 C647 0.957 1_455 S
H664 C648 0.931 . S
H665 C653 0.930 . S
H666 C654 0.956 . S
H667 C654 0.961 . S
H668 C654 0.961 . S
H669 C655 0.958 . S
H670 C655 0.961 . S
H671 C655 0.960 . S
C672 C673 1.391 . S
C672 C674 1.394 . S
C672 H688 0.931 . S
C673 C672 1.391 . S
C673 C677 1.376 . S
C674 C672 1.394 . S
C674 C675 1.369 . S
C674 C678 1.531 . S
C675 C674 1.369 . S
C675 C676 1.410 . S
C675 C683 1.503 . S
C676 C675 1.410 . S
C676 C677 1.392 . S
C676 C679 1.511 . S
C677 C673 1.376 . S
C677 C676 1.392 . S
C677 H689 0.929 . S
C678 C674 1.531 . S
C678 H690 0.960 . S
C678 H691 0.962 . S
C678 H692 0.960 . S
C679 C676 1.511 . S
C679 H693 0.961 . S
C679 H694 0.961 . S
C679 H695 0.961 . S
C680 C681 1.370 . S
C680 C682 1.363 . S
C680 H696 0.931 . S
C681 C680 1.370 . S
C681 C685 1.408 . S
C682 C680 1.363 . S
C682 C683 1.370 . S
C682 C686 1.524 . S
C683 C675 1.503 . S
C683 C682 1.370 . S
C683 C684 1.403 . S
C684 C683 1.403 . S
C684 C685 1.404 . S
C684 C687 1.539 . S
C685 C681 1.408 . S
C685 C684 1.404 . S
C685 H697 0.930 . S
C686 C682 1.524 . S
C686 H698 0.956 . S
C686 H699 0.961 . S
C686 H700 0.961 . S
C687 C684 1.539 . S
C687 H701 0.958 . S
C687 H702 0.961 . S
C687 H703 0.960 . S
H688 C672 0.931 . S
H689 C677 0.929 . S
H690 C678 0.960 . S
H691 C678 0.962 . S
H692 C678 0.960 . S
H693 C679 0.961 . S
H694 C679 0.961 . S
H695 C679 0.961 . S
H696 C680 0.931 . S
H697 C685 0.930 . S
H698 C686 0.956 . S
H699 C686 0.961 . S
H700 C686 0.961 . S
H701 C687 0.958 . S
H702 C687 0.961 . S
H703 C687 0.960 . S
C704 C705 1.391 . S
C704 C706 1.394 . S
C704 H720 0.931 . S
C705 C704 1.391 . S
C705 C709 1.376 1_565 S
C706 C704 1.394 . S
C706 C707 1.369 . S
C706 C710 1.531 . S
C707 C706 1.369 . S
C707 C708 1.410 . S
C707 C715 1.503 . S
C708 C707 1.410 . S
C708 C709 1.392 1_565 S
C708 C711 1.511 . S
C709 C705 1.376 1_545 S
C709 C708 1.392 1_545 S
C709 H721 0.929 . S
C710 C706 1.531 . S
C710 H722 0.960 . S
C710 H723 0.962 . S
C710 H724 0.960 . S
C711 C708 1.511 . S
C711 H725 0.961 1_566 S
C711 H726 0.961 . S
C711 H727 0.961 1_565 S
C712 C713 1.370 . S
C712 C714 1.363 . S
C712 H728 0.931 . S
C713 C712 1.370 . S
C713 C717 1.408 . S
C714 C712 1.363 . S
C714 C715 1.370 . S
C714 C718 1.524 . S
C715 C707 1.503 . S
C715 C714 1.370 . S
C715 C716 1.403 . S
C716 C715 1.403 . S
C716 C717 1.404 . S
C716 C719 1.539 1_565 S
C717 C713 1.408 . S
C717 C716 1.404 . S
C717 H729 0.930 . S
C718 C714 1.524 . S
C718 H730 0.956 . S
C718 H731 0.961 . S
C718 H732 0.961 . S
C719 C716 1.539 1_545 S
C719 H733 0.958 . S
C719 H734 0.961 . S
C719 H735 0.960 . S
H720 C704 0.931 . S
H721 C709 0.929 . S
H722 C710 0.960 . S
H723 C710 0.962 . S
H724 C710 0.960 . S
H725 C711 0.961 1_544 S
H726 C711 0.961 . S
H727 C711 0.961 1_545 S
H728 C712 0.931 . S
H729 C717 0.930 . S
H730 C718 0.956 . S
H731 C718 0.961 . S
H732 C718 0.961 . S
H733 C719 0.958 . S
H734 C719 0.961 . S
H735 C719 0.960 . S
C736 C737 1.391 . S
C736 C738 1.394 . S
C736 H752 0.931 . S
C737 C736 1.391 . S
C737 C741 1.376 . S
C738 C736 1.394 . S
C738 C739 1.369 . S
C738 C742 1.531 . S
C739 C738 1.369 . S
C739 C740 1.410 . S
C739 C747 1.503 . S
C740 C739 1.410 . S
C740 C741 1.392 . S
C740 C743 1.511 . S
C741 C737 1.376 . S
C741 C740 1.392 . S
C741 H753 0.929 . S
C742 C738 1.531 . S
C742 H754 0.960 . S
C742 H755 0.962 . S
C742 H756 0.960 . S
C743 C740 1.511 . S
C743 H757 0.961 . S
C743 H758 0.961 . S
C743 H759 0.961 . S
C744 C745 1.370 . S
C744 C746 1.363 . S
C744 H760 0.931 . S
C745 C744 1.370 . S
C745 C749 1.408 . S
C746 C744 1.363 . S
C746 C747 1.370 . S
C746 C750 1.524 . S
C747 C739 1.503 . S
C747 C746 1.370 . S
C747 C748 1.403 . S
C748 C747 1.403 . S
C748 C749 1.404 . S
C748 C751 1.539 . S
C749 C745 1.408 . S
C749 C748 1.404 . S
C749 H761 0.930 . S
C750 C746 1.524 . S
C750 H762 0.956 . S
C750 H763 0.961 . S
C750 H764 0.961 . S
C751 C748 1.539 . S
C751 H765 0.958 . S
C751 H766 0.961 . S
C751 H767 0.960 . S
H752 C736 0.931 . S
H753 C741 0.929 . S
H754 C742 0.960 . S
H755 C742 0.962 . S
H756 C742 0.960 . S
H757 C743 0.961 . S
H758 C743 0.961 . S
H759 C743 0.961 . S
H760 C744 0.931 . S
H761 C749 0.930 . S
H762 C750 0.956 . S
H763 C750 0.961 . S
H764 C750 0.961 . S
H765 C751 0.958 . S
H766 C751 0.961 . S
H767 C751 0.960 . S
C768 C769 1.391 . S
C768 C770 1.394 1_455 S
C768 H784 0.931 1_565 S
C769 C768 1.391 . S
C769 C773 1.376 . S
C770 C768 1.394 1_655 S
C770 C771 1.369 . S
C770 C774 1.531 . S
C771 C770 1.369 . S
C771 C772 1.410 . S
C771 C779 1.503 . S
C772 C771 1.410 . S
C772 C773 1.392 1_655 S
C772 C775 1.511 . S
C773 C769 1.376 . S
C773 C772 1.392 1_455 S
C773 H785 0.929 . S
C774 C770 1.531 . S
C774 H786 0.960 . S
C774 H787 0.962 1_565 S
C774 H788 0.960 1_655 S
C775 C772 1.511 . S
C775 H789 0.961 . S
C775 H790 0.961 . S
C775 H791 0.961 . S
C776 C777 1.370 . S
C776 C778 1.363 . S
C776 H792 0.931 . S
C777 C776 1.370 . S
C777 C781 1.408 . S
C778 C776 1.363 . S
C778 C779 1.370 . S
C778 C782 1.524 . S
C779 C771 1.503 . S
C779 C778 1.370 . S
C779 C780 1.403 . S
C780 C779 1.403 . S
C780 C781 1.404 . S
C780 C783 1.539 . S
C781 C777 1.408 . S
C781 C780 1.404 . S
C781 H793 0.930 . S
C782 C778 1.524 . S
C782 H794 0.956 1_565 S
C782 H795 0.961 . S
C782 H796 0.961 . S
C783 C780 1.539 . S
C783 H797 0.958 . S
C783 H798 0.961 . S
C783 H799 0.960 . S
H784 C768 0.931 1_545 S
H785 C773 0.929 . S
H786 C774 0.960 . S
H787 C774 0.962 1_545 S
H788 C774 0.960 1_455 S
H789 C775 0.961 . S
H790 C775 0.961 . S
H791 C775 0.961 . S
H792 C776 0.931 . S
H793 C781 0.930 . S
H794 C782 0.956 1_545 S
H795 C782 0.961 . S
H796 C782 0.961 . S
H797 C783 0.958 . S
H798 C783 0.961 . S
H799 C783 0.960 . S
C800 C801 1.391 . S
C800 C802 1.394 . S
C800 H816 0.931 . S
C801 C800 1.391 . S
C801 C805 1.376 . S
C802 C800 1.394 . S
C802 C803 1.369 . S
C802 C806 1.531 . S
C803 C802 1.369 . S
C803 C804 1.410 . S
C803 C811 1.503 . S
C804 C803 1.410 . S
C804 C805 1.392 . S
C804 C807 1.511 . S
C805 C801 1.376 . S
C805 C804 1.392 . S
C805 H817 0.929 . S
C806 C802 1.531 . S
C806 H818 0.960 . S
C806 H819 0.962 . S
C806 H820 0.960 . S
C807 C804 1.511 . S
C807 H821 0.961 . S
C807 H822 0.961 . S
C807 H823 0.961 . S
C808 C809 1.370 . S
C808 C810 1.363 . S
C808 H824 0.931 . S
C809 C808 1.370 . S
C809 C813 1.408 . S
C810 C808 1.363 . S
C810 C811 1.370 . S
C810 C814 1.524 . S
C811 C803 1.503 . S
C811 C810 1.370 . S
C811 C812 1.403 . S
C812 C811 1.403 . S
C812 C813 1.404 . S
C812 C815 1.539 . S
C813 C809 1.408 . S
C813 C812 1.404 . S
C813 H825 0.930 . S
C814 C810 1.524 . S
C814 H826 0.956 . S
C814 H827 0.961 . S
C814 H828 0.961 . S
C815 C812 1.539 . S
C815 H829 0.958 . S
C815 H830 0.961 . S
C815 H831 0.960 . S
H816 C800 0.931 . S
H817 C805 0.929 . S
H818 C806 0.960 . S
H819 C806 0.962 . S
H820 C806 0.960 . S
H821 C807 0.961 . S
H822 C807 0.961 . S
H823 C807 0.961 . S
H824 C808 0.931 . S
H825 C813 0.930 . S
H826 C814 0.956 . S
H827 C814 0.961 . S
H828 C814 0.961 . S
H829 C815 0.958 . S
H830 C815 0.961 . S
H831 C815 0.960 . S
C832 C833 1.391 . S
C832 C834 1.394 . S
C832 H848 0.931 . S
C833 C832 1.391 . S
C833 C837 1.376 . S
C834 C832 1.394 . S
C834 C835 1.369 . S
C834 C838 1.531 . S
C835 C834 1.369 . S
C835 C836 1.410 . S
C835 C843 1.503 . S
C836 C835 1.410 . S
C836 C837 1.392 . S
C836 C839 1.511 . S
C837 C833 1.376 . S
C837 C836 1.392 . S
C837 H849 0.929 . S
C838 C834 1.531 . S
C838 H850 0.960 . S
C838 H851 0.962 . S
C838 H852 0.960 . S
C839 C836 1.511 . S
C839 H853 0.961 . S
C839 H854 0.961 . S
C839 H855 0.961 . S
C840 C841 1.370 . S
C840 C842 1.363 . S
C840 H856 0.931 . S
C841 C840 1.370 . S
C841 C845 1.408 . S
C842 C840 1.363 . S
C842 C843 1.370 . S
C842 C846 1.524 . S
C843 C835 1.503 . S
C843 C842 1.370 . S
C843 C844 1.403 . S
C844 C843 1.403 . S
C844 C845 1.404 . S
C844 C847 1.539 . S
C845 C841 1.408 . S
C845 C844 1.404 . S
C845 H857 0.930 . S
C846 C842 1.524 . S
C846 H858 0.956 . S
C846 H859 0.961 . S
C846 H860 0.961 . S
C847 C844 1.539 . S
C847 H861 0.958 . S
C847 H862 0.961 . S
C847 H863 0.960 . S
H848 C832 0.931 . S
H849 C837 0.929 . S
H850 C838 0.960 . S
H851 C838 0.962 . S
H852 C838 0.960 . S
H853 C839 0.961 . S
H854 C839 0.961 . S
H855 C839 0.961 . S
H856 C840 0.931 . S
H857 C845 0.930 . S
H858 C846 0.956 . S
H859 C846 0.961 . S
H860 C846 0.961 . S
H861 C847 0.958 . S
H862 C847 0.961 . S
H863 C847 0.960 . S
C864 C865 1.391 . S
C864 C866 1.394 . S
C864 H880 0.931 . S
C865 C864 1.391 . S
C865 C869 1.376 . S
C866 C864 1.394 . S
C866 C867 1.369 . S
C866 C870 1.531 . S
C867 C866 1.369 . S
C867 C868 1.410 . S
C867 C875 1.503 . S
C868 C867 1.410 . S
C868 C869 1.392 . S
C868 C871 1.511 . S
C869 C865 1.376 . S
C869 C868 1.392 . S
C869 H881 0.929 . S
C870 C866 1.531 . S
C870 H882 0.960 . S
C870 H883 0.962 . S
C870 H884 0.960 . S
C871 C868 1.511 . S
C871 H885 0.961 . S
C871 H886 0.961 . S
C871 H887 0.961 . S
C872 C873 1.370 . S
C872 C874 1.363 . S
C872 H888 0.931 . S
C873 C872 1.370 . S
C873 C877 1.408 . S
C874 C872 1.363 . S
C874 C875 1.370 . S
C874 C878 1.524 . S
C875 C867 1.503 . S
C875 C874 1.370 . S
C875 C876 1.403 . S
C876 C875 1.403 . S
C876 C877 1.404 . S
C876 C879 1.539 . S
C877 C873 1.408 . S
C877 C876 1.404 . S
C877 H889 0.930 . S
C878 C874 1.524 . S
C878 H890 0.956 . S
C878 H891 0.961 . S
C878 H892 0.961 . S
C879 C876 1.539 . S
C879 H893 0.958 . S
C879 H894 0.961 . S
C879 H895 0.960 . S
H880 C864 0.931 . S
H881 C869 0.929 . S
H882 C870 0.960 . S
H883 C870 0.962 . S
H884 C870 0.960 . S
H885 C871 0.961 . S
H886 C871 0.961 . S
H887 C871 0.961 . S
H888 C872 0.931 . S
H889 C877 0.930 . S
H890 C878 0.956 . S
H891 C878 0.961 . S
H892 C878 0.961 . S
H893 C879 0.958 . S
H894 C879 0.961 . S
H895 C879 0.960 . S
C896 C897 1.391 . S
C896 C898 1.394 1_545 S
C896 H912 0.931 1_554 S
C897 C896 1.391 . S
C897 C901 1.376 . S
C898 C896 1.394 1_565 S
C898 C899 1.369 . S
C898 C902 1.531 . S
C899 C898 1.369 . S
C899 C900 1.410 1_565 S
C899 C907 1.503 . S
C900 C899 1.410 1_545 S
C900 C901 1.392 . S
C900 C903 1.511 1_545 S
C901 C897 1.376 . S
C901 C900 1.392 . S
C901 H913 0.929 . S
C902 C898 1.531 . S
C902 H914 0.960 . S
C902 H915 0.962 . S
C902 H916 0.960 . S
C903 C900 1.511 1_565 S
C903 H917 0.961 1_565 S
C903 H918 0.961 . S
C903 H919 0.961 1_565 S
C904 C905 1.370 . S
C904 C906 1.363 . S
C904 H920 0.931 . S
C905 C904 1.370 . S
C905 C909 1.408 . S
C906 C904 1.363 . S
C906 C907 1.370 . S
C906 C910 1.524 . S
C907 C899 1.503 . S
C907 C906 1.370 . S
C907 C908 1.403 . S
C908 C907 1.403 . S
C908 C909 1.404 . S
C908 C911 1.539 . S
C909 C905 1.408 . S
C909 C908 1.404 . S
C909 H921 0.930 . S
C910 C906 1.524 . S
C910 H922 0.956 . S
C910 H923 0.961 . S
C910 H924 0.961 . S
C911 C908 1.539 . S
C911 H925 0.958 . S
C911 H926 0.961 . S
C911 H927 0.960 1_565 S
H912 C896 0.931 1_556 S
H913 C901 0.929 . S
H914 C902 0.960 . S
H915 C902 0.962 . S
H916 C902 0.960 . S
H917 C903 0.961 1_545 S
H918 C903 0.961 . S
H919 C903 0.961 1_545 S
H920 C904 0.931 . S
H921 C909 0.930 . S
H922 C910 0.956 . S
H923 C910 0.961 . S
H924 C910 0.961 . S
H925 C911 0.958 . S
H926 C911 0.961 . S
H927 C911 0.960 1_545 S
C928 C929 1.391 1_554 S
C928 C930 1.394 1_554 S
C928 H944 0.931 . S
C929 C928 1.391 1_556 S
C929 C933 1.376 . S
C930 C928 1.394 1_556 S
C930 C931 1.369 . S
C930 C934 1.531 1_556 S
C931 C930 1.369 . S
C931 C932 1.410 . S
C931 C939 1.503 . S
C932 C931 1.410 . S
C932 C933 1.392 . S
C932 C935 1.511 . S
C933 C929 1.376 . S
C933 C932 1.392 . S
C933 H945 0.929 . S
C934 C930 1.531 1_554 S
C934 H946 0.960 . S
C934 H947 0.962 . S
C934 H948 0.960 . S
C935 C932 1.511 . S
C935 H949 0.961 . S
C935 H950 0.961 . S
C935 H951 0.961 . S
C936 C937 1.370 . S
C936 C938 1.363 . S
C936 H952 0.931 . S
C937 C936 1.370 . S
C937 C941 1.408 . S
C938 C936 1.363 . S
C938 C939 1.370 . S
C938 C942 1.524 . S
C939 C931 1.503 . S
C939 C938 1.370 . S
C939 C940 1.403 . S
C940 C939 1.403 . S
C940 C941 1.404 . S
C940 C943 1.539 . S
C941 C937 1.408 . S
C941 C940 1.404 . S
C941 H953 0.930 . S
C942 C938 1.524 . S
C942 H954 0.956 . S
C942 H955 0.961 . S
C942 H956 0.961 . S
C943 C940 1.539 . S
C943 H957 0.958 . S
C943 H958 0.961 1_655 S
C943 H959 0.960 . S
H944 C928 0.931 . S
H945 C933 0.929 . S
H946 C934 0.960 . S
H947 C934 0.962 . S
H948 C934 0.960 . S
H949 C935 0.961 . S
H950 C935 0.961 . S
H951 C935 0.961 . S
H952 C936 0.931 . S
H953 C941 0.930 . S
H954 C942 0.956 . S
H955 C942 0.961 . S
H956 C942 0.961 . S
H957 C943 0.958 . S
H958 C943 0.961 1_455 S
H959 C943 0.960 . S
C960 C961 1.391 . S
C960 C962 1.394 . S
C960 H976 0.931 . S
C961 C960 1.391 . S
C961 C965 1.376 . S
C962 C960 1.394 . S
C962 C963 1.369 . S
C962 C966 1.531 . S
C963 C962 1.369 . S
C963 C964 1.410 . S
C963 C971 1.503 . S
C964 C963 1.410 . S
C964 C965 1.392 . S
C964 C967 1.511 . S
C965 C961 1.376 . S
C965 C964 1.392 . S
C965 H977 0.929 . S
C966 C962 1.531 . S
C966 H978 0.960 . S
C966 H979 0.962 . S
C966 H980 0.960 . S
C967 C964 1.511 . S
C967 H981 0.961 . S
C967 H982 0.961 . S
C967 H983 0.961 . S
C968 C969 1.370 . S
C968 C970 1.363 . S
C968 H984 0.931 . S
C969 C968 1.370 . S
C969 C973 1.408 . S
C970 C968 1.363 . S
C970 C971 1.370 . S
C970 C974 1.524 . S
C971 C963 1.503 . S
C971 C970 1.370 . S
C971 C972 1.403 . S
C972 C971 1.403 . S
C972 C973 1.404 . S
C972 C975 1.539 . S
C973 C969 1.408 . S
C973 C972 1.404 . S
C973 H985 0.930 . S
C974 C970 1.524 . S
C974 H986 0.956 . S
C974 H987 0.961 . S
C974 H988 0.961 . S
C975 C972 1.539 . S
C975 H989 0.958 . S
C975 H990 0.961 . S
C975 H991 0.960 . S
H976 C960 0.931 . S
H977 C965 0.929 . S
H978 C966 0.960 . S
H979 C966 0.962 . S
H980 C966 0.960 . S
H981 C967 0.961 . S
H982 C967 0.961 . S
H983 C967 0.961 . S
H984 C968 0.931 . S
H985 C973 0.930 . S
H986 C974 0.956 . S
H987 C974 0.961 . S
H988 C974 0.961 . S
H989 C975 0.958 . S
H990 C975 0.961 . S
H991 C975 0.960 . S
C992 C993 1.391 . S
C992 C994 1.394 . S
C992 H1008 0.931 . S
C993 C992 1.391 . S
C993 C997 1.376 . S
C994 C992 1.394 . S
C994 C995 1.369 . S
C994 C998 1.531 . S
C995 C994 1.369 . S
C995 C996 1.410 . S
C995 C1003 1.503 . S
C996 C995 1.410 . S
C996 C997 1.392 . S
C996 C999 1.511 . S
C997 C993 1.376 . S
C997 C996 1.392 . S
C997 H1009 0.929 . S
C998 C994 1.531 . S
C998 H1010 0.960 . S
C998 H1011 0.962 . S
C998 H1012 0.960 . S
C999 C996 1.511 . S
C999 H1013 0.961 . S
C999 H1014 0.961 . S
C999 H1015 0.961 . S
C1000 C1001 1.370 . S
C1000 C1002 1.363 . S
C1000 H1016 0.931 . S
C1001 C1000 1.370 . S
C1001 C1005 1.408 . S
C1002 C1000 1.363 . S
C1002 C1003 1.370 . S
C1002 C1006 1.524 . S
C1003 C995 1.503 . S
C1003 C1002 1.370 . S
C1003 C1004 1.403 . S
C1004 C1003 1.403 . S
C1004 C1005 1.404 . S
C1004 C1007 1.539 . S
C1005 C1001 1.408 . S
C1005 C1004 1.404 . S
C1005 H1017 0.930 . S
C1006 C1002 1.524 . S
C1006 H1018 0.956 . S
C1006 H1019 0.961 . S
C1006 H1020 0.961 . S
C1007 C1004 1.539 . S
C1007 H1021 0.958 . S
C1007 H1022 0.961 . S
C1007 H1023 0.960 . S
H1008 C992 0.931 . S
H1009 C997 0.929 . S
H1010 C998 0.960 . S
H1011 C998 0.962 . S
H1012 C998 0.960 . S
H1013 C999 0.961 . S
H1014 C999 0.961 . S
H1015 C999 0.961 . S
H1016 C1000 0.931 . S
H1017 C1005 0.930 . S
H1018 C1006 0.956 . S
H1019 C1006 0.961 . S
H1020 C1006 0.961 . S
H1021 C1007 0.958 . S
H1022 C1007 0.961 . S
H1023 C1007 0.960 . S
C1024 C1025 1.391 . S
C1024 C1026 1.394 . S
C1024 H1040 0.931 . S
C1025 C1024 1.391 . S
C1025 C1029 1.376 . S
C1026 C1024 1.394 . S
C1026 C1027 1.369 . S
C1026 C1030 1.531 . S
C1027 C1026 1.369 . S
C1027 C1028 1.410 . S
C1027 C1035 1.503 . S
C1028 C1027 1.410 . S
C1028 C1029 1.392 . S
C1028 C1031 1.511 . S
C1029 C1025 1.376 . S
C1029 C1028 1.392 . S
C1029 H1041 0.929 . S
C1030 C1026 1.531 . S
C1030 H1042 0.960 . S
C1030 H1043 0.962 . S
C1030 H1044 0.960 . S
C1031 C1028 1.511 . S
C1031 H1045 0.961 . S
C1031 H1046 0.961 . S
C1031 H1047 0.961 . S
C1032 C1033 1.370 . S
C1032 C1034 1.363 . S
C1032 H1048 0.931 . S
C1033 C1032 1.370 . S
C1033 C1037 1.408 . S
C1034 C1032 1.363 . S
C1034 C1035 1.370 . S
C1034 C1038 1.524 . S
C1035 C1027 1.503 . S
C1035 C1034 1.370 . S
C1035 C1036 1.403 . S
C1036 C1035 1.403 . S
C1036 C1037 1.404 . S
C1036 C1039 1.539 . S
C1037 C1033 1.408 . S
C1037 C1036 1.404 . S
C1037 H1049 0.930 . S
C1038 C1034 1.524 . S
C1038 H1050 0.956 . S
C1038 H1051 0.961 . S
C1038 H1052 0.961 . S
C1039 C1036 1.539 . S
C1039 H1053 0.958 . S
C1039 H1054 0.961 . S
C1039 H1055 0.960 . S
H1040 C1024 0.931 . S
H1041 C1029 0.929 . S
H1042 C1030 0.960 . S
H1043 C1030 0.962 . S
H1044 C1030 0.960 . S
H1045 C1031 0.961 . S
H1046 C1031 0.961 . S
H1047 C1031 0.961 . S
H1048 C1032 0.931 . S
H1049 C1037 0.930 . S
H1050 C1038 0.956 . S
H1051 C1038 0.961 . S
H1052 C1038 0.961 . S
H1053 C1039 0.958 . S
H1054 C1039 0.961 . S
H1055 C1039 0.960 . S
C1056 C1057 1.391 1_545 S
C1056 C1058 1.394 . S
C1056 H1072 0.931 . S
C1057 C1056 1.391 1_565 S
C1057 C1061 1.376 . S
C1058 C1056 1.394 . S
C1058 C1059 1.369 . S
C1058 C1062 1.531 . S
C1059 C1058 1.369 . S
C1059 C1060 1.410 . S
C1059 C1067 1.503 . S
C1060 C1059 1.410 . S
C1060 C1061 1.392 1_545 S
C1060 C1063 1.511 . S
C1061 C1057 1.376 . S
C1061 C1060 1.392 1_565 S
C1061 H1073 0.929 . S
C1062 C1058 1.531 . S
C1062 H1074 0.960 . S
C1062 H1075 0.962 . S
C1062 H1076 0.960 . S
C1063 C1060 1.511 . S
C1063 H1077 0.961 1_545 S
C1063 H1078 0.961 . S
C1063 H1079 0.961 . S
C1064 C1065 1.370 . S
C1064 C1066 1.363 . S
C1064 H1080 0.931 . S
C1065 C1064 1.370 . S
C1065 C1069 1.408 . S
C1066 C1064 1.363 . S
C1066 C1067 1.370 . S
C1066 C1070 1.524 . S
C1067 C1059 1.503 . S
C1067 C1066 1.370 . S
C1067 C1068 1.403 . S
C1068 C1067 1.403 . S
C1068 C1069 1.404 . S
C1068 C1071 1.539 . S
C1069 C1065 1.408 . S
C1069 C1068 1.404 . S
C1069 H1081 0.930 . S
C1070 C1066 1.524 . S
C1070 H1082 0.956 . S
C1070 H1083 0.961 . S
C1070 H1084 0.961 . S
C1071 C1068 1.539 . S
C1071 H1085 0.958 . S
C1071 H1086 0.961 . S
C1071 H1087 0.960 . S
H1072 C1056 0.931 . S
H1073 C1061 0.929 . S
H1074 C1062 0.960 . S
H1075 C1062 0.962 . S
H1076 C1062 0.960 . S
H1077 C1063 0.961 1_565 S
H1078 C1063 0.961 . S
H1079 C1063 0.961 . S
H1080 C1064 0.931 . S
H1081 C1069 0.930 . S
H1082 C1070 0.956 . S
H1083 C1070 0.961 . S
H1084 C1070 0.961 . S
H1085 C1071 0.958 . S
H1086 C1071 0.961 . S
H1087 C1071 0.960 . S
C1088 C1089 1.391 . S
C1088 C1090 1.394 . S
C1088 H1104 0.931 . S
C1089 C1088 1.391 . S
C1089 C1093 1.376 . S
C1090 C1088 1.394 . S
C1090 C1091 1.369 . S
C1090 C1094 1.531 . S
C1091 C1090 1.369 . S
C1091 C1092 1.410 . S
C1091 C1099 1.503 . S
C1092 C1091 1.410 . S
C1092 C1093 1.392 . S
C1092 C1095 1.511 . S
C1093 C1089 1.376 . S
C1093 C1092 1.392 . S
C1093 H1105 0.929 . S
C1094 C1090 1.531 . S
C1094 H1106 0.960 . S
C1094 H1107 0.962 . S
C1094 H1108 0.960 . S
C1095 C1092 1.511 . S
C1095 H1109 0.961 . S
C1095 H1110 0.961 . S
C1095 H1111 0.961 . S
C1096 C1097 1.370 . S
C1096 C1098 1.363 . S
C1096 H1112 0.931 . S
C1097 C1096 1.370 . S
C1097 C1101 1.408 . S
C1098 C1096 1.363 . S
C1098 C1099 1.370 . S
C1098 C1102 1.524 . S
C1099 C1091 1.503 . S
C1099 C1098 1.370 . S
C1099 C1100 1.403 . S
C1100 C1099 1.403 . S
C1100 C1101 1.404 . S
C1100 C1103 1.539 . S
C1101 C1097 1.408 . S
C1101 C1100 1.404 . S
C1101 H1113 0.930 . S
C1102 C1098 1.524 . S
C1102 H1114 0.956 . S
C1102 H1115 0.961 . S
C1102 H1116 0.961 . S
C1103 C1100 1.539 . S
C1103 H1117 0.958 . S
C1103 H1118 0.961 . S
C1103 H1119 0.960 . S
H1104 C1088 0.931 . S
H1105 C1093 0.929 . S
H1106 C1094 0.960 . S
H1107 C1094 0.962 . S
H1108 C1094 0.960 . S
H1109 C1095 0.961 . S
H1110 C1095 0.961 . S
H1111 C1095 0.961 . S
H1112 C1096 0.931 . S
H1113 C1101 0.930 . S
H1114 C1102 0.956 . S
H1115 C1102 0.961 . S
H1116 C1102 0.961 . S
H1117 C1103 0.958 . S
H1118 C1103 0.961 . S
H1119 C1103 0.960 . S
C1120 C1121 1.391 . S
C1120 C1122 1.394 . S
C1120 H1136 0.931 . S
C1121 C1120 1.391 . S
C1121 C1125 1.376 . S
C1122 C1120 1.394 . S
C1122 C1123 1.369 . S
C1122 C1126 1.531 . S
C1123 C1122 1.369 . S
C1123 C1124 1.410 . S
C1123 C1131 1.503 . S
C1124 C1123 1.410 . S
C1124 C1125 1.392 . S
C1124 C1127 1.511 . S
C1125 C1121 1.376 . S
C1125 C1124 1.392 . S
C1125 H1137 0.929 . S
C1126 C1122 1.531 . S
C1126 H1138 0.960 . S
C1126 H1139 0.962 . S
C1126 H1140 0.960 . S
C1127 C1124 1.511 . S
C1127 H1141 0.961 . S
C1127 H1142 0.961 . S
C1127 H1143 0.961 . S
C1128 C1129 1.370 . S
C1128 C1130 1.363 . S
C1128 H1144 0.931 . S
C1129 C1128 1.370 . S
C1129 C1133 1.408 . S
C1130 C1128 1.363 . S
C1130 C1131 1.370 . S
C1130 C1134 1.524 . S
C1131 C1123 1.503 . S
C1131 C1130 1.370 . S
C1131 C1132 1.403 . S
C1132 C1131 1.403 . S
C1132 C1133 1.404 . S
C1132 C1135 1.539 . S
C1133 C1129 1.408 . S
C1133 C1132 1.404 . S
C1133 H1145 0.930 . S
C1134 C1130 1.524 . S
C1134 H1146 0.956 . S
C1134 H1147 0.961 . S
C1134 H1148 0.961 . S
C1135 C1132 1.539 . S
C1135 H1149 0.958 . S
C1135 H1150 0.961 . S
C1135 H1151 0.960 . S
H1136 C1120 0.931 . S
H1137 C1125 0.929 . S
H1138 C1126 0.960 . S
H1139 C1126 0.962 . S
H1140 C1126 0.960 . S
H1141 C1127 0.961 . S
H1142 C1127 0.961 . S
H1143 C1127 0.961 . S
H1144 C1128 0.931 . S
H1145 C1133 0.930 . S
H1146 C1134 0.956 . S
H1147 C1134 0.961 . S
H1148 C1134 0.961 . S
H1149 C1135 0.958 . S
H1150 C1135 0.961 . S
H1151 C1135 0.960 . S
C1152 C1153 1.391 . S
C1152 C1154 1.394 . S
C1152 H1168 0.931 . S
C1153 C1152 1.391 . S
C1153 C1157 1.376 . S
C1154 C1152 1.394 . S
C1154 C1155 1.369 . S
C1154 C1158 1.531 . S
C1155 C1154 1.369 . S
C1155 C1156 1.410 . S
C1155 C1163 1.503 . S
C1156 C1155 1.410 . S
C1156 C1157 1.392 . S
C1156 C1159 1.511 . S
C1157 C1153 1.376 . S
C1157 C1156 1.392 . S
C1157 H1169 0.929 . S
C1158 C1154 1.531 . S
C1158 H1170 0.960 . S
C1158 H1171 0.962 . S
C1158 H1172 0.960 . S
C1159 C1156 1.511 . S
C1159 H1173 0.961 . S
C1159 H1174 0.961 . S
C1159 H1175 0.961 . S
C1160 C1161 1.370 . S
C1160 C1162 1.363 . S
C1160 H1176 0.931 . S
C1161 C1160 1.370 . S
C1161 C1165 1.408 . S
C1162 C1160 1.363 . S
C1162 C1163 1.370 . S
C1162 C1166 1.524 . S
C1163 C1155 1.503 . S
C1163 C1162 1.370 . S
C1163 C1164 1.403 . S
C1164 C1163 1.403 . S
C1164 C1165 1.404 . S
C1164 C1167 1.539 . S
C1165 C1161 1.408 . S
C1165 C1164 1.404 . S
C1165 H1177 0.930 . S
C1166 C1162 1.524 . S
C1166 H1178 0.956 . S
C1166 H1179 0.961 . S
C1166 H1180 0.961 . S
C1167 C1164 1.539 . S
C1167 H1181 0.958 . S
C1167 H1182 0.961 . S
C1167 H1183 0.960 . S
H1168 C1152 0.931 . S
H1169 C1157 0.929 . S
H1170 C1158 0.960 . S
H1171 C1158 0.962 . S
H1172 C1158 0.960 . S
H1173 C1159 0.961 . S
H1174 C1159 0.961 . S
H1175 C1159 0.961 . S
H1176 C1160 0.931 . S
H1177 C1165 0.930 . S
H1178 C1166 0.956 . S
H1179 C1166 0.961 . S
H1180 C1166 0.961 . S
H1181 C1167 0.958 . S
H1182 C1167 0.961 . S
H1183 C1167 0.960 . S
C1184 C1185 1.391 . S
C1184 C1186 1.394 . S
C1184 H1200 0.931 . S
C1185 C1184 1.391 . S
C1185 C1189 1.376 . S
C1186 C1184 1.394 . S
C1186 C1187 1.369 . S
C1186 C1190 1.531 . S
C1187 C1186 1.369 . S
C1187 C1188 1.410 . S
C1187 C1195 1.503 . S
C1188 C1187 1.410 . S
C1188 C1189 1.392 . S
C1188 C1191 1.511 . S
C1189 C1185 1.376 . S
C1189 C1188 1.392 . S
C1189 H1201 0.929 . S
C1190 C1186 1.531 . S
C1190 H1202 0.960 . S
C1190 H1203 0.962 . S
C1190 H1204 0.960 . S
C1191 C1188 1.511 . S
C1191 H1205 0.961 . S
C1191 H1206 0.961 . S
C1191 H1207 0.961 . S
C1192 C1193 1.370 . S
C1192 C1194 1.363 . S
C1192 H1208 0.931 . S
C1193 C1192 1.370 . S
C1193 C1197 1.408 . S
C1194 C1192 1.363 . S
C1194 C1195 1.370 . S
C1194 C1198 1.524 . S
C1195 C1187 1.503 . S
C1195 C1194 1.370 . S
C1195 C1196 1.403 . S
C1196 C1195 1.403 . S
C1196 C1197 1.404 . S
C1196 C1199 1.539 . S
C1197 C1193 1.408 . S
C1197 C1196 1.404 . S
C1197 H1209 0.930 . S
C1198 C1194 1.524 . S
C1198 H1210 0.956 . S
C1198 H1211 0.961 . S
C1198 H1212 0.961 . S
C1199 C1196 1.539 . S
C1199 H1213 0.958 . S
C1199 H1214 0.961 . S
C1199 H1215 0.960 . S
H1200 C1184 0.931 . S
H1201 C1189 0.929 . S
H1202 C1190 0.960 . S
H1203 C1190 0.962 . S
H1204 C1190 0.960 . S
H1205 C1191 0.961 . S
H1206 C1191 0.961 . S
H1207 C1191 0.961 . S
H1208 C1192 0.931 . S
H1209 C1197 0.930 . S
H1210 C1198 0.956 . S
H1211 C1198 0.961 . S
H1212 C1198 0.961 . S
H1213 C1199 0.958 . S
H1214 C1199 0.961 . S
H1215 C1199 0.960 . S
C1216 C1217 1.391 . S
C1216 C1218 1.394 . S
C1216 H1232 0.931 . S
C1217 C1216 1.391 . S
C1217 C1221 1.376 . S
C1218 C1216 1.394 . S
C1218 C1219 1.369 1_554 S
C1218 C1222 1.531 1_554 S
C1219 C1218 1.369 1_556 S
C1219 C1220 1.409 1_556 S
C1219 C1227 1.503 . S
C1220 C1219 1.409 1_554 S
C1220 C1221 1.393 . S
C1220 C1223 1.511 1_654 S
C1221 C1217 1.376 . S
C1221 C1220 1.393 . S
C1221 H1233 0.929 1_655 S
C1222 C1218 1.531 1_556 S
C1222 H1234 0.960 . S
C1222 H1235 0.962 1_556 S
C1222 H1236 0.960 1_556 S
C1223 C1220 1.511 1_456 S
C1223 H1237 0.961 . S
C1223 H1238 0.961 1_455 S
C1223 H1239 0.961 . S
C1224 C1225 1.370 . S
C1224 C1226 1.363 . S
C1224 H1240 0.931 . S
C1225 C1224 1.370 . S
C1225 C1229 1.408 . S
C1226 C1224 1.363 . S
C1226 C1227 1.370 . S
C1226 C1230 1.524 . S
C1227 C1219 1.503 . S
C1227 C1226 1.370 . S
C1227 C1228 1.403 . S
C1228 C1227 1.403 . S
C1228 C1229 1.404 . S
C1228 C1231 1.539 . S
C1229 C1225 1.408 . S
C1229 C1228 1.404 . S
C1229 H1241 0.930 . S
C1230 C1226 1.524 . S
C1230 H1242 0.956 1_556 S
C1230 H1243 0.961 1_556 S
C1230 H1244 0.961 . S
C1231 C1228 1.539 . S
C1231 H1245 0.958 . S
C1231 H1246 0.961 . S
C1231 H1247 0.960 . S
H1232 C1216 0.931 . S
H1233 C1221 0.929 1_455 S
H1234 C1222 0.960 . S
H1235 C1222 0.962 1_554 S
H1236 C1222 0.960 1_554 S
H1237 C1223 0.961 . S
H1238 C1223 0.961 1_655 S
H1239 C1223 0.961 . S
H1240 C1224 0.931 . S
H1241 C1229 0.930 . S
H1242 C1230 0.956 1_554 S
H1243 C1230 0.961 1_554 S
H1244 C1230 0.961 . S
H1245 C1231 0.958 . S
H1246 C1231 0.961 . S
H1247 C1231 0.960 . S
C1248 C1249 1.391 . S
C1248 C1250 1.394 . S
C1248 H1264 0.931 . S
C1249 C1248 1.391 . S
C1249 C1253 1.376 . S
C1250 C1248 1.394 . S
C1250 C1251 1.369 . S
C1250 C1254 1.531 . S
C1251 C1250 1.369 . S
C1251 C1252 1.410 . S
C1251 C1259 1.503 . S
C1252 C1251 1.410 . S
C1252 C1253 1.392 . S
C1252 C1255 1.511 . S
C1253 C1249 1.376 . S
C1253 C1252 1.392 . S
C1253 H1265 0.929 . S
C1254 C1250 1.531 . S
C1254 H1266 0.960 . S
C1254 H1267 0.962 . S
C1254 H1268 0.960 . S
C1255 C1252 1.511 . S
C1255 H1269 0.961 . S
C1255 H1270 0.961 . S
C1255 H1271 0.961 . S
C1256 C1257 1.370 . S
C1256 C1258 1.363 . S
C1256 H1272 0.931 . S
C1257 C1256 1.370 . S
C1257 C1261 1.408 . S
C1258 C1256 1.363 . S
C1258 C1259 1.370 . S
C1258 C1262 1.524 . S
C1259 C1251 1.503 . S
C1259 C1258 1.370 . S
C1259 C1260 1.403 . S
C1260 C1259 1.403 . S
C1260 C1261 1.404 . S
C1260 C1263 1.539 . S
C1261 C1257 1.408 . S
C1261 C1260 1.404 . S
C1261 H1273 0.930 . S
C1262 C1258 1.524 . S
C1262 H1274 0.956 . S
C1262 H1275 0.961 . S
C1262 H1276 0.961 . S
C1263 C1260 1.539 . S
C1263 H1277 0.958 . S
C1263 H1278 0.961 . S
C1263 H1279 0.960 . S
H1264 C1248 0.931 . S
H1265 C1253 0.929 . S
H1266 C1254 0.960 . S
H1267 C1254 0.962 . S
H1268 C1254 0.960 . S
H1269 C1255 0.961 . S
H1270 C1255 0.961 . S
H1271 C1255 0.961 . S
H1272 C1256 0.931 . S
H1273 C1261 0.930 . S
H1274 C1262 0.956 . S
H1275 C1262 0.961 . S
H1276 C1262 0.961 . S
H1277 C1263 0.958 . S
H1278 C1263 0.961 . S
H1279 C1263 0.960 . S
C1280 C1281 1.397 . S
C1280 C1282 1.394 . S
C1280 H1296 0.931 1_554 S
C1281 C1280 1.397 . S
C1281 C1285 1.389 . S
C1282 C1280 1.394 . S
C1282 C1283 1.369 . S
C1282 C1286 1.531 . S
C1283 C1282 1.369 . S
C1283 C1284 1.410 . S
C1283 C1291 1.503 . S
C1284 C1283 1.410 . S
C1284 C1285 1.392 . S
C1284 C1287 1.511 . S
C1285 C1281 1.389 . S
C1285 C1284 1.392 . S
C1285 H1297 0.929 . S
C1286 C1282 1.531 . S
C1286 H1298 0.960 . S
C1286 H1299 0.962 . S
C1286 H1300 0.960 . S
C1287 C1284 1.511 . S
C1287 H1301 0.961 . S
C1287 H1302 0.961 . S
C1287 H1303 0.961 . S
C1288 C1289 1.370 . S
C1288 C1290 1.363 . S
C1288 H1304 0.931 . S
C1289 C1288 1.370 . S
C1289 C1293 1.408 . S
C1290 C1288 1.363 . S
C1290 C1291 1.370 . S
C1290 C1294 1.524 . S
C1291 C1283 1.503 . S
C1291 C1290 1.370 . S
C1291 C1292 1.403 . S
C1292 C1291 1.403 . S
C1292 C1293 1.404 . S
C1292 C1295 1.539 . S
C1293 C1289 1.408 . S
C1293 C1292 1.404 . S
C1293 H1305 0.930 . S
C1294 C1290 1.524 . S
C1294 H1306 0.956 . S
C1294 H1307 0.961 . S
C1294 H1308 0.961 . S
C1295 C1292 1.539 . S
C1295 H1309 0.958 . S
C1295 H1310 0.961 . S
C1295 H1311 0.960 . S
H1296 C1280 0.931 1_556 S
H1297 C1285 0.929 . S
H1298 C1286 0.960 . S
H1299 C1286 0.962 . S
H1300 C1286 0.960 . S
H1301 C1287 0.961 . S
H1302 C1287 0.961 . S
H1303 C1287 0.961 . S
H1304 C1288 0.931 . S
H1305 C1293 0.930 . S
H1306 C1294 0.956 . S
H1307 C1294 0.961 . S
H1308 C1294 0.961 . S
H1309 C1295 0.958 . S
H1310 C1295 0.961 . S
H1311 C1295 0.960 . S
C1312 C1313 1.391 . S
C1312 C1314 1.394 . S
C1312 H1328 0.931 . S
C1313 C1312 1.391 . S
C1313 C1317 1.376 . S
C1314 C1312 1.394 . S
C1314 C1315 1.369 . S
C1314 C1318 1.531 . S
C1315 C1314 1.369 . S
C1315 C1316 1.410 . S
C1315 C1323 1.503 . S
C1316 C1315 1.410 . S
C1316 C1317 1.392 . S
C1316 C1319 1.511 . S
C1317 C1313 1.376 . S
C1317 C1316 1.392 . S
C1317 H1329 0.929 . S
C1318 C1314 1.531 . S
C1318 H1330 0.960 . S
C1318 H1331 0.962 . S
C1318 H1332 0.960 . S
C1319 C1316 1.511 . S
C1319 H1333 0.961 . S
C1319 H1334 0.961 . S
C1319 H1335 0.961 . S
C1320 C1321 1.370 . S
C1320 C1322 1.363 . S
C1320 H1336 0.931 . S
C1321 C1320 1.370 . S
C1321 C1325 1.408 . S
C1322 C1320 1.363 . S
C1322 C1323 1.370 . S
C1322 C1326 1.524 . S
C1323 C1315 1.503 . S
C1323 C1322 1.370 . S
C1323 C1324 1.403 . S
C1324 C1323 1.403 . S
C1324 C1325 1.404 . S
C1324 C1327 1.539 . S
C1325 C1321 1.408 . S
C1325 C1324 1.404 . S
C1325 H1337 0.930 . S
C1326 C1322 1.524 . S
C1326 H1338 0.956 . S
C1326 H1339 0.961 . S
C1326 H1340 0.961 . S
C1327 C1324 1.539 . S
C1327 H1341 0.958 . S
C1327 H1342 0.961 . S
C1327 H1343 0.960 . S
H1328 C1312 0.931 . S
H1329 C1317 0.929 . S
H1330 C1318 0.960 . S
H1331 C1318 0.962 . S
H1332 C1318 0.960 . S
H1333 C1319 0.961 . S
H1334 C1319 0.961 . S
H1335 C1319 0.961 . S
H1336 C1320 0.931 . S
H1337 C1325 0.930 . S
H1338 C1326 0.956 . S
H1339 C1326 0.961 . S
H1340 C1326 0.961 . S
H1341 C1327 0.958 . S
H1342 C1327 0.961 . S
H1343 C1327 0.960 . S
C1344 C1345 1.391 . S
C1344 C1346 1.394 . S
C1344 H1360 0.931 . S
C1345 C1344 1.391 . S
C1345 C1349 1.376 . S
C1346 C1344 1.394 . S
C1346 C1347 1.369 . S
C1346 C1350 1.531 . S
C1347 C1346 1.369 . S
C1347 C1348 1.410 . S
C1347 C1355 1.503 . S
C1348 C1347 1.410 . S
C1348 C1349 1.392 . S
C1348 C1351 1.511 . S
C1349 C1345 1.376 . S
C1349 C1348 1.392 . S
C1349 H1361 0.929 . S
C1350 C1346 1.531 . S
C1350 H1362 0.960 . S
C1350 H1363 0.962 . S
C1350 H1364 0.960 . S
C1351 C1348 1.511 . S
C1351 H1365 0.961 . S
C1351 H1366 0.961 . S
C1351 H1367 0.961 1_655 S
C1352 C1353 1.370 . S
C1352 C1354 1.363 . S
C1352 H1368 0.931 . S
C1353 C1352 1.370 . S
C1353 C1357 1.408 . S
C1354 C1352 1.363 . S
C1354 C1355 1.370 . S
C1354 C1358 1.524 . S
C1355 C1347 1.503 . S
C1355 C1354 1.370 . S
C1355 C1356 1.403 . S
C1356 C1355 1.403 . S
C1356 C1357 1.404 . S
C1356 C1359 1.539 . S
C1357 C1353 1.408 . S
C1357 C1356 1.404 . S
C1357 H1369 0.930 . S
C1358 C1354 1.524 . S
C1358 H1370 0.956 . S
C1358 H1371 0.961 . S
C1358 H1372 0.961 . S
C1359 C1356 1.539 . S
C1359 H1373 0.958 . S
C1359 H1374 0.961 1_655 S
C1359 H1375 0.960 1_655 S
H1360 C1344 0.931 . S
H1361 C1349 0.929 . S
H1362 C1350 0.960 . S
H1363 C1350 0.962 . S
H1364 C1350 0.960 . S
H1365 C1351 0.961 . S
H1366 C1351 0.961 . S
H1367 C1351 0.961 1_455 S
H1368 C1352 0.931 . S
H1369 C1357 0.930 . S
H1370 C1358 0.956 . S
H1371 C1358 0.961 . S
H1372 C1358 0.961 . S
H1373 C1359 0.958 . S
H1374 C1359 0.961 1_455 S
H1375 C1359 0.960 1_455 S
C1376 C1377 1.391 . S
C1376 C1378 1.394 . S
C1376 H1392 0.931 . S
C1377 C1376 1.391 . S
C1377 C1381 1.376 . S
C1378 C1376 1.394 . S
C1378 C1379 1.369 . S
C1378 C1382 1.531 . S
C1379 C1378 1.369 . S
C1379 C1380 1.410 . S
C1379 C1387 1.503 . S
C1380 C1379 1.410 . S
C1380 C1381 1.392 . S
C1380 C1383 1.511 . S
C1381 C1377 1.376 . S
C1381 C1380 1.392 . S
C1381 H1393 0.929 . S
C1382 C1378 1.531 . S
C1382 H1394 0.960 . S
C1382 H1395 0.962 . S
C1382 H1396 0.960 . S
C1383 C1380 1.511 . S
C1383 H1397 0.961 . S
C1383 H1398 0.961 . S
C1383 H1399 0.961 . S
C1384 C1385 1.370 . S
C1384 C1386 1.363 . S
C1384 H1400 0.931 . S
C1385 C1384 1.370 . S
C1385 C1389 1.408 . S
C1386 C1384 1.363 . S
C1386 C1387 1.370 . S
C1386 C1390 1.524 . S
C1387 C1379 1.503 . S
C1387 C1386 1.370 . S
C1387 C1388 1.403 . S
C1388 C1387 1.403 . S
C1388 C1389 1.404 . S
C1388 C1391 1.539 . S
C1389 C1385 1.408 . S
C1389 C1388 1.404 . S
C1389 H1401 0.930 . S
C1390 C1386 1.524 . S
C1390 H1402 0.956 . S
C1390 H1403 0.961 . S
C1390 H1404 0.961 . S
C1391 C1388 1.539 . S
C1391 H1405 0.958 . S
C1391 H1406 0.961 . S
C1391 H1407 0.960 . S
H1392 C1376 0.931 . S
H1393 C1381 0.929 . S
H1394 C1382 0.960 . S
H1395 C1382 0.962 . S
H1396 C1382 0.960 . S
H1397 C1383 0.961 . S
H1398 C1383 0.961 . S
H1399 C1383 0.961 . S
H1400 C1384 0.931 . S
H1401 C1389 0.930 . S
H1402 C1390 0.956 . S
H1403 C1390 0.961 . S
H1404 C1390 0.961 . S
H1405 C1391 0.958 . S
H1406 C1391 0.961 . S
H1407 C1391 0.960 . S
C1408 C1409 1.391 . S
C1408 C1410 1.394 . S
C1408 H1424 0.931 . S
C1409 C1408 1.391 . S
C1409 C1413 1.376 . S
C1410 C1408 1.394 . S
C1410 C1411 1.369 . S
C1410 C1414 1.531 . S
C1411 C1410 1.369 . S
C1411 C1412 1.410 . S
C1411 C1419 1.503 . S
C1412 C1411 1.410 . S
C1412 C1413 1.392 . S
C1412 C1415 1.511 . S
C1413 C1409 1.376 . S
C1413 C1412 1.392 . S
C1413 H1425 0.929 . S
C1414 C1410 1.531 . S
C1414 H1426 0.960 . S
C1414 H1427 0.962 . S
C1414 H1428 0.960 . S
C1415 C1412 1.511 . S
C1415 H1429 0.961 . S
C1415 H1430 0.961 . S
C1415 H1431 0.961 . S
C1416 C1417 1.370 . S
C1416 C1418 1.363 . S
C1416 H1432 0.931 . S
C1417 C1416 1.370 . S
C1417 C1421 1.408 . S
C1418 C1416 1.363 . S
C1418 C1419 1.370 . S
C1418 C1422 1.524 . S
C1419 C1411 1.503 . S
C1419 C1418 1.370 . S
C1419 C1420 1.403 . S
C1420 C1419 1.403 . S
C1420 C1421 1.404 . S
C1420 C1423 1.539 . S
C1421 C1417 1.408 . S
C1421 C1420 1.404 . S
C1421 H1433 0.930 . S
C1422 C1418 1.524 . S
C1422 H1434 0.956 . S
C1422 H1435 0.961 . S
C1422 H1436 0.961 . S
C1423 C1420 1.539 . S
C1423 H1437 0.958 . S
C1423 H1438 0.961 . S
C1423 H1439 0.960 . S
H1424 C1408 0.931 . S
H1425 C1413 0.929 . S
H1426 C1414 0.960 . S
H1427 C1414 0.962 . S
H1428 C1414 0.960 . S
H1429 C1415 0.961 . S
H1430 C1415 0.961 . S
H1431 C1415 0.961 . S
H1432 C1416 0.931 . S
H1433 C1421 0.930 . S
H1434 C1422 0.956 . S
H1435 C1422 0.961 . S
H1436 C1422 0.961 . S
H1437 C1423 0.958 . S
H1438 C1423 0.961 . S
H1439 C1423 0.960 . S
C1440 C1441 1.391 . S
C1440 C1442 1.394 . S
C1440 H1456 0.931 . S
C1441 C1440 1.391 . S
C1441 C1445 1.376 . S
C1442 C1440 1.394 . S
C1442 C1443 1.369 . S
C1442 C1446 1.531 . S
C1443 C1442 1.369 . S
C1443 C1444 1.410 . S
C1443 C1451 1.503 . S
C1444 C1443 1.410 . S
C1444 C1445 1.392 . S
C1444 C1447 1.511 . S
C1445 C1441 1.376 . S
C1445 C1444 1.392 . S
C1445 H1457 0.929 . S
C1446 C1442 1.531 . S
C1446 H1458 0.960 . S
C1446 H1459 0.962 . S
C1446 H1460 0.960 . S
C1447 C1444 1.511 . S
C1447 H1461 0.961 . S
C1447 H1462 0.961 . S
C1447 H1463 0.961 . S
C1448 C1449 1.370 . S
C1448 C1450 1.363 . S
C1448 H1464 0.931 . S
C1449 C1448 1.370 . S
C1449 C1453 1.408 . S
C1450 C1448 1.363 . S
C1450 C1451 1.370 . S
C1450 C1454 1.524 . S
C1451 C1443 1.503 . S
C1451 C1450 1.370 . S
C1451 C1452 1.403 . S
C1452 C1451 1.403 . S
C1452 C1453 1.404 . S
C1452 C1455 1.539 . S
C1453 C1449 1.408 . S
C1453 C1452 1.404 . S
C1453 H1465 0.930 . S
C1454 C1450 1.524 . S
C1454 H1466 0.956 . S
C1454 H1467 0.961 . S
C1454 H1468 0.961 . S
C1455 C1452 1.539 . S
C1455 H1469 0.958 . S
C1455 H1470 0.961 . S
C1455 H1471 0.960 . S
H1456 C1440 0.931 . S
H1457 C1445 0.929 . S
H1458 C1446 0.960 . S
H1459 C1446 0.962 . S
H1460 C1446 0.960 . S
H1461 C1447 0.961 . S
H1462 C1447 0.961 . S
H1463 C1447 0.961 . S
H1464 C1448 0.931 . S
H1465 C1453 0.930 . S
H1466 C1454 0.956 . S
H1467 C1454 0.961 . S
H1468 C1454 0.961 . S
H1469 C1455 0.958 . S
H1470 C1455 0.961 . S
H1471 C1455 0.960 . S
C1472 C1473 1.391 . S
C1472 C1474 1.394 1_655 S
C1472 H1488 0.931 . S
C1473 C1472 1.391 . S
C1473 C1477 1.376 1_655 S
C1474 C1472 1.394 1_455 S
C1474 C1475 1.369 . S
C1474 C1478 1.531 . S
C1475 C1474 1.369 . S
C1475 C1476 1.410 . S
C1475 C1483 1.503 . S
C1476 C1475 1.410 . S
C1476 C1477 1.392 . S
C1476 C1479 1.511 . S
C1477 C1473 1.376 1_455 S
C1477 C1476 1.392 . S
C1477 H1489 0.929 . S
C1478 C1474 1.531 . S
C1478 H1490 0.960 . S
C1478 H1491 0.962 . S
C1478 H1492 0.960 1_455 S
C1479 C1476 1.511 . S
C1479 H1493 0.961 . S
C1479 H1494 0.961 . S
C1479 H1495 0.961 . S
C1480 C1481 1.370 . S
C1480 C1482 1.363 . S
C1480 H1496 0.931 . S
C1481 C1480 1.370 . S
C1481 C1485 1.408 . S
C1482 C1480 1.363 . S
C1482 C1483 1.370 . S
C1482 C1486 1.524 . S
C1483 C1475 1.503 . S
C1483 C1482 1.370 . S
C1483 C1484 1.403 . S
C1484 C1483 1.403 . S
C1484 C1485 1.404 . S
C1484 C1487 1.539 . S
C1485 C1481 1.408 . S
C1485 C1484 1.404 . S
C1485 H1497 0.930 . S
C1486 C1482 1.524 . S
C1486 H1498 0.956 . S
C1486 H1499 0.961 . S
C1486 H1500 0.961 . S
C1487 C1484 1.539 . S
C1487 H1501 0.958 . S
C1487 H1502 0.961 . S
C1487 H1503 0.960 . S
H1488 C1472 0.931 . S
H1489 C1477 0.929 . S
H1490 C1478 0.960 . S
H1491 C1478 0.962 . S
H1492 C1478 0.960 1_655 S
H1493 C1479 0.961 . S
H1494 C1479 0.961 . S
H1495 C1479 0.961 . S
H1496 C1480 0.931 . S
H1497 C1485 0.930 . S
H1498 C1486 0.956 . S
H1499 C1486 0.961 . S
H1500 C1486 0.961 . S
H1501 C1487 0.958 . S
H1502 C1487 0.961 . S
H1503 C1487 0.960 . S
C1504 C1505 1.391 . S
C1504 C1506 1.394 . S
C1504 H1520 0.931 . S
C1505 C1504 1.391 . S
C1505 C1509 1.376 . S
C1506 C1504 1.394 . S
C1506 C1507 1.369 . S
C1506 C1510 1.531 . S
C1507 C1506 1.369 . S
C1507 C1508 1.410 . S
C1507 C1515 1.503 . S
C1508 C1507 1.410 . S
C1508 C1509 1.392 . S
C1508 C1511 1.511 . S
C1509 C1505 1.376 . S
C1509 C1508 1.392 . S
C1509 H1521 0.929 . S
C1510 C1506 1.531 . S
C1510 H1522 0.960 . S
C1510 H1523 0.962 . S
C1510 H1524 0.960 . S
C1511 C1508 1.511 . S
C1511 H1525 0.961 . S
C1511 H1526 0.961 . S
C1511 H1527 0.961 . S
C1512 C1513 1.370 . S
C1512 C1514 1.363 . S
C1512 H1528 0.931 . S
C1513 C1512 1.370 . S
C1513 C1517 1.408 . S
C1514 C1512 1.363 . S
C1514 C1515 1.370 . S
C1514 C1518 1.524 . S
C1515 C1507 1.503 . S
C1515 C1514 1.370 . S
C1515 C1516 1.403 . S
C1516 C1515 1.403 . S
C1516 C1517 1.404 . S
C1516 C1519 1.539 . S
C1517 C1513 1.408 . S
C1517 C1516 1.404 . S
C1517 H1529 0.930 . S
C1518 C1514 1.524 . S
C1518 H1530 0.956 . S
C1518 H1531 0.961 . S
C1518 H1532 0.961 . S
C1519 C1516 1.539 . S
C1519 H1533 0.958 . S
C1519 H1534 0.961 . S
C1519 H1535 0.960 . S
H1520 C1504 0.931 . S
H1521 C1509 0.929 . S
H1522 C1510 0.960 . S
H1523 C1510 0.962 . S
H1524 C1510 0.960 . S
H1525 C1511 0.961 . S
H1526 C1511 0.961 . S
H1527 C1511 0.961 . S
H1528 C1512 0.931 . S
H1529 C1517 0.930 . S
H1530 C1518 0.956 . S
H1531 C1518 0.961 . S
H1532 C1518 0.961 . S
H1533 C1519 0.958 . S
H1534 C1519 0.961 . S
H1535 C1519 0.960 . S
C1536 C1537 1.391 . S
C1536 C1538 1.394 . S
C1536 H1552 0.931 . S
C1537 C1536 1.391 . S
C1537 C1541 1.376 . S
C1538 C1536 1.394 . S
C1538 C1539 1.369 . S
C1538 C1542 1.531 . S
C1539 C1538 1.369 . S
C1539 C1540 1.410 . S
C1539 C1547 1.503 . S
C1540 C1539 1.410 . S
C1540 C1541 1.392 . S
C1540 C1543 1.511 . S
C1541 C1537 1.376 . S
C1541 C1540 1.392 . S
C1541 H1553 0.929 . S
C1542 C1538 1.531 . S
C1542 H1554 0.960 . S
C1542 H1555 0.962 . S
C1542 H1556 0.960 . S
C1543 C1540 1.511 . S
C1543 H1557 0.961 . S
C1543 H1558 0.961 . S
C1543 H1559 0.961 . S
C1544 C1545 1.370 . S
C1544 C1546 1.363 . S
C1544 H1560 0.931 . S
C1545 C1544 1.370 . S
C1545 C1549 1.408 . S
C1546 C1544 1.363 . S
C1546 C1547 1.370 . S
C1546 C1550 1.524 . S
C1547 C1539 1.503 . S
C1547 C1546 1.370 . S
C1547 C1548 1.403 . S
C1548 C1547 1.403 . S
C1548 C1549 1.404 . S
C1548 C1551 1.539 . S
C1549 C1545 1.408 . S
C1549 C1548 1.404 . S
C1549 H1561 0.930 . S
C1550 C1546 1.524 . S
C1550 H1562 0.956 . S
C1550 H1563 0.961 . S
C1550 H1564 0.961 . S
C1551 C1548 1.539 . S
C1551 H1565 0.958 . S
C1551 H1566 0.961 . S
C1551 H1567 0.960 . S
H1552 C1536 0.931 . S
H1553 C1541 0.929 . S
H1554 C1542 0.960 . S
H1555 C1542 0.962 . S
H1556 C1542 0.960 . S
H1557 C1543 0.961 . S
H1558 C1543 0.961 . S
H1559 C1543 0.961 . S
H1560 C1544 0.931 . S
H1561 C1549 0.930 . S
H1562 C1550 0.956 . S
H1563 C1550 0.961 . S
H1564 C1550 0.961 . S
H1565 C1551 0.958 . S
H1566 C1551 0.961 . S
H1567 C1551 0.960 . S
C1568 C1569 1.391 . S
C1568 C1570 1.394 . S
C1568 H1584 0.931 . S
C1569 C1568 1.391 . S
C1569 C1573 1.376 . S
C1570 C1568 1.394 . S
C1570 C1571 1.369 . S
C1570 C1574 1.531 . S
C1571 C1570 1.369 . S
C1571 C1572 1.410 . S
C1571 C1579 1.503 . S
C1572 C1571 1.410 . S
C1572 C1573 1.392 . S
C1572 C1575 1.511 . S
C1573 C1569 1.376 . S
C1573 C1572 1.392 . S
C1573 H1585 0.929 . S
C1574 C1570 1.531 . S
C1574 H1586 0.960 . S
C1574 H1587 0.962 . S
C1574 H1588 0.960 . S
C1575 C1572 1.511 . S
C1575 H1589 0.961 . S
C1575 H1590 0.961 . S
C1575 H1591 0.961 . S
C1576 C1577 1.370 . S
C1576 C1578 1.363 . S
C1576 H1592 0.931 . S
C1577 C1576 1.370 . S
C1577 C1581 1.408 . S
C1578 C1576 1.363 . S
C1578 C1579 1.370 . S
C1578 C1582 1.524 . S
C1579 C1571 1.503 . S
C1579 C1578 1.370 . S
C1579 C1580 1.403 . S
C1580 C1579 1.403 . S
C1580 C1581 1.404 . S
C1580 C1583 1.539 . S
C1581 C1577 1.408 . S
C1581 C1580 1.404 . S
C1581 H1593 0.930 . S
C1582 C1578 1.524 . S
C1582 H1594 0.956 . S
C1582 H1595 0.961 . S
C1582 H1596 0.961 . S
C1583 C1580 1.539 . S
C1583 H1597 0.958 . S
C1583 H1598 0.961 . S
C1583 H1599 0.960 . S
H1584 C1568 0.931 . S
H1585 C1573 0.929 . S
H1586 C1574 0.960 . S
H1587 C1574 0.962 . S
H1588 C1574 0.960 . S
H1589 C1575 0.961 . S
H1590 C1575 0.961 . S
H1591 C1575 0.961 . S
H1592 C1576 0.931 . S
H1593 C1581 0.930 . S
H1594 C1582 0.956 . S
H1595 C1582 0.961 . S
H1596 C1582 0.961 . S
H1597 C1583 0.958 . S
H1598 C1583 0.961 . S
H1599 C1583 0.960 . S
C1600 C1601 1.391 1_455 S
C1600 C1602 1.394 . S
C1600 H1616 0.931 . S
C1601 C1600 1.391 1_655 S
C1601 C1605 1.376 . S
C1602 C1600 1.394 . S
C1602 C1603 1.369 . S
C1602 C1606 1.531 . S
C1603 C1602 1.369 . S
C1603 C1604 1.410 . S
C1603 C1611 1.503 . S
C1604 C1603 1.410 . S
C1604 C1605 1.392 1_455 S
C1604 C1607 1.511 . S
C1605 C1601 1.376 . S
C1605 C1604 1.392 1_655 S
C1605 H1617 0.929 . S
C1606 C1602 1.531 . S
C1606 H1618 0.960 . S
C1606 H1619 0.962 . S
C1606 H1620 0.960 . S
C1607 C1604 1.511 . S
C1607 H1621 0.961 . S
C1607 H1622 0.961 . S
C1607 H1623 0.961 . S
C1608 C1609 1.370 . S
C1608 C1610 1.363 . S
C1608 H1624 0.931 . S
C1609 C1608 1.370 . S
C1609 C1613 1.408 . S
C1610 C1608 1.363 . S
C1610 C1611 1.370 . S
C1610 C1614 1.524 . S
C1611 C1603 1.503 . S
C1611 C1610 1.370 . S
C1611 C1612 1.403 . S
C1612 C1611 1.403 . S
C1612 C1613 1.404 . S
C1612 C1615 1.539 . S
C1613 C1609 1.408 . S
C1613 C1612 1.404 . S
C1613 H1625 0.930 . S
C1614 C1610 1.524 . S
C1614 H1626 0.956 . S
C1614 H1627 0.961 . S
C1614 H1628 0.961 . S
C1615 C1612 1.539 . S
C1615 H1629 0.958 . S
C1615 H1630 0.961 . S
C1615 H1631 0.960 . S
H1616 C1600 0.931 . S
H1617 C1605 0.929 . S
H1618 C1606 0.960 . S
H1619 C1606 0.962 . S
H1620 C1606 0.960 . S
H1621 C1607 0.961 . S
H1622 C1607 0.961 . S
H1623 C1607 0.961 . S
H1624 C1608 0.931 . S
H1625 C1613 0.930 . S
H1626 C1614 0.956 . S
H1627 C1614 0.961 . S
H1628 C1614 0.961 . S
H1629 C1615 0.958 . S
H1630 C1615 0.961 . S
H1631 C1615 0.960 . S
C1632 C1633 1.391 . S
C1632 C1634 1.394 . S
C1632 H1648 0.931 . S
C1633 C1632 1.391 . S
C1633 C1637 1.376 . S
C1634 C1632 1.394 . S
C1634 C1635 1.369 . S
C1634 C1638 1.531 . S
C1635 C1634 1.369 . S
C1635 C1636 1.410 . S
C1635 C1643 1.503 . S
C1636 C1635 1.410 . S
C1636 C1637 1.392 . S
C1636 C1639 1.511 . S
C1637 C1633 1.376 . S
C1637 C1636 1.392 . S
C1637 H1649 0.929 . S
C1638 C1634 1.531 . S
C1638 H1650 0.960 . S
C1638 H1651 0.962 . S
C1638 H1652 0.960 . S
C1639 C1636 1.511 . S
C1639 H1653 0.961 . S
C1639 H1654 0.961 . S
C1639 H1655 0.961 . S
C1640 C1641 1.370 . S
C1640 C1642 1.363 . S
C1640 H1656 0.931 . S
C1641 C1640 1.370 . S
C1641 C1645 1.408 . S
C1642 C1640 1.363 . S
C1642 C1643 1.370 . S
C1642 C1646 1.524 . S
C1643 C1635 1.503 . S
C1643 C1642 1.370 . S
C1643 C1644 1.403 . S
C1644 C1643 1.403 . S
C1644 C1645 1.404 . S
C1644 C1647 1.539 . S
C1645 C1641 1.408 . S
C1645 C1644 1.404 . S
C1645 H1657 0.930 . S
C1646 C1642 1.524 . S
C1646 H1658 0.956 . S
C1646 H1659 0.961 . S
C1646 H1660 0.961 . S
C1647 C1644 1.539 . S
C1647 H1661 0.958 . S
C1647 H1662 0.961 . S
C1647 H1663 0.960 . S
H1648 C1632 0.931 . S
H1649 C1637 0.929 . S
H1650 C1638 0.960 . S
H1651 C1638 0.962 . S
H1652 C1638 0.960 . S
H1653 C1639 0.961 . S
H1654 C1639 0.961 . S
H1655 C1639 0.961 . S
H1656 C1640 0.931 . S
H1657 C1645 0.930 . S
H1658 C1646 0.956 . S
H1659 C1646 0.961 . S
H1660 C1646 0.961 . S
H1661 C1647 0.958 . S
H1662 C1647 0.961 . S
H1663 C1647 0.960 . S
C1664 C1665 1.391 . S
C1664 C1666 1.394 . S
C1664 H1680 0.931 . S
C1665 C1664 1.391 . S
C1665 C1669 1.376 . S
C1666 C1664 1.394 . S
C1666 C1667 1.369 . S
C1666 C1670 1.531 . S
C1667 C1666 1.369 . S
C1667 C1668 1.410 . S
C1667 C1675 1.503 . S
C1668 C1667 1.410 . S
C1668 C1669 1.392 . S
C1668 C1671 1.511 . S
C1669 C1665 1.376 . S
C1669 C1668 1.392 . S
C1669 H1681 0.929 . S
C1670 C1666 1.531 . S
C1670 H1682 0.960 . S
C1670 H1683 0.962 . S
C1670 H1684 0.960 . S
C1671 C1668 1.511 . S
C1671 H1685 0.961 . S
C1671 H1686 0.961 . S
C1671 H1687 0.961 . S
C1672 C1673 1.370 . S
C1672 C1674 1.363 . S
C1672 H1688 0.931 . S
C1673 C1672 1.370 . S
C1673 C1677 1.408 . S
C1674 C1672 1.363 . S
C1674 C1675 1.370 . S
C1674 C1678 1.524 . S
C1675 C1667 1.503 . S
C1675 C1674 1.370 . S
C1675 C1676 1.403 . S
C1676 C1675 1.403 . S
C1676 C1677 1.404 . S
C1676 C1679 1.539 . S
C1677 C1673 1.408 . S
C1677 C1676 1.404 . S
C1677 H1689 0.941 . S
C1678 C1674 1.524 . S
C1678 H1690 0.956 . S
C1678 H1691 0.961 . S
C1678 H1692 0.961 . S
C1679 C1676 1.539 . S
C1679 H1693 0.961 . S
C1679 H1694 0.961 1_655 S
C1679 H1695 0.960 . S
H1680 C1664 0.931 . S
H1681 C1669 0.929 . S
H1682 C1670 0.960 . S
H1683 C1670 0.962 . S
H1684 C1670 0.960 . S
H1685 C1671 0.961 . S
H1686 C1671 0.961 . S
H1687 C1671 0.961 . S
H1688 C1672 0.931 . S
H1689 C1677 0.941 . S
H1690 C1678 0.956 . S
H1691 C1678 0.961 . S
H1692 C1678 0.961 . S
H1693 C1679 0.961 . S
H1694 C1679 0.961 1_455 S
H1695 C1679 0.960 . S
C1696 C1697 1.391 . S
C1696 C1698 1.394 1_565 S
C1696 H1712 0.931 . S
C1697 C1696 1.391 . S
C1697 C1701 1.376 1_565 S
C1698 C1696 1.394 1_545 S
C1698 C1699 1.369 . S
C1698 C1702 1.531 . S
C1699 C1698 1.369 . S
C1699 C1700 1.410 . S
C1699 C1707 1.503 . S
C1700 C1699 1.410 . S
C1700 C1701 1.392 . S
C1700 C1703 1.511 . S
C1701 C1697 1.376 1_545 S
C1701 C1700 1.392 . S
C1701 H1713 0.929 . S
C1702 C1698 1.531 . S
C1702 H1714 0.960 . S
C1702 H1715 0.962 . S
C1702 H1716 0.960 1_545 S
C1703 C1700 1.511 . S
C1703 H1717 0.961 . S
C1703 H1718 0.961 . S
C1703 H1719 0.961 . S
C1704 C1705 1.370 . S
C1704 C1706 1.363 . S
C1704 H1720 0.931 . S
C1705 C1704 1.370 . S
C1705 C1709 1.408 . S
C1706 C1704 1.363 . S
C1706 C1707 1.370 . S
C1706 C1710 1.524 . S
C1707 C1699 1.503 . S
C1707 C1706 1.370 . S
C1707 C1708 1.403 . S
C1708 C1707 1.403 . S
C1708 C1709 1.404 . S
C1708 C1711 1.539 . S
C1709 C1705 1.408 . S
C1709 C1708 1.404 . S
C1709 H1721 0.930 . S
C1710 C1706 1.524 . S
C1710 H1722 0.956 . S
C1710 H1723 0.961 . S
C1710 H1724 0.961 . S
C1711 C1708 1.539 . S
C1711 H1725 0.958 . S
C1711 H1726 0.961 . S
C1711 H1727 0.960 . S
H1712 C1696 0.931 . S
H1713 C1701 0.929 . S
H1714 C1702 0.960 . S
H1715 C1702 0.962 . S
H1716 C1702 0.960 1_565 S
H1717 C1703 0.961 . S
H1718 C1703 0.961 . S
H1719 C1703 0.961 . S
H1720 C1704 0.931 . S
H1721 C1709 0.930 . S
H1722 C1710 0.956 . S
H1723 C1710 0.961 . S
H1724 C1710 0.961 . S
H1725 C1711 0.958 . S
H1726 C1711 0.961 . S
H1727 C1711 0.960 . S
C1728 C1729 1.391 . S
C1728 C1730 1.394 . S
C1728 H1744 0.931 . S
C1729 C1728 1.391 . S
C1729 C1733 1.376 . S
C1730 C1728 1.394 . S
C1730 C1731 1.369 . S
C1730 C1734 1.531 . S
C1731 C1730 1.369 . S
C1731 C1732 1.410 . S
C1731 C1739 1.503 . S
C1732 C1731 1.410 . S
C1732 C1733 1.392 . S
C1732 C1735 1.511 . S
C1733 C1729 1.376 . S
C1733 C1732 1.392 . S
C1733 H1745 0.929 . S
C1734 C1730 1.531 . S
C1734 H1746 0.960 . S
C1734 H1747 0.962 . S
C1734 H1748 0.960 . S
C1735 C1732 1.511 . S
C1735 H1749 0.961 . S
C1735 H1750 0.961 . S
C1735 H1751 0.961 . S
C1736 C1737 1.370 . S
C1736 C1738 1.363 . S
C1736 H1752 0.931 . S
C1737 C1736 1.370 . S
C1737 C1741 1.408 . S
C1738 C1736 1.363 . S
C1738 C1739 1.370 . S
C1738 C1742 1.524 . S
C1739 C1731 1.503 . S
C1739 C1738 1.370 . S
C1739 C1740 1.403 . S
C1740 C1739 1.403 . S
C1740 C1741 1.404 . S
C1740 C1743 1.539 . S
C1741 C1737 1.408 . S
C1741 C1740 1.404 . S
C1741 H1753 0.930 . S
C1742 C1738 1.524 . S
C1742 H1754 0.956 . S
C1742 H1755 0.961 . S
C1742 H1756 0.961 . S
C1743 C1740 1.539 . S
C1743 H1757 0.958 . S
C1743 H1758 0.961 . S
C1743 H1759 0.960 . S
H1744 C1728 0.931 . S
H1745 C1733 0.929 . S
H1746 C1734 0.960 . S
H1747 C1734 0.962 . S
H1748 C1734 0.960 . S
H1749 C1735 0.961 . S
H1750 C1735 0.961 . S
H1751 C1735 0.961 . S
H1752 C1736 0.931 . S
H1753 C1741 0.930 . S
H1754 C1742 0.956 . S
H1755 C1742 0.961 . S
H1756 C1742 0.961 . S
H1757 C1743 0.958 . S
H1758 C1743 0.961 . S
H1759 C1743 0.960 . S
C1760 C1761 1.391 . S
C1760 C1762 1.394 1_545 S
C1760 H1776 0.931 1_556 S
C1761 C1760 1.391 . S
C1761 C1765 1.376 . S
C1762 C1760 1.394 1_565 S
C1762 C1763 1.369 . S
C1762 C1766 1.531 . S
C1763 C1762 1.369 . S
C1763 C1764 1.410 1_565 S
C1763 C1771 1.503 . S
C1764 C1763 1.410 1_545 S
C1764 C1765 1.392 . S
C1764 C1767 1.511 . S
C1765 C1761 1.376 . S
C1765 C1764 1.392 . S
C1765 H1777 0.929 . S
C1766 C1762 1.531 . S
C1766 H1778 0.960 . S
C1766 H1779 0.962 . S
C1766 H1780 0.960 1_556 S
C1767 C1764 1.511 . S
C1767 H1781 0.961 . S
C1767 H1782 0.961 1_545 S
C1767 H1783 0.961 . S
C1768 C1769 1.370 . S
C1768 C1770 1.363 . S
C1768 H1784 0.931 . S
C1769 C1768 1.370 . S
C1769 C1773 1.408 . S
C1770 C1768 1.363 . S
C1770 C1771 1.370 . S
C1770 C1774 1.524 . S
C1771 C1763 1.503 . S
C1771 C1770 1.370 . S
C1771 C1772 1.403 . S
C1772 C1771 1.403 . S
C1772 C1773 1.404 . S
C1772 C1775 1.539 . S
C1773 C1769 1.408 . S
C1773 C1772 1.404 . S
C1773 H1785 0.930 . S
C1774 C1770 1.524 . S
C1774 H1786 0.956 . S
C1774 H1787 0.961 . S
C1774 H1788 0.961 . S
C1775 C1772 1.539 . S
C1775 H1789 0.958 1_556 S
C1775 H1790 0.961 . S
C1775 H1791 0.960 . S
H1776 C1760 0.931 1_554 S
H1777 C1765 0.929 . S
H1778 C1766 0.960 . S
H1779 C1766 0.962 . S
H1780 C1766 0.960 1_554 S
H1781 C1767 0.961 . S
H1782 C1767 0.961 1_565 S
H1783 C1767 0.961 . S
H1784 C1768 0.931 . S
H1785 C1773 0.930 . S
H1786 C1774 0.956 . S
H1787 C1774 0.961 . S
H1788 C1774 0.961 . S
H1789 C1775 0.958 1_554 S
H1790 C1775 0.961 . S
H1791 C1775 0.960 . S
C1792 C1793 1.391 . S
C1792 C1794 1.394 . S
C1792 H1808 0.931 . S
C1793 C1792 1.391 . S
C1793 C1797 1.376 . S
C1794 C1792 1.394 . S
C1794 C1795 1.369 . S
C1794 C1798 1.531 . S
C1795 C1794 1.369 . S
C1795 C1796 1.410 . S
C1795 C1803 1.503 . S
C1796 C1795 1.410 . S
C1796 C1797 1.392 . S
C1796 C1799 1.511 . S
C1797 C1793 1.376 . S
C1797 C1796 1.392 . S
C1797 H1809 0.929 . S
C1798 C1794 1.531 . S
C1798 H1810 0.960 . S
C1798 H1811 0.962 . S
C1798 H1812 0.960 . S
C1799 C1796 1.511 . S
C1799 H1813 0.961 . S
C1799 H1814 0.961 . S
C1799 H1815 0.961 . S
C1800 C1801 1.370 . S
C1800 C1802 1.363 . S
C1800 H1816 0.931 . S
C1801 C1800 1.370 . S
C1801 C1805 1.408 . S
C1802 C1800 1.363 . S
C1802 C1803 1.370 . S
C1802 C1806 1.524 . S
C1803 C1795 1.503 . S
C1803 C1802 1.370 . S
C1803 C1804 1.403 . S
C1804 C1803 1.403 . S
C1804 C1805 1.404 . S
C1804 C1807 1.539 . S
C1805 C1801 1.408 . S
C1805 C1804 1.404 . S
C1805 H1817 0.930 . S
C1806 C1802 1.524 . S
C1806 H1818 0.956 . S
C1806 H1819 0.961 . S
C1806 H1820 0.961 . S
C1807 C1804 1.539 . S
C1807 H1821 0.958 . S
C1807 H1822 0.961 . S
C1807 H1823 0.960 . S
H1808 C1792 0.931 . S
H1809 C1797 0.929 . S
H1810 C1798 0.960 . S
H1811 C1798 0.962 . S
H1812 C1798 0.960 . S
H1813 C1799 0.961 . S
H1814 C1799 0.961 . S
H1815 C1799 0.961 . S
H1816 C1800 0.931 . S
H1817 C1805 0.930 . S
H1818 C1806 0.956 . S
H1819 C1806 0.961 . S
H1820 C1806 0.961 . S
H1821 C1807 0.958 . S
H1822 C1807 0.961 . S
H1823 C1807 0.960 . S
C1824 C1825 1.391 . S
C1824 C1826 1.394 . S
C1824 H1840 0.931 . S
C1825 C1824 1.391 . S
C1825 C1829 1.376 . S
C1826 C1824 1.394 . S
C1826 C1827 1.369 . S
C1826 C1830 1.531 . S
C1827 C1826 1.369 . S
C1827 C1828 1.410 . S
C1827 C1835 1.503 . S
C1828 C1827 1.410 . S
C1828 C1829 1.392 . S
C1828 C1831 1.511 . S
C1829 C1825 1.376 . S
C1829 C1828 1.392 . S
C1829 H1841 0.929 . S
C1830 C1826 1.531 . S
C1830 H1842 0.960 . S
C1830 H1843 0.962 . S
C1830 H1844 0.960 . S
C1831 C1828 1.511 . S
C1831 H1845 0.961 . S
C1831 H1846 0.961 . S
C1831 H1847 0.961 . S
C1832 C1833 1.370 . S
C1832 C1834 1.363 . S
C1832 H1848 0.931 . S
C1833 C1832 1.370 . S
C1833 C1837 1.408 . S
C1834 C1832 1.363 . S
C1834 C1835 1.370 . S
C1834 C1838 1.524 . S
C1835 C1827 1.503 . S
C1835 C1834 1.370 . S
C1835 C1836 1.403 . S
C1836 C1835 1.403 . S
C1836 C1837 1.404 . S
C1836 C1839 1.539 . S
C1837 C1833 1.408 . S
C1837 C1836 1.404 . S
C1837 H1849 0.930 . S
C1838 C1834 1.524 . S
C1838 H1850 0.956 . S
C1838 H1851 0.961 . S
C1838 H1852 0.961 . S
C1839 C1836 1.539 . S
C1839 H1853 0.958 . S
C1839 H1854 0.961 . S
C1839 H1855 0.960 . S
H1840 C1824 0.931 . S
H1841 C1829 0.929 . S
H1842 C1830 0.960 . S
H1843 C1830 0.962 . S
H1844 C1830 0.960 . S
H1845 C1831 0.961 . S
H1846 C1831 0.961 . S
H1847 C1831 0.961 . S
H1848 C1832 0.931 . S
H1849 C1837 0.930 . S
H1850 C1838 0.956 . S
H1851 C1838 0.961 . S
H1852 C1838 0.961 . S
H1853 C1839 0.958 . S
H1854 C1839 0.961 . S
H1855 C1839 0.960 . S
C1856 C1857 1.391 . S
C1856 C1858 1.394 . S
C1856 H1872 0.931 . S
C1857 C1856 1.391 . S
C1857 C1861 1.376 . S
C1858 C1856 1.394 . S
C1858 C1859 1.369 . S
C1858 C1862 1.531 . S
C1859 C1858 1.369 . S
C1859 C1860 1.410 . S
C1859 C1867 1.503 . S
C1860 C1859 1.410 . S
C1860 C1861 1.392 . S
C1860 C1863 1.511 . S
C1861 C1857 1.376 . S
C1861 C1860 1.392 . S
C1861 H1873 0.929 1_565 S
C1862 C1858 1.531 . S
C1862 H1874 0.960 . S
C1862 H1875 0.962 . S
C1862 H1876 0.960 . S
C1863 C1860 1.511 . S
C1863 H1877 0.961 1_565 S
C1863 H1878 0.961 . S
C1863 H1879 0.961 . S
C1864 C1865 1.370 . S
C1864 C1866 1.363 . S
C1864 H1880 0.931 . S
C1865 C1864 1.370 . S
C1865 C1869 1.408 . S
C1866 C1864 1.363 . S
C1866 C1867 1.370 . S
C1866 C1870 1.524 . S
C1867 C1859 1.503 . S
C1867 C1866 1.370 . S
C1867 C1868 1.403 . S
C1868 C1867 1.403 . S
C1868 C1869 1.404 . S
C1868 C1871 1.539 . S
C1869 C1865 1.408 . S
C1869 C1868 1.404 . S
C1869 H1881 0.930 . S
C1870 C1866 1.524 . S
C1870 H1882 0.956 . S
C1870 H1883 0.961 . S
C1870 H1884 0.961 . S
C1871 C1868 1.539 . S
C1871 H1885 0.958 . S
C1871 H1886 0.961 . S
C1871 H1887 0.960 . S
H1872 C1856 0.931 . S
H1873 C1861 0.929 1_545 S
H1874 C1862 0.960 . S
H1875 C1862 0.962 . S
H1876 C1862 0.960 . S
H1877 C1863 0.961 1_545 S
H1878 C1863 0.961 . S
H1879 C1863 0.961 . S
H1880 C1864 0.931 . S
H1881 C1869 0.930 . S
H1882 C1870 0.956 . S
H1883 C1870 0.961 . S
H1884 C1870 0.961 . S
H1885 C1871 0.958 . S
H1886 C1871 0.961 . S
H1887 C1871 0.960 . S
C1888 C1889 1.391 . S
C1888 C1890 1.394 . S
C1888 H1904 0.931 . S
C1889 C1888 1.391 . S
C1889 C1893 1.376 . S
C1890 C1888 1.394 . S
C1890 C1891 1.369 . S
C1890 C1894 1.531 . S
C1891 C1890 1.369 . S
C1891 C1892 1.410 . S
C1891 C1899 1.503 . S
C1892 C1891 1.410 . S
C1892 C1893 1.392 . S
C1892 C1895 1.511 . S
C1893 C1889 1.376 . S
C1893 C1892 1.392 . S
C1893 H1905 0.929 . S
C1894 C1890 1.531 . S
C1894 H1906 0.960 . S
C1894 H1907 0.962 . S
C1894 H1908 0.960 . S
C1895 C1892 1.511 . S
C1895 H1909 0.961 . S
C1895 H1910 0.961 . S
C1895 H1911 0.961 . S
C1896 C1897 1.370 . S
C1896 C1898 1.363 . S
C1896 H1912 0.931 . S
C1897 C1896 1.370 . S
C1897 C1901 1.408 . S
C1898 C1896 1.363 . S
C1898 C1899 1.370 . S
C1898 C1902 1.524 . S
C1899 C1891 1.503 . S
C1899 C1898 1.370 . S
C1899 C1900 1.403 . S
C1900 C1899 1.403 . S
C1900 C1901 1.404 . S
C1900 C1903 1.539 . S
C1901 C1897 1.408 . S
C1901 C1900 1.404 . S
C1901 H1913 0.930 . S
C1902 C1898 1.524 . S
C1902 H1914 0.956 . S
C1902 H1915 0.961 . S
C1902 H1916 0.961 . S
C1903 C1900 1.539 . S
C1903 H1917 0.958 . S
C1903 H1918 0.961 . S
C1903 H1919 0.960 . S
H1904 C1888 0.931 . S
H1905 C1893 0.929 . S
H1906 C1894 0.960 . S
H1907 C1894 0.962 . S
H1908 C1894 0.960 . S
H1909 C1895 0.961 . S
H1910 C1895 0.961 . S
H1911 C1895 0.961 . S
H1912 C1896 0.931 . S
H1913 C1901 0.930 . S
H1914 C1902 0.956 . S
H1915 C1902 0.961 . S
H1916 C1902 0.961 . S
H1917 C1903 0.958 . S
H1918 C1903 0.961 . S
H1919 C1903 0.960 . S
C393 C373 1.247 . S
C385 C8 1.317 . S
C417 C23 1.142 . S
C425 C326 1.046 . S
C449 C35 1.320 . S
C457 C337 1.253 . S
C489 C362 1.005 . S
C481 C45 1.132 . S
C513 C22 1.303 . S
C521 C380 1.265 . S
C553 C319 0.994 . S
C545 C31 1.083 . S
C585 C344 1.254 . S
C577 C49 1.341 . S
C617 C355 1.027 . S
C609 C9 1.096 . S
C641 C65 1.307 . S
C649 C356 1.272 . S
C681 C382 1.060 . S
C673 C73 1.191 . S
C713 C320 1.337 . S
C705 C93 1.303 1_565 S
C745 C346 0.998 . S
C737 C101 1.107 . S
C769 C59 1.290 . S
C777 C328 1.211 . S
C801 C79 1.104 . S
C809 C338 1.074 . S
C833 C87 1.302 . S
C841 C364 1.224 . S
C873 C374 1.176 . S
C865 C107 1.211 . S
C905 C211 1.326 . S
C897 C106 1.400 . S
C937 C194 1.230 . S
C929 C119 1.295 . S
C969 C220 1.115 . S
C961 C134 1.221 . S
C1001 C238 1.223 . S
C993 C147 1.282 . S
C1025 C64 1.185 . S
C1033 C212 1.048 . S
C1057 C78 1.347 . S
C1065 C182 1.285 . S
C1089 C133 1.204 . S
C1097 C236 1.044 . S
C1121 C161 1.201 . S
C1129 C193 0.987 . S
C1161 C247 1.270 . S
C1153 C36 1.305 . S
C1193 C272 1.101 . S
C1185 C51 1.176 . S
C1217 C7 1.332 . S
C1225 C283 1.274 . S
C1249 C17 1.188 . S
C1257 C308 1.037 . S
C1289 C254 1.229 . S
C1281 C50 1.309 1_554 S
C1321 C265 1.028 . S
C1313 C3 1.146 . S
C1345 C21 1.345 . S
C1353 C290 1.260 . S
C1385 C301 1.072 . S
C1377 C37 1.169 . S
C1409 C163 1.252 . S
C1417 C302 1.271 . S
C1441 C115 1.168 . S
C1449 C256 1.073 . S
C1481 C266 1.316 . S
C1473 C135 1.263 . S
C1505 C143 1.156 . S
C1513 C292 0.967 . S
C1545 C274 1.227 . S
C1537 C157 1.258 . S
C1569 C121 1.109 . S
C1577 C284 1.079 . S
C1609 C310 1.217 . S
C1601 C129 1.303 . S
C1641 C248 1.166 . S
C1633 C149 1.259 . S
C1673 C175 1.340 . S
C1665 C148 1.407 . S
C1705 C230 1.225 . S
C1697 C77 1.297 . S
C1729 C92 1.182 . S
C1737 C184 1.079 . S
C1769 C202 1.213 . S
C1761 C105 1.278 . S
C1801 C176 1.071 . S
C1793 C162 1.139 . S
C1825 C120 1.324 . S
C1833 C218 1.267 . S
C1857 C91 1.233 . S
C1865 C200 0.976 . S
C1889 C63 1.202 . S
C1897 C229 0.986 . S
