# Generated by pormake.
# Topology ctn, (3,4)-cn, num edge types: 1
# Building blocks:
#     Node 0, Type 0, BuildingBlock: BETDIP_clean_linker_0, # of connection points: 3
#     Node 1, Type 0, BuildingBlock: BETDIP_clean_linker_0, # of connection points: 3
#     Node 2, Type 0, BuildingBlock: BETDIP_clean_linker_0, # of connection points: 3
#     Node 3, Type 0, BuildingBlock: BETDIP_clean_linker_0, # of connection points: 3
#     Node 4, Type 0, BuildingBlock: BETDIP_clean_linker_0, # of connection points: 3
#     Node 5, Type 0, BuildingBlock: BETDIP_clean_linker_0, # of connection points: 3
#     Node 6, Type 0, BuildingBlock: BETDIP_clean_linker_0, # of connection points: 3
#     Node 7, Type 0, BuildingBlock: BETDIP_clean_linker_0, # of connection points: 3
#     Node 8, Type 0, BuildingBlock: BETDIP_clean_linker_0, # of connection points: 3
#     Node 9, Type 0, BuildingBlock: BETDIP_clean_linker_0, # of connection points: 3
#     Node 10, Type 0, BuildingBlock: BETDIP_clean_linker_0, # of connection points: 3
#     Node 11, Type 0, BuildingBlock: BETDIP_clean_linker_0, # of connection points: 3
#     Node 12, Type 0, BuildingBlock: BETDIP_clean_linker_0, # of connection points: 3
#     Node 13, Type 0, BuildingBlock: BETDIP_clean_linker_0, # of connection points: 3
#     Node 14, Type 0, BuildingBlock: BETDIP_clean_linker_0, # of connection points: 3
#     Node 15, Type 0, BuildingBlock: BETDIP_clean_linker_0, # of connection points: 3
#     Node 16, Type 1, BuildingBlock: NAHDIM_clean_sbu_0, # of connection points: 4
#     Node 17, Type 1, BuildingBlock: NAHDIM_clean_sbu_0, # of connection points: 4
#     Node 18, Type 1, BuildingBlock: NAHDIM_clean_sbu_0, # of connection points: 4
#     Node 19, Type 1, BuildingBlock: NAHDIM_clean_sbu_0, # of connection points: 4
#     Node 20, Type 1, BuildingBlock: NAHDIM_clean_sbu_0, # of connection points: 4
#     Node 21, Type 1, BuildingBlock: NAHDIM_clean_sbu_0, # of connection points: 4
#     Node 22, Type 1, BuildingBlock: NAHDIM_clean_sbu_0, # of connection points: 4
#     Node 23, Type 1, BuildingBlock: NAHDIM_clean_sbu_0, # of connection points: 4
#     Node 24, Type 1, BuildingBlock: NAHDIM_clean_sbu_0, # of connection points: 4
#     Node 25, Type 1, BuildingBlock: NAHDIM_clean_sbu_0, # of connection points: 4
#     Node 26, Type 1, BuildingBlock: NAHDIM_clean_sbu_0, # of connection points: 4
#     Node 27, Type 1, BuildingBlock: NAHDIM_clean_sbu_0, # of connection points: 4
#     Edge 28, Type (0, 1), BuildingBlock: XUDNAN_clean_linker_2, # of connection points: 2
#     Edge 29, Type (0, 1), BuildingBlock: XUDNAN_clean_linker_2, # of connection points: 2
#     Edge 30, Type (0, 1), BuildingBlock: XUDNAN_clean_linker_2, # of connection points: 2
#     Edge 31, Type (0, 1), BuildingBlock: XUDNAN_clean_linker_2, # of connection points: 2
#     Edge 32, Type (0, 1), BuildingBlock: XUDNAN_clean_linker_2, # of connection points: 2
#     Edge 33, Type (0, 1), BuildingBlock: XUDNAN_clean_linker_2, # of connection points: 2
#     Edge 34, Type (0, 1), BuildingBlock: XUDNAN_clean_linker_2, # of connection points: 2
#     Edge 35, Type (0, 1), BuildingBlock: XUDNAN_clean_linker_2, # of connection points: 2
#     Edge 36, Type (0, 1), BuildingBlock: XUDNAN_clean_linker_2, # of connection points: 2
#     Edge 37, Type (0, 1), BuildingBlock: XUDNAN_clean_linker_2, # of connection points: 2
#     Edge 38, Type (0, 1), BuildingBlock: XUDNAN_clean_linker_2, # of connection points: 2
#     Edge 39, Type (0, 1), BuildingBlock: XUDNAN_clean_linker_2, # of connection points: 2
#     Edge 40, Type (0, 1), BuildingBlock: XUDNAN_clean_linker_2, # of connection points: 2
#     Edge 41, Type (0, 1), BuildingBlock: XUDNAN_clean_linker_2, # of connection points: 2
#     Edge 42, Type (0, 1), BuildingBlock: XUDNAN_clean_linker_2, # of connection points: 2
#     Edge 43, Type (0, 1), BuildingBlock: XUDNAN_clean_linker_2, # of connection points: 2
#     Edge 44, Type (0, 1), BuildingBlock: XUDNAN_clean_linker_2, # of connection points: 2
#     Edge 45, Type (0, 1), BuildingBlock: XUDNAN_clean_linker_2, # of connection points: 2
#     Edge 46, Type (0, 1), BuildingBlock: XUDNAN_clean_linker_2, # of connection points: 2
#     Edge 47, Type (0, 1), BuildingBlock: XUDNAN_clean_linker_2, # of connection points: 2
#     Edge 48, Type (0, 1), BuildingBlock: XUDNAN_clean_linker_2, # of connection points: 2
#     Edge 49, Type (0, 1), BuildingBlock: XUDNAN_clean_linker_2, # of connection points: 2
#     Edge 50, Type (0, 1), BuildingBlock: XUDNAN_clean_linker_2, # of connection points: 2
#     Edge 51, Type (0, 1), BuildingBlock: XUDNAN_clean_linker_2, # of connection points: 2
#     Edge 52, Type (0, 1), BuildingBlock: XUDNAN_clean_linker_2, # of connection points: 2
#     Edge 53, Type (0, 1), BuildingBlock: XUDNAN_clean_linker_2, # of connection points: 2
#     Edge 54, Type (0, 1), BuildingBlock: XUDNAN_clean_linker_2, # of connection points: 2
#     Edge 55, Type (0, 1), BuildingBlock: XUDNAN_clean_linker_2, # of connection points: 2
#     Edge 56, Type (0, 1), BuildingBlock: XUDNAN_clean_linker_2, # of connection points: 2
#     Edge 57, Type (0, 1), BuildingBlock: XUDNAN_clean_linker_2, # of connection points: 2
#     Edge 58, Type (0, 1), BuildingBlock: XUDNAN_clean_linker_2, # of connection points: 2
#     Edge 59, Type (0, 1), BuildingBlock: XUDNAN_clean_linker_2, # of connection points: 2
#     Edge 60, Type (0, 1), BuildingBlock: XUDNAN_clean_linker_2, # of connection points: 2
#     Edge 61, Type (0, 1), BuildingBlock: XUDNAN_clean_linker_2, # of connection points: 2
#     Edge 62, Type (0, 1), BuildingBlock: XUDNAN_clean_linker_2, # of connection points: 2
#     Edge 63, Type (0, 1), BuildingBlock: XUDNAN_clean_linker_2, # of connection points: 2
#     Edge 64, Type (0, 1), BuildingBlock: XUDNAN_clean_linker_2, # of connection points: 2
#     Edge 65, Type (0, 1), BuildingBlock: XUDNAN_clean_linker_2, # of connection points: 2
#     Edge 66, Type (0, 1), BuildingBlock: XUDNAN_clean_linker_2, # of connection points: 2
#     Edge 67, Type (0, 1), BuildingBlock: XUDNAN_clean_linker_2, # of connection points: 2
#     Edge 68, Type (0, 1), BuildingBlock: XUDNAN_clean_linker_2, # of connection points: 2
#     Edge 69, Type (0, 1), BuildingBlock: XUDNAN_clean_linker_2, # of connection points: 2
#     Edge 70, Type (0, 1), BuildingBlock: XUDNAN_clean_linker_2, # of connection points: 2
#     Edge 71, Type (0, 1), BuildingBlock: XUDNAN_clean_linker_2, # of connection points: 2
#     Edge 72, Type (0, 1), BuildingBlock: XUDNAN_clean_linker_2, # of connection points: 2
#     Edge 73, Type (0, 1), BuildingBlock: XUDNAN_clean_linker_2, # of connection points: 2
#     Edge 74, Type (0, 1), BuildingBlock: XUDNAN_clean_linker_2, # of connection points: 2
#     Edge 75, Type (0, 1), BuildingBlock: XUDNAN_clean_linker_2, # of connection points: 2
# Relax obj value: 0.070
# Max RMSD: 0.190
# Mean RMSD: 0.117
data_MOF--net-ctn--node1-NAHDIM_clean_sbu_0--node2-BETDIP_clean_linker_0--edge1-XUDNAN_clean_linker_2
_symmetry_space_group_name_H-M    P1
_symmetry_Int_Tables_number       1
_symmetry_cell_setting            triclinic
loop_
_symmetry_equiv_pos_as_xyz
'x, y, z'
_cell_length_a     52.044425
_cell_length_b     52.672241
_cell_length_c     57.298639
_cell_angle_alpha  94.843226
_cell_angle_beta   93.949632
_cell_angle_gamma 95.248938
loop_
_atom_site_label
_atom_site_type_symbol
_atom_site_fract_x
_atom_site_fract_y
_atom_site_fract_z
_atom_type_partial_charge
H0 H 0.02861 0.07087 0.06321 0.0
H1 H 0.09642 0.04915 0.03044 0.0
H2 H 0.06219 0.00257 0.08021 0.0
H3 H 0.10126 0.08941 0.02297 0.0
C4 C 0.0819 0.09507 0.01975 0.0
C5 C 0.04351 0.05795 0.06109 0.0
C6 C 0.04335 0.03618 0.07365 0.0
C7 C 0.06254 0.0629 0.0454 0.0
C8 C 0.08173 0.04581 0.04255 0.0
C9 C 0.08208 0.02419 0.05535 0.0
C10 C 0.06255 0.01945 0.07059 0.0
N11 N 0.06127 0.08456 0.03215 0.0
H12 H 0.27817 0.7003 0.20127 0.0
H13 H 0.35568 0.73663 0.21717 0.0
H14 H 0.32756 0.67562 0.25658 0.0
H15 H 0.33826 0.77019 0.20383 0.0
C16 C 0.32476 0.76226 0.18918 0.0
C17 C 0.29665 0.70184 0.2115 0.0
C18 C 0.30057 0.68561 0.2294 0.0
C19 C 0.31604 0.72092 0.20743 0.0
C20 C 0.34005 0.72287 0.22076 0.0
C21 C 0.34438 0.70653 0.23846 0.0
C22 C 0.32449 0.68806 0.24271 0.0
N23 N 0.3109 0.73779 0.18988 0.0
H24 H 0.956 0.51462 0.00992 0.0
H25 H 0.99994 0.47152 0.05584 0.0
H26 H 0.97368 0.54275 0.08245 0.0
H27 H 0.98618 0.43852 0.02974 0.0
C28 C 0.98466 0.44642 0.01286 0.0
C29 C 0.96476 0.51229 0.02724 0.0
C30 C 0.96341 0.53115 0.04577 0.0
C31 C 0.97717 0.49034 0.03081 0.0
C32 C 0.98902 0.48767 0.05316 0.0
C33 C 0.98786 0.5064 0.072 0.0
C34 C 0.97485 0.52816 0.06816 0.0
N35 N 0.97821 0.47192 0.01135 0.0
H36 H 0.72766 0.7817 0.18989 0.0
H37 H 0.75294 0.85097 0.23407 0.0
H38 H 0.76854 0.84517 0.16129 0.0
H39 H 0.74864 0.82442 0.26326 0.0
C40 C 0.73101 0.81246 0.25696 0.0
C41 C 0.73771 0.80081 0.19225 0.0
C42 C 0.7481 0.81174 0.17304 0.0
C43 C 0.73945 0.81465 0.21438 0.0
C44 C 0.75211 0.83967 0.21732 0.0
C45 C 0.76259 0.85082 0.19821 0.0
C46 C 0.76039 0.83675 0.17611 0.0
N47 N 0.72658 0.80364 0.23276 0.0
H48 H 0.03883 0.9491 0.43774 0.0
H49 H 0.09287 0.98915 0.49121 0.0
H50 H 0.0767 0.02315 0.42695 0.0
H51 H 0.10076 0.94865 0.49745 0.0
C52 C 0.08124 0.93918 0.49666 0.0
C53 C 0.05226 0.96568 0.44375 0.0
C54 C 0.05602 0.98602 0.42948 0.0
C55 C 0.06592 0.96634 0.46573 0.0
C56 C 0.08271 0.98811 0.47398 0.0
C57 C 0.08666 0.0087 0.46017 0.0
C58 C 0.07343 0.00746 0.43781 0.0
N59 N 0.06229 0.94506 0.47935 0.0
H60 H 0.21885 0.75265 0.82787 0.0
H61 H 0.23442 0.69147 0.77804 0.0
H62 H 0.28715 0.71311 0.83873 0.0
H63 H 0.19 0.68554 0.7748 0.0
C64 C 0.1856 0.70521 0.77378 0.0
C65 C 0.23092 0.73779 0.82261 0.0
C66 C 0.25397 0.73493 0.83608 0.0
C67 C 0.22332 0.72172 0.80208 0.0
C68 C 0.23953 0.70328 0.79438 0.0
C69 C 0.26264 0.7002 0.80748 0.0
C70 C 0.26943 0.7157 0.82852 0.0
N71 N 0.19984 0.7251 0.78898 0.0
H72 H 1.00085 0.5817 0.47923 0.0
H73 H 0.96329 0.50872 0.45007 0.0
H74 H 0.93742 0.54536 0.5127 0.0
H75 H 0.00886 0.50428 0.44918 0.0
C76 C 0.01257 0.52038 0.43877 0.0
C77 C 0.9856 0.56631 0.47949 0.0
C78 C 0.96906 0.5663 0.49794 0.0
C79 C 0.98396 0.5453 0.46249 0.0
C80 C 0.96483 0.52481 0.46334 0.0
C81 C 0.94805 0.52462 0.48146 0.0
C82 C 0.95 0.54564 0.4984 0.0
N83 N 1.00273 0.54398 0.44562 0.0
H84 H 0.77115 0.82033 0.76487 0.0
H85 H 0.81462 0.77738 0.81155 0.0
H86 H 0.74471 0.80642 0.83269 0.0
H87 H 0.83807 0.76965 0.78231 0.0
C88 C 0.83504 0.78269 0.76895 0.0
C89 C 0.77352 0.81219 0.78154 0.0
C90 C 0.75508 0.81505 0.79815 0.0
C91 C 0.79498 0.79857 0.78595 0.0
C92 C 0.79802 0.78754 0.80742 0.0
C93 C 0.77988 0.79029 0.82429 0.0
C94 C 0.75857 0.80413 0.81957 0.0
N95 N 0.81323 0.79713 0.76857 0.0
H96 H 0.3035 0.33317 0.26579 0.0
H97 H 0.33486 0.27855 0.30842 0.0
H98 H 0.27149 0.31879 0.33139 0.0
H99 H 0.33323 0.25803 0.26888 0.0
C100 C 0.34401 0.27381 0.26164 0.0
C101 C 0.30359 0.32353 0.28177 0.0
C102 C 0.28526 0.3282 0.29814 0.0
C103 C 0.321 0.30518 0.2851 0.0
C104 C 0.3211 0.29244 0.30566 0.0
C105 C 0.30344 0.29732 0.32257 0.0
C106 C 0.28527 0.31495 0.3185 0.0
N107 N 0.33775 0.29919 0.26729 0.0
H108 H 0.45503 0.99902 0.4992 0.0
H109 H 0.50603 0.97426 0.55259 0.0
H110 H 0.46225 0.03872 0.5682 0.0
H111 H 0.49876 0.93525 0.5285 0.0
C112 C 0.49799 0.94212 0.51115 0.0
C113 C 0.46314 1.00108 0.51728 0.0
C114 C 0.45687 0.02116 0.53282 0.0
C115 C 0.48007 0.98371 0.52447 0.0
C116 C 0.49151 0.98664 0.54761 0.0
C117 C 0.4855 0.00664 0.56375 0.0
C118 C 0.46743 0.02334 0.55621 0.0
N119 N 0.48672 0.96507 0.50714 0.0
H120 H 0.20901 0.28179 0.68834 0.0
H121 H 0.24187 0.35333 0.72487 0.0
H122 H 0.26652 0.3292 0.65721 0.0
H123 H 0.22739 0.33674 0.75635 0.0
C124 C 0.21037 0.32372 0.75048 0.0
C125 C 0.22236 0.29895 0.68918 0.0
C126 C 0.23767 0.30333 0.67041 0.0
C127 C 0.22418 0.3164 0.70919 0.0
C128 C 0.24117 0.33896 0.71015 0.0
C129 C 0.25646 0.34376 0.69139 0.0
C130 C 0.25484 0.32564 0.67176 0.0
N131 N 0.20775 0.31109 0.7274 0.0
H132 H 0.7885 0.17166 0.69084 0.0
H133 H 0.84627 0.23142 0.72038 0.0
H134 H 0.81842 0.17288 0.76289 0.0
H135 H 0.82692 0.25379 0.6919 0.0
C136 C 0.82001 0.2397 0.67737 0.0
C137 C 0.80107 0.18046 0.70577 0.0
C138 C 0.80139 0.16939 0.72721 0.0
C139 C 0.81658 0.20306 0.70327 0.0
C140 C 0.83366 0.21431 0.72222 0.0
C141 C 0.83442 0.2033 0.74376 0.0
C142 C 0.81809 0.18106 0.74615 0.0
N143 N 0.81434 0.21357 0.68129 0.0
H144 H 0.53732 0.57384 0.57241 0.0
H145 H 0.58845 0.5392 0.52635 0.0
H146 H 0.57813 0.51142 0.59407 0.0
H147 H 0.58802 0.57804 0.50978 0.0
C148 C 0.56855 0.58328 0.51188 0.0
C149 C 0.55105 0.5599 0.56914 0.0
C150 C 0.55654 0.54293 0.58594 0.0
C151 C 0.56269 0.55902 0.54788 0.0
C152 C 0.58003 0.54061 0.54311 0.0
C153 C 0.58547 0.52305 0.5596 0.0
C154 C 0.57366 0.52444 0.58102 0.0
N155 N 0.55513 0.57613 0.53143 0.0
H156 H 0.51849 0.46646 0.9509 0.0
H157 H 0.58785 0.49605 0.99302 0.0
H158 H 0.57455 0.51805 0.92269 0.0
H159 H 0.57899 0.45836 0.01063 0.0
C160 C 0.55802 0.45557 0.01004 0.0
C161 C 0.53679 0.47834 0.95283 0.0
C162 C 0.5449 0.4918 0.93416 0.0
C163 C 0.55215 0.47956 0.97392 0.0
C164 C 0.5759 0.49496 0.97668 0.0
C165 C 0.58421 0.50905 0.95825 0.0
C166 C 0.56843 0.50742 0.93706 0.0
N167 N 0.54272 0.46508 0.99187 0.0
H168 H 0.73355 0.25987 0.32168 0.0
H169 H 0.76 0.20332 0.27286 0.0
H170 H 0.80497 0.22747 0.33797 0.0
H171 H 0.74244 0.22927 0.24718 0.0
C172 C 0.72436 0.23309 0.25458 0.0
C173 C 0.74742 0.24642 0.31729 0.0
C174 C 0.76942 0.2451 0.3326 0.0
C175 C 0.7443 0.23209 0.29541 0.0
C176 C 0.76262 0.21511 0.28942 0.0
C177 C 0.78439 0.2131 0.3048 0.0
C178 C 0.78775 0.22824 0.32637 0.0
N179 N 0.72327 0.23601 0.27937 0.0
H180 H 0.51399 0.08907 0.97665 0.0
H181 H 0.46245 0.02599 0.94292 0.0
H182 H 0.45053 0.05723 0.01259 0.0
H183 H 0.49494 0.01967 0.9206 0.0
C184 C 0.5062 0.03793 0.91989 0.0
C185 C 0.49721 0.07532 0.97698 0.0
C186 C 0.48321 0.07508 0.99703 0.0
C187 C 0.49036 0.05736 0.95758 0.0
C188 C 0.46846 0.03958 0.95793 0.0
C189 C 0.45408 0.0393 0.97783 0.0
C190 C 0.46174 0.05701 0.99732 0.0
N191 N 0.50591 0.05796 0.93813 0.0
C192 C 0.21839 0.91457 0.01271 0.0
O193 O 0.22586 0.91917 0.9919 0.0
O194 O 0.25752 0.85752 0.98861 0.0
Zn195 Zn 0.26324 0.88488 0.01582 0.0
O196 O 0.28808 0.91277 0.00549 0.0
C197 C 0.27112 0.84852 0.05057 0.0
O198 O 0.2517 0.83484 0.03818 0.0
O199 O 0.23074 0.89997 0.02496 0.0
C200 C 0.3094 0.92109 0.01694 0.0
O201 O 0.31537 0.91227 0.03718 0.0
C202 C 0.27873 0.85004 0.98224 0.0
O203 O 0.30037 0.85951 0.99431 0.0
O204 O 0.27924 0.87018 0.04419 0.0
C205 C 0.18018 0.46742 0.25957 0.0
O206 O 0.19527 0.48874 0.25912 0.0
O207 O 0.116 0.49992 0.28469 0.0
Zn208 Zn 0.13611 0.49931 0.25591 0.0
O209 O 0.16037 0.5317 0.25707 0.0
C210 C 0.10158 0.51297 0.21718 0.0
O211 O 0.10891 0.53672 0.22555 0.0
O212 O 0.15574 0.46795 0.2576 0.0
C213 C 0.17138 0.53946 0.23947 0.0
O214 O 0.16703 0.52594 0.21901 0.0
C215 C 0.10582 0.51844 0.29491 0.0
O216 O 0.10762 0.54087 0.28639 0.0
O217 O 0.11087 0.49471 0.22706 0.0
C218 C 0.84113 0.65477 0.0063 0.0
O219 O 0.84416 0.67587 0.99568 0.0
O220 O 0.79268 0.68928 0.97842 0.0
Zn221 Zn 0.7866 0.66426 0.00293 0.0
O222 O 0.75738 0.63764 0.9903 0.0
C223 C 0.76067 0.70146 0.02812 0.0
O224 O 0.7511 0.70322 0.00656 0.0
O225 O 0.81856 0.64649 0.01111 0.0
C226 C 0.73931 0.62959 1.00247 0.0
O227 O 0.7393 0.63875 0.02452 0.0
C228 C 0.79273 0.68338 0.95644 0.0
O229 O 0.79018 0.65912 0.94835 0.0
O230 O 0.77655 0.68496 0.03166 0.0
C231 C 0.89669 0.07565 0.27638 0.0
O232 O 0.8934 0.05911 0.29211 0.0
O233 O 0.94711 0.02842 0.2814 0.0
Zn234 Zn 0.92372 0.0358 0.2535 0.0
O235 O 0.89328 0.00867 0.24822 0.0
C236 C 0.94165 0.01506 0.20996 0.0
O237 O 0.9285 0.99434 0.21573 0.0
O238 O 0.90965 0.07005 0.25896 0.0
C239 C 0.87562 0.01131 0.23239 0.0
O240 O 0.87746 0.03187 0.2209 0.0
C241 C 0.95319 0.00565 0.28227 0.0
O242 O 0.94426 0.9883 0.26511 0.0
O243 O 0.94309 0.03545 0.22378 0.0
C244 C 0.32757 0.13694 0.48745 0.0
O245 O 0.32239 0.14457 0.46654 0.0
O246 O 0.2917 0.18553 0.46992 0.0
Zn247 Zn 0.28301 0.16336 0.49608 0.0
O248 O 0.25057 0.13915 0.48723 0.0
C249 C 0.25431 0.19533 0.52481 0.0
O250 O 0.2375 0.18949 0.50654 0.0
O251 O 0.31311 0.14264 0.50373 0.0
C252 C 0.2401 0.12958 0.50433 0.0
O253 O 0.25149 0.13488 0.52559 0.0
C254 C 0.27549 0.19266 0.45478 0.0
O255 O 0.25076 0.18525 0.45536 0.0
O256 O 0.27633 0.18668 0.52454 0.0
C257 C 0.38112 0.56784 0.77779 0.0
O258 O 0.38335 0.55423 0.79588 0.0
O259 O 0.43282 0.52478 0.78519 0.0
Zn260 Zn 0.41331 0.53162 0.75504 0.0
O261 O 0.38855 0.5009 0.74286 0.0
C262 C 0.44836 0.52258 0.71812 0.0
O263 O 0.44108 0.49828 0.7197 0.0
O264 O 0.39252 0.56184 0.75949 0.0
C265 C 0.37672 0.50027 0.72264 0.0
O266 O 0.38115 0.51963 0.70996 0.0
C267 C 0.43803 0.50197 0.78752 0.0
O268 O 0.43011 0.48399 0.7706 0.0
O269 O 0.43903 0.53952 0.73129 0.0
C270 C 0.72615 0.4169 0.52286 0.0
O271 O 0.74474 0.43051 0.51378 0.0
O272 O 0.75817 0.35708 0.48858 0.0
Zn273 Zn 0.76161 0.37696 0.52077 0.0
O274 O 0.79284 0.40272 0.52122 0.0
C275 C 0.76462 0.32881 0.54122 0.0
O276 O 0.75455 0.31954 0.52024 0.0
O277 O 0.72921 0.39398 0.52703 0.0
C278 C 0.81395 0.39307 0.51785 0.0
O279 O 0.81394 0.36803 0.51626 0.0
C280 C 0.76717 0.3675 0.47124 0.0
O281 O 0.7762 0.39176 0.47393 0.0
O282 O 0.76885 0.35294 0.54576 0.0
C283 C 0.62963 0.93704 0.75953 0.0
O284 O 0.6073 0.9403 0.76815 0.0
O285 O 0.60839 0.99879 0.77449 0.0
Zn286 Zn 0.62655 0.98883 0.74524 0.0
O287 O 0.65838 0.0138 0.74374 0.0
C288 C 0.58784 0.00771 0.7156 0.0
O289 O 0.5898 0.02491 0.73378 0.0
O290 O 0.6403 0.95446 0.74834 0.0
C291 C 0.66063 0.03208 0.73063 0.0
O292 O 0.64105 0.03595 0.71611 0.0
C293 C 0.6132 0.02089 0.78556 0.0
O294 O 0.63028 0.03749 0.77789 0.0
O295 O 0.60171 0.98905 0.71611 0.0
C296 C 0.02966 0.22271 0.91426 0.0
O297 O 0.00773 0.2311 0.91999 0.0
O298 O 0.99856 0.25077 0.85744 0.0
Zn299 Zn 0.0304 0.26159 0.87982 0.0
O300 O 0.02257 0.29124 0.90198 0.0
C301 C 0.06486 0.26825 0.84132 0.0
O302 O 0.04833 0.2514 0.82856 0.0
O303 O 0.04152 0.23254 0.898 0.0
C304 C 0.01715 0.3113 0.89256 0.0
O305 O 0.01696 0.3113 0.86961 0.0
C306 C 0.97655 0.25201 0.86563 0.0
O307 O 0.9756 0.25911 0.88806 0.0
O308 O 0.06069 0.27471 0.8625 0.0
C309 C 0.52854 0.71788 0.4102 0.0
O310 O 0.5066 0.7276 0.40546 0.0
O311 O 0.516 0.74244 0.35508 0.0
Zn312 Zn 0.54456 0.75531 0.38029 0.0
O313 O 0.53529 0.78642 0.39999 0.0
C314 C 0.58178 0.76086 0.34448 0.0
O315 O 0.56253 0.75017 0.32983 0.0
O316 O 0.54874 0.72695 0.40132 0.0
C317 C 0.53993 0.8086 0.39313 0.0
O318 O 0.55016 0.81082 0.37298 0.0
C319 C 0.49977 0.756 0.34582 0.0
O320 O 0.50122 0.78062 0.35234 0.0
O321 O 0.57839 0.76442 0.36623 0.0
C322 C 0.01704 0.80625 0.59499 0.0
O323 O 0.99361 0.79643 0.58714 0.0
O324 O 0.98197 0.77814 0.6467 0.0
Zn325 Zn 0.01231 0.76792 0.6287 0.0
O326 O 1.00057 0.73757 0.60514 0.0
C327 C 0.05492 0.76806 0.66642 0.0
O328 O 0.05419 0.79292 0.67023 0.0
O329 O 0.02829 0.79728 0.61245 0.0
C330 C 0.99536 0.71676 0.61436 0.0
O331 O 0.99655 0.71729 0.63736 0.0
C332 C 0.9782 0.77014 0.66666 0.0
O333 O 0.99465 0.75564 0.67595 0.0
O334 O 0.03961 0.75541 0.65046 0.0
C335 C 0.50642 0.31539 0.10475 0.0
O336 O 0.48346 0.30534 0.10929 0.0
O337 O 0.49528 0.27446 0.15202 0.0
Zn338 Zn 0.52454 0.27413 0.13018 0.0
O339 O 0.51961 0.24189 0.10789 0.0
C340 C 0.56329 0.26933 0.16937 0.0
O341 O 0.54367 0.26633 0.18245 0.0
O342 O 0.52638 0.30522 0.11191 0.0
C343 C 0.52148 0.22084 0.11695 0.0
O344 O 0.52624 0.22131 0.13981 0.0
C345 C 0.47437 0.26023 0.14607 0.0
O346 O 0.47189 0.24642 0.12573 0.0
O347 O 0.55916 0.2734 0.14795 0.0
H348 H 0.22382 0.75497 0.86969 0.0
H349 H 0.30338 0.7551 0.85102 0.0
H350 H 0.31794 0.78302 0.88694 0.0
H351 H 0.22946 0.82176 0.89191 0.0
H352 H 0.20843 0.81662 0.91513 0.0
H353 H 0.20412 0.79569 0.88833 0.0
H354 H 0.2083 0.75651 0.9123 0.0
H355 H 0.21276 0.77733 0.93917 0.0
H356 H 0.23659 0.75569 0.93213 0.0
H357 H 0.32425 0.81034 0.92466 0.0
H358 H 0.32178 0.83791 0.96111 0.0
H359 H 0.23801 0.82263 0.95478 0.0
C360 C 0.24429 0.761 0.87302 0.0
C361 C 0.26245 0.75241 0.85758 0.0
C362 C 0.28909 0.76074 0.86279 0.0
C363 C 0.29758 0.77679 0.8831 0.0
C364 C 0.27922 0.78466 0.89796 0.0
C365 C 0.25312 0.77731 0.89313 0.0
C366 C 0.23745 0.78919 0.91181 0.0
C367 C 0.21876 0.80687 0.90116 0.0
C368 C 0.22292 0.76844 0.92461 0.0
C369 C 0.25889 0.80435 0.92787 0.0
C370 C 0.28281 0.80124 0.91956 0.0
C371 C 0.30563 0.81301 0.93133 0.0
C372 C 0.304 0.8286 0.95208 0.0
C373 C 0.2797 0.83249 0.96081 0.0
C374 C 0.25685 0.82009 0.94853 0.0
H375 H 0.02659 0.55484 0.40652 0.0
H376 H 0.03223 0.47693 0.42422 0.0
H377 H 0.05651 0.4682 0.38946 0.0
H378 H 0.01782 0.53986 0.34374 0.0
H379 H 0.0371 0.56811 0.33699 0.0
H380 H 0.02034 0.56865 0.36348 0.0
H381 H 0.06354 0.58319 0.3882 0.0
H382 H 0.08042 0.58274 0.36177 0.0
H383 H 0.09059 0.56438 0.3853 0.0
H384 H 0.07937 0.46738 0.35313 0.0
H385 H 0.10068 0.47459 0.31697 0.0
H386 H 0.08098 0.5532 0.32199 0.0
C387 C 0.03305 0.53602 0.40308 0.0
C388 C 0.02762 0.5165 0.41804 0.0
C389 C 0.03628 0.4921 0.41296 0.0
C390 C 0.05005 0.48696 0.39327 0.0
C391 C 0.05503 0.50646 0.37881 0.0
C392 C 0.04692 0.53052 0.38339 0.0
C393 C 0.05495 0.5479 0.36477 0.0
C394 C 0.03113 0.55664 0.35146 0.0
C395 C 0.07348 0.57091 0.37567 0.0
C396 C 0.06876 0.52977 0.34909 0.0
C397 C 0.06848 0.50599 0.35759 0.0
C398 C 0.07979 0.48592 0.34627 0.0
C399 C 0.09184 0.49025 0.3257 0.0
C400 C 0.09257 0.51448 0.31658 0.0
C401 C 0.08079 0.53448 0.32849 0.0
H402 H 0.7887 0.74088 0.83146 0.0
H403 H 0.77839 0.81416 0.8683 0.0
H404 H 0.78306 0.79527 0.90628 0.0
H405 H 0.75189 0.70296 0.86822 0.0
H406 H 0.77232 0.6771 0.86706 0.0
H407 H 0.76996 0.69679 0.84295 0.0
H408 H 0.81977 0.7073 0.84672 0.0
H409 H 0.82229 0.68764 0.87088 0.0
H410 H 0.83577 0.72062 0.87456 0.0
H411 H 0.78802 0.7683 0.94006 0.0
H412 H 0.79032 0.73466 0.96733 0.0
H413 H 0.79599 0.67831 0.9085 0.0
C414 C 0.78776 0.75297 0.84757 0.0
C415 C 0.78332 0.779 0.84704 0.0
C416 C 0.7817 0.79416 0.8684 0.0
C417 C 0.78446 0.78364 0.89001 0.0
C418 C 0.78867 0.75787 0.88995 0.0
C419 C 0.79017 0.74268 0.8693 0.0
C420 C 0.79343 0.71523 0.87407 0.0
C421 C 0.77053 0.69695 0.86238 0.0
C422 C 0.81936 0.70724 0.86608 0.0
C423 C 0.79333 0.71732 0.90061 0.0
C424 C 0.79087 0.74215 0.90942 0.0
C425 C 0.79001 0.7488 0.93338 0.0
C426 C 0.79137 0.72952 0.94874 0.0
C427 C 0.79333 0.70379 0.9401 0.0
C428 C 0.79454 0.69776 0.91569 0.0
H429 H 0.03253 0.02407 0.40848 0.0
H430 H 0.04807 0.94459 0.39676 0.0
H431 H 0.02402 0.94137 0.35785 0.0
H432 H 0.96825 0.01635 0.38095 0.0
H433 H 0.97104 0.04642 0.36804 0.0
H434 H 0.98996 0.04279 0.39485 0.0
H435 H 0.03196 0.05659 0.37554 0.0
H436 H 0.01316 0.06033 0.34866 0.0
H437 H 0.03893 0.03968 0.34837 0.0
H438 H 0.99778 0.94633 0.32071 0.0
H439 H 0.971 0.95914 0.28739 0.0
H440 H 0.97269 0.0357 0.32257 0.0
C441 C 0.03111 0.00607 0.39762 0.0
C442 C 0.04211 0.98453 0.40575 0.0
C443 C 0.03951 0.96124 0.39109 0.0
C444 C 0.02601 0.95926 0.36889 0.0
C445 C 0.01526 0.98076 0.36151 0.0
C446 C 0.01767 0.00375 0.37536 0.0
C447 C 0.00389 0.02381 0.36329 0.0
C448 C 0.98198 0.03287 0.37764 0.0
C449 C 0.02314 0.04644 0.35869 0.0
C450 C 0.99327 0.00843 0.34055 0.0
C451 C 1.00013 0.98367 0.33992 0.0
C452 C 0.99235 0.96569 0.32095 0.0
C453 C 0.9771 0.97318 0.3021 0.0
C454 C 0.96973 0.99844 0.30229 0.0
C455 C 0.97806 0.01628 0.32182 0.0
H456 H 0.27636 0.28357 0.64649 0.0
H457 H 0.19286 0.28273 0.64566 0.0
H458 H 0.18812 0.25451 0.6086 0.0
H459 H 0.28099 0.28531 0.58488 0.0
H460 H 0.30655 0.26448 0.58325 0.0
H461 H 0.30341 0.28397 0.61008 0.0
H462 H 0.30096 0.24353 0.63294 0.0
H463 H 0.3042 0.22391 0.60619 0.0
H464 H 0.277 0.21715 0.62329 0.0
H465 H 0.19252 0.22862 0.57069 0.0
H466 H 0.20552 0.20415 0.53556 0.0
H467 H 0.28623 0.22047 0.56149 0.0
C468 C 0.25709 0.27735 0.63851 0.0
C469 C 0.23494 0.28527 0.6489 0.0
C470 C 0.21004 0.27664 0.63808 0.0
C471 C 0.20718 0.26074 0.617 0.0
C472 C 0.2294 0.25348 0.60709 0.0
C473 C 0.25388 0.26126 0.61758 0.0
C474 C 0.27457 0.25067 0.60327 0.0
C475 C 0.29243 0.2724 0.59487 0.0
C476 C 0.29009 0.23274 0.61726 0.0
C477 C 0.2579 0.23595 0.58294 0.0
C478 C 0.23192 0.23796 0.58546 0.0
C479 C 0.21279 0.22673 0.5686 0.0
C480 C 0.22039 0.21296 0.54866 0.0
C481 C 0.24688 0.21034 0.54583 0.0
C482 C 0.26583 0.22198 0.56327 0.0
H483 H 0.53261 0.50359 0.60757 0.0
H484 H 0.55153 0.58597 0.61465 0.0
H485 H 0.52749 0.58941 0.65028 0.0
H486 H 0.46874 0.50422 0.62423 0.0
H487 H 0.46917 0.47618 0.6402 0.0
H488 H 0.48951 0.47982 0.6163 0.0
H489 H 0.5299 0.47458 0.64388 0.0
H490 H 0.50964 0.47076 0.66786 0.0
H491 H 0.53658 0.49517 0.67079 0.0
H492 H 0.49943 0.58432 0.68351 0.0
H493 H 0.46955 0.57101 0.71276 0.0
H494 H 0.46883 0.49179 0.68439 0.0
C495 C 0.53212 0.52227 0.61692 0.0
C496 C 0.54393 0.54453 0.6084 0.0
C497 C 0.54244 0.56871 0.62081 0.0
C498 C 0.52894 0.57084 0.6411 0.0
C499 C 0.5171 0.5486 0.64879 0.0
C500 C 0.51862 0.52476 0.63718 0.0
C501 C 0.50314 0.50404 0.64858 0.0
C502 C 0.48135 0.49026 0.63129 0.0
C503 C 0.52088 0.48502 0.65836 0.0
C504 C 0.4924 0.52004 0.66818 0.0
C505 C 0.50082 0.54567 0.66804 0.0
C506 C 0.49287 0.56428 0.68394 0.0
C507 C 0.47583 0.55652 0.70046 0.0
C508 C 0.46687 0.53035 0.70093 0.0
C509 C 0.47544 0.51192 0.6846 0.0
H510 H 0.81904 0.28902 0.6659 0.0
H511 H 0.80315 0.20995 0.63662 0.0
H512 H 0.78774 0.22438 0.59881 0.0
H513 H 0.76366 0.31202 0.63744 0.0
H514 H 0.78008 0.34239 0.63216 0.0
H515 H 0.79094 0.32606 0.65684 0.0
H516 H 0.837 0.32738 0.64217 0.0
H517 H 0.8263 0.34385 0.6175 0.0
H518 H 0.84118 0.31445 0.61267 0.0
H519 H 0.77267 0.24698 0.56467 0.0
H520 H 0.76002 0.27653 0.53578 0.0
H521 H 0.78561 0.34127 0.58672 0.0
C522 C 0.81254 0.27481 0.65143 0.0
C523 C 0.81226 0.2484 0.65422 0.0
C524 C 0.80348 0.2303 0.63496 0.0
C525 C 0.79469 0.2383 0.61337 0.0
C526 C 0.79484 0.26445 0.61128 0.0
C527 C 0.80363 0.28248 0.6297 0.0
C528 C 0.80128 0.3094 0.62281 0.0
C529 C 0.78289 0.32327 0.63823 0.0
C530 C 0.82803 0.32467 0.62385 0.0
C531 C 0.78967 0.30362 0.5977 0.0
C532 C 0.78614 0.27756 0.59145 0.0
C533 C 0.77543 0.26744 0.56931 0.0
C534 C 0.76825 0.28441 0.55302 0.0
C535 C 0.77181 0.31124 0.55893 0.0
C536 C 0.78265 0.32088 0.58163 0.0
H537 H 0.50474 0.97127 0.59222 0.0
H538 H 0.49939 0.05298 0.58966 0.0
H539 H 0.52274 0.06117 0.62854 0.0
H540 H 0.50003 0.96849 0.65448 0.0
H541 H 0.52409 0.94619 0.65741 0.0
H542 H 0.50491 0.94609 0.62999 0.0
H543 H 0.54669 0.95223 0.60818 0.0
H544 H 0.566 0.95233 0.63552 0.0
H545 H 0.57042 0.97884 0.61778 0.0
H546 H 0.54662 0.06109 0.66756 0.0
H547 H 0.57246 0.05293 0.70329 0.0
H548 H 0.56688 0.972 0.6795 0.0
C549 C 0.50849 0.99094 0.59967 0.0
C550 C 0.49948 0.01135 0.58771 0.0
C551 C 0.50497 0.03674 0.59849 0.0
C552 C 0.51858 0.04172 0.6206 0.0
C553 C 0.52712 0.02123 0.63172 0.0
C554 C 0.5226 0.99637 0.62157 0.0
C555 C 0.53526 0.97805 0.63683 0.0
C556 C 0.51485 0.95855 0.64517 0.0
C557 C 0.55581 0.96457 0.6238 0.0
C558 C 0.54758 0.99658 0.6571 0.0
C559 C 0.54229 0.02133 0.65385 0.0
C560 C 0.55099 0.04182 0.67028 0.0
C561 C 0.5656 0.03695 0.69056 0.0
C562 C 0.57176 0.01185 0.69417 0.0
C563 C 0.56263 0.9914 0.67714 0.0
H564 H 0.88723 0.21373 0.74579 0.0
H565 H 0.82118 0.21751 0.78766 0.0
H566 H 0.85047 0.23202 0.82298 0.0
H567 H 0.92746 0.1883 0.78814 0.0
H568 H 0.95708 0.20595 0.78172 0.0
H569 H 0.93104 0.19838 0.75914 0.0
H570 H 0.93079 0.24643 0.75264 0.0
H571 H 0.95704 0.25414 0.77505 0.0
H572 H 0.9275 0.26928 0.77725 0.0
H573 H 0.88649 0.24339 0.85393 0.0
H574 H 0.92725 0.25181 0.87895 0.0
H575 H 0.97071 0.23992 0.81753 0.0
C576 C 0.87902 0.21822 0.76232 0.0
C577 C 0.852 0.21475 0.76409 0.0
C578 C 0.84185 0.22016 0.78605 0.0
C579 C 0.85831 0.22841 0.80615 0.0
C580 C 0.88489 0.23107 0.804 0.0
C581 C 0.89525 0.22626 0.78267 0.0
C582 C 0.92462 0.22928 0.78557 0.0
C583 C 0.93569 0.20397 0.77821 0.0
C584 C 0.93563 0.25109 0.77181 0.0
C585 C 0.92908 0.23621 0.81187 0.0
C586 C 0.90586 0.23728 0.82207 0.0
C587 C 0.90481 0.24278 0.84615 0.0
C588 C 0.92813 0.24747 0.86022 0.0
C589 C 0.95224 0.24653 0.85025 0.0
C590 C 0.95262 0.24079 0.8257 0.0
H591 H 0.50554 0.89118 0.50888 0.0
H592 H 0.50696 0.95651 0.46745 0.0
H593 H 0.51797 0.92941 0.43311 0.0
H594 H 0.55853 0.8617 0.48312 0.0
H595 H 0.5436 0.82948 0.4834 0.0
H596 H 0.53656 0.85416 0.50509 0.0
H597 H 0.48756 0.84422 0.4929 0.0
H598 H 0.49446 0.81958 0.47112 0.0
H599 H 0.47602 0.8451 0.46261 0.0
H600 H 0.52895 0.89566 0.40332 0.0
H601 H 0.53828 0.85685 0.37949 0.0
H602 H 0.52831 0.81261 0.43941 0.0
C603 C 0.50835 0.89973 0.49259 0.0
C604 C 0.50539 0.9259 0.49081 0.0
C605 C 0.50899 0.93646 0.4692 0.0
C606 C 0.51531 0.92124 0.44958 0.0
C607 C 0.51782 0.89546 0.4518 0.0
C608 C 0.51439 0.8847 0.47269 0.0
C609 C 0.51761 0.85628 0.47006 0.0
C610 C 0.54044 0.85005 0.48639 0.0
C611 C 0.49241 0.84036 0.47443 0.0
C612 C 0.52343 0.85285 0.44447 0.0
C613 C 0.52358 0.87574 0.43435 0.0
C614 C 0.52883 0.87759 0.41101 0.0
C615 C 0.53414 0.85543 0.39763 0.0
C616 C 0.53396 0.83168 0.40754 0.0
C617 C 0.52842 0.83044 0.43128 0.0
H618 H 0.16521 0.2911 0.7436 0.0
H619 H 0.21128 0.34434 0.79549 0.0
H620 H 0.17899 0.33611 0.82436 0.0
H621 H 0.10284 0.30769 0.75994 0.0
H622 H 0.08775 0.27531 0.75503 0.0
H623 H 0.11445 0.28536 0.73846 0.0
H624 H 0.13937 0.24831 0.75241 0.0
H625 H 0.11275 0.23813 0.76901 0.0
H626 H 0.1448 0.24529 0.78342 0.0
H627 H 0.14191 0.32217 0.84745 0.0
H628 H 0.10257 0.30333 0.86354 0.0
H629 H 0.08045 0.25893 0.79664 0.0
C630 C 0.16852 0.30103 0.76103 0.0
C631 C 0.19076 0.31838 0.7674 0.0
C632 C 0.19435 0.33097 0.79035 0.0
C633 C 0.17614 0.32643 0.80682 0.0
C634 C 0.15443 0.30923 0.80003 0.0
C635 C 0.15052 0.2967 0.77771 0.0
C636 C 0.12556 0.27909 0.77496 0.0
C637 C 0.10653 0.28737 0.75597 0.0
C638 C 0.13095 0.25104 0.76964 0.0
C639 C 0.11607 0.28367 0.79924 0.0
C640 C 0.13302 0.30114 0.81339 0.0
C641 C 0.12849 0.30847 0.83654 0.0
C642 C 0.10605 0.29763 0.84551 0.0
C643 C 0.08837 0.27961 0.83138 0.0
C644 C 0.09354 0.27262 0.80791 0.0
H645 H 0.59343 0.61239 0.48129 0.0
H646 H 0.51834 0.59483 0.50786 0.0
H647 H 0.50001 0.62641 0.48387 0.0
H648 H 0.58968 0.67963 0.48156 0.0
H649 H 0.60566 0.6829 0.4549 0.0
H650 H 0.6128 0.65777 0.47306 0.0
H651 H 0.60075 0.62395 0.43755 0.0
H652 H 0.59367 0.64901 0.41925 0.0
H653 H 0.56947 0.62281 0.42166 0.0
H654 H 0.48996 0.66067 0.45832 0.0
H655 H 0.48878 0.69574 0.43253 0.0
H656 H 0.57041 0.69204 0.42262 0.0
C657 C 0.57308 0.61505 0.4818 0.0
C658 C 0.55734 0.60122 0.49643 0.0
C659 C 0.53083 0.60531 0.49688 0.0
C660 C 0.52019 0.62316 0.48326 0.0
C661 C 0.53629 0.6368 0.4693 0.0
C662 C 0.56215 0.63299 0.46841 0.0
C663 C 0.57531 0.65091 0.45252 0.0
C664 C 0.59715 0.66887 0.46634 0.0
C665 C 0.58539 0.63576 0.4315 0.0
C666 C 0.55284 0.66546 0.44482 0.0
C667 C 0.53051 0.65689 0.45464 0.0
C668 C 0.50729 0.66751 0.45043 0.0
C669 C 0.50684 0.68746 0.43577 0.0
C670 C 0.52948 0.69668 0.42554 0.0
C671 C 0.55276 0.68543 0.43016 0.0
H672 H 0.87876 0.75848 0.7661 0.0
H673 H 0.83386 0.8115 0.73093 0.0
H674 H 0.86579 0.81444 0.70103 0.0
H675 H 0.94156 0.78888 0.75678 0.0
H676 H 0.95584 0.75913 0.75212 0.0
H677 H 0.92938 0.76121 0.77063 0.0
H678 H 0.9034 0.72309 0.74522 0.0
H679 H 0.92979 0.72087 0.72665 0.0
H680 H 0.89785 0.72468 0.71399 0.0
H681 H 0.90267 0.8111 0.67461 0.0
H682 H 0.94159 0.80199 0.65413 0.0
H683 H 0.96238 0.75163 0.70709 0.0
C684 C 0.87568 0.7707 0.75209 0.0
C685 C 0.85387 0.78472 0.75081 0.0
C686 C 0.85044 0.80056 0.73226 0.0
C687 C 0.86848 0.80236 0.71519 0.0
C688 C 0.88982 0.78826 0.71697 0.0
C689 C 0.8935 0.77276 0.73498 0.0
C690 C 0.91801 0.75959 0.73295 0.0
C691 C 0.93734 0.7677 0.75439 0.0
C692 C 0.91188 0.73033 0.72949 0.0
C693 C 0.92757 0.77007 0.71097 0.0
C694 C 0.91106 0.78654 0.70197 0.0
C695 C 0.91577 0.79829 0.68155 0.0
C696 C 0.93792 0.79299 0.67004 0.0
C697 C 0.9551 0.77616 0.67901 0.0
C698 C 0.94975 0.76468 0.6998 0.0
H699 H 0.03586 0.90799 0.49963 0.0
H700 H 0.11392 0.92731 0.53176 0.0
H701 H 0.10578 0.89597 0.56076 0.0
H702 H 0.00502 0.89914 0.55337 0.0
H703 H 0.98291 0.87243 0.54067 0.0
H704 H 0.99467 0.89658 0.5225 0.0
H705 H 0.01144 0.86168 0.49444 0.0
H706 H 0.9997 0.83743 0.5125 0.0
H707 H 0.03322 0.84035 0.50613 0.0
H708 H 0.08945 0.86286 0.58615 0.0
H709 H 0.06622 0.82904 0.60603 0.0
H710 H 0.99868 0.83048 0.55735 0.0
C711 C 0.0512 0.90561 0.51278 0.0
C712 C 0.07556 0.92005 0.51354 0.0
C713 C 0.09515 0.91638 0.53094 0.0
C714 C 0.0907 0.89868 0.54748 0.0
C715 C 0.06653 0.88474 0.54633 0.0
C716 C 0.0471 0.88789 0.52943 0.0
C717 C 0.02301 0.87016 0.532 0.0
C718 C 1.00005 0.8855 0.53746 0.0
C719 C 0.01647 0.85128 0.50996 0.0
C720 C 0.032 0.85657 0.55295 0.0
C721 C 0.05714 0.86537 0.56095 0.0
C722 C 0.06975 0.85578 0.58006 0.0
C723 C 0.05636 0.83657 0.59125 0.0
C724 C 0.03062 0.82705 0.58328 0.0
C725 C 0.01833 0.83732 0.56389 0.0
H726 H 0.1676 0.75172 0.76514 0.0
H727 H 0.15624 0.67019 0.74383 0.0
H728 H 0.12149 0.67746 0.71429 0.0
H729 H 0.09992 0.76315 0.75873 0.0
H730 H 0.10627 0.79392 0.74758 0.0
H731 H 0.13009 0.78237 0.76731 0.0
H732 H 0.16426 0.78808 0.73687 0.0
H733 H 0.14054 0.7996 0.71704 0.0
H734 H 0.15749 0.7727 0.70749 0.0
H735 H 0.08875 0.69329 0.68694 0.0
H736 H 0.05924 0.71666 0.6633 0.0
H737 H 0.09134 0.78829 0.70208 0.0
C738 C 0.15771 0.73542 0.75432 0.0
C739 C 0.1645 0.71033 0.75673 0.0
C740 C 0.15122 0.68951 0.74223 0.0
C741 C 0.1315 0.69346 0.72542 0.0
C742 C 0.12529 0.71837 0.72338 0.0
C743 C 0.1379 0.73902 0.73742 0.0
C744 C 0.12745 0.76383 0.73141 0.0
C745 C 0.1152 0.77656 0.75251 0.0
C746 C 0.14871 0.78213 0.72268 0.0
C747 C 0.10709 0.75385 0.71176 0.0
C748 C 0.10623 0.72757 0.70747 0.0
C749 C 0.08919 0.71388 0.69013 0.0
C750 C 0.07251 0.72738 0.67677 0.0
C751 C 0.07294 0.75436 0.68079 0.0
C752 C 0.09051 0.76771 0.69857 0.0
H753 H 0.97838 0.61893 0.49763 0.0
H754 H 0.96971 0.55833 0.54424 0.0
H755 H 0.97445 0.59037 0.57837 0.0
H756 H 0.02721 0.65948 0.53588 0.0
H757 H 0.01491 0.68896 0.52858 0.0
H758 H 0.01071 0.66129 0.50743 0.0
H759 H 0.96121 0.66427 0.50412 0.0
H760 H 0.96523 0.69184 0.52537 0.0
H761 H 0.94381 0.66425 0.53026 0.0
H762 H 0.97903 0.628 0.6073 0.0
H763 H 0.98581 0.6699 0.63026 0.0
H764 H 0.99294 0.70729 0.56591 0.0
C765 C 0.97764 0.61248 0.51504 0.0
C766 C 0.97318 0.58612 0.51822 0.0
C767 C 0.97241 0.57841 0.5413 0.0
C768 C 0.97524 0.59645 0.56084 0.0
C769 C 0.97907 0.6222 0.55712 0.0
C770 C 0.98052 0.63033 0.5349 0.0
C771 C 0.98508 0.65933 0.53613 0.0
C772 C 0.01102 0.66776 0.52643 0.0
C773 C 0.96248 0.67058 0.5232 0.0
C774 C 0.98585 0.66607 0.56248 0.0
C775 C 0.98224 0.64427 0.57413 0.0
C776 C 0.98198 0.64527 0.59843 0.0
C777 C 0.9858 0.66922 0.61132 0.0
C778 C 0.98994 0.69194 0.59993 0.0
C779 C 0.9898 0.69029 0.57512 0.0
H780 H 0.80024 0.87195 0.23196 0.0
H781 H 0.75384 0.88937 0.17061 0.0
H782 H 0.77609 0.93319 0.17414 0.0
H783 H 0.80327 0.93515 0.26452 0.0
H784 H 0.83638 0.93442 0.27576 0.0
H785 H 0.81562 0.905 0.26938 0.0
H786 H 0.84864 0.8873 0.24191 0.0
H787 H 0.86947 0.91665 0.2482 0.0
H788 H 0.8588 0.90535 0.21822 0.0
H789 H 0.80416 0.97441 0.18348 0.0
H790 H 0.83744 0.00993 0.19696 0.0
H791 H 0.86648 0.9656 0.25187 0.0
C792 C 0.79455 0.88516 0.21951 0.0
C793 C 0.77529 0.87738 0.20105 0.0
C794 C 0.76864 0.89497 0.1848 0.0
C795 C 0.78106 0.9199 0.18674 0.0
C796 C 0.80014 0.92691 0.205 0.0
C797 C 0.80694 0.91006 0.22107 0.0
C798 C 0.82904 0.92203 0.23826 0.0
C799 C 0.82056 0.92429 0.26347 0.0
C800 C 0.85289 0.90694 0.23653 0.0
C801 C 0.83377 0.94813 0.22919 0.0
C802 C 0.8167 0.95061 0.21014 0.0
C803 C 0.81757 0.97275 0.19844 0.0
C804 C 0.83656 0.99284 0.20625 0.0
C805 C 0.85459 0.9906 0.22549 0.0
C806 C 0.85294 0.96797 0.23719 0.0
H807 H 0.80414 0.17561 0.32907 0.0
H808 H 0.80861 0.21202 0.26418 0.0
H809 H 0.84016 0.18254 0.25104 0.0
H810 H 0.87202 0.16214 0.3361 0.0
H811 H 0.86424 0.13142 0.34691 0.0
H812 H 0.84367 0.15673 0.35208 0.0
H813 H 0.80419 0.12706 0.33256 0.0
H814 H 0.82462 0.1017 0.32733 0.0
H815 H 0.80554 0.11224 0.30319 0.0
H816 H 0.86986 0.14838 0.24435 0.0
H817 H 0.89415 0.11031 0.24352 0.0
H818 H 0.86936 0.09485 0.31221 0.0
C819 C 0.81212 0.17755 0.31227 0.0
C820 C 0.80414 0.1961 0.29764 0.0
C821 C 0.81452 0.19786 0.27557 0.0
C822 C 0.8325 0.18131 0.26803 0.0
C823 C 0.83978 0.16302 0.28273 0.0
C824 C 0.82986 0.16093 0.30433 0.0
C825 C 0.83968 0.13853 0.31603 0.0
C826 C 0.85587 0.14777 0.33915 0.0
C827 C 0.81716 0.11871 0.32 0.0
C828 C 0.85642 0.12821 0.29751 0.0
C829 C 0.85645 0.14282 0.27859 0.0
C830 C 0.87009 0.13684 0.25911 0.0
C831 C 0.88385 0.11517 0.25882 0.0
C832 C 0.88369 0.09955 0.27779 0.0
C833 C 0.86994 0.10639 0.29745 0.0
H834 H 0.44075 0.01108 0.01395 0.0
H835 H 0.41484 0.02604 0.94325 0.0
H836 H 0.37495 0.99719 0.94537 0.0
H837 H 0.41584 0.9443 0.00942 0.0
H838 H 0.40669 0.94571 0.03924 0.0
H839 H 0.43346 0.96678 0.03165 0.0
H840 H 0.41163 0.00596 0.04843 0.0
H841 H 0.38472 0.98504 0.05595 0.0
H842 H 0.37917 0.01039 0.03752 0.0
H843 H 0.33704 0.96808 0.95602 0.0
H844 H 0.30508 0.93926 0.97351 0.0
H845 H 0.35604 0.94374 0.03731 0.0
C846 C 0.42668 0.0083 0.9989 0.0
C847 C 0.43086 0.02082 0.97843 0.0
C848 C 0.41215 0.01642 0.959 0.0
C849 C 0.38938 1.00021 0.96011 0.0
C850 C 0.38571 0.98849 0.98072 0.0
C851 C 0.40394 0.9922 0.99969 0.0
C852 C 0.39533 0.97753 0.01985 0.0
C853 C 0.41394 0.95738 0.02535 0.0
C854 C 0.39255 0.99583 0.04172 0.0
C855 C 0.36927 0.96511 0.00934 0.0
C856 C 0.36404 0.97169 0.98678 0.0
C857 C 0.34098 0.96272 0.97364 0.0
C858 C 0.32292 0.94643 0.98377 0.0
C859 C 0.32804 0.93921 0.00679 0.0
C860 C 0.35153 0.94884 0.01969 0.0
H861 H 0.2926 0.37663 0.28371 0.0
H862 H 0.23316 0.31998 0.3018 0.0
H863 H 0.19976 0.34894 0.29278 0.0
H864 H 0.26434 0.43169 0.30864 0.0
H865 H 0.27371 0.4516 0.28597 0.0
H866 H 0.29283 0.42621 0.29347 0.0
H867 H 0.28774 0.40715 0.25002 0.0
H868 H 0.26849 0.43242 0.2424 0.0
H869 H 0.25577 0.39943 0.23553 0.0
H870 H 0.17281 0.38355 0.28095 0.0
H871 H 0.15429 0.42273 0.27004 0.0
H872 H 0.23135 0.45763 0.2607 0.0
C873 C 0.27253 0.37033 0.28569 0.0
C874 C 0.26542 0.34606 0.29344 0.0
C875 C 0.23902 0.33859 0.29609 0.0
C876 C 0.21992 0.35483 0.29087 0.0
C877 C 0.22755 0.37856 0.28315 0.0
C878 C 0.25323 0.38642 0.28078 0.0
C879 C 0.25629 0.41318 0.2728 0.0
C880 C 0.27276 0.43176 0.29133 0.0
C881 C 0.26775 0.41302 0.24876 0.0
C882 C 0.22831 0.41913 0.27103 0.0
C883 C 0.21205 0.39879 0.27688 0.0
C884 C 0.18536 0.39964 0.27641 0.0
C885 C 0.17501 0.42198 0.2701 0.0
C886 C 0.19134 0.44333 0.26454 0.0
C887 C 0.21834 0.4417 0.26489 0.0
H888 H 0.12594 0.03252 0.43767 0.0
H889 H 0.08948 0.03472 0.50358 0.0
H890 H 0.12358 0.06776 0.52109 0.0
H891 H 0.18972 0.03798 0.46179 0.0
H892 H 0.20301 0.05835 0.44096 0.0
H893 H 0.17433 0.0369 0.43251 0.0
H894 H 0.14957 0.07491 0.42067 0.0
H895 H 0.1783 0.09649 0.42884 0.0
H896 H 0.14845 0.1022 0.44167 0.0
H897 H 0.16359 0.09644 0.53282 0.0
H898 H 0.20603 0.12189 0.53747 0.0
H899 H 0.2166 0.10289 0.46376 0.0
C900 C 0.12479 0.04051 0.45557 0.0
C901 C 0.10512 0.03105 0.46931 0.0
C902 C 0.10451 0.04157 0.49283 0.0
C903 C 0.12372 0.06039 0.50289 0.0
C904 C 0.1433 0.06871 0.48916 0.0
C905 C 0.14386 0.05943 0.46592 0.0
C906 C 0.16791 0.07079 0.45552 0.0
C907 C 0.18473 0.04975 0.44721 0.0
C908 C 0.16062 0.08707 0.43549 0.0
C909 C 0.18103 0.08736 0.47673 0.0
C910 C 0.16641 0.08586 0.49589 0.0
C911 C 0.17506 0.09811 0.51787 0.0
C912 C 0.19928 0.11238 0.52036 0.0
C913 C 0.21456 0.11444 0.50097 0.0
C914 C 0.20518 0.1019 0.47882 0.0
H915 H 0.75075 0.15769 0.70979 0.0
H916 H 0.81268 0.12797 0.75078 0.0
H917 H 0.78349 0.08955 0.75603 0.0
H918 H 0.69905 0.13561 0.74285 0.0
H919 H 0.67628 0.12754 0.71759 0.0
H920 H 0.70206 0.15267 0.71703 0.0
H921 H 0.71725 0.12966 0.67938 0.0
H922 H 0.69146 0.10448 0.67977 0.0
H923 H 0.7245 0.09684 0.67941 0.0
H924 H 0.74724 0.05476 0.75744 0.0
H925 H 0.70688 0.02571 0.75419 0.0
H926 H 0.66928 0.07754 0.71101 0.0
C927 C 0.75833 0.14299 0.71962 0.0
C928 C 0.78405 0.14593 0.72992 0.0
C929 C 0.79297 0.12637 0.74301 0.0
C930 C 0.77659 0.10439 0.74597 0.0
C931 C 0.75137 0.10218 0.73563 0.0
C932 C 0.74232 0.1209 0.72264 0.0
C933 C 0.71437 0.11392 0.71341 0.0
C934 C 0.69692 0.1336 0.72332 0.0
C935 C 0.71175 0.11105 0.68639 0.0
C936 C 0.70909 0.08836 0.72329 0.0
C937 C 0.73065 0.08196 0.73611 0.0
C938 C 0.73028 0.0595 0.74734 0.0
C939 C 0.70724 0.04315 0.74542 0.0
C940 C 0.68494 0.04928 0.73227 0.0
C941 C 0.68603 0.07219 0.72103 0.0
H942 H 0.41536 0.04212 0.55223 0.0
H943 H 0.46277 0.04477 0.49288 0.0
H944 H 0.43576 0.07563 0.47594 0.0
H945 H 0.355 0.04503 0.51989 0.0
H946 H 0.34176 0.06528 0.54205 0.0
H947 H 0.36555 0.0443 0.55045 0.0
H948 H 0.3946 0.08293 0.57201 0.0
H949 H 0.37084 0.10404 0.56374 0.0
H950 H 0.40378 0.11016 0.55627 0.0
H951 H 0.4029 0.10409 0.4642 0.0
H952 H 0.36614 0.12973 0.45857 0.0
H953 H 0.33957 0.11005 0.52558 0.0
C954 C 0.42019 0.04949 0.53584 0.0
C955 C 0.44104 0.04085 0.52376 0.0
C956 C 0.44665 0.05077 0.50224 0.0
C957 C 0.43152 0.06844 0.49254 0.0
C958 C 0.41087 0.0762 0.5046 0.0
C959 C 0.40518 0.06722 0.52582 0.0
C960 C 0.38131 0.07829 0.53465 0.0
C961 C 0.35963 0.05695 0.53688 0.0
C962 C 0.38804 0.09484 0.55806 0.0
C963 C 0.37439 0.09456 0.51491 0.0
C964 C 0.39181 0.09306 0.49784 0.0
C965 C 0.38921 0.10561 0.47751 0.0
C966 C 0.36818 0.12008 0.47445 0.0
C967 C 0.34997 0.12199 0.49163 0.0
C968 C 0.35327 0.10915 0.51222 0.0
H969 H 0.63224 0.52806 0.53988 0.0
H970 H 0.57847 0.47253 0.56774 0.0
H971 H 0.60817 0.43926 0.5606 0.0
H972 H 0.65302 0.48442 0.49373 0.0
H973 H 0.68611 0.49849 0.49713 0.0
H974 H 0.66029 0.51782 0.50385 0.0
H975 H 0.68231 0.53054 0.54567 0.0
H976 H 0.70815 0.51121 0.53911 0.0
H977 H 0.68997 0.50582 0.5642 0.0
H978 H 0.644 0.41228 0.55138 0.0
H979 H 0.68367 0.39333 0.5407 0.0
H980 H 0.71418 0.4662 0.51845 0.0
C981 C 0.62658 0.50882 0.5442 0.0
C982 C 0.60306 0.50292 0.55445 0.0
C983 C 0.59654 0.47759 0.56017 0.0
C984 C 0.6132 0.45851 0.55604 0.0
C985 C 0.63632 0.46503 0.54614 0.0
C986 C 0.64303 0.48953 0.54024 0.0
C987 C 0.66931 0.49157 0.53029 0.0
C988 C 0.66703 0.49848 0.50473 0.0
C989 C 0.68857 0.51093 0.54574 0.0
C990 C 0.67638 0.46442 0.53167 0.0
C991 C 0.65703 0.44942 0.54079 0.0
C992 C 0.65925 0.4238 0.54412 0.0
C993 C 0.6819 0.41322 0.53802 0.0
C994 C 0.70208 0.42823 0.5287 0.0
C995 C 0.69911 0.45416 0.52544 0.0
H996 H 0.73891 0.25256 0.36933 0.0
H997 H 0.81128 0.27984 0.34251 0.0
H998 H 0.81839 0.31422 0.37511 0.0
H999 H 0.71893 0.31289 0.3883 0.0
H1000 H 0.70591 0.30296 0.4148 0.0
H1001 H 0.7067 0.27997 0.38981 0.0
H1002 H 0.73255 0.25133 0.41542 0.0
H1003 H 0.7316 0.2741 0.44057 0.0
H1004 H 0.76222 0.26477 0.43174 0.0
H1005 H 0.81564 0.34766 0.40811 0.0
H1006 H 0.80643 0.37503 0.44305 0.0
H1007 H 0.73759 0.32434 0.45079 0.0
C1008 C 0.75637 0.26563 0.3706 0.0
C1009 C 0.77464 0.26366 0.35358 0.0
C1010 C 0.79727 0.28099 0.3556 0.0
C1011 C 0.80136 0.30062 0.37392 0.0
C1012 C 0.78282 0.30233 0.39026 0.0
C1013 C 0.76104 0.28502 0.3891 0.0
C1014 C 0.7444 0.29101 0.4092 0.0
C1015 C 0.71739 0.29707 0.39996 0.0
C1016 C 0.7426 0.26899 0.42518 0.0
C1017 C 0.76001 0.31465 0.42155 0.0
C1018 C 0.78193 0.32098 0.41012 0.0
C1019 C 0.79874 0.34273 0.41741 0.0
C1020 C 0.79324 0.35825 0.43715 0.0
C1021 C 0.77137 0.35171 0.44959 0.0
C1022 C 0.75456 0.32961 0.44168 0.0
H1023 H 0.51381 1.00185 0.88474 0.0
H1024 H 0.53842 0.08028 0.91218 0.0
H1025 H 0.56827 0.08424 0.88076 0.0
H1026 H 0.57621 0.9855 0.86876 0.0
H1027 H 0.56372 0.96598 0.84235 0.0
H1028 H 0.54397 0.96934 0.86682 0.0
H1029 H 0.50792 0.9852 0.83983 0.0
H1030 H 0.52755 0.98184 0.81527 0.0
H1031 H 0.51554 0.01216 0.82326 0.0
H1032 H 0.59572 0.07963 0.84673 0.0
H1033 H 0.61871 0.06697 0.81205 0.0
H1034 H 0.57641 0.99142 0.80647 0.0
C1035 C 0.52546 0.01986 0.88405 0.0
C1036 C 0.52383 0.04073 0.90087 0.0
C1037 C 0.53936 0.06401 0.8995 0.0
C1038 C 0.55638 0.06645 0.88171 0.0
C1039 C 0.55763 0.04547 0.86545 0.0
C1040 C 0.54258 0.02262 0.86641 0.0
C1041 C 0.54775 0.00298 0.84682 0.0
C1042 C 0.55856 0.97957 0.85679 0.0
C1043 C 0.52323 0.99509 0.83032 0.0
C1044 C 0.56808 0.01836 0.83472 0.0
C1045 C 0.57348 0.04281 0.84577 0.0
C1046 C 0.59164 0.06055 0.8379 0.0
C1047 C 0.60462 0.05315 0.81818 0.0
C1048 C 0.59939 0.0282 0.8065 0.0
C1049 C 0.58086 0.01063 0.81498 0.0
H1050 H 0.26241 0.27403 0.3433 0.0
H1051 H 0.34602 0.28978 0.3508 0.0
H1052 H 0.3478 0.26536 0.38569 0.0
H1053 H 0.25278 0.27842 0.40597 0.0
H1054 H 0.22713 0.25267 0.40291 0.0
H1055 H 0.23234 0.2722 0.37901 0.0
H1056 H 0.23661 0.23153 0.35134 0.0
H1057 H 0.23155 0.21189 0.37518 0.0
H1058 H 0.26014 0.21006 0.35929 0.0
H1059 H 0.34077 0.23833 0.41896 0.0
H1060 H 0.32537 0.2107 0.44879 0.0
H1061 H 0.24619 0.21233 0.41996 0.0
C1062 C 0.28104 0.27263 0.3525 0.0
C1063 C 0.3041 0.28378 0.34431 0.0
C1064 C 0.32815 0.28118 0.35662 0.0
C1065 C 0.32934 0.26745 0.37651 0.0
C1066 C 0.30632 0.25642 0.38393 0.0
C1067 C 0.2826 0.25888 0.37238 0.0
C1068 C 0.26084 0.24456 0.38371 0.0
C1069 C 0.24217 0.26307 0.39348 0.0
C1070 C 0.24644 0.22325 0.36634 0.0
C1071 C 0.27607 0.23355 0.40332 0.0
C1072 C 0.30226 0.2407 0.40315 0.0
C1073 C 0.32029 0.23268 0.41934 0.0
C1074 C 0.31133 0.21694 0.43622 0.0
C1075 C 0.28456 0.20932 0.43678 0.0
C1076 C 0.26677 0.21782 0.42005 0.0
H1077 H 0.52886 0.52922 0.90737 0.0
H1078 H 0.52529 0.44688 0.90979 0.0
H1079 H 0.49783 0.44069 0.87249 0.0
H1080 H 0.46309 0.53066 0.88471 0.0
H1081 H 0.47027 0.55596 0.86616 0.0
H1082 H 0.49046 0.55407 0.89265 0.0
H1083 H 0.53082 0.55325 0.86862 0.0
H1084 H 0.51076 0.55524 0.84205 0.0
H1085 H 0.53097 0.52939 0.84415 0.0
H1086 H 0.47093 0.44325 0.83529 0.0
H1087 H 0.44532 0.45436 0.80047 0.0
H1088 H 0.46509 0.53517 0.82233 0.0
C1089 C 0.52245 0.50993 0.89987 0.0
C1090 C 0.52912 0.4885 0.9114 0.0
C1091 C 0.52018 0.46352 0.90128 0.0
C1092 C 0.50467 0.45982 0.8801 0.0
C1093 C 0.49819 0.48131 0.86929 0.0
C1094 C 0.50671 0.50588 0.87879 0.0
C1095 C 0.49633 0.52562 0.86381 0.0
C1096 C 0.47901 0.54257 0.87766 0.0
C1097 C 0.51854 0.54183 0.85408 0.0
C1098 C 0.48066 0.50827 0.84445 0.0
C1099 C 0.48215 0.4828 0.84793 0.0
C1100 C 0.46956 0.46313 0.83236 0.0
C1101 C 0.45507 0.46965 0.81263 0.0
C1102 C 0.45313 0.49562 0.8087 0.0
C1103 C 0.46607 0.51515 0.82492 0.0
H1104 H 0.76433 0.76476 0.16058 0.0
H1105 H 0.72669 0.82699 0.13257 0.0
H1106 H 0.72368 0.80424 0.09276 0.0
H1107 H 0.80323 0.75421 0.11263 0.0
H1108 H 0.80119 0.71993 0.1132 0.0
H1109 H 0.7985 0.74003 0.13976 0.0
H1110 H 0.75432 0.71525 0.14532 0.0
H1111 H 0.75689 0.69503 0.11876 0.0
H1112 H 0.72888 0.71241 0.12197 0.0
H1113 H 0.72556 0.77542 0.05618 0.0
H1114 H 0.73436 0.74359 0.02445 0.0
H1115 H 0.77272 0.70062 0.07568 0.0
C1116 C 0.75515 0.77332 0.14605 0.0
C1117 C 0.74552 0.79746 0.14951 0.0
C1118 C 0.73411 0.80847 0.13014 0.0
C1119 C 0.73225 0.79566 0.10755 0.0
C1120 C 0.74212 0.77198 0.10464 0.0
C1121 C 0.7535 0.76095 0.12329 0.0
C1122 C 0.76397 0.73606 0.11507 0.0
C1123 C 0.79347 0.73767 0.12049 0.0
C1124 C 0.75018 0.71334 0.12592 0.0
C1125 C 0.75684 0.73492 0.08887 0.0
C1126 C 0.74397 0.7557 0.08332 0.0
C1127 C 0.73557 0.75905 0.06029 0.0
C1128 C 0.74065 0.74081 0.04239 0.0
C1129 C 0.75426 0.7196 0.04754 0.0
C1130 C 0.76229 0.71661 0.07116 0.0
H1131 H 0.03037 0.06668 0.11152 0.0
H1132 H 0.012 0.99198 0.07313 0.0
H1133 H 0.98242 0.97944 0.10297 0.0
H1134 H 0.03269 0.04488 0.16783 0.0
H1135 H 0.01832 0.07138 0.182 0.0
H1136 H 0.03591 0.0758 0.15643 0.0
H1137 H 0.99594 0.09239 0.1354 0.0
H1138 H 0.97828 0.08829 0.16102 0.0
H1139 H 0.96527 0.07306 0.13279 0.0
H1140 H 0.95787 0.97366 0.13804 0.0
H1141 H 0.93826 0.97523 0.17592 0.0
H1142 H 0.97241 0.05363 0.19253 0.0
C1143 C 0.01956 0.04796 0.10917 0.0
C1144 C 0.02322 0.03031 0.08999 0.0
C1145 C 0.00933 0.00573 0.0877 0.0
C1146 C 0.99251 0.99847 0.10453 0.0
C1147 C 0.9898 0.01602 0.12357 0.0
C1148 C 1.00276 0.04031 0.12598 0.0
C1149 C 0.99745 0.05484 0.1489 0.0
C1150 C 0.02259 0.06215 0.16472 0.0
C1151 C 0.9834 0.07855 0.14425 0.0
C1152 C 0.97986 0.03473 0.15912 0.0
C1153 C 0.97564 0.01257 0.1441 0.0
C1154 C 0.9608 0.99098 0.14987 0.0
C1155 C 0.94982 0.99206 0.17151 0.0
C1156 C 0.95373 0.01456 0.18725 0.0
C1157 C 0.96895 0.03619 0.18086 0.0
H1158 H 0.2897 0.75227 0.15007 0.0
H1159 H 0.34975 0.80844 0.18417 0.0
H1160 H 0.34315 0.83627 0.1521 0.0
H1161 H 0.30475 0.76073 0.09028 0.0
H1162 H 0.27137 0.75703 0.07879 0.0
H1163 H 0.28106 0.74124 0.1042 0.0
H1164 H 0.247 0.76302 0.12772 0.0
H1165 H 0.2372 0.77886 0.10238 0.0
H1166 H 0.24741 0.79741 0.12988 0.0
H1167 H 0.33 0.8581 0.11676 0.0
H1168 H 0.31059 0.873 0.08053 0.0
H1169 H 0.25866 0.80293 0.0693 0.0
C1170 C 0.30149 0.77038 0.15073 0.0
C1171 C 0.3203 0.77827 0.16956 0.0
C1172 C 0.33526 0.80212 0.16986 0.0
C1173 C 0.33168 0.81802 0.15174 0.0
C1174 C 0.31299 0.80978 0.13345 0.0
C1175 C 0.2981 0.78657 0.13278 0.0
C1176 C 0.27908 0.78253 0.11122 0.0
C1177 C 0.28439 0.75899 0.09517 0.0
C1178 C 0.25101 0.78033 0.11823 0.0
C1179 C 0.28557 0.80713 0.09997 0.0
C1180 C 0.30525 0.82251 0.11306 0.0
C1181 C 0.31457 0.84622 0.10634 0.0
C1182 C 0.30341 0.85452 0.08571 0.0
C1183 C 0.28308 0.83918 0.07204 0.0
C1184 C 0.27417 0.81513 0.07932 0.0
H1185 H 0.01777 0.54281 0.1021 0.0
H1186 H 0.9878 0.46264 0.09457 0.0
H1187 H 0.01276 0.45597 0.13133 0.0
H1188 H 0.08099 0.53413 0.1239 0.0
H1189 H 0.0849 0.56224 0.14454 0.0
H1190 H 0.0635 0.56128 0.11835 0.0
H1191 H 0.02561 0.57145 0.14353 0.0
H1192 H 0.04696 0.57268 0.16982 0.0
H1193 H 0.01745 0.55151 0.16654 0.0
H1194 H 0.04318 0.45719 0.16721 0.0
H1195 H 0.07524 0.46677 0.20129 0.0
H1196 H 0.08456 0.54648 0.18656 0.0
C1197 C 0.01603 0.52398 0.10845 0.0
C1198 C 1.0009 0.50321 0.09536 0.0
C1199 C 0.99952 0.47876 0.1041 0.0
C1200 C 0.01353 0.4748 0.12503 0.0
C1201 C 0.0287 0.49552 0.13719 0.0
C1202 C 0.02985 0.5197 0.12939 0.0
C1203 C 0.04822 0.53851 0.14552 0.0
C1204 C 0.07073 0.54969 0.13228 0.0
C1205 C 0.03369 0.55979 0.15704 0.0
C1206 C 0.05747 0.52103 0.16339 0.0
C1207 C 0.04596 0.49632 0.15821 0.0
C1208 C 0.05212 0.47652 0.1716 0.0
C1209 C 0.07045 0.48215 0.19087 0.0
C1210 C 0.08234 0.50739 0.19668 0.0
C1211 C 0.07564 0.52705 0.18272 0.0
H1212 H 0.37175 0.7505 0.25939 0.0
H1213 H 0.37338 0.66807 0.25027 0.0
H1214 H 0.41422 0.67191 0.2756 0.0
H1215 H 0.44137 0.7672 0.25981 0.0
H1216 H 0.44154 0.79364 0.28198 0.0
H1217 H 0.41316 0.78444 0.26221 0.0
H1218 H 0.38549 0.77931 0.29773 0.0
H1219 H 0.41378 0.78841 0.3176 0.0
H1220 H 0.39471 0.75843 0.31956 0.0
H1221 H 0.45415 0.68462 0.30273 0.0
H1222 H 0.48993 0.70514 0.33042 0.0
H1223 H 0.46205 0.77935 0.32216 0.0
C1224 C 0.38093 0.73331 0.26245 0.0
C1225 C 0.36947 0.70898 0.25283 0.0
C1226 C 0.38177 0.68687 0.2576 0.0
C1227 C 0.40501 0.68888 0.27185 0.0
C1228 C 0.41567 0.71313 0.28123 0.0
C1229 C 0.40404 0.73496 0.27675 0.0
C1230 C 0.41896 0.75861 0.28972 0.0
C1231 C 0.42938 0.77706 0.27239 0.0
C1232 C 0.40223 0.77197 0.30719 0.0
C1233 C 0.4407 0.74666 0.30235 0.0
C1234 C 0.43853 0.72043 0.29709 0.0
C1235 C 0.45611 0.70517 0.30692 0.0
C1236 C 0.47638 0.71701 0.32264 0.0
C1237 C 0.47885 0.74386 0.32849 0.0
C1238 C 0.46077 0.7588 0.31804 0.0
H1239 H 0.99641 0.39704 0.01052 0.0
H1240 H 0.9809 0.45824 0.96695 0.0
H1241 H 0.9872 0.43009 0.93154 0.0
H1242 H 0.04635 0.37252 0.97742 0.0
H1243 H 0.03667 0.33949 0.98128 0.0
H1244 H 0.03058 0.36433 0.0032 0.0
H1245 H 0.9818 0.34811 0.99922 0.0
H1246 H 0.98776 0.32321 0.97729 0.0
H1247 H 0.96424 0.34519 0.97073 0.0
H1248 H 0.99544 0.39548 0.90097 0.0
H1249 H 0.0052 0.35683 0.87718 0.0
H1250 H 0.0155 0.31797 0.94059 0.0
C1251 C 0.99429 0.40444 0.9935 0.0
C1252 C 0.98814 0.42975 0.99145 0.0
C1253 C 0.98558 0.43889 0.96894 0.0
C1254 C 0.98911 0.42304 0.94872 0.0
C1255 C 0.9952 0.39817 0.95134 0.0
C1256 C 0.99777 0.38889 0.97314 0.0
C1257 C 0.00461 0.36147 0.97111 0.0
C1258 C 0.03113 0.35934 0.98401 0.0
C1259 C 0.98333 0.34343 0.98012 0.0
C1260 C 0.00554 0.35681 0.94475 0.0
C1261 C 1.00001 0.37821 0.93369 0.0
C1262 C 0.99977 0.37859 0.90941 0.0
C1263 C 0.00536 0.35652 0.89606 0.0
C1264 C 0.01114 0.33435 0.907 0.0
C1265 C 0.01117 0.33459 0.93169 0.0
H1266 H 0.68274 0.78562 0.24796 0.0
H1267 H 0.73627 0.82379 0.30417 0.0
H1268 H 0.7044 0.81372 0.33299 0.0
H1269 H 0.62554 0.80743 0.27013 0.0
H1270 H 0.60556 0.77801 0.26102 0.0
H1271 H 0.63298 0.7872 0.24501 0.0
H1272 H 0.65125 0.74392 0.25126 0.0
H1273 H 0.62385 0.73458 0.26726 0.0
H1274 H 0.65622 0.73451 0.28064 0.0
H1275 H 0.66639 0.80044 0.35544 0.0
H1276 H 0.62475 0.78521 0.37006 0.0
H1277 H 0.59581 0.75604 0.29904 0.0
C1278 C 0.68787 0.79166 0.26635 0.0
C1279 C 0.71204 0.80536 0.27394 0.0
C1280 C 0.71788 0.81317 0.2981 0.0
C1281 C 0.69993 0.80754 0.31455 0.0
C1282 C 0.67621 0.79412 0.30651 0.0
C1283 C 0.67014 0.78627 0.28299 0.0
C1284 C 0.64303 0.77274 0.27889 0.0
C1285 C 0.62576 0.78722 0.26282 0.0
C1286 C 0.64363 0.74478 0.26893 0.0
C1287 C 0.63476 0.77433 0.30376 0.0
C1288 C 0.65422 0.78665 0.31943 0.0
C1289 C 0.65103 0.79069 0.34335 0.0
C1290 C 0.62729 0.78196 0.35148 0.0
C1291 C 0.60698 0.76939 0.33572 0.0
C1292 C 0.61092 0.76551 0.31156 0.0
H1293 H 0.0385 0.12042 0.0099 0.0
H1294 H 0.11641 0.11176 0.99007 0.0
H1295 H 0.11105 0.14243 0.96021 0.0
H1296 H 0.00945 0.12643 0.95158 0.0
H1297 H 0.98894 0.15035 0.96135 0.0
H1298 H 0.99851 0.12715 0.98078 0.0
H1299 H 0.0172 0.16376 0.01207 0.0
H1300 H 0.00765 0.18706 0.99275 0.0
H1301 H 0.04089 0.18811 0.00424 0.0
H1302 H 0.09746 0.17372 0.93257 0.0
H1303 H 0.07724 0.20543 0.90997 0.0
H1304 H 0.00839 0.1951 0.94824 0.0
C1305 C 0.05437 0.12493 0.9992 0.0
C1306 C 0.07789 0.11367 1.00218 0.0
C1307 C 0.09826 0.1202 0.98801 0.0
C1308 C 0.09538 0.13753 0.97099 0.0
C1309 C 0.07201 0.14832 0.96844 0.0
C1310 C 0.05189 0.14243 0.98221 0.0
C1311 C 0.0291 0.15738 0.97626 0.0
C1312 C 0.00508 0.13924 0.96693 0.0
C1313 C 0.02339 0.17513 0.9976 0.0
C1314 C 0.03962 0.17257 0.95705 0.0
C1315 C 0.06433 0.16687 0.95273 0.0
C1316 C 0.07811 0.17838 0.93579 0.0
C1317 C 0.06642 0.19636 0.92302 0.0
C1318 C 0.04122 0.20284 0.92732 0.0
C1319 C 0.02767 0.19063 0.94453 0.0
H1320 H 0.38363 0.30522 0.24622 0.0
H1321 H 0.34421 0.22846 0.2361 0.0
H1322 H 0.37303 0.21695 0.2052 0.0
H1323 H 0.39583 0.31217 0.18567 0.0
H1324 H 0.42767 0.32872 0.19252 0.0
H1325 H 0.40338 0.33136 0.21328 0.0
H1326 H 0.43417 0.31554 0.24522 0.0
H1327 H 0.45855 0.31282 0.22455 0.0
H1328 H 0.44765 0.2855 0.23948 0.0
H1329 H 0.40462 0.21414 0.17473 0.0
H1330 H 0.43983 0.21889 0.14829 0.0
H1331 H 0.46157 0.29638 0.17986 0.0
C1332 C 0.38102 0.28608 0.23734 0.0
C1333 C 0.36155 0.26773 0.24323 0.0
C1334 C 0.35896 0.24274 0.23165 0.0
C1335 C 0.37519 0.23606 0.2141 0.0
C1336 C 0.3942 0.25451 0.20865 0.0
C1337 C 0.39747 0.2789 0.22006 0.0
C1338 C 0.42018 0.29466 0.21137 0.0
C1339 C 0.41122 0.31811 0.20003 0.0
C1340 C 0.44139 0.30259 0.23135 0.0
C1341 C 0.42897 0.27533 0.19319 0.0
C1342 C 0.41347 0.25242 0.19178 0.0
C1343 C 0.41704 0.2319 0.17577 0.0
C1344 C 0.43702 0.23482 0.16079 0.0
C1345 C 0.45347 0.25792 0.16215 0.0
C1346 C 0.44945 0.2784 0.17866 0.0
H1347 H 0.5814 0.42331 0.03777 0.0
H1348 H 0.50631 0.44707 0.01641 0.0
H1349 H 0.48521 0.41493 0.0396 0.0
H1350 H 0.56147 0.35688 0.03418 0.0
H1351 H 0.58176 0.35066 0.05943 0.0
H1352 H 0.59126 0.37681 0.04258 0.0
H1353 H 0.59447 0.40836 0.08013 0.0
H1354 H 0.58508 0.38226 0.09714 0.0
H1355 H 0.56697 0.40986 0.09751 0.0
H1356 H 0.47201 0.37888 0.06343 0.0
H1357 H 0.46765 0.34148 0.08659 0.0
H1358 H 0.55122 0.34071 0.09224 0.0
C1359 C 0.56055 0.42194 0.03829 0.0
C1360 C 0.5455 0.43765 0.02533 0.0
C1361 C 0.51824 0.43518 0.02616 0.0
C1362 C 0.50607 0.41701 0.03933 0.0
C1363 C 0.5214 0.40148 0.05158 0.0
C1364 C 0.54805 0.40378 0.05126 0.0
C1365 C 0.5599 0.38397 0.06519 0.0
C1366 C 0.57445 0.36602 0.0494 0.0
C1367 C 0.57765 0.39689 0.08624 0.0
C1368 C 0.53573 0.37003 0.07314 0.0
C1369 C 0.51375 0.38053 0.06521 0.0
C1370 C 0.48908 0.37058 0.06988 0.0
C1371 C 0.48682 0.3493 0.08302 0.0
C1372 C 0.50907 0.33814 0.09127 0.0
C1373 C 0.53383 0.3488 0.08627 0.0
H1374 H 0.67429 0.24073 0.2647 0.0
H1375 H 0.72573 0.23859 0.20825 0.0
H1376 H 0.69049 0.24911 0.18067 0.0
H1377 H 0.61755 0.21137 0.22985 0.0
H1378 H 0.59564 0.2307 0.24458 0.0
H1379 H 0.6251 0.22378 0.26009 0.0
H1380 H 0.63816 0.27235 0.27006 0.0
H1381 H 0.60877 0.27942 0.2545 0.0
H1382 H 0.63965 0.29313 0.24664 0.0
H1383 H 0.65024 0.26002 0.1594 0.0
H1384 H 0.60644 0.26825 0.14488 0.0
H1385 H 0.58029 0.26221 0.21478 0.0
C1386 C 0.67813 0.24258 0.24656 0.0
C1387 C 0.70274 0.23904 0.23853 0.0
C1388 C 0.70698 0.24132 0.21466 0.0
C1389 C 0.68714 0.24734 0.19891 0.0
C1390 C 0.66313 0.25084 0.20734 0.0
C1391 C 0.65843 0.24838 0.23053 0.0
C1392 C 0.63059 0.25239 0.23478 0.0
C1393 C 0.61638 0.22811 0.24279 0.0
C1394 C 0.62922 0.27571 0.25255 0.0
C1395 C 0.62041 0.25744 0.21035 0.0
C1396 C 0.6396 0.25664 0.19487 0.0
C1397 C 0.63501 0.26068 0.17133 0.0
C1398 C 0.61004 0.2654 0.16327 0.0
C1399 C 0.58987 0.26587 0.17867 0.0
C1400 C 0.59527 0.26198 0.20257 0.0
H1401 H 0.49335 0.1273 0.99858 0.0
H1402 H 0.49006 0.06411 0.04251 0.0
H1403 H 0.50094 0.09454 0.0778 0.0
H1404 H 0.54666 0.16677 0.03259 0.0
H1405 H 0.53284 0.19634 0.02829 0.0
H1406 H 0.52625 0.16949 0.00637 0.0
H1407 H 0.47701 0.17161 0.00921 0.0
H1408 H 0.48343 0.19838 0.03119 0.0
H1409 H 0.46371 0.17014 0.03735 0.0
H1410 H 0.51111 0.13154 0.10819 0.0
H1411 H 0.51893 0.173 0.13213 0.0
H1412 H 0.51458 0.21261 0.06869 0.0
C1413 C 0.49531 0.11992 0.01562 0.0
C1414 C 0.49099 0.0934 0.01791 0.0
C1415 C 0.49321 0.08439 0.04048 0.0
C1416 C 0.49947 0.10149 0.06057 0.0
C1417 C 0.50332 0.12754 0.05778 0.0
C1418 C 0.50129 0.13677 0.03592 0.0
C1419 C 0.50527 0.16577 0.03795 0.0
C1420 C 0.52918 0.17514 0.02557 0.0
C1421 C 0.4809 0.17713 0.02836 0.0
C1422 C 0.50972 0.17137 0.06438 0.0
C1423 C 0.50869 0.14902 0.07543 0.0
C1424 C 0.51202 0.14919 0.09975 0.0
C1425 C 0.51645 0.17287 0.1132 0.0
C1426 C 0.51736 0.19608 0.10231 0.0
C1427 C 0.51399 0.19522 0.07754 0.0
H1428 H 0.28928 0.36809 0.72785 0.0
H1429 H 0.26142 0.37469 0.65566 0.0
H1430 H 0.28942 0.41512 0.65575 0.0
H1431 H 0.29269 0.43537 0.74722 0.0
H1432 H 0.32179 0.43516 0.76615 0.0
H1433 H 0.29964 0.40662 0.7604 0.0
H1434 H 0.33681 0.38136 0.74583 0.0
H1435 H 0.35906 0.40984 0.75149 0.0
H1436 H 0.35521 0.39279 0.72264 0.0
H1437 H 0.31993 0.45496 0.66368 0.0
H1438 H 0.3514 0.49149 0.67886 0.0
H1439 H 0.35968 0.4591 0.7459 0.0
C1440 C 0.28898 0.37814 0.71212 0.0
C1441 C 0.27327 0.36818 0.69171 0.0
C1442 C 0.27359 0.38177 0.67139 0.0
C1443 C 0.28931 0.40481 0.6713 0.0
C1444 C 0.30464 0.41403 0.69166 0.0
C1445 C 0.30465 0.40115 0.7117 0.0
C1446 C 0.32306 0.41522 0.73118 0.0
C1447 C 0.30841 0.42359 0.7525 0.0
C1448 C 0.34483 0.39882 0.73819 0.0
C1449 C 0.33332 0.43804 0.71896 0.0
C1450 C 0.3224 0.43699 0.69619 0.0
C1451 C 0.32866 0.45599 0.68148 0.0
C1452 C 0.34655 0.47668 0.69027 0.0
C1453 C 0.35804 0.47817 0.71355 0.0
C1454 C 0.35131 0.4585 0.728 0.0
H1455 H 0.28687 0.66529 0.832 0.0
H1456 H 0.27828 0.69326 0.76307 0.0
H1457 H 0.30812 0.6629 0.74823 0.0
H1458 H 0.3547 0.65619 0.83152 0.0
H1459 H 0.35189 0.62732 0.84635 0.0
H1460 H 0.32991 0.65133 0.85163 0.0
H1461 H 0.2909 0.61742 0.83978 0.0
H1462 H 0.31274 0.59331 0.83451 0.0
H1463 H 0.28904 0.59906 0.81159 0.0
H1464 H 0.33922 0.63014 0.74103 0.0
H1465 H 0.36814 0.59563 0.74129 0.0
H1466 H 0.35625 0.58831 0.81481 0.0
C1467 C 0.29138 0.66507 0.81382 0.0
C1468 C 0.28024 0.68157 0.79865 0.0
C1469 C 0.28637 0.68056 0.7749 0.0
C1470 C 0.30342 0.66351 0.76637 0.0
C1471 C 0.31409 0.64754 0.78177 0.0
C1472 C 0.30824 0.64804 0.80496 0.0
C1473 C 0.32204 0.62849 0.81769 0.0
C1474 C 0.34075 0.64162 0.838 0.0
C1475 C 0.30251 0.60838 0.8264 0.0
C1476 C 0.33657 0.61695 0.79803 0.0
C1477 C 0.33181 0.62833 0.77751 0.0
C1478 C 0.34308 0.62104 0.75697 0.0
C1479 C 0.35953 0.60143 0.75733 0.0
C1480 C 0.36447 0.5892 0.77806 0.0
C1481 C 0.35285 0.59722 0.79868 0.0
H1482 H 0.89759 0.52194 0.49357 0.0
H1483 H 0.95914 0.47485 0.47643 0.0
H1484 H 0.93154 0.43633 0.48406 0.0
H1485 H 0.8763 0.48798 0.54108 0.0
H1486 H 0.84242 0.49105 0.53446 0.0
H1487 H 0.86646 0.51499 0.52658 0.0
H1488 H 0.84758 0.50814 0.48322 0.0
H1489 H 0.82333 0.48435 0.491 0.0
H1490 H 0.84418 0.4764 0.46818 0.0
H1491 H 0.89835 0.40328 0.49521 0.0
H1492 H 0.86039 0.37715 0.50672 0.0
H1493 H 0.82014 0.44548 0.51687 0.0
C1494 C 0.9052 0.5035 0.49132 0.0
C1495 C 0.93048 0.5014 0.48424 0.0
C1496 C 0.93969 0.47691 0.4814 0.0
C1497 C 0.92424 0.45493 0.48589 0.0
C1498 C 0.89961 0.45773 0.49318 0.0
C1499 C 0.89001 0.48133 0.49569 0.0
C1500 C 0.86289 0.47899 0.50391 0.0
C1501 C 0.86198 0.49415 0.52793 0.0
C1502 C 0.84334 0.48747 0.48547 0.0
C1503 C 0.85886 0.4504 0.50578 0.0
C1504 C 0.88033 0.43856 0.49957 0.0
C1505 C 0.88136 0.41229 0.50003 0.0
C1506 C 0.85971 0.39764 0.50668 0.0
C1507 C 0.83727 0.40925 0.51272 0.0
C1508 C 0.83701 0.43604 0.51242 0.0
H1509 H 0.75353 0.85979 0.77665 0.0
H1510 H 0.70486 0.80289 0.8083 0.0
H1511 H 0.66716 0.82705 0.80066 0.0
H1512 H 0.72401 0.91423 0.79861 0.0
H1513 H 0.72673 0.93054 0.77234 0.0
H1514 H 0.74974 0.90847 0.77991 0.0
H1515 H 0.73893 0.88277 0.73929 0.0
H1516 H 0.71585 0.90476 0.7316 0.0
H1517 H 0.70583 0.87095 0.73021 0.0
H1518 H 0.63493 0.85819 0.79061 0.0
H1519 H 0.6108 0.89402 0.77904 0.0
H1520 H 0.68025 0.92968 0.75275 0.0
C1521 C 0.73489 0.85218 0.7817 0.0
C1522 C 0.73224 0.82941 0.79314 0.0
C1523 C 0.70752 0.82045 0.79983 0.0
C1524 C 0.68592 0.83394 0.7954 0.0
C1525 C 0.68927 0.85632 0.78415 0.0
C1526 C 0.71312 0.86535 0.77734 0.0
C1527 C 0.71163 0.89015 0.76593 0.0
C1528 C 0.72906 0.91214 0.78005 0.0
C1529 C 0.71846 0.88695 0.74023 0.0
C1530 C 0.68324 0.89376 0.76752 0.0
C1531 C 0.67066 0.87403 0.77806 0.0
C1532 C 0.64454 0.87365 0.78217 0.0
C1533 C 0.63099 0.89409 0.77554 0.0
C1534 C 0.64354 0.9146 0.76485 0.0
C1535 C 0.66997 0.91417 0.76061 0.0
H1536 H 0.60553 0.54076 0.99676 0.0
H1537 H 0.6201 0.51374 0.92564 0.0
H1538 H 0.66132 0.54141 0.9293 0.0
H1539 H 0.63135 0.60554 0.99484 0.0
H1540 H 0.64563 0.60907 0.02464 0.0
H1541 H 0.61738 0.58688 0.01659 0.0
H1542 H 0.64159 0.55009 0.03211 0.0
H1543 H 0.66991 0.5722 0.04028 0.0
H1544 H 0.67219 0.54371 0.02107 0.0
H1545 H 0.70052 0.5726 0.94033 0.0
H1546 H 0.73538 0.60468 0.95824 0.0
H1547 H 0.69589 0.61068 0.02255 0.0
C1548 C 0.61752 0.54042 0.98205 0.0
C1549 C 0.60946 0.52515 0.96085 0.0
C1550 C 0.62561 0.52557 0.94191 0.0
C1551 C 0.64915 0.5411 0.94387 0.0
C1552 C 0.65639 0.55604 0.96492 0.0
C1553 C 0.64113 0.55577 0.98372 0.0
C1554 C 0.65333 0.57382 0.00432 0.0
C1555 C 0.63588 0.59508 0.01044 0.0
C1556 C 0.65963 0.55907 0.02571 0.0
C1557 C 0.67776 0.58437 0.99411 0.0
C1558 C 0.67914 0.57386 0.97136 0.0
C1559 C 0.69971 0.5809 0.95817 0.0
C1560 C 0.71941 0.59917 0.9685 0.0
C1561 C 0.71844 0.61019 0.99182 0.0
C1562 C 0.69729 0.60257 0.00472 0.0
H1563 H 0.27114 0.64926 0.19908 0.0
H1564 H 0.28316 0.67889 0.27236 0.0
H1565 H 0.25016 0.64575 0.28258 0.0
H1566 H 0.20125 0.63161 0.19839 0.0
H1567 H 0.20212 0.60281 0.17922 0.0
H1568 H 0.22543 0.62992 0.17739 0.0
H1569 H 0.26273 0.60129 0.18388 0.0
H1570 H 0.23956 0.57414 0.18583 0.0
H1571 H 0.26417 0.58356 0.20944 0.0
H1572 H 0.21728 0.60876 0.28515 0.0
H1573 H 0.18682 0.56968 0.28009 0.0
H1574 H 0.19648 0.56311 0.20518 0.0
C1575 C 0.26647 0.64895 0.21719 0.0
C1576 C 0.2796 0.6666 0.23496 0.0
C1577 C 0.27337 0.66541 0.25854 0.0
C1578 C 0.25462 0.64675 0.26449 0.0
C1579 C 0.2423 0.62936 0.24665 0.0
C1580 C 0.24792 0.63024 0.22348 0.0
C1581 C 0.23267 0.60849 0.20793 0.0
C1582 C 0.21427 0.61883 0.18965 0.0
C1583 C 0.25087 0.59082 0.19608 0.0
C1584 C 0.21782 0.59516 0.22602 0.0
C1585 C 0.22354 0.60766 0.2482 0.0
C1586 C 0.21255 0.59884 0.26785 0.0
C1587 C 0.19527 0.57659 0.26479 0.0
C1588 C 0.18923 0.56328 0.24225 0.0
C1589 C 0.20066 0.57283 0.22264 0.0
H1590 H 0.91424 0.54048 0.05503 0.0
H1591 H 0.98285 0.57245 0.02515 0.0
H1592 H 0.95968 0.60911 0.01366 0.0
H1593 H 0.86957 0.55544 0.01049 0.0
H1594 H 0.84479 0.563 0.0297 0.0
H1595 H 0.86746 0.54079 0.03771 0.0
H1596 H 0.88057 0.56828 0.07711 0.0
H1597 H 0.85779 0.59051 0.06929 0.0
H1598 H 0.89132 0.60177 0.07687 0.0
H1599 H 0.92833 0.64075 0.00349 0.0
H1600 H 0.89103 0.66515 0.99497 0.0
H1601 H 0.84223 0.61195 0.03064 0.0
C1602 C 0.92442 0.55557 0.04654 0.0
C1603 C 0.95034 0.55412 0.04125 0.0
C1604 C 0.96306 0.57364 0.02957 0.0
C1605 C 0.95006 0.59443 0.02299 0.0
C1606 C 0.92433 0.59523 0.02815 0.0
C1607 C 0.91164 0.57636 0.0397 0.0
C1608 C 0.88356 0.58101 0.0419 0.0
C1609 C 0.86528 0.55874 0.02919 0.0
C1610 C 0.87799 0.58568 0.06784 0.0
C1611 C 0.88232 0.60519 0.02945 0.0
C1612 C 0.90611 0.6132 0.02185 0.0
C1613 C 0.90965 0.63476 0.00948 0.0
C1614 C 0.88831 0.64848 0.00471 0.0
C1615 C 0.86367 0.64051 0.01212 0.0
C1616 C 0.86079 0.6186 0.02475 0.0
H1617 H 0.10541 0.00798 0.01543 0.0
H1618 H 0.10631 1.00077 0.09047 0.0
H1619 H 0.13948 0.97053 0.08713 0.0
H1620 H 0.11542 0.94294 0.99726 0.0
H1621 H 0.13667 0.95125 0.97495 0.0
H1622 H 0.11218 0.97175 0.98286 0.0
H1623 H 0.14717 0.01023 0.99202 0.0
H1624 H 0.17175 0.9899 0.98397 0.0
H1625 H 0.1745 0.00763 0.0125 0.0
H1626 H 0.17215 0.94086 0.0759 0.0
H1627 H 0.20477 0.91601 0.05798 0.0
H1628 H 0.18487 0.94414 0.99059 0.0
C1629 C 0.1127 1.00026 0.03123 0.0
C1630 C 0.10286 0.00659 0.05318 0.0
C1631 C 0.11294 0.9958 0.07333 0.0
C1632 C 0.13195 0.97869 0.07166 0.0
C1633 C 0.14097 0.9727 0.04977 0.0
C1634 C 0.13193 0.98333 0.02994 0.0
C1635 C 0.14558 0.97423 0.00868 0.0
C1636 C 0.12631 0.95915 0.98983 0.0
C1637 C 0.16065 0.99684 0.99871 0.0
C1638 C 0.16372 0.95688 0.01972 0.0
C1639 C 0.16053 0.95611 0.0434 0.0
C1640 C 0.17491 0.94134 0.05739 0.0
C1641 C 0.19335 0.92723 0.047 0.0
C1642 C 0.19745 0.92813 0.02287 0.0
C1643 C 0.18224 0.94306 0.00908 0.0
loop_
_geom_bond_atom_site_label_1
_geom_bond_atom_site_label_2
_geom_bond_distance
_geom_bond_site_symmetry_2
_ccdc_geom_bond_type
H0 C5 0.930 . S
H1 C8 0.930 . S
H2 C10 0.930 . S
H3 C4 1.016 1_556 S
C4 H3 1.016 1_554 S
C4 N11 1.286 . S
C5 H0 0.930 . S
C5 C6 1.397 . S
C5 C7 1.361 . S
C6 C5 1.397 . S
C6 C10 1.390 . S
C7 C5 1.361 . S
C7 C8 1.393 . S
C7 N11 1.413 . S
C8 H1 0.930 . S
C8 C7 1.393 . S
C8 C9 1.399 . S
C9 C8 1.399 . S
C9 C10 1.381 . S
C10 H2 0.930 . S
C10 C6 1.390 . S
C10 C9 1.381 . S
N11 C4 1.286 . S
N11 C7 1.413 . S
H12 C17 0.930 . S
H13 C20 0.930 . S
H14 C22 0.930 . S
H15 C16 1.016 . S
C16 H15 1.016 . S
C16 N23 1.286 . S
C17 H12 0.930 . S
C17 C18 1.397 . S
C17 C19 1.361 . S
C18 C17 1.397 . S
C18 C22 1.390 . S
C19 C17 1.361 . S
C19 C20 1.393 . S
C19 N23 1.413 . S
C20 H13 0.930 . S
C20 C19 1.393 . S
C20 C21 1.399 . S
C21 C20 1.399 . S
C21 C22 1.381 . S
C22 H14 0.930 . S
C22 C18 1.390 . S
C22 C21 1.381 . S
N23 C16 1.286 . S
N23 C19 1.413 . S
H24 C29 0.930 . S
H25 C32 0.930 . S
H26 C34 0.930 . S
H27 C28 1.034 1_455 S
C28 H27 1.034 1_655 S
C28 N35 1.297 . S
C29 H24 0.930 . S
C29 C30 1.397 . S
C29 C31 1.361 . S
C30 C29 1.397 . S
C30 C34 1.390 . S
C31 C29 1.361 . S
C31 C32 1.393 . S
C31 N35 1.413 . S
C32 H25 0.930 . S
C32 C31 1.393 . S
C32 C33 1.399 . S
C33 C32 1.399 . S
C33 C34 1.381 . S
C34 H26 0.930 . S
C34 C30 1.390 . S
C34 C33 1.381 . S
N35 C28 1.297 . S
N35 C31 1.413 . S
H36 C41 0.930 . S
H37 C44 0.930 . S
H38 C46 0.930 . S
H39 C40 1.016 . S
C40 H39 1.016 . S
C40 N47 1.286 . S
C41 H36 0.930 . S
C41 C42 1.397 . S
C41 C43 1.361 . S
C42 C41 1.397 . S
C42 C46 1.390 . S
C43 C41 1.361 . S
C43 C44 1.393 . S
C43 N47 1.413 . S
C44 H37 0.930 . S
C44 C43 1.393 . S
C44 C45 1.399 . S
C45 C44 1.399 . S
C45 C46 1.381 . S
C46 H38 0.930 . S
C46 C42 1.390 . S
C46 C45 1.381 . S
N47 C40 1.286 . S
N47 C43 1.413 . S
H48 C53 0.930 . S
H49 C56 0.930 . S
H50 C58 0.930 . S
H51 C52 1.016 . S
C52 H51 1.016 . S
C52 N59 1.286 . S
C53 H48 0.930 . S
C53 C54 1.397 . S
C53 C55 1.361 . S
C54 C53 1.397 . S
C54 C58 1.390 1_565 S
C55 C53 1.361 . S
C55 C56 1.393 . S
C55 N59 1.413 . S
C56 H49 0.930 . S
C56 C55 1.393 . S
C56 C57 1.399 1_565 S
C57 C56 1.399 1_545 S
C57 C58 1.381 . S
C58 H50 0.930 . S
C58 C54 1.390 1_545 S
C58 C57 1.381 . S
N59 C52 1.286 . S
N59 C55 1.413 . S
H60 C65 0.930 . S
H61 C68 0.930 . S
H62 C70 0.930 . S
H63 C64 1.016 . S
C64 H63 1.016 . S
C64 N71 1.286 . S
C65 H60 0.930 . S
C65 C66 1.397 . S
C65 C67 1.361 . S
C66 C65 1.397 . S
C66 C70 1.390 . S
C67 C65 1.361 . S
C67 C68 1.393 . S
C67 N71 1.413 . S
C68 H61 0.930 . S
C68 C67 1.393 . S
C68 C69 1.399 . S
C69 C68 1.399 . S
C69 C70 1.381 . S
C70 H62 0.930 . S
C70 C66 1.390 . S
C70 C69 1.381 . S
N71 C64 1.286 . S
N71 C67 1.413 . S
H72 C77 0.930 1_455 S
H73 C80 0.930 . S
H74 C82 0.930 . S
H75 C76 1.016 . S
C76 H75 1.016 . S
C76 N83 1.286 . S
C77 H72 0.930 1_655 S
C77 C78 1.397 . S
C77 C79 1.361 . S
C78 C77 1.397 . S
C78 C82 1.390 . S
C79 C77 1.361 . S
C79 C80 1.393 . S
C79 N83 1.413 1_655 S
C80 H73 0.930 . S
C80 C79 1.393 . S
C80 C81 1.399 . S
C81 C80 1.399 . S
C81 C82 1.381 . S
C82 H74 0.930 . S
C82 C78 1.390 . S
C82 C81 1.381 . S
N83 C76 1.286 . S
N83 C79 1.413 1_455 S
H84 C89 0.930 . S
H85 C92 0.930 . S
H86 C94 0.930 . S
H87 C88 1.016 . S
C88 H87 1.016 . S
C88 N95 1.286 . S
C89 H84 0.930 . S
C89 C90 1.397 . S
C89 C91 1.361 . S
C90 C89 1.397 . S
C90 C94 1.390 . S
C91 C89 1.361 . S
C91 C92 1.393 . S
C91 N95 1.413 . S
C92 H85 0.930 . S
C92 C91 1.393 . S
C92 C93 1.399 . S
C93 C92 1.399 . S
C93 C94 1.381 . S
C94 H86 0.930 . S
C94 C90 1.390 . S
C94 C93 1.381 . S
N95 C88 1.286 . S
N95 C91 1.413 . S
H96 C101 0.930 . S
H97 C104 0.930 . S
H98 C106 0.930 . S
H99 C100 1.016 . S
C100 H99 1.016 . S
C100 N107 1.286 . S
C101 H96 0.930 . S
C101 C102 1.397 . S
C101 C103 1.361 . S
C102 C101 1.397 . S
C102 C106 1.390 . S
C103 C101 1.361 . S
C103 C104 1.393 . S
C103 N107 1.413 . S
C104 H97 0.930 . S
C104 C103 1.393 . S
C104 C105 1.399 . S
C105 C104 1.399 . S
C105 C106 1.381 . S
C106 H98 0.930 . S
C106 C102 1.390 . S
C106 C105 1.381 . S
N107 C100 1.286 . S
N107 C103 1.413 . S
H108 C113 0.930 . S
H109 C116 0.930 . S
H110 C118 0.930 . S
H111 C112 1.016 . S
C112 H111 1.016 . S
C112 N119 1.286 . S
C113 H108 0.930 . S
C113 C114 1.397 1_565 S
C113 C115 1.361 . S
C114 C113 1.397 1_545 S
C114 C118 1.390 . S
C115 C113 1.361 . S
C115 C116 1.393 . S
C115 N119 1.413 . S
C116 H109 0.930 . S
C116 C115 1.393 . S
C116 C117 1.399 . S
C117 C116 1.399 . S
C117 C118 1.381 1_565 S
C118 H110 0.930 . S
C118 C114 1.390 . S
C118 C117 1.381 1_545 S
N119 C112 1.286 . S
N119 C115 1.413 . S
H120 C125 0.930 . S
H121 C128 0.930 . S
H122 C130 0.930 . S
H123 C124 1.016 . S
C124 H123 1.016 . S
C124 N131 1.286 . S
C125 H120 0.930 . S
C125 C126 1.397 . S
C125 C127 1.361 . S
C126 C125 1.397 . S
C126 C130 1.390 . S
C127 C125 1.361 . S
C127 C128 1.393 . S
C127 N131 1.413 . S
C128 H121 0.930 . S
C128 C127 1.393 . S
C128 C129 1.399 . S
C129 C128 1.399 . S
C129 C130 1.381 . S
C130 H122 0.930 . S
C130 C126 1.390 . S
C130 C129 1.381 . S
N131 C124 1.286 . S
N131 C127 1.413 . S
H132 C137 0.930 . S
H133 C140 0.930 . S
H134 C142 0.930 . S
H135 C136 1.016 . S
C136 H135 1.016 . S
C136 N143 1.286 . S
C137 H132 0.930 . S
C137 C138 1.397 . S
C137 C139 1.361 . S
C138 C137 1.397 . S
C138 C142 1.390 . S
C139 C137 1.361 . S
C139 C140 1.393 . S
C139 N143 1.413 . S
C140 H133 0.930 . S
C140 C139 1.393 . S
C140 C141 1.399 . S
C141 C140 1.399 . S
C141 C142 1.381 . S
C142 H134 0.930 . S
C142 C138 1.390 . S
C142 C141 1.381 . S
N143 C136 1.286 . S
N143 C139 1.413 . S
H144 C149 0.930 . S
H145 C152 0.930 . S
H146 C154 0.930 . S
H147 C148 1.016 . S
C148 H147 1.016 . S
C148 N155 1.286 . S
C149 H144 0.930 . S
C149 C150 1.397 . S
C149 C151 1.361 . S
C150 C149 1.397 . S
C150 C154 1.390 . S
C151 C149 1.361 . S
C151 C152 1.393 . S
C151 N155 1.413 . S
C152 H145 0.930 . S
C152 C151 1.393 . S
C152 C153 1.399 . S
C153 C152 1.399 . S
C153 C154 1.381 . S
C154 H146 0.930 . S
C154 C150 1.390 . S
C154 C153 1.381 . S
N155 C148 1.286 . S
N155 C151 1.413 . S
H156 C161 0.930 . S
H157 C164 0.930 . S
H158 C166 0.930 . S
H159 C160 1.016 1_554 S
C160 H159 1.016 1_556 S
C160 N167 1.286 . S
C161 H156 0.930 . S
C161 C162 1.397 . S
C161 C163 1.361 . S
C162 C161 1.397 . S
C162 C166 1.390 . S
C163 C161 1.361 . S
C163 C164 1.393 . S
C163 N167 1.413 . S
C164 H157 0.930 . S
C164 C163 1.393 . S
C164 C165 1.399 . S
C165 C164 1.399 . S
C165 C166 1.381 . S
C166 H158 0.930 . S
C166 C162 1.390 . S
C166 C165 1.381 . S
N167 C160 1.286 . S
N167 C163 1.413 . S
H168 C173 0.930 . S
H169 C176 0.930 . S
H170 C178 0.930 . S
H171 C172 1.016 . S
C172 H171 1.016 . S
C172 N179 1.286 . S
C173 H168 0.930 . S
C173 C174 1.397 . S
C173 C175 1.361 . S
C174 C173 1.397 . S
C174 C178 1.390 . S
C175 C173 1.361 . S
C175 C176 1.393 . S
C175 N179 1.413 . S
C176 H169 0.930 . S
C176 C175 1.393 . S
C176 C177 1.399 . S
C177 C176 1.399 . S
C177 C178 1.381 . S
C178 H170 0.930 . S
C178 C174 1.390 . S
C178 C177 1.381 . S
N179 C172 1.286 . S
N179 C175 1.413 . S
H180 C185 0.930 . S
H181 C188 0.930 . S
H182 C190 0.930 1_554 S
H183 C184 1.016 . S
C184 H183 1.016 . S
C184 N191 1.286 . S
C185 H180 0.930 . S
C185 C186 1.397 . S
C185 C187 1.361 . S
C186 C185 1.397 . S
C186 C190 1.390 . S
C187 C185 1.361 . S
C187 C188 1.393 . S
C187 N191 1.413 . S
C188 H181 0.930 . S
C188 C187 1.393 . S
C188 C189 1.399 . S
C189 C188 1.399 . S
C189 C190 1.381 . S
C190 H182 0.930 1_556 S
C190 C186 1.390 . S
C190 C189 1.381 . S
N191 C184 1.286 . S
N191 C187 1.413 . S
C192 O193 1.186 . S
C192 O199 1.185 . S
O193 C192 1.186 . S
O194 Zn195 1.899 1_556 S
O194 C202 1.284 . S
Zn195 O194 1.899 1_554 S
Zn195 O196 2.032 . S
Zn195 O199 2.086 . S
Zn195 O204 1.977 . S
O196 Zn195 2.032 . S
O196 C200 1.278 . S
C197 O198 1.203 . S
C197 O204 1.267 . S
O198 C197 1.203 . S
O199 C192 1.185 . S
O199 Zn195 2.086 . S
C200 O196 1.278 . S
C200 O201 1.211 . S
O201 C200 1.211 . S
C202 O194 1.284 . S
C202 O203 1.273 . S
O203 C202 1.273 . S
O204 Zn195 1.977 . S
O204 C197 1.267 . S
C205 O206 1.160 . S
C205 O212 1.185 . S
O206 C205 1.160 . S
O207 Zn208 1.899 . S
O207 C215 1.284 . S
Zn208 O207 1.899 . S
Zn208 O209 2.032 . S
Zn208 O212 2.086 . S
Zn208 O217 1.977 . S
O209 Zn208 2.032 . S
O209 C213 1.278 . S
C210 O211 1.203 . S
C210 O217 1.267 . S
O211 C210 1.203 . S
O212 C205 1.185 . S
O212 Zn208 2.086 . S
C213 O209 1.278 . S
C213 O214 1.211 . S
O214 C213 1.211 . S
C215 O207 1.284 . S
C215 O216 1.273 . S
O216 C215 1.273 . S
O217 Zn208 1.977 . S
O217 C210 1.267 . S
C218 O219 1.160 1_554 S
C218 O225 1.185 . S
O219 C218 1.160 1_556 S
O220 Zn221 1.899 1_556 S
O220 C228 1.284 . S
Zn221 O220 1.899 1_554 S
Zn221 O222 2.032 1_554 S
Zn221 O225 2.086 . S
Zn221 O230 1.977 . S
O222 Zn221 2.032 1_556 S
O222 C226 1.278 . S
C223 O224 1.203 . S
C223 O230 1.267 . S
O224 C223 1.203 . S
O225 C218 1.185 . S
O225 Zn221 2.086 . S
C226 O222 1.278 . S
C226 O227 1.211 1_556 S
O227 C226 1.211 1_554 S
C228 O220 1.284 . S
C228 O229 1.273 . S
O229 C228 1.273 . S
O230 Zn221 1.977 . S
O230 C223 1.267 . S
C231 O232 1.160 . S
C231 O238 1.185 . S
O232 C231 1.160 . S
O233 Zn234 1.899 . S
O233 C241 1.284 . S
Zn234 O233 1.899 . S
Zn234 O235 2.032 . S
Zn234 O238 2.086 . S
Zn234 O243 1.977 . S
O235 Zn234 2.032 . S
O235 C239 1.278 1_545 S
C236 O237 1.203 . S
C236 O243 1.267 . S
O237 C236 1.203 . S
O238 C231 1.185 . S
O238 Zn234 2.086 . S
C239 O235 1.278 1_565 S
C239 O240 1.211 . S
O240 C239 1.211 . S
C241 O233 1.284 . S
C241 O242 1.273 . S
O242 C241 1.273 . S
O243 Zn234 1.977 . S
O243 C236 1.267 . S
C244 O245 1.160 . S
C244 O251 1.185 . S
O245 C244 1.160 . S
O246 Zn247 1.899 . S
O246 C254 1.284 . S
Zn247 O246 1.899 . S
Zn247 O248 2.032 . S
Zn247 O251 2.086 . S
Zn247 O256 1.977 . S
O248 Zn247 2.032 . S
O248 C252 1.278 . S
C249 O250 1.203 . S
C249 O256 1.267 . S
O250 C249 1.203 . S
O251 C244 1.185 . S
O251 Zn247 2.086 . S
C252 O248 1.278 . S
C252 O253 1.211 . S
O253 C252 1.211 . S
C254 O246 1.284 . S
C254 O255 1.273 . S
O255 C254 1.273 . S
O256 Zn247 1.977 . S
O256 C249 1.267 . S
C257 O258 1.160 . S
C257 O264 1.185 . S
O258 C257 1.160 . S
O259 Zn260 1.899 . S
O259 C267 1.284 . S
Zn260 O259 1.899 . S
Zn260 O261 2.032 . S
Zn260 O264 2.086 . S
Zn260 O269 1.977 . S
O261 Zn260 2.032 . S
O261 C265 1.278 . S
C262 O263 1.203 . S
C262 O269 1.267 . S
O263 C262 1.203 . S
O264 C257 1.185 . S
O264 Zn260 2.086 . S
C265 O261 1.278 . S
C265 O266 1.211 . S
O266 C265 1.211 . S
C267 O259 1.284 . S
C267 O268 1.273 . S
O268 C267 1.273 . S
O269 Zn260 1.977 . S
O269 C262 1.267 . S
C270 O271 1.160 . S
C270 O277 1.185 . S
O271 C270 1.160 . S
O272 Zn273 1.899 . S
O272 C280 1.284 . S
Zn273 O272 1.899 . S
Zn273 O274 2.032 . S
Zn273 O277 2.086 . S
Zn273 O282 1.977 . S
O274 Zn273 2.032 . S
O274 C278 1.278 . S
C275 O276 1.203 . S
C275 O282 1.267 . S
O276 C275 1.203 . S
O277 C270 1.185 . S
O277 Zn273 2.086 . S
C278 O274 1.278 . S
C278 O279 1.211 . S
O279 C278 1.211 . S
C280 O272 1.284 . S
C280 O281 1.273 . S
O281 C280 1.273 . S
O282 Zn273 1.977 . S
O282 C275 1.267 . S
C283 O284 1.160 . S
C283 O290 1.185 . S
O284 C283 1.160 . S
O285 Zn286 1.899 . S
O285 C293 1.284 1_565 S
Zn286 O285 1.899 . S
Zn286 O287 2.032 1_565 S
Zn286 O290 2.086 . S
Zn286 O295 1.977 . S
O287 Zn286 2.032 1_545 S
O287 C291 1.278 . S
C288 O289 1.203 1_565 S
C288 O295 1.267 . S
O289 C288 1.203 1_545 S
O290 C283 1.185 . S
O290 Zn286 2.086 . S
C291 O287 1.278 . S
C291 O292 1.211 . S
O292 C291 1.211 . S
C293 O285 1.284 1_545 S
C293 O294 1.273 . S
O294 C293 1.273 . S
O295 Zn286 1.977 . S
O295 C288 1.267 . S
C296 O297 1.160 1_455 S
C296 O303 1.185 . S
O297 C296 1.160 1_655 S
O298 Zn299 1.899 1_655 S
O298 C306 1.284 . S
Zn299 O298 1.899 1_455 S
Zn299 O300 2.032 . S
Zn299 O303 2.086 . S
Zn299 O308 1.977 . S
O300 Zn299 2.032 . S
O300 C304 1.278 . S
C301 O302 1.203 . S
C301 O308 1.267 . S
O302 C301 1.203 . S
O303 C296 1.185 . S
O303 Zn299 2.086 . S
C304 O300 1.278 . S
C304 O305 1.211 . S
O305 C304 1.211 . S
C306 O298 1.284 . S
C306 O307 1.273 . S
O307 C306 1.273 . S
O308 Zn299 1.977 . S
O308 C301 1.267 . S
C309 O310 1.160 . S
C309 O316 1.185 . S
O310 C309 1.160 . S
O311 Zn312 1.899 . S
O311 C319 1.284 . S
Zn312 O311 1.899 . S
Zn312 O313 2.032 . S
Zn312 O316 2.086 . S
Zn312 O321 1.977 . S
O313 Zn312 2.032 . S
O313 C317 1.278 . S
C314 O315 1.203 . S
C314 O321 1.267 . S
O315 C314 1.203 . S
O316 C309 1.185 . S
O316 Zn312 2.086 . S
C317 O313 1.278 . S
C317 O318 1.211 . S
O318 C317 1.211 . S
C319 O311 1.284 . S
C319 O320 1.273 . S
O320 C319 1.273 . S
O321 Zn312 1.977 . S
O321 C314 1.267 . S
C322 O323 1.160 1_455 S
C322 O329 1.185 . S
O323 C322 1.160 1_655 S
O324 Zn325 1.899 1_655 S
O324 C332 1.284 . S
Zn325 O324 1.899 1_455 S
Zn325 O326 2.032 . S
Zn325 O329 2.086 . S
Zn325 O334 1.977 . S
O326 Zn325 2.032 . S
O326 C330 1.278 . S
C327 O328 1.203 . S
C327 O334 1.267 . S
O328 C327 1.203 . S
O329 C322 1.185 . S
O329 Zn325 2.086 . S
C330 O326 1.278 . S
C330 O331 1.211 . S
O331 C330 1.211 . S
C332 O324 1.284 . S
C332 O333 1.273 . S
O333 C332 1.273 . S
O334 Zn325 1.977 . S
O334 C327 1.267 . S
C335 O336 1.160 . S
C335 O342 1.185 . S
O336 C335 1.160 . S
O337 Zn338 1.899 . S
O337 C345 1.284 . S
Zn338 O337 1.899 . S
Zn338 O339 2.032 . S
Zn338 O342 2.086 . S
Zn338 O347 1.977 . S
O339 Zn338 2.032 . S
O339 C343 1.278 . S
C340 O341 1.203 . S
C340 O347 1.267 . S
O341 C340 1.203 . S
O342 C335 1.185 . S
O342 Zn338 2.086 . S
C343 O339 1.278 . S
C343 O344 1.211 . S
O344 C343 1.211 . S
C345 O337 1.284 . S
C345 O346 1.273 . S
O346 C345 1.273 . S
O347 Zn338 1.977 . S
O347 C340 1.267 . S
H348 C360 0.930 . S
H349 C362 0.930 . S
H350 C363 0.930 . S
H351 C367 0.959 . S
H352 C367 0.959 . S
H353 C367 0.961 . S
H354 C368 0.960 . S
H355 C368 0.961 . S
H356 C368 0.959 . S
H357 C371 0.929 . S
H358 C372 0.931 . S
H359 C374 0.930 . S
C360 H348 0.930 . S
C360 C361 1.399 . S
C360 C365 1.399 . S
C361 C360 1.399 . S
C361 C362 1.376 . S
C362 H349 0.930 . S
C362 C361 1.376 . S
C362 C363 1.388 . S
C363 H350 0.930 . S
C363 C362 1.388 . S
C363 C364 1.390 . S
C364 C363 1.390 . S
C364 C365 1.394 . S
C364 C370 1.465 . S
C365 C360 1.399 . S
C365 C364 1.394 . S
C365 C366 1.516 . S
C366 C365 1.516 . S
C366 C367 1.502 . S
C366 C368 1.561 . S
C366 C369 1.526 . S
C367 H351 0.959 . S
C367 H352 0.959 . S
C367 H353 0.961 . S
C367 C366 1.502 . S
C368 H354 0.960 . S
C368 H355 0.961 . S
C368 H356 0.959 . S
C368 C366 1.561 . S
C369 C366 1.526 . S
C369 C370 1.396 . S
C369 C374 1.390 . S
C370 C364 1.465 . S
C370 C369 1.396 . S
C370 C371 1.399 . S
C371 H357 0.929 . S
C371 C370 1.399 . S
C371 C372 1.385 . S
C372 H358 0.931 . S
C372 C371 1.385 . S
C372 C373 1.389 . S
C373 C372 1.389 . S
C373 C374 1.387 . S
C374 H359 0.930 . S
C374 C369 1.390 . S
C374 C373 1.387 . S
H375 C387 0.930 . S
H376 C389 0.930 . S
H377 C390 0.930 . S
H378 C394 0.959 . S
H379 C394 0.959 . S
H380 C394 0.961 . S
H381 C395 0.960 . S
H382 C395 0.961 . S
H383 C395 0.959 . S
H384 C398 0.929 . S
H385 C399 0.931 . S
H386 C401 0.930 . S
C387 H375 0.930 . S
C387 C388 1.399 . S
C387 C392 1.399 . S
C388 C387 1.399 . S
C388 C389 1.376 . S
C389 H376 0.930 . S
C389 C388 1.376 . S
C389 C390 1.388 . S
C390 H377 0.930 . S
C390 C389 1.388 . S
C390 C391 1.390 . S
C391 C390 1.390 . S
C391 C392 1.394 . S
C391 C397 1.465 . S
C392 C387 1.399 . S
C392 C391 1.394 . S
C392 C393 1.516 . S
C393 C392 1.516 . S
C393 C394 1.502 . S
C393 C395 1.561 . S
C393 C396 1.526 . S
C394 H378 0.959 . S
C394 H379 0.959 . S
C394 H380 0.961 . S
C394 C393 1.502 . S
C395 H381 0.960 . S
C395 H382 0.961 . S
C395 H383 0.959 . S
C395 C393 1.561 . S
C396 C393 1.526 . S
C396 C397 1.396 . S
C396 C401 1.390 . S
C397 C391 1.465 . S
C397 C396 1.396 . S
C397 C398 1.399 . S
C398 H384 0.929 . S
C398 C397 1.399 . S
C398 C399 1.385 . S
C399 H385 0.931 . S
C399 C398 1.385 . S
C399 C400 1.389 . S
C400 C399 1.389 . S
C400 C401 1.387 . S
C401 H386 0.930 . S
C401 C396 1.390 . S
C401 C400 1.387 . S
H402 C414 0.930 . S
H403 C416 0.930 . S
H404 C417 0.930 . S
H405 C421 0.959 . S
H406 C421 0.959 . S
H407 C421 0.961 . S
H408 C422 0.960 . S
H409 C422 0.961 . S
H410 C422 0.959 . S
H411 C425 0.929 . S
H412 C426 0.931 . S
H413 C428 0.930 . S
C414 H402 0.930 . S
C414 C415 1.399 . S
C414 C419 1.399 . S
C415 C414 1.399 . S
C415 C416 1.376 . S
C416 H403 0.930 . S
C416 C415 1.376 . S
C416 C417 1.388 . S
C417 H404 0.930 . S
C417 C416 1.388 . S
C417 C418 1.390 . S
C418 C417 1.390 . S
C418 C419 1.394 . S
C418 C424 1.465 . S
C419 C414 1.399 . S
C419 C418 1.394 . S
C419 C420 1.516 . S
C420 C419 1.516 . S
C420 C421 1.502 . S
C420 C422 1.561 . S
C420 C423 1.526 . S
C421 H405 0.959 . S
C421 H406 0.959 . S
C421 H407 0.961 . S
C421 C420 1.502 . S
C422 H408 0.960 . S
C422 H409 0.961 . S
C422 H410 0.959 . S
C422 C420 1.561 . S
C423 C420 1.526 . S
C423 C424 1.396 . S
C423 C428 1.390 . S
C424 C418 1.465 . S
C424 C423 1.396 . S
C424 C425 1.399 . S
C425 H411 0.929 . S
C425 C424 1.399 . S
C425 C426 1.385 . S
C426 H412 0.931 . S
C426 C425 1.385 . S
C426 C427 1.389 . S
C427 C426 1.389 . S
C427 C428 1.387 . S
C428 H413 0.930 . S
C428 C423 1.390 . S
C428 C427 1.387 . S
H429 C441 0.930 . S
H430 C443 0.930 . S
H431 C444 0.930 . S
H432 C448 0.972 . S
H433 C448 0.963 . S
H434 C448 0.954 1_455 S
H435 C449 0.960 . S
H436 C449 0.961 . S
H437 C449 0.959 . S
H438 C452 0.929 . S
H439 C453 0.931 . S
H440 C455 0.930 . S
C441 H429 0.930 . S
C441 C442 1.399 1_545 S
C441 C446 1.399 . S
C442 C441 1.399 1_565 S
C442 C443 1.376 . S
C443 H430 0.930 . S
C443 C442 1.376 . S
C443 C444 1.388 . S
C444 H431 0.930 . S
C444 C443 1.388 . S
C444 C445 1.390 . S
C445 C444 1.390 . S
C445 C446 1.394 1_565 S
C445 C451 1.465 1_465 S
C446 C441 1.399 . S
C446 C445 1.394 1_545 S
C446 C447 1.516 . S
C447 C446 1.516 . S
C447 C448 1.493 1_455 S
C447 C449 1.561 . S
C447 C450 1.526 1_455 S
C448 H432 0.972 . S
C448 H433 0.963 . S
C448 H434 0.954 1_655 S
C448 C447 1.493 1_655 S
C449 H435 0.960 . S
C449 H436 0.961 . S
C449 H437 0.959 . S
C449 C447 1.561 . S
C450 C447 1.526 1_655 S
C450 C451 1.396 . S
C450 C455 1.390 . S
C451 C445 1.465 1_645 S
C451 C450 1.396 . S
C451 C452 1.399 1_545 S
C452 H438 0.929 . S
C452 C451 1.399 1_565 S
C452 C453 1.385 . S
C453 H439 0.931 . S
C453 C452 1.385 . S
C453 C454 1.389 1_565 S
C454 C453 1.389 1_545 S
C454 C455 1.387 . S
C455 H440 0.930 . S
C455 C450 1.390 . S
C455 C454 1.387 . S
H456 C468 0.930 . S
H457 C470 0.930 . S
H458 C471 0.930 . S
H459 C475 0.959 . S
H460 C475 0.959 . S
H461 C475 0.961 . S
H462 C476 0.960 . S
H463 C476 0.961 . S
H464 C476 0.959 . S
H465 C479 0.929 . S
H466 C480 0.931 . S
H467 C482 0.930 . S
C468 H456 0.930 . S
C468 C469 1.399 . S
C468 C473 1.399 . S
C469 C468 1.399 . S
C469 C470 1.376 . S
C470 H457 0.930 . S
C470 C469 1.376 . S
C470 C471 1.388 . S
C471 H458 0.930 . S
C471 C470 1.388 . S
C471 C472 1.390 . S
C472 C471 1.390 . S
C472 C473 1.394 . S
C472 C478 1.465 . S
C473 C468 1.399 . S
C473 C472 1.394 . S
C473 C474 1.516 . S
C474 C473 1.516 . S
C474 C475 1.502 . S
C474 C476 1.561 . S
C474 C477 1.526 . S
C475 H459 0.959 . S
C475 H460 0.959 . S
C475 H461 0.961 . S
C475 C474 1.502 . S
C476 H462 0.960 . S
C476 H463 0.961 . S
C476 H464 0.959 . S
C476 C474 1.561 . S
C477 C474 1.526 . S
C477 C478 1.396 . S
C477 C482 1.390 . S
C478 C472 1.465 . S
C478 C477 1.396 . S
C478 C479 1.399 . S
C479 H465 0.929 . S
C479 C478 1.399 . S
C479 C480 1.385 . S
C480 H466 0.931 . S
C480 C479 1.385 . S
C480 C481 1.389 . S
C481 C480 1.389 . S
C481 C482 1.387 . S
C482 H467 0.930 . S
C482 C477 1.390 . S
C482 C481 1.387 . S
H483 C495 0.930 . S
H484 C497 0.930 . S
H485 C498 0.930 . S
H486 C502 0.959 . S
H487 C502 0.959 . S
H488 C502 0.961 . S
H489 C503 0.960 . S
H490 C503 0.961 . S
H491 C503 0.959 . S
H492 C506 0.929 . S
H493 C507 0.931 . S
H494 C509 0.930 . S
C495 H483 0.930 . S
C495 C496 1.399 . S
C495 C500 1.399 . S
C496 C495 1.399 . S
C496 C497 1.376 . S
C497 H484 0.930 . S
C497 C496 1.376 . S
C497 C498 1.388 . S
C498 H485 0.930 . S
C498 C497 1.388 . S
C498 C499 1.390 . S
C499 C498 1.390 . S
C499 C500 1.394 . S
C499 C505 1.465 . S
C500 C495 1.399 . S
C500 C499 1.394 . S
C500 C501 1.516 . S
C501 C500 1.516 . S
C501 C502 1.502 . S
C501 C503 1.561 . S
C501 C504 1.526 . S
C502 H486 0.959 . S
C502 H487 0.959 . S
C502 H488 0.961 . S
C502 C501 1.502 . S
C503 H489 0.960 . S
C503 H490 0.961 . S
C503 H491 0.959 . S
C503 C501 1.561 . S
C504 C501 1.526 . S
C504 C505 1.396 . S
C504 C509 1.390 . S
C505 C499 1.465 . S
C505 C504 1.396 . S
C505 C506 1.399 . S
C506 H492 0.929 . S
C506 C505 1.399 . S
C506 C507 1.385 . S
C507 H493 0.931 . S
C507 C506 1.385 . S
C507 C508 1.389 . S
C508 C507 1.389 . S
C508 C509 1.387 . S
C509 H494 0.930 . S
C509 C504 1.390 . S
C509 C508 1.387 . S
H510 C522 0.930 . S
H511 C524 0.930 . S
H512 C525 0.930 . S
H513 C529 0.959 . S
H514 C529 0.959 . S
H515 C529 0.961 . S
H516 C530 0.960 . S
H517 C530 0.961 . S
H518 C530 0.959 . S
H519 C533 0.929 . S
H520 C534 0.931 . S
H521 C536 0.930 . S
C522 H510 0.930 . S
C522 C523 1.399 . S
C522 C527 1.399 . S
C523 C522 1.399 . S
C523 C524 1.376 . S
C524 H511 0.930 . S
C524 C523 1.376 . S
C524 C525 1.388 . S
C525 H512 0.930 . S
C525 C524 1.388 . S
C525 C526 1.390 . S
C526 C525 1.390 . S
C526 C527 1.394 . S
C526 C532 1.465 . S
C527 C522 1.399 . S
C527 C526 1.394 . S
C527 C528 1.516 . S
C528 C527 1.516 . S
C528 C529 1.502 . S
C528 C530 1.561 . S
C528 C531 1.526 . S
C529 H513 0.959 . S
C529 H514 0.959 . S
C529 H515 0.961 . S
C529 C528 1.502 . S
C530 H516 0.960 . S
C530 H517 0.961 . S
C530 H518 0.959 . S
C530 C528 1.561 . S
C531 C528 1.526 . S
C531 C532 1.396 . S
C531 C536 1.390 . S
C532 C526 1.465 . S
C532 C531 1.396 . S
C532 C533 1.399 . S
C533 H519 0.929 . S
C533 C532 1.399 . S
C533 C534 1.385 . S
C534 H520 0.931 . S
C534 C533 1.385 . S
C534 C535 1.389 . S
C535 C534 1.389 . S
C535 C536 1.387 . S
C536 H521 0.930 . S
C536 C531 1.390 . S
C536 C535 1.387 . S
H537 C549 0.930 . S
H538 C551 0.930 . S
H539 C552 0.930 . S
H540 C556 0.959 . S
H541 C556 0.959 . S
H542 C556 0.961 . S
H543 C557 0.960 . S
H544 C557 0.961 . S
H545 C557 0.959 . S
H546 C560 0.929 . S
H547 C561 0.931 . S
H548 C563 0.930 . S
C549 H537 0.930 . S
C549 C550 1.399 . S
C549 C554 1.399 . S
C550 C549 1.399 . S
C550 C551 1.376 1_565 S
C551 H538 0.930 . S
C551 C550 1.376 1_545 S
C551 C552 1.388 . S
C552 H539 0.930 . S
C552 C551 1.388 . S
C552 C553 1.367 1_545 S
C553 C552 1.367 1_565 S
C553 C554 1.419 . S
C553 C559 1.470 1_565 S
C554 C549 1.399 . S
C554 C553 1.419 . S
C554 C555 1.516 . S
C555 C554 1.516 . S
C555 C556 1.502 . S
C555 C557 1.561 . S
C555 C558 1.526 . S
C556 H540 0.959 . S
C556 H541 0.959 . S
C556 H542 0.961 . S
C556 C555 1.502 . S
C557 H543 0.960 . S
C557 H544 0.961 . S
C557 H545 0.959 . S
C557 C555 1.561 . S
C558 C555 1.526 . S
C558 C559 1.379 1_565 S
C558 C563 1.390 . S
C559 C553 1.470 1_545 S
C559 C558 1.379 1_545 S
C559 C560 1.411 . S
C560 H546 0.929 . S
C560 C559 1.411 . S
C560 C561 1.385 . S
C561 H547 0.931 . S
C561 C560 1.385 . S
C561 C562 1.389 1_545 S
C562 C561 1.389 1_565 S
C562 C563 1.387 . S
C563 H548 0.930 . S
C563 C558 1.390 . S
C563 C562 1.387 . S
H564 C576 0.930 . S
H565 C578 0.930 . S
H566 C579 0.930 . S
H567 C583 0.959 . S
H568 C583 0.959 . S
H569 C583 0.961 . S
H570 C584 0.960 . S
H571 C584 0.961 . S
H572 C584 0.959 . S
H573 C587 0.929 . S
H574 C588 0.931 . S
H575 C590 0.930 . S
C576 H564 0.930 . S
C576 C577 1.399 . S
C576 C581 1.399 . S
C577 C576 1.399 . S
C577 C578 1.376 . S
C578 H565 0.930 . S
C578 C577 1.376 . S
C578 C579 1.388 . S
C579 H566 0.930 . S
C579 C578 1.388 . S
C579 C580 1.390 . S
C580 C579 1.390 . S
C580 C581 1.394 . S
C580 C586 1.465 . S
C581 C576 1.399 . S
C581 C580 1.394 . S
C581 C582 1.516 . S
C582 C581 1.516 . S
C582 C583 1.502 . S
C582 C584 1.561 . S
C582 C585 1.526 . S
C583 H567 0.959 . S
C583 H568 0.959 . S
C583 H569 0.961 . S
C583 C582 1.502 . S
C584 H570 0.960 . S
C584 H571 0.961 . S
C584 H572 0.959 . S
C584 C582 1.561 . S
C585 C582 1.526 . S
C585 C586 1.396 . S
C585 C590 1.390 . S
C586 C580 1.465 . S
C586 C585 1.396 . S
C586 C587 1.399 . S
C587 H573 0.929 . S
C587 C586 1.399 . S
C587 C588 1.385 . S
C588 H574 0.931 . S
C588 C587 1.385 . S
C588 C589 1.389 . S
C589 C588 1.389 . S
C589 C590 1.387 . S
C590 H575 0.930 . S
C590 C585 1.390 . S
C590 C589 1.387 . S
H591 C603 0.930 . S
H592 C605 0.930 . S
H593 C606 0.930 . S
H594 C610 0.959 . S
H595 C610 0.959 . S
H596 C610 0.961 . S
H597 C611 0.960 . S
H598 C611 0.961 . S
H599 C611 0.959 . S
H600 C614 0.929 . S
H601 C615 0.931 . S
H602 C617 0.930 . S
C603 H591 0.930 . S
C603 C604 1.399 . S
C603 C608 1.399 . S
C604 C603 1.399 . S
C604 C605 1.376 . S
C605 H592 0.930 . S
C605 C604 1.376 . S
C605 C606 1.388 . S
C606 H593 0.930 . S
C606 C605 1.388 . S
C606 C607 1.390 . S
C607 C606 1.390 . S
C607 C608 1.394 . S
C607 C613 1.465 . S
C608 C603 1.399 . S
C608 C607 1.394 . S
C608 C609 1.516 . S
C609 C608 1.516 . S
C609 C610 1.502 . S
C609 C611 1.561 . S
C609 C612 1.526 . S
C610 H594 0.959 . S
C610 H595 0.959 . S
C610 H596 0.961 . S
C610 C609 1.502 . S
C611 H597 0.960 . S
C611 H598 0.961 . S
C611 H599 0.959 . S
C611 C609 1.561 . S
C612 C609 1.526 . S
C612 C613 1.396 . S
C612 C617 1.390 . S
C613 C607 1.465 . S
C613 C612 1.396 . S
C613 C614 1.399 . S
C614 H600 0.929 . S
C614 C613 1.399 . S
C614 C615 1.385 . S
C615 H601 0.931 . S
C615 C614 1.385 . S
C615 C616 1.389 . S
C616 C615 1.389 . S
C616 C617 1.387 . S
C617 H602 0.930 . S
C617 C612 1.390 . S
C617 C616 1.387 . S
H618 C630 0.930 . S
H619 C632 0.930 . S
H620 C633 0.930 . S
H621 C637 0.959 . S
H622 C637 0.959 . S
H623 C637 0.961 . S
H624 C638 0.960 . S
H625 C638 0.961 . S
H626 C638 0.959 . S
H627 C641 0.929 . S
H628 C642 0.931 . S
H629 C644 0.930 . S
C630 H618 0.930 . S
C630 C631 1.399 . S
C630 C635 1.399 . S
C631 C630 1.399 . S
C631 C632 1.376 . S
C632 H619 0.930 . S
C632 C631 1.376 . S
C632 C633 1.388 . S
C633 H620 0.930 . S
C633 C632 1.388 . S
C633 C634 1.390 . S
C634 C633 1.390 . S
C634 C635 1.394 . S
C634 C640 1.465 . S
C635 C630 1.399 . S
C635 C634 1.394 . S
C635 C636 1.516 . S
C636 C635 1.516 . S
C636 C637 1.502 . S
C636 C638 1.561 . S
C636 C639 1.526 . S
C637 H621 0.959 . S
C637 H622 0.959 . S
C637 H623 0.961 . S
C637 C636 1.502 . S
C638 H624 0.960 . S
C638 H625 0.961 . S
C638 H626 0.959 . S
C638 C636 1.561 . S
C639 C636 1.526 . S
C639 C640 1.396 . S
C639 C644 1.390 . S
C640 C634 1.465 . S
C640 C639 1.396 . S
C640 C641 1.399 . S
C641 H627 0.929 . S
C641 C640 1.399 . S
C641 C642 1.385 . S
C642 H628 0.931 . S
C642 C641 1.385 . S
C642 C643 1.389 . S
C643 C642 1.389 . S
C643 C644 1.387 . S
C644 H629 0.930 . S
C644 C639 1.390 . S
C644 C643 1.387 . S
H645 C657 0.930 . S
H646 C659 0.930 . S
H647 C660 0.930 . S
H648 C664 0.959 . S
H649 C664 0.959 . S
H650 C664 0.961 . S
H651 C665 0.960 . S
H652 C665 0.961 . S
H653 C665 0.959 . S
H654 C668 0.929 . S
H655 C669 0.931 . S
H656 C671 0.930 . S
C657 H645 0.930 . S
C657 C658 1.399 . S
C657 C662 1.399 . S
C658 C657 1.399 . S
C658 C659 1.376 . S
C659 H646 0.930 . S
C659 C658 1.376 . S
C659 C660 1.388 . S
C660 H647 0.930 . S
C660 C659 1.388 . S
C660 C661 1.390 . S
C661 C660 1.390 . S
C661 C662 1.394 . S
C661 C667 1.465 . S
C662 C657 1.399 . S
C662 C661 1.394 . S
C662 C663 1.516 . S
C663 C662 1.516 . S
C663 C664 1.502 . S
C663 C665 1.561 . S
C663 C666 1.526 . S
C664 H648 0.959 . S
C664 H649 0.959 . S
C664 H650 0.961 . S
C664 C663 1.502 . S
C665 H651 0.960 . S
C665 H652 0.961 . S
C665 H653 0.959 . S
C665 C663 1.561 . S
C666 C663 1.526 . S
C666 C667 1.396 . S
C666 C671 1.390 . S
C667 C661 1.465 . S
C667 C666 1.396 . S
C667 C668 1.399 . S
C668 H654 0.929 . S
C668 C667 1.399 . S
C668 C669 1.385 . S
C669 H655 0.931 . S
C669 C668 1.385 . S
C669 C670 1.389 . S
C670 C669 1.389 . S
C670 C671 1.387 . S
C671 H656 0.930 . S
C671 C666 1.390 . S
C671 C670 1.387 . S
H672 C684 0.930 . S
H673 C686 0.930 . S
H674 C687 0.930 . S
H675 C691 0.959 . S
H676 C691 0.959 . S
H677 C691 0.961 . S
H678 C692 0.960 . S
H679 C692 0.961 . S
H680 C692 0.959 . S
H681 C695 0.929 . S
H682 C696 0.931 . S
H683 C698 0.930 . S
C684 H672 0.930 . S
C684 C685 1.399 . S
C684 C689 1.399 . S
C685 C684 1.399 . S
C685 C686 1.376 . S
C686 H673 0.930 . S
C686 C685 1.376 . S
C686 C687 1.388 . S
C687 H674 0.930 . S
C687 C686 1.388 . S
C687 C688 1.390 . S
C688 C687 1.390 . S
C688 C689 1.394 . S
C688 C694 1.465 . S
C689 C684 1.399 . S
C689 C688 1.394 . S
C689 C690 1.516 . S
C690 C689 1.516 . S
C690 C691 1.502 . S
C690 C692 1.561 . S
C690 C693 1.526 . S
C691 H675 0.959 . S
C691 H676 0.959 . S
C691 H677 0.961 . S
C691 C690 1.502 . S
C692 H678 0.960 . S
C692 H679 0.961 . S
C692 H680 0.959 . S
C692 C690 1.561 . S
C693 C690 1.526 . S
C693 C694 1.396 . S
C693 C698 1.390 . S
C694 C688 1.465 . S
C694 C693 1.396 . S
C694 C695 1.399 . S
C695 H681 0.929 . S
C695 C694 1.399 . S
C695 C696 1.385 . S
C696 H682 0.931 . S
C696 C695 1.385 . S
C696 C697 1.389 . S
C697 C696 1.389 . S
C697 C698 1.387 . S
C698 H683 0.930 . S
C698 C693 1.390 . S
C698 C697 1.387 . S
H699 C711 0.930 . S
H700 C713 0.930 . S
H701 C714 0.930 . S
H702 C718 0.959 . S
H703 C718 0.959 . S
H704 C718 0.961 . S
H705 C719 0.960 . S
H706 C719 0.961 . S
H707 C719 0.959 . S
H708 C722 0.929 . S
H709 C723 0.931 . S
H710 C725 0.930 . S
C711 H699 0.930 . S
C711 C712 1.399 . S
C711 C716 1.399 . S
C712 C711 1.399 . S
C712 C713 1.376 . S
C713 H700 0.930 . S
C713 C712 1.376 . S
C713 C714 1.388 . S
C714 H701 0.930 . S
C714 C713 1.388 . S
C714 C715 1.390 . S
C715 C714 1.390 . S
C715 C716 1.394 . S
C715 C721 1.465 . S
C716 C711 1.399 . S
C716 C715 1.394 . S
C716 C717 1.516 . S
C717 C716 1.516 . S
C717 C718 1.502 1_455 S
C717 C719 1.561 . S
C717 C720 1.526 . S
C718 H702 0.959 . S
C718 H703 0.959 . S
C718 H704 0.961 . S
C718 C717 1.502 1_655 S
C719 H705 0.960 . S
C719 H706 0.961 . S
C719 H707 0.959 . S
C719 C717 1.561 . S
C720 C717 1.526 . S
C720 C721 1.396 . S
C720 C725 1.390 . S
C721 C715 1.465 . S
C721 C720 1.396 . S
C721 C722 1.399 . S
C722 H708 0.929 . S
C722 C721 1.399 . S
C722 C723 1.385 . S
C723 H709 0.931 . S
C723 C722 1.385 . S
C723 C724 1.389 . S
C724 C723 1.389 . S
C724 C725 1.387 . S
C725 H710 0.930 . S
C725 C720 1.390 . S
C725 C724 1.387 . S
H726 C738 0.930 . S
H727 C740 0.930 . S
H728 C741 0.930 . S
H729 C745 0.959 . S
H730 C745 0.959 . S
H731 C745 0.961 . S
H732 C746 0.960 . S
H733 C746 0.961 . S
H734 C746 0.959 . S
H735 C749 0.929 . S
H736 C750 0.931 . S
H737 C752 0.930 . S
C738 H726 0.930 . S
C738 C739 1.399 . S
C738 C743 1.399 . S
C739 C738 1.399 . S
C739 C740 1.376 . S
C740 H727 0.930 . S
C740 C739 1.376 . S
C740 C741 1.388 . S
C741 H728 0.930 . S
C741 C740 1.388 . S
C741 C742 1.390 . S
C742 C741 1.390 . S
C742 C743 1.394 . S
C742 C748 1.465 . S
C743 C738 1.399 . S
C743 C742 1.394 . S
C743 C744 1.516 . S
C744 C743 1.516 . S
C744 C745 1.502 . S
C744 C746 1.561 . S
C744 C747 1.526 . S
C745 H729 0.959 . S
C745 H730 0.959 . S
C745 H731 0.961 . S
C745 C744 1.502 . S
C746 H732 0.960 . S
C746 H733 0.961 . S
C746 H734 0.959 . S
C746 C744 1.561 . S
C747 C744 1.526 . S
C747 C748 1.396 . S
C747 C752 1.390 . S
C748 C742 1.465 . S
C748 C747 1.396 . S
C748 C749 1.399 . S
C749 H735 0.929 . S
C749 C748 1.399 . S
C749 C750 1.385 . S
C750 H736 0.931 . S
C750 C749 1.385 . S
C750 C751 1.389 . S
C751 C750 1.389 . S
C751 C752 1.387 . S
C752 H737 0.930 . S
C752 C747 1.390 . S
C752 C751 1.387 . S
H753 C765 0.930 . S
H754 C767 0.930 . S
H755 C768 0.930 . S
H756 C772 0.959 . S
H757 C772 0.959 . S
H758 C772 0.961 . S
H759 C773 0.960 . S
H760 C773 0.961 . S
H761 C773 0.959 . S
H762 C776 0.929 . S
H763 C777 0.931 . S
H764 C779 0.930 . S
C765 H753 0.930 . S
C765 C766 1.399 . S
C765 C770 1.399 . S
C766 C765 1.399 . S
C766 C767 1.376 1_655 S
C767 H754 0.930 . S
C767 C766 1.376 1_455 S
C767 C768 1.388 . S
C768 H755 0.930 . S
C768 C767 1.388 . S
C768 C769 1.377 1_455 S
C769 C768 1.377 1_655 S
C769 C770 1.410 . S
C769 C775 1.465 1_655 S
C770 C765 1.399 . S
C770 C769 1.410 . S
C770 C771 1.516 . S
C771 C770 1.516 . S
C771 C772 1.502 . S
C771 C773 1.561 . S
C771 C774 1.526 . S
C772 H756 0.959 . S
C772 H757 0.959 . S
C772 H758 0.961 . S
C772 C771 1.502 . S
C773 H759 0.960 . S
C773 H760 0.961 . S
C773 H761 0.959 . S
C773 C771 1.561 . S
C774 C771 1.526 . S
C774 C775 1.396 1_655 S
C774 C779 1.390 . S
C775 C769 1.465 1_455 S
C775 C774 1.396 1_455 S
C775 C776 1.399 . S
C776 H762 0.929 . S
C776 C775 1.399 . S
C776 C777 1.385 . S
C777 H763 0.931 . S
C777 C776 1.385 . S
C777 C778 1.389 . S
C778 C777 1.389 . S
C778 C779 1.387 1_455 S
C779 H764 0.930 . S
C779 C774 1.390 . S
C779 C778 1.387 1_655 S
H780 C792 0.930 . S
H781 C794 0.930 . S
H782 C795 0.930 . S
H783 C799 0.959 . S
H784 C799 0.959 . S
H785 C799 0.961 . S
H786 C800 0.960 . S
H787 C800 0.961 . S
H788 C800 0.959 . S
H789 C803 0.929 . S
H790 C804 0.931 . S
H791 C806 0.930 . S
C792 H780 0.930 . S
C792 C793 1.399 . S
C792 C797 1.399 . S
C793 C792 1.399 . S
C793 C794 1.376 . S
C794 H781 0.930 . S
C794 C793 1.376 . S
C794 C795 1.388 . S
C795 H782 0.930 . S
C795 C794 1.388 . S
C795 C796 1.390 . S
C796 C795 1.390 . S
C796 C797 1.394 . S
C796 C802 1.465 . S
C797 C792 1.399 . S
C797 C796 1.394 . S
C797 C798 1.516 . S
C798 C797 1.516 . S
C798 C799 1.502 . S
C798 C800 1.561 . S
C798 C801 1.526 . S
C799 H783 0.959 . S
C799 H784 0.959 . S
C799 H785 0.961 . S
C799 C798 1.502 . S
C800 H786 0.960 . S
C800 H787 0.961 . S
C800 H788 0.959 . S
C800 C798 1.561 . S
C801 C798 1.526 . S
C801 C802 1.396 . S
C801 C806 1.390 . S
C802 C796 1.465 . S
C802 C801 1.396 . S
C802 C803 1.399 . S
C803 H789 0.929 . S
C803 C802 1.399 . S
C803 C804 1.385 . S
C804 H790 0.931 . S
C804 C803 1.385 . S
C804 C805 1.389 . S
C805 C804 1.389 . S
C805 C806 1.387 . S
C806 H791 0.930 . S
C806 C801 1.390 . S
C806 C805 1.387 . S
H807 C819 0.930 . S
H808 C821 0.930 . S
H809 C822 0.930 . S
H810 C826 0.959 . S
H811 C826 0.959 . S
H812 C826 0.961 . S
H813 C827 0.960 . S
H814 C827 0.961 . S
H815 C827 0.959 . S
H816 C830 0.929 . S
H817 C831 0.931 . S
H818 C833 0.930 . S
C819 H807 0.930 . S
C819 C820 1.399 . S
C819 C824 1.399 . S
C820 C819 1.399 . S
C820 C821 1.376 . S
C821 H808 0.930 . S
C821 C820 1.376 . S
C821 C822 1.388 . S
C822 H809 0.930 . S
C822 C821 1.388 . S
C822 C823 1.390 . S
C823 C822 1.390 . S
C823 C824 1.394 . S
C823 C829 1.465 . S
C824 C819 1.399 . S
C824 C823 1.394 . S
C824 C825 1.516 . S
C825 C824 1.516 . S
C825 C826 1.502 . S
C825 C827 1.561 . S
C825 C828 1.526 . S
C826 H810 0.959 . S
C826 H811 0.959 . S
C826 H812 0.961 . S
C826 C825 1.502 . S
C827 H813 0.960 . S
C827 H814 0.961 . S
C827 H815 0.959 . S
C827 C825 1.561 . S
C828 C825 1.526 . S
C828 C829 1.396 . S
C828 C833 1.390 . S
C829 C823 1.465 . S
C829 C828 1.396 . S
C829 C830 1.399 . S
C830 H816 0.929 . S
C830 C829 1.399 . S
C830 C831 1.385 . S
C831 H817 0.931 . S
C831 C830 1.385 . S
C831 C832 1.389 . S
C832 C831 1.389 . S
C832 C833 1.387 . S
C833 H818 0.930 . S
C833 C828 1.390 . S
C833 C832 1.387 . S
H834 C846 0.930 1_554 S
H835 C848 0.930 . S
H836 C849 0.930 . S
H837 C853 0.959 . S
H838 C853 0.959 . S
H839 C853 0.961 . S
H840 C854 0.960 . S
H841 C854 0.961 1_565 S
H842 C854 0.959 . S
H843 C857 0.929 . S
H844 C858 0.931 . S
H845 C860 0.930 . S
C846 H834 0.930 1_556 S
C846 C847 1.399 . S
C846 C851 1.399 1_546 S
C847 C846 1.399 . S
C847 C848 1.376 . S
C848 H835 0.930 . S
C848 C847 1.376 . S
C848 C849 1.390 1_545 S
C849 H836 0.930 . S
C849 C848 1.390 1_565 S
C849 C850 1.390 . S
C850 C849 1.390 . S
C850 C851 1.393 1_556 S
C850 C856 1.465 . S
C851 C846 1.399 1_564 S
C851 C850 1.393 1_554 S
C851 C852 1.517 . S
C852 C851 1.517 . S
C852 C853 1.502 . S
C852 C854 1.561 1_565 S
C852 C855 1.526 . S
C853 H837 0.959 . S
C853 H838 0.959 . S
C853 H839 0.961 . S
C853 C852 1.502 . S
C854 H840 0.960 . S
C854 H841 0.961 1_545 S
C854 H842 0.959 . S
C854 C852 1.561 1_545 S
C855 C852 1.526 . S
C855 C856 1.396 1_554 S
C855 C860 1.390 . S
C856 C850 1.465 . S
C856 C855 1.396 1_556 S
C856 C857 1.399 . S
C857 H843 0.929 . S
C857 C856 1.399 . S
C857 C858 1.385 . S
C858 H844 0.931 . S
C858 C857 1.385 . S
C858 C859 1.389 1_556 S
C859 C858 1.389 1_554 S
C859 C860 1.387 . S
C860 H845 0.930 . S
C860 C855 1.390 . S
C860 C859 1.387 . S
H861 C873 0.930 . S
H862 C875 0.930 . S
H863 C876 0.930 . S
H864 C880 0.959 . S
H865 C880 0.959 . S
H866 C880 0.961 . S
H867 C881 0.960 . S
H868 C881 0.961 . S
H869 C881 0.959 . S
H870 C884 0.929 . S
H871 C885 0.931 . S
H872 C887 0.930 . S
C873 H861 0.930 . S
C873 C874 1.399 . S
C873 C878 1.399 . S
C874 C873 1.399 . S
C874 C875 1.376 . S
C875 H862 0.930 . S
C875 C874 1.376 . S
C875 C876 1.388 . S
C876 H863 0.930 . S
C876 C875 1.388 . S
C876 C877 1.390 . S
C877 C876 1.390 . S
C877 C878 1.394 . S
C877 C883 1.465 . S
C878 C873 1.399 . S
C878 C877 1.394 . S
C878 C879 1.516 . S
C879 C878 1.516 . S
C879 C880 1.502 . S
C879 C881 1.561 . S
C879 C882 1.526 . S
C880 H864 0.959 . S
C880 H865 0.959 . S
C880 H866 0.961 . S
C880 C879 1.502 . S
C881 H867 0.960 . S
C881 H868 0.961 . S
C881 H869 0.959 . S
C881 C879 1.561 . S
C882 C879 1.526 . S
C882 C883 1.396 . S
C882 C887 1.390 . S
C883 C877 1.465 . S
C883 C882 1.396 . S
C883 C884 1.399 . S
C884 H870 0.929 . S
C884 C883 1.399 . S
C884 C885 1.385 . S
C885 H871 0.931 . S
C885 C884 1.385 . S
C885 C886 1.389 . S
C886 C885 1.389 . S
C886 C887 1.387 . S
C887 H872 0.930 . S
C887 C882 1.390 . S
C887 C886 1.387 . S
H888 C900 0.930 . S
H889 C902 0.930 . S
H890 C903 0.930 . S
H891 C907 0.959 . S
H892 C907 0.959 . S
H893 C907 0.961 . S
H894 C908 0.960 . S
H895 C908 0.961 . S
H896 C908 0.959 . S
H897 C911 0.929 . S
H898 C912 0.931 . S
H899 C914 0.930 . S
C900 H888 0.930 . S
C900 C901 1.399 . S
C900 C905 1.399 . S
C901 C900 1.399 . S
C901 C902 1.376 . S
C902 H889 0.930 . S
C902 C901 1.376 . S
C902 C903 1.388 . S
C903 H890 0.930 . S
C903 C902 1.388 . S
C903 C904 1.390 . S
C904 C903 1.390 . S
C904 C905 1.394 . S
C904 C910 1.465 . S
C905 C900 1.399 . S
C905 C904 1.394 . S
C905 C906 1.516 . S
C906 C905 1.516 . S
C906 C907 1.502 . S
C906 C908 1.561 . S
C906 C909 1.526 . S
C907 H891 0.959 . S
C907 H892 0.959 . S
C907 H893 0.961 . S
C907 C906 1.502 . S
C908 H894 0.960 . S
C908 H895 0.961 . S
C908 H896 0.959 . S
C908 C906 1.561 . S
C909 C906 1.526 . S
C909 C910 1.396 . S
C909 C914 1.390 . S
C910 C904 1.465 . S
C910 C909 1.396 . S
C910 C911 1.399 . S
C911 H897 0.929 . S
C911 C910 1.399 . S
C911 C912 1.385 . S
C912 H898 0.931 . S
C912 C911 1.385 . S
C912 C913 1.389 . S
C913 C912 1.389 . S
C913 C914 1.387 . S
C914 H899 0.930 . S
C914 C909 1.390 . S
C914 C913 1.387 . S
H915 C927 0.930 . S
H916 C929 0.930 . S
H917 C930 0.930 . S
H918 C934 0.959 . S
H919 C934 0.959 . S
H920 C934 0.961 . S
H921 C935 0.960 . S
H922 C935 0.961 . S
H923 C935 0.959 . S
H924 C938 0.929 . S
H925 C939 0.931 . S
H926 C941 0.930 . S
C927 H915 0.930 . S
C927 C928 1.399 . S
C927 C932 1.399 . S
C928 C927 1.399 . S
C928 C929 1.376 . S
C929 H916 0.930 . S
C929 C928 1.376 . S
C929 C930 1.388 . S
C930 H917 0.930 . S
C930 C929 1.388 . S
C930 C931 1.390 . S
C931 C930 1.390 . S
C931 C932 1.394 . S
C931 C937 1.465 . S
C932 C927 1.399 . S
C932 C931 1.394 . S
C932 C933 1.516 . S
C933 C932 1.516 . S
C933 C934 1.502 . S
C933 C935 1.561 . S
C933 C936 1.526 . S
C934 H918 0.959 . S
C934 H919 0.959 . S
C934 H920 0.961 . S
C934 C933 1.502 . S
C935 H921 0.960 . S
C935 H922 0.961 . S
C935 H923 0.959 . S
C935 C933 1.561 . S
C936 C933 1.526 . S
C936 C937 1.396 . S
C936 C941 1.390 . S
C937 C931 1.465 . S
C937 C936 1.396 . S
C937 C938 1.399 . S
C938 H924 0.929 . S
C938 C937 1.399 . S
C938 C939 1.385 . S
C939 H925 0.931 . S
C939 C938 1.385 . S
C939 C940 1.389 . S
C940 C939 1.389 . S
C940 C941 1.387 . S
C941 H926 0.930 . S
C941 C936 1.390 . S
C941 C940 1.387 . S
H942 C954 0.930 . S
H943 C956 0.930 . S
H944 C957 0.930 . S
H945 C961 0.959 . S
H946 C961 0.959 . S
H947 C961 0.961 . S
H948 C962 0.960 . S
H949 C962 0.961 . S
H950 C962 0.959 . S
H951 C965 0.929 . S
H952 C966 0.931 . S
H953 C968 0.930 . S
C954 H942 0.930 . S
C954 C955 1.399 . S
C954 C959 1.399 . S
C955 C954 1.399 . S
C955 C956 1.376 . S
C956 H943 0.930 . S
C956 C955 1.376 . S
C956 C957 1.388 . S
C957 H944 0.930 . S
C957 C956 1.388 . S
C957 C958 1.390 . S
C958 C957 1.390 . S
C958 C959 1.394 . S
C958 C964 1.465 . S
C959 C954 1.399 . S
C959 C958 1.394 . S
C959 C960 1.516 . S
C960 C959 1.516 . S
C960 C961 1.502 . S
C960 C962 1.561 . S
C960 C963 1.526 . S
C961 H945 0.959 . S
C961 H946 0.959 . S
C961 H947 0.961 . S
C961 C960 1.502 . S
C962 H948 0.960 . S
C962 H949 0.961 . S
C962 H950 0.959 . S
C962 C960 1.561 . S
C963 C960 1.526 . S
C963 C964 1.396 . S
C963 C968 1.390 . S
C964 C958 1.465 . S
C964 C963 1.396 . S
C964 C965 1.399 . S
C965 H951 0.929 . S
C965 C964 1.399 . S
C965 C966 1.385 . S
C966 H952 0.931 . S
C966 C965 1.385 . S
C966 C967 1.389 . S
C967 C966 1.389 . S
C967 C968 1.387 . S
C968 H953 0.930 . S
C968 C963 1.390 . S
C968 C967 1.387 . S
H969 C981 0.930 . S
H970 C983 0.930 . S
H971 C984 0.930 . S
H972 C988 0.959 . S
H973 C988 0.959 . S
H974 C988 0.961 . S
H975 C989 0.960 . S
H976 C989 0.961 . S
H977 C989 0.959 . S
H978 C992 0.929 . S
H979 C993 0.931 . S
H980 C995 0.930 . S
C981 H969 0.930 . S
C981 C982 1.399 . S
C981 C986 1.399 . S
C982 C981 1.399 . S
C982 C983 1.376 . S
C983 H970 0.930 . S
C983 C982 1.376 . S
C983 C984 1.388 . S
C984 H971 0.930 . S
C984 C983 1.388 . S
C984 C985 1.390 . S
C985 C984 1.390 . S
C985 C986 1.394 . S
C985 C991 1.465 . S
C986 C981 1.399 . S
C986 C985 1.394 . S
C986 C987 1.516 . S
C987 C986 1.516 . S
C987 C988 1.502 . S
C987 C989 1.561 . S
C987 C990 1.526 . S
C988 H972 0.959 . S
C988 H973 0.959 . S
C988 H974 0.961 . S
C988 C987 1.502 . S
C989 H975 0.960 . S
C989 H976 0.961 . S
C989 H977 0.959 . S
C989 C987 1.561 . S
C990 C987 1.526 . S
C990 C991 1.396 . S
C990 C995 1.390 . S
C991 C985 1.465 . S
C991 C990 1.396 . S
C991 C992 1.399 . S
C992 H978 0.929 . S
C992 C991 1.399 . S
C992 C993 1.385 . S
C993 H979 0.931 . S
C993 C992 1.385 . S
C993 C994 1.389 . S
C994 C993 1.389 . S
C994 C995 1.387 . S
C995 H980 0.930 . S
C995 C990 1.390 . S
C995 C994 1.387 . S
H996 C1008 0.930 . S
H997 C1010 0.930 . S
H998 C1011 0.930 . S
H999 C1015 0.959 . S
H1000 C1015 0.959 . S
H1001 C1015 0.961 . S
H1002 C1016 0.960 . S
H1003 C1016 0.961 . S
H1004 C1016 0.959 . S
H1005 C1019 0.929 . S
H1006 C1020 0.931 . S
H1007 C1022 0.930 . S
C1008 H996 0.930 . S
C1008 C1009 1.399 . S
C1008 C1013 1.399 . S
C1009 C1008 1.399 . S
C1009 C1010 1.376 . S
C1010 H997 0.930 . S
C1010 C1009 1.376 . S
C1010 C1011 1.388 . S
C1011 H998 0.930 . S
C1011 C1010 1.388 . S
C1011 C1012 1.390 . S
C1012 C1011 1.390 . S
C1012 C1013 1.394 . S
C1012 C1018 1.465 . S
C1013 C1008 1.399 . S
C1013 C1012 1.394 . S
C1013 C1014 1.516 . S
C1014 C1013 1.516 . S
C1014 C1015 1.502 . S
C1014 C1016 1.561 . S
C1014 C1017 1.526 . S
C1015 H999 0.959 . S
C1015 H1000 0.959 . S
C1015 H1001 0.961 . S
C1015 C1014 1.502 . S
C1016 H1002 0.960 . S
C1016 H1003 0.961 . S
C1016 H1004 0.959 . S
C1016 C1014 1.561 . S
C1017 C1014 1.526 . S
C1017 C1018 1.396 . S
C1017 C1022 1.390 . S
C1018 C1012 1.465 . S
C1018 C1017 1.396 . S
C1018 C1019 1.399 . S
C1019 H1005 0.929 . S
C1019 C1018 1.399 . S
C1019 C1020 1.385 . S
C1020 H1006 0.931 . S
C1020 C1019 1.385 . S
C1020 C1021 1.389 . S
C1021 C1020 1.389 . S
C1021 C1022 1.387 . S
C1022 H1007 0.930 . S
C1022 C1017 1.390 . S
C1022 C1021 1.387 . S
H1023 C1035 0.930 1_565 S
H1024 C1037 0.930 . S
H1025 C1038 0.930 . S
H1026 C1042 0.959 . S
H1027 C1042 0.959 . S
H1028 C1042 0.961 . S
H1029 C1043 0.960 . S
H1030 C1043 0.961 . S
H1031 C1043 0.959 . S
H1032 C1046 0.929 . S
H1033 C1047 0.931 . S
H1034 C1049 0.930 . S
C1035 H1023 0.930 1_545 S
C1035 C1036 1.399 . S
C1035 C1040 1.399 . S
C1036 C1035 1.399 . S
C1036 C1037 1.376 . S
C1037 H1024 0.930 . S
C1037 C1036 1.376 . S
C1037 C1038 1.388 . S
C1038 H1025 0.930 . S
C1038 C1037 1.388 . S
C1038 C1039 1.390 . S
C1039 C1038 1.390 . S
C1039 C1040 1.394 . S
C1039 C1045 1.465 . S
C1040 C1035 1.399 . S
C1040 C1039 1.394 . S
C1040 C1041 1.516 1_545 S
C1041 C1040 1.516 1_565 S
C1041 C1042 1.502 . S
C1041 C1043 1.561 . S
C1041 C1044 1.526 1_565 S
C1042 H1026 0.959 . S
C1042 H1027 0.959 . S
C1042 H1028 0.961 . S
C1042 C1041 1.502 . S
C1043 H1029 0.960 . S
C1043 H1030 0.961 . S
C1043 H1031 0.959 . S
C1043 C1041 1.561 . S
C1044 C1041 1.526 1_545 S
C1044 C1045 1.396 . S
C1044 C1049 1.390 1_545 S
C1045 C1039 1.465 . S
C1045 C1044 1.396 . S
C1045 C1046 1.399 . S
C1046 H1032 0.929 . S
C1046 C1045 1.399 . S
C1046 C1047 1.385 . S
C1047 H1033 0.931 . S
C1047 C1046 1.385 . S
C1047 C1048 1.389 . S
C1048 C1047 1.389 . S
C1048 C1049 1.387 1_545 S
C1049 H1034 0.930 . S
C1049 C1044 1.390 1_565 S
C1049 C1048 1.387 1_565 S
H1050 C1062 0.930 . S
H1051 C1064 0.930 . S
H1052 C1065 0.930 . S
H1053 C1069 0.959 . S
H1054 C1069 0.959 . S
H1055 C1069 0.961 . S
H1056 C1070 0.960 . S
H1057 C1070 0.961 . S
H1058 C1070 0.959 . S
H1059 C1073 0.929 . S
H1060 C1074 0.931 . S
H1061 C1076 0.930 . S
C1062 H1050 0.930 . S
C1062 C1063 1.399 . S
C1062 C1067 1.399 . S
C1063 C1062 1.399 . S
C1063 C1064 1.376 . S
C1064 H1051 0.930 . S
C1064 C1063 1.376 . S
C1064 C1065 1.388 . S
C1065 H1052 0.930 . S
C1065 C1064 1.388 . S
C1065 C1066 1.390 . S
C1066 C1065 1.390 . S
C1066 C1067 1.394 . S
C1066 C1072 1.465 . S
C1067 C1062 1.399 . S
C1067 C1066 1.394 . S
C1067 C1068 1.516 . S
C1068 C1067 1.516 . S
C1068 C1069 1.502 . S
C1068 C1070 1.561 . S
C1068 C1071 1.526 . S
C1069 H1053 0.959 . S
C1069 H1054 0.959 . S
C1069 H1055 0.961 . S
C1069 C1068 1.502 . S
C1070 H1056 0.960 . S
C1070 H1057 0.961 . S
C1070 H1058 0.959 . S
C1070 C1068 1.561 . S
C1071 C1068 1.526 . S
C1071 C1072 1.396 . S
C1071 C1076 1.390 . S
C1072 C1066 1.465 . S
C1072 C1071 1.396 . S
C1072 C1073 1.399 . S
C1073 H1059 0.929 . S
C1073 C1072 1.399 . S
C1073 C1074 1.385 . S
C1074 H1060 0.931 . S
C1074 C1073 1.385 . S
C1074 C1075 1.389 . S
C1075 C1074 1.389 . S
C1075 C1076 1.387 . S
C1076 H1061 0.930 . S
C1076 C1071 1.390 . S
C1076 C1075 1.387 . S
H1077 C1089 0.930 . S
H1078 C1091 0.930 . S
H1079 C1092 0.930 . S
H1080 C1096 0.959 . S
H1081 C1096 0.959 . S
H1082 C1096 0.961 . S
H1083 C1097 0.960 . S
H1084 C1097 0.961 . S
H1085 C1097 0.959 . S
H1086 C1100 0.929 . S
H1087 C1101 0.931 . S
H1088 C1103 0.930 . S
C1089 H1077 0.930 . S
C1089 C1090 1.399 . S
C1089 C1094 1.399 . S
C1090 C1089 1.399 . S
C1090 C1091 1.376 . S
C1091 H1078 0.930 . S
C1091 C1090 1.376 . S
C1091 C1092 1.388 . S
C1092 H1079 0.930 . S
C1092 C1091 1.388 . S
C1092 C1093 1.390 . S
C1093 C1092 1.390 . S
C1093 C1094 1.394 . S
C1093 C1099 1.465 . S
C1094 C1089 1.399 . S
C1094 C1093 1.394 . S
C1094 C1095 1.516 . S
C1095 C1094 1.516 . S
C1095 C1096 1.502 . S
C1095 C1097 1.561 . S
C1095 C1098 1.526 . S
C1096 H1080 0.959 . S
C1096 H1081 0.959 . S
C1096 H1082 0.961 . S
C1096 C1095 1.502 . S
C1097 H1083 0.960 . S
C1097 H1084 0.961 . S
C1097 H1085 0.959 . S
C1097 C1095 1.561 . S
C1098 C1095 1.526 . S
C1098 C1099 1.396 . S
C1098 C1103 1.390 . S
C1099 C1093 1.465 . S
C1099 C1098 1.396 . S
C1099 C1100 1.399 . S
C1100 H1086 0.929 . S
C1100 C1099 1.399 . S
C1100 C1101 1.385 . S
C1101 H1087 0.931 . S
C1101 C1100 1.385 . S
C1101 C1102 1.389 . S
C1102 C1101 1.389 . S
C1102 C1103 1.387 . S
C1103 H1088 0.930 . S
C1103 C1098 1.390 . S
C1103 C1102 1.387 . S
H1104 C1116 0.930 . S
H1105 C1118 0.930 . S
H1106 C1119 0.930 . S
H1107 C1123 0.959 . S
H1108 C1123 0.959 . S
H1109 C1123 0.961 . S
H1110 C1124 0.960 . S
H1111 C1124 0.961 . S
H1112 C1124 0.959 . S
H1113 C1127 0.929 . S
H1114 C1128 0.931 . S
H1115 C1130 0.930 . S
C1116 H1104 0.930 . S
C1116 C1117 1.399 . S
C1116 C1121 1.399 . S
C1117 C1116 1.399 . S
C1117 C1118 1.376 . S
C1118 H1105 0.930 . S
C1118 C1117 1.376 . S
C1118 C1119 1.388 . S
C1119 H1106 0.930 . S
C1119 C1118 1.388 . S
C1119 C1120 1.390 . S
C1120 C1119 1.390 . S
C1120 C1121 1.394 . S
C1120 C1126 1.465 . S
C1121 C1116 1.399 . S
C1121 C1120 1.394 . S
C1121 C1122 1.516 . S
C1122 C1121 1.516 . S
C1122 C1123 1.502 . S
C1122 C1124 1.561 . S
C1122 C1125 1.526 . S
C1123 H1107 0.959 . S
C1123 H1108 0.959 . S
C1123 H1109 0.961 . S
C1123 C1122 1.502 . S
C1124 H1110 0.960 . S
C1124 H1111 0.961 . S
C1124 H1112 0.959 . S
C1124 C1122 1.561 . S
C1125 C1122 1.526 . S
C1125 C1126 1.396 . S
C1125 C1130 1.390 . S
C1126 C1120 1.465 . S
C1126 C1125 1.396 . S
C1126 C1127 1.399 . S
C1127 H1113 0.929 . S
C1127 C1126 1.399 . S
C1127 C1128 1.385 . S
C1128 H1114 0.931 . S
C1128 C1127 1.385 . S
C1128 C1129 1.389 . S
C1129 C1128 1.389 . S
C1129 C1130 1.387 . S
C1130 H1115 0.930 . S
C1130 C1125 1.390 . S
C1130 C1129 1.387 . S
H1131 C1143 0.930 . S
H1132 C1145 0.930 . S
H1133 C1146 0.930 1_565 S
H1134 C1150 0.959 . S
H1135 C1150 0.959 . S
H1136 C1150 0.961 . S
H1137 C1151 0.960 . S
H1138 C1151 0.961 . S
H1139 C1151 0.959 . S
H1140 C1154 0.929 1_565 S
H1141 C1155 0.920 1_565 S
H1142 C1157 0.930 . S
C1143 H1131 0.930 . S
C1143 C1144 1.399 . S
C1143 C1148 1.399 . S
C1144 C1143 1.399 . S
C1144 C1145 1.376 . S
C1145 H1132 0.930 . S
C1145 C1144 1.376 . S
C1145 C1146 1.388 . S
C1146 H1133 0.930 1_545 S
C1146 C1145 1.388 . S
C1146 C1147 1.390 . S
C1147 C1146 1.390 . S
C1147 C1148 1.394 . S
C1147 C1153 1.465 1_455 S
C1148 C1143 1.399 . S
C1148 C1147 1.394 . S
C1148 C1149 1.515 . S
C1149 C1148 1.515 . S
C1149 C1150 1.500 . S
C1149 C1151 1.564 1_455 S
C1149 C1152 1.527 1_455 S
C1150 H1134 0.959 . S
C1150 H1135 0.959 . S
C1150 H1136 0.961 . S
C1150 C1149 1.500 . S
C1151 H1137 0.960 . S
C1151 H1138 0.961 . S
C1151 H1139 0.959 . S
C1151 C1149 1.564 1_655 S
C1152 C1149 1.527 1_655 S
C1152 C1153 1.396 . S
C1152 C1157 1.390 . S
C1153 C1147 1.465 1_655 S
C1153 C1152 1.396 . S
C1153 C1154 1.399 . S
C1154 H1140 0.929 1_545 S
C1154 C1153 1.399 . S
C1154 C1155 1.385 . S
C1155 H1141 0.920 1_545 S
C1155 C1154 1.385 . S
C1155 C1156 1.389 . S
C1156 C1155 1.389 . S
C1156 C1157 1.387 . S
C1157 H1142 0.930 . S
C1157 C1152 1.390 . S
C1157 C1156 1.387 . S
H1158 C1170 0.930 . S
H1159 C1172 0.930 . S
H1160 C1173 0.930 . S
H1161 C1177 0.959 . S
H1162 C1177 0.959 . S
H1163 C1177 0.961 . S
H1164 C1178 0.960 . S
H1165 C1178 0.961 . S
H1166 C1178 0.959 . S
H1167 C1181 0.929 . S
H1168 C1182 0.931 . S
H1169 C1184 0.930 . S
C1170 H1158 0.930 . S
C1170 C1171 1.399 . S
C1170 C1175 1.399 . S
C1171 C1170 1.399 . S
C1171 C1172 1.376 . S
C1172 H1159 0.930 . S
C1172 C1171 1.376 . S
C1172 C1173 1.388 . S
C1173 H1160 0.930 . S
C1173 C1172 1.388 . S
C1173 C1174 1.390 . S
C1174 C1173 1.390 . S
C1174 C1175 1.394 . S
C1174 C1180 1.465 . S
C1175 C1170 1.399 . S
C1175 C1174 1.394 . S
C1175 C1176 1.516 . S
C1176 C1175 1.516 . S
C1176 C1177 1.502 . S
C1176 C1178 1.561 . S
C1176 C1179 1.526 . S
C1177 H1161 0.959 . S
C1177 H1162 0.959 . S
C1177 H1163 0.961 . S
C1177 C1176 1.502 . S
C1178 H1164 0.960 . S
C1178 H1165 0.961 . S
C1178 H1166 0.959 . S
C1178 C1176 1.561 . S
C1179 C1176 1.526 . S
C1179 C1180 1.396 . S
C1179 C1184 1.390 . S
C1180 C1174 1.465 . S
C1180 C1179 1.396 . S
C1180 C1181 1.399 . S
C1181 H1167 0.929 . S
C1181 C1180 1.399 . S
C1181 C1182 1.385 . S
C1182 H1168 0.931 . S
C1182 C1181 1.385 . S
C1182 C1183 1.389 . S
C1183 C1182 1.389 . S
C1183 C1184 1.387 . S
C1184 H1169 0.930 . S
C1184 C1179 1.390 . S
C1184 C1183 1.387 . S
H1185 C1197 0.930 . S
H1186 C1199 0.921 1_655 S
H1187 C1200 0.930 . S
H1188 C1204 0.959 . S
H1189 C1204 0.959 . S
H1190 C1204 0.961 . S
H1191 C1205 0.960 . S
H1192 C1205 0.961 . S
H1193 C1205 0.959 . S
H1194 C1208 0.929 . S
H1195 C1209 0.931 . S
H1196 C1211 0.930 . S
C1197 H1185 0.930 . S
C1197 C1198 1.399 . S
C1197 C1202 1.399 . S
C1198 C1197 1.399 . S
C1198 C1199 1.379 . S
C1199 H1186 0.921 1_455 S
C1199 C1198 1.379 . S
C1199 C1200 1.394 . S
C1200 H1187 0.930 . S
C1200 C1199 1.394 . S
C1200 C1201 1.390 . S
C1201 C1200 1.390 . S
C1201 C1202 1.394 . S
C1201 C1207 1.465 . S
C1202 C1197 1.399 . S
C1202 C1201 1.394 . S
C1202 C1203 1.516 . S
C1203 C1202 1.516 . S
C1203 C1204 1.502 . S
C1203 C1205 1.561 . S
C1203 C1206 1.526 . S
C1204 H1188 0.959 . S
C1204 H1189 0.959 . S
C1204 H1190 0.961 . S
C1204 C1203 1.502 . S
C1205 H1191 0.960 . S
C1205 H1192 0.961 . S
C1205 H1193 0.959 . S
C1205 C1203 1.561 . S
C1206 C1203 1.526 . S
C1206 C1207 1.396 . S
C1206 C1211 1.390 . S
C1207 C1201 1.465 . S
C1207 C1206 1.396 . S
C1207 C1208 1.399 . S
C1208 H1194 0.929 . S
C1208 C1207 1.399 . S
C1208 C1209 1.385 . S
C1209 H1195 0.931 . S
C1209 C1208 1.385 . S
C1209 C1210 1.389 . S
C1210 C1209 1.389 . S
C1210 C1211 1.387 . S
C1211 H1196 0.930 . S
C1211 C1206 1.390 . S
C1211 C1210 1.387 . S
H1212 C1224 0.930 . S
H1213 C1226 0.930 . S
H1214 C1227 0.930 . S
H1215 C1231 0.959 . S
H1216 C1231 0.959 . S
H1217 C1231 0.961 . S
H1218 C1232 0.960 . S
H1219 C1232 0.961 . S
H1220 C1232 0.959 . S
H1221 C1235 0.929 . S
H1222 C1236 0.931 . S
H1223 C1238 0.930 . S
C1224 H1212 0.930 . S
C1224 C1225 1.399 . S
C1224 C1229 1.399 . S
C1225 C1224 1.399 . S
C1225 C1226 1.376 . S
C1226 H1213 0.930 . S
C1226 C1225 1.376 . S
C1226 C1227 1.388 . S
C1227 H1214 0.930 . S
C1227 C1226 1.388 . S
C1227 C1228 1.390 . S
C1228 C1227 1.390 . S
C1228 C1229 1.394 . S
C1228 C1234 1.465 . S
C1229 C1224 1.399 . S
C1229 C1228 1.394 . S
C1229 C1230 1.516 . S
C1230 C1229 1.516 . S
C1230 C1231 1.502 . S
C1230 C1232 1.561 . S
C1230 C1233 1.526 . S
C1231 H1215 0.959 . S
C1231 H1216 0.959 . S
C1231 H1217 0.961 . S
C1231 C1230 1.502 . S
C1232 H1218 0.960 . S
C1232 H1219 0.961 . S
C1232 H1220 0.959 . S
C1232 C1230 1.561 . S
C1233 C1230 1.526 . S
C1233 C1234 1.396 . S
C1233 C1238 1.390 . S
C1234 C1228 1.465 . S
C1234 C1233 1.396 . S
C1234 C1235 1.399 . S
C1235 H1221 0.929 . S
C1235 C1234 1.399 . S
C1235 C1236 1.385 . S
C1236 H1222 0.931 . S
C1236 C1235 1.385 . S
C1236 C1237 1.389 . S
C1237 C1236 1.389 . S
C1237 C1238 1.387 . S
C1238 H1223 0.930 . S
C1238 C1233 1.390 . S
C1238 C1237 1.387 . S
H1239 C1251 0.897 1_454 S
H1240 C1253 0.930 . S
H1241 C1254 0.930 . S
H1242 C1258 0.959 . S
H1243 C1258 0.959 . S
H1244 C1258 0.961 . S
H1245 C1259 0.960 . S
H1246 C1259 0.961 . S
H1247 C1259 0.959 . S
H1248 C1262 0.929 . S
H1249 C1263 0.931 . S
H1250 C1265 0.930 . S
C1251 H1239 0.897 1_656 S
C1251 C1252 1.399 . S
C1251 C1256 1.399 . S
C1252 C1251 1.399 . S
C1252 C1253 1.376 . S
C1253 H1240 0.930 . S
C1253 C1252 1.376 . S
C1253 C1254 1.388 . S
C1254 H1241 0.930 . S
C1254 C1253 1.388 . S
C1254 C1255 1.390 . S
C1255 C1254 1.390 . S
C1255 C1256 1.394 . S
C1255 C1261 1.465 . S
C1256 C1251 1.399 . S
C1256 C1255 1.394 . S
C1256 C1257 1.516 1_655 S
C1257 C1256 1.516 1_455 S
C1257 C1258 1.502 . S
C1257 C1259 1.561 1_455 S
C1257 C1260 1.526 1_455 S
C1258 H1242 0.959 . S
C1258 H1243 0.959 . S
C1258 H1244 0.961 . S
C1258 C1257 1.502 . S
C1259 H1245 0.960 . S
C1259 H1246 0.961 . S
C1259 H1247 0.959 . S
C1259 C1257 1.561 1_655 S
C1260 C1257 1.526 1_655 S
C1260 C1261 1.396 . S
C1260 C1265 1.390 1_655 S
C1261 C1255 1.465 . S
C1261 C1260 1.396 . S
C1261 C1262 1.399 . S
C1262 H1248 0.929 . S
C1262 C1261 1.399 . S
C1262 C1263 1.385 . S
C1263 H1249 0.931 . S
C1263 C1262 1.385 . S
C1263 C1264 1.389 . S
C1264 C1263 1.389 . S
C1264 C1265 1.387 1_655 S
C1265 H1250 0.930 . S
C1265 C1260 1.390 1_455 S
C1265 C1264 1.387 1_455 S
H1266 C1278 0.930 . S
H1267 C1280 0.930 . S
H1268 C1281 0.930 . S
H1269 C1285 0.959 . S
H1270 C1285 0.959 . S
H1271 C1285 0.961 . S
H1272 C1286 0.960 . S
H1273 C1286 0.961 . S
H1274 C1286 0.959 . S
H1275 C1289 0.929 . S
H1276 C1290 0.931 . S
H1277 C1292 0.930 . S
C1278 H1266 0.930 . S
C1278 C1279 1.399 . S
C1278 C1283 1.399 . S
C1279 C1278 1.399 . S
C1279 C1280 1.376 . S
C1280 H1267 0.930 . S
C1280 C1279 1.376 . S
C1280 C1281 1.388 . S
C1281 H1268 0.930 . S
C1281 C1280 1.388 . S
C1281 C1282 1.390 . S
C1282 C1281 1.390 . S
C1282 C1283 1.394 . S
C1282 C1288 1.465 . S
C1283 C1278 1.399 . S
C1283 C1282 1.394 . S
C1283 C1284 1.516 . S
C1284 C1283 1.516 . S
C1284 C1285 1.502 . S
C1284 C1286 1.561 . S
C1284 C1287 1.526 . S
C1285 H1269 0.959 . S
C1285 H1270 0.959 . S
C1285 H1271 0.961 . S
C1285 C1284 1.502 . S
C1286 H1272 0.960 . S
C1286 H1273 0.961 . S
C1286 H1274 0.959 . S
C1286 C1284 1.561 . S
C1287 C1284 1.526 . S
C1287 C1288 1.396 . S
C1287 C1292 1.390 . S
C1288 C1282 1.465 . S
C1288 C1287 1.396 . S
C1288 C1289 1.399 . S
C1289 H1275 0.929 . S
C1289 C1288 1.399 . S
C1289 C1290 1.385 . S
C1290 H1276 0.931 . S
C1290 C1289 1.385 . S
C1290 C1291 1.389 . S
C1291 C1290 1.389 . S
C1291 C1292 1.387 . S
C1292 H1277 0.930 . S
C1292 C1287 1.390 . S
C1292 C1291 1.387 . S
H1293 C1305 0.930 1_554 S
H1294 C1307 0.930 . S
H1295 C1308 0.930 . S
H1296 C1312 0.959 . S
H1297 C1312 0.959 . S
H1298 C1312 0.961 . S
H1299 C1313 0.960 1_554 S
H1300 C1313 0.961 . S
H1301 C1313 0.959 . S
H1302 C1316 0.929 . S
H1303 C1317 0.931 . S
H1304 C1319 0.930 . S
C1305 H1293 0.930 1_556 S
C1305 C1306 1.399 . S
C1305 C1310 1.399 . S
C1306 C1305 1.399 . S
C1306 C1307 1.376 . S
C1307 H1294 0.930 . S
C1307 C1306 1.376 . S
C1307 C1308 1.388 . S
C1308 H1295 0.930 . S
C1308 C1307 1.388 . S
C1308 C1309 1.390 . S
C1309 C1308 1.390 . S
C1309 C1310 1.394 . S
C1309 C1315 1.465 . S
C1310 C1305 1.399 . S
C1310 C1309 1.394 . S
C1310 C1311 1.516 . S
C1311 C1310 1.516 . S
C1311 C1312 1.502 1_455 S
C1311 C1313 1.561 . S
C1311 C1314 1.526 . S
C1312 H1296 0.959 . S
C1312 H1297 0.959 . S
C1312 H1298 0.961 . S
C1312 C1311 1.502 1_655 S
C1313 H1299 0.960 1_556 S
C1313 H1300 0.961 . S
C1313 H1301 0.959 . S
C1313 C1311 1.561 . S
C1314 C1311 1.526 . S
C1314 C1315 1.396 . S
C1314 C1319 1.390 . S
C1315 C1309 1.465 . S
C1315 C1314 1.396 . S
C1315 C1316 1.399 . S
C1316 H1302 0.929 . S
C1316 C1315 1.399 . S
C1316 C1317 1.385 . S
C1317 H1303 0.931 . S
C1317 C1316 1.385 . S
C1317 C1318 1.389 . S
C1318 C1317 1.389 . S
C1318 C1319 1.387 . S
C1319 H1304 0.930 . S
C1319 C1314 1.390 . S
C1319 C1318 1.387 . S
H1320 C1332 0.930 . S
H1321 C1334 0.930 . S
H1322 C1335 0.930 . S
H1323 C1339 0.959 . S
H1324 C1339 0.959 . S
H1325 C1339 0.961 . S
H1326 C1340 0.960 . S
H1327 C1340 0.961 . S
H1328 C1340 0.959 . S
H1329 C1343 0.929 . S
H1330 C1344 0.931 . S
H1331 C1346 0.930 . S
C1332 H1320 0.930 . S
C1332 C1333 1.399 . S
C1332 C1337 1.399 . S
C1333 C1332 1.399 . S
C1333 C1334 1.376 . S
C1334 H1321 0.930 . S
C1334 C1333 1.376 . S
C1334 C1335 1.388 . S
C1335 H1322 0.930 . S
C1335 C1334 1.388 . S
C1335 C1336 1.390 . S
C1336 C1335 1.390 . S
C1336 C1337 1.394 . S
C1336 C1342 1.465 . S
C1337 C1332 1.399 . S
C1337 C1336 1.394 . S
C1337 C1338 1.516 . S
C1338 C1337 1.516 . S
C1338 C1339 1.502 . S
C1338 C1340 1.561 . S
C1338 C1341 1.526 . S
C1339 H1323 0.959 . S
C1339 H1324 0.959 . S
C1339 H1325 0.961 . S
C1339 C1338 1.502 . S
C1340 H1326 0.960 . S
C1340 H1327 0.961 . S
C1340 H1328 0.959 . S
C1340 C1338 1.561 . S
C1341 C1338 1.526 . S
C1341 C1342 1.396 . S
C1341 C1346 1.390 . S
C1342 C1336 1.465 . S
C1342 C1341 1.396 . S
C1342 C1343 1.399 . S
C1343 H1329 0.929 . S
C1343 C1342 1.399 . S
C1343 C1344 1.385 . S
C1344 H1330 0.931 . S
C1344 C1343 1.385 . S
C1344 C1345 1.389 . S
C1345 C1344 1.389 . S
C1345 C1346 1.387 . S
C1346 H1331 0.930 . S
C1346 C1341 1.390 . S
C1346 C1345 1.387 . S
H1347 C1359 0.930 . S
H1348 C1361 0.937 . S
H1349 C1362 0.930 . S
H1350 C1366 0.959 . S
H1351 C1366 0.959 . S
H1352 C1366 0.961 . S
H1353 C1367 0.960 . S
H1354 C1367 0.961 . S
H1355 C1367 0.959 . S
H1356 C1370 0.929 . S
H1357 C1371 0.931 . S
H1358 C1373 0.930 . S
C1359 H1347 0.930 . S
C1359 C1360 1.399 . S
C1359 C1364 1.399 . S
C1360 C1359 1.399 . S
C1360 C1361 1.376 . S
C1361 H1348 0.937 . S
C1361 C1360 1.376 . S
C1361 C1362 1.388 . S
C1362 H1349 0.930 . S
C1362 C1361 1.388 . S
C1362 C1363 1.390 . S
C1363 C1362 1.390 . S
C1363 C1364 1.394 . S
C1363 C1369 1.465 . S
C1364 C1359 1.399 . S
C1364 C1363 1.394 . S
C1364 C1365 1.516 . S
C1365 C1364 1.516 . S
C1365 C1366 1.502 . S
C1365 C1367 1.561 . S
C1365 C1368 1.526 . S
C1366 H1350 0.959 . S
C1366 H1351 0.959 . S
C1366 H1352 0.961 . S
C1366 C1365 1.502 . S
C1367 H1353 0.960 . S
C1367 H1354 0.961 . S
C1367 H1355 0.959 . S
C1367 C1365 1.561 . S
C1368 C1365 1.526 . S
C1368 C1369 1.396 . S
C1368 C1373 1.390 . S
C1369 C1363 1.465 . S
C1369 C1368 1.396 . S
C1369 C1370 1.399 . S
C1370 H1356 0.929 . S
C1370 C1369 1.399 . S
C1370 C1371 1.385 . S
C1371 H1357 0.931 . S
C1371 C1370 1.385 . S
C1371 C1372 1.389 . S
C1372 C1371 1.389 . S
C1372 C1373 1.387 . S
C1373 H1358 0.930 . S
C1373 C1368 1.390 . S
C1373 C1372 1.387 . S
H1374 C1386 0.930 . S
H1375 C1388 0.930 . S
H1376 C1389 0.930 . S
H1377 C1393 0.959 . S
H1378 C1393 0.959 . S
H1379 C1393 0.961 . S
H1380 C1394 0.960 . S
H1381 C1394 0.961 . S
H1382 C1394 0.959 . S
H1383 C1397 0.929 . S
H1384 C1398 0.931 . S
H1385 C1400 0.930 . S
C1386 H1374 0.930 . S
C1386 C1387 1.399 . S
C1386 C1391 1.399 . S
C1387 C1386 1.399 . S
C1387 C1388 1.376 . S
C1388 H1375 0.930 . S
C1388 C1387 1.376 . S
C1388 C1389 1.388 . S
C1389 H1376 0.930 . S
C1389 C1388 1.388 . S
C1389 C1390 1.390 . S
C1390 C1389 1.390 . S
C1390 C1391 1.394 . S
C1390 C1396 1.465 . S
C1391 C1386 1.399 . S
C1391 C1390 1.394 . S
C1391 C1392 1.516 . S
C1392 C1391 1.516 . S
C1392 C1393 1.502 . S
C1392 C1394 1.561 . S
C1392 C1395 1.526 . S
C1393 H1377 0.959 . S
C1393 H1378 0.959 . S
C1393 H1379 0.961 . S
C1393 C1392 1.502 . S
C1394 H1380 0.960 . S
C1394 H1381 0.961 . S
C1394 H1382 0.959 . S
C1394 C1392 1.561 . S
C1395 C1392 1.526 . S
C1395 C1396 1.396 . S
C1395 C1400 1.390 . S
C1396 C1390 1.465 . S
C1396 C1395 1.396 . S
C1396 C1397 1.399 . S
C1397 H1383 0.929 . S
C1397 C1396 1.399 . S
C1397 C1398 1.385 . S
C1398 H1384 0.931 . S
C1398 C1397 1.385 . S
C1398 C1399 1.389 . S
C1399 C1398 1.389 . S
C1399 C1400 1.387 . S
C1400 H1385 0.930 . S
C1400 C1395 1.390 . S
C1400 C1399 1.387 . S
H1401 C1413 0.883 1_556 S
H1402 C1415 0.930 . S
H1403 C1416 0.930 . S
H1404 C1420 0.959 . S
H1405 C1420 0.959 . S
H1406 C1420 0.961 1_556 S
H1407 C1421 0.960 1_556 S
H1408 C1421 0.961 . S
H1409 C1421 0.959 . S
H1410 C1424 0.929 . S
H1411 C1425 0.931 . S
H1412 C1427 0.930 . S
C1413 H1401 0.883 1_554 S
C1413 C1414 1.411 . S
C1413 C1418 1.435 . S
C1414 C1413 1.411 . S
C1414 C1415 1.376 . S
C1415 H1402 0.930 . S
C1415 C1414 1.376 . S
C1415 C1416 1.388 . S
C1416 H1403 0.930 . S
C1416 C1415 1.388 . S
C1416 C1417 1.390 . S
C1417 C1416 1.390 . S
C1417 C1418 1.394 . S
C1417 C1423 1.465 . S
C1418 C1413 1.435 . S
C1418 C1417 1.394 . S
C1418 C1419 1.516 . S
C1419 C1418 1.516 . S
C1419 C1420 1.502 . S
C1419 C1421 1.561 . S
C1419 C1422 1.526 . S
C1420 H1404 0.959 . S
C1420 H1405 0.959 . S
C1420 H1406 0.961 1_554 S
C1420 C1419 1.502 . S
C1421 H1407 0.960 1_554 S
C1421 H1408 0.961 . S
C1421 H1409 0.959 . S
C1421 C1419 1.561 . S
C1422 C1419 1.526 . S
C1422 C1423 1.396 . S
C1422 C1427 1.390 . S
C1423 C1417 1.465 . S
C1423 C1422 1.396 . S
C1423 C1424 1.399 . S
C1424 H1410 0.929 . S
C1424 C1423 1.399 . S
C1424 C1425 1.385 . S
C1425 H1411 0.931 . S
C1425 C1424 1.385 . S
C1425 C1426 1.389 . S
C1426 C1425 1.389 . S
C1426 C1427 1.387 . S
C1427 H1412 0.930 . S
C1427 C1422 1.390 . S
C1427 C1426 1.387 . S
H1428 C1440 0.930 . S
H1429 C1442 0.930 . S
H1430 C1443 0.930 . S
H1431 C1447 0.959 . S
H1432 C1447 0.959 . S
H1433 C1447 0.961 . S
H1434 C1448 0.960 . S
H1435 C1448 0.961 . S
H1436 C1448 0.959 . S
H1437 C1451 0.929 . S
H1438 C1452 0.931 . S
H1439 C1454 0.930 . S
C1440 H1428 0.930 . S
C1440 C1441 1.399 . S
C1440 C1445 1.399 . S
C1441 C1440 1.399 . S
C1441 C1442 1.376 . S
C1442 H1429 0.930 . S
C1442 C1441 1.376 . S
C1442 C1443 1.388 . S
C1443 H1430 0.930 . S
C1443 C1442 1.388 . S
C1443 C1444 1.390 . S
C1444 C1443 1.390 . S
C1444 C1445 1.394 . S
C1444 C1450 1.465 . S
C1445 C1440 1.399 . S
C1445 C1444 1.394 . S
C1445 C1446 1.516 . S
C1446 C1445 1.516 . S
C1446 C1447 1.502 . S
C1446 C1448 1.561 . S
C1446 C1449 1.526 . S
C1447 H1431 0.959 . S
C1447 H1432 0.959 . S
C1447 H1433 0.961 . S
C1447 C1446 1.502 . S
C1448 H1434 0.960 . S
C1448 H1435 0.961 . S
C1448 H1436 0.959 . S
C1448 C1446 1.561 . S
C1449 C1446 1.526 . S
C1449 C1450 1.396 . S
C1449 C1454 1.390 . S
C1450 C1444 1.465 . S
C1450 C1449 1.396 . S
C1450 C1451 1.399 . S
C1451 H1437 0.929 . S
C1451 C1450 1.399 . S
C1451 C1452 1.385 . S
C1452 H1438 0.931 . S
C1452 C1451 1.385 . S
C1452 C1453 1.389 . S
C1453 C1452 1.389 . S
C1453 C1454 1.387 . S
C1454 H1439 0.930 . S
C1454 C1449 1.390 . S
C1454 C1453 1.387 . S
H1455 C1467 0.930 . S
H1456 C1469 0.930 . S
H1457 C1470 0.930 . S
H1458 C1474 0.959 . S
H1459 C1474 0.959 . S
H1460 C1474 0.961 . S
H1461 C1475 0.960 . S
H1462 C1475 0.961 . S
H1463 C1475 0.959 . S
H1464 C1478 0.929 . S
H1465 C1479 0.931 . S
H1466 C1481 0.930 . S
C1467 H1455 0.930 . S
C1467 C1468 1.399 . S
C1467 C1472 1.399 . S
C1468 C1467 1.399 . S
C1468 C1469 1.376 . S
C1469 H1456 0.930 . S
C1469 C1468 1.376 . S
C1469 C1470 1.388 . S
C1470 H1457 0.930 . S
C1470 C1469 1.388 . S
C1470 C1471 1.390 . S
C1471 C1470 1.390 . S
C1471 C1472 1.394 . S
C1471 C1477 1.465 . S
C1472 C1467 1.399 . S
C1472 C1471 1.394 . S
C1472 C1473 1.516 . S
C1473 C1472 1.516 . S
C1473 C1474 1.502 . S
C1473 C1475 1.561 . S
C1473 C1476 1.526 . S
C1474 H1458 0.959 . S
C1474 H1459 0.959 . S
C1474 H1460 0.961 . S
C1474 C1473 1.502 . S
C1475 H1461 0.960 . S
C1475 H1462 0.961 . S
C1475 H1463 0.959 . S
C1475 C1473 1.561 . S
C1476 C1473 1.526 . S
C1476 C1477 1.396 . S
C1476 C1481 1.390 . S
C1477 C1471 1.465 . S
C1477 C1476 1.396 . S
C1477 C1478 1.399 . S
C1478 H1464 0.929 . S
C1478 C1477 1.399 . S
C1478 C1479 1.385 . S
C1479 H1465 0.931 . S
C1479 C1478 1.385 . S
C1479 C1480 1.389 . S
C1480 C1479 1.389 . S
C1480 C1481 1.387 . S
C1481 H1466 0.930 . S
C1481 C1476 1.390 . S
C1481 C1480 1.387 . S
H1482 C1494 0.930 . S
H1483 C1496 0.930 . S
H1484 C1497 0.930 . S
H1485 C1501 0.959 . S
H1486 C1501 0.959 . S
H1487 C1501 0.961 . S
H1488 C1502 0.960 . S
H1489 C1502 0.961 . S
H1490 C1502 0.959 . S
H1491 C1505 0.929 . S
H1492 C1506 0.931 . S
H1493 C1508 0.930 . S
C1494 H1482 0.930 . S
C1494 C1495 1.399 . S
C1494 C1499 1.399 . S
C1495 C1494 1.399 . S
C1495 C1496 1.376 . S
C1496 H1483 0.930 . S
C1496 C1495 1.376 . S
C1496 C1497 1.388 . S
C1497 H1484 0.930 . S
C1497 C1496 1.388 . S
C1497 C1498 1.390 . S
C1498 C1497 1.390 . S
C1498 C1499 1.394 . S
C1498 C1504 1.465 . S
C1499 C1494 1.399 . S
C1499 C1498 1.394 . S
C1499 C1500 1.516 . S
C1500 C1499 1.516 . S
C1500 C1501 1.502 . S
C1500 C1502 1.561 . S
C1500 C1503 1.526 . S
C1501 H1485 0.959 . S
C1501 H1486 0.959 . S
C1501 H1487 0.961 . S
C1501 C1500 1.502 . S
C1502 H1488 0.960 . S
C1502 H1489 0.961 . S
C1502 H1490 0.959 . S
C1502 C1500 1.561 . S
C1503 C1500 1.526 . S
C1503 C1504 1.396 . S
C1503 C1508 1.390 . S
C1504 C1498 1.465 . S
C1504 C1503 1.396 . S
C1504 C1505 1.399 . S
C1505 H1491 0.929 . S
C1505 C1504 1.399 . S
C1505 C1506 1.385 . S
C1506 H1492 0.931 . S
C1506 C1505 1.385 . S
C1506 C1507 1.389 . S
C1507 C1506 1.389 . S
C1507 C1508 1.387 . S
C1508 H1493 0.930 . S
C1508 C1503 1.390 . S
C1508 C1507 1.387 . S
H1509 C1521 0.930 . S
H1510 C1523 0.930 . S
H1511 C1524 0.930 . S
H1512 C1528 0.959 . S
H1513 C1528 0.959 . S
H1514 C1528 0.961 . S
H1515 C1529 0.960 . S
H1516 C1529 0.961 . S
H1517 C1529 0.959 . S
H1518 C1532 0.929 . S
H1519 C1533 0.931 . S
H1520 C1535 0.930 . S
C1521 H1509 0.930 . S
C1521 C1522 1.399 . S
C1521 C1526 1.399 . S
C1522 C1521 1.399 . S
C1522 C1523 1.376 . S
C1523 H1510 0.930 . S
C1523 C1522 1.376 . S
C1523 C1524 1.388 . S
C1524 H1511 0.930 . S
C1524 C1523 1.388 . S
C1524 C1525 1.390 . S
C1525 C1524 1.390 . S
C1525 C1526 1.394 . S
C1525 C1531 1.465 . S
C1526 C1521 1.399 . S
C1526 C1525 1.394 . S
C1526 C1527 1.516 . S
C1527 C1526 1.516 . S
C1527 C1528 1.502 . S
C1527 C1529 1.561 . S
C1527 C1530 1.526 . S
C1528 H1512 0.959 . S
C1528 H1513 0.959 . S
C1528 H1514 0.961 . S
C1528 C1527 1.502 . S
C1529 H1515 0.960 . S
C1529 H1516 0.961 . S
C1529 H1517 0.959 . S
C1529 C1527 1.561 . S
C1530 C1527 1.526 . S
C1530 C1531 1.396 . S
C1530 C1535 1.390 . S
C1531 C1525 1.465 . S
C1531 C1530 1.396 . S
C1531 C1532 1.399 . S
C1532 H1518 0.929 . S
C1532 C1531 1.399 . S
C1532 C1533 1.385 . S
C1533 H1519 0.931 . S
C1533 C1532 1.385 . S
C1533 C1534 1.389 . S
C1534 C1533 1.389 . S
C1534 C1535 1.387 . S
C1535 H1520 0.930 . S
C1535 C1530 1.390 . S
C1535 C1534 1.387 . S
H1536 C1548 0.930 . S
H1537 C1550 0.930 . S
H1538 C1551 0.930 . S
H1539 C1555 0.959 1_556 S
H1540 C1555 0.959 . S
H1541 C1555 0.961 . S
H1542 C1556 0.960 . S
H1543 C1556 0.961 . S
H1544 C1556 0.959 . S
H1545 C1559 0.929 . S
H1546 C1560 0.931 . S
H1547 C1562 0.907 1_554 S
C1548 H1536 0.930 . S
C1548 C1549 1.399 . S
C1548 C1553 1.399 . S
C1549 C1548 1.399 . S
C1549 C1550 1.376 . S
C1550 H1537 0.930 . S
C1550 C1549 1.376 . S
C1550 C1551 1.388 . S
C1551 H1538 0.930 . S
C1551 C1550 1.388 . S
C1551 C1552 1.390 . S
C1552 C1551 1.390 . S
C1552 C1553 1.394 . S
C1552 C1558 1.465 . S
C1553 C1548 1.399 . S
C1553 C1552 1.394 . S
C1553 C1554 1.516 1_556 S
C1554 C1553 1.516 1_554 S
C1554 C1555 1.502 . S
C1554 C1556 1.561 . S
C1554 C1557 1.526 1_554 S
C1555 H1539 0.959 1_554 S
C1555 H1540 0.959 . S
C1555 H1541 0.961 . S
C1555 C1554 1.502 . S
C1556 H1542 0.960 . S
C1556 H1543 0.961 . S
C1556 H1544 0.959 . S
C1556 C1554 1.561 . S
C1557 C1554 1.526 1_556 S
C1557 C1558 1.396 . S
C1557 C1562 1.395 . S
C1558 C1552 1.465 . S
C1558 C1557 1.396 . S
C1558 C1559 1.399 . S
C1559 H1545 0.929 . S
C1559 C1558 1.399 . S
C1559 C1560 1.385 . S
C1560 H1546 0.931 . S
C1560 C1559 1.385 . S
C1560 C1561 1.389 . S
C1561 C1560 1.389 . S
C1561 C1562 1.406 . S
C1562 H1547 0.907 1_556 S
C1562 C1557 1.395 . S
C1562 C1561 1.406 . S
H1563 C1575 0.930 . S
H1564 C1577 0.930 . S
H1565 C1578 0.930 . S
H1566 C1582 0.959 . S
H1567 C1582 0.959 . S
H1568 C1582 0.961 . S
H1569 C1583 0.960 . S
H1570 C1583 0.961 . S
H1571 C1583 0.959 . S
H1572 C1586 0.929 . S
H1573 C1587 0.931 . S
H1574 C1589 0.930 . S
C1575 H1563 0.930 . S
C1575 C1576 1.399 . S
C1575 C1580 1.399 . S
C1576 C1575 1.399 . S
C1576 C1577 1.376 . S
C1577 H1564 0.930 . S
C1577 C1576 1.376 . S
C1577 C1578 1.388 . S
C1578 H1565 0.930 . S
C1578 C1577 1.388 . S
C1578 C1579 1.390 . S
C1579 C1578 1.390 . S
C1579 C1580 1.394 . S
C1579 C1585 1.465 . S
C1580 C1575 1.399 . S
C1580 C1579 1.394 . S
C1580 C1581 1.516 . S
C1581 C1580 1.516 . S
C1581 C1582 1.502 . S
C1581 C1583 1.561 . S
C1581 C1584 1.526 . S
C1582 H1566 0.959 . S
C1582 H1567 0.959 . S
C1582 H1568 0.961 . S
C1582 C1581 1.502 . S
C1583 H1569 0.960 . S
C1583 H1570 0.961 . S
C1583 H1571 0.959 . S
C1583 C1581 1.561 . S
C1584 C1581 1.526 . S
C1584 C1585 1.396 . S
C1584 C1589 1.390 . S
C1585 C1579 1.465 . S
C1585 C1584 1.396 . S
C1585 C1586 1.399 . S
C1586 H1572 0.929 . S
C1586 C1585 1.399 . S
C1586 C1587 1.385 . S
C1587 H1573 0.931 . S
C1587 C1586 1.385 . S
C1587 C1588 1.389 . S
C1588 C1587 1.389 . S
C1588 C1589 1.387 . S
C1589 H1574 0.930 . S
C1589 C1584 1.390 . S
C1589 C1588 1.387 . S
H1590 C1602 0.930 . S
H1591 C1604 0.920 1_556 S
H1592 C1605 0.921 1_556 S
H1593 C1609 0.959 . S
H1594 C1609 0.959 . S
H1595 C1609 0.961 . S
H1596 C1610 0.960 . S
H1597 C1610 0.961 . S
H1598 C1610 0.959 . S
H1599 C1613 0.929 . S
H1600 C1614 0.931 . S
H1601 C1616 0.930 . S
C1602 H1590 0.930 . S
C1602 C1603 1.399 . S
C1602 C1607 1.399 . S
C1603 C1602 1.399 . S
C1603 C1604 1.376 . S
C1604 H1591 0.920 1_554 S
C1604 C1603 1.376 . S
C1604 C1605 1.392 . S
C1605 H1592 0.921 1_554 S
C1605 C1604 1.392 . S
C1605 C1606 1.395 . S
C1606 C1605 1.395 . S
C1606 C1607 1.394 . S
C1606 C1612 1.465 . S
C1607 C1602 1.399 . S
C1607 C1606 1.394 . S
C1607 C1608 1.516 . S
C1608 C1607 1.516 . S
C1608 C1609 1.502 . S
C1608 C1610 1.561 . S
C1608 C1611 1.526 . S
C1609 H1593 0.959 . S
C1609 H1594 0.959 . S
C1609 H1595 0.961 . S
C1609 C1608 1.502 . S
C1610 H1596 0.960 . S
C1610 H1597 0.961 . S
C1610 H1598 0.959 . S
C1610 C1608 1.561 . S
C1611 C1608 1.526 . S
C1611 C1612 1.396 . S
C1611 C1616 1.390 . S
C1612 C1606 1.465 . S
C1612 C1611 1.396 . S
C1612 C1613 1.399 1_554 S
C1613 H1599 0.929 . S
C1613 C1612 1.399 1_556 S
C1613 C1614 1.385 . S
C1614 H1600 0.931 . S
C1614 C1613 1.385 . S
C1614 C1615 1.389 1_556 S
C1615 C1614 1.389 1_554 S
C1615 C1616 1.387 . S
C1616 H1601 0.930 . S
C1616 C1611 1.390 . S
C1616 C1615 1.387 . S
H1617 C1629 0.930 . S
H1618 C1631 0.930 . S
H1619 C1632 0.930 . S
H1620 C1636 0.959 . S
H1621 C1636 0.959 . S
H1622 C1636 0.961 . S
H1623 C1637 0.960 . S
H1624 C1637 0.961 1_565 S
H1625 C1637 0.958 1_554 S
H1626 C1640 0.929 . S
H1627 C1641 0.931 . S
H1628 C1643 0.930 1_556 S
C1629 H1617 0.930 . S
C1629 C1630 1.399 . S
C1629 C1634 1.399 1_545 S
C1630 C1629 1.399 . S
C1630 C1631 1.376 . S
C1631 H1618 0.930 . S
C1631 C1630 1.376 . S
C1631 C1632 1.388 1_545 S
C1632 H1619 0.930 . S
C1632 C1631 1.388 1_565 S
C1632 C1633 1.390 . S
C1633 C1632 1.390 . S
C1633 C1634 1.394 . S
C1633 C1639 1.465 . S
C1634 C1629 1.399 1_565 S
C1634 C1633 1.394 . S
C1634 C1635 1.516 . S
C1635 C1634 1.516 . S
C1635 C1636 1.502 1_554 S
C1635 C1637 1.562 1_564 S
C1635 C1638 1.526 . S
C1636 H1620 0.959 . S
C1636 H1621 0.959 . S
C1636 H1622 0.961 . S
C1636 C1635 1.502 1_556 S
C1637 H1623 0.960 . S
C1637 H1624 0.961 1_545 S
C1637 H1625 0.958 1_556 S
C1637 C1635 1.562 1_546 S
C1638 C1635 1.526 . S
C1638 C1639 1.396 . S
C1638 C1643 1.390 . S
C1639 C1633 1.465 . S
C1639 C1638 1.396 . S
C1639 C1640 1.399 . S
C1640 H1626 0.929 . S
C1640 C1639 1.399 . S
C1640 C1641 1.385 . S
C1641 H1627 0.931 . S
C1641 C1640 1.385 . S
C1641 C1642 1.389 . S
C1642 C1641 1.389 . S
C1642 C1643 1.387 . S
C1643 H1628 0.930 1_554 S
C1643 C1638 1.390 . S
C1643 C1642 1.387 . S
C373 C202 1.618 . S
C361 C66 1.678 . S
C400 C215 1.246 . S
C388 C76 1.242 . S
C415 C93 1.785 . S
C427 C228 1.774 . S
C454 C241 1.447 . S
C442 C54 1.497 . S
C481 C249 1.455 . S
C469 C126 1.491 . S
C508 C262 1.739 . S
C496 C150 1.741 . S
C523 C136 1.198 . S
C535 C275 1.149 . S
C562 C288 1.728 . S
C550 C117 1.770 . S
C577 C141 1.240 . S
C589 C306 1.192 . S
C616 C317 1.338 . S
C604 C112 1.369 . S
C631 C124 1.478 . S
C643 C301 1.483 . S
C670 C309 1.249 . S
C658 C148 1.286 . S
C685 C88 1.306 . S
C697 C332 1.312 . S
C712 C52 1.568 . S
C724 C322 1.566 . S
C739 C64 1.257 . S
C751 C327 1.263 . S
C766 C78 1.280 . S
C778 C330 1.208 . S
C793 C45 1.651 . S
C805 C239 1.625 . S
C820 C177 1.787 . S
C832 C231 1.779 . S
C859 C200 1.455 . S
C847 C189 1.455 . S
C886 C205 1.586 . S
C874 C102 1.616 . S
C901 C57 1.732 . S
C913 C252 1.697 . S
C940 C291 1.480 . S
C928 C138 1.485 . S
C967 C244 1.740 . S
C955 C114 1.769 . S
C994 C270 1.653 . S
C982 C153 1.671 . S
C1021 C280 1.621 . S
C1009 C174 1.674 . S
C1036 C184 1.245 . S
C1048 C293 1.228 . S
C1063 C105 1.789 . S
C1075 C254 1.779 . S
C1102 C267 1.460 . S
C1090 C162 1.497 . S
C1117 C42 1.491 . S
C1129 C223 1.459 . S
C1156 C236 1.706 . S
C1144 C6 1.745 . S
C1183 C197 1.217 . S
C1171 C16 1.189 . S
C1210 C210 1.754 . S
C1198 C33 1.757 1_455 S
C1225 C21 1.219 . S
C1237 C319 1.236 . S
C1252 C28 1.343 1_556 S
C1264 C304 1.329 1_655 S
C1279 C40 1.483 . S
C1291 C314 1.462 . S
C1306 C4 1.260 1_556 S
C1318 C296 1.275 . S
C1345 C345 1.281 . S
C1333 C100 1.291 . S
C1372 C335 1.544 . S
C1360 C160 1.589 1_554 S
C1399 C340 1.283 . S
C1387 C172 1.256 . S
C1414 C186 1.270 1_554 S
C1426 C343 1.235 . S
C1441 C129 1.650 . S
C1453 C265 1.626 . S
C1480 C257 1.780 . S
C1468 C69 1.784 . S
C1507 C278 1.430 . S
C1495 C81 1.470 . S
C1534 C283 1.568 . S
C1522 C90 1.623 . S
C1549 C165 1.739 . S
C1561 C226 1.738 . S
C1588 C213 1.481 . S
C1576 C18 1.486 . S
C1603 C30 1.769 . S
C1615 C218 1.740 . S
C1642 C192 1.663 . S
C1630 C9 1.673 . S
