# Generated by pormake.
# Topology hwx, (6,3)-cn, num edge types: 1
# Building blocks:
#     Node 0, Type 0, BuildingBlock: IZENUY_clean_sbu_0, # of connection points: 6
#     Node 1, Type 0, BuildingBlock: IZENUY_clean_sbu_0, # of connection points: 6
#     Node 2, Type 0, BuildingBlock: IZENUY_clean_sbu_0, # of connection points: 6
#     Node 3, Type 0, BuildingBlock: IZENUY_clean_sbu_0, # of connection points: 6
#     Node 4, Type 1, BuildingBlock: VETTIZ_charged_linker_0, # of connection points: 3
#     Node 5, Type 1, BuildingBlock: VETTIZ_charged_linker_0, # of connection points: 3
#     Node 6, Type 1, BuildingBlock: VETTIZ_charged_linker_0, # of connection points: 3
#     Node 7, Type 1, BuildingBlock: VETTIZ_charged_linker_0, # of connection points: 3
#     Node 8, Type 1, BuildingBlock: VETTIZ_charged_linker_0, # of connection points: 3
#     Node 9, Type 1, BuildingBlock: VETTIZ_charged_linker_0, # of connection points: 3
#     Node 10, Type 1, BuildingBlock: VETTIZ_charged_linker_0, # of connection points: 3
#     Node 11, Type 1, BuildingBlock: VETTIZ_charged_linker_0, # of connection points: 3
#     Edge 12, Type (0, 1), None
#     Edge 13, Type (0, 1), None
#     Edge 14, Type (0, 1), None
#     Edge 15, Type (0, 1), None
#     Edge 16, Type (0, 1), None
#     Edge 17, Type (0, 1), None
#     Edge 18, Type (0, 1), None
#     Edge 19, Type (0, 1), None
#     Edge 20, Type (0, 1), None
#     Edge 21, Type (0, 1), None
#     Edge 22, Type (0, 1), None
#     Edge 23, Type (0, 1), None
#     Edge 24, Type (0, 1), None
#     Edge 25, Type (0, 1), None
#     Edge 26, Type (0, 1), None
#     Edge 27, Type (0, 1), None
#     Edge 28, Type (0, 1), None
#     Edge 29, Type (0, 1), None
#     Edge 30, Type (0, 1), None
#     Edge 31, Type (0, 1), None
#     Edge 32, Type (0, 1), None
#     Edge 33, Type (0, 1), None
#     Edge 34, Type (0, 1), None
#     Edge 35, Type (0, 1), None
# Relax obj value: 0.054
# Max RMSD: 0.078
# Mean RMSD: 0.070
data_MOF--net-hwx--node1-IZENUY_clean_sbu_0--node2-VETTIZ_charged_linker_0--edge1-none
_symmetry_space_group_name_H-M    P1
_symmetry_Int_Tables_number       1
_symmetry_cell_setting            triclinic
loop_
_symmetry_equiv_pos_as_xyz
'x, y, z'
_cell_length_a     31.283178
_cell_length_b     31.436391
_cell_length_c     15.722894
_cell_angle_alpha  90.512824
_cell_angle_beta   90.117171
_cell_angle_gamma 89.99341
loop_
_atom_site_label
_atom_site_type_symbol
_atom_site_fract_x
_atom_site_fract_y
_atom_site_fract_z
_atom_type_partial_charge
Fe0 Fe 0.26511 0.23984 0.07733 0.0
Fe1 Fe 0.26904 0.2298 0.88355 0.0
O2 O 0.25256 0.2108 0.98392 0.0
Fe3 Fe 0.22285 0.16265 -0.00786 0.0
O4 O 0.19371 0.17899 0.0875 0.0
O5 O 0.20884 0.24643 0.10308 0.0
O6 O 0.26336 0.29246 0.02962 0.0
C7 C 0.24677 0.30549 0.96163 0.0
C8 C 0.2784 0.15439 0.1248 0.0
O9 O 0.24208 0.28069 0.89882 0.0
C10 C 0.28001 0.14423 0.85648 0.0
O11 O 0.32153 0.23492 0.05754 0.0
O12 O 0.32072 0.25114 0.92157 0.0
O13 O 0.26482 0.13794 0.05612 0.0
O14 O 0.27016 0.19277 0.143 0.0
C15 C 0.18386 0.20009 0.85694 0.0
O16 O 0.29708 0.18061 0.85819 0.0
O17 O 0.24628 0.13703 0.89803 0.0
C18 C 0.34089 0.24515 0.99055 0.0
O19 O 0.2204 0.21136 0.83018 0.0
O20 O 0.17907 0.18434 0.92979 0.0
C21 C 0.18452 0.21533 0.11705 0.0
Fe22 Fe 0.23384 0.74205 0.58416 0.0
Fe23 Fe 0.27857 0.6635 0.50726 0.0
O24 O 0.24897 0.71143 0.49398 0.0
Fe25 Fe 0.23496 0.72872 0.391 0.0
O26 O 0.26263 0.77918 0.40524 0.0
O27 O 0.2377 0.79376 0.53247 0.0
O28 O 0.28941 0.74881 0.61665 0.0
C29 C 0.31418 0.71822 0.63277 0.0
C30 C 0.16067 0.74709 0.48805 0.0
O31 O 0.30613 0.68148 0.60368 0.0
C32 C 0.22335 0.64308 0.36854 0.0
O33 O 0.22692 0.69602 0.6522 0.0
O34 O 0.23569 0.63987 0.56961 0.0
O35 O 0.18358 0.7519 0.42253 0.0
O36 O 0.1773 0.73749 0.55851 0.0
C37 C 0.31978 0.69776 0.37178 0.0
O38 O 0.2564 0.63628 0.41297 0.0
O39 O 0.20645 0.67957 0.36754 0.0
C40 C 0.22059 0.65701 0.63617 0.0
O41 O 0.3236 0.68395 0.44647 0.0
O42 O 0.28367 0.70847 0.34231 0.0
C43 C 0.25649 0.8052 0.46548 0.0
Fe44 Fe 0.73672 0.78198 0.9052 0.0
Fe45 Fe 0.73244 0.78637 0.09881 0.0
O46 O 0.74903 0.80864 0.00154 0.0
Fe47 Fe 0.77804 0.85739 0.00086 0.0
O48 O 0.75544 0.87588 0.89942 0.0
O49 O 0.70725 0.82744 0.86709 0.0
O50 O 0.68546 0.76071 0.94164 0.0
C51 C 0.66111 0.77311 0.00106 0.0
C52 C 0.82086 0.81309 0.87818 0.0
O53 O 0.67635 0.78922 0.06845 0.0
C54 C 0.81278 0.81337 0.14106 0.0
O55 O 0.7654 0.73431 0.9366 0.0
O56 O 0.73659 0.73089 0.06343 0.0
O57 O 0.82359 0.83277 0.94803 0.0
O58 O 0.78531 0.79907 0.85147 0.0
C59 C 0.72063 0.87527 0.12616 0.0
O60 O 0.78743 0.78225 0.13504 0.0
O61 O 0.80541 0.84754 0.10181 0.0
C62 C 0.7577 0.71395 0.00359 0.0
O63 O 0.72544 0.83762 0.1524 0.0
O64 O 0.73509 0.88603 0.05461 0.0
C65 C 0.7224 0.86431 0.85854 0.0
Fe66 Fe 0.72314 0.35745 0.47722 0.0
Fe67 Fe 0.77006 0.29133 0.58696 0.0
O68 O 0.75262 0.3092 0.48629 0.0
Fe69 Fe 0.76401 0.27912 0.39384 0.0
O70 O 0.7693 0.32565 0.3263 0.0
O71 O 0.76465 0.38133 0.41143 0.0
O72 O 0.74754 0.38367 0.56998 0.0
C73 C 0.78214 0.3768 0.60913 0.0
C74 C 0.68357 0.3043 0.35449 0.0
O75 O 0.79897 0.34038 0.60768 0.0
C76 C 0.74642 0.21499 0.51422 0.0
O77 O 0.67981 0.33633 0.54115 0.0
O78 O 0.7221 0.31101 0.64123 0.0
O79 O 0.70747 0.27303 0.36967 0.0
O80 O 0.69321 0.34071 0.38304 0.0
C81 C 0.84056 0.27365 0.47846 0.0
O82 O 0.74257 0.24061 0.57581 0.0
O83 O 0.76178 0.22708 0.44436 0.0
C84 C 0.68517 0.32133 0.61451 0.0
O85 O 0.82101 0.26882 0.54833 0.0
O86 O 0.82068 0.28338 0.41167 0.0
C87 C 0.7775 0.3643 0.34284 0.0
C88 C 0.20896 0.58657 0.70852 0.0
C89 C 0.20314 0.63095 0.70581 0.0
C90 C 0.18488 0.65193 0.7767 0.0
C91 C 0.18784 0.58715 0.85707 0.0
C92 C 0.20081 0.56524 0.78505 0.0
C93 C 0.2072 0.5186 0.80273 0.0
H94 H 0.24154 0.3643 0.09088 0.0
C95 C 0.19027 0.55834 0.93005 0.0
C96 C 0.20093 0.51784 0.89891 0.0
H97 H 0.22645 0.35037 0.81827 0.0
H98 H 0.21107 0.42543 0.80741 0.0
H99 H 0.29361 0.45173 0.08576 0.0
H100 H 0.15847 0.42963 0.12024 0.0
H101 H 0.17795 0.46516 0.1992 0.0
H102 H 0.19846 0.41179 0.19405 0.0
H103 H 0.27255 0.43313 0.18479 0.0
H104 H 0.27445 0.48908 0.16005 0.0
C105 C 0.25331 0.50608 0.77724 0.0
C106 C 0.17204 0.49306 0.75474 0.0
C107 C 0.19498 0.62533 0.22406 0.0
C108 C 0.2113 0.61135 0.30219 0.0
C109 C 0.2218 0.56791 0.3109 0.0
C110 C 0.21755 0.53933 0.24188 0.0
C111 C 0.20373 0.55452 0.16249 0.0
C112 C 0.19261 0.59692 0.15503 0.0
C113 C 0.18308 0.60903 0.0648 0.0
C114 C 0.19082 0.56701 0.01884 0.0
C115 C 0.20191 0.53481 0.07623 0.0
C116 C 0.21489 0.64456 0.03757 0.0
C117 C 0.13543 0.62209 0.05983 0.0
C118 C 0.2349 0.37735 0.02871 0.0
C119 C 0.23559 0.35125 0.95513 0.0
C120 C 0.22626 0.36959 0.87579 0.0
C121 C 0.21734 0.41318 0.86954 0.0
C122 C 0.21767 0.43882 0.94321 0.0
C123 C 0.22548 0.42078 0.02142 0.0
C124 C 0.22312 0.45308 0.09298 0.0
C125 C 0.21072 0.49301 0.04493 0.0
C126 C 0.20894 0.48449 0.95695 0.0
C127 C 0.26806 0.45699 0.13385 0.0
C128 C 0.1878 0.43931 0.15556 0.0
H129 H 0.16486 0.64828 0.90457 0.0
H130 H 0.22179 0.56939 0.65431 0.0
H131 H 0.14534 0.51375 0.73318 0.0
H132 H 0.15675 0.46903 0.79599 0.0
H133 H 0.18509 0.47687 0.69731 0.0
H134 H 0.27671 0.52892 0.80516 0.0
H135 H 0.25715 0.50628 0.70703 0.0
H136 H 0.26255 0.47426 0.79981 0.0
H137 H 0.18761 0.65862 0.21437 0.0
H138 H 0.23455 0.55631 0.37047 0.0
H139 H 0.22657 0.50682 0.25207 0.0
H140 H 0.24039 0.65023 0.08563 0.0
H141 H 0.19842 0.67549 0.02846 0.0
H142 H 0.23244 0.63624 0.97858 0.0
H143 H 0.11525 0.6002 0.09785 0.0
H144 H 0.12249 0.62026 -0.00558 0.0
H145 H 0.13066 0.65482 0.08534 0.0
H146 H 0.17859 0.68581 0.77562 0.0
C147 C 0.1772 0.63026 0.85206 0.0
C148 C 0.08867 0.76133 0.55507 0.0
C149 C 0.11418 0.75599 0.4819 0.0
C150 C 0.09501 0.7602 0.40108 0.0
C151 C 0.02686 0.77624 0.46618 0.0
C152 C 0.04522 0.77181 0.54573 0.0
C153 C 0.01344 0.7802 0.61608 0.0
H154 H 0.81124 0.84061 0.72113 0.0
C155 C 0.98205 0.78954 0.47737 0.0
C156 C 0.97408 0.79295 0.56535 0.0
H157 H 0.90731 0.79355 0.89351 0.0
H158 H 0.95894 0.79011 0.77684 0.0
H159 H 0.8729 0.90099 0.60699 0.0
H160 H 0.82046 0.776 0.59953 0.0
H161 H 0.82581 0.7875 0.49191 0.0
H162 H 0.79196 0.82052 0.55762 0.0
H163 H 0.8187 0.8893 0.57778 0.0
H164 H 0.86076 0.89198 0.49927 0.0
C165 C 0.03014 0.8171 0.67254 0.0
C166 C 0.00642 0.73822 0.66466 0.0
C167 C 0.88092 0.8024 0.22305 0.0
C168 C 0.83833 0.81659 0.21848 0.0
C169 C 0.81877 0.83485 0.29014 0.0
C170 C 0.84038 0.83721 0.36726 0.0
C171 C 0.8819 0.82069 0.37324 0.0
C172 C 0.90236 0.80515 0.30168 0.0
C173 C 0.94792 0.79238 0.3212 0.0
C174 C 0.94946 0.79933 0.41745 0.0
C175 C 0.91043 0.81531 0.44656 0.0
C176 C 0.97847 0.82282 0.27345 0.0
C177 C 0.95365 0.74494 0.29694 0.0
C178 C 0.84361 0.83008 0.73429 0.0
C179 C 0.85531 0.81679 0.81541 0.0
C180 C 0.89773 0.80371 0.83065 0.0
C181 C 0.92728 0.80129 0.76286 0.0
C182 C 0.9138 0.81192 0.67996 0.0
C183 C 0.87259 0.82662 0.668 0.0
C184 C 0.86124 0.83299 0.57692 0.0
C185 C 0.90224 0.8191 0.53457 0.0
C186 C 0.93345 0.80741 0.59435 0.0
C187 C 0.85258 0.88117 0.56403 0.0
C188 C 0.82284 0.80314 0.55482 0.0
H189 H 0.03907 0.77303 0.32981 0.0
H190 H 0.10233 0.75828 0.61807 0.0
H191 H 0.00652 0.7105 0.62015 0.0
H192 H 0.97512 0.73697 0.69674 0.0
H193 H 0.03213 0.73314 0.71234 0.0
H194 H 0.04164 0.84373 0.63247 0.0
H195 H 0.05722 0.80646 0.71292 0.0
H196 H 0.00521 0.83063 0.71425 0.0
H197 H 0.89678 0.78938 0.16746 0.0
H198 H 0.78625 0.84667 0.28674 0.0
H199 H 0.82328 0.85073 0.41972 0.0
H200 H 0.96211 0.85265 0.25407 0.0
H201 H 0.99138 0.80766 0.21481 0.0
H202 H 0.00546 0.83357 0.31402 0.0
H203 H 0.92704 0.72566 0.32323 0.0
H204 H 0.98345 0.73119 0.32242 0.0
H205 H 0.95368 0.74058 0.22674 0.0
H206 H 0.11362 0.75591 0.34362 0.0
C207 C 0.05165 0.77022 0.39293 0.0
C208 C 0.78867 0.43436 0.26781 0.0
C209 C 0.79479 0.39002 0.27243 0.0
C210 C 0.81339 0.36847 0.20261 0.0
C211 C 0.81134 0.4326 0.12002 0.0
C212 C 0.79748 0.45507 0.19071 0.0
C213 C 0.79104 0.50153 0.17089 0.0
H214 H 0.77235 0.65609 0.87444 0.0
C215 C 0.81058 0.46102 0.04622 0.0
C216 C 0.79955 0.50179 0.07535 0.0
H217 H 0.76857 0.66898 0.14851 0.0
H218 H 0.78304 0.59415 0.1633 0.0
H219 H 0.85469 0.58586 0.86209 0.0
H220 H 0.71757 0.57648 0.86635 0.0
H221 H 0.73551 0.53115 0.81113 0.0
H222 H 0.74593 0.58332 0.76856 0.0
H223 H 0.81935 0.6069 0.78253 0.0
H224 H 0.83634 0.55233 0.77837 0.0
C225 C 0.82474 0.52778 0.22134 0.0
C226 C 0.74418 0.51351 0.19157 0.0
C227 C 0.81087 0.39344 0.75309 0.0
C228 C 0.79614 0.40801 0.67421 0.0
C229 C 0.78828 0.45183 0.66388 0.0
C230 C 0.79317 0.48039 0.73249 0.0
C231 C 0.80472 0.46473 0.81283 0.0
C232 C 0.81367 0.42192 0.82177 0.0
C233 C 0.8205 0.40974 0.91296 0.0
C234 C 0.8128 0.45208 0.95768 0.0
C235 C 0.80477 0.48442 0.89876 0.0
C236 C 0.86759 0.39538 0.92273 0.0
C237 C 0.78698 0.37523 0.93726 0.0
C238 C 0.77533 0.64285 0.93753 0.0
C239 C 0.76945 0.66852 0.01039 0.0
C240 C 0.77277 0.64988 0.09141 0.0
C241 C 0.78126 0.60644 0.10003 0.0
C242 C 0.78594 0.581 0.02695 0.0
C243 C 0.78332 0.59919 0.94731 0.0
C244 C 0.78766 0.56653 0.87709 0.0
C245 C 0.79603 0.52645 0.92799 0.0
C246 C 0.79415 0.53511 0.01578 0.0
C247 C 0.82646 0.57842 0.82146 0.0
C248 C 0.74471 0.56422 0.8276 0.0
H249 H 0.83407 0.37087 0.07508 0.0
H250 H 0.77524 0.45196 0.32089 0.0
H251 H 0.7219 0.48922 0.16492 0.0
H252 H 0.73436 0.54413 0.16399 0.0
H253 H 0.73903 0.51527 0.2614 0.0
H254 H 0.85265 0.508 0.2401 0.0
H255 H 0.81093 0.54151 0.28055 0.0
H256 H 0.83858 0.55373 0.18292 0.0
H257 H 0.8161 0.35981 0.76364 0.0
H258 H 0.77684 0.46371 0.6035 0.0
H259 H 0.78608 0.51325 0.72131 0.0
H260 H 0.88928 0.41634 0.88589 0.0
H261 H 0.87199 0.36232 0.89873 0.0
H262 H 0.87912 0.39748 0.98913 0.0
H263 H 0.76131 0.3718 0.88869 0.0
H264 H 0.76964 0.38314 -0.00337 0.0
H265 H 0.802 0.34343 0.94413 0.0
H266 H 0.81969 0.3346 0.20507 0.0
C267 C 0.82164 0.38947 0.12675 0.0
C268 C 0.11853 0.22927 0.20446 0.0
C269 C 0.16119 0.21561 0.19716 0.0
C270 C 0.18245 0.19876 0.26785 0.0
C271 C 0.12026 0.2111 0.35414 0.0
C272 C 0.09852 0.22646 0.28433 0.0
C273 C 0.05298 0.23798 0.30654 0.0
H274 H 0.89822 0.25629 0.60729 0.0
C275 C 0.09213 0.21395 0.42835 0.0
C276 C 0.05247 0.2292 0.40198 0.0
H277 H 0.88838 0.27217 0.33443 0.0
H278 H 0.96296 0.25733 0.3191 0.0
H279 H 0.96411 0.17246 0.60668 0.0
H280 H 0.99241 0.30745 0.62073 0.0
H281 H 0.02411 0.27912 0.69352 0.0
H282 H 0.96689 0.28037 0.70702 0.0
H283 H 0.94494 0.20583 0.69198 0.0
H284 H 0.99843 0.18524 0.69322 0.0
C285 C 0.02257 0.2079 0.25616 0.0
C286 C 0.04646 0.28578 0.28776 0.0
C287 C 0.16014 0.18826 0.71081 0.0
C288 C 0.14891 0.19816 0.79433 0.0
C289 C 0.10633 0.20986 0.81272 0.0
C290 C 0.07622 0.21443 0.74614 0.0
C291 C 0.08934 0.20748 0.66129 0.0
C292 C 0.13075 0.19414 0.64604 0.0
C293 C 0.14193 0.19219 0.55426 0.0
C294 C 0.1006 0.20695 0.5152 0.0
C295 C 0.06925 0.21517 0.57699 0.0
C296 C 0.1516 0.14499 0.5312 0.0
C297 C 0.17938 0.22401 0.53872 0.0
C298 C 0.9122 0.25636 0.54434 0.0
C299 C 0.88701 0.26503 0.47201 0.0
C300 C 0.90668 0.26542 0.39131 0.0
C301 C 0.95014 0.2567 0.38219 0.0
C302 C 0.97467 0.24763 0.45431 0.0
C303 C 0.956 0.24772 0.53398 0.0
C304 C 0.98812 0.23801 0.60303 0.0
C305 C 0.02805 0.22922 0.55063 0.0
C306 C 0.01985 0.23574 0.4635 0.0
C307 C 0.97322 0.19833 0.65191 0.0
C308 C 0.99318 0.27811 0.65978 0.0
H309 H 0.18059 0.18299 0.39657 0.0
H310 H 0.10129 0.24116 0.14981 0.0
H311 H 0.07384 0.30473 0.31278 0.0
H312 H 0.0177 0.29919 0.31838 0.0
H313 H 0.04428 0.29129 0.21819 0.0
H314 H 0.03906 0.17827 0.23515 0.0
H315 H 0.00982 0.22352 0.19832 0.0
H316 H 0.9955 0.1967 0.29535 0.0
H317 H 0.19251 0.17871 0.69484 0.0
H318 H 0.097 0.21735 0.87744 0.0
H319 H 0.04445 0.22441 0.76266 0.0
H320 H 0.13181 0.12292 0.56967 0.0
H321 H 0.18563 0.13703 0.54331 0.0
H322 H 0.14352 0.13683 0.46447 0.0
H323 H 0.18131 0.24896 0.58926 0.0
H324 H 0.17559 0.24244 0.47962 0.0
H325 H 0.21071 0.20747 0.53722 0.0
H326 H 0.21496 0.18723 0.26284 0.0
C327 C 0.16224 0.19619 0.34584 0.0
C328 C 0.7167 0.93388 0.78079 0.0
C329 C 0.70721 0.89013 0.78647 0.0
C330 C 0.68613 0.86979 0.71805 0.0
C331 C 0.69228 0.93345 0.63441 0.0
C332 C 0.70809 0.95515 0.70434 0.0
C333 C 0.71473 1.00173 0.68545 0.0
H334 H 0.73598 0.15533 0.38882 0.0
C335 C 0.69339 0.962 0.56094 0.0
C336 C 0.7052 1.00254 0.59025 0.0
H337 H 0.73356 0.17114 0.66247 0.0
H338 H 0.72008 0.09573 0.67831 0.0
H339 H 0.78974 0.06975 0.38795 0.0
H340 H 0.65347 0.09003 0.37491 0.0
H341 H 0.66917 0.05329 0.29512 0.0
H342 H 0.6899 0.10664 0.29345 0.0
H343 H 0.76406 0.0862 0.29156 0.0
H344 H 0.76847 0.03079 0.31947 0.0
C345 C 0.76175 0.01351 0.70473 0.0
C346 C 0.68183 0.02809 0.73756 0.0
C347 C 0.69328 0.89401 0.2693 0.0
C348 C 0.70717 0.90786 0.1894 0.0
C349 C 0.71408 0.95176 0.17731 0.0
C350 C 0.71004 0.98071 0.24587 0.0
C351 C 0.69987 0.96539 0.32739 0.0
C352 C 0.69122 0.92265 0.33726 0.0
C353 C 0.68547 0.91037 0.42839 0.0
C354 C 0.69156 0.95302 0.47249 0.0
C355 C 0.69994 0.98522 0.41344 0.0
C356 C 0.72166 0.87845 0.45061 0.0
C357 C 0.63954 0.89266 0.43978 0.0
C358 C 0.7324 0.14269 0.45228 0.0
C359 C 0.73599 0.16931 0.52451 0.0
C360 C 0.73082 0.15145 0.60583 0.0
C361 C 0.72301 0.10773 0.61499 0.0
C362 C 0.72004 0.08163 0.5422 0.0
C363 C 0.72405 0.09929 0.46248 0.0
C364 C 0.71915 0.06672 0.39226 0.0
C365 C 0.70932 0.02707 0.44296 0.0
C366 C 0.71109 0.03581 0.53086 0.0
C367 C 0.76234 0.06314 0.34456 0.0
C368 C 0.68108 0.07974 0.33525 0.0
H369 H 0.66389 0.87364 0.59154 0.0
H370 H 0.73128 0.95075 0.83372 0.0
H371 H 0.65519 0.00807 0.76153 0.0
H372 H 0.66607 0.05276 0.69848 0.0
H373 H 0.69701 0.04359 0.79375 0.0
H374 H 0.78378 0.99063 0.67288 0.0
H375 H 0.76818 0.01266 0.77421 0.0
H376 H 0.77028 0.04549 0.68188 0.0
H377 H 0.68734 0.86061 0.28096 0.0
H378 H 0.72466 0.96342 0.11626 0.0
H379 H 0.71673 0.01359 0.23368 0.0
H380 H 0.75297 0.89025 0.42708 0.0
H381 H 0.71568 0.84686 0.42068 0.0
H382 H 0.72618 0.87343 0.51908 0.0
H383 H 0.6179 0.90238 0.38716 0.0
H384 H 0.62409 0.90516 0.4983 0.0
H385 H 0.6395 0.85734 0.44136 0.0
H386 H 0.67757 0.83644 0.72104 0.0
C387 C 0.67849 0.89129 0.64236 0.0
C388 C 0.61824 0.28916 0.26552 0.0
C389 C 0.6605 0.30381 0.27395 0.0
C390 C 0.68161 0.32135 0.2039 0.0
C391 C 0.62013 0.30774 0.11608 0.0
C392 C 0.59847 0.29179 0.18527 0.0
C393 C 0.55322 0.27963 0.16212 0.0
H394 H 0.39811 0.26307 0.86108 0.0
C395 C 0.59229 0.30463 0.04131 0.0
C396 C 0.55282 0.28876 0.0668 0.0
H397 H 0.38958 0.24473 0.13345 0.0
H398 H 0.46414 0.25902 0.14841 0.0
H399 H 0.46496 0.34649 0.86245 0.0
H400 H 0.49369 0.2115 0.84648 0.0
H401 H 0.52382 0.24062 0.77243 0.0
H402 H 0.46648 0.23842 0.76176 0.0
H403 H 0.44496 0.31341 0.77728 0.0
H404 H 0.49861 0.33348 0.77511 0.0
C405 C 0.52223 0.30906 0.21249 0.0
C406 C 0.54749 0.23164 0.18003 0.0
C407 C 0.66102 0.33182 0.7608 0.0
C408 C 0.65011 0.32243 0.67683 0.0
C409 C 0.60762 0.31058 0.65738 0.0
C410 C 0.5773 0.3054 0.72324 0.0
C411 C 0.59009 0.31196 0.80848 0.0
C412 C 0.63139 0.32547 0.8248 0.0
C413 C 0.64217 0.32737 0.91681 0.0
C414 C 0.60087 0.31202 0.95474 0.0
C415 C 0.56972 0.30377 0.89226 0.0
C416 C 0.65109 0.37468 0.94046 0.0
C417 C 0.67999 0.29603 0.93301 0.0
C418 C 0.41241 0.26238 0.92383 0.0
C419 C 0.3875 0.25324 -0.00379 0.0
C420 C 0.40759 0.25192 0.07657 0.0
C421 C 0.45108 0.26036 0.08551 0.0
C422 C 0.47529 0.27011 0.01357 0.0
C423 C 0.45636 0.2707 0.93403 0.0
C424 C 0.48846 0.28075 0.86521 0.0
C425 C 0.52854 0.28929 0.91786 0.0
C426 C 0.52038 0.28217 0.00475 0.0
C427 C 0.47355 0.32062 0.81688 0.0
C428 C 0.4934 0.24095 0.80774 0.0
H429 H 0.67996 0.33727 0.07528 0.0
H430 H 0.60108 0.27675 0.31966 0.0
H431 H 0.57541 0.21328 0.15583 0.0
H432 H 0.51925 0.21777 0.14805 0.0
H433 H 0.54489 0.22585 0.24943 0.0
H434 H 0.53837 0.33849 0.23576 0.0
H435 H 0.50894 0.29273 0.26894 0.0
H436 H 0.49551 0.32065 0.17257 0.0
H437 H 0.69326 0.34149 0.77766 0.0
H438 H 0.5985 0.30348 0.5923 0.0
H439 H 0.54563 0.2954 0.70586 0.0
H440 H 0.63161 0.3966 0.9009 0.0
H441 H 0.68518 0.38296 0.93047 0.0
H442 H 0.64204 0.38271 0.00671 0.0
H443 H 0.6822 0.271 0.88268 0.0
H444 H 0.67643 0.27768 -0.00778 0.0
H445 H 0.71112 0.31293 0.93461 0.0
H446 H 0.71379 0.33367 0.20968 0.0
C447 C 0.66169 0.32358 0.12547 0.0
C448 C 0.29064 0.08398 0.19802 0.0
C449 C 0.29664 0.12832 0.19382 0.0
C450 C 0.31595 0.14968 0.26329 0.0
C451 C 0.31371 0.08563 0.34573 0.0
C452 C 0.2998 0.06317 0.27493 0.0
C453 C 0.29392 0.01662 0.29451 0.0
H454 H 0.26369 0.86534 0.5912 0.0
C455 C 0.31239 0.05749 0.41977 0.0
C456 C 0.30159 0.01666 0.39045 0.0
H457 H 0.27564 0.84792 0.31892 0.0
H458 H 0.29088 0.92292 0.30349 0.0
H459 H 0.34723 0.93008 0.61274 0.0
H460 H 0.21164 0.95037 0.58578 0.0
H461 H 0.23104 0.99088 0.65286 0.0
H462 H 0.23496 0.93612 0.68586 0.0
H463 H 0.30853 0.91399 0.69038 0.0
H464 H 0.32974 0.96717 0.69032 0.0
C465 C 0.32846 0.99078 0.2457 0.0
C466 C 0.24757 1.00362 0.27176 0.0
C467 C 0.30853 0.12685 0.7121 0.0
C468 C 0.29315 0.11279 0.79082 0.0
C469 C 0.2841 0.06916 0.80093 0.0
C470 C 0.28864 0.04035 0.73265 0.0
C471 C 0.30129 0.05546 0.65262 0.0
C472 C 0.31127 0.09806 0.6437 0.0
C473 C 0.32019 0.10954 0.55285 0.0
C474 C 0.31279 0.067 0.50829 0.0
C475 C 0.30275 0.0352 0.56707 0.0
C476 C 0.36766 0.12311 0.54705 0.0
C477 C 0.28789 0.1445 0.52463 0.0
C478 C 0.26962 0.87759 0.52813 0.0
C479 C 0.26807 0.85064 0.45606 0.0
C480 C 0.27656 0.8679 0.37538 0.0
C481 C 0.28534 0.91141 0.36644 0.0
C482 C 0.2858 0.93795 0.4388 0.0
C483 C 0.27898 0.92084 0.51819 0.0
C484 C 0.2823 0.9538 0.58814 0.0
C485 C 0.29389 0.99313 0.53773 0.0
C486 C 0.29458 0.98378 0.45007 0.0
C487 C 0.31869 0.9407 0.64928 0.0
C488 C 0.23792 0.95805 0.63118 0.0
H489 H 0.33747 0.14696 0.39045 0.0
H490 H 0.27699 0.06653 0.14488 0.0
H491 H 0.22441 0.02626 0.30093 0.0
H492 H 0.23914 0.97169 0.29491 0.0
H493 H 0.24257 1.0037 0.2018 0.0
H494 H 0.35485 0.01136 0.2225 0.0
H495 H 0.31469 0.9742 0.18929 0.0
H496 H 0.3443 0.96703 0.28692 0.0
H497 H 0.3148 0.1603 0.70163 0.0
H498 H 0.27212 0.05757 0.86104 0.0
H499 H 0.28058 0.0077 0.74392 0.0
H500 H 0.38827 0.10179 0.58564 0.0
H501 H 0.37213 0.1561 0.57145 0.0
H502 H 0.38037 0.12087 0.48162 0.0
H503 H 0.26287 0.15081 0.57321 0.0
H504 H 0.26979 0.13519 0.46673 0.0
H505 H 0.30408 0.17533 0.513 0.0
H506 H 0.32246 0.18351 0.26087 0.0
C507 C 0.32443 0.12861 0.33898 0.0
C508 C 0.5883 0.75994 0.06327 0.0
C509 C 0.61458 0.76604 -0.00807 0.0
C510 C 0.5962 0.76424 0.90995 0.0
C511 C 0.52681 0.74931 0.97041 0.0
C512 C 0.54473 0.75093 0.05101 0.0
C513 C 0.51258 0.74075 0.11913 0.0
H514 H 0.31197 0.6735 0.21115 0.0
C515 C 0.48145 0.73724 0.97857 0.0
C516 C 0.47318 0.73106 0.06578 0.0
H517 H 0.40621 0.71712 0.39276 0.0
H518 H 0.45776 0.72646 0.27754 0.0
H519 H 0.32028 0.74742 0.11312 0.0
H520 H 0.3722 0.62307 0.07552 0.0
H521 H 0.35567 0.63965 0.9743 0.0
H522 H 0.31715 0.63664 0.05934 0.0
H523 H 0.29111 0.70746 0.05589 0.0
H524 H 0.32573 0.74461 0.0028 0.0
C525 C 0.50639 0.78082 0.17555 0.0
C526 C 0.52826 0.70135 0.16837 0.0
C527 C 0.38105 0.7319 0.71975 0.0
C528 C 0.33775 0.71976 0.71323 0.0
C529 C 0.31633 0.70441 0.78487 0.0
C530 C 0.33706 0.70136 0.86258 0.0
C531 C 0.37974 0.71448 0.86996 0.0
C532 C 0.4015 0.72905 0.79962 0.0
C533 C 0.44764 0.73917 0.82128 0.0
C534 C 0.44847 0.73086 0.91701 0.0
C535 C 0.40857 0.71629 0.94376 0.0
C536 C 0.45592 0.78648 0.80123 0.0
C537 C 0.47681 0.70785 0.77146 0.0
C538 C 0.34405 0.68414 0.22691 0.0
C539 C 0.35512 0.69479 0.31043 0.0
C540 C 0.3971 0.70863 0.32832 0.0
C541 C 0.42656 0.71461 0.26134 0.0
C542 C 0.41328 0.70722 0.17654 0.0
C543 C 0.37248 0.69214 0.16161 0.0
C544 C 0.36009 0.69229 0.07012 0.0
C545 C 0.40071 0.70844 0.03059 0.0
C546 C 0.4323 0.71655 0.09212 0.0
C547 C 0.32227 0.72422 0.05938 0.0
C548 C 0.3504 0.64567 0.04287 0.0
H549 H 0.54044 0.75526 0.83504 0.0
H550 H 0.60158 0.76085 0.12694 0.0
H551 H 0.53905 0.67605 0.12338 0.0
H552 H 0.50305 0.68691 0.20755 0.0
H553 H 0.55562 0.70968 0.2105 0.0
H554 H 0.50788 0.81022 0.13677 0.0
H555 H 0.53169 0.7831 0.22506 0.0
H556 H 0.47476 0.7818 0.20647 0.0
H557 H 0.39845 0.74256 0.66442 0.0
H558 H 0.28338 0.69398 0.78044 0.0
H559 H 0.31867 0.68866 0.91361 0.0
H560 H 0.43025 0.80677 0.82893 0.0
H561 H 0.45635 0.7917 0.73144 0.0
H562 H 0.48628 0.79835 0.82819 0.0
H563 H 0.45972 0.67781 0.75519 0.0
H564 H 0.50479 0.69759 0.80925 0.0
H565 H 0.48804 0.72196 0.71096 0.0
H566 H 0.61572 0.76917 0.85404 0.0
C567 C 0.55251 0.75618 0.89889 0.0
loop_
_geom_bond_atom_site_label_1
_geom_bond_atom_site_label_2
_geom_bond_distance
_geom_bond_site_symmetry_2
_ccdc_geom_bond_type
Fe0 O2 1.918 . S
Fe0 O5 1.997 . S
Fe0 O6 2.002 . S
Fe0 O11 1.976 . S
Fe0 O14 1.996 . S
Fe1 O2 1.918 1_556 S
Fe1 O9 1.997 . S
Fe1 O12 1.996 . S
Fe1 O16 1.976 . S
Fe1 O19 2.002 . S
O2 Fe0 1.918 . S
O2 Fe1 1.918 1_554 S
O2 Fe3 1.918 1_554 S
Fe3 O2 1.918 1_556 S
Fe3 O4 1.996 1_556 S
Fe3 O13 1.969 1_556 S
Fe3 O17 2.003 . S
Fe3 O20 2.004 . S
O4 Fe3 1.996 1_554 S
O4 C21 1.295 . S
O5 Fe0 1.997 . S
O5 C21 1.235 . S
O6 Fe0 2.002 . S
O6 C7 1.295 . S
C7 O6 1.295 . S
C7 O9 1.235 1_554 S
C8 O13 1.287 . S
C8 O14 1.255 . S
O9 Fe1 1.997 . S
O9 C7 1.235 1_556 S
C10 O16 1.287 . S
C10 O17 1.255 . S
O11 Fe0 1.976 . S
O11 C18 1.287 1_554 S
O12 Fe1 1.996 . S
O12 C18 1.255 . S
O13 Fe3 1.969 1_554 S
O13 C8 1.287 . S
O14 Fe0 1.996 . S
O14 C8 1.255 . S
C15 O19 1.295 . S
C15 O20 1.235 . S
O16 Fe1 1.976 . S
O16 C10 1.287 . S
O17 Fe3 2.003 . S
O17 C10 1.255 . S
C18 O11 1.287 1_556 S
C18 O12 1.255 . S
O19 Fe1 2.002 . S
O19 C15 1.295 . S
O20 Fe3 2.004 . S
O20 C15 1.235 . S
C21 O4 1.295 . S
C21 O5 1.235 . S
Fe22 O24 1.918 . S
Fe22 O27 1.997 . S
Fe22 O28 2.002 . S
Fe22 O33 1.976 . S
Fe22 O36 1.996 . S
Fe23 O24 1.918 . S
Fe23 O31 1.997 . S
Fe23 O34 1.996 . S
Fe23 O38 1.976 . S
Fe23 O41 2.002 . S
O24 Fe22 1.918 . S
O24 Fe23 1.918 . S
O24 Fe25 1.918 . S
Fe25 O24 1.918 . S
Fe25 O26 2.002 . S
Fe25 O35 1.976 . S
Fe25 O39 1.996 . S
Fe25 O42 1.997 . S
O26 Fe25 2.002 . S
O26 C43 1.295 . S
O27 Fe22 1.997 . S
O27 C43 1.235 . S
O28 Fe22 2.002 . S
O28 C29 1.295 . S
C29 O28 1.295 . S
C29 O31 1.235 . S
C30 O35 1.287 . S
C30 O36 1.255 . S
O31 Fe23 1.997 . S
O31 C29 1.235 . S
C32 O38 1.287 . S
C32 O39 1.255 . S
O33 Fe22 1.976 . S
O33 C40 1.287 . S
O34 Fe23 1.996 . S
O34 C40 1.255 . S
O35 Fe25 1.976 . S
O35 C30 1.287 . S
O36 Fe22 1.996 . S
O36 C30 1.255 . S
C37 O41 1.295 . S
C37 O42 1.235 . S
O38 Fe23 1.976 . S
O38 C32 1.287 . S
O39 Fe25 1.996 . S
O39 C32 1.255 . S
C40 O33 1.287 . S
C40 O34 1.255 . S
O41 Fe23 2.002 . S
O41 C37 1.295 . S
O42 Fe25 1.997 . S
O42 C37 1.235 . S
C43 O26 1.295 . S
C43 O27 1.235 . S
Fe44 O46 1.918 1_556 S
Fe44 O49 1.997 . S
Fe44 O50 2.002 . S
Fe44 O55 1.976 . S
Fe44 O58 1.996 . S
Fe45 O46 1.918 . S
Fe45 O53 1.997 . S
Fe45 O56 1.996 . S
Fe45 O60 1.976 . S
Fe45 O63 2.002 . S
O46 Fe44 1.918 1_554 S
O46 Fe45 1.918 . S
O46 Fe47 1.918 . S
Fe47 O46 1.918 . S
Fe47 O48 1.994 1_554 S
Fe47 O57 1.967 1_554 S
Fe47 O61 2.005 . S
Fe47 O64 2.006 . S
O48 Fe47 1.994 1_556 S
O48 C65 1.295 . S
O49 Fe44 1.997 . S
O49 C65 1.235 . S
O50 Fe44 2.002 . S
O50 C51 1.295 . S
C51 O50 1.295 . S
C51 O53 1.235 1_556 S
C52 O57 1.287 . S
C52 O58 1.255 . S
O53 Fe45 1.997 . S
O53 C51 1.235 1_554 S
C54 O60 1.287 . S
C54 O61 1.255 . S
O55 Fe44 1.976 . S
O55 C62 1.287 1_556 S
O56 Fe45 1.996 . S
O56 C62 1.255 . S
O57 Fe47 1.967 1_556 S
O57 C52 1.287 . S
O58 Fe44 1.996 . S
O58 C52 1.255 . S
C59 O63 1.295 . S
C59 O64 1.235 . S
O60 Fe45 1.976 . S
O60 C54 1.287 . S
O61 Fe47 2.005 . S
O61 C54 1.255 . S
C62 O55 1.287 1_554 S
C62 O56 1.255 . S
O63 Fe45 2.002 . S
O63 C59 1.295 . S
O64 Fe47 2.006 . S
O64 C59 1.235 . S
C65 O48 1.295 . S
C65 O49 1.235 . S
Fe66 O68 1.918 . S
Fe66 O71 1.997 . S
Fe66 O72 2.002 . S
Fe66 O77 1.976 . S
Fe66 O80 1.996 . S
Fe67 O68 1.918 . S
Fe67 O75 1.997 . S
Fe67 O78 1.996 . S
Fe67 O82 1.976 . S
Fe67 O85 2.002 . S
O68 Fe66 1.918 . S
O68 Fe67 1.918 . S
O68 Fe69 1.918 . S
Fe69 O68 1.918 . S
Fe69 O70 2.002 . S
Fe69 O79 1.976 . S
Fe69 O83 1.996 . S
Fe69 O86 1.997 . S
O70 Fe69 2.002 . S
O70 C87 1.295 . S
O71 Fe66 1.997 . S
O71 C87 1.235 . S
O72 Fe66 2.002 . S
O72 C73 1.295 . S
C73 O72 1.295 . S
C73 O75 1.235 . S
C74 O79 1.287 . S
C74 O80 1.255 . S
O75 Fe67 1.997 . S
O75 C73 1.235 . S
C76 O82 1.287 . S
C76 O83 1.255 . S
O77 Fe66 1.976 . S
O77 C84 1.287 . S
O78 Fe67 1.996 . S
O78 C84 1.255 . S
O79 Fe69 1.976 . S
O79 C74 1.287 . S
O80 Fe66 1.996 . S
O80 C74 1.255 . S
C81 O85 1.295 . S
C81 O86 1.235 . S
O82 Fe67 1.976 . S
O82 C76 1.287 . S
O83 Fe69 1.996 . S
O83 C76 1.255 . S
C84 O77 1.287 . S
C84 O78 1.255 . S
O85 Fe67 2.002 . S
O85 C81 1.295 . S
O86 Fe69 1.997 . S
O86 C81 1.235 . S
C87 O70 1.295 . S
C87 O71 1.235 . S
C88 C89 1.391 . S
C88 C92 1.391 . S
C88 H130 0.948 . S
C89 C88 1.391 . S
C89 C90 1.391 . S
C90 C89 1.391 . S
C90 H146 0.947 . S
C90 C147 1.392 . S
C91 C92 1.391 . S
C91 C95 1.397 . S
C91 C147 1.419 . S
C92 C88 1.391 . S
C92 C91 1.391 . S
C92 C93 1.399 . S
C93 C92 1.399 . S
C93 C96 1.396 . S
C93 C105 1.453 . S
C93 C106 1.684 . S
H94 C118 0.948 . S
C95 C91 1.397 . S
C95 C96 1.394 . S
C95 C114 1.723 1_556 S
C96 C93 1.396 . S
C96 C95 1.394 . S
C96 C126 1.723 . S
H97 C120 0.947 . S
H98 C121 0.948 . S
H99 C127 0.982 . S
H100 C128 0.979 . S
H101 C128 0.980 . S
H102 C128 0.983 . S
H103 C127 0.979 . S
H104 C127 0.977 . S
C105 C93 1.453 . S
C105 H134 0.982 . S
C105 H135 0.979 . S
C105 H136 0.977 . S
C106 C93 1.684 . S
C106 H131 0.979 . S
C106 H132 0.980 . S
C106 H133 0.983 . S
C107 C108 1.391 . S
C107 C112 1.391 . S
C107 H137 0.948 . S
C108 C107 1.391 . S
C108 C109 1.391 . S
C109 C108 1.391 . S
C109 C110 1.392 . S
C109 H138 0.947 . S
C110 C109 1.392 . S
C110 C111 1.419 . S
C110 H139 0.948 . S
C111 C110 1.419 . S
C111 C112 1.391 . S
C111 C115 1.397 . S
C112 C107 1.391 . S
C112 C111 1.391 . S
C112 C113 1.399 . S
C113 C112 1.399 . S
C113 C114 1.396 . S
C113 C116 1.453 . S
C113 C117 1.684 . S
C114 C95 1.723 1_554 S
C114 C113 1.396 . S
C114 C115 1.394 . S
C115 C111 1.397 . S
C115 C114 1.394 . S
C115 C125 1.723 . S
C116 C113 1.453 . S
C116 H140 0.982 . S
C116 H141 0.979 . S
C116 H142 0.977 1_554 S
C117 C113 1.684 . S
C117 H143 0.979 . S
C117 H144 0.980 1_554 S
C117 H145 0.983 . S
C118 H94 0.948 . S
C118 C119 1.391 1_554 S
C118 C123 1.391 . S
C119 C118 1.391 1_556 S
C119 C120 1.391 . S
C120 H97 0.947 . S
C120 C119 1.391 . S
C120 C121 1.392 . S
C121 H98 0.948 . S
C121 C120 1.392 . S
C121 C122 1.419 . S
C122 C121 1.419 . S
C122 C123 1.391 1_556 S
C122 C126 1.397 . S
C123 C118 1.391 . S
C123 C122 1.391 1_554 S
C123 C124 1.399 . S
C124 C123 1.399 . S
C124 C125 1.396 . S
C124 C127 1.453 . S
C124 C128 1.684 . S
C125 C115 1.723 . S
C125 C124 1.396 . S
C125 C126 1.394 1_554 S
C126 C96 1.723 . S
C126 C122 1.397 . S
C126 C125 1.394 1_556 S
C127 H99 0.982 . S
C127 H103 0.979 . S
C127 H104 0.977 . S
C127 C124 1.453 . S
C128 H100 0.979 . S
C128 H101 0.980 . S
C128 H102 0.983 . S
C128 C124 1.684 . S
H129 C147 0.948 . S
H130 C88 0.948 . S
H131 C106 0.979 . S
H132 C106 0.980 . S
H133 C106 0.983 . S
H134 C105 0.982 . S
H135 C105 0.979 . S
H136 C105 0.977 . S
H137 C107 0.948 . S
H138 C109 0.947 . S
H139 C110 0.948 . S
H140 C116 0.982 . S
H141 C116 0.979 . S
H142 C116 0.977 1_556 S
H143 C117 0.979 . S
H144 C117 0.980 1_556 S
H145 C117 0.983 . S
H146 C90 0.947 . S
C147 C90 1.392 . S
C147 C91 1.419 . S
C147 H129 0.948 . S
C148 C149 1.391 . S
C148 C152 1.391 . S
C148 H190 0.948 . S
C149 C148 1.391 . S
C149 C150 1.391 . S
C150 C149 1.391 . S
C150 H206 0.947 . S
C150 C207 1.392 . S
C151 C152 1.391 . S
C151 C155 1.397 . S
C151 C207 1.419 . S
C152 C148 1.391 . S
C152 C151 1.391 . S
C152 C153 1.399 . S
C153 C152 1.399 . S
C153 C156 1.396 . S
C153 C165 1.453 . S
C153 C166 1.684 . S
H154 C178 0.948 . S
C155 C151 1.397 . S
C155 C156 1.394 . S
C155 C174 1.723 1_455 S
C156 C153 1.396 . S
C156 C155 1.394 . S
C156 C186 1.723 1_455 S
H157 C180 0.947 . S
H158 C181 0.948 . S
H159 C187 0.982 . S
H160 C188 0.979 . S
H161 C188 0.980 . S
H162 C188 0.983 . S
H163 C187 0.979 . S
H164 C187 0.977 . S
C165 C153 1.453 . S
C165 H194 0.982 . S
C165 H195 0.979 . S
C165 H196 0.977 . S
C166 C153 1.684 . S
C166 H191 0.979 . S
C166 H192 0.980 . S
C166 H193 0.983 . S
C167 C168 1.391 . S
C167 C172 1.391 . S
C167 H197 0.948 . S
C168 C167 1.391 . S
C168 C169 1.391 . S
C169 C168 1.391 . S
C169 C170 1.392 . S
C169 H198 0.947 . S
C170 C169 1.392 . S
C170 C171 1.419 . S
C170 H199 0.948 . S
C171 C170 1.419 . S
C171 C172 1.391 . S
C171 C175 1.397 . S
C172 C167 1.391 . S
C172 C171 1.391 . S
C172 C173 1.399 . S
C173 C172 1.399 . S
C173 C174 1.396 . S
C173 C176 1.453 1_655 S
C173 C177 1.684 1_655 S
C174 C155 1.723 1_655 S
C174 C173 1.396 . S
C174 C175 1.394 . S
C175 C171 1.397 . S
C175 C174 1.394 . S
C175 C185 1.723 . S
C176 C173 1.453 1_455 S
C176 H200 0.982 . S
C176 H201 0.979 . S
C176 H202 0.977 . S
C177 C173 1.684 1_455 S
C177 H203 0.979 1_455 S
C177 H204 0.980 . S
C177 H205 0.983 . S
C178 H154 0.948 . S
C178 C179 1.391 . S
C178 C183 1.391 . S
C179 C178 1.391 . S
C179 C180 1.391 . S
C180 H157 0.947 . S
C180 C179 1.391 . S
C180 C181 1.392 . S
C181 H158 0.948 . S
C181 C180 1.392 . S
C181 C182 1.419 . S
C182 C181 1.419 . S
C182 C183 1.391 . S
C182 C186 1.397 . S
C183 C178 1.391 . S
C183 C182 1.391 . S
C183 C184 1.399 . S
C184 C183 1.399 . S
C184 C185 1.396 . S
C184 C187 1.453 . S
C184 C188 1.684 . S
C185 C175 1.723 . S
C185 C184 1.396 . S
C185 C186 1.394 . S
C186 C156 1.723 1_655 S
C186 C182 1.397 . S
C186 C185 1.394 . S
C187 H159 0.982 . S
C187 H163 0.979 . S
C187 H164 0.977 . S
C187 C184 1.453 . S
C188 H160 0.979 . S
C188 H161 0.980 . S
C188 H162 0.983 . S
C188 C184 1.684 . S
H189 C207 0.948 . S
H190 C148 0.948 . S
H191 C166 0.979 . S
H192 C166 0.980 . S
H193 C166 0.983 . S
H194 C165 0.982 . S
H195 C165 0.979 . S
H196 C165 0.977 . S
H197 C167 0.948 . S
H198 C169 0.947 . S
H199 C170 0.948 . S
H200 C176 0.982 . S
H201 C176 0.979 . S
H202 C176 0.977 . S
H203 C177 0.979 1_655 S
H204 C177 0.980 . S
H205 C177 0.983 . S
H206 C150 0.947 . S
C207 C150 1.392 . S
C207 C151 1.419 . S
C207 H189 0.948 . S
C208 C209 1.391 . S
C208 C212 1.391 . S
C208 H250 0.948 . S
C209 C208 1.391 . S
C209 C210 1.391 . S
C210 C209 1.391 . S
C210 H266 0.947 . S
C210 C267 1.392 . S
C211 C212 1.391 . S
C211 C215 1.397 . S
C211 C267 1.419 . S
C212 C208 1.391 . S
C212 C211 1.391 . S
C212 C213 1.399 . S
C213 C212 1.399 . S
C213 C216 1.396 . S
C213 C225 1.453 . S
C213 C226 1.684 . S
H214 C238 0.948 . S
C215 C211 1.397 . S
C215 C216 1.394 . S
C215 C234 1.723 1_554 S
C216 C213 1.396 . S
C216 C215 1.394 . S
C216 C246 1.723 . S
H217 C240 0.947 . S
H218 C241 0.948 . S
H219 C247 0.982 . S
H220 C248 0.979 . S
H221 C248 0.980 . S
H222 C248 0.983 . S
H223 C247 0.979 . S
H224 C247 0.977 . S
C225 C213 1.453 . S
C225 H254 0.982 . S
C225 H255 0.979 . S
C225 H256 0.977 . S
C226 C213 1.684 . S
C226 H251 0.979 . S
C226 H252 0.980 . S
C226 H253 0.983 . S
C227 C228 1.391 . S
C227 C232 1.391 . S
C227 H257 0.948 . S
C228 C227 1.391 . S
C228 C229 1.391 . S
C229 C228 1.391 . S
C229 C230 1.392 . S
C229 H258 0.947 . S
C230 C229 1.392 . S
C230 C231 1.419 . S
C230 H259 0.948 . S
C231 C230 1.419 . S
C231 C232 1.391 . S
C231 C235 1.397 . S
C232 C227 1.391 . S
C232 C231 1.391 . S
C232 C233 1.399 . S
C233 C232 1.399 . S
C233 C234 1.396 . S
C233 C236 1.453 . S
C233 C237 1.684 . S
C234 C215 1.723 1_556 S
C234 C233 1.396 . S
C234 C235 1.394 . S
C235 C231 1.397 . S
C235 C234 1.394 . S
C235 C245 1.723 . S
C236 C233 1.453 . S
C236 H260 0.982 . S
C236 H261 0.979 . S
C236 H262 0.977 1_556 S
C237 C233 1.684 . S
C237 H263 0.979 . S
C237 H264 0.980 1_556 S
C237 H265 0.983 . S
C238 H214 0.948 . S
C238 C239 1.391 1_556 S
C238 C243 1.391 . S
C239 C238 1.391 1_554 S
C239 C240 1.391 . S
C240 H217 0.947 . S
C240 C239 1.391 . S
C240 C241 1.392 . S
C241 H218 0.948 . S
C241 C240 1.392 . S
C241 C242 1.419 . S
C242 C241 1.419 . S
C242 C243 1.391 1_554 S
C242 C246 1.397 . S
C243 C238 1.391 . S
C243 C242 1.391 1_556 S
C243 C244 1.399 . S
C244 C243 1.399 . S
C244 C245 1.396 . S
C244 C247 1.453 . S
C244 C248 1.684 . S
C245 C235 1.723 . S
C245 C244 1.396 . S
C245 C246 1.394 1_556 S
C246 C216 1.723 . S
C246 C242 1.397 . S
C246 C245 1.394 1_554 S
C247 H219 0.982 . S
C247 H223 0.979 . S
C247 H224 0.977 . S
C247 C244 1.453 . S
C248 H220 0.979 . S
C248 H221 0.980 . S
C248 H222 0.983 . S
C248 C244 1.684 . S
H249 C267 0.948 . S
H250 C208 0.948 . S
H251 C226 0.979 . S
H252 C226 0.980 . S
H253 C226 0.983 . S
H254 C225 0.982 . S
H255 C225 0.979 . S
H256 C225 0.977 . S
H257 C227 0.948 . S
H258 C229 0.947 . S
H259 C230 0.948 . S
H260 C236 0.982 . S
H261 C236 0.979 . S
H262 C236 0.977 1_554 S
H263 C237 0.979 . S
H264 C237 0.980 1_554 S
H265 C237 0.983 . S
H266 C210 0.947 . S
C267 C210 1.392 . S
C267 C211 1.419 . S
C267 H249 0.948 . S
C268 C269 1.391 . S
C268 C272 1.391 . S
C268 H310 0.948 . S
C269 C268 1.391 . S
C269 C270 1.391 . S
C270 C269 1.391 . S
C270 H326 0.947 . S
C270 C327 1.392 . S
C271 C272 1.391 . S
C271 C275 1.397 . S
C271 C327 1.419 . S
C272 C268 1.391 . S
C272 C271 1.391 . S
C272 C273 1.399 . S
C273 C272 1.399 . S
C273 C276 1.396 . S
C273 C285 1.453 1_455 S
C273 C286 1.684 1_455 S
H274 C298 0.948 . S
C275 C271 1.397 . S
C275 C276 1.394 . S
C275 C294 1.723 . S
C276 C273 1.396 . S
C276 C275 1.394 . S
C276 C306 1.723 1_455 S
H277 C300 0.947 . S
H278 C301 0.948 . S
H279 C307 0.982 . S
H280 C308 0.979 . S
H281 C308 0.980 . S
H282 C308 0.983 . S
H283 C307 0.979 . S
H284 C307 0.977 . S
C285 C273 1.453 1_655 S
C285 H314 0.982 . S
C285 H315 0.979 . S
C285 H316 0.977 . S
C286 C273 1.684 1_655 S
C286 H311 0.979 . S
C286 H312 0.980 . S
C286 H313 0.983 . S
C287 C288 1.391 . S
C287 C292 1.391 . S
C287 H317 0.948 . S
C288 C287 1.391 . S
C288 C289 1.391 . S
C289 C288 1.391 . S
C289 C290 1.392 . S
C289 H318 0.947 . S
C290 C289 1.392 . S
C290 C291 1.419 . S
C290 H319 0.948 . S
C291 C290 1.419 . S
C291 C292 1.391 . S
C291 C295 1.397 . S
C292 C287 1.391 . S
C292 C291 1.391 . S
C292 C293 1.399 . S
C293 C292 1.399 . S
C293 C294 1.396 . S
C293 C296 1.453 . S
C293 C297 1.684 . S
C294 C275 1.723 . S
C294 C293 1.396 . S
C294 C295 1.394 . S
C295 C291 1.397 . S
C295 C294 1.394 . S
C295 C305 1.723 1_455 S
C296 C293 1.453 . S
C296 H320 0.982 . S
C296 H321 0.979 . S
C296 H322 0.977 . S
C297 C293 1.684 . S
C297 H323 0.979 . S
C297 H324 0.980 . S
C297 H325 0.983 . S
C298 H274 0.948 . S
C298 C299 1.391 . S
C298 C303 1.391 . S
C299 C298 1.391 . S
C299 C300 1.391 . S
C300 H277 0.947 . S
C300 C299 1.391 . S
C300 C301 1.392 . S
C301 H278 0.948 . S
C301 C300 1.392 . S
C301 C302 1.419 . S
C302 C301 1.419 . S
C302 C303 1.391 . S
C302 C306 1.397 . S
C303 C298 1.391 . S
C303 C302 1.391 . S
C303 C304 1.399 . S
C304 C303 1.399 . S
C304 C305 1.396 . S
C304 C307 1.453 . S
C304 C308 1.684 . S
C305 C295 1.723 1_655 S
C305 C304 1.396 . S
C305 C306 1.394 . S
C306 C276 1.723 1_655 S
C306 C302 1.397 . S
C306 C305 1.394 . S
C307 H279 0.982 . S
C307 H283 0.979 . S
C307 H284 0.977 . S
C307 C304 1.453 . S
C308 H280 0.979 . S
C308 H281 0.980 . S
C308 H282 0.983 . S
C308 C304 1.684 . S
H309 C327 0.948 . S
H310 C268 0.948 . S
H311 C286 0.979 . S
H312 C286 0.980 . S
H313 C286 0.983 . S
H314 C285 0.982 . S
H315 C285 0.979 . S
H316 C285 0.977 . S
H317 C287 0.948 . S
H318 C289 0.947 . S
H319 C290 0.948 . S
H320 C296 0.982 . S
H321 C296 0.979 . S
H322 C296 0.977 . S
H323 C297 0.979 . S
H324 C297 0.980 . S
H325 C297 0.983 . S
H326 C270 0.947 . S
C327 C270 1.392 . S
C327 C271 1.419 . S
C327 H309 0.948 . S
C328 C329 1.391 . S
C328 C332 1.391 . S
C328 H370 0.948 . S
C329 C328 1.391 . S
C329 C330 1.391 . S
C330 C329 1.391 . S
C330 H386 0.947 . S
C330 C387 1.392 . S
C331 C332 1.391 . S
C331 C335 1.397 . S
C331 C387 1.419 . S
C332 C328 1.391 . S
C332 C331 1.391 . S
C332 C333 1.399 1_565 S
C333 C332 1.399 1_545 S
C333 C336 1.396 . S
C333 C345 1.453 . S
C333 C346 1.684 . S
H334 C358 0.948 . S
C335 C331 1.397 . S
C335 C336 1.394 1_565 S
C335 C354 1.723 . S
C336 C333 1.396 . S
C336 C335 1.394 1_545 S
C336 C366 1.723 . S
H337 C360 0.947 . S
H338 C361 0.948 . S
H339 C367 0.982 . S
H340 C368 0.979 . S
H341 C368 0.980 . S
H342 C368 0.983 . S
H343 C367 0.979 . S
H344 C367 0.977 . S
C345 C333 1.453 . S
C345 H374 0.982 . S
C345 H375 0.979 . S
C345 H376 0.977 . S
C346 C333 1.684 . S
C346 H371 0.979 . S
C346 H372 0.980 . S
C346 H373 0.983 . S
C347 C348 1.391 . S
C347 C352 1.391 . S
C347 H377 0.948 . S
C348 C347 1.391 . S
C348 C349 1.391 . S
C349 C348 1.391 . S
C349 C350 1.392 . S
C349 H378 0.947 . S
C350 C349 1.392 . S
C350 C351 1.419 . S
C350 H379 0.948 1_565 S
C351 C350 1.419 . S
C351 C352 1.391 . S
C351 C355 1.397 . S
C352 C347 1.391 . S
C352 C351 1.391 . S
C352 C353 1.399 . S
C353 C352 1.399 . S
C353 C354 1.396 . S
C353 C356 1.453 . S
C353 C357 1.684 . S
C354 C335 1.723 . S
C354 C353 1.396 . S
C354 C355 1.394 . S
C355 C351 1.397 . S
C355 C354 1.394 . S
C355 C365 1.723 1_565 S
C356 C353 1.453 . S
C356 H380 0.982 . S
C356 H381 0.979 . S
C356 H382 0.977 . S
C357 C353 1.684 . S
C357 H383 0.979 . S
C357 H384 0.980 . S
C357 H385 0.983 . S
C358 H334 0.948 . S
C358 C359 1.391 . S
C358 C363 1.391 . S
C359 C358 1.391 . S
C359 C360 1.391 . S
C360 H337 0.947 . S
C360 C359 1.391 . S
C360 C361 1.392 . S
C361 H338 0.948 . S
C361 C360 1.392 . S
C361 C362 1.419 . S
C362 C361 1.419 . S
C362 C363 1.391 . S
C362 C366 1.397 . S
C363 C358 1.391 . S
C363 C362 1.391 . S
C363 C364 1.399 . S
C364 C363 1.399 . S
C364 C365 1.396 . S
C364 C367 1.453 . S
C364 C368 1.684 . S
C365 C355 1.723 1_545 S
C365 C364 1.396 . S
C365 C366 1.394 . S
C366 C336 1.723 . S
C366 C362 1.397 . S
C366 C365 1.394 . S
C367 H339 0.982 . S
C367 H343 0.979 . S
C367 H344 0.977 . S
C367 C364 1.453 . S
C368 H340 0.979 . S
C368 H341 0.980 . S
C368 H342 0.983 . S
C368 C364 1.684 . S
H369 C387 0.948 . S
H370 C328 0.948 . S
H371 C346 0.979 . S
H372 C346 0.980 . S
H373 C346 0.983 . S
H374 C345 0.982 . S
H375 C345 0.979 . S
H376 C345 0.977 . S
H377 C347 0.948 . S
H378 C349 0.947 . S
H379 C350 0.948 1_545 S
H380 C356 0.982 . S
H381 C356 0.979 . S
H382 C356 0.977 . S
H383 C357 0.979 . S
H384 C357 0.980 . S
H385 C357 0.983 . S
H386 C330 0.947 . S
C387 C330 1.392 . S
C387 C331 1.419 . S
C387 H369 0.948 . S
C388 C389 1.391 . S
C388 C392 1.391 . S
C388 H430 0.948 . S
C389 C388 1.391 . S
C389 C390 1.391 . S
C390 C389 1.391 . S
C390 H446 0.947 . S
C390 C447 1.392 . S
C391 C392 1.391 . S
C391 C395 1.397 . S
C391 C447 1.419 . S
C392 C388 1.391 . S
C392 C391 1.391 . S
C392 C393 1.399 . S
C393 C392 1.399 . S
C393 C396 1.396 . S
C393 C405 1.453 . S
C393 C406 1.684 . S
H394 C418 0.948 . S
C395 C391 1.397 . S
C395 C396 1.394 . S
C395 C414 1.723 1_554 S
C396 C393 1.396 . S
C396 C395 1.394 . S
C396 C426 1.723 . S
H397 C420 0.947 . S
H398 C421 0.948 . S
H399 C427 0.982 . S
H400 C428 0.979 . S
H401 C428 0.980 . S
H402 C428 0.983 . S
H403 C427 0.979 . S
H404 C427 0.977 . S
C405 C393 1.453 . S
C405 H434 0.982 . S
C405 H435 0.979 . S
C405 H436 0.977 . S
C406 C393 1.684 . S
C406 H431 0.979 . S
C406 H432 0.980 . S
C406 H433 0.983 . S
C407 C408 1.391 . S
C407 C412 1.391 . S
C407 H437 0.948 . S
C408 C407 1.391 . S
C408 C409 1.391 . S
C409 C408 1.391 . S
C409 C410 1.392 . S
C409 H438 0.947 . S
C410 C409 1.392 . S
C410 C411 1.419 . S
C410 H439 0.948 . S
C411 C410 1.419 . S
C411 C412 1.391 . S
C411 C415 1.397 . S
C412 C407 1.391 . S
C412 C411 1.391 . S
C412 C413 1.399 . S
C413 C412 1.399 . S
C413 C414 1.396 . S
C413 C416 1.453 . S
C413 C417 1.684 . S
C414 C395 1.723 1_556 S
C414 C413 1.396 . S
C414 C415 1.394 . S
C415 C411 1.397 . S
C415 C414 1.394 . S
C415 C425 1.723 . S
C416 C413 1.453 . S
C416 H440 0.982 . S
C416 H441 0.979 . S
C416 H442 0.977 1_556 S
C417 C413 1.684 . S
C417 H443 0.979 . S
C417 H444 0.980 1_556 S
C417 H445 0.983 . S
C418 H394 0.948 . S
C418 C419 1.391 1_556 S
C418 C423 1.391 . S
C419 C418 1.391 1_554 S
C419 C420 1.391 . S
C420 H397 0.947 . S
C420 C419 1.391 . S
C420 C421 1.392 . S
C421 H398 0.948 . S
C421 C420 1.392 . S
C421 C422 1.419 . S
C422 C421 1.419 . S
C422 C423 1.391 1_554 S
C422 C426 1.397 . S
C423 C418 1.391 . S
C423 C422 1.391 1_556 S
C423 C424 1.399 . S
C424 C423 1.399 . S
C424 C425 1.396 . S
C424 C427 1.453 . S
C424 C428 1.684 . S
C425 C415 1.723 . S
C425 C424 1.396 . S
C425 C426 1.394 1_556 S
C426 C396 1.723 . S
C426 C422 1.397 . S
C426 C425 1.394 1_554 S
C427 H399 0.982 . S
C427 H403 0.979 . S
C427 H404 0.977 . S
C427 C424 1.453 . S
C428 H400 0.979 . S
C428 H401 0.980 . S
C428 H402 0.983 . S
C428 C424 1.684 . S
H429 C447 0.948 . S
H430 C388 0.948 . S
H431 C406 0.979 . S
H432 C406 0.980 . S
H433 C406 0.983 . S
H434 C405 0.982 . S
H435 C405 0.979 . S
H436 C405 0.977 . S
H437 C407 0.948 . S
H438 C409 0.947 . S
H439 C410 0.948 . S
H440 C416 0.982 . S
H441 C416 0.979 . S
H442 C416 0.977 1_554 S
H443 C417 0.979 . S
H444 C417 0.980 1_554 S
H445 C417 0.983 . S
H446 C390 0.947 . S
C447 C390 1.392 . S
C447 C391 1.419 . S
C447 H429 0.948 . S
C448 C449 1.391 . S
C448 C452 1.391 . S
C448 H490 0.948 . S
C449 C448 1.391 . S
C449 C450 1.391 . S
C450 C449 1.391 . S
C450 H506 0.947 . S
C450 C507 1.392 . S
C451 C452 1.391 . S
C451 C455 1.397 . S
C451 C507 1.419 . S
C452 C448 1.391 . S
C452 C451 1.391 . S
C452 C453 1.399 . S
C453 C452 1.399 . S
C453 C456 1.396 . S
C453 C465 1.453 1_545 S
C453 C466 1.684 1_545 S
H454 C478 0.948 . S
C455 C451 1.397 . S
C455 C456 1.394 . S
C455 C474 1.723 . S
C456 C453 1.396 . S
C456 C455 1.394 . S
C456 C486 1.723 1_545 S
H457 C480 0.947 . S
H458 C481 0.948 . S
H459 C487 0.982 . S
H460 C488 0.979 . S
H461 C488 0.980 . S
H462 C488 0.983 . S
H463 C487 0.979 . S
H464 C487 0.977 . S
C465 C453 1.453 1_565 S
C465 H494 0.982 . S
C465 H495 0.979 . S
C465 H496 0.977 . S
C466 C453 1.684 1_565 S
C466 H491 0.979 . S
C466 H492 0.980 . S
C466 H493 0.983 . S
C467 C468 1.391 . S
C467 C472 1.391 . S
C467 H497 0.948 . S
C468 C467 1.391 . S
C468 C469 1.391 . S
C469 C468 1.391 . S
C469 C470 1.392 . S
C469 H498 0.947 . S
C470 C469 1.392 . S
C470 C471 1.419 . S
C470 H499 0.948 1_545 S
C471 C470 1.419 . S
C471 C472 1.391 . S
C471 C475 1.397 . S
C472 C467 1.391 . S
C472 C471 1.391 . S
C472 C473 1.399 . S
C473 C472 1.399 . S
C473 C474 1.396 . S
C473 C476 1.453 . S
C473 C477 1.684 . S
C474 C455 1.723 . S
C474 C473 1.396 . S
C474 C475 1.394 . S
C475 C471 1.397 . S
C475 C474 1.394 . S
C475 C485 1.723 1_545 S
C476 C473 1.453 . S
C476 H500 0.982 . S
C476 H501 0.979 . S
C476 H502 0.977 . S
C477 C473 1.684 . S
C477 H503 0.979 . S
C477 H504 0.980 . S
C477 H505 0.983 . S
C478 H454 0.948 . S
C478 C479 1.391 . S
C478 C483 1.391 . S
C479 C478 1.391 . S
C479 C480 1.391 . S
C480 H457 0.947 . S
C480 C479 1.391 . S
C480 C481 1.392 . S
C481 H458 0.948 . S
C481 C480 1.392 . S
C481 C482 1.419 . S
C482 C481 1.419 . S
C482 C483 1.391 . S
C482 C486 1.397 . S
C483 C478 1.391 . S
C483 C482 1.391 . S
C483 C484 1.399 . S
C484 C483 1.399 . S
C484 C485 1.396 . S
C484 C487 1.453 . S
C484 C488 1.684 . S
C485 C475 1.723 1_565 S
C485 C484 1.396 . S
C485 C486 1.394 . S
C486 C456 1.723 1_565 S
C486 C482 1.397 . S
C486 C485 1.394 . S
C487 H459 0.982 . S
C487 H463 0.979 . S
C487 H464 0.977 . S
C487 C484 1.453 . S
C488 H460 0.979 . S
C488 H461 0.980 . S
C488 H462 0.983 . S
C488 C484 1.684 . S
H489 C507 0.948 . S
H490 C448 0.948 . S
H491 C466 0.979 . S
H492 C466 0.980 . S
H493 C466 0.983 . S
H494 C465 0.982 . S
H495 C465 0.979 . S
H496 C465 0.977 . S
H497 C467 0.948 . S
H498 C469 0.947 . S
H499 C470 0.948 1_565 S
H500 C476 0.982 . S
H501 C476 0.979 . S
H502 C476 0.977 . S
H503 C477 0.979 . S
H504 C477 0.980 . S
H505 C477 0.983 . S
H506 C450 0.947 . S
C507 C450 1.392 . S
C507 C451 1.419 . S
C507 H489 0.948 . S
C508 C509 1.391 1_554 S
C508 C512 1.391 . S
C508 H550 0.948 . S
C509 C508 1.391 1_556 S
C509 C510 1.391 . S
C510 C509 1.391 . S
C510 H566 0.947 . S
C510 C567 1.392 . S
C511 C512 1.391 1_556 S
C511 C515 1.397 . S
C511 C567 1.419 . S
C512 C508 1.391 . S
C512 C511 1.391 1_554 S
C512 C513 1.399 . S
C513 C512 1.399 . S
C513 C516 1.396 . S
C513 C525 1.453 . S
C513 C526 1.684 . S
H514 C538 0.948 . S
C515 C511 1.397 . S
C515 C516 1.394 1_556 S
C515 C534 1.723 . S
C516 C513 1.396 . S
C516 C515 1.394 1_554 S
C516 C546 1.723 . S
H517 C540 0.947 . S
H518 C541 0.948 . S
H519 C547 0.982 . S
H520 C548 0.979 . S
H521 C548 0.980 1_556 S
H522 C548 0.983 . S
H523 C547 0.979 . S
H524 C547 0.977 1_556 S
C525 C513 1.453 . S
C525 H554 0.982 . S
C525 H555 0.979 . S
C525 H556 0.977 . S
C526 C513 1.684 . S
C526 H551 0.979 . S
C526 H552 0.980 . S
C526 H553 0.983 . S
C527 C528 1.391 . S
C527 C532 1.391 . S
C527 H557 0.948 . S
C528 C527 1.391 . S
C528 C529 1.391 . S
C529 C528 1.391 . S
C529 C530 1.392 . S
C529 H558 0.947 . S
C530 C529 1.392 . S
C530 C531 1.419 . S
C530 H559 0.948 . S
C531 C530 1.419 . S
C531 C532 1.391 . S
C531 C535 1.397 . S
C532 C527 1.391 . S
C532 C531 1.391 . S
C532 C533 1.399 . S
C533 C532 1.399 . S
C533 C534 1.396 . S
C533 C536 1.453 . S
C533 C537 1.684 . S
C534 C515 1.723 . S
C534 C533 1.396 . S
C534 C535 1.394 . S
C535 C531 1.397 . S
C535 C534 1.394 . S
C535 C545 1.723 1_556 S
C536 C533 1.453 . S
C536 H560 0.982 . S
C536 H561 0.979 . S
C536 H562 0.977 . S
C537 C533 1.684 . S
C537 H563 0.979 . S
C537 H564 0.980 . S
C537 H565 0.983 . S
C538 H514 0.948 . S
C538 C539 1.391 . S
C538 C543 1.391 . S
C539 C538 1.391 . S
C539 C540 1.391 . S
C540 H517 0.947 . S
C540 C539 1.391 . S
C540 C541 1.392 . S
C541 H518 0.948 . S
C541 C540 1.392 . S
C541 C542 1.419 . S
C542 C541 1.419 . S
C542 C543 1.391 . S
C542 C546 1.397 . S
C543 C538 1.391 . S
C543 C542 1.391 . S
C543 C544 1.399 . S
C544 C543 1.399 . S
C544 C545 1.396 . S
C544 C547 1.453 . S
C544 C548 1.684 . S
C545 C535 1.723 1_554 S
C545 C544 1.396 . S
C545 C546 1.394 . S
C546 C516 1.723 . S
C546 C542 1.397 . S
C546 C545 1.394 . S
C547 H519 0.982 . S
C547 H523 0.979 . S
C547 H524 0.977 1_554 S
C547 C544 1.453 . S
C548 H520 0.979 . S
C548 H521 0.980 1_554 S
C548 H522 0.983 . S
C548 C544 1.684 . S
H549 C567 0.948 . S
H550 C508 0.948 . S
H551 C526 0.979 . S
H552 C526 0.980 . S
H553 C526 0.983 . S
H554 C525 0.982 . S
H555 C525 0.979 . S
H556 C525 0.977 . S
H557 C527 0.948 . S
H558 C529 0.947 . S
H559 C530 0.948 . S
H560 C536 0.982 . S
H561 C536 0.979 . S
H562 C536 0.977 . S
H563 C537 0.979 . S
H564 C537 0.980 . S
H565 C537 0.983 . S
H566 C510 0.947 . S
C567 C510 1.392 . S
C567 C511 1.419 . S
C567 H549 0.948 . S
C21 C269 1.852 . S
C40 C89 2.527 . S
C168 C54 1.873 . S
C73 C228 2.476 . S
C389 C74 1.873 . S
C468 C10 2.411 . S
C539 C37 2.223 . S
C329 C65 2.608 . S
C52 C179 2.101 . S
C87 C209 2.348 . S
C15 C288 2.088 . S
C108 C32 2.633 . S
C29 C528 2.083 . S
C348 C59 2.700 . S
C408 C84 2.101 . S
C8 C449 2.269 . S
C119 C7 2.705 1_556 S
C149 C30 1.987 . S
C62 C239 2.459 . S
C81 C299 1.883 . S
C359 C76 2.706 . S
C18 C419 1.988 1_556 S
C43 C479 2.460 . S
C51 C509 2.069 . S
