# Generated by pormake.
# Topology anh, (6,3)-cn, num edge types: 1
# Building blocks:
#     Node 0, Type 0, BuildingBlock: BETGAK_clean_sbu_0, # of connection points: 6
#     Node 1, Type 0, BuildingBlock: BETGAK_clean_sbu_0, # of connection points: 6
#     Node 2, Type 0, BuildingBlock: BETGAK_clean_sbu_0, # of connection points: 6
#     Node 3, Type 1, BuildingBlock: INOVEN_clean_linker_0, # of connection points: 3
#     Node 4, Type 1, BuildingBlock: INOVEN_clean_linker_0, # of connection points: 3
#     Node 5, Type 1, BuildingBlock: INOVEN_clean_linker_0, # of connection points: 3
#     Node 6, Type 1, BuildingBlock: INOVEN_clean_linker_0, # of connection points: 3
#     Node 7, Type 1, BuildingBlock: INOVEN_clean_linker_0, # of connection points: 3
#     Node 8, Type 1, BuildingBlock: INOVEN_clean_linker_0, # of connection points: 3
#     Edge 9, Type (0, 1), BuildingBlock: EYOCIG_clean_linker_4, # of connection points: 2
#     Edge 10, Type (0, 1), BuildingBlock: EYOCIG_clean_linker_4, # of connection points: 2
#     Edge 11, Type (0, 1), BuildingBlock: EYOCIG_clean_linker_4, # of connection points: 2
#     Edge 12, Type (0, 1), BuildingBlock: EYOCIG_clean_linker_4, # of connection points: 2
#     Edge 13, Type (0, 1), BuildingBlock: EYOCIG_clean_linker_4, # of connection points: 2
#     Edge 14, Type (0, 1), BuildingBlock: EYOCIG_clean_linker_4, # of connection points: 2
#     Edge 15, Type (0, 1), BuildingBlock: EYOCIG_clean_linker_4, # of connection points: 2
#     Edge 16, Type (0, 1), BuildingBlock: EYOCIG_clean_linker_4, # of connection points: 2
#     Edge 17, Type (0, 1), BuildingBlock: EYOCIG_clean_linker_4, # of connection points: 2
#     Edge 18, Type (0, 1), BuildingBlock: EYOCIG_clean_linker_4, # of connection points: 2
#     Edge 19, Type (0, 1), BuildingBlock: EYOCIG_clean_linker_4, # of connection points: 2
#     Edge 20, Type (0, 1), BuildingBlock: EYOCIG_clean_linker_4, # of connection points: 2
#     Edge 21, Type (0, 1), BuildingBlock: EYOCIG_clean_linker_4, # of connection points: 2
#     Edge 22, Type (0, 1), BuildingBlock: EYOCIG_clean_linker_4, # of connection points: 2
#     Edge 23, Type (0, 1), BuildingBlock: EYOCIG_clean_linker_4, # of connection points: 2
#     Edge 24, Type (0, 1), BuildingBlock: EYOCIG_clean_linker_4, # of connection points: 2
#     Edge 25, Type (0, 1), BuildingBlock: EYOCIG_clean_linker_4, # of connection points: 2
#     Edge 26, Type (0, 1), BuildingBlock: EYOCIG_clean_linker_4, # of connection points: 2
# Relax obj value: 0.197
# Max RMSD: 0.202
# Mean RMSD: 0.115
data_MOF--net-anh--node1-BETGAK_clean_sbu_0--node2-INOVEN_clean_linker_0--edge1-EYOCIG_clean_linker_4
_symmetry_space_group_name_H-M    P1
_symmetry_Int_Tables_number       1
_symmetry_cell_setting            triclinic
loop_
_symmetry_equiv_pos_as_xyz
'x, y, z'
_cell_length_a     23.579367
_cell_length_b     31.571917
_cell_length_c     38.8556
_cell_angle_alpha  94.461625
_cell_angle_beta   89.012454
_cell_angle_gamma 133.26198
loop_
_atom_site_label
_atom_site_type_symbol
_atom_site_fract_x
_atom_site_fract_y
_atom_site_fract_z
_atom_type_partial_charge
La0 La 0.24072 0.56937 0.15716 0.0
La1 La 1.15053 0.60037 0.15973 0.0
C2 C 0.346 0.56976 0.15236 0.0
C3 C 0.42571 0.61774 0.16727 0.0
C4 C 0.44689 0.61505 0.20009 0.0
C5 C 0.52341 0.65926 0.21352 0.0
C6 C 0.57981 0.70499 0.19358 0.0
C7 C 0.55575 0.71279 0.16399 0.0
C8 C 0.47944 0.66887 0.15047 0.0
C9 C 0.19112 0.56769 0.2184 0.0
C10 C 0.33033 0.70313 0.16034 0.0
C11 C 1.08335 0.63219 0.18203 0.0
C12 C 1.00001 0.59585 0.18782 0.0
C13 C 0.95097 0.58503 0.16127 0.0
C14 C 0.87089 0.53792 0.16165 0.0
C15 C 0.83886 0.50155 0.18868 0.0
C16 C 0.88627 0.51562 0.21708 0.0
C17 C 0.96677 0.56302 0.2168 0.0
C18 C 1.15421 0.56564 0.09672 0.0
C19 C 1.06431 0.46805 0.15208 0.0
O20 O 0.29287 0.54154 0.17506 0.0
O21 O 0.32405 0.58085 0.12655 0.0
O22 O 0.19043 0.52857 0.20541 0.0
O23 O 0.21912 0.60559 0.19756 0.0
O24 O 0.33492 0.66495 0.16646 0.0
O25 O 0.26304 0.68693 0.15373 0.0
O26 O 1.10162 0.63431 0.14973 0.0
O27 O 1.1187 0.62407 0.20202 0.0
O28 O 1.09396 0.55437 0.10902 0.0
O29 O 0.21037 0.59712 0.11902 0.0
O30 O 1.06272 0.50645 0.167 0.0
O31 O 1.12847 0.48515 0.13894 0.0
H32 H 0.40562 0.57742 0.21454 0.0
H33 H 0.54062 0.65268 0.23669 0.0
H34 H 0.59845 0.74824 0.14836 0.0
H35 H 0.464 0.67373 0.12597 0.0
H36 H 0.97478 0.61003 0.13892 0.0
H37 H 0.83438 0.52783 0.13971 0.0
H38 H 0.86194 0.48832 0.23837 0.0
H39 H 1.00315 0.5711 0.23804 0.0
La40 La 0.70389 0.04949 0.47668 0.0
La41 La 0.60107 0.07214 0.47938 0.0
C42 C 0.76263 1.00794 0.48469 0.0
C43 C 0.72983 0.94781 0.4842 0.0
C44 C 0.73285 0.92123 0.45432 0.0
C45 C 0.70651 0.86587 0.4545 0.0
C46 C 0.67745 0.83681 0.4846 0.0
C47 C 0.67099 0.86177 0.51387 0.0
C48 C 0.69692 0.91687 0.51372 0.0
C49 C 0.67189 0.06374 0.4169 0.0
C50 C 0.51819 0.94326 0.47547 0.0
C51 C 0.54441 0.11461 0.46881 0.0
C52 C 0.57643 0.17464 0.47507 0.0
C53 C 0.57261 0.19484 0.5078 0.0
C54 C 0.60464 0.25186 0.51404 0.0
C55 C 0.64069 0.28956 0.48773 0.0
C56 C 0.64503 0.27011 0.45506 0.0
C57 C 0.61292 0.2129 0.44872 0.0
C58 C 0.63408 0.05903 0.53947 0.0
C59 C 0.78788 0.17893 0.48225 0.0
O60 O 0.75931 1.0236 0.45519 0.0
O61 O 0.74514 1.02603 0.51046 0.0
O62 O 0.73862 0.0822 0.4259 0.0
O63 O 0.62433 0.03575 0.44012 0.0
O64 O 0.58768 0.96291 0.48289 0.0
O65 O 0.50914 0.97831 0.46768 0.0
O66 O 0.53164 0.08799 0.49623 0.0
O67 O 0.57651 0.10637 0.44486 0.0
O68 O 0.56824 0.04268 0.53127 0.0
O69 O 0.68047 0.08582 0.51578 0.0
O70 O 0.71815 0.15981 0.47645 0.0
O71 O 0.79742 0.14335 0.48761 0.0
H72 H 0.75751 0.94387 0.43113 0.0
H73 H 0.7121 0.84704 0.43174 0.0
H74 H 0.64875 0.83966 0.53735 0.0
H75 H 0.69313 0.93577 0.53706 0.0
H76 H 0.54499 0.16669 0.52868 0.0
H77 H 0.60072 0.2664 0.5394 0.0
H78 H 0.67253 0.29886 0.43445 0.0
H79 H 0.61676 0.19868 0.42324 0.0
La80 La 0.78954 0.63055 0.83929 0.0
La81 La 0.67287 0.50069 0.82974 0.0
C82 C 0.86051 0.73519 0.83311 0.0
C83 C 0.83379 0.76572 0.83038 0.0
C84 C 0.84684 0.80289 0.85846 0.0
C85 C 0.82157 0.83181 0.85621 0.0
C86 C 0.78346 0.82412 0.82577 0.0
C87 C 0.76915 0.78653 0.79792 0.0
C88 C 0.794 0.75744 0.80016 0.0
C89 C 0.75016 0.57837 0.89596 0.0
C90 C 0.60489 0.55742 0.83567 0.0
C91 C 0.60176 0.39587 0.83555 0.0
C92 C 0.62465 0.36242 0.8303 0.0
C93 C 0.60968 0.33216 0.798 0.0
C94 C 0.63259 0.3016 0.79259 0.0
C95 C 0.67033 0.30048 0.81936 0.0
C96 C 0.68563 0.3304 0.85162 0.0
C97 C 0.66282 0.36115 0.85712 0.0
C98 C 0.71 0.55141 0.77242 0.0
C99 C 0.85828 0.57434 0.83583 0.0
O100 O 0.85148 0.71495 0.86287 0.0
O101 O 0.84163 0.69801 0.80699 0.0
O102 O 0.81981 0.62768 0.89155 0.0
O103 O 0.70531 0.5625 0.87065 0.0
O104 O 0.67737 0.60736 0.83175 0.0
O105 O 0.58927 0.50917 0.84005 0.0
O106 O 0.59604 0.41401 0.80782 0.0
O107 O 0.63635 0.43598 0.86174 0.0
O108 O 0.64141 0.5021 0.77782 0.0
O109 O 0.75659 0.56854 0.79748 0.0
O110 O 0.78493 0.52353 0.83634 0.0
O111 O 0.87545 0.62366 0.83353 0.0
H112 H 0.87701 0.80985 0.88209 0.0
H113 H 0.83315 0.86096 0.8779 0.0
H114 H 0.73985 0.78039 0.7742 0.0
H115 H 0.78243 0.72887 0.77811 0.0
H116 H 0.58031 0.33212 0.77684 0.0
H117 H 0.6203 0.27848 0.76751 0.0
H118 H 0.71462 0.32966 0.87257 0.0
H119 H 0.67512 0.38389 0.88231 0.0
H120 H 0.65422 0.03524 0.14745 0.0
H121 H 0.5598 0.95683 0.24341 0.0
H122 H 0.72618 0.14306 0.24331 0.0
N123 N 0.74726 0.14658 0.17453 0.0
N124 N 0.78684 0.19626 0.19002 0.0
C125 C 0.65075 0.03961 0.17516 0.0
C126 C 0.60127 0.98943 0.19343 0.0
C127 C 0.69614 0.09565 0.19289 0.0
C128 C 0.69117 0.10051 0.229 0.0
C129 C 0.64222 0.05064 0.24699 0.0
C130 C 0.5973 0.99538 0.22923 0.0
H131 H 0.69457 0.54624 0.50432 0.0
H132 H 0.73563 0.51104 0.60093 0.0
H133 H 0.70925 0.63287 0.5999 0.0
N134 N 0.6852 0.62057 0.53017 0.0
N135 N 0.66717 0.64649 0.54419 0.0
C136 C 0.70408 0.5545 0.5322 0.0
C137 C 0.71626 0.52478 0.55061 0.0
C138 C 0.70074 0.5931 0.5497 0.0
C139 C 0.71178 0.60311 0.58601 0.0
C140 C 0.72533 0.57408 0.60443 0.0
C141 C 0.72737 0.53482 0.58666 0.0
H142 H 0.18538 0.56863 0.82463 0.0
H143 H 1.09069 0.56673 0.92126 0.0
H144 H 0.26693 0.56099 0.92071 0.0
N145 N 0.28645 0.56382 0.85201 0.0
N146 N 0.32985 0.56155 0.86813 0.0
C147 C 0.18357 0.56724 0.85243 0.0
C148 C 1.13157 0.568 0.87088 0.0
C149 C 0.23337 0.56466 0.87017 0.0
C150 C 0.22977 0.56289 0.90639 0.0
C151 C 0.17866 0.56356 0.92457 0.0
C152 C 1.13004 0.56613 0.90687 0.0
H153 H 0.19628 0.6116 0.49022 0.0
H154 H 0.26807 0.6894 0.39335 0.0
H155 H 1.09895 0.50317 0.39343 0.0
N156 N 1.09598 0.50033 0.46288 0.0
N157 N 1.05351 0.45069 0.44707 0.0
C158 C 0.19219 0.60705 0.46221 0.0
C159 C 0.23772 0.65701 0.44377 0.0
C160 C 1.14166 0.55099 0.44428 0.0
C161 C 1.13724 0.54582 0.40782 0.0
C162 C 0.18247 0.59553 0.38967 0.0
C163 C 0.23255 0.65091 0.4076 0.0
H164 H 0.72479 0.09425 0.80733 0.0
H165 H 0.70044 0.14018 0.71096 0.0
H166 H 0.70308 1.00545 0.71103 0.0
N167 N 0.71987 1.01233 0.7809 0.0
N168 N 0.70862 0.97012 0.76694 0.0
C169 C 0.71861 0.08828 0.77933 0.0
C170 C 0.71332 0.12206 0.76113 0.0
C171 C 0.71456 0.04589 0.76158 0.0
C172 C 0.70605 0.03795 0.72517 0.0
C173 C 0.70149 0.07221 0.70698 0.0
C174 C 0.70499 0.11414 0.72501 0.0
H175 H 0.5625 0.443 0.13989 0.0
H176 H 0.62986 0.40166 0.04964 0.0
H177 H 0.59596 0.51865 0.04592 0.0
N178 N 0.58621 0.52751 0.11485 0.0
N179 N 0.63132 0.57803 0.10575 0.0
C180 C 0.56982 0.44353 0.11222 0.0
C181 C 0.59012 0.4145 0.09626 0.0
C182 C 0.57468 0.48269 0.09464 0.0
C183 C 0.59029 0.4872 0.05945 0.0
C184 C 0.60855 0.45707 0.04296 0.0
C185 C 0.60815 0.42031 0.0613 0.0
C186 C 0.67539 0.69946 0.17337 0.0
C187 C 0.64854 0.71526 0.19001 0.0
C188 C 0.66966 0.66154 0.14877 0.0
C189 C 0.65157 0.62322 0.12811 0.0
C190 C 0.90667 0.29257 0.48064 0.0
C191 C 0.85482 0.24042 0.48174 0.0
C192 C 0.96323 0.35223 0.47443 0.0
C193 C 1.00739 0.40012 0.46401 0.0
C194 C 0.74418 0.8826 0.81468 0.0
C195 C 0.76359 0.85752 0.82174 0.0
C196 C 0.72687 0.91293 0.8012 0.0
C197 C 0.71678 0.93938 0.78619 0.0
C198 C 0.69539 0.41143 0.16995 0.0
C199 C 0.75857 0.44782 0.18452 0.0
C200 C 0.64063 0.39059 0.14303 0.0
C201 C 0.61737 0.39681 0.11849 0.0
C202 C 0.39873 0.82898 0.47339 0.0
C203 C 0.45175 0.88134 0.47408 0.0
C204 C 0.33953 0.76727 0.46916 0.0
C205 C 0.29153 0.71537 0.46088 0.0
C206 C 0.70417 0.23707 0.80544 0.0
C207 C 0.69056 0.2668 0.81361 0.0
C208 C 0.71231 0.1986 0.79266 0.0
C209 C 0.71308 0.16329 0.77937 0.0
C210 C 0.65121 0.74332 0.4945 0.0
C211 C 0.66403 0.78556 0.48751 0.0
C212 C 0.64846 0.70238 0.50875 0.0
C213 C 0.65477 0.67435 0.52447 0.0
C214 C 0.972 0.57457 0.84114 0.0
C215 C 0.92119 0.57547 0.83869 0.0
C216 C 1.03051 0.57266 0.84649 0.0
C217 C 1.07858 0.57065 0.85441 0.0
C218 C 0.45264 0.81715 0.16393 0.0
C219 C 0.39949 0.76465 0.16267 0.0
C220 C 0.50951 0.87905 0.16846 0.0
C221 C 0.55371 0.93099 0.17659 0.0
C222 C 0.69112 0.39351 0.50399 0.0
C223 C 0.66995 0.34717 0.49444 0.0
C224 C 0.70623 0.44288 0.51848 0.0
C225 C 0.71066 0.48033 0.53278 0.0
C226 C 0.49133 0.55772 0.83934 0.0
C227 C 0.54262 0.55714 0.83771 0.0
C228 C 0.43205 0.5592 0.84417 0.0
C229 C 0.383 0.56048 0.8525 0.0
C230 C 0.94506 0.35456 0.15631 0.0
C231 C 0.99902 0.40646 0.15456 0.0
C232 C 0.8857 0.29504 0.16296 0.0
C233 C 0.8381 0.24707 0.17332 0.0
C234 C 0.16919 0.56101 0.02917 0.0
C235 C 0.16422 0.56379 0.06013 0.0
C236 C 0.17357 0.56072 0.99274 0.0
C237 C 0.17646 0.562 0.9617 0.0
C238 C 0.64124 0.05975 0.35135 0.0
C239 C 0.65019 0.05967 0.38175 0.0
C240 C 0.6385 0.05854 0.31506 0.0
C241 C 0.64114 0.05602 0.28406 0.0
C242 C 0.74021 0.5825 0.70883 0.0
C243 C 0.73251 0.57201 0.73865 0.0
C244 C 0.73958 0.58561 0.67277 0.0
C245 C 0.73284 0.58175 0.64168 0.0
C246 C 0.67065 0.05949 0.60335 0.0
C247 C 0.65661 0.06027 0.57385 0.0
C248 C 0.68339 0.06073 0.63892 0.0
C249 C 0.69167 0.06405 0.66984 0.0
C250 C 0.6997 0.52179 0.95194 0.0
C251 C 0.7248 0.54877 0.92679 0.0
C252 C 0.66775 0.49263 0.98221 0.0
C253 C 0.64154 0.47334 0.00963 0.0
C254 C 0.17869 0.58032 0.28512 0.0
C255 C 0.18488 0.57604 0.25452 0.0
C256 C 0.17692 0.5853 0.32139 0.0
C257 C 0.17928 0.58977 0.3525 0.0
loop_
_geom_bond_atom_site_label_1
_geom_bond_atom_site_label_2
_geom_bond_distance
_geom_bond_site_symmetry_2
_ccdc_geom_bond_type
La0 C2 2.928 . S
La0 O20 2.521 . S
La0 O21 2.628 . S
La0 O22 2.554 . S
La0 O23 2.757 . S
La0 O24 2.470 . S
La0 O29 2.482 . S
La0 O31 2.503 1_455 S
La1 C11 2.928 . S
La1 O23 2.482 1_655 S
La1 O25 2.503 1_655 S
La1 O26 2.521 . S
La1 O27 2.628 . S
La1 O28 2.554 . S
La1 O29 2.757 1_655 S
La1 O30 2.470 . S
C2 La0 2.928 . S
C2 C3 1.503 . S
C2 O20 1.261 . S
C2 O21 1.243 . S
C3 C2 1.503 . S
C3 C4 1.394 . S
C3 C8 1.373 . S
C4 C3 1.394 . S
C4 C5 1.380 . S
C4 H32 0.930 . S
C5 C4 1.380 . S
C5 C6 1.376 . S
C5 H33 0.930 . S
C6 C5 1.376 . S
C6 C7 1.370 . S
C7 C6 1.370 . S
C7 C8 1.396 . S
C7 H34 0.929 . S
C8 C3 1.373 . S
C8 C7 1.396 . S
C8 H35 0.929 . S
C9 O22 1.240 . S
C9 O23 1.289 . S
C10 O24 1.258 . S
C10 O25 1.256 . S
C11 La1 2.928 . S
C11 C12 1.503 . S
C11 O26 1.261 . S
C11 O27 1.243 . S
C12 C11 1.503 . S
C12 C13 1.394 . S
C12 C17 1.373 . S
C13 C12 1.394 . S
C13 C14 1.380 . S
C13 H36 0.930 . S
C14 C13 1.380 . S
C14 C15 1.376 . S
C14 H37 0.930 . S
C15 C14 1.376 . S
C15 C16 1.370 . S
C16 C15 1.370 . S
C16 C17 1.396 . S
C16 H38 0.929 . S
C17 C12 1.373 . S
C17 C16 1.396 . S
C17 H39 0.929 . S
C18 O28 1.240 1_455 S
C18 O29 1.289 . S
C19 O30 1.258 . S
C19 O31 1.256 . S
O20 La0 2.521 . S
O20 C2 1.261 . S
O21 La0 2.628 . S
O21 C2 1.243 . S
O22 La0 2.554 . S
O22 C9 1.240 . S
O23 La0 2.757 . S
O23 La1 2.482 1_455 S
O23 C9 1.289 . S
O24 La0 2.470 . S
O24 C10 1.258 . S
O25 La1 2.503 1_455 S
O25 C10 1.256 . S
O26 La1 2.521 . S
O26 C11 1.261 . S
O27 La1 2.628 . S
O27 C11 1.243 . S
O28 La1 2.554 . S
O28 C18 1.240 1_655 S
O29 La0 2.482 . S
O29 La1 2.757 1_455 S
O29 C18 1.289 . S
O30 La1 2.470 . S
O30 C19 1.258 . S
O31 La0 2.503 1_655 S
O31 C19 1.256 . S
H32 C4 0.930 . S
H33 C5 0.930 . S
H34 C7 0.929 . S
H35 C8 0.929 . S
H36 C13 0.930 . S
H37 C14 0.930 . S
H38 C16 0.929 . S
H39 C17 0.929 . S
La40 C42 2.928 1_545 S
La40 O60 2.521 1_545 S
La40 O61 2.628 1_545 S
La40 O62 2.554 . S
La40 O63 2.757 . S
La40 O64 2.470 1_545 S
La40 O69 2.482 . S
La40 O71 2.503 . S
La41 C51 2.928 . S
La41 O63 2.482 . S
La41 O65 2.503 1_545 S
La41 O66 2.521 . S
La41 O67 2.628 . S
La41 O68 2.554 . S
La41 O69 2.757 . S
La41 O70 2.470 . S
C42 La40 2.928 1_565 S
C42 C43 1.503 . S
C42 O60 1.261 . S
C42 O61 1.243 . S
C43 C42 1.503 . S
C43 C44 1.394 . S
C43 C48 1.373 . S
C44 C43 1.394 . S
C44 C45 1.380 . S
C44 H72 0.930 . S
C45 C44 1.380 . S
C45 C46 1.376 . S
C45 H73 0.930 . S
C46 C45 1.376 . S
C46 C47 1.370 . S
C47 C46 1.370 . S
C47 C48 1.396 . S
C47 H74 0.929 . S
C48 C43 1.373 . S
C48 C47 1.396 . S
C48 H75 0.929 . S
C49 O62 1.240 . S
C49 O63 1.289 . S
C50 O64 1.258 . S
C50 O65 1.256 . S
C51 La41 2.928 . S
C51 C52 1.503 . S
C51 O66 1.261 . S
C51 O67 1.243 . S
C52 C51 1.503 . S
C52 C53 1.394 . S
C52 C57 1.373 . S
C53 C52 1.394 . S
C53 C54 1.380 . S
C53 H76 0.930 . S
C54 C53 1.380 . S
C54 C55 1.376 . S
C54 H77 0.930 . S
C55 C54 1.376 . S
C55 C56 1.370 . S
C56 C55 1.370 . S
C56 C57 1.396 . S
C56 H78 0.929 . S
C57 C52 1.373 . S
C57 C56 1.396 . S
C57 H79 0.929 . S
C58 O68 1.240 . S
C58 O69 1.289 . S
C59 O70 1.258 . S
C59 O71 1.256 . S
O60 La40 2.521 1_565 S
O60 C42 1.261 . S
O61 La40 2.628 1_565 S
O61 C42 1.243 . S
O62 La40 2.554 . S
O62 C49 1.240 . S
O63 La40 2.757 . S
O63 La41 2.482 . S
O63 C49 1.289 . S
O64 La40 2.470 1_565 S
O64 C50 1.258 . S
O65 La41 2.503 1_565 S
O65 C50 1.256 . S
O66 La41 2.521 . S
O66 C51 1.261 . S
O67 La41 2.628 . S
O67 C51 1.243 . S
O68 La41 2.554 . S
O68 C58 1.240 . S
O69 La40 2.482 . S
O69 La41 2.757 . S
O69 C58 1.289 . S
O70 La41 2.470 . S
O70 C59 1.258 . S
O71 La40 2.503 . S
O71 C59 1.256 . S
H72 C44 0.930 . S
H73 C45 0.930 . S
H74 C47 0.929 . S
H75 C48 0.929 . S
H76 C53 0.930 . S
H77 C54 0.930 . S
H78 C56 0.929 . S
H79 C57 0.929 . S
La80 C82 2.928 . S
La80 O100 2.521 . S
La80 O101 2.628 . S
La80 O102 2.554 . S
La80 O103 2.757 . S
La80 O104 2.470 . S
La80 O109 2.482 . S
La80 O111 2.503 . S
La81 C91 2.928 . S
La81 O103 2.482 . S
La81 O105 2.503 . S
La81 O106 2.521 . S
La81 O107 2.628 . S
La81 O108 2.554 . S
La81 O109 2.757 . S
La81 O110 2.470 . S
C82 La80 2.928 . S
C82 C83 1.503 . S
C82 O100 1.261 . S
C82 O101 1.243 . S
C83 C82 1.503 . S
C83 C84 1.394 . S
C83 C88 1.373 . S
C84 C83 1.394 . S
C84 C85 1.380 . S
C84 H112 0.930 . S
C85 C84 1.380 . S
C85 C86 1.376 . S
C85 H113 0.930 . S
C86 C85 1.376 . S
C86 C87 1.370 . S
C87 C86 1.370 . S
C87 C88 1.396 . S
C87 H114 0.929 . S
C88 C83 1.373 . S
C88 C87 1.396 . S
C88 H115 0.929 . S
C89 O102 1.240 . S
C89 O103 1.289 . S
C90 O104 1.258 . S
C90 O105 1.256 . S
C91 La81 2.928 . S
C91 C92 1.503 . S
C91 O106 1.261 . S
C91 O107 1.243 . S
C92 C91 1.503 . S
C92 C93 1.394 . S
C92 C97 1.373 . S
C93 C92 1.394 . S
C93 C94 1.380 . S
C93 H116 0.930 . S
C94 C93 1.380 . S
C94 C95 1.376 . S
C94 H117 0.930 . S
C95 C94 1.376 . S
C95 C96 1.370 . S
C96 C95 1.370 . S
C96 C97 1.396 . S
C96 H118 0.929 . S
C97 C92 1.373 . S
C97 C96 1.396 . S
C97 H119 0.929 . S
C98 O108 1.240 . S
C98 O109 1.289 . S
C99 O110 1.258 . S
C99 O111 1.256 . S
O100 La80 2.521 . S
O100 C82 1.261 . S
O101 La80 2.628 . S
O101 C82 1.243 . S
O102 La80 2.554 . S
O102 C89 1.240 . S
O103 La80 2.757 . S
O103 La81 2.482 . S
O103 C89 1.289 . S
O104 La80 2.470 . S
O104 C90 1.258 . S
O105 La81 2.503 . S
O105 C90 1.256 . S
O106 La81 2.521 . S
O106 C91 1.261 . S
O107 La81 2.628 . S
O107 C91 1.243 . S
O108 La81 2.554 . S
O108 C98 1.240 . S
O109 La80 2.482 . S
O109 La81 2.757 . S
O109 C98 1.289 . S
O110 La81 2.470 . S
O110 C99 1.258 . S
O111 La80 2.503 . S
O111 C99 1.256 . S
H112 C84 0.930 . S
H113 C85 0.930 . S
H114 C87 0.929 . S
H115 C88 0.929 . S
H116 C93 0.930 . S
H117 C94 0.930 . S
H118 C96 0.929 . S
H119 C97 0.929 . S
H120 C125 0.929 . S
H121 C130 0.931 . S
H122 C128 0.930 . S
N123 N124 1.234 . S
N123 C127 1.453 . S
N124 N123 1.234 . S
C125 H120 0.929 . S
C125 C126 1.373 1_545 S
C125 C127 1.368 . S
C126 C125 1.373 1_565 S
C126 C130 1.397 . S
C127 N123 1.453 . S
C127 C125 1.368 . S
C127 C128 1.373 . S
C128 H122 0.930 . S
C128 C127 1.373 . S
C128 C129 1.371 . S
C129 C128 1.371 . S
C129 C130 1.383 1_545 S
C130 H121 0.931 . S
C130 C126 1.397 . S
C130 C129 1.383 1_565 S
H131 C136 0.929 . S
H132 C141 0.931 . S
H133 C139 0.930 . S
N134 N135 1.234 . S
N134 C138 1.453 . S
N135 N134 1.234 . S
C136 H131 0.929 . S
C136 C137 1.373 . S
C136 C138 1.368 . S
C137 C136 1.373 . S
C137 C141 1.397 . S
C138 N134 1.453 . S
C138 C136 1.368 . S
C138 C139 1.373 . S
C139 H133 0.930 . S
C139 C138 1.373 . S
C139 C140 1.371 . S
C140 C139 1.371 . S
C140 C141 1.383 . S
C141 H132 0.931 . S
C141 C137 1.397 . S
C141 C140 1.383 . S
H142 C147 0.929 . S
H143 C152 0.931 1_655 S
H144 C150 0.930 . S
N145 N146 1.234 . S
N145 C149 1.453 . S
N146 N145 1.234 . S
C147 H142 0.929 . S
C147 C148 1.373 1_455 S
C147 C149 1.368 . S
C148 C147 1.373 1_655 S
C148 C152 1.397 1_655 S
C149 N145 1.453 . S
C149 C147 1.368 . S
C149 C150 1.373 . S
C150 H144 0.930 . S
C150 C149 1.373 . S
C150 C151 1.371 . S
C151 C150 1.371 . S
C151 C152 1.383 . S
C152 H143 0.931 1_455 S
C152 C148 1.397 1_455 S
C152 C151 1.383 . S
H153 C158 0.929 . S
H154 C163 0.931 . S
H155 C161 0.930 . S
N156 N157 1.234 . S
N156 C160 1.453 . S
N157 N156 1.234 . S
C158 H153 0.929 . S
C158 C159 1.373 . S
C158 C160 1.368 1_455 S
C159 C158 1.373 . S
C159 C163 1.397 . S
C160 N156 1.453 . S
C160 C158 1.368 1_655 S
C160 C161 1.373 . S
C161 H155 0.930 . S
C161 C160 1.373 . S
C161 C162 1.371 1_655 S
C162 C161 1.371 1_455 S
C162 C163 1.383 . S
C163 H154 0.931 . S
C163 C159 1.397 . S
C163 C162 1.383 . S
H164 C169 0.929 . S
H165 C174 0.931 . S
H166 C172 0.930 1_565 S
N167 N168 1.234 . S
N167 C171 1.453 1_565 S
N168 N167 1.234 . S
C169 H164 0.929 . S
C169 C170 1.373 . S
C169 C171 1.368 . S
C170 C169 1.373 . S
C170 C174 1.397 . S
C171 N167 1.453 1_545 S
C171 C169 1.368 . S
C171 C172 1.373 . S
C172 H166 0.930 1_545 S
C172 C171 1.373 . S
C172 C173 1.371 . S
C173 C172 1.371 . S
C173 C174 1.383 . S
C174 H165 0.931 . S
C174 C170 1.397 . S
C174 C173 1.383 . S
H175 C180 0.929 . S
H176 C185 0.931 . S
H177 C183 0.930 . S
N178 N179 1.234 . S
N178 C182 1.453 . S
N179 N178 1.234 . S
C180 H175 0.929 . S
C180 C181 1.373 . S
C180 C182 1.368 . S
C181 C180 1.373 . S
C181 C185 1.397 . S
C182 N178 1.453 . S
C182 C180 1.368 . S
C182 C183 1.373 . S
C183 H177 0.930 . S
C183 C182 1.373 . S
C183 C184 1.371 . S
C184 C183 1.371 . S
C184 C185 1.383 . S
C185 H176 0.931 . S
C185 C181 1.397 . S
C185 C184 1.383 . S
C186 C187 1.170 . S
C186 C188 1.380 . S
C187 C186 1.170 . S
C188 C186 1.380 . S
C188 C189 1.170 . S
C189 C188 1.170 . S
C190 C191 1.170 . S
C190 C192 1.380 . S
C191 C190 1.170 . S
C192 C190 1.380 . S
C192 C193 1.170 . S
C193 C192 1.170 . S
C194 C195 1.170 . S
C194 C196 1.380 . S
C195 C194 1.170 . S
C196 C194 1.380 . S
C196 C197 1.170 . S
C197 C196 1.170 . S
C198 C199 1.170 . S
C198 C200 1.380 . S
C199 C198 1.170 . S
C200 C198 1.380 . S
C200 C201 1.170 . S
C201 C200 1.170 . S
C202 C203 1.170 . S
C202 C204 1.380 . S
C203 C202 1.170 . S
C204 C202 1.380 . S
C204 C205 1.170 . S
C205 C204 1.170 . S
C206 C207 1.170 . S
C206 C208 1.380 . S
C207 C206 1.170 . S
C208 C206 1.380 . S
C208 C209 1.170 . S
C209 C208 1.170 . S
C210 C211 1.170 . S
C210 C212 1.380 . S
C211 C210 1.170 . S
C212 C210 1.380 . S
C212 C213 1.170 . S
C213 C212 1.170 . S
C214 C215 1.170 . S
C214 C216 1.380 . S
C215 C214 1.170 . S
C216 C214 1.380 . S
C216 C217 1.170 . S
C217 C216 1.170 . S
C218 C219 1.170 . S
C218 C220 1.380 . S
C219 C218 1.170 . S
C220 C218 1.380 . S
C220 C221 1.170 . S
C221 C220 1.170 . S
C222 C223 1.170 . S
C222 C224 1.380 . S
C223 C222 1.170 . S
C224 C222 1.380 . S
C224 C225 1.170 . S
C225 C224 1.170 . S
C226 C227 1.170 . S
C226 C228 1.380 . S
C227 C226 1.170 . S
C228 C226 1.380 . S
C228 C229 1.170 . S
C229 C228 1.170 . S
C230 C231 1.170 . S
C230 C232 1.380 . S
C231 C230 1.170 . S
C232 C230 1.380 . S
C232 C233 1.170 . S
C233 C232 1.170 . S
C234 C235 1.170 . S
C234 C236 1.380 1_554 S
C235 C234 1.170 . S
C236 C234 1.380 1_556 S
C236 C237 1.170 . S
C237 C236 1.170 . S
C238 C239 1.170 . S
C238 C240 1.380 . S
C239 C238 1.170 . S
C240 C238 1.380 . S
C240 C241 1.170 . S
C241 C240 1.170 . S
C242 C243 1.170 . S
C242 C244 1.380 . S
C243 C242 1.170 . S
C244 C242 1.380 . S
C244 C245 1.170 . S
C245 C244 1.170 . S
C246 C247 1.170 . S
C246 C248 1.380 . S
C247 C246 1.170 . S
C248 C246 1.380 . S
C248 C249 1.170 . S
C249 C248 1.170 . S
C250 C251 1.170 . S
C250 C252 1.380 . S
C251 C250 1.170 . S
C252 C250 1.380 . S
C252 C253 1.170 1_556 S
C253 C252 1.170 1_554 S
C254 C255 1.170 . S
C254 C256 1.380 . S
C255 C254 1.170 . S
C256 C254 1.380 . S
C256 C257 1.170 . S
C257 C256 1.170 . S
C187 C6 1.038 . S
C189 N179 1.024 . S
C191 C59 1.950 . S
C193 N157 1.889 . S
C195 C86 1.354 . S
C197 N168 1.403 . S
C199 C15 0.519 . S
C201 C181 0.512 . S
C205 C159 1.878 . S
C203 C50 1.891 . S
C209 C170 1.249 . S
C207 C95 1.242 . S
C211 C46 1.345 . S
C213 N135 1.366 . S
C215 C99 3.090 . S
C217 C148 3.056 . S
C219 C10 1.930 . S
C221 C126 1.919 . S
C225 C137 1.241 . S
C223 C55 1.203 . S
C229 N146 3.041 . S
C227 C90 3.092 . S
C231 C19 1.968 . S
C233 N124 1.910 . S
C237 C151 1.754 . S
C235 C18 1.720 . S
C239 C49 1.399 . S
C241 C129 1.450 . S
C243 C98 1.508 . S
C245 C140 1.540 . S
C249 C173 1.498 . S
C247 C58 1.483 . S
C253 C184 1.197 . S
C251 C89 1.175 . S
C255 C9 1.361 . S
C257 C162 1.404 . S
