# Generated by pormake.
# Topology ctn, (3,4)-cn, num edge types: 1
# Building blocks:
#     Node 0, Type 0, BuildingBlock: ESEHIV_clean_linker_0, # of connection points: 3
#     Node 1, Type 0, BuildingBlock: ESEHIV_clean_linker_0, # of connection points: 3
#     Node 2, Type 0, BuildingBlock: ESEHIV_clean_linker_0, # of connection points: 3
#     Node 3, Type 0, BuildingBlock: ESEHIV_clean_linker_0, # of connection points: 3
#     Node 4, Type 0, BuildingBlock: ESEHIV_clean_linker_0, # of connection points: 3
#     Node 5, Type 0, BuildingBlock: ESEHIV_clean_linker_0, # of connection points: 3
#     Node 6, Type 0, BuildingBlock: ESEHIV_clean_linker_0, # of connection points: 3
#     Node 7, Type 0, BuildingBlock: ESEHIV_clean_linker_0, # of connection points: 3
#     Node 8, Type 0, BuildingBlock: ESEHIV_clean_linker_0, # of connection points: 3
#     Node 9, Type 0, BuildingBlock: ESEHIV_clean_linker_0, # of connection points: 3
#     Node 10, Type 0, BuildingBlock: ESEHIV_clean_linker_0, # of connection points: 3
#     Node 11, Type 0, BuildingBlock: ESEHIV_clean_linker_0, # of connection points: 3
#     Node 12, Type 0, BuildingBlock: ESEHIV_clean_linker_0, # of connection points: 3
#     Node 13, Type 0, BuildingBlock: ESEHIV_clean_linker_0, # of connection points: 3
#     Node 14, Type 0, BuildingBlock: ESEHIV_clean_linker_0, # of connection points: 3
#     Node 15, Type 0, BuildingBlock: ESEHIV_clean_linker_0, # of connection points: 3
#     Node 16, Type 1, BuildingBlock: UXUYUI_clean_sbu_0, # of connection points: 4
#     Node 17, Type 1, BuildingBlock: UXUYUI_clean_sbu_0, # of connection points: 4
#     Node 18, Type 1, BuildingBlock: UXUYUI_clean_sbu_0, # of connection points: 4
#     Node 19, Type 1, BuildingBlock: UXUYUI_clean_sbu_0, # of connection points: 4
#     Node 20, Type 1, BuildingBlock: UXUYUI_clean_sbu_0, # of connection points: 4
#     Node 21, Type 1, BuildingBlock: UXUYUI_clean_sbu_0, # of connection points: 4
#     Node 22, Type 1, BuildingBlock: UXUYUI_clean_sbu_0, # of connection points: 4
#     Node 23, Type 1, BuildingBlock: UXUYUI_clean_sbu_0, # of connection points: 4
#     Node 24, Type 1, BuildingBlock: UXUYUI_clean_sbu_0, # of connection points: 4
#     Node 25, Type 1, BuildingBlock: UXUYUI_clean_sbu_0, # of connection points: 4
#     Node 26, Type 1, BuildingBlock: UXUYUI_clean_sbu_0, # of connection points: 4
#     Node 27, Type 1, BuildingBlock: UXUYUI_clean_sbu_0, # of connection points: 4
#     Edge 28, Type (0, 1), BuildingBlock: XUDNAN_clean_linker_2, # of connection points: 2
#     Edge 29, Type (0, 1), BuildingBlock: XUDNAN_clean_linker_2, # of connection points: 2
#     Edge 30, Type (0, 1), BuildingBlock: XUDNAN_clean_linker_2, # of connection points: 2
#     Edge 31, Type (0, 1), BuildingBlock: XUDNAN_clean_linker_2, # of connection points: 2
#     Edge 32, Type (0, 1), BuildingBlock: XUDNAN_clean_linker_2, # of connection points: 2
#     Edge 33, Type (0, 1), BuildingBlock: XUDNAN_clean_linker_2, # of connection points: 2
#     Edge 34, Type (0, 1), BuildingBlock: XUDNAN_clean_linker_2, # of connection points: 2
#     Edge 35, Type (0, 1), BuildingBlock: XUDNAN_clean_linker_2, # of connection points: 2
#     Edge 36, Type (0, 1), BuildingBlock: XUDNAN_clean_linker_2, # of connection points: 2
#     Edge 37, Type (0, 1), BuildingBlock: XUDNAN_clean_linker_2, # of connection points: 2
#     Edge 38, Type (0, 1), BuildingBlock: XUDNAN_clean_linker_2, # of connection points: 2
#     Edge 39, Type (0, 1), BuildingBlock: XUDNAN_clean_linker_2, # of connection points: 2
#     Edge 40, Type (0, 1), BuildingBlock: XUDNAN_clean_linker_2, # of connection points: 2
#     Edge 41, Type (0, 1), BuildingBlock: XUDNAN_clean_linker_2, # of connection points: 2
#     Edge 42, Type (0, 1), BuildingBlock: XUDNAN_clean_linker_2, # of connection points: 2
#     Edge 43, Type (0, 1), BuildingBlock: XUDNAN_clean_linker_2, # of connection points: 2
#     Edge 44, Type (0, 1), BuildingBlock: XUDNAN_clean_linker_2, # of connection points: 2
#     Edge 45, Type (0, 1), BuildingBlock: XUDNAN_clean_linker_2, # of connection points: 2
#     Edge 46, Type (0, 1), BuildingBlock: XUDNAN_clean_linker_2, # of connection points: 2
#     Edge 47, Type (0, 1), BuildingBlock: XUDNAN_clean_linker_2, # of connection points: 2
#     Edge 48, Type (0, 1), BuildingBlock: XUDNAN_clean_linker_2, # of connection points: 2
#     Edge 49, Type (0, 1), BuildingBlock: XUDNAN_clean_linker_2, # of connection points: 2
#     Edge 50, Type (0, 1), BuildingBlock: XUDNAN_clean_linker_2, # of connection points: 2
#     Edge 51, Type (0, 1), BuildingBlock: XUDNAN_clean_linker_2, # of connection points: 2
#     Edge 52, Type (0, 1), BuildingBlock: XUDNAN_clean_linker_2, # of connection points: 2
#     Edge 53, Type (0, 1), BuildingBlock: XUDNAN_clean_linker_2, # of connection points: 2
#     Edge 54, Type (0, 1), BuildingBlock: XUDNAN_clean_linker_2, # of connection points: 2
#     Edge 55, Type (0, 1), BuildingBlock: XUDNAN_clean_linker_2, # of connection points: 2
#     Edge 56, Type (0, 1), BuildingBlock: XUDNAN_clean_linker_2, # of connection points: 2
#     Edge 57, Type (0, 1), BuildingBlock: XUDNAN_clean_linker_2, # of connection points: 2
#     Edge 58, Type (0, 1), BuildingBlock: XUDNAN_clean_linker_2, # of connection points: 2
#     Edge 59, Type (0, 1), BuildingBlock: XUDNAN_clean_linker_2, # of connection points: 2
#     Edge 60, Type (0, 1), BuildingBlock: XUDNAN_clean_linker_2, # of connection points: 2
#     Edge 61, Type (0, 1), BuildingBlock: XUDNAN_clean_linker_2, # of connection points: 2
#     Edge 62, Type (0, 1), BuildingBlock: XUDNAN_clean_linker_2, # of connection points: 2
#     Edge 63, Type (0, 1), BuildingBlock: XUDNAN_clean_linker_2, # of connection points: 2
#     Edge 64, Type (0, 1), BuildingBlock: XUDNAN_clean_linker_2, # of connection points: 2
#     Edge 65, Type (0, 1), BuildingBlock: XUDNAN_clean_linker_2, # of connection points: 2
#     Edge 66, Type (0, 1), BuildingBlock: XUDNAN_clean_linker_2, # of connection points: 2
#     Edge 67, Type (0, 1), BuildingBlock: XUDNAN_clean_linker_2, # of connection points: 2
#     Edge 68, Type (0, 1), BuildingBlock: XUDNAN_clean_linker_2, # of connection points: 2
#     Edge 69, Type (0, 1), BuildingBlock: XUDNAN_clean_linker_2, # of connection points: 2
#     Edge 70, Type (0, 1), BuildingBlock: XUDNAN_clean_linker_2, # of connection points: 2
#     Edge 71, Type (0, 1), BuildingBlock: XUDNAN_clean_linker_2, # of connection points: 2
#     Edge 72, Type (0, 1), BuildingBlock: XUDNAN_clean_linker_2, # of connection points: 2
#     Edge 73, Type (0, 1), BuildingBlock: XUDNAN_clean_linker_2, # of connection points: 2
#     Edge 74, Type (0, 1), BuildingBlock: XUDNAN_clean_linker_2, # of connection points: 2
#     Edge 75, Type (0, 1), BuildingBlock: XUDNAN_clean_linker_2, # of connection points: 2
# Relax obj value: 0.000
# Max RMSD: 0.006
# Mean RMSD: 0.004
data_MOF--net-ctn--node1-UXUYUI_clean_sbu_0--node2-ESEHIV_clean_linker_0--edge1-XUDNAN_clean_linker_2
_symmetry_space_group_name_H-M    P1
_symmetry_Int_Tables_number       1
_symmetry_cell_setting            triclinic
loop_
_symmetry_equiv_pos_as_xyz
'x, y, z'
_cell_length_a     64.348346
_cell_length_b     64.662128
_cell_length_c     64.560619
_cell_angle_alpha  90.032252
_cell_angle_beta   89.990812
_cell_angle_gamma 90.018068
loop_
_atom_site_label
_atom_site_type_symbol
_atom_site_fract_x
_atom_site_fract_y
_atom_site_fract_z
_atom_type_partial_charge
H0 H 0.02396 0.07766 0.0403 0.0
H1 H 0.0566 0.02779 0.07074 0.0
H2 H 0.08284 0.05692 0.01709 0.0
C3 C 0.03697 0.06708 0.04121 0.0
C4 C 0.05325 0.06911 0.02687 0.0
C5 C 0.03796 0.05238 0.05739 0.0
C6 C 0.0551 0.03876 0.05815 0.0
C7 C 0.07124 0.04037 0.04356 0.0
C8 C 0.07015 0.05548 0.02805 0.0
H9 H 0.30244 0.68153 0.24091 0.0
H10 H 0.31487 0.74383 0.22035 0.0
H11 H 0.26558 0.70867 0.19261 0.0
C12 C 0.29888 0.69459 0.23102 0.0
C13 C 0.28267 0.69283 0.21657 0.0
C14 C 0.31062 0.71294 0.23271 0.0
C15 C 0.30631 0.72945 0.21911 0.0
C16 C 0.29005 0.72789 0.20466 0.0
C17 C 0.27835 0.70963 0.20353 0.0
H18 H 0.96645 0.48303 0.07783 0.0
H19 H 0.99557 0.42793 0.05453 0.0
H20 H 0.94284 0.45345 0.02278 0.0
C21 C 0.96768 0.47111 0.06608 0.0
C22 C 0.95316 0.47051 0.04974 0.0
C23 C 0.98299 0.45575 0.06802 0.0
C24 C 0.98393 0.43997 0.05312 0.0
C25 C 0.96957 0.43902 0.0368 0.0
C26 C 0.95446 0.45458 0.03488 0.0
H27 H 0.69606 0.76996 0.21175 0.0
H28 H 0.75598 0.79283 0.19315 0.0
H29 H 0.72132 0.82423 0.24077 0.0
C30 C 0.70859 0.78104 0.21337 0.0
C31 C 0.70656 0.79734 0.22762 0.0
C32 C 0.72634 0.77931 0.20077 0.0
C33 C 0.74223 0.79413 0.20273 0.0
C34 C 0.74066 0.81044 0.21712 0.0
C35 C 0.72262 0.812 0.22936 0.0
H36 H 0.01871 0.9406 0.44887 0.0
H37 H 0.05333 0.99739 0.44646 0.0
H38 H 0.06359 0.95454 0.49631 0.0
C39 C 0.03019 0.9509 0.45551 0.0
C40 C 0.0403 0.94539 0.47407 0.0
C41 C 0.03507 0.96946 0.44525 0.0
C42 C 0.04994 0.9828 0.45399 0.0
C43 C 0.06014 0.97771 0.47256 0.0
C44 C 0.05523 0.95894 0.48242 0.0
H45 H 0.20327 0.75983 0.80007 0.0
H46 H 0.25559 0.72071 0.81272 0.0
H47 H 0.21409 0.70624 0.76221 0.0
C48 C 0.21225 0.74611 0.79646 0.0
C49 C 0.20646 0.73358 0.77966 0.0
C50 C 0.22981 0.74152 0.80846 0.0
C51 C 0.24158 0.72377 0.80394 0.0
C52 C 0.23615 0.71096 0.78709 0.0
C53 C 0.21831 0.71585 0.77531 0.0
H54 H 0.95324 0.54953 0.50433 0.0
H55 H 1.00492 0.55805 0.46294 0.0
H56 H 0.96307 0.507 0.45402 0.0
C57 C 0.96197 0.54479 0.49079 0.0
C58 C 0.95577 0.52705 0.47974 0.0
C59 C 0.97974 0.55604 0.48496 0.0
C60 C 0.9911 0.54961 0.46748 0.0
C61 C 0.98524 0.53192 0.45624 0.0
C62 C 0.96747 0.52083 0.46242 0.0
H63 H 0.781 0.80927 0.83112 0.0
H64 H 0.80023 0.82113 0.76847 0.0
H65 H 0.82376 0.76794 0.80124 0.0
C66 C 0.79004 0.80507 0.81758 0.0
C67 C 0.80254 0.78732 0.81826 0.0
C68 C 0.78888 0.81725 0.79962 0.0
C69 C 0.8005 0.81141 0.78213 0.0
C70 C 0.81329 0.79371 0.78254 0.0
C71 C 0.81402 0.7816 0.80067 0.0
H72 H 0.27782 0.29462 0.33156 0.0
H73 H 0.30104 0.30991 0.27075 0.0
H74 H 0.32134 0.2544 0.30133 0.0
C75 C 0.28742 0.29102 0.31824 0.0
C76 C 0.2996 0.27303 0.31848 0.0
C77 C 0.28789 0.30459 0.30116 0.0
C78 C 0.30044 0.2996 0.28396 0.0
C79 C 0.31235 0.28136 0.28382 0.0
C80 C 0.31191 0.26829 0.30119 0.0
H81 H 0.45719 0.98245 0.57934 0.0
H82 H 0.49275 0.93686 0.54621 0.0
H83 H 0.43758 0.96248 0.51879 0.0
C84 C 0.45961 0.97305 0.56564 0.0
C85 C 0.44535 0.97419 0.54916 0.0
C86 C 0.47675 0.95961 0.56476 0.0
C87 C 0.47948 0.94715 0.54714 0.0
C88 C 0.46555 0.94821 0.53043 0.0
C89 C 0.44864 0.96195 0.53144 0.0
H90 H 0.19654 0.28245 0.70494 0.0
H91 H 0.25752 0.309 0.69715 0.0
H92 H 0.21966 0.32686 0.74892 0.0
C93 C 0.20893 0.29239 0.71044 0.0
C94 C 0.20589 0.30447 0.72832 0.0
C95 C 0.22746 0.29417 0.69892 0.0
C96 C 0.24315 0.3077 0.70582 0.0
C97 C 0.24059 0.31929 0.72403 0.0
C98 C 0.22192 0.31758 0.73511 0.0
H99 H 0.8098 0.18126 0.73136 0.0
H100 H 0.81728 0.24263 0.70682 0.0
H101 H 0.76264 0.20688 0.69202 0.0
C102 C 0.80406 0.19394 0.72198 0.0
C103 C 0.78482 0.19197 0.71197 0.0
C104 C 0.81587 0.21212 0.72026 0.0
C105 C 0.80815 0.22862 0.70836 0.0
C106 C 0.78887 0.22693 0.69814 0.0
C107 C 0.77722 0.20859 0.70024 0.0
H108 H 0.52061 0.57888 0.54306 0.0
H109 H 0.55274 0.52931 0.57387 0.0
H110 H 0.57417 0.55118 0.5146 0.0
C111 C 0.53315 0.56769 0.54354 0.0
C112 C 0.54707 0.56651 0.52681 0.0
C113 C 0.53494 0.55422 0.56055 0.0
C114 C 0.5511 0.53958 0.56071 0.0
C115 C 0.56542 0.53833 0.54425 0.0
C116 C 0.56307 0.55171 0.52722 0.0
H117 H 0.52076 0.44937 0.96344 0.0
H118 H 0.56123 0.49994 0.94706 0.0
H119 H 0.56463 0.47314 0.00776 0.0
C120 C 0.5331 0.46007 0.96742 0.0
C121 C 0.54181 0.45957 0.9874 0.0
C122 C 0.5401 0.47455 0.95267 0.0
C123 C 0.55612 0.48838 0.95809 0.0
C124 C 0.56487 0.48812 0.97799 0.0
C125 C 0.55767 0.47363 0.99248 0.0
H126 H 0.69815 0.24996 0.30388 0.0
H127 H 0.74964 0.20862 0.31292 0.0
H128 H 0.71393 0.20571 0.25664 0.0
C129 C 0.70807 0.23768 0.29817 0.0
C130 C 0.70411 0.22888 0.27862 0.0
C131 C 0.72436 0.23042 0.31071 0.0
C132 C 0.73673 0.21396 0.30356 0.0
C133 C 0.73315 0.20497 0.28403 0.0
C134 C 0.71675 0.21251 0.27172 0.0
H135 H 0.45388 0.05315 1.00514 0.0
H136 H 0.50266 0.06309 0.96058 0.0
H137 H 0.46157 0.01109 0.95412 0.0
C138 C 0.46187 0.04874 0.99104 0.0
C139 C 0.45542 0.03095 0.98025 0.0
C140 C 0.47891 0.0605 0.9841 0.0
C141 C 0.48938 0.05431 0.96597 0.0
C142 C 0.48335 0.03642 0.95514 0.0
C143 C 0.46619 0.025 0.96227 0.0
Li144 Li 0.27971 0.89306 0.01018 0.0
Li145 Li 0.26174 0.86651 0.03079 0.0
Li146 Li 0.25587 0.86878 0.99215 0.0
Li147 Li 0.24071 0.89437 0.0166 0.0
C148 C 0.30123 0.85707 1.00069 0.0
N149 N 0.34027 0.84646 0.98633 0.0
C150 C 0.31587 0.84847 0.01415 0.0
C151 C 0.30635 0.85996 0.97986 0.0
C152 C 0.33555 0.8433 0.00663 0.0
C153 C 0.32618 0.85457 0.97291 0.0
C154 C 0.26758 0.89731 0.05748 0.0
C155 C 0.25528 0.89318 0.09253 0.0
N156 N 0.27462 0.89774 0.09971 0.0
C157 C 0.28728 0.90215 0.0652 0.0
C158 C 0.25139 0.89298 0.07125 0.0
C159 C 0.29054 0.90223 0.0866 0.0
C160 C 0.30318 0.92796 0.99739 0.0
N161 N 0.3043 0.90969 0.00776 0.0
C162 C 0.33972 0.91641 0.01687 0.0
C163 C 0.32213 0.90374 0.01738 0.0
C164 C 0.33899 0.93539 0.00632 0.0
C165 C 0.32047 0.94102 0.99629 0.0
H166 H 0.2887 0.93265 0.99034 0.0
H167 H 0.32253 0.88941 0.02597 0.0
C168 C 0.24832 0.83611 0.05927 0.0
N169 N 0.26467 0.84835 0.05408 0.0
C170 C 0.24905 0.82397 0.07713 0.0
C171 C 0.28372 0.8367 0.08372 0.0
C172 C 0.28232 0.84861 0.06569 0.0
C173 C 0.2668 0.82438 0.08983 0.0
H174 H 0.23456 0.83599 0.04968 0.0
H175 H 0.29511 0.8585 0.06127 0.0
C176 C 0.2555 0.90717 0.97091 0.0
N177 N 0.25309 0.92226 0.93093 0.0
C178 C 0.23704 0.91598 0.9637 0.0
C179 C 0.27284 0.90635 0.95789 0.0
C180 C 0.2361 0.92344 0.94341 0.0
C181 C 0.27128 0.91397 0.9377 0.0
C182 C 0.21397 0.86283 0.01549 0.0
C183 C 0.20268 0.85899 0.9974 0.0
C184 C 0.20344 0.86557 0.03423 0.0
C185 C 0.181 0.85822 0.99831 0.0
C186 C 0.18174 0.86473 0.0345 0.0
N187 N 0.17107 0.86112 0.01668 0.0
C188 C 0.26197 0.83445 0.96524 0.0
C189 C 0.24057 0.86069 0.95117 0.0
C190 C 0.26087 0.82314 0.94675 0.0
N191 N 0.25223 0.85306 0.96698 0.0
C192 C 0.23914 0.84999 0.93243 0.0
C193 C 0.24964 0.8311 0.92989 0.0
H194 H 0.27094 0.82854 0.9781 0.0
H195 H 0.23234 0.87509 0.95305 0.0
C196 C 0.22152 0.92699 0.03786 0.0
N197 N 0.21818 0.91326 0.02226 0.0
C198 C 0.20663 0.94188 0.04274 0.0
C199 C 0.18485 0.92842 0.01544 0.0
C200 C 0.20021 0.91366 0.01111 0.0
C201 C 0.18809 0.943 0.03129 0.0
H202 H 0.23596 0.92666 0.04635 0.0
H203 H 0.19794 0.90283 0.99857 0.0
O204 O 0.28191 0.86233 0.00784 0.0
O205 O 0.26417 0.89678 0.03655 0.0
O206 O 0.25663 0.8997 0.99071 0.0
O207 O 0.23521 0.86373 0.01487 0.0
H208 H 0.31212 0.8459 0.03027 0.0
H209 H 0.29507 0.86609 0.96911 0.0
H210 H 0.34708 0.83677 0.01691 0.0
H211 H 0.33034 0.85678 0.95683 0.0
H212 H 0.24293 0.88969 0.10335 0.0
H213 H 0.29994 0.90573 0.05481 0.0
H214 H 0.23603 0.88938 0.06555 0.0
H215 H 0.30574 0.90584 0.09278 0.0
H216 H 0.35371 0.91146 0.02477 0.0
H217 H 0.31915 0.95566 0.98827 0.0
H218 H 0.23579 0.81439 0.08098 0.0
H219 H 0.29765 0.83763 0.09309 0.0
H220 H 0.22353 0.91692 0.97359 0.0
H221 H 0.28741 0.90013 0.96335 0.0
H222 H 0.22186 0.93015 0.93759 0.0
H223 H 0.28457 0.91337 0.92745 0.0
H224 H 0.21055 0.85667 0.9828 0.0
H225 H 0.2119 0.86838 0.04841 0.0
H226 H 0.17208 0.85535 0.98441 0.0
H227 H 0.1734 0.86695 0.04888 0.0
H228 H 0.26922 0.80866 0.94548 0.0
H229 H 0.22989 0.85648 0.92001 0.0
H230 H 0.20974 0.95257 0.05528 0.0
H231 H 0.17094 0.92883 1.00602 0.0
Li232 Li 0.12304 0.50145 0.2803 0.0
Li233 Li 0.14964 0.47884 0.26473 0.0
Li234 Li 0.14782 0.51686 0.25537 0.0
Li235 Li 0.12194 0.49209 0.24207 0.0
C236 C 0.15868 0.51247 0.30132 0.0
N237 N 0.16815 0.53034 0.33906 0.0
C238 C 0.16676 0.50042 0.31738 0.0
C239 C 0.15575 0.53367 0.30435 0.0
C240 C 0.17134 0.50972 0.33638 0.0
C241 C 0.16055 0.5424 0.32356 0.0
C242 C 0.11681 0.4532 0.27041 0.0
C243 C 0.11669 0.41799 0.25803 0.0
N244 N 0.1126 0.41126 0.27757 0.0
C245 C 0.11234 0.44595 0.29031 0.0
C246 C 0.11878 0.43912 0.25409 0.0
C247 C 0.11037 0.42469 0.29364 0.0
C248 C 0.08867 0.51678 0.30374 0.0
N249 N 0.10649 0.50549 0.30466 0.0
C250 C 0.09952 0.49643 0.3399 0.0
C251 C 0.11214 0.49554 0.32232 0.0
C252 C 0.08085 0.50767 0.33934 0.0
C253 C 0.07564 0.51824 0.32105 0.0
H254 H 0.08424 0.52417 0.28939 0.0
H255 H 0.12612 0.4863 0.32256 0.0
C256 C 0.18267 0.45002 0.25714 0.0
N257 N 0.16784 0.45616 0.27085 0.0
C258 C 0.19641 0.43401 0.26223 0.0
C259 C 0.17939 0.43101 0.29544 0.0
C260 C 0.16599 0.44698 0.2897 0.0
C261 C 0.19501 0.42442 0.28172 0.0
H262 H 0.18414 0.4578 0.24241 0.0
H263 H 0.15427 0.4523 0.30044 0.0
C264 C 0.11046 0.53903 0.25219 0.0
N265 N 0.09752 0.57911 0.24478 0.0
C266 C 0.10303 0.54464 0.23264 0.0
C267 C 0.11092 0.55371 0.26808 0.0
C268 C 0.09667 0.565 0.22917 0.0
C269 C 0.10442 0.57392 0.264 0.0
C270 C 0.15592 0.48739 0.21682 0.0
C271 C 0.16114 0.50279 0.20255 0.0
C272 C 0.15427 0.46688 0.21019 0.0
C273 C 0.16418 0.49747 0.18179 0.0
C274 C 0.1574 0.46217 0.1893 0.0
N275 N 0.16222 0.47744 0.17564 0.0
C276 C 0.18244 0.54392 0.25868 0.0
C277 C 0.15829 0.55319 0.23263 0.0
C278 C 0.19541 0.56037 0.25313 0.0
N279 N 0.16425 0.54066 0.24845 0.0
C280 C 0.17081 0.56973 0.2265 0.0
C281 C 0.18975 0.57341 0.23667 0.0
H282 H 0.18711 0.53347 0.27089 0.0
H283 H 0.14414 0.54998 0.22427 0.0
C284 C 0.0877 0.4724 0.22343 0.0
N285 N 0.10361 0.48566 0.21949 0.0
C286 C 0.07399 0.46667 0.20769 0.0
C287 C 0.0927 0.48895 0.18417 0.0
C288 C 0.10611 0.49421 0.2004 0.0
C289 C 0.0765 0.4748 0.18766 0.0
H290 H 0.08565 0.46624 0.23885 0.0
H291 H 0.11848 0.50517 0.19772 0.0
O292 O 0.15393 0.5036 0.28265 0.0
O293 O 0.11904 0.47396 0.26688 0.0
O294 O 0.11676 0.51915 0.25584 0.0
O295 O 0.15276 0.49235 0.2372 0.0
H296 H 0.16936 0.48405 0.31525 0.0
H297 H 0.15005 0.54331 0.29195 0.0
H298 H 0.17746 0.50054 0.34898 0.0
H299 H 0.1583 0.55878 0.32612 0.0
H300 H 0.11826 0.40693 0.24555 0.0
H301 H 0.11053 0.45658 0.30308 0.0
H302 H 0.12171 0.44446 0.23853 0.0
H303 H 0.10707 0.41887 0.30899 0.0
H304 H 0.1042 0.48815 0.35371 0.0
H305 H 0.06126 0.52686 0.31988 0.0
H306 H 0.20837 0.42963 0.25128 0.0
H307 H 0.17757 0.42394 0.31054 0.0
H308 H 0.10235 0.53345 0.22023 0.0
H309 H 0.116 0.54953 0.28346 0.0
H310 H 0.09106 0.56959 0.21406 0.0
H311 H 0.10476 0.58544 0.27615 0.0
H312 H 0.16273 0.51869 0.2074 0.0
H313 H 0.15075 0.45469 0.22106 0.0
H314 H 0.16808 0.50927 0.17057 0.0
H315 H 0.15607 0.44637 0.18396 0.0
H316 H 0.21002 0.56244 0.2612 0.0
H317 H 0.16576 0.57945 0.2138 0.0
H318 H 0.06145 0.45607 0.21122 0.0
H319 H 0.09524 0.49559 0.16898 0.0
Li320 Li 0.74663 0.61915 1.00259 0.0
Li321 Li 0.76481 0.64295 0.02562 0.0
Li322 Li 0.77192 0.64366 0.98834 0.0
Li323 Li 0.78447 0.6147 0.0097 0.0
C324 C 0.73053 0.65693 0.98934 0.0
N325 N 0.70067 0.67089 0.96198 0.0
C326 C 0.7165 0.67226 0.99542 0.0
C327 C 0.72939 0.64871 0.96935 0.0
C328 C 0.7015 0.67911 0.98136 0.0
C329 C 0.7142 0.65597 0.95574 0.0
C330 C 0.74584 0.60864 0.04416 0.0
C331 C 0.73212 0.58722 0.07152 0.0
N332 N 0.71582 0.60043 0.07366 0.0
C333 C 0.72897 0.62203 0.04669 0.0
C334 C 0.74747 0.59112 0.05672 0.0
C335 C 0.71395 0.61761 0.06166 0.0
C336 C 0.72181 0.58442 0.99189 0.0
N337 N 0.72112 0.60444 0.99833 0.0
C338 C 0.68421 0.60259 1.0022 0.0
C339 C 0.70278 0.61369 1.00319 0.0
C340 C 0.68445 0.58174 0.99609 0.0
C341 C 0.70353 0.57275 0.99051 0.0
H342 H 0.73663 0.57736 0.98833 0.0
H343 H 0.70257 0.62955 0.00845 0.0
C344 C 0.75381 0.6789 0.0485 0.0
N345 N 0.76169 0.65946 0.05014 0.0
C346 C 0.74959 0.69055 0.06629 0.0
C347 C 0.76215 0.66214 0.08709 0.0
C348 C 0.7661 0.65106 0.06894 0.0
C349 C 0.75347 0.68206 0.08597 0.0
H350 H 0.75033 0.68517 0.03336 0.0
H351 H 0.77223 0.63553 0.0699 0.0
C352 C 0.77561 0.60525 0.96452 0.0
N353 N 0.78828 0.58838 0.92727 0.0
C354 C 0.79677 0.60303 0.96018 0.0
C355 C 0.76089 0.59876 0.94998 0.0
C356 C 0.80286 0.59449 0.94124 0.0
C357 C 0.76761 0.59032 0.93121 0.0
C358 C 0.80764 0.64828 0.02566 0.0
C359 C 0.82128 0.66485 0.02287 0.0
C360 C 0.80962 0.63565 0.04312 0.0
C361 C 0.83675 0.66851 0.03761 0.0
C362 C 0.82528 0.63981 0.0575 0.0
N363 N 0.83841 0.65602 0.05448 0.0
C364 C 0.77414 0.68265 0.97052 0.0
C365 C 0.7859 0.65681 0.94735 0.0
C366 C 0.77828 0.69807 0.95596 0.0
N367 N 0.77804 0.66248 0.96608 0.0
C368 C 0.79045 0.67176 0.93235 0.0
C369 C 0.78679 0.69279 0.9366 0.0
H370 H 0.76782 0.68677 0.9855 0.0
H371 H 0.78888 0.64077 0.94399 0.0
C372 C 0.80045 0.57655 0.02301 0.0
N373 N 0.80605 0.59472 0.01405 0.0
C374 C 0.81553 0.56205 0.02854 0.0
C375 C 0.8419 0.58476 0.01464 0.0
C376 C 0.8263 0.599 0.00965 0.0
C377 C 0.83659 0.56618 0.02458 0.0
H378 H 0.78425 0.57353 0.02626 0.0
H379 H 0.83038 0.61367 1.00271 0.0
O380 O 0.74522 0.65004 1.003 0.0
O381 O 0.76076 0.61263 0.02958 0.0
O382 O 0.76927 0.61328 0.98308 0.0
O383 O 0.79239 0.64459 0.01137 0.0
H384 H 0.71714 0.67873 0.01087 0.0
H385 H 0.74015 0.6369 0.96437 0.0
H386 H 0.69051 0.69094 0.98586 0.0
H387 H 0.71315 0.64975 0.94022 0.0
H388 H 0.73319 0.57371 0.08133 0.0
H389 H 0.7275 0.63575 0.03725 0.0
H390 H 0.76047 0.58064 0.05508 0.0
H391 H 0.70082 0.62784 0.06374 0.0
H392 H 0.66982 0.61018 0.00643 0.0
H393 H 0.70442 0.55666 0.98591 0.0
H394 H 0.74273 0.70575 0.06466 0.0
H395 H 0.7657 0.65506 0.10187 0.0
H396 H 0.80835 0.60815 0.97114 0.0
H397 H 0.74443 0.60021 0.95315 0.0
H398 H 0.81919 0.59279 0.93762 0.0
H399 H 0.75638 0.58529 0.9198 0.0
H400 H 0.81991 0.67479 0.00945 0.0
H401 H 0.79917 0.62278 0.04556 0.0
H402 H 0.84742 0.68129 0.03565 0.0
H403 H 0.82699 0.63016 0.07107 0.0
H404 H 0.77474 0.71397 0.95986 0.0
H405 H 0.79716 0.66691 0.91776 0.0
H406 H 0.81082 0.54782 0.03605 0.0
H407 H 0.85799 0.58857 0.01151 0.0
Li408 Li 0.87108 0.02865 0.25384 0.0
Li409 Li 0.89838 0.0089 0.26979 0.0
Li410 Li 0.89937 0.01561 0.23276 0.0
Li411 Li 0.87395 0.98974 0.24771 0.0
C412 C 0.8993 0.05671 0.25904 0.0
N413 N 0.89445 0.09866 0.26585 0.0
C414 C 0.90151 0.06486 0.279 0.0
C415 C 0.89465 0.06995 0.24257 0.0
C416 C 0.89903 0.0861 0.28211 0.0
C417 C 0.89222 0.09109 0.24632 0.0
C418 C 0.86621 1.00102 0.29437 0.0
C419 C 0.85837 0.97736 0.32217 0.0
N420 N 0.8636 0.99221 0.33616 0.0
C421 C 0.87133 0.01609 0.30902 0.0
C422 C 0.85956 0.98152 0.30096 0.0
C423 C 0.86999 0.01132 0.33008 0.0
C424 C 0.83884 0.0551 0.23992 0.0
N425 N 0.85103 0.05082 0.25657 0.0
C426 C 0.83637 0.07942 0.27516 0.0
C427 C 0.84959 0.06225 0.27422 0.0
C428 C 0.82423 0.08474 0.25786 0.0
C429 C 0.82532 0.07201 0.24022 0.0
H430 H 0.83973 0.0455 0.22627 0.0
H431 H 0.85911 0.05843 0.28744 0.0
C432 C 0.93194 0.01929 0.29607 0.0
N433 N 0.91668 1.00504 0.29318 0.0
C434 C 0.9468 0.01658 0.31158 0.0
C435 C 0.93029 0.98434 0.32081 0.0
C436 C 0.91572 0.98768 0.30505 0.0
C437 C 0.94624 0.99884 0.32413 0.0
H438 H 0.933 0.03249 0.28587 0.0
H439 H 0.90401 0.97611 0.30193 0.0
C440 C 0.86842 0.01329 0.2061 0.0
N441 N 0.86857 0.01432 0.16329 0.0
C442 C 0.86749 0.9949 0.19474 0.0
C443 C 0.86945 0.0322 0.19566 0.0
C444 C 0.86754 0.99575 0.17311 0.0
C445 C 0.86953 0.0324 0.17402 0.0
C446 C 0.9245 0.98223 0.25093 0.0
C447 C 0.94105 0.99619 0.24963 0.0
C448 C 0.92826 0.96187 0.25714 0.0
C449 C 0.96109 0.98955 0.2546 0.0
C450 C 0.94854 0.95582 0.26196 0.0
N451 N 0.96439 0.96967 0.26061 0.0
C452 C 0.92864 0.03906 0.21006 0.0
C453 C 0.91922 0.00795 0.19321 0.0
C454 C 0.9414 0.04462 0.1935 0.0
N455 N 0.91744 0.02126 0.20947 0.0
C456 C 0.93169 0.013 0.17614 0.0
C457 C 0.94275 0.03178 0.17597 0.0
H458 H 0.92779 0.04897 0.22349 0.0
H459 H 0.9108 0.99349 0.19337 0.0
C460 C 0.84057 0.96471 0.23297 0.0
N461 N 0.85865 0.96459 0.24389 0.0
C462 C 0.82946 0.94635 0.22985 0.0
C463 C 0.85531 0.92826 0.25 0.0
C464 C 0.86596 0.94692 0.25261 0.0
C465 C 0.83688 0.9277 0.23828 0.0
H466 H 0.83489 0.97905 0.22646 0.0
H467 H 0.87997 0.94736 0.26179 0.0
O468 O 0.90137 0.03588 0.25568 0.0
O469 O 0.86759 1.00531 0.27367 0.0
O470 O 0.86859 0.01276 0.22731 0.0
O471 O 0.90465 0.98872 0.24691 0.0
H472 H 0.90474 0.05491 0.29204 0.0
H473 H 0.89276 0.06396 0.22706 0.0
H474 H 0.9006 0.09258 0.29748 0.0
H475 H 0.88852 0.10147 0.23372 0.0
H476 H 0.85332 0.96232 0.32749 0.0
H477 H 0.87667 0.03118 0.30419 0.0
H478 H 0.85538 0.96973 0.28984 0.0
H479 H 0.87409 0.02278 0.34158 0.0
H480 H 0.83617 0.08875 0.28909 0.0
H481 H 0.81587 0.07508 0.2267 0.0
H482 H 0.95874 0.02822 0.31356 0.0
H483 H 0.92949 0.97024 0.32981 0.0
H484 H 0.86716 0.98009 0.20248 0.0
H485 H 0.87028 0.04659 0.20413 0.0
H486 H 0.86692 0.98163 0.16414 0.0
H487 H 0.87038 0.04692 0.16577 0.0
H488 H 0.9384 0.01212 0.24532 0.0
H489 H 0.9157 0.95085 0.25832 0.0
H490 H 0.97399 1.00024 0.25381 0.0
H491 H 0.95166 0.94012 0.26683 0.0
H492 H 0.95016 0.05888 0.1945 0.0
H493 H 0.93228 1.00253 0.16306 0.0
H494 H 0.81543 0.94673 0.2206 0.0
H495 H 0.86138 0.91444 0.25728 0.0
Li496 Li 0.2501 0.14381 0.5325 0.0
Li497 Li 0.2326 0.11778 0.5126 0.0
Li498 Li 0.27129 0.11433 0.52121 0.0
Li499 Li 0.25727 0.14082 0.49569 0.0
C500 C 0.2432 0.11404 0.56082 0.0
N501 N 0.23619 0.11408 0.60306 0.0
C502 C 0.2246 0.12187 0.5688 0.0
C503 C 0.25824 0.10623 0.57434 0.0
C504 C 0.22136 0.12178 0.5902 0.0
C505 C 0.25439 0.10637 0.59564 0.0
C506 C 0.21044 0.15101 0.50418 0.0
C507 C 0.18267 0.15042 0.47911 0.0
N508 N 0.16895 0.15575 0.49423 0.0
C509 C 0.1961 0.15662 0.51945 0.0
C510 C 0.20371 0.14802 0.48382 0.0
C511 C 0.17518 0.1589 0.51411 0.0
C512 C 0.23749 0.18233 0.54838 0.0
N513 N 0.24739 0.16462 0.55398 0.0
C514 C 0.25383 0.17838 0.58787 0.0
C515 C 0.25581 0.16254 0.57323 0.0
C516 C 0.24359 0.19678 0.58248 0.0
C517 C 0.2354 0.19864 0.56241 0.0
H518 H 0.23148 0.18395 0.53283 0.0
H519 H 0.26443 0.14878 0.57716 0.0
C520 C 0.20799 0.08585 0.49472 0.0
N521 N 0.20789 0.10128 0.50905 0.0
C522 C 0.19089 0.07263 0.4927 0.0
C523 C 0.17373 0.09154 0.52003 0.0
C524 C 0.19118 0.1043 0.52158 0.0
C525 C 0.1735 0.07523 0.50563 0.0
H526 H 0.22157 0.08345 0.48518 0.0
H527 H 0.19141 0.11644 0.53302 0.0
C528 C 0.28783 0.15915 0.52894 0.0
N529 N 0.30648 0.19038 0.55142 0.0
C530 C 0.28526 0.17976 0.52298 0.0
C531 C 0.29998 0.15437 0.54622 0.0
C532 C 0.29478 0.19534 0.53459 0.0
C533 C 0.30928 0.1704 0.5574 0.0
C534 C 0.26203 0.10499 0.4745 0.0
C535 C 0.28177 0.09684 0.47063 0.0
C536 C 0.24834 0.10832 0.45804 0.0
C537 C 0.2876 0.09244 0.45025 0.0
C538 C 0.25477 0.10374 0.43788 0.0
N539 N 0.27411 0.09599 0.43443 0.0
C540 C 0.28839 0.07665 0.53498 0.0
C541 C 0.3134 0.10084 0.52316 0.0
C542 C 0.30402 0.06246 0.53981 0.0
N543 N 0.29333 0.09549 0.52707 0.0
C544 C 0.32954 0.08699 0.5275 0.0
C545 C 0.32493 0.06759 0.53615 0.0
H546 H 0.27228 0.07274 0.53772 0.0
H547 H 0.31686 0.11589 0.5167 0.0
C548 C 0.25266 0.17267 0.46566 0.0
N549 N 0.26451 0.15623 0.47139 0.0
C550 C 0.25862 0.18514 0.44898 0.0
C551 C 0.28874 0.16339 0.44423 0.0
C552 C 0.28235 0.15154 0.46115 0.0
C553 C 0.27701 0.18068 0.43805 0.0
H554 H 0.23886 0.17648 0.47443 0.0
H555 H 0.29187 0.13881 0.46636 0.0
O556 O 0.24664 0.11391 0.53992 0.0
O557 O 0.23096 0.14852 0.50913 0.0
O558 O 0.27811 0.14375 0.51818 0.0
O559 O 0.25612 0.10959 0.49433 0.0
H560 H 0.21298 0.12836 0.55864 0.0
H561 H 0.2728 0.10029 0.56849 0.0
H562 H 0.20709 0.12793 0.59658 0.0
H563 H 0.26591 0.10041 0.60628 0.0
H564 H 0.17724 0.14807 0.46342 0.0
H565 H 0.20099 0.1589 0.53531 0.0
H566 H 0.21463 0.14389 0.47178 0.0
H567 H 0.16389 0.16309 0.5258 0.0
H568 H 0.26076 0.17651 0.60304 0.0
H569 H 0.22742 0.21258 0.55759 0.0
H570 H 0.19159 0.06011 0.48157 0.0
H571 H 0.16061 0.09438 0.53014 0.0
H572 H 0.2758 0.18366 0.50968 0.0
H573 H 0.30197 0.13848 0.55109 0.0
H574 H 0.29282 0.21138 0.53026 0.0
H575 H 0.31863 0.16697 0.57089 0.0
H576 H 0.29252 0.09407 0.48318 0.0
H577 H 0.23294 0.11437 0.46079 0.0
H578 H 0.30287 0.08624 0.447 0.0
H579 H 0.24437 0.10634 0.42498 0.0
H580 H 0.29979 0.04757 0.54623 0.0
H581 H 0.34546 0.09157 0.52455 0.0
H582 H 0.24925 0.19851 0.44516 0.0
H583 H 0.30286 0.15907 0.43621 0.0
Li584 Li 0.40282 0.51178 0.77758 0.0
Li585 Li 0.37506 0.53406 0.76283 0.0
Li586 Li 0.37652 0.49551 0.75534 0.0
Li587 Li 0.40126 0.5198 0.73913 0.0
C588 C 0.36935 0.50698 0.80303 0.0
N589 N 0.36378 0.50049 0.84498 0.0
C590 C 0.36322 0.52328 0.81588 0.0
C591 C 0.37239 0.48732 0.81148 0.0
C592 C 0.36054 0.5197 0.83705 0.0
C593 C 0.36958 0.48436 0.83274 0.0
C594 C 0.40821 0.55921 0.76844 0.0
C595 C 0.4069 0.59547 0.75979 0.0
N596 N 0.41296 0.60026 0.77939 0.0
C597 C 0.41457 0.56448 0.78845 0.0
C598 C 0.40449 0.57481 0.75393 0.0
C599 C 0.41685 0.58532 0.7937 0.0
C600 C 0.43901 0.49519 0.79487 0.0
N601 N 0.42197 0.50652 0.79999 0.0
C602 C 0.43399 0.5094 0.83503 0.0
C603 C 0.41928 0.51371 0.81963 0.0
C604 C 0.45176 0.4977 0.83014 0.0
C605 C 0.45403 0.49048 0.80973 0.0
H606 H 0.44106 0.48988 0.77914 0.0
H607 H 0.40593 0.52311 0.82334 0.0
C608 C 0.34018 0.55806 0.75298 0.0
N609 N 0.35629 0.55717 0.76657 0.0
C610 C 0.32648 0.5748 0.75316 0.0
C611 C 0.34545 0.58917 0.78203 0.0
C612 C 0.35888 0.57211 0.78124 0.0
C613 C 0.32921 0.59086 0.76758 0.0
H614 H 0.33807 0.54585 0.74175 0.0
H615 H 0.37152 0.571 0.79218 0.0
C616 C 0.41136 0.47262 0.7503 0.0
N617 N 0.41915 0.43103 0.74423 0.0
C618 C 0.41761 0.46544 0.73086 0.0
C619 C 0.40937 0.4587 0.76673 0.0
C620 C 0.42141 0.44434 0.72808 0.0
C621 C 0.41329 0.43772 0.76333 0.0
C622 C 0.36714 0.52294 0.71567 0.0
C623 C 0.36142 0.50704 0.70216 0.0
C624 C 0.36951 0.54304 0.7081 0.0
C625 C 0.35849 0.51147 0.68119 0.0
C626 C 0.36647 0.54685 0.68702 0.0
N627 N 0.36109 0.53111 0.67411 0.0
C628 C 0.34512 0.46752 0.76659 0.0
C629 C 0.36307 0.45734 0.73623 0.0
C630 C 0.33309 0.44957 0.76601 0.0
N631 N 0.36001 0.47093 0.75205 0.0
C632 C 0.35129 0.43917 0.73499 0.0
C633 C 0.33623 0.43497 0.75019 0.0
H634 H 0.34261 0.47874 0.77874 0.0
H635 H 0.37475 0.46048 0.72464 0.0
C636 C 0.43212 0.54149 0.71713 0.0
N637 N 0.41797 0.526 0.71513 0.0
C638 C 0.44443 0.54741 0.70034 0.0
C639 C 0.42799 0.52087 0.67973 0.0
C640 C 0.41588 0.51552 0.69695 0.0
C641 C 0.44237 0.53718 0.68124 0.0
H642 H 0.43389 0.54929 0.73182 0.0
H643 H 0.40474 0.50308 0.69573 0.0
O644 O 0.37205 0.51022 0.78226 0.0
O645 O 0.40585 0.53887 0.76304 0.0
O646 O 0.40736 0.49319 0.75327 0.0
O647 O 0.37031 0.51886 0.73623 0.0
H648 H 0.36062 0.53853 0.80959 0.0
H649 H 0.37677 0.47445 0.80175 0.0
H650 H 0.35589 0.5322 0.84718 0.0
H651 H 0.37197 0.46924 0.83949 0.0
H652 H 0.40396 0.6077 0.74874 0.0
H653 H 0.41766 0.55263 0.79983 0.0
H654 H 0.39979 0.57101 0.73832 0.0
H655 H 0.42167 0.58963 0.80917 0.0
H656 H 0.43173 0.51561 0.85044 0.0
H657 H 0.4673 0.48121 0.80522 0.0
H658 H 0.31391 0.57519 0.74202 0.0
H659 H 0.34815 0.60118 0.79341 0.0
H660 H 0.41943 0.47601 0.71803 0.0
H661 H 0.40491 0.46404 0.78195 0.0
H662 H 0.42613 0.43855 0.71308 0.0
H663 H 0.4117 0.42677 0.77589 0.0
H664 H 0.35934 0.49144 0.70778 0.0
H665 H 0.37367 0.55556 0.71839 0.0
H666 H 0.35417 0.49929 0.67053 0.0
H667 H 0.36837 0.56232 0.68094 0.0
H668 H 0.32135 0.4472 0.7778 0.0
H669 H 0.35423 0.42834 0.72253 0.0
H670 H 0.45559 0.55979 0.70235 0.0
H671 H 0.42584 0.5126 0.6653 0.0
Li672 Li 0.77574 0.39304 0.50448 0.0
Li673 Li 0.75737 0.36786 0.5266 0.0
Li674 Li 0.75284 0.36777 0.48755 0.0
Li675 Li 0.73667 0.39496 0.50933 0.0
C676 C 0.79854 0.35822 0.50011 0.0
N677 N 0.83976 0.35033 0.49116 0.0
C678 C 0.81176 0.35055 0.51546 0.0
C679 C 0.8062 0.36161 0.48014 0.0
C680 C 0.83258 0.34673 0.51064 0.0
C681 C 0.82711 0.3576 0.47594 0.0
C682 C 0.75989 0.40177 0.55101 0.0
C683 C 0.74257 0.4032 0.58411 0.0
N684 N 0.7609 0.40821 0.59332 0.0
C685 C 0.77851 0.40717 0.56076 0.0
C686 C 0.74173 0.39997 0.56274 0.0
C687 C 0.77872 0.41027 0.58218 0.0
C688 C 0.80147 0.42527 0.48862 0.0
N689 N 0.80061 0.40923 0.50221 0.0
C690 C 0.83447 0.41752 0.51503 0.0
C691 C 0.81671 0.40512 0.51519 0.0
C692 C 0.83568 0.43451 0.5015 0.0
C693 C 0.81897 0.43813 0.48795 0.0
H694 H 0.78835 0.42842 0.47865 0.0
H695 H 0.81558 0.39246 0.52605 0.0
C696 C 0.74442 0.33639 0.55408 0.0
N697 N 0.75943 0.35083 0.55084 0.0
C698 C 0.74487 0.32397 0.57176 0.0
C699 C 0.77665 0.34092 0.58219 0.0
C700 C 0.77552 0.35312 0.56433 0.0
C701 C 0.76106 0.32622 0.58619 0.0
H702 H 0.7321 0.33445 0.54289 0.0
H703 H 0.78748 0.36444 0.56124 0.0
C704 C 0.7495 0.40206 0.46308 0.0
N705 N 0.74126 0.40916 0.42169 0.0
C706 C 0.72947 0.4075 0.45674 0.0
C707 C 0.76541 0.40051 0.44841 0.0
C708 C 0.7256 0.41097 0.43573 0.0
C709 C 0.76091 0.40406 0.42755 0.0
C710 C 0.71056 0.36136 0.51163 0.0
C711 C 0.6988 0.35589 0.49426 0.0
C712 C 0.70078 0.36341 0.53086 0.0
C713 C 0.6774 0.35289 0.49636 0.0
C714 C 0.67935 0.36032 0.53232 0.0
N715 N 0.66819 0.35518 0.51518 0.0
C716 C 0.76214 0.332 0.46484 0.0
C717 C 0.73625 0.35221 0.44853 0.0
C718 C 0.76063 0.31696 0.44939 0.0
N719 N 0.75005 0.34923 0.46422 0.0
C720 C 0.7341 0.33744 0.43279 0.0
C721 C 0.74626 0.31936 0.43318 0.0
H722 H 0.77279 0.32972 0.47757 0.0
H723 H 0.7264 0.36571 0.44849 0.0
C724 C 0.71862 0.43085 0.52548 0.0
N725 N 0.71401 0.41406 0.51364 0.0
C726 C 0.70316 0.44493 0.53102 0.0
C727 C 0.67847 0.42496 0.51121 0.0
C728 C 0.69446 0.41116 0.5061 0.0
C729 C 0.68266 0.44192 0.52418 0.0
H730 H 0.73434 0.43317 0.5309 0.0
H731 H 0.69114 0.39807 0.49627 0.0
O732 O 0.77816 0.36229 0.50457 0.0
O733 O 0.75943 0.39838 0.53008 0.0
O734 O 0.75358 0.39865 0.48358 0.0
O735 O 0.73154 0.36436 0.50984 0.0
H736 H 0.80604 0.34768 0.53094 0.0
H737 H 0.79609 0.36723 0.46803 0.0
H738 H 0.84302 0.34092 0.5224 0.0
H739 H 0.83327 0.36024 0.46058 0.0
H740 H 0.72863 0.40177 0.59338 0.0
H741 H 0.79267 0.40884 0.55194 0.0
H742 H 0.72713 0.39623 0.5554 0.0
H743 H 0.79306 0.41432 0.58994 0.0
H744 H 0.84706 0.41393 0.52557 0.0
H745 H 0.81909 0.45117 0.47743 0.0
H746 H 0.73277 0.31253 0.57398 0.0
H747 H 0.7894 0.34319 0.5929 0.0
H748 H 0.71703 0.40889 0.46788 0.0
H749 H 0.78107 0.3967 0.45309 0.0
H750 H 0.71015 0.41507 0.43059 0.0
H751 H 0.77304 0.40283 0.41602 0.0
H752 H 0.70608 0.35408 0.47931 0.0
H753 H 0.70964 0.36724 0.54454 0.0
H754 H 0.66812 0.34876 0.48302 0.0
H755 H 0.67159 0.36194 0.5471 0.0
H756 H 0.77062 0.30351 0.45026 0.0
H757 H 0.72257 0.33989 0.42083 0.0
H758 H 0.70724 0.45805 0.54064 0.0
H759 H 0.6629 0.42204 0.50554 0.0
Li760 Li 0.64331 0.9846 0.7604 0.0
Li761 Li 0.6166 0.0071 0.77574 0.0
Li762 Li 0.61621 0.99755 0.73764 0.0
Li763 Li 0.64192 0.0223 0.75113 0.0
C764 C 0.61234 0.95886 0.76717 0.0
N765 N 0.61225 0.91725 0.77691 0.0
C766 C 0.60658 0.95235 0.78699 0.0
C767 C 0.61776 0.94418 0.75222 0.0
C768 C 0.6067 0.93125 0.79164 0.0
C769 C 0.61772 0.92323 0.75747 0.0
C770 C 0.65293 0.01937 0.79615 0.0
C771 C 0.65646 0.05103 0.81562 0.0
N772 N 0.66455 0.04016 0.83174 0.0
C773 C 0.66153 0.00855 0.81281 0.0
C774 C 0.65058 0.04081 0.79748 0.0
C775 C 0.6672 0.01932 0.83071 0.0
C776 C 0.67576 0.95545 0.75255 0.0
N777 N 0.66178 0.96231 0.76678 0.0
C778 C 0.67519 0.93895 0.79214 0.0
C779 C 0.66115 0.95429 0.78621 0.0
C780 C 0.69013 0.93181 0.77795 0.0
C781 C 0.6901 0.94005 0.7578 0.0
H782 H 0.6761 0.96226 0.73726 0.0
H783 H 0.6499 0.96004 0.79724 0.0
C784 C 0.58169 0.02144 0.79918 0.0
N785 N 0.60008 0.01109 0.80007 0.0
C786 C 0.56896 0.02276 0.81672 0.0
C787 C 0.59425 1.00266 0.83565 0.0
C788 C 0.60656 1.00191 0.81787 0.0
C789 C 0.57506 0.01298 0.83516 0.0
H790 H 0.57664 0.0282 0.78472 0.0
H791 H 0.62097 0.99335 0.81805 0.0
C792 C 0.64906 0.99566 0.71199 0.0
N793 N 0.653 0.99131 0.66958 0.0
C794 C 0.6527 0.01298 0.69956 0.0
C795 C 0.64766 0.9761 0.70287 0.0
C796 C 0.6546 0.01047 0.67815 0.0
C797 C 0.64961 0.97423 0.6814 0.0
C798 C 0.60464 0.04501 0.74864 0.0
C799 C 0.59795 0.05204 0.72928 0.0
C800 C 0.6044 0.05849 0.76557 0.0
C801 C 0.59158 0.07258 0.72709 0.0
C802 C 0.59793 0.07891 0.76275 0.0
N803 N 0.59174 0.08549 0.74373 0.0
C804 C 0.5851 0.97438 0.71747 0.0
C805 C 0.59905 1.00109 0.69659 0.0
C806 C 0.57212 0.96802 0.70136 0.0
N807 N 0.59842 0.99049 0.71479 0.0
C808 C 0.58624 0.99531 0.68007 0.0
C809 C 0.57266 0.97844 0.68228 0.0
H810 H 0.58451 0.96644 0.73217 0.0
H811 H 0.60958 0.01397 0.69482 0.0
C812 C 0.67969 0.04243 0.75224 0.0
N813 N 0.65995 0.04523 0.74535 0.0
C814 C 0.69504 0.05708 0.74807 0.0
C815 C 0.66951 0.07752 0.72984 0.0
C816 C 0.65458 0.06243 0.73443 0.0
C817 C 0.69015 0.07478 0.73644 0.0
H818 H 0.68359 0.02857 0.76076 0.0
H819 H 0.63895 0.06421 0.72871 0.0
O820 O 0.6127 0.97949 0.76241 0.0
O821 O 0.64726 0.00903 0.77851 0.0
O822 O 0.64703 0.99784 0.73298 0.0
O823 O 0.61083 0.02491 0.75106 0.0
H824 H 0.60211 0.96344 0.79869 0.0
H825 H 0.62207 0.94894 0.73677 0.0
H826 H 0.60239 0.926 0.80696 0.0
H827 H 0.62202 0.91172 0.74608 0.0
H828 H 0.65466 0.06762 0.81685 0.0
H829 H 0.66372 0.992 0.812 0.0
H830 H 0.64449 0.04952 0.78458 0.0
H831 H 0.67374 0.01111 0.84377 0.0
H832 H 0.67444 0.93283 0.80773 0.0
H833 H 0.70147 0.93516 0.74644 0.0
H834 H 0.55415 0.03065 0.81563 0.0
H835 H 0.59958 0.99498 0.84958 0.0
H836 H 0.65385 0.02823 0.70631 0.0
H837 H 0.64507 0.96251 0.71224 0.0
H838 H 0.6573 0.02375 0.66833 0.0
H839 H 0.64845 0.9592 0.67413 0.0
H840 H 0.59779 0.0418 0.71606 0.0
H841 H 0.60895 0.05321 0.78079 0.0
H842 H 0.58652 0.07825 0.71216 0.0
H843 H 0.59775 0.08951 0.77572 0.0
H844 H 0.56162 0.95517 0.70388 0.0
H845 H 0.58724 1.00372 0.6656 0.0
H846 H 0.71064 0.05445 0.75378 0.0
H847 H 0.66509 0.0908 0.72064 0.0
Li848 Li 0.02672 0.26406 0.85932 0.0
Li849 Li 1.00097 0.27643 0.88494 0.0
Li850 Li 0.01261 0.23899 0.88494 0.0
Li851 Li 0.98919 0.25295 0.85819 0.0
C852 C 0.04906 0.26808 0.89656 0.0
N853 N 0.08934 0.27498 0.9098 0.0
C854 C 0.05496 0.28757 0.90388 0.0
C855 C 0.06358 0.25201 0.89635 0.0
C856 C 0.07541 0.29078 0.91039 0.0
C857 C 0.08388 0.25582 0.90301 0.0
C858 C 0.99633 0.30163 0.85306 0.0
C859 C 0.97133 0.3293 0.85571 0.0
N860 N 0.98653 0.3432 0.85115 0.0
C861 C 0.01166 0.31617 0.84824 0.0
C862 C 0.97596 0.30822 0.85666 0.0
C863 C 1.00641 0.33711 0.84739 0.0
C864 C 0.05347 0.26087 0.82444 0.0
N865 N 0.0504 0.27121 0.84256 0.0
C866 C 0.07979 0.29282 0.83572 0.0
C867 C 0.06319 0.28692 0.84835 0.0
C868 C 0.0833 0.28249 0.81688 0.0
C869 C 0.07002 0.26615 0.8114 0.0
H870 H 0.04285 0.24872 0.81992 0.0
H871 H 0.06019 0.2953 0.86249 0.0
C872 C 0.97792 0.29412 0.91721 0.0
N873 N 0.99311 0.29856 0.90328 0.0
C874 C 0.97245 0.30843 0.93243 0.0
C875 C 0.99802 0.332 0.91857 0.0
C876 C 1.00294 0.31721 0.90348 0.0
C877 C 0.98289 0.32749 0.93363 0.0
H878 H 0.97042 0.27919 0.91691 0.0
H879 H 0.01506 0.3204 0.89234 0.0
C880 C 0.02481 0.21787 0.84949 0.0
N881 N 0.04501 0.18133 0.84003 0.0
C882 C 0.01362 0.20095 0.8419 0.0
C883 C 0.04633 0.21629 0.85191 0.0
C884 C 0.02409 0.18259 0.83731 0.0
C885 C 0.05625 0.19768 0.84714 0.0
C886 C 0.96446 0.24301 0.88953 0.0
C887 C 0.96112 0.22222 0.89438 0.0
C888 C 0.94747 0.25589 0.88559 0.0
C889 C 0.94082 0.21456 0.89488 0.0
C890 C 0.92742 0.24764 0.8862 0.0
N891 N 0.92453 0.22731 0.89077 0.0
C892 C 0.02869 0.22106 0.92106 0.0
C893 C 0.01498 0.19616 0.89787 0.0
C894 C 0.0348 0.20555 0.93478 0.0
N895 N 0.01939 0.21616 0.90279 0.0
C896 C 0.02055 0.18011 0.91134 0.0
C897 C 0.03089 0.18475 0.92992 0.0
H898 H 0.03151 0.23708 0.92493 0.0
H899 H 1.00704 0.19262 0.88357 0.0
C900 C 0.95964 0.26053 0.82627 0.0
N901 N 0.9668 0.24611 0.83984 0.0
C902 C 0.94401 0.25549 0.81208 0.0
C903 C 0.94334 0.22089 0.82617 0.0
C904 C 0.95888 0.22663 0.84012 0.0
C905 C 0.93586 0.23533 0.81173 0.0
H906 H 0.96635 0.27585 0.82616 0.0
H907 H 0.96478 0.21544 0.85106 0.0
O908 O 0.02906 0.26469 0.89013 0.0
O909 O 1.00123 0.28107 0.85419 0.0
O910 O 0.01476 0.23594 0.85421 0.0
O911 O 0.98425 0.25074 0.88874 0.0
H912 H 0.04392 0.30013 0.90439 0.0
H913 H 0.05919 0.23667 0.89141 0.0
H914 H 0.0802 0.30584 0.91592 0.0
H915 H 0.09526 0.24352 0.90288 0.0
H916 H 0.95566 0.33461 0.85858 0.0
H917 H 0.02745 0.31136 0.84523 0.0
H918 H 0.96388 0.29718 0.86022 0.0
H919 H 0.01814 0.34854 0.84377 0.0
H920 H 0.08969 0.30546 0.8406 0.0
H921 H 0.07199 0.25797 0.79689 0.0
H922 H 0.96043 0.30438 0.94346 0.0
H923 H 1.0066 0.3464 0.91897 0.0
H924 H 0.99702 0.20192 0.83966 0.0
H925 H 0.05533 0.22937 0.85715 0.0
H926 H 0.01559 0.16934 0.83157 0.0
H927 H 0.07289 0.19626 0.849 0.0
H928 H 0.97405 0.21207 0.89762 0.0
H929 H 0.94975 0.27205 0.88203 0.0
H930 H 0.93802 0.19846 0.89849 0.0
H931 H 0.91414 0.2574 0.88305 0.0
H932 H 0.04243 0.20979 0.94912 0.0
H933 H 0.01721 0.16425 0.90707 0.0
H934 H 0.93883 0.26703 0.80109 0.0
H935 H 0.9373 0.20526 0.82663 0.0
Li936 Li 0.52795 0.76344 0.36172 0.0
Li937 Li 0.50518 0.77811 0.3885 0.0
Li938 Li 0.51478 0.74098 0.38897 0.0
Li939 Li 0.49041 0.75499 0.36311 0.0
C940 C 0.55326 0.77119 0.39349 0.0
N941 N 0.59435 0.78355 0.39455 0.0
C942 C 0.5583 0.79183 0.39756 0.0
C943 C 0.56911 0.75681 0.39012 0.0
C944 C 0.57917 0.79777 0.398 0.0
C945 C 0.58979 0.76338 0.39066 0.0
C946 C 0.49349 0.78835 0.34078 0.0
C947 C 0.4623 0.80029 0.32383 0.0
N948 N 0.47201 0.79871 0.30518 0.0
C949 C 0.50315 0.78683 0.32143 0.0
C950 C 0.47289 0.79515 0.34199 0.0
C951 C 0.49203 0.79217 0.30363 0.0
C952 C 0.5592 0.75558 0.33082 0.0
N953 N 0.55112 0.76981 0.34407 0.0
C954 C 0.57525 0.79531 0.33218 0.0
C955 C 0.55866 0.78942 0.3448 0.0
C956 C 0.58392 0.78107 0.31813 0.0
C957 C 0.57564 0.76091 0.31763 0.0
H958 H 0.55266 0.7402 0.3302 0.0
H959 H 0.55168 0.80058 0.35516 0.0
C960 C 0.50831 0.80399 0.42444 0.0
N961 N 0.50014 0.80228 0.40508 0.0
C962 C 0.50465 0.82174 0.43633 0.0
C963 C 0.48386 0.83535 0.40835 0.0
C964 C 0.48816 0.81753 0.39694 0.0
C965 C 0.49228 0.83783 0.42831 0.0
H966 H 0.51781 0.79163 0.43056 0.0
H967 H 0.48185 0.81584 0.38156 0.0
C968 C 0.51771 0.71566 0.3561 0.0
N969 N 0.52405 0.6735 0.35316 0.0
C970 C 0.5011 0.70249 0.35153 0.0
C971 C 0.53757 0.70741 0.35898 0.0
C972 C 0.50462 0.68121 0.35014 0.0
C973 C 0.54045 0.68605 0.3575 0.0
C974 C 0.47773 0.75994 0.41142 0.0
C975 C 0.48535 0.7531 0.4305 0.0
C976 C 0.46131 0.77411 0.4109 0.0
C977 C 0.47642 0.76056 0.44876 0.0
C978 C 0.45284 0.78123 0.42951 0.0
N979 N 0.4605 0.77436 0.44789 0.0
C980 C 0.53675 0.71599 0.41872 0.0
C981 C 0.50641 0.70106 0.40425 0.0
C982 C 0.54041 0.6981 0.43041 0.0
N983 N 0.52011 0.71701 0.40576 0.0
C984 C 0.50973 0.68276 0.41524 0.0
C985 C 0.52695 0.68111 0.42845 0.0
H986 H 0.5472 0.72902 0.41997 0.0
H987 H 0.49295 0.7025 0.39434 0.0
C988 C 0.46733 0.7436 0.32678 0.0
N989 N 0.46605 0.74846 0.34725 0.0
C990 C 0.44937 0.73862 0.31557 0.0
C991 C 0.4292 0.74398 0.34666 0.0
C992 C 0.44748 0.7487 0.35725 0.0
C993 C 0.42994 0.73861 0.32556 0.0
H994 H 0.48233 0.7434 0.31922 0.0
H995 H 0.44687 0.75247 0.37352 0.0
O996 O 0.53291 0.76513 0.3927 0.0
O997 O 0.50399 0.78282 0.35837 0.0
O998 O 0.51451 0.73649 0.35788 0.0
O999 O 0.48668 0.75329 0.39338 0.0
H1000 H 0.54622 0.80319 0.40007 0.0
H1001 H 0.56549 0.74079 0.387 0.0
H1002 H 0.58329 0.81371 0.40101 0.0
H1003 H 0.60221 0.75243 0.38797 0.0
H1004 H 0.44631 0.80539 0.32454 0.0
H1005 H 0.51899 0.78148 0.32011 0.0
H1006 H 0.46497 0.79596 0.35675 0.0
H1007 H 0.49931 0.79103 0.28857 0.0
H1008 H 0.5812 0.81091 0.33351 0.0
H1009 H 0.58143 0.74945 0.30685 0.0
H1010 H 0.51174 0.82294 0.45149 0.0
H1011 H 0.47386 0.84698 0.40158 0.0
H1012 H 0.48561 0.70859 0.34934 0.0
H1013 H 0.5506 0.71738 0.36247 0.0
H1014 H 0.49189 0.67082 0.34674 0.0
H1015 H 0.55571 0.67944 0.35983 0.0
H1016 H 0.49815 0.74231 0.43124 0.0
H1017 H 0.45549 0.77992 0.39631 0.0
H1018 H 0.48221 0.75544 0.46363 0.0
H1019 H 0.44026 0.79232 0.42933 0.0
H1020 H 0.55382 0.69738 0.44051 0.0
H1021 H 0.49886 0.67008 0.41356 0.0
H1022 H 0.45078 0.73438 0.2994 0.0
H1023 H 0.4146 0.74456 0.35499 0.0
Li1024 Li 0.00977 0.7735 0.6165 0.0
Li1025 Li 0.98646 0.75834 0.64298 0.0
Li1026 Li 0.02564 0.75376 0.64539 0.0
Li1027 Li 1.00478 0.73467 0.61967 0.0
C1028 C 0.01232 0.80026 0.64997 0.0
N1029 N 0.01977 0.8419 0.65617 0.0
C1030 C 0.99602 0.81352 0.6553 0.0
C1031 C 0.03246 0.80813 0.64814 0.0
C1032 C 1.00008 0.83454 0.65828 0.0
C1033 C 0.0359 0.82924 0.65124 0.0
C1034 C 0.96388 0.7593 0.60719 0.0
C1035 C 0.9287 0.74659 0.60516 0.0
N1036 N 0.92247 0.76519 0.59753 0.0
C1037 C 0.95718 0.77821 0.59911 0.0
C1038 C 0.94958 0.74329 0.61004 0.0
C1039 C 0.93616 0.78091 0.5944 0.0
C1040 C 0.02502 0.79071 0.57957 0.0
N1041 N 0.01375 0.79544 0.59675 0.0
C1042 C 1.00758 0.82964 0.58386 0.0
C1043 C 1.00502 0.81446 0.59911 0.0
C1044 C 0.01908 0.82515 0.56589 0.0
C1045 C 0.02798 0.80538 0.56398 0.0
H1046 H 0.03154 0.7754 0.57785 0.0
H1047 H 0.99558 0.81774 0.61252 0.0
C1048 C 0.95725 0.75002 0.67504 0.0
N1049 N 0.96134 0.76255 0.65861 0.0
C1050 C 0.93902 0.75258 0.68659 0.0
C1051 C 0.92961 0.78103 0.66426 0.0
C1052 C 0.94805 0.77799 0.65324 0.0
C1053 C 0.92483 0.76819 0.68116 0.0
H1054 H 0.96815 0.73802 0.67921 0.0
H1055 H 0.95181 0.7881 0.64048 0.0
C1056 C 0.05164 0.7504 0.61146 0.0
N1057 N 0.09398 0.74955 0.60428 0.0
C1058 C 0.06166 0.73164 0.60745 0.0
C1059 C 0.0631 0.76875 0.61144 0.0
C1060 C 0.08309 0.73152 0.60397 0.0
C1061 C 0.0845 0.768 0.60788 0.0
C1062 C 0.99986 0.71287 0.655 0.0
C1063 C 0.01599 0.70096 0.66322 0.0
C1064 C 0.98049 0.70378 0.65138 0.0
C1065 C 0.01258 0.68002 0.66732 0.0
C1066 C 0.97769 0.68279 0.65567 0.0
N1067 N 0.99367 0.67144 0.66346 0.0
C1068 C 0.05076 0.76698 0.67888 0.0
C1069 C 0.06382 0.73742 0.66159 0.0
C1070 C 0.06804 0.76737 0.69197 0.0
N1071 N 0.04915 0.75243 0.66376 0.0
C1072 C 0.08134 0.73714 0.67444 0.0
C1073 C 0.08378 0.75247 0.68969 0.0
H1074 H 0.03866 0.77842 0.68071 0.0
H1075 H 0.062 0.72568 0.64983 0.0
C1076 C 0.99001 0.70897 0.58722 0.0
N1077 N 1.003 0.70961 0.60382 0.0
C1078 C 0.98937 0.69149 0.57445 0.0
C1079 C 0.01537 0.67556 0.5962 0.0
C1080 C 0.0155 0.69333 0.60851 0.0
C1081 C 1.00236 0.67454 0.57872 0.0
H1082 H 0.98051 0.72224 0.58354 0.0
H1083 H 0.02595 0.69429 0.62157 0.0
O1084 O 1.00859 0.77964 0.6469 0.0
O1085 O 0.98438 0.75645 0.61207 0.0
O1086 O 0.03068 0.75079 0.61504 0.0
O1087 O 1.00297 0.73335 0.65069 0.0
H1088 H 0.98039 0.80768 0.65705 0.0
H1089 H 0.04534 0.79804 0.64457 0.0
H1090 H 0.98759 0.84499 0.66228 0.0
H1091 H 0.05141 0.83554 0.6498 0.0
H1092 H 0.91745 0.73436 0.6074 0.0
H1093 H 0.96804 0.79072 0.59666 0.0
H1094 H 0.95455 0.72845 0.61591 0.0
H1095 H 0.93074 0.79551 0.58827 0.0
H1096 H 1.00012 0.84451 0.58586 0.0
H1097 H 0.03716 0.80125 0.55054 0.0
H1098 H 0.93594 0.74227 0.69944 0.0
H1099 H 0.91935 0.79351 0.65976 0.0
H1100 H 0.05303 0.71731 0.60718 0.0
H1101 H 0.05554 0.78345 0.61393 0.0
H1102 H 0.09106 0.71709 0.60101 0.0
H1103 H 0.09356 0.78209 0.60789 0.0
H1104 H 0.03101 0.70778 0.66632 0.0
H1105 H 0.96776 0.71284 0.64537 0.0
H1106 H 0.02496 0.67059 0.67357 0.0
H1107 H 0.96281 0.67554 0.65284 0.0
H1108 H 0.06905 0.77921 0.70379 0.0
H1109 H 0.09308 0.72537 0.67212 0.0
H1110 H 0.97933 0.69155 0.561 0.0
H1111 H 0.02549 0.66281 0.60025 0.0
Li1112 Li 0.50715 0.27975 0.11749 0.0
Li1113 Li 0.48588 0.26063 0.14271 0.0
Li1114 Li 0.52533 0.25847 0.14385 0.0
Li1115 Li 0.50482 0.24048 0.11691 0.0
C1116 C 0.51057 0.30288 0.15366 0.0
N1117 N 0.51844 0.34356 0.1643 0.0
C1118 C 0.49448 0.31556 0.16073 0.0
C1119 C 0.53074 0.31079 0.15241 0.0
C1120 C 0.49874 0.33611 0.16591 0.0
C1121 C 0.53439 0.33141 0.15775 0.0
C1122 C 0.46164 0.26257 0.1091 0.0
C1123 C 0.42786 0.24639 0.1093 0.0
N1124 N 0.41903 0.26482 0.10425 0.0
C1125 C 0.45226 0.28128 0.10367 0.0
C1126 C 0.44938 0.24493 0.11172 0.0
C1127 C 0.43068 0.28213 0.10137 0.0
C1128 C 0.52215 0.3058 0.08491 0.0
N1129 N 0.50879 0.30459 0.1012 0.0
C1130 C 0.49774 0.33944 0.09548 0.0
C1131 C 0.49644 0.32084 0.10637 0.0
C1132 C 0.51191 0.34146 0.07902 0.0
C1133 C 0.52405 0.32418 0.07362 0.0
H1134 H 0.53153 0.29256 0.08079 0.0
H1135 H 0.4855 0.31937 0.11897 0.0
C1136 C 0.45732 0.24596 0.17262 0.0
N1137 N 0.46104 0.26174 0.15922 0.0
C1138 C 0.43925 0.24577 0.18462 0.0
C1139 C 0.42934 0.27838 0.16931 0.0
C1140 C 0.44756 0.27786 0.15747 0.0
C1141 C 0.42492 0.26208 0.18299 0.0
H1142 H 0.4684 0.23351 0.17405 0.0
H1143 H 0.45086 0.29028 0.14678 0.0
C1144 C 0.55029 0.25946 0.10848 0.0
N1145 N 0.59222 0.26075 0.09919 0.0
C1146 C 0.56045 0.24175 0.1013 0.0
C1147 C 0.5614 0.27793 0.11053 0.0
C1148 C 0.58167 0.24268 0.0968 0.0
C1149 C 0.5826 0.27824 0.10586 0.0
C1150 C 0.50409 0.21524 0.15055 0.0
C1151 C 0.52184 0.20524 0.15798 0.0
C1152 C 0.48623 0.2037 0.14626 0.0
C1153 C 0.52155 0.1838 0.16061 0.0
C1154 C 0.48656 0.18228 0.14906 0.0
N1155 N 0.50408 0.17285 0.1561 0.0
C1156 C 0.54917 0.26855 0.1793 0.0
C1157 C 0.56573 0.2446 0.157 0.0
C1158 C 0.56628 0.26844 0.19264 0.0
N1159 N 0.5493 0.257 0.16169 0.0
C1160 C 0.58311 0.24388 0.17001 0.0
C1161 C 0.58362 0.25608 0.18801 0.0
H1162 H 0.53575 0.27789 0.18302 0.0
H1163 H 0.56531 0.23508 0.14327 0.0
C1164 C 0.48996 0.21535 0.08373 0.0
N1165 N 0.50402 0.21642 0.09943 0.0
C1166 C 0.4894 0.19808 0.07066 0.0
C1167 C 0.51778 0.18332 0.09015 0.0
C1168 C 0.5178 0.20084 0.10279 0.0
C1169 C 0.50355 0.18179 0.0737 0.0
H1170 H 0.47933 0.22803 0.08117 0.0
H1171 H 0.52898 0.20207 0.1152 0.0
O1172 O 0.50663 0.28275 0.14832 0.0
O1173 O 0.48272 0.26152 0.11177 0.0
O1174 O 0.52953 0.25878 0.1131 0.0
O1175 O 0.50417 0.23623 0.1477 0.0
H1176 H 0.47883 0.30967 0.16209 0.0
H1177 H 0.54349 0.30107 0.14762 0.0
H1178 H 0.48639 0.34614 0.17124 0.0
H1179 H 0.54993 0.33773 0.15677 0.0
H1180 H 0.41818 0.23288 0.11142 0.0
H1181 H 0.46149 0.29503 0.10133 0.0
H1182 H 0.45639 0.23026 0.11555 0.0
H1183 H 0.42321 0.29655 0.09731 0.0
H1184 H 0.48766 0.3521 0.09991 0.0
H1185 H 0.53526 0.32498 0.06114 0.0
H1186 H 0.43664 0.23306 0.19523 0.0
H1187 H 0.41867 0.2912 0.16751 0.0
H1188 H 0.55211 0.2274 0.09931 0.0
H1189 H 0.55372 0.29194 0.11542 0.0
H1190 H 0.58974 0.22903 0.09138 0.0
H1191 H 0.59137 0.29243 0.10746 0.0
H1192 H 0.53571 0.21391 0.16164 0.0
H1193 H 0.47227 0.21117 0.14083 0.0
H1194 H 0.53523 0.17586 0.16624 0.0
H1195 H 0.47288 0.17316 0.14567 0.0
H1196 H 0.56583 0.2778 0.20655 0.0
H1197 H 0.59613 0.23412 0.16583 0.0
H1198 H 0.47834 0.19772 0.05803 0.0
H1199 H 0.52881 0.17106 0.09328 0.0
H1200 H 0.23417 0.73634 0.8507 0.0
H1201 H 0.24023 0.78136 0.80135 0.0
H1202 H 0.24812 0.80855 0.82702 0.0
H1203 H 0.20818 0.76933 0.88561 0.0
H1204 H 0.22065 0.75973 0.90868 0.0
H1205 H 0.21772 0.74313 0.88648 0.0
H1206 H 0.25742 0.73654 0.88596 0.0
H1207 H 0.26045 0.75303 0.90828 0.0
H1208 H 0.27503 0.7582 0.885 0.0
H1209 H 0.25262 0.8313 0.85761 0.0
H1210 H 0.25411 0.84847 0.89165 0.0
H1211 H 0.24462 0.78932 0.92199 0.0
C1212 C 0.23766 0.75184 0.84539 0.0
C1213 C 0.23678 0.75682 0.82409 0.0
C1214 C 0.24093 0.77731 0.81762 0.0
C1215 C 0.24544 0.79282 0.83207 0.0
C1216 C 0.24573 0.78761 0.85298 0.0
C1217 C 0.24205 0.76764 0.85971 0.0
C1218 C 0.24207 0.76663 0.88323 0.0
C1219 C 0.22089 0.75927 0.89148 0.0
C1220 C 0.2598 0.75278 0.89108 0.0
C1221 C 0.24596 0.78919 0.88857 0.0
C1222 C 0.24814 0.80094 0.87084 0.0
C1223 C 0.25106 0.82226 0.87163 0.0
C1224 C 0.25172 0.8319 0.89105 0.0
C1225 C 0.2494 0.82029 0.90951 0.0
C1226 C 0.24667 0.79859 0.90818 0.0
H1227 H 1.00346 0.55438 0.42476 0.0
H1228 H 0.99746 0.49206 0.449 0.0
H1229 H 0.02063 0.47917 0.42144 0.0
H1230 H 1.00472 0.54009 0.37034 0.0
H1231 H 0.02363 0.55953 0.36361 0.0
H1232 H 1.00604 0.56385 0.3849 0.0
H1233 H 0.03731 0.57035 0.40932 0.0
H1234 H 0.05499 0.56602 0.38813 0.0
H1235 H 0.05735 0.55099 0.41152 0.0
H1236 H 0.04551 0.47316 0.39228 0.0
H1237 H 0.06945 0.47419 0.36245 0.0
H1238 H 0.05951 0.54033 0.35679 0.0
C1239 C 1.00701 0.53802 0.42424 0.0
C1240 C 0.99852 0.52421 0.439 0.0
C1241 C 1.00346 0.50289 0.4377 0.0
C1242 C 0.01673 0.49543 0.42217 0.0
C1243 C 0.02491 0.50945 0.40797 0.0
C1244 C 0.02017 0.53028 0.40876 0.0
C1245 C 0.03119 0.54204 0.39165 0.0
C1246 C 0.01545 0.55196 0.37674 0.0
C1247 C 0.0461 0.55831 0.4007 0.0
C1248 C 0.043 0.5246 0.38125 0.0
C1249 C 0.03917 0.50595 0.39097 0.0
C1250 C 0.0486 0.48767 0.38451 0.0
C1251 C 0.06228 0.48843 0.36764 0.0
C1252 C 0.06642 0.50734 0.35733 0.0
C1253 C 0.05653 0.52562 0.36424 0.0
H1254 H 0.79376 0.74618 0.8245 0.0
H1255 H 0.81385 0.80191 0.85603 0.0
H1256 H 0.81384 0.78319 0.88941 0.0
H1257 H 0.75848 0.73009 0.86342 0.0
H1258 H 0.76362 0.70283 0.8606 0.0
H1259 H 0.76713 0.71993 0.83888 0.0
H1260 H 0.8052 0.7075 0.83495 0.0
H1261 H 0.80179 0.69029 0.85664 0.0
H1262 H 0.82254 0.70902 0.85682 0.0
H1263 H 0.81041 0.75906 0.91934 0.0
H1264 H 0.80288 0.73133 0.94434 0.0
H1265 H 0.78298 0.69146 0.89389 0.0
C1266 C 0.79852 0.75424 0.83842 0.0
C1267 C 0.80399 0.7754 0.83778 0.0
C1268 C 0.80969 0.78567 0.85629 0.0
C1269 C 0.80977 0.77517 0.87527 0.0
C1270 C 0.80398 0.75441 0.87549 0.0
C1271 C 0.79842 0.74402 0.8576 0.0
C1272 C 0.79159 0.72208 0.86241 0.0
C1273 C 0.76886 0.71853 0.85595 0.0
C1274 C 0.80615 0.70629 0.85209 0.0
C1275 C 0.79398 0.72186 0.88579 0.0
C1276 C 0.80135 0.74061 0.89295 0.0
C1277 C 0.80458 0.74431 0.91394 0.0
C1278 C 0.80006 0.72848 0.92805 0.0
C1279 C 0.79212 0.70918 0.92121 0.0
C1280 C 0.78922 0.70589 0.8997 0.0
H1281 H 0.99375 0.96584 0.43423 0.0
H1282 H 0.05395 0.98489 0.41062 0.0
H1283 H 0.03782 0.99403 0.3772 0.0
H1284 H 0.97484 0.94322 0.38641 0.0
H1285 H 0.94854 0.95207 0.39012 0.0
H1286 H 0.96479 0.94682 0.41223 0.0
H1287 H 0.95837 0.98395 0.4259 0.0
H1288 H 0.9421 0.98931 0.40385 0.0
H1289 H 0.96403 1.00574 0.40943 0.0
H1290 H 0.01539 1.00112 0.34641 0.0
H1291 H 0.98796 1.00622 0.32027 0.0
H1292 H 0.94198 0.98298 0.36366 0.0
C1293 C 1.00355 0.97178 0.42196 0.0
C1294 C 0.02513 0.97472 0.42509 0.0
C1295 C 0.03736 0.98277 0.40871 0.0
C1296 C 0.02837 0.98789 0.38962 0.0
C1297 C 1.00709 0.98489 0.38708 0.0
C1298 C 0.9948 0.97704 0.40277 0.0
C1299 C 0.97225 0.97565 0.39603 0.0
C1300 C 0.96467 0.9531 0.39621 0.0
C1301 C 0.95837 0.98949 0.40961 0.0
C1302 C 0.9738 0.98395 0.37411 0.0
C1303 C 0.99406 0.98913 0.36928 0.0
C1304 C 0.99944 0.9972 0.35003 0.0
C1305 C 0.9837 1.00018 0.33533 0.0
C1306 C 0.96274 0.99519 0.33991 0.0
C1307 C 0.95784 0.98682 0.35959 0.0
H1308 H 0.22148 0.25263 0.69136 0.0
H1309 H 0.23979 0.31007 0.66186 0.0
H1310 H 0.2455 0.29145 0.62893 0.0
H1311 H 0.25918 0.2207 0.66566 0.0
H1312 H 0.24218 0.19868 0.66312 0.0
H1313 H 0.23868 0.21656 0.68425 0.0
H1314 H 0.20041 0.22235 0.67324 0.0
H1315 H 0.20377 0.20443 0.65212 0.0
H1316 H 0.19473 0.23032 0.64709 0.0
H1317 H 0.24924 0.26685 0.59929 0.0
H1318 H 0.25177 0.2375 0.57494 0.0
H1319 H 0.23208 0.19556 0.62358 0.0
C1320 C 0.22651 0.26126 0.67789 0.0
C1321 C 0.23019 0.28279 0.67911 0.0
C1322 C 0.23703 0.29355 0.66126 0.0
C1323 C 0.24024 0.28313 0.64249 0.0
C1324 C 0.23668 0.26189 0.64182 0.0
C1325 C 0.23004 0.25102 0.65903 0.0
C1326 C 0.22799 0.22814 0.65419 0.0
C1327 C 0.2429 0.21527 0.6676 0.0
C1328 C 0.20538 0.22089 0.65681 0.0
C1329 C 0.2345 0.22789 0.6316 0.0
C1330 C 0.2393 0.24756 0.62477 0.0
C1331 C 0.24551 0.25136 0.60445 0.0
C1332 C 0.24682 0.23462 0.59071 0.0
C1333 C 0.24209 0.21427 0.59735 0.0
C1334 C 0.23594 0.21092 0.61812 0.0
H1335 H 0.51653 0.52252 0.58253 0.0
H1336 H 0.52025 0.58947 0.57905 0.0
H1337 H 0.49627 0.59229 0.60875 0.0
H1338 H 0.46227 0.51951 0.59672 0.0
H1339 H 0.46591 0.49809 0.61421 0.0
H1340 H 0.48298 0.50126 0.59232 0.0
H1341 H 0.51486 0.50111 0.61683 0.0
H1342 H 0.49789 0.49789 0.63878 0.0
H1343 H 0.51591 0.51923 0.63804 0.0
H1344 H 0.47267 0.58793 0.63937 0.0
H1345 H 0.45081 0.5767 0.66869 0.0
H1346 H 0.46263 0.51255 0.65275 0.0
C1347 C 0.51238 0.53778 0.58806 0.0
C1348 C 0.52025 0.55579 0.57835 0.0
C1349 C 0.51421 0.57545 0.58598 0.0
C1350 C 0.50067 0.57722 0.60292 0.0
C1351 C 0.49324 0.55918 0.61211 0.0
C1352 C 0.49884 0.53983 0.60496 0.0
C1353 C 0.48879 0.5229 0.61779 0.0
C1354 C 0.47411 0.50966 0.60446 0.0
C1355 C 0.50535 0.5095 0.62849 0.0
C1356 C 0.47678 0.53577 0.63336 0.0
C1357 C 0.47958 0.55666 0.62979 0.0
C1358 C 0.47037 0.57161 0.64232 0.0
C1359 C 0.45807 0.56507 0.65901 0.0
C1360 C 0.45503 0.54374 0.66309 0.0
C1361 C 0.46445 0.52895 0.64993 0.0
H1362 H 0.81099 0.24906 0.66922 0.0
H1363 H 0.74937 0.24252 0.69573 0.0
H1364 H 0.73595 0.26849 0.67107 0.0
H1365 H 0.8079 0.30495 0.65898 0.0
H1366 H 0.82206 0.30293 0.63498 0.0
H1367 H 0.82709 0.28491 0.65567 0.0
H1368 H 0.8195 0.25436 0.63082 0.0
H1369 H 0.81436 0.27225 0.6101 0.0
H1370 H 0.79501 0.2534 0.61728 0.0
H1371 H 0.72882 0.29357 0.64229 0.0
H1372 H 0.7285 0.31633 0.61161 0.0
H1373 H 0.79476 0.3066 0.60369 0.0
C1374 C 0.79477 0.25342 0.67014 0.0
C1375 C 0.78123 0.2438 0.68446 0.0
C1376 C 0.75999 0.24959 0.68481 0.0
C1377 C 0.75226 0.26439 0.67094 0.0
C1378 C 0.76595 0.27333 0.65681 0.0
C1379 C 0.78678 0.26815 0.65636 0.0
C1380 C 0.79798 0.27934 0.639 0.0
C1381 C 0.81475 0.2939 0.64768 0.0
C1382 C 0.80725 0.26391 0.62338 0.0
C1383 C 0.78013 0.29141 0.62958 0.0
C1384 C 0.76182 0.28778 0.64017 0.0
C1385 C 0.74309 0.29661 0.63396 0.0
C1386 C 0.74304 0.3094 0.61642 0.0
C1387 C 0.76158 0.31325 0.60522 0.0
C1388 C 0.78038 0.30422 0.61208 0.0
H1389 H 0.49386 0.99156 0.58719 0.0
H1390 H 0.49314 0.92463 0.58217 0.0
H1391 H 0.51792 0.92224 0.61127 0.0
H1392 H 0.5482 0.99656 0.59956 0.0
H1393 H 0.54436 0.01751 0.6176 0.0
H1394 H 0.5266 0.01402 0.59631 0.0
H1395 H 0.49571 0.01239 0.622 0.0
H1396 H 0.51336 0.01595 0.64336 0.0
H1397 H 0.49622 0.9939 0.64288 0.0
H1398 H 0.54231 0.92704 0.64121 0.0
H1399 H 0.56507 0.93874 0.66968 0.0
H1400 H 0.5499 1.00257 0.65544 0.0
C1401 C 0.49882 0.9764 0.59231 0.0
C1402 C 0.49159 0.95827 0.58237 0.0
C1403 C 0.49866 0.93873 0.58937 0.0
C1404 C 0.51265 0.93721 0.60595 0.0
C1405 C 0.5195 0.95537 0.61536 0.0
C1406 C 0.51286 0.9746 0.60879 0.0
C1407 C 0.52267 0.99171 0.62155 0.0
C1408 C 0.53627 1.00577 0.60794 0.0
C1409 C 0.50599 1.00422 0.63314 0.0
C1410 C 0.53578 0.97908 0.63638 0.0
C1411 C 0.53369 0.95815 0.63255 0.0
C1412 C 0.54406 0.94339 0.64437 0.0
C1413 C 0.55687 0.95018 0.66057 0.0
C1414 C 0.55925 0.97156 0.66483 0.0
C1415 C 0.54858 0.98614 0.65244 0.0
H1416 H 0.83139 0.24364 0.74453 0.0
H1417 H 0.8466 0.18314 0.71971 0.0
H1418 H 0.87949 0.18326 0.73932 0.0
H1419 H 0.88496 0.26404 0.74482 0.0
H1420 H 0.8813 0.27784 0.76881 0.0
H1421 H 0.8596 0.27372 0.75166 0.0
H1422 H 0.83915 0.2564 0.78156 0.0
H1423 H 0.86082 0.26034 0.79875 0.0
H1424 H 0.85045 0.23471 0.79501 0.0
H1425 H 0.90942 0.18873 0.76309 0.0
H1426 H 0.93536 0.19974 0.78896 0.0
H1427 H 0.90118 0.25679 0.79871 0.0
C1428 C 0.84186 0.23063 0.74294 0.0
C1429 C 0.83644 0.21335 0.73064 0.0
C1430 C 0.85037 0.19644 0.72919 0.0
C1431 C 0.86912 0.19641 0.7402 0.0
C1432 C 0.8738 0.21344 0.75255 0.0
C1433 C 0.86069 0.23031 0.75391 0.0
C1434 C 0.86912 0.24622 0.76902 0.0
C1435 C 0.87404 0.26666 0.75791 0.0
C1436 C 0.85398 0.2496 0.78716 0.0
C1437 C 0.88883 0.23548 0.77613 0.0
C1438 C 0.89122 0.21662 0.76635 0.0
C1439 C 0.9078 0.20352 0.77078 0.0
C1440 C 0.92236 0.20984 0.78562 0.0
C1441 C 0.92028 0.22909 0.79591 0.0
C1442 C 0.90332 0.2421 0.79094 0.0
H1443 H 0.47265 0.90643 0.52997 0.0
H1444 H 0.46538 0.9595 0.48959 0.0
H1445 H 0.47171 0.93714 0.45907 0.0
H1446 H 0.51336 0.88132 0.50167 0.0
H1447 H 0.50352 0.85559 0.50605 0.0
H1448 H 0.49845 0.87575 0.52464 0.0
H1449 H 0.45887 0.86903 0.52146 0.0
H1450 H 0.46383 0.84878 0.50294 0.0
H1451 H 0.44676 0.86985 0.4963 0.0
H1452 H 0.48039 0.90922 0.43322 0.0
H1453 H 0.48822 0.87757 0.41355 0.0
H1454 H 0.48755 0.84214 0.47074 0.0
C1455 C 0.47244 0.91332 0.51469 0.0
C1456 C 0.46864 0.9347 0.51208 0.0
C1457 C 0.46818 0.94314 0.49186 0.0
C1458 C 0.47185 0.93059 0.47449 0.0
C1459 C 0.47571 0.90959 0.47761 0.0
C1460 C 0.4758 0.90098 0.49719 0.0
C1461 C 0.47988 0.8779 0.49627 0.0
C1462 C 0.5 0.87232 0.50784 0.0
C1463 C 0.46122 0.86567 0.50474 0.0
C1464 C 0.48227 0.8749 0.47311 0.0
C1465 C 0.47994 0.89339 0.46266 0.0
C1466 C 0.48195 0.8946 0.44123 0.0
C1467 C 0.48626 0.87643 0.43016 0.0
C1468 C 0.48828 0.85712 0.44044 0.0
C1469 C 0.4863 0.85653 0.46229 0.0
H1470 H 0.18281 0.27129 0.74252 0.0
H1471 H 0.18352 0.33831 0.73944 0.0
H1472 H 0.15158 0.3397 0.76048 0.0
H1473 H 0.12575 0.26533 0.74059 0.0
H1474 H 0.12561 0.24411 0.75868 0.0
H1475 H 0.14778 0.24818 0.7421 0.0
H1476 H 0.17176 0.2495 0.7743 0.0
H1477 H 0.14967 0.24557 0.79097 0.0
H1478 H 0.16625 0.26773 0.79471 0.0
H1479 H 0.12118 0.33427 0.78347 0.0
H1480 H 0.0931 0.32219 0.80646 0.0
H1481 H 0.11141 0.25857 0.79512 0.0
C1482 C 0.17598 0.28619 0.746 0.0
C1483 C 0.18566 0.30471 0.73943 0.0
C1484 C 0.17646 0.32396 0.7445 0.0
C1485 C 0.15828 0.32491 0.75636 0.0
C1486 C 0.14938 0.30646 0.76302 0.0
C1487 C 0.15777 0.28744 0.75796 0.0
C1488 C 0.14544 0.27005 0.76791 0.0
C1489 C 0.13556 0.25609 0.75133 0.0
C1490 C 0.1591 0.25748 0.78286 0.0
C1491 C 0.12903 0.28233 0.77953 0.0
C1492 C 0.13162 0.3033 0.77639 0.0
C1493 C 0.11891 0.31788 0.78597 0.0
C1494 C 0.1031 0.31087 0.79913 0.0
C1495 C 0.10009 0.28945 0.80266 0.0
C1496 C 0.11319 0.27502 0.79256 0.0
H1497 H 0.54288 0.60874 0.52774 0.0
H1498 H 0.54657 0.55658 0.48566 0.0
H1499 H 0.54231 0.58028 0.45586 0.0
H1500 H 0.50454 0.63768 0.49988 0.0
H1501 H 0.5162 0.66246 0.50522 0.0
H1502 H 0.51957 0.64141 0.52315 0.0
H1503 H 0.55955 0.6454 0.52051 0.0
H1504 H 0.55631 0.66647 0.50255 0.0
H1505 H 0.57186 0.64439 0.49544 0.0
H1506 H 0.53586 0.60947 0.43083 0.0
H1507 H 0.52999 0.64238 0.41214 0.0
H1508 H 0.53242 0.67583 0.4703 0.0
C1509 C 0.54274 0.60234 0.51224 0.0
C1510 C 0.54495 0.58083 0.50895 0.0
C1511 C 0.54498 0.57303 0.48846 0.0
C1512 C 0.5425 0.58635 0.47148 0.0
C1513 C 0.54029 0.60747 0.47524 0.0
C1514 C 0.5406 0.61546 0.4951 0.0
C1515 C 0.53824 0.6388 0.49487 0.0
C1516 C 0.51846 0.64547 0.50646 0.0
C1517 C 0.55765 0.64938 0.50387 0.0
C1518 C 0.53633 0.64268 0.4718 0.0
C1519 C 0.5374 0.62438 0.46076 0.0
C1520 C 0.53519 0.62391 0.43929 0.0
C1521 C 0.53181 0.64262 0.42882 0.0
C1522 C 0.53092 0.66157 0.43979 0.0
C1523 C 0.53334 0.66156 0.46154 0.0
H1524 H 0.85424 0.78149 0.78239 0.0
H1525 H 0.80241 0.79466 0.74147 0.0
H1526 H 0.82499 0.78844 0.71114 0.0
H1527 H 0.89292 0.80605 0.7523 0.0
H1528 H 0.91288 0.78724 0.75766 0.0
H1529 H 0.8924 0.79157 0.77616 0.0
H1530 H 0.88304 0.75261 0.77528 0.0
H1531 H 0.90356 0.74812 0.75682 0.0
H1532 H 0.87733 0.74039 0.75083 0.0
H1533 H 0.85359 0.78231 0.68527 0.0
H1534 H 0.886 0.77625 0.66571 0.0
H1535 H 0.91923 0.76699 0.72346 0.0
C1536 C 0.84752 0.78267 0.76706 0.0
C1537 C 0.82652 0.78853 0.76432 0.0
C1538 C 0.81849 0.79036 0.74396 0.0
C1539 C 0.83116 0.78676 0.72664 0.0
C1540 C 0.85185 0.78128 0.72989 0.0
C1541 C 0.85997 0.77916 0.74959 0.0
C1542 C 0.8829 0.7738 0.74882 0.0
C1543 C 0.89604 0.79067 0.75935 0.0
C1544 C 0.88694 0.75246 0.75851 0.0
C1545 C 0.88645 0.77344 0.72562 0.0
C1546 C 0.86833 0.77774 0.71498 0.0
C1547 C 0.86785 0.77885 0.69343 0.0
C1548 C 0.88638 0.77552 0.68246 0.0
C1549 C 0.90519 0.77115 0.69302 0.0
C1550 C 0.90509 0.77 0.71491 0.0
H1551 H 0.03704 0.9372 0.51591 0.0
H1552 H 0.03382 0.90768 0.45556 0.0
H1553 H 0.02717 0.87412 0.47244 0.0
H1554 H 0.06417 0.8959 0.54134 0.0
H1555 H 0.05059 0.899 0.56556 0.0
H1556 H 0.05423 0.92091 0.54873 0.0
H1557 H 0.01448 0.92728 0.54842 0.0
H1558 H 0.01071 0.90537 0.56523 0.0
H1559 H 0.99724 0.90666 0.54079 0.0
H1560 H 0.02161 0.8436 0.49581 0.0
H1561 H 0.01745 0.81825 0.52401 0.0
H1562 H 0.02555 0.86725 0.56932 0.0
C1563 C 0.03501 0.92369 0.50622 0.0
C1564 C 0.03584 0.9252 0.48434 0.0
C1565 C 0.03288 0.90708 0.47229 0.0
C1566 C 0.02924 0.88789 0.48175 0.0
C1567 C 0.02861 0.88698 0.5033 0.0
C1568 C 0.03142 0.90438 0.5154 0.0
C1569 C 0.03037 0.89908 0.53826 0.0
C1570 C 0.05107 0.90401 0.54911 0.0
C1571 C 0.01211 0.91026 0.54879 0.0
C1572 C 0.02661 0.87596 0.53712 0.0
C1573 C 0.02562 0.86932 0.5168 0.0
C1574 C 0.02242 0.84861 0.51178 0.0
C1575 C 0.02022 0.83429 0.52794 0.0
C1576 C 0.02129 0.84066 0.54895 0.0
C1577 C 0.02446 0.86186 0.55348 0.0
H1578 H 0.176 0.70923 0.76151 0.0
H1579 H 0.19776 0.77267 0.76607 0.0
H1580 H 0.1689 0.78407 0.74385 0.0
H1581 H 0.16044 0.71219 0.7075 0.0
H1582 H 0.1379 0.69599 0.71089 0.0
H1583 H 0.16024 0.69261 0.72737 0.0
H1584 H 0.13702 0.69759 0.75977 0.0
H1585 H 0.11462 0.70101 0.74339 0.0
H1586 H 0.12138 0.7206 0.76209 0.0
H1587 H 0.13769 0.78894 0.72162 0.0
H1588 H 0.10623 0.78682 0.69993 0.0
H1589 H 0.10459 0.72028 0.70879 0.0
C1590 C 0.17477 0.72549 0.75772 0.0
C1591 C 0.18906 0.74007 0.76583 0.0
C1592 C 0.18679 0.76123 0.76052 0.0
C1593 C 0.17052 0.76788 0.74775 0.0
C1594 C 0.15664 0.75319 0.74021 0.0
C1595 C 0.15859 0.73243 0.74489 0.0
C1596 C 0.14146 0.71992 0.73464 0.0
C1597 C 0.15056 0.70425 0.71918 0.0
C1598 C 0.12781 0.70915 0.75095 0.0
C1599 C 0.12959 0.73693 0.72357 0.0
C1600 C 0.13864 0.75599 0.72706 0.0
C1601 C 0.13044 0.77411 0.71876 0.0
C1602 C 0.11248 0.77276 0.70657 0.0
C1603 C 0.10286 0.75342 0.70271 0.0
C1604 C 0.11166 0.73527 0.7113 0.0
H1605 H 0.95656 0.58679 0.50369 0.0
H1606 H 0.01988 0.5648 0.49611 0.0
H1607 H 0.03243 0.59299 0.51857 0.0
H1608 H 0.9686 0.64151 0.50457 0.0
H1609 H 0.94946 0.64744 0.52406 0.0
H1610 H 0.94543 0.62598 0.50671 0.0
H1611 H 0.94105 0.6014 0.53809 0.0
H1612 H 0.94508 0.62277 0.55554 0.0
H1613 H 0.96126 0.60009 0.55738 0.0
H1614 H 0.03815 0.62288 0.54258 0.0
H1615 H 0.0367 0.65292 0.56606 0.0
H1616 H 0.96961 0.65505 0.55911 0.0
C1617 C 0.97307 0.58788 0.50676 0.0
C1618 C 0.98723 0.57361 0.49794 0.0
C1619 C 0.00873 0.57573 0.50229 0.0
C1620 C 0.01602 0.59162 0.51517 0.0
C1621 C 1.00165 0.6053 0.52367 0.0
C1622 C 0.98063 0.60365 0.51963 0.0
C1623 C 0.96847 0.62023 0.53101 0.0
C1624 C 0.95734 0.63464 0.51567 0.0
C1625 C 0.95306 0.61054 0.54642 0.0
C1626 C 0.98594 0.63137 0.54216 0.0
C1627 C 1.00494 0.62249 0.53769 0.0
C1628 C 0.02335 0.62994 0.54624 0.0
C1629 C 0.02234 0.64693 0.55971 0.0
C1630 C 1.00304 0.65633 0.56458 0.0
C1631 C 0.98463 0.64837 0.55559 0.0
H1632 H 0.73859 0.85265 0.22377 0.0
H1633 H 0.78246 0.80207 0.21684 0.0
H1634 H 0.81153 0.82654 0.22092 0.0
H1635 H 0.76837 0.89113 0.19675 0.0
H1636 H 0.76136 0.91186 0.21407 0.0
H1637 H 0.74384 0.89047 0.21024 0.0
H1638 H 0.74331 0.88367 0.24978 0.0
H1639 H 0.76076 0.90509 0.25374 0.0
H1640 H 0.76747 0.8798 0.26335 0.0
H1641 H 0.83593 0.85637 0.22565 0.0
H1642 H 0.85402 0.88949 0.23124 0.0
H1643 H 0.79448 0.92064 0.23683 0.0
C1644 C 0.7543 0.84667 0.22325 0.0
C1645 C 0.75816 0.82538 0.21978 0.0
C1646 C 0.77902 0.81832 0.21903 0.0
C1647 C 0.79567 0.83209 0.22149 0.0
C1648 C 0.79131 0.85292 0.2248 0.0
C1649 C 0.77115 0.8602 0.22577 0.0
C1650 C 0.77078 0.88333 0.22973 0.0
C1651 C 0.76048 0.89487 0.21161 0.0
C1652 C 0.75994 0.88826 0.25038 0.0
C1653 C 0.79388 0.88789 0.23081 0.0
C1654 C 0.80542 0.87012 0.22789 0.0
C1655 C 0.82706 0.87038 0.2281 0.0
C1656 C 0.8372 0.88928 0.23144 0.0
C1657 C 0.82576 0.90776 0.23465 0.0
C1658 C 0.80376 0.90692 0.23426 0.0
H1659 H 0.74825 0.17114 0.3053 0.0
H1660 H 0.74948 0.20089 0.24505 0.0
H1661 H 0.7725 0.17334 0.23189 0.0
H1662 H 0.80182 0.15489 0.30546 0.0
H1663 H 0.79661 0.13059 0.31811 0.0
H1664 H 0.77998 0.15251 0.3228 0.0
H1665 H 0.74796 0.13097 0.31153 0.0
H1666 H 0.76449 0.10898 0.30682 0.0
H1667 H 0.7479 0.11861 0.2865 0.0
H1668 H 0.79592 0.14304 0.22539 0.0
H1669 H 0.81772 0.11175 0.22576 0.0
H1670 H 0.80097 0.10107 0.29006 0.0
C1671 C 0.75344 0.17191 0.28937 0.0
C1672 C 0.74695 0.18818 0.27619 0.0
C1673 C 0.75396 0.18847 0.25537 0.0
C1674 C 0.76715 0.17294 0.24778 0.0
C1675 C 0.77322 0.15717 0.26116 0.0
C1676 C 0.76658 0.15649 0.2815 0.0
C1677 C 0.77538 0.13775 0.29259 0.0
C1678 C 0.78927 0.14434 0.31082 0.0
C1679 C 0.75789 0.12322 0.29978 0.0
C1680 C 0.78807 0.12806 0.27532 0.0
C1681 C 0.7866 0.13954 0.25734 0.0
C1682 C 0.79706 0.13383 0.23934 0.0
C1683 C 0.80931 0.1159 0.23968 0.0
C1684 C 0.811 0.10372 0.25787 0.0
C1685 C 0.80019 0.11003 0.27592 0.0
H1686 H 0.42318 0.01319 0.95858 0.0
H1687 H 0.44931 0.01852 0.02032 0.0
H1688 H 0.42213 0.99512 0.03374 0.0
H1689 H 0.36902 0.01158 0.97451 0.0
H1690 H 0.36179 0.99307 0.9549 0.0
H1691 H 0.38294 0.01075 0.95028 0.0
H1692 H 0.40735 0.97984 0.94252 0.0
H1693 H 0.38631 0.96208 0.94718 0.0
H1694 H 0.41023 0.9596 0.96149 0.0
H1695 H 0.39318 0.96982 0.04014 0.0
H1696 H 0.36326 0.94587 0.03946 0.0
H1697 H 0.35566 0.95714 0.97365 0.0
C1698 C 0.42314 0.00946 0.97493 0.0
C1699 C 0.43834 0.01775 0.98842 0.0
C1700 C 0.43767 0.01261 0.00975 0.0
C1701 C 0.42237 0.99922 0.01749 0.0
C1702 C 0.40775 0.99117 1.00374 0.0
C1703 C 0.40789 0.99622 0.98295 0.0
C1704 C 0.39045 0.98537 0.97147 0.0
C1705 C 0.37514 1.00114 0.96225 0.0
C1706 C 0.39911 0.97086 0.95467 0.0
C1707 C 0.3806 0.97329 0.98903 0.0
C1708 C 0.39088 0.97681 0.0075 0.0
C1709 C 0.38496 0.96701 0.02579 0.0
C1710 C 0.36805 0.95333 0.02522 0.0
C1711 C 0.35714 0.94963 0.00652 0.0
C1712 C 0.36356 0.95982 0.98822 0.0
H1713 H 0.26452 0.32207 0.26984 0.0
H1714 H 0.28363 0.33144 0.33365 0.0
H1715 H 0.26244 0.36315 0.3353 0.0
H1716 H 0.26469 0.37656 0.25526 0.0
H1717 H 0.24215 0.37421 0.23885 0.0
H1718 H 0.25918 0.35239 0.24246 0.0
H1719 H 0.22796 0.33023 0.25471 0.0
H1720 H 0.21086 0.35199 0.25119 0.0
H1721 H 0.21218 0.33922 0.27597 0.0
H1722 H 0.23868 0.39331 0.33049 0.0
H1723 H 0.21409 0.42033 0.31934 0.0
H1724 H 0.21028 0.39186 0.25854 0.0
C1725 C 0.26444 0.33093 0.28407 0.0
C1726 C 0.27566 0.32415 0.30167 0.0
C1727 C 0.27492 0.33609 0.32008 0.0
C1728 C 0.26303 0.35422 0.32114 0.0
C1729 C 0.25199 0.36032 0.30363 0.0
C1730 C 0.25262 0.34911 0.28541 0.0
C1731 C 0.23899 0.35898 0.26897 0.0
C1732 C 0.25204 0.36595 0.25028 0.0
C1733 C 0.22146 0.34422 0.26233 0.0
C1734 C 0.23052 0.37739 0.28087 0.0
C1735 C 0.23827 0.37784 0.30082 0.0
C1736 C 0.2325 0.39312 0.3149 0.0
C1737 C 0.2184 0.40833 0.30846 0.0
C1738 C 0.21014 0.4082 0.2881 0.0
C1739 C 0.21644 0.39252 0.27413 0.0
H1740 H 0.09026 1.0001 0.45202 0.0
H1741 H 0.06594 0.98761 0.5135 0.0
H1742 H 0.0923 0.01094 0.52853 0.0
H1743 H 0.14405 1.00277 0.46622 0.0
H1744 H 0.15001 0.02359 0.44864 0.0
H1745 H 0.12932 1.0058 0.44266 0.0
H1746 H 0.10355 0.03639 0.43927 0.0
H1747 H 0.12417 0.05429 0.44518 0.0
H1748 H 0.10073 0.05433 0.46047 0.0
H1749 H 0.12131 0.03556 0.53693 0.0
H1750 H 0.15091 0.05972 0.53815 0.0
H1751 H 0.15562 0.05729 0.47108 0.0
C1752 C 0.09033 1.0024 0.46863 0.0
C1753 C 0.076 0.99193 0.48157 0.0
C1754 C 0.0769 0.99518 0.50327 0.0
C1755 C 0.09174 0.00851 0.51196 0.0
C1756 C 0.10559 0.01854 0.49876 0.0
C1757 C 0.10501 0.01568 0.47757 0.0
C1758 C 0.12168 0.02835 0.46684 0.0
C1759 C 0.13718 0.01428 0.45542 0.0
C1760 C 0.11194 0.04429 0.45207 0.0
C1761 C 0.13173 0.03878 0.48533 0.0
C1762 C 0.12221 0.0329 0.50359 0.0
C1763 C 0.12881 0.04038 0.52272 0.0
C1764 C 0.14556 0.05424 0.52323 0.0
C1765 C 0.15558 0.06061 0.50471 0.0
C1766 C 0.14847 0.05267 0.48554 0.0
H1767 H 0.74331 0.18599 0.72063 0.0
H1768 H 0.80033 0.1532 0.70622 0.0
H1769 H 0.78192 0.1199 0.70968 0.0
H1770 H 0.72549 0.15083 0.75919 0.0
H1771 H 0.69842 0.1528 0.75228 0.0
H1772 H 0.71569 0.1742 0.74752 0.0
H1773 H 0.70534 0.17402 0.70874 0.0
H1774 H 0.68799 0.15263 0.71339 0.0
H1775 H 0.70796 0.15053 0.69392 0.0
H1776 H 0.75792 0.09031 0.71557 0.0
H1777 H 0.72978 0.06593 0.72402 0.0
H1778 H 0.68812 0.1175 0.73555 0.0
C1779 C 0.7518 0.17178 0.71795 0.0
C1780 C 0.77325 0.17214 0.71318 0.0
C1781 C 0.78394 0.15324 0.71006 0.0
C1782 C 0.7736 0.13427 0.71189 0.0
C1783 C 0.75255 0.13442 0.71686 0.0
C1784 C 0.74172 0.15264 0.71986 0.0
C1785 C 0.71933 0.14832 0.72587 0.0
C1786 C 0.71446 0.15705 0.7475 0.0
C1787 C 0.70427 0.15688 0.7095 0.0
C1788 C 0.71936 0.12486 0.72593 0.0
C1789 C 0.73867 0.11722 0.72057 0.0
C1790 C 0.74273 0.09609 0.71982 0.0
C1791 C 0.72666 0.08236 0.72482 0.0
C1792 C 0.70675 0.08975 0.73064 0.0
C1793 C 0.70308 0.11134 0.731 0.0
H1794 H 0.42896 1.00106 0.5203 0.0
H1795 H 0.41902 0.97686 0.58219 0.0
H1796 H 0.38745 0.99826 0.58559 0.0
H1797 H 0.41212 0.05326 0.53145 0.0
H1798 H 0.39972 0.05686 0.50668 0.0
H1799 H 0.42156 0.03959 0.509 0.0
H1800 H 0.39959 0.00981 0.49345 0.0
H1801 H 0.37769 0.02698 0.49107 0.0
H1802 H 0.3751 1.00313 0.50527 0.0
H1803 H 0.35654 0.02144 0.58205 0.0
H1804 H 0.32888 0.04604 0.57227 0.0
H1805 H 0.35897 0.05601 0.51296 0.0
C1806 C 0.42008 1.00025 0.53452 0.0
C1807 C 0.42648 0.98734 0.55102 0.0
C1808 C 0.41455 0.98682 0.56946 0.0
C1809 C 0.39654 0.99884 0.5715 0.0
C1810 C 0.39068 0.01142 0.555 0.0
C1811 C 0.40212 0.01232 0.5369 0.0
C1812 C 0.39245 0.02734 0.52163 0.0
C1813 C 0.40735 0.04533 0.51692 0.0
C1814 C 0.38581 0.01614 0.50168 0.0
C1815 C 0.37375 0.03462 0.53394 0.0
C1816 C 0.373 0.02514 0.55311 0.0
C1817 C 0.35698 0.029 0.5671 0.0
C1818 C 0.3413 0.04291 0.56138 0.0
C1819 C 0.34177 0.05293 0.54188 0.0
C1820 C 0.35831 0.04875 0.52805 0.0
H1821 H 0.58191 0.5142 0.51294 0.0
H1822 H 0.58979 0.52971 0.57792 0.0
H1823 H 0.61981 0.50614 0.57991 0.0
H1824 H 0.59612 0.46018 0.51721 0.0
H1825 H 0.60979 0.45965 0.49285 0.0
H1826 H 0.58846 0.47731 0.49655 0.0
H1827 H 0.6123 0.50806 0.4867 0.0
H1828 H 0.6337 0.4905 0.48294 0.0
H1829 H 0.63629 0.51194 0.50061 0.0
H1830 H 0.64945 0.48169 0.57482 0.0
H1831 H 0.67672 0.45764 0.56304 0.0
H1832 H 0.65036 0.45821 0.50114 0.0
C1833 C 0.58998 0.51267 0.52758 0.0
C1834 C 0.58333 0.52374 0.54532 0.0
C1835 C 0.59427 0.52115 0.56421 0.0
C1836 C 0.61145 0.50788 0.56547 0.0
C1837 C 0.61757 0.49725 0.54772 0.0
C1838 C 0.60719 0.49945 0.52913 0.0
C1839 C 0.6172 0.48639 0.51233 0.0
C1840 C 0.60198 0.4699 0.50426 0.0
C1841 C 0.62536 0.50004 0.4946 0.0
C1842 C 0.6349 0.47663 0.52437 0.0
C1843 C 0.63479 0.48313 0.54476 0.0
C1844 C 0.64971 0.4765 0.55889 0.0
C1845 C 0.66523 0.46294 0.552 0.0
C1846 C 0.66579 0.45609 0.53113 0.0
C1847 C 0.65027 0.46299 0.51722 0.0
H1848 H 0.72517 0.27188 0.32029 0.0
H1849 H 0.73284 0.211 0.34748 0.0
H1850 H 0.73931 0.22709 0.38162 0.0
H1851 H 0.76502 0.29721 0.35019 0.0
H1852 H 0.7508 0.32109 0.35267 0.0
H1853 H 0.74678 0.30477 0.33041 0.0
H1854 H 0.70731 0.30359 0.33827 0.0
H1855 H 0.71121 0.31988 0.36057 0.0
H1856 H 0.69856 0.29517 0.36342 0.0
H1857 H 0.74406 0.24978 0.41292 0.0
H1858 H 0.74789 0.27731 0.439 0.0
H1859 H 0.73817 0.32365 0.39128 0.0
C1860 C 0.72808 0.26192 0.33345 0.0
C1861 C 0.72846 0.24015 0.33122 0.0
C1862 C 0.73266 0.2277 0.34878 0.0
C1863 C 0.73624 0.2367 0.36824 0.0
C1864 C 0.73569 0.25819 0.3699 0.0
C1865 C 0.73181 0.27066 0.35297 0.0
C1866 C 0.7323 0.29335 0.35891 0.0
C1867 C 0.74977 0.30477 0.34736 0.0
C1868 C 0.71108 0.30359 0.35507 0.0
C1869 C 0.73695 0.29171 0.38187 0.0
C1870 C 0.73879 0.27128 0.38788 0.0
C1871 C 0.74283 0.26583 0.40835 0.0
C1872 C 0.74515 0.28165 0.42305 0.0
C1873 C 0.74358 0.30277 0.41728 0.0
C1874 C 0.73934 0.30773 0.39633 0.0
H1875 H 0.49954 0.0589 0.92258 0.0
H1876 H 0.49608 0.99678 0.94781 0.0
H1877 H 0.51831 0.98406 0.91943 0.0
H1878 H 0.49891 0.04386 0.86821 0.0
H1879 H 0.51705 0.06367 0.86051 0.0
H1880 H 0.50019 0.06785 0.8824 0.0
H1881 H 0.53221 0.07545 0.90552 0.0
H1882 H 0.54916 0.07125 0.88372 0.0
H1883 H 0.55279 0.05662 0.9072 0.0
H1884 H 0.54223 0.97828 0.88952 0.0
H1885 H 0.56523 0.97953 0.85895 0.0
H1886 H 0.55326 0.04527 0.85267 0.0
C1887 C 0.50342 0.04262 0.92208 0.0
C1888 C 0.49593 0.02881 0.93736 0.0
C1889 C 0.5013 0.00759 0.93611 0.0
C1890 C 0.51405 1.00023 0.92012 0.0
C1891 C 0.52126 0.01425 0.90541 0.0
C1892 C 0.51606 0.03497 0.90613 0.0
C1893 C 0.52613 0.04676 0.88846 0.0
C1894 C 0.50958 0.05608 0.87405 0.0
C1895 C 0.54095 0.06351 0.89672 0.0
C1896 C 0.53796 0.02946 0.87785 0.0
C1897 C 0.53494 0.01086 0.88794 0.0
C1898 C 0.54465 0.99274 0.88143 0.0
C1899 C 0.55779 0.99363 0.86414 0.0
C1900 C 0.56107 0.01249 0.85347 0.0
C1901 C 0.55089 0.0306 0.8604 0.0
H1902 H 0.26661 0.25659 0.34008 0.0
H1903 H 0.33396 0.25888 0.33863 0.0
H1904 H 0.33544 0.23596 0.36919 0.0
H1905 H 0.26082 0.25594 0.39592 0.0
H1906 H 0.23937 0.23801 0.39561 0.0
H1907 H 0.24354 0.25508 0.37396 0.0
H1908 H 0.24473 0.22359 0.34916 0.0
H1909 H 0.24057 0.20642 0.37073 0.0
H1910 H 0.26284 0.20292 0.35416 0.0
H1911 H 0.32968 0.21326 0.40002 0.0
H1912 H 0.31727 0.19114 0.42842 0.0
H1913 H 0.25351 0.20176 0.40892 0.0
C1914 C 0.28163 0.25236 0.34634 0.0
C1915 C 0.30019 0.2595 0.33704 0.0
C1916 C 0.31958 0.25345 0.34546 0.0
C1917 C 0.32057 0.24052 0.36285 0.0
C1918 C 0.30202 0.23364 0.37158 0.0
C1919 C 0.2829 0.23923 0.36358 0.0
C1920 C 0.26536 0.22913 0.37559 0.0
C1921 C 0.25145 0.24552 0.38588 0.0
C1922 C 0.25263 0.21465 0.36157 0.0
C1923 C 0.27761 0.21704 0.3916 0.0
C1924 C 0.29871 0.21998 0.38905 0.0
C1925 C 0.31319 0.21067 0.40205 0.0
C1926 C 0.30595 0.19794 0.41807 0.0
C1927 C 0.28437 0.19437 0.4209 0.0
C1928 C 0.27008 0.20419 0.40739 0.0
H1929 H 0.49842 0.4741 0.94294 0.0
H1930 H 0.55973 0.47865 0.91533 0.0
H1931 H 0.54376 0.48412 0.881 0.0
H1932 H 0.4735 0.44721 0.89928 0.0
H1933 H 0.44934 0.46098 0.90234 0.0
H1934 H 0.46561 0.45616 0.92454 0.0
H1935 H 0.46619 0.4954 0.93261 0.0
H1936 H 0.45011 0.50037 0.91035 0.0
H1937 H 0.4748 0.51327 0.91297 0.0
H1938 H 0.52134 0.491 0.85014 0.0
H1939 H 0.49397 0.49801 0.82444 0.0
H1940 H 0.44688 0.48835 0.87167 0.0
C1941 C 0.50847 0.47583 0.9296 0.0
C1942 C 0.53035 0.47594 0.93181 0.0
C1943 C 0.54295 0.47867 0.91403 0.0
C1944 C 0.53402 0.48171 0.89446 0.0
C1945 C 0.51243 0.48193 0.89287 0.0
C1946 C 0.49979 0.47895 0.90991 0.0
C1947 C 0.47702 0.48062 0.90401 0.0
C1948 C 0.4657 0.46001 0.90777 0.0
C1949 C 0.46641 0.49848 0.91568 0.0
C1950 C 0.47887 0.48527 0.88106 0.0
C1951 C 0.49945 0.48586 0.87497 0.0
C1952 C 0.50516 0.49033 0.85466 0.0
C1953 C 0.48945 0.49419 0.84014 0.0
C1954 C 0.46819 0.49356 0.8459 0.0
C1955 C 0.46294 0.48907 0.86673 0.0
H1956 H 0.74163 0.78033 0.16084 0.0
H1957 H 0.71602 0.73864 0.20696 0.0
H1958 H 0.7197 0.70953 0.1825 0.0
H1959 H 0.71786 0.75648 0.11629 0.0
H1960 H 0.74012 0.76029 0.09978 0.0
H1961 H 0.73513 0.77799 0.12075 0.0
H1962 H 0.77199 0.77119 0.13539 0.0
H1963 H 0.77711 0.7535 0.11444 0.0
H1964 H 0.77994 0.74503 0.14088 0.0
H1965 H 0.72655 0.68485 0.15328 0.0
H1966 H 0.73585 0.66629 0.12123 0.0
H1967 H 0.75798 0.72375 0.0943 0.0
C1968 C 0.7369 0.76506 0.16586 0.0
C1969 C 0.72846 0.76183 0.18585 0.0
C1970 C 0.72223 0.74161 0.19165 0.0
C1971 C 0.72438 0.72493 0.17791 0.0
C1972 C 0.73279 0.72867 0.15838 0.0
C1973 C 0.73895 0.74823 0.15233 0.0
C1974 C 0.74763 0.74801 0.13048 0.0
C1975 C 0.73439 0.76149 0.11597 0.0
C1976 C 0.77053 0.75483 0.1303 0.0
C1977 C 0.74547 0.72525 0.12523 0.0
C1978 C 0.73686 0.7144 0.14154 0.0
C1979 C 0.73338 0.69317 0.14043 0.0
C1980 C 0.73886 0.68274 0.12219 0.0
C1981 C 0.74781 0.69348 0.10523 0.0
C1982 C 0.75105 0.71508 0.10687 0.0
H1983 H 0.02176 0.0195 0.08008 0.0
H1984 H 0.01897 0.08644 0.07429 0.0
H1985 H 0.99335 0.08781 0.10235 0.0
H1986 H 0.9676 0.01106 0.09318 0.0
H1987 H 0.97304 0.99125 0.11205 0.0
H1988 H 0.99036 0.99503 0.09044 0.0
H1989 H 0.02124 0.99991 0.1157 0.0
H1990 H 1.00404 0.99608 0.13737 0.0
H1991 H 0.01956 0.01923 0.13578 0.0
H1992 H 0.96838 0.0825 0.13111 0.0
H1993 H 0.94668 0.07086 0.1602 0.0
H1994 H 0.96707 0.00762 0.14986 0.0
C1995 C 0.01578 0.03446 0.08468 0.0
C1996 C 0.02219 0.05281 0.07445 0.0
C1997 C 0.01391 0.07203 0.08117 0.0
C1998 C 0.99943 0.07304 0.09732 0.0
C1999 C 0.99343 0.05475 0.10692 0.0
C2000 C 1.00141 0.03582 0.10102 0.0
C2001 C 0.99288 0.01864 0.11466 0.0
C2002 C 0.98022 1.00308 0.10181 0.0
C2003 C 0.01048 0.00783 0.12659 0.0
C2004 C 0.97897 0.03096 0.12914 0.0
C2005 C 0.97946 0.05173 0.12423 0.0
C2006 C 0.96797 0.06628 0.13523 0.0
C2007 C 0.9558 0.0595 0.15188 0.0
C2008 C 0.95529 0.03834 0.15763 0.0
C2009 C 0.96695 0.02388 0.14588 0.0
H2010 H 0.31361 0.74666 0.1746 0.0
H2011 H 0.25309 0.74793 0.20402 0.0
H2012 H 0.24143 0.77465 0.17923 0.0
H2013 H 0.31612 0.8024 0.16091 0.0
H2014 H 0.32836 0.79738 0.13631 0.0
H2015 H 0.33278 0.7802 0.15784 0.0
H2016 H 0.32035 0.74925 0.13555 0.0
H2017 H 0.31576 0.76632 0.11403 0.0
H2018 H 0.29504 0.75018 0.1236 0.0
H2019 H 0.23546 0.79904 0.15002 0.0
H2020 H 0.23539 0.81978 0.11801 0.0
H2021 H 0.2994 0.802 0.10633 0.0
C2022 C 0.29811 0.75302 0.17606 0.0
C2023 C 0.28426 0.74553 0.19129 0.0
C2024 C 0.2639 0.75368 0.1925 0.0
C2025 C 0.25717 0.76883 0.17853 0.0
C2026 C 0.271 0.77561 0.16338 0.0
C2027 C 0.29106 0.76804 0.16204 0.0
C2028 C 0.30221 0.77689 0.14332 0.0
C2029 C 0.32098 0.79 0.15 0.0
C2030 C 0.30872 0.75963 0.12824 0.0
C2031 C 0.28516 0.79027 0.13418 0.0
C2032 C 0.26737 0.78943 0.14613 0.0
C2033 C 0.24932 0.7999 0.14056 0.0
C2034 C 0.24938 0.8115 0.12224 0.0
C2035 C 0.26733 0.81245 0.10954 0.0
C2036 C 0.2855 0.80179 0.11578 0.0
H2037 H 1.00427 0.48775 0.08703 0.0
H2038 H 0.99242 0.42177 0.09122 0.0
H2039 H 0.01524 0.41962 0.12175 0.0
H2040 H 0.0582 0.48573 0.10216 0.0
H2041 H 0.05726 0.50927 0.1171 0.0
H2042 H 0.04001 0.50583 0.0954 0.0
H2043 H 1.00832 0.5127 0.11917 0.0
H2044 H 0.02548 0.51623 0.14093 0.0
H2045 H 1.00488 0.49737 0.14223 0.0
H2046 H 0.03905 0.42432 0.15172 0.0
H2047 H 0.06257 0.4357 0.1796 0.0
H2048 H 0.05893 0.49878 0.15685 0.0
C2049 C 1.00644 0.47288 0.09444 0.0
C2050 C 0.99672 0.45488 0.08655 0.0
C2051 C 1.00001 0.4357 0.09667 0.0
C2052 C 0.01285 0.43433 0.11412 0.0
C2053 C 0.02231 0.45228 0.12137 0.0
C2054 C 0.01929 0.47121 0.11192 0.0
C2055 C 0.03138 0.48808 0.12299 0.0
C2056 C 0.04768 0.4978 0.10855 0.0
C2057 C 0.01663 0.50457 0.13186 0.0
C2058 C 0.04159 0.47563 0.14012 0.0
C2059 C 0.03609 0.45502 0.13886 0.0
C2060 C 0.04342 0.44044 0.15293 0.0
C2061 C 0.05669 0.44708 0.1688 0.0
C2062 C 0.06253 0.46814 0.17053 0.0
C2063 C 0.0549 0.48255 0.15587 0.0
H2064 H 0.34912 0.73216 0.23087 0.0
H2065 H 0.3081 0.69875 0.27256 0.0
H2066 H 0.33438 0.70106 0.3001 0.0
H2067 H 0.39713 0.71007 0.2487 0.0
H2068 H 0.41167 0.73382 0.24678 0.0
H2069 H 0.38981 0.72937 0.22992 0.0
H2070 H 0.3729 0.76353 0.24239 0.0
H2071 H 0.39476 0.76815 0.2592 0.0
H2072 H 0.36881 0.76767 0.26971 0.0
H2073 H 0.36494 0.70633 0.32303 0.0
H2074 H 0.39754 0.71561 0.3406 0.0
H2075 H 0.41848 0.74745 0.28514 0.0
C2076 C 0.3456 0.72545 0.24582 0.0
C2077 C 0.32657 0.71499 0.24936 0.0
C2078 C 0.3227 0.70637 0.2692 0.0
C2079 C 0.33749 0.70773 0.28504 0.0
C2080 C 0.35609 0.71791 0.28097 0.0
C2081 C 0.36019 0.72677 0.26194 0.0
C2082 C 0.38138 0.73712 0.26188 0.0
C2083 C 0.39585 0.72698 0.24587 0.0
C2084 C 0.37933 0.7605 0.25807 0.0
C2085 C 0.3885 0.73262 0.28384 0.0
C2086 C 0.37365 0.72146 0.2945 0.0
C2087 C 0.37662 0.71525 0.31492 0.0
C2088 C 0.39517 0.72075 0.32482 0.0
C2089 C 0.41058 0.73251 0.31442 0.0
C2090 C 0.40714 0.73837 0.29355 0.0
H2091 H 0.97204 0.43596 0.9941 0.0
H2092 H 0.96603 0.39964 0.05024 0.0
H2093 H 0.96735 0.36752 0.02968 0.0
H2094 H 0.94145 0.40139 0.96041 0.0
H2095 H 0.95821 0.40506 0.93834 0.0
H2096 H 0.9553 0.42541 0.9572 0.0
H2097 H 0.9952 0.42621 0.96243 0.0
H2098 H 0.99822 0.40579 0.94369 0.0
H2099 H 1.00861 0.40276 0.96943 0.0
H2100 H 0.97112 0.33958 1.00395 0.0
H2101 H 0.977 0.31678 0.97407 0.0
H2102 H 0.98071 0.37039 0.9337 0.0
C2103 C 0.97069 0.42121 1.00191 0.0
C2104 C 0.96893 0.42018 0.02372 0.0
C2105 C 0.96749 0.40067 0.03355 0.0
C2106 C 0.96816 0.38238 0.02201 0.0
C2107 C 0.97031 0.38381 1.00062 0.0
C2108 C 0.97153 0.40265 0.99057 0.0
C2109 C 0.97474 0.39957 0.96745 0.0
C2110 C 0.95632 0.40838 0.95512 0.0
C2111 C 0.99542 0.40915 0.96034 0.0
C2112 C 0.97535 0.37611 0.96621 0.0
C2113 C 0.97262 0.36743 0.98556 0.0
C2114 C 0.97302 0.34615 0.98866 0.0
C2115 C 0.97625 0.33331 0.97151 0.0
C2116 C 0.97904 0.34169 0.95141 0.0
C2117 C 0.97862 0.36346 0.94882 0.0
H2118 H 0.68765 0.76682 0.25047 0.0
H2119 H 0.68272 0.83171 0.23422 0.0
H2120 H 0.65076 0.83455 0.25534 0.0
H2121 H 0.633 0.7552 0.2499 0.0
H2122 H 0.63415 0.7381 0.27191 0.0
H2123 H 0.65654 0.74113 0.25543 0.0
H2124 H 0.67884 0.75151 0.28719 0.0
H2125 H 0.65654 0.74845 0.30378 0.0
H2126 H 0.67049 0.77262 0.30344 0.0
H2127 H 0.6187 0.82995 0.27714 0.0
H2128 H 0.58997 0.81903 0.29976 0.0
H2129 H 0.61689 0.75751 0.30372 0.0
C2130 C 0.67977 0.7816 0.25131 0.0
C2131 C 0.68759 0.79906 0.24066 0.0
C2132 C 0.67704 0.8182 0.24236 0.0
C2133 C 0.65884 0.81992 0.25423 0.0
C2134 C 0.6515 0.8024 0.26447 0.0
C2135 C 0.66172 0.78365 0.2633 0.0
C2136 C 0.65082 0.76733 0.27621 0.0
C2137 C 0.64317 0.74938 0.26254 0.0
C2138 C 0.66502 0.75953 0.29369 0.0
C2139 C 0.63277 0.7798 0.2847 0.0
C2140 C 0.63341 0.79994 0.27764 0.0
C2141 C 0.61819 0.81427 0.28299 0.0
C2142 C 0.60198 0.80792 0.29605 0.0
C2143 C 0.60113 0.78742 0.3039 0.0
C2144 C 0.61683 0.77323 0.29798 0.0
H2145 H 0.02167 0.0839 1.00181 0.0
H2146 H 0.08602 0.09459 0.01893 0.0
H2147 H 0.08739 0.12448 0.99534 0.0
H2148 H 0.02722 0.09796 0.94752 0.0
H2149 H 1.00222 0.11045 0.94609 0.0
H2150 H 1.00627 0.08947 0.96399 0.0
H2151 H 0.99423 0.11284 0.99431 0.0
H2152 H 0.99014 0.13388 0.9765 0.0
H2153 H 1.00696 0.13732 0.99856 0.0
H2154 H 0.08165 0.15396 0.97127 0.0
H2155 H 0.06932 0.18083 0.94708 0.0
H2156 H 0.00884 0.15125 0.94466 0.0
C2157 C 0.03603 0.09253 1.00053 0.0
C2158 C 0.05381 0.08676 0.01208 0.0
C2159 C 0.07233 0.09844 0.00997 0.0
C2160 C 0.07324 0.11554 0.9967 0.0
C2161 C 0.05551 0.12079 0.98554 0.0
C2162 C 0.03727 0.10963 0.98719 0.0
C2163 C 0.02046 0.11878 0.97348 0.0
C2164 C 0.01365 0.10324 0.95678 0.0
C2165 C 1.00185 0.12615 0.98649 0.0
C2166 C 0.03209 0.1369 0.96404 0.0
C2167 C 0.05227 0.13776 0.9713 0.0
C2168 C 0.06592 0.1534 0.96539 0.0
C2169 C 0.05875 0.16864 0.95173 0.0
C2170 C 0.03817 0.1681 0.944 0.0
C2171 C 0.02473 0.1519 0.95015 0.0
H2172 H 0.34093 0.30571 0.26348 0.0
H2173 H 0.31412 0.24416 0.26407 0.0
H2174 H 0.33853 0.23331 0.23664 0.0
H2175 H 0.3517 0.30786 0.20708 0.0
H2176 H 0.37591 0.32143 0.21066 0.0
H2177 H 0.35498 0.325 0.22888 0.0
H2178 H 0.37947 0.31441 0.25889 0.0
H2179 H 0.40041 0.31069 0.24079 0.0
H2180 H 0.39276 0.28989 0.25773 0.0
H2181 H 0.36742 0.22825 0.2114 0.0
H2182 H 0.39874 0.22943 0.18937 0.0
H2183 H 0.40729 0.29417 0.20496 0.0
C2184 C 0.3399 0.29011 0.25745 0.0
C2185 C 0.3256 0.27577 0.26582 0.0
C2186 C 0.32501 0.25535 0.25789 0.0
C2187 C 0.33876 0.24907 0.24228 0.0
C2188 C 0.353 0.26341 0.23468 0.0
C2189 C 0.35363 0.28354 0.24188 0.0
C2190 C 0.37132 0.29546 0.23191 0.0
C2191 C 0.36298 0.31351 0.21886 0.0
C2192 C 0.38691 0.30305 0.24831 0.0
C2193 C 0.38074 0.27876 0.21831 0.0
C2194 C 0.36982 0.26045 0.22007 0.0
C2195 C 0.37601 0.24255 0.20976 0.0
C2196 C 0.3939 0.24333 0.1974 0.0
C2197 C 0.40547 0.26187 0.19544 0.0
C2198 C 0.39861 0.27985 0.20591 0.0
H2199 H 0.53574 0.41751 0.98356 0.0
H2200 H 0.53145 0.46821 0.02739 0.0
H2201 H 0.52207 0.44364 0.05508 0.0
H2202 H 0.49264 0.38666 1.00512 0.0
H2203 H 0.50569 0.36241 1.00064 0.0
H2204 H 0.51062 0.38412 0.98386 0.0
H2205 H 0.55003 0.38102 0.99141 0.0
H2206 H 0.54521 0.35943 0.00833 0.0
H2207 H 0.55904 0.38174 0.01784 0.0
H2208 H 0.5154 0.41373 0.07843 0.0
H2209 H 0.51104 0.38026 0.09604 0.0
H2210 H 0.5189 0.34847 0.03726 0.0
C2211 C 0.53242 0.42343 0.99891 0.0
C2212 C 0.53433 0.44477 1.00336 0.0
C2213 C 0.53022 0.45191 0.0237 0.0
C2214 C 0.52482 0.43809 0.0395 0.0
C2215 C 0.52351 0.41713 0.03475 0.0
C2216 C 0.52708 0.40978 0.01496 0.0
C2217 C 0.52545 0.38636 0.01431 0.0
C2218 C 0.50753 0.37949 1.00014 0.0
C2219 C 0.54617 0.37657 0.00758 0.0
C2220 C 0.52072 0.38174 0.03687 0.0
C2221 C 0.51957 0.39975 0.04832 0.0
C2222 C 0.51597 0.39952 0.06958 0.0
C2223 C 0.51339 0.38039 0.07944 0.0
C2224 C 0.51439 0.36163 0.06808 0.0
C2225 C 0.51811 0.36245 0.04646 0.0
H2226 H 0.67658 0.20686 0.25424 0.0
H2227 H 0.69273 0.26937 0.27292 0.0
H2228 H 0.66385 0.28296 0.25186 0.0
H2229 H 0.66308 0.21965 0.20119 0.0
H2230 H 0.64197 0.20136 0.20005 0.0
H2231 H 0.66391 0.19647 0.21667 0.0
H2232 H 0.63917 0.19286 0.24812 0.0
H2233 H 0.61716 0.19777 0.23162 0.0
H2234 H 0.62147 0.2136 0.2542 0.0
H2235 H 0.63287 0.28984 0.22926 0.0
H2236 H 0.60239 0.28953 0.20603 0.0
H2237 H 0.60676 0.22272 0.20124 0.0
C2238 C 0.67422 0.22343 0.25374 0.0
C2239 C 0.68693 0.23701 0.2654 0.0
C2240 C 0.68304 0.25858 0.26447 0.0
C2241 C 0.66674 0.26649 0.25242 0.0
C2242 C 0.65447 0.25268 0.24125 0.0
C2243 C 0.65805 0.23162 0.24171 0.0
C2244 C 0.64251 0.22014 0.22828 0.0
C2245 C 0.65353 0.20874 0.21049 0.0
C2246 C 0.6293 0.20521 0.24134 0.0
C2247 C 0.6296 0.23805 0.22026 0.0
C2248 C 0.63675 0.25667 0.22798 0.0
C2249 C 0.62715 0.27535 0.22309 0.0
C2250 C 0.60977 0.275 0.20998 0.0
C2251 C 0.60216 0.25611 0.20181 0.0
C2252 C 0.61233 0.23743 0.20703 0.0
H2253 H 0.45591 0.09056 1.00413 0.0
H2254 H 0.51936 0.07089 0.99241 0.0
H2255 H 0.53235 0.10016 0.01313 0.0
H2256 H 0.46556 0.14562 1.00271 0.0
H2257 H 0.44776 0.15138 0.02349 0.0
H2258 H 0.44331 0.12925 0.00711 0.0
H2259 H 0.44249 0.10546 0.03939 0.0
H2260 H 0.4469 0.12752 0.05586 0.0
H2261 H 0.46417 0.1056 0.05708 0.0
H2262 H 0.5386 0.13106 0.03558 0.0
H2263 H 0.5377 0.16161 0.05842 0.0
H2264 H 0.47023 0.16076 0.0568 0.0
C2265 C 0.47253 0.09237 1.00595 0.0
C2266 C 0.48659 0.07846 0.99641 0.0
C2267 C 0.50825 0.08152 0.99914 0.0
C2268 C 0.5158 0.09804 0.01102 0.0
C2269 C 0.50154 0.1114 0.02019 0.0
C2270 C 0.48037 0.10877 0.01783 0.0
C2271 C 0.46841 0.12519 0.02967 0.0
C2272 C 0.4555 0.13866 0.01486 0.0
C2273 C 0.45469 0.11535 0.0465 0.0
C2274 C 0.4862 0.13738 0.03911 0.0
C2275 C 0.50516 0.12916 0.03339 0.0
C2276 C 0.52384 0.13761 0.04023 0.0
C2277 C 0.52315 0.15489 0.05333 0.0
C2278 C 0.5039 0.16357 0.05956 0.0
C2279 C 0.48521 0.15465 0.0522 0.0
H2280 H 0.2624 0.348 0.70128 0.0
H2281 H 0.25549 0.32342 0.76342 0.0
H2282 H 0.2807 0.34914 0.77642 0.0
H2283 H 0.31825 0.3602 0.705 0.0
H2284 H 0.31572 0.38367 0.69017 0.0
H2285 H 0.29837 0.3623 0.68544 0.0
H2286 H 0.26677 0.3863 0.69175 0.0
H2287 H 0.28399 0.4077 0.69658 0.0
H2288 H 0.26494 0.40048 0.71573 0.0
H2289 H 0.30488 0.37864 0.78308 0.0
H2290 H 0.32667 0.41003 0.78301 0.0
H2291 H 0.31788 0.4159 0.71662 0.0
C2292 C 0.26654 0.34777 0.71754 0.0
C2293 C 0.25704 0.33368 0.73135 0.0
C2294 C 0.26251 0.33416 0.7526 0.0
C2295 C 0.27687 0.34863 0.76011 0.0
C2296 C 0.28569 0.36254 0.74616 0.0
C2297 C 0.28082 0.36221 0.72532 0.0
C2298 C 0.29173 0.37958 0.71386 0.0
C2299 C 0.30692 0.37091 0.69766 0.0
C2300 C 0.27591 0.39439 0.7039 0.0
C2301 C 0.30323 0.38989 0.73158 0.0
C2302 C 0.29961 0.37971 0.75005 0.0
C2303 C 0.30791 0.38669 0.7687 0.0
C2304 C 0.32015 0.40462 0.76852 0.0
C2305 C 0.32395 0.41548 0.74983 0.0
C2306 C 0.31549 0.40782 0.73111 0.0
H2307 H 0.25671 0.68226 0.81158 0.0
H2308 H 0.24746 0.70074 0.74757 0.0
H2309 H 0.27007 0.67231 0.73605 0.0
H2310 H 0.31107 0.66843 0.80602 0.0
H2311 H 0.30949 0.6466 0.8233 0.0
H2312 H 0.29233 0.66834 0.82679 0.0
H2313 H 0.26049 0.64392 0.82467 0.0
H2314 H 0.27755 0.62211 0.82119 0.0
H2315 H 0.25745 0.62729 0.80245 0.0
H2316 H 0.29343 0.6421 0.73112 0.0
H2317 H 0.31642 0.61172 0.73313 0.0
H2318 H 0.31142 0.61241 0.8002 0.0
C2319 C 0.25952 0.68038 0.79515 0.0
C2320 C 0.25 0.69365 0.78049 0.0
C2321 C 0.25409 0.69055 0.75912 0.0
C2322 C 0.26708 0.67453 0.75239 0.0
C2323 C 0.27606 0.66168 0.76718 0.0
C2324 C 0.27254 0.66439 0.78812 0.0
C2325 C 0.28419 0.64826 0.80068 0.0
C2326 C 0.30022 0.65853 0.81505 0.0
C2327 C 0.26901 0.63458 0.81297 0.0
C2328 C 0.29476 0.63611 0.7835 0.0
C2329 C 0.28979 0.64418 0.76432 0.0
C2330 C 0.2974 0.6356 0.74605 0.0
C2331 C 0.31036 0.61825 0.74736 0.0
C2332 C 0.31564 0.60953 0.7668 0.0
C2333 C 0.3078 0.61876 0.78512 0.0
H2334 H 0.92552 0.50775 0.45627 0.0
H2335 H 0.94578 0.517 0.51977 0.0
H2336 H 0.9169 0.4952 0.53206 0.0
H2337 H 0.87021 0.50764 0.46657 0.0
H2338 H 0.86466 0.48763 0.44792 0.0
H2339 H 0.88649 0.50465 0.44404 0.0
H2340 H 0.91105 0.47302 0.4414 0.0
H2341 H 0.88931 0.4559 0.44528 0.0
H2342 H 0.91157 0.45437 0.46215 0.0
H2343 H 0.88646 0.47178 0.53756 0.0
H2344 H 0.85624 0.44842 0.53593 0.0
H2345 H 0.85616 0.4532 0.46883 0.0
C2346 C 0.92392 0.50518 0.47276 0.0
C2347 C 0.9379 0.5143 0.48704 0.0
C2348 C 0.93509 0.5106 0.50851 0.0
C2349 C 0.9188 0.49809 0.51566 0.0
C2350 C 0.9054 0.48931 0.50118 0.0
C2351 C 0.90774 0.49268 0.48019 0.0
C2352 C 0.89135 0.48107 0.4679 0.0
C2353 C 0.87735 0.49615 0.4559 0.0
C2354 C 0.90143 0.46514 0.45333 0.0
C2355 C 0.87953 0.47057 0.48529 0.0
C2356 C 0.8879 0.47558 0.50435 0.0
C2357 C 0.8798 0.46769 0.52272 0.0
C2358 C 0.86271 0.45429 0.52161 0.0
C2359 C 0.85385 0.4488 0.50225 0.0
C2360 C 0.86242 0.45719 0.48388 0.0
H2361 H 0.76284 0.83146 0.76878 0.0
H2362 H 0.78579 0.84634 0.83024 0.0
H2363 H 0.76339 0.87725 0.83107 0.0
H2364 H 0.75961 0.88466 0.7503 0.0
H2365 H 0.73614 0.8802 0.73573 0.0
H2366 H 0.75433 0.85939 0.73971 0.0
H2367 H 0.72503 0.83703 0.7557 0.0
H2368 H 0.70677 0.85778 0.75184 0.0
H2369 H 0.71034 0.84696 0.77731 0.0
H2370 H 0.73803 0.90595 0.82579 0.0
H2371 H 0.71165 0.93114 0.81444 0.0
H2372 H 0.70502 0.8981 0.75625 0.0
C2373 C 0.76333 0.84136 0.7823 0.0
C2374 C 0.77599 0.83637 0.79951 0.0
C2375 C 0.77599 0.84963 0.81701 0.0
C2376 C 0.76342 0.86731 0.81758 0.0
C2377 C 0.75095 0.87162 0.8005 0.0
C2378 C 0.75084 0.85912 0.78314 0.0
C2379 C 0.73571 0.86717 0.76703 0.0
C2380 C 0.74713 0.87322 0.74701 0.0
C2381 C 0.71844 0.85129 0.76273 0.0
C2382 C 0.72726 0.88607 0.77813 0.0
C2383 C 0.7363 0.88832 0.79741 0.0
C2384 C 0.73084 0.90437 0.81072 0.0
C2385 C 0.71572 0.91852 0.80418 0.0
C2386 C 0.70616 0.91657 0.7845 0.0
C2387 C 0.71215 0.90013 0.7713 0.0
H2388 H 0.59988 0.49963 0.95628 0.0
H2389 H 0.56618 0.51126 0.01333 0.0
H2390 H 0.59294 0.53652 0.02389 0.0
H2391 H 0.65106 0.50258 0.97843 0.0
H2392 H 0.66249 0.51521 0.9563 0.0
H2393 H 0.64048 0.49832 0.95292 0.0
H2394 H 0.62028 0.52782 0.93473 0.0
H2395 H 0.64224 0.54479 0.93802 0.0
H2396 H 0.6171 0.55228 0.94777 0.0
H2397 H 0.62302 0.56052 0.02827 0.0
H2398 H 0.65521 0.58117 0.0267 0.0
H2399 H 0.66995 0.55394 0.96702 0.0
C2400 C 0.5981 0.50762 0.97092 0.0
C2401 C 0.58098 0.50347 0.98402 0.0
C2402 C 0.57928 0.51405 1.00317 0.0
C2403 C 0.59434 0.52849 0.00925 0.0
C2404 C 0.61106 0.53214 0.99606 0.0
C2405 C 0.6131 0.522 0.97732 0.0
C2406 C 0.63285 0.52855 0.96626 0.0
C2407 C 0.64759 0.51006 0.96331 0.0
C2408 C 0.62781 0.53898 0.94546 0.0
C2409 C 0.64155 0.54395 0.98172 0.0
C2410 C 0.62865 0.54585 0.99872 0.0
C2411 C 0.63323 0.55921 0.01502 0.0
C2412 C 0.6515 0.57096 0.01393 0.0
C2413 C 0.66505 0.56926 0.9967 0.0
C2414 C 0.65997 0.55548 0.98044 0.0
H2415 H 0.26669 0.67 0.24881 0.0
H2416 H 0.26933 0.67267 0.18169 0.0
H2417 H 0.24636 0.64214 0.1796 0.0
H2418 H 0.26669 0.61374 0.253 0.0
H2419 H 0.24892 0.61357 0.27459 0.0
H2420 H 0.26612 0.63524 0.27079 0.0
H2421 H 0.23453 0.66006 0.27068 0.0
H2422 H 0.21723 0.63849 0.27439 0.0
H2423 H 0.21356 0.65564 0.2527 0.0
H2424 H 0.22229 0.61208 0.18474 0.0
H2425 H 0.19922 0.58405 0.19674 0.0
H2426 H 0.21222 0.60077 0.26057 0.0
C2427 C 0.26271 0.66396 0.23367 0.0
C2428 C 0.26981 0.67374 0.2154 0.0
C2429 C 0.26391 0.66557 0.19589 0.0
C2430 C 0.25095 0.64818 0.19454 0.0
C2431 C 0.24404 0.63908 0.21285 0.0
C2432 C 0.24977 0.64662 0.23205 0.0
C2433 C 0.23978 0.63423 0.24932 0.0
C2434 C 0.25637 0.62356 0.26271 0.0
C2435 C 0.22542 0.64793 0.26255 0.0
C2436 C 0.22746 0.61862 0.23682 0.0
C2437 C 0.23016 0.6217 0.21582 0.0
C2438 C 0.22007 0.6095 0.20115 0.0
C2439 C 0.20688 0.59371 0.20813 0.0
C2440 C 0.20383 0.59024 0.22959 0.0
C2441 C 0.21438 0.60288 0.24407 0.0
H2442 H 0.93765 0.49364 0.01726 0.0
H2443 H 0.92788 0.47964 0.08226 0.0
H2444 H 0.89735 0.50266 0.08276 0.0
H2445 H 0.92311 0.5479 0.02075 0.0
H2446 H 0.91044 0.54829 0.99586 0.0
H2447 H 0.93166 0.53071 1.00048 0.0
H2448 H 0.9083 0.49988 0.98974 0.0
H2449 H 0.88701 0.51736 0.98511 0.0
H2450 H 0.8838 0.49596 1.00271 0.0
H2451 H 0.8672 0.52586 0.07611 0.0
H2452 H 0.84021 0.54971 0.06315 0.0
H2453 H 0.86975 0.55015 1.00275 0.0
C2454 C 0.92907 0.4955 0.03157 0.0
C2455 C 0.93521 0.48496 0.04977 0.0
C2456 C 0.92364 0.48779 0.06823 0.0
C2457 C 0.9062 0.50074 0.06864 0.0
C2458 C 0.90056 0.51091 0.05049 0.0
C2459 C 0.9117 0.50863 0.03233 0.0
C2460 C 0.90233 0.52161 0.01511 0.0
C2461 C 0.91781 0.53811 0.00761 0.0
C2462 C 0.89492 0.50788 0.9971 0.0
C2463 C 0.88411 0.53136 0.02642 0.0
C2464 C 0.88335 0.52483 0.04678 0.0
C2465 C 0.86768 0.53118 0.06023 0.0
C2466 C 0.85237 0.54463 0.05271 0.0
C2467 C 0.85291 0.55175 0.03198 0.0
C2468 C 0.86908 0.54507 0.01871 0.0
H2469 H 0.07626 0.99817 0.03975 0.0
H2470 H 0.10973 0.05527 0.05096 0.0
H2471 H 0.14297 0.03619 0.05061 0.0
H2472 H 0.11094 0.96404 0.07027 0.0
H2473 H 0.10901 0.94302 0.05202 0.0
H2474 H 0.08764 0.96077 0.05512 0.0
H2475 H 0.0885 0.9685 0.01577 0.0
H2476 H 0.10998 0.95094 0.01258 0.0
H2477 H 0.11233 0.97738 1.00406 0.0
H2478 H 0.17242 0.01189 0.04661 0.0
H2479 H 0.19686 0.98345 0.03992 0.0
H2480 H 0.14499 0.94133 0.03112 0.0
C2481 C 0.09061 0.00646 0.04258 0.0
C2482 C 0.09056 0.02812 0.04559 0.0
C2483 C 0.10956 0.03866 0.04877 0.0
C2484 C 0.12847 0.02796 0.04858 0.0
C2485 C 0.12812 0.00671 0.04513 0.0
C2486 C 0.10975 0.99599 0.04227 0.0
C2487 C 0.11401 0.97332 0.03775 0.0
C2488 C 0.10486 0.95947 0.05481 0.0
C2489 C 0.10571 0.96718 0.01626 0.0
C2490 C 0.13762 0.97311 0.03823 0.0
C2491 C 0.14535 0.99255 0.04266 0.0
C2492 C 0.16658 0.99652 0.04342 0.0
C2493 C 0.18036 0.98019 0.03969 0.0
C2494 C 0.17294 0.96001 0.03525 0.0
C2495 C 0.15121 0.95653 0.03445 0.0
loop_
_geom_bond_atom_site_label_1
_geom_bond_atom_site_label_2
_geom_bond_distance
_geom_bond_site_symmetry_2
_ccdc_geom_bond_type
H0 C3 0.931 . S
H1 C6 0.928 . S
H2 C8 0.930 . S
C3 H0 0.931 . S
C3 C4 1.413 . S
C3 C5 1.360 . S
C4 C3 1.413 . S
C4 C8 1.429 . S
C5 C3 1.360 . S
C5 C6 1.372 . S
C6 H1 0.928 . S
C6 C5 1.372 . S
C6 C7 1.404 . S
C7 C6 1.404 . S
C7 C8 1.391 . S
C8 H2 0.930 . S
C8 C4 1.429 . S
C8 C7 1.391 . S
H9 C12 0.931 . S
H10 C15 0.928 . S
H11 C17 0.930 . S
C12 H9 0.931 . S
C12 C13 1.413 . S
C12 C14 1.360 . S
C13 C12 1.413 . S
C13 C17 1.429 . S
C14 C12 1.360 . S
C14 C15 1.372 . S
C15 H10 0.928 . S
C15 C14 1.372 . S
C15 C16 1.404 . S
C16 C15 1.404 . S
C16 C17 1.391 . S
C17 H11 0.930 . S
C17 C13 1.429 . S
C17 C16 1.391 . S
H18 C21 0.931 . S
H19 C24 0.928 . S
H20 C26 0.930 . S
C21 H18 0.931 . S
C21 C22 1.413 . S
C21 C23 1.360 . S
C22 C21 1.413 . S
C22 C26 1.429 . S
C23 C21 1.360 . S
C23 C24 1.372 . S
C24 H19 0.928 . S
C24 C23 1.372 . S
C24 C25 1.404 . S
C25 C24 1.404 . S
C25 C26 1.391 . S
C26 H20 0.930 . S
C26 C22 1.429 . S
C26 C25 1.391 . S
H27 C30 0.931 . S
H28 C33 0.928 . S
H29 C35 0.930 . S
C30 H27 0.931 . S
C30 C31 1.413 . S
C30 C32 1.360 . S
C31 C30 1.413 . S
C31 C35 1.429 . S
C32 C30 1.360 . S
C32 C33 1.372 . S
C33 H28 0.928 . S
C33 C32 1.372 . S
C33 C34 1.404 . S
C34 C33 1.404 . S
C34 C35 1.391 . S
C35 H29 0.930 . S
C35 C31 1.429 . S
C35 C34 1.391 . S
H36 C39 0.931 . S
H37 C42 0.928 . S
H38 C44 0.930 . S
C39 H36 0.931 . S
C39 C40 1.413 . S
C39 C41 1.360 . S
C40 C39 1.413 . S
C40 C44 1.429 . S
C41 C39 1.360 . S
C41 C42 1.372 . S
C42 H37 0.928 . S
C42 C41 1.372 . S
C42 C43 1.404 . S
C43 C42 1.404 . S
C43 C44 1.391 . S
C44 H38 0.930 . S
C44 C40 1.429 . S
C44 C43 1.391 . S
H45 C48 0.931 . S
H46 C51 0.928 . S
H47 C53 0.930 . S
C48 H45 0.931 . S
C48 C49 1.413 . S
C48 C50 1.360 . S
C49 C48 1.413 . S
C49 C53 1.429 . S
C50 C48 1.360 . S
C50 C51 1.372 . S
C51 H46 0.928 . S
C51 C50 1.372 . S
C51 C52 1.404 . S
C52 C51 1.404 . S
C52 C53 1.391 . S
C53 H47 0.930 . S
C53 C49 1.429 . S
C53 C52 1.391 . S
H54 C57 0.931 . S
H55 C60 0.928 . S
H56 C62 0.930 . S
C57 H54 0.931 . S
C57 C58 1.413 . S
C57 C59 1.360 . S
C58 C57 1.413 . S
C58 C62 1.429 . S
C59 C57 1.360 . S
C59 C60 1.372 . S
C60 H55 0.928 . S
C60 C59 1.372 . S
C60 C61 1.404 . S
C61 C60 1.404 . S
C61 C62 1.391 . S
C62 H56 0.930 . S
C62 C58 1.429 . S
C62 C61 1.391 . S
H63 C66 0.931 . S
H64 C69 0.928 . S
H65 C71 0.930 . S
C66 H63 0.931 . S
C66 C67 1.413 . S
C66 C68 1.360 . S
C67 C66 1.413 . S
C67 C71 1.429 . S
C68 C66 1.360 . S
C68 C69 1.372 . S
C69 H64 0.928 . S
C69 C68 1.372 . S
C69 C70 1.404 . S
C70 C69 1.404 . S
C70 C71 1.391 . S
C71 H65 0.930 . S
C71 C67 1.429 . S
C71 C70 1.391 . S
H72 C75 0.931 . S
H73 C78 0.928 . S
H74 C80 0.930 . S
C75 H72 0.931 . S
C75 C76 1.413 . S
C75 C77 1.360 . S
C76 C75 1.413 . S
C76 C80 1.429 . S
C77 C75 1.360 . S
C77 C78 1.372 . S
C78 H73 0.928 . S
C78 C77 1.372 . S
C78 C79 1.404 . S
C79 C78 1.404 . S
C79 C80 1.391 . S
C80 H74 0.930 . S
C80 C76 1.429 . S
C80 C79 1.391 . S
H81 C84 0.931 . S
H82 C87 0.928 . S
H83 C89 0.930 . S
C84 H81 0.931 . S
C84 C85 1.413 . S
C84 C86 1.360 . S
C85 C84 1.413 . S
C85 C89 1.429 . S
C86 C84 1.360 . S
C86 C87 1.372 . S
C87 H82 0.928 . S
C87 C86 1.372 . S
C87 C88 1.404 . S
C88 C87 1.404 . S
C88 C89 1.391 . S
C89 H83 0.930 . S
C89 C85 1.429 . S
C89 C88 1.391 . S
H90 C93 0.931 . S
H91 C96 0.928 . S
H92 C98 0.930 . S
C93 H90 0.931 . S
C93 C94 1.413 . S
C93 C95 1.360 . S
C94 C93 1.413 . S
C94 C98 1.429 . S
C95 C93 1.360 . S
C95 C96 1.372 . S
C96 H91 0.928 . S
C96 C95 1.372 . S
C96 C97 1.404 . S
C97 C96 1.404 . S
C97 C98 1.391 . S
C98 H92 0.930 . S
C98 C94 1.429 . S
C98 C97 1.391 . S
H99 C102 0.931 . S
H100 C105 0.928 . S
H101 C107 0.930 . S
C102 H99 0.931 . S
C102 C103 1.413 . S
C102 C104 1.360 . S
C103 C102 1.413 . S
C103 C107 1.429 . S
C104 C102 1.360 . S
C104 C105 1.372 . S
C105 H100 0.928 . S
C105 C104 1.372 . S
C105 C106 1.404 . S
C106 C105 1.404 . S
C106 C107 1.391 . S
C107 H101 0.930 . S
C107 C103 1.429 . S
C107 C106 1.391 . S
H108 C111 0.931 . S
H109 C114 0.928 . S
H110 C116 0.930 . S
C111 H108 0.931 . S
C111 C112 1.413 . S
C111 C113 1.360 . S
C112 C111 1.413 . S
C112 C116 1.429 . S
C113 C111 1.360 . S
C113 C114 1.372 . S
C114 H109 0.928 . S
C114 C113 1.372 . S
C114 C115 1.404 . S
C115 C114 1.404 . S
C115 C116 1.391 . S
C116 H110 0.930 . S
C116 C112 1.429 . S
C116 C115 1.391 . S
H117 C120 0.931 . S
H118 C123 0.928 . S
H119 C125 0.930 . S
C120 H117 0.931 . S
C120 C121 1.413 . S
C120 C122 1.360 . S
C121 C120 1.413 . S
C121 C125 1.429 . S
C122 C120 1.360 . S
C122 C123 1.372 . S
C123 H118 0.928 . S
C123 C122 1.372 . S
C123 C124 1.404 . S
C124 C123 1.404 . S
C124 C125 1.391 . S
C125 H119 0.930 . S
C125 C121 1.429 . S
C125 C124 1.391 . S
H126 C129 0.931 . S
H127 C132 0.928 . S
H128 C134 0.930 . S
C129 H126 0.931 . S
C129 C130 1.413 . S
C129 C131 1.360 . S
C130 C129 1.413 . S
C130 C134 1.429 . S
C131 C129 1.360 . S
C131 C132 1.372 . S
C132 H127 0.928 . S
C132 C131 1.372 . S
C132 C133 1.404 . S
C133 C132 1.404 . S
C133 C134 1.391 . S
C134 H128 0.930 . S
C134 C130 1.429 . S
C134 C133 1.391 . S
H135 C138 0.931 . S
H136 C141 0.928 . S
H137 C143 0.930 . S
C138 H135 0.931 . S
C138 C139 1.413 . S
C138 C140 1.360 . S
C139 C138 1.413 . S
C139 C143 1.429 . S
C140 C138 1.360 . S
C140 C141 1.372 . S
C141 H136 0.928 . S
C141 C140 1.372 . S
C141 C142 1.404 . S
C142 C141 1.404 . S
C142 C143 1.391 . S
C143 H137 0.930 . S
C143 C139 1.429 . S
C143 C142 1.391 . S
Li144 N161 1.990 . S
Li144 O204 1.956 . S
Li144 O205 1.970 1_556 S
Li144 O206 1.961 . S
Li145 N169 1.990 . S
Li145 O204 1.970 1_554 S
Li145 O205 1.956 . S
Li145 O207 1.961 . S
Li146 N191 1.990 . S
Li146 O204 1.961 . S
Li146 O206 1.956 . S
Li146 O207 1.970 1_556 S
Li147 N197 1.990 . S
Li147 O205 1.961 . S
Li147 O206 1.970 1_554 S
Li147 O207 1.956 . S
C148 C150 1.348 1_556 S
C148 C151 1.356 . S
C148 O204 1.325 . S
N149 C152 1.314 1_556 S
N149 C153 1.279 . S
C150 C148 1.348 1_554 S
C150 C152 1.353 . S
C150 H208 0.929 . S
C151 C148 1.356 . S
C151 C153 1.358 . S
C151 H209 0.930 . S
C152 N149 1.314 1_554 S
C152 C150 1.353 . S
C152 H210 0.930 . S
C153 N149 1.279 . S
C153 C151 1.358 . S
C153 H211 0.930 . S
C154 C157 1.348 . S
C154 C158 1.356 . S
C154 O205 1.325 . S
C155 N156 1.279 . S
C155 C158 1.358 . S
C155 H212 0.930 . S
N156 C155 1.279 . S
N156 C159 1.314 . S
C157 C154 1.348 . S
C157 C159 1.353 . S
C157 H213 0.929 . S
C158 C154 1.356 . S
C158 C155 1.358 . S
C158 H214 0.930 . S
C159 N156 1.314 . S
C159 C157 1.353 . S
C159 H215 0.930 . S
C160 N161 1.314 . S
C160 C165 1.353 . S
C160 H166 0.930 . S
N161 Li144 1.990 . S
N161 C160 1.314 . S
N161 C163 1.279 . S
C162 C163 1.358 . S
C162 C164 1.356 . S
C162 H216 0.930 . S
C163 N161 1.279 . S
C163 C162 1.358 . S
C163 H167 0.930 . S
C164 C162 1.356 . S
C164 C165 1.348 . S
C165 C160 1.353 . S
C165 C164 1.348 . S
C165 H217 0.929 . S
H166 C160 0.930 . S
H167 C163 0.930 . S
C168 N169 1.314 . S
C168 C170 1.353 . S
C168 H174 0.930 . S
N169 Li145 1.990 . S
N169 C168 1.314 . S
N169 C172 1.279 . S
C170 C168 1.353 . S
C170 C173 1.348 . S
C170 H218 0.929 . S
C171 C172 1.358 . S
C171 C173 1.356 . S
C171 H219 0.930 . S
C172 N169 1.279 . S
C172 C171 1.358 . S
C172 H175 0.930 . S
C173 C170 1.348 . S
C173 C171 1.356 . S
H174 C168 0.930 . S
H175 C172 0.930 . S
C176 C178 1.348 . S
C176 C179 1.356 . S
C176 O206 1.325 . S
N177 C180 1.314 . S
N177 C181 1.279 . S
C178 C176 1.348 . S
C178 C180 1.353 . S
C178 H220 0.929 . S
C179 C176 1.356 . S
C179 C181 1.358 . S
C179 H221 0.930 . S
C180 N177 1.314 . S
C180 C178 1.353 . S
C180 H222 0.930 . S
C181 N177 1.279 . S
C181 C179 1.358 . S
C181 H223 0.930 . S
C182 C183 1.348 1_554 S
C182 C184 1.356 . S
C182 O207 1.325 . S
C183 C182 1.348 1_556 S
C183 C185 1.353 . S
C183 H224 0.929 . S
C184 C182 1.356 . S
C184 C186 1.358 . S
C184 H225 0.930 . S
C185 C183 1.353 . S
C185 N187 1.314 1_556 S
C185 H226 0.930 . S
C186 C184 1.358 . S
C186 N187 1.279 . S
C186 H227 0.930 . S
N187 C185 1.314 1_554 S
N187 C186 1.279 . S
C188 C190 1.353 . S
C188 N191 1.314 . S
C188 H194 0.930 . S
C189 N191 1.279 . S
C189 C192 1.358 . S
C189 H195 0.930 . S
C190 C188 1.353 . S
C190 C193 1.348 . S
C190 H228 0.929 . S
N191 Li146 1.990 . S
N191 C188 1.314 . S
N191 C189 1.279 . S
C192 C189 1.358 . S
C192 C193 1.356 . S
C192 H229 0.930 . S
C193 C190 1.348 . S
C193 C192 1.356 . S
H194 C188 0.930 . S
H195 C189 0.930 . S
C196 N197 1.314 . S
C196 C198 1.353 . S
C196 H202 0.930 . S
N197 Li147 1.990 . S
N197 C196 1.314 . S
N197 C200 1.279 . S
C198 C196 1.353 . S
C198 C201 1.348 . S
C198 H230 0.929 . S
C199 C200 1.358 . S
C199 C201 1.356 . S
C199 H231 0.930 . S
C200 N197 1.279 . S
C200 C199 1.358 . S
C200 H203 0.930 . S
C201 C198 1.348 . S
C201 C199 1.356 . S
H202 C196 0.930 . S
H203 C200 0.930 . S
O204 Li144 1.956 . S
O204 Li145 1.970 1_556 S
O204 Li146 1.961 . S
O204 C148 1.325 . S
O205 Li144 1.970 1_554 S
O205 Li145 1.956 . S
O205 Li147 1.961 . S
O205 C154 1.325 . S
O206 Li144 1.961 . S
O206 Li146 1.956 . S
O206 Li147 1.970 1_556 S
O206 C176 1.325 . S
O207 Li145 1.961 . S
O207 Li146 1.970 1_554 S
O207 Li147 1.956 . S
O207 C182 1.325 . S
H208 C150 0.929 . S
H209 C151 0.930 . S
H210 C152 0.930 . S
H211 C153 0.930 . S
H212 C155 0.930 . S
H213 C157 0.929 . S
H214 C158 0.930 . S
H215 C159 0.930 . S
H216 C162 0.930 . S
H217 C165 0.929 . S
H218 C170 0.929 . S
H219 C171 0.930 . S
H220 C178 0.929 . S
H221 C179 0.930 . S
H222 C180 0.930 . S
H223 C181 0.930 . S
H224 C183 0.929 . S
H225 C184 0.930 . S
H226 C185 0.930 . S
H227 C186 0.930 . S
H228 C190 0.929 . S
H229 C192 0.930 . S
H230 C198 0.929 . S
H231 C199 0.930 . S
Li232 N249 1.990 . S
Li232 O292 1.956 . S
Li232 O293 1.970 . S
Li232 O294 1.961 . S
Li233 N257 1.990 . S
Li233 O292 1.970 . S
Li233 O293 1.956 . S
Li233 O295 1.961 . S
Li234 N279 1.990 . S
Li234 O292 1.961 . S
Li234 O294 1.956 . S
Li234 O295 1.970 . S
Li235 N285 1.990 . S
Li235 O293 1.961 . S
Li235 O294 1.970 . S
Li235 O295 1.956 . S
C236 C238 1.348 . S
C236 C239 1.356 . S
C236 O292 1.325 . S
N237 C240 1.314 . S
N237 C241 1.279 . S
C238 C236 1.348 . S
C238 C240 1.353 . S
C238 H296 0.929 . S
C239 C236 1.356 . S
C239 C241 1.358 . S
C239 H297 0.930 . S
C240 N237 1.314 . S
C240 C238 1.353 . S
C240 H298 0.930 . S
C241 N237 1.279 . S
C241 C239 1.358 . S
C241 H299 0.930 . S
C242 C245 1.348 . S
C242 C246 1.356 . S
C242 O293 1.325 . S
C243 N244 1.279 . S
C243 C246 1.358 . S
C243 H300 0.930 . S
N244 C243 1.279 . S
N244 C247 1.314 . S
C245 C242 1.348 . S
C245 C247 1.353 . S
C245 H301 0.929 . S
C246 C242 1.356 . S
C246 C243 1.358 . S
C246 H302 0.930 . S
C247 N244 1.314 . S
C247 C245 1.353 . S
C247 H303 0.930 . S
C248 N249 1.314 . S
C248 C253 1.353 . S
C248 H254 0.930 . S
N249 Li232 1.990 . S
N249 C248 1.314 . S
N249 C251 1.279 . S
C250 C251 1.358 . S
C250 C252 1.356 . S
C250 H304 0.930 . S
C251 N249 1.279 . S
C251 C250 1.358 . S
C251 H255 0.930 . S
C252 C250 1.356 . S
C252 C253 1.348 . S
C253 C248 1.353 . S
C253 C252 1.348 . S
C253 H305 0.929 . S
H254 C248 0.930 . S
H255 C251 0.930 . S
C256 N257 1.314 . S
C256 C258 1.353 . S
C256 H262 0.930 . S
N257 Li233 1.990 . S
N257 C256 1.314 . S
N257 C260 1.279 . S
C258 C256 1.353 . S
C258 C261 1.348 . S
C258 H306 0.929 . S
C259 C260 1.358 . S
C259 C261 1.356 . S
C259 H307 0.930 . S
C260 N257 1.279 . S
C260 C259 1.358 . S
C260 H263 0.930 . S
C261 C258 1.348 . S
C261 C259 1.356 . S
H262 C256 0.930 . S
H263 C260 0.930 . S
C264 C266 1.348 . S
C264 C267 1.356 . S
C264 O294 1.325 . S
N265 C268 1.314 . S
N265 C269 1.279 . S
C266 C264 1.348 . S
C266 C268 1.353 . S
C266 H308 0.929 . S
C267 C264 1.356 . S
C267 C269 1.358 . S
C267 H309 0.930 . S
C268 N265 1.314 . S
C268 C266 1.353 . S
C268 H310 0.930 . S
C269 N265 1.279 . S
C269 C267 1.358 . S
C269 H311 0.930 . S
C270 C271 1.348 . S
C270 C272 1.356 . S
C270 O295 1.325 . S
C271 C270 1.348 . S
C271 C273 1.353 . S
C271 H312 0.929 . S
C272 C270 1.356 . S
C272 C274 1.358 . S
C272 H313 0.930 . S
C273 C271 1.353 . S
C273 N275 1.314 . S
C273 H314 0.930 . S
C274 C272 1.358 . S
C274 N275 1.279 . S
C274 H315 0.930 . S
N275 C273 1.314 . S
N275 C274 1.279 . S
C276 C278 1.353 . S
C276 N279 1.314 . S
C276 H282 0.930 . S
C277 N279 1.279 . S
C277 C280 1.358 . S
C277 H283 0.930 . S
C278 C276 1.353 . S
C278 C281 1.348 . S
C278 H316 0.929 . S
N279 Li234 1.990 . S
N279 C276 1.314 . S
N279 C277 1.279 . S
C280 C277 1.358 . S
C280 C281 1.356 . S
C280 H317 0.930 . S
C281 C278 1.348 . S
C281 C280 1.356 . S
H282 C276 0.930 . S
H283 C277 0.930 . S
C284 N285 1.314 . S
C284 C286 1.353 . S
C284 H290 0.930 . S
N285 Li235 1.990 . S
N285 C284 1.314 . S
N285 C288 1.279 . S
C286 C284 1.353 . S
C286 C289 1.348 . S
C286 H318 0.929 . S
C287 C288 1.358 . S
C287 C289 1.356 . S
C287 H319 0.930 . S
C288 N285 1.279 . S
C288 C287 1.358 . S
C288 H291 0.930 . S
C289 C286 1.348 . S
C289 C287 1.356 . S
H290 C284 0.930 . S
H291 C288 0.930 . S
O292 Li232 1.956 . S
O292 Li233 1.970 . S
O292 Li234 1.961 . S
O292 C236 1.325 . S
O293 Li232 1.970 . S
O293 Li233 1.956 . S
O293 Li235 1.961 . S
O293 C242 1.325 . S
O294 Li232 1.961 . S
O294 Li234 1.956 . S
O294 Li235 1.970 . S
O294 C264 1.325 . S
O295 Li233 1.961 . S
O295 Li234 1.970 . S
O295 Li235 1.956 . S
O295 C270 1.325 . S
H296 C238 0.929 . S
H297 C239 0.930 . S
H298 C240 0.930 . S
H299 C241 0.930 . S
H300 C243 0.930 . S
H301 C245 0.929 . S
H302 C246 0.930 . S
H303 C247 0.930 . S
H304 C250 0.930 . S
H305 C253 0.929 . S
H306 C258 0.929 . S
H307 C259 0.930 . S
H308 C266 0.929 . S
H309 C267 0.930 . S
H310 C268 0.930 . S
H311 C269 0.930 . S
H312 C271 0.929 . S
H313 C272 0.930 . S
H314 C273 0.930 . S
H315 C274 0.930 . S
H316 C278 0.929 . S
H317 C280 0.930 . S
H318 C286 0.929 . S
H319 C287 0.930 . S
Li320 N337 1.990 . S
Li320 O380 1.958 . S
Li320 O381 1.970 1_556 S
Li320 O382 1.961 . S
Li321 N345 1.990 . S
Li321 O380 1.927 1_554 S
Li321 O381 1.956 . S
Li321 O383 1.961 . S
Li322 N367 1.990 . S
Li322 O380 1.995 . S
Li322 O382 1.956 . S
Li322 O383 1.970 1_556 S
Li323 N373 1.990 . S
Li323 O381 1.961 . S
Li323 O382 1.970 1_554 S
Li323 O383 1.956 . S
C324 C326 1.348 1_556 S
C324 C327 1.356 . S
C324 O380 1.333 . S
N325 C328 1.314 1_556 S
N325 C329 1.279 . S
C326 C324 1.348 1_554 S
C326 C328 1.353 . S
C326 H384 0.929 . S
C327 C324 1.356 . S
C327 C329 1.358 . S
C327 H385 0.930 . S
C328 N325 1.314 1_554 S
C328 C326 1.353 . S
C328 H386 0.930 . S
C329 N325 1.279 . S
C329 C327 1.358 . S
C329 H387 0.930 . S
C330 C333 1.348 . S
C330 C334 1.356 . S
C330 O381 1.325 . S
C331 N332 1.279 . S
C331 C334 1.358 . S
C331 H388 0.930 . S
N332 C331 1.279 . S
N332 C335 1.314 . S
C333 C330 1.348 . S
C333 C335 1.353 . S
C333 H389 0.929 . S
C334 C330 1.356 . S
C334 C331 1.358 . S
C334 H390 0.930 . S
C335 N332 1.314 . S
C335 C333 1.353 . S
C335 H391 0.930 . S
C336 N337 1.314 . S
C336 C341 1.353 . S
C336 H342 0.930 . S
N337 Li320 1.990 . S
N337 C336 1.314 . S
N337 C339 1.279 . S
C338 C339 1.358 . S
C338 C340 1.356 . S
C338 H392 0.930 . S
C339 N337 1.279 . S
C339 C338 1.358 . S
C339 H343 0.930 . S
C340 C338 1.356 . S
C340 C341 1.348 . S
C341 C336 1.353 . S
C341 C340 1.348 . S
C341 H393 0.929 . S
H342 C336 0.930 . S
H343 C339 0.930 . S
C344 N345 1.314 . S
C344 C346 1.353 . S
C344 H350 0.930 . S
N345 Li321 1.990 . S
N345 C344 1.314 . S
N345 C348 1.279 . S
C346 C344 1.353 . S
C346 C349 1.348 . S
C346 H394 0.929 . S
C347 C348 1.358 . S
C347 C349 1.356 . S
C347 H395 0.930 . S
C348 N345 1.279 . S
C348 C347 1.358 . S
C348 H351 0.930 . S
C349 C346 1.348 . S
C349 C347 1.356 . S
H350 C344 0.930 . S
H351 C348 0.930 . S
C352 C354 1.348 . S
C352 C355 1.356 . S
C352 O382 1.325 . S
N353 C356 1.314 . S
N353 C357 1.279 . S
C354 C352 1.348 . S
C354 C356 1.353 . S
C354 H396 0.929 . S
C355 C352 1.356 . S
C355 C357 1.358 . S
C355 H397 0.930 . S
C356 N353 1.314 . S
C356 C354 1.353 . S
C356 H398 0.930 . S
C357 N353 1.279 . S
C357 C355 1.358 . S
C357 H399 0.930 . S
C358 C359 1.348 1_554 S
C358 C360 1.356 . S
C358 O383 1.325 . S
C359 C358 1.348 1_556 S
C359 C361 1.353 . S
C359 H400 0.929 . S
C360 C358 1.356 . S
C360 C362 1.358 . S
C360 H401 0.930 . S
C361 C359 1.353 . S
C361 N363 1.314 1_556 S
C361 H402 0.930 . S
C362 C360 1.358 . S
C362 N363 1.279 . S
C362 H403 0.930 . S
N363 C361 1.314 1_554 S
N363 C362 1.279 . S
C364 C366 1.353 . S
C364 N367 1.314 . S
C364 H370 0.930 . S
C365 N367 1.279 . S
C365 C368 1.358 . S
C365 H371 0.930 . S
C366 C364 1.353 . S
C366 C369 1.348 . S
C366 H404 0.929 . S
N367 Li322 1.990 . S
N367 C364 1.314 . S
N367 C365 1.279 . S
C368 C365 1.358 . S
C368 C369 1.356 . S
C368 H405 0.930 . S
C369 C366 1.348 . S
C369 C368 1.356 . S
H370 C364 0.930 . S
H371 C365 0.930 . S
C372 N373 1.314 . S
C372 C374 1.353 . S
C372 H378 0.930 . S
N373 Li323 1.990 . S
N373 C372 1.314 . S
N373 C376 1.279 . S
C374 C372 1.353 . S
C374 C377 1.348 . S
C374 H406 0.929 . S
C375 C376 1.358 . S
C375 C377 1.356 . S
C375 H407 0.930 . S
C376 N373 1.279 . S
C376 C375 1.358 . S
C376 H379 0.930 . S
C377 C374 1.348 . S
C377 C375 1.356 . S
H378 C372 0.930 . S
H379 C376 0.930 . S
O380 Li320 1.958 . S
O380 Li321 1.927 1_556 S
O380 Li322 1.995 . S
O380 C324 1.333 . S
O381 Li320 1.970 1_554 S
O381 Li321 1.956 . S
O381 Li323 1.961 . S
O381 C330 1.325 . S
O382 Li320 1.961 . S
O382 Li322 1.956 . S
O382 Li323 1.970 1_556 S
O382 C352 1.325 . S
O383 Li321 1.961 . S
O383 Li322 1.970 1_554 S
O383 Li323 1.956 . S
O383 C358 1.325 . S
H384 C326 0.929 . S
H385 C327 0.930 . S
H386 C328 0.930 . S
H387 C329 0.930 . S
H388 C331 0.930 . S
H389 C333 0.929 . S
H390 C334 0.930 . S
H391 C335 0.930 . S
H392 C338 0.930 . S
H393 C341 0.929 . S
H394 C346 0.929 . S
H395 C347 0.930 . S
H396 C354 0.929 . S
H397 C355 0.930 . S
H398 C356 0.930 . S
H399 C357 0.930 . S
H400 C359 0.929 . S
H401 C360 0.930 . S
H402 C361 0.930 . S
H403 C362 0.930 . S
H404 C366 0.929 . S
H405 C368 0.930 . S
H406 C374 0.929 . S
H407 C375 0.930 . S
Li408 N425 1.990 . S
Li408 O468 1.956 . S
Li408 O469 1.970 1_545 S
Li408 O470 1.961 . S
Li409 N433 1.990 . S
Li409 O468 1.970 1_565 S
Li409 O469 1.956 . S
Li409 O471 1.961 . S
Li410 N455 1.990 . S
Li410 O468 1.961 . S
Li410 O470 1.956 . S
Li410 O471 1.970 1_545 S
Li411 N461 1.990 . S
Li411 O469 1.961 . S
Li411 O470 1.970 1_565 S
Li411 O471 1.956 . S
C412 C414 1.348 . S
C412 C415 1.356 . S
C412 O468 1.325 . S
N413 C416 1.314 . S
N413 C417 1.279 . S
C414 C412 1.348 . S
C414 C416 1.353 . S
C414 H472 0.929 . S
C415 C412 1.356 . S
C415 C417 1.358 . S
C415 H473 0.930 . S
C416 N413 1.314 . S
C416 C414 1.353 . S
C416 H474 0.930 . S
C417 N413 1.279 . S
C417 C415 1.358 . S
C417 H475 0.930 . S
C418 C421 1.348 1_565 S
C418 C422 1.356 . S
C418 O469 1.325 . S
C419 N420 1.279 . S
C419 C422 1.358 . S
C419 H476 0.930 . S
N420 C419 1.279 . S
N420 C423 1.314 1_565 S
C421 C418 1.348 1_545 S
C421 C423 1.353 . S
C421 H477 0.929 . S
C422 C418 1.356 . S
C422 C419 1.358 . S
C422 H478 0.930 . S
C423 N420 1.314 1_545 S
C423 C421 1.353 . S
C423 H479 0.930 . S
C424 N425 1.314 . S
C424 C429 1.353 . S
C424 H430 0.930 . S
N425 Li408 1.990 . S
N425 C424 1.314 . S
N425 C427 1.279 . S
C426 C427 1.358 . S
C426 C428 1.356 . S
C426 H480 0.930 . S
C427 N425 1.279 . S
C427 C426 1.358 . S
C427 H431 0.930 . S
C428 C426 1.356 . S
C428 C429 1.348 . S
C429 C424 1.353 . S
C429 C428 1.348 . S
C429 H481 0.929 . S
H430 C424 0.930 . S
H431 C427 0.930 . S
C432 N433 1.314 . S
C432 C434 1.353 . S
C432 H438 0.930 . S
N433 Li409 1.990 . S
N433 C432 1.314 . S
N433 C436 1.279 . S
C434 C432 1.353 . S
C434 C437 1.348 . S
C434 H482 0.929 . S
C435 C436 1.358 . S
C435 C437 1.356 . S
C435 H483 0.930 . S
C436 N433 1.279 . S
C436 C435 1.358 . S
C436 H439 0.930 . S
C437 C434 1.348 . S
C437 C435 1.356 . S
H438 C432 0.930 . S
H439 C436 0.930 . S
C440 C442 1.348 1_545 S
C440 C443 1.356 . S
C440 O470 1.325 . S
N441 C444 1.314 1_545 S
N441 C445 1.279 . S
C442 C440 1.348 1_565 S
C442 C444 1.353 . S
C442 H484 0.929 . S
C443 C440 1.356 . S
C443 C445 1.358 . S
C443 H485 0.930 . S
C444 N441 1.314 1_565 S
C444 C442 1.353 . S
C444 H486 0.930 . S
C445 N441 1.279 . S
C445 C443 1.358 . S
C445 H487 0.930 . S
C446 C447 1.348 . S
C446 C448 1.356 . S
C446 O471 1.325 . S
C447 C446 1.348 . S
C447 C449 1.353 . S
C447 H488 0.929 . S
C448 C446 1.356 . S
C448 C450 1.358 . S
C448 H489 0.930 . S
C449 C447 1.353 . S
C449 N451 1.314 . S
C449 H490 0.930 . S
C450 C448 1.358 . S
C450 N451 1.279 . S
C450 H491 0.930 . S
N451 C449 1.314 . S
N451 C450 1.279 . S
C452 C454 1.353 . S
C452 N455 1.314 . S
C452 H458 0.930 . S
C453 N455 1.279 . S
C453 C456 1.358 . S
C453 H459 0.930 . S
C454 C452 1.353 . S
C454 C457 1.348 . S
C454 H492 0.929 . S
N455 Li410 1.990 . S
N455 C452 1.314 . S
N455 C453 1.279 . S
C456 C453 1.358 . S
C456 C457 1.356 . S
C456 H493 0.930 . S
C457 C454 1.348 . S
C457 C456 1.356 . S
H458 C452 0.930 . S
H459 C453 0.930 . S
C460 N461 1.314 . S
C460 C462 1.353 . S
C460 H466 0.930 . S
N461 Li411 1.990 . S
N461 C460 1.314 . S
N461 C464 1.279 . S
C462 C460 1.353 . S
C462 C465 1.348 . S
C462 H494 0.929 . S
C463 C464 1.358 . S
C463 C465 1.356 . S
C463 H495 0.930 . S
C464 N461 1.279 . S
C464 C463 1.358 . S
C464 H467 0.930 . S
C465 C462 1.348 . S
C465 C463 1.356 . S
H466 C460 0.930 . S
H467 C464 0.930 . S
O468 Li408 1.956 . S
O468 Li409 1.970 1_545 S
O468 Li410 1.961 . S
O468 C412 1.325 . S
O469 Li408 1.970 1_565 S
O469 Li409 1.956 . S
O469 Li411 1.961 . S
O469 C418 1.325 . S
O470 Li408 1.961 . S
O470 Li410 1.956 . S
O470 Li411 1.970 1_545 S
O470 C440 1.325 . S
O471 Li409 1.961 . S
O471 Li410 1.970 1_565 S
O471 Li411 1.956 . S
O471 C446 1.325 . S
H472 C414 0.929 . S
H473 C415 0.930 . S
H474 C416 0.930 . S
H475 C417 0.930 . S
H476 C419 0.930 . S
H477 C421 0.929 . S
H478 C422 0.930 . S
H479 C423 0.930 . S
H480 C426 0.930 . S
H481 C429 0.929 . S
H482 C434 0.929 . S
H483 C435 0.930 . S
H484 C442 0.929 . S
H485 C443 0.930 . S
H486 C444 0.930 . S
H487 C445 0.930 . S
H488 C447 0.929 . S
H489 C448 0.930 . S
H490 C449 0.930 . S
H491 C450 0.930 . S
H492 C454 0.929 . S
H493 C456 0.930 . S
H494 C462 0.929 . S
H495 C463 0.930 . S
Li496 N513 1.990 . S
Li496 O556 1.956 . S
Li496 O557 1.970 . S
Li496 O558 1.961 . S
Li497 N521 1.990 . S
Li497 O556 1.970 . S
Li497 O557 1.956 . S
Li497 O559 1.961 . S
Li498 N543 1.990 . S
Li498 O556 1.961 . S
Li498 O558 1.956 . S
Li498 O559 1.970 . S
Li499 N549 1.990 . S
Li499 O557 1.961 . S
Li499 O558 1.970 . S
Li499 O559 1.956 . S
C500 C502 1.348 . S
C500 C503 1.356 . S
C500 O556 1.325 . S
N501 C504 1.314 . S
N501 C505 1.279 . S
C502 C500 1.348 . S
C502 C504 1.353 . S
C502 H560 0.929 . S
C503 C500 1.356 . S
C503 C505 1.358 . S
C503 H561 0.930 . S
C504 N501 1.314 . S
C504 C502 1.353 . S
C504 H562 0.930 . S
C505 N501 1.279 . S
C505 C503 1.358 . S
C505 H563 0.930 . S
C506 C509 1.348 . S
C506 C510 1.356 . S
C506 O557 1.325 . S
C507 N508 1.279 . S
C507 C510 1.358 . S
C507 H564 0.930 . S
N508 C507 1.279 . S
N508 C511 1.314 . S
C509 C506 1.348 . S
C509 C511 1.353 . S
C509 H565 0.929 . S
C510 C506 1.356 . S
C510 C507 1.358 . S
C510 H566 0.930 . S
C511 N508 1.314 . S
C511 C509 1.353 . S
C511 H567 0.930 . S
C512 N513 1.314 . S
C512 C517 1.353 . S
C512 H518 0.930 . S
N513 Li496 1.990 . S
N513 C512 1.314 . S
N513 C515 1.279 . S
C514 C515 1.358 . S
C514 C516 1.356 . S
C514 H568 0.930 . S
C515 N513 1.279 . S
C515 C514 1.358 . S
C515 H519 0.930 . S
C516 C514 1.356 . S
C516 C517 1.348 . S
C517 C512 1.353 . S
C517 C516 1.348 . S
C517 H569 0.929 . S
H518 C512 0.930 . S
H519 C515 0.930 . S
C520 N521 1.314 . S
C520 C522 1.353 . S
C520 H526 0.930 . S
N521 Li497 1.990 . S
N521 C520 1.314 . S
N521 C524 1.279 . S
C522 C520 1.353 . S
C522 C525 1.348 . S
C522 H570 0.929 . S
C523 C524 1.358 . S
C523 C525 1.356 . S
C523 H571 0.930 . S
C524 N521 1.279 . S
C524 C523 1.358 . S
C524 H527 0.930 . S
C525 C522 1.348 . S
C525 C523 1.356 . S
H526 C520 0.930 . S
H527 C524 0.930 . S
C528 C530 1.348 . S
C528 C531 1.356 . S
C528 O558 1.325 . S
N529 C532 1.314 . S
N529 C533 1.279 . S
C530 C528 1.348 . S
C530 C532 1.353 . S
C530 H572 0.929 . S
C531 C528 1.356 . S
C531 C533 1.358 . S
C531 H573 0.930 . S
C532 N529 1.314 . S
C532 C530 1.353 . S
C532 H574 0.930 . S
C533 N529 1.279 . S
C533 C531 1.358 . S
C533 H575 0.930 . S
C534 C535 1.348 . S
C534 C536 1.356 . S
C534 O559 1.325 . S
C535 C534 1.348 . S
C535 C537 1.353 . S
C535 H576 0.929 . S
C536 C534 1.356 . S
C536 C538 1.358 . S
C536 H577 0.930 . S
C537 C535 1.353 . S
C537 N539 1.314 . S
C537 H578 0.930 . S
C538 C536 1.358 . S
C538 N539 1.279 . S
C538 H579 0.930 . S
N539 C537 1.314 . S
N539 C538 1.279 . S
C540 C542 1.353 . S
C540 N543 1.314 . S
C540 H546 0.930 . S
C541 N543 1.279 . S
C541 C544 1.358 . S
C541 H547 0.930 . S
C542 C540 1.353 . S
C542 C545 1.348 . S
C542 H580 0.929 . S
N543 Li498 1.990 . S
N543 C540 1.314 . S
N543 C541 1.279 . S
C544 C541 1.358 . S
C544 C545 1.356 . S
C544 H581 0.930 . S
C545 C542 1.348 . S
C545 C544 1.356 . S
H546 C540 0.930 . S
H547 C541 0.930 . S
C548 N549 1.314 . S
C548 C550 1.353 . S
C548 H554 0.930 . S
N549 Li499 1.990 . S
N549 C548 1.314 . S
N549 C552 1.279 . S
C550 C548 1.353 . S
C550 C553 1.348 . S
C550 H582 0.929 . S
C551 C552 1.358 . S
C551 C553 1.356 . S
C551 H583 0.930 . S
C552 N549 1.279 . S
C552 C551 1.358 . S
C552 H555 0.930 . S
C553 C550 1.348 . S
C553 C551 1.356 . S
H554 C548 0.930 . S
H555 C552 0.930 . S
O556 Li496 1.956 . S
O556 Li497 1.970 . S
O556 Li498 1.961 . S
O556 C500 1.325 . S
O557 Li496 1.970 . S
O557 Li497 1.956 . S
O557 Li499 1.961 . S
O557 C506 1.325 . S
O558 Li496 1.961 . S
O558 Li498 1.956 . S
O558 Li499 1.970 . S
O558 C528 1.325 . S
O559 Li497 1.961 . S
O559 Li498 1.970 . S
O559 Li499 1.956 . S
O559 C534 1.325 . S
H560 C502 0.929 . S
H561 C503 0.930 . S
H562 C504 0.930 . S
H563 C505 0.930 . S
H564 C507 0.930 . S
H565 C509 0.929 . S
H566 C510 0.930 . S
H567 C511 0.930 . S
H568 C514 0.930 . S
H569 C517 0.929 . S
H570 C522 0.929 . S
H571 C523 0.930 . S
H572 C530 0.929 . S
H573 C531 0.930 . S
H574 C532 0.930 . S
H575 C533 0.930 . S
H576 C535 0.929 . S
H577 C536 0.930 . S
H578 C537 0.930 . S
H579 C538 0.930 . S
H580 C542 0.929 . S
H581 C544 0.930 . S
H582 C550 0.929 . S
H583 C551 0.930 . S
Li584 N601 1.990 . S
Li584 O644 1.956 . S
Li584 O645 1.970 . S
Li584 O646 1.961 . S
Li585 N609 1.990 . S
Li585 O644 1.970 . S
Li585 O645 1.956 . S
Li585 O647 1.961 . S
Li586 N631 1.990 . S
Li586 O644 1.961 . S
Li586 O646 1.956 . S
Li586 O647 1.970 . S
Li587 N637 1.990 . S
Li587 O645 1.961 . S
Li587 O646 1.970 . S
Li587 O647 1.956 . S
C588 C590 1.348 . S
C588 C591 1.356 . S
C588 O644 1.325 . S
N589 C592 1.314 . S
N589 C593 1.279 . S
C590 C588 1.348 . S
C590 C592 1.353 . S
C590 H648 0.929 . S
C591 C588 1.356 . S
C591 C593 1.358 . S
C591 H649 0.930 . S
C592 N589 1.314 . S
C592 C590 1.353 . S
C592 H650 0.930 . S
C593 N589 1.279 . S
C593 C591 1.358 . S
C593 H651 0.930 . S
C594 C597 1.348 . S
C594 C598 1.356 . S
C594 O645 1.325 . S
C595 N596 1.279 . S
C595 C598 1.358 . S
C595 H652 0.930 . S
N596 C595 1.279 . S
N596 C599 1.314 . S
C597 C594 1.348 . S
C597 C599 1.353 . S
C597 H653 0.929 . S
C598 C594 1.356 . S
C598 C595 1.358 . S
C598 H654 0.930 . S
C599 N596 1.314 . S
C599 C597 1.353 . S
C599 H655 0.930 . S
C600 N601 1.314 . S
C600 C605 1.353 . S
C600 H606 0.930 . S
N601 Li584 1.990 . S
N601 C600 1.314 . S
N601 C603 1.279 . S
C602 C603 1.358 . S
C602 C604 1.356 . S
C602 H656 0.930 . S
C603 N601 1.279 . S
C603 C602 1.358 . S
C603 H607 0.930 . S
C604 C602 1.356 . S
C604 C605 1.348 . S
C605 C600 1.353 . S
C605 C604 1.348 . S
C605 H657 0.929 . S
H606 C600 0.930 . S
H607 C603 0.930 . S
C608 N609 1.314 . S
C608 C610 1.353 . S
C608 H614 0.930 . S
N609 Li585 1.990 . S
N609 C608 1.314 . S
N609 C612 1.279 . S
C610 C608 1.353 . S
C610 C613 1.348 . S
C610 H658 0.929 . S
C611 C612 1.358 . S
C611 C613 1.356 . S
C611 H659 0.930 . S
C612 N609 1.279 . S
C612 C611 1.358 . S
C612 H615 0.930 . S
C613 C610 1.348 . S
C613 C611 1.356 . S
H614 C608 0.930 . S
H615 C612 0.930 . S
C616 C618 1.348 . S
C616 C619 1.356 . S
C616 O646 1.325 . S
N617 C620 1.314 . S
N617 C621 1.279 . S
C618 C616 1.348 . S
C618 C620 1.353 . S
C618 H660 0.929 . S
C619 C616 1.356 . S
C619 C621 1.358 . S
C619 H661 0.930 . S
C620 N617 1.314 . S
C620 C618 1.353 . S
C620 H662 0.930 . S
C621 N617 1.279 . S
C621 C619 1.358 . S
C621 H663 0.930 . S
C622 C623 1.348 . S
C622 C624 1.356 . S
C622 O647 1.325 . S
C623 C622 1.348 . S
C623 C625 1.353 . S
C623 H664 0.929 . S
C624 C622 1.356 . S
C624 C626 1.358 . S
C624 H665 0.930 . S
C625 C623 1.353 . S
C625 N627 1.314 . S
C625 H666 0.930 . S
C626 C624 1.358 . S
C626 N627 1.279 . S
C626 H667 0.930 . S
N627 C625 1.314 . S
N627 C626 1.279 . S
C628 C630 1.353 . S
C628 N631 1.314 . S
C628 H634 0.930 . S
C629 N631 1.279 . S
C629 C632 1.358 . S
C629 H635 0.930 . S
C630 C628 1.353 . S
C630 C633 1.348 . S
C630 H668 0.929 . S
N631 Li586 1.990 . S
N631 C628 1.314 . S
N631 C629 1.279 . S
C632 C629 1.358 . S
C632 C633 1.356 . S
C632 H669 0.930 . S
C633 C630 1.348 . S
C633 C632 1.356 . S
H634 C628 0.930 . S
H635 C629 0.930 . S
C636 N637 1.314 . S
C636 C638 1.353 . S
C636 H642 0.930 . S
N637 Li587 1.990 . S
N637 C636 1.314 . S
N637 C640 1.279 . S
C638 C636 1.353 . S
C638 C641 1.348 . S
C638 H670 0.929 . S
C639 C640 1.358 . S
C639 C641 1.356 . S
C639 H671 0.930 . S
C640 N637 1.279 . S
C640 C639 1.358 . S
C640 H643 0.930 . S
C641 C638 1.348 . S
C641 C639 1.356 . S
H642 C636 0.930 . S
H643 C640 0.930 . S
O644 Li584 1.956 . S
O644 Li585 1.970 . S
O644 Li586 1.961 . S
O644 C588 1.325 . S
O645 Li584 1.970 . S
O645 Li585 1.956 . S
O645 Li587 1.961 . S
O645 C594 1.325 . S
O646 Li584 1.961 . S
O646 Li586 1.956 . S
O646 Li587 1.970 . S
O646 C616 1.325 . S
O647 Li585 1.961 . S
O647 Li586 1.970 . S
O647 Li587 1.956 . S
O647 C622 1.325 . S
H648 C590 0.929 . S
H649 C591 0.930 . S
H650 C592 0.930 . S
H651 C593 0.930 . S
H652 C595 0.930 . S
H653 C597 0.929 . S
H654 C598 0.930 . S
H655 C599 0.930 . S
H656 C602 0.930 . S
H657 C605 0.929 . S
H658 C610 0.929 . S
H659 C611 0.930 . S
H660 C618 0.929 . S
H661 C619 0.930 . S
H662 C620 0.930 . S
H663 C621 0.930 . S
H664 C623 0.929 . S
H665 C624 0.930 . S
H666 C625 0.930 . S
H667 C626 0.930 . S
H668 C630 0.929 . S
H669 C632 0.930 . S
H670 C638 0.929 . S
H671 C639 0.930 . S
Li672 N689 1.990 . S
Li672 O732 1.956 . S
Li672 O733 1.970 . S
Li672 O734 1.961 . S
Li673 N697 1.990 . S
Li673 O732 1.970 . S
Li673 O733 1.956 . S
Li673 O735 1.961 . S
Li674 N719 1.990 . S
Li674 O732 1.961 . S
Li674 O734 1.956 . S
Li674 O735 1.970 . S
Li675 N725 1.990 . S
Li675 O733 1.961 . S
Li675 O734 1.970 . S
Li675 O735 1.956 . S
C676 C678 1.348 . S
C676 C679 1.356 . S
C676 O732 1.325 . S
N677 C680 1.314 . S
N677 C681 1.279 . S
C678 C676 1.348 . S
C678 C680 1.353 . S
C678 H736 0.929 . S
C679 C676 1.356 . S
C679 C681 1.358 . S
C679 H737 0.930 . S
C680 N677 1.314 . S
C680 C678 1.353 . S
C680 H738 0.930 . S
C681 N677 1.279 . S
C681 C679 1.358 . S
C681 H739 0.930 . S
C682 C685 1.348 . S
C682 C686 1.356 . S
C682 O733 1.325 . S
C683 N684 1.279 . S
C683 C686 1.358 . S
C683 H740 0.930 . S
N684 C683 1.279 . S
N684 C687 1.314 . S
C685 C682 1.348 . S
C685 C687 1.353 . S
C685 H741 0.929 . S
C686 C682 1.356 . S
C686 C683 1.358 . S
C686 H742 0.930 . S
C687 N684 1.314 . S
C687 C685 1.353 . S
C687 H743 0.930 . S
C688 N689 1.314 . S
C688 C693 1.353 . S
C688 H694 0.930 . S
N689 Li672 1.990 . S
N689 C688 1.314 . S
N689 C691 1.279 . S
C690 C691 1.358 . S
C690 C692 1.356 . S
C690 H744 0.930 . S
C691 N689 1.279 . S
C691 C690 1.358 . S
C691 H695 0.930 . S
C692 C690 1.356 . S
C692 C693 1.348 . S
C693 C688 1.353 . S
C693 C692 1.348 . S
C693 H745 0.929 . S
H694 C688 0.930 . S
H695 C691 0.930 . S
C696 N697 1.314 . S
C696 C698 1.353 . S
C696 H702 0.930 . S
N697 Li673 1.990 . S
N697 C696 1.314 . S
N697 C700 1.279 . S
C698 C696 1.353 . S
C698 C701 1.348 . S
C698 H746 0.929 . S
C699 C700 1.358 . S
C699 C701 1.356 . S
C699 H747 0.930 . S
C700 N697 1.279 . S
C700 C699 1.358 . S
C700 H703 0.930 . S
C701 C698 1.348 . S
C701 C699 1.356 . S
H702 C696 0.930 . S
H703 C700 0.930 . S
C704 C706 1.348 . S
C704 C707 1.356 . S
C704 O734 1.325 . S
N705 C708 1.314 . S
N705 C709 1.279 . S
C706 C704 1.348 . S
C706 C708 1.353 . S
C706 H748 0.929 . S
C707 C704 1.356 . S
C707 C709 1.358 . S
C707 H749 0.930 . S
C708 N705 1.314 . S
C708 C706 1.353 . S
C708 H750 0.930 . S
C709 N705 1.279 . S
C709 C707 1.358 . S
C709 H751 0.930 . S
C710 C711 1.348 . S
C710 C712 1.356 . S
C710 O735 1.325 . S
C711 C710 1.348 . S
C711 C713 1.353 . S
C711 H752 0.929 . S
C712 C710 1.356 . S
C712 C714 1.358 . S
C712 H753 0.930 . S
C713 C711 1.353 . S
C713 N715 1.314 . S
C713 H754 0.930 . S
C714 C712 1.358 . S
C714 N715 1.279 . S
C714 H755 0.930 . S
N715 C713 1.314 . S
N715 C714 1.279 . S
C716 C718 1.353 . S
C716 N719 1.314 . S
C716 H722 0.930 . S
C717 N719 1.279 . S
C717 C720 1.358 . S
C717 H723 0.930 . S
C718 C716 1.353 . S
C718 C721 1.348 . S
C718 H756 0.929 . S
N719 Li674 1.990 . S
N719 C716 1.314 . S
N719 C717 1.279 . S
C720 C717 1.358 . S
C720 C721 1.356 . S
C720 H757 0.930 . S
C721 C718 1.348 . S
C721 C720 1.356 . S
H722 C716 0.930 . S
H723 C717 0.930 . S
C724 N725 1.314 . S
C724 C726 1.353 . S
C724 H730 0.930 . S
N725 Li675 1.990 . S
N725 C724 1.314 . S
N725 C728 1.279 . S
C726 C724 1.353 . S
C726 C729 1.348 . S
C726 H758 0.929 . S
C727 C728 1.358 . S
C727 C729 1.356 . S
C727 H759 0.930 . S
C728 N725 1.279 . S
C728 C727 1.358 . S
C728 H731 0.930 . S
C729 C726 1.348 . S
C729 C727 1.356 . S
H730 C724 0.930 . S
H731 C728 0.930 . S
O732 Li672 1.956 . S
O732 Li673 1.970 . S
O732 Li674 1.961 . S
O732 C676 1.325 . S
O733 Li672 1.970 . S
O733 Li673 1.956 . S
O733 Li675 1.961 . S
O733 C682 1.325 . S
O734 Li672 1.961 . S
O734 Li674 1.956 . S
O734 Li675 1.970 . S
O734 C704 1.325 . S
O735 Li673 1.961 . S
O735 Li674 1.970 . S
O735 Li675 1.956 . S
O735 C710 1.325 . S
H736 C678 0.929 . S
H737 C679 0.930 . S
H738 C680 0.930 . S
H739 C681 0.930 . S
H740 C683 0.930 . S
H741 C685 0.929 . S
H742 C686 0.930 . S
H743 C687 0.930 . S
H744 C690 0.930 . S
H745 C693 0.929 . S
H746 C698 0.929 . S
H747 C699 0.930 . S
H748 C706 0.929 . S
H749 C707 0.930 . S
H750 C708 0.930 . S
H751 C709 0.930 . S
H752 C711 0.929 . S
H753 C712 0.930 . S
H754 C713 0.930 . S
H755 C714 0.930 . S
H756 C718 0.929 . S
H757 C720 0.930 . S
H758 C726 0.929 . S
H759 C727 0.930 . S
Li760 N777 1.990 . S
Li760 O820 1.956 . S
Li760 O821 1.970 1_565 S
Li760 O822 1.961 . S
Li761 N785 1.990 . S
Li761 O820 1.970 1_545 S
Li761 O821 1.956 . S
Li761 O823 1.961 . S
Li762 N807 1.990 . S
Li762 O820 1.961 . S
Li762 O822 1.956 . S
Li762 O823 1.970 1_565 S
Li763 N813 1.990 . S
Li763 O821 1.961 . S
Li763 O822 1.970 1_545 S
Li763 O823 1.956 . S
C764 C766 1.348 . S
C764 C767 1.356 . S
C764 O820 1.325 . S
N765 C768 1.314 . S
N765 C769 1.279 . S
C766 C764 1.348 . S
C766 C768 1.353 . S
C766 H824 0.929 . S
C767 C764 1.356 . S
C767 C769 1.358 . S
C767 H825 0.930 . S
C768 N765 1.314 . S
C768 C766 1.353 . S
C768 H826 0.930 . S
C769 N765 1.279 . S
C769 C767 1.358 . S
C769 H827 0.930 . S
C770 C773 1.348 1_545 S
C770 C774 1.356 . S
C770 O821 1.325 . S
C771 N772 1.279 . S
C771 C774 1.358 . S
C771 H828 0.930 . S
N772 C771 1.279 . S
N772 C775 1.314 1_545 S
C773 C770 1.348 1_565 S
C773 C775 1.353 . S
C773 H829 0.929 . S
C774 C770 1.356 . S
C774 C771 1.358 . S
C774 H830 0.930 . S
C775 N772 1.314 1_565 S
C775 C773 1.353 . S
C775 H831 0.930 . S
C776 N777 1.314 . S
C776 C781 1.353 . S
C776 H782 0.930 . S
N777 Li760 1.990 . S
N777 C776 1.314 . S
N777 C779 1.279 . S
C778 C779 1.358 . S
C778 C780 1.356 . S
C778 H832 0.930 . S
C779 N777 1.279 . S
C779 C778 1.358 . S
C779 H783 0.930 . S
C780 C778 1.356 . S
C780 C781 1.348 . S
C781 C776 1.353 . S
C781 C780 1.348 . S
C781 H833 0.929 . S
H782 C776 0.930 . S
H783 C779 0.930 . S
C784 N785 1.314 . S
C784 C786 1.353 . S
C784 H790 0.930 . S
N785 Li761 1.990 . S
N785 C784 1.314 . S
N785 C788 1.279 . S
C786 C784 1.353 . S
C786 C789 1.348 . S
C786 H834 0.929 . S
C787 C788 1.358 . S
C787 C789 1.356 . S
C787 H835 0.930 . S
C788 N785 1.279 . S
C788 C787 1.358 . S
C788 H791 0.930 . S
C789 C786 1.348 . S
C789 C787 1.356 . S
H790 C784 0.930 . S
H791 C788 0.930 . S
C792 C794 1.348 1_565 S
C792 C795 1.356 . S
C792 O822 1.325 . S
N793 C796 1.314 1_565 S
N793 C797 1.279 . S
C794 C792 1.348 1_545 S
C794 C796 1.353 . S
C794 H836 0.929 . S
C795 C792 1.356 . S
C795 C797 1.358 . S
C795 H837 0.930 . S
C796 N793 1.314 1_545 S
C796 C794 1.353 . S
C796 H838 0.930 . S
C797 N793 1.279 . S
C797 C795 1.358 . S
C797 H839 0.930 . S
C798 C799 1.348 . S
C798 C800 1.356 . S
C798 O823 1.325 . S
C799 C798 1.348 . S
C799 C801 1.353 . S
C799 H840 0.929 . S
C800 C798 1.356 . S
C800 C802 1.358 . S
C800 H841 0.930 . S
C801 C799 1.353 . S
C801 N803 1.314 . S
C801 H842 0.930 . S
C802 C800 1.358 . S
C802 N803 1.279 . S
C802 H843 0.930 . S
N803 C801 1.314 . S
N803 C802 1.279 . S
C804 C806 1.353 . S
C804 N807 1.314 . S
C804 H810 0.930 . S
C805 N807 1.279 . S
C805 C808 1.358 . S
C805 H811 0.930 . S
C806 C804 1.353 . S
C806 C809 1.348 . S
C806 H844 0.929 . S
N807 Li762 1.990 . S
N807 C804 1.314 . S
N807 C805 1.279 . S
C808 C805 1.358 . S
C808 C809 1.356 . S
C808 H845 0.930 . S
C809 C806 1.348 . S
C809 C808 1.356 . S
H810 C804 0.930 . S
H811 C805 0.930 . S
C812 N813 1.314 . S
C812 C814 1.353 . S
C812 H818 0.930 . S
N813 Li763 1.990 . S
N813 C812 1.314 . S
N813 C816 1.279 . S
C814 C812 1.353 . S
C814 C817 1.348 . S
C814 H846 0.929 . S
C815 C816 1.358 . S
C815 C817 1.356 . S
C815 H847 0.930 . S
C816 N813 1.279 . S
C816 C815 1.358 . S
C816 H819 0.930 . S
C817 C814 1.348 . S
C817 C815 1.356 . S
H818 C812 0.930 . S
H819 C816 0.930 . S
O820 Li760 1.956 . S
O820 Li761 1.970 1_565 S
O820 Li762 1.961 . S
O820 C764 1.325 . S
O821 Li760 1.970 1_545 S
O821 Li761 1.956 . S
O821 Li763 1.961 . S
O821 C770 1.325 . S
O822 Li760 1.961 . S
O822 Li762 1.956 . S
O822 Li763 1.970 1_565 S
O822 C792 1.325 . S
O823 Li761 1.961 . S
O823 Li762 1.970 1_545 S
O823 Li763 1.956 . S
O823 C798 1.325 . S
H824 C766 0.929 . S
H825 C767 0.930 . S
H826 C768 0.930 . S
H827 C769 0.930 . S
H828 C771 0.930 . S
H829 C773 0.929 . S
H830 C774 0.930 . S
H831 C775 0.930 . S
H832 C778 0.930 . S
H833 C781 0.929 . S
H834 C786 0.929 . S
H835 C787 0.930 . S
H836 C794 0.929 . S
H837 C795 0.930 . S
H838 C796 0.930 . S
H839 C797 0.930 . S
H840 C799 0.929 . S
H841 C800 0.930 . S
H842 C801 0.930 . S
H843 C802 0.930 . S
H844 C806 0.929 . S
H845 C808 0.930 . S
H846 C814 0.929 . S
H847 C815 0.930 . S
Li848 N865 1.990 . S
Li848 O908 1.956 . S
Li848 O909 1.970 1_455 S
Li848 O910 1.961 . S
Li849 N873 1.990 . S
Li849 O908 1.970 1_655 S
Li849 O909 1.956 . S
Li849 O911 1.961 . S
Li850 N895 1.990 . S
Li850 O908 1.961 . S
Li850 O910 1.956 . S
Li850 O911 1.970 1_455 S
Li851 N901 1.990 . S
Li851 O909 1.961 . S
Li851 O910 1.970 1_655 S
Li851 O911 1.956 . S
C852 C854 1.348 . S
C852 C855 1.356 . S
C852 O908 1.325 . S
N853 C856 1.314 . S
N853 C857 1.279 . S
C854 C852 1.348 . S
C854 C856 1.353 . S
C854 H912 0.929 . S
C855 C852 1.356 . S
C855 C857 1.358 . S
C855 H913 0.930 . S
C856 N853 1.314 . S
C856 C854 1.353 . S
C856 H914 0.930 . S
C857 N853 1.279 . S
C857 C855 1.358 . S
C857 H915 0.930 . S
C858 C861 1.348 1_655 S
C858 C862 1.356 . S
C858 O909 1.325 . S
C859 N860 1.279 . S
C859 C862 1.358 . S
C859 H916 0.930 . S
N860 C859 1.279 . S
N860 C863 1.314 1_655 S
C861 C858 1.348 1_455 S
C861 C863 1.353 . S
C861 H917 0.929 . S
C862 C858 1.356 . S
C862 C859 1.358 . S
C862 H918 0.930 . S
C863 N860 1.314 1_455 S
C863 C861 1.353 . S
C863 H919 0.930 . S
C864 N865 1.314 . S
C864 C869 1.353 . S
C864 H870 0.930 . S
N865 Li848 1.990 . S
N865 C864 1.314 . S
N865 C867 1.279 . S
C866 C867 1.358 . S
C866 C868 1.356 . S
C866 H920 0.930 . S
C867 N865 1.279 . S
C867 C866 1.358 . S
C867 H871 0.930 . S
C868 C866 1.356 . S
C868 C869 1.348 . S
C869 C864 1.353 . S
C869 C868 1.348 . S
C869 H921 0.929 . S
H870 C864 0.930 . S
H871 C867 0.930 . S
C872 N873 1.314 . S
C872 C874 1.353 . S
C872 H878 0.930 . S
N873 Li849 1.990 . S
N873 C872 1.314 . S
N873 C876 1.279 . S
C874 C872 1.353 . S
C874 C877 1.348 . S
C874 H922 0.929 . S
C875 C876 1.358 . S
C875 C877 1.356 . S
C875 H923 0.930 . S
C876 N873 1.279 . S
C876 C875 1.358 . S
C876 H879 0.930 . S
C877 C874 1.348 . S
C877 C875 1.356 . S
H878 C872 0.930 . S
H879 C876 0.930 . S
C880 C882 1.348 1_455 S
C880 C883 1.356 . S
C880 O910 1.325 . S
N881 C884 1.314 1_455 S
N881 C885 1.279 . S
C882 C880 1.348 1_655 S
C882 C884 1.353 . S
C882 H924 0.929 . S
C883 C880 1.356 . S
C883 C885 1.358 . S
C883 H925 0.930 . S
C884 N881 1.314 1_655 S
C884 C882 1.353 . S
C884 H926 0.930 . S
C885 N881 1.279 . S
C885 C883 1.358 . S
C885 H927 0.930 . S
C886 C887 1.348 . S
C886 C888 1.356 . S
C886 O911 1.325 . S
C887 C886 1.348 . S
C887 C889 1.353 . S
C887 H928 0.929 . S
C888 C886 1.356 . S
C888 C890 1.358 . S
C888 H929 0.930 . S
C889 C887 1.353 . S
C889 N891 1.314 . S
C889 H930 0.930 . S
C890 C888 1.358 . S
C890 N891 1.279 . S
C890 H931 0.930 . S
N891 C889 1.314 . S
N891 C890 1.279 . S
C892 C894 1.353 . S
C892 N895 1.314 . S
C892 H898 0.930 . S
C893 N895 1.279 . S
C893 C896 1.358 . S
C893 H899 0.930 . S
C894 C892 1.353 . S
C894 C897 1.348 . S
C894 H932 0.929 . S
N895 Li850 1.990 . S
N895 C892 1.314 . S
N895 C893 1.279 . S
C896 C893 1.358 . S
C896 C897 1.356 . S
C896 H933 0.930 . S
C897 C894 1.348 . S
C897 C896 1.356 . S
H898 C892 0.930 . S
H899 C893 0.930 . S
C900 N901 1.314 . S
C900 C902 1.353 . S
C900 H906 0.930 . S
N901 Li851 1.990 . S
N901 C900 1.314 . S
N901 C904 1.279 . S
C902 C900 1.353 . S
C902 C905 1.348 . S
C902 H934 0.929 . S
C903 C904 1.358 . S
C903 C905 1.356 . S
C903 H935 0.930 . S
C904 N901 1.279 . S
C904 C903 1.358 . S
C904 H907 0.930 . S
C905 C902 1.348 . S
C905 C903 1.356 . S
H906 C900 0.930 . S
H907 C904 0.930 . S
O908 Li848 1.956 . S
O908 Li849 1.970 1_455 S
O908 Li850 1.961 . S
O908 C852 1.325 . S
O909 Li848 1.970 1_655 S
O909 Li849 1.956 . S
O909 Li851 1.961 . S
O909 C858 1.325 . S
O910 Li848 1.961 . S
O910 Li850 1.956 . S
O910 Li851 1.970 1_455 S
O910 C880 1.325 . S
O911 Li849 1.961 . S
O911 Li850 1.970 1_655 S
O911 Li851 1.956 . S
O911 C886 1.325 . S
H912 C854 0.929 . S
H913 C855 0.930 . S
H914 C856 0.930 . S
H915 C857 0.930 . S
H916 C859 0.930 . S
H917 C861 0.929 . S
H918 C862 0.930 . S
H919 C863 0.930 . S
H920 C866 0.930 . S
H921 C869 0.929 . S
H922 C874 0.929 . S
H923 C875 0.930 . S
H924 C882 0.929 . S
H925 C883 0.930 . S
H926 C884 0.930 . S
H927 C885 0.930 . S
H928 C887 0.929 . S
H929 C888 0.930 . S
H930 C889 0.930 . S
H931 C890 0.930 . S
H932 C894 0.929 . S
H933 C896 0.930 . S
H934 C902 0.929 . S
H935 C903 0.930 . S
Li936 N953 1.990 . S
Li936 O996 1.956 . S
Li936 O997 1.970 . S
Li936 O998 1.961 . S
Li937 N961 1.990 . S
Li937 O996 1.970 . S
Li937 O997 1.956 . S
Li937 O999 1.961 . S
Li938 N983 1.990 . S
Li938 O996 1.961 . S
Li938 O998 1.956 . S
Li938 O999 1.970 . S
Li939 N989 1.990 . S
Li939 O997 1.961 . S
Li939 O998 1.970 . S
Li939 O999 1.956 . S
C940 C942 1.348 . S
C940 C943 1.356 . S
C940 O996 1.325 . S
N941 C944 1.314 . S
N941 C945 1.279 . S
C942 C940 1.348 . S
C942 C944 1.353 . S
C942 H1000 0.929 . S
C943 C940 1.356 . S
C943 C945 1.358 . S
C943 H1001 0.930 . S
C944 N941 1.314 . S
C944 C942 1.353 . S
C944 H1002 0.930 . S
C945 N941 1.279 . S
C945 C943 1.358 . S
C945 H1003 0.930 . S
C946 C949 1.348 . S
C946 C950 1.356 . S
C946 O997 1.325 . S
C947 N948 1.279 . S
C947 C950 1.358 . S
C947 H1004 0.930 . S
N948 C947 1.279 . S
N948 C951 1.314 . S
C949 C946 1.348 . S
C949 C951 1.353 . S
C949 H1005 0.929 . S
C950 C946 1.356 . S
C950 C947 1.358 . S
C950 H1006 0.930 . S
C951 N948 1.314 . S
C951 C949 1.353 . S
C951 H1007 0.930 . S
C952 N953 1.314 . S
C952 C957 1.353 . S
C952 H958 0.930 . S
N953 Li936 1.990 . S
N953 C952 1.314 . S
N953 C955 1.279 . S
C954 C955 1.358 . S
C954 C956 1.356 . S
C954 H1008 0.930 . S
C955 N953 1.279 . S
C955 C954 1.358 . S
C955 H959 0.930 . S
C956 C954 1.356 . S
C956 C957 1.348 . S
C957 C952 1.353 . S
C957 C956 1.348 . S
C957 H1009 0.929 . S
H958 C952 0.930 . S
H959 C955 0.930 . S
C960 N961 1.314 . S
C960 C962 1.353 . S
C960 H966 0.930 . S
N961 Li937 1.990 . S
N961 C960 1.314 . S
N961 C964 1.279 . S
C962 C960 1.353 . S
C962 C965 1.348 . S
C962 H1010 0.929 . S
C963 C964 1.358 . S
C963 C965 1.356 . S
C963 H1011 0.930 . S
C964 N961 1.279 . S
C964 C963 1.358 . S
C964 H967 0.930 . S
C965 C962 1.348 . S
C965 C963 1.356 . S
H966 C960 0.930 . S
H967 C964 0.930 . S
C968 C970 1.348 . S
C968 C971 1.356 . S
C968 O998 1.325 . S
N969 C972 1.314 . S
N969 C973 1.279 . S
C970 C968 1.348 . S
C970 C972 1.353 . S
C970 H1012 0.929 . S
C971 C968 1.356 . S
C971 C973 1.358 . S
C971 H1013 0.930 . S
C972 N969 1.314 . S
C972 C970 1.353 . S
C972 H1014 0.930 . S
C973 N969 1.279 . S
C973 C971 1.358 . S
C973 H1015 0.930 . S
C974 C975 1.348 . S
C974 C976 1.356 . S
C974 O999 1.325 . S
C975 C974 1.348 . S
C975 C977 1.353 . S
C975 H1016 0.929 . S
C976 C974 1.356 . S
C976 C978 1.358 . S
C976 H1017 0.930 . S
C977 C975 1.353 . S
C977 N979 1.314 . S
C977 H1018 0.930 . S
C978 C976 1.358 . S
C978 N979 1.279 . S
C978 H1019 0.930 . S
N979 C977 1.314 . S
N979 C978 1.279 . S
C980 C982 1.353 . S
C980 N983 1.314 . S
C980 H986 0.930 . S
C981 N983 1.279 . S
C981 C984 1.358 . S
C981 H987 0.930 . S
C982 C980 1.353 . S
C982 C985 1.348 . S
C982 H1020 0.929 . S
N983 Li938 1.990 . S
N983 C980 1.314 . S
N983 C981 1.279 . S
C984 C981 1.358 . S
C984 C985 1.356 . S
C984 H1021 0.930 . S
C985 C982 1.348 . S
C985 C984 1.356 . S
H986 C980 0.930 . S
H987 C981 0.930 . S
C988 N989 1.314 . S
C988 C990 1.353 . S
C988 H994 0.930 . S
N989 Li939 1.990 . S
N989 C988 1.314 . S
N989 C992 1.279 . S
C990 C988 1.353 . S
C990 C993 1.348 . S
C990 H1022 0.929 . S
C991 C992 1.358 . S
C991 C993 1.356 . S
C991 H1023 0.930 . S
C992 N989 1.279 . S
C992 C991 1.358 . S
C992 H995 0.930 . S
C993 C990 1.348 . S
C993 C991 1.356 . S
H994 C988 0.930 . S
H995 C992 0.930 . S
O996 Li936 1.956 . S
O996 Li937 1.970 . S
O996 Li938 1.961 . S
O996 C940 1.325 . S
O997 Li936 1.970 . S
O997 Li937 1.956 . S
O997 Li939 1.961 . S
O997 C946 1.325 . S
O998 Li936 1.961 . S
O998 Li938 1.956 . S
O998 Li939 1.970 . S
O998 C968 1.325 . S
O999 Li937 1.961 . S
O999 Li938 1.970 . S
O999 Li939 1.956 . S
O999 C974 1.325 . S
H1000 C942 0.929 . S
H1001 C943 0.930 . S
H1002 C944 0.930 . S
H1003 C945 0.930 . S
H1004 C947 0.930 . S
H1005 C949 0.929 . S
H1006 C950 0.930 . S
H1007 C951 0.930 . S
H1008 C954 0.930 . S
H1009 C957 0.929 . S
H1010 C962 0.929 . S
H1011 C963 0.930 . S
H1012 C970 0.929 . S
H1013 C971 0.930 . S
H1014 C972 0.930 . S
H1015 C973 0.930 . S
H1016 C975 0.929 . S
H1017 C976 0.930 . S
H1018 C977 0.930 . S
H1019 C978 0.930 . S
H1020 C982 0.929 . S
H1021 C984 0.930 . S
H1022 C990 0.929 . S
H1023 C991 0.930 . S
Li1024 N1041 1.990 . S
Li1024 O1084 1.956 . S
Li1024 O1085 1.970 1_455 S
Li1024 O1086 1.961 . S
Li1025 N1049 1.990 . S
Li1025 O1084 1.970 1_655 S
Li1025 O1085 1.956 . S
Li1025 O1087 1.961 . S
Li1026 N1071 1.990 . S
Li1026 O1084 1.961 . S
Li1026 O1086 1.956 . S
Li1026 O1087 1.970 1_455 S
Li1027 N1077 1.990 . S
Li1027 O1085 1.961 . S
Li1027 O1086 1.970 1_655 S
Li1027 O1087 1.956 . S
C1028 C1030 1.348 1_455 S
C1028 C1031 1.356 . S
C1028 O1084 1.325 . S
N1029 C1032 1.314 1_455 S
N1029 C1033 1.279 . S
C1030 C1028 1.348 1_655 S
C1030 C1032 1.353 . S
C1030 H1088 0.929 . S
C1031 C1028 1.356 . S
C1031 C1033 1.358 . S
C1031 H1089 0.930 . S
C1032 N1029 1.314 1_655 S
C1032 C1030 1.353 . S
C1032 H1090 0.930 . S
C1033 N1029 1.279 . S
C1033 C1031 1.358 . S
C1033 H1091 0.930 . S
C1034 C1037 1.348 . S
C1034 C1038 1.356 . S
C1034 O1085 1.325 . S
C1035 N1036 1.279 . S
C1035 C1038 1.358 . S
C1035 H1092 0.930 . S
N1036 C1035 1.279 . S
N1036 C1039 1.314 . S
C1037 C1034 1.348 . S
C1037 C1039 1.353 . S
C1037 H1093 0.929 . S
C1038 C1034 1.356 . S
C1038 C1035 1.358 . S
C1038 H1094 0.930 . S
C1039 N1036 1.314 . S
C1039 C1037 1.353 . S
C1039 H1095 0.930 . S
C1040 N1041 1.314 . S
C1040 C1045 1.353 . S
C1040 H1046 0.930 . S
N1041 Li1024 1.990 . S
N1041 C1040 1.314 . S
N1041 C1043 1.279 . S
C1042 C1043 1.358 . S
C1042 C1044 1.356 . S
C1042 H1096 0.930 . S
C1043 N1041 1.279 . S
C1043 C1042 1.358 . S
C1043 H1047 0.930 . S
C1044 C1042 1.356 . S
C1044 C1045 1.348 . S
C1045 C1040 1.353 . S
C1045 C1044 1.348 . S
C1045 H1097 0.929 . S
H1046 C1040 0.930 . S
H1047 C1043 0.930 . S
C1048 N1049 1.314 . S
C1048 C1050 1.353 . S
C1048 H1054 0.930 . S
N1049 Li1025 1.990 . S
N1049 C1048 1.314 . S
N1049 C1052 1.279 . S
C1050 C1048 1.353 . S
C1050 C1053 1.348 . S
C1050 H1098 0.929 . S
C1051 C1052 1.358 . S
C1051 C1053 1.356 . S
C1051 H1099 0.930 . S
C1052 N1049 1.279 . S
C1052 C1051 1.358 . S
C1052 H1055 0.930 . S
C1053 C1050 1.348 . S
C1053 C1051 1.356 . S
H1054 C1048 0.930 . S
H1055 C1052 0.930 . S
C1056 C1058 1.348 . S
C1056 C1059 1.356 . S
C1056 O1086 1.325 . S
N1057 C1060 1.314 . S
N1057 C1061 1.279 . S
C1058 C1056 1.348 . S
C1058 C1060 1.353 . S
C1058 H1100 0.929 . S
C1059 C1056 1.356 . S
C1059 C1061 1.358 . S
C1059 H1101 0.930 . S
C1060 N1057 1.314 . S
C1060 C1058 1.353 . S
C1060 H1102 0.930 . S
C1061 N1057 1.279 . S
C1061 C1059 1.358 . S
C1061 H1103 0.930 . S
C1062 C1063 1.348 1_655 S
C1062 C1064 1.356 . S
C1062 O1087 1.325 . S
C1063 C1062 1.348 1_455 S
C1063 C1065 1.353 . S
C1063 H1104 0.929 . S
C1064 C1062 1.356 . S
C1064 C1066 1.358 . S
C1064 H1105 0.930 . S
C1065 C1063 1.353 . S
C1065 N1067 1.314 1_455 S
C1065 H1106 0.930 . S
C1066 C1064 1.358 . S
C1066 N1067 1.279 . S
C1066 H1107 0.930 . S
N1067 C1065 1.314 1_655 S
N1067 C1066 1.279 . S
C1068 C1070 1.353 . S
C1068 N1071 1.314 . S
C1068 H1074 0.930 . S
C1069 N1071 1.279 . S
C1069 C1072 1.358 . S
C1069 H1075 0.930 . S
C1070 C1068 1.353 . S
C1070 C1073 1.348 . S
C1070 H1108 0.929 . S
N1071 Li1026 1.990 . S
N1071 C1068 1.314 . S
N1071 C1069 1.279 . S
C1072 C1069 1.358 . S
C1072 C1073 1.356 . S
C1072 H1109 0.930 . S
C1073 C1070 1.348 . S
C1073 C1072 1.356 . S
H1074 C1068 0.930 . S
H1075 C1069 0.930 . S
C1076 N1077 1.314 . S
C1076 C1078 1.353 . S
C1076 H1082 0.930 . S
N1077 Li1027 1.990 . S
N1077 C1076 1.314 . S
N1077 C1080 1.279 . S
C1078 C1076 1.353 . S
C1078 C1081 1.348 . S
C1078 H1110 0.929 . S
C1079 C1080 1.358 . S
C1079 C1081 1.356 . S
C1079 H1111 0.930 . S
C1080 N1077 1.279 . S
C1080 C1079 1.358 . S
C1080 H1083 0.930 . S
C1081 C1078 1.348 . S
C1081 C1079 1.356 . S
H1082 C1076 0.930 . S
H1083 C1080 0.930 . S
O1084 Li1024 1.956 . S
O1084 Li1025 1.970 1_455 S
O1084 Li1026 1.961 . S
O1084 C1028 1.325 . S
O1085 Li1024 1.970 1_655 S
O1085 Li1025 1.956 . S
O1085 Li1027 1.961 . S
O1085 C1034 1.325 . S
O1086 Li1024 1.961 . S
O1086 Li1026 1.956 . S
O1086 Li1027 1.970 1_455 S
O1086 C1056 1.325 . S
O1087 Li1025 1.961 . S
O1087 Li1026 1.970 1_655 S
O1087 Li1027 1.956 . S
O1087 C1062 1.325 . S
H1088 C1030 0.929 . S
H1089 C1031 0.930 . S
H1090 C1032 0.930 . S
H1091 C1033 0.930 . S
H1092 C1035 0.930 . S
H1093 C1037 0.929 . S
H1094 C1038 0.930 . S
H1095 C1039 0.930 . S
H1096 C1042 0.930 . S
H1097 C1045 0.929 . S
H1098 C1050 0.929 . S
H1099 C1051 0.930 . S
H1100 C1058 0.929 . S
H1101 C1059 0.930 . S
H1102 C1060 0.930 . S
H1103 C1061 0.930 . S
H1104 C1063 0.929 . S
H1105 C1064 0.930 . S
H1106 C1065 0.930 . S
H1107 C1066 0.930 . S
H1108 C1070 0.929 . S
H1109 C1072 0.930 . S
H1110 C1078 0.929 . S
H1111 C1079 0.930 . S
Li1112 N1129 1.990 . S
Li1112 O1172 1.956 . S
Li1112 O1173 1.970 . S
Li1112 O1174 1.961 . S
Li1113 N1137 1.990 . S
Li1113 O1172 1.970 . S
Li1113 O1173 1.956 . S
Li1113 O1175 1.961 . S
Li1114 N1159 1.990 . S
Li1114 O1172 1.961 . S
Li1114 O1174 1.956 . S
Li1114 O1175 1.970 . S
Li1115 N1165 1.990 . S
Li1115 O1173 1.961 . S
Li1115 O1174 1.970 . S
Li1115 O1175 1.956 . S
C1116 C1118 1.348 . S
C1116 C1119 1.356 . S
C1116 O1172 1.325 . S
N1117 C1120 1.314 . S
N1117 C1121 1.279 . S
C1118 C1116 1.348 . S
C1118 C1120 1.353 . S
C1118 H1176 0.929 . S
C1119 C1116 1.356 . S
C1119 C1121 1.358 . S
C1119 H1177 0.930 . S
C1120 N1117 1.314 . S
C1120 C1118 1.353 . S
C1120 H1178 0.930 . S
C1121 N1117 1.279 . S
C1121 C1119 1.358 . S
C1121 H1179 0.930 . S
C1122 C1125 1.348 . S
C1122 C1126 1.356 . S
C1122 O1173 1.325 . S
C1123 N1124 1.279 . S
C1123 C1126 1.358 . S
C1123 H1180 0.930 . S
N1124 C1123 1.279 . S
N1124 C1127 1.314 . S
C1125 C1122 1.348 . S
C1125 C1127 1.353 . S
C1125 H1181 0.929 . S
C1126 C1122 1.356 . S
C1126 C1123 1.358 . S
C1126 H1182 0.930 . S
C1127 N1124 1.314 . S
C1127 C1125 1.353 . S
C1127 H1183 0.930 . S
C1128 N1129 1.314 . S
C1128 C1133 1.353 . S
C1128 H1134 0.930 . S
N1129 Li1112 1.990 . S
N1129 C1128 1.314 . S
N1129 C1131 1.279 . S
C1130 C1131 1.358 . S
C1130 C1132 1.356 . S
C1130 H1184 0.930 . S
C1131 N1129 1.279 . S
C1131 C1130 1.358 . S
C1131 H1135 0.930 . S
C1132 C1130 1.356 . S
C1132 C1133 1.348 . S
C1133 C1128 1.353 . S
C1133 C1132 1.348 . S
C1133 H1185 0.929 . S
H1134 C1128 0.930 . S
H1135 C1131 0.930 . S
C1136 N1137 1.314 . S
C1136 C1138 1.353 . S
C1136 H1142 0.930 . S
N1137 Li1113 1.990 . S
N1137 C1136 1.314 . S
N1137 C1140 1.279 . S
C1138 C1136 1.353 . S
C1138 C1141 1.348 . S
C1138 H1186 0.929 . S
C1139 C1140 1.358 . S
C1139 C1141 1.356 . S
C1139 H1187 0.930 . S
C1140 N1137 1.279 . S
C1140 C1139 1.358 . S
C1140 H1143 0.930 . S
C1141 C1138 1.348 . S
C1141 C1139 1.356 . S
H1142 C1136 0.930 . S
H1143 C1140 0.930 . S
C1144 C1146 1.348 . S
C1144 C1147 1.356 . S
C1144 O1174 1.325 . S
N1145 C1148 1.314 . S
N1145 C1149 1.279 . S
C1146 C1144 1.348 . S
C1146 C1148 1.353 . S
C1146 H1188 0.929 . S
C1147 C1144 1.356 . S
C1147 C1149 1.358 . S
C1147 H1189 0.930 . S
C1148 N1145 1.314 . S
C1148 C1146 1.353 . S
C1148 H1190 0.930 . S
C1149 N1145 1.279 . S
C1149 C1147 1.358 . S
C1149 H1191 0.930 . S
C1150 C1151 1.348 . S
C1150 C1152 1.356 . S
C1150 O1175 1.325 . S
C1151 C1150 1.348 . S
C1151 C1153 1.353 . S
C1151 H1192 0.929 . S
C1152 C1150 1.356 . S
C1152 C1154 1.358 . S
C1152 H1193 0.930 . S
C1153 C1151 1.353 . S
C1153 N1155 1.314 . S
C1153 H1194 0.930 . S
C1154 C1152 1.358 . S
C1154 N1155 1.279 . S
C1154 H1195 0.930 . S
N1155 C1153 1.314 . S
N1155 C1154 1.279 . S
C1156 C1158 1.353 . S
C1156 N1159 1.314 . S
C1156 H1162 0.930 . S
C1157 N1159 1.279 . S
C1157 C1160 1.358 . S
C1157 H1163 0.930 . S
C1158 C1156 1.353 . S
C1158 C1161 1.348 . S
C1158 H1196 0.929 . S
N1159 Li1114 1.990 . S
N1159 C1156 1.314 . S
N1159 C1157 1.279 . S
C1160 C1157 1.358 . S
C1160 C1161 1.356 . S
C1160 H1197 0.930 . S
C1161 C1158 1.348 . S
C1161 C1160 1.356 . S
H1162 C1156 0.930 . S
H1163 C1157 0.930 . S
C1164 N1165 1.314 . S
C1164 C1166 1.353 . S
C1164 H1170 0.930 . S
N1165 Li1115 1.990 . S
N1165 C1164 1.314 . S
N1165 C1168 1.279 . S
C1166 C1164 1.353 . S
C1166 C1169 1.348 . S
C1166 H1198 0.929 . S
C1167 C1168 1.358 . S
C1167 C1169 1.356 . S
C1167 H1199 0.930 . S
C1168 N1165 1.279 . S
C1168 C1167 1.358 . S
C1168 H1171 0.930 . S
C1169 C1166 1.348 . S
C1169 C1167 1.356 . S
H1170 C1164 0.930 . S
H1171 C1168 0.930 . S
O1172 Li1112 1.956 . S
O1172 Li1113 1.970 . S
O1172 Li1114 1.961 . S
O1172 C1116 1.325 . S
O1173 Li1112 1.970 . S
O1173 Li1113 1.956 . S
O1173 Li1115 1.961 . S
O1173 C1122 1.325 . S
O1174 Li1112 1.961 . S
O1174 Li1114 1.956 . S
O1174 Li1115 1.970 . S
O1174 C1144 1.325 . S
O1175 Li1113 1.961 . S
O1175 Li1114 1.970 . S
O1175 Li1115 1.956 . S
O1175 C1150 1.325 . S
H1176 C1118 0.929 . S
H1177 C1119 0.930 . S
H1178 C1120 0.930 . S
H1179 C1121 0.930 . S
H1180 C1123 0.930 . S
H1181 C1125 0.929 . S
H1182 C1126 0.930 . S
H1183 C1127 0.930 . S
H1184 C1130 0.930 . S
H1185 C1133 0.929 . S
H1186 C1138 0.929 . S
H1187 C1139 0.930 . S
H1188 C1146 0.929 . S
H1189 C1147 0.930 . S
H1190 C1148 0.930 . S
H1191 C1149 0.930 . S
H1192 C1151 0.929 . S
H1193 C1152 0.930 . S
H1194 C1153 0.930 . S
H1195 C1154 0.930 . S
H1196 C1158 0.929 . S
H1197 C1160 0.930 . S
H1198 C1166 0.929 . S
H1199 C1167 0.930 . S
H1200 C1212 0.930 . S
H1201 C1214 0.930 . S
H1202 C1215 0.930 . S
H1203 C1219 0.959 . S
H1204 C1219 0.959 . S
H1205 C1219 0.961 . S
H1206 C1220 0.960 . S
H1207 C1220 0.961 . S
H1208 C1220 0.959 . S
H1209 C1223 0.929 . S
H1210 C1224 0.931 . S
H1211 C1226 0.930 . S
C1212 H1200 0.930 . S
C1212 C1213 1.399 . S
C1212 C1217 1.399 . S
C1213 C1212 1.399 . S
C1213 C1214 1.376 . S
C1214 H1201 0.930 . S
C1214 C1213 1.376 . S
C1214 C1215 1.388 . S
C1215 H1202 0.930 . S
C1215 C1214 1.388 . S
C1215 C1216 1.390 . S
C1216 C1215 1.390 . S
C1216 C1217 1.394 . S
C1216 C1222 1.465 . S
C1217 C1212 1.399 . S
C1217 C1216 1.394 . S
C1217 C1218 1.516 . S
C1218 C1217 1.516 . S
C1218 C1219 1.502 . S
C1218 C1220 1.561 . S
C1218 C1221 1.526 . S
C1219 H1203 0.959 . S
C1219 H1204 0.959 . S
C1219 H1205 0.961 . S
C1219 C1218 1.502 . S
C1220 H1206 0.960 . S
C1220 H1207 0.961 . S
C1220 H1208 0.959 . S
C1220 C1218 1.561 . S
C1221 C1218 1.526 . S
C1221 C1222 1.396 . S
C1221 C1226 1.390 . S
C1222 C1216 1.465 . S
C1222 C1221 1.396 . S
C1222 C1223 1.399 . S
C1223 H1209 0.929 . S
C1223 C1222 1.399 . S
C1223 C1224 1.385 . S
C1224 H1210 0.931 . S
C1224 C1223 1.385 . S
C1224 C1225 1.389 . S
C1225 C1224 1.389 . S
C1225 C1226 1.387 . S
C1226 H1211 0.930 . S
C1226 C1221 1.390 . S
C1226 C1225 1.387 . S
H1227 C1239 0.930 . S
H1228 C1241 0.930 . S
H1229 C1242 0.930 . S
H1230 C1246 0.959 . S
H1231 C1246 0.959 . S
H1232 C1246 0.961 . S
H1233 C1247 0.960 . S
H1234 C1247 0.961 . S
H1235 C1247 0.959 . S
H1236 C1250 0.929 . S
H1237 C1251 0.931 . S
H1238 C1253 0.930 . S
C1239 H1227 0.930 . S
C1239 C1240 1.399 1_455 S
C1239 C1244 1.399 . S
C1240 C1239 1.399 1_655 S
C1240 C1241 1.376 . S
C1241 H1228 0.930 . S
C1241 C1240 1.376 . S
C1241 C1242 1.388 1_655 S
C1242 H1229 0.930 . S
C1242 C1241 1.388 1_455 S
C1242 C1243 1.390 . S
C1243 C1242 1.390 . S
C1243 C1244 1.394 . S
C1243 C1249 1.465 . S
C1244 C1239 1.399 . S
C1244 C1243 1.394 . S
C1244 C1245 1.516 . S
C1245 C1244 1.516 . S
C1245 C1246 1.502 . S
C1245 C1247 1.561 . S
C1245 C1248 1.526 . S
C1246 H1230 0.959 . S
C1246 H1231 0.959 . S
C1246 H1232 0.961 . S
C1246 C1245 1.502 . S
C1247 H1233 0.960 . S
C1247 H1234 0.961 . S
C1247 H1235 0.959 . S
C1247 C1245 1.561 . S
C1248 C1245 1.526 . S
C1248 C1249 1.396 . S
C1248 C1253 1.390 . S
C1249 C1243 1.465 . S
C1249 C1248 1.396 . S
C1249 C1250 1.399 . S
C1250 H1236 0.929 . S
C1250 C1249 1.399 . S
C1250 C1251 1.385 . S
C1251 H1237 0.931 . S
C1251 C1250 1.385 . S
C1251 C1252 1.389 . S
C1252 C1251 1.389 . S
C1252 C1253 1.387 . S
C1253 H1238 0.930 . S
C1253 C1248 1.390 . S
C1253 C1252 1.387 . S
H1254 C1266 0.930 . S
H1255 C1268 0.930 . S
H1256 C1269 0.930 . S
H1257 C1273 0.959 . S
H1258 C1273 0.959 . S
H1259 C1273 0.961 . S
H1260 C1274 0.960 . S
H1261 C1274 0.961 . S
H1262 C1274 0.959 . S
H1263 C1277 0.929 . S
H1264 C1278 0.931 . S
H1265 C1280 0.930 . S
C1266 H1254 0.930 . S
C1266 C1267 1.399 . S
C1266 C1271 1.399 . S
C1267 C1266 1.399 . S
C1267 C1268 1.376 . S
C1268 H1255 0.930 . S
C1268 C1267 1.376 . S
C1268 C1269 1.388 . S
C1269 H1256 0.930 . S
C1269 C1268 1.388 . S
C1269 C1270 1.390 . S
C1270 C1269 1.390 . S
C1270 C1271 1.394 . S
C1270 C1276 1.465 . S
C1271 C1266 1.399 . S
C1271 C1270 1.394 . S
C1271 C1272 1.516 . S
C1272 C1271 1.516 . S
C1272 C1273 1.502 . S
C1272 C1274 1.561 . S
C1272 C1275 1.526 . S
C1273 H1257 0.959 . S
C1273 H1258 0.959 . S
C1273 H1259 0.961 . S
C1273 C1272 1.502 . S
C1274 H1260 0.960 . S
C1274 H1261 0.961 . S
C1274 H1262 0.959 . S
C1274 C1272 1.561 . S
C1275 C1272 1.526 . S
C1275 C1276 1.396 . S
C1275 C1280 1.390 . S
C1276 C1270 1.465 . S
C1276 C1275 1.396 . S
C1276 C1277 1.399 . S
C1277 H1263 0.929 . S
C1277 C1276 1.399 . S
C1277 C1278 1.385 . S
C1278 H1264 0.931 . S
C1278 C1277 1.385 . S
C1278 C1279 1.389 . S
C1279 C1278 1.389 . S
C1279 C1280 1.387 . S
C1280 H1265 0.930 . S
C1280 C1275 1.390 . S
C1280 C1279 1.387 . S
H1281 C1293 0.930 . S
H1282 C1295 0.930 . S
H1283 C1296 0.930 . S
H1284 C1300 0.959 1_565 S
H1285 C1300 0.959 . S
H1286 C1300 0.961 . S
H1287 C1301 0.960 . S
H1288 C1301 0.961 . S
H1289 C1301 0.959 . S
H1290 C1304 0.929 . S
H1291 C1305 0.931 . S
H1292 C1307 0.930 1_545 S
C1293 H1281 0.930 . S
C1293 C1294 1.399 1_655 S
C1293 C1298 1.399 . S
C1294 C1293 1.399 1_455 S
C1294 C1295 1.376 . S
C1295 H1282 0.930 . S
C1295 C1294 1.376 . S
C1295 C1296 1.388 . S
C1296 H1283 0.930 . S
C1296 C1295 1.388 . S
C1296 C1297 1.390 1_455 S
C1297 C1296 1.390 1_655 S
C1297 C1298 1.394 . S
C1297 C1303 1.465 . S
C1298 C1293 1.399 . S
C1298 C1297 1.394 . S
C1298 C1299 1.516 1_565 S
C1299 C1298 1.516 1_545 S
C1299 C1300 1.502 . S
C1299 C1301 1.561 . S
C1299 C1302 1.526 1_545 S
C1300 H1284 0.959 1_545 S
C1300 H1285 0.959 . S
C1300 H1286 0.961 . S
C1300 C1299 1.502 . S
C1301 H1287 0.960 . S
C1301 H1288 0.961 . S
C1301 H1289 0.959 . S
C1301 C1299 1.561 . S
C1302 C1299 1.526 1_565 S
C1302 C1303 1.396 . S
C1302 C1307 1.390 . S
C1303 C1297 1.465 . S
C1303 C1302 1.396 . S
C1303 C1304 1.399 . S
C1304 H1290 0.929 . S
C1304 C1303 1.399 . S
C1304 C1305 1.385 . S
C1305 H1291 0.931 . S
C1305 C1304 1.385 . S
C1305 C1306 1.389 . S
C1306 C1305 1.389 . S
C1306 C1307 1.387 . S
C1307 H1292 0.930 1_565 S
C1307 C1302 1.390 . S
C1307 C1306 1.387 . S
H1308 C1320 0.930 . S
H1309 C1322 0.930 . S
H1310 C1323 0.930 . S
H1311 C1327 0.959 . S
H1312 C1327 0.959 . S
H1313 C1327 0.961 . S
H1314 C1328 0.960 . S
H1315 C1328 0.961 . S
H1316 C1328 0.959 . S
H1317 C1331 0.929 . S
H1318 C1332 0.931 . S
H1319 C1334 0.930 . S
C1320 H1308 0.930 . S
C1320 C1321 1.399 . S
C1320 C1325 1.399 . S
C1321 C1320 1.399 . S
C1321 C1322 1.376 . S
C1322 H1309 0.930 . S
C1322 C1321 1.376 . S
C1322 C1323 1.388 . S
C1323 H1310 0.930 . S
C1323 C1322 1.388 . S
C1323 C1324 1.390 . S
C1324 C1323 1.390 . S
C1324 C1325 1.394 . S
C1324 C1330 1.465 . S
C1325 C1320 1.399 . S
C1325 C1324 1.394 . S
C1325 C1326 1.516 . S
C1326 C1325 1.516 . S
C1326 C1327 1.502 . S
C1326 C1328 1.561 . S
C1326 C1329 1.526 . S
C1327 H1311 0.959 . S
C1327 H1312 0.959 . S
C1327 H1313 0.961 . S
C1327 C1326 1.502 . S
C1328 H1314 0.960 . S
C1328 H1315 0.961 . S
C1328 H1316 0.959 . S
C1328 C1326 1.561 . S
C1329 C1326 1.526 . S
C1329 C1330 1.396 . S
C1329 C1334 1.390 . S
C1330 C1324 1.465 . S
C1330 C1329 1.396 . S
C1330 C1331 1.399 . S
C1331 H1317 0.929 . S
C1331 C1330 1.399 . S
C1331 C1332 1.385 . S
C1332 H1318 0.931 . S
C1332 C1331 1.385 . S
C1332 C1333 1.389 . S
C1333 C1332 1.389 . S
C1333 C1334 1.387 . S
C1334 H1319 0.930 . S
C1334 C1329 1.390 . S
C1334 C1333 1.387 . S
H1335 C1347 0.930 . S
H1336 C1349 0.930 . S
H1337 C1350 0.930 . S
H1338 C1354 0.959 . S
H1339 C1354 0.959 . S
H1340 C1354 0.961 . S
H1341 C1355 0.960 . S
H1342 C1355 0.961 . S
H1343 C1355 0.959 . S
H1344 C1358 0.929 . S
H1345 C1359 0.931 . S
H1346 C1361 0.930 . S
C1347 H1335 0.930 . S
C1347 C1348 1.399 . S
C1347 C1352 1.399 . S
C1348 C1347 1.399 . S
C1348 C1349 1.376 . S
C1349 H1336 0.930 . S
C1349 C1348 1.376 . S
C1349 C1350 1.388 . S
C1350 H1337 0.930 . S
C1350 C1349 1.388 . S
C1350 C1351 1.390 . S
C1351 C1350 1.390 . S
C1351 C1352 1.394 . S
C1351 C1357 1.465 . S
C1352 C1347 1.399 . S
C1352 C1351 1.394 . S
C1352 C1353 1.516 . S
C1353 C1352 1.516 . S
C1353 C1354 1.502 . S
C1353 C1355 1.561 . S
C1353 C1356 1.526 . S
C1354 H1338 0.959 . S
C1354 H1339 0.959 . S
C1354 H1340 0.961 . S
C1354 C1353 1.502 . S
C1355 H1341 0.960 . S
C1355 H1342 0.961 . S
C1355 H1343 0.959 . S
C1355 C1353 1.561 . S
C1356 C1353 1.526 . S
C1356 C1357 1.396 . S
C1356 C1361 1.390 . S
C1357 C1351 1.465 . S
C1357 C1356 1.396 . S
C1357 C1358 1.399 . S
C1358 H1344 0.929 . S
C1358 C1357 1.399 . S
C1358 C1359 1.385 . S
C1359 H1345 0.931 . S
C1359 C1358 1.385 . S
C1359 C1360 1.389 . S
C1360 C1359 1.389 . S
C1360 C1361 1.387 . S
C1361 H1346 0.930 . S
C1361 C1356 1.390 . S
C1361 C1360 1.387 . S
H1362 C1374 0.930 . S
H1363 C1376 0.930 . S
H1364 C1377 0.930 . S
H1365 C1381 0.959 . S
H1366 C1381 0.959 . S
H1367 C1381 0.961 . S
H1368 C1382 0.960 . S
H1369 C1382 0.961 . S
H1370 C1382 0.959 . S
H1371 C1385 0.929 . S
H1372 C1386 0.931 . S
H1373 C1388 0.930 . S
C1374 H1362 0.930 . S
C1374 C1375 1.399 . S
C1374 C1379 1.399 . S
C1375 C1374 1.399 . S
C1375 C1376 1.376 . S
C1376 H1363 0.930 . S
C1376 C1375 1.376 . S
C1376 C1377 1.388 . S
C1377 H1364 0.930 . S
C1377 C1376 1.388 . S
C1377 C1378 1.390 . S
C1378 C1377 1.390 . S
C1378 C1379 1.394 . S
C1378 C1384 1.465 . S
C1379 C1374 1.399 . S
C1379 C1378 1.394 . S
C1379 C1380 1.516 . S
C1380 C1379 1.516 . S
C1380 C1381 1.502 . S
C1380 C1382 1.561 . S
C1380 C1383 1.526 . S
C1381 H1365 0.959 . S
C1381 H1366 0.959 . S
C1381 H1367 0.961 . S
C1381 C1380 1.502 . S
C1382 H1368 0.960 . S
C1382 H1369 0.961 . S
C1382 H1370 0.959 . S
C1382 C1380 1.561 . S
C1383 C1380 1.526 . S
C1383 C1384 1.396 . S
C1383 C1388 1.390 . S
C1384 C1378 1.465 . S
C1384 C1383 1.396 . S
C1384 C1385 1.399 . S
C1385 H1371 0.929 . S
C1385 C1384 1.399 . S
C1385 C1386 1.385 . S
C1386 H1372 0.931 . S
C1386 C1385 1.385 . S
C1386 C1387 1.389 . S
C1387 C1386 1.389 . S
C1387 C1388 1.387 . S
C1388 H1373 0.930 . S
C1388 C1383 1.390 . S
C1388 C1387 1.387 . S
H1389 C1401 0.930 1_545 S
H1390 C1403 0.930 . S
H1391 C1404 0.930 . S
H1392 C1408 0.959 . S
H1393 C1408 0.959 . S
H1394 C1408 0.961 . S
H1395 C1409 0.960 . S
H1396 C1409 0.961 . S
H1397 C1409 0.959 . S
H1398 C1412 0.929 . S
H1399 C1413 0.931 . S
H1400 C1415 0.930 1_545 S
C1401 H1389 0.930 1_565 S
C1401 C1402 1.399 . S
C1401 C1406 1.399 . S
C1402 C1401 1.399 . S
C1402 C1403 1.376 . S
C1403 H1390 0.930 . S
C1403 C1402 1.376 . S
C1403 C1404 1.388 . S
C1404 H1391 0.930 . S
C1404 C1403 1.388 . S
C1404 C1405 1.390 . S
C1405 C1404 1.390 . S
C1405 C1406 1.394 . S
C1405 C1411 1.465 . S
C1406 C1401 1.399 . S
C1406 C1405 1.394 . S
C1406 C1407 1.516 1_565 S
C1407 C1406 1.516 1_545 S
C1407 C1408 1.502 . S
C1407 C1409 1.561 . S
C1407 C1410 1.526 1_545 S
C1408 H1392 0.959 . S
C1408 H1393 0.959 . S
C1408 H1394 0.961 . S
C1408 C1407 1.502 . S
C1409 H1395 0.960 . S
C1409 H1396 0.961 . S
C1409 H1397 0.959 . S
C1409 C1407 1.561 . S
C1410 C1407 1.526 1_565 S
C1410 C1411 1.396 . S
C1410 C1415 1.390 . S
C1411 C1405 1.465 . S
C1411 C1410 1.396 . S
C1411 C1412 1.399 . S
C1412 H1398 0.929 . S
C1412 C1411 1.399 . S
C1412 C1413 1.385 . S
C1413 H1399 0.931 . S
C1413 C1412 1.385 . S
C1413 C1414 1.389 . S
C1414 C1413 1.389 . S
C1414 C1415 1.387 . S
C1415 H1400 0.930 1_565 S
C1415 C1410 1.390 . S
C1415 C1414 1.387 . S
H1416 C1428 0.930 . S
H1417 C1430 0.930 . S
H1418 C1431 0.930 . S
H1419 C1435 0.959 . S
H1420 C1435 0.959 . S
H1421 C1435 0.961 . S
H1422 C1436 0.960 . S
H1423 C1436 0.961 . S
H1424 C1436 0.959 . S
H1425 C1439 0.929 . S
H1426 C1440 0.931 . S
H1427 C1442 0.930 . S
C1428 H1416 0.930 . S
C1428 C1429 1.399 . S
C1428 C1433 1.399 . S
C1429 C1428 1.399 . S
C1429 C1430 1.376 . S
C1430 H1417 0.930 . S
C1430 C1429 1.376 . S
C1430 C1431 1.388 . S
C1431 H1418 0.930 . S
C1431 C1430 1.388 . S
C1431 C1432 1.390 . S
C1432 C1431 1.390 . S
C1432 C1433 1.394 . S
C1432 C1438 1.465 . S
C1433 C1428 1.399 . S
C1433 C1432 1.394 . S
C1433 C1434 1.516 . S
C1434 C1433 1.516 . S
C1434 C1435 1.502 . S
C1434 C1436 1.561 . S
C1434 C1437 1.526 . S
C1435 H1419 0.959 . S
C1435 H1420 0.959 . S
C1435 H1421 0.961 . S
C1435 C1434 1.502 . S
C1436 H1422 0.960 . S
C1436 H1423 0.961 . S
C1436 H1424 0.959 . S
C1436 C1434 1.561 . S
C1437 C1434 1.526 . S
C1437 C1438 1.396 . S
C1437 C1442 1.390 . S
C1438 C1432 1.465 . S
C1438 C1437 1.396 . S
C1438 C1439 1.399 . S
C1439 H1425 0.929 . S
C1439 C1438 1.399 . S
C1439 C1440 1.385 . S
C1440 H1426 0.931 . S
C1440 C1439 1.385 . S
C1440 C1441 1.389 . S
C1441 C1440 1.389 . S
C1441 C1442 1.387 . S
C1442 H1427 0.930 . S
C1442 C1437 1.390 . S
C1442 C1441 1.387 . S
H1443 C1455 0.930 . S
H1444 C1457 0.930 . S
H1445 C1458 0.930 . S
H1446 C1462 0.959 . S
H1447 C1462 0.959 . S
H1448 C1462 0.961 . S
H1449 C1463 0.960 . S
H1450 C1463 0.961 . S
H1451 C1463 0.959 . S
H1452 C1466 0.929 . S
H1453 C1467 0.931 . S
H1454 C1469 0.930 . S
C1455 H1443 0.930 . S
C1455 C1456 1.399 . S
C1455 C1460 1.399 . S
C1456 C1455 1.399 . S
C1456 C1457 1.376 . S
C1457 H1444 0.930 . S
C1457 C1456 1.376 . S
C1457 C1458 1.388 . S
C1458 H1445 0.930 . S
C1458 C1457 1.388 . S
C1458 C1459 1.390 . S
C1459 C1458 1.390 . S
C1459 C1460 1.394 . S
C1459 C1465 1.465 . S
C1460 C1455 1.399 . S
C1460 C1459 1.394 . S
C1460 C1461 1.516 . S
C1461 C1460 1.516 . S
C1461 C1462 1.502 . S
C1461 C1463 1.561 . S
C1461 C1464 1.526 . S
C1462 H1446 0.959 . S
C1462 H1447 0.959 . S
C1462 H1448 0.961 . S
C1462 C1461 1.502 . S
C1463 H1449 0.960 . S
C1463 H1450 0.961 . S
C1463 H1451 0.959 . S
C1463 C1461 1.561 . S
C1464 C1461 1.526 . S
C1464 C1465 1.396 . S
C1464 C1469 1.390 . S
C1465 C1459 1.465 . S
C1465 C1464 1.396 . S
C1465 C1466 1.399 . S
C1466 H1452 0.929 . S
C1466 C1465 1.399 . S
C1466 C1467 1.385 . S
C1467 H1453 0.931 . S
C1467 C1466 1.385 . S
C1467 C1468 1.389 . S
C1468 C1467 1.389 . S
C1468 C1469 1.387 . S
C1469 H1454 0.930 . S
C1469 C1464 1.390 . S
C1469 C1468 1.387 . S
H1470 C1482 0.930 . S
H1471 C1484 0.930 . S
H1472 C1485 0.930 . S
H1473 C1489 0.959 . S
H1474 C1489 0.959 . S
H1475 C1489 0.961 . S
H1476 C1490 0.960 . S
H1477 C1490 0.961 . S
H1478 C1490 0.959 . S
H1479 C1493 0.929 . S
H1480 C1494 0.931 . S
H1481 C1496 0.930 . S
C1482 H1470 0.930 . S
C1482 C1483 1.399 . S
C1482 C1487 1.399 . S
C1483 C1482 1.399 . S
C1483 C1484 1.376 . S
C1484 H1471 0.930 . S
C1484 C1483 1.376 . S
C1484 C1485 1.388 . S
C1485 H1472 0.930 . S
C1485 C1484 1.388 . S
C1485 C1486 1.390 . S
C1486 C1485 1.390 . S
C1486 C1487 1.394 . S
C1486 C1492 1.465 . S
C1487 C1482 1.399 . S
C1487 C1486 1.394 . S
C1487 C1488 1.516 . S
C1488 C1487 1.516 . S
C1488 C1489 1.502 . S
C1488 C1490 1.561 . S
C1488 C1491 1.526 . S
C1489 H1473 0.959 . S
C1489 H1474 0.959 . S
C1489 H1475 0.961 . S
C1489 C1488 1.502 . S
C1490 H1476 0.960 . S
C1490 H1477 0.961 . S
C1490 H1478 0.959 . S
C1490 C1488 1.561 . S
C1491 C1488 1.526 . S
C1491 C1492 1.396 . S
C1491 C1496 1.390 . S
C1492 C1486 1.465 . S
C1492 C1491 1.396 . S
C1492 C1493 1.399 . S
C1493 H1479 0.929 . S
C1493 C1492 1.399 . S
C1493 C1494 1.385 . S
C1494 H1480 0.931 . S
C1494 C1493 1.385 . S
C1494 C1495 1.389 . S
C1495 C1494 1.389 . S
C1495 C1496 1.387 . S
C1496 H1481 0.930 . S
C1496 C1491 1.390 . S
C1496 C1495 1.387 . S
H1497 C1509 0.930 . S
H1498 C1511 0.930 . S
H1499 C1512 0.930 . S
H1500 C1516 0.959 . S
H1501 C1516 0.959 . S
H1502 C1516 0.961 . S
H1503 C1517 0.960 . S
H1504 C1517 0.961 . S
H1505 C1517 0.959 . S
H1506 C1520 0.929 . S
H1507 C1521 0.931 . S
H1508 C1523 0.930 . S
C1509 H1497 0.930 . S
C1509 C1510 1.399 . S
C1509 C1514 1.399 . S
C1510 C1509 1.399 . S
C1510 C1511 1.376 . S
C1511 H1498 0.930 . S
C1511 C1510 1.376 . S
C1511 C1512 1.388 . S
C1512 H1499 0.930 . S
C1512 C1511 1.388 . S
C1512 C1513 1.390 . S
C1513 C1512 1.390 . S
C1513 C1514 1.394 . S
C1513 C1519 1.465 . S
C1514 C1509 1.399 . S
C1514 C1513 1.394 . S
C1514 C1515 1.516 . S
C1515 C1514 1.516 . S
C1515 C1516 1.502 . S
C1515 C1517 1.561 . S
C1515 C1518 1.526 . S
C1516 H1500 0.959 . S
C1516 H1501 0.959 . S
C1516 H1502 0.961 . S
C1516 C1515 1.502 . S
C1517 H1503 0.960 . S
C1517 H1504 0.961 . S
C1517 H1505 0.959 . S
C1517 C1515 1.561 . S
C1518 C1515 1.526 . S
C1518 C1519 1.396 . S
C1518 C1523 1.390 . S
C1519 C1513 1.465 . S
C1519 C1518 1.396 . S
C1519 C1520 1.399 . S
C1520 H1506 0.929 . S
C1520 C1519 1.399 . S
C1520 C1521 1.385 . S
C1521 H1507 0.931 . S
C1521 C1520 1.385 . S
C1521 C1522 1.389 . S
C1522 C1521 1.389 . S
C1522 C1523 1.387 . S
C1523 H1508 0.930 . S
C1523 C1518 1.390 . S
C1523 C1522 1.387 . S
H1524 C1536 0.930 . S
H1525 C1538 0.930 . S
H1526 C1539 0.930 . S
H1527 C1543 0.959 . S
H1528 C1543 0.959 . S
H1529 C1543 0.961 . S
H1530 C1544 0.960 . S
H1531 C1544 0.961 . S
H1532 C1544 0.959 . S
H1533 C1547 0.929 . S
H1534 C1548 0.931 . S
H1535 C1550 0.930 . S
C1536 H1524 0.930 . S
C1536 C1537 1.399 . S
C1536 C1541 1.399 . S
C1537 C1536 1.399 . S
C1537 C1538 1.376 . S
C1538 H1525 0.930 . S
C1538 C1537 1.376 . S
C1538 C1539 1.388 . S
C1539 H1526 0.930 . S
C1539 C1538 1.388 . S
C1539 C1540 1.390 . S
C1540 C1539 1.390 . S
C1540 C1541 1.394 . S
C1540 C1546 1.465 . S
C1541 C1536 1.399 . S
C1541 C1540 1.394 . S
C1541 C1542 1.516 . S
C1542 C1541 1.516 . S
C1542 C1543 1.502 . S
C1542 C1544 1.561 . S
C1542 C1545 1.526 . S
C1543 H1527 0.959 . S
C1543 H1528 0.959 . S
C1543 H1529 0.961 . S
C1543 C1542 1.502 . S
C1544 H1530 0.960 . S
C1544 H1531 0.961 . S
C1544 H1532 0.959 . S
C1544 C1542 1.561 . S
C1545 C1542 1.526 . S
C1545 C1546 1.396 . S
C1545 C1550 1.390 . S
C1546 C1540 1.465 . S
C1546 C1545 1.396 . S
C1546 C1547 1.399 . S
C1547 H1533 0.929 . S
C1547 C1546 1.399 . S
C1547 C1548 1.385 . S
C1548 H1534 0.931 . S
C1548 C1547 1.385 . S
C1548 C1549 1.389 . S
C1549 C1548 1.389 . S
C1549 C1550 1.387 . S
C1550 H1535 0.930 . S
C1550 C1545 1.390 . S
C1550 C1549 1.387 . S
H1551 C1563 0.930 . S
H1552 C1565 0.930 . S
H1553 C1566 0.930 . S
H1554 C1570 0.959 . S
H1555 C1570 0.959 . S
H1556 C1570 0.961 . S
H1557 C1571 0.960 . S
H1558 C1571 0.961 . S
H1559 C1571 0.959 1_655 S
H1560 C1574 0.942 . S
H1561 C1575 0.931 . S
H1562 C1577 0.930 . S
C1563 H1551 0.930 . S
C1563 C1564 1.399 . S
C1563 C1568 1.399 . S
C1564 C1563 1.399 . S
C1564 C1565 1.376 . S
C1565 H1552 0.930 . S
C1565 C1564 1.376 . S
C1565 C1566 1.388 . S
C1566 H1553 0.930 . S
C1566 C1565 1.388 . S
C1566 C1567 1.390 . S
C1567 C1566 1.390 . S
C1567 C1568 1.394 . S
C1567 C1573 1.465 . S
C1568 C1563 1.399 . S
C1568 C1567 1.394 . S
C1568 C1569 1.516 . S
C1569 C1568 1.516 . S
C1569 C1570 1.502 . S
C1569 C1571 1.561 . S
C1569 C1572 1.526 . S
C1570 H1554 0.959 . S
C1570 H1555 0.959 . S
C1570 H1556 0.961 . S
C1570 C1569 1.502 . S
C1571 H1557 0.960 . S
C1571 H1558 0.961 . S
C1571 H1559 0.959 1_455 S
C1571 C1569 1.561 . S
C1572 C1569 1.526 . S
C1572 C1573 1.396 . S
C1572 C1577 1.390 . S
C1573 C1567 1.465 . S
C1573 C1572 1.396 . S
C1573 C1574 1.399 . S
C1574 H1560 0.942 . S
C1574 C1573 1.399 . S
C1574 C1575 1.385 . S
C1575 H1561 0.931 . S
C1575 C1574 1.385 . S
C1575 C1576 1.389 . S
C1576 C1575 1.389 . S
C1576 C1577 1.387 . S
C1577 H1562 0.930 . S
C1577 C1572 1.390 . S
C1577 C1576 1.387 . S
H1578 C1590 0.930 . S
H1579 C1592 0.930 . S
H1580 C1593 0.930 . S
H1581 C1597 0.959 . S
H1582 C1597 0.959 . S
H1583 C1597 0.961 . S
H1584 C1598 0.960 . S
H1585 C1598 0.961 . S
H1586 C1598 0.959 . S
H1587 C1601 0.929 . S
H1588 C1602 0.931 . S
H1589 C1604 0.930 . S
C1590 H1578 0.930 . S
C1590 C1591 1.399 . S
C1590 C1595 1.399 . S
C1591 C1590 1.399 . S
C1591 C1592 1.376 . S
C1592 H1579 0.930 . S
C1592 C1591 1.376 . S
C1592 C1593 1.388 . S
C1593 H1580 0.930 . S
C1593 C1592 1.388 . S
C1593 C1594 1.390 . S
C1594 C1593 1.390 . S
C1594 C1595 1.394 . S
C1594 C1600 1.465 . S
C1595 C1590 1.399 . S
C1595 C1594 1.394 . S
C1595 C1596 1.516 . S
C1596 C1595 1.516 . S
C1596 C1597 1.502 . S
C1596 C1598 1.561 . S
C1596 C1599 1.526 . S
C1597 H1581 0.959 . S
C1597 H1582 0.959 . S
C1597 H1583 0.961 . S
C1597 C1596 1.502 . S
C1598 H1584 0.960 . S
C1598 H1585 0.961 . S
C1598 H1586 0.959 . S
C1598 C1596 1.561 . S
C1599 C1596 1.526 . S
C1599 C1600 1.396 . S
C1599 C1604 1.390 . S
C1600 C1594 1.465 . S
C1600 C1599 1.396 . S
C1600 C1601 1.399 . S
C1601 H1587 0.929 . S
C1601 C1600 1.399 . S
C1601 C1602 1.385 . S
C1602 H1588 0.931 . S
C1602 C1601 1.385 . S
C1602 C1603 1.389 . S
C1603 C1602 1.389 . S
C1603 C1604 1.387 . S
C1604 H1589 0.930 . S
C1604 C1599 1.390 . S
C1604 C1603 1.387 . S
H1605 C1617 0.930 . S
H1606 C1619 0.930 . S
H1607 C1620 0.930 . S
H1608 C1624 0.959 . S
H1609 C1624 0.959 . S
H1610 C1624 0.961 . S
H1611 C1625 0.960 . S
H1612 C1625 0.961 . S
H1613 C1625 0.959 . S
H1614 C1628 0.929 . S
H1615 C1629 0.931 . S
H1616 C1631 0.930 . S
C1617 H1605 0.930 . S
C1617 C1618 1.399 . S
C1617 C1622 1.399 . S
C1618 C1617 1.399 . S
C1618 C1619 1.376 . S
C1619 H1606 0.930 . S
C1619 C1618 1.376 . S
C1619 C1620 1.388 . S
C1620 H1607 0.930 . S
C1620 C1619 1.388 . S
C1620 C1621 1.390 . S
C1621 C1620 1.390 . S
C1621 C1622 1.394 . S
C1621 C1627 1.465 . S
C1622 C1617 1.399 . S
C1622 C1621 1.394 . S
C1622 C1623 1.516 . S
C1623 C1622 1.516 . S
C1623 C1624 1.502 . S
C1623 C1625 1.561 . S
C1623 C1626 1.526 . S
C1624 H1608 0.959 . S
C1624 H1609 0.959 . S
C1624 H1610 0.961 . S
C1624 C1623 1.502 . S
C1625 H1611 0.960 . S
C1625 H1612 0.961 . S
C1625 H1613 0.959 . S
C1625 C1623 1.561 . S
C1626 C1623 1.526 . S
C1626 C1627 1.396 . S
C1626 C1631 1.390 . S
C1627 C1621 1.465 . S
C1627 C1626 1.396 . S
C1627 C1628 1.399 . S
C1628 H1614 0.929 . S
C1628 C1627 1.399 . S
C1628 C1629 1.385 . S
C1629 H1615 0.931 . S
C1629 C1628 1.385 . S
C1629 C1630 1.389 . S
C1630 C1629 1.389 . S
C1630 C1631 1.387 . S
C1631 H1616 0.930 . S
C1631 C1626 1.390 . S
C1631 C1630 1.387 . S
H1632 C1644 0.930 . S
H1633 C1646 0.930 . S
H1634 C1647 0.930 . S
H1635 C1651 0.959 . S
H1636 C1651 0.959 . S
H1637 C1651 0.961 . S
H1638 C1652 0.960 . S
H1639 C1652 0.961 . S
H1640 C1652 0.959 . S
H1641 C1655 0.929 . S
H1642 C1656 0.931 . S
H1643 C1658 0.930 . S
C1644 H1632 0.930 . S
C1644 C1645 1.399 . S
C1644 C1649 1.399 . S
C1645 C1644 1.399 . S
C1645 C1646 1.376 . S
C1646 H1633 0.930 . S
C1646 C1645 1.376 . S
C1646 C1647 1.388 . S
C1647 H1634 0.930 . S
C1647 C1646 1.388 . S
C1647 C1648 1.390 . S
C1648 C1647 1.390 . S
C1648 C1649 1.394 . S
C1648 C1654 1.465 . S
C1649 C1644 1.399 . S
C1649 C1648 1.394 . S
C1649 C1650 1.516 . S
C1650 C1649 1.516 . S
C1650 C1651 1.502 . S
C1650 C1652 1.561 . S
C1650 C1653 1.526 . S
C1651 H1635 0.959 . S
C1651 H1636 0.959 . S
C1651 H1637 0.961 . S
C1651 C1650 1.502 . S
C1652 H1638 0.960 . S
C1652 H1639 0.961 . S
C1652 H1640 0.959 . S
C1652 C1650 1.561 . S
C1653 C1650 1.526 . S
C1653 C1654 1.396 . S
C1653 C1658 1.390 . S
C1654 C1648 1.465 . S
C1654 C1653 1.396 . S
C1654 C1655 1.399 . S
C1655 H1641 0.929 . S
C1655 C1654 1.399 . S
C1655 C1656 1.385 . S
C1656 H1642 0.931 . S
C1656 C1655 1.385 . S
C1656 C1657 1.389 . S
C1657 C1656 1.389 . S
C1657 C1658 1.387 . S
C1658 H1643 0.930 . S
C1658 C1653 1.390 . S
C1658 C1657 1.387 . S
H1659 C1671 0.930 . S
H1660 C1673 0.930 . S
H1661 C1674 0.930 . S
H1662 C1678 0.959 . S
H1663 C1678 0.959 . S
H1664 C1678 0.961 . S
H1665 C1679 0.960 . S
H1666 C1679 0.961 . S
H1667 C1679 0.959 . S
H1668 C1682 0.929 . S
H1669 C1683 0.931 . S
H1670 C1685 0.930 . S
C1671 H1659 0.930 . S
C1671 C1672 1.399 . S
C1671 C1676 1.399 . S
C1672 C1671 1.399 . S
C1672 C1673 1.376 . S
C1673 H1660 0.930 . S
C1673 C1672 1.376 . S
C1673 C1674 1.388 . S
C1674 H1661 0.930 . S
C1674 C1673 1.388 . S
C1674 C1675 1.390 . S
C1675 C1674 1.390 . S
C1675 C1676 1.394 . S
C1675 C1681 1.465 . S
C1676 C1671 1.399 . S
C1676 C1675 1.394 . S
C1676 C1677 1.516 . S
C1677 C1676 1.516 . S
C1677 C1678 1.502 . S
C1677 C1679 1.561 . S
C1677 C1680 1.526 . S
C1678 H1662 0.959 . S
C1678 H1663 0.959 . S
C1678 H1664 0.961 . S
C1678 C1677 1.502 . S
C1679 H1665 0.960 . S
C1679 H1666 0.961 . S
C1679 H1667 0.959 . S
C1679 C1677 1.561 . S
C1680 C1677 1.526 . S
C1680 C1681 1.396 . S
C1680 C1685 1.390 . S
C1681 C1675 1.465 . S
C1681 C1680 1.396 . S
C1681 C1682 1.399 . S
C1682 H1668 0.929 . S
C1682 C1681 1.399 . S
C1682 C1683 1.385 . S
C1683 H1669 0.931 . S
C1683 C1682 1.385 . S
C1683 C1684 1.389 . S
C1684 C1683 1.389 . S
C1684 C1685 1.387 . S
C1685 H1670 0.930 . S
C1685 C1680 1.390 . S
C1685 C1684 1.387 . S
H1686 C1698 0.930 . S
H1687 C1700 0.930 . S
H1688 C1701 0.930 1_554 S
H1689 C1705 0.959 . S
H1690 C1705 0.959 . S
H1691 C1705 0.961 . S
H1692 C1706 0.960 . S
H1693 C1706 0.961 . S
H1694 C1706 0.959 . S
H1695 C1709 0.941 . S
H1696 C1710 0.937 . S
H1697 C1712 0.930 . S
C1698 H1686 0.930 . S
C1698 C1699 1.399 . S
C1698 C1703 1.399 1_545 S
C1699 C1698 1.399 . S
C1699 C1700 1.376 1_545 S
C1700 H1687 0.930 . S
C1700 C1699 1.376 1_565 S
C1700 C1701 1.388 . S
C1701 H1688 0.930 1_556 S
C1701 C1700 1.388 . S
C1701 C1702 1.390 . S
C1702 C1701 1.390 . S
C1702 C1703 1.394 . S
C1702 C1708 1.465 . S
C1703 C1698 1.399 1_565 S
C1703 C1702 1.394 . S
C1703 C1704 1.516 . S
C1704 C1703 1.516 . S
C1704 C1705 1.502 1_565 S
C1704 C1706 1.561 . S
C1704 C1707 1.526 . S
C1705 H1689 0.959 . S
C1705 H1690 0.959 . S
C1705 H1691 0.961 . S
C1705 C1704 1.502 1_545 S
C1706 H1692 0.960 . S
C1706 H1693 0.961 . S
C1706 H1694 0.959 . S
C1706 C1704 1.561 . S
C1707 C1704 1.526 . S
C1707 C1708 1.396 . S
C1707 C1712 1.390 . S
C1708 C1702 1.465 . S
C1708 C1707 1.396 . S
C1708 C1709 1.387 1_556 S
C1709 H1695 0.941 . S
C1709 C1708 1.387 1_554 S
C1709 C1710 1.385 . S
C1710 H1696 0.937 . S
C1710 C1709 1.385 . S
C1710 C1711 1.383 1_554 S
C1711 C1710 1.383 1_556 S
C1711 C1712 1.387 . S
C1712 H1697 0.930 . S
C1712 C1707 1.390 . S
C1712 C1711 1.387 . S
H1713 C1725 0.930 . S
H1714 C1727 0.930 . S
H1715 C1728 0.930 . S
H1716 C1732 0.959 . S
H1717 C1732 0.959 . S
H1718 C1732 0.961 . S
H1719 C1733 0.960 . S
H1720 C1733 0.961 . S
H1721 C1733 0.959 . S
H1722 C1736 0.929 . S
H1723 C1737 0.931 . S
H1724 C1739 0.930 . S
C1725 H1713 0.930 . S
C1725 C1726 1.399 . S
C1725 C1730 1.399 . S
C1726 C1725 1.399 . S
C1726 C1727 1.376 . S
C1727 H1714 0.930 . S
C1727 C1726 1.376 . S
C1727 C1728 1.388 . S
C1728 H1715 0.930 . S
C1728 C1727 1.388 . S
C1728 C1729 1.390 . S
C1729 C1728 1.390 . S
C1729 C1730 1.394 . S
C1729 C1735 1.465 . S
C1730 C1725 1.399 . S
C1730 C1729 1.394 . S
C1730 C1731 1.516 . S
C1731 C1730 1.516 . S
C1731 C1732 1.502 . S
C1731 C1733 1.561 . S
C1731 C1734 1.526 . S
C1732 H1716 0.959 . S
C1732 H1717 0.959 . S
C1732 H1718 0.961 . S
C1732 C1731 1.502 . S
C1733 H1719 0.960 . S
C1733 H1720 0.961 . S
C1733 H1721 0.959 . S
C1733 C1731 1.561 . S
C1734 C1731 1.526 . S
C1734 C1735 1.396 . S
C1734 C1739 1.390 . S
C1735 C1729 1.465 . S
C1735 C1734 1.396 . S
C1735 C1736 1.399 . S
C1736 H1722 0.929 . S
C1736 C1735 1.399 . S
C1736 C1737 1.385 . S
C1737 H1723 0.931 . S
C1737 C1736 1.385 . S
C1737 C1738 1.389 . S
C1738 C1737 1.389 . S
C1738 C1739 1.387 . S
C1739 H1724 0.930 . S
C1739 C1734 1.390 . S
C1739 C1738 1.387 . S
H1740 C1752 0.932 1_565 S
H1741 C1754 0.930 . S
H1742 C1755 0.930 . S
H1743 C1759 0.959 1_565 S
H1744 C1759 0.959 . S
H1745 C1759 0.961 1_565 S
H1746 C1760 0.960 . S
H1747 C1760 0.961 . S
H1748 C1760 0.959 . S
H1749 C1763 0.929 . S
H1750 C1764 0.931 . S
H1751 C1766 0.930 . S
C1752 H1740 0.932 1_545 S
C1752 C1753 1.400 1_545 S
C1752 C1757 1.396 . S
C1753 C1752 1.400 1_565 S
C1753 C1754 1.376 1_565 S
C1754 H1741 0.930 . S
C1754 C1753 1.376 1_545 S
C1754 C1755 1.388 . S
C1755 H1742 0.930 . S
C1755 C1754 1.388 . S
C1755 C1756 1.390 . S
C1756 C1755 1.390 . S
C1756 C1757 1.394 . S
C1756 C1762 1.465 . S
C1757 C1752 1.396 . S
C1757 C1756 1.394 . S
C1757 C1758 1.516 . S
C1758 C1757 1.516 . S
C1758 C1759 1.502 . S
C1758 C1760 1.561 . S
C1758 C1761 1.526 . S
C1759 H1743 0.959 1_545 S
C1759 H1744 0.959 . S
C1759 H1745 0.961 1_545 S
C1759 C1758 1.502 . S
C1760 H1746 0.960 . S
C1760 H1747 0.961 . S
C1760 H1748 0.959 . S
C1760 C1758 1.561 . S
C1761 C1758 1.526 . S
C1761 C1762 1.396 . S
C1761 C1766 1.390 . S
C1762 C1756 1.465 . S
C1762 C1761 1.396 . S
C1762 C1763 1.399 . S
C1763 H1749 0.929 . S
C1763 C1762 1.399 . S
C1763 C1764 1.385 . S
C1764 H1750 0.931 . S
C1764 C1763 1.385 . S
C1764 C1765 1.389 . S
C1765 C1764 1.389 . S
C1765 C1766 1.387 . S
C1766 H1751 0.930 . S
C1766 C1761 1.390 . S
C1766 C1765 1.387 . S
H1767 C1779 0.930 . S
H1768 C1781 0.930 . S
H1769 C1782 0.930 . S
H1770 C1786 0.959 . S
H1771 C1786 0.959 . S
H1772 C1786 0.961 . S
H1773 C1787 0.960 . S
H1774 C1787 0.961 . S
H1775 C1787 0.959 . S
H1776 C1790 0.929 . S
H1777 C1791 0.931 . S
H1778 C1793 0.930 . S
C1779 H1767 0.930 . S
C1779 C1780 1.399 . S
C1779 C1784 1.399 . S
C1780 C1779 1.399 . S
C1780 C1781 1.376 . S
C1781 H1768 0.930 . S
C1781 C1780 1.376 . S
C1781 C1782 1.388 . S
C1782 H1769 0.930 . S
C1782 C1781 1.388 . S
C1782 C1783 1.390 . S
C1783 C1782 1.390 . S
C1783 C1784 1.394 . S
C1783 C1789 1.465 . S
C1784 C1779 1.399 . S
C1784 C1783 1.394 . S
C1784 C1785 1.516 . S
C1785 C1784 1.516 . S
C1785 C1786 1.502 . S
C1785 C1787 1.561 . S
C1785 C1788 1.526 . S
C1786 H1770 0.959 . S
C1786 H1771 0.959 . S
C1786 H1772 0.961 . S
C1786 C1785 1.502 . S
C1787 H1773 0.960 . S
C1787 H1774 0.961 . S
C1787 H1775 0.959 . S
C1787 C1785 1.561 . S
C1788 C1785 1.526 . S
C1788 C1789 1.396 . S
C1788 C1793 1.390 . S
C1789 C1783 1.465 . S
C1789 C1788 1.396 . S
C1789 C1790 1.399 . S
C1790 H1776 0.929 . S
C1790 C1789 1.399 . S
C1790 C1791 1.385 . S
C1791 H1777 0.931 . S
C1791 C1790 1.385 . S
C1791 C1792 1.389 . S
C1792 C1791 1.389 . S
C1792 C1793 1.387 . S
C1793 H1778 0.930 . S
C1793 C1788 1.390 . S
C1793 C1792 1.387 . S
H1794 C1806 0.930 . S
H1795 C1808 0.930 . S
H1796 C1809 0.931 . S
H1797 C1813 0.959 . S
H1798 C1813 0.959 . S
H1799 C1813 0.961 . S
H1800 C1814 0.960 . S
H1801 C1814 0.961 . S
H1802 C1814 0.959 . S
H1803 C1817 0.929 . S
H1804 C1818 0.931 . S
H1805 C1820 0.930 . S
C1806 H1794 0.930 . S
C1806 C1807 1.399 1_545 S
C1806 C1811 1.399 . S
C1807 C1806 1.399 1_565 S
C1807 C1808 1.376 . S
C1808 H1795 0.930 . S
C1808 C1807 1.376 . S
C1808 C1809 1.388 1_565 S
C1809 H1796 0.931 . S
C1809 C1808 1.388 1_545 S
C1809 C1810 1.390 . S
C1810 C1809 1.390 . S
C1810 C1811 1.394 . S
C1810 C1816 1.465 . S
C1811 C1806 1.399 . S
C1811 C1810 1.394 . S
C1811 C1812 1.516 . S
C1812 C1811 1.516 . S
C1812 C1813 1.502 . S
C1812 C1814 1.561 . S
C1812 C1815 1.526 . S
C1813 H1797 0.959 . S
C1813 H1798 0.959 . S
C1813 H1799 0.961 . S
C1813 C1812 1.502 . S
C1814 H1800 0.960 . S
C1814 H1801 0.961 . S
C1814 H1802 0.959 . S
C1814 C1812 1.561 . S
C1815 C1812 1.526 . S
C1815 C1816 1.396 . S
C1815 C1820 1.390 . S
C1816 C1810 1.465 . S
C1816 C1815 1.396 . S
C1816 C1817 1.399 . S
C1817 H1803 0.929 . S
C1817 C1816 1.399 . S
C1817 C1818 1.385 . S
C1818 H1804 0.931 . S
C1818 C1817 1.385 . S
C1818 C1819 1.389 . S
C1819 C1818 1.389 . S
C1819 C1820 1.387 . S
C1820 H1805 0.930 . S
C1820 C1815 1.390 . S
C1820 C1819 1.387 . S
H1821 C1833 0.930 . S
H1822 C1835 0.930 . S
H1823 C1836 0.930 . S
H1824 C1840 0.959 . S
H1825 C1840 0.959 . S
H1826 C1840 0.961 . S
H1827 C1841 0.960 . S
H1828 C1841 0.961 . S
H1829 C1841 0.959 . S
H1830 C1844 0.929 . S
H1831 C1845 0.931 . S
H1832 C1847 0.930 . S
C1833 H1821 0.930 . S
C1833 C1834 1.399 . S
C1833 C1838 1.399 . S
C1834 C1833 1.399 . S
C1834 C1835 1.376 . S
C1835 H1822 0.930 . S
C1835 C1834 1.376 . S
C1835 C1836 1.388 . S
C1836 H1823 0.930 . S
C1836 C1835 1.388 . S
C1836 C1837 1.390 . S
C1837 C1836 1.390 . S
C1837 C1838 1.394 . S
C1837 C1843 1.465 . S
C1838 C1833 1.399 . S
C1838 C1837 1.394 . S
C1838 C1839 1.516 . S
C1839 C1838 1.516 . S
C1839 C1840 1.502 . S
C1839 C1841 1.561 . S
C1839 C1842 1.526 . S
C1840 H1824 0.959 . S
C1840 H1825 0.959 . S
C1840 H1826 0.961 . S
C1840 C1839 1.502 . S
C1841 H1827 0.960 . S
C1841 H1828 0.961 . S
C1841 H1829 0.959 . S
C1841 C1839 1.561 . S
C1842 C1839 1.526 . S
C1842 C1843 1.396 . S
C1842 C1847 1.390 . S
C1843 C1837 1.465 . S
C1843 C1842 1.396 . S
C1843 C1844 1.399 . S
C1844 H1830 0.929 . S
C1844 C1843 1.399 . S
C1844 C1845 1.385 . S
C1845 H1831 0.931 . S
C1845 C1844 1.385 . S
C1845 C1846 1.389 . S
C1846 C1845 1.389 . S
C1846 C1847 1.387 . S
C1847 H1832 0.930 . S
C1847 C1842 1.390 . S
C1847 C1846 1.387 . S
H1848 C1860 0.930 . S
H1849 C1862 0.930 . S
H1850 C1863 0.930 . S
H1851 C1867 0.959 . S
H1852 C1867 0.959 . S
H1853 C1867 0.961 . S
H1854 C1868 0.960 . S
H1855 C1868 0.961 . S
H1856 C1868 0.959 . S
H1857 C1871 0.929 . S
H1858 C1872 0.931 . S
H1859 C1874 0.930 . S
C1860 H1848 0.930 . S
C1860 C1861 1.399 . S
C1860 C1865 1.399 . S
C1861 C1860 1.399 . S
C1861 C1862 1.376 . S
C1862 H1849 0.930 . S
C1862 C1861 1.376 . S
C1862 C1863 1.388 . S
C1863 H1850 0.930 . S
C1863 C1862 1.388 . S
C1863 C1864 1.390 . S
C1864 C1863 1.390 . S
C1864 C1865 1.394 . S
C1864 C1870 1.465 . S
C1865 C1860 1.399 . S
C1865 C1864 1.394 . S
C1865 C1866 1.516 . S
C1866 C1865 1.516 . S
C1866 C1867 1.502 . S
C1866 C1868 1.561 . S
C1866 C1869 1.526 . S
C1867 H1851 0.959 . S
C1867 H1852 0.959 . S
C1867 H1853 0.961 . S
C1867 C1866 1.502 . S
C1868 H1854 0.960 . S
C1868 H1855 0.961 . S
C1868 H1856 0.959 . S
C1868 C1866 1.561 . S
C1869 C1866 1.526 . S
C1869 C1870 1.396 . S
C1869 C1874 1.390 . S
C1870 C1864 1.465 . S
C1870 C1869 1.396 . S
C1870 C1871 1.399 . S
C1871 H1857 0.929 . S
C1871 C1870 1.399 . S
C1871 C1872 1.385 . S
C1872 H1858 0.931 . S
C1872 C1871 1.385 . S
C1872 C1873 1.389 . S
C1873 C1872 1.389 . S
C1873 C1874 1.387 . S
C1874 H1859 0.930 . S
C1874 C1869 1.390 . S
C1874 C1873 1.387 . S
H1875 C1887 0.930 . S
H1876 C1889 0.930 1_565 S
H1877 C1890 0.930 . S
H1878 C1894 0.959 . S
H1879 C1894 0.959 . S
H1880 C1894 0.961 . S
H1881 C1895 0.960 . S
H1882 C1895 0.961 . S
H1883 C1895 0.959 . S
H1884 C1898 0.929 . S
H1885 C1899 0.931 . S
H1886 C1901 0.930 . S
C1887 H1875 0.930 . S
C1887 C1888 1.399 . S
C1887 C1892 1.399 . S
C1888 C1887 1.399 . S
C1888 C1889 1.376 . S
C1889 H1876 0.930 1_545 S
C1889 C1888 1.376 . S
C1889 C1890 1.388 1_545 S
C1890 H1877 0.930 . S
C1890 C1889 1.388 1_565 S
C1890 C1891 1.390 1_565 S
C1891 C1890 1.390 1_545 S
C1891 C1892 1.394 . S
C1891 C1897 1.465 . S
C1892 C1887 1.399 . S
C1892 C1891 1.394 . S
C1892 C1893 1.516 . S
C1893 C1892 1.516 . S
C1893 C1894 1.502 . S
C1893 C1895 1.561 . S
C1893 C1896 1.526 . S
C1894 H1878 0.959 . S
C1894 H1879 0.959 . S
C1894 H1880 0.961 . S
C1894 C1893 1.502 . S
C1895 H1881 0.960 . S
C1895 H1882 0.961 . S
C1895 H1883 0.959 . S
C1895 C1893 1.561 . S
C1896 C1893 1.526 . S
C1896 C1897 1.396 . S
C1896 C1901 1.390 . S
C1897 C1891 1.465 . S
C1897 C1896 1.396 . S
C1897 C1898 1.399 1_545 S
C1898 H1884 0.929 . S
C1898 C1897 1.399 1_565 S
C1898 C1899 1.385 . S
C1899 H1885 0.931 . S
C1899 C1898 1.385 . S
C1899 C1900 1.389 1_565 S
C1900 C1899 1.389 1_545 S
C1900 C1901 1.387 . S
C1901 H1886 0.930 . S
C1901 C1896 1.390 . S
C1901 C1900 1.387 . S
H1902 C1914 0.930 . S
H1903 C1916 0.930 . S
H1904 C1917 0.930 . S
H1905 C1921 0.959 . S
H1906 C1921 0.959 . S
H1907 C1921 0.961 . S
H1908 C1922 0.960 . S
H1909 C1922 0.961 . S
H1910 C1922 0.959 . S
H1911 C1925 0.929 . S
H1912 C1926 0.931 . S
H1913 C1928 0.930 . S
C1914 H1902 0.930 . S
C1914 C1915 1.399 . S
C1914 C1919 1.399 . S
C1915 C1914 1.399 . S
C1915 C1916 1.376 . S
C1916 H1903 0.930 . S
C1916 C1915 1.376 . S
C1916 C1917 1.388 . S
C1917 H1904 0.930 . S
C1917 C1916 1.388 . S
C1917 C1918 1.390 . S
C1918 C1917 1.390 . S
C1918 C1919 1.394 . S
C1918 C1924 1.465 . S
C1919 C1914 1.399 . S
C1919 C1918 1.394 . S
C1919 C1920 1.516 . S
C1920 C1919 1.516 . S
C1920 C1921 1.502 . S
C1920 C1922 1.561 . S
C1920 C1923 1.526 . S
C1921 H1905 0.959 . S
C1921 H1906 0.959 . S
C1921 H1907 0.961 . S
C1921 C1920 1.502 . S
C1922 H1908 0.960 . S
C1922 H1909 0.961 . S
C1922 H1910 0.959 . S
C1922 C1920 1.561 . S
C1923 C1920 1.526 . S
C1923 C1924 1.396 . S
C1923 C1928 1.390 . S
C1924 C1918 1.465 . S
C1924 C1923 1.396 . S
C1924 C1925 1.399 . S
C1925 H1911 0.929 . S
C1925 C1924 1.399 . S
C1925 C1926 1.385 . S
C1926 H1912 0.931 . S
C1926 C1925 1.385 . S
C1926 C1927 1.389 . S
C1927 C1926 1.389 . S
C1927 C1928 1.387 . S
C1928 H1913 0.930 . S
C1928 C1923 1.390 . S
C1928 C1927 1.387 . S
H1929 C1941 0.930 . S
H1930 C1943 0.930 . S
H1931 C1944 0.930 . S
H1932 C1948 0.959 . S
H1933 C1948 0.959 . S
H1934 C1948 0.961 . S
H1935 C1949 0.960 . S
H1936 C1949 0.961 . S
H1937 C1949 0.959 . S
H1938 C1952 0.929 . S
H1939 C1953 0.931 . S
H1940 C1955 0.930 . S
C1941 H1929 0.930 . S
C1941 C1942 1.399 . S
C1941 C1946 1.399 . S
C1942 C1941 1.399 . S
C1942 C1943 1.376 . S
C1943 H1930 0.930 . S
C1943 C1942 1.376 . S
C1943 C1944 1.388 . S
C1944 H1931 0.930 . S
C1944 C1943 1.388 . S
C1944 C1945 1.390 . S
C1945 C1944 1.390 . S
C1945 C1946 1.394 . S
C1945 C1951 1.465 . S
C1946 C1941 1.399 . S
C1946 C1945 1.394 . S
C1946 C1947 1.516 . S
C1947 C1946 1.516 . S
C1947 C1948 1.502 . S
C1947 C1949 1.561 . S
C1947 C1950 1.526 . S
C1948 H1932 0.959 . S
C1948 H1933 0.959 . S
C1948 H1934 0.961 . S
C1948 C1947 1.502 . S
C1949 H1935 0.960 . S
C1949 H1936 0.961 . S
C1949 H1937 0.959 . S
C1949 C1947 1.561 . S
C1950 C1947 1.526 . S
C1950 C1951 1.396 . S
C1950 C1955 1.390 . S
C1951 C1945 1.465 . S
C1951 C1950 1.396 . S
C1951 C1952 1.399 . S
C1952 H1938 0.929 . S
C1952 C1951 1.399 . S
C1952 C1953 1.385 . S
C1953 H1939 0.931 . S
C1953 C1952 1.385 . S
C1953 C1954 1.389 . S
C1954 C1953 1.389 . S
C1954 C1955 1.387 . S
C1955 H1940 0.930 . S
C1955 C1950 1.390 . S
C1955 C1954 1.387 . S
H1956 C1968 0.930 . S
H1957 C1970 0.930 . S
H1958 C1971 0.930 . S
H1959 C1975 0.959 . S
H1960 C1975 0.959 . S
H1961 C1975 0.961 . S
H1962 C1976 0.960 . S
H1963 C1976 0.961 . S
H1964 C1976 0.959 . S
H1965 C1979 0.929 . S
H1966 C1980 0.931 . S
H1967 C1982 0.930 . S
C1968 H1956 0.930 . S
C1968 C1969 1.399 . S
C1968 C1973 1.399 . S
C1969 C1968 1.399 . S
C1969 C1970 1.376 . S
C1970 H1957 0.930 . S
C1970 C1969 1.376 . S
C1970 C1971 1.388 . S
C1971 H1958 0.930 . S
C1971 C1970 1.388 . S
C1971 C1972 1.390 . S
C1972 C1971 1.390 . S
C1972 C1973 1.394 . S
C1972 C1978 1.465 . S
C1973 C1968 1.399 . S
C1973 C1972 1.394 . S
C1973 C1974 1.516 . S
C1974 C1973 1.516 . S
C1974 C1975 1.502 . S
C1974 C1976 1.561 . S
C1974 C1977 1.526 . S
C1975 H1959 0.959 . S
C1975 H1960 0.959 . S
C1975 H1961 0.961 . S
C1975 C1974 1.502 . S
C1976 H1962 0.960 . S
C1976 H1963 0.961 . S
C1976 H1964 0.959 . S
C1976 C1974 1.561 . S
C1977 C1974 1.526 . S
C1977 C1978 1.396 . S
C1977 C1982 1.390 . S
C1978 C1972 1.465 . S
C1978 C1977 1.396 . S
C1978 C1979 1.399 . S
C1979 H1965 0.929 . S
C1979 C1978 1.399 . S
C1979 C1980 1.385 . S
C1980 H1966 0.931 . S
C1980 C1979 1.385 . S
C1980 C1981 1.389 . S
C1981 C1980 1.389 . S
C1981 C1982 1.387 . S
C1982 H1967 0.930 . S
C1982 C1977 1.390 . S
C1982 C1981 1.387 . S
H1983 C1995 0.930 . S
H1984 C1997 0.930 . S
H1985 C1998 0.930 . S
H1986 C2002 0.959 1_545 S
H1987 C2002 0.959 . S
H1988 C2002 0.961 . S
H1989 C2003 0.960 . S
H1990 C2003 0.961 . S
H1991 C2003 0.959 . S
H1992 C2006 0.929 . S
H1993 C2007 0.931 . S
H1994 C2009 0.930 1_565 S
C1995 H1983 0.930 . S
C1995 C1996 1.399 1_655 S
C1995 C2000 1.399 . S
C1996 C1995 1.399 1_455 S
C1996 C1997 1.376 . S
C1997 H1984 0.930 . S
C1997 C1996 1.376 . S
C1997 C1998 1.388 . S
C1998 H1985 0.930 . S
C1998 C1997 1.388 . S
C1998 C1999 1.390 1_455 S
C1999 C1998 1.390 1_655 S
C1999 C2000 1.394 . S
C1999 C2005 1.465 . S
C2000 C1995 1.399 . S
C2000 C1999 1.394 . S
C2000 C2001 1.516 1_545 S
C2001 C2000 1.516 1_565 S
C2001 C2002 1.502 . S
C2001 C2003 1.561 . S
C2001 C2004 1.526 1_565 S
C2002 H1986 0.959 1_565 S
C2002 H1987 0.959 . S
C2002 H1988 0.961 . S
C2002 C2001 1.502 . S
C2003 H1989 0.960 . S
C2003 H1990 0.961 . S
C2003 H1991 0.959 . S
C2003 C2001 1.561 . S
C2004 C2001 1.526 1_545 S
C2004 C2005 1.396 . S
C2004 C2009 1.390 . S
C2005 C1999 1.465 . S
C2005 C2004 1.396 . S
C2005 C2006 1.399 . S
C2006 H1992 0.929 . S
C2006 C2005 1.399 . S
C2006 C2007 1.385 . S
C2007 H1993 0.931 . S
C2007 C2006 1.385 . S
C2007 C2008 1.389 . S
C2008 C2007 1.389 . S
C2008 C2009 1.387 . S
C2009 H1994 0.930 1_545 S
C2009 C2004 1.390 . S
C2009 C2008 1.387 . S
H2010 C2022 0.930 . S
H2011 C2024 0.930 . S
H2012 C2025 0.930 . S
H2013 C2029 0.959 . S
H2014 C2029 0.959 . S
H2015 C2029 0.961 . S
H2016 C2030 0.960 . S
H2017 C2030 0.961 . S
H2018 C2030 0.959 . S
H2019 C2033 0.929 . S
H2020 C2034 0.931 . S
H2021 C2036 0.930 . S
C2022 H2010 0.930 . S
C2022 C2023 1.399 . S
C2022 C2027 1.399 . S
C2023 C2022 1.399 . S
C2023 C2024 1.376 . S
C2024 H2011 0.930 . S
C2024 C2023 1.376 . S
C2024 C2025 1.388 . S
C2025 H2012 0.930 . S
C2025 C2024 1.388 . S
C2025 C2026 1.390 . S
C2026 C2025 1.390 . S
C2026 C2027 1.394 . S
C2026 C2032 1.465 . S
C2027 C2022 1.399 . S
C2027 C2026 1.394 . S
C2027 C2028 1.516 . S
C2028 C2027 1.516 . S
C2028 C2029 1.502 . S
C2028 C2030 1.561 . S
C2028 C2031 1.526 . S
C2029 H2013 0.959 . S
C2029 H2014 0.959 . S
C2029 H2015 0.961 . S
C2029 C2028 1.502 . S
C2030 H2016 0.960 . S
C2030 H2017 0.961 . S
C2030 H2018 0.959 . S
C2030 C2028 1.561 . S
C2031 C2028 1.526 . S
C2031 C2032 1.396 . S
C2031 C2036 1.390 . S
C2032 C2026 1.465 . S
C2032 C2031 1.396 . S
C2032 C2033 1.399 . S
C2033 H2019 0.929 . S
C2033 C2032 1.399 . S
C2033 C2034 1.385 . S
C2034 H2020 0.931 . S
C2034 C2033 1.385 . S
C2034 C2035 1.389 . S
C2035 C2034 1.389 . S
C2035 C2036 1.387 . S
C2036 H2021 0.930 . S
C2036 C2031 1.390 . S
C2036 C2035 1.387 . S
H2037 C2049 0.930 . S
H2038 C2051 0.930 . S
H2039 C2052 0.934 . S
H2040 C2056 0.959 . S
H2041 C2056 0.959 . S
H2042 C2056 0.961 . S
H2043 C2057 0.960 . S
H2044 C2057 0.961 . S
H2045 C2057 0.959 . S
H2046 C2060 0.929 . S
H2047 C2061 0.931 . S
H2048 C2063 0.930 . S
C2049 H2037 0.930 . S
C2049 C2050 1.399 1_455 S
C2049 C2054 1.399 . S
C2050 C2049 1.399 1_655 S
C2050 C2051 1.376 . S
C2051 H2038 0.930 . S
C2051 C2050 1.376 . S
C2051 C2052 1.388 1_655 S
C2052 H2039 0.934 . S
C2052 C2051 1.388 1_455 S
C2052 C2053 1.390 . S
C2053 C2052 1.390 . S
C2053 C2054 1.394 . S
C2053 C2059 1.465 . S
C2054 C2049 1.399 . S
C2054 C2053 1.394 . S
C2054 C2055 1.516 . S
C2055 C2054 1.516 . S
C2055 C2056 1.502 . S
C2055 C2057 1.561 . S
C2055 C2058 1.526 . S
C2056 H2040 0.959 . S
C2056 H2041 0.959 . S
C2056 H2042 0.961 . S
C2056 C2055 1.502 . S
C2057 H2043 0.960 . S
C2057 H2044 0.961 . S
C2057 H2045 0.959 . S
C2057 C2055 1.561 . S
C2058 C2055 1.526 . S
C2058 C2059 1.396 . S
C2058 C2063 1.390 . S
C2059 C2053 1.465 . S
C2059 C2058 1.396 . S
C2059 C2060 1.399 . S
C2060 H2046 0.929 . S
C2060 C2059 1.399 . S
C2060 C2061 1.385 . S
C2061 H2047 0.931 . S
C2061 C2060 1.385 . S
C2061 C2062 1.389 . S
C2062 C2061 1.389 . S
C2062 C2063 1.387 . S
C2063 H2048 0.930 . S
C2063 C2058 1.390 . S
C2063 C2062 1.387 . S
H2064 C2076 0.930 . S
H2065 C2078 0.930 . S
H2066 C2079 0.930 . S
H2067 C2083 0.959 . S
H2068 C2083 0.959 . S
H2069 C2083 0.961 . S
H2070 C2084 0.960 . S
H2071 C2084 0.961 . S
H2072 C2084 0.959 . S
H2073 C2087 0.929 . S
H2074 C2088 0.931 . S
H2075 C2090 0.930 . S
C2076 H2064 0.930 . S
C2076 C2077 1.399 . S
C2076 C2081 1.399 . S
C2077 C2076 1.399 . S
C2077 C2078 1.376 . S
C2078 H2065 0.930 . S
C2078 C2077 1.376 . S
C2078 C2079 1.388 . S
C2079 H2066 0.930 . S
C2079 C2078 1.388 . S
C2079 C2080 1.390 . S
C2080 C2079 1.390 . S
C2080 C2081 1.394 . S
C2080 C2086 1.465 . S
C2081 C2076 1.399 . S
C2081 C2080 1.394 . S
C2081 C2082 1.516 . S
C2082 C2081 1.516 . S
C2082 C2083 1.502 . S
C2082 C2084 1.561 . S
C2082 C2085 1.526 . S
C2083 H2067 0.959 . S
C2083 H2068 0.959 . S
C2083 H2069 0.961 . S
C2083 C2082 1.502 . S
C2084 H2070 0.960 . S
C2084 H2071 0.961 . S
C2084 H2072 0.959 . S
C2084 C2082 1.561 . S
C2085 C2082 1.526 . S
C2085 C2086 1.396 . S
C2085 C2090 1.390 . S
C2086 C2080 1.465 . S
C2086 C2085 1.396 . S
C2086 C2087 1.399 . S
C2087 H2073 0.929 . S
C2087 C2086 1.399 . S
C2087 C2088 1.385 . S
C2088 H2074 0.931 . S
C2088 C2087 1.385 . S
C2088 C2089 1.389 . S
C2089 C2088 1.389 . S
C2089 C2090 1.387 . S
C2090 H2075 0.930 . S
C2090 C2085 1.390 . S
C2090 C2089 1.387 . S
H2091 C2103 0.930 . S
H2092 C2105 0.930 . S
H2093 C2106 0.930 . S
H2094 C2110 0.959 . S
H2095 C2110 0.959 . S
H2096 C2110 0.961 . S
H2097 C2111 0.960 . S
H2098 C2111 0.961 . S
H2099 C2111 0.959 . S
H2100 C2114 0.929 . S
H2101 C2115 0.931 . S
H2102 C2117 0.930 . S
C2103 H2091 0.930 . S
C2103 C2104 1.399 1_556 S
C2103 C2108 1.399 . S
C2104 C2103 1.399 1_554 S
C2104 C2105 1.376 . S
C2105 H2092 0.930 . S
C2105 C2104 1.376 . S
C2105 C2106 1.388 . S
C2106 H2093 0.930 . S
C2106 C2105 1.388 . S
C2106 C2107 1.390 1_554 S
C2107 C2106 1.390 1_556 S
C2107 C2108 1.394 . S
C2107 C2113 1.465 . S
C2108 C2103 1.399 . S
C2108 C2107 1.394 . S
C2108 C2109 1.516 . S
C2109 C2108 1.516 . S
C2109 C2110 1.502 . S
C2109 C2111 1.561 1_655 S
C2109 C2112 1.526 . S
C2110 H2094 0.959 . S
C2110 H2095 0.959 . S
C2110 H2096 0.961 . S
C2110 C2109 1.502 . S
C2111 H2097 0.960 . S
C2111 H2098 0.961 . S
C2111 H2099 0.959 . S
C2111 C2109 1.561 1_455 S
C2112 C2109 1.526 . S
C2112 C2113 1.396 . S
C2112 C2117 1.390 . S
C2113 C2107 1.465 . S
C2113 C2112 1.396 . S
C2113 C2114 1.399 . S
C2114 H2100 0.929 . S
C2114 C2113 1.399 . S
C2114 C2115 1.385 . S
C2115 H2101 0.931 . S
C2115 C2114 1.385 . S
C2115 C2116 1.389 . S
C2116 C2115 1.389 . S
C2116 C2117 1.387 . S
C2117 H2102 0.930 . S
C2117 C2112 1.390 . S
C2117 C2116 1.387 . S
H2118 C2130 0.930 . S
H2119 C2132 0.930 . S
H2120 C2133 0.930 . S
H2121 C2137 0.959 . S
H2122 C2137 0.959 . S
H2123 C2137 0.961 . S
H2124 C2138 0.960 . S
H2125 C2138 0.961 . S
H2126 C2138 0.959 . S
H2127 C2141 0.929 . S
H2128 C2142 0.931 . S
H2129 C2144 0.930 . S
C2130 H2118 0.930 . S
C2130 C2131 1.399 . S
C2130 C2135 1.399 . S
C2131 C2130 1.399 . S
C2131 C2132 1.376 . S
C2132 H2119 0.930 . S
C2132 C2131 1.376 . S
C2132 C2133 1.388 . S
C2133 H2120 0.930 . S
C2133 C2132 1.388 . S
C2133 C2134 1.390 . S
C2134 C2133 1.390 . S
C2134 C2135 1.394 . S
C2134 C2140 1.465 . S
C2135 C2130 1.399 . S
C2135 C2134 1.394 . S
C2135 C2136 1.516 . S
C2136 C2135 1.516 . S
C2136 C2137 1.502 . S
C2136 C2138 1.561 . S
C2136 C2139 1.526 . S
C2137 H2121 0.959 . S
C2137 H2122 0.959 . S
C2137 H2123 0.961 . S
C2137 C2136 1.502 . S
C2138 H2124 0.960 . S
C2138 H2125 0.961 . S
C2138 H2126 0.959 . S
C2138 C2136 1.561 . S
C2139 C2136 1.526 . S
C2139 C2140 1.396 . S
C2139 C2144 1.390 . S
C2140 C2134 1.465 . S
C2140 C2139 1.396 . S
C2140 C2141 1.399 . S
C2141 H2127 0.929 . S
C2141 C2140 1.399 . S
C2141 C2142 1.385 . S
C2142 H2128 0.931 . S
C2142 C2141 1.385 . S
C2142 C2143 1.389 . S
C2143 C2142 1.389 . S
C2143 C2144 1.387 . S
C2144 H2129 0.930 . S
C2144 C2139 1.390 . S
C2144 C2143 1.387 . S
H2145 C2157 0.930 . S
H2146 C2159 0.930 . S
H2147 C2160 0.930 . S
H2148 C2164 0.959 . S
H2149 C2164 0.959 . S
H2150 C2164 0.961 1_554 S
H2151 C2165 0.960 . S
H2152 C2165 0.979 . S
H2153 C2165 0.959 . S
H2154 C2168 0.929 . S
H2155 C2169 0.931 . S
H2156 C2171 0.930 1_655 S
C2157 H2145 0.930 . S
C2157 C2158 1.399 . S
C2157 C2162 1.399 1_554 S
C2158 C2157 1.399 . S
C2158 C2159 1.376 1_554 S
C2159 H2146 0.930 . S
C2159 C2158 1.376 1_556 S
C2159 C2160 1.388 . S
C2160 H2147 0.930 . S
C2160 C2159 1.388 . S
C2160 C2161 1.390 . S
C2161 C2160 1.390 . S
C2161 C2162 1.394 . S
C2161 C2167 1.465 . S
C2162 C2157 1.399 1_556 S
C2162 C2161 1.394 . S
C2162 C2163 1.516 . S
C2163 C2162 1.516 . S
C2163 C2164 1.502 1_455 S
C2163 C2165 1.561 1_556 S
C2163 C2166 1.526 . S
C2164 H2148 0.959 . S
C2164 H2149 0.959 . S
C2164 H2150 0.961 1_556 S
C2164 C2163 1.502 1_655 S
C2165 H2151 0.960 . S
C2165 H2152 0.979 . S
C2165 H2153 0.959 . S
C2165 C2163 1.561 1_554 S
C2166 C2163 1.526 . S
C2166 C2167 1.396 . S
C2166 C2171 1.390 . S
C2167 C2161 1.465 . S
C2167 C2166 1.396 . S
C2167 C2168 1.399 . S
C2168 H2154 0.929 . S
C2168 C2167 1.399 . S
C2168 C2169 1.385 . S
C2169 H2155 0.931 . S
C2169 C2168 1.385 . S
C2169 C2170 1.389 . S
C2170 C2169 1.389 . S
C2170 C2171 1.387 . S
C2171 H2156 0.930 1_455 S
C2171 C2166 1.390 . S
C2171 C2170 1.387 . S
H2172 C2184 0.930 . S
H2173 C2186 0.930 . S
H2174 C2187 0.930 . S
H2175 C2191 0.959 . S
H2176 C2191 0.959 . S
H2177 C2191 0.961 . S
H2178 C2192 0.960 . S
H2179 C2192 0.961 . S
H2180 C2192 0.959 . S
H2181 C2195 0.929 . S
H2182 C2196 0.931 . S
H2183 C2198 0.930 . S
C2184 H2172 0.930 . S
C2184 C2185 1.399 . S
C2184 C2189 1.399 . S
C2185 C2184 1.399 . S
C2185 C2186 1.376 . S
C2186 H2173 0.930 . S
C2186 C2185 1.376 . S
C2186 C2187 1.388 . S
C2187 H2174 0.930 . S
C2187 C2186 1.388 . S
C2187 C2188 1.390 . S
C2188 C2187 1.390 . S
C2188 C2189 1.394 . S
C2188 C2194 1.465 . S
C2189 C2184 1.399 . S
C2189 C2188 1.394 . S
C2189 C2190 1.516 . S
C2190 C2189 1.516 . S
C2190 C2191 1.502 . S
C2190 C2192 1.561 . S
C2190 C2193 1.526 . S
C2191 H2175 0.959 . S
C2191 H2176 0.959 . S
C2191 H2177 0.961 . S
C2191 C2190 1.502 . S
C2192 H2178 0.960 . S
C2192 H2179 0.961 . S
C2192 H2180 0.959 . S
C2192 C2190 1.561 . S
C2193 C2190 1.526 . S
C2193 C2194 1.396 . S
C2193 C2198 1.390 . S
C2194 C2188 1.465 . S
C2194 C2193 1.396 . S
C2194 C2195 1.399 . S
C2195 H2181 0.929 . S
C2195 C2194 1.399 . S
C2195 C2196 1.385 . S
C2196 H2182 0.931 . S
C2196 C2195 1.385 . S
C2196 C2197 1.389 . S
C2197 C2196 1.389 . S
C2197 C2198 1.387 . S
C2198 H2183 0.930 . S
C2198 C2193 1.390 . S
C2198 C2197 1.387 . S
H2199 C2211 0.930 . S
H2200 C2213 0.930 . S
H2201 C2214 0.930 . S
H2202 C2218 0.959 1_554 S
H2203 C2218 0.959 . S
H2204 C2218 0.961 . S
H2205 C2219 0.960 . S
H2206 C2219 0.961 . S
H2207 C2219 0.959 . S
H2208 C2222 0.929 . S
H2209 C2223 0.931 . S
H2210 C2225 0.930 . S
C2211 H2199 0.930 . S
C2211 C2212 1.399 . S
C2211 C2216 1.399 1_556 S
C2212 C2211 1.399 . S
C2212 C2213 1.376 1_556 S
C2213 H2200 0.930 . S
C2213 C2212 1.376 1_554 S
C2213 C2214 1.388 . S
C2214 H2201 0.930 . S
C2214 C2213 1.388 . S
C2214 C2215 1.390 . S
C2215 C2214 1.390 . S
C2215 C2216 1.394 . S
C2215 C2221 1.465 . S
C2216 C2211 1.399 1_554 S
C2216 C2215 1.394 . S
C2216 C2217 1.516 . S
C2217 C2216 1.516 . S
C2217 C2218 1.502 1_554 S
C2217 C2219 1.561 1_554 S
C2217 C2220 1.526 . S
C2218 H2202 0.959 1_556 S
C2218 H2203 0.959 . S
C2218 H2204 0.961 . S
C2218 C2217 1.502 1_556 S
C2219 H2205 0.960 . S
C2219 H2206 0.961 . S
C2219 H2207 0.959 . S
C2219 C2217 1.561 1_556 S
C2220 C2217 1.526 . S
C2220 C2221 1.396 . S
C2220 C2225 1.390 . S
C2221 C2215 1.465 . S
C2221 C2220 1.396 . S
C2221 C2222 1.399 . S
C2222 H2208 0.929 . S
C2222 C2221 1.399 . S
C2222 C2223 1.385 . S
C2223 H2209 0.931 . S
C2223 C2222 1.385 . S
C2223 C2224 1.389 . S
C2224 C2223 1.389 . S
C2224 C2225 1.387 . S
C2225 H2210 0.930 . S
C2225 C2220 1.390 . S
C2225 C2224 1.387 . S
H2226 C2238 0.930 . S
H2227 C2240 0.930 . S
H2228 C2241 0.930 . S
H2229 C2245 0.959 . S
H2230 C2245 0.959 . S
H2231 C2245 0.961 . S
H2232 C2246 0.960 . S
H2233 C2246 0.961 . S
H2234 C2246 0.959 . S
H2235 C2249 0.929 . S
H2236 C2250 0.931 . S
H2237 C2252 0.930 . S
C2238 H2226 0.930 . S
C2238 C2239 1.399 . S
C2238 C2243 1.399 . S
C2239 C2238 1.399 . S
C2239 C2240 1.376 . S
C2240 H2227 0.930 . S
C2240 C2239 1.376 . S
C2240 C2241 1.388 . S
C2241 H2228 0.930 . S
C2241 C2240 1.388 . S
C2241 C2242 1.390 . S
C2242 C2241 1.390 . S
C2242 C2243 1.394 . S
C2242 C2248 1.465 . S
C2243 C2238 1.399 . S
C2243 C2242 1.394 . S
C2243 C2244 1.516 . S
C2244 C2243 1.516 . S
C2244 C2245 1.502 . S
C2244 C2246 1.561 . S
C2244 C2247 1.526 . S
C2245 H2229 0.959 . S
C2245 H2230 0.959 . S
C2245 H2231 0.961 . S
C2245 C2244 1.502 . S
C2246 H2232 0.960 . S
C2246 H2233 0.961 . S
C2246 H2234 0.959 . S
C2246 C2244 1.561 . S
C2247 C2244 1.526 . S
C2247 C2248 1.396 . S
C2247 C2252 1.390 . S
C2248 C2242 1.465 . S
C2248 C2247 1.396 . S
C2248 C2249 1.399 . S
C2249 H2235 0.929 . S
C2249 C2248 1.399 . S
C2249 C2250 1.385 . S
C2250 H2236 0.931 . S
C2250 C2249 1.385 . S
C2250 C2251 1.389 . S
C2251 C2250 1.389 . S
C2251 C2252 1.387 . S
C2252 H2237 0.930 . S
C2252 C2247 1.390 . S
C2252 C2251 1.387 . S
H2253 C2265 0.930 . S
H2254 C2267 0.930 . S
H2255 C2268 0.930 . S
H2256 C2272 0.959 . S
H2257 C2272 0.959 . S
H2258 C2272 0.961 . S
H2259 C2273 0.960 1_556 S
H2260 C2273 0.961 . S
H2261 C2273 0.959 . S
H2262 C2276 0.929 . S
H2263 C2277 0.931 . S
H2264 C2279 0.930 . S
C2265 H2253 0.930 . S
C2265 C2266 1.399 . S
C2265 C2270 1.399 1_556 S
C2266 C2265 1.399 . S
C2266 C2267 1.376 1_556 S
C2267 H2254 0.930 . S
C2267 C2266 1.376 1_554 S
C2267 C2268 1.388 . S
C2268 H2255 0.930 . S
C2268 C2267 1.388 . S
C2268 C2269 1.390 . S
C2269 C2268 1.390 . S
C2269 C2270 1.394 . S
C2269 C2275 1.465 . S
C2270 C2265 1.399 1_554 S
C2270 C2269 1.394 . S
C2270 C2271 1.516 . S
C2271 C2270 1.516 . S
C2271 C2272 1.502 1_554 S
C2271 C2273 1.561 . S
C2271 C2274 1.526 . S
C2272 H2256 0.959 . S
C2272 H2257 0.959 . S
C2272 H2258 0.961 . S
C2272 C2271 1.502 1_556 S
C2273 H2259 0.960 1_554 S
C2273 H2260 0.961 . S
C2273 H2261 0.959 . S
C2273 C2271 1.561 . S
C2274 C2271 1.526 . S
C2274 C2275 1.396 . S
C2274 C2279 1.390 . S
C2275 C2269 1.465 . S
C2275 C2274 1.396 . S
C2275 C2276 1.399 . S
C2276 H2262 0.929 . S
C2276 C2275 1.399 . S
C2276 C2277 1.385 . S
C2277 H2263 0.931 . S
C2277 C2276 1.385 . S
C2277 C2278 1.389 . S
C2278 C2277 1.389 . S
C2278 C2279 1.387 . S
C2279 H2264 0.930 . S
C2279 C2274 1.390 . S
C2279 C2278 1.387 . S
H2280 C2292 0.930 . S
H2281 C2294 0.930 . S
H2282 C2295 0.930 . S
H2283 C2299 0.959 . S
H2284 C2299 0.959 . S
H2285 C2299 0.961 . S
H2286 C2300 0.960 . S
H2287 C2300 0.961 . S
H2288 C2300 0.959 . S
H2289 C2303 0.929 . S
H2290 C2304 0.931 . S
H2291 C2306 0.930 . S
C2292 H2280 0.930 . S
C2292 C2293 1.399 . S
C2292 C2297 1.399 . S
C2293 C2292 1.399 . S
C2293 C2294 1.376 . S
C2294 H2281 0.930 . S
C2294 C2293 1.376 . S
C2294 C2295 1.388 . S
C2295 H2282 0.930 . S
C2295 C2294 1.388 . S
C2295 C2296 1.390 . S
C2296 C2295 1.390 . S
C2296 C2297 1.394 . S
C2296 C2302 1.465 . S
C2297 C2292 1.399 . S
C2297 C2296 1.394 . S
C2297 C2298 1.516 . S
C2298 C2297 1.516 . S
C2298 C2299 1.502 . S
C2298 C2300 1.561 . S
C2298 C2301 1.526 . S
C2299 H2283 0.959 . S
C2299 H2284 0.959 . S
C2299 H2285 0.961 . S
C2299 C2298 1.502 . S
C2300 H2286 0.960 . S
C2300 H2287 0.961 . S
C2300 H2288 0.959 . S
C2300 C2298 1.561 . S
C2301 C2298 1.526 . S
C2301 C2302 1.396 . S
C2301 C2306 1.390 . S
C2302 C2296 1.465 . S
C2302 C2301 1.396 . S
C2302 C2303 1.399 . S
C2303 H2289 0.929 . S
C2303 C2302 1.399 . S
C2303 C2304 1.385 . S
C2304 H2290 0.931 . S
C2304 C2303 1.385 . S
C2304 C2305 1.389 . S
C2305 C2304 1.389 . S
C2305 C2306 1.387 . S
C2306 H2291 0.930 . S
C2306 C2301 1.390 . S
C2306 C2305 1.387 . S
H2307 C2319 0.930 . S
H2308 C2321 0.930 . S
H2309 C2322 0.930 . S
H2310 C2326 0.959 . S
H2311 C2326 0.959 . S
H2312 C2326 0.961 . S
H2313 C2327 0.960 . S
H2314 C2327 0.961 . S
H2315 C2327 0.959 . S
H2316 C2330 0.929 . S
H2317 C2331 0.931 . S
H2318 C2333 0.930 . S
C2319 H2307 0.930 . S
C2319 C2320 1.399 . S
C2319 C2324 1.399 . S
C2320 C2319 1.399 . S
C2320 C2321 1.376 . S
C2321 H2308 0.930 . S
C2321 C2320 1.376 . S
C2321 C2322 1.388 . S
C2322 H2309 0.930 . S
C2322 C2321 1.388 . S
C2322 C2323 1.390 . S
C2323 C2322 1.390 . S
C2323 C2324 1.394 . S
C2323 C2329 1.465 . S
C2324 C2319 1.399 . S
C2324 C2323 1.394 . S
C2324 C2325 1.516 . S
C2325 C2324 1.516 . S
C2325 C2326 1.502 . S
C2325 C2327 1.561 . S
C2325 C2328 1.526 . S
C2326 H2310 0.959 . S
C2326 H2311 0.959 . S
C2326 H2312 0.961 . S
C2326 C2325 1.502 . S
C2327 H2313 0.960 . S
C2327 H2314 0.961 . S
C2327 H2315 0.959 . S
C2327 C2325 1.561 . S
C2328 C2325 1.526 . S
C2328 C2329 1.396 . S
C2328 C2333 1.390 . S
C2329 C2323 1.465 . S
C2329 C2328 1.396 . S
C2329 C2330 1.399 . S
C2330 H2316 0.929 . S
C2330 C2329 1.399 . S
C2330 C2331 1.385 . S
C2331 H2317 0.931 . S
C2331 C2330 1.385 . S
C2331 C2332 1.389 . S
C2332 C2331 1.389 . S
C2332 C2333 1.387 . S
C2333 H2318 0.930 . S
C2333 C2328 1.390 . S
C2333 C2332 1.387 . S
H2334 C2346 0.930 . S
H2335 C2348 0.930 . S
H2336 C2349 0.930 . S
H2337 C2353 0.959 . S
H2338 C2353 0.959 . S
H2339 C2353 0.961 . S
H2340 C2354 0.960 . S
H2341 C2354 0.961 . S
H2342 C2354 0.959 . S
H2343 C2357 0.929 . S
H2344 C2358 0.931 . S
H2345 C2360 0.930 . S
C2346 H2334 0.930 . S
C2346 C2347 1.399 . S
C2346 C2351 1.399 . S
C2347 C2346 1.399 . S
C2347 C2348 1.376 . S
C2348 H2335 0.930 . S
C2348 C2347 1.376 . S
C2348 C2349 1.388 . S
C2349 H2336 0.930 . S
C2349 C2348 1.388 . S
C2349 C2350 1.390 . S
C2350 C2349 1.390 . S
C2350 C2351 1.394 . S
C2350 C2356 1.465 . S
C2351 C2346 1.399 . S
C2351 C2350 1.394 . S
C2351 C2352 1.516 . S
C2352 C2351 1.516 . S
C2352 C2353 1.502 . S
C2352 C2354 1.561 . S
C2352 C2355 1.526 . S
C2353 H2337 0.959 . S
C2353 H2338 0.959 . S
C2353 H2339 0.961 . S
C2353 C2352 1.502 . S
C2354 H2340 0.960 . S
C2354 H2341 0.961 . S
C2354 H2342 0.959 . S
C2354 C2352 1.561 . S
C2355 C2352 1.526 . S
C2355 C2356 1.396 . S
C2355 C2360 1.390 . S
C2356 C2350 1.465 . S
C2356 C2355 1.396 . S
C2356 C2357 1.399 . S
C2357 H2343 0.929 . S
C2357 C2356 1.399 . S
C2357 C2358 1.385 . S
C2358 H2344 0.931 . S
C2358 C2357 1.385 . S
C2358 C2359 1.389 . S
C2359 C2358 1.389 . S
C2359 C2360 1.387 . S
C2360 H2345 0.930 . S
C2360 C2355 1.390 . S
C2360 C2359 1.387 . S
H2361 C2373 0.930 . S
H2362 C2375 0.930 . S
H2363 C2376 0.930 . S
H2364 C2380 0.959 . S
H2365 C2380 0.959 . S
H2366 C2380 0.961 . S
H2367 C2381 0.960 . S
H2368 C2381 0.961 . S
H2369 C2381 0.959 . S
H2370 C2384 0.929 . S
H2371 C2385 0.931 . S
H2372 C2387 0.930 . S
C2373 H2361 0.930 . S
C2373 C2374 1.399 . S
C2373 C2378 1.399 . S
C2374 C2373 1.399 . S
C2374 C2375 1.376 . S
C2375 H2362 0.930 . S
C2375 C2374 1.376 . S
C2375 C2376 1.388 . S
C2376 H2363 0.930 . S
C2376 C2375 1.388 . S
C2376 C2377 1.390 . S
C2377 C2376 1.390 . S
C2377 C2378 1.394 . S
C2377 C2383 1.465 . S
C2378 C2373 1.399 . S
C2378 C2377 1.394 . S
C2378 C2379 1.516 . S
C2379 C2378 1.516 . S
C2379 C2380 1.502 . S
C2379 C2381 1.561 . S
C2379 C2382 1.526 . S
C2380 H2364 0.959 . S
C2380 H2365 0.959 . S
C2380 H2366 0.961 . S
C2380 C2379 1.502 . S
C2381 H2367 0.960 . S
C2381 H2368 0.961 . S
C2381 H2369 0.959 . S
C2381 C2379 1.561 . S
C2382 C2379 1.526 . S
C2382 C2383 1.396 . S
C2382 C2387 1.390 . S
C2383 C2377 1.465 . S
C2383 C2382 1.396 . S
C2383 C2384 1.399 . S
C2384 H2370 0.929 . S
C2384 C2383 1.399 . S
C2384 C2385 1.385 . S
C2385 H2371 0.931 . S
C2385 C2384 1.385 . S
C2385 C2386 1.389 . S
C2386 C2385 1.389 . S
C2386 C2387 1.387 . S
C2387 H2372 0.930 . S
C2387 C2382 1.390 . S
C2387 C2386 1.387 . S
H2388 C2400 0.930 . S
H2389 C2402 0.930 1_554 S
H2390 C2403 0.930 . S
H2391 C2407 0.959 . S
H2392 C2407 0.959 . S
H2393 C2407 0.961 . S
H2394 C2408 0.960 . S
H2395 C2408 0.961 . S
H2396 C2408 0.959 . S
H2397 C2411 0.929 . S
H2398 C2412 0.931 . S
H2399 C2414 0.930 . S
C2400 H2388 0.930 . S
C2400 C2401 1.399 . S
C2400 C2405 1.399 . S
C2401 C2400 1.399 . S
C2401 C2402 1.376 . S
C2402 H2389 0.930 1_556 S
C2402 C2401 1.376 . S
C2402 C2403 1.388 1_556 S
C2403 H2390 0.930 . S
C2403 C2402 1.388 1_554 S
C2403 C2404 1.390 1_554 S
C2404 C2403 1.390 1_556 S
C2404 C2405 1.394 . S
C2404 C2410 1.465 . S
C2405 C2400 1.399 . S
C2405 C2404 1.394 . S
C2405 C2406 1.516 . S
C2406 C2405 1.516 . S
C2406 C2407 1.502 . S
C2406 C2408 1.561 . S
C2406 C2409 1.526 . S
C2407 H2391 0.959 . S
C2407 H2392 0.959 . S
C2407 H2393 0.961 . S
C2407 C2406 1.502 . S
C2408 H2394 0.960 . S
C2408 H2395 0.961 . S
C2408 H2396 0.959 . S
C2408 C2406 1.561 . S
C2409 C2406 1.526 . S
C2409 C2410 1.396 . S
C2409 C2414 1.390 . S
C2410 C2404 1.465 . S
C2410 C2409 1.396 . S
C2410 C2411 1.399 1_556 S
C2411 H2397 0.929 . S
C2411 C2410 1.399 1_554 S
C2411 C2412 1.385 . S
C2412 H2398 0.931 . S
C2412 C2411 1.385 . S
C2412 C2413 1.389 1_554 S
C2413 C2412 1.389 1_556 S
C2413 C2414 1.387 . S
C2414 H2399 0.930 . S
C2414 C2409 1.390 . S
C2414 C2413 1.387 . S
H2415 C2427 0.930 . S
H2416 C2429 0.930 . S
H2417 C2430 0.930 . S
H2418 C2434 0.959 . S
H2419 C2434 0.959 . S
H2420 C2434 0.961 . S
H2421 C2435 0.960 . S
H2422 C2435 0.961 . S
H2423 C2435 0.959 . S
H2424 C2438 0.929 . S
H2425 C2439 0.931 . S
H2426 C2441 0.930 . S
C2427 H2415 0.930 . S
C2427 C2428 1.399 . S
C2427 C2432 1.399 . S
C2428 C2427 1.399 . S
C2428 C2429 1.376 . S
C2429 H2416 0.930 . S
C2429 C2428 1.376 . S
C2429 C2430 1.388 . S
C2430 H2417 0.930 . S
C2430 C2429 1.388 . S
C2430 C2431 1.390 . S
C2431 C2430 1.390 . S
C2431 C2432 1.394 . S
C2431 C2437 1.465 . S
C2432 C2427 1.399 . S
C2432 C2431 1.394 . S
C2432 C2433 1.516 . S
C2433 C2432 1.516 . S
C2433 C2434 1.502 . S
C2433 C2435 1.561 . S
C2433 C2436 1.526 . S
C2434 H2418 0.959 . S
C2434 H2419 0.959 . S
C2434 H2420 0.961 . S
C2434 C2433 1.502 . S
C2435 H2421 0.960 . S
C2435 H2422 0.961 . S
C2435 H2423 0.959 . S
C2435 C2433 1.561 . S
C2436 C2433 1.526 . S
C2436 C2437 1.396 . S
C2436 C2441 1.390 . S
C2437 C2431 1.465 . S
C2437 C2436 1.396 . S
C2437 C2438 1.399 . S
C2438 H2424 0.929 . S
C2438 C2437 1.399 . S
C2438 C2439 1.385 . S
C2439 H2425 0.931 . S
C2439 C2438 1.385 . S
C2439 C2440 1.389 . S
C2440 C2439 1.389 . S
C2440 C2441 1.387 . S
C2441 H2426 0.930 . S
C2441 C2436 1.390 . S
C2441 C2440 1.387 . S
H2442 C2454 0.930 1_556 S
H2443 C2456 0.930 . S
H2444 C2457 0.930 . S
H2445 C2461 0.959 . S
H2446 C2461 0.959 . S
H2447 C2461 0.961 . S
H2448 C2462 0.960 . S
H2449 C2462 0.961 . S
H2450 C2462 0.959 . S
H2451 C2465 0.929 . S
H2452 C2466 0.931 . S
H2453 C2468 0.930 1_556 S
C2454 H2442 0.930 1_554 S
C2454 C2455 1.399 . S
C2454 C2459 1.399 . S
C2455 C2454 1.399 . S
C2455 C2456 1.376 . S
C2456 H2443 0.930 . S
C2456 C2455 1.376 . S
C2456 C2457 1.388 . S
C2457 H2444 0.930 . S
C2457 C2456 1.388 . S
C2457 C2458 1.390 . S
C2458 C2457 1.390 . S
C2458 C2459 1.394 . S
C2458 C2464 1.465 . S
C2459 C2454 1.399 . S
C2459 C2458 1.394 . S
C2459 C2460 1.516 1_554 S
C2460 C2459 1.516 1_556 S
C2460 C2461 1.502 . S
C2460 C2462 1.561 . S
C2460 C2463 1.526 1_556 S
C2461 H2445 0.959 . S
C2461 H2446 0.959 . S
C2461 H2447 0.961 . S
C2461 C2460 1.502 . S
C2462 H2448 0.960 . S
C2462 H2449 0.961 . S
C2462 H2450 0.959 . S
C2462 C2460 1.561 . S
C2463 C2460 1.526 1_554 S
C2463 C2464 1.396 . S
C2463 C2468 1.390 . S
C2464 C2458 1.465 . S
C2464 C2463 1.396 . S
C2464 C2465 1.399 . S
C2465 H2451 0.929 . S
C2465 C2464 1.399 . S
C2465 C2466 1.385 . S
C2466 H2452 0.931 . S
C2466 C2465 1.385 . S
C2466 C2467 1.389 . S
C2467 C2466 1.389 . S
C2467 C2468 1.387 . S
C2468 H2453 0.930 1_554 S
C2468 C2463 1.390 . S
C2468 C2467 1.387 . S
H2469 C2481 0.930 . S
H2470 C2483 0.930 . S
H2471 C2484 0.930 . S
H2472 C2488 0.959 . S
H2473 C2488 0.959 . S
H2474 C2488 0.961 . S
H2475 C2489 0.960 . S
H2476 C2489 0.961 . S
H2477 C2489 0.959 1_556 S
H2478 C2492 0.929 . S
H2479 C2493 0.931 . S
H2480 C2495 0.930 . S
C2481 H2469 0.930 . S
C2481 C2482 1.399 1_565 S
C2481 C2486 1.399 . S
C2482 C2481 1.399 1_545 S
C2482 C2483 1.376 . S
C2483 H2470 0.930 . S
C2483 C2482 1.376 . S
C2483 C2484 1.388 . S
C2484 H2471 0.930 . S
C2484 C2483 1.388 . S
C2484 C2485 1.390 1_545 S
C2485 C2484 1.390 1_565 S
C2485 C2486 1.394 . S
C2485 C2491 1.465 . S
C2486 C2481 1.399 . S
C2486 C2485 1.394 . S
C2486 C2487 1.516 . S
C2487 C2486 1.516 . S
C2487 C2488 1.502 . S
C2487 C2489 1.561 . S
C2487 C2490 1.526 . S
C2488 H2472 0.959 . S
C2488 H2473 0.959 . S
C2488 H2474 0.961 . S
C2488 C2487 1.502 . S
C2489 H2475 0.960 . S
C2489 H2476 0.961 . S
C2489 H2477 0.959 1_554 S
C2489 C2487 1.561 . S
C2490 C2487 1.526 . S
C2490 C2491 1.396 . S
C2490 C2495 1.390 . S
C2491 C2485 1.465 . S
C2491 C2490 1.396 . S
C2491 C2492 1.399 . S
C2492 H2478 0.929 . S
C2492 C2491 1.399 . S
C2492 C2493 1.385 . S
C2493 H2479 0.931 . S
C2493 C2492 1.385 . S
C2493 C2494 1.389 . S
C2494 C2493 1.389 . S
C2494 C2495 1.387 . S
C2495 H2480 0.930 . S
C2495 C2490 1.390 . S
C2495 C2494 1.387 . S
C1225 C193 1.500 . S
C1213 C50 1.510 . S
C1252 C252 1.494 . S
C1240 C61 1.498 . S
C1267 C67 1.498 . S
C1279 C369 1.506 . S
C1306 C437 1.501 . S
C1294 C41 1.490 . S
C1333 C516 1.494 . S
C1321 C95 1.489 . S
C1360 C641 1.512 . S
C1348 C113 1.502 . S
C1375 C106 1.486 . S
C1387 C701 1.480 . S
C1414 C809 1.511 . S
C1402 C86 1.507 . S
C1429 C104 1.492 . S
C1441 C905 1.489 . S
C1468 C965 1.510 . S
C1456 C88 1.512 . S
C1483 C94 1.511 . S
C1495 C868 1.513 . S
C1522 C985 1.494 . S
C1510 C112 1.498 . S
C1537 C70 1.493 . S
C1549 C1053 1.487 . S
C1564 C40 1.506 . S
C1576 C1044 1.511 . S
C1591 C49 1.502 . S
C1603 C1073 1.502 . S
C1618 C59 1.514 . S
C1630 C1081 1.507 . S
C1645 C34 1.489 . S
C1657 C465 1.487 . S
C1672 C133 1.493 . S
C1684 C428 1.492 . S
C1711 C164 1.507 . S
C1699 C139 1.514 . S
C1738 C261 1.505 . S
C1726 C77 1.504 . S
C1753 C43 1.499 . S
C1765 C525 1.493 . S
C1792 C817 1.501 . S
C1780 C103 1.487 . S
C1819 C545 1.521 . S
C1807 C85 1.515 . S
C1846 C729 1.489 . S
C1834 C115 1.481 . S
C1873 C721 1.507 . S
C1861 C131 1.499 . S
C1888 C142 1.498 . S
C1900 C789 1.494 . S
C1915 C76 1.500 . S
C1927 C553 1.504 . S
C1954 C604 1.504 . S
C1942 C122 1.497 . S
C1969 C32 1.496 . S
C1981 C349 1.491 . S
C2008 C457 1.513 . S
C1996 C5 1.502 . S
C2035 C173 1.481 . S
C2023 C16 1.481 . S
C2062 C289 1.511 . S
C2050 C23 1.506 . S
C2077 C14 1.492 . S
C2089 C993 1.490 . S
C2104 C25 1.505 . S
C2116 C877 1.512 . S
C2131 C31 1.512 . S
C2143 C956 1.512 . S
C2158 C4 1.492 . S
C2170 C897 1.494 . S
C2197 C1141 1.489 . S
C2185 C79 1.490 . S
C2224 C1132 1.504 . S
C2212 C121 1.506 . S
C2251 C1161 1.502 . S
C2239 C130 1.502 . S
C2266 C140 1.514 . S
C2278 C1169 1.507 . S
C2293 C97 1.489 . S
C2305 C633 1.487 . S
C2332 C613 1.492 . S
C2320 C52 1.494 . S
C2359 C692 1.508 . S
C2347 C58 1.514 . S
C2386 C780 1.506 . S
C2374 C68 1.508 . S
C2401 C124 1.496 . S
C2413 C340 1.495 . S
C2440 C281 1.498 . S
C2428 C13 1.496 . S
C2455 C22 1.515 . S
C2467 C377 1.520 . S
C2494 C201 1.494 . S
C2482 C7 1.486 . S
