# Generated by pormake.
# Topology eea, (3,6)-cn, num edge types: 1
# Building blocks:
#     Node 0, Type 0, BuildingBlock: BELTOD_clean_linker_0, # of connection points: 3
#     Node 1, Type 0, BuildingBlock: BELTOD_clean_linker_0, # of connection points: 3
#     Node 2, Type 0, BuildingBlock: BELTOD_clean_linker_0, # of connection points: 3
#     Node 3, Type 0, BuildingBlock: BELTOD_clean_linker_0, # of connection points: 3
#     Node 4, Type 0, BuildingBlock: BELTOD_clean_linker_0, # of connection points: 3
#     Node 5, Type 0, BuildingBlock: BELTOD_clean_linker_0, # of connection points: 3
#     Node 6, Type 0, BuildingBlock: BELTOD_clean_linker_0, # of connection points: 3
#     Node 7, Type 0, BuildingBlock: BELTOD_clean_linker_0, # of connection points: 3
#     Node 8, Type 0, BuildingBlock: BELTOD_clean_linker_0, # of connection points: 3
#     Node 9, Type 0, BuildingBlock: BELTOD_clean_linker_0, # of connection points: 3
#     Node 10, Type 0, BuildingBlock: BELTOD_clean_linker_0, # of connection points: 3
#     Node 11, Type 0, BuildingBlock: BELTOD_clean_linker_0, # of connection points: 3
#     Node 12, Type 0, BuildingBlock: BELTOD_clean_linker_0, # of connection points: 3
#     Node 13, Type 0, BuildingBlock: BELTOD_clean_linker_0, # of connection points: 3
#     Node 14, Type 0, BuildingBlock: BELTOD_clean_linker_0, # of connection points: 3
#     Node 15, Type 0, BuildingBlock: BELTOD_clean_linker_0, # of connection points: 3
#     Node 16, Type 0, BuildingBlock: BELTOD_clean_linker_0, # of connection points: 3
#     Node 17, Type 0, BuildingBlock: BELTOD_clean_linker_0, # of connection points: 3
#     Node 18, Type 1, BuildingBlock: KUMJIN_clean_sbu_0, # of connection points: 6
#     Node 19, Type 1, BuildingBlock: KUMJIN_clean_sbu_0, # of connection points: 6
#     Node 20, Type 1, BuildingBlock: KUMJIN_clean_sbu_0, # of connection points: 6
#     Node 21, Type 1, BuildingBlock: KUMJIN_clean_sbu_0, # of connection points: 6
#     Node 22, Type 1, BuildingBlock: KUMJIN_clean_sbu_0, # of connection points: 6
#     Node 23, Type 1, BuildingBlock: KUMJIN_clean_sbu_0, # of connection points: 6
#     Node 24, Type 1, BuildingBlock: KUMJIN_clean_sbu_0, # of connection points: 6
#     Node 25, Type 1, BuildingBlock: KUMJIN_clean_sbu_0, # of connection points: 6
#     Node 26, Type 1, BuildingBlock: KUMJIN_clean_sbu_0, # of connection points: 6
#     Edge 27, Type (0, 1), BuildingBlock: AJUNOK_clean_linker_0, # of connection points: 2
#     Edge 28, Type (0, 1), BuildingBlock: AJUNOK_clean_linker_0, # of connection points: 2
#     Edge 29, Type (0, 1), BuildingBlock: AJUNOK_clean_linker_0, # of connection points: 2
#     Edge 30, Type (0, 1), BuildingBlock: AJUNOK_clean_linker_0, # of connection points: 2
#     Edge 31, Type (0, 1), BuildingBlock: AJUNOK_clean_linker_0, # of connection points: 2
#     Edge 32, Type (0, 1), BuildingBlock: AJUNOK_clean_linker_0, # of connection points: 2
#     Edge 33, Type (0, 1), BuildingBlock: AJUNOK_clean_linker_0, # of connection points: 2
#     Edge 34, Type (0, 1), BuildingBlock: AJUNOK_clean_linker_0, # of connection points: 2
#     Edge 35, Type (0, 1), BuildingBlock: AJUNOK_clean_linker_0, # of connection points: 2
#     Edge 36, Type (0, 1), BuildingBlock: AJUNOK_clean_linker_0, # of connection points: 2
#     Edge 37, Type (0, 1), BuildingBlock: AJUNOK_clean_linker_0, # of connection points: 2
#     Edge 38, Type (0, 1), BuildingBlock: AJUNOK_clean_linker_0, # of connection points: 2
#     Edge 39, Type (0, 1), BuildingBlock: AJUNOK_clean_linker_0, # of connection points: 2
#     Edge 40, Type (0, 1), BuildingBlock: AJUNOK_clean_linker_0, # of connection points: 2
#     Edge 41, Type (0, 1), BuildingBlock: AJUNOK_clean_linker_0, # of connection points: 2
#     Edge 42, Type (0, 1), BuildingBlock: AJUNOK_clean_linker_0, # of connection points: 2
#     Edge 43, Type (0, 1), BuildingBlock: AJUNOK_clean_linker_0, # of connection points: 2
#     Edge 44, Type (0, 1), BuildingBlock: AJUNOK_clean_linker_0, # of connection points: 2
#     Edge 45, Type (0, 1), BuildingBlock: AJUNOK_clean_linker_0, # of connection points: 2
#     Edge 46, Type (0, 1), BuildingBlock: AJUNOK_clean_linker_0, # of connection points: 2
#     Edge 47, Type (0, 1), BuildingBlock: AJUNOK_clean_linker_0, # of connection points: 2
#     Edge 48, Type (0, 1), BuildingBlock: AJUNOK_clean_linker_0, # of connection points: 2
#     Edge 49, Type (0, 1), BuildingBlock: AJUNOK_clean_linker_0, # of connection points: 2
#     Edge 50, Type (0, 1), BuildingBlock: AJUNOK_clean_linker_0, # of connection points: 2
#     Edge 51, Type (0, 1), BuildingBlock: AJUNOK_clean_linker_0, # of connection points: 2
#     Edge 52, Type (0, 1), BuildingBlock: AJUNOK_clean_linker_0, # of connection points: 2
#     Edge 53, Type (0, 1), BuildingBlock: AJUNOK_clean_linker_0, # of connection points: 2
#     Edge 54, Type (0, 1), BuildingBlock: AJUNOK_clean_linker_0, # of connection points: 2
#     Edge 55, Type (0, 1), BuildingBlock: AJUNOK_clean_linker_0, # of connection points: 2
#     Edge 56, Type (0, 1), BuildingBlock: AJUNOK_clean_linker_0, # of connection points: 2
#     Edge 57, Type (0, 1), BuildingBlock: AJUNOK_clean_linker_0, # of connection points: 2
#     Edge 58, Type (0, 1), BuildingBlock: AJUNOK_clean_linker_0, # of connection points: 2
#     Edge 59, Type (0, 1), BuildingBlock: AJUNOK_clean_linker_0, # of connection points: 2
#     Edge 60, Type (0, 1), BuildingBlock: AJUNOK_clean_linker_0, # of connection points: 2
#     Edge 61, Type (0, 1), BuildingBlock: AJUNOK_clean_linker_0, # of connection points: 2
#     Edge 62, Type (0, 1), BuildingBlock: AJUNOK_clean_linker_0, # of connection points: 2
#     Edge 63, Type (0, 1), BuildingBlock: AJUNOK_clean_linker_0, # of connection points: 2
#     Edge 64, Type (0, 1), BuildingBlock: AJUNOK_clean_linker_0, # of connection points: 2
#     Edge 65, Type (0, 1), BuildingBlock: AJUNOK_clean_linker_0, # of connection points: 2
#     Edge 66, Type (0, 1), BuildingBlock: AJUNOK_clean_linker_0, # of connection points: 2
#     Edge 67, Type (0, 1), BuildingBlock: AJUNOK_clean_linker_0, # of connection points: 2
#     Edge 68, Type (0, 1), BuildingBlock: AJUNOK_clean_linker_0, # of connection points: 2
#     Edge 69, Type (0, 1), BuildingBlock: AJUNOK_clean_linker_0, # of connection points: 2
#     Edge 70, Type (0, 1), BuildingBlock: AJUNOK_clean_linker_0, # of connection points: 2
#     Edge 71, Type (0, 1), BuildingBlock: AJUNOK_clean_linker_0, # of connection points: 2
#     Edge 72, Type (0, 1), BuildingBlock: AJUNOK_clean_linker_0, # of connection points: 2
#     Edge 73, Type (0, 1), BuildingBlock: AJUNOK_clean_linker_0, # of connection points: 2
#     Edge 74, Type (0, 1), BuildingBlock: AJUNOK_clean_linker_0, # of connection points: 2
#     Edge 75, Type (0, 1), BuildingBlock: AJUNOK_clean_linker_0, # of connection points: 2
#     Edge 76, Type (0, 1), BuildingBlock: AJUNOK_clean_linker_0, # of connection points: 2
#     Edge 77, Type (0, 1), BuildingBlock: AJUNOK_clean_linker_0, # of connection points: 2
#     Edge 78, Type (0, 1), BuildingBlock: AJUNOK_clean_linker_0, # of connection points: 2
#     Edge 79, Type (0, 1), BuildingBlock: AJUNOK_clean_linker_0, # of connection points: 2
#     Edge 80, Type (0, 1), BuildingBlock: AJUNOK_clean_linker_0, # of connection points: 2
# Relax obj value: 0.007
# Max RMSD: 0.089
# Mean RMSD: 0.079
data_MOF--net-eea--node1-KUMJIN_clean_sbu_0--node2-BELTOD_clean_linker_0--edge1-AJUNOK_clean_linker_0
_symmetry_space_group_name_H-M    P1
_symmetry_Int_Tables_number       1
_symmetry_cell_setting            triclinic
loop_
_symmetry_equiv_pos_as_xyz
'x, y, z'
_cell_length_a     44.604719
_cell_length_b     45.592583
_cell_length_c     65.787532
_cell_angle_alpha  90.457655
_cell_angle_beta   89.935192
_cell_angle_gamma 120.08797
loop_
_atom_site_label
_atom_site_type_symbol
_atom_site_fract_x
_atom_site_fract_y
_atom_site_fract_z
_atom_type_partial_charge
P0 P 0.29568 0.1533 0.41682 0.0
H1 H 0.31116 0.12444 0.38164 0.0
H2 H 0.28622 0.06658 0.36851 0.0
H3 H 0.20856 0.03105 0.41551 0.0
H4 H 0.23372 0.08944 0.42875 0.0
H5 H 0.3198 0.21136 0.38992 0.0
H6 H 0.29259 0.24244 0.37699 0.0
H7 H 0.19784 0.174 0.40799 0.0
H8 H 0.22537 0.14265 0.42111 0.0
H9 H 0.29931 0.10866 0.44733 0.0
H10 H 0.3001 0.2036 0.44627 0.0
O11 O 0.33682 0.17321 0.40908 0.0
H12 H 0.31485 0.11738 0.4834 0.0
H13 H 0.31585 0.21249 0.48234 0.0
C14 C 0.27495 0.11094 0.40656 0.0
C15 C 0.28874 0.10431 0.38915 0.0
C16 C 0.27441 0.07134 0.38158 0.0
C17 C 0.24585 0.04451 0.3912 0.0
C18 C 0.23066 0.05143 0.40791 0.0
C19 C 0.24514 0.08459 0.41554 0.0
C20 C 0.27469 0.17494 0.40667 0.0
C21 C 0.29316 0.20282 0.39393 0.0
C22 C 0.2776 0.22054 0.38649 0.0
C23 C 0.24328 0.21061 0.39161 0.0
C24 C 0.22432 0.18196 0.4038 0.0
C25 C 0.24004 0.16426 0.41136 0.0
C26 C 0.29756 0.15501 0.4442 0.0
C27 C 0.30146 0.13072 0.45502 0.0
C28 C 0.31041 0.13575 0.47565 0.0
C29 C 0.31627 0.16549 0.4857 0.0
C30 C 0.31127 0.18925 0.47499 0.0
C31 C 0.30204 0.18406 0.45441 0.0
P32 P 0.92127 0.10776 0.43671 0.0
H33 H 0.91121 0.04309 0.42179 0.0
H34 H 0.86595 0.99726 0.40181 0.0
H35 H 0.81205 0.05347 0.39686 0.0
H36 H 0.85706 0.09908 0.41783 0.0
H37 H 0.99523 0.15405 0.44085 0.0
H38 H 0.03773 0.2008 0.42032 0.0
H39 H 0.95664 0.18828 0.37928 0.0
H40 H 0.91385 0.14108 0.39996 0.0
H41 H 0.91233 0.0904 0.47971 0.0
H42 H 0.88938 0.15089 0.43947 0.0
O43 O 0.94417 0.09173 0.44696 0.0
H44 H 0.88687 0.10508 0.50806 0.0
H45 H 0.86289 0.16501 0.46798 0.0
C46 C 0.88762 0.07462 0.42137 0.0
C47 C 0.88973 0.04574 0.4165 0.0
C48 C 0.86393 0.01959 0.40485 0.0
C49 C 0.83576 0.02204 0.39737 0.0
C50 C 0.8335 0.05092 0.40236 0.0
C51 C 0.85928 0.07705 0.41427 0.0
C52 C 0.95139 0.14365 0.42181 0.0
C53 C 0.98645 0.16119 0.42743 0.0
C54 C 0.01079 0.18783 0.41563 0.0
C55 C 1.00055 0.19792 0.39809 0.0
C56 C 0.96523 0.18098 0.39273 0.0
C57 C 0.94079 0.15399 0.40452 0.0
C58 C 0.90303 0.11976 0.45746 0.0
C59 C 0.90196 0.10698 0.47694 0.0
C60 C 0.88739 0.11534 0.49318 0.0
C61 C 0.87294 0.13612 0.49018 0.0
C62 C 0.87372 0.14876 0.47063 0.0
C63 C 0.88885 0.14077 0.45438 0.0
P64 P 0.87469 0.73936 0.41167 0.0
H65 H 0.82813 0.71815 0.37658 0.0
H66 H 0.79006 0.73719 0.3628 0.0
H67 H 0.82879 0.81807 0.40739 0.0
H68 H 0.86769 0.79927 0.42089 0.0
H69 H 0.90739 0.73152 0.3753 0.0
H70 H 0.96789 0.75515 0.36506 0.0
H71 H 1.00092 0.81874 0.41875 0.0
H72 H 0.94004 0.79519 0.42888 0.0
H73 H 0.82462 0.74063 0.44059 0.0
H74 H 0.91312 0.72649 0.44289 0.0
O75 O 0.85717 0.69931 0.40351 0.0
H76 H 0.81316 0.72576 0.4764 0.0
H77 H 0.90084 0.71002 0.47847 0.0
C78 C 0.85022 0.7568 0.40011 0.0
C79 C 0.82879 0.7402 0.38333 0.0
C80 C 0.80692 0.75107 0.37544 0.0
C81 C 0.80615 0.77899 0.38406 0.0
C82 C 0.82898 0.79669 0.40024 0.0
C83 C 0.85106 0.78584 0.40808 0.0
C84 C 0.91923 0.76094 0.40313 0.0
C85 C 0.92759 0.75071 0.38484 0.0
C86 C 0.96219 0.76411 0.37902 0.0
C87 C 0.98918 0.78818 0.39135 0.0
C88 C 0.98066 0.80002 0.40903 0.0
C89 C 0.94592 0.78651 0.41487 0.0
C90 C 0.87062 0.73605 0.4391 0.0
C91 C 0.84237 0.73549 0.4489 0.0
C92 C 0.83551 0.72647 0.4694 0.0
C93 C 0.85626 0.71701 0.4805 0.0
C94 C 0.88492 0.71817 0.4707 0.0
C95 C 0.89195 0.72754 0.45025 0.0
P96 P 0.12692 0.25876 0.61552 0.0
H97 H 0.10169 0.27379 0.65274 0.0
H98 H 0.04378 0.25486 0.66623 0.0
H99 H 0.99878 0.18641 0.61517 0.0
H100 H 0.05718 0.2056 0.60162 0.0
H101 H 0.1724 0.27129 0.65033 0.0
H102 H 0.20654 0.24605 0.66143 0.0
H103 H 0.16175 0.17133 0.61329 0.0
H104 H 0.12679 0.19638 0.60251 0.0
H105 H 0.08879 0.27555 0.58589 0.0
H106 H 0.17351 0.2555 0.585 0.0
O107 O 0.14987 0.29857 0.62416 0.0
H108 H 0.10153 0.29508 0.55067 0.0
H109 H 0.18521 0.27334 0.5497 0.0
C110 C 0.08377 0.24169 0.62591 0.0
C111 C 0.07944 0.25461 0.64443 0.0
C112 C 0.04632 0.24375 0.65218 0.0
C113 C 0.01671 0.21925 0.64175 0.0
C114 C 0.02112 0.20512 0.62364 0.0
C115 C 0.05443 0.21622 0.6158 0.0
C116 C 0.14772 0.2363 0.62522 0.0
C117 C 0.16954 0.24924 0.64226 0.0
C118 C 0.18913 0.23479 0.64861 0.0
C119 C 0.18716 0.20686 0.63817 0.0
C120 C 0.16368 0.19264 0.6218 0.0
C121 C 0.14387 0.20708 0.61551 0.0
C122 C 0.12948 0.26306 0.58809 0.0
C123 C 0.10921 0.274 0.57792 0.0
C124 C 0.11662 0.28531 0.55776 0.0
C125 C 0.14478 0.28633 0.54743 0.0
C126 C 0.16381 0.27361 0.55731 0.0
C127 C 0.15663 0.26268 0.57748 0.0
P128 P 0.82193 0.90503 0.5848 0.0
H129 H 0.87239 0.96945 0.6033 0.0
H130 H 0.86683 0.01151 0.62353 0.0
H131 H 0.75543 0.94783 0.62233 0.0
H132 H 0.76107 0.90632 0.60144 0.0
H133 H 0.86588 0.87476 0.58818 0.0
H134 H 0.86305 0.82961 0.60929 0.0
H135 H 0.76754 0.81374 0.63568 0.0
H136 H 0.77091 0.8599 0.61499 0.0
H137 H 0.82957 0.92255 0.54183 0.0
H138 H 0.74681 0.8558 0.58179 0.0
O139 O 0.86169 0.9253 0.57486 0.0
H140 H 0.78846 0.90523 0.51359 0.0
H141 H 0.70543 0.83946 0.55356 0.0
C142 C 0.81715 0.93501 0.60045 0.0
C143 C 0.84672 0.96455 0.60723 0.0
C144 C 0.84353 0.9885 0.61894 0.0
C145 C 0.81067 0.98319 0.62429 0.0
C146 C 0.78106 0.95303 0.61802 0.0
C147 C 0.78429 0.92916 0.60615 0.0
C148 C 0.81858 0.87077 0.59996 0.0
C149 C 0.84433 0.86178 0.59851 0.0
C150 C 0.84278 0.83603 0.61059 0.0
C151 C 0.81512 0.8184 0.62404 0.0
C152 C 0.78903 0.827 0.62532 0.0
C153 C 0.79091 0.85325 0.61346 0.0
C154 C 0.7914 0.89036 0.56398 0.0
C155 C 0.80266 0.90405 0.54457 0.0
C156 C 0.7792 0.89424 0.52843 0.0
C157 C 0.74395 0.87116 0.53153 0.0
C158 C 0.73256 0.85743 0.55092 0.0
C159 C 0.75621 0.86676 0.56701 0.0
P160 P 0.13512 0.845 0.60965 0.0
H161 H 0.19343 0.87862 0.63806 0.0
H162 H 0.22642 0.93634 0.65117 0.0
H163 H 0.16 0.96302 0.6181 0.0
H164 H 0.12774 0.90505 0.60422 0.0
H165 H 0.08451 0.77283 0.60833 0.0
H166 H 0.02738 0.73837 0.62273 0.0
H167 H 0.03575 0.82725 0.65228 0.0
H168 H 0.09135 0.86224 0.63569 0.0
H169 H 0.18377 0.89578 0.58105 0.0
H170 H 0.09371 0.79578 0.57712 0.0
O171 O 0.15614 0.82519 0.61699 0.0
H172 H 0.19571 0.89229 0.54524 0.0
H173 H 0.10717 0.7911 0.54195 0.0
C174 C 0.15799 0.88745 0.6202 0.0
C175 C 0.18573 0.89671 0.63366 0.0
C176 C 0.20443 0.92976 0.64135 0.0
C177 C 0.19544 0.95417 0.63602 0.0
C178 C 0.16752 0.94478 0.62254 0.0
C179 C 0.14899 0.91169 0.61467 0.0
C180 C 0.09178 0.82049 0.61995 0.0
C181 C 0.07346 0.78528 0.61707 0.0
C182 C 0.04098 0.76535 0.62589 0.0
C183 C 0.02644 0.77983 0.63868 0.0
C184 C 0.04529 0.81516 0.64201 0.0
C185 C 0.07745 0.8353 0.63256 0.0
C186 C 0.1377 0.84607 0.5821 0.0
C187 C 0.16609 0.87326 0.57252 0.0
C188 C 0.17335 0.87099 0.55203 0.0
C189 C 0.15313 0.84093 0.54082 0.0
C190 C 0.12345 0.81462 0.55007 0.0
C191 C 0.11581 0.81722 0.57043 0.0
P192 P 0.95161 0.46934 0.74695 0.0
H193 H 0.9693 0.4348 0.71577 0.0
H194 H 0.9403 0.37622 0.70342 0.0
H195 H 0.85626 0.35071 0.74533 0.0
H196 H 0.88599 0.40928 0.75807 0.0
H197 H 0.97557 0.52335 0.71673 0.0
H198 H 0.94917 0.55458 0.70257 0.0
H199 H 0.856 0.49223 0.73678 0.0
H200 H 0.88285 0.46156 0.75127 0.0
H201 H 0.95223 0.42664 0.77991 0.0
H202 H 0.95069 0.52003 0.77396 0.0
O203 O 0.99326 0.48837 0.74027 0.0
H204 H 0.95519 0.43346 0.817 0.0
H205 H 0.95418 0.52718 0.8108 0.0
C206 C 0.93013 0.42613 0.73813 0.0
C207 C 0.9448 0.41656 0.72244 0.0
C208 C 0.92807 0.38316 0.71527 0.0
C209 C 0.89622 0.35883 0.72358 0.0
C210 C 0.88114 0.36874 0.73897 0.0
C211 C 0.898 0.40219 0.74617 0.0
C212 C 0.93126 0.49042 0.73521 0.0
C213 C 0.94943 0.51629 0.72113 0.0
C214 C 0.93427 0.534 0.71297 0.0
C215 C 0.90074 0.52608 0.71879 0.0
C216 C 0.88214 0.49926 0.73233 0.0
C217 C 0.89734 0.4816 0.7405 0.0
C218 C 0.95011 0.47226 0.7742 0.0
C219 C 0.9518 0.44822 0.78658 0.0
C220 C 0.9537 0.45222 0.80774 0.0
C221 C 0.9542 0.48049 0.81681 0.0
C222 C 0.95269 0.50458 0.8043 0.0
C223 C 0.95082 0.50056 0.78321 0.0
P224 P 0.57281 0.43338 0.76335 0.0
H225 H 0.57071 0.40239 0.72423 0.0
H226 H 0.52372 0.35606 0.70506 0.0
H227 H 0.44953 0.35583 0.74743 0.0
H228 H 0.49669 0.40081 0.76707 0.0
H229 H 0.64733 0.47221 0.7688 0.0
H230 H 0.69385 0.51922 0.75031 0.0
H231 H 0.61866 0.52167 0.71018 0.0
H232 H 0.57172 0.47426 0.72896 0.0
H233 H 0.58109 0.4269 0.8069 0.0
H234 H 0.53568 0.47108 0.76886 0.0
O235 O 0.5902 0.4104 0.77116 0.0
H236 H 0.56206 0.44415 0.83718 0.0
H237 H 0.51628 0.48837 0.79942 0.0
C238 C 0.53729 0.40552 0.74692 0.0
C239 C 0.54423 0.39296 0.72908 0.0
C240 C 0.51727 0.36655 0.71805 0.0
C241 C 0.48275 0.35234 0.7246 0.0
C242 C 0.47583 0.36611 0.74201 0.0
C243 C 0.50285 0.39218 0.75317 0.0
C244 C 0.60618 0.46924 0.74995 0.0
C245 C 0.64075 0.48267 0.75597 0.0
C246 C 0.66734 0.50943 0.74533 0.0
C247 C 0.65988 0.52348 0.72849 0.0
C248 C 0.62508 0.51097 0.72296 0.0
C249 C 0.59835 0.48394 0.73363 0.0
C250 C 0.55954 0.44744 0.78558 0.0
C251 C 0.56711 0.44043 0.80502 0.0
C252 C 0.5564 0.45047 0.82237 0.0
C253 C 0.53788 0.46776 0.82065 0.0
C254 C 0.53048 0.47501 0.80116 0.0
C255 C 0.54157 0.46523 0.78374 0.0
P256 P 0.52325 0.06008 0.74405 0.0
H257 H 0.49989 0.0609 0.70288 0.0
H258 H 0.46299 0.08089 0.6884 0.0
H259 H 0.4601 0.12343 0.74682 0.0
H260 H 0.4998 0.10632 0.76055 0.0
H261 H 0.55005 0.04198 0.70863 0.0
H262 H 0.60834 0.06093 0.696 0.0
H263 H 0.65101 0.13608 0.74398 0.0
H264 H 0.59208 0.11728 0.75644 0.0
H265 H 0.46826 0.04816 0.77294 0.0
H266 H 0.56955 0.05827 0.77553 0.0
O267 O 0.50099 0.01999 0.73583 0.0
H268 H 0.45997 0.0343 0.80889 0.0
H269 H 0.56054 0.0423 0.81128 0.0
C270 C 0.50156 0.08088 0.73304 0.0
C271 C 0.49175 0.07502 0.71249 0.0
C272 C 0.47009 0.08598 0.70431 0.0
C273 C 0.45702 0.10237 0.71664 0.0
C274 C 0.46909 0.11042 0.73687 0.0
C275 C 0.49156 0.10024 0.74487 0.0
C276 C 0.56668 0.07751 0.73388 0.0
C277 C 0.57183 0.06269 0.71643 0.0
C278 C 0.60523 0.07356 0.70917 0.0
C279 C 0.63438 0.0998 0.71906 0.0
C280 C 0.6291 0.11596 0.73591 0.0
C281 C 0.59547 0.10505 0.74317 0.0
C282 C 0.52046 0.05646 0.77158 0.0
C283 C 0.48941 0.04882 0.78137 0.0
C284 C 0.48437 0.04015 0.80196 0.0
C285 C 0.50976 0.03761 0.81323 0.0
C286 C 0.54089 0.04519 0.80341 0.0
C287 C 0.5461 0.05439 0.78282 0.0
P288 P 0.80615 0.59455 0.94808 0.0
H289 H 0.7828 0.59834 0.98886 0.0
H290 H 0.72536 0.57968 1.00326 0.0
H291 H 0.67782 0.52688 0.94732 0.0
H292 H 0.73555 0.54596 0.93279 0.0
H293 H 0.8742 0.60966 0.93425 0.0
H294 H 0.91629 0.59475 0.94659 0.0
H295 H 0.84404 0.53159 0.99255 0.0
H296 H 0.80113 0.54567 0.97952 0.0
H297 H 0.79026 0.63696 0.92253 0.0
H298 H 0.81864 0.56036 0.91313 0.0
O299 O 0.826 0.63431 0.95695 0.0
H300 H 0.79874 0.65061 0.88631 0.0
H301 H 0.8275 0.57419 0.87685 0.0
C302 C 0.76355 0.57394 0.95965 0.0
C303 C 0.76005 0.58223 0.97978 0.0
C304 C 0.72724 0.57161 0.98801 0.0
C305 C 0.69719 0.55212 0.97634 0.0
C306 C 0.70059 0.54183 0.95665 0.0
C307 C 0.73356 0.55278 0.94833 0.0
C308 C 0.83411 0.57825 0.9556 0.0
C309 C 0.86693 0.5919 0.94665 0.0
C310 C 0.89127 0.5838 0.95396 0.0
C311 C 0.8838 0.56251 0.97082 0.0
C312 C 0.85056 0.54807 0.97953 0.0
C313 C 0.82599 0.55606 0.97205 0.0
C314 C 0.80469 0.59827 0.9207 0.0
C315 C 0.79777 0.62267 0.91262 0.0
C316 C 0.80257 0.63044 0.89188 0.0
C317 C 0.81453 0.61401 0.87878 0.0
C318 C 0.81903 0.58782 0.88665 0.0
C319 C 0.81388 0.57984 0.9074 0.0
P320 P 0.46607 0.22969 0.91482 0.0
H321 H 0.52426 0.29758 0.92332 0.0
H322 H 0.52997 0.3446 0.9441 0.0
H323 H 0.42258 0.28467 0.96173 0.0
H324 H 0.41664 0.23794 0.94003 0.0
H325 H 0.46508 0.16718 0.90441 0.0
H326 H 0.46543 0.12271 0.92485 0.0
H327 H 0.46172 0.17351 0.97964 0.0
H328 H 0.46164 0.21799 0.95924 0.0
H329 H 0.45173 0.26678 0.88463 0.0
H330 H 0.40206 0.16407 0.90653 0.0
O331 O 0.50176 0.24358 0.90077 0.0
H332 H 0.407 0.24967 0.85846 0.0
H333 H 0.35735 0.14681 0.88024 0.0
C334 C 0.47002 0.26431 0.93017 0.0
C335 C 0.50189 0.2945 0.9316 0.0
C336 C 0.50523 0.32127 0.94369 0.0
C337 C 0.47691 0.31807 0.95492 0.0
C338 C 0.44486 0.28782 0.95329 0.0
C339 C 0.44145 0.26115 0.94096 0.0
C340 C 0.46286 0.19568 0.93021 0.0
C341 C 0.46381 0.16847 0.92081 0.0
C342 C 0.46386 0.14304 0.93249 0.0
C343 C 0.46318 0.14451 0.95382 0.0
C344 C 0.46214 0.17175 0.96322 0.0
C345 C 0.4619 0.1971 0.95151 0.0
C346 C 0.43039 0.21673 0.89744 0.0
C347 C 0.43092 0.24065 0.88398 0.0
C348 C 0.40526 0.2309 0.86912 0.0
C349 C 0.3786 0.19696 0.86743 0.0
C350 C 0.37767 0.17313 0.88123 0.0
C351 C 0.40327 0.18299 0.89622 0.0
P352 P 0.79624 0.18996 0.94946 0.0
H353 H 0.86797 0.22848 0.96308 0.0
H354 H 0.90503 0.28721 0.97376 0.0
H355 H 0.82032 0.30616 0.9649 0.0
H356 H 0.78271 0.24652 0.95462 0.0
H357 H 0.7733 0.16841 0.99065 0.0
H358 H 0.71586 0.13363 1.0057 0.0
H359 H 0.66829 0.13341 0.94861 0.0
H360 H 0.72595 0.16828 0.93351 0.0
H361 H 0.83119 0.24098 0.9174 0.0
H362 H 0.76319 0.13282 0.92118 0.0
O363 O 0.81476 0.1682 0.95761 0.0
H364 H 0.8402 0.23532 0.88132 0.0
H365 H 0.77255 0.12699 0.88505 0.0
C366 C 0.82247 0.23305 0.95832 0.0
C367 C 0.85715 0.24507 0.96359 0.0
C368 C 0.87847 0.2788 0.96948 0.0
C369 C 0.86573 0.30142 0.96987 0.0
C370 C 0.8308 0.28926 0.96475 0.0
C371 C 0.80935 0.2553 0.95889 0.0
C372 C 0.75384 0.17026 0.96087 0.0
C373 C 0.75052 0.16139 0.98145 0.0
C374 C 0.71778 0.14161 0.99005 0.0
C375 C 0.68779 0.13065 0.97824 0.0
C376 C 0.69109 0.14165 0.95802 0.0
C377 C 0.72398 0.16134 0.94936 0.0
C378 C 0.79617 0.1873 0.92203 0.0
C379 C 0.81743 0.21608 0.91043 0.0
C380 C 0.82277 0.21283 0.88976 0.0
C381 C 0.80704 0.18074 0.88029 0.0
C382 C 0.78452 0.15213 0.89176 0.0
C383 C 0.7792 0.15542 0.91244 0.0
P384 P 0.62503 0.80959 0.07404 0.0
H385 H 0.63946 0.77902 0.03908 0.0
H386 H 0.61328 0.7206 0.02677 0.0
H387 H 0.53361 0.68899 0.07238 0.0
H388 H 0.55994 0.74779 0.08476 0.0
H389 H 0.65403 0.87778 0.05786 0.0
H390 H 0.62817 0.9114 0.04737 0.0
H391 H 0.52685 0.82918 0.06327 0.0
H392 H 0.5529 0.79526 0.07365 0.0
H393 H 0.6192 0.75782 0.10276 0.0
H394 H 0.64225 0.86165 0.10509 0.0
O395 O 0.66555 0.82862 0.06525 0.0
H396 H 0.63176 0.7601 0.1389 0.0
H397 H 0.65742 0.86492 0.14099 0.0
C398 C 0.60215 0.76756 0.06318 0.0
C399 C 0.61617 0.75969 0.04635 0.0
C400 C 0.60122 0.72635 0.0393 0.0
C401 C 0.57188 0.70039 0.04891 0.0
C402 C 0.55631 0.70865 0.0648 0.0
C403 C 0.57136 0.74213 0.07188 0.0
C404 C 0.60535 0.83385 0.06631 0.0
C405 C 0.62624 0.86681 0.05904 0.0
C406 C 0.61148 0.88612 0.05317 0.0
C407 C 0.57557 0.87292 0.05466 0.0
C408 C 0.55459 0.83983 0.0619 0.0
C409 C 0.56946 0.8205 0.06784 0.0
C410 C 0.62849 0.80919 0.10131 0.0
C411 C 0.62599 0.78086 0.11112 0.0
C412 C 0.63372 0.78235 0.1318 0.0
C413 C 0.64526 0.81257 0.14298 0.0
C414 C 0.6475 0.84088 0.1331 0.0
C415 C 0.63904 0.83912 0.11249 0.0
P416 P 0.25 0.775 0.10578 0.0
H417 H 0.23357 0.70503 0.09916 0.0
H418 H 0.18752 0.65742 0.08037 0.0
H419 H 0.14229 0.71872 0.0649 0.0
H420 H 0.18889 0.76684 0.08379 0.0
H421 H 0.28756 0.84904 0.11113 0.0
H422 H 0.32914 0.89488 0.08951 0.0
H423 H 0.31029 0.82267 0.04142 0.0
H424 H 0.26842 0.77681 0.06305 0.0
H425 H 0.24969 0.76061 0.1489 0.0
H426 H 0.21322 0.81316 0.11106 0.0
O427 O 0.27782 0.76323 0.1139 0.0
H428 H 0.22723 0.77471 0.17893 0.0
H429 H 0.1897 0.82668 0.14123 0.0
C430 C 0.21479 0.73957 0.09276 0.0
C431 C 0.21381 0.70839 0.09181 0.0
C432 C 0.18752 0.68117 0.08104 0.0
C433 C 0.16166 0.6846 0.07104 0.0
C434 C 0.16199 0.71553 0.0725 0.0
C435 C 0.18855 0.74294 0.08322 0.0
C436 C 0.27418 0.80956 0.08855 0.0
C437 C 0.2914 0.84313 0.09572 0.0
C438 C 0.31528 0.86932 0.08337 0.0
C439 C 0.32294 0.86226 0.06382 0.0
C440 C 0.30492 0.82876 0.05645 0.0
C441 C 0.2808 0.80263 0.06874 0.0
C442 C 0.23353 0.78622 0.12776 0.0
C443 C 0.2368 0.77519 0.14703 0.0
C444 C 0.22359 0.78293 0.16421 0.0
C445 C 0.20631 0.80145 0.16243 0.0
C446 C 0.20296 0.81243 0.14306 0.0
C447 C 0.21629 0.80467 0.12583 0.0
P448 P 0.20849 0.40178 0.07986 0.0
H449 H 0.16168 0.38013 0.04494 0.0
H450 H 0.12326 0.39873 0.03112 0.0
H451 H 0.16195 0.48004 0.07544 0.0
H452 H 0.20136 0.46183 0.08884 0.0
H453 H 0.23224 0.39147 0.04081 0.0
H454 H 0.28969 0.40959 0.02675 0.0
H455 H 0.33701 0.47163 0.08001 0.0
H456 H 0.27912 0.45355 0.09405 0.0
H457 H 0.16163 0.40641 0.10976 0.0
H458 H 0.24935 0.39097 0.11069 0.0
O459 O 0.18857 0.3608 0.07337 0.0
H460 H 0.15242 0.39365 0.14586 0.0
H461 H 0.23932 0.37669 0.14671 0.0
C462 C 0.18373 0.41898 0.06834 0.0
C463 C 0.16223 0.40217 0.05162 0.0
C464 C 0.14017 0.4128 0.04371 0.0
C465 C 0.13923 0.44069 0.05225 0.0
C466 C 0.16222 0.45867 0.06833 0.0
C467 C 0.18456 0.44811 0.07615 0.0
C468 C 0.25133 0.42039 0.06874 0.0
C469 C 0.25492 0.40928 0.04941 0.0
C470 C 0.28775 0.41962 0.04137 0.0
C471 C 0.31781 0.44154 0.05244 0.0
C472 C 0.31426 0.45461 0.07118 0.0
C473 C 0.28122 0.44414 0.07928 0.0
C474 C 0.20724 0.40126 0.10748 0.0
C475 C 0.17986 0.40163 0.11781 0.0
C476 C 0.17421 0.39373 0.13852 0.0
C477 C 0.19528 0.3844 0.14938 0.0
C478 C 0.22317 0.38473 0.13911 0.0
C479 C 0.22898 0.39295 0.11841 0.0
P480 P 0.47238 0.93123 0.28161 0.0
H481 H 0.44931 0.92492 0.32341 0.0
H482 H 0.39253 0.90501 0.33887 0.0
H483 H 0.344 0.87045 0.28007 0.0
H484 H 0.40082 0.88879 0.26484 0.0
H485 H 0.52109 0.95321 0.31563 0.0
H486 H 0.5622 0.93662 0.32746 0.0
H487 H 0.52428 0.85702 0.28211 0.0
H488 H 0.48197 0.87312 0.27065 0.0
H489 H 0.43349 0.94851 0.25303 0.0
H490 H 0.51773 0.9279 0.24979 0.0
O491 O 0.48977 0.97119 0.2899 0.0
H492 H 0.44219 0.96495 0.21736 0.0
H493 H 0.52603 0.94364 0.21405 0.0
C494 C 0.42956 0.90922 0.29286 0.0
C495 C 0.42641 0.91243 0.31387 0.0
C496 C 0.39393 0.90136 0.32268 0.0
C497 C 0.3638 0.88719 0.3106 0.0
C498 C 0.36672 0.88161 0.28978 0.0
C499 C 0.39932 0.89239 0.281 0.0
C500 C 0.49932 0.91529 0.29167 0.0
C501 C 0.52137 0.93208 0.3082 0.0
C502 C 0.54503 0.92265 0.31495 0.0
C503 C 0.54734 0.89627 0.30527 0.0
C504 C 0.52343 0.87775 0.2897 0.0
C505 C 0.4994 0.88704 0.28307 0.0
C506 C 0.47365 0.93512 0.25409 0.0
C507 C 0.45275 0.94587 0.24446 0.0
C508 C 0.45786 0.95545 0.22398 0.0
C509 C 0.48443 0.95506 0.21265 0.0
C510 C 0.5051 0.94393 0.22224 0.0
C511 C 0.49997 0.93437 0.24273 0.0
P512 P 0.14454 0.57825 0.2571 0.0
H513 H 0.20014 0.6417 0.2739 0.0
H514 H 0.20059 0.68541 0.29575 0.0
H515 H 0.08878 0.62979 0.29725 0.0
H516 H 0.08839 0.58597 0.27519 0.0
H517 H 0.12628 0.50927 0.24591 0.0
H518 H 0.12595 0.46344 0.26531 0.0
H519 H 0.14607 0.52251 0.32043 0.0
H520 H 0.14704 0.56839 0.30102 0.0
H521 H 0.15379 0.5955 0.2141 0.0
H522 H 0.06886 0.53489 0.25435 0.0
O523 O 0.18415 0.59354 0.24737 0.0
H524 H 0.11372 0.57876 0.18556 0.0
H525 H 0.02805 0.51968 0.22592 0.0
C526 C 0.14421 0.61083 0.2726 0.0
C527 C 0.17566 0.63889 0.27879 0.0
C528 C 0.17593 0.66371 0.29146 0.0
C529 C 0.14472 0.66076 0.29834 0.0
C530 C 0.11318 0.63265 0.29211 0.0
C531 C 0.11295 0.60769 0.27946 0.0
C532 C 0.13631 0.54209 0.27202 0.0
C533 C 0.12976 0.512 0.26224 0.0
C534 C 0.12958 0.48585 0.27332 0.0
C535 C 0.1364 0.48966 0.29431 0.0
C536 C 0.14124 0.51916 0.30421 0.0
C537 C 0.14149 0.54529 0.29312 0.0
C538 C 0.11429 0.56643 0.23635 0.0
C539 C 0.12641 0.57892 0.21686 0.0
C540 C 0.10335 0.56969 0.20056 0.0
C541 C 0.06755 0.54846 0.20351 0.0
C542 C 0.05546 0.53611 0.22315 0.0
C543 C 0.07869 0.54495 0.23942 0.0
P544 P 0.46921 0.52793 0.28154 0.0
H545 H 0.51618 0.55848 0.31603 0.0
H546 H 0.55107 0.61692 0.32814 0.0
H547 H 0.50615 0.64985 0.28189 0.0
H548 H 0.47116 0.59096 0.26967 0.0
H549 H 0.41782 0.45671 0.27745 0.0
H550 H 0.36157 0.42086 0.29302 0.0
H551 H 0.36922 0.50801 0.3243 0.0
H552 H 0.42513 0.54434 0.30771 0.0
H553 H 0.52795 0.56587 0.25494 0.0
H554 H 0.41991 0.49076 0.2477 0.0
O555 O 0.4902 0.5086 0.2898 0.0
H556 H 0.53777 0.55981 0.21895 0.0
H557 H 0.42987 0.4842 0.21178 0.0
C558 C 0.49156 0.57052 0.29172 0.0
C559 C 0.51359 0.57815 0.30853 0.0
C560 C 0.53352 0.61154 0.31547 0.0
C561 C 0.53139 0.63785 0.3059 0.0
C562 C 0.50808 0.62997 0.28962 0.0
C563 C 0.48826 0.59645 0.28258 0.0
C564 C 0.42556 0.50328 0.29112 0.0
C565 C 0.40715 0.46832 0.2873 0.0
C566 C 0.37524 0.44773 0.29656 0.0
C567 C 0.36138 0.46142 0.31041 0.0
C568 C 0.37934 0.49668 0.31382 0.0
C569 C 0.41128 0.51746 0.30429 0.0
C570 C 0.47324 0.52872 0.25415 0.0
C571 C 0.50614 0.54864 0.24554 0.0
C572 C 0.51178 0.54513 0.22496 0.0
C573 C 0.4847 0.52121 0.21265 0.0
C574 C 0.45133 0.50248 0.22102 0.0
C575 C 0.44563 0.50626 0.2416 0.0
Eu576 Eu 0.4835 0.97472 0.98962 0.0
C577 C 0.55014 0.1065 0.04411 0.0
C578 C 0.61204 0.12829 0.04383 0.0
C579 C 0.58996 0.16713 0.04753 0.0
C580 C 0.57774 0.10091 0.04245 0.0
C581 C 0.55588 0.13961 0.047 0.0
C582 C 0.618 0.16148 0.04595 0.0
C583 C 0.49395 0.11562 0.04999 0.0
N584 N 0.5176 0.07933 0.04369 0.0
C585 C 0.4896 0.08327 0.04718 0.0
C586 C 0.52722 0.14397 0.0497 0.0
Eu587 Eu 0.5121 0.02551 0.03767 0.0
N588 N 0.57104 0.06853 0.04057 0.0
C589 C 0.5974 0.06157 0.04155 0.0
C590 C 0.63927 0.12139 0.04361 0.0
C591 C 0.63187 0.08782 0.04278 0.0
H592 H 0.46378 0.06154 0.04729 0.0
H593 H 0.65268 0.08211 0.04293 0.0
H594 H 0.64416 0.18285 0.04684 0.0
H595 H 0.47165 0.11867 0.05235 0.0
H596 H 0.59209 0.03584 0.04061 0.0
H597 H 0.34299 0.91994 0.99176 0.0
H598 H 0.66599 0.14169 0.04455 0.0
H599 H 0.52855 0.93788 0.97433 0.0
H600 H 0.40401 0.96579 0.99083 0.0
H601 H 0.51906 0.88032 0.96799 0.0
H602 H 0.5949 0.19278 0.04959 0.0
H603 H 0.32861 0.86002 0.99016 0.0
H604 H 0.34913 0.81805 0.98573 0.0
H605 H 0.53053 0.16899 0.05194 0.0
H606 H 0.39712 0.80723 0.97915 0.0
N607 N 0.42414 0.9323 0.98923 0.0
C608 C 0.39813 0.9398 0.98997 0.0
C609 C 0.35546 0.88008 0.9897 0.0
C610 C 0.38217 0.87264 0.98757 0.0
C611 C 0.36347 0.91386 0.99055 0.0
C612 C 0.41668 0.89971 0.98718 0.0
H613 H 0.46051 0.83035 0.97208 0.0
N614 N 0.47612 0.92052 0.98235 0.0
C615 C 0.49762 0.88368 0.97249 0.0
C616 C 0.44356 0.89361 0.98363 0.0
C617 C 0.5029 0.91623 0.97606 0.0
C618 C 0.46455 0.85553 0.97488 0.0
C619 C 0.43688 0.86031 0.98018 0.0
O620 O 0.51062 0.98887 0.96046 0.0
O621 O 0.52474 0.02038 1.00557 0.0
O622 O 0.50536 0.05665 0.01341 0.0
O623 O 0.46474 0.01295 0.99297 0.0
O624 O 0.54116 0.99606 0.98554 0.0
O625 O 0.4597 0.98285 0.96272 0.0
O626 O 0.48556 0.01599 0.06695 0.0
O627 O 0.47127 0.97868 0.02217 0.0
O628 O 0.49818 0.94593 0.0116 0.0
O629 O 0.53244 0.98846 0.03517 0.0
O630 O 0.45416 0.00389 0.04064 0.0
O631 O 0.53223 0.01296 0.0645 0.0
C632 C 0.55118 0.02126 0.99798 0.0
C633 C 0.47643 0.97144 0.93074 0.0
C634 C 0.47785 0.97358 0.89345 0.0
C635 C 0.48517 0.99021 0.91257 0.0
C636 C 0.46166 0.93796 0.89299 0.0
C637 C 0.46006 0.936 0.92974 0.0
C638 C 0.45279 0.91942 0.91096 0.0
C639 C 0.48152 0.04518 0.99889 0.0
C640 C 0.48534 0.9889 0.95066 0.0
C641 C 0.40276 0.83306 0.98151 0.0
C642 C 0.37544 0.83922 0.98524 0.0
C643 C 0.44438 0.97721 0.02953 0.0
C644 C 0.51949 0.02744 0.09672 0.0
C645 C 0.50965 0.00765 0.11449 0.0
C646 C 0.52037 0.02314 0.13384 0.0
C647 C 0.54111 0.05867 0.13499 0.0
C648 C 0.54009 0.06276 0.09833 0.0
C649 C 0.55081 0.07823 0.11738 0.0
C650 C 0.52044 0.95779 0.02702 0.0
C651 C 0.50814 0.01104 0.0766 0.0
H652 H 0.49725 0.01757 0.91337 0.0
H653 H 0.45604 0.92433 0.87865 0.0
H654 H 0.45303 0.92116 0.94346 0.0
H655 H 0.44034 0.89205 0.91033 0.0
H656 H 0.49411 0.98029 0.1132 0.0
H657 H 0.54957 0.07141 0.14958 0.0
H658 H 0.54788 0.07833 0.08486 0.0
H659 H 0.56669 0.10554 0.11852 0.0
Eu660 Eu 0.03369 0.50939 0.98958 0.0
C661 C 0.90133 0.4576 0.04134 0.0
C662 C 0.88674 0.50193 0.03876 0.0
C663 C 0.84112 0.44347 0.04331 0.0
C664 C 0.91153 0.49136 0.0387 0.0
C665 C 0.86613 0.43341 0.04433 0.0
C666 C 0.85141 0.47768 0.04046 0.0
C667 C 0.88343 0.39201 0.05134 0.0
N668 N 0.92617 0.44882 0.04246 0.0
C669 C 0.918 0.41691 0.04816 0.0
C670 C 0.8573 0.40014 0.04906 0.0
Eu671 Eu 0.98396 0.49207 0.03669 0.0
N672 N 0.94589 0.51415 0.03747 0.0
C673 C 0.9574 0.54811 0.03814 0.0
C674 C 0.89831 0.53666 0.03789 0.0
C675 C 0.93383 0.55987 0.03797 0.0
H676 H 0.93812 0.41048 0.04975 0.0
H677 H 0.9431 0.58682 0.03779 0.0
H678 H 0.83195 0.48527 0.0403 0.0
H679 H 0.87696 0.36655 0.05542 0.0
H680 H 0.98478 0.5663 0.03809 0.0
H681 H 0.07163 0.41133 0.99003 0.0
H682 H 0.88011 0.54582 0.0378 0.0
H683 H 0.08008 0.58961 0.97346 0.0
H684 H 0.03098 0.43209 0.99073 0.0
H685 H 0.14041 0.63065 0.96419 0.0
H686 H 0.81388 0.42519 0.04532 0.0
H687 H 0.13435 0.45124 0.9867 0.0
H688 H 0.1824 0.51036 0.98087 0.0
H689 H 0.83056 0.38082 0.05154 0.0
H690 H 0.2011 0.56979 0.97341 0.0
N691 N 0.06968 0.48449 0.98826 0.0
C692 C 0.05795 0.45041 0.98902 0.0
C693 C 0.1165 0.46082 0.98691 0.0
C694 C 0.1283 0.49535 0.9846 0.0
C695 C 0.08113 0.43822 0.98872 0.0
C696 C 0.10401 0.50664 0.98515 0.0
H697 H 0.18546 0.61432 0.96629 0.0
N698 N 0.0909 0.55053 0.98099 0.0
C699 C 0.13363 0.60547 0.9691 0.0
C700 C 0.11482 0.54044 0.98128 0.0
C701 C 0.09949 0.58216 0.9744 0.0
C702 C 0.15898 0.59616 0.97033 0.0
C703 C 0.14974 0.5633 0.97633 0.0
O704 O 0.99336 0.48957 0.96602 0.0
O705 O 0.98919 0.5097 1.00471 0.0
O706 O 0.95072 0.45186 0.0132 0.0
O707 O 0.99417 0.45342 0.99289 0.0
O708 O 0.02174 0.55218 0.98821 0.0
O709 O 0.04674 0.51381 0.95721 0.0
O710 O 0.98866 0.47344 0.06628 0.0
O711 O 0.0308 0.49479 0.0222 0.0
O712 O 0.06676 0.55349 0.01078 0.0
O713 O 0.02787 0.54737 0.03648 0.0
O714 O 1.00154 0.45358 0.04058 0.0
O715 O 0.99662 0.52423 0.06378 0.0
C716 C 0.9933 0.53755 0.99843 0.0
C717 C 0.00826 0.51949 0.93518 0.0
C718 C 0.98757 0.52148 0.90116 0.0
C719 C 0.99459 0.504 0.91627 0.0
C720 C 0.99429 0.55454 0.90524 0.0
C721 C 0.01533 0.55277 0.93876 0.0
C722 C 0.00807 0.57002 0.92394 0.0
C723 C 0.96148 0.43857 0.99895 0.0
C724 C 0.01495 0.50073 0.95096 0.0
C725 C 0.1741 0.55243 0.97684 0.0
C726 C 0.16344 0.51858 0.98107 0.0
C727 C 0.02928 0.46869 0.02979 0.0
C728 C 0.97625 0.4964 0.09517 0.0
C729 C 0.99552 0.50888 0.11314 0.0
C730 C 0.97879 0.50368 0.13196 0.0
C731 C 0.94243 0.48581 0.13264 0.0
C732 C 0.93995 0.47904 0.09597 0.0
C733 C 0.92315 0.47381 0.11467 0.0
C734 C 0.05842 0.56441 0.02739 0.0
C735 C 0.99474 0.50095 0.07595 0.0
H736 H 0.98945 0.47845 0.9133 0.0
H737 H 0.98976 0.56878 0.89374 0.0
H738 H 0.02677 0.56573 0.95284 0.0
H739 H 0.0136 0.59566 0.92686 0.0
H740 H 0.02361 0.52206 0.11254 0.0
H741 H 0.92905 0.4814 0.14702 0.0
H742 H 0.92465 0.46933 0.08226 0.0
H743 H 0.89513 0.46024 0.11525 0.0
Eu744 Eu 0.52397 0.48856 0.03872 0.0
C745 C 0.44547 0.54093 0.98497 0.0
C746 C 0.38507 0.49732 0.98694 0.0
C747 C 0.40059 0.55616 0.98258 0.0
C748 C 0.42054 0.5073 0.9874 0.0
C749 C 0.43581 0.56569 0.98208 0.0
C750 C 0.37525 0.52203 0.98502 0.0
C751 C 0.49622 0.6068 0.97668 0.0
N752 N 0.47917 0.54917 0.98436 0.0
C753 C 0.50445 0.58128 0.97949 0.0
C754 C 0.46177 0.59907 0.97822 0.0
Eu755 Eu 0.49141 0.50519 0.9907 0.0
N756 N 0.43093 0.4841 0.98906 0.0
C757 C 0.40718 0.45025 0.98864 0.0
C758 C 0.36055 0.46273 0.98782 0.0
C759 C 0.37169 0.43907 0.98832 0.0
H760 H 0.53115 0.5874 0.97845 0.0
H761 H 0.35296 0.41223 0.9886 0.0
H762 H 0.34814 0.5149 0.98486 0.0
H763 H 0.51642 0.6324 0.97335 0.0
H764 H 0.41543 0.43171 0.98918 0.0
H765 H 0.66432 0.57198 0.03964 0.0
H766 H 0.33305 0.45401 0.98761 0.0
H767 H 0.47737 0.40572 0.05085 0.0
H768 H 0.60308 0.5572 0.03823 0.0
H769 H 0.48695 0.35827 0.05831 0.0
H770 H 0.39264 0.57486 0.98058 0.0
H771 H 0.679 0.52668 0.04355 0.0
H772 H 0.65856 0.465 0.04912 0.0
H773 H 0.45543 0.61885 0.97595 0.0
H774 H 0.61034 0.40705 0.05469 0.0
N775 N 0.58327 0.50442 0.04062 0.0
C776 C 0.60918 0.5374 0.04 0.0
C777 C 0.65208 0.52016 0.04291 0.0
C778 C 0.62536 0.48654 0.04485 0.0
C779 C 0.64392 0.54579 0.04078 0.0
C780 C 0.59075 0.47943 0.04376 0.0
H781 H 0.54639 0.36717 0.05847 0.0
N782 N 0.53087 0.44144 0.04644 0.0
C783 C 0.50879 0.38308 0.05511 0.0
C784 C 0.56372 0.44696 0.04696 0.0
C785 C 0.50349 0.41016 0.05089 0.0
C786 C 0.54236 0.3882 0.05517 0.0
C787 C 0.57039 0.42048 0.05124 0.0
O788 O 0.49813 0.47656 0.06821 0.0
O789 O 0.48046 0.49052 0.02321 0.0
O790 O 0.49944 0.54565 0.01369 0.0
O791 O 0.54133 0.54473 0.03446 0.0
O792 O 0.46671 0.45116 0.04308 0.0
O793 O 0.54697 0.52312 0.06466 0.0
O794 O 0.517 0.5216 0.9613 0.0
O795 O 0.53505 0.50379 1.00621 0.0
O796 O 0.51851 0.44942 0.01546 0.0
O797 O 0.47679 0.44959 0.99423 0.0
O798 O 0.54866 0.54295 0.98612 0.0
O799 O 0.47164 0.47179 0.96403 0.0
C800 C 0.45489 0.46506 0.03101 0.0
C801 C 0.53371 0.49784 0.09721 0.0
C802 C 0.52877 0.49639 0.13422 0.0
C803 C 0.52007 0.5037 0.1151 0.0
C804 C 0.55171 0.48376 0.13524 0.0
C805 C 0.5566 0.48528 0.09856 0.0
C806 C 0.56561 0.47839 0.11751 0.0
C807 C 0.52494 0.56 0.02714 0.0
C808 C 0.52263 0.50343 0.07726 0.0
C809 C 0.60472 0.42712 0.05162 0.0
C810 C 0.63217 0.46009 0.0484 0.0
C811 C 0.56058 0.52905 0.99819 0.0
C812 C 0.48262 0.49853 0.93196 0.0
C813 C 0.49569 0.49206 0.91409 0.0
C814 C 0.48585 0.49784 0.89484 0.0
C815 C 0.4621 0.50954 0.89384 0.0
C816 C 0.4591 0.51031 0.93064 0.0
C817 C 0.44883 0.51566 0.91163 0.0
C818 C 0.49512 0.43584 1.00074 0.0
C819 C 0.49482 0.49396 0.95179 0.0
H820 H 0.50217 0.51319 0.11412 0.0
H821 H 0.55904 0.47824 0.14979 0.0
H822 H 0.56733 0.48062 0.08499 0.0
H823 H 0.58328 0.46868 0.11845 0.0
H824 H 0.51341 0.48238 0.91523 0.0
H825 H 0.4541 0.51438 0.87931 0.0
H826 H 0.44884 0.51549 0.94425 0.0
H827 H 0.4307 0.52483 0.91068 0.0
Eu828 Eu 0.15732 0.31675 0.3254 0.0
C829 C 0.21927 0.4457 0.38262 0.0
C830 C 0.28141 0.46888 0.38325 0.0
C831 C 0.25772 0.50627 0.3877 0.0
C832 C 0.24751 0.44107 0.38106 0.0
C833 C 0.22401 0.4783 0.3862 0.0
C834 C 0.28638 0.50157 0.38622 0.0
C835 C 0.16176 0.45304 0.38723 0.0
N836 N 0.18707 0.41812 0.38106 0.0
C837 C 0.15838 0.42121 0.38379 0.0
C838 C 0.19471 0.48176 0.38831 0.0
Eu839 Eu 0.18355 0.36525 0.3743 0.0
N840 N 0.2418 0.40916 0.37831 0.0
C841 C 0.26865 0.40297 0.37917 0.0
C842 C 0.30925 0.46287 0.38289 0.0
C843 C 0.30277 0.42967 0.38112 0.0
H844 H 0.13276 0.39928 0.38289 0.0
H845 H 0.32402 0.4246 0.38118 0.0
H846 H 0.31223 0.52328 0.38777 0.0
H847 H 0.13894 0.45541 0.38904 0.0
H848 H 0.26388 0.3775 0.37769 0.0
H849 H 0.01834 0.27165 0.32344 0.0
H850 H 0.33569 0.48354 0.38444 0.0
H851 H 0.19816 0.27478 0.31243 0.0
H852 H 0.08053 0.31419 0.32401 0.0
H853 H 0.18456 0.21568 0.3066 0.0
H854 H 0.26189 0.53155 0.39028 0.0
H855 H 0.99943 0.21055 0.3219 0.0
H856 H 0.01558 0.16518 0.31856 0.0
H857 H 0.19725 0.50638 0.39099 0.0
H858 H 0.06086 0.14991 0.31385 0.0
N859 N 0.09697 0.27769 0.32333 0.0
C860 C 0.07277 0.28769 0.32323 0.0
C861 C 0.02684 0.22915 0.32214 0.0
C862 C 0.05178 0.21917 0.32098 0.0
C863 C 0.0374 0.26361 0.32293 0.0
C864 C 0.0871 0.24442 0.32146 0.0
H865 H 0.12394 0.16862 0.309 0.0
N866 N 0.14592 0.26106 0.31844 0.0
C867 C 0.16403 0.22097 0.31014 0.0
C868 C 0.11243 0.23581 0.31892 0.0
C869 C 0.17163 0.25437 0.31338 0.0
C870 C 0.12979 0.19447 0.31157 0.0
C871 C 0.10339 0.20175 0.31569 0.0
O872 O 0.18542 0.3267 0.29666 0.0
O873 O 0.19863 0.36107 0.34243 0.0
O874 O 0.18056 0.39859 0.35031 0.0
O875 O 0.14129 0.35733 0.32798 0.0
O876 O 0.21469 0.33556 0.32308 0.0
O877 O 0.13956 0.33108 0.29818 0.0
O878 O 0.15502 0.35246 0.40296 0.0
O879 O 0.14356 0.31996 0.35746 0.0
O880 O 0.16797 0.28581 0.34827 0.0
O881 O 0.20323 0.3278 0.37183 0.0
O882 O 0.12528 0.34356 0.37614 0.0
O883 O 0.20393 0.35345 0.40136 0.0
C884 C 0.22494 0.36067 0.33561 0.0
C885 C 0.15307 0.31586 0.26637 0.0
C886 C 0.15457 0.31935 0.22911 0.0
C887 C 0.16445 0.33524 0.24843 0.0
C888 C 0.13324 0.28385 0.2282 0.0
C889 C 0.13177 0.28059 0.26493 0.0
C890 C 0.12197 0.26474 0.24594 0.0
C891 C 0.15845 0.389 0.33496 0.0
C892 C 0.16386 0.33242 0.28651 0.0
C893 C 0.06834 0.17628 0.31609 0.0
C894 C 0.04256 0.18498 0.31877 0.0
C895 C 0.11616 0.31791 0.36421 0.0
C896 C 0.18744 0.36502 0.43335 0.0
C897 C 0.17744 0.34472 0.45092 0.0
C898 C 0.18609 0.3598 0.47045 0.0
C899 C 0.20414 0.3954 0.47205 0.0
C900 C 0.20575 0.40041 0.4354 0.0
C901 C 0.21392 0.41546 0.45466 0.0
C902 C 0.1903 0.29702 0.3637 0.0
C903 C 0.17833 0.34916 0.413 0.0
H904 H 0.18051 0.36256 0.24956 0.0
H905 H 0.12544 0.27075 0.21368 0.0
H906 H 0.12276 0.26532 0.27849 0.0
H907 H 0.10561 0.23747 0.24496 0.0
H908 H 0.16338 0.31734 0.44939 0.0
H909 H 0.21047 0.40778 0.48681 0.0
H910 H 0.21356 0.41637 0.42211 0.0
H911 H 0.22784 0.44281 0.45612 0.0
Eu912 Eu 0.70363 0.84476 0.31815 0.0
C913 C 0.57222 0.80184 0.37166 0.0
C914 C 0.55873 0.84685 0.36828 0.0
C915 C 0.51251 0.78915 0.37435 0.0
C916 C 0.58298 0.83557 0.36825 0.0
C917 C 0.53697 0.77837 0.37523 0.0
C918 C 0.52338 0.82333 0.37087 0.0
C919 C 0.55306 0.73601 0.3819 0.0
N920 N 0.5965 0.7923 0.37255 0.0
C921 C 0.58771 0.76025 0.37836 0.0
C922 C 0.52751 0.74499 0.3801 0.0
Eu923 Eu 0.65438 0.83438 0.36553 0.0
N924 N 0.61733 0.85766 0.36588 0.0
C925 C 0.62946 0.89172 0.36502 0.0
C926 C 0.57086 0.88154 0.36621 0.0
C927 C 0.60643 0.90411 0.36489 0.0
H928 H 0.60738 0.75317 0.37968 0.0
H929 H 0.61613 0.93105 0.36362 0.0
H930 H 0.50434 0.83145 0.3707 0.0
H931 H 0.54609 0.71042 0.38599 0.0
H932 H 0.65685 0.90945 0.36386 0.0
H933 H 0.74747 0.75263 0.32396 0.0
H934 H 0.55307 0.8912 0.36605 0.0
H935 H 0.74597 0.92281 0.29893 0.0
H936 H 0.70492 0.77199 0.32282 0.0
H937 H 0.80502 0.96476 0.28783 0.0
H938 H 0.48526 0.77142 0.37683 0.0
H939 H 0.80985 0.79376 0.31956 0.0
H940 H 0.85624 0.85305 0.31107 0.0
H941 H 0.50069 0.72619 0.38291 0.0
H942 H 0.8718 0.91064 0.30051 0.0
N943 N 0.74281 0.82391 0.31891 0.0
C944 C 0.73202 0.79028 0.32098 0.0
C945 C 0.79127 0.80246 0.3192 0.0
C946 C 0.80186 0.83642 0.31539 0.0
C947 C 0.75609 0.77916 0.3216 0.0
C948 C 0.77663 0.84646 0.31525 0.0
H949 H 0.85255 0.95192 0.29084 0.0
N950 N 0.76006 0.88689 0.3085 0.0
C951 C 0.79994 0.94079 0.29404 0.0
C952 C 0.7855 0.87892 0.30963 0.0
C953 C 0.76653 0.91699 0.30039 0.0
C954 C 0.8267 0.93346 0.29578 0.0
C955 C 0.81965 0.90215 0.30356 0.0
O956 O 0.69208 0.85518 0.28767 0.0
O957 O 0.65918 0.84606 0.33262 0.0
O958 O 0.61937 0.79291 0.34345 0.0
O959 O 0.66132 0.78986 0.32392 0.0
O960 O 0.68638 0.88292 0.31135 0.0
O961 O 0.68888 0.80717 0.29373 0.0
O962 O 0.66336 0.81971 0.39535 0.0
O963 O 0.69972 0.83386 0.35143 0.0
O964 O 0.73873 0.88875 0.33885 0.0
O965 O 0.69807 0.8893 0.3611 0.0
O966 O 0.67063 0.79542 0.37166 0.0
O967 O 0.66747 0.86876 0.39163 0.0
C968 C 0.66039 0.87089 0.32357 0.0
C969 C 0.70591 0.82989 0.2608 0.0
C970 C 0.70639 0.82944 0.22367 0.0
C971 C 0.68858 0.82473 0.24215 0.0
C972 C 0.74171 0.8391 0.22423 0.0
C973 C 0.74096 0.83904 0.26096 0.0
C974 C 0.75875 0.84367 0.24276 0.0
C975 C 0.62903 0.77682 0.33055 0.0
C976 C 0.68755 0.82686 0.27992 0.0
C977 C 0.84529 0.89295 0.30478 0.0
C978 C 0.83644 0.86017 0.3108 0.0
C979 C 0.69788 0.80854 0.36038 0.0
C980 C 0.65113 0.84288 0.42396 0.0
C981 C 0.67064 0.84932 0.44181 0.0
C982 C 0.65466 0.84268 0.461 0.0
C983 C 0.61864 0.8296 0.46198 0.0
C984 C 0.61536 0.8303 0.4252 0.0
C985 C 0.59925 0.82376 0.44417 0.0
C986 C 0.72989 0.90322 0.35346 0.0
C987 C 0.66842 0.84739 0.40432 0.0
H988 H 0.66126 0.81678 0.24212 0.0
H989 H 0.75627 0.84331 0.21031 0.0
H990 H 0.75459 0.84266 0.2751 0.0
H991 H 0.78589 0.85098 0.24301 0.0
H992 H 0.69835 0.8593 0.4407 0.0
H993 H 0.60532 0.82327 0.47644 0.0
H994 H 0.59991 0.82509 0.41158 0.0
H995 H 0.57155 0.81365 0.44508 0.0
Eu996 Eu 0.19617 0.83441 0.37936 0.0
C997 C 0.12479 0.89125 0.32534 0.0
C998 C 0.06311 0.8541 0.32978 0.0
C999 C 0.08587 0.91403 0.32348 0.0
C1000 C 0.09713 0.85948 0.32929 0.0
C1001 C 0.11943 0.91877 0.32189 0.0
C1002 C 0.05773 0.88171 0.32742 0.0
C1003 C 0.18007 0.95266 0.31346 0.0
N1004 N 0.15675 0.89478 0.32369 0.0
C1005 C 0.18401 0.92453 0.31685 0.0
C1006 C 0.14775 0.94993 0.31629 0.0
Eu1007 Eu 0.16184 0.84642 0.33111 0.0
N1008 N 0.10325 0.83339 0.3313 0.0
C1009 C 0.07628 0.80082 0.33216 0.0
C1010 C 0.03546 0.82097 0.3319 0.0
C1011 C 0.04206 0.79414 0.33268 0.0
H1012 H 0.20911 0.92698 0.3146 0.0
H1013 H 0.02084 0.76833 0.33387 0.0
H1014 H 0.03184 0.87816 0.32799 0.0
H1015 H 0.20196 0.9764 0.30863 0.0
H1016 H 0.08104 0.77987 0.33284 0.0
H1017 H 0.2305 0.9271 0.4411 0.0
H1018 H 0.00894 0.81574 0.33239 0.0
H1019 H 0.24472 0.80405 0.35954 0.0
H1020 H 0.19151 0.88161 0.41759 0.0
H1021 H 0.30579 0.81849 0.3585 0.0
H1022 H 0.08127 0.93493 0.3211 0.0
H1023 H 0.29362 0.94883 0.44005 0.0
H1024 H 0.34348 0.94509 0.42508 0.0
H1025 H 0.14473 0.97171 0.31354 0.0
H1026 H 0.36412 0.916 0.40221 0.0
N1027 N 0.23213 0.87829 0.40265 0.0
C1028 C 0.21897 0.89092 0.41681 0.0
C1029 C 0.2766 0.92887 0.42962 0.0
C1030 C 0.28972 0.91459 0.41585 0.0
C1031 C 0.24101 0.9167 0.43024 0.0
C1032 C 0.26645 0.88871 0.40258 0.0
H1033 H 0.35022 0.86848 0.37752 0.0
N1034 N 0.25431 0.84601 0.37839 0.0
C1035 C 0.29838 0.83398 0.36731 0.0
C1036 C 0.27795 0.87228 0.38985 0.0
C1037 C 0.26371 0.8259 0.36792 0.0
C1038 C 0.32338 0.86225 0.37801 0.0
C1039 C 0.31321 0.88137 0.38985 0.0
O1040 O 0.20028 0.79338 0.39367 0.0
O1041 O 0.14844 0.82454 0.36211 0.0
O1042 O 0.1761 0.89154 0.3523 0.0
O1043 O 0.21616 0.89058 0.37499 0.0
O1044 O 0.15366 0.84299 0.39156 0.0
O1045 O 0.16258 0.80572 0.40469 0.0
O1046 O 0.18734 0.85106 0.30183 0.0
O1047 O 0.20493 0.84234 0.346 0.0
O1048 O 0.18543 0.79274 0.35628 0.0
O1049 O 0.14036 0.79048 0.338 0.0
O1050 O 0.21913 0.8817 0.32583 0.0
O1051 O 0.13344 0.81436 0.30504 0.0
C1052 C 0.13432 0.83345 0.37563 0.0
C1053 C 0.18859 0.78696 0.42904 0.0
C1054 C 0.19133 0.80009 0.46546 0.0
C1055 C 0.18142 0.80266 0.44549 0.0
C1056 C 0.20799 0.78126 0.46877 0.0
C1057 C 0.20545 0.76855 0.43286 0.0
C1058 C 0.2151 0.7658 0.45258 0.0
C1059 C 0.20122 0.90604 0.3661 0.0
C1060 C 0.17808 0.78855 0.4079 0.0
C1061 C 0.33688 0.90838 0.40219 0.0
C1062 C 0.32513 0.9249 0.41523 0.0
C1063 C 0.23062 0.86737 0.33781 0.0
C1064 C 0.15259 0.83816 0.27259 0.0
C1065 C 0.1633 0.82845 0.25495 0.0
C1066 C 0.1575 0.83768 0.2356 0.0
C1067 C 0.14109 0.85708 0.2342 0.0
C1068 C 0.13608 0.85735 0.27088 0.0
C1069 C 0.13041 0.86675 0.25174 0.0
C1070 C 0.15853 0.77644 0.34395 0.0
C1071 C 0.15942 0.82862 0.29262 0.0
H1072 H 0.16834 0.81691 0.44284 0.0
H1073 H 0.21502 0.77796 0.48398 0.0
H1074 H 0.21097 0.75602 0.42056 0.0
H1075 H 0.22787 0.75134 0.45536 0.0
H1076 H 0.1766 0.81413 0.25634 0.0
H1077 H 0.13623 0.8645 0.21951 0.0
H1078 H 0.12768 0.86509 0.2843 0.0
H1079 H 0.11768 0.88157 0.2505 0.0
Eu1080 Eu 0.81865 0.63946 0.65435 0.0
C1081 C 0.89705 0.76564 0.71081 0.0
C1082 C 0.95716 0.7802 0.70911 0.0
C1083 C 0.94265 0.82461 0.71361 0.0
C1084 C 0.92156 0.75585 0.70834 0.0
C1085 C 0.90728 0.80003 0.71394 0.0
C1086 C 0.96756 0.8147 0.7112 0.0
C1087 C 0.84703 0.7829 0.71914 0.0
N1088 N 0.86316 0.74125 0.71117 0.0
C1089 C 0.8382 0.74912 0.71603 0.0
C1090 C 0.88168 0.80854 0.71783 0.0
Eu1091 Eu 0.85001 0.68512 0.70392 0.0
N1092 N 0.9106 0.72231 0.70648 0.0
C1093 C 0.93382 0.71115 0.70726 0.0
C1094 C 0.9812 0.76903 0.70849 0.0
C1095 C 0.96943 0.7343 0.708 0.0
H1096 H 0.81135 0.72934 0.7168 0.0
H1097 H 0.98777 0.72534 0.70802 0.0
H1098 H 0.9948 0.83382 0.71157 0.0
H1099 H 0.82711 0.78916 0.72249 0.0
H1100 H 0.92513 0.68441 0.70671 0.0
H1101 H 0.67967 0.59374 0.65913 0.0
H1102 H 0.00879 0.7869 0.70901 0.0
H1103 H 0.85706 0.59908 0.63425 0.0
H1104 H 0.74176 0.63639 0.65794 0.0
H1105 H 0.84287 0.5406 0.62565 0.0
H1106 H 0.95104 0.85121 0.71576 0.0
H1107 H 0.66067 0.5328 0.65557 0.0
H1108 H 0.67642 0.48787 0.6485 0.0
H1109 H 0.88847 0.83468 0.72029 0.0
H1110 H 0.72097 0.47334 0.63929 0.0
N1111 N 0.75814 0.60017 0.65416 0.0
C1112 C 0.73395 0.61 0.65616 0.0
C1113 C 0.68802 0.55147 0.65497 0.0
C1114 C 0.71277 0.54175 0.6515 0.0
C1115 C 0.69864 0.58584 0.65691 0.0
C1116 C 0.74804 0.56709 0.65095 0.0
H1117 H 0.78308 0.49293 0.63032 0.0
N1118 N 0.80617 0.5844 0.6443 0.0
C1119 C 0.82297 0.54535 0.63146 0.0
C1120 C 0.77293 0.55891 0.64587 0.0
C1121 C 0.83091 0.57841 0.6363 0.0
C1122 C 0.78922 0.5185 0.63417 0.0
C1123 C 0.76352 0.52518 0.64107 0.0
O1124 O 0.84552 0.65458 0.62512 0.0
O1125 O 0.86208 0.6823 0.67131 0.0
O1126 O 0.84493 0.71969 0.68152 0.0
O1127 O 0.80304 0.67961 0.65992 0.0
O1128 O 0.87551 0.65697 0.6502 0.0
O1129 O 0.7971 0.65356 0.62883 0.0
O1130 O 0.82533 0.67908 0.73363 0.0
O1131 O 0.80751 0.64107 0.6874 0.0
O1132 O 0.83242 0.6068 0.67339 0.0
O1133 O 0.86421 0.64369 0.7003 0.0
O1134 O 0.79251 0.66623 0.70737 0.0
O1135 O 0.86637 0.66735 0.73003 0.0
C1136 C 0.88741 0.68131 0.66338 0.0
C1137 C 0.81076 0.64265 0.59589 0.0
C1138 C 0.81278 0.64794 0.55877 0.0
C1139 C 0.82235 0.66289 0.57833 0.0
C1140 C 0.7914 0.6125 0.55723 0.0
C1141 C 0.78934 0.60747 0.59386 0.0
C1142 C 0.77977 0.59254 0.57462 0.0
C1143 C 0.82123 0.71098 0.66713 0.0
C1144 C 0.82163 0.65826 0.61623 0.0
C1145 C 0.72869 0.49949 0.64266 0.0
C1146 C 0.70333 0.50777 0.6479 0.0
C1147 C 0.78139 0.64022 0.69546 0.0
C1148 C 0.85891 0.68424 0.76279 0.0
C1149 C 0.84568 0.6645 0.78046 0.0
C1150 C 0.86036 0.67804 0.79966 0.0
C1151 C 0.88795 0.71164 0.80093 0.0
C1152 C 0.88635 0.71773 0.76446 0.0
C1153 C 0.9007 0.73132 0.78347 0.0
C1154 C 0.85243 0.61501 0.68975 0.0
C1155 C 0.84485 0.66932 0.74265 0.0
H1156 H 0.83841 0.69014 0.57995 0.0
H1157 H 0.78387 0.60011 0.54249 0.0
H1158 H 0.78006 0.59155 0.60714 0.0
H1159 H 0.76335 0.56533 0.57318 0.0
H1160 H 0.82457 0.63853 0.77924 0.0
H1161 H 0.89951 0.72273 0.81552 0.0
H1162 H 0.89684 0.73323 0.75107 0.0
H1163 H 0.92192 0.75718 0.78466 0.0
Eu1164 Eu 0.35008 0.16724 0.65192 0.0
C1165 C 0.22238 0.13299 0.70159 0.0
C1166 C 0.2203 0.18475 0.69822 0.0
C1167 C 0.16682 0.13098 0.70176 0.0
C1168 C 0.23927 0.16761 0.69903 0.0
C1169 C 0.186 0.11436 0.7036 0.0
C1170 C 0.18396 0.16615 0.6991 0.0
C1171 C 0.19065 0.06524 0.7117 0.0
N1172 N 0.24173 0.11788 0.70358 0.0
C1173 C 0.22664 0.085 0.70988 0.0
C1174 C 0.17014 0.07984 0.70815 0.0
Eu1175 Eu 0.30271 0.15247 0.69996 0.0
N1176 N 0.27436 0.18472 0.69802 0.0
C1177 C 0.29221 0.21933 0.69728 0.0
C1178 C 0.23845 0.22011 0.69695 0.0
C1179 C 0.27459 0.23749 0.6967 0.0
H1180 H 0.24255 0.074 0.71329 0.0
H1181 H 0.28893 0.26487 0.6959 0.0
H1182 H 0.16895 0.17882 0.69818 0.0
H1183 H 0.17883 0.03892 0.71606 0.0
H1184 H 0.32006 0.23323 0.69695 0.0
H1185 H 0.31319 0.07207 0.59169 0.0
H1186 H 0.22487 0.23421 0.69641 0.0
H1187 H 0.42718 0.2102 0.67569 0.0
H1188 H 0.31068 0.11692 0.61183 0.0
H1189 H 0.47958 0.20612 0.68098 0.0
H1190 H 0.13883 0.11703 0.70297 0.0
H1191 H 0.35795 0.05681 0.59949 0.0
H1192 H 0.41149 0.06939 0.61924 0.0
H1193 H 0.14227 0.06462 0.70978 0.0
H1194 H 0.45728 0.10643 0.64343 0.0
N1195 N 0.352 0.12512 0.63149 0.0
C1196 C 0.33002 0.11006 0.61538 0.0
C1197 C 0.35669 0.0762 0.60844 0.0
C1198 C 0.38116 0.09406 0.6237 0.0
C1199 C 0.33143 0.08477 0.60397 0.0
C1200 C 0.37835 0.11907 0.6349 0.0
H1201 H 0.48356 0.1583 0.6659 0.0
N1202 N 0.40144 0.16515 0.65775 0.0
C1203 C 0.45844 0.18719 0.67186 0.0
C1204 C 0.40405 0.13993 0.64838 0.0
C1205 C 0.42857 0.18939 0.66882 0.0
C1206 C 0.46055 0.16013 0.66337 0.0
C1207 C 0.4334 0.13635 0.65119 0.0
O1208 O 0.39291 0.21067 0.63696 0.0
O1209 O 0.31081 0.17496 0.66902 0.0
O1210 O 0.27308 0.1054 0.67973 0.0
O1211 O 0.31204 0.11068 0.65398 0.0
O1212 O 0.29765 0.1544 0.63975 0.0
O1213 O 0.34263 0.18543 0.62273 0.0
O1214 O 0.29872 0.12907 0.72949 0.0
O1215 O 0.34977 0.15634 0.68503 0.0
O1216 O 0.37662 0.21659 0.67009 0.0
O1217 O 0.35179 0.20339 0.70227 0.0
O1218 O 0.32032 0.11418 0.70317 0.0
O1219 O 0.31786 0.18278 0.72789 0.0
C1220 C 0.28741 0.16403 0.65541 0.0
C1221 C 0.39104 0.20575 0.60088 0.0
C1222 C 0.38643 0.19673 0.56404 0.0
C1223 C 0.37172 0.19807 0.5827 0.0
C1224 C 0.42072 0.20327 0.56366 0.0
C1225 C 0.42527 0.21197 0.60011 0.0
C1226 C 0.43991 0.2107 0.5816 0.0
C1227 C 0.28269 0.0933 0.66415 0.0
C1228 C 0.37535 0.2072 0.62044 0.0
C1229 C 0.43523 0.10996 0.64118 0.0
C1230 C 0.40913 0.08883 0.62744 0.0
C1231 C 0.34776 0.12963 0.69215 0.0
C1232 C 0.29095 0.15554 0.7584 0.0
C1233 C 0.30834 0.16171 0.77705 0.0
C1234 C 0.29181 0.16138 0.79531 0.0
C1235 C 0.25735 0.15439 0.79469 0.0
C1236 C 0.25662 0.14871 0.75796 0.0
C1237 C 0.23989 0.14804 0.77609 0.0
C1238 C 0.37515 0.22447 0.68931 0.0
C1239 C 0.30962 0.15714 0.7397 0.0
H1240 H 0.34542 0.1935 0.58302 0.0
H1241 H 0.43255 0.20235 0.54945 0.0
H1242 H 0.44082 0.21784 0.61379 0.0
H1243 H 0.46626 0.21552 0.58117 0.0
H1244 H 0.33505 0.16738 0.77731 0.0
H1245 H 0.2439 0.15364 0.80857 0.0
H1246 H 0.24287 0.14405 0.7437 0.0
H1247 H 0.21335 0.14269 0.77571 0.0
Eu1248 Eu 0.84155 0.14972 0.70511 0.0
C1249 C 0.76144 0.19922 0.64994 0.0
C1250 C 0.70153 0.15536 0.65381 0.0
C1251 C 0.71573 0.21326 0.64712 0.0
C1252 C 0.73716 0.1659 0.65379 0.0
C1253 C 0.75098 0.2231 0.64589 0.0
C1254 C 0.69103 0.17942 0.6511 0.0
C1255 C 0.81032 0.2633 0.63723 0.0
N1256 N 0.79514 0.20769 0.64859 0.0
C1257 C 0.8193 0.2386 0.64129 0.0
C1258 C 0.7761 0.25572 0.63991 0.0
Eu1259 Eu 0.80911 0.16551 0.65687 0.0
N1260 N 0.74825 0.14334 0.65613 0.0
C1261 C 0.72489 0.10938 0.6566 0.0
C1262 C 0.67754 0.12081 0.65578 0.0
C1263 C 0.68928 0.09766 0.65675 0.0
H1264 H 0.84577 0.2445 0.63919 0.0
H1265 H 0.67093 0.07078 0.65777 0.0
H1266 H 0.66381 0.1719 0.65135 0.0
H1267 H 0.82977 0.28812 0.63203 0.0
H1268 H 0.73352 0.09119 0.65756 0.0
H1269 H 0.9794 0.24513 0.70603 0.0
H1270 H 0.64995 0.11167 0.65595 0.0
H1271 H 0.80396 0.06834 0.71878 0.0
H1272 H 0.91669 0.22436 0.70587 0.0
H1273 H 0.82032 0.02465 0.72476 0.0
H1274 H 0.70721 0.23134 0.64433 0.0
H1275 H 1.00069 0.20443 0.70715 0.0
H1276 H 0.9871 0.14409 0.71046 0.0
H1277 H 0.76915 0.27481 0.63664 0.0
H1278 H 0.94379 0.08402 0.71574 0.0
N1279 N 0.90233 0.17225 0.70638 0.0
C1280 C 0.9255 0.20626 0.70649 0.0
C1281 C 0.97306 0.19513 0.70713 0.0
C1282 C 0.94919 0.16043 0.70842 0.0
C1283 C 0.96115 0.21818 0.70656 0.0
C1284 C 0.91352 0.14968 0.70823 0.0
H1285 H 0.8816 0.03937 0.72157 0.0
N1286 N 0.85534 0.10698 0.71198 0.0
C1287 C 0.83994 0.05019 0.72084 0.0
C1288 C 0.88924 0.11595 0.71115 0.0
C1289 C 0.83078 0.07496 0.71752 0.0
C1290 C 0.87455 0.05859 0.71897 0.0
C1291 C 0.8998 0.09193 0.71438 0.0
O1292 O 0.81626 0.13251 0.73461 0.0
O1293 O 0.79794 0.1516 0.68968 0.0
O1294 O 0.82025 0.20972 0.67758 0.0
O1295 O 0.85507 0.20489 0.70254 0.0
O1296 O 0.78462 0.11108 0.70877 0.0
O1297 O 0.8608 0.18279 0.73183 0.0
O1298 O 0.83686 0.17945 0.62795 0.0
O1299 O 0.85293 0.1644 0.67252 0.0
O1300 O 0.83503 0.10936 0.68263 0.0
O1301 O 0.79489 0.11003 0.66034 0.0
O1302 O 0.86602 0.20441 0.65309 0.0
O1303 O 0.78775 0.13308 0.62991 0.0
C1304 C 0.7726 0.12571 0.69739 0.0
C1305 C 0.85132 0.15624 0.76373 0.0
C1306 C 0.85143 0.15897 0.80086 0.0
C1307 C 0.83897 0.16268 0.78194 0.0
C1308 C 0.87647 0.14883 0.80122 0.0
C1309 C 0.87622 0.14609 0.76445 0.0
C1310 C 0.88869 0.14242 0.78313 0.0
C1311 C 0.84146 0.22141 0.69344 0.0
C1312 C 0.83811 0.1603 0.74412 0.0
C1313 C 0.93518 0.10217 0.71354 0.0
C1314 C 0.95984 0.13637 0.71054 0.0
C1315 C 0.87827 0.19044 0.66488 0.0
C1316 C 0.80362 0.1604 0.598 0.0
C1317 C 0.81755 0.1541 0.58045 0.0
C1318 C 0.81059 0.16224 0.56104 0.0
C1319 C 0.78955 0.17703 0.55959 0.0
C1320 C 0.78223 0.17459 0.59617 0.0
C1321 C 0.7753 0.18288 0.57703 0.0
C1322 C 0.81233 0.09586 0.6676 0.0
C1323 C 0.81299 0.15339 0.61807 0.0
H1324 H 0.82011 0.17102 0.78134 0.0
H1325 H 0.8864 0.1456 0.81554 0.0
H1326 H 0.88606 0.14113 0.75061 0.0
H1327 H 0.9079 0.13456 0.7836 0.0
H1328 H 0.83385 0.14284 0.58195 0.0
H1329 H 0.78451 0.1846 0.54502 0.0
H1330 H 0.77122 0.17956 0.60951 0.0
H1331 H 0.75912 0.19423 0.57572 0.0
C1332 C 0.35328 0.9205 0.04884 0.0
C1333 C 0.35195 0.88943 0.05211 0.0
C1334 C 0.38269 0.94807 0.04035 0.0
C1335 C 0.41195 0.94572 0.03489 0.0
H1336 H 0.3318 0.92378 0.05342 0.0
H1337 H 0.38299 0.97184 0.03865 0.0
S1338 S 0.42166 0.87 0.04082 0.0
N1339 N 0.38215 0.85768 0.04906 0.0
N1340 N 0.43774 0.90976 0.03381 0.0
C1341 C 0.41063 0.91455 0.03774 0.0
C1342 C 0.3805 0.88632 0.04611 0.0
C1343 C 0.07771 0.42286 0.04324 0.0
C1344 C 0.11241 0.449 0.04534 0.0
C1345 C 0.05146 0.42972 0.03777 0.0
C1346 C 0.05873 0.46292 0.0338 0.0
H1347 H 0.07054 0.39686 0.04636 0.0
H1348 H 0.02508 0.40876 0.03671 0.0
S1349 S 0.14524 0.54048 0.03718 0.0
N1350 N 0.15268 0.50946 0.04276 0.0
N1351 N 0.10316 0.52242 0.03287 0.0
C1352 C 0.09328 0.48935 0.03576 0.0
C1353 C 0.12012 0.48236 0.0414 0.0
C1354 C 0.52557 0.64261 0.03731 0.0
C1355 C 0.55985 0.66458 0.04364 0.0
C1356 C 0.51443 0.60875 0.03202 0.0
C1357 C 0.53704 0.59562 0.03324 0.0
H1358 H 0.50745 0.65179 0.03617 0.0
H1359 H 0.48787 0.59273 0.02703 0.0
S1360 S 0.6293 0.64318 0.04949 0.0
N1361 N 0.61611 0.67105 0.05122 0.0
N1362 N 0.59537 0.60774 0.0414 0.0
C1363 C 0.57126 0.61745 0.03983 0.0
C1364 C 0.58262 0.65186 0.04498 0.0
C1365 C 0.87915 0.35325 0.99052 0.0
C1366 C 0.88915 0.33752 0.97567 0.0
C1367 C 0.90223 0.38631 0.99743 0.0
C1368 C 0.93642 0.40476 0.99004 0.0
H1369 H 0.8536 0.33961 0.99725 0.0
H1370 H 0.89316 0.39722 1.00879 0.0
S1371 S 0.97269 0.37711 0.94796 0.0
N1372 N 0.93352 0.34448 0.95161 0.0
N1373 N 0.97701 0.40619 0.96465 0.0
C1374 C 0.94584 0.38997 0.97418 0.0
C1375 C 0.92226 0.35646 0.96706 0.0
C1376 C 0.63457 0.51282 0.98587 0.0
C1377 C 0.66294 0.54594 0.98381 0.0
C1378 C 0.60166 0.50718 0.99173 0.0
C1379 C 0.59599 0.5345 0.99539 0.0
H1380 H 0.63777 0.4912 0.9827 0.0
H1381 H 0.58031 0.48138 0.99263 0.0
S1382 S 0.6616 0.6258 0.99237 0.0
N1383 N 0.68315 0.60621 0.98643 0.0
N1384 N 0.62138 0.59558 0.99676 0.0
C1385 C 0.62417 0.56757 0.99353 0.0
C1386 C 0.65764 0.5733 0.988 0.0
C1387 C 0.4909 0.12866 0.98138 0.0
C1388 C 0.46538 0.11859 0.9662 0.0
C1389 C 0.4953 0.10472 0.9922 0.0
C1390 C 0.47417 0.06968 0.98838 0.0
H1391 H 0.50838 0.15534 0.98448 0.0
H1392 H 0.5161 0.11395 1.00326 0.0
S1393 S 0.40108 0.0303 0.95144 0.0
N1394 N 0.41712 0.07147 0.94879 0.0
N1395 N 0.42496 0.02629 0.96913 0.0
C1396 C 0.44762 0.05931 0.97371 0.0
C1397 C 0.44336 0.08378 0.96262 0.0
C1398 C 0.62517 0.10948 0.98677 0.0
C1399 C 0.65369 0.10421 0.98605 0.0
C1400 C 0.59202 0.08311 0.99219 0.0
C1401 C 0.58645 0.05063 0.99671 0.0
H1402 H 0.6284 0.13386 0.98267 0.0
H1403 H 0.57041 0.08767 0.99187 0.0
S1404 S 0.65254 0.02419 0.99767 0.0
N1405 N 0.67425 0.06449 0.99112 0.0
N1406 N 0.61198 0.01494 1.00069 0.0
C1407 C 0.61484 0.04537 0.99644 0.0
C1408 C 0.64849 0.0722 0.99135 0.0
C1409 C 0.90429 0.52325 0.98339 0.0
C1410 C 0.91116 0.5564 0.97947 0.0
C1411 C 0.93066 0.51714 0.99007 0.0
C1412 C 0.96472 0.54401 0.99331 0.0
H1413 H 0.87863 0.50181 0.9807 0.0
H1414 H 0.92449 0.49119 0.99227 0.0
S1415 S 0.99548 0.63549 0.98732 0.0
N1416 N 0.95412 0.61648 0.98088 0.0
N1417 N 1.00342 0.60487 0.99315 0.0
C1418 C 0.97165 0.57719 0.98998 0.0
C1419 C 0.94495 0.58343 0.98324 0.0
C1420 C 0.45636 0.35744 0.96671 0.0
C1421 C 0.48076 0.34657 0.96793 0.0
C1422 C 0.4608 0.3858 0.97774 0.0
C1423 C 0.48978 0.40439 0.9905 0.0
H1424 H 0.43414 0.34453 0.95669 0.0
H1425 H 0.44154 0.39343 0.97598 0.0
S1426 S 0.56033 0.38516 0.99974 0.0
N1427 N 0.53386 0.35529 0.98376 0.0
N1428 N 0.54299 0.40921 1.00388 0.0
C1429 C 0.51397 0.39324 0.99219 0.0
C1430 C 0.50929 0.36424 0.98105 0.0
C1431 C 0.09983 0.64172 0.06264 0.0
C1432 C 0.13534 0.6561 0.05854 0.0
C1433 C 0.07508 0.61264 0.0521 0.0
C1434 C 0.0849 0.59707 0.0369 0.0
H1435 H 0.09123 0.65234 0.07454 0.0
H1436 H 0.04809 0.602 0.05619 0.0
S1437 S 0.17512 0.62735 0.01959 0.0
N1438 N 0.1792 0.65442 0.03762 0.0
N1439 N 0.1332 0.60001 0.01784 0.0
C1440 C 0.12045 0.6123 0.03221 0.0
C1441 C 0.14551 0.64169 0.04303 0.0
C1442 C 0.38043 0.48095 0.04279 0.0
C1443 C 0.35233 0.4478 0.04536 0.0
C1444 C 0.41342 0.4867 0.03699 0.0
C1445 C 0.41942 0.45947 0.03383 0.0
H1446 H 0.37693 0.50252 0.04541 0.0
H1447 H 0.43455 0.51255 0.03565 0.0
S1448 S 0.35478 0.36815 0.03862 0.0
N1449 N 0.33293 0.3876 0.04408 0.0
N1450 N 0.3947 0.39845 0.03364 0.0
C1451 C 0.39154 0.42638 0.03628 0.0
C1452 C 0.35805 0.42052 0.04184 0.0
C1453 C 0.53294 0.8818 0.03471 0.0
C1454 C 0.56034 0.89401 0.04879 0.0
C1455 C 0.51988 0.90239 0.02803 0.0
C1456 C 0.53376 0.93602 0.03513 0.0
H1457 H 0.52201 0.8564 0.02848 0.0
H1458 H 0.49878 0.89173 0.01718 0.0
S1459 S 0.60311 0.97817 0.07425 0.0
N1460 N 0.5989 0.94036 0.07107 0.0
N1461 N 0.57475 0.97917 0.05864 0.0
C1462 C 0.56029 0.94788 0.04994 0.0
C1463 C 0.57352 0.9269 0.05668 0.0
C1464 C 0.05752 0.22677 0.37997 0.0
C1465 C 0.02712 0.22661 0.38596 0.0
C1466 C 0.08553 0.2557 0.37151 0.0
C1467 C 0.08419 0.28559 0.36877 0.0
H1468 H 0.06018 0.20474 0.38257 0.0
H1469 H 0.10896 0.25511 0.36813 0.0
S1470 S 0.00967 0.29754 0.38036 0.0
N1471 N 0.99656 0.25818 0.38728 0.0
N1472 N 0.04932 0.31262 0.37146 0.0
C1473 C 0.05336 0.28521 0.37375 0.0
C1474 C 0.02473 0.25567 0.38222 0.0
C1475 C 0.74481 0.76185 0.37512 0.0
C1476 C 0.77969 0.78767 0.37707 0.0
C1477 C 0.71894 0.76907 0.36935 0.0
C1478 C 0.72683 0.80229 0.36487 0.0
H1479 H 0.73726 0.73584 0.37853 0.0
H1480 H 0.6924 0.74838 0.36837 0.0
S1481 S 0.81396 0.87918 0.36797 0.0
N1482 N 0.82072 0.84791 0.37405 0.0
N1483 N 0.77195 0.86152 0.36355 0.0
C1484 C 0.76154 0.82843 0.3668 0.0
C1485 C 0.78796 0.82109 0.37277 0.0
C1486 C 0.20041 0.98749 0.37791 0.0
C1487 C 0.23434 0.00923 0.38491 0.0
C1488 C 0.18997 0.95423 0.37151 0.0
C1489 C 0.21296 0.94151 0.37228 0.0
H1490 H 0.18203 0.9964 0.37718 0.0
H1491 H 0.16359 0.93825 0.3662 0.0
S1492 S 0.3047 0.98893 0.38947 0.0
N1493 N 0.29079 0.0161 0.39225 0.0
N1494 N 0.27136 0.95384 0.38046 0.0
C1495 C 0.2469 0.96317 0.37937 0.0
C1496 C 0.25754 0.99697 0.38562 0.0
C1497 C 0.5912 0.68566 0.31272 0.0
C1498 C 0.55535 0.67354 0.31211 0.0
C1499 C 0.61472 0.71913 0.31852 0.0
C1500 C 0.60332 0.74174 0.32421 0.0
H1501 H 0.6012 0.66917 0.30851 0.0
H1502 H 0.64204 0.72714 0.31878 0.0
S1503 S 0.51199 0.72249 0.32509 0.0
N1504 N 0.50945 0.68664 0.31758 0.0
N1505 N 0.55364 0.74968 0.32855 0.0
C1506 C 0.56748 0.72995 0.32367 0.0
C1507 C 0.54352 0.69586 0.31755 0.0
C1508 C 0.29892 0.85056 0.31503 0.0
C1509 C 0.33007 0.88088 0.31931 0.0
C1510 C 0.26678 0.84548 0.322 0.0
C1511 C 0.26466 0.87047 0.33359 0.0
H1512 H 0.29935 0.83078 0.30603 0.0
H1513 H 0.24336 0.82221 0.31791 0.0
S1514 S 0.33769 0.95481 0.34803 0.0
N1515 N 0.35609 0.93658 0.33542 0.0
N1516 N 0.29583 0.92685 0.34823 0.0
C1517 C 0.29535 0.90078 0.33785 0.0
C1518 C 0.32802 0.90595 0.33092 0.0
C1519 C 0.11704 0.42956 0.30396 0.0
C1520 C 0.14155 0.46434 0.30544 0.0
C1521 C 0.12249 0.4053 0.31368 0.0
C1522 C 0.15272 0.41497 0.32516 0.0
H1523 H 0.09347 0.42106 0.29525 0.0
H1524 H 0.10284 0.37882 0.31219 0.0
S1525 S 0.22634 0.5028 0.33207 0.0
N1526 N 0.19796 0.50711 0.31825 0.0
N1527 N 0.20841 0.4618 0.33634 0.0
C1528 C 0.1776 0.44972 0.32652 0.0
C1529 C 0.17197 0.47432 0.3167 0.0
C1530 C 0.30091 0.44569 0.32143 0.0
C1531 C 0.32822 0.43852 0.32102 0.0
C1532 C 0.26759 0.42137 0.32809 0.0
C1533 C 0.2607 0.38923 0.33448 0.0
H1534 H 0.30471 0.46934 0.31538 0.0
H1535 H 0.24668 0.42684 0.32684 0.0
S1536 S 0.32436 0.36036 0.34026 0.0
N1537 N 0.34707 0.39897 0.33096 0.0
N1538 N 0.28428 0.35295 0.34237 0.0
C1539 C 0.28821 0.38274 0.33554 0.0
C1540 C 0.32206 0.40753 0.32918 0.0
C1541 C 0.56955 0.85678 0.31457 0.0
C1542 C 0.57608 0.88981 0.31057 0.0
C1543 C 0.59672 0.85067 0.31941 0.0
C1544 C 0.63133 0.87738 0.3204 0.0
H1545 H 0.54328 0.83557 0.31407 0.0
H1546 H 0.59064 0.82487 0.3221 0.0
S1547 S 0.66254 0.96797 0.3102 0.0
N1548 N 0.62013 0.94921 0.30718 0.0
N1549 N 0.67072 0.93764 0.31633 0.0
C1550 C 0.63818 0.91027 0.31613 0.0
C1551 C 0.6107 0.91654 0.31132 0.0
C1552 C 0.12647 0.70338 0.30612 0.0
C1553 C 0.14535 0.68753 0.31159 0.0
C1554 C 0.12968 0.7312 0.31723 0.0
C1555 C 0.15184 0.74416 0.33426 0.0
H1556 H 0.11018 0.69508 0.29268 0.0
H1557 H 0.1156 0.74332 0.31192 0.0
S1558 S 0.20293 0.7082 0.35647 0.0
N1559 N 0.18408 0.68434 0.33624 0.0
N1560 N 0.19005 0.7364 0.35724 0.0
C1561 C 0.16929 0.72719 0.34053 0.0
C1562 C 0.16611 0.69898 0.32915 0.0
C1563 C 0.7735 0.98017 0.38895 0.0
C1564 C 0.8089 0.99418 0.38455 0.0
C1565 C 0.74815 0.9516 0.37831 0.0
C1566 C 0.75713 0.93582 0.3628 0.0
H1567 H 0.76536 0.99058 0.40121 0.0
H1568 H 0.72137 0.94137 0.38274 0.0
S1569 S 0.84657 0.9653 0.34428 0.0
N1570 N 0.85159 0.99233 0.36255 0.0
N1571 N 0.80453 0.9383 0.34302 0.0
C1572 C 0.79252 0.95064 0.35778 0.0
C1573 C 0.8182 0.97983 0.36853 0.0
C1574 C 0.05102 0.8343 0.38568 0.0
C1575 C 0.02601 0.79954 0.38628 0.0
C1576 C 0.08599 0.84522 0.38141 0.0
C1577 C 0.09704 0.82179 0.37739 0.0
H1578 H 0.04352 0.85316 0.38855 0.0
H1579 H 0.10457 0.87215 0.38139 0.0
S1580 S 0.04278 0.72825 0.37871 0.0
N1581 N 0.01544 0.74187 0.38351 0.0
N1582 N 0.08102 0.76255 0.37561 0.0
C1583 C 0.07257 0.7871 0.37834 0.0
C1584 C 0.03705 0.77595 0.38262 0.0
C1585 C 0.19898 0.21906 0.37305 0.0
C1586 C 0.22864 0.232 0.38544 0.0
C1587 C 0.18653 0.24013 0.3662 0.0
C1588 C 0.20315 0.27479 0.37165 0.0
H1589 H 0.1858 0.1927 0.3683 0.0
H1590 H 0.16372 0.22912 0.35657 0.0
S1591 S 0.28044 0.31972 0.40539 0.0
N1592 N 0.27322 0.28058 0.40384 0.0
N1593 N 0.25003 0.32011 0.39137 0.0
C1594 C 0.23226 0.28749 0.38466 0.0
C1595 C 0.24497 0.26613 0.39142 0.0
C1596 C 0.69011 0.58271 0.71479 0.0
C1597 C 0.68876 0.55144 0.71714 0.0
C1598 C 0.71973 0.61092 0.70688 0.0
C1599 C 0.74879 0.60872 0.70069 0.0
H1600 H 0.66884 0.58584 0.72002 0.0
H1601 H 0.7203 0.63491 0.70608 0.0
S1602 S 0.75696 0.53162 0.70242 0.0
N1603 N 0.71786 0.51918 0.7114 0.0
N1604 N 0.77358 0.57211 0.69704 0.0
C1605 C 0.74707 0.57715 0.70225 0.0
C1606 C 0.717 0.54852 0.71028 0.0
C1607 C 0.43111 0.14044 0.71437 0.0
C1608 C 0.43005 0.10997 0.70883 0.0
C1609 C 0.40499 0.14722 0.70829 0.0
C1610 C 0.37721 0.12421 0.69601 0.0
H1611 H 0.45222 0.15925 0.72358 0.0
H1612 H 0.40637 0.17053 0.71338 0.0
S1613 S 0.36028 0.04006 0.67825 0.0
N1614 N 0.39701 0.05571 0.69109 0.0
N1615 N 0.34881 0.06929 0.67936 0.0
C1616 C 0.37542 0.09365 0.6905 0.0
C1617 C 0.40177 0.08648 0.69678 0.0
C1618 C 0.87604 0.31607 0.69525 0.0
C1619 C 0.87929 0.32319 0.71625 0.0
C1620 C 0.86259 0.28285 0.68792 0.0
C1621 C 0.85201 0.25562 0.70131 0.0
H1622 H 0.88449 0.33643 0.68438 0.0
H1623 H 0.86195 0.2788 0.6717 0.0
S1624 S 0.85384 0.26031 0.75763 0.0
N1625 N 0.87015 0.30001 0.75035 0.0
N1626 N 0.84415 0.23754 0.7365 0.0
C1627 C 0.85425 0.26221 0.72232 0.0
C1628 C 0.86795 0.29599 0.72981 0.0
C1629 C 0.2275 0.01709 0.63045 0.0
C1630 C 0.21609 0.98963 0.64387 0.0
C1631 C 0.24876 0.05061 0.63721 0.0
C1632 C 0.2593 0.05794 0.65762 0.0
H1633 H 0.2206 0.01263 0.61448 0.0
H1634 H 0.25687 0.07095 0.62638 0.0
S1635 S 0.2363 0.99575 0.69902 0.0
N1636 N 0.21612 0.97244 0.67882 0.0
N1637 N 0.25715 0.03538 0.69117 0.0
C1638 C 0.24787 0.03096 0.67125 0.0
C1639 C 0.22608 0.99682 0.66445 0.0
C1640 C 0.97419 0.23684 0.65281 0.0
C1641 C 0.98156 0.21066 0.64905 0.0
C1642 C 0.94092 0.22978 0.65855 0.0
C1643 C 0.91378 0.19631 0.66131 0.0
H1644 H 0.99409 0.26305 0.65071 0.0
H1645 H 0.93629 0.25077 0.6607 0.0
S1646 S 0.91957 0.11855 0.65367 0.0
N1647 N 0.95906 0.14988 0.64881 0.0
N1648 N 0.89649 0.13662 0.65947 0.0
C1649 C 0.92085 0.16986 0.65786 0.0
C1650 C 0.95474 0.17704 0.65181 0.0
C1651 C 0.84085 0.79823 0.65022 0.0
C1652 C 0.81383 0.791 0.63655 0.0
C1653 C 0.84199 0.77228 0.66082 0.0
C1654 C 0.81656 0.738 0.65777 0.0
H1655 H 0.8616 0.82412 0.65247 0.0
H1656 H 0.86374 0.7792 0.6709 0.0
S1657 S 0.73922 0.7063 0.62426 0.0
N1658 N 0.76012 0.74781 0.6212 0.0
N1659 N 0.7623 0.69872 0.64078 0.0
C1660 C 0.78872 0.73066 0.64457 0.0
C1661 C 0.78736 0.75723 0.63403 0.0
C1662 C 0.98354 0.72477 0.65486 0.0
C1663 C 0.99201 0.75749 0.64846 0.0
C1664 C 0.9499 0.70099 0.6609 0.0
C1665 C 0.92357 0.70926 0.66177 0.0
H1666 H 1.00276 0.7169 0.65451 0.0
H1667 H 0.94418 0.67552 0.66446 0.0
S1668 S 0.93182 0.79165 0.64813 0.0
N1669 N 0.97082 0.79703 0.64413 0.0
N1670 N 0.90808 0.75259 0.65658 0.0
C1671 C 0.93188 0.74234 0.65673 0.0
C1672 C 0.96603 0.76647 0.64997 0.0
C1673 C 0.24727 0.21862 0.64585 0.0
C1674 C 0.21175 0.1948 0.64339 0.0
C1675 C 0.27142 0.20845 0.65037 0.0
C1676 C 0.26098 0.17412 0.65292 0.0
H1677 H 0.25665 0.24541 0.6439 0.0
H1678 H 0.29857 0.22758 0.65162 0.0
S1679 S 0.17172 0.10145 0.64773 0.0
N1680 N 0.16762 0.13504 0.64378 0.0
N1681 N 0.21341 0.11609 0.65182 0.0
C1682 C 0.22587 0.14993 0.65013 0.0
C1683 C 0.20113 0.16023 0.6456 0.0
C1684 C 0.82915 0.02454 0.65326 0.0
C1685 C 0.80776 0.00947 0.6362 0.0
C1686 C 0.82936 0.05148 0.6637 0.0
C1687 C 0.80812 0.06458 0.65762 0.0
H1688 H 0.84642 0.01583 0.65838 0.0
H1689 H 0.84734 0.06278 0.67623 0.0
S1690 S 0.74623 0.033 0.61417 0.0
N1691 N 0.76423 0.00899 0.6138 0.0
N1692 N 0.76377 0.05901 0.63374 0.0
C1693 C 0.78561 0.04886 0.64097 0.0
C1694 C 0.7856 0.02147 0.63022 0.0
C1695 C 0.43141 0.29394 0.72712 0.0
C1696 C 0.45456 0.32097 0.71481 0.0
C1697 C 0.40575 0.26331 0.71866 0.0
C1698 C 0.40205 0.25808 0.69745 0.0
H1699 H 0.43364 0.29608 0.74352 0.0
H1700 H 0.38914 0.24333 0.72899 0.0
S1701 S 0.45474 0.32161 0.65839 0.0
N1702 N 0.47108 0.34122 0.68025 0.0
N1703 N 0.42311 0.28332 0.66426 0.0
C1704 C 0.42471 0.28507 0.68489 0.0
C1705 C 0.45086 0.3165 0.69357 0.0
C1706 C 0.677 0.08123 0.71016 0.0
C1707 C 0.66988 0.10784 0.71271 0.0
C1708 C 0.71014 0.08751 0.70482 0.0
C1709 C 0.7375 0.12059 0.70135 0.0
H1710 H 0.65691 0.05525 0.71275 0.0
H1711 H 0.71441 0.06619 0.70338 0.0
S1712 S 0.733 0.19941 0.7063 0.0
N1713 N 0.69324 0.16877 0.71141 0.0
N1714 N 0.75568 0.18054 0.70159 0.0
C1715 C 0.73094 0.14755 0.70389 0.0
C1716 C 0.69711 0.14117 0.70948 0.0
C1717 C 0.8866 0.55388 0.69058 0.0
C1718 C 0.88603 0.5469 0.71144 0.0
C1719 C 0.87474 0.57523 0.68351 0.0
C1720 C 0.86234 0.5906 0.69709 0.0
H1721 H 0.89659 0.54299 0.67969 0.0
H1722 H 0.87642 0.58065 0.66744 0.0
S1723 S 0.85428 0.57974 0.75299 0.0
N1724 N 0.87135 0.55664 0.7455 0.0
N1725 N 0.84863 0.59628 0.73212 0.0
C1726 C 0.86095 0.5833 0.71788 0.0
C1727 C 0.87284 0.56151 0.72508 0.0
C1728 C 0.52742 0.99354 0.18678 0.0
C1729 C 0.49294 0.96955 0.1917 0.0
C1730 C 0.53602 0.0099 0.1679 0.0
C1731 C 0.5106 0.00291 0.15299 0.0
H1732 H 0.54789 0.00062 0.19788 0.0
H1733 H 0.56286 0.02858 0.16507 0.0
S1734 S 0.41672 0.94066 0.15767 0.0
N1735 N 0.4334 0.9383 0.17958 0.0
N1736 N 0.4495 0.96937 0.14423 0.0
C1737 C 0.47615 0.9782 0.15742 0.0
C1738 C 0.46734 0.96158 0.17672 0.0
C1739 C 0.01726 0.50396 0.18338 0.0
C1740 C 0.04318 0.53816 0.18597 0.0
C1741 C 0.99572 0.49314 0.16616 0.0
C1742 C 0.99954 0.51607 0.15086 0.0
H1743 H 0.01431 0.48517 0.1944 0.0
H1744 H 0.97674 0.46647 0.16447 0.0
S1745 S 0.06036 0.60877 0.1513 0.0
N1746 N 0.06892 0.59537 0.17258 0.0
N1747 N 0.02913 0.57468 0.13995 0.0
C1748 C 0.02444 0.55042 0.15352 0.0
C1749 C 0.04608 0.56155 0.17114 0.0
C1750 C 0.51029 0.54036 0.17783 0.0
C1751 C 0.49225 0.5139 0.19176 0.0
C1752 C 0.52072 0.5343 0.15881 0.0
C1753 C 0.51407 0.50171 0.15325 0.0
H1754 H 0.51687 0.56601 0.18181 0.0
H1755 H 0.5352 0.55546 0.14871 0.0
S1756 S 0.46697 0.42371 0.1839 0.0
N1757 N 0.46741 0.45374 0.19832 0.0
N1758 N 0.48729 0.44253 0.16276 0.0
C1759 C 0.4954 0.47497 0.16681 0.0
C1760 C 0.4844 0.48101 0.18601 0.0
C1761 C 0.98604 0.48473 0.84903 0.0
C1762 C 0.95903 0.48645 0.83909 0.0
C1763 C 0.99404 0.49452 0.86947 0.0
C1764 C 0.97535 0.50642 0.88067 0.0
H1765 H 1.00216 0.47728 0.8407 0.0
H1766 H 0.01605 0.49431 0.87626 0.0
S1767 S 0.89897 0.51081 0.86266 0.0
N1768 N 0.91117 0.49729 0.84266 0.0
N1769 N 0.92638 0.51589 0.88105 0.0
C1770 C 0.94708 0.50643 0.87126 0.0
C1771 C 0.93889 0.4964 0.85049 0.0
C1772 C 0.49029 0.46704 0.84141 0.0
C1773 C 0.52555 0.47724 0.83924 0.0
C1774 C 0.47774 0.47391 0.85936 0.0
C1775 C 0.50001 0.49144 0.8758 0.0
H1776 H 0.4721 0.4529 0.82934 0.0
H1777 H 0.45024 0.46483 0.8605 0.0
S1778 S 0.59527 0.52676 0.87678 0.0
N1779 N 0.58294 0.50758 0.85444 0.0
N1780 N 0.55961 0.5211 0.88797 0.0
C1781 C 0.53554 0.50262 0.87354 0.0
C1782 C 0.54823 0.4954 0.85533 0.0
C1783 C 0.46942 0.99534 0.83868 0.0
C1784 C 0.50203 0.02367 0.83438 0.0
C1785 C 0.46171 0.98021 0.8579 0.0
C1786 C 0.48625 0.9925 0.87381 0.0
H1787 H 0.44981 0.98403 0.82692 0.0
H1788 H 0.43628 0.95832 0.86023 0.0
S1789 S 0.57503 0.0671 0.87099 0.0
N1790 N 0.55856 0.06458 0.84813 0.0
N1791 N 0.54444 0.03543 0.88406 0.0
C1792 C 0.51873 0.02131 0.86994 0.0
C1793 C 0.52657 0.03691 0.8503 0.0
C1794 C 0.13179 0.2963 0.51151 0.0
C1795 C 0.15604 0.30327 0.52721 0.0
C1796 C 0.14181 0.31364 0.49287 0.0
C1797 C 0.17639 0.33895 0.4893 0.0
H1798 H 0.10479 0.27749 0.51372 0.0
H1799 H 0.12215 0.30796 0.48143 0.0
S1800 S 0.25014 0.36629 0.52507 0.0
N1801 N 0.21639 0.33713 0.53763 0.0
N1802 N 0.23511 0.36898 0.50267 0.0
C1803 C 0.20097 0.34557 0.50466 0.0
C1804 C 0.19085 0.32795 0.52356 0.0
C1805 C 0.72275 0.84577 0.49715 0.0
C1806 C 0.71928 0.86201 0.51445 0.0
C1807 C 0.70119 0.83892 0.48018 0.0
C1808 C 0.67572 0.84859 0.47976 0.0
H1809 H 0.74241 0.83846 0.4967 0.0
H1810 H 0.70466 0.82608 0.46725 0.0
S1811 S 0.65755 0.89319 0.52123 0.0
N1812 N 0.68894 0.88782 0.53034 0.0
N1813 N 0.64908 0.87613 0.49821 0.0
C1814 C 0.67199 0.86478 0.49711 0.0
C1815 C 0.69365 0.87127 0.5145 0.0
C1816 C 0.13997 0.8185 0.50475 0.0
C1817 C 0.16442 0.83537 0.52041 0.0
C1818 C 0.14922 0.80884 0.48648 0.0
C1819 C 0.18325 0.81553 0.48319 0.0
H1820 H 0.11322 0.81187 0.50684 0.0
H1821 H 0.12919 0.7946 0.47529 0.0
S1822 S 0.25787 0.86164 0.51831 0.0
N1823 N 0.22478 0.85979 0.5307 0.0
N1824 N 0.24216 0.8428 0.4962 0.0
C1825 C 0.20833 0.83402 0.49817 0.0
C1826 C 0.19896 0.84367 0.51679 0.0
C1827 C 0.67987 0.80208 0.16883 0.0
C1828 C 0.65827 0.81541 0.16417 0.0
C1829 C 0.69453 0.80613 0.18817 0.0
C1830 C 0.68852 0.82393 0.20371 0.0
H1831 H 0.68633 0.78911 0.15728 0.0
H1832 H 0.71101 0.79541 0.19091 0.0
S1833 S 0.6328 0.86272 0.19971 0.0
N1834 N 0.63007 0.84563 0.17707 0.0
N1835 N 0.65899 0.85466 0.21321 0.0
C1836 C 0.66648 0.83692 0.19942 0.0
C1837 C 0.65118 0.83245 0.17972 0.0
C1838 C 0.19979 0.84323 0.18436 0.0
C1839 C 0.19248 0.80979 0.18084 0.0
C1840 C 0.18826 0.85197 0.20203 0.0
C1841 C 0.16899 0.82763 0.21687 0.0
H1842 H 0.21516 0.86296 0.17358 0.0
H1843 H 0.19501 0.87815 0.20425 0.0
S1844 S 0.14004 0.73591 0.214 0.0
N1845 N 0.16273 0.75176 0.19304 0.0
N1846 N 0.14121 0.76824 0.22623 0.0
C1847 C 0.16087 0.79397 0.21334 0.0
C1848 C 0.17255 0.78505 0.19534 0.0
C1849 C 0.15093 0.34694 0.17501 0.0
C1850 C 0.18569 0.37073 0.17053 0.0
C1851 C 0.14117 0.33147 0.19411 0.0
C1852 C 0.16565 0.33899 0.20972 0.0
H1853 H 0.13107 0.3393 0.16344 0.0
H1854 H 0.11413 0.31297 0.19657 0.0
S1855 S 0.25981 0.40099 0.2064 0.0
N1856 N 0.24447 0.40249 0.18383 0.0
N1857 N 0.22622 0.37283 0.21957 0.0
C1858 C 0.20037 0.36348 0.20571 0.0
C1859 C 0.21036 0.37933 0.18618 0.0
C1860 C 0.80262 0.63133 0.84471 0.0
C1861 C 0.82497 0.62636 0.85754 0.0
C1862 C 0.81354 0.64642 0.82549 0.0
C1863 C 0.84743 0.65766 0.81856 0.0
H1864 H 0.7767 0.62408 0.84975 0.0
H1865 H 0.79586 0.65061 0.81636 0.0
S1866 S 0.91567 0.64973 0.84584 0.0
N1867 N 0.88227 0.63305 0.86147 0.0
N1868 N 0.90272 0.66158 0.82559 0.0
C1869 C 0.86966 0.65202 0.83096 0.0
C1870 C 0.85846 0.63632 0.85036 0.0
C1871 C 0.34921 0.15972 0.83732 0.0
C1872 C 0.35348 0.18616 0.85035 0.0
C1873 C 0.32855 0.15135 0.8198 0.0
C1874 C 0.31106 0.16883 0.81481 0.0
H1875 H 0.36294 0.1462 0.84028 0.0
H1876 H 0.32661 0.13134 0.80992 0.0
S1877 S 0.31216 0.23879 0.84457 0.0
N1878 N 0.3373 0.22873 0.85761 0.0
N1879 N 0.29849 0.21304 0.82464 0.0
C1880 C 0.31417 0.19455 0.82807 0.0
C1881 C 0.33543 0.20325 0.84583 0.0
C1882 C 0.85251 0.19215 0.85424 0.0
C1883 C 0.81716 0.17681 0.85927 0.0
C1884 C 0.8632 0.18676 0.83521 0.0
C1885 C 0.83902 0.16601 0.82034 0.0
H1886 H 0.87219 0.20766 0.86533 0.0
H1887 H 0.89072 0.19871 0.83219 0.0
S1888 S 0.74334 0.1213 0.82547 0.0
N1889 N 0.7579 0.14112 0.84749 0.0
N1890 N 0.77802 0.13074 0.81174 0.0
C1891 C 0.80356 0.15124 0.82493 0.0
C1892 C 0.79264 0.1566 0.8444 0.0
C1893 C 0.36298 0.20435 0.50971 0.0
C1894 C 0.33179 0.17372 0.50641 0.0
C1895 C 0.38013 0.21177 0.5285 0.0
C1896 C 0.36651 0.18907 0.54479 0.0
H1897 H 0.37483 0.22229 0.49746 0.0
H1898 H 0.40445 0.23534 0.53024 0.0
S1899 S 0.28497 0.10611 0.54436 0.0
N1900 N 0.28748 0.12094 0.5212 0.0
N1901 N 0.31964 0.13512 0.55666 0.0
C1902 C 0.3349 0.15877 0.54192 0.0
C1903 C 0.31761 0.151 0.52268 0.0
C1904 C 0.87613 0.15846 0.52548 0.0
C1905 C 0.85692 0.14411 0.50757 0.0
C1906 C 0.86106 0.16451 0.54255 0.0
C1907 C 0.82605 0.15609 0.54249 0.0
H1908 H 0.90307 0.16508 0.52627 0.0
H1909 H 0.87706 0.17599 0.55589 0.0
S1910 S 0.76407 0.11584 0.49965 0.0
N1911 N 0.80101 0.12077 0.49087 0.0
N1912 N 0.77226 0.13122 0.52308 0.0
C1913 C 0.80653 0.14153 0.52464 0.0
C1914 C 0.82205 0.13575 0.50718 0.0
C1915 C 0.81093 0.67819 0.5052 0.0
C1916 C 0.84579 0.70247 0.50136 0.0
C1917 C 0.80052 0.66168 0.52395 0.0
C1918 C 0.82443 0.66857 0.5398 0.0
H1919 H 0.79156 0.67096 0.49336 0.0
H1920 H 0.77345 0.64288 0.52594 0.0
S1921 S 0.91848 0.7316 0.53817 0.0
N1922 N 0.90394 0.73417 0.51556 0.0
N1923 N 0.88454 0.7024 0.55061 0.0
C1924 C 0.85921 0.69357 0.53646 0.0
C1925 C 0.86984 0.71054 0.5173 0.0
loop_
_geom_bond_atom_site_label_1
_geom_bond_atom_site_label_2
_geom_bond_distance
_geom_bond_site_symmetry_2
_ccdc_geom_bond_type
P0 O11 1.490 . S
P0 C14 1.812 . S
P0 C20 1.803 . S
P0 C26 1.819 . S
H1 C15 0.941 . S
H2 C16 0.939 . S
H3 C18 0.940 . S
H4 C19 0.940 . S
H5 C21 0.939 . S
H6 C22 0.942 . S
H7 C24 0.940 . S
H8 C25 0.939 . S
H9 C27 0.941 . S
H10 C31 0.939 . S
O11 P0 1.490 . S
H12 C28 0.939 . S
H13 C30 0.940 . S
C14 P0 1.812 . S
C14 C15 1.389 . S
C14 C19 1.391 . S
C15 H1 0.941 . S
C15 C14 1.389 . S
C15 C16 1.397 . S
C16 H2 0.939 . S
C16 C15 1.397 . S
C16 C17 1.378 . S
C17 C16 1.378 . S
C17 C18 1.378 . S
C18 H3 0.940 . S
C18 C17 1.378 . S
C18 C19 1.396 . S
C19 H4 0.940 . S
C19 C14 1.391 . S
C19 C18 1.396 . S
C20 P0 1.803 . S
C20 C21 1.378 . S
C20 C25 1.400 . S
C21 H5 0.939 . S
C21 C20 1.378 . S
C21 C22 1.361 . S
C22 H6 0.942 . S
C22 C21 1.361 . S
C22 C23 1.369 . S
C23 C22 1.369 . S
C23 C24 1.404 . S
C24 H7 0.940 . S
C24 C23 1.404 . S
C24 C25 1.389 . S
C25 H8 0.939 . S
C25 C20 1.400 . S
C25 C24 1.389 . S
C26 P0 1.819 . S
C26 C27 1.391 . S
C26 C31 1.391 . S
C27 H9 0.941 . S
C27 C26 1.391 . S
C27 C28 1.396 . S
C28 H12 0.939 . S
C28 C27 1.396 . S
C28 C29 1.397 . S
C29 C28 1.397 . S
C29 C30 1.385 . S
C30 H13 0.940 . S
C30 C29 1.385 . S
C30 C31 1.388 . S
C31 H10 0.939 . S
C31 C26 1.391 . S
C31 C30 1.388 . S
P32 O43 1.490 . S
P32 C46 1.812 . S
P32 C52 1.803 . S
P32 C58 1.819 . S
H33 C47 0.941 . S
H34 C48 0.939 . S
H35 C50 0.940 . S
H36 C51 0.940 . S
H37 C53 0.939 . S
H38 C54 0.942 1_455 S
H39 C56 0.940 . S
H40 C57 0.939 . S
H41 C59 0.941 . S
H42 C63 0.939 . S
O43 P32 1.490 . S
H44 C60 0.939 . S
H45 C62 0.940 . S
C46 P32 1.812 . S
C46 C47 1.389 . S
C46 C51 1.391 . S
C47 H33 0.941 . S
C47 C46 1.389 . S
C47 C48 1.397 . S
C48 H34 0.939 . S
C48 C47 1.397 . S
C48 C49 1.378 . S
C49 C48 1.378 . S
C49 C50 1.378 . S
C50 H35 0.940 . S
C50 C49 1.378 . S
C50 C51 1.396 . S
C51 H36 0.940 . S
C51 C46 1.391 . S
C51 C50 1.396 . S
C52 P32 1.803 . S
C52 C53 1.378 . S
C52 C57 1.400 . S
C53 H37 0.939 . S
C53 C52 1.378 . S
C53 C54 1.361 . S
C54 H38 0.942 1_655 S
C54 C53 1.361 . S
C54 C55 1.369 . S
C55 C54 1.369 . S
C55 C56 1.404 . S
C56 H39 0.940 . S
C56 C55 1.404 . S
C56 C57 1.389 . S
C57 H40 0.939 . S
C57 C52 1.400 . S
C57 C56 1.389 . S
C58 P32 1.819 . S
C58 C59 1.391 . S
C58 C63 1.391 . S
C59 H41 0.941 . S
C59 C58 1.391 . S
C59 C60 1.396 . S
C60 H44 0.939 . S
C60 C59 1.396 . S
C60 C61 1.397 . S
C61 C60 1.397 . S
C61 C62 1.385 . S
C62 H45 0.940 . S
C62 C61 1.385 . S
C62 C63 1.388 . S
C63 H42 0.939 . S
C63 C58 1.391 . S
C63 C62 1.388 . S
P64 O75 1.490 . S
P64 C78 1.812 . S
P64 C84 1.803 . S
P64 C90 1.819 . S
H65 C79 0.941 . S
H66 C80 0.939 . S
H67 C82 0.940 . S
H68 C83 0.940 . S
H69 C85 0.939 . S
H70 C86 0.942 . S
H71 C88 0.940 . S
H72 C89 0.939 . S
H73 C91 0.941 . S
H74 C95 0.939 . S
O75 P64 1.490 . S
H76 C92 0.939 . S
H77 C94 0.940 . S
C78 P64 1.812 . S
C78 C79 1.389 . S
C78 C83 1.391 . S
C79 H65 0.941 . S
C79 C78 1.389 . S
C79 C80 1.397 . S
C80 H66 0.939 . S
C80 C79 1.397 . S
C80 C81 1.378 . S
C81 C80 1.378 . S
C81 C82 1.378 . S
C82 H67 0.940 . S
C82 C81 1.378 . S
C82 C83 1.396 . S
C83 H68 0.940 . S
C83 C78 1.391 . S
C83 C82 1.396 . S
C84 P64 1.803 . S
C84 C85 1.378 . S
C84 C89 1.400 . S
C85 H69 0.939 . S
C85 C84 1.378 . S
C85 C86 1.361 . S
C86 H70 0.942 . S
C86 C85 1.361 . S
C86 C87 1.369 . S
C87 C86 1.369 . S
C87 C88 1.404 . S
C88 H71 0.940 . S
C88 C87 1.404 . S
C88 C89 1.389 . S
C89 H72 0.939 . S
C89 C84 1.400 . S
C89 C88 1.389 . S
C90 P64 1.819 . S
C90 C91 1.391 . S
C90 C95 1.391 . S
C91 H73 0.941 . S
C91 C90 1.391 . S
C91 C92 1.396 . S
C92 H76 0.939 . S
C92 C91 1.396 . S
C92 C93 1.397 . S
C93 C92 1.397 . S
C93 C94 1.385 . S
C94 H77 0.940 . S
C94 C93 1.385 . S
C94 C95 1.388 . S
C95 H74 0.939 . S
C95 C90 1.391 . S
C95 C94 1.388 . S
P96 O107 1.490 . S
P96 C110 1.812 . S
P96 C116 1.803 . S
P96 C122 1.819 . S
H97 C111 0.941 . S
H98 C112 0.939 . S
H99 C114 0.940 . S
H100 C115 0.940 . S
H101 C117 0.939 . S
H102 C118 0.942 . S
H103 C120 0.940 . S
H104 C121 0.939 . S
H105 C123 0.941 . S
H106 C127 0.939 . S
O107 P96 1.490 . S
H108 C124 0.939 . S
H109 C126 0.940 . S
C110 P96 1.812 . S
C110 C111 1.389 . S
C110 C115 1.391 . S
C111 H97 0.941 . S
C111 C110 1.389 . S
C111 C112 1.397 . S
C112 H98 0.939 . S
C112 C111 1.397 . S
C112 C113 1.378 . S
C113 C112 1.378 . S
C113 C114 1.378 . S
C114 H99 0.940 . S
C114 C113 1.378 . S
C114 C115 1.396 . S
C115 H100 0.940 . S
C115 C110 1.391 . S
C115 C114 1.396 . S
C116 P96 1.803 . S
C116 C117 1.378 . S
C116 C121 1.400 . S
C117 H101 0.939 . S
C117 C116 1.378 . S
C117 C118 1.361 . S
C118 H102 0.942 . S
C118 C117 1.361 . S
C118 C119 1.369 . S
C119 C118 1.369 . S
C119 C120 1.404 . S
C120 H103 0.940 . S
C120 C119 1.404 . S
C120 C121 1.389 . S
C121 H104 0.939 . S
C121 C116 1.400 . S
C121 C120 1.389 . S
C122 P96 1.819 . S
C122 C123 1.391 . S
C122 C127 1.391 . S
C123 H105 0.941 . S
C123 C122 1.391 . S
C123 C124 1.396 . S
C124 H108 0.939 . S
C124 C123 1.396 . S
C124 C125 1.397 . S
C125 C124 1.397 . S
C125 C126 1.385 . S
C126 H109 0.940 . S
C126 C125 1.385 . S
C126 C127 1.388 . S
C127 H106 0.939 . S
C127 C122 1.391 . S
C127 C126 1.388 . S
P128 O139 1.490 . S
P128 C142 1.812 . S
P128 C148 1.803 . S
P128 C154 1.819 . S
H129 C143 0.941 . S
H130 C144 0.939 . S
H131 C146 0.940 . S
H132 C147 0.940 . S
H133 C149 0.939 . S
H134 C150 0.942 . S
H135 C152 0.940 . S
H136 C153 0.939 . S
H137 C155 0.941 . S
H138 C159 0.939 . S
O139 P128 1.490 . S
H140 C156 0.939 . S
H141 C158 0.940 . S
C142 P128 1.812 . S
C142 C143 1.389 . S
C142 C147 1.391 . S
C143 H129 0.941 . S
C143 C142 1.389 . S
C143 C144 1.397 . S
C144 H130 0.939 . S
C144 C143 1.397 . S
C144 C145 1.378 . S
C145 C144 1.378 . S
C145 C146 1.378 . S
C146 H131 0.940 . S
C146 C145 1.378 . S
C146 C147 1.396 . S
C147 H132 0.940 . S
C147 C142 1.391 . S
C147 C146 1.396 . S
C148 P128 1.803 . S
C148 C149 1.378 . S
C148 C153 1.400 . S
C149 H133 0.939 . S
C149 C148 1.378 . S
C149 C150 1.361 . S
C150 H134 0.942 . S
C150 C149 1.361 . S
C150 C151 1.369 . S
C151 C150 1.369 . S
C151 C152 1.404 . S
C152 H135 0.940 . S
C152 C151 1.404 . S
C152 C153 1.389 . S
C153 H136 0.939 . S
C153 C148 1.400 . S
C153 C152 1.389 . S
C154 P128 1.819 . S
C154 C155 1.391 . S
C154 C159 1.391 . S
C155 H137 0.941 . S
C155 C154 1.391 . S
C155 C156 1.396 . S
C156 H140 0.939 . S
C156 C155 1.396 . S
C156 C157 1.397 . S
C157 C156 1.397 . S
C157 C158 1.385 . S
C158 H141 0.940 . S
C158 C157 1.385 . S
C158 C159 1.388 . S
C159 H138 0.939 . S
C159 C154 1.391 . S
C159 C158 1.388 . S
P160 O171 1.490 . S
P160 C174 1.812 . S
P160 C180 1.803 . S
P160 C186 1.819 . S
H161 C175 0.941 . S
H162 C176 0.939 . S
H163 C178 0.940 . S
H164 C179 0.940 . S
H165 C181 0.939 . S
H166 C182 0.942 . S
H167 C184 0.940 . S
H168 C185 0.939 . S
H169 C187 0.941 . S
H170 C191 0.939 . S
O171 P160 1.490 . S
H172 C188 0.939 . S
H173 C190 0.940 . S
C174 P160 1.812 . S
C174 C175 1.389 . S
C174 C179 1.391 . S
C175 H161 0.941 . S
C175 C174 1.389 . S
C175 C176 1.397 . S
C176 H162 0.939 . S
C176 C175 1.397 . S
C176 C177 1.378 . S
C177 C176 1.378 . S
C177 C178 1.378 . S
C178 H163 0.940 . S
C178 C177 1.378 . S
C178 C179 1.396 . S
C179 H164 0.940 . S
C179 C174 1.391 . S
C179 C178 1.396 . S
C180 P160 1.803 . S
C180 C181 1.378 . S
C180 C185 1.400 . S
C181 H165 0.939 . S
C181 C180 1.378 . S
C181 C182 1.361 . S
C182 H166 0.942 . S
C182 C181 1.361 . S
C182 C183 1.369 . S
C183 C182 1.369 . S
C183 C184 1.404 . S
C184 H167 0.940 . S
C184 C183 1.404 . S
C184 C185 1.389 . S
C185 H168 0.939 . S
C185 C180 1.400 . S
C185 C184 1.389 . S
C186 P160 1.819 . S
C186 C187 1.391 . S
C186 C191 1.391 . S
C187 H169 0.941 . S
C187 C186 1.391 . S
C187 C188 1.396 . S
C188 H172 0.939 . S
C188 C187 1.396 . S
C188 C189 1.397 . S
C189 C188 1.397 . S
C189 C190 1.385 . S
C190 H173 0.940 . S
C190 C189 1.385 . S
C190 C191 1.388 . S
C191 H170 0.939 . S
C191 C186 1.391 . S
C191 C190 1.388 . S
P192 O203 1.490 . S
P192 C206 1.812 . S
P192 C212 1.803 . S
P192 C218 1.819 . S
H193 C207 0.941 . S
H194 C208 0.939 . S
H195 C210 0.940 . S
H196 C211 0.940 . S
H197 C213 0.939 . S
H198 C214 0.942 . S
H199 C216 0.940 . S
H200 C217 0.939 . S
H201 C219 0.941 . S
H202 C223 0.939 . S
O203 P192 1.490 . S
H204 C220 0.939 . S
H205 C222 0.940 . S
C206 P192 1.812 . S
C206 C207 1.389 . S
C206 C211 1.391 . S
C207 H193 0.941 . S
C207 C206 1.389 . S
C207 C208 1.397 . S
C208 H194 0.939 . S
C208 C207 1.397 . S
C208 C209 1.378 . S
C209 C208 1.378 . S
C209 C210 1.378 . S
C210 H195 0.940 . S
C210 C209 1.378 . S
C210 C211 1.396 . S
C211 H196 0.940 . S
C211 C206 1.391 . S
C211 C210 1.396 . S
C212 P192 1.803 . S
C212 C213 1.378 . S
C212 C217 1.400 . S
C213 H197 0.939 . S
C213 C212 1.378 . S
C213 C214 1.361 . S
C214 H198 0.942 . S
C214 C213 1.361 . S
C214 C215 1.369 . S
C215 C214 1.369 . S
C215 C216 1.404 . S
C216 H199 0.940 . S
C216 C215 1.404 . S
C216 C217 1.389 . S
C217 H200 0.939 . S
C217 C212 1.400 . S
C217 C216 1.389 . S
C218 P192 1.819 . S
C218 C219 1.391 . S
C218 C223 1.391 . S
C219 H201 0.941 . S
C219 C218 1.391 . S
C219 C220 1.396 . S
C220 H204 0.939 . S
C220 C219 1.396 . S
C220 C221 1.397 . S
C221 C220 1.397 . S
C221 C222 1.385 . S
C222 H205 0.940 . S
C222 C221 1.385 . S
C222 C223 1.388 . S
C223 H202 0.939 . S
C223 C218 1.391 . S
C223 C222 1.388 . S
P224 O235 1.490 . S
P224 C238 1.812 . S
P224 C244 1.803 . S
P224 C250 1.819 . S
H225 C239 0.941 . S
H226 C240 0.939 . S
H227 C242 0.940 . S
H228 C243 0.940 . S
H229 C245 0.939 . S
H230 C246 0.942 . S
H231 C248 0.940 . S
H232 C249 0.939 . S
H233 C251 0.941 . S
H234 C255 0.939 . S
O235 P224 1.490 . S
H236 C252 0.939 . S
H237 C254 0.940 . S
C238 P224 1.812 . S
C238 C239 1.389 . S
C238 C243 1.391 . S
C239 H225 0.941 . S
C239 C238 1.389 . S
C239 C240 1.397 . S
C240 H226 0.939 . S
C240 C239 1.397 . S
C240 C241 1.378 . S
C241 C240 1.378 . S
C241 C242 1.378 . S
C242 H227 0.940 . S
C242 C241 1.378 . S
C242 C243 1.396 . S
C243 H228 0.940 . S
C243 C238 1.391 . S
C243 C242 1.396 . S
C244 P224 1.803 . S
C244 C245 1.378 . S
C244 C249 1.400 . S
C245 H229 0.939 . S
C245 C244 1.378 . S
C245 C246 1.361 . S
C246 H230 0.942 . S
C246 C245 1.361 . S
C246 C247 1.369 . S
C247 C246 1.369 . S
C247 C248 1.404 . S
C248 H231 0.940 . S
C248 C247 1.404 . S
C248 C249 1.389 . S
C249 H232 0.939 . S
C249 C244 1.400 . S
C249 C248 1.389 . S
C250 P224 1.819 . S
C250 C251 1.391 . S
C250 C255 1.391 . S
C251 H233 0.941 . S
C251 C250 1.391 . S
C251 C252 1.396 . S
C252 H236 0.939 . S
C252 C251 1.396 . S
C252 C253 1.397 . S
C253 C252 1.397 . S
C253 C254 1.385 . S
C254 H237 0.940 . S
C254 C253 1.385 . S
C254 C255 1.388 . S
C255 H234 0.939 . S
C255 C250 1.391 . S
C255 C254 1.388 . S
P256 O267 1.490 . S
P256 C270 1.812 . S
P256 C276 1.803 . S
P256 C282 1.819 . S
H257 C271 0.941 . S
H258 C272 0.939 . S
H259 C274 0.940 . S
H260 C275 0.940 . S
H261 C277 0.939 . S
H262 C278 0.942 . S
H263 C280 0.940 . S
H264 C281 0.939 . S
H265 C283 0.941 . S
H266 C287 0.939 . S
O267 P256 1.490 . S
H268 C284 0.939 . S
H269 C286 0.940 . S
C270 P256 1.812 . S
C270 C271 1.389 . S
C270 C275 1.391 . S
C271 H257 0.941 . S
C271 C270 1.389 . S
C271 C272 1.397 . S
C272 H258 0.939 . S
C272 C271 1.397 . S
C272 C273 1.378 . S
C273 C272 1.378 . S
C273 C274 1.378 . S
C274 H259 0.940 . S
C274 C273 1.378 . S
C274 C275 1.396 . S
C275 H260 0.940 . S
C275 C270 1.391 . S
C275 C274 1.396 . S
C276 P256 1.803 . S
C276 C277 1.378 . S
C276 C281 1.400 . S
C277 H261 0.939 . S
C277 C276 1.378 . S
C277 C278 1.361 . S
C278 H262 0.942 . S
C278 C277 1.361 . S
C278 C279 1.369 . S
C279 C278 1.369 . S
C279 C280 1.404 . S
C280 H263 0.940 . S
C280 C279 1.404 . S
C280 C281 1.389 . S
C281 H264 0.939 . S
C281 C276 1.400 . S
C281 C280 1.389 . S
C282 P256 1.819 . S
C282 C283 1.391 . S
C282 C287 1.391 . S
C283 H265 0.941 . S
C283 C282 1.391 . S
C283 C284 1.396 . S
C284 H268 0.939 . S
C284 C283 1.396 . S
C284 C285 1.397 . S
C285 C284 1.397 . S
C285 C286 1.385 . S
C286 H269 0.940 . S
C286 C285 1.385 . S
C286 C287 1.388 . S
C287 H266 0.939 . S
C287 C282 1.391 . S
C287 C286 1.388 . S
P288 O299 1.490 . S
P288 C302 1.812 . S
P288 C308 1.803 . S
P288 C314 1.819 . S
H289 C303 0.941 . S
H290 C304 0.939 . S
H291 C306 0.940 . S
H292 C307 0.940 . S
H293 C309 0.939 . S
H294 C310 0.942 . S
H295 C312 0.940 . S
H296 C313 0.939 . S
H297 C315 0.941 . S
H298 C319 0.939 . S
O299 P288 1.490 . S
H300 C316 0.939 . S
H301 C318 0.940 . S
C302 P288 1.812 . S
C302 C303 1.389 . S
C302 C307 1.391 . S
C303 H289 0.941 . S
C303 C302 1.389 . S
C303 C304 1.397 . S
C304 H290 0.939 . S
C304 C303 1.397 . S
C304 C305 1.378 . S
C305 C304 1.378 . S
C305 C306 1.378 . S
C306 H291 0.940 . S
C306 C305 1.378 . S
C306 C307 1.396 . S
C307 H292 0.940 . S
C307 C302 1.391 . S
C307 C306 1.396 . S
C308 P288 1.803 . S
C308 C309 1.378 . S
C308 C313 1.400 . S
C309 H293 0.939 . S
C309 C308 1.378 . S
C309 C310 1.361 . S
C310 H294 0.942 . S
C310 C309 1.361 . S
C310 C311 1.369 . S
C311 C310 1.369 . S
C311 C312 1.404 . S
C312 H295 0.940 . S
C312 C311 1.404 . S
C312 C313 1.389 . S
C313 H296 0.939 . S
C313 C308 1.400 . S
C313 C312 1.389 . S
C314 P288 1.819 . S
C314 C315 1.391 . S
C314 C319 1.391 . S
C315 H297 0.941 . S
C315 C314 1.391 . S
C315 C316 1.396 . S
C316 H300 0.939 . S
C316 C315 1.396 . S
C316 C317 1.397 . S
C317 C316 1.397 . S
C317 C318 1.385 . S
C318 H301 0.940 . S
C318 C317 1.385 . S
C318 C319 1.388 . S
C319 H298 0.939 . S
C319 C314 1.391 . S
C319 C318 1.388 . S
P320 O331 1.490 . S
P320 C334 1.812 . S
P320 C340 1.803 . S
P320 C346 1.819 . S
H321 C335 0.941 . S
H322 C336 0.939 . S
H323 C338 0.940 . S
H324 C339 0.940 . S
H325 C341 0.939 . S
H326 C342 0.942 . S
H327 C344 0.940 . S
H328 C345 0.939 . S
H329 C347 0.941 . S
H330 C351 0.939 . S
O331 P320 1.490 . S
H332 C348 0.939 . S
H333 C350 0.940 . S
C334 P320 1.812 . S
C334 C335 1.389 . S
C334 C339 1.391 . S
C335 H321 0.941 . S
C335 C334 1.389 . S
C335 C336 1.397 . S
C336 H322 0.939 . S
C336 C335 1.397 . S
C336 C337 1.378 . S
C337 C336 1.378 . S
C337 C338 1.378 . S
C338 H323 0.940 . S
C338 C337 1.378 . S
C338 C339 1.396 . S
C339 H324 0.940 . S
C339 C334 1.391 . S
C339 C338 1.396 . S
C340 P320 1.803 . S
C340 C341 1.378 . S
C340 C345 1.400 . S
C341 H325 0.939 . S
C341 C340 1.378 . S
C341 C342 1.361 . S
C342 H326 0.942 . S
C342 C341 1.361 . S
C342 C343 1.369 . S
C343 C342 1.369 . S
C343 C344 1.404 . S
C344 H327 0.940 . S
C344 C343 1.404 . S
C344 C345 1.389 . S
C345 H328 0.939 . S
C345 C340 1.400 . S
C345 C344 1.389 . S
C346 P320 1.819 . S
C346 C347 1.391 . S
C346 C351 1.391 . S
C347 H329 0.941 . S
C347 C346 1.391 . S
C347 C348 1.396 . S
C348 H332 0.939 . S
C348 C347 1.396 . S
C348 C349 1.397 . S
C349 C348 1.397 . S
C349 C350 1.385 . S
C350 H333 0.940 . S
C350 C349 1.385 . S
C350 C351 1.388 . S
C351 H330 0.939 . S
C351 C346 1.391 . S
C351 C350 1.388 . S
P352 O363 1.490 . S
P352 C366 1.812 . S
P352 C372 1.803 . S
P352 C378 1.819 . S
H353 C367 0.941 . S
H354 C368 0.939 . S
H355 C370 0.940 . S
H356 C371 0.940 . S
H357 C373 0.939 . S
H358 C374 0.942 . S
H359 C376 0.940 . S
H360 C377 0.939 . S
H361 C379 0.941 . S
H362 C383 0.939 . S
O363 P352 1.490 . S
H364 C380 0.939 . S
H365 C382 0.940 . S
C366 P352 1.812 . S
C366 C367 1.389 . S
C366 C371 1.391 . S
C367 H353 0.941 . S
C367 C366 1.389 . S
C367 C368 1.397 . S
C368 H354 0.939 . S
C368 C367 1.397 . S
C368 C369 1.378 . S
C369 C368 1.378 . S
C369 C370 1.378 . S
C370 H355 0.940 . S
C370 C369 1.378 . S
C370 C371 1.396 . S
C371 H356 0.940 . S
C371 C366 1.391 . S
C371 C370 1.396 . S
C372 P352 1.803 . S
C372 C373 1.378 . S
C372 C377 1.400 . S
C373 H357 0.939 . S
C373 C372 1.378 . S
C373 C374 1.361 . S
C374 H358 0.942 . S
C374 C373 1.361 . S
C374 C375 1.369 . S
C375 C374 1.369 . S
C375 C376 1.404 . S
C376 H359 0.940 . S
C376 C375 1.404 . S
C376 C377 1.389 . S
C377 H360 0.939 . S
C377 C372 1.400 . S
C377 C376 1.389 . S
C378 P352 1.819 . S
C378 C379 1.391 . S
C378 C383 1.391 . S
C379 H361 0.941 . S
C379 C378 1.391 . S
C379 C380 1.396 . S
C380 H364 0.939 . S
C380 C379 1.396 . S
C380 C381 1.397 . S
C381 C380 1.397 . S
C381 C382 1.385 . S
C382 H365 0.940 . S
C382 C381 1.385 . S
C382 C383 1.388 . S
C383 H362 0.939 . S
C383 C378 1.391 . S
C383 C382 1.388 . S
P384 O395 1.490 . S
P384 C398 1.812 . S
P384 C404 1.803 . S
P384 C410 1.819 . S
H385 C399 0.941 . S
H386 C400 0.939 . S
H387 C402 0.940 . S
H388 C403 0.940 . S
H389 C405 0.939 . S
H390 C406 0.942 . S
H391 C408 0.940 . S
H392 C409 0.939 . S
H393 C411 0.941 . S
H394 C415 0.939 . S
O395 P384 1.490 . S
H396 C412 0.939 . S
H397 C414 0.940 . S
C398 P384 1.812 . S
C398 C399 1.389 . S
C398 C403 1.391 . S
C399 H385 0.941 . S
C399 C398 1.389 . S
C399 C400 1.397 . S
C400 H386 0.939 . S
C400 C399 1.397 . S
C400 C401 1.378 . S
C401 C400 1.378 . S
C401 C402 1.378 . S
C402 H387 0.940 . S
C402 C401 1.378 . S
C402 C403 1.396 . S
C403 H388 0.940 . S
C403 C398 1.391 . S
C403 C402 1.396 . S
C404 P384 1.803 . S
C404 C405 1.378 . S
C404 C409 1.400 . S
C405 H389 0.939 . S
C405 C404 1.378 . S
C405 C406 1.361 . S
C406 H390 0.942 . S
C406 C405 1.361 . S
C406 C407 1.369 . S
C407 C406 1.369 . S
C407 C408 1.404 . S
C408 H391 0.940 . S
C408 C407 1.404 . S
C408 C409 1.389 . S
C409 H392 0.939 . S
C409 C404 1.400 . S
C409 C408 1.389 . S
C410 P384 1.819 . S
C410 C411 1.391 . S
C410 C415 1.391 . S
C411 H393 0.941 . S
C411 C410 1.391 . S
C411 C412 1.396 . S
C412 H396 0.939 . S
C412 C411 1.396 . S
C412 C413 1.397 . S
C413 C412 1.397 . S
C413 C414 1.385 . S
C414 H397 0.940 . S
C414 C413 1.385 . S
C414 C415 1.388 . S
C415 H394 0.939 . S
C415 C410 1.391 . S
C415 C414 1.388 . S
P416 O427 1.490 . S
P416 C430 1.812 . S
P416 C436 1.803 . S
P416 C442 1.819 . S
H417 C431 0.941 . S
H418 C432 0.939 . S
H419 C434 0.940 . S
H420 C435 0.940 . S
H421 C437 0.939 . S
H422 C438 0.942 . S
H423 C440 0.940 . S
H424 C441 0.939 . S
H425 C443 0.941 . S
H426 C447 0.939 . S
O427 P416 1.490 . S
H428 C444 0.939 . S
H429 C446 0.940 . S
C430 P416 1.812 . S
C430 C431 1.389 . S
C430 C435 1.391 . S
C431 H417 0.941 . S
C431 C430 1.389 . S
C431 C432 1.397 . S
C432 H418 0.939 . S
C432 C431 1.397 . S
C432 C433 1.378 . S
C433 C432 1.378 . S
C433 C434 1.378 . S
C434 H419 0.940 . S
C434 C433 1.378 . S
C434 C435 1.396 . S
C435 H420 0.940 . S
C435 C430 1.391 . S
C435 C434 1.396 . S
C436 P416 1.803 . S
C436 C437 1.378 . S
C436 C441 1.400 . S
C437 H421 0.939 . S
C437 C436 1.378 . S
C437 C438 1.361 . S
C438 H422 0.942 . S
C438 C437 1.361 . S
C438 C439 1.369 . S
C439 C438 1.369 . S
C439 C440 1.404 . S
C440 H423 0.940 . S
C440 C439 1.404 . S
C440 C441 1.389 . S
C441 H424 0.939 . S
C441 C436 1.400 . S
C441 C440 1.389 . S
C442 P416 1.819 . S
C442 C443 1.391 . S
C442 C447 1.391 . S
C443 H425 0.941 . S
C443 C442 1.391 . S
C443 C444 1.396 . S
C444 H428 0.939 . S
C444 C443 1.396 . S
C444 C445 1.397 . S
C445 C444 1.397 . S
C445 C446 1.385 . S
C446 H429 0.940 . S
C446 C445 1.385 . S
C446 C447 1.388 . S
C447 H426 0.939 . S
C447 C442 1.391 . S
C447 C446 1.388 . S
P448 O459 1.490 . S
P448 C462 1.812 . S
P448 C468 1.803 . S
P448 C474 1.819 . S
H449 C463 0.941 . S
H450 C464 0.939 . S
H451 C466 0.940 . S
H452 C467 0.940 . S
H453 C469 0.939 . S
H454 C470 0.942 . S
H455 C472 0.940 . S
H456 C473 0.939 . S
H457 C475 0.941 . S
H458 C479 0.939 . S
O459 P448 1.490 . S
H460 C476 0.939 . S
H461 C478 0.940 . S
C462 P448 1.812 . S
C462 C463 1.389 . S
C462 C467 1.391 . S
C463 H449 0.941 . S
C463 C462 1.389 . S
C463 C464 1.397 . S
C464 H450 0.939 . S
C464 C463 1.397 . S
C464 C465 1.378 . S
C465 C464 1.378 . S
C465 C466 1.378 . S
C466 H451 0.940 . S
C466 C465 1.378 . S
C466 C467 1.396 . S
C467 H452 0.940 . S
C467 C462 1.391 . S
C467 C466 1.396 . S
C468 P448 1.803 . S
C468 C469 1.378 . S
C468 C473 1.400 . S
C469 H453 0.939 . S
C469 C468 1.378 . S
C469 C470 1.361 . S
C470 H454 0.942 . S
C470 C469 1.361 . S
C470 C471 1.369 . S
C471 C470 1.369 . S
C471 C472 1.404 . S
C472 H455 0.940 . S
C472 C471 1.404 . S
C472 C473 1.389 . S
C473 H456 0.939 . S
C473 C468 1.400 . S
C473 C472 1.389 . S
C474 P448 1.819 . S
C474 C475 1.391 . S
C474 C479 1.391 . S
C475 H457 0.941 . S
C475 C474 1.391 . S
C475 C476 1.396 . S
C476 H460 0.939 . S
C476 C475 1.396 . S
C476 C477 1.397 . S
C477 C476 1.397 . S
C477 C478 1.385 . S
C478 H461 0.940 . S
C478 C477 1.385 . S
C478 C479 1.388 . S
C479 H458 0.939 . S
C479 C474 1.391 . S
C479 C478 1.388 . S
P480 O491 1.490 . S
P480 C494 1.812 . S
P480 C500 1.803 . S
P480 C506 1.819 . S
H481 C495 0.941 . S
H482 C496 0.939 . S
H483 C498 0.940 . S
H484 C499 0.940 . S
H485 C501 0.939 . S
H486 C502 0.942 . S
H487 C504 0.940 . S
H488 C505 0.939 . S
H489 C507 0.941 . S
H490 C511 0.939 . S
O491 P480 1.490 . S
H492 C508 0.939 . S
H493 C510 0.940 . S
C494 P480 1.812 . S
C494 C495 1.389 . S
C494 C499 1.391 . S
C495 H481 0.941 . S
C495 C494 1.389 . S
C495 C496 1.397 . S
C496 H482 0.939 . S
C496 C495 1.397 . S
C496 C497 1.378 . S
C497 C496 1.378 . S
C497 C498 1.378 . S
C498 H483 0.940 . S
C498 C497 1.378 . S
C498 C499 1.396 . S
C499 H484 0.940 . S
C499 C494 1.391 . S
C499 C498 1.396 . S
C500 P480 1.803 . S
C500 C501 1.378 . S
C500 C505 1.400 . S
C501 H485 0.939 . S
C501 C500 1.378 . S
C501 C502 1.361 . S
C502 H486 0.942 . S
C502 C501 1.361 . S
C502 C503 1.369 . S
C503 C502 1.369 . S
C503 C504 1.404 . S
C504 H487 0.940 . S
C504 C503 1.404 . S
C504 C505 1.389 . S
C505 H488 0.939 . S
C505 C500 1.400 . S
C505 C504 1.389 . S
C506 P480 1.819 . S
C506 C507 1.391 . S
C506 C511 1.391 . S
C507 H489 0.941 . S
C507 C506 1.391 . S
C507 C508 1.396 . S
C508 H492 0.939 . S
C508 C507 1.396 . S
C508 C509 1.397 . S
C509 C508 1.397 . S
C509 C510 1.385 . S
C510 H493 0.940 . S
C510 C509 1.385 . S
C510 C511 1.388 . S
C511 H490 0.939 . S
C511 C506 1.391 . S
C511 C510 1.388 . S
P512 O523 1.490 . S
P512 C526 1.812 . S
P512 C532 1.803 . S
P512 C538 1.819 . S
H513 C527 0.941 . S
H514 C528 0.939 . S
H515 C530 0.940 . S
H516 C531 0.940 . S
H517 C533 0.939 . S
H518 C534 0.942 . S
H519 C536 0.940 . S
H520 C537 0.939 . S
H521 C539 0.941 . S
H522 C543 0.939 . S
O523 P512 1.490 . S
H524 C540 0.939 . S
H525 C542 0.940 . S
C526 P512 1.812 . S
C526 C527 1.389 . S
C526 C531 1.391 . S
C527 H513 0.941 . S
C527 C526 1.389 . S
C527 C528 1.397 . S
C528 H514 0.939 . S
C528 C527 1.397 . S
C528 C529 1.378 . S
C529 C528 1.378 . S
C529 C530 1.378 . S
C530 H515 0.940 . S
C530 C529 1.378 . S
C530 C531 1.396 . S
C531 H516 0.940 . S
C531 C526 1.391 . S
C531 C530 1.396 . S
C532 P512 1.803 . S
C532 C533 1.378 . S
C532 C537 1.400 . S
C533 H517 0.939 . S
C533 C532 1.378 . S
C533 C534 1.361 . S
C534 H518 0.942 . S
C534 C533 1.361 . S
C534 C535 1.369 . S
C535 C534 1.369 . S
C535 C536 1.404 . S
C536 H519 0.940 . S
C536 C535 1.404 . S
C536 C537 1.389 . S
C537 H520 0.939 . S
C537 C532 1.400 . S
C537 C536 1.389 . S
C538 P512 1.819 . S
C538 C539 1.391 . S
C538 C543 1.391 . S
C539 H521 0.941 . S
C539 C538 1.391 . S
C539 C540 1.396 . S
C540 H524 0.939 . S
C540 C539 1.396 . S
C540 C541 1.397 . S
C541 C540 1.397 . S
C541 C542 1.385 . S
C542 H525 0.940 . S
C542 C541 1.385 . S
C542 C543 1.388 . S
C543 H522 0.939 . S
C543 C538 1.391 . S
C543 C542 1.388 . S
P544 O555 1.490 . S
P544 C558 1.812 . S
P544 C564 1.803 . S
P544 C570 1.819 . S
H545 C559 0.941 . S
H546 C560 0.939 . S
H547 C562 0.940 . S
H548 C563 0.940 . S
H549 C565 0.939 . S
H550 C566 0.942 . S
H551 C568 0.940 . S
H552 C569 0.939 . S
H553 C571 0.941 . S
H554 C575 0.939 . S
O555 P544 1.490 . S
H556 C572 0.939 . S
H557 C574 0.940 . S
C558 P544 1.812 . S
C558 C559 1.389 . S
C558 C563 1.391 . S
C559 H545 0.941 . S
C559 C558 1.389 . S
C559 C560 1.397 . S
C560 H546 0.939 . S
C560 C559 1.397 . S
C560 C561 1.378 . S
C561 C560 1.378 . S
C561 C562 1.378 . S
C562 H547 0.940 . S
C562 C561 1.378 . S
C562 C563 1.396 . S
C563 H548 0.940 . S
C563 C558 1.391 . S
C563 C562 1.396 . S
C564 P544 1.803 . S
C564 C565 1.378 . S
C564 C569 1.400 . S
C565 H549 0.939 . S
C565 C564 1.378 . S
C565 C566 1.361 . S
C566 H550 0.942 . S
C566 C565 1.361 . S
C566 C567 1.369 . S
C567 C566 1.369 . S
C567 C568 1.404 . S
C568 H551 0.940 . S
C568 C567 1.404 . S
C568 C569 1.389 . S
C569 H552 0.939 . S
C569 C564 1.400 . S
C569 C568 1.389 . S
C570 P544 1.819 . S
C570 C571 1.391 . S
C570 C575 1.391 . S
C571 H553 0.941 . S
C571 C570 1.391 . S
C571 C572 1.396 . S
C572 H556 0.939 . S
C572 C571 1.396 . S
C572 C573 1.397 . S
C573 C572 1.397 . S
C573 C574 1.385 . S
C574 H557 0.940 . S
C574 C573 1.385 . S
C574 C575 1.388 . S
C575 H554 0.939 . S
C575 C570 1.391 . S
C575 C574 1.388 . S
Eu576 N607 2.657 . S
Eu576 N614 2.609 . S
Eu576 O620 2.558 . S
Eu576 O621 2.612 1_565 S
Eu576 O623 2.339 1_565 S
Eu576 O624 2.563 1_565 S
Eu576 O625 2.419 . S
Eu576 O627 2.380 1_556 S
Eu576 O628 2.432 . S
Eu576 C640 2.848 . S
C577 C580 1.429 . S
C577 C581 1.411 . S
C577 N584 1.377 . S
C578 C580 1.420 . S
C578 C582 1.423 . S
C578 C590 1.392 . S
C579 C581 1.420 . S
C579 C582 1.351 . S
C579 H602 0.931 . S
C580 C577 1.429 . S
C580 C578 1.420 . S
C580 N588 1.362 . S
C581 C577 1.411 . S
C581 C579 1.420 . S
C581 C586 1.395 . S
C582 C578 1.423 . S
C582 C579 1.351 . S
C582 H594 0.930 . S
C583 C585 1.400 . S
C583 C586 1.386 . S
C583 H595 0.930 . S
N584 C577 1.377 . S
N584 C585 1.321 . S
N584 Eu587 2.609 . S
C585 C583 1.400 . S
C585 N584 1.321 . S
C585 H592 0.930 . S
C586 C581 1.395 . S
C586 C583 1.386 . S
C586 H605 0.930 . S
Eu587 N584 2.609 . S
Eu587 N588 2.657 . S
Eu587 O621 2.380 1_554 S
Eu587 O622 2.432 . S
Eu587 O626 2.558 . S
Eu587 O627 2.612 1_545 S
Eu587 O629 2.339 1_545 S
Eu587 O630 2.563 1_545 S
Eu587 O631 2.419 . S
Eu587 C651 2.848 . S
N588 C580 1.362 . S
N588 Eu587 2.657 . S
N588 C589 1.334 . S
C589 N588 1.334 . S
C589 C591 1.413 . S
C589 H596 0.929 . S
C590 C578 1.392 . S
C590 C591 1.367 . S
C590 H598 0.930 . S
C591 C589 1.413 . S
C591 C590 1.367 . S
C591 H593 0.930 . S
H592 C585 0.930 . S
H593 C591 0.930 . S
H594 C582 0.930 . S
H595 C583 0.930 . S
H596 C589 0.929 . S
H597 C611 0.930 . S
H598 C590 0.930 . S
H599 C617 0.930 . S
H600 C608 0.929 . S
H601 C615 0.930 . S
H602 C579 0.931 . S
H603 C609 0.930 . S
H604 C642 0.930 . S
H605 C586 0.930 . S
H606 C641 0.931 . S
N607 Eu576 2.657 . S
N607 C608 1.334 . S
N607 C612 1.362 . S
C608 H600 0.929 . S
C608 N607 1.334 . S
C608 C611 1.413 . S
C609 H603 0.930 . S
C609 C610 1.392 . S
C609 C611 1.367 . S
C610 C609 1.392 . S
C610 C612 1.420 . S
C610 C642 1.423 . S
C611 H597 0.930 . S
C611 C608 1.413 . S
C611 C609 1.367 . S
C612 N607 1.362 . S
C612 C610 1.420 . S
C612 C616 1.429 . S
H613 C618 0.930 . S
N614 Eu576 2.609 . S
N614 C616 1.377 . S
N614 C617 1.321 . S
C615 H601 0.930 . S
C615 C617 1.400 . S
C615 C618 1.386 . S
C616 C612 1.429 . S
C616 N614 1.377 . S
C616 C619 1.411 . S
C617 H599 0.930 . S
C617 N614 1.321 . S
C617 C615 1.400 . S
C618 H613 0.930 . S
C618 C615 1.386 . S
C618 C619 1.395 . S
C619 C616 1.411 . S
C619 C618 1.395 . S
C619 C641 1.420 . S
O620 Eu576 2.558 . S
O620 C640 1.257 . S
O621 Eu576 2.612 1_545 S
O621 Eu587 2.380 1_556 S
O621 C632 1.276 . S
O622 Eu587 2.432 . S
O622 C639 1.264 1_554 S
O623 Eu576 2.339 1_545 S
O623 C639 1.254 . S
O624 Eu576 2.563 1_545 S
O624 C632 1.235 . S
O625 Eu576 2.419 . S
O625 C640 1.249 . S
O626 Eu587 2.558 . S
O626 C651 1.257 . S
O627 Eu576 2.380 1_554 S
O627 Eu587 2.612 1_565 S
O627 C643 1.276 . S
O628 Eu576 2.432 . S
O628 C650 1.264 1_556 S
O629 Eu587 2.339 1_565 S
O629 C650 1.254 . S
O630 Eu587 2.563 1_565 S
O630 C643 1.235 . S
O631 Eu587 2.419 . S
O631 C651 1.249 . S
C632 O621 1.276 . S
C632 O624 1.235 . S
C633 C635 1.393 1_565 S
C633 C637 1.395 . S
C633 C640 1.492 . S
C634 C635 1.392 . S
C634 C636 1.386 1_545 S
C635 C633 1.393 1_545 S
C635 C634 1.392 . S
C635 H652 0.930 . S
C636 C634 1.386 1_565 S
C636 C638 1.395 . S
C636 H653 0.930 . S
C637 C633 1.395 . S
C637 C638 1.379 . S
C637 H654 0.930 . S
C638 C636 1.395 . S
C638 C637 1.379 . S
C638 H655 0.930 . S
C639 O622 1.264 1_556 S
C639 O623 1.254 . S
C640 Eu576 2.848 . S
C640 O620 1.257 . S
C640 O625 1.249 . S
C640 C633 1.492 . S
C641 H606 0.931 . S
C641 C619 1.420 . S
C641 C642 1.351 . S
C642 H604 0.930 . S
C642 C610 1.423 . S
C642 C641 1.351 . S
C643 O627 1.276 . S
C643 O630 1.235 . S
C644 C645 1.393 1_545 S
C644 C648 1.395 . S
C644 C651 1.492 . S
C645 C644 1.393 1_565 S
C645 C646 1.392 . S
C645 H656 0.930 . S
C646 C645 1.392 . S
C646 C647 1.386 1_565 S
C647 C646 1.386 1_545 S
C647 C649 1.395 . S
C647 H657 0.930 . S
C648 C644 1.395 . S
C648 C649 1.379 . S
C648 H658 0.930 . S
C649 C647 1.395 . S
C649 C648 1.379 . S
C649 H659 0.930 . S
C650 O628 1.264 1_554 S
C650 O629 1.254 . S
C651 Eu587 2.848 . S
C651 O626 1.257 . S
C651 O631 1.249 . S
C651 C644 1.492 . S
H652 C635 0.930 . S
H653 C636 0.930 . S
H654 C637 0.930 . S
H655 C638 0.930 . S
H656 C645 0.930 . S
H657 C647 0.930 . S
H658 C648 0.930 . S
H659 C649 0.930 . S
Eu660 N691 2.657 . S
Eu660 N698 2.609 . S
Eu660 O704 2.558 . S
Eu660 O705 2.612 1_455 S
Eu660 O707 2.339 1_455 S
Eu660 O708 2.563 1_455 S
Eu660 O709 2.419 . S
Eu660 O711 2.380 1_556 S
Eu660 O712 2.432 . S
Eu660 C724 2.848 . S
C661 C664 1.429 . S
C661 C665 1.411 . S
C661 N668 1.377 . S
C662 C664 1.420 . S
C662 C666 1.423 . S
C662 C674 1.392 . S
C663 C665 1.420 . S
C663 C666 1.351 . S
C663 H686 0.931 . S
C664 C661 1.429 . S
C664 C662 1.420 . S
C664 N672 1.362 . S
C665 C661 1.411 . S
C665 C663 1.420 . S
C665 C670 1.395 . S
C666 C662 1.423 . S
C666 C663 1.351 . S
C666 H678 0.930 . S
C667 C669 1.400 . S
C667 C670 1.386 . S
C667 H679 0.930 . S
N668 C661 1.377 . S
N668 C669 1.321 . S
N668 Eu671 2.609 . S
C669 C667 1.400 . S
C669 N668 1.321 . S
C669 H676 0.930 . S
C670 C665 1.395 . S
C670 C667 1.386 . S
C670 H689 0.930 . S
Eu671 N668 2.609 . S
Eu671 N672 2.657 . S
Eu671 O705 2.380 1_554 S
Eu671 O706 2.432 . S
Eu671 O710 2.558 . S
Eu671 O711 2.612 1_655 S
Eu671 O713 2.339 1_655 S
Eu671 O714 2.563 1_655 S
Eu671 O715 2.419 . S
Eu671 C735 2.848 . S
N672 C664 1.362 . S
N672 Eu671 2.657 . S
N672 C673 1.334 . S
C673 N672 1.334 . S
C673 C675 1.413 . S
C673 H680 0.929 . S
C674 C662 1.392 . S
C674 C675 1.367 . S
C674 H682 0.930 . S
C675 C673 1.413 . S
C675 C674 1.367 . S
C675 H677 0.930 . S
H676 C669 0.930 . S
H677 C675 0.930 . S
H678 C666 0.930 . S
H679 C667 0.930 . S
H680 C673 0.929 . S
H681 C695 0.930 . S
H682 C674 0.930 . S
H683 C701 0.930 . S
H684 C692 0.929 . S
H685 C699 0.930 . S
H686 C663 0.931 . S
H687 C693 0.930 . S
H688 C726 0.930 . S
H689 C670 0.930 . S
H690 C725 0.931 . S
N691 Eu660 2.657 . S
N691 C692 1.334 . S
N691 C696 1.362 . S
C692 H684 0.929 . S
C692 N691 1.334 . S
C692 C695 1.413 . S
C693 H687 0.930 . S
C693 C694 1.392 . S
C693 C695 1.367 . S
C694 C693 1.392 . S
C694 C696 1.420 . S
C694 C726 1.423 . S
C695 H681 0.930 . S
C695 C692 1.413 . S
C695 C693 1.367 . S
C696 N691 1.362 . S
C696 C694 1.420 . S
C696 C700 1.429 . S
H697 C702 0.930 . S
N698 Eu660 2.609 . S
N698 C700 1.377 . S
N698 C701 1.321 . S
C699 H685 0.930 . S
C699 C701 1.400 . S
C699 C702 1.386 . S
C700 C696 1.429 . S
C700 N698 1.377 . S
C700 C703 1.411 . S
C701 H683 0.930 . S
C701 N698 1.321 . S
C701 C699 1.400 . S
C702 H697 0.930 . S
C702 C699 1.386 . S
C702 C703 1.395 . S
C703 C700 1.411 . S
C703 C702 1.395 . S
C703 C725 1.420 . S
O704 Eu660 2.558 . S
O704 C724 1.257 . S
O705 Eu660 2.612 1_655 S
O705 Eu671 2.380 1_556 S
O705 C716 1.276 . S
O706 Eu671 2.432 . S
O706 C723 1.264 1_554 S
O707 Eu660 2.339 1_655 S
O707 C723 1.254 . S
O708 Eu660 2.563 1_655 S
O708 C716 1.235 . S
O709 Eu660 2.419 . S
O709 C724 1.249 . S
O710 Eu671 2.558 . S
O710 C735 1.257 . S
O711 Eu660 2.380 1_554 S
O711 Eu671 2.612 1_455 S
O711 C727 1.276 . S
O712 Eu660 2.432 . S
O712 C734 1.264 1_556 S
O713 Eu671 2.339 1_455 S
O713 C734 1.254 . S
O714 Eu671 2.563 1_455 S
O714 C727 1.235 . S
O715 Eu671 2.419 . S
O715 C735 1.249 . S
C716 O705 1.276 . S
C716 O708 1.235 . S
C717 C719 1.393 1_455 S
C717 C721 1.395 . S
C717 C724 1.492 . S
C718 C719 1.392 . S
C718 C720 1.386 1_655 S
C719 C717 1.393 1_655 S
C719 C718 1.392 . S
C719 H736 0.930 . S
C720 C718 1.386 1_455 S
C720 C722 1.395 . S
C720 H737 0.930 . S
C721 C717 1.395 . S
C721 C722 1.379 . S
C721 H738 0.930 . S
C722 C720 1.395 . S
C722 C721 1.379 . S
C722 H739 0.930 . S
C723 O706 1.264 1_556 S
C723 O707 1.254 . S
C724 Eu660 2.848 . S
C724 O704 1.257 . S
C724 O709 1.249 . S
C724 C717 1.492 . S
C725 H690 0.931 . S
C725 C703 1.420 . S
C725 C726 1.351 . S
C726 H688 0.930 . S
C726 C694 1.423 . S
C726 C725 1.351 . S
C727 O711 1.276 . S
C727 O714 1.235 . S
C728 C729 1.393 1_655 S
C728 C732 1.395 . S
C728 C735 1.492 . S
C729 C728 1.393 1_455 S
C729 C730 1.392 . S
C729 H740 0.930 . S
C730 C729 1.392 . S
C730 C731 1.386 1_455 S
C731 C730 1.386 1_655 S
C731 C733 1.395 . S
C731 H741 0.930 . S
C732 C728 1.395 . S
C732 C733 1.379 . S
C732 H742 0.930 . S
C733 C731 1.395 . S
C733 C732 1.379 . S
C733 H743 0.930 . S
C734 O712 1.264 1_554 S
C734 O713 1.254 . S
C735 Eu671 2.848 . S
C735 O710 1.257 . S
C735 O715 1.249 . S
C735 C728 1.492 . S
H736 C719 0.930 . S
H737 C720 0.930 . S
H738 C721 0.930 . S
H739 C722 0.930 . S
H740 C729 0.930 . S
H741 C731 0.930 . S
H742 C732 0.930 . S
H743 C733 0.930 . S
Eu744 N775 2.657 . S
Eu744 N782 2.609 . S
Eu744 O788 2.558 . S
Eu744 O789 2.612 . S
Eu744 O791 2.339 . S
Eu744 O792 2.563 . S
Eu744 O793 2.419 . S
Eu744 O795 2.380 1_554 S
Eu744 O796 2.432 . S
Eu744 C808 2.848 . S
C745 C748 1.429 . S
C745 C749 1.411 . S
C745 N752 1.377 . S
C746 C748 1.420 . S
C746 C750 1.423 . S
C746 C758 1.392 . S
C747 C749 1.420 . S
C747 C750 1.351 . S
C747 H770 0.931 . S
C748 C745 1.429 . S
C748 C746 1.420 . S
C748 N756 1.362 . S
C749 C745 1.411 . S
C749 C747 1.420 . S
C749 C754 1.395 . S
C750 C746 1.423 . S
C750 C747 1.351 . S
C750 H762 0.930 . S
C751 C753 1.400 . S
C751 C754 1.386 . S
C751 H763 0.930 . S
N752 C745 1.377 . S
N752 C753 1.321 . S
N752 Eu755 2.609 . S
C753 C751 1.400 . S
C753 N752 1.321 . S
C753 H760 0.930 . S
C754 C749 1.395 . S
C754 C751 1.386 . S
C754 H773 0.930 . S
Eu755 N752 2.609 . S
Eu755 N756 2.657 . S
Eu755 O789 2.380 1_556 S
Eu755 O790 2.432 . S
Eu755 O794 2.558 . S
Eu755 O795 2.612 . S
Eu755 O797 2.339 . S
Eu755 O798 2.563 . S
Eu755 O799 2.419 . S
Eu755 C819 2.848 . S
N756 C748 1.362 . S
N756 Eu755 2.657 . S
N756 C757 1.334 . S
C757 N756 1.334 . S
C757 C759 1.413 . S
C757 H764 0.929 . S
C758 C746 1.392 . S
C758 C759 1.367 . S
C758 H766 0.930 . S
C759 C757 1.413 . S
C759 C758 1.367 . S
C759 H761 0.930 . S
H760 C753 0.930 . S
H761 C759 0.930 . S
H762 C750 0.930 . S
H763 C751 0.930 . S
H764 C757 0.929 . S
H765 C779 0.930 . S
H766 C758 0.930 . S
H767 C785 0.930 . S
H768 C776 0.929 . S
H769 C783 0.930 . S
H770 C747 0.931 . S
H771 C777 0.930 . S
H772 C810 0.930 . S
H773 C754 0.930 . S
H774 C809 0.931 . S
N775 Eu744 2.657 . S
N775 C776 1.334 . S
N775 C780 1.362 . S
C776 H768 0.929 . S
C776 N775 1.334 . S
C776 C779 1.413 . S
C777 H771 0.930 . S
C777 C778 1.392 . S
C777 C779 1.367 . S
C778 C777 1.392 . S
C778 C780 1.420 . S
C778 C810 1.423 . S
C779 H765 0.930 . S
C779 C776 1.413 . S
C779 C777 1.367 . S
C780 N775 1.362 . S
C780 C778 1.420 . S
C780 C784 1.429 . S
H781 C786 0.930 . S
N782 Eu744 2.609 . S
N782 C784 1.377 . S
N782 C785 1.321 . S
C783 H769 0.930 . S
C783 C785 1.400 . S
C783 C786 1.386 . S
C784 C780 1.429 . S
C784 N782 1.377 . S
C784 C787 1.411 . S
C785 H767 0.930 . S
C785 N782 1.321 . S
C785 C783 1.400 . S
C786 H781 0.930 . S
C786 C783 1.386 . S
C786 C787 1.395 . S
C787 C784 1.411 . S
C787 C786 1.395 . S
C787 C809 1.420 . S
O788 Eu744 2.558 . S
O788 C808 1.257 . S
O789 Eu744 2.612 . S
O789 Eu755 2.380 1_554 S
O789 C800 1.276 . S
O790 Eu755 2.432 . S
O790 C807 1.264 1_556 S
O791 Eu744 2.339 . S
O791 C807 1.254 . S
O792 Eu744 2.563 . S
O792 C800 1.235 . S
O793 Eu744 2.419 . S
O793 C808 1.249 . S
O794 Eu755 2.558 . S
O794 C819 1.257 . S
O795 Eu744 2.380 1_556 S
O795 Eu755 2.612 . S
O795 C811 1.276 . S
O796 Eu744 2.432 . S
O796 C818 1.264 1_554 S
O797 Eu755 2.339 . S
O797 C818 1.254 . S
O798 Eu755 2.563 . S
O798 C811 1.235 . S
O799 Eu755 2.419 . S
O799 C819 1.249 . S
C800 O789 1.276 . S
C800 O792 1.235 . S
C801 C803 1.393 . S
C801 C805 1.395 . S
C801 C808 1.492 . S
C802 C803 1.392 . S
C802 C804 1.386 . S
C803 C801 1.393 . S
C803 C802 1.392 . S
C803 H820 0.930 . S
C804 C802 1.386 . S
C804 C806 1.395 . S
C804 H821 0.930 . S
C805 C801 1.395 . S
C805 C806 1.379 . S
C805 H822 0.930 . S
C806 C804 1.395 . S
C806 C805 1.379 . S
C806 H823 0.930 . S
C807 O790 1.264 1_554 S
C807 O791 1.254 . S
C808 Eu744 2.848 . S
C808 O788 1.257 . S
C808 O793 1.249 . S
C808 C801 1.492 . S
C809 H774 0.931 . S
C809 C787 1.420 . S
C809 C810 1.351 . S
C810 H772 0.930 . S
C810 C778 1.423 . S
C810 C809 1.351 . S
C811 O795 1.276 . S
C811 O798 1.235 . S
C812 C813 1.393 . S
C812 C816 1.395 . S
C812 C819 1.492 . S
C813 C812 1.393 . S
C813 C814 1.392 . S
C813 H824 0.930 . S
C814 C813 1.392 . S
C814 C815 1.386 . S
C815 C814 1.386 . S
C815 C817 1.395 . S
C815 H825 0.930 . S
C816 C812 1.395 . S
C816 C817 1.379 . S
C816 H826 0.930 . S
C817 C815 1.395 . S
C817 C816 1.379 . S
C817 H827 0.930 . S
C818 O796 1.264 1_556 S
C818 O797 1.254 . S
C819 Eu755 2.848 . S
C819 O794 1.257 . S
C819 O799 1.249 . S
C819 C812 1.492 . S
H820 C803 0.930 . S
H821 C804 0.930 . S
H822 C805 0.930 . S
H823 C806 0.930 . S
H824 C813 0.930 . S
H825 C815 0.930 . S
H826 C816 0.930 . S
H827 C817 0.930 . S
Eu828 N859 2.657 . S
Eu828 N866 2.609 . S
Eu828 O872 2.558 . S
Eu828 O873 2.612 . S
Eu828 O875 2.339 . S
Eu828 O876 2.563 . S
Eu828 O877 2.419 . S
Eu828 O879 2.380 . S
Eu828 O880 2.432 . S
Eu828 C892 2.848 . S
C829 C832 1.429 . S
C829 C833 1.411 . S
C829 N836 1.377 . S
C830 C832 1.420 . S
C830 C834 1.423 . S
C830 C842 1.392 . S
C831 C833 1.420 . S
C831 C834 1.351 . S
C831 H854 0.931 . S
C832 C829 1.429 . S
C832 C830 1.420 . S
C832 N840 1.362 . S
C833 C829 1.411 . S
C833 C831 1.420 . S
C833 C838 1.395 . S
C834 C830 1.423 . S
C834 C831 1.351 . S
C834 H846 0.930 . S
C835 C837 1.400 . S
C835 C838 1.386 . S
C835 H847 0.930 . S
N836 C829 1.377 . S
N836 C837 1.321 . S
N836 Eu839 2.609 . S
C837 C835 1.400 . S
C837 N836 1.321 . S
C837 H844 0.930 . S
C838 C833 1.395 . S
C838 C835 1.386 . S
C838 H857 0.930 . S
Eu839 N836 2.609 . S
Eu839 N840 2.657 . S
Eu839 O873 2.380 . S
Eu839 O874 2.432 . S
Eu839 O878 2.558 . S
Eu839 O879 2.612 . S
Eu839 O881 2.339 . S
Eu839 O882 2.563 . S
Eu839 O883 2.419 . S
Eu839 C903 2.848 . S
N840 C832 1.362 . S
N840 Eu839 2.657 . S
N840 C841 1.334 . S
C841 N840 1.334 . S
C841 C843 1.413 . S
C841 H848 0.929 . S
C842 C830 1.392 . S
C842 C843 1.367 . S
C842 H850 0.930 . S
C843 C841 1.413 . S
C843 C842 1.367 . S
C843 H845 0.930 . S
H844 C837 0.930 . S
H845 C843 0.930 . S
H846 C834 0.930 . S
H847 C835 0.930 . S
H848 C841 0.929 . S
H849 C863 0.930 . S
H850 C842 0.930 . S
H851 C869 0.930 . S
H852 C860 0.929 . S
H853 C867 0.930 . S
H854 C831 0.931 . S
H855 C861 0.930 1_655 S
H856 C894 0.930 1_655 S
H857 C838 0.930 . S
H858 C893 0.931 . S
N859 Eu828 2.657 . S
N859 C860 1.334 . S
N859 C864 1.362 . S
C860 H852 0.929 . S
C860 N859 1.334 . S
C860 C863 1.413 . S
C861 H855 0.930 1_455 S
C861 C862 1.392 . S
C861 C863 1.367 . S
C862 C861 1.392 . S
C862 C864 1.420 . S
C862 C894 1.423 . S
C863 H849 0.930 . S
C863 C860 1.413 . S
C863 C861 1.367 . S
C864 N859 1.362 . S
C864 C862 1.420 . S
C864 C868 1.429 . S
H865 C870 0.930 . S
N866 Eu828 2.609 . S
N866 C868 1.377 . S
N866 C869 1.321 . S
C867 H853 0.930 . S
C867 C869 1.400 . S
C867 C870 1.386 . S
C868 C864 1.429 . S
C868 N866 1.377 . S
C868 C871 1.411 . S
C869 H851 0.930 . S
C869 N866 1.321 . S
C869 C867 1.400 . S
C870 H865 0.930 . S
C870 C867 1.386 . S
C870 C871 1.395 . S
C871 C868 1.411 . S
C871 C870 1.395 . S
C871 C893 1.420 . S
O872 Eu828 2.558 . S
O872 C892 1.257 . S
O873 Eu828 2.612 . S
O873 Eu839 2.380 . S
O873 C884 1.276 . S
O874 Eu839 2.432 . S
O874 C891 1.264 . S
O875 Eu828 2.339 . S
O875 C891 1.254 . S
O876 Eu828 2.563 . S
O876 C884 1.235 . S
O877 Eu828 2.419 . S
O877 C892 1.249 . S
O878 Eu839 2.558 . S
O878 C903 1.257 . S
O879 Eu828 2.380 . S
O879 Eu839 2.612 . S
O879 C895 1.276 . S
O880 Eu828 2.432 . S
O880 C902 1.264 . S
O881 Eu839 2.339 . S
O881 C902 1.254 . S
O882 Eu839 2.563 . S
O882 C895 1.235 . S
O883 Eu839 2.419 . S
O883 C903 1.249 . S
C884 O873 1.276 . S
C884 O876 1.235 . S
C885 C887 1.393 . S
C885 C889 1.395 . S
C885 C892 1.492 . S
C886 C887 1.392 . S
C886 C888 1.386 . S
C887 C885 1.393 . S
C887 C886 1.392 . S
C887 H904 0.930 . S
C888 C886 1.386 . S
C888 C890 1.395 . S
C888 H905 0.930 . S
C889 C885 1.395 . S
C889 C890 1.379 . S
C889 H906 0.930 . S
C890 C888 1.395 . S
C890 C889 1.379 . S
C890 H907 0.930 . S
C891 O874 1.264 . S
C891 O875 1.254 . S
C892 Eu828 2.848 . S
C892 O872 1.257 . S
C892 O877 1.249 . S
C892 C885 1.492 . S
C893 H858 0.931 . S
C893 C871 1.420 . S
C893 C894 1.351 . S
C894 H856 0.930 1_455 S
C894 C862 1.423 . S
C894 C893 1.351 . S
C895 O879 1.276 . S
C895 O882 1.235 . S
C896 C897 1.393 . S
C896 C900 1.395 . S
C896 C903 1.492 . S
C897 C896 1.393 . S
C897 C898 1.392 . S
C897 H908 0.930 . S
C898 C897 1.392 . S
C898 C899 1.386 . S
C899 C898 1.386 . S
C899 C901 1.395 . S
C899 H909 0.930 . S
C900 C896 1.395 . S
C900 C901 1.379 . S
C900 H910 0.930 . S
C901 C899 1.395 . S
C901 C900 1.379 . S
C901 H911 0.930 . S
C902 O880 1.264 . S
C902 O881 1.254 . S
C903 Eu839 2.848 . S
C903 O878 1.257 . S
C903 O883 1.249 . S
C903 C896 1.492 . S
H904 C887 0.930 . S
H905 C888 0.930 . S
H906 C889 0.930 . S
H907 C890 0.930 . S
H908 C897 0.930 . S
H909 C899 0.930 . S
H910 C900 0.930 . S
H911 C901 0.930 . S
Eu912 N943 2.657 . S
Eu912 N950 2.609 . S
Eu912 O956 2.558 . S
Eu912 O957 2.612 . S
Eu912 O959 2.339 . S
Eu912 O960 2.563 . S
Eu912 O961 2.419 . S
Eu912 O963 2.380 . S
Eu912 O964 2.432 . S
Eu912 C976 2.848 . S
C913 C916 1.429 . S
C913 C917 1.411 . S
C913 N920 1.377 . S
C914 C916 1.420 . S
C914 C918 1.423 . S
C914 C926 1.392 . S
C915 C917 1.420 . S
C915 C918 1.351 . S
C915 H938 0.931 . S
C916 C913 1.429 . S
C916 C914 1.420 . S
C916 N924 1.362 . S
C917 C913 1.411 . S
C917 C915 1.420 . S
C917 C922 1.395 . S
C918 C914 1.423 . S
C918 C915 1.351 . S
C918 H930 0.930 . S
C919 C921 1.400 . S
C919 C922 1.386 . S
C919 H931 0.930 . S
N920 C913 1.377 . S
N920 C921 1.321 . S
N920 Eu923 2.609 . S
C921 C919 1.400 . S
C921 N920 1.321 . S
C921 H928 0.930 . S
C922 C917 1.395 . S
C922 C919 1.386 . S
C922 H941 0.930 . S
Eu923 N920 2.609 . S
Eu923 N924 2.657 . S
Eu923 O957 2.380 . S
Eu923 O958 2.432 . S
Eu923 O962 2.558 . S
Eu923 O963 2.612 . S
Eu923 O965 2.339 . S
Eu923 O966 2.563 . S
Eu923 O967 2.419 . S
Eu923 C987 2.848 . S
N924 C916 1.362 . S
N924 Eu923 2.657 . S
N924 C925 1.334 . S
C925 N924 1.334 . S
C925 C927 1.413 . S
C925 H932 0.929 . S
C926 C914 1.392 . S
C926 C927 1.367 . S
C926 H934 0.930 . S
C927 C925 1.413 . S
C927 C926 1.367 . S
C927 H929 0.930 . S
H928 C921 0.930 . S
H929 C927 0.930 . S
H930 C918 0.930 . S
H931 C919 0.930 . S
H932 C925 0.929 . S
H933 C947 0.930 . S
H934 C926 0.930 . S
H935 C953 0.930 . S
H936 C944 0.929 . S
H937 C951 0.930 . S
H938 C915 0.931 . S
H939 C945 0.930 . S
H940 C978 0.930 . S
H941 C922 0.930 . S
H942 C977 0.931 . S
N943 Eu912 2.657 . S
N943 C944 1.334 . S
N943 C948 1.362 . S
C944 H936 0.929 . S
C944 N943 1.334 . S
C944 C947 1.413 . S
C945 H939 0.930 . S
C945 C946 1.392 . S
C945 C947 1.367 . S
C946 C945 1.392 . S
C946 C948 1.420 . S
C946 C978 1.423 . S
C947 H933 0.930 . S
C947 C944 1.413 . S
C947 C945 1.367 . S
C948 N943 1.362 . S
C948 C946 1.420 . S
C948 C952 1.429 . S
H949 C954 0.930 . S
N950 Eu912 2.609 . S
N950 C952 1.377 . S
N950 C953 1.321 . S
C951 H937 0.930 . S
C951 C953 1.400 . S
C951 C954 1.386 . S
C952 C948 1.429 . S
C952 N950 1.377 . S
C952 C955 1.411 . S
C953 H935 0.930 . S
C953 N950 1.321 . S
C953 C951 1.400 . S
C954 H949 0.930 . S
C954 C951 1.386 . S
C954 C955 1.395 . S
C955 C952 1.411 . S
C955 C954 1.395 . S
C955 C977 1.420 . S
O956 Eu912 2.558 . S
O956 C976 1.257 . S
O957 Eu912 2.612 . S
O957 Eu923 2.380 . S
O957 C968 1.276 . S
O958 Eu923 2.432 . S
O958 C975 1.264 . S
O959 Eu912 2.339 . S
O959 C975 1.254 . S
O960 Eu912 2.563 . S
O960 C968 1.235 . S
O961 Eu912 2.419 . S
O961 C976 1.249 . S
O962 Eu923 2.558 . S
O962 C987 1.257 . S
O963 Eu912 2.380 . S
O963 Eu923 2.612 . S
O963 C979 1.276 . S
O964 Eu912 2.432 . S
O964 C986 1.264 . S
O965 Eu923 2.339 . S
O965 C986 1.254 . S
O966 Eu923 2.563 . S
O966 C979 1.235 . S
O967 Eu923 2.419 . S
O967 C987 1.249 . S
C968 O957 1.276 . S
C968 O960 1.235 . S
C969 C971 1.393 . S
C969 C973 1.395 . S
C969 C976 1.492 . S
C970 C971 1.392 . S
C970 C972 1.386 . S
C971 C969 1.393 . S
C971 C970 1.392 . S
C971 H988 0.930 . S
C972 C970 1.386 . S
C972 C974 1.395 . S
C972 H989 0.930 . S
C973 C969 1.395 . S
C973 C974 1.379 . S
C973 H990 0.930 . S
C974 C972 1.395 . S
C974 C973 1.379 . S
C974 H991 0.930 . S
C975 O958 1.264 . S
C975 O959 1.254 . S
C976 Eu912 2.848 . S
C976 O956 1.257 . S
C976 O961 1.249 . S
C976 C969 1.492 . S
C977 H942 0.931 . S
C977 C955 1.420 . S
C977 C978 1.351 . S
C978 H940 0.930 . S
C978 C946 1.423 . S
C978 C977 1.351 . S
C979 O963 1.276 . S
C979 O966 1.235 . S
C980 C981 1.393 . S
C980 C984 1.395 . S
C980 C987 1.492 . S
C981 C980 1.393 . S
C981 C982 1.392 . S
C981 H992 0.930 . S
C982 C981 1.392 . S
C982 C983 1.386 . S
C983 C982 1.386 . S
C983 C985 1.395 . S
C983 H993 0.930 . S
C984 C980 1.395 . S
C984 C985 1.379 . S
C984 H994 0.930 . S
C985 C983 1.395 . S
C985 C984 1.379 . S
C985 H995 0.930 . S
C986 O964 1.264 . S
C986 O965 1.254 . S
C987 Eu923 2.848 . S
C987 O962 1.257 . S
C987 O967 1.249 . S
C987 C980 1.492 . S
H988 C971 0.930 . S
H989 C972 0.930 . S
H990 C973 0.930 . S
H991 C974 0.930 . S
H992 C981 0.930 . S
H993 C983 0.930 . S
H994 C984 0.930 . S
H995 C985 0.930 . S
Eu996 N1027 2.657 . S
Eu996 N1034 2.609 . S
Eu996 O1040 2.558 . S
Eu996 O1041 2.612 . S
Eu996 O1043 2.339 . S
Eu996 O1044 2.563 . S
Eu996 O1045 2.419 . S
Eu996 O1047 2.380 . S
Eu996 O1048 2.432 . S
Eu996 C1060 2.848 . S
C997 C1000 1.429 . S
C997 C1001 1.411 . S
C997 N1004 1.377 . S
C998 C1000 1.420 . S
C998 C1002 1.423 . S
C998 C1010 1.392 . S
C999 C1001 1.420 . S
C999 C1002 1.351 . S
C999 H1022 0.931 . S
C1000 C997 1.429 . S
C1000 C998 1.420 . S
C1000 N1008 1.362 . S
C1001 C997 1.411 . S
C1001 C999 1.420 . S
C1001 C1006 1.395 . S
C1002 C998 1.423 . S
C1002 C999 1.351 . S
C1002 H1014 0.930 1_455 S
C1003 C1005 1.400 . S
C1003 C1006 1.386 . S
C1003 H1015 0.930 . S
N1004 C997 1.377 . S
N1004 C1005 1.321 . S
N1004 Eu1007 2.609 . S
C1005 C1003 1.400 . S
C1005 N1004 1.321 . S
C1005 H1012 0.930 . S
C1006 C1001 1.395 . S
C1006 C1003 1.386 . S
C1006 H1025 0.930 . S
Eu1007 N1004 2.609 . S
Eu1007 N1008 2.657 . S
Eu1007 O1041 2.380 . S
Eu1007 O1042 2.432 . S
Eu1007 O1046 2.558 . S
Eu1007 O1047 2.612 . S
Eu1007 O1049 2.339 . S
Eu1007 O1050 2.563 . S
Eu1007 O1051 2.419 . S
Eu1007 C1071 2.848 . S
N1008 C1000 1.362 . S
N1008 Eu1007 2.657 . S
N1008 C1009 1.334 . S
C1009 N1008 1.334 . S
C1009 C1011 1.413 . S
C1009 H1016 0.929 . S
C1010 C998 1.392 . S
C1010 C1011 1.367 . S
C1010 H1018 0.930 1_455 S
C1011 C1009 1.413 . S
C1011 C1010 1.367 . S
C1011 H1013 0.930 . S
H1012 C1005 0.930 . S
H1013 C1011 0.930 . S
H1014 C1002 0.930 1_655 S
H1015 C1003 0.930 . S
H1016 C1009 0.929 . S
H1017 C1031 0.930 . S
H1018 C1010 0.930 1_655 S
H1019 C1037 0.930 . S
H1020 C1028 0.929 . S
H1021 C1035 0.930 . S
H1022 C999 0.931 . S
H1023 C1029 0.930 . S
H1024 C1062 0.930 . S
H1025 C1006 0.930 . S
H1026 C1061 0.931 . S
N1027 Eu996 2.657 . S
N1027 C1028 1.334 . S
N1027 C1032 1.362 . S
C1028 H1020 0.929 . S
C1028 N1027 1.334 . S
C1028 C1031 1.413 . S
C1029 H1023 0.930 . S
C1029 C1030 1.392 . S
C1029 C1031 1.367 . S
C1030 C1029 1.392 . S
C1030 C1032 1.420 . S
C1030 C1062 1.423 . S
C1031 H1017 0.930 . S
C1031 C1028 1.413 . S
C1031 C1029 1.367 . S
C1032 N1027 1.362 . S
C1032 C1030 1.420 . S
C1032 C1036 1.429 . S
H1033 C1038 0.930 . S
N1034 Eu996 2.609 . S
N1034 C1036 1.377 . S
N1034 C1037 1.321 . S
C1035 H1021 0.930 . S
C1035 C1037 1.400 . S
C1035 C1038 1.386 . S
C1036 C1032 1.429 . S
C1036 N1034 1.377 . S
C1036 C1039 1.411 . S
C1037 H1019 0.930 . S
C1037 N1034 1.321 . S
C1037 C1035 1.400 . S
C1038 H1033 0.930 . S
C1038 C1035 1.386 . S
C1038 C1039 1.395 . S
C1039 C1036 1.411 . S
C1039 C1038 1.395 . S
C1039 C1061 1.420 . S
O1040 Eu996 2.558 . S
O1040 C1060 1.257 . S
O1041 Eu996 2.612 . S
O1041 Eu1007 2.380 . S
O1041 C1052 1.276 . S
O1042 Eu1007 2.432 . S
O1042 C1059 1.264 . S
O1043 Eu996 2.339 . S
O1043 C1059 1.254 . S
O1044 Eu996 2.563 . S
O1044 C1052 1.235 . S
O1045 Eu996 2.419 . S
O1045 C1060 1.249 . S
O1046 Eu1007 2.558 . S
O1046 C1071 1.257 . S
O1047 Eu996 2.380 . S
O1047 Eu1007 2.612 . S
O1047 C1063 1.276 . S
O1048 Eu996 2.432 . S
O1048 C1070 1.264 . S
O1049 Eu1007 2.339 . S
O1049 C1070 1.254 . S
O1050 Eu1007 2.563 . S
O1050 C1063 1.235 . S
O1051 Eu1007 2.419 . S
O1051 C1071 1.249 . S
C1052 O1041 1.276 . S
C1052 O1044 1.235 . S
C1053 C1055 1.393 . S
C1053 C1057 1.395 . S
C1053 C1060 1.492 . S
C1054 C1055 1.392 . S
C1054 C1056 1.386 . S
C1055 C1053 1.393 . S
C1055 C1054 1.392 . S
C1055 H1072 0.930 . S
C1056 C1054 1.386 . S
C1056 C1058 1.395 . S
C1056 H1073 0.930 . S
C1057 C1053 1.395 . S
C1057 C1058 1.379 . S
C1057 H1074 0.930 . S
C1058 C1056 1.395 . S
C1058 C1057 1.379 . S
C1058 H1075 0.930 . S
C1059 O1042 1.264 . S
C1059 O1043 1.254 . S
C1060 Eu996 2.848 . S
C1060 O1040 1.257 . S
C1060 O1045 1.249 . S
C1060 C1053 1.492 . S
C1061 H1026 0.931 . S
C1061 C1039 1.420 . S
C1061 C1062 1.351 . S
C1062 H1024 0.930 . S
C1062 C1030 1.423 . S
C1062 C1061 1.351 . S
C1063 O1047 1.276 . S
C1063 O1050 1.235 . S
C1064 C1065 1.393 . S
C1064 C1068 1.395 . S
C1064 C1071 1.492 . S
C1065 C1064 1.393 . S
C1065 C1066 1.392 . S
C1065 H1076 0.930 . S
C1066 C1065 1.392 . S
C1066 C1067 1.386 . S
C1067 C1066 1.386 . S
C1067 C1069 1.395 . S
C1067 H1077 0.930 . S
C1068 C1064 1.395 . S
C1068 C1069 1.379 . S
C1068 H1078 0.930 . S
C1069 C1067 1.395 . S
C1069 C1068 1.379 . S
C1069 H1079 0.930 . S
C1070 O1048 1.264 . S
C1070 O1049 1.254 . S
C1071 Eu1007 2.848 . S
C1071 O1046 1.257 . S
C1071 O1051 1.249 . S
C1071 C1064 1.492 . S
H1072 C1055 0.930 . S
H1073 C1056 0.930 . S
H1074 C1057 0.930 . S
H1075 C1058 0.930 . S
H1076 C1065 0.930 . S
H1077 C1067 0.930 . S
H1078 C1068 0.930 . S
H1079 C1069 0.930 . S
Eu1080 N1111 2.657 . S
Eu1080 N1118 2.609 . S
Eu1080 O1124 2.558 . S
Eu1080 O1125 2.612 . S
Eu1080 O1127 2.339 . S
Eu1080 O1128 2.563 . S
Eu1080 O1129 2.419 . S
Eu1080 O1131 2.380 . S
Eu1080 O1132 2.432 . S
Eu1080 C1144 2.848 . S
C1081 C1084 1.429 . S
C1081 C1085 1.411 . S
C1081 N1088 1.377 . S
C1082 C1084 1.420 . S
C1082 C1086 1.423 . S
C1082 C1094 1.392 . S
C1083 C1085 1.420 . S
C1083 C1086 1.351 . S
C1083 H1106 0.931 . S
C1084 C1081 1.429 . S
C1084 C1082 1.420 . S
C1084 N1092 1.362 . S
C1085 C1081 1.411 . S
C1085 C1083 1.420 . S
C1085 C1090 1.395 . S
C1086 C1082 1.423 . S
C1086 C1083 1.351 . S
C1086 H1098 0.930 1_655 S
C1087 C1089 1.400 . S
C1087 C1090 1.386 . S
C1087 H1099 0.930 . S
N1088 C1081 1.377 . S
N1088 C1089 1.321 . S
N1088 Eu1091 2.609 . S
C1089 C1087 1.400 . S
C1089 N1088 1.321 . S
C1089 H1096 0.930 . S
C1090 C1085 1.395 . S
C1090 C1087 1.386 . S
C1090 H1109 0.930 . S
Eu1091 N1088 2.609 . S
Eu1091 N1092 2.657 . S
Eu1091 O1125 2.380 . S
Eu1091 O1126 2.432 . S
Eu1091 O1130 2.558 . S
Eu1091 O1131 2.612 . S
Eu1091 O1133 2.339 . S
Eu1091 O1134 2.563 . S
Eu1091 O1135 2.419 . S
Eu1091 C1155 2.848 . S
N1092 C1084 1.362 . S
N1092 Eu1091 2.657 . S
N1092 C1093 1.334 . S
C1093 N1092 1.334 . S
C1093 C1095 1.413 . S
C1093 H1100 0.929 . S
C1094 C1082 1.392 . S
C1094 C1095 1.367 . S
C1094 H1102 0.930 1_655 S
C1095 C1093 1.413 . S
C1095 C1094 1.367 . S
C1095 H1097 0.930 . S
H1096 C1089 0.930 . S
H1097 C1095 0.930 . S
H1098 C1086 0.930 1_455 S
H1099 C1087 0.930 . S
H1100 C1093 0.929 . S
H1101 C1115 0.930 . S
H1102 C1094 0.930 1_455 S
H1103 C1121 0.930 . S
H1104 C1112 0.929 . S
H1105 C1119 0.930 . S
H1106 C1083 0.931 . S
H1107 C1113 0.930 . S
H1108 C1146 0.930 . S
H1109 C1090 0.930 . S
H1110 C1145 0.931 . S
N1111 Eu1080 2.657 . S
N1111 C1112 1.334 . S
N1111 C1116 1.362 . S
C1112 H1104 0.929 . S
C1112 N1111 1.334 . S
C1112 C1115 1.413 . S
C1113 H1107 0.930 . S
C1113 C1114 1.392 . S
C1113 C1115 1.367 . S
C1114 C1113 1.392 . S
C1114 C1116 1.420 . S
C1114 C1146 1.423 . S
C1115 H1101 0.930 . S
C1115 C1112 1.413 . S
C1115 C1113 1.367 . S
C1116 N1111 1.362 . S
C1116 C1114 1.420 . S
C1116 C1120 1.429 . S
H1117 C1122 0.930 . S
N1118 Eu1080 2.609 . S
N1118 C1120 1.377 . S
N1118 C1121 1.321 . S
C1119 H1105 0.930 . S
C1119 C1121 1.400 . S
C1119 C1122 1.386 . S
C1120 C1116 1.429 . S
C1120 N1118 1.377 . S
C1120 C1123 1.411 . S
C1121 H1103 0.930 . S
C1121 N1118 1.321 . S
C1121 C1119 1.400 . S
C1122 H1117 0.930 . S
C1122 C1119 1.386 . S
C1122 C1123 1.395 . S
C1123 C1120 1.411 . S
C1123 C1122 1.395 . S
C1123 C1145 1.420 . S
O1124 Eu1080 2.558 . S
O1124 C1144 1.257 . S
O1125 Eu1080 2.612 . S
O1125 Eu1091 2.380 . S
O1125 C1136 1.276 . S
O1126 Eu1091 2.432 . S
O1126 C1143 1.264 . S
O1127 Eu1080 2.339 . S
O1127 C1143 1.254 . S
O1128 Eu1080 2.563 . S
O1128 C1136 1.235 . S
O1129 Eu1080 2.419 . S
O1129 C1144 1.249 . S
O1130 Eu1091 2.558 . S
O1130 C1155 1.257 . S
O1131 Eu1080 2.380 . S
O1131 Eu1091 2.612 . S
O1131 C1147 1.276 . S
O1132 Eu1080 2.432 . S
O1132 C1154 1.264 . S
O1133 Eu1091 2.339 . S
O1133 C1154 1.254 . S
O1134 Eu1091 2.563 . S
O1134 C1147 1.235 . S
O1135 Eu1091 2.419 . S
O1135 C1155 1.249 . S
C1136 O1125 1.276 . S
C1136 O1128 1.235 . S
C1137 C1139 1.393 . S
C1137 C1141 1.395 . S
C1137 C1144 1.492 . S
C1138 C1139 1.392 . S
C1138 C1140 1.386 . S
C1139 C1137 1.393 . S
C1139 C1138 1.392 . S
C1139 H1156 0.930 . S
C1140 C1138 1.386 . S
C1140 C1142 1.395 . S
C1140 H1157 0.930 . S
C1141 C1137 1.395 . S
C1141 C1142 1.379 . S
C1141 H1158 0.930 . S
C1142 C1140 1.395 . S
C1142 C1141 1.379 . S
C1142 H1159 0.930 . S
C1143 O1126 1.264 . S
C1143 O1127 1.254 . S
C1144 Eu1080 2.848 . S
C1144 O1124 1.257 . S
C1144 O1129 1.249 . S
C1144 C1137 1.492 . S
C1145 H1110 0.931 . S
C1145 C1123 1.420 . S
C1145 C1146 1.351 . S
C1146 H1108 0.930 . S
C1146 C1114 1.423 . S
C1146 C1145 1.351 . S
C1147 O1131 1.276 . S
C1147 O1134 1.235 . S
C1148 C1149 1.393 . S
C1148 C1152 1.395 . S
C1148 C1155 1.492 . S
C1149 C1148 1.393 . S
C1149 C1150 1.392 . S
C1149 H1160 0.930 . S
C1150 C1149 1.392 . S
C1150 C1151 1.386 . S
C1151 C1150 1.386 . S
C1151 C1153 1.395 . S
C1151 H1161 0.930 . S
C1152 C1148 1.395 . S
C1152 C1153 1.379 . S
C1152 H1162 0.930 . S
C1153 C1151 1.395 . S
C1153 C1152 1.379 . S
C1153 H1163 0.930 . S
C1154 O1132 1.264 . S
C1154 O1133 1.254 . S
C1155 Eu1091 2.848 . S
C1155 O1130 1.257 . S
C1155 O1135 1.249 . S
C1155 C1148 1.492 . S
H1156 C1139 0.930 . S
H1157 C1140 0.930 . S
H1158 C1141 0.930 . S
H1159 C1142 0.930 . S
H1160 C1149 0.930 . S
H1161 C1151 0.930 . S
H1162 C1152 0.930 . S
H1163 C1153 0.930 . S
Eu1164 N1195 2.657 . S
Eu1164 N1202 2.609 . S
Eu1164 O1208 2.558 . S
Eu1164 O1209 2.612 . S
Eu1164 O1211 2.339 . S
Eu1164 O1212 2.563 . S
Eu1164 O1213 2.419 . S
Eu1164 O1215 2.380 . S
Eu1164 O1216 2.432 . S
Eu1164 C1228 2.848 . S
C1165 C1168 1.429 . S
C1165 C1169 1.411 . S
C1165 N1172 1.377 . S
C1166 C1168 1.420 . S
C1166 C1170 1.423 . S
C1166 C1178 1.392 . S
C1167 C1169 1.420 . S
C1167 C1170 1.351 . S
C1167 H1190 0.931 . S
C1168 C1165 1.429 . S
C1168 C1166 1.420 . S
C1168 N1176 1.362 . S
C1169 C1165 1.411 . S
C1169 C1167 1.420 . S
C1169 C1174 1.395 . S
C1170 C1166 1.423 . S
C1170 C1167 1.351 . S
C1170 H1182 0.930 . S
C1171 C1173 1.400 . S
C1171 C1174 1.386 . S
C1171 H1183 0.930 . S
N1172 C1165 1.377 . S
N1172 C1173 1.321 . S
N1172 Eu1175 2.609 . S
C1173 C1171 1.400 . S
C1173 N1172 1.321 . S
C1173 H1180 0.930 . S
C1174 C1169 1.395 . S
C1174 C1171 1.386 . S
C1174 H1193 0.930 . S
Eu1175 N1172 2.609 . S
Eu1175 N1176 2.657 . S
Eu1175 O1209 2.380 . S
Eu1175 O1210 2.432 . S
Eu1175 O1214 2.558 . S
Eu1175 O1215 2.612 . S
Eu1175 O1217 2.339 . S
Eu1175 O1218 2.563 . S
Eu1175 O1219 2.419 . S
Eu1175 C1239 2.848 . S
N1176 C1168 1.362 . S
N1176 Eu1175 2.657 . S
N1176 C1177 1.334 . S
C1177 N1176 1.334 . S
C1177 C1179 1.413 . S
C1177 H1184 0.929 . S
C1178 C1166 1.392 . S
C1178 C1179 1.367 . S
C1178 H1186 0.930 . S
C1179 C1177 1.413 . S
C1179 C1178 1.367 . S
C1179 H1181 0.930 . S
H1180 C1173 0.930 . S
H1181 C1179 0.930 . S
H1182 C1170 0.930 . S
H1183 C1171 0.930 . S
H1184 C1177 0.929 . S
H1185 C1199 0.930 . S
H1186 C1178 0.930 . S
H1187 C1205 0.930 . S
H1188 C1196 0.929 . S
H1189 C1203 0.930 . S
H1190 C1167 0.931 . S
H1191 C1197 0.930 . S
H1192 C1230 0.930 . S
H1193 C1174 0.930 . S
H1194 C1229 0.931 . S
N1195 Eu1164 2.657 . S
N1195 C1196 1.334 . S
N1195 C1200 1.362 . S
C1196 H1188 0.929 . S
C1196 N1195 1.334 . S
C1196 C1199 1.413 . S
C1197 H1191 0.930 . S
C1197 C1198 1.392 . S
C1197 C1199 1.367 . S
C1198 C1197 1.392 . S
C1198 C1200 1.420 . S
C1198 C1230 1.423 . S
C1199 H1185 0.930 . S
C1199 C1196 1.413 . S
C1199 C1197 1.367 . S
C1200 N1195 1.362 . S
C1200 C1198 1.420 . S
C1200 C1204 1.429 . S
H1201 C1206 0.930 . S
N1202 Eu1164 2.609 . S
N1202 C1204 1.377 . S
N1202 C1205 1.321 . S
C1203 H1189 0.930 . S
C1203 C1205 1.400 . S
C1203 C1206 1.386 . S
C1204 C1200 1.429 . S
C1204 N1202 1.377 . S
C1204 C1207 1.411 . S
C1205 H1187 0.930 . S
C1205 N1202 1.321 . S
C1205 C1203 1.400 . S
C1206 H1201 0.930 . S
C1206 C1203 1.386 . S
C1206 C1207 1.395 . S
C1207 C1204 1.411 . S
C1207 C1206 1.395 . S
C1207 C1229 1.420 . S
O1208 Eu1164 2.558 . S
O1208 C1228 1.257 . S
O1209 Eu1164 2.612 . S
O1209 Eu1175 2.380 . S
O1209 C1220 1.276 . S
O1210 Eu1175 2.432 . S
O1210 C1227 1.264 . S
O1211 Eu1164 2.339 . S
O1211 C1227 1.254 . S
O1212 Eu1164 2.563 . S
O1212 C1220 1.235 . S
O1213 Eu1164 2.419 . S
O1213 C1228 1.249 . S
O1214 Eu1175 2.558 . S
O1214 C1239 1.257 . S
O1215 Eu1164 2.380 . S
O1215 Eu1175 2.612 . S
O1215 C1231 1.276 . S
O1216 Eu1164 2.432 . S
O1216 C1238 1.264 . S
O1217 Eu1175 2.339 . S
O1217 C1238 1.254 . S
O1218 Eu1175 2.563 . S
O1218 C1231 1.235 . S
O1219 Eu1175 2.419 . S
O1219 C1239 1.249 . S
C1220 O1209 1.276 . S
C1220 O1212 1.235 . S
C1221 C1223 1.393 . S
C1221 C1225 1.395 . S
C1221 C1228 1.492 . S
C1222 C1223 1.392 . S
C1222 C1224 1.386 . S
C1223 C1221 1.393 . S
C1223 C1222 1.392 . S
C1223 H1240 0.930 . S
C1224 C1222 1.386 . S
C1224 C1226 1.395 . S
C1224 H1241 0.930 . S
C1225 C1221 1.395 . S
C1225 C1226 1.379 . S
C1225 H1242 0.930 . S
C1226 C1224 1.395 . S
C1226 C1225 1.379 . S
C1226 H1243 0.930 . S
C1227 O1210 1.264 . S
C1227 O1211 1.254 . S
C1228 Eu1164 2.848 . S
C1228 O1208 1.257 . S
C1228 O1213 1.249 . S
C1228 C1221 1.492 . S
C1229 H1194 0.931 . S
C1229 C1207 1.420 . S
C1229 C1230 1.351 . S
C1230 H1192 0.930 . S
C1230 C1198 1.423 . S
C1230 C1229 1.351 . S
C1231 O1215 1.276 . S
C1231 O1218 1.235 . S
C1232 C1233 1.393 . S
C1232 C1236 1.395 . S
C1232 C1239 1.492 . S
C1233 C1232 1.393 . S
C1233 C1234 1.392 . S
C1233 H1244 0.930 . S
C1234 C1233 1.392 . S
C1234 C1235 1.386 . S
C1235 C1234 1.386 . S
C1235 C1237 1.395 . S
C1235 H1245 0.930 . S
C1236 C1232 1.395 . S
C1236 C1237 1.379 . S
C1236 H1246 0.930 . S
C1237 C1235 1.395 . S
C1237 C1236 1.379 . S
C1237 H1247 0.930 . S
C1238 O1216 1.264 . S
C1238 O1217 1.254 . S
C1239 Eu1175 2.848 . S
C1239 O1214 1.257 . S
C1239 O1219 1.249 . S
C1239 C1232 1.492 . S
H1240 C1223 0.930 . S
H1241 C1224 0.930 . S
H1242 C1225 0.930 . S
H1243 C1226 0.930 . S
H1244 C1233 0.930 . S
H1245 C1235 0.930 . S
H1246 C1236 0.930 . S
H1247 C1237 0.930 . S
Eu1248 N1279 2.657 . S
Eu1248 N1286 2.609 . S
Eu1248 O1292 2.558 . S
Eu1248 O1293 2.612 . S
Eu1248 O1295 2.339 . S
Eu1248 O1296 2.563 . S
Eu1248 O1297 2.419 . S
Eu1248 O1299 2.380 . S
Eu1248 O1300 2.432 . S
Eu1248 C1312 2.848 . S
C1249 C1252 1.429 . S
C1249 C1253 1.411 . S
C1249 N1256 1.377 . S
C1250 C1252 1.420 . S
C1250 C1254 1.423 . S
C1250 C1262 1.392 . S
C1251 C1253 1.420 . S
C1251 C1254 1.351 . S
C1251 H1274 0.931 . S
C1252 C1249 1.429 . S
C1252 C1250 1.420 . S
C1252 N1260 1.362 . S
C1253 C1249 1.411 . S
C1253 C1251 1.420 . S
C1253 C1258 1.395 . S
C1254 C1250 1.423 . S
C1254 C1251 1.351 . S
C1254 H1266 0.930 . S
C1255 C1257 1.400 . S
C1255 C1258 1.386 . S
C1255 H1267 0.930 . S
N1256 C1249 1.377 . S
N1256 C1257 1.321 . S
N1256 Eu1259 2.609 . S
C1257 C1255 1.400 . S
C1257 N1256 1.321 . S
C1257 H1264 0.930 . S
C1258 C1253 1.395 . S
C1258 C1255 1.386 . S
C1258 H1277 0.930 . S
Eu1259 N1256 2.609 . S
Eu1259 N1260 2.657 . S
Eu1259 O1293 2.380 . S
Eu1259 O1294 2.432 . S
Eu1259 O1298 2.558 . S
Eu1259 O1299 2.612 . S
Eu1259 O1301 2.339 . S
Eu1259 O1302 2.563 . S
Eu1259 O1303 2.419 . S
Eu1259 C1323 2.848 . S
N1260 C1252 1.362 . S
N1260 Eu1259 2.657 . S
N1260 C1261 1.334 . S
C1261 N1260 1.334 . S
C1261 C1263 1.413 . S
C1261 H1268 0.929 . S
C1262 C1250 1.392 . S
C1262 C1263 1.367 . S
C1262 H1270 0.930 . S
C1263 C1261 1.413 . S
C1263 C1262 1.367 . S
C1263 H1265 0.930 . S
H1264 C1257 0.930 . S
H1265 C1263 0.930 . S
H1266 C1254 0.930 . S
H1267 C1255 0.930 . S
H1268 C1261 0.929 . S
H1269 C1283 0.930 . S
H1270 C1262 0.930 . S
H1271 C1289 0.930 . S
H1272 C1280 0.929 . S
H1273 C1287 0.930 . S
H1274 C1251 0.931 . S
H1275 C1281 0.930 1_455 S
H1276 C1314 0.930 1_455 S
H1277 C1258 0.930 . S
H1278 C1313 0.931 . S
N1279 Eu1248 2.657 . S
N1279 C1280 1.334 . S
N1279 C1284 1.362 . S
C1280 H1272 0.929 . S
C1280 N1279 1.334 . S
C1280 C1283 1.413 . S
C1281 H1275 0.930 1_655 S
C1281 C1282 1.392 . S
C1281 C1283 1.367 . S
C1282 C1281 1.392 . S
C1282 C1284 1.420 . S
C1282 C1314 1.423 . S
C1283 H1269 0.930 . S
C1283 C1280 1.413 . S
C1283 C1281 1.367 . S
C1284 N1279 1.362 . S
C1284 C1282 1.420 . S
C1284 C1288 1.429 . S
H1285 C1290 0.930 . S
N1286 Eu1248 2.609 . S
N1286 C1288 1.377 . S
N1286 C1289 1.321 . S
C1287 H1273 0.930 . S
C1287 C1289 1.400 . S
C1287 C1290 1.386 . S
C1288 C1284 1.429 . S
C1288 N1286 1.377 . S
C1288 C1291 1.411 . S
C1289 H1271 0.930 . S
C1289 N1286 1.321 . S
C1289 C1287 1.400 . S
C1290 H1285 0.930 . S
C1290 C1287 1.386 . S
C1290 C1291 1.395 . S
C1291 C1288 1.411 . S
C1291 C1290 1.395 . S
C1291 C1313 1.420 . S
O1292 Eu1248 2.558 . S
O1292 C1312 1.257 . S
O1293 Eu1248 2.612 . S
O1293 Eu1259 2.380 . S
O1293 C1304 1.276 . S
O1294 Eu1259 2.432 . S
O1294 C1311 1.264 . S
O1295 Eu1248 2.339 . S
O1295 C1311 1.254 . S
O1296 Eu1248 2.563 . S
O1296 C1304 1.235 . S
O1297 Eu1248 2.419 . S
O1297 C1312 1.249 . S
O1298 Eu1259 2.558 . S
O1298 C1323 1.257 . S
O1299 Eu1248 2.380 . S
O1299 Eu1259 2.612 . S
O1299 C1315 1.276 . S
O1300 Eu1248 2.432 . S
O1300 C1322 1.264 . S
O1301 Eu1259 2.339 . S
O1301 C1322 1.254 . S
O1302 Eu1259 2.563 . S
O1302 C1315 1.235 . S
O1303 Eu1259 2.419 . S
O1303 C1323 1.249 . S
C1304 O1293 1.276 . S
C1304 O1296 1.235 . S
C1305 C1307 1.393 . S
C1305 C1309 1.395 . S
C1305 C1312 1.492 . S
C1306 C1307 1.392 . S
C1306 C1308 1.386 . S
C1307 C1305 1.393 . S
C1307 C1306 1.392 . S
C1307 H1324 0.930 . S
C1308 C1306 1.386 . S
C1308 C1310 1.395 . S
C1308 H1325 0.930 . S
C1309 C1305 1.395 . S
C1309 C1310 1.379 . S
C1309 H1326 0.930 . S
C1310 C1308 1.395 . S
C1310 C1309 1.379 . S
C1310 H1327 0.930 . S
C1311 O1294 1.264 . S
C1311 O1295 1.254 . S
C1312 Eu1248 2.848 . S
C1312 O1292 1.257 . S
C1312 O1297 1.249 . S
C1312 C1305 1.492 . S
C1313 H1278 0.931 . S
C1313 C1291 1.420 . S
C1313 C1314 1.351 . S
C1314 H1276 0.930 1_655 S
C1314 C1282 1.423 . S
C1314 C1313 1.351 . S
C1315 O1299 1.276 . S
C1315 O1302 1.235 . S
C1316 C1317 1.393 . S
C1316 C1320 1.395 . S
C1316 C1323 1.492 . S
C1317 C1316 1.393 . S
C1317 C1318 1.392 . S
C1317 H1328 0.930 . S
C1318 C1317 1.392 . S
C1318 C1319 1.386 . S
C1319 C1318 1.386 . S
C1319 C1321 1.395 . S
C1319 H1329 0.930 . S
C1320 C1316 1.395 . S
C1320 C1321 1.379 . S
C1320 H1330 0.930 . S
C1321 C1319 1.395 . S
C1321 C1320 1.379 . S
C1321 H1331 0.930 . S
C1322 O1300 1.264 . S
C1322 O1301 1.254 . S
C1323 Eu1259 2.848 . S
C1323 O1298 1.257 . S
C1323 O1303 1.249 . S
C1323 C1316 1.492 . S
H1324 C1307 0.930 . S
H1325 C1308 0.930 . S
H1326 C1309 0.930 . S
H1327 C1310 0.930 . S
H1328 C1317 0.930 . S
H1329 C1319 0.930 . S
H1330 C1320 0.930 . S
H1331 C1321 0.930 . S
C1332 C1333 1.369 . S
C1332 C1334 1.419 . S
C1332 H1336 0.930 . S
C1333 C1332 1.369 . S
C1333 C1342 1.429 . S
C1334 C1332 1.419 . S
C1334 C1335 1.363 . S
C1334 H1337 0.929 . S
C1335 C1334 1.363 . S
C1335 C1341 1.428 . S
H1336 C1332 0.930 . S
H1337 C1334 0.929 . S
S1338 N1339 1.613 . S
S1338 N1340 1.610 . S
N1339 S1338 1.613 . S
N1339 C1342 1.350 . S
N1340 S1338 1.610 . S
N1340 C1341 1.351 . S
C1341 C1335 1.428 . S
C1341 N1340 1.351 . S
C1341 C1342 1.434 . S
C1342 C1333 1.429 . S
C1342 N1339 1.350 . S
C1342 C1341 1.434 . S
C1343 C1344 1.369 . S
C1343 C1345 1.419 . S
C1343 H1347 0.930 . S
C1344 C1343 1.369 . S
C1344 C1353 1.429 . S
C1345 C1343 1.419 . S
C1345 C1346 1.363 . S
C1345 H1348 0.929 . S
C1346 C1345 1.363 . S
C1346 C1352 1.428 . S
H1347 C1343 0.930 . S
H1348 C1345 0.929 . S
S1349 N1350 1.613 . S
S1349 N1351 1.610 . S
N1350 S1349 1.613 . S
N1350 C1353 1.350 . S
N1351 S1349 1.610 . S
N1351 C1352 1.351 . S
C1352 C1346 1.428 . S
C1352 N1351 1.351 . S
C1352 C1353 1.434 . S
C1353 C1344 1.429 . S
C1353 N1350 1.350 . S
C1353 C1352 1.434 . S
C1354 C1355 1.369 . S
C1354 C1356 1.419 . S
C1354 H1358 0.930 . S
C1355 C1354 1.369 . S
C1355 C1364 1.429 . S
C1356 C1354 1.419 . S
C1356 C1357 1.363 . S
C1356 H1359 0.929 . S
C1357 C1356 1.363 . S
C1357 C1363 1.428 . S
H1358 C1354 0.930 . S
H1359 C1356 0.929 . S
S1360 N1361 1.613 1_556 S
S1360 N1362 1.610 1_556 S
N1361 S1360 1.613 1_554 S
N1361 C1364 1.350 . S
N1362 S1360 1.610 1_554 S
N1362 C1363 1.351 . S
C1363 C1357 1.428 . S
C1363 N1362 1.351 . S
C1363 C1364 1.434 . S
C1364 C1355 1.429 . S
C1364 N1361 1.350 . S
C1364 C1363 1.434 . S
C1365 C1366 1.369 . S
C1365 C1367 1.419 . S
C1365 H1369 0.930 . S
C1366 C1365 1.369 . S
C1366 C1375 1.429 . S
C1367 C1365 1.419 . S
C1367 C1368 1.363 . S
C1367 H1370 0.929 . S
C1368 C1367 1.363 . S
C1368 C1374 1.428 . S
H1369 C1365 0.930 . S
H1370 C1367 0.929 . S
S1371 N1372 1.613 1_554 S
S1371 N1373 1.613 . S
N1372 S1371 1.613 1_556 S
N1372 C1375 1.350 . S
N1373 S1371 1.613 . S
N1373 C1374 1.335 1_554 S
C1374 C1368 1.428 . S
C1374 N1373 1.335 1_556 S
C1374 C1375 1.434 . S
C1375 C1366 1.429 . S
C1375 N1372 1.350 . S
C1375 C1374 1.434 . S
C1376 C1377 1.369 . S
C1376 C1378 1.419 . S
C1376 H1380 0.930 . S
C1377 C1376 1.369 . S
C1377 C1386 1.429 . S
C1378 C1376 1.419 . S
C1378 C1379 1.363 . S
C1378 H1381 0.929 . S
C1379 C1378 1.363 . S
C1379 C1385 1.428 . S
H1380 C1376 0.930 . S
H1381 C1378 0.929 . S
S1382 N1383 1.613 . S
S1382 N1384 1.610 . S
N1383 S1382 1.613 . S
N1383 C1386 1.350 . S
N1384 S1382 1.610 . S
N1384 C1385 1.351 . S
C1385 C1379 1.428 . S
C1385 N1384 1.351 . S
C1385 C1386 1.434 . S
C1386 C1377 1.429 . S
C1386 N1383 1.350 . S
C1386 C1385 1.434 . S
C1387 C1388 1.369 . S
C1387 C1389 1.419 . S
C1387 H1391 0.930 . S
C1388 C1387 1.369 . S
C1388 C1397 1.429 . S
C1389 C1387 1.419 . S
C1389 C1390 1.363 . S
C1389 H1392 0.929 . S
C1390 C1389 1.363 . S
C1390 C1396 1.428 . S
H1391 C1387 0.930 . S
H1392 C1389 0.929 . S
S1393 N1394 1.613 . S
S1393 N1395 1.610 . S
N1394 S1393 1.613 . S
N1394 C1397 1.350 . S
N1395 S1393 1.610 . S
N1395 C1396 1.351 . S
C1396 C1390 1.428 . S
C1396 N1395 1.351 . S
C1396 C1397 1.434 . S
C1397 C1388 1.429 . S
C1397 N1394 1.350 . S
C1397 C1396 1.434 . S
C1398 C1399 1.369 . S
C1398 C1400 1.419 . S
C1398 H1402 0.930 . S
C1399 C1398 1.369 . S
C1399 C1408 1.429 . S
C1400 C1398 1.419 . S
C1400 C1401 1.363 . S
C1400 H1403 0.929 1_556 S
C1401 C1400 1.363 . S
C1401 C1407 1.428 . S
H1402 C1398 0.930 . S
H1403 C1400 0.929 1_554 S
S1404 N1405 1.613 . S
S1404 N1406 1.610 . S
N1405 S1404 1.613 . S
N1405 C1408 1.350 . S
N1406 S1404 1.610 . S
N1406 C1407 1.351 . S
C1407 C1401 1.428 . S
C1407 N1406 1.351 . S
C1407 C1408 1.434 . S
C1408 C1399 1.429 . S
C1408 N1405 1.350 . S
C1408 C1407 1.434 . S
C1409 C1410 1.369 . S
C1409 C1411 1.419 . S
C1409 H1413 0.930 . S
C1410 C1409 1.369 . S
C1410 C1419 1.429 . S
C1411 C1409 1.419 . S
C1411 C1412 1.363 . S
C1411 H1414 0.929 . S
C1412 C1411 1.363 . S
C1412 C1418 1.428 . S
H1413 C1409 0.930 . S
H1414 C1411 0.929 . S
S1415 N1416 1.663 . S
S1415 N1417 1.610 . S
N1416 S1415 1.663 . S
N1416 C1419 1.310 1_554 S
N1417 S1415 1.610 . S
N1417 C1418 1.351 1_554 S
C1418 C1412 1.428 . S
C1418 N1417 1.351 1_556 S
C1418 C1419 1.434 . S
C1419 C1410 1.429 . S
C1419 N1416 1.310 1_556 S
C1419 C1418 1.434 . S
C1420 C1421 1.369 . S
C1420 C1422 1.419 . S
C1420 H1424 0.930 . S
C1421 C1420 1.369 . S
C1421 C1430 1.429 . S
C1422 C1420 1.419 . S
C1422 C1423 1.363 . S
C1422 H1425 0.929 . S
C1423 C1422 1.363 . S
C1423 C1429 1.428 . S
H1424 C1420 0.930 . S
H1425 C1422 0.929 . S
S1426 N1427 1.613 1_554 S
S1426 N1428 1.610 . S
N1427 S1426 1.613 1_556 S
N1427 C1430 1.350 . S
N1428 S1426 1.610 . S
N1428 C1429 1.351 1_554 S
C1429 C1423 1.428 . S
C1429 N1428 1.351 1_556 S
C1429 C1430 1.434 . S
C1430 C1421 1.429 . S
C1430 N1427 1.350 . S
C1430 C1429 1.434 . S
C1431 C1432 1.369 . S
C1431 C1433 1.419 . S
C1431 H1435 0.930 . S
C1432 C1431 1.369 . S
C1432 C1441 1.429 . S
C1433 C1431 1.419 . S
C1433 C1434 1.363 . S
C1433 H1436 0.929 . S
C1434 C1433 1.363 . S
C1434 C1440 1.428 . S
H1435 C1431 0.930 . S
H1436 C1433 0.929 . S
S1437 N1438 1.613 1_556 S
S1437 N1439 1.610 1_556 S
N1438 S1437 1.613 1_554 S
N1438 C1441 1.350 . S
N1439 S1437 1.610 1_554 S
N1439 C1440 1.351 . S
C1440 C1434 1.428 . S
C1440 N1439 1.351 . S
C1440 C1441 1.434 . S
C1441 C1432 1.429 . S
C1441 N1438 1.350 . S
C1441 C1440 1.434 . S
C1442 C1443 1.369 . S
C1442 C1444 1.419 . S
C1442 H1446 0.930 . S
C1443 C1442 1.369 . S
C1443 C1452 1.429 . S
C1444 C1442 1.419 . S
C1444 C1445 1.363 . S
C1444 H1447 0.929 . S
C1445 C1444 1.363 . S
C1445 C1451 1.428 . S
H1446 C1442 0.930 . S
H1447 C1444 0.929 . S
S1448 N1449 1.613 . S
S1448 N1450 1.610 . S
N1449 S1448 1.613 . S
N1449 C1452 1.350 . S
N1450 S1448 1.610 . S
N1450 C1451 1.351 . S
C1451 C1445 1.428 . S
C1451 N1450 1.351 . S
C1451 C1452 1.434 . S
C1452 C1443 1.429 . S
C1452 N1449 1.350 . S
C1452 C1451 1.434 . S
C1453 C1454 1.369 . S
C1453 C1455 1.419 . S
C1453 H1457 0.930 . S
C1454 C1453 1.369 . S
C1454 C1463 1.429 . S
C1455 C1453 1.419 . S
C1455 C1456 1.363 . S
C1455 H1458 0.929 . S
C1456 C1455 1.363 . S
C1456 C1462 1.428 . S
H1457 C1453 0.930 . S
H1458 C1455 0.929 . S
S1459 N1460 1.613 . S
S1459 N1461 1.610 . S
N1460 S1459 1.613 . S
N1460 C1463 1.350 . S
N1461 S1459 1.610 . S
N1461 C1462 1.351 . S
C1462 C1456 1.428 . S
C1462 N1461 1.351 . S
C1462 C1463 1.434 . S
C1463 C1454 1.429 . S
C1463 N1460 1.350 . S
C1463 C1462 1.434 . S
C1464 C1465 1.369 . S
C1464 C1466 1.419 . S
C1464 H1468 0.930 . S
C1465 C1464 1.369 . S
C1465 C1474 1.429 . S
C1466 C1464 1.419 . S
C1466 C1467 1.363 . S
C1466 H1469 0.929 . S
C1467 C1466 1.363 . S
C1467 C1473 1.428 . S
H1468 C1464 0.930 . S
H1469 C1466 0.929 . S
S1470 N1471 1.613 . S
S1470 N1472 1.610 . S
N1471 S1470 1.613 . S
N1471 C1474 1.350 . S
N1472 S1470 1.610 . S
N1472 C1473 1.351 . S
C1473 C1467 1.428 . S
C1473 N1472 1.351 . S
C1473 C1474 1.434 . S
C1474 C1465 1.429 . S
C1474 N1471 1.350 . S
C1474 C1473 1.434 . S
C1475 C1476 1.369 . S
C1475 C1477 1.419 . S
C1475 H1479 0.930 . S
C1476 C1475 1.369 . S
C1476 C1485 1.429 . S
C1477 C1475 1.419 . S
C1477 C1478 1.363 . S
C1477 H1480 0.929 . S
C1478 C1477 1.363 . S
C1478 C1484 1.428 . S
H1479 C1475 0.930 . S
H1480 C1477 0.929 . S
S1481 N1482 1.613 . S
S1481 N1483 1.610 . S
N1482 S1481 1.613 . S
N1482 C1485 1.350 . S
N1483 S1481 1.610 . S
N1483 C1484 1.351 . S
C1484 C1478 1.428 . S
C1484 N1483 1.351 . S
C1484 C1485 1.434 . S
C1485 C1476 1.429 . S
C1485 N1482 1.350 . S
C1485 C1484 1.434 . S
C1486 C1487 1.364 1_565 S
C1486 C1488 1.419 . S
C1486 H1490 0.930 . S
C1487 C1486 1.364 1_545 S
C1487 C1496 1.419 1_545 S
C1488 C1486 1.419 . S
C1488 C1489 1.363 . S
C1488 H1491 0.929 . S
C1489 C1488 1.363 . S
C1489 C1495 1.428 . S
H1490 C1486 0.930 . S
H1491 C1488 0.929 . S
S1492 N1493 1.613 1_565 S
S1492 N1494 1.610 . S
N1493 S1492 1.613 1_545 S
N1493 C1496 1.350 1_545 S
N1494 S1492 1.610 . S
N1494 C1495 1.351 . S
C1495 C1489 1.428 . S
C1495 N1494 1.351 . S
C1495 C1496 1.434 . S
C1496 C1487 1.419 1_565 S
C1496 N1493 1.350 1_565 S
C1496 C1495 1.434 . S
C1497 C1498 1.369 . S
C1497 C1499 1.419 . S
C1497 H1501 0.930 . S
C1498 C1497 1.369 . S
C1498 C1507 1.429 . S
C1499 C1497 1.419 . S
C1499 C1500 1.363 . S
C1499 H1502 0.929 . S
C1500 C1499 1.363 . S
C1500 C1506 1.428 . S
H1501 C1497 0.930 . S
H1502 C1499 0.929 . S
S1503 N1504 1.613 . S
S1503 N1505 1.610 . S
N1504 S1503 1.613 . S
N1504 C1507 1.350 . S
N1505 S1503 1.610 . S
N1505 C1506 1.351 . S
C1506 C1500 1.428 . S
C1506 N1505 1.351 . S
C1506 C1507 1.434 . S
C1507 C1498 1.429 . S
C1507 N1504 1.350 . S
C1507 C1506 1.434 . S
C1508 C1509 1.369 . S
C1508 C1510 1.419 . S
C1508 H1512 0.930 . S
C1509 C1508 1.369 . S
C1509 C1518 1.429 . S
C1510 C1508 1.419 . S
C1510 C1511 1.363 . S
C1510 H1513 0.929 . S
C1511 C1510 1.363 . S
C1511 C1517 1.428 . S
H1512 C1508 0.930 . S
H1513 C1510 0.929 . S
S1514 N1515 1.613 . S
S1514 N1516 1.610 . S
N1515 S1514 1.613 . S
N1515 C1518 1.350 . S
N1516 S1514 1.610 . S
N1516 C1517 1.351 . S
C1517 C1511 1.428 . S
C1517 N1516 1.351 . S
C1517 C1518 1.434 . S
C1518 C1509 1.429 . S
C1518 N1515 1.350 . S
C1518 C1517 1.434 . S
C1519 C1520 1.369 . S
C1519 C1521 1.419 . S
C1519 H1523 0.930 . S
C1520 C1519 1.369 . S
C1520 C1529 1.429 . S
C1521 C1519 1.419 . S
C1521 C1522 1.363 . S
C1521 H1524 0.929 . S
C1522 C1521 1.363 . S
C1522 C1528 1.428 . S
H1523 C1519 0.930 . S
H1524 C1521 0.929 . S
S1525 N1526 1.613 . S
S1525 N1527 1.610 . S
N1526 S1525 1.613 . S
N1526 C1529 1.350 . S
N1527 S1525 1.610 . S
N1527 C1528 1.351 . S
C1528 C1522 1.428 . S
C1528 N1527 1.351 . S
C1528 C1529 1.434 . S
C1529 C1520 1.429 . S
C1529 N1526 1.350 . S
C1529 C1528 1.434 . S
C1530 C1531 1.369 . S
C1530 C1532 1.419 . S
C1530 H1534 0.930 . S
C1531 C1530 1.369 . S
C1531 C1540 1.429 . S
C1532 C1530 1.419 . S
C1532 C1533 1.363 . S
C1532 H1535 0.929 . S
C1533 C1532 1.363 . S
C1533 C1539 1.428 . S
H1534 C1530 0.930 . S
H1535 C1532 0.929 . S
S1536 N1537 1.613 . S
S1536 N1538 1.610 . S
N1537 S1536 1.613 . S
N1537 C1540 1.350 . S
N1538 S1536 1.610 . S
N1538 C1539 1.351 . S
C1539 C1533 1.428 . S
C1539 N1538 1.351 . S
C1539 C1540 1.434 . S
C1540 C1531 1.429 . S
C1540 N1537 1.350 . S
C1540 C1539 1.434 . S
C1541 C1542 1.369 . S
C1541 C1543 1.419 . S
C1541 H1545 0.930 . S
C1542 C1541 1.369 . S
C1542 C1551 1.429 . S
C1543 C1541 1.419 . S
C1543 C1544 1.363 . S
C1543 H1546 0.929 . S
C1544 C1543 1.363 . S
C1544 C1550 1.428 . S
H1545 C1541 0.930 . S
H1546 C1543 0.929 . S
S1547 N1548 1.613 . S
S1547 N1549 1.610 . S
N1548 S1547 1.613 . S
N1548 C1551 1.350 . S
N1549 S1547 1.610 . S
N1549 C1550 1.351 . S
C1550 C1544 1.428 . S
C1550 N1549 1.351 . S
C1550 C1551 1.434 . S
C1551 C1542 1.429 . S
C1551 N1548 1.350 . S
C1551 C1550 1.434 . S
C1552 C1553 1.369 . S
C1552 C1554 1.419 . S
C1552 H1556 0.930 . S
C1553 C1552 1.369 . S
C1553 C1562 1.429 . S
C1554 C1552 1.419 . S
C1554 C1555 1.363 . S
C1554 H1557 0.929 . S
C1555 C1554 1.363 . S
C1555 C1561 1.428 . S
H1556 C1552 0.930 . S
H1557 C1554 0.929 . S
S1558 N1559 1.613 . S
S1558 N1560 1.610 . S
N1559 S1558 1.613 . S
N1559 C1562 1.350 . S
N1560 S1558 1.610 . S
N1560 C1561 1.351 . S
C1561 C1555 1.428 . S
C1561 N1560 1.351 . S
C1561 C1562 1.434 . S
C1562 C1553 1.429 . S
C1562 N1559 1.350 . S
C1562 C1561 1.434 . S
C1563 C1564 1.369 . S
C1563 C1565 1.419 . S
C1563 H1567 0.930 . S
C1564 C1563 1.369 . S
C1564 C1573 1.429 . S
C1565 C1563 1.419 . S
C1565 C1566 1.363 . S
C1565 H1568 0.929 . S
C1566 C1565 1.363 . S
C1566 C1572 1.428 . S
H1567 C1563 0.930 . S
H1568 C1565 0.929 . S
S1569 N1570 1.613 1_565 S
S1569 N1571 1.610 . S
N1570 S1569 1.613 1_545 S
N1570 C1573 1.350 1_545 S
N1571 S1569 1.610 . S
N1571 C1572 1.351 . S
C1572 C1566 1.428 . S
C1572 N1571 1.351 . S
C1572 C1573 1.434 . S
C1573 C1564 1.429 . S
C1573 N1570 1.350 1_565 S
C1573 C1572 1.434 . S
C1574 C1575 1.369 . S
C1574 C1576 1.419 . S
C1574 H1578 0.930 . S
C1575 C1574 1.369 . S
C1575 C1584 1.429 . S
C1576 C1574 1.419 . S
C1576 C1577 1.363 . S
C1576 H1579 0.929 . S
C1577 C1576 1.363 . S
C1577 C1583 1.428 . S
H1578 C1574 0.930 . S
H1579 C1576 0.929 . S
S1580 N1581 1.613 . S
S1580 N1582 1.610 . S
N1581 S1580 1.613 . S
N1581 C1584 1.350 . S
N1582 S1580 1.610 . S
N1582 C1583 1.351 . S
C1583 C1577 1.428 . S
C1583 N1582 1.351 . S
C1583 C1584 1.434 . S
C1584 C1575 1.429 . S
C1584 N1581 1.350 . S
C1584 C1583 1.434 . S
C1585 C1586 1.369 . S
C1585 C1587 1.419 . S
C1585 H1589 0.930 . S
C1586 C1585 1.369 . S
C1586 C1595 1.429 . S
C1587 C1585 1.419 . S
C1587 C1588 1.363 . S
C1587 H1590 0.929 . S
C1588 C1587 1.363 . S
C1588 C1594 1.428 . S
H1589 C1585 0.930 . S
H1590 C1587 0.929 . S
S1591 N1592 1.613 . S
S1591 N1593 1.610 . S
N1592 S1591 1.613 . S
N1592 C1595 1.350 . S
N1593 S1591 1.610 . S
N1593 C1594 1.351 . S
C1594 C1588 1.428 . S
C1594 N1593 1.351 . S
C1594 C1595 1.434 . S
C1595 C1586 1.429 . S
C1595 N1592 1.350 . S
C1595 C1594 1.434 . S
C1596 C1597 1.369 . S
C1596 C1598 1.419 . S
C1596 H1600 0.930 . S
C1597 C1596 1.369 . S
C1597 C1606 1.429 . S
C1598 C1596 1.419 . S
C1598 C1599 1.363 . S
C1598 H1601 0.929 . S
C1599 C1598 1.363 . S
C1599 C1605 1.428 . S
H1600 C1596 0.930 . S
H1601 C1598 0.929 . S
S1602 N1603 1.613 . S
S1602 N1604 1.610 . S
N1603 S1602 1.613 . S
N1603 C1606 1.350 . S
N1604 S1602 1.610 . S
N1604 C1605 1.351 . S
C1605 C1599 1.428 . S
C1605 N1604 1.351 . S
C1605 C1606 1.434 . S
C1606 C1597 1.429 . S
C1606 N1603 1.350 . S
C1606 C1605 1.434 . S
C1607 C1608 1.369 . S
C1607 C1609 1.419 . S
C1607 H1611 0.930 . S
C1608 C1607 1.369 . S
C1608 C1617 1.429 . S
C1609 C1607 1.419 . S
C1609 C1610 1.363 . S
C1609 H1612 0.929 . S
C1610 C1609 1.363 . S
C1610 C1616 1.428 . S
H1611 C1607 0.930 . S
H1612 C1609 0.929 . S
S1613 N1614 1.613 . S
S1613 N1615 1.610 . S
N1614 S1613 1.613 . S
N1614 C1617 1.350 . S
N1615 S1613 1.610 . S
N1615 C1616 1.351 . S
C1616 C1610 1.428 . S
C1616 N1615 1.351 . S
C1616 C1617 1.434 . S
C1617 C1608 1.429 . S
C1617 N1614 1.350 . S
C1617 C1616 1.434 . S
C1618 C1619 1.369 . S
C1618 C1620 1.419 . S
C1618 H1622 0.930 . S
C1619 C1618 1.369 . S
C1619 C1628 1.429 . S
C1620 C1618 1.419 . S
C1620 C1621 1.363 . S
C1620 H1623 0.929 . S
C1621 C1620 1.363 . S
C1621 C1627 1.428 . S
H1622 C1618 0.930 . S
H1623 C1620 0.929 . S
S1624 N1625 1.613 . S
S1624 N1626 1.610 . S
N1625 S1624 1.613 . S
N1625 C1628 1.350 . S
N1626 S1624 1.610 . S
N1626 C1627 1.351 . S
C1627 C1621 1.428 . S
C1627 N1626 1.351 . S
C1627 C1628 1.434 . S
C1628 C1619 1.429 . S
C1628 N1625 1.350 . S
C1628 C1627 1.434 . S
C1629 C1630 1.369 . S
C1629 C1631 1.419 . S
C1629 H1633 0.930 . S
C1630 C1629 1.369 . S
C1630 C1639 1.429 . S
C1631 C1629 1.419 . S
C1631 C1632 1.363 . S
C1631 H1634 0.929 . S
C1632 C1631 1.363 . S
C1632 C1638 1.428 . S
H1633 C1629 0.930 . S
H1634 C1631 0.929 . S
S1635 N1636 1.613 1_545 S
S1635 N1637 1.610 . S
N1636 S1635 1.613 1_565 S
N1636 C1639 1.350 1_565 S
N1637 S1635 1.610 . S
N1637 C1638 1.351 . S
C1638 C1632 1.428 . S
C1638 N1637 1.351 . S
C1638 C1639 1.434 . S
C1639 C1630 1.429 . S
C1639 N1636 1.350 1_545 S
C1639 C1638 1.434 . S
C1640 C1641 1.369 . S
C1640 C1642 1.419 . S
C1640 H1644 0.930 . S
C1641 C1640 1.369 . S
C1641 C1650 1.429 . S
C1642 C1640 1.419 . S
C1642 C1643 1.363 . S
C1642 H1645 0.929 . S
C1643 C1642 1.363 . S
C1643 C1649 1.428 . S
H1644 C1640 0.930 . S
H1645 C1642 0.929 . S
S1646 N1647 1.613 . S
S1646 N1648 1.610 . S
N1647 S1646 1.613 . S
N1647 C1650 1.350 . S
N1648 S1646 1.610 . S
N1648 C1649 1.351 . S
C1649 C1643 1.428 . S
C1649 N1648 1.351 . S
C1649 C1650 1.434 . S
C1650 C1641 1.429 . S
C1650 N1647 1.350 . S
C1650 C1649 1.434 . S
C1651 C1652 1.369 . S
C1651 C1653 1.419 . S
C1651 H1655 0.930 . S
C1652 C1651 1.369 . S
C1652 C1661 1.429 . S
C1653 C1651 1.419 . S
C1653 C1654 1.363 . S
C1653 H1656 0.929 . S
C1654 C1653 1.363 . S
C1654 C1660 1.428 . S
H1655 C1651 0.930 . S
H1656 C1653 0.929 . S
S1657 N1658 1.613 . S
S1657 N1659 1.610 . S
N1658 S1657 1.613 . S
N1658 C1661 1.350 . S
N1659 S1657 1.610 . S
N1659 C1660 1.351 . S
C1660 C1654 1.428 . S
C1660 N1659 1.351 . S
C1660 C1661 1.434 . S
C1661 C1652 1.429 . S
C1661 N1658 1.350 . S
C1661 C1660 1.434 . S
C1662 C1663 1.369 . S
C1662 C1664 1.419 . S
C1662 H1666 0.930 1_655 S
C1663 C1662 1.369 . S
C1663 C1672 1.429 . S
C1664 C1662 1.419 . S
C1664 C1665 1.363 . S
C1664 H1667 0.929 . S
C1665 C1664 1.363 . S
C1665 C1671 1.428 . S
H1666 C1662 0.930 1_455 S
H1667 C1664 0.929 . S
S1668 N1669 1.613 . S
S1668 N1670 1.610 . S
N1669 S1668 1.613 . S
N1669 C1672 1.350 . S
N1670 S1668 1.610 . S
N1670 C1671 1.351 . S
C1671 C1665 1.428 . S
C1671 N1670 1.351 . S
C1671 C1672 1.434 . S
C1672 C1663 1.429 . S
C1672 N1669 1.350 . S
C1672 C1671 1.434 . S
C1673 C1674 1.369 . S
C1673 C1675 1.419 . S
C1673 H1677 0.930 . S
C1674 C1673 1.369 . S
C1674 C1683 1.429 . S
C1675 C1673 1.419 . S
C1675 C1676 1.363 . S
C1675 H1678 0.929 . S
C1676 C1675 1.363 . S
C1676 C1682 1.428 . S
H1677 C1673 0.930 . S
H1678 C1675 0.929 . S
S1679 N1680 1.613 . S
S1679 N1681 1.610 . S
N1680 S1679 1.613 . S
N1680 C1683 1.350 . S
N1681 S1679 1.610 . S
N1681 C1682 1.351 . S
C1682 C1676 1.428 . S
C1682 N1681 1.351 . S
C1682 C1683 1.434 . S
C1683 C1674 1.429 . S
C1683 N1680 1.350 . S
C1683 C1682 1.434 . S
C1684 C1685 1.369 . S
C1684 C1686 1.419 . S
C1684 H1688 0.930 . S
C1685 C1684 1.369 . S
C1685 C1694 1.429 . S
C1686 C1684 1.419 . S
C1686 C1687 1.363 . S
C1686 H1689 0.929 . S
C1687 C1686 1.363 . S
C1687 C1693 1.428 . S
H1688 C1684 0.930 . S
H1689 C1686 0.929 . S
S1690 N1691 1.613 . S
S1690 N1692 1.610 . S
N1691 S1690 1.613 . S
N1691 C1694 1.350 . S
N1692 S1690 1.610 . S
N1692 C1693 1.351 . S
C1693 C1687 1.428 . S
C1693 N1692 1.351 . S
C1693 C1694 1.434 . S
C1694 C1685 1.429 . S
C1694 N1691 1.350 . S
C1694 C1693 1.434 . S
C1695 C1696 1.369 . S
C1695 C1697 1.419 . S
C1695 H1699 0.930 . S
C1696 C1695 1.369 . S
C1696 C1705 1.429 . S
C1697 C1695 1.419 . S
C1697 C1698 1.363 . S
C1697 H1700 0.929 . S
C1698 C1697 1.363 . S
C1698 C1704 1.428 . S
H1699 C1695 0.930 . S
H1700 C1697 0.929 . S
S1701 N1702 1.613 . S
S1701 N1703 1.610 . S
N1702 S1701 1.613 . S
N1702 C1705 1.350 . S
N1703 S1701 1.610 . S
N1703 C1704 1.351 . S
C1704 C1698 1.428 . S
C1704 N1703 1.351 . S
C1704 C1705 1.434 . S
C1705 C1696 1.429 . S
C1705 N1702 1.350 . S
C1705 C1704 1.434 . S
C1706 C1707 1.369 . S
C1706 C1708 1.419 . S
C1706 H1710 0.930 . S
C1707 C1706 1.369 . S
C1707 C1716 1.429 . S
C1708 C1706 1.419 . S
C1708 C1709 1.363 . S
C1708 H1711 0.929 . S
C1709 C1708 1.363 . S
C1709 C1715 1.428 . S
H1710 C1706 0.930 . S
H1711 C1708 0.929 . S
S1712 N1713 1.613 . S
S1712 N1714 1.610 . S
N1713 S1712 1.613 . S
N1713 C1716 1.350 . S
N1714 S1712 1.610 . S
N1714 C1715 1.351 . S
C1715 C1709 1.428 . S
C1715 N1714 1.351 . S
C1715 C1716 1.434 . S
C1716 C1707 1.429 . S
C1716 N1713 1.350 . S
C1716 C1715 1.434 . S
C1717 C1718 1.369 . S
C1717 C1719 1.419 . S
C1717 H1721 0.930 . S
C1718 C1717 1.369 . S
C1718 C1727 1.429 . S
C1719 C1717 1.419 . S
C1719 C1720 1.363 . S
C1719 H1722 0.929 . S
C1720 C1719 1.363 . S
C1720 C1726 1.428 . S
H1721 C1717 0.930 . S
H1722 C1719 0.929 . S
S1723 N1724 1.613 . S
S1723 N1725 1.610 . S
N1724 S1723 1.613 . S
N1724 C1727 1.350 . S
N1725 S1723 1.610 . S
N1725 C1726 1.351 . S
C1726 C1720 1.428 . S
C1726 N1725 1.351 . S
C1726 C1727 1.434 . S
C1727 C1718 1.429 . S
C1727 N1724 1.350 . S
C1727 C1726 1.434 . S
C1728 C1729 1.369 . S
C1728 C1730 1.419 . S
C1728 H1732 0.930 . S
C1729 C1728 1.369 . S
C1729 C1738 1.429 . S
C1730 C1728 1.419 . S
C1730 C1731 1.363 . S
C1730 H1733 0.929 . S
C1731 C1730 1.363 . S
C1731 C1737 1.428 . S
H1732 C1728 0.930 . S
H1733 C1730 0.929 . S
S1734 N1735 1.613 . S
S1734 N1736 1.610 . S
N1735 S1734 1.613 . S
N1735 C1738 1.350 . S
N1736 S1734 1.610 . S
N1736 C1737 1.351 . S
C1737 C1731 1.428 . S
C1737 N1736 1.351 . S
C1737 C1738 1.434 . S
C1738 C1729 1.429 . S
C1738 N1735 1.350 . S
C1738 C1737 1.434 . S
C1739 C1740 1.369 . S
C1739 C1741 1.419 . S
C1739 H1743 0.930 . S
C1740 C1739 1.369 . S
C1740 C1749 1.429 . S
C1741 C1739 1.419 . S
C1741 C1742 1.363 . S
C1741 H1744 0.929 . S
C1742 C1741 1.363 . S
C1742 C1748 1.428 . S
H1743 C1739 0.930 . S
H1744 C1741 0.929 . S
S1745 N1746 1.613 . S
S1745 N1747 1.610 . S
N1746 S1745 1.613 . S
N1746 C1749 1.350 . S
N1747 S1745 1.610 . S
N1747 C1748 1.351 . S
C1748 C1742 1.428 . S
C1748 N1747 1.351 . S
C1748 C1749 1.434 . S
C1749 C1740 1.429 . S
C1749 N1746 1.350 . S
C1749 C1748 1.434 . S
C1750 C1751 1.369 . S
C1750 C1752 1.419 . S
C1750 H1754 0.930 . S
C1751 C1750 1.369 . S
C1751 C1760 1.429 . S
C1752 C1750 1.419 . S
C1752 C1753 1.363 . S
C1752 H1755 0.929 . S
C1753 C1752 1.363 . S
C1753 C1759 1.428 . S
H1754 C1750 0.930 . S
H1755 C1752 0.929 . S
S1756 N1757 1.613 . S
S1756 N1758 1.610 . S
N1757 S1756 1.613 . S
N1757 C1760 1.350 . S
N1758 S1756 1.610 . S
N1758 C1759 1.351 . S
C1759 C1753 1.428 . S
C1759 N1758 1.351 . S
C1759 C1760 1.434 . S
C1760 C1751 1.429 . S
C1760 N1757 1.350 . S
C1760 C1759 1.434 . S
C1761 C1762 1.369 . S
C1761 C1763 1.419 . S
C1761 H1765 0.912 1_655 S
C1762 C1761 1.369 . S
C1762 C1771 1.429 . S
C1763 C1761 1.419 . S
C1763 C1764 1.363 . S
C1763 H1766 0.929 1_655 S
C1764 C1763 1.363 . S
C1764 C1770 1.428 . S
H1765 C1761 0.912 1_455 S
H1766 C1763 0.929 1_455 S
S1767 N1768 1.613 . S
S1767 N1769 1.610 . S
N1768 S1767 1.613 . S
N1768 C1771 1.350 . S
N1769 S1767 1.610 . S
N1769 C1770 1.351 . S
C1770 C1764 1.428 . S
C1770 N1769 1.351 . S
C1770 C1771 1.434 . S
C1771 C1762 1.429 . S
C1771 N1768 1.350 . S
C1771 C1770 1.434 . S
C1772 C1773 1.369 . S
C1772 C1774 1.419 . S
C1772 H1776 0.930 . S
C1773 C1772 1.369 . S
C1773 C1782 1.429 . S
C1774 C1772 1.419 . S
C1774 C1775 1.363 . S
C1774 H1777 0.929 . S
C1775 C1774 1.363 . S
C1775 C1781 1.428 . S
H1776 C1772 0.930 . S
H1777 C1774 0.929 . S
S1778 N1779 1.613 . S
S1778 N1780 1.610 . S
N1779 S1778 1.613 . S
N1779 C1782 1.350 . S
N1780 S1778 1.610 . S
N1780 C1781 1.351 . S
C1781 C1775 1.428 . S
C1781 N1780 1.351 . S
C1781 C1782 1.434 . S
C1782 C1773 1.429 . S
C1782 N1779 1.350 . S
C1782 C1781 1.434 . S
C1783 C1784 1.369 . S
C1783 C1785 1.419 . S
C1783 H1787 0.930 . S
C1784 C1783 1.369 . S
C1784 C1793 1.429 . S
C1785 C1783 1.419 . S
C1785 C1786 1.363 . S
C1785 H1788 0.929 1_545 S
C1786 C1785 1.363 . S
C1786 C1792 1.428 . S
H1787 C1783 0.930 . S
H1788 C1785 0.929 1_565 S
S1789 N1790 1.613 . S
S1789 N1791 1.610 . S
N1790 S1789 1.613 . S
N1790 C1793 1.350 . S
N1791 S1789 1.610 . S
N1791 C1792 1.351 . S
C1792 C1786 1.428 . S
C1792 N1791 1.351 . S
C1792 C1793 1.434 . S
C1793 C1784 1.429 . S
C1793 N1790 1.350 . S
C1793 C1792 1.434 . S
C1794 C1795 1.369 . S
C1794 C1796 1.419 . S
C1794 H1798 0.930 . S
C1795 C1794 1.369 . S
C1795 C1804 1.429 . S
C1796 C1794 1.419 . S
C1796 C1797 1.363 . S
C1796 H1799 0.929 . S
C1797 C1796 1.363 . S
C1797 C1803 1.428 . S
H1798 C1794 0.930 . S
H1799 C1796 0.929 . S
S1800 N1801 1.613 . S
S1800 N1802 1.610 . S
N1801 S1800 1.613 . S
N1801 C1804 1.350 . S
N1802 S1800 1.610 . S
N1802 C1803 1.351 . S
C1803 C1797 1.428 . S
C1803 N1802 1.351 . S
C1803 C1804 1.434 . S
C1804 C1795 1.429 . S
C1804 N1801 1.350 . S
C1804 C1803 1.434 . S
C1805 C1806 1.369 . S
C1805 C1807 1.419 . S
C1805 H1809 0.930 . S
C1806 C1805 1.369 . S
C1806 C1815 1.429 . S
C1807 C1805 1.419 . S
C1807 C1808 1.363 . S
C1807 H1810 0.929 . S
C1808 C1807 1.363 . S
C1808 C1814 1.428 . S
H1809 C1805 0.930 . S
H1810 C1807 0.929 . S
S1811 N1812 1.613 . S
S1811 N1813 1.610 . S
N1812 S1811 1.613 . S
N1812 C1815 1.350 . S
N1813 S1811 1.610 . S
N1813 C1814 1.351 . S
C1814 C1808 1.428 . S
C1814 N1813 1.351 . S
C1814 C1815 1.434 . S
C1815 C1806 1.429 . S
C1815 N1812 1.350 . S
C1815 C1814 1.434 . S
C1816 C1817 1.369 . S
C1816 C1818 1.419 . S
C1816 H1820 0.930 . S
C1817 C1816 1.369 . S
C1817 C1826 1.429 . S
C1818 C1816 1.419 . S
C1818 C1819 1.363 . S
C1818 H1821 0.929 . S
C1819 C1818 1.363 . S
C1819 C1825 1.428 . S
H1820 C1816 0.930 . S
H1821 C1818 0.929 . S
S1822 N1823 1.613 . S
S1822 N1824 1.610 . S
N1823 S1822 1.613 . S
N1823 C1826 1.350 . S
N1824 S1822 1.610 . S
N1824 C1825 1.351 . S
C1825 C1819 1.428 . S
C1825 N1824 1.351 . S
C1825 C1826 1.434 . S
C1826 C1817 1.429 . S
C1826 N1823 1.350 . S
C1826 C1825 1.434 . S
C1827 C1828 1.369 . S
C1827 C1829 1.419 . S
C1827 H1831 0.930 . S
C1828 C1827 1.369 . S
C1828 C1837 1.429 . S
C1829 C1827 1.419 . S
C1829 C1830 1.363 . S
C1829 H1832 0.929 . S
C1830 C1829 1.363 . S
C1830 C1836 1.428 . S
H1831 C1827 0.930 . S
H1832 C1829 0.929 . S
S1833 N1834 1.613 . S
S1833 N1835 1.610 . S
N1834 S1833 1.613 . S
N1834 C1837 1.350 . S
N1835 S1833 1.610 . S
N1835 C1836 1.351 . S
C1836 C1830 1.428 . S
C1836 N1835 1.351 . S
C1836 C1837 1.434 . S
C1837 C1828 1.429 . S
C1837 N1834 1.350 . S
C1837 C1836 1.434 . S
C1838 C1839 1.369 . S
C1838 C1840 1.419 . S
C1838 H1842 0.930 . S
C1839 C1838 1.369 . S
C1839 C1848 1.429 . S
C1840 C1838 1.419 . S
C1840 C1841 1.363 . S
C1840 H1843 0.929 . S
C1841 C1840 1.363 . S
C1841 C1847 1.428 . S
H1842 C1838 0.930 . S
H1843 C1840 0.929 . S
S1844 N1845 1.613 . S
S1844 N1846 1.610 . S
N1845 S1844 1.613 . S
N1845 C1848 1.350 . S
N1846 S1844 1.610 . S
N1846 C1847 1.351 . S
C1847 C1841 1.428 . S
C1847 N1846 1.351 . S
C1847 C1848 1.434 . S
C1848 C1839 1.429 . S
C1848 N1845 1.350 . S
C1848 C1847 1.434 . S
C1849 C1850 1.369 . S
C1849 C1851 1.419 . S
C1849 H1853 0.930 . S
C1850 C1849 1.369 . S
C1850 C1859 1.429 . S
C1851 C1849 1.419 . S
C1851 C1852 1.363 . S
C1851 H1854 0.929 . S
C1852 C1851 1.363 . S
C1852 C1858 1.428 . S
H1853 C1849 0.930 . S
H1854 C1851 0.929 . S
S1855 N1856 1.613 . S
S1855 N1857 1.610 . S
N1856 S1855 1.613 . S
N1856 C1859 1.350 . S
N1857 S1855 1.610 . S
N1857 C1858 1.351 . S
C1858 C1852 1.428 . S
C1858 N1857 1.351 . S
C1858 C1859 1.434 . S
C1859 C1850 1.429 . S
C1859 N1856 1.350 . S
C1859 C1858 1.434 . S
C1860 C1861 1.369 . S
C1860 C1862 1.419 . S
C1860 H1864 0.930 . S
C1861 C1860 1.369 . S
C1861 C1870 1.429 . S
C1862 C1860 1.419 . S
C1862 C1863 1.363 . S
C1862 H1865 0.929 . S
C1863 C1862 1.363 . S
C1863 C1869 1.428 . S
H1864 C1860 0.930 . S
H1865 C1862 0.929 . S
S1866 N1867 1.613 . S
S1866 N1868 1.610 . S
N1867 S1866 1.613 . S
N1867 C1870 1.350 . S
N1868 S1866 1.610 . S
N1868 C1869 1.351 . S
C1869 C1863 1.428 . S
C1869 N1868 1.351 . S
C1869 C1870 1.434 . S
C1870 C1861 1.429 . S
C1870 N1867 1.350 . S
C1870 C1869 1.434 . S
C1871 C1872 1.369 . S
C1871 C1873 1.419 . S
C1871 H1875 0.930 . S
C1872 C1871 1.369 . S
C1872 C1881 1.429 . S
C1873 C1871 1.419 . S
C1873 C1874 1.363 . S
C1873 H1876 0.929 . S
C1874 C1873 1.363 . S
C1874 C1880 1.428 . S
H1875 C1871 0.930 . S
H1876 C1873 0.929 . S
S1877 N1878 1.613 . S
S1877 N1879 1.610 . S
N1878 S1877 1.613 . S
N1878 C1881 1.350 . S
N1879 S1877 1.610 . S
N1879 C1880 1.351 . S
C1880 C1874 1.428 . S
C1880 N1879 1.351 . S
C1880 C1881 1.434 . S
C1881 C1872 1.429 . S
C1881 N1878 1.350 . S
C1881 C1880 1.434 . S
C1882 C1883 1.369 . S
C1882 C1884 1.419 . S
C1882 H1886 0.930 . S
C1883 C1882 1.369 . S
C1883 C1892 1.429 . S
C1884 C1882 1.419 . S
C1884 C1885 1.363 . S
C1884 H1887 0.929 . S
C1885 C1884 1.363 . S
C1885 C1891 1.428 . S
H1886 C1882 0.930 . S
H1887 C1884 0.929 . S
S1888 N1889 1.613 . S
S1888 N1890 1.610 . S
N1889 S1888 1.613 . S
N1889 C1892 1.350 . S
N1890 S1888 1.610 . S
N1890 C1891 1.351 . S
C1891 C1885 1.428 . S
C1891 N1890 1.351 . S
C1891 C1892 1.434 . S
C1892 C1883 1.429 . S
C1892 N1889 1.350 . S
C1892 C1891 1.434 . S
C1893 C1894 1.369 . S
C1893 C1895 1.419 . S
C1893 H1897 0.930 . S
C1894 C1893 1.369 . S
C1894 C1903 1.429 . S
C1895 C1893 1.419 . S
C1895 C1896 1.363 . S
C1895 H1898 0.929 . S
C1896 C1895 1.363 . S
C1896 C1902 1.428 . S
H1897 C1893 0.930 . S
H1898 C1895 0.929 . S
S1899 N1900 1.613 . S
S1899 N1901 1.610 . S
N1900 S1899 1.613 . S
N1900 C1903 1.350 . S
N1901 S1899 1.610 . S
N1901 C1902 1.351 . S
C1902 C1896 1.428 . S
C1902 N1901 1.351 . S
C1902 C1903 1.434 . S
C1903 C1894 1.429 . S
C1903 N1900 1.350 . S
C1903 C1902 1.434 . S
C1904 C1905 1.369 . S
C1904 C1906 1.419 . S
C1904 H1908 0.930 . S
C1905 C1904 1.369 . S
C1905 C1914 1.429 . S
C1906 C1904 1.419 . S
C1906 C1907 1.363 . S
C1906 H1909 0.929 . S
C1907 C1906 1.363 . S
C1907 C1913 1.428 . S
H1908 C1904 0.930 . S
H1909 C1906 0.929 . S
S1910 N1911 1.613 . S
S1910 N1912 1.610 . S
N1911 S1910 1.613 . S
N1911 C1914 1.350 . S
N1912 S1910 1.610 . S
N1912 C1913 1.351 . S
C1913 C1907 1.428 . S
C1913 N1912 1.351 . S
C1913 C1914 1.434 . S
C1914 C1905 1.429 . S
C1914 N1911 1.350 . S
C1914 C1913 1.434 . S
C1915 C1916 1.369 . S
C1915 C1917 1.419 . S
C1915 H1919 0.930 . S
C1916 C1915 1.369 . S
C1916 C1925 1.429 . S
C1917 C1915 1.419 . S
C1917 C1918 1.363 . S
C1917 H1920 0.929 . S
C1918 C1917 1.363 . S
C1918 C1924 1.428 . S
H1919 C1915 0.930 . S
H1920 C1917 0.929 . S
S1921 N1922 1.613 . S
S1921 N1923 1.610 . S
N1922 S1921 1.613 . S
N1922 C1925 1.350 . S
N1923 S1921 1.610 . S
N1923 C1924 1.351 . S
C1924 C1918 1.428 . S
C1924 N1923 1.351 . S
C1924 C1925 1.434 . S
C1925 C1916 1.429 . S
C1925 N1922 1.350 . S
C1925 C1924 1.434 . S
C1333 C439 1.377 . S
C1335 C643 1.368 . S
C1344 C465 1.532 . S
C1346 C727 1.460 . S
C1355 C401 1.512 . S
C1357 C807 1.444 . S
C1366 C369 1.466 . S
C1368 C723 1.412 . S
C1379 C811 1.404 . S
C1377 C305 1.480 . S
C1388 C343 1.357 . S
C1390 C639 1.366 . S
C1401 C632 1.395 . S
C1399 C375 1.480 . S
C1412 C716 1.437 . S
C1410 C311 1.503 . S
C1421 C337 1.436 . S
C1423 C818 1.446 . S
C1432 C433 1.409 . S
C1434 C734 1.413 . S
C1443 C471 1.456 . S
C1445 C800 1.376 . S
C1456 C650 1.400 . S
C1454 C407 1.465 . S
C1467 C895 1.366 . S
C1465 C55 1.386 1_455 S
C1476 C81 1.530 . S
C1478 C979 1.463 . S
C1487 C17 1.526 . S
C1489 C1059 1.444 . S
C1498 C561 1.468 . S
C1500 C975 1.419 . S
C1509 C497 1.482 . S
C1511 C1063 1.400 . S
C1520 C535 1.347 . S
C1522 C891 1.373 . S
C1531 C567 1.477 . S
C1533 C884 1.397 . S
C1542 C503 1.505 . S
C1544 C968 1.433 . S
C1555 C1070 1.447 . S
C1553 C529 1.435 . S
C1564 C49 1.410 1_565 S
C1566 C986 1.414 . S
C1577 C1052 1.376 . S
C1575 C87 1.455 1_455 S
C1586 C23 1.464 . S
C1588 C902 1.397 . S
C1599 C1147 1.369 . S
C1597 C247 1.375 . S
C1608 C273 1.530 . S
C1610 C1231 1.458 . S
C1621 C1311 1.447 . S
C1619 C209 1.512 . S
C1632 C1227 1.414 . S
C1630 C177 1.467 1_545 S
C1643 C1315 1.408 . S
C1641 C113 1.483 1_655 S
C1652 C151 1.358 . S
C1654 C1143 1.365 . S
C1663 C183 1.480 1_655 S
C1665 C1136 1.399 . S
C1674 C119 1.504 . S
C1676 C1220 1.440 . S
C1687 C1322 1.446 . S
C1685 C145 1.438 1_545 S
C1696 C241 1.412 . S
C1698 C1238 1.412 . S
C1707 C279 1.454 . S
C1709 C1304 1.382 . S
C1718 C215 1.465 . S
C1720 C1154 1.403 . S
C1729 C509 1.466 . S
C1731 C646 1.399 . S
C1742 C730 1.360 . S
C1740 C541 1.459 . S
C1751 C573 1.468 . S
C1753 C802 1.368 . S
C1762 C221 1.500 . S
C1764 C718 1.377 . S
C1773 C253 1.447 . S
C1775 C814 1.359 . S
C1786 C634 1.400 . S
C1784 C285 1.462 . S
C1795 C125 1.457 . S
C1797 C898 1.391 . S
C1806 C157 1.461 . S
C1808 C982 1.353 . S
C1817 C189 1.466 . S
C1819 C1054 1.367 . S
C1828 C413 1.498 . S
C1830 C970 1.374 . S
C1841 C1066 1.358 . S
C1839 C445 1.449 . S
C1850 C477 1.461 . S
C1852 C886 1.398 . S
C1861 C317 1.458 . S
C1863 C1150 1.395 . S
C1872 C349 1.462 . S
C1874 C1234 1.356 . S
C1885 C1306 1.371 . S
C1883 C381 1.470 . S
C1894 C29 1.499 . S
C1896 C1222 1.376 . S
C1905 C61 1.451 . S
C1907 C1318 1.349 . S
C1916 C93 1.463 . S
C1918 C1138 1.401 . S
