# Generated by pormake.
# Topology dag, (6,3)-cn, num edge types: 1
# Building blocks:
#     Node 0, Type 0, BuildingBlock: OJICUG_clean_sbu_0, # of connection points: 6
#     Node 1, Type 0, BuildingBlock: OJICUG_clean_sbu_0, # of connection points: 6
#     Node 2, Type 0, BuildingBlock: OJICUG_clean_sbu_0, # of connection points: 6
#     Node 3, Type 0, BuildingBlock: OJICUG_clean_sbu_0, # of connection points: 6
#     Node 4, Type 1, BuildingBlock: BELTOD_clean_linker_0, # of connection points: 3
#     Node 5, Type 1, BuildingBlock: BELTOD_clean_linker_0, # of connection points: 3
#     Node 6, Type 1, BuildingBlock: BELTOD_clean_linker_0, # of connection points: 3
#     Node 7, Type 1, BuildingBlock: BELTOD_clean_linker_0, # of connection points: 3
#     Node 8, Type 1, BuildingBlock: BELTOD_clean_linker_0, # of connection points: 3
#     Node 9, Type 1, BuildingBlock: BELTOD_clean_linker_0, # of connection points: 3
#     Node 10, Type 1, BuildingBlock: BELTOD_clean_linker_0, # of connection points: 3
#     Node 11, Type 1, BuildingBlock: BELTOD_clean_linker_0, # of connection points: 3
#     Edge 12, Type (0, 1), BuildingBlock: XUDNAN_clean_linker_2, # of connection points: 2
#     Edge 13, Type (0, 1), BuildingBlock: XUDNAN_clean_linker_2, # of connection points: 2
#     Edge 14, Type (0, 1), BuildingBlock: XUDNAN_clean_linker_2, # of connection points: 2
#     Edge 15, Type (0, 1), BuildingBlock: XUDNAN_clean_linker_2, # of connection points: 2
#     Edge 16, Type (0, 1), BuildingBlock: XUDNAN_clean_linker_2, # of connection points: 2
#     Edge 17, Type (0, 1), BuildingBlock: XUDNAN_clean_linker_2, # of connection points: 2
#     Edge 18, Type (0, 1), BuildingBlock: XUDNAN_clean_linker_2, # of connection points: 2
#     Edge 19, Type (0, 1), BuildingBlock: XUDNAN_clean_linker_2, # of connection points: 2
#     Edge 20, Type (0, 1), BuildingBlock: XUDNAN_clean_linker_2, # of connection points: 2
#     Edge 21, Type (0, 1), BuildingBlock: XUDNAN_clean_linker_2, # of connection points: 2
#     Edge 22, Type (0, 1), BuildingBlock: XUDNAN_clean_linker_2, # of connection points: 2
#     Edge 23, Type (0, 1), BuildingBlock: XUDNAN_clean_linker_2, # of connection points: 2
#     Edge 24, Type (0, 1), BuildingBlock: XUDNAN_clean_linker_2, # of connection points: 2
#     Edge 25, Type (0, 1), BuildingBlock: XUDNAN_clean_linker_2, # of connection points: 2
#     Edge 26, Type (0, 1), BuildingBlock: XUDNAN_clean_linker_2, # of connection points: 2
#     Edge 27, Type (0, 1), BuildingBlock: XUDNAN_clean_linker_2, # of connection points: 2
#     Edge 28, Type (0, 1), BuildingBlock: XUDNAN_clean_linker_2, # of connection points: 2
#     Edge 29, Type (0, 1), BuildingBlock: XUDNAN_clean_linker_2, # of connection points: 2
#     Edge 30, Type (0, 1), BuildingBlock: XUDNAN_clean_linker_2, # of connection points: 2
#     Edge 31, Type (0, 1), BuildingBlock: XUDNAN_clean_linker_2, # of connection points: 2
#     Edge 32, Type (0, 1), BuildingBlock: XUDNAN_clean_linker_2, # of connection points: 2
#     Edge 33, Type (0, 1), BuildingBlock: XUDNAN_clean_linker_2, # of connection points: 2
#     Edge 34, Type (0, 1), BuildingBlock: XUDNAN_clean_linker_2, # of connection points: 2
#     Edge 35, Type (0, 1), BuildingBlock: XUDNAN_clean_linker_2, # of connection points: 2
# Relax obj value: 0.238
# Max RMSD: 0.192
# Mean RMSD: 0.159
data_MOF--net-dag--node1-OJICUG_clean_sbu_0--node2-BELTOD_clean_linker_0--edge1-XUDNAN_clean_linker_2
_symmetry_space_group_name_H-M    P1
_symmetry_Int_Tables_number       1
_symmetry_cell_setting            triclinic
loop_
_symmetry_equiv_pos_as_xyz
'x, y, z'
_cell_length_a     40.247969
_cell_length_b     43.111948
_cell_length_c     41.892075
_cell_angle_alpha  95.032756
_cell_angle_beta   90.235681
_cell_angle_gamma 90.209655
loop_
_atom_site_label
_atom_site_type_symbol
_atom_site_fract_x
_atom_site_fract_y
_atom_site_fract_z
_atom_type_partial_charge
Sc0 Sc 0.13198 0.869 0.02516 0.0
Sc1 Sc 0.15782 0.79433 0.04121 0.0
Sc2 Sc 0.20101 0.86097 0.07558 0.0
O3 O 0.16377 0.8414 0.04725 0.0
C4 C 0.20071 0.90354 0.0167 0.0
C5 C 0.13875 0.81253 0.97127 0.0
C6 C 0.23637 0.80314 0.03631 0.0
C7 C 0.08376 0.81861 0.05252 0.0
C8 C 0.14103 0.90674 0.09398 0.0
C9 C 0.17956 0.80434 0.11493 0.0
O10 O 0.17164 0.89573 0.00711 0.0
O11 O 0.14747 0.79291 0.99056 0.0
O12 O 0.23716 0.82924 0.05316 0.0
O13 O 0.08962 0.84484 0.04192 0.0
O14 O 0.16824 0.89405 0.10105 0.0
O15 O 0.16696 0.78866 0.09081 0.0
O16 O 0.12645 0.9007 0.06722 0.0
O17 O 0.10563 0.79741 0.05332 0.0
O18 O 0.19262 0.831 0.11328 0.0
O19 O 0.13283 0.84078 0.98042 0.0
O20 O 0.21403 0.89394 0.04159 0.0
O21 O 0.20962 0.78804 0.02946 0.0
Sc22 Sc 0.68029 0.64797 0.46098 0.0
Sc23 Sc 0.6166 0.69385 0.49903 0.0
Sc24 Sc 0.61285 0.61186 0.49533 0.0
O25 O 0.63663 0.65133 0.48516 0.0
C26 C 0.63606 0.59395 0.42407 0.0
C27 C 0.64288 0.70261 0.42873 0.0
C28 C 0.55131 0.65489 0.47958 0.0
C29 C 0.69389 0.70677 0.51124 0.0
C30 C 0.68887 0.59252 0.50466 0.0
C31 C 0.60701 0.65532 0.56039 0.0
O32 O 0.66153 0.61163 0.42659 0.0
O33 O 0.62448 0.71095 0.45257 0.0
O34 O 0.5643 0.62896 0.4845 0.0
O35 O 0.70383 0.68395 0.49246 0.0
O36 O 0.65776 0.58827 0.50679 0.0
O37 O 0.60716 0.68088 0.5472 0.0
O38 O 0.7014 0.61465 0.49059 0.0
O39 O 0.66341 0.71303 0.51598 0.0
O40 O 0.60962 0.62873 0.54489 0.0
O41 O 0.66378 0.68059 0.42863 0.0
O42 O 0.61514 0.59239 0.44653 0.0
O43 O 0.56734 0.68037 0.4831 0.0
Sc44 Sc 0.86079 0.2271 0.00498 0.0
Sc45 Sc 0.81512 0.16619 0.96336 0.0
Sc46 Sc 0.88969 0.14941 0.00181 0.0
O47 O 0.85525 0.18095 0.99011 0.0
C48 C 0.93538 0.20659 0.98617 0.0
C49 C 0.83636 0.22783 0.93208 0.0
C50 C 0.87074 0.12094 0.93149 0.0
C51 C 0.78242 0.21912 0.01147 0.0
C52 C 0.88632 0.19521 0.06629 0.0
C53 C 0.8209 0.11451 0.01256 0.0
O54 O 0.91286 0.22705 0.99168 0.0
O55 O 0.82354 0.20073 0.93055 0.0
O56 O 0.89088 0.12458 0.95492 0.0
O57 O 0.80943 0.23276 0.02034 0.0
O58 O 0.89348 0.1697 0.05033 0.0
O59 O 0.80359 0.13051 0.9946 0.0
O60 O 0.87325 0.21808 0.05369 0.0
O61 O 0.78149 0.19581 0.99084 0.0
O62 O 0.85204 0.11828 0.01681 0.0
O63 O 0.84949 0.24092 0.95757 0.0
O64 O 0.93039 0.17767 0.98814 0.0
O65 O 0.84274 0.1343 0.93144 0.0
Sc66 Sc 0.35909 0.37644 0.54837 0.0
Sc67 Sc 0.30061 0.34298 0.59683 0.0
Sc68 Sc 0.3613 0.29554 0.55608 0.0
O69 O 0.34037 0.33828 0.56709 0.0
C70 C 0.36482 0.32561 0.48896 0.0
C71 C 0.28109 0.38925 0.54521 0.0
C72 C 0.28395 0.27955 0.55394 0.0
C73 C 0.34276 0.40401 0.61924 0.0
C74 C 0.425 0.33928 0.56513 0.0
C75 C 0.34435 0.29418 0.63071 0.0
O76 O 0.35997 0.35333 0.50084 0.0
O77 O 0.27278 0.37022 0.56525 0.0
O78 O 0.31341 0.2743 0.54389 0.0
O79 O 0.35953 0.40397 0.59364 0.0
O80 O 0.41095 0.31295 0.56675 0.0
O81 O 0.32385 0.31648 0.63129 0.0
O82 O 0.40946 0.36327 0.55769 0.0
O83 O 0.32034 0.38403 0.62366 0.0
O84 O 0.35852 0.28301 0.60512 0.0
O85 O 0.31102 0.39425 0.53761 0.0
O86 O 0.36753 0.3026 0.50582 0.0
O87 O 0.27661 0.30244 0.57383 0.0
P88 P 0.03281 0.12163 0.35472 0.0
H89 H 0.00321 0.06156 0.33401 0.0
H90 H 0.017 0.02202 0.2908 0.0
H91 H 0.10644 0.07274 0.27167 0.0
H92 H 0.09253 0.11223 0.31508 0.0
H93 H 0.03791 0.18473 0.38507 0.0
H94 H 0.0783 0.2103 0.4226 0.0
H95 H 0.1391 0.12776 0.41398 0.0
H96 H 0.0982 0.10192 0.37702 0.0
H97 H 0.9626 0.13735 0.34618 0.0
H98 H 0.0571 0.15975 0.30562 0.0
O99 O 0.0058 0.1086 0.3806 0.0
H100 H 0.93387 0.16281 0.30399 0.0
H101 H 0.02843 0.18461 0.26299 0.0
C102 C 0.04722 0.08944 0.32825 0.0
C103 C 0.02628 0.06372 0.32117 0.0
C104 C 0.03402 0.0413 0.29627 0.0
C105 C 0.06274 0.04436 0.27783 0.0
C106 C 0.08437 0.06956 0.28575 0.0
C107 C 0.07647 0.09211 0.31058 0.0
C108 C 0.06547 0.14174 0.37762 0.0
C109 C 0.06025 0.17235 0.39071 0.0
C110 C 0.08321 0.18686 0.41225 0.0
C111 C 0.1118 0.17098 0.42102 0.0
C112 C 0.11747 0.14061 0.40722 0.0
C113 C 0.09417 0.12591 0.38604 0.0
C114 C 0.01199 0.14673 0.32903 0.0
C115 C 0.9772 0.14845 0.32873 0.0
C116 C 0.96078 0.16302 0.30464 0.0
C117 C 0.97897 0.17549 0.28021 0.0
C118 C 0.01386 0.17505 0.28151 0.0
C119 C 0.03023 0.16093 0.30586 0.0
P120 P 0.47857 0.61352 0.86529 0.0
H121 H 0.54819 0.63261 0.85977 0.0
H122 H 0.58055 0.6484 0.81451 0.0
H123 H 0.49115 0.64643 0.75679 0.0
H124 H 0.45909 0.6315 0.80213 0.0
H125 H 0.46926 0.62432 0.93455 0.0
H126 H 0.43631 0.66225 0.96776 0.0
H127 H 0.40508 0.70452 0.88299 0.0
H128 H 0.4388 0.66716 0.8499 0.0
H129 H 0.48977 0.55089 0.83599 0.0
H130 H 0.40699 0.61393 0.84933 0.0
O131 O 0.50504 0.59544 0.88813 0.0
H132 H 0.45667 0.51702 0.7981 0.0
H133 H 0.37416 0.58047 0.81126 0.0
C134 C 0.50139 0.63026 0.8341 0.0
C135 C 0.53553 0.63609 0.83752 0.0
C136 C 0.55399 0.64501 0.81159 0.0
C137 C 0.53852 0.64832 0.78188 0.0
C138 C 0.50388 0.64438 0.77933 0.0
C139 C 0.4855 0.63553 0.80524 0.0
C140 C 0.45662 0.64303 0.88977 0.0
C141 C 0.45579 0.64204 0.92312 0.0
C142 C 0.43702 0.66369 0.94208 0.0
C143 C 0.41824 0.68618 0.92783 0.0
C144 C 0.41933 0.68731 0.89446 0.0
C145 C 0.43866 0.66607 0.8756 0.0
C146 C 0.45091 0.5849 0.84564 0.0
C147 C 0.46415 0.55692 0.83165 0.0
C148 C 0.44523 0.53759 0.80999 0.0
C149 C 0.41296 0.54629 0.80165 0.0
C150 C 0.39907 0.57336 0.81718 0.0
C151 C 0.41787 0.59248 0.83906 0.0
P152 P 0.80856 0.90213 0.2474 0.0
H153 H 0.74435 0.92212 0.21974 0.0
H154 H 0.73244 0.9544 0.17592 0.0
H155 H 0.83744 0.97385 0.16802 0.0
H156 H 0.84914 0.94034 0.21007 0.0
H157 H 0.78953 0.88746 0.31113 0.0
H158 H 0.7467 0.8544 0.33088 0.0
H159 H 0.71009 0.8333 0.23419 0.0
H160 H 0.75398 0.86592 0.2144 0.0
H161 H 0.88074 0.90534 0.25293 0.0
H162 H 0.80801 0.84551 0.20254 0.0
O163 O 0.82404 0.92445 0.27856 0.0
H164 H 0.92487 0.87914 0.22128 0.0
H165 H 0.85228 0.81891 0.17122 0.0
C166 C 0.79783 0.92762 0.21721 0.0
C167 C 0.76484 0.9327 0.20806 0.0
C168 C 0.758 0.95156 0.18325 0.0
C169 C 0.78405 0.96604 0.16778 0.0
C170 C 0.81682 0.96208 0.17838 0.0
C171 C 0.82358 0.94304 0.2027 0.0
C172 C 0.77469 0.8796 0.26135 0.0
C173 C 0.77204 0.87614 0.29415 0.0
C174 C 0.74726 0.85735 0.30548 0.0
C175 C 0.72459 0.84149 0.28418 0.0
C176 C 0.72717 0.84516 0.25123 0.0
C177 C 0.75217 0.86391 0.23991 0.0
C178 C 0.84101 0.8772 0.23046 0.0
C179 C 0.87429 0.88592 0.23586 0.0
C180 C 0.89949 0.87109 0.21762 0.0
C181 C 0.89187 0.84713 0.19379 0.0
C182 C 0.85878 0.83714 0.18967 0.0
C183 C 0.83347 0.85232 0.20765 0.0
P184 P 0.77842 0.31095 0.61293 0.0
H185 H 0.78863 0.33111 0.54949 0.0
H186 H 0.79049 0.38319 0.53056 0.0
H187 H 0.79653 0.42374 0.62826 0.0
H188 H 0.79367 0.37175 0.64722 0.0
H189 H 0.74707 0.28021 0.66426 0.0
H190 H 0.76372 0.27295 0.71896 0.0
H191 H 0.85712 0.31922 0.70403 0.0
H192 H 0.83985 0.32696 0.64904 0.0
H193 H 0.72779 0.28088 0.56952 0.0
H194 H 0.73137 0.34767 0.65235 0.0
O195 O 0.79194 0.28154 0.58785 0.0
H196 H 0.66792 0.28983 0.56428 0.0
H197 H 0.67178 0.35658 0.6474 0.0
C198 C 0.79189 0.34746 0.59972 0.0
C199 C 0.79181 0.35109 0.56681 0.0
C200 C 0.79273 0.38079 0.55601 0.0
C201 C 0.79391 0.40727 0.57802 0.0
C202 C 0.79629 0.40359 0.61089 0.0
C203 C 0.7948 0.37385 0.6217 0.0
C204 C 0.79177 0.30503 0.65296 0.0
C205 C 0.77102 0.28906 0.67275 0.0
C206 C 0.78073 0.28464 0.70398 0.0
C207 C 0.8117 0.29564 0.71589 0.0
C208 C 0.83289 0.31095 0.69569 0.0
C209 C 0.8231 0.31532 0.6643 0.0
C210 C 0.73385 0.31336 0.61155 0.0
C211 C 0.71558 0.29696 0.58695 0.0
C212 C 0.68141 0.30207 0.584 0.0
C213 C 0.66525 0.32401 0.60534 0.0
C214 C 0.68361 0.33977 0.6304 0.0
C215 C 0.7176 0.33454 0.63339 0.0
P216 P 0.51045 0.3616 0.19124 0.0
H217 H 0.58082 0.38115 0.19956 0.0
H218 H 0.60677 0.42489 0.23107 0.0
H219 H 0.50973 0.46131 0.25702 0.0
H220 H 0.48384 0.41691 0.22602 0.0
H221 H 0.52245 0.35408 0.12263 0.0
H222 H 0.56404 0.32555 0.08987 0.0
H223 H 0.60556 0.28991 0.17449 0.0
H224 H 0.56318 0.31842 0.20744 0.0
H225 H 0.4478 0.32727 0.19289 0.0
H226 H 0.52954 0.35157 0.25721 0.0
O227 O 0.48079 0.3736 0.16726 0.0
H228 H 0.41561 0.30982 0.23738 0.0
H229 H 0.49728 0.33492 0.30195 0.0
C230 C 0.53031 0.39577 0.21043 0.0
C231 C 0.56503 0.3986 0.21169 0.0
C232 C 0.57992 0.42382 0.22961 0.0
C233 C 0.56032 0.44651 0.24664 0.0
C234 C 0.52552 0.444 0.24449 0.0
C235 C 0.51069 0.4188 0.22659 0.0
C236 C 0.53933 0.33786 0.16737 0.0
C237 C 0.54007 0.33974 0.13418 0.0
C238 C 0.56393 0.3235 0.11546 0.0
C239 C 0.58791 0.30544 0.12965 0.0
C240 C 0.58736 0.30373 0.16301 0.0
C241 C 0.56304 0.3197 0.18174 0.0
C242 C 0.49073 0.34134 0.22191 0.0
C243 C 0.45906 0.32832 0.21648 0.0
C244 C 0.44061 0.31852 0.24199 0.0
C245 C 0.4536 0.32156 0.27336 0.0
C246 C 0.48651 0.33216 0.27814 0.0
C247 C 0.50496 0.34188 0.25256 0.0
P248 P 0.28509 0.20509 0.94373 0.0
H249 H 0.32856 0.15996 0.972 0.0
H250 H 0.32426 0.10333 0.97436 0.0
H251 H 0.23126 0.10311 0.92242 0.0
H252 H 0.23577 0.15916 0.92002 0.0
H253 H 0.31596 0.26053 0.92131 0.0
H254 H 0.33882 0.27188 0.86941 0.0
H255 H 0.31433 0.17835 0.83065 0.0
H256 H 0.29221 0.16712 0.8822 0.0
H257 H 0.24069 0.20869 0.99804 0.0
H258 H 0.23761 0.23268 0.90026 0.0
O259 O 0.30914 0.22101 0.97336 0.0
H260 H 0.18136 0.21994 0.00348 0.0
H261 H 0.17824 0.24425 0.9057 0.0
C262 C 0.28221 0.16375 0.9463 0.0
C263 C 0.30723 0.14765 0.96126 0.0
C264 C 0.30478 0.11537 0.96256 0.0
C265 C 0.27754 0.09882 0.9484 0.0
C266 C 0.25279 0.11513 0.93313 0.0
C267 C 0.25513 0.14725 0.93209 0.0
C268 C 0.30278 0.21291 0.90583 0.0
C269 C 0.31587 0.24243 0.90168 0.0
C270 C 0.32878 0.2489 0.872 0.0
C271 C 0.32867 0.2259 0.84599 0.0
C272 C 0.31549 0.19636 0.85036 0.0
C273 C 0.30255 0.18998 0.87993 0.0
C274 C 0.24362 0.22014 0.94891 0.0
C275 C 0.22742 0.21715 0.97801 0.0
C276 C 0.19351 0.22334 0.98101 0.0
C277 C 0.17522 0.23281 0.95495 0.0
C278 C 0.19183 0.23724 0.92623 0.0
C279 C 0.22578 0.23066 0.92313 0.0
P280 P 0.2406 0.57413 0.32198 0.0
H281 H 0.21347 0.51094 0.32047 0.0
H282 H 0.19224 0.48165 0.36324 0.0
H283 H 0.18956 0.56618 0.42666 0.0
H284 H 0.21167 0.59521 0.38405 0.0
H285 H 0.21878 0.58352 0.25702 0.0
H286 H 0.19965 0.6294 0.23271 0.0
H287 H 0.1963 0.68043 0.32626 0.0
H288 H 0.21712 0.63468 0.3502 0.0
H289 H 0.27803 0.55362 0.3766 0.0
H290 H 0.28555 0.626 0.31205 0.0
O291 O 0.25268 0.54824 0.29238 0.0
H292 H 0.32724 0.5743 0.40549 0.0
H293 H 0.3351 0.64643 0.34046 0.0
C294 C 0.21455 0.55519 0.34919 0.0
C295 C 0.20726 0.52341 0.34321 0.0
C296 C 0.19478 0.50669 0.36764 0.0
C297 C 0.1896 0.5216 0.39841 0.0
C298 C 0.19356 0.55408 0.40322 0.0
C299 C 0.20606 0.57075 0.37879 0.0
C300 C 0.21939 0.60566 0.30541 0.0
C301 C 0.21335 0.60436 0.27241 0.0
C302 C 0.20213 0.63067 0.25854 0.0
C303 C 0.19652 0.65874 0.27753 0.0
C304 C 0.20077 0.65933 0.31091 0.0
C305 C 0.21225 0.63302 0.32471 0.0
C306 C 0.2774 0.58891 0.34284 0.0
C307 C 0.2901 0.57408 0.36874 0.0
C308 C 0.31845 0.58576 0.38508 0.0
C309 C 0.33486 0.61226 0.37552 0.0
C310 C 0.32258 0.62646 0.34892 0.0
C311 C 0.29426 0.61473 0.3326 0.0
P312 P 0.89946 0.82045 0.76729 0.0
H313 H 0.85183 0.86946 0.75709 0.0
H314 H 0.85002 0.92487 0.77485 0.0
H315 H 0.94671 0.918 0.81902 0.0
H316 H 0.94749 0.86253 0.80267 0.0
H317 H 0.86546 0.76545 0.73862 0.0
H318 H 0.83859 0.7533 0.68668 0.0
H319 H 0.87321 0.84089 0.65602 0.0
H320 H 0.90024 0.85286 0.70825 0.0
H321 H 0.92311 0.7691 0.80223 0.0
H322 H 0.96456 0.83457 0.74102 0.0
O323 O 0.87355 0.80554 0.79299 0.0
H324 H 0.97874 0.75334 0.81675 0.0
H325 H 0.02081 0.819 0.7558 0.0
C326 C 0.90025 0.86196 0.77753 0.0
C327 C 0.87287 0.88002 0.77015 0.0
C328 C 0.87195 0.91179 0.78024 0.0
C329 C 0.89838 0.92608 0.79816 0.0
C330 C 0.92583 0.90782 0.80543 0.0
C331 C 0.92654 0.87602 0.7956 0.0
C332 C 0.88384 0.81044 0.72752 0.0
C333 C 0.86755 0.7819 0.7206 0.0
C334 C 0.85246 0.77486 0.6908 0.0
C335 C 0.85355 0.79629 0.66738 0.0
C336 C 0.87159 0.82416 0.6738 0.0
C337 C 0.88695 0.83104 0.70361 0.0
C338 C 0.93986 0.80361 0.77129 0.0
C339 C 0.94422 0.77957 0.79129 0.0
C340 C 0.97611 0.77032 0.79933 0.0
C341 C 0.00414 0.78513 0.7876 0.0
C342 C 0.99962 0.80734 0.76531 0.0
C343 C 0.96759 0.81627 0.75692 0.0
H344 H 0.16705 0.93551 0.15018 0.0
H345 H 0.07645 0.9257 0.0933 0.0
H346 H 0.04692 0.9589 0.13454 0.0
H347 H 0.12848 0.93432 0.22723 0.0
H348 H 0.15576 0.96331 0.24691 0.0
H349 H 0.17028 0.93866 0.21291 0.0
H350 H 0.18573 0.98734 0.18389 0.0
H351 H 0.1714 0.01215 0.21785 0.0
H352 H 0.15455 0.01638 0.17854 0.0
H353 H 0.02656 0.99178 0.18192 0.0
H354 H 0.01741 0.02554 0.23169 0.0
H355 H 0.12101 0.01552 0.25795 0.0
C356 C 0.14104 0.94043 0.14636 0.0
C357 C 0.12416 0.928 0.11841 0.0
C358 C 0.0901 0.9351 0.11433 0.0
C359 C 0.07299 0.95384 0.1377 0.0
C360 C 0.09027 0.96554 0.16497 0.0
C361 C 0.12357 0.95941 0.16937 0.0
C362 C 0.13623 0.97544 0.20077 0.0
C363 C 0.1484 0.9515 0.22328 0.0
C364 C 0.1636 -0.00076 0.1949 0.0
C365 C 0.10479 0.99141 0.21327 0.0
C366 C 0.07856 0.98514 0.19229 0.0
C367 C 0.04688 0.9969 0.19858 0.0
C368 C 0.04188 0.01586 0.22699 0.0
C369 C 0.06845 0.02298 0.24872 0.0
C370 C 0.1003 0.01054 0.2417 0.0
H371 H 0.56464 0.68864 0.60161 0.0
H372 H 0.64582 0.62263 0.59794 0.0
H373 H 0.64196 0.61983 0.65638 0.0
H374 H 0.58303 0.72804 0.68295 0.0
H375 H 0.53966 0.73082 0.69334 0.0
H376 H 0.55223 0.7319 0.65219 0.0
H377 H 0.51278 0.68561 0.63549 0.0
H378 H 0.50013 0.6844 0.67649 0.0
H379 H 0.51676 0.65001 0.65477 0.0
H380 H 0.62626 0.61997 0.71335 0.0
H381 H 0.59703 0.61981 0.76478 0.0
H382 H 0.52447 0.68458 0.73239 0.0
C383 C 0.58208 0.6743 0.6134 0.0
C384 C 0.60578 0.65611 0.59556 0.0
C385 C 0.62759 0.63679 0.61139 0.0
C386 C 0.62574 0.63522 0.64454 0.0
C387 C 0.60171 0.65293 0.66149 0.0
C388 C 0.5801 0.67198 0.64654 0.0
C389 C 0.55411 0.6856 0.6698 0.0
C390 C 0.55747 0.72121 0.67487 0.0
C391 C 0.51887 0.67581 0.65846 0.0
C392 C 0.56392 0.67043 0.69976 0.0
C393 C 0.59189 0.65226 0.69457 0.0
C394 C 0.60465 0.63451 0.71794 0.0
C395 C 0.58795 0.63473 0.74721 0.0
C396 C 0.55857 0.65236 0.75281 0.0
C397 C 0.54689 0.67092 0.72889 0.0
H398 H 0.84524 0.05838 0.02537 0.0
H399 H 0.75968 0.11849 0.0407 0.0
H400 H 0.73596 0.08234 0.07753 0.0
H401 H 0.79852 0.98299 0.03026 0.0
H402 H 0.83317 0.96615 0.04987 0.0
H403 H 0.84038 0.99427 0.02121 0.0
H404 H 0.87464 0.02813 0.06379 0.0
H405 H 0.86735 0.00039 0.09257 0.0
H406 H 0.85589 0.04055 0.10177 0.0
H407 H 0.72731 0.04467 0.11988 0.0
H408 H 0.73282 0.0074 0.16119 0.0
H409 H 0.82156 0.96966 0.11405 0.0
C410 C 0.8211 0.06346 0.03588 0.0
C411 C 0.80422 0.09106 0.0304 0.0
C412 C 0.77277 0.0972 0.0445 0.0
C413 C 0.75916 0.07684 0.06541 0.0
C414 C 0.77697 0.05015 0.0711 0.0
C415 C 0.80694 0.04313 0.05614 0.0
C416 C 0.82236 0.01427 0.06777 0.0
C417 C 0.82367 0.98786 0.04066 0.0
C418 C 0.85709 0.02129 0.08235 0.0
C419 C 0.79748 0.00719 0.09304 0.0
C420 C 0.77125 0.02785 0.09448 0.0
C421 C 0.74722 0.02781 0.11839 0.0
C422 C 0.75051 0.0065 0.14173 0.0
C423 C 0.77768 0.98564 0.14096 0.0
C424 C 0.80066 0.98546 0.11556 0.0
H425 H 0.47167 0.29295 0.56948 0.0
H426 H 0.45984 0.3935 0.57729 0.0
H427 H 0.51953 0.40003 0.58876 0.0
H428 H 0.53299 0.29029 0.63261 0.0
H429 H 0.55645 0.25928 0.61182 0.0
H430 H 0.51243 0.26217 0.60476 0.0
H431 H 0.52314 0.26314 0.54391 0.0
H432 H 0.56719 0.26032 0.55078 0.0
H433 H 0.55091 0.29198 0.53014 0.0
H434 H 0.57999 0.39623 0.59924 0.0
H435 H 0.63854 0.38208 0.60722 0.0
H436 H 0.61231 0.28411 0.59212 0.0
C437 C 0.4816 0.31633 0.57376 0.0
C438 C 0.46095 0.34269 0.57246 0.0
C439 C 0.47506 0.3729 0.57798 0.0
C440 C 0.50897 0.3769 0.58461 0.0
C441 C 0.5286 0.35052 0.58553 0.0
C442 C 0.51558 0.32081 0.5802 0.0
C443 C 0.54249 0.29648 0.58203 0.0
C444 C 0.53568 0.27584 0.60944 0.0
C445 C 0.54614 0.27683 0.54979 0.0
C446 C 0.57258 0.31723 0.58923 0.0
C447 C 0.56387 0.3483 0.59126 0.0
C448 C 0.58715 0.37198 0.59781 0.0
C449 C 0.62029 0.36371 0.60248 0.0
C450 C 0.6299 0.33202 0.6005 0.0
C451 C 0.60567 0.30852 0.59363 0.0
H452 H 0.58502 0.55275 0.40995 0.0
H453 H 0.67355 0.59121 0.36908 0.0
H454 H 0.66305 0.55881 0.31841 0.0
H455 H 0.59476 0.4752 0.37438 0.0
H456 H 0.55084 0.46892 0.36795 0.0
H457 H 0.56515 0.49566 0.40057 0.0
H458 H 0.52957 0.53938 0.37927 0.0
H459 H 0.51518 0.51288 0.34647 0.0
H460 H 0.53487 0.54904 0.3386 0.0
H461 H 0.64313 0.52128 0.27238 0.0
H462 H 0.61563 0.48138 0.23509 0.0
H463 H 0.54089 0.46785 0.30702 0.0
C464 C 0.60227 0.55449 0.39041 0.0
C465 C 0.63016 0.57455 0.3936 0.0
C466 C 0.65204 0.57599 0.36731 0.0
C467 C 0.64625 0.55773 0.33839 0.0
C468 C 0.6185 0.53823 0.33616 0.0
C469 C 0.59691 0.53652 0.3615 0.0
C470 C 0.56918 0.51341 0.35327 0.0
C471 C 0.57006 0.48672 0.37535 0.0
C472 C 0.53519 0.52966 0.35446 0.0
C473 C 0.5786 0.50223 0.31933 0.0
C474 C 0.60705 0.51682 0.3098 0.0
C475 C 0.6208 0.50974 0.27957 0.0
C476 C 0.60511 0.48698 0.25863 0.0
C477 C 0.57604 0.47162 0.26808 0.0
C478 C 0.56269 0.47958 0.29882 0.0
H479 H 0.99309 0.1747 0.99277 0.0
H480 H 0.95476 0.26153 0.96265 0.0
H481 H 0.01209 0.27802 0.95067 0.0
H482 H 0.06549 0.20747 0.03215 0.0
H483 H 0.09126 0.17435 0.02039 0.0
H484 H 0.04722 0.16921 0.02534 0.0
H485 H 0.04271 0.14304 0.96734 0.0
H486 H 0.08675 0.14801 0.96224 0.0
H487 H 0.05805 0.16336 0.93454 0.0
H488 H 0.07439 0.28419 0.94109 0.0
H489 H 0.13583 0.28059 0.9376 0.0
H490 H 0.13202 0.19065 0.97633 0.0
C491 C 0.99661 0.1971 0.98339 0.0
C492 C 0.96939 0.21672 0.97838 0.0
C493 C 0.97525 0.24609 0.96663 0.0
C494 C 0.0077 0.25561 0.9597 0.0
C495 C 0.03397 0.23564 0.96501 0.0
C496 C 0.02869 0.20709 0.97681 0.0
C497 C 0.061 0.19024 0.98144 0.0
C498 C 0.06656 0.18503 0.01694 0.0
C499 C 0.06218 0.15934 0.96011 0.0
C500 C 0.08541 0.21367 0.9703 0.0
C501 C 0.06946 0.23964 0.96066 0.0
C502 C 0.0871 0.26404 0.94876 0.0
C503 C 0.1219 0.26179 0.94679 0.0
C504 C 0.13858 0.23554 0.95705 0.0
C505 C 0.11995 0.21126 0.96887 0.0
H506 H 0.28345 0.4503 0.5363 0.0
H507 H 0.22154 0.3681 0.51954 0.0
H508 H 0.1832 0.39724 0.4866 0.0
H509 H 0.21349 0.50903 0.5374 0.0
H510 H 0.23936 0.53576 0.51782 0.0
H511 H 0.25766 0.51015 0.54474 0.0
H512 H 0.29799 0.48893 0.49993 0.0
H513 H 0.27995 0.51439 0.47307 0.0
H514 H 0.28122 0.47306 0.46194 0.0
H515 H 0.15938 0.43205 0.44661 0.0
H516 H 0.15106 0.4696 0.40581 0.0
H517 H 0.22692 0.5295 0.45212 0.0
C518 C 0.26125 0.43878 0.52643 0.0
C519 C 0.25525 0.40715 0.53021 0.0
C520 C 0.22621 0.39252 0.51699 0.0
C521 C 0.20437 0.4089 0.49836 0.0
C522 C 0.21159 0.44 0.49414 0.0
C523 C 0.23905 0.45491 0.50844 0.0
C524 C 0.24342 0.48727 0.49795 0.0
C525 C 0.23816 0.51202 0.52616 0.0
C526 C 0.27764 0.4911 0.48228 0.0
C527 C 0.21548 0.48762 0.47383 0.0
C528 C 0.19699 0.46041 0.47219 0.0
C529 C 0.17294 0.45386 0.44841 0.0
C530 C 0.16842 0.47523 0.4253 0.0
C531 C 0.18784 0.50275 0.42626 0.0
C532 C 0.21074 0.50933 0.45152 0.0
H533 H 0.12363 0.84816 0.92246 0.0
H534 H 0.13735 0.75227 0.94354 0.0
H535 H 0.11544 0.73435 0.89001 0.0
H536 H 0.04878 0.83912 0.89045 0.0
H537 H 0.05329 0.86553 0.85967 0.0
H538 H 0.07836 0.87073 0.89518 0.0
H539 H 0.13169 0.86807 0.86056 0.0
H540 H 0.10658 0.86281 0.82472 0.0
H541 H 0.13845 0.83498 0.83196 0.0
H542 H 0.08009 0.72696 0.84103 0.0
H543 H 0.03487 0.73109 0.80156 0.0
H544 H 0.04481 0.83153 0.81182 0.0
C545 C 0.12317 0.82339 0.91544 0.0
C546 C 0.13213 0.80166 0.93728 0.0
C547 C 0.13078 0.76943 0.92723 0.0
C548 C 0.11849 0.75901 0.89675 0.0
C549 C 0.10824 0.78109 0.87639 0.0
C550 C 0.11097 0.81268 0.88519 0.0
C551 C 0.09377 0.83162 0.86131 0.0
C552 C 0.06697 0.85295 0.87763 0.0
C553 C 0.11915 0.85048 0.84358 0.0
C554 C 0.07864 0.80578 0.83909 0.0
C555 C 0.08802 0.77676 0.84759 0.0
C556 C 0.07339 0.74949 0.83349 0.0
C557 C 0.04767 0.75202 0.81117 0.0
C558 C 0.03675 0.78161 0.80336 0.0
C559 C 0.05349 0.8086 0.81647 0.0
H560 H 0.90638 0.06749 0.93346 0.0
H561 H 0.85084 0.12159 0.86906 0.0
H562 H 0.85727 0.07936 0.82563 0.0
H563 H 0.96349 0.02809 0.87325 0.0
H564 H 0.9613 0.99192 0.89173 0.0
H565 H 0.95723 0.02842 0.91587 0.0
H566 H 0.90085 0.00996 0.93731 0.0
H567 H 0.90462 0.97357 0.91316 0.0
H568 H 0.86837 0.9974 0.9093 0.0
H569 H 0.86519 0.02932 0.79096 0.0
H570 H 0.87246 0.97501 0.76818 0.0
H571 H 0.91936 0.95271 0.85684 0.0
C572 C 0.89656 0.07087 0.90991 0.0
C573 C 0.87858 0.09795 0.9044 0.0
C574 C 0.86497 0.10108 0.87363 0.0
C575 C 0.86857 0.07728 0.84883 0.0
C576 C 0.88564 0.05044 0.85531 0.0
C577 C 0.89941 0.04712 0.88511 0.0
C578 C 0.91324 0.01473 0.887 0.0
C579 C 0.95107 0.01587 0.89226 0.0
C580 C 0.89571 0.99794 0.91324 0.0
C581 C 0.90447 0.00012 0.85386 0.0
C582 C 0.88906 0.02121 0.83576 0.0
C583 C 0.87743 0.01266 0.80484 0.0
C584 C 0.88141 0.98166 0.79223 0.0
C585 C 0.89649 0.95944 0.81065 0.0
C586 C 0.9084 0.96911 0.84177 0.0
H587 H 0.41542 0.29578 0.45583 0.0
H588 H 0.32386 0.34607 0.44385 0.0
H589 H 0.33332 0.34364 0.38539 0.0
H590 H 0.46098 0.33664 0.40345 0.0
H591 H 0.48607 0.30444 0.38745 0.0
H592 H 0.46923 0.30456 0.42716 0.0
H593 H 0.44097 0.25122 0.41181 0.0
H594 H 0.45789 0.25084 0.37199 0.0
H595 H 0.41374 0.24667 0.37742 0.0
H596 H 0.35519 0.34075 0.3299 0.0
H597 H 0.38948 0.34093 0.28145 0.0
H598 H 0.46875 0.29455 0.32908 0.0
C599 C 0.3969 0.30528 0.44062 0.0
C600 C 0.36855 0.32051 0.45397 0.0
C601 C 0.34545 0.33394 0.43379 0.0
C602 C 0.35059 0.33257 0.40063 0.0
C603 C 0.37918 0.31802 0.38816 0.0
C604 C 0.40207 0.30472 0.4075 0.0
C605 C 0.43272 0.29414 0.38863 0.0
C606 C 0.46408 0.31096 0.4025 0.0
C607 C 0.43654 0.2586 0.38739 0.0
C608 C 0.42386 0.30438 0.35596 0.0
C609 C 0.39255 0.31745 0.3561 0.0
C610 C 0.37951 0.3301 0.32931 0.0
C611 C 0.39917 0.32992 0.30179 0.0
C612 C 0.43174 0.31747 0.30126 0.0
C613 C 0.44393 0.30412 0.32866 0.0
H614 H 0.24159 0.95044 0.04121 0.0
H615 H 0.1989 0.90857 0.95241 0.0
H616 H 0.22298 0.95065 0.92337 0.0
H617 H 0.22107 0.02503 0.02848 0.0
H618 H 0.25767 0.04352 0.04645 0.0
H619 H 0.24371 0.00691 0.05905 0.0
H620 H 0.30136 0.98269 0.0456 0.0
H621 H 0.31559 0.01939 0.033 0.0
H622 H 0.31833 0.98454 0.00605 0.0
H623 H 0.24439 0.00015 0.9055 0.0
H624 H 0.25934 0.05503 0.90036 0.0
H625 H 0.28607 0.06634 0.00113 0.0
C626 C 0.23842 0.9496 0.01546 0.0
C627 C 0.21886 0.92614 0.99888 0.0
C628 C 0.21405 0.9263 0.96542 0.0
C629 C 0.22779 0.94997 0.94873 0.0
C630 C 0.24614 0.97335 0.9659 0.0
C631 C 0.25149 0.9734 0.99854 0.0
C632 C 0.26798 0.0034 0.01204 0.0
C633 C 0.2463 0.02072 0.03802 0.0
C634 C 0.3029 0.99712 0.02493 0.0
C635 C 0.26974 0.02073 0.98217 0.0
C636 C 0.25773 0.00266 0.95569 0.0
C637 C 0.25433 0.01437 0.92592 0.0
C638 C 0.26265 0.0456 0.92328 0.0
C639 C 0.27387 0.06485 0.95035 0.0
C640 C 0.27825 0.05196 0.97992 0.0
H641 H 0.51196 0.60452 0.46035 0.0
H642 H 0.5123 0.70568 0.47082 0.0
H643 H 0.45599 0.70574 0.44723 0.0
H644 H 0.47241 0.59604 0.38506 0.0
H645 H 0.44845 0.56223 0.39318 0.0
H646 H 0.48763 0.57005 0.41319 0.0
H647 H 0.45916 0.5689 0.46832 0.0
H648 H 0.41979 0.56091 0.44862 0.0
H649 H 0.42412 0.59388 0.47794 0.0
H650 H 0.40072 0.69477 0.42015 0.0
H651 H 0.35037 0.67355 0.39211 0.0
H652 H 0.38705 0.57971 0.39845 0.0
C653 C 0.50009 0.62674 0.45817 0.0
C654 C 0.5166 0.65511 0.4676 0.0
C655 C 0.5002 0.68362 0.46385 0.0
C656 C 0.46819 0.68391 0.4505 0.0
C657 C 0.4529 0.65552 0.44104 0.0
C658 C 0.46827 0.62747 0.44481 0.0
C659 C 0.44706 0.60022 0.43152 0.0
C660 C 0.46495 0.58102 0.4041 0.0
C661 C 0.43693 0.57978 0.4582 0.0
C662 C 0.41749 0.61734 0.41934 0.0
C663 C 0.42126 0.64921 0.42519 0.0
C664 C 0.39746 0.66985 0.41552 0.0
C665 C 0.36907 0.65759 0.39942 0.0
C666 C 0.36476 0.62498 0.39306 0.0
C667 C 0.38935 0.60471 0.40333 0.0
H668 H 0.36036 0.39951 0.68177 0.0
H669 H 0.3388 0.46556 0.6123 0.0
H670 H 0.34921 0.50921 0.65357 0.0
H671 H 0.32722 0.44431 0.75301 0.0
H672 H 0.36054 0.43355 0.77866 0.0
H673 H 0.34781 0.40741 0.74484 0.0
H674 H 0.40809 0.40612 0.72347 0.0
H675 H 0.42106 0.43215 0.75719 0.0
H676 H 0.42883 0.44217 0.71701 0.0
H677 H 0.36306 0.54524 0.70125 0.0
H678 H 0.38587 0.57219 0.75094 0.0
H679 H 0.40286 0.48313 0.78895 0.0
C680 C 0.35741 0.42323 0.67558 0.0
C681 C 0.34843 0.4295 0.64421 0.0
C682 C 0.34555 0.46059 0.63639 0.0
C683 C 0.35121 0.4854 0.65965 0.0
C684 C 0.36024 0.47859 0.6904 0.0
C685 C 0.36383 0.44832 0.69835 0.0
C686 C 0.37693 0.44757 0.73227 0.0
C687 C 0.35161 0.43231 0.75344 0.0
C688 C 0.41074 0.43103 0.73248 0.0
C689 C 0.38041 0.48216 0.74197 0.0
C690 C 0.36997 0.49955 0.71764 0.0
C691 C 0.37116 0.53194 0.72057 0.0
C692 C 0.38396 0.54702 0.74893 0.0
C693 C 0.39584 0.52972 0.7738 0.0
C694 C 0.39378 0.49687 0.77033 0.0
H695 H 0.04107 0.86444 0.07407 0.0
H696 H 0.05448 0.76428 0.06913 0.0
H697 H 0.00417 0.75978 0.10239 0.0
H698 H 0.02018 0.87332 0.15444 0.0
H699 H 0.99066 0.90412 0.15053 0.0
H700 H 0.02452 0.89874 0.12277 0.0
H701 H 0.98314 0.89395 0.07508 0.0
H702 H 0.94901 0.89959 0.10264 0.0
H703 H 0.95002 0.86561 0.07435 0.0
H704 H 0.95345 0.76726 0.13905 0.0
H705 H 0.909 0.78621 0.17683 0.0
H706 H 0.93268 0.88134 0.1593 0.0
C707 C 0.03302 0.84137 0.07911 0.0
C708 C 0.05145 0.81463 0.06852 0.0
C709 C 0.04053 0.78506 0.07667 0.0
C710 C 0.01201 0.7823 0.09555 0.0
C711 C 0.99494 0.80935 0.10624 0.0
C712 C 0.00517 0.8383 0.09825 0.0
C713 C 0.98461 0.86414 0.11481 0.0
C714 C 0.00629 0.88637 0.13696 0.0
C715 C 0.96556 0.88186 0.09025 0.0
C716 C 0.96137 0.84533 0.13377 0.0
C717 C 0.96724 0.81374 0.12827 0.0
C718 C 0.94866 0.79195 0.14346 0.0
C719 C 0.92356 0.80284 0.16483 0.0
C720 C 0.91786 0.83517 0.17114 0.0
C721 C 0.93692 0.85651 0.15523 0.0
H722 H 0.67582 0.53119 0.50812 0.0
H723 H 0.75221 0.60137 0.52886 0.0
H724 H 0.78891 0.56139 0.54948 0.0
H725 H 0.68921 0.48781 0.57559 0.0
H726 H 0.68182 0.45071 0.55333 0.0
H727 H 0.66197 0.48514 0.54118 0.0
H728 H 0.68696 0.47444 0.48432 0.0
H729 H 0.70705 0.44005 0.49636 0.0
H730 H 0.73127 0.47002 0.47988 0.0
H731 H 0.81576 0.51319 0.57051 0.0
H732 H 0.83146 0.46086 0.58628 0.0
H733 H 0.73851 0.42315 0.54721 0.0
C734 C 0.70018 0.53825 0.51723 0.0
C735 C 0.71111 0.56936 0.51732 0.0
C736 C 0.74341 0.57758 0.52873 0.0
C737 C 0.76434 0.55508 0.54048 0.0
C738 C 0.7527 0.5245 0.54001 0.0
C739 C 0.72147 0.51612 0.52831 0.0
C740 C 0.71494 0.48172 0.52938 0.0
C741 C 0.68524 0.47603 0.55118 0.0
C742 C 0.70976 0.46562 0.49547 0.0
C743 C 0.74721 0.47196 0.54388 0.0
C744 C 0.76869 0.49687 0.55017 0.0
C745 C 0.79933 0.49346 0.56522 0.0
C746 C 0.80807 0.46382 0.57406 0.0
C747 C 0.78644 0.43814 0.56722 0.0
C748 C 0.75581 0.44234 0.55187 0.0
H749 H 0.93577 0.16488 0.09482 0.0
H750 H 0.85807 0.23314 0.11524 0.0
H751 H 0.87391 0.23703 0.17281 0.0
H752 H 0.92773 0.12521 0.16508 0.0
H753 H 0.97178 0.11929 0.16935 0.0
H754 H 0.95406 0.12234 0.13024 0.0
H755 H 0.99473 0.16751 0.12122 0.0
H756 H 0.01253 0.16466 0.16036 0.0
H757 H 0.99613 0.20126 0.14982 0.0
H758 H 0.89697 0.23048 0.2291 0.0
H759 H 0.92719 0.21671 0.27771 0.0
H760 H 0.99114 0.15533 0.21827 0.0
C761 C 0.92193 0.18061 0.11136 0.0
C762 C 0.89545 0.19849 0.10067 0.0
C763 C 0.87841 0.2192 0.123 0.0
C764 C 0.88721 0.2215 0.15569 0.0
C765 C 0.91343 0.20333 0.1654 0.0
C766 C 0.9307 0.18355 0.14372 0.0
C767 C 0.95817 0.16678 0.15978 0.0
C768 C 0.95258 0.13131 0.15589 0.0
C769 C 0.99241 0.17559 0.14703 0.0
C770 C 0.9535 0.17982 0.19409 0.0
C771 C 0.92749 0.20073 0.19706 0.0
C772 C 0.91765 0.21447 0.22693 0.0
C773 C 0.93484 0.20653 0.25436 0.0
C774 C 0.96177 0.18544 0.25154 0.0
C775 C 0.97117 0.17213 0.22099 0.0
H776 H 0.14992 0.74991 0.12867 0.0
H777 H 0.20993 0.82677 0.17129 0.0
H778 H 0.21384 0.80074 0.22137 0.0
H779 H 0.10584 0.7329 0.2032 0.0
H780 H 0.10674 0.69156 0.19214 0.0
H781 H 0.10457 0.71838 0.16153 0.0
H782 H 0.15728 0.69352 0.13487 0.0
H783 H 0.15965 0.66675 0.16533 0.0
H784 H 0.19472 0.69133 0.15834 0.0
H785 H 0.21767 0.76319 0.2636 0.0
H786 H 0.22172 0.71713 0.29422 0.0
H787 H 0.1573 0.66571 0.22483 0.0
C788 C 0.16339 0.76164 0.14868 0.0
C789 C 0.17967 0.79039 0.14598 0.0
C790 C 0.19718 0.80478 0.17276 0.0
C791 C 0.19943 0.79024 0.20137 0.0
C792 C 0.18366 0.76157 0.20291 0.0
C793 C 0.16576 0.74756 0.17734 0.0
C794 C 0.15355 0.71554 0.184 0.0
C795 C 0.11541 0.71456 0.1853 0.0
C796 C 0.16713 0.69032 0.15917 0.0
C797 C 0.16868 0.7131 0.21676 0.0
C798 C 0.18549 0.74006 0.22751 0.0
C799 C 0.20394 0.74223 0.25582 0.0
C800 C 0.20592 0.71593 0.27317 0.0
C801 C 0.18965 0.68777 0.26207 0.0
C802 C 0.17003 0.68683 0.23397 0.0
H803 H 0.75292 0.68932 0.53661 0.0
H804 H 0.68997 0.7693 0.52644 0.0
H805 H 0.72935 0.80271 0.55935 0.0
H806 H 0.76986 0.7075 0.61722 0.0
H807 H 0.81212 0.69377 0.61607 0.0
H808 H 0.78234 0.67727 0.58725 0.0
H809 H 0.82063 0.6912 0.54097 0.0
H810 H 0.85061 0.7078 0.56973 0.0
H811 H 0.83447 0.73085 0.53935 0.0
H812 H 0.77227 0.8263 0.59704 0.0
H813 H 0.81293 0.83757 0.64076 0.0
H814 H 0.84709 0.74195 0.6284 0.0
C815 C 0.74799 0.71403 0.54064 0.0
C816 C 0.71874 0.72691 0.52876 0.0
C817 C 0.71239 0.7591 0.5353 0.0
C818 C 0.7347 0.77826 0.55374 0.0
C819 C 0.76307 0.76479 0.56562 0.0
C820 C 0.7697 0.73337 0.55953 0.0
C821 C 0.79971 0.72403 0.57834 0.0
C822 C 0.79043 0.69919 0.60107 0.0
C823 C 0.82803 0.71281 0.55574 0.0
C824 C 0.80827 0.75488 0.59669 0.0
C825 C 0.78732 0.77823 0.58841 0.0
C826 C 0.78915 0.80834 0.60341 0.0
C827 C 0.81244 0.81456 0.6281 0.0
C828 C 0.83326 0.79068 0.63783 0.0
C829 C 0.83155 0.76066 0.62137 0.0
H830 H 0.77046 0.25672 0.06756 0.0
H831 H 0.72114 0.20651 0.98607 0.0
H832 H 0.66689 0.22215 0.00836 0.0
H833 H 0.7106 0.23717 0.12658 0.0
H834 H 0.71238 0.27462 0.14932 0.0
H835 H 0.74813 0.26018 0.12701 0.0
H836 H 0.74945 0.31009 0.09682 0.0
H837 H 0.71387 0.32478 0.11921 0.0
H838 H 0.71272 0.32139 0.07602 0.0
H839 H 0.61808 0.24267 0.03833 0.0
H840 H 0.57665 0.26827 0.0749 0.0
H841 H 0.65586 0.30489 0.13813 0.0
C842 C 0.74824 0.24923 0.05435 0.0
C843 C 0.7502 0.2303 0.02506 0.0
C844 C 0.72045 0.22081 0.00864 0.0
C845 C 0.68941 0.22959 0.02107 0.0
C846 C 0.68828 0.24781 0.05007 0.0
C847 C 0.71676 0.25763 0.06659 0.0
C848 C 0.70809 0.27697 0.09748 0.0
C849 C 0.72054 0.26129 0.12683 0.0
C850 C 0.72185 0.31029 0.09736 0.0
C851 C 0.6704 0.27648 0.09548 0.0
C852 C 0.65965 0.25949 0.06785 0.0
C853 C 0.6261 0.25603 0.06009 0.0
C854 C 0.60279 0.27067 0.08093 0.0
C855 C 0.61308 0.28847 0.10926 0.0
C856 C 0.64734 0.29109 0.1168 0.0
H857 H 0.32607 0.31781 0.69059 0.0
H858 H 0.37747 0.2398 0.64036 0.0
H859 H 0.38426 0.21598 0.69165 0.0
H860 H 0.37475 0.32047 0.76534 0.0
H861 H 0.33883 0.33042 0.78962 0.0
H862 H 0.34152 0.34268 0.74966 0.0
H863 H 0.28508 0.31576 0.73517 0.0
H864 H 0.28222 0.30341 0.77495 0.0
H865 H 0.27982 0.27504 0.74074 0.0
H866 H 0.38028 0.1985 0.74769 0.0
H867 H 0.36614 0.18889 0.80336 0.0
H868 H 0.3169 0.27847 0.8157 0.0
C869 C 0.33917 0.29589 0.69026 0.0
C870 C 0.35115 0.28062 0.66136 0.0
C871 C 0.36815 0.25198 0.66219 0.0
C872 C 0.37217 0.23832 0.69121 0.0
C873 C 0.35939 0.25378 0.71914 0.0
C874 C 0.34344 0.28207 0.71885 0.0
C875 C 0.33005 0.29315 0.75153 0.0
C876 C 0.34733 0.32347 0.76482 0.0
C877 C 0.29205 0.29704 0.75052 0.0
C878 C 0.33993 0.26616 0.77017 0.0
C879 C 0.35719 0.24384 0.75123 0.0
C880 C 0.36713 0.21598 0.76281 0.0
C881 C 0.35879 0.21065 0.79436 0.0
C882 C 0.3405 0.23299 0.8139 0.0
C883 C 0.33151 0.26126 0.80165 0.0
H884 H 0.63997 0.76553 0.42646 0.0
H885 H 0.64561 0.6784 0.36687 0.0
H886 H 0.65511 0.70713 0.31933 0.0
H887 H 0.60496 0.81527 0.36224 0.0
H888 H 0.63074 0.84773 0.37699 0.0
H889 H 0.61479 0.82132 0.40436 0.0
H890 H 0.67472 0.81161 0.42385 0.0
H891 H 0.69084 0.83763 0.39649 0.0
H892 H 0.70579 0.79817 0.39503 0.0
H893 H 0.67565 0.74324 0.28152 0.0
H894 H 0.70716 0.78373 0.25666 0.0
H895 H 0.68881 0.84841 0.33999 0.0
C896 C 0.6416 0.75273 0.40309 0.0
C897 C 0.64158 0.71992 0.40004 0.0
C898 C 0.64526 0.70363 0.36946 0.0
C899 C 0.65045 0.71975 0.34234 0.0
C900 C 0.65196 0.75215 0.34624 0.0
C901 C 0.64741 0.76855 0.37583 0.0
C902 C 0.65589 0.80269 0.37458 0.0
C903 C 0.62473 0.82295 0.37985 0.0
C904 C 0.68345 0.8131 0.39891 0.0
C905 C 0.66804 0.80244 0.3404 0.0
C906 C 0.66461 0.77329 0.32417 0.0
C907 C 0.6776 0.76642 0.29359 0.0
C908 C 0.69543 0.78965 0.27959 0.0
C909 C 0.7004 0.8193 0.29632 0.0
C910 C 0.68541 0.82597 0.3266 0.0
H911 H 0.8151 0.20505 0.87256 0.0
H912 H 0.8586 0.28731 0.92402 0.0
H913 H 0.85949 0.31333 0.87364 0.0
H914 H 0.86155 0.20856 0.79991 0.0
H915 H 0.82716 0.19509 0.77463 0.0
H916 H 0.8306 0.18312 0.81463 0.0
H917 H 0.77154 0.20438 0.82767 0.0
H918 H 0.76787 0.21633 0.78771 0.0
H919 H 0.76213 0.24434 0.82176 0.0
H920 H 0.85423 0.33049 0.81705 0.0
H921 H 0.84186 0.33759 0.76019 0.0
H922 H 0.80326 0.24321 0.74713 0.0
C923 C 0.82483 0.22856 0.87346 0.0
C924 C 0.83669 0.24414 0.90238 0.0
C925 C 0.84932 0.27488 0.9022 0.0
C926 C 0.85 0.28982 0.87369 0.0
C927 C 0.83814 0.27363 0.84563 0.0
C928 C 0.82581 0.24366 0.84541 0.0
C929 C 0.81408 0.23128 0.81242 0.0
C930 C 0.83458 0.20283 0.79965 0.0
C931 C 0.77669 0.22365 0.81241 0.0
C932 C 0.82128 0.25911 0.79404 0.0
C933 C 0.83533 0.2833 0.81344 0.0
C934 C 0.84341 0.31162 0.80164 0.0
C935 C 0.83648 0.31538 0.7693 0.0
C936 C 0.8215 0.29098 0.74929 0.0
C937 C 0.81435 0.26242 0.76189 0.0
H938 H 0.28139 0.2413 0.49745 0.0
H939 H 0.22317 0.27335 0.58093 0.0
H940 H 0.17414 0.24598 0.55718 0.0
H941 H 0.21958 0.25119 0.44069 0.0
H942 H 0.22916 0.21691 0.41463 0.0
H943 H 0.26119 0.2358 0.43944 0.0
H944 H 0.27321 0.18417 0.46452 0.0
H945 H 0.24139 0.16498 0.43953 0.0
H946 H 0.23976 0.16393 0.48242 0.0
H947 H 0.13016 0.22072 0.52275 0.0
H948 H 0.09396 0.19576 0.48018 0.0
H949 H 0.17968 0.17855 0.41883 0.0
C950 C 0.25855 0.24185 0.51106 0.0
C951 C 0.25618 0.25948 0.54109 0.0
C952 C 0.22563 0.26012 0.55786 0.0
C953 C 0.1976 0.24457 0.54462 0.0
C954 C 0.20045 0.22826 0.51463 0.0
C955 C 0.23014 0.22643 0.49812 0.0
C956 C 0.22568 0.20875 0.4654 0.0
C957 C 0.23442 0.22941 0.43846 0.0
C958 C 0.24623 0.17867 0.46283 0.0
C959 C 0.18872 0.20172 0.46592 0.0
C960 C 0.17478 0.21313 0.49465 0.0
C961 C 0.1408 0.21127 0.50031 0.0
C962 C 0.12044 0.19729 0.47596 0.0
C963 C 0.13411 0.18527 0.44638 0.0
C964 C 0.16874 0.18725 0.44142 0.0
H965 H 0.24554 0.76157 0.98388 0.0
H966 H 0.29878 0.81435 0.06108 0.0
H967 H 0.35156 0.79079 0.04131 0.0
H968 H 0.29294 0.69184 0.98297 0.0
H969 H 0.2921 0.68436 0.93996 0.0
H970 H 0.25866 0.70546 0.9602 0.0
H971 H 0.26793 0.75121 0.92497 0.0
H972 H 0.30142 0.73025 0.90461 0.0
H973 H 0.30852 0.76886 0.92363 0.0
H974 H 0.39807 0.75916 0.01468 0.0
H975 H 0.43529 0.72448 0.98087 0.0
H976 H 0.35189 0.695 0.91963 0.0
C977 C 0.26829 0.76815 0.99667 0.0
C978 C 0.26806 0.78964 0.02413 0.0
C979 C 0.29841 0.79797 0.03994 0.0
C980 C 0.32848 0.78466 0.02895 0.0
C981 C 0.32779 0.76345 0.00187 0.0
C982 C 0.29852 0.75551 0.98574 0.0
C983 C 0.30456 0.73252 0.95696 0.0
C984 C 0.28597 0.70172 0.96024 0.0
C985 C 0.29505 0.74656 0.92569 0.0
C986 C 0.34175 0.72844 0.95963 0.0
C987 C 0.35469 0.74631 0.9858 0.0
C988 C 0.38829 0.74534 0.99392 0.0
C989 C 0.40918 0.72559 0.97472 0.0
C990 C 0.39639 0.70748 0.94759 0.0
C991 C 0.36231 0.70908 0.93995 0.0
loop_
_geom_bond_atom_site_label_1
_geom_bond_atom_site_label_2
_geom_bond_distance
_geom_bond_site_symmetry_2
_ccdc_geom_bond_type
Sc0 O3 2.025 . S
Sc0 O10 2.105 . S
Sc0 O13 2.105 . S
Sc0 O16 2.105 . S
Sc0 O19 2.105 1_554 S
Sc1 O3 2.025 . S
Sc1 O11 2.105 1_554 S
Sc1 O15 2.105 . S
Sc1 O17 2.105 . S
Sc1 O21 2.105 . S
Sc2 O3 2.025 . S
Sc2 O12 2.105 . S
Sc2 O14 2.105 . S
Sc2 O18 2.105 . S
Sc2 O20 2.105 . S
O3 Sc0 2.025 . S
O3 Sc1 2.025 . S
O3 Sc2 2.025 . S
C4 O10 1.268 . S
C4 O20 1.268 . S
C5 O11 1.268 . S
C5 O19 1.268 . S
C6 O12 1.268 . S
C6 O21 1.268 . S
C7 O13 1.268 . S
C7 O17 1.268 . S
C8 O14 1.268 . S
C8 O16 1.268 . S
C9 O15 1.268 . S
C9 O18 1.268 . S
O10 Sc0 2.105 . S
O10 C4 1.268 . S
O11 Sc1 2.105 1_556 S
O11 C5 1.268 . S
O12 Sc2 2.105 . S
O12 C6 1.268 . S
O13 Sc0 2.105 . S
O13 C7 1.268 . S
O14 Sc2 2.105 . S
O14 C8 1.268 . S
O15 Sc1 2.105 . S
O15 C9 1.268 . S
O16 Sc0 2.105 . S
O16 C8 1.268 . S
O17 Sc1 2.105 . S
O17 C7 1.268 . S
O18 Sc2 2.105 . S
O18 C9 1.268 . S
O19 Sc0 2.105 1_556 S
O19 C5 1.268 . S
O20 Sc2 2.105 . S
O20 C4 1.268 . S
O21 Sc1 2.105 . S
O21 C6 1.268 . S
Sc22 O25 2.025 . S
Sc22 O32 2.105 . S
Sc22 O35 2.105 . S
Sc22 O38 2.105 . S
Sc22 O41 2.105 . S
Sc23 O25 2.025 . S
Sc23 O33 2.105 . S
Sc23 O37 2.105 . S
Sc23 O39 2.105 . S
Sc23 O43 2.105 . S
Sc24 O25 2.025 . S
Sc24 O34 2.105 . S
Sc24 O36 2.105 . S
Sc24 O40 2.105 . S
Sc24 O42 2.105 . S
O25 Sc22 2.025 . S
O25 Sc23 2.025 . S
O25 Sc24 2.025 . S
C26 O32 1.268 . S
C26 O42 1.268 . S
C27 O33 1.268 . S
C27 O41 1.268 . S
C28 O34 1.268 . S
C28 O43 1.268 . S
C29 O35 1.268 . S
C29 O39 1.268 . S
C30 O36 1.268 . S
C30 O38 1.268 . S
C31 O37 1.268 . S
C31 O40 1.268 . S
O32 Sc22 2.105 . S
O32 C26 1.268 . S
O33 Sc23 2.105 . S
O33 C27 1.268 . S
O34 Sc24 2.105 . S
O34 C28 1.268 . S
O35 Sc22 2.105 . S
O35 C29 1.268 . S
O36 Sc24 2.105 . S
O36 C30 1.268 . S
O37 Sc23 2.105 . S
O37 C31 1.268 . S
O38 Sc22 2.105 . S
O38 C30 1.268 . S
O39 Sc23 2.105 . S
O39 C29 1.268 . S
O40 Sc24 2.105 . S
O40 C31 1.268 . S
O41 Sc22 2.105 . S
O41 C27 1.268 . S
O42 Sc24 2.105 . S
O42 C26 1.268 . S
O43 Sc23 2.105 . S
O43 C28 1.268 . S
Sc44 O47 2.025 . S
Sc44 O54 2.105 1_554 S
Sc44 O57 2.105 . S
Sc44 O60 2.105 . S
Sc44 O63 2.105 1_554 S
Sc45 O47 2.025 1_556 S
Sc45 O55 2.105 . S
Sc45 O59 2.105 1_556 S
Sc45 O61 2.105 1_556 S
Sc45 O65 2.105 . S
Sc46 O47 2.025 . S
Sc46 O56 2.105 1_554 S
Sc46 O58 2.105 . S
Sc46 O62 2.105 . S
Sc46 O64 2.105 1_554 S
O47 Sc44 2.025 . S
O47 Sc45 2.025 1_554 S
O47 Sc46 2.025 . S
C48 O54 1.268 . S
C48 O64 1.268 . S
C49 O55 1.268 . S
C49 O63 1.268 . S
C50 O56 1.268 . S
C50 O65 1.268 . S
C51 O57 1.268 . S
C51 O61 1.268 . S
C52 O58 1.268 . S
C52 O60 1.268 . S
C53 O59 1.268 . S
C53 O62 1.268 . S
O54 Sc44 2.105 1_556 S
O54 C48 1.268 . S
O55 Sc45 2.105 . S
O55 C49 1.268 . S
O56 Sc46 2.105 1_556 S
O56 C50 1.268 . S
O57 Sc44 2.105 . S
O57 C51 1.268 . S
O58 Sc46 2.105 . S
O58 C52 1.268 . S
O59 Sc45 2.105 1_554 S
O59 C53 1.268 . S
O60 Sc44 2.105 . S
O60 C52 1.268 . S
O61 Sc45 2.105 1_554 S
O61 C51 1.268 . S
O62 Sc46 2.105 . S
O62 C53 1.268 . S
O63 Sc44 2.105 1_556 S
O63 C49 1.268 . S
O64 Sc46 2.105 1_556 S
O64 C48 1.268 . S
O65 Sc45 2.105 . S
O65 C50 1.268 . S
Sc66 O69 2.025 . S
Sc66 O76 2.105 . S
Sc66 O79 2.105 . S
Sc66 O82 2.105 . S
Sc66 O85 2.105 . S
Sc67 O69 2.025 . S
Sc67 O77 2.105 . S
Sc67 O81 2.105 . S
Sc67 O83 2.105 . S
Sc67 O87 2.105 . S
Sc68 O69 2.025 . S
Sc68 O78 2.105 . S
Sc68 O80 2.105 . S
Sc68 O84 2.105 . S
Sc68 O86 2.105 . S
O69 Sc66 2.025 . S
O69 Sc67 2.025 . S
O69 Sc68 2.025 . S
C70 O76 1.268 . S
C70 O86 1.268 . S
C71 O77 1.268 . S
C71 O85 1.268 . S
C72 O78 1.268 . S
C72 O87 1.268 . S
C73 O79 1.268 . S
C73 O83 1.268 . S
C74 O80 1.268 . S
C74 O82 1.268 . S
C75 O81 1.268 . S
C75 O84 1.268 . S
O76 Sc66 2.105 . S
O76 C70 1.268 . S
O77 Sc67 2.105 . S
O77 C71 1.268 . S
O78 Sc68 2.105 . S
O78 C72 1.268 . S
O79 Sc66 2.105 . S
O79 C73 1.268 . S
O80 Sc68 2.105 . S
O80 C74 1.268 . S
O81 Sc67 2.105 . S
O81 C75 1.268 . S
O82 Sc66 2.105 . S
O82 C74 1.268 . S
O83 Sc67 2.105 . S
O83 C73 1.268 . S
O84 Sc68 2.105 . S
O84 C75 1.268 . S
O85 Sc66 2.105 . S
O85 C71 1.268 . S
O86 Sc68 2.105 . S
O86 C70 1.268 . S
O87 Sc67 2.105 . S
O87 C72 1.268 . S
P88 O99 1.490 . S
P88 C102 1.812 . S
P88 C108 1.803 . S
P88 C114 1.819 . S
H89 C103 0.941 . S
H90 C104 0.932 1_565 S
H91 C106 0.940 . S
H92 C107 0.940 . S
H93 C109 0.939 . S
H94 C110 0.942 . S
H95 C112 0.940 . S
H96 C113 0.939 . S
H97 C115 0.941 . S
H98 C119 0.939 . S
O99 P88 1.490 . S
H100 C116 0.939 . S
H101 C118 0.940 . S
C102 P88 1.812 . S
C102 C103 1.389 . S
C102 C107 1.391 . S
C103 H89 0.941 . S
C103 C102 1.389 . S
C103 C104 1.397 . S
C104 H90 0.932 1_545 S
C104 C103 1.397 . S
C104 C105 1.378 . S
C105 C104 1.378 . S
C105 C106 1.378 . S
C106 H91 0.940 . S
C106 C105 1.378 . S
C106 C107 1.396 . S
C107 H92 0.940 . S
C107 C102 1.391 . S
C107 C106 1.396 . S
C108 P88 1.803 . S
C108 C109 1.378 . S
C108 C113 1.400 . S
C109 H93 0.939 . S
C109 C108 1.378 . S
C109 C110 1.361 . S
C110 H94 0.942 . S
C110 C109 1.361 . S
C110 C111 1.369 . S
C111 C110 1.369 . S
C111 C112 1.404 . S
C112 H95 0.940 . S
C112 C111 1.404 . S
C112 C113 1.389 . S
C113 H96 0.939 . S
C113 C108 1.400 . S
C113 C112 1.389 . S
C114 P88 1.819 . S
C114 C115 1.391 1_455 S
C114 C119 1.391 . S
C115 H97 0.941 . S
C115 C114 1.391 1_655 S
C115 C116 1.396 . S
C116 H100 0.939 . S
C116 C115 1.396 . S
C116 C117 1.397 . S
C117 C116 1.397 . S
C117 C118 1.385 1_655 S
C118 H101 0.940 . S
C118 C117 1.385 1_455 S
C118 C119 1.388 . S
C119 H98 0.939 . S
C119 C114 1.391 . S
C119 C118 1.388 . S
P120 O131 1.490 . S
P120 C134 1.812 . S
P120 C140 1.803 . S
P120 C146 1.819 . S
H121 C135 0.941 . S
H122 C136 0.939 . S
H123 C138 0.940 . S
H124 C139 0.940 . S
H125 C141 0.939 . S
H126 C142 0.942 . S
H127 C144 0.940 . S
H128 C145 0.939 . S
H129 C147 0.941 . S
H130 C151 0.939 . S
O131 P120 1.490 . S
H132 C148 0.939 . S
H133 C150 0.940 . S
C134 P120 1.812 . S
C134 C135 1.389 . S
C134 C139 1.391 . S
C135 H121 0.941 . S
C135 C134 1.389 . S
C135 C136 1.397 . S
C136 H122 0.939 . S
C136 C135 1.397 . S
C136 C137 1.378 . S
C137 C136 1.378 . S
C137 C138 1.378 . S
C138 H123 0.940 . S
C138 C137 1.378 . S
C138 C139 1.396 . S
C139 H124 0.940 . S
C139 C134 1.391 . S
C139 C138 1.396 . S
C140 P120 1.803 . S
C140 C141 1.378 . S
C140 C145 1.400 . S
C141 H125 0.939 . S
C141 C140 1.378 . S
C141 C142 1.361 . S
C142 H126 0.942 . S
C142 C141 1.361 . S
C142 C143 1.369 . S
C143 C142 1.369 . S
C143 C144 1.404 . S
C144 H127 0.940 . S
C144 C143 1.404 . S
C144 C145 1.389 . S
C145 H128 0.939 . S
C145 C140 1.400 . S
C145 C144 1.389 . S
C146 P120 1.819 . S
C146 C147 1.391 . S
C146 C151 1.391 . S
C147 H129 0.941 . S
C147 C146 1.391 . S
C147 C148 1.396 . S
C148 H132 0.939 . S
C148 C147 1.396 . S
C148 C149 1.397 . S
C149 C148 1.397 . S
C149 C150 1.385 . S
C150 H133 0.940 . S
C150 C149 1.385 . S
C150 C151 1.388 . S
C151 H130 0.939 . S
C151 C146 1.391 . S
C151 C150 1.388 . S
P152 O163 1.490 . S
P152 C166 1.812 . S
P152 C172 1.803 . S
P152 C178 1.819 . S
H153 C167 0.941 . S
H154 C168 0.939 . S
H155 C170 0.940 . S
H156 C171 0.940 . S
H157 C173 0.939 . S
H158 C174 0.942 . S
H159 C176 0.940 . S
H160 C177 0.939 . S
H161 C179 0.941 . S
H162 C183 0.939 . S
O163 P152 1.490 . S
H164 C180 0.939 . S
H165 C182 0.940 . S
C166 P152 1.812 . S
C166 C167 1.389 . S
C166 C171 1.391 . S
C167 H153 0.941 . S
C167 C166 1.389 . S
C167 C168 1.397 . S
C168 H154 0.939 . S
C168 C167 1.397 . S
C168 C169 1.378 . S
C169 C168 1.378 . S
C169 C170 1.378 . S
C170 H155 0.940 . S
C170 C169 1.378 . S
C170 C171 1.396 . S
C171 H156 0.940 . S
C171 C166 1.391 . S
C171 C170 1.396 . S
C172 P152 1.803 . S
C172 C173 1.378 . S
C172 C177 1.400 . S
C173 H157 0.939 . S
C173 C172 1.378 . S
C173 C174 1.361 . S
C174 H158 0.942 . S
C174 C173 1.361 . S
C174 C175 1.369 . S
C175 C174 1.369 . S
C175 C176 1.404 . S
C176 H159 0.940 . S
C176 C175 1.404 . S
C176 C177 1.389 . S
C177 H160 0.939 . S
C177 C172 1.400 . S
C177 C176 1.389 . S
C178 P152 1.819 . S
C178 C179 1.391 . S
C178 C183 1.391 . S
C179 H161 0.941 . S
C179 C178 1.391 . S
C179 C180 1.396 . S
C180 H164 0.939 . S
C180 C179 1.396 . S
C180 C181 1.397 . S
C181 C180 1.397 . S
C181 C182 1.385 . S
C182 H165 0.940 . S
C182 C181 1.385 . S
C182 C183 1.388 . S
C183 H162 0.939 . S
C183 C178 1.391 . S
C183 C182 1.388 . S
P184 O195 1.490 . S
P184 C198 1.812 . S
P184 C204 1.803 . S
P184 C210 1.819 . S
H185 C199 0.941 . S
H186 C200 0.939 . S
H187 C202 0.940 . S
H188 C203 0.940 . S
H189 C205 0.939 . S
H190 C206 0.942 . S
H191 C208 0.940 . S
H192 C209 0.939 . S
H193 C211 0.941 . S
H194 C215 0.939 . S
O195 P184 1.490 . S
H196 C212 0.939 . S
H197 C214 0.940 . S
C198 P184 1.812 . S
C198 C199 1.389 . S
C198 C203 1.391 . S
C199 H185 0.941 . S
C199 C198 1.389 . S
C199 C200 1.397 . S
C200 H186 0.939 . S
C200 C199 1.397 . S
C200 C201 1.378 . S
C201 C200 1.378 . S
C201 C202 1.378 . S
C202 H187 0.940 . S
C202 C201 1.378 . S
C202 C203 1.396 . S
C203 H188 0.940 . S
C203 C198 1.391 . S
C203 C202 1.396 . S
C204 P184 1.803 . S
C204 C205 1.378 . S
C204 C209 1.400 . S
C205 H189 0.939 . S
C205 C204 1.378 . S
C205 C206 1.361 . S
C206 H190 0.942 . S
C206 C205 1.361 . S
C206 C207 1.369 . S
C207 C206 1.369 . S
C207 C208 1.404 . S
C208 H191 0.940 . S
C208 C207 1.404 . S
C208 C209 1.389 . S
C209 H192 0.939 . S
C209 C204 1.400 . S
C209 C208 1.389 . S
C210 P184 1.819 . S
C210 C211 1.391 . S
C210 C215 1.391 . S
C211 H193 0.941 . S
C211 C210 1.391 . S
C211 C212 1.396 . S
C212 H196 0.939 . S
C212 C211 1.396 . S
C212 C213 1.397 . S
C213 C212 1.397 . S
C213 C214 1.385 . S
C214 H197 0.940 . S
C214 C213 1.385 . S
C214 C215 1.388 . S
C215 H194 0.939 . S
C215 C210 1.391 . S
C215 C214 1.388 . S
P216 O227 1.490 . S
P216 C230 1.812 . S
P216 C236 1.803 . S
P216 C242 1.819 . S
H217 C231 0.941 . S
H218 C232 0.939 . S
H219 C234 0.940 . S
H220 C235 0.940 . S
H221 C237 0.939 . S
H222 C238 0.942 . S
H223 C240 0.940 . S
H224 C241 0.939 . S
H225 C243 0.941 . S
H226 C247 0.939 . S
O227 P216 1.490 . S
H228 C244 0.939 . S
H229 C246 0.940 . S
C230 P216 1.812 . S
C230 C231 1.389 . S
C230 C235 1.391 . S
C231 H217 0.941 . S
C231 C230 1.389 . S
C231 C232 1.397 . S
C232 H218 0.939 . S
C232 C231 1.397 . S
C232 C233 1.378 . S
C233 C232 1.378 . S
C233 C234 1.378 . S
C234 H219 0.940 . S
C234 C233 1.378 . S
C234 C235 1.396 . S
C235 H220 0.940 . S
C235 C230 1.391 . S
C235 C234 1.396 . S
C236 P216 1.803 . S
C236 C237 1.378 . S
C236 C241 1.400 . S
C237 H221 0.939 . S
C237 C236 1.378 . S
C237 C238 1.361 . S
C238 H222 0.942 . S
C238 C237 1.361 . S
C238 C239 1.369 . S
C239 C238 1.369 . S
C239 C240 1.404 . S
C240 H223 0.940 . S
C240 C239 1.404 . S
C240 C241 1.389 . S
C241 H224 0.939 . S
C241 C236 1.400 . S
C241 C240 1.389 . S
C242 P216 1.819 . S
C242 C243 1.391 . S
C242 C247 1.391 . S
C243 H225 0.941 . S
C243 C242 1.391 . S
C243 C244 1.396 . S
C244 H228 0.939 . S
C244 C243 1.396 . S
C244 C245 1.397 . S
C245 C244 1.397 . S
C245 C246 1.385 . S
C246 H229 0.940 . S
C246 C245 1.385 . S
C246 C247 1.388 . S
C247 H226 0.939 . S
C247 C242 1.391 . S
C247 C246 1.388 . S
P248 O259 1.490 . S
P248 C262 1.812 . S
P248 C268 1.803 . S
P248 C274 1.819 . S
H249 C263 0.941 . S
H250 C264 0.939 . S
H251 C266 0.940 . S
H252 C267 0.940 . S
H253 C269 0.939 . S
H254 C270 0.942 . S
H255 C272 0.940 . S
H256 C273 0.939 . S
H257 C275 0.941 . S
H258 C279 0.939 . S
O259 P248 1.490 . S
H260 C276 0.939 . S
H261 C278 0.940 . S
C262 P248 1.812 . S
C262 C263 1.389 . S
C262 C267 1.391 . S
C263 H249 0.941 . S
C263 C262 1.389 . S
C263 C264 1.397 . S
C264 H250 0.939 . S
C264 C263 1.397 . S
C264 C265 1.378 . S
C265 C264 1.378 . S
C265 C266 1.378 . S
C266 H251 0.940 . S
C266 C265 1.378 . S
C266 C267 1.396 . S
C267 H252 0.940 . S
C267 C262 1.391 . S
C267 C266 1.396 . S
C268 P248 1.803 . S
C268 C269 1.378 . S
C268 C273 1.400 . S
C269 H253 0.939 . S
C269 C268 1.378 . S
C269 C270 1.361 . S
C270 H254 0.942 . S
C270 C269 1.361 . S
C270 C271 1.369 . S
C271 C270 1.369 . S
C271 C272 1.404 . S
C272 H255 0.940 . S
C272 C271 1.404 . S
C272 C273 1.389 . S
C273 H256 0.939 . S
C273 C268 1.400 . S
C273 C272 1.389 . S
C274 P248 1.819 . S
C274 C275 1.391 . S
C274 C279 1.391 . S
C275 H257 0.941 . S
C275 C274 1.391 . S
C275 C276 1.396 . S
C276 H260 0.939 . S
C276 C275 1.396 . S
C276 C277 1.397 . S
C277 C276 1.397 . S
C277 C278 1.385 . S
C278 H261 0.940 . S
C278 C277 1.385 . S
C278 C279 1.388 . S
C279 H258 0.939 . S
C279 C274 1.391 . S
C279 C278 1.388 . S
P280 O291 1.490 . S
P280 C294 1.812 . S
P280 C300 1.803 . S
P280 C306 1.819 . S
H281 C295 0.941 . S
H282 C296 0.939 . S
H283 C298 0.940 . S
H284 C299 0.940 . S
H285 C301 0.939 . S
H286 C302 0.942 . S
H287 C304 0.940 . S
H288 C305 0.939 . S
H289 C307 0.941 . S
H290 C311 0.939 . S
O291 P280 1.490 . S
H292 C308 0.939 . S
H293 C310 0.940 . S
C294 P280 1.812 . S
C294 C295 1.389 . S
C294 C299 1.391 . S
C295 H281 0.941 . S
C295 C294 1.389 . S
C295 C296 1.397 . S
C296 H282 0.939 . S
C296 C295 1.397 . S
C296 C297 1.378 . S
C297 C296 1.378 . S
C297 C298 1.378 . S
C298 H283 0.940 . S
C298 C297 1.378 . S
C298 C299 1.396 . S
C299 H284 0.940 . S
C299 C294 1.391 . S
C299 C298 1.396 . S
C300 P280 1.803 . S
C300 C301 1.378 . S
C300 C305 1.400 . S
C301 H285 0.939 . S
C301 C300 1.378 . S
C301 C302 1.361 . S
C302 H286 0.942 . S
C302 C301 1.361 . S
C302 C303 1.369 . S
C303 C302 1.369 . S
C303 C304 1.404 . S
C304 H287 0.940 . S
C304 C303 1.404 . S
C304 C305 1.389 . S
C305 H288 0.939 . S
C305 C300 1.400 . S
C305 C304 1.389 . S
C306 P280 1.819 . S
C306 C307 1.391 . S
C306 C311 1.391 . S
C307 H289 0.941 . S
C307 C306 1.391 . S
C307 C308 1.396 . S
C308 H292 0.939 . S
C308 C307 1.396 . S
C308 C309 1.397 . S
C309 C308 1.397 . S
C309 C310 1.385 . S
C310 H293 0.940 . S
C310 C309 1.385 . S
C310 C311 1.388 . S
C311 H290 0.939 . S
C311 C306 1.391 . S
C311 C310 1.388 . S
P312 O323 1.490 . S
P312 C326 1.812 . S
P312 C332 1.803 . S
P312 C338 1.819 . S
H313 C327 0.941 . S
H314 C328 0.939 . S
H315 C330 0.940 . S
H316 C331 0.940 . S
H317 C333 0.939 . S
H318 C334 0.942 . S
H319 C336 0.940 . S
H320 C337 0.939 . S
H321 C339 0.941 . S
H322 C343 0.939 . S
O323 P312 1.490 . S
H324 C340 0.939 . S
H325 C342 0.939 1_455 S
C326 P312 1.812 . S
C326 C327 1.389 . S
C326 C331 1.391 . S
C327 H313 0.941 . S
C327 C326 1.389 . S
C327 C328 1.397 . S
C328 H314 0.939 . S
C328 C327 1.397 . S
C328 C329 1.378 . S
C329 C328 1.378 . S
C329 C330 1.378 . S
C330 H315 0.940 . S
C330 C329 1.378 . S
C330 C331 1.396 . S
C331 H316 0.940 . S
C331 C326 1.391 . S
C331 C330 1.396 . S
C332 P312 1.803 . S
C332 C333 1.378 . S
C332 C337 1.400 . S
C333 H317 0.939 . S
C333 C332 1.378 . S
C333 C334 1.361 . S
C334 H318 0.942 . S
C334 C333 1.361 . S
C334 C335 1.369 . S
C335 C334 1.369 . S
C335 C336 1.404 . S
C336 H319 0.940 . S
C336 C335 1.404 . S
C336 C337 1.389 . S
C337 H320 0.939 . S
C337 C332 1.400 . S
C337 C336 1.389 . S
C338 P312 1.819 . S
C338 C339 1.391 . S
C338 C343 1.391 . S
C339 H321 0.941 . S
C339 C338 1.391 . S
C339 C340 1.396 . S
C340 H324 0.939 . S
C340 C339 1.396 . S
C340 C341 1.397 1_655 S
C341 C340 1.397 1_455 S
C341 C342 1.384 1_455 S
C342 H325 0.939 1_655 S
C342 C341 1.384 1_655 S
C342 C343 1.390 . S
C343 H322 0.939 . S
C343 C338 1.391 . S
C343 C342 1.390 . S
H344 C356 0.930 . S
H345 C358 0.930 . S
H346 C359 0.930 . S
H347 C363 0.959 . S
H348 C363 0.959 . S
H349 C363 0.961 . S
H350 C364 0.960 . S
H351 C364 0.961 . S
H352 C364 0.959 . S
H353 C367 0.929 . S
H354 C368 0.931 . S
H355 C370 0.930 . S
C356 H344 0.930 . S
C356 C357 1.399 . S
C356 C361 1.399 . S
C357 C356 1.399 . S
C357 C358 1.376 . S
C358 H345 0.930 . S
C358 C357 1.376 . S
C358 C359 1.388 . S
C359 H346 0.930 . S
C359 C358 1.388 . S
C359 C360 1.390 . S
C360 C359 1.390 . S
C360 C361 1.394 . S
C360 C366 1.465 . S
C361 C356 1.399 . S
C361 C360 1.394 . S
C361 C362 1.516 . S
C362 C361 1.516 . S
C362 C363 1.502 . S
C362 C364 1.561 . S
C362 C365 1.526 . S
C363 H347 0.959 . S
C363 H348 0.959 . S
C363 H349 0.961 . S
C363 C362 1.502 . S
C364 H350 0.960 . S
C364 H351 0.961 . S
C364 H352 0.959 . S
C364 C362 1.561 . S
C365 C362 1.526 . S
C365 C366 1.396 . S
C365 C370 1.390 . S
C366 C360 1.465 . S
C366 C365 1.396 . S
C366 C367 1.399 . S
C367 H353 0.929 . S
C367 C366 1.399 . S
C367 C368 1.385 . S
C368 H354 0.931 . S
C368 C367 1.385 . S
C368 C369 1.389 . S
C369 C368 1.389 . S
C369 C370 1.387 . S
C370 H355 0.930 . S
C370 C365 1.390 . S
C370 C369 1.387 . S
H371 C383 0.930 . S
H372 C385 0.930 . S
H373 C386 0.930 . S
H374 C390 0.959 . S
H375 C390 0.959 . S
H376 C390 0.961 . S
H377 C391 0.960 . S
H378 C391 0.961 . S
H379 C391 0.959 . S
H380 C394 0.929 . S
H381 C395 0.931 . S
H382 C397 0.930 . S
C383 H371 0.930 . S
C383 C384 1.399 . S
C383 C388 1.399 . S
C384 C383 1.399 . S
C384 C385 1.376 . S
C385 H372 0.930 . S
C385 C384 1.376 . S
C385 C386 1.388 . S
C386 H373 0.930 . S
C386 C385 1.388 . S
C386 C387 1.390 . S
C387 C386 1.390 . S
C387 C388 1.394 . S
C387 C393 1.465 . S
C388 C383 1.399 . S
C388 C387 1.394 . S
C388 C389 1.516 . S
C389 C388 1.516 . S
C389 C390 1.502 . S
C389 C391 1.561 . S
C389 C392 1.526 . S
C390 H374 0.959 . S
C390 H375 0.959 . S
C390 H376 0.961 . S
C390 C389 1.502 . S
C391 H377 0.960 . S
C391 H378 0.961 . S
C391 H379 0.959 . S
C391 C389 1.561 . S
C392 C389 1.526 . S
C392 C393 1.396 . S
C392 C397 1.390 . S
C393 C387 1.465 . S
C393 C392 1.396 . S
C393 C394 1.399 . S
C394 H380 0.929 . S
C394 C393 1.399 . S
C394 C395 1.385 . S
C395 H381 0.931 . S
C395 C394 1.385 . S
C395 C396 1.389 . S
C396 C395 1.389 . S
C396 C397 1.387 . S
C397 H382 0.930 . S
C397 C392 1.390 . S
C397 C396 1.387 . S
H398 C410 0.930 . S
H399 C412 0.930 . S
H400 C413 0.930 . S
H401 C417 0.959 . S
H402 C417 0.959 1_565 S
H403 C417 0.961 . S
H404 C418 0.975 . S
H405 C418 0.961 . S
H406 C418 0.959 . S
H407 C421 0.929 . S
H408 C422 0.931 . S
H409 C424 0.930 . S
C410 H398 0.930 . S
C410 C411 1.399 . S
C410 C415 1.399 . S
C411 C410 1.399 . S
C411 C412 1.376 . S
C412 H399 0.930 . S
C412 C411 1.376 . S
C412 C413 1.388 . S
C413 H400 0.930 . S
C413 C412 1.388 . S
C413 C414 1.390 . S
C414 C413 1.390 . S
C414 C415 1.394 . S
C414 C420 1.465 . S
C415 C410 1.399 . S
C415 C414 1.394 . S
C415 C416 1.516 . S
C416 C415 1.516 . S
C416 C417 1.502 . S
C416 C418 1.561 1_545 S
C416 C419 1.526 1_545 S
C417 H401 0.959 . S
C417 H402 0.959 1_545 S
C417 H403 0.961 . S
C417 C416 1.502 . S
C418 H404 0.975 . S
C418 H405 0.961 . S
C418 H406 0.959 . S
C418 C416 1.561 1_565 S
C419 C416 1.526 1_565 S
C419 C420 1.396 1_565 S
C419 C424 1.390 . S
C420 C414 1.465 . S
C420 C419 1.396 1_545 S
C420 C421 1.399 . S
C421 H407 0.929 . S
C421 C420 1.399 . S
C421 C422 1.385 1_545 S
C422 H408 0.931 . S
C422 C421 1.385 1_565 S
C422 C423 1.389 . S
C423 C422 1.389 . S
C423 C424 1.387 . S
C424 H409 0.930 . S
C424 C419 1.390 . S
C424 C423 1.387 . S
H425 C437 0.930 . S
H426 C439 0.930 . S
H427 C440 0.930 . S
H428 C444 0.959 . S
H429 C444 0.959 . S
H430 C444 0.961 . S
H431 C445 0.960 . S
H432 C445 0.961 . S
H433 C445 0.959 . S
H434 C448 0.929 . S
H435 C449 0.931 . S
H436 C451 0.930 . S
C437 H425 0.930 . S
C437 C438 1.399 . S
C437 C442 1.399 . S
C438 C437 1.399 . S
C438 C439 1.376 . S
C439 H426 0.930 . S
C439 C438 1.376 . S
C439 C440 1.388 . S
C440 H427 0.930 . S
C440 C439 1.388 . S
C440 C441 1.390 . S
C441 C440 1.390 . S
C441 C442 1.394 . S
C441 C447 1.465 . S
C442 C437 1.399 . S
C442 C441 1.394 . S
C442 C443 1.516 . S
C443 C442 1.516 . S
C443 C444 1.502 . S
C443 C445 1.561 . S
C443 C446 1.526 . S
C444 H428 0.959 . S
C444 H429 0.959 . S
C444 H430 0.961 . S
C444 C443 1.502 . S
C445 H431 0.960 . S
C445 H432 0.961 . S
C445 H433 0.959 . S
C445 C443 1.561 . S
C446 C443 1.526 . S
C446 C447 1.396 . S
C446 C451 1.390 . S
C447 C441 1.465 . S
C447 C446 1.396 . S
C447 C448 1.399 . S
C448 H434 0.929 . S
C448 C447 1.399 . S
C448 C449 1.385 . S
C449 H435 0.931 . S
C449 C448 1.385 . S
C449 C450 1.389 . S
C450 C449 1.389 . S
C450 C451 1.387 . S
C451 H436 0.930 . S
C451 C446 1.390 . S
C451 C450 1.387 . S
H452 C464 0.930 . S
H453 C466 0.930 . S
H454 C467 0.930 . S
H455 C471 0.959 . S
H456 C471 0.959 . S
H457 C471 0.961 . S
H458 C472 0.960 . S
H459 C472 0.961 . S
H460 C472 0.959 . S
H461 C475 0.929 . S
H462 C476 0.931 . S
H463 C478 0.930 . S
C464 H452 0.930 . S
C464 C465 1.399 . S
C464 C469 1.399 . S
C465 C464 1.399 . S
C465 C466 1.376 . S
C466 H453 0.930 . S
C466 C465 1.376 . S
C466 C467 1.388 . S
C467 H454 0.930 . S
C467 C466 1.388 . S
C467 C468 1.390 . S
C468 C467 1.390 . S
C468 C469 1.394 . S
C468 C474 1.465 . S
C469 C464 1.399 . S
C469 C468 1.394 . S
C469 C470 1.516 . S
C470 C469 1.516 . S
C470 C471 1.502 . S
C470 C472 1.561 . S
C470 C473 1.526 . S
C471 H455 0.959 . S
C471 H456 0.959 . S
C471 H457 0.961 . S
C471 C470 1.502 . S
C472 H458 0.960 . S
C472 H459 0.961 . S
C472 H460 0.959 . S
C472 C470 1.561 . S
C473 C470 1.526 . S
C473 C474 1.396 . S
C473 C478 1.390 . S
C474 C468 1.465 . S
C474 C473 1.396 . S
C474 C475 1.399 . S
C475 H461 0.929 . S
C475 C474 1.399 . S
C475 C476 1.385 . S
C476 H462 0.931 . S
C476 C475 1.385 . S
C476 C477 1.389 . S
C477 C476 1.389 . S
C477 C478 1.387 . S
C478 H463 0.930 . S
C478 C473 1.390 . S
C478 C477 1.387 . S
H479 C491 0.930 . S
H480 C493 0.930 . S
H481 C494 0.930 . S
H482 C498 0.959 . S
H483 C498 0.959 . S
H484 C498 0.961 . S
H485 C499 0.960 . S
H486 C499 0.961 . S
H487 C499 0.959 . S
H488 C502 0.929 . S
H489 C503 0.931 . S
H490 C505 0.930 . S
C491 H479 0.930 . S
C491 C492 1.399 . S
C491 C496 1.399 1_655 S
C492 C491 1.399 . S
C492 C493 1.376 . S
C493 H480 0.930 . S
C493 C492 1.376 . S
C493 C494 1.388 1_655 S
C494 H481 0.930 . S
C494 C493 1.388 1_455 S
C494 C495 1.390 . S
C495 C494 1.390 . S
C495 C496 1.394 . S
C495 C501 1.465 . S
C496 C491 1.399 1_455 S
C496 C495 1.394 . S
C496 C497 1.516 . S
C497 C496 1.516 . S
C497 C498 1.502 . S
C497 C499 1.561 . S
C497 C500 1.526 . S
C498 H482 0.959 . S
C498 H483 0.959 . S
C498 H484 0.961 . S
C498 C497 1.502 . S
C499 H485 0.960 . S
C499 H486 0.961 . S
C499 H487 0.959 . S
C499 C497 1.561 . S
C500 C497 1.526 . S
C500 C501 1.396 . S
C500 C505 1.390 . S
C501 C495 1.465 . S
C501 C500 1.396 . S
C501 C502 1.399 . S
C502 H488 0.929 . S
C502 C501 1.399 . S
C502 C503 1.385 . S
C503 H489 0.931 . S
C503 C502 1.385 . S
C503 C504 1.389 . S
C504 C503 1.389 . S
C504 C505 1.387 . S
C505 H490 0.930 . S
C505 C500 1.390 . S
C505 C504 1.387 . S
H506 C518 0.930 . S
H507 C520 0.930 . S
H508 C521 0.930 . S
H509 C525 0.959 . S
H510 C525 0.959 . S
H511 C525 0.961 . S
H512 C526 0.960 . S
H513 C526 0.961 . S
H514 C526 0.959 . S
H515 C529 0.929 . S
H516 C530 0.931 . S
H517 C532 0.930 . S
C518 H506 0.930 . S
C518 C519 1.399 . S
C518 C523 1.399 . S
C519 C518 1.399 . S
C519 C520 1.376 . S
C520 H507 0.930 . S
C520 C519 1.376 . S
C520 C521 1.388 . S
C521 H508 0.930 . S
C521 C520 1.388 . S
C521 C522 1.390 . S
C522 C521 1.390 . S
C522 C523 1.394 . S
C522 C528 1.465 . S
C523 C518 1.399 . S
C523 C522 1.394 . S
C523 C524 1.516 . S
C524 C523 1.516 . S
C524 C525 1.502 . S
C524 C526 1.561 . S
C524 C527 1.526 . S
C525 H509 0.959 . S
C525 H510 0.959 . S
C525 H511 0.961 . S
C525 C524 1.502 . S
C526 H512 0.960 . S
C526 H513 0.961 . S
C526 H514 0.959 . S
C526 C524 1.561 . S
C527 C524 1.526 . S
C527 C528 1.396 . S
C527 C532 1.390 . S
C528 C522 1.465 . S
C528 C527 1.396 . S
C528 C529 1.399 . S
C529 H515 0.929 . S
C529 C528 1.399 . S
C529 C530 1.385 . S
C530 H516 0.931 . S
C530 C529 1.385 . S
C530 C531 1.389 . S
C531 C530 1.389 . S
C531 C532 1.387 . S
C532 H517 0.930 . S
C532 C527 1.390 . S
C532 C531 1.387 . S
H533 C545 0.930 . S
H534 C547 0.930 . S
H535 C548 0.930 . S
H536 C552 0.959 . S
H537 C552 0.959 . S
H538 C552 0.961 . S
H539 C553 0.960 . S
H540 C553 0.961 . S
H541 C553 0.959 . S
H542 C556 0.929 . S
H543 C557 0.931 . S
H544 C559 0.930 . S
C545 H533 0.930 . S
C545 C546 1.399 . S
C545 C550 1.399 . S
C546 C545 1.399 . S
C546 C547 1.376 . S
C547 H534 0.930 . S
C547 C546 1.376 . S
C547 C548 1.388 . S
C548 H535 0.930 . S
C548 C547 1.388 . S
C548 C549 1.390 . S
C549 C548 1.390 . S
C549 C550 1.394 . S
C549 C555 1.465 . S
C550 C545 1.399 . S
C550 C549 1.394 . S
C550 C551 1.516 . S
C551 C550 1.516 . S
C551 C552 1.502 . S
C551 C553 1.561 . S
C551 C554 1.526 . S
C552 H536 0.959 . S
C552 H537 0.959 . S
C552 H538 0.961 . S
C552 C551 1.502 . S
C553 H539 0.960 . S
C553 H540 0.961 . S
C553 H541 0.959 . S
C553 C551 1.561 . S
C554 C551 1.526 . S
C554 C555 1.396 . S
C554 C559 1.390 . S
C555 C549 1.465 . S
C555 C554 1.396 . S
C555 C556 1.399 . S
C556 H542 0.929 . S
C556 C555 1.399 . S
C556 C557 1.385 . S
C557 H543 0.931 . S
C557 C556 1.385 . S
C557 C558 1.389 . S
C558 C557 1.389 . S
C558 C559 1.387 . S
C559 H544 0.930 . S
C559 C554 1.390 . S
C559 C558 1.387 . S
H560 C572 0.930 . S
H561 C574 0.930 . S
H562 C575 0.930 . S
H563 C579 0.959 . S
H564 C579 0.959 1_565 S
H565 C579 0.961 . S
H566 C580 0.960 . S
H567 C580 0.961 1_565 S
H568 C580 0.959 . S
H569 C583 0.929 . S
H570 C584 0.931 . S
H571 C586 0.930 . S
C572 H560 0.930 . S
C572 C573 1.399 . S
C572 C577 1.399 . S
C573 C572 1.399 . S
C573 C574 1.376 . S
C574 H561 0.930 . S
C574 C573 1.376 . S
C574 C575 1.388 . S
C575 H562 0.930 . S
C575 C574 1.388 . S
C575 C576 1.390 . S
C576 C575 1.390 . S
C576 C577 1.394 . S
C576 C582 1.465 . S
C577 C572 1.399 . S
C577 C576 1.394 . S
C577 C578 1.516 . S
C578 C577 1.516 . S
C578 C579 1.502 . S
C578 C580 1.561 . S
C578 C581 1.526 . S
C579 H563 0.959 . S
C579 H564 0.959 1_545 S
C579 H565 0.961 . S
C579 C578 1.502 . S
C580 H566 0.960 . S
C580 H567 0.961 1_545 S
C580 H568 0.959 . S
C580 C578 1.561 . S
C581 C578 1.526 . S
C581 C582 1.396 . S
C581 C586 1.390 1_545 S
C582 C576 1.465 . S
C582 C581 1.396 . S
C582 C583 1.399 . S
C583 H569 0.929 . S
C583 C582 1.399 . S
C583 C584 1.385 . S
C584 H570 0.931 . S
C584 C583 1.385 . S
C584 C585 1.389 . S
C585 C584 1.389 . S
C585 C586 1.387 1_545 S
C586 H571 0.930 . S
C586 C581 1.390 1_565 S
C586 C585 1.387 1_565 S
H587 C599 0.930 . S
H588 C601 0.930 . S
H589 C602 0.930 . S
H590 C606 0.959 . S
H591 C606 0.959 . S
H592 C606 0.961 . S
H593 C607 0.960 . S
H594 C607 0.961 . S
H595 C607 0.959 . S
H596 C610 0.929 . S
H597 C611 0.931 . S
H598 C613 0.930 . S
C599 H587 0.930 . S
C599 C600 1.399 . S
C599 C604 1.399 . S
C600 C599 1.399 . S
C600 C601 1.376 . S
C601 H588 0.930 . S
C601 C600 1.376 . S
C601 C602 1.388 . S
C602 H589 0.930 . S
C602 C601 1.388 . S
C602 C603 1.390 . S
C603 C602 1.390 . S
C603 C604 1.394 . S
C603 C609 1.465 . S
C604 C599 1.399 . S
C604 C603 1.394 . S
C604 C605 1.516 . S
C605 C604 1.516 . S
C605 C606 1.502 . S
C605 C607 1.561 . S
C605 C608 1.526 . S
C606 H590 0.959 . S
C606 H591 0.959 . S
C606 H592 0.961 . S
C606 C605 1.502 . S
C607 H593 0.960 . S
C607 H594 0.961 . S
C607 H595 0.959 . S
C607 C605 1.561 . S
C608 C605 1.526 . S
C608 C609 1.396 . S
C608 C613 1.390 . S
C609 C603 1.465 . S
C609 C608 1.396 . S
C609 C610 1.399 . S
C610 H596 0.929 . S
C610 C609 1.399 . S
C610 C611 1.385 . S
C611 H597 0.931 . S
C611 C610 1.385 . S
C611 C612 1.389 . S
C612 C611 1.389 . S
C612 C613 1.387 . S
C613 H598 0.930 . S
C613 C608 1.390 . S
C613 C612 1.387 . S
H614 C626 0.930 . S
H615 C628 0.930 . S
H616 C629 0.930 . S
H617 C633 0.959 . S
H618 C633 0.959 . S
H619 C633 0.961 1_565 S
H620 C634 0.960 . S
H621 C634 0.961 . S
H622 C634 0.959 . S
H623 C637 0.929 . S
H624 C638 0.931 . S
H625 C640 0.930 . S
C626 H614 0.930 . S
C626 C627 1.399 1_554 S
C626 C631 1.399 1_554 S
C627 C626 1.399 1_556 S
C627 C628 1.376 . S
C628 H615 0.930 . S
C628 C627 1.376 . S
C628 C629 1.388 . S
C629 H616 0.930 . S
C629 C628 1.388 . S
C629 C630 1.390 . S
C630 C629 1.390 . S
C630 C631 1.394 . S
C630 C636 1.465 . S
C631 C626 1.399 1_556 S
C631 C630 1.394 . S
C631 C632 1.516 1_556 S
C632 C631 1.516 1_554 S
C632 C633 1.502 1_565 S
C632 C634 1.561 . S
C632 C635 1.526 1_564 S
C633 H617 0.959 . S
C633 H618 0.959 . S
C633 H619 0.961 1_545 S
C633 C632 1.502 1_545 S
C634 H620 0.960 . S
C634 H621 0.961 . S
C634 H622 0.959 . S
C634 C632 1.561 . S
C635 C632 1.526 1_546 S
C635 C636 1.396 1_545 S
C635 C640 1.390 . S
C636 C630 1.465 . S
C636 C635 1.396 1_565 S
C636 C637 1.399 . S
C637 H623 0.929 . S
C637 C636 1.399 . S
C637 C638 1.385 1_565 S
C638 H624 0.931 . S
C638 C637 1.385 1_545 S
C638 C639 1.389 . S
C639 C638 1.389 . S
C639 C640 1.387 . S
C640 H625 0.930 . S
C640 C635 1.390 . S
C640 C639 1.387 . S
H641 C653 0.930 . S
H642 C655 0.930 . S
H643 C656 0.930 . S
H644 C660 0.959 . S
H645 C660 0.959 . S
H646 C660 0.961 . S
H647 C661 0.960 . S
H648 C661 0.961 . S
H649 C661 0.959 . S
H650 C664 0.929 . S
H651 C665 0.931 . S
H652 C667 0.930 . S
C653 H641 0.930 . S
C653 C654 1.399 . S
C653 C658 1.399 . S
C654 C653 1.399 . S
C654 C655 1.376 . S
C655 H642 0.930 . S
C655 C654 1.376 . S
C655 C656 1.388 . S
C656 H643 0.930 . S
C656 C655 1.388 . S
C656 C657 1.390 . S
C657 C656 1.390 . S
C657 C658 1.394 . S
C657 C663 1.465 . S
C658 C653 1.399 . S
C658 C657 1.394 . S
C658 C659 1.516 . S
C659 C658 1.516 . S
C659 C660 1.502 . S
C659 C661 1.561 . S
C659 C662 1.526 . S
C660 H644 0.959 . S
C660 H645 0.959 . S
C660 H646 0.961 . S
C660 C659 1.502 . S
C661 H647 0.960 . S
C661 H648 0.961 . S
C661 H649 0.959 . S
C661 C659 1.561 . S
C662 C659 1.526 . S
C662 C663 1.396 . S
C662 C667 1.390 . S
C663 C657 1.465 . S
C663 C662 1.396 . S
C663 C664 1.399 . S
C664 H650 0.929 . S
C664 C663 1.399 . S
C664 C665 1.385 . S
C665 H651 0.931 . S
C665 C664 1.385 . S
C665 C666 1.389 . S
C666 C665 1.389 . S
C666 C667 1.387 . S
C667 H652 0.930 . S
C667 C662 1.390 . S
C667 C666 1.387 . S
H668 C680 0.930 . S
H669 C682 0.930 . S
H670 C683 0.930 . S
H671 C687 0.959 . S
H672 C687 0.959 . S
H673 C687 0.961 . S
H674 C688 0.960 . S
H675 C688 0.961 . S
H676 C688 0.959 . S
H677 C691 0.929 . S
H678 C692 0.931 . S
H679 C694 0.930 . S
C680 H668 0.930 . S
C680 C681 1.399 . S
C680 C685 1.399 . S
C681 C680 1.399 . S
C681 C682 1.376 . S
C682 H669 0.930 . S
C682 C681 1.376 . S
C682 C683 1.388 . S
C683 H670 0.930 . S
C683 C682 1.388 . S
C683 C684 1.390 . S
C684 C683 1.390 . S
C684 C685 1.394 . S
C684 C690 1.465 . S
C685 C680 1.399 . S
C685 C684 1.394 . S
C685 C686 1.516 . S
C686 C685 1.516 . S
C686 C687 1.502 . S
C686 C688 1.561 . S
C686 C689 1.526 . S
C687 H671 0.959 . S
C687 H672 0.959 . S
C687 H673 0.961 . S
C687 C686 1.502 . S
C688 H674 0.960 . S
C688 H675 0.961 . S
C688 H676 0.959 . S
C688 C686 1.561 . S
C689 C686 1.526 . S
C689 C690 1.396 . S
C689 C694 1.390 . S
C690 C684 1.465 . S
C690 C689 1.396 . S
C690 C691 1.399 . S
C691 H677 0.929 . S
C691 C690 1.399 . S
C691 C692 1.385 . S
C692 H678 0.931 . S
C692 C691 1.385 . S
C692 C693 1.389 . S
C693 C692 1.389 . S
C693 C694 1.387 . S
C694 H679 0.930 . S
C694 C689 1.390 . S
C694 C693 1.387 . S
H695 C707 0.930 . S
H696 C709 0.930 . S
H697 C710 0.930 . S
H698 C714 0.959 . S
H699 C714 0.959 . S
H700 C714 0.961 . S
H701 C715 0.960 . S
H702 C715 0.961 . S
H703 C715 0.959 . S
H704 C718 0.929 . S
H705 C719 0.931 . S
H706 C721 0.930 . S
C707 H695 0.930 . S
C707 C708 1.399 . S
C707 C712 1.399 1_455 S
C708 C707 1.399 . S
C708 C709 1.376 . S
C709 H696 0.930 . S
C709 C708 1.376 . S
C709 C710 1.388 1_455 S
C710 H697 0.930 . S
C710 C709 1.388 1_655 S
C710 C711 1.390 . S
C711 C710 1.390 . S
C711 C712 1.394 . S
C711 C717 1.465 . S
C712 C707 1.399 1_655 S
C712 C711 1.394 . S
C712 C713 1.516 . S
C713 C712 1.516 . S
C713 C714 1.502 . S
C713 C715 1.561 . S
C713 C716 1.526 . S
C714 H698 0.959 . S
C714 H699 0.959 . S
C714 H700 0.961 . S
C714 C713 1.502 . S
C715 H701 0.960 . S
C715 H702 0.961 . S
C715 H703 0.959 . S
C715 C713 1.561 . S
C716 C713 1.526 . S
C716 C717 1.396 . S
C716 C721 1.390 . S
C717 C711 1.465 . S
C717 C716 1.396 . S
C717 C718 1.399 . S
C718 H704 0.929 . S
C718 C717 1.399 . S
C718 C719 1.385 . S
C719 H705 0.931 . S
C719 C718 1.385 . S
C719 C720 1.389 . S
C720 C719 1.389 . S
C720 C721 1.387 . S
C721 H706 0.930 . S
C721 C716 1.390 . S
C721 C720 1.387 . S
H722 C734 0.930 . S
H723 C736 0.930 . S
H724 C737 0.930 . S
H725 C741 0.959 . S
H726 C741 0.959 . S
H727 C741 0.961 . S
H728 C742 0.960 . S
H729 C742 0.961 . S
H730 C742 0.959 . S
H731 C745 0.929 . S
H732 C746 0.931 . S
H733 C748 0.930 . S
C734 H722 0.930 . S
C734 C735 1.399 . S
C734 C739 1.399 . S
C735 C734 1.399 . S
C735 C736 1.376 . S
C736 H723 0.930 . S
C736 C735 1.376 . S
C736 C737 1.388 . S
C737 H724 0.930 . S
C737 C736 1.388 . S
C737 C738 1.390 . S
C738 C737 1.390 . S
C738 C739 1.394 . S
C738 C744 1.465 . S
C739 C734 1.399 . S
C739 C738 1.394 . S
C739 C740 1.516 . S
C740 C739 1.516 . S
C740 C741 1.502 . S
C740 C742 1.561 . S
C740 C743 1.526 . S
C741 H725 0.959 . S
C741 H726 0.959 . S
C741 H727 0.961 . S
C741 C740 1.502 . S
C742 H728 0.960 . S
C742 H729 0.961 . S
C742 H730 0.959 . S
C742 C740 1.561 . S
C743 C740 1.526 . S
C743 C744 1.396 . S
C743 C748 1.390 . S
C744 C738 1.465 . S
C744 C743 1.396 . S
C744 C745 1.399 . S
C745 H731 0.929 . S
C745 C744 1.399 . S
C745 C746 1.385 . S
C746 H732 0.931 . S
C746 C745 1.385 . S
C746 C747 1.389 . S
C747 C746 1.389 . S
C747 C748 1.387 . S
C748 H733 0.930 . S
C748 C743 1.390 . S
C748 C747 1.387 . S
H749 C761 0.930 . S
H750 C763 0.930 . S
H751 C764 0.930 . S
H752 C768 0.959 . S
H753 C768 0.959 1_455 S
H754 C768 0.961 1_455 S
H755 C769 0.960 . S
H756 C769 0.961 . S
H757 C769 0.959 . S
H758 C772 0.929 . S
H759 C773 0.931 . S
H760 C775 0.930 . S
C761 H749 0.930 . S
C761 C762 1.399 . S
C761 C766 1.399 . S
C762 C761 1.399 . S
C762 C763 1.376 . S
C763 H750 0.930 . S
C763 C762 1.376 . S
C763 C764 1.388 . S
C764 H751 0.930 . S
C764 C763 1.388 . S
C764 C765 1.390 . S
C765 C764 1.390 . S
C765 C766 1.394 . S
C765 C771 1.465 . S
C766 C761 1.399 . S
C766 C765 1.394 . S
C766 C767 1.516 . S
C767 C766 1.516 . S
C767 C768 1.502 . S
C767 C769 1.561 . S
C767 C770 1.526 . S
C768 H752 0.959 . S
C768 H753 0.959 1_655 S
C768 H754 0.961 1_655 S
C768 C767 1.502 . S
C769 H755 0.960 . S
C769 H756 0.961 . S
C769 H757 0.959 . S
C769 C767 1.561 . S
C770 C767 1.526 . S
C770 C771 1.396 . S
C770 C775 1.390 . S
C771 C765 1.465 . S
C771 C770 1.396 . S
C771 C772 1.399 . S
C772 H758 0.929 . S
C772 C771 1.399 . S
C772 C773 1.385 . S
C773 H759 0.931 . S
C773 C772 1.385 . S
C773 C774 1.389 . S
C774 C773 1.389 . S
C774 C775 1.387 . S
C775 H760 0.930 . S
C775 C770 1.390 . S
C775 C774 1.387 . S
H776 C788 0.930 . S
H777 C790 0.930 . S
H778 C791 0.930 . S
H779 C795 0.959 . S
H780 C795 0.959 . S
H781 C795 0.961 . S
H782 C796 0.960 . S
H783 C796 0.961 . S
H784 C796 0.959 . S
H785 C799 0.929 . S
H786 C800 0.931 . S
H787 C802 0.930 . S
C788 H776 0.930 . S
C788 C789 1.399 . S
C788 C793 1.399 . S
C789 C788 1.399 . S
C789 C790 1.376 . S
C790 H777 0.930 . S
C790 C789 1.376 . S
C790 C791 1.388 . S
C791 H778 0.930 . S
C791 C790 1.388 . S
C791 C792 1.390 . S
C792 C791 1.390 . S
C792 C793 1.394 . S
C792 C798 1.465 . S
C793 C788 1.399 . S
C793 C792 1.394 . S
C793 C794 1.516 . S
C794 C793 1.516 . S
C794 C795 1.502 . S
C794 C796 1.561 . S
C794 C797 1.526 . S
C795 H779 0.959 . S
C795 H780 0.959 . S
C795 H781 0.961 . S
C795 C794 1.502 . S
C796 H782 0.960 . S
C796 H783 0.961 . S
C796 H784 0.959 . S
C796 C794 1.561 . S
C797 C794 1.526 . S
C797 C798 1.396 . S
C797 C802 1.390 . S
C798 C792 1.465 . S
C798 C797 1.396 . S
C798 C799 1.399 . S
C799 H785 0.929 . S
C799 C798 1.399 . S
C799 C800 1.385 . S
C800 H786 0.931 . S
C800 C799 1.385 . S
C800 C801 1.389 . S
C801 C800 1.389 . S
C801 C802 1.387 . S
C802 H787 0.930 . S
C802 C797 1.390 . S
C802 C801 1.387 . S
H803 C815 0.930 . S
H804 C817 0.930 . S
H805 C818 0.930 . S
H806 C822 0.959 . S
H807 C822 0.959 . S
H808 C822 0.961 . S
H809 C823 0.960 . S
H810 C823 0.961 . S
H811 C823 0.959 . S
H812 C826 0.929 . S
H813 C827 0.931 . S
H814 C829 0.930 . S
C815 H803 0.930 . S
C815 C816 1.399 . S
C815 C820 1.399 . S
C816 C815 1.399 . S
C816 C817 1.376 . S
C817 H804 0.930 . S
C817 C816 1.376 . S
C817 C818 1.388 . S
C818 H805 0.930 . S
C818 C817 1.388 . S
C818 C819 1.390 . S
C819 C818 1.390 . S
C819 C820 1.394 . S
C819 C825 1.465 . S
C820 C815 1.399 . S
C820 C819 1.394 . S
C820 C821 1.516 . S
C821 C820 1.516 . S
C821 C822 1.502 . S
C821 C823 1.561 . S
C821 C824 1.526 . S
C822 H806 0.959 . S
C822 H807 0.959 . S
C822 H808 0.961 . S
C822 C821 1.502 . S
C823 H809 0.960 . S
C823 H810 0.961 . S
C823 H811 0.959 . S
C823 C821 1.561 . S
C824 C821 1.526 . S
C824 C825 1.396 . S
C824 C829 1.390 . S
C825 C819 1.465 . S
C825 C824 1.396 . S
C825 C826 1.399 . S
C826 H812 0.929 . S
C826 C825 1.399 . S
C826 C827 1.385 . S
C827 H813 0.931 . S
C827 C826 1.385 . S
C827 C828 1.389 . S
C828 C827 1.389 . S
C828 C829 1.387 . S
C829 H814 0.930 . S
C829 C824 1.390 . S
C829 C828 1.387 . S
H830 C842 0.930 . S
H831 C844 0.930 . S
H832 C845 0.930 . S
H833 C849 0.959 . S
H834 C849 0.959 . S
H835 C849 0.961 . S
H836 C850 0.960 . S
H837 C850 0.961 . S
H838 C850 0.959 . S
H839 C853 0.929 . S
H840 C854 0.931 . S
H841 C856 0.930 . S
C842 H830 0.930 . S
C842 C843 1.399 . S
C842 C847 1.399 . S
C843 C842 1.399 . S
C843 C844 1.376 . S
C844 H831 0.930 . S
C844 C843 1.376 . S
C844 C845 1.388 . S
C845 H832 0.930 . S
C845 C844 1.388 . S
C845 C846 1.390 . S
C846 C845 1.390 . S
C846 C847 1.394 . S
C846 C852 1.465 . S
C847 C842 1.399 . S
C847 C846 1.394 . S
C847 C848 1.516 . S
C848 C847 1.516 . S
C848 C849 1.502 . S
C848 C850 1.561 . S
C848 C851 1.526 . S
C849 H833 0.959 . S
C849 H834 0.959 . S
C849 H835 0.961 . S
C849 C848 1.502 . S
C850 H836 0.960 . S
C850 H837 0.961 . S
C850 H838 0.959 . S
C850 C848 1.561 . S
C851 C848 1.526 . S
C851 C852 1.396 . S
C851 C856 1.390 . S
C852 C846 1.465 . S
C852 C851 1.396 . S
C852 C853 1.399 . S
C853 H839 0.929 . S
C853 C852 1.399 . S
C853 C854 1.385 . S
C854 H840 0.931 . S
C854 C853 1.385 . S
C854 C855 1.389 . S
C855 C854 1.389 . S
C855 C856 1.387 . S
C856 H841 0.930 . S
C856 C851 1.390 . S
C856 C855 1.387 . S
H857 C869 0.930 . S
H858 C871 0.930 . S
H859 C872 0.930 . S
H860 C876 0.959 . S
H861 C876 0.959 . S
H862 C876 0.961 . S
H863 C877 0.960 . S
H864 C877 0.961 . S
H865 C877 0.959 . S
H866 C880 0.929 . S
H867 C881 0.931 . S
H868 C883 0.930 . S
C869 H857 0.930 . S
C869 C870 1.399 . S
C869 C874 1.399 . S
C870 C869 1.399 . S
C870 C871 1.376 . S
C871 H858 0.930 . S
C871 C870 1.376 . S
C871 C872 1.388 . S
C872 H859 0.930 . S
C872 C871 1.388 . S
C872 C873 1.390 . S
C873 C872 1.390 . S
C873 C874 1.394 . S
C873 C879 1.465 . S
C874 C869 1.399 . S
C874 C873 1.394 . S
C874 C875 1.516 . S
C875 C874 1.516 . S
C875 C876 1.502 . S
C875 C877 1.561 . S
C875 C878 1.526 . S
C876 H860 0.959 . S
C876 H861 0.959 . S
C876 H862 0.961 . S
C876 C875 1.502 . S
C877 H863 0.960 . S
C877 H864 0.961 . S
C877 H865 0.959 . S
C877 C875 1.561 . S
C878 C875 1.526 . S
C878 C879 1.396 . S
C878 C883 1.390 . S
C879 C873 1.465 . S
C879 C878 1.396 . S
C879 C880 1.399 . S
C880 H866 0.929 . S
C880 C879 1.399 . S
C880 C881 1.385 . S
C881 H867 0.931 . S
C881 C880 1.385 . S
C881 C882 1.389 . S
C882 C881 1.389 . S
C882 C883 1.387 . S
C883 H868 0.930 . S
C883 C878 1.390 . S
C883 C882 1.387 . S
H884 C896 0.930 . S
H885 C898 0.930 . S
H886 C899 0.930 . S
H887 C903 0.959 . S
H888 C903 0.959 . S
H889 C903 0.961 . S
H890 C904 0.960 . S
H891 C904 0.961 . S
H892 C904 0.959 . S
H893 C907 0.929 . S
H894 C908 0.931 . S
H895 C910 0.930 . S
C896 H884 0.930 . S
C896 C897 1.399 . S
C896 C901 1.399 . S
C897 C896 1.399 . S
C897 C898 1.376 . S
C898 H885 0.930 . S
C898 C897 1.376 . S
C898 C899 1.388 . S
C899 H886 0.930 . S
C899 C898 1.388 . S
C899 C900 1.390 . S
C900 C899 1.390 . S
C900 C901 1.394 . S
C900 C906 1.465 . S
C901 C896 1.399 . S
C901 C900 1.394 . S
C901 C902 1.516 . S
C902 C901 1.516 . S
C902 C903 1.502 . S
C902 C904 1.561 . S
C902 C905 1.526 . S
C903 H887 0.959 . S
C903 H888 0.959 . S
C903 H889 0.961 . S
C903 C902 1.502 . S
C904 H890 0.960 . S
C904 H891 0.961 . S
C904 H892 0.959 . S
C904 C902 1.561 . S
C905 C902 1.526 . S
C905 C906 1.396 . S
C905 C910 1.390 . S
C906 C900 1.465 . S
C906 C905 1.396 . S
C906 C907 1.399 . S
C907 H893 0.929 . S
C907 C906 1.399 . S
C907 C908 1.385 . S
C908 H894 0.931 . S
C908 C907 1.385 . S
C908 C909 1.389 . S
C909 C908 1.389 . S
C909 C910 1.387 . S
C910 H895 0.930 . S
C910 C905 1.390 . S
C910 C909 1.387 . S
H911 C923 0.930 . S
H912 C925 0.930 . S
H913 C926 0.930 . S
H914 C930 0.959 . S
H915 C930 0.959 . S
H916 C930 0.961 . S
H917 C931 0.960 . S
H918 C931 0.961 . S
H919 C931 0.959 . S
H920 C934 0.929 . S
H921 C935 0.931 . S
H922 C937 0.930 . S
C923 H911 0.930 . S
C923 C924 1.399 . S
C923 C928 1.399 . S
C924 C923 1.399 . S
C924 C925 1.376 . S
C925 H912 0.930 . S
C925 C924 1.376 . S
C925 C926 1.388 . S
C926 H913 0.930 . S
C926 C925 1.388 . S
C926 C927 1.390 . S
C927 C926 1.390 . S
C927 C928 1.394 . S
C927 C933 1.465 . S
C928 C923 1.399 . S
C928 C927 1.394 . S
C928 C929 1.516 . S
C929 C928 1.516 . S
C929 C930 1.502 . S
C929 C931 1.561 . S
C929 C932 1.526 . S
C930 H914 0.959 . S
C930 H915 0.959 . S
C930 H916 0.961 . S
C930 C929 1.502 . S
C931 H917 0.960 . S
C931 H918 0.961 . S
C931 H919 0.959 . S
C931 C929 1.561 . S
C932 C929 1.526 . S
C932 C933 1.396 . S
C932 C937 1.390 . S
C933 C927 1.465 . S
C933 C932 1.396 . S
C933 C934 1.399 . S
C934 H920 0.929 . S
C934 C933 1.399 . S
C934 C935 1.385 . S
C935 H921 0.931 . S
C935 C934 1.385 . S
C935 C936 1.389 . S
C936 C935 1.389 . S
C936 C937 1.387 . S
C937 H922 0.930 . S
C937 C932 1.390 . S
C937 C936 1.387 . S
H938 C950 0.930 . S
H939 C952 0.930 . S
H940 C953 0.930 . S
H941 C957 0.959 . S
H942 C957 0.959 . S
H943 C957 0.961 . S
H944 C958 0.960 . S
H945 C958 0.961 . S
H946 C958 0.959 . S
H947 C961 0.929 . S
H948 C962 0.931 . S
H949 C964 0.930 . S
C950 H938 0.930 . S
C950 C951 1.399 . S
C950 C955 1.399 . S
C951 C950 1.399 . S
C951 C952 1.376 . S
C952 H939 0.930 . S
C952 C951 1.376 . S
C952 C953 1.388 . S
C953 H940 0.930 . S
C953 C952 1.388 . S
C953 C954 1.390 . S
C954 C953 1.390 . S
C954 C955 1.394 . S
C954 C960 1.465 . S
C955 C950 1.399 . S
C955 C954 1.394 . S
C955 C956 1.516 . S
C956 C955 1.516 . S
C956 C957 1.502 . S
C956 C958 1.561 . S
C956 C959 1.526 . S
C957 H941 0.959 . S
C957 H942 0.959 . S
C957 H943 0.961 . S
C957 C956 1.502 . S
C958 H944 0.960 . S
C958 H945 0.961 . S
C958 H946 0.959 . S
C958 C956 1.561 . S
C959 C956 1.526 . S
C959 C960 1.396 . S
C959 C964 1.390 . S
C960 C954 1.465 . S
C960 C959 1.396 . S
C960 C961 1.399 . S
C961 H947 0.929 . S
C961 C960 1.399 . S
C961 C962 1.385 . S
C962 H948 0.931 . S
C962 C961 1.385 . S
C962 C963 1.389 . S
C963 C962 1.389 . S
C963 C964 1.387 . S
C964 H949 0.930 . S
C964 C959 1.390 . S
C964 C963 1.387 . S
H965 C977 0.930 . S
H966 C979 0.930 . S
H967 C980 0.930 1_554 S
H968 C984 0.959 . S
H969 C984 0.959 . S
H970 C984 0.961 . S
H971 C985 0.960 . S
H972 C985 0.961 . S
H973 C985 0.959 . S
H974 C988 0.929 . S
H975 C989 0.931 . S
H976 C991 0.930 . S
C977 H965 0.930 . S
C977 C978 1.399 . S
C977 C982 1.399 . S
C978 C977 1.399 . S
C978 C979 1.376 1_556 S
C979 H966 0.930 . S
C979 C978 1.376 1_554 S
C979 C980 1.388 1_554 S
C980 H967 0.930 1_556 S
C980 C979 1.388 1_556 S
C980 C981 1.390 . S
C981 C980 1.390 . S
C981 C982 1.394 . S
C981 C987 1.465 . S
C982 C977 1.399 . S
C982 C981 1.394 . S
C982 C983 1.516 . S
C983 C982 1.516 . S
C983 C984 1.502 . S
C983 C985 1.561 . S
C983 C986 1.526 . S
C984 H968 0.959 . S
C984 H969 0.959 . S
C984 H970 0.961 . S
C984 C983 1.502 . S
C985 H971 0.960 . S
C985 H972 0.961 . S
C985 H973 0.959 . S
C985 C983 1.561 . S
C986 C983 1.526 . S
C986 C987 1.396 . S
C986 C991 1.390 . S
C987 C981 1.465 . S
C987 C986 1.396 . S
C987 C988 1.399 . S
C988 H974 0.929 . S
C988 C987 1.399 . S
C988 C989 1.385 . S
C989 H975 0.931 . S
C989 C988 1.385 . S
C989 C990 1.389 . S
C990 C989 1.389 . S
C990 C991 1.387 . S
C991 H976 0.930 . S
C991 C986 1.390 . S
C991 C990 1.387 . S
C357 C8 1.498 . S
C369 C105 1.495 1_565 S
C384 C31 1.332 . S
C396 C137 1.307 . S
C411 C53 1.647 . S
C423 C169 1.458 . S
C450 C213 1.414 . S
C438 C74 1.368 . S
C477 C233 1.468 . S
C465 C26 1.469 . S
C492 C48 1.422 . S
C504 C277 1.446 . S
C519 C71 1.633 . S
C531 C297 1.464 . S
C546 C5 1.408 . S
C558 C341 1.295 . S
C573 C50 1.519 . S
C585 C329 1.439 1_545 S
C612 C245 1.379 . S
C600 C70 1.422 . S
C639 C265 1.635 . S
C627 C4 1.667 1_556 S
C654 C28 1.374 . S
C666 C309 1.381 . S
C693 C149 1.508 . S
C681 C73 1.508 . S
C708 C7 1.409 . S
C720 C181 1.266 . S
C747 C201 1.597 . S
C735 C30 1.641 . S
C774 C117 1.382 . S
C762 C52 1.409 . S
C801 C303 1.359 . S
C789 C9 1.477 . S
C828 C335 1.312 . S
C816 C29 1.322 . S
C843 C51 1.357 . S
C855 C239 1.384 . S
C882 C271 1.507 . S
C870 C75 1.518 . S
C909 C175 1.374 . S
C897 C27 1.499 . S
C924 C49 1.491 . S
C936 C207 1.480 . S
C963 C111 1.381 . S
C951 C72 1.343 . S
C990 C143 1.370 . S
C978 C6 1.341 1_556 S
