# Generated by pormake.
# Topology anh, (6,3)-cn, num edge types: 1
# Building blocks:
#     Node 0, Type 0, BuildingBlock: NUHQIS_clean_sbu_0, # of connection points: 6
#     Node 1, Type 0, BuildingBlock: NUHQIS_clean_sbu_0, # of connection points: 6
#     Node 2, Type 0, BuildingBlock: NUHQIS_clean_sbu_0, # of connection points: 6
#     Node 3, Type 1, BuildingBlock: VETTIZ_charged_linker_0, # of connection points: 3
#     Node 4, Type 1, BuildingBlock: VETTIZ_charged_linker_0, # of connection points: 3
#     Node 5, Type 1, BuildingBlock: VETTIZ_charged_linker_0, # of connection points: 3
#     Node 6, Type 1, BuildingBlock: VETTIZ_charged_linker_0, # of connection points: 3
#     Node 7, Type 1, BuildingBlock: VETTIZ_charged_linker_0, # of connection points: 3
#     Node 8, Type 1, BuildingBlock: VETTIZ_charged_linker_0, # of connection points: 3
#     Edge 9, Type (0, 1), BuildingBlock: ZUJKAS_clean_linker_0, # of connection points: 2
#     Edge 10, Type (0, 1), BuildingBlock: ZUJKAS_clean_linker_0, # of connection points: 2
#     Edge 11, Type (0, 1), BuildingBlock: ZUJKAS_clean_linker_0, # of connection points: 2
#     Edge 12, Type (0, 1), BuildingBlock: ZUJKAS_clean_linker_0, # of connection points: 2
#     Edge 13, Type (0, 1), BuildingBlock: ZUJKAS_clean_linker_0, # of connection points: 2
#     Edge 14, Type (0, 1), BuildingBlock: ZUJKAS_clean_linker_0, # of connection points: 2
#     Edge 15, Type (0, 1), BuildingBlock: ZUJKAS_clean_linker_0, # of connection points: 2
#     Edge 16, Type (0, 1), BuildingBlock: ZUJKAS_clean_linker_0, # of connection points: 2
#     Edge 17, Type (0, 1), BuildingBlock: ZUJKAS_clean_linker_0, # of connection points: 2
#     Edge 18, Type (0, 1), BuildingBlock: ZUJKAS_clean_linker_0, # of connection points: 2
#     Edge 19, Type (0, 1), BuildingBlock: ZUJKAS_clean_linker_0, # of connection points: 2
#     Edge 20, Type (0, 1), BuildingBlock: ZUJKAS_clean_linker_0, # of connection points: 2
#     Edge 21, Type (0, 1), BuildingBlock: ZUJKAS_clean_linker_0, # of connection points: 2
#     Edge 22, Type (0, 1), BuildingBlock: ZUJKAS_clean_linker_0, # of connection points: 2
#     Edge 23, Type (0, 1), BuildingBlock: ZUJKAS_clean_linker_0, # of connection points: 2
#     Edge 24, Type (0, 1), BuildingBlock: ZUJKAS_clean_linker_0, # of connection points: 2
#     Edge 25, Type (0, 1), BuildingBlock: ZUJKAS_clean_linker_0, # of connection points: 2
#     Edge 26, Type (0, 1), BuildingBlock: ZUJKAS_clean_linker_0, # of connection points: 2
# Relax obj value: 0.206
# Max RMSD: 0.186
# Mean RMSD: 0.152
data_MOF--net-anh--node1-NUHQIS_clean_sbu_0--node2-VETTIZ_charged_linker_0--edge1-ZUJKAS_clean_linker_0
_symmetry_space_group_name_H-M    P1
_symmetry_Int_Tables_number       1
_symmetry_cell_setting            triclinic
loop_
_symmetry_equiv_pos_as_xyz
'x, y, z'
_cell_length_a     45.407395
_cell_length_b     45.578257
_cell_length_c     82.322211
_cell_angle_alpha  90.384168
_cell_angle_beta   92.471084
_cell_angle_gamma 120.39732
loop_
_atom_site_label
_atom_site_type_symbol
_atom_site_fract_x
_atom_site_fract_y
_atom_site_fract_z
_atom_type_partial_charge
Tb0 Tb 0.10964 0.55349 0.1688 0.0
Eu1 Eu 0.06935 0.59412 0.16267 0.0
C2 C 0.08336 0.57617 0.19766 0.0
C3 C 1.02787 0.51068 0.16598 0.0
C4 C 0.18048 0.53635 0.17607 0.0
C5 C 0.22993 0.53849 0.18971 0.0
C6 C 0.19489 0.52646 0.1887 0.0
C7 C 0.2015 0.55848 0.1644 0.0
C8 C 0.23657 0.57028 0.1653 0.0
C9 C 0.25122 0.56049 0.17801 0.0
C10 C 0.14418 0.5258 0.17621 0.0
O11 O 0.11803 0.56614 0.14321 0.0
O12 O 0.07659 0.57988 0.13758 0.0
O13 O 0.12473 0.636 0.16006 0.0
O14 O 0.14973 0.60829 0.17245 0.0
C15 C 0.0996 0.57286 0.1328 0.0
O16 O 1.0341 0.60354 0.14785 0.0
O17 O 1.05177 0.62753 0.17177 0.0
O18 O 0.08686 0.60146 0.18899 0.0
O19 O 0.08284 0.55013 0.19061 0.0
O20 O 1.05655 0.51109 0.16313 0.0
O21 O 1.02842 0.53962 0.16842 0.0
C22 C 0.15205 0.63646 0.16662 0.0
O23 O 0.13737 0.5431 0.18647 0.0
O24 O 0.12761 0.5209 0.16217 0.0
C25 C 0.99267 0.60007 0.16471 0.0
C26 C 0.92388 0.55007 0.16855 0.0
C27 C 0.93268 0.5736 0.15604 0.0
C28 C 0.96684 0.5983 0.15409 0.0
C29 C 0.98363 0.57846 0.178 0.0
C30 C 0.94956 0.55381 0.17994 0.0
C31 C 1.02836 0.61815 0.15998 0.0
H32 H 0.24039 0.53091 0.19982 0.0
H33 H 0.17909 0.50991 0.19798 0.0
H34 H 0.19089 0.56687 0.15469 0.0
H35 H 0.25209 0.5868 0.15596 0.0
H36 H 0.91334 0.57193 0.14729 0.0
H37 H 0.97326 0.61447 0.14369 0.0
H38 H 1.0031 0.57888 0.18625 0.0
H39 H 0.94379 0.53612 0.18966 0.0
Tb40 Tb 0.64511 0.09877 0.50222 0.0
Eu41 Eu 0.56359 0.05517 0.49772 0.0
C42 C 0.60032 0.07324 0.53198 0.0
C43 C 0.60842 1.01646 0.50079 0.0
C44 C 0.72414 0.17397 0.5135 0.0
C45 C 0.76928 0.2327 0.51177 0.0
C46 C 0.75745 0.19793 0.50964 0.0
C47 C 0.70362 0.18501 0.52052 0.0
C48 C 0.71515 0.21961 0.52241 0.0
C49 C 0.74762 0.2439 0.51745 0.0
C50 C 0.70818 0.13857 0.50747 0.0
O51 O 0.63401 0.08119 0.47666 0.0
O52 O 0.58219 0.07761 0.47349 0.0
O53 O 0.5748 0.10943 0.50378 0.0
O54 O 0.63107 0.13834 0.49766 0.0
C55 C 0.60942 0.08027 0.46721 0.0
O56 O 0.51672 1.01851 0.48411 0.0
O57 O 0.51398 1.0402 0.50715 0.0
O58 O 0.57866 0.04729 0.52272 0.0
O59 O 0.62389 0.10056 0.52529 0.0
O60 O 0.63572 0.04618 0.50529 0.0
O61 O 0.57976 1.01503 0.49553 0.0
C62 C 0.60298 0.1385 0.50118 0.0
O63 O 0.68923 0.1155 0.51762 0.0
O64 O 0.69264 0.13309 0.49314 0.0
C65 C 0.47719 0.98191 0.50217 0.0
C66 C 0.43961 0.91489 0.51277 0.0
C67 C 0.42292 0.93016 0.50479 0.0
C68 C 0.44165 0.96348 0.49949 0.0
C69 C 0.49383 0.96711 0.51048 0.0
C70 C 0.47522 0.93383 0.51569 0.0
C71 C 0.49752 1.01615 0.49598 0.0
H72 H 0.79474 0.25078 0.50816 0.0
H73 H 0.77356 0.18986 0.50414 0.0
H74 H 0.67768 0.16689 0.52349 0.0
H75 H 0.69758 0.22712 0.52663 0.0
H76 H 0.39553 0.91596 0.50216 0.0
H77 H 0.42851 0.97459 0.49307 0.0
H78 H 0.52134 0.98115 0.51271 0.0
H79 H 0.48869 0.92281 0.52189 0.0
Tb80 Tb 0.63901 0.61976 0.83446 0.0
Eu81 Eu 0.59799 0.5386 0.82901 0.0
C82 C 0.61729 0.57165 0.86382 0.0
C83 C 0.68232 0.58119 0.83334 0.0
C84 C 0.64817 0.70007 0.84559 0.0
C85 C 0.63873 0.74761 0.84307 0.0
C86 C 0.66035 0.73419 0.84214 0.0
C87 C 0.61538 0.68046 0.85142 0.0
C88 C 0.59351 0.69346 0.85192 0.0
C89 C 0.60422 0.72665 0.84686 0.0
C90 C 0.66583 0.6827 0.84005 0.0
O91 O 0.64423 0.61021 0.80888 0.0
O92 O 0.59411 0.55996 0.80514 0.0
O93 O 0.55662 0.55113 0.83526 0.0
O94 O 0.58527 0.60795 0.83016 0.0
C95 C 0.61952 0.58699 0.79915 0.0
O96 O 0.58956 0.49233 0.81644 0.0
O97 O 0.55614 0.48929 0.83527 0.0
O98 O 0.61923 0.54931 0.85467 0.0
O99 O 0.61614 0.59715 0.85722 0.0
O100 O 0.68088 0.60823 0.83818 0.0
O101 O 0.65433 0.55347 0.82757 0.0
C102 C 0.55653 0.57983 0.83328 0.0
O103 O 0.66815 0.66223 0.85032 0.0
O104 O 0.65503 0.66832 0.8256 0.0
C105 C 0.56873 0.44521 0.83353 0.0
C106 C 0.57028 0.39008 0.84778 0.0
C107 C 0.56714 0.3915 0.83077 0.0
C108 C 0.56626 0.4188 0.82372 0.0
C109 C 0.57328 0.44459 0.85052 0.0
C110 C 0.57378 0.41707 0.85759 0.0
C111 C 0.56544 0.47254 0.82591 0.0
H112 H 0.64852 0.77378 0.8398 0.0
H113 H 0.6857 0.74976 0.83773 0.0
H114 H 0.60557 0.65406 0.85429 0.0
H115 H 0.56741 0.67625 0.85495 0.0
H116 H 0.56382 0.37076 0.82291 0.0
H117 H 0.56282 0.41887 0.81061 0.0
H118 H 0.57566 0.46494 0.85836 0.0
H119 H 0.57629 0.41657 0.87072 0.0
C120 C 0.67872 0.16244 0.18669 0.0
C121 C 0.70713 0.19175 0.19482 0.0
C122 C 0.70884 0.19276 0.21191 0.0
C123 C 0.6562 0.13782 0.21284 0.0
C124 C 0.6532 0.13573 0.19604 0.0
C125 C 0.62003 0.10279 0.19032 0.0
H126 H 0.47753 0.95282 0.21528 0.0
C127 C 0.62674 0.10711 0.21947 0.0
C128 C 0.60467 0.08572 0.20643 0.0
H129 H 0.4963 0.98127 0.16534 0.0
H130 H 0.54926 1.03428 0.17427 0.0
H131 H 0.55274 0.97409 0.22659 0.0
H132 H 0.49328 1.02294 0.22803 0.0
H133 H 0.51835 1.03586 0.24629 0.0
H134 H 0.4884 0.99119 0.24214 0.0
H135 H 0.51958 0.96283 0.2405 0.0
H136 H 0.56326 0.9954 0.24562 0.0
C137 C 0.62898 0.08047 0.17997 0.0
C138 C 0.59628 0.11229 0.18083 0.0
C139 C 0.62316 0.09743 0.28133 0.0
C140 C 0.59963 0.0729 0.2916 0.0
C141 C 0.57084 1.04376 0.28442 0.0
C142 C 0.56538 1.03921 0.26747 0.0
C143 C 0.58882 0.06408 0.25733 0.0
C144 C 0.61712 0.09254 0.26432 0.0
C145 C 0.639 0.11642 0.25167 0.0
C146 C 0.61919 0.09762 0.2359 0.0
C147 C 0.58992 0.06701 0.23933 0.0
C148 C 0.67447 0.1191 0.25336 0.0
C149 C 0.63969 0.15059 0.25417 0.0
C150 C 0.49287 0.96989 0.20605 0.0
C151 C 0.48227 0.96181 0.18953 0.0
C152 C 0.50335 0.98622 0.17821 0.0
C153 C 0.53418 1.01704 0.18338 0.0
C154 C 0.54422 1.02429 0.20013 0.0
C155 C 0.52295 1.00048 0.21095 0.0
C156 C 0.53514 1.01124 0.22826 0.0
C157 C 0.56746 0.04517 0.22646 0.0
C158 C 0.57391 0.05377 0.20994 0.0
C159 C 0.54292 0.98456 0.23579 0.0
C160 C 0.50746 1.01536 0.23676 0.0
H161 H 0.68791 0.16968 0.23374 0.0
H162 H 0.6762 0.1607 0.17354 0.0
H163 H 0.59199 0.13014 0.18825 0.0
H164 H 0.57101 0.08967 0.17769 0.0
H165 H 0.60773 0.12487 0.16938 0.0
H166 H 0.64748 0.07543 0.18686 0.0
H167 H 0.64071 0.09334 0.16862 0.0
H168 H 0.60602 0.05562 0.17658 0.0
H169 H 0.64544 0.12027 0.28639 0.0
H170 H 0.55256 1.02416 0.29195 0.0
H171 H 0.54296 1.01634 0.26298 0.0
H172 H 0.67198 0.09462 0.25722 0.0
H173 H 0.69163 0.13902 0.2626 0.0
H174 H 0.68732 0.12418 0.24176 0.0
H175 H 0.61585 0.14656 0.25951 0.0
H176 H 0.64072 0.16324 0.24262 0.0
H177 H 0.6615 0.16844 0.26252 0.0
H178 H 0.72987 0.21433 0.21855 0.0
C179 C 0.68412 0.16644 0.2208 0.0
C180 C 0.61009 0.6672 0.51857 0.0
C181 C 0.61219 0.69635 0.52674 0.0
C182 C 0.61405 0.69716 0.54381 0.0
C183 C 0.61191 0.64259 0.54471 0.0
C184 C 0.61023 0.64049 0.52791 0.0
C185 C 0.60934 0.60748 0.52231 0.0
H186 H 0.60485 0.4585 0.54886 0.0
C187 C 0.61146 0.61202 0.55141 0.0
C188 C 0.60993 0.59046 0.53848 0.0
H189 H 0.60871 0.4853 0.49852 0.0
H190 H 0.60866 0.5376 0.50673 0.0
H191 H 0.66162 0.52955 0.56154 0.0
H192 H 0.55213 0.47844 0.55875 0.0
H193 H 0.56473 0.50081 0.57754 0.0
H194 H 0.57576 0.46865 0.57356 0.0
H195 H 0.63598 0.49698 0.57522 0.0
H196 H 0.65091 0.5413 0.57965 0.0
C197 C 0.64128 0.61695 0.51287 0.0
C198 C 0.57627 0.58481 0.51193 0.0
C199 C 0.61514 0.60409 0.61327 0.0
C200 C 0.61371 0.57917 0.62377 0.0
C201 C 0.61089 0.5494 0.61687 0.0
C202 C 0.60963 0.54456 0.59995 0.0
C203 C 0.61116 0.5697 0.58957 0.0
C204 C 0.61364 0.5987 0.59633 0.0
C205 C 0.61409 0.62225 0.58351 0.0
C206 C 0.61194 0.60287 0.56789 0.0
C207 C 0.61042 0.57226 0.57152 0.0
C208 C 0.64875 0.65621 0.5858 0.0
C209 C 0.58179 0.62536 0.58519 0.0
C210 C 0.60641 0.47537 0.53932 0.0
C211 C 0.60753 0.46692 0.52296 0.0
C212 C 0.60795 0.49029 0.51132 0.0
C213 C 0.60814 0.52091 0.51606 0.0
C214 C 0.6079 0.5289 0.5327 0.0
C215 C 0.60701 0.50564 0.54379 0.0
C216 C 0.60748 0.51659 0.56095 0.0
C217 C 0.60899 0.55026 0.55881 0.0
C218 C 0.60896 0.55854 0.5422 0.0
C219 C 0.64045 0.52118 0.56995 0.0
C220 C 0.5735 0.48979 0.56823 0.0
H221 H 0.61536 0.6743 0.56558 0.0
H222 H 0.6089 0.66556 0.50542 0.0
H223 H 0.55357 0.57931 0.5188 0.0
H224 H 0.57406 0.56022 0.5085 0.0
H225 H 0.57563 0.59764 0.50059 0.0
H226 H 0.66484 0.6345 0.52037 0.0
H227 H 0.64105 0.62984 0.50149 0.0
H228 H 0.64274 0.59416 0.50959 0.0
H229 H 0.61685 0.62709 0.6181 0.0
H230 H 0.61011 0.5299 0.6246 0.0
H231 H 0.60764 0.52133 0.59565 0.0
H232 H 0.6694 0.6518 0.59065 0.0
H233 H 0.64706 0.67398 0.59449 0.0
H234 H 0.65819 0.66911 0.57424 0.0
H235 H 0.56052 0.60197 0.59022 0.0
H236 H 0.57095 0.62795 0.57336 0.0
H237 H 0.58724 0.64708 0.59346 0.0
H238 H 0.61564 0.71852 0.55051 0.0
C239 C 0.61384 0.671 0.55265 0.0
C240 C 0.20809 0.58077 0.85414 0.0
C241 C 0.23586 0.57935 0.86248 0.0
C242 C 0.23564 0.57786 0.87952 0.0
C243 C 0.18253 0.57911 0.88001 0.0
C244 C 0.18136 0.58035 0.86323 0.0
C245 C 0.14861 0.5804 0.85725 0.0
H246 H 1.00305 0.58312 0.88147 0.0
C247 C 0.15215 0.57898 0.88638 0.0
C248 C 0.13135 0.57969 0.87318 0.0
H249 H 1.02627 0.5802 0.83152 0.0
H250 H 0.07852 0.57929 0.84061 0.0
H251 H 1.01726 0.52687 0.89212 0.0
H252 H 0.07651 0.63574 0.89486 0.0
H253 H 0.08586 0.62276 0.91339 0.0
H254 H 1.04237 0.61144 0.90797 0.0
H255 H 1.01107 0.55153 0.90719 0.0
H256 H 1.04063 0.53646 0.91081 0.0
C257 C 0.1259 0.54825 0.84653 0.0
C258 C 0.15848 0.61304 0.84802 0.0
C259 C 0.14227 0.57812 0.94819 0.0
C260 C 0.11792 0.57841 0.95821 0.0
C261 C 0.08933 0.57819 0.95066 0.0
C262 C 0.08531 0.57838 0.93371 0.0
C263 C 0.10995 0.57853 0.92386 0.0
C264 C 0.13771 0.57819 0.93113 0.0
C265 C 0.16106 0.57812 0.91868 0.0
C266 C 0.14278 0.57859 0.90273 0.0
C267 C 0.11295 0.57891 0.9059 0.0
C268 C 0.16182 0.54456 0.92028 0.0
C269 C 0.19628 0.61119 0.9216 0.0
C270 C 1.0192 0.58269 0.87228 0.0
C271 C 1.01006 0.58235 0.85574 0.0
C272 C 1.03217 0.58062 0.84443 0.0
C273 C 1.06259 0.58016 0.84969 0.0
C274 C 0.07116 0.58079 0.86649 0.0
C275 C 1.0488 0.58165 0.87724 0.0
C276 C 1.05925 0.58074 0.89455 0.0
C277 C 0.09182 0.57977 0.8929 0.0
C278 C 0.10002 0.57996 0.87644 0.0
C279 C 1.03065 0.54742 0.90168 0.0
C280 C 1.06618 0.61416 0.90329 0.0
H281 H 0.21213 0.57677 0.90109 0.0
H282 H 0.20696 0.58162 0.84101 0.0
H283 H 0.17601 0.63587 0.85581 0.0
H284 H 0.13569 0.61482 0.84442 0.0
H285 H 0.17166 0.61372 0.83684 0.0
H286 H 0.12061 0.52508 0.8532 0.0
H287 H 0.13873 0.5487 0.83526 0.0
H288 H 0.10105 0.54597 0.843 0.0
H289 H 0.16466 0.57839 0.95347 0.0
H290 H 0.06963 0.57756 0.95787 0.0
H291 H 1.06298 0.57845 0.929 0.0
H292 H 0.13743 0.52377 0.92476 0.0
H293 H 0.18279 0.54791 0.92896 0.0
H294 H 0.16427 0.53445 0.90848 0.0
H295 H 0.19317 0.63259 0.92594 0.0
H296 H 0.21038 0.62043 0.9104 0.0
H297 H 0.21257 0.60771 0.93093 0.0
H298 H 0.25602 0.57678 0.88633 0.0
C299 C 0.20975 0.57785 0.88816 0.0
C300 C 0.94609 0.5703 0.46922 0.0
C301 C 0.91382 0.55154 0.46111 0.0
C302 C 0.91138 0.5503 0.44397 0.0
C303 C 0.97334 0.58 0.44355 0.0
C304 C 0.97531 0.58311 0.46034 0.0
C305 C 1.01067 0.59557 0.46758 0.0
H306 H 0.17425 0.6389 0.45826 0.0
C307 C 1.0081 0.59074 0.43834 0.0
C308 C 1.0298 0.59939 0.45243 0.0
H309 H 0.12492 0.63337 0.50283 0.0
H310 H 0.07208 0.61672 0.4876 0.0
H311 H 0.10897 0.56927 0.4402 0.0
H312 H 0.14482 0.67642 0.43917 0.0
H313 H 0.12703 0.65997 0.41957 0.0
H314 H 0.16351 0.65749 0.42732 0.0
H315 H 0.14809 0.59976 0.4315 0.0
H316 H 0.10794 0.58005 0.41978 0.0
C317 C 1.0097 0.56761 0.47868 0.0
C318 C 1.02311 0.63035 0.47639 0.0
C319 C 1.03026 0.58868 0.37835 0.0
C320 C 1.06 0.59699 0.37018 0.0
C321 C 0.09093 0.60793 0.37937 0.0
C322 C 0.09232 0.61055 0.39634 0.0
C323 C 1.06247 0.60209 0.40433 0.0
C324 C 1.03213 0.59158 0.39538 0.0
C325 C 1.00303 0.58359 0.40607 0.0
C326 C 1.02123 0.59198 0.42284 0.0
C327 C 1.05592 0.60227 0.4217 0.0
C328 C 0.97609 0.54522 0.40371 0.0
C329 C 0.9892 0.60758 0.40187 0.0
C330 C 0.15177 0.63319 0.46473 0.0
C331 C 0.15356 0.63707 0.48177 0.0
C332 C 0.12408 0.63051 0.48972 0.0
C333 C 0.09345 0.62091 0.48083 0.0
C334 C 0.09213 0.61764 0.46379 0.0
C335 C 0.12091 0.62365 0.45601 0.0
C336 C 0.11494 0.62008 0.43779 0.0
C337 C 0.0776 0.61033 0.43599 0.0
C338 C 1.06452 0.60893 0.45124 0.0
C339 C 0.12041 0.59095 0.43186 0.0
C340 C 0.13886 0.65511 0.43046 0.0
H341 H 0.93785 0.56181 0.4221 0.0
H342 H 0.94861 0.5714 0.4824 0.0
H343 H 1.0145 0.6457 0.46938 0.0
H344 H 1.05126 0.64635 0.47756 0.0
H345 H 1.01274 0.62685 0.48865 0.0
H346 H 0.98861 0.5418 0.47464 0.0
H347 H 1.00576 0.57189 0.4915 0.0
H348 H 1.03293 0.56563 0.47828 0.0
H349 H 1.00615 0.58036 0.37164 0.0
H350 H 0.11407 0.61397 0.37341 0.0
H351 H 0.1166 0.61888 0.40259 0.0
H352 H 0.98837 0.53012 0.40082 0.0
H353 H 0.9572 0.54073 0.39356 0.0
H354 H 0.9624 0.534 0.41483 0.0
H355 H 1.01069 0.63405 0.40057 0.0
H356 H 0.9737 0.60915 0.41142 0.0
H357 H 0.97356 0.59938 0.3902 0.0
H358 H 0.88667 0.5358 0.43749 0.0
C359 C 0.94111 0.56479 0.43511 0.0
C360 C 0.40416 0.8762 0.78189 0.0
C361 C 0.40995 0.85281 0.7736 0.0
C362 C 0.41604 0.85662 0.75691 0.0
C363 C 0.41768 0.91067 0.75802 0.0
C364 C 0.40874 0.90511 0.77402 0.0
C365 C 0.41044 0.93543 0.78223 0.0
H366 H 0.46795 0.10293 0.78358 0.0
C367 C 0.42682 0.94603 0.75448 0.0
C368 C 0.4225 0.96047 0.76864 0.0
H369 H 0.42428 1.03174 0.82221 0.0
H370 H 0.40996 0.98525 0.80352 0.0
H371 H 0.50948 0.07011 0.76916 0.0
H372 H 0.4106 0.0564 0.75539 0.0
H373 H 0.42838 0.05329 0.73737 0.0
H374 H 0.44931 0.0927 0.74934 0.0
H375 H 0.50336 0.10302 0.76074 0.0
H376 H 0.50624 0.07272 0.74789 0.0
C377 C 0.43721 0.94725 0.79689 0.0
C378 C 0.37382 0.92535 0.78679 0.0
C379 C 0.47801 0.99721 0.70088 0.0
C380 C 0.49096 1.02992 0.69462 0.0
C381 C 0.48932 0.05506 0.70398 0.0
C382 C 0.47574 0.04799 0.71939 0.0
C383 C 0.46386 1.0155 0.72563 0.0
C384 C 0.46447 0.99056 0.71628 0.0
C385 C 0.45043 0.9574 0.72484 0.0
C386 C 0.44093 0.96647 0.7408 0.0
C387 C 0.44949 1.00075 0.74131 0.0
C388 C 0.47955 0.94924 0.72728 0.0
C389 C 0.41856 0.92998 0.71477 0.0
C390 C 0.4554 0.07731 0.78803 0.0
C391 C 0.44778 0.07116 0.80451 0.0
C392 C 0.43039 1.03732 0.80962 0.0
C393 C 0.42235 1.01029 0.79875 0.0
C394 C 0.43234 1.01708 0.78264 0.0
C395 C 0.4477 0.05001 0.77737 0.0
C396 C 0.45673 0.05227 0.75984 0.0
C397 C 0.4454 1.01537 0.75572 0.0
C398 C 0.43143 0.99509 0.76918 0.0
C399 C 0.49595 0.07587 0.75922 0.0
C400 C 0.43545 0.06452 0.74989 0.0
H401 H 0.42601 0.88794 0.73648 0.0
H402 H 0.39967 0.87383 0.79477 0.0
H403 H 0.35451 0.908 0.77727 0.0
H404 H 0.36997 0.94739 0.78761 0.0
H405 H 0.36743 0.91191 0.79846 0.0
H406 H 0.45683 0.93998 0.79495 0.0
H407 H 0.42486 0.93568 0.80834 0.0
H408 H 0.45233 0.97517 0.79875 0.0
H409 H 0.47909 0.97734 0.69413 0.0
H410 H 0.49843 0.08024 0.69934 0.0
H411 H 0.47539 0.06823 0.72593 0.0
H412 H 0.50467 0.97293 0.72973 0.0
H413 H 0.48156 0.93629 0.71626 0.0
H414 H 0.47663 0.93353 0.73789 0.0
H415 H 0.40332 0.94091 0.70955 0.0
H416 H 0.40075 0.90875 0.72217 0.0
H417 H 0.42604 0.9196 0.70451 0.0
H418 H 0.4207 0.83882 0.75033 0.0
C419 C 0.4197 0.88543 0.74901 0.0
C420 C 0.59808 0.40653 0.1294 0.0
C421 C 0.60872 0.38763 0.1203 0.0
C422 C 0.60291 0.38506 0.10322 0.0
C423 C 0.5816 0.42418 0.10459 0.0
C424 C 0.58472 0.42449 0.12136 0.0
C425 C 0.57499 0.44792 0.12931 0.0
H426 H 0.52663 0.56521 0.12198 0.0
C427 C 0.57093 0.4489 0.10007 0.0
C428 C 0.5667 0.46259 0.11453 0.0
H429 H 0.54016 0.52123 0.166 0.0
H430 H 0.5568 0.48745 0.15034 0.0
H431 H 0.59512 0.57311 0.10453 0.0
H432 H 0.48754 0.4995 0.10199 0.0
H433 H 0.5013 0.50066 0.0823 0.0
H434 H 0.50463 0.53852 0.09133 0.0
H435 H 0.56339 0.58106 0.0953 0.0
H436 H 0.58236 0.56154 0.08393 0.0
C437 C 0.60653 0.47553 0.13957 0.0
C438 C 0.54304 0.42609 0.13916 0.0
C439 C 0.5697 0.48068 0.041 0.0
C440 C 0.5628 0.50433 0.03341 0.0
C441 C 0.55163 0.52238 0.04287 0.0
C442 C 0.54865 0.51799 0.05964 0.0
C443 C 0.55686 0.49527 0.06712 0.0
C444 C 0.56646 0.4765 0.0578 0.0
C445 C 0.57348 0.45305 0.0679 0.0
C446 C 0.5672 0.46146 0.08483 0.0
C447 C 0.55787 0.48649 0.08426 0.0
C448 C 0.6113 0.46327 0.06618 0.0
C449 C 0.54729 0.41585 0.06234 0.0
C450 C 0.53405 0.54897 0.12828 0.0
C451 C 0.53241 0.54605 0.14524 0.0
C452 C 0.54125 0.52384 0.15294 0.0
C453 C 0.5507 0.50415 0.14381 0.0
C454 C 0.55117 0.50656 0.12679 0.0
C455 C 0.5432 0.52891 0.11934 0.0
C456 C 0.54391 0.52734 0.10113 0.0
C457 C 0.5531 0.49993 0.09886 0.0
C458 C 0.55754 0.48805 0.1139 0.0
C459 C 0.57245 0.56254 0.09579 0.0
C460 C 0.50764 0.51618 0.09368 0.0
H461 H 0.58671 0.4012 0.0823 0.0
H462 H 0.60238 0.40954 0.1425 0.0
H463 H 0.52674 0.40025 0.13341 0.0
H464 H 0.52598 0.43676 0.1396 0.0
H465 H 0.55043 0.42283 0.15176 0.0
H466 H 0.63046 0.48344 0.13323 0.0
H467 H 0.60908 0.46584 0.15158 0.0
H468 H 0.60597 0.4992 0.14155 0.0
H469 H 0.57839 0.46641 0.03413 0.0
H470 H 0.54524 0.54005 0.03731 0.0
H471 H 0.54037 0.53276 0.06613 0.0
H472 H 0.62808 0.49144 0.06689 0.0
H473 H 0.61472 0.45404 0.05428 0.0
H474 H 0.62132 0.45374 0.07593 0.0
H475 H 0.52256 0.41327 0.05791 0.0
H476 H 0.54059 0.39793 0.07239 0.0
H477 H 0.55688 0.40718 0.05227 0.0
H478 H 0.61021 0.37018 0.0959 0.0
C479 C 0.58939 0.40321 0.09533 0.0
H480 H 0.28188 0.52416 0.18674 0.0
H481 H 0.34227 0.54223 0.18674 0.0
H482 H 0.36533 0.641 0.17047 0.0
H483 H 0.30469 0.62353 0.17096 0.0
H484 H 0.38828 0.60597 0.15087 0.0
H485 H 0.42796 0.60863 0.21551 0.0
H486 H 0.38778 0.57118 0.20989 0.0
H487 H 0.39139 0.61233 0.20912 0.0
C488 C 0.29978 0.55008 0.18362 0.0
C489 C 0.28835 0.57238 0.17886 0.0
C490 C 0.33436 0.56039 0.18367 0.0
C491 C 0.35828 0.59314 0.17892 0.0
C492 C 0.34723 0.61575 0.17437 0.0
H493 H 0.54683 0.61205 0.1436 0.0
H494 H 0.51317 0.63542 0.15446 0.0
C495 C 0.31255 0.60555 0.17447 0.0
C496 C 0.39373 0.60147 0.17665 0.0
H497 H 0.45885 0.59617 0.19581 0.0
C498 C 0.40439 0.60496 0.16071 0.0
C499 C 0.41452 0.60022 0.18957 0.0
C500 C 0.40499 0.59823 0.20701 0.0
C501 C 0.43355 0.60357 0.15709 0.0
C502 C 0.45294 0.59951 0.1699 0.0
C503 C 0.44391 0.59917 0.18602 0.0
C504 C 0.47838 0.58943 0.1665 0.0
C505 C 0.4414 0.60327 0.13946 0.0
C506 C 0.47141 0.55679 0.17065 0.0
C507 C 0.49078 0.54364 0.16469 0.0
C508 C 0.51737 0.56286 0.1544 0.0
C509 C 0.52611 0.59656 0.15133 0.0
C510 C 0.5069 0.60988 0.15747 0.0
H511 H 0.42074 0.6014 0.131 0.0
H512 H 0.46533 0.62715 0.13702 0.0
H513 H 0.44517 0.58155 0.13669 0.0
H514 H 0.44952 0.54058 0.17762 0.0
H515 H 0.4833 0.51753 0.16717 0.0
H516 H 0.78106 0.28664 0.49319 0.0
H517 H 0.79151 0.34368 0.48925 0.0
H518 H 0.74263 0.3395 0.53368 0.0
H519 H 0.73356 0.28256 0.53821 0.0
H520 H 0.74553 0.36329 0.48446 0.0
H521 H 0.82695 0.42993 0.54045 0.0
H522 H 0.81635 0.3873 0.53479 0.0
H523 H 0.78455 0.39486 0.54288 0.0
C524 C 0.77332 0.29804 0.50241 0.0
C525 C 0.75677 0.28001 0.51611 0.0
C526 C 0.77876 0.33054 0.49999 0.0
C527 C 0.76757 0.34585 0.51108 0.0
C528 C 0.75162 0.32834 0.52497 0.0
H529 H 0.84743 0.53921 0.46102 0.0
H530 H 0.80026 0.49501 0.4762 0.0
C531 C 0.74629 0.29568 0.52749 0.0
C532 C 0.77338 0.38024 0.50767 0.0
H533 H 0.82768 0.46327 0.51908 0.0
C534 C 0.76294 0.3853 0.49214 0.0
C535 C 0.79492 0.40881 0.51799 0.0
C536 C 0.80654 0.4052 0.53494 0.0
C537 C 0.77808 0.41778 0.48561 0.0
C538 C 0.80329 0.44591 0.49518 0.0
C539 C 0.80884 0.44145 0.51169 0.0
C540 C 0.83103 0.47588 0.48745 0.0
C541 C 0.77005 0.421 0.46795 0.0
C542 C 0.86392 0.48034 0.48906 0.0
C543 C 0.89047 0.50546 0.48075 0.0
C544 C 0.88497 0.52688 0.47049 0.0
C545 C 0.85221 0.52297 0.4689 0.0
C546 C 0.82536 0.49776 0.47752 0.0
H547 H 0.75068 0.39617 0.46211 0.0
H548 H 0.76002 0.43866 0.46697 0.0
H549 H 0.79362 0.43157 0.46107 0.0
H550 H 0.86893 0.46347 0.49636 0.0
H551 H 0.91523 0.50731 0.48193 0.0
H552 H 0.60552 0.7692 0.82313 0.0
H553 H 0.5605 0.77979 0.81424 0.0
H554 H 0.4966 0.71469 0.85111 0.0
H555 H 0.54316 0.70686 0.86143 0.0
H556 H 0.50079 0.73425 0.80121 0.0
H557 H 0.48029 0.79197 0.85618 0.0
H558 H 0.51653 0.78613 0.85494 0.0
H559 H 0.47509 0.75056 0.8587 0.0
C560 C 0.58267 0.7582 0.82994 0.0
C561 C 0.57841 0.73709 0.84311 0.0
C562 C 0.5565 0.7638 0.82456 0.0
C563 C 0.52504 0.74793 0.83192 0.0
C564 C 0.52077 0.72759 0.84534 0.0
H565 H 0.38153 0.78328 0.77018 0.0
H566 H 0.39885 0.74795 0.78577 0.0
C567 C 0.5474 0.72273 0.85107 0.0
C568 C 0.49681 0.75204 0.82485 0.0
H569 H 0.44719 0.78647 0.83249 0.0
C570 C 0.48882 0.74545 0.80805 0.0
C571 C 0.48076 0.76599 0.83389 0.0
C572 C 0.4887 0.77434 0.8519 0.0
C573 C 0.468 0.75556 0.79974 0.0
C574 C 0.45336 0.7712 0.80865 0.0
C575 C 0.45858 0.7746 0.82569 0.0
C576 C 0.43868 0.7902 0.80049 0.0
C577 C 0.46438 0.75195 0.7814 0.0
C578 C 0.45411 0.82518 0.8041 0.0
C579 C 0.44368 0.84487 0.79562 0.0
C580 C 0.4178 0.83017 0.78319 0.0
C581 C 0.40164 0.79506 0.77971 0.0
C582 C 0.41166 0.77502 0.78852 0.0
H583 H 0.48232 0.74486 0.77635 0.0
H584 H 0.43799 0.73171 0.7776 0.0
H585 H 0.46918 0.77608 0.77593 0.0
H586 H 0.47518 0.83762 0.81314 0.0
H587 H 0.45685 0.87201 0.79839 0.0
H588 H 0.88298 0.51146 0.14256 0.0
H589 H 0.82516 0.46284 0.1425 0.0
H590 H 0.82849 0.46917 0.19491 0.0
H591 H 0.88608 0.51929 0.19505 0.0
H592 H 0.79588 0.39904 0.15647 0.0
H593 H 0.74631 0.47843 0.18213 0.0
H594 H 0.78898 0.49748 0.17506 0.0
H595 H 0.77896 0.47549 0.19386 0.0
C596 C 0.87132 0.50296 0.15409 0.0
C597 C 0.88885 0.51993 0.16878 0.0
C598 C 0.83845 0.47472 0.15405 0.0
C599 C 0.82238 0.46261 0.16869 0.0
C600 C 0.84025 0.47843 0.18347 0.0
H601 H 0.60417 0.3611 0.15074 0.0
H602 H 0.65176 0.3633 0.16689 0.0
C603 C 0.87319 0.50698 0.18351 0.0
C604 C 0.7859 0.43554 0.16794 0.0
H605 H 0.70703 0.42681 0.16942 0.0
C606 C 0.77633 0.40464 0.15971 0.0
C607 C 0.76029 0.44251 0.17246 0.0
C608 C 0.76892 0.47527 0.18131 0.0
C609 C 0.74226 0.38232 0.15431 0.0
C610 C 0.71737 0.39134 0.15716 0.0
C611 C 0.72623 0.42001 0.16716 0.0
C612 C 0.68525 0.37739 0.1469 0.0
C613 C 0.73365 0.35048 0.14469 0.0
C614 C 0.68761 0.38269 0.13012 0.0
C615 C 0.66082 0.38219 0.12094 0.0
C616 C 0.63111 0.37637 0.12839 0.0
C617 C 0.62708 0.3666 0.14472 0.0
C618 C 0.65412 0.36747 0.15396 0.0
H619 H 0.74981 0.34 0.14916 0.0
H620 H 0.7063 0.33065 0.14539 0.0
H621 H 0.73901 0.35676 0.13175 0.0
H622 H 0.71155 0.39103 0.12443 0.0
H623 H 0.66512 0.39003 0.10847 0.0
H624 H 0.37841 0.88178 0.52703 0.0
H625 H 0.34158 0.82046 0.52921 0.0
H626 H 0.41976 0.80464 0.51023 0.0
H627 H 0.45653 0.86611 0.50767 0.0
H628 H 0.36106 0.77395 0.49184 0.0
H629 H 0.3302 0.74073 0.55542 0.0
H630 H 0.32744 0.77762 0.55071 0.0
H631 H 0.36799 0.77948 0.55001 0.0
C632 C 0.38803 0.86527 0.52366 0.0
C633 C 0.42009 0.87863 0.51698 0.0
C634 C 0.36721 0.83025 0.52518 0.0
C635 C 0.37813 0.80798 0.5201 0.0
C636 C 0.41108 0.82143 0.51443 0.0
H637 H 0.20246 0.61897 0.4796 0.0
H638 H 0.26101 0.64976 0.4919 0.0
C639 C 0.43199 0.85652 0.51296 0.0
C640 C 0.35249 0.77149 0.51743 0.0
H641 H 0.28304 0.70783 0.53482 0.0
C642 C 0.34461 0.75877 0.5013 0.0
C643 C 0.33139 0.75169 0.52981 0.0
C644 C 0.33998 0.76302 0.54748 0.0
C645 C 0.31373 0.72905 0.49688 0.0
C646 C 0.29066 0.71121 0.50908 0.0
C647 C 0.30059 0.72172 0.52547 0.0
C648 C 0.25407 0.68725 0.50475 0.0
C649 C 0.30456 0.71933 0.47902 0.0
C650 C 0.23032 0.69682 0.50877 0.0
C651 C 0.19701 0.67913 0.50199 0.0
C652 C 0.18687 0.6516 0.491 0.0
C653 C 0.20991 0.64047 0.48786 0.0
C654 C 0.24325 0.65799 0.49486 0.0
H655 H 0.32386 0.73836 0.47109 0.0
H656 H 0.30279 0.69453 0.47653 0.0
H657 H 0.27938 0.71664 0.47557 0.0
H658 H 0.23813 0.7194 0.51632 0.0
H659 H 0.1799 0.68842 0.50455 0.0
H660 H 0.5291 0.35437 0.87206 0.0
H661 H 0.51032 0.29532 0.87845 0.0
H662 H 0.58189 0.29559 0.84554 0.0
H663 H 0.60115 0.35459 0.83942 0.0
H664 H 0.47941 0.2517 0.85323 0.0
H665 H 0.58075 0.23054 0.87878 0.0
H666 H 0.58308 0.27122 0.88071 0.0
H667 H 0.59704 0.26007 0.86271 0.0
C668 C 0.54194 0.34229 0.8668 0.0
C669 C 0.56616 0.35874 0.85504 0.0
C670 C 0.53119 0.30857 0.87047 0.0
C671 C 0.54474 0.29104 0.86253 0.0
C672 C 0.57149 0.30869 0.85208 0.0
H673 H 0.50857 0.13114 0.80567 0.0
H674 H 0.52804 0.17925 0.82471 0.0
C675 C 0.58217 0.3423 0.8484 0.0
C676 C 0.52587 0.25342 0.86164 0.0
H677 H 0.54021 0.1872 0.8583 0.0
C678 C 0.49218 0.23716 0.8549 0.0
C679 C 0.5425 0.23455 0.8639 0.0
C680 C 0.57774 0.25004 0.8721 0.0
C681 C 0.47629 0.2038 0.84846 0.0
C682 C 0.49438 0.18606 0.8492 0.0
C683 C 0.52657 0.20103 0.85758 0.0
C684 C 0.48319 0.1551 0.83894 0.0
C685 C 0.44177 0.18921 0.8395 0.0
C686 C 0.45159 0.12541 0.84071 0.0
C687 C 0.43986 0.0981 0.82951 0.0
C688 C 0.45982 0.09992 0.8165 0.0
C689 C 0.49207 0.12923 0.81523 0.0
C690 C 0.50354 0.15654 0.82629 0.0
H691 H 0.43359 0.20831 0.83809 0.0
H692 H 0.44221 0.17927 0.82721 0.0
H693 H 0.42227 0.16778 0.84634 0.0
H694 H 0.43571 0.12363 0.85054 0.0
H695 H 0.41491 0.0759 0.83086 0.0
H696 H 0.55631 0.94945 0.49427 0.0
H697 H 0.55729 0.89638 0.49707 0.0
H698 H 0.66375 0.95393 0.51291 0.0
H699 H 0.66273 1.00701 0.51041 0.0
H700 H 0.58869 0.86722 0.48343 0.0
H701 H 0.63264 0.88753 0.54826 0.0
H702 H 0.6195 0.91437 0.53819 0.0
H703 H 0.6619 0.92137 0.53608 0.0
C704 C 0.58007 0.95107 0.49838 0.0
C705 C 0.60942 0.98333 0.50213 0.0
C706 C 0.58061 0.92028 0.49999 0.0
C707 C 0.61041 0.92006 0.50557 0.0
C708 C 0.63991 0.95235 0.50905 0.0
H709 H 0.66552 0.76238 0.52748 0.0
H710 H 0.66454 0.81448 0.52149 0.0
C711 C 0.63938 0.98315 0.50745 0.0
C712 C 0.61064 0.88649 0.50755 0.0
H713 H 0.6325 0.84176 0.5343 0.0
C714 C 0.59817 0.8618 0.49464 0.0
C715 C 0.6228 0.87827 0.52207 0.0
C716 C 0.63464 0.90158 0.537 0.0
C717 C 0.59842 0.83061 0.49564 0.0
C718 C 0.61082 0.82252 0.51014 0.0
C719 C 0.62307 0.84715 0.52306 0.0
C720 C 0.61181 0.78934 0.51224 0.0
C721 C 0.58635 0.80713 0.48079 0.0
C722 C 0.58288 0.7565 0.50889 0.0
C723 C 0.58367 0.72618 0.5121 0.0
C724 C 0.6134 0.72725 0.51881 0.0
C725 C 0.64239 0.76002 0.52184 0.0
C726 C 0.64166 0.7902 0.51861 0.0
H727 H 0.58804 0.82102 0.4695 0.0
H728 H 0.60154 0.79441 0.47954 0.0
H729 H 0.55916 0.78728 0.48186 0.0
H730 H 0.55896 0.7541 0.50447 0.0
H731 H 0.5603 0.70185 0.51021 0.0
H732 H 0.69872 0.53441 0.82103 0.0
H733 H 0.75305 0.53479 0.82369 0.0
H734 H 0.79843 0.62913 0.85162 0.0
H735 H 0.74433 0.62904 0.84891 0.0
H736 H 0.8205 0.58155 0.81429 0.0
H737 H 0.8223 0.57136 0.88124 0.0
H738 H 0.78436 0.56292 0.86932 0.0
H739 H 0.81758 0.60601 0.87415 0.0
C740 C 0.72016 0.55536 0.82776 0.0
C741 C 0.71636 0.58166 0.83476 0.0
C742 C 0.75158 0.55557 0.82926 0.0
C743 C 0.78055 0.58173 0.83808 0.0
C744 C 0.77688 0.60814 0.84497 0.0
H745 H 0.98766 0.62282 0.86926 0.0
H746 H 0.93404 0.62231 0.86417 0.0
C747 C 0.7456 0.60817 0.84331 0.0
C748 C 0.81426 0.58147 0.84002 0.0
H749 H 0.87212 0.58151 0.86853 0.0
C750 C 0.83162 0.58141 0.82619 0.0
C751 C 0.82964 0.58139 0.85544 0.0
C752 C 0.81248 0.58012 0.87091 0.0
C753 C 0.86357 0.58232 0.82733 0.0
C754 C 0.87897 0.58208 0.84279 0.0
C755 C 0.86128 0.5818 0.85659 0.0
C756 C 0.9134 0.58303 0.84511 0.0
C757 C 0.88106 0.58499 0.81179 0.0
C758 C 0.92141 0.56144 0.83617 0.0
C759 C 0.95297 0.56213 0.83894 0.0
C760 C 0.97769 0.58386 0.85105 0.0
C761 C 0.96968 0.60546 0.85988 0.0
C762 C 0.93851 0.6051 0.85697 0.0
H763 H 0.87245 0.59608 0.80201 0.0
H764 H 0.90927 0.60095 0.81364 0.0
H765 H 0.87447 0.55915 0.80749 0.0
H766 H 0.90285 0.54316 0.82727 0.0
H767 H 0.9574 0.54458 0.83201 0.0
H768 H 0.16998 0.69941 0.15381 0.0
H769 H 0.22509 0.75289 0.15611 0.0
H770 H 0.26749 0.70419 0.18568 0.0
H771 H 0.21295 0.6505 0.18288 0.0
H772 H 0.26312 0.79658 0.17876 0.0
H773 H 0.34359 0.74749 0.15684 0.0
H774 H 0.29761 0.72203 0.1556 0.0
H775 H 0.32153 0.72522 0.17426 0.0
C776 C 0.19105 0.69983 0.1607 0.0
C777 C 0.18639 0.66986 0.168 0.0
C778 C 0.22292 0.73082 0.16207 0.0
C779 C 0.25171 0.73338 0.17079 0.0
C780 C 0.24681 0.70354 0.17835 0.0
H781 H 0.45958 0.89817 0.20211 0.0
H782 H 0.40509 0.84523 0.19694 0.0
C783 C 0.21506 0.67249 0.17686 0.0
C784 C 0.28612 0.76712 0.17231 0.0
H785 H 0.37327 0.80265 0.16986 0.0
C786 C 0.28704 0.79767 0.17662 0.0
C787 C 0.31816 0.76972 0.16956 0.0
C788 C 0.32022 0.73945 0.16364 0.0
C789 C 0.31815 0.82955 0.17868 0.0
C790 C 0.35013 0.83193 0.17626 0.0
C791 C 0.34926 0.80151 0.17184 0.0
C792 C 0.38458 0.86516 0.17882 0.0
C793 C 0.3165 0.86038 0.18398 0.0
C794 C 0.39279 0.89489 0.17017 0.0
C795 C 0.42461 0.92568 0.17305 0.0
C796 C 0.44944 0.92812 0.18482 0.0
C797 C 0.4414 0.89803 0.1931 0.0
C798 C 0.40992 0.86732 0.1901 0.0
H799 H 0.29158 0.85325 0.18911 0.0
H800 H 0.33731 0.87607 0.19325 0.0
H801 H 0.31969 0.87628 0.17331 0.0
H802 H 0.37452 0.89439 0.16112 0.0
H803 H 0.42931 0.9479 0.16637 0.0
H804 H 0.55415 0.15217 0.51282 0.0
H805 H 0.55582 0.20668 0.51538 0.0
H806 H 0.65365 0.25696 0.49385 0.0
H807 H 0.65281 0.20297 0.49212 0.0
H808 H 0.55405 0.25102 0.49805 0.0
H809 H 0.68172 0.32372 0.52909 0.0
H810 H 0.68435 0.30794 0.50954 0.0
H811 H 0.66156 0.27857 0.52521 0.0
C812 C 0.57622 0.17481 0.5087 0.0
C813 C 0.60341 0.1724 0.50233 0.0
C814 C 0.57717 0.20643 0.51014 0.0
C815 C 0.60527 0.23733 0.50524 0.0
C816 C 0.63201 0.23464 0.49844 0.0
H817 H 0.63513 0.43457 0.54146 0.0
H818 H 0.63246 0.38076 0.53664 0.0
C819 C 0.63132 0.20316 0.49723 0.0
C820 C 0.60623 0.27167 0.50705 0.0
H821 H 0.65779 0.35616 0.51911 0.0
C822 C 0.57687 0.27384 0.50275 0.0
C823 C 0.63543 0.30234 0.51339 0.0
C824 C 0.66738 0.30299 0.51973 0.0
C825 C 0.57592 0.30462 0.50444 0.0
C826 C 0.60557 0.33555 0.5102 0.0
C827 C 0.63484 0.33331 0.51454 0.0
C828 C 0.60654 0.36974 0.5128 0.0
C829 C 0.54237 0.30302 0.50058 0.0
C830 C 0.59349 0.3836 0.50108 0.0
C831 C 0.59423 0.4149 0.50403 0.0
C832 C 0.60839 0.43416 0.5188 0.0
C833 C 0.62269 0.42081 0.53013 0.0
C834 C 0.62162 0.38959 0.52726 0.0
H835 H 0.52038 0.27668 0.50131 0.0
H836 H 0.53867 0.31982 0.50903 0.0
H837 H 0.54203 0.31132 0.48797 0.0
H838 H 0.58276 0.37036 0.48947 0.0
H839 H 0.58308 0.42364 0.49477 0.0
H840 H 0.54405 0.63363 0.82952 0.0
H841 H 0.49104 0.63458 0.83313 0.0
H842 H 0.43927 0.52815 0.84387 0.0
H843 H 0.49221 0.52735 0.84071 0.0
H844 H 0.42766 0.60412 0.81853 0.0
H845 H 0.41049 0.56073 0.88165 0.0
H846 H 0.4494 0.57318 0.87158 0.0
H847 H 0.41277 0.53114 0.86806 0.0
C848 C 0.52152 0.61037 0.83277 0.0
C849 C 0.52327 0.58048 0.83494 0.0
C850 C 0.49079 0.6109 0.83479 0.0
C851 C 0.46034 0.58161 0.83917 0.0
C852 C 0.46197 0.55161 0.84099 0.0
H853 H 0.24943 0.52711 0.86159 0.0
H854 H 0.30231 0.52859 0.85509 0.0
C855 C 0.49262 0.55108 0.839 0.0
C856 C 0.42714 0.58221 0.84165 0.0
H857 H 0.36307 0.56062 0.86823 0.0
C858 C 0.41378 0.59473 0.82949 0.0
C859 C 0.40815 0.5702 0.85588 0.0
C860 C 0.42106 0.55839 0.8701 0.0
C861 C 0.38236 0.59449 0.83085 0.0
C862 C 0.36314 0.58206 0.84502 0.0
C863 C 0.37681 0.56997 0.85724 0.0
C864 C 0.32892 0.58075 0.84746 0.0
C865 C 0.36956 0.60652 0.81668 0.0
C866 C 0.32449 0.60916 0.84522 0.0
C867 C 0.29343 0.60803 0.84868 0.0
C868 C 0.2654 0.5785 0.85461 0.0
C869 C 0.2697 0.55006 0.85661 0.0
C870 C 0.30051 0.5511 0.85307 0.0
H871 H 0.38053 0.60473 0.80516 0.0
H872 H 0.34126 0.59148 0.81505 0.0
H873 H 0.37752 0.63363 0.81892 0.0
H874 H 0.34562 0.63296 0.84146 0.0
H875 H 0.29207 0.63098 0.84756 0.0
H876 H 1.01338 0.44387 0.16079 0.0
H877 H 0.95899 0.39031 0.16318 0.0
H878 H 0.9112 0.44693 0.17727 0.0
H879 H 0.96492 0.50014 0.17438 0.0
H880 H 0.91929 0.35768 0.18646 0.0
H881 H 0.83901 0.38624 0.14503 0.0
H882 H 0.88485 0.41295 0.14669 0.0
H883 H 0.8589 0.41765 0.16127 0.0
C884 C 0.99125 0.44506 0.16424 0.0
C885 C 0.99415 0.47704 0.1672 0.0
C886 C 0.95982 0.41408 0.16567 0.0
C887 C 0.92978 0.41361 0.17008 0.0
C888 C 0.93292 0.44561 0.17329 0.0
H889 H 0.72137 0.25789 0.19568 0.0
H890 H 0.774 0.3096 0.18882 0.0
C891 C 0.96419 0.47649 0.17176 0.0
C892 C 0.89588 0.38003 0.17179 0.0
H893 H 0.80913 0.33863 0.16194 0.0
C894 C 0.89538 0.35362 0.18089 0.0
C895 C 0.86388 0.37368 0.16469 0.0
C896 C 0.86164 0.39897 0.15374 0.0
C897 C 0.86466 0.32242 0.18344 0.0
C898 C 0.83265 0.31628 0.17653 0.0
C899 C 0.83312 0.34259 0.16735 0.0
C900 C 0.79857 0.2836 0.17919 0.0
C901 C 0.86679 0.29672 0.19412 0.0
C902 C 0.79303 0.25069 0.17555 0.0
C903 C 0.76226 0.22069 0.17927 0.0
C904 C 0.73564 0.22235 0.18668 0.0
C905 C 0.74068 0.25522 0.18967 0.0
C906 C 0.77122 0.2851 0.18586 0.0
H907 H 0.8908 0.30848 0.20194 0.0
H908 H 0.84477 0.28459 0.20204 0.0
H909 H 0.86637 0.27654 0.18633 0.0
H910 H 0.81287 0.24806 0.17009 0.0
H911 H 0.76003 0.19617 0.17709 0.0
H912 H 0.13713 0.5505 0.11683 0.0
H913 H 0.14561 0.55131 0.08751 0.0
H914 H 0.08331 0.59685 0.07931 0.0
H915 H 0.07446 0.59596 0.1084 0.0
H916 H 0.08983 0.52073 0.06041 0.0
H917 H 0.17693 0.66041 0.05745 0.0
H918 H 0.17073 0.63781 0.07612 0.0
H919 H 0.13886 0.64704 0.06833 0.0
C920 C 0.12527 0.56074 0.1088 0.0
C921 C 0.10513 0.5732 0.11505 0.0
C922 C 0.1301 0.56112 0.09204 0.0
C923 C 0.11534 0.57442 0.08124 0.0
C924 C 0.09523 0.58678 0.08743 0.0
H925 H 0.1025 0.61332 0.98028 0.0
H926 H 0.10391 0.61084 0.00983 0.0
C927 C 0.0901 0.58612 0.1041 0.0
C928 C 0.1204 0.57516 0.06345 0.0
H929 H 0.15475 0.62961 0.03231 0.0
C930 C 0.10435 0.54446 0.05424 0.0
C931 C 0.13923 0.60615 0.05545 0.0
C932 C 0.1577 0.63979 0.0648 0.0
C933 C 0.1054 0.54401 0.03715 0.0
C934 C 0.12381 0.57512 0.02907 0.0
C935 C 0.14065 0.60574 0.03841 0.0
C936 C 0.12405 0.5768 0.01093 0.0
C937 C 0.08539 0.51032 0.02789 0.0
C938 C 0.13556 0.55905 0.00153 0.0
C939 C 0.13429 0.56 0.98446 0.0
C940 C 0.12172 0.57895 0.97641 0.0
C941 C 0.11151 0.59772 0.98594 0.0
C942 C 0.11259 0.59658 0.00292 0.0
H943 H 1.06597 0.49028 0.03541 0.0
H944 H 0.07221 0.51264 0.01673 0.0
H945 H 0.10318 0.50181 0.02422 0.0
H946 H 0.14537 0.54429 0.00737 0.0
H947 H 0.14237 0.54522 0.97758 0.0
H948 H 0.6636 0.09085 0.44922 0.0
H949 H 0.66695 0.09375 0.41954 0.0
H950 H 0.56372 0.07462 0.41478 0.0
H951 H 0.5604 0.07239 0.44425 0.0
H952 H 0.62942 0.04667 0.39527 0.0
H953 H 0.61262 0.15797 0.388 0.0
H954 H 0.62164 0.14585 0.40758 0.0
H955 H 0.57865 0.12469 0.39864 0.0
C956 C 0.64167 0.08742 0.44186 0.0
C957 C 0.61183 0.08166 0.4492 0.0
C958 C 0.64362 0.08908 0.42487 0.0
C959 C 0.61585 0.08515 0.41487 0.0
C960 C 0.58587 0.07873 0.42219 0.0
H961 H 0.55146 0.06087 0.31355 0.0
H962 H 0.55845 0.06536 0.34325 0.0
C963 C 0.58394 0.07723 0.43911 0.0
C964 C 0.61763 0.08677 0.3968 0.0
H965 H 0.60443 0.12469 0.36376 0.0
C966 C 0.62442 0.06406 0.3884 0.0
C967 C 0.61125 0.10954 0.38776 0.0
C968 C 0.60599 0.13612 0.39597 0.0
C969 C 0.62355 0.06252 0.37127 0.0
C970 C 0.61599 0.08447 0.36227 0.0
C971 C 0.61005 0.10774 0.37065 0.0
C972 C 0.61248 0.08256 0.34415 0.0
C973 C 0.62946 1.03655 0.36289 0.0
C974 C 0.64067 0.09128 0.33471 0.0
C975 C 0.63677 0.08881 0.31765 0.0
C976 C 0.60453 0.07737 0.3097 0.0
C977 C 0.57654 0.06926 0.31924 0.0
C978 C 0.58051 0.07198 0.33624 0.0
H979 H 0.62908 1.01762 0.37144 0.0
H980 H 0.60972 1.02286 0.35289 0.0
H981 H 0.65477 0.04972 0.35746 0.0
H982 H 0.66569 0.09995 0.34054 0.0
H983 H 0.65882 0.09514 0.3107 0.0
H984 H 0.66594 0.64034 0.78139 0.0
H985 H 0.66641 0.64463 0.75166 0.0
H986 H 0.57627 0.54493 0.74655 0.0
H987 H 0.57518 0.5407 0.77599 0.0
H988 H 0.67191 0.60503 0.72816 0.0
H989 H 0.54779 0.59917 0.71829 0.0
H990 H 0.56902 0.60648 0.73819 0.0
H991 H 0.5438 0.56391 0.72955 0.0
C992 C 0.6461 0.61943 0.77393 0.0
C993 C 0.62038 0.59029 0.78116 0.0
C994 C 0.64641 0.62191 0.75692 0.0
C995 C 0.62094 0.59541 0.74681 0.0
C996 C 0.59563 0.56615 0.75403 0.0
H997 H 0.57509 0.53208 0.64586 0.0
H998 H 0.57865 0.539 0.67551 0.0
C999 C 0.59521 0.5637 0.77094 0.0
C1000 C 0.62118 0.5975 0.72872 0.0
H1001 H 0.57054 0.58805 0.69478 0.0
C1002 C 0.64994 0.60182 0.72087 0.0
C1003 C 0.59256 0.5934 0.71915 0.0
C1004 C 0.5617 0.59084 0.72673 0.0
C1005 C 0.65024 0.60066 0.70378 0.0
C1006 C 0.62113 0.59533 0.69426 0.0
C1007 C 0.59275 0.59191 0.70208 0.0
C1008 C 0.61904 0.59176 0.67618 0.0
C1009 C 0.68117 0.60385 0.69601 0.0
C1010 C 0.64024 0.61928 0.66663 0.0
C1011 C 0.63822 0.61542 0.64963 0.0
C1012 C 0.61507 0.58389 0.64182 0.0
C1013 C 0.59356 0.55656 0.65145 0.0
C1014 C 0.59543 0.56052 0.66841 0.0
H1015 H 0.69897 0.60184 0.705 0.0
H1016 H 0.67331 0.58385 0.6863 0.0
H1017 H 0.69519 0.62896 0.69031 0.0
H1018 H 0.65835 0.64376 0.67234 0.0
H1019 H 0.65526 0.63694 0.64261 0.0
H1020 H 0.55338 1.02009 0.54881 0.0
H1021 H 0.54299 1.01892 0.57762 0.0
H1022 H 0.62635 0.12242 0.58434 0.0
H1023 H 0.63673 0.12408 0.55523 0.0
H1024 H 0.58622 1.02913 0.60491 0.0
H1025 H 0.54535 0.12555 0.60298 0.0
H1026 H 0.5491 0.10565 0.58477 0.0
H1027 H 0.58677 0.13843 0.59564 0.0
C1028 C 0.56965 1.04268 0.55636 0.0
C1029 C 0.59577 0.07231 0.54969 0.0
C1030 C 0.56367 1.0419 0.57286 0.0
C1031 C 0.58357 0.07069 0.58306 0.0
C1032 C 0.61029 0.10011 0.57659 0.0
H1033 H 0.54805 0.08839 0.68589 0.0
H1034 H 0.57399 0.10077 0.65947 0.0
C1035 C 0.61633 0.10096 0.56 0.0
C1036 C 0.57562 0.06945 0.6004 0.0
H1037 H 0.54267 0.09987 0.62799 0.0
C1038 C 0.57702 0.04482 0.61001 0.0
C1039 C 0.56371 0.09004 0.60702 0.0
C1040 C 0.56084 0.11628 0.59709 0.0
C1041 C 0.56596 1.03958 0.62593 0.0
C1042 C 0.55276 0.05919 0.63231 0.0
C1043 C 0.5527 0.08482 0.62299 0.0
C1044 C 0.53698 0.05201 0.64825 0.0
C1045 C 0.56812 1.01283 0.63575 0.0
C1046 C 0.50723 1.02077 0.65054 0.0
C1047 C 0.49214 1.01374 0.66552 0.0
C1048 C 0.5065 1.03786 0.67853 0.0
C1049 C 0.53609 0.06938 0.67609 0.0
C1050 C 0.5511 0.07644 0.66105 0.0
H1051 H 0.58691 1.00665 0.63095 0.0
H1052 H 0.57541 1.0213 0.64872 0.0
H1053 H 0.54271 0.98917 0.63515 0.0
H1054 H 0.49554 1.00187 0.64068 0.0
H1055 H 0.46901 0.9895 0.66686 0.0
H1056 H 0.60925 0.51658 0.88033 0.0
H1057 H 0.59958 0.50586 0.90914 0.0
H1058 H 0.60707 0.60335 0.91615 0.0
H1059 H 0.61589 0.61397 0.88716 0.0
H1060 H 0.63957 0.54032 0.93589 0.0
H1061 H 0.51703 0.53978 0.93593 0.0
H1062 H 0.53624 0.53847 0.9174 0.0
H1063 H 0.55169 0.57815 0.9285 0.0
C1064 C 0.60883 0.53579 0.88797 0.0
C1065 C 0.61311 0.56606 0.88143 0.0
C1066 C 0.60329 0.52959 0.90444 0.0
C1067 C 0.60199 0.55352 0.91472 0.0
C1068 C 0.60712 0.58417 0.90834 0.0
H1069 H 0.58956 0.56567 0.01875 0.0
H1070 H 0.59842 0.57693 0.98987 0.0
C1071 C 0.61241 0.5903 0.8918 0.0
C1072 C 0.5957 0.54638 0.93214 0.0
H1073 H 0.54159 0.5378 0.9617 0.0
C1074 C 0.61807 0.53963 0.94151 0.0
C1075 C 0.5675 0.54532 0.93942 0.0
C1076 C 0.54153 0.55048 0.92977 0.0
C1077 C 0.61322 0.53228 0.95802 0.0
C1078 C 0.58535 0.53167 0.96529 0.0
C1079 C 0.56298 0.53841 0.956 0.0
C1080 C 0.57928 0.52443 0.98263 0.0
C1081 C 0.63806 0.52559 0.96772 0.0
C1082 C 0.56531 0.49108 0.98799 0.0
C1083 C 0.55973 0.4844 0.00446 0.0
C1084 C 0.56815 0.51105 0.01583 0.0
C1085 C 0.58217 0.54445 0.01031 0.0
C1086 C 0.5875 0.55102 0.99385 0.0
H1087 H 0.66044 0.5306 0.96072 0.0
H1088 H 0.64729 0.54174 0.97906 0.0
H1089 H 0.62483 0.49861 0.97129 0.0
H1090 H 0.55863 0.47025 0.9794 0.0
H1091 H 0.5485 0.45836 0.00826 0.0
H1092 H 0.0748 0.52756 0.21931 0.0
H1093 H 1.06645 0.52785 0.24846 0.0
H1094 H 0.0727 0.6252 0.24506 0.0
H1095 H 0.08063 0.625 0.2159 0.0
H1096 H 0.11047 0.57522 0.27208 0.0
H1097 H 0.98501 0.56867 0.26911 0.0
H1098 H 1.00195 0.55899 0.25174 0.0
H1099 H 1.01677 0.60249 0.2577 0.0
C1100 C 0.07422 0.54896 0.22474 0.0
C1101 C 0.07832 0.57624 0.21528 0.0
C1102 C 0.06943 0.54906 0.24139 0.0
C1103 C 0.06842 0.57628 0.24884 0.0
C1104 C 0.07266 0.6036 0.23946 0.0
H1105 H 0.10657 0.64154 0.34966 0.0
H1106 H 0.10723 0.63484 0.32023 0.0
C1107 C 0.07745 0.60355 0.22282 0.0
C1108 C 1.06455 0.57689 0.26658 0.0
H1109 H 1.01519 0.58277 0.2951 0.0
C1110 C 0.08951 0.57662 0.27713 0.0
C1111 C 1.03694 0.57826 0.2731 0.0
C1112 C 1.00843 0.57679 0.26234 0.0
C1113 C 0.08817 0.57873 0.29405 0.0
C1114 C 1.06144 0.58171 0.30055 0.0
C1115 C 1.03586 0.58089 0.29004 0.0
C1116 C 1.06004 0.5863 0.31825 0.0
C1117 C 0.11531 0.57763 0.30483 0.0
C1118 C 1.03266 0.56175 0.32678 0.0
C1119 C 1.03219 0.56551 0.34363 0.0
C1120 C 1.05908 0.59395 0.35218 0.0
C1121 C 0.08586 0.61901 0.34347 0.0
C1122 C 0.08628 0.61524 0.32667 0.0
H1123 H 0.12831 0.56634 0.29829 0.0
H1124 H 0.13493 0.60394 0.30889 0.0
H1125 H 0.1042 0.56269 0.3158 0.0
H1126 H 1.01208 0.53932 0.32045 0.0
H1127 H 1.01132 0.54568 0.35001 0.0
loop_
_geom_bond_atom_site_label_1
_geom_bond_atom_site_label_2
_geom_bond_distance
_geom_bond_site_symmetry_2
_ccdc_geom_bond_type
Tb0 C10 2.825 . S
Tb0 O11 2.347 . S
Tb0 O14 2.366 . S
Tb0 O19 2.418 . S
Tb0 O20 2.384 1_455 S
Tb0 O23 2.479 . S
Tb0 O24 2.471 . S
Eu1 O12 2.420 . S
Eu1 O13 2.391 . S
Eu1 O16 2.471 1_455 S
Eu1 O17 2.464 1_455 S
Eu1 O18 2.351 . S
Eu1 O21 2.365 1_455 S
Eu1 C31 2.817 1_455 S
C2 O18 1.259 . S
C2 O19 1.265 . S
C3 O20 1.255 . S
C3 O21 1.265 . S
C4 C6 1.380 . S
C4 C7 1.374 . S
C4 C10 1.507 . S
C5 C6 1.384 . S
C5 C9 1.387 . S
C5 H32 0.930 . S
C6 C4 1.380 . S
C6 C5 1.384 . S
C6 H33 0.931 . S
C7 C4 1.374 . S
C7 C8 1.390 . S
C7 H34 0.930 . S
C8 C7 1.390 . S
C8 C9 1.391 . S
C8 H35 0.930 . S
C9 C5 1.387 . S
C9 C8 1.391 . S
C10 Tb0 2.825 . S
C10 C4 1.507 . S
C10 O23 1.238 . S
C10 O24 1.247 . S
O11 Tb0 2.347 . S
O11 C15 1.259 . S
O12 Eu1 2.420 . S
O12 C15 1.265 . S
O13 Eu1 2.391 . S
O13 C22 1.255 . S
O14 Tb0 2.366 . S
O14 C22 1.265 . S
C15 O11 1.259 . S
C15 O12 1.265 . S
O16 Eu1 2.471 1_655 S
O16 C31 1.238 . S
O17 Eu1 2.464 1_655 S
O17 C31 1.247 . S
O18 Eu1 2.351 . S
O18 C2 1.259 . S
O19 Tb0 2.418 . S
O19 C2 1.265 . S
O20 Tb0 2.384 1_655 S
O20 C3 1.255 . S
O21 Eu1 2.365 1_655 S
O21 C3 1.265 . S
C22 O13 1.255 . S
C22 O14 1.265 . S
O23 Tb0 2.479 . S
O23 C10 1.238 . S
O24 Tb0 2.471 . S
O24 C10 1.247 . S
C25 C28 1.380 . S
C25 C29 1.374 . S
C25 C31 1.507 . S
C26 C27 1.387 . S
C26 C30 1.391 . S
C27 C26 1.387 . S
C27 C28 1.384 . S
C27 H36 0.930 . S
C28 C25 1.380 . S
C28 C27 1.384 . S
C28 H37 0.931 . S
C29 C25 1.374 . S
C29 C30 1.390 . S
C29 H38 0.930 . S
C30 C26 1.391 . S
C30 C29 1.390 . S
C30 H39 0.930 . S
C31 Eu1 2.817 1_655 S
C31 O16 1.238 . S
C31 O17 1.247 . S
C31 C25 1.507 . S
H32 C5 0.930 . S
H33 C6 0.931 . S
H34 C7 0.930 . S
H35 C8 0.930 . S
H36 C27 0.930 . S
H37 C28 0.931 . S
H38 C29 0.930 . S
H39 C30 0.930 . S
Tb40 C50 2.825 . S
Tb40 O51 2.347 . S
Tb40 O54 2.366 . S
Tb40 O59 2.418 . S
Tb40 O60 2.407 . S
Tb40 O63 2.479 . S
Tb40 O64 2.471 . S
Eu41 O52 2.418 . S
Eu41 O53 2.384 . S
Eu41 O56 2.479 1_545 S
Eu41 O57 2.471 1_545 S
Eu41 O58 2.347 . S
Eu41 O61 2.366 1_545 S
Eu41 C71 2.825 1_545 S
C42 O58 1.259 . S
C42 O59 1.265 . S
C43 O60 1.246 1_565 S
C43 O61 1.265 . S
C44 C46 1.380 . S
C44 C47 1.374 . S
C44 C50 1.507 . S
C45 C46 1.384 . S
C45 C49 1.387 . S
C45 H72 0.930 . S
C46 C44 1.380 . S
C46 C45 1.384 . S
C46 H73 0.931 . S
C47 C44 1.374 . S
C47 C48 1.390 . S
C47 H74 0.930 . S
C48 C47 1.390 . S
C48 C49 1.391 . S
C48 H75 0.930 . S
C49 C45 1.387 . S
C49 C48 1.391 . S
C50 Tb40 2.825 . S
C50 C44 1.507 . S
C50 O63 1.238 . S
C50 O64 1.247 . S
O51 Tb40 2.347 . S
O51 C55 1.259 . S
O52 Eu41 2.418 . S
O52 C55 1.265 . S
O53 Eu41 2.384 . S
O53 C62 1.255 . S
O54 Tb40 2.366 . S
O54 C62 1.265 . S
C55 O51 1.259 . S
C55 O52 1.265 . S
O56 Eu41 2.479 1_565 S
O56 C71 1.238 . S
O57 Eu41 2.471 1_565 S
O57 C71 1.247 . S
O58 Eu41 2.347 . S
O58 C42 1.259 . S
O59 Tb40 2.418 . S
O59 C42 1.265 . S
O60 Tb40 2.407 . S
O60 C43 1.246 1_545 S
O61 Eu41 2.366 1_565 S
O61 C43 1.265 . S
C62 O53 1.255 . S
C62 O54 1.265 . S
O63 Tb40 2.479 . S
O63 C50 1.238 . S
O64 Tb40 2.471 . S
O64 C50 1.247 . S
C65 C68 1.380 . S
C65 C69 1.374 . S
C65 C71 1.507 . S
C66 C67 1.387 . S
C66 C70 1.391 . S
C67 C66 1.387 . S
C67 C68 1.384 . S
C67 H76 0.930 . S
C68 C65 1.380 . S
C68 C67 1.384 . S
C68 H77 0.931 . S
C69 C65 1.374 . S
C69 C70 1.390 . S
C69 H78 0.930 . S
C70 C66 1.391 . S
C70 C69 1.390 . S
C70 H79 0.930 . S
C71 Eu41 2.825 1_565 S
C71 O56 1.238 . S
C71 O57 1.247 . S
C71 C65 1.507 . S
H72 C45 0.930 . S
H73 C46 0.931 . S
H74 C47 0.930 . S
H75 C48 0.930 . S
H76 C67 0.930 . S
H77 C68 0.931 . S
H78 C69 0.930 . S
H79 C70 0.930 . S
Tb80 C90 2.825 . S
Tb80 O91 2.347 . S
Tb80 O94 2.366 . S
Tb80 O99 2.418 . S
Tb80 O100 2.384 . S
Tb80 O103 2.479 . S
Tb80 O104 2.471 . S
Eu81 O92 2.418 . S
Eu81 O93 2.384 . S
Eu81 O96 2.479 . S
Eu81 O97 2.471 . S
Eu81 O98 2.347 . S
Eu81 O101 2.366 . S
Eu81 C111 2.825 . S
C82 O98 1.259 . S
C82 O99 1.265 . S
C83 O100 1.255 . S
C83 O101 1.265 . S
C84 C86 1.380 . S
C84 C87 1.374 . S
C84 C90 1.507 . S
C85 C86 1.384 . S
C85 C89 1.387 . S
C85 H112 0.930 . S
C86 C84 1.380 . S
C86 C85 1.384 . S
C86 H113 0.931 . S
C87 C84 1.374 . S
C87 C88 1.390 . S
C87 H114 0.930 . S
C88 C87 1.390 . S
C88 C89 1.391 . S
C88 H115 0.930 . S
C89 C85 1.387 . S
C89 C88 1.391 . S
C90 Tb80 2.825 . S
C90 C84 1.507 . S
C90 O103 1.238 . S
C90 O104 1.247 . S
O91 Tb80 2.347 . S
O91 C95 1.259 . S
O92 Eu81 2.418 . S
O92 C95 1.265 . S
O93 Eu81 2.384 . S
O93 C102 1.255 . S
O94 Tb80 2.366 . S
O94 C102 1.265 . S
C95 O91 1.259 . S
C95 O92 1.265 . S
O96 Eu81 2.479 . S
O96 C111 1.238 . S
O97 Eu81 2.471 . S
O97 C111 1.247 . S
O98 Eu81 2.347 . S
O98 C82 1.259 . S
O99 Tb80 2.418 . S
O99 C82 1.265 . S
O100 Tb80 2.384 . S
O100 C83 1.255 . S
O101 Eu81 2.366 . S
O101 C83 1.265 . S
C102 O93 1.255 . S
C102 O94 1.265 . S
O103 Tb80 2.479 . S
O103 C90 1.238 . S
O104 Tb80 2.471 . S
O104 C90 1.247 . S
C105 C108 1.380 . S
C105 C109 1.374 . S
C105 C111 1.507 . S
C106 C107 1.387 . S
C106 C110 1.391 . S
C107 C106 1.387 . S
C107 C108 1.384 . S
C107 H116 0.930 . S
C108 C105 1.380 . S
C108 C107 1.384 . S
C108 H117 0.931 . S
C109 C105 1.374 . S
C109 C110 1.390 . S
C109 H118 0.930 . S
C110 C106 1.391 . S
C110 C109 1.390 . S
C110 H119 0.930 . S
C111 Eu81 2.825 . S
C111 O96 1.238 . S
C111 O97 1.247 . S
C111 C105 1.507 . S
H112 C85 0.930 . S
H113 C86 0.931 . S
H114 C87 0.930 . S
H115 C88 0.930 . S
H116 C107 0.930 . S
H117 C108 0.931 . S
H118 C109 0.930 . S
H119 C110 0.930 . S
C120 C121 1.391 . S
C120 C124 1.391 . S
C120 H162 0.948 . S
C121 C120 1.391 . S
C121 C122 1.391 . S
C122 C121 1.391 . S
C122 H178 0.947 . S
C122 C179 1.392 . S
C123 C124 1.391 . S
C123 C127 1.397 . S
C123 C179 1.419 . S
C124 C120 1.391 . S
C124 C123 1.391 . S
C124 C125 1.399 . S
C125 C124 1.399 . S
C125 C128 1.396 . S
C125 C137 1.453 . S
C125 C138 1.684 . S
H126 C150 0.948 . S
C127 C123 1.397 . S
C127 C128 1.394 . S
C127 C146 1.723 . S
C128 C125 1.396 . S
C128 C127 1.394 . S
C128 C158 1.723 1_545 S
H129 C152 0.947 . S
H130 C153 0.948 . S
H131 C159 0.982 . S
H132 C160 0.979 . S
H133 C160 0.980 . S
H134 C160 0.983 . S
H135 C159 0.979 . S
H136 C159 0.977 . S
C137 C125 1.453 . S
C137 H166 0.982 . S
C137 H167 0.979 . S
C137 H168 0.977 1_545 S
C138 C125 1.684 . S
C138 H163 0.979 . S
C138 H164 0.980 . S
C138 H165 0.983 . S
C139 C140 1.391 . S
C139 C144 1.391 . S
C139 H169 0.948 . S
C140 C139 1.391 . S
C140 C141 1.391 1_545 S
C141 C140 1.391 1_565 S
C141 C142 1.392 . S
C141 H170 0.947 . S
C142 C141 1.392 . S
C142 C143 1.419 1_565 S
C142 H171 0.948 . S
C143 C142 1.419 1_545 S
C143 C144 1.391 . S
C143 C147 1.397 . S
C144 C139 1.391 . S
C144 C143 1.391 . S
C144 C145 1.399 . S
C145 C144 1.399 . S
C145 C146 1.396 . S
C145 C148 1.453 . S
C145 C149 1.684 . S
C146 C127 1.723 . S
C146 C145 1.396 . S
C146 C147 1.394 . S
C147 C143 1.397 . S
C147 C146 1.394 . S
C147 C157 1.723 1_545 S
C148 C145 1.453 . S
C148 H172 0.982 . S
C148 H173 0.979 . S
C148 H174 0.977 . S
C149 C145 1.684 . S
C149 H175 0.979 . S
C149 H176 0.980 . S
C149 H177 0.983 . S
C150 H126 0.948 . S
C150 C151 1.391 . S
C150 C155 1.391 . S
C151 C150 1.391 . S
C151 C152 1.391 . S
C152 H129 0.947 . S
C152 C151 1.391 . S
C152 C153 1.392 . S
C153 H130 0.948 . S
C153 C152 1.392 . S
C153 C154 1.419 . S
C154 C153 1.419 . S
C154 C155 1.391 . S
C154 C158 1.397 . S
C155 C150 1.391 . S
C155 C154 1.391 . S
C155 C156 1.399 . S
C156 C155 1.399 . S
C156 C157 1.396 . S
C156 C159 1.453 . S
C156 C160 1.684 . S
C157 C147 1.723 1_565 S
C157 C156 1.396 . S
C157 C158 1.394 . S
C158 C128 1.723 1_565 S
C158 C154 1.397 . S
C158 C157 1.394 . S
C159 H131 0.982 . S
C159 H135 0.979 . S
C159 H136 0.977 . S
C159 C156 1.453 . S
C160 H132 0.979 . S
C160 H133 0.980 . S
C160 H134 0.983 . S
C160 C156 1.684 . S
H161 C179 0.948 . S
H162 C120 0.948 . S
H163 C138 0.979 . S
H164 C138 0.980 . S
H165 C138 0.983 . S
H166 C137 0.982 . S
H167 C137 0.979 . S
H168 C137 0.977 1_565 S
H169 C139 0.948 . S
H170 C141 0.947 . S
H171 C142 0.948 . S
H172 C148 0.982 . S
H173 C148 0.979 . S
H174 C148 0.977 . S
H175 C149 0.979 . S
H176 C149 0.980 . S
H177 C149 0.983 . S
H178 C122 0.947 . S
C179 C122 1.392 . S
C179 C123 1.419 . S
C179 H161 0.948 . S
C180 C181 1.391 . S
C180 C184 1.391 . S
C180 H222 0.948 . S
C181 C180 1.391 . S
C181 C182 1.391 . S
C182 C181 1.391 . S
C182 H238 0.947 . S
C182 C239 1.392 . S
C183 C184 1.391 . S
C183 C187 1.397 . S
C183 C239 1.419 . S
C184 C180 1.391 . S
C184 C183 1.391 . S
C184 C185 1.399 . S
C185 C184 1.399 . S
C185 C188 1.396 . S
C185 C197 1.453 . S
C185 C198 1.684 . S
H186 C210 0.948 . S
C187 C183 1.397 . S
C187 C188 1.394 . S
C187 C206 1.723 . S
C188 C185 1.396 . S
C188 C187 1.394 . S
C188 C218 1.723 . S
H189 C212 0.947 . S
H190 C213 0.948 . S
H191 C219 0.982 . S
H192 C220 0.979 . S
H193 C220 0.980 . S
H194 C220 0.983 . S
H195 C219 0.979 . S
H196 C219 0.977 . S
C197 C185 1.453 . S
C197 H226 0.982 . S
C197 H227 0.979 . S
C197 H228 0.977 . S
C198 C185 1.684 . S
C198 H223 0.979 . S
C198 H224 0.980 . S
C198 H225 0.983 . S
C199 C200 1.391 . S
C199 C204 1.391 . S
C199 H229 0.948 . S
C200 C199 1.391 . S
C200 C201 1.391 . S
C201 C200 1.391 . S
C201 C202 1.392 . S
C201 H230 0.947 . S
C202 C201 1.392 . S
C202 C203 1.419 . S
C202 H231 0.948 . S
C203 C202 1.419 . S
C203 C204 1.391 . S
C203 C207 1.397 . S
C204 C199 1.391 . S
C204 C203 1.391 . S
C204 C205 1.399 . S
C205 C204 1.399 . S
C205 C206 1.396 . S
C205 C208 1.453 . S
C205 C209 1.684 . S
C206 C187 1.723 . S
C206 C205 1.396 . S
C206 C207 1.394 . S
C207 C203 1.397 . S
C207 C206 1.394 . S
C207 C217 1.723 . S
C208 C205 1.453 . S
C208 H232 0.982 . S
C208 H233 0.979 . S
C208 H234 0.977 . S
C209 C205 1.684 . S
C209 H235 0.979 . S
C209 H236 0.980 . S
C209 H237 0.983 . S
C210 H186 0.948 . S
C210 C211 1.391 . S
C210 C215 1.391 . S
C211 C210 1.391 . S
C211 C212 1.391 . S
C212 H189 0.947 . S
C212 C211 1.391 . S
C212 C213 1.392 . S
C213 H190 0.948 . S
C213 C212 1.392 . S
C213 C214 1.419 . S
C214 C213 1.419 . S
C214 C215 1.391 . S
C214 C218 1.397 . S
C215 C210 1.391 . S
C215 C214 1.391 . S
C215 C216 1.399 . S
C216 C215 1.399 . S
C216 C217 1.396 . S
C216 C219 1.453 . S
C216 C220 1.684 . S
C217 C207 1.723 . S
C217 C216 1.396 . S
C217 C218 1.394 . S
C218 C188 1.723 . S
C218 C214 1.397 . S
C218 C217 1.394 . S
C219 H191 0.982 . S
C219 H195 0.979 . S
C219 H196 0.977 . S
C219 C216 1.453 . S
C220 H192 0.979 . S
C220 H193 0.980 . S
C220 H194 0.983 . S
C220 C216 1.684 . S
H221 C239 0.948 . S
H222 C180 0.948 . S
H223 C198 0.979 . S
H224 C198 0.980 . S
H225 C198 0.983 . S
H226 C197 0.982 . S
H227 C197 0.979 . S
H228 C197 0.977 . S
H229 C199 0.948 . S
H230 C201 0.947 . S
H231 C202 0.948 . S
H232 C208 0.982 . S
H233 C208 0.979 . S
H234 C208 0.977 . S
H235 C209 0.979 . S
H236 C209 0.980 . S
H237 C209 0.983 . S
H238 C182 0.947 . S
C239 C182 1.392 . S
C239 C183 1.419 . S
C239 H221 0.948 . S
C240 C241 1.391 . S
C240 C244 1.391 . S
C240 H282 0.948 . S
C241 C240 1.391 . S
C241 C242 1.391 . S
C242 C241 1.391 . S
C242 H298 0.947 . S
C242 C299 1.392 . S
C243 C244 1.391 . S
C243 C247 1.397 . S
C243 C299 1.419 . S
C244 C240 1.391 . S
C244 C243 1.391 . S
C244 C245 1.399 . S
C245 C244 1.399 . S
C245 C248 1.396 . S
C245 C257 1.453 . S
C245 C258 1.684 . S
H246 C270 0.948 . S
C247 C243 1.397 . S
C247 C248 1.394 . S
C247 C266 1.723 . S
C248 C245 1.396 . S
C248 C247 1.394 . S
C248 C278 1.723 1_455 S
H249 C272 0.947 . S
H250 C273 0.948 . S
H251 C279 0.982 . S
H252 C280 0.979 . S
H253 C280 0.980 . S
H254 C280 0.983 . S
H255 C279 0.979 . S
H256 C279 0.977 . S
C257 C245 1.453 . S
C257 H286 0.982 . S
C257 H287 0.979 . S
C257 H288 0.977 1_455 S
C258 C245 1.684 . S
C258 H283 0.979 . S
C258 H284 0.980 . S
C258 H285 0.983 . S
C259 C260 1.391 . S
C259 C264 1.391 . S
C259 H289 0.948 . S
C260 C259 1.391 . S
C260 C261 1.391 1_455 S
C261 C260 1.391 1_655 S
C261 C262 1.392 . S
C261 H290 0.947 . S
C262 C261 1.392 . S
C262 C263 1.419 1_655 S
C262 H291 0.948 . S
C263 C262 1.419 1_455 S
C263 C264 1.391 . S
C263 C267 1.397 . S
C264 C259 1.391 . S
C264 C263 1.391 . S
C264 C265 1.399 . S
C265 C264 1.399 . S
C265 C266 1.396 . S
C265 C268 1.453 . S
C265 C269 1.684 . S
C266 C247 1.723 . S
C266 C265 1.396 . S
C266 C267 1.394 . S
C267 C263 1.397 . S
C267 C266 1.394 . S
C267 C277 1.723 1_455 S
C268 C265 1.453 . S
C268 H292 0.982 . S
C268 H293 0.979 . S
C268 H294 0.977 . S
C269 C265 1.684 . S
C269 H295 0.979 . S
C269 H296 0.980 . S
C269 H297 0.983 . S
C270 H246 0.948 . S
C270 C271 1.391 . S
C270 C275 1.391 . S
C271 C270 1.391 . S
C271 C272 1.391 . S
C272 H249 0.947 . S
C272 C271 1.391 . S
C272 C273 1.392 . S
C273 H250 0.948 . S
C273 C272 1.392 . S
C273 C274 1.419 . S
C274 C273 1.419 . S
C274 C275 1.391 . S
C274 C278 1.397 . S
C275 C270 1.391 . S
C275 C274 1.391 . S
C275 C276 1.399 . S
C276 C275 1.399 . S
C276 C277 1.396 . S
C276 C279 1.453 . S
C276 C280 1.684 . S
C277 C267 1.723 1_655 S
C277 C276 1.396 . S
C277 C278 1.394 . S
C278 C248 1.723 1_655 S
C278 C274 1.397 . S
C278 C277 1.394 . S
C279 H251 0.982 . S
C279 H255 0.979 . S
C279 H256 0.977 . S
C279 C276 1.453 . S
C280 H252 0.979 . S
C280 H253 0.980 . S
C280 H254 0.983 . S
C280 C276 1.684 . S
H281 C299 0.948 . S
H282 C240 0.948 . S
H283 C258 0.979 . S
H284 C258 0.980 . S
H285 C258 0.983 . S
H286 C257 0.982 . S
H287 C257 0.979 . S
H288 C257 0.977 1_655 S
H289 C259 0.948 . S
H290 C261 0.947 . S
H291 C262 0.948 . S
H292 C268 0.982 . S
H293 C268 0.979 . S
H294 C268 0.977 . S
H295 C269 0.979 . S
H296 C269 0.980 . S
H297 C269 0.983 . S
H298 C242 0.947 . S
C299 C242 1.392 . S
C299 C243 1.419 . S
C299 H281 0.948 . S
C300 C301 1.391 . S
C300 C304 1.391 . S
C300 H342 0.948 . S
C301 C300 1.391 . S
C301 C302 1.391 . S
C302 C301 1.391 . S
C302 H358 0.947 . S
C302 C359 1.392 . S
C303 C304 1.391 . S
C303 C307 1.397 . S
C303 C359 1.419 . S
C304 C300 1.391 . S
C304 C303 1.391 . S
C304 C305 1.399 . S
C305 C304 1.399 . S
C305 C308 1.396 . S
C305 C317 1.453 1_655 S
C305 C318 1.684 . S
H306 C330 0.948 . S
C307 C303 1.397 . S
C307 C308 1.394 . S
C307 C326 1.723 . S
C308 C305 1.396 . S
C308 C307 1.394 . S
C308 C338 1.723 1_655 S
H309 C332 0.947 . S
H310 C333 0.948 . S
H311 C339 0.982 . S
H312 C340 0.979 . S
H313 C340 0.980 . S
H314 C340 0.983 . S
H315 C339 0.979 . S
H316 C339 0.977 . S
C317 C305 1.453 1_455 S
C317 H346 0.982 . S
C317 H347 0.979 1_455 S
C317 H348 0.977 . S
C318 C305 1.684 . S
C318 H343 0.979 . S
C318 H344 0.993 . S
C318 H345 0.983 . S
C319 C320 1.391 1_655 S
C319 C324 1.391 . S
C319 H349 0.948 . S
C320 C319 1.391 1_455 S
C320 C321 1.391 . S
C321 C320 1.391 . S
C321 C322 1.392 . S
C321 H350 0.947 . S
C322 C321 1.392 . S
C322 C323 1.419 . S
C322 H351 0.948 . S
C323 C322 1.419 . S
C323 C324 1.391 1_455 S
C323 C327 1.397 . S
C324 C319 1.391 . S
C324 C323 1.391 1_655 S
C324 C325 1.399 . S
C325 C324 1.399 . S
C325 C326 1.396 . S
C325 C328 1.453 . S
C325 C329 1.684 . S
C326 C307 1.723 . S
C326 C325 1.396 . S
C326 C327 1.394 1_655 S
C327 C323 1.397 . S
C327 C326 1.394 1_455 S
C327 C337 1.723 . S
C328 C325 1.453 . S
C328 H352 0.982 . S
C328 H353 0.979 . S
C328 H354 0.977 . S
C329 C325 1.684 . S
C329 H355 0.979 . S
C329 H356 0.980 . S
C329 H357 0.983 . S
C330 H306 0.948 . S
C330 C331 1.391 . S
C330 C335 1.391 . S
C331 C330 1.391 . S
C331 C332 1.391 . S
C332 H309 0.947 . S
C332 C331 1.391 . S
C332 C333 1.392 . S
C333 H310 0.948 . S
C333 C332 1.392 . S
C333 C334 1.419 . S
C334 C333 1.419 . S
C334 C335 1.391 . S
C334 C338 1.397 . S
C335 C330 1.391 . S
C335 C334 1.391 . S
C335 C336 1.399 . S
C336 C335 1.399 . S
C336 C337 1.396 . S
C336 C339 1.453 . S
C336 C340 1.684 . S
C337 C327 1.723 . S
C337 C336 1.396 . S
C337 C338 1.394 . S
C338 C308 1.723 1_455 S
C338 C334 1.397 . S
C338 C337 1.394 . S
C339 H311 0.982 . S
C339 H315 0.979 . S
C339 H316 0.977 . S
C339 C336 1.453 . S
C340 H312 0.979 . S
C340 H313 0.980 . S
C340 H314 0.983 . S
C340 C336 1.684 . S
H341 C359 0.948 . S
H342 C300 0.948 . S
H343 C318 0.979 . S
H344 C318 0.993 . S
H345 C318 0.983 . S
H346 C317 0.982 . S
H347 C317 0.979 1_655 S
H348 C317 0.977 . S
H349 C319 0.948 . S
H350 C321 0.947 . S
H351 C322 0.948 . S
H352 C328 0.982 . S
H353 C328 0.979 . S
H354 C328 0.977 . S
H355 C329 0.979 . S
H356 C329 0.980 . S
H357 C329 0.983 . S
H358 C302 0.947 . S
C359 C302 1.392 . S
C359 C303 1.419 . S
C359 H341 0.948 . S
C360 C361 1.391 . S
C360 C364 1.391 . S
C360 H402 0.948 . S
C361 C360 1.391 . S
C361 C362 1.391 . S
C362 C361 1.391 . S
C362 H418 0.947 . S
C362 C419 1.392 . S
C363 C364 1.391 . S
C363 C367 1.397 . S
C363 C419 1.419 . S
C364 C360 1.391 . S
C364 C363 1.391 . S
C364 C365 1.399 . S
C365 C364 1.399 . S
C365 C368 1.396 . S
C365 C377 1.453 . S
C365 C378 1.684 . S
H366 C390 0.948 . S
C367 C363 1.397 . S
C367 C368 1.394 . S
C367 C386 1.723 . S
C368 C365 1.396 . S
C368 C367 1.394 . S
C368 C398 1.723 1_565 S
H369 C392 0.947 . S
H370 C393 0.948 . S
H371 C399 0.982 . S
H372 C400 0.979 . S
H373 C400 0.980 . S
H374 C400 0.983 . S
H375 C399 0.979 . S
H376 C399 0.977 . S
C377 C365 1.453 . S
C377 H406 0.982 1_565 S
C377 H407 0.979 . S
C377 H408 0.977 1_565 S
C378 C365 1.684 . S
C378 H403 0.979 . S
C378 H404 0.980 . S
C378 H405 0.983 . S
C379 C380 1.391 1_565 S
C379 C384 1.391 . S
C379 H409 0.948 . S
C380 C379 1.391 1_545 S
C380 C381 1.391 . S
C381 C380 1.391 . S
C381 C382 1.392 . S
C381 H410 0.947 . S
C382 C381 1.392 . S
C382 C383 1.419 . S
C382 H411 0.948 . S
C383 C382 1.419 . S
C383 C384 1.391 1_545 S
C383 C387 1.397 . S
C384 C379 1.391 . S
C384 C383 1.391 1_565 S
C384 C385 1.399 . S
C385 C384 1.399 . S
C385 C386 1.396 . S
C385 C388 1.453 . S
C385 C389 1.684 . S
C386 C367 1.723 . S
C386 C385 1.396 . S
C386 C387 1.394 1_565 S
C387 C383 1.397 . S
C387 C386 1.394 1_545 S
C387 C397 1.723 . S
C388 C385 1.453 . S
C388 H412 0.982 . S
C388 H413 0.979 . S
C388 H414 0.977 . S
C389 C385 1.684 . S
C389 H415 0.979 . S
C389 H416 0.980 . S
C389 H417 0.983 . S
C390 H366 0.948 . S
C390 C391 1.391 . S
C390 C395 1.391 . S
C391 C390 1.391 . S
C391 C392 1.391 . S
C392 H369 0.947 . S
C392 C391 1.391 . S
C392 C393 1.392 . S
C393 H370 0.948 . S
C393 C392 1.392 . S
C393 C394 1.419 . S
C394 C393 1.419 . S
C394 C395 1.391 . S
C394 C398 1.397 . S
C395 C390 1.391 . S
C395 C394 1.391 . S
C395 C396 1.399 . S
C396 C395 1.399 . S
C396 C397 1.396 . S
C396 C399 1.453 . S
C396 C400 1.684 . S
C397 C387 1.723 . S
C397 C396 1.396 . S
C397 C398 1.394 . S
C398 C368 1.723 1_545 S
C398 C394 1.397 . S
C398 C397 1.394 . S
C399 H371 0.982 . S
C399 H375 0.979 . S
C399 H376 0.977 . S
C399 C396 1.453 . S
C400 H372 0.979 . S
C400 H373 0.980 . S
C400 H374 0.983 . S
C400 C396 1.684 . S
H401 C419 0.948 . S
H402 C360 0.948 . S
H403 C378 0.979 . S
H404 C378 0.980 . S
H405 C378 0.983 . S
H406 C377 0.982 1_545 S
H407 C377 0.979 . S
H408 C377 0.977 1_545 S
H409 C379 0.948 . S
H410 C381 0.947 . S
H411 C382 0.948 . S
H412 C388 0.982 . S
H413 C388 0.979 . S
H414 C388 0.977 . S
H415 C389 0.979 . S
H416 C389 0.980 . S
H417 C389 0.983 . S
H418 C362 0.947 . S
C419 C362 1.392 . S
C419 C363 1.419 . S
C419 H401 0.948 . S
C420 C421 1.391 . S
C420 C424 1.391 . S
C420 H462 0.948 . S
C421 C420 1.391 . S
C421 C422 1.391 . S
C422 C421 1.391 . S
C422 H478 0.947 . S
C422 C479 1.392 . S
C423 C424 1.391 . S
C423 C427 1.397 . S
C423 C479 1.419 . S
C424 C420 1.391 . S
C424 C423 1.391 . S
C424 C425 1.399 . S
C425 C424 1.399 . S
C425 C428 1.396 . S
C425 C437 1.453 . S
C425 C438 1.684 . S
H426 C450 0.948 . S
C427 C423 1.397 . S
C427 C428 1.394 . S
C427 C446 1.723 . S
C428 C425 1.396 . S
C428 C427 1.394 . S
C428 C458 1.723 . S
H429 C452 0.947 . S
H430 C453 0.948 . S
H431 C459 0.982 . S
H432 C460 0.979 . S
H433 C460 0.980 . S
H434 C460 0.983 . S
H435 C459 0.979 . S
H436 C459 0.977 . S
C437 C425 1.453 . S
C437 H466 0.982 . S
C437 H467 0.979 . S
C437 H468 0.977 . S
C438 C425 1.684 . S
C438 H463 0.979 . S
C438 H464 0.980 . S
C438 H465 0.983 . S
C439 C440 1.391 . S
C439 C444 1.391 . S
C439 H469 0.948 . S
C440 C439 1.391 . S
C440 C441 1.391 . S
C441 C440 1.391 . S
C441 C442 1.392 . S
C441 H470 0.947 . S
C442 C441 1.392 . S
C442 C443 1.419 . S
C442 H471 0.948 . S
C443 C442 1.419 . S
C443 C444 1.391 . S
C443 C447 1.397 . S
C444 C439 1.391 . S
C444 C443 1.391 . S
C444 C445 1.399 . S
C445 C444 1.399 . S
C445 C446 1.396 . S
C445 C448 1.453 . S
C445 C449 1.684 . S
C446 C427 1.723 . S
C446 C445 1.396 . S
C446 C447 1.394 . S
C447 C443 1.397 . S
C447 C446 1.394 . S
C447 C457 1.723 . S
C448 C445 1.453 . S
C448 H472 0.982 . S
C448 H473 0.979 . S
C448 H474 0.977 . S
C449 C445 1.684 . S
C449 H475 0.979 . S
C449 H476 0.980 . S
C449 H477 0.983 . S
C450 H426 0.948 . S
C450 C451 1.391 . S
C450 C455 1.391 . S
C451 C450 1.391 . S
C451 C452 1.391 . S
C452 H429 0.947 . S
C452 C451 1.391 . S
C452 C453 1.392 . S
C453 H430 0.948 . S
C453 C452 1.392 . S
C453 C454 1.419 . S
C454 C453 1.419 . S
C454 C455 1.391 . S
C454 C458 1.397 . S
C455 C450 1.391 . S
C455 C454 1.391 . S
C455 C456 1.399 . S
C456 C455 1.399 . S
C456 C457 1.396 . S
C456 C459 1.453 . S
C456 C460 1.684 . S
C457 C447 1.723 . S
C457 C456 1.396 . S
C457 C458 1.394 . S
C458 C428 1.723 . S
C458 C454 1.397 . S
C458 C457 1.394 . S
C459 H431 0.982 . S
C459 H435 0.979 . S
C459 H436 0.977 . S
C459 C456 1.453 . S
C460 H432 0.979 . S
C460 H433 0.980 . S
C460 H434 0.983 . S
C460 C456 1.684 . S
H461 C479 0.948 . S
H462 C420 0.948 . S
H463 C438 0.979 . S
H464 C438 0.980 . S
H465 C438 0.983 . S
H466 C437 0.982 . S
H467 C437 0.979 . S
H468 C437 0.977 . S
H469 C439 0.948 . S
H470 C441 0.947 . S
H471 C442 0.948 . S
H472 C448 0.982 . S
H473 C448 0.979 . S
H474 C448 0.977 . S
H475 C449 0.979 . S
H476 C449 0.980 . S
H477 C449 0.983 . S
H478 C422 0.947 . S
C479 C422 1.392 . S
C479 C423 1.419 . S
C479 H461 0.948 . S
H480 C488 0.929 . S
H481 C490 0.930 . S
H482 C492 0.930 . S
H483 C495 0.929 . S
H484 C498 0.930 . S
H485 C500 0.960 . S
H486 C500 0.960 . S
H487 C500 0.960 . S
C488 H480 0.929 . S
C488 C489 1.377 . S
C488 C490 1.384 . S
C489 C488 1.377 . S
C489 C495 1.390 . S
C490 H481 0.930 . S
C490 C488 1.384 . S
C490 C491 1.372 . S
C491 C490 1.372 . S
C491 C492 1.400 . S
C491 C496 1.490 . S
C492 H482 0.930 . S
C492 C491 1.400 . S
C492 C495 1.386 . S
H493 C509 0.930 . S
H494 C510 0.931 . S
C495 H483 0.929 . S
C495 C489 1.390 . S
C495 C492 1.386 . S
C496 C491 1.490 . S
C496 C498 1.395 . S
C496 C499 1.403 . S
H497 C503 0.930 . S
C498 H484 0.930 . S
C498 C496 1.395 . S
C498 C501 1.403 . S
C499 C496 1.403 . S
C499 C500 1.524 . S
C499 C503 1.400 . S
C500 H485 0.960 . S
C500 H486 0.960 . S
C500 H487 0.960 . S
C500 C499 1.524 . S
C501 C498 1.403 . S
C501 C502 1.392 . S
C501 C505 1.495 . S
C502 C501 1.392 . S
C502 C503 1.385 . S
C502 C504 1.478 . S
C503 H497 0.930 . S
C503 C499 1.400 . S
C503 C502 1.385 . S
C504 C502 1.478 . S
C504 C506 1.381 . S
C504 C510 1.383 . S
C505 C501 1.495 . S
C505 H511 0.959 . S
C505 H512 0.961 . S
C505 H513 0.960 . S
C506 C504 1.381 . S
C506 C507 1.394 . S
C506 H514 0.930 . S
C507 C506 1.394 . S
C507 C508 1.383 . S
C507 H515 0.929 . S
C508 C507 1.383 . S
C508 C509 1.377 . S
C509 H493 0.930 . S
C509 C508 1.377 . S
C509 C510 1.379 . S
C510 H494 0.931 . S
C510 C504 1.383 . S
C510 C509 1.379 . S
H511 C505 0.959 . S
H512 C505 0.961 . S
H513 C505 0.960 . S
H514 C506 0.930 . S
H515 C507 0.929 . S
H516 C524 0.929 . S
H517 C526 0.930 . S
H518 C528 0.930 . S
H519 C531 0.929 . S
H520 C534 0.930 . S
H521 C536 0.960 . S
H522 C536 0.960 . S
H523 C536 0.960 . S
C524 H516 0.929 . S
C524 C525 1.377 . S
C524 C526 1.384 . S
C525 C524 1.377 . S
C525 C531 1.390 . S
C526 H517 0.930 . S
C526 C524 1.384 . S
C526 C527 1.372 . S
C527 C526 1.372 . S
C527 C528 1.400 . S
C527 C532 1.490 . S
C528 H518 0.930 . S
C528 C527 1.400 . S
C528 C531 1.386 . S
H529 C545 0.930 . S
H530 C546 0.931 . S
C531 H519 0.929 . S
C531 C525 1.390 . S
C531 C528 1.386 . S
C532 C527 1.490 . S
C532 C534 1.395 . S
C532 C535 1.403 . S
H533 C539 0.930 . S
C534 H520 0.930 . S
C534 C532 1.395 . S
C534 C537 1.403 . S
C535 C532 1.403 . S
C535 C536 1.524 . S
C535 C539 1.400 . S
C536 H521 0.960 . S
C536 H522 0.960 . S
C536 H523 0.960 . S
C536 C535 1.524 . S
C537 C534 1.403 . S
C537 C538 1.392 . S
C537 C541 1.495 . S
C538 C537 1.392 . S
C538 C539 1.385 . S
C538 C540 1.478 . S
C539 H533 0.930 . S
C539 C535 1.400 . S
C539 C538 1.385 . S
C540 C538 1.478 . S
C540 C542 1.381 . S
C540 C546 1.383 . S
C541 C537 1.495 . S
C541 H547 0.959 . S
C541 H548 0.961 . S
C541 H549 0.960 . S
C542 C540 1.381 . S
C542 C543 1.394 . S
C542 H550 0.930 . S
C543 C542 1.394 . S
C543 C544 1.383 . S
C543 H551 0.929 . S
C544 C543 1.383 . S
C544 C545 1.377 . S
C545 H529 0.930 . S
C545 C544 1.377 . S
C545 C546 1.379 . S
C546 H530 0.931 . S
C546 C540 1.383 . S
C546 C545 1.379 . S
H547 C541 0.959 . S
H548 C541 0.961 . S
H549 C541 0.960 . S
H550 C542 0.930 . S
H551 C543 0.929 . S
H552 C560 0.929 . S
H553 C562 0.930 . S
H554 C564 0.930 . S
H555 C567 0.929 . S
H556 C570 0.930 . S
H557 C572 0.960 . S
H558 C572 0.960 . S
H559 C572 0.960 . S
C560 H552 0.929 . S
C560 C561 1.377 . S
C560 C562 1.384 . S
C561 C560 1.377 . S
C561 C567 1.390 . S
C562 H553 0.930 . S
C562 C560 1.384 . S
C562 C563 1.372 . S
C563 C562 1.372 . S
C563 C564 1.400 . S
C563 C568 1.490 . S
C564 H554 0.930 . S
C564 C563 1.400 . S
C564 C567 1.386 . S
H565 C581 0.930 . S
H566 C582 0.931 . S
C567 H555 0.929 . S
C567 C561 1.390 . S
C567 C564 1.386 . S
C568 C563 1.490 . S
C568 C570 1.395 . S
C568 C571 1.403 . S
H569 C575 0.930 . S
C570 H556 0.930 . S
C570 C568 1.395 . S
C570 C573 1.403 . S
C571 C568 1.403 . S
C571 C572 1.524 . S
C571 C575 1.400 . S
C572 H557 0.960 . S
C572 H558 0.960 . S
C572 H559 0.960 . S
C572 C571 1.524 . S
C573 C570 1.403 . S
C573 C574 1.392 . S
C573 C577 1.495 . S
C574 C573 1.392 . S
C574 C575 1.385 . S
C574 C576 1.478 . S
C575 H569 0.930 . S
C575 C571 1.400 . S
C575 C574 1.385 . S
C576 C574 1.478 . S
C576 C578 1.381 . S
C576 C582 1.383 . S
C577 C573 1.495 . S
C577 H583 0.959 . S
C577 H584 0.961 . S
C577 H585 0.960 . S
C578 C576 1.381 . S
C578 C579 1.394 . S
C578 H586 0.930 . S
C579 C578 1.394 . S
C579 C580 1.383 . S
C579 H587 0.929 . S
C580 C579 1.383 . S
C580 C581 1.377 . S
C581 H565 0.930 . S
C581 C580 1.377 . S
C581 C582 1.379 . S
C582 H566 0.931 . S
C582 C576 1.383 . S
C582 C581 1.379 . S
H583 C577 0.959 . S
H584 C577 0.961 . S
H585 C577 0.960 . S
H586 C578 0.930 . S
H587 C579 0.929 . S
H588 C596 0.929 . S
H589 C598 0.930 . S
H590 C600 0.930 . S
H591 C603 0.929 . S
H592 C606 0.930 . S
H593 C608 0.960 . S
H594 C608 0.960 . S
H595 C608 0.960 . S
C596 H588 0.929 . S
C596 C597 1.377 . S
C596 C598 1.384 . S
C597 C596 1.377 . S
C597 C603 1.390 . S
C598 H589 0.930 . S
C598 C596 1.384 . S
C598 C599 1.372 . S
C599 C598 1.372 . S
C599 C600 1.400 . S
C599 C604 1.490 . S
C600 H590 0.930 . S
C600 C599 1.400 . S
C600 C603 1.386 . S
H601 C617 0.930 . S
H602 C618 0.931 . S
C603 H591 0.929 . S
C603 C597 1.390 . S
C603 C600 1.386 . S
C604 C599 1.490 . S
C604 C606 1.395 . S
C604 C607 1.403 . S
H605 C611 0.930 . S
C606 H592 0.930 . S
C606 C604 1.395 . S
C606 C609 1.403 . S
C607 C604 1.403 . S
C607 C608 1.524 . S
C607 C611 1.400 . S
C608 H593 0.960 . S
C608 H594 0.960 . S
C608 H595 0.960 . S
C608 C607 1.524 . S
C609 C606 1.403 . S
C609 C610 1.392 . S
C609 C613 1.495 . S
C610 C609 1.392 . S
C610 C611 1.385 . S
C610 C612 1.478 . S
C611 H605 0.930 . S
C611 C607 1.400 . S
C611 C610 1.385 . S
C612 C610 1.478 . S
C612 C614 1.381 . S
C612 C618 1.383 . S
C613 C609 1.495 . S
C613 H619 0.959 . S
C613 H620 0.961 . S
C613 H621 0.960 . S
C614 C612 1.381 . S
C614 C615 1.394 . S
C614 H622 0.930 . S
C615 C614 1.394 . S
C615 C616 1.383 . S
C615 H623 0.929 . S
C616 C615 1.383 . S
C616 C617 1.377 . S
C617 H601 0.930 . S
C617 C616 1.377 . S
C617 C618 1.379 . S
C618 H602 0.931 . S
C618 C612 1.383 . S
C618 C617 1.379 . S
H619 C613 0.959 . S
H620 C613 0.961 . S
H621 C613 0.960 . S
H622 C614 0.930 . S
H623 C615 0.929 . S
H624 C632 0.929 . S
H625 C634 0.930 . S
H626 C636 0.930 . S
H627 C639 0.929 . S
H628 C642 0.930 . S
H629 C644 0.960 . S
H630 C644 0.960 . S
H631 C644 0.960 . S
C632 H624 0.929 . S
C632 C633 1.377 . S
C632 C634 1.384 . S
C633 C632 1.377 . S
C633 C639 1.390 . S
C634 H625 0.930 . S
C634 C632 1.384 . S
C634 C635 1.372 . S
C635 C634 1.372 . S
C635 C636 1.400 . S
C635 C640 1.490 . S
C636 H626 0.930 . S
C636 C635 1.400 . S
C636 C639 1.386 . S
H637 C653 0.930 . S
H638 C654 0.931 . S
C639 H627 0.929 . S
C639 C633 1.390 . S
C639 C636 1.386 . S
C640 C635 1.490 . S
C640 C642 1.395 . S
C640 C643 1.403 . S
H641 C647 0.930 . S
C642 H628 0.930 . S
C642 C640 1.395 . S
C642 C645 1.403 . S
C643 C640 1.403 . S
C643 C644 1.524 . S
C643 C647 1.400 . S
C644 H629 0.960 . S
C644 H630 0.960 . S
C644 H631 0.960 . S
C644 C643 1.524 . S
C645 C642 1.403 . S
C645 C646 1.392 . S
C645 C649 1.495 . S
C646 C645 1.392 . S
C646 C647 1.385 . S
C646 C648 1.478 . S
C647 H641 0.930 . S
C647 C643 1.400 . S
C647 C646 1.385 . S
C648 C646 1.478 . S
C648 C650 1.381 . S
C648 C654 1.383 . S
C649 C645 1.495 . S
C649 H655 0.959 . S
C649 H656 0.961 . S
C649 H657 0.960 . S
C650 C648 1.381 . S
C650 C651 1.394 . S
C650 H658 0.930 . S
C651 C650 1.394 . S
C651 C652 1.383 . S
C651 H659 0.929 . S
C652 C651 1.383 . S
C652 C653 1.377 . S
C653 H637 0.930 . S
C653 C652 1.377 . S
C653 C654 1.379 . S
C654 H638 0.931 . S
C654 C648 1.383 . S
C654 C653 1.379 . S
H655 C649 0.959 . S
H656 C649 0.961 . S
H657 C649 0.960 . S
H658 C650 0.930 . S
H659 C651 0.929 . S
H660 C668 0.929 . S
H661 C670 0.930 . S
H662 C672 0.930 . S
H663 C675 0.929 . S
H664 C678 0.930 . S
H665 C680 0.960 . S
H666 C680 0.960 . S
H667 C680 0.960 . S
C668 H660 0.929 . S
C668 C669 1.377 . S
C668 C670 1.384 . S
C669 C668 1.377 . S
C669 C675 1.390 . S
C670 H661 0.930 . S
C670 C668 1.384 . S
C670 C671 1.372 . S
C671 C670 1.372 . S
C671 C672 1.400 . S
C671 C676 1.490 . S
C672 H662 0.930 . S
C672 C671 1.400 . S
C672 C675 1.386 . S
H673 C689 0.930 . S
H674 C690 0.931 . S
C675 H663 0.929 . S
C675 C669 1.390 . S
C675 C672 1.386 . S
C676 C671 1.490 . S
C676 C678 1.395 . S
C676 C679 1.403 . S
H677 C683 0.930 . S
C678 H664 0.930 . S
C678 C676 1.395 . S
C678 C681 1.403 . S
C679 C676 1.403 . S
C679 C680 1.524 . S
C679 C683 1.400 . S
C680 H665 0.960 . S
C680 H666 0.960 . S
C680 H667 0.960 . S
C680 C679 1.524 . S
C681 C678 1.403 . S
C681 C682 1.392 . S
C681 C685 1.495 . S
C682 C681 1.392 . S
C682 C683 1.385 . S
C682 C684 1.478 . S
C683 H677 0.930 . S
C683 C679 1.400 . S
C683 C682 1.385 . S
C684 C682 1.478 . S
C684 C686 1.381 . S
C684 C690 1.383 . S
C685 C681 1.495 . S
C685 H691 0.959 . S
C685 H692 0.961 . S
C685 H693 0.960 . S
C686 C684 1.381 . S
C686 C687 1.394 . S
C686 H694 0.930 . S
C687 C686 1.394 . S
C687 C688 1.383 . S
C687 H695 0.929 . S
C688 C687 1.383 . S
C688 C689 1.377 . S
C689 H673 0.930 . S
C689 C688 1.377 . S
C689 C690 1.379 . S
C690 H674 0.931 . S
C690 C684 1.383 . S
C690 C689 1.379 . S
H691 C685 0.959 . S
H692 C685 0.961 . S
H693 C685 0.960 . S
H694 C686 0.930 . S
H695 C687 0.929 . S
H696 C704 0.929 . S
H697 C706 0.930 . S
H698 C708 0.930 . S
H699 C711 0.929 . S
H700 C714 0.930 . S
H701 C716 0.960 . S
H702 C716 0.960 . S
H703 C716 0.960 . S
C704 H696 0.929 . S
C704 C705 1.377 . S
C704 C706 1.384 . S
C705 C704 1.377 . S
C705 C711 1.390 . S
C706 H697 0.930 . S
C706 C704 1.384 . S
C706 C707 1.372 . S
C707 C706 1.372 . S
C707 C708 1.400 . S
C707 C712 1.490 . S
C708 H698 0.930 . S
C708 C707 1.400 . S
C708 C711 1.386 . S
H709 C725 0.930 . S
H710 C726 0.931 . S
C711 H699 0.929 . S
C711 C705 1.390 . S
C711 C708 1.386 . S
C712 C707 1.490 . S
C712 C714 1.395 . S
C712 C715 1.403 . S
H713 C719 0.930 . S
C714 H700 0.930 . S
C714 C712 1.395 . S
C714 C717 1.403 . S
C715 C712 1.403 . S
C715 C716 1.524 . S
C715 C719 1.400 . S
C716 H701 0.960 . S
C716 H702 0.960 . S
C716 H703 0.960 . S
C716 C715 1.524 . S
C717 C714 1.403 . S
C717 C718 1.392 . S
C717 C721 1.495 . S
C718 C717 1.392 . S
C718 C719 1.385 . S
C718 C720 1.478 . S
C719 H713 0.930 . S
C719 C715 1.400 . S
C719 C718 1.385 . S
C720 C718 1.478 . S
C720 C722 1.381 . S
C720 C726 1.383 . S
C721 C717 1.495 . S
C721 H727 0.959 . S
C721 H728 0.961 . S
C721 H729 0.960 . S
C722 C720 1.381 . S
C722 C723 1.394 . S
C722 H730 0.930 . S
C723 C722 1.394 . S
C723 C724 1.383 . S
C723 H731 0.929 . S
C724 C723 1.383 . S
C724 C725 1.377 . S
C725 H709 0.930 . S
C725 C724 1.377 . S
C725 C726 1.379 . S
C726 H710 0.931 . S
C726 C720 1.383 . S
C726 C725 1.379 . S
H727 C721 0.959 . S
H728 C721 0.961 . S
H729 C721 0.960 . S
H730 C722 0.930 . S
H731 C723 0.929 . S
H732 C740 0.929 . S
H733 C742 0.930 . S
H734 C744 0.930 . S
H735 C747 0.929 . S
H736 C750 0.930 . S
H737 C752 0.960 . S
H738 C752 0.960 . S
H739 C752 0.960 . S
C740 H732 0.929 . S
C740 C741 1.377 . S
C740 C742 1.384 . S
C741 C740 1.377 . S
C741 C747 1.390 . S
C742 H733 0.930 . S
C742 C740 1.384 . S
C742 C743 1.372 . S
C743 C742 1.372 . S
C743 C744 1.400 . S
C743 C748 1.490 . S
C744 H734 0.930 . S
C744 C743 1.400 . S
C744 C747 1.386 . S
H745 C761 0.930 . S
H746 C762 0.931 . S
C747 H735 0.929 . S
C747 C741 1.390 . S
C747 C744 1.386 . S
C748 C743 1.490 . S
C748 C750 1.395 . S
C748 C751 1.403 . S
H749 C755 0.930 . S
C750 H736 0.930 . S
C750 C748 1.395 . S
C750 C753 1.403 . S
C751 C748 1.403 . S
C751 C752 1.524 . S
C751 C755 1.400 . S
C752 H737 0.960 . S
C752 H738 0.960 . S
C752 H739 0.960 . S
C752 C751 1.524 . S
C753 C750 1.403 . S
C753 C754 1.392 . S
C753 C757 1.495 . S
C754 C753 1.392 . S
C754 C755 1.385 . S
C754 C756 1.478 . S
C755 H749 0.930 . S
C755 C751 1.400 . S
C755 C754 1.385 . S
C756 C754 1.478 . S
C756 C758 1.381 . S
C756 C762 1.383 . S
C757 C753 1.495 . S
C757 H763 0.959 . S
C757 H764 0.961 . S
C757 H765 0.960 . S
C758 C756 1.381 . S
C758 C759 1.394 . S
C758 H766 0.930 . S
C759 C758 1.394 . S
C759 C760 1.383 . S
C759 H767 0.929 . S
C760 C759 1.383 . S
C760 C761 1.377 . S
C761 H745 0.930 . S
C761 C760 1.377 . S
C761 C762 1.379 . S
C762 H746 0.931 . S
C762 C756 1.383 . S
C762 C761 1.379 . S
H763 C757 0.959 . S
H764 C757 0.961 . S
H765 C757 0.960 . S
H766 C758 0.930 . S
H767 C759 0.929 . S
H768 C776 0.929 . S
H769 C778 0.930 . S
H770 C780 0.930 . S
H771 C783 0.929 . S
H772 C786 0.930 . S
H773 C788 0.960 . S
H774 C788 0.960 . S
H775 C788 0.960 . S
C776 H768 0.929 . S
C776 C777 1.377 . S
C776 C778 1.384 . S
C777 C776 1.377 . S
C777 C783 1.390 . S
C778 H769 0.930 . S
C778 C776 1.384 . S
C778 C779 1.372 . S
C779 C778 1.372 . S
C779 C780 1.400 . S
C779 C784 1.490 . S
C780 H770 0.930 . S
C780 C779 1.400 . S
C780 C783 1.386 . S
H781 C797 0.930 . S
H782 C798 0.931 . S
C783 H771 0.929 . S
C783 C777 1.390 . S
C783 C780 1.386 . S
C784 C779 1.490 . S
C784 C786 1.395 . S
C784 C787 1.403 . S
H785 C791 0.930 . S
C786 H772 0.930 . S
C786 C784 1.395 . S
C786 C789 1.403 . S
C787 C784 1.403 . S
C787 C788 1.524 . S
C787 C791 1.400 . S
C788 H773 0.960 . S
C788 H774 0.960 . S
C788 H775 0.960 . S
C788 C787 1.524 . S
C789 C786 1.403 . S
C789 C790 1.392 . S
C789 C793 1.495 . S
C790 C789 1.392 . S
C790 C791 1.385 . S
C790 C792 1.478 . S
C791 H785 0.930 . S
C791 C787 1.400 . S
C791 C790 1.385 . S
C792 C790 1.478 . S
C792 C794 1.381 . S
C792 C798 1.383 . S
C793 C789 1.495 . S
C793 H799 0.959 . S
C793 H800 0.961 . S
C793 H801 0.960 . S
C794 C792 1.381 . S
C794 C795 1.394 . S
C794 H802 0.930 . S
C795 C794 1.394 . S
C795 C796 1.383 . S
C795 H803 0.929 . S
C796 C795 1.383 . S
C796 C797 1.377 . S
C797 H781 0.930 . S
C797 C796 1.377 . S
C797 C798 1.379 . S
C798 H782 0.931 . S
C798 C792 1.383 . S
C798 C797 1.379 . S
H799 C793 0.959 . S
H800 C793 0.961 . S
H801 C793 0.960 . S
H802 C794 0.930 . S
H803 C795 0.929 . S
H804 C812 0.929 . S
H805 C814 0.930 . S
H806 C816 0.930 . S
H807 C819 0.929 . S
H808 C822 0.930 . S
H809 C824 0.960 . S
H810 C824 0.960 . S
H811 C824 0.960 . S
C812 H804 0.929 . S
C812 C813 1.377 . S
C812 C814 1.384 . S
C813 C812 1.377 . S
C813 C819 1.390 . S
C814 H805 0.930 . S
C814 C812 1.384 . S
C814 C815 1.372 . S
C815 C814 1.372 . S
C815 C816 1.400 . S
C815 C820 1.490 . S
C816 H806 0.930 . S
C816 C815 1.400 . S
C816 C819 1.386 . S
H817 C833 0.930 . S
H818 C834 0.931 . S
C819 H807 0.929 . S
C819 C813 1.390 . S
C819 C816 1.386 . S
C820 C815 1.490 . S
C820 C822 1.395 . S
C820 C823 1.403 . S
H821 C827 0.930 . S
C822 H808 0.930 . S
C822 C820 1.395 . S
C822 C825 1.403 . S
C823 C820 1.403 . S
C823 C824 1.524 . S
C823 C827 1.400 . S
C824 H809 0.960 . S
C824 H810 0.960 . S
C824 H811 0.960 . S
C824 C823 1.524 . S
C825 C822 1.403 . S
C825 C826 1.392 . S
C825 C829 1.495 . S
C826 C825 1.392 . S
C826 C827 1.385 . S
C826 C828 1.478 . S
C827 H821 0.930 . S
C827 C823 1.400 . S
C827 C826 1.385 . S
C828 C826 1.478 . S
C828 C830 1.381 . S
C828 C834 1.383 . S
C829 C825 1.495 . S
C829 H835 0.959 . S
C829 H836 0.961 . S
C829 H837 0.960 . S
C830 C828 1.381 . S
C830 C831 1.394 . S
C830 H838 0.930 . S
C831 C830 1.394 . S
C831 C832 1.383 . S
C831 H839 0.929 . S
C832 C831 1.383 . S
C832 C833 1.377 . S
C833 H817 0.930 . S
C833 C832 1.377 . S
C833 C834 1.379 . S
C834 H818 0.931 . S
C834 C828 1.383 . S
C834 C833 1.379 . S
H835 C829 0.959 . S
H836 C829 0.961 . S
H837 C829 0.960 . S
H838 C830 0.930 . S
H839 C831 0.929 . S
H840 C848 0.929 . S
H841 C850 0.930 . S
H842 C852 0.930 . S
H843 C855 0.929 . S
H844 C858 0.930 . S
H845 C860 0.960 . S
H846 C860 0.960 . S
H847 C860 0.960 . S
C848 H840 0.929 . S
C848 C849 1.377 . S
C848 C850 1.384 . S
C849 C848 1.377 . S
C849 C855 1.390 . S
C850 H841 0.930 . S
C850 C848 1.384 . S
C850 C851 1.372 . S
C851 C850 1.372 . S
C851 C852 1.400 . S
C851 C856 1.490 . S
C852 H842 0.930 . S
C852 C851 1.400 . S
C852 C855 1.386 . S
H853 C869 0.930 . S
H854 C870 0.931 . S
C855 H843 0.929 . S
C855 C849 1.390 . S
C855 C852 1.386 . S
C856 C851 1.490 . S
C856 C858 1.395 . S
C856 C859 1.403 . S
H857 C863 0.930 . S
C858 H844 0.930 . S
C858 C856 1.395 . S
C858 C861 1.403 . S
C859 C856 1.403 . S
C859 C860 1.524 . S
C859 C863 1.400 . S
C860 H845 0.960 . S
C860 H846 0.960 . S
C860 H847 0.960 . S
C860 C859 1.524 . S
C861 C858 1.403 . S
C861 C862 1.392 . S
C861 C865 1.495 . S
C862 C861 1.392 . S
C862 C863 1.385 . S
C862 C864 1.478 . S
C863 H857 0.930 . S
C863 C859 1.400 . S
C863 C862 1.385 . S
C864 C862 1.478 . S
C864 C866 1.381 . S
C864 C870 1.383 . S
C865 C861 1.495 . S
C865 H871 0.959 . S
C865 H872 0.961 . S
C865 H873 0.960 . S
C866 C864 1.381 . S
C866 C867 1.394 . S
C866 H874 0.930 . S
C867 C866 1.394 . S
C867 C868 1.383 . S
C867 H875 0.929 . S
C868 C867 1.383 . S
C868 C869 1.377 . S
C869 H853 0.930 . S
C869 C868 1.377 . S
C869 C870 1.379 . S
C870 H854 0.931 . S
C870 C864 1.383 . S
C870 C869 1.379 . S
H871 C865 0.959 . S
H872 C865 0.961 . S
H873 C865 0.960 . S
H874 C866 0.930 . S
H875 C867 0.929 . S
H876 C884 0.929 . S
H877 C886 0.930 . S
H878 C888 0.930 . S
H879 C891 0.929 . S
H880 C894 0.930 . S
H881 C896 0.960 . S
H882 C896 0.960 . S
H883 C896 0.960 . S
C884 H876 0.929 . S
C884 C885 1.377 . S
C884 C886 1.384 . S
C885 C884 1.377 . S
C885 C891 1.390 . S
C886 H877 0.930 . S
C886 C884 1.384 . S
C886 C887 1.372 . S
C887 C886 1.372 . S
C887 C888 1.400 . S
C887 C892 1.490 . S
C888 H878 0.930 . S
C888 C887 1.400 . S
C888 C891 1.386 . S
H889 C905 0.930 . S
H890 C906 0.931 . S
C891 H879 0.929 . S
C891 C885 1.390 . S
C891 C888 1.386 . S
C892 C887 1.490 . S
C892 C894 1.395 . S
C892 C895 1.403 . S
H893 C899 0.930 . S
C894 H880 0.930 . S
C894 C892 1.395 . S
C894 C897 1.403 . S
C895 C892 1.403 . S
C895 C896 1.524 . S
C895 C899 1.400 . S
C896 H881 0.960 . S
C896 H882 0.960 . S
C896 H883 0.960 . S
C896 C895 1.524 . S
C897 C894 1.403 . S
C897 C898 1.392 . S
C897 C901 1.495 . S
C898 C897 1.392 . S
C898 C899 1.385 . S
C898 C900 1.478 . S
C899 H893 0.930 . S
C899 C895 1.400 . S
C899 C898 1.385 . S
C900 C898 1.478 . S
C900 C902 1.381 . S
C900 C906 1.383 . S
C901 C897 1.495 . S
C901 H907 0.959 . S
C901 H908 0.961 . S
C901 H909 0.960 . S
C902 C900 1.381 . S
C902 C903 1.394 . S
C902 H910 0.930 . S
C903 C902 1.394 . S
C903 C904 1.383 . S
C903 H911 0.929 . S
C904 C903 1.383 . S
C904 C905 1.377 . S
C905 H889 0.930 . S
C905 C904 1.377 . S
C905 C906 1.379 . S
C906 H890 0.931 . S
C906 C900 1.383 . S
C906 C905 1.379 . S
H907 C901 0.959 . S
H908 C901 0.961 . S
H909 C901 0.960 . S
H910 C902 0.930 . S
H911 C903 0.929 . S
H912 C920 0.929 . S
H913 C922 0.930 . S
H914 C924 0.930 . S
H915 C927 0.929 . S
H916 C930 0.930 . S
H917 C932 0.960 . S
H918 C932 0.960 . S
H919 C932 0.960 . S
C920 H912 0.929 . S
C920 C921 1.377 . S
C920 C922 1.384 . S
C921 C920 1.377 . S
C921 C927 1.390 . S
C922 H913 0.930 . S
C922 C920 1.384 . S
C922 C923 1.372 . S
C923 C922 1.372 . S
C923 C924 1.400 . S
C923 C928 1.490 . S
C924 H914 0.930 . S
C924 C923 1.400 . S
C924 C927 1.386 . S
H925 C941 0.930 . S
H926 C942 0.931 . S
C927 H915 0.929 . S
C927 C921 1.390 . S
C927 C924 1.386 . S
C928 C923 1.490 . S
C928 C930 1.395 1_455 S
C928 C931 1.403 . S
H929 C935 0.930 . S
C930 H916 0.930 . S
C930 C928 1.395 1_655 S
C930 C933 1.403 . S
C931 C928 1.403 . S
C931 C932 1.524 . S
C931 C935 1.400 . S
C932 H917 0.960 . S
C932 H918 0.960 . S
C932 H919 0.960 . S
C932 C931 1.524 . S
C933 C930 1.403 . S
C933 C934 1.392 1_655 S
C933 C937 1.495 . S
C934 C933 1.392 1_455 S
C934 C935 1.385 . S
C934 C936 1.478 . S
C935 H929 0.930 . S
C935 C931 1.400 . S
C935 C934 1.385 . S
C936 C934 1.478 . S
C936 C938 1.381 . S
C936 C942 1.383 . S
C937 C933 1.495 . S
C937 H943 0.959 . S
C937 H944 0.961 . S
C937 H945 0.960 . S
C938 C936 1.381 . S
C938 C939 1.394 1_554 S
C938 H946 0.930 . S
C939 C938 1.394 1_556 S
C939 C940 1.383 . S
C939 H947 0.929 . S
C940 C939 1.383 . S
C940 C941 1.377 . S
C941 H925 0.930 . S
C941 C940 1.377 . S
C941 C942 1.379 1_556 S
C942 H926 0.931 . S
C942 C936 1.383 . S
C942 C941 1.379 1_554 S
H943 C937 0.959 . S
H944 C937 0.961 . S
H945 C937 0.960 . S
H946 C938 0.930 . S
H947 C939 0.929 . S
H948 C956 0.929 . S
H949 C958 0.930 . S
H950 C960 0.931 . S
H951 C963 0.938 . S
H952 C966 0.930 . S
H953 C968 0.960 . S
H954 C968 0.960 . S
H955 C968 0.960 . S
C956 H948 0.929 . S
C956 C957 1.377 . S
C956 C958 1.384 . S
C957 C956 1.377 . S
C957 C963 1.390 . S
C958 H949 0.930 . S
C958 C956 1.384 . S
C958 C959 1.372 . S
C959 C958 1.372 . S
C959 C960 1.400 . S
C959 C964 1.490 . S
C960 H950 0.931 . S
C960 C959 1.400 . S
C960 C963 1.386 . S
H961 C977 0.930 1_565 S
H962 C978 0.931 1_565 S
C963 H951 0.938 . S
C963 C957 1.390 . S
C963 C960 1.386 . S
C964 C959 1.490 . S
C964 C966 1.395 . S
C964 C967 1.403 . S
H965 C971 0.930 . S
C966 H952 0.930 . S
C966 C964 1.395 . S
C966 C969 1.403 . S
C967 C964 1.403 . S
C967 C968 1.524 . S
C967 C971 1.400 . S
C968 H953 0.960 . S
C968 H954 0.960 . S
C968 H955 0.960 . S
C968 C967 1.524 . S
C969 C966 1.403 . S
C969 C970 1.392 . S
C969 C973 1.495 . S
C970 C969 1.392 . S
C970 C971 1.385 . S
C970 C972 1.478 . S
C971 H965 0.930 . S
C971 C967 1.400 . S
C971 C970 1.385 . S
C972 C970 1.478 . S
C972 C974 1.381 . S
C972 C978 1.383 . S
C973 C969 1.495 . S
C973 H979 0.959 . S
C973 H980 0.961 1_545 S
C973 H981 0.960 . S
C974 C972 1.381 . S
C974 C975 1.394 . S
C974 H982 0.930 . S
C975 C974 1.394 . S
C975 C976 1.383 . S
C975 H983 0.929 . S
C976 C975 1.383 . S
C976 C977 1.377 . S
C977 H961 0.930 1_545 S
C977 C976 1.377 . S
C977 C978 1.379 . S
C978 H962 0.931 1_545 S
C978 C972 1.383 . S
C978 C977 1.379 . S
H979 C973 0.959 . S
H980 C973 0.961 1_565 S
H981 C973 0.960 . S
H982 C974 0.930 . S
H983 C975 0.929 . S
H984 C992 0.929 . S
H985 C994 0.930 . S
H986 C996 0.930 . S
H987 C999 0.929 . S
H988 C1002 0.930 . S
H989 C1004 0.960 . S
H990 C1004 0.960 . S
H991 C1004 0.960 . S
C992 H984 0.929 . S
C992 C993 1.377 . S
C992 C994 1.384 . S
C993 C992 1.377 . S
C993 C999 1.390 . S
C994 H985 0.930 . S
C994 C992 1.384 . S
C994 C995 1.372 . S
C995 C994 1.372 . S
C995 C996 1.400 . S
C995 C1000 1.490 . S
C996 H986 0.930 . S
C996 C995 1.400 . S
C996 C999 1.386 . S
H997 C1013 0.930 . S
H998 C1014 0.931 . S
C999 H987 0.929 . S
C999 C993 1.390 . S
C999 C996 1.386 . S
C1000 C995 1.490 . S
C1000 C1002 1.395 . S
C1000 C1003 1.403 . S
H1001 C1007 0.930 . S
C1002 H988 0.930 . S
C1002 C1000 1.395 . S
C1002 C1005 1.403 . S
C1003 C1000 1.403 . S
C1003 C1004 1.524 . S
C1003 C1007 1.400 . S
C1004 H989 0.960 . S
C1004 H990 0.960 . S
C1004 H991 0.960 . S
C1004 C1003 1.524 . S
C1005 C1002 1.403 . S
C1005 C1006 1.392 . S
C1005 C1009 1.495 . S
C1006 C1005 1.392 . S
C1006 C1007 1.385 . S
C1006 C1008 1.478 . S
C1007 H1001 0.930 . S
C1007 C1003 1.400 . S
C1007 C1006 1.385 . S
C1008 C1006 1.478 . S
C1008 C1010 1.381 . S
C1008 C1014 1.383 . S
C1009 C1005 1.495 . S
C1009 H1015 0.959 . S
C1009 H1016 0.961 . S
C1009 H1017 0.960 . S
C1010 C1008 1.381 . S
C1010 C1011 1.394 . S
C1010 H1018 0.930 . S
C1011 C1010 1.394 . S
C1011 C1012 1.383 . S
C1011 H1019 0.929 . S
C1012 C1011 1.383 . S
C1012 C1013 1.377 . S
C1013 H997 0.930 . S
C1013 C1012 1.377 . S
C1013 C1014 1.379 . S
C1014 H998 0.931 . S
C1014 C1008 1.383 . S
C1014 C1013 1.379 . S
H1015 C1009 0.959 . S
H1016 C1009 0.961 . S
H1017 C1009 0.960 . S
H1018 C1010 0.930 . S
H1019 C1011 0.929 . S
H1020 C1028 0.929 1_565 S
H1021 C1030 0.930 . S
H1022 C1032 0.930 . S
H1023 C1035 0.929 . S
H1024 C1038 0.930 . S
H1025 C1040 0.960 . S
H1026 C1040 0.960 . S
H1027 C1040 0.960 . S
C1028 H1020 0.929 1_545 S
C1028 C1029 1.377 . S
C1028 C1030 1.384 1_545 S
C1029 C1028 1.377 . S
C1029 C1035 1.390 . S
C1030 H1021 0.930 . S
C1030 C1028 1.384 1_565 S
C1030 C1031 1.372 1_565 S
C1031 C1030 1.372 1_545 S
C1031 C1032 1.400 . S
C1031 C1036 1.490 . S
C1032 H1022 0.930 . S
C1032 C1031 1.400 . S
C1032 C1035 1.386 . S
H1033 C1049 0.930 . S
H1034 C1050 0.931 . S
C1035 H1023 0.929 . S
C1035 C1029 1.390 . S
C1035 C1032 1.386 . S
C1036 C1031 1.490 . S
C1036 C1038 1.395 . S
C1036 C1039 1.403 . S
H1037 C1043 0.930 . S
C1038 H1024 0.930 . S
C1038 C1036 1.395 . S
C1038 C1041 1.403 . S
C1039 C1036 1.403 . S
C1039 C1040 1.524 . S
C1039 C1043 1.400 . S
C1040 H1025 0.960 . S
C1040 H1026 0.960 . S
C1040 H1027 0.960 . S
C1040 C1039 1.524 . S
C1041 C1038 1.403 . S
C1041 C1042 1.392 . S
C1041 C1045 1.495 1_545 S
C1042 C1041 1.392 . S
C1042 C1043 1.385 . S
C1042 C1044 1.478 . S
C1043 H1037 0.930 . S
C1043 C1039 1.400 . S
C1043 C1042 1.385 . S
C1044 C1042 1.478 . S
C1044 C1046 1.381 1_545 S
C1044 C1050 1.383 . S
C1045 C1041 1.495 1_565 S
C1045 H1051 0.959 . S
C1045 H1052 0.961 1_565 S
C1045 H1053 0.960 . S
C1046 C1044 1.381 1_565 S
C1046 C1047 1.394 . S
C1046 H1054 0.930 . S
C1047 C1046 1.394 . S
C1047 C1048 1.383 1_565 S
C1047 H1055 0.929 . S
C1048 C1047 1.383 1_545 S
C1048 C1049 1.377 . S
C1049 H1033 0.930 . S
C1049 C1048 1.377 . S
C1049 C1050 1.379 . S
C1050 H1034 0.931 . S
C1050 C1044 1.383 . S
C1050 C1049 1.379 . S
H1051 C1045 0.959 . S
H1052 C1045 0.961 1_545 S
H1053 C1045 0.960 . S
H1054 C1046 0.930 . S
H1055 C1047 0.929 . S
H1056 C1064 0.929 . S
H1057 C1066 0.930 . S
H1058 C1068 0.930 . S
H1059 C1071 0.929 . S
H1060 C1074 0.930 . S
H1061 C1076 0.960 . S
H1062 C1076 0.960 . S
H1063 C1076 0.960 . S
C1064 H1056 0.929 . S
C1064 C1065 1.377 . S
C1064 C1066 1.384 . S
C1065 C1064 1.377 . S
C1065 C1071 1.390 . S
C1066 H1057 0.930 . S
C1066 C1064 1.384 . S
C1066 C1067 1.372 . S
C1067 C1066 1.372 . S
C1067 C1068 1.400 . S
C1067 C1072 1.490 . S
C1068 H1058 0.930 . S
C1068 C1067 1.400 . S
C1068 C1071 1.386 . S
H1069 C1085 0.930 . S
H1070 C1086 0.931 . S
C1071 H1059 0.929 . S
C1071 C1065 1.390 . S
C1071 C1068 1.386 . S
C1072 C1067 1.490 . S
C1072 C1074 1.395 . S
C1072 C1075 1.403 . S
H1073 C1079 0.930 . S
C1074 H1060 0.930 . S
C1074 C1072 1.395 . S
C1074 C1077 1.403 . S
C1075 C1072 1.403 . S
C1075 C1076 1.524 . S
C1075 C1079 1.400 . S
C1076 H1061 0.960 . S
C1076 H1062 0.960 . S
C1076 H1063 0.960 . S
C1076 C1075 1.524 . S
C1077 C1074 1.403 . S
C1077 C1078 1.392 . S
C1077 C1081 1.495 . S
C1078 C1077 1.392 . S
C1078 C1079 1.385 . S
C1078 C1080 1.478 . S
C1079 H1073 0.930 . S
C1079 C1075 1.400 . S
C1079 C1078 1.385 . S
C1080 C1078 1.478 . S
C1080 C1082 1.381 . S
C1080 C1086 1.383 . S
C1081 C1077 1.495 . S
C1081 H1087 0.959 . S
C1081 H1088 0.961 . S
C1081 H1089 0.960 . S
C1082 C1080 1.381 . S
C1082 C1083 1.394 1_556 S
C1082 H1090 0.930 . S
C1083 C1082 1.394 1_554 S
C1083 C1084 1.383 . S
C1083 H1091 0.929 . S
C1084 C1083 1.383 . S
C1084 C1085 1.377 . S
C1085 H1069 0.930 . S
C1085 C1084 1.377 . S
C1085 C1086 1.379 1_554 S
C1086 H1070 0.931 . S
C1086 C1080 1.383 . S
C1086 C1085 1.379 1_556 S
H1087 C1081 0.959 . S
H1088 C1081 0.961 . S
H1089 C1081 0.960 . S
H1090 C1082 0.930 . S
H1091 C1083 0.929 . S
H1092 C1100 0.929 . S
H1093 C1102 0.930 . S
H1094 C1104 0.930 . S
H1095 C1107 0.929 . S
H1096 C1110 0.930 . S
H1097 C1112 0.960 . S
H1098 C1112 0.960 . S
H1099 C1112 0.960 . S
C1100 H1092 0.929 . S
C1100 C1101 1.377 . S
C1100 C1102 1.384 . S
C1101 C1100 1.377 . S
C1101 C1107 1.390 . S
C1102 H1093 0.930 . S
C1102 C1100 1.384 . S
C1102 C1103 1.372 . S
C1103 C1102 1.372 . S
C1103 C1104 1.400 . S
C1103 C1108 1.490 . S
C1104 H1094 0.930 . S
C1104 C1103 1.400 . S
C1104 C1107 1.386 . S
H1105 C1121 0.930 . S
H1106 C1122 0.931 . S
C1107 H1095 0.929 . S
C1107 C1101 1.390 . S
C1107 C1104 1.386 . S
C1108 C1103 1.490 . S
C1108 C1110 1.395 . S
C1108 C1111 1.403 1_455 S
H1109 C1115 0.930 . S
C1110 H1096 0.930 . S
C1110 C1108 1.395 . S
C1110 C1113 1.403 . S
C1111 C1108 1.403 1_655 S
C1111 C1112 1.524 . S
C1111 C1115 1.400 . S
C1112 H1097 0.960 . S
C1112 H1098 0.960 . S
C1112 H1099 0.960 . S
C1112 C1111 1.524 . S
C1113 C1110 1.403 . S
C1113 C1114 1.392 . S
C1113 C1117 1.495 . S
C1114 C1113 1.392 . S
C1114 C1115 1.385 1_455 S
C1114 C1116 1.478 . S
C1115 H1109 0.930 . S
C1115 C1111 1.400 . S
C1115 C1114 1.385 1_655 S
C1116 C1114 1.478 . S
C1116 C1118 1.381 . S
C1116 C1122 1.383 . S
C1117 C1113 1.495 . S
C1117 H1123 0.959 . S
C1117 H1124 0.961 . S
C1117 H1125 0.960 . S
C1118 C1116 1.381 . S
C1118 C1119 1.394 . S
C1118 H1126 0.930 . S
C1119 C1118 1.394 . S
C1119 C1120 1.383 . S
C1119 H1127 0.931 1_455 S
C1120 C1119 1.383 . S
C1120 C1121 1.377 . S
C1121 H1105 0.930 . S
C1121 C1120 1.377 . S
C1121 C1122 1.379 . S
C1122 H1106 0.931 . S
C1122 C1116 1.383 . S
C1122 C1121 1.379 . S
H1123 C1117 0.959 . S
H1124 C1117 0.961 . S
H1125 C1117 0.960 . S
H1126 C1118 0.930 . S
H1127 C1119 0.931 1_655 S
C489 C9 0.398 . S
C508 C451 0.338 . S
C525 C49 0.256 . S
C544 C301 0.352 . S
C561 C89 0.250 . S
C580 C361 0.342 . S
C597 C26 0.332 . S
C616 C421 0.328 . S
C652 C331 0.292 . S
C633 C66 0.414 . S
C688 C391 0.313 . S
C669 C106 0.447 . S
C705 C43 2.867 . S
C724 C181 2.712 . S
C741 C83 3.032 . S
C760 C271 3.016 . S
C777 C22 3.104 . S
C796 C151 3.084 . S
C832 C211 3.073 . S
C813 C62 3.092 . S
C868 C241 2.782 . S
C849 C102 2.924 . S
C885 C3 2.858 . S
C904 C121 2.719 . S
C940 C260 1.746 . S
C921 C15 1.724 . S
C957 C55 1.733 . S
C976 C140 1.752 . S
C993 C95 1.731 . S
C1012 C200 1.728 . S
C1048 C380 1.101 . S
C1029 C42 1.086 . S
C1084 C440 1.108 . S
C1065 C82 1.090 . S
C1101 C2 1.080 . S
C1120 C320 1.069 . S
