# Generated by pormake.
# Topology anh, (6,3)-cn, num edge types: 1
# Building blocks:
#     Node 0, Type 0, BuildingBlock: INOVEN_clean_sbu_0, # of connection points: 6
#     Node 1, Type 0, BuildingBlock: INOVEN_clean_sbu_0, # of connection points: 6
#     Node 2, Type 0, BuildingBlock: INOVEN_clean_sbu_0, # of connection points: 6
#     Node 3, Type 1, BuildingBlock: VETTIZ_charged_linker_0, # of connection points: 3
#     Node 4, Type 1, BuildingBlock: VETTIZ_charged_linker_0, # of connection points: 3
#     Node 5, Type 1, BuildingBlock: VETTIZ_charged_linker_0, # of connection points: 3
#     Node 6, Type 1, BuildingBlock: VETTIZ_charged_linker_0, # of connection points: 3
#     Node 7, Type 1, BuildingBlock: VETTIZ_charged_linker_0, # of connection points: 3
#     Node 8, Type 1, BuildingBlock: VETTIZ_charged_linker_0, # of connection points: 3
#     Edge 9, Type (0, 1), BuildingBlock: CIFDUS_clean_linker_0, # of connection points: 2
#     Edge 10, Type (0, 1), BuildingBlock: CIFDUS_clean_linker_0, # of connection points: 2
#     Edge 11, Type (0, 1), BuildingBlock: CIFDUS_clean_linker_0, # of connection points: 2
#     Edge 12, Type (0, 1), BuildingBlock: CIFDUS_clean_linker_0, # of connection points: 2
#     Edge 13, Type (0, 1), BuildingBlock: CIFDUS_clean_linker_0, # of connection points: 2
#     Edge 14, Type (0, 1), BuildingBlock: CIFDUS_clean_linker_0, # of connection points: 2
#     Edge 15, Type (0, 1), BuildingBlock: CIFDUS_clean_linker_0, # of connection points: 2
#     Edge 16, Type (0, 1), BuildingBlock: CIFDUS_clean_linker_0, # of connection points: 2
#     Edge 17, Type (0, 1), BuildingBlock: CIFDUS_clean_linker_0, # of connection points: 2
#     Edge 18, Type (0, 1), BuildingBlock: CIFDUS_clean_linker_0, # of connection points: 2
#     Edge 19, Type (0, 1), BuildingBlock: CIFDUS_clean_linker_0, # of connection points: 2
#     Edge 20, Type (0, 1), BuildingBlock: CIFDUS_clean_linker_0, # of connection points: 2
#     Edge 21, Type (0, 1), BuildingBlock: CIFDUS_clean_linker_0, # of connection points: 2
#     Edge 22, Type (0, 1), BuildingBlock: CIFDUS_clean_linker_0, # of connection points: 2
#     Edge 23, Type (0, 1), BuildingBlock: CIFDUS_clean_linker_0, # of connection points: 2
#     Edge 24, Type (0, 1), BuildingBlock: CIFDUS_clean_linker_0, # of connection points: 2
#     Edge 25, Type (0, 1), BuildingBlock: CIFDUS_clean_linker_0, # of connection points: 2
#     Edge 26, Type (0, 1), BuildingBlock: CIFDUS_clean_linker_0, # of connection points: 2
# Relax obj value: 0.194
# Max RMSD: 0.221
# Mean RMSD: 0.164
data_MOF--net-anh--node1-INOVEN_clean_sbu_0--node2-VETTIZ_charged_linker_0--edge1-CIFDUS_clean_linker_0
_symmetry_space_group_name_H-M    P1
_symmetry_Int_Tables_number       1
_symmetry_cell_setting            triclinic
loop_
_symmetry_equiv_pos_as_xyz
'x, y, z'
_cell_length_a     33.318506
_cell_length_b     39.628445
_cell_length_c     60.019269
_cell_angle_alpha  92.881293
_cell_angle_beta   89.398104
_cell_angle_gamma 129.695
loop_
_atom_site_label
_atom_site_type_symbol
_atom_site_fract_x
_atom_site_fract_y
_atom_site_fract_z
_atom_type_partial_charge
Gd0 Gd 0.1195 0.50077 0.15648 0.0
Gd1 Gd 0.07412 0.54355 0.15546 0.0
C2 C 0.19619 0.60934 0.15594 0.0
C3 C 0.18436 0.48756 0.15467 0.0
C4 C 0.24066 0.52381 0.15813 0.0
C5 C 0.26274 0.53947 0.17983 0.0
C6 C 0.27141 0.54741 0.14001 0.0
C7 C 0.34844 0.59251 0.16455 0.0
C8 C 0.32454 0.58198 0.1432 0.0
C9 C 0.31578 0.57477 0.18303 0.0
C10 C 0.08085 0.50207 0.19569 0.0
C11 C 0.99807 0.43625 0.1497 0.0
C12 C 1.02928 0.57158 0.17246 0.0
C13 C 0.97673 0.54343 0.18103 0.0
C14 C 0.9389 0.5402 0.16894 0.0
C15 C 0.96161 0.51107 0.19609 0.0
C16 C 0.87194 0.46944 0.18404 0.0
C17 C 0.90904 0.47428 0.19778 0.0
C18 C 0.88738 0.50303 0.16986 0.0
C19 C 0.08677 0.53142 0.11202 0.0
O20 O 0.192 0.57416 0.15864 0.0
O21 O 0.15471 0.60586 0.15352 0.0
O22 O 0.1563 0.47855 0.17225 0.0
O23 O 0.16325 0.48786 0.13646 0.0
O24 O 0.07219 0.4675 0.18674 0.0
O25 O 0.10877 0.53404 0.18317 0.0
O26 O 1.00292 0.47105 0.15677 0.0
O27 O 1.0397 0.44054 0.14459 0.0
O28 O 1.03055 0.56573 0.15089 0.0
O29 O 1.06439 0.57381 0.18368 0.0
O30 O 1.06818 0.55033 0.11891 0.0
O31 O 0.09882 0.52013 0.12835 0.0
H32 H 0.23947 0.52384 0.19438 0.0
H33 H 0.2549 0.5382 0.12318 0.0
H34 H 0.34714 0.59636 0.1284 0.0
H35 H 0.33205 0.58416 0.19989 0.0
H36 H 0.94973 0.56428 0.15701 0.0
H37 H 0.99044 0.51277 0.20548 0.0
H38 H 0.89773 0.4491 0.209 0.0
H39 H 0.85974 0.50033 0.15895 0.0
Gd40 Gd 0.61082 1.00997 0.47558 0.0
Gd41 Gd 0.5452 0.03451 0.47561 0.0
C42 C 0.48252 0.93404 0.4738 0.0
C43 C 0.64741 0.96951 0.4791 0.0
C44 C 0.62346 0.92268 0.47764 0.0
C45 C 0.63217 0.9054 0.45896 0.0
C46 C 0.59299 0.89513 0.49493 0.0
C47 C 0.58673 0.8361 0.4763 0.0
C48 C 0.57491 0.85219 0.49426 0.0
C49 C 0.61389 0.86232 0.45829 0.0
C50 C 0.59391 0.02531 0.435 0.0
C51 C 0.67226 0.11236 0.47798 0.0
C52 C 0.51096 0.07501 0.46672 0.0
C53 C 0.53174 0.12052 0.47141 0.0
C54 C 0.5402 0.13789 0.49347 0.0
C55 C 0.54264 0.14689 0.45368 0.0
C56 C 0.56149 0.20414 0.47996 0.0
C57 C 0.55766 0.18863 0.45793 0.0
C58 C 0.55473 0.17931 0.49768 0.0
C59 C 0.56015 0.01911 0.51668 0.0
O60 O 0.5276 0.94492 0.48036 0.0
O61 O 0.48122 0.96418 0.46674 0.0
O62 O 0.64735 0.98521 0.46053 0.0
O63 O 0.6368 0.98376 0.49644 0.0
O64 O 0.63897 0.03954 0.44232 0.0
O65 O 0.5597 1.00344 0.44938 0.0
O66 O 0.62532 0.0994 0.47423 0.0
O67 O 0.67849 0.08332 0.48189 0.0
O68 O 0.4954 0.05033 0.48379 0.0
O69 O 0.53695 0.07001 0.45246 0.0
O70 O 0.51703 1.00923 0.50951 0.0
O71 O 0.5953 0.03978 0.50238 0.0
H72 H 0.65506 0.92579 0.44529 0.0
H73 H 0.58495 0.90718 0.50942 0.0
H74 H 0.55471 0.83249 0.50848 0.0
H75 H 0.62409 0.85058 0.44451 0.0
H76 H 0.53361 0.11891 0.50751 0.0
H77 H 0.53752 0.13449 0.43654 0.0
H78 H 0.56277 0.20743 0.44406 0.0
H79 H 0.55793 0.19102 0.5148 0.0
Gd80 Gd 0.67027 0.5971 0.82769 0.0
Gd81 Gd 0.59656 0.5023 0.82757 0.0
C82 C 0.54155 0.54613 0.83295 0.0
C83 C 0.71467 0.67809 0.82219 0.0
C84 C 0.69459 0.70217 0.82131 0.0
C85 C 0.71196 0.73631 0.83739 0.0
C86 C 0.65828 0.6916 0.80463 0.0
C87 C 0.66258 0.7525 0.81841 0.0
C88 C 0.64265 0.71677 0.80315 0.0
C89 C 0.69607 0.76137 0.83594 0.0
C90 C 0.65444 0.56473 0.86766 0.0
C91 C 0.72563 0.55274 0.82808 0.0
C92 C 0.54926 0.42087 0.83408 0.0
C93 C 0.56348 0.39225 0.83299 0.0
C94 C 0.565 0.37462 0.81239 0.0
C95 C 0.57417 0.38122 0.85271 0.0
C96 C 0.58517 0.33399 0.83131 0.0
C97 C 0.58485 0.35231 0.85187 0.0
C98 C 0.57589 0.34593 0.81156 0.0
C99 C 0.60518 0.53296 0.78739 0.0
O100 O 0.58868 0.58209 0.82697 0.0
O101 O 0.53661 0.51095 0.83708 0.0
O102 O 0.71252 0.66359 0.84158 0.0
O103 O 0.70178 0.64987 0.80551 0.0
O104 O 0.70062 0.5965 0.86099 0.0
O105 O 0.61984 0.55235 0.85332 0.0
O106 O 0.67614 0.51664 0.83049 0.0
O107 O 0.73454 0.59001 0.82447 0.0
O108 O 0.54637 0.43437 0.81518 0.0
O109 O 0.57103 0.45146 0.85027 0.0
O110 O 0.56154 0.50086 0.7958 0.0
O111 O 0.64355 0.54719 0.8003 0.0
H112 H 0.73928 0.7446 0.85061 0.0
H113 H 0.64333 0.66494 0.79225 0.0
H114 H 0.61729 0.70992 0.78933 0.0
H115 H 0.71233 0.78924 0.84766 0.0
H116 H 0.55685 0.38226 0.79686 0.0
H117 H 0.57345 0.39439 0.86882 0.0
H118 H 0.59232 0.34392 0.86731 0.0
H119 H 0.57525 0.33188 0.79548 0.0
C120 C 0.71348 0.14566 0.15952 0.0
C121 C 0.75248 0.18765 0.17025 0.0
C122 C 0.7516 0.19285 0.19352 0.0
C123 C 0.67512 0.11649 0.19549 0.0
C124 C 0.67456 0.11036 0.17259 0.0
C125 C 0.62807 0.06328 0.16489 0.0
H126 H 0.42478 0.85512 0.19811 0.0
C127 C 0.63139 0.0746 0.20475 0.0
C128 C 0.60294 0.04245 0.18709 0.0
H129 H 0.46219 0.89236 0.13005 0.0
H130 H 0.53366 0.96852 0.14308 0.0
H131 H 0.53682 0.90877 0.21805 0.0
H132 H 0.43124 0.93547 0.21313 0.0
H133 H 0.46247 0.95813 0.23939 0.0
H134 H 0.42398 0.89985 0.2331 0.0
H135 H 0.48201 0.8851 0.23577 0.0
H136 H 0.545 0.93705 0.24328 0.0
C137 C 0.64832 0.04179 0.15275 0.0
C138 C 0.59158 0.06448 0.15003 0.0
C139 C 0.61708 0.06924 0.2891 0.0
C140 C 0.58371 0.03501 0.30334 0.0
C141 C 0.54228 0.99296 0.29387 0.0
C142 C 0.53512 0.98492 0.27068 0.0
C143 C 0.56988 0.01917 0.25666 0.0
C144 C 0.60956 0.06053 0.26596 0.0
C145 C 0.6433 0.09269 0.2486 0.0
C146 C 0.61728 0.06378 0.22725 0.0
C147 C 0.57469 0.02089 0.2321 0.0
C148 C 0.69932 0.1087 0.25224 0.0
C149 C 0.63881 0.12942 0.25049 0.0
C150 C 0.44882 0.8794 0.18593 0.0
C151 C 0.43882 0.86749 0.16312 0.0
C152 C 0.4698 0.90064 0.14781 0.0
C153 C 0.51113 0.94474 0.15538 0.0
C154 C 0.5208 0.95595 0.17849 0.0
C155 C 0.48876 0.92317 0.19314 0.0
C156 C 0.50059 0.93995 0.21696 0.0
C157 C 0.546 0.98803 0.21464 0.0
C158 C 0.55896 0.99817 0.19211 0.0
C159 C 0.51664 0.91651 0.22935 0.0
C160 C 0.45218 0.93285 0.22634 0.0
H161 H 0.71597 0.16491 0.22365 0.0
H162 H 0.71289 0.14077 0.14158 0.0
H163 H 0.58381 0.08549 0.1583 0.0
H164 H 0.55328 0.03169 0.14684 0.0
H165 H 0.60956 0.07819 0.13375 0.0
H166 H 0.67833 0.04556 0.16331 0.0
H167 H 0.66635 0.05745 0.1368 0.0
H168 H 0.61706 1.0063 0.14901 0.0
H169 H 0.649 0.10207 0.29577 0.0
H170 H 0.51639 0.96577 0.30439 0.0
H171 H 0.50345 0.95199 0.26463 0.0
H172 H 0.69826 0.08223 0.25858 0.0
H173 H 0.72214 0.13713 0.26463 0.0
H174 H 0.72128 0.11752 0.2367 0.0
H175 H 0.60076 0.1172 0.2574 0.0
H176 H 0.63976 0.14145 0.23408 0.0
H177 H 0.67009 0.1576 0.26163 0.0
H178 H 0.78106 0.22441 0.20219 0.0
C179 C 0.71354 0.15795 0.20605 0.0
C180 C 0.59037 0.62711 0.51567 0.0
C181 C 0.58982 0.65881 0.52678 0.0
C182 C 0.58368 0.65826 0.55002 0.0
C183 C 0.58615 0.59896 0.55141 0.0
C184 C 0.58851 0.59742 0.52838 0.0
C185 C 0.59234 0.56325 0.51982 0.0
H186 H 0.6099 0.40743 0.54237 0.0
C187 C 0.59083 0.56749 0.55998 0.0
C188 C 0.59384 0.54599 0.54158 0.0
H189 H 0.60446 0.44756 0.47771 0.0
H190 H 0.60008 0.50159 0.49531 0.0
H191 H 0.69094 0.50055 0.56346 0.0
H192 H 0.52374 0.41128 0.56645 0.0
H193 H 0.55013 0.43396 0.59364 0.0
H194 H 0.56515 0.40269 0.57891 0.0
H195 H 0.65767 0.45888 0.58333 0.0
H196 H 0.67721 0.51273 0.58946 0.0
C197 C 0.64385 0.58645 0.50706 0.0
C198 C 0.5424 0.52779 0.50556 0.0
C199 C 0.61486 0.56733 0.64355 0.0
C200 C 0.62556 0.54491 0.65622 0.0
C201 C 0.62656 0.51304 0.6455 0.0
C202 C 0.61766 0.5039 0.6224 0.0
C203 C 0.60865 0.5275 0.60977 0.0
C204 C 0.60712 0.55846 0.62037 0.0
C205 C 0.59875 0.58128 0.60411 0.0
C206 C 0.59599 0.55914 0.58206 0.0
C207 C 0.60184 0.52777 0.5855 0.0
C208 C 0.64722 0.63079 0.60592 0.0
C209 C 0.54633 0.57109 0.60924 0.0
C210 C 0.60795 0.42811 0.5321 0.0
C211 C 0.60753 0.42373 0.50877 0.0
C212 C 0.60526 0.451 0.49575 0.0
C213 C 0.60228 0.48192 0.50602 0.0
C214 C 0.60212 0.48564 0.52948 0.0
C215 C 0.60552 0.45928 0.54208 0.0
C216 C 0.60734 0.46897 0.56674 0.0
C217 C 0.6029 0.5047 0.56695 0.0
C218 C 0.59941 0.51406 0.54512 0.0
C219 C 0.66073 0.48591 0.57642 0.0
C220 C 0.55932 0.42708 0.57717 0.0
H221 H 0.57818 0.6303 0.58008 0.0
H222 H 0.59496 0.62701 0.49778 0.0
H223 H 0.5076 0.52142 0.51308 0.0
H224 H 0.53321 0.4956 0.50454 0.0
H225 H 0.5456 0.53845 0.4884 0.0
H226 H 0.67525 0.61967 0.51491 0.0
H227 H 0.63862 0.59056 0.48943 0.0
H228 H 0.65967 0.56906 0.50739 0.0
H229 H 0.61377 0.59192 0.65145 0.0
H230 H 0.63384 0.4949 0.65509 0.0
H231 H 0.61853 0.47904 0.61524 0.0
H232 H 0.68366 0.63528 0.60741 0.0
H233 H 0.64555 0.6475 0.62088 0.0
H234 H 0.65227 0.64842 0.59112 0.0
H235 H 0.51913 0.53964 0.61762 0.0
H236 H 0.52475 0.56648 0.59391 0.0
H237 H 0.5525 0.59737 0.62038 0.0
H238 H 0.58246 0.68221 0.55873 0.0
C239 C 0.58152 0.62832 0.56238 0.0
C240 C 0.26048 0.55549 0.8384 0.0
C241 C 0.29659 0.55331 0.8506 0.0
C242 C 0.29142 0.55218 0.87389 0.0
C243 C 0.21823 0.55289 0.87295 0.0
C244 C 0.22095 0.55486 0.85005 0.0
C245 C 0.17758 0.55648 0.84168 0.0
H246 H 0.96285 0.54697 0.87741 0.0
C247 C 0.17491 0.55221 0.88126 0.0
C248 C 0.1491 0.55426 0.86327 0.0
H249 H 1.01772 0.57345 0.81035 0.0
H250 H 0.08598 0.56826 0.82055 0.0
H251 H 0.97264 0.47562 0.88694 0.0
H252 H 0.07526 0.6157 0.89795 0.0
H253 H 0.08271 0.59646 0.92185 0.0
H254 H 1.0195 0.57943 0.91465 0.0
H255 H 0.96396 0.50233 0.90911 0.0
H256 H 1.0035 0.48647 0.91291 0.0
C257 C 0.13919 0.51687 0.82545 0.0
C258 C 0.20343 0.59975 0.83042 0.0
C259 C 0.15194 0.54587 0.96565 0.0
C260 C 0.11507 0.54152 0.97975 0.0
C261 C 0.07363 0.53727 0.97005 0.0
C262 C 0.06976 0.53851 0.94682 0.0
C263 C 0.1074 0.54353 0.93282 0.0
C264 C 0.14683 0.54615 0.9424 0.0
C265 C 0.18142 0.54858 0.92516 0.0
C266 C 0.1581 0.54918 0.90356 0.0
C267 C 0.11492 0.54652 0.90809 0.0
C268 C 0.17465 0.50602 0.92617 0.0
C269 C 0.23771 0.59237 0.9301 0.0
C270 C 0.98844 0.55104 0.86453 0.0
C271 C 0.98236 0.55961 0.84286 0.0
C272 C 1.01958 0.56618 0.82727 0.0
C273 C 1.05958 0.56335 0.83315 0.0
C274 C 1.06496 0.55516 0.85525 0.0
C275 C 1.02924 0.54999 0.87026 0.0
C276 C 1.04091 0.54597 0.89343 0.0
C277 C 0.08801 0.54831 0.89051 0.0
C278 C 0.104 0.55304 0.86793 0.0
C279 C 0.99286 0.50049 0.90122 0.0
C280 C 1.05498 0.58608 0.9079 0.0
H281 H 0.25486 0.55135 0.90242 0.0
H282 H 0.26252 0.55709 0.82044 0.0
H283 H 0.23153 0.62824 0.84221 0.0
H284 H 0.17386 0.60235 0.82497 0.0
H285 H 0.22496 0.60186 0.81555 0.0
H286 H 0.12107 0.48571 0.83368 0.0
H287 H 0.1596 0.51758 0.81049 0.0
H288 H 0.10759 0.51701 0.81991 0.0
H289 H 0.18396 0.54872 0.97257 0.0
H290 H 1.04485 0.53409 0.98056 0.0
H291 H 1.03769 0.53593 0.94074 0.0
H292 H 0.13603 0.4785 0.93271 0.0
H293 H 0.20501 0.51134 0.93719 0.0
H294 H 0.17516 0.49302 0.90949 0.0
H295 H 0.23724 0.61828 0.93775 0.0
H296 H 0.26047 0.60676 0.91485 0.0
H297 H 0.25942 0.58798 0.94184 0.0
H298 H 0.31784 0.55238 0.88437 0.0
C299 C 0.25386 0.55195 0.88472 0.0
C300 C 0.96408 0.40088 0.46967 0.0
C301 C 0.92399 0.36024 0.45824 0.0
C302 C 0.91933 0.3588 0.43486 0.0
C303 C 0.99247 0.43649 0.43425 0.0
C304 C 0.99773 0.43887 0.45726 0.0
C305 C 1.04289 0.48542 0.46593 0.0
H306 H 0.24072 0.69836 0.43907 0.0
C307 C 1.03255 0.48056 0.42588 0.0
C308 C 1.0625 0.51007 0.44436 0.0
H309 H 0.21312 0.64917 0.5047 0.0
H310 H 0.13565 0.57646 0.49012 0.0
H311 H 0.22503 0.61927 0.4148 0.0
H312 H 0.12809 0.65411 0.42552 0.0
H313 H 0.10634 0.62498 0.39945 0.0
H314 H 0.17304 0.67534 0.40318 0.0
H315 H 0.23351 0.66273 0.40128 0.0
H316 H 0.19236 0.60739 0.38927 0.0
C317 C 0.08387 0.48483 0.47716 0.0
C318 C 1.0218 0.50228 0.48189 0.0
C319 C 1.05246 0.5007 0.34146 0.0
C320 C 0.08555 0.53863 0.32902 0.0
C321 C 0.1154 0.58009 0.34073 0.0
C322 C 0.11637 0.58397 0.36399 0.0
C323 C 0.08647 0.54612 0.37619 0.0
C324 C 1.05319 0.5054 0.36502 0.0
C325 C 1.02074 0.46951 0.38124 0.0
C326 C 1.04359 0.49541 0.40376 0.0
C327 C 0.08237 0.54005 0.40049 0.0
C328 C 1.03052 0.43638 0.3774 0.0
C329 C 0.96301 0.44937 0.37782 0.0
C330 C 0.21799 0.67208 0.45043 0.0
C331 C 0.23285 0.67948 0.47297 0.0
C332 C 0.20254 0.64412 0.48713 0.0
C333 C 0.1579 0.60201 0.47861 0.0
C334 C 0.14452 0.59506 0.45561 0.0
C335 C 0.17487 0.63034 0.44219 0.0
C336 C 0.15828 0.61849 0.41817 0.0
C337 C 0.1128 0.57 0.41887 0.0
C338 C 0.10385 0.55564 0.44079 0.0
C339 C 0.20445 0.62755 0.405 0.0
C340 C 0.1408 0.64464 0.41103 0.0
H341 H 0.94691 0.39243 0.40519 0.0
H342 H 0.96847 0.40307 0.48765 0.0
H343 H 0.98831 0.49733 0.47386 0.0
H344 H 1.05146 0.53773 0.48641 0.0
H345 H 1.0081 0.48432 0.49749 0.0
H346 H 0.09031 0.46479 0.46668 0.0
H347 H 0.07067 0.47035 0.49371 0.0
H348 H 0.12232 0.51776 0.47938 0.0
H349 H 1.02781 0.4682 0.33322 0.0
H350 H 0.13904 0.61009 0.33192 0.0
H351 H 0.1416 0.61661 0.37156 0.0
H352 H 0.0725 0.45392 0.37437 0.0
H353 H 1.00763 0.41363 0.36265 0.0
H354 H 1.02137 0.41682 0.39195 0.0
H355 H 0.96006 0.47331 0.37095 0.0
H356 H 0.94199 0.44052 0.39368 0.0
H357 H 0.94158 0.41998 0.36602 0.0
H358 H 0.88919 0.32813 0.42568 0.0
C359 C 0.95296 0.39634 0.42293 0.0
C360 C 0.58717 0.92768 0.79256 0.0
C361 C 0.58674 0.89474 0.7824 0.0
C362 C 0.57976 0.88676 0.75906 0.0
C363 C 0.57918 0.94691 0.75594 0.0
C364 C 0.58351 0.95351 0.77897 0.0
C365 C 0.58675 0.99201 0.78659 0.0
H366 H 0.59987 0.16222 0.75809 0.0
C367 C 0.58074 0.98126 0.74643 0.0
C368 C 0.5849 1.00779 0.76434 0.0
H369 H 0.60607 0.12929 0.82479 0.0
H370 H 0.59399 0.06514 0.80961 0.0
H371 H 0.67438 0.15355 0.73891 0.0
H372 H 0.50735 0.06218 0.73816 0.0
H373 H 0.52605 0.05945 0.7111 0.0
H374 H 0.54548 0.11092 0.72274 0.0
H375 H 0.63678 0.15409 0.71804 0.0
H376 H 0.65747 0.12179 0.71394 0.0
C377 C 0.63944 0.02648 0.79938 0.0
C378 C 0.53832 0.97468 0.80055 0.0
C379 C 0.57359 0.98884 0.66171 0.0
C380 C 0.57426 0.01792 0.64879 0.0
C381 C 0.58262 0.05445 0.65942 0.0
C382 C 0.58759 0.06104 0.68258 0.0
C383 C 0.58435 0.03086 0.69547 0.0
C384 C 0.57875 0.99605 0.68513 0.0
C385 C 0.57706 0.96813 0.702 0.0
C386 C 0.58088 0.99136 0.72396 0.0
C387 C 0.58497 0.02784 0.71983 0.0
C388 C 0.62547 0.97125 0.69864 0.0
C389 C 0.5241 0.92094 0.69902 0.0
C390 C 0.59898 0.14146 0.76953 0.0
C391 C 0.60508 0.15133 0.7926 0.0
C392 C 0.6019 0.12252 0.80688 0.0
C393 C 0.59516 0.0855 0.79802 0.0
C394 C 0.59164 0.07744 0.77468 0.0
C395 C 0.59309 0.10519 0.76101 0.0
C396 C 0.59077 0.09347 0.73673 0.0
C397 C 0.58769 0.05389 0.73779 0.0
C398 C 0.58775 0.04416 0.75997 0.0
C399 C 0.64215 0.13262 0.7262 0.0
C400 C 0.54008 0.08108 0.72644 0.0
H401 H 0.57167 0.90532 0.72813 0.0
H402 H 0.59276 0.93451 0.81046 0.0
H403 H 0.50282 0.94316 0.79287 0.0
H404 H 0.52935 0.99711 0.80148 0.0
H405 H 0.54339 0.96859 0.81776 0.0
H406 H 0.67117 0.02876 0.79121 0.0
H407 H 0.63736 0.01754 0.81685 0.0
H408 H 0.6524 0.05999 0.79959 0.0
H409 H 0.56707 0.96042 0.65389 0.0
H410 H 0.58367 0.07735 0.64973 0.0
H411 H 0.5925 0.08894 0.68947 0.0
H412 H 0.66018 1.00517 0.69478 0.0
H413 H 0.61873 0.94872 0.68456 0.0
H414 H 0.63724 0.96431 0.71371 0.0
H415 H 0.49251 0.92156 0.69405 0.0
H416 H 0.5108 0.90337 0.71462 0.0
H417 H 0.52589 0.90121 0.68587 0.0
H418 H 0.5788 0.86115 0.751 0.0
C419 C 0.57591 0.91257 0.74581 0.0
C420 C 0.67535 0.48675 0.13311 0.0
C421 C 0.71729 0.49023 0.12554 0.0
C422 C 0.72679 0.4923 0.10247 0.0
C423 C 0.6481 0.48218 0.09521 0.0
C424 C 0.64048 0.48076 0.11788 0.0
C425 C 0.58837 0.46576 0.12404 0.0
H426 H 0.3957 0.46122 0.09996 0.0
C427 C 0.60049 0.46989 0.0844 0.0
C428 C 0.56535 0.45934 0.1013 0.0
H429 H 0.44613 0.44963 0.16317 0.0
H430 H 0.49356 0.43178 0.14445 0.0
H431 H 0.49903 0.51671 0.07584 0.0
H432 H 0.38012 0.37724 0.07431 0.0
H433 H 0.41908 0.38583 0.05154 0.0
H434 H 0.38529 0.40769 0.05185 0.0
H435 H 0.43339 0.48461 0.06468 0.0
H436 H 0.48361 0.4935 0.04799 0.0
C437 C 0.59744 0.50374 0.1387 0.0
C438 C 0.55884 0.42128 0.13542 0.0
C439 C 0.59135 0.48534 0.00168 0.0
C440 C 0.55088 0.47516 0.98757 0.0
C441 C 0.50127 0.45474 -0.0034 0.0
C442 C 0.49335 0.44795 0.01934 0.0
C443 C 0.53484 0.46054 0.03317 0.0
C444 C 0.58202 0.47672 0.02423 0.0
C445 C 0.6187 0.4817 0.04119 0.0
C446 C 0.58667 0.46883 0.06201 0.0
C447 C 0.53788 0.45709 0.05709 0.0
C448 C 0.66952 0.53006 0.0428 0.0
C449 C 0.62717 0.44851 0.03435 0.0
C450 C 0.41607 0.45355 0.10953 0.0
C451 C 0.41952 0.45904 0.13301 0.0
C452 C 0.44349 0.44646 0.14511 0.0
C453 C 0.472 0.43668 0.13411 0.0
C454 C 0.47701 0.44022 0.11095 0.0
C455 C 0.44573 0.44429 0.0987 0.0
C456 C 0.45577 0.44542 0.07404 0.0
C457 C 0.50334 0.44789 0.07436 0.0
C458 C 0.51598 0.44632 0.09612 0.0
C459 C 0.46861 0.48723 0.06504 0.0
C460 C 0.40768 0.40202 0.06224 0.0
H461 H 0.70083 0.49044 0.06972 0.0
H462 H 0.66568 0.48305 0.15061 0.0
H463 H 0.57515 0.40459 0.13108 0.0
H464 H 0.51741 0.39691 0.12972 0.0
H465 H 0.56098 0.42608 0.15389 0.0
H466 H 0.63207 0.5364 0.13325 0.0
H467 H 0.60455 0.502 0.15648 0.0
H468 H 0.56529 0.50479 0.13764 0.0
H469 H 0.62993 0.50054 0.99569 0.0
H470 H 0.46829 0.44411 0.98622 0.0
H471 H 0.45537 0.43345 0.02539 0.0
H472 H 0.66043 0.55264 0.04404 0.0
H473 H 0.69326 0.53782 0.02778 0.0
H474 H 0.694 0.53804 0.05763 0.0
H475 H 0.59065 0.4173 0.02701 0.0
H476 H 0.63746 0.43873 0.04868 0.0
H477 H 0.65784 0.46192 0.02169 0.0
H478 H 0.7591 0.49457 0.09635 0.0
C479 C 0.69263 0.48918 0.08714 0.0
H480 H 0.38578 0.56886 0.1956 0.0
H481 H 0.43608 0.64468 0.13756 0.0
H482 H 0.46228 0.60416 0.12071 0.0
H483 H 0.44728 0.53459 0.11854 0.0
H484 H 0.37855 0.45031 0.17407 0.0
H485 H 0.37831 0.50432 0.19522 0.0
C486 C 0.40297 0.57718 0.17931 0.0
C487 C 0.40085 0.6044 0.1661 0.0
C488 C 0.41069 0.54969 0.16873 0.0
C489 C 0.43182 0.62006 0.14705 0.0
C490 C 0.4453 0.59599 0.13707 0.0
C491 C 0.43111 0.52749 0.13507 0.0
C492 C 0.41161 0.48796 0.14452 0.0
C493 C 0.42999 0.55808 0.14691 0.0
C494 C 0.39302 0.48023 0.16634 0.0
C495 C 0.39354 0.51129 0.17853 0.0
H496 H 0.77897 0.16563 0.49092 0.0
H497 H 0.66491 0.16891 0.45975 0.0
H498 H 0.73045 0.24581 0.45456 0.0
H499 H 0.8204 0.31205 0.45584 0.0
H500 H 0.93923 0.31387 0.48485 0.0
H501 H 0.87232 0.23682 0.49457 0.0
C502 C 0.7686 0.18327 0.48309 0.0
C503 C 0.71632 0.16051 0.47584 0.0
C504 C 0.80747 0.22906 0.47991 0.0
C505 C 0.70411 0.18456 0.46578 0.0
C506 C 0.74179 0.2291 0.4627 0.0
C507 C 0.8316 0.29586 0.46471 0.0
C508 C 0.88462 0.3186 0.46956 0.0
C509 C 0.79348 0.25157 0.46942 0.0
C510 C 0.89855 0.2972 0.48108 0.0
C511 C 0.86027 0.25288 0.48633 0.0
H512 H 0.59538 0.76505 0.83471 0.0
H513 H 0.72074 0.81378 0.78931 0.0
H514 H 0.71187 0.86587 0.77596 0.0
H515 H 0.66407 0.89283 0.77471 0.0
H516 H 0.5368 0.84474 0.81869 0.0
H517 H 0.55125 0.79779 0.83563 0.0
C518 C 0.62092 0.78758 0.82212 0.0
C519 C 0.65845 0.78581 0.81277 0.0
C520 C 0.61516 0.81728 0.81433 0.0
C521 C 0.69158 0.81484 0.79653 0.0
C522 C 0.68651 0.84449 0.78892 0.0
C523 C 0.63978 0.87227 0.78814 0.0
C524 C 0.59896 0.87136 0.79523 0.0
C525 C 0.64777 0.84526 0.79731 0.0
C526 C 0.5683 0.84552 0.81294 0.0
C527 C 0.57638 0.81859 0.82247 0.0
H528 H 0.80055 0.46291 0.20888 0.0
H529 H 0.81491 0.39074 0.15894 0.0
H530 H 0.75515 0.38681 0.13401 0.0
H531 H 0.73051 0.4299 0.12138 0.0
H532 H 0.75423 0.52948 0.16688 0.0
H533 H 0.77336 0.50312 0.19743 0.0
C534 C 0.78802 0.44441 0.19289 0.0
C535 C 0.81607 0.43157 0.18462 0.0
C536 C 0.76497 0.45227 0.17694 0.0
C537 C 0.79616 0.40341 0.16525 0.0
C538 C 0.76406 0.40326 0.1504 0.0
C539 C 0.74073 0.44617 0.13791 0.0
C540 C 0.74186 0.48188 0.14191 0.0
C541 C 0.75407 0.43225 0.15511 0.0
C542 C 0.75413 0.5023 0.16347 0.0
C543 C 0.76356 0.48651 0.18104 0.0
H544 H 0.46352 0.85868 0.48686 0.0
H545 H 0.38623 0.90646 0.46381 0.0
H546 H 0.3024 0.8337 0.46491 0.0
H547 H 0.25039 0.75532 0.46957 0.0
H548 H 0.32397 0.70417 0.49134 0.0
H549 H 0.40891 0.77887 0.49411 0.0
C550 C 0.42832 0.85313 0.48213 0.0
C551 C 0.43187 0.8884 0.47498 0.0
C552 C 0.37913 0.81043 0.48276 0.0
C553 C 0.38546 0.88034 0.46912 0.0
C554 C 0.33705 0.83854 0.46983 0.0
C555 C 0.28486 0.7607 0.47548 0.0
C556 C 0.28083 0.72436 0.48044 0.0
C557 C 0.33341 0.8033 0.47633 0.0
C558 C 0.32587 0.7317 0.48783 0.0
C559 C 0.37457 0.77437 0.48907 0.0
H560 H 0.6473 0.32985 0.80395 0.0
H561 H 0.53696 0.26231 0.85629 0.0
H562 H 0.5376 0.20106 0.85084 0.0
H563 H 0.56154 0.16295 0.8279 0.0
H564 H 0.67292 0.23192 0.77593 0.0
H565 H 0.67953 0.29602 0.7844 0.0
C566 C 0.62379 0.30187 0.81429 0.0
C567 C 0.59164 0.30026 0.83027 0.0
C568 C 0.624 0.26673 0.81093 0.0
C569 C 0.5621 0.26427 0.84387 0.0
C570 C 0.56218 0.22911 0.84066 0.0
C571 C 0.58814 0.19239 0.81883 0.0
C572 C 0.61573 0.19229 0.80099 0.0
C573 C 0.59187 0.22942 0.8238 0.0
C574 C 0.65021 0.23078 0.78939 0.0
C575 C 0.65417 0.26753 0.79424 0.0
H576 H 0.6519 0.83656 0.50094 0.0
H577 H 0.51422 0.75122 0.45857 0.0
H578 H 0.50638 0.68747 0.46824 0.0
H579 H 0.53433 0.65606 0.49252 0.0
H580 H 0.67089 0.74387 0.53556 0.0
H581 H 0.68427 0.80706 0.52175 0.0
C582 C 0.62058 0.80395 0.49366 0.0
C583 C 0.58335 0.79791 0.47941 0.0
C584 C 0.61619 0.76818 0.49953 0.0
C585 C 0.54297 0.75604 0.46978 0.0
C586 C 0.53856 0.71985 0.47533 0.0
C587 C 0.56745 0.68917 0.49841 0.0
C588 C 0.60132 0.69572 0.51515 0.0
C589 C 0.57424 0.72542 0.49071 0.0
C590 C 0.64422 0.73846 0.52281 0.0
C591 C 0.6518 0.77445 0.51499 0.0
H592 H 0.83867 0.61625 0.82406 0.0
H593 H 0.71549 0.48073 0.83808 0.0
H594 H 0.77937 0.47065 0.84356 0.0
H595 H 0.87176 0.49904 0.8455 0.0
H596 H 0.99582 0.63251 0.82941 0.0
H597 H 0.93218 0.6439 0.82417 0.0
C598 C 0.82531 0.58431 0.82823 0.0
C599 C 0.77009 0.54943 0.83057 0.0
C600 C 0.86356 0.57801 0.83121 0.0
C601 C 0.75616 0.50877 0.83604 0.0
C602 C 0.79337 0.50275 0.83927 0.0
C603 C 0.88529 0.53065 0.84057 0.0
C604 C 0.94023 0.56461 0.83768 0.0
C605 C 0.84743 0.53692 0.83703 0.0
C606 C 0.9549 0.6051 0.83147 0.0
C607 C 0.91789 0.61178 0.82854 0.0
H608 H 0.21949 0.68262 0.13945 0.0
H609 H 0.28988 0.6379 0.17358 0.0
H610 H 0.37236 0.71359 0.1775 0.0
H611 H 0.42265 0.79346 0.17354 0.0
H612 H 0.35268 0.83711 0.13814 0.0
H613 H 0.27195 0.76095 0.13233 0.0
C614 C 0.25294 0.68926 0.14763 0.0
C615 C 0.24811 0.65443 0.15644 0.0
C616 C 0.30036 0.7328 0.14959 0.0
C617 C 0.29225 0.66385 0.16669 0.0
C618 C 0.33944 0.70723 0.16899 0.0
C619 C 0.39001 0.78609 0.16414 0.0
C620 C 0.39381 0.82093 0.1561 0.0
C621 C 0.34373 0.74208 0.1608 0.0
C622 C 0.35111 0.81097 0.14414 0.0
C623 C 0.30478 0.76742 0.14101 0.0
H624 H 0.63721 0.29016 0.47019 0.0
H625 H 0.48663 0.20036 0.49966 0.0
H626 H 0.48569 0.26028 0.5093 0.0
H627 H 0.52968 0.33831 0.5117 0.0
H628 H 0.68087 0.43031 0.4835 0.0
H629 H 0.68 0.36976 0.47085 0.0
C630 C 0.60433 0.28406 0.47861 0.0
C631 C 0.56237 0.24137 0.48459 0.0
C632 C 0.6043 0.31892 0.48434 0.0
C633 C 0.51964 0.23331 0.49535 0.0
C634 C 0.51898 0.2674 0.50077 0.0
C635 C 0.56205 0.34484 0.50252 0.0
C636 C 0.60519 0.38811 0.49845 0.0
C637 C 0.56136 0.3103 0.4957 0.0
C638 C 0.64713 0.39682 0.48658 0.0
C639 C 0.64671 0.36235 0.47952 0.0
H640 H 0.50775 0.59045 0.81315 0.0
H641 H 0.46395 0.49721 0.86237 0.0
H642 H 0.38683 0.48938 0.87055 0.0
H643 H 0.32952 0.50765 0.86473 0.0
H644 H 0.36822 0.59964 0.81586 0.0
H645 H 0.44589 0.60731 0.80632 0.0
C646 C 0.4816 0.56845 0.82574 0.0
C647 C 0.49385 0.54462 0.8371 0.0
C648 C 0.43471 0.56309 0.83036 0.0
C649 C 0.45742 0.51614 0.85308 0.0
C650 C 0.41245 0.51149 0.85786 0.0
C651 C 0.35456 0.52975 0.85194 0.0
C652 C 0.34112 0.55329 0.84139 0.0
C653 C 0.40028 0.53457 0.8467 0.0
C654 C 0.37538 0.58052 0.82449 0.0
C655 C 0.42087 0.58533 0.81915 0.0
H656 H 0.9701 0.35499 0.13759 0.0
H657 H 0.908 0.41584 0.16474 0.0
H658 H 0.82537 0.34376 0.17113 0.0
H659 H 0.77121 0.26449 0.1706 0.0
H660 H 0.8313 0.20138 0.1454 0.0
H661 H 0.91259 0.27289 0.13535 0.0
C662 C 0.93811 0.35255 0.14438 0.0
C663 C 0.94581 0.39137 0.15058 0.0
C664 C 0.8896 0.31053 0.14776 0.0
C665 C 0.90372 0.38709 0.15962 0.0
C666 C 0.85607 0.3458 0.16314 0.0
C667 C 0.80157 0.26625 0.16231 0.0
C668 C 0.79485 0.22755 0.15846 0.0
C669 C 0.8486 0.30745 0.15739 0.0
C670 C 0.8349 0.23045 0.14807 0.0
C671 C 0.88172 0.27152 0.14265 0.0
H672 H 0.1636 0.58764 0.08377 0.0
H673 H 1.01587 0.45727 0.08644 0.0
H674 H 1.0118 0.44781 0.04559 0.0
H675 H 1.04686 0.47938 0.00882 0.0
H676 H 0.19655 0.60851 0.00619 0.0
H677 H 0.2036 0.61584 0.04706 0.0
C678 C 0.13125 0.55681 0.07536 0.0
C679 C 0.09031 0.52295 0.08804 0.0
C680 C 0.12924 0.55171 0.05181 0.0
C681 C 1.04813 0.48346 0.077 0.0
C682 C 1.04561 0.47823 0.05364 0.0
C683 C 0.08119 0.50888 0.01726 0.0
C684 C 0.12093 0.54355 0.00452 0.0
C685 C 0.08532 0.51252 0.04082 0.0
C686 C 0.16547 0.58143 0.01563 0.0
C687 C 0.16944 0.58565 0.039 0.0
H688 H 0.66426 0.06867 0.40292 0.0
H689 H 0.4993 0.98636 0.41471 0.0
H690 H 0.48162 0.98462 0.37495 0.0
H691 H 0.51306 1.00283 0.33656 0.0
H692 H 0.67822 0.08288 0.32516 0.0
H693 H 0.69586 0.0899 0.36512 0.0
C694 C 0.62445 0.05058 0.3968 0.0
C695 C 0.58307 0.02726 0.41158 0.0
C696 C 0.61466 0.04938 0.37401 0.0
C697 C 0.53174 1.00433 0.40355 0.0
C698 C 0.52165 1.00328 0.38084 0.0
C699 C 0.55289 0.02179 0.34283 0.0
C700 C 0.59418 0.04213 0.32783 0.0
C701 C 0.56277 0.02501 0.36586 0.0
C702 C 0.64569 0.06729 0.33629 0.0
C703 C 0.65584 0.07104 0.35914 0.0
H704 H 0.68458 0.56481 0.75825 0.0
H705 H 0.53039 0.52437 0.76412 0.0
H706 H 0.52537 0.52961 0.72409 0.0
H707 H 0.56036 0.5372 0.68678 0.0
H708 H 0.71124 0.57169 0.68012 0.0
H709 H 0.72254 0.5779 0.72082 0.0
C710 C 0.65048 0.55809 0.75076 0.0
C711 C 0.6078 0.54397 0.76401 0.0
C712 C 0.64707 0.55967 0.72749 0.0
C713 C 0.56358 0.535 0.75415 0.0
C714 C 0.56059 0.53788 0.73126 0.0
C715 C 0.59599 0.54678 0.69434 0.0
C716 C 0.6348 0.55375 0.68065 0.0
C717 C 0.60137 0.54884 0.71766 0.0
C718 C 0.68071 0.56581 0.69047 0.0
C719 C 0.68713 0.56933 0.7137 0.0
H720 H 0.5014 1.00746 0.55115 0.0
H721 H 0.63847 0.0229 0.5351 0.0
H722 H 0.65158 0.01771 0.57462 0.0
H723 H 0.62704 0.01456 0.61445 0.0
H724 H 0.49246 1.0038 0.62924 0.0
H725 H 0.47545 1.00161 0.58961 0.0
C726 C 0.53407 1.0095 0.55624 0.0
C727 C 0.56902 0.01571 0.54028 0.0
C728 C 0.54187 1.00755 0.57886 0.0
C729 C 0.61126 0.01845 0.54715 0.0
C730 C 0.61867 0.01542 0.56973 0.0
C731 C 0.59346 1.01075 0.60882 0.0
C732 C 0.56078 1.00908 0.62463 0.0
C733 C 0.58461 1.01065 0.58584 0.0
C734 C 0.51782 1.00486 0.6173 0.0
C735 C 0.50825 1.00385 0.59467 0.0
H736 H 0.57453 0.54278 0.89176 0.0
H737 H 0.70694 0.54696 0.89191 0.0
H738 H 0.68225 0.51371 0.92828 0.0
H739 H 0.62338 0.48475 0.95969 0.0
H740 H 0.50152 0.49518 0.96183 0.0
H741 H 0.51995 0.51904 0.9242 0.0
C742 C 0.59796 0.53646 0.89988 0.0
C743 C 0.64232 0.54713 0.88962 0.0
C744 C 0.58478 0.51921 0.92086 0.0
C745 C 0.67289 0.53926 0.89997 0.0
C746 C 0.6586 0.52009 0.92055 0.0
C747 C 0.60136 0.49306 0.95232 0.0
C748 C 0.56082 0.48772 0.96397 0.0
C749 C 0.61478 0.51031 0.93122 0.0
C750 C 0.53187 0.49736 0.95339 0.0
C751 C 0.54291 0.51188 0.93187 0.0
H752 H 0.14981 0.56487 0.22732 0.0
H753 H 0.99186 0.4443 0.21785 0.0
H754 H 0.97795 0.44433 0.25808 0.0
H755 H 1.01182 0.4783 0.29635 0.0
H756 H 0.17425 0.59354 0.30539 0.0
H757 H 0.18498 0.59582 0.26541 0.0
C758 C 0.11215 0.53907 0.23408 0.0
C759 C 0.07156 0.50521 0.21964 0.0
C760 C 0.10526 0.53816 0.25734 0.0
C761 C 1.02347 0.47107 0.22867 0.0
C762 C 1.01561 0.47096 0.25169 0.0
C763 C 1.04968 0.50372 0.28965 0.0
C764 C 0.09154 0.53652 0.30422 0.0
C765 C 1.05645 0.50414 0.2663 0.0
C766 C 0.14039 0.56883 0.29488 0.0
C767 C 0.14693 0.57005 0.27185 0.0
loop_
_geom_bond_atom_site_label_1
_geom_bond_atom_site_label_2
_geom_bond_distance
_geom_bond_site_symmetry_2
_ccdc_geom_bond_type
Gd0 C3 2.818 . S
Gd0 O20 2.377 . S
Gd0 O22 2.448 . S
Gd0 O23 2.506 . S
Gd0 O24 2.435 . S
Gd0 O25 2.717 . S
Gd0 O27 2.395 1_455 S
Gd0 O31 2.327 . S
Gd1 C12 2.817 . S
Gd1 O21 2.396 1_655 S
Gd1 O25 2.328 1_655 S
Gd1 O26 2.377 . S
Gd1 O28 2.447 . S
Gd1 O29 2.505 . S
Gd1 O30 2.436 1_655 S
Gd1 O31 2.718 1_655 S
C2 O20 1.240 . S
C2 O21 1.240 . S
C3 Gd0 2.818 . S
C3 C4 1.510 . S
C3 O22 1.249 . S
C3 O23 1.252 . S
C4 C3 1.510 . S
C4 C5 1.404 . S
C4 C6 1.352 . S
C5 C4 1.404 . S
C5 C9 1.389 . S
C5 H32 0.930 . S
C6 C4 1.352 . S
C6 C8 1.374 . S
C6 H33 0.931 . S
C7 C8 1.359 . S
C7 C9 1.364 . S
C8 C6 1.374 . S
C8 C7 1.359 . S
C8 H34 0.931 . S
C9 C5 1.389 . S
C9 C7 1.364 . S
C9 H35 0.931 . S
C10 O24 1.256 . S
C10 O25 1.257 . S
C11 O26 1.240 . S
C11 O27 1.240 . S
C12 Gd1 2.817 . S
C12 C13 1.510 . S
C12 O28 1.249 . S
C12 O29 1.252 . S
C13 C12 1.510 . S
C13 C14 1.404 . S
C13 C15 1.352 . S
C14 C13 1.404 . S
C14 C18 1.389 . S
C14 H36 0.930 . S
C15 C13 1.352 . S
C15 C17 1.374 . S
C15 H37 0.931 . S
C16 C17 1.359 . S
C16 C18 1.364 . S
C17 C15 1.374 . S
C17 C16 1.359 . S
C17 H38 0.931 . S
C18 C14 1.389 . S
C18 C16 1.364 . S
C18 H39 0.931 . S
C19 O30 1.256 . S
C19 O31 1.257 . S
O20 Gd0 2.377 . S
O20 C2 1.240 . S
O21 Gd1 2.396 1_455 S
O21 C2 1.240 . S
O22 Gd0 2.448 . S
O22 C3 1.249 . S
O23 Gd0 2.506 . S
O23 C3 1.252 . S
O24 Gd0 2.435 . S
O24 C10 1.256 . S
O25 Gd0 2.717 . S
O25 Gd1 2.328 1_455 S
O25 C10 1.257 . S
O26 Gd1 2.377 . S
O26 C11 1.240 . S
O27 Gd0 2.395 1_655 S
O27 C11 1.240 . S
O28 Gd1 2.447 . S
O28 C12 1.249 . S
O29 Gd1 2.505 . S
O29 C12 1.252 . S
O30 Gd1 2.436 1_455 S
O30 C19 1.256 . S
O31 Gd0 2.327 . S
O31 Gd1 2.718 1_455 S
O31 C19 1.257 . S
H32 C5 0.930 . S
H33 C6 0.931 . S
H34 C8 0.931 . S
H35 C9 0.931 . S
H36 C14 0.930 . S
H37 C15 0.931 . S
H38 C17 0.931 . S
H39 C18 0.931 . S
Gd40 C43 2.818 . S
Gd40 O60 2.377 . S
Gd40 O62 2.448 . S
Gd40 O63 2.506 . S
Gd40 O64 2.435 . S
Gd40 O65 2.717 1_565 S
Gd40 O67 2.395 1_565 S
Gd40 O71 2.327 1_565 S
Gd41 C52 2.818 . S
Gd41 O61 2.395 1_545 S
Gd41 O65 2.327 . S
Gd41 O66 2.377 . S
Gd41 O68 2.448 . S
Gd41 O69 2.506 . S
Gd41 O70 2.435 . S
Gd41 O71 2.717 . S
C42 O60 1.240 . S
C42 O61 1.240 . S
C43 Gd40 2.818 . S
C43 C44 1.510 . S
C43 O62 1.249 . S
C43 O63 1.252 . S
C44 C43 1.510 . S
C44 C45 1.404 . S
C44 C46 1.352 . S
C45 C44 1.404 . S
C45 C49 1.389 . S
C45 H72 0.930 . S
C46 C44 1.352 . S
C46 C48 1.374 . S
C46 H73 0.931 . S
C47 C48 1.359 . S
C47 C49 1.364 . S
C48 C46 1.374 . S
C48 C47 1.359 . S
C48 H74 0.931 . S
C49 C45 1.389 . S
C49 C47 1.364 . S
C49 H75 0.931 . S
C50 O64 1.256 1_545 S
C50 O65 1.257 . S
C51 O66 1.240 . S
C51 O67 1.240 . S
C52 Gd41 2.818 . S
C52 C53 1.510 . S
C52 O68 1.249 . S
C52 O69 1.252 . S
C53 C52 1.510 . S
C53 C54 1.404 . S
C53 C55 1.352 . S
C54 C53 1.404 . S
C54 C58 1.389 . S
C54 H76 0.930 . S
C55 C53 1.352 . S
C55 C57 1.374 . S
C55 H77 0.931 . S
C56 C57 1.359 . S
C56 C58 1.364 . S
C57 C55 1.374 . S
C57 C56 1.359 . S
C57 H78 0.931 . S
C58 C54 1.389 . S
C58 C56 1.364 . S
C58 H79 0.931 . S
C59 O70 1.256 . S
C59 O71 1.257 . S
O60 Gd40 2.377 . S
O60 C42 1.240 . S
O61 Gd41 2.395 1_565 S
O61 C42 1.240 . S
O62 Gd40 2.448 . S
O62 C43 1.249 . S
O63 Gd40 2.506 . S
O63 C43 1.252 . S
O64 Gd40 2.435 . S
O64 C50 1.256 1_565 S
O65 Gd40 2.717 1_545 S
O65 Gd41 2.327 . S
O65 C50 1.257 . S
O66 Gd41 2.377 . S
O66 C51 1.240 . S
O67 Gd40 2.395 1_545 S
O67 C51 1.240 . S
O68 Gd41 2.448 . S
O68 C52 1.249 . S
O69 Gd41 2.506 . S
O69 C52 1.252 . S
O70 Gd41 2.435 . S
O70 C59 1.256 . S
O71 Gd40 2.327 1_545 S
O71 Gd41 2.717 . S
O71 C59 1.257 . S
H72 C45 0.930 . S
H73 C46 0.931 . S
H74 C48 0.931 . S
H75 C49 0.931 . S
H76 C54 0.930 . S
H77 C55 0.931 . S
H78 C57 0.931 . S
H79 C58 0.931 . S
Gd80 C83 2.818 . S
Gd80 O100 2.377 . S
Gd80 O102 2.448 . S
Gd80 O103 2.506 . S
Gd80 O104 2.435 . S
Gd80 O105 2.717 . S
Gd80 O107 2.395 . S
Gd80 O111 2.327 . S
Gd81 C92 2.818 . S
Gd81 O101 2.395 . S
Gd81 O105 2.327 . S
Gd81 O106 2.377 . S
Gd81 O108 2.448 . S
Gd81 O109 2.506 . S
Gd81 O110 2.435 . S
Gd81 O111 2.717 . S
C82 O100 1.240 . S
C82 O101 1.240 . S
C83 Gd80 2.818 . S
C83 C84 1.510 . S
C83 O102 1.249 . S
C83 O103 1.252 . S
C84 C83 1.510 . S
C84 C85 1.404 . S
C84 C86 1.352 . S
C85 C84 1.404 . S
C85 C89 1.389 . S
C85 H112 0.930 . S
C86 C84 1.352 . S
C86 C88 1.374 . S
C86 H113 0.931 . S
C87 C88 1.359 . S
C87 C89 1.364 . S
C88 C86 1.374 . S
C88 C87 1.359 . S
C88 H114 0.931 . S
C89 C85 1.389 . S
C89 C87 1.364 . S
C89 H115 0.931 . S
C90 O104 1.256 . S
C90 O105 1.257 . S
C91 O106 1.240 . S
C91 O107 1.240 . S
C92 Gd81 2.818 . S
C92 C93 1.510 . S
C92 O108 1.249 . S
C92 O109 1.252 . S
C93 C92 1.510 . S
C93 C94 1.404 . S
C93 C95 1.352 . S
C94 C93 1.404 . S
C94 C98 1.389 . S
C94 H116 0.930 . S
C95 C93 1.352 . S
C95 C97 1.374 . S
C95 H117 0.931 . S
C96 C97 1.359 . S
C96 C98 1.364 . S
C97 C95 1.374 . S
C97 C96 1.359 . S
C97 H118 0.931 . S
C98 C94 1.389 . S
C98 C96 1.364 . S
C98 H119 0.931 . S
C99 O110 1.256 . S
C99 O111 1.257 . S
O100 Gd80 2.377 . S
O100 C82 1.240 . S
O101 Gd81 2.395 . S
O101 C82 1.240 . S
O102 Gd80 2.448 . S
O102 C83 1.249 . S
O103 Gd80 2.506 . S
O103 C83 1.252 . S
O104 Gd80 2.435 . S
O104 C90 1.256 . S
O105 Gd80 2.717 . S
O105 Gd81 2.327 . S
O105 C90 1.257 . S
O106 Gd81 2.377 . S
O106 C91 1.240 . S
O107 Gd80 2.395 . S
O107 C91 1.240 . S
O108 Gd81 2.448 . S
O108 C92 1.249 . S
O109 Gd81 2.506 . S
O109 C92 1.252 . S
O110 Gd81 2.435 . S
O110 C99 1.256 . S
O111 Gd80 2.327 . S
O111 Gd81 2.717 . S
O111 C99 1.257 . S
H112 C85 0.930 . S
H113 C86 0.931 . S
H114 C88 0.931 . S
H115 C89 0.931 . S
H116 C94 0.930 . S
H117 C95 0.931 . S
H118 C97 0.931 . S
H119 C98 0.931 . S
C120 C121 1.391 . S
C120 C124 1.391 . S
C120 H162 0.948 . S
C121 C120 1.391 . S
C121 C122 1.391 . S
C122 C121 1.391 . S
C122 H178 0.947 . S
C122 C179 1.392 . S
C123 C124 1.391 . S
C123 C127 1.397 . S
C123 C179 1.419 . S
C124 C120 1.391 . S
C124 C123 1.391 . S
C124 C125 1.399 . S
C125 C124 1.399 . S
C125 C128 1.396 . S
C125 C137 1.453 . S
C125 C138 1.684 . S
H126 C150 0.948 . S
C127 C123 1.397 . S
C127 C128 1.394 . S
C127 C146 1.723 . S
C128 C125 1.396 . S
C128 C127 1.394 . S
C128 C158 1.723 1_545 S
H129 C152 0.947 . S
H130 C153 0.948 . S
H131 C159 0.982 . S
H132 C160 0.979 . S
H133 C160 0.980 . S
H134 C160 0.983 . S
H135 C159 0.979 . S
H136 C159 0.977 . S
C137 C125 1.453 . S
C137 H166 0.982 . S
C137 H167 0.979 . S
C137 H168 0.977 . S
C138 C125 1.684 . S
C138 H163 0.979 . S
C138 H164 0.980 . S
C138 H165 0.983 . S
C139 C140 1.391 . S
C139 C144 1.391 . S
C139 H169 0.948 . S
C140 C139 1.391 . S
C140 C141 1.391 1_545 S
C141 C140 1.391 1_565 S
C141 C142 1.392 . S
C141 H170 0.947 . S
C142 C141 1.392 . S
C142 C143 1.419 1_565 S
C142 H171 0.948 . S
C143 C142 1.419 1_545 S
C143 C144 1.391 . S
C143 C147 1.397 . S
C144 C139 1.391 . S
C144 C143 1.391 . S
C144 C145 1.399 . S
C145 C144 1.399 . S
C145 C146 1.396 . S
C145 C148 1.453 . S
C145 C149 1.684 . S
C146 C127 1.723 . S
C146 C145 1.396 . S
C146 C147 1.394 . S
C147 C143 1.397 . S
C147 C146 1.394 . S
C147 C157 1.723 1_545 S
C148 C145 1.453 . S
C148 H172 0.982 . S
C148 H173 0.979 . S
C148 H174 0.977 . S
C149 C145 1.684 . S
C149 H175 0.979 . S
C149 H176 0.980 . S
C149 H177 0.983 . S
C150 H126 0.948 . S
C150 C151 1.391 . S
C150 C155 1.391 . S
C151 C150 1.391 . S
C151 C152 1.391 . S
C152 H129 0.947 . S
C152 C151 1.391 . S
C152 C153 1.392 . S
C153 H130 0.948 . S
C153 C152 1.392 . S
C153 C154 1.419 . S
C154 C153 1.419 . S
C154 C155 1.391 . S
C154 C158 1.397 . S
C155 C150 1.391 . S
C155 C154 1.391 . S
C155 C156 1.399 . S
C156 C155 1.399 . S
C156 C157 1.396 . S
C156 C159 1.453 . S
C156 C160 1.684 . S
C157 C147 1.723 1_565 S
C157 C156 1.396 . S
C157 C158 1.394 . S
C158 C128 1.723 1_565 S
C158 C154 1.397 . S
C158 C157 1.394 . S
C159 H131 0.982 . S
C159 H135 0.979 . S
C159 H136 0.977 . S
C159 C156 1.453 . S
C160 H132 0.979 . S
C160 H133 0.980 . S
C160 H134 0.983 . S
C160 C156 1.684 . S
H161 C179 0.948 . S
H162 C120 0.948 . S
H163 C138 0.979 . S
H164 C138 0.980 . S
H165 C138 0.983 . S
H166 C137 0.982 . S
H167 C137 0.979 . S
H168 C137 0.977 . S
H169 C139 0.948 . S
H170 C141 0.947 . S
H171 C142 0.948 . S
H172 C148 0.982 . S
H173 C148 0.979 . S
H174 C148 0.977 . S
H175 C149 0.979 . S
H176 C149 0.980 . S
H177 C149 0.983 . S
H178 C122 0.947 . S
C179 C122 1.392 . S
C179 C123 1.419 . S
C179 H161 0.948 . S
C180 C181 1.391 . S
C180 C184 1.391 . S
C180 H222 0.948 . S
C181 C180 1.391 . S
C181 C182 1.391 . S
C182 C181 1.391 . S
C182 H238 0.947 . S
C182 C239 1.392 . S
C183 C184 1.391 . S
C183 C187 1.397 . S
C183 C239 1.419 . S
C184 C180 1.391 . S
C184 C183 1.391 . S
C184 C185 1.399 . S
C185 C184 1.399 . S
C185 C188 1.396 . S
C185 C197 1.453 . S
C185 C198 1.684 . S
H186 C210 0.948 . S
C187 C183 1.397 . S
C187 C188 1.394 . S
C187 C206 1.723 . S
C188 C185 1.396 . S
C188 C187 1.394 . S
C188 C218 1.723 . S
H189 C212 0.947 . S
H190 C213 0.948 . S
H191 C219 0.982 . S
H192 C220 0.979 . S
H193 C220 0.980 . S
H194 C220 0.983 . S
H195 C219 0.979 . S
H196 C219 0.977 . S
C197 C185 1.453 . S
C197 H226 0.982 . S
C197 H227 0.979 . S
C197 H228 0.977 . S
C198 C185 1.684 . S
C198 H223 0.979 . S
C198 H224 0.980 . S
C198 H225 0.983 . S
C199 C200 1.391 . S
C199 C204 1.391 . S
C199 H229 0.948 . S
C200 C199 1.391 . S
C200 C201 1.391 . S
C201 C200 1.391 . S
C201 C202 1.392 . S
C201 H230 0.947 . S
C202 C201 1.392 . S
C202 C203 1.419 . S
C202 H231 0.948 . S
C203 C202 1.419 . S
C203 C204 1.391 . S
C203 C207 1.397 . S
C204 C199 1.391 . S
C204 C203 1.391 . S
C204 C205 1.399 . S
C205 C204 1.399 . S
C205 C206 1.396 . S
C205 C208 1.453 . S
C205 C209 1.684 . S
C206 C187 1.723 . S
C206 C205 1.396 . S
C206 C207 1.394 . S
C207 C203 1.397 . S
C207 C206 1.394 . S
C207 C217 1.723 . S
C208 C205 1.453 . S
C208 H232 0.982 . S
C208 H233 0.979 . S
C208 H234 0.977 . S
C209 C205 1.684 . S
C209 H235 0.979 . S
C209 H236 0.980 . S
C209 H237 0.983 . S
C210 H186 0.948 . S
C210 C211 1.391 . S
C210 C215 1.391 . S
C211 C210 1.391 . S
C211 C212 1.391 . S
C212 H189 0.947 . S
C212 C211 1.391 . S
C212 C213 1.392 . S
C213 H190 0.948 . S
C213 C212 1.392 . S
C213 C214 1.419 . S
C214 C213 1.419 . S
C214 C215 1.391 . S
C214 C218 1.397 . S
C215 C210 1.391 . S
C215 C214 1.391 . S
C215 C216 1.399 . S
C216 C215 1.399 . S
C216 C217 1.396 . S
C216 C219 1.453 . S
C216 C220 1.684 . S
C217 C207 1.723 . S
C217 C216 1.396 . S
C217 C218 1.394 . S
C218 C188 1.723 . S
C218 C214 1.397 . S
C218 C217 1.394 . S
C219 H191 0.982 . S
C219 H195 0.979 . S
C219 H196 0.977 . S
C219 C216 1.453 . S
C220 H192 0.979 . S
C220 H193 0.980 . S
C220 H194 0.983 . S
C220 C216 1.684 . S
H221 C239 0.948 . S
H222 C180 0.948 . S
H223 C198 0.979 . S
H224 C198 0.980 . S
H225 C198 0.983 . S
H226 C197 0.982 . S
H227 C197 0.979 . S
H228 C197 0.977 . S
H229 C199 0.948 . S
H230 C201 0.947 . S
H231 C202 0.948 . S
H232 C208 0.982 . S
H233 C208 0.979 . S
H234 C208 0.977 . S
H235 C209 0.979 . S
H236 C209 0.980 . S
H237 C209 0.983 . S
H238 C182 0.947 . S
C239 C182 1.392 . S
C239 C183 1.419 . S
C239 H221 0.948 . S
C240 C241 1.391 . S
C240 C244 1.391 . S
C240 H282 0.948 . S
C241 C240 1.391 . S
C241 C242 1.391 . S
C242 C241 1.391 . S
C242 H298 0.947 . S
C242 C299 1.392 . S
C243 C244 1.391 . S
C243 C247 1.397 . S
C243 C299 1.419 . S
C244 C240 1.391 . S
C244 C243 1.391 . S
C244 C245 1.399 . S
C245 C244 1.399 . S
C245 C248 1.396 . S
C245 C257 1.453 . S
C245 C258 1.684 . S
H246 C270 0.948 . S
C247 C243 1.397 . S
C247 C248 1.394 . S
C247 C266 1.723 . S
C248 C245 1.396 . S
C248 C247 1.394 . S
C248 C278 1.723 . S
H249 C272 0.947 . S
H250 C273 0.948 . S
H251 C279 0.982 . S
H252 C280 0.979 1_455 S
H253 C280 0.980 . S
H254 C280 0.983 . S
H255 C279 0.979 . S
H256 C279 0.977 . S
C257 C245 1.453 . S
C257 H286 0.982 . S
C257 H287 0.979 . S
C257 H288 0.977 . S
C258 C245 1.684 . S
C258 H283 0.979 . S
C258 H284 0.980 . S
C258 H285 0.983 . S
C259 C260 1.391 . S
C259 C264 1.391 . S
C259 H289 0.948 . S
C260 C259 1.391 . S
C260 C261 1.391 . S
C261 C260 1.391 . S
C261 C262 1.392 . S
C261 H290 0.947 1_455 S
C262 C261 1.392 . S
C262 C263 1.419 . S
C262 H291 0.932 1_455 S
C263 C262 1.419 . S
C263 C264 1.391 . S
C263 C267 1.397 . S
C264 C259 1.391 . S
C264 C263 1.391 . S
C264 C265 1.399 . S
C265 C264 1.399 . S
C265 C266 1.396 . S
C265 C268 1.453 . S
C265 C269 1.684 . S
C266 C247 1.723 . S
C266 C265 1.396 . S
C266 C267 1.394 . S
C267 C263 1.397 . S
C267 C266 1.394 . S
C267 C277 1.723 . S
C268 C265 1.453 . S
C268 H292 0.982 . S
C268 H293 0.979 . S
C268 H294 0.977 . S
C269 C265 1.684 . S
C269 H295 0.979 . S
C269 H296 0.980 . S
C269 H297 0.983 . S
C270 H246 0.948 . S
C270 C271 1.391 . S
C270 C275 1.391 . S
C271 C270 1.391 . S
C271 C272 1.391 . S
C272 H249 0.947 . S
C272 C271 1.391 . S
C272 C273 1.392 1_655 S
C273 H250 0.948 . S
C273 C272 1.392 1_455 S
C273 C274 1.419 . S
C274 C273 1.419 . S
C274 C275 1.391 1_455 S
C274 C278 1.397 . S
C275 C270 1.391 . S
C275 C274 1.391 1_655 S
C275 C276 1.399 . S
C276 C275 1.399 . S
C276 C277 1.396 1_655 S
C276 C279 1.453 . S
C276 C280 1.684 . S
C277 C267 1.723 . S
C277 C276 1.396 1_455 S
C277 C278 1.394 . S
C278 C248 1.723 . S
C278 C274 1.397 . S
C278 C277 1.394 . S
C279 H251 0.982 . S
C279 H255 0.979 . S
C279 H256 0.977 . S
C279 C276 1.453 . S
C280 H252 0.979 1_655 S
C280 H253 0.980 . S
C280 H254 0.983 . S
C280 C276 1.684 . S
H281 C299 0.948 . S
H282 C240 0.948 . S
H283 C258 0.979 . S
H284 C258 0.980 . S
H285 C258 0.983 . S
H286 C257 0.982 . S
H287 C257 0.979 . S
H288 C257 0.977 . S
H289 C259 0.948 . S
H290 C261 0.947 1_655 S
H291 C262 0.932 1_655 S
H292 C268 0.982 . S
H293 C268 0.979 . S
H294 C268 0.977 . S
H295 C269 0.979 . S
H296 C269 0.980 . S
H297 C269 0.983 . S
H298 C242 0.947 . S
C299 C242 1.392 . S
C299 C243 1.419 . S
C299 H281 0.948 . S
C300 C301 1.391 . S
C300 C304 1.391 . S
C300 H342 0.948 . S
C301 C300 1.391 . S
C301 C302 1.391 . S
C302 C301 1.391 . S
C302 H358 0.947 . S
C302 C359 1.392 . S
C303 C304 1.391 . S
C303 C307 1.397 . S
C303 C359 1.419 . S
C304 C300 1.391 . S
C304 C303 1.391 . S
C304 C305 1.399 . S
C305 C304 1.399 . S
C305 C308 1.396 . S
C305 C317 1.453 . S
C305 C318 1.684 . S
H306 C330 0.948 . S
C307 C303 1.397 . S
C307 C308 1.394 . S
C307 C326 1.723 . S
C308 C305 1.396 . S
C308 C307 1.394 . S
C308 C338 1.723 1_655 S
H309 C332 0.947 . S
H310 C333 0.948 . S
H311 C339 0.982 . S
H312 C340 0.979 . S
H313 C340 0.980 . S
H314 C340 0.983 . S
H315 C339 0.979 . S
H316 C339 0.977 . S
C317 C305 1.453 . S
C317 H346 0.982 1_655 S
C317 H347 0.979 . S
C317 H348 0.977 1_655 S
C318 C305 1.684 . S
C318 H343 0.979 . S
C318 H344 0.980 . S
C318 H345 0.983 . S
C319 C320 1.391 1_655 S
C319 C324 1.391 . S
C319 H349 0.948 . S
C320 C319 1.391 1_455 S
C320 C321 1.391 . S
C321 C320 1.391 . S
C321 C322 1.392 . S
C321 H350 0.947 . S
C322 C321 1.392 . S
C322 C323 1.419 . S
C322 H351 0.948 . S
C323 C322 1.419 . S
C323 C324 1.391 1_455 S
C323 C327 1.397 . S
C324 C319 1.391 . S
C324 C323 1.391 1_655 S
C324 C325 1.399 . S
C325 C324 1.399 . S
C325 C326 1.396 . S
C325 C328 1.453 . S
C325 C329 1.684 . S
C326 C307 1.723 . S
C326 C325 1.396 . S
C326 C327 1.394 1_655 S
C327 C323 1.397 . S
C327 C326 1.394 1_455 S
C327 C337 1.723 . S
C328 C325 1.453 . S
C328 H352 0.982 . S
C328 H353 0.979 . S
C328 H354 0.977 . S
C329 C325 1.684 . S
C329 H355 0.979 . S
C329 H356 0.980 . S
C329 H357 0.983 . S
C330 H306 0.948 . S
C330 C331 1.391 . S
C330 C335 1.391 . S
C331 C330 1.391 . S
C331 C332 1.391 . S
C332 H309 0.947 . S
C332 C331 1.391 . S
C332 C333 1.392 . S
C333 H310 0.948 . S
C333 C332 1.392 . S
C333 C334 1.419 . S
C334 C333 1.419 . S
C334 C335 1.391 . S
C334 C338 1.397 . S
C335 C330 1.391 . S
C335 C334 1.391 . S
C335 C336 1.399 . S
C336 C335 1.399 . S
C336 C337 1.396 . S
C336 C339 1.453 . S
C336 C340 1.684 . S
C337 C327 1.723 . S
C337 C336 1.396 . S
C337 C338 1.394 . S
C338 C308 1.723 1_455 S
C338 C334 1.397 . S
C338 C337 1.394 . S
C339 H311 0.982 . S
C339 H315 0.979 . S
C339 H316 0.977 . S
C339 C336 1.453 . S
C340 H312 0.979 . S
C340 H313 0.980 . S
C340 H314 0.983 . S
C340 C336 1.684 . S
H341 C359 0.948 . S
H342 C300 0.948 . S
H343 C318 0.979 . S
H344 C318 0.980 . S
H345 C318 0.983 . S
H346 C317 0.982 1_455 S
H347 C317 0.979 . S
H348 C317 0.977 1_455 S
H349 C319 0.948 . S
H350 C321 0.947 . S
H351 C322 0.948 . S
H352 C328 0.982 . S
H353 C328 0.979 . S
H354 C328 0.977 . S
H355 C329 0.979 . S
H356 C329 0.980 . S
H357 C329 0.983 . S
H358 C302 0.947 . S
C359 C302 1.392 . S
C359 C303 1.419 . S
C359 H341 0.948 . S
C360 C361 1.391 . S
C360 C364 1.391 . S
C360 H402 0.948 . S
C361 C360 1.391 . S
C361 C362 1.391 . S
C362 C361 1.391 . S
C362 H418 0.947 . S
C362 C419 1.392 . S
C363 C364 1.391 . S
C363 C367 1.397 . S
C363 C419 1.419 . S
C364 C360 1.391 . S
C364 C363 1.391 . S
C364 C365 1.399 . S
C365 C364 1.399 . S
C365 C368 1.396 . S
C365 C377 1.453 1_565 S
C365 C378 1.684 . S
H366 C390 0.948 . S
C367 C363 1.397 . S
C367 C368 1.394 . S
C367 C386 1.723 . S
C368 C365 1.396 . S
C368 C367 1.394 . S
C368 C398 1.723 1_565 S
H369 C392 0.947 . S
H370 C393 0.948 . S
H371 C399 0.982 . S
H372 C400 0.979 . S
H373 C400 0.980 . S
H374 C400 0.983 . S
H375 C399 0.979 . S
H376 C399 0.977 . S
C377 C365 1.453 1_545 S
C377 H406 0.982 . S
C377 H407 0.975 1_545 S
C377 H408 0.977 . S
C378 C365 1.684 . S
C378 H403 0.979 . S
C378 H404 0.980 . S
C378 H405 0.983 . S
C379 C380 1.391 . S
C379 C384 1.391 . S
C379 H409 0.948 . S
C380 C379 1.391 . S
C380 C381 1.391 1_565 S
C381 C380 1.391 1_545 S
C381 C382 1.392 . S
C381 H410 0.947 . S
C382 C381 1.392 . S
C382 C383 1.419 . S
C382 H411 0.948 . S
C383 C382 1.419 . S
C383 C384 1.391 1_545 S
C383 C387 1.397 . S
C384 C379 1.391 . S
C384 C383 1.391 1_565 S
C384 C385 1.399 . S
C385 C384 1.399 . S
C385 C386 1.396 . S
C385 C388 1.453 . S
C385 C389 1.684 . S
C386 C367 1.723 . S
C386 C385 1.396 . S
C386 C387 1.394 1_565 S
C387 C383 1.397 . S
C387 C386 1.394 1_545 S
C387 C397 1.723 . S
C388 C385 1.453 . S
C388 H412 0.982 . S
C388 H413 0.979 . S
C388 H414 0.977 . S
C389 C385 1.684 . S
C389 H415 0.979 . S
C389 H416 0.980 . S
C389 H417 0.983 . S
C390 H366 0.948 . S
C390 C391 1.391 . S
C390 C395 1.391 . S
C391 C390 1.391 . S
C391 C392 1.391 . S
C392 H369 0.947 . S
C392 C391 1.391 . S
C392 C393 1.392 . S
C393 H370 0.948 . S
C393 C392 1.392 . S
C393 C394 1.419 . S
C394 C393 1.419 . S
C394 C395 1.391 . S
C394 C398 1.397 . S
C395 C390 1.391 . S
C395 C394 1.391 . S
C395 C396 1.399 . S
C396 C395 1.399 . S
C396 C397 1.396 . S
C396 C399 1.453 . S
C396 C400 1.684 . S
C397 C387 1.723 . S
C397 C396 1.396 . S
C397 C398 1.394 . S
C398 C368 1.723 1_545 S
C398 C394 1.397 . S
C398 C397 1.394 . S
C399 H371 0.982 . S
C399 H375 0.979 . S
C399 H376 0.977 . S
C399 C396 1.453 . S
C400 H372 0.979 . S
C400 H373 0.980 . S
C400 H374 0.983 . S
C400 C396 1.684 . S
H401 C419 0.948 . S
H402 C360 0.948 . S
H403 C378 0.979 . S
H404 C378 0.980 . S
H405 C378 0.983 . S
H406 C377 0.982 . S
H407 C377 0.975 1_565 S
H408 C377 0.977 . S
H409 C379 0.948 . S
H410 C381 0.947 . S
H411 C382 0.948 . S
H412 C388 0.982 . S
H413 C388 0.979 . S
H414 C388 0.977 . S
H415 C389 0.979 . S
H416 C389 0.980 . S
H417 C389 0.983 . S
H418 C362 0.947 . S
C419 C362 1.392 . S
C419 C363 1.419 . S
C419 H401 0.948 . S
C420 C421 1.391 . S
C420 C424 1.391 . S
C420 H462 0.948 . S
C421 C420 1.391 . S
C421 C422 1.391 . S
C422 C421 1.391 . S
C422 H478 0.947 . S
C422 C479 1.392 . S
C423 C424 1.391 . S
C423 C427 1.397 . S
C423 C479 1.419 . S
C424 C420 1.391 . S
C424 C423 1.391 . S
C424 C425 1.399 . S
C425 C424 1.399 . S
C425 C428 1.396 . S
C425 C437 1.453 . S
C425 C438 1.684 . S
H426 C450 0.948 . S
C427 C423 1.397 . S
C427 C428 1.394 . S
C427 C446 1.723 . S
C428 C425 1.396 . S
C428 C427 1.394 . S
C428 C458 1.723 . S
H429 C452 0.947 . S
H430 C453 0.948 . S
H431 C459 0.982 . S
H432 C460 0.979 . S
H433 C460 0.980 . S
H434 C460 0.983 . S
H435 C459 0.979 . S
H436 C459 0.977 . S
C437 C425 1.453 . S
C437 H466 0.982 . S
C437 H467 0.979 . S
C437 H468 0.977 . S
C438 C425 1.684 . S
C438 H463 0.979 . S
C438 H464 0.980 . S
C438 H465 0.983 . S
C439 C440 1.391 1_554 S
C439 C444 1.391 . S
C439 H469 0.948 1_554 S
C440 C439 1.391 1_556 S
C440 C441 1.395 . S
C441 C440 1.395 . S
C441 C442 1.383 1_556 S
C441 H470 0.952 . S
C442 C441 1.383 1_554 S
C442 C443 1.419 . S
C442 H471 0.948 . S
C443 C442 1.419 . S
C443 C444 1.391 . S
C443 C447 1.397 . S
C444 C439 1.391 . S
C444 C443 1.391 . S
C444 C445 1.399 . S
C445 C444 1.399 . S
C445 C446 1.396 . S
C445 C448 1.453 . S
C445 C449 1.684 . S
C446 C427 1.723 . S
C446 C445 1.396 . S
C446 C447 1.394 . S
C447 C443 1.397 . S
C447 C446 1.394 . S
C447 C457 1.723 . S
C448 C445 1.453 . S
C448 H472 0.982 . S
C448 H473 0.979 . S
C448 H474 0.977 . S
C449 C445 1.684 . S
C449 H475 0.979 . S
C449 H476 0.980 . S
C449 H477 0.983 . S
C450 H426 0.948 . S
C450 C451 1.391 . S
C450 C455 1.391 . S
C451 C450 1.391 . S
C451 C452 1.391 . S
C452 H429 0.947 . S
C452 C451 1.391 . S
C452 C453 1.392 . S
C453 H430 0.948 . S
C453 C452 1.392 . S
C453 C454 1.419 . S
C454 C453 1.419 . S
C454 C455 1.391 . S
C454 C458 1.397 . S
C455 C450 1.391 . S
C455 C454 1.391 . S
C455 C456 1.399 . S
C456 C455 1.399 . S
C456 C457 1.396 . S
C456 C459 1.453 . S
C456 C460 1.684 . S
C457 C447 1.723 . S
C457 C456 1.396 . S
C457 C458 1.394 . S
C458 C428 1.723 . S
C458 C454 1.397 . S
C458 C457 1.394 . S
C459 H431 0.982 . S
C459 H435 0.979 . S
C459 H436 0.977 . S
C459 C456 1.453 . S
C460 H432 0.979 . S
C460 H433 0.980 . S
C460 H434 0.983 . S
C460 C456 1.684 . S
H461 C479 0.948 . S
H462 C420 0.948 . S
H463 C438 0.979 . S
H464 C438 0.980 . S
H465 C438 0.983 . S
H466 C437 0.982 . S
H467 C437 0.979 . S
H468 C437 0.977 . S
H469 C439 0.948 1_556 S
H470 C441 0.952 . S
H471 C442 0.948 . S
H472 C448 0.982 . S
H473 C448 0.979 . S
H474 C448 0.977 . S
H475 C449 0.979 . S
H476 C449 0.980 . S
H477 C449 0.983 . S
H478 C422 0.947 . S
C479 C422 1.392 . S
C479 C423 1.419 . S
C479 H461 0.948 . S
H480 C486 0.930 . S
H481 C489 0.930 . S
H482 C490 0.930 . S
H483 C491 0.930 . S
H484 C494 0.930 . S
H485 C495 0.930 . S
C486 H480 0.930 . S
C486 C487 1.355 . S
C486 C488 1.415 . S
C487 C486 1.355 . S
C487 C489 1.419 . S
C488 C486 1.415 . S
C488 C493 1.425 . S
C488 C495 1.409 . S
C489 H481 0.930 . S
C489 C487 1.419 . S
C489 C490 1.362 . S
C490 H482 0.930 . S
C490 C489 1.362 . S
C490 C493 1.409 . S
C491 H483 0.930 . S
C491 C492 1.355 . S
C491 C493 1.415 . S
C492 C491 1.355 . S
C492 C494 1.419 . S
C493 C488 1.425 . S
C493 C490 1.409 . S
C493 C491 1.415 . S
C494 H484 0.930 . S
C494 C492 1.419 . S
C494 C495 1.362 . S
C495 H485 0.930 . S
C495 C488 1.409 . S
C495 C494 1.362 . S
H496 C502 0.930 . S
H497 C505 0.930 . S
H498 C506 0.930 . S
H499 C507 0.930 . S
H500 C510 0.930 . S
H501 C511 0.930 . S
C502 H496 0.930 . S
C502 C503 1.355 . S
C502 C504 1.415 . S
C503 C502 1.355 . S
C503 C505 1.419 . S
C504 C502 1.415 . S
C504 C509 1.425 . S
C504 C511 1.409 . S
C505 H497 0.930 . S
C505 C503 1.419 . S
C505 C506 1.362 . S
C506 H498 0.930 . S
C506 C505 1.362 . S
C506 C509 1.409 . S
C507 H499 0.930 . S
C507 C508 1.355 . S
C507 C509 1.415 . S
C508 C507 1.355 . S
C508 C510 1.419 . S
C509 C504 1.425 . S
C509 C506 1.409 . S
C509 C507 1.415 . S
C510 H500 0.930 . S
C510 C508 1.419 . S
C510 C511 1.362 . S
C511 H501 0.930 . S
C511 C504 1.409 . S
C511 C510 1.362 . S
H512 C518 0.930 . S
H513 C521 0.930 . S
H514 C522 0.930 . S
H515 C523 0.930 . S
H516 C526 0.930 . S
H517 C527 0.930 . S
C518 H512 0.930 . S
C518 C519 1.355 . S
C518 C520 1.415 . S
C519 C518 1.355 . S
C519 C521 1.419 . S
C520 C518 1.415 . S
C520 C525 1.425 . S
C520 C527 1.409 . S
C521 H513 0.930 . S
C521 C519 1.419 . S
C521 C522 1.362 . S
C522 H514 0.930 . S
C522 C521 1.362 . S
C522 C525 1.409 . S
C523 H515 0.930 . S
C523 C524 1.355 . S
C523 C525 1.415 . S
C524 C523 1.355 . S
C524 C526 1.419 . S
C525 C520 1.425 . S
C525 C522 1.409 . S
C525 C523 1.415 . S
C526 H516 0.930 . S
C526 C524 1.419 . S
C526 C527 1.362 . S
C527 H517 0.930 . S
C527 C520 1.409 . S
C527 C526 1.362 . S
H528 C534 0.930 . S
H529 C537 0.930 . S
H530 C538 0.930 . S
H531 C539 0.930 . S
H532 C542 0.930 . S
H533 C543 0.930 . S
C534 H528 0.930 . S
C534 C535 1.355 . S
C534 C536 1.415 . S
C535 C534 1.355 . S
C535 C537 1.419 . S
C536 C534 1.415 . S
C536 C541 1.425 . S
C536 C543 1.409 . S
C537 H529 0.930 . S
C537 C535 1.419 . S
C537 C538 1.362 . S
C538 H530 0.930 . S
C538 C537 1.362 . S
C538 C541 1.409 . S
C539 H531 0.930 . S
C539 C540 1.355 . S
C539 C541 1.415 . S
C540 C539 1.355 . S
C540 C542 1.419 . S
C541 C536 1.425 . S
C541 C538 1.409 . S
C541 C539 1.415 . S
C542 H532 0.930 . S
C542 C540 1.419 . S
C542 C543 1.362 . S
C543 H533 0.930 . S
C543 C536 1.409 . S
C543 C542 1.362 . S
H544 C550 0.930 . S
H545 C553 0.930 . S
H546 C554 0.930 . S
H547 C555 0.930 . S
H548 C558 0.930 . S
H549 C559 0.930 . S
C550 H544 0.930 . S
C550 C551 1.355 . S
C550 C552 1.415 . S
C551 C550 1.355 . S
C551 C553 1.419 . S
C552 C550 1.415 . S
C552 C557 1.425 . S
C552 C559 1.409 . S
C553 H545 0.930 . S
C553 C551 1.419 . S
C553 C554 1.362 . S
C554 H546 0.930 . S
C554 C553 1.362 . S
C554 C557 1.409 . S
C555 H547 0.930 . S
C555 C556 1.355 . S
C555 C557 1.415 . S
C556 C555 1.355 . S
C556 C558 1.419 . S
C557 C552 1.425 . S
C557 C554 1.409 . S
C557 C555 1.415 . S
C558 H548 0.930 . S
C558 C556 1.419 . S
C558 C559 1.362 . S
C559 H549 0.930 . S
C559 C552 1.409 . S
C559 C558 1.362 . S
H560 C566 0.930 . S
H561 C569 0.930 . S
H562 C570 0.930 . S
H563 C571 0.930 . S
H564 C574 0.930 . S
H565 C575 0.930 . S
C566 H560 0.930 . S
C566 C567 1.355 . S
C566 C568 1.415 . S
C567 C566 1.355 . S
C567 C569 1.419 . S
C568 C566 1.415 . S
C568 C573 1.425 . S
C568 C575 1.409 . S
C569 H561 0.930 . S
C569 C567 1.419 . S
C569 C570 1.362 . S
C570 H562 0.930 . S
C570 C569 1.362 . S
C570 C573 1.409 . S
C571 H563 0.930 . S
C571 C572 1.355 . S
C571 C573 1.415 . S
C572 C571 1.355 . S
C572 C574 1.419 . S
C573 C568 1.425 . S
C573 C570 1.409 . S
C573 C571 1.415 . S
C574 H564 0.930 . S
C574 C572 1.419 . S
C574 C575 1.362 . S
C575 H565 0.930 . S
C575 C568 1.409 . S
C575 C574 1.362 . S
H576 C582 0.930 . S
H577 C585 0.930 . S
H578 C586 0.930 . S
H579 C587 0.930 . S
H580 C590 0.930 . S
H581 C591 0.930 . S
C582 H576 0.930 . S
C582 C583 1.355 . S
C582 C584 1.415 . S
C583 C582 1.355 . S
C583 C585 1.419 . S
C584 C582 1.415 . S
C584 C589 1.425 . S
C584 C591 1.409 . S
C585 H577 0.930 . S
C585 C583 1.419 . S
C585 C586 1.362 . S
C586 H578 0.930 . S
C586 C585 1.362 . S
C586 C589 1.409 . S
C587 H579 0.930 . S
C587 C588 1.355 . S
C587 C589 1.415 . S
C588 C587 1.355 . S
C588 C590 1.419 . S
C589 C584 1.425 . S
C589 C586 1.409 . S
C589 C587 1.415 . S
C590 H580 0.930 . S
C590 C588 1.419 . S
C590 C591 1.362 . S
C591 H581 0.930 . S
C591 C584 1.409 . S
C591 C590 1.362 . S
H592 C598 0.930 . S
H593 C601 0.930 . S
H594 C602 0.930 . S
H595 C603 0.930 . S
H596 C606 0.930 . S
H597 C607 0.930 . S
C598 H592 0.930 . S
C598 C599 1.355 . S
C598 C600 1.415 . S
C599 C598 1.355 . S
C599 C601 1.419 . S
C600 C598 1.415 . S
C600 C605 1.425 . S
C600 C607 1.409 . S
C601 H593 0.930 . S
C601 C599 1.419 . S
C601 C602 1.362 . S
C602 H594 0.930 . S
C602 C601 1.362 . S
C602 C605 1.409 . S
C603 H595 0.930 . S
C603 C604 1.355 . S
C603 C605 1.415 . S
C604 C603 1.355 . S
C604 C606 1.419 . S
C605 C600 1.425 . S
C605 C602 1.409 . S
C605 C603 1.415 . S
C606 H596 0.930 . S
C606 C604 1.419 . S
C606 C607 1.362 . S
C607 H597 0.930 . S
C607 C600 1.409 . S
C607 C606 1.362 . S
H608 C614 0.930 . S
H609 C617 0.930 . S
H610 C618 0.930 . S
H611 C619 0.930 . S
H612 C622 0.930 . S
H613 C623 0.930 . S
C614 H608 0.930 . S
C614 C615 1.355 . S
C614 C616 1.415 . S
C615 C614 1.355 . S
C615 C617 1.419 . S
C616 C614 1.415 . S
C616 C621 1.425 . S
C616 C623 1.409 . S
C617 H609 0.930 . S
C617 C615 1.419 . S
C617 C618 1.362 . S
C618 H610 0.930 . S
C618 C617 1.362 . S
C618 C621 1.409 . S
C619 H611 0.930 . S
C619 C620 1.355 . S
C619 C621 1.415 . S
C620 C619 1.355 . S
C620 C622 1.419 . S
C621 C616 1.425 . S
C621 C618 1.409 . S
C621 C619 1.415 . S
C622 H612 0.930 . S
C622 C620 1.419 . S
C622 C623 1.362 . S
C623 H613 0.930 . S
C623 C616 1.409 . S
C623 C622 1.362 . S
H624 C630 0.930 . S
H625 C633 0.930 . S
H626 C634 0.930 . S
H627 C635 0.930 . S
H628 C638 0.930 . S
H629 C639 0.930 . S
C630 H624 0.930 . S
C630 C631 1.355 . S
C630 C632 1.415 . S
C631 C630 1.355 . S
C631 C633 1.419 . S
C632 C630 1.415 . S
C632 C637 1.425 . S
C632 C639 1.409 . S
C633 H625 0.930 . S
C633 C631 1.419 . S
C633 C634 1.362 . S
C634 H626 0.930 . S
C634 C633 1.362 . S
C634 C637 1.409 . S
C635 H627 0.930 . S
C635 C636 1.355 . S
C635 C637 1.415 . S
C636 C635 1.355 . S
C636 C638 1.419 . S
C637 C632 1.425 . S
C637 C634 1.409 . S
C637 C635 1.415 . S
C638 H628 0.930 . S
C638 C636 1.419 . S
C638 C639 1.362 . S
C639 H629 0.930 . S
C639 C632 1.409 . S
C639 C638 1.362 . S
H640 C646 0.930 . S
H641 C649 0.930 . S
H642 C650 0.930 . S
H643 C651 0.930 . S
H644 C654 0.930 . S
H645 C655 0.930 . S
C646 H640 0.930 . S
C646 C647 1.355 . S
C646 C648 1.415 . S
C647 C646 1.355 . S
C647 C649 1.419 . S
C648 C646 1.415 . S
C648 C653 1.425 . S
C648 C655 1.409 . S
C649 H641 0.930 . S
C649 C647 1.419 . S
C649 C650 1.362 . S
C650 H642 0.930 . S
C650 C649 1.362 . S
C650 C653 1.409 . S
C651 H643 0.930 . S
C651 C652 1.355 . S
C651 C653 1.415 . S
C652 C651 1.355 . S
C652 C654 1.419 . S
C653 C648 1.425 . S
C653 C650 1.409 . S
C653 C651 1.415 . S
C654 H644 0.930 . S
C654 C652 1.419 . S
C654 C655 1.362 . S
C655 H645 0.930 . S
C655 C648 1.409 . S
C655 C654 1.362 . S
H656 C662 0.930 . S
H657 C665 0.930 . S
H658 C666 0.930 . S
H659 C667 0.930 . S
H660 C670 0.930 . S
H661 C671 0.930 . S
C662 H656 0.930 . S
C662 C663 1.355 . S
C662 C664 1.415 . S
C663 C662 1.355 . S
C663 C665 1.419 . S
C664 C662 1.415 . S
C664 C669 1.425 . S
C664 C671 1.409 . S
C665 H657 0.930 . S
C665 C663 1.419 . S
C665 C666 1.362 . S
C666 H658 0.930 . S
C666 C665 1.362 . S
C666 C669 1.409 . S
C667 H659 0.930 . S
C667 C668 1.355 . S
C667 C669 1.415 . S
C668 C667 1.355 . S
C668 C670 1.419 . S
C669 C664 1.425 . S
C669 C666 1.409 . S
C669 C667 1.415 . S
C670 H660 0.930 . S
C670 C668 1.419 . S
C670 C671 1.362 . S
C671 H661 0.930 . S
C671 C664 1.409 . S
C671 C670 1.362 . S
H672 C678 0.930 . S
H673 C681 0.930 . S
H674 C682 0.930 . S
H675 C683 0.930 1_655 S
H676 C686 0.930 . S
H677 C687 0.930 . S
C678 H672 0.930 . S
C678 C679 1.355 . S
C678 C680 1.415 . S
C679 C678 1.355 . S
C679 C681 1.419 1_455 S
C680 C678 1.415 . S
C680 C685 1.425 . S
C680 C687 1.409 . S
C681 H673 0.930 . S
C681 C679 1.419 1_655 S
C681 C682 1.362 . S
C682 H674 0.930 . S
C682 C681 1.362 . S
C682 C685 1.409 1_655 S
C683 H675 0.930 1_455 S
C683 C684 1.355 . S
C683 C685 1.415 . S
C684 C683 1.355 . S
C684 C686 1.419 . S
C685 C680 1.425 . S
C685 C682 1.409 1_455 S
C685 C683 1.415 . S
C686 H676 0.930 . S
C686 C684 1.419 . S
C686 C687 1.362 . S
C687 H677 0.930 . S
C687 C680 1.409 . S
C687 C686 1.362 . S
H688 C694 0.930 . S
H689 C697 0.930 . S
H690 C698 0.930 . S
H691 C699 0.930 1_565 S
H692 C702 0.930 . S
H693 C703 0.930 . S
C694 H688 0.930 . S
C694 C695 1.355 . S
C694 C696 1.415 . S
C695 C694 1.355 . S
C695 C697 1.419 1_545 S
C696 C694 1.415 . S
C696 C701 1.425 . S
C696 C703 1.409 . S
C697 H689 0.930 . S
C697 C695 1.419 1_565 S
C697 C698 1.362 . S
C698 H690 0.930 . S
C698 C697 1.362 . S
C698 C701 1.409 1_565 S
C699 H691 0.930 1_545 S
C699 C700 1.355 . S
C699 C701 1.415 . S
C700 C699 1.355 . S
C700 C702 1.419 . S
C701 C696 1.425 . S
C701 C698 1.409 1_545 S
C701 C699 1.415 . S
C702 H692 0.930 . S
C702 C700 1.419 . S
C702 C703 1.362 . S
C703 H693 0.930 . S
C703 C696 1.409 . S
C703 C702 1.362 . S
H704 C710 0.930 . S
H705 C713 0.930 . S
H706 C714 0.930 . S
H707 C715 0.930 . S
H708 C718 0.930 . S
H709 C719 0.930 . S
C710 H704 0.930 . S
C710 C711 1.355 . S
C710 C712 1.415 . S
C711 C710 1.355 . S
C711 C713 1.419 . S
C712 C710 1.415 . S
C712 C717 1.425 . S
C712 C719 1.409 . S
C713 H705 0.930 . S
C713 C711 1.419 . S
C713 C714 1.362 . S
C714 H706 0.930 . S
C714 C713 1.362 . S
C714 C717 1.409 . S
C715 H707 0.930 . S
C715 C716 1.355 . S
C715 C717 1.415 . S
C716 C715 1.355 . S
C716 C718 1.419 . S
C717 C712 1.425 . S
C717 C714 1.409 . S
C717 C715 1.415 . S
C718 H708 0.930 . S
C718 C716 1.419 . S
C718 C719 1.362 . S
C719 H709 0.930 . S
C719 C712 1.409 . S
C719 C718 1.362 . S
H720 C726 0.930 . S
H721 C729 0.930 . S
H722 C730 0.930 . S
H723 C731 0.930 . S
H724 C734 0.930 . S
H725 C735 0.930 . S
C726 H720 0.930 . S
C726 C727 1.355 . S
C726 C728 1.415 . S
C727 C726 1.355 . S
C727 C729 1.419 1_545 S
C728 C726 1.415 . S
C728 C733 1.425 1_545 S
C728 C735 1.409 . S
C729 H721 0.930 . S
C729 C727 1.419 1_565 S
C729 C730 1.362 . S
C730 H722 0.930 . S
C730 C729 1.362 . S
C730 C733 1.409 . S
C731 H723 0.930 . S
C731 C732 1.355 . S
C731 C733 1.415 . S
C732 C731 1.355 . S
C732 C734 1.419 1_565 S
C733 C728 1.425 1_565 S
C733 C730 1.409 . S
C733 C731 1.415 . S
C734 H724 0.930 . S
C734 C732 1.419 1_545 S
C734 C735 1.362 . S
C735 H725 0.930 . S
C735 C728 1.409 . S
C735 C734 1.362 . S
H736 C742 0.930 . S
H737 C745 0.930 . S
H738 C746 0.930 . S
H739 C747 0.930 . S
H740 C750 0.930 . S
H741 C751 0.930 . S
C742 H736 0.930 . S
C742 C743 1.355 . S
C742 C744 1.415 . S
C743 C742 1.355 . S
C743 C745 1.419 . S
C744 C742 1.415 . S
C744 C749 1.425 . S
C744 C751 1.409 . S
C745 H737 0.930 . S
C745 C743 1.419 . S
C745 C746 1.362 . S
C746 H738 0.930 . S
C746 C745 1.362 . S
C746 C749 1.409 . S
C747 H739 0.930 . S
C747 C748 1.355 . S
C747 C749 1.415 . S
C748 C747 1.355 . S
C748 C750 1.419 . S
C749 C744 1.425 . S
C749 C746 1.409 . S
C749 C747 1.415 . S
C750 H740 0.930 . S
C750 C748 1.419 . S
C750 C751 1.362 . S
C751 H741 0.930 . S
C751 C744 1.409 . S
C751 C750 1.362 . S
H752 C758 0.930 . S
H753 C761 0.930 . S
H754 C762 0.930 . S
H755 C763 0.930 . S
H756 C766 0.930 . S
H757 C767 0.930 . S
C758 H752 0.930 . S
C758 C759 1.355 . S
C758 C760 1.415 . S
C759 C758 1.355 . S
C759 C761 1.419 1_455 S
C760 C758 1.415 . S
C760 C765 1.425 1_455 S
C760 C767 1.409 . S
C761 H753 0.930 . S
C761 C759 1.419 1_655 S
C761 C762 1.362 . S
C762 H754 0.930 . S
C762 C761 1.362 . S
C762 C765 1.409 . S
C763 H755 0.930 . S
C763 C764 1.355 1_655 S
C763 C765 1.415 . S
C764 C763 1.355 1_455 S
C764 C766 1.419 . S
C765 C760 1.425 1_655 S
C765 C762 1.409 . S
C765 C763 1.415 . S
C766 H756 0.930 . S
C766 C764 1.419 . S
C766 C767 1.362 . S
C767 H757 0.930 . S
C767 C760 1.409 . S
C767 C766 1.362 . S
C487 C7 0.798 . S
C492 C451 0.805 . S
C503 C51 1.954 . S
C508 C301 1.808 . S
C519 C87 1.249 . S
C524 C361 1.308 . S
C535 C16 0.460 . S
C540 C421 0.541 . S
C556 C331 2.099 . S
C551 C42 2.089 . S
C572 C391 1.386 . S
C567 C96 1.366 . S
C583 C47 1.258 . S
C588 C181 1.172 . S
C599 C91 3.141 . S
C604 C271 3.120 . S
C615 C2 2.152 . S
C620 C151 2.142 . S
C636 C211 1.364 . S
C631 C56 1.319 . S
C652 C241 2.888 . S
C647 C82 3.023 . S
C663 C11 1.952 . S
C668 C121 1.799 . S
C684 C260 1.758 1_554 S
C679 C19 1.700 . S
C695 C50 1.363 . S
C700 C140 1.368 . S
C711 C99 1.457 . S
C716 C200 1.473 . S
C732 C380 1.433 . S
C727 C59 1.482 . S
C748 C440 1.087 . S
C743 C90 1.114 . S
C759 C10 1.317 . S
C764 C320 1.303 . S
