# Generated by pormake.
# Topology ptr, (4,4)-cn, num edge types: 1
# Building blocks:
#     Node 0, Type 0, BuildingBlock: TATPOV_clean_sbu_0, # of connection points: 4
#     Node 1, Type 0, BuildingBlock: TATPOV_clean_sbu_0, # of connection points: 4
#     Node 2, Type 0, BuildingBlock: TATPOV_clean_sbu_0, # of connection points: 4
#     Node 3, Type 0, BuildingBlock: TATPOV_clean_sbu_0, # of connection points: 4
#     Node 4, Type 0, BuildingBlock: TATPOV_clean_sbu_0, # of connection points: 4
#     Node 5, Type 0, BuildingBlock: TATPOV_clean_sbu_0, # of connection points: 4
#     Node 6, Type 0, BuildingBlock: TATPOV_clean_sbu_0, # of connection points: 4
#     Node 7, Type 0, BuildingBlock: TATPOV_clean_sbu_0, # of connection points: 4
#     Node 8, Type 0, BuildingBlock: TATPOV_clean_sbu_0, # of connection points: 4
#     Node 9, Type 0, BuildingBlock: TATPOV_clean_sbu_0, # of connection points: 4
#     Node 10, Type 0, BuildingBlock: TATPOV_clean_sbu_0, # of connection points: 4
#     Node 11, Type 0, BuildingBlock: TATPOV_clean_sbu_0, # of connection points: 4
#     Node 12, Type 0, BuildingBlock: TATPOV_clean_sbu_0, # of connection points: 4
#     Node 13, Type 0, BuildingBlock: TATPOV_clean_sbu_0, # of connection points: 4
#     Node 14, Type 0, BuildingBlock: TATPOV_clean_sbu_0, # of connection points: 4
#     Node 15, Type 0, BuildingBlock: TATPOV_clean_sbu_0, # of connection points: 4
#     Node 16, Type 0, BuildingBlock: TATPOV_clean_sbu_0, # of connection points: 4
#     Node 17, Type 0, BuildingBlock: TATPOV_clean_sbu_0, # of connection points: 4
#     Node 18, Type 1, BuildingBlock: MUDLON_clean_linker_0, # of connection points: 4
#     Node 19, Type 1, BuildingBlock: MUDLON_clean_linker_0, # of connection points: 4
#     Node 20, Type 1, BuildingBlock: MUDLON_clean_linker_0, # of connection points: 4
#     Node 21, Type 1, BuildingBlock: MUDLON_clean_linker_0, # of connection points: 4
#     Node 22, Type 1, BuildingBlock: MUDLON_clean_linker_0, # of connection points: 4
#     Node 23, Type 1, BuildingBlock: MUDLON_clean_linker_0, # of connection points: 4
#     Node 24, Type 1, BuildingBlock: MUDLON_clean_linker_0, # of connection points: 4
#     Node 25, Type 1, BuildingBlock: MUDLON_clean_linker_0, # of connection points: 4
#     Node 26, Type 1, BuildingBlock: MUDLON_clean_linker_0, # of connection points: 4
#     Node 27, Type 1, BuildingBlock: MUDLON_clean_linker_0, # of connection points: 4
#     Node 28, Type 1, BuildingBlock: MUDLON_clean_linker_0, # of connection points: 4
#     Node 29, Type 1, BuildingBlock: MUDLON_clean_linker_0, # of connection points: 4
#     Node 30, Type 1, BuildingBlock: MUDLON_clean_linker_0, # of connection points: 4
#     Node 31, Type 1, BuildingBlock: MUDLON_clean_linker_0, # of connection points: 4
#     Node 32, Type 1, BuildingBlock: MUDLON_clean_linker_0, # of connection points: 4
#     Node 33, Type 1, BuildingBlock: MUDLON_clean_linker_0, # of connection points: 4
#     Node 34, Type 1, BuildingBlock: MUDLON_clean_linker_0, # of connection points: 4
#     Node 35, Type 1, BuildingBlock: MUDLON_clean_linker_0, # of connection points: 4
#     Edge 36, Type (0, 1), BuildingBlock: XIVTED_clean_linker_0, # of connection points: 2
#     Edge 37, Type (0, 1), BuildingBlock: XIVTED_clean_linker_0, # of connection points: 2
#     Edge 38, Type (0, 1), BuildingBlock: XIVTED_clean_linker_0, # of connection points: 2
#     Edge 39, Type (0, 1), BuildingBlock: XIVTED_clean_linker_0, # of connection points: 2
#     Edge 40, Type (0, 1), BuildingBlock: XIVTED_clean_linker_0, # of connection points: 2
#     Edge 41, Type (0, 1), BuildingBlock: XIVTED_clean_linker_0, # of connection points: 2
#     Edge 42, Type (0, 1), BuildingBlock: XIVTED_clean_linker_0, # of connection points: 2
#     Edge 43, Type (0, 1), BuildingBlock: XIVTED_clean_linker_0, # of connection points: 2
#     Edge 44, Type (0, 1), BuildingBlock: XIVTED_clean_linker_0, # of connection points: 2
#     Edge 45, Type (0, 1), BuildingBlock: XIVTED_clean_linker_0, # of connection points: 2
#     Edge 46, Type (0, 1), BuildingBlock: XIVTED_clean_linker_0, # of connection points: 2
#     Edge 47, Type (0, 1), BuildingBlock: XIVTED_clean_linker_0, # of connection points: 2
#     Edge 48, Type (0, 1), BuildingBlock: XIVTED_clean_linker_0, # of connection points: 2
#     Edge 49, Type (0, 1), BuildingBlock: XIVTED_clean_linker_0, # of connection points: 2
#     Edge 50, Type (0, 1), BuildingBlock: XIVTED_clean_linker_0, # of connection points: 2
#     Edge 51, Type (0, 1), BuildingBlock: XIVTED_clean_linker_0, # of connection points: 2
#     Edge 52, Type (0, 1), BuildingBlock: XIVTED_clean_linker_0, # of connection points: 2
#     Edge 53, Type (0, 1), BuildingBlock: XIVTED_clean_linker_0, # of connection points: 2
#     Edge 54, Type (0, 1), BuildingBlock: XIVTED_clean_linker_0, # of connection points: 2
#     Edge 55, Type (0, 1), BuildingBlock: XIVTED_clean_linker_0, # of connection points: 2
#     Edge 56, Type (0, 1), BuildingBlock: XIVTED_clean_linker_0, # of connection points: 2
#     Edge 57, Type (0, 1), BuildingBlock: XIVTED_clean_linker_0, # of connection points: 2
#     Edge 58, Type (0, 1), BuildingBlock: XIVTED_clean_linker_0, # of connection points: 2
#     Edge 59, Type (0, 1), BuildingBlock: XIVTED_clean_linker_0, # of connection points: 2
#     Edge 60, Type (0, 1), BuildingBlock: XIVTED_clean_linker_0, # of connection points: 2
#     Edge 61, Type (0, 1), BuildingBlock: XIVTED_clean_linker_0, # of connection points: 2
#     Edge 62, Type (0, 1), BuildingBlock: XIVTED_clean_linker_0, # of connection points: 2
#     Edge 63, Type (0, 1), BuildingBlock: XIVTED_clean_linker_0, # of connection points: 2
#     Edge 64, Type (0, 1), BuildingBlock: XIVTED_clean_linker_0, # of connection points: 2
#     Edge 65, Type (0, 1), BuildingBlock: XIVTED_clean_linker_0, # of connection points: 2
#     Edge 66, Type (0, 1), BuildingBlock: XIVTED_clean_linker_0, # of connection points: 2
#     Edge 67, Type (0, 1), BuildingBlock: XIVTED_clean_linker_0, # of connection points: 2
#     Edge 68, Type (0, 1), BuildingBlock: XIVTED_clean_linker_0, # of connection points: 2
#     Edge 69, Type (0, 1), BuildingBlock: XIVTED_clean_linker_0, # of connection points: 2
#     Edge 70, Type (0, 1), BuildingBlock: XIVTED_clean_linker_0, # of connection points: 2
#     Edge 71, Type (0, 1), BuildingBlock: XIVTED_clean_linker_0, # of connection points: 2
#     Edge 72, Type (0, 1), BuildingBlock: XIVTED_clean_linker_0, # of connection points: 2
#     Edge 73, Type (0, 1), BuildingBlock: XIVTED_clean_linker_0, # of connection points: 2
#     Edge 74, Type (0, 1), BuildingBlock: XIVTED_clean_linker_0, # of connection points: 2
#     Edge 75, Type (0, 1), BuildingBlock: XIVTED_clean_linker_0, # of connection points: 2
#     Edge 76, Type (0, 1), BuildingBlock: XIVTED_clean_linker_0, # of connection points: 2
#     Edge 77, Type (0, 1), BuildingBlock: XIVTED_clean_linker_0, # of connection points: 2
#     Edge 78, Type (0, 1), BuildingBlock: XIVTED_clean_linker_0, # of connection points: 2
#     Edge 79, Type (0, 1), BuildingBlock: XIVTED_clean_linker_0, # of connection points: 2
#     Edge 80, Type (0, 1), BuildingBlock: XIVTED_clean_linker_0, # of connection points: 2
#     Edge 81, Type (0, 1), BuildingBlock: XIVTED_clean_linker_0, # of connection points: 2
#     Edge 82, Type (0, 1), BuildingBlock: XIVTED_clean_linker_0, # of connection points: 2
#     Edge 83, Type (0, 1), BuildingBlock: XIVTED_clean_linker_0, # of connection points: 2
#     Edge 84, Type (0, 1), BuildingBlock: XIVTED_clean_linker_0, # of connection points: 2
#     Edge 85, Type (0, 1), BuildingBlock: XIVTED_clean_linker_0, # of connection points: 2
#     Edge 86, Type (0, 1), BuildingBlock: XIVTED_clean_linker_0, # of connection points: 2
#     Edge 87, Type (0, 1), BuildingBlock: XIVTED_clean_linker_0, # of connection points: 2
#     Edge 88, Type (0, 1), BuildingBlock: XIVTED_clean_linker_0, # of connection points: 2
#     Edge 89, Type (0, 1), BuildingBlock: XIVTED_clean_linker_0, # of connection points: 2
#     Edge 90, Type (0, 1), BuildingBlock: XIVTED_clean_linker_0, # of connection points: 2
#     Edge 91, Type (0, 1), BuildingBlock: XIVTED_clean_linker_0, # of connection points: 2
#     Edge 92, Type (0, 1), BuildingBlock: XIVTED_clean_linker_0, # of connection points: 2
#     Edge 93, Type (0, 1), BuildingBlock: XIVTED_clean_linker_0, # of connection points: 2
#     Edge 94, Type (0, 1), BuildingBlock: XIVTED_clean_linker_0, # of connection points: 2
#     Edge 95, Type (0, 1), BuildingBlock: XIVTED_clean_linker_0, # of connection points: 2
#     Edge 96, Type (0, 1), BuildingBlock: XIVTED_clean_linker_0, # of connection points: 2
#     Edge 97, Type (0, 1), BuildingBlock: XIVTED_clean_linker_0, # of connection points: 2
#     Edge 98, Type (0, 1), BuildingBlock: XIVTED_clean_linker_0, # of connection points: 2
#     Edge 99, Type (0, 1), BuildingBlock: XIVTED_clean_linker_0, # of connection points: 2
#     Edge 100, Type (0, 1), BuildingBlock: XIVTED_clean_linker_0, # of connection points: 2
#     Edge 101, Type (0, 1), BuildingBlock: XIVTED_clean_linker_0, # of connection points: 2
#     Edge 102, Type (0, 1), BuildingBlock: XIVTED_clean_linker_0, # of connection points: 2
#     Edge 103, Type (0, 1), BuildingBlock: XIVTED_clean_linker_0, # of connection points: 2
#     Edge 104, Type (0, 1), BuildingBlock: XIVTED_clean_linker_0, # of connection points: 2
#     Edge 105, Type (0, 1), BuildingBlock: XIVTED_clean_linker_0, # of connection points: 2
#     Edge 106, Type (0, 1), BuildingBlock: XIVTED_clean_linker_0, # of connection points: 2
#     Edge 107, Type (0, 1), BuildingBlock: XIVTED_clean_linker_0, # of connection points: 2
# Relax obj value: 0.058
# Max RMSD: 0.186
# Mean RMSD: 0.100
data_MOF--net-ptr--node1-TATPOV_clean_sbu_0--node2-MUDLON_clean_linker_0--edge1-XIVTED_clean_linker_0
_symmetry_space_group_name_H-M    P1
_symmetry_Int_Tables_number       1
_symmetry_cell_setting            triclinic
loop_
_symmetry_equiv_pos_as_xyz
'x, y, z'
_cell_length_a     105.06126
_cell_length_b     106.49724
_cell_length_c     61.475928
_cell_angle_alpha  89.5427
_cell_angle_beta   90.947677
_cell_angle_gamma 121.35467
loop_
_atom_site_label
_atom_site_type_symbol
_atom_site_fract_x
_atom_site_fract_y
_atom_site_fract_z
_atom_type_partial_charge
Zn0 Zn 0.96545 0.38526 0.02073 0.0
Zn1 Zn 0.98857 0.38107 0.02331 0.0
O2 O 0.9704 0.36006 0.01955 0.0
O3 O 0.95144 0.36338 0.01671 0.0
O4 O 0.0056 0.3774 0.02729 0.0
O5 O 0.97003 0.39418 0.05054 0.0
O6 O 0.9895 0.3916 0.05214 0.0
C7 C 0.95647 0.35484 0.01696 0.0
C8 C 0.98683 0.40001 0.98676 0.0
O9 O 0.99318 0.39373 0.99546 0.0
O10 O 0.97508 0.39845 0.99485 0.0
C11 C 0.0171 0.38236 0.01554 0.0
O12 O 0.01872 0.39082 0.99885 0.0
C13 C 0.98143 0.39594 0.06066 0.0
Zn14 Zn 0.63677 0.60352 0.00679 0.0
Zn15 Zn 0.63993 0.62936 0.01827 0.0
O16 O 0.6611 0.63489 0.0093 0.0
O17 O 0.65858 0.61391 0.99925 0.0
O18 O 0.64315 0.64895 0.02814 0.0
O19 O 0.63035 0.59571 0.03692 0.0
O20 O 0.6319 0.61643 0.04598 0.0
C21 C 0.66674 0.62766 0.00214 0.0
C22 C 0.61797 0.61078 0.9818 0.0
O23 O 0.62458 0.62262 0.99291 0.0
O24 O 0.62106 0.60088 0.98486 0.0
C25 C 0.64115 0.65765 0.0163 0.0
O26 O 0.63637 0.65391 0.99614 0.0
C27 C 0.62882 0.60347 0.05088 0.0
Zn28 Zn 0.37107 0.96961 0.0162 0.0
Zn29 Zn 0.37419 0.99595 0.01221 0.0
O30 O 0.35183 0.9818 0.01909 0.0
O31 O 0.34931 0.96005 0.02264 0.0
O32 O 0.3747 0.01498 0.00655 0.0
O33 O 0.37771 0.9703 0.98565 0.0
O34 O 0.38134 0.99253 0.98275 0.0
C35 C 0.34367 0.96804 0.02283 0.0
C36 C 0.3922 0.99101 0.04715 0.0
O37 O 0.38864 0.99966 0.03823 0.0
O38 O 0.3863 0.97789 0.04046 0.0
C39 C 0.37981 0.02625 0.01872 0.0
O40 O 0.3861 0.02652 0.03749 0.0
C41 C 0.3819 0.98184 0.97461 0.0
Zn42 Zn 0.04299 0.6358 0.00813 0.0
Zn43 Zn 0.01802 0.63688 0.01286 0.0
O44 O 0.03527 0.65844 0.01314 0.0
O45 O 0.05592 0.65796 0.01166 0.0
O46 O 1.0003 0.63951 0.01425 0.0
O47 O 0.03563 0.6265 0.97844 0.0
O48 O 0.01441 0.62531 0.98435 0.0
C49 C 0.04946 0.66516 0.01316 0.0
C50 C 0.02568 0.62056 0.04648 0.0
O51 O 0.01754 0.62566 0.04059 0.0
O52 O 0.03659 0.62282 0.03501 0.0
C53 C 0.98707 0.63017 0.008 0.0
O54 O 0.98396 0.61721 0.0011 0.0
C55 C 0.02243 0.62245 0.9725 0.0
Zn56 Zn 0.36366 0.39876 0.01373 0.0
Zn57 Zn 0.36168 0.37257 0.01223 0.0
O58 O 0.34 0.36783 0.01563 0.0
O59 O 0.34151 0.38921 0.01651 0.0
O60 O 0.3582 0.35214 0.00862 0.0
O61 O 0.37286 0.40387 0.98406 0.0
O62 O 0.37248 0.38298 0.98394 0.0
C63 C 0.33372 0.37531 0.01703 0.0
C64 C 0.37999 0.39404 0.04852 0.0
O65 O 0.37505 0.38156 0.03949 0.0
O66 O 0.37665 0.40303 0.04068 0.0
C67 C 0.36584 0.347 0.01649 0.0
O68 O 0.37761 0.35543 0.02872 0.0
C69 C 0.37588 0.39514 0.97491 0.0
Zn70 Zn 0.62825 0.02435 0.00998 0.0
Zn71 Zn 0.62683 0.99842 0.0099 0.0
O72 O 0.64935 0.01381 0.00674 0.0
O73 O 0.65053 0.03504 0.00775 0.0
O74 O 0.6264 0.97929 0.01295 0.0
O75 O 0.61893 0.02036 0.03949 0.0
O76 O 0.61726 0.99889 0.03871 0.0
C77 C 0.65698 0.02783 0.00635 0.0
C78 C 0.6107 0.00502 0.97409 0.0
O79 O 0.61408 0.99615 0.98263 0.0
O80 O 0.61538 0.01749 0.98269 0.0
C81 C 0.63373 0.97562 0.00108 0.0
O82 O 0.64155 0.98424 0.98498 0.0
C83 C 0.615 0.00811 0.0483 0.0
Zn84 Zn 0.62908 0.70259 0.35339 0.0
Zn85 Zn 0.65624 0.70526 0.35544 0.0
O86 O 0.6409 0.68313 0.35121 0.0
O87 O 0.61875 0.68058 0.34928 0.0
O88 O 0.67566 0.70553 0.35782 0.0
O89 O 0.63269 0.71102 0.38373 0.0
O90 O 0.6552 0.71429 0.38448 0.0
C91 C 0.62679 0.67496 0.34896 0.0
C92 C 0.64963 0.72126 0.31971 0.0
O93 O 0.65851 0.71794 0.32873 0.0
O94 O 0.63668 0.71622 0.32722 0.0
C95 C 0.67779 0.69745 0.3451 0.0
O96 O 0.66774 0.68986 0.32996 0.0
C97 C 0.64505 0.71554 0.39344 0.0
Zn98 Zn 0.29992 0.93852 0.34001 0.0
Zn99 Zn 0.30299 0.9644 0.34991 0.0
O100 O 0.32434 0.9697 0.34245 0.0
O101 O 0.32178 0.94858 0.33323 0.0
O102 O 0.30624 0.98433 0.35775 0.0
O103 O 0.29299 0.93122 0.37012 0.0
O104 O 0.29446 0.95206 0.37812 0.0
C105 C 0.33001 0.96233 0.33602 0.0
C106 C 0.28187 0.94534 0.31279 0.0
O107 O 0.28832 0.95735 0.32353 0.0
O108 O 0.28469 0.93537 0.31703 0.0
C109 C 0.29621 0.98764 0.35731 0.0
O110 O 0.28252 0.9776 0.35153 0.0
C111 C 0.2913 0.93915 0.38356 0.0
Zn112 Zn 0.04021 0.30826 0.34567 0.0
Zn113 Zn 0.04131 0.33402 0.35016 0.0
O114 O 0.01912 0.31803 0.353 0.0
O115 O 0.01795 0.29687 0.35024 0.0
O116 O 0.04033 0.35247 0.35095 0.0
O117 O 0.04807 0.3138 0.31538 0.0
O118 O 0.0508 0.33554 0.32032 0.0
C119 C 0.01153 0.30402 0.35288 0.0
C120 C 0.05872 0.32637 0.38203 0.0
O121 O 0.05415 0.33496 0.37653 0.0
O122 O 0.05473 0.31478 0.37122 0.0
C123 C 0.05126 0.36552 0.34833 0.0
O124 O 0.06471 0.36778 0.34604 0.0
C125 C 0.05233 0.32662 0.30855 0.0
Zn126 Zn 0.69719 0.95193 0.35416 0.0
Zn127 Zn 0.67348 0.95503 0.34861 0.0
O128 O 0.69055 0.97643 0.35349 0.0
O129 O 0.70962 0.97378 0.36084 0.0
O130 O 0.65518 0.95645 0.34322 0.0
O131 O 0.69462 0.94396 0.3238 0.0
O132 O 0.67469 0.94565 0.3199 0.0
C133 C 0.70419 0.98193 0.3589 0.0
C134 C 0.67456 0.93569 0.38548 0.0
O135 O 0.66839 0.94203 0.3763 0.0
O136 O 0.6867 0.93763 0.37843 0.0
C137 C 0.65334 0.96644 0.35098 0.0
O138 O 0.6637 0.97653 0.36377 0.0
C139 C 0.68359 0.94203 0.31243 0.0
Zn140 Zn 0.03192 0.73918 0.35421 0.0
Zn141 Zn 0.03254 0.71482 0.34689 0.0
O142 O 0.01026 0.70727 0.35242 0.0
O143 O 0.00964 0.72744 0.35664 0.0
O144 O 0.03201 0.69602 0.33961 0.0
O145 O 0.0413 0.74756 0.32541 0.0
O146 O 0.04134 0.72729 0.31895 0.0
C147 C 0.00292 0.71356 0.35564 0.0
C148 C 0.04994 0.73476 0.38564 0.0
O149 O 0.04637 0.72346 0.37407 0.0
O150 O 0.04495 0.74298 0.38069 0.0
C151 C 0.03385 0.68801 0.35321 0.0
O152 O 0.03662 0.69201 0.37373 0.0
C153 C 0.04424 0.74001 0.31299 0.0
Zn154 Zn 0.29825 0.36739 0.34036 0.0
Zn155 Zn 0.29564 0.34091 0.34299 0.0
O156 O 0.31809 0.35539 0.33741 0.0
O157 O 0.32026 0.37706 0.33532 0.0
O158 O 0.29445 0.32145 0.34746 0.0
O159 O 0.29085 0.36555 0.37085 0.0
O160 O 0.28782 0.34349 0.37227 0.0
C161 C 0.32613 0.36927 0.3348 0.0
C162 C 0.27822 0.34649 0.30776 0.0
O163 O 0.28184 0.33788 0.3166 0.0
O164 O 0.28362 0.35942 0.31505 0.0
C165 C 0.30112 0.31702 0.33551 0.0
O166 O 0.30861 0.32501 0.31871 0.0
C167 C 0.28677 0.35372 0.38108 0.0
Zn168 Zn 0.30304 0.04274 0.68706 0.0
Zn169 Zn 0.3302 0.0454 0.685 0.0
O170 O 0.31487 0.02317 0.68321 0.0
O171 O 0.29274 0.02052 0.68589 0.0
O172 O 0.34971 0.04594 0.68635 0.0
O173 O 0.30888 0.05334 0.71615 0.0
O174 O 0.33098 0.05591 0.71332 0.0
C175 C 0.30072 0.01491 0.68383 0.0
C176 C 0.32107 0.0592 0.64936 0.0
O177 O 0.33079 0.05673 0.65752 0.0
O178 O 0.3087 0.05442 0.65873 0.0
C179 C 0.3525 0.03829 0.67375 0.0
O180 O 0.34283 0.03049 0.6583 0.0
C181 C 0.32192 0.05813 0.72365 0.0
Zn182 Zn 0.96213 0.27206 0.68253 0.0
Zn183 Zn 0.96735 0.29958 0.68377 0.0
O184 O 0.98817 0.30239 0.67926 0.0
O185 O 0.98392 0.27987 0.67787 0.0
O186 O 0.97233 0.32056 0.68716 0.0
O187 O 0.95449 0.26822 0.71296 0.0
O188 O 0.95689 0.29005 0.71284 0.0
C189 C 0.99293 0.29363 0.67726 0.0
C190 C 0.94629 0.27833 0.64902 0.0
O191 O 0.95345 0.29131 0.65687 0.0
O192 O 0.94786 0.26827 0.65732 0.0
C193 C 0.96331 0.32495 0.68362 0.0
O194 O 0.94972 0.31553 0.67663 0.0
C195 C 0.95287 0.27784 0.72226 0.0
Zn196 Zn 0.70776 0.63892 0.69267 0.0
Zn197 Zn 0.70984 0.66467 0.6876 0.0
O198 O 0.68749 0.65022 0.69451 0.0
O199 O 0.68605 0.62901 0.69909 0.0
O200 O 0.71064 0.68391 0.68246 0.0
O201 O 0.71428 0.63934 0.66219 0.0
O202 O 0.71664 0.661 0.65802 0.0
C203 C 0.67984 0.63649 0.69874 0.0
C204 C 0.72833 0.66054 0.72316 0.0
O205 O 0.7245 0.66879 0.71358 0.0
O206 O 0.72277 0.64737 0.71701 0.0
C207 C 0.70423 0.68821 0.69516 0.0
O208 O 0.69753 0.68031 0.71244 0.0
C209 C 0.71763 0.65042 0.65044 0.0
Zn210 Zn 0.37216 0.291 0.68296 0.0
Zn211 Zn 0.34785 0.29368 0.68151 0.0
O212 O 0.36556 0.31471 0.68544 0.0
O213 O 0.38569 0.31325 0.68568 0.0
O214 O 0.33098 0.29747 0.67837 0.0
O215 O 0.36644 0.2811 0.65362 0.0
O216 O 0.34685 0.28353 0.65245 0.0
C217 C 0.37968 0.32091 0.68671 0.0
C218 C 0.35098 0.27566 0.71772 0.0
O219 O 0.34365 0.28092 0.70897 0.0
O220 O 0.36317 0.2783 0.70967 0.0
C221 C 0.31716 0.28868 0.68165 0.0
O222 O 0.31246 0.27523 0.68834 0.0
C223 C 0.35485 0.27917 0.64385 0.0
Zn224 Zn 0.7039 0.06523 0.68106 0.0
Zn225 Zn 0.70172 0.03895 0.68009 0.0
O226 O 0.68 0.03393 0.6842 0.0
O227 O 0.68184 0.05545 0.6858 0.0
O228 O 0.69961 0.01903 0.67694 0.0
O229 O 0.71196 0.0698 0.65073 0.0
O230 O 0.7119 0.0491 0.65127 0.0
C231 C 0.67393 0.04156 0.68636 0.0
C232 C 0.72124 0.0613 0.71486 0.0
O233 O 0.71541 0.0484 0.70691 0.0
O234 O 0.71824 0.07041 0.70655 0.0
C235 C 0.69022 0.00763 0.68736 0.0
O236 O 0.68164 0.00871 0.70159 0.0
C237 C 0.71494 0.06101 0.64174 0.0
Zn238 Zn 0.96753 0.7042 0.67447 0.0
Zn239 Zn 0.96637 0.67855 0.67883 0.0
O240 O 0.98856 0.69378 0.67321 0.0
O241 O 0.9899 0.71508 0.67199 0.0
O242 O 0.96686 0.66001 0.68423 0.0
O243 O 0.95799 0.7015 0.70358 0.0
O244 O 0.95836 0.68115 0.70792 0.0
C245 C 0.99625 0.70773 0.67132 0.0
C246 C 0.94915 0.68278 0.64159 0.0
O247 O 0.95235 0.67436 0.6521 0.0
O248 O 0.95455 0.69596 0.64768 0.0
C249 C 0.95689 0.64693 0.67903 0.0
O250 O 0.9448 0.64452 0.66862 0.0
C251 C 0.95542 0.69055 0.7151 0.0
H252 H 0.22072 0.34437 0.12536 0.0
N253 N 0.19433 0.32079 0.11084 0.0
H254 H 0.23262 0.34693 0.16066 0.0
H255 H 0.18334 0.30244 0.14462 0.0
H256 H 0.19525 0.30494 0.18035 0.0
H257 H 0.20989 0.3074 0.10817 0.0
H258 H 0.23074 0.31367 0.08466 0.0
H259 H 0.20176 0.33793 0.07293 0.0
H260 H 0.22221 0.34381 0.04925 0.0
H261 H 0.20421 0.3503 0.11049 0.0
H262 H 0.16489 0.30704 0.10547 0.0
H263 H 0.18906 0.36131 0.10667 0.0
H264 H 0.14938 0.31793 0.10285 0.0
H265 H 0.12767 0.38364 0.13315 0.0
H266 H 0.11412 0.37817 0.16728 0.0
H267 H 0.10371 0.33323 0.16358 0.0
H268 H 0.11659 0.33866 0.12908 0.0
H269 H 0.10371 0.34073 0.09496 0.0
H270 H 0.08453 0.34095 0.07243 0.0
H271 H 0.1143 0.38733 0.06033 0.0
H272 H 0.13362 0.38686 0.0824 0.0
H273 H 0.15699 0.37587 0.12546 0.0
H274 H 0.17279 0.36543 0.12544 0.0
H275 H 0.14149 0.33108 0.08188 0.0
N276 N 0.13022 0.36503 0.10766 0.0
H277 H 0.12539 0.34113 0.08303 0.0
C278 C 0.201 0.32323 0.13239 0.0
C279 C 0.21487 0.33587 0.1374 0.0
C280 C 0.22172 0.3373 0.15764 0.0
C281 C 0.2149 0.32614 0.17336 0.0
C282 C 0.20088 0.31366 0.16851 0.0
C283 C 0.194 0.31226 0.14822 0.0
C284 C 0.20471 0.32286 0.09372 0.0
C285 C 0.21245 0.31535 0.09531 0.0
C286 C 0.22433 0.31884 0.08164 0.0
C287 C 0.22851 0.32963 0.06546 0.0
C288 C 0.21972 0.33592 0.06218 0.0
C289 C 0.20793 0.33256 0.07603 0.0
C290 C 0.18568 0.32775 0.10812 0.0
C291 C 0.19227 0.34313 0.10879 0.0
C292 C 0.18352 0.34943 0.10667 0.0
C293 C 0.1679 0.34057 0.10452 0.0
C294 C 0.16136 0.32518 0.10401 0.0
C295 C 0.17018 0.31889 0.10569 0.0
C296 C 0.12326 0.36165 0.12867 0.0
C297 C 0.12253 0.37266 0.13988 0.0
C298 C 0.11484 0.36951 0.15941 0.0
C299 C 0.10776 0.35523 0.16821 0.0
C300 C 0.10877 0.34427 0.15712 0.0
C301 C 0.11631 0.3474 0.13747 0.0
C302 C 0.12022 0.36383 0.09028 0.0
C303 C 0.10635 0.35082 0.08679 0.0
C304 C 0.09528 0.35101 0.07412 0.0
C305 C 0.09775 0.36422 0.06486 0.0
C306 C 0.112 0.37694 0.06705 0.0
C307 C 0.1231 0.3767 0.07963 0.0
C308 C 0.14 0.35944 0.10431 0.0
C309 C 0.15365 0.36619 0.11568 0.0
C310 C 0.16271 0.3602 0.11555 0.0
C311 C 0.15849 0.34733 0.10366 0.0
C312 C 0.14502 0.34082 0.09159 0.0
C313 C 0.1358 0.34671 0.09204 0.0
H314 H 0.70132 0.80297 0.14767 0.0
N315 N 0.68153 0.79423 0.11506 0.0
H316 H 0.69707 0.79338 0.18499 0.0
H317 H 0.65465 0.77405 0.13251 0.0
H318 H 0.65034 0.76438 0.16937 0.0
H319 H 0.65527 0.77695 0.09269 0.0
H320 H 0.64849 0.75438 0.07275 0.0
H321 H 0.69962 0.78525 0.10338 0.0
H322 H 0.69309 0.76295 0.08318 0.0
H323 H 0.70089 0.81856 0.09431 0.0
H324 H 0.65673 0.79628 0.1209 0.0
H325 H 0.69907 0.84011 0.08661 0.0
H326 H 0.65513 0.81799 0.11463 0.0
H327 H 0.69345 0.91186 0.11708 0.0
H328 H 0.69233 0.92053 0.15344 0.0
H329 H 0.65713 0.87667 0.17024 0.0
H330 H 0.65798 0.86815 0.13364 0.0
H331 H 0.64703 0.87564 0.09943 0.0
H332 H 0.63549 0.88597 0.07657 0.0
H333 H 0.67766 0.91374 0.04498 0.0
H334 H 0.68884 0.90284 0.06732 0.0
H335 H 0.69996 0.88188 0.1062 0.0
H336 H 0.7004 0.85924 0.10671 0.0
H337 H 0.65324 0.83447 0.09108 0.0
N338 N 0.67669 0.88493 0.10091 0.0
H339 H 0.65284 0.85716 0.0917 0.0
C340 C 0.67836 0.78934 0.13734 0.0
C341 C 0.69015 0.7947 0.15249 0.0
C342 C 0.68771 0.78913 0.1737 0.0
C343 C 0.67336 0.7781 0.18015 0.0
C344 C 0.66149 0.77301 0.16506 0.0
C345 C 0.66395 0.77854 0.14388 0.0
C346 C 0.67797 0.78272 0.0996 0.0
C347 C 0.66365 0.77411 0.09027 0.0
C348 C 0.6598 0.76123 0.07885 0.0
C349 C 0.67019 0.75675 0.07671 0.0
C350 C 0.68475 0.76593 0.08491 0.0
C351 C 0.68856 0.77874 0.09624 0.0
C352 C 0.67914 0.80591 0.10853 0.0
C353 C 0.69078 0.81831 0.0984 0.0
C354 C 0.68975 0.83068 0.09424 0.0
C355 C 0.67707 0.831 0.10043 0.0
C356 C 0.66505 0.81821 0.10954 0.0
C357 C 0.66602 0.80574 0.11337 0.0
C358 C 0.67601 0.88937 0.12275 0.0
C359 C 0.68553 0.90414 0.12865 0.0
C360 C 0.6848 0.90907 0.14929 0.0
C361 C 0.67465 0.89925 0.16458 0.0
C362 C 0.66512 0.88442 0.15876 0.0
C363 C 0.66564 0.87955 0.1379 0.0
C364 C 0.66882 0.88842 0.08491 0.0
C365 C 0.65363 0.88354 0.08702 0.0
C366 C 0.6471 0.88964 0.07413 0.0
C367 C 0.65567 0.90087 0.05908 0.0
C368 C 0.67063 0.90503 0.05615 0.0
C369 C 0.67708 0.89883 0.06892 0.0
C370 C 0.67648 0.87133 0.09877 0.0
C371 C 0.68977 0.87156 0.10263 0.0
C372 C 0.68998 0.85857 0.10276 0.0
C373 C 0.67686 0.84491 0.0988 0.0
C374 C 0.66354 0.84471 0.09444 0.0
C375 C 0.66332 0.85777 0.09457 0.0
H376 H 0.11518 0.78613 0.13267 0.0
N377 N 0.10926 0.80414 0.10809 0.0
H378 H 0.10472 0.77555 0.16802 0.0
H379 H 0.09089 0.80858 0.13146 0.0
H380 H 0.08007 0.79778 0.16673 0.0
H381 H 0.08408 0.78832 0.0858 0.0
H382 H 0.07685 0.76701 0.06294 0.0
H383 H 0.12785 0.79483 0.09499 0.0
H384 H 0.12102 0.77387 0.07121 0.0
H385 H 0.1345 0.81296 0.13333 0.0
H386 H 0.11635 0.82619 0.08077 0.0
H387 H 0.15678 0.83719 0.13403 0.0
H388 H 0.13929 0.85028 0.08002 0.0
H389 H 0.22432 0.90323 0.1309 0.0
H390 H 0.23596 0.91154 0.16688 0.0
H391 H 0.20297 0.92223 0.18348 0.0
H392 H 0.19159 0.91444 0.14693 0.0
H393 H 0.21876 0.9332 0.10428 0.0
H394 H 0.24133 0.94413 0.0827 0.0
H395 H 0.23079 0.90069 0.06392 0.0
H396 H 0.20885 0.88989 0.08608 0.0
H397 H 0.2002 0.87933 0.12288 0.0
H398 H 0.17883 0.85446 0.11894 0.0
H399 H 0.15168 0.87222 0.09848 0.0
N400 N 0.2009 0.905 0.11427 0.0
H401 H 0.17354 0.89701 0.10095 0.0
C402 C 0.10379 0.79819 0.12943 0.0
C403 C 0.10757 0.78878 0.14001 0.0
C404 C 0.1015 0.78265 0.16019 0.0
C405 C 0.09151 0.78577 0.1702 0.0
C406 C 0.08788 0.7953 0.15963 0.0
C407 C 0.09398 0.80144 0.13947 0.0
C408 C 0.10645 0.79318 0.092 0.0
C409 C 0.09226 0.78536 0.0823 0.0
C410 C 0.0882 0.7732 0.06912 0.0
C411 C 0.09833 0.76862 0.06515 0.0
C412 C 0.11284 0.77691 0.07414 0.0
C413 C 0.11684 0.78902 0.08756 0.0
C414 C 0.12347 0.8178 0.10728 0.0
C415 C 0.13533 0.821 0.12169 0.0
C416 C 0.14829 0.83495 0.12188 0.0
C417 C 0.14993 0.84594 0.10725 0.0
C418 C 0.13835 0.84236 0.09202 0.0
C419 C 0.12526 0.82852 0.09221 0.0
C420 C 0.20716 0.90845 0.13608 0.0
C421 C 0.21954 0.90735 0.14219 0.0
C422 C 0.22621 0.91211 0.16269 0.0
C423 C 0.22039 0.91762 0.17766 0.0
C424 C 0.20764 0.91807 0.17205 0.0
C425 C 0.20116 0.91362 0.15131 0.0
C426 C 0.21211 0.91072 0.09746 0.0
C427 C 0.22118 0.92605 0.09516 0.0
C428 C 0.23409 0.93228 0.08273 0.0
C429 C 0.23811 0.92329 0.07192 0.0
C430 C 0.22833 0.90796 0.07262 0.0
C431 C 0.21557 0.90172 0.08535 0.0
C432 C 0.1885 0.89006 0.11188 0.0
C433 C 0.18969 0.87784 0.1173 0.0
C434 C 0.17734 0.86357 0.11522 0.0
C435 C 0.16336 0.86115 0.10837 0.0
C436 C 0.16225 0.87348 0.10326 0.0
C437 C 0.1747 0.88772 0.10483 0.0
H438 H 0.35718 0.23834 0.90862 0.0
N439 N 0.33542 0.21249 0.92687 0.0
H440 H 0.3565 0.24748 0.87239 0.0
H441 H 0.31508 0.19852 0.89552 0.0
H442 H 0.31469 0.2075 0.85863 0.0
H443 H 0.31453 0.21593 0.94431 0.0
H444 H 0.31814 0.23644 0.96669 0.0
H445 H 0.36182 0.23306 0.94708 0.0
H446 H 0.36559 0.25377 0.96853 0.0
H447 H 0.36426 0.21993 0.91985 0.0
H448 H 0.32099 0.18454 0.93905 0.0
H449 H 0.37399 0.20366 0.92231 0.0
H450 H 0.33018 0.1677 0.93968 0.0
H451 H 0.38752 0.13703 0.89311 0.0
H452 H 0.3792 0.12307 0.8592 0.0
H453 H 0.33554 0.11713 0.86711 0.0
H454 H 0.34382 0.13042 0.90159 0.0
H455 H 0.34654 0.1174 0.93524 0.0
H456 H 0.34623 0.09828 0.95782 0.0
H457 H 0.39408 0.12515 0.96583 0.0
H458 H 0.39421 0.14434 0.94349 0.0
H459 H 0.38182 0.16762 0.90019 0.0
H460 H 0.37382 0.1852 0.90352 0.0
H461 H 0.34421 0.15905 0.95527 0.0
N462 N 0.3715 0.1422 0.92055 0.0
H463 H 0.35149 0.14104 0.95071 0.0
C464 C 0.33598 0.21778 0.90499 0.0
C465 C 0.34779 0.23152 0.89801 0.0
C466 C 0.34741 0.23677 0.87728 0.0
C467 C 0.33546 0.22825 0.86291 0.0
C468 C 0.32398 0.21428 0.8695 0.0
C469 C 0.3242 0.20916 0.89046 0.0
C470 C 0.33781 0.22289 0.94378 0.0
C471 C 0.32565 0.22393 0.95013 0.0
C472 C 0.32777 0.23577 0.96269 0.0
C473 C 0.34221 0.24696 0.96905 0.0
C474 C 0.35431 0.24536 0.96403 0.0
C475 C 0.35214 0.23343 0.95159 0.0
C476 C 0.34192 0.20352 0.92978 0.0
C477 C 0.35688 0.20869 0.92495 0.0
C478 C 0.36236 0.1992 0.92592 0.0
C479 C 0.3529 0.18419 0.93102 0.0
C480 C 0.33797 0.17917 0.93612 0.0
C481 C 0.33262 0.18876 0.93564 0.0
C482 C 0.3664 0.1349 0.89974 0.0
C483 C 0.3762 0.13278 0.88737 0.0
C484 C 0.37141 0.12486 0.86792 0.0
C485 C 0.35667 0.11897 0.86025 0.0
C486 C 0.34689 0.12129 0.87259 0.0
C487 C 0.35166 0.12905 0.89223 0.0
C488 C 0.37046 0.13236 0.9377 0.0
C489 C 0.35691 0.11937 0.94239 0.0
C490 C 0.35677 0.10837 0.95514 0.0
C491 C 0.37016 0.11007 0.96337 0.0
C492 C 0.38355 0.12349 0.95991 0.0
C493 C 0.38366 0.1345 0.94716 0.0
C494 C 0.36733 0.15293 0.92501 0.0
C495 C 0.37365 0.16573 0.91234 0.0
C496 C 0.36912 0.17588 0.91445 0.0
C497 C 0.35832 0.17369 0.92973 0.0
C498 C 0.35232 0.16105 0.94299 0.0
C499 C 0.35663 0.15071 0.94052 0.0
H500 H 0.79222 0.12579 0.88443 0.0
N501 N 0.79937 0.11146 0.91513 0.0
H502 H 0.78257 0.11719 0.84799 0.0
H503 H 0.79724 0.08846 0.89465 0.0
H504 H 0.7878 0.07986 0.85763 0.0
H505 H 0.79632 0.09423 0.94895 0.0
H506 H 0.77407 0.07974 0.97147 0.0
H507 H 0.77293 0.11084 0.91191 0.0
H508 H 0.75117 0.09685 0.93438 0.0
H509 H 0.79265 0.13211 0.9293 0.0
H510 H 0.82877 0.12656 0.90988 0.0
H511 H 0.8095 0.15832 0.93144 0.0
H512 H 0.84584 0.15329 0.91165 0.0
H513 H 0.86901 0.24294 0.88998 0.0
H514 H 0.88476 0.25425 0.85837 0.0
H515 H 0.89716 0.22136 0.86079 0.0
H516 H 0.8822 0.21082 0.89309 0.0
H517 H 0.89487 0.23083 0.92722 0.0
H518 H 0.90903 0.25061 0.95326 0.0
H519 H 0.86862 0.24937 0.9705 0.0
H520 H 0.85483 0.23034 0.94308 0.0
H521 H 0.83798 0.20399 0.9013 0.0
H522 H 0.82204 0.17728 0.90408 0.0
H523 H 0.85811 0.1754 0.93553 0.0
N524 N 0.86613 0.22075 0.91382 0.0
H525 H 0.87407 0.20225 0.93236 0.0
C526 C 0.79555 0.10778 0.89239 0.0
C527 C 0.7916 0.11591 0.87869 0.0
C528 C 0.78609 0.11098 0.8577 0.0
C529 C 0.78439 0.09781 0.84983 0.0
C530 C 0.78881 0.08995 0.86326 0.0
C531 C 0.79433 0.09491 0.88432 0.0
C532 C 0.78649 0.10383 0.92895 0.0
C533 C 0.78652 0.09492 0.94587 0.0
C534 C 0.77384 0.08663 0.95859 0.0
C535 C 0.76101 0.08734 0.95475 0.0
C536 C 0.761 0.09629 0.9379 0.0
C537 C 0.77349 0.10429 0.92499 0.0
C538 C 0.80933 0.12706 0.91928 0.0
C539 C 0.80418 0.13634 0.92566 0.0
C540 C 0.8139 0.15153 0.92677 0.0
C541 C 0.82898 0.15794 0.92144 0.0
C542 C 0.8343 0.1487 0.91599 0.0
C543 C 0.82455 0.13344 0.91492 0.0
C544 C 0.87424 0.22597 0.89378 0.0
C545 C 0.87504 0.23813 0.88348 0.0
C546 C 0.88402 0.24453 0.86535 0.0
C547 C 0.89232 0.23877 0.85693 0.0
C548 C 0.8912 0.22631 0.867 0.0
C549 C 0.88241 0.22008 0.88536 0.0
C550 C 0.87385 0.22945 0.93277 0.0
C551 C 0.88903 0.23468 0.93682 0.0
C552 C 0.89711 0.24596 0.95193 0.0
C553 C 0.89009 0.25196 0.96363 0.0
C554 C 0.87454 0.24545 0.96123 0.0
C555 C 0.86657 0.23442 0.94579 0.0
C556 C 0.8571 0.20506 0.91668 0.0
C557 C 0.84238 0.19779 0.90892 0.0
C558 C 0.83329 0.18256 0.91064 0.0
C559 C 0.83877 0.17421 0.92019 0.0
C560 C 0.85359 0.18152 0.92801 0.0
C561 C 0.86269 0.19685 0.92633 0.0
H562 H 0.80431 0.7141 0.89999 0.0
N563 N 0.81327 0.69768 0.9199 0.0
H564 H 0.79255 0.7101 0.86402 0.0
H565 H 0.8115 0.67834 0.88907 0.0
H566 H 0.80053 0.67475 0.85277 0.0
H567 H 0.79105 0.66868 0.91853 0.0
H568 H 0.76769 0.65743 0.938 0.0
H569 H 0.80647 0.70953 0.95232 0.0
H570 H 0.78314 0.69818 0.97261 0.0
H571 H 0.84121 0.71643 0.90863 0.0
H572 H 0.81397 0.67461 0.94046 0.0
H573 H 0.86278 0.71381 0.91271 0.0
H574 H 0.83557 0.67238 0.94583 0.0
H575 H 0.93055 0.70408 0.91353 0.0
H576 H 0.93908 0.7037 0.87671 0.0
H577 H 0.89392 0.67159 0.85733 0.0
H578 H 0.88554 0.67163 0.89398 0.0
H579 H 0.89524 0.65937 0.92385 0.0
H580 H 0.90594 0.64729 0.94433 0.0
H581 H 0.92728 0.68435 0.98843 0.0
H582 H 0.91731 0.69673 0.9668 0.0
H583 H 0.90229 0.71222 0.93515 0.0
H584 H 0.88042 0.71457 0.93626 0.0
H585 H 0.85199 0.66743 0.92859 0.0
N586 N 0.90305 0.68806 0.92875 0.0
H587 H 0.87401 0.66523 0.92923 0.0
C588 C 0.80881 0.69659 0.89727 0.0
C589 C 0.80374 0.70567 0.88954 0.0
C590 C 0.79706 0.70339 0.86893 0.0
C591 C 0.79541 0.69198 0.8555 0.0
C592 C 0.80129 0.68342 0.86282 0.0
C593 C 0.80777 0.68559 0.88353 0.0
C594 C 0.80056 0.69002 0.93397 0.0
C595 C 0.78954 0.67515 0.93055 0.0
C596 C 0.77617 0.66869 0.94184 0.0
C597 C 0.77346 0.67691 0.95684 0.0
C598 C 0.78476 0.69159 0.96095 0.0
C599 C 0.79816 0.69805 0.94959 0.0
C600 C 0.82585 0.69585 0.9241 0.0
C601 C 0.83991 0.7068 0.91681 0.0
C602 C 0.8523 0.70531 0.91938 0.0
C603 C 0.85106 0.69289 0.92978 0.0
C604 C 0.83699 0.68199 0.93744 0.0
C605 C 0.82452 0.68336 0.93449 0.0
C606 C 0.90741 0.68816 0.90656 0.0
C607 C 0.9225 0.69705 0.90127 0.0
C608 C 0.92736 0.69674 0.88035 0.0
C609 C 0.91712 0.68765 0.86424 0.0
C610 C 0.90199 0.67882 0.86943 0.0
C611 C 0.89719 0.67891 0.89044 0.0
C612 C 0.9058 0.67913 0.94355 0.0
C613 C 0.90201 0.66477 0.93814 0.0
C614 C 0.90811 0.65783 0.95002 0.0
C615 C 0.91786 0.66498 0.96779 0.0
C616 C 0.92028 0.6787 0.97442 0.0
C617 C 0.91441 0.68573 0.96229 0.0
C618 C 0.88979 0.68864 0.93182 0.0
C619 C 0.8913 0.7024 0.93414 0.0
C620 C 0.87875 0.70371 0.93445 0.0
C621 C 0.86432 0.69124 0.93198 0.0
C622 C 0.86284 0.67731 0.93065 0.0
C623 C 0.87544 0.67601 0.93083 0.0
H624 H 0.74359 0.63256 0.45278 0.0
N625 N 0.76975 0.6524 0.43631 0.0
H626 H 0.73418 0.63245 0.48906 0.0
H627 H 0.78504 0.67219 0.46909 0.0
H628 H 0.77585 0.67209 0.50523 0.0
H629 H 0.7757 0.68068 0.43917 0.0
H630 H 0.76389 0.69092 0.41728 0.0
H631 H 0.75644 0.64245 0.39786 0.0
H632 H 0.7457 0.65324 0.37435 0.0
H633 H 0.77123 0.62861 0.43052 0.0
H634 H 0.79856 0.67563 0.43717 0.0
H635 H 0.79345 0.62679 0.43091 0.0
H636 H 0.82091 0.67396 0.43923 0.0
H637 H 0.86922 0.628 0.46804 0.0
H638 H 0.88239 0.63308 0.50303 0.0
H639 H 0.87712 0.67033 0.5121 0.0
H640 H 0.86455 0.66552 0.47675 0.0
H641 H 0.88284 0.6733 0.44534 0.0
H642 H 0.90473 0.6836 0.42255 0.0
H643 H 0.8878 0.64109 0.3927 0.0
H644 H 0.86573 0.63077 0.41586 0.0
H645 H 0.83276 0.62573 0.45978 0.0
H646 H 0.81098 0.62806 0.45567 0.0
H647 H 0.83773 0.66934 0.42201 0.0
N648 N 0.86049 0.64439 0.44751 0.0
H649 H 0.85949 0.66739 0.42727 0.0
C650 C 0.76499 0.65228 0.45821 0.0
C651 C 0.75069 0.64113 0.46427 0.0
C652 C 0.74537 0.64109 0.48496 0.0
C653 C 0.75427 0.6523 0.49997 0.0
C654 C 0.76866 0.66342 0.49393 0.0
C655 C 0.77399 0.6634 0.47328 0.0
C656 C 0.76651 0.6605 0.42056 0.0
C657 C 0.76926 0.67465 0.42499 0.0
C658 C 0.76256 0.6806 0.41218 0.0
C659 C 0.75334 0.67276 0.39425 0.0
C660 C 0.75212 0.65937 0.38851 0.0
C661 C 0.75847 0.65326 0.4017 0.0
C662 C 0.78324 0.65217 0.4341 0.0
C663 C 0.7821 0.63855 0.43203 0.0
C664 C 0.79482 0.63755 0.43257 0.0
C665 C 0.80905 0.65019 0.43561 0.0
C666 C 0.8102 0.66397 0.43679 0.0
C667 C 0.79741 0.66496 0.43583 0.0
C668 C 0.86588 0.64631 0.46975 0.0
C669 C 0.87068 0.63709 0.47783 0.0
C670 C 0.87817 0.64 0.49787 0.0
C671 C 0.88098 0.65222 0.51035 0.0
C672 C 0.87544 0.66101 0.50274 0.0
C673 C 0.86807 0.65816 0.4826 0.0
C674 C 0.87252 0.65122 0.43216 0.0
C675 C 0.88364 0.66622 0.43363 0.0
C676 C 0.89616 0.67212 0.4205 0.0
C677 C 0.89798 0.66316 0.40578 0.0
C678 C 0.88673 0.64825 0.40397 0.0
C679 C 0.87409 0.64237 0.41701 0.0
C680 C 0.84787 0.64622 0.44388 0.0
C681 C 0.83391 0.63528 0.45152 0.0
C682 C 0.82142 0.6366 0.44894 0.0
C683 C 0.82247 0.64886 0.43828 0.0
C684 C 0.83646 0.65983 0.43054 0.0
C685 C 0.84903 0.65862 0.43344 0.0
H686 H 0.35919 0.12303 0.46304 0.0
N687 N 0.33986 0.12796 0.44219 0.0
H688 H 0.35697 0.11286 0.49954 0.0
H689 H 0.31873 0.12325 0.47225 0.0
H690 H 0.31685 0.11395 0.50891 0.0
H691 H 0.31126 0.1045 0.4403 0.0
H692 H 0.303 0.08145 0.42102 0.0
H693 H 0.35441 0.12374 0.41104 0.0
H694 H 0.34613 0.10099 0.39091 0.0
H695 H 0.36264 0.15443 0.43294 0.0
H696 H 0.31487 0.1299 0.43825 0.0
H697 H 0.36239 0.17688 0.42637 0.0
H698 H 0.31449 0.15252 0.43405 0.0
H699 H 0.3566 0.24853 0.44726 0.0
H700 H 0.35582 0.25722 0.48375 0.0
H701 H 0.31997 0.21364 0.50038 0.0
H702 H 0.32049 0.20511 0.46356 0.0
H703 H 0.3101 0.21302 0.42876 0.0
H704 H 0.29952 0.2246 0.40642 0.0
H705 H 0.34221 0.25162 0.37582 0.0
H706 H 0.35247 0.23969 0.39787 0.0
H707 H 0.36089 0.21701 0.44392 0.0
H708 H 0.36048 0.19404 0.44489 0.0
H709 H 0.31671 0.17196 0.41432 0.0
N710 N 0.33953 0.22162 0.4311 0.0
H711 H 0.31681 0.19489 0.41514 0.0
C712 C 0.33927 0.12405 0.46484 0.0
C713 C 0.35006 0.12126 0.47317 0.0
C714 C 0.34878 0.11549 0.49408 0.0
C715 C 0.33666 0.11246 0.50723 0.0
C716 C 0.32617 0.11584 0.49915 0.0
C717 C 0.32736 0.12141 0.47813 0.0
C718 C 0.33354 0.11577 0.42723 0.0
C719 C 0.3188 0.10391 0.42916 0.0
C720 C 0.31409 0.09072 0.41806 0.0
C721 C 0.324 0.08922 0.40473 0.0
C722 C 0.33832 0.10159 0.40148 0.0
C723 C 0.34303 0.11468 0.41271 0.0
C724 C 0.33889 0.14062 0.43673 0.0
C725 C 0.35209 0.15397 0.43289 0.0
C726 C 0.3519 0.16684 0.42943 0.0
C727 C 0.33847 0.16679 0.43035 0.0
C728 C 0.3251 0.15316 0.43321 0.0
C729 C 0.32529 0.14017 0.43601 0.0
C730 C 0.33879 0.22619 0.45283 0.0
C731 C 0.34856 0.24089 0.45878 0.0
C732 C 0.34803 0.24583 0.47951 0.0
C733 C 0.33783 0.23608 0.4948 0.0
C734 C 0.32798 0.22133 0.48887 0.0
C735 C 0.3283 0.21645 0.46792 0.0
C736 C 0.33209 0.2255 0.41487 0.0
C737 C 0.317 0.22107 0.4167 0.0
C738 C 0.31103 0.22786 0.40409 0.0
C739 C 0.32005 0.23922 0.3895 0.0
C740 C 0.33486 0.24284 0.38668 0.0
C741 C 0.34077 0.23603 0.39926 0.0
C742 C 0.33902 0.20783 0.42936 0.0
C743 C 0.35124 0.20721 0.43732 0.0
C744 C 0.35101 0.194 0.43763 0.0
C745 C 0.33862 0.18096 0.42942 0.0
C746 C 0.3264 0.18163 0.42106 0.0
C747 C 0.3265 0.19487 0.42127 0.0
H748 H 0.79816 0.09368 0.47244 0.0
N749 N 0.80223 0.11702 0.45036 0.0
H750 H 0.78357 0.08311 0.50534 0.0
H751 H 0.79085 0.12989 0.4762 0.0
H752 H 0.77711 0.11993 0.50938 0.0
H753 H 0.77382 0.11109 0.44284 0.0
H754 H 0.75506 0.09097 0.42009 0.0
H755 H 0.8076 0.10352 0.41884 0.0
H756 H 0.78892 0.08379 0.3953 0.0
H757 H 0.83164 0.13178 0.4545 0.0
H758 H 0.79484 0.13727 0.43795 0.0
H759 H 0.84885 0.15827 0.4517 0.0
H760 H 0.81169 0.16386 0.43672 0.0
H761 H 0.89791 0.23288 0.46547 0.0
H762 H 0.90853 0.24459 0.50021 0.0
H763 H 0.86884 0.24541 0.51391 0.0
H764 H 0.85828 0.23415 0.47813 0.0
H765 H 0.8786 0.25093 0.42528 0.0
H766 H 0.89963 0.26404 0.40064 0.0
H767 H 0.90894 0.22914 0.40758 0.0
H768 H 0.88774 0.21599 0.43135 0.0
H769 H 0.87322 0.20585 0.47185 0.0
H770 H 0.85637 0.17949 0.47081 0.0
H771 H 0.83057 0.18454 0.41967 0.0
N772 N 0.8709 0.22654 0.44764 0.0
H773 H 0.84702 0.21123 0.42206 0.0
C774 C 0.79576 0.11261 0.47172 0.0
C775 C 0.79378 0.09956 0.48068 0.0
C776 C 0.78545 0.09355 0.49952 0.0
C777 C 0.77898 0.10056 0.50993 0.0
C778 C 0.7816 0.11402 0.50153 0.0
C779 C 0.78973 0.1199 0.48256 0.0
C780 C 0.79211 0.1086 0.43283 0.0
C781 C 0.77734 0.10552 0.43206 0.0
C782 C 0.76662 0.09405 0.41904 0.0
C783 C 0.77061 0.08588 0.40609 0.0
C784 C 0.78564 0.09004 0.40505 0.0
C785 C 0.79629 0.10128 0.41845 0.0
C786 C 0.812 0.13257 0.44673 0.0
C787 C 0.8273 0.13877 0.45029 0.0
C788 C 0.83708 0.15395 0.44894 0.0
C789 C 0.83171 0.16339 0.44443 0.0
C790 C 0.81634 0.15705 0.44007 0.0
C791 C 0.80661 0.14179 0.44093 0.0
C792 C 0.8773 0.23289 0.46875 0.0
C793 C 0.89147 0.23575 0.47552 0.0
C794 C 0.89758 0.24244 0.4955 0.0
C795 C 0.88958 0.24607 0.50949 0.0
C796 C 0.87525 0.2428 0.50323 0.0
C797 C 0.86923 0.23638 0.48291 0.0
C798 C 0.88157 0.23254 0.43025 0.0
C799 C 0.88496 0.24596 0.42093 0.0
C800 C 0.89708 0.2535 0.40706 0.0
C801 C 0.90615 0.24777 0.40233 0.0
C802 C 0.90215 0.23384 0.41059 0.0
C803 C 0.88997 0.22628 0.42431 0.0
C804 C 0.86124 0.21068 0.44728 0.0
C805 C 0.86385 0.20141 0.4606 0.0
C806 C 0.85425 0.18617 0.45972 0.0
C807 C 0.84201 0.17971 0.44509 0.0
C808 C 0.83964 0.18902 0.43147 0.0
C809 C 0.84909 0.2043 0.43268 0.0
H810 H 0.05688 0.59565 0.23285 0.0
N811 N 0.03951 0.57159 0.25575 0.0
H812 H 0.05188 0.60212 0.19664 0.0
H813 H 0.01563 0.55373 0.2286 0.0
H814 H 0.01095 0.55997 0.19229 0.0
H815 H 0.0127 0.56946 0.26154 0.0
H816 H 0.00862 0.58623 0.28312 0.0
H817 H 0.05812 0.59092 0.28497 0.0
H818 H 0.05423 0.60785 0.30646 0.0
H819 H 0.05962 0.56368 0.25753 0.0
H820 H 0.01292 0.54696 0.26648 0.0
H821 H 0.05551 0.53921 0.26424 0.0
H822 H 0.00838 0.52228 0.27154 0.0
H823 H 0.03587 0.46877 0.23831 0.0
H824 H 0.02992 0.457 0.20289 0.0
H825 H 0.98325 0.44089 0.21277 0.0
H826 H 0.98944 0.45322 0.24821 0.0
H827 H 0.99946 0.44764 0.29626 0.0
H828 H 0.00621 0.43248 0.31754 0.0
H829 H 0.05119 0.45804 0.2934 0.0
H830 H 0.04451 0.47388 0.27377 0.0
H831 H 0.04034 0.49155 0.24834 0.0
H832 H 0.04622 0.51679 0.24775 0.0
H833 H 0.01034 0.5053 0.29241 0.0
N834 N 0.01609 0.46816 0.26758 0.0
H835 H 0.00384 0.4797 0.29138 0.0
C836 C 0.03684 0.57416 0.23347 0.0
C837 C 0.04692 0.58775 0.22398 0.0
C838 C 0.044 0.59146 0.20343 0.0
C839 C 0.03103 0.58153 0.19178 0.0
C840 C 0.02108 0.56776 0.20095 0.0
C841 C 0.02383 0.56417 0.22174 0.0
C842 C 0.03578 0.57899 0.27166 0.0
C843 C 0.02167 0.57751 0.27182 0.0
C844 C 0.01941 0.58721 0.28399 0.0
C845 C 0.03116 0.59851 0.2963 0.0
C846 C 0.04491 0.59923 0.29731 0.0
C847 C 0.04717 0.58958 0.28505 0.0
C848 C 0.03661 0.55714 0.2612 0.0
C849 C 0.04846 0.55466 0.26089 0.0
C850 C 0.04602 0.5406 0.26451 0.0
C851 C 0.03154 0.52855 0.26815 0.0
C852 C 0.01972 0.5312 0.2691 0.0
C853 C 0.02226 0.54535 0.26594 0.0
C854 C 0.01306 0.46199 0.24596 0.0
C855 C 0.02438 0.4629 0.23289 0.0
C856 C 0.02093 0.45598 0.21261 0.0
C857 C 0.0061 0.44791 0.20497 0.0
C858 C 0.99482 0.44716 0.21799 0.0
C859 C 0.99831 0.45415 0.23826 0.0
C860 C 0.02134 0.46161 0.28307 0.0
C861 C 0.01087 0.45019 0.29613 0.0
C862 C 0.01474 0.4414 0.308 0.0
C863 C 0.02914 0.44363 0.30665 0.0
C864 C 0.03997 0.45587 0.29483 0.0
C865 C 0.03614 0.46489 0.28334 0.0
C866 C 0.02139 0.48361 0.26957 0.0
C867 C 0.03371 0.4944 0.25799 0.0
C868 C 0.03719 0.509 0.2579 0.0
C869 C 0.02866 0.51324 0.26983 0.0
C870 C 0.01692 0.5025 0.28249 0.0
C871 C 0.01328 0.48786 0.28218 0.0
H872 H 0.58408 0.53163 0.23134 0.0
N873 N 0.56488 0.53508 0.25419 0.0
H874 H 0.59548 0.54325 0.19669 0.0
H875 H 0.55849 0.55277 0.22939 0.0
H876 H 0.56943 0.56402 0.19476 0.0
H877 H 0.54997 0.54887 0.26557 0.0
H878 H 0.55997 0.57071 0.28824 0.0
H879 H 0.58838 0.54569 0.28064 0.0
H880 H 0.59813 0.56706 0.30458 0.0
H881 H 0.5592 0.50975 0.27115 0.0
H882 H 0.538 0.53015 0.23831 0.0
H883 H 0.53556 0.48611 0.27042 0.0
H884 H 0.51458 0.50665 0.23694 0.0
H885 H 0.45772 0.41245 0.22262 0.0
H886 H 0.44452 0.40493 0.18759 0.0
H887 H 0.45499 0.44946 0.17666 0.0
H888 H 0.46749 0.45666 0.21194 0.0
H889 H 0.44768 0.44598 0.24273 0.0
H890 H 0.42573 0.43534 0.26533 0.0
H891 H 0.44011 0.40875 0.29823 0.0
H892 H 0.46234 0.41961 0.27537 0.0
H893 H 0.49652 0.444 0.23968 0.0
H894 H 0.51978 0.46772 0.244 0.0
H895 H 0.49452 0.48817 0.25831 0.0
N896 N 0.46882 0.43825 0.24236 0.0
H897 H 0.4715 0.4647 0.25336 0.0
C898 C 0.57041 0.54122 0.23299 0.0
C899 C 0.58077 0.5386 0.22328 0.0
C900 C 0.58723 0.54522 0.20348 0.0
C901 C 0.58341 0.55463 0.19298 0.0
C902 C 0.5728 0.55703 0.20257 0.0
C903 C 0.56638 0.55043 0.22236 0.0
C904 C 0.5686 0.54579 0.2711 0.0
C905 C 0.56039 0.55264 0.27419 0.0
C906 C 0.56611 0.56513 0.28739 0.0
C907 C 0.58005 0.57089 0.29799 0.0
C908 C 0.58759 0.56323 0.29621 0.0
C909 C 0.58196 0.55089 0.28278 0.0
C910 C 0.55046 0.52172 0.2548 0.0
C911 C 0.54942 0.50913 0.26391 0.0
C912 C 0.53594 0.49563 0.26329 0.0
C913 C 0.52317 0.49443 0.25346 0.0
C914 C 0.52413 0.50718 0.24484 0.0
C915 C 0.53762 0.52069 0.24552 0.0
C916 C 0.46364 0.43507 0.22001 0.0
C917 C 0.4574 0.42062 0.21241 0.0
C918 C 0.44988 0.41637 0.19235 0.0
C919 C 0.44851 0.42654 0.17935 0.0
C920 C 0.45553 0.44124 0.18644 0.0
C921 C 0.46289 0.44544 0.20659 0.0
C922 C 0.45684 0.43372 0.25753 0.0
C923 C 0.44641 0.43819 0.25517 0.0
C924 C 0.43379 0.43206 0.26814 0.0
C925 C 0.43118 0.4212 0.28359 0.0
C926 C 0.44179 0.41703 0.28637 0.0
C927 C 0.45453 0.42329 0.27349 0.0
C928 C 0.48221 0.45239 0.24628 0.0
C929 C 0.49604 0.4536 0.2439 0.0
C930 C 0.50931 0.46716 0.24649 0.0
C931 C 0.50904 0.47988 0.25156 0.0
C932 C 0.49516 0.47864 0.25418 0.0
C933 C 0.48189 0.46508 0.25152 0.0
H934 H 0.54114 0.95834 0.22525 0.0
N935 N 0.53823 0.97703 0.24993 0.0
H936 H 0.5548 0.96352 0.19134 0.0
H937 H 0.55236 0.00338 0.22845 0.0
H938 H 0.56524 0.00852 0.19395 0.0
H939 H 0.56537 1.00016 0.26309 0.0
H940 H 0.58315 0.99849 0.28711 0.0
H941 H 0.53237 0.95492 0.27646 0.0
H942 H 0.54998 0.95321 0.30104 0.0
H943 H 0.51142 0.96598 0.23223 0.0
H944 H 0.54338 0.00131 0.27344 0.0
H945 H 0.49538 0.97614 0.23251 0.0
H946 H 0.52697 0.01108 0.27507 0.0
H947 H 0.44722 0.99515 0.23131 0.0
H948 H 0.43653 0.99232 0.19498 0.0
H949 H 0.47224 0.036 0.17831 0.0
H950 H 0.48318 0.03867 0.21495 0.0
H951 H 0.456 0.03193 0.24963 0.0
H952 H 0.43414 0.02444 0.27156 0.0
H953 H 0.44248 0.9941 0.30668 0.0
H954 H 0.46412 0.00138 0.28483 0.0
H955 H 0.46334 0.99001 0.24842 0.0
H956 H 0.47912 0.97975 0.25186 0.0
H957 H 0.51802 0.02368 0.25511 0.0
N958 N 0.47235 0.01935 0.24766 0.0
H959 H 0.50184 0.03384 0.253 0.0
C960 C 0.54557 0.98036 0.22922 0.0
C961 C 0.54635 0.96928 0.21836 0.0
C962 C 0.55409 0.97227 0.19891 0.0
C963 C 0.56113 0.98645 0.18975 0.0
C964 C 0.56019 0.99753 0.20062 0.0
C965 C 0.55264 0.99457 0.22026 0.0
C966 C 0.54751 0.97759 0.26793 0.0
C967 C 0.56177 0.99001 0.27181 0.0
C968 C 0.57195 0.98903 0.28559 0.0
C969 C 0.56808 0.97563 0.29575 0.0
C970 C 0.55343 0.9636 0.29314 0.0
C971 C 0.54328 0.9646 0.27933 0.0
C972 C 0.52852 0.98269 0.25291 0.0
C973 C 0.51478 0.97575 0.24181 0.0
C974 C 0.50558 0.98157 0.24212 0.0
C975 C 0.50974 0.99445 0.25395 0.0
C976 C 0.52343 0.00128 0.26552 0.0
C977 C 0.5328 0.99556 0.26484 0.0
C978 C 0.46624 0.01707 0.22576 0.0
C979 C 0.45304 0.00398 0.21974 0.0
C980 C 0.44685 0.00242 0.19896 0.0
C981 C 0.45359 0.01392 0.18377 0.0
C982 C 0.46678 0.02698 0.18974 0.0
C983 C 0.47309 0.02848 0.21053 0.0
C984 C 0.46131 0.01656 0.26409 0.0
C985 C 0.45321 0.0237 0.26213 0.0
C986 C 0.44073 0.01949 0.27486 0.0
C987 C 0.43624 0.00828 0.29041 0.0
C988 C 0.44528 0.00232 0.29418 0.0
C989 C 0.45772 0.00646 0.28134 0.0
C990 C 0.48138 0.0128 0.25068 0.0
C991 C 0.47523 0.99749 0.24998 0.0
C992 C 0.48436 0.9916 0.25184 0.0
C993 C 0.49997 1.00082 0.25361 0.0
C994 C 0.50608 0.01615 0.2542 0.0
C995 C 0.49687 0.02202 0.25285 0.0
H996 H 0.41172 0.96713 0.77887 0.0
N997 N 0.43837 0.9859 0.76293 0.0
H998 H 0.40231 0.96745 0.81489 0.0
H999 H 0.4539 0.00583 0.79523 0.0
H1000 H 0.44464 0.00625 0.83146 0.0
H1001 H 0.45055 0.01572 0.7613 0.0
H1002 H 0.44117 0.0285 0.73939 0.0
H1003 H 0.41912 0.97485 0.7299 0.0
H1004 H 0.4093 0.98737 0.70835 0.0
H1005 H 0.44157 0.96428 0.77763 0.0
H1006 H 0.46595 0.00666 0.74642 0.0
H1007 H 0.46396 0.96301 0.77919 0.0
H1008 H 0.48816 0.00501 0.74638 0.0
H1009 H 0.53802 0.96168 0.79222 0.0
H1010 H 0.55002 0.96447 0.82776 0.0
H1011 H 0.54456 0.00108 0.84195 0.0
H1012 H 0.53337 0.99869 0.80635 0.0
H1013 H 0.55318 0.00805 0.77464 0.0
H1014 H 0.57579 0.01848 0.75335 0.0
H1015 H 0.55787 0.97726 0.71903 0.0
H1016 H 0.5352 0.96683 0.74074 0.0
H1017 H 0.50241 0.95766 0.76649 0.0
H1018 H 0.48026 0.95921 0.76067 0.0
H1019 H 0.50733 0.00654 0.76724 0.0
N1020 N 0.53015 0.97937 0.77396 0.0
H1021 H 0.52944 0.00485 0.77108 0.0
C1022 C 0.43344 0.98638 0.78447 0.0
C1023 C 0.41893 0.97565 0.79034 0.0
C1024 C 0.41363 0.97585 0.81091 0.0
C1025 C 0.42276 0.98685 0.82605 0.0
C1026 C 0.4373 0.99772 0.82007 0.0
C1027 C 0.44263 0.99747 0.79946 0.0
C1028 C 0.43554 0.99428 0.74714 0.0
C1029 C 0.44187 0.00955 0.7493 0.0
C1030 C 0.43636 0.01682 0.7369 0.0
C1031 C 0.42431 0.00895 0.72228 0.0
C1032 C 0.41868 0.99386 0.71922 0.0
C1033 C 0.42426 0.98664 0.73152 0.0
C1034 C 0.45191 0.98551 0.76204 0.0
C1035 C 0.45172 0.97322 0.77079 0.0
C1036 C 0.46458 0.97246 0.77142 0.0
C1037 C 0.47802 0.98385 0.76276 0.0
C1038 C 0.47815 0.9961 0.75357 0.0
C1039 C 0.4653 0.99701 0.75341 0.0
C1040 C 0.5347 0.97987 0.79642 0.0
C1041 C 0.53918 0.97013 0.80321 0.0
C1042 C 0.54602 0.97173 0.82357 0.0
C1043 C 0.54845 0.98313 0.83768 0.0
C1044 C 0.5432 0.99239 0.83133 0.0
C1045 C 0.53656 0.99089 0.81089 0.0
C1046 C 0.54242 0.98663 0.75917 0.0
C1047 C 0.55388 0.00137 0.76213 0.0
C1048 C 0.56687 0.00733 0.74992 0.0
C1049 C 0.5687 0.99867 0.73457 0.0
C1050 C 0.5569 0.98416 0.73093 0.0
C1051 C 0.5439 0.97823 0.74312 0.0
C1052 C 0.51754 0.98102 0.76967 0.0
C1053 C 0.50352 0.96835 0.76644 0.0
C1054 C 0.49084 0.9693 0.76336 0.0
C1055 C 0.49181 0.983 0.76393 0.0
C1056 C 0.50602 0.99578 0.76651 0.0
C1057 C 0.51876 0.99482 0.76902 0.0
H1058 H 0.94771 0.53776 0.8111 0.0
N1059 N 0.96259 0.53132 0.78325 0.0
H1060 H 0.95746 0.55333 0.8434 0.0
H1061 H 0.99092 0.54376 0.80001 0.0
H1062 H 1.00064 0.55869 0.83291 0.0
H1063 H 0.98723 0.55473 0.76507 0.0
H1064 H 0.98733 0.57299 0.74077 0.0
H1065 H 0.93924 0.52939 0.76253 0.0
H1066 H 0.93913 0.54788 0.73887 0.0
H1067 H 0.95376 0.5072 0.80662 0.0
H1068 H 0.98042 0.53042 0.75099 0.0
H1069 H 0.96134 0.48926 0.80365 0.0
H1070 H 0.98729 0.5121 0.74712 0.0
H1071 H 0.9763 0.43465 0.79783 0.0
H1072 H 0.97854 0.42652 0.8341 0.0
H1073 H 0.02123 0.46645 0.84318 0.0
H1074 H 0.01922 0.47439 0.80623 0.0
H1075 H 0.01725 0.4563 0.7567 0.0
H1076 H 0.01262 0.43564 0.73379 0.0
H1077 H 0.96518 0.4176 0.73859 0.0
H1078 H 0.96996 0.43853 0.76044 0.0
H1079 H 0.96909 0.45307 0.78734 0.0
H1080 H 0.95958 0.46958 0.78547 0.0
H1081 H 0.00236 0.50434 0.76238 0.0
N1082 N 0.9973 0.45982 0.77715 0.0
H1083 H 0.0113 0.48729 0.76279 0.0
C1084 C 0.96849 0.53948 0.80328 0.0
C1085 C 0.95924 0.54222 0.81594 0.0
C1086 C 0.96485 0.55108 0.83447 0.0
C1087 C 0.97988 0.55731 0.8409 0.0
C1088 C 0.98909 0.55431 0.82833 0.0
C1089 C 0.98351 0.54561 0.80961 0.0
C1090 C 0.96317 0.54057 0.76548 0.0
C1091 C 0.9767 0.55292 0.75886 0.0
C1092 C 0.97672 0.56347 0.74517 0.0
C1093 C 0.96323 0.56208 0.73807 0.0
C1094 C 0.94975 0.5493 0.74376 0.0
C1095 C 0.94976 0.53868 0.7573 0.0
C1096 C 0.96652 0.52034 0.77932 0.0
C1097 C 0.96106 0.50831 0.79354 0.0
C1098 C 0.96533 0.49795 0.79166 0.0
C1099 C 0.975 0.49913 0.77512 0.0
C1100 C 0.9801 0.51094 0.76037 0.0
C1101 C 0.97604 0.52148 0.76252 0.0
C1102 C 0.99777 0.45509 0.79908 0.0
C1103 C 0.98622 0.44166 0.80739 0.0
C1104 C 0.9875 0.43699 0.82816 0.0
C1105 C 1.00013 0.4458 0.84126 0.0
C1106 C 0.01141 0.45945 0.83332 0.0
C1107 C 0.01027 0.46399 0.81232 0.0
C1108 C 0.99405 0.44901 0.76049 0.0
C1109 C 0.00588 0.44807 0.75226 0.0
C1110 C 0.00318 0.43614 0.73941 0.0
C1111 C 0.9885 0.42473 0.73466 0.0
C1112 C 0.97664 0.42617 0.74176 0.0
C1113 C 0.97938 0.4382 0.75444 0.0
C1114 C 0.99088 0.46888 0.77478 0.0
C1115 C 0.97627 0.46409 0.78124 0.0
C1116 C 0.97093 0.4737 0.78053 0.0
C1117 C 0.98018 0.48844 0.77391 0.0
C1118 C 0.99473 0.49307 0.76718 0.0
C1119 C 0.99994 0.48336 0.76751 0.0
H1120 H 0.46792 0.43535 0.81588 0.0
N1121 N 0.46873 0.45548 0.78931 0.0
H1122 H 0.45172 0.42373 0.84695 0.0
H1123 H 0.4496 0.46303 0.80646 0.0
H1124 H 0.43425 0.45237 0.83822 0.0
H1125 H 0.44352 0.45048 0.76783 0.0
H1126 H 0.42936 0.43121 0.74091 0.0
H1127 H 0.47755 0.43945 0.76939 0.0
H1128 H 0.4632 0.41964 0.74344 0.0
H1129 H 0.49782 0.47107 0.79668 0.0
H1130 H 0.46099 0.4752 0.77494 0.0
H1131 H 0.5144 0.49767 0.79474 0.0
H1132 H 0.47706 0.50185 0.77482 0.0
H1133 H 0.56292 0.57112 0.80479 0.0
H1134 H 0.57407 0.58265 0.83952 0.0
H1135 H 0.53521 0.58468 0.85441 0.0
H1136 H 0.52415 0.57367 0.81866 0.0
H1137 H 0.54969 0.59226 0.77041 0.0
H1138 H 0.57249 0.60387 0.74923 0.0
H1139 H 0.56955 0.56196 0.74424 0.0
H1140 H 0.5477 0.55078 0.76667 0.0
H1141 H 0.5372 0.54484 0.81419 0.0
H1142 H 0.5205 0.51858 0.81333 0.0
H1143 H 0.49615 0.52306 0.75941 0.0
N1144 N 0.536 0.56539 0.78774 0.0
H1145 H 0.51238 0.54979 0.76163 0.0
C1146 C 0.4602 0.4502 0.80896 0.0
C1147 C 0.46066 0.43917 0.82087 0.0
C1148 C 0.45142 0.43259 0.83871 0.0
C1149 C 0.44158 0.43705 0.84523 0.0
C1150 C 0.44141 0.44839 0.83351 0.0
C1151 C 0.45046 0.45474 0.81542 0.0
C1152 C 0.46168 0.44647 0.77043 0.0
C1153 C 0.44816 0.44419 0.76189 0.0
C1154 C 0.43995 0.43297 0.74674 0.0
C1155 C 0.44498 0.42366 0.74014 0.0
C1156 C 0.45899 0.42663 0.7478 0.0
C1157 C 0.46724 0.43794 0.76272 0.0
C1158 C 0.47815 0.47114 0.78644 0.0
C1159 C 0.49331 0.47778 0.79165 0.0
C1160 C 0.50272 0.49304 0.79079 0.0
C1161 C 0.49709 0.50211 0.78515 0.0
C1162 C 0.4819 0.49534 0.77918 0.0
C1163 C 0.47258 0.48001 0.77952 0.0
C1164 C 0.54272 0.57181 0.80872 0.0
C1165 C 0.55681 0.57426 0.81514 0.0
C1166 C 0.56321 0.58084 0.83506 0.0
C1167 C 0.55557 0.58472 0.84934 0.0
C1168 C 0.54134 0.5819 0.84344 0.0
C1169 C 0.53504 0.57561 0.82315 0.0
C1170 C 0.54694 0.57071 0.77055 0.0
C1171 C 0.55381 0.58553 0.76431 0.0
C1172 C 0.56685 0.59214 0.75213 0.0
C1173 C 0.57314 0.58395 0.74548 0.0
C1174 C 0.56536 0.56876 0.74975 0.0
C1175 C 0.55259 0.56225 0.76241 0.0
C1176 C 0.52593 0.54954 0.78818 0.0
C1177 C 0.52814 0.54036 0.80241 0.0
C1178 C 0.51864 0.52512 0.80162 0.0
C1179 C 0.50695 0.51849 0.78614 0.0
C1180 C 0.50483 0.52766 0.77182 0.0
C1181 C 0.51414 0.54298 0.77297 0.0
H1182 H 0.6809 0.89588 0.57386 0.0
N1183 N 0.65719 0.87294 0.59456 0.0
H1184 H 0.68071 0.90466 0.53705 0.0
H1185 H 0.6355 0.86017 0.56471 0.0
H1186 H 0.63551 0.86863 0.52734 0.0
H1187 H 0.63925 0.88079 0.61125 0.0
H1188 H 0.64629 0.90268 0.63287 0.0
H1189 H 0.6848 0.89133 0.6131 0.0
H1190 H 0.69192 0.91312 0.63494 0.0
H1191 H 0.68356 0.8742 0.58763 0.0
H1192 H 0.63873 0.84643 0.61028 0.0
H1193 H 0.68827 0.85419 0.59305 0.0
H1194 H 0.64286 0.82607 0.61443 0.0
H1195 H 0.68795 0.78674 0.57513 0.0
H1196 H 0.68504 0.77551 0.53969 0.0
H1197 H 0.63795 0.76015 0.53983 0.0
H1198 H 0.64091 0.77063 0.57613 0.0
H1199 H 0.65021 0.76013 0.62365 0.0
H1200 H 0.65994 0.74761 0.64546 0.0
H1201 H 0.70486 0.78345 0.63383 0.0
H1202 H 0.69487 0.796 0.61213 0.0
H1203 H 0.68344 0.80943 0.57681 0.0
H1204 H 0.68296 0.83201 0.5779 0.0
H1205 H 0.65384 0.81534 0.63334 0.0
N1206 N 0.66564 0.78441 0.60045 0.0
H1207 H 0.65349 0.79231 0.6309 0.0
C1208 C 0.65807 0.87746 0.57218 0.0
C1209 C 0.67093 0.88985 0.56393 0.0
C1210 C 0.67082 0.89488 0.5429 0.0
C1211 C 0.65804 0.88739 0.52956 0.0
C1212 C 0.64547 0.8746 0.53739 0.0
C1213 C 0.64546 0.86976 0.55862 0.0
C1214 C 0.66141 0.88437 0.61052 0.0
C1215 C 0.6507 0.88762 0.61685 0.0
C1216 C 0.65475 0.90013 0.62923 0.0
C1217 C 0.66971 0.90974 0.63553 0.0
C1218 C 0.68035 0.90607 0.6301 0.0
C1219 C 0.67625 0.8935 0.61774 0.0
C1220 C 0.66081 0.86183 0.59891 0.0
C1221 C 0.67479 0.86384 0.59405 0.0
C1222 C 0.67738 0.85227 0.59689 0.0
C1223 C 0.66599 0.83838 0.60426 0.0
C1224 C 0.6521 0.8366 0.60929 0.0
C1225 C 0.64962 0.84821 0.60677 0.0
C1226 C 0.66454 0.77924 0.57848 0.0
C1227 C 0.67699 0.78088 0.56762 0.0
C1228 C 0.67531 0.77457 0.54713 0.0
C1229 C 0.66121 0.76672 0.53684 0.0
C1230 C 0.64892 0.76573 0.54741 0.0
C1231 C 0.65058 0.77185 0.56806 0.0
C1232 C 0.67179 0.77888 0.61624 0.0
C1233 C 0.66213 0.76544 0.62633 0.0
C1234 C 0.66773 0.75833 0.63878 0.0
C1235 C 0.6832 0.76448 0.64127 0.0
C1236 C 0.6929 0.77836 0.632 0.0
C1237 C 0.68723 0.78557 0.61971 0.0
C1238 C 0.66817 0.79898 0.6035 0.0
C1239 C 0.67703 0.81065 0.5893 0.0
C1240 C 0.67684 0.8237 0.59009 0.0
C1241 C 0.66807 0.8255 0.60541 0.0
C1242 C 0.66031 0.81425 0.62079 0.0
C1243 C 0.66025 0.80111 0.61966 0.0
H1244 H 0.2526 0.87062 0.56651 0.0
N1245 N 0.23447 0.87438 0.59151 0.0
H1246 H 0.26244 0.88175 0.53099 0.0
H1247 H 0.22754 0.89227 0.56831 0.0
H1248 H 0.23696 0.90308 0.53285 0.0
H1249 H 0.22014 0.88832 0.60497 0.0
H1250 H 0.23103 0.91018 0.62779 0.0
H1251 H 0.25867 0.88471 0.61643 0.0
H1252 H 0.26932 0.90606 0.64053 0.0
H1253 H 0.22933 0.84901 0.60755 0.0
H1254 H 0.20719 0.8695 0.57788 0.0
H1255 H 0.20581 0.82526 0.60703 0.0
H1256 H 0.18388 0.84589 0.57661 0.0
H1257 H 0.12791 0.75174 0.55853 0.0
H1258 H 0.11479 0.74479 0.52338 0.0
H1259 H 0.12542 0.7895 0.51418 0.0
H1260 H 0.13787 0.79615 0.54952 0.0
H1261 H 0.11752 0.78454 0.57967 0.0
H1262 H 0.09557 0.7736 0.60225 0.0
H1263 H 0.11065 0.74759 0.63522 0.0
H1264 H 0.1328 0.75865 0.6122 0.0
H1265 H 0.16681 0.78345 0.57574 0.0
H1266 H 0.18989 0.80725 0.58057 0.0
H1267 H 0.16419 0.8268 0.5974 0.0
N1268 N 0.13899 0.77725 0.5792 0.0
H1269 H 0.14134 0.80328 0.59185 0.0
C1270 C 0.23932 0.88051 0.5701 0.0
C1271 C 0.2491 0.87763 0.55913 0.0
C1272 C 0.25466 0.88397 0.53884 0.0
C1273 C 0.2505 0.89334 0.52909 0.0
C1274 C 0.24056 0.89609 0.54003 0.0
C1275 C 0.23502 0.88976 0.56031 0.0
C1276 C 0.23877 0.88505 0.60865 0.0
C1277 C 0.23078 0.892 0.61284 0.0
C1278 C 0.23702 0.90449 0.62612 0.0
C1279 C 0.25125 0.91013 0.63572 0.0
C1280 C 0.25856 0.90233 0.63293 0.0
C1281 C 0.25242 0.89001 0.6194 0.0
C1282 C 0.2201 0.86102 0.59274 0.0
C1283 C 0.21936 0.84839 0.60108 0.0
C1284 C 0.20595 0.83482 0.60057 0.0
C1285 C 0.19295 0.8336 0.59157 0.0
C1286 C 0.19361 0.84641 0.58385 0.0
C1287 C 0.20703 0.85999 0.58447 0.0
C1288 C 0.1339 0.77441 0.55678 0.0
C1289 C 0.12765 0.76008 0.54867 0.0
C1290 C 0.12018 0.75615 0.52854 0.0
C1291 C 0.11887 0.76654 0.51603 0.0
C1292 C 0.12593 0.78113 0.52359 0.0
C1293 C 0.13326 0.78502 0.54379 0.0
C1294 C 0.12694 0.77248 0.59433 0.0
C1295 C 0.11636 0.77676 0.59204 0.0
C1296 C 0.10376 0.77048 0.60505 0.0
C1297 C 0.10134 0.75971 0.62056 0.0
C1298 C 0.11214 0.75577 0.62331 0.0
C1299 C 0.12483 0.76215 0.61033 0.0
C1300 C 0.15229 0.7914 0.58351 0.0
C1301 C 0.1662 0.79287 0.58062 0.0
C1302 C 0.17937 0.80647 0.58352 0.0
C1303 C 0.17893 0.81898 0.58945 0.0
C1304 C 0.16497 0.81746 0.59261 0.0
C1305 C 0.1518 0.80387 0.5896 0.0
H1306 H 0.22626 0.31526 0.569 0.0
N1307 N 0.22442 0.33614 0.59247 0.0
H1308 H 0.23673 0.31822 0.53324 0.0
H1309 H 0.23468 0.35942 0.56642 0.0
H1310 H 0.24447 0.36224 0.52967 0.0
H1311 H 0.24847 0.35307 0.61658 0.0
H1312 H 0.26279 0.34541 0.63864 0.0
H1313 H 0.21494 0.30775 0.60442 0.0
H1314 H 0.22959 0.2999 0.62529 0.0
H1315 H 0.20089 0.31264 0.57148 0.0
H1316 H 0.21246 0.34754 0.61724 0.0
H1317 H 0.17529 0.30679 0.57044 0.0
H1318 H 0.18647 0.34102 0.61778 0.0
H1319 H 0.09481 0.29543 0.55788 0.0
H1320 H 0.08658 0.30141 0.52387 0.0
H1321 H 0.12751 0.34361 0.52239 0.0
H1322 H 0.13548 0.33791 0.55675 0.0
H1323 H 0.12055 0.33775 0.59393 0.0
H1324 H 0.10353 0.33908 0.61925 0.0
H1325 H 0.08292 0.2925 0.63183 0.0
H1326 H 0.10023 0.29148 0.60705 0.0
H1327 H 0.12761 0.29305 0.57991 0.0
H1328 H 0.1525 0.29716 0.58624 0.0
H1329 H 0.16937 0.34337 0.59714 0.0
N1330 N 0.11929 0.31263 0.58103 0.0
H1331 H 0.14423 0.33877 0.59257 0.0
C1332 C 0.22991 0.33728 0.57069 0.0
C1333 C 0.23032 0.32563 0.56077 0.0
C1334 C 0.23617 0.32727 0.54002 0.0
C1335 C 0.24151 0.34049 0.52845 0.0
C1336 C 0.24075 0.352 0.53821 0.0
C1337 C 0.23505 0.3504 0.55913 0.0
C1338 C 0.23083 0.33104 0.60859 0.0
C1339 C 0.24412 0.34145 0.61897 0.0
C1340 C 0.25236 0.33702 0.63133 0.0
C1341 C 0.2476 0.32202 0.63326 0.0
C1342 C 0.23365 0.31154 0.62419 0.0
C1343 C 0.22527 0.31601 0.61212 0.0
C1344 C 0.20872 0.33081 0.59412 0.0
C1345 C 0.19788 0.3189 0.58165 0.0
C1346 C 0.18309 0.31545 0.58127 0.0
C1347 C 0.17867 0.32353 0.59381 0.0
C1348 C 0.18942 0.33481 0.60736 0.0
C1349 C 0.20428 0.33845 0.60734 0.0
C1350 C 0.11581 0.31605 0.55982 0.0
C1351 C 0.10207 0.3059 0.5501 0.0
C1352 C 0.09735 0.30936 0.53084 0.0
C1353 C 0.10643 0.32296 0.52068 0.0
C1354 C 0.12038 0.33303 0.52997 0.0
C1355 C 0.12496 0.3297 0.54958 0.0
C1356 C 0.11161 0.31447 0.59872 0.0
C1357 C 0.11268 0.32796 0.60272 0.0
C1358 C 0.10281 0.32866 0.61701 0.0
C1359 C 0.09173 0.31587 0.62748 0.0
C1360 C 0.0914 0.30262 0.62437 0.0
C1361 C 0.10125 0.30197 0.61016 0.0
C1362 C 0.13412 0.31561 0.58532 0.0
C1363 C 0.13673 0.30403 0.58383 0.0
C1364 C 0.15102 0.30646 0.58729 0.0
C1365 C 0.16316 0.32067 0.59193 0.0
C1366 C 0.16039 0.33223 0.59388 0.0
C1367 C 0.146 0.32968 0.59092 0.0
H1368 H 0.00419 0.40071 0.08889 0.0
H1369 H 0.98553 0.44519 0.17427 0.0
H1370 H 0.96759 0.40803 0.0815 0.0
H1371 H 0.01825 0.433 0.18694 0.0
H1372 H 0.97954 0.43233 0.1395 0.0
H1373 H 0.01034 0.4133 0.12416 0.0
C1374 C 0.99745 0.40494 0.09466 0.0
C1375 C 0.98535 0.40329 0.08218 0.0
C1376 C 0.98803 0.43245 0.14988 0.0
C1377 C 0.99235 0.41774 0.12242 0.0
C1378 C 0.9914 0.43974 0.16982 0.0
C1379 C 0.00241 0.44019 0.18363 0.0
C1380 C 0.99572 0.42556 0.14357 0.0
C1381 C 0.00983 0.43314 0.17672 0.0
C1382 C 1.00095 0.41211 0.1148 0.0
C1383 C 0.97701 0.409 0.09051 0.0
N1384 N 0.00636 0.42613 0.15719 0.0
N1385 N 0.98068 0.41597 0.11003 0.0
H1386 H 0.62263 0.61586 0.08522 0.0
H1387 H 0.59011 0.54315 0.15833 0.0
H1388 H 0.62161 0.57643 0.06599 0.0
H1389 H 0.593 0.58297 0.18031 0.0
H1390 H 0.60187 0.55545 0.12443 0.0
H1391 H 0.61198 0.6043 0.12027 0.0
C1392 C 0.62024 0.60483 0.08837 0.0
C1393 C 0.62299 0.59711 0.07258 0.0
C1394 C 0.59995 0.56153 0.13666 0.0
C1395 C 0.61077 0.58382 0.11255 0.0
C1396 C 0.5933 0.55451 0.15609 0.0
C1397 C 0.59054 0.56201 0.17223 0.0
C1398 C 0.6039 0.57618 0.13323 0.0
C1399 C 0.59471 0.57668 0.16822 0.0
C1400 C 0.61414 0.59823 0.10837 0.0
C1401 C 0.61966 0.58282 0.07759 0.0
N1402 N 0.60117 0.58328 0.14912 0.0
N1403 N 0.6137 0.57665 0.09705 0.0
H1404 H 0.40451 0.97624 0.06496 0.0
H1405 H 0.4485 0.03344 0.16148 0.0
H1406 H 0.40463 0.01666 0.07142 0.0
H1407 H 0.44265 0.99036 0.15651 0.0
H1408 H 0.43497 0.02918 0.12667 0.0
H1409 H 0.42095 0.98297 0.09643 0.0
C1410 C 0.40801 0.98659 0.07298 0.0
C1411 C 0.40301 0.99582 0.0656 0.0
C1412 C 0.43674 0.02072 0.13317 0.0
C1413 C 0.42199 0.00362 0.10205 0.0
C1414 C 0.44453 0.02317 0.15293 0.0
C1415 C 0.44659 0.01218 0.16195 0.0
C1416 C 0.43112 0.00723 0.12234 0.0
C1417 C 0.44113 0.99904 0.15032 0.0
C1418 C 0.41745 0.99043 0.09103 0.0
C1419 C 0.40815 0.00917 0.0766 0.0
N1420 N 0.43364 0.99694 0.13121 0.0
N1421 N 0.4173 0.01264 0.09442 0.0
H1422 H 0.3816 0.95995 0.95152 0.0
H1423 H 0.42583 0.01018 0.84957 0.0
H1424 H 0.39537 0.00581 0.94716 0.0
H1425 H 0.40683 0.96324 0.85269 0.0
H1426 H 0.41585 0.00936 0.88572 0.0
H1427 H 0.39165 0.96148 0.91566 0.0
C1428 C 0.38673 0.97037 0.94301 0.0
C1429 C 0.38765 0.98279 0.95243 0.0
C1430 C 0.41386 0.99926 0.87844 0.0
C1431 C 0.39929 0.98461 0.91111 0.0
C1432 C 0.41963 0.99972 0.8579 0.0
C1433 C 0.41711 0.98674 0.84807 0.0
C1434 C 0.40562 0.98573 0.88926 0.0
C1435 C 0.40887 0.97349 0.85949 0.0
C1436 C 0.39247 0.97123 0.92245 0.0
C1437 C 0.3944 0.99596 0.9405 0.0
N1438 N 0.40346 0.97333 0.87944 0.0
N1439 N 0.40002 0.99654 0.92045 0.0
H1440 H 1.00093 0.39571 0.95304 0.0
H1441 H 0.00528 0.46026 0.8799 0.0
H1442 H 0.98538 0.42382 0.97455 0.0
H1443 H 0.99768 0.41977 0.85238 0.0
H1444 H 0.00508 0.45066 0.91645 0.0
H1445 H 0.00692 0.40828 0.91757 0.0
C1446 C 0.99906 0.4047 0.95043 0.0
C1447 C 0.99254 0.40868 0.96659 0.0
C1448 C 0.00362 0.44396 0.90237 0.0
C1449 C 0.99947 0.42309 0.92647 0.0
C1450 C 0.00378 0.44944 0.88159 0.0
C1451 C 1.00135 0.44071 0.86323 0.0
C1452 C 1.0013 0.42979 0.90471 0.0
C1453 C 0.99942 0.42674 0.86621 0.0
C1454 C 0.00238 0.41178 0.93022 0.0
C1455 C 0.99026 0.42034 0.9624 0.0
N1456 N 0.99942 0.42169 0.88659 0.0
N1457 N 0.99371 0.42713 0.94274 0.0
H1458 H 0.59316 0.58486 0.97083 0.0
H1459 H 0.58155 0.61049 0.85737 0.0
H1460 H 0.61712 0.63102 0.95481 0.0
H1461 H 0.54547 0.57301 0.88941 0.0
H1462 H 0.59508 0.61858 0.8923 0.0
H1463 H 0.57578 0.58018 0.94071 0.0
C1464 C 0.59467 0.59403 0.96104 0.0
C1465 C 0.60663 0.60833 0.96514 0.0
C1466 C 0.58406 0.60877 0.89178 0.0
C1467 C 0.58694 0.60302 0.93048 0.0
C1468 C 0.57638 0.60417 0.87192 0.0
C1469 C 0.56243 0.5911 0.87068 0.0
C1470 C 0.5779 0.59999 0.91032 0.0
C1471 C 0.55618 0.58318 0.88983 0.0
C1472 C 0.5847 0.59137 0.94396 0.0
C1473 C 0.60803 0.61984 0.95212 0.0
N1474 N 0.5641 0.5876 0.90884 0.0
N1475 N 0.59845 0.6169 0.93503 0.0
H1476 H 0.03769 0.61998 0.93886 0.0
H1477 H 0.96582 0.5553 0.87938 0.0
H1478 H 0.99306 0.60509 0.9601 0.0
H1479 H 0.00783 0.58186 0.84691 0.0
H1480 H 0.97589 0.57186 0.91061 0.0
H1481 H 0.02727 0.6045 0.90652 0.0
C1482 C 0.02569 0.6135 0.93668 0.0
C1483 C 0.01623 0.61382 0.95223 0.0
C1484 C 0.98287 0.57406 0.8966 0.0
C1485 C 0.00424 0.59594 0.91536 0.0
C1486 C 0.97712 0.56464 0.87868 0.0
C1487 C 0.98595 0.56712 0.86033 0.0
C1488 C 0.99763 0.58596 0.89638 0.0
C1489 C 1.00064 0.57927 0.86075 0.0
C1490 C 0.01976 0.60469 0.91819 0.0
C1491 C 1.00077 0.60522 0.9485 0.0
N1492 N 0.00603 0.58817 0.87849 0.0
N1493 N 0.99525 0.59651 0.93053 0.0
H1494 H 0.37562 0.41347 0.94399 0.0
H1495 H 0.4465 0.4257 0.88278 0.0
H1496 H 0.39498 0.38724 0.95917 0.0
H1497 H 0.41309 0.43151 0.85032 0.0
H1498 H 0.42944 0.41379 0.91294 0.0
H1499 H 0.39095 0.42259 0.91144 0.0
C1500 C 0.38304 0.40956 0.94037 0.0
C1501 C 0.38406 0.3996 0.95426 0.0
C1502 C 0.42588 0.41763 0.89912 0.0
C1503 C 0.40179 0.4102 0.91737 0.0
C1504 C 0.43558 0.4244 0.88181 0.0
C1505 C 0.43134 0.42974 0.86384 0.0
C1506 C 0.41194 0.41642 0.89871 0.0
C1507 C 0.41709 0.42795 0.86393 0.0
C1508 C 0.39173 0.41473 0.9218 0.0
C1509 C 0.39381 0.39486 0.9488 0.0
N1510 N 0.40798 0.42158 0.88116 0.0
N1511 N 0.40248 0.40036 0.9309 0.0
H1512 H 0.59486 0.97811 0.95339 0.0
H1513 H 0.56883 0.00982 0.85542 0.0
H1514 H 0.60524 0.02296 0.94903 0.0
H1515 H 0.54871 0.9632 0.86654 0.0
H1516 H 0.58363 0.01468 0.8885 0.0
H1517 H 0.57936 0.97227 0.92026 0.0
C1518 C 0.59392 0.98672 0.94549 0.0
C1519 C 0.60137 0.00105 0.95404 0.0
C1520 C 0.57593 0.00337 0.8838 0.0
C1521 C 0.58376 0.99447 0.91623 0.0
C1522 C 0.56735 1.00056 0.86494 0.0
C1523 C 0.55731 0.98605 0.8582 0.0
C1524 C 0.57467 0.99162 0.89609 0.0
C1525 C 0.55635 0.97456 0.87098 0.0
C1526 C 0.58504 0.98337 0.92665 0.0
C1527 C 0.5997 0.01176 0.94314 0.0
N1528 N 0.56493 0.97759 0.8893 0.0
N1529 N 0.59114 0.00826 0.92483 0.0
H1530 H 0.59765 0.98096 0.06689 0.0
H1531 H 0.58681 0.01194 0.17806 0.0
H1532 H 0.61555 0.02719 0.07821 0.0
H1533 H 0.55485 0.96835 0.15429 0.0
H1534 H 0.60022 0.0171 0.14398 0.0
H1535 H 0.58475 0.97546 0.10175 0.0
C1536 C 0.59894 0.98995 0.07676 0.0
C1537 C 0.60762 0.00455 0.06963 0.0
C1538 C 0.59026 0.00642 0.14629 0.0
C1539 C 0.59306 0.99835 0.10942 0.0
C1540 C 0.58251 0.00347 0.16569 0.0
C1541 C 0.56956 0.98969 0.16914 0.0
C1542 C 0.5852 0.99547 0.13029 0.0
C1543 C 0.56486 0.97905 0.15261 0.0
C1544 C 0.59153 0.9868 0.09655 0.0
C1545 C 0.60888 0.01577 0.08302 0.0
N1546 N 0.5727 0.98215 0.13394 0.0
N1547 N 0.60173 0.01244 0.10231 0.0
H1548 H 0.0139 0.62402 0.0838 0.0
H1549 H 0.02495 0.56658 0.15339 0.0
H1550 H 0.03207 0.59948 0.05674 0.0
H1551 H 0.02981 0.60584 0.18146 0.0
H1552 H 0.02108 0.57445 0.11745 0.0
H1553 H 0.01307 0.61314 0.11957 0.0
C1554 C 0.01745 0.61615 0.08531 0.0
C1555 C 0.02316 0.61271 0.06737 0.0
C1556 C 0.02289 0.58127 0.13154 0.0
C1557 C 0.02213 0.60021 0.10795 0.0
C1558 C 0.02505 0.57677 0.15197 0.0
C1559 C 0.02783 0.58567 0.17026 0.0
C1560 C 0.02321 0.59457 0.12954 0.0
C1561 C 0.02787 0.59879 0.16764 0.0
C1562 C 0.01707 0.61004 0.10569 0.0
C1563 C 0.02771 0.60252 0.07022 0.0
N1564 N 0.02557 0.60285 0.14764 0.0
N1565 N 0.0271 0.59662 0.09013 0.0
H1566 H 0.38833 0.41751 0.0751 0.0
H1567 H 0.44478 0.40594 0.14881 0.0
H1568 H 0.39423 0.38066 0.06636 0.0
H1569 H 0.42995 0.43572 0.16454 0.0
H1570 H 0.42786 0.39745 0.11714 0.0
H1571 H 0.40515 0.42529 0.10642 0.0
C1572 C 0.39315 0.41102 0.07977 0.0
C1573 C 0.38984 0.39839 0.06803 0.0
C1574 C 0.42837 0.40586 0.12755 0.0
C1575 C 0.40928 0.40735 0.10404 0.0
C1576 C 0.438 0.4107 0.14566 0.0
C1577 C 0.43891 0.42165 0.15938 0.0
C1578 C 0.41964 0.41205 0.12306 0.0
C1579 C 0.42994 0.42751 0.15426 0.0
C1580 C 0.40276 0.41547 0.09773 0.0
C1581 C 0.39643 0.39043 0.07498 0.0
N1582 N 0.42074 0.42266 0.13656 0.0
N1583 N 0.4059 0.39509 0.0925 0.0
H1584 H 0.62412 0.7124 0.42219 0.0
H1585 H 0.68068 0.77568 0.50247 0.0
H1586 H 0.67173 0.73458 0.41388 0.0
H1587 H 0.63727 0.74049 0.52247 0.0
H1588 H 0.67723 0.76276 0.46815 0.0
H1589 H 0.62828 0.72469 0.45722 0.0
C1590 C 0.63546 0.71985 0.42776 0.0
C1591 C 0.6476 0.72248 0.4151 0.0
C1592 C 0.6685 0.75791 0.48013 0.0
C1593 C 0.65242 0.73671 0.45509 0.0
C1594 C 0.67046 0.76524 0.49979 0.0
C1595 C 0.65924 0.75924 0.51555 0.0
C1596 C 0.65515 0.7446 0.47599 0.0
C1597 C 0.64612 0.74577 0.51077 0.0
C1598 C 0.63782 0.72682 0.44779 0.0
C1599 C 0.66206 0.73219 0.42318 0.0
N1600 N 0.64442 0.73897 0.49142 0.0
N1601 N 0.66408 0.73908 0.44261 0.0
H1602 H 0.28603 0.95235 0.41789 0.0
H1603 H 0.25486 0.88082 0.49347 0.0
H1604 H 0.2832 0.91198 0.39899 0.0
H1605 H 0.25982 0.92151 0.5157 0.0
H1606 H 0.26494 0.89227 0.45845 0.0
H1607 H 0.27608 0.94144 0.4536 0.0
C1608 C 0.28334 0.94123 0.42123 0.0
C1609 C 0.28546 0.93309 0.40539 0.0
C1610 C 0.26385 0.89873 0.47097 0.0
C1611 C 0.27408 0.92057 0.44607 0.0
C1612 C 0.25815 0.8922 0.49104 0.0
C1613 C 0.25652 0.90021 0.50761 0.0
C1614 C 0.26796 0.9134 0.46731 0.0
C1615 C 0.26072 0.91486 0.50332 0.0
C1616 C 0.27767 0.93502 0.44159 0.0
C1617 C 0.28178 0.91872 0.41062 0.0
N1618 N 0.26626 0.92099 0.48359 0.0
N1619 N 0.27627 0.91295 0.43043 0.0
H1620 H 0.08046 0.32005 0.38811 0.0
H1621 H 0.08139 0.32425 0.51506 0.0
H1622 H 0.0583 0.33909 0.4204 0.0
H1623 H 0.11939 0.32967 0.48079 0.0
H1624 H 0.07161 0.32823 0.48082 0.0
H1625 H 0.09403 0.32211 0.42193 0.0
C1626 C 0.07859 0.32482 0.4023 0.0
C1627 C 0.06823 0.32937 0.40155 0.0
C1628 C 0.08218 0.32875 0.48086 0.0
C1629 C 0.08344 0.33144 0.44032 0.0
C1630 C 0.0877 0.32641 0.5003 0.0
C1631 C 0.10115 0.3266 0.50057 0.0
C1632 C 0.08999 0.3309 0.46154 0.0
C1633 C 0.10898 0.32947 0.48114 0.0
C1634 C 0.08637 0.32603 0.42153 0.0
C1635 C 0.06624 0.3355 0.42034 0.0
N1636 N 0.10316 0.33127 0.46228 0.0
N1637 N 0.07358 0.33611 0.43914 0.0
H1638 H 0.05012 0.30887 0.27525 0.0
H1639 H 0.11397 0.37252 0.20464 0.0
H1640 H 0.07069 0.3546 0.29298 0.0
H1641 H 0.08165 0.32986 0.17835 0.0
H1642 H 0.09958 0.36614 0.23807 0.0
H1643 H 0.06298 0.31623 0.24061 0.0
C1644 C 0.05731 0.32048 0.27181 0.0
C1645 C 0.05938 0.33115 0.28704 0.0
C1646 C 0.09564 0.35824 0.22491 0.0
C1647 C 0.07426 0.33964 0.24745 0.0
C1648 C 0.10382 0.36187 0.20577 0.0
C1649 C 0.09911 0.35168 0.18861 0.0
C1650 C 0.08277 0.34427 0.22701 0.0
C1651 C 0.08595 0.33796 0.19125 0.0
C1652 C 0.06462 0.32467 0.252 0.0
C1653 C 0.06877 0.34603 0.28165 0.0
N1654 N 0.07832 0.33463 0.21011 0.0
N1655 N 0.07601 0.34986 0.26235 0.0
H1656 H 0.67568 0.7328 0.29682 0.0
H1657 H 0.65003 0.77062 0.20727 0.0
H1658 H 0.63398 0.73161 0.29811 0.0
H1659 H 0.69078 0.77023 0.20314 0.0
H1660 H 0.64495 0.75782 0.24207 0.0
H1661 H 0.68238 0.74796 0.26393 0.0
C1662 C 0.66796 0.73576 0.29027 0.0
C1663 C 0.65421 0.73085 0.30022 0.0
C1664 C 0.65505 0.76059 0.23363 0.0
C1665 C 0.66181 0.74819 0.26261 0.0
C1666 C 0.65792 0.76786 0.2137 0.0
C1667 C 0.6708 0.77142 0.20217 0.0
C1668 C 0.66508 0.75677 0.24214 0.0
C1669 C 0.68077 0.7678 0.21153 0.0
C1670 C 0.67179 0.74441 0.27148 0.0
C1671 C 0.64467 0.73506 0.29098 0.0
N1672 N 0.67766 0.76059 0.23089 0.0
N1673 N 0.64863 0.74343 0.27272 0.0
H1674 H 0.28254 0.96532 0.28364 0.0
H1675 H 0.20995 0.90575 0.21757 0.0
H1676 H 0.25709 0.91948 0.30144 0.0
H1677 H 0.24775 0.94169 0.1858 0.0
H1678 H 0.22363 0.91377 0.25251 0.0
H1679 H 0.26616 0.95976 0.25145 0.0
C1680 C 0.27335 0.95417 0.28097 0.0
C1681 C 0.27119 0.9428 0.29502 0.0
C1682 C 0.22883 0.91998 0.2379 0.0
C1683 C 0.25247 0.93647 0.25874 0.0
C1684 C 0.22105 0.91544 0.21809 0.0
C1685 C 0.22785 0.92306 0.19898 0.0
C1686 C 0.24337 0.93235 0.23852 0.0
C1687 C 0.24224 0.93553 0.2003 0.0
C1688 C 0.26411 0.95101 0.26262 0.0
C1689 C 0.2592 0.92852 0.29084 0.0
N1690 N 0.24957 0.93982 0.21979 0.0
N1691 N 0.25027 0.92575 0.27308 0.0
H1692 H 0.66807 0.94415 0.2776 0.0
H1693 H 0.67629 0.88766 0.20351 0.0
H1694 H 0.69312 0.92425 0.29788 0.0
H1695 H 0.6723 0.92278 0.17569 0.0
H1696 H 0.67732 0.89745 0.23992 0.0
H1697 H 0.6646 0.93299 0.24144 0.0
C1698 C 0.67276 0.93738 0.27448 0.0
C1699 C 0.68098 0.93519 0.29069 0.0
C1700 C 0.67614 0.90295 0.22583 0.0
C1701 C 0.67684 0.92227 0.24972 0.0
C1702 C 0.67547 0.89734 0.20513 0.0
C1703 C 0.67428 0.90448 0.18666 0.0
C1704 C 0.67535 0.91564 0.22807 0.0
C1705 C 0.67335 0.91704 0.18957 0.0
C1706 C 0.67082 0.93108 0.25389 0.0
C1707 C 0.68683 0.92634 0.2858 0.0
N1708 N 0.67386 0.92222 0.20992 0.0
N1709 N 0.68458 0.92014 0.26581 0.0
H1710 H 0.05145 0.72709 0.28064 0.0
H1711 H 0.08647 0.79867 0.2047 0.0
H1712 H 0.05299 0.76724 0.29691 0.0
H1713 H 0.08133 0.75756 0.18431 0.0
H1714 H 0.07499 0.78737 0.23921 0.0
H1715 H 0.06319 0.7381 0.24583 0.0
C1716 C 0.05424 0.73819 0.27692 0.0
C1717 C 0.05121 0.74624 0.29174 0.0
C1718 C 0.07636 0.7808 0.22721 0.0
C1719 C 0.06466 0.75889 0.25205 0.0
C1720 C 0.08286 0.78724 0.20742 0.0
C1721 C 0.08483 0.77906 0.19149 0.0
C1722 C 0.07178 0.76604 0.23122 0.0
C1723 C 0.08019 0.76435 0.19618 0.0
C1724 C 0.06094 0.74446 0.25705 0.0
C1725 C 0.05508 0.76059 0.28604 0.0
N1726 N 0.07386 0.7583 0.2156 0.0
N1727 N 0.0616 0.76643 0.26671 0.0
H1728 H 0.26552 0.32042 0.28486 0.0
H1729 H 0.21677 0.30465 0.19572 0.0
H1730 H 0.26715 0.36173 0.28738 0.0
H1731 H 0.23084 0.35056 0.19902 0.0
H1732 H 0.23075 0.30742 0.22921 0.0
H1733 H 0.2491 0.31352 0.25294 0.0
C1734 C 0.2623 0.32797 0.27883 0.0
C1735 C 0.26777 0.34169 0.28885 0.0
C1736 C 0.23097 0.31696 0.2226 0.0
C1737 C 0.24868 0.3338 0.25239 0.0
C1738 C 0.22277 0.31532 0.20355 0.0
C1739 C 0.22271 0.32742 0.1944 0.0
C1740 C 0.23924 0.33086 0.23257 0.0
C1741 C 0.23077 0.34098 0.20521 0.0
C1742 C 0.2528 0.32399 0.26059 0.0
C1743 C 0.26329 0.35106 0.28023 0.0
N1744 N 0.23869 0.34231 0.22363 0.0
N1745 N 0.25409 0.34696 0.26254 0.0
H1746 H 0.28938 0.37508 0.40831 0.0
H1747 H 0.23287 0.31974 0.49608 0.0
H1748 H 0.27006 0.32812 0.40402 0.0
H1749 H 0.26509 0.36532 0.51048 0.0
H1750 H 0.24433 0.32275 0.46069 0.0
H1751 H 0.27847 0.37186 0.4442 0.0
C1752 C 0.28285 0.36408 0.41493 0.0
C1753 C 0.28062 0.35184 0.40314 0.0
C1754 C 0.24888 0.33206 0.47165 0.0
C1755 C 0.26799 0.3481 0.44415 0.0
C1756 C 0.24239 0.33036 0.49193 0.0
C1757 C 0.24802 0.34228 0.50647 0.0
C1758 C 0.26096 0.34583 0.46565 0.0
C1759 C 0.26017 0.35586 0.49979 0.0
C1760 C 0.27667 0.36227 0.43544 0.0
C1761 C 0.2721 0.33786 0.41258 0.0
N1762 N 0.26619 0.35727 0.47987 0.0
N1763 N 0.26599 0.33635 0.43249 0.0
H1764 H 0.66067 0.94016 0.41928 0.0
H1765 H 0.65232 0.87322 0.49054 0.0
H1766 H 0.67463 0.91101 0.39664 0.0
H1767 H 0.66312 0.91452 0.51909 0.0
H1768 H 0.65339 0.88355 0.45421 0.0
H1769 H 0.65418 0.92716 0.45441 0.0
C1770 C 0.66203 0.93082 0.42155 0.0
C1771 C 0.66825 0.92666 0.40518 0.0
C1772 C 0.65538 0.89028 0.46848 0.0
C1773 C 0.6608 0.9118 0.44493 0.0
C1774 C 0.65476 0.8844 0.48911 0.0
C1775 C 0.65779 0.89312 0.50768 0.0
C1776 C 0.65873 0.90483 0.46652 0.0
C1777 C 0.66089 0.90754 0.50507 0.0
C1778 C 0.65845 0.92351 0.44158 0.0
C1779 C 0.66996 0.9146 0.40896 0.0
N1780 N 0.66126 0.91297 0.48484 0.0
N1781 N 0.66626 0.90758 0.42845 0.0
H1782 H 0.06592 0.72215 0.39973 0.0
H1783 H 0.10009 0.77577 0.50282 0.0
H1784 H 0.05711 0.75639 0.41527 0.0
H1785 H 0.11504 0.74654 0.48429 0.0
H1786 H 0.08359 0.76781 0.4712 0.0
H1787 H 0.08306 0.72973 0.43126 0.0
C1788 C 0.06754 0.73121 0.40976 0.0
C1789 C 0.06007 0.73865 0.40479 0.0
C1790 C 0.09051 0.76315 0.47392 0.0
C1791 C 0.0796 0.74733 0.44074 0.0
C1792 C 0.10008 0.76781 0.49194 0.0
C1793 C 0.10915 0.76196 0.49619 0.0
C1794 C 0.08983 0.75245 0.45995 0.0
C1795 C 0.10821 0.75131 0.48176 0.0
C1796 C 0.07735 0.73555 0.42769 0.0
C1797 C 0.06262 0.75032 0.41834 0.0
N1798 N 0.09871 0.74688 0.46427 0.0
N1799 N 0.07212 0.75426 0.43562 0.0
H1800 H 0.30445 0.0598 0.75471 0.0
H1801 H 0.37247 0.12308 0.82285 0.0
H1802 H 0.35039 0.07609 0.73917 0.0
H1803 H 0.32904 0.09478 0.8506 0.0
H1804 H 0.36406 0.108 0.79001 0.0
H1805 H 0.31277 0.07462 0.78798 0.0
C1806 C 0.31628 0.06648 0.7583 0.0
C1807 C 0.32675 0.06669 0.74414 0.0
C1808 C 0.3564 0.10511 0.80333 0.0
C1809 C 0.33631 0.08378 0.78202 0.0
C1810 C 0.3612 0.11367 0.82217 0.0
C1811 C 0.35151 0.11021 0.83973 0.0
C1812 C 0.34173 0.09309 0.8018 0.0
C1813 C 0.33689 0.09807 0.83748 0.0
C1814 C 0.321 0.07489 0.7773 0.0
C1815 C 0.34194 0.07554 0.74965 0.0
N1816 N 0.33244 0.08998 0.81886 0.0
N1817 N 0.34627 0.08381 0.76808 0.0
H1818 H 0.93632 0.28825 0.74005 0.0
H1819 H 0.91943 0.24161 0.84932 0.0
H1820 H 0.9529 0.25937 0.753 0.0
H1821 H 0.88831 0.25249 0.82148 0.0
H1822 H 0.93528 0.25261 0.81778 0.0
H1823 H 0.92228 0.27998 0.7741 0.0
C1824 C 0.93718 0.28035 0.75021 0.0
C1825 C 0.94569 0.2744 0.7437 0.0
C1826 C 0.92499 0.25261 0.81867 0.0
C1827 C 0.92985 0.26505 0.78244 0.0
C1828 C 0.91583 0.24621 0.83658 0.0
C1829 C 0.90233 0.2459 0.83806 0.0
C1830 C 0.92079 0.25898 0.80221 0.0
C1831 C 0.89863 0.25254 0.82126 0.0
C1832 C 0.92911 0.27558 0.76949 0.0
C1833 C 0.94636 0.26413 0.75735 0.0
N1834 N 0.90781 0.25881 0.80403 0.0
N1835 N 0.93856 0.2598 0.77609 0.0
H1836 H 0.73684 0.64474 0.74774 0.0
H1837 H 0.79389 0.71067 0.82541 0.0
H1838 H 0.74423 0.68846 0.74119 0.0
H1839 H 0.77631 0.66463 0.83856 0.0
H1840 H 0.77801 0.70372 0.79262 0.0
H1841 H 0.75377 0.65293 0.77876 0.0
C1842 C 0.74204 0.65612 0.75278 0.0
C1843 C 0.73901 0.66591 0.74181 0.0
C1844 C 0.77773 0.69519 0.8027 0.0
C1845 C 0.75859 0.6754 0.77769 0.0
C1846 C 0.78675 0.69912 0.82145 0.0
C1847 C 0.78656 0.68824 0.83482 0.0
C1848 C 0.76853 0.68028 0.79721 0.0
C1849 C 0.77717 0.67347 0.82864 0.0
C1850 C 0.75173 0.66078 0.77061 0.0
C1851 C 0.74619 0.68052 0.74921 0.0
N1852 N 0.76859 0.66997 0.81036 0.0
N1853 N 0.75567 0.68485 0.76674 0.0
H1854 H 0.71744 0.62823 0.6284 0.0
H1855 H 0.75684 0.67574 0.52231 0.0
H1856 H 0.72919 0.67338 0.62116 0.0
H1857 H 0.73879 0.62903 0.52748 0.0
H1858 H 0.74767 0.67556 0.55876 0.0
H1859 H 0.726 0.62878 0.59175 0.0
C1860 C 0.72183 0.63829 0.6191 0.0
C1861 C 0.72263 0.6508 0.62794 0.0
C1862 C 0.74568 0.66535 0.55187 0.0
C1863 C 0.73251 0.65149 0.58572 0.0
C1864 C 0.75099 0.66546 0.53115 0.0
C1865 C 0.74859 0.65237 0.52187 0.0
C1866 C 0.73802 0.65209 0.56346 0.0
C1867 C 0.74076 0.63934 0.5339 0.0
C1868 C 0.72669 0.63858 0.59809 0.0
C1869 C 0.72837 0.66348 0.615 0.0
N1870 N 0.73581 0.63954 0.55408 0.0
N1871 N 0.73315 0.66353 0.59454 0.0
H1872 H 0.34752 0.07512 0.62753 0.0
H1873 H 0.31036 0.0917 0.52581 0.0
H1874 H 0.30117 0.06216 0.62408 0.0
H1875 H 0.35794 0.11597 0.53766 0.0
H1876 H 0.30688 0.07929 0.56053 0.0
H1877 H 0.35167 0.08856 0.59321 0.0
C1878 C 0.33823 0.07509 0.61958 0.0
C1879 C 0.32397 0.06749 0.62872 0.0
C1880 C 0.31809 0.08739 0.55559 0.0
C1881 C 0.32863 0.08275 0.58948 0.0
C1882 C 0.3201 0.09459 0.53578 0.0
C1883 C 0.33448 0.10505 0.52873 0.0
C1884 C 0.33053 0.09046 0.56848 0.0
C1885 C 0.34665 0.1079 0.54223 0.0
C1886 C 0.34062 0.0828 0.60005 0.0
C1887 C 0.31235 0.06787 0.61772 0.0
N1888 N 0.34441 0.10062 0.56142 0.0
N1889 N 0.31493 0.0753 0.59867 0.0
H1890 H 0.9218 0.25186 0.63873 0.0
H1891 H 0.91607 0.27143 0.51721 0.0
H1892 H 0.94788 0.29663 0.61604 0.0
H1893 H 0.87841 0.23589 0.54988 0.0
H1894 H 0.92856 0.28078 0.55259 0.0
H1895 H 0.90631 0.24539 0.60579 0.0
C1896 C 0.9242 0.26035 0.62684 0.0
C1897 C 0.9362 0.27478 0.63001 0.0
C1898 C 0.91746 0.27109 0.55204 0.0
C1899 C 0.91863 0.2674 0.59218 0.0
C1900 C 0.91037 0.26575 0.53192 0.0
C1901 C 0.89624 0.25289 0.53076 0.0
C1902 C 0.91051 0.26328 0.57103 0.0
C1903 C 0.88929 0.24588 0.55018 0.0
C1904 C 0.9153 0.25667 0.60812 0.0
C1905 C 0.93874 0.28538 0.61418 0.0
N1906 N 0.8966 0.25102 0.56954 0.0
N1907 N 0.93017 0.28142 0.59572 0.0
H1908 H 0.3622 0.25995 0.6282 0.0
H1909 H 0.33649 0.26001 0.50692 0.0
H1910 H 0.3381 0.28137 0.61094 0.0
H1911 H 0.33975 0.22411 0.53319 0.0
H1912 H 0.33892 0.2696 0.54393 0.0
H1913 H 0.35616 0.24829 0.5924 0.0
C1914 C 0.35562 0.26219 0.61686 0.0
C1915 C 0.35069 0.27169 0.6225 0.0
C1916 C 0.33893 0.25954 0.54158 0.0
C1917 C 0.34387 0.25848 0.58144 0.0
C1918 C 0.33761 0.25411 0.52053 0.0
C1919 C 0.33794 0.24128 0.5171 0.0
C1920 C 0.34095 0.25226 0.5592 0.0
C1921 C 0.33936 0.23399 0.53521 0.0
C1922 C 0.35211 0.25546 0.5965 0.0
C1923 C 0.34209 0.2741 0.60723 0.0
N1924 N 0.34102 0.23969 0.55548 0.0
N1925 N 0.33911 0.26767 0.58724 0.0
H1926 H 0.716 0.0806 0.61196 0.0
H1927 H 0.78136 0.08446 0.54346 0.0
H1928 H 0.73201 0.05116 0.62405 0.0
H1929 H 0.75354 0.10053 0.51944 0.0
H1930 H 0.76462 0.07326 0.57427 0.0
H1931 H 0.73089 0.08923 0.5791 0.0
C1932 C 0.72258 0.07587 0.6076 0.0
C1933 C 0.72279 0.06517 0.62077 0.0
C1934 C 0.7622 0.07921 0.56217 0.0
C1935 C 0.74005 0.07516 0.58331 0.0
C1936 C 0.77172 0.08559 0.54454 0.0
C1937 C 0.76899 0.09361 0.52885 0.0
C1938 C 0.74994 0.08098 0.56425 0.0
C1939 C 0.75639 0.09481 0.53135 0.0
C1940 C 0.73106 0.08079 0.58882 0.0
C1941 C 0.73149 0.05939 0.61429 0.0
N1942 N 0.74741 0.08866 0.54875 0.0
N1943 N 0.73993 0.06459 0.59612 0.0
H1944 H 0.93152 0.65438 0.62601 0.0
H1945 H 0.90197 0.67991 0.52413 0.0
H1946 H 0.94375 0.69919 0.61306 0.0
H1947 H 0.88233 0.63422 0.54183 0.0
H1948 H 0.91827 0.68684 0.55591 0.0
H1949 H 0.91452 0.64642 0.59424 0.0
C1950 C 0.93068 0.66253 0.61649 0.0
C1951 C 0.93907 0.67747 0.62226 0.0
C1952 C 0.91036 0.67529 0.55296 0.0
C1953 C 0.91974 0.66848 0.58604 0.0
C1954 C 0.90091 0.6713 0.53484 0.0
C1955 C 0.89059 0.65644 0.5303 0.0
C1956 C 0.90966 0.66436 0.56673 0.0
C1957 C 0.89016 0.64582 0.54456 0.0
C1958 C 0.92095 0.65798 0.59844 0.0
C1959 C 0.9375 0.68755 0.60937 0.0
N1960 N 0.89957 0.64998 0.56212 0.0
N1961 N 0.92808 0.68287 0.59194 0.0
H1962 H 0.95706 0.67526 0.75013 0.0
H1963 H 0.9059 0.69091 0.82575 0.0
H1964 H 0.93934 0.70212 0.72973 0.0
H1965 H 0.93974 0.68362 0.85244 0.0
H1966 H 0.91459 0.69066 0.78908 0.0
H1967 H 0.94729 0.67384 0.78671 0.0
C1968 C 0.95103 0.68075 0.7533 0.0
C1969 C 0.94906 0.68888 0.73694 0.0
C1970 C 0.92009 0.6891 0.80297 0.0
C1971 C 0.93779 0.68716 0.77843 0.0
C1972 C 0.91511 0.68919 0.82383 0.0
C1973 C 0.92218 0.68736 0.84205 0.0
C1974 C 0.93204 0.6869 0.80033 0.0
C1975 C 0.93411 0.68522 0.83876 0.0
C1976 C 0.94554 0.68 0.77415 0.0
C1977 C 0.94121 0.69583 0.74192 0.0
N1978 N 0.93864 0.68497 0.81825 0.0
N1979 N 0.9358 0.69476 0.76219 0.0
H1980 H 0.35489 0.25326 0.72971 0.0
H1981 H 0.3373 0.25414 0.85298 0.0
H1982 H 0.33548 0.278 0.75135 0.0
H1983 H 0.33295 0.21549 0.82345 0.0
H1984 H 0.3384 0.26431 0.81659 0.0
H1985 H 0.34863 0.24025 0.76453 0.0
C1986 C 0.34918 0.25585 0.74176 0.0
C1987 C 0.34573 0.26674 0.73773 0.0
C1988 C 0.33703 0.25354 0.8181 0.0
C1989 C 0.33882 0.25212 0.77768 0.0
C1990 C 0.3365 0.24779 0.83879 0.0
C1991 C 0.3351 0.23401 0.84109 0.0
C1992 C 0.33653 0.2456 0.79967 0.0
C1993 C 0.33401 0.22614 0.82228 0.0
C1994 C 0.34557 0.24839 0.76156 0.0
C1995 C 0.33828 0.26964 0.75383 0.0
N1996 N 0.33498 0.23215 0.80231 0.0
N1997 N 0.3353 0.26254 0.77331 0.0
H1998 H 0.72576 0.04403 0.74375 0.0
H1999 H 0.78808 0.11317 0.81206 0.0
H2000 H 0.74067 0.08926 0.72867 0.0
H2001 H 0.76415 0.06915 0.83831 0.0
H2002 H 0.77388 0.10386 0.77814 0.0
H2003 H 0.74272 0.05245 0.77551 0.0
C2004 C 0.73265 0.05571 0.74703 0.0
C2005 C 0.73171 0.06595 0.73365 0.0
C2006 C 0.7718 0.09622 0.79128 0.0
C2007 C 0.75116 0.07561 0.76966 0.0
C2008 C 0.77988 0.10153 0.81069 0.0
C2009 C 0.77718 0.09198 0.82823 0.0
C2010 C 0.76095 0.08122 0.78926 0.0
C2011 C 0.76667 0.07693 0.82523 0.0
C2012 C 0.74228 0.06049 0.76515 0.0
C2013 C 0.74089 0.08095 0.73865 0.0
N2014 N 0.75885 0.07202 0.80617 0.0
N2015 N 0.75022 0.08531 0.7562 0.0
H2016 H 0.04386 0.39213 0.99549 0.0
H2017 H 0.06903 0.35076 0.07913 0.0
H2018 H 0.01675 0.36442 0.04798 0.0
H2019 H 0.0977 0.38008 0.02911 0.0
H2020 H 0.04906 0.35405 0.06562 0.0
H2021 H 0.06306 0.38657 0.00562 0.0
C2022 C 0.04191 0.38484 0.0091 0.0
C2023 C 0.02868 0.37879 0.02097 0.0
C2024 C 0.05967 0.3597 0.05747 0.0
C2025 C 0.05061 0.37237 0.03261 0.0
C2026 C 0.07108 0.3577 0.06504 0.0
C2027 C 0.08513 0.36513 0.05524 0.0
C2028 C 0.06225 0.36924 0.03996 0.0
C2029 C 0.08713 0.37426 0.03735 0.0
C2030 C 0.05288 0.38167 0.01486 0.0
C2031 C 0.02678 0.3694 0.0384 0.0
N2032 N 0.07585 0.3761 0.03034 0.0
N2033 N 0.03762 0.36652 0.0437 0.0
H2034 H 0.63642 0.67823 0.99683 0.0
H2035 H 0.67695 0.73693 0.09273 0.0
H2036 H 0.65407 0.67007 0.05556 0.0
H2037 H 0.65294 0.74303 0.0402 0.0
H2038 H 0.66959 0.71286 0.07806 0.0
H2039 H 0.64308 0.70231 0.0113 0.0
C2040 C 0.64166 0.68147 0.01277 0.0
C2041 C 0.6447 0.6721 0.02498 0.0
C2042 C 0.66591 0.71943 0.06969 0.0
C2043 C 0.65242 0.69967 0.04156 0.0
C2044 C 0.67022 0.73325 0.07797 0.0
C2045 C 0.66568 0.74209 0.06757 0.0
C2046 C 0.65701 0.71433 0.05075 0.0
C2047 C 0.65666 0.73657 0.04877 0.0
C2048 C 0.64544 0.69522 0.02102 0.0
C2049 C 0.6515 0.6769 0.04555 0.0
N2050 N 0.65268 0.72306 0.04089 0.0
N2051 N 0.65517 0.69034 0.05312 0.0
H2052 H 0.32387 0.93942 0.03319 0.0
H2053 H 0.25429 0.9495 0.04946 0.0
H2054 H 0.32691 0.98114 0.02399 0.0
H2055 H 0.2563 0.91199 0.0718 0.0
H2056 H 0.27973 0.96049 0.0359 0.0
H2057 H 0.29785 0.92839 0.04283 0.0
C2058 C 0.31907 0.94628 0.03313 0.0
C2059 C 0.32766 0.96128 0.02789 0.0
C2060 C 0.27451 0.94981 0.04365 0.0
C2061 C 0.29769 0.94862 0.039 0.0
C2062 C 0.26 0.94353 0.05146 0.0
C2063 C 0.25303 0.92974 0.06179 0.0
C2064 C 0.28207 0.94222 0.04609 0.0
C2065 C 0.26098 0.92248 0.0636 0.0
C2066 C 0.30417 0.93995 0.03868 0.0
C2067 C 0.32073 0.96956 0.02802 0.0
N2068 N 0.27502 0.9288 0.05588 0.0
N2069 N 0.30613 0.96312 0.03355 0.0
H2070 H 0.39131 0.05326 0.03839 0.0
H2071 H 0.35441 0.08129 0.95051 0.0
H2072 H 0.36456 0.02774 0.98329 0.0
H2073 H 0.38669 0.10996 0.9987 0.0
H2074 H 0.3562 0.06091 0.965 0.0
H2075 H 0.3883 0.0736 0.02634 0.0
C2076 C 0.38481 0.05191 0.02379 0.0
C2077 C 0.37823 0.03876 0.01181 0.0
C2078 C 0.36285 0.07163 0.97252 0.0
C2079 C 0.37466 0.06194 0.99805 0.0
C2080 C 0.36172 0.08328 0.96438 0.0
C2081 C 0.37038 0.09741 0.97343 0.0
C2082 C 0.37271 0.07403 0.98989 0.0
C2083 C 0.3799 0.0993 0.99109 0.0
C2084 C 0.3831 0.06353 0.01693 0.0
C2085 C 0.36991 0.03766 0.99303 0.0
N2086 N 0.38083 0.08776 0.99873 0.0
N2087 N 0.36836 0.04906 0.98678 0.0
H2088 H 0.92634 0.34044 0.0102 0.0
H2089 H 0.91624 0.26184 0.98751 0.0
H2090 H 0.96287 0.33285 0.01494 0.0
H2091 H 0.8848 0.27447 0.96756 0.0
H2092 H 0.93214 0.28631 0.00353 0.0
H2093 H 0.90961 0.31466 0.00097 0.0
C2094 C 0.93086 0.33334 0.00944 0.0
C2095 C 0.9461 0.3389 0.01313 0.0
C2096 C 0.92166 0.28359 0.99583 0.0
C2097 C 0.9269 0.30923 0.00247 0.0
C2098 C 0.91258 0.26964 0.9866 0.0
C2099 C 0.89909 0.26597 0.97604 0.0
C2100 C 0.91717 0.29391 0.99464 0.0
C2101 C 0.8949 0.27654 0.9758 0.0
C2102 C 0.92127 0.31859 0.00413 0.0
C2103 C 0.95123 0.32908 0.01207 0.0
N2104 N 0.90391 0.28998 0.98484 0.0
N2105 N 0.94165 0.31472 0.0067 0.0
H2106 H 0.68299 0.61502 0.9932 0.0
H2107 H 0.75753 0.69025 0.96463 0.0
H2108 H 0.68726 0.65737 0.00017 0.0
H2109 H 0.75514 0.6487 0.97165 0.0
H2110 H 0.73202 0.67871 0.97773 0.0
H2111 H 0.70938 0.62733 0.98471 0.0
C2112 C 0.68947 0.62693 0.99295 0.0
C2113 C 0.68285 0.63517 0.99732 0.0
C2114 C 0.73713 0.67216 0.97657 0.0
C2115 C 0.7132 0.64938 0.98755 0.0
C2116 C 0.75176 0.67876 0.96923 0.0
C2117 C 0.75852 0.67043 0.96687 0.0
C2118 C 0.72914 0.65708 0.98144 0.0
C2119 C 0.75033 0.65551 0.97278 0.0
C2120 C 0.70459 0.63396 0.98819 0.0
C2121 C 0.69189 0.65058 0.99689 0.0
N2122 N 0.73606 0.64931 0.97961 0.0
N2123 N 0.70658 0.65719 0.99194 0.0
H2124 H 0.99063 0.65687 0.01763 0.0
H2125 H 0.90948 0.63592 0.97475 0.0
H2126 H 0.95782 0.61354 0.99419 0.0
H2127 H 0.94671 0.68036 0.98319 0.0
H2128 H 0.92541 0.62676 0.9874 0.0
H2129 H 0.97285 0.66472 0.01119 0.0
C2130 C 0.97964 0.64895 0.01131 0.0
C2131 C 0.97579 0.63454 0.00625 0.0
C2132 C 0.93 0.63851 0.98666 0.0
C2133 C 0.95532 0.64353 0.99875 0.0
C2134 C 0.92093 0.64378 0.97936 0.0
C2135 C 0.92669 0.65899 0.97778 0.0
C2136 C 0.94491 0.64851 0.99258 0.0
C2137 C 0.94158 0.66856 0.98441 0.0
C2138 C 0.96949 0.65347 0.00757 0.0
C2139 C 0.96132 0.62478 0.99819 0.0
N2140 N 0.95014 0.66317 0.9914 0.0
N2141 N 0.95164 0.62947 0.99456 0.0
H2142 H 0.34224 0.32692 0.99157 0.0
H2143 H 0.3626 0.26424 0.00097 0.0
H2144 H 0.37965 0.33214 0.02953 0.0
H2145 H 0.32793 0.26171 0.95909 0.0
H2146 H 0.36792 0.28821 0.01405 0.0
H2147 H 0.33573 0.3021 0.98206 0.0
C2148 C 0.34909 0.32285 0.99798 0.0
C2149 C 0.36158 0.3317 0.0113 0.0
C2150 C 0.35908 0.28233 0.00212 0.0
C2151 C 0.35413 0.30313 0.00039 0.0
C2152 C 0.35605 0.26866 0.99459 0.0
C2153 C 0.34478 0.26087 0.97887 0.0
C2154 C 0.35078 0.28829 0.99387 0.0
C2155 C 0.33655 0.26711 0.97145 0.0
C2156 C 0.34535 0.30863 0.99252 0.0
C2157 C 0.36996 0.32574 0.01915 0.0
N2158 N 0.33976 0.28043 0.97893 0.0
N2159 N 0.36611 0.31184 0.01352 0.0
H2160 H 0.67474 0.01685 0.99555 0.0
H2161 H 0.74515 0.09719 0.97526 0.0
H2162 H 0.67651 0.05732 0.01022 0.0
H2163 H 0.74583 0.05773 0.96322 0.0
H2164 H 0.7208 0.08243 0.99194 0.0
H2165 H 0.70141 0.03116 0.98719 0.0
C2166 C 0.68075 0.0287 0.99725 0.0
C2167 C 0.67332 0.0359 0.00332 0.0
C2168 C 0.72629 0.07694 0.98589 0.0
C2169 C 0.70374 0.05229 0.9938 0.0
C2170 C 0.74019 0.08539 0.97638 0.0
C2171 C 0.74739 0.07863 0.96772 0.0
C2172 C 0.71939 0.06156 0.9865 0.0
C2173 C 0.74059 0.06333 0.96975 0.0
C2174 C 0.69596 0.03686 0.99247 0.0
C2175 C 0.68168 0.05128 0.00532 0.0
N2176 N 0.72684 0.05525 0.97867 0.0
N2177 N 0.69637 0.05892 0.00042 0.0
H2178 H 0.64905 0.96485 0.98031 0.0
H2179 H 0.63685 0.90882 0.07602 0.0
H2180 H 0.62065 0.95668 0.03522 0.0
H2181 H 0.66092 0.91259 0.01763 0.0
H2182 H 0.62938 0.92499 0.05992 0.0
H2183 H 0.65232 0.94473 0.99235 0.0
C2184 C 0.64339 0.95875 0.99478 0.0
C2185 C 0.63466 0.96257 0.00686 0.0
C2186 C 0.63617 0.92217 0.0505 0.0
C2187 C 0.63843 0.93956 0.02081 0.0
C2188 C 0.64036 0.9128 0.05963 0.0
C2189 C 0.64961 0.90931 0.04825 0.0
C2190 C 0.64136 0.9283 0.02987 0.0
C2191 C 0.654 0.91515 0.02722 0.0
C2192 C 0.64526 0.94726 0.00164 0.0
C2193 C 0.62756 0.95422 0.02543 0.0
N2194 N 0.64996 0.92445 0.0188 0.0
N2195 N 0.6297 0.94322 0.03192 0.0
H2196 H 0.07863 0.68201 0.02647 0.0
H2197 H 0.0786 0.75696 0.03044 0.0
H2198 H 0.04046 0.68498 0.00803 0.0
H2199 H 0.10637 0.7481 0.07252 0.0
H2200 H 0.06787 0.73243 0.0147 0.0
H2201 H 0.09225 0.70819 0.03583 0.0
C2202 C 0.07318 0.6882 0.0241 0.0
C2203 C 0.05833 0.68127 0.01662 0.0
C2204 C 0.07642 0.73596 0.02724 0.0
C2205 C 0.07389 0.7112 0.02717 0.0
C2206 C 0.08252 0.74994 0.03634 0.0
C2207 C 0.09328 0.75463 0.05316 0.0
C2208 C 0.08124 0.72663 0.03474 0.0
C2209 C 0.09821 0.74512 0.05955 0.0
C2210 C 0.08094 0.70311 0.02953 0.0
C2211 C 0.05183 0.68984 0.01392 0.0
N2212 N 0.09209 0.73156 0.05043 0.0
N2213 N 0.05964 0.70436 0.01923 0.0
H2214 H 0.31694 0.38805 0.01801 0.0
H2215 H 0.24147 0.31441 0.05081 0.0
H2216 H 0.31331 0.34585 0.02325 0.0
H2217 H 0.2484 0.35806 0.05367 0.0
H2218 H 0.26648 0.3249 0.03593 0.0
H2219 H 0.29056 0.37634 0.02597 0.0
C2220 C 0.31058 0.37629 0.02072 0.0
C2221 C 0.31743 0.36795 0.02018 0.0
C2222 C 0.26242 0.33213 0.03962 0.0
C2223 C 0.28707 0.35443 0.02943 0.0
C2224 C 0.24816 0.32616 0.04819 0.0
C2225 C 0.24277 0.33534 0.05368 0.0
C2226 C 0.27136 0.34738 0.03646 0.0
C2227 C 0.2519 0.35047 0.04949 0.0
C2228 C 0.29548 0.3696 0.02528 0.0
C2229 C 0.30853 0.35272 0.02364 0.0
N2230 N 0.26573 0.35599 0.0413 0.0
N2231 N 0.29381 0.34645 0.02829 0.0
H2232 H 0.68114 0.67555 0.32898 0.0
H2233 H 0.75915 0.70113 0.38782 0.0
H2234 H 0.70322 0.71416 0.36981 0.0
H2235 H 0.72548 0.65561 0.37551 0.0
H2236 H 0.74187 0.70825 0.37371 0.0
H2237 H 0.70083 0.67055 0.33792 0.0
C2238 C 0.69022 0.6831 0.33961 0.0
C2239 C 0.69046 0.69524 0.34881 0.0
C2240 C 0.73843 0.69673 0.37396 0.0
C2241 C 0.71308 0.68959 0.35896 0.0
C2242 C 0.74824 0.6926 0.38212 0.0
C2243 C 0.74388 0.67767 0.38312 0.0
C2244 C 0.72425 0.68591 0.36632 0.0
C2245 C 0.72964 0.66726 0.37483 0.0
C2246 C 0.70142 0.68019 0.34476 0.0
C2247 C 0.70253 0.70461 0.36251 0.0
N2248 N 0.72039 0.67158 0.36683 0.0
N2249 N 0.71338 0.70158 0.36721 0.0
H2250 H 0.27774 0.99876 0.35811 0.0
H2251 H 0.34192 0.07771 0.40187 0.0
H2252 H 0.32335 0.01089 0.3702 0.0
H2253 H 0.29693 0.06705 0.38818 0.0
H2254 H 0.33523 0.05341 0.38931 0.0
H2255 H 0.28438 0.02365 0.36842 0.0
C2256 C 0.28915 0.00664 0.3629 0.0
C2257 C 0.3 0.00269 0.36332 0.0
C2258 C 0.32681 0.05637 0.38892 0.0
C2259 C 0.30766 0.03121 0.37513 0.0
C2260 C 0.33066 0.07035 0.39592 0.0
C2261 C 0.32002 0.07457 0.39597 0.0
C2262 C 0.31214 0.04636 0.38195 0.0
C2263 C 0.30549 0.06429 0.38861 0.0
C2264 C 0.29293 0.02086 0.36877 0.0
C2265 C 0.3146 0.01339 0.36965 0.0
N2266 N 0.30197 0.05067 0.38194 0.0
N2267 N 0.31797 0.02711 0.37532 0.0
H2268 H 0.99133 0.27459 0.34777 0.0
H2269 H 0.92587 0.27752 0.40549 0.0
H2270 H 0.99464 0.3152 0.36641 0.0
H2271 H 0.91945 0.23872 0.37321 0.0
H2272 H 0.95068 0.29167 0.39015 0.0
H2273 H 0.96484 0.26135 0.35625 0.0
C2274 C 0.98648 0.28075 0.35354 0.0
C2275 C 0.99526 0.29603 0.35656 0.0
C2276 C 0.94379 0.2801 0.38621 0.0
C2277 C 0.96491 0.28089 0.36639 0.0
C2278 C 0.92952 0.27199 0.39484 0.0
C2279 C 0.9205 0.25682 0.39079 0.0
C2280 C 0.94921 0.27299 0.37362 0.0
C2281 C 0.92607 0.2503 0.37717 0.0
C2282 C 0.97132 0.27317 0.35831 0.0
C2283 C 0.98832 0.30342 0.36392 0.0
N2284 N 0.94012 0.25838 0.36928 0.0
N2285 N 0.97358 0.29576 0.3688 0.0
H2286 H 0.07176 0.39507 0.34352 0.0
H2287 H 0.01017 0.41374 0.30918 0.0
H2288 H 0.02442 0.36389 0.34666 0.0
H2289 H 0.05554 0.44782 0.32446 0.0
H2290 H 0.0156 0.39545 0.32219 0.0
H2291 H 0.06657 0.41464 0.33585 0.0
C2292 C 0.06029 0.39235 0.34278 0.0
C2293 C 0.04851 0.37777 0.34561 0.0
C2294 C 0.02435 0.40694 0.3229 0.0
C2295 C 0.04252 0.40007 0.33666 0.0
C2296 C 0.02123 0.41748 0.31562 0.0
C2297 C 0.03236 0.4325 0.31582 0.0
C2298 C 0.03879 0.41128 0.33018 0.0
C2299 C 0.04662 0.43642 0.32371 0.0
C2300 C 0.05735 0.40353 0.33843 0.0
C2301 C 0.03387 0.37492 0.34452 0.0
N2302 N 0.04945 0.42587 0.33044 0.0
N2303 N 0.03131 0.38592 0.33994 0.0
H2304 H 0.59707 0.65374 0.34841 0.0
H2305 H 0.60972 0.59242 0.29889 0.0
H2306 H 0.64065 0.65978 0.34009 0.0
H2307 H 0.56699 0.58292 0.32205 0.0
H2308 H 0.6212 0.61695 0.31434 0.0
H2309 H 0.58578 0.62778 0.339 0.0
C2310 C 0.60428 0.6496 0.34474 0.0
C2311 C 0.61985 0.65899 0.3449 0.0
C2312 C 0.60934 0.60946 0.31625 0.0
C2313 C 0.60695 0.62928 0.33398 0.0
C2314 C 0.60274 0.59534 0.30755 0.0
C2315 C 0.58729 0.58546 0.30911 0.0
C2316 C 0.60045 0.61391 0.32638 0.0
C2317 C 0.57888 0.59018 0.32009 0.0
C2318 C 0.59781 0.63476 0.33942 0.0
C2319 C 0.62861 0.65297 0.34012 0.0
N2320 N 0.58554 0.60409 0.32813 0.0
N2321 N 0.62204 0.63854 0.33466 0.0
H2322 H 0.35116 0.99195 0.33663 0.0
H2323 H 0.41626 0.97932 0.29897 0.0
H2324 H 0.34577 0.94943 0.32566 0.0
H2325 H 0.4223 0.02245 0.30543 0.0
H2326 H 0.39109 0.96848 0.31254 0.0
H2327 H 0.37771 0.00356 0.32836 0.0
C2328 C 0.35554 0.98505 0.33257 0.0
C2329 C 0.34618 0.96968 0.33171 0.0
C2330 C 0.39792 0.98033 0.31116 0.0
C2331 C 0.37651 0.98288 0.32233 0.0
C2332 C 0.41241 0.98656 0.3036 0.0
C2333 C 0.42148 0.00186 0.30099 0.0
C2334 C 0.39232 0.98939 0.31609 0.0
C2335 C 0.41565 0.0106 0.30687 0.0
C2336 C 0.3707 0.99169 0.32785 0.0
C2337 C 0.3525 0.96131 0.3264 0.0
N2338 N 0.40141 0.00424 0.31403 0.0
N2339 N 0.36722 0.96801 0.32188 0.0
H2340 H 0.62903 0.94648 0.32694 0.0
H2341 H 0.591 0.99499 0.32302 0.0
H2342 H 0.6471 0.98776 0.36096 0.0
H2343 H 0.57187 0.95213 0.29349 0.0
H2344 H 0.61122 0.99236 0.33818 0.0
H2345 H 0.60759 0.94813 0.31564 0.0
C2346 C 0.62848 0.95588 0.33211 0.0
C2347 C 0.63995 0.96702 0.34485 0.0
C2348 C 0.60251 0.98348 0.32854 0.0
C2349 C 0.61535 0.96903 0.33187 0.0
C2350 C 0.59099 0.98499 0.31983 0.0
C2351 C 0.57968 0.97376 0.30696 0.0
C2352 C 0.6028 0.97069 0.32422 0.0
C2353 C 0.58019 0.961 0.30356 0.0
C2354 C 0.6162 0.95681 0.32567 0.0
C2355 C 0.63855 0.97891 0.35111 0.0
N2356 N 0.59158 0.95987 0.31199 0.0
N2357 N 0.62653 0.97964 0.34445 0.0
H2358 H 0.0403 0.66981 0.37644 0.0
H2359 H 0.01776 0.61246 0.27854 0.0
H2360 H 0.02466 0.67465 0.31338 0.0
H2361 H 0.04144 0.61192 0.33623 0.0
H2362 H 0.01741 0.6335 0.29317 0.0
H2363 H 0.03842 0.64714 0.36379 0.0
C2364 C 0.03645 0.6661 0.35996 0.0
C2365 C 0.03269 0.6742 0.34593 0.0
C2366 C 0.02261 0.62874 0.30271 0.0
C2367 C 0.03042 0.6482 0.33141 0.0
C2368 C 0.02268 0.61661 0.29446 0.0
C2369 C 0.02963 0.61037 0.30617 0.0
C2370 C 0.02951 0.63473 0.32289 0.0
C2371 C 0.03608 0.61645 0.32655 0.0
C2372 C 0.03539 0.65316 0.35275 0.0
C2373 C 0.02775 0.66883 0.32475 0.0
N2374 N 0.03589 0.6283 0.33424 0.0
N2375 N 0.02675 0.65619 0.31816 0.0
H2376 H 0.34252 0.35636 0.32683 0.0
H2377 H 0.4169 0.43355 0.30268 0.0
H2378 H 0.34665 0.39869 0.33322 0.0
H2379 H 0.41287 0.39168 0.29142 0.0
H2380 H 0.392 0.42077 0.3181 0.0
H2381 H 0.36902 0.36889 0.31774 0.0
C2382 C 0.349 0.36827 0.32648 0.0
C2383 C 0.3423 0.37647 0.3306 0.0
C2384 C 0.39658 0.41435 0.31243 0.0
C2385 C 0.37258 0.39085 0.32028 0.0
C2386 C 0.4108 0.42165 0.30359 0.0
C2387 C 0.41692 0.41367 0.29556 0.0
C2388 C 0.38832 0.39891 0.31316 0.0
C2389 C 0.40861 0.39827 0.2975 0.0
C2390 C 0.36412 0.37541 0.32128 0.0
C2391 C 0.35126 0.39188 0.32997 0.0
N2392 N 0.39466 0.39138 0.30591 0.0
N2393 N 0.36588 0.39854 0.32482 0.0
H2394 H 0.28819 0.29884 0.37054 0.0
H2395 H 0.32563 0.25115 0.34824 0.0
H2396 H 0.31508 0.3049 0.31453 0.0
H2397 H 0.30248 0.24848 0.40709 0.0
H2398 H 0.31933 0.26869 0.33351 0.0
H2399 H 0.29073 0.27822 0.38193 0.0
C2400 C 0.29454 0.29578 0.36052 0.0
C2401 C 0.30153 0.30372 0.34161 0.0
C2402 C 0.31551 0.26415 0.34957 0.0
C2403 C 0.30452 0.28007 0.35465 0.0
C2404 C 0.31913 0.25415 0.35802 0.0
C2405 C 0.31467 0.24834 0.37903 0.0
C2406 C 0.30737 0.26842 0.36218 0.0
C2407 C 0.30605 0.25249 0.39075 0.0
C2408 C 0.296 0.28399 0.36707 0.0
C2409 C 0.30956 0.29917 0.32929 0.0
N2410 N 0.30279 0.26233 0.38224 0.0
N2411 N 0.31091 0.28771 0.33608 0.0
H2412 H 0.72578 0.99409 0.3901 0.0
H2413 H 0.76471 0.07677 0.36339 0.0
H2414 H 0.70377 0.00542 0.34076 0.0
H2415 H 0.75084 0.0622 0.42907 0.0
H2416 H 0.74723 0.05142 0.35043 0.0
H2417 H 0.74076 0.02003 0.40064 0.0
C2418 C 0.72421 0.00207 0.38135 0.0
C2419 C 0.71354 0.99766 0.36456 0.0
C2420 C 0.74791 0.05393 0.3676 0.0
C2421 C 0.73079 0.02723 0.37627 0.0
C2422 C 0.75781 0.06828 0.37496 0.0
C2423 C 0.75901 0.07148 0.39725 0.0
C2424 C 0.73971 0.04279 0.38281 0.0
C2425 C 0.75005 0.06014 0.41173 0.0
C2426 C 0.73268 0.0168 0.38745 0.0
C2427 C 0.71186 0.00843 0.35386 0.0
N2428 N 0.74097 0.04622 0.40431 0.0
N2429 N 0.72056 0.02284 0.35974 0.0
H2430 H 0.98491 0.68378 0.36278 0.0
H2431 H 0.91324 0.68963 0.38483 0.0
H2432 H 0.98373 0.72355 0.35611 0.0
H2433 H 0.91488 0.65076 0.39912 0.0
H2434 H 0.93799 0.70096 0.36908 0.0
H2435 H 0.95826 0.67031 0.37119 0.0
C2436 C 0.97904 0.68965 0.36287 0.0
C2437 C 0.98661 0.70485 0.35897 0.0
C2438 C 0.93291 0.6899 0.37548 0.0
C2439 C 0.95619 0.68954 0.36851 0.0
C2440 C 0.91878 0.68344 0.38451 0.0
C2441 C 0.91206 0.6693 0.39353 0.0
C2442 C 0.94046 0.68222 0.37555 0.0
C2443 C 0.91964 0.66167 0.39229 0.0
C2444 C 0.96384 0.68196 0.36771 0.0
C2445 C 0.97842 0.71188 0.35926 0.0
N2446 N 0.93351 0.66829 0.38369 0.0
N2447 N 0.96372 0.70419 0.36405 0.0
H2448 H 0.37359 0.05127 0.70621 0.0
H2449 H 0.41163 0.00454 0.68123 0.0
H2450 H 0.3611 0.0217 0.65158 0.0
H2451 H 0.41894 0.0292 0.74033 0.0
H2452 H 0.39603 0.0137 0.66718 0.0
H2453 H 0.39328 0.04641 0.71575 0.0
C2454 C 0.37508 0.04387 0.69607 0.0
C2455 C 0.36555 0.03676 0.67818 0.0
C2456 C 0.4012 0.01722 0.68312 0.0
C2457 C 0.38808 0.03108 0.68912 0.0
C2458 C 0.41008 0.01196 0.6912 0.0
C2459 C 0.41656 0.01599 0.71211 0.0
C2460 C 0.39877 0.02659 0.69601 0.0
C2461 C 0.41434 0.02588 0.72406 0.0
C2462 C 0.38631 0.04107 0.70157 0.0
C2463 C 0.36809 0.02734 0.6656 0.0
N2464 N 0.40556 0.03072 0.71593 0.0
N2465 N 0.37903 0.02469 0.67141 0.0
H2466 H 0.98974 0.34656 0.70145 0.0
H2467 H 0.96608 0.4069 0.70541 0.0
H2468 H 0.94731 0.33851 0.6773 0.0
H2469 H 0.004 0.41065 0.74012 0.0
H2470 H 0.9604 0.38311 0.6911 0.0
H2471 H 0.99656 0.37142 0.71155 0.0
C2472 C 0.98187 0.35003 0.69815 0.0
C2473 C 0.96787 0.34036 0.68862 0.0
C2474 C 0.97002 0.38922 0.70173 0.0
C2475 C 0.97565 0.36892 0.70021 0.0
C2476 C 0.97325 0.4028 0.70999 0.0
C2477 C 0.98555 0.41088 0.72409 0.0
C2478 C 0.97916 0.38367 0.70752 0.0
C2479 C 0.99455 0.40503 0.72908 0.0
C2480 C 0.98577 0.36425 0.70397 0.0
C2481 C 0.95818 0.34554 0.68471 0.0
N2482 N 0.99115 0.39181 0.72088 0.0
N2483 N 0.96223 0.35946 0.69058 0.0
H2484 H 0.66129 0.64769 0.69666 0.0
H2485 H 0.59453 0.57705 0.75289 0.0
H2486 H 0.66174 0.60831 0.71235 0.0
H2487 H 0.58713 0.60822 0.7182 0.0
H2488 H 0.61984 0.58967 0.73992 0.0
H2489 H 0.63477 0.6348 0.7063 0.0
C2490 C 0.65584 0.63637 0.70205 0.0
C2491 C 0.66378 0.6291 0.70378 0.0
C2492 C 0.61267 0.5937 0.73494 0.0
C2493 C 0.63365 0.61442 0.71487 0.0
C2494 C 0.59808 0.58638 0.74219 0.0
C2495 C 0.58846 0.59138 0.73642 0.0
C2496 C 0.61795 0.60633 0.72204 0.0
C2497 C 0.59411 0.60398 0.7232 0.0
C2498 C 0.64072 0.62902 0.70747 0.0
C2499 C 0.65614 0.61441 0.71079 0.0
N2500 N 0.60853 0.61108 0.71653 0.0
N2501 N 0.64158 0.60763 0.71618 0.0
H2502 H 0.68928 0.69894 0.71684 0.0
H2503 H 0.70573 0.76073 0.62773 0.0
H2504 H 0.71681 0.70725 0.66079 0.0
H2505 H 0.67356 0.7481 0.67871 0.0
H2506 H 0.71278 0.74379 0.64269 0.0
H2507 H 0.68612 0.71927 0.70595 0.0
C2508 C 0.69477 0.7051 0.70233 0.0
C2509 C 0.70324 0.70127 0.68963 0.0
C2510 C 0.70428 0.74482 0.65073 0.0
C2511 C 0.69963 0.72462 0.67703 0.0
C2512 C 0.70034 0.7546 0.64231 0.0
C2513 C 0.68897 0.75578 0.6519 0.0
C2514 C 0.69683 0.73619 0.66894 0.0
C2515 C 0.68223 0.74739 0.67061 0.0
C2516 C 0.69293 0.71671 0.6961 0.0
C2517 C 0.71011 0.70973 0.67102 0.0
N2518 N 0.6862 0.73791 0.67842 0.0
N2519 N 0.70809 0.72094 0.66523 0.0
H2520 H 0.27113 0.99367 0.68748 0.0
H2521 H 0.28097 0.93138 0.63465 0.0
H2522 H 0.31393 0.99945 0.67294 0.0
H2523 H 0.23934 0.92259 0.66142 0.0
H2524 H 0.29325 0.95604 0.64978 0.0
H2525 H 0.25929 0.96751 0.67905 0.0
C2526 C 0.27806 0.98943 0.68268 0.0
C2527 C 0.29355 0.99882 0.68075 0.0
C2528 C 0.28146 0.94869 0.65256 0.0
C2529 C 0.28003 0.96887 0.67093 0.0
C2530 C 0.27441 0.93449 0.64405 0.0
C2531 C 0.25902 0.92476 0.64671 0.0
C2532 C 0.27309 0.95338 0.66362 0.0
C2533 C 0.25115 0.92972 0.65861 0.0
C2534 C 0.27128 0.97448 0.6779 0.0
C2535 C 0.30196 0.99266 0.67458 0.0
N2536 N 0.25824 0.94371 0.66646 0.0
N2537 N 0.29507 0.97812 0.66969 0.0
H2538 H 0.01416 0.32038 0.66056 0.0
H2539 H 0.07792 0.30054 0.66462 0.0
H2540 H 0.00809 0.27978 0.68609 0.0
H2541 H 0.07754 0.3309 0.618 0.0
H2542 H 0.05505 0.29708 0.68013 0.0
H2543 H 0.04009 0.32835 0.65209 0.0
C2544 C 0.01833 0.31324 0.66463 0.0
C2545 C 0.00893 0.29933 0.67381 0.0
C2546 C 0.0601 0.30464 0.66667 0.0
C2547 C 0.03848 0.30842 0.66446 0.0
C2548 C 0.07314 0.3066 0.65776 0.0
C2549 C 0.07957 0.31582 0.63968 0.0
C2550 C 0.05346 0.31203 0.65759 0.0
C2551 C 0.07306 0.3237 0.63194 0.0
C2552 C 0.03308 0.31777 0.65975 0.0
C2553 C 0.0149 0.2905 0.67876 0.0
N2554 N 0.06027 0.32151 0.64079 0.0
N2555 N 0.02926 0.29518 0.67399 0.0
H2556 H 0.28661 0.27313 0.68596 0.0
H2557 H 0.27792 0.33619 0.62967 0.0
H2558 H 0.32344 0.31541 0.66628 0.0
H2559 H 0.2407 0.29742 0.6579 0.0
H2560 H 0.29453 0.32845 0.6434 0.0
H2561 H 0.2694 0.2814 0.67607 0.0
C2562 C 0.29109 0.28415 0.67967 0.0
C2563 C 0.30651 0.29355 0.67685 0.0
C2564 C 0.28275 0.32165 0.64678 0.0
C2565 C 0.2869 0.30304 0.66546 0.0
C2566 C 0.27321 0.32614 0.63908 0.0
C2567 C 0.25781 0.31754 0.64275 0.0
C2568 C 0.27694 0.30832 0.6581 0.0
C2569 C 0.25244 0.30437 0.65448 0.0
C2570 C 0.28126 0.28886 0.67405 0.0
C2571 C 0.31167 0.30773 0.66867 0.0
N2572 N 0.26199 0.30013 0.66167 0.0
N2573 N 0.3019 0.31198 0.66319 0.0
H2574 H 0.66957 0.98061 0.70375 0.0
H2575 H 0.69441 0.93674 0.6273 0.0
H2576 H 0.70646 0.00155 0.65955 0.0
H2577 H 0.65533 0.91551 0.6674 0.0
H2578 H 0.70054 0.96048 0.64207 0.0
H2579 H 0.66564 0.95669 0.69349 0.0
C2580 C 0.67691 0.98021 0.692 0.0
C2581 C 0.68831 0.99313 0.6824 0.0
C2582 C 0.69068 0.95063 0.64777 0.0
C2583 C 0.68384 0.96574 0.67055 0.0
C2584 C 0.68723 0.93702 0.63948 0.0
C2585 C 0.67429 0.92406 0.64605 0.0
C2586 C 0.68114 0.95134 0.66278 0.0
C2587 C 0.6653 0.92521 0.66162 0.0
C2588 C 0.67464 0.96652 0.68612 0.0
C2589 C 0.69748 0.99189 0.66729 0.0
N2590 N 0.66885 0.9386 0.66936 0.0
N2591 N 0.69501 0.97845 0.66178 0.0
H2592 H 0.01615 0.73737 0.6706 0.0
H2593 H 0.08377 0.73021 0.62921 0.0
H2594 H 0.01344 0.69574 0.66346 0.0
H2595 H 0.0863 0.77155 0.63892 0.0
H2596 H 0.05889 0.71742 0.64497 0.0
H2597 H 0.04252 0.75003 0.66196 0.0
C2598 C 0.02111 0.73087 0.66732 0.0
C2599 C 0.0125 0.71544 0.66757 0.0
C2600 C 0.06495 0.7293 0.64385 0.0
C2601 C 0.04282 0.72994 0.65754 0.0
C2602 C 0.07921 0.73663 0.635 0.0
C2603 C 0.08709 0.75198 0.63256 0.0
C2604 C 0.05851 0.73738 0.65027 0.0
C2605 C 0.08053 0.75969 0.64011 0.0
C2606 C 0.03621 0.73813 0.6624 0.0
C2607 C 0.01962 0.70764 0.66335 0.0
N2608 N 0.0666 0.7523 0.64846 0.0
N2609 N 0.03434 0.71498 0.65833 0.0
H2610 H 0.97979 0.64807 0.70266 0.0
H2611 H 0.94427 0.5608 0.70528 0.0
H2612 H 0.93813 0.61742 0.67062 0.0
H2613 H 0.98184 0.5917 0.74496 0.0
H2614 H 0.94318 0.58137 0.6893 0.0
H2615 H 0.9821 0.62752 0.71496 0.0
C2616 C 0.97113 0.63702 0.69811 0.0
C2617 C 0.95869 0.6345 0.68567 0.0
C2618 C 0.95172 0.58362 0.7014 0.0
C2619 C 0.96129 0.61081 0.69978 0.0
C2620 C 0.95233 0.57188 0.7106 0.0
C2621 C 0.96316 0.57444 0.72657 0.0
C2622 C 0.96203 0.59806 0.70816 0.0
C2623 C 0.97344 0.5891 0.73249 0.0
C2624 C 0.97246 0.62527 0.70518 0.0
C2625 C 0.94788 0.6199 0.68026 0.0
N2626 N 0.97257 0.6003 0.72337 0.0
N2627 N 0.94941 0.60861 0.6874 0.0
H2628 H 0.37042 0.33974 0.69762 0.0
H2629 H 0.45273 0.41025 0.70915 0.0
H2630 H 0.41014 0.33872 0.68467 0.0
H2631 H 0.41455 0.40555 0.74236 0.0
H2632 H 0.43668 0.38592 0.69302 0.0
H2633 H 0.38601 0.36581 0.70686 0.0
C2634 C 0.38241 0.34502 0.6965 0.0
C2635 C 0.38898 0.33698 0.69056 0.0
C2636 C 0.43183 0.39033 0.70367 0.0
C2637 C 0.40687 0.36684 0.70103 0.0
C2638 C 0.44099 0.40421 0.71296 0.0
C2639 C 0.43508 0.40999 0.72742 0.0
C2640 C 0.41662 0.38221 0.70864 0.0
C2641 C 0.41966 0.40172 0.7312 0.0
C2642 C 0.3913 0.35989 0.70184 0.0
C2643 C 0.40459 0.34444 0.68937 0.0
N2644 N 0.41101 0.38824 0.72199 0.0
N2645 N 0.41301 0.35895 0.69463 0.0
H2646 H 0.6535 0.01222 0.69337 0.0
H2647 H 0.58718 0.02626 0.71784 0.0
H2648 H 0.65739 0.05456 0.68844 0.0
H2649 H 0.58357 0.9843 0.72694 0.0
H2650 H 0.61219 0.03618 0.70356 0.0
H2651 H 0.62712 0.00115 0.70223 0.0
C2652 C 0.6488 0.01917 0.69399 0.0
C2653 C 0.65772 0.03437 0.69032 0.0
C2654 C 0.60589 0.02477 0.70852 0.0
C2655 C 0.62757 0.02177 0.70045 0.0
C2656 C 0.59162 0.01911 0.71674 0.0
C2657 C 0.58327 0.00445 0.72374 0.0
C2658 C 0.61195 0.01573 0.70734 0.0
C2659 C 0.58952 0.99563 0.72158 0.0
C2660 C 0.63375 0.01284 0.69908 0.0
C2661 C 0.65101 0.04282 0.69131 0.0
N2662 N 0.60351 0.00144 0.71373 0.0
N2663 N 0.63639 0.03642 0.69637 0.0
loop_
_geom_bond_atom_site_label_1
_geom_bond_atom_site_label_2
_geom_bond_distance
_geom_bond_site_symmetry_2
_ccdc_geom_bond_type
Zn0 O3 2.031 1_554 S
Zn0 O5 2.049 . S
Zn0 O10 2.067 1_554 S
Zn1 O2 1.962 1_455 S
Zn1 O4 1.986 . S
Zn1 O6 1.996 1_455 S
Zn1 O9 1.943 1_554 S
O2 Zn1 1.962 1_655 S
O2 C7 1.254 . S
O3 Zn0 2.031 1_556 S
O3 C7 1.269 1_556 S
O4 Zn1 1.986 . S
O4 C11 1.262 . S
O5 Zn0 2.049 . S
O5 C13 1.260 . S
O6 Zn1 1.996 1_655 S
O6 C13 1.257 . S
C7 O2 1.254 . S
C7 O3 1.269 1_554 S
C8 O9 1.249 . S
C8 O10 1.270 1_455 S
O9 Zn1 1.943 1_556 S
O9 C8 1.249 . S
O10 Zn0 2.067 1_556 S
O10 C8 1.270 1_655 S
C11 O4 1.262 . S
C11 O12 1.232 . S
O12 C11 1.232 . S
C13 O5 1.260 . S
C13 O6 1.257 . S
Zn14 O17 2.031 1_554 S
Zn14 O19 2.049 . S
Zn14 O24 2.067 1_554 S
Zn15 O16 1.962 . S
Zn15 O18 1.986 . S
Zn15 O20 1.996 . S
Zn15 O23 1.943 1_554 S
O16 Zn15 1.962 . S
O16 C21 1.254 . S
O17 Zn14 2.031 1_556 S
O17 C21 1.269 1_556 S
O18 Zn15 1.986 . S
O18 C25 1.262 . S
O19 Zn14 2.049 . S
O19 C27 1.260 . S
O20 Zn15 1.996 . S
O20 C27 1.257 . S
C21 O16 1.254 . S
C21 O17 1.269 1_554 S
C22 O23 1.249 . S
C22 O24 1.270 . S
O23 Zn15 1.943 1_556 S
O23 C22 1.249 . S
O24 Zn14 2.067 1_556 S
O24 C22 1.270 . S
C25 O18 1.262 . S
C25 O26 1.232 . S
O26 C25 1.232 . S
C27 O19 1.260 . S
C27 O20 1.257 . S
Zn28 O31 2.031 . S
Zn28 O33 2.049 1_554 S
Zn28 O38 2.067 . S
Zn29 O30 1.962 1_545 S
Zn29 O32 1.986 1_554 S
Zn29 O34 1.996 1_544 S
Zn29 O37 1.943 . S
O30 Zn29 1.962 1_565 S
O30 C35 1.254 . S
O31 Zn28 2.031 . S
O31 C35 1.269 . S
O32 Zn29 1.986 1_556 S
O32 C39 1.262 1_556 S
O33 Zn28 2.049 1_556 S
O33 C41 1.260 . S
O34 Zn29 1.996 1_566 S
O34 C41 1.257 . S
C35 O30 1.254 . S
C35 O31 1.269 . S
C36 O37 1.249 . S
C36 O38 1.270 1_545 S
O37 Zn29 1.943 . S
O37 C36 1.249 . S
O38 Zn28 2.067 . S
O38 C36 1.270 1_565 S
C39 O32 1.262 1_554 S
C39 O40 1.232 . S
O40 C39 1.232 . S
C41 O33 1.260 . S
C41 O34 1.257 . S
Zn42 O45 2.031 . S
Zn42 O47 2.049 1_554 S
Zn42 O52 2.067 . S
Zn43 O44 1.962 1_655 S
Zn43 O46 1.986 1_554 S
Zn43 O48 1.996 1_654 S
Zn43 O51 1.943 . S
O44 Zn43 1.962 1_455 S
O44 C49 1.254 . S
O45 Zn42 2.031 . S
O45 C49 1.269 . S
O46 Zn43 1.986 1_556 S
O46 C53 1.262 1_556 S
O47 Zn42 2.049 1_556 S
O47 C55 1.260 . S
O48 Zn43 1.996 1_456 S
O48 C55 1.257 . S
C49 O44 1.254 . S
C49 O45 1.269 . S
C50 O51 1.249 . S
C50 O52 1.270 1_655 S
O51 Zn43 1.943 . S
O51 C50 1.249 . S
O52 Zn42 2.067 . S
O52 C50 1.270 1_455 S
C53 O46 1.262 1_554 S
C53 O54 1.232 . S
O54 C53 1.232 . S
C55 O47 1.260 . S
C55 O48 1.257 . S
Zn56 O59 2.031 . S
Zn56 O61 2.049 1_554 S
Zn56 O66 2.067 . S
Zn57 O58 1.962 . S
Zn57 O60 1.986 1_554 S
Zn57 O62 1.996 1_554 S
Zn57 O65 1.943 . S
O58 Zn57 1.962 . S
O58 C63 1.254 . S
O59 Zn56 2.031 . S
O59 C63 1.269 . S
O60 Zn57 1.986 1_556 S
O60 C67 1.262 1_556 S
O61 Zn56 2.049 1_556 S
O61 C69 1.260 . S
O62 Zn57 1.996 1_556 S
O62 C69 1.257 . S
C63 O58 1.254 . S
C63 O59 1.269 . S
C64 O65 1.249 . S
C64 O66 1.270 . S
O65 Zn57 1.943 . S
O65 C64 1.249 . S
O66 Zn56 2.067 . S
O66 C64 1.270 . S
C67 O60 1.262 1_554 S
C67 O68 1.232 . S
O68 C67 1.232 . S
C69 O61 1.260 . S
C69 O62 1.257 . S
Zn70 O73 2.031 . S
Zn70 O75 2.049 . S
Zn70 O80 2.044 1_554 S
Zn71 O72 1.962 1_565 S
Zn71 O74 1.986 . S
Zn71 O76 1.996 1_565 S
Zn71 O79 1.943 . S
O72 Zn71 1.962 1_545 S
O72 C77 1.254 . S
O73 Zn70 2.031 . S
O73 C77 1.269 . S
O74 Zn71 1.986 . S
O74 C81 1.262 . S
O75 Zn70 2.049 . S
O75 C83 1.260 . S
O76 Zn71 1.996 1_545 S
O76 C83 1.257 . S
C77 O72 1.254 . S
C77 O73 1.269 . S
C78 O79 1.249 1_556 S
C78 O80 1.286 1_565 S
O79 Zn71 1.943 . S
O79 C78 1.249 1_554 S
O80 Zn70 2.044 1_556 S
O80 C78 1.286 1_545 S
C81 O74 1.262 . S
C81 O82 1.232 . S
O82 C81 1.232 . S
C83 O75 1.260 . S
C83 O76 1.257 . S
Zn84 O87 2.031 . S
Zn84 O89 2.049 . S
Zn84 O94 2.067 . S
Zn85 O86 1.962 . S
Zn85 O88 1.986 . S
Zn85 O90 1.996 . S
Zn85 O93 1.943 . S
O86 Zn85 1.962 . S
O86 C91 1.254 . S
O87 Zn84 2.031 . S
O87 C91 1.269 . S
O88 Zn85 1.986 . S
O88 C95 1.262 . S
O89 Zn84 2.049 . S
O89 C97 1.260 . S
O90 Zn85 1.996 . S
O90 C97 1.257 . S
C91 O86 1.254 . S
C91 O87 1.269 . S
C92 O93 1.249 . S
C92 O94 1.270 . S
O93 Zn85 1.943 . S
O93 C92 1.249 . S
O94 Zn84 2.067 . S
O94 C92 1.270 . S
C95 O88 1.262 . S
C95 O96 1.232 . S
O96 C95 1.232 . S
C97 O89 1.260 . S
C97 O90 1.257 . S
Zn98 O101 2.031 . S
Zn98 O103 2.049 . S
Zn98 O108 2.067 . S
Zn99 O100 1.962 . S
Zn99 O102 1.986 . S
Zn99 O104 1.996 . S
Zn99 O107 1.943 . S
O100 Zn99 1.962 . S
O100 C105 1.254 . S
O101 Zn98 2.031 . S
O101 C105 1.269 . S
O102 Zn99 1.986 . S
O102 C109 1.262 1_565 S
O103 Zn98 2.049 . S
O103 C111 1.260 . S
O104 Zn99 1.996 . S
O104 C111 1.257 . S
C105 O100 1.254 . S
C105 O101 1.269 . S
C106 O107 1.249 . S
C106 O108 1.270 . S
O107 Zn99 1.943 . S
O107 C106 1.249 . S
O108 Zn98 2.067 . S
O108 C106 1.270 . S
C109 O102 1.262 1_545 S
C109 O110 1.232 . S
O110 C109 1.232 . S
C111 O103 1.260 . S
C111 O104 1.257 . S
Zn112 O115 2.031 . S
Zn112 O117 2.049 . S
Zn112 O122 2.067 . S
Zn113 O114 1.962 . S
Zn113 O116 1.986 . S
Zn113 O118 1.996 . S
Zn113 O121 1.943 . S
O114 Zn113 1.962 . S
O114 C119 1.254 . S
O115 Zn112 2.031 . S
O115 C119 1.269 . S
O116 Zn113 1.986 . S
O116 C123 1.262 . S
O117 Zn112 2.049 . S
O117 C125 1.260 . S
O118 Zn113 1.996 . S
O118 C125 1.257 . S
C119 O114 1.254 . S
C119 O115 1.269 . S
C120 O121 1.249 . S
C120 O122 1.270 . S
O121 Zn113 1.943 . S
O121 C120 1.249 . S
O122 Zn112 2.067 . S
O122 C120 1.270 . S
C123 O116 1.262 . S
C123 O124 1.232 . S
O124 C123 1.232 . S
C125 O117 1.260 . S
C125 O118 1.257 . S
Zn126 O129 2.031 . S
Zn126 O131 2.049 . S
Zn126 O136 2.067 . S
Zn127 O128 1.962 . S
Zn127 O130 1.986 . S
Zn127 O132 1.996 . S
Zn127 O135 1.943 . S
O128 Zn127 1.962 . S
O128 C133 1.254 . S
O129 Zn126 2.031 . S
O129 C133 1.269 . S
O130 Zn127 1.986 . S
O130 C137 1.262 . S
O131 Zn126 2.049 . S
O131 C139 1.260 . S
O132 Zn127 1.996 . S
O132 C139 1.257 . S
C133 O128 1.254 . S
C133 O129 1.269 . S
C134 O135 1.249 . S
C134 O136 1.270 . S
O135 Zn127 1.943 . S
O135 C134 1.249 . S
O136 Zn126 2.067 . S
O136 C134 1.270 . S
C137 O130 1.262 . S
C137 O138 1.232 . S
O138 C137 1.232 . S
C139 O131 1.260 . S
C139 O132 1.257 . S
Zn140 O143 2.031 . S
Zn140 O145 2.049 . S
Zn140 O150 2.067 . S
Zn141 O142 1.962 . S
Zn141 O144 1.986 . S
Zn141 O146 1.996 . S
Zn141 O149 1.943 . S
O142 Zn141 1.962 . S
O142 C147 1.254 . S
O143 Zn140 2.031 . S
O143 C147 1.269 . S
O144 Zn141 1.986 . S
O144 C151 1.262 . S
O145 Zn140 2.049 . S
O145 C153 1.260 . S
O146 Zn141 1.996 . S
O146 C153 1.257 . S
C147 O142 1.254 . S
C147 O143 1.269 . S
C148 O149 1.249 . S
C148 O150 1.270 . S
O149 Zn141 1.943 . S
O149 C148 1.249 . S
O150 Zn140 2.067 . S
O150 C148 1.270 . S
C151 O144 1.262 . S
C151 O152 1.232 . S
O152 C151 1.232 . S
C153 O145 1.260 . S
C153 O146 1.257 . S
Zn154 O157 2.031 . S
Zn154 O159 2.049 . S
Zn154 O164 2.067 . S
Zn155 O156 1.962 . S
Zn155 O158 1.986 . S
Zn155 O160 1.996 . S
Zn155 O163 1.943 . S
O156 Zn155 1.962 . S
O156 C161 1.254 . S
O157 Zn154 2.031 . S
O157 C161 1.269 . S
O158 Zn155 1.986 . S
O158 C165 1.262 . S
O159 Zn154 2.049 . S
O159 C167 1.260 . S
O160 Zn155 1.996 . S
O160 C167 1.257 . S
C161 O156 1.254 . S
C161 O157 1.269 . S
C162 O163 1.249 . S
C162 O164 1.270 . S
O163 Zn155 1.943 . S
O163 C162 1.249 . S
O164 Zn154 2.067 . S
O164 C162 1.270 . S
C165 O158 1.262 . S
C165 O166 1.232 . S
O166 C165 1.232 . S
C167 O159 1.260 . S
C167 O160 1.257 . S
Zn168 O171 2.031 . S
Zn168 O173 2.049 . S
Zn168 O178 2.067 . S
Zn169 O170 1.962 . S
Zn169 O172 1.986 . S
Zn169 O174 1.996 . S
Zn169 O177 1.943 . S
O170 Zn169 1.962 . S
O170 C175 1.254 . S
O171 Zn168 2.031 . S
O171 C175 1.269 . S
O172 Zn169 1.986 . S
O172 C179 1.262 . S
O173 Zn168 2.049 . S
O173 C181 1.260 . S
O174 Zn169 1.996 . S
O174 C181 1.257 . S
C175 O170 1.254 . S
C175 O171 1.269 . S
C176 O177 1.249 . S
C176 O178 1.270 . S
O177 Zn169 1.943 . S
O177 C176 1.249 . S
O178 Zn168 2.067 . S
O178 C176 1.270 . S
C179 O172 1.262 . S
C179 O180 1.232 . S
O180 C179 1.232 . S
C181 O173 1.260 . S
C181 O174 1.257 . S
Zn182 O185 2.031 . S
Zn182 O187 2.049 . S
Zn182 O192 2.067 . S
Zn183 O184 1.962 . S
Zn183 O186 1.986 . S
Zn183 O188 1.996 . S
Zn183 O191 1.943 . S
O184 Zn183 1.962 . S
O184 C189 1.254 . S
O185 Zn182 2.031 . S
O185 C189 1.269 . S
O186 Zn183 1.986 . S
O186 C193 1.262 . S
O187 Zn182 2.049 . S
O187 C195 1.260 . S
O188 Zn183 1.996 . S
O188 C195 1.257 . S
C189 O184 1.254 . S
C189 O185 1.269 . S
C190 O191 1.249 . S
C190 O192 1.270 . S
O191 Zn183 1.943 . S
O191 C190 1.249 . S
O192 Zn182 2.067 . S
O192 C190 1.270 . S
C193 O186 1.262 . S
C193 O194 1.232 . S
O194 C193 1.232 . S
C195 O187 1.260 . S
C195 O188 1.257 . S
Zn196 O199 2.031 . S
Zn196 O201 2.049 . S
Zn196 O206 2.067 . S
Zn197 O198 1.962 . S
Zn197 O200 1.986 . S
Zn197 O202 1.996 . S
Zn197 O205 1.943 . S
O198 Zn197 1.962 . S
O198 C203 1.254 . S
O199 Zn196 2.031 . S
O199 C203 1.269 . S
O200 Zn197 1.986 . S
O200 C207 1.262 . S
O201 Zn196 2.049 . S
O201 C209 1.260 . S
O202 Zn197 1.996 . S
O202 C209 1.257 . S
C203 O198 1.254 . S
C203 O199 1.269 . S
C204 O205 1.249 . S
C204 O206 1.270 . S
O205 Zn197 1.943 . S
O205 C204 1.249 . S
O206 Zn196 2.067 . S
O206 C204 1.270 . S
C207 O200 1.262 . S
C207 O208 1.232 . S
O208 C207 1.232 . S
C209 O201 1.260 . S
C209 O202 1.257 . S
Zn210 O213 2.031 . S
Zn210 O215 2.049 . S
Zn210 O220 2.067 . S
Zn211 O212 1.962 . S
Zn211 O214 1.986 . S
Zn211 O216 1.996 . S
Zn211 O219 1.943 . S
O212 Zn211 1.962 . S
O212 C217 1.254 . S
O213 Zn210 2.031 . S
O213 C217 1.269 . S
O214 Zn211 1.986 . S
O214 C221 1.262 . S
O215 Zn210 2.049 . S
O215 C223 1.260 . S
O216 Zn211 1.996 . S
O216 C223 1.257 . S
C217 O212 1.254 . S
C217 O213 1.269 . S
C218 O219 1.249 . S
C218 O220 1.270 . S
O219 Zn211 1.943 . S
O219 C218 1.249 . S
O220 Zn210 2.067 . S
O220 C218 1.270 . S
C221 O214 1.262 . S
C221 O222 1.232 . S
O222 C221 1.232 . S
C223 O215 1.260 . S
C223 O216 1.257 . S
Zn224 O227 2.031 . S
Zn224 O229 2.049 . S
Zn224 O234 2.067 . S
Zn225 O226 1.962 . S
Zn225 O228 1.986 . S
Zn225 O230 1.996 . S
Zn225 O233 1.943 . S
O226 Zn225 1.962 . S
O226 C231 1.254 . S
O227 Zn224 2.031 . S
O227 C231 1.269 . S
O228 Zn225 1.986 . S
O228 C235 1.262 1_545 S
O229 Zn224 2.049 . S
O229 C237 1.260 . S
O230 Zn225 1.996 . S
O230 C237 1.257 . S
C231 O226 1.254 . S
C231 O227 1.269 . S
C232 O233 1.249 . S
C232 O234 1.270 . S
O233 Zn225 1.943 . S
O233 C232 1.249 . S
O234 Zn224 2.067 . S
O234 C232 1.270 . S
C235 O228 1.262 1_565 S
C235 O236 1.232 . S
O236 C235 1.232 . S
C237 O229 1.260 . S
C237 O230 1.257 . S
Zn238 O241 2.031 . S
Zn238 O243 2.049 . S
Zn238 O248 2.067 . S
Zn239 O240 1.962 . S
Zn239 O242 1.986 . S
Zn239 O244 1.996 . S
Zn239 O247 1.943 . S
O240 Zn239 1.962 . S
O240 C245 1.254 . S
O241 Zn238 2.031 . S
O241 C245 1.269 . S
O242 Zn239 1.986 . S
O242 C249 1.262 . S
O243 Zn238 2.049 . S
O243 C251 1.260 . S
O244 Zn239 1.996 . S
O244 C251 1.257 . S
C245 O240 1.254 . S
C245 O241 1.269 . S
C246 O247 1.249 . S
C246 O248 1.270 . S
O247 Zn239 1.943 . S
O247 C246 1.249 . S
O248 Zn238 2.067 . S
O248 C246 1.270 . S
C249 O242 1.262 . S
C249 O250 1.232 . S
O250 C249 1.232 . S
C251 O243 1.260 . S
C251 O244 1.257 . S
H252 C279 0.929 . S
N253 C278 1.433 . S
N253 C284 1.435 . S
N253 C290 1.423 . S
H254 C280 0.930 . S
H255 C283 0.931 . S
H256 C282 0.929 . S
H257 C285 0.930 . S
H258 C286 0.932 . S
H259 C289 0.929 . S
H260 C288 0.931 . S
H261 C291 0.929 . S
H262 C295 0.932 . S
H263 C292 0.931 . S
H264 C294 0.929 . S
H265 C297 0.929 . S
H266 C298 0.930 . S
H267 C300 0.929 . S
H268 C301 0.931 . S
H269 C303 0.930 . S
H270 C304 0.932 . S
H271 C306 0.931 . S
H272 C307 0.929 . S
H273 C309 0.929 . S
H274 C310 0.931 . S
H275 C312 0.929 . S
N276 C296 1.433 . S
N276 C302 1.435 . S
N276 C308 1.423 . S
H277 C313 0.932 . S
C278 N253 1.433 . S
C278 C279 1.363 . S
C278 C283 1.370 . S
C279 H252 0.929 . S
C279 C278 1.363 . S
C279 C280 1.385 . S
C280 H254 0.930 . S
C280 C279 1.385 . S
C280 C281 1.357 . S
C281 C280 1.357 . S
C281 C282 1.406 . S
C282 H256 0.929 . S
C282 C281 1.406 . S
C282 C283 1.391 . S
C283 H255 0.931 . S
C283 C278 1.370 . S
C283 C282 1.391 . S
C284 N253 1.435 . S
C284 C285 1.358 . S
C284 C289 1.371 . S
C285 H257 0.930 . S
C285 C284 1.358 . S
C285 C286 1.405 . S
C286 H258 0.932 . S
C286 C285 1.405 . S
C286 C287 1.383 . S
C287 C286 1.383 . S
C287 C288 1.393 . S
C288 H260 0.931 . S
C288 C287 1.393 . S
C288 C289 1.382 . S
C289 H259 0.929 . S
C289 C284 1.371 . S
C289 C288 1.382 . S
C290 N253 1.423 . S
C290 C291 1.362 . S
C290 C295 1.388 . S
C291 H261 0.929 . S
C291 C290 1.362 . S
C291 C292 1.376 . S
C292 H263 0.931 . S
C292 C291 1.376 . S
C292 C293 1.396 . S
C293 C292 1.396 . S
C293 C294 1.348 . S
C293 C311 1.472 . S
C294 H264 0.929 . S
C294 C293 1.348 . S
C294 C295 1.443 . S
C295 H262 0.932 . S
C295 C290 1.388 . S
C295 C294 1.443 . S
C296 N276 1.433 . S
C296 C297 1.363 . S
C296 C301 1.370 . S
C297 H265 0.929 . S
C297 C296 1.363 . S
C297 C298 1.385 . S
C298 H266 0.930 . S
C298 C297 1.385 . S
C298 C299 1.357 . S
C299 C298 1.357 . S
C299 C300 1.406 . S
C300 H267 0.929 . S
C300 C299 1.406 . S
C300 C301 1.391 . S
C301 H268 0.931 . S
C301 C296 1.370 . S
C301 C300 1.391 . S
C302 N276 1.435 . S
C302 C303 1.358 . S
C302 C307 1.371 . S
C303 H269 0.930 . S
C303 C302 1.358 . S
C303 C304 1.405 . S
C304 H270 0.932 . S
C304 C303 1.405 . S
C304 C305 1.383 . S
C305 C304 1.383 . S
C305 C306 1.393 . S
C306 H271 0.931 . S
C306 C305 1.393 . S
C306 C307 1.382 . S
C307 H272 0.929 . S
C307 C302 1.371 . S
C307 C306 1.382 . S
C308 N276 1.423 . S
C308 C309 1.362 . S
C308 C313 1.388 . S
C309 H273 0.929 . S
C309 C308 1.362 . S
C309 C310 1.376 . S
C310 H274 0.931 . S
C310 C309 1.376 . S
C310 C311 1.396 . S
C311 C293 1.472 . S
C311 C310 1.396 . S
C311 C312 1.348 . S
C312 H275 0.929 . S
C312 C311 1.348 . S
C312 C313 1.443 . S
C313 H277 0.932 . S
C313 C308 1.388 . S
C313 C312 1.443 . S
H314 C341 0.929 . S
N315 C340 1.433 . S
N315 C346 1.435 . S
N315 C352 1.423 . S
H316 C342 0.930 . S
H317 C345 0.931 . S
H318 C344 0.929 . S
H319 C347 0.930 . S
H320 C348 0.932 . S
H321 C351 0.929 . S
H322 C350 0.931 . S
H323 C353 0.929 . S
H324 C357 0.932 . S
H325 C354 0.931 . S
H326 C356 0.929 . S
H327 C359 0.929 . S
H328 C360 0.930 . S
H329 C362 0.929 . S
H330 C363 0.931 . S
H331 C365 0.930 . S
H332 C366 0.932 . S
H333 C368 0.931 . S
H334 C369 0.929 . S
H335 C371 0.929 . S
H336 C372 0.931 . S
H337 C374 0.929 . S
N338 C358 1.433 . S
N338 C364 1.435 . S
N338 C370 1.423 . S
H339 C375 0.932 . S
C340 N315 1.433 . S
C340 C341 1.363 . S
C340 C345 1.370 . S
C341 H314 0.929 . S
C341 C340 1.363 . S
C341 C342 1.385 . S
C342 H316 0.930 . S
C342 C341 1.385 . S
C342 C343 1.357 . S
C343 C342 1.357 . S
C343 C344 1.406 . S
C344 H318 0.929 . S
C344 C343 1.406 . S
C344 C345 1.391 . S
C345 H317 0.931 . S
C345 C340 1.370 . S
C345 C344 1.391 . S
C346 N315 1.435 . S
C346 C347 1.358 . S
C346 C351 1.371 . S
C347 H319 0.930 . S
C347 C346 1.358 . S
C347 C348 1.405 . S
C348 H320 0.932 . S
C348 C347 1.405 . S
C348 C349 1.383 . S
C349 C348 1.383 . S
C349 C350 1.393 . S
C350 H322 0.931 . S
C350 C349 1.393 . S
C350 C351 1.382 . S
C351 H321 0.929 . S
C351 C346 1.371 . S
C351 C350 1.382 . S
C352 N315 1.423 . S
C352 C353 1.362 . S
C352 C357 1.388 . S
C353 H323 0.929 . S
C353 C352 1.362 . S
C353 C354 1.376 . S
C354 H325 0.931 . S
C354 C353 1.376 . S
C354 C355 1.396 . S
C355 C354 1.396 . S
C355 C356 1.348 . S
C355 C373 1.472 . S
C356 H326 0.929 . S
C356 C355 1.348 . S
C356 C357 1.443 . S
C357 H324 0.932 . S
C357 C352 1.388 . S
C357 C356 1.443 . S
C358 N338 1.433 . S
C358 C359 1.363 . S
C358 C363 1.370 . S
C359 H327 0.929 . S
C359 C358 1.363 . S
C359 C360 1.385 . S
C360 H328 0.930 . S
C360 C359 1.385 . S
C360 C361 1.357 . S
C361 C360 1.357 . S
C361 C362 1.406 . S
C362 H329 0.929 . S
C362 C361 1.406 . S
C362 C363 1.391 . S
C363 H330 0.931 . S
C363 C358 1.370 . S
C363 C362 1.391 . S
C364 N338 1.435 . S
C364 C365 1.358 . S
C364 C369 1.371 . S
C365 H331 0.930 . S
C365 C364 1.358 . S
C365 C366 1.405 . S
C366 H332 0.932 . S
C366 C365 1.405 . S
C366 C367 1.383 . S
C367 C366 1.383 . S
C367 C368 1.393 . S
C368 H333 0.931 . S
C368 C367 1.393 . S
C368 C369 1.382 . S
C369 H334 0.929 . S
C369 C364 1.371 . S
C369 C368 1.382 . S
C370 N338 1.423 . S
C370 C371 1.362 . S
C370 C375 1.388 . S
C371 H335 0.929 . S
C371 C370 1.362 . S
C371 C372 1.376 . S
C372 H336 0.931 . S
C372 C371 1.376 . S
C372 C373 1.396 . S
C373 C355 1.472 . S
C373 C372 1.396 . S
C373 C374 1.348 . S
C374 H337 0.929 . S
C374 C373 1.348 . S
C374 C375 1.443 . S
C375 H339 0.932 . S
C375 C370 1.388 . S
C375 C374 1.443 . S
H376 C403 0.929 . S
N377 C402 1.433 . S
N377 C408 1.435 . S
N377 C414 1.423 . S
H378 C404 0.930 . S
H379 C407 0.931 . S
H380 C406 0.929 . S
H381 C409 0.930 . S
H382 C410 0.932 . S
H383 C413 0.929 . S
H384 C412 0.931 . S
H385 C415 0.929 . S
H386 C419 0.932 . S
H387 C416 0.931 . S
H388 C418 0.929 . S
H389 C421 0.929 . S
H390 C422 0.930 . S
H391 C424 0.929 . S
H392 C425 0.931 . S
H393 C427 0.930 . S
H394 C428 0.932 . S
H395 C430 0.931 . S
H396 C431 0.929 . S
H397 C433 0.929 . S
H398 C434 0.931 . S
H399 C436 0.929 . S
N400 C420 1.433 . S
N400 C426 1.435 . S
N400 C432 1.423 . S
H401 C437 0.932 . S
C402 N377 1.433 . S
C402 C403 1.363 . S
C402 C407 1.370 . S
C403 H376 0.929 . S
C403 C402 1.363 . S
C403 C404 1.385 . S
C404 H378 0.930 . S
C404 C403 1.385 . S
C404 C405 1.357 . S
C405 C404 1.357 . S
C405 C406 1.406 . S
C406 H380 0.929 . S
C406 C405 1.406 . S
C406 C407 1.391 . S
C407 H379 0.931 . S
C407 C402 1.370 . S
C407 C406 1.391 . S
C408 N377 1.435 . S
C408 C409 1.358 . S
C408 C413 1.371 . S
C409 H381 0.930 . S
C409 C408 1.358 . S
C409 C410 1.405 . S
C410 H382 0.932 . S
C410 C409 1.405 . S
C410 C411 1.383 . S
C411 C410 1.383 . S
C411 C412 1.393 . S
C412 H384 0.931 . S
C412 C411 1.393 . S
C412 C413 1.382 . S
C413 H383 0.929 . S
C413 C408 1.371 . S
C413 C412 1.382 . S
C414 N377 1.423 . S
C414 C415 1.362 . S
C414 C419 1.388 . S
C415 H385 0.929 . S
C415 C414 1.362 . S
C415 C416 1.376 . S
C416 H387 0.931 . S
C416 C415 1.376 . S
C416 C417 1.396 . S
C417 C416 1.396 . S
C417 C418 1.348 . S
C417 C435 1.472 . S
C418 H388 0.929 . S
C418 C417 1.348 . S
C418 C419 1.443 . S
C419 H386 0.932 . S
C419 C414 1.388 . S
C419 C418 1.443 . S
C420 N400 1.433 . S
C420 C421 1.363 . S
C420 C425 1.370 . S
C421 H389 0.929 . S
C421 C420 1.363 . S
C421 C422 1.385 . S
C422 H390 0.930 . S
C422 C421 1.385 . S
C422 C423 1.357 . S
C423 C422 1.357 . S
C423 C424 1.406 . S
C424 H391 0.929 . S
C424 C423 1.406 . S
C424 C425 1.391 . S
C425 H392 0.931 . S
C425 C420 1.370 . S
C425 C424 1.391 . S
C426 N400 1.435 . S
C426 C427 1.358 . S
C426 C431 1.371 . S
C427 H393 0.930 . S
C427 C426 1.358 . S
C427 C428 1.405 . S
C428 H394 0.932 . S
C428 C427 1.405 . S
C428 C429 1.383 . S
C429 C428 1.383 . S
C429 C430 1.393 . S
C430 H395 0.931 . S
C430 C429 1.393 . S
C430 C431 1.382 . S
C431 H396 0.929 . S
C431 C426 1.371 . S
C431 C430 1.382 . S
C432 N400 1.423 . S
C432 C433 1.362 . S
C432 C437 1.388 . S
C433 H397 0.929 . S
C433 C432 1.362 . S
C433 C434 1.376 . S
C434 H398 0.931 . S
C434 C433 1.376 . S
C434 C435 1.396 . S
C435 C417 1.472 . S
C435 C434 1.396 . S
C435 C436 1.348 . S
C436 H399 0.929 . S
C436 C435 1.348 . S
C436 C437 1.443 . S
C437 H401 0.932 . S
C437 C432 1.388 . S
C437 C436 1.443 . S
H438 C465 0.929 . S
N439 C464 1.433 . S
N439 C470 1.435 . S
N439 C476 1.423 . S
H440 C466 0.930 . S
H441 C469 0.931 . S
H442 C468 0.929 . S
H443 C471 0.930 . S
H444 C472 0.932 . S
H445 C475 0.929 . S
H446 C474 0.931 . S
H447 C477 0.929 . S
H448 C481 0.932 . S
H449 C478 0.931 . S
H450 C480 0.929 . S
H451 C483 0.929 . S
H452 C484 0.930 . S
H453 C486 0.929 . S
H454 C487 0.931 . S
H455 C489 0.930 . S
H456 C490 0.932 . S
H457 C492 0.931 . S
H458 C493 0.929 . S
H459 C495 0.929 . S
H460 C496 0.931 . S
H461 C498 0.929 . S
N462 C482 1.433 . S
N462 C488 1.435 . S
N462 C494 1.423 . S
H463 C499 0.932 . S
C464 N439 1.433 . S
C464 C465 1.363 . S
C464 C469 1.370 . S
C465 H438 0.929 . S
C465 C464 1.363 . S
C465 C466 1.385 . S
C466 H440 0.930 . S
C466 C465 1.385 . S
C466 C467 1.357 . S
C467 C466 1.357 . S
C467 C468 1.406 . S
C468 H442 0.929 . S
C468 C467 1.406 . S
C468 C469 1.391 . S
C469 H441 0.931 . S
C469 C464 1.370 . S
C469 C468 1.391 . S
C470 N439 1.435 . S
C470 C471 1.358 . S
C470 C475 1.371 . S
C471 H443 0.930 . S
C471 C470 1.358 . S
C471 C472 1.405 . S
C472 H444 0.932 . S
C472 C471 1.405 . S
C472 C473 1.383 . S
C473 C472 1.383 . S
C473 C474 1.393 . S
C474 H446 0.931 . S
C474 C473 1.393 . S
C474 C475 1.382 . S
C475 H445 0.929 . S
C475 C470 1.371 . S
C475 C474 1.382 . S
C476 N439 1.423 . S
C476 C477 1.362 . S
C476 C481 1.388 . S
C477 H447 0.929 . S
C477 C476 1.362 . S
C477 C478 1.376 . S
C478 H449 0.931 . S
C478 C477 1.376 . S
C478 C479 1.396 . S
C479 C478 1.396 . S
C479 C480 1.348 . S
C479 C497 1.472 . S
C480 H450 0.929 . S
C480 C479 1.348 . S
C480 C481 1.443 . S
C481 H448 0.932 . S
C481 C476 1.388 . S
C481 C480 1.443 . S
C482 N462 1.433 . S
C482 C483 1.363 . S
C482 C487 1.370 . S
C483 H451 0.929 . S
C483 C482 1.363 . S
C483 C484 1.385 . S
C484 H452 0.930 . S
C484 C483 1.385 . S
C484 C485 1.357 . S
C485 C484 1.357 . S
C485 C486 1.406 . S
C486 H453 0.929 . S
C486 C485 1.406 . S
C486 C487 1.391 . S
C487 H454 0.931 . S
C487 C482 1.370 . S
C487 C486 1.391 . S
C488 N462 1.435 . S
C488 C489 1.358 . S
C488 C493 1.371 . S
C489 H455 0.930 . S
C489 C488 1.358 . S
C489 C490 1.405 . S
C490 H456 0.932 . S
C490 C489 1.405 . S
C490 C491 1.383 . S
C491 C490 1.383 . S
C491 C492 1.393 . S
C492 H457 0.931 . S
C492 C491 1.393 . S
C492 C493 1.382 . S
C493 H458 0.929 . S
C493 C488 1.371 . S
C493 C492 1.382 . S
C494 N462 1.423 . S
C494 C495 1.362 . S
C494 C499 1.388 . S
C495 H459 0.929 . S
C495 C494 1.362 . S
C495 C496 1.376 . S
C496 H460 0.931 . S
C496 C495 1.376 . S
C496 C497 1.396 . S
C497 C479 1.472 . S
C497 C496 1.396 . S
C497 C498 1.348 . S
C498 H461 0.929 . S
C498 C497 1.348 . S
C498 C499 1.443 . S
C499 H463 0.932 . S
C499 C494 1.388 . S
C499 C498 1.443 . S
H500 C527 0.929 . S
N501 C526 1.433 . S
N501 C532 1.435 . S
N501 C538 1.423 . S
H502 C528 0.930 . S
H503 C531 0.931 . S
H504 C530 0.929 . S
H505 C533 0.930 . S
H506 C534 0.932 . S
H507 C537 0.929 . S
H508 C536 0.931 . S
H509 C539 0.929 . S
H510 C543 0.932 . S
H511 C540 0.931 . S
H512 C542 0.929 . S
H513 C545 0.929 . S
H514 C546 0.930 . S
H515 C548 0.929 . S
H516 C549 0.931 . S
H517 C551 0.930 . S
H518 C552 0.932 . S
H519 C554 0.931 . S
H520 C555 0.929 . S
H521 C557 0.929 . S
H522 C558 0.931 . S
H523 C560 0.929 . S
N524 C544 1.433 . S
N524 C550 1.435 . S
N524 C556 1.423 . S
H525 C561 0.932 . S
C526 N501 1.433 . S
C526 C527 1.363 . S
C526 C531 1.370 . S
C527 H500 0.929 . S
C527 C526 1.363 . S
C527 C528 1.385 . S
C528 H502 0.930 . S
C528 C527 1.385 . S
C528 C529 1.357 . S
C529 C528 1.357 . S
C529 C530 1.406 . S
C530 H504 0.929 . S
C530 C529 1.406 . S
C530 C531 1.391 . S
C531 H503 0.931 . S
C531 C526 1.370 . S
C531 C530 1.391 . S
C532 N501 1.435 . S
C532 C533 1.358 . S
C532 C537 1.371 . S
C533 H505 0.930 . S
C533 C532 1.358 . S
C533 C534 1.405 . S
C534 H506 0.932 . S
C534 C533 1.405 . S
C534 C535 1.383 . S
C535 C534 1.383 . S
C535 C536 1.393 . S
C536 H508 0.931 . S
C536 C535 1.393 . S
C536 C537 1.382 . S
C537 H507 0.929 . S
C537 C532 1.371 . S
C537 C536 1.382 . S
C538 N501 1.423 . S
C538 C539 1.362 . S
C538 C543 1.388 . S
C539 H509 0.929 . S
C539 C538 1.362 . S
C539 C540 1.376 . S
C540 H511 0.931 . S
C540 C539 1.376 . S
C540 C541 1.396 . S
C541 C540 1.396 . S
C541 C542 1.348 . S
C541 C559 1.472 . S
C542 H512 0.929 . S
C542 C541 1.348 . S
C542 C543 1.443 . S
C543 H510 0.932 . S
C543 C538 1.388 . S
C543 C542 1.443 . S
C544 N524 1.433 . S
C544 C545 1.363 . S
C544 C549 1.370 . S
C545 H513 0.929 . S
C545 C544 1.363 . S
C545 C546 1.385 . S
C546 H514 0.930 . S
C546 C545 1.385 . S
C546 C547 1.357 . S
C547 C546 1.357 . S
C547 C548 1.406 . S
C548 H515 0.929 . S
C548 C547 1.406 . S
C548 C549 1.391 . S
C549 H516 0.931 . S
C549 C544 1.370 . S
C549 C548 1.391 . S
C550 N524 1.435 . S
C550 C551 1.358 . S
C550 C555 1.371 . S
C551 H517 0.930 . S
C551 C550 1.358 . S
C551 C552 1.405 . S
C552 H518 0.932 . S
C552 C551 1.405 . S
C552 C553 1.383 . S
C553 C552 1.383 . S
C553 C554 1.393 . S
C554 H519 0.931 . S
C554 C553 1.393 . S
C554 C555 1.382 . S
C555 H520 0.929 . S
C555 C550 1.371 . S
C555 C554 1.382 . S
C556 N524 1.423 . S
C556 C557 1.362 . S
C556 C561 1.388 . S
C557 H521 0.929 . S
C557 C556 1.362 . S
C557 C558 1.376 . S
C558 H522 0.931 . S
C558 C557 1.376 . S
C558 C559 1.396 . S
C559 C541 1.472 . S
C559 C558 1.396 . S
C559 C560 1.348 . S
C560 H523 0.929 . S
C560 C559 1.348 . S
C560 C561 1.443 . S
C561 H525 0.932 . S
C561 C556 1.388 . S
C561 C560 1.443 . S
H562 C589 0.929 . S
N563 C588 1.433 . S
N563 C594 1.435 . S
N563 C600 1.423 . S
H564 C590 0.930 . S
H565 C593 0.931 . S
H566 C592 0.929 . S
H567 C595 0.930 . S
H568 C596 0.932 . S
H569 C599 0.929 . S
H570 C598 0.931 . S
H571 C601 0.929 . S
H572 C605 0.932 . S
H573 C602 0.931 . S
H574 C604 0.929 . S
H575 C607 0.929 . S
H576 C608 0.930 . S
H577 C610 0.929 . S
H578 C611 0.931 . S
H579 C613 0.930 . S
H580 C614 0.932 . S
H581 C616 0.931 . S
H582 C617 0.929 . S
H583 C619 0.929 . S
H584 C620 0.931 . S
H585 C622 0.929 . S
N586 C606 1.433 . S
N586 C612 1.435 . S
N586 C618 1.423 . S
H587 C623 0.932 . S
C588 N563 1.433 . S
C588 C589 1.363 . S
C588 C593 1.370 . S
C589 H562 0.929 . S
C589 C588 1.363 . S
C589 C590 1.385 . S
C590 H564 0.930 . S
C590 C589 1.385 . S
C590 C591 1.357 . S
C591 C590 1.357 . S
C591 C592 1.406 . S
C592 H566 0.929 . S
C592 C591 1.406 . S
C592 C593 1.391 . S
C593 H565 0.931 . S
C593 C588 1.370 . S
C593 C592 1.391 . S
C594 N563 1.435 . S
C594 C595 1.358 . S
C594 C599 1.371 . S
C595 H567 0.930 . S
C595 C594 1.358 . S
C595 C596 1.405 . S
C596 H568 0.932 . S
C596 C595 1.405 . S
C596 C597 1.383 . S
C597 C596 1.383 . S
C597 C598 1.393 . S
C598 H570 0.931 . S
C598 C597 1.393 . S
C598 C599 1.382 . S
C599 H569 0.929 . S
C599 C594 1.371 . S
C599 C598 1.382 . S
C600 N563 1.423 . S
C600 C601 1.362 . S
C600 C605 1.388 . S
C601 H571 0.929 . S
C601 C600 1.362 . S
C601 C602 1.376 . S
C602 H573 0.931 . S
C602 C601 1.376 . S
C602 C603 1.396 . S
C603 C602 1.396 . S
C603 C604 1.348 . S
C603 C621 1.472 . S
C604 H574 0.929 . S
C604 C603 1.348 . S
C604 C605 1.443 . S
C605 H572 0.932 . S
C605 C600 1.388 . S
C605 C604 1.443 . S
C606 N586 1.433 . S
C606 C607 1.363 . S
C606 C611 1.370 . S
C607 H575 0.929 . S
C607 C606 1.363 . S
C607 C608 1.385 . S
C608 H576 0.930 . S
C608 C607 1.385 . S
C608 C609 1.357 . S
C609 C608 1.357 . S
C609 C610 1.406 . S
C610 H577 0.929 . S
C610 C609 1.406 . S
C610 C611 1.391 . S
C611 H578 0.931 . S
C611 C606 1.370 . S
C611 C610 1.391 . S
C612 N586 1.435 . S
C612 C613 1.358 . S
C612 C617 1.371 . S
C613 H579 0.930 . S
C613 C612 1.358 . S
C613 C614 1.405 . S
C614 H580 0.932 . S
C614 C613 1.405 . S
C614 C615 1.383 . S
C615 C614 1.383 . S
C615 C616 1.393 . S
C616 H581 0.931 . S
C616 C615 1.393 . S
C616 C617 1.382 . S
C617 H582 0.929 . S
C617 C612 1.371 . S
C617 C616 1.382 . S
C618 N586 1.423 . S
C618 C619 1.362 . S
C618 C623 1.388 . S
C619 H583 0.929 . S
C619 C618 1.362 . S
C619 C620 1.376 . S
C620 H584 0.931 . S
C620 C619 1.376 . S
C620 C621 1.396 . S
C621 C603 1.472 . S
C621 C620 1.396 . S
C621 C622 1.348 . S
C622 H585 0.929 . S
C622 C621 1.348 . S
C622 C623 1.443 . S
C623 H587 0.932 . S
C623 C618 1.388 . S
C623 C622 1.443 . S
H624 C651 0.929 . S
N625 C650 1.433 . S
N625 C656 1.435 . S
N625 C662 1.423 . S
H626 C652 0.930 . S
H627 C655 0.931 . S
H628 C654 0.929 . S
H629 C657 0.930 . S
H630 C658 0.932 . S
H631 C661 0.929 . S
H632 C660 0.931 . S
H633 C663 0.929 . S
H634 C667 0.932 . S
H635 C664 0.931 . S
H636 C666 0.929 . S
H637 C669 0.929 . S
H638 C670 0.930 . S
H639 C672 0.929 . S
H640 C673 0.931 . S
H641 C675 0.930 . S
H642 C676 0.932 . S
H643 C678 0.931 . S
H644 C679 0.929 . S
H645 C681 0.929 . S
H646 C682 0.931 . S
H647 C684 0.929 . S
N648 C668 1.433 . S
N648 C674 1.435 . S
N648 C680 1.423 . S
H649 C685 0.932 . S
C650 N625 1.433 . S
C650 C651 1.363 . S
C650 C655 1.370 . S
C651 H624 0.929 . S
C651 C650 1.363 . S
C651 C652 1.385 . S
C652 H626 0.930 . S
C652 C651 1.385 . S
C652 C653 1.357 . S
C653 C652 1.357 . S
C653 C654 1.406 . S
C654 H628 0.929 . S
C654 C653 1.406 . S
C654 C655 1.391 . S
C655 H627 0.931 . S
C655 C650 1.370 . S
C655 C654 1.391 . S
C656 N625 1.435 . S
C656 C657 1.358 . S
C656 C661 1.371 . S
C657 H629 0.930 . S
C657 C656 1.358 . S
C657 C658 1.405 . S
C658 H630 0.932 . S
C658 C657 1.405 . S
C658 C659 1.383 . S
C659 C658 1.383 . S
C659 C660 1.393 . S
C660 H632 0.931 . S
C660 C659 1.393 . S
C660 C661 1.382 . S
C661 H631 0.929 . S
C661 C656 1.371 . S
C661 C660 1.382 . S
C662 N625 1.423 . S
C662 C663 1.362 . S
C662 C667 1.388 . S
C663 H633 0.929 . S
C663 C662 1.362 . S
C663 C664 1.376 . S
C664 H635 0.931 . S
C664 C663 1.376 . S
C664 C665 1.396 . S
C665 C664 1.396 . S
C665 C666 1.348 . S
C665 C683 1.472 . S
C666 H636 0.929 . S
C666 C665 1.348 . S
C666 C667 1.443 . S
C667 H634 0.932 . S
C667 C662 1.388 . S
C667 C666 1.443 . S
C668 N648 1.433 . S
C668 C669 1.363 . S
C668 C673 1.370 . S
C669 H637 0.929 . S
C669 C668 1.363 . S
C669 C670 1.385 . S
C670 H638 0.930 . S
C670 C669 1.385 . S
C670 C671 1.357 . S
C671 C670 1.357 . S
C671 C672 1.406 . S
C672 H639 0.929 . S
C672 C671 1.406 . S
C672 C673 1.391 . S
C673 H640 0.931 . S
C673 C668 1.370 . S
C673 C672 1.391 . S
C674 N648 1.435 . S
C674 C675 1.358 . S
C674 C679 1.371 . S
C675 H641 0.930 . S
C675 C674 1.358 . S
C675 C676 1.405 . S
C676 H642 0.932 . S
C676 C675 1.405 . S
C676 C677 1.383 . S
C677 C676 1.383 . S
C677 C678 1.393 . S
C678 H643 0.931 . S
C678 C677 1.393 . S
C678 C679 1.382 . S
C679 H644 0.929 . S
C679 C674 1.371 . S
C679 C678 1.382 . S
C680 N648 1.423 . S
C680 C681 1.362 . S
C680 C685 1.388 . S
C681 H645 0.929 . S
C681 C680 1.362 . S
C681 C682 1.376 . S
C682 H646 0.931 . S
C682 C681 1.376 . S
C682 C683 1.396 . S
C683 C665 1.472 . S
C683 C682 1.396 . S
C683 C684 1.348 . S
C684 H647 0.929 . S
C684 C683 1.348 . S
C684 C685 1.443 . S
C685 H649 0.932 . S
C685 C680 1.388 . S
C685 C684 1.443 . S
H686 C713 0.929 . S
N687 C712 1.433 . S
N687 C718 1.435 . S
N687 C724 1.423 . S
H688 C714 0.930 . S
H689 C717 0.931 . S
H690 C716 0.929 . S
H691 C719 0.930 . S
H692 C720 0.932 . S
H693 C723 0.929 . S
H694 C722 0.931 . S
H695 C725 0.929 . S
H696 C729 0.932 . S
H697 C726 0.931 . S
H698 C728 0.929 . S
H699 C731 0.929 . S
H700 C732 0.930 . S
H701 C734 0.929 . S
H702 C735 0.931 . S
H703 C737 0.930 . S
H704 C738 0.932 . S
H705 C740 0.931 . S
H706 C741 0.929 . S
H707 C743 0.929 . S
H708 C744 0.931 . S
H709 C746 0.929 . S
N710 C730 1.433 . S
N710 C736 1.435 . S
N710 C742 1.423 . S
H711 C747 0.932 . S
C712 N687 1.433 . S
C712 C713 1.363 . S
C712 C717 1.370 . S
C713 H686 0.929 . S
C713 C712 1.363 . S
C713 C714 1.385 . S
C714 H688 0.930 . S
C714 C713 1.385 . S
C714 C715 1.357 . S
C715 C714 1.357 . S
C715 C716 1.406 . S
C716 H690 0.929 . S
C716 C715 1.406 . S
C716 C717 1.391 . S
C717 H689 0.931 . S
C717 C712 1.370 . S
C717 C716 1.391 . S
C718 N687 1.435 . S
C718 C719 1.358 . S
C718 C723 1.371 . S
C719 H691 0.930 . S
C719 C718 1.358 . S
C719 C720 1.405 . S
C720 H692 0.932 . S
C720 C719 1.405 . S
C720 C721 1.383 . S
C721 C720 1.383 . S
C721 C722 1.393 . S
C722 H694 0.931 . S
C722 C721 1.393 . S
C722 C723 1.382 . S
C723 H693 0.929 . S
C723 C718 1.371 . S
C723 C722 1.382 . S
C724 N687 1.423 . S
C724 C725 1.362 . S
C724 C729 1.388 . S
C725 H695 0.929 . S
C725 C724 1.362 . S
C725 C726 1.376 . S
C726 H697 0.931 . S
C726 C725 1.376 . S
C726 C727 1.396 . S
C727 C726 1.396 . S
C727 C728 1.348 . S
C727 C745 1.472 . S
C728 H698 0.929 . S
C728 C727 1.348 . S
C728 C729 1.443 . S
C729 H696 0.932 . S
C729 C724 1.388 . S
C729 C728 1.443 . S
C730 N710 1.433 . S
C730 C731 1.363 . S
C730 C735 1.370 . S
C731 H699 0.929 . S
C731 C730 1.363 . S
C731 C732 1.385 . S
C732 H700 0.930 . S
C732 C731 1.385 . S
C732 C733 1.357 . S
C733 C732 1.357 . S
C733 C734 1.406 . S
C734 H701 0.929 . S
C734 C733 1.406 . S
C734 C735 1.391 . S
C735 H702 0.931 . S
C735 C730 1.370 . S
C735 C734 1.391 . S
C736 N710 1.435 . S
C736 C737 1.358 . S
C736 C741 1.371 . S
C737 H703 0.930 . S
C737 C736 1.358 . S
C737 C738 1.405 . S
C738 H704 0.932 . S
C738 C737 1.405 . S
C738 C739 1.383 . S
C739 C738 1.383 . S
C739 C740 1.393 . S
C740 H705 0.931 . S
C740 C739 1.393 . S
C740 C741 1.382 . S
C741 H706 0.929 . S
C741 C736 1.371 . S
C741 C740 1.382 . S
C742 N710 1.423 . S
C742 C743 1.362 . S
C742 C747 1.388 . S
C743 H707 0.929 . S
C743 C742 1.362 . S
C743 C744 1.376 . S
C744 H708 0.931 . S
C744 C743 1.376 . S
C744 C745 1.396 . S
C745 C727 1.472 . S
C745 C744 1.396 . S
C745 C746 1.348 . S
C746 H709 0.929 . S
C746 C745 1.348 . S
C746 C747 1.443 . S
C747 H711 0.932 . S
C747 C742 1.388 . S
C747 C746 1.443 . S
H748 C775 0.929 . S
N749 C774 1.433 . S
N749 C780 1.435 . S
N749 C786 1.423 . S
H750 C776 0.930 . S
H751 C779 0.931 . S
H752 C778 0.929 . S
H753 C781 0.930 . S
H754 C782 0.932 . S
H755 C785 0.929 . S
H756 C784 0.931 . S
H757 C787 0.929 . S
H758 C791 0.932 . S
H759 C788 0.931 . S
H760 C790 0.929 . S
H761 C793 0.929 . S
H762 C794 0.930 . S
H763 C796 0.929 . S
H764 C797 0.931 . S
H765 C799 0.930 . S
H766 C800 0.932 . S
H767 C802 0.931 . S
H768 C803 0.929 . S
H769 C805 0.929 . S
H770 C806 0.931 . S
H771 C808 0.929 . S
N772 C792 1.433 . S
N772 C798 1.435 . S
N772 C804 1.423 . S
H773 C809 0.932 . S
C774 N749 1.433 . S
C774 C775 1.363 . S
C774 C779 1.370 . S
C775 H748 0.929 . S
C775 C774 1.363 . S
C775 C776 1.385 . S
C776 H750 0.930 . S
C776 C775 1.385 . S
C776 C777 1.357 . S
C777 C776 1.357 . S
C777 C778 1.406 . S
C778 H752 0.929 . S
C778 C777 1.406 . S
C778 C779 1.391 . S
C779 H751 0.931 . S
C779 C774 1.370 . S
C779 C778 1.391 . S
C780 N749 1.435 . S
C780 C781 1.358 . S
C780 C785 1.371 . S
C781 H753 0.930 . S
C781 C780 1.358 . S
C781 C782 1.405 . S
C782 H754 0.932 . S
C782 C781 1.405 . S
C782 C783 1.383 . S
C783 C782 1.383 . S
C783 C784 1.393 . S
C784 H756 0.931 . S
C784 C783 1.393 . S
C784 C785 1.382 . S
C785 H755 0.929 . S
C785 C780 1.371 . S
C785 C784 1.382 . S
C786 N749 1.423 . S
C786 C787 1.362 . S
C786 C791 1.388 . S
C787 H757 0.929 . S
C787 C786 1.362 . S
C787 C788 1.376 . S
C788 H759 0.931 . S
C788 C787 1.376 . S
C788 C789 1.396 . S
C789 C788 1.396 . S
C789 C790 1.348 . S
C789 C807 1.472 . S
C790 H760 0.929 . S
C790 C789 1.348 . S
C790 C791 1.443 . S
C791 H758 0.932 . S
C791 C786 1.388 . S
C791 C790 1.443 . S
C792 N772 1.433 . S
C792 C793 1.363 . S
C792 C797 1.370 . S
C793 H761 0.929 . S
C793 C792 1.363 . S
C793 C794 1.385 . S
C794 H762 0.930 . S
C794 C793 1.385 . S
C794 C795 1.357 . S
C795 C794 1.357 . S
C795 C796 1.406 . S
C796 H763 0.929 . S
C796 C795 1.406 . S
C796 C797 1.391 . S
C797 H764 0.931 . S
C797 C792 1.370 . S
C797 C796 1.391 . S
C798 N772 1.435 . S
C798 C799 1.358 . S
C798 C803 1.371 . S
C799 H765 0.930 . S
C799 C798 1.358 . S
C799 C800 1.405 . S
C800 H766 0.932 . S
C800 C799 1.405 . S
C800 C801 1.383 . S
C801 C800 1.383 . S
C801 C802 1.393 . S
C802 H767 0.931 . S
C802 C801 1.393 . S
C802 C803 1.382 . S
C803 H768 0.929 . S
C803 C798 1.371 . S
C803 C802 1.382 . S
C804 N772 1.423 . S
C804 C805 1.362 . S
C804 C809 1.388 . S
C805 H769 0.929 . S
C805 C804 1.362 . S
C805 C806 1.376 . S
C806 H770 0.931 . S
C806 C805 1.376 . S
C806 C807 1.396 . S
C807 C789 1.472 . S
C807 C806 1.396 . S
C807 C808 1.348 . S
C808 H771 0.929 . S
C808 C807 1.348 . S
C808 C809 1.443 . S
C809 H773 0.932 . S
C809 C804 1.388 . S
C809 C808 1.443 . S
H810 C837 0.929 . S
N811 C836 1.433 . S
N811 C842 1.435 . S
N811 C848 1.423 . S
H812 C838 0.930 . S
H813 C841 0.931 . S
H814 C840 0.929 . S
H815 C843 0.930 . S
H816 C844 0.932 . S
H817 C847 0.929 . S
H818 C846 0.931 . S
H819 C849 0.929 . S
H820 C853 0.932 1_655 S
H821 C850 0.931 . S
H822 C852 0.929 . S
H823 C855 0.929 . S
H824 C856 0.930 . S
H825 C858 0.929 . S
H826 C859 0.931 . S
H827 C861 0.930 . S
H828 C862 0.932 . S
H829 C864 0.931 . S
H830 C865 0.929 . S
H831 C867 0.929 . S
H832 C868 0.931 . S
H833 C870 0.929 . S
N834 C854 1.433 . S
N834 C860 1.435 . S
N834 C866 1.423 . S
H835 C871 0.932 1_655 S
C836 N811 1.433 . S
C836 C837 1.363 . S
C836 C841 1.370 1_455 S
C837 H810 0.929 . S
C837 C836 1.363 . S
C837 C838 1.385 . S
C838 H812 0.930 . S
C838 C837 1.385 . S
C838 C839 1.357 1_455 S
C839 C838 1.357 1_655 S
C839 C840 1.406 . S
C840 H814 0.929 . S
C840 C839 1.406 . S
C840 C841 1.391 . S
C841 H813 0.931 . S
C841 C836 1.370 1_655 S
C841 C840 1.391 . S
C842 N811 1.435 . S
C842 C843 1.358 1_455 S
C842 C847 1.371 . S
C843 H815 0.930 . S
C843 C842 1.358 1_655 S
C843 C844 1.405 . S
C844 H816 0.932 . S
C844 C843 1.405 . S
C844 C845 1.383 1_655 S
C845 C844 1.383 1_455 S
C845 C846 1.393 . S
C846 H818 0.931 . S
C846 C845 1.393 . S
C846 C847 1.382 . S
C847 H817 0.929 . S
C847 C842 1.371 . S
C847 C846 1.382 . S
C848 N811 1.423 . S
C848 C849 1.362 . S
C848 C853 1.388 . S
C849 H819 0.929 . S
C849 C848 1.362 . S
C849 C850 1.376 . S
C850 H821 0.931 . S
C850 C849 1.376 . S
C850 C851 1.396 . S
C851 C850 1.396 . S
C851 C852 1.348 . S
C851 C869 1.472 . S
C852 H822 0.929 . S
C852 C851 1.348 . S
C852 C853 1.443 . S
C853 H820 0.932 1_455 S
C853 C848 1.388 . S
C853 C852 1.443 . S
C854 N834 1.433 . S
C854 C855 1.363 . S
C854 C859 1.370 1_455 S
C855 H823 0.929 . S
C855 C854 1.363 . S
C855 C856 1.385 . S
C856 H824 0.930 . S
C856 C855 1.385 . S
C856 C857 1.357 1_455 S
C857 C856 1.357 1_655 S
C857 C858 1.406 . S
C858 H825 0.929 . S
C858 C857 1.406 . S
C858 C859 1.391 . S
C859 H826 0.931 . S
C859 C854 1.370 1_655 S
C859 C858 1.391 . S
C860 N834 1.435 . S
C860 C861 1.358 1_455 S
C860 C865 1.371 . S
C861 H827 0.930 . S
C861 C860 1.358 1_655 S
C861 C862 1.405 . S
C862 H828 0.932 . S
C862 C861 1.405 . S
C862 C863 1.383 1_655 S
C863 C862 1.383 1_455 S
C863 C864 1.393 . S
C864 H829 0.931 . S
C864 C863 1.393 . S
C864 C865 1.382 . S
C865 H830 0.929 . S
C865 C860 1.371 . S
C865 C864 1.382 . S
C866 N834 1.423 . S
C866 C867 1.362 . S
C866 C871 1.388 . S
C867 H831 0.929 . S
C867 C866 1.362 . S
C867 C868 1.376 . S
C868 H832 0.931 . S
C868 C867 1.376 . S
C868 C869 1.396 . S
C869 C851 1.472 . S
C869 C868 1.396 . S
C869 C870 1.348 . S
C870 H833 0.929 . S
C870 C869 1.348 . S
C870 C871 1.443 . S
C871 H835 0.932 1_455 S
C871 C866 1.388 . S
C871 C870 1.443 . S
H872 C899 0.929 . S
N873 C898 1.433 . S
N873 C904 1.435 . S
N873 C910 1.423 . S
H874 C900 0.930 . S
H875 C903 0.931 . S
H876 C902 0.929 . S
H877 C905 0.930 . S
H878 C906 0.932 . S
H879 C909 0.929 . S
H880 C908 0.931 . S
H881 C911 0.929 . S
H882 C915 0.932 . S
H883 C912 0.931 . S
H884 C914 0.929 . S
H885 C917 0.929 . S
H886 C918 0.930 . S
H887 C920 0.929 . S
H888 C921 0.931 . S
H889 C923 0.930 . S
H890 C924 0.932 . S
H891 C926 0.931 . S
H892 C927 0.929 . S
H893 C929 0.929 . S
H894 C930 0.931 . S
H895 C932 0.929 . S
N896 C916 1.433 . S
N896 C922 1.435 . S
N896 C928 1.423 . S
H897 C933 0.932 . S
C898 N873 1.433 . S
C898 C899 1.363 . S
C898 C903 1.370 . S
C899 H872 0.929 . S
C899 C898 1.363 . S
C899 C900 1.385 . S
C900 H874 0.930 . S
C900 C899 1.385 . S
C900 C901 1.357 . S
C901 C900 1.357 . S
C901 C902 1.406 . S
C902 H876 0.929 . S
C902 C901 1.406 . S
C902 C903 1.391 . S
C903 H875 0.931 . S
C903 C898 1.370 . S
C903 C902 1.391 . S
C904 N873 1.435 . S
C904 C905 1.358 . S
C904 C909 1.371 . S
C905 H877 0.930 . S
C905 C904 1.358 . S
C905 C906 1.405 . S
C906 H878 0.932 . S
C906 C905 1.405 . S
C906 C907 1.383 . S
C907 C906 1.383 . S
C907 C908 1.393 . S
C908 H880 0.931 . S
C908 C907 1.393 . S
C908 C909 1.382 . S
C909 H879 0.929 . S
C909 C904 1.371 . S
C909 C908 1.382 . S
C910 N873 1.423 . S
C910 C911 1.362 . S
C910 C915 1.388 . S
C911 H881 0.929 . S
C911 C910 1.362 . S
C911 C912 1.376 . S
C912 H883 0.931 . S
C912 C911 1.376 . S
C912 C913 1.396 . S
C913 C912 1.396 . S
C913 C914 1.348 . S
C913 C931 1.472 . S
C914 H884 0.929 . S
C914 C913 1.348 . S
C914 C915 1.443 . S
C915 H882 0.932 . S
C915 C910 1.388 . S
C915 C914 1.443 . S
C916 N896 1.433 . S
C916 C917 1.363 . S
C916 C921 1.370 . S
C917 H885 0.929 . S
C917 C916 1.363 . S
C917 C918 1.385 . S
C918 H886 0.930 . S
C918 C917 1.385 . S
C918 C919 1.357 . S
C919 C918 1.357 . S
C919 C920 1.406 . S
C920 H887 0.929 . S
C920 C919 1.406 . S
C920 C921 1.391 . S
C921 H888 0.931 . S
C921 C916 1.370 . S
C921 C920 1.391 . S
C922 N896 1.435 . S
C922 C923 1.358 . S
C922 C927 1.371 . S
C923 H889 0.930 . S
C923 C922 1.358 . S
C923 C924 1.405 . S
C924 H890 0.932 . S
C924 C923 1.405 . S
C924 C925 1.383 . S
C925 C924 1.383 . S
C925 C926 1.393 . S
C926 H891 0.931 . S
C926 C925 1.393 . S
C926 C927 1.382 . S
C927 H892 0.929 . S
C927 C922 1.371 . S
C927 C926 1.382 . S
C928 N896 1.423 . S
C928 C929 1.362 . S
C928 C933 1.388 . S
C929 H893 0.929 . S
C929 C928 1.362 . S
C929 C930 1.376 . S
C930 H894 0.931 . S
C930 C929 1.376 . S
C930 C931 1.396 . S
C931 C913 1.472 . S
C931 C930 1.396 . S
C931 C932 1.348 . S
C932 H895 0.929 . S
C932 C931 1.348 . S
C932 C933 1.443 . S
C933 H897 0.932 . S
C933 C928 1.388 . S
C933 C932 1.443 . S
H934 C961 0.929 . S
N935 C960 1.433 . S
N935 C966 1.435 . S
N935 C972 1.423 . S
H936 C962 0.930 . S
H937 C965 0.931 . S
H938 C964 0.929 . S
H939 C967 0.930 . S
H940 C968 0.932 . S
H941 C971 0.929 . S
H942 C970 0.931 . S
H943 C973 0.929 . S
H944 C977 0.932 1_545 S
H945 C974 0.931 . S
H946 C976 0.929 . S
H947 C979 0.929 . S
H948 C980 0.930 . S
H949 C982 0.929 . S
H950 C983 0.931 . S
H951 C985 0.930 . S
H952 C986 0.932 . S
H953 C988 0.931 . S
H954 C989 0.929 . S
H955 C991 0.929 . S
H956 C992 0.931 . S
H957 C994 0.929 . S
N958 C978 1.433 . S
N958 C984 1.435 . S
N958 C990 1.423 . S
H959 C995 0.932 1_545 S
C960 N935 1.433 . S
C960 C961 1.363 . S
C960 C965 1.370 1_565 S
C961 H934 0.929 . S
C961 C960 1.363 . S
C961 C962 1.385 . S
C962 H936 0.930 . S
C962 C961 1.385 . S
C962 C963 1.357 1_565 S
C963 C962 1.357 1_545 S
C963 C964 1.406 . S
C964 H938 0.929 . S
C964 C963 1.406 . S
C964 C965 1.391 . S
C965 H937 0.931 . S
C965 C960 1.370 1_545 S
C965 C964 1.391 . S
C966 N935 1.435 . S
C966 C967 1.358 1_565 S
C966 C971 1.371 . S
C967 H939 0.930 . S
C967 C966 1.358 1_545 S
C967 C968 1.405 . S
C968 H940 0.932 . S
C968 C967 1.405 . S
C968 C969 1.383 1_545 S
C969 C968 1.383 1_565 S
C969 C970 1.393 . S
C970 H942 0.931 . S
C970 C969 1.393 . S
C970 C971 1.382 . S
C971 H941 0.929 . S
C971 C966 1.371 . S
C971 C970 1.382 . S
C972 N935 1.423 . S
C972 C973 1.362 . S
C972 C977 1.388 . S
C973 H943 0.929 . S
C973 C972 1.362 . S
C973 C974 1.376 . S
C974 H945 0.931 . S
C974 C973 1.376 . S
C974 C975 1.396 . S
C975 C974 1.396 . S
C975 C976 1.348 . S
C975 C993 1.472 . S
C976 H946 0.929 . S
C976 C975 1.348 . S
C976 C977 1.443 . S
C977 H944 0.932 1_565 S
C977 C972 1.388 . S
C977 C976 1.443 . S
C978 N958 1.433 . S
C978 C979 1.363 . S
C978 C983 1.370 1_565 S
C979 H947 0.929 . S
C979 C978 1.363 . S
C979 C980 1.385 . S
C980 H948 0.930 . S
C980 C979 1.385 . S
C980 C981 1.357 1_565 S
C981 C980 1.357 1_545 S
C981 C982 1.406 . S
C982 H949 0.929 . S
C982 C981 1.406 . S
C982 C983 1.391 . S
C983 H950 0.931 . S
C983 C978 1.370 1_545 S
C983 C982 1.391 . S
C984 N958 1.435 . S
C984 C985 1.358 1_565 S
C984 C989 1.371 . S
C985 H951 0.930 . S
C985 C984 1.358 1_545 S
C985 C986 1.405 . S
C986 H952 0.932 . S
C986 C985 1.405 . S
C986 C987 1.383 1_545 S
C987 C986 1.383 1_565 S
C987 C988 1.393 . S
C988 H953 0.931 . S
C988 C987 1.393 . S
C988 C989 1.382 . S
C989 H954 0.929 . S
C989 C984 1.371 . S
C989 C988 1.382 . S
C990 N958 1.423 . S
C990 C991 1.362 . S
C990 C995 1.388 . S
C991 H955 0.929 . S
C991 C990 1.362 . S
C991 C992 1.376 . S
C992 H956 0.931 . S
C992 C991 1.376 . S
C992 C993 1.396 . S
C993 C975 1.472 . S
C993 C992 1.396 . S
C993 C994 1.348 . S
C994 H957 0.929 . S
C994 C993 1.348 . S
C994 C995 1.443 . S
C995 H959 0.932 1_565 S
C995 C990 1.388 . S
C995 C994 1.443 . S
H996 C1023 0.929 . S
N997 C1022 1.433 . S
N997 C1028 1.435 . S
N997 C1034 1.423 . S
H998 C1024 0.930 . S
H999 C1027 0.931 . S
H1000 C1026 0.929 . S
H1001 C1029 0.930 . S
H1002 C1030 0.932 . S
H1003 C1033 0.929 . S
H1004 C1032 0.931 . S
H1005 C1035 0.929 . S
H1006 C1039 0.932 . S
H1007 C1036 0.931 . S
H1008 C1038 0.923 1_545 S
H1009 C1041 0.929 . S
H1010 C1042 0.930 . S
H1011 C1044 0.958 . S
H1012 C1045 0.943 . S
H1013 C1047 0.930 . S
H1014 C1048 0.932 . S
H1015 C1050 0.931 . S
H1016 C1051 0.929 . S
H1017 C1053 0.929 . S
H1018 C1054 0.931 . S
H1019 C1056 0.877 1_545 S
N1020 C1040 1.433 . S
N1020 C1046 1.435 . S
N1020 C1052 1.423 . S
H1021 C1057 0.951 . S
C1022 N997 1.433 . S
C1022 C1023 1.363 . S
C1022 C1027 1.370 1_565 S
C1023 H996 0.929 . S
C1023 C1022 1.363 . S
C1023 C1024 1.385 . S
C1024 H998 0.930 . S
C1024 C1023 1.385 . S
C1024 C1025 1.357 . S
C1025 C1024 1.357 . S
C1025 C1026 1.406 1_565 S
C1026 H1000 0.929 . S
C1026 C1025 1.406 1_545 S
C1026 C1027 1.391 . S
C1027 H999 0.931 . S
C1027 C1022 1.370 1_545 S
C1027 C1026 1.391 . S
C1028 N997 1.435 . S
C1028 C1029 1.358 1_565 S
C1028 C1033 1.371 . S
C1029 H1001 0.930 . S
C1029 C1028 1.358 1_545 S
C1029 C1030 1.405 . S
C1030 H1002 0.932 . S
C1030 C1029 1.405 . S
C1030 C1031 1.383 . S
C1031 C1030 1.383 . S
C1031 C1032 1.393 1_545 S
C1032 H1004 0.931 . S
C1032 C1031 1.393 1_565 S
C1032 C1033 1.382 . S
C1033 H1003 0.929 . S
C1033 C1028 1.371 . S
C1033 C1032 1.382 . S
C1034 N997 1.423 . S
C1034 C1035 1.362 . S
C1034 C1039 1.388 1_565 S
C1035 H1005 0.929 . S
C1035 C1034 1.362 . S
C1035 C1036 1.376 . S
C1036 H1007 0.931 . S
C1036 C1035 1.376 . S
C1036 C1037 1.396 . S
C1037 C1036 1.396 . S
C1037 C1038 1.376 . S
C1037 C1055 1.472 . S
C1038 H1008 0.923 1_565 S
C1038 C1037 1.376 . S
C1038 C1039 1.421 1_565 S
C1039 H1006 0.932 . S
C1039 C1034 1.388 1_545 S
C1039 C1038 1.421 1_545 S
C1040 N1020 1.433 . S
C1040 C1041 1.363 . S
C1040 C1045 1.361 1_565 S
C1041 H1009 0.929 . S
C1041 C1040 1.363 . S
C1041 C1042 1.385 . S
C1042 H1010 0.930 . S
C1042 C1041 1.385 . S
C1042 C1043 1.357 . S
C1043 C1042 1.357 . S
C1043 C1044 1.371 1_565 S
C1044 H1011 0.958 . S
C1044 C1043 1.371 1_545 S
C1044 C1045 1.396 . S
C1045 H1012 0.943 . S
C1045 C1040 1.361 1_545 S
C1045 C1044 1.396 . S
C1046 N1020 1.435 . S
C1046 C1047 1.358 1_565 S
C1046 C1051 1.371 . S
C1047 H1013 0.930 . S
C1047 C1046 1.358 1_545 S
C1047 C1048 1.405 . S
C1048 H1014 0.932 . S
C1048 C1047 1.405 . S
C1048 C1049 1.383 . S
C1049 C1048 1.383 . S
C1049 C1050 1.393 1_545 S
C1050 H1015 0.931 . S
C1050 C1049 1.393 1_565 S
C1050 C1051 1.382 . S
C1051 H1016 0.929 . S
C1051 C1046 1.371 . S
C1051 C1050 1.382 . S
C1052 N1020 1.423 . S
C1052 C1053 1.362 . S
C1052 C1057 1.346 1_565 S
C1053 H1017 0.929 . S
C1053 C1052 1.362 . S
C1053 C1054 1.376 . S
C1054 H1018 0.931 . S
C1054 C1053 1.376 . S
C1054 C1055 1.396 . S
C1055 C1037 1.472 . S
C1055 C1054 1.396 . S
C1055 C1056 1.368 . S
C1056 H1019 0.877 1_565 S
C1056 C1055 1.368 . S
C1056 C1057 1.505 1_565 S
C1057 H1021 0.951 . S
C1057 C1052 1.346 1_545 S
C1057 C1056 1.505 1_545 S
H1058 C1085 0.929 . S
N1059 C1084 1.433 . S
N1059 C1090 1.435 . S
N1059 C1096 1.423 . S
H1060 C1086 0.930 . S
H1061 C1089 0.931 . S
H1062 C1088 0.929 . S
H1063 C1091 0.930 . S
H1064 C1092 0.932 . S
H1065 C1095 0.929 . S
H1066 C1094 0.931 . S
H1067 C1097 0.929 . S
H1068 C1101 0.932 1_455 S
H1069 C1098 0.931 . S
H1070 C1100 0.929 . S
H1071 C1103 0.929 . S
H1072 C1104 0.930 . S
H1073 C1106 0.929 . S
H1074 C1107 0.931 . S
H1075 C1109 0.930 . S
H1076 C1110 0.932 . S
H1077 C1112 0.931 . S
H1078 C1113 0.929 . S
H1079 C1115 0.929 . S
H1080 C1116 0.931 . S
H1081 C1118 0.929 . S
N1082 C1102 1.433 . S
N1082 C1108 1.435 . S
N1082 C1114 1.423 . S
H1083 C1119 0.932 1_455 S
C1084 N1059 1.433 . S
C1084 C1085 1.363 . S
C1084 C1089 1.370 1_655 S
C1085 H1058 0.929 . S
C1085 C1084 1.363 . S
C1085 C1086 1.385 . S
C1086 H1060 0.930 . S
C1086 C1085 1.385 . S
C1086 C1087 1.357 1_655 S
C1087 C1086 1.357 1_455 S
C1087 C1088 1.406 . S
C1088 H1062 0.929 . S
C1088 C1087 1.406 . S
C1088 C1089 1.391 . S
C1089 H1061 0.931 . S
C1089 C1084 1.370 1_455 S
C1089 C1088 1.391 . S
C1090 N1059 1.435 . S
C1090 C1091 1.358 1_655 S
C1090 C1095 1.371 . S
C1091 H1063 0.930 . S
C1091 C1090 1.358 1_455 S
C1091 C1092 1.405 . S
C1092 H1064 0.932 . S
C1092 C1091 1.405 . S
C1092 C1093 1.383 1_455 S
C1093 C1092 1.383 1_655 S
C1093 C1094 1.393 . S
C1094 H1066 0.931 . S
C1094 C1093 1.393 . S
C1094 C1095 1.382 . S
C1095 H1065 0.929 . S
C1095 C1090 1.371 . S
C1095 C1094 1.382 . S
C1096 N1059 1.423 . S
C1096 C1097 1.362 . S
C1096 C1101 1.388 . S
C1097 H1067 0.929 . S
C1097 C1096 1.362 . S
C1097 C1098 1.376 . S
C1098 H1069 0.931 . S
C1098 C1097 1.376 . S
C1098 C1099 1.396 . S
C1099 C1098 1.396 . S
C1099 C1100 1.348 . S
C1099 C1117 1.472 . S
C1100 H1070 0.929 . S
C1100 C1099 1.348 . S
C1100 C1101 1.443 . S
C1101 H1068 0.932 1_655 S
C1101 C1096 1.388 . S
C1101 C1100 1.443 . S
C1102 N1082 1.433 . S
C1102 C1103 1.363 . S
C1102 C1107 1.370 1_655 S
C1103 H1071 0.929 . S
C1103 C1102 1.363 . S
C1103 C1104 1.385 . S
C1104 H1072 0.930 . S
C1104 C1103 1.385 . S
C1104 C1105 1.357 1_655 S
C1105 C1104 1.357 1_455 S
C1105 C1106 1.406 . S
C1106 H1073 0.929 . S
C1106 C1105 1.406 . S
C1106 C1107 1.391 . S
C1107 H1074 0.931 . S
C1107 C1102 1.370 1_455 S
C1107 C1106 1.391 . S
C1108 N1082 1.435 . S
C1108 C1109 1.358 1_655 S
C1108 C1113 1.371 . S
C1109 H1075 0.930 . S
C1109 C1108 1.358 1_455 S
C1109 C1110 1.405 . S
C1110 H1076 0.932 . S
C1110 C1109 1.405 . S
C1110 C1111 1.383 1_455 S
C1111 C1110 1.383 1_655 S
C1111 C1112 1.393 . S
C1112 H1077 0.931 . S
C1112 C1111 1.393 . S
C1112 C1113 1.382 . S
C1113 H1078 0.929 . S
C1113 C1108 1.371 . S
C1113 C1112 1.382 . S
C1114 N1082 1.423 . S
C1114 C1115 1.362 . S
C1114 C1119 1.388 . S
C1115 H1079 0.929 . S
C1115 C1114 1.362 . S
C1115 C1116 1.376 . S
C1116 H1080 0.931 . S
C1116 C1115 1.376 . S
C1116 C1117 1.396 . S
C1117 C1099 1.472 . S
C1117 C1116 1.396 . S
C1117 C1118 1.348 . S
C1118 H1081 0.929 . S
C1118 C1117 1.348 . S
C1118 C1119 1.443 . S
C1119 H1083 0.932 1_655 S
C1119 C1114 1.388 . S
C1119 C1118 1.443 . S
H1120 C1147 0.929 . S
N1121 C1146 1.433 . S
N1121 C1152 1.435 . S
N1121 C1158 1.423 . S
H1122 C1148 0.930 . S
H1123 C1151 0.931 . S
H1124 C1150 0.929 . S
H1125 C1153 0.930 . S
H1126 C1154 0.932 . S
H1127 C1157 0.929 . S
H1128 C1156 0.931 . S
H1129 C1159 0.929 . S
H1130 C1163 0.932 . S
H1131 C1160 0.931 . S
H1132 C1162 0.929 . S
H1133 C1165 0.929 . S
H1134 C1166 0.930 . S
H1135 C1168 0.929 . S
H1136 C1169 0.931 . S
H1137 C1171 0.930 . S
H1138 C1172 0.932 . S
H1139 C1174 0.931 . S
H1140 C1175 0.929 . S
H1141 C1177 0.929 . S
H1142 C1178 0.931 . S
H1143 C1180 0.929 . S
N1144 C1164 1.433 . S
N1144 C1170 1.435 . S
N1144 C1176 1.423 . S
H1145 C1181 0.932 . S
C1146 N1121 1.433 . S
C1146 C1147 1.363 . S
C1146 C1151 1.370 . S
C1147 H1120 0.929 . S
C1147 C1146 1.363 . S
C1147 C1148 1.385 . S
C1148 H1122 0.930 . S
C1148 C1147 1.385 . S
C1148 C1149 1.357 . S
C1149 C1148 1.357 . S
C1149 C1150 1.406 . S
C1150 H1124 0.929 . S
C1150 C1149 1.406 . S
C1150 C1151 1.391 . S
C1151 H1123 0.931 . S
C1151 C1146 1.370 . S
C1151 C1150 1.391 . S
C1152 N1121 1.435 . S
C1152 C1153 1.358 . S
C1152 C1157 1.371 . S
C1153 H1125 0.930 . S
C1153 C1152 1.358 . S
C1153 C1154 1.405 . S
C1154 H1126 0.932 . S
C1154 C1153 1.405 . S
C1154 C1155 1.383 . S
C1155 C1154 1.383 . S
C1155 C1156 1.393 . S
C1156 H1128 0.931 . S
C1156 C1155 1.393 . S
C1156 C1157 1.382 . S
C1157 H1127 0.929 . S
C1157 C1152 1.371 . S
C1157 C1156 1.382 . S
C1158 N1121 1.423 . S
C1158 C1159 1.362 . S
C1158 C1163 1.388 . S
C1159 H1129 0.929 . S
C1159 C1158 1.362 . S
C1159 C1160 1.376 . S
C1160 H1131 0.931 . S
C1160 C1159 1.376 . S
C1160 C1161 1.396 . S
C1161 C1160 1.396 . S
C1161 C1162 1.348 . S
C1161 C1179 1.472 . S
C1162 H1132 0.929 . S
C1162 C1161 1.348 . S
C1162 C1163 1.443 . S
C1163 H1130 0.932 . S
C1163 C1158 1.388 . S
C1163 C1162 1.443 . S
C1164 N1144 1.433 . S
C1164 C1165 1.363 . S
C1164 C1169 1.370 . S
C1165 H1133 0.929 . S
C1165 C1164 1.363 . S
C1165 C1166 1.385 . S
C1166 H1134 0.930 . S
C1166 C1165 1.385 . S
C1166 C1167 1.357 . S
C1167 C1166 1.357 . S
C1167 C1168 1.406 . S
C1168 H1135 0.929 . S
C1168 C1167 1.406 . S
C1168 C1169 1.391 . S
C1169 H1136 0.931 . S
C1169 C1164 1.370 . S
C1169 C1168 1.391 . S
C1170 N1144 1.435 . S
C1170 C1171 1.358 . S
C1170 C1175 1.371 . S
C1171 H1137 0.930 . S
C1171 C1170 1.358 . S
C1171 C1172 1.405 . S
C1172 H1138 0.932 . S
C1172 C1171 1.405 . S
C1172 C1173 1.383 . S
C1173 C1172 1.383 . S
C1173 C1174 1.393 . S
C1174 H1139 0.931 . S
C1174 C1173 1.393 . S
C1174 C1175 1.382 . S
C1175 H1140 0.929 . S
C1175 C1170 1.371 . S
C1175 C1174 1.382 . S
C1176 N1144 1.423 . S
C1176 C1177 1.362 . S
C1176 C1181 1.388 . S
C1177 H1141 0.929 . S
C1177 C1176 1.362 . S
C1177 C1178 1.376 . S
C1178 H1142 0.931 . S
C1178 C1177 1.376 . S
C1178 C1179 1.396 . S
C1179 C1161 1.472 . S
C1179 C1178 1.396 . S
C1179 C1180 1.348 . S
C1180 H1143 0.929 . S
C1180 C1179 1.348 . S
C1180 C1181 1.443 . S
C1181 H1145 0.932 . S
C1181 C1176 1.388 . S
C1181 C1180 1.443 . S
H1182 C1209 0.929 . S
N1183 C1208 1.433 . S
N1183 C1214 1.435 . S
N1183 C1220 1.423 . S
H1184 C1210 0.930 . S
H1185 C1213 0.931 . S
H1186 C1212 0.929 . S
H1187 C1215 0.930 . S
H1188 C1216 0.932 . S
H1189 C1219 0.929 . S
H1190 C1218 0.931 . S
H1191 C1221 0.929 . S
H1192 C1225 0.932 . S
H1193 C1222 0.931 . S
H1194 C1224 0.929 . S
H1195 C1227 0.929 . S
H1196 C1228 0.930 . S
H1197 C1230 0.929 . S
H1198 C1231 0.931 . S
H1199 C1233 0.930 . S
H1200 C1234 0.932 . S
H1201 C1236 0.931 . S
H1202 C1237 0.929 . S
H1203 C1239 0.929 . S
H1204 C1240 0.931 . S
H1205 C1242 0.929 . S
N1206 C1226 1.433 . S
N1206 C1232 1.435 . S
N1206 C1238 1.423 . S
H1207 C1243 0.932 . S
C1208 N1183 1.433 . S
C1208 C1209 1.363 . S
C1208 C1213 1.370 . S
C1209 H1182 0.929 . S
C1209 C1208 1.363 . S
C1209 C1210 1.385 . S
C1210 H1184 0.930 . S
C1210 C1209 1.385 . S
C1210 C1211 1.357 . S
C1211 C1210 1.357 . S
C1211 C1212 1.406 . S
C1212 H1186 0.929 . S
C1212 C1211 1.406 . S
C1212 C1213 1.391 . S
C1213 H1185 0.931 . S
C1213 C1208 1.370 . S
C1213 C1212 1.391 . S
C1214 N1183 1.435 . S
C1214 C1215 1.358 . S
C1214 C1219 1.371 . S
C1215 H1187 0.930 . S
C1215 C1214 1.358 . S
C1215 C1216 1.405 . S
C1216 H1188 0.932 . S
C1216 C1215 1.405 . S
C1216 C1217 1.383 . S
C1217 C1216 1.383 . S
C1217 C1218 1.393 . S
C1218 H1190 0.931 . S
C1218 C1217 1.393 . S
C1218 C1219 1.382 . S
C1219 H1189 0.929 . S
C1219 C1214 1.371 . S
C1219 C1218 1.382 . S
C1220 N1183 1.423 . S
C1220 C1221 1.362 . S
C1220 C1225 1.388 . S
C1221 H1191 0.929 . S
C1221 C1220 1.362 . S
C1221 C1222 1.376 . S
C1222 H1193 0.931 . S
C1222 C1221 1.376 . S
C1222 C1223 1.396 . S
C1223 C1222 1.396 . S
C1223 C1224 1.348 . S
C1223 C1241 1.472 . S
C1224 H1194 0.929 . S
C1224 C1223 1.348 . S
C1224 C1225 1.443 . S
C1225 H1192 0.932 . S
C1225 C1220 1.388 . S
C1225 C1224 1.443 . S
C1226 N1206 1.433 . S
C1226 C1227 1.363 . S
C1226 C1231 1.370 . S
C1227 H1195 0.929 . S
C1227 C1226 1.363 . S
C1227 C1228 1.385 . S
C1228 H1196 0.930 . S
C1228 C1227 1.385 . S
C1228 C1229 1.357 . S
C1229 C1228 1.357 . S
C1229 C1230 1.406 . S
C1230 H1197 0.929 . S
C1230 C1229 1.406 . S
C1230 C1231 1.391 . S
C1231 H1198 0.931 . S
C1231 C1226 1.370 . S
C1231 C1230 1.391 . S
C1232 N1206 1.435 . S
C1232 C1233 1.358 . S
C1232 C1237 1.371 . S
C1233 H1199 0.930 . S
C1233 C1232 1.358 . S
C1233 C1234 1.405 . S
C1234 H1200 0.932 . S
C1234 C1233 1.405 . S
C1234 C1235 1.383 . S
C1235 C1234 1.383 . S
C1235 C1236 1.393 . S
C1236 H1201 0.931 . S
C1236 C1235 1.393 . S
C1236 C1237 1.382 . S
C1237 H1202 0.929 . S
C1237 C1232 1.371 . S
C1237 C1236 1.382 . S
C1238 N1206 1.423 . S
C1238 C1239 1.362 . S
C1238 C1243 1.388 . S
C1239 H1203 0.929 . S
C1239 C1238 1.362 . S
C1239 C1240 1.376 . S
C1240 H1204 0.931 . S
C1240 C1239 1.376 . S
C1240 C1241 1.396 . S
C1241 C1223 1.472 . S
C1241 C1240 1.396 . S
C1241 C1242 1.348 . S
C1242 H1205 0.929 . S
C1242 C1241 1.348 . S
C1242 C1243 1.443 . S
C1243 H1207 0.932 . S
C1243 C1238 1.388 . S
C1243 C1242 1.443 . S
H1244 C1271 0.929 . S
N1245 C1270 1.433 . S
N1245 C1276 1.435 . S
N1245 C1282 1.423 . S
H1246 C1272 0.930 . S
H1247 C1275 0.931 . S
H1248 C1274 0.929 . S
H1249 C1277 0.930 . S
H1250 C1278 0.932 . S
H1251 C1281 0.929 . S
H1252 C1280 0.931 . S
H1253 C1283 0.929 . S
H1254 C1287 0.932 . S
H1255 C1284 0.931 . S
H1256 C1286 0.929 . S
H1257 C1289 0.929 . S
H1258 C1290 0.930 . S
H1259 C1292 0.929 . S
H1260 C1293 0.931 . S
H1261 C1295 0.930 . S
H1262 C1296 0.932 . S
H1263 C1298 0.931 . S
H1264 C1299 0.929 . S
H1265 C1301 0.929 . S
H1266 C1302 0.931 . S
H1267 C1304 0.929 . S
N1268 C1288 1.433 . S
N1268 C1294 1.435 . S
N1268 C1300 1.423 . S
H1269 C1305 0.932 . S
C1270 N1245 1.433 . S
C1270 C1271 1.363 . S
C1270 C1275 1.370 . S
C1271 H1244 0.929 . S
C1271 C1270 1.363 . S
C1271 C1272 1.385 . S
C1272 H1246 0.930 . S
C1272 C1271 1.385 . S
C1272 C1273 1.357 . S
C1273 C1272 1.357 . S
C1273 C1274 1.406 . S
C1274 H1248 0.929 . S
C1274 C1273 1.406 . S
C1274 C1275 1.391 . S
C1275 H1247 0.931 . S
C1275 C1270 1.370 . S
C1275 C1274 1.391 . S
C1276 N1245 1.435 . S
C1276 C1277 1.358 . S
C1276 C1281 1.371 . S
C1277 H1249 0.930 . S
C1277 C1276 1.358 . S
C1277 C1278 1.405 . S
C1278 H1250 0.932 . S
C1278 C1277 1.405 . S
C1278 C1279 1.383 . S
C1279 C1278 1.383 . S
C1279 C1280 1.393 . S
C1280 H1252 0.931 . S
C1280 C1279 1.393 . S
C1280 C1281 1.382 . S
C1281 H1251 0.929 . S
C1281 C1276 1.371 . S
C1281 C1280 1.382 . S
C1282 N1245 1.423 . S
C1282 C1283 1.362 . S
C1282 C1287 1.388 . S
C1283 H1253 0.929 . S
C1283 C1282 1.362 . S
C1283 C1284 1.376 . S
C1284 H1255 0.931 . S
C1284 C1283 1.376 . S
C1284 C1285 1.396 . S
C1285 C1284 1.396 . S
C1285 C1286 1.348 . S
C1285 C1303 1.472 . S
C1286 H1256 0.929 . S
C1286 C1285 1.348 . S
C1286 C1287 1.443 . S
C1287 H1254 0.932 . S
C1287 C1282 1.388 . S
C1287 C1286 1.443 . S
C1288 N1268 1.433 . S
C1288 C1289 1.363 . S
C1288 C1293 1.370 . S
C1289 H1257 0.929 . S
C1289 C1288 1.363 . S
C1289 C1290 1.385 . S
C1290 H1258 0.930 . S
C1290 C1289 1.385 . S
C1290 C1291 1.357 . S
C1291 C1290 1.357 . S
C1291 C1292 1.406 . S
C1292 H1259 0.929 . S
C1292 C1291 1.406 . S
C1292 C1293 1.391 . S
C1293 H1260 0.931 . S
C1293 C1288 1.370 . S
C1293 C1292 1.391 . S
C1294 N1268 1.435 . S
C1294 C1295 1.358 . S
C1294 C1299 1.371 . S
C1295 H1261 0.930 . S
C1295 C1294 1.358 . S
C1295 C1296 1.405 . S
C1296 H1262 0.932 . S
C1296 C1295 1.405 . S
C1296 C1297 1.383 . S
C1297 C1296 1.383 . S
C1297 C1298 1.393 . S
C1298 H1263 0.931 . S
C1298 C1297 1.393 . S
C1298 C1299 1.382 . S
C1299 H1264 0.929 . S
C1299 C1294 1.371 . S
C1299 C1298 1.382 . S
C1300 N1268 1.423 . S
C1300 C1301 1.362 . S
C1300 C1305 1.388 . S
C1301 H1265 0.929 . S
C1301 C1300 1.362 . S
C1301 C1302 1.376 . S
C1302 H1266 0.931 . S
C1302 C1301 1.376 . S
C1302 C1303 1.396 . S
C1303 C1285 1.472 . S
C1303 C1302 1.396 . S
C1303 C1304 1.348 . S
C1304 H1267 0.929 . S
C1304 C1303 1.348 . S
C1304 C1305 1.443 . S
C1305 H1269 0.932 . S
C1305 C1300 1.388 . S
C1305 C1304 1.443 . S
H1306 C1333 0.929 . S
N1307 C1332 1.433 . S
N1307 C1338 1.435 . S
N1307 C1344 1.423 . S
H1308 C1334 0.930 . S
H1309 C1337 0.931 . S
H1310 C1336 0.929 . S
H1311 C1339 0.930 . S
H1312 C1340 0.932 . S
H1313 C1343 0.929 . S
H1314 C1342 0.931 . S
H1315 C1345 0.929 . S
H1316 C1349 0.932 . S
H1317 C1346 0.931 . S
H1318 C1348 0.929 . S
H1319 C1351 0.929 . S
H1320 C1352 0.930 . S
H1321 C1354 0.929 . S
H1322 C1355 0.931 . S
H1323 C1357 0.930 . S
H1324 C1358 0.932 . S
H1325 C1360 0.931 . S
H1326 C1361 0.929 . S
H1327 C1363 0.929 . S
H1328 C1364 0.931 . S
H1329 C1366 0.929 . S
N1330 C1350 1.433 . S
N1330 C1356 1.435 . S
N1330 C1362 1.423 . S
H1331 C1367 0.932 . S
C1332 N1307 1.433 . S
C1332 C1333 1.363 . S
C1332 C1337 1.370 . S
C1333 H1306 0.929 . S
C1333 C1332 1.363 . S
C1333 C1334 1.385 . S
C1334 H1308 0.930 . S
C1334 C1333 1.385 . S
C1334 C1335 1.357 . S
C1335 C1334 1.357 . S
C1335 C1336 1.406 . S
C1336 H1310 0.929 . S
C1336 C1335 1.406 . S
C1336 C1337 1.391 . S
C1337 H1309 0.931 . S
C1337 C1332 1.370 . S
C1337 C1336 1.391 . S
C1338 N1307 1.435 . S
C1338 C1339 1.358 . S
C1338 C1343 1.371 . S
C1339 H1311 0.930 . S
C1339 C1338 1.358 . S
C1339 C1340 1.405 . S
C1340 H1312 0.932 . S
C1340 C1339 1.405 . S
C1340 C1341 1.383 . S
C1341 C1340 1.383 . S
C1341 C1342 1.393 . S
C1342 H1314 0.931 . S
C1342 C1341 1.393 . S
C1342 C1343 1.382 . S
C1343 H1313 0.929 . S
C1343 C1338 1.371 . S
C1343 C1342 1.382 . S
C1344 N1307 1.423 . S
C1344 C1345 1.362 . S
C1344 C1349 1.388 . S
C1345 H1315 0.929 . S
C1345 C1344 1.362 . S
C1345 C1346 1.376 . S
C1346 H1317 0.931 . S
C1346 C1345 1.376 . S
C1346 C1347 1.396 . S
C1347 C1346 1.396 . S
C1347 C1348 1.348 . S
C1347 C1365 1.472 . S
C1348 H1318 0.929 . S
C1348 C1347 1.348 . S
C1348 C1349 1.443 . S
C1349 H1316 0.932 . S
C1349 C1344 1.388 . S
C1349 C1348 1.443 . S
C1350 N1330 1.433 . S
C1350 C1351 1.363 . S
C1350 C1355 1.370 . S
C1351 H1319 0.929 . S
C1351 C1350 1.363 . S
C1351 C1352 1.385 . S
C1352 H1320 0.930 . S
C1352 C1351 1.385 . S
C1352 C1353 1.357 . S
C1353 C1352 1.357 . S
C1353 C1354 1.406 . S
C1354 H1321 0.929 . S
C1354 C1353 1.406 . S
C1354 C1355 1.391 . S
C1355 H1322 0.931 . S
C1355 C1350 1.370 . S
C1355 C1354 1.391 . S
C1356 N1330 1.435 . S
C1356 C1357 1.358 . S
C1356 C1361 1.371 . S
C1357 H1323 0.930 . S
C1357 C1356 1.358 . S
C1357 C1358 1.405 . S
C1358 H1324 0.932 . S
C1358 C1357 1.405 . S
C1358 C1359 1.383 . S
C1359 C1358 1.383 . S
C1359 C1360 1.393 . S
C1360 H1325 0.931 . S
C1360 C1359 1.393 . S
C1360 C1361 1.382 . S
C1361 H1326 0.929 . S
C1361 C1356 1.371 . S
C1361 C1360 1.382 . S
C1362 N1330 1.423 . S
C1362 C1363 1.362 . S
C1362 C1367 1.388 . S
C1363 H1327 0.929 . S
C1363 C1362 1.362 . S
C1363 C1364 1.376 . S
C1364 H1328 0.931 . S
C1364 C1363 1.376 . S
C1364 C1365 1.396 . S
C1365 C1347 1.472 . S
C1365 C1364 1.396 . S
C1365 C1366 1.348 . S
C1366 H1329 0.929 . S
C1366 C1365 1.348 . S
C1366 C1367 1.443 . S
C1367 H1331 0.932 . S
C1367 C1362 1.388 . S
C1367 C1366 1.443 . S
H1368 C1374 0.930 . S
H1369 C1378 0.930 . S
H1370 C1383 0.929 . S
H1371 C1381 0.929 . S
H1372 C1376 0.929 . S
H1373 C1382 0.929 . S
C1374 H1368 0.930 . S
C1374 C1375 1.367 1_455 S
C1374 C1382 1.378 . S
C1375 C1374 1.367 1_655 S
C1375 C1383 1.433 . S
C1376 H1372 0.929 . S
C1376 C1378 1.378 . S
C1376 C1380 1.350 . S
C1377 C1380 1.463 . S
C1377 C1382 1.350 1_655 S
C1377 N1385 1.427 . S
C1378 H1369 0.930 . S
C1378 C1376 1.378 . S
C1378 C1379 1.367 . S
C1379 C1378 1.367 . S
C1379 C1381 1.433 1_655 S
C1380 C1376 1.350 . S
C1380 C1377 1.463 . S
C1380 N1384 1.427 1_655 S
C1381 H1371 0.929 . S
C1381 C1379 1.433 1_455 S
C1381 N1384 1.384 . S
C1382 H1373 0.929 . S
C1382 C1374 1.378 . S
C1382 C1377 1.350 1_455 S
C1383 H1370 0.929 . S
C1383 C1375 1.433 . S
C1383 N1385 1.384 . S
N1384 C1380 1.427 1_455 S
N1384 C1381 1.384 . S
N1385 C1377 1.427 . S
N1385 C1383 1.384 . S
H1386 C1392 0.930 . S
H1387 C1396 0.930 . S
H1388 C1401 0.929 . S
H1389 C1399 0.929 . S
H1390 C1394 0.929 . S
H1391 C1400 0.929 . S
C1392 H1386 0.930 . S
C1392 C1393 1.367 . S
C1392 C1400 1.378 . S
C1393 C1392 1.367 . S
C1393 C1401 1.433 . S
C1394 H1390 0.929 . S
C1394 C1396 1.378 . S
C1394 C1398 1.350 . S
C1395 C1398 1.463 . S
C1395 C1400 1.350 . S
C1395 N1403 1.427 . S
C1396 H1387 0.930 . S
C1396 C1394 1.378 . S
C1396 C1397 1.367 . S
C1397 C1396 1.367 . S
C1397 C1399 1.433 . S
C1398 C1394 1.350 . S
C1398 C1395 1.463 . S
C1398 N1402 1.427 . S
C1399 H1389 0.929 . S
C1399 C1397 1.433 . S
C1399 N1402 1.384 . S
C1400 H1391 0.929 . S
C1400 C1392 1.378 . S
C1400 C1395 1.350 . S
C1401 H1388 0.929 . S
C1401 C1393 1.433 . S
C1401 N1403 1.384 . S
N1402 C1398 1.427 . S
N1402 C1399 1.384 . S
N1403 C1395 1.427 . S
N1403 C1401 1.384 . S
H1404 C1410 0.930 . S
H1405 C1414 0.930 . S
H1406 C1419 0.929 . S
H1407 C1417 0.929 . S
H1408 C1412 0.929 . S
H1409 C1418 0.929 . S
C1410 H1404 0.930 . S
C1410 C1411 1.367 1_565 S
C1410 C1418 1.378 . S
C1411 C1410 1.367 1_545 S
C1411 C1419 1.433 . S
C1412 H1408 0.929 . S
C1412 C1414 1.378 . S
C1412 C1416 1.350 . S
C1413 C1416 1.463 . S
C1413 C1418 1.350 1_545 S
C1413 N1421 1.427 . S
C1414 H1405 0.930 . S
C1414 C1412 1.378 . S
C1414 C1415 1.367 . S
C1415 C1414 1.367 . S
C1415 C1417 1.433 1_545 S
C1416 C1412 1.350 . S
C1416 C1413 1.463 . S
C1416 N1420 1.427 1_545 S
C1417 H1407 0.929 . S
C1417 C1415 1.433 1_565 S
C1417 N1420 1.384 . S
C1418 H1409 0.929 . S
C1418 C1410 1.378 . S
C1418 C1413 1.350 1_565 S
C1419 H1406 0.929 . S
C1419 C1411 1.433 . S
C1419 N1421 1.384 . S
N1420 C1416 1.427 1_565 S
N1420 C1417 1.384 . S
N1421 C1413 1.427 . S
N1421 C1419 1.384 . S
H1422 C1428 0.930 . S
H1423 C1432 0.930 . S
H1424 C1437 0.929 . S
H1425 C1435 0.929 . S
H1426 C1430 0.929 . S
H1427 C1436 0.929 . S
C1428 H1422 0.930 . S
C1428 C1429 1.367 . S
C1428 C1436 1.378 . S
C1429 C1428 1.367 . S
C1429 C1437 1.433 1_565 S
C1430 H1426 0.929 . S
C1430 C1432 1.378 . S
C1430 C1434 1.350 1_545 S
C1431 C1434 1.463 . S
C1431 C1436 1.350 . S
C1431 N1439 1.427 1_565 S
C1432 H1423 0.930 . S
C1432 C1430 1.378 . S
C1432 C1433 1.367 1_545 S
C1433 C1432 1.367 1_565 S
C1433 C1435 1.433 . S
C1434 C1430 1.350 1_565 S
C1434 C1431 1.463 . S
C1434 N1438 1.427 . S
C1435 H1425 0.929 . S
C1435 C1433 1.433 . S
C1435 N1438 1.384 . S
C1436 H1427 0.929 . S
C1436 C1428 1.378 . S
C1436 C1431 1.350 . S
C1437 H1424 0.929 . S
C1437 C1429 1.433 1_545 S
C1437 N1439 1.384 . S
N1438 C1434 1.427 . S
N1438 C1435 1.384 . S
N1439 C1431 1.427 1_545 S
N1439 C1437 1.384 . S
H1440 C1446 0.930 . S
H1441 C1450 0.930 . S
H1442 C1455 0.929 . S
H1443 C1453 0.929 . S
H1444 C1448 0.929 . S
H1445 C1454 0.929 . S
C1446 H1440 0.930 . S
C1446 C1447 1.367 . S
C1446 C1454 1.378 . S
C1447 C1446 1.367 . S
C1447 C1455 1.433 . S
C1448 H1444 0.929 . S
C1448 C1450 1.378 . S
C1448 C1452 1.350 . S
C1449 C1452 1.463 . S
C1449 C1454 1.350 . S
C1449 N1457 1.427 . S
C1450 H1441 0.930 . S
C1450 C1448 1.378 . S
C1450 C1451 1.367 . S
C1451 C1450 1.367 . S
C1451 C1453 1.433 . S
C1452 C1448 1.350 . S
C1452 C1449 1.463 . S
C1452 N1456 1.427 . S
C1453 H1443 0.929 . S
C1453 C1451 1.433 . S
C1453 N1456 1.384 . S
C1454 H1445 0.929 . S
C1454 C1446 1.378 . S
C1454 C1449 1.350 . S
C1455 H1442 0.929 . S
C1455 C1447 1.433 . S
C1455 N1457 1.384 . S
N1456 C1452 1.427 . S
N1456 C1453 1.384 . S
N1457 C1449 1.427 . S
N1457 C1455 1.384 . S
H1458 C1464 0.930 . S
H1459 C1468 0.930 . S
H1460 C1473 0.929 . S
H1461 C1471 0.929 . S
H1462 C1466 0.929 . S
H1463 C1472 0.929 . S
C1464 H1458 0.930 . S
C1464 C1465 1.367 . S
C1464 C1472 1.378 . S
C1465 C1464 1.367 . S
C1465 C1473 1.433 . S
C1466 H1462 0.929 . S
C1466 C1468 1.378 . S
C1466 C1470 1.350 . S
C1467 C1470 1.463 . S
C1467 C1472 1.350 . S
C1467 N1475 1.427 . S
C1468 H1459 0.930 . S
C1468 C1466 1.378 . S
C1468 C1469 1.367 . S
C1469 C1468 1.367 . S
C1469 C1471 1.433 . S
C1470 C1466 1.350 . S
C1470 C1467 1.463 . S
C1470 N1474 1.427 . S
C1471 H1461 0.929 . S
C1471 C1469 1.433 . S
C1471 N1474 1.384 . S
C1472 H1463 0.929 . S
C1472 C1464 1.378 . S
C1472 C1467 1.350 . S
C1473 H1460 0.929 . S
C1473 C1465 1.433 . S
C1473 N1475 1.384 . S
N1474 C1470 1.427 . S
N1474 C1471 1.384 . S
N1475 C1467 1.427 . S
N1475 C1473 1.384 . S
H1476 C1482 0.930 . S
H1477 C1486 0.930 . S
H1478 C1491 0.929 . S
H1479 C1489 0.929 . S
H1480 C1484 0.929 . S
H1481 C1490 0.929 . S
C1482 H1476 0.930 . S
C1482 C1483 1.367 . S
C1482 C1490 1.378 . S
C1483 C1482 1.367 . S
C1483 C1491 1.433 1_455 S
C1484 H1480 0.929 . S
C1484 C1486 1.378 . S
C1484 C1488 1.350 1_655 S
C1485 C1488 1.463 . S
C1485 C1490 1.350 . S
C1485 N1493 1.427 1_455 S
C1486 H1477 0.930 . S
C1486 C1484 1.378 . S
C1486 C1487 1.367 1_655 S
C1487 C1486 1.367 1_455 S
C1487 C1489 1.433 . S
C1488 C1484 1.350 1_455 S
C1488 C1485 1.463 . S
C1488 N1492 1.427 . S
C1489 H1479 0.929 . S
C1489 C1487 1.433 . S
C1489 N1492 1.384 . S
C1490 H1481 0.929 . S
C1490 C1482 1.378 . S
C1490 C1485 1.350 . S
C1491 H1478 0.929 . S
C1491 C1483 1.433 1_655 S
C1491 N1493 1.384 . S
N1492 C1488 1.427 . S
N1492 C1489 1.384 . S
N1493 C1485 1.427 1_655 S
N1493 C1491 1.384 . S
H1494 C1500 0.930 . S
H1495 C1504 0.930 . S
H1496 C1509 0.929 . S
H1497 C1507 0.929 . S
H1498 C1502 0.929 . S
H1499 C1508 0.929 . S
C1500 H1494 0.930 . S
C1500 C1501 1.367 . S
C1500 C1508 1.378 . S
C1501 C1500 1.367 . S
C1501 C1509 1.433 . S
C1502 H1498 0.929 . S
C1502 C1504 1.378 . S
C1502 C1506 1.350 . S
C1503 C1506 1.463 . S
C1503 C1508 1.350 . S
C1503 N1511 1.427 . S
C1504 H1495 0.930 . S
C1504 C1502 1.378 . S
C1504 C1505 1.367 . S
C1505 C1504 1.367 . S
C1505 C1507 1.433 . S
C1506 C1502 1.350 . S
C1506 C1503 1.463 . S
C1506 N1510 1.427 . S
C1507 H1497 0.929 . S
C1507 C1505 1.433 . S
C1507 N1510 1.384 . S
C1508 H1499 0.929 . S
C1508 C1500 1.378 . S
C1508 C1503 1.350 . S
C1509 H1496 0.929 . S
C1509 C1501 1.433 . S
C1509 N1511 1.384 . S
N1510 C1506 1.427 . S
N1510 C1507 1.384 . S
N1511 C1503 1.427 . S
N1511 C1509 1.384 . S
H1512 C1518 0.930 . S
H1513 C1522 0.930 . S
H1514 C1527 0.929 . S
H1515 C1525 0.929 . S
H1516 C1520 0.929 . S
H1517 C1526 0.929 . S
C1518 H1512 0.930 . S
C1518 C1519 1.367 . S
C1518 C1526 1.378 . S
C1519 C1518 1.367 . S
C1519 C1527 1.433 1_565 S
C1520 H1516 0.929 . S
C1520 C1522 1.378 . S
C1520 C1524 1.350 1_545 S
C1521 C1524 1.463 . S
C1521 C1526 1.350 . S
C1521 N1529 1.427 1_565 S
C1522 H1513 0.930 . S
C1522 C1520 1.378 . S
C1522 C1523 1.367 1_545 S
C1523 C1522 1.367 1_565 S
C1523 C1525 1.433 . S
C1524 C1520 1.350 1_565 S
C1524 C1521 1.463 . S
C1524 N1528 1.427 . S
C1525 H1515 0.929 . S
C1525 C1523 1.433 . S
C1525 N1528 1.384 . S
C1526 H1517 0.929 . S
C1526 C1518 1.378 . S
C1526 C1521 1.350 . S
C1527 H1514 0.929 . S
C1527 C1519 1.433 1_545 S
C1527 N1529 1.384 . S
N1528 C1524 1.427 . S
N1528 C1525 1.384 . S
N1529 C1521 1.427 1_545 S
N1529 C1527 1.384 . S
H1530 C1536 0.930 . S
H1531 C1540 0.930 . S
H1532 C1545 0.929 . S
H1533 C1543 0.929 . S
H1534 C1538 0.929 . S
H1535 C1544 0.929 . S
C1536 H1530 0.930 . S
C1536 C1537 1.367 1_565 S
C1536 C1544 1.378 . S
C1537 C1536 1.367 1_545 S
C1537 C1545 1.433 . S
C1538 H1534 0.929 . S
C1538 C1540 1.378 . S
C1538 C1542 1.350 . S
C1539 C1542 1.463 . S
C1539 C1544 1.350 1_545 S
C1539 N1547 1.427 . S
C1540 H1531 0.930 . S
C1540 C1538 1.378 . S
C1540 C1541 1.367 . S
C1541 C1540 1.367 . S
C1541 C1543 1.433 1_545 S
C1542 C1538 1.350 . S
C1542 C1539 1.463 . S
C1542 N1546 1.427 1_545 S
C1543 H1533 0.929 . S
C1543 C1541 1.433 1_565 S
C1543 N1546 1.384 . S
C1544 H1535 0.929 . S
C1544 C1536 1.378 . S
C1544 C1539 1.350 1_565 S
C1545 H1532 0.929 . S
C1545 C1537 1.433 . S
C1545 N1547 1.384 . S
N1546 C1542 1.427 1_565 S
N1546 C1543 1.384 . S
N1547 C1539 1.427 . S
N1547 C1545 1.384 . S
H1548 C1554 0.930 . S
H1549 C1558 0.930 1_455 S
H1550 C1563 0.933 . S
H1551 C1561 0.929 . S
H1552 C1556 0.898 1_455 S
H1553 C1562 0.929 . S
C1554 H1548 0.930 . S
C1554 C1555 1.367 . S
C1554 C1562 1.378 . S
C1555 C1554 1.367 . S
C1555 C1563 1.426 1_655 S
C1556 H1552 0.898 1_655 S
C1556 C1558 1.349 . S
C1556 C1560 1.418 . S
C1557 C1560 1.463 . S
C1557 C1562 1.350 . S
C1557 N1565 1.433 . S
C1558 H1549 0.930 1_655 S
C1558 C1556 1.349 . S
C1558 C1559 1.367 . S
C1559 C1558 1.367 . S
C1559 C1561 1.433 . S
C1560 C1556 1.418 . S
C1560 C1557 1.463 . S
C1560 N1564 1.427 . S
C1561 H1551 0.929 . S
C1561 C1559 1.433 . S
C1561 N1564 1.384 . S
C1562 H1553 0.929 . S
C1562 C1554 1.378 . S
C1562 C1557 1.350 . S
C1563 H1550 0.933 . S
C1563 C1555 1.426 1_455 S
C1563 N1565 1.392 1_455 S
N1564 C1560 1.427 . S
N1564 C1561 1.384 . S
N1565 C1557 1.433 . S
N1565 C1563 1.392 1_655 S
H1566 C1572 0.930 . S
H1567 C1576 0.930 . S
H1568 C1581 0.929 . S
H1569 C1579 0.929 . S
H1570 C1574 0.929 . S
H1571 C1580 0.929 . S
C1572 H1566 0.930 . S
C1572 C1573 1.367 . S
C1572 C1580 1.378 . S
C1573 C1572 1.367 . S
C1573 C1581 1.433 . S
C1574 H1570 0.929 . S
C1574 C1576 1.378 . S
C1574 C1578 1.350 . S
C1575 C1578 1.463 . S
C1575 C1580 1.350 . S
C1575 N1583 1.427 . S
C1576 H1567 0.930 . S
C1576 C1574 1.378 . S
C1576 C1577 1.367 . S
C1577 C1576 1.367 . S
C1577 C1579 1.433 . S
C1578 C1574 1.350 . S
C1578 C1575 1.463 . S
C1578 N1582 1.427 . S
C1579 H1569 0.929 . S
C1579 C1577 1.433 . S
C1579 N1582 1.384 . S
C1580 H1571 0.929 . S
C1580 C1572 1.378 . S
C1580 C1575 1.350 . S
C1581 H1568 0.929 . S
C1581 C1573 1.433 . S
C1581 N1583 1.384 . S
N1582 C1578 1.427 . S
N1582 C1579 1.384 . S
N1583 C1575 1.427 . S
N1583 C1581 1.384 . S
H1584 C1590 0.930 . S
H1585 C1594 0.930 . S
H1586 C1599 0.929 . S
H1587 C1597 0.929 . S
H1588 C1592 0.929 . S
H1589 C1598 0.929 . S
C1590 H1584 0.930 . S
C1590 C1591 1.367 . S
C1590 C1598 1.378 . S
C1591 C1590 1.367 . S
C1591 C1599 1.433 . S
C1592 H1588 0.929 . S
C1592 C1594 1.378 . S
C1592 C1596 1.350 . S
C1593 C1596 1.463 . S
C1593 C1598 1.350 . S
C1593 N1601 1.427 . S
C1594 H1585 0.930 . S
C1594 C1592 1.378 . S
C1594 C1595 1.367 . S
C1595 C1594 1.367 . S
C1595 C1597 1.433 . S
C1596 C1592 1.350 . S
C1596 C1593 1.463 . S
C1596 N1600 1.427 . S
C1597 H1587 0.929 . S
C1597 C1595 1.433 . S
C1597 N1600 1.384 . S
C1598 H1589 0.929 . S
C1598 C1590 1.378 . S
C1598 C1593 1.350 . S
C1599 H1586 0.929 . S
C1599 C1591 1.433 . S
C1599 N1601 1.384 . S
N1600 C1596 1.427 . S
N1600 C1597 1.384 . S
N1601 C1593 1.427 . S
N1601 C1599 1.384 . S
H1602 C1608 0.930 . S
H1603 C1612 0.930 . S
H1604 C1617 0.929 . S
H1605 C1615 0.929 . S
H1606 C1610 0.929 . S
H1607 C1616 0.929 . S
C1608 H1602 0.930 . S
C1608 C1609 1.367 . S
C1608 C1616 1.378 . S
C1609 C1608 1.367 . S
C1609 C1617 1.433 . S
C1610 H1606 0.929 . S
C1610 C1612 1.378 . S
C1610 C1614 1.350 . S
C1611 C1614 1.463 . S
C1611 C1616 1.350 . S
C1611 N1619 1.427 . S
C1612 H1603 0.930 . S
C1612 C1610 1.378 . S
C1612 C1613 1.367 . S
C1613 C1612 1.367 . S
C1613 C1615 1.433 . S
C1614 C1610 1.350 . S
C1614 C1611 1.463 . S
C1614 N1618 1.427 . S
C1615 H1605 0.929 . S
C1615 C1613 1.433 . S
C1615 N1618 1.384 . S
C1616 H1607 0.929 . S
C1616 C1608 1.378 . S
C1616 C1611 1.350 . S
C1617 H1604 0.929 . S
C1617 C1609 1.433 . S
C1617 N1619 1.384 . S
N1618 C1614 1.427 . S
N1618 C1615 1.384 . S
N1619 C1611 1.427 . S
N1619 C1617 1.384 . S
H1620 C1626 0.930 . S
H1621 C1630 0.930 . S
H1622 C1635 0.929 . S
H1623 C1633 0.929 . S
H1624 C1628 0.929 . S
H1625 C1634 0.929 . S
C1626 H1620 0.930 . S
C1626 C1627 1.367 . S
C1626 C1634 1.378 . S
C1627 C1626 1.367 . S
C1627 C1635 1.433 . S
C1628 H1624 0.929 . S
C1628 C1630 1.378 . S
C1628 C1632 1.350 . S
C1629 C1632 1.463 . S
C1629 C1634 1.350 . S
C1629 N1637 1.427 . S
C1630 H1621 0.930 . S
C1630 C1628 1.378 . S
C1630 C1631 1.367 . S
C1631 C1630 1.367 . S
C1631 C1633 1.433 . S
C1632 C1628 1.350 . S
C1632 C1629 1.463 . S
C1632 N1636 1.427 . S
C1633 H1623 0.929 . S
C1633 C1631 1.433 . S
C1633 N1636 1.384 . S
C1634 H1625 0.929 . S
C1634 C1626 1.378 . S
C1634 C1629 1.350 . S
C1635 H1622 0.929 . S
C1635 C1627 1.433 . S
C1635 N1637 1.384 . S
N1636 C1632 1.427 . S
N1636 C1633 1.384 . S
N1637 C1629 1.427 . S
N1637 C1635 1.384 . S
H1638 C1644 0.930 . S
H1639 C1648 0.930 . S
H1640 C1653 0.929 . S
H1641 C1651 0.929 . S
H1642 C1646 0.929 . S
H1643 C1652 0.929 . S
C1644 H1638 0.930 . S
C1644 C1645 1.367 . S
C1644 C1652 1.378 . S
C1645 C1644 1.367 . S
C1645 C1653 1.433 . S
C1646 H1642 0.929 . S
C1646 C1648 1.378 . S
C1646 C1650 1.350 . S
C1647 C1650 1.463 . S
C1647 C1652 1.350 . S
C1647 N1655 1.427 . S
C1648 H1639 0.930 . S
C1648 C1646 1.378 . S
C1648 C1649 1.367 . S
C1649 C1648 1.367 . S
C1649 C1651 1.433 . S
C1650 C1646 1.350 . S
C1650 C1647 1.463 . S
C1650 N1654 1.427 . S
C1651 H1641 0.929 . S
C1651 C1649 1.433 . S
C1651 N1654 1.384 . S
C1652 H1643 0.929 . S
C1652 C1644 1.378 . S
C1652 C1647 1.350 . S
C1653 H1640 0.929 . S
C1653 C1645 1.433 . S
C1653 N1655 1.384 . S
N1654 C1650 1.427 . S
N1654 C1651 1.384 . S
N1655 C1647 1.427 . S
N1655 C1653 1.384 . S
H1656 C1662 0.930 . S
H1657 C1666 0.930 . S
H1658 C1671 0.929 . S
H1659 C1669 0.929 . S
H1660 C1664 0.929 . S
H1661 C1670 0.929 . S
C1662 H1656 0.930 . S
C1662 C1663 1.367 . S
C1662 C1670 1.378 . S
C1663 C1662 1.367 . S
C1663 C1671 1.433 . S
C1664 H1660 0.929 . S
C1664 C1666 1.378 . S
C1664 C1668 1.350 . S
C1665 C1668 1.463 . S
C1665 C1670 1.350 . S
C1665 N1673 1.427 . S
C1666 H1657 0.930 . S
C1666 C1664 1.378 . S
C1666 C1667 1.367 . S
C1667 C1666 1.367 . S
C1667 C1669 1.433 . S
C1668 C1664 1.350 . S
C1668 C1665 1.463 . S
C1668 N1672 1.427 . S
C1669 H1659 0.929 . S
C1669 C1667 1.433 . S
C1669 N1672 1.384 . S
C1670 H1661 0.929 . S
C1670 C1662 1.378 . S
C1670 C1665 1.350 . S
C1671 H1658 0.929 . S
C1671 C1663 1.433 . S
C1671 N1673 1.384 . S
N1672 C1668 1.427 . S
N1672 C1669 1.384 . S
N1673 C1665 1.427 . S
N1673 C1671 1.384 . S
H1674 C1680 0.930 . S
H1675 C1684 0.930 . S
H1676 C1689 0.929 . S
H1677 C1687 0.929 . S
H1678 C1682 0.929 . S
H1679 C1688 0.929 . S
C1680 H1674 0.930 . S
C1680 C1681 1.367 . S
C1680 C1688 1.378 . S
C1681 C1680 1.367 . S
C1681 C1689 1.433 . S
C1682 H1678 0.929 . S
C1682 C1684 1.378 . S
C1682 C1686 1.350 . S
C1683 C1686 1.463 . S
C1683 C1688 1.350 . S
C1683 N1691 1.427 . S
C1684 H1675 0.930 . S
C1684 C1682 1.378 . S
C1684 C1685 1.367 . S
C1685 C1684 1.367 . S
C1685 C1687 1.433 . S
C1686 C1682 1.350 . S
C1686 C1683 1.463 . S
C1686 N1690 1.427 . S
C1687 H1677 0.929 . S
C1687 C1685 1.433 . S
C1687 N1690 1.384 . S
C1688 H1679 0.929 . S
C1688 C1680 1.378 . S
C1688 C1683 1.350 . S
C1689 H1676 0.929 . S
C1689 C1681 1.433 . S
C1689 N1691 1.384 . S
N1690 C1686 1.427 . S
N1690 C1687 1.384 . S
N1691 C1683 1.427 . S
N1691 C1689 1.384 . S
H1692 C1698 0.930 . S
H1693 C1702 0.930 . S
H1694 C1707 0.929 . S
H1695 C1705 0.929 . S
H1696 C1700 0.929 . S
H1697 C1706 0.929 . S
C1698 H1692 0.930 . S
C1698 C1699 1.367 . S
C1698 C1706 1.378 . S
C1699 C1698 1.367 . S
C1699 C1707 1.433 . S
C1700 H1696 0.929 . S
C1700 C1702 1.378 . S
C1700 C1704 1.350 . S
C1701 C1704 1.463 . S
C1701 C1706 1.350 . S
C1701 N1709 1.427 . S
C1702 H1693 0.930 . S
C1702 C1700 1.378 . S
C1702 C1703 1.367 . S
C1703 C1702 1.367 . S
C1703 C1705 1.433 . S
C1704 C1700 1.350 . S
C1704 C1701 1.463 . S
C1704 N1708 1.427 . S
C1705 H1695 0.929 . S
C1705 C1703 1.433 . S
C1705 N1708 1.384 . S
C1706 H1697 0.929 . S
C1706 C1698 1.378 . S
C1706 C1701 1.350 . S
C1707 H1694 0.929 . S
C1707 C1699 1.433 . S
C1707 N1709 1.384 . S
N1708 C1704 1.427 . S
N1708 C1705 1.384 . S
N1709 C1701 1.427 . S
N1709 C1707 1.384 . S
H1710 C1716 0.930 . S
H1711 C1720 0.930 . S
H1712 C1725 0.929 . S
H1713 C1723 0.929 . S
H1714 C1718 0.929 . S
H1715 C1724 0.929 . S
C1716 H1710 0.930 . S
C1716 C1717 1.367 . S
C1716 C1724 1.378 . S
C1717 C1716 1.367 . S
C1717 C1725 1.433 . S
C1718 H1714 0.929 . S
C1718 C1720 1.378 . S
C1718 C1722 1.350 . S
C1719 C1722 1.463 . S
C1719 C1724 1.350 . S
C1719 N1727 1.427 . S
C1720 H1711 0.930 . S
C1720 C1718 1.378 . S
C1720 C1721 1.367 . S
C1721 C1720 1.367 . S
C1721 C1723 1.433 . S
C1722 C1718 1.350 . S
C1722 C1719 1.463 . S
C1722 N1726 1.427 . S
C1723 H1713 0.929 . S
C1723 C1721 1.433 . S
C1723 N1726 1.384 . S
C1724 H1715 0.929 . S
C1724 C1716 1.378 . S
C1724 C1719 1.350 . S
C1725 H1712 0.929 . S
C1725 C1717 1.433 . S
C1725 N1727 1.384 . S
N1726 C1722 1.427 . S
N1726 C1723 1.384 . S
N1727 C1719 1.427 . S
N1727 C1725 1.384 . S
H1728 C1734 0.930 . S
H1729 C1738 0.930 . S
H1730 C1743 0.929 . S
H1731 C1741 0.929 . S
H1732 C1736 0.929 . S
H1733 C1742 0.929 . S
C1734 H1728 0.930 . S
C1734 C1735 1.367 . S
C1734 C1742 1.378 . S
C1735 C1734 1.367 . S
C1735 C1743 1.433 . S
C1736 H1732 0.929 . S
C1736 C1738 1.378 . S
C1736 C1740 1.350 . S
C1737 C1740 1.463 . S
C1737 C1742 1.350 . S
C1737 N1745 1.427 . S
C1738 H1729 0.930 . S
C1738 C1736 1.378 . S
C1738 C1739 1.367 . S
C1739 C1738 1.367 . S
C1739 C1741 1.433 . S
C1740 C1736 1.350 . S
C1740 C1737 1.463 . S
C1740 N1744 1.427 . S
C1741 H1731 0.929 . S
C1741 C1739 1.433 . S
C1741 N1744 1.384 . S
C1742 H1733 0.929 . S
C1742 C1734 1.378 . S
C1742 C1737 1.350 . S
C1743 H1730 0.929 . S
C1743 C1735 1.433 . S
C1743 N1745 1.384 . S
N1744 C1740 1.427 . S
N1744 C1741 1.384 . S
N1745 C1737 1.427 . S
N1745 C1743 1.384 . S
H1746 C1752 0.930 . S
H1747 C1756 0.930 . S
H1748 C1761 0.929 . S
H1749 C1759 0.929 . S
H1750 C1754 0.929 . S
H1751 C1760 0.929 . S
C1752 H1746 0.930 . S
C1752 C1753 1.367 . S
C1752 C1760 1.378 . S
C1753 C1752 1.367 . S
C1753 C1761 1.433 . S
C1754 H1750 0.929 . S
C1754 C1756 1.378 . S
C1754 C1758 1.350 . S
C1755 C1758 1.463 . S
C1755 C1760 1.350 . S
C1755 N1763 1.427 . S
C1756 H1747 0.930 . S
C1756 C1754 1.378 . S
C1756 C1757 1.367 . S
C1757 C1756 1.367 . S
C1757 C1759 1.433 . S
C1758 C1754 1.350 . S
C1758 C1755 1.463 . S
C1758 N1762 1.427 . S
C1759 H1749 0.929 . S
C1759 C1757 1.433 . S
C1759 N1762 1.384 . S
C1760 H1751 0.929 . S
C1760 C1752 1.378 . S
C1760 C1755 1.350 . S
C1761 H1748 0.929 . S
C1761 C1753 1.433 . S
C1761 N1763 1.384 . S
N1762 C1758 1.427 . S
N1762 C1759 1.384 . S
N1763 C1755 1.427 . S
N1763 C1761 1.384 . S
H1764 C1770 0.930 . S
H1765 C1774 0.930 . S
H1766 C1779 0.929 . S
H1767 C1777 0.929 . S
H1768 C1772 0.929 . S
H1769 C1778 0.929 . S
C1770 H1764 0.930 . S
C1770 C1771 1.367 . S
C1770 C1778 1.378 . S
C1771 C1770 1.367 . S
C1771 C1779 1.433 . S
C1772 H1768 0.929 . S
C1772 C1774 1.378 . S
C1772 C1776 1.350 . S
C1773 C1776 1.463 . S
C1773 C1778 1.350 . S
C1773 N1781 1.427 . S
C1774 H1765 0.930 . S
C1774 C1772 1.378 . S
C1774 C1775 1.367 . S
C1775 C1774 1.367 . S
C1775 C1777 1.433 . S
C1776 C1772 1.350 . S
C1776 C1773 1.463 . S
C1776 N1780 1.427 . S
C1777 H1767 0.929 . S
C1777 C1775 1.433 . S
C1777 N1780 1.384 . S
C1778 H1769 0.929 . S
C1778 C1770 1.378 . S
C1778 C1773 1.350 . S
C1779 H1766 0.929 . S
C1779 C1771 1.433 . S
C1779 N1781 1.384 . S
N1780 C1776 1.427 . S
N1780 C1777 1.384 . S
N1781 C1773 1.427 . S
N1781 C1779 1.384 . S
H1782 C1788 0.930 . S
H1783 C1792 0.930 . S
H1784 C1797 0.929 . S
H1785 C1795 0.929 . S
H1786 C1790 0.929 . S
H1787 C1796 0.929 . S
C1788 H1782 0.930 . S
C1788 C1789 1.367 . S
C1788 C1796 1.378 . S
C1789 C1788 1.367 . S
C1789 C1797 1.433 . S
C1790 H1786 0.929 . S
C1790 C1792 1.378 . S
C1790 C1794 1.350 . S
C1791 C1794 1.463 . S
C1791 C1796 1.350 . S
C1791 N1799 1.427 . S
C1792 H1783 0.930 . S
C1792 C1790 1.378 . S
C1792 C1793 1.367 . S
C1793 C1792 1.367 . S
C1793 C1795 1.433 . S
C1794 C1790 1.350 . S
C1794 C1791 1.463 . S
C1794 N1798 1.427 . S
C1795 H1785 0.929 . S
C1795 C1793 1.433 . S
C1795 N1798 1.384 . S
C1796 H1787 0.929 . S
C1796 C1788 1.378 . S
C1796 C1791 1.350 . S
C1797 H1784 0.929 . S
C1797 C1789 1.433 . S
C1797 N1799 1.384 . S
N1798 C1794 1.427 . S
N1798 C1795 1.384 . S
N1799 C1791 1.427 . S
N1799 C1797 1.384 . S
H1800 C1806 0.930 . S
H1801 C1810 0.930 . S
H1802 C1815 0.929 . S
H1803 C1813 0.929 . S
H1804 C1808 0.929 . S
H1805 C1814 0.929 . S
C1806 H1800 0.930 . S
C1806 C1807 1.367 . S
C1806 C1814 1.378 . S
C1807 C1806 1.367 . S
C1807 C1815 1.433 . S
C1808 H1804 0.929 . S
C1808 C1810 1.378 . S
C1808 C1812 1.350 . S
C1809 C1812 1.463 . S
C1809 C1814 1.350 . S
C1809 N1817 1.427 . S
C1810 H1801 0.930 . S
C1810 C1808 1.378 . S
C1810 C1811 1.367 . S
C1811 C1810 1.367 . S
C1811 C1813 1.433 . S
C1812 C1808 1.350 . S
C1812 C1809 1.463 . S
C1812 N1816 1.427 . S
C1813 H1803 0.929 . S
C1813 C1811 1.433 . S
C1813 N1816 1.384 . S
C1814 H1805 0.929 . S
C1814 C1806 1.378 . S
C1814 C1809 1.350 . S
C1815 H1802 0.929 . S
C1815 C1807 1.433 . S
C1815 N1817 1.384 . S
N1816 C1812 1.427 . S
N1816 C1813 1.384 . S
N1817 C1809 1.427 . S
N1817 C1815 1.384 . S
H1818 C1824 0.930 . S
H1819 C1828 0.930 . S
H1820 C1833 0.929 . S
H1821 C1831 0.929 . S
H1822 C1826 0.929 . S
H1823 C1832 0.929 . S
C1824 H1818 0.930 . S
C1824 C1825 1.367 . S
C1824 C1832 1.378 . S
C1825 C1824 1.367 . S
C1825 C1833 1.433 . S
C1826 H1822 0.929 . S
C1826 C1828 1.378 . S
C1826 C1830 1.350 . S
C1827 C1830 1.463 . S
C1827 C1832 1.350 . S
C1827 N1835 1.427 . S
C1828 H1819 0.930 . S
C1828 C1826 1.378 . S
C1828 C1829 1.367 . S
C1829 C1828 1.367 . S
C1829 C1831 1.433 . S
C1830 C1826 1.350 . S
C1830 C1827 1.463 . S
C1830 N1834 1.427 . S
C1831 H1821 0.929 . S
C1831 C1829 1.433 . S
C1831 N1834 1.384 . S
C1832 H1823 0.929 . S
C1832 C1824 1.378 . S
C1832 C1827 1.350 . S
C1833 H1820 0.929 . S
C1833 C1825 1.433 . S
C1833 N1835 1.384 . S
N1834 C1830 1.427 . S
N1834 C1831 1.384 . S
N1835 C1827 1.427 . S
N1835 C1833 1.384 . S
H1836 C1842 0.930 . S
H1837 C1846 0.930 . S
H1838 C1851 0.929 . S
H1839 C1849 0.929 . S
H1840 C1844 0.929 . S
H1841 C1850 0.929 . S
C1842 H1836 0.930 . S
C1842 C1843 1.367 . S
C1842 C1850 1.378 . S
C1843 C1842 1.367 . S
C1843 C1851 1.433 . S
C1844 H1840 0.929 . S
C1844 C1846 1.378 . S
C1844 C1848 1.350 . S
C1845 C1848 1.463 . S
C1845 C1850 1.350 . S
C1845 N1853 1.427 . S
C1846 H1837 0.930 . S
C1846 C1844 1.378 . S
C1846 C1847 1.367 . S
C1847 C1846 1.367 . S
C1847 C1849 1.433 . S
C1848 C1844 1.350 . S
C1848 C1845 1.463 . S
C1848 N1852 1.427 . S
C1849 H1839 0.929 . S
C1849 C1847 1.433 . S
C1849 N1852 1.384 . S
C1850 H1841 0.929 . S
C1850 C1842 1.378 . S
C1850 C1845 1.350 . S
C1851 H1838 0.929 . S
C1851 C1843 1.433 . S
C1851 N1853 1.384 . S
N1852 C1848 1.427 . S
N1852 C1849 1.384 . S
N1853 C1845 1.427 . S
N1853 C1851 1.384 . S
H1854 C1860 0.930 . S
H1855 C1864 0.930 . S
H1856 C1869 0.929 . S
H1857 C1867 0.929 . S
H1858 C1862 0.929 . S
H1859 C1868 0.929 . S
C1860 H1854 0.930 . S
C1860 C1861 1.367 . S
C1860 C1868 1.378 . S
C1861 C1860 1.367 . S
C1861 C1869 1.433 . S
C1862 H1858 0.929 . S
C1862 C1864 1.378 . S
C1862 C1866 1.350 . S
C1863 C1866 1.463 . S
C1863 C1868 1.350 . S
C1863 N1871 1.427 . S
C1864 H1855 0.930 . S
C1864 C1862 1.378 . S
C1864 C1865 1.367 . S
C1865 C1864 1.367 . S
C1865 C1867 1.433 . S
C1866 C1862 1.350 . S
C1866 C1863 1.463 . S
C1866 N1870 1.427 . S
C1867 H1857 0.929 . S
C1867 C1865 1.433 . S
C1867 N1870 1.384 . S
C1868 H1859 0.929 . S
C1868 C1860 1.378 . S
C1868 C1863 1.350 . S
C1869 H1856 0.929 . S
C1869 C1861 1.433 . S
C1869 N1871 1.384 . S
N1870 C1866 1.427 . S
N1870 C1867 1.384 . S
N1871 C1863 1.427 . S
N1871 C1869 1.384 . S
H1872 C1878 0.930 . S
H1873 C1882 0.930 . S
H1874 C1887 0.929 . S
H1875 C1885 0.929 . S
H1876 C1880 0.929 . S
H1877 C1886 0.929 . S
C1878 H1872 0.930 . S
C1878 C1879 1.367 . S
C1878 C1886 1.378 . S
C1879 C1878 1.367 . S
C1879 C1887 1.433 . S
C1880 H1876 0.929 . S
C1880 C1882 1.378 . S
C1880 C1884 1.350 . S
C1881 C1884 1.463 . S
C1881 C1886 1.350 . S
C1881 N1889 1.427 . S
C1882 H1873 0.930 . S
C1882 C1880 1.378 . S
C1882 C1883 1.367 . S
C1883 C1882 1.367 . S
C1883 C1885 1.433 . S
C1884 C1880 1.350 . S
C1884 C1881 1.463 . S
C1884 N1888 1.427 . S
C1885 H1875 0.929 . S
C1885 C1883 1.433 . S
C1885 N1888 1.384 . S
C1886 H1877 0.929 . S
C1886 C1878 1.378 . S
C1886 C1881 1.350 . S
C1887 H1874 0.929 . S
C1887 C1879 1.433 . S
C1887 N1889 1.384 . S
N1888 C1884 1.427 . S
N1888 C1885 1.384 . S
N1889 C1881 1.427 . S
N1889 C1887 1.384 . S
H1890 C1896 0.930 . S
H1891 C1900 0.930 . S
H1892 C1905 0.929 . S
H1893 C1903 0.929 . S
H1894 C1898 0.929 . S
H1895 C1904 0.929 . S
C1896 H1890 0.930 . S
C1896 C1897 1.367 . S
C1896 C1904 1.378 . S
C1897 C1896 1.367 . S
C1897 C1905 1.433 . S
C1898 H1894 0.929 . S
C1898 C1900 1.378 . S
C1898 C1902 1.350 . S
C1899 C1902 1.463 . S
C1899 C1904 1.350 . S
C1899 N1907 1.427 . S
C1900 H1891 0.930 . S
C1900 C1898 1.378 . S
C1900 C1901 1.367 . S
C1901 C1900 1.367 . S
C1901 C1903 1.433 . S
C1902 C1898 1.350 . S
C1902 C1899 1.463 . S
C1902 N1906 1.427 . S
C1903 H1893 0.929 . S
C1903 C1901 1.433 . S
C1903 N1906 1.384 . S
C1904 H1895 0.929 . S
C1904 C1896 1.378 . S
C1904 C1899 1.350 . S
C1905 H1892 0.929 . S
C1905 C1897 1.433 . S
C1905 N1907 1.384 . S
N1906 C1902 1.427 . S
N1906 C1903 1.384 . S
N1907 C1899 1.427 . S
N1907 C1905 1.384 . S
H1908 C1914 0.930 . S
H1909 C1918 0.930 . S
H1910 C1923 0.929 . S
H1911 C1921 0.929 . S
H1912 C1916 0.929 . S
H1913 C1922 0.929 . S
C1914 H1908 0.930 . S
C1914 C1915 1.367 . S
C1914 C1922 1.378 . S
C1915 C1914 1.367 . S
C1915 C1923 1.433 . S
C1916 H1912 0.929 . S
C1916 C1918 1.378 . S
C1916 C1920 1.350 . S
C1917 C1920 1.463 . S
C1917 C1922 1.350 . S
C1917 N1925 1.427 . S
C1918 H1909 0.930 . S
C1918 C1916 1.378 . S
C1918 C1919 1.367 . S
C1919 C1918 1.367 . S
C1919 C1921 1.433 . S
C1920 C1916 1.350 . S
C1920 C1917 1.463 . S
C1920 N1924 1.427 . S
C1921 H1911 0.929 . S
C1921 C1919 1.433 . S
C1921 N1924 1.384 . S
C1922 H1913 0.929 . S
C1922 C1914 1.378 . S
C1922 C1917 1.350 . S
C1923 H1910 0.929 . S
C1923 C1915 1.433 . S
C1923 N1925 1.384 . S
N1924 C1920 1.427 . S
N1924 C1921 1.384 . S
N1925 C1917 1.427 . S
N1925 C1923 1.384 . S
H1926 C1932 0.930 . S
H1927 C1936 0.930 . S
H1928 C1941 0.929 . S
H1929 C1939 0.929 . S
H1930 C1934 0.929 . S
H1931 C1940 0.929 . S
C1932 H1926 0.930 . S
C1932 C1933 1.367 . S
C1932 C1940 1.378 . S
C1933 C1932 1.367 . S
C1933 C1941 1.433 . S
C1934 H1930 0.929 . S
C1934 C1936 1.378 . S
C1934 C1938 1.350 . S
C1935 C1938 1.463 . S
C1935 C1940 1.350 . S
C1935 N1943 1.427 . S
C1936 H1927 0.930 . S
C1936 C1934 1.378 . S
C1936 C1937 1.367 . S
C1937 C1936 1.367 . S
C1937 C1939 1.433 . S
C1938 C1934 1.350 . S
C1938 C1935 1.463 . S
C1938 N1942 1.427 . S
C1939 H1929 0.929 . S
C1939 C1937 1.433 . S
C1939 N1942 1.384 . S
C1940 H1931 0.929 . S
C1940 C1932 1.378 . S
C1940 C1935 1.350 . S
C1941 H1928 0.929 . S
C1941 C1933 1.433 . S
C1941 N1943 1.384 . S
N1942 C1938 1.427 . S
N1942 C1939 1.384 . S
N1943 C1935 1.427 . S
N1943 C1941 1.384 . S
H1944 C1950 0.930 . S
H1945 C1954 0.930 . S
H1946 C1959 0.929 . S
H1947 C1957 0.929 . S
H1948 C1952 0.929 . S
H1949 C1958 0.929 . S
C1950 H1944 0.930 . S
C1950 C1951 1.367 . S
C1950 C1958 1.378 . S
C1951 C1950 1.367 . S
C1951 C1959 1.433 . S
C1952 H1948 0.929 . S
C1952 C1954 1.378 . S
C1952 C1956 1.350 . S
C1953 C1956 1.463 . S
C1953 C1958 1.350 . S
C1953 N1961 1.427 . S
C1954 H1945 0.930 . S
C1954 C1952 1.378 . S
C1954 C1955 1.367 . S
C1955 C1954 1.367 . S
C1955 C1957 1.433 . S
C1956 C1952 1.350 . S
C1956 C1953 1.463 . S
C1956 N1960 1.427 . S
C1957 H1947 0.929 . S
C1957 C1955 1.433 . S
C1957 N1960 1.384 . S
C1958 H1949 0.929 . S
C1958 C1950 1.378 . S
C1958 C1953 1.350 . S
C1959 H1946 0.929 . S
C1959 C1951 1.433 . S
C1959 N1961 1.384 . S
N1960 C1956 1.427 . S
N1960 C1957 1.384 . S
N1961 C1953 1.427 . S
N1961 C1959 1.384 . S
H1962 C1968 0.930 . S
H1963 C1972 0.930 . S
H1964 C1977 0.929 . S
H1965 C1975 0.929 . S
H1966 C1970 0.929 . S
H1967 C1976 0.929 . S
C1968 H1962 0.930 . S
C1968 C1969 1.367 . S
C1968 C1976 1.378 . S
C1969 C1968 1.367 . S
C1969 C1977 1.433 . S
C1970 H1966 0.929 . S
C1970 C1972 1.378 . S
C1970 C1974 1.350 . S
C1971 C1974 1.463 . S
C1971 C1976 1.350 . S
C1971 N1979 1.427 . S
C1972 H1963 0.930 . S
C1972 C1970 1.378 . S
C1972 C1973 1.367 . S
C1973 C1972 1.367 . S
C1973 C1975 1.433 . S
C1974 C1970 1.350 . S
C1974 C1971 1.463 . S
C1974 N1978 1.427 . S
C1975 H1965 0.929 . S
C1975 C1973 1.433 . S
C1975 N1978 1.384 . S
C1976 H1967 0.929 . S
C1976 C1968 1.378 . S
C1976 C1971 1.350 . S
C1977 H1964 0.929 . S
C1977 C1969 1.433 . S
C1977 N1979 1.384 . S
N1978 C1974 1.427 . S
N1978 C1975 1.384 . S
N1979 C1971 1.427 . S
N1979 C1977 1.384 . S
H1980 C1986 0.930 . S
H1981 C1990 0.930 . S
H1982 C1995 0.929 . S
H1983 C1993 0.929 . S
H1984 C1988 0.929 . S
H1985 C1994 0.929 . S
C1986 H1980 0.930 . S
C1986 C1987 1.367 . S
C1986 C1994 1.378 . S
C1987 C1986 1.367 . S
C1987 C1995 1.433 . S
C1988 H1984 0.929 . S
C1988 C1990 1.378 . S
C1988 C1992 1.350 . S
C1989 C1992 1.463 . S
C1989 C1994 1.350 . S
C1989 N1997 1.427 . S
C1990 H1981 0.930 . S
C1990 C1988 1.378 . S
C1990 C1991 1.367 . S
C1991 C1990 1.367 . S
C1991 C1993 1.433 . S
C1992 C1988 1.350 . S
C1992 C1989 1.463 . S
C1992 N1996 1.427 . S
C1993 H1983 0.929 . S
C1993 C1991 1.433 . S
C1993 N1996 1.384 . S
C1994 H1985 0.929 . S
C1994 C1986 1.378 . S
C1994 C1989 1.350 . S
C1995 H1982 0.929 . S
C1995 C1987 1.433 . S
C1995 N1997 1.384 . S
N1996 C1992 1.427 . S
N1996 C1993 1.384 . S
N1997 C1989 1.427 . S
N1997 C1995 1.384 . S
H1998 C2004 0.930 . S
H1999 C2008 0.930 . S
H2000 C2013 0.929 . S
H2001 C2011 0.929 . S
H2002 C2006 0.929 . S
H2003 C2012 0.929 . S
C2004 H1998 0.930 . S
C2004 C2005 1.367 . S
C2004 C2012 1.378 . S
C2005 C2004 1.367 . S
C2005 C2013 1.433 . S
C2006 H2002 0.929 . S
C2006 C2008 1.378 . S
C2006 C2010 1.350 . S
C2007 C2010 1.463 . S
C2007 C2012 1.350 . S
C2007 N2015 1.427 . S
C2008 H1999 0.930 . S
C2008 C2006 1.378 . S
C2008 C2009 1.367 . S
C2009 C2008 1.367 . S
C2009 C2011 1.433 . S
C2010 C2006 1.350 . S
C2010 C2007 1.463 . S
C2010 N2014 1.427 . S
C2011 H2001 0.929 . S
C2011 C2009 1.433 . S
C2011 N2014 1.384 . S
C2012 H2003 0.929 . S
C2012 C2004 1.378 . S
C2012 C2007 1.350 . S
C2013 H2000 0.929 . S
C2013 C2005 1.433 . S
C2013 N2015 1.384 . S
N2014 C2010 1.427 . S
N2014 C2011 1.384 . S
N2015 C2007 1.427 . S
N2015 C2013 1.384 . S
H2016 C2022 0.930 . S
H2017 C2026 0.930 . S
H2018 C2031 0.929 . S
H2019 C2029 0.929 . S
H2020 C2024 0.929 . S
H2021 C2030 0.929 . S
C2022 H2016 0.930 . S
C2022 C2023 1.367 . S
C2022 C2030 1.378 . S
C2023 C2022 1.367 . S
C2023 C2031 1.433 . S
C2024 H2020 0.929 . S
C2024 C2026 1.378 . S
C2024 C2028 1.350 . S
C2025 C2028 1.463 . S
C2025 C2030 1.350 . S
C2025 N2033 1.427 . S
C2026 H2017 0.930 . S
C2026 C2024 1.378 . S
C2026 C2027 1.367 . S
C2027 C2026 1.367 . S
C2027 C2029 1.433 . S
C2028 C2024 1.350 . S
C2028 C2025 1.463 . S
C2028 N2032 1.427 . S
C2029 H2019 0.929 . S
C2029 C2027 1.433 . S
C2029 N2032 1.384 . S
C2030 H2021 0.929 . S
C2030 C2022 1.378 . S
C2030 C2025 1.350 . S
C2031 H2018 0.929 . S
C2031 C2023 1.433 . S
C2031 N2033 1.384 . S
N2032 C2028 1.427 . S
N2032 C2029 1.384 . S
N2033 C2025 1.427 . S
N2033 C2031 1.384 . S
H2034 C2040 0.930 . S
H2035 C2044 0.930 . S
H2036 C2049 0.929 . S
H2037 C2047 0.929 . S
H2038 C2042 0.929 . S
H2039 C2048 0.929 . S
C2040 H2034 0.930 . S
C2040 C2041 1.367 . S
C2040 C2048 1.378 . S
C2041 C2040 1.367 . S
C2041 C2049 1.433 . S
C2042 H2038 0.929 . S
C2042 C2044 1.378 . S
C2042 C2046 1.350 . S
C2043 C2046 1.463 . S
C2043 C2048 1.350 . S
C2043 N2051 1.427 . S
C2044 H2035 0.930 . S
C2044 C2042 1.378 . S
C2044 C2045 1.367 . S
C2045 C2044 1.367 . S
C2045 C2047 1.433 . S
C2046 C2042 1.350 . S
C2046 C2043 1.463 . S
C2046 N2050 1.427 . S
C2047 H2037 0.929 . S
C2047 C2045 1.433 . S
C2047 N2050 1.384 . S
C2048 H2039 0.929 . S
C2048 C2040 1.378 . S
C2048 C2043 1.350 . S
C2049 H2036 0.929 . S
C2049 C2041 1.433 . S
C2049 N2051 1.384 . S
N2050 C2046 1.427 . S
N2050 C2047 1.384 . S
N2051 C2043 1.427 . S
N2051 C2049 1.384 . S
H2052 C2058 0.930 . S
H2053 C2062 0.930 . S
H2054 C2067 0.929 . S
H2055 C2065 0.929 . S
H2056 C2060 0.929 . S
H2057 C2066 0.929 . S
C2058 H2052 0.930 . S
C2058 C2059 1.367 . S
C2058 C2066 1.378 . S
C2059 C2058 1.367 . S
C2059 C2067 1.433 . S
C2060 H2056 0.929 . S
C2060 C2062 1.378 . S
C2060 C2064 1.350 . S
C2061 C2064 1.463 . S
C2061 C2066 1.350 . S
C2061 N2069 1.427 . S
C2062 H2053 0.930 . S
C2062 C2060 1.378 . S
C2062 C2063 1.367 . S
C2063 C2062 1.367 . S
C2063 C2065 1.433 . S
C2064 C2060 1.350 . S
C2064 C2061 1.463 . S
C2064 N2068 1.427 . S
C2065 H2055 0.929 . S
C2065 C2063 1.433 . S
C2065 N2068 1.384 . S
C2066 H2057 0.929 . S
C2066 C2058 1.378 . S
C2066 C2061 1.350 . S
C2067 H2054 0.929 . S
C2067 C2059 1.433 . S
C2067 N2069 1.384 . S
N2068 C2064 1.427 . S
N2068 C2065 1.384 . S
N2069 C2061 1.427 . S
N2069 C2067 1.384 . S
H2070 C2076 0.930 . S
H2071 C2080 0.930 . S
H2072 C2085 0.929 . S
H2073 C2083 0.929 . S
H2074 C2078 0.929 . S
H2075 C2084 0.929 . S
C2076 H2070 0.930 . S
C2076 C2077 1.367 1_554 S
C2076 C2084 1.378 . S
C2077 C2076 1.367 1_556 S
C2077 C2085 1.433 . S
C2078 H2074 0.929 . S
C2078 C2080 1.378 . S
C2078 C2082 1.350 . S
C2079 C2082 1.463 . S
C2079 C2084 1.350 1_556 S
C2079 N2087 1.427 . S
C2080 H2071 0.930 . S
C2080 C2078 1.378 . S
C2080 C2081 1.367 . S
C2081 C2080 1.367 . S
C2081 C2083 1.433 . S
C2082 C2078 1.350 . S
C2082 C2079 1.463 . S
C2082 N2086 1.427 . S
C2083 H2073 0.929 . S
C2083 C2081 1.433 . S
C2083 N2086 1.384 . S
C2084 H2075 0.929 . S
C2084 C2076 1.378 . S
C2084 C2079 1.350 1_554 S
C2085 H2072 0.929 . S
C2085 C2077 1.433 . S
C2085 N2087 1.384 . S
N2086 C2082 1.427 . S
N2086 C2083 1.384 . S
N2087 C2079 1.427 . S
N2087 C2085 1.384 . S
H2088 C2094 0.930 . S
H2089 C2098 0.930 . S
H2090 C2103 0.929 . S
H2091 C2101 0.929 . S
H2092 C2096 0.929 . S
H2093 C2102 0.929 . S
C2094 H2088 0.930 . S
C2094 C2095 1.367 . S
C2094 C2102 1.378 . S
C2095 C2094 1.367 . S
C2095 C2103 1.433 1_556 S
C2096 H2092 0.929 . S
C2096 C2098 1.378 . S
C2096 C2100 1.350 . S
C2097 C2100 1.463 . S
C2097 C2102 1.350 . S
C2097 N2105 1.427 . S
C2098 H2089 0.930 . S
C2098 C2096 1.378 . S
C2098 C2099 1.367 . S
C2099 C2098 1.367 . S
C2099 C2101 1.433 . S
C2100 C2096 1.350 . S
C2100 C2097 1.463 . S
C2100 N2104 1.427 . S
C2101 H2091 0.929 . S
C2101 C2099 1.433 . S
C2101 N2104 1.384 . S
C2102 H2093 0.929 . S
C2102 C2094 1.378 . S
C2102 C2097 1.350 . S
C2103 H2090 0.929 . S
C2103 C2095 1.433 1_554 S
C2103 N2105 1.384 1_554 S
N2104 C2100 1.427 . S
N2104 C2101 1.384 . S
N2105 C2097 1.427 . S
N2105 C2103 1.384 1_556 S
H2106 C2112 0.930 . S
H2107 C2116 0.930 . S
H2108 C2121 0.929 . S
H2109 C2119 0.929 . S
H2110 C2114 0.929 . S
H2111 C2120 0.929 . S
C2112 H2106 0.930 . S
C2112 C2113 1.367 . S
C2112 C2120 1.378 . S
C2113 C2112 1.367 . S
C2113 C2121 1.433 1_556 S
C2114 H2110 0.929 . S
C2114 C2116 1.378 . S
C2114 C2118 1.350 . S
C2115 C2118 1.463 . S
C2115 C2120 1.350 . S
C2115 N2123 1.427 . S
C2116 H2107 0.930 . S
C2116 C2114 1.378 . S
C2116 C2117 1.367 . S
C2117 C2116 1.367 . S
C2117 C2119 1.433 . S
C2118 C2114 1.350 . S
C2118 C2115 1.463 . S
C2118 N2122 1.427 . S
C2119 H2109 0.929 . S
C2119 C2117 1.433 . S
C2119 N2122 1.384 . S
C2120 H2111 0.929 . S
C2120 C2112 1.378 . S
C2120 C2115 1.350 . S
C2121 H2108 0.929 . S
C2121 C2113 1.433 1_554 S
C2121 N2123 1.384 1_554 S
N2122 C2118 1.427 . S
N2122 C2119 1.384 . S
N2123 C2115 1.427 . S
N2123 C2121 1.384 1_556 S
H2124 C2130 0.930 . S
H2125 C2134 0.930 . S
H2126 C2139 0.921 1_554 S
H2127 C2137 0.929 . S
H2128 C2132 0.929 . S
H2129 C2138 0.929 . S
C2130 H2124 0.930 . S
C2130 C2131 1.367 . S
C2130 C2138 1.378 . S
C2131 C2130 1.367 . S
C2131 C2139 1.437 . S
C2132 H2128 0.929 . S
C2132 C2134 1.378 . S
C2132 C2136 1.350 . S
C2133 C2136 1.463 . S
C2133 C2138 1.350 . S
C2133 N2141 1.427 . S
C2134 H2125 0.930 . S
C2134 C2132 1.378 . S
C2134 C2135 1.367 . S
C2135 C2134 1.367 . S
C2135 C2137 1.433 . S
C2136 C2132 1.350 . S
C2136 C2133 1.463 . S
C2136 N2140 1.427 . S
C2137 H2127 0.929 . S
C2137 C2135 1.433 . S
C2137 N2140 1.384 . S
C2138 H2129 0.929 . S
C2138 C2130 1.378 . S
C2138 C2133 1.350 . S
C2139 H2126 0.921 1_556 S
C2139 C2131 1.437 . S
C2139 N2141 1.390 . S
N2140 C2136 1.427 . S
N2140 C2137 1.384 . S
N2141 C2133 1.427 . S
N2141 C2139 1.390 . S
H2142 C2148 0.930 . S
H2143 C2152 0.930 . S
H2144 C2157 0.929 . S
H2145 C2155 0.929 . S
H2146 C2150 0.929 1_554 S
H2147 C2156 0.929 . S
C2148 H2142 0.930 . S
C2148 C2149 1.367 . S
C2148 C2156 1.378 . S
C2149 C2148 1.367 . S
C2149 C2157 1.433 1_556 S
C2150 H2146 0.929 1_556 S
C2150 C2152 1.378 . S
C2150 C2154 1.350 . S
C2151 C2154 1.463 . S
C2151 C2156 1.350 . S
C2151 N2159 1.427 1_556 S
C2152 H2143 0.930 . S
C2152 C2150 1.378 . S
C2152 C2153 1.367 . S
C2153 C2152 1.367 . S
C2153 C2155 1.433 . S
C2154 C2150 1.350 . S
C2154 C2151 1.463 . S
C2154 N2158 1.427 . S
C2155 H2145 0.929 . S
C2155 C2153 1.433 . S
C2155 N2158 1.384 . S
C2156 H2147 0.929 . S
C2156 C2148 1.378 . S
C2156 C2151 1.350 . S
C2157 H2144 0.929 . S
C2157 C2149 1.433 1_554 S
C2157 N2159 1.384 . S
N2158 C2154 1.427 . S
N2158 C2155 1.384 . S
N2159 C2151 1.427 1_554 S
N2159 C2157 1.384 . S
H2160 C2166 0.930 . S
H2161 C2170 0.930 . S
H2162 C2175 0.929 . S
H2163 C2173 0.929 . S
H2164 C2168 0.929 1_554 S
H2165 C2174 0.929 . S
C2166 H2160 0.930 . S
C2166 C2167 1.358 1_556 S
C2166 C2174 1.378 . S
C2167 C2166 1.358 1_554 S
C2167 C2175 1.439 . S
C2168 H2164 0.929 1_556 S
C2168 C2170 1.378 . S
C2168 C2172 1.350 . S
C2169 C2172 1.463 . S
C2169 C2174 1.350 . S
C2169 N2177 1.427 1_556 S
C2170 H2161 0.930 . S
C2170 C2168 1.378 . S
C2170 C2171 1.367 . S
C2171 C2170 1.367 . S
C2171 C2173 1.433 . S
C2172 C2168 1.350 . S
C2172 C2169 1.463 . S
C2172 N2176 1.427 . S
C2173 H2163 0.929 . S
C2173 C2171 1.433 . S
C2173 N2176 1.384 . S
C2174 H2165 0.929 . S
C2174 C2166 1.378 . S
C2174 C2169 1.350 . S
C2175 H2162 0.929 . S
C2175 C2167 1.439 . S
C2175 N2177 1.384 . S
N2176 C2172 1.427 . S
N2176 C2173 1.384 . S
N2177 C2169 1.427 1_554 S
N2177 C2175 1.384 . S
H2178 C2184 0.930 . S
H2179 C2188 0.930 . S
H2180 C2193 0.929 . S
H2181 C2191 0.929 . S
H2182 C2186 0.929 . S
H2183 C2192 0.929 . S
C2184 H2178 0.930 . S
C2184 C2185 1.367 . S
C2184 C2192 1.378 . S
C2185 C2184 1.367 . S
C2185 C2193 1.433 . S
C2186 H2182 0.929 . S
C2186 C2188 1.378 . S
C2186 C2190 1.350 . S
C2187 C2190 1.463 . S
C2187 C2192 1.350 . S
C2187 N2195 1.427 . S
C2188 H2179 0.930 . S
C2188 C2186 1.378 . S
C2188 C2189 1.367 . S
C2189 C2188 1.367 . S
C2189 C2191 1.433 . S
C2190 C2186 1.350 . S
C2190 C2187 1.463 . S
C2190 N2194 1.427 . S
C2191 H2181 0.929 . S
C2191 C2189 1.433 . S
C2191 N2194 1.384 . S
C2192 H2183 0.929 . S
C2192 C2184 1.378 . S
C2192 C2187 1.350 . S
C2193 H2180 0.929 . S
C2193 C2185 1.433 . S
C2193 N2195 1.384 . S
N2194 C2190 1.427 . S
N2194 C2191 1.384 . S
N2195 C2187 1.427 . S
N2195 C2193 1.384 . S
H2196 C2202 0.930 . S
H2197 C2206 0.930 . S
H2198 C2211 0.929 . S
H2199 C2209 0.929 . S
H2200 C2204 0.929 . S
H2201 C2210 0.929 . S
C2202 H2196 0.930 . S
C2202 C2203 1.367 . S
C2202 C2210 1.378 . S
C2203 C2202 1.367 . S
C2203 C2211 1.433 . S
C2204 H2200 0.929 . S
C2204 C2206 1.378 . S
C2204 C2208 1.350 . S
C2205 C2208 1.463 . S
C2205 C2210 1.350 . S
C2205 N2213 1.427 . S
C2206 H2197 0.930 . S
C2206 C2204 1.378 . S
C2206 C2207 1.367 . S
C2207 C2206 1.367 . S
C2207 C2209 1.433 . S
C2208 C2204 1.350 . S
C2208 C2205 1.463 . S
C2208 N2212 1.427 . S
C2209 H2199 0.929 . S
C2209 C2207 1.433 . S
C2209 N2212 1.384 . S
C2210 H2201 0.929 . S
C2210 C2202 1.378 . S
C2210 C2205 1.350 . S
C2211 H2198 0.929 . S
C2211 C2203 1.433 . S
C2211 N2213 1.384 . S
N2212 C2208 1.427 . S
N2212 C2209 1.384 . S
N2213 C2205 1.427 . S
N2213 C2211 1.384 . S
H2214 C2220 0.930 . S
H2215 C2224 0.930 . S
H2216 C2229 0.929 . S
H2217 C2227 0.929 . S
H2218 C2222 0.929 . S
H2219 C2228 0.929 . S
C2220 H2214 0.930 . S
C2220 C2221 1.367 . S
C2220 C2228 1.378 . S
C2221 C2220 1.367 . S
C2221 C2229 1.433 . S
C2222 H2218 0.929 . S
C2222 C2224 1.378 . S
C2222 C2226 1.350 . S
C2223 C2226 1.463 . S
C2223 C2228 1.350 . S
C2223 N2231 1.427 . S
C2224 H2215 0.930 . S
C2224 C2222 1.378 . S
C2224 C2225 1.367 . S
C2225 C2224 1.367 . S
C2225 C2227 1.433 . S
C2226 C2222 1.350 . S
C2226 C2223 1.463 . S
C2226 N2230 1.427 . S
C2227 H2217 0.929 . S
C2227 C2225 1.433 . S
C2227 N2230 1.384 . S
C2228 H2219 0.929 . S
C2228 C2220 1.378 . S
C2228 C2223 1.350 . S
C2229 H2216 0.929 . S
C2229 C2221 1.433 . S
C2229 N2231 1.384 . S
N2230 C2226 1.427 . S
N2230 C2227 1.384 . S
N2231 C2223 1.427 . S
N2231 C2229 1.384 . S
H2232 C2238 0.930 . S
H2233 C2242 0.930 . S
H2234 C2247 0.929 . S
H2235 C2245 0.929 . S
H2236 C2240 0.929 . S
H2237 C2246 0.929 . S
C2238 H2232 0.930 . S
C2238 C2239 1.367 . S
C2238 C2246 1.378 . S
C2239 C2238 1.367 . S
C2239 C2247 1.433 . S
C2240 H2236 0.929 . S
C2240 C2242 1.378 . S
C2240 C2244 1.350 . S
C2241 C2244 1.463 . S
C2241 C2246 1.350 . S
C2241 N2249 1.427 . S
C2242 H2233 0.930 . S
C2242 C2240 1.378 . S
C2242 C2243 1.367 . S
C2243 C2242 1.367 . S
C2243 C2245 1.433 . S
C2244 C2240 1.350 . S
C2244 C2241 1.463 . S
C2244 N2248 1.427 . S
C2245 H2235 0.929 . S
C2245 C2243 1.433 . S
C2245 N2248 1.384 . S
C2246 H2237 0.929 . S
C2246 C2238 1.378 . S
C2246 C2241 1.350 . S
C2247 H2234 0.929 . S
C2247 C2239 1.433 . S
C2247 N2249 1.384 . S
N2248 C2244 1.427 . S
N2248 C2245 1.384 . S
N2249 C2241 1.427 . S
N2249 C2247 1.384 . S
H2250 C2256 0.930 . S
H2251 C2260 0.930 . S
H2252 C2265 0.929 . S
H2253 C2263 0.929 . S
H2254 C2258 0.929 . S
H2255 C2264 0.929 . S
C2256 H2250 0.930 . S
C2256 C2257 1.367 . S
C2256 C2264 1.378 . S
C2257 C2256 1.367 . S
C2257 C2265 1.433 . S
C2258 H2254 0.929 . S
C2258 C2260 1.378 . S
C2258 C2262 1.350 . S
C2259 C2262 1.463 . S
C2259 C2264 1.350 . S
C2259 N2267 1.427 . S
C2260 H2251 0.930 . S
C2260 C2258 1.378 . S
C2260 C2261 1.367 . S
C2261 C2260 1.367 . S
C2261 C2263 1.433 . S
C2262 C2258 1.350 . S
C2262 C2259 1.463 . S
C2262 N2266 1.427 . S
C2263 H2253 0.929 . S
C2263 C2261 1.433 . S
C2263 N2266 1.384 . S
C2264 H2255 0.929 . S
C2264 C2256 1.378 . S
C2264 C2259 1.350 . S
C2265 H2252 0.929 . S
C2265 C2257 1.433 . S
C2265 N2267 1.384 . S
N2266 C2262 1.427 . S
N2266 C2263 1.384 . S
N2267 C2259 1.427 . S
N2267 C2265 1.384 . S
H2268 C2274 0.930 . S
H2269 C2278 0.930 . S
H2270 C2283 0.929 . S
H2271 C2281 0.929 . S
H2272 C2276 0.929 . S
H2273 C2282 0.929 . S
C2274 H2268 0.930 . S
C2274 C2275 1.367 . S
C2274 C2282 1.378 . S
C2275 C2274 1.367 . S
C2275 C2283 1.433 . S
C2276 H2272 0.929 . S
C2276 C2278 1.378 . S
C2276 C2280 1.350 . S
C2277 C2280 1.463 . S
C2277 C2282 1.350 . S
C2277 N2285 1.427 . S
C2278 H2269 0.930 . S
C2278 C2276 1.378 . S
C2278 C2279 1.367 . S
C2279 C2278 1.367 . S
C2279 C2281 1.433 . S
C2280 C2276 1.350 . S
C2280 C2277 1.463 . S
C2280 N2284 1.427 . S
C2281 H2271 0.929 . S
C2281 C2279 1.433 . S
C2281 N2284 1.384 . S
C2282 H2273 0.929 . S
C2282 C2274 1.378 . S
C2282 C2277 1.350 . S
C2283 H2270 0.929 . S
C2283 C2275 1.433 . S
C2283 N2285 1.384 . S
N2284 C2280 1.427 . S
N2284 C2281 1.384 . S
N2285 C2277 1.427 . S
N2285 C2283 1.384 . S
H2286 C2292 0.930 . S
H2287 C2296 0.930 . S
H2288 C2301 0.929 . S
H2289 C2299 0.929 . S
H2290 C2294 0.929 . S
H2291 C2300 0.929 . S
C2292 H2286 0.930 . S
C2292 C2293 1.367 . S
C2292 C2300 1.378 . S
C2293 C2292 1.367 . S
C2293 C2301 1.433 . S
C2294 H2290 0.929 . S
C2294 C2296 1.378 . S
C2294 C2298 1.350 . S
C2295 C2298 1.463 . S
C2295 C2300 1.350 . S
C2295 N2303 1.427 . S
C2296 H2287 0.930 . S
C2296 C2294 1.378 . S
C2296 C2297 1.367 . S
C2297 C2296 1.367 . S
C2297 C2299 1.433 . S
C2298 C2294 1.350 . S
C2298 C2295 1.463 . S
C2298 N2302 1.427 . S
C2299 H2289 0.929 . S
C2299 C2297 1.433 . S
C2299 N2302 1.384 . S
C2300 H2291 0.929 . S
C2300 C2292 1.378 . S
C2300 C2295 1.350 . S
C2301 H2288 0.929 . S
C2301 C2293 1.433 . S
C2301 N2303 1.384 . S
N2302 C2298 1.427 . S
N2302 C2299 1.384 . S
N2303 C2295 1.427 . S
N2303 C2301 1.384 . S
H2304 C2310 0.930 . S
H2305 C2314 0.930 . S
H2306 C2319 0.929 . S
H2307 C2317 0.929 . S
H2308 C2312 0.929 . S
H2309 C2318 0.929 . S
C2310 H2304 0.930 . S
C2310 C2311 1.367 . S
C2310 C2318 1.378 . S
C2311 C2310 1.367 . S
C2311 C2319 1.433 . S
C2312 H2308 0.929 . S
C2312 C2314 1.378 . S
C2312 C2316 1.350 . S
C2313 C2316 1.463 . S
C2313 C2318 1.350 . S
C2313 N2321 1.427 . S
C2314 H2305 0.930 . S
C2314 C2312 1.378 . S
C2314 C2315 1.367 . S
C2315 C2314 1.367 . S
C2315 C2317 1.433 . S
C2316 C2312 1.350 . S
C2316 C2313 1.463 . S
C2316 N2320 1.427 . S
C2317 H2307 0.929 . S
C2317 C2315 1.433 . S
C2317 N2320 1.384 . S
C2318 H2309 0.929 . S
C2318 C2310 1.378 . S
C2318 C2313 1.350 . S
C2319 H2306 0.929 . S
C2319 C2311 1.433 . S
C2319 N2321 1.384 . S
N2320 C2316 1.427 . S
N2320 C2317 1.384 . S
N2321 C2313 1.427 . S
N2321 C2319 1.384 . S
H2322 C2328 0.930 . S
H2323 C2332 0.930 . S
H2324 C2337 0.929 . S
H2325 C2335 0.929 . S
H2326 C2330 0.929 . S
H2327 C2336 0.929 1_545 S
C2328 H2322 0.930 . S
C2328 C2329 1.367 . S
C2328 C2336 1.378 . S
C2329 C2328 1.367 . S
C2329 C2337 1.433 . S
C2330 H2326 0.929 . S
C2330 C2332 1.378 . S
C2330 C2334 1.350 . S
C2331 C2334 1.463 . S
C2331 C2336 1.350 . S
C2331 N2339 1.427 . S
C2332 H2323 0.930 . S
C2332 C2330 1.378 . S
C2332 C2333 1.367 . S
C2333 C2332 1.367 . S
C2333 C2335 1.433 1_565 S
C2334 C2330 1.350 . S
C2334 C2331 1.463 . S
C2334 N2338 1.391 1_565 S
C2335 H2325 0.929 . S
C2335 C2333 1.433 1_545 S
C2335 N2338 1.358 . S
C2336 H2327 0.929 1_565 S
C2336 C2328 1.378 . S
C2336 C2331 1.350 . S
C2337 H2324 0.929 . S
C2337 C2329 1.433 . S
C2337 N2339 1.384 . S
N2338 C2334 1.391 1_545 S
N2338 C2335 1.358 . S
N2339 C2331 1.427 . S
N2339 C2337 1.384 . S
H2340 C2346 0.930 . S
H2341 C2350 0.930 . S
H2342 C2355 0.957 . S
H2343 C2353 0.929 . S
H2344 C2348 0.934 . S
H2345 C2354 0.929 . S
C2346 H2340 0.930 . S
C2346 C2347 1.367 . S
C2346 C2354 1.378 . S
C2347 C2346 1.367 . S
C2347 C2355 1.433 . S
C2348 H2344 0.934 . S
C2348 C2350 1.388 . S
C2348 C2352 1.335 1_545 S
C2349 C2352 1.463 . S
C2349 C2354 1.350 . S
C2349 N2357 1.427 . S
C2350 H2341 0.930 . S
C2350 C2348 1.388 . S
C2350 C2351 1.367 1_545 S
C2351 C2350 1.367 1_565 S
C2351 C2353 1.433 . S
C2352 C2348 1.335 1_565 S
C2352 C2349 1.463 . S
C2352 N2356 1.427 . S
C2353 H2343 0.929 . S
C2353 C2351 1.433 . S
C2353 N2356 1.384 . S
C2354 H2345 0.929 . S
C2354 C2346 1.378 . S
C2354 C2349 1.350 . S
C2355 H2342 0.957 . S
C2355 C2347 1.433 . S
C2355 N2357 1.384 . S
N2356 C2352 1.427 . S
N2356 C2353 1.384 . S
N2357 C2349 1.427 . S
N2357 C2355 1.384 . S
H2358 C2364 0.930 . S
H2359 C2368 0.930 . S
H2360 C2373 0.929 . S
H2361 C2371 0.929 . S
H2362 C2366 0.929 . S
H2363 C2372 0.929 . S
C2364 H2358 0.930 . S
C2364 C2365 1.367 . S
C2364 C2372 1.378 . S
C2365 C2364 1.367 . S
C2365 C2373 1.433 . S
C2366 H2362 0.929 . S
C2366 C2368 1.378 . S
C2366 C2370 1.350 . S
C2367 C2370 1.463 . S
C2367 C2372 1.350 . S
C2367 N2375 1.427 . S
C2368 H2359 0.930 . S
C2368 C2366 1.378 . S
C2368 C2369 1.367 . S
C2369 C2368 1.367 . S
C2369 C2371 1.433 . S
C2370 C2366 1.350 . S
C2370 C2367 1.463 . S
C2370 N2374 1.427 . S
C2371 H2361 0.929 . S
C2371 C2369 1.433 . S
C2371 N2374 1.384 . S
C2372 H2363 0.929 . S
C2372 C2364 1.378 . S
C2372 C2367 1.350 . S
C2373 H2360 0.929 . S
C2373 C2365 1.433 . S
C2373 N2375 1.384 . S
N2374 C2370 1.427 . S
N2374 C2371 1.384 . S
N2375 C2367 1.427 . S
N2375 C2373 1.384 . S
H2376 C2382 0.930 . S
H2377 C2386 0.930 . S
H2378 C2391 0.929 . S
H2379 C2389 0.929 . S
H2380 C2384 0.929 . S
H2381 C2390 0.929 . S
C2382 H2376 0.930 . S
C2382 C2383 1.367 . S
C2382 C2390 1.378 . S
C2383 C2382 1.367 . S
C2383 C2391 1.433 . S
C2384 H2380 0.929 . S
C2384 C2386 1.378 . S
C2384 C2388 1.350 . S
C2385 C2388 1.463 . S
C2385 C2390 1.350 . S
C2385 N2393 1.427 . S
C2386 H2377 0.930 . S
C2386 C2384 1.378 . S
C2386 C2387 1.367 . S
C2387 C2386 1.367 . S
C2387 C2389 1.433 . S
C2388 C2384 1.350 . S
C2388 C2385 1.463 . S
C2388 N2392 1.427 . S
C2389 H2379 0.929 . S
C2389 C2387 1.433 . S
C2389 N2392 1.384 . S
C2390 H2381 0.929 . S
C2390 C2382 1.378 . S
C2390 C2385 1.350 . S
C2391 H2378 0.929 . S
C2391 C2383 1.433 . S
C2391 N2393 1.384 . S
N2392 C2388 1.427 . S
N2392 C2389 1.384 . S
N2393 C2385 1.427 . S
N2393 C2391 1.384 . S
H2394 C2400 0.930 . S
H2395 C2404 0.930 . S
H2396 C2409 0.929 . S
H2397 C2407 0.929 . S
H2398 C2402 0.929 . S
H2399 C2408 0.929 . S
C2400 H2394 0.930 . S
C2400 C2401 1.367 . S
C2400 C2408 1.378 . S
C2401 C2400 1.367 . S
C2401 C2409 1.433 . S
C2402 H2398 0.929 . S
C2402 C2404 1.378 . S
C2402 C2406 1.350 . S
C2403 C2406 1.463 . S
C2403 C2408 1.350 . S
C2403 N2411 1.427 . S
C2404 H2395 0.930 . S
C2404 C2402 1.378 . S
C2404 C2405 1.367 . S
C2405 C2404 1.367 . S
C2405 C2407 1.433 . S
C2406 C2402 1.350 . S
C2406 C2403 1.463 . S
C2406 N2410 1.427 . S
C2407 H2397 0.929 . S
C2407 C2405 1.433 . S
C2407 N2410 1.384 . S
C2408 H2399 0.929 . S
C2408 C2400 1.378 . S
C2408 C2403 1.350 . S
C2409 H2396 0.929 . S
C2409 C2401 1.433 . S
C2409 N2411 1.384 . S
N2410 C2406 1.427 . S
N2410 C2407 1.384 . S
N2411 C2403 1.427 . S
N2411 C2409 1.384 . S
H2412 C2418 0.930 . S
H2413 C2422 0.930 . S
H2414 C2427 0.929 . S
H2415 C2425 0.929 . S
H2416 C2420 0.929 . S
H2417 C2426 0.929 . S
C2418 H2412 0.930 . S
C2418 C2419 1.367 . S
C2418 C2426 1.378 . S
C2419 C2418 1.367 . S
C2419 C2427 1.433 . S
C2420 H2416 0.929 . S
C2420 C2422 1.378 . S
C2420 C2424 1.350 . S
C2421 C2424 1.463 . S
C2421 C2426 1.350 . S
C2421 N2429 1.427 . S
C2422 H2413 0.930 . S
C2422 C2420 1.378 . S
C2422 C2423 1.367 . S
C2423 C2422 1.367 . S
C2423 C2425 1.433 . S
C2424 C2420 1.350 . S
C2424 C2421 1.463 . S
C2424 N2428 1.427 . S
C2425 H2415 0.929 . S
C2425 C2423 1.433 . S
C2425 N2428 1.384 . S
C2426 H2417 0.929 . S
C2426 C2418 1.378 . S
C2426 C2421 1.350 . S
C2427 H2414 0.929 . S
C2427 C2419 1.433 . S
C2427 N2429 1.384 . S
N2428 C2424 1.427 . S
N2428 C2425 1.384 . S
N2429 C2421 1.427 . S
N2429 C2427 1.384 . S
H2430 C2436 0.930 . S
H2431 C2440 0.930 . S
H2432 C2445 0.929 . S
H2433 C2443 0.929 . S
H2434 C2438 0.929 . S
H2435 C2444 0.929 . S
C2436 H2430 0.930 . S
C2436 C2437 1.367 . S
C2436 C2444 1.378 . S
C2437 C2436 1.367 . S
C2437 C2445 1.433 . S
C2438 H2434 0.929 . S
C2438 C2440 1.378 . S
C2438 C2442 1.350 . S
C2439 C2442 1.463 . S
C2439 C2444 1.350 . S
C2439 N2447 1.427 . S
C2440 H2431 0.930 . S
C2440 C2438 1.378 . S
C2440 C2441 1.367 . S
C2441 C2440 1.367 . S
C2441 C2443 1.433 . S
C2442 C2438 1.350 . S
C2442 C2439 1.463 . S
C2442 N2446 1.427 . S
C2443 H2433 0.929 . S
C2443 C2441 1.433 . S
C2443 N2446 1.384 . S
C2444 H2435 0.929 . S
C2444 C2436 1.378 . S
C2444 C2439 1.350 . S
C2445 H2432 0.929 . S
C2445 C2437 1.433 . S
C2445 N2447 1.384 . S
N2446 C2442 1.427 . S
N2446 C2443 1.384 . S
N2447 C2439 1.427 . S
N2447 C2445 1.384 . S
H2448 C2454 0.930 . S
H2449 C2458 0.930 . S
H2450 C2463 0.929 . S
H2451 C2461 0.929 . S
H2452 C2456 0.929 . S
H2453 C2462 0.929 . S
C2454 H2448 0.930 . S
C2454 C2455 1.367 . S
C2454 C2462 1.378 . S
C2455 C2454 1.367 . S
C2455 C2463 1.433 . S
C2456 H2452 0.929 . S
C2456 C2458 1.378 . S
C2456 C2460 1.350 . S
C2457 C2460 1.463 . S
C2457 C2462 1.350 . S
C2457 N2465 1.427 . S
C2458 H2449 0.930 . S
C2458 C2456 1.378 . S
C2458 C2459 1.367 . S
C2459 C2458 1.367 . S
C2459 C2461 1.433 . S
C2460 C2456 1.350 . S
C2460 C2457 1.463 . S
C2460 N2464 1.427 . S
C2461 H2451 0.929 . S
C2461 C2459 1.433 . S
C2461 N2464 1.384 . S
C2462 H2453 0.929 . S
C2462 C2454 1.378 . S
C2462 C2457 1.350 . S
C2463 H2450 0.929 . S
C2463 C2455 1.433 . S
C2463 N2465 1.384 . S
N2464 C2460 1.427 . S
N2464 C2461 1.384 . S
N2465 C2457 1.427 . S
N2465 C2463 1.384 . S
H2466 C2472 0.930 . S
H2467 C2476 0.930 . S
H2468 C2481 0.929 . S
H2469 C2479 0.929 . S
H2470 C2474 0.929 . S
H2471 C2480 0.929 . S
C2472 H2466 0.930 . S
C2472 C2473 1.367 . S
C2472 C2480 1.378 . S
C2473 C2472 1.367 . S
C2473 C2481 1.433 . S
C2474 H2470 0.929 . S
C2474 C2476 1.378 . S
C2474 C2478 1.350 . S
C2475 C2478 1.463 . S
C2475 C2480 1.350 . S
C2475 N2483 1.427 . S
C2476 H2467 0.930 . S
C2476 C2474 1.378 . S
C2476 C2477 1.367 . S
C2477 C2476 1.367 . S
C2477 C2479 1.433 . S
C2478 C2474 1.350 . S
C2478 C2475 1.463 . S
C2478 N2482 1.427 . S
C2479 H2469 0.929 . S
C2479 C2477 1.433 . S
C2479 N2482 1.384 . S
C2480 H2471 0.929 . S
C2480 C2472 1.378 . S
C2480 C2475 1.350 . S
C2481 H2468 0.929 . S
C2481 C2473 1.433 . S
C2481 N2483 1.384 . S
N2482 C2478 1.427 . S
N2482 C2479 1.384 . S
N2483 C2475 1.427 . S
N2483 C2481 1.384 . S
H2484 C2490 0.930 . S
H2485 C2494 0.930 . S
H2486 C2499 0.929 . S
H2487 C2497 0.929 . S
H2488 C2492 0.929 . S
H2489 C2498 0.929 . S
C2490 H2484 0.930 . S
C2490 C2491 1.367 . S
C2490 C2498 1.378 . S
C2491 C2490 1.367 . S
C2491 C2499 1.433 . S
C2492 H2488 0.929 . S
C2492 C2494 1.378 . S
C2492 C2496 1.350 . S
C2493 C2496 1.463 . S
C2493 C2498 1.350 . S
C2493 N2501 1.427 . S
C2494 H2485 0.930 . S
C2494 C2492 1.378 . S
C2494 C2495 1.367 . S
C2495 C2494 1.367 . S
C2495 C2497 1.433 . S
C2496 C2492 1.350 . S
C2496 C2493 1.463 . S
C2496 N2500 1.427 . S
C2497 H2487 0.929 . S
C2497 C2495 1.433 . S
C2497 N2500 1.384 . S
C2498 H2489 0.929 . S
C2498 C2490 1.378 . S
C2498 C2493 1.350 . S
C2499 H2486 0.929 . S
C2499 C2491 1.433 . S
C2499 N2501 1.384 . S
N2500 C2496 1.427 . S
N2500 C2497 1.384 . S
N2501 C2493 1.427 . S
N2501 C2499 1.384 . S
H2502 C2508 0.930 . S
H2503 C2512 0.930 . S
H2504 C2517 0.929 . S
H2505 C2515 0.929 . S
H2506 C2510 0.929 . S
H2507 C2516 0.929 . S
C2508 H2502 0.930 . S
C2508 C2509 1.367 . S
C2508 C2516 1.378 . S
C2509 C2508 1.367 . S
C2509 C2517 1.433 . S
C2510 H2506 0.929 . S
C2510 C2512 1.378 . S
C2510 C2514 1.350 . S
C2511 C2514 1.463 . S
C2511 C2516 1.350 . S
C2511 N2519 1.427 . S
C2512 H2503 0.930 . S
C2512 C2510 1.378 . S
C2512 C2513 1.367 . S
C2513 C2512 1.367 . S
C2513 C2515 1.433 . S
C2514 C2510 1.350 . S
C2514 C2511 1.463 . S
C2514 N2518 1.427 . S
C2515 H2505 0.929 . S
C2515 C2513 1.433 . S
C2515 N2518 1.384 . S
C2516 H2507 0.929 . S
C2516 C2508 1.378 . S
C2516 C2511 1.350 . S
C2517 H2504 0.929 . S
C2517 C2509 1.433 . S
C2517 N2519 1.384 . S
N2518 C2514 1.427 . S
N2518 C2515 1.384 . S
N2519 C2511 1.427 . S
N2519 C2517 1.384 . S
H2520 C2526 0.930 . S
H2521 C2530 0.930 . S
H2522 C2535 0.929 . S
H2523 C2533 0.929 . S
H2524 C2528 0.929 . S
H2525 C2534 0.929 . S
C2526 H2520 0.930 . S
C2526 C2527 1.367 . S
C2526 C2534 1.378 . S
C2527 C2526 1.367 . S
C2527 C2535 1.433 . S
C2528 H2524 0.929 . S
C2528 C2530 1.378 . S
C2528 C2532 1.350 . S
C2529 C2532 1.463 . S
C2529 C2534 1.350 . S
C2529 N2537 1.427 . S
C2530 H2521 0.930 . S
C2530 C2528 1.378 . S
C2530 C2531 1.367 . S
C2531 C2530 1.367 . S
C2531 C2533 1.433 . S
C2532 C2528 1.350 . S
C2532 C2529 1.463 . S
C2532 N2536 1.427 . S
C2533 H2523 0.929 . S
C2533 C2531 1.433 . S
C2533 N2536 1.384 . S
C2534 H2525 0.929 . S
C2534 C2526 1.378 . S
C2534 C2529 1.350 . S
C2535 H2522 0.929 . S
C2535 C2527 1.433 . S
C2535 N2537 1.384 . S
N2536 C2532 1.427 . S
N2536 C2533 1.384 . S
N2537 C2529 1.427 . S
N2537 C2535 1.384 . S
H2538 C2544 0.930 . S
H2539 C2548 0.930 . S
H2540 C2553 0.929 . S
H2541 C2551 0.929 . S
H2542 C2546 0.929 . S
H2543 C2552 0.929 . S
C2544 H2538 0.930 . S
C2544 C2545 1.367 . S
C2544 C2552 1.378 . S
C2545 C2544 1.367 . S
C2545 C2553 1.433 . S
C2546 H2542 0.929 . S
C2546 C2548 1.378 . S
C2546 C2550 1.350 . S
C2547 C2550 1.463 . S
C2547 C2552 1.350 . S
C2547 N2555 1.427 . S
C2548 H2539 0.930 . S
C2548 C2546 1.378 . S
C2548 C2549 1.367 . S
C2549 C2548 1.367 . S
C2549 C2551 1.433 . S
C2550 C2546 1.350 . S
C2550 C2547 1.463 . S
C2550 N2554 1.427 . S
C2551 H2541 0.929 . S
C2551 C2549 1.433 . S
C2551 N2554 1.384 . S
C2552 H2543 0.929 . S
C2552 C2544 1.378 . S
C2552 C2547 1.350 . S
C2553 H2540 0.929 . S
C2553 C2545 1.433 . S
C2553 N2555 1.384 . S
N2554 C2550 1.427 . S
N2554 C2551 1.384 . S
N2555 C2547 1.427 . S
N2555 C2553 1.384 . S
H2556 C2562 0.930 . S
H2557 C2566 0.930 . S
H2558 C2571 0.929 . S
H2559 C2569 0.929 . S
H2560 C2564 0.929 . S
H2561 C2570 0.929 . S
C2562 H2556 0.930 . S
C2562 C2563 1.367 . S
C2562 C2570 1.378 . S
C2563 C2562 1.367 . S
C2563 C2571 1.433 . S
C2564 H2560 0.929 . S
C2564 C2566 1.378 . S
C2564 C2568 1.350 . S
C2565 C2568 1.463 . S
C2565 C2570 1.350 . S
C2565 N2573 1.427 . S
C2566 H2557 0.930 . S
C2566 C2564 1.378 . S
C2566 C2567 1.367 . S
C2567 C2566 1.367 . S
C2567 C2569 1.433 . S
C2568 C2564 1.350 . S
C2568 C2565 1.463 . S
C2568 N2572 1.427 . S
C2569 H2559 0.929 . S
C2569 C2567 1.433 . S
C2569 N2572 1.384 . S
C2570 H2561 0.929 . S
C2570 C2562 1.378 . S
C2570 C2565 1.350 . S
C2571 H2558 0.929 . S
C2571 C2563 1.433 . S
C2571 N2573 1.384 . S
N2572 C2568 1.427 . S
N2572 C2569 1.384 . S
N2573 C2565 1.427 . S
N2573 C2571 1.384 . S
H2574 C2580 0.930 . S
H2575 C2584 0.930 . S
H2576 C2589 0.929 . S
H2577 C2587 0.929 . S
H2578 C2582 0.929 . S
H2579 C2588 0.929 . S
C2580 H2574 0.930 . S
C2580 C2581 1.367 . S
C2580 C2588 1.378 . S
C2581 C2580 1.367 . S
C2581 C2589 1.433 . S
C2582 H2578 0.929 . S
C2582 C2584 1.378 . S
C2582 C2586 1.350 . S
C2583 C2586 1.463 . S
C2583 C2588 1.350 . S
C2583 N2591 1.427 . S
C2584 H2575 0.930 . S
C2584 C2582 1.378 . S
C2584 C2585 1.367 . S
C2585 C2584 1.367 . S
C2585 C2587 1.433 . S
C2586 C2582 1.350 . S
C2586 C2583 1.463 . S
C2586 N2590 1.427 . S
C2587 H2577 0.929 . S
C2587 C2585 1.433 . S
C2587 N2590 1.384 . S
C2588 H2579 0.929 . S
C2588 C2580 1.378 . S
C2588 C2583 1.350 . S
C2589 H2576 0.929 . S
C2589 C2581 1.433 . S
C2589 N2591 1.384 . S
N2590 C2586 1.427 . S
N2590 C2587 1.384 . S
N2591 C2583 1.427 . S
N2591 C2589 1.384 . S
H2592 C2598 0.930 . S
H2593 C2602 0.930 . S
H2594 C2607 0.929 . S
H2595 C2605 0.929 . S
H2596 C2600 0.929 . S
H2597 C2606 0.929 . S
C2598 H2592 0.930 . S
C2598 C2599 1.367 . S
C2598 C2606 1.378 . S
C2599 C2598 1.367 . S
C2599 C2607 1.433 . S
C2600 H2596 0.929 . S
C2600 C2602 1.378 . S
C2600 C2604 1.350 . S
C2601 C2604 1.463 . S
C2601 C2606 1.350 . S
C2601 N2609 1.427 . S
C2602 H2593 0.930 . S
C2602 C2600 1.378 . S
C2602 C2603 1.367 . S
C2603 C2602 1.367 . S
C2603 C2605 1.433 . S
C2604 C2600 1.350 . S
C2604 C2601 1.463 . S
C2604 N2608 1.427 . S
C2605 H2595 0.929 . S
C2605 C2603 1.433 . S
C2605 N2608 1.384 . S
C2606 H2597 0.929 . S
C2606 C2598 1.378 . S
C2606 C2601 1.350 . S
C2607 H2594 0.929 . S
C2607 C2599 1.433 . S
C2607 N2609 1.384 . S
N2608 C2604 1.427 . S
N2608 C2605 1.384 . S
N2609 C2601 1.427 . S
N2609 C2607 1.384 . S
H2610 C2616 0.930 . S
H2611 C2620 0.930 . S
H2612 C2625 0.929 . S
H2613 C2623 0.929 1_455 S
H2614 C2618 0.929 . S
H2615 C2624 0.929 . S
C2616 H2610 0.930 . S
C2616 C2617 1.367 . S
C2616 C2624 1.378 . S
C2617 C2616 1.367 . S
C2617 C2625 1.433 . S
C2618 H2614 0.929 . S
C2618 C2620 1.378 . S
C2618 C2622 1.350 . S
C2619 C2622 1.463 . S
C2619 C2624 1.350 . S
C2619 N2627 1.427 . S
C2620 H2611 0.930 . S
C2620 C2618 1.378 . S
C2620 C2621 1.367 . S
C2621 C2620 1.367 . S
C2621 C2623 1.433 . S
C2622 C2618 1.350 . S
C2622 C2619 1.463 . S
C2622 N2626 1.427 . S
C2623 H2613 0.929 1_655 S
C2623 C2621 1.433 . S
C2623 N2626 1.384 . S
C2624 H2615 0.929 . S
C2624 C2616 1.378 . S
C2624 C2619 1.350 . S
C2625 H2612 0.929 . S
C2625 C2617 1.433 . S
C2625 N2627 1.384 . S
N2626 C2622 1.427 . S
N2626 C2623 1.384 . S
N2627 C2619 1.427 . S
N2627 C2625 1.384 . S
H2628 C2634 0.930 . S
H2629 C2638 0.930 . S
H2630 C2643 0.929 . S
H2631 C2641 0.929 . S
H2632 C2636 0.929 . S
H2633 C2642 0.929 . S
C2634 H2628 0.930 . S
C2634 C2635 1.367 . S
C2634 C2642 1.378 . S
C2635 C2634 1.367 . S
C2635 C2643 1.433 . S
C2636 H2632 0.929 . S
C2636 C2638 1.378 . S
C2636 C2640 1.350 . S
C2637 C2640 1.463 . S
C2637 C2642 1.350 . S
C2637 N2645 1.427 . S
C2638 H2629 0.930 . S
C2638 C2636 1.378 . S
C2638 C2639 1.367 . S
C2639 C2638 1.367 . S
C2639 C2641 1.433 . S
C2640 C2636 1.350 . S
C2640 C2637 1.463 . S
C2640 N2644 1.427 . S
C2641 H2631 0.929 . S
C2641 C2639 1.433 . S
C2641 N2644 1.384 . S
C2642 H2633 0.929 . S
C2642 C2634 1.378 . S
C2642 C2637 1.350 . S
C2643 H2630 0.929 . S
C2643 C2635 1.433 . S
C2643 N2645 1.384 . S
N2644 C2640 1.427 . S
N2644 C2641 1.384 . S
N2645 C2637 1.427 . S
N2645 C2643 1.384 . S
H2646 C2652 0.930 . S
H2647 C2656 0.930 . S
H2648 C2661 0.929 . S
H2649 C2659 0.929 . S
H2650 C2654 0.929 . S
H2651 C2660 0.929 1_565 S
C2652 H2646 0.930 . S
C2652 C2653 1.367 . S
C2652 C2660 1.378 . S
C2653 C2652 1.367 . S
C2653 C2661 1.433 . S
C2654 H2650 0.929 . S
C2654 C2656 1.378 . S
C2654 C2658 1.350 . S
C2655 C2658 1.463 . S
C2655 C2660 1.350 . S
C2655 N2663 1.427 . S
C2656 H2647 0.930 . S
C2656 C2654 1.378 . S
C2656 C2657 1.367 . S
C2657 C2656 1.367 . S
C2657 C2659 1.433 1_545 S
C2658 C2654 1.350 . S
C2658 C2655 1.463 . S
C2658 N2662 1.396 1_545 S
C2659 H2649 0.929 . S
C2659 C2657 1.433 1_565 S
C2659 N2662 1.371 . S
C2660 H2651 0.929 1_545 S
C2660 C2652 1.378 . S
C2660 C2655 1.350 . S
C2661 H2648 0.929 . S
C2661 C2653 1.433 . S
C2661 N2663 1.384 . S
N2662 C2658 1.396 1_565 S
N2662 C2659 1.371 . S
N2663 C2655 1.427 . S
N2663 C2661 1.384 . S
C1375 C13 1.532 . S
C1379 C857 1.557 . S
C1393 C27 1.405 . S
C1397 C901 1.433 . S
C1415 C981 1.553 . S
C1411 C36 1.520 . S
C1429 C41 1.484 . S
C1433 C1025 1.533 . S
C1447 C8 1.636 . S
C1451 C1105 1.660 . S
C1465 C22 1.490 . S
C1469 C1167 1.512 . S
C1483 C55 1.512 . S
C1487 C1087 1.536 . S
C1505 C1149 1.422 . S
C1501 C69 1.398 . S
C1523 C1043 1.579 . S
C1519 C78 1.546 . S
C1537 C83 1.486 . S
C1541 C963 1.506 . S
C1559 C839 1.666 . S
C1555 C50 1.653 . S
C1573 C64 1.486 . S
C1577 C919 1.523 . S
C1591 C97 1.556 . S
C1595 C1229 1.588 . S
C1609 C111 1.424 . S
C1613 C1273 1.459 . S
C1631 C1353 1.577 . S
C1627 C120 1.566 . S
C1645 C125 1.513 . S
C1649 C299 1.544 . S
C1663 C92 1.719 . S
C1667 C343 1.743 . S
C1681 C106 1.529 . S
C1685 C423 1.546 . S
C1699 C139 1.549 . S
C1703 C361 1.610 . S
C1717 C153 1.420 . S
C1721 C405 1.441 . S
C1739 C281 1.592 . S
C1735 C162 1.575 . S
C1757 C1335 1.553 . S
C1753 C167 1.519 . S
C1775 C1211 1.702 . S
C1771 C134 1.713 . S
C1793 C1291 1.552 . S
C1789 C148 1.524 . S
C1807 C181 1.548 . S
C1811 C485 1.578 . S
C1825 C195 1.414 . S
C1829 C547 1.433 . S
C1843 C204 1.572 . S
C1847 C591 1.607 . S
C1861 C209 1.522 . S
C1865 C653 1.584 . S
C1883 C715 1.748 . S
C1879 C176 1.727 . S
C1901 C795 1.532 . S
C1897 C190 1.522 . S
C1919 C733 1.628 . S
C1915 C223 1.570 . S
C1937 C777 1.441 . S
C1933 C237 1.413 . S
C1951 C246 1.574 . S
C1955 C671 1.599 . S
C1973 C609 1.563 . S
C1969 C251 1.514 . S
C1987 C218 1.703 . S
C1991 C467 1.700 . S
C2009 C529 1.545 . S
C2005 C232 1.534 . S
C2027 C305 1.342 . S
C2023 C11 1.417 . S
C2041 C25 1.317 . S
C2045 C349 1.267 . S
C2063 C429 1.309 . S
C2059 C35 1.379 . S
C2081 C491 1.341 . S
C2077 C39 1.419 1_556 S
C2099 C553 1.421 . S
C2095 C7 1.498 1_556 S
C2117 C597 1.336 . S
C2113 C21 1.396 1_556 S
C2131 C53 1.422 1_556 S
C2135 C615 1.385 . S
C2149 C67 1.302 1_556 S
C2153 C473 1.254 . S
C2167 C77 1.358 . S
C2171 C535 1.295 . S
C2185 C81 1.444 . S
C2189 C367 1.390 . S
C2207 C411 1.417 . S
C2203 C49 1.488 . S
C2221 C63 1.396 . S
C2225 C287 1.324 . S
C2243 C659 1.346 . S
C2239 C95 1.402 . S
C2257 C109 1.340 . S
C2261 C721 1.287 . S
C2275 C119 1.432 1_655 S
C2279 C801 1.359 . S
C2297 C863 1.263 . S
C2293 C123 1.335 . S
C2311 C91 1.484 . S
C2315 C907 1.410 . S
C2329 C105 1.327 . S
C2333 C987 1.259 . S
C2347 C137 1.362 . S
C2351 C969 1.293 . S
C2365 C151 1.222 . S
C2369 C845 1.162 . S
C2387 C925 1.323 . S
C2383 C161 1.382 . S
C2401 C165 1.437 . S
C2405 C739 1.392 . S
C2419 C133 1.516 1_545 S
C2423 C783 1.439 . S
C2441 C677 1.367 . S
C2437 C147 1.435 1_655 S
C2459 C1031 1.335 . S
C2455 C179 1.377 . S
C2473 C193 1.211 . S
C2477 C1111 1.175 . S
C2491 C203 1.377 . S
C2495 C1173 1.304 . S
C2513 C1235 1.347 . S
C2509 C207 1.414 . S
C2531 C1279 1.440 . S
C2527 C175 1.517 1_565 S
C2545 C189 1.439 1_455 S
C2549 C1359 1.369 . S
C2563 C221 1.419 . S
C2567 C1341 1.341 . S
C2581 C235 1.326 . S
C2585 C1217 1.267 . S
C2603 C1297 1.355 . S
C2599 C245 1.419 1_455 S
C2621 C1093 1.264 . S
C2617 C249 1.315 . S
C2639 C1155 1.419 . S
C2635 C217 1.491 . S
C2653 C231 1.355 . S
C2657 C1049 1.304 . S
