# Generated by pormake.
# Topology ptr, (4,4)-cn, num edge types: 1
# Building blocks:
#     Node 0, Type 0, BuildingBlock: CEKHIL_clean_sbu_0, # of connection points: 4
#     Node 1, Type 0, BuildingBlock: CEKHIL_clean_sbu_0, # of connection points: 4
#     Node 2, Type 0, BuildingBlock: CEKHIL_clean_sbu_0, # of connection points: 4
#     Node 3, Type 0, BuildingBlock: CEKHIL_clean_sbu_0, # of connection points: 4
#     Node 4, Type 0, BuildingBlock: CEKHIL_clean_sbu_0, # of connection points: 4
#     Node 5, Type 0, BuildingBlock: CEKHIL_clean_sbu_0, # of connection points: 4
#     Node 6, Type 0, BuildingBlock: CEKHIL_clean_sbu_0, # of connection points: 4
#     Node 7, Type 0, BuildingBlock: CEKHIL_clean_sbu_0, # of connection points: 4
#     Node 8, Type 0, BuildingBlock: CEKHIL_clean_sbu_0, # of connection points: 4
#     Node 9, Type 0, BuildingBlock: CEKHIL_clean_sbu_0, # of connection points: 4
#     Node 10, Type 0, BuildingBlock: CEKHIL_clean_sbu_0, # of connection points: 4
#     Node 11, Type 0, BuildingBlock: CEKHIL_clean_sbu_0, # of connection points: 4
#     Node 12, Type 0, BuildingBlock: CEKHIL_clean_sbu_0, # of connection points: 4
#     Node 13, Type 0, BuildingBlock: CEKHIL_clean_sbu_0, # of connection points: 4
#     Node 14, Type 0, BuildingBlock: CEKHIL_clean_sbu_0, # of connection points: 4
#     Node 15, Type 0, BuildingBlock: CEKHIL_clean_sbu_0, # of connection points: 4
#     Node 16, Type 0, BuildingBlock: CEKHIL_clean_sbu_0, # of connection points: 4
#     Node 17, Type 0, BuildingBlock: CEKHIL_clean_sbu_0, # of connection points: 4
#     Node 18, Type 1, BuildingBlock: MIFKUJ_clean_linker_1, # of connection points: 4
#     Node 19, Type 1, BuildingBlock: MIFKUJ_clean_linker_1, # of connection points: 4
#     Node 20, Type 1, BuildingBlock: MIFKUJ_clean_linker_1, # of connection points: 4
#     Node 21, Type 1, BuildingBlock: MIFKUJ_clean_linker_1, # of connection points: 4
#     Node 22, Type 1, BuildingBlock: MIFKUJ_clean_linker_1, # of connection points: 4
#     Node 23, Type 1, BuildingBlock: MIFKUJ_clean_linker_1, # of connection points: 4
#     Node 24, Type 1, BuildingBlock: MIFKUJ_clean_linker_1, # of connection points: 4
#     Node 25, Type 1, BuildingBlock: MIFKUJ_clean_linker_1, # of connection points: 4
#     Node 26, Type 1, BuildingBlock: MIFKUJ_clean_linker_1, # of connection points: 4
#     Node 27, Type 1, BuildingBlock: MIFKUJ_clean_linker_1, # of connection points: 4
#     Node 28, Type 1, BuildingBlock: MIFKUJ_clean_linker_1, # of connection points: 4
#     Node 29, Type 1, BuildingBlock: MIFKUJ_clean_linker_1, # of connection points: 4
#     Node 30, Type 1, BuildingBlock: MIFKUJ_clean_linker_1, # of connection points: 4
#     Node 31, Type 1, BuildingBlock: MIFKUJ_clean_linker_1, # of connection points: 4
#     Node 32, Type 1, BuildingBlock: MIFKUJ_clean_linker_1, # of connection points: 4
#     Node 33, Type 1, BuildingBlock: MIFKUJ_clean_linker_1, # of connection points: 4
#     Node 34, Type 1, BuildingBlock: MIFKUJ_clean_linker_1, # of connection points: 4
#     Node 35, Type 1, BuildingBlock: MIFKUJ_clean_linker_1, # of connection points: 4
#     Edge 36, Type (0, 1), None
#     Edge 37, Type (0, 1), None
#     Edge 38, Type (0, 1), None
#     Edge 39, Type (0, 1), None
#     Edge 40, Type (0, 1), None
#     Edge 41, Type (0, 1), None
#     Edge 42, Type (0, 1), None
#     Edge 43, Type (0, 1), None
#     Edge 44, Type (0, 1), None
#     Edge 45, Type (0, 1), None
#     Edge 46, Type (0, 1), None
#     Edge 47, Type (0, 1), None
#     Edge 48, Type (0, 1), None
#     Edge 49, Type (0, 1), None
#     Edge 50, Type (0, 1), None
#     Edge 51, Type (0, 1), None
#     Edge 52, Type (0, 1), None
#     Edge 53, Type (0, 1), None
#     Edge 54, Type (0, 1), None
#     Edge 55, Type (0, 1), None
#     Edge 56, Type (0, 1), None
#     Edge 57, Type (0, 1), None
#     Edge 58, Type (0, 1), None
#     Edge 59, Type (0, 1), None
#     Edge 60, Type (0, 1), None
#     Edge 61, Type (0, 1), None
#     Edge 62, Type (0, 1), None
#     Edge 63, Type (0, 1), None
#     Edge 64, Type (0, 1), None
#     Edge 65, Type (0, 1), None
#     Edge 66, Type (0, 1), None
#     Edge 67, Type (0, 1), None
#     Edge 68, Type (0, 1), None
#     Edge 69, Type (0, 1), None
#     Edge 70, Type (0, 1), None
#     Edge 71, Type (0, 1), None
#     Edge 72, Type (0, 1), None
#     Edge 73, Type (0, 1), None
#     Edge 74, Type (0, 1), None
#     Edge 75, Type (0, 1), None
#     Edge 76, Type (0, 1), None
#     Edge 77, Type (0, 1), None
#     Edge 78, Type (0, 1), None
#     Edge 79, Type (0, 1), None
#     Edge 80, Type (0, 1), None
#     Edge 81, Type (0, 1), None
#     Edge 82, Type (0, 1), None
#     Edge 83, Type (0, 1), None
#     Edge 84, Type (0, 1), None
#     Edge 85, Type (0, 1), None
#     Edge 86, Type (0, 1), None
#     Edge 87, Type (0, 1), None
#     Edge 88, Type (0, 1), None
#     Edge 89, Type (0, 1), None
#     Edge 90, Type (0, 1), None
#     Edge 91, Type (0, 1), None
#     Edge 92, Type (0, 1), None
#     Edge 93, Type (0, 1), None
#     Edge 94, Type (0, 1), None
#     Edge 95, Type (0, 1), None
#     Edge 96, Type (0, 1), None
#     Edge 97, Type (0, 1), None
#     Edge 98, Type (0, 1), None
#     Edge 99, Type (0, 1), None
#     Edge 100, Type (0, 1), None
#     Edge 101, Type (0, 1), None
#     Edge 102, Type (0, 1), None
#     Edge 103, Type (0, 1), None
#     Edge 104, Type (0, 1), None
#     Edge 105, Type (0, 1), None
#     Edge 106, Type (0, 1), None
#     Edge 107, Type (0, 1), None
# Relax obj value: 0.037
# Max RMSD: 0.122
# Mean RMSD: 0.060
data_MOF--net-ptr--node1-CEKHIL_clean_sbu_0--node2-MIFKUJ_clean_linker_1--edge1-none
_symmetry_space_group_name_H-M    P1
_symmetry_Int_Tables_number       1
_symmetry_cell_setting            triclinic
loop_
_symmetry_equiv_pos_as_xyz
'x, y, z'
_cell_length_a     48.184337
_cell_length_b     47.739711
_cell_length_c     33.533518
_cell_angle_alpha  90.440527
_cell_angle_beta   89.647082
_cell_angle_gamma 120.81855
loop_
_atom_site_label
_atom_site_type_symbol
_atom_site_fract_x
_atom_site_fract_y
_atom_site_fract_z
_atom_type_partial_charge
Co0 Co 0.01137 0.34589 0.0172 0.0
O1 O 0.02242 0.3245 0.05722 0.0
O2 O 0.05794 0.36843 0.02422 0.0
C3 C 0.97535 0.29976 0.98493 0.0
O4 O 0.00909 0.37404 0.9729 0.0
Co5 Co 0.94074 0.33153 0.00852 0.0
O6 O 0.95701 0.35476 0.95717 0.0
C7 C 0.98273 0.37466 0.07351 0.0
C8 C 0.05244 0.34635 0.05071 0.0
C9 C 0.98712 0.37365 0.95064 0.0
O10 O 1.0074 0.37421 0.0592 0.0
O11 O 0.95413 0.35728 0.05941 0.0
O12 O 1.00608 0.31301 0.97749 0.0
O13 O 0.96803 0.31322 0.01317 0.0
Co14 Co 0.66416 0.6603 0.00809 0.0
O15 O 0.69674 0.6813 0.96741 0.0
O16 O 0.68766 0.63776 1.0013 0.0
C17 C 0.67451 0.70643 0.04003 0.0
O18 O 0.63415 0.63237 0.05293 0.0
Co19 Co 0.60731 0.67309 0.01943 0.0
O20 O 0.60043 0.64979 0.07062 0.0
C21 C 0.60644 0.63147 0.95272 0.0
C22 C 0.70447 0.6594 0.97433 0.0
C23 C 0.6125 0.63182 0.07616 0.0
O24 O 0.6314 0.63164 0.96668 0.0
O25 O 0.59531 0.64855 0.96764 0.0
O26 O 0.69221 0.69366 0.0471 0.0
O27 O 0.65329 0.69248 0.01237 0.0
Co28 Co 0.34699 1.00109 0.00809 0.0
O29 O 0.32521 0.01222 0.96888 0.0
O30 O 0.36886 0.0482 1.00166 0.0
C31 C 0.30159 0.9646 0.04109 0.0
O32 O 0.37536 0.99846 0.0516 0.0
Co33 Co 0.33331 0.93004 0.01336 0.0
O34 O 0.35675 0.94555 0.06464 0.0
C35 C 0.37769 0.97429 0.95108 0.0
C36 C 0.34659 0.04256 0.97565 0.0
C37 C 0.37535 0.97578 0.07237 0.0
O38 O 0.37527 0.99808 0.96543 0.0
O39 O 0.36122 0.94509 0.96433 0.0
O40 O 0.31495 0.99563 0.04841 0.0
O41 O 0.31433 0.95707 0.0121 0.0
Co42 Co 1.00467 0.66 0.00873 0.0
O43 O 0.9936 0.68142 0.96875 0.0
O44 O 0.95809 0.63752 1.0018 0.0
C45 C 0.04078 0.70612 0.04096 0.0
O46 O 1.00695 0.63183 0.053 0.0
Co47 Co 0.07527 0.67423 0.01728 0.0
O48 O 0.05903 0.65101 0.06865 0.0
C49 C 0.03316 0.63113 0.95235 0.0
C50 C 0.96357 0.65959 0.97532 0.0
C51 C 0.02891 0.63217 0.07522 0.0
O52 O 0.00854 0.63164 0.9667 0.0
O53 O 0.06178 0.64847 0.96641 0.0
O54 O 0.01007 0.69292 0.04845 0.0
O55 O 0.04804 0.69263 0.01269 0.0
Co56 Co 0.35161 0.34554 0.01765 0.0
O57 O 0.31905 0.32453 0.05835 0.0
O58 O 0.32811 0.36809 0.02451 0.0
C59 C 0.34125 0.29944 0.98565 0.0
O60 O 0.38159 0.37348 0.9728 0.0
Co61 Co 0.40844 0.33275 0.00624 0.0
O62 O 0.41527 0.35603 0.95505 0.0
C63 C 0.40934 0.37434 0.073 0.0
C64 C 0.31133 0.34644 0.05149 0.0
C65 C 0.40321 0.37402 0.94953 0.0
O66 O 0.38439 0.37419 0.05905 0.0
O67 O 0.42046 0.35726 0.05805 0.0
O68 O 0.32353 0.31221 0.97863 0.0
O69 O 0.36247 0.31337 0.01332 0.0
Co70 Co 0.66907 0.00507 0.01789 0.0
O71 O 0.69081 0.99388 0.05706 0.0
O72 O 0.6471 0.95796 0.02432 0.0
C73 C 0.71448 0.04145 0.98483 0.0
O74 O 0.64071 0.00775 0.97441 0.0
Co75 Co 0.68291 0.07617 0.01255 0.0
O76 O 0.6594 0.06067 0.96132 0.0
C77 C 0.63843 0.03198 0.07482 0.0
C78 C 0.66937 0.96355 0.0503 0.0
C79 C 0.64074 0.03045 0.95364 0.0
O80 O 0.64086 0.00817 0.06056 0.0
O81 O 0.6549 0.06117 0.06151 0.0
O82 O 0.70104 0.01041 0.97754 0.0
O83 O 0.70181 0.04906 0.01383 0.0
Co84 Co 0.67809 0.67956 0.35028 0.0
O85 O 0.68899 0.65808 0.39034 0.0
O86 O 0.72464 0.702 0.35744 0.0
C87 C 0.64207 0.63346 0.31797 0.0
O88 O 0.67599 0.70779 0.30594 0.0
Co89 Co 0.60754 0.66538 0.34128 0.0
O90 O 0.62398 0.68864 0.28997 0.0
C91 C 0.64936 0.70821 0.40658 0.0
C92 C 0.71905 0.67987 0.3839 0.0
C93 C 0.65412 0.70747 0.28356 0.0
O94 O 0.67407 0.70786 0.39228 0.0
O95 O 0.62079 0.69087 0.39236 0.0
O96 O 0.67279 0.64667 0.31059 0.0
O97 O 0.63473 0.64697 0.34613 0.0
Co98 Co 0.33116 0.99332 0.34232 0.0
O99 O 0.36374 0.0144 0.30167 0.0
O100 O 0.3548 0.9709 0.33555 0.0
C101 C 0.34134 0.03941 0.37422 0.0
O102 O 0.30115 0.96533 0.38714 0.0
Co103 Co 0.27417 0.00592 0.35352 0.0
O104 O 0.26732 0.98264 0.40472 0.0
C105 C 0.27354 0.96442 0.2868 0.0
C106 C 0.37155 0.99256 0.30856 0.0
C107 C 0.27944 0.96472 0.41032 0.0
O108 O 0.29847 0.96459 0.30088 0.0
O109 O 0.26235 0.98146 0.30167 0.0
O110 O 0.35912 0.02673 0.38135 0.0
O111 O 0.32016 0.0254 0.34654 0.0
Co112 Co 0.01361 0.33435 0.34109 0.0
O113 O 0.99192 0.34559 0.30188 0.0
O114 O 0.03561 0.38146 0.3347 0.0
C115 C 0.96815 0.29794 0.37406 0.0
O116 O 0.04193 0.33166 0.3846 0.0
Co117 Co 0.99978 0.26326 0.34643 0.0
O118 O 0.02338 0.27876 0.39761 0.0
C119 C 0.0442 0.30744 0.28412 0.0
C120 C 0.01339 0.37591 0.30867 0.0
C121 C 0.04199 0.30899 0.40532 0.0
O122 O 0.04185 0.33126 0.29846 0.0
O123 O 0.02768 0.27824 0.29737 0.0
O124 O 0.98158 0.32897 0.38139 0.0
O125 O 0.98087 0.29036 0.34509 0.0
Co126 Co 0.67119 0.99293 0.34209 0.0
O127 O 0.66026 0.01436 0.30197 0.0
O128 O 0.62465 0.97045 0.33493 0.0
C129 C 0.7072 0.03908 0.37434 0.0
O130 O 0.67331 0.96475 0.38648 0.0
Co131 Co 0.74175 0.00715 0.35115 0.0
O132 O 0.72532 0.98389 0.40245 0.0
C133 C 0.69996 0.9643 0.28585 0.0
C134 C 0.63021 0.99252 0.30841 0.0
C135 C 0.69517 0.96506 0.40886 0.0
O136 O 0.67523 0.96463 0.30015 0.0
O137 O 0.72852 0.98166 0.30007 0.0
O138 O 0.67647 0.02586 0.38172 0.0
O139 O 0.71454 0.02555 0.34621 0.0
Co140 Co 0.01834 0.67873 0.35114 0.0
O141 O 0.98563 0.65762 0.39166 0.0
O142 O 0.99478 0.70123 0.35789 0.0
C143 C 0.00813 0.6327 0.31904 0.0
O144 O 0.04849 0.70675 0.30644 0.0
Co145 Co 0.07522 0.66594 0.34005 0.0
O146 O 0.08216 0.68925 0.28885 0.0
C147 C 0.07587 0.70741 0.40681 0.0
C148 C 0.9779 0.67952 0.38477 0.0
C149 C 0.07015 0.70727 0.28326 0.0
O150 O 0.05098 0.7073 0.39272 0.0
O151 O 0.08703 0.69034 0.39193 0.0
O152 O 0.99041 0.64546 0.31195 0.0
O153 O 0.02923 0.64657 0.34684 0.0
Co154 Co 0.33578 0.33825 0.35135 0.0
O155 O 0.3575 0.32701 0.39052 0.0
O156 O 0.31378 0.29114 0.35776 0.0
C157 C 0.38122 0.37463 0.31832 0.0
O158 O 0.30743 0.34097 0.30789 0.0
Co159 Co 0.3497 0.40938 0.34602 0.0
O160 O 0.32607 0.39389 0.29486 0.0
C161 C 0.30523 0.36523 0.40832 0.0
C162 C 0.33604 0.29669 0.38373 0.0
C163 C 0.30742 0.36367 0.28717 0.0
O164 O 0.30758 0.34139 0.39403 0.0
O165 O 0.32175 0.39441 0.39503 0.0
O166 O 0.36776 0.3436 0.311 0.0
O167 O 0.36855 0.38224 0.34731 0.0
Co168 Co 0.3446 0.01272 0.68396 0.0
O169 O 0.35564 0.99138 0.72407 0.0
O170 O 0.39116 0.03528 0.69103 0.0
C171 C 0.30861 0.96651 0.65179 0.0
O172 O 0.34238 0.04083 0.63956 0.0
Co173 Co 0.274 0.99836 0.67497 0.0
O174 O 0.29035 0.02164 0.62366 0.0
C175 C 0.31583 0.04139 0.74014 0.0
C176 C 0.38567 0.01324 0.71756 0.0
C177 C 0.32048 0.0405 0.61722 0.0
O178 O 0.34055 0.04104 0.72587 0.0
O179 O 0.28726 0.02398 0.72596 0.0
O180 O 0.33934 0.97978 0.64436 0.0
O181 O 0.30126 0.98004 0.67992 0.0
Co182 Co 0.99764 0.3271 0.67469 0.0
O183 O 0.03028 0.3482 0.63409 0.0
O184 O 0.02123 0.30464 0.6679 0.0
C185 C 1.00781 0.37312 0.70676 0.0
O186 O 0.96759 0.29907 0.71945 0.0
Co187 Co 0.94068 0.33974 0.68592 0.0
O188 O 0.93383 0.31645 0.73711 0.0
C189 C 0.94 0.29825 0.61917 0.0
C190 C 0.03804 0.32633 0.64096 0.0
C191 C 0.94592 0.29849 0.74267 0.0
O192 O 0.96495 0.29844 0.6332 0.0
O193 O 0.92881 0.31528 0.63408 0.0
O194 O 0.02558 0.36042 0.71381 0.0
O195 O 0.98667 0.3592 0.67901 0.0
Co196 Co 0.6802 0.66743 0.67448 0.0
O197 O 0.65844 0.67862 0.63532 0.0
O198 O 0.70216 0.71454 0.66803 0.0
C199 C 0.63478 0.63105 0.70755 0.0
O200 O 0.70857 0.66476 0.71795 0.0
Co201 Co 0.66637 0.59634 0.67984 0.0
O202 O 0.68995 0.61185 0.73103 0.0
C203 C 0.71071 0.64046 0.61744 0.0
C204 C 0.67988 0.70895 0.64207 0.0
C205 C 0.70859 0.64208 0.7387 0.0
O206 O 0.70838 0.6643 0.63178 0.0
O207 O 0.69421 0.61127 0.63074 0.0
O208 O 0.64824 0.66209 0.71485 0.0
O209 O 0.64745 0.62344 0.67855 0.0
Co210 Co 0.33775 0.32633 0.67527 0.0
O211 O 0.32685 0.3478 0.63519 0.0
O212 O 0.2912 0.30389 0.66812 0.0
C213 C 0.37377 0.37244 0.70757 0.0
O214 O 0.33985 0.29812 0.71963 0.0
Co215 Co 0.4083 0.34052 0.68427 0.0
O216 O 0.39187 0.31725 0.73557 0.0
C217 C 0.36646 0.29763 0.61902 0.0
C218 C 0.29679 0.326 0.64164 0.0
C219 C 0.36172 0.29843 0.742 0.0
O220 O 0.34175 0.29801 0.6333 0.0
O221 O 0.39503 0.31498 0.63322 0.0
O222 O 0.34305 0.35924 0.71494 0.0
O223 O 0.38111 0.35893 0.67941 0.0
Co224 Co 0.68481 0.01223 0.68405 0.0
O225 O 0.65223 0.99125 0.72474 0.0
O226 O 0.66129 0.03477 0.69082 0.0
C227 C 0.67447 0.96608 0.65217 0.0
O228 O 0.71483 0.04015 0.6392 0.0
Co229 Co 0.74166 0.99943 0.67277 0.0
O230 O 0.74856 0.02272 0.62158 0.0
C231 C 0.74252 0.04109 0.73944 0.0
C232 C 0.6445 0.01315 0.71783 0.0
C233 C 0.7365 0.0407 0.616 0.0
O234 O 0.71758 0.04093 0.72545 0.0
O235 O 0.75364 0.02399 0.72455 0.0
O236 O 0.65676 0.97884 0.64506 0.0
O237 O 0.69569 0.98006 0.67983 0.0
Co238 Co 1.00193 0.67118 0.68469 0.0
O239 O 0.0236 0.65997 0.72393 0.0
O240 O 0.97991 0.62408 0.69113 0.0
C241 C 0.04741 0.70756 0.65175 0.0
O242 O 0.97362 0.67387 0.64115 0.0
Co243 Co 0.0158 0.74229 0.67928 0.0
O244 O 0.99224 0.72678 0.62807 0.0
C245 C 0.97145 0.6982 0.74168 0.0
C246 C 1.00214 0.62965 0.71717 0.0
C247 C 0.97361 0.69655 0.62038 0.0
O248 O 0.97372 0.67433 0.72731 0.0
O249 O 0.988 0.72739 0.72841 0.0
O250 O 0.03395 0.67652 0.64442 0.0
O251 O 0.03469 0.71516 0.68068 0.0
H252 H 0.12873 0.37674 0.19912 0.0
H253 H 0.08324 0.36476 0.24358 0.0
H254 H 0.06251 0.26563 0.25546 0.0
H255 H 0.10799 0.27809 0.21205 0.0
H256 H 0.17426 0.33188 0.23201 0.0
H257 H 0.15981 0.39121 0.09024 0.0
H258 H 0.11707 0.39309 0.05304 0.0
H259 H 0.04743 0.29726 0.09683 0.0
H260 H 0.09015 0.29502 0.1325 0.0
H261 H 0.2256 0.30079 0.14079 0.0
H262 H 0.27018 0.30158 0.10508 0.0
H263 H 0.29135 0.3908 0.04662 0.0
H264 H 0.24685 0.39023 0.0833 0.0
H265 H 0.18362 0.35043 0.08593 0.0
H266 H 0.20408 0.29838 0.23491 0.0
H267 H 0.24813 0.30754 0.27968 0.0
H268 H 0.31007 0.40113 0.22469 0.0
H269 H 0.2662 0.39195 0.18047 0.0
C270 C 0.12171 0.3283 0.20256 0.0
C271 C 0.11402 0.35238 0.21104 0.0
C272 C 0.08803 0.34546 0.23642 0.0
C273 C 0.06922 0.31426 0.25336 0.0
C274 C 0.07634 0.28994 0.24315 0.0
C275 C 0.10245 0.297 0.21838 0.0
C276 C 0.15101 0.33579 0.1795 0.0
C277 C 0.17623 0.3356 0.2 0.0
C278 C 0.15406 0.34238 0.13808 0.0
C279 C 0.12818 0.34327 0.11499 0.0
C280 C 0.13534 0.37055 0.09166 0.0
C281 C 0.11089 0.37165 0.07047 0.0
C282 C 0.07879 0.34549 0.07233 0.0
C283 C 0.07182 0.31804 0.09517 0.0
C284 C 0.09625 0.31681 0.11589 0.0
C285 C 0.23312 0.34572 0.11522 0.0
C286 C 0.24 0.32074 0.12059 0.0
C287 C 0.26547 0.32115 0.10002 0.0
C288 C 0.28444 0.34636 0.0732 0.0
C289 C 0.27722 0.37109 0.0672 0.0
C290 C 0.25173 0.37074 0.088 0.0
C291 C 0.20648 0.34534 0.13831 0.0
C292 C 0.18183 0.34696 0.11797 0.0
C293 C 0.20423 0.34096 0.18017 0.0
C294 C 0.23175 0.3445 0.20432 0.0
C295 C 0.22733 0.32065 0.23217 0.0
C296 C 0.25261 0.32578 0.2575 0.0
C297 C 0.2826 0.35511 0.25586 0.0
C298 C 0.28727 0.3783 0.22684 0.0
C299 C 0.26218 0.37304 0.2014 0.0
H300 H 0.7373 0.90982 0.20819 0.0
H301 H 0.74545 0.95284 0.25424 0.0
H302 H 0.64422 0.92238 0.24465 0.0
H303 H 0.63662 0.87939 0.19736 0.0
H304 H 0.68493 0.83945 0.2279 0.0
H305 H 0.72191 0.92686 0.1313 0.0
H306 H 0.71803 0.96962 0.09731 0.0
H307 H 0.62516 0.89756 0.04949 0.0
H308 H 0.62875 0.85466 0.08493 0.0
H309 H 0.63471 0.77331 0.07475 0.0
H310 H 0.63406 0.73009 0.03526 0.0
H311 H 0.71772 0.74315 0.09874 0.0
H312 H 0.71903 0.78758 0.13747 0.0
H313 H 0.67285 0.83411 0.08084 0.0
H314 H 0.62975 0.74829 0.17275 0.0
H315 H 0.61919 0.70418 0.21811 0.0
H316 H 0.70989 0.76716 0.2776 0.0
H317 H 0.72037 0.81139 0.23183 0.0
C318 C 0.68643 0.89157 0.19961 0.0
C319 C 0.71701 0.91279 0.21554 0.0
C320 C 0.72154 0.9374 0.24189 0.0
C321 C 0.69537 0.94093 0.25358 0.0
C322 C 0.66484 0.92028 0.23639 0.0
C323 C 0.66044 0.89577 0.2094 0.0
C324 C 0.68173 0.86348 0.17564 0.0
C325 C 0.68267 0.8383 0.19566 0.0
C326 C 0.67712 0.86164 0.13392 0.0
C327 C 0.6753 0.88754 0.11156 0.0
C328 C 0.70043 0.9202 0.11411 0.0
C329 C 0.69824 0.94467 0.09437 0.0
C330 C 0.67111 0.93707 0.07095 0.0
C331 C 0.64629 0.90425 0.06746 0.0
C332 C 0.64838 0.87972 0.08761 0.0
C333 C 0.67672 0.78359 0.10933 0.0
C334 C 0.65309 0.76712 0.08006 0.0
C335 C 0.65268 0.74224 0.05762 0.0
C336 C 0.67576 0.73306 0.06411 0.0
C337 C 0.69953 0.74956 0.09331 0.0
C338 C 0.70014 0.7748 0.11555 0.0
C339 C 0.67695 0.8101 0.13303 0.0
C340 C 0.67505 0.83499 0.11305 0.0
C341 C 0.67958 0.81121 0.1751 0.0
C342 C 0.67584 0.78323 0.19883 0.0
C343 C 0.64778 0.75243 0.19487 0.0
C344 C 0.6417 0.72723 0.22101 0.0
C345 C 0.6636 0.73221 0.2517 0.0
C346 C 0.69261 0.76247 0.2542 0.0
C347 C 0.69854 0.78783 0.22821 0.0
H348 H 0.10026 0.80892 0.23141 0.0
H349 H 0.06938 0.76401 0.27784 0.0
H350 H 0.10358 0.70713 0.21714 0.0
H351 H 0.13413 0.75203 0.17071 0.0
H352 H 0.1658 0.84067 0.22641 0.0
H353 H 0.07723 0.78621 0.13971 0.0
H354 H 0.03393 0.74085 0.10191 0.0
H355 H 0.10561 0.73274 0.033 0.0
H356 H 0.14848 0.77713 0.07137 0.0
H357 H 0.23134 0.85716 0.07823 0.0
H358 H 0.27693 0.89888 0.03993 0.0
H359 H 0.26373 0.97338 0.09489 0.0
H360 H 0.21718 0.93139 0.13186 0.0
H361 H 0.16897 0.83768 0.07872 0.0
H362 H 0.25235 0.88166 0.19523 0.0
H363 H 0.28742 0.92333 0.24419 0.0
H364 H 0.21728 0.95408 0.25459 0.0
H365 H 0.18275 0.91238 0.2068 0.0
C366 C 0.11947 0.78381 0.19764 0.0
C367 C 0.10052 0.78649 0.22765 0.0
C368 C 0.08282 0.76075 0.25407 0.0
C369 C 0.08429 0.73212 0.25141 0.0
C370 C 0.10213 0.72896 0.22016 0.0
C371 C 0.11945 0.75453 0.19345 0.0
C372 C 0.14221 0.81267 0.17374 0.0
C373 C 0.16616 0.84011 0.19405 0.0
C374 C 0.14256 0.81216 0.13162 0.0
C375 C 0.11618 0.78493 0.10862 0.0
C376 C 0.08357 0.77436 0.11675 0.0
C377 C 0.05883 0.74857 0.09505 0.0
C378 C 0.06634 0.73319 0.0646 0.0
C379 C 0.09897 0.74402 0.05634 0.0
C380 C 0.12359 0.76956 0.07813 0.0
C381 C 0.22102 0.89103 0.10855 0.0
C382 C 0.23812 0.88245 0.08196 0.0
C383 C 0.26429 0.90636 0.06016 0.0
C384 C 0.2741 0.93946 0.06465 0.0
C385 C 0.25698 0.94811 0.09116 0.0
C386 C 0.23048 0.92409 0.11257 0.0
C387 C 0.19327 0.86513 0.13155 0.0
C388 C 0.1684 0.83818 0.11105 0.0
C389 C 0.19147 0.86626 0.17354 0.0
C390 C 0.21516 0.89422 0.19755 0.0
C391 C 0.24506 0.89792 0.20771 0.0
C392 C 0.26494 0.92161 0.23572 0.0
C393 C 0.25507 0.94188 0.25369 0.0
C394 C 0.22572 0.9389 0.24167 0.0
C395 C 0.20587 0.91511 0.21424 0.0
H396 H 0.29548 0.19451 0.79372 0.0
H397 H 0.30597 0.23873 0.74794 0.0
H398 H 0.39664 0.30173 0.80745 0.0
H399 H 0.38609 0.25762 0.85282 0.0
H400 H 0.33089 0.16642 0.79773 0.0
H401 H 0.29682 0.21838 0.88808 0.0
H402 H 0.29808 0.26277 0.92686 0.0
H403 H 0.38173 0.27581 0.99037 0.0
H404 H 0.38111 0.23264 0.95084 0.0
H405 H 0.38708 0.15139 0.94085 0.0
H406 H 0.39072 0.10858 0.97642 0.0
H407 H 0.29794 0.03637 0.92853 0.0
H408 H 0.29401 0.07905 0.8944 0.0
H409 H 0.34299 0.17188 0.9448 0.0
H410 H 0.37917 0.1264 0.82851 0.0
H411 H 0.37155 0.08331 0.78137 0.0
H412 H 0.27038 0.05302 0.7715 0.0
H413 H 0.27855 0.09613 0.8174 0.0
C414 C 0.34 0.22268 0.82673 0.0
C415 C 0.31731 0.21806 0.79734 0.0
C416 C 0.32324 0.24343 0.77135 0.0
C417 C 0.35225 0.27369 0.77386 0.0
C418 C 0.37414 0.27867 0.80455 0.0
C419 C 0.36806 0.25348 0.8307 0.0
C420 C 0.33625 0.1947 0.8505 0.0
C421 C 0.33316 0.16759 0.82997 0.0
C422 C 0.33888 0.19584 0.89257 0.0
C423 C 0.33912 0.22236 0.91624 0.0
C424 C 0.31569 0.23115 0.91002 0.0
C425 C 0.31628 0.25637 0.93229 0.0
C426 C 0.34002 0.27284 0.96152 0.0
C427 C 0.36312 0.26368 0.96799 0.0
C428 C 0.36273 0.23882 0.94553 0.0
C429 C 0.34058 0.11845 0.91417 0.0
C430 C 0.36749 0.12632 0.93818 0.0
C431 C 0.3696 0.10184 0.95841 0.0
C432 C 0.34482 0.069 0.95494 0.0
C433 C 0.3177 0.06133 0.93146 0.0
C434 C 0.31548 0.08576 0.91164 0.0
C435 C 0.33873 0.14431 0.89176 0.0
C436 C 0.34078 0.17097 0.91258 0.0
C437 C 0.33411 0.14243 0.85003 0.0
C438 C 0.32939 0.11431 0.8261 0.0
C439 C 0.35536 0.11004 0.81643 0.0
C440 C 0.35094 0.08548 0.78953 0.0
C441 C 0.32042 0.06483 0.77231 0.0
C442 C 0.29428 0.06844 0.78387 0.0
C443 C 0.29882 0.09311 0.81014 0.0
H444 H 0.8337 0.09346 0.81878 0.0
H445 H 0.79904 0.05169 0.77113 0.0
H446 H 0.72865 0.08205 0.78234 0.0
H447 H 0.76385 0.1238 0.83115 0.0
H448 H 0.8506 0.16495 0.79953 0.0
H449 H 0.79888 0.0743 0.89413 0.0
H450 H 0.75223 0.03244 0.9311 0.0
H451 H 0.73938 0.1072 0.98593 0.0
H452 H 0.78507 0.1488 0.94764 0.0
H453 H 0.86772 0.22859 0.95443 0.0
H454 H 0.91051 0.27305 0.99279 0.0
H455 H 0.98234 0.26504 0.92407 0.0
H456 H 0.9391 0.21961 0.88628 0.0
H457 H 0.84731 0.1681 0.9472 0.0
H458 H 0.88201 0.25356 0.85523 0.0
H459 H 0.91245 0.29849 0.80881 0.0
H460 H 0.94691 0.24187 0.74805 0.0
H461 H 0.91615 0.19692 0.79448 0.0
C462 C 0.80118 0.11144 0.82841 0.0
C463 C 0.8105 0.09064 0.81154 0.0
C464 C 0.79058 0.0668 0.7842 0.0
C465 C 0.76111 0.06369 0.77245 0.0
C466 C 0.75122 0.08387 0.7906 0.0
C467 C 0.77117 0.10762 0.81852 0.0
C468 C 0.82488 0.13942 0.8524 0.0
C469 C 0.85022 0.16554 0.83189 0.0
C470 C 0.82303 0.1406 0.89438 0.0
C471 C 0.79523 0.11478 0.91738 0.0
C472 C 0.78564 0.08168 0.9134 0.0
C473 C 0.75908 0.05774 0.93481 0.0
C474 C 0.74203 0.06651 0.96127 0.0
C475 C 0.75197 0.09964 0.96573 0.0
C476 C 0.7782 0.12348 0.94394 0.0
C477 C 0.9001 0.22083 0.91729 0.0
C478 C 0.89263 0.23619 0.94771 0.0
C479 C 0.9172 0.26177 0.9695 0.0
C480 C 0.94985 0.27265 0.96129 0.0
C481 C 0.95743 0.25729 0.93089 0.0
C482 C 0.93273 0.23145 0.9092 0.0
C483 C 0.87376 0.19355 0.8943 0.0
C484 C 0.84791 0.16756 0.91487 0.0
C485 C 0.87414 0.19301 0.85217 0.0
C486 C 0.89681 0.2219 0.82827 0.0
C487 C 0.89672 0.25112 0.83248 0.0
C488 C 0.91398 0.27672 0.80578 0.0
C489 C 0.93185 0.27363 0.77452 0.0
C490 C 0.93344 0.24506 0.77183 0.0
C491 C 0.91581 0.2193 0.79825 0.0
H492 H 0.74971 0.61389 0.84559 0.0
H493 H 0.70588 0.60466 0.80126 0.0
H494 H 0.76786 0.69823 0.74625 0.0
H495 H 0.81186 0.70744 0.79113 0.0
H496 H 0.84164 0.6739 0.79408 0.0
H497 H 0.76904 0.61567 0.94279 0.0
H498 H 0.72448 0.61508 0.97934 0.0
H499 H 0.74569 0.70428 0.9208 0.0
H500 H 0.79032 0.70509 0.88522 0.0
H501 H 0.92582 0.71086 0.89349 0.0
H502 H 0.96856 0.70864 0.92911 0.0
H503 H 0.89892 0.61293 0.9732 0.0
H504 H 0.85615 0.61479 0.93606 0.0
H505 H 0.83232 0.65552 0.9402 0.0
H506 H 0.90786 0.7277 0.8139 0.0
H507 H 0.95321 0.74006 0.77032 0.0
H508 H 0.93255 0.64097 0.78247 0.0
H509 H 0.88717 0.62909 0.8271 0.0
C510 C 0.78418 0.66133 0.82174 0.0
C511 C 0.75375 0.63278 0.82464 0.0
C512 C 0.72868 0.6275 0.79912 0.0
C513 C 0.73338 0.65066 0.77006 0.0
C514 C 0.76336 0.68 0.76845 0.0
C515 C 0.78862 0.68516 0.79385 0.0
C516 C 0.81168 0.66488 0.84592 0.0
C517 C 0.83968 0.67022 0.82611 0.0
C518 C 0.80944 0.66055 0.88779 0.0
C519 C 0.7828 0.66017 0.91084 0.0
C520 C 0.76416 0.63516 0.93804 0.0
C521 C 0.73863 0.63479 0.95877 0.0
C522 C 0.7314 0.6595 0.9527 0.0
C523 C 0.7504 0.68472 0.9259 0.0
C524 C 0.77591 0.68515 0.90541 0.0
C525 C 0.88778 0.66267 0.91115 0.0
C526 C 0.91972 0.68911 0.91016 0.0
C527 C 0.94417 0.68788 0.93085 0.0
C528 C 0.93721 0.66046 0.95375 0.0
C529 C 0.90509 0.63434 0.95571 0.0
C530 C 0.88063 0.63543 0.93456 0.0
C531 C 0.86188 0.66353 0.88805 0.0
C532 C 0.8341 0.65896 0.90815 0.0
C533 C 0.86491 0.67006 0.84662 0.0
C534 C 0.89418 0.67752 0.82354 0.0
C535 C 0.9134 0.70878 0.80759 0.0
C536 C 0.93943 0.71578 0.78272 0.0
C537 C 0.94652 0.69145 0.77254 0.0
C538 C 0.92777 0.66028 0.7896 0.0
C539 C 0.90186 0.65342 0.81509 0.0
H540 H 0.79498 0.70959 0.532 0.0
H541 H 0.74957 0.69767 0.57658 0.0
H542 H 0.72909 0.59867 0.58893 0.0
H543 H 0.77447 0.61106 0.54539 0.0
H544 H 0.84058 0.66466 0.56501 0.0
H545 H 0.82638 0.72427 0.42333 0.0
H546 H 0.78374 0.72639 0.38621 0.0
H547 H 0.71381 0.63069 0.43004 0.0
H548 H 0.75642 0.6282 0.46563 0.0
H549 H 0.89191 0.63363 0.47368 0.0
H550 H 0.93658 0.63451 0.43811 0.0
H551 H 0.95786 0.72383 0.37984 0.0
H552 H 0.91325 0.72317 0.41639 0.0
H553 H 0.84999 0.68342 0.41897 0.0
H554 H 0.87038 0.63117 0.56788 0.0
H555 H 0.91438 0.64038 0.61277 0.0
H556 H 0.97634 0.73399 0.55783 0.0
H557 H 0.93251 0.72476 0.5135 0.0
C558 C 0.78808 0.66121 0.53566 0.0
C559 C 0.78033 0.68527 0.54404 0.0
C560 C 0.75439 0.67839 0.56951 0.0
C561 C 0.73568 0.64724 0.58661 0.0
C562 C 0.74284 0.62294 0.57649 0.0
C563 C 0.76889 0.62996 0.55165 0.0
C564 C 0.81736 0.66868 0.51254 0.0
C565 C 0.84255 0.66841 0.533 0.0
C566 C 0.82043 0.67534 0.47114 0.0
C567 C 0.79459 0.67637 0.44809 0.0
C568 C 0.80186 0.70369 0.42478 0.0
C569 C 0.77747 0.70493 0.40364 0.0
C570 C 0.74532 0.67888 0.40553 0.0
C571 C 0.73824 0.65139 0.42836 0.0
C572 C 0.76261 0.65001 0.44902 0.0
C573 C 0.89946 0.6786 0.4482 0.0
C574 C 0.90634 0.65361 0.45355 0.0
C575 C 0.93187 0.65408 0.43306 0.0
C576 C 0.95092 0.67936 0.40635 0.0
C577 C 0.94368 0.70408 0.40035 0.0
C578 C 0.91813 0.70367 0.42107 0.0
C579 C 0.87281 0.6782 0.47131 0.0
C580 C 0.84819 0.6799 0.451 0.0
C581 C 0.87055 0.67378 0.51317 0.0
C582 C 0.89806 0.6773 0.53732 0.0
C583 C 0.89362 0.65345 0.56517 0.0
C584 C 0.91887 0.65861 0.59058 0.0
C585 C 0.94885 0.68797 0.589 0.0
C586 C 0.95354 0.71114 0.55995 0.0
C587 C 0.92848 0.70586 0.53444 0.0
H588 H 0.40372 0.243 0.54151 0.0
H589 H 0.41193 0.28615 0.58737 0.0
H590 H 0.31066 0.2556 0.57798 0.0
H591 H 0.30301 0.21248 0.53086 0.0
H592 H 0.35116 0.17254 0.56153 0.0
H593 H 0.38852 0.25988 0.46466 0.0
H594 H 0.38471 0.30268 0.43066 0.0
H595 H 0.29176 0.23071 0.38294 0.0
H596 H 0.29528 0.18778 0.41839 0.0
H597 H 0.30137 0.10626 0.40835 0.0
H598 H 0.30085 0.063 0.36911 0.0
H599 H 0.38442 0.07627 0.43301 0.0
H600 H 0.38559 0.12073 0.4715 0.0
H601 H 0.33948 0.16714 0.41441 0.0
H602 H 0.2961 0.08136 0.50645 0.0
H603 H 0.28554 0.03723 0.55179 0.0
H604 H 0.3762 0.10022 0.61135 0.0
H605 H 0.38667 0.14447 0.56563 0.0
C606 C 0.35283 0.2247 0.53304 0.0
C607 C 0.38343 0.24598 0.54886 0.0
C608 C 0.388 0.27066 0.57511 0.0
C609 C 0.36183 0.2742 0.58681 0.0
C610 C 0.33128 0.25349 0.56972 0.0
C611 C 0.32685 0.22891 0.54283 0.0
C612 C 0.34811 0.19656 0.50916 0.0
C613 C 0.34898 0.17138 0.52928 0.0
C614 C 0.34361 0.1947 0.46741 0.0
C615 C 0.34187 0.2206 0.44497 0.0
C616 C 0.36705 0.25325 0.44748 0.0
C617 C 0.3649 0.27775 0.42774 0.0
C618 C 0.33775 0.27018 0.40435 0.0
C619 C 0.3129 0.23737 0.40088 0.0
C620 C 0.31495 0.21282 0.42103 0.0
C621 C 0.34332 0.11665 0.44312 0.0
C622 C 0.31976 0.10011 0.4138 0.0
C623 C 0.31942 0.0752 0.39151 0.0
C624 C 0.34251 0.06607 0.39818 0.0
C625 C 0.36622 0.08264 0.42743 0.0
C626 C 0.36676 0.10791 0.44953 0.0
C627 C 0.34344 0.14315 0.46671 0.0
C628 C 0.3416 0.16803 0.44663 0.0
C629 C 0.34594 0.14428 0.5088 0.0
C630 C 0.34217 0.1163 0.53259 0.0
C631 C 0.31412 0.0855 0.52859 0.0
C632 C 0.30804 0.06029 0.55471 0.0
C633 C 0.32993 0.06526 0.5854 0.0
C634 C 0.35892 0.09553 0.58795 0.0
C635 C 0.36484 0.12091 0.56199 0.0
H636 H 0.76647 0.14236 0.56427 0.0
H637 H 0.73561 0.09738 0.61063 0.0
H638 H 0.77003 0.04071 0.54991 0.0
H639 H 0.80057 0.08567 0.50357 0.0
H640 H 0.83204 0.17433 0.55919 0.0
H641 H 0.74348 0.11965 0.47247 0.0
H642 H 0.70023 0.07402 0.43493 0.0
H643 H 0.77204 0.06584 0.3664 0.0
H644 H 0.81484 0.11051 0.40449 0.0
H645 H 0.89756 0.19054 0.41108 0.0
H646 H 0.94329 0.23219 0.3729 0.0
H647 H 0.93023 0.30685 0.42761 0.0
H648 H 0.88353 0.26494 0.46446 0.0
H649 H 0.83521 0.1711 0.41151 0.0
H650 H 0.91868 0.21541 0.52768 0.0
H651 H 0.95386 0.25721 0.57646 0.0
H652 H 0.8836 0.28775 0.58722 0.0
H653 H 0.84895 0.24593 0.53963 0.0
C654 C 0.7858 0.11736 0.53051 0.0
C655 C 0.76679 0.11997 0.5605 0.0
C656 C 0.74909 0.09418 0.58687 0.0
C657 C 0.75063 0.06558 0.58418 0.0
C658 C 0.76853 0.0625 0.55295 0.0
C659 C 0.78585 0.08811 0.52629 0.0
C660 C 0.80847 0.14624 0.50658 0.0
C661 C 0.8324 0.17372 0.52683 0.0
C662 C 0.80882 0.14567 0.46446 0.0
C663 C 0.78247 0.11836 0.44153 0.0
C664 C 0.74985 0.10773 0.44964 0.0
C665 C 0.72514 0.08178 0.4281 0.0
C666 C 0.73271 0.0663 0.39784 0.0
C667 C 0.76535 0.0772 0.3896 0.0
C668 C 0.78994 0.1029 0.41122 0.0
C669 C 0.88729 0.2245 0.44127 0.0
C670 C 0.90439 0.21585 0.41477 0.0
C671 C 0.93065 0.23972 0.39305 0.0
C672 C 0.94055 0.27284 0.39752 0.0
C673 C 0.92341 0.28156 0.42391 0.0
C674 C 0.89683 0.25759 0.44524 0.0
C675 C 0.85951 0.19865 0.46429 0.0
C676 C 0.83464 0.17167 0.44383 0.0
C677 C 0.8577 0.19985 0.50627 0.0
C678 C 0.88141 0.22785 0.53022 0.0
C679 C 0.91138 0.23164 0.54021 0.0
C680 C 0.93133 0.25542 0.56811 0.0
C681 C 0.92146 0.27566 0.58613 0.0
C682 C 0.89204 0.27259 0.57426 0.0
C683 C 0.87212 0.24873 0.54695 0.0
H684 H 0.96292 0.5282 0.12689 0.0
H685 H 0.97325 0.57243 0.08122 0.0
H686 H 0.06401 0.63551 0.14051 0.0
H687 H 0.05359 0.5914 0.18582 0.0
H688 H 0.99847 0.5002 0.13074 0.0
H689 H 0.96423 0.55199 0.22101 0.0
H690 H 0.96523 0.59618 0.25995 0.0
H691 H 0.04874 0.60923 0.32379 0.0
H692 H 0.04841 0.56628 0.28408 0.0
H693 H 0.0544 0.48481 0.27384 0.0
H694 H 0.05777 0.44185 0.30941 0.0
H695 H 0.96483 0.36998 0.26156 0.0
H696 H 0.96118 0.41281 0.22742 0.0
H697 H 0.01038 0.50552 0.27783 0.0
H698 H 0.04638 0.45968 0.16174 0.0
H699 H 0.03851 0.41638 0.11478 0.0
H700 H 0.93754 0.38679 0.10456 0.0
H701 H 0.94596 0.43011 0.15026 0.0
C702 C 1.00749 0.55642 0.1598 0.0
C703 C 0.98474 0.55178 0.1305 0.0
C704 C 0.99057 0.57714 0.10456 0.0
C705 C 0.01955 0.60743 0.10704 0.0
C706 C 0.04152 0.61243 0.13765 0.0
C707 C 0.03553 0.58724 0.16375 0.0
C708 C 1.0038 0.52845 0.18353 0.0
C709 C 1.00071 0.50135 0.16298 0.0
C710 C 1.00638 0.52956 0.22561 0.0
C711 C 1.0065 0.55601 0.24931 0.0
C712 C 0.98303 0.56473 0.24304 0.0
C713 C 0.98346 0.58983 0.26541 0.0
C714 C 1.00708 0.60624 0.29479 0.0
C715 C 0.03023 0.59715 0.3013 0.0
C716 C 0.03 0.57242 0.27873 0.0
C717 C 1.00784 0.45204 0.24718 0.0
C718 C 0.03471 0.45979 0.27118 0.0
C719 C 0.03667 0.43521 0.29141 0.0
C720 C 0.01177 0.40243 0.28796 0.0
C721 C 0.98468 0.3949 0.26448 0.0
C722 C 0.98262 0.41941 0.24466 0.0
C723 C 1.00615 0.47798 0.22477 0.0
C724 C 0.00823 0.50465 0.24561 0.0
C725 C 1.00158 0.47614 0.18303 0.0
C726 C 0.99672 0.44796 0.15912 0.0
C727 C 0.02256 0.44343 0.14961 0.0
C728 C 0.018 0.41875 0.12282 0.0
C729 C 0.98746 0.39823 0.10557 0.0
C730 C 0.96144 0.40211 0.11697 0.0
C731 C 0.96614 0.4269 0.14311 0.0
H732 H 0.5006 0.42682 0.15218 0.0
H733 H 0.46596 0.38507 0.10451 0.0
H734 H 0.39535 0.4151 0.11614 0.0
H735 H 0.43053 0.45684 0.16497 0.0
H736 H 0.51732 0.49816 0.13307 0.0
H737 H 0.4657 0.40755 0.2277 0.0
H738 H 0.41903 0.36566 0.26462 0.0
H739 H 0.40615 0.44039 0.31951 0.0
H740 H 0.45186 0.48201 0.28127 0.0
H741 H 0.53443 0.56203 0.28776 0.0
H742 H 0.57722 0.6067 0.32588 0.0
H743 H 0.64906 0.59857 0.25733 0.0
H744 H 0.60582 0.55296 0.21977 0.0
H745 H 0.5141 0.50144 0.28074 0.0
H746 H 0.54852 0.58676 0.18864 0.0
H747 H 0.5789 0.63171 0.14224 0.0
H748 H 0.61362 0.57526 0.0816 0.0
H749 H 0.5829 0.53029 0.12801 0.0
C750 C 0.46797 0.44464 0.16202 0.0
C751 C 0.47736 0.42392 0.14503 0.0
C752 C 0.45745 0.4001 0.11768 0.0
C753 C 0.42792 0.3969 0.10604 0.0
C754 C 0.41797 0.41699 0.12431 0.0
C755 C 0.43791 0.44072 0.15225 0.0
C756 C 0.49166 0.47264 0.18599 0.0
C757 C 0.51695 0.49878 0.16543 0.0
C758 C 0.48983 0.47386 0.22796 0.0
C759 C 0.46204 0.44802 0.25099 0.0
C760 C 0.45245 0.41492 0.24698 0.0
C761 C 0.42588 0.39096 0.26835 0.0
C762 C 0.4088 0.39971 0.29481 0.0
C763 C 0.41875 0.43284 0.2993 0.0
C764 C 0.44499 0.45669 0.27755 0.0
C765 C 0.56681 0.55421 0.25072 0.0
C766 C 0.55933 0.56965 0.28103 0.0
C767 C 0.58391 0.59535 0.30267 0.0
C768 C 0.61656 0.60626 0.29444 0.0
C769 C 0.62414 0.5908 0.26416 0.0
C770 C 0.59944 0.56486 0.2426 0.0
C771 C 0.54048 0.52687 0.2278 0.0
C772 C 0.51468 0.50086 0.24842 0.0
C773 C 0.54084 0.52629 0.18568 0.0
C774 C 0.56344 0.55519 0.16174 0.0
C775 C 0.56327 0.58437 0.16592 0.0
C776 C 0.5805 0.60997 0.13922 0.0
C777 C 0.59844 0.60695 0.108 0.0
C778 C 0.6001 0.57841 0.10534 0.0
C779 C 0.58249 0.55264 0.13175 0.0
H780 H 0.57375 0.06079 0.14576 0.0
H781 H 0.61915 0.07333 0.1022 0.0
H782 H 0.60029 0.97506 0.11653 0.0
H783 H 0.5548 0.96296 0.16108 0.0
H784 H 0.50828 0.00743 0.12739 0.0
H785 H 0.59268 0.04384 0.2263 0.0
H786 H 0.63536 0.04152 0.26196 0.0
H787 H 0.56555 0.94593 0.30622 0.0
H788 H 0.52285 0.94788 0.26904 0.0
H789 H 0.43596 0.94878 0.27621 0.0
H790 H 0.39154 0.94819 0.31314 0.0
H791 H 0.41271 0.03756 0.25512 0.0
H792 H 0.4572 0.03838 0.21916 0.0
H793 H 0.49918 0.98851 0.27338 0.0
H794 H 0.41637 0.94742 0.17918 0.0
H795 H 0.37254 0.93833 0.13495 0.0
H796 H 0.43463 0.03189 0.07998 0.0
H797 H 0.47863 0.04097 0.12477 0.0
C798 C 0.56091 0.01097 0.15647 0.0
C799 C 0.57967 0.04208 0.13993 0.0
C800 C 0.60575 0.0492 0.11508 0.0
C801 C 0.61339 0.02515 0.10554 0.0
C802 C 0.59508 0.99414 0.12316 0.0
C803 C 0.56911 0.98717 0.14861 0.0
C804 C 0.53164 0.00339 0.17971 0.0
C805 C 0.50638 0.00364 0.15939 0.0
C806 C 0.52865 0.99667 0.2211 0.0
C807 C 0.55456 0.99571 0.24406 0.0
C808 C 0.58653 0.02209 0.24301 0.0
C809 C 0.61095 0.02081 0.26372 0.0
C810 C 0.60392 0.99341 0.2867 0.0
C811 C 0.57178 0.96733 0.28867 0.0
C812 C 0.54735 0.96847 0.2675 0.0
C813 C 0.44968 0.99337 0.24448 0.0
C814 C 0.4311 0.96831 0.27166 0.0
C815 C 0.40566 0.96794 0.29261 0.0
C816 C 0.39845 0.99269 0.2868 0.0
C817 C 0.41741 0.01796 0.26003 0.0
C818 C 0.44282 0.01839 0.23932 0.0
C819 C 0.47625 0.99377 0.2212 0.0
C820 C 0.50092 0.99206 0.24135 0.0
C821 C 0.47843 0.99826 0.17936 0.0
C822 C 0.4509 0.99485 0.15534 0.0
C823 C 0.42043 0.96635 0.15827 0.0
C824 C 0.39536 0.96114 0.13281 0.0
C825 C 0.4001 0.98434 0.10377 0.0
C826 C 0.43011 0.01365 0.10216 0.0
C827 C 0.45536 0.01873 0.12752 0.0
H828 H 0.46198 0.04362 0.86577 0.0
H829 H 0.41653 0.03159 0.91035 0.0
H830 H 0.3962 0.93262 0.92254 0.0
H831 H 0.44161 0.94513 0.87902 0.0
H832 H 0.50775 0.99886 0.89861 0.0
H833 H 0.49308 0.0581 0.75686 0.0
H834 H 0.4503 0.05996 0.71974 0.0
H835 H 0.38068 0.96424 0.76384 0.0
H836 H 0.42344 0.96202 0.79943 0.0
H837 H 0.55881 0.96761 0.80719 0.0
H838 H 0.60332 0.96831 0.77142 0.0
H839 H 0.62455 0.05754 0.71294 0.0
H840 H 0.58011 0.05706 0.74969 0.0
H841 H 0.51685 0.01733 0.75252 0.0
H842 H 0.53741 0.96525 0.90138 0.0
H843 H 0.58143 0.97436 0.94616 0.0
H844 H 0.6435 0.06788 0.89106 0.0
H845 H 0.59964 0.05875 0.84684 0.0
C846 C 0.45515 0.99526 0.86935 0.0
C847 C 0.44736 0.01928 0.87779 0.0
C848 C 0.4214 0.01234 0.90324 0.0
C849 C 0.40271 0.98116 0.92029 0.0
C850 C 0.40993 0.95691 0.91015 0.0
C851 C 0.436 0.96399 0.88531 0.0
C852 C 0.48441 0.00277 0.84619 0.0
C853 C 0.50966 0.00257 0.86659 0.0
C854 C 0.48739 0.00934 0.80477 0.0
C855 C 0.46147 0.01022 0.78176 0.0
C856 C 0.46861 0.03747 0.75837 0.0
C857 C 0.44413 0.03855 0.73723 0.0
C858 C 0.41202 0.01242 0.73919 0.0
C859 C 0.40507 0.985 0.7621 0.0
C860 C 0.42953 0.98378 0.78277 0.0
C861 C 0.56636 0.01254 0.78163 0.0
C862 C 0.57321 0.98753 0.78697 0.0
C863 C 0.59864 0.9879 0.76637 0.0
C864 C 0.61761 0.0131 0.73953 0.0
C865 C 0.61042 0.03784 0.73354 0.0
C866 C 0.58496 0.03754 0.75438 0.0
C867 C 0.53979 0.01223 0.80481 0.0
C868 C 0.51512 0.01388 0.78456 0.0
C869 C 0.53761 0.00787 0.84668 0.0
C870 C 0.56513 0.01134 0.87075 0.0
C871 C 0.56067 0.98749 0.89861 0.0
C872 C 0.58594 0.99259 0.92395 0.0
C873 C 0.61596 0.0219 0.92229 0.0
C874 C 0.62067 0.04507 0.89323 0.0
C875 C 0.59559 0.03984 0.86779 0.0
H876 H 0.06983 0.5757 0.87537 0.0
H877 H 0.07833 0.61905 0.92104 0.0
H878 H 0.97728 0.58928 0.91133 0.0
H879 H 0.96933 0.54594 0.86439 0.0
H880 H 0.01738 0.50555 0.89512 0.0
H881 H 0.05447 0.59286 0.79836 0.0
H882 H 0.05075 0.63564 0.7642 0.0
H883 H 0.95775 0.5637 0.71657 0.0
H884 H 0.96118 0.52078 0.75217 0.0
H885 H 0.96736 0.43938 0.74182 0.0
H886 H 0.9671 0.39648 0.70209 0.0
H887 H 0.05074 0.40972 0.7658 0.0
H888 H 0.05167 0.45386 0.80477 0.0
H889 H 1.00529 0.50016 0.74806 0.0
H890 H 0.96235 0.4143 0.84001 0.0
H891 H 0.95203 0.37022 0.88531 0.0
H892 H 0.04272 0.43345 0.94466 0.0
H893 H 0.05297 0.47765 0.89898 0.0
C894 C 0.01903 0.55775 0.86675 0.0
C895 C 0.04966 0.57888 0.88262 0.0
C896 C 0.05439 0.60369 0.90875 0.0
C897 C 0.02837 0.60753 0.92028 0.0
C898 C 0.99779 0.58695 0.90318 0.0
C899 C 0.99319 0.56224 0.8764 0.0
C900 C 0.01415 0.52956 0.84285 0.0
C901 C 0.01509 0.50438 0.86289 0.0
C902 C 0.00953 0.52769 0.80112 0.0
C903 C 1.00778 0.5536 0.77872 0.0
C904 C 0.033 0.58623 0.78117 0.0
C905 C 0.0309 0.61072 0.76134 0.0
C906 C 1.00378 0.60315 0.73791 0.0
C907 C 0.97888 0.57036 0.73453 0.0
C908 C 0.98087 0.54582 0.75477 0.0
C909 C 0.00933 0.44974 0.77653 0.0
C910 C 0.98581 0.4333 0.74714 0.0
C911 C 0.98563 0.40859 0.72456 0.0
C912 C 0.00883 0.39957 0.73102 0.0
C913 C 0.03247 0.41602 0.76037 0.0
C914 C 0.03286 0.44109 0.78276 0.0
C915 C 0.00942 0.47617 0.80025 0.0
C916 C 1.00748 0.50103 0.78027 0.0
C917 C 0.01204 0.4773 0.84233 0.0
C918 C 0.00842 0.44936 0.86605 0.0
C919 C 0.98043 0.4185 0.86209 0.0
C920 C 0.97449 0.39332 0.88818 0.0
C921 C 0.99646 0.39837 0.91881 0.0
C922 C 0.02539 0.4287 0.9213 0.0
C923 C 0.03118 0.45405 0.89537 0.0
H924 H 0.4329 0.47556 0.89767 0.0
H925 H 0.40216 0.43061 0.9441 0.0
H926 H 0.43671 0.37404 0.8834 0.0
H927 H 0.46713 0.41898 0.83699 0.0
H928 H 0.49841 0.50761 0.89263 0.0
H929 H 0.41001 0.45291 0.80581 0.0
H930 H 0.36678 0.40734 0.76819 0.0
H931 H 0.43862 0.39915 0.69972 0.0
H932 H 0.4814 0.44377 0.73791 0.0
H933 H 0.56407 0.52369 0.74461 0.0
H934 H 0.60984 0.56529 0.70642 0.0
H935 H 0.59695 0.64006 0.76114 0.0
H936 H 0.55022 0.5982 0.798 0.0
H937 H 0.50183 0.50433 0.74497 0.0
H938 H 0.58528 0.54893 0.86082 0.0
H939 H 0.62045 0.5907 0.90963 0.0
H940 H 0.54981 0.62071 0.92119 0.0
H941 H 0.51519 0.57893 0.87353 0.0
C942 C 0.45229 0.45061 0.86391 0.0
C943 C 0.43327 0.45319 0.89391 0.0
C944 C 0.41565 0.42743 0.92033 0.0
C945 C 0.41726 0.39887 0.91767 0.0
C946 C 0.43515 0.3958 0.88642 0.0
C947 C 0.45241 0.42139 0.85972 0.0
C948 C 0.47494 0.4795 0.84 0.0
C949 C 0.49882 0.507 0.86027 0.0
C950 C 0.47535 0.47892 0.79788 0.0
C951 C 0.44902 0.45162 0.77491 0.0
C952 C 0.41639 0.441 0.78298 0.0
C953 C 0.39169 0.41509 0.76139 0.0
C954 C 0.39928 0.39962 0.73112 0.0
C955 C 0.43192 0.4105 0.72293 0.0
C956 C 0.4565 0.43617 0.74461 0.0
C957 C 0.55388 0.55771 0.77479 0.0
C958 C 0.57095 0.54901 0.7483 0.0
C959 C 0.59723 0.57285 0.72658 0.0
C960 C 0.60718 0.60599 0.73104 0.0
C961 C 0.59009 0.61475 0.75744 0.0
C962 C 0.56348 0.59082 0.77878 0.0
C963 C 0.52605 0.53189 0.79778 0.0
C964 C 0.5012 0.50491 0.77729 0.0
C965 C 0.52416 0.53312 0.83975 0.0
C966 C 0.54783 0.56111 0.86374 0.0
C967 C 0.57789 0.56504 0.87353 0.0
C968 C 0.59783 0.58879 0.90145 0.0
C969 C 0.58786 0.60888 0.9197 0.0
C970 C 0.55833 0.60567 0.90804 0.0
C971 C 0.53843 0.58183 0.88069 0.0
H972 H 0.62891 0.86111 0.46047 0.0
H973 H 0.63942 0.90536 0.41473 0.0
H974 H 0.73005 0.96834 0.47435 0.0
H975 H 0.71946 0.92421 0.51971 0.0
H976 H 0.66441 0.83308 0.46449 0.0
H977 H 0.6301 0.88488 0.55475 0.0
H978 H 0.63134 0.92932 0.59338 0.0
H979 H 0.71488 0.94238 0.65716 0.0
H980 H 0.71429 0.89915 0.61777 0.0
H981 H 0.72045 0.81784 0.6075 0.0
H982 H 0.72407 0.77495 0.6429 0.0
H983 H 0.63119 0.70287 0.59511 0.0
H984 H 0.62729 0.74563 0.56115 0.0
H985 H 0.67622 0.83835 0.61159 0.0
H986 H 0.71273 0.79328 0.49489 0.0
H987 H 0.70515 0.75028 0.4476 0.0
H988 H 0.60382 0.71952 0.4384 0.0
H989 H 0.61196 0.76255 0.48442 0.0
C990 C 0.6734 0.88927 0.49355 0.0
C991 C 0.65074 0.88467 0.46413 0.0
C992 C 0.65668 0.91005 0.43816 0.0
C993 C 0.68568 0.94032 0.44071 0.0
C994 C 0.70755 0.94528 0.47143 0.0
C995 C 0.70145 0.92008 0.49756 0.0
C996 C 0.66964 0.86128 0.51729 0.0
C997 C 0.66661 0.83421 0.49673 0.0
C998 C 0.67219 0.86237 0.55937 0.0
C999 C 0.67235 0.88887 0.58304 0.0
C1000 C 0.64894 0.89766 0.57672 0.0
C1001 C 0.64952 0.92291 0.5989 0.0
C1002 C 0.67324 0.93941 0.62815 0.0
C1003 C 0.6963 0.93023 0.63475 0.0
C1004 C 0.69592 0.90533 0.61238 0.0
C1005 C 0.6739 0.78496 0.58088 0.0
C1006 C 0.70083 0.79279 0.60482 0.0
C1007 C 0.70293 0.76826 0.62495 0.0
C1008 C 0.67812 0.73543 0.62145 0.0
C1009 C 0.65098 0.72782 0.59805 0.0
C1010 C 0.64877 0.75229 0.57833 0.0
C1011 C 0.67208 0.81086 0.55851 0.0
C1012 C 0.67408 0.83748 0.57937 0.0
C1013 C 0.66754 0.80903 0.51678 0.0
C1014 C 0.66287 0.78094 0.49281 0.0
C1015 C 0.68889 0.77683 0.48292 0.0
C1016 C 0.6845 0.75232 0.45594 0.0
C1017 C 0.65395 0.73158 0.43886 0.0
C1018 C 0.62775 0.73503 0.45065 0.0
C1019 C 0.63227 0.75964 0.47699 0.0
H1020 H 0.16669 0.75925 0.48681 0.0
H1021 H 0.13202 0.71751 0.43915 0.0
H1022 H 0.06222 0.74871 0.44928 0.0
H1023 H 0.09741 0.79041 0.49814 0.0
H1024 H 0.18393 0.83111 0.46703 0.0
H1025 H 0.13227 0.74048 0.56175 0.0
H1026 H 0.08543 0.69859 0.59842 0.0
H1027 H 0.07234 0.77332 0.65289 0.0
H1028 H 0.11822 0.81494 0.61489 0.0
H1029 H 0.20099 0.89486 0.62175 0.0
H1030 H 0.24376 0.93963 0.65978 0.0
H1031 H 0.31564 0.93149 0.59134 0.0
H1032 H 0.27243 0.88577 0.55389 0.0
H1033 H 0.1806 0.83428 0.61471 0.0
H1034 H 0.21535 0.91971 0.52271 0.0
H1035 H 0.24589 0.96469 0.4764 0.0
H1036 H 0.28041 0.90808 0.41572 0.0
H1037 H 0.24953 0.86308 0.46205 0.0
C1038 C 0.13445 0.77764 0.49592 0.0
C1039 C 0.14361 0.75662 0.47934 0.0
C1040 C 0.12368 0.7328 0.45199 0.0
C1041 C 0.09438 0.72993 0.43992 0.0
C1042 C 0.08465 0.75033 0.45779 0.0
C1043 C 0.1046 0.77406 0.48573 0.0
C1044 C 0.1582 0.80559 0.51991 0.0
C1045 C 0.18354 0.8317 0.49939 0.0
C1046 C 0.15635 0.80677 0.56188 0.0
C1047 C 0.12851 0.78095 0.58484 0.0
C1048 C 0.11894 0.74785 0.58088 0.0
C1049 C 0.09227 0.72389 0.60211 0.0
C1050 C 0.07508 0.73263 0.62837 0.0
C1051 C 0.08502 0.76577 0.63283 0.0
C1052 C 0.11136 0.78963 0.61121 0.0
C1053 C 0.2334 0.88703 0.58477 0.0
C1054 C 0.2259 0.9025 0.61504 0.0
C1055 C 0.25047 0.92826 0.63662 0.0
C1056 C 0.28312 0.9392 0.62837 0.0
C1057 C 0.29072 0.9237 0.59818 0.0
C1058 C 0.26603 0.89769 0.57668 0.0
C1059 C 0.20708 0.85971 0.56181 0.0
C1060 C 0.18122 0.83372 0.58239 0.0
C1061 C 0.20747 0.85916 0.51968 0.0
C1062 C 0.23016 0.88805 0.49579 0.0
C1063 C 0.23009 0.91729 0.5 0.0
C1064 C 0.24742 0.94291 0.47336 0.0
C1065 C 0.26534 0.93985 0.44215 0.0
C1066 C 0.2669 0.91126 0.43946 0.0
C1067 C 0.2492 0.88547 0.46582 0.0
H1068 H 0.08327 0.28085 0.51207 0.0
H1069 H 0.03938 0.27157 0.46783 0.0
H1070 H 0.10121 0.36518 0.41282 0.0
H1071 H 0.14527 0.37445 0.45761 0.0
H1072 H 0.17513 0.34094 0.46045 0.0
H1073 H 0.10265 0.28266 0.60925 0.0
H1074 H 0.05812 0.28205 0.6459 0.0
H1075 H 0.07922 0.37123 0.58741 0.0
H1076 H 0.12383 0.37206 0.55173 0.0
H1077 H 0.25938 0.37756 0.55977 0.0
H1078 H 0.30201 0.37513 0.5954 0.0
H1079 H 0.23211 0.27947 0.63938 0.0
H1080 H 0.18945 0.28154 0.60223 0.0
H1081 H 0.16586 0.32241 0.60654 0.0
H1082 H 0.24117 0.39455 0.47981 0.0
H1083 H 0.28663 0.40695 0.43642 0.0
H1084 H 0.26641 0.30808 0.44931 0.0
H1085 H 0.22092 0.29615 0.49375 0.0
C1086 C 0.11767 0.32832 0.48821 0.0
C1087 C 0.08726 0.29975 0.49114 0.0
C1088 C 0.06216 0.29443 0.46567 0.0
C1089 C 0.06679 0.31759 0.43664 0.0
C1090 C 0.09676 0.34696 0.43501 0.0
C1091 C 0.12205 0.35215 0.46036 0.0
C1092 C 0.14521 0.33189 0.51233 0.0
C1093 C 0.17319 0.33723 0.49247 0.0
C1094 C 0.14299 0.32754 0.5542 0.0
C1095 C 0.11636 0.32716 0.57732 0.0
C1096 C 0.09776 0.30214 0.60454 0.0
C1097 C 0.07224 0.30176 0.62532 0.0
C1098 C 0.06499 0.32646 0.6193 0.0
C1099 C 0.08396 0.35168 0.59249 0.0
C1100 C 0.10944 0.35212 0.57194 0.0
C1101 C 0.22122 0.32941 0.57739 0.0
C1102 C 0.2532 0.35577 0.57642 0.0
C1103 C 0.27759 0.35443 0.59711 0.0
C1104 C 0.27051 0.32696 0.61999 0.0
C1105 C 0.23836 0.30091 0.62191 0.0
C1106 C 0.21396 0.30212 0.60075 0.0
C1107 C 0.19537 0.33041 0.55434 0.0
C1108 C 0.16763 0.32588 0.5745 0.0
C1109 C 0.19841 0.33701 0.51293 0.0
C1110 C 0.22768 0.34446 0.48981 0.0
C1111 C 0.24681 0.37568 0.4737 0.0
C1112 C 0.27291 0.38271 0.44895 0.0
C1113 C 0.28019 0.35845 0.43904 0.0
C1114 C 0.26151 0.32733 0.45624 0.0
C1115 C 0.23552 0.32044 0.48161 0.0
loop_
_geom_bond_atom_site_label_1
_geom_bond_atom_site_label_2
_geom_bond_distance
_geom_bond_site_symmetry_2
_ccdc_geom_bond_type
Co0 O1 2.216 . S
Co0 O2 2.091 . S
Co0 O4 2.004 1_554 S
Co0 O10 2.021 . S
Co0 O12 2.137 1_454 S
Co0 O13 2.244 1_455 S
O1 Co0 2.216 . S
O1 C8 1.247 . S
O2 Co0 2.091 . S
O2 C8 1.261 . S
C3 O12 1.247 . S
C3 O13 1.272 1_556 S
O4 Co0 2.004 1_556 S
O4 C9 1.266 . S
Co5 O6 2.061 1_554 S
Co5 O11 2.052 . S
Co5 O13 2.135 . S
O6 Co5 2.061 1_556 S
O6 C9 1.228 1_655 S
C7 O10 1.238 1_655 S
C7 O11 1.241 . S
C8 O1 1.247 . S
C8 O2 1.261 . S
C9 O4 1.266 . S
C9 O6 1.228 1_455 S
O10 Co0 2.021 . S
O10 C7 1.238 1_455 S
O11 Co5 2.052 . S
O11 C7 1.241 . S
O12 Co0 2.137 1_656 S
O12 C3 1.247 . S
O13 Co0 2.244 1_655 S
O13 C3 1.272 1_554 S
O13 Co5 2.135 . S
Co14 O15 2.216 1_554 S
Co14 O16 2.091 . S
Co14 O18 2.004 . S
Co14 O24 2.021 1_554 S
Co14 O26 2.137 . S
Co14 O27 2.244 . S
O15 Co14 2.216 1_556 S
O15 C22 1.247 . S
O16 Co14 2.091 . S
O16 C22 1.261 1_554 S
C17 O26 1.247 . S
C17 O27 1.272 . S
O18 Co14 2.004 . S
O18 C23 1.259 . S
Co19 O20 2.061 . S
Co19 O25 2.052 1_554 S
Co19 O27 2.135 . S
O20 Co19 2.061 . S
O20 C23 1.235 . S
C21 O24 1.238 . S
C21 O25 1.241 . S
C22 O15 1.247 . S
C22 O16 1.261 1_556 S
C23 O18 1.259 . S
C23 O20 1.235 . S
O24 Co14 2.021 1_556 S
O24 C21 1.238 . S
O25 Co19 2.052 1_556 S
O25 C21 1.241 . S
O26 Co14 2.137 . S
O26 C17 1.247 . S
O27 Co14 2.244 . S
O27 C17 1.272 . S
O27 Co19 2.135 . S
Co28 O29 2.216 1_554 S
Co28 O30 2.091 . S
Co28 O32 2.004 . S
Co28 O38 2.021 1_554 S
Co28 O40 2.137 1_545 S
Co28 O41 2.244 1_545 S
O29 Co28 2.216 1_556 S
O29 C36 1.247 . S
O30 Co28 2.091 . S
O30 C36 1.261 1_554 S
C31 O40 1.247 . S
C31 O41 1.272 . S
O32 Co28 2.004 . S
O32 C37 1.259 . S
Co33 O34 2.061 . S
Co33 O39 2.052 1_554 S
Co33 O41 2.135 . S
O34 Co33 2.061 . S
O34 C37 1.235 1_565 S
C35 O38 1.238 1_565 S
C35 O39 1.241 . S
C36 O29 1.247 . S
C36 O30 1.261 1_556 S
C37 O32 1.259 . S
C37 O34 1.235 1_545 S
O38 Co28 2.021 1_556 S
O38 C35 1.238 1_545 S
O39 Co33 2.052 1_556 S
O39 C35 1.241 . S
O40 Co28 2.137 1_565 S
O40 C31 1.247 . S
O41 Co28 2.244 1_565 S
O41 C31 1.272 . S
O41 Co33 2.135 . S
Co42 O43 2.216 1_554 S
Co42 O44 2.091 . S
Co42 O46 2.004 . S
Co42 O52 2.021 1_554 S
Co42 O54 2.137 1_655 S
Co42 O55 2.244 1_655 S
O43 Co42 2.216 1_556 S
O43 C50 1.247 . S
O44 Co42 2.091 . S
O44 C50 1.261 1_554 S
C45 O54 1.247 . S
C45 O55 1.272 . S
O46 Co42 2.004 . S
O46 C51 1.256 . S
Co47 O48 2.061 . S
Co47 O53 2.052 1_554 S
Co47 O55 2.135 . S
O48 Co47 2.061 . S
O48 C51 1.238 1_455 S
C49 O52 1.238 1_455 S
C49 O53 1.241 . S
C50 O43 1.247 . S
C50 O44 1.261 1_556 S
C51 O46 1.256 . S
C51 O48 1.238 1_655 S
O52 Co42 2.021 1_556 S
O52 C49 1.238 1_655 S
O53 Co47 2.052 1_556 S
O53 C49 1.241 . S
O54 Co42 2.137 1_455 S
O54 C45 1.247 . S
O55 Co42 2.244 1_455 S
O55 C45 1.272 . S
O55 Co47 2.135 . S
Co56 O57 2.216 . S
Co56 O58 2.091 . S
Co56 O60 2.004 1_554 S
Co56 O66 2.021 . S
Co56 O68 2.137 1_554 S
Co56 O69 2.244 1_554 S
O57 Co56 2.216 . S
O57 C64 1.247 . S
O58 Co56 2.091 . S
O58 C64 1.261 . S
C59 O68 1.247 . S
C59 O69 1.272 . S
O60 Co56 2.004 1_556 S
O60 C65 1.259 . S
Co61 O62 2.061 . S
Co61 O67 2.052 1_556 S
Co61 O69 2.135 . S
O62 Co61 2.061 . S
O62 C65 1.235 . S
C63 O66 1.238 . S
C63 O67 1.241 . S
C64 O57 1.247 . S
C64 O58 1.261 . S
C65 O60 1.259 . S
C65 O62 1.235 . S
O66 Co56 2.021 . S
O66 C63 1.238 . S
O67 Co61 2.052 1_554 S
O67 C63 1.241 . S
O68 Co56 2.137 1_556 S
O68 C59 1.247 . S
O69 Co56 2.244 1_556 S
O69 C59 1.272 . S
O69 Co61 2.135 . S
Co70 O71 2.216 . S
Co70 O72 2.091 . S
Co70 O74 2.004 1_554 S
Co70 O80 2.021 . S
Co70 O82 2.137 1_564 S
Co70 O83 2.244 1_565 S
O71 Co70 2.216 . S
O71 C78 1.247 . S
O72 Co70 2.091 . S
O72 C78 1.261 . S
C73 O82 1.247 . S
C73 O83 1.272 1_556 S
O74 Co70 2.004 1_556 S
O74 C79 1.256 . S
Co75 O76 2.061 1_554 S
Co75 O81 2.052 . S
Co75 O83 2.135 . S
O76 Co75 2.061 1_556 S
O76 C79 1.238 1_545 S
C77 O80 1.238 1_545 S
C77 O81 1.241 . S
C78 O71 1.247 . S
C78 O72 1.261 . S
C79 O74 1.256 . S
C79 O76 1.238 1_565 S
O80 Co70 2.021 . S
O80 C77 1.238 1_565 S
O81 Co75 2.052 . S
O81 C77 1.241 . S
O82 Co70 2.137 1_546 S
O82 C73 1.247 . S
O83 Co70 2.244 1_545 S
O83 C73 1.272 1_554 S
O83 Co75 2.135 . S
Co84 O85 2.216 . S
Co84 O86 2.091 . S
Co84 O88 2.004 . S
Co84 O94 2.021 . S
Co84 O96 2.137 . S
Co84 O97 2.244 . S
O85 Co84 2.216 . S
O85 C92 1.247 . S
O86 Co84 2.091 . S
O86 C92 1.261 . S
C87 O96 1.247 . S
C87 O97 1.272 . S
O88 Co84 2.004 . S
O88 C93 1.259 . S
Co89 O90 2.061 . S
Co89 O95 2.052 . S
Co89 O97 2.135 . S
O90 Co89 2.061 . S
O90 C93 1.235 . S
C91 O94 1.238 . S
C91 O95 1.241 . S
C92 O85 1.247 . S
C92 O86 1.261 . S
C93 O88 1.259 . S
C93 O90 1.235 . S
O94 Co84 2.021 . S
O94 C91 1.238 . S
O95 Co89 2.052 . S
O95 C91 1.241 . S
O96 Co84 2.137 . S
O96 C87 1.247 . S
O97 Co84 2.244 . S
O97 C87 1.272 . S
O97 Co89 2.135 . S
Co98 O99 2.216 1_565 S
Co98 O100 2.091 . S
Co98 O102 2.004 . S
Co98 O108 2.021 . S
Co98 O110 2.137 1_565 S
Co98 O111 2.244 1_565 S
O99 Co98 2.216 1_545 S
O99 C106 1.247 1_545 S
O100 Co98 2.091 . S
O100 C106 1.261 . S
C101 O110 1.247 . S
C101 O111 1.272 . S
O102 Co98 2.004 . S
O102 C107 1.259 . S
Co103 O104 2.061 . S
Co103 O109 2.052 . S
Co103 O111 2.135 1_565 S
O104 Co103 2.061 . S
O104 C107 1.235 . S
C105 O108 1.238 . S
C105 O109 1.241 . S
C106 O99 1.247 1_565 S
C106 O100 1.261 . S
C107 O102 1.259 . S
C107 O104 1.235 . S
O108 Co98 2.021 . S
O108 C105 1.238 . S
O109 Co103 2.052 . S
O109 C105 1.241 . S
O110 Co98 2.137 1_545 S
O110 C101 1.247 . S
O111 Co98 2.244 1_545 S
O111 C101 1.272 . S
O111 Co103 2.135 1_545 S
Co112 O113 2.216 1_455 S
Co112 O114 2.091 . S
Co112 O116 2.004 . S
Co112 O122 2.021 . S
Co112 O124 2.137 1_455 S
Co112 O125 2.244 1_455 S
O113 Co112 2.216 1_655 S
O113 C120 1.247 1_655 S
O114 Co112 2.091 . S
O114 C120 1.261 . S
C115 O124 1.247 . S
C115 O125 1.272 . S
O116 Co112 2.004 . S
O116 C121 1.259 . S
Co117 O118 2.061 . S
Co117 O123 2.052 . S
Co117 O125 2.135 1_455 S
O118 Co117 2.061 . S
O118 C121 1.235 . S
C119 O122 1.238 . S
C119 O123 1.241 . S
C120 O113 1.247 1_455 S
C120 O114 1.261 . S
C121 O116 1.259 . S
C121 O118 1.235 . S
O122 Co112 2.021 . S
O122 C119 1.238 . S
O123 Co117 2.052 . S
O123 C119 1.241 . S
O124 Co112 2.137 1_655 S
O124 C115 1.247 . S
O125 Co112 2.244 1_655 S
O125 C115 1.272 . S
O125 Co117 2.135 1_655 S
Co126 O127 2.216 1_565 S
Co126 O128 2.091 . S
Co126 O130 2.004 . S
Co126 O136 2.021 . S
Co126 O138 2.137 1_565 S
Co126 O139 2.244 1_565 S
O127 Co126 2.216 1_545 S
O127 C134 1.247 1_545 S
O128 Co126 2.091 . S
O128 C134 1.261 . S
C129 O138 1.247 . S
C129 O139 1.272 . S
O130 Co126 2.004 . S
O130 C135 1.259 . S
Co131 O132 2.061 . S
Co131 O137 2.052 . S
Co131 O139 2.135 1_565 S
O132 Co131 2.061 . S
O132 C135 1.235 . S
C133 O136 1.238 . S
C133 O137 1.241 . S
C134 O127 1.247 1_565 S
C134 O128 1.261 . S
C135 O130 1.259 . S
C135 O132 1.235 . S
O136 Co126 2.021 . S
O136 C133 1.238 . S
O137 Co131 2.052 . S
O137 C133 1.241 . S
O138 Co126 2.137 1_545 S
O138 C129 1.247 . S
O139 Co126 2.244 1_545 S
O139 C129 1.272 . S
O139 Co131 2.135 1_545 S
Co140 O141 2.216 1_455 S
Co140 O142 2.091 1_455 S
Co140 O144 2.004 . S
Co140 O150 2.021 . S
Co140 O152 2.137 1_455 S
Co140 O153 2.244 . S
O141 Co140 2.216 1_655 S
O141 C148 1.247 . S
O142 Co140 2.091 1_655 S
O142 C148 1.261 . S
C143 O152 1.247 1_455 S
C143 O153 1.272 . S
O144 Co140 2.004 . S
O144 C149 1.259 . S
Co145 O146 2.061 . S
Co145 O151 2.052 . S
Co145 O153 2.135 . S
O146 Co145 2.061 . S
O146 C149 1.235 . S
C147 O150 1.238 . S
C147 O151 1.241 . S
C148 O141 1.247 . S
C148 O142 1.261 . S
C149 O144 1.259 . S
C149 O146 1.235 . S
O150 Co140 2.021 . S
O150 C147 1.238 . S
O151 Co145 2.052 . S
O151 C147 1.241 . S
O152 Co140 2.137 1_655 S
O152 C143 1.247 1_655 S
O153 Co140 2.244 . S
O153 C143 1.272 . S
O153 Co145 2.135 . S
Co154 O155 2.216 . S
Co154 O156 2.091 . S
Co154 O158 2.004 . S
Co154 O164 2.021 . S
Co154 O166 2.137 . S
Co154 O167 2.244 . S
O155 Co154 2.216 . S
O155 C162 1.247 . S
O156 Co154 2.091 . S
O156 C162 1.261 . S
C157 O166 1.247 . S
C157 O167 1.272 . S
O158 Co154 2.004 . S
O158 C163 1.259 . S
Co159 O160 2.061 . S
Co159 O165 2.052 . S
Co159 O167 2.135 . S
O160 Co159 2.061 . S
O160 C163 1.235 . S
C161 O164 1.238 . S
C161 O165 1.241 . S
C162 O155 1.247 . S
C162 O156 1.261 . S
C163 O158 1.259 . S
C163 O160 1.235 . S
O164 Co154 2.021 . S
O164 C161 1.238 . S
O165 Co159 2.052 . S
O165 C161 1.241 . S
O166 Co154 2.137 . S
O166 C157 1.247 . S
O167 Co154 2.244 . S
O167 C157 1.272 . S
O167 Co159 2.135 . S
Co168 O169 2.216 1_545 S
Co168 O170 2.091 . S
Co168 O172 2.004 . S
Co168 O178 2.021 . S
Co168 O180 2.137 1_545 S
Co168 O181 2.244 1_545 S
O169 Co168 2.216 1_565 S
O169 C176 1.247 1_565 S
O170 Co168 2.091 . S
O170 C176 1.261 . S
C171 O180 1.247 . S
C171 O181 1.272 . S
O172 Co168 2.004 . S
O172 C177 1.259 . S
Co173 O174 2.061 . S
Co173 O179 2.052 . S
Co173 O181 2.135 1_545 S
O174 Co173 2.061 . S
O174 C177 1.235 . S
C175 O178 1.238 . S
C175 O179 1.241 . S
C176 O169 1.247 1_545 S
C176 O170 1.261 . S
C177 O172 1.259 . S
C177 O174 1.235 . S
O178 Co168 2.021 . S
O178 C175 1.238 . S
O179 Co173 2.052 . S
O179 C175 1.241 . S
O180 Co168 2.137 1_565 S
O180 C171 1.247 . S
O181 Co168 2.244 1_565 S
O181 C171 1.272 . S
O181 Co173 2.135 1_565 S
Co182 O183 2.216 1_655 S
Co182 O184 2.091 1_655 S
Co182 O186 2.004 . S
Co182 O192 2.021 . S
Co182 O194 2.137 1_655 S
Co182 O195 2.244 . S
O183 Co182 2.216 1_455 S
O183 C190 1.247 . S
O184 Co182 2.091 1_455 S
O184 C190 1.261 . S
C185 O194 1.247 1_655 S
C185 O195 1.272 . S
O186 Co182 2.004 . S
O186 C191 1.259 . S
Co187 O188 2.061 . S
Co187 O193 2.052 . S
Co187 O195 2.135 . S
O188 Co187 2.061 . S
O188 C191 1.235 . S
C189 O192 1.238 . S
C189 O193 1.241 . S
C190 O183 1.247 . S
C190 O184 1.261 . S
C191 O186 1.259 . S
C191 O188 1.235 . S
O192 Co182 2.021 . S
O192 C189 1.238 . S
O193 Co187 2.052 . S
O193 C189 1.241 . S
O194 Co182 2.137 1_455 S
O194 C185 1.247 1_455 S
O195 Co182 2.244 . S
O195 C185 1.272 . S
O195 Co187 2.135 . S
Co196 O197 2.216 . S
Co196 O198 2.091 . S
Co196 O200 2.004 . S
Co196 O206 2.021 . S
Co196 O208 2.137 . S
Co196 O209 2.244 . S
O197 Co196 2.216 . S
O197 C204 1.247 . S
O198 Co196 2.091 . S
O198 C204 1.261 . S
C199 O208 1.247 . S
C199 O209 1.272 . S
O200 Co196 2.004 . S
O200 C205 1.259 . S
Co201 O202 2.061 . S
Co201 O207 2.052 . S
Co201 O209 2.135 . S
O202 Co201 2.061 . S
O202 C205 1.235 . S
C203 O206 1.238 . S
C203 O207 1.241 . S
C204 O197 1.247 . S
C204 O198 1.261 . S
C205 O200 1.259 . S
C205 O202 1.235 . S
O206 Co196 2.021 . S
O206 C203 1.238 . S
O207 Co201 2.052 . S
O207 C203 1.241 . S
O208 Co196 2.137 . S
O208 C199 1.247 . S
O209 Co196 2.244 . S
O209 C199 1.272 . S
O209 Co201 2.135 . S
Co210 O211 2.216 . S
Co210 O212 2.091 . S
Co210 O214 2.004 . S
Co210 O220 2.021 . S
Co210 O222 2.137 . S
Co210 O223 2.244 . S
O211 Co210 2.216 . S
O211 C218 1.247 . S
O212 Co210 2.091 . S
O212 C218 1.261 . S
C213 O222 1.247 . S
C213 O223 1.272 . S
O214 Co210 2.004 . S
O214 C219 1.259 . S
Co215 O216 2.061 . S
Co215 O221 2.052 . S
Co215 O223 2.135 . S
O216 Co215 2.061 . S
O216 C219 1.235 . S
C217 O220 1.238 . S
C217 O221 1.241 . S
C218 O211 1.247 . S
C218 O212 1.261 . S
C219 O214 1.259 . S
C219 O216 1.235 . S
O220 Co210 2.021 . S
O220 C217 1.238 . S
O221 Co215 2.052 . S
O221 C217 1.241 . S
O222 Co210 2.137 . S
O222 C213 1.247 . S
O223 Co210 2.244 . S
O223 C213 1.272 . S
O223 Co215 2.135 . S
Co224 O225 2.216 1_545 S
Co224 O226 2.091 . S
Co224 O228 2.004 . S
Co224 O234 2.021 . S
Co224 O236 2.137 1_545 S
Co224 O237 2.244 1_545 S
O225 Co224 2.216 1_565 S
O225 C232 1.247 1_565 S
O226 Co224 2.091 . S
O226 C232 1.261 . S
C227 O236 1.247 . S
C227 O237 1.272 . S
O228 Co224 2.004 . S
O228 C233 1.259 . S
Co229 O230 2.061 . S
Co229 O235 2.052 . S
Co229 O237 2.135 1_545 S
O230 Co229 2.061 . S
O230 C233 1.235 . S
C231 O234 1.238 . S
C231 O235 1.241 . S
C232 O225 1.247 1_545 S
C232 O226 1.261 . S
C233 O228 1.259 . S
C233 O230 1.235 . S
O234 Co224 2.021 . S
O234 C231 1.238 . S
O235 Co229 2.052 . S
O235 C231 1.241 . S
O236 Co224 2.137 1_565 S
O236 C227 1.247 . S
O237 Co224 2.244 1_565 S
O237 C227 1.272 . S
O237 Co229 2.135 1_565 S
Co238 O239 2.216 1_655 S
Co238 O240 2.091 . S
Co238 O242 2.004 . S
Co238 O248 2.021 . S
Co238 O250 2.137 1_655 S
Co238 O251 2.244 1_655 S
O239 Co238 2.216 1_455 S
O239 C246 1.247 1_455 S
O240 Co238 2.091 . S
O240 C246 1.261 . S
C241 O250 1.247 . S
C241 O251 1.272 . S
O242 Co238 2.004 . S
O242 C247 1.259 . S
Co243 O244 2.061 . S
Co243 O249 2.052 . S
Co243 O251 2.135 1_655 S
O244 Co243 2.061 . S
O244 C247 1.235 . S
C245 O248 1.238 . S
C245 O249 1.241 . S
C246 O239 1.247 1_655 S
C246 O240 1.261 . S
C247 O242 1.259 . S
C247 O244 1.235 . S
O248 Co238 2.021 . S
O248 C245 1.238 . S
O249 Co243 2.052 . S
O249 C245 1.241 . S
O250 Co238 2.137 1_455 S
O250 C241 1.247 . S
O251 Co238 2.244 1_455 S
O251 C241 1.272 . S
O251 Co243 2.135 1_455 S
H252 C271 0.949 . S
H253 C272 0.950 . S
H254 C274 0.950 . S
H255 C275 0.950 . S
H256 C277 0.950 . S
H257 C280 0.950 . S
H258 C281 0.950 . S
H259 C283 0.951 . S
H260 C284 0.949 . S
H261 C286 0.949 . S
H262 C287 0.950 . S
H263 C289 0.950 . S
H264 C290 0.950 . S
H265 C292 0.950 . S
H266 C295 0.950 . S
H267 C296 0.950 . S
H268 C298 0.951 . S
H269 C299 0.949 . S
C270 C271 1.376 . S
C270 C275 1.386 . S
C270 C276 1.483 . S
C271 H252 0.949 . S
C271 C270 1.376 . S
C271 C272 1.397 . S
C272 H253 0.950 . S
C272 C271 1.397 . S
C272 C273 1.391 . S
C273 C272 1.391 . S
C273 C274 1.405 . S
C274 H254 0.950 . S
C274 C273 1.405 . S
C274 C275 1.367 . S
C275 H255 0.950 . S
C275 C270 1.386 . S
C275 C274 1.367 . S
C276 C270 1.483 . S
C276 C277 1.382 . S
C276 C278 1.403 . S
C277 H256 0.950 . S
C277 C276 1.382 . S
C277 C293 1.411 . S
C278 C276 1.403 . S
C278 C279 1.489 . S
C278 C292 1.411 . S
C279 C278 1.489 . S
C279 C280 1.383 . S
C279 C284 1.382 . S
C280 H257 0.950 . S
C280 C279 1.383 . S
C280 C281 1.395 . S
C281 H258 0.950 . S
C281 C280 1.395 . S
C281 C282 1.288 . S
C282 C281 1.288 . S
C282 C283 1.392 . S
C283 H259 0.951 . S
C283 C282 1.392 . S
C283 C284 1.392 . S
C284 H260 0.949 . S
C284 C279 1.382 . S
C284 C283 1.392 . S
C285 C286 1.376 . S
C285 C290 1.386 . S
C285 C291 1.483 . S
C286 H261 0.949 . S
C286 C285 1.376 . S
C286 C287 1.397 . S
C287 H262 0.950 . S
C287 C286 1.397 . S
C287 C288 1.391 . S
C288 C287 1.391 . S
C288 C289 1.405 . S
C289 H263 0.950 . S
C289 C288 1.405 . S
C289 C290 1.367 . S
C290 H264 0.950 . S
C290 C285 1.386 . S
C290 C289 1.367 . S
C291 C285 1.483 . S
C291 C292 1.382 . S
C291 C293 1.403 . S
C292 H265 0.950 . S
C292 C278 1.411 . S
C292 C291 1.382 . S
C293 C277 1.411 . S
C293 C291 1.403 . S
C293 C294 1.489 . S
C294 C293 1.489 . S
C294 C295 1.383 . S
C294 C299 1.382 . S
C295 H266 0.950 . S
C295 C294 1.383 . S
C295 C296 1.395 . S
C296 H267 0.950 . S
C296 C295 1.395 . S
C296 C297 1.288 . S
C297 C296 1.288 . S
C297 C298 1.392 . S
C298 H268 0.951 . S
C298 C297 1.392 . S
C298 C299 1.392 . S
C299 H269 0.949 . S
C299 C294 1.382 . S
C299 C298 1.392 . S
H300 C319 0.949 . S
H301 C320 0.950 . S
H302 C322 0.950 . S
H303 C323 0.950 . S
H304 C325 0.950 . S
H305 C328 0.950 . S
H306 C329 0.950 . S
H307 C331 0.951 . S
H308 C332 0.949 . S
H309 C334 0.949 . S
H310 C335 0.950 . S
H311 C337 0.950 . S
H312 C338 0.950 . S
H313 C340 0.950 . S
H314 C343 0.950 . S
H315 C344 0.950 . S
H316 C346 0.951 . S
H317 C347 0.949 . S
C318 C319 1.376 . S
C318 C323 1.386 . S
C318 C324 1.483 . S
C319 H300 0.949 . S
C319 C318 1.376 . S
C319 C320 1.397 . S
C320 H301 0.950 . S
C320 C319 1.397 . S
C320 C321 1.391 . S
C321 C320 1.391 . S
C321 C322 1.405 . S
C322 H302 0.950 . S
C322 C321 1.405 . S
C322 C323 1.367 . S
C323 H303 0.950 . S
C323 C318 1.386 . S
C323 C322 1.367 . S
C324 C318 1.483 . S
C324 C325 1.382 . S
C324 C326 1.403 . S
C325 H304 0.950 . S
C325 C324 1.382 . S
C325 C341 1.411 . S
C326 C324 1.403 . S
C326 C327 1.489 . S
C326 C340 1.411 . S
C327 C326 1.489 . S
C327 C328 1.383 . S
C327 C332 1.382 . S
C328 H305 0.950 . S
C328 C327 1.383 . S
C328 C329 1.395 . S
C329 H306 0.950 . S
C329 C328 1.395 . S
C329 C330 1.288 . S
C330 C329 1.288 . S
C330 C331 1.392 . S
C331 H307 0.951 . S
C331 C330 1.392 . S
C331 C332 1.392 . S
C332 H308 0.949 . S
C332 C327 1.382 . S
C332 C331 1.392 . S
C333 C334 1.376 . S
C333 C338 1.386 . S
C333 C339 1.483 . S
C334 H309 0.949 . S
C334 C333 1.376 . S
C334 C335 1.397 . S
C335 H310 0.950 . S
C335 C334 1.397 . S
C335 C336 1.391 . S
C336 C335 1.391 . S
C336 C337 1.405 . S
C337 H311 0.950 . S
C337 C336 1.405 . S
C337 C338 1.367 . S
C338 H312 0.950 . S
C338 C333 1.386 . S
C338 C337 1.367 . S
C339 C333 1.483 . S
C339 C340 1.382 . S
C339 C341 1.403 . S
C340 H313 0.950 . S
C340 C326 1.411 . S
C340 C339 1.382 . S
C341 C325 1.411 . S
C341 C339 1.403 . S
C341 C342 1.489 . S
C342 C341 1.489 . S
C342 C343 1.383 . S
C342 C347 1.382 . S
C343 H314 0.950 . S
C343 C342 1.383 . S
C343 C344 1.395 . S
C344 H315 0.950 . S
C344 C343 1.395 . S
C344 C345 1.288 . S
C345 C344 1.288 . S
C345 C346 1.392 . S
C346 H316 0.951 . S
C346 C345 1.392 . S
C346 C347 1.392 . S
C347 H317 0.949 . S
C347 C342 1.382 . S
C347 C346 1.392 . S
H348 C367 0.949 . S
H349 C368 0.950 . S
H350 C370 0.950 . S
H351 C371 0.950 . S
H352 C373 0.950 . S
H353 C376 0.950 . S
H354 C377 0.950 . S
H355 C379 0.951 . S
H356 C380 0.949 . S
H357 C382 0.949 . S
H358 C383 0.950 . S
H359 C385 0.950 . S
H360 C386 0.950 . S
H361 C388 0.950 . S
H362 C391 0.950 . S
H363 C392 0.950 . S
H364 C394 0.951 . S
H365 C395 0.949 . S
C366 C367 1.376 . S
C366 C371 1.386 . S
C366 C372 1.483 . S
C367 H348 0.949 . S
C367 C366 1.376 . S
C367 C368 1.397 . S
C368 H349 0.950 . S
C368 C367 1.397 . S
C368 C369 1.391 . S
C369 C368 1.391 . S
C369 C370 1.405 . S
C370 H350 0.950 . S
C370 C369 1.405 . S
C370 C371 1.367 . S
C371 H351 0.950 . S
C371 C366 1.386 . S
C371 C370 1.367 . S
C372 C366 1.483 . S
C372 C373 1.382 . S
C372 C374 1.403 . S
C373 H352 0.950 . S
C373 C372 1.382 . S
C373 C389 1.411 . S
C374 C372 1.403 . S
C374 C375 1.489 . S
C374 C388 1.411 . S
C375 C374 1.489 . S
C375 C376 1.383 . S
C375 C380 1.382 . S
C376 H353 0.950 . S
C376 C375 1.383 . S
C376 C377 1.395 . S
C377 H354 0.950 . S
C377 C376 1.395 . S
C377 C378 1.288 . S
C378 C377 1.288 . S
C378 C379 1.392 . S
C379 H355 0.951 . S
C379 C378 1.392 . S
C379 C380 1.392 . S
C380 H356 0.949 . S
C380 C375 1.382 . S
C380 C379 1.392 . S
C381 C382 1.376 . S
C381 C386 1.386 . S
C381 C387 1.483 . S
C382 H357 0.949 . S
C382 C381 1.376 . S
C382 C383 1.397 . S
C383 H358 0.950 . S
C383 C382 1.397 . S
C383 C384 1.391 . S
C384 C383 1.391 . S
C384 C385 1.405 . S
C385 H359 0.950 . S
C385 C384 1.405 . S
C385 C386 1.367 . S
C386 H360 0.950 . S
C386 C381 1.386 . S
C386 C385 1.367 . S
C387 C381 1.483 . S
C387 C388 1.382 . S
C387 C389 1.403 . S
C388 H361 0.950 . S
C388 C374 1.411 . S
C388 C387 1.382 . S
C389 C373 1.411 . S
C389 C387 1.403 . S
C389 C390 1.489 . S
C390 C389 1.489 . S
C390 C391 1.383 . S
C390 C395 1.382 . S
C391 H362 0.950 . S
C391 C390 1.383 . S
C391 C392 1.395 . S
C392 H363 0.950 . S
C392 C391 1.395 . S
C392 C393 1.288 . S
C393 C392 1.288 . S
C393 C394 1.392 . S
C394 H364 0.951 . S
C394 C393 1.392 . S
C394 C395 1.392 . S
C395 H365 0.949 . S
C395 C390 1.382 . S
C395 C394 1.392 . S
H396 C415 0.949 . S
H397 C416 0.950 . S
H398 C418 0.950 . S
H399 C419 0.950 . S
H400 C421 0.950 . S
H401 C424 0.950 . S
H402 C425 0.950 . S
H403 C427 0.951 . S
H404 C428 0.949 . S
H405 C430 0.949 . S
H406 C431 0.950 . S
H407 C433 0.950 . S
H408 C434 0.950 . S
H409 C436 0.950 . S
H410 C439 0.950 . S
H411 C440 0.950 . S
H412 C442 0.951 . S
H413 C443 0.949 . S
C414 C415 1.376 . S
C414 C419 1.386 . S
C414 C420 1.483 . S
C415 H396 0.949 . S
C415 C414 1.376 . S
C415 C416 1.397 . S
C416 H397 0.950 . S
C416 C415 1.397 . S
C416 C417 1.391 . S
C417 C416 1.391 . S
C417 C418 1.405 . S
C418 H398 0.950 . S
C418 C417 1.405 . S
C418 C419 1.367 . S
C419 H399 0.950 . S
C419 C414 1.386 . S
C419 C418 1.367 . S
C420 C414 1.483 . S
C420 C421 1.382 . S
C420 C422 1.403 . S
C421 H400 0.950 . S
C421 C420 1.382 . S
C421 C437 1.411 . S
C422 C420 1.403 . S
C422 C423 1.489 . S
C422 C436 1.411 . S
C423 C422 1.489 . S
C423 C424 1.383 . S
C423 C428 1.382 . S
C424 H401 0.950 . S
C424 C423 1.383 . S
C424 C425 1.395 . S
C425 H402 0.950 . S
C425 C424 1.395 . S
C425 C426 1.288 . S
C426 C425 1.288 . S
C426 C427 1.392 . S
C427 H403 0.951 . S
C427 C426 1.392 . S
C427 C428 1.392 . S
C428 H404 0.949 . S
C428 C423 1.382 . S
C428 C427 1.392 . S
C429 C430 1.376 . S
C429 C434 1.386 . S
C429 C435 1.483 . S
C430 H405 0.949 . S
C430 C429 1.376 . S
C430 C431 1.397 . S
C431 H406 0.950 . S
C431 C430 1.397 . S
C431 C432 1.391 . S
C432 C431 1.391 . S
C432 C433 1.405 . S
C433 H407 0.950 . S
C433 C432 1.405 . S
C433 C434 1.367 . S
C434 H408 0.950 . S
C434 C429 1.386 . S
C434 C433 1.367 . S
C435 C429 1.483 . S
C435 C436 1.382 . S
C435 C437 1.403 . S
C436 H409 0.950 . S
C436 C422 1.411 . S
C436 C435 1.382 . S
C437 C421 1.411 . S
C437 C435 1.403 . S
C437 C438 1.489 . S
C438 C437 1.489 . S
C438 C439 1.383 . S
C438 C443 1.382 . S
C439 H410 0.950 . S
C439 C438 1.383 . S
C439 C440 1.395 . S
C440 H411 0.950 . S
C440 C439 1.395 . S
C440 C441 1.288 . S
C441 C440 1.288 . S
C441 C442 1.392 . S
C442 H412 0.951 . S
C442 C441 1.392 . S
C442 C443 1.392 . S
C443 H413 0.949 . S
C443 C438 1.382 . S
C443 C442 1.392 . S
H444 C463 0.949 . S
H445 C464 0.950 . S
H446 C466 0.950 . S
H447 C467 0.950 . S
H448 C469 0.950 . S
H449 C472 0.950 . S
H450 C473 0.950 . S
H451 C475 0.951 . S
H452 C476 0.949 . S
H453 C478 0.949 . S
H454 C479 0.950 . S
H455 C481 0.950 . S
H456 C482 0.950 . S
H457 C484 0.950 . S
H458 C487 0.950 . S
H459 C488 0.950 . S
H460 C490 0.951 . S
H461 C491 0.949 . S
C462 C463 1.376 . S
C462 C467 1.386 . S
C462 C468 1.483 . S
C463 H444 0.949 . S
C463 C462 1.376 . S
C463 C464 1.397 . S
C464 H445 0.950 . S
C464 C463 1.397 . S
C464 C465 1.391 . S
C465 C464 1.391 . S
C465 C466 1.405 . S
C466 H446 0.950 . S
C466 C465 1.405 . S
C466 C467 1.367 . S
C467 H447 0.950 . S
C467 C462 1.386 . S
C467 C466 1.367 . S
C468 C462 1.483 . S
C468 C469 1.382 . S
C468 C470 1.403 . S
C469 H448 0.950 . S
C469 C468 1.382 . S
C469 C485 1.411 . S
C470 C468 1.403 . S
C470 C471 1.489 . S
C470 C484 1.411 . S
C471 C470 1.489 . S
C471 C472 1.383 . S
C471 C476 1.382 . S
C472 H449 0.950 . S
C472 C471 1.383 . S
C472 C473 1.395 . S
C473 H450 0.950 . S
C473 C472 1.395 . S
C473 C474 1.288 . S
C474 C473 1.288 . S
C474 C475 1.392 . S
C475 H451 0.951 . S
C475 C474 1.392 . S
C475 C476 1.392 . S
C476 H452 0.949 . S
C476 C471 1.382 . S
C476 C475 1.392 . S
C477 C478 1.376 . S
C477 C482 1.386 . S
C477 C483 1.483 . S
C478 H453 0.949 . S
C478 C477 1.376 . S
C478 C479 1.397 . S
C479 H454 0.950 . S
C479 C478 1.397 . S
C479 C480 1.391 . S
C480 C479 1.391 . S
C480 C481 1.405 . S
C481 H455 0.950 . S
C481 C480 1.405 . S
C481 C482 1.367 . S
C482 H456 0.950 . S
C482 C477 1.386 . S
C482 C481 1.367 . S
C483 C477 1.483 . S
C483 C484 1.382 . S
C483 C485 1.403 . S
C484 H457 0.950 . S
C484 C470 1.411 . S
C484 C483 1.382 . S
C485 C469 1.411 . S
C485 C483 1.403 . S
C485 C486 1.489 . S
C486 C485 1.489 . S
C486 C487 1.383 . S
C486 C491 1.382 . S
C487 H458 0.950 . S
C487 C486 1.383 . S
C487 C488 1.395 . S
C488 H459 0.950 . S
C488 C487 1.395 . S
C488 C489 1.288 . S
C489 C488 1.288 . S
C489 C490 1.392 . S
C490 H460 0.951 . S
C490 C489 1.392 . S
C490 C491 1.392 . S
C491 H461 0.949 . S
C491 C486 1.382 . S
C491 C490 1.392 . S
H492 C511 0.949 . S
H493 C512 0.950 . S
H494 C514 0.950 . S
H495 C515 0.950 . S
H496 C517 0.950 . S
H497 C520 0.950 . S
H498 C521 0.950 . S
H499 C523 0.951 . S
H500 C524 0.949 . S
H501 C526 0.949 . S
H502 C527 0.950 . S
H503 C529 0.950 . S
H504 C530 0.950 . S
H505 C532 0.950 . S
H506 C535 0.950 . S
H507 C536 0.950 . S
H508 C538 0.951 . S
H509 C539 0.949 . S
C510 C511 1.376 . S
C510 C515 1.386 . S
C510 C516 1.483 . S
C511 H492 0.949 . S
C511 C510 1.376 . S
C511 C512 1.397 . S
C512 H493 0.950 . S
C512 C511 1.397 . S
C512 C513 1.391 . S
C513 C512 1.391 . S
C513 C514 1.405 . S
C514 H494 0.950 . S
C514 C513 1.405 . S
C514 C515 1.367 . S
C515 H495 0.950 . S
C515 C510 1.386 . S
C515 C514 1.367 . S
C516 C510 1.483 . S
C516 C517 1.382 . S
C516 C518 1.403 . S
C517 H496 0.950 . S
C517 C516 1.382 . S
C517 C533 1.411 . S
C518 C516 1.403 . S
C518 C519 1.489 . S
C518 C532 1.411 . S
C519 C518 1.489 . S
C519 C520 1.383 . S
C519 C524 1.382 . S
C520 H497 0.950 . S
C520 C519 1.383 . S
C520 C521 1.395 . S
C521 H498 0.950 . S
C521 C520 1.395 . S
C521 C522 1.288 . S
C522 C521 1.288 . S
C522 C523 1.392 . S
C523 H499 0.951 . S
C523 C522 1.392 . S
C523 C524 1.392 . S
C524 H500 0.949 . S
C524 C519 1.382 . S
C524 C523 1.392 . S
C525 C526 1.376 . S
C525 C530 1.386 . S
C525 C531 1.483 . S
C526 H501 0.949 . S
C526 C525 1.376 . S
C526 C527 1.397 . S
C527 H502 0.950 . S
C527 C526 1.397 . S
C527 C528 1.391 . S
C528 C527 1.391 . S
C528 C529 1.405 . S
C529 H503 0.950 . S
C529 C528 1.405 . S
C529 C530 1.367 . S
C530 H504 0.950 . S
C530 C525 1.386 . S
C530 C529 1.367 . S
C531 C525 1.483 . S
C531 C532 1.382 . S
C531 C533 1.403 . S
C532 H505 0.950 . S
C532 C518 1.411 . S
C532 C531 1.382 . S
C533 C517 1.411 . S
C533 C531 1.403 . S
C533 C534 1.489 . S
C534 C533 1.489 . S
C534 C535 1.383 . S
C534 C539 1.382 . S
C535 H506 0.950 . S
C535 C534 1.383 . S
C535 C536 1.395 . S
C536 H507 0.950 . S
C536 C535 1.395 . S
C536 C537 1.288 . S
C537 C536 1.288 . S
C537 C538 1.392 . S
C538 H508 0.951 . S
C538 C537 1.392 . S
C538 C539 1.392 . S
C539 H509 0.949 . S
C539 C534 1.382 . S
C539 C538 1.392 . S
H540 C559 0.949 . S
H541 C560 0.950 . S
H542 C562 0.950 . S
H543 C563 0.950 . S
H544 C565 0.950 . S
H545 C568 0.950 . S
H546 C569 0.950 . S
H547 C571 0.951 . S
H548 C572 0.949 . S
H549 C574 0.949 . S
H550 C575 0.950 . S
H551 C577 0.950 . S
H552 C578 0.950 . S
H553 C580 0.950 . S
H554 C583 0.950 . S
H555 C584 0.950 . S
H556 C586 0.951 . S
H557 C587 0.949 . S
C558 C559 1.376 . S
C558 C563 1.386 . S
C558 C564 1.483 . S
C559 H540 0.949 . S
C559 C558 1.376 . S
C559 C560 1.397 . S
C560 H541 0.950 . S
C560 C559 1.397 . S
C560 C561 1.391 . S
C561 C560 1.391 . S
C561 C562 1.405 . S
C562 H542 0.950 . S
C562 C561 1.405 . S
C562 C563 1.367 . S
C563 H543 0.950 . S
C563 C558 1.386 . S
C563 C562 1.367 . S
C564 C558 1.483 . S
C564 C565 1.382 . S
C564 C566 1.403 . S
C565 H544 0.950 . S
C565 C564 1.382 . S
C565 C581 1.411 . S
C566 C564 1.403 . S
C566 C567 1.489 . S
C566 C580 1.411 . S
C567 C566 1.489 . S
C567 C568 1.383 . S
C567 C572 1.382 . S
C568 H545 0.950 . S
C568 C567 1.383 . S
C568 C569 1.395 . S
C569 H546 0.950 . S
C569 C568 1.395 . S
C569 C570 1.288 . S
C570 C569 1.288 . S
C570 C571 1.392 . S
C571 H547 0.951 . S
C571 C570 1.392 . S
C571 C572 1.392 . S
C572 H548 0.949 . S
C572 C567 1.382 . S
C572 C571 1.392 . S
C573 C574 1.376 . S
C573 C578 1.386 . S
C573 C579 1.483 . S
C574 H549 0.949 . S
C574 C573 1.376 . S
C574 C575 1.397 . S
C575 H550 0.950 . S
C575 C574 1.397 . S
C575 C576 1.391 . S
C576 C575 1.391 . S
C576 C577 1.405 . S
C577 H551 0.950 . S
C577 C576 1.405 . S
C577 C578 1.367 . S
C578 H552 0.950 . S
C578 C573 1.386 . S
C578 C577 1.367 . S
C579 C573 1.483 . S
C579 C580 1.382 . S
C579 C581 1.403 . S
C580 H553 0.950 . S
C580 C566 1.411 . S
C580 C579 1.382 . S
C581 C565 1.411 . S
C581 C579 1.403 . S
C581 C582 1.489 . S
C582 C581 1.489 . S
C582 C583 1.383 . S
C582 C587 1.382 . S
C583 H554 0.950 . S
C583 C582 1.383 . S
C583 C584 1.395 . S
C584 H555 0.950 . S
C584 C583 1.395 . S
C584 C585 1.288 . S
C585 C584 1.288 . S
C585 C586 1.392 . S
C586 H556 0.951 . S
C586 C585 1.392 . S
C586 C587 1.392 . S
C587 H557 0.949 . S
C587 C582 1.382 . S
C587 C586 1.392 . S
H588 C607 0.949 . S
H589 C608 0.950 . S
H590 C610 0.950 . S
H591 C611 0.950 . S
H592 C613 0.950 . S
H593 C616 0.950 . S
H594 C617 0.950 . S
H595 C619 0.951 . S
H596 C620 0.949 . S
H597 C622 0.949 . S
H598 C623 0.950 . S
H599 C625 0.950 . S
H600 C626 0.950 . S
H601 C628 0.950 . S
H602 C631 0.950 . S
H603 C632 0.950 . S
H604 C634 0.951 . S
H605 C635 0.949 . S
C606 C607 1.376 . S
C606 C611 1.386 . S
C606 C612 1.483 . S
C607 H588 0.949 . S
C607 C606 1.376 . S
C607 C608 1.397 . S
C608 H589 0.950 . S
C608 C607 1.397 . S
C608 C609 1.391 . S
C609 C608 1.391 . S
C609 C610 1.405 . S
C610 H590 0.950 . S
C610 C609 1.405 . S
C610 C611 1.367 . S
C611 H591 0.950 . S
C611 C606 1.386 . S
C611 C610 1.367 . S
C612 C606 1.483 . S
C612 C613 1.382 . S
C612 C614 1.403 . S
C613 H592 0.950 . S
C613 C612 1.382 . S
C613 C629 1.411 . S
C614 C612 1.403 . S
C614 C615 1.489 . S
C614 C628 1.411 . S
C615 C614 1.489 . S
C615 C616 1.383 . S
C615 C620 1.382 . S
C616 H593 0.950 . S
C616 C615 1.383 . S
C616 C617 1.395 . S
C617 H594 0.950 . S
C617 C616 1.395 . S
C617 C618 1.288 . S
C618 C617 1.288 . S
C618 C619 1.392 . S
C619 H595 0.951 . S
C619 C618 1.392 . S
C619 C620 1.392 . S
C620 H596 0.949 . S
C620 C615 1.382 . S
C620 C619 1.392 . S
C621 C622 1.376 . S
C621 C626 1.386 . S
C621 C627 1.483 . S
C622 H597 0.949 . S
C622 C621 1.376 . S
C622 C623 1.397 . S
C623 H598 0.950 . S
C623 C622 1.397 . S
C623 C624 1.391 . S
C624 C623 1.391 . S
C624 C625 1.405 . S
C625 H599 0.950 . S
C625 C624 1.405 . S
C625 C626 1.367 . S
C626 H600 0.950 . S
C626 C621 1.386 . S
C626 C625 1.367 . S
C627 C621 1.483 . S
C627 C628 1.382 . S
C627 C629 1.403 . S
C628 H601 0.950 . S
C628 C614 1.411 . S
C628 C627 1.382 . S
C629 C613 1.411 . S
C629 C627 1.403 . S
C629 C630 1.489 . S
C630 C629 1.489 . S
C630 C631 1.383 . S
C630 C635 1.382 . S
C631 H602 0.950 . S
C631 C630 1.383 . S
C631 C632 1.395 . S
C632 H603 0.950 . S
C632 C631 1.395 . S
C632 C633 1.288 . S
C633 C632 1.288 . S
C633 C634 1.392 . S
C634 H604 0.951 . S
C634 C633 1.392 . S
C634 C635 1.392 . S
C635 H605 0.949 . S
C635 C630 1.382 . S
C635 C634 1.392 . S
H636 C655 0.949 . S
H637 C656 0.950 . S
H638 C658 0.950 . S
H639 C659 0.950 . S
H640 C661 0.950 . S
H641 C664 0.950 . S
H642 C665 0.950 . S
H643 C667 0.951 . S
H644 C668 0.949 . S
H645 C670 0.949 . S
H646 C671 0.950 . S
H647 C673 0.950 . S
H648 C674 0.950 . S
H649 C676 0.950 . S
H650 C679 0.950 . S
H651 C680 0.950 . S
H652 C682 0.951 . S
H653 C683 0.949 . S
C654 C655 1.376 . S
C654 C659 1.386 . S
C654 C660 1.483 . S
C655 H636 0.949 . S
C655 C654 1.376 . S
C655 C656 1.397 . S
C656 H637 0.950 . S
C656 C655 1.397 . S
C656 C657 1.391 . S
C657 C656 1.391 . S
C657 C658 1.405 . S
C658 H638 0.950 . S
C658 C657 1.405 . S
C658 C659 1.367 . S
C659 H639 0.950 . S
C659 C654 1.386 . S
C659 C658 1.367 . S
C660 C654 1.483 . S
C660 C661 1.382 . S
C660 C662 1.403 . S
C661 H640 0.950 . S
C661 C660 1.382 . S
C661 C677 1.411 . S
C662 C660 1.403 . S
C662 C663 1.489 . S
C662 C676 1.411 . S
C663 C662 1.489 . S
C663 C664 1.383 . S
C663 C668 1.382 . S
C664 H641 0.950 . S
C664 C663 1.383 . S
C664 C665 1.395 . S
C665 H642 0.950 . S
C665 C664 1.395 . S
C665 C666 1.288 . S
C666 C665 1.288 . S
C666 C667 1.392 . S
C667 H643 0.951 . S
C667 C666 1.392 . S
C667 C668 1.392 . S
C668 H644 0.949 . S
C668 C663 1.382 . S
C668 C667 1.392 . S
C669 C670 1.376 . S
C669 C674 1.386 . S
C669 C675 1.483 . S
C670 H645 0.949 . S
C670 C669 1.376 . S
C670 C671 1.397 . S
C671 H646 0.950 . S
C671 C670 1.397 . S
C671 C672 1.391 . S
C672 C671 1.391 . S
C672 C673 1.405 . S
C673 H647 0.950 . S
C673 C672 1.405 . S
C673 C674 1.367 . S
C674 H648 0.950 . S
C674 C669 1.386 . S
C674 C673 1.367 . S
C675 C669 1.483 . S
C675 C676 1.382 . S
C675 C677 1.403 . S
C676 H649 0.950 . S
C676 C662 1.411 . S
C676 C675 1.382 . S
C677 C661 1.411 . S
C677 C675 1.403 . S
C677 C678 1.489 . S
C678 C677 1.489 . S
C678 C679 1.383 . S
C678 C683 1.382 . S
C679 H650 0.950 . S
C679 C678 1.383 . S
C679 C680 1.395 . S
C680 H651 0.950 . S
C680 C679 1.395 . S
C680 C681 1.288 . S
C681 C680 1.288 . S
C681 C682 1.392 . S
C682 H652 0.951 . S
C682 C681 1.392 . S
C682 C683 1.392 . S
C683 H653 0.949 . S
C683 C678 1.382 . S
C683 C682 1.392 . S
H684 C703 0.949 . S
H685 C704 0.950 . S
H686 C706 0.950 . S
H687 C707 0.950 . S
H688 C709 0.950 . S
H689 C712 0.950 . S
H690 C713 0.950 . S
H691 C715 0.951 . S
H692 C716 0.949 . S
H693 C718 0.949 . S
H694 C719 0.950 . S
H695 C721 0.950 . S
H696 C722 0.950 . S
H697 C724 0.950 . S
H698 C727 0.950 . S
H699 C728 0.950 . S
H700 C730 0.951 . S
H701 C731 0.949 . S
C702 C703 1.376 . S
C702 C707 1.386 1_655 S
C702 C708 1.483 . S
C703 H684 0.949 . S
C703 C702 1.376 . S
C703 C704 1.397 . S
C704 H685 0.950 . S
C704 C703 1.397 . S
C704 C705 1.391 . S
C705 C704 1.391 . S
C705 C706 1.405 1_655 S
C706 H686 0.950 . S
C706 C705 1.405 1_455 S
C706 C707 1.367 . S
C707 H687 0.950 . S
C707 C702 1.386 1_455 S
C707 C706 1.367 . S
C708 C702 1.483 . S
C708 C709 1.382 . S
C708 C710 1.403 1_655 S
C709 H688 0.950 . S
C709 C708 1.382 . S
C709 C725 1.411 . S
C710 C708 1.403 1_455 S
C710 C711 1.489 . S
C710 C724 1.411 . S
C711 C710 1.489 . S
C711 C712 1.383 1_455 S
C711 C716 1.382 . S
C712 H689 0.950 . S
C712 C711 1.383 1_655 S
C712 C713 1.395 . S
C713 H690 0.950 . S
C713 C712 1.395 . S
C713 C714 1.288 1_655 S
C714 C713 1.288 1_455 S
C714 C715 1.392 . S
C715 H691 0.951 . S
C715 C714 1.392 . S
C715 C716 1.392 . S
C716 H692 0.949 . S
C716 C711 1.382 . S
C716 C715 1.392 . S
C717 C718 1.376 . S
C717 C722 1.386 1_455 S
C717 C723 1.483 . S
C718 H693 0.949 . S
C718 C717 1.376 . S
C718 C719 1.397 . S
C719 H694 0.950 . S
C719 C718 1.397 . S
C719 C720 1.391 . S
C720 C719 1.391 . S
C720 C721 1.405 1_455 S
C721 H695 0.950 . S
C721 C720 1.405 1_655 S
C721 C722 1.367 . S
C722 H696 0.950 . S
C722 C717 1.386 1_655 S
C722 C721 1.367 . S
C723 C717 1.483 . S
C723 C724 1.382 . S
C723 C725 1.403 1_455 S
C724 H697 0.950 . S
C724 C710 1.411 . S
C724 C723 1.382 . S
C725 C709 1.411 . S
C725 C723 1.403 1_655 S
C725 C726 1.489 . S
C726 C725 1.489 . S
C726 C727 1.383 1_655 S
C726 C731 1.382 . S
C727 H698 0.950 . S
C727 C726 1.383 1_455 S
C727 C728 1.395 . S
C728 H699 0.950 . S
C728 C727 1.395 . S
C728 C729 1.288 1_455 S
C729 C728 1.288 1_655 S
C729 C730 1.392 . S
C730 H700 0.951 . S
C730 C729 1.392 . S
C730 C731 1.392 . S
C731 H701 0.949 . S
C731 C726 1.382 . S
C731 C730 1.392 . S
H732 C751 0.949 . S
H733 C752 0.950 . S
H734 C754 0.950 . S
H735 C755 0.950 . S
H736 C757 0.950 . S
H737 C760 0.950 . S
H738 C761 0.950 . S
H739 C763 0.951 . S
H740 C764 0.949 . S
H741 C766 0.949 . S
H742 C767 0.950 . S
H743 C769 0.950 . S
H744 C770 0.950 . S
H745 C772 0.950 . S
H746 C775 0.950 . S
H747 C776 0.950 . S
H748 C778 0.951 . S
H749 C779 0.949 . S
C750 C751 1.376 . S
C750 C755 1.386 . S
C750 C756 1.483 . S
C751 H732 0.949 . S
C751 C750 1.376 . S
C751 C752 1.397 . S
C752 H733 0.950 . S
C752 C751 1.397 . S
C752 C753 1.391 . S
C753 C752 1.391 . S
C753 C754 1.405 . S
C754 H734 0.950 . S
C754 C753 1.405 . S
C754 C755 1.367 . S
C755 H735 0.950 . S
C755 C750 1.386 . S
C755 C754 1.367 . S
C756 C750 1.483 . S
C756 C757 1.382 . S
C756 C758 1.403 . S
C757 H736 0.950 . S
C757 C756 1.382 . S
C757 C773 1.411 . S
C758 C756 1.403 . S
C758 C759 1.489 . S
C758 C772 1.411 . S
C759 C758 1.489 . S
C759 C760 1.383 . S
C759 C764 1.382 . S
C760 H737 0.950 . S
C760 C759 1.383 . S
C760 C761 1.395 . S
C761 H738 0.950 . S
C761 C760 1.395 . S
C761 C762 1.288 . S
C762 C761 1.288 . S
C762 C763 1.392 . S
C763 H739 0.951 . S
C763 C762 1.392 . S
C763 C764 1.392 . S
C764 H740 0.949 . S
C764 C759 1.382 . S
C764 C763 1.392 . S
C765 C766 1.376 . S
C765 C770 1.386 . S
C765 C771 1.483 . S
C766 H741 0.949 . S
C766 C765 1.376 . S
C766 C767 1.397 . S
C767 H742 0.950 . S
C767 C766 1.397 . S
C767 C768 1.391 . S
C768 C767 1.391 . S
C768 C769 1.405 . S
C769 H743 0.950 . S
C769 C768 1.405 . S
C769 C770 1.367 . S
C770 H744 0.950 . S
C770 C765 1.386 . S
C770 C769 1.367 . S
C771 C765 1.483 . S
C771 C772 1.382 . S
C771 C773 1.403 . S
C772 H745 0.950 . S
C772 C758 1.411 . S
C772 C771 1.382 . S
C773 C757 1.411 . S
C773 C771 1.403 . S
C773 C774 1.489 . S
C774 C773 1.489 . S
C774 C775 1.383 . S
C774 C779 1.382 . S
C775 H746 0.950 . S
C775 C774 1.383 . S
C775 C776 1.395 . S
C776 H747 0.950 . S
C776 C775 1.395 . S
C776 C777 1.288 . S
C777 C776 1.288 . S
C777 C778 1.392 . S
C778 H748 0.951 . S
C778 C777 1.392 . S
C778 C779 1.392 . S
C779 H749 0.949 . S
C779 C774 1.382 . S
C779 C778 1.392 . S
H780 C799 0.949 . S
H781 C800 0.950 . S
H782 C802 0.950 . S
H783 C803 0.950 . S
H784 C805 0.950 . S
H785 C808 0.950 . S
H786 C809 0.950 . S
H787 C811 0.951 . S
H788 C812 0.949 . S
H789 C814 0.949 . S
H790 C815 0.950 . S
H791 C817 0.950 . S
H792 C818 0.950 . S
H793 C820 0.950 . S
H794 C823 0.950 . S
H795 C824 0.950 . S
H796 C826 0.951 . S
H797 C827 0.949 . S
C798 C799 1.376 . S
C798 C803 1.386 1_545 S
C798 C804 1.483 . S
C799 H780 0.949 . S
C799 C798 1.376 . S
C799 C800 1.397 . S
C800 H781 0.950 . S
C800 C799 1.397 . S
C800 C801 1.391 . S
C801 C800 1.391 . S
C801 C802 1.405 1_545 S
C802 H782 0.950 . S
C802 C801 1.405 1_565 S
C802 C803 1.367 . S
C803 H783 0.950 . S
C803 C798 1.386 1_565 S
C803 C802 1.367 . S
C804 C798 1.483 . S
C804 C805 1.382 . S
C804 C806 1.403 1_545 S
C805 H784 0.950 . S
C805 C804 1.382 . S
C805 C821 1.411 . S
C806 C804 1.403 1_565 S
C806 C807 1.489 . S
C806 C820 1.411 . S
C807 C806 1.489 . S
C807 C808 1.383 1_565 S
C807 C812 1.382 . S
C808 H785 0.950 . S
C808 C807 1.383 1_545 S
C808 C809 1.395 . S
C809 H786 0.950 . S
C809 C808 1.395 . S
C809 C810 1.288 1_545 S
C810 C809 1.288 1_565 S
C810 C811 1.392 . S
C811 H787 0.951 . S
C811 C810 1.392 . S
C811 C812 1.392 . S
C812 H788 0.949 . S
C812 C807 1.382 . S
C812 C811 1.392 . S
C813 C814 1.376 . S
C813 C818 1.386 1_565 S
C813 C819 1.483 . S
C814 H789 0.949 . S
C814 C813 1.376 . S
C814 C815 1.397 . S
C815 H790 0.950 . S
C815 C814 1.397 . S
C815 C816 1.391 . S
C816 C815 1.391 . S
C816 C817 1.405 1_565 S
C817 H791 0.950 . S
C817 C816 1.405 1_545 S
C817 C818 1.367 . S
C818 H792 0.950 . S
C818 C813 1.386 1_545 S
C818 C817 1.367 . S
C819 C813 1.483 . S
C819 C820 1.382 . S
C819 C821 1.403 1_565 S
C820 H793 0.950 . S
C820 C806 1.411 . S
C820 C819 1.382 . S
C821 C805 1.411 . S
C821 C819 1.403 1_545 S
C821 C822 1.489 . S
C822 C821 1.489 . S
C822 C823 1.383 1_545 S
C822 C827 1.382 . S
C823 H794 0.950 . S
C823 C822 1.383 1_565 S
C823 C824 1.395 . S
C824 H795 0.950 . S
C824 C823 1.395 . S
C824 C825 1.288 1_565 S
C825 C824 1.288 1_545 S
C825 C826 1.392 . S
C826 H796 0.951 . S
C826 C825 1.392 . S
C826 C827 1.392 . S
C827 H797 0.949 . S
C827 C822 1.382 . S
C827 C826 1.392 . S
H828 C847 0.949 . S
H829 C848 0.950 . S
H830 C850 0.950 . S
H831 C851 0.950 . S
H832 C853 0.950 . S
H833 C856 0.950 . S
H834 C857 0.950 . S
H835 C859 0.951 . S
H836 C860 0.949 . S
H837 C862 0.949 . S
H838 C863 0.950 . S
H839 C865 0.950 . S
H840 C866 0.950 . S
H841 C868 0.950 . S
H842 C871 0.950 . S
H843 C872 0.950 . S
H844 C874 0.951 . S
H845 C875 0.949 . S
C846 C847 1.393 . S
C846 C851 1.378 1_545 S
C846 C852 1.473 . S
C847 H828 0.949 . S
C847 C846 1.393 . S
C847 C848 1.397 . S
C848 H829 0.950 . S
C848 C847 1.397 . S
C848 C849 1.391 1_545 S
C849 C848 1.391 1_565 S
C849 C850 1.405 . S
C850 H830 0.950 . S
C850 C849 1.405 . S
C850 C851 1.367 . S
C851 H831 0.950 . S
C851 C846 1.378 1_565 S
C851 C850 1.367 . S
C852 C846 1.473 . S
C852 C853 1.382 . S
C852 C854 1.403 1_545 S
C853 H832 0.950 . S
C853 C852 1.382 . S
C853 C869 1.411 . S
C854 C852 1.403 1_565 S
C854 C855 1.508 . S
C854 C868 1.411 . S
C855 C854 1.508 . S
C855 C856 1.344 1_565 S
C855 C860 1.402 . S
C856 H833 0.950 . S
C856 C855 1.344 1_545 S
C856 C857 1.395 . S
C857 H834 0.950 . S
C857 C856 1.395 . S
C857 C858 1.288 . S
C858 C857 1.288 . S
C858 C859 1.392 1_545 S
C859 H835 0.951 . S
C859 C858 1.392 1_565 S
C859 C860 1.392 . S
C860 H836 0.949 . S
C860 C855 1.402 . S
C860 C859 1.392 . S
C861 C862 1.386 . S
C861 C866 1.381 1_565 S
C861 C867 1.477 . S
C862 H837 0.949 . S
C862 C861 1.386 . S
C862 C863 1.397 . S
C863 H838 0.950 . S
C863 C862 1.397 . S
C863 C864 1.391 1_565 S
C864 C863 1.391 1_545 S
C864 C865 1.405 . S
C865 H839 0.950 . S
C865 C864 1.405 . S
C865 C866 1.367 . S
C866 H840 0.950 . S
C866 C861 1.381 1_545 S
C866 C865 1.367 . S
C867 C861 1.477 . S
C867 C868 1.382 . S
C867 C869 1.403 1_565 S
C868 H841 0.950 . S
C868 C854 1.411 . S
C868 C867 1.382 . S
C869 C853 1.411 . S
C869 C867 1.403 1_545 S
C869 C870 1.489 . S
C870 C869 1.489 . S
C870 C871 1.383 1_545 S
C870 C875 1.382 . S
C871 H842 0.950 . S
C871 C870 1.383 1_565 S
C871 C872 1.395 . S
C872 H843 0.950 . S
C872 C871 1.395 . S
C872 C873 1.288 . S
C873 C872 1.288 . S
C873 C874 1.392 1_565 S
C874 H844 0.951 . S
C874 C873 1.392 1_545 S
C874 C875 1.392 . S
C875 H845 0.949 . S
C875 C870 1.382 . S
C875 C874 1.392 . S
H876 C895 0.949 . S
H877 C896 0.950 . S
H878 C898 0.950 . S
H879 C899 0.950 . S
H880 C901 0.950 . S
H881 C904 0.950 . S
H882 C905 0.950 . S
H883 C907 0.951 . S
H884 C908 0.949 . S
H885 C910 0.949 . S
H886 C911 0.950 . S
H887 C913 0.950 . S
H888 C914 0.950 . S
H889 C916 0.950 . S
H890 C919 0.950 . S
H891 C920 0.950 . S
H892 C922 0.951 . S
H893 C923 0.949 . S
C894 C895 1.376 . S
C894 C899 1.386 1_455 S
C894 C900 1.483 . S
C895 H876 0.949 . S
C895 C894 1.376 . S
C895 C896 1.397 . S
C896 H877 0.950 . S
C896 C895 1.397 . S
C896 C897 1.391 . S
C897 C896 1.391 . S
C897 C898 1.405 1_455 S
C898 H878 0.950 . S
C898 C897 1.405 1_655 S
C898 C899 1.367 . S
C899 H879 0.950 . S
C899 C894 1.386 1_655 S
C899 C898 1.367 . S
C900 C894 1.483 . S
C900 C901 1.382 . S
C900 C902 1.403 1_455 S
C901 H880 0.950 . S
C901 C900 1.382 . S
C901 C917 1.411 . S
C902 C900 1.403 1_655 S
C902 C903 1.489 . S
C902 C916 1.411 . S
C903 C902 1.489 . S
C903 C904 1.383 1_655 S
C903 C908 1.382 . S
C904 H881 0.950 . S
C904 C903 1.383 1_455 S
C904 C905 1.395 . S
C905 H882 0.950 . S
C905 C904 1.395 . S
C905 C906 1.288 1_455 S
C906 C905 1.288 1_655 S
C906 C907 1.392 . S
C907 H883 0.951 . S
C907 C906 1.392 . S
C907 C908 1.392 . S
C908 H884 0.949 . S
C908 C903 1.382 . S
C908 C907 1.392 . S
C909 C910 1.376 . S
C909 C914 1.386 1_655 S
C909 C915 1.483 . S
C910 H885 0.949 . S
C910 C909 1.376 . S
C910 C911 1.397 . S
C911 H886 0.950 . S
C911 C910 1.397 . S
C911 C912 1.391 . S
C912 C911 1.391 . S
C912 C913 1.405 1_655 S
C913 H887 0.950 . S
C913 C912 1.405 1_455 S
C913 C914 1.367 . S
C914 H888 0.950 . S
C914 C909 1.386 1_455 S
C914 C913 1.367 . S
C915 C909 1.483 . S
C915 C916 1.382 . S
C915 C917 1.403 1_655 S
C916 H889 0.950 . S
C916 C902 1.411 . S
C916 C915 1.382 . S
C917 C901 1.411 . S
C917 C915 1.403 1_455 S
C917 C918 1.489 . S
C918 C917 1.489 . S
C918 C919 1.383 1_455 S
C918 C923 1.382 . S
C919 H890 0.950 . S
C919 C918 1.383 1_655 S
C919 C920 1.395 . S
C920 H891 0.950 . S
C920 C919 1.395 . S
C920 C921 1.288 1_655 S
C921 C920 1.288 1_455 S
C921 C922 1.392 . S
C922 H892 0.951 . S
C922 C921 1.392 . S
C922 C923 1.392 . S
C923 H893 0.949 . S
C923 C918 1.382 . S
C923 C922 1.392 . S
H924 C943 0.949 . S
H925 C944 0.950 . S
H926 C946 0.950 . S
H927 C947 0.950 . S
H928 C949 0.950 . S
H929 C952 0.950 . S
H930 C953 0.950 . S
H931 C955 0.951 . S
H932 C956 0.949 . S
H933 C958 0.949 . S
H934 C959 0.950 . S
H935 C961 0.950 . S
H936 C962 0.950 . S
H937 C964 0.950 . S
H938 C967 0.950 . S
H939 C968 0.950 . S
H940 C970 0.951 . S
H941 C971 0.949 . S
C942 C943 1.376 . S
C942 C947 1.386 . S
C942 C948 1.483 . S
C943 H924 0.949 . S
C943 C942 1.376 . S
C943 C944 1.397 . S
C944 H925 0.950 . S
C944 C943 1.397 . S
C944 C945 1.391 . S
C945 C944 1.391 . S
C945 C946 1.405 . S
C946 H926 0.950 . S
C946 C945 1.405 . S
C946 C947 1.367 . S
C947 H927 0.950 . S
C947 C942 1.386 . S
C947 C946 1.367 . S
C948 C942 1.483 . S
C948 C949 1.382 . S
C948 C950 1.403 . S
C949 H928 0.950 . S
C949 C948 1.382 . S
C949 C965 1.411 . S
C950 C948 1.403 . S
C950 C951 1.489 . S
C950 C964 1.411 . S
C951 C950 1.489 . S
C951 C952 1.383 . S
C951 C956 1.382 . S
C952 H929 0.950 . S
C952 C951 1.383 . S
C952 C953 1.395 . S
C953 H930 0.950 . S
C953 C952 1.395 . S
C953 C954 1.288 . S
C954 C953 1.288 . S
C954 C955 1.392 . S
C955 H931 0.951 . S
C955 C954 1.392 . S
C955 C956 1.392 . S
C956 H932 0.949 . S
C956 C951 1.382 . S
C956 C955 1.392 . S
C957 C958 1.376 . S
C957 C962 1.386 . S
C957 C963 1.483 . S
C958 H933 0.949 . S
C958 C957 1.376 . S
C958 C959 1.397 . S
C959 H934 0.950 . S
C959 C958 1.397 . S
C959 C960 1.391 . S
C960 C959 1.391 . S
C960 C961 1.405 . S
C961 H935 0.950 . S
C961 C960 1.405 . S
C961 C962 1.367 . S
C962 H936 0.950 . S
C962 C957 1.386 . S
C962 C961 1.367 . S
C963 C957 1.483 . S
C963 C964 1.382 . S
C963 C965 1.403 . S
C964 H937 0.950 . S
C964 C950 1.411 . S
C964 C963 1.382 . S
C965 C949 1.411 . S
C965 C963 1.403 . S
C965 C966 1.489 . S
C966 C965 1.489 . S
C966 C967 1.383 . S
C966 C971 1.382 . S
C967 H938 0.950 . S
C967 C966 1.383 . S
C967 C968 1.395 . S
C968 H939 0.950 . S
C968 C967 1.395 . S
C968 C969 1.288 . S
C969 C968 1.288 . S
C969 C970 1.392 . S
C970 H940 0.951 . S
C970 C969 1.392 . S
C970 C971 1.392 . S
C971 H941 0.949 . S
C971 C966 1.382 . S
C971 C970 1.392 . S
H972 C991 0.949 . S
H973 C992 0.950 . S
H974 C994 0.950 . S
H975 C995 0.950 . S
H976 C997 0.950 . S
H977 C1000 0.950 . S
H978 C1001 0.950 . S
H979 C1003 0.951 . S
H980 C1004 0.949 . S
H981 C1006 0.949 . S
H982 C1007 0.950 . S
H983 C1009 0.950 . S
H984 C1010 0.950 . S
H985 C1012 0.950 . S
H986 C1015 0.950 . S
H987 C1016 0.950 . S
H988 C1018 0.951 . S
H989 C1019 0.949 . S
C990 C991 1.376 . S
C990 C995 1.386 . S
C990 C996 1.483 . S
C991 H972 0.949 . S
C991 C990 1.376 . S
C991 C992 1.397 . S
C992 H973 0.950 . S
C992 C991 1.397 . S
C992 C993 1.391 . S
C993 C992 1.391 . S
C993 C994 1.405 . S
C994 H974 0.950 . S
C994 C993 1.405 . S
C994 C995 1.367 . S
C995 H975 0.950 . S
C995 C990 1.386 . S
C995 C994 1.367 . S
C996 C990 1.483 . S
C996 C997 1.382 . S
C996 C998 1.403 . S
C997 H976 0.950 . S
C997 C996 1.382 . S
C997 C1013 1.411 . S
C998 C996 1.403 . S
C998 C999 1.489 . S
C998 C1012 1.411 . S
C999 C998 1.489 . S
C999 C1000 1.383 . S
C999 C1004 1.382 . S
C1000 H977 0.950 . S
C1000 C999 1.383 . S
C1000 C1001 1.395 . S
C1001 H978 0.950 . S
C1001 C1000 1.395 . S
C1001 C1002 1.288 . S
C1002 C1001 1.288 . S
C1002 C1003 1.392 . S
C1003 H979 0.951 . S
C1003 C1002 1.392 . S
C1003 C1004 1.392 . S
C1004 H980 0.949 . S
C1004 C999 1.382 . S
C1004 C1003 1.392 . S
C1005 C1006 1.376 . S
C1005 C1010 1.386 . S
C1005 C1011 1.483 . S
C1006 H981 0.949 . S
C1006 C1005 1.376 . S
C1006 C1007 1.397 . S
C1007 H982 0.950 . S
C1007 C1006 1.397 . S
C1007 C1008 1.391 . S
C1008 C1007 1.391 . S
C1008 C1009 1.405 . S
C1009 H983 0.950 . S
C1009 C1008 1.405 . S
C1009 C1010 1.367 . S
C1010 H984 0.950 . S
C1010 C1005 1.386 . S
C1010 C1009 1.367 . S
C1011 C1005 1.483 . S
C1011 C1012 1.382 . S
C1011 C1013 1.403 . S
C1012 H985 0.950 . S
C1012 C998 1.411 . S
C1012 C1011 1.382 . S
C1013 C997 1.411 . S
C1013 C1011 1.403 . S
C1013 C1014 1.489 . S
C1014 C1013 1.489 . S
C1014 C1015 1.383 . S
C1014 C1019 1.382 . S
C1015 H986 0.950 . S
C1015 C1014 1.383 . S
C1015 C1016 1.395 . S
C1016 H987 0.950 . S
C1016 C1015 1.395 . S
C1016 C1017 1.288 . S
C1017 C1016 1.288 . S
C1017 C1018 1.392 . S
C1018 H988 0.951 . S
C1018 C1017 1.392 . S
C1018 C1019 1.392 . S
C1019 H989 0.949 . S
C1019 C1014 1.382 . S
C1019 C1018 1.392 . S
H1020 C1039 0.949 . S
H1021 C1040 0.950 . S
H1022 C1042 0.950 . S
H1023 C1043 0.950 . S
H1024 C1045 0.950 . S
H1025 C1048 0.950 . S
H1026 C1049 0.950 . S
H1027 C1051 0.951 . S
H1028 C1052 0.949 . S
H1029 C1054 0.949 . S
H1030 C1055 0.950 . S
H1031 C1057 0.950 . S
H1032 C1058 0.950 . S
H1033 C1060 0.950 . S
H1034 C1063 0.950 . S
H1035 C1064 0.950 . S
H1036 C1066 0.951 . S
H1037 C1067 0.949 . S
C1038 C1039 1.376 . S
C1038 C1043 1.386 . S
C1038 C1044 1.483 . S
C1039 H1020 0.949 . S
C1039 C1038 1.376 . S
C1039 C1040 1.397 . S
C1040 H1021 0.950 . S
C1040 C1039 1.397 . S
C1040 C1041 1.391 . S
C1041 C1040 1.391 . S
C1041 C1042 1.405 . S
C1042 H1022 0.950 . S
C1042 C1041 1.405 . S
C1042 C1043 1.367 . S
C1043 H1023 0.950 . S
C1043 C1038 1.386 . S
C1043 C1042 1.367 . S
C1044 C1038 1.483 . S
C1044 C1045 1.382 . S
C1044 C1046 1.403 . S
C1045 H1024 0.950 . S
C1045 C1044 1.382 . S
C1045 C1061 1.411 . S
C1046 C1044 1.403 . S
C1046 C1047 1.489 . S
C1046 C1060 1.411 . S
C1047 C1046 1.489 . S
C1047 C1048 1.383 . S
C1047 C1052 1.382 . S
C1048 H1025 0.950 . S
C1048 C1047 1.383 . S
C1048 C1049 1.395 . S
C1049 H1026 0.950 . S
C1049 C1048 1.395 . S
C1049 C1050 1.288 . S
C1050 C1049 1.288 . S
C1050 C1051 1.392 . S
C1051 H1027 0.951 . S
C1051 C1050 1.392 . S
C1051 C1052 1.392 . S
C1052 H1028 0.949 . S
C1052 C1047 1.382 . S
C1052 C1051 1.392 . S
C1053 C1054 1.376 . S
C1053 C1058 1.386 . S
C1053 C1059 1.483 . S
C1054 H1029 0.949 . S
C1054 C1053 1.376 . S
C1054 C1055 1.397 . S
C1055 H1030 0.950 . S
C1055 C1054 1.397 . S
C1055 C1056 1.391 . S
C1056 C1055 1.391 . S
C1056 C1057 1.405 . S
C1057 H1031 0.950 . S
C1057 C1056 1.405 . S
C1057 C1058 1.367 . S
C1058 H1032 0.950 . S
C1058 C1053 1.386 . S
C1058 C1057 1.367 . S
C1059 C1053 1.483 . S
C1059 C1060 1.382 . S
C1059 C1061 1.403 . S
C1060 H1033 0.950 . S
C1060 C1046 1.411 . S
C1060 C1059 1.382 . S
C1061 C1045 1.411 . S
C1061 C1059 1.403 . S
C1061 C1062 1.489 . S
C1062 C1061 1.489 . S
C1062 C1063 1.383 . S
C1062 C1067 1.382 . S
C1063 H1034 0.950 . S
C1063 C1062 1.383 . S
C1063 C1064 1.395 . S
C1064 H1035 0.950 . S
C1064 C1063 1.395 . S
C1064 C1065 1.288 . S
C1065 C1064 1.288 . S
C1065 C1066 1.392 . S
C1066 H1036 0.951 . S
C1066 C1065 1.392 . S
C1066 C1067 1.392 . S
C1067 H1037 0.949 . S
C1067 C1062 1.382 . S
C1067 C1066 1.392 . S
H1068 C1087 0.949 . S
H1069 C1088 0.950 . S
H1070 C1090 0.950 . S
H1071 C1091 0.950 . S
H1072 C1093 0.950 . S
H1073 C1096 0.950 . S
H1074 C1097 0.950 . S
H1075 C1099 0.951 . S
H1076 C1100 0.949 . S
H1077 C1102 0.949 . S
H1078 C1103 0.950 . S
H1079 C1105 0.950 . S
H1080 C1106 0.950 . S
H1081 C1108 0.950 . S
H1082 C1111 0.950 . S
H1083 C1112 0.950 . S
H1084 C1114 0.951 . S
H1085 C1115 0.949 . S
C1086 C1087 1.376 . S
C1086 C1091 1.386 . S
C1086 C1092 1.483 . S
C1087 H1068 0.949 . S
C1087 C1086 1.376 . S
C1087 C1088 1.397 . S
C1088 H1069 0.950 . S
C1088 C1087 1.397 . S
C1088 C1089 1.391 . S
C1089 C1088 1.391 . S
C1089 C1090 1.405 . S
C1090 H1070 0.950 . S
C1090 C1089 1.405 . S
C1090 C1091 1.367 . S
C1091 H1071 0.950 . S
C1091 C1086 1.386 . S
C1091 C1090 1.367 . S
C1092 C1086 1.483 . S
C1092 C1093 1.382 . S
C1092 C1094 1.403 . S
C1093 H1072 0.950 . S
C1093 C1092 1.382 . S
C1093 C1109 1.411 . S
C1094 C1092 1.403 . S
C1094 C1095 1.489 . S
C1094 C1108 1.411 . S
C1095 C1094 1.489 . S
C1095 C1096 1.383 . S
C1095 C1100 1.382 . S
C1096 H1073 0.950 . S
C1096 C1095 1.383 . S
C1096 C1097 1.395 . S
C1097 H1074 0.950 . S
C1097 C1096 1.395 . S
C1097 C1098 1.288 . S
C1098 C1097 1.288 . S
C1098 C1099 1.392 . S
C1099 H1075 0.951 . S
C1099 C1098 1.392 . S
C1099 C1100 1.392 . S
C1100 H1076 0.949 . S
C1100 C1095 1.382 . S
C1100 C1099 1.392 . S
C1101 C1102 1.376 . S
C1101 C1106 1.386 . S
C1101 C1107 1.483 . S
C1102 H1077 0.949 . S
C1102 C1101 1.376 . S
C1102 C1103 1.397 . S
C1103 H1078 0.950 . S
C1103 C1102 1.397 . S
C1103 C1104 1.391 . S
C1104 C1103 1.391 . S
C1104 C1105 1.405 . S
C1105 H1079 0.950 . S
C1105 C1104 1.405 . S
C1105 C1106 1.367 . S
C1106 H1080 0.950 . S
C1106 C1101 1.386 . S
C1106 C1105 1.367 . S
C1107 C1101 1.483 . S
C1107 C1108 1.382 . S
C1107 C1109 1.403 . S
C1108 H1081 0.950 . S
C1108 C1094 1.411 . S
C1108 C1107 1.382 . S
C1109 C1093 1.411 . S
C1109 C1107 1.403 . S
C1109 C1110 1.489 . S
C1110 C1109 1.489 . S
C1110 C1111 1.383 . S
C1110 C1115 1.382 . S
C1111 H1082 0.950 . S
C1111 C1110 1.383 . S
C1111 C1112 1.395 . S
C1112 H1083 0.950 . S
C1112 C1111 1.395 . S
C1112 C1113 1.288 . S
C1113 C1112 1.288 . S
C1113 C1114 1.392 . S
C1114 H1084 0.951 . S
C1114 C1113 1.392 . S
C1114 C1115 1.392 . S
C1115 H1085 0.949 . S
C1115 C1110 1.382 . S
C1115 C1114 1.392 . S
C7 C729 1.532 . S
C23 C777 1.967 . S
C825 C37 1.499 . S
C35 C849 1.571 . S
C9 C921 1.550 . S
C21 C969 1.848 . S
C49 C897 1.578 . S
C945 C65 1.949 . S
C873 C79 1.486 . S
C77 C801 1.562 . S
C705 C51 1.572 . S
C63 C753 1.852 . S
C91 C1017 1.932 . S
C107 C1065 2.129 . S
C1089 C121 2.075 . S
C119 C273 1.892 . S
C93 C345 2.132 . S
C105 C393 1.973 . S
C133 C321 1.843 . S
C149 C369 2.066 . S
C297 C163 1.946 . S
C1113 C161 1.890 . S
C993 C135 2.145 . S
C1041 C147 2.013 . S
C175 C441 1.838 . S
C191 C489 2.074 . S
C205 C513 2.027 . S
C203 C561 1.981 . S
C633 C177 2.184 . S
C681 C189 2.015 . S
C609 C217 1.944 . S
C657 C233 2.118 . S
C247 C585 1.994 . S
C537 C245 1.801 . S
C219 C417 2.096 . S
C465 C231 1.976 . S
C282 C8 1.933 . S
C17 C336 1.726 . S
C384 C31 1.821 . S
C432 C36 1.850 . S
C480 C3 1.800 . S
C522 C22 1.894 . S
C50 C528 1.892 . S
C59 C426 1.688 . S
C73 C474 1.764 . S
C78 C330 1.813 . S
C378 C45 1.780 . S
C64 C288 1.844 . S
C570 C92 1.901 . S
C101 C624 1.818 . S
C115 C672 1.836 . S
C720 C120 1.470 . S
C87 C768 1.737 . S
C106 C816 1.425 . S
C134 C810 1.475 . S
C143 C714 1.495 . S
C762 C157 1.708 . S
C162 C618 1.766 . S
C129 C666 1.820 . S
C576 C148 1.900 . S
C858 C176 1.450 . S
C185 C912 1.466 . S
C199 C960 1.744 . S
C1008 C204 1.792 . S
C1056 C171 1.831 . S
C190 C1098 1.948 . S
C218 C1104 1.848 . S
C227 C1002 1.791 . S
C1050 C241 1.795 . S
C906 C246 1.468 . S
C954 C213 1.719 . S
C232 C864 1.424 . S
