# Generated by pormake.
# Topology zzz, (3,6)-cn, num edge types: 1
# Building blocks:
#     Node 0, Type 0, BuildingBlock: BETDIP_clean_linker_0, # of connection points: 3
#     Node 1, Type 0, BuildingBlock: BETDIP_clean_linker_0, # of connection points: 3
#     Node 2, Type 0, BuildingBlock: BETDIP_clean_linker_0, # of connection points: 3
#     Node 3, Type 0, BuildingBlock: BETDIP_clean_linker_0, # of connection points: 3
#     Node 4, Type 0, BuildingBlock: BETDIP_clean_linker_0, # of connection points: 3
#     Node 5, Type 0, BuildingBlock: BETDIP_clean_linker_0, # of connection points: 3
#     Node 6, Type 0, BuildingBlock: BETDIP_clean_linker_0, # of connection points: 3
#     Node 7, Type 0, BuildingBlock: BETDIP_clean_linker_0, # of connection points: 3
#     Node 8, Type 1, BuildingBlock: PAMTUU_clean_sbu_0, # of connection points: 6
#     Node 9, Type 1, BuildingBlock: PAMTUU_clean_sbu_0, # of connection points: 6
#     Node 10, Type 1, BuildingBlock: PAMTUU_clean_sbu_0, # of connection points: 6
#     Node 11, Type 1, BuildingBlock: PAMTUU_clean_sbu_0, # of connection points: 6
#     Edge 12, Type (0, 1), BuildingBlock: XUDNAN_clean_linker_2, # of connection points: 2
#     Edge 13, Type (0, 1), BuildingBlock: XUDNAN_clean_linker_2, # of connection points: 2
#     Edge 14, Type (0, 1), BuildingBlock: XUDNAN_clean_linker_2, # of connection points: 2
#     Edge 15, Type (0, 1), BuildingBlock: XUDNAN_clean_linker_2, # of connection points: 2
#     Edge 16, Type (0, 1), BuildingBlock: XUDNAN_clean_linker_2, # of connection points: 2
#     Edge 17, Type (0, 1), BuildingBlock: XUDNAN_clean_linker_2, # of connection points: 2
#     Edge 18, Type (0, 1), BuildingBlock: XUDNAN_clean_linker_2, # of connection points: 2
#     Edge 19, Type (0, 1), BuildingBlock: XUDNAN_clean_linker_2, # of connection points: 2
#     Edge 20, Type (0, 1), BuildingBlock: XUDNAN_clean_linker_2, # of connection points: 2
#     Edge 21, Type (0, 1), BuildingBlock: XUDNAN_clean_linker_2, # of connection points: 2
#     Edge 22, Type (0, 1), BuildingBlock: XUDNAN_clean_linker_2, # of connection points: 2
#     Edge 23, Type (0, 1), BuildingBlock: XUDNAN_clean_linker_2, # of connection points: 2
#     Edge 24, Type (0, 1), BuildingBlock: XUDNAN_clean_linker_2, # of connection points: 2
#     Edge 25, Type (0, 1), BuildingBlock: XUDNAN_clean_linker_2, # of connection points: 2
#     Edge 26, Type (0, 1), BuildingBlock: XUDNAN_clean_linker_2, # of connection points: 2
#     Edge 27, Type (0, 1), BuildingBlock: XUDNAN_clean_linker_2, # of connection points: 2
#     Edge 28, Type (0, 1), BuildingBlock: XUDNAN_clean_linker_2, # of connection points: 2
#     Edge 29, Type (0, 1), BuildingBlock: XUDNAN_clean_linker_2, # of connection points: 2
#     Edge 30, Type (0, 1), BuildingBlock: XUDNAN_clean_linker_2, # of connection points: 2
#     Edge 31, Type (0, 1), BuildingBlock: XUDNAN_clean_linker_2, # of connection points: 2
#     Edge 32, Type (0, 1), BuildingBlock: XUDNAN_clean_linker_2, # of connection points: 2
#     Edge 33, Type (0, 1), BuildingBlock: XUDNAN_clean_linker_2, # of connection points: 2
#     Edge 34, Type (0, 1), BuildingBlock: XUDNAN_clean_linker_2, # of connection points: 2
#     Edge 35, Type (0, 1), BuildingBlock: XUDNAN_clean_linker_2, # of connection points: 2
# Relax obj value: 0.215
# Max RMSD: 0.224
# Mean RMSD: 0.119
data_MOF--net-zzz--node1-PAMTUU_clean_sbu_0--node2-BETDIP_clean_linker_0--edge1-XUDNAN_clean_linker_2
_symmetry_space_group_name_H-M    P1
_symmetry_Int_Tables_number       1
_symmetry_cell_setting            triclinic
loop_
_symmetry_equiv_pos_as_xyz
'x, y, z'
_cell_length_a     50.549777
_cell_length_b     54.709203
_cell_length_c     15.484215
_cell_angle_alpha  100.9879
_cell_angle_beta   90.043185
_cell_angle_gamma 90.944062
loop_
_atom_site_label
_atom_site_type_symbol
_atom_site_fract_x
_atom_site_fract_y
_atom_site_fract_z
_atom_type_partial_charge
H0 H 0.77837 0.52474 0.50345 0.0
H1 H 0.75915 0.47423 0.26092 0.0
H2 H 0.82946 0.46361 0.40306 0.0
H3 H 0.75066 0.5209 0.23858 0.0
C4 C 0.7351 0.51938 0.28583 0.0
C5 C 0.78279 0.50833 0.4548 0.0
C6 C 0.80636 0.49514 0.46199 0.0
C7 C 0.76578 0.50102 0.38117 0.0
C8 C 0.77197 0.47998 0.31755 0.0
C9 C 0.79449 0.4662 0.32651 0.0
C10 C 0.81148 0.47386 0.39836 0.0
N11 N 0.74254 0.51464 0.37016 0.0
H12 H 0.98989 0.77131 0.51975 0.0
H13 H 0.03933 0.75536 0.2901 0.0
H14 H 0.03647 0.82967 0.44291 0.0
H15 H 0.99467 0.73433 0.24755 0.0
C16 C 0.99746 0.7233 0.29824 0.0
C17 C 1.00437 0.77734 0.47632 0.0
C18 C 1.01322 0.80219 0.49121 0.0
C19 C 1.01349 0.76051 0.40289 0.0
C20 C 0.03201 0.76855 0.34578 0.0
C21 C 0.04088 0.79347 0.35998 0.0
C22 C 0.03122 0.81003 0.43309 0.0
N23 N 1.00346 0.73568 0.3854 0.0
H24 H 0.77803 0.02781 0.50396 0.0
H25 H 0.79419 0.96568 0.29429 0.0
H26 H 0.72309 0.96617 0.44493 0.0
H27 H 0.80773 1.0013 0.23508 0.0
C28 C 0.82221 0.00738 0.28701 0.0
C29 C 0.773 0.00938 0.46769 0.0
C30 C 0.74899 0.99752 0.48619 0.0
C31 C 0.78985 0.99774 0.39898 0.0
C32 C 0.78214 0.97444 0.349 0.0
C33 C 0.75801 0.96308 0.36441 0.0
C34 C 0.7424 0.9742 0.43555 0.0
N35 N 0.81358 0.00989 0.37651 0.0
H36 H 0.54444 0.79725 0.31767 0.0
H37 H 0.53666 0.76521 0.04044 0.0
H38 H 0.52986 0.71866 0.23229 0.0
H39 H 0.5698 0.79609 0.0427 0.0
C40 C 0.55846 0.81163 0.07737 0.0
C41 C 0.54055 0.78142 0.26528 0.0
C42 C 0.53698 0.75745 0.28506 0.0
C43 C 0.54041 0.78456 0.17659 0.0
C44 C 0.53645 0.76344 0.10891 0.0
C45 C 0.53229 0.73983 0.12945 0.0
C46 C 0.53213 0.73716 0.21703 0.0
N47 N 0.54498 0.80866 0.15572 0.0
H48 H 0.27786 0.51606 0.17287 0.0
H49 H 0.29781 0.46754 0.35115 0.0
H50 H 0.22401 0.45743 0.21294 0.0
H51 H 0.30784 0.51346 0.4255 0.0
C52 C 0.32332 0.51205 0.3761 0.0
C53 C 0.2733 0.49985 0.20114 0.0
C54 C 0.2483 0.48758 0.18497 0.0
C55 C 0.29155 0.4923 0.26029 0.0
C56 C 0.28471 0.47242 0.30188 0.0
C57 C 0.25994 0.46059 0.28816 0.0
C58 C 0.243 0.46694 0.22448 0.0
N59 N 0.31556 0.50598 0.2855 0.0
H60 H 0.05782 0.26878 0.12739 0.0
H61 H 1.0082 0.28367 0.35786 0.0
H62 H 1.02295 0.20841 0.23081 0.0
H63 H 0.9976 0.31706 0.28165 0.0
C64 C 1.01824 0.32303 0.28234 0.0
C65 C 0.04556 0.26222 0.17592 0.0
C66 C 0.04118 0.23661 0.17095 0.0
C67 C 0.03324 0.27938 0.24235 0.0
C68 C 1.01725 0.27064 0.3052 0.0
C69 C 1.01313 0.24504 0.30081 0.0
C70 C 1.02538 0.2283 0.23386 0.0
N71 N 0.03752 0.30533 0.24689 0.0
H72 H 0.27618 0.01778 0.18196 0.0
H73 H 0.25934 0.95827 0.32239 0.0
H74 H 0.33029 0.95723 0.17302 0.0
H75 H 0.21724 0.96602 0.29148 0.0
C76 C 0.21734 0.98618 0.31082 0.0
C77 C 0.28122 1.0001 0.19878 0.0
C78 C 0.30533 0.98845 0.16768 0.0
C79 C 0.26354 0.98868 0.25147 0.0
C80 C 0.2712 0.96639 0.27661 0.0
C81 C 0.29485 0.95488 0.24691 0.0
C82 C 0.31137 0.96569 0.1916 0.0
N83 N 0.23903 1.00013 0.28306 0.0
H84 H 0.50502 0.25247 0.40473 0.0
H85 H 0.55477 0.27307 0.63598 0.0
H86 H 0.54187 0.325 0.46643 0.0
H87 H 0.55645 0.23249 0.63398 0.0
C88 C 0.53888 0.22352 0.60126 0.0
C89 C 0.51801 0.2657 0.44617 0.0
C90 C 0.52186 0.2897 0.42744 0.0
C91 C 0.53032 0.25902 0.52025 0.0
C92 C 0.54628 0.27695 0.57604 0.0
C93 C 0.55076 0.30055 0.55517 0.0
C94 C 0.53881 0.30649 0.48083 0.0
N95 N 0.52512 0.23473 0.53859 0.0
Tb96 Tb 1.00552 0.028 0.77325 0.0
Tb97 Tb 0.04892 0.00976 0.90377 0.0
C98 C 0.98895 0.01818 0.95791 0.0
C99 C 0.97155 0.07011 0.65317 0.0
C100 C 0.96744 0.11802 0.61354 0.0
C101 C 0.94768 0.09979 0.58582 0.0
C102 C 0.9497 0.076 0.6058 0.0
C103 C 0.99136 0.08817 0.68057 0.0
C104 C 0.98936 0.11189 0.66075 0.0
C105 C 0.97309 0.04567 0.67833 0.0
O106 O 1.01817 0.06062 0.86785 0.0
O107 O 0.05915 0.04858 0.90518 0.0
O108 O 0.06494 1.00189 0.77007 0.0
O109 O 0.04489 0.03342 0.71952 0.0
O110 O 0.05966 0.0043 0.02983 0.0
O111 O 0.08653 0.99552 0.92167 0.0
O112 O 1.02526 0.97675 0.8532 0.0
O113 O 1.00589 0.98779 0.7313 0.0
O114 O 0.98269 0.0143 0.87406 0.0
O115 O 1.01381 0.02229 0.98312 0.0
C116 C 0.04218 0.06604 0.89872 0.0
O117 O 0.99311 0.03204 0.64709 0.0
O118 O 0.96981 0.04604 0.76193 0.0
C119 C 0.06427 0.01748 0.71529 0.0
C120 C 0.08512 0.96851 0.02206 0.0
C121 C 0.09155 0.92026 0.05674 0.0
C122 C 0.11116 0.93876 0.08257 0.0
C123 C 0.108 0.96274 0.06491 0.0
C124 C 0.06554 0.95009 0.99677 0.0
C125 C 0.06868 0.92626 0.01411 0.0
C126 C 0.08163 0.99348 1.00238 0.0
C127 C 1.0121 0.97115 0.77871 0.0
H128 H 0.93058 0.104 0.54941 0.0
H129 H 0.93415 0.06228 0.58489 0.0
H130 H 1.00834 0.08392 0.71748 0.0
H131 H 1.00523 0.1253 0.68106 0.0
H132 H 0.12889 0.93465 0.11606 0.0
H133 H 0.12333 0.97676 0.0848 0.0
H134 H 0.04764 0.9542 0.96445 0.0
H135 H 0.05283 0.91269 0.99623 0.0
Tb136 Tb 0.51317 1.00118 0.72835 0.0
Tb137 Tb 0.53665 0.02696 0.91651 0.0
C138 C 0.53275 0.96892 0.86185 0.0
C139 C 0.47719 0.95626 0.55927 0.0
C140 C 0.43747 0.91973 0.50971 0.0
C141 C 0.45286 0.92838 0.44554 0.0
C142 C 0.47252 0.94657 0.47027 0.0
C143 C 0.46358 0.94618 0.6237 0.0
C144 C 0.44381 0.92802 0.59906 0.0
C145 C 0.49429 0.97834 0.5841 0.0
O146 O 0.48211 0.99873 0.82614 0.0
O147 O 0.49422 0.03412 0.92176 0.0
O148 O 0.53361 0.05867 0.84963 0.0
O149 O 0.50702 0.04067 0.73281 0.0
O150 O 0.53336 0.03344 0.05431 0.0
O151 O 0.56763 0.04638 0.99215 0.0
O152 O 0.56988 0.01179 0.83255 0.0
O153 O 0.55174 0.0172 0.7036 0.0
O154 O 0.53226 0.97155 0.77959 0.0
O155 O 0.52906 0.98806 0.92528 0.0
C156 C 0.47614 0.01712 0.89095 0.0
O157 O 0.48318 0.9974 0.63321 0.0
O158 O 0.51784 0.97453 0.61239 0.0
C159 C 0.519 0.06025 0.78033 0.0
C160 C 0.57546 0.02401 0.10376 0.0
C161 C 0.61275 0.98824 0.1289 0.0
C162 C 0.62037 0.01343 0.13549 0.0
C163 C 0.60191 0.03112 0.12259 0.0
C164 C 0.56747 0.99924 0.10435 0.0
C165 C 0.58595 0.98153 0.11631 0.0
C166 C 0.5582 0.04028 0.06368 0.0
C167 C 0.57278 0.01534 0.75152 0.0
H168 H 0.44828 0.92271 0.3762 0.0
H169 H 0.48298 0.95411 0.41987 0.0
H170 H 0.4672 0.95336 0.69295 0.0
H171 H 0.43235 0.92166 0.64984 0.0
H172 H 0.6408 0.01935 0.14792 0.0
H173 H 0.60859 0.05001 0.12201 0.0
H174 H 0.54721 0.99308 0.09008 0.0
H175 H 0.57947 0.96236 0.11102 0.0
Tb176 Tb 0.50883 0.50664 0.90127 0.0
Tb177 Tb 0.54848 0.52972 0.76491 0.0
C178 C 0.4894 0.5147 0.71673 0.0
C179 C 0.48033 0.46115 0.02752 0.0
C180 C 0.48284 0.41495 0.08575 0.0
C181 C 0.48819 0.43766 0.14384 0.0
C182 C 0.4868 0.46041 0.11522 0.0
C183 C 0.47492 0.4385 0.96932 0.0
C184 C 0.47612 0.41576 0.99806 0.0
C185 C 0.47933 0.48543 0.9976 0.0
O186 O 0.52507 0.47543 0.80967 0.0
O187 O 0.56203 0.49164 0.75088 0.0
O188 O 0.57089 0.53134 0.8878 0.0
O189 O 0.54852 0.50173 0.94832 0.0
O190 O 0.55818 0.53638 0.63846 0.0
O191 O 0.57855 0.55581 0.75374 0.0
O192 O 0.51936 0.55642 0.82168 0.0
O193 O 0.51514 0.5462 0.95584 0.0
O194 O 0.48384 0.51837 0.80132 0.0
O195 O 0.51409 0.51268 0.68974 0.0
C196 C 0.54797 0.47269 0.76861 0.0
O197 O 0.49746 0.50207 0.02838 0.0
O198 O 0.47518 0.48461 0.91401 0.0
C199 C 0.56921 0.51641 0.94533 0.0
C200 C 0.56828 0.57934 0.64602 0.0
C201 C 0.55853 0.62668 0.60329 0.0
C202 C 0.57394 0.60894 0.5478 0.0
C203 C 0.57886 0.58559 0.56923 0.0
C204 C 0.55262 0.5968 0.70065 0.0
C205 C 0.54805 0.6202 0.68029 0.0
C206 C 0.57394 0.55501 0.67053 0.0
C207 C 0.51632 0.5631 0.9063 0.0
H208 H 0.49393 0.43793 0.21138 0.0
H209 H 0.49106 0.47749 0.16172 0.0
H210 H 0.46974 0.43826 0.90128 0.0
H211 H 0.47151 0.39882 0.95141 0.0
H212 H 0.58198 0.6129 0.48706 0.0
H213 H 0.59089 0.57241 0.52572 0.0
H214 H 0.54401 0.59244 0.75974 0.0
H215 H 0.53649 0.63327 0.72579 0.0
Tb216 Tb 0.03292 0.52994 0.78833 0.0
Tb217 Tb 1.01551 0.49469 0.92645 0.0
C218 C 1.01478 0.55254 0.9781 0.0
C219 C 0.07593 0.54697 0.63048 0.0
C220 C 0.11952 0.51696 0.572 0.0
C221 C 0.09796 0.51808 0.51542 0.0
C222 C 0.07635 0.53301 0.5444 0.0
C223 C 0.09902 0.54852 0.68205 0.0
C224 C 0.12051 0.53355 0.6533 0.0
C225 C 0.05019 0.55261 0.67402 0.0
O226 O 0.06859 0.52921 0.86758 0.0
O227 O 0.05861 0.49723 0.9404 0.0
O228 O 1.01403 0.4733 0.79297 0.0
O229 O 0.04875 0.49318 0.74402 0.0
O230 O 0.99383 0.48726 0.03421 0.0
O231 O 1.02002 0.45988 0.96204 0.0
O232 O 0.97786 0.50643 0.87874 0.0
O233 O 0.99219 0.51829 0.75171 0.0
O234 O 1.01235 0.55356 0.89444 0.0
O235 O 1.02167 0.53195 1.00348 0.0
C236 C 0.07549 0.51346 0.91778 0.0
O237 O 0.03294 0.53431 0.65674 0.0
O238 O 0.05089 0.56224 0.75809 0.0
C239 C 0.03348 0.47348 0.73752 0.0
C240 C 0.98001 0.44557 0.01196 0.0
C241 C 0.93351 0.41643 0.00552 0.0
C242 C 0.9417 0.42585 0.93131 0.0
C243 C 0.96475 0.44042 0.93465 0.0
C244 C 0.97313 0.43461 0.08345 0.0
C245 C 0.95007 0.42009 0.08029 0.0
C246 C 1.00145 0.46417 0.02112 0.0
C247 C 0.97299 0.51236 0.80176 0.0
H248 H 0.09709 0.50645 0.4505 0.0
H249 H 0.05894 0.53168 0.50281 0.0
H250 H 0.0996 0.55933 0.74837 0.0
H251 H 0.13696 0.53367 0.69809 0.0
H252 H 0.92942 0.42327 0.87279 0.0
H253 H 0.96993 0.44874 0.87863 0.0
H254 H 0.98475 0.43843 0.1435 0.0
H255 H 0.94418 0.41349 0.13918 0.0
H256 H 0.18469 0.96144 0.40465 0.0
H257 H 0.2 0.03519 0.35057 0.0
H258 H 0.16181 0.05115 0.44493 0.0
H259 H 0.11378 0.96335 0.40861 0.0
H260 H 0.11059 0.94668 0.49798 0.0
H261 H 0.13852 0.9413 0.42509 0.0
H262 H 0.17053 0.95216 0.55808 0.0
H263 H 0.14271 0.95743 0.63148 0.0
H264 H 0.16756 0.98153 0.63308 0.0
H265 H 0.11982 0.0582 0.54231 0.0
H266 H 0.082 0.05685 0.64309 0.0
H267 H 0.0967 0.97893 0.64147 0.0
C268 C 0.18004 0.981 0.41268 0.0
C269 C 0.19531 0.99706 0.36977 0.0
C270 C 0.18868 0.02254 0.38268 0.0
C271 C 0.16692 0.0317 0.43598 0.0
C272 C 0.15218 0.01524 0.47698 0.0
C273 C 0.15879 0.99045 0.46667 0.0
C274 C 0.14058 0.97663 0.51984 0.0
C275 C 0.12495 0.95576 0.45926 0.0
C276 C 0.15628 0.96634 0.58977 0.0
C277 C 0.12252 0.99743 0.56197 0.0
C278 C 0.12923 0.0195 0.53552 0.0
C279 C 0.11468 0.04103 0.56376 0.0
C280 C 0.0931 0.04006 0.62086 0.0
C281 C 0.08636 0.01784 0.65095 0.0
C282 C 0.10141 0.99629 0.62061 0.0
H283 H 0.56278 0.19731 0.71257 0.0
H284 H 0.49649 0.19373 0.53223 0.0
H285 H 0.48348 0.15257 0.56361 0.0
H286 H 0.57926 0.13261 0.65697 0.0
H287 H 0.58791 0.13007 0.76781 0.0
H288 H 0.59165 0.15951 0.73296 0.0
H289 H 0.56206 0.18024 0.86195 0.0
H290 H 0.55817 0.15082 0.89703 0.0
H291 H 0.52941 0.16759 0.87401 0.0
H292 H 0.47834 0.11131 0.61128 0.0
H293 H 0.48146 0.07271 0.67022 0.0
H294 H 0.55088 0.10267 0.82198 0.0
C295 C 0.54547 0.18786 0.67995 0.0
C296 C 0.53065 0.19877 0.61991 0.0
C297 C 0.50817 0.18582 0.57839 0.0
C298 C 0.5006 0.16241 0.59595 0.0
C299 C 0.51565 0.15218 0.65539 0.0
C300 C 0.53762 0.16446 0.69683 0.0
C301 C 0.55062 0.1491 0.75673 0.0
C302 C 0.57904 0.14243 0.7268 0.0
C303 C 0.55002 0.16276 0.85315 0.0
C304 C 0.53261 0.12617 0.74217 0.0
C305 C 0.51256 0.12841 0.6835 0.0
C306 C 0.49389 0.10943 0.65756 0.0
C307 C 0.49587 0.0875 0.6915 0.0
C308 C 0.51635 0.08456 0.75124 0.0
C309 C 0.53479 0.10439 0.77746 0.0
H310 H 0.3399 0.51942 0.54567 0.0
H311 H 0.36976 0.50585 0.27878 0.0
H312 H 0.41555 0.50528 0.33666 0.0
H313 H 0.3936 0.55976 0.64536 0.0
H314 H 0.39322 0.54751 0.7455 0.0
H315 H 0.36325 0.54745 0.68246 0.0
H316 H 0.35782 0.49989 0.67396 0.0
H317 H 0.38782 0.49977 0.73663 0.0
H318 H 0.38438 0.47963 0.63048 0.0
H319 H 0.45834 0.50551 0.42619 0.0
H320 H 0.49385 0.50692 0.53666 0.0
H321 H 0.43555 0.52001 0.74534 0.0
C322 C 0.35612 0.51652 0.49933 0.0
C323 C 0.35127 0.51281 0.40764 0.0
C324 C 0.37297 0.50887 0.34918 0.0
C325 C 0.39904 0.50847 0.38163 0.0
C326 C 0.40307 0.51202 0.47265 0.0
C327 C 0.38212 0.51603 0.53056 0.0
C328 C 0.39152 0.51898 0.62525 0.0
C329 C 0.38501 0.54497 0.67772 0.0
C330 C 0.37968 0.49834 0.66914 0.0
C331 C 0.4211 0.51599 0.61207 0.0
C332 C 0.4274 0.51201 0.52361 0.0
C333 C 0.45352 0.50866 0.49548 0.0
C334 C 0.47362 0.50947 0.55903 0.0
C335 C 0.46768 0.51357 0.65024 0.0
C336 C 0.44092 0.51682 0.67647 0.0
H337 H 0.98736 0.3518 0.40082 0.0
H338 H 0.06632 0.34801 0.29058 0.0
H339 H 0.07871 0.38728 0.39231 0.0
H340 H 0.981 0.41923 0.44083 0.0
H341 H 0.96363 0.42009 0.54296 0.0
H342 H 0.96068 0.39304 0.45643 0.0
H343 H 0.9762 0.36521 0.56429 0.0
H344 H 0.97936 0.39218 0.65092 0.0
H345 H 1.00727 0.37225 0.62161 0.0
H346 H 0.08221 0.42697 0.50873 0.0
H347 H 0.07727 0.46223 0.63393 0.0
H348 H 0.9968 0.43764 0.67233 0.0
C349 C 1.00714 0.35947 0.39729 0.0
C350 C 1.02584 0.34713 0.33776 0.0
C351 C 0.05169 0.35733 0.33575 0.0
C352 C 0.05886 0.3796 0.3931 0.0
C353 C 0.03998 0.39115 0.45219 0.0
C354 C 1.01468 0.38133 0.45478 0.0
C355 C 0.99848 0.39638 0.52747 0.0
C356 C 0.97454 0.40787 0.48964 0.0
C357 C 0.98983 0.38056 0.59506 0.0
C358 C 1.01865 0.41612 0.56615 0.0
C359 C 0.04237 0.41307 0.52124 0.0
C360 C 0.06376 0.42944 0.54454 0.0
C361 C 0.06079 0.44936 0.6157 0.0
C362 C 0.03676 0.45244 0.66334 0.0
C363 C 1.01552 0.43556 0.63795 0.0
H364 H 0.83972 0.00357 0.11978 0.0
H365 H 0.86765 0.02032 0.38952 0.0
H366 H 0.91348 0.02525 0.33606 0.0
H367 H 0.89495 0.96775 0.02878 0.0
H368 H 0.8946 0.97918 0.92706 0.0
H369 H 0.86439 0.97769 0.98747 0.0
H370 H 0.85717 0.02468 0.99175 0.0
H371 H 0.88733 0.02629 0.93107 0.0
H372 H 0.88285 0.04686 0.03553 0.0
H373 H 0.95722 0.02736 0.2485 0.0
H374 H 0.99311 0.02721 0.13945 0.0
H375 H 0.93554 0.00908 0.92809 0.0
C376 C 0.85545 0.00843 0.16783 0.0
C377 C 0.85002 0.01164 0.259 0.0
C378 C 0.87122 0.01787 0.31949 0.0
C379 C 0.89735 0.02065 0.28949 0.0
C380 C 0.90199 0.01717 0.19876 0.0
C381 C 0.88147 0.01127 0.13904 0.0
C382 C 0.89135 0.00827 0.04508 0.0
C383 C 0.886 0.98164 0.99413 0.0
C384 C 0.87894 0.02768 0.99812 0.0
C385 C 0.92073 0.01331 0.06051 0.0
C386 C 0.92662 0.01841 0.14946 0.0
C387 C 0.95265 0.02343 0.17889 0.0
C388 C 0.97299 0.02328 0.11623 0.0
C389 C 0.96738 0.01817 0.02462 0.0
C390 C 0.94074 0.01312 0.99725 0.0
H391 H 0.53724 0.85872 0.14362 0.0
H392 H 0.57569 0.8149 0.91655 0.0
H393 H 0.57334 0.85012 0.8392 0.0
H394 H 0.49277 0.89141 0.02315 0.0
H395 H 0.49578 0.92081 0.09853 0.0
H396 H 0.50011 0.89214 0.1376 0.0
H397 H 0.54624 0.90757 0.19943 0.0
H398 H 0.54208 0.93628 0.16057 0.0
H399 H 0.57055 0.91734 0.12743 0.0
H400 H 0.56573 0.88866 0.78302 0.0
H401 H 0.55538 0.93001 0.75311 0.0
H402 H 0.52357 0.95133 0.01677 0.0
C403 C 0.54512 0.85663 0.07769 0.0
C404 C 0.55658 0.83396 0.03583 0.0
C405 C 0.56683 0.83203 0.9498 0.0
C406 C 0.56557 0.85194 0.90518 0.0
C407 C 0.5542 0.87396 0.94757 0.0
C408 C 0.54431 0.87664 0.03203 0.0
C409 C 0.53355 0.90275 0.06184 0.0
C410 C 0.50378 0.9017 0.08143 0.0
C411 C 0.54904 0.91682 0.14206 0.0
C412 C 0.53877 0.91404 0.9806 0.0
C413 C 0.55056 0.89691 0.9156 0.0
C414 C 0.55665 0.90233 0.83353 0.0
C415 C 0.55057 0.92591 0.81705 0.0
C416 C 0.5387 0.94405 0.8824 0.0
C417 C 0.53284 0.93798 0.9656 0.0
H418 H 0.71758 0.5336 0.13704 0.0
H419 H 0.6896 0.50511 0.36387 0.0
H420 H 0.64403 0.50213 0.30285 0.0
H421 H 0.65918 0.57089 0.11392 0.0
H422 H 0.66053 0.56436 0.99545 0.0
H423 H 0.69051 0.56507 0.05894 0.0
H424 H 0.70108 0.52048 0.9771 0.0
H425 H 0.67107 0.51956 0.91382 0.0
H426 H 0.67709 0.49572 0.97697 0.0
H427 H 0.602 0.49936 0.21035 0.0
H428 H 0.5665 0.49999 0.10138 0.0
H429 H 0.62139 0.53224 0.93718 0.0
C430 C 0.70176 0.52705 0.17445 0.0
C431 C 0.70713 0.51967 0.25546 0.0
C432 C 0.68597 0.51105 0.30218 0.0
C433 C 0.66003 0.50922 0.26772 0.0
C434 C 0.6555 0.51633 0.18695 0.0
C435 C 0.67576 0.5254 0.14151 0.0
C436 C 0.66575 0.53167 0.05585 0.0
C437 C 0.6692 0.55966 0.05609 0.0
C438 C 0.67957 0.51592 0.97625 0.0
C439 C 0.63673 0.52436 0.0592 0.0
C440 C 0.63126 0.51544 0.1352 0.0
C441 C 0.60608 0.50657 0.15123 0.0
C442 C 0.58602 0.50692 0.08852 0.0
C443 C 0.59099 0.51628 0.01054 0.0
C444 C 0.61678 0.52521 0.99634 0.0
H445 H 0.98783 0.69666 0.13587 0.0
H446 H 1.00759 0.68841 0.40122 0.0
H447 H 1.01111 0.64283 0.35021 0.0
H448 H 0.94933 0.63808 0.07462 0.0
H449 H 0.96157 0.63262 0.96341 0.0
H450 H 0.95807 0.66403 0.02334 0.0
H451 H 1.00745 0.67321 0.99481 0.0
H452 H 1.01115 0.64186 0.93537 0.0
H453 H 0.03249 0.65371 0.02769 0.0
H454 H 1.01594 0.59844 0.26622 0.0
H455 H 1.0213 0.55937 0.15765 0.0
H456 H 0.99835 0.59757 0.94849 0.0
C457 C 0.99243 0.68517 0.18349 0.0
C458 C 0.99733 0.69591 0.27227 0.0
C459 C 1.00362 0.68046 0.33282 0.0
C460 C 1.00564 0.65459 0.30445 0.0
C461 C 1.00115 0.64459 0.21571 0.0
C462 C 0.99449 0.65945 0.15636 0.0
C463 C 0.99206 0.64452 0.06385 0.0
C464 C 0.96356 0.64483 0.0293 0.0
C465 C 1.01198 0.65388 1.00183 0.0
C466 C 0.99909 0.61902 0.07977 0.0
C467 C 1.00402 0.61929 0.16776 0.0
C468 C 1.01187 0.59798 0.1973 0.0
C469 C 1.0149 0.57588 0.13511 0.0
C470 C 1.01025 0.57537 0.04449 0.0
C471 C 1.002 0.59724 0.01717 0.0
H472 H 0.97793 0.20608 0.27129 0.0
H473 H 1.01389 0.26057 0.48018 0.0
H474 H 0.99636 0.2372 0.5898 0.0
H475 H 0.9199 0.18609 0.40141 0.0
H476 H 0.92372 0.15413 0.3473 0.0
H477 H 0.93125 0.17898 0.2892 0.0
H478 H 0.97813 0.16132 0.2553 0.0
H479 H 0.97099 0.13671 0.31386 0.0
H480 H 0.99924 0.15703 0.34495 0.0
H481 H 0.98413 0.2037 0.67166 0.0
H482 H 0.97858 0.16328 0.71834 0.0
H483 H 0.95421 0.12895 0.45415 0.0
C484 C 0.98134 0.21354 0.34042 0.0
C485 C 0.99728 0.23509 0.36735 0.0
C486 C 1.00139 0.24431 0.45818 0.0
C487 C 0.99155 0.23108 0.52087 0.0
C488 C 0.97752 0.20885 0.4915 0.0
C489 C 0.97218 0.20028 0.40322 0.0
C490 C 0.96106 0.17393 0.38653 0.0
C491 C 0.93227 0.17325 0.35422 0.0
C492 C 0.9784 0.15623 0.32141 0.0
C493 C 0.96259 0.16836 0.47831 0.0
C494 C 0.97132 0.18898 0.53841 0.0
C495 C 0.97681 0.18761 0.62552 0.0
C496 C 0.97392 0.16452 0.65124 0.0
C497 C 0.96613 0.14298 0.58978 0.0
C498 C 0.95964 0.14519 0.50301 0.0
H499 H 0.30054 0.95375 0.41899 0.0
H500 H 0.31425 0.91071 0.15916 0.0
H501 H 0.34478 0.88397 0.22145 0.0
H502 H 0.35909 0.96309 0.47573 0.0
H503 H 0.35769 0.96074 0.59032 0.0
H504 H 0.32852 0.96798 0.53629 0.0
H505 H 0.30401 0.93021 0.57953 0.0
H506 H 0.33351 0.92286 0.63443 0.0
H507 H 0.31787 0.89959 0.5511 0.0
H508 H 0.3839 0.87339 0.29579 0.0
H509 H 0.42703 0.88141 0.37042 0.0
H510 H 0.39002 0.93123 0.58522 0.0
C511 C 0.30866 0.93759 0.37662 0.0
C512 C 0.305 0.93402 0.28489 0.0
C513 C 0.31668 0.91348 0.2299 0.0
C514 C 0.33395 0.89813 0.26503 0.0
C515 C 0.33924 0.90352 0.35528 0.0
C516 C 0.32642 0.92252 0.41095 0.0
C517 C 0.33992 0.92865 0.50006 0.0
C518 C 0.34674 0.95674 0.52688 0.0
C519 C 0.32281 0.91978 0.57042 0.0
C520 C 0.36441 0.91296 0.48134 0.0
C521 C 0.36289 0.89744 0.3995 0.0
C522 C 0.38498 0.88478 0.36104 0.0
C523 C 0.40951 0.88951 0.40368 0.0
C524 C 0.41178 0.90701 0.48338 0.0
C525 C 0.38866 0.9173 0.52548 0.0
H526 H 0.53245 0.32725 0.70667 0.0
H527 H 0.59795 0.32176 0.52534 0.0
H528 H 0.60952 0.36601 0.58021 0.0
H529 H 0.50939 0.37859 0.66896 0.0
H530 H 0.49955 0.39328 0.77824 0.0
H531 H 0.5018 0.36004 0.75068 0.0
H532 H 0.53492 0.35975 0.87822 0.0
H533 H 0.53185 0.39312 0.90894 0.0
H534 H 0.56401 0.37957 0.88819 0.0
H535 H 0.60619 0.41247 0.62421 0.0
H536 H 0.59128 0.45602 0.66646 0.0
H537 H 0.52723 0.43097 0.81668 0.0
C538 C 0.5504 0.33496 0.68375 0.0
C539 C 0.56479 0.32108 0.61387 0.0
C540 C 0.58729 0.33199 0.58103 0.0
C541 C 0.59379 0.3572 0.61123 0.0
C542 C 0.57776 0.3711 0.67496 0.0
C543 C 0.55695 0.36017 0.71285 0.0
C544 C 0.54028 0.37967 0.76957 0.0
C545 C 0.51106 0.37777 0.73996 0.0
C546 C 0.54292 0.37793 0.86705 0.0
C547 C 0.55353 0.40316 0.75162 0.0
C548 C 0.57552 0.39798 0.69889 0.0
C549 C 0.58942 0.41677 0.66753 0.0
C550 C 0.58069 0.44143 0.69119 0.0
C551 C 0.55801 0.44698 0.74447 0.0
C552 C 0.54463 0.42749 0.77571 0.0
H553 H 0.26247 0.47914 0.46114 0.0
H554 H 0.22779 0.4186 0.27303 0.0
H555 H 0.18821 0.4195 0.36527 0.0
H556 H 0.21835 0.46986 0.67024 0.0
H557 H 0.21697 0.50331 0.69959 0.0
H558 H 0.24693 0.48862 0.65442 0.0
H559 H 0.24621 0.51586 0.53545 0.0
H560 H 0.21594 0.52975 0.57625 0.0
H561 H 0.21793 0.51403 0.463 0.0
H562 H 0.14784 0.43839 0.43222 0.0
H563 H 0.11311 0.46888 0.48035 0.0
H564 H 0.17244 0.52122 0.61169 0.0
C565 C 0.24743 0.46478 0.44307 0.0
C566 C 0.24766 0.44942 0.35888 0.0
C567 C 0.22777 0.43079 0.33699 0.0
C568 C 0.20505 0.43135 0.38906 0.0
C569 C 0.20304 0.45024 0.46335 0.0
C570 C 0.22424 0.46614 0.49252 0.0
C571 C 0.21537 0.48881 0.55782 0.0
C572 C 0.22496 0.48756 0.65105 0.0
C573 C 0.22436 0.5135 0.53131 0.0
C574 C 0.18576 0.48505 0.55042 0.0
C575 C 0.17902 0.46213 0.49982 0.0
C576 C 0.15291 0.45603 0.47412 0.0
C577 C 0.13336 0.47377 0.50004 0.0
C578 C 0.14006 0.49769 0.54902 0.0
C579 C 0.16654 0.503 0.57596 0.0
H580 H 0.07858 0.83093 0.39244 0.0
H581 H 0.0403 0.77928 0.17953 0.0
H582 H 0.06008 0.80208 0.07286 0.0
H583 H 0.05967 0.88141 0.32057 0.0
H584 H 0.08865 0.90055 0.35397 0.0
H585 H 0.07995 0.87587 0.41051 0.0
H586 H 0.12628 0.85674 0.37752 0.0
H587 H 0.13515 0.88161 0.32097 0.0
H588 H 0.13792 0.84964 0.26565 0.0
H589 H 0.07482 0.83489 0.99311 0.0
H590 H 0.08133 0.87549 0.94866 0.0
H591 H 0.10544 0.90853 0.21443 0.0
C592 C 0.07487 0.82397 0.32319 0.0
C593 C 0.05775 0.80326 0.29485 0.0
C594 C 0.05369 0.79473 0.20344 0.0
C595 C 0.06483 0.80768 0.14205 0.0
C596 C 0.07996 0.82912 0.1729 0.0
C597 C 0.08509 0.83717 0.26154 0.0
C598 C 0.09725 0.86317 0.2797 0.0
C599 C 0.08036 0.8813 0.34494 0.0
C600 C 0.12586 0.86275 0.3129 0.0
C601 C 0.09648 0.86915 0.18827 0.0
C602 C 0.08739 0.84892 0.12712 0.0
C603 C 0.08241 0.85068 0.04005 0.0
C604 C 0.0859 0.87386 0.01557 0.0
C605 C 0.09371 0.89511 0.0783 0.0
C606 C 0.10001 0.89247 0.16479 0.0
H607 H 0.75589 0.96501 0.19226 0.0
H608 H 0.72887 0.92121 0.38023 0.0
H609 H 0.68822 0.91012 0.29418 0.0
H610 H 0.70983 0.99625 0.18779 0.0
H611 H 0.70521 0.99825 0.07383 0.0
H612 H 0.73685 0.99058 0.11062 0.0
H613 H 0.7373 0.94969 0.99579 0.0
H614 H 0.70573 0.95765 0.95526 0.0
H615 H 0.70977 0.92803 0.98802 0.0
H616 H 0.64586 0.92207 0.24364 0.0
H617 H 0.6095 0.94887 0.21544 0.0
H618 H 0.66149 0.98483 0.05396 0.0
C619 C 0.74237 0.95142 0.21096 0.0
C620 C 0.74495 0.94462 0.29391 0.0
C621 C 0.72699 0.92691 0.31726 0.0
C622 C 0.70371 0.9206 0.26857 0.0
C623 C 0.69928 0.93146 0.19535 0.0
C624 C 0.71882 0.9455 0.16341 0.0
C625 C 0.70742 0.95991 0.09779 0.0
C626 C 0.71526 0.98787 0.11907 0.0
C627 C 0.71553 0.9481 1.00363 0.0
C628 C 0.67821 0.9557 0.1113 0.0
C629 C 0.67385 0.93818 0.16379 0.0
C630 C 0.64891 0.93491 0.19923 0.0
C631 C 0.62834 0.95039 0.18347 0.0
C632 C 0.63288 0.96911 0.13337 0.0
C633 C 0.65769 0.97078 0.09324 0.0
H634 H 0.49098 0.70741 0.08203 0.0
H635 H 0.57431 0.71948 0.0375 0.0
H636 H 0.57888 0.67477 0.97405 0.0
H637 H 0.4952 0.65335 0.15223 0.0
H638 H 0.46647 0.63753 0.09761 0.0
H639 H 0.46783 0.67101 0.12349 0.0
H640 H 0.46005 0.67363 0.96019 0.0
H641 H 0.45743 0.64013 0.93403 0.0
H642 H 0.48087 0.65632 0.87652 0.0
H643 H 0.57639 0.62855 0.94711 0.0
H644 H 0.56488 0.58372 0.9199 0.0
H645 H 0.48235 0.60104 0.97066 0.0
C646 C 0.50976 0.70078 0.05403 0.0
C647 C 0.53221 0.71678 0.06251 0.0
C648 C 0.55682 0.70753 0.02893 0.0
C649 C 0.55963 0.68214 0.99403 0.0
C650 C 0.53749 0.6665 0.99175 0.0
C651 C 0.51277 0.67554 0.0174 0.0
C652 C 0.4925 0.6545 0.01165 0.0
C653 C 0.47977 0.65409 0.10162 0.0
C654 C 0.47147 0.65625 0.9414 0.0
C655 C 0.50997 0.63219 0.98326 0.0
C656 C 0.53588 0.63962 0.97284 0.0
C657 C 0.55609 0.62253 0.95293 0.0
C658 C 0.54944 0.59716 0.93896 0.0
C659 C 0.52284 0.58916 0.94375 0.0
C660 C 0.50286 0.60682 0.96752 0.0
H661 H 0.8029 0.46889 0.15699 0.0
H662 H 0.80667 0.41874 0.34077 0.0
H663 H 0.83347 0.38987 0.23579 0.0
H664 H 0.81314 0.4175 0.93905 0.0
H665 H 0.83336 0.43973 0.89558 0.0
H666 H 0.80493 0.45003 0.96227 0.0
H667 H 0.83475 0.48156 0.06651 0.0
H668 H 0.86288 0.47144 1.00073 0.0
H669 H 0.86329 0.47044 0.11653 0.0
H670 H 0.87078 0.37516 0.14344 0.0
H671 H 0.9152 0.37772 0.08059 0.0
H672 H 0.88957 0.43751 0.95491 0.0
C673 C 0.80802 0.45101 0.17195 0.0
C674 C 0.80261 0.44572 0.25565 0.0
C675 C 0.81044 0.42282 0.27608 0.0
C676 C 0.82554 0.40628 0.21646 0.0
C677 C 0.83263 0.41293 0.13679 0.0
C678 C 0.82369 0.43467 0.11367 0.0
C679 C 0.83903 0.44081 0.03631 0.0
C680 C 0.82157 0.43676 0.95339 0.0
C681 C 0.8507 0.46759 0.05642 0.0
C682 C 0.86028 0.42131 0.028 0.0
C683 C 0.85534 0.40448 0.08272 0.0
C684 C 0.87445 0.38768 0.09832 0.0
C685 C 0.89974 0.38933 0.06273 0.0
C686 C 0.90577 0.4079 0.01326 0.0
C687 C 0.88527 0.42273 0.9906 0.0
H688 H 1.01267 0.20898 0.04171 0.0
H689 H 0.09158 0.2192 0.15151 0.0
H690 H 0.10312 0.17687 0.07332 0.0
H691 H 1.00404 0.15289 0.0873 0.0
H692 H 0.98421 0.13932 0.99299 0.0
H693 H 0.98445 0.17241 0.0316 0.0
H694 H 0.99948 0.18018 0.87872 0.0
H695 H 0.9979 0.14699 0.83926 0.0
H696 H 0.02792 0.16422 0.82663 0.0
H697 H 0.10236 0.13048 0.01072 0.0
H698 H 0.0906 0.0859 0.96107 0.0
H699 H 1.01108 0.10639 0.90031 0.0
C700 C 0.03289 0.20285 0.04413 0.0
C701 C 0.05156 0.21744 0.09982 0.0
C702 C 0.07741 0.20851 0.1064 0.0
C703 C 0.08396 0.1844 0.06299 0.0
C704 C 0.06436 0.16965 0.01371 0.0
C705 C 0.03943 0.17877 1.00301 0.0
C706 C 1.02045 0.15833 0.96077 0.0
C707 C 0.99693 0.15559 0.02183 0.0
C708 C 1.01091 0.16272 0.87095 0.0
C709 C 0.03829 0.13614 0.95087 0.0
C710 C 0.06361 0.14292 0.9809 0.0
C711 C 0.08276 0.12509 0.98518 0.0
C712 C 0.07584 0.09979 0.95744 0.0
C713 C 0.04992 0.0926 0.9266 0.0
C714 C 0.03114 0.11117 0.92274 0.0
H715 H 0.33486 0.96582 0.02546 0.0
H716 H 0.32457 0.03686 0.20078 0.0
H717 H 0.36555 0.05287 0.14167 0.0
H718 H 0.40282 0.96269 0.05265 0.0
H719 H 0.40999 0.94835 0.94058 0.0
H720 H 0.37803 0.94368 0.98647 0.0
H721 H 0.35523 0.96031 0.85995 0.0
H722 H 0.38715 0.96474 0.81294 0.0
H723 H 0.36481 0.99043 0.83822 0.0
H724 H 0.41119 0.05917 0.07669 0.0
H725 H 0.45489 0.05649 0.00479 0.0
H726 H 0.43584 0.98112 0.87118 0.0
C727 C 0.34081 0.985 0.04995 0.0
C728 C 0.32617 1.00011 0.11788 0.0
C729 C 0.33494 0.02501 0.14801 0.0
C730 C 0.35844 0.03418 0.11523 0.0
C731 C 0.37297 0.01837 0.05141 0.0
C732 C 0.3642 0.99439 0.01801 0.0
C733 C 0.38415 0.98061 0.95348 0.0
C734 C 0.39434 0.95747 0.98522 0.0
C735 C 0.37212 0.97361 0.86064 0.0
C736 C 0.40589 1.00033 0.95711 0.0
C737 C 0.39901 0.02201 0.01379 0.0
C738 C 0.41649 0.04238 0.03136 0.0
C739 C 0.44144 0.04062 0.99024 0.0
C740 C 0.44903 0.01866 0.93153 0.0
C741 C 0.43073 0.99832 0.91467 0.0
H742 H 0.4895 0.32914 0.44524 0.0
H743 H 0.52581 0.27275 0.24926 0.0
H744 H 0.51441 0.2967 0.13376 0.0
H745 H 0.43646 0.34866 0.3002 0.0
H746 H 0.4406 0.38078 0.35362 0.0
H747 H 0.44579 0.35631 0.4147 0.0
H748 H 0.49261 0.37448 0.45811 0.0
H749 H 0.48794 0.39858 0.3956 0.0
H750 H 0.51579 0.37822 0.37296 0.0
H751 H 0.50619 0.33074 0.04592 0.0
H752 H 0.50022 0.36997 0.99273 0.0
H753 H 0.4701 0.40449 0.24862 0.0
C754 C 0.49384 0.32126 0.37721 0.0
C755 C 0.50803 0.29888 0.35555 0.0
C756 C 0.51431 0.2895 0.2666 0.0
C757 C 0.50811 0.30313 0.2009 0.0
C758 C 0.4955 0.32598 0.22548 0.0
C759 C 0.48805 0.33473 0.31156 0.0
C760 C 0.47777 0.36103 0.32375 0.0
C761 C 0.44841 0.36173 0.34957 0.0
C762 C 0.49454 0.37912 0.39158 0.0
C763 C 0.48149 0.3662 0.2319 0.0
C764 C 0.49137 0.34568 0.17573 0.0
C765 C 0.49798 0.3467 0.08908 0.0
C766 C 0.49451 0.36918 0.05938 0.0
C767 C 0.48477 0.39061 0.11619 0.0
C768 C 0.47785 0.38872 0.20329 0.0
H769 H 0.19531 0.48919 0.22718 0.0
H770 H 0.25007 0.50766 0.0326 0.0
H771 H 0.21195 0.51874 0.94694 0.0
H772 H 0.14866 0.45778 0.07323 0.0
H773 H 0.1204 0.46771 0.14105 0.0
H774 H 0.15194 0.46451 0.19138 0.0
H775 H 0.15007 0.51015 0.27466 0.0
H776 H 0.11847 0.51358 0.22483 0.0
H777 H 0.14539 0.53477 0.2138 0.0
H778 H 0.16645 0.5263 0.88002 0.0
H779 H 0.11949 0.52773 0.83616 0.0
H780 H 0.0954 0.49936 0.06703 0.0
C781 C 0.19957 0.49535 0.16616 0.0
C782 C 0.22601 0.49707 0.13621 0.0
C783 C 0.23021 0.50619 0.05747 0.0
C784 C 0.20859 0.5124 0.00815 0.0
C785 C 0.18282 0.50937 0.03818 0.0
C786 C 0.17836 0.50096 0.1155 0.0
C787 C 0.14899 0.49762 0.13151 0.0
C788 C 0.1421 0.47028 0.13443 0.0
C789 C 0.14022 0.51508 0.21621 0.0
C790 C 0.13735 0.50525 0.05058 0.0
C791 C 0.15711 0.51241 0.9982 0.0
C792 C 0.15099 0.52064 0.92072 0.0
C793 C 0.12421 0.52142 0.89619 0.0
C794 C 0.10368 0.5135 0.9474 0.0
C795 C 0.11054 0.50533 0.02579 0.0
H796 H 0.03988 0.82841 0.6303 0.0
H797 H 0.96372 0.82094 0.49985 0.0
H798 H 0.95196 0.86304 0.57857 0.0
H799 H 1.01801 0.87044 0.84624 0.0
H800 H 0.04877 0.88773 0.85054 0.0
H801 H 0.04788 0.85489 0.80457 0.0
H802 H 0.06915 0.86448 0.66243 0.0
H803 H 0.06938 0.89727 0.70687 0.0
H804 H 0.05297 0.8855 0.60356 0.0
H805 H 0.95389 0.90902 0.63796 0.0
H806 H 0.9663 0.95323 0.69377 0.0
H807 H 0.04055 0.93031 0.79064 0.0
C808 C 1.0201 0.8351 0.62311 0.0
C809 C 1.00239 0.82143 0.56115 0.0
C810 C 0.97713 0.83098 0.54928 0.0
C811 C 0.97045 0.85495 0.59306 0.0
C812 C 0.98916 0.8688 0.6492 0.0
C813 C 1.0132 0.85891 0.66639 0.0
C814 C 0.03125 0.8785 0.71956 0.0
C815 C 0.03677 0.87249 0.81069 0.0
C816 C 0.05719 0.8816 0.6701 0.0
C817 C 1.01418 0.90118 0.72622 0.0
C818 C 0.98995 0.89528 0.68536 0.0
C819 C 0.97238 0.91373 0.67287 0.0
C820 C 0.97968 0.93875 0.70383 0.0
C821 C 1.00416 0.94497 0.74741 0.0
C822 C 1.0214 0.92593 0.75958 0.0
H823 H 0.72345 0.98086 0.62171 0.0
H824 H 0.72395 0.04063 0.47435 0.0
H825 H 0.6798 0.05341 0.53391 0.0
H826 H 0.65859 0.96306 0.58663 0.0
H827 H 0.6517 0.95642 0.69412 0.0
H828 H 0.68497 0.95433 0.65247 0.0
H829 H 0.7016 0.98558 0.78934 0.0
H830 H 0.66846 0.9874 0.83266 0.0
H831 H 0.686 0.01538 0.81931 0.0
H832 H 0.63209 0.05442 0.58679 0.0
H833 H 0.58785 0.04821 0.64824 0.0
H834 H 0.61867 0.9897 0.7711 0.0
C835 C 0.71482 0.99741 0.60555 0.0
C836 C 0.72758 0.01012 0.54469 0.0
C837 C 0.71509 0.03109 0.52262 0.0
C838 C 0.68977 0.03825 0.55537 0.0
C839 C 0.67722 0.02457 0.61167 0.0
C840 C 0.68968 0.00503 0.63878 0.0
C841 C 0.67133 0.99254 0.6961 0.0
C842 C 0.66636 0.96496 0.65483 0.0
C843 C 0.68251 0.9954 0.78992 0.0
C844 C 0.64631 0.00758 0.69481 0.0
C845 C 0.6501 0.02585 0.64512 0.0
C846 C 0.6292 0.04059 0.62756 0.0
C847 C 0.60403 0.0368 0.66225 0.0
C848 C 0.59977 0.0187 0.71539 0.0
C849 C 0.62138 0.00404 0.73224 0.0
H850 H 0.58014 0.7376 0.34432 0.0
H851 H 0.50003 0.75949 0.41401 0.0
H852 H 0.49917 0.73162 0.52244 0.0
H853 H 0.56958 0.67756 0.33124 0.0
H854 H 0.60067 0.66942 0.37436 0.0
H855 H 0.59885 0.69635 0.32418 0.0
H856 H 0.61735 0.72469 0.46499 0.0
H857 H 0.62027 0.6977 0.51517 0.0
H858 H 0.60189 0.72416 0.5695 0.0
H859 H 0.50319 0.69431 0.5941 0.0
H860 H 0.51299 0.65406 0.63461 0.0
H861 H 0.59095 0.65579 0.5179 0.0
C862 C 0.5632 0.73786 0.38731 0.0
C863 C 0.5405 0.7514 0.37348 0.0
C864 C 0.51794 0.75009 0.42635 0.0
C865 C 0.51721 0.73399 0.48719 0.0
C866 C 0.53925 0.71941 0.49439 0.0
C867 C 0.56211 0.72162 0.44721 0.0
C868 C 0.58151 0.70136 0.45634 0.0
C869 C 0.58801 0.68524 0.3662 0.0
C870 C 0.60675 0.71265 0.50439 0.0
C871 C 0.56557 0.68668 0.51249 0.0
C872 C 0.54142 0.69755 0.53474 0.0
C873 C 0.52239 0.6861 0.57937 0.0
C874 C 0.52822 0.66313 0.60233 0.0
C875 C 0.55295 0.65159 0.58069 0.0
C876 C 0.57185 0.66386 0.53566 0.0
H877 H 0.85884 0.50401 0.43771 0.0
H878 H 0.80074 0.50324 0.64257 0.0
H879 H 0.83683 0.50903 0.75426 0.0
H880 H 0.90688 0.46937 0.52091 0.0
H881 H 0.93485 0.48656 0.48965 0.0
H882 H 0.90441 0.48477 0.42821 0.0
H883 H 0.90263 0.53293 0.45517 0.0
H884 H 0.93327 0.53488 0.51584 0.0
H885 H 0.90444 0.5505 0.56611 0.0
H886 H 0.88072 0.5103 0.84116 0.0
H887 H 0.92684 0.51109 0.89592 0.0
H888 H 0.95565 0.51214 0.63282 0.0
C889 C 0.85365 0.50564 0.50641 0.0
C890 C 0.82691 0.50335 0.53158 0.0
C891 C 0.82098 0.50533 0.62195 0.0
C892 C 0.84142 0.50841 0.68563 0.0
C893 C 0.86769 0.50977 0.65801 0.0
C894 C 0.87372 0.50886 0.57043 0.0
C895 C 0.90341 0.50998 0.55659 0.0
C896 C 0.91293 0.48626 0.49522 0.0
C897 C 0.9114 0.53347 0.52136 0.0
C898 C 0.91335 0.51133 0.64982 0.0
C899 C 0.89252 0.51107 0.70756 0.0
C900 C 0.89707 0.5109 0.79646 0.0
C901 C 0.9234 0.51125 0.82699 0.0
C902 C 0.94506 0.51195 0.76917 0.0
C903 C 0.9397 0.512 0.67937 0.0
loop_
_geom_bond_atom_site_label_1
_geom_bond_atom_site_label_2
_geom_bond_distance
_geom_bond_site_symmetry_2
_ccdc_geom_bond_type
H0 C5 0.930 . S
H1 C8 0.930 . S
H2 C10 0.930 . S
H3 C4 1.016 . S
C4 H3 1.016 . S
C4 N11 1.286 . S
C5 H0 0.930 . S
C5 C6 1.397 . S
C5 C7 1.361 . S
C6 C5 1.397 . S
C6 C10 1.390 . S
C7 C5 1.361 . S
C7 C8 1.393 . S
C7 N11 1.413 . S
C8 H1 0.930 . S
C8 C7 1.393 . S
C8 C9 1.399 . S
C9 C8 1.399 . S
C9 C10 1.381 . S
C10 H2 0.930 . S
C10 C6 1.390 . S
C10 C9 1.381 . S
N11 C4 1.286 . S
N11 C7 1.413 . S
H12 C17 0.930 . S
H13 C20 0.930 . S
H14 C22 0.930 . S
H15 C16 1.029 . S
C16 H15 1.029 . S
C16 N23 1.269 1_655 S
C17 H12 0.930 . S
C17 C18 1.397 . S
C17 C19 1.361 . S
C18 C17 1.397 . S
C18 C22 1.390 1_455 S
C19 C17 1.361 . S
C19 C20 1.393 . S
C19 N23 1.413 . S
C20 H13 0.930 . S
C20 C19 1.393 . S
C20 C21 1.403 . S
C21 C20 1.403 . S
C21 C22 1.379 1_455 S
C22 H14 0.930 . S
C22 C18 1.390 1_655 S
C22 C21 1.379 1_655 S
N23 C16 1.269 1_455 S
N23 C19 1.413 . S
H24 C29 0.930 . S
H25 C32 0.930 . S
H26 C34 0.930 . S
H27 C28 1.021 . S
C28 H27 1.021 . S
C28 N35 1.274 1_565 S
C29 H24 0.930 . S
C29 C30 1.397 . S
C29 C31 1.361 . S
C30 C29 1.397 . S
C30 C34 1.390 1_545 S
C31 C29 1.361 . S
C31 C32 1.393 . S
C31 N35 1.413 . S
C32 H25 0.930 . S
C32 C31 1.393 . S
C32 C33 1.402 . S
C33 C32 1.402 . S
C33 C34 1.375 1_545 S
C34 H26 0.930 . S
C34 C30 1.390 1_565 S
C34 C33 1.375 1_565 S
N35 C28 1.274 1_545 S
N35 C31 1.413 . S
H36 C41 0.930 . S
H37 C44 0.930 . S
H38 C46 0.930 . S
H39 C40 1.016 . S
C40 H39 1.016 . S
C40 N47 1.286 1_556 S
C41 H36 0.930 . S
C41 C42 1.397 . S
C41 C43 1.361 . S
C42 C41 1.397 . S
C42 C46 1.390 . S
C43 C41 1.361 . S
C43 C44 1.393 1_554 S
C43 N47 1.413 . S
C44 H37 0.930 . S
C44 C43 1.393 1_556 S
C44 C45 1.399 . S
C45 C44 1.399 . S
C45 C46 1.381 1_556 S
C46 H38 0.930 . S
C46 C42 1.390 . S
C46 C45 1.381 1_554 S
N47 C40 1.286 1_554 S
N47 C43 1.413 . S
H48 C53 0.930 . S
H49 C56 0.930 . S
H50 C58 0.930 . S
H51 C52 1.016 . S
C52 H51 1.016 . S
C52 N59 1.286 . S
C53 H48 0.930 . S
C53 C54 1.397 . S
C53 C55 1.361 . S
C54 C53 1.397 . S
C54 C58 1.390 . S
C55 C53 1.361 . S
C55 C56 1.393 . S
C55 N59 1.413 . S
C56 H49 0.930 . S
C56 C55 1.393 . S
C56 C57 1.399 . S
C57 C56 1.399 . S
C57 C58 1.381 . S
C58 H50 0.930 . S
C58 C54 1.390 . S
C58 C57 1.381 . S
N59 C52 1.286 . S
N59 C55 1.413 . S
H60 C65 0.930 . S
H61 C68 0.930 . S
H62 C70 0.937 . S
H63 C64 1.008 1_655 S
C64 H63 1.008 1_455 S
C64 N71 1.299 . S
C65 H60 0.930 . S
C65 C66 1.397 . S
C65 C67 1.361 . S
C66 C65 1.397 . S
C66 C70 1.387 1_455 S
C67 C65 1.361 . S
C67 C68 1.393 . S
C67 N71 1.413 . S
C68 H61 0.930 . S
C68 C67 1.393 . S
C68 C69 1.399 . S
C69 C68 1.399 . S
C69 C70 1.379 1_455 S
C70 H62 0.937 . S
C70 C66 1.387 1_655 S
C70 C69 1.379 1_655 S
N71 C64 1.299 . S
N71 C67 1.413 . S
H72 C77 0.930 . S
H73 C80 0.930 . S
H74 C82 0.930 . S
H75 C76 1.032 . S
C76 H75 1.032 . S
C76 N83 1.268 1_565 S
C77 H72 0.930 . S
C77 C78 1.397 . S
C77 C79 1.361 . S
C78 C77 1.397 . S
C78 C82 1.390 1_545 S
C79 C77 1.361 . S
C79 C80 1.393 . S
C79 N83 1.413 . S
C80 H73 0.930 . S
C80 C79 1.393 . S
C80 C81 1.404 . S
C81 C80 1.404 . S
C81 C82 1.384 1_545 S
C82 H74 0.930 . S
C82 C78 1.390 1_565 S
C82 C81 1.384 1_565 S
N83 C76 1.268 1_545 S
N83 C79 1.413 . S
H84 C89 0.930 . S
H85 C92 0.930 . S
H86 C94 0.930 . S
H87 C88 1.016 . S
C88 H87 1.016 . S
C88 N95 1.286 . S
C89 H84 0.930 . S
C89 C90 1.397 . S
C89 C91 1.361 . S
C90 C89 1.397 . S
C90 C94 1.390 . S
C91 C89 1.361 . S
C91 C92 1.393 . S
C91 N95 1.413 . S
C92 H85 0.930 . S
C92 C91 1.393 . S
C92 C93 1.399 . S
C93 C92 1.399 . S
C93 C94 1.381 . S
C94 H86 0.930 . S
C94 C90 1.390 . S
C94 C93 1.381 . S
N95 C88 1.286 . S
N95 C91 1.413 . S
Tb96 C105 2.764 . S
Tb96 O106 2.325 . S
Tb96 O109 2.303 1_655 S
Tb96 O113 2.322 1_545 S
Tb96 O114 2.349 . S
Tb96 O117 2.415 . S
Tb96 O118 2.399 . S
Tb97 O107 2.322 1_565 S
Tb97 O108 2.349 . S
Tb97 O110 2.415 . S
Tb97 O111 2.399 . S
Tb97 O112 2.325 . S
Tb97 O115 2.303 1_455 S
Tb97 C126 2.764 . S
C98 O114 1.263 . S
C98 O115 1.256 1_545 S
C99 C102 1.358 . S
C99 C103 1.332 . S
C99 C105 1.504 . S
C100 C101 1.373 . S
C100 C104 1.308 . S
C101 C100 1.373 . S
C101 C102 1.429 . S
C101 H128 0.932 . S
C102 C99 1.358 . S
C102 C101 1.429 . S
C102 H129 0.930 . S
C103 C99 1.332 . S
C103 C104 1.394 . S
C103 H130 0.932 1_655 S
C104 C100 1.308 . S
C104 C103 1.394 . S
C104 H131 0.929 1_655 S
C105 Tb96 2.764 . S
C105 C99 1.504 . S
C105 O117 1.239 . S
C105 O118 1.263 . S
O106 Tb96 2.325 . S
O106 C116 1.236 1_655 S
O107 Tb97 2.322 1_545 S
O107 C116 1.257 . S
O108 Tb97 2.349 . S
O108 C119 1.263 1_565 S
O109 Tb96 2.303 1_455 S
O109 C119 1.256 . S
O110 Tb97 2.415 . S
O110 C126 1.239 . S
O111 Tb97 2.399 . S
O111 C126 1.263 . S
O112 Tb97 2.325 . S
O112 C127 1.236 1_455 S
O113 Tb96 2.322 1_565 S
O113 C127 1.257 . S
O114 Tb96 2.349 . S
O114 C98 1.263 . S
O115 Tb97 2.303 1_655 S
O115 C98 1.256 1_565 S
C116 O106 1.236 1_455 S
C116 O107 1.257 . S
O117 Tb96 2.415 . S
O117 C105 1.239 . S
O118 Tb96 2.399 . S
O118 C105 1.263 . S
C119 O108 1.263 1_545 S
C119 O109 1.256 . S
C120 C123 1.358 . S
C120 C124 1.332 . S
C120 C126 1.504 1_554 S
C121 C122 1.373 . S
C121 C125 1.308 . S
C122 C121 1.373 . S
C122 C123 1.429 . S
C122 H132 0.932 . S
C123 C120 1.358 . S
C123 C122 1.429 . S
C123 H133 0.930 . S
C124 C120 1.332 . S
C124 C125 1.394 . S
C124 H134 0.932 1_455 S
C125 C121 1.308 . S
C125 C124 1.394 . S
C125 H135 0.929 1_455 S
C126 Tb97 2.764 . S
C126 O110 1.239 . S
C126 O111 1.263 . S
C126 C120 1.504 1_556 S
C127 O112 1.236 1_655 S
C127 O113 1.257 . S
H128 C101 0.932 . S
H129 C102 0.930 . S
H130 C103 0.932 1_455 S
H131 C104 0.929 1_455 S
H132 C122 0.932 . S
H133 C123 0.930 . S
H134 C124 0.932 1_655 S
H135 C125 0.929 1_655 S
Tb136 C145 2.764 . S
Tb136 O146 2.325 . S
Tb136 O149 2.303 1_565 S
Tb136 O153 2.322 . S
Tb136 O154 2.349 . S
Tb136 O157 2.415 1_565 S
Tb136 O158 2.399 . S
Tb137 O147 2.322 . S
Tb137 O148 2.349 . S
Tb137 O150 2.420 1_545 S
Tb137 O151 2.399 1_556 S
Tb137 O152 2.325 . S
Tb137 O155 2.303 1_545 S
Tb137 C166 2.764 1_556 S
C138 O154 1.261 . S
C138 O155 1.257 . S
C139 C142 1.358 . S
C139 C143 1.332 1_565 S
C139 C145 1.504 . S
C140 C141 1.373 . S
C140 C144 1.308 1_565 S
C141 C140 1.373 . S
C141 C142 1.429 . S
C141 H168 0.932 . S
C142 C139 1.358 . S
C142 C141 1.429 . S
C142 H169 0.930 . S
C143 C139 1.332 1_545 S
C143 C144 1.394 . S
C143 H170 0.932 . S
C144 C140 1.308 1_545 S
C144 C143 1.394 . S
C144 H171 0.929 . S
C145 Tb136 2.764 . S
C145 C139 1.504 . S
C145 O157 1.239 1_565 S
C145 O158 1.263 . S
O146 Tb136 2.325 . S
O146 C156 1.236 1_565 S
O147 Tb137 2.322 . S
O147 C156 1.257 . S
O148 Tb137 2.349 . S
O148 C159 1.261 . S
O149 Tb136 2.303 1_545 S
O149 C159 1.257 . S
O150 Tb137 2.420 1_565 S
O150 C166 1.237 1_566 S
O151 Tb137 2.399 1_554 S
O151 C166 1.263 . S
O152 Tb137 2.325 . S
O152 C167 1.236 1_545 S
O153 Tb136 2.322 . S
O153 C167 1.257 . S
O154 Tb136 2.349 . S
O154 C138 1.261 . S
O155 Tb137 2.303 1_565 S
O155 C138 1.257 . S
C156 O146 1.236 1_545 S
C156 O147 1.257 . S
O157 Tb136 2.415 1_545 S
O157 C145 1.239 1_545 S
O158 Tb136 2.399 . S
O158 C145 1.263 . S
C159 O148 1.261 . S
C159 O149 1.257 . S
C160 C163 1.358 . S
C160 C164 1.332 1_545 S
C160 C166 1.504 . S
C161 C162 1.373 . S
C161 C165 1.308 1_545 S
C162 C161 1.373 . S
C162 C163 1.429 . S
C162 H172 0.932 . S
C163 C160 1.358 . S
C163 C162 1.429 . S
C163 H173 0.930 . S
C164 C160 1.332 1_565 S
C164 C165 1.394 . S
C164 H174 0.932 . S
C165 C161 1.308 1_565 S
C165 C164 1.394 . S
C165 H175 0.929 . S
C166 Tb137 2.764 1_554 S
C166 O150 1.237 1_544 S
C166 O151 1.263 . S
C166 C160 1.504 . S
C167 O152 1.236 1_565 S
C167 O153 1.257 . S
H168 C141 0.932 . S
H169 C142 0.930 . S
H170 C143 0.932 . S
H171 C144 0.929 . S
H172 C162 0.932 . S
H173 C163 0.930 . S
H174 C164 0.932 . S
H175 C165 0.929 . S
Tb176 C185 2.764 1_556 S
Tb176 O186 2.325 . S
Tb176 O189 2.303 . S
Tb176 O193 2.322 . S
Tb176 O194 2.349 . S
Tb176 O197 2.415 1_556 S
Tb176 O198 2.399 . S
Tb177 O187 2.322 . S
Tb177 O188 2.349 . S
Tb177 O190 2.415 . S
Tb177 O191 2.399 . S
Tb177 O192 2.325 . S
Tb177 O195 2.303 . S
Tb177 C206 2.764 . S
C178 O194 1.261 . S
C178 O195 1.257 . S
C179 C182 1.358 . S
C179 C183 1.332 . S
C179 C185 1.504 . S
C180 C181 1.373 . S
C180 C184 1.308 . S
C181 C180 1.373 . S
C181 C182 1.429 . S
C181 H208 0.932 . S
C182 C179 1.358 . S
C182 C181 1.429 . S
C182 H209 0.930 . S
C183 C179 1.332 . S
C183 C184 1.394 . S
C183 H210 0.932 . S
C184 C180 1.308 . S
C184 C183 1.394 . S
C184 H211 0.929 . S
C185 Tb176 2.764 1_554 S
C185 C179 1.504 . S
C185 O197 1.239 . S
C185 O198 1.263 1_554 S
O186 Tb176 2.325 . S
O186 C196 1.236 . S
O187 Tb177 2.322 . S
O187 C196 1.257 . S
O188 Tb177 2.349 . S
O188 C199 1.261 . S
O189 Tb176 2.303 . S
O189 C199 1.257 . S
O190 Tb177 2.415 . S
O190 C206 1.239 . S
O191 Tb177 2.399 . S
O191 C206 1.263 . S
O192 Tb177 2.325 . S
O192 C207 1.236 . S
O193 Tb176 2.322 . S
O193 C207 1.257 . S
O194 Tb176 2.349 . S
O194 C178 1.261 . S
O195 Tb177 2.303 . S
O195 C178 1.257 . S
C196 O186 1.236 . S
C196 O187 1.257 . S
O197 Tb176 2.415 1_554 S
O197 C185 1.239 . S
O198 Tb176 2.399 . S
O198 C185 1.263 1_556 S
C199 O188 1.261 . S
C199 O189 1.257 . S
C200 C203 1.358 . S
C200 C204 1.332 . S
C200 C206 1.504 . S
C201 C202 1.373 . S
C201 C205 1.308 . S
C202 C201 1.373 . S
C202 C203 1.429 . S
C202 H212 0.932 . S
C203 C200 1.358 . S
C203 C202 1.429 . S
C203 H213 0.930 . S
C204 C200 1.332 . S
C204 C205 1.394 . S
C204 H214 0.932 . S
C205 C201 1.308 . S
C205 C204 1.394 . S
C205 H215 0.929 . S
C206 Tb177 2.764 . S
C206 O190 1.239 . S
C206 O191 1.263 . S
C206 C200 1.504 . S
C207 O192 1.236 . S
C207 O193 1.257 . S
H208 C181 0.932 . S
H209 C182 0.930 . S
H210 C183 0.932 . S
H211 C184 0.929 . S
H212 C202 0.932 . S
H213 C203 0.930 . S
H214 C204 0.932 . S
H215 C205 0.929 . S
Tb216 C225 2.764 . S
Tb216 O226 2.325 . S
Tb216 O229 2.303 . S
Tb216 O233 2.322 1_455 S
Tb216 O234 2.349 . S
Tb216 O237 2.415 . S
Tb216 O238 2.399 . S
Tb217 O227 2.322 1_655 S
Tb217 O228 2.349 . S
Tb217 O230 2.415 1_556 S
Tb217 O231 2.399 . S
Tb217 O232 2.325 . S
Tb217 O235 2.303 . S
Tb217 C246 2.764 1_556 S
C218 O234 1.261 . S
C218 O235 1.257 1_455 S
C219 C222 1.358 . S
C219 C223 1.332 . S
C219 C225 1.504 . S
C220 C221 1.373 . S
C220 C224 1.308 . S
C221 C220 1.373 . S
C221 C222 1.429 . S
C221 H248 0.932 . S
C222 C219 1.358 . S
C222 C221 1.429 . S
C222 H249 0.930 . S
C223 C219 1.332 . S
C223 C224 1.394 . S
C223 H250 0.932 . S
C224 C220 1.308 . S
C224 C223 1.394 . S
C224 H251 0.929 . S
C225 Tb216 2.764 . S
C225 C219 1.504 . S
C225 O237 1.239 . S
C225 O238 1.263 . S
O226 Tb216 2.325 . S
O226 C236 1.236 . S
O227 Tb217 2.322 1_455 S
O227 C236 1.257 . S
O228 Tb217 2.349 . S
O228 C239 1.261 . S
O229 Tb216 2.303 . S
O229 C239 1.257 1_455 S
O230 Tb217 2.415 1_554 S
O230 C246 1.239 . S
O231 Tb217 2.399 . S
O231 C246 1.263 1_556 S
O232 Tb217 2.325 . S
O232 C247 1.236 . S
O233 Tb216 2.322 1_655 S
O233 C247 1.257 . S
O234 Tb216 2.349 . S
O234 C218 1.261 . S
O235 Tb217 2.303 . S
O235 C218 1.257 1_655 S
C236 O226 1.236 . S
C236 O227 1.257 . S
O237 Tb216 2.415 . S
O237 C225 1.239 . S
O238 Tb216 2.399 . S
O238 C225 1.263 . S
C239 O228 1.261 . S
C239 O229 1.257 1_655 S
C240 C243 1.358 . S
C240 C244 1.332 . S
C240 C246 1.504 . S
C241 C242 1.373 . S
C241 C245 1.308 . S
C242 C241 1.373 . S
C242 C243 1.429 . S
C242 H252 0.932 . S
C243 C240 1.358 . S
C243 C242 1.429 . S
C243 H253 0.930 . S
C244 C240 1.332 . S
C244 C245 1.394 . S
C244 H254 0.932 . S
C245 C241 1.308 . S
C245 C244 1.394 . S
C245 H255 0.929 . S
C246 Tb217 2.764 1_554 S
C246 O230 1.239 . S
C246 O231 1.263 1_554 S
C246 C240 1.504 . S
C247 O232 1.236 . S
C247 O233 1.257 . S
H248 C221 0.932 . S
H249 C222 0.930 . S
H250 C223 0.932 . S
H251 C224 0.929 . S
H252 C242 0.932 . S
H253 C243 0.930 . S
H254 C244 0.932 . S
H255 C245 0.929 . S
H256 C268 0.930 . S
H257 C270 0.930 . S
H258 C271 0.930 . S
H259 C275 0.959 . S
H260 C275 0.959 . S
H261 C275 0.961 . S
H262 C276 0.960 . S
H263 C276 0.961 . S
H264 C276 0.959 . S
H265 C279 0.929 . S
H266 C280 0.931 . S
H267 C282 0.930 . S
C268 H256 0.930 . S
C268 C269 1.399 1_565 S
C268 C273 1.399 . S
C269 C268 1.399 1_545 S
C269 C270 1.376 . S
C270 H257 0.930 . S
C270 C269 1.376 . S
C270 C271 1.388 . S
C271 H258 0.930 . S
C271 C270 1.388 . S
C271 C272 1.390 . S
C272 C271 1.390 . S
C272 C273 1.394 1_545 S
C272 C278 1.465 . S
C273 C268 1.399 . S
C273 C272 1.394 1_565 S
C273 C274 1.516 . S
C274 C273 1.516 . S
C274 C275 1.502 . S
C274 C276 1.561 . S
C274 C277 1.526 . S
C275 H259 0.959 . S
C275 H260 0.959 . S
C275 H261 0.961 . S
C275 C274 1.502 . S
C276 H262 0.960 . S
C276 H263 0.961 . S
C276 H264 0.959 . S
C276 C274 1.561 . S
C277 C274 1.526 . S
C277 C278 1.396 1_565 S
C277 C282 1.390 . S
C278 C272 1.465 . S
C278 C277 1.396 1_545 S
C278 C279 1.399 . S
C279 H265 0.929 . S
C279 C278 1.399 . S
C279 C280 1.385 . S
C280 H266 0.931 . S
C280 C279 1.385 . S
C280 C281 1.389 . S
C281 C280 1.389 . S
C281 C282 1.387 1_545 S
C282 H267 0.930 . S
C282 C277 1.390 . S
C282 C281 1.387 1_565 S
H283 C295 0.930 . S
H284 C297 0.930 . S
H285 C298 0.930 . S
H286 C302 0.959 . S
H287 C302 0.959 . S
H288 C302 0.961 . S
H289 C303 0.960 . S
H290 C303 0.961 . S
H291 C303 0.959 . S
H292 C306 0.929 . S
H293 C307 0.931 . S
H294 C309 0.930 . S
C295 H283 0.930 . S
C295 C296 1.399 . S
C295 C300 1.399 . S
C296 C295 1.399 . S
C296 C297 1.376 . S
C297 H284 0.930 . S
C297 C296 1.376 . S
C297 C298 1.388 . S
C298 H285 0.930 . S
C298 C297 1.388 . S
C298 C299 1.390 . S
C299 C298 1.390 . S
C299 C300 1.394 . S
C299 C305 1.465 . S
C300 C295 1.399 . S
C300 C299 1.394 . S
C300 C301 1.516 . S
C301 C300 1.516 . S
C301 C302 1.502 . S
C301 C303 1.561 . S
C301 C304 1.526 . S
C302 H286 0.959 . S
C302 H287 0.959 . S
C302 H288 0.961 . S
C302 C301 1.502 . S
C303 H289 0.960 . S
C303 H290 0.961 . S
C303 H291 0.959 . S
C303 C301 1.561 . S
C304 C301 1.526 . S
C304 C305 1.396 . S
C304 C309 1.390 . S
C305 C299 1.465 . S
C305 C304 1.396 . S
C305 C306 1.399 . S
C306 H292 0.929 . S
C306 C305 1.399 . S
C306 C307 1.385 . S
C307 H293 0.931 . S
C307 C306 1.385 . S
C307 C308 1.389 . S
C308 C307 1.389 . S
C308 C309 1.387 . S
C309 H294 0.930 . S
C309 C304 1.390 . S
C309 C308 1.387 . S
H310 C322 0.930 . S
H311 C324 0.930 . S
H312 C325 0.930 . S
H313 C329 0.959 . S
H314 C329 0.959 . S
H315 C329 0.961 . S
H316 C330 0.960 . S
H317 C330 0.961 . S
H318 C330 0.959 . S
H319 C333 0.929 . S
H320 C334 0.931 . S
H321 C336 0.930 . S
C322 H310 0.930 . S
C322 C323 1.399 . S
C322 C327 1.399 . S
C323 C322 1.399 . S
C323 C324 1.376 . S
C324 H311 0.930 . S
C324 C323 1.376 . S
C324 C325 1.388 . S
C325 H312 0.930 . S
C325 C324 1.388 . S
C325 C326 1.390 . S
C326 C325 1.390 . S
C326 C327 1.394 . S
C326 C332 1.465 . S
C327 C322 1.399 . S
C327 C326 1.394 . S
C327 C328 1.516 . S
C328 C327 1.516 . S
C328 C329 1.502 . S
C328 C330 1.561 . S
C328 C331 1.526 . S
C329 H313 0.959 . S
C329 H314 0.959 . S
C329 H315 0.961 . S
C329 C328 1.502 . S
C330 H316 0.960 . S
C330 H317 0.961 . S
C330 H318 0.959 . S
C330 C328 1.561 . S
C331 C328 1.526 . S
C331 C332 1.396 . S
C331 C336 1.390 . S
C332 C326 1.465 . S
C332 C331 1.396 . S
C332 C333 1.399 . S
C333 H319 0.929 . S
C333 C332 1.399 . S
C333 C334 1.385 . S
C334 H320 0.931 . S
C334 C333 1.385 . S
C334 C335 1.389 . S
C335 C334 1.389 . S
C335 C336 1.387 . S
C336 H321 0.930 . S
C336 C331 1.390 . S
C336 C335 1.387 . S
H337 C349 0.930 . S
H338 C351 0.930 . S
H339 C352 0.930 . S
H340 C356 0.959 . S
H341 C356 0.959 . S
H342 C356 0.961 . S
H343 C357 0.960 . S
H344 C357 0.961 . S
H345 C357 0.959 . S
H346 C360 0.929 . S
H347 C361 0.931 . S
H348 C363 0.930 . S
C349 H337 0.930 . S
C349 C350 1.398 1_455 S
C349 C354 1.399 . S
C350 C349 1.398 1_655 S
C350 C351 1.378 . S
C351 H338 0.930 . S
C351 C350 1.378 . S
C351 C352 1.388 . S
C352 H339 0.930 . S
C352 C351 1.388 . S
C352 C353 1.390 . S
C353 C352 1.390 . S
C353 C354 1.394 1_655 S
C353 C359 1.465 . S
C354 C349 1.399 . S
C354 C353 1.394 1_455 S
C354 C355 1.516 . S
C355 C354 1.516 . S
C355 C356 1.502 . S
C355 C357 1.561 1_455 S
C355 C358 1.526 . S
C356 H340 0.959 . S
C356 H341 0.959 . S
C356 H342 0.961 . S
C356 C355 1.502 . S
C357 H343 0.960 . S
C357 H344 0.961 . S
C357 H345 0.959 . S
C357 C355 1.561 1_655 S
C358 C355 1.526 . S
C358 C359 1.396 1_455 S
C358 C363 1.390 . S
C359 C353 1.465 . S
C359 C358 1.396 1_655 S
C359 C360 1.399 . S
C360 H346 0.929 . S
C360 C359 1.399 . S
C360 C361 1.385 . S
C361 H347 0.931 . S
C361 C360 1.385 . S
C361 C362 1.389 1_655 S
C362 C361 1.389 1_455 S
C362 C363 1.387 . S
C363 H348 0.930 . S
C363 C358 1.390 . S
C363 C362 1.387 . S
H364 C376 0.930 . S
H365 C378 0.930 . S
H366 C379 0.930 . S
H367 C383 0.959 . S
H368 C383 0.959 . S
H369 C383 0.961 . S
H370 C384 0.960 . S
H371 C384 0.961 1_556 S
H372 C384 0.959 1_545 S
H373 C387 0.929 . S
H374 C388 0.931 . S
H375 C390 0.921 1_556 S
C376 H364 0.930 . S
C376 C377 1.399 1_565 S
C376 C381 1.399 . S
C377 C376 1.399 1_545 S
C377 C378 1.376 . S
C378 H365 0.930 . S
C378 C377 1.376 . S
C378 C379 1.388 . S
C379 H366 0.930 . S
C379 C378 1.388 . S
C379 C380 1.390 . S
C380 C379 1.390 . S
C380 C381 1.394 1_545 S
C380 C386 1.465 . S
C381 C376 1.399 . S
C381 C380 1.394 1_565 S
C381 C382 1.516 . S
C382 C381 1.516 . S
C382 C383 1.502 . S
C382 C384 1.561 . S
C382 C385 1.526 . S
C383 H367 0.959 . S
C383 H368 0.959 . S
C383 H369 0.961 . S
C383 C382 1.502 . S
C384 H370 0.960 . S
C384 H371 0.961 1_554 S
C384 H372 0.959 1_565 S
C384 C382 1.561 . S
C385 C382 1.526 . S
C385 C386 1.396 1_565 S
C385 C390 1.401 . S
C386 C380 1.465 . S
C386 C385 1.396 1_545 S
C386 C387 1.399 . S
C387 H373 0.929 . S
C387 C386 1.399 . S
C387 C388 1.385 . S
C388 H374 0.931 . S
C388 C387 1.385 . S
C388 C389 1.389 1_544 S
C389 C388 1.389 1_566 S
C389 C390 1.384 1_556 S
C390 H375 0.921 1_554 S
C390 C385 1.401 . S
C390 C389 1.384 1_554 S
H391 C403 0.930 1_554 S
H392 C405 0.930 . S
H393 C406 0.930 . S
H394 C410 0.959 . S
H395 C410 0.959 . S
H396 C410 0.961 . S
H397 C411 0.960 . S
H398 C411 0.961 . S
H399 C411 0.959 . S
H400 C414 0.929 . S
H401 C415 0.931 . S
H402 C417 0.930 . S
C403 H391 0.930 1_556 S
C403 C404 1.399 . S
C403 C408 1.399 . S
C404 C403 1.399 . S
C404 C405 1.376 . S
C405 H392 0.930 . S
C405 C404 1.376 . S
C405 C406 1.388 . S
C406 H393 0.930 . S
C406 C405 1.388 . S
C406 C407 1.390 . S
C407 C406 1.390 . S
C407 C408 1.394 . S
C407 C413 1.465 . S
C408 C403 1.399 . S
C408 C407 1.394 . S
C408 C409 1.516 1_556 S
C409 C408 1.516 1_554 S
C409 C410 1.502 . S
C409 C411 1.561 . S
C409 C412 1.526 1_554 S
C410 H394 0.959 . S
C410 H395 0.959 . S
C410 H396 0.961 . S
C410 C409 1.502 . S
C411 H397 0.960 . S
C411 H398 0.961 . S
C411 H399 0.959 . S
C411 C409 1.561 . S
C412 C409 1.526 1_556 S
C412 C413 1.396 . S
C412 C417 1.390 . S
C413 C407 1.465 . S
C413 C412 1.396 . S
C413 C414 1.399 . S
C414 H400 0.929 . S
C414 C413 1.399 . S
C414 C415 1.385 . S
C415 H401 0.931 . S
C415 C414 1.385 . S
C415 C416 1.389 . S
C416 C415 1.389 . S
C416 C417 1.387 . S
C417 H402 0.930 . S
C417 C412 1.390 . S
C417 C416 1.387 . S
H418 C430 0.930 . S
H419 C432 0.930 . S
H420 C433 0.930 . S
H421 C437 0.959 . S
H422 C437 0.959 . S
H423 C437 0.961 . S
H424 C438 0.960 . S
H425 C438 0.961 . S
H426 C438 0.959 . S
H427 C441 0.929 . S
H428 C442 0.931 1_556 S
H429 C444 0.930 . S
C430 H418 0.930 . S
C430 C431 1.399 . S
C430 C435 1.399 . S
C431 C430 1.399 . S
C431 C432 1.376 . S
C432 H419 0.930 . S
C432 C431 1.376 . S
C432 C433 1.388 . S
C433 H420 0.930 . S
C433 C432 1.388 . S
C433 C434 1.390 . S
C434 C433 1.390 . S
C434 C435 1.394 . S
C434 C440 1.465 . S
C435 C430 1.399 . S
C435 C434 1.394 . S
C435 C436 1.516 . S
C436 C435 1.516 . S
C436 C437 1.502 . S
C436 C438 1.561 . S
C436 C439 1.526 . S
C437 H421 0.959 . S
C437 H422 0.959 . S
C437 H423 0.961 . S
C437 C436 1.502 . S
C438 H424 0.960 . S
C438 H425 0.961 . S
C438 H426 0.959 . S
C438 C436 1.561 . S
C439 C436 1.526 . S
C439 C440 1.396 . S
C439 C444 1.390 . S
C440 C434 1.465 . S
C440 C439 1.396 . S
C440 C441 1.399 . S
C441 H427 0.929 . S
C441 C440 1.399 . S
C441 C442 1.385 . S
C442 H428 0.931 1_554 S
C442 C441 1.385 . S
C442 C443 1.389 1_554 S
C443 C442 1.389 1_556 S
C443 C444 1.387 1_556 S
C444 H429 0.930 . S
C444 C439 1.390 . S
C444 C443 1.387 1_554 S
H445 C457 0.930 . S
H446 C459 0.930 . S
H447 C460 0.930 . S
H448 C464 0.959 . S
H449 C464 0.959 . S
H450 C464 0.961 . S
H451 C465 0.960 . S
H452 C465 0.961 . S
H453 C465 0.959 . S
H454 C468 0.929 . S
H455 C469 0.931 . S
H456 C471 0.930 . S
C457 H445 0.930 . S
C457 C458 1.399 1_655 S
C457 C462 1.399 . S
C458 C457 1.399 1_455 S
C458 C459 1.376 . S
C459 H446 0.930 . S
C459 C458 1.376 . S
C459 C460 1.388 . S
C460 H447 0.930 . S
C460 C459 1.388 . S
C460 C461 1.390 . S
C461 C460 1.390 . S
C461 C462 1.394 1_455 S
C461 C467 1.465 . S
C462 C457 1.399 . S
C462 C461 1.394 1_655 S
C462 C463 1.516 . S
C463 C462 1.516 . S
C463 C464 1.502 . S
C463 C465 1.561 . S
C463 C466 1.526 . S
C464 H448 0.959 . S
C464 H449 0.959 . S
C464 H450 0.961 . S
C464 C463 1.502 . S
C465 H451 0.960 . S
C465 H452 0.961 . S
C465 H453 0.959 . S
C465 C463 1.561 . S
C466 C463 1.526 . S
C466 C467 1.396 1_655 S
C466 C471 1.390 . S
C467 C461 1.465 . S
C467 C466 1.396 1_455 S
C467 C468 1.399 . S
C468 H454 0.929 . S
C468 C467 1.399 . S
C468 C469 1.385 1_554 S
C469 H455 0.931 . S
C469 C468 1.385 1_556 S
C469 C470 1.389 . S
C470 C469 1.389 . S
C470 C471 1.387 1_456 S
C471 H456 0.930 . S
C471 C466 1.390 . S
C471 C470 1.387 1_654 S
H472 C484 0.930 . S
H473 C486 0.930 . S
H474 C487 0.930 . S
H475 C491 0.959 . S
H476 C491 0.959 . S
H477 C491 0.961 . S
H478 C492 0.960 . S
H479 C492 0.961 . S
H480 C492 0.959 . S
H481 C495 0.929 . S
H482 C496 0.931 . S
H483 C498 0.930 . S
C484 H472 0.930 . S
C484 C485 1.399 1_655 S
C484 C489 1.399 . S
C485 C484 1.399 1_455 S
C485 C486 1.376 . S
C486 H473 0.930 . S
C486 C485 1.376 . S
C486 C487 1.388 . S
C487 H474 0.930 . S
C487 C486 1.388 . S
C487 C488 1.390 1_455 S
C488 C487 1.390 1_655 S
C488 C489 1.394 . S
C488 C494 1.465 . S
C489 C484 1.399 . S
C489 C488 1.394 . S
C489 C490 1.516 . S
C490 C489 1.516 . S
C490 C491 1.502 . S
C490 C492 1.561 . S
C490 C493 1.526 . S
C491 H475 0.959 . S
C491 H476 0.959 . S
C491 H477 0.961 . S
C491 C490 1.502 . S
C492 H478 0.960 . S
C492 H479 0.961 . S
C492 H480 0.959 . S
C492 C490 1.561 . S
C493 C490 1.526 . S
C493 C494 1.396 . S
C493 C498 1.390 . S
C494 C488 1.465 . S
C494 C493 1.396 . S
C494 C495 1.399 1_655 S
C495 H481 0.929 . S
C495 C494 1.399 1_455 S
C495 C496 1.385 1_455 S
C496 H482 0.931 . S
C496 C495 1.385 1_655 S
C496 C497 1.389 . S
C497 C496 1.389 . S
C497 C498 1.387 . S
C498 H483 0.930 . S
C498 C493 1.390 . S
C498 C497 1.387 . S
H499 C511 0.930 . S
H500 C513 0.930 . S
H501 C514 0.930 . S
H502 C518 0.959 . S
H503 C518 0.959 . S
H504 C518 0.961 1_545 S
H505 C519 0.960 . S
H506 C519 0.961 . S
H507 C519 0.959 . S
H508 C522 0.929 . S
H509 C523 0.931 . S
H510 C525 0.930 . S
C511 H499 0.930 . S
C511 C512 1.399 . S
C511 C516 1.412 . S
C512 C511 1.399 . S
C512 C513 1.376 1_545 S
C513 H500 0.930 . S
C513 C512 1.376 1_565 S
C513 C514 1.388 . S
C514 H501 0.930 . S
C514 C513 1.388 . S
C514 C515 1.390 . S
C515 C514 1.390 . S
C515 C516 1.373 1_565 S
C515 C521 1.465 . S
C516 C511 1.412 . S
C516 C515 1.373 1_545 S
C516 C517 1.522 . S
C517 C516 1.522 . S
C517 C518 1.502 1_545 S
C517 C519 1.561 . S
C517 C520 1.526 1_545 S
C518 H502 0.959 . S
C518 H503 0.959 . S
C518 H504 0.961 1_565 S
C518 C517 1.502 1_565 S
C519 H505 0.960 . S
C519 H506 0.961 . S
C519 H507 0.959 . S
C519 C517 1.561 . S
C520 C517 1.526 1_565 S
C520 C521 1.396 . S
C520 C525 1.390 . S
C521 C515 1.465 . S
C521 C520 1.396 . S
C521 C522 1.399 . S
C522 H508 0.929 . S
C522 C521 1.399 . S
C522 C523 1.385 . S
C523 H509 0.931 . S
C523 C522 1.385 . S
C523 C524 1.389 . S
C524 C523 1.389 . S
C524 C525 1.387 . S
C525 H510 0.930 . S
C525 C520 1.390 . S
C525 C524 1.387 . S
H526 C538 0.930 . S
H527 C540 0.930 . S
H528 C541 0.930 . S
H529 C545 0.959 . S
H530 C545 0.959 . S
H531 C545 0.961 . S
H532 C546 0.960 . S
H533 C546 0.961 . S
H534 C546 0.959 . S
H535 C549 0.929 . S
H536 C550 0.931 . S
H537 C552 0.930 . S
C538 H526 0.930 . S
C538 C539 1.399 . S
C538 C543 1.399 . S
C539 C538 1.399 . S
C539 C540 1.376 . S
C540 H527 0.930 . S
C540 C539 1.376 . S
C540 C541 1.388 . S
C541 H528 0.930 . S
C541 C540 1.388 . S
C541 C542 1.390 . S
C542 C541 1.390 . S
C542 C543 1.394 . S
C542 C548 1.465 . S
C543 C538 1.399 . S
C543 C542 1.394 . S
C543 C544 1.516 . S
C544 C543 1.516 . S
C544 C545 1.502 . S
C544 C546 1.561 . S
C544 C547 1.526 . S
C545 H529 0.959 . S
C545 H530 0.959 . S
C545 H531 0.961 . S
C545 C544 1.502 . S
C546 H532 0.960 . S
C546 H533 0.961 . S
C546 H534 0.959 . S
C546 C544 1.561 . S
C547 C544 1.526 . S
C547 C548 1.396 . S
C547 C552 1.390 . S
C548 C542 1.465 . S
C548 C547 1.396 . S
C548 C549 1.399 . S
C549 H535 0.929 . S
C549 C548 1.399 . S
C549 C550 1.385 . S
C550 H536 0.931 . S
C550 C549 1.385 . S
C550 C551 1.389 . S
C551 C550 1.389 . S
C551 C552 1.387 . S
C552 H537 0.930 . S
C552 C547 1.390 . S
C552 C551 1.387 . S
H553 C565 0.930 . S
H554 C567 0.930 . S
H555 C568 0.930 . S
H556 C572 0.959 . S
H557 C572 0.959 . S
H558 C572 0.961 . S
H559 C573 0.960 . S
H560 C573 0.961 . S
H561 C573 0.959 . S
H562 C576 0.929 . S
H563 C577 0.931 . S
H564 C579 0.930 . S
C565 H553 0.930 . S
C565 C566 1.399 . S
C565 C570 1.399 . S
C566 C565 1.399 . S
C566 C567 1.376 . S
C567 H554 0.930 . S
C567 C566 1.376 . S
C567 C568 1.388 . S
C568 H555 0.930 . S
C568 C567 1.388 . S
C568 C569 1.390 . S
C569 C568 1.390 . S
C569 C570 1.394 . S
C569 C575 1.465 . S
C570 C565 1.399 . S
C570 C569 1.394 . S
C570 C571 1.516 . S
C571 C570 1.516 . S
C571 C572 1.502 . S
C571 C573 1.561 . S
C571 C574 1.526 . S
C572 H556 0.959 . S
C572 H557 0.959 . S
C572 H558 0.961 . S
C572 C571 1.502 . S
C573 H559 0.960 . S
C573 H560 0.961 . S
C573 H561 0.959 . S
C573 C571 1.561 . S
C574 C571 1.526 . S
C574 C575 1.396 . S
C574 C579 1.390 . S
C575 C569 1.465 . S
C575 C574 1.396 . S
C575 C576 1.399 . S
C576 H562 0.929 . S
C576 C575 1.399 . S
C576 C577 1.385 . S
C577 H563 0.931 . S
C577 C576 1.385 . S
C577 C578 1.389 . S
C578 C577 1.389 . S
C578 C579 1.387 . S
C579 H564 0.930 . S
C579 C574 1.390 . S
C579 C578 1.387 . S
H580 C592 0.930 . S
H581 C594 0.930 . S
H582 C595 0.930 . S
H583 C599 0.959 1_655 S
H584 C599 0.959 . S
H585 C599 0.961 1_655 S
H586 C600 0.960 . S
H587 C600 0.961 . S
H588 C600 0.959 . S
H589 C603 0.929 . S
H590 C604 0.931 . S
H591 C606 0.930 . S
C592 H580 0.930 . S
C592 C593 1.399 . S
C592 C597 1.399 . S
C593 C592 1.399 . S
C593 C594 1.376 . S
C594 H581 0.930 . S
C594 C593 1.376 . S
C594 C595 1.388 . S
C595 H582 0.930 . S
C595 C594 1.388 . S
C595 C596 1.390 . S
C596 C595 1.390 . S
C596 C597 1.394 . S
C596 C602 1.465 . S
C597 C592 1.399 . S
C597 C596 1.394 . S
C597 C598 1.516 . S
C598 C597 1.516 . S
C598 C599 1.502 . S
C598 C600 1.561 . S
C598 C601 1.526 . S
C599 H583 0.959 1_455 S
C599 H584 0.959 . S
C599 H585 0.961 1_455 S
C599 C598 1.502 . S
C600 H586 0.960 . S
C600 H587 0.961 . S
C600 H588 0.959 . S
C600 C598 1.561 . S
C601 C598 1.526 . S
C601 C602 1.396 . S
C601 C606 1.390 . S
C602 C596 1.465 . S
C602 C601 1.396 . S
C602 C603 1.399 . S
C603 H589 0.929 . S
C603 C602 1.399 . S
C603 C604 1.385 . S
C604 H590 0.931 . S
C604 C603 1.385 . S
C604 C605 1.389 . S
C605 C604 1.389 . S
C605 C606 1.387 . S
C606 H591 0.930 . S
C606 C601 1.390 . S
C606 C605 1.387 . S
H607 C619 0.930 . S
H608 C621 0.930 . S
H609 C622 0.930 . S
H610 C626 0.959 . S
H611 C626 0.959 . S
H612 C626 0.961 . S
H613 C627 0.960 . S
H614 C627 0.961 . S
H615 C627 0.959 1_565 S
H616 C630 0.951 . S
H617 C631 0.931 . S
H618 C633 0.930 . S
C619 H607 0.930 . S
C619 C620 1.399 1_545 S
C619 C624 1.399 . S
C620 C619 1.399 1_565 S
C620 C621 1.376 . S
C621 H608 0.930 . S
C621 C620 1.376 . S
C621 C622 1.388 . S
C622 H609 0.930 . S
C622 C621 1.388 . S
C622 C623 1.401 . S
C623 C622 1.401 . S
C623 C624 1.385 1_565 S
C623 C629 1.460 1_565 S
C624 C619 1.399 . S
C624 C623 1.385 1_545 S
C624 C625 1.516 . S
C625 C624 1.516 . S
C625 C626 1.502 . S
C625 C627 1.561 . S
C625 C628 1.526 . S
C626 H610 0.959 . S
C626 H611 0.959 . S
C626 H612 0.961 . S
C626 C625 1.502 . S
C627 H613 0.960 . S
C627 H614 0.961 . S
C627 H615 0.959 1_545 S
C627 C625 1.561 . S
C628 C625 1.526 . S
C628 C629 1.396 . S
C628 C633 1.390 . S
C629 C623 1.460 1_545 S
C629 C628 1.396 . S
C629 C630 1.391 1_545 S
C630 H616 0.951 . S
C630 C629 1.391 1_565 S
C630 C631 1.371 1_565 S
C631 H617 0.931 . S
C631 C630 1.371 1_545 S
C631 C632 1.389 . S
C632 C631 1.389 . S
C632 C633 1.387 . S
C633 H618 0.930 . S
C633 C628 1.390 . S
C633 C632 1.387 . S
H634 C646 0.930 . S
H635 C648 0.930 1_554 S
H636 C649 0.930 1_554 S
H637 C653 0.959 . S
H638 C653 0.959 . S
H639 C653 0.961 . S
H640 C654 0.960 . S
H641 C654 0.961 . S
H642 C654 0.959 . S
H643 C657 0.929 1_554 S
H644 C658 0.931 1_554 S
H645 C660 0.930 . S
C646 H634 0.930 . S
C646 C647 1.399 . S
C646 C651 1.399 . S
C647 C646 1.399 . S
C647 C648 1.376 . S
C648 H635 0.930 1_556 S
C648 C647 1.376 . S
C648 C649 1.388 . S
C649 H636 0.930 1_556 S
C649 C648 1.388 . S
C649 C650 1.390 . S
C650 C649 1.390 . S
C650 C651 1.394 . S
C650 C656 1.465 . S
C651 C646 1.399 . S
C651 C650 1.394 . S
C651 C652 1.516 . S
C652 C651 1.516 . S
C652 C653 1.502 . S
C652 C654 1.561 . S
C652 C655 1.526 . S
C653 H637 0.959 . S
C653 H638 0.959 . S
C653 H639 0.961 . S
C653 C652 1.502 . S
C654 H640 0.960 . S
C654 H641 0.961 . S
C654 H642 0.959 . S
C654 C652 1.561 . S
C655 C652 1.526 . S
C655 C656 1.396 . S
C655 C660 1.390 . S
C656 C650 1.465 . S
C656 C655 1.396 . S
C656 C657 1.399 . S
C657 H643 0.929 1_556 S
C657 C656 1.399 . S
C657 C658 1.385 . S
C658 H644 0.931 1_556 S
C658 C657 1.385 . S
C658 C659 1.389 . S
C659 C658 1.389 . S
C659 C660 1.387 . S
C660 H645 0.930 . S
C660 C655 1.390 . S
C660 C659 1.387 . S
H661 C673 0.930 . S
H662 C675 0.930 . S
H663 C676 0.930 . S
H664 C680 0.959 . S
H665 C680 0.959 . S
H666 C680 0.961 . S
H667 C681 0.960 . S
H668 C681 0.961 . S
H669 C681 0.959 . S
H670 C684 0.929 . S
H671 C685 0.931 . S
H672 C687 0.930 . S
C673 H661 0.930 . S
C673 C674 1.399 . S
C673 C678 1.399 . S
C674 C673 1.399 . S
C674 C675 1.376 . S
C675 H662 0.930 . S
C675 C674 1.376 . S
C675 C676 1.388 . S
C676 H663 0.930 . S
C676 C675 1.388 . S
C676 C677 1.390 . S
C677 C676 1.390 . S
C677 C678 1.394 . S
C677 C683 1.465 . S
C678 C673 1.399 . S
C678 C677 1.394 . S
C678 C679 1.516 . S
C679 C678 1.516 . S
C679 C680 1.502 . S
C679 C681 1.561 . S
C679 C682 1.526 . S
C680 H664 0.959 . S
C680 H665 0.959 . S
C680 H666 0.961 . S
C680 C679 1.502 . S
C681 H667 0.960 . S
C681 H668 0.961 . S
C681 H669 0.959 . S
C681 C679 1.561 . S
C682 C679 1.526 . S
C682 C683 1.396 . S
C682 C687 1.390 . S
C683 C677 1.465 . S
C683 C682 1.396 . S
C683 C684 1.399 . S
C684 H670 0.929 . S
C684 C683 1.399 . S
C684 C685 1.385 . S
C685 H671 0.931 . S
C685 C684 1.385 . S
C685 C686 1.389 . S
C686 C685 1.389 . S
C686 C687 1.387 . S
C687 H672 0.930 . S
C687 C682 1.390 . S
C687 C686 1.387 . S
H688 C700 0.930 . S
H689 C702 0.930 . S
H690 C703 0.930 . S
H691 C707 0.959 . S
H692 C707 0.959 . S
H693 C707 0.961 . S
H694 C708 0.960 1_655 S
H695 C708 0.961 1_655 S
H696 C708 0.959 . S
H697 C711 0.929 . S
H698 C712 0.931 . S
H699 C714 0.930 1_655 S
C700 H688 0.930 . S
C700 C701 1.399 1_656 S
C700 C705 1.396 1_655 S
C701 C700 1.399 1_454 S
C701 C702 1.376 . S
C702 H689 0.930 . S
C702 C701 1.376 . S
C702 C703 1.388 . S
C703 H690 0.930 . S
C703 C702 1.388 . S
C703 C704 1.390 . S
C704 C703 1.390 . S
C704 C705 1.401 1_554 S
C704 C710 1.465 . S
C705 C700 1.396 1_455 S
C705 C704 1.401 1_556 S
C705 C706 1.513 1_455 S
C706 C705 1.513 1_655 S
C706 C707 1.502 . S
C706 C708 1.561 1_655 S
C706 C709 1.526 1_655 S
C707 H691 0.959 . S
C707 H692 0.959 . S
C707 H693 0.961 . S
C707 C706 1.502 . S
C708 H694 0.960 1_455 S
C708 H695 0.961 1_455 S
C708 H696 0.959 . S
C708 C706 1.561 1_455 S
C709 C706 1.526 1_455 S
C709 C710 1.396 1_556 S
C709 C714 1.390 . S
C710 C704 1.465 . S
C710 C709 1.396 1_554 S
C710 C711 1.399 . S
C711 H697 0.929 . S
C711 C710 1.399 . S
C711 C712 1.385 . S
C712 H698 0.931 . S
C712 C711 1.385 . S
C712 C713 1.389 1_554 S
C713 C712 1.389 1_556 S
C713 C714 1.387 . S
C714 H699 0.930 1_455 S
C714 C709 1.390 . S
C714 C713 1.387 . S
H715 C727 0.930 . S
H716 C729 0.930 . S
H717 C730 0.930 . S
H718 C734 0.959 . S
H719 C734 0.959 . S
H720 C734 0.961 . S
H721 C735 0.960 . S
H722 C735 0.961 . S
H723 C735 0.959 . S
H724 C738 0.929 . S
H725 C739 0.931 . S
H726 C741 0.930 . S
C727 H715 0.930 . S
C727 C728 1.399 1_565 S
C727 C732 1.399 1_554 S
C728 C727 1.399 1_545 S
C728 C729 1.376 1_554 S
C729 H716 0.930 . S
C729 C728 1.376 1_556 S
C729 C730 1.388 . S
C730 H717 0.930 . S
C730 C729 1.388 . S
C730 C731 1.390 . S
C731 C730 1.390 . S
C731 C732 1.394 1_545 S
C731 C737 1.465 . S
C732 C727 1.399 1_556 S
C732 C731 1.394 1_565 S
C732 C733 1.516 . S
C733 C732 1.516 . S
C733 C734 1.502 1_556 S
C733 C735 1.561 . S
C733 C736 1.526 . S
C734 H718 0.959 . S
C734 H719 0.959 . S
C734 H720 0.961 . S
C734 C733 1.502 1_554 S
C735 H721 0.960 . S
C735 H722 0.961 . S
C735 H723 0.959 . S
C735 C733 1.561 . S
C736 C733 1.526 . S
C736 C737 1.396 1_565 S
C736 C741 1.390 . S
C737 C731 1.465 . S
C737 C736 1.396 1_545 S
C737 C738 1.399 . S
C738 H724 0.929 . S
C738 C737 1.399 . S
C738 C739 1.385 . S
C739 H725 0.931 . S
C739 C738 1.385 . S
C739 C740 1.389 . S
C740 C739 1.389 . S
C740 C741 1.387 1_545 S
C741 H726 0.930 . S
C741 C736 1.390 . S
C741 C740 1.387 1_565 S
H742 C754 0.930 . S
H743 C756 0.930 . S
H744 C757 0.930 . S
H745 C761 0.959 . S
H746 C761 0.959 . S
H747 C761 0.961 . S
H748 C762 0.960 . S
H749 C762 0.961 . S
H750 C762 0.959 . S
H751 C765 0.929 . S
H752 C766 0.931 . S
H753 C768 0.930 . S
C754 H742 0.930 . S
C754 C755 1.399 . S
C754 C759 1.399 . S
C755 C754 1.399 . S
C755 C756 1.376 . S
C756 H743 0.930 . S
C756 C755 1.376 . S
C756 C757 1.388 . S
C757 H744 0.930 . S
C757 C756 1.388 . S
C757 C758 1.390 . S
C758 C757 1.390 . S
C758 C759 1.394 . S
C758 C764 1.465 . S
C759 C754 1.399 . S
C759 C758 1.394 . S
C759 C760 1.516 . S
C760 C759 1.516 . S
C760 C761 1.502 . S
C760 C762 1.561 . S
C760 C763 1.526 . S
C761 H745 0.959 . S
C761 H746 0.959 . S
C761 H747 0.961 . S
C761 C760 1.502 . S
C762 H748 0.960 . S
C762 H749 0.961 . S
C762 H750 0.959 . S
C762 C760 1.561 . S
C763 C760 1.526 . S
C763 C764 1.396 . S
C763 C768 1.390 . S
C764 C758 1.465 . S
C764 C763 1.396 . S
C764 C765 1.399 . S
C765 H751 0.929 . S
C765 C764 1.399 . S
C765 C766 1.385 . S
C766 H752 0.931 . S
C766 C765 1.385 . S
C766 C767 1.389 . S
C767 C766 1.389 . S
C767 C768 1.387 . S
C768 H753 0.930 . S
C768 C763 1.390 . S
C768 C767 1.387 . S
H769 C781 0.930 . S
H770 C783 0.930 . S
H771 C784 0.930 . S
H772 C788 0.959 . S
H773 C788 0.959 . S
H774 C788 0.961 . S
H775 C789 0.960 . S
H776 C789 0.961 . S
H777 C789 0.959 . S
H778 C792 0.929 . S
H779 C793 0.931 . S
H780 C795 0.930 . S
C781 H769 0.930 . S
C781 C782 1.399 . S
C781 C786 1.399 1_554 S
C782 C781 1.399 . S
C782 C783 1.376 1_554 S
C783 H770 0.930 . S
C783 C782 1.376 1_556 S
C783 C784 1.388 . S
C784 H771 0.930 . S
C784 C783 1.388 . S
C784 C785 1.390 . S
C785 C784 1.390 . S
C785 C786 1.394 . S
C785 C791 1.465 . S
C786 C781 1.399 1_556 S
C786 C785 1.394 . S
C786 C787 1.516 . S
C787 C786 1.516 . S
C787 C788 1.502 1_556 S
C787 C789 1.561 . S
C787 C790 1.526 . S
C788 H772 0.959 . S
C788 H773 0.959 . S
C788 H774 0.961 . S
C788 C787 1.502 1_554 S
C789 H775 0.960 . S
C789 H776 0.961 . S
C789 H777 0.959 . S
C789 C787 1.561 . S
C790 C787 1.526 . S
C790 C791 1.396 . S
C790 C795 1.390 . S
C791 C785 1.465 . S
C791 C790 1.396 . S
C791 C792 1.399 . S
C792 H778 0.929 . S
C792 C791 1.399 . S
C792 C793 1.385 . S
C793 H779 0.931 . S
C793 C792 1.385 . S
C793 C794 1.389 . S
C794 C793 1.389 . S
C794 C795 1.387 . S
C795 H780 0.930 . S
C795 C790 1.390 . S
C795 C794 1.387 . S
H796 C808 0.930 . S
H797 C810 0.930 . S
H798 C811 0.930 . S
H799 C815 0.959 . S
H800 C815 0.959 . S
H801 C815 0.961 . S
H802 C816 0.960 . S
H803 C816 0.961 . S
H804 C816 0.959 . S
H805 C819 0.929 . S
H806 C820 0.931 . S
H807 C822 0.930 . S
C808 H796 0.930 . S
C808 C809 1.399 . S
C808 C813 1.399 . S
C809 C808 1.399 . S
C809 C810 1.376 . S
C810 H797 0.930 . S
C810 C809 1.376 . S
C810 C811 1.388 . S
C811 H798 0.930 . S
C811 C810 1.388 . S
C811 C812 1.390 . S
C812 C811 1.390 . S
C812 C813 1.394 . S
C812 C818 1.465 . S
C813 C808 1.399 . S
C813 C812 1.394 . S
C813 C814 1.516 . S
C814 C813 1.516 . S
C814 C815 1.502 1_655 S
C814 C816 1.561 . S
C814 C817 1.526 . S
C815 H799 0.959 . S
C815 H800 0.959 . S
C815 H801 0.961 . S
C815 C814 1.502 1_455 S
C816 H802 0.960 . S
C816 H803 0.961 . S
C816 H804 0.959 . S
C816 C814 1.561 . S
C817 C814 1.526 . S
C817 C818 1.396 . S
C817 C822 1.390 . S
C818 C812 1.465 . S
C818 C817 1.396 . S
C818 C819 1.399 . S
C819 H805 0.929 . S
C819 C818 1.399 . S
C819 C820 1.385 . S
C820 H806 0.931 . S
C820 C819 1.385 . S
C820 C821 1.389 . S
C821 C820 1.389 . S
C821 C822 1.387 . S
C822 H807 0.930 . S
C822 C817 1.390 . S
C822 C821 1.387 . S
H823 C835 0.930 . S
H824 C837 0.930 . S
H825 C838 0.930 . S
H826 C842 0.959 . S
H827 C842 0.959 . S
H828 C842 0.961 . S
H829 C843 0.960 . S
H830 C843 0.961 . S
H831 C843 0.959 1_545 S
H832 C846 0.929 . S
H833 C847 0.931 . S
H834 C849 0.930 . S
C835 H823 0.930 . S
C835 C836 1.399 1_565 S
C835 C840 1.399 . S
C836 C835 1.399 1_545 S
C836 C837 1.376 . S
C837 H824 0.930 . S
C837 C836 1.376 . S
C837 C838 1.388 . S
C838 H825 0.930 . S
C838 C837 1.388 . S
C838 C839 1.390 . S
C839 C838 1.390 . S
C839 C840 1.394 1_545 S
C839 C845 1.465 . S
C840 C835 1.399 . S
C840 C839 1.394 1_565 S
C840 C841 1.516 . S
C841 C840 1.516 . S
C841 C842 1.502 . S
C841 C843 1.561 . S
C841 C844 1.526 . S
C842 H826 0.959 . S
C842 H827 0.959 . S
C842 H828 0.961 . S
C842 C841 1.502 . S
C843 H829 0.960 . S
C843 H830 0.961 . S
C843 H831 0.959 1_565 S
C843 C841 1.561 . S
C844 C841 1.526 . S
C844 C845 1.396 1_565 S
C844 C849 1.390 . S
C845 C839 1.465 . S
C845 C844 1.396 1_545 S
C845 C846 1.399 . S
C846 H832 0.929 . S
C846 C845 1.399 . S
C846 C847 1.385 . S
C847 H833 0.931 . S
C847 C846 1.385 . S
C847 C848 1.389 1_545 S
C848 C847 1.389 1_565 S
C848 C849 1.387 . S
C849 H834 0.930 . S
C849 C844 1.390 . S
C849 C848 1.387 . S
H850 C862 0.930 . S
H851 C864 0.930 . S
H852 C865 0.930 . S
H853 C869 0.959 . S
H854 C869 0.959 . S
H855 C869 0.961 . S
H856 C870 0.960 . S
H857 C870 0.961 . S
H858 C870 0.959 . S
H859 C873 0.929 . S
H860 C874 0.931 . S
H861 C876 0.930 . S
C862 H850 0.930 . S
C862 C863 1.399 . S
C862 C867 1.399 . S
C863 C862 1.399 . S
C863 C864 1.376 . S
C864 H851 0.930 . S
C864 C863 1.376 . S
C864 C865 1.388 . S
C865 H852 0.930 . S
C865 C864 1.388 . S
C865 C866 1.390 . S
C866 C865 1.390 . S
C866 C867 1.394 . S
C866 C872 1.465 . S
C867 C862 1.399 . S
C867 C866 1.394 . S
C867 C868 1.516 . S
C868 C867 1.516 . S
C868 C869 1.502 . S
C868 C870 1.561 . S
C868 C871 1.526 . S
C869 H853 0.959 . S
C869 H854 0.959 . S
C869 H855 0.961 . S
C869 C868 1.502 . S
C870 H856 0.960 . S
C870 H857 0.961 . S
C870 H858 0.959 . S
C870 C868 1.561 . S
C871 C868 1.526 . S
C871 C872 1.396 . S
C871 C876 1.390 . S
C872 C866 1.465 . S
C872 C871 1.396 . S
C872 C873 1.399 . S
C873 H859 0.929 . S
C873 C872 1.399 . S
C873 C874 1.385 . S
C874 H860 0.931 . S
C874 C873 1.385 . S
C874 C875 1.389 . S
C875 C874 1.389 . S
C875 C876 1.387 . S
C876 H861 0.930 . S
C876 C871 1.390 . S
C876 C875 1.387 . S
H877 C889 0.930 . S
H878 C891 0.930 . S
H879 C892 0.930 . S
H880 C896 0.959 . S
H881 C896 0.959 . S
H882 C896 0.961 . S
H883 C897 0.960 . S
H884 C897 0.961 . S
H885 C897 0.959 . S
H886 C900 0.929 . S
H887 C901 0.931 . S
H888 C903 0.930 . S
C889 H877 0.930 . S
C889 C890 1.399 . S
C889 C894 1.399 . S
C890 C889 1.399 . S
C890 C891 1.376 . S
C891 H878 0.930 . S
C891 C890 1.376 . S
C891 C892 1.388 . S
C892 H879 0.930 . S
C892 C891 1.388 . S
C892 C893 1.390 . S
C893 C892 1.390 . S
C893 C894 1.394 . S
C893 C899 1.465 . S
C894 C889 1.399 . S
C894 C893 1.394 . S
C894 C895 1.516 . S
C895 C894 1.516 . S
C895 C896 1.502 . S
C895 C897 1.561 . S
C895 C898 1.526 . S
C896 H880 0.959 . S
C896 H881 0.959 . S
C896 H882 0.961 . S
C896 C895 1.502 . S
C897 H883 0.960 . S
C897 H884 0.961 . S
C897 H885 0.959 . S
C897 C895 1.561 . S
C898 C895 1.526 . S
C898 C899 1.396 . S
C898 C903 1.390 . S
C899 C893 1.465 . S
C899 C898 1.396 . S
C899 C900 1.399 . S
C900 H886 0.929 . S
C900 C899 1.399 . S
C900 C901 1.385 . S
C901 H887 0.931 . S
C901 C900 1.385 . S
C901 C902 1.389 . S
C902 C901 1.389 . S
C902 C903 1.387 . S
C903 H888 0.930 . S
C903 C898 1.390 . S
C903 C902 1.387 . S
C269 C76 1.848 1_545 S
C281 C119 2.037 . S
C308 C159 1.741 . S
C296 C88 1.739 . S
C335 C178 2.014 . S
C323 C52 1.847 . S
C362 C239 1.422 1_455 S
C350 C64 1.285 1_655 S
C389 C98 2.009 1_565 S
C377 C28 1.879 1_545 S
C404 C40 1.727 . S
C416 C138 1.727 . S
C431 C4 1.851 . S
C443 C199 2.045 . S
C458 C16 1.302 1_455 S
C470 C218 1.407 . S
C497 C100 0.792 . S
C485 C69 0.891 . S
C524 C140 0.371 . S
C512 C81 0.488 . S
C551 C196 0.967 . S
C539 C93 0.799 . S
C566 C57 0.470 . S
C578 C220 0.346 . S
C593 C21 0.889 . S
C605 C121 0.864 . S
C632 C161 0.357 . S
C620 C33 0.380 1_565 S
C659 C207 0.919 . S
C647 C45 0.827 . S
C674 C9 0.374 . S
C686 C241 0.510 . S
C701 C66 1.429 . S
C713 C116 1.629 . S
C728 C78 2.185 . S
C740 C156 2.372 . S
C767 C180 1.518 . S
C755 C90 1.459 . S
C794 C236 2.362 . S
C782 C54 2.171 . S
C809 C18 1.525 1_655 S
C821 C127 1.615 . S
C848 C167 2.361 . S
C836 C30 2.137 . S
C875 C201 1.514 . S
C863 C42 1.480 . S
C890 C6 2.178 . S
C902 C247 2.339 . S
