# Generated by pormake.
# Topology ptr, (4,4)-cn, num edge types: 1
# Building blocks:
#     Node 0, Type 0, BuildingBlock: UXUYUI_clean_sbu_0, # of connection points: 4
#     Node 1, Type 0, BuildingBlock: UXUYUI_clean_sbu_0, # of connection points: 4
#     Node 2, Type 0, BuildingBlock: UXUYUI_clean_sbu_0, # of connection points: 4
#     Node 3, Type 0, BuildingBlock: UXUYUI_clean_sbu_0, # of connection points: 4
#     Node 4, Type 0, BuildingBlock: UXUYUI_clean_sbu_0, # of connection points: 4
#     Node 5, Type 0, BuildingBlock: UXUYUI_clean_sbu_0, # of connection points: 4
#     Node 6, Type 0, BuildingBlock: UXUYUI_clean_sbu_0, # of connection points: 4
#     Node 7, Type 0, BuildingBlock: UXUYUI_clean_sbu_0, # of connection points: 4
#     Node 8, Type 0, BuildingBlock: UXUYUI_clean_sbu_0, # of connection points: 4
#     Node 9, Type 0, BuildingBlock: UXUYUI_clean_sbu_0, # of connection points: 4
#     Node 10, Type 0, BuildingBlock: UXUYUI_clean_sbu_0, # of connection points: 4
#     Node 11, Type 0, BuildingBlock: UXUYUI_clean_sbu_0, # of connection points: 4
#     Node 12, Type 0, BuildingBlock: UXUYUI_clean_sbu_0, # of connection points: 4
#     Node 13, Type 0, BuildingBlock: UXUYUI_clean_sbu_0, # of connection points: 4
#     Node 14, Type 0, BuildingBlock: UXUYUI_clean_sbu_0, # of connection points: 4
#     Node 15, Type 0, BuildingBlock: UXUYUI_clean_sbu_0, # of connection points: 4
#     Node 16, Type 0, BuildingBlock: UXUYUI_clean_sbu_0, # of connection points: 4
#     Node 17, Type 0, BuildingBlock: UXUYUI_clean_sbu_0, # of connection points: 4
#     Node 18, Type 1, BuildingBlock: MUDLON_clean_linker_0, # of connection points: 4
#     Node 19, Type 1, BuildingBlock: MUDLON_clean_linker_0, # of connection points: 4
#     Node 20, Type 1, BuildingBlock: MUDLON_clean_linker_0, # of connection points: 4
#     Node 21, Type 1, BuildingBlock: MUDLON_clean_linker_0, # of connection points: 4
#     Node 22, Type 1, BuildingBlock: MUDLON_clean_linker_0, # of connection points: 4
#     Node 23, Type 1, BuildingBlock: MUDLON_clean_linker_0, # of connection points: 4
#     Node 24, Type 1, BuildingBlock: MUDLON_clean_linker_0, # of connection points: 4
#     Node 25, Type 1, BuildingBlock: MUDLON_clean_linker_0, # of connection points: 4
#     Node 26, Type 1, BuildingBlock: MUDLON_clean_linker_0, # of connection points: 4
#     Node 27, Type 1, BuildingBlock: MUDLON_clean_linker_0, # of connection points: 4
#     Node 28, Type 1, BuildingBlock: MUDLON_clean_linker_0, # of connection points: 4
#     Node 29, Type 1, BuildingBlock: MUDLON_clean_linker_0, # of connection points: 4
#     Node 30, Type 1, BuildingBlock: MUDLON_clean_linker_0, # of connection points: 4
#     Node 31, Type 1, BuildingBlock: MUDLON_clean_linker_0, # of connection points: 4
#     Node 32, Type 1, BuildingBlock: MUDLON_clean_linker_0, # of connection points: 4
#     Node 33, Type 1, BuildingBlock: MUDLON_clean_linker_0, # of connection points: 4
#     Node 34, Type 1, BuildingBlock: MUDLON_clean_linker_0, # of connection points: 4
#     Node 35, Type 1, BuildingBlock: MUDLON_clean_linker_0, # of connection points: 4
#     Edge 36, Type (0, 1), None
#     Edge 37, Type (0, 1), None
#     Edge 38, Type (0, 1), None
#     Edge 39, Type (0, 1), None
#     Edge 40, Type (0, 1), None
#     Edge 41, Type (0, 1), None
#     Edge 42, Type (0, 1), None
#     Edge 43, Type (0, 1), None
#     Edge 44, Type (0, 1), None
#     Edge 45, Type (0, 1), None
#     Edge 46, Type (0, 1), None
#     Edge 47, Type (0, 1), None
#     Edge 48, Type (0, 1), None
#     Edge 49, Type (0, 1), None
#     Edge 50, Type (0, 1), None
#     Edge 51, Type (0, 1), None
#     Edge 52, Type (0, 1), None
#     Edge 53, Type (0, 1), None
#     Edge 54, Type (0, 1), None
#     Edge 55, Type (0, 1), None
#     Edge 56, Type (0, 1), None
#     Edge 57, Type (0, 1), None
#     Edge 58, Type (0, 1), None
#     Edge 59, Type (0, 1), None
#     Edge 60, Type (0, 1), None
#     Edge 61, Type (0, 1), None
#     Edge 62, Type (0, 1), None
#     Edge 63, Type (0, 1), None
#     Edge 64, Type (0, 1), None
#     Edge 65, Type (0, 1), None
#     Edge 66, Type (0, 1), None
#     Edge 67, Type (0, 1), None
#     Edge 68, Type (0, 1), None
#     Edge 69, Type (0, 1), None
#     Edge 70, Type (0, 1), None
#     Edge 71, Type (0, 1), None
#     Edge 72, Type (0, 1), None
#     Edge 73, Type (0, 1), None
#     Edge 74, Type (0, 1), None
#     Edge 75, Type (0, 1), None
#     Edge 76, Type (0, 1), None
#     Edge 77, Type (0, 1), None
#     Edge 78, Type (0, 1), None
#     Edge 79, Type (0, 1), None
#     Edge 80, Type (0, 1), None
#     Edge 81, Type (0, 1), None
#     Edge 82, Type (0, 1), None
#     Edge 83, Type (0, 1), None
#     Edge 84, Type (0, 1), None
#     Edge 85, Type (0, 1), None
#     Edge 86, Type (0, 1), None
#     Edge 87, Type (0, 1), None
#     Edge 88, Type (0, 1), None
#     Edge 89, Type (0, 1), None
#     Edge 90, Type (0, 1), None
#     Edge 91, Type (0, 1), None
#     Edge 92, Type (0, 1), None
#     Edge 93, Type (0, 1), None
#     Edge 94, Type (0, 1), None
#     Edge 95, Type (0, 1), None
#     Edge 96, Type (0, 1), None
#     Edge 97, Type (0, 1), None
#     Edge 98, Type (0, 1), None
#     Edge 99, Type (0, 1), None
#     Edge 100, Type (0, 1), None
#     Edge 101, Type (0, 1), None
#     Edge 102, Type (0, 1), None
#     Edge 103, Type (0, 1), None
#     Edge 104, Type (0, 1), None
#     Edge 105, Type (0, 1), None
#     Edge 106, Type (0, 1), None
#     Edge 107, Type (0, 1), None
# Relax obj value: 0.079
# Max RMSD: 0.226
# Mean RMSD: 0.109
data_MOF--net-ptr--node1-UXUYUI_clean_sbu_0--node2-MUDLON_clean_linker_0--edge1-none
_symmetry_space_group_name_H-M    P1
_symmetry_Int_Tables_number       1
_symmetry_cell_setting            triclinic
loop_
_symmetry_equiv_pos_as_xyz
'x, y, z'
_cell_length_a     81.384033
_cell_length_b     81.394922
_cell_length_c     45.621551
_cell_angle_alpha  90.006174
_cell_angle_beta   89.997255
_cell_angle_gamma 120.01569
loop_
_atom_site_label
_atom_site_type_symbol
_atom_site_fract_x
_atom_site_fract_y
_atom_site_fract_z
_atom_type_partial_charge
Li0 Li 0.98451 0.3448 0.00385 0.0
Li1 Li 0.01861 0.3623 0.01713 0.0
Li2 Li 0.99658 0.37255 0.03584 0.0
Li3 Li 0.00582 0.37732 0.98517 0.0
C4 C 0.98378 0.33844 0.06522 0.0
N5 N 0.95885 0.31927 0.11037 0.0
C6 C 0.98974 0.33213 0.08927 0.0
C7 C 0.96519 0.33507 0.06414 0.0
C8 C 0.9769 0.32244 0.11187 0.0
C9 C 0.95279 0.32534 0.08718 0.0
C10 C 0.02008 0.35722 0.9562 0.0
C11 C 0.05129 0.37651 0.93557 0.0
N12 N 0.04622 0.3645 0.91229 0.0
C13 C 0.01515 0.34508 0.93208 0.0
C14 C 0.03827 0.37308 0.95799 0.0
C15 C 0.02858 0.34899 0.9101 0.0
C16 C 0.9521 0.31808 0.97281 0.0
N17 N 0.96466 0.32025 0.99417 0.0
C18 C 0.95225 0.28678 0.99647 0.0
C19 C 0.96474 0.30509 0.00648 0.0
C20 C 0.93972 0.28411 0.97337 0.0
C21 C 0.93936 0.30001 0.96209 0.0
H22 H 0.95263 0.33047 0.96312 0.0
H23 H 0.97508 0.3073 0.02317 0.0
C24 C 0.05105 0.36866 0.04877 0.0
N25 N 0.03886 0.35824 0.02704 0.0
C26 C 0.06387 0.36357 0.05994 0.0
C27 C 0.05189 0.33771 0.02513 0.0
C28 C 0.03929 0.34327 0.01471 0.0
C29 C 0.06397 0.34753 0.0487 0.0
H30 H 0.05011 0.3803 0.05847 0.0
H31 H 0.02921 0.33508 0.99773 0.0
C32 C 0.96786 0.37332 0.99876 0.0
N33 N 0.94356 0.38767 0.99393 0.0
C34 C 0.97497 0.39242 0.99179 0.0
C35 C 0.94836 0.36146 0.00292 0.0
C36 C 0.96246 0.39942 0.98954 0.0
C37 C 0.93631 0.369 0.00049 0.0
C38 C 0.03322 0.40739 0.02237 0.0
C39 C 0.02452 0.41817 0.02772 0.0
C40 C 0.05296 0.41641 0.01979 0.0
C41 C 0.03572 0.43788 0.03003 0.0
C42 C 0.06366 0.43615 0.02221 0.0
N43 N 0.05489 0.44638 0.02722 0.0
C44 C 0.00397 0.38583 0.09243 0.0
C45 C 0.97792 0.38743 0.07253 0.0
C46 C 0.00264 0.39395 0.11857 0.0
N47 N 0.99179 0.38284 0.07005 0.0
C48 C 0.97616 0.39575 0.09825 0.0
C49 C 0.98872 0.39923 0.12167 0.0
H50 H 0.0148 0.38194 0.08983 0.0
H51 H 0.96833 0.3849 0.05457 0.0
C52 C 0.9973 0.38323 0.92935 0.0
N53 N 0.01008 0.39234 0.95108 0.0
C54 C 0.99824 0.39262 0.90333 0.0
C55 C 0.02561 0.42067 0.92239 0.0
C56 C 0.02421 0.41065 0.94802 0.0
C57 C 0.01243 0.41168 0.89964 0.0
H58 H 0.98629 0.36861 0.93238 0.0
H59 H 0.03434 0.4176 0.9654 0.0
O60 O 0.99626 0.34819 0.04315 0.0
O61 O 0.00699 0.35372 0.97765 0.0
O62 O 0.97978 0.36608 0.00091 0.0
O63 O 0.0226 0.38808 0.02012 0.0
H64 H 0.00413 0.33473 0.09045 0.0
H65 H 0.96042 0.33998 0.04578 0.0
H66 H 0.9813 0.31745 0.13063 0.0
H67 H 0.93836 0.32264 0.08664 0.0
H68 H 0.06542 0.38874 0.93665 0.0
H69 H 0.00107 0.33279 0.93035 0.0
H70 H 0.04228 0.38268 0.97642 0.0
H71 H 0.02496 0.33973 0.89129 0.0
H72 H 0.95289 0.27492 0.00594 0.0
H73 H 0.93017 0.29865 0.94396 0.0
H74 H 0.07271 0.37137 0.0784 0.0
H75 H 0.05161 0.32537 0.01568 0.0
H76 H 0.98995 0.40176 0.98805 0.0
H77 H 0.94258 0.34658 0.008 0.0
H78 H 0.96778 0.41419 0.98424 0.0
H79 H 0.9212 0.36 0.00378 0.0
H80 H 0.00931 0.41144 0.03016 0.0
H81 H 0.05992 0.40825 0.01586 0.0
H82 H 0.02916 0.4464 0.03409 0.0
H83 H 0.07895 0.44333 0.02014 0.0
H84 H 0.01237 0.39595 0.13621 0.0
H85 H 0.96531 0.39971 0.09954 0.0
H86 H 0.98804 0.38493 0.88619 0.0
H87 H 0.03671 0.43537 0.92062 0.0
Li88 Li 0.65979 0.6386 0.0078 0.0
Li89 Li 0.64289 0.6549 0.02266 0.0
Li90 Li 0.63352 0.62225 0.04197 0.0
Li91 Li 0.62617 0.62642 0.99144 0.0
C92 C 0.67439 0.65082 0.06062 0.0
N93 N 0.70875 0.65899 0.08504 0.0
C94 C 0.68778 0.66949 0.06798 0.0
C95 C 0.67838 0.63628 0.06609 0.0
C96 C 0.70509 0.67334 0.08021 0.0
C97 C 0.69584 0.64069 0.07833 0.0
C98 C 0.65066 0.66511 0.96441 0.0
C99 C 0.63594 0.67831 0.9338 0.0
N100 N 0.6533 0.69354 0.92808 0.0
C101 C 0.66837 0.68078 0.95785 0.0
C102 C 0.63433 0.66377 0.95198 0.0
C103 C 0.6694 0.69505 0.9396 0.0
C104 C 0.68757 0.63027 0.98429 0.0
N105 N 0.68425 0.64384 0.99542 0.0
C106 C 0.71566 0.66813 0.98329 0.0
C107 C 0.69799 0.66238 0.99576 0.0
C108 C 0.71945 0.65462 0.97053 0.0
C109 C 0.70523 0.63536 0.97191 0.0
H110 H 0.67633 0.61561 0.98411 0.0
H111 H 0.69492 0.67286 0.0047 0.0
C112 C 0.63423 0.68301 0.04467 0.0
N113 N 0.64744 0.67963 0.03224 0.0
C114 C 0.63924 0.7013 0.05406 0.0
C115 C 0.67133 0.71214 0.03799 0.0
C116 C 0.66559 0.69381 0.0283 0.0
C117 C 0.65819 0.71614 0.05157 0.0
H118 H 0.61998 0.67145 0.04827 0.0
H119 H 0.6759 0.69066 0.0189 0.0
C120 C 0.63172 0.59305 0.00954 0.0
N121 N 0.61781 0.55467 0.01778 0.0
C122 C 0.61327 0.57987 0.00075 0.0
C123 C 0.64318 0.58667 0.02212 0.0
C124 C 0.60648 0.56054 0.0052 0.0
C125 C 0.63587 0.56723 0.02622 0.0
C126 C 0.59926 0.63016 0.02581 0.0
C127 C 0.58382 0.61488 0.03954 0.0
C128 C 0.5964 0.64314 0.00972 0.0
C129 C 0.56573 0.61266 0.03652 0.0
C130 C 0.57811 0.64043 0.0072 0.0
N131 N 0.56327 0.62536 0.02051 0.0
C132 C 0.6333 0.61247 0.10151 0.0
C133 C 0.60758 0.58926 0.07364 0.0
C134 C 0.62589 0.60179 0.12701 0.0
N135 N 0.62406 0.60613 0.07553 0.0
C136 C 0.59961 0.57815 0.09861 0.0
C137 C 0.60866 0.58452 0.12583 0.0
H138 H 0.6461 0.62614 0.10268 0.0
H139 H 0.60022 0.58471 0.05296 0.0
C140 C 0.61889 0.61563 0.93359 0.0
N141 N 0.6097 0.61494 0.95881 0.0
C142 C 0.6087 0.60748 0.90799 0.0
C143 C 0.57965 0.598 0.93467 0.0
C144 C 0.59042 0.60624 0.95988 0.0
C145 C 0.58881 0.5985 0.90834 0.0
H146 H 0.63422 0.62255 0.93345 0.0
H147 H 0.58333 0.60538 0.98024 0.0
O148 O 0.65748 0.64675 0.04809 0.0
O149 O 0.64939 0.65098 0.98228 0.0
O150 O 0.63864 0.61204 0.00526 0.0
O151 O 0.61706 0.63247 0.02844 0.0
H152 H 0.68487 0.68091 0.06436 0.0
H153 H 0.66807 0.62175 0.06092 0.0
H154 H 0.71562 0.68775 0.08587 0.0
H155 H 0.69913 0.62957 0.08253 0.0
H156 H 0.62339 0.67745 0.92417 0.0
H157 H 0.68122 0.68199 0.96677 0.0
H158 H 0.62054 0.65159 0.9561 0.0
H159 H 0.68302 0.70731 0.93455 0.0
H160 H 0.72583 0.68316 0.98238 0.0
H161 H 0.70749 0.62436 0.96283 0.0
H162 H 0.62845 0.70356 0.06392 0.0
H163 H 0.68619 0.72273 0.03613 0.0
H164 H 0.60418 0.58449 0.99096 0.0
H165 H 0.65762 0.59659 0.02851 0.0
H166 H 0.59217 0.55021 0.99872 0.0
H167 H 0.64457 0.56212 0.03604 0.0
H168 H 0.58574 0.60481 0.05234 0.0
H169 H 0.6082 0.65529 -0.00044 0.0
H170 H 0.55366 0.60084 0.04691 0.0
H171 H 0.57572 0.65036 0.99476 0.0
H172 H 0.63314 0.60742 0.14763 0.0
H173 H 0.58631 0.56492 0.09673 0.0
H174 H 0.61632 0.60836 0.88804 0.0
H175 H 0.56432 0.59101 0.93589 0.0
Li176 Li 0.36704 0.99044 0.97806 0.0
Li177 Li 0.37355 0.00041 0.02883 0.0
Li178 Li 0.33989 0.97974 0.0105 0.0
Li179 Li 0.35815 0.01376 0.99741 0.0
C180 C 0.36709 0.96181 0.00582 0.0
N181 N 0.3801 0.93769 0.98924 0.0
C182 C 0.38541 0.96597 0.0134 0.0
C183 C 0.35528 0.94526 0.99018 0.0
C184 C 0.39175 0.95362 0.00472 0.0
C185 C 0.36215 0.93328 0.98189 0.0
C186 C 0.39962 0.03399 0.99846 0.0
C187 C 0.41431 0.0649 0.02111 0.0
N188 N 0.43123 0.069 0.00906 0.0
C189 C 0.41711 0.03858 0.98604 0.0
C190 C 0.39816 0.04731 0.01591 0.0
C191 C 0.43294 0.05632 0.99177 0.0
C192 C 0.36769 0.97842 0.91959 0.0
N193 N 0.37756 0.98457 0.94508 0.0
C194 C 0.40463 0.98539 0.9231 0.0
C195 C 0.39566 0.98799 0.94728 0.0
C196 C 0.39495 0.97943 0.89624 0.0
C197 C 0.37612 0.97569 0.89481 0.0
H198 H 0.35347 0.97618 0.91817 0.0
H199 H 0.40328 0.99312 0.96771 0.0
C200 C 0.38 0.99481 0.08647 0.0
N201 N 0.3893 0.00431 0.06188 0.0
C202 C 0.39007 0.99625 0.11198 0.0
C203 C 0.41919 0.01722 0.08642 0.0
C204 C 0.40854 0.01526 0.06128 0.0
C205 C 0.40993 0.00759 0.11217 0.0
H206 H 0.3647 0.98609 0.0862 0.0
H207 H 0.41568 0.02231 0.04132 0.0
C208 C 0.32713 0.98227 0.9557 0.0
N209 N 0.29337 0.9632 0.92518 0.0
C210 C 0.31782 0.99187 0.9465 0.0
C211 C 0.31935 0.96302 0.94921 0.0
C212 C 0.30074 0.98197 0.93113 0.0
C213 C 0.30225 0.95361 0.93381 0.0
C214 C 0.3468 0.01078 0.05931 0.0
C215 C 0.32805 0.00496 0.06703 0.0
C216 C 0.36166 0.02499 0.07564 0.0
C217 C 0.32447 0.01372 0.09054 0.0
C218 C 0.3575 0.03339 0.09903 0.0
N219 N 0.33915 0.02764 0.10591 0.0
C220 C 0.31285 0.94665 0.0403 0.0
C221 C 0.30024 0.96356 0.01577 0.0
C222 C 0.29534 0.93491 0.05374 0.0
N223 N 0.31504 0.96089 0.02225 0.0
C224 C 0.28249 0.95204 0.02839 0.0
C225 C 0.28 0.93791 0.04851 0.0
H226 H 0.32497 0.9451 0.04553 0.0
H227 H 0.30245 0.97536 0.00219 0.0
C228 C 0.36546 0.0475 0.96798 0.0
N229 N 0.35432 0.03437 0.98823 0.0
C230 C 0.36057 0.06059 0.95735 0.0
C231 C 0.33325 0.04681 0.98939 0.0
C232 C 0.33866 0.03401 0.99936 0.0
C233 C 0.34393 0.05995 0.96745 0.0
H234 H 0.37759 0.04717 0.95899 0.0
H235 H 0.32972 0.02308 0.0147 0.0
O236 O 0.36073 0.97386 0.01376 0.0
O237 O 0.38401 0.01665 0.99309 0.0
O238 O 0.34376 0.99172 0.97103 0.0
O239 O 0.35053 0.0021 0.03661 0.0
H240 H 0.39471 0.97871 0.02556 0.0
H241 H 0.34097 0.94171 0.98451 0.0
H242 H 0.40595 0.95674 0.01024 0.0
H243 H 0.35321 0.92047 0.96964 0.0
H244 H 0.41337 0.07532 0.03463 0.0
H245 H 0.41846 0.02851 0.97225 0.0
H246 H 0.38468 0.0442 0.02508 0.0
H247 H 0.44658 0.06001 0.98244 0.0
H248 H 0.41909 0.98828 0.92532 0.0
H249 H 0.36822 0.97143 0.87446 0.0
H250 H 0.38236 0.98877 0.13147 0.0
H251 H 0.43451 0.02593 0.08559 0.0
H252 H 0.32369 0.00681 0.95118 0.0
H253 H 0.3264 0.95541 0.95612 0.0
H254 H 0.29335 0.9892 0.92394 0.0
H255 H 0.29602 0.93869 0.92874 0.0
H256 H 0.31635 0.99387 0.05489 0.0
H257 H 0.37626 0.02938 0.07061 0.0
H258 H 0.31002 0.00942 0.0966 0.0
H259 H 0.36888 0.04441 0.1118 0.0
H260 H 0.29421 0.92439 0.0694 0.0
H261 H 0.27105 0.95476 0.02339 0.0
H262 H 0.36904 0.07026 0.94008 0.0
H263 H 0.32035 0.04586 0.99781 0.0
Li264 Li 0.01599 0.65504 0.0185 0.0
Li265 Li 0.99331 0.6238 0.03825 0.0
Li266 Li 0.00227 0.62799 0.9858 0.0
Li267 Li 0.98147 0.63922 0.00373 0.0
C268 C 0.03721 0.63873 0.0264 0.0
N269 N 0.07518 0.65316 0.03914 0.0
C270 C 0.04259 0.63311 0.05189 0.0
C271 C 0.05114 0.65155 0.00727 0.0
C272 C 0.06186 0.6406 0.05797 0.0
C273 C 0.07026 0.65873 0.01413 0.0
C274 C 0.98607 0.65147 0.06769 0.0
C275 C 0.95993 0.65031 0.09454 0.0
N276 N 0.97172 0.65914 0.11756 0.0
C277 C 0.99796 0.66081 0.09147 0.0
C278 C 0.96694 0.64643 0.06911 0.0
C279 C 0.99042 0.66444 0.11654 0.0
C280 C 0.0415 0.69479 0.01422 0.0
N281 N 0.03684 0.67888 0.02997 0.0
C282 C 0.05802 0.69728 0.06836 0.0
C283 C 0.04512 0.67978 0.05623 0.0
C284 C 0.06251 0.71411 0.05336 0.0
C285 C 0.05446 0.71267 0.0255 0.0
H286 H 0.03452 0.69366 0.99352 0.0
H287 H 0.04089 0.66694 0.06856 0.0
C288 C 0.97837 0.58944 0.07181 0.0
N289 N 0.98928 0.60869 0.07229 0.0
C290 C 0.97693 0.57882 0.09677 0.0
C291 C 0.99845 0.60798 0.12179 0.0
C292 C 0.99931 0.618 0.09653 0.0
C293 C 0.98718 0.58812 0.12211 0.0
H294 H 0.97106 0.58229 0.05194 0.0
H295 H 0.00847 0.6332 0.09593 0.0
C296 C 0.00708 0.65533 0.9497 0.0
N297 N 0.01163 0.6585 0.88958 0.0
C298 C 0.99121 0.64769 0.93134 0.0
C299 C 0.02527 0.66473 0.93751 0.0
C300 C 0.9938 0.6494 0.901 0.0
C301 C 0.02727 0.66614 0.90705 0.0
C302 C 0.95756 0.59984 0.00921 0.0
C303 C 0.94612 0.58619 0.98855 0.0
C304 C 0.94982 0.60053 0.03621 0.0
C305 C 0.92708 0.57361 0.99513 0.0
C306 C 0.93073 0.58771 0.04199 0.0
N307 N 0.91984 0.57464 0.02149 0.0
C308 C 0.02325 0.61734 0.94734 0.0
C309 C 0.99134 0.60677 0.93411 0.0
C310 C 0.02568 0.60872 0.92251 0.0
N311 N 0.0063 0.6163 0.95253 0.0
C312 C 0.99307 0.59782 0.9092 0.0
C313 C 0.01043 0.59879 0.90309 0.0
H314 H 0.03489 0.62486 0.9624 0.0
H315 H 0.97811 0.60637 0.93859 0.0
C316 C 0.97007 0.66453 0.98877 0.0
N317 N 0.96276 0.64558 0.99253 0.0
C318 C 0.95902 0.67152 0.97685 0.0
C319 C 0.93267 0.63942 0.97412 0.0
C320 C 0.94434 0.63301 0.9859 0.0
C321 C 0.9401 0.65891 0.96879 0.0
H322 H 0.98483 0.67417 0.99393 0.0
H323 H 0.9388 0.61799 0.9888 0.0
O324 O 0.0184 0.63176 0.0203 0.0
O325 O 0.99327 0.64808 0.0427 0.0
O326 O 0.00482 0.65344 0.97944 0.0
O327 O 0.97621 0.61236 0.00295 0.0
H328 H 0.03202 0.62305 0.0668 0.0
H329 H 0.04722 0.65608 0.98751 0.0
H330 H 0.06623 0.63641 0.07765 0.0
H331 H 0.08119 0.66876 -0.0004 0.0
H332 H 0.94514 0.64636 0.09594 0.0
H333 H 0.01284 0.66516 0.09074 0.0
H334 H 0.95755 0.63962 0.05077 0.0
H335 H 0.99946 0.67152 0.13515 0.0
H336 H 0.06348 0.69756 0.09011 0.0
H337 H 0.05763 0.72522 0.01298 0.0
H338 H 0.96827 0.5635 0.09605 0.0
H339 H 0.00651 0.6157 0.1409 0.0
H340 H 0.97702 0.64027 0.9404 0.0
H341 H 0.03771 0.67088 0.9514 0.0
H342 H 0.98165 0.64344 0.88652 0.0
H343 H 0.04126 0.67331 0.8973 0.0
H344 H 0.95185 0.58529 0.96761 0.0
H345 H 0.9585 0.61066 0.05269 0.0
H346 H 0.91807 0.56303 0.97929 0.0
H347 H 0.92459 0.58811 0.06283 0.0
H348 H 0.03927 0.60971 0.91862 0.0
H349 H 0.98107 0.5906 0.89452 0.0
H350 H 0.96559 0.6866 0.97268 0.0
H351 H 0.91813 0.62916 0.9686 0.0
Li352 Li 0.34835 0.36257 0.0249 0.0
Li353 Li 0.38019 0.37119 0.04515 0.0
Li354 Li 0.37527 0.37527 0.9917 0.0
Li355 Li 0.36366 0.34376 0.01203 0.0
C356 C 0.36641 0.40062 0.03522 0.0
N357 N 0.35481 0.42554 0.05369 0.0
C358 C 0.37025 0.40776 0.06381 0.0
C359 C 0.35685 0.4063 0.01595 0.0
C360 C 0.36423 0.42032 0.07274 0.0
C361 C 0.35104 0.41886 0.02573 0.0
C362 C 0.34594 0.33086 0.06599 0.0
C363 C 0.34533 0.30395 0.08936 0.0
N364 N 0.32642 0.29625 0.09433 0.0
C365 C 0.32649 0.32269 0.07149 0.0
C366 C 0.35545 0.32144 0.07515 0.0
C367 C 0.31688 0.30519 0.08579 0.0
C368 C 0.30912 0.34803 0.01803 0.0
N369 N 0.32445 0.3601 0.03435 0.0
C370 C 0.30451 0.36317 0.0697 0.0
C371 C 0.3225 0.3678 0.05962 0.0
C372 C 0.28839 0.35002 0.05408 0.0
C373 C 0.29081 0.34267 0.02766 0.0
H374 H 0.31104 0.34166 0.99848 0.0
H375 H 0.33479 0.3766 0.07293 0.0
C376 C 0.41175 0.39935 0.07673 0.0
N377 N 0.39609 0.3818 0.07835 0.0
C378 C 0.42254 0.40788 0.10184 0.0
C379 C 0.40113 0.37988 0.12948 0.0
C380 C 0.39068 0.37199 0.10396 0.0
C381 C 0.41719 0.39813 0.1287 0.0
H382 H 0.41557 0.40687 0.05606 0.0
H383 H 0.37801 0.3582 0.1047 0.0
C384 C 0.34534 0.35261 0.95801 0.0
N385 N 0.33697 0.35364 0.89959 0.0
C386 C 0.3474 0.3409 0.93772 0.0
C387 C 0.33876 0.36465 0.94867 0.0
C388 C 0.34316 0.34168 0.90826 0.0
C389 C 0.33468 0.36502 0.91902 0.0
C390 C 0.4046 0.36066 0.01161 0.0
C391 C 0.41647 0.3638 0.98756 0.0
C392 C 0.40763 0.35353 0.03763 0.0
C393 C 0.43093 0.35935 0.98978 0.0
C394 C 0.42225 0.34928 0.03902 0.0
N395 N 0.43348 0.35223 0.01525 0.0
C396 C 0.39109 0.40842 0.95571 0.0
C397 C 0.39048 0.38135 0.93527 0.0
C398 C 0.39943 0.41884 0.93023 0.0
N399 N 0.38669 0.39 0.9576 0.0
C400 C 0.39862 0.39114 0.90937 0.0
C401 C 0.40322 0.41017 0.90651 0.0
H402 H 0.38821 0.41504 0.974 0.0
H403 H 0.38703 0.36675 0.93755 0.0
C404 C 0.34001 0.30425 0.00618 0.0
N405 N 0.35788 0.31877 0.00095 0.0
C406 C 0.33377 0.28642 0.99383 0.0
C407 C 0.36433 0.29872 0.97052 0.0
C408 C 0.37012 0.31624 0.98383 0.0
C409 C 0.34574 0.28359 0.97484 0.0
H410 H 0.3302 0.30673 0.01865 0.0
H411 H 0.38392 0.32811 0.97882 0.0
O412 O 0.37217 0.3883 0.02609 0.0
O413 O 0.35557 0.348 0.05194 0.0
O414 O 0.34969 0.35226 0.98687 0.0
O415 O 0.39041 0.365 0.00976 0.0
H416 H 0.37763 0.40353 0.07903 0.0
H417 H 0.35392 0.40104 0.99369 0.0
H418 H 0.36701 0.42588 0.09484 0.0
H419 H 0.34355 0.42331 0.01108 0.0
H420 H 0.35252 0.29649 0.0964 0.0
H421 H 0.31883 0.32971 0.0648 0.0
H422 H 0.37043 0.32742 0.07114 0.0
H423 H 0.30183 0.29872 0.09009 0.0
H424 H 0.30318 0.36876 0.09055 0.0
H425 H 0.27866 0.33234 0.01523 0.0
H426 H 0.43488 0.42193 0.10031 0.0
H427 H 0.39634 0.372 0.14981 0.0
H428 H 0.35239 0.33144 0.94459 0.0
H429 H 0.33685 0.37361 0.96416 0.0
H430 H 0.34481 0.33279 0.89228 0.0
H431 H 0.32968 0.37435 0.91146 0.0
H432 H 0.41448 0.36952 0.96733 0.0
H433 H 0.39894 0.35148 0.05665 0.0
H434 H 0.44013 0.36159 0.97128 0.0
H435 H 0.42472 0.34372 0.05903 0.0
H436 H 0.40298 0.43354 0.92923 0.0
H437 H 0.40097 0.38373 0.8916 0.0
H438 H 0.3194 0.2752 0.99819 0.0
H439 H 0.37399 0.2975 0.95556 0.0
Li440 Li 0.63914 0.98115 0.01622 0.0
Li441 Li 0.62664 0.00062 0.03268 0.0
Li442 Li 0.62276 0.99103 0.98091 0.0
Li443 Li 0.6536 0.01453 0.0013 0.0
C444 C 0.60041 0.95584 0.00784 0.0
N445 N 0.57693 0.91877 0.99013 0.0
C446 C 0.58495 0.94347 0.02515 0.0
C447 C 0.60386 0.94937 0.98146 0.0
C448 C 0.57327 0.92477 0.01585 0.0
C449 C 0.59185 0.93059 0.97288 0.0
C450 C 0.65304 0.0074 0.07004 0.0
C451 C 0.6598 0.02851 0.11109 0.0
N452 N 0.6532 0.01345 0.12966 0.0
C453 C 0.64637 0.99213 0.08952 0.0
C454 C 0.65987 0.02575 0.08087 0.0
C455 C 0.64656 0.99549 0.11959 0.0
C456 C 0.66453 0.9714 0.03803 0.0
N457 N 0.64633 0.96301 0.02825 0.0
C458 C 0.64172 0.93235 0.04039 0.0
C459 C 0.63488 0.94381 0.02915 0.0
C460 C 0.66048 0.94075 0.05073 0.0
C461 C 0.67194 0.96055 0.04918 0.0
H462 H 0.6732 0.98668 0.03793 0.0
H463 H 0.62036 0.93731 0.02189 0.0
C464 C 0.61629 0.02156 0.07164 0.0
N465 N 0.61421 0.00431 0.06521 0.0
C466 C 0.60784 0.0239 0.09675 0.0
C467 C 0.59482 0.99057 0.10751 0.0
C468 C 0.60364 0.98893 0.08239 0.0
C469 C 0.597 0.00827 0.1151 0.0
H470 H 0.62476 0.03355 0.05759 0.0
H471 H 0.60246 0.97546 0.07692 0.0
C472 C 0.66039 0.9874 0.96635 0.0
N473 N 0.6866 0.97758 0.94722 0.0
C474 C 0.67886 0.99665 0.97755 0.0
C475 C 0.65529 0.97312 0.94536 0.0
C476 C 0.69189 0.9915 0.96764 0.0
C477 C 0.66874 0.96837 0.93598 0.0
C478 C 0.63721 0.03403 0.9862 0.0
C479 C 0.63355 0.0363 0.95698 0.0
C480 C 0.64852 0.05003 0.00333 0.0
C481 C 0.64141 0.05457 0.94532 0.0
C482 C 0.65614 0.06805 0.99084 0.0
N483 N 0.65246 0.06993 0.96234 0.0
C484 C 0.59018 0.98432 0.94913 0.0
C485 C 0.61425 0.98351 0.92092 0.0
C486 C 0.5794 0.98181 0.92393 0.0
N487 N 0.60728 0.98522 0.94708 0.0
C488 C 0.60382 0.98067 0.89529 0.0
C489 C 0.58626 0.97999 0.89659 0.0
H490 H 0.58516 0.98601 0.97025 0.0
H491 H 0.62811 0.98482 0.91987 0.0
C492 C 0.69183 0.04468 0.00921 0.0
N493 N 0.67704 0.03606 0.99018 0.0
C494 C 0.70982 0.05817 0.99902 0.0
C495 C 0.69666 0.05429 0.9503 0.0
C496 C 0.67907 0.04071 0.96129 0.0
C497 C 0.71242 0.06286 0.9691 0.0
H498 H 0.68992 0.04033 0.03192 0.0
H499 H 0.6672 0.03319 0.94654 0.0
O500 O 0.61178 0.97427 0.01649 0.0
O501 O 0.65242 0.00433 0.04048 0.0
O502 O 0.64736 0.9922 0.97589 0.0
O503 O 0.62983 0.01625 0.99792 0.0
H504 H 0.58195 0.94826 0.04553 0.0
H505 H 0.61574 0.95868 0.96787 0.0
H506 H 0.56128 0.91503 0.02906 0.0
H507 H 0.59441 0.9254 0.95255 0.0
H508 H 0.66492 0.04262 0.11977 0.0
H509 H 0.64082 0.97781 0.08151 0.0
H510 H 0.66493 0.0377 0.06609 0.0
H511 H 0.64134 0.9838 0.13491 0.0
H512 H 0.63238 0.91713 0.04129 0.0
H513 H 0.68631 0.96771 0.05761 0.0
H514 H 0.60978 0.03776 0.1018 0.0
H515 H 0.58686 0.97825 0.12133 0.0
H516 H 0.68304 0.00744 0.99419 0.0
H517 H 0.64113 0.96571 0.93631 0.0
H518 H 0.70618 0.9985 0.97628 0.0
H519 H 0.66496 0.95735 0.91976 0.0
H520 H 0.62483 0.02411 0.94337 0.0
H521 H 0.65168 0.04854 0.02586 0.0
H522 H 0.63875 0.05653 0.92272 0.0
H523 H 0.66505 0.08054 0.00378 0.0
H524 H 0.5659 0.98135 0.92574 0.0
H525 H 0.60972 0.97965 0.87453 0.0
H526 H 0.72167 0.06439 0.01413 0.0
H527 H 0.69815 0.05718 0.92698 0.0
Li528 Li 0.6548 0.68197 0.33353 0.0
Li529 Li 0.68799 0.69752 0.34828 0.0
Li530 Li 0.66738 0.71062 0.36462 0.0
Li531 Li 0.67879 0.71433 0.31412 0.0
C532 C 0.65227 0.67204 0.39222 0.0
N533 N 0.62632 0.64454 0.42964 0.0
C534 C 0.65393 0.65624 0.39951 0.0
C535 C 0.6376 0.67399 0.40448 0.0
C536 C 0.64062 0.64245 0.41829 0.0
C537 C 0.62458 0.65991 0.42321 0.0
C538 C 0.68965 0.68447 0.29585 0.0
C539 C 0.72095 0.6929 0.27875 0.0
N540 N 0.71462 0.67439 0.27213 0.0
C541 C 0.6834 0.66556 0.28858 0.0
C542 C 0.70852 0.69828 0.29063 0.0
C543 C 0.69626 0.66074 0.27671 0.0
C544 C 0.61804 0.65451 0.31059 0.0
N545 N 0.63421 0.65747 0.32402 0.0
C546 C 0.62481 0.62473 0.31905 0.0
C547 C 0.63757 0.64296 0.32887 0.0
C548 C 0.60812 0.62115 0.30437 0.0
C549 C 0.60459 0.63632 0.30101 0.0
H550 H 0.61585 0.66632 0.30627 0.0
H551 H 0.65075 0.6458 0.33895 0.0
C552 C 0.72388 0.70492 0.37131 0.0
N553 N 0.70673 0.69161 0.36064 0.0
C554 C 0.73618 0.69943 0.38353 0.0
C555 C 0.713 0.66678 0.3729 0.0
C556 C 0.70134 0.67291 0.36061 0.0
C557 C 0.73058 0.68004 0.38515 0.0
H558 H 0.72776 0.71971 0.37122 0.0
H559 H 0.68759 0.66266 0.35201 0.0
C560 C 0.63678 0.70729 0.33031 0.0
N561 N 0.60569 0.71225 0.33561 0.0
C562 C 0.6368 0.72273 0.31687 0.0
C563 C 0.62083 0.69424 0.3461 0.0
C564 C 0.62098 0.72503 0.31989 0.0
C565 C 0.60529 0.69702 0.34863 0.0
C566 C 0.70656 0.74321 0.346 0.0
C567 C 0.70174 0.75673 0.35469 0.0
C568 C 0.7242 0.74913 0.33299 0.0
C569 C 0.71452 0.77595 0.3497 0.0
C570 C 0.73658 0.76848 0.32835 0.0
N571 N 0.73152 0.78137 0.33671 0.0
C572 C 0.67185 0.72211 0.42215 0.0
C573 C 0.65236 0.73122 0.39643 0.0
C574 C 0.67018 0.73049 0.44777 0.0
N575 N 0.66295 0.72254 0.39722 0.0
C576 C 0.65018 0.73968 0.42166 0.0
C577 C 0.65921 0.73941 0.44773 0.0
H578 H 0.68025 0.71518 0.42207 0.0
H579 H 0.64577 0.73182 0.37629 0.0
C580 C 0.68923 0.72417 0.25484 0.0
N581 N 0.68593 0.73045 0.28057 0.0
C582 C 0.69297 0.73495 0.22935 0.0
C583 C 0.68999 0.75855 0.25727 0.0
C584 C 0.68637 0.74734 0.28224 0.0
C585 C 0.6931 0.75226 0.23029 0.0
H586 H 0.68833 0.71049 0.25384 0.0
H587 H 0.6833 0.75186 0.30274 0.0
O588 O 0.66524 0.68572 0.37387 0.0
O589 O 0.67739 0.68946 0.30804 0.0
O590 O 0.65221 0.70489 0.32765 0.0
O591 O 0.69424 0.72432 0.35075 0.0
H592 H 0.66534 0.65458 0.39074 0.0
H593 H 0.63629 0.68628 0.39982 0.0
H594 H 0.64168 0.6301 0.42391 0.0
H595 H 0.61312 0.66124 0.43272 0.0
H596 H 0.73562 0.70345 0.27477 0.0
H597 H 0.6688 0.65471 0.29198 0.0
H598 H 0.71349 0.71298 0.29576 0.0
H599 H 0.69164 0.64615 0.27112 0.0
H600 H 0.62867 0.61387 0.3216 0.0
H601 H 0.59188 0.63439 0.2903 0.0
H602 H 0.74968 0.71023 0.39225 0.0
H603 H 0.70774 0.65167 0.37403 0.0
H604 H 0.64889 0.73287 0.30428 0.0
H605 H 0.62033 0.68195 0.35601 0.0
H606 H 0.62085 0.73697 0.30972 0.0
H607 H 0.59288 0.68704 0.36085 0.0
H608 H 0.68818 0.75247 0.36479 0.0
H609 H 0.72837 0.73894 0.32664 0.0
H610 H 0.71089 0.78654 0.35609 0.0
H611 H 0.75024 0.77324 0.31819 0.0
H612 H 0.67718 0.72976 0.46751 0.0
H613 H 0.64177 0.74659 0.42069 0.0
H614 H 0.69491 0.72938 0.20889 0.0
H615 H 0.68999 0.77183 0.25896 0.0
Li616 Li 0.29092 0.95912 0.32378 0.0
Li617 Li 0.29817 0.95489 0.37441 0.0
Li618 Li 0.30763 0.98707 0.35513 0.0
Li619 Li 0.3249 0.97112 0.33956 0.0
C620 C 0.26364 0.96153 0.35726 0.0
N621 N 0.22688 0.95418 0.34969 0.0
C622 C 0.24868 0.94644 0.37211 0.0
C623 C 0.25992 0.97295 0.33871 0.0
C624 C 0.23019 0.94294 0.36796 0.0
C625 C 0.24124 0.96898 0.33512 0.0
C626 C 0.29732 0.92581 0.33777 0.0
C627 C 0.3039 0.90013 0.34245 0.0
N628 N 0.28541 0.88751 0.3364 0.0
C629 C 0.27844 0.9126 0.33125 0.0
C630 C 0.31022 0.91956 0.3431 0.0
C631 C 0.27267 0.89329 0.33082 0.0
C632 C 0.28414 0.94994 0.26532 0.0
N633 N 0.27465 0.94777 0.29083 0.0
C634 C 0.24484 0.92931 0.26649 0.0
C635 C 0.25535 0.93755 0.29195 0.0
C636 C 0.25434 0.93128 0.2399 0.0
C637 C 0.27424 0.94174 0.2395 0.0
H638 H 0.29948 0.95795 0.26514 0.0
H639 H 0.24806 0.93542 0.31254 0.0
C640 C 0.29664 0.9464 0.43483 0.0
N641 N 0.28878 0.93897 0.40832 0.0
C642 C 0.28961 0.93561 0.46028 0.0
C643 C 0.266 0.90988 0.43101 0.0
C644 C 0.27367 0.92109 0.40604 0.0
C645 C 0.27399 0.91716 0.45857 0.0
H646 H 0.30804 0.9609 0.43646 0.0
H647 H 0.26712 0.91574 0.38502 0.0
C648 C 0.31843 0.99969 0.29997 0.0
N649 N 0.32699 0.03278 0.27082 0.0
C650 C 0.33706 0.01489 0.29958 0.0
C651 C 0.30422 0.00118 0.28511 0.0
C652 C 0.34108 0.03155 0.28485 0.0
C653 C 0.30882 0.01806 0.2706 0.0
C654 C 0.33628 0.97909 0.39731 0.0
C655 C 0.34847 0.99519 0.41361 0.0
C656 C 0.33798 0.96287 0.39912 0.0
C657 C 0.36222 0.99479 0.43144 0.0
C658 C 0.3519 0.96302 0.41721 0.0
N659 N 0.36364 0.97885 0.43285 0.0
C660 C 0.29953 0.01691 0.37085 0.0
C661 C 0.33163 0.02446 0.36845 0.0
C662 C 0.30505 0.03531 0.38046 0.0
N663 N 0.31284 0.01189 0.36524 0.0
C664 C 0.33776 0.04286 0.3781 0.0
C665 C 0.32443 0.04851 0.38458 0.0
H666 H 0.28464 0.00659 0.36867 0.0
H667 H 0.34188 0.01998 0.36425 0.0
C668 C 0.35058 0.96482 0.30638 0.0
N669 N 0.34909 0.97608 0.32694 0.0
C670 C 0.36812 0.97024 0.29339 0.0
C671 C 0.38228 0.9983 0.32392 0.0
C672 C 0.3645 0.99236 0.33624 0.0
C673 C 0.38415 0.98748 0.30155 0.0
H674 H 0.33798 0.95213 0.29904 0.0
H675 H 0.36282 0.00124 0.35217 0.0
O676 O 0.2818 0.96511 0.36102 0.0
O677 O 0.30333 0.9448 0.33779 0.0
O678 O 0.31418 0.98335 0.31452 0.0
O679 O 0.32288 0.9793 0.37945 0.0
H680 H 0.25131 0.93753 0.38667 0.0
H681 H 0.27132 0.98471 0.32715 0.0
H682 H 0.21847 0.93128 0.37926 0.0
H683 H 0.23815 0.97766 0.32075 0.0
H684 H 0.31372 0.8951 0.34663 0.0
H685 H 0.26828 0.91717 0.327 0.0
H686 H 0.325 0.92959 0.3475 0.0
H687 H 0.25805 0.88291 0.32606 0.0
H688 H 0.2295 0.92115 0.2677 0.0
H689 H 0.28207 0.94371 0.21936 0.0
H690 H 0.29584 0.94193 0.48122 0.0
H691 H 0.2538 0.89577 0.42886 0.0
H692 H 0.34826 0.0139 0.31071 0.0
H693 H 0.28982 0.9894 0.28465 0.0
H694 H 0.35541 0.04349 0.28458 0.0
H695 H 0.29794 0.01944 0.25911 0.0
H696 H 0.34732 0.00786 0.41252 0.0
H697 H 0.32856 0.95029 0.38684 0.0
H698 H 0.37176 0.00715 0.44416 0.0
H699 H 0.35335 0.95055 0.41884 0.0
H700 H 0.29426 0.03902 0.38508 0.0
H701 H 0.3528 0.05225 0.38162 0.0
H702 H 0.36886 0.96162 0.27593 0.0
H703 H 0.39428 0.0116 0.331 0.0
Li704 Li 0.03849 0.32784 0.31899 0.0
Li705 Li 0.0432 0.33712 0.36963 0.0
Li706 Li 0.01071 0.31562 0.35097 0.0
Li707 Li 0.02805 0.34976 0.33758 0.0
C708 C 0.03992 0.2996 0.35593 0.0
N709 N 0.05541 0.27626 0.36036 0.0
C710 C 0.05917 0.30729 0.36243 0.0
C711 C 0.02849 0.28002 0.35203 0.0
C712 C 0.06675 0.29526 0.36449 0.0
C713 C 0.03661 0.26847 0.35425 0.0
C714 C 0.07315 0.36491 0.33247 0.0
C715 C 0.10145 0.39572 0.33329 0.0
N716 N 0.11207 0.38744 0.32762 0.0
C717 C 0.08432 0.35672 0.32644 0.0
C718 C 0.08174 0.38458 0.33572 0.0
C719 C 0.10398 0.36835 0.32416 0.0
C720 C 0.05177 0.33546 0.2625 0.0
N721 N 0.04891 0.32324 0.28475 0.0
C722 C 0.06236 0.30817 0.25645 0.0
C723 C 0.0538 0.30959 0.28214 0.0
C724 C 0.06578 0.32083 0.23321 0.0
C725 C 0.06011 0.33446 0.23641 0.0
H726 H 0.04764 0.34611 0.26521 0.0
H727 H 0.05136 0.29995 0.29998 0.0
C728 C 0.0488 0.32927 0.42603 0.0
N729 N 0.05818 0.34155 0.40385 0.0
C730 C 0.05813 0.33027 0.45216 0.0
C731 C 0.08666 0.35667 0.43225 0.0
C732 C 0.0767 0.35525 0.40654 0.0
C733 C 0.07741 0.34397 0.45545 0.0
H734 H 0.03403 0.3186 0.42328 0.0
H735 H 0.08388 0.36495 0.38876 0.0
C736 C 0.00439 0.31472 0.28961 0.0
N737 N 0.98553 0.28957 0.24457 0.0
C738 C 0.99824 0.32055 0.26523 0.0
C739 C 0.00103 0.29614 0.29108 0.0
C740 C 0.9887 0.30761 0.24268 0.0
C741 C 0.99145 0.28363 0.26809 0.0
C742 C 0.02276 0.35096 0.39875 0.0
C743 C 0.01069 0.34557 0.42301 0.0
C744 C 0.03835 0.36933 0.39717 0.0
C745 C 0.01439 0.35873 0.44533 0.0
C746 C 0.04157 0.38207 0.41992 0.0
N747 N 0.02963 0.37656 0.44333 0.0
C748 C 0.98405 0.28319 0.38215 0.0
C749 C 0.97101 0.29587 0.34865 0.0
C750 C 0.966 0.27056 0.39311 0.0
N751 N 0.98618 0.29574 0.36079 0.0
C752 C 0.95273 0.2835 0.35889 0.0
C753 C 0.95011 0.27104 0.38205 0.0
H754 H 0.99645 0.28367 0.3917 0.0
H755 H 0.9732 0.30621 0.33196 0.0
C756 C 0.03442 0.3823 0.30619 0.0
N757 N 0.0239 0.36994 0.32769 0.0
C758 C 0.02934 0.39516 0.29517 0.0
C759 C 0.00326 0.38285 0.32961 0.0
C760 C 0.00882 0.37023 0.33991 0.0
C761 C 0.01321 0.39513 0.30631 0.0
H762 H 0.04615 0.38148 0.29659 0.0
H763 H 0.00057 0.36003 0.35671 0.0
O764 O 0.03212 0.31104 0.35397 0.0
O765 O 0.05386 0.35387 0.33467 0.0
O766 O 0.01403 0.32732 0.31161 0.0
O767 O 0.0195 0.33813 0.37699 0.0
H768 H 0.06818 0.32234 0.36592 0.0
H769 H 0.01351 0.27381 0.34729 0.0
H770 H 0.08164 0.30103 0.36941 0.0
H771 H 0.02795 0.2533 0.35116 0.0
H772 H 0.1083 0.41095 0.33587 0.0
H773 H 0.07793 0.34158 0.3235 0.0
H774 H 0.07328 0.39116 0.34014 0.0
H775 H 0.1128 0.36219 0.31957 0.0
H776 H 0.06661 0.29753 0.25508 0.0
H777 H 0.06203 0.34424 0.2189 0.0
H778 H 0.05026 0.32046 0.46963 0.0
H779 H 0.10153 0.36736 0.43369 0.0
H780 H 0.00085 0.33494 0.26375 0.0
H781 H 0.00583 0.29146 0.3097 0.0
H782 H 0.98384 0.31191 0.22367 0.0
H783 H 0.98875 0.26921 0.26891 0.0
H784 H 0.99863 0.33134 0.42459 0.0
H785 H 0.0479 0.37367 0.37864 0.0
H786 H 0.00517 0.35477 0.46425 0.0
H787 H 0.05359 0.39634 0.419 0.0
H788 H 0.96468 0.26141 0.41126 0.0
H789 H 0.94087 0.28423 0.3496 0.0
H790 H 0.03724 0.40416 0.27691 0.0
H791 H 0.99084 0.38246 0.33896 0.0
Li792 Li 0.68198 0.9893 0.34624 0.0
Li793 Li 0.663 0.95702 0.3655 0.0
Li794 Li 0.67332 0.96224 0.31457 0.0
Li795 Li 0.64864 0.9688 0.33172 0.0
C796 C 0.70252 0.96491 0.34286 0.0
N797 N 0.72822 0.95408 0.32547 0.0
C798 C 0.69935 0.94682 0.34973 0.0
C799 C 0.71881 0.97755 0.32735 0.0
C800 C 0.7125 0.9416 0.3407 0.0
C801 C 0.73162 0.97178 0.31869 0.0
C802 C 0.65537 0.97769 0.40002 0.0
C803 C 0.63411 0.9641 0.4411 0.0
N804 N 0.64897 0.97367 0.45974 0.0
C805 C 0.67042 0.98745 0.41956 0.0
C806 C 0.63704 0.96597 0.41082 0.0
C807 C 0.66689 0.98522 0.44969 0.0
C808 C 0.69424 0.02783 0.35465 0.0
N809 N 0.69982 0.0147 0.35702 0.0
C810 C 0.72807 0.03693 0.38215 0.0
C811 C 0.71651 0.01894 0.37002 0.0
C812 C 0.72247 0.05073 0.38065 0.0
C813 C 0.70556 0.04608 0.36575 0.0
H814 H 0.68062 0.02392 0.34508 0.0
H815 H 0.72035 0.00807 0.37232 0.0
C816 C 0.64272 0.92703 0.40684 0.0
N817 N 0.65978 0.94223 0.39962 0.0
C818 C 0.64075 0.91705 0.43277 0.0
C819 C 0.67402 0.93825 0.44281 0.0
C820 C 0.6753 0.94792 0.4169 0.0
C821 C 0.65654 0.92267 0.45112 0.0
H822 H 0.63062 0.92279 0.3927 0.0
H823 H 0.68865 0.96016 0.4107 0.0
C824 C 0.67914 0.00201 0.29348 0.0
N825 N 0.6964 0.03788 0.26903 0.0
C826 C 0.66857 0.01091 0.2878 0.0
C827 C 0.69846 0.01132 0.28657 0.0
C828 C 0.67756 0.02905 0.27546 0.0
C829 C 0.70694 0.02946 0.27428 0.0
C830 C 0.63029 0.93247 0.31916 0.0
C831 C 0.62826 0.92596 0.29029 0.0
C832 C 0.61413 0.92766 0.33596 0.0
C833 C 0.61007 0.91479 0.27868 0.0
C834 C 0.5962 0.91649 0.32353 0.0
N835 N 0.59455 0.91033 0.29539 0.0
C836 C 0.67764 0.93448 0.28348 0.0
C837 C 0.68736 0.96316 0.25764 0.0
C838 C 0.68118 0.92644 0.25893 0.0
N839 N 0.68067 0.95249 0.28231 0.0
C840 C 0.6911 0.95571 0.23265 0.0
C841 C 0.68781 0.93703 0.23294 0.0
H842 H 0.67195 0.92618 0.30322 0.0
H843 H 0.68921 0.97723 0.25702 0.0
C844 C 0.61946 0.97805 0.33735 0.0
N845 N 0.62705 0.97017 0.31956 0.0
C846 C 0.60612 0.9825 0.32632 0.0
C847 C 0.60815 0.96987 0.27933 0.0
C848 C 0.62152 0.96583 0.29117 0.0
C849 C 0.60066 0.9788 0.29674 0.0
H850 H 0.62449 0.98181 0.35962 0.0
H851 H 0.62835 0.96029 0.27723 0.0
O852 O 0.68963 0.97016 0.35101 0.0
O853 O 0.65864 0.97916 0.37048 0.0
O854 O 0.67063 0.98429 0.30576 0.0
O855 O 0.64797 0.94357 0.33086 0.0
H856 H 0.68674 0.93683 0.36156 0.0
H857 H 0.72151 0.99163 0.32201 0.0
H858 H 0.71018 0.9276 0.3457 0.0
H859 H 0.74426 0.98138 0.30657 0.0
H860 H 0.62002 0.95498 0.44977 0.0
H861 H 0.68471 0.99646 0.41158 0.0
H862 H 0.62526 0.95822 0.39598 0.0
H863 H 0.67842 0.9926 0.46507 0.0
H864 H 0.74073 0.03958 0.39387 0.0
H865 H 0.70072 0.05622 0.36346 0.0
H866 H 0.62705 0.90504 0.43836 0.0
H867 H 0.68647 0.94322 0.45655 0.0
H868 H 0.65364 0.004 0.29308 0.0
H869 H 0.70686 0.00467 0.29087 0.0
H870 H 0.66957 0.03613 0.27105 0.0
H871 H 0.72189 0.03686 0.26896 0.0
H872 H 0.64057 0.92963 0.27687 0.0
H873 H 0.61543 0.93277 0.35819 0.0
H874 H 0.6083 0.90971 0.25634 0.0
H875 H 0.58358 0.91277 0.33623 0.0
H876 H 0.67852 0.91203 0.26017 0.0
H877 H 0.69583 0.96427 0.21295 0.0
H878 H 0.6007 0.9894 0.34043 0.0
H879 H 0.60471 0.96719 0.25626 0.0
Li880 Li 0.04178 0.70464 0.37386 0.0
Li881 Li 0.01046 0.69521 0.35395 0.0
Li882 Li 0.02671 0.67746 0.34019 0.0
Li883 Li 0.03815 0.70982 0.322 0.0
C884 C 0.01061 0.66967 0.40365 0.0
N885 N 0.99562 0.64804 0.45373 0.0
C886 C 0.99945 0.6734 0.42281 0.0
C887 C 0.01394 0.65475 0.40991 0.0
C888 C 0.99205 0.66235 0.44801 0.0
C889 C 0.00631 0.64405 0.43536 0.0
C890 C 0.02974 0.73214 0.37665 0.0
C891 C 0.02746 0.75972 0.38923 0.0
N892 N 0.0231 0.75334 0.41729 0.0
C893 C 0.0253 0.72591 0.40561 0.0
C894 C 0.03089 0.74922 0.36838 0.0
C895 C 0.02197 0.7368 0.42583 0.0
C896 C 0.07213 0.73353 0.40582 0.0
N897 N 0.05815 0.71504 0.40702 0.0
C898 C 0.06677 0.71233 0.45606 0.0
C899 C 0.05538 0.70439 0.43141 0.0
C900 C 0.08123 0.73145 0.45567 0.0
C901 C 0.0839 0.74209 0.43004 0.0
H902 H 0.07398 0.74168 0.38613 0.0
H903 H 0.04422 0.68977 0.43197 0.0
C904 C 0.97283 0.67128 0.36491 0.0
N905 N 0.98547 0.69012 0.3627 0.0
C906 C 0.95454 0.66501 0.37524 0.0
C907 C 0.96206 0.69767 0.37879 0.0
C908 C 0.98037 0.70334 0.36862 0.0
C909 C 0.94899 0.67825 0.38301 0.0
H910 H 0.97733 0.66112 0.36003 0.0
H911 H 0.99059 0.71825 0.3663 0.0
C912 C 0.0664 0.69397 0.34604 0.0
N913 N 0.09271 0.68316 0.35975 0.0
C914 C 0.08254 0.69997 0.32862 0.0
C915 C 0.06367 0.68253 0.37043 0.0
C916 C 0.09566 0.69433 0.33589 0.0
C917 C 0.07713 0.67722 0.37703 0.0
C918 C 0.00362 0.69039 0.29347 0.0
C919 C 0.99595 0.67836 0.26931 0.0
C920 C 0.00149 0.70635 0.29597 0.0
C921 C 0.98623 0.6825 0.24799 0.0
C922 C 0.99169 0.71 0.27418 0.0
N923 N 0.98432 0.6981 0.25084 0.0
C924 C 0.00484 0.63801 0.33833 0.0
C925 C 0.03316 0.65059 0.31043 0.0
C926 C 0.99881 0.61984 0.32753 0.0
N927 N 0.02164 0.65291 0.32946 0.0
C928 C 0.02759 0.63267 0.29881 0.0
C929 C 0.00996 0.61705 0.3068 0.0
H930 H 0.99576 0.64039 0.35291 0.0
H931 H 0.04621 0.66279 0.30314 0.0
C932 C 0.04867 0.74099 0.28272 0.0
N933 N 0.04969 0.72516 0.28859 0.0
C934 C 0.0571 0.75155 0.25737 0.0
C935 C 0.06762 0.7294 0.24498 0.0
C936 C 0.05887 0.71921 0.27036 0.0
C937 C 0.06675 0.74577 0.23814 0.0
H938 H 0.04118 0.74532 0.29756 0.0
H939 H 0.0592 0.7064 0.27544 0.0
O940 O 0.01791 0.68024 0.37865 0.0
O941 O 0.0329 0.72165 0.35634 0.0
O942 O 0.05336 0.69926 0.33903 0.0
O943 O 0.01334 0.68662 0.31433 0.0
H944 H 0.99634 0.6846 0.41827 0.0
H945 H 0.02231 0.65139 0.39529 0.0
H946 H 0.9834 0.66512 0.46298 0.0
H947 H 0.00886 0.63253 0.44046 0.0
H948 H 0.02826 0.77294 0.38311 0.0
H949 H 0.02452 0.71287 0.41247 0.0
H950 H 0.03431 0.75427 0.34604 0.0
H951 H 0.01851 0.7321 0.44832 0.0
H952 H 0.06395 0.70366 0.47546 0.0
H953 H 0.09496 0.75682 0.42869 0.0
H954 H 0.94525 0.64994 0.37855 0.0
H955 H 0.95836 0.7084 0.38399 0.0
H956 H 0.0849 0.70888 0.30966 0.0
H957 H 0.05135 0.67788 0.38415 0.0
H958 H 0.1082 0.69883 0.32257 0.0
H959 H 0.07518 0.66837 0.3959 0.0
H960 H 0.99753 0.66598 0.26706 0.0
H961 H 0.00741 0.71587 0.31444 0.0
H962 H 0.98022 0.67332 0.22915 0.0
H963 H 0.98995 0.72231 0.27581 0.0
H964 H 0.98524 0.60824 0.33459 0.0
H965 H 0.0365 0.63132 0.28249 0.0
H966 H 0.05615 0.76412 0.25292 0.0
H967 H 0.07461 0.72426 0.23049 0.0
Li968 Li 0.29789 0.33781 0.37089 0.0
Li969 Li 0.309 0.31787 0.34982 0.0
Li970 Li 0.32571 0.35164 0.33984 0.0
Li971 Li 0.29466 0.3314 0.31894 0.0
C972 C 0.3326 0.352 0.39916 0.0
N973 N 0.35298 0.3782 0.44229 0.0
C974 C 0.34247 0.34791 0.42029 0.0
C975 C 0.3331 0.36941 0.39994 0.0
C976 C 0.35269 0.36134 0.44193 0.0
C977 C 0.34348 0.38246 0.42192 0.0
C978 C 0.2716 0.29909 0.3714 0.0
C979 C 0.24125 0.27418 0.38861 0.0
N980 N 0.24988 0.27178 0.41244 0.0
C981 C 0.28016 0.29636 0.39604 0.0
C982 C 0.25199 0.2879 0.36762 0.0
C983 C 0.26894 0.28249 0.41654 0.0
C984 C 0.27477 0.34889 0.40237 0.0
N985 N 0.28618 0.34118 0.40482 0.0
C986 C 0.2794 0.33569 0.45598 0.0
C987 C 0.28889 0.33495 0.43104 0.0
C988 C 0.26736 0.34332 0.45404 0.0
C989 C 0.26529 0.3503 0.42701 0.0
H990 H 0.27283 0.35368 0.38123 0.0
H991 H 0.29822 0.32913 0.43258 0.0
C992 C 0.33329 0.30543 0.36416 0.0
N993 N 0.31476 0.29829 0.35704 0.0
C994 C 0.33979 0.29349 0.37384 0.0
C995 C 0.30812 0.26677 0.36757 0.0
C996 C 0.30222 0.27932 0.35774 0.0
C997 C 0.32708 0.27391 0.37632 0.0
H998 H 0.34289 0.32059 0.36342 0.0
H999 H 0.28755 0.274 0.3518 0.0
C1000 C 0.30662 0.37003 0.31849 0.0
N1001 N 0.31172 0.3972 0.27753 0.0
C1002 C 0.31788 0.3729 0.29375 0.0
C1003 C 0.29798 0.38099 0.3224 0.0
C1004 C 0.32029 0.3867 0.2733 0.0
C1005 C 0.30072 0.39465 0.30144 0.0
C1006 C 0.31548 0.31763 0.29045 0.0
C1007 C 0.32947 0.32187 0.26933 0.0
C1008 C 0.29865 0.30012 0.28962 0.0
C1009 C 0.3264 0.30851 0.24764 0.0
C1010 C 0.29612 0.28714 0.2676 0.0
N1011 N 0.30992 0.29156 0.24724 0.0
C1012 C 0.36248 0.36435 0.32549 0.0
C1013 C 0.35727 0.39033 0.33137 0.0
C1014 C 0.38088 0.37635 0.31564 0.0
N1015 N 0.35098 0.37139 0.33243 0.0
C1016 C 0.37566 0.40292 0.32135 0.0
C1017 C 0.38759 0.39587 0.31278 0.0
H1018 H 0.35704 0.34922 0.32651 0.0
H1019 H 0.34783 0.39557 0.33717 0.0
C1020 C 0.26026 0.31964 0.28765 0.0
N1021 N 0.27943 0.32776 0.28512 0.0
C1022 C 0.24922 0.31784 0.26304 0.0
C1023 C 0.27788 0.33296 0.23393 0.0
C1024 C 0.28827 0.33407 0.25885 0.0
C1025 C 0.25814 0.32486 0.23594 0.0
H1026 H 0.25361 0.31477 0.30884 0.0
H1027 H 0.30347 0.34021 0.25725 0.0
O1028 O 0.32246 0.33887 0.37802 0.0
O1029 O 0.28222 0.31263 0.35102 0.0
O1030 O 0.30393 0.35654 0.33883 0.0
O1031 O 0.31831 0.33068 0.31163 0.0
H1032 H 0.34218 0.33447 0.42 0.0
H1033 H 0.32553 0.37283 0.38384 0.0
H1034 H 0.36038 0.35836 0.45845 0.0
H1035 H 0.34398 0.39599 0.42281 0.0
H1036 H 0.22605 0.26543 0.38596 0.0
H1037 H 0.29531 0.30485 0.39938 0.0
H1038 H 0.24513 0.28981 0.34865 0.0
H1039 H 0.2754 0.28026 0.43571 0.0
H1040 H 0.28148 0.3304 0.47662 0.0
H1041 H 0.2561 0.3563 0.42487 0.0
H1042 H 0.35443 0.29971 0.38081 0.0
H1043 H 0.29789 0.25176 0.36899 0.0
H1044 H 0.32471 0.36458 0.29033 0.0
H1045 H 0.28922 0.37896 0.34144 0.0
H1046 H 0.32896 0.38905 0.25405 0.0
H1047 H 0.2941 0.40323 0.3042 0.0
H1048 H 0.34256 0.33539 0.26966 0.0
H1049 H 0.28762 0.29658 0.30571 0.0
H1050 H 0.3371 0.31161 0.23113 0.0
H1051 H 0.28316 0.27354 0.26668 0.0
H1052 H 0.38937 0.37018 0.30883 0.0
H1053 H 0.38032 0.41789 0.31963 0.0
H1054 H 0.23398 0.31148 0.26524 0.0
H1055 H 0.28516 0.33829 0.21323 0.0
Li1056 Li 0.31988 0.01293 0.66629 0.0
Li1057 Li 0.35336 0.02909 0.67975 0.0
Li1058 Li 0.33239 0.04142 0.69765 0.0
Li1059 Li 0.34307 0.04551 0.64675 0.0
C1060 C 0.31865 0.00303 0.72505 0.0
N1061 N 0.29398 0.97547 0.76364 0.0
C1062 C 0.32104 0.98765 0.73221 0.0
C1063 C 0.3039 0.00454 0.73804 0.0
C1064 C 0.30837 0.97382 0.75159 0.0
C1065 C 0.29154 0.99044 0.75736 0.0
C1066 C 0.35421 0.01584 0.62721 0.0
C1067 C 0.38533 0.02406 0.60949 0.0
N1068 N 0.37878 0.00555 0.60256 0.0
C1069 C 0.34774 0.99694 0.61961 0.0
C1070 C 0.3731 0.02954 0.62184 0.0
C1071 C 0.3604 0.99201 0.60728 0.0
C1072 C 0.28323 0.98518 0.64369 0.0
N1073 N 0.29946 0.9883 0.65708 0.0
C1074 C 0.29036 0.95563 0.65215 0.0
C1075 C 0.303 0.97391 0.66195 0.0
C1076 C 0.27361 0.9519 0.63748 0.0
C1077 C 0.26989 0.96695 0.63416 0.0
H1078 H 0.28092 0.99691 0.63935 0.0
H1079 H 0.31625 0.97688 0.67193 0.0
C1080 C 0.39008 0.03721 0.70032 0.0
N1081 N 0.37268 0.02366 0.69081 0.0
C1082 C 0.4029 0.03205 0.71141 0.0
C1083 C 0.37974 0.99921 0.70204 0.0
C1084 C 0.36756 0.00503 0.6908 0.0
C1085 C 0.39761 0.01273 0.71313 0.0
H1086 H 0.39377 0.05195 0.70014 0.0
H1087 H 0.35365 0.99457 0.68301 0.0
C1088 C 0.3008 0.03718 0.66501 0.0
N1089 N 0.26894 0.04064 0.67239 0.0
C1090 C 0.29992 0.05234 0.65225 0.0
C1091 C 0.28533 0.02363 0.68114 0.0
C1092 C 0.28373 0.05388 0.65633 0.0
C1093 C 0.2694 0.02567 0.68473 0.0
C1094 C 0.37069 0.07466 0.6775 0.0
C1095 C 0.36543 0.08778 0.68663 0.0
C1096 C 0.38805 0.08104 0.66323 0.0
C1097 C 0.37748 0.10705 0.68089 0.0
C1098 C 0.3997 0.10043 0.65787 0.0
N1099 N 0.39421 0.11292 0.66671 0.0
C1100 C 0.33711 0.05233 0.75549 0.0
C1101 C 0.31716 0.06128 0.73084 0.0
C1102 C 0.33547 0.06037 0.78149 0.0
N1103 N 0.32799 0.05287 0.73089 0.0
C1104 C 0.31501 0.06942 0.75648 0.0
C1105 C 0.32431 0.06908 0.7822 0.0
H1106 H 0.34569 0.0456 0.75483 0.0
H1107 H 0.31037 0.06196 0.71097 0.0
C1108 C 0.35345 0.05594 0.58765 0.0
N1109 N 0.34946 0.06168 0.61333 0.0
C1110 C 0.3569 0.06677 0.56228 0.0
C1111 C 0.35207 0.08924 0.59017 0.0
C1112 C 0.34885 0.07804 0.61505 0.0
C1113 C 0.35597 0.08353 0.56327 0.0
H1114 H 0.3534 0.04267 0.58659 0.0
H1115 H 0.34536 0.08218 0.63557 0.0
O1116 O 0.33101 0.01676 0.70614 0.0
O1117 O 0.34214 0.02094 0.63984 0.0
O1118 O 0.31661 0.03553 0.66133 0.0
O1119 O 0.35905 0.05572 0.68288 0.0
H1120 H 0.33252 0.98633 0.7229 0.0
H1121 H 0.30205 0.01652 0.73352 0.0
H1122 H 0.31001 0.96179 0.75712 0.0
H1123 H 0.28004 0.99144 0.76744 0.0
H1124 H 0.40002 0.03451 0.60542 0.0
H1125 H 0.33311 0.98618 0.62311 0.0
H1126 H 0.37826 0.04424 0.62727 0.0
H1127 H 0.3556 0.97742 0.60143 0.0
H1128 H 0.29435 0.94488 0.65467 0.0
H1129 H 0.25713 0.9649 0.62346 0.0
H1130 H 0.4166 0.04305 0.71919 0.0
H1131 H 0.37468 0.98415 0.70329 0.0
H1132 H 0.31161 0.06284 0.63939 0.0
H1133 H 0.28548 0.01152 0.69045 0.0
H1134 H 0.28292 0.06561 0.64671 0.0
H1135 H 0.25735 0.01529 0.69722 0.0
H1136 H 0.35208 0.08314 0.69768 0.0
H1137 H 0.39253 0.07118 0.65645 0.0
H1138 H 0.37351 0.11733 0.68764 0.0
H1139 H 0.41313 0.10555 0.64674 0.0
H1140 H 0.34269 0.0596 0.80093 0.0
H1141 H 0.30646 0.0762 0.75607 0.0
H1142 H 0.35949 0.06166 0.54186 0.0
H1143 H 0.35125 0.10209 0.59186 0.0
Li1144 Li 0.98807 0.30331 0.67098 0.0
Li1145 Li 0.97113 0.32056 0.68499 0.0
Li1146 Li 0.96032 0.28796 0.70322 0.0
Li1147 Li 0.95563 0.29284 0.65275 0.0
C1148 C 0.99466 0.30837 0.73217 0.0
N1149 N 0.01359 0.30136 0.77626 0.0
C1150 C 0.00139 0.32032 0.75656 0.0
C1151 C 0.99749 0.29282 0.73021 0.0
C1152 C 0.01096 0.31655 0.77862 0.0
C1153 C 0.00711 0.28953 0.75273 0.0
C1154 C 0.97648 0.32652 0.62283 0.0
C1155 C 0.95872 0.33961 0.60042 0.0
N1156 N 0.97001 0.34423 0.57629 0.0
C1157 C 0.98787 0.33133 0.59782 0.0
C1158 C 0.96176 0.33063 0.62417 0.0
C1159 C 0.98439 0.34031 0.57452 0.0
C1160 C 0.0142 0.29712 0.63912 0.0
N1161 N 0.01242 0.30757 0.6608 0.0
C1162 C 0.04601 0.32805 0.66282 0.0
C1163 C 0.02783 0.32255 0.67312 0.0
C1164 C 0.04829 0.31815 0.63939 0.0
C1165 C 0.03213 0.30214 0.62809 0.0
H1166 H 0.00163 0.28546 0.62945 0.0
H1167 H 0.02594 0.33074 0.69008 0.0
C1168 C 0.96536 0.34698 0.71683 0.0
N1169 N 0.97558 0.345 0.69499 0.0
C1170 C 0.97052 0.36501 0.72756 0.0
C1171 C 0.99607 0.37855 0.6922 0.0
C1172 C 0.99045 0.36029 0.68222 0.0
C1173 C 0.98641 0.38106 0.71577 0.0
H1174 H 0.95378 0.3345 0.72684 0.0
H1175 H 0.99844 0.35823 0.6651 0.0
C1176 C 0.95793 0.25817 0.66564 0.0
N1177 N 0.94109 0.21923 0.66055 0.0
C1178 C 0.93847 0.24718 0.66019 0.0
C1179 C 0.96887 0.24939 0.6682 0.0
C1180 C 0.93021 0.22751 0.65776 0.0
C1181 C 0.96008 0.22968 0.66566 0.0
C1182 C 0.92605 0.29154 0.69003 0.0
C1183 C 0.91423 0.27236 0.6967 0.0
C1184 C 0.91821 0.30324 0.68611 0.0
C1185 C 0.89468 0.26511 0.69889 0.0
C1186 C 0.89858 0.29545 0.68847 0.0
N1187 N 0.88732 0.27671 0.69474 0.0
C1188 C 0.94633 0.28183 0.75938 0.0
C1189 C 0.94564 0.25447 0.74007 0.0
C1190 C 0.93816 0.27238 0.78549 0.0
N1191 N 0.94981 0.2728 0.73731 0.0
C1192 C 0.93728 0.24439 0.76577 0.0
C1193 C 0.93333 0.25331 0.7889 0.0
H1194 H 0.94993 0.29646 0.75659 0.0
H1195 H 0.94864 0.24757 0.7224 0.0
C1196 C 0.94956 0.2794 0.59618 0.0
N1197 N 0.94049 0.28259 0.61852 0.0
C1198 C 0.9401 0.27142 0.56999 0.0
C1199 C 0.91203 0.27014 0.59018 0.0
C1200 C 0.92212 0.27832 0.61596 0.0
C1201 C 0.92099 0.26648 0.56678 0.0
H1202 H 0.96422 0.28304 0.59883 0.0
H1203 H 0.91516 0.28103 0.63386 0.0
O1204 O 0.98501 0.3117 0.71063 0.0
O1205 O 0.97948 0.31742 0.6456 0.0
O1206 O 0.96639 0.27746 0.66799 0.0
O1207 O 0.94525 0.29902 0.68793 0.0
H1208 H 0.99921 0.33235 0.75843 0.0
H1209 H 0.99225 0.28336 0.71157 0.0
H1210 H 0.01626 0.32568 0.79764 0.0
H1211 H 0.0094 0.27755 0.75151 0.0
H1212 H 0.94737 0.34287 0.60113 0.0
H1213 H 0.99925 0.32811 0.59643 0.0
H1214 H 0.95272 0.32683 0.64328 0.0
H1215 H 0.99309 0.34414 0.55501 0.0
H1216 H 0.05808 0.34037 0.67231 0.0
H1217 H 0.03319 0.29429 0.60973 0.0
H1218 H 0.96285 0.36624 0.74605 0.0
H1219 H 0.00829 0.39053 0.68233 0.0
H1220 H 0.92983 0.25373 0.65777 0.0
H1221 H 0.98398 0.25772 0.67221 0.0
H1222 H 0.91516 0.21882 0.65362 0.0
H1223 H 0.96835 0.22268 0.66772 0.0
H1224 H 0.92004 0.26315 0.70024 0.0
H1225 H 0.92718 0.31816 0.68123 0.0
H1226 H 0.88535 0.25028 0.70395 0.0
H1227 H 0.8923 0.30431 0.68537 0.0
H1228 H 0.93583 0.28002 0.8029 0.0
H1229 H 0.93371 0.22969 0.76731 0.0
H1230 H 0.94775 0.26928 0.55238 0.0
H1231 H 0.89729 0.26645 0.58882 0.0
Li1232 Li 0.69119 0.68419 0.67013 0.0
Li1233 Li 0.67414 0.65049 0.68536 0.0
Li1234 Li 0.70766 0.67298 0.7027 0.0
Li1235 Li 0.70169 0.66134 0.65262 0.0
C1236 C 0.67838 0.68376 0.72725 0.0
N1237 N 0.66719 0.70453 0.76135 0.0
C1238 C 0.6595 0.67577 0.73635 0.0
C1239 C 0.69161 0.70222 0.73589 0.0
C1240 C 0.65411 0.68652 0.75347 0.0
C1241 C 0.68567 0.71251 0.75302 0.0
C1242 C 0.66171 0.65112 0.62835 0.0
C1243 C 0.63981 0.62243 0.60283 0.0
N1244 N 0.62959 0.6307 0.59445 0.0
C1245 C 0.65111 0.65939 0.6192 0.0
C1246 C 0.65612 0.63255 0.61987 0.0
C1247 C 0.63487 0.64881 0.60218 0.0
C1248 C 0.69828 0.71754 0.63972 0.0
N1249 N 0.68643 0.70394 0.65883 0.0
C1250 C 0.66431 0.71506 0.65606 0.0
C1251 C 0.66983 0.70265 0.66738 0.0
C1252 C 0.6758 0.72871 0.63525 0.0
C1253 C 0.69326 0.73022 0.62768 0.0
H1254 H 0.71119 0.71796 0.63275 0.0
H1255 H 0.6603 0.69129 0.68166 0.0
C1256 C 0.64767 0.61738 0.716 0.0
N1257 N 0.64955 0.63098 0.6968 0.0
C1258 C 0.62996 0.60492 0.72824 0.0
C1259 C 0.61639 0.62027 0.69982 0.0
C1260 C 0.63433 0.63245 0.68831 0.0
C1261 C 0.61412 0.60664 0.72076 0.0
H1262 H 0.66009 0.61681 0.72291 0.0
H1263 H 0.63626 0.64381 0.67395 0.0
C1264 C 0.73488 0.70332 0.67216 0.0
N1265 N 0.7703 0.73378 0.68486 0.0
C1266 C 0.75123 0.7024 0.66603 0.0
C1267 C 0.73659 0.7199 0.68417 0.0
C1268 C 0.76899 0.71789 0.67279 0.0
C1269 C 0.7546 0.7351 0.69059 0.0
C1270 C 0.69825 0.63085 0.68304 0.0
C1271 C 0.71547 0.63161 0.68892 0.0
C1272 C 0.68321 0.61433 0.67118 0.0
C1273 C 0.71753 0.61601 0.68206 0.0
C1274 C 0.68581 0.59901 0.66466 0.0
N1275 N 0.70279 0.60017 0.67014 0.0
C1276 C 0.71842 0.68167 0.76203 0.0
C1277 C 0.7413 0.67973 0.73241 0.0
C1278 C 0.72966 0.68507 0.78688 0.0
N1279 N 0.72439 0.67916 0.73544 0.0
C1280 C 0.75293 0.68289 0.75678 0.0
C1281 C 0.74708 0.68552 0.78449 0.0
H1282 H 0.70467 0.6805 0.76417 0.0
H1283 H 0.74558 0.67729 0.71121 0.0
C1284 C 0.70335 0.65241 0.59328 0.0
N1285 N 0.71196 0.65493 0.61976 0.0
C1286 C 0.71101 0.64888 0.56833 0.0
C1287 C 0.73652 0.65093 0.59813 0.0
C1288 C 0.72823 0.65422 0.6226 0.0
C1289 C 0.72792 0.6483 0.57052 0.0
H1290 H 0.69084 0.6537 0.59128 0.0
H1291 H 0.73505 0.65666 0.64372 0.0
O1292 O 0.68386 0.67347 0.71028 0.0
O1293 O 0.67758 0.66124 0.64523 0.0
O1294 O 0.71735 0.68826 0.66576 0.0
O1295 O 0.69599 0.64602 0.68954 0.0
H1296 H 0.6491 0.66144 0.73024 0.0
H1297 H 0.70634 0.70845 0.72973 0.0
H1298 H 0.63953 0.68053 0.76052 0.0
H1299 H 0.69577 0.72683 0.75979 0.0
H1300 H 0.63531 0.60804 0.59617 0.0
H1301 H 0.65532 0.67381 0.6252 0.0
H1302 H 0.6644 0.62609 0.62608 0.0
H1303 H 0.62649 0.65502 0.59509 0.0
H1304 H 0.65079 0.71343 0.66262 0.0
H1305 H 0.70241 0.7403 0.61134 0.0
H1306 H 0.62895 0.59485 0.74466 0.0
H1307 H 0.60458 0.62205 0.69332 0.0
H1308 H 0.75021 0.6898 0.65638 0.0
H1309 H 0.72416 0.7211 0.68824 0.0
H1310 H 0.78174 0.71728 0.6684 0.0
H1311 H 0.75611 0.74798 0.70001 0.0
H1312 H 0.72718 0.64417 0.69845 0.0
H1313 H 0.66961 0.61325 0.66731 0.0
H1314 H 0.73084 0.61649 0.68625 0.0
H1315 H 0.6743 0.58617 0.65535 0.0
H1316 H 0.72443 0.6866 0.80795 0.0
H1317 H 0.76625 0.68309 0.75404 0.0
H1318 H 0.70417 0.64737 0.54735 0.0
H1319 H 0.7496 0.65063 0.6007 0.0
Li1320 Li 0.3528 0.32314 0.67795 0.0
Li1321 Li 0.33329 0.2915 0.69811 0.0
Li1322 Li 0.34228 0.29586 0.64462 0.0
Li1323 Li 0.3187 0.30392 0.66508 0.0
C1324 C 0.37735 0.3068 0.67805 0.0
N1325 N 0.41483 0.31579 0.67423 0.0
C1326 C 0.38622 0.30376 0.702 0.0
C1327 C 0.38746 0.31412 0.65203 0.0
C1328 C 0.40521 0.30849 0.69968 0.0
C1329 C 0.40642 0.31865 0.65055 0.0
C1330 C 0.32564 0.31376 0.73207 0.0
C1331 C 0.30268 0.301 0.77119 0.0
N1332 N 0.31633 0.31245 0.79059 0.0
C1333 C 0.33941 0.32554 0.75233 0.0
C1334 C 0.30709 0.30152 0.74148 0.0
C1335 C 0.33443 0.32461 0.78184 0.0
C1336 C 0.36809 0.36253 0.68399 0.0
N1337 N 0.37178 0.34824 0.68903 0.0
C1338 C 0.39838 0.36864 0.71904 0.0
C1339 C 0.38676 0.35104 0.70586 0.0
C1340 C 0.39458 0.38355 0.71488 0.0
C1341 C 0.37956 0.38044 0.6962 0.0
H1342 H 0.35564 0.35982 0.67174 0.0
H1343 H 0.38898 0.33934 0.71073 0.0
C1344 C 0.31638 0.25829 0.73412 0.0
N1345 N 0.33026 0.27678 0.73215 0.0
C1346 C 0.31455 0.24791 0.75954 0.0
C1347 C 0.34138 0.27576 0.78019 0.0
C1348 C 0.34277 0.28552 0.75436 0.0
C1349 C 0.32711 0.25667 0.78312 0.0
H1350 H 0.3068 0.2516 0.71593 0.0
H1351 H 0.35379 0.30018 0.75204 0.0
C1352 C 0.34773 0.33599 0.62415 0.0
N1353 N 0.36237 0.37063 0.59602 0.0
C1354 C 0.3362 0.34387 0.61863 0.0
C1355 C 0.36669 0.34572 0.61512 0.0
C1356 C 0.34386 0.36139 0.60444 0.0
C1357 C 0.37383 0.36322 0.60102 0.0
C1358 C 0.29918 0.26592 0.65453 0.0
C1359 C 0.29594 0.25885 0.6259 0.0
C1360 C 0.28392 0.26004 0.67383 0.0
C1361 C 0.27739 0.24615 0.61695 0.0
C1362 C 0.26558 0.24733 0.66403 0.0
N1363 N 0.26272 0.24072 0.63604 0.0
C1364 C 0.3462 0.26818 0.61248 0.0
C1365 C 0.3522 0.29564 0.58582 0.0
C1366 C 0.34875 0.25999 0.58719 0.0
N1367 N 0.34783 0.28563 0.61123 0.0
C1368 C 0.35504 0.2881 0.56014 0.0
C1369 C 0.35316 0.26998 0.56055 0.0
H1370 H 0.34251 0.26048 0.633 0.0
H1371 H 0.35311 0.30934 0.58536 0.0
C1372 C 0.29359 0.31794 0.67205 0.0
N1373 N 0.29708 0.30606 0.65566 0.0
C1374 C 0.28059 0.32321 0.66234 0.0
C1375 C 0.27418 0.30297 0.62007 0.0
C1376 C 0.28758 0.29842 0.63025 0.0
C1377 C 0.27101 0.31596 0.63575 0.0
H1378 H 0.30177 0.32427 0.69171 0.0
H1379 H 0.29124 0.28978 0.61689 0.0
O1380 O 0.35875 0.30219 0.67998 0.0
O1381 O 0.33029 0.31425 0.70316 0.0
O1382 O 0.34043 0.31883 0.63809 0.0
O1383 O 0.31723 0.27838 0.66367 0.0
H1384 H 0.37856 0.2979 0.72221 0.0
H1385 H 0.38072 0.3161 0.63308 0.0
H1386 H 0.41228 0.30632 0.71811 0.0
H1387 H 0.41441 0.32436 0.63054 0.0
H1388 H 0.2884 0.29151 0.77881 0.0
H1389 H 0.35382 0.33515 0.7454 0.0
H1390 H 0.29623 0.2925 0.72602 0.0
H1391 H 0.34497 0.33354 0.7978 0.0
H1392 H 0.40945 0.37008 0.73377 0.0
H1393 H 0.37614 0.39148 0.69196 0.0
H1394 H 0.30351 0.23316 0.7606 0.0
H1395 H 0.3512 0.28325 0.79785 0.0
H1396 H 0.32149 0.33662 0.62522 0.0
H1397 H 0.37588 0.33998 0.61916 0.0
H1398 H 0.33509 0.36764 0.60012 0.0
H1399 H 0.38851 0.37092 0.59408 0.0
H1400 H 0.30758 0.26325 0.61066 0.0
H1401 H 0.2862 0.26524 0.69611 0.0
H1402 H 0.27466 0.24064 0.59482 0.0
H1403 H 0.25362 0.24272 0.6787 0.0
H1404 H 0.34725 0.24602 0.58843 0.0
H1405 H 0.35813 0.29615 0.53999 0.0
H1406 H 0.27862 0.33341 0.67483 0.0
H1407 H 0.2674 0.29745 0.5991 0.0
Li1408 Li 0.68103 0.0297 0.68693 0.0
Li1409 Li 0.71236 0.04094 0.70566 0.0
Li1410 Li 0.70887 0.04611 0.6535 0.0
Li1411 Li 0.69978 0.01465 0.67325 0.0
C1412 C 0.69582 0.06861 0.67882 0.0
N1413 N 0.68368 0.09284 0.65892 0.0
C1414 C 0.69941 0.08455 0.69527 0.0
C1415 C 0.68611 0.06504 0.65219 0.0
C1416 C 0.69312 0.09661 0.68487 0.0
C1417 C 0.68009 0.07745 0.64251 0.0
C1418 C 0.69053 0.0142 0.74144 0.0
C1419 C 0.7017 0.00533 0.78422 0.0
N1420 N 0.69361 0.01291 0.8016 0.0
C1421 C 0.68225 0.02183 0.75971 0.0
C1422 C 0.70027 0.0058 0.75375 0.0
C1423 C 0.68398 0.02106 0.79008 0.0
C1424 C 0.64454 0.00462 0.70431 0.0
N1425 N 0.6555 0.02316 0.69674 0.0
C1426 C 0.63025 0.02905 0.70891 0.0
C1427 C 0.64873 0.03541 0.6988 0.0
C1428 C 0.6187 0.00994 0.71703 0.0
C1429 C 0.62606 0.99767 0.71432 0.0
H1430 H 0.65041 0.99531 0.70363 0.0
H1431 H 0.6577 0.0502 0.69353 0.0
C1432 C 0.74184 0.04909 0.74709 0.0
N1433 N 0.7276 0.05239 0.73942 0.0
C1434 C 0.75226 0.05705 0.77268 0.0
C1435 C 0.73345 0.07198 0.78155 0.0
C1436 C 0.72334 0.06365 0.75591 0.0
C1437 C 0.74805 0.06862 0.79032 0.0
H1438 H 0.74497 0.04012 0.73355 0.0
H1439 H 0.71181 0.06586 0.74942 0.0
C1440 C 0.66912 0.00996 0.63248 0.0
N1441 N 0.63669 0.98505 0.60212 0.0
C1442 C 0.65775 0.99136 0.64243 0.0
C1443 C 0.66406 0.01584 0.60694 0.0
C1444 C 0.6414 0.97899 0.62683 0.0
C1445 C 0.64759 0.00305 0.59194 0.0
C1446 C 0.73626 0.03001 0.66277 0.0
C1447 C 0.74524 0.03484 0.63546 0.0
C1448 C 0.73808 0.01705 0.68062 0.0
C1449 C 0.75567 0.02639 0.62627 0.0
C1450 C 0.7486 0.00888 0.67063 0.0
N1451 N 0.75709 0.01368 0.64388 0.0
C1452 C 0.72938 0.08041 0.62021 0.0
C1453 C 0.71681 0.05136 0.59416 0.0
C1454 C 0.73749 0.09068 0.59451 0.0
N1455 N 0.71929 0.06113 0.61947 0.0
C1456 C 0.72485 0.06101 0.56813 0.0
C1457 C 0.7354 0.08092 0.56812 0.0
H1458 H 0.73125 0.08778 0.64076 0.0
H1459 H 0.70884 0.03602 0.59437 0.0
C1460 C 0.68895 0.9754 0.67781 0.0
N1461 N 0.69699 0.99115 0.66062 0.0
C1462 C 0.68392 0.95768 0.66577 0.0
C1463 C 0.69638 0.97303 0.61912 0.0
C1464 C 0.70097 0.99033 0.63193 0.0
C1465 C 0.6873 0.95633 0.63588 0.0
H1466 H 0.68555 0.97644 0.7004 0.0
H1467 H 0.70686 0.00303 0.61864 0.0
O1468 O 0.70217 0.05687 0.68862 0.0
O1469 O 0.68947 0.01534 0.71167 0.0
O1470 O 0.68533 0.02228 0.64721 0.0
O1471 O 0.72579 0.03796 0.67198 0.0
H1472 H 0.707 0.08761 0.71584 0.0
H1473 H 0.6832 0.05283 0.63914 0.0
H1474 H 0.69578 0.10898 0.6974 0.0
H1475 H 0.67255 0.07483 0.62195 0.0
H1476 H 0.70929 0.99897 0.79405 0.0
H1477 H 0.67481 0.02855 0.75054 0.0
H1478 H 0.70678 0.99985 0.73992 0.0
H1479 H 0.67775 0.02702 0.80448 0.0
H1480 H 0.62518 0.03902 0.71082 0.0
H1481 H 0.61794 0.98297 0.72113 0.0
H1482 H 0.76349 0.05421 0.77857 0.0
H1483 H 0.72952 0.08054 0.79475 0.0
H1484 H 0.66148 0.98649 0.66201 0.0
H1485 H 0.67278 0.03012 0.59869 0.0
H1486 H 0.63247 0.96457 0.63435 0.0
H1487 H 0.6435 0.00743 0.57217 0.0
H1488 H 0.74423 0.04503 0.62152 0.0
H1489 H 0.73112 0.01304 0.70172 0.0
H1490 H 0.76263 0.02995 0.60514 0.0
H1491 H 0.74996 0.99869 0.68411 0.0
H1492 H 0.74558 0.10603 0.59535 0.0
H1493 H 0.7227 0.05298 0.54816 0.0
H1494 H 0.67691 0.94513 0.67939 0.0
H1495 H 0.69887 0.9726 0.59588 0.0
Li1496 Li 0.96574 0.67554 0.70102 0.0
Li1497 Li 0.9737 0.651 0.68301 0.0
Li1498 Li 0.99137 0.683 0.66756 0.0
Li1499 Li 0.96018 0.66438 0.64786 0.0
C1500 C 0.00685 0.68347 0.71726 0.0
N1501 N 0.04456 0.70458 0.73327 0.0
C1502 C 0.0186 0.67555 0.71553 0.0
C1503 C 0.01423 0.70208 0.72724 0.0
C1504 C 0.03764 0.68647 0.7237 0.0
C1505 C 0.03335 0.71253 0.73522 0.0
C1506 C 0.93326 0.63489 0.69751 0.0
C1507 C 0.9029 0.60609 0.69486 0.0
N1508 N 0.90218 0.60529 0.72464 0.0
C1509 C 0.93213 0.63387 0.72808 0.0
C1510 C 0.91845 0.62098 0.68073 0.0
C1511 C 0.91634 0.61876 0.74139 0.0
C1512 C 0.93843 0.68096 0.73138 0.0
N1513 N 0.95568 0.68219 0.7334 0.0
C1514 C 0.95765 0.68959 0.78436 0.0
C1515 C 0.96534 0.68644 0.75914 0.0
C1516 C 0.93971 0.68811 0.78318 0.0
C1517 C 0.93009 0.68384 0.7562 0.0
H1518 H 0.93095 0.67724 0.71067 0.0
H1519 H 0.97876 0.68676 0.76032 0.0
C1520 C 0.98623 0.62393 0.68006 0.0
N1521 N 0.97589 0.62979 0.6958 0.0
C1522 C 0.99064 0.61077 0.69185 0.0
C1523 C 0.97367 0.60984 0.73582 0.0
C1524 C 0.96952 0.62294 0.72313 0.0
C1525 C 0.98472 0.60388 0.72039 0.0
H1526 H 0.99199 0.63016 0.65899 0.0
H1527 H 0.96222 0.6285 0.73583 0.0
C1528 C 0.97897 0.70726 0.64989 0.0
N1529 N 0.99443 0.74146 0.62055 0.0
C1530 C 0.98484 0.70852 0.62079 0.0
C1531 C 0.98085 0.72333 0.66405 0.0
C1532 C 0.99267 0.72597 0.60635 0.0
C1533 C 0.98872 0.74051 0.64883 0.0
C1534 C 0.97701 0.6454 0.62354 0.0
C1535 C 0.98892 0.64704 0.60027 0.0
C1536 C 0.95975 0.62857 0.62722 0.0
C1537 C 0.98334 0.6318 0.58104 0.0
C1538 C 0.95468 0.61364 0.60754 0.0
N1539 N 0.96647 0.61555 0.58503 0.0
C1540 C 0.02664 0.69357 0.64515 0.0
C1541 C 0.02483 0.72053 0.65997 0.0
C1542 C 0.04506 0.70505 0.63493 0.0
N1543 N 0.0168 0.7014 0.65686 0.0
C1544 C 0.04323 0.73261 0.64968 0.0
C1545 C 0.05348 0.72485 0.63667 0.0
H1546 H 0.02006 0.67832 0.64344 0.0
H1547 H 0.01697 0.72643 0.67017 0.0
C1548 C 0.92604 0.65606 0.61836 0.0
N1549 N 0.94416 0.6597 0.61483 0.0
C1550 C 0.91448 0.65294 0.59387 0.0
C1551 C 0.94041 0.6572 0.56283 0.0
C1552 C 0.95153 0.6606 0.58775 0.0
C1553 C 0.92166 0.65331 0.56575 0.0
H1554 H 0.92063 0.65567 0.64017 0.0
H1555 H 0.96614 0.66412 0.5854 0.0
O1556 O 0.9883 0.67316 0.70865 0.0
O1557 O 0.9484 0.64979 0.68401 0.0
O1558 O 0.9714 0.69037 0.6645 0.0
O1559 O 0.98224 0.66038 0.64221 0.0
H1560 H 0.01314 0.6612 0.70771 0.0
H1561 H 0.00538 0.70851 0.72831 0.0
H1562 H 0.04693 0.68056 0.72234 0.0
H1563 H 0.03929 0.727 0.74279 0.0
H1564 H 0.89137 0.5952 0.68214 0.0
H1565 H 0.94338 0.64457 0.74144 0.0
H1566 H 0.91892 0.62171 0.65703 0.0
H1567 H 0.91534 0.61776 0.76503 0.0
H1568 H 0.96536 0.69246 0.80482 0.0
H1569 H 0.91625 0.6826 0.75439 0.0
H1570 H 0.9992 0.6066 0.67916 0.0
H1571 H 0.96925 0.60537 0.75819 0.0
H1572 H 0.98365 0.69624 0.60965 0.0
H1573 H 0.97634 0.72253 0.6866 0.0
H1574 H 0.9974 0.7272 0.58388 0.0
H1575 H 0.99031 0.75309 0.65952 0.0
H1576 H 0.00229 0.66001 0.597 0.0
H1577 H 0.95044 0.62698 0.64514 0.0
H1578 H 0.99239 0.63289 0.5629 0.0
H1579 H 0.94136 0.60053 0.61016 0.0
H1580 H 0.05235 0.69846 0.62477 0.0
H1581 H 0.04932 0.74782 0.65165 0.0
H1582 H 0.90007 0.65005 0.59683 0.0
H1583 H 0.94651 0.65794 0.54142 0.0
H1584 H 0.24695 0.3527 0.15594 0.0
N1585 N 0.22264 0.32025 0.12593 0.0
H1586 H 0.26231 0.35427 0.20257 0.0
H1587 H 0.21461 0.29168 0.16235 0.0
H1588 H 0.22957 0.29332 0.20998 0.0
H1589 H 0.23423 0.30045 0.09487 0.0
H1590 H 0.26247 0.31297 0.06363 0.0
H1591 H 0.2435 0.35707 0.10611 0.0
H1592 H 0.27197 0.36964 0.07585 0.0
H1593 H 0.21872 0.35138 0.13608 0.0
H1594 H 0.18893 0.29283 0.10908 0.0
H1595 H 0.18973 0.35289 0.13094 0.0
H1596 H 0.15944 0.29363 0.10603 0.0
H1597 H 0.10558 0.34934 0.1536 0.0
H1598 H 0.09174 0.35057 0.20013 0.0
H1599 H 0.06141 0.28927 0.2042 0.0
H1600 H 0.07607 0.28827 0.1578 0.0
H1601 H 0.06678 0.2979 0.09344 0.0
H1602 H 0.05158 0.31051 0.06172 0.0
H1603 H 0.10026 0.36676 0.07103 0.0
H1604 H 0.11538 0.35384 0.10292 0.0
H1605 H 0.13056 0.3416 0.1558 0.0
H1606 H 0.16101 0.34333 0.15383 0.0
H1607 H 0.14151 0.3039 0.08116 0.0
N1608 N 0.09859 0.31738 0.12348 0.0
H1609 H 0.11031 0.30113 0.08481 0.0
C1610 C 0.22981 0.32196 0.15533 0.0
C1611 C 0.2429 0.33964 0.16746 0.0
C1612 C 0.25168 0.34056 0.19419 0.0
C1613 C 0.24717 0.3239 0.20959 0.0
C1614 C 0.23322 0.30633 0.19845 0.0
C1615 C 0.22471 0.30539 0.17137 0.0
C1616 C 0.23682 0.32773 0.10318 0.0
C1617 C 0.24206 0.31549 0.08999 0.0
C1618 C 0.25814 0.32265 0.07217 0.0
C1619 C 0.26941 0.34228 0.06756 0.0
C1620 C 0.26354 0.35446 0.07925 0.0
C1621 C 0.24724 0.34723 0.09664 0.0
C1622 C 0.20602 0.32201 0.1224 0.0
C1623 C 0.20598 0.33888 0.12873 0.0
C1624 C 0.18922 0.33962 0.12622 0.0
C1625 C 0.17208 0.32339 0.11803 0.0
C1626 C 0.17233 0.30658 0.11169 0.0
C1627 C 0.18914 0.30599 0.11366 0.0
C1628 C 0.09195 0.31864 0.15227 0.0
C1629 C 0.09615 0.33615 0.16459 0.0
C1630 C 0.08805 0.33682 0.19117 0.0
C1631 C 0.07527 0.32001 0.20583 0.0
C1632 C 0.07134 0.30251 0.19371 0.0
C1633 C 0.07965 0.30188 0.1672 0.0
C1634 C 0.09204 0.3249 0.10062 0.0
C1635 C 0.07436 0.31285 0.08794 0.0
C1636 C 0.06575 0.32011 0.06976 0.0
C1637 C 0.07468 0.33968 0.06396 0.0
C1638 C 0.09294 0.35166 0.07538 0.0
C1639 C 0.10162 0.3443 0.09347 0.0
C1640 C 0.11776 0.32081 0.12075 0.0
C1641 C 0.13261 0.33326 0.13938 0.0
C1642 C 0.15033 0.33443 0.13802 0.0
C1643 C 0.15382 0.32357 0.11758 0.0
C1644 C 0.13928 0.31206 0.0978 0.0
C1645 C 0.12146 0.3106 0.09961 0.0
H1646 H 0.71753 0.77346 0.13686 0.0
N1647 N 0.69354 0.78444 0.11841 0.0
H1648 H 0.71763 0.75955 0.1845 0.0
H1649 H 0.6721 0.78209 0.16667 0.0
H1650 H 0.67211 0.76832 0.21374 0.0
H1651 H 0.65825 0.75366 0.12853 0.0
H1652 H 0.64391 0.72436 0.10085 0.0
H1653 H 0.70283 0.78 0.06433 0.0
H1654 H 0.68752 0.75124 0.03458 0.0
H1655 H 0.72224 0.81883 0.10775 0.0
H1656 H 0.66176 0.78792 0.12099 0.0
H1657 H 0.72176 0.84851 0.10538 0.0
H1658 H 0.66119 0.81764 0.12119 0.0
H1659 H 0.71841 0.94076 0.14501 0.0
H1660 H 0.71636 0.95361 0.19252 0.0
H1661 H 0.66475 0.90114 0.21155 0.0
H1662 H 0.66728 0.88829 0.16432 0.0
H1663 H 0.65611 0.8973 0.12047 0.0
H1664 H 0.64215 0.91184 0.09015 0.0
H1665 H 0.69556 0.94427 0.04475 0.0
H1666 H 0.70955 0.9299 0.07579 0.0
H1667 H 0.72022 0.89972 0.13827 0.0
H1668 H 0.71943 0.86949 0.13627 0.0
H1669 H 0.66377 0.84375 0.09636 0.0
N1670 N 0.69371 0.90751 0.12182 0.0
H1671 H 0.66416 0.8737 0.1005 0.0
C1672 C 0.69499 0.779 0.14804 0.0
C1673 C 0.70789 0.77274 0.15384 0.0
C1674 C 0.70782 0.76468 0.18092 0.0
C1675 C 0.69485 0.7628 0.20284 0.0
C1676 C 0.68247 0.76981 0.19748 0.0
C1677 C 0.68247 0.77774 0.17036 0.0
C1678 C 0.68208 0.76884 0.09899 0.0
C1679 C 0.66469 0.75332 0.10797 0.0
C1680 C 0.65632 0.7365 0.09175 0.0
C1681 C 0.6648 0.73503 0.06568 0.0
C1682 C 0.68097 0.75143 0.05512 0.0
C1683 C 0.68963 0.76804 0.07184 0.0
C1684 C 0.69218 0.80131 0.11508 0.0
C1685 C 0.70886 0.81854 0.11031 0.0
C1686 C 0.70854 0.83551 0.10935 0.0
C1687 C 0.6915 0.83568 0.11384 0.0
C1688 C 0.67459 0.81819 0.11753 0.0
C1689 C 0.6749 0.80114 0.11776 0.0
C1690 C 0.69302 0.91369 0.15116 0.0
C1691 C 0.70686 0.93198 0.15972 0.0
C1692 C 0.70557 0.93931 0.18673 0.0
C1693 C 0.6903 0.92846 0.20573 0.0
C1694 C 0.67679 0.90981 0.19758 0.0
C1695 C 0.67813 0.90247 0.17051 0.0
C1696 C 0.684 0.91267 0.1005 0.0
C1697 C 0.66472 0.90722 0.1036 0.0
C1698 C 0.6567 0.91548 0.0861 0.0
C1699 C 0.66782 0.92939 0.06529 0.0
C1700 C 0.68671 0.93382 0.06092 0.0
C1701 C 0.69469 0.92554 0.07841 0.0
C1702 C 0.69244 0.88921 0.11942 0.0
C1703 C 0.70784 0.88752 0.12916 0.0
C1704 C 0.7074 0.8702 0.12766 0.0
C1705 C 0.69164 0.85407 0.1157 0.0
C1706 C 0.6761 0.85574 0.10597 0.0
C1707 C 0.67639 0.87305 0.10809 0.0
H1708 H 0.11418 0.77033 0.16721 0.0
N1709 N 0.09596 0.78001 0.12621 0.0
H1710 H 0.10146 0.75558 0.21481 0.0
H1711 H 0.06397 0.77403 0.15112 0.0
H1712 H 0.05112 0.75934 0.19883 0.0
H1713 H 0.07185 0.77293 0.08251 0.0
H1714 H 0.05707 0.74475 0.05137 0.0
H1715 H 0.10703 0.75328 0.12189 0.0
H1716 H 0.09319 0.72571 0.08993 0.0
H1717 H 0.13135 0.78388 0.1182 0.0
H1718 H 0.10161 0.81488 0.1289 0.0
H1719 H 0.16141 0.81356 0.11555 0.0
H1720 H 0.13172 0.84471 0.12761 0.0
H1721 H 0.24502 0.89797 0.15324 0.0
H1722 H 0.2607 0.91001 0.20033 0.0
H1723 H 0.22399 0.93296 0.21788 0.0
H1724 H 0.20845 0.92108 0.17022 0.0
H1725 H 0.23254 0.93798 0.10495 0.0
H1726 H 0.25934 0.95291 0.07135 0.0
H1727 H 0.26094 0.90064 0.06697 0.0
H1728 H 0.23431 0.88601 0.10142 0.0
H1729 H 0.21254 0.86967 0.14798 0.0
H1730 H 0.18321 0.83918 0.14523 0.0
H1731 H 0.1568 0.8656 0.09698 0.0
N1732 N 0.21764 0.90396 0.12898 0.0
H1733 H 0.18597 0.89624 0.1013 0.0
C1734 C 0.0899 0.77317 0.15558 0.0
C1735 C 0.10049 0.76811 0.17402 0.0
C1736 C 0.09318 0.75964 0.20119 0.0
C1737 C 0.07524 0.75621 0.21049 0.0
C1738 C 0.06504 0.76195 0.19242 0.0
C1739 C 0.0723 0.77028 0.16518 0.0
C1740 C 0.09058 0.76535 0.10443 0.0
C1741 C 0.07687 0.76287 0.08365 0.0
C1742 C 0.0685 0.74676 0.06578 0.0
C1743 C 0.0738 0.73279 0.06826 0.0
C1744 C 0.08851 0.73598 0.08776 0.0
C1745 C 0.09668 0.75197 0.10586 0.0
C1746 C 0.11408 0.79714 0.12339 0.0
C1747 C 0.1312 0.79702 0.11985 0.0
C1748 C 0.1485 0.81411 0.11862 0.0
C1749 C 0.14908 0.83163 0.12125 0.0
C1750 C 0.13188 0.83159 0.12482 0.0
C1751 C 0.11464 0.81455 0.12577 0.0
C1752 C 0.22566 0.90886 0.15804 0.0
C1753 C 0.24023 0.90548 0.16718 0.0
C1754 C 0.24923 0.91241 0.19409 0.0
C1755 C 0.24368 0.92258 0.21257 0.0
C1756 C 0.22851 0.92512 0.20407 0.0
C1757 C 0.21965 0.91838 0.17694 0.0
C1758 C 0.2314 0.91097 0.1056 0.0
C1759 C 0.23843 0.92966 0.0962 0.0
C1760 C 0.25372 0.93811 0.07687 0.0
C1761 C 0.26234 0.92798 0.06633 0.0
C1762 C 0.25477 0.90891 0.07487 0.0
C1763 C 0.23943 0.90046 0.09436 0.0
C1764 C 0.20129 0.88535 0.1253 0.0
C1765 C 0.20046 0.86892 0.13684 0.0
C1766 C 0.18366 0.8514 0.13498 0.0
C1767 C 0.16747 0.8499 0.12119 0.0
C1768 C 0.16877 0.86625 0.10843 0.0
C1769 C 0.18546 0.88375 0.11062 0.0
H1770 H 0.35199 0.24423 0.86662 0.0
N1771 N 0.31869 0.22097 0.89493 0.0
H1772 H 0.3554 0.25896 0.81876 0.0
H1773 H 0.29115 0.21553 0.85821 0.0
H1774 H 0.29431 0.23086 0.81077 0.0
H1775 H 0.29875 0.23491 0.91904 0.0
H1776 H 0.30996 0.26183 0.95218 0.0
H1777 H 0.3536 0.23903 0.92221 0.0
H1778 H 0.36468 0.26522 0.95666 0.0
H1779 H 0.35029 0.21732 0.88804 0.0
H1780 H 0.29061 0.18676 0.90836 0.0
H1781 H 0.35167 0.18833 0.89281 0.0
H1782 H 0.29135 0.15723 0.91072 0.0
H1783 H 0.34935 0.10385 0.86729 0.0
H1784 H 0.35248 0.09166 0.8202 0.0
H1785 H 0.29207 0.06603 0.8063 0.0
H1786 H 0.28902 0.07837 0.85389 0.0
H1787 H 0.29592 0.06383 0.91916 0.0
H1788 H 0.30753 0.04752 0.95046 0.0
H1789 H 0.36348 0.09727 0.94969 0.0
H1790 H 0.35157 0.11352 0.91825 0.0
H1791 H 0.34237 0.13031 0.8658 0.0
H1792 H 0.34379 0.16063 0.86878 0.0
H1793 H 0.30012 0.13822 0.93547 0.0
N1794 N 0.31621 0.09716 0.89338 0.0
H1795 H 0.29769 0.10724 0.9304 0.0
C1796 C 0.32125 0.22863 0.86579 0.0
C1797 C 0.33935 0.24089 0.85427 0.0
C1798 C 0.34126 0.24952 0.82702 0.0
C1799 C 0.32512 0.24624 0.81091 0.0
C1800 C 0.30705 0.23355 0.82229 0.0
C1801 C 0.30518 0.22483 0.84943 0.0
C1802 C 0.32516 0.2348 0.91818 0.0
C1803 C 0.31305 0.24127 0.92765 0.0
C1804 C 0.31951 0.25664 0.9468 0.0
C1805 C 0.33831 0.26582 0.95727 0.0
C1806 C 0.35022 0.25873 0.94876 0.0
C1807 C 0.34379 0.2435 0.92919 0.0
C1808 C 0.32034 0.20428 0.89848 0.0
C1809 C 0.33748 0.20441 0.89384 0.0
C1810 C 0.33816 0.18763 0.8961 0.0
C1811 C 0.32162 0.17023 0.90215 0.0
C1812 C 0.30452 0.17027 0.90676 0.0
C1813 C 0.30398 0.18713 0.90517 0.0
C1814 C 0.31883 0.09187 0.86428 0.0
C1815 C 0.33675 0.09569 0.8542 0.0
C1816 C 0.33853 0.08866 0.82724 0.0
C1817 C 0.32249 0.07771 0.80973 0.0
C1818 C 0.3047 0.0745 0.81928 0.0
C1819 C 0.30291 0.08149 0.8464 0.0
C1820 C 0.32284 0.08974 0.9163 0.0
C1821 C 0.31054 0.07137 0.92647 0.0
C1822 C 0.31723 0.06212 0.9444 0.0
C1823 C 0.33647 0.07108 0.95246 0.0
C1824 C 0.34862 0.08994 0.94359 0.0
C1825 C 0.34183 0.09927 0.92578 0.0
C1826 C 0.31949 0.11617 0.89742 0.0
C1827 C 0.33302 0.13175 0.88105 0.0
C1828 C 0.334 0.14936 0.88307 0.0
C1829 C 0.32188 0.152 0.90209 0.0
C1830 C 0.30928 0.13669 0.91986 0.0
C1831 C 0.308 0.11898 0.91729 0.0
H1832 H 0.77571 0.11654 0.86003 0.0
N1833 N 0.78087 0.09632 0.90349 0.0
H1834 H 0.76158 0.10448 0.81194 0.0
H1835 H 0.77166 0.0629 0.8802 0.0
H1836 H 0.75737 0.05064 0.8321 0.0
H1837 H 0.77344 0.07489 0.95097 0.0
H1838 H 0.74403 0.06029 0.97962 0.0
H1839 H 0.75326 0.10629 0.9012 0.0
H1840 H 0.72393 0.09174 0.92953 0.0
H1841 H 0.78446 0.13139 0.91353 0.0
H1842 H 0.81583 0.10223 0.90019 0.0
H1843 H 0.81407 0.16156 0.91667 0.0
H1844 H 0.84554 0.13243 0.90196 0.0
H1845 H 0.89482 0.24163 0.8703 0.0
H1846 H 0.90693 0.25591 0.82274 0.0
H1847 H 0.93963 0.22739 0.81798 0.0
H1848 H 0.92654 0.2123 0.8653 0.0
H1849 H 0.9366 0.23136 0.92916 0.0
H1850 H 0.95222 0.2596 0.95997 0.0
H1851 H 0.90304 0.26649 0.95275 0.0
H1852 H 0.88752 0.2381 0.92181 0.0
H1853 H 0.8694 0.21296 0.88321 0.0
H1854 H 0.8392 0.18358 0.88654 0.0
H1855 H 0.86665 0.15742 0.93261 0.0
N1856 N 0.90419 0.21839 0.90066 0.0
H1857 H 0.89711 0.18675 0.92768 0.0
C1858 C 0.77475 0.09055 0.87371 0.0
C1859 C 0.77202 0.10225 0.85397 0.0
C1860 C 0.76382 0.09529 0.82655 0.0
C1861 C 0.75827 0.07658 0.8183 0.0
C1862 C 0.76167 0.06517 0.83767 0.0
C1863 C 0.76978 0.07212 0.86513 0.0
C1864 C 0.76554 0.0915 0.92381 0.0
C1865 C 0.76294 0.07908 0.94687 0.0
C1866 C 0.74616 0.0708 0.96322 0.0
C1867 C 0.73163 0.07476 0.95656 0.0
C1868 C 0.73483 0.08831 0.9349 0.0
C1869 C 0.75166 0.09668 0.91874 0.0
C1870 C 0.79794 0.11443 0.90692 0.0
C1871 C 0.79769 0.1314 0.91144 0.0
C1872 C 0.81471 0.14875 0.91296 0.0
C1873 C 0.83228 0.14951 0.90964 0.0
C1874 C 0.83237 0.13244 0.90526 0.0
C1875 C 0.81541 0.11515 0.90404 0.0
C1876 C 0.9096 0.22562 0.87128 0.0
C1877 C 0.90418 0.238 0.85882 0.0
C1878 C 0.9114 0.24645 0.83169 0.0
C1879 C 0.92445 0.243 0.81659 0.0
C1880 C 0.92946 0.23023 0.82877 0.0
C1881 C 0.92205 0.22162 0.85583 0.0
C1882 C 0.91104 0.23272 0.9231 0.0
C1883 C 0.92902 0.23869 0.93493 0.0
C1884 C 0.93787 0.25481 0.95258 0.0
C1885 C 0.9289 0.26537 0.95869 0.0
C1886 C 0.91039 0.25877 0.94814 0.0
C1887 C 0.90147 0.2425 0.93056 0.0
C1888 C 0.88569 0.20195 0.90471 0.0
C1889 C 0.86903 0.20098 0.89398 0.0
C1890 C 0.85161 0.18412 0.89621 0.0
C1891 C 0.85045 0.16797 0.90955 0.0
C1892 C 0.86704 0.16937 0.92153 0.0
C1893 C 0.88444 0.18615 0.91898 0.0
H1894 H 0.77147 0.71148 0.87599 0.0
N1895 N 0.78319 0.68796 0.89357 0.0
H1896 H 0.75588 0.71071 0.82958 0.0
H1897 H 0.77861 0.66518 0.84604 0.0
H1898 H 0.76331 0.66446 0.79989 0.0
H1899 H 0.75214 0.65236 0.88837 0.0
H1900 H 0.72474 0.63862 0.92073 0.0
H1901 H 0.78173 0.69953 0.94744 0.0
H1902 H 0.75499 0.68514 0.98142 0.0
H1903 H 0.81727 0.71743 0.90323 0.0
H1904 H 0.78789 0.65699 0.88991 0.0
H1905 H 0.84742 0.71796 0.90592 0.0
H1906 H 0.81814 0.65742 0.8898 0.0
H1907 H 0.94278 0.7163 0.87317 0.0
H1908 H 0.9564 0.71494 0.82596 0.0
H1909 H 0.90316 0.66564 0.80207 0.0
H1910 H 0.88965 0.6672 0.84927 0.0
H1911 H 0.9009 0.65542 0.89207 0.0
H1912 H 0.91494 0.64162 0.92359 0.0
H1913 H 0.94017 0.69246 0.97672 0.0
H1914 H 0.92686 0.70655 0.9438 0.0
H1915 H 0.9002 0.71834 0.87696 0.0
H1916 H 0.8695 0.71657 0.87689 0.0
H1917 H 0.84407 0.66048 0.91523 0.0
N1918 N 0.90846 0.69221 0.89376 0.0
H1919 H 0.87458 0.66183 0.91288 0.0
C1920 C 0.77639 0.68858 0.86458 0.0
C1921 C 0.77003 0.70143 0.85921 0.0
C1922 C 0.76105 0.70089 0.83283 0.0
C1923 C 0.75837 0.6875 0.81115 0.0
C1924 C 0.76539 0.67509 0.81604 0.0
C1925 C 0.77419 0.67551 0.84256 0.0
C1926 C 0.76875 0.67734 0.91511 0.0
C1927 C 0.75294 0.65952 0.90873 0.0
C1928 C 0.73727 0.65155 0.92756 0.0
C1929 C 0.73732 0.66098 0.95351 0.0
C1930 C 0.75406 0.67779 0.96117 0.0
C1931 C 0.76949 0.68595 0.94199 0.0
C1932 C 0.8005 0.68733 0.8957 0.0
C1933 C 0.81745 0.7043 0.90049 0.0
C1934 C 0.83469 0.70455 0.90167 0.0
C1935 C 0.83546 0.6878 0.89738 0.0
C1936 C 0.81826 0.67062 0.89334 0.0
C1937 C 0.80091 0.67036 0.89294 0.0
C1938 C 0.91528 0.69194 0.86468 0.0
C1939 C 0.93402 0.70539 0.85752 0.0
C1940 C 0.94177 0.70452 0.83067 0.0
C1941 C 0.93087 0.69014 0.81037 0.0
C1942 C 0.91184 0.677 0.81714 0.0
C1943 C 0.90413 0.67783 0.84412 0.0
C1944 C 0.91319 0.68223 0.91529 0.0
C1945 C 0.90928 0.66352 0.91067 0.0
C1946 C 0.9172 0.65556 0.92899 0.0
C1947 C 0.92901 0.66602 0.95253 0.0
C1948 C 0.93158 0.68416 0.95839 0.0
C1949 C 0.92383 0.69218 0.93983 0.0
C1950 C 0.8899 0.69043 0.89516 0.0
C1951 C 0.88796 0.70566 0.88529 0.0
C1952 C 0.87035 0.70465 0.8856 0.0
C1953 C 0.85415 0.68848 0.89652 0.0
C1954 C 0.85609 0.67311 0.90637 0.0
C1955 C 0.8737 0.67396 0.90536 0.0
H1956 H 0.72577 0.62237 0.47879 0.0
N1957 N 0.7609 0.64593 0.46075 0.0
H1958 H 0.71125 0.62312 0.52551 0.0
H1959 H 0.77947 0.66855 0.50835 0.0
H1960 H 0.76516 0.66924 0.55475 0.0
H1961 H 0.76581 0.68163 0.4665 0.0
H1962 H 0.75225 0.69573 0.43465 0.0
H1963 H 0.74701 0.63434 0.4073 0.0
H1964 H 0.73468 0.64904 0.37389 0.0
H1965 H 0.76622 0.61698 0.45038 0.0
H1966 H 0.79629 0.67741 0.46392 0.0
H1967 H 0.79622 0.61727 0.44639 0.0
H1968 H 0.82648 0.6778 0.46278 0.0
H1969 H 0.89806 0.62444 0.47598 0.0
H1970 H 0.91448 0.62768 0.52255 0.0
H1971 H 0.90312 0.67193 0.54906 0.0
H1972 H 0.88716 0.66902 0.50212 0.0
H1973 H 0.9129 0.68228 0.45856 0.0
H1974 H 0.94099 0.69592 0.42756 0.0
H1975 H 0.91488 0.64563 0.3732 0.0
H1976 H 0.88733 0.63162 0.40576 0.0
H1977 H 0.84979 0.61847 0.47346 0.0
H1978 H 0.82033 0.61924 0.47435 0.0
H1979 H 0.84941 0.67551 0.43634 0.0
N1980 N 0.88379 0.64546 0.45666 0.0
H1981 H 0.87911 0.67514 0.43794 0.0
C1982 C 0.7537 0.64522 0.48994 0.0
C1983 C 0.7345 0.63238 0.49554 0.0
C1984 C 0.72623 0.63291 0.5221 0.0
C1985 C 0.73708 0.64626 0.54373 0.0
C1986 C 0.7565 0.65863 0.53864 0.0
C1987 C 0.76472 0.65823 0.51194 0.0
C1988 C 0.75684 0.65658 0.43964 0.0
C1989 C 0.75917 0.6745 0.44623 0.0
C1990 C 0.75155 0.68268 0.4277 0.0
C1991 C 0.74188 0.67334 0.40188 0.0
C1992 C 0.74138 0.65635 0.39404 0.0
C1993 C 0.74861 0.648 0.41291 0.0
C1994 C 0.77903 0.64701 0.45813 0.0
C1995 C 0.77939 0.63028 0.45292 0.0
C1996 C 0.79661 0.6305 0.45097 0.0
C1997 C 0.81396 0.6475 0.45492 0.0
C1998 C 0.81353 0.66442 0.45945 0.0
C1999 C 0.79624 0.66422 0.46059 0.0
C2000 C 0.89128 0.64632 0.48565 0.0
C2001 C 0.89887 0.63462 0.49204 0.0
C2002 C 0.90826 0.63652 0.5185 0.0
C2003 C 0.90998 0.65002 0.53926 0.0
C2004 C 0.90176 0.66129 0.53346 0.0
C2005 C 0.89266 0.65962 0.50669 0.0
C2006 C 0.89822 0.65567 0.43485 0.0
C2007 C 0.91311 0.67431 0.43973 0.0
C2008 C 0.92916 0.68218 0.42172 0.0
C2009 C 0.93049 0.67172 0.39816 0.0
C2010 C 0.91466 0.65387 0.39166 0.0
C2011 C 0.89878 0.6459 0.41 0.0
C2012 C 0.86662 0.64653 0.45536 0.0
C2013 C 0.84975 0.63095 0.46533 0.0
C2014 C 0.83285 0.63139 0.46551 0.0
C2015 C 0.83224 0.64735 0.45499 0.0
C2016 C 0.84924 0.66304 0.44492 0.0
C2017 C 0.86631 0.66275 0.44546 0.0
H2018 H 0.38234 0.10719 0.47169 0.0
N2019 N 0.35741 0.11644 0.45168 0.0
H2020 H 0.38203 0.09297 0.51924 0.0
H2021 H 0.33383 0.11162 0.49815 0.0
H2022 H 0.33347 0.09759 0.54528 0.0
H2023 H 0.32084 0.08706 0.45639 0.0
H2024 H 0.30709 0.05777 0.42806 0.0
H2025 H 0.37057 0.11117 0.40151 0.0
H2026 H 0.35648 0.08231 0.37178 0.0
H2027 H 0.38618 0.15059 0.44015 0.0
H2028 H 0.32576 0.12019 0.45396 0.0
H2029 H 0.38588 0.1803 0.43635 0.0
H2030 H 0.32538 0.14998 0.45296 0.0
H2031 H 0.38219 0.27386 0.47105 0.0
H2032 H 0.38039 0.28702 0.51846 0.0
H2033 H 0.33039 0.23381 0.54024 0.0
H2034 H 0.3324 0.22077 0.49279 0.0
H2035 H 0.32109 0.23111 0.44839 0.0
H2036 H 0.30794 0.24599 0.41702 0.0
H2037 H 0.36079 0.27448 0.36908 0.0
H2038 H 0.37403 0.25999 0.40136 0.0
H2039 H 0.3849 0.23233 0.46611 0.0
H2040 H 0.38393 0.202 0.46575 0.0
H2041 H 0.32784 0.17562 0.42718 0.0
N2042 N 0.35825 0.23984 0.44944 0.0
H2043 H 0.32842 0.20577 0.42988 0.0
C2044 C 0.35829 0.11064 0.48126 0.0
C2045 C 0.3719 0.10547 0.48794 0.0
C2046 C 0.37161 0.09724 0.51496 0.0
C2047 C 0.3577 0.09414 0.53594 0.0
C2048 C 0.34452 0.10003 0.52971 0.0
C2049 C 0.34472 0.10809 0.5026 0.0
C2050 C 0.34698 0.10113 0.43139 0.0
C2051 C 0.32856 0.08627 0.43766 0.0
C2052 C 0.32064 0.06951 0.42123 0.0
C2053 C 0.33087 0.06746 0.398 0.0
C2054 C 0.34845 0.08316 0.39006 0.0
C2055 C 0.35645 0.09975 0.40677 0.0
C2056 C 0.35616 0.13333 0.448 0.0
C2057 C 0.37287 0.15043 0.44264 0.0
C2058 C 0.37264 0.16742 0.44085 0.0
C2059 C 0.35567 0.16777 0.44511 0.0
C2060 C 0.33874 0.1504 0.44948 0.0
C2061 C 0.33894 0.1333 0.45049 0.0
C2062 C 0.35752 0.24642 0.47849 0.0
C2063 C 0.371 0.26502 0.48626 0.0
C2064 C 0.36987 0.2725 0.51322 0.0
C2065 C 0.3552 0.26146 0.53301 0.0
C2066 C 0.34196 0.24259 0.52556 0.0
C2067 C 0.34304 0.23514 0.49844 0.0
C2068 C 0.34871 0.24475 0.42745 0.0
C2069 C 0.32971 0.24024 0.43076 0.0
C2070 C 0.32215 0.24866 0.41261 0.0
C2071 C 0.33343 0.26168 0.39084 0.0
C2072 C 0.35185 0.2648 0.38602 0.0
C2073 C 0.35941 0.25645 0.40425 0.0
C2074 C 0.35693 0.22151 0.44781 0.0
C2075 C 0.3724 0.21996 0.45763 0.0
C2076 C 0.37185 0.20258 0.45707 0.0
C2077 C 0.35591 0.18624 0.44597 0.0
C2078 C 0.34031 0.18778 0.43614 0.0
C2079 C 0.34071 0.20517 0.43737 0.0
H2080 H 0.76666 0.08846 0.47972 0.0
N2081 N 0.76065 0.11577 0.4557 0.0
H2082 H 0.75566 0.07362 0.52773 0.0
H2083 H 0.74515 0.12623 0.49775 0.0
H2084 H 0.73414 0.11147 0.54607 0.0
H2085 H 0.72484 0.09883 0.43881 0.0
H2086 H 0.70808 0.07077 0.40831 0.0
H2087 H 0.77742 0.09964 0.42261 0.0
H2088 H 0.76106 0.07228 0.39057 0.0
H2089 H 0.79497 0.11762 0.46353 0.0
H2090 H 0.76853 0.15005 0.43895 0.0
H2091 H 0.82619 0.14579 0.45864 0.0
H2092 H 0.79956 0.17869 0.43604 0.0
H2093 H 0.90862 0.22762 0.48556 0.0
H2094 H 0.92366 0.24027 0.5326 0.0
H2095 H 0.89476 0.27258 0.53824 0.0
H2096 H 0.87912 0.25912 0.49134 0.0
H2097 H 0.89813 0.26894 0.42731 0.0
H2098 H 0.92616 0.2841 0.39601 0.0
H2099 H 0.93217 0.23439 0.40298 0.0
H2100 H 0.90389 0.2193 0.4344 0.0
H2101 H 0.87562 0.20346 0.4862 0.0
H2102 H 0.84617 0.17372 0.48281 0.0
H2103 H 0.82809 0.19625 0.41183 0.0
N2104 N 0.88484 0.2365 0.4559 0.0
H2105 H 0.85728 0.22672 0.41696 0.0
C2106 C 0.75655 0.10838 0.48514 0.0
C2107 C 0.75983 0.09375 0.49419 0.0
C2108 C 0.75343 0.08521 0.52155 0.0
C2109 C 0.74387 0.09127 0.54046 0.0
C2110 C 0.74152 0.10656 0.53198 0.0
C2111 C 0.74775 0.11497 0.50447 0.0
C2112 C 0.75235 0.10149 0.43309 0.0
C2113 C 0.73287 0.0933 0.42784 0.0
C2114 C 0.72333 0.07725 0.41019 0.0
C2115 C 0.73314 0.06908 0.39681 0.0
C2116 C 0.75292 0.0779 0.40087 0.0
C2117 C 0.76241 0.09382 0.41904 0.0
C2118 C 0.77939 0.13172 0.45112 0.0
C2119 C 0.79589 0.13079 0.45677 0.0
C2120 C 0.81379 0.14705 0.45436 0.0
C2121 C 0.81558 0.16469 0.44701 0.0
C2122 C 0.79895 0.1654 0.44109 0.0
C2123 C 0.78113 0.14907 0.44294 0.0
C2124 C 0.89257 0.24233 0.48499 0.0
C2125 C 0.90528 0.2372 0.49703 0.0
C2126 C 0.91405 0.24464 0.5239 0.0
C2127 C 0.9106 0.25763 0.53915 0.0
C2128 C 0.8976 0.26245 0.52731 0.0
C2129 C 0.88867 0.25483 0.50051 0.0
C2130 C 0.89906 0.24315 0.43327 0.0
C2131 C 0.90521 0.26115 0.42139 0.0
C2132 C 0.92121 0.26974 0.40345 0.0
C2133 C 0.93147 0.26048 0.39711 0.0
C2134 C 0.92467 0.24195 0.40775 0.0
C2135 C 0.90851 0.23329 0.42559 0.0
C2136 C 0.86863 0.2177 0.45217 0.0
C2137 C 0.86547 0.20221 0.46985 0.0
C2138 C 0.84851 0.1849 0.46764 0.0
C2139 C 0.83446 0.18247 0.44727 0.0
C2140 C 0.83824 0.19765 0.42839 0.0
C2141 C 0.85502 0.21506 0.43104 0.0
H2142 H 0.01455 0.57745 0.20379 0.0
N2143 N 0.98197 0.55211 0.23214 0.0
H2144 H 0.01651 0.59278 0.15693 0.0
H2145 H 0.95377 0.5438 0.19491 0.0
H2146 H 0.9556 0.55918 0.14779 0.0
H2147 H 0.96184 0.56534 0.25777 0.0
H2148 H 0.97348 0.59329 0.2889 0.0
H2149 H 0.0176 0.5715 0.25689 0.0
H2150 H 0.02929 0.59912 0.28875 0.0
H2151 H 0.01386 0.54954 0.22169 0.0
H2152 H 0.95549 0.51803 0.24934 0.0
H2153 H 0.01655 0.52118 0.22634 0.0
H2154 H 0.95748 0.48917 0.25198 0.0
H2155 H 0.01589 0.43849 0.20229 0.0
H2156 H 0.0179 0.42534 0.1555 0.0
H2157 H 0.95664 0.39379 0.15024 0.0
H2158 H 0.95484 0.40771 0.19691 0.0
H2159 H 0.96382 0.39814 0.26109 0.0
H2160 H 0.97628 0.38271 0.29261 0.0
H2161 H 0.03249 0.43166 0.28495 0.0
H2162 H 0.01971 0.44703 0.25332 0.0
H2163 H 0.00689 0.46276 0.20004 0.0
H2164 H 0.00769 0.49275 0.20292 0.0
H2165 H 0.96877 0.47186 0.27619 0.0
N2166 N 0.98344 0.43031 0.23199 0.0
H2167 H 0.96693 0.44112 0.27168 0.0
C2168 C 0.98393 0.55949 0.20288 0.0
C2169 C 0.00164 0.57312 0.19156 0.0
C2170 C 0.00273 0.582 0.16485 0.0
C2171 C 0.98618 0.57733 0.14889 0.0
C2172 C 0.96859 0.56301 0.15955 0.0
C2173 C 0.96751 0.55423 0.18638 0.0
C2174 C 0.98871 0.56624 0.25497 0.0
C2175 C 0.97646 0.57239 0.2651 0.0
C2176 C 0.98318 0.58837 0.28298 0.0
C2177 C 0.0024 0.59857 0.29129 0.0
C2178 C 0.01448 0.59177 0.28243 0.0
C2179 C 0.00773 0.5758 0.26435 0.0
C2180 C 0.98448 0.53594 0.23568 0.0
C2181 C 0.00165 0.53656 0.22906 0.0
C2182 C 0.00306 0.52016 0.23132 0.0
C2183 C 0.98724 0.50272 0.23955 0.0
C2184 C 0.97014 0.50231 0.24627 0.0
C2185 C 0.96888 0.51876 0.24453 0.0
C2186 C 0.98513 0.42416 0.20304 0.0
C2187 C 0.00288 0.42894 0.19098 0.0
C2188 C 0.004 0.42123 0.16425 0.0
C2189 C 0.98742 0.40832 0.14918 0.0
C2190 C 0.9697 0.40384 0.16104 0.0
C2191 C 0.96861 0.41173 0.18771 0.0
C2192 C 0.99081 0.42357 0.25477 0.0
C2193 C 0.97872 0.40572 0.26692 0.0
C2194 C 0.98589 0.39697 0.28497 0.0
C2195 C 0.00542 0.40592 0.29118 0.0
C2196 C 0.01742 0.42433 0.28029 0.0
C2197 C 0.01015 0.43315 0.26233 0.0
C2198 C 0.98645 0.44929 0.23537 0.0
C2199 C 0.99849 0.46442 0.21682 0.0
C2200 C 0.99912 0.48187 0.2187 0.0
C2201 C 0.9881 0.48482 0.23955 0.0
C2202 C 0.97703 0.47004 0.25925 0.0
C2203 C 0.97611 0.45248 0.25696 0.0
H2204 H 0.6106 0.56361 0.22004 0.0
N2205 N 0.57549 0.55296 0.23731 0.0
H2206 H 0.62524 0.57727 0.17259 0.0
H2207 H 0.55702 0.55518 0.18816 0.0
H2208 H 0.57142 0.56869 0.14124 0.0
H2209 H 0.57204 0.58422 0.22592 0.0
H2210 H 0.58685 0.61345 0.25378 0.0
H2211 H 0.58788 0.55704 0.29221 0.0
H2212 H 0.60109 0.58573 0.32206 0.0
H2213 H 0.56975 0.5188 0.24997 0.0
H2214 H 0.54025 0.54935 0.23297 0.0
H2215 H 0.53959 0.4892 0.25338 0.0
H2216 H 0.50992 0.51961 0.23372 0.0
H2217 H 0.44286 0.39558 0.21846 0.0
H2218 H 0.42783 0.38181 0.17134 0.0
H2219 H 0.43028 0.43445 0.14808 0.0
H2220 H 0.44544 0.44812 0.19524 0.0
H2221 H 0.42399 0.43817 0.23987 0.0
H2222 H 0.39605 0.42338 0.27147 0.0
H2223 H 0.42092 0.39571 0.32022 0.0
H2224 H 0.44856 0.4101 0.28773 0.0
H2225 H 0.48685 0.43704 0.22335 0.0
H2226 H 0.51626 0.46736 0.22356 0.0
H2227 H 0.48633 0.49419 0.25964 0.0
N2228 N 0.45261 0.42973 0.23916 0.0
H2229 H 0.45673 0.464 0.25712 0.0
C2230 C 0.58272 0.5582 0.20781 0.0
C2231 C 0.60192 0.56431 0.20265 0.0
C2232 C 0.61026 0.57223 0.17566 0.0
C2233 C 0.59948 0.5741 0.15321 0.0
C2234 C 0.58005 0.56721 0.15794 0.0
C2235 C 0.57176 0.55942 0.18496 0.0
C2236 C 0.57954 0.56862 0.25651 0.0
C2237 C 0.57826 0.58437 0.24694 0.0
C2238 C 0.58661 0.60115 0.26326 0.0
C2239 C 0.59583 0.60235 0.29 0.0
C2240 C 0.59495 0.58575 0.30103 0.0
C2241 C 0.58713 0.56918 0.28424 0.0
C2242 C 0.55725 0.53611 0.24062 0.0
C2243 C 0.55667 0.51901 0.24672 0.0
C2244 C 0.53938 0.50208 0.24829 0.0
C2245 C 0.52217 0.50178 0.24308 0.0
C2246 C 0.52277 0.51916 0.23795 0.0
C2247 C 0.54014 0.5362 0.23713 0.0
C2248 C 0.44527 0.42279 0.21026 0.0
C2249 C 0.44034 0.40417 0.20298 0.0
C2250 C 0.43168 0.39633 0.1762 0.0
C2251 C 0.42781 0.40703 0.15607 0.0
C2252 C 0.43326 0.42593 0.16302 0.0
C2253 C 0.44184 0.43373 0.18997 0.0
C2254 C 0.43822 0.42493 0.26122 0.0
C2255 C 0.42362 0.42925 0.25774 0.0
C2256 C 0.40768 0.42088 0.276 0.0
C2257 C 0.40611 0.40811 0.29808 0.0
C2258 C 0.42153 0.40519 0.30306 0.0
C2259 C 0.43738 0.41349 0.2847 0.0
C2260 C 0.46962 0.44808 0.24049 0.0
C2261 C 0.48668 0.44951 0.23125 0.0
C2262 C 0.50354 0.46688 0.23172 0.0
C2263 C 0.5039 0.48335 0.24213 0.0
C2264 C 0.48669 0.48194 0.25126 0.0
C2265 C 0.46967 0.46453 0.25013 0.0
H2266 H 0.54882 0.98711 0.18444 0.0
N2267 N 0.56823 0.01337 0.22726 0.0
H2268 H 0.56135 0.98506 0.13673 0.0
H2269 H 0.60137 0.03821 0.20386 0.0
H2270 H 0.61404 0.03629 0.15604 0.0
H2271 H 0.58998 0.02821 0.27416 0.0
H2272 H 0.60418 0.0137 0.30429 0.0
H2273 H 0.55779 0.97562 0.22706 0.0
H2274 H 0.57171 0.961 0.25716 0.0
H2275 H 0.53286 0.98202 0.2359 0.0
H2276 H 0.56279 0.04268 0.22399 0.0
H2277 H 0.50282 0.9818 0.23807 0.0
H2278 H 0.53277 0.04256 0.22486 0.0
H2279 H 0.42097 0.9828 0.19653 0.0
H2280 H 0.40528 0.97945 0.14965 0.0
H2281 H 0.43903 0.03996 0.13599 0.0
H2282 H 0.45482 0.04322 0.18322 0.0
H2283 H 0.43343 0.03578 0.24907 0.0
H2284 H 0.40645 0.02379 0.2825 0.0
H2285 H 0.402 0.9686 0.28127 0.0
H2286 H 0.42905 0.98081 0.24759 0.0
H2287 H 0.45217 0.98698 0.20375 0.0
H2288 H 0.48137 0.98568 0.20729 0.0
H2289 H 0.50762 0.03857 0.25537 0.0
N2290 N 0.44699 0.01619 0.22257 0.0
H2291 H 0.47857 0.04018 0.25031 0.0
C2292 C 0.57426 0.01285 0.19774 0.0
C2293 C 0.56297 0.99801 0.17831 0.0
C2294 C 0.57017 0.99681 0.15109 0.0
C2295 C 0.5887 0.01047 0.14273 0.0
C2296 C 0.59966 0.02567 0.16175 0.0
C2297 C 0.59249 0.02677 0.18904 0.0
C2298 C 0.57296 0.00315 0.24828 0.0
C2299 C 0.58552 0.01337 0.27098 0.0
C2300 C 0.59357 0.00502 0.2882 0.0
C2301 C 0.58918 0.98624 0.28289 0.0
C2302 C 0.57553 0.97557 0.26151 0.0
C2303 C 0.56747 0.98392 0.24436 0.0
C2304 C 0.55018 0.0125 0.2301 0.0
C2305 C 0.53304 0.99533 0.23391 0.0
C2306 C 0.51578 0.9952 0.23487 0.0
C2307 C 0.5153 0.01217 0.23173 0.0
C2308 C 0.53254 0.02926 0.22801 0.0
C2309 C 0.54973 0.02938 0.22732 0.0
C2310 C 0.43907 0.01337 0.1935 0.0
C2311 C 0.42521 0.99535 0.18342 0.0
C2312 C 0.41613 0.99345 0.15664 0.0
C2313 C 0.42078 0.00947 0.13931 0.0
C2314 C 0.43522 0.02735 0.1488 0.0
C2315 C 0.44422 0.02925 0.17572 0.0
C2316 C 0.43318 0.00925 0.24581 0.0
C2317 C 0.42689 0.02123 0.25661 0.0
C2318 C 0.41151 0.01434 0.27577 0.0
C2319 C 0.40204 0.9952 0.2845 0.0
C2320 C 0.4089 0.98336 0.27471 0.0
C2321 C 0.42442 0.99034 0.25559 0.0
C2322 C 0.46334 0.01396 0.22629 0.0
C2323 C 0.46418 0.99832 0.21499 0.0
C2324 C 0.48089 0.99749 0.21732 0.0
C2325 C 0.49699 0.01214 0.23133 0.0
C2326 C 0.49571 0.02728 0.24379 0.0
C2327 C 0.47909 0.02818 0.24115 0.0
H2328 H 0.3958 0.95342 0.80563 0.0
N2329 N 0.42983 0.97969 0.7868 0.0
H2330 H 0.38055 0.95287 0.85223 0.0
H2331 H 0.44663 0.00389 0.83323 0.0
H2332 H 0.43152 0.00376 0.87918 0.0
H2333 H 0.43552 0.01576 0.79156 0.0
H2334 H 0.42104 0.02935 0.76072 0.0
H2335 H 0.41472 0.9674 0.73417 0.0
H2336 H 0.40153 0.98163 0.70151 0.0
H2337 H 0.4348 0.95066 0.77532 0.0
H2338 H 0.46541 0.0108 0.79167 0.0
H2339 H 0.46459 0.95045 0.77236 0.0
H2340 H 0.49536 0.01063 0.79142 0.0
H2341 H 0.56276 0.95313 0.80542 0.0
H2342 H 0.57782 0.95439 0.85257 0.0
H2343 H 0.57117 0.00171 0.87885 0.0
H2344 H 0.55637 0.00053 0.83147 0.0
H2345 H 0.57958 0.01383 0.78733 0.0
H2346 H 0.60854 0.02786 0.75797 0.0
H2347 H 0.58614 0.97606 0.70768 0.0
H2348 H 0.55738 0.96197 0.7378 0.0
H2349 H 0.51698 0.95005 0.80171 0.0
H2350 H 0.4879 0.95155 0.80176 0.0
H2351 H 0.51849 0.00816 0.76523 0.0
N2352 N 0.55143 0.97658 0.78594 0.0
H2353 H 0.54776 0.007 0.7674 0.0
C2354 C 0.42233 0.97858 0.81586 0.0
C2355 C 0.40375 0.9642 0.82192 0.0
C2356 C 0.39503 0.96403 0.84841 0.0
C2357 C 0.40477 0.97834 0.86941 0.0
C2358 C 0.42367 0.99236 0.86373 0.0
C2359 C 0.43237 0.99248 0.83726 0.0
C2360 C 0.42561 0.99019 0.76563 0.0
C2361 C 0.42825 0.00828 0.77187 0.0
C2362 C 0.42009 0.01617 0.75387 0.0
C2363 C 0.40956 0.00638 0.72887 0.0
C2364 C 0.40884 0.98927 0.72112 0.0
C2365 C 0.41659 0.98119 0.73953 0.0
C2366 C 0.44787 0.98057 0.78438 0.0
C2367 C 0.44804 0.96379 0.77864 0.0
C2368 C 0.46512 0.96372 0.77729 0.0
C2369 C 0.48254 0.98045 0.78234 0.0
C2370 C 0.48234 0.99745 0.78732 0.0
C2371 C 0.46517 0.99756 0.78795 0.0
C2372 C 0.55836 0.97659 0.81504 0.0
C2373 C 0.56434 0.96358 0.82155 0.0
C2374 C 0.57298 0.96438 0.84835 0.0
C2375 C 0.57563 0.97815 0.86928 0.0
C2376 C 0.56909 0.99083 0.86318 0.0
C2377 C 0.56067 0.99019 0.83615 0.0
C2378 C 0.56637 0.98673 0.76485 0.0
C2379 C 0.58069 0.00567 0.76951 0.0
C2380 C 0.59724 0.01371 0.75259 0.0
C2381 C 0.59978 0.00297 0.73076 0.0
C2382 C 0.58477 0.98458 0.72468 0.0
C2383 C 0.56826 0.97657 0.74163 0.0
C2384 C 0.53456 0.97821 0.78435 0.0
C2385 C 0.51738 0.96278 0.79373 0.0
C2386 C 0.50069 0.96364 0.79344 0.0
C2387 C 0.50062 0.9799 0.78307 0.0
C2388 C 0.51793 0.99546 0.77366 0.0
C2389 C 0.53476 0.99472 0.77459 0.0
H2390 H 0.98868 0.55065 0.83347 0.0
N2391 N 0.01631 0.56926 0.79221 0.0
H2392 H 0.98619 0.56361 0.88062 0.0
H2393 H 0.04208 0.60142 0.81694 0.0
H2394 H 0.0398 0.61447 0.86418 0.0
H2395 H 0.03324 0.59271 0.7478 0.0
H2396 H 0.02019 0.60803 0.71713 0.0
H2397 H 0.97875 0.55933 0.78928 0.0
H2398 H 0.96542 0.57403 0.75817 0.0
H2399 H 0.98451 0.53438 0.78238 0.0
H2400 H 0.04503 0.56287 0.79547 0.0
H2401 H 0.9836 0.50413 0.77778 0.0
H2402 H 0.04421 0.53255 0.79233 0.0
H2403 H 0.98442 0.4233 0.81977 0.0
H2404 H 0.98293 0.40899 0.86705 0.0
H2405 H 0.04423 0.43757 0.86965 0.0
H2406 H 0.04554 0.45269 0.82262 0.0
H2407 H 0.0361 0.43448 0.75852 0.0
H2408 H 0.0235 0.40626 0.7277 0.0
H2409 H 0.96707 0.3981 0.73762 0.0
H2410 H 0.97994 0.4265 0.76854 0.0
H2411 H 0.98707 0.45166 0.80677 0.0
H2412 H 0.98644 0.48119 0.80572 0.0
H2413 H 0.0402 0.50831 0.76001 0.0
N2414 N 0.01657 0.44669 0.78857 0.0
H2415 H 0.04117 0.47881 0.76272 0.0
C2416 C 0.01559 0.57518 0.82168 0.0
C2417 C 0.99998 0.56448 0.84016 0.0
C2418 C 0.99854 0.57194 0.86702 0.0
C2419 C 0.01274 0.5901 0.87597 0.0
C2420 C 0.02872 0.60038 0.858 0.0
C2421 C 0.03005 0.59298 0.83106 0.0
C2422 C 0.00708 0.57489 0.77076 0.0
C2423 C 0.0183 0.58823 0.74956 0.0
C2424 C 0.01077 0.59692 0.73201 0.0
C2425 C 0.99175 0.59235 0.73534 0.0
C2426 C 0.98018 0.57806 0.75535 0.0
C2427 C 0.98778 0.56947 0.77299 0.0
C2428 C 0.01498 0.55102 0.78893 0.0
C2429 C 0.99764 0.5342 0.78422 0.0
C2430 C 0.99712 0.51679 0.78184 0.0
C2431 C 0.01385 0.51582 0.78451 0.0
C2432 C 0.03109 0.53272 0.78943 0.0
C2433 C 0.03161 0.55007 0.79149 0.0
C2434 C 0.01518 0.43933 0.81775 0.0
C2435 C 0.99757 0.42693 0.83071 0.0
C2436 C 0.99673 0.41846 0.85768 0.0
C2437 C 0.01345 0.42193 0.8721 0.0
C2438 C 0.03106 0.43471 0.85939 0.0
C2439 C 0.03187 0.44334 0.8325 0.0
C2440 C 0.00902 0.4325 0.76593 0.0
C2441 C 0.0211 0.42689 0.7533 0.0
C2442 C 0.01384 0.41077 0.73566 0.0
C2443 C 0.99423 0.39983 0.73035 0.0
C2444 C 0.98221 0.4061 0.74162 0.0
C2445 C 0.98955 0.42238 0.75919 0.0
C2446 C 0.01444 0.46313 0.7853 0.0
C2447 C 0.99874 0.46388 0.79653 0.0
C2448 C 0.9983 0.48084 0.79564 0.0
C2449 C 0.0134 0.4973 0.78314 0.0
C2450 C 0.02856 0.49611 0.77052 0.0
C2451 C 0.02908 0.47924 0.77176 0.0
H2452 H 0.44017 0.42304 0.82249 0.0
N2453 N 0.42981 0.4462 0.79474 0.0
H2454 H 0.42918 0.40819 0.87036 0.0
H2455 H 0.40761 0.45122 0.83184 0.0
H2456 H 0.39573 0.43574 0.87927 0.0
H2457 H 0.39579 0.43187 0.77098 0.0
H2458 H 0.38022 0.40491 0.7379 0.0
H2459 H 0.44703 0.42871 0.76684 0.0
H2460 H 0.43204 0.40248 0.73244 0.0
H2461 H 0.4652 0.45018 0.80142 0.0
H2462 H 0.43561 0.48037 0.78195 0.0
H2463 H 0.49542 0.47942 0.79742 0.0
H2464 H 0.46572 0.51013 0.78034 0.0
H2465 H 0.57755 0.56376 0.8228 0.0
H2466 H 0.59375 0.57597 0.86938 0.0
H2467 H 0.55909 0.60138 0.88618 0.0
H2468 H 0.54287 0.58909 0.8391 0.0
H2469 H 0.56445 0.60433 0.77392 0.0
H2470 H 0.59172 0.62017 0.74129 0.0
H2471 H 0.59587 0.56927 0.7384 0.0
H2472 H 0.56853 0.5536 0.77152 0.0
H2473 H 0.5436 0.53733 0.82595 0.0
H2474 H 0.5148 0.50693 0.82242 0.0
H2475 H 0.49361 0.5296 0.75604 0.0
N2476 N 0.55073 0.57055 0.79844 0.0
H2477 H 0.52206 0.56062 0.76161 0.0
C2478 C 0.42481 0.4384 0.8238 0.0
C2479 C 0.43084 0.42623 0.83504 0.0
C2480 C 0.4243 0.41753 0.86229 0.0
C2481 C 0.41143 0.42064 0.87867 0.0
C2482 C 0.40581 0.4332 0.86754 0.0
C2483 C 0.4125 0.442 0.84041 0.0
C2484 C 0.42255 0.43246 0.77136 0.0
C2485 C 0.40386 0.42572 0.76215 0.0
C2486 C 0.39503 0.41032 0.74304 0.0
C2487 C 0.40483 0.40138 0.73234 0.0
C2488 C 0.42393 0.40877 0.74054 0.0
C2489 C 0.43265 0.42402 0.76008 0.0
C2490 C 0.44807 0.46302 0.79133 0.0
C2491 C 0.46516 0.46306 0.79594 0.0
C2492 C 0.48254 0.47999 0.79415 0.0
C2493 C 0.48321 0.49734 0.78859 0.0
C2494 C 0.46599 0.49712 0.78395 0.0
C2495 C 0.44869 0.48014 0.78509 0.0
C2496 C 0.55905 0.57568 0.82732 0.0
C2497 C 0.57333 0.57187 0.83645 0.0
C2498 C 0.58263 0.5789 0.86309 0.0
C2499 C 0.57783 0.5898 0.88123 0.0
C2500 C 0.56303 0.59294 0.87268 0.0
C2501 C 0.55378 0.58598 0.84587 0.0
C2502 C 0.56452 0.57791 0.77514 0.0
C2503 C 0.57096 0.59648 0.76561 0.0
C2504 C 0.58653 0.60546 0.74689 0.0
C2505 C 0.59603 0.596 0.73726 0.0
C2506 C 0.58898 0.57699 0.74568 0.0
C2507 C 0.57329 0.56798 0.76441 0.0
C2508 C 0.53489 0.55158 0.79447 0.0
C2509 C 0.53284 0.53594 0.81067 0.0
C2510 C 0.51628 0.51829 0.80833 0.0
C2511 C 0.50158 0.51568 0.78918 0.0
C2512 C 0.50426 0.5311 0.77171 0.0
C2513 C 0.52062 0.54883 0.77459 0.0
H2514 H 0.67868 0.89723 0.52163 0.0
N2515 N 0.65227 0.89013 0.5643 0.0
H2516 H 0.6804 0.91128 0.47354 0.0
H2517 H 0.62723 0.89806 0.54067 0.0
H2518 H 0.62878 0.91206 0.49242 0.0
H2519 H 0.63746 0.89677 0.61155 0.0
H2520 H 0.65218 0.92508 0.64265 0.0
H2521 H 0.68999 0.91751 0.56413 0.0
H2522 H 0.70479 0.94562 0.59517 0.0
H2523 H 0.68361 0.88616 0.57334 0.0
H2524 H 0.62301 0.85532 0.5606 0.0
H2525 H 0.68387 0.85638 0.57584 0.0
H2526 H 0.62318 0.82546 0.56167 0.0
H2527 H 0.68294 0.77354 0.53376 0.0
H2528 H 0.68688 0.76198 0.48654 0.0
H2529 H 0.62668 0.73631 0.4705 0.0
H2530 H 0.62284 0.74805 0.5181 0.0
H2531 H 0.62886 0.73217 0.58268 0.0
H2532 H 0.63994 0.71578 0.61477 0.0
H2533 H 0.69539 0.76617 0.61815 0.0
H2534 H 0.68409 0.7824 0.58562 0.0
H2535 H 0.67905 0.80065 0.54181 0.0
H2536 H 0.6804 0.83114 0.54564 0.0
H2537 H 0.62687 0.80418 0.59204 0.0
N2538 N 0.64927 0.76607 0.5588 0.0
H2539 H 0.6252 0.77352 0.58656 0.0
C2540 C 0.6528 0.89668 0.53478 0.0
C2541 C 0.66766 0.90028 0.51537 0.0
C2542 C 0.66867 0.90837 0.48793 0.0
C2543 C 0.65476 0.91283 0.47929 0.0
C2544 C 0.6396 0.90861 0.49836 0.0
C2545 C 0.6387 0.90069 0.52589 0.0
C2546 C 0.66247 0.90502 0.58542 0.0
C2547 C 0.6523 0.90715 0.60843 0.0
C2548 C 0.66077 0.9233 0.62622 0.0
C2549 C 0.67961 0.93765 0.62117 0.0
C2550 C 0.69018 0.93489 0.59934 0.0
C2551 C 0.68172 0.91874 0.58162 0.0
C2552 C 0.65315 0.87295 0.56712 0.0
C2553 C 0.67032 0.87301 0.57122 0.0
C2554 C 0.67047 0.8559 0.57237 0.0
C2555 C 0.65354 0.83843 0.56908 0.0
C2556 C 0.63645 0.83853 0.56499 0.0
C2557 C 0.6363 0.85559 0.56415 0.0
C2558 C 0.65249 0.76154 0.52956 0.0
C2559 C 0.6706 0.76565 0.52005 0.0
C2560 C 0.67283 0.75893 0.49307 0.0
C2561 C 0.65705 0.74806 0.47499 0.0
C2562 C 0.63911 0.74472 0.48391 0.0
C2563 C 0.63687 0.75138 0.51103 0.0
C2564 C 0.65557 0.7584 0.58177 0.0
C2565 C 0.64325 0.7398 0.59099 0.0
C2566 C 0.64964 0.7305 0.60939 0.0
C2567 C 0.6686 0.73966 0.61901 0.0
C2568 C 0.68077 0.75868 0.61087 0.0
C2569 C 0.67429 0.76801 0.59246 0.0
C2570 C 0.65173 0.78468 0.56339 0.0
C2571 C 0.6676 0.80125 0.55278 0.0
C2572 C 0.66844 0.81879 0.55527 0.0
C2573 C 0.65361 0.82016 0.5688 0.0
C2574 C 0.63831 0.80365 0.58078 0.0
C2575 C 0.63738 0.78613 0.57793 0.0
H2576 H 0.27765 0.89732 0.55263 0.0
N2577 N 0.24201 0.88408 0.56974 0.0
H2578 H 0.29179 0.91178 0.5053 0.0
H2579 H 0.22265 0.88453 0.5203 0.0
H2580 H 0.23659 0.89859 0.47336 0.0
H2581 H 0.2381 0.91508 0.5586 0.0
H2582 H 0.25245 0.94418 0.58679 0.0
H2583 H 0.25416 0.88802 0.62478 0.0
H2584 H 0.26693 0.91656 0.65494 0.0
H2585 H 0.23633 0.84962 0.57966 0.0
H2586 H 0.20677 0.88057 0.56699 0.0
H2587 H 0.20616 0.81989 0.58153 0.0
H2588 H 0.17645 0.85083 0.56652 0.0
H2589 H 0.11175 0.72858 0.53998 0.0
H2590 H 0.09573 0.71574 0.49322 0.0
H2591 H 0.09328 0.76694 0.47839 0.0
H2592 H 0.10995 0.77987 0.52481 0.0
H2593 H 0.09201 0.77117 0.57026 0.0
H2594 H 0.06379 0.75541 0.60105 0.0
H2595 H 0.0852 0.72146 0.64005 0.0
H2596 H 0.1134 0.73721 0.60875 0.0
H2597 H 0.15345 0.76906 0.54748 0.0
H2598 H 0.18288 0.79933 0.54977 0.0
H2599 H 0.15305 0.82451 0.59167 0.0
N2600 N 0.11929 0.76099 0.565 0.0
H2601 H 0.1235 0.79453 0.58737 0.0
C2602 C 0.24911 0.88967 0.54022 0.0
C2603 C 0.26857 0.8972 0.53517 0.0
C2604 C 0.27662 0.90554 0.50826 0.0
C2605 C 0.26526 0.9063 0.48573 0.0
C2606 C 0.24563 0.89798 0.49023 0.0
C2607 C 0.23763 0.88988 0.51726 0.0
C2608 C 0.24574 0.89957 0.58912 0.0
C2609 C 0.24425 0.91522 0.57968 0.0
C2610 C 0.25234 0.93192 0.59618 0.0
C2611 C 0.26151 0.93312 0.62298 0.0
C2612 C 0.26081 0.91658 0.63388 0.0
C2613 C 0.25325 0.9001 0.61691 0.0
C2614 C 0.22378 0.86716 0.57273 0.0
C2615 C 0.22324 0.84991 0.57717 0.0
C2616 C 0.20596 0.83293 0.57786 0.0
C2617 C 0.18876 0.83279 0.57347 0.0
C2618 C 0.18932 0.85028 0.57011 0.0
C2619 C 0.20667 0.86734 0.5701 0.0
C2620 C 0.1119 0.75503 0.53585 0.0
C2621 C 0.10803 0.73711 0.52632 0.0
C2622 C 0.09873 0.72976 0.49976 0.0
C2623 C 0.09298 0.7402 0.48224 0.0
C2624 C 0.09761 0.75857 0.49126 0.0
C2625 C 0.10702 0.76595 0.51786 0.0
C2626 C 0.10481 0.75526 0.58716 0.0
C2627 C 0.09093 0.76073 0.58597 0.0
C2628 C 0.07479 0.75174 0.6037 0.0
C2629 C 0.07219 0.73705 0.62271 0.0
C2630 C 0.08673 0.73258 0.62532 0.0
C2631 C 0.10288 0.74163 0.60768 0.0
C2632 C 0.13625 0.77932 0.56737 0.0
C2633 C 0.15329 0.78116 0.55707 0.0
C2634 C 0.17016 0.79848 0.55873 0.0
C2635 C 0.17052 0.81444 0.57137 0.0
C2636 C 0.15336 0.81263 0.58157 0.0
C2637 C 0.13635 0.79531 0.57934 0.0
H2638 H 0.22789 0.31408 0.53313 0.0
N2639 N 0.23523 0.34601 0.56396 0.0
H2640 H 0.24222 0.31334 0.48656 0.0
H2641 H 0.2557 0.37512 0.52836 0.0
H2642 H 0.26956 0.37431 0.48077 0.0
H2643 H 0.26634 0.36567 0.59571 0.0
H2644 H 0.28196 0.35304 0.62693 0.0
H2645 H 0.2194 0.309 0.58276 0.0
H2646 H 0.23519 0.29632 0.61304 0.0
H2647 H 0.20045 0.31482 0.55249 0.0
H2648 H 0.22839 0.37288 0.5818 0.0
H2649 H 0.16971 0.31283 0.55746 0.0
H2650 H 0.19789 0.37164 0.58474 0.0
H2651 H 0.08867 0.31564 0.53532 0.0
H2652 H 0.07368 0.3143 0.48865 0.0
H2653 H 0.10444 0.3756 0.48451 0.0
H2654 H 0.12001 0.37671 0.53104 0.0
H2655 H 0.10129 0.36743 0.59508 0.0
H2656 H 0.0733 0.3551 0.62638 0.0
H2657 H 0.06519 0.29862 0.61768 0.0
H2658 H 0.09342 0.31127 0.58623 0.0
H2659 H 0.12174 0.32402 0.53257 0.0
H2660 H 0.15055 0.32249 0.53483 0.0
H2661 H 0.16938 0.36066 0.60908 0.0
N2662 N 0.11346 0.34766 0.56547 0.0
H2663 H 0.14086 0.36325 0.60522 0.0
C2664 C 0.24101 0.34477 0.53456 0.0
C2665 C 0.23683 0.32732 0.52198 0.0
C2666 C 0.24499 0.32687 0.49529 0.0
C2667 C 0.25704 0.34378 0.48036 0.0
C2668 C 0.26026 0.36111 0.49195 0.0
C2669 C 0.2524 0.36158 0.51899 0.0
C2670 C 0.24187 0.33838 0.58657 0.0
C2671 C 0.2592 0.35059 0.6002 0.0
C2672 C 0.26806 0.34336 0.61802 0.0
C2673 C 0.25979 0.3237 0.62218 0.0
C2674 C 0.24187 0.31153 0.61 0.0
C2675 C 0.23286 0.31881 0.59261 0.0
C2676 C 0.21673 0.34398 0.56732 0.0
C2677 C 0.19998 0.32711 0.5603 0.0
C2678 C 0.18235 0.3261 0.56273 0.0
C2679 C 0.18114 0.34206 0.57155 0.0
C2680 C 0.19804 0.35887 0.57858 0.0
C2681 C 0.21556 0.35972 0.57667 0.0
C2682 C 0.10563 0.34635 0.53661 0.0
C2683 C 0.09239 0.3288 0.52428 0.0
C2684 C 0.08367 0.32807 0.49763 0.0
C2685 C 0.08767 0.34485 0.4829 0.0
C2686 C 0.10116 0.36238 0.49504 0.0
C2687 C 0.11005 0.36308 0.52163 0.0
C2688 C 0.09931 0.34031 0.58824 0.0
C2689 C 0.09376 0.35249 0.60064 0.0
C2690 C 0.07777 0.34538 0.61857 0.0
C2691 C 0.06692 0.32583 0.6244 0.0
C2692 C 0.07313 0.31372 0.6133 0.0
C2693 C 0.08928 0.32091 0.59545 0.0
C2694 C 0.12914 0.34416 0.56847 0.0
C2695 C 0.13189 0.33211 0.54944 0.0
C2696 C 0.14849 0.33105 0.55095 0.0
C2697 C 0.16258 0.34164 0.5719 0.0
C2698 C 0.15919 0.35272 0.59206 0.0
C2699 C 0.14278 0.35407 0.59014 0.0
loop_
_geom_bond_atom_site_label_1
_geom_bond_atom_site_label_2
_geom_bond_distance
_geom_bond_site_symmetry_2
_ccdc_geom_bond_type
Li0 N17 1.992 . S
Li0 O60 1.956 . S
Li0 O61 1.970 1_654 S
Li0 O62 1.961 . S
Li1 N25 1.990 . S
Li1 O60 1.970 1_455 S
Li1 O61 1.956 1_554 S
Li1 O63 1.961 . S
Li2 N47 1.990 . S
Li2 O60 1.961 . S
Li2 O62 1.956 . S
Li2 O63 1.970 1_655 S
Li3 N53 1.990 . S
Li3 O61 1.961 . S
Li3 O62 1.970 1_456 S
Li3 O63 1.956 1_556 S
C4 C6 1.348 1_655 S
C4 C7 1.356 . S
C4 O60 1.325 . S
N5 C8 1.314 . S
N5 C9 1.279 . S
C6 C4 1.348 1_455 S
C6 C8 1.353 1_455 S
C6 H64 0.929 . S
C7 C4 1.356 . S
C7 C9 1.358 . S
C7 H65 0.930 . S
C8 N5 1.314 . S
C8 C6 1.353 1_655 S
C8 H66 0.930 1_655 S
C9 N5 1.279 . S
C9 C7 1.358 . S
C9 H67 0.930 . S
C10 C13 1.349 1_455 S
C10 C14 1.356 . S
C10 O61 1.325 . S
C11 N12 1.279 . S
C11 C14 1.358 . S
C11 H68 0.930 . S
N12 C11 1.279 . S
N12 C15 1.314 . S
C13 C10 1.349 1_655 S
C13 C15 1.319 1_655 S
C13 H69 0.967 . S
C14 C10 1.356 . S
C14 C11 1.358 . S
C14 H70 0.930 . S
C15 N12 1.314 . S
C15 C13 1.319 1_455 S
C15 H71 0.930 1_455 S
C16 N17 1.303 1_556 S
C16 C21 1.353 . S
C16 H22 0.930 . S
N17 Li0 1.992 . S
N17 C16 1.303 1_554 S
N17 C19 1.287 . S
C18 C19 1.358 . S
C18 C20 1.356 1_554 S
C18 H72 0.930 . S
C19 N17 1.287 . S
C19 C18 1.358 . S
C19 H23 0.930 . S
C20 C18 1.356 1_556 S
C20 C21 1.348 . S
C21 C16 1.353 . S
C21 C20 1.348 . S
C21 H73 0.929 . S
H22 C16 0.930 . S
H23 C19 0.930 . S
C24 N25 1.314 . S
C24 C26 1.353 . S
C24 H30 0.930 . S
N25 Li1 1.990 . S
N25 C24 1.314 . S
N25 C28 1.279 . S
C26 C24 1.353 . S
C26 C29 1.348 . S
C26 H74 0.929 . S
C27 C28 1.358 . S
C27 C29 1.356 . S
C27 H75 0.930 . S
C28 N25 1.279 . S
C28 C27 1.358 . S
C28 H31 0.930 1_554 S
C29 C26 1.348 . S
C29 C27 1.356 . S
H30 C24 0.930 . S
H31 C28 0.930 1_556 S
C32 C34 1.368 . S
C32 C35 1.340 1_556 S
C32 O62 1.320 1_556 S
N33 C36 1.314 . S
N33 C37 1.279 1_556 S
C34 C32 1.368 . S
C34 C36 1.353 . S
C34 H76 0.929 . S
C35 C32 1.340 1_554 S
C35 C37 1.358 . S
C35 H77 0.930 . S
C36 N33 1.314 . S
C36 C34 1.353 . S
C36 H78 0.930 . S
C37 N33 1.279 1_554 S
C37 C35 1.358 . S
C37 H79 0.930 . S
C38 C39 1.348 . S
C38 C40 1.356 . S
C38 O63 1.325 . S
C39 C38 1.348 . S
C39 C41 1.353 . S
C39 H80 0.929 . S
C40 C38 1.356 . S
C40 C42 1.358 . S
C40 H81 0.930 1_554 S
C41 C39 1.353 . S
C41 N43 1.314 . S
C41 H82 0.930 . S
C42 C40 1.358 . S
C42 N43 1.279 . S
C42 H83 0.930 . S
N43 C41 1.314 . S
N43 C42 1.279 . S
C44 C46 1.353 . S
C44 N47 1.314 . S
C44 H50 0.930 1_655 S
C45 N47 1.279 . S
C45 C48 1.358 . S
C45 H51 0.930 . S
C46 C44 1.353 . S
C46 C49 1.348 . S
C46 H84 0.951 . S
N47 Li2 1.990 . S
N47 C44 1.314 . S
N47 C45 1.279 . S
C48 C45 1.358 . S
C48 C49 1.356 . S
C48 H85 0.930 . S
C49 C46 1.348 . S
C49 C48 1.356 . S
H50 C44 0.930 1_455 S
H51 C45 0.930 . S
C52 N53 1.314 . S
C52 C54 1.353 . S
C52 H58 0.930 1_455 S
N53 Li3 1.990 . S
N53 C52 1.314 . S
N53 C56 1.279 . S
C54 C52 1.353 . S
C54 C57 1.348 . S
C54 H86 0.929 . S
C55 C56 1.358 . S
C55 C57 1.356 . S
C55 H87 0.930 . S
C56 N53 1.279 . S
C56 C55 1.358 . S
C56 H59 0.930 . S
C57 C54 1.348 . S
C57 C55 1.356 . S
H58 C52 0.930 1_655 S
H59 C56 0.930 . S
O60 Li0 1.956 . S
O60 Li1 1.970 1_655 S
O60 Li2 1.961 . S
O60 C4 1.325 . S
O61 Li0 1.970 1_456 S
O61 Li1 1.956 1_556 S
O61 Li3 1.961 . S
O61 C10 1.325 . S
O62 Li0 1.961 . S
O62 Li2 1.956 . S
O62 Li3 1.970 1_654 S
O62 C32 1.320 1_554 S
O63 Li1 1.961 . S
O63 Li2 1.970 1_455 S
O63 Li3 1.956 1_554 S
O63 C38 1.325 . S
H64 C6 0.929 . S
H65 C7 0.930 . S
H66 C8 0.930 1_455 S
H67 C9 0.930 . S
H68 C11 0.930 . S
H69 C13 0.967 . S
H70 C14 0.930 . S
H71 C15 0.930 1_655 S
H72 C18 0.930 . S
H73 C21 0.929 . S
H74 C26 0.929 . S
H75 C27 0.930 . S
H76 C34 0.929 . S
H77 C35 0.930 . S
H78 C36 0.930 . S
H79 C37 0.930 . S
H80 C39 0.929 . S
H81 C40 0.930 1_556 S
H82 C41 0.930 . S
H83 C42 0.930 . S
H84 C46 0.951 . S
H85 C48 0.930 . S
H86 C54 0.929 . S
H87 C55 0.930 . S
Li88 N105 1.990 1_554 S
Li88 O148 1.956 . S
Li88 O149 1.970 1_554 S
Li88 O150 1.961 . S
Li89 N113 1.990 . S
Li89 O148 1.970 . S
Li89 O149 1.956 1_554 S
Li89 O151 1.961 . S
Li90 N135 1.990 . S
Li90 O148 1.961 . S
Li90 O150 1.956 . S
Li90 O151 1.970 . S
Li91 N141 1.990 . S
Li91 O149 1.961 . S
Li91 O150 1.970 1_556 S
Li91 O151 1.956 1_556 S
C92 C94 1.348 . S
C92 C95 1.356 . S
C92 O148 1.325 . S
N93 C96 1.314 . S
N93 C97 1.279 . S
C94 C92 1.348 . S
C94 C96 1.353 . S
C94 H152 0.929 . S
C95 C92 1.356 . S
C95 C97 1.358 . S
C95 H153 0.930 . S
C96 N93 1.314 . S
C96 C94 1.353 . S
C96 H154 0.930 . S
C97 N93 1.279 . S
C97 C95 1.358 . S
C97 H155 0.930 . S
C98 C101 1.348 . S
C98 C102 1.356 . S
C98 O149 1.325 . S
C99 N100 1.279 . S
C99 C102 1.358 . S
C99 H156 0.930 . S
N100 C99 1.279 . S
N100 C103 1.314 . S
C101 C98 1.348 . S
C101 C103 1.353 . S
C101 H157 0.929 . S
C102 C98 1.356 . S
C102 C99 1.358 . S
C102 H158 0.930 . S
C103 N100 1.314 . S
C103 C101 1.353 . S
C103 H159 0.930 . S
C104 N105 1.314 . S
C104 C109 1.353 . S
C104 H110 0.930 . S
N105 Li88 1.990 1_556 S
N105 C104 1.314 . S
N105 C107 1.279 1_556 S
C106 C107 1.358 . S
C106 C108 1.356 1_554 S
C106 H160 0.930 . S
C107 N105 1.279 1_554 S
C107 C106 1.358 . S
C107 H111 0.930 . S
C108 C106 1.356 1_556 S
C108 C109 1.348 . S
C109 C104 1.353 . S
C109 C108 1.348 . S
C109 H161 0.929 . S
H110 C104 0.930 . S
H111 C107 0.930 . S
C112 N113 1.314 . S
C112 C114 1.353 . S
C112 H118 0.930 . S
N113 Li89 1.990 . S
N113 C112 1.314 . S
N113 C116 1.279 . S
C114 C112 1.353 . S
C114 C117 1.348 . S
C114 H162 0.929 . S
C115 C116 1.358 . S
C115 C117 1.356 . S
C115 H163 0.930 . S
C116 N113 1.279 . S
C116 C115 1.358 . S
C116 H119 0.930 1_554 S
C117 C114 1.348 . S
C117 C115 1.356 . S
H118 C112 0.930 . S
H119 C116 0.930 1_556 S
C120 C122 1.348 . S
C120 C123 1.356 1_556 S
C120 O150 1.325 1_556 S
N121 C124 1.314 . S
N121 C125 1.279 1_556 S
C122 C120 1.348 . S
C122 C124 1.353 . S
C122 H164 0.929 . S
C123 C120 1.356 1_554 S
C123 C125 1.358 . S
C123 H165 0.930 . S
C124 N121 1.314 . S
C124 C122 1.353 . S
C124 H166 0.930 . S
C125 N121 1.279 1_554 S
C125 C123 1.358 . S
C125 H167 0.930 . S
C126 C127 1.348 . S
C126 C128 1.356 . S
C126 O151 1.325 . S
C127 C126 1.348 . S
C127 C129 1.353 . S
C127 H168 0.929 . S
C128 C126 1.356 . S
C128 C130 1.358 . S
C128 H169 0.930 . S
C129 C127 1.353 . S
C129 N131 1.314 . S
C129 H170 0.930 . S
C130 C128 1.358 . S
C130 N131 1.279 . S
C130 H171 0.930 . S
N131 C129 1.314 . S
N131 C130 1.279 . S
C132 C134 1.353 . S
C132 N135 1.314 . S
C132 H138 0.930 . S
C133 N135 1.279 . S
C133 C136 1.358 . S
C133 H139 0.930 . S
C134 C132 1.353 . S
C134 C137 1.348 . S
C134 H172 0.929 . S
N135 Li90 1.990 . S
N135 C132 1.314 . S
N135 C133 1.279 . S
C136 C133 1.358 . S
C136 C137 1.356 . S
C136 H173 0.930 . S
C137 C134 1.348 . S
C137 C136 1.356 . S
H138 C132 0.930 . S
H139 C133 0.930 . S
C140 N141 1.314 . S
C140 C142 1.353 . S
C140 H146 0.930 . S
N141 Li91 1.990 . S
N141 C140 1.314 . S
N141 C144 1.279 . S
C142 C140 1.353 . S
C142 C145 1.348 . S
C142 H174 0.929 . S
C143 C144 1.358 . S
C143 C145 1.356 . S
C143 H175 0.930 . S
C144 N141 1.279 . S
C144 C143 1.358 . S
C144 H147 0.930 . S
C145 C142 1.348 . S
C145 C143 1.356 . S
H146 C140 0.930 . S
H147 C144 0.930 . S
O148 Li88 1.956 . S
O148 Li89 1.970 . S
O148 Li90 1.961 . S
O148 C92 1.325 . S
O149 Li88 1.970 1_556 S
O149 Li89 1.956 1_556 S
O149 Li91 1.961 . S
O149 C98 1.325 . S
O150 Li88 1.961 . S
O150 Li90 1.956 . S
O150 Li91 1.970 1_554 S
O150 C120 1.325 1_554 S
O151 Li89 1.961 . S
O151 Li90 1.970 . S
O151 Li91 1.956 1_554 S
O151 C126 1.325 . S
H152 C94 0.929 . S
H153 C95 0.930 . S
H154 C96 0.930 . S
H155 C97 0.930 . S
H156 C99 0.930 . S
H157 C101 0.929 . S
H158 C102 0.930 . S
H159 C103 0.930 . S
H160 C106 0.930 . S
H161 C109 0.929 . S
H162 C114 0.929 . S
H163 C115 0.930 . S
H164 C122 0.929 . S
H165 C123 0.930 . S
H166 C124 0.930 . S
H167 C125 0.930 . S
H168 C127 0.929 . S
H169 C128 0.930 . S
H170 C129 0.930 . S
H171 C130 0.930 . S
H172 C134 0.929 . S
H173 C136 0.930 . S
H174 C142 0.929 . S
H175 C143 0.930 . S
Li176 N193 1.990 . S
Li176 O236 1.956 1_556 S
Li176 O237 1.970 1_566 S
Li176 O238 1.961 . S
Li177 N201 1.990 . S
Li177 O236 1.970 1_545 S
Li177 O237 1.956 . S
Li177 O239 1.961 . S
Li178 N223 1.990 . S
Li178 O236 1.961 . S
Li178 O238 1.956 1_554 S
Li178 O239 1.970 1_565 S
Li179 N229 1.988 1_554 S
Li179 O237 1.961 . S
Li179 O238 1.970 1_544 S
Li179 O239 1.956 . S
C180 C182 1.348 . S
C180 C183 1.356 . S
C180 O236 1.325 . S
N181 C184 1.314 . S
N181 C185 1.279 . S
C182 C180 1.348 . S
C182 C184 1.353 . S
C182 H240 0.929 . S
C183 C180 1.356 . S
C183 C185 1.358 . S
C183 H241 0.930 1_554 S
C184 N181 1.314 . S
C184 C182 1.353 . S
C184 H242 0.930 . S
C185 N181 1.279 . S
C185 C183 1.358 . S
C185 H243 0.930 . S
C186 C189 1.348 . S
C186 C190 1.356 1_556 S
C186 O237 1.325 1_556 S
C187 N188 1.279 1_554 S
C187 C190 1.358 . S
C187 H244 0.930 . S
N188 C187 1.279 1_556 S
N188 C191 1.314 . S
C189 C186 1.348 . S
C189 C191 1.353 . S
C189 H245 0.929 . S
C190 C186 1.356 1_554 S
C190 C187 1.358 . S
C190 H246 0.930 . S
C191 N188 1.314 . S
C191 C189 1.353 . S
C191 H247 0.930 . S
C192 N193 1.314 . S
C192 C197 1.353 . S
C192 H198 0.930 1_565 S
N193 Li176 1.990 . S
N193 C192 1.314 . S
N193 C195 1.279 . S
C194 C195 1.358 . S
C194 C196 1.356 . S
C194 H248 0.930 . S
C195 N193 1.279 . S
C195 C194 1.358 . S
C195 H199 0.930 . S
C196 C194 1.356 . S
C196 C197 1.348 . S
C197 C192 1.353 . S
C197 C196 1.348 . S
C197 H249 0.951 . S
H198 C192 0.930 1_545 S
H199 C195 0.930 . S
C200 N201 1.314 . S
C200 C202 1.353 . S
C200 H206 0.930 1_545 S
N201 Li177 1.990 . S
N201 C200 1.314 . S
N201 C204 1.279 . S
C202 C200 1.353 . S
C202 C205 1.348 . S
C202 H250 0.929 . S
C203 C204 1.358 . S
C203 C205 1.356 . S
C203 H251 0.930 . S
C204 N201 1.279 . S
C204 C203 1.358 . S
C204 H207 0.930 . S
C205 C202 1.348 . S
C205 C203 1.356 . S
H206 C200 0.930 1_565 S
H207 C204 0.930 . S
C208 C210 1.348 1_565 S
C208 C211 1.356 . S
C208 O238 1.325 . S
N209 C212 1.314 . S
N209 C213 1.279 . S
C210 C208 1.348 1_545 S
C210 C212 1.353 1_545 S
C210 H252 0.929 . S
C211 C208 1.356 . S
C211 C213 1.358 . S
C211 H253 0.930 . S
C212 N209 1.314 . S
C212 C210 1.353 1_565 S
C212 H254 0.930 1_565 S
C213 N209 1.279 . S
C213 C211 1.358 . S
C213 H255 0.930 . S
C214 C215 1.349 1_545 S
C214 C216 1.356 . S
C214 O239 1.325 . S
C215 C214 1.349 1_565 S
C215 C217 1.319 1_565 S
C215 H256 0.967 . S
C216 C214 1.356 . S
C216 C218 1.358 . S
C216 H257 0.930 . S
C217 C215 1.319 1_545 S
C217 N219 1.314 . S
C217 H258 0.930 1_545 S
C218 C216 1.358 . S
C218 N219 1.279 . S
C218 H259 0.930 . S
N219 C217 1.314 . S
N219 C218 1.279 . S
C220 C222 1.353 . S
C220 N223 1.314 . S
C220 H226 0.930 . S
C221 N223 1.279 . S
C221 C224 1.358 . S
C221 H227 0.930 1_554 S
C222 C220 1.353 . S
C222 C225 1.348 . S
C222 H260 0.929 . S
N223 Li178 1.990 . S
N223 C220 1.314 . S
N223 C221 1.279 . S
C224 C221 1.358 . S
C224 C225 1.356 . S
C224 H261 0.945 . S
C225 C222 1.348 . S
C225 C224 1.356 . S
H226 C220 0.930 . S
H227 C221 0.930 1_556 S
C228 N229 1.324 . S
C228 C230 1.353 . S
C228 H234 0.930 . S
N229 Li179 1.988 1_556 S
N229 C228 1.324 . S
N229 C232 1.273 1_556 S
C230 C228 1.353 . S
C230 C233 1.348 . S
C230 H262 0.929 . S
C231 C232 1.358 . S
C231 C233 1.356 1_554 S
C231 H263 0.930 . S
C232 N229 1.273 1_554 S
C232 C231 1.358 . S
C232 H235 0.930 . S
C233 C230 1.348 . S
C233 C231 1.356 1_556 S
H234 C228 0.930 . S
H235 C232 0.930 . S
O236 Li176 1.956 1_554 S
O236 Li177 1.970 1_565 S
O236 Li178 1.961 . S
O236 C180 1.325 . S
O237 Li176 1.970 1_544 S
O237 Li177 1.956 . S
O237 Li179 1.961 . S
O237 C186 1.325 1_554 S
O238 Li176 1.961 . S
O238 Li178 1.956 1_556 S
O238 Li179 1.970 1_566 S
O238 C208 1.325 . S
O239 Li177 1.961 . S
O239 Li178 1.970 1_545 S
O239 Li179 1.956 . S
O239 C214 1.325 . S
H240 C182 0.929 . S
H241 C183 0.930 1_556 S
H242 C184 0.930 . S
H243 C185 0.930 . S
H244 C187 0.930 . S
H245 C189 0.929 . S
H246 C190 0.930 . S
H247 C191 0.930 . S
H248 C194 0.930 . S
H249 C197 0.951 . S
H250 C202 0.929 . S
H251 C203 0.930 . S
H252 C210 0.929 . S
H253 C211 0.930 . S
H254 C212 0.930 1_545 S
H255 C213 0.930 . S
H256 C215 0.967 . S
H257 C216 0.930 . S
H258 C217 0.930 1_565 S
H259 C218 0.930 . S
H260 C222 0.929 . S
H261 C224 0.945 . S
H262 C230 0.929 . S
H263 C231 0.930 . S
Li264 N281 1.990 . S
Li264 O324 1.956 . S
Li264 O325 1.970 1_455 S
Li264 O326 1.961 1_554 S
Li265 N289 1.990 . S
Li265 O324 1.970 1_655 S
Li265 O325 1.956 . S
Li265 O327 1.961 . S
Li266 N311 1.990 . S
Li266 O324 1.961 1_556 S
Li266 O326 1.956 . S
Li266 O327 1.970 1_456 S
Li267 N317 1.990 1_554 S
Li267 O325 1.961 . S
Li267 O326 1.970 1_654 S
Li267 O327 1.956 . S
C268 C270 1.348 . S
C268 C271 1.356 . S
C268 O324 1.325 . S
N269 C272 1.314 . S
N269 C273 1.279 . S
C270 C268 1.348 . S
C270 C272 1.353 . S
C270 H328 0.929 . S
C271 C268 1.356 . S
C271 C273 1.358 . S
C271 H329 0.930 1_554 S
C272 N269 1.314 . S
C272 C270 1.353 . S
C272 H330 0.930 . S
C273 N269 1.279 . S
C273 C271 1.358 . S
C273 H331 0.930 1_554 S
C274 C277 1.348 1_655 S
C274 C278 1.356 . S
C274 O325 1.325 . S
C275 N276 1.279 . S
C275 C278 1.358 . S
C275 H332 0.930 . S
N276 C275 1.279 . S
N276 C279 1.272 1_655 S
C277 C274 1.348 1_455 S
C277 C279 1.378 . S
C277 H333 0.929 . S
C278 C274 1.356 . S
C278 C275 1.358 . S
C278 H334 0.930 . S
C279 N276 1.272 1_455 S
C279 C277 1.378 . S
C279 H335 0.951 . S
C280 N281 1.314 . S
C280 C285 1.353 . S
C280 H286 0.930 . S
N281 Li264 1.990 . S
N281 C280 1.314 . S
N281 C283 1.279 . S
C282 C283 1.358 . S
C282 C284 1.356 . S
C282 H336 0.930 . S
C283 N281 1.279 . S
C283 C282 1.358 . S
C283 H287 0.930 . S
C284 C282 1.356 . S
C284 C285 1.348 . S
C285 C280 1.353 . S
C285 C284 1.348 . S
C285 H337 0.929 . S
H286 C280 0.930 . S
H287 C283 0.930 . S
C288 N289 1.314 . S
C288 C290 1.353 . S
C288 H294 0.930 . S
N289 Li265 1.990 . S
N289 C288 1.314 . S
N289 C292 1.279 . S
C290 C288 1.353 . S
C290 C293 1.348 . S
C290 H338 0.929 . S
C291 C292 1.358 . S
C291 C293 1.356 . S
C291 H339 0.930 . S
C292 N289 1.279 . S
C292 C291 1.358 . S
C292 H295 0.930 . S
C293 C290 1.348 . S
C293 C291 1.356 . S
H294 C288 0.930 . S
H295 C292 0.930 . S
C296 C298 1.348 1_455 S
C296 C299 1.356 . S
C296 O326 1.325 . S
N297 C300 1.277 1_455 S
N297 C301 1.279 . S
C298 C296 1.348 1_655 S
C298 C300 1.351 . S
C298 H340 0.929 . S
C299 C296 1.356 . S
C299 C301 1.358 . S
C299 H341 0.930 . S
C300 N297 1.277 1_655 S
C300 C298 1.351 . S
C300 H342 0.976 . S
C301 N297 1.279 . S
C301 C299 1.358 . S
C301 H343 0.930 . S
C302 C303 1.348 . S
C302 C304 1.356 1_556 S
C302 O327 1.325 1_556 S
C303 C302 1.348 . S
C303 C305 1.353 . S
C303 H344 0.929 . S
C304 C302 1.356 1_554 S
C304 C306 1.358 . S
C304 H345 0.930 . S
C305 C303 1.353 . S
C305 N307 1.314 . S
C305 H346 0.930 . S
C306 C304 1.358 . S
C306 N307 1.279 1_554 S
C306 H347 0.930 . S
N307 C305 1.314 . S
N307 C306 1.279 1_556 S
C308 C310 1.353 . S
C308 N311 1.314 . S
C308 H314 0.930 . S
C309 N311 1.279 . S
C309 C312 1.358 . S
C309 H315 0.930 . S
C310 C308 1.353 . S
C310 C313 1.348 . S
C310 H348 0.929 . S
N311 Li266 1.990 . S
N311 C308 1.314 . S
N311 C309 1.279 . S
C312 C309 1.358 . S
C312 C313 1.356 . S
C312 H349 0.930 . S
C313 C310 1.348 . S
C313 C312 1.356 . S
H314 C308 0.930 . S
H315 C309 0.930 . S
C316 N317 1.314 1_554 S
C316 C318 1.353 1_554 S
C316 H322 0.930 . S
N317 Li267 1.990 1_556 S
N317 C316 1.314 1_556 S
N317 C320 1.279 . S
C318 C316 1.353 1_556 S
C318 C321 1.348 . S
C318 H350 0.929 1_556 S
C319 C320 1.358 . S
C319 C321 1.356 . S
C319 H351 0.930 . S
C320 N317 1.279 . S
C320 C319 1.358 . S
C320 H323 0.930 . S
C321 C318 1.348 . S
C321 C319 1.356 . S
H322 C316 0.930 . S
H323 C320 0.930 . S
O324 Li264 1.956 . S
O324 Li265 1.970 1_455 S
O324 Li266 1.961 1_554 S
O324 C268 1.325 . S
O325 Li264 1.970 1_655 S
O325 Li265 1.956 . S
O325 Li267 1.961 . S
O325 C274 1.325 . S
O326 Li264 1.961 1_556 S
O326 Li266 1.956 . S
O326 Li267 1.970 1_456 S
O326 C296 1.325 . S
O327 Li265 1.961 . S
O327 Li266 1.970 1_654 S
O327 Li267 1.956 . S
O327 C302 1.325 1_554 S
H328 C270 0.929 . S
H329 C271 0.930 1_556 S
H330 C272 0.930 . S
H331 C273 0.930 1_556 S
H332 C275 0.930 . S
H333 C277 0.929 . S
H334 C278 0.930 . S
H335 C279 0.951 . S
H336 C282 0.930 . S
H337 C285 0.929 . S
H338 C290 0.929 . S
H339 C291 0.930 . S
H340 C298 0.929 . S
H341 C299 0.930 . S
H342 C300 0.976 . S
H343 C301 0.930 . S
H344 C303 0.929 . S
H345 C304 0.930 . S
H346 C305 0.930 . S
H347 C306 0.930 . S
H348 C310 0.929 . S
H349 C312 0.930 . S
H350 C318 0.929 1_554 S
H351 C319 0.930 . S
Li352 N369 1.990 . S
Li352 O412 1.956 . S
Li352 O413 1.970 . S
Li352 O414 1.961 1_554 S
Li353 N377 1.990 . S
Li353 O412 1.970 . S
Li353 O413 1.956 . S
Li353 O415 1.961 . S
Li354 N399 1.990 . S
Li354 O412 1.961 1_556 S
Li354 O414 1.956 . S
Li354 O415 1.970 1_556 S
Li355 N405 1.990 1_554 S
Li355 O413 1.961 . S
Li355 O414 1.970 1_554 S
Li355 O415 1.956 . S
C356 C358 1.348 . S
C356 C359 1.356 . S
C356 O412 1.325 . S
N357 C360 1.314 . S
N357 C361 1.279 . S
C358 C356 1.348 . S
C358 C360 1.353 . S
C358 H416 0.929 . S
C359 C356 1.356 . S
C359 C361 1.358 . S
C359 H417 0.930 1_554 S
C360 N357 1.314 . S
C360 C358 1.353 . S
C360 H418 0.930 . S
C361 N357 1.279 . S
C361 C359 1.358 . S
C361 H419 0.940 . S
C362 C365 1.348 . S
C362 C366 1.356 . S
C362 O413 1.325 . S
C363 N364 1.279 . S
C363 C366 1.358 . S
C363 H420 0.930 . S
N364 C363 1.279 . S
N364 C367 1.314 . S
C365 C362 1.348 . S
C365 C367 1.353 . S
C365 H421 0.929 . S
C366 C362 1.356 . S
C366 C363 1.358 . S
C366 H422 0.930 . S
C367 N364 1.314 . S
C367 C365 1.353 . S
C367 H423 0.930 . S
C368 N369 1.314 . S
C368 C373 1.353 . S
C368 H374 0.930 . S
N369 Li352 1.990 . S
N369 C368 1.314 . S
N369 C371 1.279 . S
C370 C371 1.358 . S
C370 C372 1.356 . S
C370 H424 0.930 . S
C371 N369 1.279 . S
C371 C370 1.358 . S
C371 H375 0.930 . S
C372 C370 1.356 . S
C372 C373 1.348 . S
C373 C368 1.353 . S
C373 C372 1.348 . S
C373 H425 0.929 . S
H374 C368 0.930 . S
H375 C371 0.930 . S
C376 N377 1.314 . S
C376 C378 1.353 . S
C376 H382 0.930 . S
N377 Li353 1.990 . S
N377 C376 1.314 . S
N377 C380 1.279 . S
C378 C376 1.353 . S
C378 C381 1.348 . S
C378 H426 0.929 . S
C379 C380 1.358 . S
C379 C381 1.356 . S
C379 H427 0.930 . S
C380 N377 1.279 . S
C380 C379 1.358 . S
C380 H383 0.930 . S
C381 C378 1.348 . S
C381 C379 1.356 . S
H382 C376 0.930 . S
H383 C380 0.930 . S
C384 C386 1.348 . S
C384 C387 1.356 . S
C384 O414 1.325 . S
N385 C388 1.314 . S
N385 C389 1.279 . S
C386 C384 1.348 . S
C386 C388 1.353 . S
C386 H428 0.929 . S
C387 C384 1.356 . S
C387 C389 1.358 . S
C387 H429 0.930 . S
C388 N385 1.314 . S
C388 C386 1.353 . S
C388 H430 0.930 . S
C389 N385 1.279 . S
C389 C387 1.358 . S
C389 H431 0.930 . S
C390 C391 1.348 . S
C390 C392 1.356 1_556 S
C390 O415 1.325 1_556 S
C391 C390 1.348 . S
C391 C393 1.353 . S
C391 H432 0.929 . S
C392 C390 1.356 1_554 S
C392 C394 1.358 . S
C392 H433 0.930 . S
C393 C391 1.353 . S
C393 N395 1.314 . S
C393 H434 0.930 . S
C394 C392 1.358 . S
C394 N395 1.279 1_554 S
C394 H435 0.930 . S
N395 C393 1.314 . S
N395 C394 1.279 1_556 S
C396 C398 1.353 . S
C396 N399 1.314 . S
C396 H402 0.930 . S
C397 N399 1.279 . S
C397 C400 1.358 . S
C397 H403 0.930 . S
C398 C396 1.353 . S
C398 C401 1.348 . S
C398 H436 0.929 . S
N399 Li354 1.990 . S
N399 C396 1.314 . S
N399 C397 1.279 . S
C400 C397 1.358 . S
C400 C401 1.356 . S
C400 H437 0.930 . S
C401 C398 1.348 . S
C401 C400 1.356 . S
H402 C396 0.930 . S
H403 C397 0.930 . S
C404 N405 1.314 1_554 S
C404 C406 1.353 1_554 S
C404 H410 0.930 . S
N405 Li355 1.990 1_556 S
N405 C404 1.314 1_556 S
N405 C408 1.279 . S
C406 C404 1.353 1_556 S
C406 C409 1.348 . S
C406 H438 0.929 1_556 S
C407 C408 1.358 . S
C407 C409 1.356 . S
C407 H439 0.930 . S
C408 N405 1.279 . S
C408 C407 1.358 . S
C408 H411 0.930 . S
C409 C406 1.348 . S
C409 C407 1.356 . S
H410 C404 0.930 . S
H411 C408 0.930 . S
O412 Li352 1.956 . S
O412 Li353 1.970 . S
O412 Li354 1.961 1_554 S
O412 C356 1.325 . S
O413 Li352 1.970 . S
O413 Li353 1.956 . S
O413 Li355 1.961 . S
O413 C362 1.325 . S
O414 Li352 1.961 1_556 S
O414 Li354 1.956 . S
O414 Li355 1.970 1_556 S
O414 C384 1.325 . S
O415 Li353 1.961 . S
O415 Li354 1.970 1_554 S
O415 Li355 1.956 . S
O415 C390 1.325 1_554 S
H416 C358 0.929 . S
H417 C359 0.930 1_556 S
H418 C360 0.930 . S
H419 C361 0.940 . S
H420 C363 0.930 . S
H421 C365 0.929 . S
H422 C366 0.930 . S
H423 C367 0.930 . S
H424 C370 0.930 . S
H425 C373 0.929 . S
H426 C378 0.929 . S
H427 C379 0.930 . S
H428 C386 0.929 . S
H429 C387 0.930 . S
H430 C388 0.930 . S
H431 C389 0.930 . S
H432 C391 0.929 . S
H433 C392 0.930 . S
H434 C393 0.930 . S
H435 C394 0.930 . S
H436 C398 0.929 . S
H437 C400 0.930 . S
H438 C406 0.929 1_554 S
H439 C407 0.930 . S
Li440 N457 1.990 . S
Li440 O500 1.956 . S
Li440 O501 1.970 1_565 S
Li440 O502 1.961 1_554 S
Li441 N465 1.990 . S
Li441 O500 1.970 1_545 S
Li441 O501 1.956 . S
Li441 O503 1.961 . S
Li442 N487 1.990 . S
Li442 O500 1.961 1_556 S
Li442 O502 1.956 . S
Li442 O503 1.970 1_566 S
Li443 N493 1.985 1_554 S
Li443 O501 1.961 . S
Li443 O502 1.970 1_544 S
Li443 O503 1.956 . S
C444 C446 1.348 . S
C444 C447 1.356 . S
C444 O500 1.325 . S
N445 C448 1.314 . S
N445 C449 1.279 . S
C446 C444 1.348 . S
C446 C448 1.353 . S
C446 H504 0.929 . S
C447 C444 1.356 . S
C447 C449 1.358 . S
C447 H505 0.930 1_554 S
C448 N445 1.314 . S
C448 C446 1.353 . S
C448 H506 0.930 . S
C449 N445 1.279 . S
C449 C447 1.358 . S
C449 H507 0.930 1_554 S
C450 C453 1.348 1_545 S
C450 C454 1.356 . S
C450 O501 1.325 . S
C451 N452 1.279 . S
C451 C454 1.358 . S
C451 H508 0.930 . S
N452 C451 1.279 . S
N452 C455 1.277 1_545 S
C453 C450 1.348 1_565 S
C453 C455 1.351 . S
C453 H509 0.929 . S
C454 C450 1.356 . S
C454 C451 1.358 . S
C454 H510 0.930 . S
C455 N452 1.277 1_565 S
C455 C453 1.351 . S
C455 H511 0.976 . S
C456 N457 1.314 . S
C456 C461 1.353 . S
C456 H462 0.930 . S
N457 Li440 1.990 . S
N457 C456 1.314 . S
N457 C459 1.279 . S
C458 C459 1.358 . S
C458 C460 1.356 . S
C458 H512 0.930 . S
C459 N457 1.279 . S
C459 C458 1.358 . S
C459 H463 0.930 . S
C460 C458 1.356 . S
C460 C461 1.348 . S
C461 C456 1.353 . S
C461 C460 1.348 . S
C461 H513 0.929 . S
H462 C456 0.930 . S
H463 C459 0.930 . S
C464 N465 1.314 . S
C464 C466 1.353 . S
C464 H470 0.930 . S
N465 Li441 1.990 . S
N465 C464 1.314 . S
N465 C468 1.279 . S
C466 C464 1.353 . S
C466 C469 1.348 . S
C466 H514 0.929 . S
C467 C468 1.358 . S
C467 C469 1.356 . S
C467 H515 0.930 . S
C468 N465 1.279 . S
C468 C467 1.358 . S
C468 H471 0.930 . S
C469 C466 1.348 . S
C469 C467 1.356 . S
H470 C464 0.930 . S
H471 C468 0.930 . S
C472 C474 1.348 1_565 S
C472 C475 1.356 . S
C472 O502 1.325 . S
N473 C476 1.273 1_565 S
N473 C477 1.279 . S
C474 C472 1.348 1_545 S
C474 C476 1.378 . S
C474 H516 0.929 . S
C475 C472 1.356 . S
C475 C477 1.358 . S
C475 H517 0.930 . S
C476 N473 1.273 1_545 S
C476 C474 1.378 . S
C476 H518 0.951 . S
C477 N473 1.279 . S
C477 C475 1.358 . S
C477 H519 0.930 . S
C478 C479 1.368 . S
C478 C480 1.341 1_556 S
C478 O503 1.321 1_556 S
C479 C478 1.368 . S
C479 C481 1.353 . S
C479 H520 0.929 . S
C480 C478 1.341 1_554 S
C480 C482 1.358 . S
C480 H521 0.930 . S
C481 C479 1.353 . S
C481 N483 1.314 . S
C481 H522 0.930 . S
C482 C480 1.358 . S
C482 N483 1.279 1_554 S
C482 H523 0.930 . S
N483 C481 1.314 . S
N483 C482 1.279 1_556 S
C484 C486 1.353 . S
C484 N487 1.314 . S
C484 H490 0.930 . S
C485 N487 1.279 . S
C485 C488 1.358 . S
C485 H491 0.930 . S
C486 C484 1.353 . S
C486 C489 1.348 . S
C486 H524 0.929 . S
N487 Li442 1.990 . S
N487 C484 1.314 . S
N487 C485 1.279 . S
C488 C485 1.358 . S
C488 C489 1.356 . S
C488 H525 0.930 . S
C489 C486 1.348 . S
C489 C488 1.356 . S
H490 C484 0.930 . S
H491 C485 0.930 . S
C492 N493 1.306 1_554 S
C492 C494 1.354 . S
C492 H498 0.930 . S
N493 Li443 1.985 1_556 S
N493 C492 1.306 1_556 S
N493 C496 1.297 . S
C494 C492 1.354 . S
C494 C497 1.344 1_554 S
C494 H526 0.932 . S
C495 C496 1.358 . S
C495 C497 1.356 . S
C495 H527 0.930 . S
C496 N493 1.297 . S
C496 C495 1.358 . S
C496 H499 0.930 . S
C497 C494 1.344 1_556 S
C497 C495 1.356 . S
H498 C492 0.930 . S
H499 C496 0.930 . S
O500 Li440 1.956 . S
O500 Li441 1.970 1_565 S
O500 Li442 1.961 1_554 S
O500 C444 1.325 . S
O501 Li440 1.970 1_545 S
O501 Li441 1.956 . S
O501 Li443 1.961 . S
O501 C450 1.325 . S
O502 Li440 1.961 1_556 S
O502 Li442 1.956 . S
O502 Li443 1.970 1_566 S
O502 C472 1.325 . S
O503 Li441 1.961 . S
O503 Li442 1.970 1_544 S
O503 Li443 1.956 . S
O503 C478 1.321 1_554 S
H504 C446 0.929 . S
H505 C447 0.930 1_556 S
H506 C448 0.930 . S
H507 C449 0.930 1_556 S
H508 C451 0.930 . S
H509 C453 0.929 . S
H510 C454 0.930 . S
H511 C455 0.976 . S
H512 C458 0.930 . S
H513 C461 0.929 . S
H514 C466 0.929 . S
H515 C467 0.930 . S
H516 C474 0.929 . S
H517 C475 0.930 . S
H518 C476 0.951 . S
H519 C477 0.930 . S
H520 C479 0.929 . S
H521 C480 0.930 . S
H522 C481 0.930 . S
H523 C482 0.930 . S
H524 C486 0.929 . S
H525 C488 0.930 . S
H526 C494 0.932 . S
H527 C495 0.930 . S
Li528 N545 1.990 . S
Li528 O588 1.956 . S
Li528 O589 1.970 . S
Li528 O590 1.961 . S
Li529 N553 1.990 . S
Li529 O588 1.970 . S
Li529 O589 1.956 . S
Li529 O591 1.961 . S
Li530 N575 1.990 . S
Li530 O588 1.961 . S
Li530 O590 1.956 . S
Li530 O591 1.970 . S
Li531 N581 1.990 . S
Li531 O589 1.961 . S
Li531 O590 1.970 . S
Li531 O591 1.956 . S
C532 C534 1.348 . S
C532 C535 1.356 . S
C532 O588 1.325 . S
N533 C536 1.314 . S
N533 C537 1.279 . S
C534 C532 1.348 . S
C534 C536 1.353 . S
C534 H592 0.929 . S
C535 C532 1.356 . S
C535 C537 1.358 . S
C535 H593 0.930 . S
C536 N533 1.314 . S
C536 C534 1.353 . S
C536 H594 0.930 . S
C537 N533 1.279 . S
C537 C535 1.358 . S
C537 H595 0.930 . S
C538 C541 1.348 . S
C538 C542 1.356 . S
C538 O589 1.325 . S
C539 N540 1.279 . S
C539 C542 1.358 . S
C539 H596 0.930 . S
N540 C539 1.279 . S
N540 C543 1.314 . S
C541 C538 1.348 . S
C541 C543 1.353 . S
C541 H597 0.929 . S
C542 C538 1.356 . S
C542 C539 1.358 . S
C542 H598 0.930 . S
C543 N540 1.314 . S
C543 C541 1.353 . S
C543 H599 0.930 . S
C544 N545 1.314 . S
C544 C549 1.353 . S
C544 H550 0.930 . S
N545 Li528 1.990 . S
N545 C544 1.314 . S
N545 C547 1.279 . S
C546 C547 1.358 . S
C546 C548 1.356 . S
C546 H600 0.930 . S
C547 N545 1.279 . S
C547 C546 1.358 . S
C547 H551 0.930 . S
C548 C546 1.356 . S
C548 C549 1.348 . S
C549 C544 1.353 . S
C549 C548 1.348 . S
C549 H601 0.929 . S
H550 C544 0.930 . S
H551 C547 0.930 . S
C552 N553 1.314 . S
C552 C554 1.353 . S
C552 H558 0.930 . S
N553 Li529 1.990 . S
N553 C552 1.314 . S
N553 C556 1.279 . S
C554 C552 1.353 . S
C554 C557 1.348 . S
C554 H602 0.929 . S
C555 C556 1.358 . S
C555 C557 1.356 . S
C555 H603 0.930 . S
C556 N553 1.279 . S
C556 C555 1.358 . S
C556 H559 0.930 . S
C557 C554 1.348 . S
C557 C555 1.356 . S
H558 C552 0.930 . S
H559 C556 0.930 . S
C560 C562 1.348 . S
C560 C563 1.356 . S
C560 O590 1.325 . S
N561 C564 1.314 . S
N561 C565 1.279 . S
C562 C560 1.348 . S
C562 C564 1.353 . S
C562 H604 0.929 . S
C563 C560 1.356 . S
C563 C565 1.358 . S
C563 H605 0.930 . S
C564 N561 1.314 . S
C564 C562 1.353 . S
C564 H606 0.930 . S
C565 N561 1.279 . S
C565 C563 1.358 . S
C565 H607 0.930 . S
C566 C567 1.348 . S
C566 C568 1.356 . S
C566 O591 1.325 . S
C567 C566 1.348 . S
C567 C569 1.353 . S
C567 H608 0.929 . S
C568 C566 1.356 . S
C568 C570 1.358 . S
C568 H609 0.930 . S
C569 C567 1.353 . S
C569 N571 1.314 . S
C569 H610 0.930 . S
C570 C568 1.358 . S
C570 N571 1.279 . S
C570 H611 0.930 . S
N571 C569 1.314 . S
N571 C570 1.279 . S
C572 C574 1.353 . S
C572 N575 1.314 . S
C572 H578 0.930 . S
C573 N575 1.279 . S
C573 C576 1.358 . S
C573 H579 0.930 . S
C574 C572 1.353 . S
C574 C577 1.348 . S
C574 H612 0.929 . S
N575 Li530 1.990 . S
N575 C572 1.314 . S
N575 C573 1.279 . S
C576 C573 1.358 . S
C576 C577 1.356 . S
C576 H613 0.930 . S
C577 C574 1.348 . S
C577 C576 1.356 . S
H578 C572 0.930 . S
H579 C573 0.930 . S
C580 N581 1.314 . S
C580 C582 1.353 . S
C580 H586 0.930 . S
N581 Li531 1.990 . S
N581 C580 1.314 . S
N581 C584 1.279 . S
C582 C580 1.353 . S
C582 C585 1.348 . S
C582 H614 0.929 . S
C583 C584 1.358 . S
C583 C585 1.356 . S
C583 H615 0.930 . S
C584 N581 1.279 . S
C584 C583 1.358 . S
C584 H587 0.930 . S
C585 C582 1.348 . S
C585 C583 1.356 . S
H586 C580 0.930 . S
H587 C584 0.930 . S
O588 Li528 1.956 . S
O588 Li529 1.970 . S
O588 Li530 1.961 . S
O588 C532 1.325 . S
O589 Li528 1.970 . S
O589 Li529 1.956 . S
O589 Li531 1.961 . S
O589 C538 1.325 . S
O590 Li528 1.961 . S
O590 Li530 1.956 . S
O590 Li531 1.970 . S
O590 C560 1.325 . S
O591 Li529 1.961 . S
O591 Li530 1.970 . S
O591 Li531 1.956 . S
O591 C566 1.325 . S
H592 C534 0.929 . S
H593 C535 0.930 . S
H594 C536 0.930 . S
H595 C537 0.930 . S
H596 C539 0.930 . S
H597 C541 0.929 . S
H598 C542 0.930 . S
H599 C543 0.930 . S
H600 C546 0.930 . S
H601 C549 0.929 . S
H602 C554 0.929 . S
H603 C555 0.930 . S
H604 C562 0.929 . S
H605 C563 0.930 . S
H606 C564 0.930 . S
H607 C565 0.930 . S
H608 C567 0.929 . S
H609 C568 0.930 . S
H610 C569 0.930 . S
H611 C570 0.930 . S
H612 C574 0.929 . S
H613 C576 0.930 . S
H614 C582 0.929 . S
H615 C583 0.930 . S
Li616 N633 1.990 . S
Li616 O676 1.956 . S
Li616 O677 1.970 . S
Li616 O678 1.961 . S
Li617 N641 1.990 . S
Li617 O676 1.970 . S
Li617 O677 1.956 . S
Li617 O679 1.961 . S
Li618 N663 1.990 1_565 S
Li618 O676 1.961 . S
Li618 O678 1.956 . S
Li618 O679 1.970 . S
Li619 N669 1.990 . S
Li619 O677 1.961 . S
Li619 O678 1.970 . S
Li619 O679 1.956 . S
C620 C622 1.348 . S
C620 C623 1.356 . S
C620 O676 1.325 . S
N621 C624 1.314 . S
N621 C625 1.279 . S
C622 C620 1.348 . S
C622 C624 1.353 . S
C622 H680 0.929 . S
C623 C620 1.356 . S
C623 C625 1.358 . S
C623 H681 0.930 . S
C624 N621 1.314 . S
C624 C622 1.353 . S
C624 H682 0.930 . S
C625 N621 1.279 . S
C625 C623 1.358 . S
C625 H683 0.930 . S
C626 C629 1.348 . S
C626 C630 1.356 . S
C626 O677 1.325 . S
C627 N628 1.279 . S
C627 C630 1.358 . S
C627 H684 0.930 . S
N628 C627 1.279 . S
N628 C631 1.314 . S
C629 C626 1.348 . S
C629 C631 1.353 . S
C629 H685 0.929 . S
C630 C626 1.356 . S
C630 C627 1.358 . S
C630 H686 0.930 . S
C631 N628 1.314 . S
C631 C629 1.353 . S
C631 H687 0.930 . S
C632 N633 1.314 . S
C632 C637 1.353 . S
C632 H638 0.930 . S
N633 Li616 1.990 . S
N633 C632 1.314 . S
N633 C635 1.279 . S
C634 C635 1.358 . S
C634 C636 1.356 . S
C634 H688 0.930 . S
C635 N633 1.279 . S
C635 C634 1.358 . S
C635 H639 0.930 . S
C636 C634 1.356 . S
C636 C637 1.348 . S
C637 C632 1.353 . S
C637 C636 1.348 . S
C637 H689 0.929 . S
H638 C632 0.930 . S
H639 C635 0.930 . S
C640 N641 1.314 . S
C640 C642 1.353 . S
C640 H646 0.930 . S
N641 Li617 1.990 . S
N641 C640 1.314 . S
N641 C644 1.279 . S
C642 C640 1.353 . S
C642 C645 1.348 . S
C642 H690 0.929 . S
C643 C644 1.358 . S
C643 C645 1.356 . S
C643 H691 0.930 . S
C644 N641 1.279 . S
C644 C643 1.358 . S
C644 H647 0.930 . S
C645 C642 1.348 . S
C645 C643 1.356 . S
H646 C640 0.930 . S
H647 C644 0.930 . S
C648 C650 1.348 1_565 S
C648 C651 1.356 1_565 S
C648 O678 1.325 . S
N649 C652 1.314 . S
N649 C653 1.279 . S
C650 C648 1.348 1_545 S
C650 C652 1.353 . S
C650 H692 0.929 . S
C651 C648 1.356 1_545 S
C651 C653 1.358 . S
C651 H693 0.930 1_545 S
C652 N649 1.314 . S
C652 C650 1.353 . S
C652 H694 0.930 . S
C653 N649 1.279 . S
C653 C651 1.358 . S
C653 H695 0.930 . S
C654 C655 1.348 1_565 S
C654 C656 1.356 . S
C654 O679 1.325 . S
C655 C654 1.348 1_545 S
C655 C657 1.353 . S
C655 H696 0.929 . S
C656 C654 1.356 . S
C656 C658 1.358 . S
C656 H697 0.930 . S
C657 C655 1.353 . S
C657 N659 1.314 . S
C657 H698 0.930 . S
C658 C656 1.358 . S
C658 N659 1.279 1_565 S
C658 H699 0.930 . S
N659 C657 1.314 . S
N659 C658 1.279 1_545 S
C660 C662 1.353 . S
C660 N663 1.314 . S
C660 H666 0.930 . S
C661 N663 1.279 . S
C661 C664 1.358 . S
C661 H667 0.930 . S
C662 C660 1.353 . S
C662 C665 1.348 . S
C662 H700 0.929 . S
N663 Li618 1.990 1_545 S
N663 C660 1.314 . S
N663 C661 1.279 . S
C664 C661 1.358 . S
C664 C665 1.356 . S
C664 H701 0.930 . S
C665 C662 1.348 . S
C665 C664 1.356 . S
H666 C660 0.930 . S
H667 C661 0.930 . S
C668 N669 1.314 . S
C668 C670 1.353 . S
C668 H674 0.930 . S
N669 Li619 1.990 . S
N669 C668 1.314 . S
N669 C672 1.279 . S
C670 C668 1.353 . S
C670 C673 1.348 . S
C670 H702 0.929 . S
C671 C672 1.358 . S
C671 C673 1.356 . S
C671 H703 0.930 . S
C672 N669 1.279 . S
C672 C671 1.358 . S
C672 H675 0.930 . S
C673 C670 1.348 . S
C673 C671 1.356 . S
H674 C668 0.930 . S
H675 C672 0.930 . S
O676 Li616 1.956 . S
O676 Li617 1.970 . S
O676 Li618 1.961 . S
O676 C620 1.325 . S
O677 Li616 1.970 . S
O677 Li617 1.956 . S
O677 Li619 1.961 . S
O677 C626 1.325 . S
O678 Li616 1.961 . S
O678 Li618 1.956 . S
O678 Li619 1.970 . S
O678 C648 1.325 . S
O679 Li617 1.961 . S
O679 Li618 1.970 . S
O679 Li619 1.956 . S
O679 C654 1.325 . S
H680 C622 0.929 . S
H681 C623 0.930 . S
H682 C624 0.930 . S
H683 C625 0.930 . S
H684 C627 0.930 . S
H685 C629 0.929 . S
H686 C630 0.930 . S
H687 C631 0.930 . S
H688 C634 0.930 . S
H689 C637 0.929 . S
H690 C642 0.929 . S
H691 C643 0.930 . S
H692 C650 0.929 . S
H693 C651 0.930 1_565 S
H694 C652 0.930 . S
H695 C653 0.930 . S
H696 C655 0.929 . S
H697 C656 0.930 . S
H698 C657 0.930 . S
H699 C658 0.930 . S
H700 C662 0.929 . S
H701 C664 0.930 . S
H702 C670 0.929 . S
H703 C671 0.930 . S
Li704 N721 1.990 . S
Li704 O764 1.956 . S
Li704 O765 1.970 . S
Li704 O766 1.961 . S
Li705 N729 1.990 . S
Li705 O764 1.970 . S
Li705 O765 1.956 . S
Li705 O767 1.961 . S
Li706 N751 1.990 1_455 S
Li706 O764 1.961 . S
Li706 O766 1.956 . S
Li706 O767 1.970 . S
Li707 N757 1.990 . S
Li707 O765 1.961 . S
Li707 O766 1.970 . S
Li707 O767 1.956 . S
C708 C710 1.348 . S
C708 C711 1.356 . S
C708 O764 1.325 . S
N709 C712 1.314 . S
N709 C713 1.279 . S
C710 C708 1.348 . S
C710 C712 1.353 . S
C710 H768 0.929 . S
C711 C708 1.356 . S
C711 C713 1.358 . S
C711 H769 0.930 . S
C712 N709 1.314 . S
C712 C710 1.353 . S
C712 H770 0.930 . S
C713 N709 1.279 . S
C713 C711 1.358 . S
C713 H771 0.930 . S
C714 C717 1.348 . S
C714 C718 1.356 . S
C714 O765 1.325 . S
C715 N716 1.279 . S
C715 C718 1.358 . S
C715 H772 0.930 . S
N716 C715 1.279 . S
N716 C719 1.314 . S
C717 C714 1.348 . S
C717 C719 1.353 . S
C717 H773 0.929 . S
C718 C714 1.356 . S
C718 C715 1.358 . S
C718 H774 0.930 . S
C719 N716 1.314 . S
C719 C717 1.353 . S
C719 H775 0.930 . S
C720 N721 1.314 . S
C720 C725 1.353 . S
C720 H726 0.930 . S
N721 Li704 1.990 . S
N721 C720 1.314 . S
N721 C723 1.279 . S
C722 C723 1.358 . S
C722 C724 1.356 . S
C722 H776 0.930 . S
C723 N721 1.279 . S
C723 C722 1.358 . S
C723 H727 0.930 . S
C724 C722 1.356 . S
C724 C725 1.348 . S
C725 C720 1.353 . S
C725 C724 1.348 . S
C725 H777 0.929 . S
H726 C720 0.930 . S
H727 C723 0.930 . S
C728 N729 1.314 . S
C728 C730 1.353 . S
C728 H734 0.930 . S
N729 Li705 1.990 . S
N729 C728 1.314 . S
N729 C732 1.279 . S
C730 C728 1.353 . S
C730 C733 1.348 . S
C730 H778 0.929 . S
C731 C732 1.358 . S
C731 C733 1.356 . S
C731 H779 0.930 . S
C732 N729 1.279 . S
C732 C731 1.358 . S
C732 H735 0.930 . S
C733 C730 1.348 . S
C733 C731 1.356 . S
H734 C728 0.930 . S
H735 C732 0.930 . S
C736 C738 1.348 1_455 S
C736 C739 1.356 1_455 S
C736 O766 1.325 . S
N737 C740 1.314 . S
N737 C741 1.279 . S
C738 C736 1.348 1_655 S
C738 C740 1.353 . S
C738 H780 0.929 . S
C739 C736 1.356 1_655 S
C739 C741 1.358 . S
C739 H781 0.930 1_655 S
C740 N737 1.314 . S
C740 C738 1.353 . S
C740 H782 0.930 . S
C741 N737 1.279 . S
C741 C739 1.358 . S
C741 H783 0.930 . S
C742 C743 1.348 1_455 S
C742 C744 1.356 . S
C742 O767 1.325 . S
C743 C742 1.348 1_655 S
C743 C745 1.353 . S
C743 H784 0.929 . S
C744 C742 1.356 . S
C744 C746 1.358 . S
C744 H785 0.930 . S
C745 C743 1.353 . S
C745 N747 1.314 . S
C745 H786 0.930 . S
C746 C744 1.358 . S
C746 N747 1.279 1_455 S
C746 H787 0.930 . S
N747 C745 1.314 . S
N747 C746 1.279 1_655 S
C748 C750 1.353 . S
C748 N751 1.314 . S
C748 H754 0.930 . S
C749 N751 1.279 . S
C749 C752 1.358 . S
C749 H755 0.930 . S
C750 C748 1.353 . S
C750 C753 1.348 . S
C750 H788 0.929 . S
N751 Li706 1.990 1_655 S
N751 C748 1.314 . S
N751 C749 1.279 . S
C752 C749 1.358 . S
C752 C753 1.356 . S
C752 H789 0.930 . S
C753 C750 1.348 . S
C753 C752 1.356 . S
H754 C748 0.930 . S
H755 C749 0.930 . S
C756 N757 1.314 . S
C756 C758 1.353 . S
C756 H762 0.930 . S
N757 Li707 1.990 . S
N757 C756 1.314 . S
N757 C760 1.279 . S
C758 C756 1.353 . S
C758 C761 1.348 . S
C758 H790 0.929 . S
C759 C760 1.358 . S
C759 C761 1.356 . S
C759 H791 0.930 . S
C760 N757 1.279 . S
C760 C759 1.358 . S
C760 H763 0.930 . S
C761 C758 1.348 . S
C761 C759 1.356 . S
H762 C756 0.930 . S
H763 C760 0.930 . S
O764 Li704 1.956 . S
O764 Li705 1.970 . S
O764 Li706 1.961 . S
O764 C708 1.325 . S
O765 Li704 1.970 . S
O765 Li705 1.956 . S
O765 Li707 1.961 . S
O765 C714 1.325 . S
O766 Li704 1.961 . S
O766 Li706 1.956 . S
O766 Li707 1.970 . S
O766 C736 1.325 . S
O767 Li705 1.961 . S
O767 Li706 1.970 . S
O767 Li707 1.956 . S
O767 C742 1.325 . S
H768 C710 0.929 . S
H769 C711 0.930 . S
H770 C712 0.930 . S
H771 C713 0.930 . S
H772 C715 0.930 . S
H773 C717 0.929 . S
H774 C718 0.930 . S
H775 C719 0.930 . S
H776 C722 0.930 . S
H777 C725 0.929 . S
H778 C730 0.929 . S
H779 C731 0.930 . S
H780 C738 0.929 . S
H781 C739 0.930 1_455 S
H782 C740 0.930 . S
H783 C741 0.930 . S
H784 C743 0.929 . S
H785 C744 0.930 . S
H786 C745 0.930 . S
H787 C746 0.930 . S
H788 C750 0.929 . S
H789 C752 0.930 . S
H790 C758 0.929 . S
H791 C759 0.930 . S
Li792 N809 1.990 1_565 S
Li792 O852 1.956 . S
Li792 O853 1.970 . S
Li792 O854 1.961 . S
Li793 N817 1.990 . S
Li793 O852 1.970 . S
Li793 O853 1.956 . S
Li793 O855 1.961 . S
Li794 N839 1.990 . S
Li794 O852 1.961 . S
Li794 O854 1.956 . S
Li794 O855 1.970 . S
Li795 N845 1.990 . S
Li795 O853 1.961 . S
Li795 O854 1.970 . S
Li795 O855 1.956 . S
C796 C798 1.348 . S
C796 C799 1.356 . S
C796 O852 1.325 . S
N797 C800 1.314 . S
N797 C801 1.279 . S
C798 C796 1.348 . S
C798 C800 1.353 . S
C798 H856 0.929 . S
C799 C796 1.356 . S
C799 C801 1.358 . S
C799 H857 0.930 . S
C800 N797 1.314 . S
C800 C798 1.353 . S
C800 H858 0.930 . S
C801 N797 1.279 . S
C801 C799 1.358 . S
C801 H859 0.930 . S
C802 C805 1.348 1_565 S
C802 C806 1.356 . S
C802 O853 1.325 . S
C803 N804 1.279 1_565 S
C803 C806 1.358 . S
C803 H860 0.930 . S
N804 C803 1.279 1_545 S
N804 C807 1.314 . S
C805 C802 1.348 1_545 S
C805 C807 1.353 . S
C805 H861 0.929 . S
C806 C802 1.356 . S
C806 C803 1.358 . S
C806 H862 0.930 . S
C807 N804 1.314 . S
C807 C805 1.353 . S
C807 H863 0.930 . S
C808 N809 1.314 . S
C808 C813 1.353 . S
C808 H814 0.930 . S
N809 Li792 1.990 1_545 S
N809 C808 1.314 . S
N809 C811 1.279 . S
C810 C811 1.358 . S
C810 C812 1.356 . S
C810 H864 0.930 . S
C811 N809 1.279 . S
C811 C810 1.358 . S
C811 H815 0.930 . S
C812 C810 1.356 . S
C812 C813 1.348 . S
C813 C808 1.353 . S
C813 C812 1.348 . S
C813 H865 0.929 . S
H814 C808 0.930 . S
H815 C811 0.930 . S
C816 N817 1.314 . S
C816 C818 1.353 . S
C816 H822 0.930 . S
N817 Li793 1.990 . S
N817 C816 1.314 . S
N817 C820 1.279 . S
C818 C816 1.353 . S
C818 C821 1.348 . S
C818 H866 0.929 . S
C819 C820 1.358 . S
C819 C821 1.356 . S
C819 H867 0.930 . S
C820 N817 1.279 . S
C820 C819 1.358 . S
C820 H823 0.930 . S
C821 C818 1.348 . S
C821 C819 1.356 . S
H822 C816 0.930 . S
H823 C820 0.930 . S
C824 C826 1.348 . S
C824 C827 1.356 1_565 S
C824 O854 1.325 . S
N825 C828 1.314 . S
N825 C829 1.279 . S
C826 C824 1.348 . S
C826 C828 1.353 1_565 S
C826 H868 0.929 . S
C827 C824 1.356 1_545 S
C827 C829 1.358 . S
C827 H869 0.930 . S
C828 N825 1.314 . S
C828 C826 1.353 1_545 S
C828 H870 0.930 . S
C829 N825 1.279 . S
C829 C827 1.358 . S
C829 H871 0.930 . S
C830 C831 1.348 . S
C830 C832 1.356 . S
C830 O855 1.325 . S
C831 C830 1.348 . S
C831 C833 1.353 . S
C831 H872 0.929 . S
C832 C830 1.356 . S
C832 C834 1.358 . S
C832 H873 0.930 . S
C833 C831 1.353 . S
C833 N835 1.314 . S
C833 H874 0.930 . S
C834 C832 1.358 . S
C834 N835 1.279 . S
C834 H875 0.930 . S
N835 C833 1.314 . S
N835 C834 1.279 . S
C836 C838 1.353 . S
C836 N839 1.314 . S
C836 H842 0.930 . S
C837 N839 1.279 . S
C837 C840 1.358 . S
C837 H843 0.930 . S
C838 C836 1.353 . S
C838 C841 1.348 . S
C838 H876 0.929 . S
N839 Li794 1.990 . S
N839 C836 1.314 . S
N839 C837 1.279 . S
C840 C837 1.358 . S
C840 C841 1.356 . S
C840 H877 0.930 . S
C841 C838 1.348 . S
C841 C840 1.356 . S
H842 C836 0.930 . S
H843 C837 0.930 . S
C844 N845 1.314 . S
C844 C846 1.353 . S
C844 H850 0.930 . S
N845 Li795 1.990 . S
N845 C844 1.314 . S
N845 C848 1.279 . S
C846 C844 1.353 . S
C846 C849 1.348 . S
C846 H878 0.929 1_565 S
C847 C848 1.358 . S
C847 C849 1.356 . S
C847 H879 0.930 . S
C848 N845 1.279 . S
C848 C847 1.358 . S
C848 H851 0.930 . S
C849 C846 1.348 . S
C849 C847 1.356 . S
H850 C844 0.930 . S
H851 C848 0.930 . S
O852 Li792 1.956 . S
O852 Li793 1.970 . S
O852 Li794 1.961 . S
O852 C796 1.325 . S
O853 Li792 1.970 . S
O853 Li793 1.956 . S
O853 Li795 1.961 . S
O853 C802 1.325 . S
O854 Li792 1.961 . S
O854 Li794 1.956 . S
O854 Li795 1.970 . S
O854 C824 1.325 . S
O855 Li793 1.961 . S
O855 Li794 1.970 . S
O855 Li795 1.956 . S
O855 C830 1.325 . S
H856 C798 0.929 . S
H857 C799 0.930 . S
H858 C800 0.930 . S
H859 C801 0.930 . S
H860 C803 0.930 . S
H861 C805 0.929 . S
H862 C806 0.930 . S
H863 C807 0.930 . S
H864 C810 0.930 . S
H865 C813 0.929 . S
H866 C818 0.929 . S
H867 C819 0.930 . S
H868 C826 0.929 . S
H869 C827 0.930 . S
H870 C828 0.930 . S
H871 C829 0.930 . S
H872 C831 0.929 . S
H873 C832 0.930 . S
H874 C833 0.930 . S
H875 C834 0.930 . S
H876 C838 0.929 . S
H877 C840 0.930 . S
H878 C846 0.929 1_545 S
H879 C847 0.930 . S
Li880 N897 1.990 . S
Li880 O940 1.956 . S
Li880 O941 1.970 . S
Li880 O942 1.961 . S
Li881 N905 1.990 1_455 S
Li881 O940 1.970 . S
Li881 O941 1.956 . S
Li881 O943 1.961 . S
Li882 N927 1.990 . S
Li882 O940 1.961 . S
Li882 O942 1.956 . S
Li882 O943 1.970 . S
Li883 N933 1.990 . S
Li883 O941 1.961 . S
Li883 O942 1.970 . S
Li883 O943 1.956 . S
C884 C886 1.348 1_455 S
C884 C887 1.356 . S
C884 O940 1.325 . S
N885 C888 1.363 . S
N885 C889 1.228 1_655 S
C886 C884 1.348 1_655 S
C886 C888 1.353 . S
C886 H944 0.929 . S
C887 C884 1.356 . S
C887 C889 1.358 . S
C887 H945 0.930 . S
C888 N885 1.363 . S
C888 C886 1.353 . S
C888 H946 0.930 . S
C889 N885 1.228 1_455 S
C889 C887 1.358 . S
C889 H947 0.930 . S
C890 C893 1.348 . S
C890 C894 1.356 . S
C890 O941 1.325 . S
C891 N892 1.279 . S
C891 C894 1.358 . S
C891 H948 0.930 . S
N892 C891 1.279 . S
N892 C895 1.314 . S
C893 C890 1.348 . S
C893 C895 1.353 . S
C893 H949 0.929 . S
C894 C890 1.356 . S
C894 C891 1.358 . S
C894 H950 0.930 . S
C895 N892 1.314 . S
C895 C893 1.353 . S
C895 H951 0.930 . S
C896 N897 1.314 . S
C896 C901 1.353 . S
C896 H902 0.930 . S
N897 Li880 1.990 . S
N897 C896 1.314 . S
N897 C899 1.279 . S
C898 C899 1.358 . S
C898 C900 1.356 . S
C898 H952 0.930 . S
C899 N897 1.279 . S
C899 C898 1.358 . S
C899 H903 0.930 . S
C900 C898 1.356 . S
C900 C901 1.348 . S
C901 C896 1.353 . S
C901 C900 1.348 . S
C901 H953 0.929 . S
H902 C896 0.930 . S
H903 C899 0.930 . S
C904 N905 1.314 . S
C904 C906 1.353 . S
C904 H910 0.930 . S
N905 Li881 1.990 1_655 S
N905 C904 1.314 . S
N905 C908 1.279 . S
C906 C904 1.353 . S
C906 C909 1.348 . S
C906 H954 0.929 . S
C907 C908 1.358 . S
C907 C909 1.356 . S
C907 H955 0.930 . S
C908 N905 1.279 . S
C908 C907 1.358 . S
C908 H911 0.930 . S
C909 C906 1.348 . S
C909 C907 1.356 . S
H910 C904 0.930 . S
H911 C908 0.930 . S
C912 C914 1.348 . S
C912 C915 1.356 . S
C912 O942 1.325 . S
N913 C916 1.314 . S
N913 C917 1.279 . S
C914 C912 1.348 . S
C914 C916 1.353 . S
C914 H956 0.929 . S
C915 C912 1.356 . S
C915 C917 1.358 . S
C915 H957 0.930 . S
C916 N913 1.314 . S
C916 C914 1.353 . S
C916 H958 0.930 . S
C917 N913 1.279 . S
C917 C915 1.358 . S
C917 H959 0.930 . S
C918 C919 1.348 . S
C918 C920 1.356 1_455 S
C918 O943 1.325 . S
C919 C918 1.348 . S
C919 C921 1.353 1_455 S
C919 H960 0.929 . S
C920 C918 1.356 1_655 S
C920 C922 1.358 . S
C920 H961 0.930 . S
C921 C919 1.353 1_655 S
C921 N923 1.314 . S
C921 H962 0.930 . S
C922 C920 1.358 . S
C922 N923 1.279 . S
C922 H963 0.930 . S
N923 C921 1.314 . S
N923 C922 1.279 . S
C924 C926 1.353 . S
C924 N927 1.314 . S
C924 H930 0.930 . S
C925 N927 1.279 . S
C925 C928 1.358 . S
C925 H931 0.930 . S
C926 C924 1.353 . S
C926 C929 1.348 . S
C926 H964 0.929 1_455 S
N927 Li882 1.990 . S
N927 C924 1.314 . S
N927 C925 1.279 . S
C928 C925 1.358 . S
C928 C929 1.356 . S
C928 H965 0.930 . S
C929 C926 1.348 . S
C929 C928 1.356 . S
H930 C924 0.930 . S
H931 C925 0.930 . S
C932 N933 1.314 . S
C932 C934 1.353 . S
C932 H938 0.930 . S
N933 Li883 1.990 . S
N933 C932 1.314 . S
N933 C936 1.279 . S
C934 C932 1.353 . S
C934 C937 1.348 . S
C934 H966 0.929 . S
C935 C936 1.358 . S
C935 C937 1.356 . S
C935 H967 0.930 . S
C936 N933 1.279 . S
C936 C935 1.358 . S
C936 H939 0.930 . S
C937 C934 1.348 . S
C937 C935 1.356 . S
H938 C932 0.930 . S
H939 C936 0.930 . S
O940 Li880 1.956 . S
O940 Li881 1.970 . S
O940 Li882 1.961 . S
O940 C884 1.325 . S
O941 Li880 1.970 . S
O941 Li881 1.956 . S
O941 Li883 1.961 . S
O941 C890 1.325 . S
O942 Li880 1.961 . S
O942 Li882 1.956 . S
O942 Li883 1.970 . S
O942 C912 1.325 . S
O943 Li881 1.961 . S
O943 Li882 1.970 . S
O943 Li883 1.956 . S
O943 C918 1.325 . S
H944 C886 0.929 . S
H945 C887 0.930 . S
H946 C888 0.930 . S
H947 C889 0.930 . S
H948 C891 0.930 . S
H949 C893 0.929 . S
H950 C894 0.930 . S
H951 C895 0.930 . S
H952 C898 0.930 . S
H953 C901 0.929 . S
H954 C906 0.929 . S
H955 C907 0.930 . S
H956 C914 0.929 . S
H957 C915 0.930 . S
H958 C916 0.930 . S
H959 C917 0.930 . S
H960 C919 0.929 . S
H961 C920 0.930 . S
H962 C921 0.930 . S
H963 C922 0.930 . S
H964 C926 0.929 1_655 S
H965 C928 0.930 . S
H966 C934 0.929 . S
H967 C935 0.930 . S
Li968 N985 1.990 . S
Li968 O1028 1.956 . S
Li968 O1029 1.970 . S
Li968 O1030 1.961 . S
Li969 N993 1.990 . S
Li969 O1028 1.970 . S
Li969 O1029 1.956 . S
Li969 O1031 1.961 . S
Li970 N1015 1.990 . S
Li970 O1028 1.961 . S
Li970 O1030 1.956 . S
Li970 O1031 1.970 . S
Li971 N1021 1.990 . S
Li971 O1029 1.961 . S
Li971 O1030 1.970 . S
Li971 O1031 1.956 . S
C972 C974 1.348 . S
C972 C975 1.356 . S
C972 O1028 1.325 . S
N973 C976 1.314 . S
N973 C977 1.279 . S
C974 C972 1.348 . S
C974 C976 1.353 . S
C974 H1032 0.929 . S
C975 C972 1.356 . S
C975 C977 1.358 . S
C975 H1033 0.930 . S
C976 N973 1.314 . S
C976 C974 1.353 . S
C976 H1034 0.930 . S
C977 N973 1.279 . S
C977 C975 1.358 . S
C977 H1035 0.930 . S
C978 C981 1.348 . S
C978 C982 1.356 . S
C978 O1029 1.325 . S
C979 N980 1.279 . S
C979 C982 1.358 . S
C979 H1036 0.930 . S
N980 C979 1.279 . S
N980 C983 1.314 . S
C981 C978 1.348 . S
C981 C983 1.353 . S
C981 H1037 0.929 . S
C982 C978 1.356 . S
C982 C979 1.358 . S
C982 H1038 0.930 . S
C983 N980 1.314 . S
C983 C981 1.353 . S
C983 H1039 0.930 . S
C984 N985 1.314 . S
C984 C989 1.353 . S
C984 H990 0.930 . S
N985 Li968 1.990 . S
N985 C984 1.314 . S
N985 C987 1.279 . S
C986 C987 1.358 . S
C986 C988 1.356 . S
C986 H1040 0.930 . S
C987 N985 1.279 . S
C987 C986 1.358 . S
C987 H991 0.930 . S
C988 C986 1.356 . S
C988 C989 1.348 . S
C989 C984 1.353 . S
C989 C988 1.348 . S
C989 H1041 0.929 . S
H990 C984 0.930 . S
H991 C987 0.930 . S
C992 N993 1.314 . S
C992 C994 1.353 . S
C992 H998 0.930 . S
N993 Li969 1.990 . S
N993 C992 1.314 . S
N993 C996 1.279 . S
C994 C992 1.353 . S
C994 C997 1.348 . S
C994 H1042 0.929 . S
C995 C996 1.358 . S
C995 C997 1.356 . S
C995 H1043 0.930 . S
C996 N993 1.279 . S
C996 C995 1.358 . S
C996 H999 0.930 . S
C997 C994 1.348 . S
C997 C995 1.356 . S
H998 C992 0.930 . S
H999 C996 0.930 . S
C1000 C1002 1.348 . S
C1000 C1003 1.356 . S
C1000 O1030 1.325 . S
N1001 C1004 1.314 . S
N1001 C1005 1.279 . S
C1002 C1000 1.348 . S
C1002 C1004 1.353 . S
C1002 H1044 0.929 . S
C1003 C1000 1.356 . S
C1003 C1005 1.358 . S
C1003 H1045 0.930 . S
C1004 N1001 1.314 . S
C1004 C1002 1.353 . S
C1004 H1046 0.930 . S
C1005 N1001 1.279 . S
C1005 C1003 1.358 . S
C1005 H1047 0.930 . S
C1006 C1007 1.348 . S
C1006 C1008 1.356 . S
C1006 O1031 1.325 . S
C1007 C1006 1.348 . S
C1007 C1009 1.353 . S
C1007 H1048 0.929 . S
C1008 C1006 1.356 . S
C1008 C1010 1.358 . S
C1008 H1049 0.930 . S
C1009 C1007 1.353 . S
C1009 N1011 1.314 . S
C1009 H1050 0.930 . S
C1010 C1008 1.358 . S
C1010 N1011 1.279 . S
C1010 H1051 0.930 . S
N1011 C1009 1.314 . S
N1011 C1010 1.279 . S
C1012 C1014 1.353 . S
C1012 N1015 1.314 . S
C1012 H1018 0.930 . S
C1013 N1015 1.279 . S
C1013 C1016 1.358 . S
C1013 H1019 0.930 . S
C1014 C1012 1.353 . S
C1014 C1017 1.348 . S
C1014 H1052 0.929 . S
N1015 Li970 1.990 . S
N1015 C1012 1.314 . S
N1015 C1013 1.279 . S
C1016 C1013 1.358 . S
C1016 C1017 1.356 . S
C1016 H1053 0.930 . S
C1017 C1014 1.348 . S
C1017 C1016 1.356 . S
H1018 C1012 0.930 . S
H1019 C1013 0.930 . S
C1020 N1021 1.314 . S
C1020 C1022 1.353 . S
C1020 H1026 0.930 . S
N1021 Li971 1.990 . S
N1021 C1020 1.314 . S
N1021 C1024 1.279 . S
C1022 C1020 1.353 . S
C1022 C1025 1.348 . S
C1022 H1054 0.929 . S
C1023 C1024 1.358 . S
C1023 C1025 1.356 . S
C1023 H1055 0.930 . S
C1024 N1021 1.279 . S
C1024 C1023 1.358 . S
C1024 H1027 0.930 . S
C1025 C1022 1.348 . S
C1025 C1023 1.356 . S
H1026 C1020 0.930 . S
H1027 C1024 0.930 . S
O1028 Li968 1.956 . S
O1028 Li969 1.970 . S
O1028 Li970 1.961 . S
O1028 C972 1.325 . S
O1029 Li968 1.970 . S
O1029 Li969 1.956 . S
O1029 Li971 1.961 . S
O1029 C978 1.325 . S
O1030 Li968 1.961 . S
O1030 Li970 1.956 . S
O1030 Li971 1.970 . S
O1030 C1000 1.325 . S
O1031 Li969 1.961 . S
O1031 Li970 1.970 . S
O1031 Li971 1.956 . S
O1031 C1006 1.325 . S
H1032 C974 0.929 . S
H1033 C975 0.930 . S
H1034 C976 0.930 . S
H1035 C977 0.930 . S
H1036 C979 0.930 . S
H1037 C981 0.929 . S
H1038 C982 0.930 . S
H1039 C983 0.930 . S
H1040 C986 0.930 . S
H1041 C989 0.929 . S
H1042 C994 0.929 . S
H1043 C995 0.930 . S
H1044 C1002 0.929 . S
H1045 C1003 0.930 . S
H1046 C1004 0.930 . S
H1047 C1005 0.930 . S
H1048 C1007 0.929 . S
H1049 C1008 0.930 . S
H1050 C1009 0.930 . S
H1051 C1010 0.930 . S
H1052 C1014 0.929 . S
H1053 C1016 0.930 . S
H1054 C1022 0.929 . S
H1055 C1023 0.930 . S
Li1056 N1073 1.990 1_545 S
Li1056 O1116 1.956 . S
Li1056 O1117 1.970 . S
Li1056 O1118 1.961 . S
Li1057 N1081 1.990 . S
Li1057 O1116 1.970 . S
Li1057 O1117 1.956 . S
Li1057 O1119 1.961 . S
Li1058 N1103 1.990 . S
Li1058 O1116 1.961 . S
Li1058 O1118 1.956 . S
Li1058 O1119 1.970 . S
Li1059 N1109 1.990 . S
Li1059 O1117 1.961 . S
Li1059 O1118 1.970 . S
Li1059 O1119 1.956 . S
C1060 C1062 1.348 1_545 S
C1060 C1063 1.356 1_545 S
C1060 O1116 1.325 . S
N1061 C1064 1.314 . S
N1061 C1065 1.279 . S
C1062 C1060 1.348 1_565 S
C1062 C1064 1.353 . S
C1062 H1120 0.929 . S
C1063 C1060 1.356 1_565 S
C1063 C1065 1.358 . S
C1063 H1121 0.930 1_565 S
C1064 N1061 1.314 . S
C1064 C1062 1.353 . S
C1064 H1122 0.930 . S
C1065 N1061 1.279 . S
C1065 C1063 1.358 . S
C1065 H1123 0.930 . S
C1066 C1069 1.348 1_545 S
C1066 C1070 1.356 . S
C1066 O1117 1.325 . S
C1067 N1068 1.279 1_545 S
C1067 C1070 1.358 . S
C1067 H1124 0.930 . S
N1068 C1067 1.279 1_565 S
N1068 C1071 1.314 . S
C1069 C1066 1.348 1_565 S
C1069 C1071 1.353 . S
C1069 H1125 0.929 . S
C1070 C1066 1.356 . S
C1070 C1067 1.358 . S
C1070 H1126 0.930 . S
C1071 N1068 1.314 . S
C1071 C1069 1.353 . S
C1071 H1127 0.930 . S
C1072 N1073 1.314 . S
C1072 C1077 1.353 . S
C1072 H1078 0.930 . S
N1073 Li1056 1.990 1_565 S
N1073 C1072 1.314 . S
N1073 C1075 1.279 . S
C1074 C1075 1.358 . S
C1074 C1076 1.356 . S
C1074 H1128 0.930 . S
C1075 N1073 1.279 . S
C1075 C1074 1.358 . S
C1075 H1079 0.930 . S
C1076 C1074 1.356 . S
C1076 C1077 1.348 . S
C1077 C1072 1.353 . S
C1077 C1076 1.348 . S
C1077 H1129 0.929 . S
H1078 C1072 0.930 . S
H1079 C1075 0.930 . S
C1080 N1081 1.314 . S
C1080 C1082 1.353 . S
C1080 H1086 0.930 . S
N1081 Li1057 1.990 . S
N1081 C1080 1.314 . S
N1081 C1084 1.279 . S
C1082 C1080 1.353 . S
C1082 C1085 1.348 . S
C1082 H1130 0.929 . S
C1083 C1084 1.358 . S
C1083 C1085 1.356 . S
C1083 H1131 0.930 . S
C1084 N1081 1.279 . S
C1084 C1083 1.358 . S
C1084 H1087 0.930 . S
C1085 C1082 1.348 . S
C1085 C1083 1.356 . S
H1086 C1080 0.930 . S
H1087 C1084 0.930 . S
C1088 C1090 1.348 . S
C1088 C1091 1.356 . S
C1088 O1118 1.325 . S
N1089 C1092 1.314 . S
N1089 C1093 1.279 . S
C1090 C1088 1.348 . S
C1090 C1092 1.353 . S
C1090 H1132 0.929 . S
C1091 C1088 1.356 . S
C1091 C1093 1.358 . S
C1091 H1133 0.930 . S
C1092 N1089 1.314 . S
C1092 C1090 1.353 . S
C1092 H1134 0.930 . S
C1093 N1089 1.279 . S
C1093 C1091 1.358 . S
C1093 H1135 0.930 . S
C1094 C1095 1.348 . S
C1094 C1096 1.356 . S
C1094 O1119 1.325 . S
C1095 C1094 1.348 . S
C1095 C1097 1.353 . S
C1095 H1136 0.929 . S
C1096 C1094 1.356 . S
C1096 C1098 1.358 . S
C1096 H1137 0.930 . S
C1097 C1095 1.353 . S
C1097 N1099 1.314 . S
C1097 H1138 0.930 . S
C1098 C1096 1.358 . S
C1098 N1099 1.279 . S
C1098 H1139 0.930 . S
N1099 C1097 1.314 . S
N1099 C1098 1.279 . S
C1100 C1102 1.353 . S
C1100 N1103 1.314 . S
C1100 H1106 0.930 . S
C1101 N1103 1.279 . S
C1101 C1104 1.358 . S
C1101 H1107 0.930 . S
C1102 C1100 1.353 . S
C1102 C1105 1.348 . S
C1102 H1140 0.929 . S
N1103 Li1058 1.990 . S
N1103 C1100 1.314 . S
N1103 C1101 1.279 . S
C1104 C1101 1.358 . S
C1104 C1105 1.356 . S
C1104 H1141 0.930 . S
C1105 C1102 1.348 . S
C1105 C1104 1.356 . S
H1106 C1100 0.930 . S
H1107 C1101 0.930 . S
C1108 N1109 1.314 . S
C1108 C1110 1.353 . S
C1108 H1114 0.930 . S
N1109 Li1059 1.990 . S
N1109 C1108 1.314 . S
N1109 C1112 1.279 . S
C1110 C1108 1.353 . S
C1110 C1113 1.348 . S
C1110 H1142 0.929 . S
C1111 C1112 1.358 . S
C1111 C1113 1.356 . S
C1111 H1143 0.930 . S
C1112 N1109 1.279 . S
C1112 C1111 1.358 . S
C1112 H1115 0.930 . S
C1113 C1110 1.348 . S
C1113 C1111 1.356 . S
H1114 C1108 0.930 . S
H1115 C1112 0.930 . S
O1116 Li1056 1.956 . S
O1116 Li1057 1.970 . S
O1116 Li1058 1.961 . S
O1116 C1060 1.325 . S
O1117 Li1056 1.970 . S
O1117 Li1057 1.956 . S
O1117 Li1059 1.961 . S
O1117 C1066 1.325 . S
O1118 Li1056 1.961 . S
O1118 Li1058 1.956 . S
O1118 Li1059 1.970 . S
O1118 C1088 1.325 . S
O1119 Li1057 1.961 . S
O1119 Li1058 1.970 . S
O1119 Li1059 1.956 . S
O1119 C1094 1.325 . S
H1120 C1062 0.929 . S
H1121 C1063 0.930 1_545 S
H1122 C1064 0.930 . S
H1123 C1065 0.930 . S
H1124 C1067 0.930 . S
H1125 C1069 0.929 . S
H1126 C1070 0.930 . S
H1127 C1071 0.930 . S
H1128 C1074 0.930 . S
H1129 C1077 0.929 . S
H1130 C1082 0.929 . S
H1131 C1083 0.930 . S
H1132 C1090 0.929 . S
H1133 C1091 0.930 . S
H1134 C1092 0.930 . S
H1135 C1093 0.930 . S
H1136 C1095 0.929 . S
H1137 C1096 0.930 . S
H1138 C1097 0.930 . S
H1139 C1098 0.930 . S
H1140 C1102 0.929 . S
H1141 C1104 0.930 . S
H1142 C1110 0.929 . S
H1143 C1111 0.930 . S
Li1144 N1161 1.990 1_655 S
Li1144 O1204 1.956 . S
Li1144 O1205 1.970 . S
Li1144 O1206 1.961 . S
Li1145 N1169 1.990 . S
Li1145 O1204 1.970 . S
Li1145 O1205 1.956 . S
Li1145 O1207 1.961 . S
Li1146 N1191 1.990 . S
Li1146 O1204 1.961 . S
Li1146 O1206 1.956 . S
Li1146 O1207 1.970 . S
Li1147 N1197 1.990 . S
Li1147 O1205 1.961 . S
Li1147 O1206 1.970 . S
Li1147 O1207 1.956 . S
C1148 C1150 1.348 1_655 S
C1148 C1151 1.356 1_655 S
C1148 O1204 1.325 . S
N1149 C1152 1.314 . S
N1149 C1153 1.279 . S
C1150 C1148 1.348 1_455 S
C1150 C1152 1.353 . S
C1150 H1208 0.929 . S
C1151 C1148 1.356 1_455 S
C1151 C1153 1.358 . S
C1151 H1209 0.930 1_455 S
C1152 N1149 1.314 . S
C1152 C1150 1.353 . S
C1152 H1210 0.930 . S
C1153 N1149 1.279 . S
C1153 C1151 1.358 . S
C1153 H1211 0.930 . S
C1154 C1157 1.348 1_655 S
C1154 C1158 1.356 . S
C1154 O1205 1.325 . S
C1155 N1156 1.279 1_655 S
C1155 C1158 1.358 . S
C1155 H1212 0.930 . S
N1156 C1155 1.279 1_455 S
N1156 C1159 1.314 . S
C1157 C1154 1.348 1_455 S
C1157 C1159 1.353 . S
C1157 H1213 0.929 . S
C1158 C1154 1.356 . S
C1158 C1155 1.358 . S
C1158 H1214 0.930 . S
C1159 N1156 1.314 . S
C1159 C1157 1.353 . S
C1159 H1215 0.930 . S
C1160 N1161 1.314 . S
C1160 C1165 1.353 . S
C1160 H1166 0.930 . S
N1161 Li1144 1.990 1_455 S
N1161 C1160 1.314 . S
N1161 C1163 1.279 . S
C1162 C1163 1.358 . S
C1162 C1164 1.356 . S
C1162 H1216 0.930 . S
C1163 N1161 1.279 . S
C1163 C1162 1.358 . S
C1163 H1167 0.930 . S
C1164 C1162 1.356 . S
C1164 C1165 1.348 . S
C1165 C1160 1.353 . S
C1165 C1164 1.348 . S
C1165 H1217 0.929 . S
H1166 C1160 0.930 . S
H1167 C1163 0.930 . S
C1168 N1169 1.314 . S
C1168 C1170 1.353 . S
C1168 H1174 0.930 . S
N1169 Li1145 1.990 . S
N1169 C1168 1.314 . S
N1169 C1172 1.279 . S
C1170 C1168 1.353 . S
C1170 C1173 1.348 . S
C1170 H1218 0.929 . S
C1171 C1172 1.358 . S
C1171 C1173 1.356 . S
C1171 H1219 0.930 . S
C1172 N1169 1.279 . S
C1172 C1171 1.358 . S
C1172 H1175 0.930 . S
C1173 C1170 1.348 . S
C1173 C1171 1.356 . S
H1174 C1168 0.930 . S
H1175 C1172 0.930 . S
C1176 C1178 1.348 . S
C1176 C1179 1.356 . S
C1176 O1206 1.325 . S
N1177 C1180 1.314 . S
N1177 C1181 1.279 . S
C1178 C1176 1.348 . S
C1178 C1180 1.353 . S
C1178 H1220 0.929 . S
C1179 C1176 1.356 . S
C1179 C1181 1.358 . S
C1179 H1221 0.930 . S
C1180 N1177 1.314 . S
C1180 C1178 1.353 . S
C1180 H1222 0.930 . S
C1181 N1177 1.279 . S
C1181 C1179 1.358 . S
C1181 H1223 0.930 . S
C1182 C1183 1.348 . S
C1182 C1184 1.356 . S
C1182 O1207 1.325 . S
C1183 C1182 1.348 . S
C1183 C1185 1.353 . S
C1183 H1224 0.929 . S
C1184 C1182 1.356 . S
C1184 C1186 1.358 . S
C1184 H1225 0.930 . S
C1185 C1183 1.353 . S
C1185 N1187 1.314 . S
C1185 H1226 0.930 . S
C1186 C1184 1.358 . S
C1186 N1187 1.279 . S
C1186 H1227 0.930 . S
N1187 C1185 1.314 . S
N1187 C1186 1.279 . S
C1188 C1190 1.353 . S
C1188 N1191 1.314 . S
C1188 H1194 0.930 . S
C1189 N1191 1.279 . S
C1189 C1192 1.358 . S
C1189 H1195 0.930 . S
C1190 C1188 1.353 . S
C1190 C1193 1.348 . S
C1190 H1228 0.929 . S
N1191 Li1146 1.990 . S
N1191 C1188 1.314 . S
N1191 C1189 1.279 . S
C1192 C1189 1.358 . S
C1192 C1193 1.356 . S
C1192 H1229 0.930 . S
C1193 C1190 1.348 . S
C1193 C1192 1.356 . S
H1194 C1188 0.930 . S
H1195 C1189 0.930 . S
C1196 N1197 1.314 . S
C1196 C1198 1.353 . S
C1196 H1202 0.930 . S
N1197 Li1147 1.990 . S
N1197 C1196 1.314 . S
N1197 C1200 1.279 . S
C1198 C1196 1.353 . S
C1198 C1201 1.348 . S
C1198 H1230 0.929 . S
C1199 C1200 1.358 . S
C1199 C1201 1.356 . S
C1199 H1231 0.930 . S
C1200 N1197 1.279 . S
C1200 C1199 1.358 . S
C1200 H1203 0.930 . S
C1201 C1198 1.348 . S
C1201 C1199 1.356 . S
H1202 C1196 0.930 . S
H1203 C1200 0.930 . S
O1204 Li1144 1.956 . S
O1204 Li1145 1.970 . S
O1204 Li1146 1.961 . S
O1204 C1148 1.325 . S
O1205 Li1144 1.970 . S
O1205 Li1145 1.956 . S
O1205 Li1147 1.961 . S
O1205 C1154 1.325 . S
O1206 Li1144 1.961 . S
O1206 Li1146 1.956 . S
O1206 Li1147 1.970 . S
O1206 C1176 1.325 . S
O1207 Li1145 1.961 . S
O1207 Li1146 1.970 . S
O1207 Li1147 1.956 . S
O1207 C1182 1.325 . S
H1208 C1150 0.929 . S
H1209 C1151 0.930 1_655 S
H1210 C1152 0.930 . S
H1211 C1153 0.930 . S
H1212 C1155 0.930 . S
H1213 C1157 0.929 . S
H1214 C1158 0.930 . S
H1215 C1159 0.930 . S
H1216 C1162 0.930 . S
H1217 C1165 0.929 . S
H1218 C1170 0.929 . S
H1219 C1171 0.930 . S
H1220 C1178 0.929 . S
H1221 C1179 0.930 . S
H1222 C1180 0.930 . S
H1223 C1181 0.930 . S
H1224 C1183 0.929 . S
H1225 C1184 0.930 . S
H1226 C1185 0.930 . S
H1227 C1186 0.930 . S
H1228 C1190 0.929 . S
H1229 C1192 0.930 . S
H1230 C1198 0.929 . S
H1231 C1199 0.930 . S
Li1232 N1249 1.990 . S
Li1232 O1292 1.956 . S
Li1232 O1293 1.970 . S
Li1232 O1294 1.961 . S
Li1233 N1257 1.990 . S
Li1233 O1292 1.970 . S
Li1233 O1293 1.956 . S
Li1233 O1295 1.961 . S
Li1234 N1279 1.990 . S
Li1234 O1292 1.961 . S
Li1234 O1294 1.956 . S
Li1234 O1295 1.970 . S
Li1235 N1285 1.990 . S
Li1235 O1293 1.961 . S
Li1235 O1294 1.970 . S
Li1235 O1295 1.956 . S
C1236 C1238 1.348 . S
C1236 C1239 1.356 . S
C1236 O1292 1.325 . S
N1237 C1240 1.314 . S
N1237 C1241 1.279 . S
C1238 C1236 1.348 . S
C1238 C1240 1.353 . S
C1238 H1296 0.929 . S
C1239 C1236 1.356 . S
C1239 C1241 1.358 . S
C1239 H1297 0.930 . S
C1240 N1237 1.314 . S
C1240 C1238 1.353 . S
C1240 H1298 0.930 . S
C1241 N1237 1.279 . S
C1241 C1239 1.358 . S
C1241 H1299 0.930 . S
C1242 C1245 1.348 . S
C1242 C1246 1.356 . S
C1242 O1293 1.325 . S
C1243 N1244 1.279 . S
C1243 C1246 1.358 . S
C1243 H1300 0.930 . S
N1244 C1243 1.279 . S
N1244 C1247 1.314 . S
C1245 C1242 1.348 . S
C1245 C1247 1.353 . S
C1245 H1301 0.929 . S
C1246 C1242 1.356 . S
C1246 C1243 1.358 . S
C1246 H1302 0.930 . S
C1247 N1244 1.314 . S
C1247 C1245 1.353 . S
C1247 H1303 0.930 . S
C1248 N1249 1.314 . S
C1248 C1253 1.353 . S
C1248 H1254 0.930 . S
N1249 Li1232 1.990 . S
N1249 C1248 1.314 . S
N1249 C1251 1.279 . S
C1250 C1251 1.358 . S
C1250 C1252 1.356 . S
C1250 H1304 0.930 . S
C1251 N1249 1.279 . S
C1251 C1250 1.358 . S
C1251 H1255 0.930 . S
C1252 C1250 1.356 . S
C1252 C1253 1.348 . S
C1253 C1248 1.353 . S
C1253 C1252 1.348 . S
C1253 H1305 0.929 . S
H1254 C1248 0.930 . S
H1255 C1251 0.930 . S
C1256 N1257 1.314 . S
C1256 C1258 1.353 . S
C1256 H1262 0.930 . S
N1257 Li1233 1.990 . S
N1257 C1256 1.314 . S
N1257 C1260 1.279 . S
C1258 C1256 1.353 . S
C1258 C1261 1.348 . S
C1258 H1306 0.929 . S
C1259 C1260 1.358 . S
C1259 C1261 1.356 . S
C1259 H1307 0.930 . S
C1260 N1257 1.279 . S
C1260 C1259 1.358 . S
C1260 H1263 0.930 . S
C1261 C1258 1.348 . S
C1261 C1259 1.356 . S
H1262 C1256 0.930 . S
H1263 C1260 0.930 . S
C1264 C1266 1.348 . S
C1264 C1267 1.356 . S
C1264 O1294 1.325 . S
N1265 C1268 1.314 . S
N1265 C1269 1.279 . S
C1266 C1264 1.348 . S
C1266 C1268 1.353 . S
C1266 H1308 0.929 . S
C1267 C1264 1.356 . S
C1267 C1269 1.358 . S
C1267 H1309 0.930 . S
C1268 N1265 1.314 . S
C1268 C1266 1.353 . S
C1268 H1310 0.930 . S
C1269 N1265 1.279 . S
C1269 C1267 1.358 . S
C1269 H1311 0.930 . S
C1270 C1271 1.348 . S
C1270 C1272 1.356 . S
C1270 O1295 1.325 . S
C1271 C1270 1.348 . S
C1271 C1273 1.353 . S
C1271 H1312 0.929 . S
C1272 C1270 1.356 . S
C1272 C1274 1.358 . S
C1272 H1313 0.930 . S
C1273 C1271 1.353 . S
C1273 N1275 1.314 . S
C1273 H1314 0.930 . S
C1274 C1272 1.358 . S
C1274 N1275 1.279 . S
C1274 H1315 0.930 . S
N1275 C1273 1.314 . S
N1275 C1274 1.279 . S
C1276 C1278 1.353 . S
C1276 N1279 1.314 . S
C1276 H1282 0.930 . S
C1277 N1279 1.279 . S
C1277 C1280 1.358 . S
C1277 H1283 0.930 . S
C1278 C1276 1.353 . S
C1278 C1281 1.348 . S
C1278 H1316 0.929 . S
N1279 Li1234 1.990 . S
N1279 C1276 1.314 . S
N1279 C1277 1.279 . S
C1280 C1277 1.358 . S
C1280 C1281 1.356 . S
C1280 H1317 0.930 . S
C1281 C1278 1.348 . S
C1281 C1280 1.356 . S
H1282 C1276 0.930 . S
H1283 C1277 0.930 . S
C1284 N1285 1.314 . S
C1284 C1286 1.353 . S
C1284 H1290 0.930 . S
N1285 Li1235 1.990 . S
N1285 C1284 1.314 . S
N1285 C1288 1.279 . S
C1286 C1284 1.353 . S
C1286 C1289 1.348 . S
C1286 H1318 0.929 . S
C1287 C1288 1.358 . S
C1287 C1289 1.356 . S
C1287 H1319 0.930 . S
C1288 N1285 1.279 . S
C1288 C1287 1.358 . S
C1288 H1291 0.930 . S
C1289 C1286 1.348 . S
C1289 C1287 1.356 . S
H1290 C1284 0.930 . S
H1291 C1288 0.930 . S
O1292 Li1232 1.956 . S
O1292 Li1233 1.970 . S
O1292 Li1234 1.961 . S
O1292 C1236 1.325 . S
O1293 Li1232 1.970 . S
O1293 Li1233 1.956 . S
O1293 Li1235 1.961 . S
O1293 C1242 1.325 . S
O1294 Li1232 1.961 . S
O1294 Li1234 1.956 . S
O1294 Li1235 1.970 . S
O1294 C1264 1.325 . S
O1295 Li1233 1.961 . S
O1295 Li1234 1.970 . S
O1295 Li1235 1.956 . S
O1295 C1270 1.325 . S
H1296 C1238 0.929 . S
H1297 C1239 0.930 . S
H1298 C1240 0.930 . S
H1299 C1241 0.930 . S
H1300 C1243 0.930 . S
H1301 C1245 0.929 . S
H1302 C1246 0.930 . S
H1303 C1247 0.930 . S
H1304 C1250 0.930 . S
H1305 C1253 0.929 . S
H1306 C1258 0.929 . S
H1307 C1259 0.930 . S
H1308 C1266 0.929 . S
H1309 C1267 0.930 . S
H1310 C1268 0.930 . S
H1311 C1269 0.930 . S
H1312 C1271 0.929 . S
H1313 C1272 0.930 . S
H1314 C1273 0.930 . S
H1315 C1274 0.930 . S
H1316 C1278 0.929 . S
H1317 C1280 0.930 . S
H1318 C1286 0.929 . S
H1319 C1287 0.930 . S
Li1320 N1337 1.990 . S
Li1320 O1380 1.956 . S
Li1320 O1381 1.970 . S
Li1320 O1382 1.961 . S
Li1321 N1345 1.990 . S
Li1321 O1380 1.970 . S
Li1321 O1381 1.956 . S
Li1321 O1383 1.961 . S
Li1322 N1367 1.990 . S
Li1322 O1380 1.961 . S
Li1322 O1382 1.956 . S
Li1322 O1383 1.970 . S
Li1323 N1373 1.990 . S
Li1323 O1381 1.961 . S
Li1323 O1382 1.970 . S
Li1323 O1383 1.956 . S
C1324 C1326 1.348 . S
C1324 C1327 1.356 . S
C1324 O1380 1.325 . S
N1325 C1328 1.314 . S
N1325 C1329 1.279 . S
C1326 C1324 1.348 . S
C1326 C1328 1.353 . S
C1326 H1384 0.929 . S
C1327 C1324 1.356 . S
C1327 C1329 1.358 . S
C1327 H1385 0.930 . S
C1328 N1325 1.314 . S
C1328 C1326 1.353 . S
C1328 H1386 0.930 . S
C1329 N1325 1.279 . S
C1329 C1327 1.358 . S
C1329 H1387 0.930 . S
C1330 C1333 1.348 . S
C1330 C1334 1.356 . S
C1330 O1381 1.325 . S
C1331 N1332 1.279 . S
C1331 C1334 1.358 . S
C1331 H1388 0.930 . S
N1332 C1331 1.279 . S
N1332 C1335 1.314 . S
C1333 C1330 1.348 . S
C1333 C1335 1.353 . S
C1333 H1389 0.929 . S
C1334 C1330 1.356 . S
C1334 C1331 1.358 . S
C1334 H1390 0.930 . S
C1335 N1332 1.314 . S
C1335 C1333 1.353 . S
C1335 H1391 0.930 . S
C1336 N1337 1.314 . S
C1336 C1341 1.353 . S
C1336 H1342 0.930 . S
N1337 Li1320 1.990 . S
N1337 C1336 1.314 . S
N1337 C1339 1.279 . S
C1338 C1339 1.358 . S
C1338 C1340 1.356 . S
C1338 H1392 0.930 . S
C1339 N1337 1.279 . S
C1339 C1338 1.358 . S
C1339 H1343 0.930 . S
C1340 C1338 1.356 . S
C1340 C1341 1.348 . S
C1341 C1336 1.353 . S
C1341 C1340 1.348 . S
C1341 H1393 0.929 . S
H1342 C1336 0.930 . S
H1343 C1339 0.930 . S
C1344 N1345 1.314 . S
C1344 C1346 1.353 . S
C1344 H1350 0.930 . S
N1345 Li1321 1.990 . S
N1345 C1344 1.314 . S
N1345 C1348 1.279 . S
C1346 C1344 1.353 . S
C1346 C1349 1.348 . S
C1346 H1394 0.929 . S
C1347 C1348 1.358 . S
C1347 C1349 1.356 . S
C1347 H1395 0.930 . S
C1348 N1345 1.279 . S
C1348 C1347 1.358 . S
C1348 H1351 0.930 . S
C1349 C1346 1.348 . S
C1349 C1347 1.356 . S
H1350 C1344 0.930 . S
H1351 C1348 0.930 . S
C1352 C1354 1.348 . S
C1352 C1355 1.356 . S
C1352 O1382 1.325 . S
N1353 C1356 1.314 . S
N1353 C1357 1.279 . S
C1354 C1352 1.348 . S
C1354 C1356 1.353 . S
C1354 H1396 0.929 . S
C1355 C1352 1.356 . S
C1355 C1357 1.358 . S
C1355 H1397 0.930 . S
C1356 N1353 1.314 . S
C1356 C1354 1.353 . S
C1356 H1398 0.930 . S
C1357 N1353 1.279 . S
C1357 C1355 1.358 . S
C1357 H1399 0.930 . S
C1358 C1359 1.348 . S
C1358 C1360 1.356 . S
C1358 O1383 1.325 . S
C1359 C1358 1.348 . S
C1359 C1361 1.353 . S
C1359 H1400 0.929 . S
C1360 C1358 1.356 . S
C1360 C1362 1.358 . S
C1360 H1401 0.930 . S
C1361 C1359 1.353 . S
C1361 N1363 1.314 . S
C1361 H1402 0.930 . S
C1362 C1360 1.358 . S
C1362 N1363 1.279 . S
C1362 H1403 0.930 . S
N1363 C1361 1.314 . S
N1363 C1362 1.279 . S
C1364 C1366 1.353 . S
C1364 N1367 1.314 . S
C1364 H1370 0.930 . S
C1365 N1367 1.279 . S
C1365 C1368 1.358 . S
C1365 H1371 0.930 . S
C1366 C1364 1.353 . S
C1366 C1369 1.348 . S
C1366 H1404 0.929 . S
N1367 Li1322 1.990 . S
N1367 C1364 1.314 . S
N1367 C1365 1.279 . S
C1368 C1365 1.358 . S
C1368 C1369 1.356 . S
C1368 H1405 0.930 . S
C1369 C1366 1.348 . S
C1369 C1368 1.356 . S
H1370 C1364 0.930 . S
H1371 C1365 0.930 . S
C1372 N1373 1.314 . S
C1372 C1374 1.353 . S
C1372 H1378 0.930 . S
N1373 Li1323 1.990 . S
N1373 C1372 1.314 . S
N1373 C1376 1.279 . S
C1374 C1372 1.353 . S
C1374 C1377 1.348 . S
C1374 H1406 0.929 . S
C1375 C1376 1.358 . S
C1375 C1377 1.356 . S
C1375 H1407 0.930 . S
C1376 N1373 1.279 . S
C1376 C1375 1.358 . S
C1376 H1379 0.930 . S
C1377 C1374 1.348 . S
C1377 C1375 1.356 . S
H1378 C1372 0.930 . S
H1379 C1376 0.930 . S
O1380 Li1320 1.956 . S
O1380 Li1321 1.970 . S
O1380 Li1322 1.961 . S
O1380 C1324 1.325 . S
O1381 Li1320 1.970 . S
O1381 Li1321 1.956 . S
O1381 Li1323 1.961 . S
O1381 C1330 1.325 . S
O1382 Li1320 1.961 . S
O1382 Li1322 1.956 . S
O1382 Li1323 1.970 . S
O1382 C1352 1.325 . S
O1383 Li1321 1.961 . S
O1383 Li1322 1.970 . S
O1383 Li1323 1.956 . S
O1383 C1358 1.325 . S
H1384 C1326 0.929 . S
H1385 C1327 0.930 . S
H1386 C1328 0.930 . S
H1387 C1329 0.930 . S
H1388 C1331 0.930 . S
H1389 C1333 0.929 . S
H1390 C1334 0.930 . S
H1391 C1335 0.930 . S
H1392 C1338 0.930 . S
H1393 C1341 0.929 . S
H1394 C1346 0.929 . S
H1395 C1347 0.930 . S
H1396 C1354 0.929 . S
H1397 C1355 0.930 . S
H1398 C1356 0.930 . S
H1399 C1357 0.930 . S
H1400 C1359 0.929 . S
H1401 C1360 0.930 . S
H1402 C1361 0.930 . S
H1403 C1362 0.930 . S
H1404 C1366 0.929 . S
H1405 C1368 0.930 . S
H1406 C1374 0.929 . S
H1407 C1375 0.930 . S
Li1408 N1425 1.990 . S
Li1408 O1468 1.956 . S
Li1408 O1469 1.970 . S
Li1408 O1470 1.961 . S
Li1409 N1433 1.990 . S
Li1409 O1468 1.970 . S
Li1409 O1469 1.956 . S
Li1409 O1471 1.961 . S
Li1410 N1455 1.990 . S
Li1410 O1468 1.961 . S
Li1410 O1470 1.956 . S
Li1410 O1471 1.970 . S
Li1411 N1461 1.990 1_545 S
Li1411 O1469 1.961 . S
Li1411 O1470 1.970 . S
Li1411 O1471 1.956 . S
C1412 C1414 1.348 . S
C1412 C1415 1.356 . S
C1412 O1468 1.325 . S
N1413 C1416 1.314 . S
N1413 C1417 1.279 . S
C1414 C1412 1.348 . S
C1414 C1416 1.353 . S
C1414 H1472 0.929 . S
C1415 C1412 1.356 . S
C1415 C1417 1.358 . S
C1415 H1473 0.930 . S
C1416 N1413 1.314 . S
C1416 C1414 1.353 . S
C1416 H1474 0.930 . S
C1417 N1413 1.279 . S
C1417 C1415 1.358 . S
C1417 H1475 0.930 . S
C1418 C1421 1.348 . S
C1418 C1422 1.356 1_545 S
C1418 O1469 1.325 . S
C1419 N1420 1.279 . S
C1419 C1422 1.358 . S
C1419 H1476 0.930 . S
N1420 C1419 1.279 . S
N1420 C1423 1.314 . S
C1421 C1418 1.348 . S
C1421 C1423 1.353 1_545 S
C1421 H1477 0.929 . S
C1422 C1418 1.356 1_565 S
C1422 C1419 1.358 . S
C1422 H1478 0.930 . S
C1423 N1420 1.314 . S
C1423 C1421 1.353 1_565 S
C1423 H1479 0.930 . S
C1424 N1425 1.314 . S
C1424 C1429 1.353 . S
C1424 H1430 0.930 . S
N1425 Li1408 1.990 . S
N1425 C1424 1.314 . S
N1425 C1427 1.279 . S
C1426 C1427 1.358 . S
C1426 C1428 1.356 . S
C1426 H1480 0.930 . S
C1427 N1425 1.279 . S
C1427 C1426 1.358 . S
C1427 H1431 0.930 . S
C1428 C1426 1.356 . S
C1428 C1429 1.348 . S
C1429 C1424 1.353 . S
C1429 C1428 1.348 . S
C1429 H1481 0.929 1_545 S
H1430 C1424 0.930 . S
H1431 C1427 0.930 . S
C1432 N1433 1.314 . S
C1432 C1434 1.353 . S
C1432 H1438 0.930 . S
N1433 Li1409 1.990 . S
N1433 C1432 1.314 . S
N1433 C1436 1.279 . S
C1434 C1432 1.353 . S
C1434 C1437 1.348 . S
C1434 H1482 0.929 . S
C1435 C1436 1.358 . S
C1435 C1437 1.356 . S
C1435 H1483 0.930 . S
C1436 N1433 1.279 . S
C1436 C1435 1.358 . S
C1436 H1439 0.930 . S
C1437 C1434 1.348 . S
C1437 C1435 1.356 . S
H1438 C1432 0.930 . S
H1439 C1436 0.930 . S
C1440 C1442 1.348 1_545 S
C1440 C1443 1.356 . S
C1440 O1470 1.325 . S
N1441 C1444 1.363 . S
N1441 C1445 1.227 1_565 S
C1442 C1440 1.348 1_565 S
C1442 C1444 1.353 . S
C1442 H1484 0.929 . S
C1443 C1440 1.356 . S
C1443 C1445 1.358 . S
C1443 H1485 0.930 . S
C1444 N1441 1.363 . S
C1444 C1442 1.353 . S
C1444 H1486 0.930 . S
C1445 N1441 1.227 1_545 S
C1445 C1443 1.358 . S
C1445 H1487 0.930 . S
C1446 C1447 1.348 . S
C1446 C1448 1.356 . S
C1446 O1471 1.325 . S
C1447 C1446 1.348 . S
C1447 C1449 1.353 . S
C1447 H1488 0.929 . S
C1448 C1446 1.356 . S
C1448 C1450 1.358 . S
C1448 H1489 0.930 . S
C1449 C1447 1.353 . S
C1449 N1451 1.314 . S
C1449 H1490 0.930 . S
C1450 C1448 1.358 . S
C1450 N1451 1.279 . S
C1450 H1491 0.930 . S
N1451 C1449 1.314 . S
N1451 C1450 1.279 . S
C1452 C1454 1.353 . S
C1452 N1455 1.314 . S
C1452 H1458 0.930 . S
C1453 N1455 1.279 . S
C1453 C1456 1.358 . S
C1453 H1459 0.930 . S
C1454 C1452 1.353 . S
C1454 C1457 1.348 . S
C1454 H1492 0.929 . S
N1455 Li1410 1.990 . S
N1455 C1452 1.314 . S
N1455 C1453 1.279 . S
C1456 C1453 1.358 . S
C1456 C1457 1.356 . S
C1456 H1493 0.930 . S
C1457 C1454 1.348 . S
C1457 C1456 1.356 . S
H1458 C1452 0.930 . S
H1459 C1453 0.930 . S
C1460 N1461 1.314 . S
C1460 C1462 1.353 . S
C1460 H1466 0.930 . S
N1461 Li1411 1.990 1_565 S
N1461 C1460 1.314 . S
N1461 C1464 1.279 . S
C1462 C1460 1.353 . S
C1462 C1465 1.348 . S
C1462 H1494 0.929 . S
C1463 C1464 1.358 . S
C1463 C1465 1.356 . S
C1463 H1495 0.930 . S
C1464 N1461 1.279 . S
C1464 C1463 1.358 . S
C1464 H1467 0.930 . S
C1465 C1462 1.348 . S
C1465 C1463 1.356 . S
H1466 C1460 0.930 . S
H1467 C1464 0.930 . S
O1468 Li1408 1.956 . S
O1468 Li1409 1.970 . S
O1468 Li1410 1.961 . S
O1468 C1412 1.325 . S
O1469 Li1408 1.970 . S
O1469 Li1409 1.956 . S
O1469 Li1411 1.961 . S
O1469 C1418 1.325 . S
O1470 Li1408 1.961 . S
O1470 Li1410 1.956 . S
O1470 Li1411 1.970 . S
O1470 C1440 1.325 . S
O1471 Li1409 1.961 . S
O1471 Li1410 1.970 . S
O1471 Li1411 1.956 . S
O1471 C1446 1.325 . S
H1472 C1414 0.929 . S
H1473 C1415 0.930 . S
H1474 C1416 0.930 . S
H1475 C1417 0.930 . S
H1476 C1419 0.930 . S
H1477 C1421 0.929 . S
H1478 C1422 0.930 . S
H1479 C1423 0.930 . S
H1480 C1426 0.930 . S
H1481 C1429 0.929 1_565 S
H1482 C1434 0.929 . S
H1483 C1435 0.930 . S
H1484 C1442 0.929 . S
H1485 C1443 0.930 . S
H1486 C1444 0.930 . S
H1487 C1445 0.930 . S
H1488 C1447 0.929 . S
H1489 C1448 0.930 . S
H1490 C1449 0.930 . S
H1491 C1450 0.930 . S
H1492 C1454 0.929 . S
H1493 C1456 0.930 . S
H1494 C1462 0.929 . S
H1495 C1463 0.930 . S
Li1496 N1513 1.990 . S
Li1496 O1556 1.956 . S
Li1496 O1557 1.970 . S
Li1496 O1558 1.961 . S
Li1497 N1521 1.990 . S
Li1497 O1556 1.970 . S
Li1497 O1557 1.956 . S
Li1497 O1559 1.961 . S
Li1498 N1543 1.990 1_655 S
Li1498 O1556 1.961 . S
Li1498 O1558 1.956 . S
Li1498 O1559 1.970 . S
Li1499 N1549 1.990 . S
Li1499 O1557 1.961 . S
Li1499 O1558 1.970 . S
Li1499 O1559 1.956 . S
C1500 C1502 1.348 . S
C1500 C1503 1.356 1_655 S
C1500 O1556 1.325 . S
N1501 C1504 1.314 . S
N1501 C1505 1.279 . S
C1502 C1500 1.348 . S
C1502 C1504 1.353 1_655 S
C1502 H1560 0.929 . S
C1503 C1500 1.356 1_455 S
C1503 C1505 1.358 . S
C1503 H1561 0.930 . S
C1504 N1501 1.314 . S
C1504 C1502 1.353 1_455 S
C1504 H1562 0.930 . S
C1505 N1501 1.279 . S
C1505 C1503 1.358 . S
C1505 H1563 0.930 . S
C1506 C1509 1.348 . S
C1506 C1510 1.356 . S
C1506 O1557 1.325 . S
C1507 N1508 1.279 . S
C1507 C1510 1.358 . S
C1507 H1564 0.930 . S
N1508 C1507 1.279 . S
N1508 C1511 1.314 . S
C1509 C1506 1.348 . S
C1509 C1511 1.353 . S
C1509 H1565 0.929 . S
C1510 C1506 1.356 . S
C1510 C1507 1.358 . S
C1510 H1566 0.930 . S
C1511 N1508 1.314 . S
C1511 C1509 1.353 . S
C1511 H1567 0.930 . S
C1512 N1513 1.314 . S
C1512 C1517 1.353 . S
C1512 H1518 0.930 . S
N1513 Li1496 1.990 . S
N1513 C1512 1.314 . S
N1513 C1515 1.279 . S
C1514 C1515 1.358 . S
C1514 C1516 1.356 . S
C1514 H1568 0.930 . S
C1515 N1513 1.279 . S
C1515 C1514 1.358 . S
C1515 H1519 0.930 . S
C1516 C1514 1.356 . S
C1516 C1517 1.348 . S
C1517 C1512 1.353 . S
C1517 C1516 1.348 . S
C1517 H1569 0.929 . S
H1518 C1512 0.930 . S
H1519 C1515 0.930 . S
C1520 N1521 1.314 . S
C1520 C1522 1.353 . S
C1520 H1526 0.930 . S
N1521 Li1497 1.990 . S
N1521 C1520 1.314 . S
N1521 C1524 1.279 . S
C1522 C1520 1.353 . S
C1522 C1525 1.348 . S
C1522 H1570 0.929 1_655 S
C1523 C1524 1.358 . S
C1523 C1525 1.356 . S
C1523 H1571 0.930 . S
C1524 N1521 1.279 . S
C1524 C1523 1.358 . S
C1524 H1527 0.930 . S
C1525 C1522 1.348 . S
C1525 C1523 1.356 . S
H1526 C1520 0.930 . S
H1527 C1524 0.930 . S
C1528 C1530 1.348 . S
C1528 C1531 1.356 . S
C1528 O1558 1.325 . S
N1529 C1532 1.314 . S
N1529 C1533 1.279 . S
C1530 C1528 1.348 . S
C1530 C1532 1.353 . S
C1530 H1572 0.929 . S
C1531 C1528 1.356 . S
C1531 C1533 1.358 . S
C1531 H1573 0.930 . S
C1532 N1529 1.314 . S
C1532 C1530 1.353 . S
C1532 H1574 0.930 . S
C1533 N1529 1.279 . S
C1533 C1531 1.358 . S
C1533 H1575 0.930 . S
C1534 C1535 1.348 1_655 S
C1534 C1536 1.356 . S
C1534 O1559 1.325 . S
C1535 C1534 1.348 1_455 S
C1535 C1537 1.353 . S
C1535 H1576 0.929 . S
C1536 C1534 1.356 . S
C1536 C1538 1.358 . S
C1536 H1577 0.930 . S
C1537 C1535 1.353 . S
C1537 N1539 1.314 . S
C1537 H1578 0.930 . S
C1538 C1536 1.358 . S
C1538 N1539 1.279 1_655 S
C1538 H1579 0.930 . S
N1539 C1537 1.314 . S
N1539 C1538 1.279 1_455 S
C1540 C1542 1.353 . S
C1540 N1543 1.314 . S
C1540 H1546 0.930 . S
C1541 N1543 1.279 . S
C1541 C1544 1.358 . S
C1541 H1547 0.930 . S
C1542 C1540 1.353 . S
C1542 C1545 1.348 . S
C1542 H1580 0.929 . S
N1543 Li1498 1.990 1_455 S
N1543 C1540 1.314 . S
N1543 C1541 1.279 . S
C1544 C1541 1.358 . S
C1544 C1545 1.356 . S
C1544 H1581 0.930 . S
C1545 C1542 1.348 . S
C1545 C1544 1.356 . S
H1546 C1540 0.930 . S
H1547 C1541 0.930 . S
C1548 N1549 1.314 . S
C1548 C1550 1.353 . S
C1548 H1554 0.930 . S
N1549 Li1499 1.990 . S
N1549 C1548 1.314 . S
N1549 C1552 1.279 . S
C1550 C1548 1.353 . S
C1550 C1553 1.348 . S
C1550 H1582 0.929 . S
C1551 C1552 1.358 . S
C1551 C1553 1.356 . S
C1551 H1583 0.930 . S
C1552 N1549 1.279 . S
C1552 C1551 1.358 . S
C1552 H1555 0.930 . S
C1553 C1550 1.348 . S
C1553 C1551 1.356 . S
H1554 C1548 0.930 . S
H1555 C1552 0.930 . S
O1556 Li1496 1.956 . S
O1556 Li1497 1.970 . S
O1556 Li1498 1.961 . S
O1556 C1500 1.325 . S
O1557 Li1496 1.970 . S
O1557 Li1497 1.956 . S
O1557 Li1499 1.961 . S
O1557 C1506 1.325 . S
O1558 Li1496 1.961 . S
O1558 Li1498 1.956 . S
O1558 Li1499 1.970 . S
O1558 C1528 1.325 . S
O1559 Li1497 1.961 . S
O1559 Li1498 1.970 . S
O1559 Li1499 1.956 . S
O1559 C1534 1.325 . S
H1560 C1502 0.929 . S
H1561 C1503 0.930 . S
H1562 C1504 0.930 . S
H1563 C1505 0.930 . S
H1564 C1507 0.930 . S
H1565 C1509 0.929 . S
H1566 C1510 0.930 . S
H1567 C1511 0.930 . S
H1568 C1514 0.930 . S
H1569 C1517 0.929 . S
H1570 C1522 0.929 1_455 S
H1571 C1523 0.930 . S
H1572 C1530 0.929 . S
H1573 C1531 0.930 . S
H1574 C1532 0.930 . S
H1575 C1533 0.930 . S
H1576 C1535 0.929 . S
H1577 C1536 0.930 . S
H1578 C1537 0.930 . S
H1579 C1538 0.930 . S
H1580 C1542 0.929 . S
H1581 C1544 0.930 . S
H1582 C1550 0.929 . S
H1583 C1551 0.930 . S
H1584 C1611 0.929 . S
N1585 C1610 1.433 . S
N1585 C1616 1.435 . S
N1585 C1622 1.423 . S
H1586 C1612 0.930 . S
H1587 C1615 0.931 . S
H1588 C1614 0.929 . S
H1589 C1617 0.930 . S
H1590 C1618 0.932 . S
H1591 C1621 0.929 . S
H1592 C1620 0.931 . S
H1593 C1623 0.929 . S
H1594 C1627 0.932 . S
H1595 C1624 0.931 . S
H1596 C1626 0.929 . S
H1597 C1629 0.929 . S
H1598 C1630 0.930 . S
H1599 C1632 0.929 . S
H1600 C1633 0.931 . S
H1601 C1635 0.930 . S
H1602 C1636 0.932 . S
H1603 C1638 0.931 . S
H1604 C1639 0.929 . S
H1605 C1641 0.929 . S
H1606 C1642 0.931 . S
H1607 C1644 0.929 . S
N1608 C1628 1.433 . S
N1608 C1634 1.435 . S
N1608 C1640 1.423 . S
H1609 C1645 0.932 . S
C1610 N1585 1.433 . S
C1610 C1611 1.363 . S
C1610 C1615 1.370 . S
C1611 H1584 0.929 . S
C1611 C1610 1.363 . S
C1611 C1612 1.385 . S
C1612 H1586 0.930 . S
C1612 C1611 1.385 . S
C1612 C1613 1.357 . S
C1613 C1612 1.357 . S
C1613 C1614 1.406 . S
C1614 H1588 0.929 . S
C1614 C1613 1.406 . S
C1614 C1615 1.391 . S
C1615 H1587 0.931 . S
C1615 C1610 1.370 . S
C1615 C1614 1.391 . S
C1616 N1585 1.435 . S
C1616 C1617 1.358 . S
C1616 C1621 1.371 . S
C1617 H1589 0.930 . S
C1617 C1616 1.358 . S
C1617 C1618 1.405 . S
C1618 H1590 0.932 . S
C1618 C1617 1.405 . S
C1618 C1619 1.383 . S
C1619 C1618 1.383 . S
C1619 C1620 1.393 . S
C1620 H1592 0.931 . S
C1620 C1619 1.393 . S
C1620 C1621 1.382 . S
C1621 H1591 0.929 . S
C1621 C1616 1.371 . S
C1621 C1620 1.382 . S
C1622 N1585 1.423 . S
C1622 C1623 1.362 . S
C1622 C1627 1.388 . S
C1623 H1593 0.929 . S
C1623 C1622 1.362 . S
C1623 C1624 1.376 . S
C1624 H1595 0.931 . S
C1624 C1623 1.376 . S
C1624 C1625 1.396 . S
C1625 C1624 1.396 . S
C1625 C1626 1.348 . S
C1625 C1643 1.472 . S
C1626 H1596 0.929 . S
C1626 C1625 1.348 . S
C1626 C1627 1.443 . S
C1627 H1594 0.932 . S
C1627 C1622 1.388 . S
C1627 C1626 1.443 . S
C1628 N1608 1.433 . S
C1628 C1629 1.363 . S
C1628 C1633 1.370 . S
C1629 H1597 0.929 . S
C1629 C1628 1.363 . S
C1629 C1630 1.385 . S
C1630 H1598 0.930 . S
C1630 C1629 1.385 . S
C1630 C1631 1.357 . S
C1631 C1630 1.357 . S
C1631 C1632 1.406 . S
C1632 H1599 0.929 . S
C1632 C1631 1.406 . S
C1632 C1633 1.391 . S
C1633 H1600 0.931 . S
C1633 C1628 1.370 . S
C1633 C1632 1.391 . S
C1634 N1608 1.435 . S
C1634 C1635 1.358 . S
C1634 C1639 1.371 . S
C1635 H1601 0.930 . S
C1635 C1634 1.358 . S
C1635 C1636 1.405 . S
C1636 H1602 0.932 . S
C1636 C1635 1.405 . S
C1636 C1637 1.383 . S
C1637 C1636 1.383 . S
C1637 C1638 1.393 . S
C1638 H1603 0.931 . S
C1638 C1637 1.393 . S
C1638 C1639 1.382 . S
C1639 H1604 0.929 . S
C1639 C1634 1.371 . S
C1639 C1638 1.382 . S
C1640 N1608 1.423 . S
C1640 C1641 1.362 . S
C1640 C1645 1.388 . S
C1641 H1605 0.929 . S
C1641 C1640 1.362 . S
C1641 C1642 1.376 . S
C1642 H1606 0.931 . S
C1642 C1641 1.376 . S
C1642 C1643 1.396 . S
C1643 C1625 1.472 . S
C1643 C1642 1.396 . S
C1643 C1644 1.348 . S
C1644 H1607 0.929 . S
C1644 C1643 1.348 . S
C1644 C1645 1.443 . S
C1645 H1609 0.932 . S
C1645 C1640 1.388 . S
C1645 C1644 1.443 . S
H1646 C1673 0.929 . S
N1647 C1672 1.433 . S
N1647 C1678 1.435 . S
N1647 C1684 1.423 . S
H1648 C1674 0.930 . S
H1649 C1677 0.931 . S
H1650 C1676 0.929 . S
H1651 C1679 0.930 . S
H1652 C1680 0.932 . S
H1653 C1683 0.929 . S
H1654 C1682 0.931 . S
H1655 C1685 0.929 . S
H1656 C1689 0.932 . S
H1657 C1686 0.931 . S
H1658 C1688 0.929 . S
H1659 C1691 0.929 . S
H1660 C1692 0.930 . S
H1661 C1694 0.929 . S
H1662 C1695 0.931 . S
H1663 C1697 0.930 . S
H1664 C1698 0.932 . S
H1665 C1700 0.931 . S
H1666 C1701 0.929 . S
H1667 C1703 0.929 . S
H1668 C1704 0.931 . S
H1669 C1706 0.929 . S
N1670 C1690 1.433 . S
N1670 C1696 1.435 . S
N1670 C1702 1.423 . S
H1671 C1707 0.932 . S
C1672 N1647 1.433 . S
C1672 C1673 1.363 . S
C1672 C1677 1.370 . S
C1673 H1646 0.929 . S
C1673 C1672 1.363 . S
C1673 C1674 1.385 . S
C1674 H1648 0.930 . S
C1674 C1673 1.385 . S
C1674 C1675 1.357 . S
C1675 C1674 1.357 . S
C1675 C1676 1.406 . S
C1676 H1650 0.929 . S
C1676 C1675 1.406 . S
C1676 C1677 1.391 . S
C1677 H1649 0.931 . S
C1677 C1672 1.370 . S
C1677 C1676 1.391 . S
C1678 N1647 1.435 . S
C1678 C1679 1.358 . S
C1678 C1683 1.371 . S
C1679 H1651 0.930 . S
C1679 C1678 1.358 . S
C1679 C1680 1.405 . S
C1680 H1652 0.932 . S
C1680 C1679 1.405 . S
C1680 C1681 1.383 . S
C1681 C1680 1.383 . S
C1681 C1682 1.393 . S
C1682 H1654 0.931 . S
C1682 C1681 1.393 . S
C1682 C1683 1.382 . S
C1683 H1653 0.929 . S
C1683 C1678 1.371 . S
C1683 C1682 1.382 . S
C1684 N1647 1.423 . S
C1684 C1685 1.362 . S
C1684 C1689 1.388 . S
C1685 H1655 0.929 . S
C1685 C1684 1.362 . S
C1685 C1686 1.376 . S
C1686 H1657 0.931 . S
C1686 C1685 1.376 . S
C1686 C1687 1.396 . S
C1687 C1686 1.396 . S
C1687 C1688 1.348 . S
C1687 C1705 1.472 . S
C1688 H1658 0.929 . S
C1688 C1687 1.348 . S
C1688 C1689 1.443 . S
C1689 H1656 0.932 . S
C1689 C1684 1.388 . S
C1689 C1688 1.443 . S
C1690 N1670 1.433 . S
C1690 C1691 1.363 . S
C1690 C1695 1.370 . S
C1691 H1659 0.929 . S
C1691 C1690 1.363 . S
C1691 C1692 1.385 . S
C1692 H1660 0.930 . S
C1692 C1691 1.385 . S
C1692 C1693 1.357 . S
C1693 C1692 1.357 . S
C1693 C1694 1.406 . S
C1694 H1661 0.929 . S
C1694 C1693 1.406 . S
C1694 C1695 1.391 . S
C1695 H1662 0.931 . S
C1695 C1690 1.370 . S
C1695 C1694 1.391 . S
C1696 N1670 1.435 . S
C1696 C1697 1.358 . S
C1696 C1701 1.371 . S
C1697 H1663 0.930 . S
C1697 C1696 1.358 . S
C1697 C1698 1.405 . S
C1698 H1664 0.932 . S
C1698 C1697 1.405 . S
C1698 C1699 1.383 . S
C1699 C1698 1.383 . S
C1699 C1700 1.393 . S
C1700 H1665 0.931 . S
C1700 C1699 1.393 . S
C1700 C1701 1.382 . S
C1701 H1666 0.929 . S
C1701 C1696 1.371 . S
C1701 C1700 1.382 . S
C1702 N1670 1.423 . S
C1702 C1703 1.362 . S
C1702 C1707 1.388 . S
C1703 H1667 0.929 . S
C1703 C1702 1.362 . S
C1703 C1704 1.376 . S
C1704 H1668 0.931 . S
C1704 C1703 1.376 . S
C1704 C1705 1.396 . S
C1705 C1687 1.472 . S
C1705 C1704 1.396 . S
C1705 C1706 1.348 . S
C1706 H1669 0.929 . S
C1706 C1705 1.348 . S
C1706 C1707 1.443 . S
C1707 H1671 0.932 . S
C1707 C1702 1.388 . S
C1707 C1706 1.443 . S
H1708 C1735 0.929 . S
N1709 C1734 1.433 . S
N1709 C1740 1.435 . S
N1709 C1746 1.423 . S
H1710 C1736 0.930 . S
H1711 C1739 0.931 . S
H1712 C1738 0.929 . S
H1713 C1741 0.930 . S
H1714 C1742 0.932 . S
H1715 C1745 0.929 . S
H1716 C1744 0.931 . S
H1717 C1747 0.929 . S
H1718 C1751 0.932 . S
H1719 C1748 0.931 . S
H1720 C1750 0.929 . S
H1721 C1753 0.929 . S
H1722 C1754 0.930 . S
H1723 C1756 0.929 . S
H1724 C1757 0.931 . S
H1725 C1759 0.930 . S
H1726 C1760 0.932 . S
H1727 C1762 0.931 . S
H1728 C1763 0.929 . S
H1729 C1765 0.929 . S
H1730 C1766 0.931 . S
H1731 C1768 0.929 . S
N1732 C1752 1.433 . S
N1732 C1758 1.435 . S
N1732 C1764 1.423 . S
H1733 C1769 0.932 . S
C1734 N1709 1.433 . S
C1734 C1735 1.363 . S
C1734 C1739 1.370 . S
C1735 H1708 0.929 . S
C1735 C1734 1.363 . S
C1735 C1736 1.385 . S
C1736 H1710 0.930 . S
C1736 C1735 1.385 . S
C1736 C1737 1.357 . S
C1737 C1736 1.357 . S
C1737 C1738 1.406 . S
C1738 H1712 0.929 . S
C1738 C1737 1.406 . S
C1738 C1739 1.391 . S
C1739 H1711 0.931 . S
C1739 C1734 1.370 . S
C1739 C1738 1.391 . S
C1740 N1709 1.435 . S
C1740 C1741 1.358 . S
C1740 C1745 1.371 . S
C1741 H1713 0.930 . S
C1741 C1740 1.358 . S
C1741 C1742 1.405 . S
C1742 H1714 0.932 . S
C1742 C1741 1.405 . S
C1742 C1743 1.383 . S
C1743 C1742 1.383 . S
C1743 C1744 1.393 . S
C1744 H1716 0.931 . S
C1744 C1743 1.393 . S
C1744 C1745 1.382 . S
C1745 H1715 0.929 . S
C1745 C1740 1.371 . S
C1745 C1744 1.382 . S
C1746 N1709 1.423 . S
C1746 C1747 1.362 . S
C1746 C1751 1.388 . S
C1747 H1717 0.929 . S
C1747 C1746 1.362 . S
C1747 C1748 1.376 . S
C1748 H1719 0.931 . S
C1748 C1747 1.376 . S
C1748 C1749 1.396 . S
C1749 C1748 1.396 . S
C1749 C1750 1.348 . S
C1749 C1767 1.472 . S
C1750 H1720 0.929 . S
C1750 C1749 1.348 . S
C1750 C1751 1.443 . S
C1751 H1718 0.932 . S
C1751 C1746 1.388 . S
C1751 C1750 1.443 . S
C1752 N1732 1.433 . S
C1752 C1753 1.363 . S
C1752 C1757 1.370 . S
C1753 H1721 0.929 . S
C1753 C1752 1.363 . S
C1753 C1754 1.385 . S
C1754 H1722 0.930 . S
C1754 C1753 1.385 . S
C1754 C1755 1.357 . S
C1755 C1754 1.357 . S
C1755 C1756 1.406 . S
C1756 H1723 0.929 . S
C1756 C1755 1.406 . S
C1756 C1757 1.391 . S
C1757 H1724 0.931 . S
C1757 C1752 1.370 . S
C1757 C1756 1.391 . S
C1758 N1732 1.435 . S
C1758 C1759 1.358 . S
C1758 C1763 1.371 . S
C1759 H1725 0.930 . S
C1759 C1758 1.358 . S
C1759 C1760 1.405 . S
C1760 H1726 0.932 . S
C1760 C1759 1.405 . S
C1760 C1761 1.383 . S
C1761 C1760 1.383 . S
C1761 C1762 1.393 . S
C1762 H1727 0.931 . S
C1762 C1761 1.393 . S
C1762 C1763 1.382 . S
C1763 H1728 0.929 . S
C1763 C1758 1.371 . S
C1763 C1762 1.382 . S
C1764 N1732 1.423 . S
C1764 C1765 1.362 . S
C1764 C1769 1.388 . S
C1765 H1729 0.929 . S
C1765 C1764 1.362 . S
C1765 C1766 1.376 . S
C1766 H1730 0.931 . S
C1766 C1765 1.376 . S
C1766 C1767 1.396 . S
C1767 C1749 1.472 . S
C1767 C1766 1.396 . S
C1767 C1768 1.348 . S
C1768 H1731 0.929 . S
C1768 C1767 1.348 . S
C1768 C1769 1.443 . S
C1769 H1733 0.932 . S
C1769 C1764 1.388 . S
C1769 C1768 1.443 . S
H1770 C1797 0.929 . S
N1771 C1796 1.433 . S
N1771 C1802 1.435 . S
N1771 C1808 1.423 . S
H1772 C1798 0.930 . S
H1773 C1801 0.931 . S
H1774 C1800 0.929 . S
H1775 C1803 0.930 . S
H1776 C1804 0.932 . S
H1777 C1807 0.929 . S
H1778 C1806 0.931 . S
H1779 C1809 0.929 . S
H1780 C1813 0.932 . S
H1781 C1810 0.931 . S
H1782 C1812 0.929 . S
H1783 C1815 0.929 . S
H1784 C1816 0.930 . S
H1785 C1818 0.929 . S
H1786 C1819 0.931 . S
H1787 C1821 0.930 . S
H1788 C1822 0.932 . S
H1789 C1824 0.931 . S
H1790 C1825 0.929 . S
H1791 C1827 0.929 . S
H1792 C1828 0.931 . S
H1793 C1830 0.929 . S
N1794 C1814 1.433 . S
N1794 C1820 1.435 . S
N1794 C1826 1.423 . S
H1795 C1831 0.932 . S
C1796 N1771 1.433 . S
C1796 C1797 1.363 . S
C1796 C1801 1.370 . S
C1797 H1770 0.929 . S
C1797 C1796 1.363 . S
C1797 C1798 1.385 . S
C1798 H1772 0.930 . S
C1798 C1797 1.385 . S
C1798 C1799 1.357 . S
C1799 C1798 1.357 . S
C1799 C1800 1.406 . S
C1800 H1774 0.929 . S
C1800 C1799 1.406 . S
C1800 C1801 1.391 . S
C1801 H1773 0.931 . S
C1801 C1796 1.370 . S
C1801 C1800 1.391 . S
C1802 N1771 1.435 . S
C1802 C1803 1.358 . S
C1802 C1807 1.371 . S
C1803 H1775 0.930 . S
C1803 C1802 1.358 . S
C1803 C1804 1.405 . S
C1804 H1776 0.932 . S
C1804 C1803 1.405 . S
C1804 C1805 1.383 . S
C1805 C1804 1.383 . S
C1805 C1806 1.393 . S
C1806 H1778 0.931 . S
C1806 C1805 1.393 . S
C1806 C1807 1.382 . S
C1807 H1777 0.929 . S
C1807 C1802 1.371 . S
C1807 C1806 1.382 . S
C1808 N1771 1.423 . S
C1808 C1809 1.362 . S
C1808 C1813 1.388 . S
C1809 H1779 0.929 . S
C1809 C1808 1.362 . S
C1809 C1810 1.376 . S
C1810 H1781 0.931 . S
C1810 C1809 1.376 . S
C1810 C1811 1.396 . S
C1811 C1810 1.396 . S
C1811 C1812 1.348 . S
C1811 C1829 1.472 . S
C1812 H1782 0.929 . S
C1812 C1811 1.348 . S
C1812 C1813 1.443 . S
C1813 H1780 0.932 . S
C1813 C1808 1.388 . S
C1813 C1812 1.443 . S
C1814 N1794 1.433 . S
C1814 C1815 1.363 . S
C1814 C1819 1.370 . S
C1815 H1783 0.929 . S
C1815 C1814 1.363 . S
C1815 C1816 1.385 . S
C1816 H1784 0.930 . S
C1816 C1815 1.385 . S
C1816 C1817 1.357 . S
C1817 C1816 1.357 . S
C1817 C1818 1.406 . S
C1818 H1785 0.929 . S
C1818 C1817 1.406 . S
C1818 C1819 1.391 . S
C1819 H1786 0.931 . S
C1819 C1814 1.370 . S
C1819 C1818 1.391 . S
C1820 N1794 1.435 . S
C1820 C1821 1.358 . S
C1820 C1825 1.371 . S
C1821 H1787 0.930 . S
C1821 C1820 1.358 . S
C1821 C1822 1.405 . S
C1822 H1788 0.932 . S
C1822 C1821 1.405 . S
C1822 C1823 1.383 . S
C1823 C1822 1.383 . S
C1823 C1824 1.393 . S
C1824 H1789 0.931 . S
C1824 C1823 1.393 . S
C1824 C1825 1.382 . S
C1825 H1790 0.929 . S
C1825 C1820 1.371 . S
C1825 C1824 1.382 . S
C1826 N1794 1.423 . S
C1826 C1827 1.362 . S
C1826 C1831 1.388 . S
C1827 H1791 0.929 . S
C1827 C1826 1.362 . S
C1827 C1828 1.376 . S
C1828 H1792 0.931 . S
C1828 C1827 1.376 . S
C1828 C1829 1.396 . S
C1829 C1811 1.472 . S
C1829 C1828 1.396 . S
C1829 C1830 1.348 . S
C1830 H1793 0.929 . S
C1830 C1829 1.348 . S
C1830 C1831 1.443 . S
C1831 H1795 0.932 . S
C1831 C1826 1.388 . S
C1831 C1830 1.443 . S
H1832 C1859 0.929 . S
N1833 C1858 1.433 . S
N1833 C1864 1.435 . S
N1833 C1870 1.423 . S
H1834 C1860 0.930 . S
H1835 C1863 0.931 . S
H1836 C1862 0.929 . S
H1837 C1865 0.930 . S
H1838 C1866 0.932 . S
H1839 C1869 0.929 . S
H1840 C1868 0.931 . S
H1841 C1871 0.929 . S
H1842 C1875 0.932 . S
H1843 C1872 0.931 . S
H1844 C1874 0.929 . S
H1845 C1877 0.929 . S
H1846 C1878 0.930 . S
H1847 C1880 0.929 . S
H1848 C1881 0.931 . S
H1849 C1883 0.930 . S
H1850 C1884 0.932 . S
H1851 C1886 0.931 . S
H1852 C1887 0.929 . S
H1853 C1889 0.929 . S
H1854 C1890 0.931 . S
H1855 C1892 0.929 . S
N1856 C1876 1.433 . S
N1856 C1882 1.435 . S
N1856 C1888 1.423 . S
H1857 C1893 0.932 . S
C1858 N1833 1.433 . S
C1858 C1859 1.363 . S
C1858 C1863 1.370 . S
C1859 H1832 0.929 . S
C1859 C1858 1.363 . S
C1859 C1860 1.385 . S
C1860 H1834 0.930 . S
C1860 C1859 1.385 . S
C1860 C1861 1.357 . S
C1861 C1860 1.357 . S
C1861 C1862 1.406 . S
C1862 H1836 0.929 . S
C1862 C1861 1.406 . S
C1862 C1863 1.391 . S
C1863 H1835 0.931 . S
C1863 C1858 1.370 . S
C1863 C1862 1.391 . S
C1864 N1833 1.435 . S
C1864 C1865 1.358 . S
C1864 C1869 1.371 . S
C1865 H1837 0.930 . S
C1865 C1864 1.358 . S
C1865 C1866 1.405 . S
C1866 H1838 0.932 . S
C1866 C1865 1.405 . S
C1866 C1867 1.383 . S
C1867 C1866 1.383 . S
C1867 C1868 1.393 . S
C1868 H1840 0.931 . S
C1868 C1867 1.393 . S
C1868 C1869 1.382 . S
C1869 H1839 0.929 . S
C1869 C1864 1.371 . S
C1869 C1868 1.382 . S
C1870 N1833 1.423 . S
C1870 C1871 1.362 . S
C1870 C1875 1.388 . S
C1871 H1841 0.929 . S
C1871 C1870 1.362 . S
C1871 C1872 1.376 . S
C1872 H1843 0.931 . S
C1872 C1871 1.376 . S
C1872 C1873 1.396 . S
C1873 C1872 1.396 . S
C1873 C1874 1.348 . S
C1873 C1891 1.472 . S
C1874 H1844 0.929 . S
C1874 C1873 1.348 . S
C1874 C1875 1.443 . S
C1875 H1842 0.932 . S
C1875 C1870 1.388 . S
C1875 C1874 1.443 . S
C1876 N1856 1.433 . S
C1876 C1877 1.363 . S
C1876 C1881 1.370 . S
C1877 H1845 0.929 . S
C1877 C1876 1.363 . S
C1877 C1878 1.385 . S
C1878 H1846 0.930 . S
C1878 C1877 1.385 . S
C1878 C1879 1.357 . S
C1879 C1878 1.357 . S
C1879 C1880 1.406 . S
C1880 H1847 0.929 . S
C1880 C1879 1.406 . S
C1880 C1881 1.391 . S
C1881 H1848 0.931 . S
C1881 C1876 1.370 . S
C1881 C1880 1.391 . S
C1882 N1856 1.435 . S
C1882 C1883 1.358 . S
C1882 C1887 1.371 . S
C1883 H1849 0.930 . S
C1883 C1882 1.358 . S
C1883 C1884 1.405 . S
C1884 H1850 0.932 . S
C1884 C1883 1.405 . S
C1884 C1885 1.383 . S
C1885 C1884 1.383 . S
C1885 C1886 1.393 . S
C1886 H1851 0.931 . S
C1886 C1885 1.393 . S
C1886 C1887 1.382 . S
C1887 H1852 0.929 . S
C1887 C1882 1.371 . S
C1887 C1886 1.382 . S
C1888 N1856 1.423 . S
C1888 C1889 1.362 . S
C1888 C1893 1.388 . S
C1889 H1853 0.929 . S
C1889 C1888 1.362 . S
C1889 C1890 1.376 . S
C1890 H1854 0.931 . S
C1890 C1889 1.376 . S
C1890 C1891 1.396 . S
C1891 C1873 1.472 . S
C1891 C1890 1.396 . S
C1891 C1892 1.348 . S
C1892 H1855 0.929 . S
C1892 C1891 1.348 . S
C1892 C1893 1.443 . S
C1893 H1857 0.932 . S
C1893 C1888 1.388 . S
C1893 C1892 1.443 . S
H1894 C1921 0.929 . S
N1895 C1920 1.433 . S
N1895 C1926 1.435 . S
N1895 C1932 1.423 . S
H1896 C1922 0.930 . S
H1897 C1925 0.931 . S
H1898 C1924 0.929 . S
H1899 C1927 0.930 . S
H1900 C1928 0.932 . S
H1901 C1931 0.929 . S
H1902 C1930 0.942 . S
H1903 C1933 0.929 . S
H1904 C1937 0.932 . S
H1905 C1934 0.931 . S
H1906 C1936 0.929 . S
H1907 C1939 0.929 . S
H1908 C1940 0.930 . S
H1909 C1942 0.929 . S
H1910 C1943 0.931 . S
H1911 C1945 0.930 . S
H1912 C1946 0.932 . S
H1913 C1948 0.948 . S
H1914 C1949 0.929 . S
H1915 C1951 0.929 . S
H1916 C1952 0.931 . S
H1917 C1954 0.929 . S
N1918 C1938 1.433 . S
N1918 C1944 1.435 . S
N1918 C1950 1.423 . S
H1919 C1955 0.932 . S
C1920 N1895 1.433 . S
C1920 C1921 1.363 . S
C1920 C1925 1.370 . S
C1921 H1894 0.929 . S
C1921 C1920 1.363 . S
C1921 C1922 1.385 . S
C1922 H1896 0.930 . S
C1922 C1921 1.385 . S
C1922 C1923 1.357 . S
C1923 C1922 1.357 . S
C1923 C1924 1.406 . S
C1924 H1898 0.929 . S
C1924 C1923 1.406 . S
C1924 C1925 1.391 . S
C1925 H1897 0.931 . S
C1925 C1920 1.370 . S
C1925 C1924 1.391 . S
C1926 N1895 1.435 . S
C1926 C1927 1.358 . S
C1926 C1931 1.371 . S
C1927 H1899 0.930 . S
C1927 C1926 1.358 . S
C1927 C1928 1.405 . S
C1928 H1900 0.932 . S
C1928 C1927 1.405 . S
C1928 C1929 1.383 . S
C1929 C1928 1.383 . S
C1929 C1930 1.393 . S
C1930 H1902 0.942 . S
C1930 C1929 1.393 . S
C1930 C1931 1.382 . S
C1931 H1901 0.929 . S
C1931 C1926 1.371 . S
C1931 C1930 1.382 . S
C1932 N1895 1.423 . S
C1932 C1933 1.362 . S
C1932 C1937 1.388 . S
C1933 H1903 0.929 . S
C1933 C1932 1.362 . S
C1933 C1934 1.376 . S
C1934 H1905 0.931 . S
C1934 C1933 1.376 . S
C1934 C1935 1.396 . S
C1935 C1934 1.396 . S
C1935 C1936 1.348 . S
C1935 C1953 1.472 . S
C1936 H1906 0.929 . S
C1936 C1935 1.348 . S
C1936 C1937 1.443 . S
C1937 H1904 0.932 . S
C1937 C1932 1.388 . S
C1937 C1936 1.443 . S
C1938 N1918 1.433 . S
C1938 C1939 1.363 . S
C1938 C1943 1.370 . S
C1939 H1907 0.929 . S
C1939 C1938 1.363 . S
C1939 C1940 1.385 . S
C1940 H1908 0.930 . S
C1940 C1939 1.385 . S
C1940 C1941 1.357 . S
C1941 C1940 1.357 . S
C1941 C1942 1.406 . S
C1942 H1909 0.929 . S
C1942 C1941 1.406 . S
C1942 C1943 1.391 . S
C1943 H1910 0.931 . S
C1943 C1938 1.370 . S
C1943 C1942 1.391 . S
C1944 N1918 1.435 . S
C1944 C1945 1.358 . S
C1944 C1949 1.371 . S
C1945 H1911 0.930 . S
C1945 C1944 1.358 . S
C1945 C1946 1.405 . S
C1946 H1912 0.932 . S
C1946 C1945 1.405 . S
C1946 C1947 1.383 . S
C1947 C1946 1.383 . S
C1947 C1948 1.393 . S
C1948 H1913 0.948 . S
C1948 C1947 1.393 . S
C1948 C1949 1.382 . S
C1949 H1914 0.929 . S
C1949 C1944 1.371 . S
C1949 C1948 1.382 . S
C1950 N1918 1.423 . S
C1950 C1951 1.362 . S
C1950 C1955 1.388 . S
C1951 H1915 0.929 . S
C1951 C1950 1.362 . S
C1951 C1952 1.376 . S
C1952 H1916 0.931 . S
C1952 C1951 1.376 . S
C1952 C1953 1.396 . S
C1953 C1935 1.472 . S
C1953 C1952 1.396 . S
C1953 C1954 1.348 . S
C1954 H1917 0.929 . S
C1954 C1953 1.348 . S
C1954 C1955 1.443 . S
C1955 H1919 0.932 . S
C1955 C1950 1.388 . S
C1955 C1954 1.443 . S
H1956 C1983 0.929 . S
N1957 C1982 1.433 . S
N1957 C1988 1.435 . S
N1957 C1994 1.423 . S
H1958 C1984 0.930 . S
H1959 C1987 0.931 . S
H1960 C1986 0.929 . S
H1961 C1989 0.930 . S
H1962 C1990 0.932 . S
H1963 C1993 0.929 . S
H1964 C1992 0.931 . S
H1965 C1995 0.929 . S
H1966 C1999 0.932 . S
H1967 C1996 0.931 . S
H1968 C1998 0.929 . S
H1969 C2001 0.929 . S
H1970 C2002 0.930 . S
H1971 C2004 0.929 . S
H1972 C2005 0.931 . S
H1973 C2007 0.930 . S
H1974 C2008 0.932 . S
H1975 C2010 0.931 . S
H1976 C2011 0.929 . S
H1977 C2013 0.929 . S
H1978 C2014 0.931 . S
H1979 C2016 0.929 . S
N1980 C2000 1.433 . S
N1980 C2006 1.435 . S
N1980 C2012 1.423 . S
H1981 C2017 0.932 . S
C1982 N1957 1.433 . S
C1982 C1983 1.363 . S
C1982 C1987 1.370 . S
C1983 H1956 0.929 . S
C1983 C1982 1.363 . S
C1983 C1984 1.385 . S
C1984 H1958 0.930 . S
C1984 C1983 1.385 . S
C1984 C1985 1.357 . S
C1985 C1984 1.357 . S
C1985 C1986 1.406 . S
C1986 H1960 0.929 . S
C1986 C1985 1.406 . S
C1986 C1987 1.391 . S
C1987 H1959 0.931 . S
C1987 C1982 1.370 . S
C1987 C1986 1.391 . S
C1988 N1957 1.435 . S
C1988 C1989 1.358 . S
C1988 C1993 1.371 . S
C1989 H1961 0.930 . S
C1989 C1988 1.358 . S
C1989 C1990 1.405 . S
C1990 H1962 0.932 . S
C1990 C1989 1.405 . S
C1990 C1991 1.383 . S
C1991 C1990 1.383 . S
C1991 C1992 1.393 . S
C1992 H1964 0.931 . S
C1992 C1991 1.393 . S
C1992 C1993 1.382 . S
C1993 H1963 0.929 . S
C1993 C1988 1.371 . S
C1993 C1992 1.382 . S
C1994 N1957 1.423 . S
C1994 C1995 1.362 . S
C1994 C1999 1.388 . S
C1995 H1965 0.929 . S
C1995 C1994 1.362 . S
C1995 C1996 1.376 . S
C1996 H1967 0.931 . S
C1996 C1995 1.376 . S
C1996 C1997 1.396 . S
C1997 C1996 1.396 . S
C1997 C1998 1.348 . S
C1997 C2015 1.472 . S
C1998 H1968 0.929 . S
C1998 C1997 1.348 . S
C1998 C1999 1.443 . S
C1999 H1966 0.932 . S
C1999 C1994 1.388 . S
C1999 C1998 1.443 . S
C2000 N1980 1.433 . S
C2000 C2001 1.363 . S
C2000 C2005 1.370 . S
C2001 H1969 0.929 . S
C2001 C2000 1.363 . S
C2001 C2002 1.385 . S
C2002 H1970 0.930 . S
C2002 C2001 1.385 . S
C2002 C2003 1.357 . S
C2003 C2002 1.357 . S
C2003 C2004 1.406 . S
C2004 H1971 0.929 . S
C2004 C2003 1.406 . S
C2004 C2005 1.391 . S
C2005 H1972 0.931 . S
C2005 C2000 1.370 . S
C2005 C2004 1.391 . S
C2006 N1980 1.435 . S
C2006 C2007 1.358 . S
C2006 C2011 1.371 . S
C2007 H1973 0.930 . S
C2007 C2006 1.358 . S
C2007 C2008 1.405 . S
C2008 H1974 0.932 . S
C2008 C2007 1.405 . S
C2008 C2009 1.383 . S
C2009 C2008 1.383 . S
C2009 C2010 1.393 . S
C2010 H1975 0.931 . S
C2010 C2009 1.393 . S
C2010 C2011 1.382 . S
C2011 H1976 0.929 . S
C2011 C2006 1.371 . S
C2011 C2010 1.382 . S
C2012 N1980 1.423 . S
C2012 C2013 1.362 . S
C2012 C2017 1.388 . S
C2013 H1977 0.929 . S
C2013 C2012 1.362 . S
C2013 C2014 1.376 . S
C2014 H1978 0.931 . S
C2014 C2013 1.376 . S
C2014 C2015 1.396 . S
C2015 C1997 1.472 . S
C2015 C2014 1.396 . S
C2015 C2016 1.348 . S
C2016 H1979 0.929 . S
C2016 C2015 1.348 . S
C2016 C2017 1.443 . S
C2017 H1981 0.932 . S
C2017 C2012 1.388 . S
C2017 C2016 1.443 . S
H2018 C2045 0.929 . S
N2019 C2044 1.433 . S
N2019 C2050 1.435 . S
N2019 C2056 1.423 . S
H2020 C2046 0.930 . S
H2021 C2049 0.931 . S
H2022 C2048 0.929 . S
H2023 C2051 0.930 . S
H2024 C2052 0.932 . S
H2025 C2055 0.929 . S
H2026 C2054 0.931 . S
H2027 C2057 0.929 . S
H2028 C2061 0.932 . S
H2029 C2058 0.931 . S
H2030 C2060 0.929 . S
H2031 C2063 0.929 . S
H2032 C2064 0.930 . S
H2033 C2066 0.929 . S
H2034 C2067 0.931 . S
H2035 C2069 0.930 . S
H2036 C2070 0.932 . S
H2037 C2072 0.931 . S
H2038 C2073 0.929 . S
H2039 C2075 0.929 . S
H2040 C2076 0.931 . S
H2041 C2078 0.929 . S
N2042 C2062 1.433 . S
N2042 C2068 1.435 . S
N2042 C2074 1.423 . S
H2043 C2079 0.932 . S
C2044 N2019 1.433 . S
C2044 C2045 1.363 . S
C2044 C2049 1.370 . S
C2045 H2018 0.929 . S
C2045 C2044 1.363 . S
C2045 C2046 1.385 . S
C2046 H2020 0.930 . S
C2046 C2045 1.385 . S
C2046 C2047 1.357 . S
C2047 C2046 1.357 . S
C2047 C2048 1.406 . S
C2048 H2022 0.929 . S
C2048 C2047 1.406 . S
C2048 C2049 1.391 . S
C2049 H2021 0.931 . S
C2049 C2044 1.370 . S
C2049 C2048 1.391 . S
C2050 N2019 1.435 . S
C2050 C2051 1.358 . S
C2050 C2055 1.371 . S
C2051 H2023 0.930 . S
C2051 C2050 1.358 . S
C2051 C2052 1.405 . S
C2052 H2024 0.932 . S
C2052 C2051 1.405 . S
C2052 C2053 1.383 . S
C2053 C2052 1.383 . S
C2053 C2054 1.393 . S
C2054 H2026 0.931 . S
C2054 C2053 1.393 . S
C2054 C2055 1.382 . S
C2055 H2025 0.929 . S
C2055 C2050 1.371 . S
C2055 C2054 1.382 . S
C2056 N2019 1.423 . S
C2056 C2057 1.362 . S
C2056 C2061 1.388 . S
C2057 H2027 0.929 . S
C2057 C2056 1.362 . S
C2057 C2058 1.376 . S
C2058 H2029 0.931 . S
C2058 C2057 1.376 . S
C2058 C2059 1.396 . S
C2059 C2058 1.396 . S
C2059 C2060 1.348 . S
C2059 C2077 1.472 . S
C2060 H2030 0.929 . S
C2060 C2059 1.348 . S
C2060 C2061 1.443 . S
C2061 H2028 0.932 . S
C2061 C2056 1.388 . S
C2061 C2060 1.443 . S
C2062 N2042 1.433 . S
C2062 C2063 1.363 . S
C2062 C2067 1.370 . S
C2063 H2031 0.929 . S
C2063 C2062 1.363 . S
C2063 C2064 1.385 . S
C2064 H2032 0.930 . S
C2064 C2063 1.385 . S
C2064 C2065 1.357 . S
C2065 C2064 1.357 . S
C2065 C2066 1.406 . S
C2066 H2033 0.929 . S
C2066 C2065 1.406 . S
C2066 C2067 1.391 . S
C2067 H2034 0.931 . S
C2067 C2062 1.370 . S
C2067 C2066 1.391 . S
C2068 N2042 1.435 . S
C2068 C2069 1.358 . S
C2068 C2073 1.371 . S
C2069 H2035 0.930 . S
C2069 C2068 1.358 . S
C2069 C2070 1.405 . S
C2070 H2036 0.932 . S
C2070 C2069 1.405 . S
C2070 C2071 1.383 . S
C2071 C2070 1.383 . S
C2071 C2072 1.393 . S
C2072 H2037 0.931 . S
C2072 C2071 1.393 . S
C2072 C2073 1.382 . S
C2073 H2038 0.929 . S
C2073 C2068 1.371 . S
C2073 C2072 1.382 . S
C2074 N2042 1.423 . S
C2074 C2075 1.362 . S
C2074 C2079 1.388 . S
C2075 H2039 0.929 . S
C2075 C2074 1.362 . S
C2075 C2076 1.376 . S
C2076 H2040 0.931 . S
C2076 C2075 1.376 . S
C2076 C2077 1.396 . S
C2077 C2059 1.472 . S
C2077 C2076 1.396 . S
C2077 C2078 1.348 . S
C2078 H2041 0.929 . S
C2078 C2077 1.348 . S
C2078 C2079 1.443 . S
C2079 H2043 0.932 . S
C2079 C2074 1.388 . S
C2079 C2078 1.443 . S
H2080 C2107 0.929 . S
N2081 C2106 1.433 . S
N2081 C2112 1.435 . S
N2081 C2118 1.423 . S
H2082 C2108 0.930 . S
H2083 C2111 0.931 . S
H2084 C2110 0.929 . S
H2085 C2113 0.930 . S
H2086 C2114 0.932 . S
H2087 C2117 0.929 . S
H2088 C2116 0.931 . S
H2089 C2119 0.929 . S
H2090 C2123 0.932 . S
H2091 C2120 0.931 . S
H2092 C2122 0.929 . S
H2093 C2125 0.929 . S
H2094 C2126 0.930 . S
H2095 C2128 0.929 . S
H2096 C2129 0.931 . S
H2097 C2131 0.930 . S
H2098 C2132 0.932 . S
H2099 C2134 0.931 . S
H2100 C2135 0.929 . S
H2101 C2137 0.929 . S
H2102 C2138 0.931 . S
H2103 C2140 0.929 . S
N2104 C2124 1.433 . S
N2104 C2130 1.435 . S
N2104 C2136 1.423 . S
H2105 C2141 0.932 . S
C2106 N2081 1.433 . S
C2106 C2107 1.363 . S
C2106 C2111 1.370 . S
C2107 H2080 0.929 . S
C2107 C2106 1.363 . S
C2107 C2108 1.385 . S
C2108 H2082 0.930 . S
C2108 C2107 1.385 . S
C2108 C2109 1.357 . S
C2109 C2108 1.357 . S
C2109 C2110 1.406 . S
C2110 H2084 0.929 . S
C2110 C2109 1.406 . S
C2110 C2111 1.391 . S
C2111 H2083 0.931 . S
C2111 C2106 1.370 . S
C2111 C2110 1.391 . S
C2112 N2081 1.435 . S
C2112 C2113 1.358 . S
C2112 C2117 1.371 . S
C2113 H2085 0.930 . S
C2113 C2112 1.358 . S
C2113 C2114 1.405 . S
C2114 H2086 0.932 . S
C2114 C2113 1.405 . S
C2114 C2115 1.383 . S
C2115 C2114 1.383 . S
C2115 C2116 1.393 . S
C2116 H2088 0.931 . S
C2116 C2115 1.393 . S
C2116 C2117 1.382 . S
C2117 H2087 0.929 . S
C2117 C2112 1.371 . S
C2117 C2116 1.382 . S
C2118 N2081 1.423 . S
C2118 C2119 1.362 . S
C2118 C2123 1.388 . S
C2119 H2089 0.929 . S
C2119 C2118 1.362 . S
C2119 C2120 1.376 . S
C2120 H2091 0.931 . S
C2120 C2119 1.376 . S
C2120 C2121 1.396 . S
C2121 C2120 1.396 . S
C2121 C2122 1.348 . S
C2121 C2139 1.472 . S
C2122 H2092 0.929 . S
C2122 C2121 1.348 . S
C2122 C2123 1.443 . S
C2123 H2090 0.932 . S
C2123 C2118 1.388 . S
C2123 C2122 1.443 . S
C2124 N2104 1.433 . S
C2124 C2125 1.363 . S
C2124 C2129 1.370 . S
C2125 H2093 0.929 . S
C2125 C2124 1.363 . S
C2125 C2126 1.385 . S
C2126 H2094 0.930 . S
C2126 C2125 1.385 . S
C2126 C2127 1.357 . S
C2127 C2126 1.357 . S
C2127 C2128 1.406 . S
C2128 H2095 0.929 . S
C2128 C2127 1.406 . S
C2128 C2129 1.391 . S
C2129 H2096 0.931 . S
C2129 C2124 1.370 . S
C2129 C2128 1.391 . S
C2130 N2104 1.435 . S
C2130 C2131 1.358 . S
C2130 C2135 1.371 . S
C2131 H2097 0.930 . S
C2131 C2130 1.358 . S
C2131 C2132 1.405 . S
C2132 H2098 0.932 . S
C2132 C2131 1.405 . S
C2132 C2133 1.383 . S
C2133 C2132 1.383 . S
C2133 C2134 1.393 . S
C2134 H2099 0.931 . S
C2134 C2133 1.393 . S
C2134 C2135 1.382 . S
C2135 H2100 0.929 . S
C2135 C2130 1.371 . S
C2135 C2134 1.382 . S
C2136 N2104 1.423 . S
C2136 C2137 1.362 . S
C2136 C2141 1.388 . S
C2137 H2101 0.929 . S
C2137 C2136 1.362 . S
C2137 C2138 1.376 . S
C2138 H2102 0.931 . S
C2138 C2137 1.376 . S
C2138 C2139 1.396 . S
C2139 C2121 1.472 . S
C2139 C2138 1.396 . S
C2139 C2140 1.348 . S
C2140 H2103 0.929 . S
C2140 C2139 1.348 . S
C2140 C2141 1.443 . S
C2141 H2105 0.932 . S
C2141 C2136 1.388 . S
C2141 C2140 1.443 . S
H2142 C2169 0.929 . S
N2143 C2168 1.433 . S
N2143 C2174 1.435 . S
N2143 C2180 1.423 . S
H2144 C2170 0.930 . S
H2145 C2173 0.931 . S
H2146 C2172 0.929 . S
H2147 C2175 0.930 . S
H2148 C2176 0.932 . S
H2149 C2179 0.929 . S
H2150 C2178 0.931 . S
H2151 C2181 0.929 . S
H2152 C2185 0.932 1_655 S
H2153 C2182 0.931 . S
H2154 C2184 0.929 . S
H2155 C2187 0.929 . S
H2156 C2188 0.930 . S
H2157 C2190 0.929 . S
H2158 C2191 0.931 . S
H2159 C2193 0.930 . S
H2160 C2194 0.932 . S
H2161 C2196 0.931 . S
H2162 C2197 0.929 . S
H2163 C2199 0.929 . S
H2164 C2200 0.931 . S
H2165 C2202 0.929 . S
N2166 C2186 1.433 . S
N2166 C2192 1.435 . S
N2166 C2198 1.423 . S
H2167 C2203 0.932 1_655 S
C2168 N2143 1.433 . S
C2168 C2169 1.363 . S
C2168 C2173 1.370 1_455 S
C2169 H2142 0.929 . S
C2169 C2168 1.363 . S
C2169 C2170 1.385 . S
C2170 H2144 0.930 . S
C2170 C2169 1.385 . S
C2170 C2171 1.357 1_455 S
C2171 C2170 1.357 1_655 S
C2171 C2172 1.406 . S
C2172 H2146 0.929 . S
C2172 C2171 1.406 . S
C2172 C2173 1.391 . S
C2173 H2145 0.931 . S
C2173 C2168 1.370 1_655 S
C2173 C2172 1.391 . S
C2174 N2143 1.435 . S
C2174 C2175 1.358 1_455 S
C2174 C2179 1.371 . S
C2175 H2147 0.930 . S
C2175 C2174 1.358 1_655 S
C2175 C2176 1.405 . S
C2176 H2148 0.932 . S
C2176 C2175 1.405 . S
C2176 C2177 1.383 1_655 S
C2177 C2176 1.383 1_455 S
C2177 C2178 1.393 . S
C2178 H2150 0.931 . S
C2178 C2177 1.393 . S
C2178 C2179 1.382 . S
C2179 H2149 0.929 . S
C2179 C2174 1.371 . S
C2179 C2178 1.382 . S
C2180 N2143 1.423 . S
C2180 C2181 1.362 . S
C2180 C2185 1.388 . S
C2181 H2151 0.929 . S
C2181 C2180 1.362 . S
C2181 C2182 1.376 . S
C2182 H2153 0.931 . S
C2182 C2181 1.376 . S
C2182 C2183 1.396 . S
C2183 C2182 1.396 . S
C2183 C2184 1.348 . S
C2183 C2201 1.472 . S
C2184 H2154 0.929 . S
C2184 C2183 1.348 . S
C2184 C2185 1.443 . S
C2185 H2152 0.932 1_455 S
C2185 C2180 1.388 . S
C2185 C2184 1.443 . S
C2186 N2166 1.433 . S
C2186 C2187 1.363 . S
C2186 C2191 1.370 1_455 S
C2187 H2155 0.929 . S
C2187 C2186 1.363 . S
C2187 C2188 1.385 . S
C2188 H2156 0.930 . S
C2188 C2187 1.385 . S
C2188 C2189 1.357 1_455 S
C2189 C2188 1.357 1_655 S
C2189 C2190 1.406 . S
C2190 H2157 0.929 . S
C2190 C2189 1.406 . S
C2190 C2191 1.391 . S
C2191 H2158 0.931 . S
C2191 C2186 1.370 1_655 S
C2191 C2190 1.391 . S
C2192 N2166 1.435 . S
C2192 C2193 1.358 1_455 S
C2192 C2197 1.371 . S
C2193 H2159 0.930 . S
C2193 C2192 1.358 1_655 S
C2193 C2194 1.405 . S
C2194 H2160 0.932 . S
C2194 C2193 1.405 . S
C2194 C2195 1.383 1_655 S
C2195 C2194 1.383 1_455 S
C2195 C2196 1.393 . S
C2196 H2161 0.931 . S
C2196 C2195 1.393 . S
C2196 C2197 1.382 . S
C2197 H2162 0.929 . S
C2197 C2192 1.371 . S
C2197 C2196 1.382 . S
C2198 N2166 1.423 . S
C2198 C2199 1.362 . S
C2198 C2203 1.388 . S
C2199 H2163 0.929 . S
C2199 C2198 1.362 . S
C2199 C2200 1.376 . S
C2200 H2164 0.931 . S
C2200 C2199 1.376 . S
C2200 C2201 1.396 . S
C2201 C2183 1.472 . S
C2201 C2200 1.396 . S
C2201 C2202 1.348 . S
C2202 H2165 0.929 . S
C2202 C2201 1.348 . S
C2202 C2203 1.443 . S
C2203 H2167 0.932 1_455 S
C2203 C2198 1.388 . S
C2203 C2202 1.443 . S
H2204 C2231 0.929 . S
N2205 C2230 1.433 . S
N2205 C2236 1.435 . S
N2205 C2242 1.423 . S
H2206 C2232 0.930 . S
H2207 C2235 0.931 . S
H2208 C2234 0.929 . S
H2209 C2237 0.930 . S
H2210 C2238 0.932 . S
H2211 C2241 0.929 . S
H2212 C2240 0.931 . S
H2213 C2243 0.929 . S
H2214 C2247 0.932 . S
H2215 C2244 0.931 . S
H2216 C2246 0.929 . S
H2217 C2249 0.929 . S
H2218 C2250 0.930 . S
H2219 C2252 0.929 . S
H2220 C2253 0.931 . S
H2221 C2255 0.930 . S
H2222 C2256 0.932 . S
H2223 C2258 0.931 . S
H2224 C2259 0.929 . S
H2225 C2261 0.929 . S
H2226 C2262 0.931 . S
H2227 C2264 0.929 . S
N2228 C2248 1.433 . S
N2228 C2254 1.435 . S
N2228 C2260 1.423 . S
H2229 C2265 0.932 . S
C2230 N2205 1.433 . S
C2230 C2231 1.363 . S
C2230 C2235 1.370 . S
C2231 H2204 0.929 . S
C2231 C2230 1.363 . S
C2231 C2232 1.385 . S
C2232 H2206 0.930 . S
C2232 C2231 1.385 . S
C2232 C2233 1.357 . S
C2233 C2232 1.357 . S
C2233 C2234 1.406 . S
C2234 H2208 0.929 . S
C2234 C2233 1.406 . S
C2234 C2235 1.391 . S
C2235 H2207 0.931 . S
C2235 C2230 1.370 . S
C2235 C2234 1.391 . S
C2236 N2205 1.435 . S
C2236 C2237 1.358 . S
C2236 C2241 1.371 . S
C2237 H2209 0.930 . S
C2237 C2236 1.358 . S
C2237 C2238 1.405 . S
C2238 H2210 0.932 . S
C2238 C2237 1.405 . S
C2238 C2239 1.383 . S
C2239 C2238 1.383 . S
C2239 C2240 1.393 . S
C2240 H2212 0.931 . S
C2240 C2239 1.393 . S
C2240 C2241 1.382 . S
C2241 H2211 0.929 . S
C2241 C2236 1.371 . S
C2241 C2240 1.382 . S
C2242 N2205 1.423 . S
C2242 C2243 1.362 . S
C2242 C2247 1.388 . S
C2243 H2213 0.929 . S
C2243 C2242 1.362 . S
C2243 C2244 1.376 . S
C2244 H2215 0.931 . S
C2244 C2243 1.376 . S
C2244 C2245 1.396 . S
C2245 C2244 1.396 . S
C2245 C2246 1.348 . S
C2245 C2263 1.472 . S
C2246 H2216 0.929 . S
C2246 C2245 1.348 . S
C2246 C2247 1.443 . S
C2247 H2214 0.932 . S
C2247 C2242 1.388 . S
C2247 C2246 1.443 . S
C2248 N2228 1.433 . S
C2248 C2249 1.363 . S
C2248 C2253 1.370 . S
C2249 H2217 0.929 . S
C2249 C2248 1.363 . S
C2249 C2250 1.385 . S
C2250 H2218 0.930 . S
C2250 C2249 1.385 . S
C2250 C2251 1.357 . S
C2251 C2250 1.357 . S
C2251 C2252 1.406 . S
C2252 H2219 0.929 . S
C2252 C2251 1.406 . S
C2252 C2253 1.391 . S
C2253 H2220 0.931 . S
C2253 C2248 1.370 . S
C2253 C2252 1.391 . S
C2254 N2228 1.435 . S
C2254 C2255 1.358 . S
C2254 C2259 1.371 . S
C2255 H2221 0.930 . S
C2255 C2254 1.358 . S
C2255 C2256 1.405 . S
C2256 H2222 0.932 . S
C2256 C2255 1.405 . S
C2256 C2257 1.383 . S
C2257 C2256 1.383 . S
C2257 C2258 1.393 . S
C2258 H2223 0.931 . S
C2258 C2257 1.393 . S
C2258 C2259 1.382 . S
C2259 H2224 0.929 . S
C2259 C2254 1.371 . S
C2259 C2258 1.382 . S
C2260 N2228 1.423 . S
C2260 C2261 1.362 . S
C2260 C2265 1.388 . S
C2261 H2225 0.929 . S
C2261 C2260 1.362 . S
C2261 C2262 1.376 . S
C2262 H2226 0.931 . S
C2262 C2261 1.376 . S
C2262 C2263 1.396 . S
C2263 C2245 1.472 . S
C2263 C2262 1.396 . S
C2263 C2264 1.348 . S
C2264 H2227 0.929 . S
C2264 C2263 1.348 . S
C2264 C2265 1.443 . S
C2265 H2229 0.932 . S
C2265 C2260 1.388 . S
C2265 C2264 1.443 . S
H2266 C2293 0.929 . S
N2267 C2292 1.433 . S
N2267 C2298 1.435 . S
N2267 C2304 1.423 . S
H2268 C2294 0.930 . S
H2269 C2297 0.931 . S
H2270 C2296 0.929 . S
H2271 C2299 0.930 . S
H2272 C2300 0.932 . S
H2273 C2303 0.929 . S
H2274 C2302 0.931 . S
H2275 C2305 0.929 . S
H2276 C2309 0.932 1_545 S
H2277 C2306 0.931 . S
H2278 C2308 0.929 . S
H2279 C2311 0.929 . S
H2280 C2312 0.930 . S
H2281 C2314 0.929 . S
H2282 C2315 0.931 . S
H2283 C2317 0.930 . S
H2284 C2318 0.932 . S
H2285 C2320 0.931 . S
H2286 C2321 0.929 . S
H2287 C2323 0.929 . S
H2288 C2324 0.931 . S
H2289 C2326 0.929 . S
N2290 C2310 1.433 . S
N2290 C2316 1.435 . S
N2290 C2322 1.423 . S
H2291 C2327 0.932 1_545 S
C2292 N2267 1.433 . S
C2292 C2293 1.363 . S
C2292 C2297 1.370 1_565 S
C2293 H2266 0.929 . S
C2293 C2292 1.363 . S
C2293 C2294 1.385 . S
C2294 H2268 0.930 . S
C2294 C2293 1.385 . S
C2294 C2295 1.357 1_565 S
C2295 C2294 1.357 1_545 S
C2295 C2296 1.406 . S
C2296 H2270 0.929 . S
C2296 C2295 1.406 . S
C2296 C2297 1.391 . S
C2297 H2269 0.931 . S
C2297 C2292 1.370 1_545 S
C2297 C2296 1.391 . S
C2298 N2267 1.435 . S
C2298 C2299 1.358 1_565 S
C2298 C2303 1.371 . S
C2299 H2271 0.930 . S
C2299 C2298 1.358 1_545 S
C2299 C2300 1.405 . S
C2300 H2272 0.932 . S
C2300 C2299 1.405 . S
C2300 C2301 1.383 1_545 S
C2301 C2300 1.383 1_565 S
C2301 C2302 1.393 . S
C2302 H2274 0.931 . S
C2302 C2301 1.393 . S
C2302 C2303 1.382 . S
C2303 H2273 0.929 . S
C2303 C2298 1.371 . S
C2303 C2302 1.382 . S
C2304 N2267 1.423 . S
C2304 C2305 1.362 . S
C2304 C2309 1.388 . S
C2305 H2275 0.929 . S
C2305 C2304 1.362 . S
C2305 C2306 1.376 . S
C2306 H2277 0.931 . S
C2306 C2305 1.376 . S
C2306 C2307 1.396 . S
C2307 C2306 1.396 . S
C2307 C2308 1.348 . S
C2307 C2325 1.472 . S
C2308 H2278 0.929 . S
C2308 C2307 1.348 . S
C2308 C2309 1.443 . S
C2309 H2276 0.932 1_565 S
C2309 C2304 1.388 . S
C2309 C2308 1.443 . S
C2310 N2290 1.433 . S
C2310 C2311 1.363 . S
C2310 C2315 1.370 1_565 S
C2311 H2279 0.929 . S
C2311 C2310 1.363 . S
C2311 C2312 1.385 . S
C2312 H2280 0.930 . S
C2312 C2311 1.385 . S
C2312 C2313 1.357 1_565 S
C2313 C2312 1.357 1_545 S
C2313 C2314 1.406 . S
C2314 H2281 0.929 . S
C2314 C2313 1.406 . S
C2314 C2315 1.391 . S
C2315 H2282 0.931 . S
C2315 C2310 1.370 1_545 S
C2315 C2314 1.391 . S
C2316 N2290 1.435 . S
C2316 C2317 1.358 1_565 S
C2316 C2321 1.371 . S
C2317 H2283 0.930 . S
C2317 C2316 1.358 1_545 S
C2317 C2318 1.405 . S
C2318 H2284 0.932 . S
C2318 C2317 1.405 . S
C2318 C2319 1.383 1_545 S
C2319 C2318 1.383 1_565 S
C2319 C2320 1.393 . S
C2320 H2285 0.931 . S
C2320 C2319 1.393 . S
C2320 C2321 1.382 . S
C2321 H2286 0.929 . S
C2321 C2316 1.371 . S
C2321 C2320 1.382 . S
C2322 N2290 1.423 . S
C2322 C2323 1.362 . S
C2322 C2327 1.388 . S
C2323 H2287 0.929 . S
C2323 C2322 1.362 . S
C2323 C2324 1.376 . S
C2324 H2288 0.931 . S
C2324 C2323 1.376 . S
C2324 C2325 1.396 . S
C2325 C2307 1.472 . S
C2325 C2324 1.396 . S
C2325 C2326 1.348 . S
C2326 H2289 0.929 . S
C2326 C2325 1.348 . S
C2326 C2327 1.443 . S
C2327 H2291 0.932 1_565 S
C2327 C2322 1.388 . S
C2327 C2326 1.443 . S
H2328 C2355 0.929 . S
N2329 C2354 1.433 . S
N2329 C2360 1.435 . S
N2329 C2366 1.423 . S
H2330 C2356 0.930 . S
H2331 C2359 0.930 . S
H2332 C2358 0.938 . S
H2333 C2361 0.930 . S
H2334 C2362 0.932 . S
H2335 C2365 0.929 . S
H2336 C2364 0.931 . S
H2337 C2367 0.929 . S
H2338 C2371 0.932 . S
H2339 C2368 0.931 . S
H2340 C2370 0.924 1_545 S
H2341 C2373 0.929 . S
H2342 C2374 0.930 . S
H2343 C2376 0.956 . S
H2344 C2377 0.958 . S
H2345 C2379 0.930 . S
H2346 C2380 0.932 . S
H2347 C2382 0.931 . S
H2348 C2383 0.929 . S
H2349 C2385 0.929 . S
H2350 C2386 0.931 . S
H2351 C2388 0.910 1_545 S
N2352 C2372 1.433 . S
N2352 C2378 1.435 . S
N2352 C2384 1.423 . S
H2353 C2389 0.932 . S
C2354 N2329 1.433 . S
C2354 C2355 1.363 . S
C2354 C2359 1.365 1_565 S
C2355 H2328 0.929 . S
C2355 C2354 1.363 . S
C2355 C2356 1.385 . S
C2356 H2330 0.930 . S
C2356 C2355 1.385 . S
C2356 C2357 1.357 . S
C2357 C2356 1.357 . S
C2357 C2358 1.409 1_565 S
C2358 H2332 0.938 . S
C2358 C2357 1.409 1_545 S
C2358 C2359 1.390 . S
C2359 H2331 0.930 . S
C2359 C2354 1.365 1_545 S
C2359 C2358 1.390 . S
C2360 N2329 1.435 . S
C2360 C2361 1.358 1_565 S
C2360 C2365 1.371 . S
C2361 H2333 0.930 . S
C2361 C2360 1.358 1_545 S
C2361 C2362 1.405 . S
C2362 H2334 0.932 . S
C2362 C2361 1.405 . S
C2362 C2363 1.383 . S
C2363 C2362 1.383 . S
C2363 C2364 1.393 1_545 S
C2364 H2336 0.931 . S
C2364 C2363 1.393 1_565 S
C2364 C2365 1.382 . S
C2365 H2335 0.929 . S
C2365 C2360 1.371 . S
C2365 C2364 1.382 . S
C2366 N2329 1.423 . S
C2366 C2367 1.362 . S
C2366 C2371 1.388 1_565 S
C2367 H2337 0.929 . S
C2367 C2366 1.362 . S
C2367 C2368 1.376 . S
C2368 H2339 0.931 . S
C2368 C2367 1.376 . S
C2368 C2369 1.396 . S
C2369 C2368 1.396 . S
C2369 C2370 1.367 . S
C2369 C2387 1.472 . S
C2370 H2340 0.924 1_565 S
C2370 C2369 1.367 . S
C2370 C2371 1.429 1_565 S
C2371 H2338 0.932 . S
C2371 C2366 1.388 1_545 S
C2371 C2370 1.429 1_545 S
C2372 N2352 1.433 . S
C2372 C2373 1.363 . S
C2372 C2377 1.349 1_565 S
C2373 H2341 0.929 . S
C2373 C2372 1.363 . S
C2373 C2374 1.385 . S
C2374 H2342 0.930 . S
C2374 C2373 1.385 . S
C2374 C2375 1.357 . S
C2375 C2374 1.357 . S
C2375 C2376 1.374 1_565 S
C2376 H2343 0.956 . S
C2376 C2375 1.374 1_545 S
C2376 C2377 1.393 . S
C2377 H2344 0.958 . S
C2377 C2372 1.349 1_545 S
C2377 C2376 1.393 . S
C2378 N2352 1.435 . S
C2378 C2379 1.358 1_565 S
C2378 C2383 1.371 . S
C2379 H2345 0.930 . S
C2379 C2378 1.358 1_545 S
C2379 C2380 1.405 . S
C2380 H2346 0.932 . S
C2380 C2379 1.405 . S
C2380 C2381 1.383 . S
C2381 C2380 1.383 . S
C2381 C2382 1.393 1_545 S
C2382 H2347 0.931 . S
C2382 C2381 1.393 1_565 S
C2382 C2383 1.382 . S
C2383 H2348 0.929 . S
C2383 C2378 1.371 . S
C2383 C2382 1.382 . S
C2384 N2352 1.423 . S
C2384 C2385 1.362 . S
C2384 C2389 1.388 1_565 S
C2385 H2349 0.929 . S
C2385 C2384 1.362 . S
C2385 C2386 1.376 . S
C2386 H2350 0.931 . S
C2386 C2385 1.376 . S
C2386 C2387 1.396 . S
C2387 C2369 1.472 . S
C2387 C2386 1.396 . S
C2387 C2388 1.355 . S
C2388 H2351 0.910 1_565 S
C2388 C2387 1.355 . S
C2388 C2389 1.454 1_565 S
C2389 H2353 0.932 . S
C2389 C2384 1.388 1_545 S
C2389 C2388 1.454 1_545 S
H2390 C2417 0.929 . S
N2391 C2416 1.433 . S
N2391 C2422 1.435 . S
N2391 C2428 1.423 . S
H2392 C2418 0.930 . S
H2393 C2421 0.931 . S
H2394 C2420 0.929 . S
H2395 C2423 0.930 . S
H2396 C2424 0.932 . S
H2397 C2427 0.929 . S
H2398 C2426 0.931 . S
H2399 C2429 0.929 . S
H2400 C2433 0.932 1_455 S
H2401 C2430 0.931 . S
H2402 C2432 0.929 . S
H2403 C2435 0.929 . S
H2404 C2436 0.930 . S
H2405 C2438 0.929 . S
H2406 C2439 0.931 . S
H2407 C2441 0.930 . S
H2408 C2442 0.932 . S
H2409 C2444 0.931 . S
H2410 C2445 0.929 . S
H2411 C2447 0.929 . S
H2412 C2448 0.931 . S
H2413 C2450 0.929 . S
N2414 C2434 1.433 . S
N2414 C2440 1.435 . S
N2414 C2446 1.423 . S
H2415 C2451 0.932 1_455 S
C2416 N2391 1.433 . S
C2416 C2417 1.363 . S
C2416 C2421 1.370 1_655 S
C2417 H2390 0.929 . S
C2417 C2416 1.363 . S
C2417 C2418 1.385 . S
C2418 H2392 0.930 . S
C2418 C2417 1.385 . S
C2418 C2419 1.357 1_655 S
C2419 C2418 1.357 1_455 S
C2419 C2420 1.406 . S
C2420 H2394 0.929 . S
C2420 C2419 1.406 . S
C2420 C2421 1.391 . S
C2421 H2393 0.931 . S
C2421 C2416 1.370 1_455 S
C2421 C2420 1.391 . S
C2422 N2391 1.435 . S
C2422 C2423 1.358 1_655 S
C2422 C2427 1.371 . S
C2423 H2395 0.930 . S
C2423 C2422 1.358 1_455 S
C2423 C2424 1.405 . S
C2424 H2396 0.932 . S
C2424 C2423 1.405 . S
C2424 C2425 1.383 1_455 S
C2425 C2424 1.383 1_655 S
C2425 C2426 1.393 . S
C2426 H2398 0.931 . S
C2426 C2425 1.393 . S
C2426 C2427 1.382 . S
C2427 H2397 0.929 . S
C2427 C2422 1.371 . S
C2427 C2426 1.382 . S
C2428 N2391 1.423 . S
C2428 C2429 1.362 . S
C2428 C2433 1.388 . S
C2429 H2399 0.929 . S
C2429 C2428 1.362 . S
C2429 C2430 1.376 . S
C2430 H2401 0.931 . S
C2430 C2429 1.376 . S
C2430 C2431 1.396 . S
C2431 C2430 1.396 . S
C2431 C2432 1.348 . S
C2431 C2449 1.472 . S
C2432 H2402 0.929 . S
C2432 C2431 1.348 . S
C2432 C2433 1.443 . S
C2433 H2400 0.932 1_655 S
C2433 C2428 1.388 . S
C2433 C2432 1.443 . S
C2434 N2414 1.433 . S
C2434 C2435 1.363 . S
C2434 C2439 1.370 1_655 S
C2435 H2403 0.929 . S
C2435 C2434 1.363 . S
C2435 C2436 1.385 . S
C2436 H2404 0.930 . S
C2436 C2435 1.385 . S
C2436 C2437 1.357 1_655 S
C2437 C2436 1.357 1_455 S
C2437 C2438 1.406 . S
C2438 H2405 0.929 . S
C2438 C2437 1.406 . S
C2438 C2439 1.391 . S
C2439 H2406 0.931 . S
C2439 C2434 1.370 1_455 S
C2439 C2438 1.391 . S
C2440 N2414 1.435 . S
C2440 C2441 1.358 1_655 S
C2440 C2445 1.371 . S
C2441 H2407 0.930 . S
C2441 C2440 1.358 1_455 S
C2441 C2442 1.405 . S
C2442 H2408 0.932 . S
C2442 C2441 1.405 . S
C2442 C2443 1.383 1_455 S
C2443 C2442 1.383 1_655 S
C2443 C2444 1.393 . S
C2444 H2409 0.931 . S
C2444 C2443 1.393 . S
C2444 C2445 1.382 . S
C2445 H2410 0.929 . S
C2445 C2440 1.371 . S
C2445 C2444 1.382 . S
C2446 N2414 1.423 . S
C2446 C2447 1.362 . S
C2446 C2451 1.388 . S
C2447 H2411 0.929 . S
C2447 C2446 1.362 . S
C2447 C2448 1.376 . S
C2448 H2412 0.931 . S
C2448 C2447 1.376 . S
C2448 C2449 1.396 . S
C2449 C2431 1.472 . S
C2449 C2448 1.396 . S
C2449 C2450 1.348 . S
C2450 H2413 0.929 . S
C2450 C2449 1.348 . S
C2450 C2451 1.443 . S
C2451 H2415 0.932 1_655 S
C2451 C2446 1.388 . S
C2451 C2450 1.443 . S
H2452 C2479 0.929 . S
N2453 C2478 1.433 . S
N2453 C2484 1.435 . S
N2453 C2490 1.423 . S
H2454 C2480 0.930 . S
H2455 C2483 0.931 . S
H2456 C2482 0.929 . S
H2457 C2485 0.930 . S
H2458 C2486 0.932 . S
H2459 C2489 0.929 . S
H2460 C2488 0.931 . S
H2461 C2491 0.929 . S
H2462 C2495 0.932 . S
H2463 C2492 0.931 . S
H2464 C2494 0.929 . S
H2465 C2497 0.929 . S
H2466 C2498 0.930 . S
H2467 C2500 0.929 . S
H2468 C2501 0.931 . S
H2469 C2503 0.930 . S
H2470 C2504 0.932 . S
H2471 C2506 0.931 . S
H2472 C2507 0.929 . S
H2473 C2509 0.929 . S
H2474 C2510 0.931 . S
H2475 C2512 0.929 . S
N2476 C2496 1.433 . S
N2476 C2502 1.435 . S
N2476 C2508 1.423 . S
H2477 C2513 0.932 . S
C2478 N2453 1.433 . S
C2478 C2479 1.363 . S
C2478 C2483 1.370 . S
C2479 H2452 0.929 . S
C2479 C2478 1.363 . S
C2479 C2480 1.385 . S
C2480 H2454 0.930 . S
C2480 C2479 1.385 . S
C2480 C2481 1.357 . S
C2481 C2480 1.357 . S
C2481 C2482 1.406 . S
C2482 H2456 0.929 . S
C2482 C2481 1.406 . S
C2482 C2483 1.391 . S
C2483 H2455 0.931 . S
C2483 C2478 1.370 . S
C2483 C2482 1.391 . S
C2484 N2453 1.435 . S
C2484 C2485 1.358 . S
C2484 C2489 1.371 . S
C2485 H2457 0.930 . S
C2485 C2484 1.358 . S
C2485 C2486 1.405 . S
C2486 H2458 0.932 . S
C2486 C2485 1.405 . S
C2486 C2487 1.383 . S
C2487 C2486 1.383 . S
C2487 C2488 1.393 . S
C2488 H2460 0.931 . S
C2488 C2487 1.393 . S
C2488 C2489 1.382 . S
C2489 H2459 0.929 . S
C2489 C2484 1.371 . S
C2489 C2488 1.382 . S
C2490 N2453 1.423 . S
C2490 C2491 1.362 . S
C2490 C2495 1.388 . S
C2491 H2461 0.929 . S
C2491 C2490 1.362 . S
C2491 C2492 1.376 . S
C2492 H2463 0.931 . S
C2492 C2491 1.376 . S
C2492 C2493 1.396 . S
C2493 C2492 1.396 . S
C2493 C2494 1.348 . S
C2493 C2511 1.472 . S
C2494 H2464 0.929 . S
C2494 C2493 1.348 . S
C2494 C2495 1.443 . S
C2495 H2462 0.932 . S
C2495 C2490 1.388 . S
C2495 C2494 1.443 . S
C2496 N2476 1.433 . S
C2496 C2497 1.363 . S
C2496 C2501 1.370 . S
C2497 H2465 0.929 . S
C2497 C2496 1.363 . S
C2497 C2498 1.385 . S
C2498 H2466 0.930 . S
C2498 C2497 1.385 . S
C2498 C2499 1.357 . S
C2499 C2498 1.357 . S
C2499 C2500 1.406 . S
C2500 H2467 0.929 . S
C2500 C2499 1.406 . S
C2500 C2501 1.391 . S
C2501 H2468 0.931 . S
C2501 C2496 1.370 . S
C2501 C2500 1.391 . S
C2502 N2476 1.435 . S
C2502 C2503 1.358 . S
C2502 C2507 1.371 . S
C2503 H2469 0.930 . S
C2503 C2502 1.358 . S
C2503 C2504 1.405 . S
C2504 H2470 0.932 . S
C2504 C2503 1.405 . S
C2504 C2505 1.383 . S
C2505 C2504 1.383 . S
C2505 C2506 1.393 . S
C2506 H2471 0.931 . S
C2506 C2505 1.393 . S
C2506 C2507 1.382 . S
C2507 H2472 0.929 . S
C2507 C2502 1.371 . S
C2507 C2506 1.382 . S
C2508 N2476 1.423 . S
C2508 C2509 1.362 . S
C2508 C2513 1.388 . S
C2509 H2473 0.929 . S
C2509 C2508 1.362 . S
C2509 C2510 1.376 . S
C2510 H2474 0.931 . S
C2510 C2509 1.376 . S
C2510 C2511 1.396 . S
C2511 C2493 1.472 . S
C2511 C2510 1.396 . S
C2511 C2512 1.348 . S
C2512 H2475 0.929 . S
C2512 C2511 1.348 . S
C2512 C2513 1.443 . S
C2513 H2477 0.932 . S
C2513 C2508 1.388 . S
C2513 C2512 1.443 . S
H2514 C2541 0.929 . S
N2515 C2540 1.433 . S
N2515 C2546 1.435 . S
N2515 C2552 1.423 . S
H2516 C2542 0.930 . S
H2517 C2545 0.931 . S
H2518 C2544 0.929 . S
H2519 C2547 0.930 . S
H2520 C2548 0.932 . S
H2521 C2551 0.929 . S
H2522 C2550 0.931 . S
H2523 C2553 0.929 . S
H2524 C2557 0.932 . S
H2525 C2554 0.931 . S
H2526 C2556 0.929 . S
H2527 C2559 0.929 . S
H2528 C2560 0.930 . S
H2529 C2562 0.929 . S
H2530 C2563 0.931 . S
H2531 C2565 0.930 . S
H2532 C2566 0.932 . S
H2533 C2568 0.931 . S
H2534 C2569 0.929 . S
H2535 C2571 0.929 . S
H2536 C2572 0.931 . S
H2537 C2574 0.929 . S
N2538 C2558 1.433 . S
N2538 C2564 1.435 . S
N2538 C2570 1.423 . S
H2539 C2575 0.932 . S
C2540 N2515 1.433 . S
C2540 C2541 1.363 . S
C2540 C2545 1.370 . S
C2541 H2514 0.929 . S
C2541 C2540 1.363 . S
C2541 C2542 1.385 . S
C2542 H2516 0.930 . S
C2542 C2541 1.385 . S
C2542 C2543 1.357 . S
C2543 C2542 1.357 . S
C2543 C2544 1.406 . S
C2544 H2518 0.929 . S
C2544 C2543 1.406 . S
C2544 C2545 1.391 . S
C2545 H2517 0.931 . S
C2545 C2540 1.370 . S
C2545 C2544 1.391 . S
C2546 N2515 1.435 . S
C2546 C2547 1.358 . S
C2546 C2551 1.371 . S
C2547 H2519 0.930 . S
C2547 C2546 1.358 . S
C2547 C2548 1.405 . S
C2548 H2520 0.932 . S
C2548 C2547 1.405 . S
C2548 C2549 1.383 . S
C2549 C2548 1.383 . S
C2549 C2550 1.393 . S
C2550 H2522 0.931 . S
C2550 C2549 1.393 . S
C2550 C2551 1.382 . S
C2551 H2521 0.929 . S
C2551 C2546 1.371 . S
C2551 C2550 1.382 . S
C2552 N2515 1.423 . S
C2552 C2553 1.362 . S
C2552 C2557 1.388 . S
C2553 H2523 0.929 . S
C2553 C2552 1.362 . S
C2553 C2554 1.376 . S
C2554 H2525 0.931 . S
C2554 C2553 1.376 . S
C2554 C2555 1.396 . S
C2555 C2554 1.396 . S
C2555 C2556 1.348 . S
C2555 C2573 1.472 . S
C2556 H2526 0.929 . S
C2556 C2555 1.348 . S
C2556 C2557 1.443 . S
C2557 H2524 0.932 . S
C2557 C2552 1.388 . S
C2557 C2556 1.443 . S
C2558 N2538 1.433 . S
C2558 C2559 1.363 . S
C2558 C2563 1.370 . S
C2559 H2527 0.929 . S
C2559 C2558 1.363 . S
C2559 C2560 1.385 . S
C2560 H2528 0.930 . S
C2560 C2559 1.385 . S
C2560 C2561 1.357 . S
C2561 C2560 1.357 . S
C2561 C2562 1.406 . S
C2562 H2529 0.929 . S
C2562 C2561 1.406 . S
C2562 C2563 1.391 . S
C2563 H2530 0.931 . S
C2563 C2558 1.370 . S
C2563 C2562 1.391 . S
C2564 N2538 1.435 . S
C2564 C2565 1.358 . S
C2564 C2569 1.371 . S
C2565 H2531 0.930 . S
C2565 C2564 1.358 . S
C2565 C2566 1.405 . S
C2566 H2532 0.932 . S
C2566 C2565 1.405 . S
C2566 C2567 1.383 . S
C2567 C2566 1.383 . S
C2567 C2568 1.393 . S
C2568 H2533 0.931 . S
C2568 C2567 1.393 . S
C2568 C2569 1.382 . S
C2569 H2534 0.929 . S
C2569 C2564 1.371 . S
C2569 C2568 1.382 . S
C2570 N2538 1.423 . S
C2570 C2571 1.362 . S
C2570 C2575 1.388 . S
C2571 H2535 0.929 . S
C2571 C2570 1.362 . S
C2571 C2572 1.376 . S
C2572 H2536 0.931 . S
C2572 C2571 1.376 . S
C2572 C2573 1.396 . S
C2573 C2555 1.472 . S
C2573 C2572 1.396 . S
C2573 C2574 1.348 . S
C2574 H2537 0.929 . S
C2574 C2573 1.348 . S
C2574 C2575 1.443 . S
C2575 H2539 0.932 . S
C2575 C2570 1.388 . S
C2575 C2574 1.443 . S
H2576 C2603 0.929 . S
N2577 C2602 1.433 . S
N2577 C2608 1.435 . S
N2577 C2614 1.423 . S
H2578 C2604 0.930 . S
H2579 C2607 0.931 . S
H2580 C2606 0.929 . S
H2581 C2609 0.930 . S
H2582 C2610 0.932 . S
H2583 C2613 0.929 . S
H2584 C2612 0.931 . S
H2585 C2615 0.929 . S
H2586 C2619 0.932 . S
H2587 C2616 0.931 . S
H2588 C2618 0.929 . S
H2589 C2621 0.929 . S
H2590 C2622 0.930 . S
H2591 C2624 0.929 . S
H2592 C2625 0.931 . S
H2593 C2627 0.930 . S
H2594 C2628 0.932 . S
H2595 C2630 0.931 . S
H2596 C2631 0.929 . S
H2597 C2633 0.929 . S
H2598 C2634 0.931 . S
H2599 C2636 0.929 . S
N2600 C2620 1.433 . S
N2600 C2626 1.435 . S
N2600 C2632 1.423 . S
H2601 C2637 0.932 . S
C2602 N2577 1.433 . S
C2602 C2603 1.363 . S
C2602 C2607 1.370 . S
C2603 H2576 0.929 . S
C2603 C2602 1.363 . S
C2603 C2604 1.385 . S
C2604 H2578 0.930 . S
C2604 C2603 1.385 . S
C2604 C2605 1.357 . S
C2605 C2604 1.357 . S
C2605 C2606 1.406 . S
C2606 H2580 0.929 . S
C2606 C2605 1.406 . S
C2606 C2607 1.391 . S
C2607 H2579 0.931 . S
C2607 C2602 1.370 . S
C2607 C2606 1.391 . S
C2608 N2577 1.435 . S
C2608 C2609 1.358 . S
C2608 C2613 1.371 . S
C2609 H2581 0.930 . S
C2609 C2608 1.358 . S
C2609 C2610 1.405 . S
C2610 H2582 0.932 . S
C2610 C2609 1.405 . S
C2610 C2611 1.383 . S
C2611 C2610 1.383 . S
C2611 C2612 1.393 . S
C2612 H2584 0.931 . S
C2612 C2611 1.393 . S
C2612 C2613 1.382 . S
C2613 H2583 0.929 . S
C2613 C2608 1.371 . S
C2613 C2612 1.382 . S
C2614 N2577 1.423 . S
C2614 C2615 1.362 . S
C2614 C2619 1.388 . S
C2615 H2585 0.929 . S
C2615 C2614 1.362 . S
C2615 C2616 1.376 . S
C2616 H2587 0.931 . S
C2616 C2615 1.376 . S
C2616 C2617 1.396 . S
C2617 C2616 1.396 . S
C2617 C2618 1.348 . S
C2617 C2635 1.472 . S
C2618 H2588 0.929 . S
C2618 C2617 1.348 . S
C2618 C2619 1.443 . S
C2619 H2586 0.932 . S
C2619 C2614 1.388 . S
C2619 C2618 1.443 . S
C2620 N2600 1.433 . S
C2620 C2621 1.363 . S
C2620 C2625 1.370 . S
C2621 H2589 0.929 . S
C2621 C2620 1.363 . S
C2621 C2622 1.385 . S
C2622 H2590 0.930 . S
C2622 C2621 1.385 . S
C2622 C2623 1.357 . S
C2623 C2622 1.357 . S
C2623 C2624 1.406 . S
C2624 H2591 0.929 . S
C2624 C2623 1.406 . S
C2624 C2625 1.391 . S
C2625 H2592 0.931 . S
C2625 C2620 1.370 . S
C2625 C2624 1.391 . S
C2626 N2600 1.435 . S
C2626 C2627 1.358 . S
C2626 C2631 1.371 . S
C2627 H2593 0.930 . S
C2627 C2626 1.358 . S
C2627 C2628 1.405 . S
C2628 H2594 0.932 . S
C2628 C2627 1.405 . S
C2628 C2629 1.383 . S
C2629 C2628 1.383 . S
C2629 C2630 1.393 . S
C2630 H2595 0.931 . S
C2630 C2629 1.393 . S
C2630 C2631 1.382 . S
C2631 H2596 0.929 . S
C2631 C2626 1.371 . S
C2631 C2630 1.382 . S
C2632 N2600 1.423 . S
C2632 C2633 1.362 . S
C2632 C2637 1.388 . S
C2633 H2597 0.929 . S
C2633 C2632 1.362 . S
C2633 C2634 1.376 . S
C2634 H2598 0.931 . S
C2634 C2633 1.376 . S
C2634 C2635 1.396 . S
C2635 C2617 1.472 . S
C2635 C2634 1.396 . S
C2635 C2636 1.348 . S
C2636 H2599 0.929 . S
C2636 C2635 1.348 . S
C2636 C2637 1.443 . S
C2637 H2601 0.932 . S
C2637 C2632 1.388 . S
C2637 C2636 1.443 . S
H2638 C2665 0.929 . S
N2639 C2664 1.433 . S
N2639 C2670 1.435 . S
N2639 C2676 1.423 . S
H2640 C2666 0.930 . S
H2641 C2669 0.931 . S
H2642 C2668 0.929 . S
H2643 C2671 0.930 . S
H2644 C2672 0.932 . S
H2645 C2675 0.929 . S
H2646 C2674 0.931 . S
H2647 C2677 0.929 . S
H2648 C2681 0.932 . S
H2649 C2678 0.931 . S
H2650 C2680 0.929 . S
H2651 C2683 0.929 . S
H2652 C2684 0.930 . S
H2653 C2686 0.929 . S
H2654 C2687 0.931 . S
H2655 C2689 0.930 . S
H2656 C2690 0.932 . S
H2657 C2692 0.931 . S
H2658 C2693 0.929 . S
H2659 C2695 0.929 . S
H2660 C2696 0.931 . S
H2661 C2698 0.929 . S
N2662 C2682 1.433 . S
N2662 C2688 1.435 . S
N2662 C2694 1.423 . S
H2663 C2699 0.932 . S
C2664 N2639 1.433 . S
C2664 C2665 1.363 . S
C2664 C2669 1.370 . S
C2665 H2638 0.929 . S
C2665 C2664 1.363 . S
C2665 C2666 1.385 . S
C2666 H2640 0.930 . S
C2666 C2665 1.385 . S
C2666 C2667 1.357 . S
C2667 C2666 1.357 . S
C2667 C2668 1.406 . S
C2668 H2642 0.929 . S
C2668 C2667 1.406 . S
C2668 C2669 1.391 . S
C2669 H2641 0.931 . S
C2669 C2664 1.370 . S
C2669 C2668 1.391 . S
C2670 N2639 1.435 . S
C2670 C2671 1.358 . S
C2670 C2675 1.371 . S
C2671 H2643 0.930 . S
C2671 C2670 1.358 . S
C2671 C2672 1.405 . S
C2672 H2644 0.932 . S
C2672 C2671 1.405 . S
C2672 C2673 1.383 . S
C2673 C2672 1.383 . S
C2673 C2674 1.393 . S
C2674 H2646 0.931 . S
C2674 C2673 1.393 . S
C2674 C2675 1.382 . S
C2675 H2645 0.929 . S
C2675 C2670 1.371 . S
C2675 C2674 1.382 . S
C2676 N2639 1.423 . S
C2676 C2677 1.362 . S
C2676 C2681 1.388 . S
C2677 H2647 0.929 . S
C2677 C2676 1.362 . S
C2677 C2678 1.376 . S
C2678 H2649 0.931 . S
C2678 C2677 1.376 . S
C2678 C2679 1.396 . S
C2679 C2678 1.396 . S
C2679 C2680 1.348 . S
C2679 C2697 1.472 . S
C2680 H2650 0.929 . S
C2680 C2679 1.348 . S
C2680 C2681 1.443 . S
C2681 H2648 0.932 . S
C2681 C2676 1.388 . S
C2681 C2680 1.443 . S
C2682 N2662 1.433 . S
C2682 C2683 1.363 . S
C2682 C2687 1.370 . S
C2683 H2651 0.929 . S
C2683 C2682 1.363 . S
C2683 C2684 1.385 . S
C2684 H2652 0.930 . S
C2684 C2683 1.385 . S
C2684 C2685 1.357 . S
C2685 C2684 1.357 . S
C2685 C2686 1.406 . S
C2686 H2653 0.929 . S
C2686 C2685 1.406 . S
C2686 C2687 1.391 . S
C2687 H2654 0.931 . S
C2687 C2682 1.370 . S
C2687 C2686 1.391 . S
C2688 N2662 1.435 . S
C2688 C2689 1.358 . S
C2688 C2693 1.371 . S
C2689 H2655 0.930 . S
C2689 C2688 1.358 . S
C2689 C2690 1.405 . S
C2690 H2656 0.932 . S
C2690 C2689 1.405 . S
C2690 C2691 1.383 . S
C2691 C2690 1.383 . S
C2691 C2692 1.393 . S
C2692 H2657 0.931 . S
C2692 C2691 1.393 . S
C2692 C2693 1.382 . S
C2693 H2658 0.929 . S
C2693 C2688 1.371 . S
C2693 C2692 1.382 . S
C2694 N2662 1.423 . S
C2694 C2695 1.362 . S
C2694 C2699 1.388 . S
C2695 H2659 0.929 . S
C2695 C2694 1.362 . S
C2695 C2696 1.376 . S
C2696 H2660 0.931 . S
C2696 C2695 1.376 . S
C2696 C2697 1.396 . S
C2697 C2679 1.472 . S
C2697 C2696 1.396 . S
C2697 C2698 1.348 . S
C2698 H2661 0.929 . S
C2698 C2697 1.348 . S
C2698 C2699 1.443 . S
C2699 H2663 0.932 . S
C2699 C2694 1.388 . S
C2699 C2698 1.443 . S
C49 C2189 1.901 . S
C137 C2233 1.809 . S
C2313 C205 1.921 . S
C196 C2357 1.828 . S
C57 C2437 1.921 . S
C145 C2499 1.785 . S
C313 C2419 1.911 . S
C2481 C401 1.786 . S
C2375 C489 1.839 . S
C469 C2295 1.911 . S
C2171 C293 1.909 . S
C381 C2251 1.810 . S
C577 C2561 1.830 . S
C645 C2605 1.887 . S
C2685 C733 1.788 . S
C724 C1631 1.802 . S
C585 C1675 1.857 . S
C636 C1755 1.852 . S
C841 C1693 1.830 . S
C937 C1737 1.854 . S
C1613 C1025 1.824 . S
C2667 C988 1.831 . S
C2543 C821 1.788 . S
C2623 C900 1.889 . S
C1105 C1817 1.801 . S
C1193 C1879 1.851 . S
C1281 C1923 1.857 . S
C1289 C1985 1.869 . S
C2047 C1113 1.836 . S
C2127 C1201 1.828 . S
C2065 C1369 1.871 . S
C2109 C1457 1.831 . S
C1553 C2003 1.836 . S
C1941 C1516 1.830 . S
C1349 C1799 1.824 . S
C1861 C1437 1.854 . S
C1637 C29 2.039 . S
C117 C1681 2.112 . S
C1761 C225 2.113 . S
C1823 C233 2.039 . S
C1885 C20 2.113 . S
C1929 C108 2.112 . S
C321 C1947 2.161 . S
C409 C1805 2.000 . S
C497 C1867 2.129 . S
C460 C1699 2.161 . S
C1743 C284 2.129 . S
C372 C1619 2.000 . S
C1991 C557 2.096 . S
C665 C2053 2.068 . S
C753 C2133 2.002 . S
C2195 C761 1.342 . S
C548 C2239 2.033 . S
C673 C2319 1.334 . S
C849 C2301 1.339 . S
C929 C2177 1.353 . S
C2257 C1017 2.040 . S
C997 C2071 2.106 . S
C812 C2115 2.007 . S
C2009 C909 2.075 . S
C2363 C1085 1.436 . S
C1173 C2443 1.334 . S
C1261 C2505 1.918 . S
C2567 C1252 1.980 . S
C2611 C1076 2.116 . S
C1164 C2691 1.956 . S
C1377 C2673 1.989 . S
C1465 C2549 1.963 . S
C2629 C1545 2.121 . S
C2425 C1525 1.338 . S
C2487 C1340 1.925 . S
C1428 C2381 1.445 . S
