# Generated by pormake.
# Topology ptr, (4,4)-cn, num edge types: 1
# Building blocks:
#     Node 0, Type 0, BuildingBlock: QUQFOY_clean_sbu_1, # of connection points: 4
#     Node 1, Type 0, BuildingBlock: QUQFOY_clean_sbu_1, # of connection points: 4
#     Node 2, Type 0, BuildingBlock: QUQFOY_clean_sbu_1, # of connection points: 4
#     Node 3, Type 0, BuildingBlock: QUQFOY_clean_sbu_1, # of connection points: 4
#     Node 4, Type 0, BuildingBlock: QUQFOY_clean_sbu_1, # of connection points: 4
#     Node 5, Type 0, BuildingBlock: QUQFOY_clean_sbu_1, # of connection points: 4
#     Node 6, Type 0, BuildingBlock: QUQFOY_clean_sbu_1, # of connection points: 4
#     Node 7, Type 0, BuildingBlock: QUQFOY_clean_sbu_1, # of connection points: 4
#     Node 8, Type 0, BuildingBlock: QUQFOY_clean_sbu_1, # of connection points: 4
#     Node 9, Type 0, BuildingBlock: QUQFOY_clean_sbu_1, # of connection points: 4
#     Node 10, Type 0, BuildingBlock: QUQFOY_clean_sbu_1, # of connection points: 4
#     Node 11, Type 0, BuildingBlock: QUQFOY_clean_sbu_1, # of connection points: 4
#     Node 12, Type 0, BuildingBlock: QUQFOY_clean_sbu_1, # of connection points: 4
#     Node 13, Type 0, BuildingBlock: QUQFOY_clean_sbu_1, # of connection points: 4
#     Node 14, Type 0, BuildingBlock: QUQFOY_clean_sbu_1, # of connection points: 4
#     Node 15, Type 0, BuildingBlock: QUQFOY_clean_sbu_1, # of connection points: 4
#     Node 16, Type 0, BuildingBlock: QUQFOY_clean_sbu_1, # of connection points: 4
#     Node 17, Type 0, BuildingBlock: QUQFOY_clean_sbu_1, # of connection points: 4
#     Node 18, Type 1, BuildingBlock: KUFVIS_clean_linker_0, # of connection points: 4
#     Node 19, Type 1, BuildingBlock: KUFVIS_clean_linker_0, # of connection points: 4
#     Node 20, Type 1, BuildingBlock: KUFVIS_clean_linker_0, # of connection points: 4
#     Node 21, Type 1, BuildingBlock: KUFVIS_clean_linker_0, # of connection points: 4
#     Node 22, Type 1, BuildingBlock: KUFVIS_clean_linker_0, # of connection points: 4
#     Node 23, Type 1, BuildingBlock: KUFVIS_clean_linker_0, # of connection points: 4
#     Node 24, Type 1, BuildingBlock: KUFVIS_clean_linker_0, # of connection points: 4
#     Node 25, Type 1, BuildingBlock: KUFVIS_clean_linker_0, # of connection points: 4
#     Node 26, Type 1, BuildingBlock: KUFVIS_clean_linker_0, # of connection points: 4
#     Node 27, Type 1, BuildingBlock: KUFVIS_clean_linker_0, # of connection points: 4
#     Node 28, Type 1, BuildingBlock: KUFVIS_clean_linker_0, # of connection points: 4
#     Node 29, Type 1, BuildingBlock: KUFVIS_clean_linker_0, # of connection points: 4
#     Node 30, Type 1, BuildingBlock: KUFVIS_clean_linker_0, # of connection points: 4
#     Node 31, Type 1, BuildingBlock: KUFVIS_clean_linker_0, # of connection points: 4
#     Node 32, Type 1, BuildingBlock: KUFVIS_clean_linker_0, # of connection points: 4
#     Node 33, Type 1, BuildingBlock: KUFVIS_clean_linker_0, # of connection points: 4
#     Node 34, Type 1, BuildingBlock: KUFVIS_clean_linker_0, # of connection points: 4
#     Node 35, Type 1, BuildingBlock: KUFVIS_clean_linker_0, # of connection points: 4
#     Edge 36, Type (0, 1), None
#     Edge 37, Type (0, 1), None
#     Edge 38, Type (0, 1), None
#     Edge 39, Type (0, 1), None
#     Edge 40, Type (0, 1), None
#     Edge 41, Type (0, 1), None
#     Edge 42, Type (0, 1), None
#     Edge 43, Type (0, 1), None
#     Edge 44, Type (0, 1), None
#     Edge 45, Type (0, 1), None
#     Edge 46, Type (0, 1), None
#     Edge 47, Type (0, 1), None
#     Edge 48, Type (0, 1), None
#     Edge 49, Type (0, 1), None
#     Edge 50, Type (0, 1), None
#     Edge 51, Type (0, 1), None
#     Edge 52, Type (0, 1), None
#     Edge 53, Type (0, 1), None
#     Edge 54, Type (0, 1), None
#     Edge 55, Type (0, 1), None
#     Edge 56, Type (0, 1), None
#     Edge 57, Type (0, 1), None
#     Edge 58, Type (0, 1), None
#     Edge 59, Type (0, 1), None
#     Edge 60, Type (0, 1), None
#     Edge 61, Type (0, 1), None
#     Edge 62, Type (0, 1), None
#     Edge 63, Type (0, 1), None
#     Edge 64, Type (0, 1), None
#     Edge 65, Type (0, 1), None
#     Edge 66, Type (0, 1), None
#     Edge 67, Type (0, 1), None
#     Edge 68, Type (0, 1), None
#     Edge 69, Type (0, 1), None
#     Edge 70, Type (0, 1), None
#     Edge 71, Type (0, 1), None
#     Edge 72, Type (0, 1), None
#     Edge 73, Type (0, 1), None
#     Edge 74, Type (0, 1), None
#     Edge 75, Type (0, 1), None
#     Edge 76, Type (0, 1), None
#     Edge 77, Type (0, 1), None
#     Edge 78, Type (0, 1), None
#     Edge 79, Type (0, 1), None
#     Edge 80, Type (0, 1), None
#     Edge 81, Type (0, 1), None
#     Edge 82, Type (0, 1), None
#     Edge 83, Type (0, 1), None
#     Edge 84, Type (0, 1), None
#     Edge 85, Type (0, 1), None
#     Edge 86, Type (0, 1), None
#     Edge 87, Type (0, 1), None
#     Edge 88, Type (0, 1), None
#     Edge 89, Type (0, 1), None
#     Edge 90, Type (0, 1), None
#     Edge 91, Type (0, 1), None
#     Edge 92, Type (0, 1), None
#     Edge 93, Type (0, 1), None
#     Edge 94, Type (0, 1), None
#     Edge 95, Type (0, 1), None
#     Edge 96, Type (0, 1), None
#     Edge 97, Type (0, 1), None
#     Edge 98, Type (0, 1), None
#     Edge 99, Type (0, 1), None
#     Edge 100, Type (0, 1), None
#     Edge 101, Type (0, 1), None
#     Edge 102, Type (0, 1), None
#     Edge 103, Type (0, 1), None
#     Edge 104, Type (0, 1), None
#     Edge 105, Type (0, 1), None
#     Edge 106, Type (0, 1), None
#     Edge 107, Type (0, 1), None
# Relax obj value: 0.016
# Max RMSD: 0.083
# Mean RMSD: 0.062
data_MOF--net-ptr--node1-QUQFOY_clean_sbu_1--node2-KUFVIS_clean_linker_0--edge1-none
_symmetry_space_group_name_H-M    P1
_symmetry_Int_Tables_number       1
_symmetry_cell_setting            triclinic
loop_
_symmetry_equiv_pos_as_xyz
'x, y, z'
_cell_length_a     36.780073
_cell_length_b     36.761176
_cell_length_c     23.970562
_cell_angle_alpha  90.007171
_cell_angle_beta   90.007934
_cell_angle_gamma 120.00818
loop_
_atom_site_label
_atom_site_type_symbol
_atom_site_fract_x
_atom_site_fract_y
_atom_site_fract_z
_atom_type_partial_charge
O0 O 0.07526 0.45529 0.06454 0.0
Cd1 Cd 0.09228 0.42495 0.00625 0.0
Cd2 Cd 1.01009 0.3839 0.00017 0.0
O3 O 1.01415 0.39932 0.08329 0.0
O4 O 0.14792 0.4322 0.02944 0.0
O5 O 0.08729 0.37228 0.03544 0.0
C6 C 0.12696 0.39381 0.0467 0.0
C7 C 0.97538 0.31805 0.95967 0.0
C8 C 1.04354 0.43575 0.09627 0.0
C9 C 0.0589 0.44346 0.91019 0.0
O10 O 1.02718 0.4313 0.94194 0.0
O11 O 0.08823 0.43634 0.92314 0.0
O12 O 0.95444 0.33549 0.97693 0.0
O13 O 1.01505 0.33621 0.97094 0.0
O14 O 0.63036 0.63745 0.0645 0.0
Cd15 Cd 0.66071 0.68483 0.00625 0.0
Cd16 Cd 0.70174 0.64364 0.00021 0.0
O17 O 0.68626 0.63223 0.08332 0.0
O18 O 0.65343 0.73324 0.02941 0.0
O19 O 0.71333 0.73254 0.03549 0.0
C20 C 0.6918 0.75069 0.0467 0.0
C21 C 0.76755 0.67479 0.95974 0.0
C22 C 0.64984 0.6252 0.09625 0.0
C23 C 0.64224 0.63294 0.91016 0.0
O24 O 0.65438 0.61336 0.94191 0.0
O25 O 0.64934 0.6694 0.92314 0.0
O26 O 0.75012 0.63639 0.97698 0.0
O27 O 0.74941 0.69632 0.97104 0.0
O28 O 0.47208 0.05842 0.94194 0.0
Cd29 Cd 0.4418 0.07551 0.00021 0.0
Cd30 Cd 0.40061 0.99324 0.00621 0.0
O31 O 0.41609 0.99731 0.92311 0.0
O32 O 0.44909 0.1312 0.97702 0.0
O33 O 0.38917 0.07056 0.97102 0.0
C34 C 0.4107 0.11025 0.95976 0.0
C35 C 0.33478 0.9585 0.04663 0.0
C36 C 0.45253 1.02668 0.91018 0.0
C37 C 0.46019 0.04201 0.09627 0.0
O38 O 0.44795 1.01027 0.06452 0.0
O39 O 0.45319 0.07143 0.08332 0.0
O40 O 0.35221 0.93755 0.02936 0.0
O41 O 0.35293 0.99819 0.03539 0.0
O42 O 1.02238 0.61304 0.94569 0.0
Cd43 Cd 1.01091 0.64743 0.00419 0.0
Cd44 Cd 0.09134 0.68767 0.00211 0.0
O45 O 0.08063 0.66956 0.91945 0.0
O46 O 0.95577 0.64348 0.98597 0.0
O47 O 1.01793 0.7 0.97115 0.0
C48 C 0.97775 0.68036 0.964 0.0
C49 C 0.12448 0.75378 0.04231 0.0
C50 C 0.05123 0.63228 0.90982 0.0
C51 C 0.05102 0.63216 0.09647 0.0
O52 O 0.07987 0.6418 0.0606 0.0
O53 O 1.02162 0.64002 0.08685 0.0
O54 O 0.14647 0.73891 0.02034 0.0
O55 O 0.0843 0.73319 0.03516 0.0
O56 O 0.47231 0.42699 0.9457 0.0
Cd57 Cd 0.43792 0.38113 0.00419 0.0
Cd58 Cd 0.39775 0.42141 0.00208 0.0
O59 O 0.41587 0.42883 0.91943 0.0
O60 O 0.44191 0.32993 0.98602 0.0
O61 O 0.3854 0.33554 0.97114 0.0
C62 C 0.40505 0.315 0.96403 0.0
C63 C 0.33169 0.38842 0.04229 0.0
C64 C 0.45311 0.43666 0.90982 0.0
C65 C 0.45324 0.43655 0.09646 0.0
O66 O 0.44362 0.4558 0.06059 0.0
O67 O 0.44535 0.39927 0.08683 0.0
O68 O 0.34654 0.4253 0.02034 0.0
O69 O 0.35226 0.36882 0.03511 0.0
O70 O 0.62984 1.00559 0.06059 0.0
Cd71 Cd 0.66422 0.99411 0.00209 0.0
Cd72 Cd 0.70446 0.0746 0.0042 0.0
O73 O 0.68631 0.0639 0.08685 0.0
O74 O 0.66028 0.93895 0.0203 0.0
O75 O 0.71677 1.00114 0.03511 0.0
C76 C 0.69714 0.96094 0.04226 0.0
C77 C 0.77054 0.10782 0.96404 0.0
C78 C 0.64906 0.03448 0.09645 0.0
C79 C 0.64893 0.03421 0.90982 0.0
O80 O 0.6586 0.06311 0.94569 0.0
O81 O 0.65677 1.00479 0.91943 0.0
O82 O 0.75563 0.12978 0.98601 0.0
O83 O 0.75001 0.06762 0.97119 0.0
O84 O 0.74191 0.7886 0.39787 0.0
Cd85 Cd 0.75893 0.75826 0.33959 0.0
Cd86 Cd 0.67674 0.71721 0.3335 0.0
O87 O 0.6808 0.73263 0.41663 0.0
O88 O 0.81457 0.76552 0.36278 0.0
O89 O 0.75395 0.70559 0.36879 0.0
C90 C 0.79362 0.72712 0.38004 0.0
C91 C 0.64203 0.65137 0.293 0.0
C92 C 0.71019 0.76907 0.4296 0.0
C93 C 0.72555 0.77677 0.24352 0.0
O94 O 0.69384 0.76461 0.27527 0.0
O95 O 0.75488 0.76965 0.25647 0.0
O96 O 0.62109 0.66881 0.31027 0.0
O97 O 0.6817 0.66952 0.30428 0.0
O98 O 0.29705 0.97078 0.39783 0.0
Cd99 Cd 0.3274 1.01817 0.33959 0.0
Cd100 Cd 0.36843 0.97698 0.33354 0.0
O101 O 0.35295 0.96557 0.41665 0.0
O102 O 0.32012 0.06657 0.36274 0.0
O103 O 0.38002 0.06588 0.36883 0.0
C104 C 0.35849 0.08403 0.38004 0.0
C105 C 0.43424 1.00813 0.29307 0.0
C106 C 0.31653 0.95854 0.42958 0.0
C107 C 0.30893 0.96629 0.2435 0.0
O108 O 0.32107 0.9467 0.27525 0.0
O109 O 0.31604 1.00274 0.25647 0.0
O110 O 0.41681 0.96973 0.31032 0.0
O111 O 0.4161 1.02966 0.30437 0.0
O112 O 0.13873 0.39177 0.27527 0.0
Cd113 Cd 0.10846 0.40886 0.33355 0.0
Cd114 Cd 0.06727 0.32659 0.33955 0.0
O115 O 0.08275 0.33066 0.25645 0.0
O116 O 0.11574 0.46455 0.31035 0.0
O117 O 0.05583 0.40391 0.30435 0.0
C118 C 0.07736 0.4436 0.29309 0.0
C119 C 1.00144 0.29185 0.37997 0.0
C120 C 0.11919 0.36003 0.24352 0.0
C121 C 0.12685 0.37536 0.42961 0.0
O122 O 0.11461 0.34362 0.39785 0.0
O123 O 0.11985 0.40478 0.41666 0.0
O124 O 1.01887 0.2709 0.36269 0.0
O125 O 1.01959 0.33154 0.36873 0.0
O126 O 0.68906 0.94637 0.27902 0.0
Cd127 Cd 0.6776 0.98076 0.33752 0.0
Cd128 Cd 0.75803 1.021 0.33544 0.0
O129 O 0.74732 1.00288 0.25278 0.0
O130 O 0.62246 0.97681 0.3193 0.0
O131 O 0.68462 0.03332 0.30448 0.0
C132 C 0.64444 1.01368 0.29733 0.0
C133 C 0.79116 0.08711 0.37564 0.0
C134 C 0.71792 0.96561 0.24315 0.0
C135 C 0.71771 0.96549 0.4298 0.0
O136 O 0.74656 0.97513 0.39393 0.0
O137 O 0.68831 0.97335 0.42018 0.0
O138 O 0.81315 0.07224 0.35367 0.0
O139 O 0.75098 0.06652 0.36849 0.0
O140 O 0.13899 0.76035 0.27903 0.0
Cd141 Cd 0.1046 0.71448 0.33752 0.0
Cd142 Cd 0.06443 0.75476 0.33542 0.0
O143 O 0.08255 0.76219 0.25276 0.0
O144 O 0.10858 0.66328 0.31935 0.0
O145 O 0.05207 0.66889 0.30448 0.0
C146 C 0.07173 0.64836 0.29736 0.0
C147 C 0.99837 0.72178 0.37563 0.0
C148 C 0.11979 0.77002 0.24316 0.0
C149 C 0.11991 0.7699 0.4298 0.0
O150 O 0.11029 0.78915 0.39393 0.0
O151 O 0.11203 0.73262 0.42017 0.0
O152 O 1.01322 0.75866 0.35368 0.0
O153 O 1.01894 0.70217 0.36844 0.0
O154 O 0.29649 0.33891 0.39392 0.0
Cd155 Cd 0.33086 0.32742 0.33542 0.0
Cd156 Cd 0.3711 0.40792 0.33754 0.0
O157 O 0.35296 0.39722 0.42018 0.0
O158 O 0.32692 0.27227 0.35363 0.0
O159 O 0.38341 0.33446 0.36844 0.0
C160 C 0.36379 0.29426 0.37559 0.0
C161 C 0.43718 0.44113 0.29738 0.0
C162 C 0.3157 0.3678 0.42979 0.0
C163 C 0.31558 0.36753 0.24316 0.0
O164 O 0.32525 0.39642 0.27902 0.0
O165 O 0.32341 0.33811 0.25277 0.0
O166 O 0.42228 0.4631 0.31934 0.0
O167 O 0.41665 0.40093 0.30452 0.0
O168 O 0.4086 0.12194 0.7312 0.0
Cd169 Cd 0.42562 0.0916 0.67292 0.0
Cd170 Cd 0.34344 0.05055 0.66684 0.0
O171 O 0.34749 0.06597 0.74996 0.0
O172 O 0.48127 0.09886 0.69611 0.0
O173 O 0.42064 0.03894 0.70211 0.0
C174 C 0.46031 0.06046 0.71337 0.0
C175 C 0.30873 0.98471 0.62633 0.0
C176 C 0.37688 0.10241 0.76294 0.0
C177 C 0.39224 0.11012 0.57686 0.0
O178 O 0.36053 0.09796 0.60861 0.0
O179 O 0.42157 0.103 0.58981 0.0
O180 O 0.28778 1.00215 0.6436 0.0
O181 O 0.34839 1.00286 0.63761 0.0
O182 O 0.9637 0.30413 0.73116 0.0
Cd183 Cd 0.99406 0.35152 0.67292 0.0
Cd184 Cd 1.03508 0.31034 0.66687 0.0
O185 O 1.01961 0.29893 0.74998 0.0
O186 O 0.98677 0.39992 0.69607 0.0
O187 O 1.04668 0.39923 0.70216 0.0
C188 C 1.02514 0.41738 0.71337 0.0
C189 C 0.10089 0.34148 0.6264 0.0
C190 C 0.98319 0.29189 0.76291 0.0
C191 C 0.97558 0.29963 0.57683 0.0
O192 O 0.98772 0.28005 0.60858 0.0
O193 O 0.98269 0.33609 0.5898 0.0
O194 O 0.08346 0.30308 0.64365 0.0
O195 O 0.08275 0.36301 0.6377 0.0
O196 O 0.80539 0.72508 0.60861 0.0
Cd197 Cd 0.77511 0.74217 0.66688 0.0
Cd198 Cd 0.73392 0.6599 0.67288 0.0
O199 O 0.7494 0.66397 0.58978 0.0
O200 O 0.7824 0.79786 0.64369 0.0
O201 O 0.72248 0.73722 0.63768 0.0
C202 C 0.74402 0.77691 0.62642 0.0
C203 C 0.66809 0.62516 0.7133 0.0
C204 C 0.78585 0.69334 0.57685 0.0
C205 C 0.7935 0.70867 0.76294 0.0
O206 O 0.78126 0.67693 0.73119 0.0
O207 O 0.7865 0.73809 0.74999 0.0
O208 O 0.68552 0.60421 0.69603 0.0
O209 O 0.68624 0.66485 0.70206 0.0
O210 O 0.3557 0.27968 0.61236 0.0
Cd211 Cd 0.34423 0.31408 0.67086 0.0
Cd212 Cd 0.42467 0.35432 0.66878 0.0
O213 O 0.41396 0.3362 0.58612 0.0
O214 O 0.2891 0.31013 0.65264 0.0
O215 O 0.35126 0.36664 0.63782 0.0
C216 C 0.31108 0.347 0.63066 0.0
C217 C 0.4578 0.42042 0.70898 0.0
C218 C 0.38456 0.29893 0.57649 0.0
C219 C 0.38434 0.29881 0.76313 0.0
O220 O 0.4132 0.30844 0.72726 0.0
O221 O 0.35495 0.30667 0.75351 0.0
O222 O 0.47979 0.40556 0.687 0.0
O223 O 0.41762 0.39984 0.70182 0.0
O224 O 0.80567 0.09367 0.61236 0.0
Cd225 Cd 0.77128 0.04781 0.67085 0.0
Cd226 Cd 0.73111 0.08809 0.66875 0.0
O227 O 0.74922 0.09551 0.58609 0.0
O228 O 0.77527 0.99661 0.65268 0.0
O229 O 0.71875 1.00222 0.63781 0.0
C230 C 0.73841 0.98168 0.63069 0.0
C231 C 0.66505 0.0551 0.70896 0.0
C232 C 0.78647 0.10334 0.57649 0.0
C233 C 0.78659 0.10323 0.76313 0.0
O234 O 0.77697 0.12248 0.72726 0.0
O235 O 0.77871 0.06595 0.7535 0.0
O236 O 0.6799 0.09198 0.68701 0.0
O237 O 0.68562 0.03549 0.70177 0.0
O238 O 0.96317 0.67227 0.72726 0.0
Cd239 Cd 0.99754 0.66079 0.66876 0.0
Cd240 Cd 1.03778 0.74128 0.67087 0.0
O241 O 1.01964 0.73059 0.75352 0.0
O242 O 0.9936 0.60563 0.68697 0.0
O243 O 0.05009 0.66782 0.70178 0.0
C244 C 1.03046 0.62762 0.70893 0.0
C245 C 0.10386 0.77449 0.63071 0.0
C246 C 0.98238 0.70117 0.76312 0.0
C247 C 0.98226 0.7009 0.57649 0.0
O248 O 0.99193 0.72979 0.61236 0.0
O249 O 0.99009 0.67147 0.58611 0.0
O250 O 0.08896 0.79646 0.65268 0.0
O251 O 0.08333 0.73429 0.63786 0.0
H252 H 0.34436 0.36651 0.14181 0.0
H253 H 0.25451 0.3832 0.04753 0.0
H254 H 0.25038 0.37827 0.22836 0.0
H255 H 0.1861 0.35339 0.22467 0.0
H256 H 0.09122 0.36697 0.14421 0.0
H257 H 0.20247 0.39566 0.05223 0.0
C258 C 0.31593 0.36856 0.14012 0.0
C259 C 0.29693 0.36934 0.18978 0.0
C260 C 0.30216 0.37619 0.08932 0.0
C261 C 0.2653 0.37898 0.08762 0.0
C262 C 0.24324 0.37626 0.13753 0.0
C263 C 0.26211 0.37499 0.18857 0.0
C264 C 0.20097 0.3741 0.1377 0.0
C265 C 0.17624 0.36184 0.18688 0.0
C266 C 0.13773 0.36045 0.1893 0.0
C267 C 0.12084 0.36728 0.1414 0.0
C268 C 0.14397 0.37951 0.09181 0.0
C269 C 0.18442 0.38404 0.09017 0.0
H270 H 0.71899 0.99548 0.14182 0.0
H271 H 0.70238 0.88894 0.04747 0.0
H272 H 0.70713 0.88962 0.22831 0.0
H273 H 0.73219 0.85035 0.22462 0.0
H274 H 0.71864 0.74182 0.14424 0.0
H275 H 0.6899 0.82437 0.05218 0.0
C276 C 0.71693 0.96498 0.14012 0.0
C277 C 0.71611 0.94516 0.18977 0.0
C278 C 0.70934 0.94361 0.08929 0.0
C279 C 0.70656 0.90393 0.08757 0.0
C280 C 0.70925 0.88456 0.13748 0.0
C281 C 0.71046 0.90468 0.18853 0.0
C282 C 0.71144 0.84445 0.13765 0.0
C283 C 0.72373 0.83201 0.18684 0.0
C284 C 0.72513 0.79488 0.18929 0.0
C285 C 0.71832 0.77114 0.1414 0.0
C286 C 0.70608 0.78202 0.09179 0.0
C287 C 0.70152 0.81795 0.09013 0.0
H288 H 0.34383 0.99424 0.1442 0.0
H289 H 0.26104 0.883 0.05215 0.0
H290 H 0.23532 0.89942 0.22466 0.0
H291 H 0.19579 0.83514 0.22834 0.0
H292 H 0.08991 0.74123 0.14181 0.0
H293 H 0.19653 0.83094 0.04752 0.0
C294 C 0.31448 0.96462 0.14138 0.0
C295 C 0.29078 0.94775 0.18929 0.0
C296 C 0.30351 0.9415 0.09176 0.0
C297 C 0.26753 0.90105 0.09012 0.0
C298 C 0.24107 0.88451 0.13766 0.0
C299 C 0.25361 0.90925 0.18686 0.0
C300 C 0.2009 0.84227 0.13751 0.0
C301 C 0.18075 0.82342 0.18855 0.0
C302 C 0.14025 0.78864 0.18978 0.0
C303 C 0.12042 0.76964 0.14012 0.0
C304 C 0.14182 0.78335 0.08932 0.0
C305 C 0.18152 0.82018 0.0876 0.0
H306 H 0.3839 0.07447 0.86223 0.0
H307 H 0.41254 0.18581 0.95421 0.0
H308 H 0.37016 0.16931 0.7818 0.0
H309 H 0.39523 0.23367 0.77804 0.0
H310 H 0.3832 0.3276 0.86445 0.0
H311 H 0.39991 0.2378 0.95888 0.0
C312 C 0.38419 0.10411 0.86505 0.0
C313 C 0.37731 0.12096 0.81715 0.0
C314 C 0.39642 0.12726 0.91464 0.0
C315 C 0.40092 0.16773 0.91627 0.0
C316 C 0.39095 0.18425 0.86875 0.0
C317 C 0.37866 0.15948 0.81958 0.0
C318 C 0.39309 0.22653 0.86888 0.0
C319 C 0.39187 0.2454 0.81781 0.0
C320 C 0.38617 0.28019 0.81653 0.0
C321 C 0.3853 0.29919 0.86617 0.0
C322 C 0.3929 0.28545 0.91701 0.0
C323 C 0.39574 0.24859 0.91877 0.0
H324 H 0.75779 0.07335 0.86444 0.0
H325 H 0.84779 0.17979 0.95886 0.0
H326 H 0.85183 0.1792 0.77802 0.0
H327 H 0.91621 0.21832 0.78179 0.0
H328 H 1.01117 0.32686 0.86221 0.0
H329 H 0.89979 0.24442 0.95411 0.0
C330 C 0.78623 0.10383 0.86616 0.0
C331 C 0.80524 0.12367 0.81652 0.0
C332 C 0.80005 0.12517 0.917 0.0
C333 C 0.83695 0.16483 0.91875 0.0
C334 C 0.859 0.18421 0.86885 0.0
C335 C 0.84009 0.16413 0.81778 0.0
C336 C 0.90132 0.22429 0.86871 0.0
C337 C 0.92608 0.23668 0.81956 0.0
C338 C 0.96463 0.2738 0.81713 0.0
C339 C 0.98151 0.29755 0.86502 0.0
C340 C 0.95836 0.28672 0.91459 0.0
C341 C 0.91787 0.25081 0.91621 0.0
H342 H 0.75859 0.70165 0.86226 0.0
H343 H 0.84121 0.67295 0.95414 0.0
H344 H 0.86708 0.71535 0.78176 0.0
H345 H 0.90642 0.69038 0.77798 0.0
H346 H 1.01225 0.70223 0.86445 0.0
H347 H 0.90577 0.68554 0.95881 0.0
C348 C 0.78792 0.70135 0.86505 0.0
C349 C 0.81163 0.70823 0.81714 0.0
C350 C 0.79883 0.6891 0.91462 0.0
C351 C 0.83477 0.68459 0.91622 0.0
C352 C 0.86124 0.69457 0.86869 0.0
C353 C 0.84877 0.70686 0.81954 0.0
C354 C 0.90136 0.69243 0.86882 0.0
C355 C 0.92147 0.69368 0.81776 0.0
C356 C 0.96194 0.69935 0.81651 0.0
C357 C 0.98176 0.70016 0.86616 0.0
C358 C 0.96041 0.69255 0.91698 0.0
C359 C 0.92075 0.68973 0.91871 0.0
H360 H 1.01104 0.69988 0.47515 0.0
H361 H 0.92117 0.71654 0.38087 0.0
H362 H 0.91706 0.71162 0.5617 0.0
H363 H 0.85277 0.68671 0.55801 0.0
H364 H 0.75787 0.70027 0.47754 0.0
H365 H 0.86913 0.72899 0.38557 0.0
C366 C 0.98261 0.70193 0.47346 0.0
C367 C 0.96361 0.7027 0.52312 0.0
C368 C 0.96884 0.70955 0.42266 0.0
C369 C 0.93197 0.71233 0.42096 0.0
C370 C 0.90991 0.7096 0.47087 0.0
C371 C 0.92879 0.70834 0.52191 0.0
C372 C 0.86764 0.70743 0.47103 0.0
C373 C 0.84291 0.69516 0.52021 0.0
C374 C 0.80439 0.69377 0.52264 0.0
C375 C 0.7875 0.70059 0.47474 0.0
C376 C 0.81062 0.71282 0.42514 0.0
C377 C 0.85108 0.71737 0.42351 0.0
H378 H 0.38562 0.32879 0.47515 0.0
H379 H 0.36904 0.22226 0.3808 0.0
H380 H 0.37378 0.22295 0.56164 0.0
H381 H 0.39886 0.18369 0.55796 0.0
H382 H 0.38534 0.07517 0.47757 0.0
H383 H 0.35656 0.15769 0.38552 0.0
C384 C 0.38357 0.2983 0.47345 0.0
C385 C 0.38275 0.27848 0.5231 0.0
C386 C 0.37599 0.27693 0.42263 0.0
C387 C 0.37321 0.23726 0.4209 0.0
C388 C 0.3759 0.21789 0.47081 0.0
C389 C 0.37711 0.238 0.52186 0.0
C390 C 0.37811 0.17779 0.47098 0.0
C391 C 0.39041 0.16535 0.52018 0.0
C392 C 0.39182 0.12822 0.52263 0.0
C393 C 0.38501 0.10449 0.47474 0.0
C394 C 0.37276 0.11536 0.42513 0.0
C395 C 0.3682 0.15128 0.42347 0.0
H396 H 1.01048 0.32759 0.47753 0.0
H397 H 0.92771 0.21634 0.38549 0.0
H398 H 0.90197 0.23276 0.55799 0.0
H399 H 0.86246 0.16848 0.56168 0.0
H400 H 0.7566 0.07455 0.47514 0.0
H401 H 0.8632 0.16428 0.38085 0.0
C402 C 0.98113 0.29797 0.47471 0.0
C403 C 0.95744 0.28109 0.52262 0.0
C404 C 0.97017 0.27485 0.4251 0.0
C405 C 0.9342 0.23439 0.42345 0.0
C406 C 0.90774 0.21786 0.47099 0.0
C407 C 0.92026 0.24259 0.52019 0.0
C408 C 0.86757 0.1756 0.47084 0.0
C409 C 0.84742 0.15675 0.52188 0.0
C410 C 0.80692 0.12197 0.52311 0.0
C411 C 0.7871 0.10296 0.47345 0.0
C412 C 0.8085 0.11668 0.42265 0.0
C413 C 0.84819 0.15352 0.42094 0.0
H414 H 0.05055 0.40782 0.19557 0.0
H415 H 0.07921 0.51916 0.28754 0.0
H416 H 1.03682 0.50266 0.11513 0.0
H417 H 0.0619 0.56702 0.11138 0.0
H418 H 0.04988 0.66096 0.19778 0.0
H419 H 0.06658 0.57115 0.29221 0.0
C420 C 0.05084 0.43745 0.19838 0.0
C421 C 1.04397 0.45431 0.15048 0.0
C422 C 0.06307 0.4606 0.24798 0.0
C423 C 0.06758 0.50108 0.24961 0.0
C424 C 0.05762 0.5176 0.20208 0.0
C425 C 1.04532 0.49283 0.15291 0.0
C426 C 0.05976 0.55988 0.20221 0.0
C427 C 0.05854 0.57875 0.15114 0.0
C428 C 0.05284 0.61355 0.14987 0.0
C429 C 0.05197 0.63255 0.1995 0.0
C430 C 0.05957 0.6188 0.25034 0.0
C431 C 0.0624 0.58195 0.2521 0.0
H432 H 0.42443 0.40667 0.19777 0.0
H433 H 0.51444 0.51311 0.29219 0.0
H434 H 0.51848 0.51252 0.11135 0.0
H435 H 0.58286 0.55163 0.11513 0.0
H436 H 0.67782 0.66017 0.19555 0.0
H437 H 0.56644 0.57774 0.28745 0.0
C438 C 0.45288 0.43715 0.19949 0.0
C439 C 0.47188 0.45699 0.14985 0.0
C440 C 0.46669 0.45849 0.25033 0.0
C441 C 0.50359 0.49814 0.25208 0.0
C442 C 0.52565 0.51753 0.20218 0.0
C443 C 0.50673 0.49745 0.15112 0.0
C444 C 0.56797 0.5576 0.20204 0.0
C445 C 0.59273 0.56999 0.15289 0.0
C446 C 0.63128 0.60711 0.15047 0.0
C447 C 0.64816 0.63086 0.19836 0.0
C448 C 0.62501 0.62003 0.24793 0.0
C449 C 0.58452 0.58412 0.24954 0.0
H450 H 0.42529 0.035 0.19559 0.0
H451 H 0.5079 1.00628 0.28747 0.0
H452 H 0.53377 0.04869 0.11509 0.0
H453 H 0.5731 1.0237 0.11131 0.0
H454 H 0.67893 0.03555 0.19778 0.0
H455 H 0.57245 1.01887 0.29214 0.0
C456 C 0.45461 0.0347 0.19838 0.0
C457 C 0.47832 0.04157 0.15048 0.0
C458 C 0.46552 1.02244 0.24796 0.0
C459 C 0.50145 1.01792 0.24956 0.0
C460 C 0.52793 1.0279 0.20203 0.0
C461 C 0.51546 0.0402 0.15288 0.0
C462 C 0.56804 1.02575 0.20215 0.0
C463 C 0.58815 1.02701 0.15109 0.0
C464 C 0.62862 0.03267 0.14984 0.0
C465 C 0.64844 0.03348 0.19948 0.0
C466 C 0.62709 1.02587 0.25031 0.0
C467 C 0.58743 1.02306 0.25204 0.0
H468 H 0.67772 0.03319 0.80847 0.0
H469 H 0.58786 0.04987 0.7142 0.0
H470 H 0.58374 0.04495 0.89503 0.0
H471 H 0.51945 1.02005 0.89134 0.0
H472 H 0.42456 0.03362 0.81088 0.0
H473 H 0.53582 0.06232 0.7189 0.0
C474 C 0.64929 0.03524 0.80679 0.0
C475 C 0.63028 0.03602 0.85645 0.0
C476 C 0.63552 0.04287 0.75599 0.0
C477 C 0.59865 0.04565 0.75429 0.0
C478 C 0.57659 0.04293 0.8042 0.0
C479 C 0.59546 0.04166 0.85524 0.0
C480 C 0.53432 0.04077 0.80436 0.0
C481 C 0.50959 1.0285 0.85355 0.0
C482 C 0.47107 1.02711 0.85597 0.0
C483 C 0.45419 0.03393 0.80807 0.0
C484 C 0.47731 0.04617 0.75847 0.0
C485 C 0.51777 0.0507 0.75684 0.0
H486 H 0.0523 0.66215 0.80849 0.0
H487 H 1.03571 0.55562 0.71414 0.0
H488 H 1.04045 0.5563 0.89498 0.0
H489 H 0.06552 0.51704 0.89129 0.0
H490 H 0.05199 0.40851 0.8109 0.0
H491 H 1.02323 0.49105 0.71885 0.0
C492 C 0.05024 0.63166 0.80679 0.0
C493 C 0.04942 0.61183 0.85644 0.0
C494 C 1.04266 0.61028 0.75596 0.0
C495 C 1.03988 0.57061 0.75424 0.0
C496 C 1.04257 0.55124 0.80415 0.0
C497 C 1.04378 0.57135 0.8552 0.0
C498 C 1.04477 0.51114 0.80432 0.0
C499 C 0.05707 0.4987 0.85351 0.0
C500 C 0.05847 0.46157 0.85596 0.0
C501 C 0.05166 0.43784 0.80807 0.0
C502 C 1.03942 0.4487 0.75846 0.0
C503 C 1.03486 0.48463 0.7568 0.0
H504 H 0.67714 0.6609 0.81086 0.0
H505 H 0.59436 0.54965 0.71882 0.0
H506 H 0.56863 0.56607 0.89132 0.0
H507 H 0.52911 0.50179 0.89501 0.0
H508 H 0.42324 0.40787 0.80848 0.0
H509 H 0.52984 0.49759 0.71418 0.0
C510 C 0.64779 0.63128 0.80805 0.0
C511 C 0.62409 0.6144 0.85595 0.0
C512 C 0.63683 0.60816 0.75843 0.0
C513 C 0.60085 0.5677 0.75678 0.0
C514 C 0.57439 0.55117 0.80433 0.0
C515 C 0.58692 0.57591 0.85352 0.0
C516 C 0.53422 0.50892 0.80417 0.0
C517 C 0.51407 0.49007 0.85522 0.0
C518 C 0.47357 0.45529 0.85644 0.0
C519 C 0.45375 0.43628 0.80679 0.0
C520 C 0.47514 0.45 0.75598 0.0
C521 C 0.51483 0.48683 0.75427 0.0
H522 H 0.7172 0.74113 0.5289 0.0
H523 H 0.74588 0.85248 0.62087 0.0
H524 H 0.70348 0.83598 0.44847 0.0
H525 H 0.72858 0.90034 0.44471 0.0
H526 H 0.71657 0.99429 0.53111 0.0
H527 H 0.73325 0.90447 0.62554 0.0
C528 C 0.7175 0.77077 0.53171 0.0
C529 C 0.71063 0.78763 0.48382 0.0
C530 C 0.72973 0.79392 0.58131 0.0
C531 C 0.73425 0.83439 0.58294 0.0
C532 C 0.72428 0.85092 0.53541 0.0
C533 C 0.71198 0.82615 0.48625 0.0
C534 C 0.72643 0.8932 0.53554 0.0
C535 C 0.72522 0.91207 0.48447 0.0
C536 C 0.71952 0.94687 0.48319 0.0
C537 C 0.71866 0.96588 0.53283 0.0
C538 C 0.72625 0.95213 0.58367 0.0
C539 C 0.72908 0.91527 0.58543 0.0
H540 H 0.0911 0.74003 0.53111 0.0
H541 H 0.18113 0.84646 0.62553 0.0
H542 H 0.18516 0.84587 0.44469 0.0
H543 H 0.24954 0.88497 0.44846 0.0
H544 H 0.34452 0.99351 0.52888 0.0
H545 H 0.23313 0.91109 0.62078 0.0
C546 C 0.11955 0.77051 0.53283 0.0
C547 C 0.13856 0.79034 0.48319 0.0
C548 C 0.13337 0.79185 0.58367 0.0
C549 C 0.17028 0.8315 0.58542 0.0
C550 C 0.19234 0.85088 0.53552 0.0
C551 C 0.17342 0.8308 0.48445 0.0
C552 C 0.23465 0.89095 0.53538 0.0
C553 C 0.25942 0.90333 0.48623 0.0
C554 C 0.29797 0.94045 0.4838 0.0
C555 C 0.31486 0.9642 0.53169 0.0
C556 C 0.2917 0.95337 0.58126 0.0
C557 C 0.25121 0.91747 0.58288 0.0
H558 H 0.09195 0.36835 0.52892 0.0
H559 H 0.17455 0.33962 0.6208 0.0
H560 H 0.20042 0.38202 0.44842 0.0
H561 H 0.23975 0.35703 0.44464 0.0
H562 H 0.34557 0.36886 0.53111 0.0
H563 H 0.2391 0.3522 0.62548 0.0
C564 C 0.12127 0.36805 0.53171 0.0
C565 C 0.14498 0.37492 0.48381 0.0
C566 C 0.13217 0.35579 0.58129 0.0
C567 C 0.16811 0.35126 0.58289 0.0
C568 C 0.19458 0.36124 0.53536 0.0
C569 C 0.18211 0.37354 0.48621 0.0
C570 C 0.23469 0.35908 0.53548 0.0
C571 C 0.2548 0.36033 0.48442 0.0
C572 C 0.29526 0.36599 0.48317 0.0
C573 C 0.31509 0.3668 0.53282 0.0
C574 C 0.29373 0.35919 0.58364 0.0
C575 C 0.25407 0.35639 0.58538 0.0
loop_
_geom_bond_atom_site_label_1
_geom_bond_atom_site_label_2
_geom_bond_distance
_geom_bond_site_symmetry_2
_ccdc_geom_bond_type
O0 Cd1 2.223 . S
O0 C8 1.315 . S
Cd1 O0 2.223 . S
Cd1 O4 2.297 . S
Cd1 O5 2.439 . S
Cd1 O11 2.240 1_554 S
Cd2 O3 2.240 . S
Cd2 O10 2.223 1_554 S
Cd2 O12 2.297 1_554 S
Cd2 O13 2.439 1_554 S
O3 Cd2 2.240 . S
O3 C8 1.279 1_655 S
O4 Cd1 2.297 . S
O4 C6 1.247 . S
O5 Cd1 2.439 . S
O5 C6 1.208 . S
C6 O4 1.247 . S
C6 O5 1.208 . S
C7 O12 1.247 . S
C7 O13 1.208 . S
C8 O0 1.315 . S
C8 O3 1.279 1_455 S
C9 O10 1.315 . S
C9 O11 1.279 1_655 S
O10 Cd2 2.223 1_556 S
O10 C9 1.315 . S
O11 Cd1 2.240 1_556 S
O11 C9 1.279 1_455 S
O12 Cd2 2.297 1_556 S
O12 C7 1.247 . S
O13 Cd2 2.439 1_556 S
O13 C7 1.208 . S
O14 Cd15 2.223 . S
O14 C22 1.315 . S
Cd15 O14 2.223 . S
Cd15 O18 2.297 . S
Cd15 O19 2.439 . S
Cd15 O25 2.240 1_554 S
Cd16 O17 2.240 . S
Cd16 O24 2.223 1_554 S
Cd16 O26 2.297 1_554 S
Cd16 O27 2.439 1_554 S
O17 Cd16 2.240 . S
O17 C22 1.279 . S
O18 Cd15 2.297 . S
O18 C20 1.247 . S
O19 Cd15 2.439 . S
O19 C20 1.208 . S
C20 O18 1.247 . S
C20 O19 1.208 . S
C21 O26 1.247 . S
C21 O27 1.208 . S
C22 O14 1.315 . S
C22 O17 1.279 . S
C23 O24 1.315 . S
C23 O25 1.279 . S
O24 Cd16 2.223 1_556 S
O24 C23 1.315 . S
O25 Cd15 2.240 1_556 S
O25 C23 1.279 . S
O26 Cd16 2.297 1_556 S
O26 C21 1.247 . S
O27 Cd16 2.439 1_556 S
O27 C21 1.208 . S
O28 Cd29 2.223 1_556 S
O28 C36 1.315 . S
Cd29 O28 2.223 1_554 S
Cd29 O32 2.297 1_554 S
Cd29 O33 2.439 1_554 S
Cd29 O39 2.240 . S
Cd30 O31 2.240 1_554 S
Cd30 O38 2.223 . S
Cd30 O40 2.297 . S
Cd30 O41 2.439 . S
O31 Cd30 2.240 1_556 S
O31 C36 1.279 1_565 S
O32 Cd29 2.297 1_556 S
O32 C34 1.247 . S
O33 Cd29 2.439 1_556 S
O33 C34 1.208 . S
C34 O32 1.247 . S
C34 O33 1.208 . S
C35 O40 1.247 . S
C35 O41 1.208 . S
C36 O28 1.315 . S
C36 O31 1.279 1_545 S
C37 O38 1.315 . S
C37 O39 1.279 1_565 S
O38 Cd30 2.223 . S
O38 C37 1.315 . S
O39 Cd29 2.240 . S
O39 C37 1.279 1_545 S
O40 Cd30 2.297 . S
O40 C35 1.247 . S
O41 Cd30 2.439 . S
O41 C35 1.208 . S
O42 Cd43 2.223 1_556 S
O42 C50 1.315 . S
Cd43 O42 2.223 1_554 S
Cd43 O46 2.297 1_554 S
Cd43 O47 2.439 1_554 S
Cd43 O53 2.240 . S
Cd44 O45 2.240 1_554 S
Cd44 O52 2.223 . S
Cd44 O54 2.297 . S
Cd44 O55 2.439 . S
O45 Cd44 2.240 1_556 S
O45 C50 1.279 1_455 S
O46 Cd43 2.297 1_556 S
O46 C48 1.247 . S
O47 Cd43 2.439 1_556 S
O47 C48 1.208 . S
C48 O46 1.247 . S
C48 O47 1.208 . S
C49 O54 1.247 . S
C49 O55 1.208 . S
C50 O42 1.315 . S
C50 O45 1.279 1_655 S
C51 O52 1.315 . S
C51 O53 1.279 1_455 S
O52 Cd44 2.223 . S
O52 C51 1.315 . S
O53 Cd43 2.240 . S
O53 C51 1.279 1_655 S
O54 Cd44 2.297 . S
O54 C49 1.247 . S
O55 Cd44 2.439 . S
O55 C49 1.208 . S
O56 Cd57 2.223 1_556 S
O56 C64 1.315 . S
Cd57 O56 2.223 1_554 S
Cd57 O60 2.297 1_554 S
Cd57 O61 2.439 1_554 S
Cd57 O67 2.240 . S
Cd58 O59 2.240 1_554 S
Cd58 O66 2.223 . S
Cd58 O68 2.297 . S
Cd58 O69 2.439 . S
O59 Cd58 2.240 1_556 S
O59 C64 1.279 . S
O60 Cd57 2.297 1_556 S
O60 C62 1.247 . S
O61 Cd57 2.439 1_556 S
O61 C62 1.208 . S
C62 O60 1.247 . S
C62 O61 1.208 . S
C63 O68 1.247 . S
C63 O69 1.208 . S
C64 O56 1.315 . S
C64 O59 1.279 . S
C65 O66 1.315 . S
C65 O67 1.279 . S
O66 Cd58 2.223 . S
O66 C65 1.315 . S
O67 Cd57 2.240 . S
O67 C65 1.279 . S
O68 Cd58 2.297 . S
O68 C63 1.247 . S
O69 Cd58 2.439 . S
O69 C63 1.208 . S
O70 Cd71 2.223 . S
O70 C78 1.315 . S
Cd71 O70 2.223 . S
Cd71 O74 2.297 . S
Cd71 O75 2.439 . S
Cd71 O81 2.240 1_554 S
Cd72 O73 2.240 . S
Cd72 O80 2.223 1_554 S
Cd72 O82 2.297 1_554 S
Cd72 O83 2.439 1_554 S
O73 Cd72 2.240 . S
O73 C78 1.279 1_545 S
O74 Cd71 2.297 . S
O74 C76 1.247 . S
O75 Cd71 2.439 . S
O75 C76 1.208 . S
C76 O74 1.247 . S
C76 O75 1.208 . S
C77 O82 1.247 . S
C77 O83 1.208 . S
C78 O70 1.315 . S
C78 O73 1.279 1_565 S
C79 O80 1.315 . S
C79 O81 1.279 1_545 S
O80 Cd72 2.223 1_556 S
O80 C79 1.315 . S
O81 Cd71 2.240 1_556 S
O81 C79 1.279 1_565 S
O82 Cd72 2.297 1_556 S
O82 C77 1.247 . S
O83 Cd72 2.439 1_556 S
O83 C77 1.208 . S
O84 Cd85 2.223 . S
O84 C92 1.315 . S
Cd85 O84 2.223 . S
Cd85 O88 2.297 . S
Cd85 O89 2.439 . S
Cd85 O95 2.240 . S
Cd86 O87 2.240 . S
Cd86 O94 2.223 . S
Cd86 O96 2.297 . S
Cd86 O97 2.439 . S
O87 Cd86 2.240 . S
O87 C92 1.279 . S
O88 Cd85 2.297 . S
O88 C90 1.247 . S
O89 Cd85 2.439 . S
O89 C90 1.208 . S
C90 O88 1.247 . S
C90 O89 1.208 . S
C91 O96 1.247 . S
C91 O97 1.208 . S
C92 O84 1.315 . S
C92 O87 1.279 . S
C93 O94 1.315 . S
C93 O95 1.279 . S
O94 Cd86 2.223 . S
O94 C93 1.315 . S
O95 Cd85 2.240 . S
O95 C93 1.279 . S
O96 Cd86 2.297 . S
O96 C91 1.247 . S
O97 Cd86 2.439 . S
O97 C91 1.208 . S
O98 Cd99 2.219 1_565 S
O98 C106 1.315 . S
Cd99 O98 2.219 1_545 S
Cd99 O102 2.302 . S
Cd99 O103 2.441 . S
Cd99 O109 2.235 1_545 S
Cd100 O101 2.240 . S
Cd100 O108 2.223 . S
Cd100 O110 2.297 . S
Cd100 O111 2.439 1_565 S
O101 Cd100 2.240 . S
O101 C106 1.279 . S
O102 Cd99 2.302 . S
O102 C104 1.247 . S
O103 Cd99 2.441 . S
O103 C104 1.208 . S
C104 O102 1.247 . S
C104 O103 1.208 . S
C105 O110 1.247 . S
C105 O111 1.208 1_565 S
C106 O98 1.315 . S
C106 O101 1.279 . S
C107 O108 1.315 . S
C107 O109 1.279 . S
O108 Cd100 2.223 . S
O108 C107 1.315 . S
O109 Cd99 2.235 1_565 S
O109 C107 1.279 . S
O110 Cd100 2.297 . S
O110 C105 1.247 . S
O111 Cd100 2.439 1_545 S
O111 C105 1.208 1_545 S
O112 Cd113 2.223 . S
O112 C120 1.315 . S
Cd113 O112 2.223 . S
Cd113 O116 2.297 . S
Cd113 O117 2.439 . S
Cd113 O123 2.240 . S
Cd114 O115 2.240 . S
Cd114 O122 2.223 . S
Cd114 O124 2.297 1_455 S
Cd114 O125 2.439 1_455 S
O115 Cd114 2.240 . S
O115 C120 1.279 . S
O116 Cd113 2.297 . S
O116 C118 1.247 . S
O117 Cd113 2.439 . S
O117 C118 1.208 . S
C118 O116 1.247 . S
C118 O117 1.208 . S
C119 O124 1.247 . S
C119 O125 1.208 . S
C120 O112 1.315 . S
C120 O115 1.279 . S
C121 O122 1.315 . S
C121 O123 1.279 . S
O122 Cd114 2.223 . S
O122 C121 1.315 . S
O123 Cd113 2.240 . S
O123 C121 1.279 . S
O124 Cd114 2.297 1_655 S
O124 C119 1.247 . S
O125 Cd114 2.439 1_655 S
O125 C119 1.208 . S
O126 Cd127 2.223 . S
O126 C134 1.315 . S
Cd127 O126 2.223 . S
Cd127 O130 2.297 . S
Cd127 O131 2.439 1_565 S
Cd127 O137 2.240 . S
Cd128 O129 2.238 1_545 S
Cd128 O136 2.216 1_545 S
Cd128 O138 2.301 . S
Cd128 O139 2.447 . S
O129 Cd128 2.238 1_565 S
O129 C134 1.279 . S
O130 Cd127 2.297 . S
O130 C132 1.247 . S
O131 Cd127 2.439 1_545 S
O131 C132 1.208 1_545 S
C132 O130 1.247 . S
C132 O131 1.208 1_565 S
C133 O138 1.247 . S
C133 O139 1.208 . S
C134 O126 1.315 . S
C134 O129 1.279 . S
C135 O136 1.315 . S
C135 O137 1.279 . S
O136 Cd128 2.216 1_565 S
O136 C135 1.315 . S
O137 Cd127 2.240 . S
O137 C135 1.279 . S
O138 Cd128 2.301 . S
O138 C133 1.247 . S
O139 Cd128 2.447 . S
O139 C133 1.208 . S
O140 Cd141 2.223 . S
O140 C148 1.315 . S
Cd141 O140 2.223 . S
Cd141 O144 2.297 . S
Cd141 O145 2.439 . S
Cd141 O151 2.240 . S
Cd142 O143 2.240 . S
Cd142 O150 2.223 . S
Cd142 O152 2.297 1_455 S
Cd142 O153 2.439 1_455 S
O143 Cd142 2.240 . S
O143 C148 1.279 . S
O144 Cd141 2.297 . S
O144 C146 1.247 . S
O145 Cd141 2.439 . S
O145 C146 1.208 . S
C146 O144 1.247 . S
C146 O145 1.208 . S
C147 O152 1.247 . S
C147 O153 1.208 . S
C148 O140 1.315 . S
C148 O143 1.279 . S
C149 O150 1.315 . S
C149 O151 1.279 . S
O150 Cd142 2.223 . S
O150 C149 1.315 . S
O151 Cd141 2.240 . S
O151 C149 1.279 . S
O152 Cd142 2.297 1_655 S
O152 C147 1.247 . S
O153 Cd142 2.439 1_655 S
O153 C147 1.208 . S
O154 Cd155 2.223 . S
O154 C162 1.315 . S
Cd155 O154 2.223 . S
Cd155 O158 2.297 . S
Cd155 O159 2.439 . S
Cd155 O165 2.240 . S
Cd156 O157 2.240 . S
Cd156 O164 2.223 . S
Cd156 O166 2.297 . S
Cd156 O167 2.439 . S
O157 Cd156 2.240 . S
O157 C162 1.279 . S
O158 Cd155 2.297 . S
O158 C160 1.247 . S
O159 Cd155 2.439 . S
O159 C160 1.208 . S
C160 O158 1.247 . S
C160 O159 1.208 . S
C161 O166 1.247 . S
C161 O167 1.208 . S
C162 O154 1.315 . S
C162 O157 1.279 . S
C163 O164 1.315 . S
C163 O165 1.279 . S
O164 Cd156 2.223 . S
O164 C163 1.315 . S
O165 Cd155 2.240 . S
O165 C163 1.279 . S
O166 Cd156 2.297 . S
O166 C161 1.247 . S
O167 Cd156 2.439 . S
O167 C161 1.208 . S
O168 Cd169 2.223 . S
O168 C176 1.315 . S
Cd169 O168 2.223 . S
Cd169 O172 2.297 . S
Cd169 O173 2.439 . S
Cd169 O179 2.240 . S
Cd170 O171 2.240 . S
Cd170 O178 2.223 . S
Cd170 O180 2.297 1_545 S
Cd170 O181 2.439 1_545 S
O171 Cd170 2.240 . S
O171 C176 1.279 . S
O172 Cd169 2.297 . S
O172 C174 1.247 . S
O173 Cd169 2.439 . S
O173 C174 1.208 . S
C174 O172 1.247 . S
C174 O173 1.208 . S
C175 O180 1.247 . S
C175 O181 1.208 . S
C176 O168 1.315 . S
C176 O171 1.279 . S
C177 O178 1.315 . S
C177 O179 1.279 . S
O178 Cd170 2.223 . S
O178 C177 1.315 . S
O179 Cd169 2.240 . S
O179 C177 1.279 . S
O180 Cd170 2.297 1_565 S
O180 C175 1.247 . S
O181 Cd170 2.439 1_565 S
O181 C175 1.208 . S
O182 Cd183 2.223 . S
O182 C190 1.315 . S
Cd183 O182 2.223 . S
Cd183 O186 2.297 . S
Cd183 O187 2.439 1_655 S
Cd183 O193 2.240 . S
Cd184 O185 2.230 1_455 S
Cd184 O192 2.215 1_455 S
Cd184 O194 2.307 . S
Cd184 O195 2.443 . S
O185 Cd184 2.230 1_655 S
O185 C190 1.279 . S
O186 Cd183 2.297 . S
O186 C188 1.247 . S
O187 Cd183 2.439 1_455 S
O187 C188 1.208 1_455 S
C188 O186 1.247 . S
C188 O187 1.208 1_655 S
C189 O194 1.247 . S
C189 O195 1.208 . S
C190 O182 1.315 . S
C190 O185 1.279 . S
C191 O192 1.315 . S
C191 O193 1.279 . S
O192 Cd184 2.215 1_655 S
O192 C191 1.315 . S
O193 Cd183 2.240 . S
O193 C191 1.279 . S
O194 Cd184 2.307 . S
O194 C189 1.247 . S
O195 Cd184 2.443 . S
O195 C189 1.208 . S
O196 Cd197 2.223 . S
O196 C204 1.315 . S
Cd197 O196 2.223 . S
Cd197 O200 2.297 . S
Cd197 O201 2.439 . S
Cd197 O207 2.240 . S
Cd198 O199 2.240 . S
Cd198 O206 2.223 . S
Cd198 O208 2.297 . S
Cd198 O209 2.439 . S
O199 Cd198 2.240 . S
O199 C204 1.279 . S
O200 Cd197 2.297 . S
O200 C202 1.247 . S
O201 Cd197 2.439 . S
O201 C202 1.208 . S
C202 O200 1.247 . S
C202 O201 1.208 . S
C203 O208 1.247 . S
C203 O209 1.208 . S
C204 O196 1.315 . S
C204 O199 1.279 . S
C205 O206 1.315 . S
C205 O207 1.279 . S
O206 Cd198 2.223 . S
O206 C205 1.315 . S
O207 Cd197 2.240 . S
O207 C205 1.279 . S
O208 Cd198 2.297 . S
O208 C203 1.247 . S
O209 Cd198 2.439 . S
O209 C203 1.208 . S
O210 Cd211 2.223 . S
O210 C218 1.315 . S
Cd211 O210 2.223 . S
Cd211 O214 2.297 . S
Cd211 O215 2.439 . S
Cd211 O221 2.240 . S
Cd212 O213 2.240 . S
Cd212 O220 2.223 . S
Cd212 O222 2.297 . S
Cd212 O223 2.439 . S
O213 Cd212 2.240 . S
O213 C218 1.279 . S
O214 Cd211 2.297 . S
O214 C216 1.247 . S
O215 Cd211 2.439 . S
O215 C216 1.208 . S
C216 O214 1.247 . S
C216 O215 1.208 . S
C217 O222 1.247 . S
C217 O223 1.208 . S
C218 O210 1.315 . S
C218 O213 1.279 . S
C219 O220 1.315 . S
C219 O221 1.279 . S
O220 Cd212 2.223 . S
O220 C219 1.315 . S
O221 Cd211 2.240 . S
O221 C219 1.279 . S
O222 Cd212 2.297 . S
O222 C217 1.247 . S
O223 Cd212 2.439 . S
O223 C217 1.208 . S
O224 Cd225 2.223 . S
O224 C232 1.315 . S
Cd225 O224 2.223 . S
Cd225 O228 2.297 1_545 S
Cd225 O229 2.439 1_545 S
Cd225 O235 2.240 . S
Cd226 O227 2.240 . S
Cd226 O234 2.223 . S
Cd226 O236 2.297 . S
Cd226 O237 2.439 . S
O227 Cd226 2.240 . S
O227 C232 1.279 . S
O228 Cd225 2.297 1_565 S
O228 C230 1.247 . S
O229 Cd225 2.439 1_565 S
O229 C230 1.208 . S
C230 O228 1.247 . S
C230 O229 1.208 . S
C231 O236 1.247 . S
C231 O237 1.208 . S
C232 O224 1.315 . S
C232 O227 1.279 . S
C233 O234 1.315 . S
C233 O235 1.279 . S
O234 Cd226 2.223 . S
O234 C233 1.315 . S
O235 Cd225 2.240 . S
O235 C233 1.279 . S
O236 Cd226 2.297 . S
O236 C231 1.247 . S
O237 Cd226 2.439 . S
O237 C231 1.208 . S
O238 Cd239 2.223 . S
O238 C246 1.315 . S
Cd239 O238 2.223 . S
Cd239 O242 2.297 . S
Cd239 O243 2.439 1_655 S
Cd239 O249 2.240 . S
Cd240 O241 2.238 1_455 S
Cd240 O248 2.214 1_455 S
Cd240 O250 2.302 . S
Cd240 O251 2.449 . S
O241 Cd240 2.238 1_655 S
O241 C246 1.279 . S
O242 Cd239 2.297 . S
O242 C244 1.247 . S
O243 Cd239 2.439 1_455 S
O243 C244 1.208 1_455 S
C244 O242 1.247 . S
C244 O243 1.208 1_655 S
C245 O250 1.247 . S
C245 O251 1.208 . S
C246 O238 1.315 . S
C246 O241 1.279 . S
C247 O248 1.315 . S
C247 O249 1.279 . S
O248 Cd240 2.214 1_655 S
O248 C247 1.315 . S
O249 Cd239 2.240 . S
O249 C247 1.279 . S
O250 Cd240 2.302 . S
O250 C245 1.247 . S
O251 Cd240 2.449 . S
O251 C245 1.208 . S
H252 C258 0.930 . S
H253 C261 0.931 . S
H254 C263 0.931 . S
H255 C265 0.930 . S
H256 C267 0.930 . S
H257 C269 0.931 . S
C258 H252 0.930 . S
C258 C259 1.380 . S
C258 C260 1.394 . S
C259 C258 1.380 . S
C259 C263 1.382 . S
C260 C258 1.394 . S
C260 C261 1.400 . S
C261 H253 0.931 . S
C261 C260 1.400 . S
C261 C262 1.375 . S
C262 C261 1.375 . S
C262 C263 1.415 . S
C262 C264 1.501 . S
C263 H254 0.931 . S
C263 C259 1.382 . S
C263 C262 1.415 . S
C264 C262 1.501 . S
C264 C265 1.384 . S
C264 C269 1.408 . S
C265 H255 0.930 . S
C265 C264 1.384 . S
C265 C266 1.389 . S
C266 C265 1.389 . S
C266 C267 1.405 . S
C267 H256 0.930 . S
C267 C266 1.405 . S
C267 C268 1.364 . S
C268 C267 1.364 . S
C268 C269 1.400 . S
C269 H257 0.931 . S
C269 C264 1.408 . S
C269 C268 1.400 . S
H270 C276 0.930 . S
H271 C279 0.931 . S
H272 C281 0.931 . S
H273 C283 0.930 . S
H274 C285 0.930 . S
H275 C287 0.931 . S
C276 H270 0.930 . S
C276 C277 1.380 . S
C276 C278 1.394 . S
C277 C276 1.380 . S
C277 C281 1.382 . S
C278 C276 1.394 . S
C278 C279 1.400 . S
C279 H271 0.931 . S
C279 C278 1.400 . S
C279 C280 1.375 . S
C280 C279 1.375 . S
C280 C281 1.415 . S
C280 C282 1.501 . S
C281 H272 0.931 . S
C281 C277 1.382 . S
C281 C280 1.415 . S
C282 C280 1.501 . S
C282 C283 1.384 . S
C282 C287 1.408 . S
C283 H273 0.930 . S
C283 C282 1.384 . S
C283 C284 1.389 . S
C284 C283 1.389 . S
C284 C285 1.405 . S
C285 H274 0.930 . S
C285 C284 1.405 . S
C285 C286 1.364 . S
C286 C285 1.364 . S
C286 C287 1.400 . S
C287 H275 0.931 . S
C287 C282 1.408 . S
C287 C286 1.400 . S
H288 C294 0.930 . S
H289 C297 0.931 . S
H290 C299 0.931 . S
H291 C301 0.930 . S
H292 C303 0.930 . S
H293 C305 0.931 . S
C294 H288 0.930 . S
C294 C295 1.380 . S
C294 C296 1.394 . S
C295 C294 1.380 . S
C295 C299 1.382 . S
C296 C294 1.394 . S
C296 C297 1.400 . S
C297 H289 0.931 . S
C297 C296 1.400 . S
C297 C298 1.375 . S
C298 C297 1.375 . S
C298 C299 1.415 . S
C298 C300 1.501 . S
C299 H290 0.931 . S
C299 C295 1.382 . S
C299 C298 1.415 . S
C300 C298 1.501 . S
C300 C301 1.384 . S
C300 C305 1.408 . S
C301 H291 0.930 . S
C301 C300 1.384 . S
C301 C302 1.389 . S
C302 C301 1.389 . S
C302 C303 1.405 . S
C303 H292 0.930 . S
C303 C302 1.405 . S
C303 C304 1.364 . S
C304 C303 1.364 . S
C304 C305 1.400 . S
C305 H293 0.931 . S
C305 C300 1.408 . S
C305 C304 1.400 . S
H306 C312 0.930 . S
H307 C315 0.931 . S
H308 C317 0.931 . S
H309 C319 0.930 . S
H310 C321 0.930 . S
H311 C323 0.931 . S
C312 H306 0.930 . S
C312 C313 1.380 . S
C312 C314 1.394 . S
C313 C312 1.380 . S
C313 C317 1.382 . S
C314 C312 1.394 . S
C314 C315 1.400 . S
C315 H307 0.931 . S
C315 C314 1.400 . S
C315 C316 1.375 . S
C316 C315 1.375 . S
C316 C317 1.415 . S
C316 C318 1.501 . S
C317 H308 0.931 . S
C317 C313 1.382 . S
C317 C316 1.415 . S
C318 C316 1.501 . S
C318 C319 1.384 . S
C318 C323 1.408 . S
C319 H309 0.930 . S
C319 C318 1.384 . S
C319 C320 1.389 . S
C320 C319 1.389 . S
C320 C321 1.405 . S
C321 H310 0.930 . S
C321 C320 1.405 . S
C321 C322 1.364 . S
C322 C321 1.364 . S
C322 C323 1.400 . S
C323 H311 0.931 . S
C323 C318 1.408 . S
C323 C322 1.400 . S
H324 C330 0.930 . S
H325 C333 0.931 . S
H326 C335 0.931 . S
H327 C337 0.930 . S
H328 C339 0.930 . S
H329 C341 0.931 . S
C330 H324 0.930 . S
C330 C331 1.380 . S
C330 C332 1.394 . S
C331 C330 1.380 . S
C331 C335 1.382 . S
C332 C330 1.394 . S
C332 C333 1.400 . S
C333 H325 0.931 . S
C333 C332 1.400 . S
C333 C334 1.375 . S
C334 C333 1.375 . S
C334 C335 1.415 . S
C334 C336 1.501 . S
C335 H326 0.931 . S
C335 C331 1.382 . S
C335 C334 1.415 . S
C336 C334 1.501 . S
C336 C337 1.384 . S
C336 C341 1.408 . S
C337 H327 0.930 . S
C337 C336 1.384 . S
C337 C338 1.389 . S
C338 C337 1.389 . S
C338 C339 1.405 . S
C339 H328 0.930 . S
C339 C338 1.405 . S
C339 C340 1.364 . S
C340 C339 1.364 . S
C340 C341 1.400 . S
C341 H329 0.931 . S
C341 C336 1.408 . S
C341 C340 1.400 . S
H342 C348 0.930 . S
H343 C351 0.931 . S
H344 C353 0.931 . S
H345 C355 0.930 . S
H346 C357 0.930 . S
H347 C359 0.931 . S
C348 H342 0.930 . S
C348 C349 1.380 . S
C348 C350 1.394 . S
C349 C348 1.380 . S
C349 C353 1.382 . S
C350 C348 1.394 . S
C350 C351 1.400 . S
C351 H343 0.931 . S
C351 C350 1.400 . S
C351 C352 1.375 . S
C352 C351 1.375 . S
C352 C353 1.415 . S
C352 C354 1.501 . S
C353 H344 0.931 . S
C353 C349 1.382 . S
C353 C352 1.415 . S
C354 C352 1.501 . S
C354 C355 1.384 . S
C354 C359 1.408 . S
C355 H345 0.930 . S
C355 C354 1.384 . S
C355 C356 1.389 . S
C356 C355 1.389 . S
C356 C357 1.405 . S
C357 H346 0.930 . S
C357 C356 1.405 . S
C357 C358 1.364 . S
C358 C357 1.364 . S
C358 C359 1.400 . S
C359 H347 0.931 . S
C359 C354 1.408 . S
C359 C358 1.400 . S
H360 C366 0.930 . S
H361 C369 0.931 . S
H362 C371 0.931 . S
H363 C373 0.930 . S
H364 C375 0.930 . S
H365 C377 0.931 . S
C366 H360 0.930 . S
C366 C367 1.380 . S
C366 C368 1.394 . S
C367 C366 1.380 . S
C367 C371 1.382 . S
C368 C366 1.394 . S
C368 C369 1.400 . S
C369 H361 0.931 . S
C369 C368 1.400 . S
C369 C370 1.375 . S
C370 C369 1.375 . S
C370 C371 1.415 . S
C370 C372 1.501 . S
C371 H362 0.931 . S
C371 C367 1.382 . S
C371 C370 1.415 . S
C372 C370 1.501 . S
C372 C373 1.384 . S
C372 C377 1.408 . S
C373 H363 0.930 . S
C373 C372 1.384 . S
C373 C374 1.389 . S
C374 C373 1.389 . S
C374 C375 1.405 . S
C375 H364 0.930 . S
C375 C374 1.405 . S
C375 C376 1.364 . S
C376 C375 1.364 . S
C376 C377 1.400 . S
C377 H365 0.931 . S
C377 C372 1.408 . S
C377 C376 1.400 . S
H378 C384 0.930 . S
H379 C387 0.931 . S
H380 C389 0.931 . S
H381 C391 0.930 . S
H382 C393 0.930 . S
H383 C395 0.931 . S
C384 H378 0.930 . S
C384 C385 1.380 . S
C384 C386 1.394 . S
C385 C384 1.380 . S
C385 C389 1.382 . S
C386 C384 1.394 . S
C386 C387 1.400 . S
C387 H379 0.931 . S
C387 C386 1.400 . S
C387 C388 1.375 . S
C388 C387 1.375 . S
C388 C389 1.415 . S
C388 C390 1.501 . S
C389 H380 0.931 . S
C389 C385 1.382 . S
C389 C388 1.415 . S
C390 C388 1.501 . S
C390 C391 1.384 . S
C390 C395 1.408 . S
C391 H381 0.930 . S
C391 C390 1.384 . S
C391 C392 1.389 . S
C392 C391 1.389 . S
C392 C393 1.405 . S
C393 H382 0.930 . S
C393 C392 1.405 . S
C393 C394 1.364 . S
C394 C393 1.364 . S
C394 C395 1.400 . S
C395 H383 0.931 . S
C395 C390 1.408 . S
C395 C394 1.400 . S
H396 C402 0.930 . S
H397 C405 0.931 . S
H398 C407 0.931 . S
H399 C409 0.930 . S
H400 C411 0.930 . S
H401 C413 0.931 . S
C402 H396 0.930 . S
C402 C403 1.380 . S
C402 C404 1.394 . S
C403 C402 1.380 . S
C403 C407 1.382 . S
C404 C402 1.394 . S
C404 C405 1.400 . S
C405 H397 0.931 . S
C405 C404 1.400 . S
C405 C406 1.375 . S
C406 C405 1.375 . S
C406 C407 1.415 . S
C406 C408 1.501 . S
C407 H398 0.931 . S
C407 C403 1.382 . S
C407 C406 1.415 . S
C408 C406 1.501 . S
C408 C409 1.384 . S
C408 C413 1.408 . S
C409 H399 0.930 . S
C409 C408 1.384 . S
C409 C410 1.389 . S
C410 C409 1.389 . S
C410 C411 1.405 . S
C411 H400 0.930 . S
C411 C410 1.405 . S
C411 C412 1.364 . S
C412 C411 1.364 . S
C412 C413 1.400 . S
C413 H401 0.931 . S
C413 C408 1.408 . S
C413 C412 1.400 . S
H414 C420 0.930 . S
H415 C423 0.931 . S
H416 C425 0.931 . S
H417 C427 0.930 . S
H418 C429 0.930 . S
H419 C431 0.931 . S
C420 H414 0.930 . S
C420 C421 1.380 1_455 S
C420 C422 1.394 . S
C421 C420 1.380 1_655 S
C421 C425 1.382 . S
C422 C420 1.394 . S
C422 C423 1.400 . S
C423 H415 0.931 . S
C423 C422 1.400 . S
C423 C424 1.375 . S
C424 C423 1.375 . S
C424 C425 1.415 1_455 S
C424 C426 1.501 . S
C425 H416 0.931 . S
C425 C421 1.382 . S
C425 C424 1.415 1_655 S
C426 C424 1.501 . S
C426 C427 1.384 . S
C426 C431 1.408 . S
C427 H417 0.930 . S
C427 C426 1.384 . S
C427 C428 1.389 . S
C428 C427 1.389 . S
C428 C429 1.405 . S
C429 H418 0.930 . S
C429 C428 1.405 . S
C429 C430 1.364 . S
C430 C429 1.364 . S
C430 C431 1.400 . S
C431 H419 0.931 . S
C431 C426 1.408 . S
C431 C430 1.400 . S
H432 C438 0.930 . S
H433 C441 0.931 . S
H434 C443 0.931 . S
H435 C445 0.930 . S
H436 C447 0.930 . S
H437 C449 0.931 . S
C438 H432 0.930 . S
C438 C439 1.380 . S
C438 C440 1.394 . S
C439 C438 1.380 . S
C439 C443 1.382 . S
C440 C438 1.394 . S
C440 C441 1.400 . S
C441 H433 0.931 . S
C441 C440 1.400 . S
C441 C442 1.375 . S
C442 C441 1.375 . S
C442 C443 1.415 . S
C442 C444 1.501 . S
C443 H434 0.931 . S
C443 C439 1.382 . S
C443 C442 1.415 . S
C444 C442 1.501 . S
C444 C445 1.384 . S
C444 C449 1.408 . S
C445 H435 0.930 . S
C445 C444 1.384 . S
C445 C446 1.389 . S
C446 C445 1.389 . S
C446 C447 1.405 . S
C447 H436 0.930 . S
C447 C446 1.405 . S
C447 C448 1.364 . S
C448 C447 1.364 . S
C448 C449 1.400 . S
C449 H437 0.931 . S
C449 C444 1.408 . S
C449 C448 1.400 . S
H450 C456 0.950 . S
H451 C459 0.931 . S
H452 C461 0.931 . S
H453 C463 0.930 . S
H454 C465 0.930 . S
H455 C467 0.931 . S
C456 H450 0.950 . S
C456 C457 1.376 . S
C456 C458 1.379 1_545 S
C457 C456 1.376 . S
C457 C461 1.382 . S
C458 C456 1.379 1_565 S
C458 C459 1.400 . S
C459 H451 0.931 . S
C459 C458 1.400 . S
C459 C460 1.375 . S
C460 C459 1.375 . S
C460 C461 1.415 1_565 S
C460 C462 1.501 . S
C461 H452 0.931 . S
C461 C457 1.382 . S
C461 C460 1.415 1_545 S
C462 C460 1.501 . S
C462 C463 1.384 . S
C462 C467 1.408 . S
C463 H453 0.930 . S
C463 C462 1.384 . S
C463 C464 1.389 . S
C464 C463 1.389 . S
C464 C465 1.405 . S
C465 H454 0.930 . S
C465 C464 1.405 . S
C465 C466 1.364 . S
C466 C465 1.364 . S
C466 C467 1.400 . S
C467 H455 0.931 . S
C467 C462 1.408 . S
C467 C466 1.400 . S
H468 C474 0.930 . S
H469 C477 0.931 1_565 S
H470 C479 0.931 . S
H471 C481 0.930 . S
H472 C483 0.930 . S
H473 C485 0.931 . S
C474 H468 0.930 . S
C474 C475 1.380 . S
C474 C476 1.394 . S
C475 C474 1.380 . S
C475 C479 1.382 . S
C476 C474 1.394 . S
C476 C477 1.400 . S
C477 H469 0.931 1_545 S
C477 C476 1.400 . S
C477 C478 1.375 . S
C478 C477 1.375 . S
C478 C479 1.415 . S
C478 C480 1.501 . S
C479 H470 0.931 . S
C479 C475 1.382 . S
C479 C478 1.415 . S
C480 C478 1.501 . S
C480 C481 1.384 1_545 S
C480 C485 1.408 . S
C481 H471 0.930 . S
C481 C480 1.384 1_565 S
C481 C482 1.389 . S
C482 C481 1.389 . S
C482 C483 1.405 1_565 S
C483 H472 0.930 . S
C483 C482 1.405 1_545 S
C483 C484 1.364 . S
C484 C483 1.364 . S
C484 C485 1.400 . S
C485 H473 0.931 . S
C485 C480 1.408 . S
C485 C484 1.400 . S
H486 C492 0.930 . S
H487 C495 0.931 . S
H488 C497 0.931 . S
H489 C499 0.930 . S
H490 C501 0.930 . S
H491 C503 0.931 . S
C492 H486 0.930 . S
C492 C493 1.380 1_655 S
C492 C494 1.388 1_655 S
C493 C492 1.380 1_455 S
C493 C497 1.382 . S
C494 C492 1.388 1_455 S
C494 C495 1.412 . S
C495 H487 0.931 . S
C495 C494 1.412 . S
C495 C496 1.375 . S
C496 C495 1.375 . S
C496 C497 1.415 . S
C496 C498 1.501 . S
C497 H488 0.931 . S
C497 C493 1.382 . S
C497 C496 1.415 . S
C498 C496 1.501 . S
C498 C499 1.384 . S
C498 C503 1.408 1_455 S
C499 H489 0.930 . S
C499 C498 1.384 . S
C499 C500 1.389 . S
C500 C499 1.389 . S
C500 C501 1.405 . S
C501 H490 0.930 . S
C501 C500 1.405 . S
C501 C502 1.364 1_455 S
C502 C501 1.364 1_655 S
C502 C503 1.400 . S
C503 H491 0.931 . S
C503 C498 1.408 1_655 S
C503 C502 1.400 . S
H504 C510 0.930 . S
H505 C513 0.931 . S
H506 C515 0.931 . S
H507 C517 0.930 . S
H508 C519 0.930 . S
H509 C521 0.931 . S
C510 H504 0.930 . S
C510 C511 1.380 . S
C510 C512 1.394 . S
C511 C510 1.380 . S
C511 C515 1.382 . S
C512 C510 1.394 . S
C512 C513 1.400 . S
C513 H505 0.931 . S
C513 C512 1.400 . S
C513 C514 1.375 . S
C514 C513 1.375 . S
C514 C515 1.415 . S
C514 C516 1.501 . S
C515 H506 0.931 . S
C515 C511 1.382 . S
C515 C514 1.415 . S
C516 C514 1.501 . S
C516 C517 1.384 . S
C516 C521 1.408 . S
C517 H507 0.930 . S
C517 C516 1.384 . S
C517 C518 1.389 . S
C518 C517 1.389 . S
C518 C519 1.405 . S
C519 H508 0.930 . S
C519 C518 1.405 . S
C519 C520 1.364 . S
C520 C519 1.364 . S
C520 C521 1.400 . S
C521 H509 0.931 . S
C521 C516 1.408 . S
C521 C520 1.400 . S
H522 C528 0.930 . S
H523 C531 0.931 . S
H524 C533 0.931 . S
H525 C535 0.930 . S
H526 C537 0.930 . S
H527 C539 0.931 . S
C528 H522 0.930 . S
C528 C529 1.380 . S
C528 C530 1.394 . S
C529 C528 1.380 . S
C529 C533 1.382 . S
C530 C528 1.394 . S
C530 C531 1.400 . S
C531 H523 0.931 . S
C531 C530 1.400 . S
C531 C532 1.375 . S
C532 C531 1.375 . S
C532 C533 1.415 . S
C532 C534 1.501 . S
C533 H524 0.931 . S
C533 C529 1.382 . S
C533 C532 1.415 . S
C534 C532 1.501 . S
C534 C535 1.384 . S
C534 C539 1.408 . S
C535 H525 0.930 . S
C535 C534 1.384 . S
C535 C536 1.389 . S
C536 C535 1.389 . S
C536 C537 1.405 . S
C537 H526 0.930 . S
C537 C536 1.405 . S
C537 C538 1.364 . S
C538 C537 1.364 . S
C538 C539 1.400 . S
C539 H527 0.931 . S
C539 C534 1.408 . S
C539 C538 1.400 . S
H540 C546 0.930 . S
H541 C549 0.931 . S
H542 C551 0.931 . S
H543 C553 0.930 . S
H544 C555 0.930 . S
H545 C557 0.931 . S
C546 H540 0.930 . S
C546 C547 1.380 . S
C546 C548 1.394 . S
C547 C546 1.380 . S
C547 C551 1.382 . S
C548 C546 1.394 . S
C548 C549 1.400 . S
C549 H541 0.931 . S
C549 C548 1.400 . S
C549 C550 1.375 . S
C550 C549 1.375 . S
C550 C551 1.415 . S
C550 C552 1.501 . S
C551 H542 0.931 . S
C551 C547 1.382 . S
C551 C550 1.415 . S
C552 C550 1.501 . S
C552 C553 1.384 . S
C552 C557 1.408 . S
C553 H543 0.930 . S
C553 C552 1.384 . S
C553 C554 1.389 . S
C554 C553 1.389 . S
C554 C555 1.405 . S
C555 H544 0.930 . S
C555 C554 1.405 . S
C555 C556 1.364 . S
C556 C555 1.364 . S
C556 C557 1.400 . S
C557 H545 0.931 . S
C557 C552 1.408 . S
C557 C556 1.400 . S
H558 C564 0.930 . S
H559 C567 0.931 . S
H560 C569 0.931 . S
H561 C571 0.930 . S
H562 C573 0.930 . S
H563 C575 0.931 . S
C564 H558 0.930 . S
C564 C565 1.380 . S
C564 C566 1.394 . S
C565 C564 1.380 . S
C565 C569 1.382 . S
C566 C564 1.394 . S
C566 C567 1.400 . S
C567 H559 0.931 . S
C567 C566 1.400 . S
C567 C568 1.375 . S
C568 C567 1.375 . S
C568 C569 1.415 . S
C568 C570 1.501 . S
C569 H560 0.931 . S
C569 C565 1.382 . S
C569 C568 1.415 . S
C570 C568 1.501 . S
C570 C571 1.384 . S
C570 C575 1.408 . S
C571 H561 0.930 . S
C571 C570 1.384 . S
C571 C572 1.389 . S
C572 C571 1.389 . S
C572 C573 1.405 . S
C573 H562 0.930 . S
C573 C572 1.405 . S
C573 C574 1.364 . S
C574 C573 1.364 . S
C574 C575 1.400 . S
C575 H563 0.931 . S
C575 C570 1.408 . S
C575 C574 1.400 . S
C8 C421 1.619 1_455 S
C22 C446 1.651 . S
C457 C37 1.618 1_545 S
C36 C482 1.651 1_545 S
C9 C500 1.652 1_655 S
C23 C511 1.619 . S
C50 C493 1.543 1_655 S
C518 C64 1.535 . S
C475 C79 1.544 . S
C78 C464 1.534 . S
C428 C51 1.537 . S
C65 C439 1.545 . S
C92 C529 1.619 . S
C106 C554 1.651 . S
C565 C121 1.618 . S
C120 C266 1.651 . S
C93 C284 1.653 . S
C107 C295 1.619 . S
C134 C277 1.545 . S
C148 C302 1.535 . S
C259 C163 1.543 . S
C572 C162 1.536 . S
C536 C135 1.537 . S
C547 C149 1.545 . S
C176 C313 1.619 . S
C190 C338 1.651 . S
C205 C349 1.617 . S
C204 C374 1.651 . S
C392 C177 1.653 . S
C403 C191 1.619 . S
C385 C218 1.545 . S
C410 C232 1.535 . S
C247 C367 1.544 . S
C356 C246 1.536 . S
C219 C320 1.537 . S
C331 C233 1.545 . S
C268 C6 1.393 . S
C20 C286 1.389 . S
C296 C35 1.386 . S
C314 C34 1.384 . S
C340 C7 1.390 . S
C350 C21 1.388 . S
C48 C358 1.422 . S
C62 C322 1.418 . S
C77 C332 1.452 . S
C76 C278 1.449 . S
C304 C49 1.419 . S
C63 C260 1.453 . S
C376 C90 1.393 . S
C104 C394 1.389 . S
C119 C404 1.386 . S
C422 C118 1.384 . S
C91 C448 1.391 . S
C105 C458 1.388 . S
C132 C466 1.420 . S
C146 C430 1.417 . S
C440 C161 1.451 . S
C160 C386 1.449 . S
C133 C412 1.419 . S
C368 C147 1.453 . S
C484 C174 1.394 . S
C188 C502 1.389 . S
C203 C512 1.386 . S
C530 C202 1.384 . S
C556 C175 1.390 . S
C189 C566 1.388 . S
C216 C574 1.422 . S
C230 C538 1.417 . S
C548 C245 1.452 . S
C494 C244 1.432 1_455 S
C520 C217 1.419 . S
C231 C476 1.453 . S
