# Generated by pormake.
# Topology tsx, (6,3)-cn, num edge types: 1
# Building blocks:
#     Node 0, Type 0, BuildingBlock: CIFDUS_clean_sbu_1, # of connection points: 6
#     Node 1, Type 0, BuildingBlock: CIFDUS_clean_sbu_1, # of connection points: 6
#     Node 2, Type 1, BuildingBlock: BETDAH_clean_linker_0, # of connection points: 3
#     Node 3, Type 1, BuildingBlock: BETDAH_clean_linker_0, # of connection points: 3
#     Node 4, Type 1, BuildingBlock: BETDAH_clean_linker_0, # of connection points: 3
#     Node 5, Type 1, BuildingBlock: BETDAH_clean_linker_0, # of connection points: 3
#     Edge 6, Type (0, 1), BuildingBlock: UVAHIK_clean_linker_0, # of connection points: 2
#     Edge 7, Type (0, 1), BuildingBlock: UVAHIK_clean_linker_0, # of connection points: 2
#     Edge 8, Type (0, 1), BuildingBlock: UVAHIK_clean_linker_0, # of connection points: 2
#     Edge 9, Type (0, 1), BuildingBlock: UVAHIK_clean_linker_0, # of connection points: 2
#     Edge 10, Type (0, 1), BuildingBlock: UVAHIK_clean_linker_0, # of connection points: 2
#     Edge 11, Type (0, 1), BuildingBlock: UVAHIK_clean_linker_0, # of connection points: 2
#     Edge 12, Type (0, 1), BuildingBlock: UVAHIK_clean_linker_0, # of connection points: 2
#     Edge 13, Type (0, 1), BuildingBlock: UVAHIK_clean_linker_0, # of connection points: 2
#     Edge 14, Type (0, 1), BuildingBlock: UVAHIK_clean_linker_0, # of connection points: 2
#     Edge 15, Type (0, 1), BuildingBlock: UVAHIK_clean_linker_0, # of connection points: 2
#     Edge 16, Type (0, 1), BuildingBlock: UVAHIK_clean_linker_0, # of connection points: 2
#     Edge 17, Type (0, 1), BuildingBlock: UVAHIK_clean_linker_0, # of connection points: 2
# Relax obj value: 0.090
# Max RMSD: 0.144
# Mean RMSD: 0.108
data_MOF--net-tsx--node1-CIFDUS_clean_sbu_1--node2-BETDAH_clean_linker_0--edge1-UVAHIK_clean_linker_0
_symmetry_space_group_name_H-M    P1
_symmetry_Int_Tables_number       1
_symmetry_cell_setting            triclinic
loop_
_symmetry_equiv_pos_as_xyz
'x, y, z'
_cell_length_a     24.300909
_cell_length_b     29.198343
_cell_length_c     43.569876
_cell_angle_alpha  97.047471
_cell_angle_beta   100.16687
_cell_angle_gamma 91.747955
loop_
_atom_site_label
_atom_site_type_symbol
_atom_site_fract_x
_atom_site_fract_y
_atom_site_fract_z
_atom_type_partial_charge
O0 O 0.99358 0.0715 0.00489 0.0
Mn1 Mn 0.05193 0.02095 0.01146 0.0
O2 O 0.92598 0.03976 0.96475 0.0
Mn3 Mn 0.95818 0.98427 0.95473 0.0
O4 O 0.10907 0.96944 0.01673 0.0
O5 O 0.1114 0.06987 0.03187 0.0
Mn6 Mn 0.15076 0.05225 0.06608 0.0
O7 O 0.02918 0.01348 0.0551 0.0
O8 O 0.18351 0.99851 0.05284 0.0
O9 O 0.07575 0.02888 0.96813 0.0
O10 O 0.01288 0.98661 0.93037 0.0
O11 O 0.18139 0.1095 0.06247 0.0
O12 O 0.10004 0.04666 0.09259 0.0
C13 C 0.9609 0.93491 0.98765 0.0
C14 C 0.94649 0.07291 0.98613 0.0
C15 C 0.15857 0.96623 0.03223 0.0
C16 C 0.14315 0.10724 0.03751 0.0
C17 C 0.05108 0.02734 0.08403 0.0
C18 C 0.05879 0.01055 0.93949 0.0
O19 O 0.9931 0.97173 0.99128 0.0
O20 O 0.92626 0.92855 0.96115 0.0
O21 O 0.51455 0.59168 0.51421 0.0
Mn22 Mn 0.55364 0.52846 0.51106 0.0
O23 O 0.42794 0.57861 0.4847 0.0
Mn24 Mn 0.4416 0.52305 0.46274 0.0
O25 O 0.59275 0.46555 0.50769 0.0
O26 O 0.62708 0.56197 0.52996 0.0
Mn27 Mn 0.66357 0.53461 0.56067 0.0
O28 O 0.53721 0.51972 0.55585 0.0
O29 O 0.67374 0.47515 0.54278 0.0
O30 O 0.56976 0.53717 0.46642 0.0
O31 O 0.48668 0.52813 0.43299 0.0
O32 O 0.7091 0.58474 0.5564 0.0
O33 O 0.61762 0.53882 0.59043 0.0
C34 C 0.44149 0.46242 0.48648 0.0
C35 C 0.46496 0.60427 0.50423 0.0
C36 C 0.63908 0.45068 0.52108 0.0
C37 C 0.66831 0.59216 0.53447 0.0
C38 C 0.56518 0.52834 0.5841 0.0
C39 C 0.53977 0.5354 0.4388 0.0
O40 O 0.48077 0.49442 0.49178 0.0
O41 O 0.40063 0.46882 0.46431 0.0
H42 H 0.10363 0.93921 0.39212 0.0
H43 H 0.9868 0.04119 0.41313 0.0
H44 H 0.09766 0.99071 0.48825 0.0
C45 C 0.08528 0.96102 0.40917 0.0
C46 C 0.10586 0.96111 0.44142 0.0
C47 C 0.04247 0.98987 0.39869 0.0
C48 C 0.02 0.0191 0.42099 0.0
C49 C 0.04017 0.01933 0.45335 0.0
C50 C 0.08304 0.99064 0.46325 0.0
N51 N 0.01852 0.04764 0.4768 0.0
C52 C 0.97302 0.07509 0.47132 0.0
H53 H 0.99091 0.97846 0.62558 0.0
H54 H 0.10266 0.08765 0.61191 0.0
H55 H 0.98533 0.01815 0.53311 0.0
C56 C 1.00657 0.99941 0.60978 0.0
C57 C 0.98256 0.99336 0.57764 0.0
C58 C 0.05005 0.03292 0.62221 0.0
C59 C 0.06922 0.06171 0.60233 0.0
C60 C 0.0455 0.05633 0.57007 0.0
C61 C 1.00235 0.02242 0.55805 0.0
N62 N 0.06397 0.08399 0.54885 0.0
C63 C 0.11195 0.11327 0.55568 0.0
H64 H 0.59005 0.42899 0.88814 0.0
H65 H 0.49426 0.54439 0.91446 0.0
H66 H 0.59549 0.47843 0.98576 0.0
C67 C 0.57621 0.45255 0.90614 0.0
C68 C 0.59724 0.44965 0.93793 0.0
C69 C 0.53936 0.48688 0.89741 0.0
C70 C 0.5229 0.51805 0.921 0.0
C71 C 0.54311 0.51465 0.95293 0.0
C72 C 0.58029 0.48079 0.96108 0.0
N73 N 0.52721 0.54433 0.97773 0.0
C74 C 0.49138 0.58008 0.97398 0.0
H75 H 0.48765 0.47023 0.12149 0.0
H76 H 0.59711 0.58289 0.11091 0.0
H77 H 0.48467 0.51333 0.03007 0.0
C78 C 0.50361 0.492 0.10626 0.0
C79 C 0.48073 0.48685 0.07394 0.0
C80 C 0.54555 0.52636 0.1196 0.0
C81 C 0.56498 0.5562 0.1005 0.0
C82 C 0.54297 0.55135 0.06809 0.0
C83 C 0.5009 0.51694 0.0551 0.0
N84 N 0.56184 0.58045 0.04783 0.0
C85 C 0.6086 0.611 0.05628 0.0
C86 C 0.17969 0.14887 0.99909 0.0
C87 C 0.13955 0.14521 0.0183 0.0
C88 C 0.19948 0.19237 0.99412 0.0
C89 C 0.24058 0.29186 0.9904 0.0
H90 H 0.2812 0.35222 0.07628 0.0
C91 C 0.39112 0.45855 0.03626 0.0
C92 C 0.43545 0.4505 0.0603 0.0
C93 C 0.34697 0.42527 0.02512 0.0
C94 C 0.26967 0.33611 0.05212 0.0
H95 H 0.08359 0.18305 0.04415 0.0
H96 H 0.11667 0.259 0.03475 0.0
H97 H 0.21011 0.28906 0.0637 0.0
H98 H 0.4692 0.39956 0.08991 0.0
H99 H 0.39123 0.34287 0.07147 0.0
H100 H 0.30247 0.33854 0.97946 0.0
C101 C 0.13353 0.22853 0.02381 0.0
C102 C 0.22846 0.30024 0.04476 0.0
C103 C 0.11389 0.18502 0.02879 0.0
C104 C 0.43519 0.40777 0.07212 0.0
C105 C 0.39076 0.37504 0.06141 0.0
C106 C 0.28144 0.32848 0.99774 0.0
C107 C 0.17953 0.23272 0.00854 0.0
C108 C 0.21444 0.27674 0.01402 0.0
C109 C 0.34594 0.3837 0.03815 0.0
C110 C 0.29747 0.34983 0.02889 0.0
H111 H 0.2008 0.11861 0.99128 0.0
H112 H 0.23491 0.1943 0.98225 0.0
H113 H 0.23078 0.27436 0.96654 0.0
H114 H 0.38947 0.49112 0.02671 0.0
H115 H 0.31272 0.43266 0.00718 0.0
C116 C 0.24443 0.92084 0.04061 0.0
C117 C 0.18876 0.92384 0.02555 0.0
C118 C 0.27383 0.88173 0.03385 0.0
C119 C 0.27724 0.78195 0.97376 0.0
H120 H 0.37742 0.73707 0.04184 0.0
C121 C 0.40089 0.61505 0.95948 0.0
C122 C 0.45647 0.61878 0.97544 0.0
C123 C 0.36571 0.65143 0.96392 0.0
C124 C 0.34997 0.74943 0.02254 0.0
H125 H 0.12024 0.88762 0.99163 0.0
H126 H 0.17166 0.81887 0.98012 0.0
H127 H 0.31914 0.8009 0.05344 0.0
H128 H 0.52005 0.66247 0.00784 0.0
H129 H 0.45902 0.72631 0.01549 0.0
H130 H 0.30842 0.73012 0.94289 0.0
C131 C 0.19262 0.84722 0.9969 0.0
C132 C 0.31656 0.78599 0.02918 0.0
C133 C 0.16308 0.88651 0.00364 0.0
C134 C 0.47715 0.65926 0.99526 0.0
C135 C 0.44214 0.69547 0.9998 0.0
C136 C 0.31063 0.7451 0.96711 0.0
C137 C 0.24835 0.84444 0.01196 0.0
C138 C 0.2805 0.80323 0.00485 0.0
C139 C 0.38578 0.69166 0.98461 0.0
C140 C 0.34801 0.72903 0.99141 0.0
H141 H 0.26577 0.94896 0.05745 0.0
H142 H 0.317 0.88109 0.04545 0.0
H143 H 0.25021 0.79467 0.95447 0.0
H144 H 0.38434 0.58366 0.94429 0.0
H145 H 0.32242 0.64747 0.95206 0.0
C146 C 0.95886 0.85684 0.00357 0.0
C147 C 0.95692 0.90462 0.01173 0.0
C148 C 0.93593 0.82599 0.02058 0.0
C149 C 0.81819 0.82288 0.06137 0.0
H150 H 0.85992 0.69702 0.0685 0.0
C151 C 0.65901 0.68428 0.08181 0.0
C152 C 0.65711 0.64257 0.06191 0.0
C153 C 0.70404 0.71663 0.08485 0.0
C154 C 0.84765 0.73207 0.06666 0.0
H155 H 0.93212 0.95801 0.04472 0.0
H156 H 0.89273 0.90413 0.07502 0.0
H157 H 0.92881 0.75422 0.0595 0.0
H158 H 0.70001 0.60077 0.0301 0.0
H159 H 0.77838 0.6572 0.03492 0.0
H160 H 0.73639 0.80043 0.06688 0.0
C161 C 0.9121 0.89038 0.05553 0.0
C162 C 0.8872 0.76488 0.06164 0.0
C163 C 0.93549 0.92125 0.03856 0.0
C164 C 0.70114 0.63279 0.04576 0.0
C165 C 0.74611 0.665 0.04873 0.0
C166 C 0.77866 0.7901 0.06633 0.0
C167 C 0.90967 0.84244 0.04577 0.0
C168 C 0.8724 0.81031 0.05789 0.0
C169 C 0.74774 0.70769 0.06793 0.0
C170 C 0.79233 0.74391 0.06798 0.0
H171 H 0.9741 0.84336 0.98251 0.0
H172 H 0.93432 0.78943 0.01212 0.0
H173 H 0.80496 0.85732 0.05813 0.0
H174 H 0.62514 0.69231 0.09444 0.0
H175 H 0.7042 0.74892 0.10004 0.0
C176 C 0.85755 0.11239 0.97304 0.0
C177 C 0.91345 0.11453 0.98882 0.0
C178 C 0.82614 0.15137 0.97385 0.0
C179 C 0.83914 0.27736 0.98349 0.0
H180 H 0.68012 0.26374 0.98441 0.0
C181 C 0.68554 0.42594 0.96975 0.0
C182 C 0.63667 0.41401 0.94717 0.0
C183 C 0.72189 0.39202 0.97915 0.0
C184 C 0.72446 0.26804 0.98413 0.0
H185 H 0.97984 0.15942 0.0184 0.0
H186 H 0.92434 0.22823 0.01979 0.0
H187 H 0.73965 0.19993 0.99558 0.0
H188 H 0.58739 0.35756 0.91675 0.0
H189 H 0.65072 0.29818 0.9333 0.0
H190 H 0.82334 0.34551 0.97159 0.0
C191 C 0.90526 0.19604 0.00668 0.0
C192 C 0.75856 0.23158 0.99053 0.0
C193 C 0.93689 0.15666 0.00601 0.0
C194 C 0.62492 0.36767 0.93405 0.0
C195 C 0.66084 0.33373 0.94374 0.0
C196 C 0.80496 0.3141 0.97732 0.0
C197 C 0.84955 0.19372 0.99048 0.0
C198 C 0.81591 0.23524 0.98923 0.0
C199 C 0.70951 0.34555 0.96646 0.0
C200 C 0.74703 0.30915 0.97664 0.0
H201 H 0.83788 0.08057 0.95966 0.0
H202 H 0.78375 0.14851 0.96062 0.0
H203 H 0.88309 0.28114 0.98212 0.0
H204 H 0.6957 0.46154 0.98005 0.0
H205 H 0.75912 0.40198 0.99671 0.0
C206 C 0.71672 0.64139 0.50443 0.0
C207 C 0.67031 0.63347 0.51852 0.0
C208 C 0.73301 0.68619 0.50034 0.0
C209 C 0.75938 0.78746 0.49384 0.0
H210 H 0.78257 0.85298 0.57848 0.0
C211 C 0.89358 0.96239 0.54008 0.0
C212 C 0.93766 0.95628 0.56481 0.0
C213 C 0.85092 0.92776 0.52901 0.0
C214 C 0.77561 0.8355 0.5546 0.0
H215 H 0.60174 0.66509 0.53715 0.0
H216 H 0.63054 0.74393 0.53039 0.0
H217 H 0.71895 0.78438 0.56471 0.0
H218 H 0.97209 0.90738 0.59598 0.0
H219 H 0.89654 0.84864 0.57774 0.0
H220 H 0.81831 0.838 0.48439 0.0
C221 C 0.65398 0.71544 0.52214 0.0
C222 C 0.73883 0.79647 0.54659 0.0
C223 C 0.63711 0.67034 0.52569 0.0
C224 C 0.9382 0.9143 0.5777 0.0
C225 C 0.89513 0.88034 0.5671 0.0
C226 C 0.79555 0.82715 0.50174 0.0
C227 C 0.70384 0.72399 0.51101 0.0
C228 C 0.73177 0.77104 0.51646 0.0
C229 C 0.85097 0.88682 0.54285 0.0
C230 C 0.80541 0.85043 0.53253 0.0
H231 H 0.74338 0.61346 0.49922 0.0
H232 H 0.77176 0.69157 0.49192 0.0
H233 H 0.75486 0.76846 0.47049 0.0
H234 H 0.89126 0.99427 0.52969 0.0
H235 H 0.81721 0.93341 0.51022 0.0
C236 C 0.64384 0.38416 0.47929 0.0
C237 C 0.65451 0.40334 0.5111 0.0
C238 C 0.66594 0.34192 0.46991 0.0
C239 C 0.72507 0.23723 0.49927 0.0
H240 H 0.82453 0.24177 0.43911 0.0
C241 C 0.91007 0.12074 0.49918 0.0
C242 C 0.92704 0.10513 0.47084 0.0
C243 C 0.8673 0.15149 0.49974 0.0
C244 C 0.79606 0.23935 0.45543 0.0
H245 H 0.69355 0.39245 0.55815 0.0
H246 H 0.73055 0.31859 0.54198 0.0
H247 H 0.76306 0.30502 0.44735 0.0
H248 H 0.91311 0.10808 0.42074 0.0
H249 H 0.83727 0.16179 0.42143 0.0
H250 H 0.75849 0.17219 0.50791 0.0
C251 C 0.70579 0.3361 0.52422 0.0
C252 C 0.76083 0.27564 0.46013 0.0
C253 C 0.68488 0.37853 0.53346 0.0
C254 C 0.90036 0.11993 0.44285 0.0
C255 C 0.85727 0.15076 0.44334 0.0
C256 C 0.7598 0.20081 0.49438 0.0
C257 C 0.69769 0.31781 0.49232 0.0
C258 C 0.72642 0.27564 0.48287 0.0
C259 C 0.84043 0.16714 0.47187 0.0
C260 C 0.79724 0.20217 0.47324 0.0
H261 H 0.62081 0.40279 0.46158 0.0
H262 H 0.65908 0.32848 0.44516 0.0
H263 H 0.69841 0.2361 0.51667 0.0
H264 H 0.93056 0.10974 0.52104 0.0
H265 H 0.85646 0.164 0.52224 0.0
C266 C 0.43112 0.43118 0.53574 0.0
C267 C 0.43901 0.42333 0.50447 0.0
C268 C 0.41138 0.39503 0.54999 0.0
C269 C 0.37902 0.2677 0.53999 0.0
H270 H 0.24545 0.30218 0.57251 0.0
C271 C 0.19362 0.1385 0.5349 0.0
C272 C 0.16079 0.14382 0.55831 0.0
C273 C 0.23786 0.17041 0.53527 0.0
C274 C 0.28324 0.29187 0.56421 0.0
H275 H 0.4351 0.37195 0.46387 0.0
H276 H 0.4019 0.30863 0.4887 0.0
H277 H 0.30887 0.36196 0.56203 0.0
H278 H 0.1483 0.18518 0.60095 0.0
H279 H 0.2264 0.24109 0.60204 0.0
H280 H 0.35238 0.19747 0.54122 0.0
C281 C 0.41138 0.34225 0.50255 0.0
C282 C 0.31976 0.32627 0.55821 0.0
C283 C 0.43046 0.37844 0.48828 0.0
C284 C 0.17345 0.18061 0.58269 0.0
C285 C 0.21785 0.21263 0.58315 0.0
C286 C 0.34264 0.23327 0.54613 0.0
C287 C 0.39933 0.35051 0.5331 0.0
C288 C 0.36715 0.31454 0.54511 0.0
C289 C 0.25009 0.20834 0.55913 0.0
C290 C 0.29331 0.24485 0.55735 0.0
H291 H 0.43567 0.46591 0.54822 0.0
H292 H 0.40274 0.40246 0.5736 0.0
H293 H 0.41557 0.25757 0.53028 0.0
H294 H 0.18404 0.1104 0.51575 0.0
H295 H 0.26094 0.16634 0.51609 0.0
C296 C 0.46698 0.68821 0.49988 0.0
C297 C 0.44896 0.65114 0.51393 0.0
C298 C 0.43726 0.72858 0.49967 0.0
C299 C 0.36804 0.81448 0.50463 0.0
H300 H 0.20927 0.7795 0.48399 0.0
C301 C 0.19401 0.94475 0.47759 0.0
C302 C 0.15007 0.92959 0.45235 0.0
C303 C 0.23427 0.91438 0.48849 0.0
C304 C 0.25344 0.78989 0.48961 0.0
H305 H 0.38975 0.62812 0.54117 0.0
H306 H 0.33959 0.69926 0.54233 0.0
H307 H 0.27535 0.72263 0.49995 0.0
H308 H 0.11431 0.87066 0.41874 0.0
H309 H 0.18475 0.81806 0.43736 0.0
H310 H 0.34548 0.88156 0.49291 0.0
C311 C 0.37539 0.69701 0.53063 0.0
C312 C 0.29144 0.75743 0.4993 0.0
C313 C 0.40453 0.65654 0.53041 0.0
C314 C 0.1478 0.8836 0.43803 0.0
C315 C 0.18784 0.85329 0.44896 0.0
C316 C 0.32978 0.84715 0.49493 0.0
C317 C 0.38925 0.73235 0.51363 0.0
C318 C 0.34931 0.76904 0.50662 0.0
C319 C 0.23123 0.86813 0.47452 0.0
C320 C 0.27211 0.8349 0.48678 0.0
H321 H 0.50065 0.68432 0.48658 0.0
H322 H 0.44908 0.75499 0.4863 0.0
H323 H 0.41227 0.82462 0.5102 0.0
H324 H 0.1973 0.98013 0.48892 0.0
H325 H 0.26704 0.92683 0.50828 0.0
C326 C 1.00527 0.97511 0.11444 0.0
C327 C 0.02038 0.01994 0.1094 0.0
C328 C 0.98922 0.96748 0.14284 0.0
C329 C 0.95257 0.02645 0.21707 0.0
H330 H 0.04027 0.93309 0.25571 0.0
C331 C 0.01602 0.03166 0.35155 0.0
C332 C 0.02258 0.98989 0.36439 0.0
C333 C 1.0026 0.03165 0.31896 0.0
C334 C 0.01444 0.95868 0.24522 0.0
H335 H 0.02835 0.09207 0.12902 0.0
H336 H 1.00006 0.0791 0.17832 0.0
H337 H 0.03627 0.93871 0.20022 0.0
H338 H 0.01681 0.91529 0.35326 0.0
H339 H 0.99266 0.91517 0.29649 0.0
H340 H 0.93211 0.04727 0.26241 0.0
C341 C 0.99972 0.04975 0.16047 0.0
C342 C 0.01208 0.96184 0.21327 0.0
C343 C 0.01607 0.05724 0.13227 0.0
C344 C 0.01302 0.94807 0.34402 0.0
C345 C 0.99927 0.94803 0.31148 0.0
C346 C 0.95475 0.02318 0.24905 0.0
C347 C 0.98812 0.00463 0.1666 0.0
C348 C 0.9823 0.9965 0.19898 0.0
C349 C 0.99506 0.98983 0.29845 0.0
C350 C 0.98689 0.98998 0.26372 0.0
H351 H 0.00997 0.94573 0.09754 0.0
H352 H 0.98025 0.93233 0.14679 0.0
H353 H 0.92871 0.0532 0.20667 0.0
H354 H 0.02357 0.06444 0.36661 0.0
H355 H 1.00049 0.06453 0.30984 0.0
C356 C 0.10791 0.98151 0.89656 0.0
C357 C 0.09053 0.01928 0.91486 0.0
C358 C 0.12188 0.98655 0.8674 0.0
C359 C 0.14085 0.07017 0.81102 0.0
H360 H 0.06584 0.96926 0.75048 0.0
C361 C 0.07444 0.07793 0.67624 0.0
C362 C 0.07493 0.03661 0.65607 0.0
C363 C 0.08903 0.07859 0.70893 0.0
C364 C 0.08803 0.9974 0.76697 0.0
H365 H 0.07722 0.09248 0.91831 0.0
H366 H 0.10028 0.10135 0.86676 0.0
H367 H 0.07128 0.9655 0.80599 0.0
H368 H 0.09535 0.96479 0.65374 0.0
H369 H 0.12227 0.9661 0.71044 0.0
H370 H 0.15575 0.10255 0.7713 0.0
C371 C 0.10448 0.068 0.87514 0.0
C372 C 0.09129 0.9952 0.79899 0.0
C373 C 0.09141 0.06304 0.9047 0.0
C374 C 0.09395 0.99692 0.66888 0.0
C375 C 0.10903 0.99767 0.70135 0.0
C376 C 0.1375 0.07241 0.77873 0.0
C377 C 0.11714 0.02924 0.85549 0.0
C378 C 0.11771 0.03145 0.82153 0.0
C379 C 0.10467 0.03798 0.72187 0.0
C380 C 0.111 0.03594 0.75633 0.0
H381 H 0.1072 0.9474 0.90394 0.0
H382 H 0.13301 0.95624 0.8533 0.0
H383 H 0.16151 0.0987 0.82773 0.0
H384 H 0.05973 0.10893 0.66685 0.0
H385 H 0.08503 0.11018 0.72405 0.0
C386 C 0.54473 0.56204 0.63566 0.0
C387 C 0.53688 0.52538 0.61103 0.0
C388 C 0.5269 0.55703 0.66387 0.0
C389 C 0.51078 0.46755 0.7128 0.0
H390 H 0.45249 0.56521 0.76466 0.0
C391 C 0.50184 0.45129 0.842 0.0
C392 C 0.52026 0.49086 0.8636 0.0
C393 C 0.48965 0.45418 0.80974 0.0
C394 C 0.46904 0.53765 0.75055 0.0
H395 H 0.50417 0.45494 0.59623 0.0
H396 H 0.47241 0.44596 0.64566 0.0
H397 H 0.45493 0.57289 0.70971 0.0
H398 H 0.53871 0.5647 0.86849 0.0
H399 H 0.5188 0.56976 0.81223 0.0
H400 H 0.52776 0.4333 0.75375 0.0
C401 C 0.49174 0.47881 0.64299 0.0
C402 C 0.47013 0.54197 0.71903 0.0
C403 C 0.50911 0.48408 0.61457 0.0
C404 C 0.52412 0.5337 0.85239 0.0
C405 C 0.51249 0.53655 0.82009 0.0
C406 C 0.51013 0.46337 0.74434 0.0
C407 C 0.5017 0.51491 0.6682 0.0
C408 C 0.49215 0.50741 0.70001 0.0
C409 C 0.4962 0.49665 0.79829 0.0
C410 C 0.49041 0.49883 0.76385 0.0
H411 H 0.56667 0.59404 0.6335 0.0
H412 H 0.53591 0.58525 0.68293 0.0
H413 H 0.52882 0.44063 0.69892 0.0
H414 H 0.49771 0.41791 0.85006 0.0
H415 H 0.47605 0.42291 0.79375 0.0
C416 C 0.54688 0.57621 0.39299 0.0
C417 C 0.56662 0.54254 0.41195 0.0
C418 C 0.56386 0.57809 0.36419 0.0
C419 C 0.59523 0.50027 0.30059 0.0
H420 H 0.63242 0.611 0.26604 0.0
C421 C 0.59006 0.49382 0.16784 0.0
C422 C 0.56739 0.53146 0.15381 0.0
C423 C 0.60519 0.49685 0.20052 0.0
C424 C 0.62158 0.57975 0.27518 0.0
H425 H 0.62075 0.48537 0.41658 0.0
H426 H 0.64936 0.4876 0.36531 0.0
H427 H 0.63288 0.61453 0.3224 0.0
H428 H 0.54385 0.60203 0.16253 0.0
H429 H 0.56761 0.60695 0.21963 0.0
H430 H 0.57961 0.46597 0.25358 0.0
C431 C 0.62162 0.51308 0.37312 0.0
C432 C 0.62245 0.58177 0.30753 0.0
C433 C 0.60558 0.51194 0.4024 0.0
C434 C 0.56169 0.57269 0.17289 0.0
C435 C 0.57571 0.57546 0.20564 0.0
C436 C 0.59333 0.49838 0.26823 0.0
C437 C 0.59984 0.54555 0.35347 0.0
C438 C 0.60827 0.54222 0.32042 0.0
C439 C 0.59669 0.53724 0.21999 0.0
C440 C 0.60534 0.53831 0.25491 0.0
H441 H 0.51649 0.59993 0.39992 0.0
H442 H 0.54597 0.60311 0.3494 0.0
H443 H 0.5832 0.46942 0.30984 0.0
H444 H 0.59523 0.46178 0.15347 0.0
H445 H 0.62254 0.46708 0.21048 0.0
loop_
_geom_bond_atom_site_label_1
_geom_bond_atom_site_label_2
_geom_bond_distance
_geom_bond_site_symmetry_2
_ccdc_geom_bond_type
O0 Mn1 2.163 . S
O0 C14 1.244 1_454 S
Mn1 O0 2.163 . S
Mn1 O4 2.160 1_545 S
Mn1 O5 2.221 . S
Mn1 O7 2.163 . S
Mn1 O9 2.160 1_554 S
Mn1 O19 2.221 1_444 S
O2 Mn3 2.087 1_545 S
O2 C14 1.256 . S
Mn3 O2 2.087 1_565 S
Mn3 O10 2.089 1_565 S
Mn3 O19 2.290 . S
Mn3 O20 2.251 . S
O4 Mn1 2.160 1_565 S
O4 C15 1.239 . S
O5 Mn1 2.221 . S
O5 Mn6 2.290 . S
O5 C16 1.278 . S
Mn6 O5 2.290 . S
Mn6 O8 2.089 1_545 S
Mn6 O11 2.251 . S
Mn6 O12 2.087 . S
O7 Mn1 2.163 . S
O7 C17 1.244 . S
O8 Mn6 2.089 1_565 S
O8 C15 1.256 . S
O9 Mn1 2.160 1_556 S
O9 C18 1.239 . S
O10 Mn3 2.089 1_545 S
O10 C18 1.256 1_655 S
O11 Mn6 2.251 . S
O11 C16 1.241 . S
O12 Mn6 2.087 . S
O12 C17 1.256 . S
C13 O19 1.274 1_554 S
C13 O20 1.240 1_554 S
C14 O0 1.244 1_656 S
C14 O2 1.256 . S
C15 O4 1.239 . S
C15 O8 1.256 . S
C16 O5 1.278 . S
C16 O11 1.241 . S
C17 O7 1.244 . S
C17 O12 1.256 . S
C18 O9 1.239 . S
C18 O10 1.256 1_455 S
O19 Mn1 2.221 1_666 S
O19 Mn3 2.290 . S
O19 C13 1.274 1_556 S
O20 Mn3 2.251 . S
O20 C13 1.240 1_556 S
O21 Mn22 2.163 . S
O21 C35 1.244 . S
Mn22 O21 2.163 . S
Mn22 O25 2.160 . S
Mn22 O26 2.221 . S
Mn22 O28 2.163 . S
Mn22 O30 2.160 . S
Mn22 O40 2.221 . S
O23 Mn24 2.087 . S
O23 C35 1.256 . S
Mn24 O23 2.087 . S
Mn24 O31 2.089 . S
Mn24 O40 2.290 . S
Mn24 O41 2.251 . S
O25 Mn22 2.160 . S
O25 C36 1.239 . S
O26 Mn22 2.221 . S
O26 Mn27 2.290 . S
O26 C37 1.278 . S
Mn27 O26 2.290 . S
Mn27 O29 2.089 . S
Mn27 O32 2.251 . S
Mn27 O33 2.087 . S
O28 Mn22 2.163 . S
O28 C38 1.244 . S
O29 Mn27 2.089 . S
O29 C36 1.256 . S
O30 Mn22 2.160 . S
O30 C39 1.239 . S
O31 Mn24 2.089 . S
O31 C39 1.256 . S
O32 Mn27 2.251 . S
O32 C37 1.241 . S
O33 Mn27 2.087 . S
O33 C38 1.256 . S
C34 O40 1.278 . S
C34 O41 1.241 . S
C35 O21 1.244 . S
C35 O23 1.256 . S
C36 O25 1.239 . S
C36 O29 1.256 . S
C37 O26 1.278 . S
C37 O32 1.241 . S
C38 O28 1.244 . S
C38 O33 1.256 . S
C39 O30 1.239 . S
C39 O31 1.256 . S
O40 Mn22 2.221 . S
O40 Mn24 2.290 . S
O40 C34 1.278 . S
O41 Mn24 2.251 . S
O41 C34 1.241 . S
H42 C45 0.929 . S
H43 C48 0.929 . S
H44 C50 0.930 . S
C45 H42 0.929 . S
C45 C46 1.398 . S
C45 C47 1.396 . S
C46 C45 1.398 . S
C46 C50 1.407 . S
C47 C45 1.396 . S
C47 C48 1.394 1_565 S
C48 H43 0.929 . S
C48 C47 1.394 1_545 S
C48 C49 1.382 . S
C49 C48 1.382 . S
C49 C50 1.392 1_545 S
C49 N51 1.420 . S
C50 H44 0.930 . S
C50 C46 1.407 . S
C50 C49 1.392 1_565 S
N51 C49 1.420 . S
N51 C52 1.244 1_455 S
C52 N51 1.244 1_655 S
H53 C56 0.929 . S
H54 C59 0.929 . S
H55 C61 0.930 . S
C56 H53 0.929 . S
C56 C57 1.398 . S
C56 C58 1.396 . S
C57 C56 1.398 . S
C57 C61 1.407 . S
C58 C56 1.396 . S
C58 C59 1.394 1_655 S
C59 H54 0.929 . S
C59 C58 1.394 1_455 S
C59 C60 1.382 . S
C60 C59 1.382 . S
C60 C61 1.392 1_455 S
C60 N62 1.420 . S
C61 H55 0.930 . S
C61 C57 1.407 . S
C61 C60 1.392 1_655 S
N62 C60 1.420 . S
N62 C63 1.244 . S
C63 N62 1.244 . S
H64 C67 0.929 . S
H65 C70 0.929 . S
H66 C72 0.930 . S
C67 H64 0.929 . S
C67 C68 1.398 . S
C67 C69 1.396 . S
C68 C67 1.398 . S
C68 C72 1.407 . S
C69 C67 1.396 . S
C69 C70 1.394 . S
C70 H65 0.929 . S
C70 C69 1.394 . S
C70 C71 1.382 . S
C71 C70 1.382 . S
C71 C72 1.392 . S
C71 N73 1.420 . S
C72 H66 0.930 . S
C72 C68 1.407 . S
C72 C71 1.392 . S
N73 C71 1.420 . S
N73 C74 1.244 . S
C74 N73 1.244 . S
H75 C78 0.929 . S
H76 C81 0.929 . S
H77 C83 0.930 . S
C78 H75 0.929 . S
C78 C79 1.398 . S
C78 C80 1.396 . S
C79 C78 1.398 . S
C79 C83 1.407 . S
C80 C78 1.396 . S
C80 C81 1.394 . S
C81 H76 0.929 . S
C81 C80 1.394 . S
C81 C82 1.382 . S
C82 C81 1.382 . S
C82 C83 1.392 . S
C82 N84 1.420 . S
C83 H77 0.930 . S
C83 C79 1.407 . S
C83 C82 1.392 . S
N84 C82 1.420 . S
N84 C85 1.244 . S
C85 N84 1.244 . S
C86 C87 1.349 . S
C86 C88 1.327 . S
C86 H111 0.950 . S
C87 C86 1.349 . S
C87 C103 1.349 1_554 S
C88 C86 1.327 . S
C88 C107 1.429 . S
C88 H112 0.950 . S
C89 C106 1.574 . S
C89 C108 1.368 . S
C89 H113 0.949 1_554 S
H90 C94 0.949 . S
C91 C92 1.349 . S
C91 C93 1.327 . S
C91 H114 0.950 . S
C92 C91 1.349 . S
C92 C104 1.349 . S
C93 C91 1.327 . S
C93 C109 1.429 . S
C93 H115 0.950 . S
C94 H90 0.949 . S
C94 C102 1.574 . S
C94 C110 1.368 . S
H95 C103 0.950 . S
H96 C101 0.950 1_556 S
H97 C102 0.949 . S
H98 C104 0.950 . S
H99 C105 0.950 . S
H100 C106 0.949 . S
C101 H96 0.950 1_554 S
C101 C103 1.327 1_554 S
C101 C107 1.429 . S
C102 C94 1.574 . S
C102 H97 0.949 . S
C102 C108 1.368 . S
C103 C87 1.349 1_556 S
C103 H95 0.950 . S
C103 C101 1.327 1_556 S
C104 C92 1.349 . S
C104 H98 0.950 . S
C104 C105 1.327 . S
C105 H99 0.950 . S
C105 C104 1.327 . S
C105 C109 1.429 . S
C106 C89 1.574 . S
C106 H100 0.949 . S
C106 C110 1.368 . S
C107 C88 1.429 . S
C107 C101 1.429 . S
C107 C108 1.523 . S
C108 C89 1.368 . S
C108 C102 1.368 . S
C108 C107 1.523 . S
C109 C93 1.429 . S
C109 C105 1.429 . S
C109 C110 1.523 . S
C110 C94 1.368 . S
C110 C106 1.368 . S
C110 C109 1.523 . S
H111 C86 0.950 . S
H112 C88 0.950 . S
H113 C89 0.949 1_556 S
H114 C91 0.950 . S
H115 C93 0.950 . S
C116 C117 1.341 1_556 S
C116 C118 1.329 . S
C116 H141 0.955 . S
C117 C116 1.341 1_554 S
C117 C133 1.349 . S
C118 C116 1.329 . S
C118 C137 1.429 1_556 S
C118 H142 0.950 . S
C119 C136 1.574 . S
C119 C138 1.368 1_554 S
C119 H143 0.949 . S
H120 C124 0.949 . S
C121 C122 1.349 . S
C121 C123 1.327 . S
C121 H144 0.950 . S
C122 C121 1.349 . S
C122 C134 1.349 . S
C123 C121 1.327 . S
C123 C139 1.429 . S
C123 H145 0.950 1_556 S
C124 H120 0.949 . S
C124 C132 1.574 . S
C124 C140 1.368 . S
H125 C133 0.950 . S
H126 C131 0.950 . S
H127 C132 0.949 . S
H128 C134 0.950 . S
H129 C135 0.950 . S
H130 C136 0.949 . S
C131 H126 0.950 . S
C131 C133 1.327 . S
C131 C137 1.429 . S
C132 C124 1.574 . S
C132 H127 0.949 . S
C132 C138 1.368 . S
C133 C117 1.349 . S
C133 H125 0.950 . S
C133 C131 1.327 . S
C134 C122 1.349 . S
C134 H128 0.950 . S
C134 C135 1.327 . S
C135 H129 0.950 . S
C135 C134 1.327 . S
C135 C139 1.429 . S
C136 C119 1.574 . S
C136 H130 0.949 . S
C136 C140 1.368 1_554 S
C137 C118 1.429 1_554 S
C137 C131 1.429 . S
C137 C138 1.523 1_554 S
C138 C119 1.368 1_556 S
C138 C132 1.368 . S
C138 C137 1.523 1_556 S
C139 C123 1.429 . S
C139 C135 1.429 . S
C139 C140 1.523 . S
C140 C124 1.368 . S
C140 C136 1.368 1_556 S
C140 C139 1.523 . S
H141 C116 0.955 . S
H142 C118 0.950 . S
H143 C119 0.949 . S
H144 C121 0.950 . S
H145 C123 0.950 1_554 S
C146 C147 1.349 1_556 S
C146 C148 1.327 1_556 S
C146 H171 0.950 . S
C147 C146 1.349 1_554 S
C147 C163 1.349 . S
C148 C146 1.327 1_554 S
C148 C167 1.429 . S
C148 H172 0.950 1_554 S
C149 C166 1.574 . S
C149 C168 1.368 . S
C149 H173 0.949 . S
H150 C154 0.949 . S
C151 C152 1.349 . S
C151 C153 1.327 . S
C151 H174 0.950 . S
C152 C151 1.349 . S
C152 C164 1.349 . S
C153 C151 1.327 . S
C153 C169 1.429 . S
C153 H175 0.950 . S
C154 H150 0.949 . S
C154 C162 1.574 . S
C154 C170 1.368 . S
H155 C163 0.950 . S
H156 C161 0.950 . S
H157 C162 0.949 1_556 S
H158 C164 0.950 . S
H159 C165 0.950 . S
H160 C166 0.949 . S
C161 H156 0.950 . S
C161 C163 1.327 . S
C161 C167 1.429 . S
C162 C154 1.574 . S
C162 H157 0.949 1_554 S
C162 C168 1.368 . S
C163 C147 1.349 . S
C163 H155 0.950 . S
C163 C161 1.327 . S
C164 C152 1.349 . S
C164 H158 0.950 . S
C164 C165 1.327 . S
C165 H159 0.950 . S
C165 C164 1.327 . S
C165 C169 1.429 . S
C166 C149 1.574 . S
C166 H160 0.949 . S
C166 C170 1.368 . S
C167 C148 1.429 . S
C167 C161 1.429 . S
C167 C168 1.523 . S
C168 C149 1.368 . S
C168 C162 1.368 . S
C168 C167 1.523 . S
C169 C153 1.429 . S
C169 C165 1.429 . S
C169 C170 1.523 . S
C170 C154 1.368 . S
C170 C166 1.368 . S
C170 C169 1.523 . S
H171 C146 0.950 . S
H172 C148 0.950 1_556 S
H173 C149 0.949 . S
H174 C151 0.950 . S
H175 C153 0.950 . S
C176 C177 1.349 . S
C176 C178 1.327 . S
C176 H201 0.950 . S
C177 C176 1.349 . S
C177 C193 1.349 1_556 S
C178 C176 1.327 . S
C178 C197 1.429 . S
C178 H202 0.950 . S
C179 C196 1.574 . S
C179 C198 1.368 1_554 S
C179 H203 0.949 . S
H180 C184 0.949 . S
C181 C182 1.349 . S
C181 C183 1.327 . S
C181 H204 0.938 1_556 S
C182 C181 1.349 . S
C182 C194 1.349 . S
C183 C181 1.327 . S
C183 C199 1.429 . S
C183 H205 0.950 1_556 S
C184 H180 0.949 . S
C184 C192 1.574 . S
C184 C200 1.368 . S
H185 C193 0.950 . S
H186 C191 0.950 . S
H187 C192 0.949 . S
H188 C194 0.950 . S
H189 C195 0.950 . S
H190 C196 0.949 . S
C191 H186 0.950 . S
C191 C193 1.327 . S
C191 C197 1.429 1_554 S
C192 C184 1.574 . S
C192 H187 0.949 . S
C192 C198 1.368 . S
C193 C177 1.349 1_554 S
C193 H185 0.950 . S
C193 C191 1.327 . S
C194 C182 1.349 . S
C194 H188 0.950 . S
C194 C195 1.327 . S
C195 H189 0.950 . S
C195 C194 1.327 . S
C195 C199 1.429 . S
C196 C179 1.574 . S
C196 H190 0.949 . S
C196 C200 1.368 1_554 S
C197 C178 1.429 . S
C197 C191 1.429 1_556 S
C197 C198 1.523 . S
C198 C179 1.368 1_556 S
C198 C192 1.368 . S
C198 C197 1.523 . S
C199 C183 1.429 . S
C199 C195 1.429 . S
C199 C200 1.523 . S
C200 C184 1.368 . S
C200 C196 1.368 1_556 S
C200 C199 1.523 . S
H201 C176 0.950 . S
H202 C178 0.950 . S
H203 C179 0.949 . S
H204 C181 0.938 1_554 S
H205 C183 0.950 1_554 S
C206 C207 1.349 . S
C206 C208 1.327 . S
C206 H231 0.950 . S
C207 C206 1.349 . S
C207 C223 1.349 . S
C208 C206 1.327 . S
C208 C227 1.429 . S
C208 H232 0.950 . S
C209 C226 1.574 . S
C209 C228 1.368 . S
C209 H233 0.949 . S
H210 C214 0.949 . S
C211 C212 1.349 . S
C211 C213 1.327 . S
C211 H234 0.950 . S
C212 C211 1.349 . S
C212 C224 1.349 . S
C213 C211 1.327 . S
C213 C229 1.429 . S
C213 H235 0.950 . S
C214 H210 0.949 . S
C214 C222 1.574 . S
C214 C230 1.368 . S
H215 C223 0.950 . S
H216 C221 0.950 . S
H217 C222 0.949 . S
H218 C224 0.950 . S
H219 C225 0.950 . S
H220 C226 0.949 . S
C221 H216 0.950 . S
C221 C223 1.327 . S
C221 C227 1.429 . S
C222 C214 1.574 . S
C222 H217 0.949 . S
C222 C228 1.368 . S
C223 C207 1.349 . S
C223 H215 0.950 . S
C223 C221 1.327 . S
C224 C212 1.349 . S
C224 H218 0.950 . S
C224 C225 1.327 . S
C225 H219 0.950 . S
C225 C224 1.327 . S
C225 C229 1.429 . S
C226 C209 1.574 . S
C226 H220 0.949 . S
C226 C230 1.368 . S
C227 C208 1.429 . S
C227 C221 1.429 . S
C227 C228 1.523 . S
C228 C209 1.368 . S
C228 C222 1.368 . S
C228 C227 1.523 . S
C229 C213 1.429 . S
C229 C225 1.429 . S
C229 C230 1.523 . S
C230 C214 1.368 . S
C230 C226 1.368 . S
C230 C229 1.523 . S
H231 C206 0.950 . S
H232 C208 0.950 . S
H233 C209 0.949 . S
H234 C211 0.950 . S
H235 C213 0.950 . S
C236 C237 1.349 . S
C236 C238 1.327 . S
C236 H261 0.950 . S
C237 C236 1.349 . S
C237 C253 1.349 . S
C238 C236 1.327 . S
C238 C257 1.429 . S
C238 H262 0.950 . S
C239 C256 1.574 . S
C239 C258 1.368 . S
C239 H263 0.949 . S
H240 C244 0.949 . S
C241 C242 1.349 . S
C241 C243 1.327 . S
C241 H264 0.950 . S
C242 C241 1.349 . S
C242 C254 1.349 . S
C243 C241 1.327 . S
C243 C259 1.429 . S
C243 H265 0.950 . S
C244 H240 0.949 . S
C244 C252 1.574 . S
C244 C260 1.368 . S
H245 C253 0.950 . S
H246 C251 0.950 . S
H247 C252 0.949 . S
H248 C254 0.950 . S
H249 C255 0.950 . S
H250 C256 0.949 . S
C251 H246 0.950 . S
C251 C253 1.327 . S
C251 C257 1.429 . S
C252 C244 1.574 . S
C252 H247 0.949 . S
C252 C258 1.368 . S
C253 C237 1.349 . S
C253 H245 0.950 . S
C253 C251 1.327 . S
C254 C242 1.349 . S
C254 H248 0.950 . S
C254 C255 1.327 . S
C255 H249 0.950 . S
C255 C254 1.327 . S
C255 C259 1.429 . S
C256 C239 1.574 . S
C256 H250 0.949 . S
C256 C260 1.368 . S
C257 C238 1.429 . S
C257 C251 1.429 . S
C257 C258 1.523 . S
C258 C239 1.368 . S
C258 C252 1.368 . S
C258 C257 1.523 . S
C259 C243 1.429 . S
C259 C255 1.429 . S
C259 C260 1.523 . S
C260 C244 1.368 . S
C260 C256 1.368 . S
C260 C259 1.523 . S
H261 C236 0.950 . S
H262 C238 0.950 . S
H263 C239 0.949 . S
H264 C241 0.950 . S
H265 C243 0.950 . S
C266 C267 1.349 . S
C266 C268 1.327 . S
C266 H291 0.950 . S
C267 C266 1.349 . S
C267 C283 1.349 . S
C268 C266 1.327 . S
C268 C287 1.429 . S
C268 H292 0.950 . S
C269 C286 1.574 . S
C269 C288 1.368 . S
C269 H293 0.949 . S
H270 C274 0.949 . S
C271 C272 1.349 . S
C271 C273 1.327 . S
C271 H294 0.950 . S
C272 C271 1.349 . S
C272 C284 1.349 . S
C273 C271 1.327 . S
C273 C289 1.429 . S
C273 H295 0.950 . S
C274 H270 0.949 . S
C274 C282 1.574 . S
C274 C290 1.368 . S
H275 C283 0.950 . S
H276 C281 0.950 . S
H277 C282 0.949 . S
H278 C284 0.950 . S
H279 C285 0.950 . S
H280 C286 0.949 . S
C281 H276 0.950 . S
C281 C283 1.327 . S
C281 C287 1.429 . S
C282 C274 1.574 . S
C282 H277 0.949 . S
C282 C288 1.368 . S
C283 C267 1.349 . S
C283 H275 0.950 . S
C283 C281 1.327 . S
C284 C272 1.349 . S
C284 H278 0.950 . S
C284 C285 1.327 . S
C285 H279 0.950 . S
C285 C284 1.327 . S
C285 C289 1.429 . S
C286 C269 1.574 . S
C286 H280 0.949 . S
C286 C290 1.368 . S
C287 C268 1.429 . S
C287 C281 1.429 . S
C287 C288 1.523 . S
C288 C269 1.368 . S
C288 C282 1.368 . S
C288 C287 1.523 . S
C289 C273 1.429 . S
C289 C285 1.429 . S
C289 C290 1.523 . S
C290 C274 1.368 . S
C290 C286 1.368 . S
C290 C289 1.523 . S
H291 C266 0.950 . S
H292 C268 0.950 . S
H293 C269 0.949 . S
H294 C271 0.950 . S
H295 C273 0.950 . S
C296 C297 1.349 . S
C296 C298 1.327 . S
C296 H321 0.950 . S
C297 C296 1.349 . S
C297 C313 1.349 . S
C298 C296 1.327 . S
C298 C317 1.429 . S
C298 H322 0.950 . S
C299 C316 1.574 . S
C299 C318 1.368 . S
C299 H323 0.949 . S
H300 C304 0.949 . S
C301 C302 1.349 . S
C301 C303 1.327 . S
C301 H324 0.950 . S
C302 C301 1.349 . S
C302 C314 1.349 . S
C303 C301 1.327 . S
C303 C319 1.429 . S
C303 H325 0.950 . S
C304 H300 0.949 . S
C304 C312 1.574 . S
C304 C320 1.368 . S
H305 C313 0.950 . S
H306 C311 0.950 . S
H307 C312 0.949 . S
H308 C314 0.950 . S
H309 C315 0.950 . S
H310 C316 0.949 . S
C311 H306 0.950 . S
C311 C313 1.327 . S
C311 C317 1.429 . S
C312 C304 1.574 . S
C312 H307 0.949 . S
C312 C318 1.368 . S
C313 C297 1.349 . S
C313 H305 0.950 . S
C313 C311 1.327 . S
C314 C302 1.349 . S
C314 H308 0.950 . S
C314 C315 1.327 . S
C315 H309 0.950 . S
C315 C314 1.327 . S
C315 C319 1.429 . S
C316 C299 1.574 . S
C316 H310 0.949 . S
C316 C320 1.368 . S
C317 C298 1.429 . S
C317 C311 1.429 . S
C317 C318 1.523 . S
C318 C299 1.368 . S
C318 C312 1.368 . S
C318 C317 1.523 . S
C319 C303 1.429 . S
C319 C315 1.429 . S
C319 C320 1.523 . S
C320 C304 1.368 . S
C320 C316 1.368 . S
C320 C319 1.523 . S
H321 C296 0.950 . S
H322 C298 0.950 . S
H323 C299 0.949 . S
H324 C301 0.950 . S
H325 C303 0.950 . S
C326 C327 1.349 1_565 S
C326 C328 1.327 . S
C326 H351 0.950 . S
C327 C326 1.349 1_545 S
C327 C343 1.349 . S
C328 C326 1.327 . S
C328 C347 1.423 1_565 S
C328 H352 0.950 . S
C329 C346 1.574 . S
C329 C348 1.355 1_545 S
C329 H353 0.949 . S
H330 C334 0.949 . S
C331 C332 1.349 1_545 S
C331 C333 1.327 . S
C331 H354 0.950 . S
C332 C331 1.349 1_565 S
C332 C344 1.349 . S
C333 C331 1.327 . S
C333 C349 1.429 1_545 S
C333 H355 0.950 . S
C334 H330 0.949 . S
C334 C342 1.574 . S
C334 C350 1.368 . S
H335 C343 0.950 . S
H336 C341 0.950 . S
H337 C342 0.949 . S
H338 C344 0.950 . S
H339 C345 0.950 . S
H340 C346 0.949 . S
C341 H336 0.950 . S
C341 C343 1.327 . S
C341 C347 1.435 . S
C342 C334 1.574 . S
C342 H337 0.949 . S
C342 C348 1.384 . S
C343 C327 1.349 . S
C343 H335 0.950 . S
C343 C341 1.327 . S
C344 C332 1.349 . S
C344 H338 0.950 . S
C344 C345 1.327 . S
C345 H339 0.950 . S
C345 C344 1.327 . S
C345 C349 1.429 . S
C346 C329 1.574 . S
C346 H340 0.949 . S
C346 C350 1.368 1_545 S
C347 C328 1.423 1_545 S
C347 C341 1.435 . S
C347 C348 1.519 1_545 S
C348 C329 1.355 1_565 S
C348 C342 1.384 . S
C348 C347 1.519 1_565 S
C349 C333 1.429 1_565 S
C349 C345 1.429 . S
C349 C350 1.523 . S
C350 C334 1.368 . S
C350 C346 1.368 1_565 S
C350 C349 1.523 . S
H351 C326 0.950 . S
H352 C328 0.950 . S
H353 C329 0.949 . S
H354 C331 0.950 . S
H355 C333 0.950 . S
C356 C357 1.349 1_565 S
C356 C358 1.327 1_455 S
C356 H381 0.950 1_455 S
C357 C356 1.349 1_545 S
C357 C373 1.349 . S
C358 C356 1.327 1_655 S
C358 C377 1.429 1_665 S
C358 H382 0.950 . S
C359 C376 1.574 . S
C359 C378 1.368 . S
C359 H383 0.949 . S
H360 C364 0.949 1_565 S
C361 C362 1.349 1_455 S
C361 C363 1.327 . S
C361 H384 0.950 . S
C362 C361 1.349 1_655 S
C362 C374 1.349 . S
C363 C361 1.327 . S
C363 C379 1.429 . S
C363 H385 0.950 . S
C364 H360 0.949 1_545 S
C364 C372 1.574 . S
C364 C380 1.368 1_655 S
H365 C373 0.950 . S
H366 C371 0.950 . S
H367 C372 0.949 1_565 S
H368 C374 0.950 . S
H369 C375 0.950 1_565 S
H370 C376 0.949 . S
C371 H366 0.950 . S
C371 C373 1.327 . S
C371 C377 1.429 . S
C372 C364 1.574 . S
C372 H367 0.949 1_545 S
C372 C378 1.368 1_655 S
C373 C357 1.349 . S
C373 H365 0.950 . S
C373 C371 1.327 . S
C374 C362 1.349 . S
C374 H368 0.950 . S
C374 C375 1.327 . S
C375 H369 0.950 1_545 S
C375 C374 1.327 . S
C375 C379 1.429 1_655 S
C376 C359 1.574 . S
C376 H370 0.949 . S
C376 C380 1.368 . S
C377 C358 1.429 1_445 S
C377 C371 1.429 . S
C377 C378 1.523 . S
C378 C359 1.368 . S
C378 C372 1.368 1_455 S
C378 C377 1.523 . S
C379 C363 1.429 . S
C379 C375 1.429 1_455 S
C379 C380 1.523 . S
C380 C364 1.368 1_455 S
C380 C376 1.368 . S
C380 C379 1.523 . S
H381 C356 0.950 1_655 S
H382 C358 0.950 . S
H383 C359 0.949 . S
H384 C361 0.950 . S
H385 C363 0.950 . S
C386 C387 1.349 . S
C386 C388 1.327 . S
C386 H411 0.950 . S
C387 C386 1.349 . S
C387 C403 1.349 . S
C388 C386 1.327 . S
C388 C407 1.429 . S
C388 H412 0.950 . S
C389 C406 1.574 . S
C389 C408 1.368 . S
C389 H413 0.949 . S
H390 C394 0.949 . S
C391 C392 1.349 . S
C391 C393 1.327 . S
C391 H414 0.950 . S
C392 C391 1.349 . S
C392 C404 1.349 . S
C393 C391 1.327 . S
C393 C409 1.429 . S
C393 H415 0.950 . S
C394 H390 0.949 . S
C394 C402 1.574 . S
C394 C410 1.368 . S
H395 C403 0.950 . S
H396 C401 0.950 . S
H397 C402 0.949 . S
H398 C404 0.950 . S
H399 C405 0.950 . S
H400 C406 0.949 . S
C401 H396 0.950 . S
C401 C403 1.327 . S
C401 C407 1.429 . S
C402 C394 1.574 . S
C402 H397 0.949 . S
C402 C408 1.368 . S
C403 C387 1.349 . S
C403 H395 0.950 . S
C403 C401 1.327 . S
C404 C392 1.349 . S
C404 H398 0.950 . S
C404 C405 1.327 . S
C405 H399 0.950 . S
C405 C404 1.327 . S
C405 C409 1.429 . S
C406 C389 1.574 . S
C406 H400 0.949 . S
C406 C410 1.368 . S
C407 C388 1.429 . S
C407 C401 1.429 . S
C407 C408 1.523 . S
C408 C389 1.368 . S
C408 C402 1.368 . S
C408 C407 1.523 . S
C409 C393 1.429 . S
C409 C405 1.429 . S
C409 C410 1.523 . S
C410 C394 1.368 . S
C410 C406 1.368 . S
C410 C409 1.523 . S
H411 C386 0.950 . S
H412 C388 0.950 . S
H413 C389 0.949 . S
H414 C391 0.950 . S
H415 C393 0.950 . S
C416 C417 1.349 . S
C416 C418 1.327 . S
C416 H441 0.950 . S
C417 C416 1.349 . S
C417 C433 1.349 . S
C418 C416 1.327 . S
C418 C437 1.429 . S
C418 H442 0.950 . S
C419 C436 1.574 . S
C419 C438 1.368 . S
C419 H443 0.949 . S
H420 C424 0.949 . S
C421 C422 1.349 . S
C421 C423 1.327 . S
C421 H444 0.950 . S
C422 C421 1.349 . S
C422 C434 1.349 . S
C423 C421 1.327 . S
C423 C439 1.429 . S
C423 H445 0.950 . S
C424 H420 0.949 . S
C424 C432 1.574 . S
C424 C440 1.368 . S
H425 C433 0.950 . S
H426 C431 0.950 . S
H427 C432 0.949 . S
H428 C434 0.950 . S
H429 C435 0.950 . S
H430 C436 0.949 . S
C431 H426 0.950 . S
C431 C433 1.327 . S
C431 C437 1.429 . S
C432 C424 1.574 . S
C432 H427 0.949 . S
C432 C438 1.368 . S
C433 C417 1.349 . S
C433 H425 0.950 . S
C433 C431 1.327 . S
C434 C422 1.349 . S
C434 H428 0.950 . S
C434 C435 1.327 . S
C435 H429 0.950 . S
C435 C434 1.327 . S
C435 C439 1.429 . S
C436 C419 1.574 . S
C436 H430 0.949 . S
C436 C440 1.368 . S
C437 C418 1.429 . S
C437 C431 1.429 . S
C437 C438 1.523 . S
C438 C419 1.368 . S
C438 C432 1.368 . S
C438 C437 1.523 . S
C439 C423 1.429 . S
C439 C435 1.429 . S
C439 C440 1.523 . S
C440 C424 1.368 . S
C440 C436 1.368 . S
C440 C439 1.523 . S
H441 C416 0.950 . S
H442 C418 0.950 . S
H443 C419 0.949 . S
H444 C421 0.950 . S
H445 C423 0.950 . S
C92 C79 1.432 . S
C87 C16 1.287 . S
C117 C15 1.385 . S
C122 C74 1.370 . S
C147 C13 1.256 . S
C152 C85 1.400 . S
C177 C14 1.406 . S
C182 C68 1.437 . S
C207 C37 1.287 . S
C212 C57 1.432 1_565 S
C237 C36 1.385 . S
C242 C52 1.370 . S
C272 C63 1.400 . S
C267 C34 1.252 . S
C302 C46 1.437 . S
C297 C35 1.406 . S
C327 C17 1.583 . S
C332 C47 1.623 . S
C357 C18 1.383 . S
C362 C58 1.408 . S
C392 C69 1.622 . S
C387 C38 1.583 . S
C417 C39 1.383 . S
C422 C80 1.408 . S
