# Generated by pormake.
# Topology ssa, (4,4)-cn, num edge types: 1
# Building blocks:
#     Node 0, Type 0, BuildingBlock: KOZSID_clean_sbu_0, # of connection points: 4
#     Node 1, Type 0, BuildingBlock: KOZSID_clean_sbu_0, # of connection points: 4
#     Node 2, Type 0, BuildingBlock: KOZSID_clean_sbu_0, # of connection points: 4
#     Node 3, Type 0, BuildingBlock: KOZSID_clean_sbu_0, # of connection points: 4
#     Node 4, Type 0, BuildingBlock: KOZSID_clean_sbu_0, # of connection points: 4
#     Node 5, Type 0, BuildingBlock: KOZSID_clean_sbu_0, # of connection points: 4
#     Node 6, Type 1, BuildingBlock: NAHDIM_clean_linker_0, # of connection points: 4
#     Node 7, Type 1, BuildingBlock: NAHDIM_clean_linker_0, # of connection points: 4
#     Node 8, Type 1, BuildingBlock: NAHDIM_clean_linker_0, # of connection points: 4
#     Node 9, Type 1, BuildingBlock: NAHDIM_clean_linker_0, # of connection points: 4
#     Node 10, Type 1, BuildingBlock: NAHDIM_clean_linker_0, # of connection points: 4
#     Node 11, Type 1, BuildingBlock: NAHDIM_clean_linker_0, # of connection points: 4
#     Edge 12, Type (0, 1), BuildingBlock: TEMPAE_clean_linker_10, # of connection points: 2
#     Edge 13, Type (0, 1), BuildingBlock: TEMPAE_clean_linker_10, # of connection points: 2
#     Edge 14, Type (0, 1), BuildingBlock: TEMPAE_clean_linker_10, # of connection points: 2
#     Edge 15, Type (0, 1), BuildingBlock: TEMPAE_clean_linker_10, # of connection points: 2
#     Edge 16, Type (0, 1), BuildingBlock: TEMPAE_clean_linker_10, # of connection points: 2
#     Edge 17, Type (0, 1), BuildingBlock: TEMPAE_clean_linker_10, # of connection points: 2
#     Edge 18, Type (0, 1), BuildingBlock: TEMPAE_clean_linker_10, # of connection points: 2
#     Edge 19, Type (0, 1), BuildingBlock: TEMPAE_clean_linker_10, # of connection points: 2
#     Edge 20, Type (0, 1), BuildingBlock: TEMPAE_clean_linker_10, # of connection points: 2
#     Edge 21, Type (0, 1), BuildingBlock: TEMPAE_clean_linker_10, # of connection points: 2
#     Edge 22, Type (0, 1), BuildingBlock: TEMPAE_clean_linker_10, # of connection points: 2
#     Edge 23, Type (0, 1), BuildingBlock: TEMPAE_clean_linker_10, # of connection points: 2
#     Edge 24, Type (0, 1), BuildingBlock: TEMPAE_clean_linker_10, # of connection points: 2
#     Edge 25, Type (0, 1), BuildingBlock: TEMPAE_clean_linker_10, # of connection points: 2
#     Edge 26, Type (0, 1), BuildingBlock: TEMPAE_clean_linker_10, # of connection points: 2
#     Edge 27, Type (0, 1), BuildingBlock: TEMPAE_clean_linker_10, # of connection points: 2
#     Edge 28, Type (0, 1), BuildingBlock: TEMPAE_clean_linker_10, # of connection points: 2
#     Edge 29, Type (0, 1), BuildingBlock: TEMPAE_clean_linker_10, # of connection points: 2
#     Edge 30, Type (0, 1), BuildingBlock: TEMPAE_clean_linker_10, # of connection points: 2
#     Edge 31, Type (0, 1), BuildingBlock: TEMPAE_clean_linker_10, # of connection points: 2
#     Edge 32, Type (0, 1), BuildingBlock: TEMPAE_clean_linker_10, # of connection points: 2
#     Edge 33, Type (0, 1), BuildingBlock: TEMPAE_clean_linker_10, # of connection points: 2
#     Edge 34, Type (0, 1), BuildingBlock: TEMPAE_clean_linker_10, # of connection points: 2
#     Edge 35, Type (0, 1), BuildingBlock: TEMPAE_clean_linker_10, # of connection points: 2
# Relax obj value: 0.012
# Max RMSD: 0.050
# Mean RMSD: 0.032
data_MOF--net-ssa--node1-KOZSID_clean_sbu_0--node2-NAHDIM_clean_linker_0--edge1-TEMPAE_clean_linker_10
_symmetry_space_group_name_H-M    P1
_symmetry_Int_Tables_number       1
_symmetry_cell_setting            triclinic
loop_
_symmetry_equiv_pos_as_xyz
'x, y, z'
_cell_length_a     66.395155
_cell_length_b     67.709694
_cell_length_c     58.181534
_cell_angle_alpha  87.704322
_cell_angle_beta   90.377614
_cell_angle_gamma 122.03286
loop_
_atom_site_label
_atom_site_type_symbol
_atom_site_fract_x
_atom_site_fract_y
_atom_site_fract_z
_atom_type_partial_charge
C0 C 0.98369 0.51949 0.98612 0.0
C1 C 0.96135 0.51461 0.99261 0.0
C2 C 0.95464 0.50023 0.01184 0.0
C3 C 0.97313 0.4971 0.01594 0.0
N4 N 0.99132 0.50865 0.00051 0.0
Co5 Co 0.02138 0.50832 0.99962 0.0
N6 N 0.01198 0.48809 0.02862 0.0
C7 C 0.99225 0.48051 0.04178 0.0
C8 C 0.9913 0.4682 0.06142 0.0
C9 C 0.01166 0.46792 0.06089 0.0
C10 C 0.0238 0.4799 0.04068 0.0
N11 N 0.05106 0.50737 0.99835 0.0
C12 C 0.05864 0.49638 0.01264 0.0
C13 C 0.07984 0.49937 0.00478 0.0
C14 C 0.08607 0.51302 0.98505 0.0
C15 C 0.06831 0.51739 0.98185 0.0
N16 N 0.03111 0.52921 0.97106 0.0
C17 C 0.05143 0.5379 0.9586 0.0
C18 C 0.05345 0.55219 0.94022 0.0
C19 C 0.03326 0.5528 0.94104 0.0
C20 C 0.02004 0.53873 0.95991 0.0
N21 N 0.03767 0.53628 0.01851 0.0
C22 C 0.06107 0.57455 0.04713 0.0
C23 C 0.07298 0.57259 0.02848 0.0
C24 C 0.06101 0.55346 0.01446 0.0
C25 C 0.03712 0.5574 0.05074 0.0
C26 C 0.0259 0.53864 0.03639 0.0
N27 N 0.005 0.4803 0.98077 0.0
C28 C 0.00234 0.46022 0.94628 0.0
C29 C 0.98024 0.44111 0.95345 0.0
C30 C 0.97112 0.44171 0.97476 0.0
C31 C 0.98365 0.46123 0.988 0.0
C32 C 0.01433 0.4795 0.96011 0.0
H33 H 0.97557 0.46045 0.00397 0.0
H34 H 0.03099 0.4936 0.95362 0.0
H35 H 0.07104 0.55281 0.0006 0.0
H36 H 0.0077 0.52621 0.04024 0.0
C37 C 0.97462 0.48472 0.03494 0.0
C38 C 0.99707 0.53492 0.96645 0.0
C39 C 0.04648 0.48301 0.03378 0.0
C40 C 0.06784 0.53163 0.96411 0.0
H41 H 0.95107 0.52101 0.98443 0.0
H42 H 0.9384 0.49321 0.02188 0.0
H43 H 0.97746 0.46039 0.07458 0.0
H44 H 0.01693 0.45983 0.074 0.0
H45 H 0.08986 0.49249 0.01253 0.0
H46 H 0.10177 0.51917 0.97439 0.0
H47 H 0.06782 0.561 0.92765 0.0
H48 H 0.02871 0.56243 0.92906 0.0
H49 H 0.09158 0.58548 0.02497 0.0
H50 H 0.02694 0.55843 0.0646 0.0
H51 H 0.01014 0.46054 0.92986 0.0
H52 H 0.95432 0.42709 0.98133 0.0
C53 C 0.53898 0.00619 0.54794 0.0
C54 C 0.53861 0.99309 0.56712 0.0
C55 C 0.51717 0.97258 0.56742 0.0
C56 C 0.50577 0.97423 0.54842 0.0
N57 N 0.51865 0.99454 0.53591 0.0
Co58 Co 0.50915 0.00379 0.50653 0.0
N59 N 0.47717 0.974 0.50758 0.0
C60 C 0.46866 0.9566 0.52401 0.0
C61 C 0.44592 0.93858 0.52034 0.0
C62 C 0.4394 0.94484 0.50043 0.0
C63 C 0.45868 0.96641 0.49307 0.0
N64 N 0.49982 0.01282 0.47687 0.0
C65 C 0.47932 0.00131 0.46504 0.0
C66 C 0.48027 0.01363 0.44501 0.0
C67 C 0.50213 0.03372 0.44415 0.0
C68 C 0.51324 0.03249 0.4636 0.0
N69 N 0.54096 0.03381 0.50574 0.0
C70 C 0.54919 0.05149 0.48964 0.0
C71 C 0.57134 0.07016 0.49407 0.0
C72 C 0.57765 0.06416 0.51429 0.0
C73 C 0.55894 0.04201 0.52097 0.0
N74 N 0.5226 0.98874 0.48879 0.0
C75 C 0.5419 0.9675 0.46371 0.0
C76 C 0.54731 0.99001 0.45765 0.0
C77 C 0.53765 0.00022 0.47034 0.0
C78 C 0.52654 0.9558 0.48252 0.0
C79 C 0.51711 0.96659 0.49462 0.0
N80 N 0.49571 0.01881 0.52424 0.0
C81 C 0.48873 0.05012 0.52834 0.0
C82 C 0.47634 0.04 0.54905 0.0
C83 C 0.47391 0.01918 0.55726 0.0
C84 C 0.48349 0.00885 0.54458 0.0
C85 C 0.49835 0.03944 0.51642 0.0
H86 H 0.48069 0.99278 0.55154 0.0
H87 H 0.50788 0.04823 0.50093 0.0
H88 H 0.54265 0.01741 0.46484 0.0
H89 H 0.5055 0.95664 0.50867 0.0
C90 C 0.48264 0.95743 0.5424 0.0
C91 C 0.55893 0.02969 0.54211 0.0
C92 C 0.45844 0.97895 0.47223 0.0
C93 C 0.5358 0.04994 0.47041 0.0
H94 H 0.55237 0.9979 0.57971 0.0
H95 H 0.51057 0.95827 0.5801 0.0
H96 H 0.43536 0.92274 0.53086 0.0
H97 H 0.42238 0.93469 0.49223 0.0
H98 H 0.46648 0.00868 0.43241 0.0
H99 H 0.509 0.04769 0.43107 0.0
H100 H 0.58164 0.08627 0.48387 0.0
H101 H 0.59412 0.07494 0.52316 0.0
H102 H 0.5588 0.99975 0.443 0.0
H103 H 0.52201 0.93846 0.48819 0.0
H104 H 0.49128 0.06643 0.52149 0.0
H105 H 0.4643 0.01067 0.5732 0.0
C106 C 0.54573 0.53658 0.9761 0.0
C107 C 0.54693 0.54916 0.95614 0.0
C108 C 0.52657 0.54947 0.95556 0.0
C109 C 0.51398 0.5369 0.97494 0.0
N110 N 0.52514 0.52872 0.98804 0.0
Co111 Co 0.51191 0.50748 0.01633 0.0
N112 N 0.48161 0.50737 0.01497 0.0
C113 C 0.47628 0.51942 0.99964 0.0
C114 C 0.45453 0.51656 0.00348 0.0
C115 C 0.44545 0.50195 0.02255 0.0
C116 C 0.46227 0.49671 0.0292 0.0
N117 N 0.49835 0.48551 0.04405 0.0
C118 C 0.47701 0.47614 0.05496 0.0
C119 C 0.47448 0.46117 0.07328 0.0
C120 C 0.49498 0.46111 0.07404 0.0
C121 C 0.50877 0.47593 0.0562 0.0
N122 N 0.54253 0.50834 0.0183 0.0
C123 C 0.54869 0.49803 0.03491 0.0
C124 C 0.57139 0.50286 0.03254 0.0
C125 C 0.58026 0.51696 0.01315 0.0
C126 C 0.56222 0.51964 0.00456 0.0
N127 N 0.52551 0.53477 0.03621 0.0
C128 C 0.54553 0.57366 0.06423 0.0
C129 C 0.54529 0.55353 0.07105 0.0
C130 C 0.53523 0.53447 0.05697 0.0
C131 C 0.53532 0.57391 0.04324 0.0
C132 C 0.52555 0.55447 0.02958 0.0
N133 N 0.4984 0.48026 0.99641 0.0
C134 C 0.49551 0.44481 0.98516 0.0
C135 C 0.48087 0.44267 0.96681 0.0
C136 C 0.47484 0.45949 0.96385 0.0
C137 C 0.48377 0.47798 0.97863 0.0
C138 C 0.50388 0.46348 0.99969 0.0
H139 H 0.47867 0.49028 0.97521 0.0
H140 H 0.51497 0.46408 0.01331 0.0
H141 H 0.53553 0.51968 0.06332 0.0
H142 H 0.51823 0.55583 0.01371 0.0
C143 C 0.49165 0.53243 0.98125 0.0
C144 C 0.56431 0.53216 0.98276 0.0
C145 C 0.45893 0.4814 0.04907 0.0
C146 C 0.53222 0.48268 0.05161 0.0
H147 H 0.5609 0.5571 0.94314 0.0
H148 H 0.5214 0.55762 0.9424 0.0
H149 H 0.44619 0.52407 0.99351 0.0
H150 H 0.42835 0.49579 0.03062 0.0
H151 H 0.4595 0.45157 0.0851 0.0
H152 H 0.49952 0.45181 0.08646 0.0
H153 H 0.58028 0.49653 0.04338 0.0
H154 H 0.5979 0.52411 0.00594 0.0
H155 H 0.55261 0.55234 0.08737 0.0
H156 H 0.5352 0.58918 0.03717 0.0
H157 H 0.50093 0.43241 0.98814 0.0
H158 H 0.46315 0.45842 0.95022 0.0
C159 C 0.96158 0.44895 0.51501 0.0
C160 C 0.93882 0.43249 0.50807 0.0
C161 C 0.93184 0.4439 0.49326 0.0
C162 C 0.95074 0.46652 0.49173 0.0
N163 N 0.96934 0.47005 0.50439 0.0
Co164 Co 0.00058 0.49989 0.50604 0.0
N165 N 0.99385 0.51365 0.47843 0.0
C166 C 0.97238 0.5056 0.46909 0.0
C167 C 0.97321 0.51838 0.44982 0.0
C168 C 0.99663 0.53568 0.44692 0.0
C169 C 0.0088 0.53261 0.46482 0.0
N170 N 0.03191 0.52959 0.50755 0.0
C171 C 0.04374 0.54712 0.49143 0.0
C172 C 0.06507 0.56495 0.49993 0.0
C173 C 0.06649 0.55837 0.52212 0.0
C174 C 0.04603 0.53702 0.52598 0.0
N175 N 0.00722 0.48647 0.53396 0.0
C176 C 0.02368 0.49876 0.54977 0.0
C177 C 0.02326 0.48529 0.56819 0.0
C178 C 0.00525 0.46311 0.56388 0.0
C179 C 0.99572 0.46427 0.54287 0.0
N180 N 0.01483 0.48745 0.48648 0.0
C181 C 0.03514 0.46924 0.45868 0.0
C182 C 0.04551 0.47951 0.4795 0.0
C183 C 0.03526 0.48867 0.49295 0.0
C184 C 0.01431 0.4684 0.45218 0.0
C185 C 0.00438 0.47737 0.46635 0.0
N186 N 0.98634 0.51227 0.52571 0.0
C187 C 0.98418 0.54459 0.53822 0.0
C188 C 0.96881 0.5306 0.55628 0.0
C189 C 0.9618 0.50721 0.55844 0.0
C190 C 0.97075 0.49837 0.54301 0.0
C191 C 0.99262 0.53503 0.52298 0.0
H192 H 0.96542 0.4804 0.5455 0.0
H193 H 0.00463 0.54622 0.50932 0.0
H194 H 0.04385 0.49663 0.50868 0.0
H195 H 0.98823 0.47614 0.46095 0.0
C196 C 0.95291 0.48388 0.47626 0.0
C197 C 0.97425 0.44449 0.53332 0.0
C198 C 0.03419 0.54866 0.46906 0.0
C199 C 0.04093 0.52228 0.54543 0.0
H200 H 0.92819 0.41421 0.51335 0.0
H201 H 0.91526 0.43641 0.48417 0.0
H202 H 0.95873 0.51491 0.43858 0.0
H203 H 0.00385 0.54894 0.43314 0.0
H204 H 0.07804 0.58127 0.49121 0.0
H205 H 0.08095 0.56781 0.53386 0.0
H206 H 0.03486 0.49085 0.58285 0.0
H207 H 0.99946 0.44798 0.57531 0.0
H208 H 0.06131 0.48024 0.48564 0.0
H209 H 0.00574 0.46105 0.43615 0.0
H210 H 0.98998 0.56285 0.53619 0.0
H211 H 0.94991 0.49597 0.5723 0.0
C212 C 0.48501 0.00731 0.05668 0.0
C213 C 0.48774 0.02094 0.0751 0.0
C214 C 0.50929 0.04114 0.07213 0.0
C215 C 0.51861 0.03865 0.05234 0.0
N216 N 0.50434 0.01807 0.0424 0.0
Co217 Co 0.51203 0.00659 0.01452 0.0
N218 N 0.54373 0.03651 0.01014 0.0
C219 C 0.55265 0.05555 0.02298 0.0
C220 C 0.57494 0.0733 0.0162 0.0
C221 C 0.58065 0.06523 0.99783 0.0
C222 C 0.56133 0.04293 0.99436 0.0
N223 N 0.52002 0.9948 0.98708 0.0
C224 C 0.5399 0.00507 0.97353 0.0
C225 C 0.538 0.99069 0.95617 0.0
C226 C 0.51644 0.9705 0.95912 0.0
C227 C 0.50633 0.97369 0.9779 0.0
N228 N 0.47999 0.97697 0.01845 0.0
C229 C 0.47045 0.95851 0.00474 0.0
C230 C 0.44776 0.9412 0.01096 0.0
C231 C 0.44242 0.94898 0.02981 0.0
C232 C 0.46237 0.97061 0.03419 0.0
N233 N 0.49763 0.02003 0.99431 0.0
C234 C 0.4785 0.03958 0.96439 0.0
C235 C 0.47413 0.01729 0.9613 0.0
C236 C 0.48383 0.00801 0.97622 0.0
C237 C 0.4922 0.05172 0.98311 0.0
C238 C 0.50142 0.04166 0.99779 0.0
N239 N 0.52648 0.99318 0.03467 0.0
C240 C 0.52896 0.96025 0.04809 0.0
C241 C 0.5475 0.97432 0.06259 0.0
C242 C 0.55532 0.99788 0.06308 0.0
C243 C 0.54445 0.00683 0.0493 0.0
C244 C 0.51895 0.97002 0.03418 0.0
H245 H 0.55093 0.02484 0.0508 0.0
H246 H 0.50525 0.95848 0.0231 0.0
H247 H 0.47997 0.99109 0.97264 0.0
H248 H 0.51173 0.05179 0.01171 0.0
C249 C 0.54052 0.05546 0.04249 0.0
C250 C 0.46373 0.98433 0.05354 0.0
C251 C 0.56086 0.02835 0.97626 0.0
C252 C 0.48353 0.95767 0.98655 0.0
H253 H 0.4755 0.01675 0.08931 0.0
H254 H 0.51725 0.05587 0.08314 0.0
H255 H 0.58599 0.08989 0.02406 0.0
H256 H 0.59737 0.07462 0.9884 0.0
H257 H 0.5508 0.99442 0.94264 0.0
H258 H 0.50888 0.95541 0.94861 0.0
H259 H 0.43648 0.92482 0.0028 0.0
H260 H 0.42569 0.9397 0.03926 0.0
H261 H 0.46316 0.00688 0.94741 0.0
H262 H 0.49621 0.06911 0.98622 0.0
H263 H 0.52252 0.94188 0.04717 0.0
H264 H 0.56957 0.0093 0.07429 0.0
C265 C 0.52245 0.55315 0.49989 0.0
C266 C 0.51903 0.57017 0.50811 0.0
C267 C 0.5023 0.55972 0.52532 0.0
C268 C 0.49671 0.53712 0.52686 0.0
N269 N 0.50876 0.53242 0.5116 0.0
Co270 Co 0.50766 0.50235 0.5095 0.0
N271 N 0.48433 0.48758 0.53585 0.0
C272 C 0.47308 0.49655 0.54645 0.0
C273 C 0.45818 0.48239 0.56411 0.0
C274 C 0.46022 0.46334 0.56496 0.0
C275 C 0.4763 0.46701 0.54768 0.0
N276 N 0.5077 0.47279 0.50832 0.0
C277 C 0.49814 0.45406 0.52326 0.0
C278 C 0.50339 0.43772 0.51685 0.0
C279 C 0.51717 0.44667 0.49735 0.0
C280 C 0.51955 0.46786 0.49306 0.0
N281 N 0.53023 0.5167 0.48257 0.0
C282 C 0.53765 0.50591 0.46904 0.0
C283 C 0.55191 0.51971 0.45093 0.0
C284 C 0.55374 0.54058 0.45299 0.0
C285 C 0.54061 0.5384 0.4725 0.0
N286 N 0.53448 0.51426 0.53095 0.0
C287 C 0.57262 0.53109 0.56164 0.0
C288 C 0.57334 0.52192 0.54074 0.0
C289 C 0.5543 0.5138 0.52571 0.0
C290 C 0.55238 0.53165 0.5668 0.0
C291 C 0.53362 0.52308 0.55143 0.0
N292 N 0.48058 0.49036 0.48776 0.0
C293 C 0.45903 0.46688 0.45558 0.0
C294 C 0.44361 0.475 0.45554 0.0
C295 C 0.4467 0.49057 0.47226 0.0
C296 C 0.46496 0.49779 0.48814 0.0
C297 C 0.47722 0.47475 0.47155 0.0
H298 H 0.46602 0.50954 0.50036 0.0
H299 H 0.48824 0.46787 0.47019 0.0
H300 H 0.55587 0.5071 0.50995 0.0
H301 H 0.51857 0.52378 0.5564 0.0
C302 C 0.47981 0.51969 0.542 0.0
C303 C 0.53857 0.55739 0.48073 0.0
C304 C 0.48455 0.45127 0.544 0.0
C305 C 0.53258 0.48351 0.47483 0.0
H306 H 0.52766 0.58827 0.50228 0.0
H307 H 0.4951 0.56767 0.53551 0.0
H308 H 0.44806 0.48606 0.57579 0.0
H309 H 0.45149 0.44878 0.57736 0.0
H310 H 0.49801 0.42116 0.52554 0.0
H311 H 0.52479 0.43881 0.48765 0.0
H312 H 0.56031 0.51525 0.43799 0.0
H313 H 0.56371 0.55571 0.44144 0.0
H314 H 0.5884 0.52073 0.53602 0.0
H315 H 0.55102 0.53892 0.58254 0.0
H316 H 0.4571 0.45432 0.44339 0.0
H317 H 0.43535 0.49755 0.47295 0.0
C318 C 0.10816 0.37527 0.38243 0.0
C319 C 0.11417 0.39936 0.37293 0.0
C320 C 0.12879 0.40327 0.33421 0.0
C321 C 0.14748 0.42631 0.33001 0.0
C322 C 0.16676 0.43147 0.31568 0.0
C323 C 0.1675 0.41306 0.30579 0.0
C324 C 0.14824 0.38976 0.30961 0.0
C325 C 0.12885 0.38522 0.32347 0.0
C326 C 0.18669 0.45653 0.31173 0.0
C327 C 0.14855 0.36961 0.29984 0.0
C328 C 0.32867 0.43165 0.37976 0.0
C329 C 0.30729 0.42189 0.36511 0.0
C330 C 0.28398 0.43462 0.34372 0.0
C331 C 0.26932 0.41333 0.33313 0.0
C332 C 0.25175 0.41062 0.31773 0.0
C333 C 0.24901 0.42965 0.31253 0.0
C334 C 0.26401 0.4512 0.32284 0.0
C335 C 0.2812 0.45333 0.33842 0.0
C336 C 0.23593 0.38733 0.30718 0.0
C337 C 0.26174 0.47193 0.31751 0.0
C338 C 0.30264 0.44457 0.16488 0.0
C339 C 0.28712 0.42276 0.17597 0.0
C340 C 0.26626 0.41816 0.18711 0.0
C341 C 0.2612 0.436 0.1879 0.0
C342 C 0.2769 0.45803 0.17688 0.0
C343 C 0.29725 0.46188 0.16528 0.0
C344 C 0.24956 0.39417 0.19791 0.0
C345 C 0.27223 0.47752 0.17735 0.0
C346 C 0.08097 0.38019 0.1488 0.0
C347 C 0.1027 0.40497 0.14571 0.0
C348 C 0.14061 0.40867 0.15231 0.0
C349 C 0.14663 0.39194 0.15592 0.0
C350 C 0.16537 0.3961 0.17037 0.0
C351 C 0.1789 0.41791 0.18073 0.0
C352 C 0.17352 0.43533 0.17617 0.0
C353 C 0.15415 0.43036 0.16225 0.0
C354 C 0.17053 0.37709 0.17474 0.0
C355 C 0.1882 0.45916 0.18598 0.0
C356 C 0.18941 0.41803 0.2935 0.0
C357 C 0.20849 0.4216 0.30696 0.0
C358 C 0.2299 0.42675 0.29694 0.0
C359 C 0.23259 0.42855 0.27273 0.0
C360 C 0.25411 0.43432 0.2621 0.0
C361 C 0.25645 0.43559 0.23825 0.0
C362 C 0.23729 0.43096 0.22409 0.0
C363 C 0.23928 0.4315 0.19983 0.0
C364 C 0.22002 0.42735 0.18631 0.0
C365 C 0.19864 0.42242 0.19628 0.0
C366 C 0.19619 0.42141 0.22053 0.0
C367 C 0.17483 0.41613 0.23121 0.0
C368 C 0.17266 0.41537 0.25507 0.0
C369 C 0.19156 0.41926 0.26921 0.0
C370 C 0.21325 0.42452 0.25881 0.0
C371 C 0.2156 0.42568 0.23445 0.0
C372 C 0.35331 0.44484 0.13779 0.0
C373 C 0.33307 0.43631 0.15439 0.0
O374 O 0.11104 0.39825 0.34929 0.0
O375 O 0.12191 0.40368 0.13884 0.0
O376 O 0.32273 0.44955 0.15346 0.0
O377 O 0.30084 0.4378 0.35912 0.0
H378 H 0.13311 0.41219 0.37687 0.0
H379 H 0.11726 0.36883 0.37194 0.0
H380 H 0.08871 0.36244 0.38199 0.0
H381 H 0.11461 0.37628 0.40025 0.0
H382 H 0.14709 0.44017 0.33827 0.0
H383 H 0.11416 0.36746 0.3268 0.0
H384 H 0.20229 0.45968 0.32182 0.0
H385 H 0.18159 0.46888 0.31712 0.0
H386 H 0.19216 0.46027 0.29329 0.0
H387 H 0.13288 0.35247 0.30559 0.0
H388 H 0.16494 0.37015 0.30511 0.0
H389 H 0.14877 0.37107 0.28077 0.0
H390 H 0.292 0.40458 0.37133 0.0
H391 H 0.32212 0.42128 0.39658 0.0
H392 H 0.33133 0.44812 0.38683 0.0
H393 H 0.35406 0.43136 0.35881 0.0
H394 H 0.27132 0.39869 0.33696 0.0
H395 H 0.29263 0.4697 0.34659 0.0
H396 H 0.21699 0.38107 0.31063 0.0
H397 H 0.23947 0.37389 0.31392 0.0
H398 H 0.23872 0.38928 0.28823 0.0
H399 H 0.27628 0.48807 0.32509 0.0
H400 H 0.24451 0.46826 0.32447 0.0
H401 H 0.26186 0.47499 0.2986 0.0
H402 H 0.33647 0.43253 0.17235 0.0
H403 H 0.29099 0.40912 0.17573 0.0
H404 H 0.30925 0.47863 0.15663 0.0
H405 H 0.25047 0.395 0.21692 0.0
H406 H 0.25407 0.38134 0.19272 0.0
H407 H 0.23094 0.38778 0.19301 0.0
H408 H 0.28755 0.49437 0.17047 0.0
H409 H 0.26821 0.47975 0.19522 0.0
H410 H 0.25647 0.47304 0.16682 0.0
H411 H 0.10612 0.41328 0.16264 0.0
H412 H 0.06538 0.38051 0.15507 0.0
H413 H 0.08475 0.37006 0.16168 0.0
H414 H 0.07652 0.37123 0.13225 0.0
H415 H 0.13614 0.37535 0.14787 0.0
H416 H 0.14971 0.44345 0.15884 0.0
H417 H 0.1717 0.37425 0.19351 0.0
H418 H 0.18795 0.3825 0.16676 0.0
H419 H 0.15673 0.36033 0.16752 0.0
H420 H 0.18399 0.47172 0.17805 0.0
H421 H 0.20744 0.46617 0.18335 0.0
H422 H 0.18473 0.45779 0.20478 0.0
H423 H 0.20663 0.4203 0.32557 0.0
H424 H 0.2694 0.43788 0.27212 0.0
H425 H 0.27345 0.44014 0.23105 0.0
H426 H 0.22165 0.42782 0.16772 0.0
H427 H 0.15952 0.41259 0.22124 0.0
H428 H 0.15589 0.41144 0.26232 0.0
H429 H 0.3413 0.41752 0.11529 0.0
H430 H 0.36933 0.45071 0.14886 0.0
H431 H 0.3586 0.46303 0.13181 0.0
C432 C 0.84742 0.28682 0.88407 0.0
C433 C 0.87116 0.29216 0.87388 0.0
C434 C 0.85701 0.27465 0.83718 0.0
C435 C 0.85985 0.25557 0.83797 0.0
C436 C 0.84527 0.23601 0.825 0.0
C437 C 0.82721 0.23544 0.81139 0.0
C438 C 0.82438 0.25478 0.81065 0.0
C439 C 0.83974 0.27439 0.82319 0.0
C440 C 0.84912 0.21594 0.82596 0.0
C441 C 0.80496 0.25469 0.79691 0.0
C442 C 0.70378 0.06525 0.86041 0.0
C443 C 0.70323 0.08593 0.86958 0.0
C444 C 0.72027 0.11738 0.83938 0.0
C445 C 0.71553 0.13196 0.82592 0.0
C446 C 0.73356 0.15111 0.81295 0.0
C447 C 0.7568 0.15516 0.81266 0.0
C448 C 0.76171 0.14033 0.82608 0.0
C449 C 0.74351 0.12183 0.83956 0.0
C450 C 0.7277 0.167 0.79968 0.0
C451 C 0.78621 0.144 0.82622 0.0
C452 C 0.72488 0.11825 0.66591 0.0
C453 C 0.72126 0.13555 0.67354 0.0
C454 C 0.73941 0.15498 0.68456 0.0
C455 C 0.76159 0.15708 0.68801 0.0
C456 C 0.76558 0.14016 0.67943 0.0
C457 C 0.74719 0.12105 0.66822 0.0
C458 C 0.73476 0.17306 0.69286 0.0
C459 C 0.78908 0.142 0.68259 0.0
C460 C 0.92677 0.30519 0.65862 0.0
C461 C 0.90756 0.30184 0.64145 0.0
C462 C 0.87 0.27719 0.66339 0.0
C463 C 0.85044 0.2766 0.67298 0.0
C464 C 0.83215 0.25642 0.68453 0.0
C465 C 0.83384 0.23647 0.68714 0.0
C466 C 0.85336 0.23674 0.67715 0.0
C467 C 0.87107 0.25696 0.66512 0.0
C468 C 0.8112 0.25658 0.69421 0.0
C469 C 0.85571 0.21577 0.67948 0.0
C470 C 0.81107 0.21455 0.79818 0.0
C471 C 0.79262 0.195 0.81016 0.0
C472 C 0.77606 0.17513 0.7987 0.0
C473 C 0.77767 0.17482 0.77448 0.0
C474 C 0.76138 0.1552 0.76231 0.0
C475 C 0.76231 0.15559 0.73839 0.0
C476 C 0.77976 0.17552 0.72572 0.0
C477 C 0.78021 0.17649 0.70137 0.0
C478 C 0.79802 0.19647 0.68933 0.0
C479 C 0.81563 0.21562 0.70096 0.0
C480 C 0.81541 0.21496 0.72531 0.0
C481 C 0.83298 0.23375 0.73761 0.0
C482 C 0.83186 0.23348 0.76149 0.0
C483 C 0.81316 0.2144 0.77402 0.0
C484 C 0.79605 0.1947 0.76209 0.0
C485 C 0.79714 0.19501 0.73769 0.0
C486 C 0.6823 0.06542 0.68014 0.0
C487 C 0.68413 0.08513 0.66451 0.0
O488 O 0.87053 0.29336 0.85007 0.0
O489 O 0.88736 0.29761 0.653 0.0
O490 O 0.70728 0.09882 0.65608 0.0
O491 O 0.70191 0.09923 0.85159 0.0
H492 H 0.87407 0.27799 0.8796 0.0
H493 H 0.83266 0.26971 0.87839 0.0
H494 H 0.84385 0.30052 0.87834 0.0
H495 H 0.84763 0.28591 0.90317 0.0
H496 H 0.87359 0.2561 0.84855 0.0
H497 H 0.83781 0.28933 0.82276 0.0
H498 H 0.83425 0.20096 0.83582 0.0
H499 H 0.86603 0.22053 0.83442 0.0
H500 H 0.84924 0.21023 0.80835 0.0
H501 H 0.80262 0.26917 0.80132 0.0
H502 H 0.78779 0.23791 0.79991 0.0
H503 H 0.80945 0.25659 0.7783 0.0
H504 H 0.7198 0.09672 0.87935 0.0
H505 H 0.70296 0.05366 0.87493 0.0
H506 H 0.72044 0.07143 0.8505 0.0
H507 H 0.68871 0.05495 0.8488 0.0
H508 H 0.6976 0.12848 0.82592 0.0
H509 H 0.74762 0.11086 0.84993 0.0
H510 H 0.72704 0.16379 0.78106 0.0
H511 H 0.74162 0.18556 0.80204 0.0
H512 H 0.71024 0.16402 0.80505 0.0
H513 H 0.78625 0.12897 0.83455 0.0
H514 H 0.79833 0.15979 0.8358 0.0
H515 H 0.7934 0.14688 0.80839 0.0
H516 H 0.67942 0.09521 0.6755 0.0
H517 H 0.70435 0.134 0.67079 0.0
H518 H 0.7499 0.10779 0.66187 0.0
H519 H 0.73447 0.17249 0.71195 0.0
H520 H 0.71756 0.1702 0.68674 0.0
H521 H 0.74928 0.19079 0.68689 0.0
H522 H 0.7891 0.12698 0.67559 0.0
H523 H 0.7933 0.14294 0.70117 0.0
H524 H 0.80341 0.15831 0.67381 0.0
H525 H 0.90321 0.28668 0.63102 0.0
H526 H 0.94401 0.31194 0.6495 0.0
H527 H 0.9218 0.28838 0.66751 0.0
H528 H 0.92906 0.31739 0.67204 0.0
H529 H 0.84957 0.29214 0.6714 0.0
H530 H 0.88575 0.25679 0.65747 0.0
H531 H 0.8124 0.25724 0.71323 0.0
H532 H 0.79431 0.24037 0.69005 0.0
H533 H 0.8106 0.27184 0.68748 0.0
H534 H 0.87297 0.21943 0.67252 0.0
H535 H 0.84116 0.2012 0.67007 0.0
H536 H 0.85399 0.20988 0.69785 0.0
H537 H 0.79097 0.19536 0.82866 0.0
H538 H 0.7475 0.13941 0.77112 0.0
H539 H 0.74906 0.14009 0.72996 0.0
H540 H 0.79807 0.19719 0.67067 0.0
H541 H 0.84767 0.24902 0.7289 0.0
H542 H 0.84573 0.24855 0.77 0.0
H543 H 0.68624 0.05412 0.67025 0.0
H544 H 0.66435 0.05481 0.6883 0.0
H545 H 0.6954 0.07296 0.69415 0.0
C546 C 0.64809 0.7119 0.37333 0.0
C547 C 0.62509 0.70801 0.38399 0.0
C548 C 0.60782 0.72291 0.35592 0.0
C549 C 0.58732 0.71646 0.34348 0.0
C550 C 0.58443 0.73317 0.3315 0.0
C551 C 0.60304 0.75694 0.33124 0.0
C552 C 0.62393 0.76363 0.34374 0.0
C553 C 0.62596 0.7466 0.35623 0.0
C554 C 0.56152 0.72534 0.31907 0.0
C555 C 0.64421 0.78875 0.34389 0.0
C556 C 0.57881 0.88847 0.4016 0.0
C557 C 0.58763 0.8747 0.39104 0.0
C558 C 0.5798 0.84972 0.35882 0.0
C559 C 0.60267 0.85343 0.35718 0.0
C560 C 0.60719 0.83968 0.34327 0.0
C561 C 0.58827 0.82126 0.33139 0.0
C562 C 0.56512 0.81726 0.3333 0.0
C563 C 0.56135 0.83196 0.34654 0.0
C564 C 0.63221 0.84482 0.34148 0.0
C565 C 0.54428 0.79736 0.32158 0.0
C566 C 0.5875 0.86093 0.18035 0.0
C567 C 0.60927 0.86903 0.19137 0.0
C568 C 0.61359 0.85354 0.20391 0.0
C569 C 0.59545 0.82963 0.20621 0.0
C570 C 0.57351 0.82146 0.19514 0.0
C571 C 0.57 0.83721 0.18205 0.0
C572 C 0.63756 0.86275 0.21467 0.0
C573 C 0.55371 0.79613 0.19723 0.0
C574 C 0.6441 0.70215 0.18305 0.0
C575 C 0.62137 0.70182 0.1776 0.0
C576 C 0.62216 0.73784 0.18184 0.0
C577 C 0.63984 0.76125 0.18409 0.0
C578 C 0.63558 0.77597 0.19669 0.0
C579 C 0.61278 0.76713 0.20661 0.0
C580 C 0.59446 0.74367 0.20338 0.0
C581 C 0.59942 0.7292 0.1912 0.0
C582 C 0.65553 0.80087 0.19963 0.0
C583 C 0.56964 0.73388 0.2128 0.0
C584 C 0.60076 0.77469 0.31761 0.0
C585 C 0.59551 0.78908 0.32934 0.0
C586 C 0.59274 0.80589 0.31754 0.0
C587 C 0.59468 0.80807 0.29323 0.0
C588 C 0.59161 0.82446 0.2807 0.0
C589 C 0.59283 0.82595 0.25677 0.0
C590 C 0.59796 0.81165 0.24442 0.0
C591 C 0.5994 0.81313 0.22009 0.0
C592 C 0.60432 0.79849 0.20839 0.0
C593 C 0.6081 0.78242 0.22028 0.0
C594 C 0.60709 0.78092 0.24462 0.0
C595 C 0.61144 0.76542 0.25718 0.0
C596 C 0.60965 0.76354 0.28108 0.0
C597 C 0.60344 0.77708 0.29337 0.0
C598 C 0.59992 0.7935 0.28112 0.0
C599 C 0.60171 0.79539 0.2567 0.0
C600 C 0.5864 0.91026 0.15188 0.0
C601 C 0.59482 0.89935 0.16889 0.0
O602 O 0.60939 0.7057 0.36695 0.0
O603 O 0.62743 0.72409 0.17029 0.0
O604 O 0.58275 0.8753 0.16781 0.0
O605 O 0.5749 0.86287 0.37199 0.0
H606 H 0.62974 0.72325 0.39443 0.0
H607 H 0.65769 0.72872 0.36324 0.0
H608 H 0.64429 0.69785 0.36156 0.0
H609 H 0.66003 0.71241 0.38708 0.0
H610 H 0.57337 0.69817 0.34339 0.0
H611 H 0.64193 0.75197 0.36584 0.0
H612 H 0.55501 0.73707 0.32238 0.0
H613 H 0.54741 0.70718 0.32432 0.0
H614 H 0.56469 0.7261 0.30026 0.0
H615 H 0.66067 0.79053 0.35092 0.0
H616 H 0.63907 0.79852 0.35476 0.0
H617 H 0.64812 0.79694 0.32625 0.0
H618 H 0.59069 0.8635 0.40333 0.0
H619 H 0.6074 0.92301 0.39703 0.0
H620 H 0.57178 0.87979 0.4191 0.0
H621 H 0.56072 0.88219 0.39428 0.0
H622 H 0.61717 0.8672 0.36646 0.0
H623 H 0.54376 0.82922 0.34789 0.0
H624 H 0.63341 0.83138 0.35183 0.0
H625 H 0.64546 0.86218 0.34801 0.0
H626 H 0.63693 0.84416 0.32337 0.0
H627 H 0.52703 0.79423 0.32792 0.0
H628 H 0.54433 0.78106 0.32436 0.0
H629 H 0.54566 0.8014 0.30278 0.0
H630 H 0.59653 0.9052 0.18685 0.0
H631 H 0.62306 0.88733 0.19001 0.0
H632 H 0.55333 0.83113 0.17338 0.0
H633 H 0.6358 0.86277 0.23362 0.0
H634 H 0.65084 0.88082 0.20831 0.0
H635 H 0.64439 0.85134 0.21103 0.0
H636 H 0.53688 0.79311 0.18982 0.0
H637 H 0.55043 0.78994 0.21558 0.0
H638 H 0.55899 0.78546 0.18805 0.0
H639 H 0.61054 0.69623 0.19382 0.0
H640 H 0.63976 0.68456 0.18928 0.0
H641 H 0.6539 0.7146 0.19675 0.0
H642 H 0.65583 0.70768 0.16752 0.0
H643 H 0.65723 0.76779 0.17648 0.0
H644 H 0.58551 0.71124 0.18873 0.0
H645 H 0.65747 0.80495 0.21811 0.0
H646 H 0.65126 0.81284 0.1904 0.0
H647 H 0.67277 0.80437 0.19283 0.0
H648 H 0.55673 0.71651 0.20605 0.0
H649 H 0.56353 0.74596 0.20842 0.0
H650 H 0.56968 0.73202 0.23183 0.0
H651 H 0.59363 0.78724 0.34794 0.0
H652 H 0.58794 0.83615 0.28924 0.0
H653 H 0.58979 0.83855 0.24809 0.0
H654 H 0.60516 0.79957 0.18972 0.0
H655 H 0.61617 0.75447 0.24868 0.0
H656 H 0.61312 0.75123 0.28978 0.0
H657 H 0.616 0.93074 0.13016 0.0
H658 H 0.57833 0.91791 0.16258 0.0
H659 H 0.56884 0.89581 0.14544 0.0
C660 C 0.71478 0.54913 0.90633 0.0
C661 C 0.71533 0.5718 0.90074 0.0
C662 C 0.73639 0.58174 0.86436 0.0
C663 C 0.75593 0.60463 0.86253 0.0
C664 C 0.77606 0.61021 0.8493 0.0
C665 C 0.77666 0.59232 0.83809 0.0
C666 C 0.75687 0.56908 0.84016 0.0
C667 C 0.73673 0.56421 0.85284 0.0
C668 C 0.79665 0.63518 0.8473 0.0
C669 C 0.75701 0.54931 0.82921 0.0
C670 C 0.92303 0.63381 0.91595 0.0
C671 C 0.91256 0.61162 0.90243 0.0
C672 C 0.89635 0.61398 0.86578 0.0
C673 C 0.87609 0.59165 0.86393 0.0
C674 C 0.85703 0.58815 0.85027 0.0
C675 C 0.85818 0.60751 0.83859 0.0
C676 C 0.87872 0.63009 0.8405 0.0
C677 C 0.89779 0.63293 0.85371 0.0
C678 C 0.83568 0.56377 0.84834 0.0
C679 C 0.88044 0.65127 0.82885 0.0
C680 C 0.89605 0.60694 0.69097 0.0
C681 C 0.87616 0.58525 0.69805 0.0
C682 C 0.85695 0.58388 0.70963 0.0
C683 C 0.85751 0.60459 0.7139 0.0
C684 C 0.87704 0.62638 0.70584 0.0
C685 C 0.89602 0.62724 0.69431 0.0
C686 C 0.83615 0.56031 0.71754 0.0
C687 C 0.87804 0.64876 0.70985 0.0
C688 C 0.69588 0.59279 0.69893 0.0
C689 C 0.70719 0.59421 0.67552 0.0
C690 C 0.73808 0.58665 0.6883 0.0
C691 C 0.74217 0.56865 0.69262 0.0
C692 C 0.76183 0.57225 0.70522 0.0
C693 C 0.77822 0.59469 0.71318 0.0
C694 C 0.77468 0.61326 0.70819 0.0
C695 C 0.75449 0.60901 0.69602 0.0
C696 C 0.76497 0.55199 0.71015 0.0
C697 C 0.79215 0.63756 0.71582 0.0
C698 C 0.798 0.59771 0.82444 0.0
C699 C 0.81781 0.60088 0.83636 0.0
C700 C 0.8378 0.6042 0.82469 0.0
C701 C 0.83803 0.6041 0.80037 0.0
C702 C 0.85735 0.60632 0.78808 0.0
C703 C 0.85742 0.60624 0.76417 0.0
C704 C 0.83813 0.60384 0.75159 0.0
C705 C 0.83792 0.60343 0.72729 0.0
C706 C 0.81845 0.60098 0.71532 0.0
C707 C 0.79884 0.59854 0.72697 0.0
C708 C 0.79866 0.59875 0.75129 0.0
C709 C 0.77912 0.59604 0.7636 0.0
C710 C 0.77903 0.59608 0.78751 0.0
C711 C 0.7983 0.59846 0.8001 0.0
C712 C 0.8183 0.60146 0.78804 0.0
C713 C 0.81842 0.60149 0.76361 0.0
C714 C 0.94889 0.61081 0.69808 0.0
C715 C 0.92507 0.59556 0.68634 0.0
O716 O 0.71705 0.5764 0.87715 0.0
O717 O 0.71815 0.58156 0.67668 0.0
O718 O 0.91538 0.60889 0.68069 0.0
O719 O 0.91472 0.61756 0.8791 0.0
H720 H 0.73111 0.58646 0.90899 0.0
H721 H 0.73172 0.55104 0.90079 0.0
H722 H 0.69984 0.53437 0.89741 0.0
H723 H 0.71269 0.54492 0.92514 0.0
H724 H 0.75531 0.61807 0.87141 0.0
H725 H 0.72136 0.54658 0.85432 0.0
H726 H 0.8121 0.63677 0.85652 0.0
H727 H 0.79229 0.64737 0.85472 0.0
H728 H 0.80205 0.64052 0.82896 0.0
H729 H 0.74212 0.53199 0.8357 0.0
H730 H 0.77402 0.55033 0.83255 0.0
H731 H 0.75533 0.55061 0.81031 0.0
H732 H 0.89346 0.60024 0.90765 0.0
H733 H 0.92122 0.62948 0.93475 0.0
H734 H 0.91336 0.64276 0.91187 0.0
H735 H 0.94213 0.64596 0.9114 0.0
H736 H 0.87534 0.57699 0.87303 0.0
H737 H 0.91364 0.65008 0.85524 0.0
H738 H 0.83092 0.56004 0.83001 0.0
H739 H 0.82024 0.56231 0.85738 0.0
H740 H 0.83881 0.55036 0.85599 0.0
H741 H 0.89604 0.66779 0.83466 0.0
H742 H 0.86408 0.65139 0.83234 0.0
H743 H 0.88209 0.65069 0.80997 0.0
H744 H 0.91367 0.58124 0.69913 0.0
H745 H 0.87551 0.56936 0.69445 0.0
H746 H 0.91126 0.64386 0.68839 0.0
H747 H 0.83408 0.55956 0.73653 0.0
H748 H 0.83828 0.54581 0.71266 0.0
H749 H 0.81956 0.55766 0.70994 0.0
H750 H 0.89423 0.66426 0.70207 0.0
H751 H 0.87773 0.65099 0.72862 0.0
H752 H 0.86213 0.64788 0.70247 0.0
H753 H 0.72047 0.61273 0.67052 0.0
H754 H 0.68699 0.60282 0.69815 0.0
H755 H 0.70965 0.6003 0.71233 0.0
H756 H 0.68257 0.57434 0.70415 0.0
H757 H 0.72952 0.55152 0.68645 0.0
H758 H 0.75179 0.62324 0.69259 0.0
H759 H 0.76826 0.55068 0.72872 0.0
H760 H 0.78069 0.55492 0.70037 0.0
H761 H 0.74923 0.53514 0.70518 0.0
H762 H 0.78848 0.65062 0.70817 0.0
H763 H 0.81055 0.64282 0.71101 0.0
H764 H 0.79122 0.63784 0.73483 0.0
H765 H 0.81753 0.60044 0.85502 0.0
H766 H 0.87262 0.60807 0.79681 0.0
H767 H 0.8728 0.60804 0.75567 0.0
H768 H 0.81836 0.60053 0.69669 0.0
H769 H 0.76364 0.59384 0.7549 0.0
H770 H 0.76357 0.59409 0.79603 0.0
H771 H 0.95721 0.60058 0.7023 0.0
H772 H 0.94599 0.61709 0.71434 0.0
H773 H 0.96128 0.62624 0.68687 0.0
C774 C 0.17434 0.69992 0.38919 0.0
C775 C 0.15226 0.70176 0.38771 0.0
C776 C 0.1623 0.72549 0.35248 0.0
C777 C 0.1571 0.74296 0.35098 0.0
C778 C 0.17165 0.7637 0.3378 0.0
C779 C 0.19201 0.76701 0.3262 0.0
C780 C 0.19725 0.74926 0.3278 0.0
C781 C 0.18191 0.72843 0.34041 0.0
C782 C 0.16528 0.78204 0.33627 0.0
C783 C 0.21911 0.75226 0.31637 0.0
C784 C 0.28981 0.91802 0.3976 0.0
C785 C 0.30153 0.90485 0.39048 0.0
C786 C 0.2883 0.88755 0.35379 0.0
C787 C 0.29384 0.87114 0.34798 0.0
C788 C 0.27834 0.85225 0.33464 0.0
C789 C 0.25687 0.84987 0.32704 0.0
C790 C 0.25135 0.86661 0.33282 0.0
C791 C 0.26729 0.88542 0.34605 0.0
C792 C 0.28486 0.83483 0.32864 0.0
C793 C 0.22865 0.8646 0.32502 0.0
C794 C 0.2939 0.89722 0.17646 0.0
C795 C 0.30154 0.88342 0.18706 0.0
C796 C 0.28547 0.86275 0.19961 0.0
C797 C 0.26141 0.85614 0.20198 0.0
C798 C 0.25367 0.86994 0.19097 0.0
C799 C 0.26999 0.89012 0.17801 0.0
C800 C 0.29414 0.84792 0.21018 0.0
C801 C 0.22819 0.86345 0.19296 0.0
C802 C 0.11468 0.69028 0.18287 0.0
C803 C 0.12781 0.70323 0.16037 0.0
C804 C 0.16601 0.73423 0.17547 0.0
C805 C 0.18911 0.74006 0.18038 0.0
C806 C 0.20423 0.75942 0.19334 0.0
C807 C 0.19612 0.77355 0.20122 0.0
C808 C 0.17297 0.76814 0.19583 0.0
C809 C 0.15805 0.74842 0.18318 0.0
C810 C 0.2288 0.76464 0.1988 0.0
C811 C 0.16396 0.78315 0.20355 0.0
C812 C 0.20799 0.78909 0.31265 0.0
C813 C 0.22385 0.80883 0.32467 0.0
C814 C 0.24022 0.82986 0.31307 0.0
C815 C 0.24099 0.83137 0.28874 0.0
C816 C 0.25731 0.85221 0.27653 0.0
C817 C 0.25818 0.85343 0.25259 0.0
C818 C 0.24301 0.83375 0.23992 0.0
C819 C 0.24421 0.8346 0.21558 0.0
C820 C 0.22871 0.81473 0.20358 0.0
C821 C 0.21186 0.79393 0.21517 0.0
C822 C 0.21042 0.7927 0.23948 0.0
C823 C 0.19369 0.77203 0.25168 0.0
C824 C 0.19254 0.77094 0.2756 0.0
C825 C 0.20837 0.79033 0.28829 0.0
C826 C 0.22511 0.81148 0.27633 0.0
C827 C 0.22615 0.81266 0.25189 0.0
C828 C 0.33177 0.95675 0.17345 0.0
C829 C 0.33156 0.93426 0.17067 0.0
O830 O 0.14798 0.70548 0.36504 0.0
O831 O 0.15217 0.71481 0.16339 0.0
O832 O 0.30899 0.91712 0.16408 0.0
O833 O 0.3034 0.90559 0.36672 0.0
H834 H 0.15542 0.71676 0.39783 0.0
H835 H 0.19054 0.71687 0.38403 0.0
H836 H 0.17249 0.68627 0.37781 0.0
H837 H 0.177 0.69552 0.40709 0.0
H838 H 0.14162 0.74029 0.36012 0.0
H839 H 0.18541 0.71451 0.34118 0.0
H840 H 0.17866 0.79755 0.34552 0.0
H841 H 0.14746 0.77567 0.34391 0.0
H842 H 0.16559 0.7877 0.31802 0.0
H843 H 0.22293 0.73892 0.32282 0.0
H844 H 0.23488 0.76983 0.31929 0.0
H845 H 0.21644 0.75059 0.29754 0.0
H846 H 0.29008 0.8864 0.39714 0.0
H847 H 0.28891 0.91814 0.41666 0.0
H848 H 0.2714 0.90931 0.39111 0.0
H849 H 0.29997 0.9363 0.39049 0.0
H850 H 0.31028 0.87316 0.35402 0.0
H851 H 0.26339 0.89845 0.35044 0.0
H852 H 0.28481 0.83348 0.30968 0.0
H853 H 0.27137 0.81734 0.33612 0.0
H854 H 0.30261 0.83965 0.33511 0.0
H855 H 0.22655 0.87857 0.33169 0.0
H856 H 0.21316 0.8474 0.33088 0.0
H857 H 0.22846 0.86561 0.30593 0.0
H858 H 0.33597 0.92947 0.18769 0.0
H859 H 0.31995 0.88857 0.18515 0.0
H860 H 0.26427 0.90079 0.16943 0.0
H861 H 0.29404 0.84868 0.22919 0.0
H862 H 0.31246 0.85385 0.2043 0.0
H863 H 0.28208 0.82942 0.20582 0.0
H864 H 0.22565 0.87734 0.18556 0.0
H865 H 0.2223 0.85994 0.21129 0.0
H866 H 0.2166 0.84722 0.18374 0.0
H867 H 0.12278 0.71597 0.15498 0.0
H868 H 0.09514 0.68087 0.18051 0.0
H869 H 0.11928 0.70275 0.1967 0.0
H870 H 0.11959 0.67752 0.18849 0.0
H871 H 0.19513 0.72909 0.1743 0.0
H872 H 0.14031 0.74433 0.17943 0.0
H873 H 0.2315 0.76583 0.21767 0.0
H874 H 0.24229 0.78179 0.19066 0.0
H875 H 0.23191 0.75116 0.19258 0.0
H876 H 0.14631 0.77778 0.19634 0.0
H877 H 0.17678 0.80169 0.19827 0.0
H878 H 0.16242 0.78202 0.22261 0.0
H879 H 0.22366 0.80774 0.34333 0.0
H880 H 0.26964 0.86784 0.28534 0.0
H881 H 0.27106 0.86996 0.24413 0.0
H882 H 0.22975 0.81548 0.18493 0.0
H883 H 0.18128 0.75643 0.24287 0.0
H884 H 0.17919 0.7546 0.28403 0.0
H885 H 0.32813 0.96276 0.15677 0.0
H886 H 0.34922 0.97076 0.17978 0.0
H887 H 0.31786 0.9536 0.18617 0.0
C888 C 0.3936 0.12603 0.60732 0.0
C889 C 0.41262 0.12849 0.62404 0.0
C890 C 0.40458 0.1364 0.66186 0.0
C891 C 0.4268 0.15469 0.66865 0.0
C892 C 0.42857 0.17124 0.68365 0.0
C893 C 0.40762 0.16957 0.69175 0.0
C894 C 0.38514 0.15048 0.68571 0.0
C895 C 0.38391 0.1339 0.67102 0.0
C896 C 0.45284 0.19086 0.69033 0.0
C897 C 0.36247 0.14801 0.69422 0.0
C898 C 0.45106 0.33528 0.61585 0.0
C899 C 0.44863 0.31382 0.62685 0.0
C900 C 0.42915 0.28624 0.65948 0.0
C901 C 0.40753 0.27289 0.67151 0.0
C902 C 0.40276 0.25361 0.68584 0.0
C903 C 0.42061 0.24834 0.68911 0.0
C904 C 0.44283 0.2623 0.67756 0.0
C905 C 0.44665 0.2807 0.66251 0.0
C906 C 0.37851 0.23868 0.69711 0.0
C907 C 0.46256 0.25763 0.68064 0.0
C908 C 0.42839 0.28574 0.83894 0.0
C909 C 0.40563 0.26953 0.83086 0.0
C910 C 0.40161 0.25024 0.81876 0.0
C911 C 0.42074 0.24725 0.81435 0.0
C912 C 0.4436 0.26344 0.82257 0.0
C913 C 0.44704 0.28236 0.83491 0.0
C914 C 0.3769 0.23305 0.81062 0.0
C915 C 0.46443 0.26082 0.8182 0.0
C916 C 0.39321 0.07628 0.82826 0.0
C917 C 0.41038 0.09714 0.84249 0.0
C918 C 0.40239 0.12831 0.83973 0.0
C919 C 0.38256 0.13001 0.83596 0.0
C920 C 0.3848 0.14967 0.82433 0.0
C921 C 0.40753 0.16814 0.81666 0.0
C922 C 0.42783 0.16708 0.82164 0.0
C923 C 0.42506 0.14721 0.83325 0.0
C924 C 0.36287 0.15046 0.81962 0.0
C925 C 0.45239 0.18675 0.81425 0.0
C926 C 0.40937 0.18871 0.70506 0.0
C927 C 0.41231 0.2082 0.69264 0.0
C928 C 0.4159 0.22774 0.70374 0.0
C929 C 0.41632 0.22783 0.72806 0.0
C930 C 0.42069 0.24743 0.73986 0.0
C931 C 0.42084 0.24725 0.76379 0.0
C932 C 0.41682 0.22753 0.77689 0.0
C933 C 0.41685 0.22714 0.80124 0.0
C934 C 0.41342 0.20745 0.81368 0.0
C935 C 0.41001 0.18805 0.80247 0.0
C936 C 0.40964 0.18799 0.77816 0.0
C937 C 0.40624 0.16873 0.76635 0.0
C938 C 0.40616 0.16892 0.74243 0.0
C939 C 0.40929 0.1883 0.72938 0.0
C940 C 0.4127 0.20791 0.74091 0.0
C941 C 0.41297 0.20778 0.76534 0.0
C942 C 0.41774 0.32541 0.83046 0.0
C943 C 0.41886 0.31377 0.8532 0.0
O944 O 0.4028 0.12138 0.64605 0.0
O945 O 0.39912 0.10826 0.84956 0.0
O946 O 0.43326 0.30483 0.85056 0.0
O947 O 0.43248 0.30417 0.64515 0.0
H948 H 0.42705 0.14729 0.62344 0.0
H949 H 0.38711 0.13738 0.61239 0.0
H950 H 0.37824 0.10773 0.6075 0.0
H951 H 0.40112 0.13146 0.58955 0.0
H952 H 0.44274 0.15613 0.66195 0.0
H953 H 0.36683 0.11949 0.66584 0.0
H954 H 0.45644 0.2074 0.68182 0.0
H955 H 0.46712 0.18795 0.68519 0.0
H956 H 0.45349 0.19295 0.70921 0.0
H957 H 0.34639 0.13202 0.68818 0.0
H958 H 0.36185 0.16344 0.68817 0.0
H959 H 0.36207 0.14743 0.71331 0.0
H960 H 0.44639 0.30044 0.61475 0.0
H961 H 0.4441 0.33028 0.59796 0.0
H962 H 0.48645 0.36137 0.62224 0.0
H963 H 0.43544 0.33601 0.62209 0.0
H964 H 0.39408 0.2772 0.66907 0.0
H965 H 0.46349 0.29072 0.65338 0.0
H966 H 0.37992 0.24128 0.7159 0.0
H967 H 0.37142 0.21994 0.6946 0.0
H968 H 0.36563 0.24303 0.69018 0.0
H969 H 0.48016 0.2732 0.67565 0.0
H970 H 0.45919 0.24332 0.66947 0.0
H971 H 0.46333 0.2522 0.69872 0.0
H972 H 0.40066 0.29946 0.85861 0.0
H973 H 0.39089 0.27169 0.83392 0.0
H974 H 0.4645 0.29486 0.84125 0.0
H975 H 0.37681 0.23358 0.79153 0.0
H976 H 0.36356 0.23681 0.81693 0.0
H977 H 0.37146 0.21507 0.81657 0.0
H978 H 0.48142 0.27587 0.82415 0.0
H979 H 0.46615 0.25903 0.79954 0.0
H980 H 0.46133 0.2447 0.82732 0.0
H981 H 0.42562 0.10864 0.8306 0.0
H982 H 0.40101 0.06573 0.82439 0.0
H983 H 0.38981 0.08267 0.8117 0.0
H984 H 0.37585 0.06504 0.83735 0.0
H985 H 0.3652 0.1155 0.84145 0.0
H986 H 0.44061 0.14645 0.83719 0.0
H987 H 0.36054 0.15126 0.80076 0.0
H988 H 0.36499 0.16647 0.82661 0.0
H989 H 0.34656 0.13501 0.82733 0.0
H990 H 0.46647 0.18373 0.82034 0.0
H991 H 0.45588 0.20338 0.82099 0.0
H992 H 0.45351 0.18879 0.79518 0.0
H993 H 0.41241 0.2084 0.67397 0.0
H994 H 0.42402 0.26315 0.73072 0.0
H995 H 0.42419 0.26281 0.77191 0.0
H996 H 0.41366 0.20731 0.83233 0.0
H997 H 0.40365 0.15328 0.77547 0.0
H998 H 0.40356 0.15366 0.73427 0.0
H999 H 0.40634 0.3327 0.83253 0.0
H1000 H 0.41004 0.31254 0.81679 0.0
H1001 H 0.43584 0.33971 0.82478 0.0
C1002 C 0.07835 0.48664 0.05984 0.0
C1003 C 0.05709 0.47243 0.04841 0.0
C1004 C 0.08784 0.47685 0.07468 0.0
C1005 C 0.07543 0.45233 0.0785 0.0
C1006 C 0.05411 0.43792 0.06663 0.0
C1007 C 0.04535 0.44817 0.0515 0.0
C1008 C 0.11086 0.49275 0.08664 0.0
C1009 C 0.04014 0.41174 0.0705 0.0
C1010 C 0.10503 0.42201 0.10514 0.0
C1011 C 0.09763 0.419 0.12827 0.0
C1012 C 0.09869 0.43362 0.08889 0.0
C1013 C 0.08398 0.44172 0.09577 0.0
C1014 C 0.07651 0.43877 0.11905 0.0
C1015 C 0.08357 0.42761 0.13501 0.0
C1016 C 0.10734 0.43682 0.0643 0.0
C1017 C 0.06045 0.44675 0.12699 0.0
H1018 H 0.08737 0.50543 0.05736 0.0
H1019 H 0.02894 0.43728 0.04251 0.0
H1020 H 0.10753 0.49171 0.10543 0.0
H1021 H 0.12356 0.48709 0.08396 0.0
H1022 H 0.11927 0.51122 0.08037 0.0
H1023 H 0.02418 0.40302 0.05955 0.0
H1024 H 0.05148 0.40472 0.06681 0.0
H1025 H 0.03433 0.40712 0.0888 0.0
H1026 H 0.11558 0.41511 0.09963 0.0
H1027 H 0.07757 0.42503 0.15279 0.0
H1028 H 0.11593 0.45539 0.05836 0.0
H1029 H 0.09205 0.42649 0.05296 0.0
H1030 H 0.12023 0.43128 0.06214 0.0
H1031 H 0.06876 0.46568 0.12294 0.0
H1032 H 0.0565 0.44343 0.14577 0.0
H1033 H 0.04343 0.43756 0.11767 0.0
C1034 C 0.60084 0.04341 0.55252 0.0
C1035 C 0.57915 0.041 0.55808 0.0
C1036 C 0.61929 0.05197 0.56846 0.0
C1037 C 0.61575 0.05801 0.59045 0.0
C1038 C 0.59404 0.05624 0.59579 0.0
C1039 C 0.57599 0.04777 0.57948 0.0
C1040 C 0.64222 0.05377 0.56207 0.0
C1041 C 0.58952 0.06241 0.61906 0.0
C1042 C 0.64968 0.05361 0.64111 0.0
C1043 C 0.66701 0.07718 0.64448 0.0
C1044 C 0.63322 0.0472 0.62335 0.0
C1045 C 0.63402 0.06466 0.60846 0.0
C1046 C 0.65165 0.08835 0.61138 0.0
C1047 C 0.66778 0.0943 0.62941 0.0
C1048 C 0.61456 0.02171 0.62084 0.0
C1049 C 0.65317 0.10745 0.59573 0.0
H1050 H 0.60308 0.03802 0.53592 0.0
H1051 H 0.55908 0.04578 0.58363 0.0
H1052 H 0.65761 0.07139 0.56552 0.0
H1053 H 0.64422 0.04103 0.57283 0.0
H1054 H 0.6429 0.05029 0.54368 0.0
H1055 H 0.57228 0.06138 0.61996 0.0
H1056 H 0.58946 0.05031 0.63255 0.0
H1057 H 0.60396 0.0803 0.62312 0.0
H1058 H 0.64853 0.03996 0.65239 0.0
H1059 H 0.68095 0.11251 0.63196 0.0
H1060 H 0.61543 0.01644 0.60325 0.0
H1061 H 0.59659 0.01879 0.62328 0.0
H1062 H 0.61666 0.0102 0.63346 0.0
H1063 H 0.65436 0.1039 0.5775 0.0
H1064 H 0.66876 0.1249 0.59947 0.0
H1065 H 0.63681 0.1079 0.59771 0.0
C1066 C 0.57811 0.60138 0.08966 0.0
C1067 C 0.55639 0.59414 0.07902 0.0
C1068 C 0.58812 0.61993 0.10458 0.0
C1069 C 0.57612 0.63155 0.10902 0.0
C1070 C 0.55446 0.62471 0.09792 0.0
C1071 C 0.54485 0.60609 0.08301 0.0
C1072 C 0.61134 0.62679 0.11596 0.0
C1073 C 0.54115 0.63667 0.10223 0.0
C1074 C 0.5906 0.66127 0.16599 0.0
C1075 C 0.60764 0.68443 0.15933 0.0
C1076 C 0.57959 0.64405 0.14969 0.0
C1077 C 0.58583 0.65012 0.12611 0.0
C1078 C 0.60255 0.67361 0.11917 0.0
C1079 C 0.61344 0.69045 0.13589 0.0
C1080 C 0.562 0.61919 0.15782 0.0
C1081 C 0.60958 0.68078 0.09418 0.0
H1082 H 0.58731 0.59248 0.08634 0.0
H1083 H 0.52798 0.60046 0.07496 0.0
H1084 H 0.62458 0.64557 0.1123 0.0
H1085 H 0.60865 0.62411 0.13489 0.0
H1086 H 0.61883 0.61655 0.11004 0.0
H1087 H 0.52526 0.63017 0.09127 0.0
H1088 H 0.53533 0.63378 0.12054 0.0
H1089 H 0.55299 0.65577 0.09891 0.0
H1090 H 0.58639 0.65649 0.18412 0.0
H1091 H 0.62694 0.70824 0.13067 0.0
H1092 H 0.56923 0.60812 0.15422 0.0
H1093 H 0.54516 0.61216 0.14832 0.0
H1094 H 0.55797 0.61761 0.17655 0.0
H1095 H 0.61928 0.67274 0.08798 0.0
H1096 H 0.62114 0.7 0.09141 0.0
H1097 H 0.59354 0.67439 0.08351 0.0
C1098 C 0.97437 0.54869 0.59386 0.0
C1099 C 0.96126 0.54059 0.57379 0.0
C1100 C 0.96709 0.55741 0.61127 0.0
C1101 C 0.94616 0.55794 0.60848 0.0
C1102 C 0.93286 0.54972 0.58813 0.0
C1103 C 0.94062 0.54113 0.57094 0.0
C1104 C 0.98172 0.56593 0.63272 0.0
C1105 C 0.91039 0.54986 0.58462 0.0
C1106 C 0.91911 0.56146 0.66427 0.0
C1107 C 0.9283 0.58545 0.66492 0.0
C1108 C 0.92383 0.55207 0.64547 0.0
C1109 C 0.93835 0.56711 0.627 0.0
C1110 C 0.94693 0.59122 0.62715 0.0
C1111 C 0.94167 0.60008 0.64605 0.0
C1112 C 0.91405 0.52621 0.64582 0.0
C1113 C 0.96252 0.60782 0.60782 0.0
H1114 H 0.99026 0.54804 0.59594 0.0
H1115 H 0.9305 0.53462 0.55538 0.0
H1116 H 0.98778 0.58446 0.63499 0.0
H1117 H 0.9707 0.55577 0.64807 0.0
H1118 H 0.99755 0.56437 0.63217 0.0
H1119 H 0.90186 0.54243 0.56803 0.0
H1120 H 0.89751 0.53968 0.59885 0.0
H1121 H 0.91441 0.56798 0.58497 0.0
H1122 H 0.90864 0.55006 0.67876 0.0
H1123 H 0.94865 0.61861 0.64643 0.0
H1124 H 0.92883 0.52315 0.64778 0.0
H1125 H 0.9053 0.51882 0.62933 0.0
H1126 H 0.90102 0.51662 0.66014 0.0
H1127 H 0.97967 0.60866 0.60749 0.0
H1128 H 0.96626 0.62572 0.60969 0.0
H1129 H 0.95401 0.60145 0.59101 0.0
C1130 C 0.43121 0.98661 0.0722 0.0
C1131 C 0.44332 0.97501 0.07003 0.0
C1132 C 0.41266 0.97871 0.08841 0.0
C1133 C 0.40563 0.95831 0.10227 0.0
C1134 C 0.41735 0.94611 0.09959 0.0
C1135 C 0.43633 0.95483 0.08372 0.0
C1136 C 0.40098 0.99251 0.09106 0.0
C1137 C 0.40996 0.92398 0.1136 0.0
C1138 C 0.37441 0.9519 0.15901 0.0
C1139 C 0.35039 0.93834 0.15314 0.0
C1140 C 0.39255 0.95823 0.14273 0.0
C1141 C 0.38657 0.95032 0.12009 0.0
C1142 C 0.36239 0.93582 0.11425 0.0
C1143 C 0.34457 0.93031 0.13071 0.0
C1144 C 0.41811 0.97411 0.14953 0.0
C1145 C 0.35533 0.92654 0.09045 0.0
H1146 H 0.43662 0.00216 0.06147 0.0
H1147 H 0.44577 0.94591 0.08197 0.0
H1148 H 0.38167 0.98136 0.08789 0.0
H1149 H 0.40301 0.99834 0.10895 0.0
H1150 H 0.40868 0.00808 0.07906 0.0
H1151 H 0.41976 0.91571 0.10828 0.0
H1152 H 0.41324 0.92779 0.13208 0.0
H1153 H 0.39063 0.91128 0.11184 0.0
H1154 H 0.37897 0.95819 0.17628 0.0
H1155 H 0.32611 0.91994 0.12585 0.0
H1156 H 0.42636 0.99061 0.13889 0.0
H1157 H 0.4284 0.96586 0.14624 0.0
H1158 H 0.41978 0.97836 0.16796 0.0
H1159 H 0.36021 0.94114 0.07779 0.0
H1160 H 0.33595 0.91364 0.08933 0.0
H1161 H 0.36508 0.91818 0.08538 0.0
C1162 C 0.49965 0.43604 0.5746 0.0
C1163 C 0.48049 0.43314 0.5617 0.0
C1164 C 0.49721 0.41792 0.58922 0.0
C1165 C 0.47512 0.39648 0.59083 0.0
C1166 C 0.45546 0.39379 0.57851 0.0
C1167 C 0.45838 0.41223 0.56394 0.0
C1168 C 0.51856 0.42139 0.60217 0.0
C1169 C 0.43169 0.37115 0.58 0.0
C1170 C 0.48549 0.3375 0.60405 0.0
C1171 C 0.47199 0.32969 0.63346 0.0
C1172 C 0.48345 0.36002 0.58888 0.0
C1173 C 0.47354 0.37645 0.60354 0.0
C1174 C 0.46681 0.37228 0.63402 0.0
C1175 C 0.46823 0.3501 0.65077 0.0
C1176 C 0.48993 0.36508 0.56393 0.0
C1177 C 0.46075 0.38776 0.64557 0.0
H1178 H 0.51675 0.45226 0.57261 0.0
H1179 H 0.44368 0.41006 0.55372 0.0
H1180 H 0.51391 0.41645 0.62067 0.0
H1181 H 0.52413 0.40988 0.59541 0.0
H1182 H 0.53386 0.43971 0.60057 0.0
H1183 H 0.41765 0.37249 0.57096 0.0
H1184 H 0.43325 0.3573 0.57221 0.0
H1185 H 0.42619 0.36571 0.59829 0.0
H1186 H 0.4893 0.32616 0.59502 0.0
H1187 H 0.4627 0.34628 0.66868 0.0
H1188 H 0.50568 0.38302 0.56143 0.0
H1189 H 0.47508 0.36438 0.55433 0.0
H1190 H 0.49388 0.35237 0.5572 0.0
H1191 H 0.4768 0.4056 0.64577 0.0
H1192 H 0.45437 0.38118 0.66347 0.0
H1193 H 0.44701 0.38879 0.63562 0.0
C1194 C 0.53887 0.93248 0.44658 0.0
C1195 C 0.55234 0.95642 0.45065 0.0
C1196 C 0.54868 0.9218 0.43466 0.0
C1197 C 0.5724 0.93539 0.42639 0.0
C1198 C 0.58598 0.95956 0.43005 0.0
C1199 C 0.57589 0.96976 0.4423 0.0
C1200 C 0.53376 0.89595 0.43112 0.0
C1201 C 0.61118 0.97469 0.42094 0.0
C1202 C 0.61688 0.90511 0.4158 0.0
C1203 C 0.60754 0.89695 0.38566 0.0
C1204 C 0.60184 0.91694 0.43012 0.0
C1205 C 0.58318 0.92445 0.4142 0.0
C1206 C 0.58005 0.92206 0.38338 0.0
C1207 C 0.59431 0.91034 0.36749 0.0
C1208 C 0.6044 0.92 0.45542 0.0
C1209 C 0.56609 0.9304 0.37089 0.0
H1210 H 0.52055 0.92206 0.45256 0.0
H1211 H 0.58661 0.98818 0.44558 0.0
H1212 H 0.53251 0.89272 0.41246 0.0
H1213 H 0.5424 0.88729 0.43934 0.0
H1214 H 0.51551 0.88782 0.43845 0.0
H1215 H 0.61895 0.99343 0.42418 0.0
H1216 H 0.62249 0.96899 0.42917 0.0
H1217 H 0.61167 0.97272 0.40214 0.0
H1218 H 0.62625 0.89854 0.42546 0.0
H1219 H 0.59133 0.9073 0.34933 0.0
H1220 H 0.58662 0.91273 0.46353 0.0
H1221 H 0.61515 0.93886 0.45874 0.0
H1222 H 0.61323 0.91128 0.46302 0.0
H1223 H 0.54737 0.92006 0.37713 0.0
H1224 H 0.56688 0.9287 0.35208 0.0
H1225 H 0.57326 0.94887 0.37476 0.0
C1226 C 0.58924 0.52284 0.95909 0.0
C1227 C 0.58512 0.53959 0.96725 0.0
C1228 C 0.6102 0.52947 0.9469 0.0
C1229 C 0.62705 0.55344 0.94204 0.0
C1230 C 0.62231 0.57038 0.94911 0.0
C1231 C 0.60159 0.56327 0.96208 0.0
C1232 C 0.61481 0.51086 0.94023 0.0
C1233 C 0.6394 0.59603 0.94356 0.0
C1234 C 0.69107 0.57027 0.93463 0.0
C1235 C 0.69314 0.56971 0.91072 0.0
C1236 C 0.66982 0.56546 0.94499 0.0
C1237 C 0.6503 0.56068 0.93105 0.0
C1238 C 0.6526 0.56125 0.90682 0.0
C1239 C 0.6738 0.56527 0.89695 0.0
C1240 C 0.66794 0.56444 0.97092 0.0
C1241 C 0.63246 0.557 0.89135 0.0
H1242 H 0.57643 0.50453 0.96313 0.0
H1243 H 0.59844 0.57621 0.96853 0.0
H1244 H 0.61821 0.51212 0.92144 0.0
H1245 H 0.63094 0.51354 0.94894 0.0
H1246 H 0.59969 0.493 0.94494 0.0
H1247 H 0.63163 0.60657 0.9475 0.0
H1248 H 0.65576 0.6024 0.95373 0.0
H1249 H 0.64474 0.599 0.9251 0.0
H1250 H 0.7059 0.57357 0.94532 0.0
H1251 H 0.67502 0.5646 0.87847 0.0
H1252 H 0.65381 0.54664 0.9771 0.0
H1253 H 0.66282 0.57665 0.9766 0.0
H1254 H 0.68486 0.56889 0.97927 0.0
H1255 H 0.6178 0.53846 0.89323 0.0
H1256 H 0.6381 0.56109 0.87295 0.0
H1257 H 0.62524 0.56774 0.89636 0.0
C1258 C 0.06934 0.57457 0.44338 0.0
C1259 C 0.04847 0.57013 0.45412 0.0
C1260 C 0.08449 0.59593 0.43142 0.0
C1261 C 0.07838 0.61308 0.42994 0.0
C1262 C 0.05684 0.60829 0.44012 0.0
C1263 C 0.04236 0.58703 0.45247 0.0
C1264 C 0.1075 0.60051 0.42119 0.0
C1265 C 0.0494 0.62584 0.43855 0.0
C1266 C 0.12984 0.67588 0.42236 0.0
C1267 C 0.13101 0.67966 0.39839 0.0
C1268 C 0.11252 0.65447 0.43287 0.0
C1269 C 0.0954 0.63654 0.41915 0.0
C1270 C 0.09558 0.64066 0.39508 0.0
C1271 C 0.11367 0.66196 0.38491 0.0
C1272 C 0.11325 0.65068 0.45855 0.0
C1273 C 0.07704 0.62232 0.38 0.0
H1274 H 0.07414 0.56157 0.44499 0.0
H1275 H 0.02645 0.58375 0.46124 0.0
H1276 H 0.10862 0.60523 0.40257 0.0
H1277 H 0.12273 0.61553 0.4295 0.0
H1278 H 0.10937 0.58519 0.42339 0.0
H1279 H 0.03078 0.61824 0.44462 0.0
H1280 H 0.06121 0.64085 0.4492 0.0
H1281 H 0.05114 0.6327 0.42055 0.0
H1282 H 0.14321 0.68945 0.43283 0.0
H1283 H 0.11437 0.66455 0.36637 0.0
H1284 H 0.11623 0.63621 0.46218 0.0
H1285 H 0.09599 0.64554 0.46668 0.0
H1286 H 0.12752 0.66651 0.46679 0.0
H1287 H 0.07973 0.60752 0.37926 0.0
H1288 H 0.07782 0.62924 0.36217 0.0
H1289 H 0.05899 0.61533 0.38734 0.0
C1290 C 0.46013 0.06335 0.95562 0.0
C1291 C 0.46906 0.05001 0.94792 0.0
C1292 C 0.45062 0.07265 0.94013 0.0
C1293 C 0.44978 0.06827 0.91644 0.0
C1294 C 0.45901 0.05506 0.90855 0.0
C1295 C 0.46869 0.04629 0.92432 0.0
C1296 C 0.44124 0.08692 0.94913 0.0
C1297 C 0.45841 0.04995 0.88343 0.0
C1298 C 0.40507 0.07011 0.87694 0.0
C1299 C 0.41978 0.09037 0.86323 0.0
C1300 C 0.41447 0.06304 0.89482 0.0
C1301 C 0.43896 0.07705 0.89974 0.0
C1302 C 0.45346 0.09847 0.88724 0.0
C1303 C 0.44371 0.10481 0.86909 0.0
C1304 C 0.39843 0.04002 0.90769 0.0
C1305 C 0.47948 0.11425 0.89244 0.0
H1306 H 0.46015 0.06616 0.97383 0.0
H1307 H 0.47605 0.0365 0.91811 0.0
H1308 H 0.4496 0.10402 0.93952 0.0
H1309 H 0.42182 0.07783 0.94639 0.0
H1310 H 0.44461 0.09001 0.96776 0.0
H1311 H 0.46613 0.03923 0.88013 0.0
H1312 H 0.43979 0.04056 0.87742 0.0
H1313 H 0.46843 0.0665 0.87293 0.0
H1314 H 0.38634 0.05931 0.87328 0.0
H1315 H 0.45498 0.12089 0.85907 0.0
H1316 H 0.39976 0.04237 0.92651 0.0
H1317 H 0.4042 0.02777 0.90403 0.0
H1318 H 0.37953 0.0319 0.9028 0.0
H1319 H 0.48193 0.11708 0.91116 0.0
H1320 H 0.48758 0.13146 0.88305 0.0
H1321 H 0.48924 0.10588 0.88746 0.0
C1322 C 0.40218 0.46322 0.44408 0.0
C1323 C 0.42459 0.46732 0.43811 0.0
C1324 C 0.38409 0.45566 0.4278 0.0
C1325 C 0.3884 0.45184 0.40516 0.0
C1326 C 0.41088 0.45595 0.39897 0.0
C1327 C 0.42878 0.46385 0.41543 0.0
C1328 C 0.36033 0.45162 0.43488 0.0
C1329 C 0.41592 0.45164 0.37503 0.0
C1330 C 0.32728 0.39984 0.36457 0.0
C1331 C 0.32268 0.42159 0.3489 0.0
C1332 C 0.34995 0.41177 0.38603 0.0
C1333 C 0.36937 0.44296 0.38809 0.0
C1334 C 0.36822 0.46339 0.368 0.0
C1335 C 0.34619 0.45319 0.34587 0.0
C1336 C 0.35279 0.39576 0.40211 0.0
C1337 C 0.38538 0.4889 0.3699 0.0
H1338 H 0.39859 0.46552 0.46159 0.0
H1339 H 0.44613 0.46738 0.41045 0.0
H1340 H 0.35584 0.46215 0.42333 0.0
H1341 H 0.34632 0.43299 0.4331 0.0
H1342 H 0.36009 0.45627 0.45292 0.0
H1343 H 0.43432 0.45553 0.37297 0.0
H1344 H 0.40326 0.43314 0.37105 0.0
H1345 H 0.41323 0.46258 0.36222 0.0
H1346 H 0.31426 0.38132 0.3644 0.0
H1347 H 0.34406 0.46522 0.3349 0.0
H1348 H 0.35023 0.39906 0.42005 0.0
H1349 H 0.37116 0.39953 0.40047 0.0
H1350 H 0.33978 0.3773 0.39834 0.0
H1351 H 0.38504 0.49378 0.38781 0.0
H1352 H 0.38092 0.49898 0.3577 0.0
H1353 H 0.4036 0.49303 0.36613 0.0
C1354 C 0.97758 0.4109 0.92768 0.0
C1355 C 0.96647 0.42066 0.93893 0.0
C1356 C 0.96426 0.39064 0.91519 0.0
C1357 C 0.93929 0.37994 0.91403 0.0
C1358 C 0.92812 0.39014 0.92479 0.0
C1359 C 0.94185 0.4104 0.937 0.0
C1360 C 0.97678 0.38035 0.90374 0.0
C1361 C 0.90155 0.37931 0.92392 0.0
C1362 C 0.90092 0.33607 0.86992 0.0
C1363 C 0.89126 0.31491 0.88285 0.0
C1364 C 0.91779 0.3573 0.8794 0.0
C1365 C 0.92449 0.35747 0.90257 0.0
C1366 C 0.91518 0.33617 0.91553 0.0
C1367 C 0.89885 0.31517 0.90544 0.0
C1368 C 0.92771 0.37963 0.8649 0.0
C1369 C 0.92148 0.33564 0.94044 0.0
H1370 H 0.99659 0.41869 0.9292 0.0
H1371 H 0.93324 0.41815 0.94525 0.0
H1372 H 0.97108 0.3631 0.91207 0.0
H1373 H 0.97185 0.3775 0.88537 0.0
H1374 H 0.99642 0.39171 0.90479 0.0
H1375 H 0.89571 0.38972 0.93279 0.0
H1376 H 0.89575 0.37758 0.9058 0.0
H1377 H 0.89233 0.36151 0.93216 0.0
H1378 H 0.89501 0.33617 0.85255 0.0
H1379 H 0.89122 0.29889 0.91553 0.0
H1380 H 0.94733 0.39047 0.8663 0.0
H1381 H 0.92049 0.38993 0.87125 0.0
H1382 H 0.92316 0.3763 0.84647 0.0
H1383 H 0.94105 0.3454 0.94233 0.0
H1384 H 0.9139 0.31758 0.94767 0.0
H1385 H 0.91466 0.34434 0.95082 0.0
C1386 C 0.99194 0.56866 0.96111 0.0
C1387 C 0.98738 0.54733 0.95361 0.0
C1388 C 0.98084 0.57946 0.9508 0.0
C1389 C 0.9648 0.56855 0.93264 0.0
C1390 C 0.96088 0.54735 0.9245 0.0
C1391 C 0.97222 0.53693 0.93517 0.0
C1392 C 0.98552 0.60204 0.95999 0.0
C1393 C 0.944 0.53523 0.90515 0.0
C1394 C 0.91631 0.582 0.9265 0.0
C1395 C 0.92522 0.59898 0.90845 0.0
C1396 C 0.92877 0.57159 0.93413 0.0
C1397 C 0.95077 0.57838 0.92351 0.0
C1398 C 0.95973 0.59525 0.90502 0.0
C1399 C 0.94696 0.60553 0.89784 0.0
C1400 C 0.91869 0.55381 0.95404 0.0
C1401 C 0.98308 0.60285 0.89322 0.0
H1402 H 0.00366 0.5765 0.97549 0.0
H1403 H 0.96875 0.52033 0.92958 0.0
H1404 H 0.99077 0.61535 0.94575 0.0
H1405 H 0.96901 0.59919 0.96801 0.0
H1406 H 0.99972 0.60907 0.97303 0.0
H1407 H 0.94452 0.52002 0.89952 0.0
H1408 H 0.92559 0.52907 0.91083 0.0
H1409 H 0.94836 0.54757 0.89017 0.0
H1410 H 0.89976 0.57723 0.93501 0.0
H1411 H 0.95418 0.619 0.8842 0.0
H1412 H 0.93095 0.56039 0.96876 0.0
H1413 H 0.91705 0.53737 0.94909 0.0
H1414 H 0.90096 0.54983 0.95985 0.0
H1415 H 0.99778 0.61179 0.90554 0.0
H1416 H 0.98676 0.6149 0.87809 0.0
H1417 H 0.98312 0.58744 0.88748 0.0
C1418 C 0.43233 0.95362 0.44134 0.0
C1419 C 0.43648 0.96907 0.45861 0.0
C1420 C 0.41107 0.94331 0.42907 0.0
C1421 C 0.39369 0.94861 0.43435 0.0
C1422 C 0.39811 0.96455 0.45163 0.0
C1423 C 0.41953 0.97461 0.46359 0.0
C1424 C 0.40704 0.92645 0.41075 0.0
C1425 C 0.38004 0.97064 0.45776 0.0
C1426 C 0.34525 0.93654 0.39166 0.0
C1427 C 0.32593 0.91554 0.40091 0.0
C1428 C 0.36756 0.94729 0.40209 0.0
C1429 C 0.37053 0.93691 0.42239 0.0
C1430 C 0.35113 0.91567 0.43173 0.0
C1431 C 0.32905 0.9053 0.42093 0.0
C1432 C 0.38782 0.96994 0.39165 0.0
C1433 C 0.35359 0.9041 0.45339 0.0
H1434 H 0.44562 0.94945 0.43769 0.0
H1435 H 0.42296 0.98658 0.47706 0.0
H1436 H 0.39149 0.90893 0.41563 0.0
H1437 H 0.40292 0.93213 0.39418 0.0
H1438 H 0.42271 0.92492 0.40812 0.0
H1439 H 0.38656 0.98392 0.47108 0.0
H1440 H 0.37545 0.9774 0.44223 0.0
H1441 H 0.36345 0.95475 0.46428 0.0
H1442 H 0.34279 0.94469 0.37639 0.0
H1443 H 0.31407 0.88926 0.42831 0.0
H1444 H 0.4033 0.96834 0.38822 0.0
H1445 H 0.39359 0.98401 0.40395 0.0
H1446 H 0.38285 0.97523 0.37531 0.0
H1447 H 0.3682 0.9009 0.45122 0.0
H1448 H 0.337 0.88725 0.45803 0.0
H1449 H 0.35828 0.91582 0.46794 0.0
C1450 C 0.47043 0.42718 0.92711 0.0
C1451 C 0.47214 0.42323 0.95072 0.0
C1452 C 0.46194 0.40905 0.91176 0.0
C1453 C 0.4553 0.38642 0.9201 0.0
C1454 C 0.45726 0.38233 0.94382 0.0
C1455 C 0.46551 0.40073 0.95886 0.0
C1456 C 0.45999 0.4141 0.8866 0.0
C1457 C 0.45051 0.35847 0.95333 0.0
C1458 C 0.41287 0.33558 0.88387 0.0
C1459 C 0.42847 0.33155 0.87177 0.0
C1460 C 0.42132 0.35315 0.89988 0.0
C1461 C 0.446 0.36701 0.90397 0.0
C1462 C 0.46186 0.3629 0.892 0.0
C1463 C 0.45295 0.34546 0.87581 0.0
C1464 C 0.40388 0.35724 0.91198 0.0
C1465 C 0.48827 0.3772 0.89603 0.0
H1466 H 0.47593 0.44455 0.92053 0.0
H1467 H 0.46645 0.39737 0.97708 0.0
H1468 H 0.47111 0.41008 0.87602 0.0
H1469 H 0.44135 0.40276 0.88105 0.0
H1470 H 0.46565 0.43259 0.88291 0.0
H1471 H 0.45381 0.35834 0.97207 0.0
H1472 H 0.43141 0.34575 0.95035 0.0
H1473 H 0.46076 0.35241 0.94423 0.0
H1474 H 0.39402 0.32521 0.88043 0.0
H1475 H 0.4652 0.34285 0.86616 0.0
H1476 H 0.408 0.37511 0.90751 0.0
H1477 H 0.40549 0.35597 0.9309 0.0
H1478 H 0.3852 0.34455 0.90731 0.0
H1479 H 0.49545 0.39569 0.89067 0.0
H1480 H 0.49803 0.37091 0.88638 0.0
H1481 H 0.49185 0.37668 0.91463 0.0
C1482 C 0.07062 0.46969 0.44279 0.0
C1483 C 0.04585 0.45932 0.44406 0.0
C1484 C 0.08091 0.45993 0.43011 0.0
C1485 C 0.06618 0.43951 0.41794 0.0
C1486 C 0.04126 0.42937 0.41845 0.0
C1487 C 0.0314 0.43923 0.43165 0.0
C1488 C 0.10756 0.47118 0.4302 0.0
C1489 C 0.02497 0.40775 0.40548 0.0
C1490 C 0.09637 0.42464 0.37224 0.0
C1491 C 0.09952 0.40795 0.38406 0.0
C1492 C 0.08496 0.43457 0.38276 0.0
C1493 C 0.07683 0.42805 0.40587 0.0
C1494 C 0.07989 0.41131 0.41795 0.0
C1495 C 0.0914 0.40173 0.40707 0.0
C1496 C 0.08212 0.45244 0.3693 0.0
C1497 C 0.07158 0.40394 0.44268 0.0
H1498 H 0.08208 0.4855 0.45177 0.0
H1499 H 0.01225 0.43079 0.43265 0.0
H1500 H 0.11205 0.45882 0.43807 0.0
H1501 H 0.11477 0.4754 0.41232 0.0
H1502 H 0.1166 0.48741 0.43993 0.0
H1503 H 0.00623 0.40312 0.40605 0.0
H1504 H 0.0309 0.41029 0.38723 0.0
H1505 H 0.02571 0.39282 0.41297 0.0
H1506 H 0.10323 0.43029 0.3548 0.0
H1507 H 0.09424 0.38959 0.41697 0.0
H1508 H 0.09272 0.4696 0.37727 0.0
H1509 H 0.06327 0.44743 0.3698 0.0
H1510 H 0.08798 0.4545 0.35105 0.0
H1511 H 0.0814 0.41914 0.4537 0.0
H1512 H 0.07427 0.38991 0.44935 0.0
H1513 H 0.05243 0.39764 0.44434 0.0
C1514 C 0.58904 0.05645 0.94572 0.0
C1515 C 0.58191 0.0371 0.96074 0.0
C1516 C 0.60908 0.0651 0.93125 0.0
C1517 C 0.62177 0.05364 0.93135 0.0
C1518 C 0.6144 0.03387 0.94633 0.0
C1519 C 0.59471 0.02603 0.96109 0.0
C1520 C 0.6167 0.08653 0.91593 0.0
C1521 C 0.62714 0.02087 0.9466 0.0
C1522 C 0.65883 0.06219 0.87811 0.0
C1523 C 0.68201 0.07753 0.88563 0.0
C1524 C 0.63912 0.05405 0.8929 0.0
C1525 C 0.64256 0.06209 0.91553 0.0
C1526 C 0.66582 0.07814 0.92302 0.0
C1527 C 0.68527 0.08554 0.90804 0.0
C1528 C 0.61463 0.03669 0.88437 0.0
C1529 C 0.67013 0.08757 0.94683 0.0
H1530 H 0.57902 0.06492 0.94549 0.0
H1531 H 0.58911 0.01107 0.97279 0.0
H1532 H 0.63549 0.10009 0.9192 0.0
H1533 H 0.61564 0.08218 0.89761 0.0
H1534 H 0.60554 0.09399 0.91868 0.0
H1535 H 0.61886 0.00557 0.95896 0.0
H1536 H 0.62705 0.01475 0.92916 0.0
H1537 H 0.64598 0.03268 0.95126 0.0
H1538 H 0.6561 0.05641 0.86064 0.0
H1539 H 0.70309 0.0977 0.91384 0.0
H1540 H 0.60327 0.04416 0.88477 0.0
H1541 H 0.60607 0.02075 0.89587 0.0
H1542 H 0.61506 0.0316 0.86655 0.0
H1543 H 0.65986 0.09595 0.94954 0.0
H1544 H 0.68922 0.10053 0.94975 0.0
H1545 H 0.66384 0.07309 0.95997 0.0
C1546 C 0.5391 0.58891 0.45628 0.0
C1547 C 0.55162 0.58058 0.46835 0.0
C1548 C 0.55118 0.61028 0.44367 0.0
C1549 C 0.57634 0.62324 0.44265 0.0
C1550 C 0.58904 0.61491 0.45495 0.0
C1551 C 0.57649 0.59375 0.46788 0.0
C1552 C 0.53701 0.61878 0.43113 0.0
C1553 C 0.61584 0.628 0.45391 0.0
C1554 C 0.60508 0.66429 0.39036 0.0
C1555 C 0.61304 0.68608 0.39947 0.0
C1556 C 0.59355 0.64378 0.40434 0.0
C1557 C 0.5893 0.645 0.42789 0.0
C1558 C 0.59703 0.66688 0.43717 0.0
C1559 C 0.60894 0.68719 0.42287 0.0
C1560 C 0.58582 0.62079 0.39387 0.0
C1561 C 0.5924 0.66879 0.46211 0.0
H1562 H 0.51984 0.57855 0.45658 0.0
H1563 H 0.58606 0.58715 0.47723 0.0
H1564 H 0.54316 0.63681 0.43588 0.0
H1565 H 0.53985 0.61926 0.4123 0.0
H1566 H 0.51766 0.60746 0.43502 0.0
H1567 H 0.62303 0.6194 0.46487 0.0
H1568 H 0.62195 0.62927 0.4359 0.0
H1569 H 0.62346 0.64605 0.45952 0.0
H1570 H 0.60782 0.66328 0.37221 0.0
H1571 H 0.61483 0.70395 0.42994 0.0
H1572 H 0.56619 0.60922 0.39498 0.0
H1573 H 0.59335 0.61182 0.40361 0.0
H1574 H 0.59147 0.62298 0.37553 0.0
H1575 H 0.573 0.65844 0.46584 0.0
H1576 H 0.59955 0.68712 0.46665 0.0
H1577 H 0.60058 0.66144 0.4734 0.0
C1578 C 0.4525 0.0587 0.55039 0.0
C1579 C 0.46603 0.05118 0.5619 0.0
C1580 C 0.4433 0.07006 0.56203 0.0
C1581 C 0.44803 0.07431 0.58569 0.0
C1582 C 0.46142 0.06647 0.59748 0.0
C1583 C 0.47013 0.05483 0.58546 0.0
C1584 C 0.42881 0.07783 0.54889 0.0
C1585 C 0.4671 0.07094 0.62261 0.0
C1586 C 0.44536 0.12541 0.60616 0.0
C1587 C 0.42272 0.11421 0.61653 0.0
C1588 C 0.45416 0.11258 0.59686 0.0
C1589 C 0.43984 0.08792 0.59768 0.0
C1590 C 0.4172 0.07647 0.60868 0.0
C1591 C 0.40892 0.08976 0.61801 0.0
C1592 C 0.47847 0.12547 0.58544 0.0
C1593 C 0.40137 0.05021 0.60979 0.0
H1594 H 0.44908 0.05564 0.53223 0.0
H1595 H 0.48073 0.04916 0.59434 0.0
H1596 H 0.41136 0.07076 0.55765 0.0
H1597 H 0.4381 0.09712 0.54853 0.0
H1598 H 0.4257 0.07211 0.53089 0.0
H1599 H 0.47688 0.06289 0.6295 0.0
H1600 H 0.47808 0.09 0.625 0.0
H1601 H 0.45051 0.06399 0.63291 0.0
H1602 H 0.45604 0.1443 0.60484 0.0
H1603 H 0.39134 0.08106 0.62589 0.0
H1604 H 0.47671 0.12244 0.56673 0.0
H1605 H 0.4894 0.11879 0.59251 0.0
H1606 H 0.48806 0.14456 0.58777 0.0
H1607 H 0.39613 0.04386 0.59215 0.0
H1608 H 0.385 0.04396 0.62031 0.0
H1609 H 0.41109 0.04231 0.61714 0.0
C1610 C 0.41773 0.44874 0.05929 0.0
C1611 C 0.43699 0.47108 0.06343 0.0
C1612 C 0.39689 0.43868 0.07283 0.0
C1613 C 0.39547 0.4513 0.0909 0.0
C1614 C 0.41494 0.47391 0.09509 0.0
C1615 C 0.43556 0.48359 0.08123 0.0
C1616 C 0.37635 0.41463 0.06774 0.0
C1617 C 0.41403 0.48777 0.11425 0.0
C1618 C 0.32246 0.43157 0.11202 0.0
C1619 C 0.32234 0.41724 0.14007 0.0
C1620 C 0.3502 0.44532 0.09614 0.0
C1621 C 0.37363 0.44084 0.1052 0.0
C1622 C 0.36986 0.42135 0.12924 0.0
C1623 C 0.34277 0.40677 0.14624 0.0
C1624 C 0.3537 0.46023 0.07516 0.0
C1625 C 0.38942 0.41753 0.13529 0.0
H1626 H 0.41903 0.4392 0.04544 0.0
H1627 H 0.45061 0.50089 0.0843 0.0
H1628 H 0.37217 0.40268 0.08303 0.0
H1629 H 0.36029 0.41529 0.06405 0.0
H1630 H 0.38016 0.40726 0.05285 0.0
H1631 H 0.4307 0.50511 0.11529 0.0
H1632 H 0.39899 0.49034 0.11159 0.0
H1633 H 0.41087 0.47793 0.13093 0.0
H1634 H 0.30894 0.43539 0.10782 0.0
H1635 H 0.34115 0.39679 0.16188 0.0
H1636 H 0.35754 0.45302 0.06019 0.0
H1637 H 0.36935 0.478 0.07744 0.0
H1638 H 0.33767 0.46105 0.07194 0.0
H1639 H 0.39196 0.40841 0.12125 0.0
H1640 H 0.38521 0.40699 0.15165 0.0
H1641 H 0.40623 0.43464 0.1368 0.0
C1642 C 0.94088 0.41431 0.55885 0.0
C1643 C 0.96214 0.42183 0.5468 0.0
C1644 C 0.93048 0.39421 0.57346 0.0
C1645 C 0.94221 0.38195 0.57685 0.0
C1646 C 0.96375 0.38955 0.56477 0.0
C1647 C 0.97328 0.40923 0.54961 0.0
C1648 C 0.90724 0.38641 0.58561 0.0
C1649 C 0.97719 0.37742 0.5685 0.0
C1650 C 0.92985 0.34582 0.63261 0.0
C1651 C 0.9162 0.32295 0.625 0.0
C1652 C 0.9385 0.36516 0.61712 0.0
C1653 C 0.93244 0.36164 0.59362 0.0
C1654 C 0.91748 0.33871 0.58609 0.0
C1655 C 0.90965 0.31966 0.60183 0.0
C1656 C 0.95453 0.38935 0.62583 0.0
C1657 C 0.90988 0.33429 0.56136 0.0
H1658 H 0.9326 0.42444 0.55715 0.0
H1659 H 0.98996 0.41537 0.5406 0.0
H1660 H 0.8943 0.36764 0.58304 0.0
H1661 H 0.91006 0.38854 0.60438 0.0
H1662 H 0.89933 0.39653 0.57941 0.0
H1663 H 0.99367 0.38549 0.55775 0.0
H1664 H 0.98207 0.37806 0.58686 0.0
H1665 H 0.96577 0.35877 0.56446 0.0
H1666 H 0.93421 0.34872 0.6506 0.0
H1667 H 0.89844 0.30209 0.59598 0.0
H1668 H 0.9464 0.39989 0.62277 0.0
H1669 H 0.97176 0.39833 0.61627 0.0
H1670 H 0.95803 0.38907 0.6445 0.0
H1671 H 0.90137 0.3441 0.55612 0.0
H1672 H 0.89721 0.3155 0.55851 0.0
H1673 H 0.92566 0.34068 0.54997 0.0
C1674 C 0.5832 0.9738 0.07512 0.0
C1675 C 0.55873 0.9645 0.07706 0.0
C1676 C 0.59406 0.96445 0.08854 0.0
C1677 C 0.58021 0.94589 0.10471 0.0
C1678 C 0.55552 0.93661 0.10688 0.0
C1679 C 0.54499 0.94585 0.09277 0.0
C1680 C 0.62026 0.97417 0.08514 0.0
C1681 C 0.54033 0.91728 0.12439 0.0
C1682 C 0.60427 0.89802 0.1269 0.0
C1683 C 0.61559 0.91128 0.15518 0.0
C1684 C 0.59007 0.91017 0.11033 0.0
C1685 C 0.59155 0.93622 0.11915 0.0
C1686 C 0.60861 0.9521 0.14363 0.0
C1687 C 0.62349 0.94134 0.16126 0.0
C1688 C 0.5775 0.89887 0.0889 0.0
C1689 C 0.61003 0.97395 0.14983 0.0
H1690 H 0.59373 0.98811 0.06277 0.0
H1691 H 0.52607 0.93882 0.09431 0.0
H1692 H 0.62989 0.98292 0.10085 0.0
H1693 H 0.62328 0.9598 0.08232 0.0
H1694 H 0.62798 0.98698 0.07031 0.0
H1695 H 0.52153 0.9125 0.12436 0.0
H1696 H 0.54079 0.90156 0.12081 0.0
H1697 H 0.54752 0.92277 0.14183 0.0
H1698 H 0.60219 0.8816 0.12279 0.0
H1699 H 0.63184 0.94945 0.17711 0.0
H1700 H 0.58136 0.91239 0.07524 0.0
H1701 H 0.55808 0.8887 0.09238 0.0
H1702 H 0.58296 0.88693 0.08314 0.0
H1703 H 0.62637 0.98912 0.14194 0.0
H1704 H 0.61118 0.9755 0.16877 0.0
H1705 H 0.5944 0.97417 0.14334 0.0
C1706 C 0.58846 0.53678 0.60178 0.0
C1707 C 0.59277 0.54004 0.57791 0.0
C1708 C 0.60723 0.5456 0.61733 0.0
C1709 C 0.63095 0.55762 0.60888 0.0
C1710 C 0.63548 0.56067 0.58486 0.0
C1711 C 0.61637 0.55203 0.56967 0.0
C1712 C 0.60168 0.54219 0.64284 0.0
C1713 C 0.66053 0.57313 0.57519 0.0
C1714 C 0.68001 0.59876 0.64835 0.0
C1715 C 0.68817 0.58475 0.6573 0.0
C1716 C 0.66146 0.5902 0.63254 0.0
C1717 C 0.651 0.56712 0.62522 0.0
C1718 C 0.65929 0.55292 0.63396 0.0
C1719 C 0.67747 0.56175 0.65019 0.0
C1720 C 0.65274 0.60569 0.62402 0.0
C1721 C 0.64883 0.52834 0.6263 0.0
H1722 H 0.57033 0.52716 0.60837 0.0
H1723 H 0.61998 0.55498 0.55131 0.0
H1724 H 0.60876 0.5321 0.6511 0.0
H1725 H 0.61049 0.55935 0.65091 0.0
H1726 H 0.58229 0.53286 0.64662 0.0
H1727 H 0.66101 0.57331 0.5561 0.0
H1728 H 0.67062 0.59141 0.58066 0.0
H1729 H 0.66983 0.5646 0.58206 0.0
H1730 H 0.68795 0.61639 0.6541 0.0
H1731 H 0.68325 0.55056 0.6573 0.0
H1732 H 0.63367 0.59746 0.62867 0.0
H1733 H 0.65427 0.60781 0.60499 0.0
H1734 H 0.66284 0.62324 0.63133 0.0
H1735 H 0.62978 0.51751 0.63145 0.0
H1736 H 0.65813 0.52002 0.63378 0.0
H1737 H 0.6498 0.52835 0.60726 0.0
C1738 C 0.0688 0.58992 0.0867 0.0
C1739 C 0.0733 0.59415 0.06292 0.0
C1740 C 0.07895 0.60824 0.10186 0.0
C1741 C 0.09418 0.63139 0.09307 0.0
C1742 C 0.09939 0.63576 0.06917 0.0
C1743 C 0.08885 0.61707 0.05435 0.0
C1744 C 0.07295 0.60284 0.12724 0.0
C1745 C 0.11568 0.66021 0.05923 0.0
C1746 C 0.09939 0.67897 0.12968 0.0
C1747 C 0.12043 0.68592 0.14155 0.0
C1748 C 0.09093 0.66161 0.11348 0.0
C1749 C 0.10391 0.651 0.10892 0.0
C1750 C 0.12537 0.65817 0.12053 0.0
C1751 C 0.1332 0.67529 0.13697 0.0
C1752 C 0.06771 0.65412 0.10179 0.0
C1753 C 0.13979 0.64738 0.11599 0.0
H1754 H 0.05719 0.5722 0.0935 0.0
H1755 H 0.09228 0.62048 0.03598 0.0
H1756 H 0.08944 0.6096 0.13727 0.0
H1757 H 0.06394 0.61168 0.13307 0.0
H1758 H 0.06119 0.58383 0.13134 0.0
H1759 H 0.119 0.66054 0.04048 0.0
H1760 H 0.10775 0.67081 0.06206 0.0
H1761 H 0.13296 0.66868 0.06812 0.0
H1762 H 0.08926 0.68683 0.13352 0.0
H1763 H 0.1492 0.68015 0.14641 0.0
H1764 H 0.05452 0.63554 0.10651 0.0
H1765 H 0.07023 0.65557 0.08283 0.0
H1766 H 0.06024 0.66471 0.10661 0.0
H1767 H 0.12955 0.6287 0.1217 0.0
H1768 H 0.15699 0.65618 0.12507 0.0
H1769 H 0.1434 0.64824 0.09726 0.0
loop_
_geom_bond_atom_site_label_1
_geom_bond_atom_site_label_2
_geom_bond_distance
_geom_bond_site_symmetry_2
_ccdc_geom_bond_type
C0 C1 1.443 . S
C0 N4 1.376 1_556 S
C0 C38 1.389 . S
C1 C0 1.443 . S
C1 C2 1.340 1_556 S
C1 H41 0.951 . S
C2 C1 1.340 1_554 S
C2 C3 1.439 . S
C2 H42 0.950 . S
C3 C2 1.439 . S
C3 N4 1.374 . S
C3 C37 1.395 . S
N4 C0 1.376 1_554 S
N4 C3 1.374 . S
N4 Co5 2.009 1_655 S
Co5 N4 2.009 1_455 S
Co5 N6 2.011 . S
Co5 N11 2.007 1_554 S
Co5 N16 1.979 1_554 S
Co5 N21 2.295 . S
Co5 N27 2.270 1_554 S
N6 Co5 2.011 . S
N6 C7 1.376 1_455 S
N6 C10 1.383 . S
C7 N6 1.376 1_655 S
C7 C8 1.446 . S
C7 C37 1.391 . S
C8 C7 1.446 . S
C8 C9 1.339 1_655 S
C8 H43 0.949 . S
C9 C8 1.339 1_455 S
C9 C10 1.439 . S
C9 H44 0.950 . S
C10 N6 1.383 . S
C10 C9 1.439 . S
C10 C39 1.392 . S
N11 Co5 2.007 1_556 S
N11 C12 1.360 1_556 S
N11 C15 1.388 . S
C12 N11 1.360 1_554 S
C12 C13 1.443 . S
C12 C39 1.389 . S
C13 C12 1.443 . S
C13 C14 1.340 1_554 S
C13 H45 0.951 . S
C14 C13 1.340 1_556 S
C14 C15 1.439 . S
C14 H46 0.950 . S
C15 N11 1.388 . S
C15 C14 1.439 . S
C15 C40 1.395 . S
N16 Co5 1.979 1_556 S
N16 C17 1.376 . S
N16 C20 1.383 . S
C17 N16 1.376 . S
C17 C18 1.446 . S
C17 C40 1.391 . S
C18 C17 1.446 . S
C18 C19 1.339 . S
C18 H47 0.949 . S
C19 C18 1.339 . S
C19 C20 1.439 . S
C19 H48 0.950 . S
C20 N16 1.383 . S
C20 C19 1.439 . S
C20 C38 1.392 1_455 S
N21 Co5 2.295 . S
N21 C24 1.332 . S
N21 C26 1.332 . S
C22 C23 1.386 . S
C22 C25 1.388 . S
C23 C22 1.386 . S
C23 C24 1.382 . S
C23 H49 0.950 . S
C24 N21 1.332 . S
C24 C23 1.382 . S
C24 H35 0.952 . S
C25 C22 1.388 . S
C25 C26 1.382 . S
C25 H50 0.950 . S
C26 N21 1.332 . S
C26 C25 1.382 . S
C26 H36 0.948 . S
N27 Co5 2.270 1_556 S
N27 C31 1.332 1_455 S
N27 C32 1.332 . S
C28 C29 1.389 . S
C28 C32 1.382 1_655 S
C28 H51 0.949 1_655 S
C29 C28 1.389 . S
C29 C30 1.386 . S
C30 C29 1.386 . S
C30 C31 1.382 . S
C30 H52 0.950 . S
C31 N27 1.332 1_655 S
C31 C30 1.382 . S
C31 H33 0.989 . S
C32 N27 1.332 . S
C32 C28 1.382 1_455 S
C32 H34 0.948 . S
H33 C31 0.989 . S
H34 C32 0.948 . S
H35 C24 0.952 . S
H36 C26 0.948 . S
C37 C3 1.395 . S
C37 C7 1.391 . S
C38 C0 1.389 . S
C38 C20 1.392 1_655 S
C39 C10 1.392 . S
C39 C12 1.389 . S
C40 C15 1.395 . S
C40 C17 1.391 . S
H41 C1 0.951 . S
H42 C2 0.950 . S
H43 C8 0.949 . S
H44 C9 0.950 . S
H45 C13 0.951 . S
H46 C14 0.950 . S
H47 C18 0.949 . S
H48 C19 0.950 . S
H49 C23 0.950 . S
H50 C25 0.950 . S
H51 C28 0.949 1_455 S
H52 C30 0.950 . S
C53 C54 1.443 . S
C53 N57 1.376 1_545 S
C53 C91 1.389 . S
C54 C53 1.443 . S
C54 C55 1.340 1_545 S
C54 H94 0.951 . S
C55 C54 1.340 1_565 S
C55 C56 1.439 . S
C55 H95 0.950 . S
C56 C55 1.439 . S
C56 N57 1.374 . S
C56 C90 1.395 . S
N57 C53 1.376 1_565 S
N57 C56 1.374 . S
N57 Co58 2.008 1_565 S
Co58 N57 2.008 1_545 S
Co58 N59 1.995 1_545 S
Co58 N64 2.008 . S
Co58 N69 1.995 . S
Co58 N74 2.282 1_545 S
Co58 N80 2.282 . S
N59 Co58 1.995 1_565 S
N59 C60 1.376 . S
N59 C63 1.383 . S
C60 N59 1.376 . S
C60 C61 1.446 . S
C60 C90 1.391 . S
C61 C60 1.446 . S
C61 C62 1.339 . S
C61 H96 0.949 . S
C62 C61 1.339 . S
C62 C63 1.439 . S
C62 H97 0.950 . S
C63 N59 1.383 . S
C63 C62 1.439 . S
C63 C92 1.392 . S
N64 Co58 2.008 . S
N64 C65 1.376 1_545 S
N64 C68 1.374 . S
C65 N64 1.376 1_565 S
C65 C66 1.443 1_565 S
C65 C92 1.389 . S
C66 C65 1.443 1_545 S
C66 C67 1.340 . S
C66 H98 0.951 1_545 S
C67 C66 1.340 . S
C67 C68 1.439 . S
C67 H99 0.950 . S
C68 N64 1.374 . S
C68 C67 1.439 . S
C68 C93 1.395 . S
N69 Co58 1.995 . S
N69 C70 1.376 . S
N69 C73 1.383 . S
C70 N69 1.376 . S
C70 C71 1.446 . S
C70 C93 1.391 . S
C71 C70 1.446 . S
C71 C72 1.339 . S
C71 H100 0.949 . S
C72 C71 1.339 . S
C72 C73 1.439 . S
C72 H101 0.950 . S
C73 N69 1.383 . S
C73 C72 1.439 . S
C73 C91 1.392 . S
N74 Co58 2.282 1_565 S
N74 C77 1.332 . S
N74 C79 1.332 . S
C75 C76 1.386 . S
C75 C78 1.388 . S
C76 C75 1.386 . S
C76 C77 1.382 . S
C76 H102 0.950 . S
C77 N74 1.332 . S
C77 C76 1.382 . S
C77 H88 0.952 1_565 S
C78 C75 1.388 . S
C78 C79 1.382 . S
C78 H103 0.950 . S
C79 N74 1.332 . S
C79 C78 1.382 . S
C79 H89 0.948 . S
N80 Co58 2.282 . S
N80 C84 1.332 . S
N80 C85 1.332 . S
C81 C82 1.388 . S
C81 C85 1.382 . S
C81 H104 0.950 . S
C82 C81 1.388 . S
C82 C83 1.386 . S
C83 C82 1.386 . S
C83 C84 1.382 . S
C83 H105 0.950 . S
C84 N80 1.332 . S
C84 C83 1.382 . S
C84 H86 0.952 1_545 S
C85 N80 1.332 . S
C85 C81 1.382 . S
C85 H87 0.948 . S
H86 C84 0.952 1_565 S
H87 C85 0.948 . S
H88 C77 0.952 1_545 S
H89 C79 0.948 . S
C90 C56 1.395 . S
C90 C60 1.391 . S
C91 C53 1.389 . S
C91 C73 1.392 . S
C92 C63 1.392 . S
C92 C65 1.389 . S
C93 C68 1.395 . S
C93 C70 1.391 . S
H94 C54 0.951 . S
H95 C55 0.950 . S
H96 C61 0.949 . S
H97 C62 0.950 . S
H98 C66 0.951 1_565 S
H99 C67 0.950 . S
H100 C71 0.949 . S
H101 C72 0.950 . S
H102 C76 0.950 . S
H103 C78 0.950 . S
H104 C81 0.950 . S
H105 C83 0.950 . S
C106 C107 1.443 . S
C106 N110 1.376 . S
C106 C144 1.389 . S
C107 C106 1.443 . S
C107 C108 1.340 . S
C107 H147 0.951 . S
C108 C107 1.340 . S
C108 C109 1.439 . S
C108 H148 0.950 . S
C109 C108 1.439 . S
C109 N110 1.374 . S
C109 C143 1.395 . S
N110 C106 1.376 . S
N110 C109 1.374 . S
N110 Co111 2.008 1_556 S
Co111 N110 2.008 1_554 S
Co111 N112 1.995 . S
Co111 N117 2.008 . S
Co111 N122 1.995 . S
Co111 N127 2.282 . S
Co111 N133 2.282 1_554 S
N112 Co111 1.995 . S
N112 C113 1.376 1_554 S
N112 C116 1.383 . S
C113 N112 1.376 1_556 S
C113 C114 1.446 . S
C113 C143 1.391 . S
C114 C113 1.446 . S
C114 C115 1.339 1_556 S
C114 H149 0.949 . S
C115 C114 1.339 1_554 S
C115 C116 1.439 . S
C115 H150 0.950 . S
C116 N112 1.383 . S
C116 C115 1.439 . S
C116 C145 1.392 . S
N117 Co111 2.008 . S
N117 C118 1.376 . S
N117 C121 1.374 . S
C118 N117 1.376 . S
C118 C119 1.443 . S
C118 C145 1.389 . S
C119 C118 1.443 . S
C119 C120 1.340 . S
C119 H151 0.951 . S
C120 C119 1.340 . S
C120 C121 1.439 . S
C120 H152 0.950 . S
C121 N117 1.374 . S
C121 C120 1.439 . S
C121 C146 1.395 . S
N122 Co111 1.995 . S
N122 C123 1.376 . S
N122 C126 1.351 1_554 S
C123 N122 1.376 . S
C123 C124 1.446 . S
C123 C146 1.391 . S
C124 C123 1.446 . S
C124 C125 1.339 . S
C124 H153 0.949 . S
C125 C124 1.339 . S
C125 C126 1.426 1_554 S
C125 H154 0.950 1_554 S
C126 N122 1.351 1_556 S
C126 C125 1.426 1_556 S
C126 C144 1.433 . S
N127 Co111 2.282 . S
N127 C130 1.332 . S
N127 C132 1.332 . S
C128 C129 1.386 . S
C128 C131 1.388 . S
C129 C128 1.386 . S
C129 C130 1.382 . S
C129 H155 0.950 . S
C130 N127 1.332 . S
C130 C129 1.382 . S
C130 H141 0.952 . S
C131 C128 1.388 . S
C131 C132 1.382 . S
C131 H156 0.950 . S
C132 N127 1.332 . S
C132 C131 1.382 . S
C132 H142 0.948 . S
N133 Co111 2.282 1_556 S
N133 C137 1.332 . S
N133 C138 1.332 . S
C134 C135 1.388 . S
C134 C138 1.382 . S
C134 H157 0.950 . S
C135 C134 1.388 . S
C135 C136 1.386 . S
C136 C135 1.386 . S
C136 C137 1.382 . S
C136 H158 0.950 . S
C137 N133 1.332 . S
C137 C136 1.382 . S
C137 H139 0.952 . S
C138 N133 1.332 . S
C138 C134 1.382 . S
C138 H140 0.948 1_556 S
H139 C137 0.952 . S
H140 C138 0.948 1_554 S
H141 C130 0.952 . S
H142 C132 0.948 . S
C143 C109 1.395 . S
C143 C113 1.391 . S
C144 C106 1.389 . S
C144 C126 1.433 . S
C145 C116 1.392 . S
C145 C118 1.389 . S
C146 C121 1.395 . S
C146 C123 1.391 . S
H147 C107 0.951 . S
H148 C108 0.950 . S
H149 C114 0.949 . S
H150 C115 0.950 . S
H151 C119 0.951 . S
H152 C120 0.950 . S
H153 C124 0.949 . S
H154 C125 0.950 1_556 S
H155 C129 0.950 . S
H156 C131 0.950 . S
H157 C134 0.950 . S
H158 C136 0.950 . S
C159 C160 1.443 . S
C159 N163 1.376 . S
C159 C197 1.389 . S
C160 C159 1.443 . S
C160 C161 1.340 . S
C160 H200 0.951 . S
C161 C160 1.340 . S
C161 C162 1.439 . S
C161 H201 0.950 . S
C162 C161 1.439 . S
C162 N163 1.374 . S
C162 C196 1.395 . S
N163 C159 1.376 . S
N163 C162 1.374 . S
N163 Co164 2.008 1_655 S
Co164 N163 2.008 1_455 S
Co164 N165 1.995 1_455 S
Co164 N170 2.008 . S
Co164 N175 1.995 . S
Co164 N180 2.282 . S
Co164 N186 2.282 1_455 S
N165 Co164 1.995 1_655 S
N165 C166 1.376 . S
N165 C169 1.383 1_655 S
C166 N165 1.376 . S
C166 C167 1.446 . S
C166 C196 1.391 . S
C167 C166 1.446 . S
C167 C168 1.369 . S
C167 H202 0.949 . S
C168 C167 1.369 . S
C168 C169 1.411 1_655 S
C168 H203 0.948 1_655 S
C169 N165 1.383 1_455 S
C169 C168 1.411 1_455 S
C169 C198 1.392 . S
N170 Co164 2.008 . S
N170 C171 1.376 . S
N170 C174 1.374 . S
C171 N170 1.376 . S
C171 C172 1.443 . S
C171 C198 1.389 . S
C172 C171 1.443 . S
C172 C173 1.340 . S
C172 H204 0.951 . S
C173 C172 1.340 . S
C173 C174 1.439 . S
C173 H205 0.950 . S
C174 N170 1.374 . S
C174 C173 1.439 . S
C174 C199 1.395 . S
N175 Co164 1.995 . S
N175 C176 1.376 . S
N175 C179 1.383 1_455 S
C176 N175 1.376 . S
C176 C177 1.446 . S
C176 C199 1.391 . S
C177 C176 1.446 . S
C177 C178 1.339 . S
C177 H206 0.949 . S
C178 C177 1.339 . S
C178 C179 1.439 1_455 S
C178 H207 0.950 1_455 S
C179 N175 1.383 1_655 S
C179 C178 1.439 1_655 S
C179 C197 1.392 . S
N180 Co164 2.282 . S
N180 C183 1.332 . S
N180 C185 1.332 . S
C181 C182 1.386 . S
C181 C184 1.388 . S
C182 C181 1.386 . S
C182 C183 1.382 . S
C182 H208 0.950 . S
C183 N180 1.332 . S
C183 C182 1.382 . S
C183 H194 0.952 . S
C184 C181 1.388 . S
C184 C185 1.382 . S
C184 H209 0.950 . S
C185 N180 1.332 . S
C185 C184 1.382 . S
C185 H195 0.948 1_455 S
N186 Co164 2.282 1_655 S
N186 C190 1.332 . S
N186 C191 1.332 . S
C187 C188 1.388 . S
C187 C191 1.382 . S
C187 H210 0.950 . S
C188 C187 1.388 . S
C188 C189 1.386 . S
C189 C188 1.386 . S
C189 C190 1.382 . S
C189 H211 0.950 . S
C190 N186 1.332 . S
C190 C189 1.382 . S
C190 H192 0.952 . S
C191 N186 1.332 . S
C191 C187 1.382 . S
C191 H193 0.948 1_655 S
H192 C190 0.952 . S
H193 C191 0.948 1_455 S
H194 C183 0.952 . S
H195 C185 0.948 1_655 S
C196 C162 1.395 . S
C196 C166 1.391 . S
C197 C159 1.389 . S
C197 C179 1.392 . S
C198 C169 1.392 . S
C198 C171 1.389 . S
C199 C174 1.395 . S
C199 C176 1.391 . S
H200 C160 0.951 . S
H201 C161 0.950 . S
H202 C167 0.949 . S
H203 C168 0.948 1_455 S
H204 C172 0.951 . S
H205 C173 0.950 . S
H206 C177 0.949 . S
H207 C178 0.950 1_655 S
H208 C182 0.950 . S
H209 C184 0.950 . S
H210 C187 0.950 . S
H211 C189 0.950 . S
C212 C213 1.443 1_565 S
C212 N216 1.376 1_565 S
C212 C250 1.389 . S
C213 C212 1.443 1_545 S
C213 C214 1.340 . S
C213 H253 0.951 . S
C214 C213 1.340 . S
C214 C215 1.439 . S
C214 H254 0.950 . S
C215 C214 1.439 . S
C215 N216 1.374 . S
C215 C249 1.395 . S
N216 C212 1.376 1_545 S
N216 C215 1.374 . S
N216 Co217 2.008 . S
Co217 N216 2.008 . S
Co217 N218 1.995 . S
Co217 N223 1.988 1_544 S
Co217 N228 1.995 1_545 S
Co217 N233 2.282 1_554 S
Co217 N239 2.282 1_545 S
N218 Co217 1.995 . S
N218 C219 1.376 . S
N218 C222 1.383 1_554 S
C219 N218 1.376 . S
C219 C220 1.446 . S
C219 C249 1.391 . S
C220 C219 1.446 . S
C220 C221 1.344 . S
C220 H255 0.949 . S
C221 C220 1.344 . S
C221 C222 1.437 1_554 S
C221 H256 0.946 1_554 S
C222 N218 1.383 1_556 S
C222 C221 1.437 1_556 S
C222 C251 1.392 . S
N223 Co217 1.988 1_566 S
N223 C224 1.366 1_565 S
N223 C227 1.404 . S
C224 N223 1.366 1_545 S
C224 C225 1.443 . S
C224 C251 1.389 . S
C225 C224 1.443 . S
C225 C226 1.340 1_545 S
C225 H257 0.951 . S
C226 C225 1.340 1_565 S
C226 C227 1.439 . S
C226 H258 0.950 . S
C227 N223 1.404 . S
C227 C226 1.439 . S
C227 C252 1.395 . S
N228 Co217 1.995 1_565 S
N228 C229 1.376 1_554 S
N228 C232 1.383 . S
C229 N228 1.376 1_556 S
C229 C230 1.446 1_556 S
C229 C252 1.391 . S
C230 C229 1.446 1_554 S
C230 C231 1.339 . S
C230 H259 0.949 1_554 S
C231 C230 1.339 . S
C231 C232 1.439 . S
C231 H260 0.950 . S
C232 N228 1.383 . S
C232 C231 1.439 . S
C232 C250 1.392 . S
N233 Co217 2.282 1_556 S
N233 C236 1.332 . S
N233 C238 1.332 . S
C234 C235 1.386 . S
C234 C237 1.388 . S
C235 C234 1.386 . S
C235 C236 1.382 . S
C235 H261 0.950 . S
C236 N233 1.332 . S
C236 C235 1.382 . S
C236 H247 0.952 1_545 S
C237 C234 1.388 . S
C237 C238 1.382 . S
C237 H262 0.950 . S
C238 N233 1.332 . S
C238 C237 1.382 . S
C238 H248 0.948 1_556 S
N239 Co217 2.282 1_565 S
N239 C243 1.332 . S
N239 C244 1.332 . S
C240 C241 1.388 . S
C240 C244 1.382 . S
C240 H263 0.950 . S
C241 C240 1.388 . S
C241 C242 1.386 . S
C242 C241 1.386 . S
C242 C243 1.382 . S
C242 H264 0.950 . S
C243 N239 1.332 . S
C243 C242 1.382 . S
C243 H245 0.952 1_565 S
C244 N239 1.332 . S
C244 C240 1.382 . S
C244 H246 0.948 . S
H245 C243 0.952 1_545 S
H246 C244 0.948 . S
H247 C236 0.952 1_565 S
H248 C238 0.948 1_554 S
C249 C215 1.395 . S
C249 C219 1.391 . S
C250 C212 1.389 . S
C250 C232 1.392 . S
C251 C222 1.392 . S
C251 C224 1.389 . S
C252 C227 1.395 . S
C252 C229 1.391 . S
H253 C213 0.951 . S
H254 C214 0.950 . S
H255 C220 0.949 . S
H256 C221 0.946 1_556 S
H257 C225 0.951 . S
H258 C226 0.950 . S
H259 C230 0.949 1_556 S
H260 C231 0.950 . S
H261 C235 0.950 . S
H262 C237 0.950 . S
H263 C240 0.950 . S
H264 C242 0.950 . S
C265 C266 1.443 . S
C265 N269 1.376 . S
C265 C303 1.389 . S
C266 C265 1.443 . S
C266 C267 1.340 . S
C266 H306 0.951 . S
C267 C266 1.340 . S
C267 C268 1.439 . S
C267 H307 0.950 . S
C268 C267 1.439 . S
C268 N269 1.374 . S
C268 C302 1.395 . S
N269 C265 1.376 . S
N269 C268 1.374 . S
N269 Co270 2.008 . S
Co270 N269 2.008 . S
Co270 N271 1.995 . S
Co270 N276 2.008 . S
Co270 N281 1.995 . S
Co270 N286 2.282 . S
Co270 N292 2.282 . S
N271 Co270 1.995 . S
N271 C272 1.376 . S
N271 C275 1.383 . S
C272 N271 1.376 . S
C272 C273 1.446 . S
C272 C302 1.391 . S
C273 C272 1.446 . S
C273 C274 1.339 . S
C273 H308 0.949 . S
C274 C273 1.339 . S
C274 C275 1.439 . S
C274 H309 0.950 . S
C275 N271 1.383 . S
C275 C274 1.439 . S
C275 C304 1.392 . S
N276 Co270 2.008 . S
N276 C277 1.376 . S
N276 C280 1.374 . S
C277 N276 1.376 . S
C277 C278 1.443 . S
C277 C304 1.389 . S
C278 C277 1.443 . S
C278 C279 1.340 . S
C278 H310 0.951 . S
C279 C278 1.340 . S
C279 C280 1.439 . S
C279 H311 0.950 . S
C280 N276 1.374 . S
C280 C279 1.439 . S
C280 C305 1.395 . S
N281 Co270 1.995 . S
N281 C282 1.376 . S
N281 C285 1.383 . S
C282 N281 1.376 . S
C282 C283 1.446 . S
C282 C305 1.391 . S
C283 C282 1.446 . S
C283 C284 1.339 . S
C283 H312 0.949 . S
C284 C283 1.339 . S
C284 C285 1.439 . S
C284 H313 0.950 . S
C285 N281 1.383 . S
C285 C284 1.439 . S
C285 C303 1.392 . S
N286 Co270 2.282 . S
N286 C289 1.332 . S
N286 C291 1.332 . S
C287 C288 1.386 . S
C287 C290 1.388 . S
C288 C287 1.386 . S
C288 C289 1.382 . S
C288 H314 0.950 . S
C289 N286 1.332 . S
C289 C288 1.382 . S
C289 H300 0.952 . S
C290 C287 1.388 . S
C290 C291 1.382 . S
C290 H315 0.950 . S
C291 N286 1.332 . S
C291 C290 1.382 . S
C291 H301 0.948 . S
N292 Co270 2.282 . S
N292 C296 1.332 . S
N292 C297 1.332 . S
C293 C294 1.388 . S
C293 C297 1.382 . S
C293 H316 0.950 . S
C294 C293 1.388 . S
C294 C295 1.386 . S
C295 C294 1.386 . S
C295 C296 1.382 . S
C295 H317 0.950 . S
C296 N292 1.332 . S
C296 C295 1.382 . S
C296 H298 0.952 . S
C297 N292 1.332 . S
C297 C293 1.382 . S
C297 H299 0.948 . S
H298 C296 0.952 . S
H299 C297 0.948 . S
H300 C289 0.952 . S
H301 C291 0.948 . S
C302 C268 1.395 . S
C302 C272 1.391 . S
C303 C265 1.389 . S
C303 C285 1.392 . S
C304 C275 1.392 . S
C304 C277 1.389 . S
C305 C280 1.395 . S
C305 C282 1.391 . S
H306 C266 0.951 . S
H307 C267 0.950 . S
H308 C273 0.949 . S
H309 C274 0.950 . S
H310 C278 0.951 . S
H311 C279 0.950 . S
H312 C283 0.949 . S
H313 C284 0.950 . S
H314 C288 0.950 . S
H315 C290 0.950 . S
H316 C293 0.950 . S
H317 C295 0.950 . S
C318 C319 1.560 . S
C318 H379 0.959 . S
C318 H380 0.959 . S
C318 H381 0.960 . S
C319 C318 1.560 . S
C319 O374 1.426 . S
C319 H378 0.980 . S
C320 C321 1.407 . S
C320 C325 1.418 . S
C320 O374 1.334 . S
C321 C320 1.407 . S
C321 C322 1.360 . S
C321 H382 0.929 . S
C322 C321 1.360 . S
C322 C323 1.401 . S
C322 C326 1.527 . S
C323 C322 1.401 . S
C323 C324 1.405 . S
C323 C356 1.587 . S
C324 C323 1.405 . S
C324 C325 1.332 . S
C324 C327 1.496 . S
C325 C320 1.418 . S
C325 C324 1.332 . S
C325 H383 0.929 . S
C326 C322 1.527 . S
C326 H384 0.959 . S
C326 H385 0.961 . S
C326 H386 0.961 . S
C327 C324 1.496 . S
C327 H387 0.960 . S
C327 H388 0.960 . S
C327 H389 0.961 . S
C328 C329 1.517 . S
C328 H391 0.961 . S
C328 H392 0.960 . S
C328 H393 0.959 . S
C329 C328 1.517 . S
C329 O377 1.468 . S
C329 H390 0.980 . S
C330 C331 1.349 . S
C330 C335 1.367 . S
C330 O377 1.408 . S
C331 C330 1.349 . S
C331 C332 1.407 . S
C331 H394 0.930 . S
C332 C331 1.407 . S
C332 C333 1.449 . S
C332 C336 1.535 . S
C333 C332 1.449 . S
C333 C334 1.384 . S
C333 C358 1.553 . S
C334 C333 1.384 . S
C334 C335 1.364 . S
C334 C337 1.450 . S
C335 C330 1.367 . S
C335 C334 1.364 . S
C335 H395 0.931 . S
C336 C332 1.535 . S
C336 H396 0.959 . S
C336 H397 0.961 . S
C336 H398 0.959 . S
C337 C334 1.450 . S
C337 H399 0.960 . S
C337 H400 0.960 . S
C337 H401 0.960 . S
C338 C339 1.309 . S
C338 C343 1.304 . S
C338 O376 1.435 . S
C339 C338 1.309 . S
C339 C340 1.476 . S
C339 H403 0.930 . S
C340 C339 1.476 . S
C340 C341 1.400 . S
C340 C344 1.567 . S
C341 C340 1.400 . S
C341 C342 1.373 . S
C341 C363 1.432 . S
C342 C341 1.373 . S
C342 C343 1.339 . S
C342 C345 1.530 . S
C343 C338 1.304 . S
C343 C342 1.339 . S
C343 H404 0.930 . S
C344 C340 1.567 . S
C344 H405 0.961 . S
C344 H406 0.960 . S
C344 H407 0.958 . S
C345 C342 1.530 . S
C345 H408 0.961 . S
C345 H409 0.960 . S
C345 H410 0.960 . S
C346 C347 1.530 . S
C346 H412 0.961 . S
C346 H413 0.961 . S
C346 H414 0.959 . S
C347 C346 1.530 . S
C347 O375 1.412 . S
C347 H411 0.980 . S
C348 C349 1.288 . S
C348 C353 1.377 . S
C348 O375 1.393 . S
C349 C348 1.288 . S
C349 C350 1.369 . S
C349 H415 0.932 . S
C350 C349 1.369 . S
C350 C351 1.398 . S
C350 C354 1.527 . S
C351 C350 1.398 . S
C351 C352 1.380 . S
C351 C365 1.497 . S
C352 C351 1.380 . S
C352 C353 1.383 . S
C352 C355 1.603 . S
C353 C348 1.377 . S
C353 C352 1.383 . S
C353 H416 0.929 . S
C354 C350 1.527 . S
C354 H417 0.961 . S
C354 H418 0.959 . S
C354 H419 0.959 . S
C355 C352 1.603 . S
C355 H420 0.960 . S
C355 H421 0.962 . S
C355 H422 0.961 . S
C356 C323 1.587 . S
C356 C357 1.360 . S
C356 C369 1.412 . S
C357 C356 1.360 . S
C357 C358 1.365 . S
C357 H423 0.929 . S
C358 C333 1.553 . S
C358 C357 1.365 . S
C358 C359 1.404 . S
C359 C358 1.404 . S
C359 C360 1.395 . S
C359 C370 1.451 . S
C360 C359 1.395 . S
C360 C361 1.322 . S
C360 H424 0.930 . S
C361 C360 1.322 . S
C361 C362 1.459 . S
C361 H425 0.929 . S
C362 C361 1.459 . S
C362 C363 1.445 . S
C362 C371 1.395 . S
C363 C341 1.432 . S
C363 C362 1.445 . S
C363 C364 1.370 . S
C364 C363 1.370 . S
C364 C365 1.438 . S
C364 H426 0.930 . S
C365 C351 1.497 . S
C365 C364 1.438 . S
C365 C366 1.360 . S
C366 C365 1.360 . S
C366 C367 1.401 . S
C366 C371 1.446 . S
C367 C366 1.401 . S
C367 C368 1.347 . S
C367 H427 0.929 . S
C368 C367 1.347 . S
C368 C369 1.455 . S
C368 H428 0.930 . S
C369 C356 1.412 . S
C369 C368 1.455 . S
C369 C370 1.331 . S
C370 C359 1.451 . S
C370 C369 1.331 . S
C370 C371 1.497 . S
C371 C362 1.395 . S
C371 C366 1.446 . S
C371 C370 1.497 . S
C372 C373 1.582 . S
C372 H429 0.962 . S
C372 H430 0.959 . S
C372 H431 0.958 . S
C373 C372 1.582 . S
C373 O376 1.458 . S
C373 H402 0.980 . S
O374 C319 1.426 . S
O374 C320 1.334 . S
O375 C347 1.412 . S
O375 C348 1.393 . S
O376 C338 1.435 . S
O376 C373 1.458 . S
O377 C329 1.468 . S
O377 C330 1.408 . S
H378 C319 0.980 . S
H379 C318 0.959 . S
H380 C318 0.959 . S
H381 C318 0.960 . S
H382 C321 0.929 . S
H383 C325 0.929 . S
H384 C326 0.959 . S
H385 C326 0.961 . S
H386 C326 0.961 . S
H387 C327 0.960 . S
H388 C327 0.960 . S
H389 C327 0.961 . S
H390 C329 0.980 . S
H391 C328 0.961 . S
H392 C328 0.960 . S
H393 C328 0.959 . S
H394 C331 0.930 . S
H395 C335 0.931 . S
H396 C336 0.959 . S
H397 C336 0.961 . S
H398 C336 0.959 . S
H399 C337 0.960 . S
H400 C337 0.960 . S
H401 C337 0.960 . S
H402 C373 0.980 . S
H403 C339 0.930 . S
H404 C343 0.930 . S
H405 C344 0.961 . S
H406 C344 0.960 . S
H407 C344 0.958 . S
H408 C345 0.961 . S
H409 C345 0.960 . S
H410 C345 0.960 . S
H411 C347 0.980 . S
H412 C346 0.961 . S
H413 C346 0.961 . S
H414 C346 0.959 . S
H415 C349 0.932 . S
H416 C353 0.929 . S
H417 C354 0.961 . S
H418 C354 0.959 . S
H419 C354 0.959 . S
H420 C355 0.960 . S
H421 C355 0.962 . S
H422 C355 0.961 . S
H423 C357 0.929 . S
H424 C360 0.930 . S
H425 C361 0.929 . S
H426 C364 0.930 . S
H427 C367 0.929 . S
H428 C368 0.930 . S
H429 C372 0.962 . S
H430 C372 0.959 . S
H431 C372 0.958 . S
C432 C433 1.560 . S
C432 H493 0.959 . S
C432 H494 0.959 . S
C432 H495 0.960 . S
C433 C432 1.560 . S
C433 O488 1.426 . S
C433 H492 0.980 . S
C434 C435 1.407 . S
C434 C439 1.418 . S
C434 O488 1.334 . S
C435 C434 1.407 . S
C435 C436 1.360 . S
C435 H496 0.929 . S
C436 C435 1.360 . S
C436 C437 1.401 . S
C436 C440 1.527 . S
C437 C436 1.401 . S
C437 C438 1.405 . S
C437 C470 1.587 . S
C438 C437 1.405 . S
C438 C439 1.332 . S
C438 C441 1.496 . S
C439 C434 1.418 . S
C439 C438 1.332 . S
C439 H497 0.929 . S
C440 C436 1.527 . S
C440 H498 0.959 . S
C440 H499 0.961 . S
C440 H500 0.961 . S
C441 C438 1.496 . S
C441 H501 0.960 . S
C441 H502 0.960 . S
C441 H503 0.961 . S
C442 C443 1.517 . S
C442 H505 0.961 . S
C442 H506 0.960 . S
C442 H507 0.959 . S
C443 C442 1.517 . S
C443 O491 1.468 . S
C443 H504 0.980 . S
C444 C445 1.349 . S
C444 C449 1.367 . S
C444 O491 1.408 . S
C445 C444 1.349 . S
C445 C446 1.407 . S
C445 H508 0.930 . S
C446 C445 1.407 . S
C446 C447 1.449 . S
C446 C450 1.535 . S
C447 C446 1.449 . S
C447 C448 1.384 . S
C447 C472 1.553 . S
C448 C447 1.384 . S
C448 C449 1.364 . S
C448 C451 1.450 . S
C449 C444 1.367 . S
C449 C448 1.364 . S
C449 H509 0.931 . S
C450 C446 1.535 . S
C450 H510 0.959 . S
C450 H511 0.961 . S
C450 H512 0.959 . S
C451 C448 1.450 . S
C451 H513 0.960 . S
C451 H514 0.960 . S
C451 H515 0.960 . S
C452 C453 1.309 . S
C452 C457 1.304 . S
C452 O490 1.435 . S
C453 C452 1.309 . S
C453 C454 1.476 . S
C453 H517 0.930 . S
C454 C453 1.476 . S
C454 C455 1.400 . S
C454 C458 1.567 . S
C455 C454 1.400 . S
C455 C456 1.373 . S
C455 C477 1.432 . S
C456 C455 1.373 . S
C456 C457 1.339 . S
C456 C459 1.530 . S
C457 C452 1.304 . S
C457 C456 1.339 . S
C457 H518 0.930 . S
C458 C454 1.567 . S
C458 H519 0.961 . S
C458 H520 0.960 . S
C458 H521 0.958 . S
C459 C456 1.530 . S
C459 H522 0.961 . S
C459 H523 0.960 . S
C459 H524 0.960 . S
C460 C461 1.530 . S
C460 H526 0.961 . S
C460 H527 0.961 . S
C460 H528 0.959 . S
C461 C460 1.530 . S
C461 O489 1.412 . S
C461 H525 0.980 . S
C462 C463 1.288 . S
C462 C467 1.377 . S
C462 O489 1.393 . S
C463 C462 1.288 . S
C463 C464 1.369 . S
C463 H529 0.932 . S
C464 C463 1.369 . S
C464 C465 1.398 . S
C464 C468 1.527 . S
C465 C464 1.398 . S
C465 C466 1.380 . S
C465 C479 1.497 . S
C466 C465 1.380 . S
C466 C467 1.383 . S
C466 C469 1.603 . S
C467 C462 1.377 . S
C467 C466 1.383 . S
C467 H530 0.929 . S
C468 C464 1.527 . S
C468 H531 0.961 . S
C468 H532 0.959 . S
C468 H533 0.959 . S
C469 C466 1.603 . S
C469 H534 0.960 . S
C469 H535 0.962 . S
C469 H536 0.961 . S
C470 C437 1.587 . S
C470 C471 1.360 . S
C470 C483 1.412 . S
C471 C470 1.360 . S
C471 C472 1.365 . S
C471 H537 0.929 . S
C472 C447 1.553 . S
C472 C471 1.365 . S
C472 C473 1.404 . S
C473 C472 1.404 . S
C473 C474 1.395 . S
C473 C484 1.451 . S
C474 C473 1.395 . S
C474 C475 1.322 . S
C474 H538 0.930 . S
C475 C474 1.322 . S
C475 C476 1.459 . S
C475 H539 0.929 . S
C476 C475 1.459 . S
C476 C477 1.445 . S
C476 C485 1.395 . S
C477 C455 1.432 . S
C477 C476 1.445 . S
C477 C478 1.370 . S
C478 C477 1.370 . S
C478 C479 1.438 . S
C478 H540 0.930 . S
C479 C465 1.497 . S
C479 C478 1.438 . S
C479 C480 1.360 . S
C480 C479 1.360 . S
C480 C481 1.401 . S
C480 C485 1.446 . S
C481 C480 1.401 . S
C481 C482 1.347 . S
C481 H541 0.929 . S
C482 C481 1.347 . S
C482 C483 1.455 . S
C482 H542 0.930 . S
C483 C470 1.412 . S
C483 C482 1.455 . S
C483 C484 1.331 . S
C484 C473 1.451 . S
C484 C483 1.331 . S
C484 C485 1.497 . S
C485 C476 1.395 . S
C485 C480 1.446 . S
C485 C484 1.497 . S
C486 C487 1.582 . S
C486 H543 0.962 . S
C486 H544 0.959 . S
C486 H545 0.958 . S
C487 C486 1.582 . S
C487 O490 1.458 . S
C487 H516 0.980 . S
O488 C433 1.426 . S
O488 C434 1.334 . S
O489 C461 1.412 . S
O489 C462 1.393 . S
O490 C452 1.435 . S
O490 C487 1.458 . S
O491 C443 1.468 . S
O491 C444 1.408 . S
H492 C433 0.980 . S
H493 C432 0.959 . S
H494 C432 0.959 . S
H495 C432 0.960 . S
H496 C435 0.929 . S
H497 C439 0.929 . S
H498 C440 0.959 . S
H499 C440 0.961 . S
H500 C440 0.961 . S
H501 C441 0.960 . S
H502 C441 0.960 . S
H503 C441 0.961 . S
H504 C443 0.980 . S
H505 C442 0.961 . S
H506 C442 0.960 . S
H507 C442 0.959 . S
H508 C445 0.930 . S
H509 C449 0.931 . S
H510 C450 0.959 . S
H511 C450 0.961 . S
H512 C450 0.959 . S
H513 C451 0.960 . S
H514 C451 0.960 . S
H515 C451 0.960 . S
H516 C487 0.980 . S
H517 C453 0.930 . S
H518 C457 0.930 . S
H519 C458 0.961 . S
H520 C458 0.960 . S
H521 C458 0.958 . S
H522 C459 0.961 . S
H523 C459 0.960 . S
H524 C459 0.960 . S
H525 C461 0.980 . S
H526 C460 0.961 . S
H527 C460 0.961 . S
H528 C460 0.959 . S
H529 C463 0.932 . S
H530 C467 0.929 . S
H531 C468 0.961 . S
H532 C468 0.959 . S
H533 C468 0.959 . S
H534 C469 0.960 . S
H535 C469 0.962 . S
H536 C469 0.961 . S
H537 C471 0.929 . S
H538 C474 0.930 . S
H539 C475 0.929 . S
H540 C478 0.930 . S
H541 C481 0.929 . S
H542 C482 0.930 . S
H543 C486 0.962 . S
H544 C486 0.959 . S
H545 C486 0.958 . S
C546 C547 1.560 . S
C546 H607 0.959 . S
C546 H608 0.959 . S
C546 H609 0.960 . S
C547 C546 1.560 . S
C547 O602 1.426 . S
C547 H606 0.980 . S
C548 C549 1.407 . S
C548 C553 1.418 . S
C548 O602 1.334 . S
C549 C548 1.407 . S
C549 C550 1.360 . S
C549 H610 0.929 . S
C550 C549 1.360 . S
C550 C551 1.401 . S
C550 C554 1.527 . S
C551 C550 1.401 . S
C551 C552 1.405 . S
C551 C584 1.587 . S
C552 C551 1.405 . S
C552 C553 1.332 . S
C552 C555 1.496 . S
C553 C548 1.418 . S
C553 C552 1.332 . S
C553 H611 0.929 . S
C554 C550 1.527 . S
C554 H612 0.959 . S
C554 H613 0.961 . S
C554 H614 0.961 . S
C555 C552 1.496 . S
C555 H615 0.960 . S
C555 H616 0.960 . S
C555 H617 0.961 . S
C556 C557 1.517 . S
C556 H619 0.961 . S
C556 H620 0.960 . S
C556 H621 0.959 . S
C557 C556 1.517 . S
C557 O605 1.468 . S
C557 H618 0.980 . S
C558 C559 1.349 . S
C558 C563 1.367 . S
C558 O605 1.408 . S
C559 C558 1.349 . S
C559 C560 1.407 . S
C559 H622 0.930 . S
C560 C559 1.407 . S
C560 C561 1.449 . S
C560 C564 1.535 . S
C561 C560 1.449 . S
C561 C562 1.384 . S
C561 C586 1.553 . S
C562 C561 1.384 . S
C562 C563 1.364 . S
C562 C565 1.450 . S
C563 C558 1.367 . S
C563 C562 1.364 . S
C563 H623 0.931 . S
C564 C560 1.535 . S
C564 H624 0.959 . S
C564 H625 0.961 . S
C564 H626 0.959 . S
C565 C562 1.450 . S
C565 H627 0.960 . S
C565 H628 0.960 . S
C565 H629 0.960 . S
C566 C567 1.309 . S
C566 C571 1.304 . S
C566 O604 1.435 . S
C567 C566 1.309 . S
C567 C568 1.476 . S
C567 H631 0.930 . S
C568 C567 1.476 . S
C568 C569 1.400 . S
C568 C572 1.567 . S
C569 C568 1.400 . S
C569 C570 1.373 . S
C569 C591 1.432 . S
C570 C569 1.373 . S
C570 C571 1.339 . S
C570 C573 1.530 . S
C571 C566 1.304 . S
C571 C570 1.339 . S
C571 H632 0.930 . S
C572 C568 1.567 . S
C572 H633 0.961 . S
C572 H634 0.960 . S
C572 H635 0.958 . S
C573 C570 1.530 . S
C573 H636 0.961 . S
C573 H637 0.960 . S
C573 H638 0.960 . S
C574 C575 1.530 . S
C574 H640 0.961 . S
C574 H641 0.961 . S
C574 H642 0.959 . S
C575 C574 1.530 . S
C575 O603 1.412 . S
C575 H639 0.980 . S
C576 C577 1.288 . S
C576 C581 1.377 . S
C576 O603 1.393 . S
C577 C576 1.288 . S
C577 C578 1.369 . S
C577 H643 0.932 . S
C578 C577 1.369 . S
C578 C579 1.398 . S
C578 C582 1.527 . S
C579 C578 1.398 . S
C579 C580 1.380 . S
C579 C593 1.497 . S
C580 C579 1.380 . S
C580 C581 1.383 . S
C580 C583 1.603 . S
C581 C576 1.377 . S
C581 C580 1.383 . S
C581 H644 0.929 . S
C582 C578 1.527 . S
C582 H645 0.961 . S
C582 H646 0.959 . S
C582 H647 0.959 . S
C583 C580 1.603 . S
C583 H648 0.960 . S
C583 H649 0.962 . S
C583 H650 0.961 . S
C584 C551 1.587 . S
C584 C585 1.360 . S
C584 C597 1.412 . S
C585 C584 1.360 . S
C585 C586 1.365 . S
C585 H651 0.929 . S
C586 C561 1.553 . S
C586 C585 1.365 . S
C586 C587 1.404 . S
C587 C586 1.404 . S
C587 C588 1.395 . S
C587 C598 1.451 . S
C588 C587 1.395 . S
C588 C589 1.322 . S
C588 H652 0.930 . S
C589 C588 1.322 . S
C589 C590 1.459 . S
C589 H653 0.929 . S
C590 C589 1.459 . S
C590 C591 1.445 . S
C590 C599 1.395 . S
C591 C569 1.432 . S
C591 C590 1.445 . S
C591 C592 1.370 . S
C592 C591 1.370 . S
C592 C593 1.438 . S
C592 H654 0.930 . S
C593 C579 1.497 . S
C593 C592 1.438 . S
C593 C594 1.360 . S
C594 C593 1.360 . S
C594 C595 1.401 . S
C594 C599 1.446 . S
C595 C594 1.401 . S
C595 C596 1.347 . S
C595 H655 0.929 . S
C596 C595 1.347 . S
C596 C597 1.455 . S
C596 H656 0.930 . S
C597 C584 1.412 . S
C597 C596 1.455 . S
C597 C598 1.331 . S
C598 C587 1.451 . S
C598 C597 1.331 . S
C598 C599 1.497 . S
C599 C590 1.395 . S
C599 C594 1.446 . S
C599 C598 1.497 . S
C600 C601 1.582 . S
C600 H657 0.962 . S
C600 H658 0.959 . S
C600 H659 0.958 . S
C601 C600 1.582 . S
C601 O604 1.458 . S
C601 H630 0.980 . S
O602 C547 1.426 . S
O602 C548 1.334 . S
O603 C575 1.412 . S
O603 C576 1.393 . S
O604 C566 1.435 . S
O604 C601 1.458 . S
O605 C557 1.468 . S
O605 C558 1.408 . S
H606 C547 0.980 . S
H607 C546 0.959 . S
H608 C546 0.959 . S
H609 C546 0.960 . S
H610 C549 0.929 . S
H611 C553 0.929 . S
H612 C554 0.959 . S
H613 C554 0.961 . S
H614 C554 0.961 . S
H615 C555 0.960 . S
H616 C555 0.960 . S
H617 C555 0.961 . S
H618 C557 0.980 . S
H619 C556 0.961 . S
H620 C556 0.960 . S
H621 C556 0.959 . S
H622 C559 0.930 . S
H623 C563 0.931 . S
H624 C564 0.959 . S
H625 C564 0.961 . S
H626 C564 0.959 . S
H627 C565 0.960 . S
H628 C565 0.960 . S
H629 C565 0.960 . S
H630 C601 0.980 . S
H631 C567 0.930 . S
H632 C571 0.930 . S
H633 C572 0.961 . S
H634 C572 0.960 . S
H635 C572 0.958 . S
H636 C573 0.961 . S
H637 C573 0.960 . S
H638 C573 0.960 . S
H639 C575 0.980 . S
H640 C574 0.961 . S
H641 C574 0.961 . S
H642 C574 0.959 . S
H643 C577 0.932 . S
H644 C581 0.929 . S
H645 C582 0.961 . S
H646 C582 0.959 . S
H647 C582 0.959 . S
H648 C583 0.960 . S
H649 C583 0.962 . S
H650 C583 0.961 . S
H651 C585 0.929 . S
H652 C588 0.930 . S
H653 C589 0.929 . S
H654 C592 0.930 . S
H655 C595 0.929 . S
H656 C596 0.930 . S
H657 C600 0.962 . S
H658 C600 0.959 . S
H659 C600 0.958 . S
C660 C661 1.560 . S
C660 H721 0.959 . S
C660 H722 0.959 . S
C660 H723 0.960 . S
C661 C660 1.560 . S
C661 O716 1.426 . S
C661 H720 0.980 . S
C662 C663 1.407 . S
C662 C667 1.418 . S
C662 O716 1.334 . S
C663 C662 1.407 . S
C663 C664 1.360 . S
C663 H724 0.929 . S
C664 C663 1.360 . S
C664 C665 1.401 . S
C664 C668 1.527 . S
C665 C664 1.401 . S
C665 C666 1.405 . S
C665 C698 1.587 . S
C666 C665 1.405 . S
C666 C667 1.332 . S
C666 C669 1.496 . S
C667 C662 1.418 . S
C667 C666 1.332 . S
C667 H725 0.929 . S
C668 C664 1.527 . S
C668 H726 0.959 . S
C668 H727 0.961 . S
C668 H728 0.961 . S
C669 C666 1.496 . S
C669 H729 0.960 . S
C669 H730 0.960 . S
C669 H731 0.961 . S
C670 C671 1.517 . S
C670 H733 0.961 . S
C670 H734 0.960 . S
C670 H735 0.959 . S
C671 C670 1.517 . S
C671 O719 1.468 . S
C671 H732 0.980 . S
C672 C673 1.349 . S
C672 C677 1.367 . S
C672 O719 1.408 . S
C673 C672 1.349 . S
C673 C674 1.407 . S
C673 H736 0.930 . S
C674 C673 1.407 . S
C674 C675 1.449 . S
C674 C678 1.535 . S
C675 C674 1.449 . S
C675 C676 1.384 . S
C675 C700 1.553 . S
C676 C675 1.384 . S
C676 C677 1.364 . S
C676 C679 1.450 . S
C677 C672 1.367 . S
C677 C676 1.364 . S
C677 H737 0.931 . S
C678 C674 1.535 . S
C678 H738 0.959 . S
C678 H739 0.961 . S
C678 H740 0.959 . S
C679 C676 1.450 . S
C679 H741 0.960 . S
C679 H742 0.960 . S
C679 H743 0.960 . S
C680 C681 1.309 . S
C680 C685 1.304 . S
C680 O718 1.435 . S
C681 C680 1.309 . S
C681 C682 1.476 . S
C681 H745 0.930 . S
C682 C681 1.476 . S
C682 C683 1.400 . S
C682 C686 1.567 . S
C683 C682 1.400 . S
C683 C684 1.373 . S
C683 C705 1.432 . S
C684 C683 1.373 . S
C684 C685 1.339 . S
C684 C687 1.530 . S
C685 C680 1.304 . S
C685 C684 1.339 . S
C685 H746 0.930 . S
C686 C682 1.567 . S
C686 H747 0.961 . S
C686 H748 0.960 . S
C686 H749 0.958 . S
C687 C684 1.530 . S
C687 H750 0.961 . S
C687 H751 0.960 . S
C687 H752 0.960 . S
C688 C689 1.530 . S
C688 H754 0.961 . S
C688 H755 0.961 . S
C688 H756 0.959 . S
C689 C688 1.530 . S
C689 O717 1.412 . S
C689 H753 0.980 . S
C690 C691 1.288 . S
C690 C695 1.377 . S
C690 O717 1.393 . S
C691 C690 1.288 . S
C691 C692 1.369 . S
C691 H757 0.932 . S
C692 C691 1.369 . S
C692 C693 1.398 . S
C692 C696 1.527 . S
C693 C692 1.398 . S
C693 C694 1.380 . S
C693 C707 1.497 . S
C694 C693 1.380 . S
C694 C695 1.383 . S
C694 C697 1.603 . S
C695 C690 1.377 . S
C695 C694 1.383 . S
C695 H758 0.929 . S
C696 C692 1.527 . S
C696 H759 0.961 . S
C696 H760 0.959 . S
C696 H761 0.959 . S
C697 C694 1.603 . S
C697 H762 0.960 . S
C697 H763 0.962 . S
C697 H764 0.961 . S
C698 C665 1.587 . S
C698 C699 1.360 . S
C698 C711 1.412 . S
C699 C698 1.360 . S
C699 C700 1.365 . S
C699 H765 0.929 . S
C700 C675 1.553 . S
C700 C699 1.365 . S
C700 C701 1.404 . S
C701 C700 1.404 . S
C701 C702 1.395 . S
C701 C712 1.451 . S
C702 C701 1.395 . S
C702 C703 1.322 . S
C702 H766 0.930 . S
C703 C702 1.322 . S
C703 C704 1.459 . S
C703 H767 0.929 . S
C704 C703 1.459 . S
C704 C705 1.445 . S
C704 C713 1.395 . S
C705 C683 1.432 . S
C705 C704 1.445 . S
C705 C706 1.370 . S
C706 C705 1.370 . S
C706 C707 1.438 . S
C706 H768 0.930 . S
C707 C693 1.497 . S
C707 C706 1.438 . S
C707 C708 1.360 . S
C708 C707 1.360 . S
C708 C709 1.401 . S
C708 C713 1.446 . S
C709 C708 1.401 . S
C709 C710 1.347 . S
C709 H769 0.929 . S
C710 C709 1.347 . S
C710 C711 1.455 . S
C710 H770 0.930 . S
C711 C698 1.412 . S
C711 C710 1.455 . S
C711 C712 1.331 . S
C712 C701 1.451 . S
C712 C711 1.331 . S
C712 C713 1.497 . S
C713 C704 1.395 . S
C713 C708 1.446 . S
C713 C712 1.497 . S
C714 C715 1.582 . S
C714 H771 0.962 . S
C714 H772 0.959 . S
C714 H773 0.958 . S
C715 C714 1.582 . S
C715 O718 1.458 . S
C715 H744 0.980 . S
O716 C661 1.426 . S
O716 C662 1.334 . S
O717 C689 1.412 . S
O717 C690 1.393 . S
O718 C680 1.435 . S
O718 C715 1.458 . S
O719 C671 1.468 . S
O719 C672 1.408 . S
H720 C661 0.980 . S
H721 C660 0.959 . S
H722 C660 0.959 . S
H723 C660 0.960 . S
H724 C663 0.929 . S
H725 C667 0.929 . S
H726 C668 0.959 . S
H727 C668 0.961 . S
H728 C668 0.961 . S
H729 C669 0.960 . S
H730 C669 0.960 . S
H731 C669 0.961 . S
H732 C671 0.980 . S
H733 C670 0.961 . S
H734 C670 0.960 . S
H735 C670 0.959 . S
H736 C673 0.930 . S
H737 C677 0.931 . S
H738 C678 0.959 . S
H739 C678 0.961 . S
H740 C678 0.959 . S
H741 C679 0.960 . S
H742 C679 0.960 . S
H743 C679 0.960 . S
H744 C715 0.980 . S
H745 C681 0.930 . S
H746 C685 0.930 . S
H747 C686 0.961 . S
H748 C686 0.960 . S
H749 C686 0.958 . S
H750 C687 0.961 . S
H751 C687 0.960 . S
H752 C687 0.960 . S
H753 C689 0.980 . S
H754 C688 0.961 . S
H755 C688 0.961 . S
H756 C688 0.959 . S
H757 C691 0.932 . S
H758 C695 0.929 . S
H759 C696 0.961 . S
H760 C696 0.959 . S
H761 C696 0.959 . S
H762 C697 0.960 . S
H763 C697 0.962 . S
H764 C697 0.961 . S
H765 C699 0.929 . S
H766 C702 0.930 . S
H767 C703 0.929 . S
H768 C706 0.930 . S
H769 C709 0.929 . S
H770 C710 0.930 . S
H771 C714 0.962 . S
H772 C714 0.959 . S
H773 C714 0.958 . S
C774 C775 1.560 . S
C774 H835 0.959 . S
C774 H836 0.959 . S
C774 H837 0.960 . S
C775 C774 1.560 . S
C775 O830 1.426 . S
C775 H834 0.980 . S
C776 C777 1.407 . S
C776 C781 1.418 . S
C776 O830 1.334 . S
C777 C776 1.407 . S
C777 C778 1.360 . S
C777 H838 0.929 . S
C778 C777 1.360 . S
C778 C779 1.401 . S
C778 C782 1.527 . S
C779 C778 1.401 . S
C779 C780 1.405 . S
C779 C812 1.587 . S
C780 C779 1.405 . S
C780 C781 1.332 . S
C780 C783 1.496 . S
C781 C776 1.418 . S
C781 C780 1.332 . S
C781 H839 0.929 . S
C782 C778 1.527 . S
C782 H840 0.959 . S
C782 H841 0.961 . S
C782 H842 0.961 . S
C783 C780 1.496 . S
C783 H843 0.960 . S
C783 H844 0.960 . S
C783 H845 0.961 . S
C784 C785 1.517 . S
C784 H847 0.961 . S
C784 H848 0.960 . S
C784 H849 0.959 . S
C785 C784 1.517 . S
C785 O833 1.468 . S
C785 H846 0.980 . S
C786 C787 1.349 . S
C786 C791 1.367 . S
C786 O833 1.408 . S
C787 C786 1.349 . S
C787 C788 1.407 . S
C787 H850 0.930 . S
C788 C787 1.407 . S
C788 C789 1.449 . S
C788 C792 1.535 . S
C789 C788 1.449 . S
C789 C790 1.384 . S
C789 C814 1.553 . S
C790 C789 1.384 . S
C790 C791 1.364 . S
C790 C793 1.450 . S
C791 C786 1.367 . S
C791 C790 1.364 . S
C791 H851 0.931 . S
C792 C788 1.535 . S
C792 H852 0.959 . S
C792 H853 0.961 . S
C792 H854 0.959 . S
C793 C790 1.450 . S
C793 H855 0.960 . S
C793 H856 0.960 . S
C793 H857 0.960 . S
C794 C795 1.309 . S
C794 C799 1.304 . S
C794 O832 1.435 . S
C795 C794 1.309 . S
C795 C796 1.476 . S
C795 H859 0.930 . S
C796 C795 1.476 . S
C796 C797 1.400 . S
C796 C800 1.567 . S
C797 C796 1.400 . S
C797 C798 1.373 . S
C797 C819 1.432 . S
C798 C797 1.373 . S
C798 C799 1.339 . S
C798 C801 1.530 . S
C799 C794 1.304 . S
C799 C798 1.339 . S
C799 H860 0.930 . S
C800 C796 1.567 . S
C800 H861 0.961 . S
C800 H862 0.960 . S
C800 H863 0.958 . S
C801 C798 1.530 . S
C801 H864 0.961 . S
C801 H865 0.960 . S
C801 H866 0.960 . S
C802 C803 1.530 . S
C802 H868 0.961 . S
C802 H869 0.961 . S
C802 H870 0.959 . S
C803 C802 1.530 . S
C803 O831 1.412 . S
C803 H867 0.980 . S
C804 C805 1.288 . S
C804 C809 1.377 . S
C804 O831 1.393 . S
C805 C804 1.288 . S
C805 C806 1.369 . S
C805 H871 0.932 . S
C806 C805 1.369 . S
C806 C807 1.398 . S
C806 C810 1.527 . S
C807 C806 1.398 . S
C807 C808 1.380 . S
C807 C821 1.497 . S
C808 C807 1.380 . S
C808 C809 1.383 . S
C808 C811 1.603 . S
C809 C804 1.377 . S
C809 C808 1.383 . S
C809 H872 0.929 . S
C810 C806 1.527 . S
C810 H873 0.961 . S
C810 H874 0.959 . S
C810 H875 0.959 . S
C811 C808 1.603 . S
C811 H876 0.960 . S
C811 H877 0.962 . S
C811 H878 0.961 . S
C812 C779 1.587 . S
C812 C813 1.360 . S
C812 C825 1.412 . S
C813 C812 1.360 . S
C813 C814 1.365 . S
C813 H879 0.929 . S
C814 C789 1.553 . S
C814 C813 1.365 . S
C814 C815 1.404 . S
C815 C814 1.404 . S
C815 C816 1.395 . S
C815 C826 1.451 . S
C816 C815 1.395 . S
C816 C817 1.322 . S
C816 H880 0.930 . S
C817 C816 1.322 . S
C817 C818 1.459 . S
C817 H881 0.929 . S
C818 C817 1.459 . S
C818 C819 1.445 . S
C818 C827 1.395 . S
C819 C797 1.432 . S
C819 C818 1.445 . S
C819 C820 1.370 . S
C820 C819 1.370 . S
C820 C821 1.438 . S
C820 H882 0.930 . S
C821 C807 1.497 . S
C821 C820 1.438 . S
C821 C822 1.360 . S
C822 C821 1.360 . S
C822 C823 1.401 . S
C822 C827 1.446 . S
C823 C822 1.401 . S
C823 C824 1.347 . S
C823 H883 0.929 . S
C824 C823 1.347 . S
C824 C825 1.455 . S
C824 H884 0.930 . S
C825 C812 1.412 . S
C825 C824 1.455 . S
C825 C826 1.331 . S
C826 C815 1.451 . S
C826 C825 1.331 . S
C826 C827 1.497 . S
C827 C818 1.395 . S
C827 C822 1.446 . S
C827 C826 1.497 . S
C828 C829 1.582 . S
C828 H885 0.962 . S
C828 H886 0.959 . S
C828 H887 0.958 . S
C829 C828 1.582 . S
C829 O832 1.458 . S
C829 H858 0.980 . S
O830 C775 1.426 . S
O830 C776 1.334 . S
O831 C803 1.412 . S
O831 C804 1.393 . S
O832 C794 1.435 . S
O832 C829 1.458 . S
O833 C785 1.468 . S
O833 C786 1.408 . S
H834 C775 0.980 . S
H835 C774 0.959 . S
H836 C774 0.959 . S
H837 C774 0.960 . S
H838 C777 0.929 . S
H839 C781 0.929 . S
H840 C782 0.959 . S
H841 C782 0.961 . S
H842 C782 0.961 . S
H843 C783 0.960 . S
H844 C783 0.960 . S
H845 C783 0.961 . S
H846 C785 0.980 . S
H847 C784 0.961 . S
H848 C784 0.960 . S
H849 C784 0.959 . S
H850 C787 0.930 . S
H851 C791 0.931 . S
H852 C792 0.959 . S
H853 C792 0.961 . S
H854 C792 0.959 . S
H855 C793 0.960 . S
H856 C793 0.960 . S
H857 C793 0.960 . S
H858 C829 0.980 . S
H859 C795 0.930 . S
H860 C799 0.930 . S
H861 C800 0.961 . S
H862 C800 0.960 . S
H863 C800 0.958 . S
H864 C801 0.961 . S
H865 C801 0.960 . S
H866 C801 0.960 . S
H867 C803 0.980 . S
H868 C802 0.961 . S
H869 C802 0.961 . S
H870 C802 0.959 . S
H871 C805 0.932 . S
H872 C809 0.929 . S
H873 C810 0.961 . S
H874 C810 0.959 . S
H875 C810 0.959 . S
H876 C811 0.960 . S
H877 C811 0.962 . S
H878 C811 0.961 . S
H879 C813 0.929 . S
H880 C816 0.930 . S
H881 C817 0.929 . S
H882 C820 0.930 . S
H883 C823 0.929 . S
H884 C824 0.930 . S
H885 C828 0.962 . S
H886 C828 0.959 . S
H887 C828 0.958 . S
C888 C889 1.560 . S
C888 H949 0.959 . S
C888 H950 0.959 . S
C888 H951 0.960 . S
C889 C888 1.560 . S
C889 O944 1.426 . S
C889 H948 0.980 . S
C890 C891 1.407 . S
C890 C895 1.418 . S
C890 O944 1.334 . S
C891 C890 1.407 . S
C891 C892 1.360 . S
C891 H952 0.929 . S
C892 C891 1.360 . S
C892 C893 1.401 . S
C892 C896 1.527 . S
C893 C892 1.401 . S
C893 C894 1.405 . S
C893 C926 1.587 . S
C894 C893 1.405 . S
C894 C895 1.332 . S
C894 C897 1.496 . S
C895 C890 1.418 . S
C895 C894 1.332 . S
C895 H953 0.929 . S
C896 C892 1.527 . S
C896 H954 0.959 . S
C896 H955 0.961 . S
C896 H956 0.961 . S
C897 C894 1.496 . S
C897 H957 0.960 . S
C897 H958 0.960 . S
C897 H959 0.961 . S
C898 C899 1.517 . S
C898 H961 0.961 . S
C898 H962 0.960 . S
C898 H963 0.959 . S
C899 C898 1.517 . S
C899 O947 1.468 . S
C899 H960 0.980 . S
C900 C901 1.349 . S
C900 C905 1.367 . S
C900 O947 1.408 . S
C901 C900 1.349 . S
C901 C902 1.407 . S
C901 H964 0.930 . S
C902 C901 1.407 . S
C902 C903 1.449 . S
C902 C906 1.535 . S
C903 C902 1.449 . S
C903 C904 1.384 . S
C903 C928 1.553 . S
C904 C903 1.384 . S
C904 C905 1.364 . S
C904 C907 1.450 . S
C905 C900 1.367 . S
C905 C904 1.364 . S
C905 H965 0.931 . S
C906 C902 1.535 . S
C906 H966 0.959 . S
C906 H967 0.961 . S
C906 H968 0.959 . S
C907 C904 1.450 . S
C907 H969 0.960 . S
C907 H970 0.960 . S
C907 H971 0.960 . S
C908 C909 1.309 . S
C908 C913 1.304 . S
C908 O946 1.435 . S
C909 C908 1.309 . S
C909 C910 1.476 . S
C909 H973 0.930 . S
C910 C909 1.476 . S
C910 C911 1.400 . S
C910 C914 1.567 . S
C911 C910 1.400 . S
C911 C912 1.373 . S
C911 C933 1.432 . S
C912 C911 1.373 . S
C912 C913 1.339 . S
C912 C915 1.530 . S
C913 C908 1.304 . S
C913 C912 1.339 . S
C913 H974 0.930 . S
C914 C910 1.567 . S
C914 H975 0.961 . S
C914 H976 0.960 . S
C914 H977 0.958 . S
C915 C912 1.530 . S
C915 H978 0.961 . S
C915 H979 0.960 . S
C915 H980 0.960 . S
C916 C917 1.530 . S
C916 H982 0.961 . S
C916 H983 0.961 . S
C916 H984 0.959 . S
C917 C916 1.530 . S
C917 O945 1.412 . S
C917 H981 0.980 . S
C918 C919 1.288 . S
C918 C923 1.377 . S
C918 O945 1.393 . S
C919 C918 1.288 . S
C919 C920 1.369 . S
C919 H985 0.932 . S
C920 C919 1.369 . S
C920 C921 1.398 . S
C920 C924 1.527 . S
C921 C920 1.398 . S
C921 C922 1.380 . S
C921 C935 1.497 . S
C922 C921 1.380 . S
C922 C923 1.383 . S
C922 C925 1.603 . S
C923 C918 1.377 . S
C923 C922 1.383 . S
C923 H986 0.929 . S
C924 C920 1.527 . S
C924 H987 0.961 . S
C924 H988 0.959 . S
C924 H989 0.959 . S
C925 C922 1.603 . S
C925 H990 0.960 . S
C925 H991 0.962 . S
C925 H992 0.961 . S
C926 C893 1.587 . S
C926 C927 1.360 . S
C926 C939 1.412 . S
C927 C926 1.360 . S
C927 C928 1.365 . S
C927 H993 0.929 . S
C928 C903 1.553 . S
C928 C927 1.365 . S
C928 C929 1.404 . S
C929 C928 1.404 . S
C929 C930 1.395 . S
C929 C940 1.451 . S
C930 C929 1.395 . S
C930 C931 1.322 . S
C930 H994 0.930 . S
C931 C930 1.322 . S
C931 C932 1.459 . S
C931 H995 0.929 . S
C932 C931 1.459 . S
C932 C933 1.445 . S
C932 C941 1.395 . S
C933 C911 1.432 . S
C933 C932 1.445 . S
C933 C934 1.370 . S
C934 C933 1.370 . S
C934 C935 1.438 . S
C934 H996 0.930 . S
C935 C921 1.497 . S
C935 C934 1.438 . S
C935 C936 1.360 . S
C936 C935 1.360 . S
C936 C937 1.401 . S
C936 C941 1.446 . S
C937 C936 1.401 . S
C937 C938 1.347 . S
C937 H997 0.929 . S
C938 C937 1.347 . S
C938 C939 1.455 . S
C938 H998 0.930 . S
C939 C926 1.412 . S
C939 C938 1.455 . S
C939 C940 1.331 . S
C940 C929 1.451 . S
C940 C939 1.331 . S
C940 C941 1.497 . S
C941 C932 1.395 . S
C941 C936 1.446 . S
C941 C940 1.497 . S
C942 C943 1.582 . S
C942 H999 0.962 . S
C942 H1000 0.959 . S
C942 H1001 0.958 . S
C943 C942 1.582 . S
C943 O946 1.458 . S
C943 H972 0.980 . S
O944 C889 1.426 . S
O944 C890 1.334 . S
O945 C917 1.412 . S
O945 C918 1.393 . S
O946 C908 1.435 . S
O946 C943 1.458 . S
O947 C899 1.468 . S
O947 C900 1.408 . S
H948 C889 0.980 . S
H949 C888 0.959 . S
H950 C888 0.959 . S
H951 C888 0.960 . S
H952 C891 0.929 . S
H953 C895 0.929 . S
H954 C896 0.959 . S
H955 C896 0.961 . S
H956 C896 0.961 . S
H957 C897 0.960 . S
H958 C897 0.960 . S
H959 C897 0.961 . S
H960 C899 0.980 . S
H961 C898 0.961 . S
H962 C898 0.960 . S
H963 C898 0.959 . S
H964 C901 0.930 . S
H965 C905 0.931 . S
H966 C906 0.959 . S
H967 C906 0.961 . S
H968 C906 0.959 . S
H969 C907 0.960 . S
H970 C907 0.960 . S
H971 C907 0.960 . S
H972 C943 0.980 . S
H973 C909 0.930 . S
H974 C913 0.930 . S
H975 C914 0.961 . S
H976 C914 0.960 . S
H977 C914 0.958 . S
H978 C915 0.961 . S
H979 C915 0.960 . S
H980 C915 0.960 . S
H981 C917 0.980 . S
H982 C916 0.961 . S
H983 C916 0.961 . S
H984 C916 0.959 . S
H985 C919 0.932 . S
H986 C923 0.929 . S
H987 C924 0.961 . S
H988 C924 0.959 . S
H989 C924 0.959 . S
H990 C925 0.960 . S
H991 C925 0.962 . S
H992 C925 0.961 . S
H993 C927 0.929 . S
H994 C930 0.930 . S
H995 C931 0.929 . S
H996 C934 0.930 . S
H997 C937 0.929 . S
H998 C938 0.930 . S
H999 C942 0.962 . S
H1000 C942 0.959 . S
H1001 C942 0.958 . S
C1002 C1003 1.391 . S
C1002 C1004 1.394 . S
C1002 H1018 0.931 . S
C1003 C1002 1.391 . S
C1003 C1007 1.376 . S
C1004 C1002 1.394 . S
C1004 C1005 1.369 . S
C1004 C1008 1.531 . S
C1005 C1004 1.369 . S
C1005 C1006 1.410 . S
C1005 C1013 1.503 . S
C1006 C1005 1.410 . S
C1006 C1007 1.392 . S
C1006 C1009 1.511 . S
C1007 C1003 1.376 . S
C1007 C1006 1.392 . S
C1007 H1019 0.929 . S
C1008 C1004 1.531 . S
C1008 H1020 0.960 . S
C1008 H1021 0.962 . S
C1008 H1022 0.960 . S
C1009 C1006 1.511 . S
C1009 H1023 0.961 . S
C1009 H1024 0.961 . S
C1009 H1025 0.961 . S
C1010 C1011 1.370 . S
C1010 C1012 1.363 . S
C1010 H1026 0.931 . S
C1011 C1010 1.370 . S
C1011 C1015 1.408 . S
C1012 C1010 1.363 . S
C1012 C1013 1.370 . S
C1012 C1016 1.524 . S
C1013 C1005 1.503 . S
C1013 C1012 1.370 . S
C1013 C1014 1.403 . S
C1014 C1013 1.403 . S
C1014 C1015 1.404 . S
C1014 C1017 1.539 . S
C1015 C1011 1.408 . S
C1015 C1014 1.404 . S
C1015 H1027 0.930 . S
C1016 C1012 1.524 . S
C1016 H1028 0.956 . S
C1016 H1029 0.961 . S
C1016 H1030 0.961 . S
C1017 C1014 1.539 . S
C1017 H1031 0.958 . S
C1017 H1032 0.961 . S
C1017 H1033 0.960 . S
H1018 C1002 0.931 . S
H1019 C1007 0.929 . S
H1020 C1008 0.960 . S
H1021 C1008 0.962 . S
H1022 C1008 0.960 . S
H1023 C1009 0.961 . S
H1024 C1009 0.961 . S
H1025 C1009 0.961 . S
H1026 C1010 0.931 . S
H1027 C1015 0.930 . S
H1028 C1016 0.956 . S
H1029 C1016 0.961 . S
H1030 C1016 0.961 . S
H1031 C1017 0.958 . S
H1032 C1017 0.961 . S
H1033 C1017 0.960 . S
C1034 C1035 1.391 . S
C1034 C1036 1.394 . S
C1034 H1050 0.931 . S
C1035 C1034 1.391 . S
C1035 C1039 1.376 . S
C1036 C1034 1.394 . S
C1036 C1037 1.369 . S
C1036 C1040 1.531 . S
C1037 C1036 1.369 . S
C1037 C1038 1.410 . S
C1037 C1045 1.503 . S
C1038 C1037 1.410 . S
C1038 C1039 1.392 . S
C1038 C1041 1.511 . S
C1039 C1035 1.376 . S
C1039 C1038 1.392 . S
C1039 H1051 0.929 . S
C1040 C1036 1.531 . S
C1040 H1052 0.960 . S
C1040 H1053 0.962 . S
C1040 H1054 0.960 . S
C1041 C1038 1.511 . S
C1041 H1055 0.961 . S
C1041 H1056 0.961 . S
C1041 H1057 0.961 . S
C1042 C1043 1.370 . S
C1042 C1044 1.363 . S
C1042 H1058 0.931 . S
C1043 C1042 1.370 . S
C1043 C1047 1.408 . S
C1044 C1042 1.363 . S
C1044 C1045 1.370 . S
C1044 C1048 1.524 . S
C1045 C1037 1.503 . S
C1045 C1044 1.370 . S
C1045 C1046 1.403 . S
C1046 C1045 1.403 . S
C1046 C1047 1.404 . S
C1046 C1049 1.539 . S
C1047 C1043 1.408 . S
C1047 C1046 1.404 . S
C1047 H1059 0.930 . S
C1048 C1044 1.524 . S
C1048 H1060 0.956 . S
C1048 H1061 0.961 . S
C1048 H1062 0.961 . S
C1049 C1046 1.539 . S
C1049 H1063 0.958 . S
C1049 H1064 0.961 . S
C1049 H1065 0.960 . S
H1050 C1034 0.931 . S
H1051 C1039 0.929 . S
H1052 C1040 0.960 . S
H1053 C1040 0.962 . S
H1054 C1040 0.960 . S
H1055 C1041 0.961 . S
H1056 C1041 0.961 . S
H1057 C1041 0.961 . S
H1058 C1042 0.931 . S
H1059 C1047 0.930 . S
H1060 C1048 0.956 . S
H1061 C1048 0.961 . S
H1062 C1048 0.961 . S
H1063 C1049 0.958 . S
H1064 C1049 0.961 . S
H1065 C1049 0.960 . S
C1066 C1067 1.391 . S
C1066 C1068 1.394 . S
C1066 H1082 0.931 . S
C1067 C1066 1.391 . S
C1067 C1071 1.376 . S
C1068 C1066 1.394 . S
C1068 C1069 1.369 . S
C1068 C1072 1.531 . S
C1069 C1068 1.369 . S
C1069 C1070 1.410 . S
C1069 C1077 1.503 . S
C1070 C1069 1.410 . S
C1070 C1071 1.392 . S
C1070 C1073 1.511 . S
C1071 C1067 1.376 . S
C1071 C1070 1.392 . S
C1071 H1083 0.929 . S
C1072 C1068 1.531 . S
C1072 H1084 0.960 . S
C1072 H1085 0.962 . S
C1072 H1086 0.960 . S
C1073 C1070 1.511 . S
C1073 H1087 0.961 . S
C1073 H1088 0.961 . S
C1073 H1089 0.961 . S
C1074 C1075 1.370 . S
C1074 C1076 1.363 . S
C1074 H1090 0.931 . S
C1075 C1074 1.370 . S
C1075 C1079 1.408 . S
C1076 C1074 1.363 . S
C1076 C1077 1.370 . S
C1076 C1080 1.524 . S
C1077 C1069 1.503 . S
C1077 C1076 1.370 . S
C1077 C1078 1.403 . S
C1078 C1077 1.403 . S
C1078 C1079 1.404 . S
C1078 C1081 1.539 . S
C1079 C1075 1.408 . S
C1079 C1078 1.404 . S
C1079 H1091 0.930 . S
C1080 C1076 1.524 . S
C1080 H1092 0.956 . S
C1080 H1093 0.961 . S
C1080 H1094 0.961 . S
C1081 C1078 1.539 . S
C1081 H1095 0.958 . S
C1081 H1096 0.961 . S
C1081 H1097 0.960 . S
H1082 C1066 0.931 . S
H1083 C1071 0.929 . S
H1084 C1072 0.960 . S
H1085 C1072 0.962 . S
H1086 C1072 0.960 . S
H1087 C1073 0.961 . S
H1088 C1073 0.961 . S
H1089 C1073 0.961 . S
H1090 C1074 0.931 . S
H1091 C1079 0.930 . S
H1092 C1080 0.956 . S
H1093 C1080 0.961 . S
H1094 C1080 0.961 . S
H1095 C1081 0.958 . S
H1096 C1081 0.961 . S
H1097 C1081 0.960 . S
C1098 C1099 1.391 . S
C1098 C1100 1.394 . S
C1098 H1114 0.931 . S
C1099 C1098 1.391 . S
C1099 C1103 1.376 . S
C1100 C1098 1.394 . S
C1100 C1101 1.369 . S
C1100 C1104 1.531 . S
C1101 C1100 1.369 . S
C1101 C1102 1.410 . S
C1101 C1109 1.503 . S
C1102 C1101 1.410 . S
C1102 C1103 1.392 . S
C1102 C1105 1.511 . S
C1103 C1099 1.376 . S
C1103 C1102 1.392 . S
C1103 H1115 0.929 . S
C1104 C1100 1.531 . S
C1104 H1116 0.960 . S
C1104 H1117 0.962 . S
C1104 H1118 0.960 . S
C1105 C1102 1.511 . S
C1105 H1119 0.961 . S
C1105 H1120 0.961 . S
C1105 H1121 0.961 . S
C1106 C1107 1.370 . S
C1106 C1108 1.363 . S
C1106 H1122 0.931 . S
C1107 C1106 1.370 . S
C1107 C1111 1.408 . S
C1108 C1106 1.363 . S
C1108 C1109 1.370 . S
C1108 C1112 1.524 . S
C1109 C1101 1.503 . S
C1109 C1108 1.370 . S
C1109 C1110 1.403 . S
C1110 C1109 1.403 . S
C1110 C1111 1.404 . S
C1110 C1113 1.539 . S
C1111 C1107 1.408 . S
C1111 C1110 1.404 . S
C1111 H1123 0.930 . S
C1112 C1108 1.524 . S
C1112 H1124 0.956 . S
C1112 H1125 0.961 . S
C1112 H1126 0.961 . S
C1113 C1110 1.539 . S
C1113 H1127 0.958 . S
C1113 H1128 0.961 . S
C1113 H1129 0.960 . S
H1114 C1098 0.931 . S
H1115 C1103 0.929 . S
H1116 C1104 0.960 . S
H1117 C1104 0.962 . S
H1118 C1104 0.960 . S
H1119 C1105 0.961 . S
H1120 C1105 0.961 . S
H1121 C1105 0.961 . S
H1122 C1106 0.931 . S
H1123 C1111 0.930 . S
H1124 C1112 0.956 . S
H1125 C1112 0.961 . S
H1126 C1112 0.961 . S
H1127 C1113 0.958 . S
H1128 C1113 0.961 . S
H1129 C1113 0.960 . S
C1130 C1131 1.391 . S
C1130 C1132 1.394 . S
C1130 H1146 0.931 . S
C1131 C1130 1.391 . S
C1131 C1135 1.376 . S
C1132 C1130 1.394 . S
C1132 C1133 1.369 . S
C1132 C1136 1.531 . S
C1133 C1132 1.369 . S
C1133 C1134 1.410 . S
C1133 C1141 1.503 . S
C1134 C1133 1.410 . S
C1134 C1135 1.392 . S
C1134 C1137 1.511 . S
C1135 C1131 1.376 . S
C1135 C1134 1.392 . S
C1135 H1147 0.929 . S
C1136 C1132 1.531 . S
C1136 H1148 0.960 . S
C1136 H1149 0.962 . S
C1136 H1150 0.960 . S
C1137 C1134 1.511 . S
C1137 H1151 0.961 . S
C1137 H1152 0.961 . S
C1137 H1153 0.961 . S
C1138 C1139 1.370 . S
C1138 C1140 1.363 . S
C1138 H1154 0.931 . S
C1139 C1138 1.370 . S
C1139 C1143 1.408 . S
C1140 C1138 1.363 . S
C1140 C1141 1.370 . S
C1140 C1144 1.524 . S
C1141 C1133 1.503 . S
C1141 C1140 1.370 . S
C1141 C1142 1.403 . S
C1142 C1141 1.403 . S
C1142 C1143 1.404 . S
C1142 C1145 1.539 . S
C1143 C1139 1.408 . S
C1143 C1142 1.404 . S
C1143 H1155 0.930 . S
C1144 C1140 1.524 . S
C1144 H1156 0.956 . S
C1144 H1157 0.961 . S
C1144 H1158 0.961 . S
C1145 C1142 1.539 . S
C1145 H1159 0.958 . S
C1145 H1160 0.961 . S
C1145 H1161 0.960 . S
H1146 C1130 0.931 . S
H1147 C1135 0.929 . S
H1148 C1136 0.960 . S
H1149 C1136 0.962 . S
H1150 C1136 0.960 . S
H1151 C1137 0.961 . S
H1152 C1137 0.961 . S
H1153 C1137 0.961 . S
H1154 C1138 0.931 . S
H1155 C1143 0.930 . S
H1156 C1144 0.956 . S
H1157 C1144 0.961 . S
H1158 C1144 0.961 . S
H1159 C1145 0.958 . S
H1160 C1145 0.961 . S
H1161 C1145 0.960 . S
C1162 C1163 1.391 . S
C1162 C1164 1.394 . S
C1162 H1178 0.931 . S
C1163 C1162 1.391 . S
C1163 C1167 1.376 . S
C1164 C1162 1.394 . S
C1164 C1165 1.369 . S
C1164 C1168 1.531 . S
C1165 C1164 1.369 . S
C1165 C1166 1.410 . S
C1165 C1173 1.503 . S
C1166 C1165 1.410 . S
C1166 C1167 1.392 . S
C1166 C1169 1.511 . S
C1167 C1163 1.376 . S
C1167 C1166 1.392 . S
C1167 H1179 0.929 . S
C1168 C1164 1.531 . S
C1168 H1180 0.960 . S
C1168 H1181 0.962 . S
C1168 H1182 0.960 . S
C1169 C1166 1.511 . S
C1169 H1183 0.961 . S
C1169 H1184 0.961 . S
C1169 H1185 0.961 . S
C1170 C1171 1.370 . S
C1170 C1172 1.363 . S
C1170 H1186 0.931 . S
C1171 C1170 1.370 . S
C1171 C1175 1.408 . S
C1172 C1170 1.363 . S
C1172 C1173 1.370 . S
C1172 C1176 1.524 . S
C1173 C1165 1.503 . S
C1173 C1172 1.370 . S
C1173 C1174 1.403 . S
C1174 C1173 1.403 . S
C1174 C1175 1.404 . S
C1174 C1177 1.539 . S
C1175 C1171 1.408 . S
C1175 C1174 1.404 . S
C1175 H1187 0.930 . S
C1176 C1172 1.524 . S
C1176 H1188 0.956 . S
C1176 H1189 0.961 . S
C1176 H1190 0.961 . S
C1177 C1174 1.539 . S
C1177 H1191 0.958 . S
C1177 H1192 0.961 . S
C1177 H1193 0.960 . S
H1178 C1162 0.931 . S
H1179 C1167 0.929 . S
H1180 C1168 0.960 . S
H1181 C1168 0.962 . S
H1182 C1168 0.960 . S
H1183 C1169 0.961 . S
H1184 C1169 0.961 . S
H1185 C1169 0.961 . S
H1186 C1170 0.931 . S
H1187 C1175 0.930 . S
H1188 C1176 0.956 . S
H1189 C1176 0.961 . S
H1190 C1176 0.961 . S
H1191 C1177 0.958 . S
H1192 C1177 0.961 . S
H1193 C1177 0.960 . S
C1194 C1195 1.391 . S
C1194 C1196 1.394 . S
C1194 H1210 0.931 . S
C1195 C1194 1.391 . S
C1195 C1199 1.376 . S
C1196 C1194 1.394 . S
C1196 C1197 1.369 . S
C1196 C1200 1.531 . S
C1197 C1196 1.369 . S
C1197 C1198 1.410 . S
C1197 C1205 1.503 . S
C1198 C1197 1.410 . S
C1198 C1199 1.392 . S
C1198 C1201 1.511 . S
C1199 C1195 1.376 . S
C1199 C1198 1.392 . S
C1199 H1211 0.929 . S
C1200 C1196 1.531 . S
C1200 H1212 0.960 . S
C1200 H1213 0.962 . S
C1200 H1214 0.960 . S
C1201 C1198 1.511 . S
C1201 H1215 0.961 . S
C1201 H1216 0.961 . S
C1201 H1217 0.961 . S
C1202 C1203 1.370 . S
C1202 C1204 1.363 . S
C1202 H1218 0.931 . S
C1203 C1202 1.370 . S
C1203 C1207 1.408 . S
C1204 C1202 1.363 . S
C1204 C1205 1.370 . S
C1204 C1208 1.524 . S
C1205 C1197 1.503 . S
C1205 C1204 1.370 . S
C1205 C1206 1.403 . S
C1206 C1205 1.403 . S
C1206 C1207 1.404 . S
C1206 C1209 1.539 . S
C1207 C1203 1.408 . S
C1207 C1206 1.404 . S
C1207 H1219 0.930 . S
C1208 C1204 1.524 . S
C1208 H1220 0.956 . S
C1208 H1221 0.961 . S
C1208 H1222 0.961 . S
C1209 C1206 1.539 . S
C1209 H1223 0.958 . S
C1209 H1224 0.961 . S
C1209 H1225 0.960 . S
H1210 C1194 0.931 . S
H1211 C1199 0.929 . S
H1212 C1200 0.960 . S
H1213 C1200 0.962 . S
H1214 C1200 0.960 . S
H1215 C1201 0.961 . S
H1216 C1201 0.961 . S
H1217 C1201 0.961 . S
H1218 C1202 0.931 . S
H1219 C1207 0.930 . S
H1220 C1208 0.956 . S
H1221 C1208 0.961 . S
H1222 C1208 0.961 . S
H1223 C1209 0.958 . S
H1224 C1209 0.961 . S
H1225 C1209 0.960 . S
C1226 C1227 1.391 . S
C1226 C1228 1.394 . S
C1226 H1242 0.931 . S
C1227 C1226 1.391 . S
C1227 C1231 1.376 . S
C1228 C1226 1.394 . S
C1228 C1229 1.369 . S
C1228 C1232 1.531 . S
C1229 C1228 1.369 . S
C1229 C1230 1.410 . S
C1229 C1237 1.503 . S
C1230 C1229 1.410 . S
C1230 C1231 1.392 . S
C1230 C1233 1.511 . S
C1231 C1227 1.376 . S
C1231 C1230 1.392 . S
C1231 H1243 0.929 . S
C1232 C1228 1.531 . S
C1232 H1244 0.960 . S
C1232 H1245 0.962 . S
C1232 H1246 0.960 . S
C1233 C1230 1.511 . S
C1233 H1247 0.961 . S
C1233 H1248 0.961 . S
C1233 H1249 0.961 . S
C1234 C1235 1.370 . S
C1234 C1236 1.363 . S
C1234 H1250 0.931 . S
C1235 C1234 1.370 . S
C1235 C1239 1.408 . S
C1236 C1234 1.363 . S
C1236 C1237 1.370 . S
C1236 C1240 1.524 . S
C1237 C1229 1.503 . S
C1237 C1236 1.370 . S
C1237 C1238 1.403 . S
C1238 C1237 1.403 . S
C1238 C1239 1.404 . S
C1238 C1241 1.539 . S
C1239 C1235 1.408 . S
C1239 C1238 1.404 . S
C1239 H1251 0.930 . S
C1240 C1236 1.524 . S
C1240 H1252 0.956 . S
C1240 H1253 0.961 . S
C1240 H1254 0.961 . S
C1241 C1238 1.539 . S
C1241 H1255 0.958 . S
C1241 H1256 0.961 . S
C1241 H1257 0.960 . S
H1242 C1226 0.931 . S
H1243 C1231 0.929 . S
H1244 C1232 0.960 . S
H1245 C1232 0.962 . S
H1246 C1232 0.960 . S
H1247 C1233 0.961 . S
H1248 C1233 0.961 . S
H1249 C1233 0.961 . S
H1250 C1234 0.931 . S
H1251 C1239 0.930 . S
H1252 C1240 0.956 . S
H1253 C1240 0.961 . S
H1254 C1240 0.961 . S
H1255 C1241 0.958 . S
H1256 C1241 0.961 . S
H1257 C1241 0.960 . S
C1258 C1259 1.391 . S
C1258 C1260 1.394 . S
C1258 H1274 0.931 . S
C1259 C1258 1.391 . S
C1259 C1263 1.376 . S
C1260 C1258 1.394 . S
C1260 C1261 1.369 . S
C1260 C1264 1.531 . S
C1261 C1260 1.369 . S
C1261 C1262 1.410 . S
C1261 C1269 1.503 . S
C1262 C1261 1.410 . S
C1262 C1263 1.392 . S
C1262 C1265 1.511 . S
C1263 C1259 1.376 . S
C1263 C1262 1.392 . S
C1263 H1275 0.929 . S
C1264 C1260 1.531 . S
C1264 H1276 0.960 . S
C1264 H1277 0.962 . S
C1264 H1278 0.960 . S
C1265 C1262 1.511 . S
C1265 H1279 0.961 . S
C1265 H1280 0.961 . S
C1265 H1281 0.961 . S
C1266 C1267 1.370 . S
C1266 C1268 1.363 . S
C1266 H1282 0.931 . S
C1267 C1266 1.370 . S
C1267 C1271 1.408 . S
C1268 C1266 1.363 . S
C1268 C1269 1.370 . S
C1268 C1272 1.524 . S
C1269 C1261 1.503 . S
C1269 C1268 1.370 . S
C1269 C1270 1.403 . S
C1270 C1269 1.403 . S
C1270 C1271 1.404 . S
C1270 C1273 1.539 . S
C1271 C1267 1.408 . S
C1271 C1270 1.404 . S
C1271 H1283 0.930 . S
C1272 C1268 1.524 . S
C1272 H1284 0.956 . S
C1272 H1285 0.961 . S
C1272 H1286 0.961 . S
C1273 C1270 1.539 . S
C1273 H1287 0.958 . S
C1273 H1288 0.961 . S
C1273 H1289 0.960 . S
H1274 C1258 0.931 . S
H1275 C1263 0.929 . S
H1276 C1264 0.960 . S
H1277 C1264 0.962 . S
H1278 C1264 0.960 . S
H1279 C1265 0.961 . S
H1280 C1265 0.961 . S
H1281 C1265 0.961 . S
H1282 C1266 0.931 . S
H1283 C1271 0.930 . S
H1284 C1272 0.956 . S
H1285 C1272 0.961 . S
H1286 C1272 0.961 . S
H1287 C1273 0.958 . S
H1288 C1273 0.961 . S
H1289 C1273 0.960 . S
C1290 C1291 1.391 . S
C1290 C1292 1.394 . S
C1290 H1306 0.931 . S
C1291 C1290 1.391 . S
C1291 C1295 1.376 . S
C1292 C1290 1.394 . S
C1292 C1293 1.369 . S
C1292 C1296 1.531 . S
C1293 C1292 1.369 . S
C1293 C1294 1.410 . S
C1293 C1301 1.503 . S
C1294 C1293 1.410 . S
C1294 C1295 1.392 . S
C1294 C1297 1.511 . S
C1295 C1291 1.376 . S
C1295 C1294 1.392 . S
C1295 H1307 0.929 . S
C1296 C1292 1.531 . S
C1296 H1308 0.960 . S
C1296 H1309 0.962 . S
C1296 H1310 0.960 . S
C1297 C1294 1.511 . S
C1297 H1311 0.961 . S
C1297 H1312 0.961 . S
C1297 H1313 0.961 . S
C1298 C1299 1.370 . S
C1298 C1300 1.363 . S
C1298 H1314 0.931 . S
C1299 C1298 1.370 . S
C1299 C1303 1.408 . S
C1300 C1298 1.363 . S
C1300 C1301 1.370 . S
C1300 C1304 1.524 . S
C1301 C1293 1.503 . S
C1301 C1300 1.370 . S
C1301 C1302 1.403 . S
C1302 C1301 1.403 . S
C1302 C1303 1.404 . S
C1302 C1305 1.539 . S
C1303 C1299 1.408 . S
C1303 C1302 1.404 . S
C1303 H1315 0.930 . S
C1304 C1300 1.524 . S
C1304 H1316 0.956 . S
C1304 H1317 0.961 . S
C1304 H1318 0.961 . S
C1305 C1302 1.539 . S
C1305 H1319 0.958 . S
C1305 H1320 0.961 . S
C1305 H1321 0.960 . S
H1306 C1290 0.931 . S
H1307 C1295 0.929 . S
H1308 C1296 0.960 . S
H1309 C1296 0.962 . S
H1310 C1296 0.960 . S
H1311 C1297 0.961 . S
H1312 C1297 0.961 . S
H1313 C1297 0.961 . S
H1314 C1298 0.931 . S
H1315 C1303 0.930 . S
H1316 C1304 0.956 . S
H1317 C1304 0.961 . S
H1318 C1304 0.961 . S
H1319 C1305 0.958 . S
H1320 C1305 0.961 . S
H1321 C1305 0.960 . S
C1322 C1323 1.391 . S
C1322 C1324 1.394 . S
C1322 H1338 0.931 . S
C1323 C1322 1.391 . S
C1323 C1327 1.376 . S
C1324 C1322 1.394 . S
C1324 C1325 1.369 . S
C1324 C1328 1.531 . S
C1325 C1324 1.369 . S
C1325 C1326 1.410 . S
C1325 C1333 1.503 . S
C1326 C1325 1.410 . S
C1326 C1327 1.392 . S
C1326 C1329 1.511 . S
C1327 C1323 1.376 . S
C1327 C1326 1.392 . S
C1327 H1339 0.929 . S
C1328 C1324 1.531 . S
C1328 H1340 0.960 . S
C1328 H1341 0.962 . S
C1328 H1342 0.960 . S
C1329 C1326 1.511 . S
C1329 H1343 0.961 . S
C1329 H1344 0.961 . S
C1329 H1345 0.961 . S
C1330 C1331 1.370 . S
C1330 C1332 1.363 . S
C1330 H1346 0.931 . S
C1331 C1330 1.370 . S
C1331 C1335 1.408 . S
C1332 C1330 1.363 . S
C1332 C1333 1.370 . S
C1332 C1336 1.524 . S
C1333 C1325 1.503 . S
C1333 C1332 1.370 . S
C1333 C1334 1.403 . S
C1334 C1333 1.403 . S
C1334 C1335 1.404 . S
C1334 C1337 1.539 . S
C1335 C1331 1.408 . S
C1335 C1334 1.404 . S
C1335 H1347 0.930 . S
C1336 C1332 1.524 . S
C1336 H1348 0.956 . S
C1336 H1349 0.961 . S
C1336 H1350 0.961 . S
C1337 C1334 1.539 . S
C1337 H1351 0.958 . S
C1337 H1352 0.961 . S
C1337 H1353 0.960 . S
H1338 C1322 0.931 . S
H1339 C1327 0.929 . S
H1340 C1328 0.960 . S
H1341 C1328 0.962 . S
H1342 C1328 0.960 . S
H1343 C1329 0.961 . S
H1344 C1329 0.961 . S
H1345 C1329 0.961 . S
H1346 C1330 0.931 . S
H1347 C1335 0.930 . S
H1348 C1336 0.956 . S
H1349 C1336 0.961 . S
H1350 C1336 0.961 . S
H1351 C1337 0.958 . S
H1352 C1337 0.961 . S
H1353 C1337 0.960 . S
C1354 C1355 1.391 . S
C1354 C1356 1.394 . S
C1354 H1370 0.931 . S
C1355 C1354 1.391 . S
C1355 C1359 1.376 . S
C1356 C1354 1.394 . S
C1356 C1357 1.369 . S
C1356 C1360 1.531 . S
C1357 C1356 1.369 . S
C1357 C1358 1.410 . S
C1357 C1365 1.503 . S
C1358 C1357 1.410 . S
C1358 C1359 1.392 . S
C1358 C1361 1.511 . S
C1359 C1355 1.376 . S
C1359 C1358 1.392 . S
C1359 H1371 0.929 . S
C1360 C1356 1.531 . S
C1360 H1372 0.960 . S
C1360 H1373 0.962 . S
C1360 H1374 0.960 . S
C1361 C1358 1.511 . S
C1361 H1375 0.961 . S
C1361 H1376 0.961 . S
C1361 H1377 0.961 . S
C1362 C1363 1.370 . S
C1362 C1364 1.363 . S
C1362 H1378 0.931 . S
C1363 C1362 1.370 . S
C1363 C1367 1.408 . S
C1364 C1362 1.363 . S
C1364 C1365 1.370 . S
C1364 C1368 1.524 . S
C1365 C1357 1.503 . S
C1365 C1364 1.370 . S
C1365 C1366 1.403 . S
C1366 C1365 1.403 . S
C1366 C1367 1.404 . S
C1366 C1369 1.539 . S
C1367 C1363 1.408 . S
C1367 C1366 1.404 . S
C1367 H1379 0.930 . S
C1368 C1364 1.524 . S
C1368 H1380 0.956 . S
C1368 H1381 0.961 . S
C1368 H1382 0.961 . S
C1369 C1366 1.539 . S
C1369 H1383 0.958 . S
C1369 H1384 0.961 . S
C1369 H1385 0.960 . S
H1370 C1354 0.931 . S
H1371 C1359 0.929 . S
H1372 C1360 0.960 . S
H1373 C1360 0.962 . S
H1374 C1360 0.960 . S
H1375 C1361 0.961 . S
H1376 C1361 0.961 . S
H1377 C1361 0.961 . S
H1378 C1362 0.931 . S
H1379 C1367 0.930 . S
H1380 C1368 0.956 . S
H1381 C1368 0.961 . S
H1382 C1368 0.961 . S
H1383 C1369 0.958 . S
H1384 C1369 0.961 . S
H1385 C1369 0.960 . S
C1386 C1387 1.391 . S
C1386 C1388 1.394 . S
C1386 H1402 0.931 . S
C1387 C1386 1.391 . S
C1387 C1391 1.376 . S
C1388 C1386 1.394 . S
C1388 C1389 1.369 . S
C1388 C1392 1.531 . S
C1389 C1388 1.369 . S
C1389 C1390 1.410 . S
C1389 C1397 1.503 . S
C1390 C1389 1.410 . S
C1390 C1391 1.392 . S
C1390 C1393 1.511 . S
C1391 C1387 1.376 . S
C1391 C1390 1.392 . S
C1391 H1403 0.929 . S
C1392 C1388 1.531 . S
C1392 H1404 0.960 . S
C1392 H1405 0.962 . S
C1392 H1406 0.960 1_655 S
C1393 C1390 1.511 . S
C1393 H1407 0.961 . S
C1393 H1408 0.961 . S
C1393 H1409 0.961 . S
C1394 C1395 1.370 . S
C1394 C1396 1.363 . S
C1394 H1410 0.931 . S
C1395 C1394 1.370 . S
C1395 C1399 1.408 . S
C1396 C1394 1.363 . S
C1396 C1397 1.370 . S
C1396 C1400 1.524 . S
C1397 C1389 1.503 . S
C1397 C1396 1.370 . S
C1397 C1398 1.403 . S
C1398 C1397 1.403 . S
C1398 C1399 1.404 . S
C1398 C1401 1.539 . S
C1399 C1395 1.408 . S
C1399 C1398 1.404 . S
C1399 H1411 0.930 . S
C1400 C1396 1.524 . S
C1400 H1412 0.956 . S
C1400 H1413 0.961 . S
C1400 H1414 0.961 . S
C1401 C1398 1.539 . S
C1401 H1415 0.958 1_655 S
C1401 H1416 0.961 . S
C1401 H1417 0.960 . S
H1402 C1386 0.931 . S
H1403 C1391 0.929 . S
H1404 C1392 0.960 . S
H1405 C1392 0.962 . S
H1406 C1392 0.960 1_455 S
H1407 C1393 0.961 . S
H1408 C1393 0.961 . S
H1409 C1393 0.961 . S
H1410 C1394 0.931 . S
H1411 C1399 0.930 . S
H1412 C1400 0.956 . S
H1413 C1400 0.961 . S
H1414 C1400 0.961 . S
H1415 C1401 0.958 1_455 S
H1416 C1401 0.961 . S
H1417 C1401 0.960 . S
C1418 C1419 1.391 . S
C1418 C1420 1.394 . S
C1418 H1434 0.931 . S
C1419 C1418 1.391 . S
C1419 C1423 1.376 . S
C1420 C1418 1.394 . S
C1420 C1421 1.369 . S
C1420 C1424 1.531 . S
C1421 C1420 1.369 . S
C1421 C1422 1.410 . S
C1421 C1429 1.503 . S
C1422 C1421 1.410 . S
C1422 C1423 1.392 . S
C1422 C1425 1.511 . S
C1423 C1419 1.376 . S
C1423 C1422 1.392 . S
C1423 H1435 0.929 . S
C1424 C1420 1.531 . S
C1424 H1436 0.960 . S
C1424 H1437 0.962 . S
C1424 H1438 0.960 . S
C1425 C1422 1.511 . S
C1425 H1439 0.961 . S
C1425 H1440 0.961 . S
C1425 H1441 0.961 . S
C1426 C1427 1.370 . S
C1426 C1428 1.363 . S
C1426 H1442 0.931 . S
C1427 C1426 1.370 . S
C1427 C1431 1.408 . S
C1428 C1426 1.363 . S
C1428 C1429 1.370 . S
C1428 C1432 1.524 . S
C1429 C1421 1.503 . S
C1429 C1428 1.370 . S
C1429 C1430 1.403 . S
C1430 C1429 1.403 . S
C1430 C1431 1.404 . S
C1430 C1433 1.539 . S
C1431 C1427 1.408 . S
C1431 C1430 1.404 . S
C1431 H1443 0.930 . S
C1432 C1428 1.524 . S
C1432 H1444 0.956 . S
C1432 H1445 0.961 . S
C1432 H1446 0.961 . S
C1433 C1430 1.539 . S
C1433 H1447 0.958 . S
C1433 H1448 0.961 . S
C1433 H1449 0.960 . S
H1434 C1418 0.931 . S
H1435 C1423 0.929 . S
H1436 C1424 0.960 . S
H1437 C1424 0.962 . S
H1438 C1424 0.960 . S
H1439 C1425 0.961 . S
H1440 C1425 0.961 . S
H1441 C1425 0.961 . S
H1442 C1426 0.931 . S
H1443 C1431 0.930 . S
H1444 C1432 0.956 . S
H1445 C1432 0.961 . S
H1446 C1432 0.961 . S
H1447 C1433 0.958 . S
H1448 C1433 0.961 . S
H1449 C1433 0.960 . S
C1450 C1451 1.391 . S
C1450 C1452 1.394 . S
C1450 H1466 0.931 . S
C1451 C1450 1.391 . S
C1451 C1455 1.376 . S
C1452 C1450 1.394 . S
C1452 C1453 1.369 . S
C1452 C1456 1.531 . S
C1453 C1452 1.369 . S
C1453 C1454 1.410 . S
C1453 C1461 1.503 . S
C1454 C1453 1.410 . S
C1454 C1455 1.392 . S
C1454 C1457 1.511 . S
C1455 C1451 1.376 . S
C1455 C1454 1.392 . S
C1455 H1467 0.929 . S
C1456 C1452 1.531 . S
C1456 H1468 0.960 . S
C1456 H1469 0.962 . S
C1456 H1470 0.960 . S
C1457 C1454 1.511 . S
C1457 H1471 0.961 . S
C1457 H1472 0.961 . S
C1457 H1473 0.961 . S
C1458 C1459 1.370 . S
C1458 C1460 1.363 . S
C1458 H1474 0.931 . S
C1459 C1458 1.370 . S
C1459 C1463 1.408 . S
C1460 C1458 1.363 . S
C1460 C1461 1.370 . S
C1460 C1464 1.524 . S
C1461 C1453 1.503 . S
C1461 C1460 1.370 . S
C1461 C1462 1.403 . S
C1462 C1461 1.403 . S
C1462 C1463 1.404 . S
C1462 C1465 1.539 . S
C1463 C1459 1.408 . S
C1463 C1462 1.404 . S
C1463 H1475 0.930 . S
C1464 C1460 1.524 . S
C1464 H1476 0.956 . S
C1464 H1477 0.961 . S
C1464 H1478 0.961 . S
C1465 C1462 1.539 . S
C1465 H1479 0.958 . S
C1465 H1480 0.961 . S
C1465 H1481 0.960 . S
H1466 C1450 0.931 . S
H1467 C1455 0.929 . S
H1468 C1456 0.960 . S
H1469 C1456 0.962 . S
H1470 C1456 0.960 . S
H1471 C1457 0.961 . S
H1472 C1457 0.961 . S
H1473 C1457 0.961 . S
H1474 C1458 0.931 . S
H1475 C1463 0.930 . S
H1476 C1464 0.956 . S
H1477 C1464 0.961 . S
H1478 C1464 0.961 . S
H1479 C1465 0.958 . S
H1480 C1465 0.961 . S
H1481 C1465 0.960 . S
C1482 C1483 1.391 . S
C1482 C1484 1.394 . S
C1482 H1498 0.931 . S
C1483 C1482 1.391 . S
C1483 C1487 1.376 . S
C1484 C1482 1.394 . S
C1484 C1485 1.369 . S
C1484 C1488 1.531 . S
C1485 C1484 1.369 . S
C1485 C1486 1.410 . S
C1485 C1493 1.503 . S
C1486 C1485 1.410 . S
C1486 C1487 1.392 . S
C1486 C1489 1.511 . S
C1487 C1483 1.376 . S
C1487 C1486 1.392 . S
C1487 H1499 0.929 . S
C1488 C1484 1.531 . S
C1488 H1500 0.960 . S
C1488 H1501 0.962 . S
C1488 H1502 0.960 . S
C1489 C1486 1.511 . S
C1489 H1503 0.961 . S
C1489 H1504 0.961 . S
C1489 H1505 0.961 . S
C1490 C1491 1.370 . S
C1490 C1492 1.363 . S
C1490 H1506 0.931 . S
C1491 C1490 1.370 . S
C1491 C1495 1.408 . S
C1492 C1490 1.363 . S
C1492 C1493 1.370 . S
C1492 C1496 1.524 . S
C1493 C1485 1.503 . S
C1493 C1492 1.370 . S
C1493 C1494 1.403 . S
C1494 C1493 1.403 . S
C1494 C1495 1.404 . S
C1494 C1497 1.539 . S
C1495 C1491 1.408 . S
C1495 C1494 1.404 . S
C1495 H1507 0.930 . S
C1496 C1492 1.524 . S
C1496 H1508 0.956 . S
C1496 H1509 0.961 . S
C1496 H1510 0.961 . S
C1497 C1494 1.539 . S
C1497 H1511 0.958 . S
C1497 H1512 0.961 . S
C1497 H1513 0.960 . S
H1498 C1482 0.931 . S
H1499 C1487 0.929 . S
H1500 C1488 0.960 . S
H1501 C1488 0.962 . S
H1502 C1488 0.960 . S
H1503 C1489 0.961 . S
H1504 C1489 0.961 . S
H1505 C1489 0.961 . S
H1506 C1490 0.931 . S
H1507 C1495 0.930 . S
H1508 C1496 0.956 . S
H1509 C1496 0.961 . S
H1510 C1496 0.961 . S
H1511 C1497 0.958 . S
H1512 C1497 0.961 . S
H1513 C1497 0.960 . S
C1514 C1515 1.391 . S
C1514 C1516 1.394 . S
C1514 H1530 0.931 . S
C1515 C1514 1.391 . S
C1515 C1519 1.376 . S
C1516 C1514 1.394 . S
C1516 C1517 1.369 . S
C1516 C1520 1.531 . S
C1517 C1516 1.369 . S
C1517 C1518 1.410 . S
C1517 C1525 1.503 . S
C1518 C1517 1.410 . S
C1518 C1519 1.392 . S
C1518 C1521 1.511 . S
C1519 C1515 1.376 . S
C1519 C1518 1.392 . S
C1519 H1531 0.929 . S
C1520 C1516 1.531 . S
C1520 H1532 0.960 . S
C1520 H1533 0.962 . S
C1520 H1534 0.960 . S
C1521 C1518 1.511 . S
C1521 H1535 0.961 . S
C1521 H1536 0.961 . S
C1521 H1537 0.961 . S
C1522 C1523 1.370 . S
C1522 C1524 1.363 . S
C1522 H1538 0.931 . S
C1523 C1522 1.370 . S
C1523 C1527 1.408 . S
C1524 C1522 1.363 . S
C1524 C1525 1.370 . S
C1524 C1528 1.524 . S
C1525 C1517 1.503 . S
C1525 C1524 1.370 . S
C1525 C1526 1.403 . S
C1526 C1525 1.403 . S
C1526 C1527 1.404 . S
C1526 C1529 1.539 . S
C1527 C1523 1.408 . S
C1527 C1526 1.404 . S
C1527 H1539 0.930 . S
C1528 C1524 1.524 . S
C1528 H1540 0.956 . S
C1528 H1541 0.961 . S
C1528 H1542 0.961 . S
C1529 C1526 1.539 . S
C1529 H1543 0.958 . S
C1529 H1544 0.961 . S
C1529 H1545 0.960 . S
H1530 C1514 0.931 . S
H1531 C1519 0.929 . S
H1532 C1520 0.960 . S
H1533 C1520 0.962 . S
H1534 C1520 0.960 . S
H1535 C1521 0.961 . S
H1536 C1521 0.961 . S
H1537 C1521 0.961 . S
H1538 C1522 0.931 . S
H1539 C1527 0.930 . S
H1540 C1528 0.956 . S
H1541 C1528 0.961 . S
H1542 C1528 0.961 . S
H1543 C1529 0.958 . S
H1544 C1529 0.961 . S
H1545 C1529 0.960 . S
C1546 C1547 1.391 . S
C1546 C1548 1.394 . S
C1546 H1562 0.931 . S
C1547 C1546 1.391 . S
C1547 C1551 1.376 . S
C1548 C1546 1.394 . S
C1548 C1549 1.369 . S
C1548 C1552 1.531 . S
C1549 C1548 1.369 . S
C1549 C1550 1.410 . S
C1549 C1557 1.503 . S
C1550 C1549 1.410 . S
C1550 C1551 1.392 . S
C1550 C1553 1.511 . S
C1551 C1547 1.376 . S
C1551 C1550 1.392 . S
C1551 H1563 0.929 . S
C1552 C1548 1.531 . S
C1552 H1564 0.960 . S
C1552 H1565 0.962 . S
C1552 H1566 0.960 . S
C1553 C1550 1.511 . S
C1553 H1567 0.961 . S
C1553 H1568 0.961 . S
C1553 H1569 0.961 . S
C1554 C1555 1.370 . S
C1554 C1556 1.363 . S
C1554 H1570 0.931 . S
C1555 C1554 1.370 . S
C1555 C1559 1.408 . S
C1556 C1554 1.363 . S
C1556 C1557 1.370 . S
C1556 C1560 1.524 . S
C1557 C1549 1.503 . S
C1557 C1556 1.370 . S
C1557 C1558 1.403 . S
C1558 C1557 1.403 . S
C1558 C1559 1.404 . S
C1558 C1561 1.539 . S
C1559 C1555 1.408 . S
C1559 C1558 1.404 . S
C1559 H1571 0.930 . S
C1560 C1556 1.524 . S
C1560 H1572 0.956 . S
C1560 H1573 0.961 . S
C1560 H1574 0.961 . S
C1561 C1558 1.539 . S
C1561 H1575 0.958 . S
C1561 H1576 0.961 . S
C1561 H1577 0.960 . S
H1562 C1546 0.931 . S
H1563 C1551 0.929 . S
H1564 C1552 0.960 . S
H1565 C1552 0.962 . S
H1566 C1552 0.960 . S
H1567 C1553 0.961 . S
H1568 C1553 0.961 . S
H1569 C1553 0.961 . S
H1570 C1554 0.931 . S
H1571 C1559 0.930 . S
H1572 C1560 0.956 . S
H1573 C1560 0.961 . S
H1574 C1560 0.961 . S
H1575 C1561 0.958 . S
H1576 C1561 0.961 . S
H1577 C1561 0.960 . S
C1578 C1579 1.391 . S
C1578 C1580 1.394 . S
C1578 H1594 0.931 . S
C1579 C1578 1.391 . S
C1579 C1583 1.376 . S
C1580 C1578 1.394 . S
C1580 C1581 1.369 . S
C1580 C1584 1.531 . S
C1581 C1580 1.369 . S
C1581 C1582 1.410 . S
C1581 C1589 1.503 . S
C1582 C1581 1.410 . S
C1582 C1583 1.392 . S
C1582 C1585 1.511 . S
C1583 C1579 1.376 . S
C1583 C1582 1.392 . S
C1583 H1595 0.929 . S
C1584 C1580 1.531 . S
C1584 H1596 0.960 . S
C1584 H1597 0.962 . S
C1584 H1598 0.960 . S
C1585 C1582 1.511 . S
C1585 H1599 0.961 . S
C1585 H1600 0.961 . S
C1585 H1601 0.961 . S
C1586 C1587 1.370 . S
C1586 C1588 1.363 . S
C1586 H1602 0.931 . S
C1587 C1586 1.370 . S
C1587 C1591 1.408 . S
C1588 C1586 1.363 . S
C1588 C1589 1.370 . S
C1588 C1592 1.524 . S
C1589 C1581 1.503 . S
C1589 C1588 1.370 . S
C1589 C1590 1.403 . S
C1590 C1589 1.403 . S
C1590 C1591 1.404 . S
C1590 C1593 1.539 . S
C1591 C1587 1.408 . S
C1591 C1590 1.404 . S
C1591 H1603 0.930 . S
C1592 C1588 1.524 . S
C1592 H1604 0.956 . S
C1592 H1605 0.961 . S
C1592 H1606 0.961 . S
C1593 C1590 1.539 . S
C1593 H1607 0.958 . S
C1593 H1608 0.961 . S
C1593 H1609 0.960 . S
H1594 C1578 0.931 . S
H1595 C1583 0.929 . S
H1596 C1584 0.960 . S
H1597 C1584 0.962 . S
H1598 C1584 0.960 . S
H1599 C1585 0.961 . S
H1600 C1585 0.961 . S
H1601 C1585 0.961 . S
H1602 C1586 0.931 . S
H1603 C1591 0.930 . S
H1604 C1592 0.956 . S
H1605 C1592 0.961 . S
H1606 C1592 0.961 . S
H1607 C1593 0.958 . S
H1608 C1593 0.961 . S
H1609 C1593 0.960 . S
C1610 C1611 1.391 . S
C1610 C1612 1.394 . S
C1610 H1626 0.931 . S
C1611 C1610 1.391 . S
C1611 C1615 1.376 . S
C1612 C1610 1.394 . S
C1612 C1613 1.369 . S
C1612 C1616 1.531 . S
C1613 C1612 1.369 . S
C1613 C1614 1.410 . S
C1613 C1621 1.503 . S
C1614 C1613 1.410 . S
C1614 C1615 1.392 . S
C1614 C1617 1.511 . S
C1615 C1611 1.376 . S
C1615 C1614 1.392 . S
C1615 H1627 0.929 . S
C1616 C1612 1.531 . S
C1616 H1628 0.960 . S
C1616 H1629 0.962 . S
C1616 H1630 0.960 . S
C1617 C1614 1.511 . S
C1617 H1631 0.961 . S
C1617 H1632 0.961 . S
C1617 H1633 0.961 . S
C1618 C1619 1.370 . S
C1618 C1620 1.363 . S
C1618 H1634 0.931 . S
C1619 C1618 1.370 . S
C1619 C1623 1.408 . S
C1620 C1618 1.363 . S
C1620 C1621 1.370 . S
C1620 C1624 1.524 . S
C1621 C1613 1.503 . S
C1621 C1620 1.370 . S
C1621 C1622 1.403 . S
C1622 C1621 1.403 . S
C1622 C1623 1.404 . S
C1622 C1625 1.539 . S
C1623 C1619 1.408 . S
C1623 C1622 1.404 . S
C1623 H1635 0.930 . S
C1624 C1620 1.524 . S
C1624 H1636 0.956 . S
C1624 H1637 0.961 . S
C1624 H1638 0.961 . S
C1625 C1622 1.539 . S
C1625 H1639 0.958 . S
C1625 H1640 0.961 . S
C1625 H1641 0.960 . S
H1626 C1610 0.931 . S
H1627 C1615 0.929 . S
H1628 C1616 0.960 . S
H1629 C1616 0.962 . S
H1630 C1616 0.960 . S
H1631 C1617 0.961 . S
H1632 C1617 0.961 . S
H1633 C1617 0.961 . S
H1634 C1618 0.931 . S
H1635 C1623 0.930 . S
H1636 C1624 0.956 . S
H1637 C1624 0.961 . S
H1638 C1624 0.961 . S
H1639 C1625 0.958 . S
H1640 C1625 0.961 . S
H1641 C1625 0.960 . S
C1642 C1643 1.391 . S
C1642 C1644 1.394 . S
C1642 H1658 0.931 . S
C1643 C1642 1.391 . S
C1643 C1647 1.376 . S
C1644 C1642 1.394 . S
C1644 C1645 1.369 . S
C1644 C1648 1.531 . S
C1645 C1644 1.369 . S
C1645 C1646 1.410 . S
C1645 C1653 1.503 . S
C1646 C1645 1.410 . S
C1646 C1647 1.392 . S
C1646 C1649 1.511 . S
C1647 C1643 1.376 . S
C1647 C1646 1.392 . S
C1647 H1659 0.929 . S
C1648 C1644 1.531 . S
C1648 H1660 0.960 . S
C1648 H1661 0.962 . S
C1648 H1662 0.960 . S
C1649 C1646 1.511 . S
C1649 H1663 0.961 . S
C1649 H1664 0.961 . S
C1649 H1665 0.961 . S
C1650 C1651 1.370 . S
C1650 C1652 1.363 . S
C1650 H1666 0.931 . S
C1651 C1650 1.370 . S
C1651 C1655 1.408 . S
C1652 C1650 1.363 . S
C1652 C1653 1.370 . S
C1652 C1656 1.524 . S
C1653 C1645 1.503 . S
C1653 C1652 1.370 . S
C1653 C1654 1.403 . S
C1654 C1653 1.403 . S
C1654 C1655 1.404 . S
C1654 C1657 1.539 . S
C1655 C1651 1.408 . S
C1655 C1654 1.404 . S
C1655 H1667 0.930 . S
C1656 C1652 1.524 . S
C1656 H1668 0.956 . S
C1656 H1669 0.961 . S
C1656 H1670 0.961 . S
C1657 C1654 1.539 . S
C1657 H1671 0.958 . S
C1657 H1672 0.961 . S
C1657 H1673 0.960 . S
H1658 C1642 0.931 . S
H1659 C1647 0.929 . S
H1660 C1648 0.960 . S
H1661 C1648 0.962 . S
H1662 C1648 0.960 . S
H1663 C1649 0.961 . S
H1664 C1649 0.961 . S
H1665 C1649 0.961 . S
H1666 C1650 0.931 . S
H1667 C1655 0.930 . S
H1668 C1656 0.956 . S
H1669 C1656 0.961 . S
H1670 C1656 0.961 . S
H1671 C1657 0.958 . S
H1672 C1657 0.961 . S
H1673 C1657 0.960 . S
C1674 C1675 1.391 . S
C1674 C1676 1.394 . S
C1674 H1690 0.931 . S
C1675 C1674 1.391 . S
C1675 C1679 1.376 . S
C1676 C1674 1.394 . S
C1676 C1677 1.369 . S
C1676 C1680 1.531 . S
C1677 C1676 1.369 . S
C1677 C1678 1.410 . S
C1677 C1685 1.503 . S
C1678 C1677 1.410 . S
C1678 C1679 1.392 . S
C1678 C1681 1.511 . S
C1679 C1675 1.376 . S
C1679 C1678 1.392 . S
C1679 H1691 0.929 . S
C1680 C1676 1.531 . S
C1680 H1692 0.960 . S
C1680 H1693 0.962 . S
C1680 H1694 0.960 . S
C1681 C1678 1.511 . S
C1681 H1695 0.961 . S
C1681 H1696 0.961 . S
C1681 H1697 0.961 . S
C1682 C1683 1.370 . S
C1682 C1684 1.363 . S
C1682 H1698 0.931 . S
C1683 C1682 1.370 . S
C1683 C1687 1.408 . S
C1684 C1682 1.363 . S
C1684 C1685 1.370 . S
C1684 C1688 1.524 . S
C1685 C1677 1.503 . S
C1685 C1684 1.370 . S
C1685 C1686 1.403 . S
C1686 C1685 1.403 . S
C1686 C1687 1.404 . S
C1686 C1689 1.539 . S
C1687 C1683 1.408 . S
C1687 C1686 1.404 . S
C1687 H1699 0.930 . S
C1688 C1684 1.524 . S
C1688 H1700 0.956 . S
C1688 H1701 0.961 . S
C1688 H1702 0.961 . S
C1689 C1686 1.539 . S
C1689 H1703 0.958 . S
C1689 H1704 0.961 . S
C1689 H1705 0.960 . S
H1690 C1674 0.931 . S
H1691 C1679 0.929 . S
H1692 C1680 0.960 . S
H1693 C1680 0.962 . S
H1694 C1680 0.960 . S
H1695 C1681 0.961 . S
H1696 C1681 0.961 . S
H1697 C1681 0.961 . S
H1698 C1682 0.931 . S
H1699 C1687 0.930 . S
H1700 C1688 0.956 . S
H1701 C1688 0.961 . S
H1702 C1688 0.961 . S
H1703 C1689 0.958 . S
H1704 C1689 0.961 . S
H1705 C1689 0.960 . S
C1706 C1707 1.391 . S
C1706 C1708 1.394 . S
C1706 H1722 0.931 . S
C1707 C1706 1.391 . S
C1707 C1711 1.376 . S
C1708 C1706 1.394 . S
C1708 C1709 1.369 . S
C1708 C1712 1.531 . S
C1709 C1708 1.369 . S
C1709 C1710 1.410 . S
C1709 C1717 1.503 . S
C1710 C1709 1.410 . S
C1710 C1711 1.392 . S
C1710 C1713 1.511 . S
C1711 C1707 1.376 . S
C1711 C1710 1.392 . S
C1711 H1723 0.929 . S
C1712 C1708 1.531 . S
C1712 H1724 0.960 . S
C1712 H1725 0.962 . S
C1712 H1726 0.960 . S
C1713 C1710 1.511 . S
C1713 H1727 0.961 . S
C1713 H1728 0.961 . S
C1713 H1729 0.961 . S
C1714 C1715 1.370 . S
C1714 C1716 1.363 . S
C1714 H1730 0.931 . S
C1715 C1714 1.370 . S
C1715 C1719 1.408 . S
C1716 C1714 1.363 . S
C1716 C1717 1.370 . S
C1716 C1720 1.524 . S
C1717 C1709 1.503 . S
C1717 C1716 1.370 . S
C1717 C1718 1.403 . S
C1718 C1717 1.403 . S
C1718 C1719 1.404 . S
C1718 C1721 1.539 . S
C1719 C1715 1.408 . S
C1719 C1718 1.404 . S
C1719 H1731 0.930 . S
C1720 C1716 1.524 . S
C1720 H1732 0.956 . S
C1720 H1733 0.961 . S
C1720 H1734 0.961 . S
C1721 C1718 1.539 . S
C1721 H1735 0.958 . S
C1721 H1736 0.961 . S
C1721 H1737 0.960 . S
H1722 C1706 0.931 . S
H1723 C1711 0.929 . S
H1724 C1712 0.960 . S
H1725 C1712 0.962 . S
H1726 C1712 0.960 . S
H1727 C1713 0.961 . S
H1728 C1713 0.961 . S
H1729 C1713 0.961 . S
H1730 C1714 0.931 . S
H1731 C1719 0.930 . S
H1732 C1720 0.956 . S
H1733 C1720 0.961 . S
H1734 C1720 0.961 . S
H1735 C1721 0.958 . S
H1736 C1721 0.961 . S
H1737 C1721 0.960 . S
C1738 C1739 1.391 . S
C1738 C1740 1.394 . S
C1738 H1754 0.931 . S
C1739 C1738 1.391 . S
C1739 C1743 1.376 . S
C1740 C1738 1.394 . S
C1740 C1741 1.369 . S
C1740 C1744 1.531 . S
C1741 C1740 1.369 . S
C1741 C1742 1.410 . S
C1741 C1749 1.503 . S
C1742 C1741 1.410 . S
C1742 C1743 1.392 . S
C1742 C1745 1.511 . S
C1743 C1739 1.376 . S
C1743 C1742 1.392 . S
C1743 H1755 0.929 . S
C1744 C1740 1.531 . S
C1744 H1756 0.960 . S
C1744 H1757 0.962 . S
C1744 H1758 0.960 . S
C1745 C1742 1.511 . S
C1745 H1759 0.961 . S
C1745 H1760 0.961 . S
C1745 H1761 0.961 . S
C1746 C1747 1.370 . S
C1746 C1748 1.363 . S
C1746 H1762 0.931 . S
C1747 C1746 1.370 . S
C1747 C1751 1.408 . S
C1748 C1746 1.363 . S
C1748 C1749 1.370 . S
C1748 C1752 1.524 . S
C1749 C1741 1.503 . S
C1749 C1748 1.370 . S
C1749 C1750 1.403 . S
C1750 C1749 1.403 . S
C1750 C1751 1.404 . S
C1750 C1753 1.539 . S
C1751 C1747 1.408 . S
C1751 C1750 1.404 . S
C1751 H1763 0.930 . S
C1752 C1748 1.524 . S
C1752 H1764 0.956 . S
C1752 H1765 0.961 . S
C1752 H1766 0.961 . S
C1753 C1750 1.539 . S
C1753 H1767 0.958 . S
C1753 H1768 0.961 . S
C1753 H1769 0.960 . S
H1754 C1738 0.931 . S
H1755 C1743 0.929 . S
H1756 C1744 0.960 . S
H1757 C1744 0.962 . S
H1758 C1744 0.960 . S
H1759 C1745 0.961 . S
H1760 C1745 0.961 . S
H1761 C1745 0.961 . S
H1762 C1746 0.931 . S
H1763 C1751 0.930 . S
H1764 C1752 0.956 . S
H1765 C1752 0.961 . S
H1766 C1752 0.961 . S
H1767 C1753 0.958 . S
H1768 C1753 0.961 . S
H1769 C1753 0.960 . S
C1003 C39 1.896 . S
C1011 C347 1.687 . S
C1035 C91 1.920 . S
C1043 C487 1.674 . S
C1075 C575 1.528 . S
C1067 C128 1.678 . S
C1107 C715 1.484 . S
C1099 C188 1.702 . S
C1139 C829 1.589 . S
C1131 C250 1.820 . S
C1171 C899 1.019 . S
C1163 C304 1.893 . S
C1195 C75 1.761 . S
C1203 C557 1.007 . S
C1227 C144 1.775 . S
C1235 C661 1.321 . S
C1267 C775 1.320 . S
C1259 C198 1.762 . S
C1299 C917 1.485 . S
C1291 C234 1.647 . S
C1323 C294 1.785 . S
C1331 C329 0.885 . S
C1363 C433 1.099 . S
C1355 C29 1.546 . S
C1395 C671 1.564 . S
C1387 C38 1.994 . S
C1419 C92 1.982 . S
C1427 C785 1.481 . S
C1459 C943 1.234 . S
C1451 C135 1.955 . S
C1483 C181 1.662 . S
C1491 C319 1.408 . S
C1515 C251 2.052 . S
C1523 C443 1.483 . S
C1547 C303 1.829 . S
C1555 C547 1.613 . S
C1579 C82 1.793 . S
C1587 C889 1.597 . S
C1619 C373 1.234 . S
C1611 C145 1.995 . S
C1643 C197 1.863 . S
C1651 C461 1.336 . S
C1675 C241 1.821 . S
C1683 C601 1.082 . S
C1707 C287 1.687 . S
C1715 C689 1.222 . S
C1739 C22 1.774 . S
C1747 C803 1.285 . S
