# Generated by pormake.
# Topology hwx, (6,3)-cn, num edge types: 1
# Building blocks:
#     Node 0, Type 0, BuildingBlock: IZENUY_clean_sbu_0, # of connection points: 6
#     Node 1, Type 0, BuildingBlock: IZENUY_clean_sbu_0, # of connection points: 6
#     Node 2, Type 0, BuildingBlock: IZENUY_clean_sbu_0, # of connection points: 6
#     Node 3, Type 0, BuildingBlock: IZENUY_clean_sbu_0, # of connection points: 6
#     Node 4, Type 1, BuildingBlock: MIDCAF_clean_linker_0, # of connection points: 3
#     Node 5, Type 1, BuildingBlock: MIDCAF_clean_linker_0, # of connection points: 3
#     Node 6, Type 1, BuildingBlock: MIDCAF_clean_linker_0, # of connection points: 3
#     Node 7, Type 1, BuildingBlock: MIDCAF_clean_linker_0, # of connection points: 3
#     Node 8, Type 1, BuildingBlock: MIDCAF_clean_linker_0, # of connection points: 3
#     Node 9, Type 1, BuildingBlock: MIDCAF_clean_linker_0, # of connection points: 3
#     Node 10, Type 1, BuildingBlock: MIDCAF_clean_linker_0, # of connection points: 3
#     Node 11, Type 1, BuildingBlock: MIDCAF_clean_linker_0, # of connection points: 3
#     Edge 12, Type (0, 1), BuildingBlock: ZUJKAS_clean_linker_0, # of connection points: 2
#     Edge 13, Type (0, 1), BuildingBlock: ZUJKAS_clean_linker_0, # of connection points: 2
#     Edge 14, Type (0, 1), BuildingBlock: ZUJKAS_clean_linker_0, # of connection points: 2
#     Edge 15, Type (0, 1), BuildingBlock: ZUJKAS_clean_linker_0, # of connection points: 2
#     Edge 16, Type (0, 1), BuildingBlock: ZUJKAS_clean_linker_0, # of connection points: 2
#     Edge 17, Type (0, 1), BuildingBlock: ZUJKAS_clean_linker_0, # of connection points: 2
#     Edge 18, Type (0, 1), BuildingBlock: ZUJKAS_clean_linker_0, # of connection points: 2
#     Edge 19, Type (0, 1), BuildingBlock: ZUJKAS_clean_linker_0, # of connection points: 2
#     Edge 20, Type (0, 1), BuildingBlock: ZUJKAS_clean_linker_0, # of connection points: 2
#     Edge 21, Type (0, 1), BuildingBlock: ZUJKAS_clean_linker_0, # of connection points: 2
#     Edge 22, Type (0, 1), BuildingBlock: ZUJKAS_clean_linker_0, # of connection points: 2
#     Edge 23, Type (0, 1), BuildingBlock: ZUJKAS_clean_linker_0, # of connection points: 2
#     Edge 24, Type (0, 1), BuildingBlock: ZUJKAS_clean_linker_0, # of connection points: 2
#     Edge 25, Type (0, 1), BuildingBlock: ZUJKAS_clean_linker_0, # of connection points: 2
#     Edge 26, Type (0, 1), BuildingBlock: ZUJKAS_clean_linker_0, # of connection points: 2
#     Edge 27, Type (0, 1), BuildingBlock: ZUJKAS_clean_linker_0, # of connection points: 2
#     Edge 28, Type (0, 1), BuildingBlock: ZUJKAS_clean_linker_0, # of connection points: 2
#     Edge 29, Type (0, 1), BuildingBlock: ZUJKAS_clean_linker_0, # of connection points: 2
#     Edge 30, Type (0, 1), BuildingBlock: ZUJKAS_clean_linker_0, # of connection points: 2
#     Edge 31, Type (0, 1), BuildingBlock: ZUJKAS_clean_linker_0, # of connection points: 2
#     Edge 32, Type (0, 1), BuildingBlock: ZUJKAS_clean_linker_0, # of connection points: 2
#     Edge 33, Type (0, 1), BuildingBlock: ZUJKAS_clean_linker_0, # of connection points: 2
#     Edge 34, Type (0, 1), BuildingBlock: ZUJKAS_clean_linker_0, # of connection points: 2
#     Edge 35, Type (0, 1), BuildingBlock: ZUJKAS_clean_linker_0, # of connection points: 2
# Relax obj value: 0.053
# Max RMSD: 0.077
# Mean RMSD: 0.069
data_MOF--net-hwx--node1-IZENUY_clean_sbu_0--node2-MIDCAF_clean_linker_0--edge1-ZUJKAS_clean_linker_0
_symmetry_space_group_name_H-M    P1
_symmetry_Int_Tables_number       1
_symmetry_cell_setting            triclinic
loop_
_symmetry_equiv_pos_as_xyz
'x, y, z'
_cell_length_a     71.343044
_cell_length_b     71.330875
_cell_length_c     34.738184
_cell_angle_alpha  89.875351
_cell_angle_beta   90.151997
_cell_angle_gamma 90.002495
loop_
_atom_site_label
_atom_site_type_symbol
_atom_site_fract_x
_atom_site_fract_y
_atom_site_fract_z
_atom_type_partial_charge
Fe0 Fe 0.23656 0.20646 0.04601 0.0
Fe1 Fe 0.23662 0.2066 0.95779 0.0
O2 O 0.23164 0.19516 0.00183 0.0
Fe3 Fe 0.2218 0.17236 0.00168 0.0
O4 O 0.20129 0.18026 0.02755 0.0
O5 O 0.21682 0.19577 0.07196 0.0
O6 O 0.221 0.22576 0.03438 0.0
C7 C 0.22252 0.2359 0.00477 0.0
C8 C 0.24798 0.17086 0.06308 0.0
O9 O 0.23185 0.23032 0.97598 0.0
C10 C 0.24725 0.16893 0.94365 0.0
O11 O 0.25717 0.21921 0.02806 0.0
O12 O 0.26129 0.20831 0.96961 0.0
O13 O 0.23345 0.16474 0.04628 0.0
O14 O 0.25249 0.18791 0.06054 0.0
C15 C 0.20291 0.19069 0.94027 0.0
O16 O 0.24232 0.18497 0.93157 0.0
O17 O 0.2417 0.16296 0.97585 0.0
C18 C 0.26764 0.21621 0.99933 0.0
O19 O 0.21227 0.20562 0.94309 0.0
O20 O 0.2083 0.17584 0.95706 0.0
C21 C 0.20182 0.18827 0.05985 0.0
Fe22 Fe 0.26422 0.70675 0.54439 0.0
Fe23 Fe 0.27983 0.67303 0.50014 0.0
O24 O 0.26946 0.6956 0.50023 0.0
Fe25 Fe 0.26428 0.70699 0.45617 0.0
O26 O 0.27946 0.72655 0.46802 0.0
O27 O 0.26847 0.73065 0.5264 0.0
O28 O 0.28858 0.70625 0.5591 0.0
C29 C 0.29832 0.69155 0.56167 0.0
C30 C 0.23302 0.71589 0.50291 0.0
O31 O 0.29332 0.67665 0.54468 0.0
C32 C 0.25361 0.67123 0.43878 0.0
O33 O 0.25904 0.6849 0.57044 0.0
O34 O 0.26019 0.66305 0.52606 0.0
O35 O 0.24345 0.71924 0.47427 0.0
O36 O 0.2395 0.70796 0.53256 0.0
C37 C 0.29939 0.6897 0.44205 0.0
O38 O 0.26826 0.66534 0.45556 0.0
O39 O 0.24875 0.68818 0.44146 0.0
C40 C 0.25458 0.66874 0.55838 0.0
O41 O 0.30013 0.68148 0.47418 0.0
O42 O 0.2842 0.69687 0.43007 0.0
C43 C 0.27775 0.73652 0.49773 0.0
Fe44 Fe 0.76499 0.80175 0.95935 0.0
Fe45 Fe 0.76569 0.80142 0.04758 0.0
O46 O 0.77025 0.81298 0.00343 0.0
Fe47 Fe 0.78008 0.83576 0.00327 0.0
O48 O 0.75998 0.84532 0.97786 0.0
O49 O 0.75924 0.82348 0.93344 0.0
O50 O 0.74041 0.80008 0.97157 0.0
C51 C 0.73423 0.79207 0.00134 0.0
C52 C 0.79864 0.81766 0.94166 0.0
O53 O 0.74489 0.78885 0.02984 0.0
C54 C 0.80058 0.8194 0.06064 0.0
O55 O 0.76975 0.77795 0.97712 0.0
O56 O 0.78113 0.78214 0.03524 0.0
O57 O 0.79326 0.83247 0.95839 0.0
O58 O 0.78928 0.80273 0.94437 0.0
C59 C 0.75444 0.83695 0.06551 0.0
O60 O 0.78567 0.81194 0.0732 0.0
O61 O 0.80079 0.82767 0.02855 0.0
C62 C 0.77937 0.7722 0.00547 0.0
O63 O 0.74995 0.8199 0.06292 0.0
O64 O 0.76875 0.8432 0.04819 0.0
C65 C 0.75432 0.83946 0.94564 0.0
Fe66 Fe 0.72048 0.33609 0.50276 0.0
Fe67 Fe 0.73576 0.30218 0.54751 0.0
O68 O 0.73073 0.31348 0.50321 0.0
Fe69 Fe 0.73598 0.30215 0.45925 0.0
O70 O 0.74115 0.32381 0.43273 0.0
O71 O 0.74015 0.3459 0.47655 0.0
O72 O 0.73213 0.34399 0.54704 0.0
C73 C 0.74658 0.33802 0.56442 0.0
C74 C 0.70187 0.31729 0.44179 0.0
O75 O 0.75126 0.32099 0.56243 0.0
C76 C 0.72245 0.27251 0.5061 0.0
O77 O 0.70012 0.32789 0.52894 0.0
O78 O 0.71583 0.31245 0.57329 0.0
O79 O 0.71161 0.30259 0.44446 0.0
O80 O 0.70696 0.33226 0.4584 0.0
C81 C 0.76713 0.2932 0.5011 0.0
O82 O 0.72059 0.28255 0.5357 0.0
O83 O 0.73179 0.27836 0.47756 0.0
C84 C 0.70077 0.31987 0.56128 0.0
O85 O 0.75665 0.28991 0.52971 0.0
O86 O 0.76069 0.30099 0.47124 0.0
C87 C 0.74571 0.34 0.44436 0.0
C88 C 0.18833 0.56376 0.09566 0.0
C89 C 0.18766 0.55554 0.13238 0.0
C90 C 0.18345 0.53635 0.1356 0.0
C91 C 0.18051 0.52549 0.10258 0.0
H92 H 0.18274 0.47033 0.06299 0.0
H93 H 0.18461 0.43626 0.06511 0.0
H94 H 0.17298 0.43392 0.94309 0.0
H95 H 0.17158 0.46795 0.94067 0.0
H96 H 0.18025 0.50462 0.89063 0.0
H97 H 0.1843 0.52063 0.82906 0.0
H98 H 0.18248 0.57411 0.88701 0.0
H99 H 0.17812 0.55829 0.94823 0.0
H100 H 0.18611 0.55985 0.035 0.0
H101 H 0.19129 0.57857 0.09232 0.0
H102 H 0.18292 0.52965 0.16358 0.0
H103 H 0.17763 0.51067 0.10598 0.0
N104 N 0.17846 0.50319 0.0323 0.0
N105 N 0.17716 0.50156 0.96482 0.0
N106 N 0.17919 0.5307 0.99537 0.0
C107 C 0.17729 0.49276 0.9996 0.0
C108 C 0.17806 0.52055 0.96247 0.0
C109 C 0.17936 0.52221 0.03037 0.0
C110 C 0.17715 0.47196 0.00159 0.0
C111 C 0.18047 0.46257 0.03661 0.0
C112 C 0.18145 0.44299 0.03789 0.0
C113 C 0.17906 0.43232 0.00423 0.0
C114 C 0.17525 0.4417 0.96944 0.0
C115 C 0.17435 0.46125 0.96811 0.0
C116 C 0.17899 0.53013 0.92455 0.0
C117 C 0.1805 0.5198 0.89023 0.0
C118 C 0.18291 0.52897 0.85493 0.0
C119 C 0.18377 0.54864 0.85313 0.0
C120 C 0.18165 0.55895 0.88726 0.0
C121 C 0.17929 0.54983 0.9225 0.0
C122 C 0.18154 0.53367 0.06573 0.0
C123 C 0.18525 0.55299 0.06278 0.0
C124 C 0.92411 0.83513 0.59891 0.0
C125 C 0.93147 0.82888 0.63424 0.0
C126 C 0.95036 0.82332 0.63601 0.0
C127 C 0.96148 0.82351 0.60292 0.0
H128 H 0.01576 0.81636 0.56374 0.0
H129 H 0.04762 0.80425 0.56642 0.0
H130 H 0.04791 0.79898 0.44252 0.0
H131 H 0.01628 0.81155 0.43963 0.0
H132 H 0.98233 0.82904 0.3914 0.0
H133 H 0.96609 0.83157 0.32974 0.0
H134 H 0.9134 0.838 0.38938 0.0
H135 H 0.92955 0.83606 0.45066 0.0
H136 H 0.92892 0.83998 0.53911 0.0
H137 H 0.90973 0.83987 0.59673 0.0
H138 H 0.95641 0.81832 0.66275 0.0
H139 H 0.97586 0.81876 0.60516 0.0
N140 N 0.98355 0.82314 0.53285 0.0
N141 N 0.98514 0.82458 0.46544 0.0
N142 N 0.95699 0.83145 0.49693 0.0
C143 C 0.99363 0.82133 0.49991 0.0
C144 C 0.96682 0.8297 0.46373 0.0
C145 C 0.96522 0.82825 0.5316 0.0
C146 C 0.01337 0.81487 0.50147 0.0
C147 C 0.02263 0.81273 0.537 0.0
C148 C 0.04089 0.80568 0.53859 0.0
C149 C 0.0503 0.80053 0.50472 0.0
C150 C 0.04117 0.80302 0.46915 0.0
C151 C 0.02296 0.81015 0.46753 0.0
C152 C 0.95727 0.83228 0.4261 0.0
C153 C 0.9673 0.83116 0.39136 0.0
C154 C 0.95798 0.83252 0.35598 0.0
C155 C 0.93843 0.83497 0.35455 0.0
C156 C 0.9285 0.83644 0.38931 0.0
C157 C 0.93779 0.83518 0.42459 0.0
C158 C 0.95394 0.82926 0.56733 0.0
C159 C 0.93519 0.83529 0.56588 0.0
C160 C 0.82491 0.44554 0.9013 0.0
C161 C 0.81883 0.45407 0.86697 0.0
C162 C 0.81687 0.47369 0.86595 0.0
C163 C 0.82009 0.48442 0.89903 0.0
H164 H 0.82811 0.53922 0.94115 0.0
H165 H 0.82628 0.57333 0.94102 0.0
H166 H 0.8202 0.57298 0.06473 0.0
H167 H 0.82249 0.53903 0.06509 0.0
H168 H 0.81661 0.50073 0.10904 0.0
H169 H 0.81087 0.48294 0.16777 0.0
H170 H 0.8276 0.43207 0.10994 0.0
H171 H 0.8328 0.44971 0.05098 0.0
H172 H 0.83227 0.44904 0.96045 0.0
H173 H 0.82697 0.43051 0.90287 0.0
H174 H 0.81208 0.4807 0.84005 0.0
H175 H 0.81781 0.49941 0.8976 0.0
N176 N 0.82623 0.50567 0.96982 0.0
N177 N 0.82603 0.506 0.03741 0.0
N178 N 0.82654 0.47742 0.00444 0.0
C179 C 0.82614 0.51548 0.0034 0.0
C180 C 0.82631 0.48697 0.03816 0.0
C181 C 0.82649 0.4866 0.97016 0.0
C182 C 0.82543 0.53629 0.00311 0.0
C183 C 0.82645 0.5464 0.96836 0.0
C184 C 0.82531 0.56598 0.96825 0.0
C185 C 0.82307 0.57593 0.00286 0.0
C186 C 0.82221 0.56582 0.03759 0.0
C187 C 0.82341 0.54628 0.03774 0.0
C188 C 0.82494 0.47663 0.07511 0.0
C189 C 0.81927 0.48578 0.10895 0.0
C190 C 0.81606 0.47558 0.14273 0.0
C191 C 0.81856 0.45603 0.14349 0.0
C192 C 0.82511 0.44705 0.11014 0.0
C193 C 0.82818 0.4572 0.07634 0.0
C194 C 0.82526 0.47573 0.93386 0.0
C195 C 0.82803 0.45621 0.93432 0.0
C196 C 0.07036 0.16496 0.38759 0.0
C197 C 0.0628 0.17236 0.35342 0.0
C198 C 0.0451 0.18096 0.35443 0.0
C199 C 0.03538 0.18258 0.38915 0.0
H200 H 0.9832 0.19332 0.43598 0.0
H201 H 0.95174 0.20641 0.43688 0.0
H202 H 0.95679 0.21624 0.55915 0.0
H203 H 0.98811 0.20274 0.55857 0.0
H204 H 0.02541 0.19167 0.6019 0.0
H205 H 0.04494 0.19186 0.65962 0.0
H206 H 0.09067 0.16794 0.59497 0.0
H207 H 0.0714 0.168 0.53723 0.0
H208 H 0.06721 0.16127 0.44828 0.0
H209 H 0.08406 0.15841 0.38774 0.0
H210 H 0.03888 0.18665 0.32843 0.0
H211 H 0.02194 0.18965 0.38905 0.0
N212 N 0.01596 0.18547 0.46223 0.0
N213 N 0.01765 0.18753 0.52954 0.0
N214 N 0.04362 0.17711 0.49441 0.0
C215 C 0.00768 0.18958 0.49637 0.0
C216 C 0.03562 0.18124 0.5288 0.0
C217 C 0.03391 0.17918 0.46101 0.0
C218 C 0.98827 0.197 0.49719 0.0
C219 C 0.97762 0.1982 0.46314 0.0
C220 C 0.9596 0.20582 0.46358 0.0
C221 C 0.95178 0.21247 0.49804 0.0
C222 C 0.96231 0.21105 0.53219 0.0
C223 C 0.98033 0.20338 0.53179 0.0
C224 C 0.04685 0.17999 0.56472 0.0
C225 C 0.03958 0.18632 0.6 0.0
C226 C 0.05075 0.18637 0.63316 0.0
C227 C 0.06941 0.1801 0.63177 0.0
C228 C 0.07646 0.17322 0.59682 0.0
C229 C 0.06534 0.17317 0.56372 0.0
C230 C 0.04327 0.17583 0.42364 0.0
C231 C 0.06075 0.16673 0.42234 0.0
C232 C 0.68073 0.94558 0.39945 0.0
C233 C 0.68313 0.95477 0.36399 0.0
C234 C 0.68283 0.97448 0.36314 0.0
C235 C 0.68063 0.98476 0.39713 0.0
H236 H 0.67517 0.03888 0.44098 0.0
H237 H 0.67676 0.073 0.44107 0.0
H238 H 0.68402 0.07248 0.56458 0.0
H239 H 0.68195 0.03851 0.56474 0.0
H240 H 0.688 1.00021 0.60845 0.0
H241 H 0.6928 0.98259 0.66775 0.0
H242 H 0.67644 0.93165 0.60949 0.0
H243 H 0.67225 0.94912 0.54995 0.0
H244 H 0.67711 0.94816 0.46015 0.0
H245 H 0.68114 0.93042 0.40128 0.0
H246 H 0.68442 0.98199 0.33622 0.0
H247 H 0.68078 0.99992 0.39549 0.0
N248 N 0.67783 0.00531 0.46925 0.0
N249 N 0.67853 0.00548 0.53681 0.0
N250 N 0.67824 0.97697 0.50354 0.0
C251 C 0.67805 0.01504 0.50292 0.0
C252 C 0.67854 0.98645 0.53737 0.0
C253 C 0.67791 0.98624 0.46935 0.0
C254 C 0.67847 0.03586 0.50283 0.0
C255 C 0.67701 0.04602 0.46821 0.0
C256 C 0.67801 0.06561 0.46822 0.0
C257 C 0.68055 0.07551 0.50282 0.0
C258 C 0.68177 0.06536 0.53746 0.0
C259 C 0.68071 0.0458 0.53748 0.0
C260 C 0.67991 0.97607 0.57428 0.0
C261 C 0.68528 0.98527 0.60833 0.0
C262 C 0.68795 0.97517 0.64245 0.0
C263 C 0.68516 0.95565 0.6434 0.0
C264 C 0.67913 0.94659 0.60965 0.0
C265 C 0.67663 0.95665 0.57549 0.0
C266 C 0.67875 0.97553 0.43276 0.0
C267 C 0.67856 0.95581 0.43336 0.0
C268 C 0.57376 0.3429 0.89823 0.0
C269 C 0.56632 0.33681 0.86293 0.0
C270 C 0.54766 0.33051 0.86161 0.0
C271 C 0.53694 0.32959 0.89525 0.0
H272 H 0.48373 0.31843 0.93762 0.0
H273 H 0.45211 0.30564 0.93641 0.0
H274 H 0.45416 0.29796 0.05976 0.0
H275 H 0.48555 0.31115 0.06125 0.0
H276 H 0.52143 0.32266 0.10791 0.0
H277 H 0.53927 0.32333 0.16791 0.0
H278 H 0.5878 0.34337 0.10611 0.0
H279 H 0.57002 0.3431 0.04652 0.0
H280 H 0.56949 0.34647 0.95852 0.0
H281 H 0.58796 0.3482 0.90005 0.0
H282 H 0.54156 0.32564 0.83486 0.0
H283 H 0.52279 0.32415 0.89344 0.0
N284 N 0.51605 0.3264 0.96678 0.0
N285 N 0.51591 0.32526 0.03431 0.0
N286 N 0.54298 0.33462 0.00155 0.0
C287 C 0.5068 0.32293 0.00023 0.0
C288 C 0.534 0.33117 0.03521 0.0
C289 C 0.53415 0.3323 0.96723 0.0
C290 C 0.48727 0.3158 0.99953 0.0
C291 C 0.47744 0.31411 0.96455 0.0
C292 C 0.45932 0.30666 0.9638 0.0
C293 C 0.45062 0.3007 0.99796 0.0
C294 C 0.46035 0.30264 0.03297 0.0
C295 C 0.47843 0.31013 0.03376 0.0
C296 C 0.54429 0.33273 0.07223 0.0
C297 C 0.53585 0.32739 0.10715 0.0
C298 C 0.5461 0.32766 0.14154 0.0
C299 C 0.56496 0.33336 0.14179 0.0
C300 C 0.57322 0.33914 0.10706 0.0
C301 C 0.56302 0.33885 0.07275 0.0
C302 C 0.54468 0.33495 0.93087 0.0
C303 C 0.5631 0.34198 0.93176 0.0
C304 C 0.32546 0.06047 0.61346 0.0
C305 C 0.31845 0.05148 0.64649 0.0
C306 C 0.31491 0.03209 0.64499 0.0
C307 C 0.31759 0.0221 0.61079 0.0
H308 H 0.32841 0.96869 0.56347 0.0
H309 H 0.3264 0.93468 0.56153 0.0
H310 H 0.31637 0.93699 0.43889 0.0
H311 H 0.31886 0.97101 0.44055 0.0
H312 H 0.32472 0.01085 0.39666 0.0
H313 H 0.3197 0.02972 0.3386 0.0
H314 H 0.3137 0.07927 0.40855 0.0
H315 H 0.31864 0.06069 0.46629 0.0
H316 H 0.33294 0.05807 0.55419 0.0
H317 H 0.32879 0.07528 0.61382 0.0
H318 H 0.30936 0.02473 0.66977 0.0
H319 H 0.31415 0.00732 0.61024 0.0
N320 N 0.3245 0.00244 0.53822 0.0
N321 N 0.32375 0.00377 0.47064 0.0
N322 N 0.32406 0.03147 0.50669 0.0
C323 C 0.32425 0.99347 0.50367 0.0
C324 C 0.32367 0.02282 0.47196 0.0
C325 C 0.3245 0.02146 0.5399 0.0
C326 C 0.32372 0.97267 0.50219 0.0
C327 C 0.32585 0.96199 0.53601 0.0
C328 C 0.3246 0.94245 0.53495 0.0
C329 C 0.32111 0.93307 0.5001 0.0
C330 C 0.31929 0.94372 0.46617 0.0
C331 C 0.32062 0.96327 0.46718 0.0
C332 C 0.32195 0.03418 0.43627 0.0
C333 C 0.32245 0.02578 0.39966 0.0
C334 C 0.31967 0.03658 0.36638 0.0
C335 C 0.31615 0.05591 0.36915 0.0
C336 C 0.31611 0.06435 0.4056 0.0
C337 C 0.31905 0.05366 0.43871 0.0
C338 C 0.32369 0.03135 0.57731 0.0
C339 C 0.32794 0.05056 0.57928 0.0
C340 C 0.4298 0.66677 0.11151 0.0
C341 C 0.4373 0.67448 0.14538 0.0
C342 C 0.45516 0.68276 0.14422 0.0
C343 C 0.46511 0.68373 0.10966 0.0
H344 H 0.51567 0.69875 0.06409 0.0
H345 H 0.54712 0.71176 0.06265 0.0
H346 H 0.54798 0.70644 0.93879 0.0
H347 H 0.51628 0.69384 0.94 0.0
H348 H 0.47812 0.6857 0.89619 0.0
H349 H 0.45952 0.68475 0.83728 0.0
H350 H 0.41084 0.66855 0.90316 0.0
H351 H 0.42939 0.66906 0.96178 0.0
H352 H 0.43324 0.66215 0.05119 0.0
H353 H 0.41598 0.66045 0.11144 0.0
H354 H 0.46134 0.68868 0.16999 0.0
H355 H 0.47868 0.69052 0.10964 0.0
N356 N 0.48511 0.68506 0.03709 0.0
N357 N 0.48421 0.68537 0.96959 0.0
N358 N 0.45767 0.67632 0.0046 0.0
C359 C 0.49383 0.68815 0.00293 0.0
C360 C 0.46611 0.67944 0.97018 0.0
C361 C 0.46706 0.67905 0.03817 0.0
C362 C 0.51335 0.69528 0.00214 0.0
C363 C 0.52254 0.70026 0.0365 0.0
C364 C 0.54066 0.70765 0.03572 0.0
C365 C 0.55008 0.71017 0.00061 0.0
C366 C 0.54101 0.70495 0.96629 0.0
C367 C 0.52285 0.69761 0.96703 0.0
C368 C 0.45527 0.67756 0.93389 0.0
C369 C 0.4635 0.68176 0.89812 0.0
C370 C 0.45281 0.68132 0.86433 0.0
C371 C 0.43367 0.67665 0.86551 0.0
C372 C 0.4256 0.67197 0.90111 0.0
C373 C 0.43625 0.67239 0.93485 0.0
C374 C 0.4573 0.6766 0.07545 0.0
C375 C 0.43965 0.66787 0.07691 0.0
H376 H 0.19668 0.20611 0.12847 0.0
H377 H 0.17091 0.20201 0.1738 0.0
H378 H 0.1445 0.16279 0.09646 0.0
H379 H 0.17006 0.16709 0.05043 0.0
H380 H 0.11924 0.18727 0.12898 0.0
H381 H 0.16485 0.15564 0.24093 0.0
H382 H 0.17289 0.17826 0.22548 0.0
H383 H 0.17251 0.15906 0.19195 0.0
C384 C 0.18537 0.19665 0.12098 0.0
C385 C 0.18555 0.18675 0.08602 0.0
C386 C 0.1707 0.19426 0.14703 0.0
C387 C 0.15604 0.18176 0.13887 0.0
C388 C 0.15578 0.17238 0.10342 0.0
H389 H 0.08261 0.14314 0.32293 0.0
H390 H 0.10355 0.1439 0.2672 0.0
C391 C 0.17041 0.17486 0.07718 0.0
C392 C 0.14115 0.17832 0.16765 0.0
H393 H 0.13424 0.16481 0.26076 0.0
C394 C 0.12246 0.18222 0.15772 0.0
C395 C 0.14535 0.17134 0.20482 0.0
C396 C 0.16496 0.16564 0.21636 0.0
C397 C 0.10793 0.17996 0.18452 0.0
C398 C 0.1123 0.17402 0.2224 0.0
C399 C 0.13091 0.16952 0.23183 0.0
C400 C 0.09802 0.17298 0.25326 0.0
C401 C 0.08805 0.18384 0.1719 0.0
C402 C 0.08785 0.18901 0.26372 0.0
C403 C 0.07581 0.18857 0.29536 0.0
C404 C 0.07395 0.17215 0.31748 0.0
C405 C 0.08386 0.156 0.30652 0.0
C406 C 0.09577 0.15641 0.27467 0.0
H407 H 0.0864 0.18215 0.14028 0.0
H408 H 0.07798 0.17438 0.18661 0.0
H409 H 0.08439 0.19853 0.17913 0.0
H410 H 0.08974 0.2021 0.24835 0.0
H411 H 0.0686 0.20131 0.30352 0.0
H412 H 0.24438 0.67471 0.63314 0.0
H413 H 0.23034 0.6523 0.6778 0.0
H414 H 0.22848 0.61063 0.58821 0.0
H415 H 0.24256 0.63297 0.54303 0.0
H416 H 0.19433 0.61455 0.63738 0.0
H417 H 0.26103 0.60573 0.71849 0.0
H418 H 0.25377 0.62957 0.71061 0.0
H419 H 0.26016 0.61524 0.67028 0.0
C420 C 0.2409 0.66083 0.62273 0.0
C421 C 0.24479 0.65558 0.58456 0.0
C422 C 0.23291 0.64804 0.64836 0.0
C423 C 0.22862 0.62979 0.63634 0.0
C424 C 0.23179 0.62466 0.59797 0.0
H425 H 0.20948 0.53874 0.7986 0.0
H426 H 0.21893 0.55668 0.74182 0.0
C427 C 0.23988 0.63743 0.57228 0.0
C428 C 0.22148 0.61593 0.6644 0.0
H429 H 0.2338 0.59233 0.74611 0.0
C430 C 0.20295 0.60955 0.66104 0.0
C431 C 0.23288 0.6093 0.69483 0.0
C432 C 0.25313 0.61515 0.69877 0.0
C433 C 0.19531 0.59711 0.68823 0.0
C434 C 0.20651 0.59108 0.71958 0.0
C435 C 0.22522 0.59703 0.72214 0.0
C436 C 0.19905 0.57913 0.75093 0.0
C437 C 0.17538 0.5905 0.68317 0.0
C438 C 0.18457 0.58569 0.77459 0.0
C439 C 0.17906 0.57543 0.80696 0.0
C440 C 0.18803 0.55845 0.8164 0.0
C441 C 0.20212 0.55163 0.79189 0.0
C442 C 0.20762 0.56191 0.75956 0.0
H443 H 0.17059 0.59204 0.65286 0.0
H444 H 0.17386 0.5756 0.69195 0.0
H445 H 0.16603 0.59909 0.70155 0.0
H446 H 0.17799 0.5991 0.76886 0.0
H447 H 0.16806 0.58098 0.82507 0.0
H448 H 0.83592 0.83129 0.04172 0.0
H449 H 0.86339 0.83313 0.08392 0.0
H450 H 0.83059 0.81162 0.17833 0.0
H451 H 0.80327 0.80928 0.13633 0.0
H452 H 0.86846 0.8536 0.14784 0.0
H453 H 0.87621 0.77859 0.18438 0.0
H454 H 0.86137 0.7866 0.14553 0.0
H455 H 0.85295 0.78671 0.19439 0.0
C456 C 0.8346 0.8268 0.0714 0.0
C457 C 0.81741 0.82008 0.08563 0.0
C458 C 0.85032 0.82786 0.09544 0.0
C459 C 0.84913 0.8222 0.13408 0.0
C460 C 0.83198 0.81557 0.14835 0.0
H461 H 0.90848 0.85683 0.33376 0.0
H462 H 0.88924 0.8542 0.27598 0.0
C463 C 0.81632 0.81437 0.12432 0.0
C464 C 0.86547 0.82413 0.16021 0.0
H465 H 0.8909 0.80045 0.22787 0.0
C466 C 0.87358 0.84192 0.16493 0.0
C467 C 0.87245 0.80882 0.18188 0.0
C468 C 0.86542 0.78908 0.17598 0.0
C469 C 0.88775 0.84502 0.19228 0.0
C470 C 0.89361 0.83002 0.21617 0.0
C471 C 0.88624 0.81202 0.20994 0.0
C472 C 0.90639 0.83281 0.24942 0.0
C473 C 0.89619 0.86435 0.19538 0.0
C474 C 0.92233 0.82148 0.25409 0.0
C475 C 0.93313 0.82263 0.28764 0.0
C476 C 0.92818 0.83513 0.31721 0.0
C477 C 0.91257 0.84689 0.31181 0.0
C478 C 0.9017 0.84562 0.27845 0.0
H479 H 0.89542 0.87191 0.16742 0.0
H480 H 0.88816 0.87262 0.21673 0.0
H481 H 0.91107 0.86374 0.20478 0.0
H482 H 0.92613 0.81139 0.23219 0.0
H483 H 0.94491 0.81318 0.29101 0.0
H484 H 0.74213 0.37586 0.57175 0.0
H485 H 0.75703 0.39662 0.61843 0.0
H486 H 0.78847 0.35 0.66441 0.0
H487 H 0.77388 0.32912 0.61727 0.0
H488 H 0.75382 0.39385 0.69577 0.0
H489 H 0.82874 0.39004 0.65468 0.0
H490 H 0.81012 0.38203 0.62348 0.0
H491 H 0.81825 0.36747 0.66244 0.0
C492 C 0.75238 0.37002 0.59147 0.0
C493 C 0.75674 0.35078 0.59086 0.0
C494 C 0.7609 0.38193 0.61812 0.0
C495 C 0.774 0.37492 0.64466 0.0
C496 C 0.7787 0.35581 0.64367 0.0
H497 H 0.79968 0.42091 0.86738 0.0
H498 H 0.78974 0.40217 0.81236 0.0
C499 C 0.77024 0.34386 0.61685 0.0
C500 C 0.78152 0.38732 0.67527 0.0
H501 H 0.82197 0.40375 0.71587 0.0
C502 C 0.76872 0.39612 0.69995 0.0
C503 C 0.80096 0.39043 0.68046 0.0
C504 C 0.81532 0.38215 0.65364 0.0
C505 C 0.77481 0.40758 0.73024 0.0
C506 C 0.79425 0.41003 0.73648 0.0
C507 C 0.80708 0.40167 0.71122 0.0
C508 C 0.80141 0.42092 0.76967 0.0
C509 C 0.76035 0.41704 0.7552 0.0
C510 C 0.81181 0.43738 0.76393 0.0
C511 C 0.81773 0.44808 0.79545 0.0
C512 C 0.81346 0.44239 0.83325 0.0
C513 C 0.80342 0.42562 0.83875 0.0
C514 C 0.79753 0.41498 0.80731 0.0
H515 H 0.7465 0.41789 0.74058 0.0
H516 H 0.75853 0.40881 0.78208 0.0
H517 H 0.76486 0.43142 0.76316 0.0
H518 H 0.81504 0.44213 0.73505 0.0
H519 H 0.82563 0.4608 0.79024 0.0
H520 H 0.6898 0.28971 0.39272 0.0
H521 H 0.66436 0.29171 0.34546 0.0
H522 H 0.65178 0.34783 0.38325 0.0
H523 H 0.67708 0.34601 0.43068 0.0
H524 H 0.6194 0.32339 0.37043 0.0
H525 H 0.66941 0.32586 0.24784 0.0
H526 H 0.67238 0.30669 0.28102 0.0
H527 H 0.67655 0.33026 0.2969 0.0
C528 C 0.68154 0.30243 0.39122 0.0
C529 C 0.68563 0.31779 0.41519 0.0
C530 C 0.66706 0.30355 0.36414 0.0
C531 C 0.6564 0.32 0.36065 0.0
C532 C 0.65992 0.33505 0.38549 0.0
H533 H 0.59071 0.35888 0.16763 0.0
H534 H 0.61179 0.35579 0.2229 0.0
C535 C 0.67443 0.33399 0.41246 0.0
C536 C 0.64214 0.3219 0.32994 0.0
H537 H 0.63719 0.32535 0.23249 0.0
C538 C 0.62323 0.32377 0.34024 0.0
C539 C 0.64729 0.32264 0.29071 0.0
C540 C 0.66751 0.32141 0.27825 0.0
C541 C 0.60925 0.32621 0.31212 0.0
C542 C 0.61439 0.32668 0.27287 0.0
C543 C 0.63332 0.32492 0.26266 0.0
C544 C 0.60046 0.32919 0.24169 0.0
C545 C 0.58915 0.32862 0.32455 0.0
C546 C 0.58702 0.31531 0.23422 0.0
C547 C 0.57503 0.31696 0.20249 0.0
C548 C 0.57636 0.33249 0.1776 0.0
C549 C 0.5895 0.34662 0.18591 0.0
C550 C 0.60149 0.34494 0.21756 0.0
H551 H 0.58805 0.33193 0.3557 0.0
H552 H 0.58225 0.33996 0.30777 0.0
H553 H 0.58138 0.31541 0.3191 0.0
H554 H 0.58623 0.30289 0.25215 0.0
H555 H 0.56526 0.3057 0.19659 0.0
H556 H 0.26055 0.13363 0.95937 0.0
H557 H 0.27675 0.11236 0.91535 0.0
H558 H 0.27354 0.15405 0.82546 0.0
H559 H 0.25774 0.17547 0.86923 0.0
H560 H 0.26347 0.098 0.8482 0.0
H561 H 0.32792 0.13865 0.81926 0.0
H562 H 0.31242 0.1441 0.85868 0.0
H563 H 0.30722 0.1523 0.81075 0.0
C564 C 0.26347 0.13835 0.93034 0.0
C565 C 0.25783 0.15627 0.91784 0.0
C566 C 0.27274 0.12618 0.90525 0.0
C567 C 0.27664 0.13173 0.86733 0.0
C568 C 0.27113 0.14964 0.85489 0.0
H569 H 0.30291 0.08646 0.64979 0.0
H570 H 0.29474 0.10455 0.70679 0.0
C571 C 0.26194 0.16183 0.87992 0.0
C572 C 0.28529 0.11846 0.8398 0.0
H573 H 0.3201 0.11472 0.77297 0.0
C574 C 0.27606 0.10147 0.83226 0.0
C575 C 0.30177 0.12298 0.81916 0.0
C576 C 0.31301 0.14042 0.82766 0.0
C577 C 0.28227 0.08938 0.80313 0.0
C578 C 0.29817 0.0944 0.78124 0.0
C579 C 0.30785 0.11099 0.78977 0.0
C580 C 0.30398 0.08342 0.74727 0.0
C581 C 0.27132 0.07177 0.79461 0.0
C582 C 0.31208 0.0656 0.7513 0.0
C583 C 0.31701 0.05524 0.71867 0.0
C584 C 0.31389 0.06256 0.68151 0.0
C585 C 0.30588 0.08051 0.67785 0.0
C586 C 0.30107 0.09085 0.7104 0.0
H587 H 0.25813 0.07094 0.81146 0.0
H588 H 0.26783 0.07106 0.76348 0.0
H589 H 0.28004 0.05934 0.80174 0.0
H590 H 0.31457 0.05974 0.77964 0.0
H591 H 0.32336 0.04158 0.72255 0.0
H592 H 0.33113 0.66825 0.44909 0.0
H593 H 0.35674 0.6654 0.40277 0.0
H594 H 0.33033 0.70684 0.33006 0.0
H595 H 0.3045 0.70946 0.37564 0.0
H596 H 0.33988 0.67582 0.29059 0.0
H597 H 0.40034 0.69986 0.37836 0.0
H598 H 0.38725 0.68111 0.39996 0.0
H599 H 0.37634 0.70357 0.39281 0.0
C600 C 0.33089 0.67692 0.42345 0.0
C601 C 0.31572 0.68901 0.41594 0.0
C602 C 0.3456 0.67535 0.39712 0.0
C603 C 0.34554 0.68606 0.36316 0.0
C604 C 0.33065 0.69846 0.35611 0.0
H605 H 0.432 0.70398 0.19398 0.0
H606 H 0.4106 0.7057 0.24876 0.0
C607 C 0.31589 0.69993 0.38219 0.0
C608 C 0.36025 0.68349 0.33361 0.0
H609 H 0.40737 0.68637 0.31754 0.0
C610 C 0.35464 0.67815 0.29647 0.0
C611 C 0.37947 0.68668 0.34131 0.0
C612 C 0.38624 0.69329 0.38016 0.0
C613 C 0.36768 0.67595 0.26674 0.0
C614 C 0.38696 0.67869 0.27462 0.0
C615 C 0.39261 0.68406 0.31174 0.0
C616 C 0.40129 0.67692 0.24409 0.0
C617 C 0.36061 0.67126 0.2269 0.0
C618 C 0.40358 0.66 0.2241 0.0
C619 C 0.41572 0.65901 0.19268 0.0
C620 C 0.42597 0.67486 0.18107 0.0
C621 C 0.42438 0.69151 0.20241 0.0
C622 C 0.41213 0.69252 0.23364 0.0
H623 H 0.34542 0.67436 0.22366 0.0
H624 H 0.3684 0.67923 0.20458 0.0
H625 H 0.36267 0.65608 0.22148 0.0
H626 H 0.39567 0.64766 0.2323 0.0
H627 H 0.4169 0.64592 0.17712 0.0
H628 H 0.74151 0.87504 0.96057 0.0
H629 H 0.72533 0.89628 0.916 0.0
H630 H 0.72755 0.85405 0.82747 0.0
H631 H 0.74326 0.83269 0.87171 0.0
H632 H 0.73846 0.91011 0.84846 0.0
H633 H 0.6735 0.87015 0.8205 0.0
H634 H 0.68901 0.86466 0.8601 0.0
H635 H 0.69392 0.85607 0.81245 0.0
C636 C 0.73835 0.8702 0.93174 0.0
C637 C 0.74369 0.85215 0.91974 0.0
C638 C 0.72909 0.88236 0.90634 0.0
C639 C 0.72493 0.87664 0.86863 0.0
C640 C 0.73014 0.8586 0.85673 0.0
H641 H 0.70171 0.92112 0.64849 0.0
H642 H 0.7093 0.9033 0.70649 0.0
C643 C 0.73929 0.84644 0.88204 0.0
C644 C 0.7164 0.88985 0.8406 0.0
H645 H 0.68188 0.89333 0.77265 0.0
C646 C 0.72587 0.90665 0.83243 0.0
C647 C 0.69992 0.88534 0.81981 0.0
C648 C 0.6884 0.86816 0.82896 0.0
C649 C 0.7199 0.9185 0.80251 0.0
C650 C 0.70406 0.91342 0.78042 0.0
C651 C 0.69411 0.89707 0.78959 0.0
C652 C 0.69854 0.92412 0.74576 0.0
C653 C 0.73103 0.93593 0.7934 0.0
C654 C 0.68978 0.94164 0.7488 0.0
C655 C 0.68517 0.95182 0.71562 0.0
C656 C 0.68932 0.94464 0.67887 0.0
C657 C 0.69797 0.92696 0.67618 0.0
C658 C 0.70245 0.91678 0.7093 0.0
H659 H 0.74385 0.93714 0.81145 0.0
H660 H 0.73518 0.93593 0.76261 0.0
H661 H 0.72217 0.94849 0.79828 0.0
H662 H 0.68656 0.94744 0.77682 0.0
H663 H 0.67829 0.96526 0.71876 0.0
H664 H 0.81285 0.78949 0.89679 0.0
H665 H 0.83795 0.79181 0.84926 0.0
H666 H 0.84603 0.84999 0.87839 0.0
H667 H 0.82084 0.84792 0.92568 0.0
H668 H 0.84166 0.84381 0.80016 0.0
H669 H 0.89503 0.79582 0.86214 0.0
H670 H 0.87208 0.78563 0.85802 0.0
H671 H 0.8758 0.80507 0.88999 0.0
C672 C 0.82009 0.80274 0.89341 0.0
C673 C 0.81475 0.81855 0.91491 0.0
C674 C 0.83453 0.80399 0.86642 0.0
C675 C 0.84397 0.82102 0.86064 0.0
C676 C 0.83895 0.83671 0.88257 0.0
H677 H 0.9401 0.83843 0.70874 0.0
H678 H 0.9195 0.83695 0.76508 0.0
C679 C 0.82453 0.83548 0.90955 0.0
C680 C 0.85806 0.82287 0.82968 0.0
H681 H 0.89953 0.80526 0.79676 0.0
C682 C 0.85439 0.8355 0.79958 0.0
C683 C 0.87473 0.81215 0.82923 0.0
C684 C 0.87979 0.79903 0.86174 0.0
C685 C 0.86668 0.8373 0.76839 0.0
C686 C 0.88293 0.82599 0.76709 0.0
C687 C 0.88694 0.81378 0.79775 0.0
C688 C 0.89561 0.82631 0.7335 0.0
C689 C 0.86218 0.85129 0.73706 0.0
C690 C 0.88905 0.82048 0.69739 0.0
C691 C 0.90075 0.82122 0.66532 0.0
C692 C 0.91927 0.82777 0.66874 0.0
C693 C 0.92594 0.83323 0.7052 0.0
C694 C 0.91419 0.83245 0.73735 0.0
H695 H 0.85206 0.86208 0.74701 0.0
H696 H 0.87507 0.85843 0.72682 0.0
H697 H 0.85579 0.84384 0.71228 0.0
H698 H 0.87485 0.81533 0.69404 0.0
H699 H 0.89531 0.8165 0.63785 0.0
H700 H 0.75728 0.37617 0.45773 0.0
H701 H 0.77165 0.39786 0.41144 0.0
H702 H 0.7707 0.35474 0.32478 0.0
H703 H 0.7565 0.33297 0.37047 0.0
H704 H 0.80768 0.38886 0.3564 0.0
H705 H 0.73874 0.40471 0.28816 0.0
H706 H 0.74084 0.39746 0.33788 0.0
H707 H 0.74373 0.38062 0.30011 0.0
C708 C 0.76027 0.37125 0.42892 0.0
C709 C 0.75559 0.35287 0.41773 0.0
C710 C 0.76851 0.38364 0.40262 0.0
C711 C 0.7721 0.37784 0.36483 0.0
C712 C 0.76796 0.35942 0.35388 0.0
H713 H 0.80069 0.42219 0.14527 0.0
H714 H 0.79082 0.40425 0.20142 0.0
C715 C 0.75982 0.34702 0.38007 0.0
C716 C 0.77931 0.39116 0.33588 0.0
H717 H 0.76576 0.41589 0.25648 0.0
C718 C 0.79857 0.395 0.33475 0.0
C719 C 0.76729 0.39899 0.30781 0.0
C720 C 0.74645 0.3954 0.3084 0.0
C721 C 0.80627 0.40601 0.30513 0.0
C722 C 0.79427 0.41354 0.27648 0.0
C723 C 0.77492 0.41007 0.27842 0.0
C724 C 0.80147 0.42417 0.24294 0.0
C725 C 0.82721 0.40884 0.3038 0.0
C726 C 0.81082 0.44133 0.24765 0.0
C727 C 0.81673 0.45157 0.21546 0.0
C728 C 0.81326 0.44486 0.17801 0.0
C729 C 0.80395 0.42761 0.17359 0.0
C730 C 0.79813 0.4174 0.20569 0.0
H731 H 0.83474 0.3988 0.32284 0.0
H732 H 0.83253 0.4072 0.27397 0.0
H733 H 0.8306 0.42325 0.31354 0.0
H734 H 0.81325 0.44696 0.27614 0.0
H735 H 0.82395 0.46474 0.2199 0.0
H736 H 0.18017 0.16072 0.9249 0.0
H737 H 0.15536 0.15868 0.87642 0.0
H738 H 0.16463 0.21649 0.84536 0.0
H739 H 0.18932 0.2188 0.89408 0.0
H740 H 0.12618 0.20615 0.8503 0.0
H741 H 0.16756 0.15684 0.76052 0.0
H742 H 0.16411 0.14958 0.80954 0.0
H743 H 0.17785 0.1701 0.79939 0.0
C744 C 0.17688 0.17306 0.90795 0.0
C745 C 0.18691 0.18986 0.91305 0.0
C746 C 0.16273 0.17183 0.88019 0.0
C747 C 0.15842 0.18734 0.85693 0.0
C748 C 0.16784 0.20434 0.86295 0.0
H749 H 0.10586 0.19158 0.63459 0.0
H750 H 0.12645 0.1932 0.69073 0.0
C751 C 0.18198 0.2056 0.89074 0.0
C752 C 0.14461 0.18567 0.82525 0.0
H753 H 0.13687 0.16378 0.73942 0.0
C754 C 0.12844 0.19686 0.82609 0.0
C755 C 0.14777 0.17368 0.79356 0.0
C756 C 0.16532 0.16196 0.79034 0.0
C757 C 0.11528 0.19635 0.79595 0.0
C758 C 0.11835 0.18418 0.7645 0.0
C759 C 0.13451 0.17299 0.76375 0.0
C760 C 0.10549 0.18348 0.73102 0.0
C761 C 0.0985 0.2092 0.79745 0.0
C762 C 0.0869 0.17738 0.73507 0.0
C763 C 0.07508 0.17635 0.70293 0.0
C764 C 0.08174 0.18128 0.66618 0.0
C765 C 0.10038 0.1874 0.66237 0.0
C766 C 0.11214 0.18844 0.69444 0.0
H767 H 0.10031 0.22047 0.81918 0.0
H768 H 0.0959 0.21576 0.76891 0.0
H769 H 0.08591 0.20093 0.8053 0.0
H770 H 0.08162 0.17316 0.76297 0.0
H771 H 0.06086 0.17138 0.70671 0.0
H772 H 0.21935 0.67692 0.40473 0.0
H773 H 0.20342 0.65658 0.35829 0.0
H774 H 0.2493 0.6173 0.36485 0.0
H775 H 0.26495 0.63713 0.412 0.0
H776 H 0.21438 0.64715 0.28896 0.0
H777 H 0.20605 0.58202 0.37315 0.0
H778 H 0.21246 0.60399 0.39525 0.0
H779 H 0.23005 0.58941 0.37323 0.0
C780 C 0.22592 0.66382 0.39663 0.0
C781 C 0.24341 0.65864 0.41212 0.0
C782 C 0.21679 0.65221 0.37013 0.0
C783 C 0.22498 0.63522 0.35857 0.0
C784 C 0.2424 0.63001 0.37416 0.0
H785 H 0.21665 0.57986 0.14222 0.0
H786 H 0.22351 0.59937 0.19814 0.0
C787 C 0.25142 0.64149 0.40092 0.0
C788 C 0.21619 0.62367 0.32793 0.0
H789 H 0.20513 0.5786 0.30385 0.0
C790 C 0.21208 0.63221 0.29246 0.0
C791 C 0.2128 0.60423 0.33258 0.0
C792 C 0.21538 0.59445 0.37078 0.0
C793 C 0.20565 0.62172 0.26099 0.0
C794 C 0.2038 0.60204 0.26473 0.0
C795 C 0.2069 0.59363 0.30076 0.0
C796 C 0.1996 0.5899 0.23116 0.0
C797 C 0.20098 0.63186 0.22401 0.0
C798 C 0.18433 0.57747 0.23172 0.0
C799 C 0.18051 0.56608 0.19985 0.0
C800 C 0.1919 0.567 0.16692 0.0
C801 C 0.20739 0.57916 0.16685 0.0
C802 C 0.21128 0.59037 0.19874 0.0
H803 H 0.1969 0.64664 0.22956 0.0
H804 H 0.21353 0.63206 0.20524 0.0
H805 H 0.18938 0.62484 0.20828 0.0
H806 H 0.17523 0.57675 0.2566 0.0
H807 H 0.16846 0.55685 0.20065 0.0
H808 H 0.31088 0.71954 0.60908 0.0
H809 H 0.33616 0.71778 0.65662 0.0
H810 H 0.34735 0.66068 0.62334 0.0
H811 H 0.32222 0.66229 0.57554 0.0
H812 H 0.33728 0.69217 0.71825 0.0
H813 H 0.39976 0.68513 0.62442 0.0
H814 H 0.37745 0.6936 0.60682 0.0
H815 H 0.38116 0.66892 0.61397 0.0
C816 C 0.31884 0.70667 0.61152 0.0
C817 C 0.31446 0.69103 0.58857 0.0
C818 C 0.33328 0.7057 0.63871 0.0
C819 C 0.34372 0.68918 0.64319 0.0
C820 C 0.33967 0.67367 0.61985 0.0
H821 H 0.4061 0.65224 0.84306 0.0
H822 H 0.3848 0.65535 0.78811 0.0
C823 C 0.3252 0.6746 0.59271 0.0
C824 C 0.35794 0.6877 0.67414 0.0
H825 H 0.40435 0.67936 0.69138 0.0
C826 C 0.35196 0.68947 0.7124 0.0
C827 C 0.37708 0.68431 0.66631 0.0
C828 C 0.38434 0.68304 0.62566 0.0
C829 C 0.36458 0.68755 0.74316 0.0
C830 C 0.3836 0.68356 0.7354 0.0
C831 C 0.38969 0.68221 0.69714 0.0
C832 C 0.39735 0.68095 0.76687 0.0
C833 C 0.35749 0.68995 0.78375 0.0
C834 C 0.41178 0.69401 0.77234 0.0
C835 C 0.42393 0.69234 0.8038 0.0
C836 C 0.42189 0.67749 0.83021 0.0
C837 C 0.40783 0.66403 0.82369 0.0
C838 C 0.39568 0.66574 0.79229 0.0
H839 H 0.34361 0.69701 0.78443 0.0
H840 H 0.35597 0.67596 0.79742 0.0
H841 H 0.36755 0.69824 0.80124 0.0
H842 H 0.41328 0.70583 0.75293 0.0
H843 H 0.43447 0.70306 0.80817 0.0
H844 H 0.76231 0.87342 0.08354 0.0
H845 H 0.74674 0.8932 0.13096 0.0
H846 H 0.70763 0.8487 0.15556 0.0
H847 H 0.72332 0.82861 0.10857 0.0
H848 H 0.70972 0.90558 0.13682 0.0
H849 H 0.72967 0.86072 0.26143 0.0
H850 H 0.74007 0.85802 0.21448 0.0
H851 H 0.71705 0.84888 0.22386 0.0
C852 C 0.75037 0.8678 0.09893 0.0
C853 C 0.74422 0.84932 0.09255 0.0
C854 C 0.74146 0.87917 0.12598 0.0
C855 C 0.72624 0.87232 0.14723 0.0
C856 C 0.71962 0.85412 0.14004 0.0
H857 H 0.66656 0.92193 0.34096 0.0
H858 H 0.67514 0.90227 0.28611 0.0
C859 C 0.72856 0.84269 0.11304 0.0
C860 C 0.71765 0.88415 0.17747 0.0
H861 H 0.71069 0.88698 0.27449 0.0
C862 C 0.70987 0.90151 0.16692 0.0
C863 C 0.71788 0.87879 0.21671 0.0
C864 C 0.72675 0.86067 0.22999 0.0
C865 C 0.70232 0.91367 0.1946 0.0
C866 C 0.70282 0.90842 0.23387 0.0
C867 C 0.71028 0.89092 0.24433 0.0
C868 C 0.69648 0.92115 0.26489 0.0
C869 C 0.69379 0.93197 0.18158 0.0
C870 C 0.70559 0.93832 0.27104 0.0
C871 C 0.70082 0.94954 0.30247 0.0
C872 C 0.6869 0.94374 0.32853 0.0
C873 C 0.67749 0.92671 0.32172 0.0
C874 C 0.6823 0.9155 0.2903 0.0
H875 H 0.68975 0.93156 0.15068 0.0
H876 H 0.68122 0.93548 0.19891 0.0
H877 H 0.70422 0.94336 0.18538 0.0
H878 H 0.71687 0.94275 0.2523 0.0
H879 H 0.70856 0.96239 0.30721 0.0
H880 H 0.69857 0.30736 0.63544 0.0
H881 H 0.67284 0.31167 0.68067 0.0
H882 H 0.64054 0.33982 0.5929 0.0
H883 H 0.66628 0.33561 0.54708 0.0
H884 H 0.65742 0.34953 0.69883 0.0
H885 H 0.60474 0.29871 0.64246 0.0
H886 H 0.62949 0.29627 0.63268 0.0
H887 H 0.6162 0.31424 0.60898 0.0
C888 C 0.68595 0.31432 0.62549 0.0
C889 C 0.68454 0.32123 0.58764 0.0
C890 C 0.67128 0.31676 0.65143 0.0
C891 C 0.65484 0.32599 0.64 0.0
C892 C 0.6531 0.33251 0.60206 0.0
H893 H 0.55733 0.34693 0.78872 0.0
H894 H 0.57779 0.34594 0.73198 0.0
C895 C 0.66784 0.33014 0.57602 0.0
C896 C 0.64008 0.32964 0.66877 0.0
H897 H 0.59695 0.31514 0.69894 0.0
C898 C 0.64412 0.34215 0.69873 0.0
C899 C 0.62272 0.32013 0.66814 0.0
C900 C 0.61791 0.3065 0.63651 0.0
C901 C 0.63142 0.34504 0.72881 0.0
C902 C 0.61444 0.33481 0.72933 0.0
C903 C 0.61003 0.32288 0.69849 0.0
C904 C 0.60184 0.33526 0.76309 0.0
C905 C 0.63638 0.3589 0.75998 0.0
C906 C 0.60851 0.32921 0.79903 0.0
C907 C 0.59694 0.32973 0.83126 0.0
C908 C 0.57838 0.33621 0.82821 0.0
C909 C 0.57156 0.34186 0.79195 0.0
C910 C 0.58321 0.34135 0.7596 0.0
H911 H 0.64658 0.36952 0.74955 0.0
H912 H 0.62372 0.36625 0.77074 0.0
H913 H 0.64295 0.35131 0.78446 0.0
H914 H 0.62269 0.32398 0.80212 0.0
H915 H 0.60247 0.32483 0.85855 0.0
H916 H 0.28248 0.17678 0.09579 0.0
H917 H 0.29894 0.15656 0.14185 0.0
H918 H 0.25318 0.11706 0.13763 0.0
H919 H 0.23703 0.13676 0.09079 0.0
H920 H 0.28888 0.14721 0.21154 0.0
H921 H 0.29633 0.08189 0.12833 0.0
H922 H 0.2896 0.10377 0.10608 0.0
H923 H 0.27231 0.08917 0.12917 0.0
C924 C 0.27605 0.16366 0.10433 0.0
C925 C 0.25846 0.15837 0.08957 0.0
C926 C 0.28548 0.15211 0.1306 0.0
C927 C 0.27748 0.1351 0.14269 0.0
C928 C 0.25995 0.1298 0.12787 0.0
H929 H 0.2875 0.08063 0.35983 0.0
H930 H 0.28041 0.1 0.30368 0.0
C931 C 0.25063 0.14119 0.10129 0.0
C932 C 0.28661 0.12362 0.17315 0.0
H933 H 0.29774 0.07858 0.19772 0.0
C934 C 0.2911 0.13226 0.20825 0.0
C935 C 0.28991 0.10416 0.16875 0.0
C936 C 0.28698 0.09428 0.13086 0.0
C937 C 0.29782 0.12183 0.23966 0.0
C938 C 0.29953 0.10213 0.23629 0.0
C939 C 0.29607 0.09363 0.20056 0.0
C940 C 0.30388 0.09007 0.27 0.0
C941 C 0.30291 0.13208 0.2762 0.0
C942 C 0.31895 0.0774 0.26917 0.0
C943 C 0.32287 0.06606 0.30116 0.0
C944 C 0.31181 0.06729 0.33449 0.0
C945 C 0.29651 0.07969 0.33485 0.0
C946 C 0.29249 0.09083 0.30284 0.0
H947 H 0.30712 0.14678 0.27007 0.0
H948 H 0.2905 0.13254 0.29537 0.0
H949 H 0.31455 0.12499 0.29175 0.0
H950 H 0.3278 0.07644 0.24396 0.0
H951 H 0.33475 0.05662 0.30015 0.0
H952 H 0.22662 0.26294 0.94951 0.0
H953 H 0.21644 0.29558 0.95215 0.0
H954 H 0.19156 0.28573 0.06337 0.0
H955 H 0.20199 0.25306 0.06137 0.0
H956 H 0.18099 0.31115 0.9591 0.0
H957 H 0.22605 0.3303 0.08379 0.0
H958 H 0.22903 0.30871 0.05754 0.0
H959 H 0.21045 0.31095 0.09207 0.0
C960 C 0.21896 0.26766 0.97457 0.0
C961 C 0.21531 0.2554 0.00543 0.0
C962 C 0.21313 0.28634 0.97598 0.0
C963 C 0.20354 0.29317 0.00823 0.0
C964 C 0.19932 0.28085 0.03858 0.0
H965 H 0.16685 0.40761 0.05958 0.0
H966 H 0.17126 0.37355 0.06134 0.0
C967 C 0.20521 0.26216 0.03727 0.0
C968 C 0.19817 0.31323 0.00998 0.0
H969 H 0.20603 0.35385 0.05941 0.0
C970 C 0.18641 0.32048 0.9811 0.0
C971 C 0.20524 0.32536 0.03876 0.0
C972 C 0.21852 0.31853 0.06965 0.0
C973 C 0.18163 0.33957 0.98007 0.0
C974 C 0.18899 0.35174 0.00839 0.0
C975 C 0.20039 0.34444 0.03779 0.0
C976 C 0.18584 0.37226 0.0069 0.0
C977 C 0.1687 0.34655 0.94872 0.0
C978 C 0.19278 0.3828 0.97595 0.0
C979 C 0.19044 0.40223 0.97499 0.0
C980 C 0.18114 0.41156 0.00507 0.0
C981 C 0.17423 0.40092 0.03613 0.0
C982 C 0.17663 0.38145 0.03709 0.0
H983 H 0.16037 0.33496 0.93594 0.0
H984 H 0.15895 0.35736 0.9599 0.0
H985 H 0.17718 0.35299 0.92545 0.0
H986 H 0.20032 0.37602 0.9528 0.0
H987 H 0.19631 0.40999 0.95106 0.0
H988 H 0.20611 0.71101 0.55827 0.0
H989 H 0.17446 0.72425 0.55919 0.0
H990 H 0.18465 0.75113 0.44991 0.0
H991 H 0.21607 0.73772 0.4483 0.0
H992 H 0.16428 0.76143 0.55865 0.0
H993 H 0.13486 0.72534 0.4309 0.0
H994 H 0.15644 0.71804 0.45364 0.0
H995 H 0.15626 0.73759 0.42081 0.0
C996 C 0.20156 0.7196 0.53427 0.0
C997 C 0.21362 0.72326 0.50316 0.0
C998 C 0.18348 0.72716 0.53487 0.0
C999 C 0.17712 0.73843 0.50435 0.0
C1000 C 0.18911 0.74211 0.47332 0.0
H1001 H 0.07996 0.80681 0.45634 0.0
H1002 H 0.11074 0.79168 0.45771 0.0
C1003 C 0.20713 0.73451 0.47259 0.0
C1004 C 0.15824 0.74702 0.50561 0.0
H1005 H 0.11725 0.75113 0.45536 0.0
C1006 C 0.15392 0.75905 0.53628 0.0
C1007 C 0.14477 0.74389 0.47635 0.0
C1008 C 0.14822 0.73037 0.44377 0.0
C1009 C 0.13664 0.76842 0.53793 0.0
C1010 C 0.12335 0.76553 0.50831 0.0
C1011 C 0.12757 0.75337 0.47787 0.0
C1012 C 0.10493 0.775 0.50834 0.0
C1013 C 0.13288 0.78168 0.57079 0.0
C1014 C 0.09152 0.77052 0.53629 0.0
C1015 C 0.07387 0.77898 0.5354 0.0
C1016 C 0.06932 0.79209 0.50649 0.0
C1017 C 0.08291 0.79662 0.4787 0.0
C1018 C 0.10053 0.78807 0.47953 0.0
H1019 H 0.14586 0.78518 0.58697 0.0
H1020 H 0.12643 0.79487 0.56004 0.0
H1021 H 0.12287 0.77505 0.59107 0.0
H1022 H 0.09459 0.76021 0.55837 0.0
H1023 H 0.06364 0.77491 0.55682 0.0
H1024 H 0.80018 0.75437 0.06125 0.0
H1025 H 0.81115 0.72183 0.06117 0.0
H1026 H 0.78589 0.71346 0.94961 0.0
H1027 H 0.77522 0.7459 0.94903 0.0
H1028 H 0.78975 0.69006 0.05804 0.0
H1029 H 0.83777 0.69204 0.93317 0.0
H1030 H 0.82911 0.71304 0.95594 0.0
H1031 H 0.81482 0.70067 0.92158 0.0
C1032 C 0.79713 0.74566 0.03651 0.0
C1033 C 0.78682 0.75278 0.00513 0.0
C1034 C 0.80341 0.72707 0.03653 0.0
C1035 C 0.79961 0.7153 0.00511 0.0
C1036 C 0.78941 0.7224 0.97373 0.0
H1037 H 0.80375 0.59793 0.95154 0.0
H1038 H 0.79958 0.63196 0.95314 0.0
C1039 C 0.78318 0.74096 0.97361 0.0
C1040 C 0.80524 0.69528 0.00598 0.0
H1041 H 0.82815 0.66155 0.95465 0.0
C1042 C 0.79836 0.68386 0.03574 0.0
C1043 C 0.81647 0.68723 0.97683 0.0
C1044 C 0.82513 0.69892 0.9453 0.0
C1045 C 0.80182 0.66449 0.03634 0.0
C1046 C 0.8126 0.65639 0.0066 0.0
C1047 C 0.81981 0.66783 0.97729 0.0
C1048 C 0.81602 0.63594 0.00487 0.0
C1049 C 0.7934 0.65271 0.06802 0.0
C1050 C 0.82696 0.62699 0.03302 0.0
C1051 C 0.82952 0.60757 0.03202 0.0
C1052 C 0.82118 0.59672 0.00282 0.0
C1053 C 0.81056 0.60584 0.97418 0.0
C1054 C 0.80807 0.62528 0.97514 0.0
H1055 H 0.78261 0.66051 0.08453 0.0
H1056 H 0.78692 0.63983 0.056 0.0
H1057 H 0.80462 0.64835 0.08831 0.0
H1058 H 0.83347 0.63504 0.05583 0.0
H1059 H 0.83807 0.60106 0.05411 0.0
H1060 H 0.79382 0.29712 0.44496 0.0
H1061 H 0.8254 0.28367 0.44427 0.0
H1062 H 0.81602 0.25943 0.55636 0.0
H1063 H 0.78447 0.27267 0.55738 0.0
H1064 H 0.8554 0.28872 0.49974 0.0
H1065 H 0.83211 0.2146 0.48776 0.0
H1066 H 0.81686 0.23414 0.47707 0.0
H1067 H 0.82157 0.2277 0.52616 0.0
C1068 C 0.79846 0.28894 0.46949 0.0
C1069 C 0.78654 0.28585 0.50109 0.0
C1070 C 0.81651 0.28129 0.46904 0.0
C1071 C 0.82287 0.27034 0.5 0.0
C1072 C 0.81121 0.26758 0.53191 0.0
H1073 H 0.92402 0.20806 0.55165 0.0
H1074 H 0.89306 0.22282 0.55227 0.0
C1075 C 0.79321 0.27524 0.53248 0.0
C1076 C 0.84175 0.26182 0.49907 0.0
H1077 H 0.86451 0.21975 0.4984 0.0
C1078 C 0.85745 0.27365 0.49925 0.0
C1079 C 0.84427 0.24217 0.49856 0.0
C1080 C 0.82783 0.22886 0.49705 0.0
C1081 C 0.8757 0.26631 0.49973 0.0
C1082 C 0.87823 0.24663 0.4992 0.0
C1083 C 0.8625 0.23482 0.49888 0.0
C1084 C 0.89709 0.23798 0.49892 0.0
C1085 C 0.89207 0.27966 0.50177 0.0
C1086 C 0.9095 0.24147 0.4685 0.0
C1087 C 0.92724 0.2332 0.46822 0.0
C1088 C 0.93285 0.22113 0.49822 0.0
C1089 C 0.92026 0.2175 0.52843 0.0
C1090 C 0.90253 0.22581 0.5287 0.0
H1091 H 0.88777 0.2937 0.51236 0.0
H1092 H 0.90326 0.27412 0.52095 0.0
H1093 H 0.89805 0.28147 0.47254 0.0
H1094 H 0.90544 0.25053 0.44485 0.0
H1095 H 0.93665 0.23643 0.44471 0.0
H1096 H 0.70305 0.25396 0.56297 0.0
H1097 H 0.69398 0.22077 0.564 0.0
H1098 H 0.71755 0.21345 0.45092 0.0
H1099 H 0.72666 0.24639 0.44946 0.0
H1100 H 0.67121 0.19918 0.50665 0.0
H1101 H 0.74465 0.17432 0.52258 0.0
H1102 H 0.73765 0.19804 0.53365 0.0
H1103 H 0.74073 0.19097 0.48448 0.0
C1104 C 0.70622 0.24531 0.53824 0.0
C1105 C 0.71576 0.25282 0.5063 0.0
C1106 C 0.701 0.22638 0.53888 0.0
C1107 C 0.70535 0.21467 0.50776 0.0
C1108 C 0.71432 0.22223 0.47544 0.0
H1109 H 0.69958 0.09739 0.45117 0.0
H1110 H 0.70402 0.13133 0.45265 0.0
C1111 C 0.71947 0.2411 0.47467 0.0
C1112 C 0.70096 0.19441 0.50909 0.0
H1113 H 0.72163 0.15127 0.50949 0.0
C1114 C 0.68218 0.18866 0.50758 0.0
C1115 C 0.71535 0.1808 0.51023 0.0
C1116 C 0.73574 0.18626 0.51314 0.0
C1117 C 0.6774 0.16955 0.50593 0.0
C1118 C 0.69183 0.15592 0.5066 0.0
C1119 C 0.7106 0.16174 0.50878 0.0
C1120 C 0.68791 0.13552 0.50461 0.0
C1121 C 0.65703 0.16416 0.50223 0.0
C1122 C 0.67733 0.12659 0.53329 0.0
C1123 C 0.67459 0.10718 0.53229 0.0
C1124 C 0.68253 0.09629 0.50278 0.0
C1125 C 0.69301 0.10534 0.47396 0.0
C1126 C 0.69568 0.12474 0.47492 0.0
H1127 H 0.64831 0.17608 0.492 0.0
H1128 H 0.65524 0.15224 0.48203 0.0
H1129 H 0.65169 0.15976 0.53083 0.0
H1130 H 0.6715 0.13457 0.55688 0.0
H1131 H 0.66631 0.10071 0.55477 0.0
H1132 H 0.28441 0.23802 0.05413 0.0
H1133 H 0.31566 0.25194 0.05226 0.0
H1134 H 0.32595 0.22558 0.94273 0.0
H1135 H 0.29455 0.21183 0.94392 0.0
H1136 H 0.35039 0.2351 0.04831 0.0
H1137 H 0.338 0.28039 0.92049 0.0
H1138 H 0.31919 0.26895 0.94602 0.0
H1139 H 0.33331 0.25597 0.91257 0.0
C1140 C 0.29329 0.23516 0.02959 0.0
C1141 C 0.2869 0.22394 0.99899 0.0
C1142 C 0.31116 0.24314 0.0286 0.0
C1143 C 0.32297 0.24007 0.99704 0.0
C1144 C 0.31687 0.22849 0.96692 0.0
H1145 H 0.43651 0.2759 0.94522 0.0
H1146 H 0.40555 0.26114 0.94486 0.0
C1147 C 0.29896 0.22056 0.96778 0.0
C1148 C 0.34176 0.24889 0.99598 0.0
H1149 H 0.3691 0.27921 0.94466 0.0
C1150 C 0.35448 0.24478 0.02572 0.0
C1151 C 0.34701 0.26153 0.96645 0.0
C1152 C 0.33363 0.26714 0.93474 0.0
C1153 C 0.37241 0.25283 0.02651 0.0
C1154 C 0.37764 0.26546 0.99703 0.0
C1155 C 0.365 0.26949 0.96716 0.0
C1156 C 0.39615 0.27476 0.9969 0.0
C1157 C 0.38574 0.24758 0.05857 0.0
C1158 C 0.40092 0.28755 0.02592 0.0
C1159 C 0.41851 0.29614 0.02604 0.0
C1160 C 0.43165 0.2921 0.99709 0.0
C1161 C 0.42666 0.27949 0.9677 0.0
C1162 C 0.40903 0.27096 0.96755 0.0
H1163 H 0.3812 0.23466 0.07384 0.0
H1164 H 0.40012 0.24539 0.04728 0.0
H1165 H 0.3863 0.25916 0.07982 0.0
H1166 H 0.39099 0.29093 0.04841 0.0
H1167 H 0.42177 0.30604 0.04869 0.0
H1168 H 0.27296 0.7633 0.55305 0.0
H1169 H 0.28291 0.79603 0.55105 0.0
H1170 H 0.30864 0.78687 0.44049 0.0
H1171 H 0.29844 0.75412 0.44183 0.0
H1172 H 0.31825 0.81183 0.5455 0.0
H1173 H 0.27418 0.83137 0.41944 0.0
H1174 H 0.27112 0.80961 0.44527 0.0
H1175 H 0.28994 0.81215 0.41137 0.0
C1176 C 0.28075 0.76819 0.52827 0.0
C1177 C 0.28472 0.7561 0.4974 0.0
C1178 C 0.28645 0.78692 0.52722 0.0
C1179 C 0.29622 0.79397 0.49533 0.0
C1180 C 0.30074 0.78183 0.46498 0.0
H1181 H 0.33381 0.90827 0.44564 0.0
H1182 H 0.32917 0.87425 0.44392 0.0
C1183 C 0.29498 0.76308 0.46591 0.0
C1184 C 0.30152 0.81406 0.49399 0.0
H1185 H 0.29409 0.85483 0.44446 0.0
C1186 C 0.31301 0.82123 0.52336 0.0
C1187 C 0.29468 0.82629 0.46504 0.0
C1188 C 0.28166 0.81956 0.43364 0.0
C1189 C 0.31778 0.84031 0.52465 0.0
C1190 C 0.31068 0.85256 0.49609 0.0
C1191 C 0.29953 0.84536 0.46626 0.0
C1192 C 0.31394 0.87305 0.49761 0.0
C1193 C 0.33042 0.84721 0.5565 0.0
C1194 C 0.30671 0.88363 0.52813 0.0
C1195 C 0.30916 0.90305 0.52904 0.0
C1196 C 0.31888 0.91232 0.49937 0.0
C1197 C 0.3261 0.90163 0.46876 0.0
C1198 C 0.32357 0.88219 0.46783 0.0
H1199 H 0.33853 0.83556 0.56979 0.0
H1200 H 0.34037 0.85794 0.54563 0.0
H1201 H 0.32175 0.85374 0.5793 0.0
H1202 H 0.29886 0.8769 0.55096 0.0
H1203 H 0.30307 0.91085 0.55262 0.0
H1204 H 0.7178 0.76968 0.05563 0.0
H1205 H 0.68637 0.75611 0.0541 0.0
H1206 H 0.67527 0.78408 0.94623 0.0
H1207 H 0.70682 0.79745 0.94706 0.0
H1208 H 0.65184 0.77332 0.0522 0.0
H1209 H 0.66228 0.72983 0.92161 0.0
H1210 H 0.6815 0.74071 0.94701 0.0
H1211 H 0.66718 0.75429 0.91468 0.0
C1212 C 0.7087 0.77295 0.03153 0.0
C1213 C 0.7149 0.78451 0.00127 0.0
C1214 C 0.69074 0.76518 0.03073 0.0
C1215 C 0.67864 0.7688 0.99971 0.0
C1216 C 0.68457 0.78073 0.96997 0.0
H1217 H 0.56406 0.73579 0.9493 0.0
H1218 H 0.59525 0.75006 0.94905 0.0
C1219 C 0.70257 0.78844 0.97062 0.0
C1220 C 0.65974 0.76024 0.99883 0.0
H1221 H 0.63139 0.73123 0.94658 0.0
C1222 C 0.64738 0.76407 0.02919 0.0
C1223 C 0.65399 0.74817 0.96875 0.0
C1224 C 0.66697 0.74284 0.93633 0.0
C1225 C 0.62932 0.75631 0.03005 0.0
C1226 C 0.62359 0.74428 -2e-05 0.0
C1227 C 0.63588 0.74051 0.96952 0.0
C1228 C 0.60491 0.73532 -0.00018 0.0
C1229 C 0.6164 0.76125 0.06282 0.0
C1230 C 0.60021 0.72208 0.02807 0.0
C1231 C 0.58249 0.71376 0.02811 0.0
C1232 C 0.56915 0.71854 -0.00016 0.0
C1233 C 0.57406 0.73163 0.97122 0.0
C1234 C 0.59182 0.73989 0.97115 0.0
H1235 H 0.62133 0.77379 0.07881 0.0
H1236 H 0.60197 0.76393 0.05207 0.0
H1237 H 0.61577 0.7493 0.08329 0.0
H1238 H 0.61029 0.71813 0.05001 0.0
H1239 H 0.57929 0.70349 0.05013 0.0
loop_
_geom_bond_atom_site_label_1
_geom_bond_atom_site_label_2
_geom_bond_distance
_geom_bond_site_symmetry_2
_ccdc_geom_bond_type
Fe0 O2 1.918 . S
Fe0 O5 1.997 . S
Fe0 O6 2.002 . S
Fe0 O11 1.976 . S
Fe0 O14 1.996 . S
Fe1 O2 1.918 1_556 S
Fe1 O9 1.997 . S
Fe1 O12 1.996 . S
Fe1 O16 1.976 . S
Fe1 O19 2.002 . S
O2 Fe0 1.918 . S
O2 Fe1 1.918 1_554 S
O2 Fe3 1.919 . S
Fe3 O2 1.919 . S
Fe3 O4 2.023 . S
Fe3 O13 1.997 . S
Fe3 O17 1.974 1_554 S
Fe3 O20 1.975 1_554 S
O4 Fe3 2.023 . S
O4 C21 1.295 . S
O5 Fe0 1.997 . S
O5 C21 1.235 . S
O6 Fe0 2.002 . S
O6 C7 1.295 . S
C7 O6 1.295 . S
C7 O9 1.235 1_554 S
C8 O13 1.287 . S
C8 O14 1.255 . S
O9 Fe1 1.997 . S
O9 C7 1.235 1_556 S
C10 O16 1.287 . S
C10 O17 1.255 . S
O11 Fe0 1.976 . S
O11 C18 1.289 . S
O12 Fe1 1.996 . S
O12 C18 1.252 1_556 S
O13 Fe3 1.997 . S
O13 C8 1.287 . S
O14 Fe0 1.996 . S
O14 C8 1.255 . S
C15 O19 1.295 . S
C15 O20 1.235 . S
O16 Fe1 1.976 . S
O16 C10 1.287 . S
O17 Fe3 1.974 1_556 S
O17 C10 1.255 . S
C18 O11 1.289 . S
C18 O12 1.252 1_554 S
O19 Fe1 2.002 . S
O19 C15 1.295 . S
O20 Fe3 1.975 1_556 S
O20 C15 1.235 . S
C21 O4 1.295 . S
C21 O5 1.235 . S
Fe22 O24 1.918 . S
Fe22 O27 1.997 . S
Fe22 O28 2.002 . S
Fe22 O33 1.976 . S
Fe22 O36 1.996 . S
Fe23 O24 1.918 . S
Fe23 O31 1.997 . S
Fe23 O34 1.996 . S
Fe23 O38 1.976 . S
Fe23 O41 2.002 . S
O24 Fe22 1.918 . S
O24 Fe23 1.918 . S
O24 Fe25 1.918 . S
Fe25 O24 1.918 . S
Fe25 O26 2.002 . S
Fe25 O35 1.976 . S
Fe25 O39 1.996 . S
Fe25 O42 1.997 . S
O26 Fe25 2.002 . S
O26 C43 1.295 . S
O27 Fe22 1.997 . S
O27 C43 1.235 . S
O28 Fe22 2.002 . S
O28 C29 1.295 . S
C29 O28 1.295 . S
C29 O31 1.235 . S
C30 O35 1.287 . S
C30 O36 1.255 . S
O31 Fe23 1.997 . S
O31 C29 1.235 . S
C32 O38 1.287 . S
C32 O39 1.255 . S
O33 Fe22 1.976 . S
O33 C40 1.287 . S
O34 Fe23 1.996 . S
O34 C40 1.255 . S
O35 Fe25 1.976 . S
O35 C30 1.287 . S
O36 Fe22 1.996 . S
O36 C30 1.255 . S
C37 O41 1.295 . S
C37 O42 1.235 . S
O38 Fe23 1.976 . S
O38 C32 1.287 . S
O39 Fe25 1.996 . S
O39 C32 1.255 . S
C40 O33 1.287 . S
C40 O34 1.255 . S
O41 Fe23 2.002 . S
O41 C37 1.295 . S
O42 Fe25 1.997 . S
O42 C37 1.235 . S
C43 O26 1.295 . S
C43 O27 1.235 . S
Fe44 O46 1.894 1_556 S
Fe44 O49 1.997 . S
Fe44 O50 2.002 . S
Fe44 O55 1.976 . S
Fe44 O58 1.996 . S
Fe45 O46 1.943 . S
Fe45 O53 1.997 . S
Fe45 O56 1.996 . S
Fe45 O60 1.976 . S
Fe45 O63 2.002 . S
O46 Fe44 1.894 1_554 S
O46 Fe45 1.943 . S
O46 Fe47 1.919 . S
Fe47 O46 1.919 . S
Fe47 O48 2.002 1_554 S
Fe47 O57 1.976 1_554 S
Fe47 O61 1.996 . S
Fe47 O64 1.997 . S
O48 Fe47 2.002 1_556 S
O48 C65 1.295 . S
O49 Fe44 1.997 . S
O49 C65 1.235 . S
O50 Fe44 2.002 . S
O50 C51 1.295 . S
C51 O50 1.295 . S
C51 O53 1.235 1_556 S
C52 O57 1.287 . S
C52 O58 1.255 . S
O53 Fe45 1.997 . S
O53 C51 1.235 1_554 S
C54 O60 1.287 . S
C54 O61 1.255 . S
O55 Fe44 1.976 . S
O55 C62 1.287 1_556 S
O56 Fe45 1.996 . S
O56 C62 1.255 . S
O57 Fe47 1.976 1_556 S
O57 C52 1.287 . S
O58 Fe44 1.996 . S
O58 C52 1.255 . S
C59 O63 1.295 . S
C59 O64 1.235 . S
O60 Fe45 1.976 . S
O60 C54 1.287 . S
O61 Fe47 1.996 . S
O61 C54 1.255 . S
C62 O55 1.287 1_554 S
C62 O56 1.255 . S
O63 Fe45 2.002 . S
O63 C59 1.295 . S
O64 Fe47 1.997 . S
O64 C59 1.235 . S
C65 O48 1.295 . S
C65 O49 1.235 . S
Fe66 O68 1.918 . S
Fe66 O71 1.997 . S
Fe66 O72 2.002 . S
Fe66 O77 1.976 . S
Fe66 O80 1.996 . S
Fe67 O68 1.918 . S
Fe67 O75 1.997 . S
Fe67 O78 1.996 . S
Fe67 O82 1.976 . S
Fe67 O85 2.002 . S
O68 Fe66 1.918 . S
O68 Fe67 1.918 . S
O68 Fe69 1.918 . S
Fe69 O68 1.918 . S
Fe69 O70 2.002 . S
Fe69 O79 1.976 . S
Fe69 O83 1.996 . S
Fe69 O86 1.997 . S
O70 Fe69 2.002 . S
O70 C87 1.295 . S
O71 Fe66 1.997 . S
O71 C87 1.235 . S
O72 Fe66 2.002 . S
O72 C73 1.295 . S
C73 O72 1.295 . S
C73 O75 1.235 . S
C74 O79 1.287 . S
C74 O80 1.255 . S
O75 Fe67 1.997 . S
O75 C73 1.235 . S
C76 O82 1.287 . S
C76 O83 1.255 . S
O77 Fe66 1.976 . S
O77 C84 1.287 . S
O78 Fe67 1.996 . S
O78 C84 1.255 . S
O79 Fe69 1.976 . S
O79 C74 1.287 . S
O80 Fe66 1.996 . S
O80 C74 1.255 . S
C81 O85 1.295 . S
C81 O86 1.235 . S
O82 Fe67 1.976 . S
O82 C76 1.287 . S
O83 Fe69 1.996 . S
O83 C76 1.255 . S
C84 O77 1.287 . S
C84 O78 1.255 . S
O85 Fe67 2.002 . S
O85 C81 1.295 . S
O86 Fe69 1.997 . S
O86 C81 1.235 . S
C87 O70 1.295 . S
C87 O71 1.235 . S
C88 C89 1.384 . S
C88 H101 0.947 . S
C88 C123 1.382 . S
C89 C88 1.384 . S
C89 C90 1.378 . S
C90 C89 1.378 . S
C90 C91 1.378 . S
C90 H102 0.952 . S
C91 C90 1.378 . S
C91 H103 0.950 . S
C91 C122 1.383 . S
H92 C111 0.947 . S
H93 C112 0.946 . S
H94 C114 0.953 . S
H95 C115 0.945 . S
H96 C117 0.952 . S
H97 C118 0.949 . S
H98 C120 0.950 . S
H99 C121 0.948 . S
H100 C123 0.951 . S
H101 C88 0.947 . S
H102 C90 0.952 . S
H103 C91 0.950 . S
N104 C107 1.382 1_554 S
N104 C109 1.363 . S
N105 C107 1.371 . S
N105 C108 1.372 . S
N106 C108 1.361 . S
N106 C109 1.377 1_556 S
C107 N104 1.382 1_556 S
C107 N105 1.371 . S
C107 C110 1.480 . S
C108 N105 1.372 . S
C108 N106 1.361 . S
C108 C116 1.457 . S
C109 N104 1.363 . S
C109 N106 1.377 1_554 S
C109 C122 1.479 . S
C110 C107 1.480 . S
C110 C111 1.383 1_556 S
C110 C115 1.385 . S
C111 H92 0.947 . S
C111 C110 1.383 1_554 S
C111 C112 1.388 . S
C112 H93 0.946 . S
C112 C111 1.388 . S
C112 C113 1.360 1_554 S
C113 C112 1.360 1_556 S
C113 C114 1.401 . S
C114 H94 0.953 . S
C114 C113 1.401 . S
C114 C115 1.369 . S
C115 H95 0.945 . S
C115 C110 1.385 . S
C115 C114 1.369 . S
C116 C108 1.457 . S
C116 C117 1.372 . S
C116 C121 1.364 . S
C117 H96 0.952 . S
C117 C116 1.372 . S
C117 C118 1.389 . S
C118 H97 0.949 . S
C118 C117 1.389 . S
C118 C119 1.387 . S
C119 C118 1.387 . S
C119 C120 1.372 . S
C120 H98 0.950 . S
C120 C119 1.372 . S
C120 C121 1.379 . S
C121 H99 0.948 . S
C121 C116 1.364 . S
C121 C120 1.379 . S
C122 C91 1.383 . S
C122 C109 1.479 . S
C122 C123 1.398 . S
C123 C88 1.382 . S
C123 H100 0.951 . S
C123 C122 1.398 . S
C124 C125 1.384 . S
C124 H137 0.947 . S
C124 C159 1.382 . S
C125 C124 1.384 . S
C125 C126 1.378 . S
C126 C125 1.378 . S
C126 C127 1.378 . S
C126 H138 0.952 . S
C127 C126 1.378 . S
C127 H139 0.950 . S
C127 C158 1.383 . S
H128 C147 0.947 . S
H129 C148 0.946 . S
H130 C150 0.953 . S
H131 C151 0.945 . S
H132 C153 0.952 . S
H133 C154 0.949 . S
H134 C156 0.950 . S
H135 C157 0.948 . S
H136 C159 0.951 . S
H137 C124 0.947 . S
H138 C126 0.952 . S
H139 C127 0.950 . S
N140 C143 1.368 1_655 S
N140 C145 1.363 . S
N141 C143 1.357 1_655 S
N141 C144 1.372 . S
N142 C144 1.361 . S
N142 C145 1.377 . S
C143 N140 1.368 1_455 S
C143 N141 1.357 1_455 S
C143 C146 1.508 . S
C144 N141 1.372 . S
C144 N142 1.361 . S
C144 C152 1.457 . S
C145 N140 1.363 . S
C145 N142 1.377 . S
C145 C158 1.479 . S
C146 C143 1.508 . S
C146 C147 1.383 . S
C146 C151 1.385 . S
C147 H128 0.947 . S
C147 C146 1.383 . S
C147 C148 1.388 . S
C148 H129 0.946 . S
C148 C147 1.388 . S
C148 C149 1.384 . S
C149 C148 1.384 . S
C149 C150 1.377 . S
C150 H130 0.953 . S
C150 C149 1.377 . S
C150 C151 1.369 . S
C151 H131 0.945 . S
C151 C146 1.385 . S
C151 C150 1.369 . S
C152 C144 1.457 . S
C152 C153 1.372 . S
C152 C157 1.364 . S
C153 H132 0.952 . S
C153 C152 1.372 . S
C153 C154 1.389 . S
C154 H133 0.949 . S
C154 C153 1.389 . S
C154 C155 1.387 . S
C155 C154 1.387 . S
C155 C156 1.372 . S
C156 H134 0.950 . S
C156 C155 1.372 . S
C156 C157 1.379 . S
C157 H135 0.948 . S
C157 C152 1.364 . S
C157 C156 1.379 . S
C158 C127 1.383 . S
C158 C145 1.479 . S
C158 C159 1.398 . S
C159 C124 1.382 . S
C159 H136 0.951 . S
C159 C158 1.398 . S
C160 C161 1.384 . S
C160 H173 0.947 . S
C160 C195 1.382 . S
C161 C160 1.384 . S
C161 C162 1.378 . S
C162 C161 1.378 . S
C162 C163 1.378 . S
C162 H174 0.952 . S
C163 C162 1.378 . S
C163 H175 0.950 . S
C163 C194 1.383 . S
H164 C183 0.947 . S
H165 C184 0.946 . S
H166 C186 0.953 . S
H167 C187 0.945 . S
H168 C189 0.952 . S
H169 C190 0.949 . S
H170 C192 0.950 . S
H171 C193 0.948 . S
H172 C195 0.951 . S
H173 C160 0.947 . S
H174 C162 0.952 . S
H175 C163 0.950 . S
N176 C179 1.382 1_556 S
N176 C181 1.363 . S
N177 C179 1.371 . S
N177 C180 1.372 . S
N178 C180 1.361 . S
N178 C181 1.377 1_554 S
C179 N176 1.382 1_554 S
C179 N177 1.371 . S
C179 C182 1.480 . S
C180 N177 1.372 . S
C180 N178 1.361 . S
C180 C188 1.457 . S
C181 N176 1.363 . S
C181 N178 1.377 1_556 S
C181 C194 1.479 . S
C182 C179 1.480 . S
C182 C183 1.383 1_554 S
C182 C187 1.385 . S
C183 H164 0.947 . S
C183 C182 1.383 1_556 S
C183 C184 1.388 . S
C184 H165 0.946 . S
C184 C183 1.388 . S
C184 C185 1.384 1_556 S
C185 C184 1.384 1_554 S
C185 C186 1.377 . S
C186 H166 0.953 . S
C186 C185 1.377 . S
C186 C187 1.369 . S
C187 H167 0.945 . S
C187 C182 1.385 . S
C187 C186 1.369 . S
C188 C180 1.457 . S
C188 C189 1.372 . S
C188 C193 1.364 . S
C189 H168 0.952 . S
C189 C188 1.372 . S
C189 C190 1.389 . S
C190 H169 0.949 . S
C190 C189 1.389 . S
C190 C191 1.387 . S
C191 C190 1.387 . S
C191 C192 1.372 . S
C192 H170 0.950 . S
C192 C191 1.372 . S
C192 C193 1.379 . S
C193 H171 0.948 . S
C193 C188 1.364 . S
C193 C192 1.379 . S
C194 C163 1.383 . S
C194 C181 1.479 . S
C194 C195 1.398 . S
C195 C160 1.382 . S
C195 H172 0.951 . S
C195 C194 1.398 . S
C196 C197 1.384 . S
C196 H209 0.947 . S
C196 C231 1.382 . S
C197 C196 1.384 . S
C197 C198 1.378 . S
C198 C197 1.378 . S
C198 C199 1.378 . S
C198 H210 0.952 . S
C199 C198 1.378 . S
C199 H211 0.950 . S
C199 C230 1.383 . S
H200 C219 0.947 . S
H201 C220 0.946 . S
H202 C222 0.953 . S
H203 C223 0.945 . S
H204 C225 0.952 . S
H205 C226 0.949 . S
H206 C228 0.950 . S
H207 C229 0.948 . S
H208 C231 0.951 . S
H209 C196 0.947 . S
H210 C198 0.952 . S
H211 C199 0.950 . S
N212 C215 1.382 . S
N212 C217 1.363 . S
N213 C215 1.371 . S
N213 C216 1.372 . S
N214 C216 1.361 . S
N214 C217 1.377 . S
C215 N212 1.382 . S
C215 N213 1.371 . S
C215 C218 1.480 1_455 S
C216 N213 1.372 . S
C216 N214 1.361 . S
C216 C224 1.457 . S
C217 N212 1.363 . S
C217 N214 1.377 . S
C217 C230 1.479 . S
C218 C215 1.480 1_655 S
C218 C219 1.383 . S
C218 C223 1.385 . S
C219 H200 0.947 . S
C219 C218 1.383 . S
C219 C220 1.388 . S
C220 H201 0.946 . S
C220 C219 1.388 . S
C220 C221 1.384 . S
C221 C220 1.384 . S
C221 C222 1.377 . S
C222 H202 0.953 . S
C222 C221 1.377 . S
C222 C223 1.369 . S
C223 H203 0.945 . S
C223 C218 1.385 . S
C223 C222 1.369 . S
C224 C216 1.457 . S
C224 C225 1.372 . S
C224 C229 1.364 . S
C225 H204 0.952 . S
C225 C224 1.372 . S
C225 C226 1.389 . S
C226 H205 0.949 . S
C226 C225 1.389 . S
C226 C227 1.387 . S
C227 C226 1.387 . S
C227 C228 1.372 . S
C228 H206 0.950 . S
C228 C227 1.372 . S
C228 C229 1.379 . S
C229 H207 0.948 . S
C229 C224 1.364 . S
C229 C228 1.379 . S
C230 C199 1.383 . S
C230 C217 1.479 . S
C230 C231 1.398 . S
C231 C196 1.382 . S
C231 H208 0.951 . S
C231 C230 1.398 . S
C232 C233 1.384 . S
C232 H245 0.947 . S
C232 C267 1.382 . S
C233 C232 1.384 . S
C233 C234 1.378 . S
C234 C233 1.378 . S
C234 C235 1.378 . S
C234 H246 0.952 . S
C235 C234 1.378 . S
C235 H247 0.950 . S
C235 C266 1.383 . S
H236 C255 0.947 . S
H237 C256 0.946 . S
H238 C258 0.953 . S
H239 C259 0.945 . S
H240 C261 0.952 . S
H241 C262 0.949 . S
H242 C264 0.950 . S
H243 C265 0.948 . S
H244 C267 0.951 . S
H245 C232 0.947 . S
H246 C234 0.952 . S
H247 C235 0.950 . S
N248 C251 1.382 . S
N248 C253 1.363 1_545 S
N249 C251 1.371 . S
N249 C252 1.372 1_545 S
N250 C252 1.361 . S
N250 C253 1.377 . S
C251 N248 1.382 . S
C251 N249 1.371 . S
C251 C254 1.480 . S
C252 N249 1.372 1_565 S
C252 N250 1.361 . S
C252 C260 1.457 . S
C253 N248 1.363 1_565 S
C253 N250 1.377 . S
C253 C266 1.479 . S
C254 C251 1.480 . S
C254 C255 1.383 . S
C254 C259 1.385 . S
C255 H236 0.947 . S
C255 C254 1.383 . S
C255 C256 1.388 . S
C256 H237 0.946 . S
C256 C255 1.388 . S
C256 C257 1.384 . S
C257 C256 1.384 . S
C257 C258 1.377 . S
C258 H238 0.953 . S
C258 C257 1.377 . S
C258 C259 1.369 . S
C259 H239 0.945 . S
C259 C254 1.385 . S
C259 C258 1.369 . S
C260 C252 1.457 . S
C260 C261 1.372 . S
C260 C265 1.364 . S
C261 H240 0.952 . S
C261 C260 1.372 . S
C261 C262 1.389 . S
C262 H241 0.949 . S
C262 C261 1.389 . S
C262 C263 1.387 . S
C263 C262 1.387 . S
C263 C264 1.372 . S
C264 H242 0.950 . S
C264 C263 1.372 . S
C264 C265 1.379 . S
C265 H243 0.948 . S
C265 C260 1.364 . S
C265 C264 1.379 . S
C266 C235 1.383 . S
C266 C253 1.479 . S
C266 C267 1.398 . S
C267 C232 1.382 . S
C267 H244 0.951 . S
C267 C266 1.398 . S
C268 C269 1.384 . S
C268 H281 0.947 . S
C268 C303 1.382 . S
C269 C268 1.384 . S
C269 C270 1.378 . S
C270 C269 1.378 . S
C270 C271 1.378 . S
C270 H282 0.952 . S
C271 C270 1.378 . S
C271 H283 0.950 . S
C271 C302 1.383 . S
H272 C291 0.947 . S
H273 C292 0.946 . S
H274 C294 0.953 . S
H275 C295 0.945 . S
H276 C297 0.952 . S
H277 C298 0.949 . S
H278 C300 0.950 . S
H279 C301 0.948 . S
H280 C303 0.951 . S
H281 C268 0.947 . S
H282 C270 0.952 . S
H283 C271 0.950 . S
N284 C287 1.382 1_556 S
N284 C289 1.363 . S
N285 C287 1.371 . S
N285 C288 1.372 . S
N286 C288 1.361 . S
N286 C289 1.377 1_554 S
C287 N284 1.382 1_554 S
C287 N285 1.371 . S
C287 C290 1.480 . S
C288 N285 1.372 . S
C288 N286 1.361 . S
C288 C296 1.457 . S
C289 N284 1.363 . S
C289 N286 1.377 1_556 S
C289 C302 1.479 . S
C290 C287 1.480 . S
C290 C291 1.383 1_554 S
C290 C295 1.385 . S
C291 H272 0.947 . S
C291 C290 1.383 1_556 S
C291 C292 1.388 . S
C292 H273 0.946 . S
C292 C291 1.388 . S
C292 C293 1.384 1_556 S
C293 C292 1.384 1_554 S
C293 C294 1.377 . S
C294 H274 0.953 . S
C294 C293 1.377 . S
C294 C295 1.369 . S
C295 H275 0.945 . S
C295 C290 1.385 . S
C295 C294 1.369 . S
C296 C288 1.457 . S
C296 C297 1.372 . S
C296 C301 1.364 . S
C297 H276 0.952 . S
C297 C296 1.372 . S
C297 C298 1.389 . S
C298 H277 0.949 . S
C298 C297 1.389 . S
C298 C299 1.387 . S
C299 C298 1.387 . S
C299 C300 1.372 . S
C300 H278 0.950 . S
C300 C299 1.372 . S
C300 C301 1.379 . S
C301 H279 0.948 . S
C301 C296 1.364 . S
C301 C300 1.379 . S
C302 C271 1.383 . S
C302 C289 1.479 . S
C302 C303 1.398 . S
C303 C268 1.382 . S
C303 H280 0.951 . S
C303 C302 1.398 . S
C304 C305 1.384 . S
C304 H317 0.947 . S
C304 C339 1.382 . S
C305 C304 1.384 . S
C305 C306 1.378 . S
C306 C305 1.378 . S
C306 C307 1.378 . S
C306 H318 0.952 . S
C307 C306 1.378 . S
C307 H319 0.950 . S
C307 C338 1.383 . S
H308 C327 0.947 . S
H309 C328 0.946 . S
H310 C330 0.953 . S
H311 C331 0.945 . S
H312 C333 0.952 . S
H313 C334 0.949 . S
H314 C336 0.950 . S
H315 C337 0.948 . S
H316 C339 0.951 . S
H317 C304 0.947 . S
H318 C306 0.952 . S
H319 C307 0.950 . S
N320 C323 1.382 1_545 S
N320 C325 1.363 . S
N321 C323 1.371 1_545 S
N321 C324 1.372 . S
N322 C324 1.361 . S
N322 C325 1.377 . S
C323 N320 1.382 1_565 S
C323 N321 1.371 1_565 S
C323 C326 1.480 . S
C324 N321 1.372 . S
C324 N322 1.361 . S
C324 C332 1.457 . S
C325 N320 1.363 . S
C325 N322 1.377 . S
C325 C338 1.479 . S
C326 C323 1.480 . S
C326 C327 1.383 . S
C326 C331 1.385 . S
C327 H308 0.947 . S
C327 C326 1.383 . S
C327 C328 1.388 . S
C328 H309 0.946 . S
C328 C327 1.388 . S
C328 C329 1.384 . S
C329 C328 1.384 . S
C329 C330 1.377 . S
C330 H310 0.953 . S
C330 C329 1.377 . S
C330 C331 1.369 . S
C331 H311 0.945 . S
C331 C326 1.385 . S
C331 C330 1.369 . S
C332 C324 1.457 . S
C332 C333 1.372 . S
C332 C337 1.364 . S
C333 H312 0.952 . S
C333 C332 1.372 . S
C333 C334 1.389 . S
C334 H313 0.949 . S
C334 C333 1.389 . S
C334 C335 1.387 . S
C335 C334 1.387 . S
C335 C336 1.372 . S
C336 H314 0.950 . S
C336 C335 1.372 . S
C336 C337 1.379 . S
C337 H315 0.948 . S
C337 C332 1.364 . S
C337 C336 1.379 . S
C338 C307 1.383 . S
C338 C325 1.479 . S
C338 C339 1.398 . S
C339 C304 1.382 . S
C339 H316 0.951 . S
C339 C338 1.398 . S
C340 C341 1.384 . S
C340 H353 0.947 . S
C340 C375 1.382 . S
C341 C340 1.384 . S
C341 C342 1.378 . S
C342 C341 1.378 . S
C342 C343 1.378 . S
C342 H354 0.952 . S
C343 C342 1.378 . S
C343 H355 0.950 . S
C343 C374 1.383 . S
H344 C363 0.947 . S
H345 C364 0.946 . S
H346 C366 0.953 . S
H347 C367 0.945 . S
H348 C369 0.952 . S
H349 C370 0.949 . S
H350 C372 0.950 . S
H351 C373 0.948 . S
H352 C375 0.951 . S
H353 C340 0.947 . S
H354 C342 0.952 . S
H355 C343 0.950 . S
N356 C359 1.400 . S
N356 C361 1.363 . S
N357 C359 1.352 1_556 S
N357 C360 1.372 . S
N358 C360 1.380 . S
N358 C361 1.357 1_556 S
C359 N356 1.400 . S
C359 N357 1.352 1_554 S
C359 C362 1.479 1_554 S
C360 N357 1.372 . S
C360 N358 1.380 . S
C360 C368 1.457 . S
C361 N356 1.363 . S
C361 N358 1.357 1_554 S
C361 C374 1.479 . S
C362 C359 1.479 1_556 S
C362 C363 1.379 1_556 S
C362 C367 1.389 . S
C363 H344 0.947 . S
C363 C362 1.379 1_554 S
C363 C364 1.388 . S
C364 H345 0.946 . S
C364 C363 1.388 . S
C364 C365 1.382 1_554 S
C365 C364 1.382 1_556 S
C365 C366 1.378 . S
C366 H346 0.953 . S
C366 C365 1.378 . S
C366 C367 1.369 . S
C367 H347 0.945 . S
C367 C362 1.389 . S
C367 C366 1.369 . S
C368 C360 1.457 . S
C368 C369 1.372 . S
C368 C373 1.364 . S
C369 H348 0.952 . S
C369 C368 1.372 . S
C369 C370 1.389 . S
C370 H349 0.949 . S
C370 C369 1.389 . S
C370 C371 1.387 . S
C371 C370 1.387 . S
C371 C372 1.372 . S
C372 H350 0.950 . S
C372 C371 1.372 . S
C372 C373 1.379 . S
C373 H351 0.948 . S
C373 C368 1.364 . S
C373 C372 1.379 . S
C374 C343 1.383 . S
C374 C361 1.479 . S
C374 C375 1.398 . S
C375 C340 1.382 . S
C375 H352 0.951 . S
C375 C374 1.398 . S
H376 C384 0.929 . S
H377 C386 0.930 . S
H378 C388 0.930 . S
H379 C391 0.929 . S
H380 C394 0.930 . S
H381 C396 0.960 . S
H382 C396 0.960 . S
H383 C396 0.960 . S
C384 H376 0.929 . S
C384 C385 1.377 . S
C384 C386 1.384 . S
C385 C384 1.377 . S
C385 C391 1.390 . S
C386 H377 0.930 . S
C386 C384 1.384 . S
C386 C387 1.372 . S
C387 C386 1.372 . S
C387 C388 1.400 . S
C387 C392 1.490 . S
C388 H378 0.930 . S
C388 C387 1.400 . S
C388 C391 1.386 . S
H389 C405 0.930 . S
H390 C406 0.931 . S
C391 H379 0.929 . S
C391 C385 1.390 . S
C391 C388 1.386 . S
C392 C387 1.490 . S
C392 C394 1.395 . S
C392 C395 1.403 . S
H393 C399 0.930 . S
C394 H380 0.930 . S
C394 C392 1.395 . S
C394 C397 1.403 . S
C395 C392 1.403 . S
C395 C396 1.524 . S
C395 C399 1.400 . S
C396 H381 0.960 . S
C396 H382 0.960 . S
C396 H383 0.960 . S
C396 C395 1.524 . S
C397 C394 1.403 . S
C397 C398 1.392 . S
C397 C401 1.495 . S
C398 C397 1.392 . S
C398 C399 1.385 . S
C398 C400 1.478 . S
C399 H393 0.930 . S
C399 C395 1.400 . S
C399 C398 1.385 . S
C400 C398 1.478 . S
C400 C402 1.381 . S
C400 C406 1.383 . S
C401 C397 1.495 . S
C401 H407 0.959 . S
C401 H408 0.961 . S
C401 H409 0.960 . S
C402 C400 1.381 . S
C402 C403 1.394 . S
C402 H410 0.930 . S
C403 C402 1.394 . S
C403 C404 1.383 . S
C403 H411 0.929 . S
C404 C403 1.383 . S
C404 C405 1.377 . S
C405 H389 0.930 . S
C405 C404 1.377 . S
C405 C406 1.379 . S
C406 H390 0.931 . S
C406 C400 1.383 . S
C406 C405 1.379 . S
H407 C401 0.959 . S
H408 C401 0.961 . S
H409 C401 0.960 . S
H410 C402 0.930 . S
H411 C403 0.929 . S
H412 C420 0.929 . S
H413 C422 0.930 . S
H414 C424 0.930 . S
H415 C427 0.929 . S
H416 C430 0.930 . S
H417 C432 0.960 . S
H418 C432 0.960 . S
H419 C432 0.960 . S
C420 H412 0.929 . S
C420 C421 1.377 . S
C420 C422 1.384 . S
C421 C420 1.377 . S
C421 C427 1.390 . S
C422 H413 0.930 . S
C422 C420 1.384 . S
C422 C423 1.372 . S
C423 C422 1.372 . S
C423 C424 1.400 . S
C423 C428 1.490 . S
C424 H414 0.930 . S
C424 C423 1.400 . S
C424 C427 1.386 . S
H425 C441 0.930 . S
H426 C442 0.931 . S
C427 H415 0.929 . S
C427 C421 1.390 . S
C427 C424 1.386 . S
C428 C423 1.490 . S
C428 C430 1.395 . S
C428 C431 1.403 . S
H429 C435 0.930 . S
C430 H416 0.930 . S
C430 C428 1.395 . S
C430 C433 1.403 . S
C431 C428 1.403 . S
C431 C432 1.524 . S
C431 C435 1.400 . S
C432 H417 0.960 . S
C432 H418 0.960 . S
C432 H419 0.960 . S
C432 C431 1.524 . S
C433 C430 1.403 . S
C433 C434 1.392 . S
C433 C437 1.495 . S
C434 C433 1.392 . S
C434 C435 1.385 . S
C434 C436 1.478 . S
C435 H429 0.930 . S
C435 C431 1.400 . S
C435 C434 1.385 . S
C436 C434 1.478 . S
C436 C438 1.381 . S
C436 C442 1.383 . S
C437 C433 1.495 . S
C437 H443 0.959 . S
C437 H444 0.961 . S
C437 H445 0.960 . S
C438 C436 1.381 . S
C438 C439 1.394 . S
C438 H446 0.930 . S
C439 C438 1.394 . S
C439 C440 1.383 . S
C439 H447 0.929 . S
C440 C439 1.383 . S
C440 C441 1.377 . S
C441 H425 0.930 . S
C441 C440 1.377 . S
C441 C442 1.379 . S
C442 H426 0.931 . S
C442 C436 1.383 . S
C442 C441 1.379 . S
H443 C437 0.959 . S
H444 C437 0.961 . S
H445 C437 0.960 . S
H446 C438 0.930 . S
H447 C439 0.929 . S
H448 C456 0.929 . S
H449 C458 0.930 . S
H450 C460 0.930 . S
H451 C463 0.929 . S
H452 C466 0.930 . S
H453 C468 0.960 . S
H454 C468 0.960 . S
H455 C468 0.960 . S
C456 H448 0.929 . S
C456 C457 1.377 . S
C456 C458 1.384 . S
C457 C456 1.377 . S
C457 C463 1.390 . S
C458 H449 0.930 . S
C458 C456 1.384 . S
C458 C459 1.372 . S
C459 C458 1.372 . S
C459 C460 1.400 . S
C459 C464 1.490 . S
C460 H450 0.930 . S
C460 C459 1.400 . S
C460 C463 1.386 . S
H461 C477 0.930 . S
H462 C478 0.931 . S
C463 H451 0.929 . S
C463 C457 1.390 . S
C463 C460 1.386 . S
C464 C459 1.490 . S
C464 C466 1.395 . S
C464 C467 1.403 . S
H465 C471 0.930 . S
C466 H452 0.930 . S
C466 C464 1.395 . S
C466 C469 1.403 . S
C467 C464 1.403 . S
C467 C468 1.524 . S
C467 C471 1.400 . S
C468 H453 0.960 . S
C468 H454 0.960 . S
C468 H455 0.960 . S
C468 C467 1.524 . S
C469 C466 1.403 . S
C469 C470 1.392 . S
C469 C473 1.495 . S
C470 C469 1.392 . S
C470 C471 1.385 . S
C470 C472 1.478 . S
C471 H465 0.930 . S
C471 C467 1.400 . S
C471 C470 1.385 . S
C472 C470 1.478 . S
C472 C474 1.381 . S
C472 C478 1.383 . S
C473 C469 1.495 . S
C473 H479 0.959 . S
C473 H480 0.961 . S
C473 H481 0.960 . S
C474 C472 1.381 . S
C474 C475 1.394 . S
C474 H482 0.930 . S
C475 C474 1.394 . S
C475 C476 1.383 . S
C475 H483 0.929 . S
C476 C475 1.383 . S
C476 C477 1.377 . S
C477 H461 0.930 . S
C477 C476 1.377 . S
C477 C478 1.379 . S
C478 H462 0.931 . S
C478 C472 1.383 . S
C478 C477 1.379 . S
H479 C473 0.959 . S
H480 C473 0.961 . S
H481 C473 0.960 . S
H482 C474 0.930 . S
H483 C475 0.929 . S
H484 C492 0.929 . S
H485 C494 0.930 . S
H486 C496 0.930 . S
H487 C499 0.929 . S
H488 C502 0.930 . S
H489 C504 0.960 . S
H490 C504 0.960 . S
H491 C504 0.960 . S
C492 H484 0.929 . S
C492 C493 1.377 . S
C492 C494 1.384 . S
C493 C492 1.377 . S
C493 C499 1.390 . S
C494 H485 0.930 . S
C494 C492 1.384 . S
C494 C495 1.372 . S
C495 C494 1.372 . S
C495 C496 1.400 . S
C495 C500 1.490 . S
C496 H486 0.930 . S
C496 C495 1.400 . S
C496 C499 1.386 . S
H497 C513 0.930 . S
H498 C514 0.931 . S
C499 H487 0.929 . S
C499 C493 1.390 . S
C499 C496 1.386 . S
C500 C495 1.490 . S
C500 C502 1.395 . S
C500 C503 1.403 . S
H501 C507 0.930 . S
C502 H488 0.930 . S
C502 C500 1.395 . S
C502 C505 1.403 . S
C503 C500 1.403 . S
C503 C504 1.524 . S
C503 C507 1.400 . S
C504 H489 0.960 . S
C504 H490 0.960 . S
C504 H491 0.960 . S
C504 C503 1.524 . S
C505 C502 1.403 . S
C505 C506 1.392 . S
C505 C509 1.495 . S
C506 C505 1.392 . S
C506 C507 1.385 . S
C506 C508 1.478 . S
C507 H501 0.930 . S
C507 C503 1.400 . S
C507 C506 1.385 . S
C508 C506 1.478 . S
C508 C510 1.381 . S
C508 C514 1.383 . S
C509 C505 1.495 . S
C509 H515 0.959 . S
C509 H516 0.961 . S
C509 H517 0.960 . S
C510 C508 1.381 . S
C510 C511 1.394 . S
C510 H518 0.930 . S
C511 C510 1.394 . S
C511 C512 1.383 . S
C511 H519 0.929 . S
C512 C511 1.383 . S
C512 C513 1.377 . S
C513 H497 0.930 . S
C513 C512 1.377 . S
C513 C514 1.379 . S
C514 H498 0.931 . S
C514 C508 1.383 . S
C514 C513 1.379 . S
H515 C509 0.959 . S
H516 C509 0.961 . S
H517 C509 0.960 . S
H518 C510 0.930 . S
H519 C511 0.929 . S
H520 C528 0.929 . S
H521 C530 0.930 . S
H522 C532 0.930 . S
H523 C535 0.929 . S
H524 C538 0.930 . S
H525 C540 0.960 . S
H526 C540 0.960 . S
H527 C540 0.960 . S
C528 H520 0.929 . S
C528 C529 1.377 . S
C528 C530 1.384 . S
C529 C528 1.377 . S
C529 C535 1.390 . S
C530 H521 0.930 . S
C530 C528 1.384 . S
C530 C531 1.372 . S
C531 C530 1.372 . S
C531 C532 1.400 . S
C531 C536 1.490 . S
C532 H522 0.930 . S
C532 C531 1.400 . S
C532 C535 1.386 . S
H533 C549 0.930 . S
H534 C550 0.931 . S
C535 H523 0.929 . S
C535 C529 1.390 . S
C535 C532 1.386 . S
C536 C531 1.490 . S
C536 C538 1.395 . S
C536 C539 1.403 . S
H537 C543 0.930 . S
C538 H524 0.930 . S
C538 C536 1.395 . S
C538 C541 1.403 . S
C539 C536 1.403 . S
C539 C540 1.524 . S
C539 C543 1.400 . S
C540 H525 0.960 . S
C540 H526 0.960 . S
C540 H527 0.960 . S
C540 C539 1.524 . S
C541 C538 1.403 . S
C541 C542 1.392 . S
C541 C545 1.495 . S
C542 C541 1.392 . S
C542 C543 1.385 . S
C542 C544 1.478 . S
C543 H537 0.930 . S
C543 C539 1.400 . S
C543 C542 1.385 . S
C544 C542 1.478 . S
C544 C546 1.381 . S
C544 C550 1.383 . S
C545 C541 1.495 . S
C545 H551 0.959 . S
C545 H552 0.961 . S
C545 H553 0.960 . S
C546 C544 1.381 . S
C546 C547 1.394 . S
C546 H554 0.930 . S
C547 C546 1.394 . S
C547 C548 1.383 . S
C547 H555 0.929 . S
C548 C547 1.383 . S
C548 C549 1.377 . S
C549 H533 0.930 . S
C549 C548 1.377 . S
C549 C550 1.379 . S
C550 H534 0.931 . S
C550 C544 1.383 . S
C550 C549 1.379 . S
H551 C545 0.959 . S
H552 C545 0.961 . S
H553 C545 0.960 . S
H554 C546 0.930 . S
H555 C547 0.929 . S
H556 C564 0.929 . S
H557 C566 0.930 . S
H558 C568 0.930 . S
H559 C571 0.929 . S
H560 C574 0.930 . S
H561 C576 0.960 . S
H562 C576 0.960 . S
H563 C576 0.960 . S
C564 H556 0.929 . S
C564 C565 1.377 . S
C564 C566 1.384 . S
C565 C564 1.377 . S
C565 C571 1.390 . S
C566 H557 0.930 . S
C566 C564 1.384 . S
C566 C567 1.372 . S
C567 C566 1.372 . S
C567 C568 1.400 . S
C567 C572 1.490 . S
C568 H558 0.930 . S
C568 C567 1.400 . S
C568 C571 1.386 . S
H569 C585 0.930 . S
H570 C586 0.931 . S
C571 H559 0.929 . S
C571 C565 1.390 . S
C571 C568 1.386 . S
C572 C567 1.490 . S
C572 C574 1.395 . S
C572 C575 1.403 . S
H573 C579 0.930 . S
C574 H560 0.930 . S
C574 C572 1.395 . S
C574 C577 1.403 . S
C575 C572 1.403 . S
C575 C576 1.524 . S
C575 C579 1.400 . S
C576 H561 0.960 . S
C576 H562 0.960 . S
C576 H563 0.960 . S
C576 C575 1.524 . S
C577 C574 1.403 . S
C577 C578 1.392 . S
C577 C581 1.495 . S
C578 C577 1.392 . S
C578 C579 1.385 . S
C578 C580 1.478 . S
C579 H573 0.930 . S
C579 C575 1.400 . S
C579 C578 1.385 . S
C580 C578 1.478 . S
C580 C582 1.381 . S
C580 C586 1.383 . S
C581 C577 1.495 . S
C581 H587 0.959 . S
C581 H588 0.961 . S
C581 H589 0.960 . S
C582 C580 1.381 . S
C582 C583 1.394 . S
C582 H590 0.930 . S
C583 C582 1.394 . S
C583 C584 1.383 . S
C583 H591 0.929 . S
C584 C583 1.383 . S
C584 C585 1.377 . S
C585 H569 0.930 . S
C585 C584 1.377 . S
C585 C586 1.379 . S
C586 H570 0.931 . S
C586 C580 1.383 . S
C586 C585 1.379 . S
H587 C581 0.959 . S
H588 C581 0.961 . S
H589 C581 0.960 . S
H590 C582 0.930 . S
H591 C583 0.929 . S
H592 C600 0.929 . S
H593 C602 0.930 . S
H594 C604 0.930 . S
H595 C607 0.929 . S
H596 C610 0.930 . S
H597 C612 0.960 . S
H598 C612 0.960 . S
H599 C612 0.960 . S
C600 H592 0.929 . S
C600 C601 1.377 . S
C600 C602 1.384 . S
C601 C600 1.377 . S
C601 C607 1.390 . S
C602 H593 0.930 . S
C602 C600 1.384 . S
C602 C603 1.372 . S
C603 C602 1.372 . S
C603 C604 1.400 . S
C603 C608 1.490 . S
C604 H594 0.930 . S
C604 C603 1.400 . S
C604 C607 1.386 . S
H605 C621 0.930 . S
H606 C622 0.931 . S
C607 H595 0.929 . S
C607 C601 1.390 . S
C607 C604 1.386 . S
C608 C603 1.490 . S
C608 C610 1.395 . S
C608 C611 1.403 . S
H609 C615 0.930 . S
C610 H596 0.930 . S
C610 C608 1.395 . S
C610 C613 1.403 . S
C611 C608 1.403 . S
C611 C612 1.524 . S
C611 C615 1.400 . S
C612 H597 0.960 . S
C612 H598 0.960 . S
C612 H599 0.960 . S
C612 C611 1.524 . S
C613 C610 1.403 . S
C613 C614 1.392 . S
C613 C617 1.495 . S
C614 C613 1.392 . S
C614 C615 1.385 . S
C614 C616 1.478 . S
C615 H609 0.930 . S
C615 C611 1.400 . S
C615 C614 1.385 . S
C616 C614 1.478 . S
C616 C618 1.381 . S
C616 C622 1.383 . S
C617 C613 1.495 . S
C617 H623 0.959 . S
C617 H624 0.961 . S
C617 H625 0.960 . S
C618 C616 1.381 . S
C618 C619 1.394 . S
C618 H626 0.930 . S
C619 C618 1.394 . S
C619 C620 1.383 . S
C619 H627 0.929 . S
C620 C619 1.383 . S
C620 C621 1.377 . S
C621 H605 0.930 . S
C621 C620 1.377 . S
C621 C622 1.379 . S
C622 H606 0.931 . S
C622 C616 1.383 . S
C622 C621 1.379 . S
H623 C617 0.959 . S
H624 C617 0.961 . S
H625 C617 0.960 . S
H626 C618 0.930 . S
H627 C619 0.929 . S
H628 C636 0.929 . S
H629 C638 0.930 . S
H630 C640 0.930 . S
H631 C643 0.929 . S
H632 C646 0.930 . S
H633 C648 0.960 . S
H634 C648 0.960 . S
H635 C648 0.960 . S
C636 H628 0.929 . S
C636 C637 1.377 . S
C636 C638 1.384 . S
C637 C636 1.377 . S
C637 C643 1.390 . S
C638 H629 0.930 . S
C638 C636 1.384 . S
C638 C639 1.372 . S
C639 C638 1.372 . S
C639 C640 1.400 . S
C639 C644 1.490 . S
C640 H630 0.930 . S
C640 C639 1.400 . S
C640 C643 1.386 . S
H641 C657 0.930 . S
H642 C658 0.931 . S
C643 H631 0.929 . S
C643 C637 1.390 . S
C643 C640 1.386 . S
C644 C639 1.490 . S
C644 C646 1.395 . S
C644 C647 1.403 . S
H645 C651 0.930 . S
C646 H632 0.930 . S
C646 C644 1.395 . S
C646 C649 1.403 . S
C647 C644 1.403 . S
C647 C648 1.524 . S
C647 C651 1.400 . S
C648 H633 0.960 . S
C648 H634 0.960 . S
C648 H635 0.960 . S
C648 C647 1.524 . S
C649 C646 1.403 . S
C649 C650 1.392 . S
C649 C653 1.495 . S
C650 C649 1.392 . S
C650 C651 1.385 . S
C650 C652 1.478 . S
C651 H645 0.930 . S
C651 C647 1.400 . S
C651 C650 1.385 . S
C652 C650 1.478 . S
C652 C654 1.381 . S
C652 C658 1.383 . S
C653 C649 1.495 . S
C653 H659 0.959 . S
C653 H660 0.961 . S
C653 H661 0.960 . S
C654 C652 1.381 . S
C654 C655 1.394 . S
C654 H662 0.930 . S
C655 C654 1.394 . S
C655 C656 1.383 . S
C655 H663 0.929 . S
C656 C655 1.383 . S
C656 C657 1.377 . S
C657 H641 0.930 . S
C657 C656 1.377 . S
C657 C658 1.379 . S
C658 H642 0.931 . S
C658 C652 1.383 . S
C658 C657 1.379 . S
H659 C653 0.959 . S
H660 C653 0.961 . S
H661 C653 0.960 . S
H662 C654 0.930 . S
H663 C655 0.929 . S
H664 C672 0.929 . S
H665 C674 0.930 . S
H666 C676 0.930 . S
H667 C679 0.929 . S
H668 C682 0.930 . S
H669 C684 0.960 . S
H670 C684 0.960 . S
H671 C684 0.960 . S
C672 H664 0.929 . S
C672 C673 1.377 . S
C672 C674 1.384 . S
C673 C672 1.377 . S
C673 C679 1.390 . S
C674 H665 0.930 . S
C674 C672 1.384 . S
C674 C675 1.372 . S
C675 C674 1.372 . S
C675 C676 1.400 . S
C675 C680 1.490 . S
C676 H666 0.930 . S
C676 C675 1.400 . S
C676 C679 1.386 . S
H677 C693 0.930 . S
H678 C694 0.931 . S
C679 H667 0.929 . S
C679 C673 1.390 . S
C679 C676 1.386 . S
C680 C675 1.490 . S
C680 C682 1.395 . S
C680 C683 1.403 . S
H681 C687 0.930 . S
C682 H668 0.930 . S
C682 C680 1.395 . S
C682 C685 1.403 . S
C683 C680 1.403 . S
C683 C684 1.524 . S
C683 C687 1.400 . S
C684 H669 0.960 . S
C684 H670 0.960 . S
C684 H671 0.960 . S
C684 C683 1.524 . S
C685 C682 1.403 . S
C685 C686 1.392 . S
C685 C689 1.495 . S
C686 C685 1.392 . S
C686 C687 1.385 . S
C686 C688 1.478 . S
C687 H681 0.930 . S
C687 C683 1.400 . S
C687 C686 1.385 . S
C688 C686 1.478 . S
C688 C690 1.381 . S
C688 C694 1.383 . S
C689 C685 1.495 . S
C689 H695 0.959 . S
C689 H696 0.961 . S
C689 H697 0.960 . S
C690 C688 1.381 . S
C690 C691 1.394 . S
C690 H698 0.930 . S
C691 C690 1.394 . S
C691 C692 1.383 . S
C691 H699 0.929 . S
C692 C691 1.383 . S
C692 C693 1.377 . S
C693 H677 0.930 . S
C693 C692 1.377 . S
C693 C694 1.379 . S
C694 H678 0.931 . S
C694 C688 1.383 . S
C694 C693 1.379 . S
H695 C689 0.959 . S
H696 C689 0.961 . S
H697 C689 0.960 . S
H698 C690 0.930 . S
H699 C691 0.929 . S
H700 C708 0.929 . S
H701 C710 0.930 . S
H702 C712 0.930 . S
H703 C715 0.929 . S
H704 C718 0.930 . S
H705 C720 0.960 . S
H706 C720 0.960 . S
H707 C720 0.960 . S
C708 H700 0.929 . S
C708 C709 1.377 . S
C708 C710 1.384 . S
C709 C708 1.377 . S
C709 C715 1.390 . S
C710 H701 0.930 . S
C710 C708 1.384 . S
C710 C711 1.372 . S
C711 C710 1.372 . S
C711 C712 1.400 . S
C711 C716 1.490 . S
C712 H702 0.930 . S
C712 C711 1.400 . S
C712 C715 1.386 . S
H713 C729 0.930 . S
H714 C730 0.931 . S
C715 H703 0.929 . S
C715 C709 1.390 . S
C715 C712 1.386 . S
C716 C711 1.490 . S
C716 C718 1.395 . S
C716 C719 1.403 . S
H717 C723 0.930 . S
C718 H704 0.930 . S
C718 C716 1.395 . S
C718 C721 1.403 . S
C719 C716 1.403 . S
C719 C720 1.524 . S
C719 C723 1.400 . S
C720 H705 0.960 . S
C720 H706 0.960 . S
C720 H707 0.960 . S
C720 C719 1.524 . S
C721 C718 1.403 . S
C721 C722 1.392 . S
C721 C725 1.495 . S
C722 C721 1.392 . S
C722 C723 1.385 . S
C722 C724 1.478 . S
C723 H717 0.930 . S
C723 C719 1.400 . S
C723 C722 1.385 . S
C724 C722 1.478 . S
C724 C726 1.381 . S
C724 C730 1.383 . S
C725 C721 1.495 . S
C725 H731 0.959 . S
C725 H732 0.961 . S
C725 H733 0.960 . S
C726 C724 1.381 . S
C726 C727 1.394 . S
C726 H734 0.930 . S
C727 C726 1.394 . S
C727 C728 1.383 . S
C727 H735 0.929 . S
C728 C727 1.383 . S
C728 C729 1.377 . S
C729 H713 0.930 . S
C729 C728 1.377 . S
C729 C730 1.379 . S
C730 H714 0.931 . S
C730 C724 1.383 . S
C730 C729 1.379 . S
H731 C725 0.959 . S
H732 C725 0.961 . S
H733 C725 0.960 . S
H734 C726 0.930 . S
H735 C727 0.929 . S
H736 C744 0.929 . S
H737 C746 0.930 . S
H738 C748 0.930 . S
H739 C751 0.929 . S
H740 C754 0.930 . S
H741 C756 0.960 . S
H742 C756 0.960 . S
H743 C756 0.960 . S
C744 H736 0.929 . S
C744 C745 1.377 . S
C744 C746 1.384 . S
C745 C744 1.377 . S
C745 C751 1.390 . S
C746 H737 0.930 . S
C746 C744 1.384 . S
C746 C747 1.372 . S
C747 C746 1.372 . S
C747 C748 1.400 . S
C747 C752 1.490 . S
C748 H738 0.930 . S
C748 C747 1.400 . S
C748 C751 1.386 . S
H749 C765 0.930 . S
H750 C766 0.931 . S
C751 H739 0.929 . S
C751 C745 1.390 . S
C751 C748 1.386 . S
C752 C747 1.490 . S
C752 C754 1.395 . S
C752 C755 1.403 . S
H753 C759 0.930 . S
C754 H740 0.930 . S
C754 C752 1.395 . S
C754 C757 1.403 . S
C755 C752 1.403 . S
C755 C756 1.524 . S
C755 C759 1.400 . S
C756 H741 0.960 . S
C756 H742 0.960 . S
C756 H743 0.960 . S
C756 C755 1.524 . S
C757 C754 1.403 . S
C757 C758 1.392 . S
C757 C761 1.495 . S
C758 C757 1.392 . S
C758 C759 1.385 . S
C758 C760 1.478 . S
C759 H753 0.930 . S
C759 C755 1.400 . S
C759 C758 1.385 . S
C760 C758 1.478 . S
C760 C762 1.381 . S
C760 C766 1.383 . S
C761 C757 1.495 . S
C761 H767 0.959 . S
C761 H768 0.961 . S
C761 H769 0.960 . S
C762 C760 1.381 . S
C762 C763 1.394 . S
C762 H770 0.930 . S
C763 C762 1.394 . S
C763 C764 1.383 . S
C763 H771 0.929 . S
C764 C763 1.383 . S
C764 C765 1.377 . S
C765 H749 0.930 . S
C765 C764 1.377 . S
C765 C766 1.379 . S
C766 H750 0.931 . S
C766 C760 1.383 . S
C766 C765 1.379 . S
H767 C761 0.959 . S
H768 C761 0.961 . S
H769 C761 0.960 . S
H770 C762 0.930 . S
H771 C763 0.929 . S
H772 C780 0.929 . S
H773 C782 0.930 . S
H774 C784 0.930 . S
H775 C787 0.929 . S
H776 C790 0.930 . S
H777 C792 0.960 . S
H778 C792 0.960 . S
H779 C792 0.960 . S
C780 H772 0.929 . S
C780 C781 1.377 . S
C780 C782 1.384 . S
C781 C780 1.377 . S
C781 C787 1.390 . S
C782 H773 0.930 . S
C782 C780 1.384 . S
C782 C783 1.372 . S
C783 C782 1.372 . S
C783 C784 1.400 . S
C783 C788 1.490 . S
C784 H774 0.930 . S
C784 C783 1.400 . S
C784 C787 1.386 . S
H785 C801 0.930 . S
H786 C802 0.931 . S
C787 H775 0.929 . S
C787 C781 1.390 . S
C787 C784 1.386 . S
C788 C783 1.490 . S
C788 C790 1.395 . S
C788 C791 1.403 . S
H789 C795 0.930 . S
C790 H776 0.930 . S
C790 C788 1.395 . S
C790 C793 1.403 . S
C791 C788 1.403 . S
C791 C792 1.524 . S
C791 C795 1.400 . S
C792 H777 0.960 . S
C792 H778 0.960 . S
C792 H779 0.960 . S
C792 C791 1.524 . S
C793 C790 1.403 . S
C793 C794 1.392 . S
C793 C797 1.495 . S
C794 C793 1.392 . S
C794 C795 1.385 . S
C794 C796 1.478 . S
C795 H789 0.930 . S
C795 C791 1.400 . S
C795 C794 1.385 . S
C796 C794 1.478 . S
C796 C798 1.381 . S
C796 C802 1.383 . S
C797 C793 1.495 . S
C797 H803 0.959 . S
C797 H804 0.961 . S
C797 H805 0.960 . S
C798 C796 1.381 . S
C798 C799 1.394 . S
C798 H806 0.930 . S
C799 C798 1.394 . S
C799 C800 1.383 . S
C799 H807 0.929 . S
C800 C799 1.383 . S
C800 C801 1.377 . S
C801 H785 0.930 . S
C801 C800 1.377 . S
C801 C802 1.379 . S
C802 H786 0.931 . S
C802 C796 1.383 . S
C802 C801 1.379 . S
H803 C797 0.959 . S
H804 C797 0.961 . S
H805 C797 0.960 . S
H806 C798 0.930 . S
H807 C799 0.929 . S
H808 C816 0.929 . S
H809 C818 0.930 . S
H810 C820 0.930 . S
H811 C823 0.929 . S
H812 C826 0.930 . S
H813 C828 0.960 . S
H814 C828 0.960 . S
H815 C828 0.960 . S
C816 H808 0.929 . S
C816 C817 1.377 . S
C816 C818 1.384 . S
C817 C816 1.377 . S
C817 C823 1.390 . S
C818 H809 0.930 . S
C818 C816 1.384 . S
C818 C819 1.372 . S
C819 C818 1.372 . S
C819 C820 1.400 . S
C819 C824 1.490 . S
C820 H810 0.930 . S
C820 C819 1.400 . S
C820 C823 1.386 . S
H821 C837 0.930 . S
H822 C838 0.931 . S
C823 H811 0.929 . S
C823 C817 1.390 . S
C823 C820 1.386 . S
C824 C819 1.490 . S
C824 C826 1.395 . S
C824 C827 1.403 . S
H825 C831 0.930 . S
C826 H812 0.930 . S
C826 C824 1.395 . S
C826 C829 1.403 . S
C827 C824 1.403 . S
C827 C828 1.524 . S
C827 C831 1.400 . S
C828 H813 0.960 . S
C828 H814 0.960 . S
C828 H815 0.960 . S
C828 C827 1.524 . S
C829 C826 1.403 . S
C829 C830 1.392 . S
C829 C833 1.495 . S
C830 C829 1.392 . S
C830 C831 1.385 . S
C830 C832 1.478 . S
C831 H825 0.930 . S
C831 C827 1.400 . S
C831 C830 1.385 . S
C832 C830 1.478 . S
C832 C834 1.381 . S
C832 C838 1.383 . S
C833 C829 1.495 . S
C833 H839 0.959 . S
C833 H840 0.961 . S
C833 H841 0.960 . S
C834 C832 1.381 . S
C834 C835 1.394 . S
C834 H842 0.930 . S
C835 C834 1.394 . S
C835 C836 1.383 . S
C835 H843 0.929 . S
C836 C835 1.383 . S
C836 C837 1.377 . S
C837 H821 0.930 . S
C837 C836 1.377 . S
C837 C838 1.379 . S
C838 H822 0.931 . S
C838 C832 1.383 . S
C838 C837 1.379 . S
H839 C833 0.959 . S
H840 C833 0.961 . S
H841 C833 0.960 . S
H842 C834 0.930 . S
H843 C835 0.929 . S
H844 C852 0.929 . S
H845 C854 0.930 . S
H846 C856 0.930 . S
H847 C859 0.929 . S
H848 C862 0.930 . S
H849 C864 0.960 . S
H850 C864 0.960 . S
H851 C864 0.960 . S
C852 H844 0.929 . S
C852 C853 1.377 . S
C852 C854 1.384 . S
C853 C852 1.377 . S
C853 C859 1.390 . S
C854 H845 0.930 . S
C854 C852 1.384 . S
C854 C855 1.372 . S
C855 C854 1.372 . S
C855 C856 1.400 . S
C855 C860 1.490 . S
C856 H846 0.930 . S
C856 C855 1.400 . S
C856 C859 1.386 . S
H857 C873 0.930 . S
H858 C874 0.931 . S
C859 H847 0.929 . S
C859 C853 1.390 . S
C859 C856 1.386 . S
C860 C855 1.490 . S
C860 C862 1.395 . S
C860 C863 1.403 . S
H861 C867 0.930 . S
C862 H848 0.930 . S
C862 C860 1.395 . S
C862 C865 1.403 . S
C863 C860 1.403 . S
C863 C864 1.524 . S
C863 C867 1.400 . S
C864 H849 0.960 . S
C864 H850 0.960 . S
C864 H851 0.960 . S
C864 C863 1.524 . S
C865 C862 1.403 . S
C865 C866 1.392 . S
C865 C869 1.495 . S
C866 C865 1.392 . S
C866 C867 1.385 . S
C866 C868 1.478 . S
C867 H861 0.930 . S
C867 C863 1.400 . S
C867 C866 1.385 . S
C868 C866 1.478 . S
C868 C870 1.381 . S
C868 C874 1.383 . S
C869 C865 1.495 . S
C869 H875 0.959 . S
C869 H876 0.961 . S
C869 H877 0.960 . S
C870 C868 1.381 . S
C870 C871 1.394 . S
C870 H878 0.930 . S
C871 C870 1.394 . S
C871 C872 1.383 . S
C871 H879 0.929 . S
C872 C871 1.383 . S
C872 C873 1.377 . S
C873 H857 0.930 . S
C873 C872 1.377 . S
C873 C874 1.379 . S
C874 H858 0.931 . S
C874 C868 1.383 . S
C874 C873 1.379 . S
H875 C869 0.959 . S
H876 C869 0.961 . S
H877 C869 0.960 . S
H878 C870 0.930 . S
H879 C871 0.929 . S
H880 C888 0.929 . S
H881 C890 0.930 . S
H882 C892 0.930 . S
H883 C895 0.929 . S
H884 C898 0.930 . S
H885 C900 0.960 . S
H886 C900 0.960 . S
H887 C900 0.960 . S
C888 H880 0.929 . S
C888 C889 1.377 . S
C888 C890 1.384 . S
C889 C888 1.377 . S
C889 C895 1.390 . S
C890 H881 0.930 . S
C890 C888 1.384 . S
C890 C891 1.372 . S
C891 C890 1.372 . S
C891 C892 1.400 . S
C891 C896 1.490 . S
C892 H882 0.930 . S
C892 C891 1.400 . S
C892 C895 1.386 . S
H893 C909 0.930 . S
H894 C910 0.931 . S
C895 H883 0.929 . S
C895 C889 1.390 . S
C895 C892 1.386 . S
C896 C891 1.490 . S
C896 C898 1.395 . S
C896 C899 1.403 . S
H897 C903 0.930 . S
C898 H884 0.930 . S
C898 C896 1.395 . S
C898 C901 1.403 . S
C899 C896 1.403 . S
C899 C900 1.524 . S
C899 C903 1.400 . S
C900 H885 0.960 . S
C900 H886 0.960 . S
C900 H887 0.960 . S
C900 C899 1.524 . S
C901 C898 1.403 . S
C901 C902 1.392 . S
C901 C905 1.495 . S
C902 C901 1.392 . S
C902 C903 1.385 . S
C902 C904 1.478 . S
C903 H897 0.930 . S
C903 C899 1.400 . S
C903 C902 1.385 . S
C904 C902 1.478 . S
C904 C906 1.381 . S
C904 C910 1.383 . S
C905 C901 1.495 . S
C905 H911 0.959 . S
C905 H912 0.961 . S
C905 H913 0.960 . S
C906 C904 1.381 . S
C906 C907 1.394 . S
C906 H914 0.930 . S
C907 C906 1.394 . S
C907 C908 1.383 . S
C907 H915 0.929 . S
C908 C907 1.383 . S
C908 C909 1.377 . S
C909 H893 0.930 . S
C909 C908 1.377 . S
C909 C910 1.379 . S
C910 H894 0.931 . S
C910 C904 1.383 . S
C910 C909 1.379 . S
H911 C905 0.959 . S
H912 C905 0.961 . S
H913 C905 0.960 . S
H914 C906 0.930 . S
H915 C907 0.929 . S
H916 C924 0.929 . S
H917 C926 0.930 . S
H918 C928 0.930 . S
H919 C931 0.929 . S
H920 C934 0.930 . S
H921 C936 0.960 . S
H922 C936 0.960 . S
H923 C936 0.960 . S
C924 H916 0.929 . S
C924 C925 1.377 . S
C924 C926 1.384 . S
C925 C924 1.377 . S
C925 C931 1.390 . S
C926 H917 0.930 . S
C926 C924 1.384 . S
C926 C927 1.372 . S
C927 C926 1.372 . S
C927 C928 1.400 . S
C927 C932 1.490 . S
C928 H918 0.930 . S
C928 C927 1.400 . S
C928 C931 1.386 . S
H929 C945 0.930 . S
H930 C946 0.931 . S
C931 H919 0.929 . S
C931 C925 1.390 . S
C931 C928 1.386 . S
C932 C927 1.490 . S
C932 C934 1.395 . S
C932 C935 1.403 . S
H933 C939 0.930 . S
C934 H920 0.930 . S
C934 C932 1.395 . S
C934 C937 1.403 . S
C935 C932 1.403 . S
C935 C936 1.524 . S
C935 C939 1.400 . S
C936 H921 0.960 . S
C936 H922 0.960 . S
C936 H923 0.960 . S
C936 C935 1.524 . S
C937 C934 1.403 . S
C937 C938 1.392 . S
C937 C941 1.495 . S
C938 C937 1.392 . S
C938 C939 1.385 . S
C938 C940 1.478 . S
C939 H933 0.930 . S
C939 C935 1.400 . S
C939 C938 1.385 . S
C940 C938 1.478 . S
C940 C942 1.381 . S
C940 C946 1.383 . S
C941 C937 1.495 . S
C941 H947 0.959 . S
C941 H948 0.961 . S
C941 H949 0.960 . S
C942 C940 1.381 . S
C942 C943 1.394 . S
C942 H950 0.930 . S
C943 C942 1.394 . S
C943 C944 1.383 . S
C943 H951 0.929 . S
C944 C943 1.383 . S
C944 C945 1.377 . S
C945 H929 0.930 . S
C945 C944 1.377 . S
C945 C946 1.379 . S
C946 H930 0.931 . S
C946 C940 1.383 . S
C946 C945 1.379 . S
H947 C941 0.959 . S
H948 C941 0.961 . S
H949 C941 0.960 . S
H950 C942 0.930 . S
H951 C943 0.929 . S
H952 C960 0.929 . S
H953 C962 0.930 . S
H954 C964 0.930 . S
H955 C967 0.929 . S
H956 C970 0.930 . S
H957 C972 0.960 . S
H958 C972 0.960 . S
H959 C972 0.960 . S
C960 H952 0.929 . S
C960 C961 1.377 1_556 S
C960 C962 1.384 . S
C961 C960 1.377 1_554 S
C961 C967 1.390 . S
C962 H953 0.930 . S
C962 C960 1.384 . S
C962 C963 1.372 1_556 S
C963 C962 1.372 1_554 S
C963 C964 1.400 . S
C963 C968 1.490 1_554 S
C964 H954 0.930 . S
C964 C963 1.400 . S
C964 C967 1.386 . S
H965 C981 0.929 1_554 S
H966 C982 0.931 . S
C967 H955 0.929 . S
C967 C961 1.390 . S
C967 C964 1.386 . S
C968 C963 1.490 1_556 S
C968 C970 1.397 . S
C968 C971 1.400 1_556 S
H969 C975 0.930 . S
C970 H956 0.930 . S
C970 C968 1.397 . S
C970 C973 1.403 . S
C971 C968 1.400 1_554 S
C971 C972 1.524 . S
C971 C975 1.400 . S
C972 H957 0.960 . S
C972 H958 0.960 . S
C972 H959 0.960 . S
C972 C971 1.524 . S
C973 C970 1.403 . S
C973 C974 1.392 . S
C973 C977 1.495 . S
C974 C973 1.392 . S
C974 C975 1.385 1_556 S
C974 C976 1.478 . S
C975 H969 0.930 . S
C975 C971 1.400 . S
C975 C974 1.385 1_554 S
C976 C974 1.478 . S
C976 C978 1.381 . S
C976 C982 1.383 . S
C977 C973 1.495 . S
C977 H983 0.959 . S
C977 H984 0.961 . S
C977 H985 0.960 . S
C978 C976 1.381 . S
C978 C979 1.394 . S
C978 H986 0.930 . S
C979 C978 1.394 . S
C979 C980 1.383 . S
C979 H987 0.929 . S
C980 C979 1.383 . S
C980 C981 1.377 . S
C981 H965 0.929 1_556 S
C981 C980 1.377 . S
C981 C982 1.379 . S
C982 H966 0.931 . S
C982 C976 1.383 . S
C982 C981 1.379 . S
H983 C977 0.959 . S
H984 C977 0.961 . S
H985 C977 0.960 . S
H986 C978 0.930 . S
H987 C979 0.929 . S
H988 C996 0.929 . S
H989 C998 0.930 . S
H990 C1000 0.930 . S
H991 C1003 0.929 . S
H992 C1006 0.930 . S
H993 C1008 0.960 . S
H994 C1008 0.960 . S
H995 C1008 0.960 . S
C996 H988 0.929 . S
C996 C997 1.377 . S
C996 C998 1.384 . S
C997 C996 1.377 . S
C997 C1003 1.390 . S
C998 H989 0.930 . S
C998 C996 1.384 . S
C998 C999 1.372 . S
C999 C998 1.372 . S
C999 C1000 1.400 . S
C999 C1004 1.490 . S
C1000 H990 0.930 . S
C1000 C999 1.400 . S
C1000 C1003 1.386 . S
H1001 C1017 0.930 . S
H1002 C1018 0.931 . S
C1003 H991 0.929 . S
C1003 C997 1.390 . S
C1003 C1000 1.386 . S
C1004 C999 1.490 . S
C1004 C1006 1.395 . S
C1004 C1007 1.403 . S
H1005 C1011 0.930 . S
C1006 H992 0.930 . S
C1006 C1004 1.395 . S
C1006 C1009 1.403 . S
C1007 C1004 1.403 . S
C1007 C1008 1.524 . S
C1007 C1011 1.400 . S
C1008 H993 0.960 . S
C1008 H994 0.960 . S
C1008 H995 0.960 . S
C1008 C1007 1.524 . S
C1009 C1006 1.403 . S
C1009 C1010 1.392 . S
C1009 C1013 1.495 . S
C1010 C1009 1.392 . S
C1010 C1011 1.385 . S
C1010 C1012 1.478 . S
C1011 H1005 0.930 . S
C1011 C1007 1.400 . S
C1011 C1010 1.385 . S
C1012 C1010 1.478 . S
C1012 C1014 1.381 . S
C1012 C1018 1.383 . S
C1013 C1009 1.495 . S
C1013 H1019 0.959 . S
C1013 H1020 0.961 . S
C1013 H1021 0.960 . S
C1014 C1012 1.381 . S
C1014 C1015 1.394 . S
C1014 H1022 0.930 . S
C1015 C1014 1.394 . S
C1015 C1016 1.383 . S
C1015 H1023 0.929 . S
C1016 C1015 1.383 . S
C1016 C1017 1.377 . S
C1017 H1001 0.930 . S
C1017 C1016 1.377 . S
C1017 C1018 1.379 . S
C1018 H1002 0.931 . S
C1018 C1012 1.383 . S
C1018 C1017 1.379 . S
H1019 C1013 0.959 . S
H1020 C1013 0.961 . S
H1021 C1013 0.960 . S
H1022 C1014 0.930 . S
H1023 C1015 0.929 . S
H1024 C1032 0.929 . S
H1025 C1034 0.930 . S
H1026 C1036 0.930 . S
H1027 C1039 0.929 . S
H1028 C1042 0.930 . S
H1029 C1044 0.960 . S
H1030 C1044 0.960 . S
H1031 C1044 0.960 . S
C1032 H1024 0.929 . S
C1032 C1033 1.377 . S
C1032 C1034 1.384 . S
C1033 C1032 1.377 . S
C1033 C1039 1.390 1_554 S
C1034 H1025 0.930 . S
C1034 C1032 1.384 . S
C1034 C1035 1.372 . S
C1035 C1034 1.372 . S
C1035 C1036 1.400 1_554 S
C1035 C1040 1.490 . S
C1036 H1026 0.930 . S
C1036 C1035 1.400 1_556 S
C1036 C1039 1.386 . S
H1037 C1053 0.930 . S
H1038 C1054 0.931 . S
C1039 H1027 0.929 . S
C1039 C1033 1.390 1_556 S
C1039 C1036 1.386 . S
C1040 C1035 1.490 . S
C1040 C1042 1.395 . S
C1040 C1043 1.403 1_554 S
H1041 C1047 0.930 . S
C1042 H1028 0.930 . S
C1042 C1040 1.395 . S
C1042 C1045 1.403 . S
C1043 C1040 1.403 1_556 S
C1043 C1044 1.524 . S
C1043 C1047 1.400 . S
C1044 H1029 0.960 . S
C1044 H1030 0.960 . S
C1044 H1031 0.960 . S
C1044 C1043 1.524 . S
C1045 C1042 1.403 . S
C1045 C1046 1.392 . S
C1045 C1049 1.495 . S
C1046 C1045 1.392 . S
C1046 C1047 1.385 1_554 S
C1046 C1048 1.478 . S
C1047 H1041 0.930 . S
C1047 C1043 1.400 . S
C1047 C1046 1.385 1_556 S
C1048 C1046 1.478 . S
C1048 C1050 1.381 . S
C1048 C1054 1.383 1_554 S
C1049 C1045 1.495 . S
C1049 H1055 0.959 . S
C1049 H1056 0.961 . S
C1049 H1057 0.960 . S
C1050 C1048 1.381 . S
C1050 C1051 1.394 . S
C1050 H1058 0.930 . S
C1051 C1050 1.394 . S
C1051 C1052 1.383 . S
C1051 H1059 0.929 . S
C1052 C1051 1.383 . S
C1052 C1053 1.377 1_554 S
C1053 H1037 0.930 . S
C1053 C1052 1.377 1_556 S
C1053 C1054 1.379 . S
C1054 H1038 0.931 . S
C1054 C1048 1.383 1_556 S
C1054 C1053 1.379 . S
H1055 C1049 0.959 . S
H1056 C1049 0.961 . S
H1057 C1049 0.960 . S
H1058 C1050 0.930 . S
H1059 C1051 0.929 . S
H1060 C1068 0.929 . S
H1061 C1070 0.930 . S
H1062 C1072 0.930 . S
H1063 C1075 0.929 . S
H1064 C1078 0.930 . S
H1065 C1080 0.960 . S
H1066 C1080 0.960 . S
H1067 C1080 0.960 . S
C1068 H1060 0.929 . S
C1068 C1069 1.377 . S
C1068 C1070 1.384 . S
C1069 C1068 1.377 . S
C1069 C1075 1.390 . S
C1070 H1061 0.930 . S
C1070 C1068 1.384 . S
C1070 C1071 1.372 . S
C1071 C1070 1.372 . S
C1071 C1072 1.400 . S
C1071 C1076 1.490 . S
C1072 H1062 0.930 . S
C1072 C1071 1.400 . S
C1072 C1075 1.386 . S
H1073 C1089 0.930 . S
H1074 C1090 0.931 . S
C1075 H1063 0.929 . S
C1075 C1069 1.390 . S
C1075 C1072 1.386 . S
C1076 C1071 1.490 . S
C1076 C1078 1.395 . S
C1076 C1079 1.403 . S
H1077 C1083 0.930 . S
C1078 H1064 0.930 . S
C1078 C1076 1.395 . S
C1078 C1081 1.403 . S
C1079 C1076 1.403 . S
C1079 C1080 1.524 . S
C1079 C1083 1.400 . S
C1080 H1065 0.960 . S
C1080 H1066 0.960 . S
C1080 H1067 0.960 . S
C1080 C1079 1.524 . S
C1081 C1078 1.403 . S
C1081 C1082 1.392 . S
C1081 C1085 1.495 . S
C1082 C1081 1.392 . S
C1082 C1083 1.385 . S
C1082 C1084 1.478 . S
C1083 H1077 0.930 . S
C1083 C1079 1.400 . S
C1083 C1082 1.385 . S
C1084 C1082 1.478 . S
C1084 C1086 1.381 . S
C1084 C1090 1.383 . S
C1085 C1081 1.495 . S
C1085 H1091 0.959 . S
C1085 H1092 0.961 . S
C1085 H1093 0.960 . S
C1086 C1084 1.381 . S
C1086 C1087 1.394 . S
C1086 H1094 0.930 . S
C1087 C1086 1.394 . S
C1087 C1088 1.383 . S
C1087 H1095 0.929 . S
C1088 C1087 1.383 . S
C1088 C1089 1.377 . S
C1089 H1073 0.930 . S
C1089 C1088 1.377 . S
C1089 C1090 1.379 . S
C1090 H1074 0.931 . S
C1090 C1084 1.383 . S
C1090 C1089 1.379 . S
H1091 C1085 0.959 . S
H1092 C1085 0.961 . S
H1093 C1085 0.960 . S
H1094 C1086 0.930 . S
H1095 C1087 0.929 . S
H1096 C1104 0.929 . S
H1097 C1106 0.930 . S
H1098 C1108 0.930 . S
H1099 C1111 0.929 . S
H1100 C1114 0.930 . S
H1101 C1116 0.960 . S
H1102 C1116 0.960 . S
H1103 C1116 0.960 . S
C1104 H1096 0.929 . S
C1104 C1105 1.377 . S
C1104 C1106 1.384 . S
C1105 C1104 1.377 . S
C1105 C1111 1.390 . S
C1106 H1097 0.930 . S
C1106 C1104 1.384 . S
C1106 C1107 1.372 . S
C1107 C1106 1.372 . S
C1107 C1108 1.400 . S
C1107 C1112 1.490 . S
C1108 H1098 0.930 . S
C1108 C1107 1.400 . S
C1108 C1111 1.386 . S
H1109 C1125 0.930 . S
H1110 C1126 0.931 . S
C1111 H1099 0.929 . S
C1111 C1105 1.390 . S
C1111 C1108 1.386 . S
C1112 C1107 1.490 . S
C1112 C1114 1.395 . S
C1112 C1115 1.403 . S
H1113 C1119 0.930 . S
C1114 H1100 0.930 . S
C1114 C1112 1.395 . S
C1114 C1117 1.403 . S
C1115 C1112 1.403 . S
C1115 C1116 1.524 . S
C1115 C1119 1.400 . S
C1116 H1101 0.960 . S
C1116 H1102 0.960 . S
C1116 H1103 0.960 . S
C1116 C1115 1.524 . S
C1117 C1114 1.403 . S
C1117 C1118 1.392 . S
C1117 C1121 1.495 . S
C1118 C1117 1.392 . S
C1118 C1119 1.385 . S
C1118 C1120 1.478 . S
C1119 H1113 0.930 . S
C1119 C1115 1.400 . S
C1119 C1118 1.385 . S
C1120 C1118 1.478 . S
C1120 C1122 1.381 . S
C1120 C1126 1.383 . S
C1121 C1117 1.495 . S
C1121 H1127 0.959 . S
C1121 H1128 0.961 . S
C1121 H1129 0.960 . S
C1122 C1120 1.381 . S
C1122 C1123 1.394 . S
C1122 H1130 0.930 . S
C1123 C1122 1.394 . S
C1123 C1124 1.383 . S
C1123 H1131 0.929 . S
C1124 C1123 1.383 . S
C1124 C1125 1.377 . S
C1125 H1109 0.930 . S
C1125 C1124 1.377 . S
C1125 C1126 1.379 . S
C1126 H1110 0.931 . S
C1126 C1120 1.383 . S
C1126 C1125 1.379 . S
H1127 C1121 0.959 . S
H1128 C1121 0.961 . S
H1129 C1121 0.960 . S
H1130 C1122 0.930 . S
H1131 C1123 0.929 . S
H1132 C1140 0.929 . S
H1133 C1142 0.930 . S
H1134 C1144 0.930 . S
H1135 C1147 0.929 . S
H1136 C1150 0.930 . S
H1137 C1152 0.960 . S
H1138 C1152 0.960 . S
H1139 C1152 0.960 . S
C1140 H1132 0.929 . S
C1140 C1141 1.377 . S
C1140 C1142 1.384 . S
C1141 C1140 1.377 . S
C1141 C1147 1.390 1_554 S
C1142 H1133 0.930 . S
C1142 C1140 1.384 . S
C1142 C1143 1.372 . S
C1143 C1142 1.372 . S
C1143 C1144 1.400 1_554 S
C1143 C1148 1.490 . S
C1144 H1134 0.930 . S
C1144 C1143 1.400 1_556 S
C1144 C1147 1.386 . S
H1145 C1161 0.930 . S
H1146 C1162 0.931 . S
C1147 H1135 0.929 . S
C1147 C1141 1.390 1_556 S
C1147 C1144 1.386 . S
C1148 C1143 1.490 . S
C1148 C1150 1.395 . S
C1148 C1151 1.403 1_554 S
H1149 C1155 0.930 . S
C1150 H1136 0.930 . S
C1150 C1148 1.395 . S
C1150 C1153 1.403 . S
C1151 C1148 1.403 1_556 S
C1151 C1152 1.524 . S
C1151 C1155 1.400 . S
C1152 H1137 0.960 . S
C1152 H1138 0.960 . S
C1152 H1139 0.960 . S
C1152 C1151 1.524 . S
C1153 C1150 1.403 . S
C1153 C1154 1.392 . S
C1153 C1157 1.495 . S
C1154 C1153 1.392 . S
C1154 C1155 1.385 1_554 S
C1154 C1156 1.478 . S
C1155 H1149 0.930 . S
C1155 C1151 1.400 . S
C1155 C1154 1.385 1_556 S
C1156 C1154 1.478 . S
C1156 C1158 1.381 . S
C1156 C1162 1.383 1_554 S
C1157 C1153 1.495 . S
C1157 H1163 0.959 . S
C1157 H1164 0.961 . S
C1157 H1165 0.960 . S
C1158 C1156 1.381 . S
C1158 C1159 1.394 . S
C1158 H1166 0.930 . S
C1159 C1158 1.394 . S
C1159 C1160 1.383 . S
C1159 H1167 0.929 . S
C1160 C1159 1.383 . S
C1160 C1161 1.377 1_554 S
C1161 H1145 0.930 . S
C1161 C1160 1.377 1_556 S
C1161 C1162 1.379 . S
C1162 H1146 0.931 . S
C1162 C1156 1.383 1_556 S
C1162 C1161 1.379 . S
H1163 C1157 0.959 . S
H1164 C1157 0.961 . S
H1165 C1157 0.960 . S
H1166 C1158 0.930 . S
H1167 C1159 0.929 . S
H1168 C1176 0.929 . S
H1169 C1178 0.930 . S
H1170 C1180 0.930 . S
H1171 C1183 0.929 . S
H1172 C1186 0.930 . S
H1173 C1188 0.960 . S
H1174 C1188 0.960 . S
H1175 C1188 0.960 . S
C1176 H1168 0.929 . S
C1176 C1177 1.377 . S
C1176 C1178 1.384 . S
C1177 C1176 1.377 . S
C1177 C1183 1.390 . S
C1178 H1169 0.930 . S
C1178 C1176 1.384 . S
C1178 C1179 1.372 . S
C1179 C1178 1.372 . S
C1179 C1180 1.400 . S
C1179 C1184 1.490 . S
C1180 H1170 0.930 . S
C1180 C1179 1.400 . S
C1180 C1183 1.386 . S
H1181 C1197 0.930 . S
H1182 C1198 0.931 . S
C1183 H1171 0.929 . S
C1183 C1177 1.390 . S
C1183 C1180 1.386 . S
C1184 C1179 1.490 . S
C1184 C1186 1.395 . S
C1184 C1187 1.403 . S
H1185 C1191 0.930 . S
C1186 H1172 0.930 . S
C1186 C1184 1.395 . S
C1186 C1189 1.403 . S
C1187 C1184 1.403 . S
C1187 C1188 1.524 . S
C1187 C1191 1.400 . S
C1188 H1173 0.960 . S
C1188 H1174 0.960 . S
C1188 H1175 0.960 . S
C1188 C1187 1.524 . S
C1189 C1186 1.403 . S
C1189 C1190 1.392 . S
C1189 C1193 1.495 . S
C1190 C1189 1.392 . S
C1190 C1191 1.385 . S
C1190 C1192 1.478 . S
C1191 H1185 0.930 . S
C1191 C1187 1.400 . S
C1191 C1190 1.385 . S
C1192 C1190 1.478 . S
C1192 C1194 1.381 . S
C1192 C1198 1.383 . S
C1193 C1189 1.495 . S
C1193 H1199 0.959 . S
C1193 H1200 0.961 . S
C1193 H1201 0.960 . S
C1194 C1192 1.381 . S
C1194 C1195 1.394 . S
C1194 H1202 0.930 . S
C1195 C1194 1.394 . S
C1195 C1196 1.383 . S
C1195 H1203 0.929 . S
C1196 C1195 1.383 . S
C1196 C1197 1.377 . S
C1197 H1181 0.930 . S
C1197 C1196 1.377 . S
C1197 C1198 1.379 . S
C1198 H1182 0.931 . S
C1198 C1192 1.383 . S
C1198 C1197 1.379 . S
H1199 C1193 0.959 . S
H1200 C1193 0.961 . S
H1201 C1193 0.960 . S
H1202 C1194 0.930 . S
H1203 C1195 0.929 . S
H1204 C1212 0.929 . S
H1205 C1214 0.930 . S
H1206 C1216 0.930 . S
H1207 C1219 0.929 . S
H1208 C1222 0.930 . S
H1209 C1224 0.960 . S
H1210 C1224 0.960 . S
H1211 C1224 0.960 . S
C1212 H1204 0.929 . S
C1212 C1213 1.377 . S
C1212 C1214 1.384 . S
C1213 C1212 1.377 . S
C1213 C1219 1.390 1_554 S
C1214 H1205 0.930 . S
C1214 C1212 1.384 . S
C1214 C1215 1.373 . S
C1215 C1214 1.373 . S
C1215 C1216 1.399 1_554 S
C1215 C1220 1.490 . S
C1216 H1206 0.930 . S
C1216 C1215 1.399 1_556 S
C1216 C1219 1.386 . S
H1217 C1233 0.930 . S
H1218 C1234 0.931 . S
C1219 H1207 0.929 . S
C1219 C1213 1.390 1_556 S
C1219 C1216 1.386 . S
C1220 C1215 1.490 . S
C1220 C1222 1.395 . S
C1220 C1223 1.403 1_554 S
H1221 C1227 0.930 . S
C1222 H1208 0.930 . S
C1222 C1220 1.395 . S
C1222 C1225 1.403 . S
C1223 C1220 1.403 1_556 S
C1223 C1224 1.524 . S
C1223 C1227 1.400 . S
C1224 H1209 0.960 . S
C1224 H1210 0.960 . S
C1224 H1211 0.960 . S
C1224 C1223 1.524 . S
C1225 C1222 1.403 . S
C1225 C1226 1.392 . S
C1225 C1229 1.495 . S
C1226 C1225 1.392 . S
C1226 C1227 1.385 1_554 S
C1226 C1228 1.478 . S
C1227 H1221 0.930 . S
C1227 C1223 1.400 . S
C1227 C1226 1.385 1_556 S
C1228 C1226 1.478 . S
C1228 C1230 1.381 . S
C1228 C1234 1.383 . S
C1229 C1225 1.495 . S
C1229 H1235 0.959 . S
C1229 H1236 0.961 . S
C1229 H1237 0.960 . S
C1230 C1228 1.381 . S
C1230 C1231 1.394 . S
C1230 H1238 0.930 . S
C1231 C1230 1.394 . S
C1231 C1232 1.383 . S
C1231 H1239 0.929 . S
C1232 C1231 1.383 . S
C1232 C1233 1.377 . S
C1233 H1217 0.930 . S
C1233 C1232 1.377 . S
C1233 C1234 1.379 . S
C1234 H1218 0.931 . S
C1234 C1228 1.383 . S
C1234 C1233 1.379 . S
H1235 C1229 0.959 . S
H1236 C1229 0.961 . S
H1237 C1229 0.960 . S
H1238 C1230 0.930 . S
H1239 C1231 0.929 . S
C385 C21 1.592 . S
C404 C197 1.574 . S
C421 C40 1.699 . S
C440 C119 1.645 . S
C476 C155 1.556 . S
C457 C54 1.558 . S
C493 C73 1.742 . S
C512 C161 1.708 . S
C548 C299 1.557 . S
C529 C74 1.559 . S
C584 C305 1.670 . S
C565 C10 1.698 . S
C620 C341 1.561 . S
C601 C37 1.590 . S
C656 C263 1.675 . S
C637 C65 1.743 . S
C673 C52 1.558 . S
C692 C125 1.540 . S
C709 C87 1.740 . S
C728 C191 1.732 . S
C745 C15 1.594 . S
C764 C227 1.553 . S
C800 C89 1.644 . S
C781 C32 1.694 . S
C817 C29 1.599 . S
C836 C371 1.541 . S
C872 C233 1.676 . S
C853 C59 1.736 . S
C908 C269 1.538 . S
C889 C84 1.557 . S
C925 C8 1.695 . S
C944 C335 1.666 . S
C980 C113 1.758 . S
C961 C7 1.840 . S
C1016 C149 1.678 . S
C997 C30 1.681 . S
C1033 C62 1.862 . S
C1052 C185 1.830 . S
C1069 C81 1.665 . S
C1088 C221 1.620 . S
C1124 C257 1.804 . S
C1105 C76 1.863 . S
C1141 C18 1.678 . S
C1160 C293 1.667 . S
C1177 C43 1.840 . S
C1196 C329 1.830 . S
C1213 C51 1.664 1_554 S
C1232 C365 1.651 1_554 S
