# Generated by pormake.
# Topology rtl, (3,6)-cn, num edge types: 1
# Building blocks:
#     Node 0, Type 0, BuildingBlock: BETDAH_clean_linker_0, # of connection points: 3
#     Node 1, Type 0, BuildingBlock: BETDAH_clean_linker_0, # of connection points: 3
#     Node 2, Type 0, BuildingBlock: BETDAH_clean_linker_0, # of connection points: 3
#     Node 3, Type 0, BuildingBlock: BETDAH_clean_linker_0, # of connection points: 3
#     Node 4, Type 1, BuildingBlock: KUMBOL_clean_sbu_1, # of connection points: 6
#     Node 5, Type 1, BuildingBlock: KUMBOL_clean_sbu_1, # of connection points: 6
#     Edge 6, Type (0, 1), BuildingBlock: OJICUG_clean_linker_0, # of connection points: 2
#     Edge 7, Type (0, 1), BuildingBlock: OJICUG_clean_linker_0, # of connection points: 2
#     Edge 8, Type (0, 1), BuildingBlock: OJICUG_clean_linker_0, # of connection points: 2
#     Edge 9, Type (0, 1), BuildingBlock: OJICUG_clean_linker_0, # of connection points: 2
#     Edge 10, Type (0, 1), BuildingBlock: OJICUG_clean_linker_0, # of connection points: 2
#     Edge 11, Type (0, 1), BuildingBlock: OJICUG_clean_linker_0, # of connection points: 2
#     Edge 12, Type (0, 1), BuildingBlock: OJICUG_clean_linker_0, # of connection points: 2
#     Edge 13, Type (0, 1), BuildingBlock: OJICUG_clean_linker_0, # of connection points: 2
#     Edge 14, Type (0, 1), BuildingBlock: OJICUG_clean_linker_0, # of connection points: 2
#     Edge 15, Type (0, 1), BuildingBlock: OJICUG_clean_linker_0, # of connection points: 2
#     Edge 16, Type (0, 1), BuildingBlock: OJICUG_clean_linker_0, # of connection points: 2
#     Edge 17, Type (0, 1), BuildingBlock: OJICUG_clean_linker_0, # of connection points: 2
# Relax obj value: 0.051
# Max RMSD: 0.240
# Mean RMSD: 0.169
data_MOF--net-rtl--node1-KUMBOL_clean_sbu_1--node2-BETDAH_clean_linker_0--edge1-OJICUG_clean_linker_0
_symmetry_space_group_name_H-M    P1
_symmetry_Int_Tables_number       1
_symmetry_cell_setting            triclinic
loop_
_symmetry_equiv_pos_as_xyz
'x, y, z'
_cell_length_a     26.168971
_cell_length_b     26.461298
_cell_length_c     20.743915
_cell_angle_alpha  74.571118
_cell_angle_beta   100.85101
_cell_angle_gamma 91.45979
loop_
_atom_site_label
_atom_site_type_symbol
_atom_site_fract_x
_atom_site_fract_y
_atom_site_fract_z
_atom_type_partial_charge
H0 H 0.13482 0.92535 0.96522 0.0
H1 H 0.2031 0.79804 0.13386 0.0
H2 H 0.22187 0.80281 0.93074 0.0
C3 C 0.15926 0.89022 0.98556 0.0
C4 C 0.17877 0.86823 0.94038 0.0
C5 C 0.16743 0.86556 0.05546 0.0
C6 C 0.19624 0.81799 0.08002 0.0
C7 C 0.21683 0.79564 0.03585 0.0
C8 C 0.20789 0.82076 0.9656 0.0
N9 N 0.24305 0.74614 0.06378 0.0
C10 C 0.28183 0.72711 0.03821 0.0
H11 H 0.62519 0.62859 0.68816 0.0
H12 H 0.72477 0.74817 0.59746 0.0
H13 H 0.70184 0.73102 0.80262 0.0
C14 C 0.65109 0.66082 0.69163 0.0
C15 C 0.66119 0.67628 0.75208 0.0
C16 C 0.67283 0.68688 0.63508 0.0
C17 C 0.7076 0.72793 0.64057 0.0
C18 C 0.71795 0.74396 0.70143 0.0
C19 C 0.69403 0.71841 0.75615 0.0
N20 N 0.75024 0.78662 0.71002 0.0
C21 C 0.78488 0.81227 0.66946 0.0
H22 H 0.90226 0.11185 0.1549 0.0
H23 H 0.79324 0.21838 0.18438 0.0
H24 H 0.80581 0.21464 0.98152 0.0
C25 C 0.87165 0.14159 0.13345 0.0
C26 C 0.85711 0.1604 0.06275 0.0
C27 C 0.84863 0.16172 0.17742 0.0
C28 C 0.81087 0.20253 0.15045 0.0
C29 C 0.79528 0.22143 0.07925 0.0
C30 C 0.8184 0.20011 0.03615 0.0
N31 N 0.75585 0.26083 0.04806 0.0
C32 C 0.73304 0.29241 0.07935 0.0
H33 H 0.40631 0.41 0.46266 0.0
H34 H 0.28366 0.30233 0.51424 0.0
H35 H 0.32944 0.32778 0.32059 0.0
C36 C 0.37745 0.38227 0.45034 0.0
C37 C 0.37127 0.37206 0.38614 0.0
C38 C 0.34584 0.35764 0.49764 0.0
C39 C 0.30911 0.32099 0.47986 0.0
C40 C 0.30379 0.30967 0.41645 0.0
C41 C 0.3344 0.33585 0.36999 0.0
N42 N 0.26751 0.27326 0.39611 0.0
C43 C 0.23559 0.24085 0.4354 0.0
C44 C 0.94333 0.18244 0.51615 0.0
C45 C 0.85246 0.17145 0.47049 0.0
C46 C 0.9009 0.15016 0.50968 0.0
C47 C 0.84735 0.22533 0.43772 0.0
C48 C 0.93825 0.23657 0.48341 0.0
C49 C 0.89009 0.25778 0.44416 0.0
N50 N 0.98982 0.16069 0.55315 0.0
C51 C 0.03214 0.19104 0.56174 0.0
C52 C 0.98188 0.26776 0.49071 0.0
C53 C 0.02895 0.24491 0.53034 0.0
Gd54 Gd 0.04468 0.96938 0.51456 0.0
Gd55 Gd 0.99139 0.07003 0.60267 0.0
N56 N 0.9075 0.09773 0.54002 0.0
C57 C 0.81062 0.13789 0.46513 0.0
C58 C 0.86613 0.0654 0.53768 0.0
C59 C 0.81738 0.08476 0.49947 0.0
H60 H 0.86996 0.02492 0.56596 0.0
H61 H 0.7849 0.05875 0.49706 0.0
H62 H 0.16487 0.02024 0.54248 0.0
H63 H 0.06811 0.17391 0.594 0.0
H64 H 0.25121 0.99167 0.61114 0.0
H65 H 0.7728 0.15272 0.43545 0.0
H66 H 0.81048 0.24229 0.40718 0.0
H67 H 0.97229 0.86228 0.53398 0.0
H68 H 0.97955 0.3095 0.46634 0.0
H69 H 0.0627 0.2688 0.53704 0.0
H70 H 0.2336 0.80872 0.71437 0.0
H71 H 0.88552 0.29925 0.41848 0.0
H72 H 0.0676 0.73258 0.66512 0.0
H73 H 0.98231 0.76841 0.59584 0.0
N74 N 0.05048 0.87963 0.56978 0.0
C75 C 0.09806 0.86058 0.60613 0.0
C76 C 0.00935 0.84724 0.56512 0.0
C77 C 0.06336 0.77385 0.63831 0.0
C78 C 0.01508 0.79396 0.59949 0.0
C79 C 0.10562 0.80716 0.64196 0.0
H80 H 0.1612 0.74799 0.70898 0.0
N81 N 0.13001 0.9468 0.57595 0.0
C82 C 0.13892 0.89509 0.60944 0.0
C83 C 0.22876 0.91216 0.64991 0.0
C84 C 0.18835 0.87663 0.64826 0.0
C85 C 0.17013 0.98078 0.57421 0.0
C86 C 0.21975 0.96428 0.61201 0.0
O87 O 0.97864 0.09162 0.48749 0.0
O88 O 0.96968 0.01328 0.45878 0.0
O89 O 0.08943 0.98175 0.43416 0.0
O90 O 0.03122 0.92216 0.44194 0.0
O91 O 0.96003 0.98728 0.62178 0.0
O92 O 0.96073 0.95777 0.52632 0.0
O93 O 0.0533 0.94744 0.62918 0.0
O94 O 0.06645 0.02541 0.65752 0.0
O95 O 0.94763 0.0528 0.68453 0.0
O96 O 1.00216 0.11592 0.67669 0.0
O97 O 0.07285 0.05337 0.49202 0.0
O98 O 0.07508 0.08013 0.58974 0.0
C99 C 0.95937 0.06372 0.44544 0.0
C100 C 0.94308 0.95616 0.58229 0.0
C101 C 0.0491 0.96251 0.33292 0.0
C102 C 0.06211 0.95604 0.22212 0.0
C103 C 0.99929 0.01931 0.22982 0.0
C104 C 0.01169 1.00271 0.30081 0.0
C105 C 0.02449 0.9964 0.19051 0.0
C106 C 0.0739 0.93902 0.29357 0.0
C107 C 0.06513 0.94664 0.40717 0.0
C108 C 0.19595 0.82347 0.68407 0.0
C109 C 0.15473 0.78885 0.68091 0.0
H110 H 0.26727 0.89952 0.67913 0.0
C111 C 0.07422 0.97449 0.67149 0.0
C112 C 0.09012 0.08438 0.53147 0.0
C113 C 0.98581 0.07366 0.78585 0.0
C114 C 0.97122 0.07868 0.89668 0.0
C115 C 0.04158 0.02352 0.88881 0.0
C116 C 0.02773 0.03843 0.81786 0.0
C117 C 0.01348 0.0433 0.92817 0.0
C118 C 0.95781 0.09375 0.82522 0.0
C119 C 0.96955 0.08893 0.71162 0.0
H120 H 0.97055 0.0504 0.20521 0.0
H121 H 0.99276 0.02161 0.33059 0.0
H122 H 0.01448 0.01005 0.1355 0.0
H123 H 0.10353 0.90861 0.31861 0.0
H124 H 0.07409 0.99651 0.91336 0.0
H125 H 0.04936 0.02242 0.78801 0.0
H126 H 0.0251 0.03134 0.98311 0.0
H127 H 0.92486 0.12034 0.80011 0.0
C128 C 0.67707 0.57925 0.07859 0.0
C129 C 0.67196 0.67161 0.01807 0.0
C130 C 0.64956 0.62661 0.05457 0.0
C131 C 0.72109 0.66733 1.00177 0.0
C132 C 0.72794 0.57567 0.06641 0.0
C133 C 0.74898 0.61937 0.02573 0.0
N134 N 0.65608 0.53826 0.11926 0.0
C135 C 0.68668 0.49551 0.15669 0.0
C136 C 0.75714 0.52925 0.09848 0.0
C137 C 0.73688 0.48952 0.1452 0.0
Gd138 Gd 0.46973 0.47977 0.00512 0.0
Gd139 Gd 0.56926 0.551 0.12972 0.0
N140 N 0.60182 0.62929 0.07016 0.0
C141 C 0.64485 0.71978 1.00077 0.0
C142 C 0.57651 0.67647 0.05713 0.0
C143 C 0.59734 0.72236 0.02149 0.0
H144 H 0.53966 0.67819 0.07296 0.0
H145 H 0.57666 0.75956 0.0097 0.0
H146 H 0.54217 0.37043 0.02473 0.0
H147 H 0.67249 0.46564 0.19541 0.0
H148 H 0.54734 0.2779 0.09089 0.0
H149 H 0.66079 0.7553 0.97287 0.0
H150 H 0.73855 0.70122 0.97259 0.0
H151 H 0.35126 0.52378 1.00078 0.0
H152 H 0.79632 0.52485 0.0904 0.0
H153 H 0.76016 0.45459 0.17312 0.0
H154 H 0.39303 0.25583 0.18805 0.0
H155 H 0.78768 0.6171 0.01498 0.0
H156 H 0.27129 0.40137 0.12058 0.0
H157 H 0.27254 0.49225 0.04811 0.0
N158 N 0.39351 0.45189 0.04658 0.0
C159 C 0.39278 0.40128 0.08355 0.0
C160 C 0.35071 0.4842 0.03229 0.0
C161 C 0.30565 0.41501 0.09966 0.0
C162 C 0.30621 0.46636 0.05883 0.0
C163 C 0.34914 0.38162 0.11209 0.0
H164 H 0.31725 0.3136 0.17438 0.0
N165 N 0.47577 0.38911 0.06043 0.0
C166 C 0.43565 0.36912 0.09169 0.0
C167 C 0.47753 0.28325 0.12984 0.0
C168 C 0.43575 0.31585 0.12806 0.0
C169 C 0.51386 0.35628 0.05657 0.0
C170 C 0.51619 0.30334 0.09269 0.0
O171 O 0.54867 0.58845 0.01568 0.0
O172 O 0.54161 0.5181 0.97082 0.0
O173 O 0.45799 0.43663 0.92837 0.0
O174 O 0.42006 0.51222 0.90562 0.0
O175 O 0.48641 0.58396 0.0958 0.0
O176 O 0.44605 0.56429 0.99461 0.0
O177 O 0.45187 0.48625 0.10609 0.0
O178 O 0.5311 0.4763 0.17803 0.0
O179 O 0.5429 0.58607 0.20166 0.0
O180 O 0.6239 0.56504 0.21568 0.0
O181 O 0.55613 0.46111 0.02948 0.0
O182 O 0.58286 0.46428 0.14026 0.0
C183 C 0.55541 0.56646 0.96817 0.0
C184 C 0.44975 0.59186 0.04017 0.0
C185 C 0.38138 0.45072 0.84572 0.0
C186 C 0.34467 0.41365 0.75099 0.0
C187 C 0.29521 0.41412 0.83918 0.0
C188 C 0.33597 0.43827 0.87262 0.0
C189 C 0.29958 0.40152 0.77913 0.0
C190 C 0.38535 0.43885 0.78438 0.0
C191 C 0.42679 0.47156 0.88357 0.0
C192 C 0.39336 0.29648 0.15923 0.0
C193 C 0.35012 0.32931 0.15124 0.0
H194 H 0.4791 0.24209 0.15718 0.0
C195 C 0.48051 0.46998 0.16744 0.0
C196 C 0.58661 0.44466 0.08933 0.0
C197 C 0.59118 0.56502 0.31367 0.0
C198 C 0.61022 0.58138 0.42577 0.0
C199 C 0.57493 0.49806 0.41243 0.0
C200 C 0.57429 0.51483 0.34253 0.0
C201 C 0.59243 0.53125 0.45386 0.0
C202 C 0.60978 0.59805 0.35551 0.0
C203 C 0.58868 0.58385 0.23996 0.0
H204 H 0.26031 0.40451 0.86037 0.0
H205 H 0.33227 0.44639 0.91987 0.0
H206 H 0.26757 0.38244 0.75441 0.0
H207 H 0.42075 0.44756 0.76395 0.0
H208 H 0.56144 0.45943 0.43444 0.0
H209 H 0.56038 0.48898 0.31087 0.0
H210 H 0.59207 0.51788 0.50789 0.0
H211 H 0.62264 0.63701 0.3333 0.0
C212 C 0.16659 0.17927 0.41599 0.0
C213 C 0.19865 0.2027 0.46139 0.0
H214 H 0.10733 0.12389 0.40236 0.0
C215 C 0.19515 0.18753 0.53054 0.0
H216 H 0.16883 0.19033 0.36241 0.0
C217 C 0.15984 0.14911 0.55381 0.0
C218 C 0.12757 0.12544 0.50818 0.0
H219 H 0.21987 0.20498 0.56647 0.0
H220 H 0.15821 0.13754 0.60753 0.0
C221 C 0.13154 0.14105 0.43903 0.0
C222 C 0.37279 0.69727 0.07636 0.0
C223 C 0.32627 0.70012 0.0294 0.0
H224 H 0.44824 0.66147 0.11628 0.0
C225 C 0.32182 0.67109 0.98114 0.0
H226 H 0.37682 0.71918 0.11431 0.0
C227 C 0.36304 0.63784 0.98178 0.0
C228 C 0.40876 0.63239 0.03171 0.0
H229 H 0.28593 0.67261 0.94469 0.0
H230 H 0.35818 0.61498 0.94493 0.0
C231 C 0.41359 0.66385 0.07757 0.0
C232 C 0.85585 0.87086 0.69122 0.0
C233 C 0.82556 0.84633 0.64566 0.0
H234 H 0.91642 0.92428 0.70722 0.0
C235 C 0.83421 0.85707 0.57866 0.0
H236 H 0.84968 0.8632 0.74316 0.0
C237 C 0.87277 0.89241 0.55764 0.0
C238 C 0.90293 0.91753 0.60336 0.0
H239 H 0.81096 0.83869 0.5426 0.0
H240 H 0.8784 0.90063 0.50549 0.0
C241 C 0.89396 0.90604 0.67043 0.0
C242 C 0.69285 0.37983 0.03797 0.0
C243 C 0.70278 0.3333 0.09017 0.0
H244 H 0.64843 0.45167 0.99756 0.0
C245 C 0.67819 0.32541 0.14657 0.0
H246 H 0.71129 0.38651 0.9939 0.0
C247 C 0.64237 0.3633 0.14911 0.0
C248 C 0.63026 0.40854 0.09454 0.0
H249 H 0.68506 0.28935 0.18704 0.0
H250 H 0.62204 0.35591 0.19148 0.0
C251 C 0.65674 0.41692 0.0399 0.0
C252 C 0.13838 0.94332 0.08902 0.0
C253 C 0.14312 0.88851 0.10115 0.0
H254 H 0.10865 0.0074 0.11716 0.0
C255 C 0.12185 0.85614 0.15472 0.0
H256 H 0.15513 0.9696 0.04922 0.0
C257 C 0.09595 0.87804 0.19441 0.0
C258 C 0.09016 0.9327 0.18083 0.0
H259 H 0.12385 0.81386 0.16493 0.0
H260 H 0.07935 0.85219 0.23473 0.0
C261 C 0.1118 0.96511 0.12796 0.0
C262 C 0.63689 0.59346 0.83056 0.0
C263 C 0.63618 0.64856 0.80988 0.0
H264 H 0.61202 0.52449 0.89666 0.0
C265 C 0.60867 0.67661 0.84175 0.0
H266 H 0.65786 0.57083 0.80695 0.0
C267 C 0.58172 0.64998 0.8925 0.0
C268 C 0.58279 0.59491 0.91348 0.0
H269 H 0.60673 0.71908 0.82603 0.0
H270 H 0.55942 0.67247 0.91463 0.0
C271 C 0.61052 0.56695 0.88178 0.0
C272 C 0.89562 0.16954 0.29053 0.0
C273 C 0.86655 0.13935 0.25123 0.0
H274 H 0.9492 0.16899 0.38237 0.0
C275 C 0.86421 0.08496 0.27877 0.0
H276 H 0.89871 0.21139 0.26972 0.0
C277 C 0.89288 0.06063 0.343 0.0
C278 C 0.92483 0.09021 0.3807 0.0
H279 H 0.84235 0.06091 0.24887 0.0
H280 H 0.89152 0.01841 0.36195 0.0
C281 C 0.92477 0.14511 0.35472 0.0
C282 C 0.36112 0.42259 0.56973 0.0
C283 C 0.3495 0.37134 0.5642 0.0
H284 H 0.36927 0.47593 0.63301 0.0
C285 C 0.33932 0.33374 0.62243 0.0
H286 H 0.36842 0.45307 0.52623 0.0
C287 C 0.33858 0.34741 0.683 0.0
C288 C 0.34907 0.39875 0.68778 0.0
H289 H 0.33163 0.29355 0.62144 0.0
H290 H 0.32968 0.31769 0.72633 0.0
C291 C 0.36136 0.43596 0.63092 0.0
C292 C 0.60414 0.66156 0.54922 0.0
C293 C 0.65708 0.6702 0.57131 0.0
H294 H 0.54824 0.62612 0.48623 0.0
C295 C 0.69417 0.65538 0.53832 0.0
H296 H 0.57459 0.67321 0.57304 0.0
C297 C 0.67876 0.62885 0.48771 0.0
C298 C 0.62623 0.61674 0.46998 0.0
H299 H 0.73518 0.66131 0.55453 0.0
H300 H 0.70807 0.61526 0.46522 0.0
C301 C 0.58897 0.63467 0.49965 0.0
C302 C 0.89772 0.08544 0.03526 0.0
C303 C 0.88366 0.13907 0.01774 0.0
H304 H 0.93631 0.02447 0.01099 0.0
C305 C 0.89771 0.17244 0.95907 0.0
H306 H 0.88679 0.05836 0.07941 0.0
C307 C 0.92586 0.15281 0.91959 0.0
C308 C 0.94079 0.09944 0.93806 0.0
H309 H 0.88829 0.21404 0.94466 0.0
H310 H 0.93699 0.17969 0.87543 0.0
C311 C 0.92617 0.06594 0.99612 0.0
C312 C 0.45484 0.39185 0.34127 0.0
C313 C 0.401 0.40057 0.33362 0.0
H314 H 0.52219 0.40582 0.29404 0.0
C315 C 0.37436 0.43389 0.27266 0.0
H316 H 0.47615 0.36592 0.38762 0.0
C317 C 0.40071 0.45758 0.22007 0.0
C318 C 0.45413 0.4474 0.2261 0.0
H319 H 0.33287 0.44132 0.26552 0.0
H320 H 0.37899 0.48367 0.17431 0.0
C321 C 0.4811 0.41473 0.28775 0.0
C322 C 0.13116 0.86504 0.82581 0.0
C323 C 0.16216 0.8929 0.86669 0.0
H324 H 0.07731 0.86942 0.73323 0.0
C325 C 0.16784 0.94708 0.84055 0.0
H326 H 0.12536 0.82349 0.84534 0.0
C327 C 0.14075 0.97344 0.77601 0.0
C328 C 0.10692 0.9462 0.73689 0.0
H329 H 0.19125 0.96943 0.87155 0.0
H330 H 0.1448 0.01542 0.7579 0.0
C331 C 0.10343 0.89152 0.76175 0.0
loop_
_geom_bond_atom_site_label_1
_geom_bond_atom_site_label_2
_geom_bond_distance
_geom_bond_site_symmetry_2
_ccdc_geom_bond_type
H0 C3 0.929 . S
H1 C6 0.929 . S
H2 C8 0.930 . S
C3 H0 0.929 . S
C3 C4 1.398 1_554 S
C3 C5 1.396 . S
C4 C3 1.398 1_556 S
C4 C8 1.407 . S
C5 C3 1.396 . S
C5 C6 1.394 . S
C6 H1 0.929 . S
C6 C5 1.394 . S
C6 C7 1.382 . S
C7 C6 1.382 . S
C7 C8 1.392 1_554 S
C7 N9 1.420 . S
C8 H2 0.930 . S
C8 C4 1.407 . S
C8 C7 1.392 1_556 S
N9 C7 1.420 . S
N9 C10 1.244 . S
C10 N9 1.244 . S
H11 C14 0.929 . S
H12 C17 0.929 . S
H13 C19 0.930 . S
C14 H11 0.929 . S
C14 C15 1.398 . S
C14 C16 1.396 . S
C15 C14 1.398 . S
C15 C19 1.407 . S
C16 C14 1.396 . S
C16 C17 1.394 . S
C17 H12 0.929 . S
C17 C16 1.394 . S
C17 C18 1.382 . S
C18 C17 1.382 . S
C18 C19 1.392 . S
C18 N20 1.420 . S
C19 H13 0.930 . S
C19 C15 1.407 . S
C19 C18 1.392 . S
N20 C18 1.420 . S
N20 C21 1.244 . S
C21 N20 1.244 . S
H22 C25 0.929 . S
H23 C28 0.929 . S
H24 C30 0.930 1_556 S
C25 H22 0.929 . S
C25 C26 1.398 . S
C25 C27 1.396 . S
C26 C25 1.398 . S
C26 C30 1.407 . S
C27 C25 1.396 . S
C27 C28 1.394 . S
C28 H23 0.929 . S
C28 C27 1.394 . S
C28 C29 1.382 . S
C29 C28 1.382 . S
C29 C30 1.392 . S
C29 N31 1.420 . S
C30 H24 0.930 1_554 S
C30 C26 1.407 . S
C30 C29 1.392 . S
N31 C29 1.420 . S
N31 C32 1.244 . S
C32 N31 1.244 . S
H33 C36 0.929 . S
H34 C39 0.929 . S
H35 C41 0.930 . S
C36 H33 0.929 . S
C36 C37 1.398 . S
C36 C38 1.396 . S
C37 C36 1.398 . S
C37 C41 1.407 . S
C38 C36 1.396 . S
C38 C39 1.394 . S
C39 H34 0.929 . S
C39 C38 1.394 . S
C39 C40 1.382 . S
C40 C39 1.382 . S
C40 C41 1.392 . S
C40 N42 1.420 . S
C41 H35 0.930 . S
C41 C37 1.407 . S
C41 C40 1.392 . S
N42 C40 1.420 . S
N42 C43 1.244 . S
C43 N42 1.244 . S
C44 C46 1.422 . S
C44 C48 1.415 . S
C44 N50 1.369 . S
C45 C46 1.421 . S
C45 C47 1.417 . S
C45 C57 1.422 . S
C46 C44 1.422 . S
C46 C45 1.421 . S
C46 N56 1.359 . S
C47 C45 1.417 . S
C47 C49 1.329 . S
C47 H66 0.930 . S
C48 C44 1.415 . S
C48 C49 1.437 . S
C48 C52 1.413 . S
C49 C47 1.329 . S
C49 C48 1.437 . S
C49 H71 0.929 . S
N50 C44 1.369 . S
N50 C51 1.338 1_655 S
N50 Gd55 2.622 . S
C51 N50 1.338 1_455 S
C51 C53 1.378 . S
C51 H63 0.929 . S
C52 C48 1.413 . S
C52 C53 1.348 1_655 S
C52 H68 0.931 . S
C53 C51 1.378 . S
C53 C52 1.348 1_455 S
C53 H69 0.930 . S
Gd54 N74 2.622 . S
Gd54 N81 2.570 . S
Gd54 O88 2.353 1_465 S
Gd54 O89 2.468 . S
Gd54 O90 2.427 . S
Gd54 O92 2.388 1_455 S
Gd54 O93 2.386 . S
Gd54 O97 2.307 1_565 S
Gd54 C107 2.805 . S
Gd55 N50 2.622 . S
Gd55 N56 2.570 . S
Gd55 O87 2.386 . S
Gd55 O91 2.307 1_545 S
Gd55 O94 2.353 1_655 S
Gd55 O95 2.468 . S
Gd55 O96 2.427 . S
Gd55 O98 2.388 1_655 S
Gd55 C119 2.805 . S
N56 C46 1.359 . S
N56 Gd55 2.570 . S
N56 C58 1.343 . S
C57 C45 1.422 . S
C57 C59 1.321 . S
C57 H65 0.931 . S
C58 N56 1.343 . S
C58 C59 1.390 . S
C58 H60 0.931 . S
C59 C57 1.321 . S
C59 C58 1.390 . S
C59 H61 0.930 . S
H60 C58 0.931 . S
H61 C59 0.930 . S
H62 C85 0.931 . S
H63 C51 0.929 . S
H64 C86 0.930 . S
H65 C57 0.931 . S
H66 C47 0.930 . S
H67 C76 0.929 1_655 S
H68 C52 0.931 . S
H69 C53 0.930 . S
H70 C108 0.930 . S
H71 C49 0.929 . S
H72 C77 0.931 . S
H73 C78 0.930 1_655 S
N74 Gd54 2.622 . S
N74 C75 1.369 . S
N74 C76 1.338 . S
C75 N74 1.369 . S
C75 C79 1.415 . S
C75 C82 1.422 . S
C76 H67 0.929 1_455 S
C76 N74 1.338 . S
C76 C78 1.378 . S
C77 H72 0.931 . S
C77 C78 1.348 . S
C77 C79 1.413 . S
C78 H73 0.930 1_455 S
C78 C76 1.378 . S
C78 C77 1.348 . S
C79 C75 1.415 . S
C79 C77 1.413 . S
C79 C109 1.437 . S
H80 C109 0.929 . S
N81 Gd54 2.570 . S
N81 C82 1.359 . S
N81 C85 1.343 . S
C82 C75 1.422 . S
C82 N81 1.359 . S
C82 C84 1.421 . S
C83 C84 1.422 . S
C83 C86 1.321 . S
C83 H110 0.931 . S
C84 C82 1.421 . S
C84 C83 1.422 . S
C84 C108 1.417 . S
C85 H62 0.931 . S
C85 N81 1.343 . S
C85 C86 1.390 . S
C86 H64 0.930 . S
C86 C83 1.321 . S
C86 C85 1.390 . S
O87 Gd55 2.386 . S
O87 C99 1.265 . S
O88 Gd54 2.353 1_645 S
O88 C99 1.242 . S
O89 Gd54 2.468 . S
O89 C107 1.263 . S
O90 Gd54 2.427 . S
O90 C107 1.252 . S
O91 Gd55 2.307 1_565 S
O91 C100 1.261 . S
O92 Gd54 2.388 1_655 S
O92 C100 1.252 . S
O93 Gd54 2.386 . S
O93 C111 1.265 . S
O94 Gd55 2.353 1_455 S
O94 C111 1.242 1_545 S
O95 Gd55 2.468 . S
O95 C119 1.263 . S
O96 Gd55 2.427 . S
O96 C119 1.252 . S
O97 Gd54 2.307 1_545 S
O97 C112 1.261 . S
O98 Gd55 2.388 1_455 S
O98 C112 1.252 . S
C99 O87 1.265 . S
C99 O88 1.242 . S
C100 O91 1.261 . S
C100 O92 1.252 . S
C101 C104 1.394 . S
C101 C106 1.370 . S
C101 C107 1.500 . S
C102 C105 1.383 . S
C102 C106 1.395 . S
C103 C104 1.396 . S
C103 C105 1.365 . S
C103 H120 0.929 . S
C104 C101 1.394 . S
C104 C103 1.396 . S
C104 H121 0.930 . S
C105 C102 1.383 . S
C105 C103 1.365 . S
C105 H122 0.931 . S
C106 C101 1.370 . S
C106 C102 1.395 . S
C106 H123 0.930 . S
C107 Gd54 2.805 . S
C107 O89 1.263 . S
C107 O90 1.252 . S
C107 C101 1.500 . S
C108 H70 0.930 . S
C108 C84 1.417 . S
C108 C109 1.329 . S
C109 C79 1.437 . S
C109 H80 0.929 . S
C109 C108 1.329 . S
H110 C83 0.931 . S
C111 O93 1.265 . S
C111 O94 1.242 1_565 S
C112 O97 1.261 . S
C112 O98 1.252 . S
C113 C116 1.394 . S
C113 C118 1.370 . S
C113 C119 1.500 . S
C114 C117 1.383 . S
C114 C118 1.395 . S
C115 C116 1.396 . S
C115 C117 1.365 . S
C115 H124 0.929 . S
C116 C113 1.394 . S
C116 C115 1.396 . S
C116 H125 0.930 . S
C117 C114 1.383 . S
C117 C115 1.365 . S
C117 H126 0.931 . S
C118 C113 1.370 . S
C118 C114 1.395 . S
C118 H127 0.930 . S
C119 Gd55 2.805 . S
C119 O95 1.263 . S
C119 O96 1.252 . S
C119 C113 1.500 . S
H120 C103 0.929 . S
H121 C104 0.930 . S
H122 C105 0.931 . S
H123 C106 0.930 . S
H124 C115 0.929 . S
H125 C116 0.930 . S
H126 C117 0.931 . S
H127 C118 0.930 . S
C128 C130 1.422 . S
C128 C132 1.415 . S
C128 N134 1.369 . S
C129 C130 1.421 . S
C129 C131 1.417 . S
C129 C141 1.422 . S
C130 C128 1.422 . S
C130 C129 1.421 . S
C130 N140 1.359 . S
C131 C129 1.417 . S
C131 C133 1.329 . S
C131 H150 0.930 . S
C132 C128 1.415 . S
C132 C133 1.437 . S
C132 C136 1.413 . S
C133 C131 1.329 . S
C133 C132 1.437 . S
C133 H155 0.929 . S
N134 C128 1.369 . S
N134 C135 1.338 . S
N134 Gd139 2.622 . S
C135 N134 1.338 . S
C135 C137 1.378 . S
C135 H147 0.929 . S
C136 C132 1.413 . S
C136 C137 1.348 . S
C136 H152 0.931 . S
C137 C135 1.378 . S
C137 C136 1.348 . S
C137 H153 0.930 . S
Gd138 N158 2.622 . S
Gd138 N165 2.570 . S
Gd138 O172 2.353 1_554 S
Gd138 O173 2.468 1_554 S
Gd138 O174 2.427 1_554 S
Gd138 O176 2.388 . S
Gd138 O177 2.386 . S
Gd138 O181 2.307 . S
Gd138 C191 2.805 1_554 S
Gd139 N134 2.622 . S
Gd139 N140 2.570 . S
Gd139 O171 2.386 . S
Gd139 O175 2.307 . S
Gd139 O178 2.353 . S
Gd139 O179 2.468 . S
Gd139 O180 2.427 . S
Gd139 O182 2.388 . S
Gd139 C203 2.805 . S
N140 C130 1.359 . S
N140 Gd139 2.570 . S
N140 C142 1.343 . S
C141 C129 1.422 . S
C141 C143 1.321 . S
C141 H149 0.931 . S
C142 N140 1.343 . S
C142 C143 1.390 . S
C142 H144 0.931 . S
C143 C141 1.321 . S
C143 C142 1.390 . S
C143 H145 0.930 . S
H144 C142 0.931 . S
H145 C143 0.930 . S
H146 C169 0.931 . S
H147 C135 0.929 . S
H148 C170 0.930 . S
H149 C141 0.931 . S
H150 C131 0.930 . S
H151 C160 0.929 . S
H152 C136 0.931 . S
H153 C137 0.930 . S
H154 C192 0.930 . S
H155 C133 0.929 . S
H156 C161 0.931 . S
H157 C162 0.930 . S
N158 Gd138 2.622 . S
N158 C159 1.369 . S
N158 C160 1.338 1_554 S
C159 N158 1.369 . S
C159 C163 1.415 . S
C159 C166 1.422 . S
C160 H151 0.929 . S
C160 N158 1.338 1_556 S
C160 C162 1.378 . S
C161 H156 0.931 . S
C161 C162 1.348 1_554 S
C161 C163 1.413 . S
C162 H157 0.930 . S
C162 C160 1.378 . S
C162 C161 1.348 1_556 S
C163 C159 1.415 . S
C163 C161 1.413 . S
C163 C193 1.437 . S
H164 C193 0.929 . S
N165 Gd138 2.570 . S
N165 C166 1.359 . S
N165 C169 1.343 . S
C166 C159 1.422 . S
C166 N165 1.359 . S
C166 C168 1.421 . S
C167 C168 1.422 . S
C167 C170 1.321 . S
C167 H194 0.931 . S
C168 C166 1.421 . S
C168 C167 1.422 . S
C168 C192 1.417 . S
C169 H146 0.931 . S
C169 N165 1.343 . S
C169 C170 1.390 . S
C170 H148 0.930 . S
C170 C167 1.321 . S
C170 C169 1.390 . S
O171 Gd139 2.386 . S
O171 C183 1.265 1_554 S
O172 Gd138 2.353 1_556 S
O172 C183 1.242 . S
O173 Gd138 2.468 1_556 S
O173 C191 1.263 . S
O174 Gd138 2.427 1_556 S
O174 C191 1.252 . S
O175 Gd139 2.307 . S
O175 C184 1.261 . S
O176 Gd138 2.388 . S
O176 C184 1.252 . S
O177 Gd138 2.386 . S
O177 C195 1.265 . S
O178 Gd139 2.353 . S
O178 C195 1.242 . S
O179 Gd139 2.468 . S
O179 C203 1.263 . S
O180 Gd139 2.427 . S
O180 C203 1.252 . S
O181 Gd138 2.307 . S
O181 C196 1.261 . S
O182 Gd139 2.388 . S
O182 C196 1.252 . S
C183 O171 1.265 1_556 S
C183 O172 1.242 . S
C184 O175 1.261 . S
C184 O176 1.252 . S
C185 C188 1.394 . S
C185 C190 1.370 . S
C185 C191 1.500 . S
C186 C189 1.383 . S
C186 C190 1.395 . S
C187 C188 1.396 . S
C187 C189 1.365 . S
C187 H204 0.929 . S
C188 C185 1.394 . S
C188 C187 1.396 . S
C188 H205 0.930 . S
C189 C186 1.383 . S
C189 C187 1.365 . S
C189 H206 0.931 . S
C190 C185 1.370 . S
C190 C186 1.395 . S
C190 H207 0.930 . S
C191 Gd138 2.805 1_556 S
C191 O173 1.263 . S
C191 O174 1.252 . S
C191 C185 1.500 . S
C192 H154 0.930 . S
C192 C168 1.417 . S
C192 C193 1.329 . S
C193 C163 1.437 . S
C193 H164 0.929 . S
C193 C192 1.329 . S
H194 C167 0.931 . S
C195 O177 1.265 . S
C195 O178 1.242 . S
C196 O181 1.261 . S
C196 O182 1.252 . S
C197 C200 1.394 . S
C197 C202 1.370 . S
C197 C203 1.500 . S
C198 C201 1.383 . S
C198 C202 1.395 . S
C199 C200 1.396 . S
C199 C201 1.365 . S
C199 H208 0.929 . S
C200 C197 1.394 . S
C200 C199 1.396 . S
C200 H209 0.930 . S
C201 C198 1.383 . S
C201 C199 1.365 . S
C201 H210 0.931 . S
C202 C197 1.370 . S
C202 C198 1.395 . S
C202 H211 0.930 . S
C203 Gd139 2.805 . S
C203 O179 1.263 . S
C203 O180 1.252 . S
C203 C197 1.500 . S
H204 C187 0.929 . S
H205 C188 0.930 . S
H206 C189 0.931 . S
H207 C190 0.930 . S
H208 C199 0.929 . S
H209 C200 0.930 . S
H210 C201 0.931 . S
H211 C202 0.930 . S
C212 C213 1.387 . S
C212 H216 0.950 . S
C212 C221 1.390 . S
C213 C212 1.387 . S
C213 C215 1.387 . S
H214 C221 0.950 . S
C215 C213 1.387 . S
C215 C217 1.390 . S
C215 H219 0.950 . S
H216 C212 0.950 . S
C217 C215 1.390 . S
C217 C218 1.387 . S
C217 H220 0.950 . S
C218 C217 1.387 . S
C218 C221 1.387 . S
H219 C215 0.950 . S
H220 C217 0.950 . S
C221 C212 1.390 . S
C221 H214 0.950 . S
C221 C218 1.387 . S
C222 C223 1.387 . S
C222 H226 0.950 . S
C222 C231 1.390 . S
C223 C222 1.387 . S
C223 C225 1.387 . S
H224 C231 0.950 . S
C225 C223 1.387 . S
C225 C227 1.390 . S
C225 H229 0.950 1_554 S
H226 C222 0.950 . S
C227 C225 1.390 . S
C227 C228 1.387 . S
C227 H230 0.950 1_554 S
C228 C227 1.387 . S
C228 C231 1.387 . S
H229 C225 0.950 1_556 S
H230 C227 0.950 1_556 S
C231 C222 1.390 . S
C231 H224 0.950 . S
C231 C228 1.387 . S
C232 C233 1.387 . S
C232 H236 0.950 . S
C232 C241 1.390 . S
C233 C232 1.387 . S
C233 C235 1.387 . S
H234 C241 0.950 . S
C235 C233 1.387 . S
C235 C237 1.390 . S
C235 H239 0.950 . S
H236 C232 0.950 . S
C237 C235 1.390 . S
C237 C238 1.387 . S
C237 H240 0.950 . S
C238 C237 1.387 . S
C238 C241 1.387 . S
H239 C235 0.950 . S
H240 C237 0.950 . S
C241 C232 1.390 . S
C241 H234 0.950 . S
C241 C238 1.387 . S
C242 C243 1.387 . S
C242 H246 0.950 1_554 S
C242 C251 1.390 . S
C243 C242 1.387 . S
C243 C245 1.387 . S
H244 C251 0.950 1_556 S
C245 C243 1.387 . S
C245 C247 1.390 . S
C245 H249 0.950 . S
H246 C242 0.950 1_556 S
C247 C245 1.390 . S
C247 C248 1.387 . S
C247 H250 0.950 . S
C248 C247 1.387 . S
C248 C251 1.387 . S
H249 C245 0.950 . S
H250 C247 0.950 . S
C251 C242 1.390 . S
C251 H244 0.950 1_554 S
C251 C248 1.387 . S
C252 C253 1.387 . S
C252 H256 0.950 . S
C252 C261 1.390 . S
C253 C252 1.387 . S
C253 C255 1.387 . S
H254 C261 0.950 1_545 S
C255 C253 1.387 . S
C255 C257 1.390 . S
C255 H259 0.950 . S
H256 C252 0.950 . S
C257 C255 1.390 . S
C257 C258 1.387 . S
C257 H260 0.950 . S
C258 C257 1.387 . S
C258 C261 1.387 . S
H259 C255 0.950 . S
H260 C257 0.950 . S
C261 C252 1.390 . S
C261 H254 0.950 1_565 S
C261 C258 1.387 . S
C262 C263 1.387 . S
C262 H266 0.950 . S
C262 C271 1.390 . S
C263 C262 1.387 . S
C263 C265 1.387 . S
H264 C271 0.950 . S
C265 C263 1.387 . S
C265 C267 1.390 . S
C265 H269 0.950 . S
H266 C262 0.950 . S
C267 C265 1.390 . S
C267 C268 1.387 . S
C267 H270 0.950 . S
C268 C267 1.387 . S
C268 C271 1.387 . S
H269 C265 0.950 . S
H270 C267 0.950 . S
C271 C262 1.390 . S
C271 H264 0.950 . S
C271 C268 1.387 . S
C272 C273 1.387 . S
C272 H276 0.950 . S
C272 C281 1.390 . S
C273 C272 1.387 . S
C273 C275 1.387 . S
H274 C281 0.950 . S
C275 C273 1.387 . S
C275 C277 1.390 . S
C275 H279 0.950 . S
H276 C272 0.950 . S
C277 C275 1.390 . S
C277 C278 1.387 . S
C277 H280 0.950 . S
C278 C277 1.387 . S
C278 C281 1.387 . S
H279 C275 0.950 . S
H280 C277 0.950 . S
C281 C272 1.390 . S
C281 H274 0.950 . S
C281 C278 1.387 . S
C282 C283 1.387 . S
C282 H286 0.950 . S
C282 C291 1.390 . S
C283 C282 1.387 . S
C283 C285 1.387 . S
H284 C291 0.950 . S
C285 C283 1.387 . S
C285 C287 1.390 . S
C285 H289 0.950 . S
H286 C282 0.950 . S
C287 C285 1.390 . S
C287 C288 1.387 . S
C287 H290 0.950 . S
C288 C287 1.387 . S
C288 C291 1.387 . S
H289 C285 0.950 . S
H290 C287 0.950 . S
C291 C282 1.390 . S
C291 H284 0.950 . S
C291 C288 1.387 . S
C292 C293 1.387 . S
C292 H296 0.950 . S
C292 C301 1.390 . S
C293 C292 1.387 . S
C293 C295 1.387 . S
H294 C301 0.950 . S
C295 C293 1.387 . S
C295 C297 1.390 . S
C295 H299 0.950 . S
H296 C292 0.950 . S
C297 C295 1.390 . S
C297 C298 1.387 . S
C297 H300 0.950 . S
C298 C297 1.387 . S
C298 C301 1.387 . S
H299 C295 0.950 . S
H300 C297 0.950 . S
C301 C292 1.390 . S
C301 H294 0.950 . S
C301 C298 1.387 . S
C302 C303 1.387 1_554 S
C302 H306 0.950 . S
C302 C311 1.390 1_554 S
C303 C302 1.387 1_556 S
C303 C305 1.387 . S
H304 C311 0.950 . S
C305 C303 1.387 . S
C305 C307 1.390 . S
C305 H309 0.950 . S
H306 C302 0.950 . S
C307 C305 1.390 . S
C307 C308 1.387 . S
C307 H310 0.950 . S
C308 C307 1.387 . S
C308 C311 1.387 . S
H309 C305 0.950 . S
H310 C307 0.950 . S
C311 C302 1.390 1_556 S
C311 H304 0.950 . S
C311 C308 1.387 . S
C312 C313 1.387 . S
C312 H316 0.950 . S
C312 C321 1.390 . S
C313 C312 1.387 . S
C313 C315 1.387 . S
H314 C321 0.950 . S
C315 C313 1.387 . S
C315 C317 1.390 . S
C315 H319 0.950 . S
H316 C312 0.950 . S
C317 C315 1.390 . S
C317 C318 1.387 . S
C317 H320 0.950 . S
C318 C317 1.387 . S
C318 C321 1.387 . S
H319 C315 0.950 . S
H320 C317 0.950 . S
C321 C312 1.390 . S
C321 H314 0.950 . S
C321 C318 1.387 . S
C322 C323 1.387 . S
C322 H326 0.950 . S
C322 C331 1.390 . S
C323 C322 1.387 . S
C323 C325 1.387 . S
H324 C331 0.950 . S
C325 C323 1.387 . S
C325 C327 1.390 . S
C325 H329 0.952 . S
H326 C322 0.950 . S
C327 C325 1.390 . S
C327 C328 1.387 . S
C327 H330 0.950 1_565 S
C328 C327 1.387 . S
C328 C331 1.387 . S
H329 C325 0.952 . S
H330 C327 0.950 1_545 S
C331 C322 1.390 . S
C331 H324 0.950 . S
C331 C328 1.387 . S
C218 C112 1.627 . S
C213 C43 1.637 . S
C223 C10 1.639 . S
C228 C184 1.634 . S
C233 C21 1.635 . S
C238 C100 1.648 . S
C243 C32 1.601 . S
C248 C196 1.603 . S
C258 C102 1.407 . S
C253 C5 1.587 . S
C268 C183 1.688 . S
C263 C15 1.682 . S
C273 C27 1.622 . S
C278 C99 1.650 . S
C283 C38 1.587 . S
C288 C186 1.420 . S
C298 C198 1.390 . S
C293 C16 1.554 . S
C308 C114 1.356 . S
C303 C26 1.542 1_556 S
C318 C195 1.618 . S
C313 C37 1.604 . S
C323 C4 1.568 . S
C328 C111 1.591 . S
