# Generated by pormake.
# Topology eea, (3,6)-cn, num edge types: 1
# Building blocks:
#     Node 0, Type 0, BuildingBlock: MIDCAF_clean_linker_0, # of connection points: 3
#     Node 1, Type 0, BuildingBlock: MIDCAF_clean_linker_0, # of connection points: 3
#     Node 2, Type 0, BuildingBlock: MIDCAF_clean_linker_0, # of connection points: 3
#     Node 3, Type 0, BuildingBlock: MIDCAF_clean_linker_0, # of connection points: 3
#     Node 4, Type 0, BuildingBlock: MIDCAF_clean_linker_0, # of connection points: 3
#     Node 5, Type 0, BuildingBlock: MIDCAF_clean_linker_0, # of connection points: 3
#     Node 6, Type 0, BuildingBlock: MIDCAF_clean_linker_0, # of connection points: 3
#     Node 7, Type 0, BuildingBlock: MIDCAF_clean_linker_0, # of connection points: 3
#     Node 8, Type 0, BuildingBlock: MIDCAF_clean_linker_0, # of connection points: 3
#     Node 9, Type 0, BuildingBlock: MIDCAF_clean_linker_0, # of connection points: 3
#     Node 10, Type 0, BuildingBlock: MIDCAF_clean_linker_0, # of connection points: 3
#     Node 11, Type 0, BuildingBlock: MIDCAF_clean_linker_0, # of connection points: 3
#     Node 12, Type 0, BuildingBlock: MIDCAF_clean_linker_0, # of connection points: 3
#     Node 13, Type 0, BuildingBlock: MIDCAF_clean_linker_0, # of connection points: 3
#     Node 14, Type 0, BuildingBlock: MIDCAF_clean_linker_0, # of connection points: 3
#     Node 15, Type 0, BuildingBlock: MIDCAF_clean_linker_0, # of connection points: 3
#     Node 16, Type 0, BuildingBlock: MIDCAF_clean_linker_0, # of connection points: 3
#     Node 17, Type 0, BuildingBlock: MIDCAF_clean_linker_0, # of connection points: 3
#     Node 18, Type 1, BuildingBlock: CUKXOW_clean_sbu_0, # of connection points: 6
#     Node 19, Type 1, BuildingBlock: CUKXOW_clean_sbu_0, # of connection points: 6
#     Node 20, Type 1, BuildingBlock: CUKXOW_clean_sbu_0, # of connection points: 6
#     Node 21, Type 1, BuildingBlock: CUKXOW_clean_sbu_0, # of connection points: 6
#     Node 22, Type 1, BuildingBlock: CUKXOW_clean_sbu_0, # of connection points: 6
#     Node 23, Type 1, BuildingBlock: CUKXOW_clean_sbu_0, # of connection points: 6
#     Node 24, Type 1, BuildingBlock: CUKXOW_clean_sbu_0, # of connection points: 6
#     Node 25, Type 1, BuildingBlock: CUKXOW_clean_sbu_0, # of connection points: 6
#     Node 26, Type 1, BuildingBlock: CUKXOW_clean_sbu_0, # of connection points: 6
#     Edge 27, Type (0, 1), BuildingBlock: TEMPAE_clean_linker_10, # of connection points: 2
#     Edge 28, Type (0, 1), BuildingBlock: TEMPAE_clean_linker_10, # of connection points: 2
#     Edge 29, Type (0, 1), BuildingBlock: TEMPAE_clean_linker_10, # of connection points: 2
#     Edge 30, Type (0, 1), BuildingBlock: TEMPAE_clean_linker_10, # of connection points: 2
#     Edge 31, Type (0, 1), BuildingBlock: TEMPAE_clean_linker_10, # of connection points: 2
#     Edge 32, Type (0, 1), BuildingBlock: TEMPAE_clean_linker_10, # of connection points: 2
#     Edge 33, Type (0, 1), BuildingBlock: TEMPAE_clean_linker_10, # of connection points: 2
#     Edge 34, Type (0, 1), BuildingBlock: TEMPAE_clean_linker_10, # of connection points: 2
#     Edge 35, Type (0, 1), BuildingBlock: TEMPAE_clean_linker_10, # of connection points: 2
#     Edge 36, Type (0, 1), BuildingBlock: TEMPAE_clean_linker_10, # of connection points: 2
#     Edge 37, Type (0, 1), BuildingBlock: TEMPAE_clean_linker_10, # of connection points: 2
#     Edge 38, Type (0, 1), BuildingBlock: TEMPAE_clean_linker_10, # of connection points: 2
#     Edge 39, Type (0, 1), BuildingBlock: TEMPAE_clean_linker_10, # of connection points: 2
#     Edge 40, Type (0, 1), BuildingBlock: TEMPAE_clean_linker_10, # of connection points: 2
#     Edge 41, Type (0, 1), BuildingBlock: TEMPAE_clean_linker_10, # of connection points: 2
#     Edge 42, Type (0, 1), BuildingBlock: TEMPAE_clean_linker_10, # of connection points: 2
#     Edge 43, Type (0, 1), BuildingBlock: TEMPAE_clean_linker_10, # of connection points: 2
#     Edge 44, Type (0, 1), BuildingBlock: TEMPAE_clean_linker_10, # of connection points: 2
#     Edge 45, Type (0, 1), BuildingBlock: TEMPAE_clean_linker_10, # of connection points: 2
#     Edge 46, Type (0, 1), BuildingBlock: TEMPAE_clean_linker_10, # of connection points: 2
#     Edge 47, Type (0, 1), BuildingBlock: TEMPAE_clean_linker_10, # of connection points: 2
#     Edge 48, Type (0, 1), BuildingBlock: TEMPAE_clean_linker_10, # of connection points: 2
#     Edge 49, Type (0, 1), BuildingBlock: TEMPAE_clean_linker_10, # of connection points: 2
#     Edge 50, Type (0, 1), BuildingBlock: TEMPAE_clean_linker_10, # of connection points: 2
#     Edge 51, Type (0, 1), BuildingBlock: TEMPAE_clean_linker_10, # of connection points: 2
#     Edge 52, Type (0, 1), BuildingBlock: TEMPAE_clean_linker_10, # of connection points: 2
#     Edge 53, Type (0, 1), BuildingBlock: TEMPAE_clean_linker_10, # of connection points: 2
#     Edge 54, Type (0, 1), BuildingBlock: TEMPAE_clean_linker_10, # of connection points: 2
#     Edge 55, Type (0, 1), BuildingBlock: TEMPAE_clean_linker_10, # of connection points: 2
#     Edge 56, Type (0, 1), BuildingBlock: TEMPAE_clean_linker_10, # of connection points: 2
#     Edge 57, Type (0, 1), BuildingBlock: TEMPAE_clean_linker_10, # of connection points: 2
#     Edge 58, Type (0, 1), BuildingBlock: TEMPAE_clean_linker_10, # of connection points: 2
#     Edge 59, Type (0, 1), BuildingBlock: TEMPAE_clean_linker_10, # of connection points: 2
#     Edge 60, Type (0, 1), BuildingBlock: TEMPAE_clean_linker_10, # of connection points: 2
#     Edge 61, Type (0, 1), BuildingBlock: TEMPAE_clean_linker_10, # of connection points: 2
#     Edge 62, Type (0, 1), BuildingBlock: TEMPAE_clean_linker_10, # of connection points: 2
#     Edge 63, Type (0, 1), BuildingBlock: TEMPAE_clean_linker_10, # of connection points: 2
#     Edge 64, Type (0, 1), BuildingBlock: TEMPAE_clean_linker_10, # of connection points: 2
#     Edge 65, Type (0, 1), BuildingBlock: TEMPAE_clean_linker_10, # of connection points: 2
#     Edge 66, Type (0, 1), BuildingBlock: TEMPAE_clean_linker_10, # of connection points: 2
#     Edge 67, Type (0, 1), BuildingBlock: TEMPAE_clean_linker_10, # of connection points: 2
#     Edge 68, Type (0, 1), BuildingBlock: TEMPAE_clean_linker_10, # of connection points: 2
#     Edge 69, Type (0, 1), BuildingBlock: TEMPAE_clean_linker_10, # of connection points: 2
#     Edge 70, Type (0, 1), BuildingBlock: TEMPAE_clean_linker_10, # of connection points: 2
#     Edge 71, Type (0, 1), BuildingBlock: TEMPAE_clean_linker_10, # of connection points: 2
#     Edge 72, Type (0, 1), BuildingBlock: TEMPAE_clean_linker_10, # of connection points: 2
#     Edge 73, Type (0, 1), BuildingBlock: TEMPAE_clean_linker_10, # of connection points: 2
#     Edge 74, Type (0, 1), BuildingBlock: TEMPAE_clean_linker_10, # of connection points: 2
#     Edge 75, Type (0, 1), BuildingBlock: TEMPAE_clean_linker_10, # of connection points: 2
#     Edge 76, Type (0, 1), BuildingBlock: TEMPAE_clean_linker_10, # of connection points: 2
#     Edge 77, Type (0, 1), BuildingBlock: TEMPAE_clean_linker_10, # of connection points: 2
#     Edge 78, Type (0, 1), BuildingBlock: TEMPAE_clean_linker_10, # of connection points: 2
#     Edge 79, Type (0, 1), BuildingBlock: TEMPAE_clean_linker_10, # of connection points: 2
#     Edge 80, Type (0, 1), BuildingBlock: TEMPAE_clean_linker_10, # of connection points: 2
# Relax obj value: 0.018
# Max RMSD: 0.126
# Mean RMSD: 0.056
data_MOF--net-eea--node1-CUKXOW_clean_sbu_0--node2-MIDCAF_clean_linker_0--edge1-TEMPAE_clean_linker_10
_symmetry_space_group_name_H-M    P1
_symmetry_Int_Tables_number       1
_symmetry_cell_setting            triclinic
loop_
_symmetry_equiv_pos_as_xyz
'x, y, z'
_cell_length_a     67.53958
_cell_length_b     64.511459
_cell_length_c     73.991307
_cell_angle_alpha  93.102497
_cell_angle_beta   93.095242
_cell_angle_gamma 119.87362
loop_
_atom_site_label
_atom_site_type_symbol
_atom_site_fract_x
_atom_site_fract_y
_atom_site_fract_z
_atom_type_partial_charge
C0 C 0.24438 0.0537 0.42176 0.0
C1 C 0.23572 0.04721 0.40338 0.0
C2 C 0.23432 0.06429 0.39319 0.0
C3 C 0.24106 0.08719 0.40127 0.0
H4 H 0.2293 0.14342 0.39556 0.0
H5 H 0.21942 0.16945 0.37961 0.0
H6 H 0.26188 0.22817 0.42038 0.0
H7 H 0.27115 0.20189 0.43672 0.0
H8 H 0.26732 0.17655 0.47938 0.0
H9 H 0.28217 0.18579 0.51152 0.0
H10 H 0.31132 0.14002 0.50427 0.0
H11 H 0.29621 0.13037 0.47233 0.0
H12 H 0.25752 0.08086 0.44408 0.0
H13 H 0.24542 0.04089 0.43005 0.0
H14 H 0.22809 0.06 0.37892 0.0
H15 H 0.23961 0.09981 0.39302 0.0
N16 N 0.25121 0.13266 0.41941 0.0
N17 N 0.26586 0.16084 0.44501 0.0
N18 N 0.26552 0.12436 0.44589 0.0
C19 C 0.25627 0.15436 0.42753 0.0
C20 C 0.27059 0.14593 0.45423 0.0
C21 C 0.25577 0.11756 0.42849 0.0
C22 C 0.25094 0.17051 0.4175 0.0
C23 C 0.23661 0.1619 0.40113 0.0
C24 C 0.23105 0.1769 0.39189 0.0
C25 C 0.23984 0.20093 0.3987 0.0
C26 C 0.25449 0.20965 0.41491 0.0
C27 C 0.25989 0.19459 0.42425 0.0
C28 C 0.28056 0.15269 0.47336 0.0
C29 C 0.27704 0.16861 0.48463 0.0
C30 C 0.28541 0.17382 0.50299 0.0
C31 C 0.29788 0.16364 0.51026 0.0
C32 C 0.30187 0.14821 0.49891 0.0
C33 C 0.29313 0.14261 0.48068 0.0
C34 C 0.24946 0.09359 0.41972 0.0
C35 C 0.25122 0.07663 0.42983 0.0
C36 C 0.94622 0.20761 0.42182 0.0
C37 C 0.95332 0.19787 0.40787 0.0
C38 C 0.93861 0.17409 0.40051 0.0
C39 C 0.91729 0.16023 0.40703 0.0
H40 H 0.86005 0.09413 0.39865 0.0
H41 H 0.83348 0.0545 0.38352 0.0
H42 H 0.78059 0.04956 0.41645 0.0
H43 H 0.80742 0.08884 0.43205 0.0
H44 H 0.83351 0.1174 0.47428 0.0
H45 H 0.827 0.12762 0.50445 0.0
H46 H 0.87428 0.20273 0.49953 0.0
H47 H 0.88173 0.19218 0.46944 0.0
H48 H 0.92004 0.2016 0.43938 0.0
H49 H 0.95731 0.22589 0.42777 0.0
H50 H 0.94356 0.16624 0.3896 0.0
H51 H 0.90648 0.14192 0.40108 0.0
N52 N 0.87257 0.13295 0.41956 0.0
N53 N 0.84771 0.1256 0.44231 0.0
N54 N 0.88297 0.16165 0.44444 0.0
C55 C 0.85237 0.11841 0.42631 0.0
C56 C 0.8629 0.14716 0.45146 0.0
C57 C 0.88793 0.1546 0.42847 0.0
C58 C 0.83592 0.09466 0.41663 0.0
C59 C 0.84274 0.08464 0.40265 0.0
C60 C 0.82744 0.06194 0.39388 0.0
C61 C 0.80487 0.04879 0.39875 0.0
C62 C 0.79796 0.05898 0.41256 0.0
C63 C 0.81332 0.08159 0.42145 0.0
C64 C 0.85812 0.15397 0.46943 0.0
C65 C 0.84242 0.13614 0.47953 0.0
C66 C 0.83855 0.14207 0.49686 0.0
C67 C 0.84991 0.16609 0.50447 0.0
C68 C 0.8654 0.18403 0.49423 0.0
C69 C 0.86959 0.17801 0.47694 0.0
C70 C 0.91025 0.16977 0.4212 0.0
C71 C 0.92494 0.19366 0.4285 0.0
C72 C 0.81798 0.76358 0.43517 0.0
C73 C 0.82408 0.77756 0.42035 0.0
C74 C 0.84578 0.78549 0.41411 0.0
C75 C 0.86097 0.7793 0.4224 0.0
H76 H 0.92722 0.78967 0.42244 0.0
H77 H 0.96282 0.79896 0.40933 0.0
H78 H 0.96607 0.74393 0.4378 0.0
H79 H 0.93053 0.73464 0.4511 0.0
H80 H 0.89678 0.71276 0.48343 0.0
H81 H 0.88808 0.69371 0.51192 0.0
H82 H 0.84189 0.72036 0.52131 0.0
H83 H 0.85029 0.73921 0.4929 0.0
H84 H 0.82785 0.74663 0.45488 0.0
H85 H 0.80145 0.75743 0.44038 0.0
H86 H 0.85085 0.79612 0.40261 0.0
H87 H 0.87747 0.78554 0.41714 0.0
N88 N 0.89032 0.76291 0.43831 0.0
N89 N 0.89911 0.74415 0.46117 0.0
N90 N 0.86559 0.74653 0.46111 0.0
C91 C 0.90458 0.75594 0.44592 0.0
C92 C 0.8797 0.73952 0.4689 0.0
C93 C 0.87069 0.75812 0.44577 0.0
C94 C 0.92603 0.76141 0.43782 0.0
C95 C 0.93548 0.77951 0.42591 0.0
C96 C 0.95592 0.78496 0.4185 0.0
C97 C 0.96715 0.77219 0.42262 0.0
C98 C 0.95766 0.75396 0.43437 0.0
C99 C 0.93739 0.74875 0.44202 0.0
C100 C 0.87424 0.72752 0.4859 0.0
C101 C 0.88475 0.71454 0.49156 0.0
C102 C 0.87974 0.70356 0.5078 0.0
C103 C 0.86444 0.70573 0.51878 0.0
C104 C 0.85392 0.71865 0.51314 0.0
C105 C 0.85864 0.7293 0.49681 0.0
C106 C 0.85483 0.76517 0.43718 0.0
C107 C 0.8332 0.75751 0.44353 0.0
C108 C 0.04778 0.25129 0.57027 0.0
C109 C 0.04432 0.24382 0.58787 0.0
C110 C 0.0626 0.24481 0.59864 0.0
C111 C 0.08391 0.25294 0.59188 0.0
H112 H 0.14688 0.25543 0.60172 0.0
H113 H 0.17247 0.242 0.61401 0.0
H114 H 0.20717 0.25767 0.56499 0.0
H115 H 0.1818 0.27125 0.55266 0.0
H116 H 0.17774 0.32237 0.53617 0.0
H117 H 0.18684 0.34187 0.50808 0.0
H118 H 0.11474 0.30344 0.48888 0.0
H119 H 0.10569 0.28522 0.51744 0.0
H120 H 0.07128 0.26533 0.54995 0.0
H121 H 0.03399 0.25084 0.56175 0.0
H122 H 0.0603 0.23898 0.61221 0.0
H123 H 0.09763 0.25339 0.6005 0.0
N124 N 0.12557 0.26409 0.57509 0.0
N125 N 0.15105 0.28402 0.55345 0.0
N126 N 0.11513 0.28145 0.55213 0.0
C127 C 0.14608 0.27138 0.56827 0.0
C128 C 0.13572 0.2892 0.54538 0.0
C129 C 0.11001 0.26906 0.56709 0.0
C130 C 0.16227 0.2644 0.5762 0.0
C131 C 0.16003 0.25613 0.59359 0.0
C132 C 0.17471 0.24854 0.60067 0.0
C133 C 0.19169 0.24874 0.5904 0.0
C134 C 0.19408 0.25716 0.5731 0.0
C135 C 0.17963 0.26508 0.56613 0.0
C136 C 0.14104 0.30217 0.5289 0.0
C137 C 0.16386 0.31835 0.52599 0.0
C138 C 0.16906 0.32941 0.50983 0.0
C139 C 0.15158 0.32408 0.49603 0.0
C140 C 0.12866 0.30836 0.49924 0.0
C141 C 0.12344 0.29773 0.51558 0.0
C142 C 0.08746 0.26053 0.57429 0.0
C143 C 0.06918 0.25971 0.56359 0.0
C144 C 0.7448 0.78402 0.58282 0.0
C145 C 0.76079 0.7928 0.59824 0.0
C146 C 0.76941 0.81659 0.60564 0.0
C147 C 0.76229 0.83126 0.59776 0.0
H148 H 0.74731 0.88768 0.61091 0.0
H149 H 0.75787 0.92663 0.62637 0.0
H150 H 0.75369 0.95271 0.57449 0.0
H151 H 0.74215 0.91362 0.55923 0.0
H152 H 0.69612 0.86107 0.5311 0.0
H153 H 0.6821 0.85383 0.49891 0.0
H154 H 0.71721 0.81451 0.48865 0.0
H155 H 0.73087 0.82119 0.52096 0.0
H156 H 0.72562 0.79147 0.56289 0.0
H157 H 0.73748 0.76567 0.57696 0.0
H158 H 0.78203 0.82409 0.61732 0.0
H159 H 0.76949 0.84957 0.6037 0.0
N160 N 0.74389 0.8593 0.58246 0.0
N161 N 0.72844 0.86819 0.55691 0.0
N162 N 0.73009 0.83271 0.55594 0.0
C163 C 0.73825 0.87425 0.5743 0.0
C164 C 0.72429 0.84746 0.54767 0.0
C165 C 0.73979 0.83845 0.57338 0.0
C166 C 0.74387 0.89754 0.58385 0.0
C167 C 0.7485 0.90171 0.60285 0.0
C168 C 0.75469 0.9241 0.61169 0.0
C169 C 0.7567 0.9429 0.6017 0.0
C170 C 0.75189 0.93858 0.5827 0.0
C171 C 0.74538 0.91614 0.5739 0.0
C172 C 0.71461 0.84172 0.52851 0.0
C173 C 0.70067 0.85068 0.52202 0.0
C174 C 0.69256 0.84647 0.50367 0.0
C175 C 0.69865 0.83366 0.49144 0.0
C176 C 0.71236 0.82446 0.4979 0.0
C177 C 0.72005 0.8282 0.51634 0.0
C178 C 0.74661 0.8226 0.58216 0.0
C179 C 0.73789 0.79879 0.57481 0.0
C180 C 0.19938 0.94388 0.58469 0.0
C181 C 0.19315 0.9559 0.59758 0.0
C182 C 0.17017 0.94492 0.60164 0.0
C183 C 0.15372 0.92275 0.59269 0.0
H184 H 0.08944 0.8635 0.59618 0.0
H185 H 0.05257 0.83852 0.60776 0.0
H186 H 0.03155 0.78799 0.56017 0.0
H187 H 0.06858 0.81273 0.54861 0.0
H188 H 0.09969 0.83136 0.51412 0.0
H189 H 0.108 0.82345 0.48358 0.0
H190 H 0.18036 0.87079 0.49874 0.0
H191 H 0.17224 0.87868 0.52918 0.0
H192 H 0.18828 0.91331 0.56555 0.0
H193 H 0.217 0.95152 0.58152 0.0
H194 H 0.16469 0.95379 0.61133 0.0
H195 H 0.13608 0.91506 0.59584 0.0
N196 N 0.12125 0.87522 0.57475 0.0
N197 N 0.10949 0.84864 0.54831 0.0
N198 N 0.14665 0.88199 0.55249 0.0
C199 C 0.10482 0.85503 0.56466 0.0
C200 C 0.1304 0.86204 0.54216 0.0
C201 C 0.14223 0.88874 0.56875 0.0
C202 C 0.08208 0.84015 0.57146 0.0
C203 C 0.07699 0.84711 0.58812 0.0
C204 C 0.05578 0.83287 0.59472 0.0
C205 C 0.03915 0.81131 0.58487 0.0
C206 C 0.04411 0.8044 0.56816 0.0
C207 C 0.06533 0.81867 0.56151 0.0
C208 C 0.1353 0.85575 0.52407 0.0
C209 C 0.11739 0.83989 0.511 0.0
C210 C 0.1221 0.83546 0.4935 0.0
C211 C 0.1448 0.84655 0.48883 0.0
C212 C 0.16272 0.86184 0.50203 0.0
C213 C 0.15802 0.86647 0.51943 0.0
C214 C 0.15985 0.9112 0.57934 0.0
C215 C 0.18291 0.92188 0.5756 0.0
C216 C 0.90542 0.37876 0.75329 0.0
C217 C 0.89932 0.37399 0.73444 0.0
C218 C 0.89942 0.39211 0.72463 0.0
C219 C 0.90538 0.41442 0.73348 0.0
H220 H 0.8908 0.47127 0.73193 0.0
H221 H 0.8816 0.49887 0.71771 0.0
H222 H 0.93273 0.55738 0.75517 0.0
H223 H 0.94111 0.52942 0.76997 0.0
H224 H 0.95805 0.51426 0.80744 0.0
H225 H 0.9727 0.523 0.83958 0.0
H226 H 0.94235 0.44713 0.84496 0.0
H227 H 0.92791 0.43828 0.81292 0.0
H228 H 0.91599 0.40402 0.77668 0.0
H229 H 0.90516 0.36509 0.76132 0.0
H230 H 0.8951 0.38915 0.71006 0.0
H231 H 0.90532 0.42796 0.72548 0.0
N232 N 0.91495 0.45917 0.75296 0.0
N233 N 0.93001 0.48631 0.77918 0.0
N234 N 0.92672 0.4484 0.77946 0.0
C235 C 0.92095 0.48092 0.76157 0.0
C236 C 0.93284 0.47007 0.78824 0.0
C237 C 0.91793 0.44286 0.76179 0.0
C238 C 0.91661 0.49812 0.75213 0.0
C239 C 0.90019 0.49005 0.73706 0.0
C240 C 0.89501 0.50596 0.72883 0.0
C241 C 0.90639 0.53044 0.73527 0.0
C242 C 0.92328 0.5386 0.75006 0.0
C243 C 0.9282 0.52259 0.75849 0.0
C244 C 0.94185 0.47557 0.80762 0.0
C245 C 0.95448 0.49945 0.81549 0.0
C246 C 0.96293 0.50448 0.83383 0.0
C247 C 0.95853 0.48572 0.84469 0.0
C248 C 0.94578 0.46189 0.83689 0.0
C249 C 0.93767 0.45687 0.81852 0.0
C250 C 0.91151 0.41918 0.75235 0.0
C251 C 0.91151 0.40109 0.76213 0.0
C252 C 0.62465 0.53419 0.76711 0.0
C253 C 0.62748 0.52894 0.7491 0.0
C254 C 0.60883 0.51004 0.73826 0.0
C255 C 0.58782 0.49643 0.74535 0.0
H256 H 0.52492 0.43246 0.73481 0.0
H257 H 0.49687 0.39282 0.72021 0.0
H258 H 0.46418 0.37435 0.77015 0.0
H259 H 0.49156 0.41407 0.78449 0.0
H260 H 0.50613 0.45233 0.81633 0.0
H261 H 0.49788 0.46435 0.84516 0.0
H262 H 0.55073 0.53779 0.84119 0.0
H263 H 0.55966 0.52548 0.81234 0.0
H264 H 0.60197 0.52518 0.78815 0.0
H265 H 0.63873 0.5488 0.77571 0.0
H266 H 0.6106 0.50552 0.72435 0.0
H267 H 0.57385 0.48185 0.73666 0.0
N268 N 0.54719 0.46484 0.76248 0.0
N269 N 0.52318 0.45834 0.78577 0.0
N270 N 0.55839 0.4942 0.78708 0.0
C271 C 0.52731 0.45057 0.76979 0.0
C272 C 0.5385 0.48012 0.79446 0.0
C273 C 0.56286 0.48665 0.77108 0.0
C274 C 0.51047 0.4265 0.7608 0.0
C275 C 0.51172 0.41994 0.74265 0.0
C276 C 0.4957 0.39716 0.73431 0.0
C277 C 0.47822 0.38037 0.74399 0.0
C278 C 0.47711 0.38695 0.76216 0.0
C279 C 0.49294 0.40975 0.77043 0.0
C280 C 0.53354 0.48795 0.81197 0.0
C281 C 0.51598 0.47109 0.82148 0.0
C282 C 0.51109 0.47805 0.83801 0.0
C283 C 0.52341 0.50213 0.84542 0.0
C284 C 0.541 0.51907 0.83592 0.0
C285 C 0.54607 0.51203 0.81938 0.0
C286 C 0.58494 0.50159 0.76341 0.0
C287 C 0.60355 0.52075 0.77417 0.0
C288 C 0.49114 0.09651 0.76629 0.0
C289 C 0.48549 0.09437 0.74741 0.0
C290 C 0.49361 0.08274 0.73584 0.0
C291 C 0.50728 0.07395 0.74291 0.0
H292 H 0.56696 0.07193 0.73215 0.0
H293 H 0.60136 0.08112 0.71737 0.0
H294 H 0.62894 0.0646 0.76489 0.0
H295 H 0.59457 0.05556 0.77988 0.0
H296 H 0.55493 0.02351 0.80804 0.0
H297 H 0.5467 0.00556 0.83692 0.0
H298 H 0.50131 0.03349 0.84589 0.0
H299 H 0.50893 0.05071 0.81703 0.0
H300 H 0.50837 0.08908 0.78795 0.0
H301 H 0.48571 0.10576 0.77566 0.0
H302 H 0.48921 0.08011 0.72129 0.0
H303 H 0.51333 0.06519 0.73365 0.0
N304 N 0.54432 0.06783 0.75991 0.0
N305 N 0.55432 0.05049 0.78317 0.0
N306 N 0.52351 0.05736 0.78546 0.0
C307 C 0.55816 0.05997 0.76688 0.0
C308 C 0.53691 0.04899 0.79248 0.0
C309 C 0.52705 0.06665 0.76916 0.0
C310 C 0.57804 0.06317 0.75728 0.0
C311 C 0.58023 0.07004 0.73944 0.0
C312 C 0.59989 0.07518 0.7309 0.0
C313 C 0.61785 0.07368 0.74002 0.0
C314 C 0.61543 0.06614 0.75763 0.0
C315 C 0.59568 0.06083 0.76615 0.0
C316 C 0.53251 0.03847 0.81015 0.0
C317 C 0.54317 0.02577 0.81618 0.0
C318 C 0.53851 0.01553 0.83274 0.0
C319 C 0.52316 0.01785 0.84362 0.0
C320 C 0.51277 0.0308 0.83765 0.0
C321 C 0.51729 0.04086 0.82111 0.0
C322 C 0.5126 0.07592 0.76173 0.0
C323 C 0.50427 0.0871 0.77337 0.0
C324 C 0.70773 0.57459 0.90181 0.0
C325 C 0.70285 0.56228 0.91754 0.0
C326 C 0.71807 0.55519 0.92458 0.0
C327 C 0.73775 0.56029 0.91609 0.0
H328 H 0.79443 0.5536 0.92137 0.0
H329 H 0.82118 0.54248 0.93465 0.0
H330 H 0.86606 0.57498 0.89261 0.0
H331 H 0.83953 0.58649 0.8794 0.0
H332 H 0.82876 0.6203 0.85431 0.0
H333 H 0.83642 0.63822 0.82549 0.0
H334 H 0.7642 0.61207 0.81319 0.0
H335 H 0.75639 0.59426 0.84224 0.0
H336 H 0.73061 0.58912 0.88115 0.0
H337 H 0.69619 0.58007 0.89599 0.0
H338 H 0.7149 0.54594 0.93681 0.0
H339 H 0.7491 0.55459 0.92196 0.0
N340 N 0.77896 0.57242 0.89898 0.0
N341 N 0.80251 0.58857 0.87549 0.0
N342 N 0.76794 0.58888 0.87569 0.0
C343 C 0.7984 0.57757 0.8911 0.0
C344 C 0.78736 0.59422 0.86769 0.0
C345 C 0.76367 0.57807 0.89141 0.0
C346 C 0.81477 0.57096 0.89929 0.0
C347 C 0.80999 0.55843 0.91493 0.0
C348 C 0.82525 0.5519 0.92249 0.0
C349 C 0.84567 0.55777 0.91463 0.0
C350 C 0.85054 0.57038 0.89906 0.0
C351 C 0.83526 0.57688 0.89145 0.0
C352 C 0.79196 0.60582 0.85053 0.0
C353 C 0.81449 0.61843 0.84553 0.0
C354 C 0.81892 0.62882 0.8291 0.0
C355 C 0.80089 0.62652 0.81721 0.0
C356 C 0.77835 0.61402 0.82216 0.0
C357 C 0.77394 0.60395 0.83878 0.0
C358 C 0.74267 0.57256 0.90031 0.0
C359 C 0.7274 0.57964 0.89326 0.0
C360 C 0.41271 0.12685 0.92279 0.0
C361 C 0.41596 0.129 0.9419 0.0
C362 C 0.41284 0.14625 0.95176 0.0
C363 C 0.40763 0.16166 0.94275 0.0
H364 H 0.43189 0.23612 0.94697 0.0
H365 H 0.44413 0.27544 0.96244 0.0
H366 H 0.4066 0.28871 0.91982 0.0
H367 H 0.39516 0.24983 0.904 0.0
H368 H 0.41619 0.21863 0.86113 0.0
H369 H 0.40474 0.21244 0.82866 0.0
H370 H 0.34127 0.14841 0.83724 0.0
H371 H 0.35414 0.1537 0.86945 0.0
H372 H 0.40552 0.14034 0.89906 0.0
H373 H 0.41528 0.11402 0.91472 0.0
H374 H 0.41471 0.14809 0.96648 0.0
H375 H 0.40586 0.1751 0.95077 0.0
N376 N 0.40755 0.19925 0.92313 0.0
N377 N 0.39899 0.21212 0.89632 0.0
N378 N 0.39451 0.17359 0.89612 0.0
C379 C 0.40606 0.21644 0.91435 0.0
C380 C 0.39309 0.19072 0.88721 0.0
C381 C 0.40183 0.17781 0.91413 0.0
C382 C 0.41267 0.23989 0.92418 0.0
C383 C 0.42619 0.2474 0.94093 0.0
C384 C 0.43311 0.26992 0.94986 0.0
C385 C 0.42643 0.28533 0.94237 0.0
C386 C 0.41247 0.27754 0.92581 0.0
C387 C 0.4058 0.25517 0.91677 0.0
C388 C 0.38601 0.18661 0.86762 0.0
C389 C 0.39991 0.20315 0.85591 0.0
C390 C 0.39314 0.19967 0.83731 0.0
C391 C 0.37185 0.18001 0.83008 0.0
C392 C 0.35797 0.16349 0.84203 0.0
C393 C 0.36518 0.16656 0.86055 0.0
C394 C 0.40512 0.15999 0.92365 0.0
C395 C 0.40721 0.14205 0.91378 0.0
C396 C 0.86375 0.28017 0.91713 0.0
C397 C 0.86264 0.28425 0.93581 0.0
C398 C 0.8453 0.26589 0.94459 0.0
C399 C 0.82926 0.24411 0.93483 0.0
H400 H 0.76735 0.17978 0.93767 0.0
H401 H 0.7306 0.15477 0.94963 0.0
H402 H 0.69956 0.12352 0.89529 0.0
H403 H 0.73632 0.14843 0.8832 0.0
H404 H 0.77178 0.15503 0.8526 0.0
H405 H 0.77879 0.14813 0.82141 0.0
H406 H 0.84582 0.21181 0.82974 0.0
H407 H 0.83886 0.21901 0.86064 0.0
H408 H 0.8492 0.25612 0.89303 0.0
H409 H 0.87654 0.29405 0.90982 0.0
H410 H 0.84414 0.2683 0.95901 0.0
H411 H 0.81603 0.2304 0.94196 0.0
N412 N 0.79314 0.20227 0.91234 0.0
N413 N 0.78055 0.17741 0.88491 0.0
N414 N 0.8165 0.21252 0.88831 0.0
C415 C 0.7768 0.18216 0.90213 0.0
C416 C 0.80048 0.19248 0.87795 0.0
C417 C 0.81302 0.21759 0.90547 0.0
C418 C 0.75478 0.16616 0.90946 0.0
C419 C 0.75274 0.16752 0.92825 0.0
C420 C 0.73175 0.15312 0.93513 0.0
C421 C 0.71229 0.13728 0.92337 0.0
C422 C 0.7143 0.13572 0.90462 0.0
C423 C 0.73538 0.14989 0.89774 0.0
C424 C 0.80469 0.18764 0.85916 0.0
C425 C 0.78803 0.16755 0.8478 0.0
C426 C 0.79206 0.16352 0.82996 0.0
C427 C 0.8128 0.17951 0.82311 0.0
C428 C 0.82952 0.19939 0.83452 0.0
C429 C 0.82553 0.20341 0.85231 0.0
C430 C 0.83035 0.24018 0.91613 0.0
C431 C 0.84791 0.2584 0.90745 0.0
C432 C 0.58227 0.72721 0.07785 0.0
C433 C 0.57881 0.72367 0.05877 0.0
C434 C 0.58179 0.74296 0.04898 0.0
C435 C 0.58782 0.76517 0.05809 0.0
H436 H 0.59517 0.83221 0.05041 0.0
H437 H 0.58653 0.85942 0.03474 0.0
H438 H 0.587 0.8941 0.08655 0.0
H439 H 0.59648 0.8676 0.10215 0.0
H440 H 0.63265 0.86006 0.13516 0.0
H441 H 0.64468 0.86658 0.1678 0.0
H442 H 0.61021 0.78997 0.1709 0.0
H443 H 0.59847 0.78333 0.13835 0.0
H444 H 0.59069 0.75129 0.10165 0.0
H445 H 0.57969 0.71264 0.08586 0.0
H446 H 0.57954 0.74094 0.03427 0.0
H447 H 0.58988 0.77961 0.05013 0.0
N448 N 0.59528 0.8089 0.07807 0.0
N449 N 0.60628 0.8339 0.10531 0.0
N450 N 0.60314 0.79603 0.10515 0.0
C451 C 0.59987 0.82993 0.08715 0.0
C452 C 0.60799 0.81703 0.11438 0.0
C453 C 0.5969 0.79186 0.08698 0.0
C454 C 0.59641 0.84762 0.07755 0.0
C455 C 0.59366 0.84581 0.05846 0.0
C456 C 0.58858 0.86133 0.04946 0.0
C457 C 0.5859 0.87888 0.05935 0.0
C458 C 0.58927 0.88108 0.07845 0.0
C459 C 0.59459 0.86574 0.08743 0.0
C460 C 0.6147 0.82119 0.13418 0.0
C461 C 0.62756 0.84462 0.14283 0.0
C462 C 0.6345 0.84838 0.16145 0.0
C463 C 0.62828 0.82876 0.17178 0.0
C464 C 0.61505 0.80537 0.16322 0.0
C465 C 0.60849 0.80161 0.14458 0.0
C466 C 0.59114 0.76861 0.07719 0.0
C467 C 0.58845 0.7494 0.08694 0.0
C468 C 0.28886 0.86816 0.09601 0.0
C469 C 0.29107 0.86529 0.07741 0.0
C470 C 0.27202 0.84784 0.06602 0.0
C471 C 0.25119 0.83342 0.07309 0.0
H472 H 0.19646 0.76099 0.06818 0.0
H473 H 0.16876 0.72164 0.05319 0.0
H474 H 0.11604 0.72122 0.0841 0.0
H475 H 0.14402 0.76012 0.09965 0.0
H476 H 0.16082 0.7956 0.13639 0.0
H477 H 0.15354 0.80244 0.16739 0.0
H478 H 0.22621 0.84878 0.1818 0.0
H479 H 0.23366 0.84197 0.15066 0.0
H480 H 0.26675 0.85656 0.11747 0.0
H481 H 0.30328 0.8816 0.10506 0.0
H482 H 0.27333 0.84511 0.05165 0.0
H483 H 0.23688 0.82009 0.0639 0.0
N484 N 0.21026 0.80061 0.08909 0.0
N485 N 0.18589 0.79247 0.11232 0.0
N486 N 0.22265 0.82659 0.11592 0.0
C487 C 0.18982 0.78634 0.09563 0.0
C488 C 0.20219 0.8125 0.12257 0.0
C489 C 0.2267 0.82085 0.09909 0.0
C490 C 0.17249 0.76359 0.08522 0.0
C491 C 0.17891 0.7526 0.07166 0.0
C492 C 0.16297 0.73004 0.06299 0.0
C493 C 0.14016 0.71812 0.06751 0.0
C494 C 0.13357 0.7296 0.08057 0.0
C495 C 0.14958 0.75199 0.08942 0.0
C496 C 0.19784 0.81815 0.14107 0.0
C497 C 0.17528 0.80737 0.1461 0.0
C498 C 0.17107 0.8114 0.16383 0.0
C499 C 0.18932 0.8261 0.17697 0.0
C500 C 0.21186 0.83723 0.17193 0.0
C501 C 0.21608 0.83344 0.15409 0.0
C502 C 0.24887 0.83628 0.09169 0.0
C503 C 0.26792 0.8539 0.10307 0.0
C504 C 0.14907 0.42111 0.1029 0.0
C505 C 0.14886 0.42591 0.08464 0.0
C506 C 0.16287 0.42197 0.07325 0.0
C507 C 0.17705 0.41363 0.08006 0.0
H508 H 0.2344 0.4074 0.0692 0.0
H509 H 0.27025 0.41961 0.05552 0.0
H510 H 0.30033 0.41154 0.10568 0.0
H511 H 0.26447 0.39914 0.11944 0.0
H512 H 0.22208 0.35765 0.14357 0.0
H513 H 0.21403 0.33856 0.17197 0.0
H514 H 0.16473 0.36139 0.18063 0.0
H515 H 0.17212 0.37963 0.15219 0.0
H516 H 0.16276 0.40889 0.12381 0.0
H517 H 0.13829 0.42387 0.11191 0.0
H518 H 0.16308 0.42568 0.05913 0.0
H519 H 0.18778 0.41092 0.07098 0.0
N520 N 0.21104 0.4038 0.09711 0.0
N521 N 0.22113 0.38582 0.11982 0.0
N522 N 0.18828 0.38925 0.12129 0.0
C523 C 0.22553 0.39679 0.10417 0.0
C524 C 0.20243 0.38185 0.1284 0.0
C525 C 0.19241 0.40014 0.10564 0.0
C526 C 0.24661 0.40239 0.09543 0.0
C527 C 0.24858 0.40804 0.07729 0.0
C528 C 0.26904 0.41491 0.06941 0.0
C529 C 0.288 0.41658 0.0796 0.0
C530 C 0.28596 0.41054 0.09761 0.0
C531 C 0.26539 0.40331 0.10542 0.0
C532 C 0.1977 0.37012 0.14555 0.0
C533 C 0.20945 0.35848 0.15151 0.0
C534 C 0.20489 0.34759 0.16781 0.0
C535 C 0.1886 0.34824 0.17852 0.0
C536 C 0.17697 0.35997 0.17253 0.0
C537 C 0.18135 0.37064 0.15623 0.0
C538 C 0.17721 0.4087 0.09832 0.0
C539 C 0.16297 0.4124 0.10965 0.0
C540 C 0.3823 0.92604 0.23597 0.0
C541 C 0.37304 0.90666 0.24673 0.0
C542 C 0.38545 0.89505 0.2507 0.0
C543 C 0.40687 0.90289 0.24424 0.0
H544 H 0.46481 0.89841 0.25296 0.0
H545 H 0.48928 0.88364 0.26488 0.0
H546 H 0.54212 0.92886 0.23164 0.0
H547 H 0.51784 0.94398 0.21982 0.0
H548 H 0.51016 0.98393 0.19836 0.0
H549 H 0.52113 0.00586 0.17145 0.0
H550 H 0.44953 0.97767 0.1537 0.0
H551 H 0.43875 0.95692 0.18104 0.0
H552 H 0.4103 0.94876 0.2211 0.0
H553 H 0.37299 0.9352 0.23264 0.0
H554 H 0.37878 0.8802 0.25912 0.0
H555 H 0.41606 0.89364 0.24766 0.0
N556 N 0.45324 0.92345 0.23392 0.0
N557 N 0.48089 0.94618 0.2145 0.0
N558 N 0.44589 0.9457 0.21332 0.0
C559 C 0.47422 0.93109 0.22788 0.0
C560 C 0.46681 0.95351 0.20714 0.0
C561 C 0.43904 0.93077 0.22678 0.0
C562 C 0.4893 0.92242 0.23539 0.0
C563 C 0.48165 0.90529 0.24818 0.0
C564 C 0.49561 0.89667 0.25494 0.0
C565 C 0.51757 0.905 0.24913 0.0
C566 C 0.52533 0.92224 0.23647 0.0
C567 C 0.51135 0.93082 0.22965 0.0
C568 C 0.47359 0.96855 0.19173 0.0
C569 C 0.49681 0.98271 0.1888 0.0
C570 C 0.50308 0.99518 0.17332 0.0
C571 C 0.48624 0.99337 0.16022 0.0
C572 C 0.46304 0.97986 0.16355 0.0
C573 C 0.45681 0.96777 0.17921 0.0
C574 C 0.41622 0.92233 0.23349 0.0
C575 C 0.40361 0.93371 0.22932 0.0
C576 C 0.08325 0.45858 0.25746 0.0
C577 C 0.08697 0.462 0.27655 0.0
C578 C 0.08435 0.48004 0.28571 0.0
C579 C 0.07882 0.49473 0.27601 0.0
H580 H 0.08786 0.56315 0.28071 0.0
H581 H 0.10154 0.60389 0.29398 0.0
H582 H 0.08713 0.62312 0.24187 0.0
H583 H 0.0729 0.58234 0.22868 0.0
H584 H 0.03332 0.53293 0.20075 0.0
H585 H 0.01937 0.52392 0.16858 0.0
H586 H 0.048 0.47756 0.16212 0.0
H587 H 0.06171 0.48619 0.19453 0.0
H588 H 0.07511 0.4702 0.23306 0.0
H589 H 0.0855 0.44517 0.2499 0.0
H590 H 0.08666 0.48291 0.30041 0.0
H591 H 0.07719 0.50863 0.28349 0.0
N592 N 0.07583 0.52959 0.25464 0.0
N593 N 0.06318 0.53847 0.22762 0.0
N594 N 0.06202 0.50164 0.2289 0.0
C595 C 0.07221 0.54507 0.2452 0.0
C596 C 0.05799 0.51681 0.2194 0.0
C597 C 0.07073 0.50785 0.24661 0.0
C598 C 0.07931 0.56942 0.2536 0.0
C599 C 0.08746 0.576 0.27209 0.0
C600 C 0.09545 0.59941 0.27968 0.0
C601 C 0.09556 0.6168 0.26896 0.0
C602 C 0.08704 0.61011 0.25056 0.0
C603 C 0.07895 0.58669 0.24299 0.0
C604 C 0.04864 0.51029 0.20014 0.0
C605 C 0.03653 0.52068 0.19252 0.0
C606 C 0.02843 0.51545 0.17416 0.0
C607 C 0.03262 0.50005 0.16298 0.0
C608 C 0.04461 0.48951 0.17053 0.0
C609 C 0.05233 0.49437 0.18904 0.0
C610 C 0.07548 0.49153 0.25692 0.0
C611 C 0.07742 0.47306 0.24776 0.0
C612 C 0.53173 0.60663 0.2525 0.0
C613 C 0.52989 0.61246 0.27069 0.0
C614 C 0.51283 0.59469 0.28007 0.0
C615 C 0.49763 0.57189 0.27133 0.0
H616 H 0.43578 0.50735 0.27585 0.0
H617 H 0.3986 0.48343 0.28762 0.0
H618 H 0.36821 0.45061 0.23345 0.0
H619 H 0.40538 0.47432 0.22159 0.0
H620 H 0.43891 0.4867 0.18895 0.0
H621 H 0.44634 0.47916 0.15814 0.0
H622 H 0.5193 0.52038 0.1739 0.0
H623 H 0.51181 0.52884 0.2044 0.0
H624 H 0.51847 0.58019 0.22972 0.0
H625 H 0.54435 0.61993 0.24471 0.0
H626 H 0.51115 0.5984 0.29418 0.0
H627 H 0.48451 0.55874 0.27888 0.0
N628 N 0.46215 0.52844 0.25015 0.0
N629 N 0.45003 0.50131 0.22401 0.0
N630 N 0.48641 0.53591 0.22689 0.0
C631 C 0.44588 0.50771 0.24056 0.0
C632 C 0.47039 0.51521 0.2172 0.0
C633 C 0.48242 0.54271 0.24334 0.0
C634 C 0.42353 0.49274 0.24778 0.0
C635 C 0.4212 0.49499 0.26644 0.0
C636 C 0.39998 0.48124 0.27321 0.0
C637 C 0.38062 0.46524 0.26142 0.0
C638 C 0.38289 0.46294 0.24278 0.0
C639 C 0.40419 0.47641 0.23604 0.0
C640 C 0.47478 0.50861 0.19903 0.0
C641 C 0.45652 0.49397 0.18585 0.0
C642 C 0.46081 0.48953 0.1682 0.0
C643 C 0.48345 0.49934 0.16344 0.0
C644 C 0.50166 0.51303 0.17693 0.0
C645 C 0.49737 0.5178 0.19446 0.0
C646 C 0.49933 0.56626 0.25307 0.0
C647 C 0.51676 0.5838 0.24385 0.0
Tb648 Tb 0.52586 0.02528 0.99745 0.0
C649 C 0.51931 0.97559 0.00966 0.0
Tb650 Tb 0.47786 0.98487 0.00501 0.0
O651 O 0.53071 0.04518 0.02397 0.0
O652 O 0.50952 0.00814 0.02005 0.0
O653 O 0.53198 0.99528 0.00142 0.0
C654 C 0.4389 0.9601 0.02038 0.0
O655 O 0.49877 0.96999 0.01477 0.0
C656 C 0.48885 0.9845 0.97162 0.0
C657 C 0.48451 0.03488 0.99333 0.0
O658 O 0.44577 0.95149 0.00744 0.0
O659 O 0.45384 0.98262 0.02451 0.0
O660 O 0.47395 0.96522 0.97842 0.0
O661 O 0.49416 0.00224 0.98263 0.0
O662 O 0.47164 0.01482 0.00112 0.0
O663 O 0.50531 0.04094 0.9886 0.0
C664 C 0.5639 0.0488 0.98074 0.0
O665 O 0.55902 0.05739 0.99503 0.0
O666 O 0.54746 0.02703 0.97599 0.0
C667 C 0.51544 0.02624 0.03095 0.0
Tb668 Tb 0.98407 0.50739 0.99774 0.0
C669 C 0.03178 0.5475 0.01518 0.0
Tb670 Tb 0.01979 0.49314 0.00939 0.0
O671 O 0.98003 0.51405 0.02635 0.0
O672 O 0.98896 0.48863 0.01835 0.0
O673 O 0.01447 0.54262 0.00304 0.0
C674 C 0.04871 0.48392 0.02842 0.0
O675 O 0.03536 0.53046 0.02119 0.0
C676 C 0.01691 0.50001 0.97511 0.0
C677 C 0.97174 0.45261 0.99145 0.0
O678 O 0.05314 0.49538 0.01393 0.0
O679 O 0.02803 0.47765 0.03214 0.0
O680 O 0.02323 0.48536 0.98099 0.0
O681 O 0.01469 0.51146 0.98842 0.0
O682 O 0.99077 0.45746 0.00143 0.0
O683 O 0.96641 0.46928 0.9877 0.0
C684 C 0.95428 0.51609 0.97938 0.0
O685 O 0.96587 0.50719 0.97226 0.0
O686 O 0.95936 0.51996 0.99684 0.0
C687 C 0.98638 0.49933 0.03186 0.0
Tb688 Tb 0.47602 0.49805 0.00677 0.0
C689 C 0.48514 0.45474 0.99588 0.0
Tb690 Tb 0.52449 0.50876 0.99894 0.0
O691 O 0.4712 0.51046 0.9806 0.0
O692 O 0.49247 0.49598 0.98414 0.0
O693 O 0.47094 0.4617 0.00194 0.0
C694 C 0.56247 0.52246 0.98224 0.0
O695 O 0.50648 0.47011 0.99248 0.0
C696 C 0.51374 0.49929 0.03208 0.0
C697 C 0.51563 0.55156 0.01034 0.0
O698 O 0.56157 0.5229 -0.00025 0.0
O699 O 0.5421 0.51438 0.97427 0.0
O700 O 0.5287 0.49527 0.02465 0.0
O701 O 0.50785 0.51046 0.02172 0.0
O702 O 0.52815 0.54468 0.00119 0.0
O703 O 0.49607 0.53587 0.01657 0.0
C704 C 0.43706 0.48175 0.02249 0.0
O705 O 0.44329 0.49656 0.00995 0.0
O706 O 0.45271 0.47613 0.02608 0.0
C707 C 0.48638 0.5066 0.97346 0.0
Tb708 Tb 0.19216 0.3544 0.33288 0.0
C709 C 0.18292 0.30264 0.34303 0.0
Tb710 Tb 0.14342 0.31495 0.33946 0.0
O711 O 0.1969 0.37368 0.3596 0.0
O712 O 0.17511 0.33671 0.355 0.0
O713 O 0.19701 0.32355 0.33673 0.0
C714 C 0.10375 0.29052 0.35398 0.0
O715 O 0.16173 0.29643 0.34677 0.0
C716 C 0.15536 0.31504 0.30645 0.0
C717 C 0.15251 0.36639 0.3295 0.0
O718 O 0.10705 0.28718 0.33719 0.0
O719 O 0.1227 0.30751 0.36248 0.0
O720 O 0.14058 0.29554 0.31314 0.0
O721 O 0.16057 0.3328 0.31747 0.0
O722 O 0.13923 0.34648 0.33727 0.0
O723 O 0.17288 0.37147 0.32434 0.0
C724 C 0.23077 0.37761 0.31684 0.0
O725 O 0.22591 0.38601 0.33124 0.0
O726 O 0.214 0.35616 0.3116 0.0
C727 C 0.18137 0.3546 0.36624 0.0
Tb728 Tb 0.64787 0.83958 0.32592 0.0
C729 C 0.69684 0.88027 0.34191 0.0
Tb730 Tb 0.68372 0.82522 0.33653 0.0
O731 O 0.64569 0.84769 0.35456 0.0
O732 O 0.65354 0.82125 0.34662 0.0
O733 O 0.67786 0.87522 0.33174 0.0
C734 C 0.71375 0.81647 0.35451 0.0
O735 O 0.7018 0.86348 0.3462 0.0
C736 C 0.67993 0.83243 0.30236 0.0
C737 C 0.63474 0.7846 0.32103 0.0
O738 O 0.70041 0.82286 0.36192 0.0
O739 O 0.7103 0.81517 0.33697 0.0
O740 O 0.68621 0.81759 0.3078 0.0
O741 O 0.67818 0.84375 0.31595 0.0
O742 O 0.65332 0.78978 0.33178 0.0
O743 O 0.63024 0.80139 0.31585 0.0
C744 C 0.6177 0.84849 0.30837 0.0
O745 O 0.63244 0.84438 0.30085 0.0
O746 O 0.61981 0.8474 0.32576 0.0
C747 C 0.65198 0.83291 0.3601 0.0
Tb748 Tb 0.14412 0.82417 0.33981 0.0
C749 C 0.15536 0.78693 0.32195 0.0
Tb750 Tb 0.19276 0.84292 0.3277 0.0
O751 O 0.12998 0.81418 0.31132 0.0
O752 O 0.16285 0.84331 0.31859 0.0
O753 O 0.14233 0.79014 0.33328 0.0
C754 C 0.22929 0.85512 0.30932 0.0
O755 O 0.17439 0.80503 0.3167 0.0
C756 C 0.18828 0.83659 0.36218 0.0
C757 C 0.18168 0.87996 0.34628 0.0
O758 O 0.21136 0.85627 0.30376 0.0
O759 O 0.22665 0.84706 0.32522 0.0
O760 O 0.20703 0.85285 0.35617 0.0
O761 O 0.1741 0.82394 0.34892 0.0
O762 O 0.19465 0.877 0.33472 0.0
O763 O 0.16261 0.86174 0.35132 0.0
C764 C 0.10741 0.8123 0.35791 0.0
O765 O 0.11057 0.82093 0.34221 0.0
O766 O 0.12491 0.81035 0.36342 0.0
C767 C 0.14866 0.83057 0.30536 0.0
Tb768 Tb 0.85961 0.68078 0.66266 0.0
C769 C 0.85162 0.63494 0.68032 0.0
Tb770 Tb 0.81077 0.64521 0.67241 0.0
O771 O 0.87146 0.69211 0.69158 0.0
O772 O 0.83765 0.67972 0.68216 0.0
O773 O 0.86342 0.65021 0.66844 0.0
C774 C 0.77461 0.62024 0.69081 0.0
O775 O 0.832 0.63234 0.68545 0.0
C776 C 0.81848 0.6403 0.63865 0.0
C777 C 0.81844 0.69101 0.65379 0.0
O778 O 0.78098 0.61119 0.67778 0.0
O779 O 0.7885 0.64323 0.69334 0.0
O780 O 0.79824 0.63403 0.64373 0.0
O781 O 0.83251 0.64638 0.65253 0.0
O782 O 0.80429 0.67257 0.66254 0.0
O783 O 0.8401 0.69695 0.65199 0.0
C784 C 0.89638 0.70841 0.64552 0.0
O785 O 0.87547 0.69632 0.63809 0.0
O786 O 0.89662 0.70497 0.66262 0.0
C787 C 0.85118 0.686 0.69627 0.0
Tb788 Tb 0.31866 0.17701 0.66352 0.0
C789 C 0.36498 0.21439 0.68533 0.0
Tb790 Tb 0.3538 0.16108 0.67434 0.0
O791 O 0.31263 0.18173 0.6919 0.0
O792 O 0.32365 0.15792 0.68396 0.0
O793 O 0.34817 0.2115 0.67343 0.0
C794 C 0.38214 0.14891 0.6908 0.0
O795 O 0.36821 0.19642 0.6895 0.0
C796 C 0.35213 0.17075 0.6405 0.0
C797 C 0.30628 0.12309 0.65426 0.0
O798 O 0.38823 0.16975 0.68511 0.0
O799 O 0.36019 0.13502 0.68731 0.0
O800 O 0.35906 0.15635 0.64569 0.0
O801 O 0.34916 0.18062 0.65431 0.0
O802 O 0.32345 0.12654 0.666 0.0
O803 O 0.30302 0.14087 0.64966 0.0
C804 C 0.29142 0.18911 0.64525 0.0
O805 O 0.28503 0.17349 0.65718 0.0
O806 O 0.31313 0.19796 0.64368 0.0
C807 C 0.32015 0.16793 0.6975 0.0
Tb808 Tb 0.80546 0.15437 0.66673 0.0
C809 C 0.81635 0.11344 0.65329 0.0
Tb810 Tb 0.85682 0.16797 0.66016 0.0
O811 O 0.80255 0.16951 0.6413 0.0
O812 O 0.82521 0.157 0.64504 0.0
O813 O 0.80121 0.11898 0.65946 0.0
C814 C 0.89419 0.18209 0.6428 0.0
O815 O 0.83806 0.12961 0.65121 0.0
C816 C 0.848 0.16264 0.69458 0.0
C817 C 0.84602 0.2071 0.6767 0.0
O818 O 0.8871 0.16581 0.6543 0.0
O819 O 0.8803 0.1905 0.64121 0.0
O820 O 0.86813 0.16875 0.68924 0.0
O821 O 0.83544 0.15991 0.68062 0.0
O822 O 0.85909 0.2028 0.66602 0.0
O823 O 0.82597 0.18988 0.68122 0.0
C824 C 0.76496 0.13579 0.68035 0.0
O825 O 0.77407 0.15499 0.67173 0.0
O826 O 0.77855 0.12703 0.68114 0.0
C827 C 0.81951 0.16831 0.63481 0.0
C828 C 0.31385 0.89121 0.05384 0.0
C829 C 0.31322 0.88027 0.06983 0.0
C830 C 0.33454 0.90476 0.04613 0.0
C831 C 0.35502 0.90719 0.05451 0.0
C832 C 0.35453 0.89637 0.07075 0.0
C833 C 0.33361 0.88312 0.07828 0.0
C834 C 0.33445 0.91633 0.02894 0.0
C835 C 0.376 0.89838 0.07997 0.0
C836 C 0.40331 0.92185 0.02447 0.0
C837 C 0.41765 0.9465 0.02923 0.0
C838 C 0.383 0.90875 0.0328 0.0
C839 C 0.37688 0.9207 0.04606 0.0
C840 C 0.39142 0.9456 0.05096 0.0
C841 C 0.41172 0.9582 0.04253 0.0
C842 C 0.36803 0.88216 0.02735 0.0
C843 C 0.38541 0.95898 0.06496 0.0
H844 H 0.29812 0.88923 0.04741 0.0
H845 H 0.3331 0.87448 0.09055 0.0
H846 H 0.34665 0.93595 0.03108 0.0
H847 H 0.34026 0.909 0.01784 0.0
H848 H 0.31719 0.91334 0.02445 0.0
H849 H 0.37277 0.88931 0.09271 0.0
H850 H 0.38312 0.89026 0.07063 0.0
H851 H 0.38928 0.91754 0.08323 0.0
H852 H 0.40798 0.91279 0.01424 0.0
H853 H 0.42288 0.97728 0.04625 0.0
H854 H 0.35092 0.87823 0.02146 0.0
H855 H 0.36532 0.87203 0.0395 0.0
H856 H 0.37558 0.87545 0.01723 0.0
H857 H 0.36885 0.95763 0.06039 0.0
H858 H 0.39874 0.97827 0.06743 0.0
H859 H 0.38319 0.95075 0.07802 0.0
C860 C 0.13463 0.455 0.08648 0.0
C861 C 0.13406 0.43501 0.07746 0.0
C862 C 0.12107 0.46414 0.07955 0.0
C863 C 0.10636 0.45273 0.0634 0.0
C864 C 0.10545 0.43226 0.05444 0.0
C865 C 0.11948 0.42378 0.06151 0.0
C866 C 0.12277 0.48623 0.08929 0.0
C867 C 0.08968 0.41936 0.03736 0.0
C868 C 0.05604 0.46206 0.05215 0.0
C869 C 0.06406 0.47753 0.03836 0.0
C870 C 0.06984 0.45425 0.06077 0.0
C871 C 0.09223 0.46238 0.05558 0.0
C872 C 0.10071 0.4788 0.04216 0.0
C873 C 0.08643 0.48606 0.03361 0.0
C874 C 0.06014 0.43663 0.07493 0.0
C875 C 0.12465 0.48821 0.03651 0.0
H876 H 0.14607 0.46378 0.09876 0.0
H877 H 0.11889 0.40816 0.05465 0.0
H878 H 0.12875 0.50086 0.08014 0.0
H879 H 0.10563 0.48238 0.09297 0.0
H880 H 0.13476 0.49273 0.10186 0.0
H881 H 0.09042 0.4032 0.03244 0.0
H882 H 0.07173 0.41377 0.03989 0.0
H883 H 0.09439 0.43165 0.02643 0.0
H884 H 0.03873 0.45553 0.05587 0.0
H885 H 0.09266 0.49817 0.02302 0.0
H886 H 0.07185 0.44338 0.08762 0.0
H887 H 0.05861 0.41932 0.06994 0.0
H888 H 0.04296 0.43324 0.0782 0.0
H889 H 0.13736 0.49586 0.04863 0.0
H890 H 0.12922 0.50224 0.02691 0.0
H891 H 0.1261 0.47325 0.02987 0.0
C892 C 0.55455 0.69025 0.03447 0.0
C893 C 0.5714 0.69967 0.04928 0.0
C894 C 0.54608 0.66684 0.02638 0.0
C895 C 0.55448 0.65243 0.0334 0.0
C896 C 0.57202 0.66208 0.04794 0.0
C897 C 0.58038 0.68562 0.05561 0.0
C898 C 0.52753 0.65723 0.01077 0.0
C899 C 0.58137 0.64723 0.05586 0.0
C900 C 0.51539 0.58487 0.02894 0.0
C901 C 0.52483 0.57747 0.01533 0.0
C902 C 0.5247 0.60924 0.03472 0.0
C903 C 0.54376 0.62669 0.02656 0.0
C904 C 0.55298 0.61943 0.01246 0.0
C905 C 0.54349 0.59486 0.00708 0.0
C906 C 0.51451 0.61625 0.04993 0.0
C907 C 0.57309 0.63758 0.00327 0.0
H908 H 0.54735 0.70085 0.02958 0.0
H909 H 0.59374 0.69292 0.06678 0.0
H910 H 0.53209 0.64901 -0.00064 0.0
H911 H 0.51124 0.64295 0.01523 0.0
H912 H 0.52456 0.67144 0.0057 0.0
H913 H 0.59581 0.65779 0.06651 0.0
H914 H 0.56754 0.63182 0.06194 0.0
H915 H 0.58737 0.63976 0.04501 0.0
H916 H 0.50103 0.57158 0.03545 0.0
H917 H 0.55077 0.58929 0.99647 0.0
H918 H 0.50924 0.62906 0.04546 0.0
H919 H 0.52761 0.62546 0.06171 0.0
H920 H 0.49937 0.60051 0.05455 0.0
H921 H 0.56932 0.65117 0.99804 0.0
H922 H 0.57736 0.62911 0.99181 0.0
H923 H 0.58839 0.64726 0.01328 0.0
C924 C 0.87173 0.31871 0.95867 0.0
C925 C 0.87913 0.3079 0.9458 0.0
C926 C 0.88677 0.34179 0.9672 0.0
C927 C 0.90964 0.35447 0.96256 0.0
C928 C 0.91738 0.34349 0.94992 0.0
C929 C 0.9021 0.32026 0.94183 0.0
C930 C 0.878 0.35285 0.98081 0.0
C931 C 0.94163 0.35652 0.94455 0.0
C932 C 0.94082 0.4225 0.96865 0.0
C933 C 0.95558 0.4275 0.98437 0.0
C934 C 0.92579 0.39879 0.96141 0.0
C935 C 0.92523 0.37964 0.97031 0.0
C936 C 0.93986 0.38458 0.98634 0.0
C937 C 0.95505 0.4085 0.99309 0.0
C938 C 0.91076 0.39424 0.94409 0.0
C939 C 0.93946 0.3646 0.99634 0.0
H940 H 0.85398 0.30946 0.96169 0.0
H941 H 0.90811 0.31187 0.9322 0.0
H942 H 0.88948 0.35944 0.99364 0.0
H943 H 0.87803 0.36856 0.9754 0.0
H944 H 0.86032 0.33995 0.98396 0.0
H945 H 0.9451 0.34523 0.93483 0.0
H946 H 0.9448 0.37296 0.93817 0.0
H947 H 0.95406 0.36232 0.95676 0.0
H948 H 0.94137 0.43718 0.96177 0.0
H949 H 0.96635 0.41233 0.00532 0.0
H950 H 0.89244 0.3831 0.94648 0.0
H951 H 0.91439 0.38407 0.93348 0.0
H952 H 0.91343 0.41115 0.93878 0.0
H953 H 0.92186 0.35239 -0.0 0.0
H954 H 0.9514 0.37147 0.00894 0.0
H955 H 0.94424 0.35374 0.9874 0.0
C956 C 0.66843 0.53405 0.93264 0.0
C957 C 0.68196 0.5568 0.92663 0.0
C958 C 0.64886 0.52868 0.94155 0.0
C959 C 0.64271 0.54651 0.94455 0.0
C960 C 0.6562 0.56946 0.9384 0.0
C961 C 0.67567 0.57433 0.92947 0.0
C962 C 0.63471 0.5039 0.94772 0.0
C963 C 0.65019 0.58893 0.94142 0.0
C964 C 0.58117 0.52577 0.95369 0.0
C965 C 0.5831 0.52928 0.97269 0.0
C966 C 0.60047 0.53145 0.94431 0.0
C967 C 0.62221 0.5411 0.95422 0.0
C968 C 0.62427 0.545 0.97343 0.0
C969 C 0.60462 0.53894 0.98246 0.0
C970 C 0.59756 0.52702 0.92382 0.0
C971 C 0.64718 0.55531 0.98443 0.0
H972 H 0.67305 0.52034 0.93023 0.0
H973 H 0.68623 0.59201 0.92501 0.0
H974 H 0.63397 0.50518 0.96266 0.0
H975 H 0.61685 0.49539 0.94133 0.0
H976 H 0.64175 0.49202 0.94424 0.0
H977 H 0.66239 0.60579 0.93572 0.0
H978 H 0.63266 0.58272 0.93504 0.0
H979 H 0.65015 0.59293 0.95619 0.0
H980 H 0.56449 0.51828 0.94613 0.0
H981 H 0.60607 0.54169 0.99717 0.0
H982 H 0.60559 0.51647 0.9193 0.0
H983 H 0.60635 0.54443 0.91781 0.0
H984 H 0.57924 0.51724 0.91834 0.0
H985 H 0.65425 0.54318 0.98233 0.0
H986 H 0.64596 0.5579 -0.00079 0.0
H987 H 0.65958 0.57287 0.97978 0.0
C988 C 0.41589 0.09033 0.9449 0.0
C989 C 0.42385 0.11427 0.9514 0.0
C990 C 0.42481 0.07701 0.95273 0.0
C991 C 0.44188 0.08777 0.9676 0.0
C992 C 0.44929 0.11154 0.97473 0.0
C993 C 0.44034 0.12456 0.96647 0.0
C994 C 0.41658 0.05173 0.94467 0.0
C995 C 0.46732 0.12355 0.99068 0.0
C996 C 0.45455 0.04684 0.99501 0.0
C997 C 0.4742 0.0493 0.98759 0.0
C998 C 0.44401 0.05956 0.98887 0.0
C999 C 0.45317 0.07478 0.97481 0.0
C1000 C 0.47309 0.07744 0.96736 0.0
C1001 C 0.48346 0.06481 0.97394 0.0
C1002 C 0.423 0.0566 0.99732 0.0
C1003 C 0.48323 0.09326 0.95219 0.0
H1004 H 0.40286 0.08206 0.9335 0.0
H1005 H 0.44689 0.14313 0.97147 0.0
H1006 H 0.431 0.05079 0.93895 0.0
H1007 H 0.41057 0.03911 0.95537 0.0
H1008 H 0.40241 0.04557 0.9337 0.0
H1009 H 0.46958 0.14121 0.99571 0.0
H1010 H 0.46269 0.11188 0.00203 0.0
H1011 H 0.484 0.12637 0.98664 0.0
H1012 H 0.44736 0.03494 0.00561 0.0
H1013 H 0.49851 0.06665 0.96799 0.0
H1014 H 0.40816 0.04887 0.98685 0.0
H1015 H 0.42586 0.07438 0.00268 0.0
H1016 H 0.41851 0.04475 0.00857 0.0
H1017 H 0.47034 0.08698 0.94023 0.0
H1018 H 0.49879 0.09336 0.94789 0.0
H1019 H 0.48785 0.11197 0.95656 0.0
C1020 C 0.68806 0.11001 0.94571 0.0
C1021 C 0.68984 0.12291 0.93067 0.0
C1022 C 0.66711 0.09716 0.95325 0.0
C1023 C 0.64759 0.09755 0.9457 0.0
C1024 C 0.64923 0.11032 0.93036 0.0
C1025 C 0.67034 0.12275 0.92295 0.0
C1026 C 0.66592 0.08338 0.96942 0.0
C1027 C 0.62886 0.1114 0.92209 0.0
C1028 C 0.5889 0.04952 0.95699 0.0
C1029 C 0.58494 0.06148 0.97148 0.0
C1030 C 0.60918 0.06107 0.94837 0.0
C1031 C 0.62568 0.08522 0.95427 0.0
C1032 C 0.6215 0.09751 0.96866 0.0
C1033 C 0.60118 0.08542 0.97717 0.0
C1034 C 0.61306 0.04734 0.93312 0.0
C1035 C 0.63857 0.12337 0.97516 0.0
H1036 H 0.70309 0.10994 0.95157 0.0
H1037 H 0.67177 0.13293 0.91141 0.0
H1038 H 0.66147 0.09091 0.98133 0.0
H1039 H 0.6522 0.06433 0.96646 0.0
H1040 H 0.68238 0.08401 0.97313 0.0
H1041 H 0.63282 0.12153 0.90985 0.0
H1042 H 0.61425 0.093 0.91824 0.0
H1043 H 0.6232 0.12015 0.93225 0.0
H1044 H 0.57625 0.031 0.95252 0.0
H1045 H 0.59804 0.09469 0.98832 0.0
H1046 H 0.62932 0.04739 0.93637 0.0
H1047 H 0.61475 0.05622 0.92041 0.0
H1048 H 0.59885 0.02843 0.93058 0.0
H1049 H 0.65499 0.12498 0.98049 0.0
H1050 H 0.63231 0.1306 0.98603 0.0
H1051 H 0.64225 0.13469 0.96364 0.0
C1052 C 0.88552 0.56742 0.92496 0.0
C1053 C 0.86189 0.55091 0.92278 0.0
C1054 C 0.90094 0.5615 0.93334 0.0
C1055 C 0.89251 0.53852 0.93966 0.0
C1056 C 0.86875 0.52158 0.93712 0.0
C1057 C 0.85372 0.528 0.92872 0.0
C1058 C 0.92617 0.58005 0.93587 0.0
C1059 C 0.85915 0.49685 0.94359 0.0
C1060 C 0.93421 0.51655 0.95031 0.0
C1061 C 0.93836 0.52153 0.96923 0.0
C1062 C 0.91932 0.52199 0.94044 0.0
C1063 C 0.90837 0.53262 0.94979 0.0
C1064 C 0.91251 0.53763 0.96893 0.0
C1065 C 0.92748 0.532 0.97843 0.0
C1066 C 0.91535 0.51639 0.92004 0.0
C1067 C 0.90116 0.54898 0.97937 0.0
H1068 H 0.89189 0.58523 0.92055 0.0
H1069 H 0.83551 0.51506 0.92679 0.0
H1070 H 0.93188 0.585 0.95059 0.0
H1071 H 0.93635 0.57253 0.93012 0.0
H1072 H 0.93009 0.5966 0.92932 0.0
H1073 H 0.8404 0.48542 0.93982 0.0
H1074 H 0.86791 0.48773 0.93774 0.0
H1075 H 0.8624 0.49837 0.95859 0.0
H1076 H 0.94263 0.50841 0.94324 0.0
H1077 H 0.93073 0.53587 0.99307 0.0
H1078 H 0.92045 0.5331 0.91336 0.0
H1079 H 0.89684 0.50402 0.91596 0.0
H1080 H 0.92515 0.50804 0.91488 0.0
H1081 H 0.90574 0.5666 0.97439 0.0
H1082 H 0.90626 0.55175 0.99422 0.0
H1083 H 0.88224 0.53747 0.97708 0.0
C1084 C 0.4361 0.31343 0.97056 0.0
C1085 C 0.43443 0.30966 0.95153 0.0
C1086 C 0.44412 0.33644 0.9793 0.0
C1087 C 0.45033 0.35607 0.96876 0.0
C1088 C 0.44845 0.35237 0.94957 0.0
C1089 C 0.44072 0.32928 0.94121 0.0
C1090 C 0.44611 0.33978 -0.00019 0.0
C1091 C 0.45477 0.37285 0.93784 0.0
C1092 C 0.45241 0.41295 0.9879 0.0
C1093 C 0.47612 0.42888 0.99091 0.0
C1094 C 0.44371 0.38894 0.98119 0.0
C1095 C 0.45909 0.38063 0.97768 0.0
C1096 C 0.48299 0.39632 0.98152 0.0
C1097 C 0.49123 0.42031 0.98798 0.0
C1098 C 0.41812 0.3728 0.97708 0.0
C1099 C 0.49991 0.388 0.97823 0.0
H1100 H 0.43099 0.29836 0.97865 0.0
H1101 H 0.43993 0.32669 0.92654 0.0
H1102 H 0.4641 0.35287 0.00504 0.0
H1103 H 0.43536 0.34727 0.00432 0.0
H1104 H 0.44074 0.32269 0.00604 0.0
H1105 H 0.45156 0.3668 0.92309 0.0
H1106 H 0.44478 0.3818 0.9409 0.0
H1107 H 0.47319 0.3865 0.94091 0.0
H1108 H 0.44062 0.41944 0.99008 0.0
H1109 H 0.50957 0.43247 0.99045 0.0
H1110 H 0.41217 0.35587 0.98362 0.0
H1111 H 0.41393 0.36791 0.9622 0.0
H1112 H 0.40842 0.38149 0.98177 0.0
H1113 H 0.49514 0.37132 0.98486 0.0
H1114 H 0.51774 0.40179 0.98341 0.0
H1115 H 0.49951 0.38374 0.96344 0.0
C1116 C 0.12382 0.68667 0.04088 0.0
C1117 C 0.12357 0.69341 0.05918 0.0
C1118 C 0.10898 0.66309 0.03316 0.0
C1119 C 0.09325 0.64595 0.04393 0.0
C1120 C 0.09256 0.65271 0.06229 0.0
C1121 C 0.10785 0.67628 0.06973 0.0
C1122 C 0.11031 0.65645 0.01356 0.0
C1123 C 0.07585 0.63497 0.07415 0.0
C1124 C 0.04127 0.59017 0.02033 0.0
C1125 C 0.04773 0.57277 0.02214 0.0
C1126 C 0.05594 0.6141 0.02733 0.0
C1127 C 0.07771 0.62081 0.0361 0.0
C1128 C 0.08447 0.6034 0.03773 0.0
C1129 C 0.06931 0.57952 0.03086 0.0
C1130 C 0.048 0.6321 0.02562 0.0
C1131 C 0.10769 0.60998 0.04678 0.0
H1132 H 0.13563 0.69983 0.03253 0.0
H1133 H 0.10777 0.68113 0.08397 0.0
H1134 H 0.11434 0.64174 0.01271 0.0
H1135 H 0.09347 0.64969 0.00567 0.0
H1136 H 0.12355 0.67188 0.00705 0.0
H1137 H 0.07681 0.64338 0.08791 0.0
H1138 H 0.05806 0.62696 0.06768 0.0
H1139 H 0.07939 0.62007 0.07562 0.0
H1140 H 0.02454 0.58502 0.01373 0.0
H1141 H 0.07445 0.56618 0.03222 0.0
H1142 H 0.06021 0.64724 0.01831 0.0
H1143 H 0.04766 0.6397 0.03934 0.0
H1144 H 0.03064 0.62401 0.01827 0.0
H1145 H 0.12143 0.62461 0.04001 0.0
H1146 H 0.11063 0.59448 0.04639 0.0
H1147 H 0.1093 0.61681 0.06119 0.0
C1148 C 0.31102 0.41573 0.05454 0.0
C1149 C 0.31013 0.42551 0.07164 0.0
C1150 C 0.33182 0.42453 0.04665 0.0
C1151 C 0.35206 0.44384 0.05597 0.0
C1152 C 0.35124 0.45376 0.07326 0.0
C1153 C 0.33027 0.44434 0.08096 0.0
C1154 C 0.33213 0.41323 0.02834 0.0
C1155 C 0.37242 0.47459 0.08348 0.0
C1156 C 0.40971 0.45437 0.04299 0.0
C1157 C 0.41553 0.47239 0.03118 0.0
C1158 C 0.38905 0.44483 0.05113 0.0
C1159 C 0.37407 0.45383 0.04754 0.0
C1160 C 0.38006 0.47232 0.03582 0.0
C1161 C 0.40071 0.48128 0.02766 0.0
C1162 C 0.38314 0.42498 0.06341 0.0
C1163 C 0.36468 0.48261 0.03191 0.0
H1164 H 0.29543 0.40105 0.04742 0.0
H1165 H 0.3295 0.45207 0.0941 0.0
H1166 H 0.33783 0.42679 0.01831 0.0
H1167 H 0.34461 0.4068 0.02926 0.0
H1168 H 0.31503 0.39787 0.02315 0.0
H1169 H 0.36887 0.48016 0.09682 0.0
H1170 H 0.3859 0.46974 0.08581 0.0
H1171 H 0.37945 0.4902 0.07524 0.0
H1172 H 0.42122 0.44751 0.04572 0.0
H1173 H 0.4053 0.49532 0.01859 0.0
H1174 H 0.36674 0.40882 0.05799 0.0
H1175 H 0.38066 0.43059 0.07714 0.0
H1176 H 0.39666 0.41999 0.06477 0.0
H1177 H 0.34778 0.46831 0.02538 0.0
H1178 H 0.37213 0.49735 0.02286 0.0
H1179 H 0.36155 0.48963 0.04481 0.0
C1180 C 0.58694 0.91802 0.05646 0.0
C1181 C 0.57839 0.89397 0.04994 0.0
C1182 C 0.5783 0.93171 0.04885 0.0
C1183 C 0.56094 0.92122 0.03418 0.0
C1184 C 0.55298 0.89734 0.02698 0.0
C1185 C 0.56167 0.88395 0.03503 0.0
C1186 C 0.58714 0.9571 0.05697 0.0
C1187 C 0.53464 0.88561 0.01123 0.0
C1188 C 0.5203 0.9455 0.02893 0.0
C1189 C 0.52947 0.96097 0.01525 0.0
C1190 C 0.53037 0.93243 0.03515 0.0
C1191 C 0.5499 0.93461 0.02731 0.0
C1192 C 0.55898 0.94981 0.01322 0.0
C1193 C 0.54875 0.96297 0.00744 0.0
C1194 C 0.52033 0.91663 0.05035 0.0
C1195 C 0.57958 0.95227 0.00436 0.0
H1196 H 0.60017 0.92609 0.06773 0.0
H1197 H 0.55471 0.86531 0.03001 0.0
H1198 H 0.59306 0.96969 0.04624 0.0
H1199 H 0.57305 0.95839 0.063 0.0
H1200 H 0.60152 0.96303 0.0677 0.0
H1201 H 0.532 0.86784 0.00606 0.0
H1202 H 0.51816 0.88308 0.01556 0.0
H1203 H 0.53919 0.89731 -9e-05 0.0
H1204 H 0.50551 0.94398 0.03514 0.0
H1205 H 0.55584 0.9748 0.99679 0.0
H1206 H 0.53342 0.92266 0.06215 0.0
H1207 H 0.5153 0.89783 0.04586 0.0
H1208 H 0.50505 0.91688 0.05495 0.0
H1209 H 0.59462 0.95969 0.01462 0.0
H1210 H 0.58403 0.96417 0.99315 0.0
H1211 H 0.57623 0.93436 0.99885 0.0
C1212 C 0.98327 0.23562 0.39629 0.0
C1213 C 0.97603 0.21231 0.40098 0.0
C1214 C 0.00431 0.249 0.38896 0.0
C1215 C 0.01848 0.23887 0.38649 0.0
C1216 C 0.01147 0.21554 0.3916 0.0
C1217 C 0.99026 0.20249 0.3987 0.0
C1218 C 0.01115 0.27375 0.38351 0.0
C1219 C 0.02626 0.20428 0.3894 0.0
C1220 C 0.06166 0.26184 0.35133 0.0
C1221 C 0.08198 0.27733 0.36221 0.0
C1222 C 0.04079 0.24942 0.35906 0.0
C1223 C 0.04039 0.25239 0.37812 0.0
C1224 C 0.06095 0.26797 0.38917 0.0
C1225 C 0.08151 0.28039 0.38104 0.0
C1226 C 0.01916 0.23312 0.34683 0.0
C1227 C 0.06126 0.27139 0.40955 0.0
H1228 H 0.97219 0.24314 0.39791 0.0
H1229 H 0.9848 0.18457 0.40255 0.0
H1230 H 0.02807 0.28716 0.3906 0.0
H1231 H 0.01296 0.27419 0.3687 0.0
H1232 H 0.99843 0.27922 0.38669 0.0
H1233 H 0.01869 0.18633 0.39467 0.0
H1234 H 0.02864 0.20228 0.37482 0.0
H1235 H 0.04351 0.21609 0.39666 0.0
H1236 H 0.06205 0.25957 0.33675 0.0
H1237 H 0.09729 0.29236 0.38946 0.0
H1238 H 0.00625 0.23874 0.34864 0.0
H1239 H 0.0116 0.21443 0.3506 0.0
H1240 H 0.02233 0.23325 0.33225 0.0
H1241 H 0.04964 0.27821 0.41301 0.0
H1242 H 0.07872 0.28414 0.41618 0.0
H1243 H 0.05485 0.25388 0.41534 0.0
C1244 C 0.81508 0.80699 0.40674 0.0
C1245 C 0.8077 0.78356 0.41124 0.0
C1246 C 0.7998 0.81279 0.39793 0.0
C1247 C 0.77665 0.79468 0.39338 0.0
C1248 C 0.76907 0.77102 0.39798 0.0
C1249 C 0.78467 0.76576 0.40691 0.0
C1250 C 0.80845 0.83827 0.39339 0.0
C1251 C 0.74453 0.7512 0.39327 0.0
C1252 C 0.73195 0.81292 0.38346 0.0
C1253 C 0.72987 0.81104 0.36443 0.0
C1254 C 0.74714 0.80767 0.39311 0.0
C1255 C 0.76047 0.80033 0.38343 0.0
C1256 C 0.75829 0.79828 0.36418 0.0
C1257 C 0.74303 0.80373 0.3549 0.0
C1258 C 0.74903 0.81018 0.41363 0.0
C1259 C 0.77202 0.79024 0.35338 0.0
H1260 H 0.83281 0.82085 0.41026 0.0
H1261 H 0.77896 0.74757 0.41021 0.0
H1262 H 0.80627 0.83866 0.37847 0.0
H1263 H 0.79822 0.84542 0.39964 0.0
H1264 H 0.82682 0.85036 0.39823 0.0
H1265 H 0.7413 0.73385 0.39807 0.0
H1266 H 0.73269 0.7562 0.39942 0.0
H1267 H 0.7403 0.74864 0.37832 0.0
H1268 H 0.72166 0.81846 0.3908 0.0
H1269 H 0.74134 0.80219 0.34016 0.0
H1270 H 0.76636 0.825 0.41889 0.0
H1271 H 0.74689 0.79353 0.419 0.0
H1272 H 0.73606 0.81403 0.41904 0.0
H1273 H 0.79062 0.80276 0.35692 0.0
H1274 H 0.76817 0.78938 0.33848 0.0
H1275 H 0.76833 0.77222 0.35688 0.0
C1276 C 0.20764 0.01054 0.38311 0.0
C1277 C 0.2278 0.02259 0.39495 0.0
C1278 C 0.19987 0.98726 0.37511 0.0
C1279 C 0.21248 0.97569 0.37912 0.0
C1280 C 0.23278 0.98767 0.39111 0.0
C1281 C 0.24025 0.01101 0.39883 0.0
C1282 C 0.17813 0.97503 0.36238 0.0
C1283 C 0.24666 0.97585 0.39572 0.0
C1284 C 0.18158 0.90772 0.37103 0.0
C1285 C 0.18918 0.90442 0.35443 0.0
C1286 C 0.18917 0.93083 0.37931 0.0
C1287 C 0.2045 0.95108 0.37065 0.0
C1288 C 0.21214 0.94785 0.35384 0.0
C1289 C 0.20451 0.92453 0.34599 0.0
C1290 C 0.18094 0.93355 0.39739 0.0
C1291 C 0.22837 0.96903 0.34416 0.0
H1292 H 0.19772 0.0192 0.38028 0.0
H1293 H 0.25599 0.02032 0.40778 0.0
H1294 H 0.18174 0.97002 0.34888 0.0
H1295 H 0.16532 0.95819 0.36771 0.0
H1296 H 0.17044 0.98659 0.36054 0.0
H1297 H 0.26177 0.98741 0.4056 0.0
H1298 H 0.23577 0.95864 0.40155 0.0
H1299 H 0.25273 0.97157 0.3832 0.0
H1300 H 0.17001 0.89223 0.37776 0.0
H1301 H 0.21041 0.92205 0.33315 0.0
H1302 H 0.17195 0.94393 0.39622 0.0
H1303 H 0.19582 0.94376 0.40772 0.0
H1304 H 0.16912 0.91595 0.40235 0.0
H1305 H 0.22065 0.98033 0.34128 0.0
H1306 H 0.23258 0.96344 0.33113 0.0
H1307 H 0.24454 0.98041 0.35298 0.0
C1308 C 0.56832 0.65019 0.27582 0.0
C1309 C 0.54528 0.6372 0.27954 0.0
C1310 C 0.58262 0.67407 0.28307 0.0
C1311 C 0.57383 0.68514 0.29462 0.0
C1312 C 0.55083 0.67197 0.29888 0.0
C1313 C 0.53678 0.64823 0.29118 0.0
C1314 C 0.60704 0.6876 0.27811 0.0
C1315 C 0.54096 0.68309 0.31134 0.0
C1316 C 0.61774 0.74083 0.32449 0.0
C1317 C 0.61836 0.7592 0.31479 0.0
C1318 C 0.60287 0.71661 0.31833 0.0
C1319 C 0.58865 0.71067 0.30191 0.0
C1320 C 0.5891 0.72915 0.29213 0.0
C1321 C 0.60381 0.75322 0.29878 0.0
C1322 C 0.60255 0.69739 0.32929 0.0
C1323 C 0.57446 0.72352 0.2744 0.0
H1324 H 0.5752 0.64172 0.26715 0.0
H1325 H 0.51895 0.63852 0.29395 0.0
H1326 H 0.60993 0.70366 0.27129 0.0
H1327 H 0.61914 0.69404 0.29057 0.0
H1328 H 0.61122 0.6764 0.26893 0.0
H1329 H 0.52316 0.67001 0.31412 0.0
H1330 H 0.55182 0.69039 0.32446 0.0
H1331 H 0.54088 0.69833 0.30515 0.0
H1332 H 0.62884 0.74538 0.33695 0.0
H1333 H 0.60439 0.76737 0.29117 0.0
H1334 H 0.60832 0.6867 0.32124 0.0
H1335 H 0.58481 0.68485 0.33247 0.0
H1336 H 0.6138 0.705 0.34224 0.0
H1337 H 0.57901 0.71355 0.26434 0.0
H1338 H 0.5766 0.73996 0.26859 0.0
H1339 H 0.5561 0.71178 0.27643 0.0
C1340 C 0.34665 0.91591 0.26323 0.0
C1341 C 0.35078 0.89893 0.25426 0.0
C1342 C 0.32625 0.90876 0.27143 0.0
C1343 C 0.30952 0.88407 0.27044 0.0
C1344 C 0.3133 0.86691 0.2609 0.0
C1345 C 0.334 0.87455 0.25304 0.0
C1346 C 0.32293 0.92754 0.28166 0.0
C1347 C 0.29568 0.84048 0.25931 0.0
C1348 C 0.26913 0.86308 0.30763 0.0
C1349 C 0.24959 0.86216 0.29927 0.0
C1350 C 0.28878 0.87022 0.29837 0.0
C1351 C 0.28863 0.87611 0.28022 0.0
C1352 C 0.26875 0.87481 0.27162 0.0
C1353 C 0.24954 0.86816 0.28138 0.0
C1354 C 0.30977 0.87173 0.30809 0.0
C1355 C 0.26777 0.88047 0.25217 0.0
H1356 H 0.35971 0.93475 0.26432 0.0
H1357 H 0.3371 0.86144 0.24593 0.0
H1358 H 0.30664 0.92628 0.2764 0.0
H1359 H 0.32169 0.92431 0.29624 0.0
H1360 H 0.33722 0.94605 0.28058 0.0
H1361 H 0.30057 0.82967 0.25039 0.0
H1362 H 0.29357 0.83377 0.27297 0.0
H1363 H 0.27877 0.83751 0.25381 0.0
H1364 H 0.26918 0.85853 0.32152 0.0
H1365 H 0.23446 0.86762 0.275 0.0
H1366 H 0.32452 0.89029 0.30849 0.0
H1367 H 0.3145 0.85971 0.30058 0.0
H1368 H 0.3071 0.86667 0.32224 0.0
H1369 H 0.28078 0.89947 0.25092 0.0
H1370 H 0.25063 0.87748 0.24723 0.0
H1371 H 0.27194 0.86913 0.24317 0.0
C1372 C 0.0859 0.42317 0.28106 0.0
C1373 C 0.09453 0.4475 0.28673 0.0
C1374 C 0.0945 0.40991 0.28944 0.0
C1375 C 0.11189 0.42113 0.30404 0.0
C1376 C 0.11988 0.4453 0.31044 0.0
C1377 C 0.11126 0.45826 0.30162 0.0
C1378 C 0.08565 0.38419 0.28215 0.0
C1379 C 0.13822 0.45777 0.32614 0.0
C1380 C 0.124 0.38025 0.33196 0.0
C1381 C 0.14305 0.38169 0.32413 0.0
C1382 C 0.114 0.39353 0.32593 0.0
C1383 C 0.12306 0.40819 0.31155 0.0
C1384 C 0.14249 0.40997 0.3038 0.0
C1385 C 0.15236 0.39686 0.31029 0.0
C1386 C 0.09355 0.39157 0.33472 0.0
C1387 C 0.15247 0.42516 0.28827 0.0
H1388 H 0.07263 0.41455 0.26985 0.0
H1389 H 0.11827 0.4771 0.306 0.0
H1390 H 0.09971 0.38257 0.2764 0.0
H1391 H 0.07979 0.37224 0.29328 0.0
H1392 H 0.07122 0.37773 0.27137 0.0
H1393 H 0.14068 0.47564 0.33077 0.0
H1394 H 0.1338 0.44661 0.33778 0.0
H1395 H 0.15475 0.46028 0.32197 0.0
H1396 H 0.11681 0.36864 0.34272 0.0
H1397 H 0.16696 0.39792 0.30405 0.0
H1398 H 0.0783 0.38328 0.32463 0.0
H1399 H 0.09677 0.4097 0.33941 0.0
H1400 H 0.0895 0.38059 0.34649 0.0
H1401 H 0.13939 0.41861 0.27643 0.0
H1402 H 0.16782 0.42484 0.28393 0.0
H1403 H 0.15737 0.44405 0.29227 0.0
C1404 C 0.33884 0.45155 0.26061 0.0
C1405 C 0.35803 0.45131 0.26855 0.0
C1406 C 0.31754 0.43931 0.26776 0.0
C1407 C 0.31539 0.42625 0.28302 0.0
C1408 C 0.33461 0.42549 0.29081 0.0
C1409 C 0.35578 0.43823 0.28357 0.0
C1410 C 0.29752 0.44083 0.25928 0.0
C1411 C 0.33286 0.4114 0.30688 0.0
C1412 C 0.26842 0.41404 0.3139 0.0
C1413 C 0.25206 0.39024 0.30789 0.0
C1414 C 0.28894 0.42614 0.30565 0.0
C1415 C 0.29323 0.41398 0.29124 0.0
C1416 C 0.27662 0.38997 0.28502 0.0
C1417 C 0.25613 0.37842 0.29337 0.0
C1418 C 0.30609 0.45186 0.31246 0.0
C1419 C 0.28064 0.37638 0.26976 0.0
H1420 H 0.34067 0.46185 0.24908 0.0
H1421 H 0.37059 0.43788 0.28958 0.0
H1422 H 0.28284 0.42257 0.25512 0.0
H1423 H 0.29173 0.44949 0.26942 0.0
H1424 H 0.30191 0.45126 0.2472 0.0
H1425 H 0.34915 0.41176 0.3108 0.0
H1426 H 0.32826 0.41885 0.31875 0.0
H1427 H 0.31903 0.39243 0.3037 0.0
H1428 H 0.26518 0.42321 0.32506 0.0
H1429 H 0.2434 0.36002 0.28868 0.0
H1430 H 0.3102 0.4634 0.30105 0.0
H1431 H 0.32232 0.45319 0.318 0.0
H1432 H 0.2997 0.45905 0.32324 0.0
H1433 H 0.28348 0.38592 0.25729 0.0
H1434 H 0.266 0.35779 0.26659 0.0
H1435 H 0.29634 0.37552 0.27346 0.0
C1436 C 0.55562 0.91173 0.26198 0.0
C1437 C 0.53237 0.89585 0.25643 0.0
C1438 C 0.56957 0.90345 0.2696 0.0
C1439 C 0.56004 0.87867 0.27168 0.0
C1440 C 0.53672 0.86247 0.26572 0.0
C1441 C 0.52315 0.87126 0.25819 0.0
C1442 C 0.59435 0.92129 0.27587 0.0
C1443 C 0.52601 0.83591 0.26759 0.0
C1444 C 0.60125 0.85545 0.27994 0.0
C1445 C 0.60217 0.85503 0.29886 0.0
C1446 C 0.58733 0.86275 0.27082 0.0
C1447 C 0.57419 0.86993 0.28093 0.0
C1448 C 0.57486 0.86921 0.30004 0.0
C1449 C 0.58882 0.86169 0.30878 0.0
C1450 C 0.58698 0.86314 0.25042 0.0
C1451 C 0.56113 0.87676 0.3113 0.0
H1452 H 0.56278 0.93078 0.2608 0.0
H1453 H 0.50528 0.85886 0.25366 0.0
H1454 H 0.59732 0.92159 0.29081 0.0
H1455 H 0.60575 0.91583 0.26949 0.0
H1456 H 0.59939 0.93977 0.27254 0.0
H1457 H 0.50795 0.82556 0.26148 0.0
H1458 H 0.53602 0.82878 0.26095 0.0
H1459 H 0.52639 0.83281 0.28217 0.0
H1460 H 0.61158 0.85025 0.2723 0.0
H1461 H 0.58957 0.86139 0.32343 0.0
H1462 H 0.59411 0.88187 0.24685 0.0
H1463 H 0.56907 0.85271 0.24404 0.0
H1464 H 0.5971 0.85563 0.24448 0.0
H1465 H 0.56651 0.89581 0.30972 0.0
H1466 H 0.56326 0.87475 0.32598 0.0
H1467 H 0.54265 0.86587 0.30646 0.0
C1468 C 0.09392 0.65479 0.27223 0.0
C1469 C 0.10491 0.64195 0.27681 0.0
C1470 C 0.10275 0.67865 0.27934 0.0
C1471 C 0.12296 0.68988 0.29145 0.0
C1472 C 0.13416 0.67706 0.29614 0.0
C1473 C 0.12504 0.65327 0.28872 0.0
C1474 C 0.09034 0.69178 0.27403 0.0
C1475 C 0.15573 0.68846 0.30904 0.0
C1476 C 0.15601 0.75799 0.29846 0.0
C1477 C 0.148 0.76218 0.31457 0.0
C1478 C 0.14811 0.73452 0.2908 0.0
C1479 C 0.13202 0.71484 0.29958 0.0
C1480 C 0.12418 0.71898 0.316 0.0
C1481 C 0.13218 0.74261 0.32325 0.0
C1482 C 0.15664 0.73078 0.27316 0.0
C1483 C 0.10714 0.69844 0.32581 0.0
H1484 H 0.07821 0.64607 0.26322 0.0
H1485 H 0.13384 0.6436 0.29209 0.0
H1486 H 0.08439 0.69693 0.28627 0.0
H1487 H 0.10219 0.70859 0.26814 0.0
H1488 H 0.07528 0.68075 0.26399 0.0
H1489 H 0.16242 0.67608 0.31122 0.0
H1490 H 0.16924 0.70483 0.30367 0.0
H1491 H 0.1523 0.6941 0.32238 0.0
H1492 H 0.16804 0.77306 0.29159 0.0
H1493 H 0.12601 0.74574 0.33574 0.0
H1494 H 0.14201 0.72107 0.26255 0.0
H1495 H 0.16461 0.71949 0.27492 0.0
H1496 H 0.1694 0.74799 0.26821 0.0
H1497 H 0.0909 0.68763 0.31695 0.0
H1498 H 0.10326 0.70472 0.3387 0.0
H1499 H 0.11389 0.68635 0.32894 0.0
C1500 C 0.77375 0.00603 0.39981 0.0
C1501 C 0.78874 0.02437 0.38969 0.0
C1502 C 0.75866 0.98284 0.39153 0.0
C1503 C 0.75875 0.97774 0.3727 0.0
C1504 C 0.77379 0.99611 0.36238 0.0
C1505 C 0.7885 0.01923 0.37097 0.0
C1506 C 0.74274 0.96374 0.40297 0.0
C1507 C 0.77445 0.99128 0.34228 0.0
C1508 C 0.7353 0.9123 0.35619 0.0
C1509 C 0.71313 0.90553 0.34879 0.0
C1510 C 0.75051 0.9359 0.36364 0.0
C1511 C 0.74327 0.95306 0.3639 0.0
C1512 C 0.72102 0.94644 0.35625 0.0
C1513 C 0.70625 0.92277 0.34868 0.0
C1514 C 0.77422 0.94239 0.37147 0.0
C1515 C 0.71261 0.96419 0.35647 0.0
H1516 H 0.77405 0.00968 0.41432 0.0
H1517 H 0.79975 0.03335 0.36297 0.0
H1518 H 0.7247 0.95594 0.39717 0.0
H1519 H 0.74661 0.94891 0.40284 0.0
H1520 H 0.74425 0.97083 0.4173 0.0
H1521 H 0.78722 0.0075 0.33621 0.0
H1522 H 0.77875 0.9769 0.33996 0.0
H1523 H 0.75731 0.98481 0.33502 0.0
H1524 H 0.74079 0.89912 0.35625 0.0
H1525 H 0.6891 0.91766 0.3431 0.0
H1526 H 0.77635 0.94778 0.38626 0.0
H1527 H 0.78738 0.95797 0.36508 0.0
H1528 H 0.77756 0.92725 0.36945 0.0
H1529 H 0.71245 0.97036 0.37072 0.0
H1530 H 0.69508 0.95638 0.34949 0.0
H1531 H 0.72443 0.98026 0.34979 0.0
C1532 C 0.00666 0.8015 0.41521 0.0
C1533 C 0.98858 0.77774 0.41445 0.0
C1534 C 0.02674 0.80713 0.40694 0.0
C1535 C 0.02853 0.78857 0.39744 0.0
C1536 C 0.01043 0.76449 0.39687 0.0
C1537 C 0.99071 0.75934 0.40552 0.0
C1538 C 0.04587 0.83296 0.40813 0.0
C1539 C 0.01161 0.74428 0.38666 0.0
C1540 C 0.06827 0.80635 0.35975 0.0
C1541 C 0.08722 0.80596 0.36795 0.0
C1542 C 0.04894 0.80045 0.36916 0.0
C1543 C 0.04883 0.79451 0.38732 0.0
C1544 C 0.06806 0.79428 0.3957 0.0
C1545 C 0.08692 0.79966 0.38579 0.0
C1546 C 0.02862 0.80055 0.35966 0.0
C1547 C 0.06878 0.78853 0.41516 0.0
H1548 H 0.00509 0.81569 0.4223 0.0
H1549 H 0.97664 0.74098 0.40485 0.0
H1550 H 0.06227 0.83446 0.41343 0.0
H1551 H 0.04821 0.83936 0.39437 0.0
H1552 H 0.04242 0.84499 0.41705 0.0
H1553 H 0.9964 0.72646 0.38802 0.0
H1554 H 0.01278 0.74717 0.37202 0.0
H1555 H 0.02725 0.74402 0.3917 0.0
H1556 H 0.06847 0.8111 0.3459 0.0
H1557 H 0.10153 0.79918 0.39205 0.0
H1558 H 0.02539 0.81383 0.36705 0.0
H1559 H 0.01299 0.78268 0.35969 0.0
H1560 H 0.03124 0.80499 0.34536 0.0
H1561 H 0.06621 0.80106 0.42425 0.0
H1562 H 0.08531 0.78981 0.41982 0.0
H1563 H 0.05464 0.77011 0.41662 0.0
C1564 C 0.2284 0.23242 0.39925 0.0
C1565 C 0.23314 0.21658 0.38921 0.0
C1566 C 0.22119 0.24663 0.39055 0.0
C1567 C 0.21837 0.24475 0.37133 0.0
C1568 C 0.22337 0.22905 0.36108 0.0
C1569 C 0.23082 0.21524 0.37014 0.0
C1570 C 0.21614 0.26329 0.40196 0.0
C1571 C 0.22046 0.22652 0.34056 0.0
C1572 C 0.17703 0.26337 0.35212 0.0
C1573 C 0.19203 0.28692 0.34817 0.0
C1574 C 0.18541 0.24908 0.35894 0.0
C1575 C 0.20938 0.25867 0.36207 0.0
C1576 C 0.22463 0.28209 0.35747 0.0
C1577 C 0.21576 0.29591 0.35046 0.0
C1578 C 0.16861 0.22404 0.36344 0.0
C1579 C 0.25029 0.29297 0.36073 0.0
H1580 H 0.22978 0.23333 0.41397 0.0
H1581 H 0.23479 0.20334 0.36227 0.0
H1582 H 0.22611 0.28185 0.39796 0.0
H1583 H 0.19771 0.25763 0.39957 0.0
H1584 H 0.22032 0.26354 0.41673 0.0
H1585 H 0.22567 0.21398 0.33458 0.0
H1586 H 0.20226 0.21981 0.33576 0.0
H1587 H 0.2308 0.24428 0.33532 0.0
H1588 H 0.15866 0.25621 0.35022 0.0
H1589 H 0.22749 0.31411 0.34748 0.0
H1590 H 0.16993 0.22312 0.37835 0.0
H1591 H 0.17275 0.21088 0.35703 0.0
H1592 H 0.1506 0.21857 0.35883 0.0
H1593 H 0.25535 0.29552 0.37556 0.0
H1594 H 0.2598 0.31061 0.35509 0.0
H1595 H 0.25565 0.2807 0.35455 0.0
C1596 C 0.65076 0.55171 0.72451 0.0
C1597 C 0.64984 0.54304 0.74158 0.0
C1598 C 0.67169 0.56463 0.71699 0.0
C1599 C 0.69215 0.56871 0.72669 0.0
C1600 C 0.69137 0.56011 0.74399 0.0
C1601 C 0.67019 0.54746 0.75129 0.0
C1602 C 0.6719 0.57384 0.69862 0.0
C1603 C 0.71284 0.56396 0.75464 0.0
C1604 C 0.74124 0.58182 0.69795 0.0
C1605 C 0.75431 0.60687 0.70074 0.0
C1606 C 0.7213 0.56906 0.7068 0.0
C1607 C 0.71429 0.58177 0.71855 0.0
C1608 C 0.7278 0.60707 0.72173 0.0
C1609 C 0.7477 0.61932 0.71278 0.0
C1610 C 0.70747 0.54205 0.70326 0.0
C1611 C 0.72089 0.62125 0.73414 0.0
H1612 H 0.63506 0.54854 0.7171 0.0
H1613 H 0.66947 0.54057 0.76443 0.0
H1614 H 0.68349 0.59359 0.69966 0.0
H1615 H 0.67862 0.56579 0.68883 0.0
H1616 H 0.65455 0.56964 0.69306 0.0
H1617 H 0.70934 0.55638 0.768 0.0
H1618 H 0.72084 0.55546 0.74672 0.0
H1619 H 0.72557 0.58342 0.757 0.0
H1620 H 0.74647 0.5722 0.68871 0.0
H1621 H 0.75786 0.63873 0.71494 0.0
H1622 H 0.6904 0.53659 0.69631 0.0
H1623 H 0.70456 0.53371 0.71631 0.0
H1624 H 0.71604 0.53479 0.69469 0.0
H1625 H 0.70442 0.61925 0.72844 0.0
H1626 H 0.73398 0.64067 0.73596 0.0
H1627 H 0.71811 0.61423 0.74769 0.0
C1628 C 0.45365 0.10381 0.74943 0.0
C1629 C 0.47112 0.10403 0.7398 0.0
C1630 C 0.4398 0.11248 0.74227 0.0
C1631 C 0.44292 0.12081 0.72477 0.0
C1632 C 0.46049 0.12117 0.71498 0.0
C1633 C 0.47461 0.1132 0.72273 0.0
C1634 C 0.42159 0.11237 0.75331 0.0
C1635 C 0.46403 0.12948 0.69611 0.0
C1636 C 0.39154 0.11771 0.6986 0.0
C1637 C 0.39761 0.1419 0.69968 0.0
C1638 C 0.40628 0.11064 0.70656 0.0
C1639 C 0.42717 0.12815 0.71636 0.0
C1640 C 0.43307 0.15258 0.71787 0.0
C1641 C 0.41835 0.15924 0.7092 0.0
C1642 C 0.39967 0.08451 0.70422 0.0
C1643 C 0.45482 0.17162 0.72872 0.0
H1644 H 0.45042 0.09644 0.76246 0.0
H1645 H 0.48838 0.11412 0.71532 0.0
H1646 H 0.42302 0.13031 0.75412 0.0
H1647 H 0.40433 0.0993 0.74658 0.0
H1648 H 0.42283 0.10752 0.76734 0.0
H1649 H 0.47836 0.12847 0.69024 0.0
H1650 H 0.44812 0.11824 0.68694 0.0
H1651 H 0.46768 0.14827 0.6964 0.0
H1652 H 0.37548 0.10435 0.69114 0.0
H1653 H 0.42284 0.17794 0.71016 0.0
H1654 H 0.39827 0.07736 0.71768 0.0
H1655 H 0.4132 0.08266 0.6977 0.0
H1656 H 0.3831 0.07328 0.6958 0.0
H1657 H 0.45529 0.16675 0.74284 0.0
H1658 H 0.45637 0.18962 0.72923 0.0
H1659 H 0.46997 0.17274 0.72271 0.0
C1660 C 0.90432 0.33805 0.73002 0.0
C1661 C 0.89259 0.35007 0.72513 0.0
C1662 C 0.89755 0.31506 0.72188 0.0
C1663 C 0.87871 0.30388 0.70842 0.0
C1664 C 0.86709 0.31608 0.70314 0.0
C1665 C 0.8741 0.33898 0.71161 0.0
C1666 C 0.91033 0.30258 0.72789 0.0
C1667 C 0.84694 0.30475 0.6888 0.0
C1668 C 0.87163 0.25158 0.67695 0.0
C1669 C 0.85457 0.2319 0.68474 0.0
C1670 C 0.87965 0.27516 0.68449 0.0
C1671 C 0.87061 0.27906 0.70031 0.0
C1672 C 0.85363 0.25922 0.70838 0.0
C1673 C 0.84572 0.2359 0.70043 0.0
C1674 C 0.89766 0.2959 0.67545 0.0
C1675 C 0.84383 0.26261 0.72543 0.0
H1676 H 0.91885 0.34665 0.74023 0.0
H1677 H 0.86475 0.34798 0.70791 0.0
H1678 H 0.89847 0.28571 0.73371 0.0
H1679 H 0.91699 0.2976 0.71605 0.0
H1680 H 0.92492 0.31395 0.73825 0.0
H1681 H 0.84048 0.31708 0.6856 0.0
H1682 H 0.85186 0.29927 0.67612 0.0
H1683 H 0.83274 0.28829 0.69351 0.0
H1684 H 0.87849 0.24859 0.6648 0.0
H1685 H 0.83276 0.22075 0.70668 0.0
H1686 H 0.91301 0.30694 0.6852 0.0
H1687 H 0.89097 0.3077 0.67129 0.0
H1688 H 0.90301 0.28982 0.66327 0.0
H1689 H 0.85779 0.27262 0.73651 0.0
H1690 H 0.83098 0.24526 0.73014 0.0
H1691 H 0.83553 0.27346 0.72295 0.0
C1692 C 0.21014 0.98664 0.62464 0.0
C1693 C 0.21042 0.98014 0.60628 0.0
C1694 C 0.22584 0.00976 0.63277 0.0
C1695 C 0.24239 0.02668 0.62235 0.0
C1696 C 0.24304 0.02015 0.60393 0.0
C1697 C 0.22694 0.99704 0.59608 0.0
C1698 C 0.22457 0.01617 0.65244 0.0
C1699 C 0.26056 0.03768 0.59243 0.0
C1700 C 0.26895 0.0931 0.63708 0.0
C1701 C 0.28998 0.09844 0.64611 0.0
C1702 C 0.25322 0.06975 0.62942 0.0
C1703 C 0.25879 0.0514 0.63063 0.0
C1704 C 0.28005 0.0567 0.63958 0.0
C1705 C 0.29535 0.08014 0.64731 0.0
C1706 C 0.23059 0.06471 0.62012 0.0
C1707 C 0.28671 0.03765 0.64087 0.0
H1708 H 0.19768 0.97362 0.6327 0.0
H1709 H 0.22706 0.99237 0.58182 0.0
H1710 H 0.24112 0.02184 0.66042 0.0
H1711 H 0.22153 0.03156 0.65354 0.0
H1712 H 0.21068 0.00093 0.65866 0.0
H1713 H 0.25937 0.02946 0.57854 0.0
H1714 H 0.25814 0.05336 0.59125 0.0
H1715 H 0.27812 0.04455 0.59902 0.0
H1716 H 0.26462 0.10711 0.63614 0.0
H1717 H 0.31164 0.08416 0.65414 0.0
H1718 H 0.21622 0.05045 0.62665 0.0
H1719 H 0.22894 0.05801 0.60568 0.0
H1720 H 0.22874 0.0809 0.62062 0.0
H1721 H 0.27396 0.02265 0.648 0.0
H1722 H 0.30395 0.04473 0.64822 0.0
H1723 H 0.28671 0.03009 0.62703 0.0
C1724 C 0.02016 0.24371 0.61229 0.0
C1725 C 0.02168 0.23494 0.59499 0.0
C1726 C 0.9989 0.2352 0.61937 0.0
C1727 C 0.97874 0.21727 0.60898 0.0
C1728 C 0.98016 0.20845 0.59144 0.0
C1729 C 0.00164 0.21752 0.5846 0.0
C1730 C 0.99802 0.24528 0.63802 0.0
C1731 C 0.95906 0.18912 0.58007 0.0
C1732 C 0.92862 0.17957 0.63586 0.0
C1733 C 0.91514 0.19027 0.63341 0.0
C1734 C 0.9491 0.18781 0.62758 0.0
C1735 C 0.95629 0.20732 0.61674 0.0
C1736 C 0.94245 0.21784 0.61393 0.0
C1737 C 0.92195 0.20911 0.62227 0.0
C1738 C 0.96326 0.17592 0.63069 0.0
C1739 C 0.94957 0.2387 0.60249 0.0
H1740 H 0.03564 0.25739 0.62023 0.0
H1741 H 0.00285 0.2106 0.57127 0.0
H1742 H 0.98622 0.25257 0.63725 0.0
H1743 H 0.9912 0.23079 0.64728 0.0
H1744 H 0.01516 0.25978 0.64405 0.0
H1745 H 0.96302 0.18464 0.56653 0.0
H1746 H 0.951 0.17259 0.58727 0.0
H1747 H 0.94621 0.19491 0.57808 0.0
H1748 H 0.92326 0.16489 0.6444 0.0
H1749 H 0.91144 0.21731 0.6203 0.0
H1750 H 0.98008 0.189 0.63809 0.0
H1751 H 0.96671 0.16996 0.61748 0.0
H1752 H 0.95465 0.16015 0.63867 0.0
H1753 H 0.93634 0.24408 0.60094 0.0
H1754 H 0.95293 0.23405 0.58878 0.0
H1755 H 0.96578 0.25437 0.60884 0.0
C1756 C 0.77265 0.77844 0.62539 0.0
C1757 C 0.76872 0.77734 0.60645 0.0
C1758 C 0.78072 0.76445 0.63329 0.0
C1759 C 0.78463 0.74869 0.62198 0.0
C1760 C 0.78042 0.7472 0.60289 0.0
C1761 C 0.77269 0.76168 0.59534 0.0
C1762 C 0.78521 0.76664 0.65371 0.0
C1763 C 0.78421 0.73042 0.59042 0.0
C1764 C 0.82515 0.7285 0.64042 0.0
C1765 C 0.80981 0.70585 0.64581 0.0
C1766 C 0.81719 0.7427 0.63274 0.0
C1767 C 0.7933 0.73388 0.63015 0.0
C1768 C 0.77772 0.71094 0.63539 0.0
C1769 C 0.78617 0.69726 0.64327 0.0
C1770 C 0.83433 0.7672 0.62749 0.0
C1771 C 0.75211 0.7008 0.63256 0.0
H1772 H 0.76928 0.79017 0.6341 0.0
H1773 H 0.77007 0.76096 0.58069 0.0
H1774 H 0.77442 0.749 0.65897 0.0
H1775 H 0.80338 0.77206 0.6575 0.0
H1776 H 0.78159 0.77999 0.66056 0.0
H1777 H 0.77941 0.73083 0.5759 0.0
H1778 H 0.80251 0.73534 0.59202 0.0
H1779 H 0.77398 0.71174 0.59413 0.0
H1780 H 0.84345 0.73529 0.64236 0.0
H1781 H 0.77419 0.67966 0.64722 0.0
H1782 H 0.83195 0.78117 0.6348 0.0
H1783 H 0.83146 0.76814 0.61273 0.0
H1784 H 0.85233 0.77154 0.63062 0.0
H1785 H 0.74733 0.71276 0.64007 0.0
H1786 H 0.7423 0.68253 0.63718 0.0
H1787 H 0.74685 0.6999 0.61794 0.0
C1788 C 0.0079 0.77095 0.59171 0.0
C1789 C 0.01693 0.79585 0.59226 0.0
C1790 C 0.98756 0.75628 0.59955 0.0
C1791 C 0.97602 0.76678 0.60813 0.0
C1792 C 0.98473 0.79181 0.60833 0.0
C1793 C 0.0051 0.80605 0.6004 0.0
C1794 C 0.97878 0.72965 0.59908 0.0
C1795 C 0.9728 0.80362 0.61726 0.0
C1796 C 0.9141 0.72671 0.61766 0.0
C1797 C 0.91666 0.72343 0.63601 0.0
C1798 C 0.93326 0.74069 0.60833 0.0
C1799 C 0.95546 0.75178 0.61769 0.0
C1800 C 0.95809 0.7486 0.63628 0.0
C1801 C 0.93861 0.73443 0.64523 0.0
C1802 C 0.92974 0.7436 0.5885 0.0
C1803 C 0.98149 0.76014 0.64671 0.0
H1804 H 0.01709 0.763 0.5856 0.0
H1805 H 0.01184 0.82523 0.60062 0.0
H1806 H 0.97928 0.72462 0.61314 0.0
H1807 H 0.96065 0.71937 0.59322 0.0
H1808 H 0.98905 0.72412 0.591 0.0
H1809 H 0.98124 0.82311 0.61553 0.0
H1810 H 0.95466 0.79488 0.61148 0.0
H1811 H 0.9727 0.80133 0.63202 0.0
H1812 H 0.89709 0.71834 0.6106 0.0
H1813 H 0.94058 0.7319 0.65944 0.0
H1814 H 0.9395 0.73754 0.58028 0.0
H1815 H 0.93642 0.76284 0.58663 0.0
H1816 H 0.91138 0.73325 0.58313 0.0
H1817 H 0.99229 0.75399 0.64015 0.0
H1818 H 0.98056 0.75587 0.6611 0.0
H1819 H 0.99023 0.77993 0.64649 0.0
C1820 C 0.20955 0.22303 0.58699 0.0
C1821 C 0.20668 0.23985 0.59761 0.0
C1822 C 0.22329 0.21403 0.59381 0.0
C1823 C 0.23464 0.22235 0.61154 0.0
C1824 C 0.23205 0.23961 0.62221 0.0
C1825 C 0.21793 0.24801 0.61515 0.0
C1826 C 0.22537 0.19537 0.58216 0.0
C1827 C 0.24418 0.24917 0.64108 0.0
C1828 C 0.25318 0.18507 0.63786 0.0
C1829 C 0.27666 0.19657 0.63568 0.0
C1830 C 0.23915 0.19284 0.62961 0.0
C1831 C 0.24895 0.21277 0.61914 0.0
C1832 C 0.2726 0.22408 0.61657 0.0
C1833 C 0.28616 0.21573 0.6248 0.0
C1834 C 0.21393 0.18005 0.63239 0.0
C1835 C 0.28369 0.24545 0.60558 0.0
H1836 H 0.20066 0.21655 0.57348 0.0
H1837 H 0.21587 0.26118 0.62329 0.0
H1838 H 0.24364 0.20177 0.58026 0.0
H1839 H 0.21886 0.17864 0.58907 0.0
H1840 H 0.21566 0.19102 0.56857 0.0
H1841 H 0.2409 0.26308 0.64737 0.0
H1842 H 0.23843 0.23428 0.64997 0.0
H1843 H 0.26294 0.25706 0.64058 0.0
H1844 H 0.24582 0.17012 0.64618 0.0
H1845 H 0.30433 0.22457 0.62305 0.0
H1846 H 0.20349 0.17439 0.61908 0.0
H1847 H 0.20982 0.19246 0.64009 0.0
H1848 H 0.20874 0.16396 0.63995 0.0
H1849 H 0.27452 0.241 0.59179 0.0
H1850 H 0.30204 0.25151 0.60421 0.0
H1851 H 0.28248 0.26059 0.61218 0.0
C1852 C 0.7553 0.9811 0.6046 0.0
C1853 C 0.76442 0.96716 0.61089 0.0
C1854 C 0.76361 0.00465 0.61221 0.0
C1855 C 0.78113 0.01437 0.62675 0.0
C1856 C 0.78985 0.00018 0.63364 0.0
C1857 C 0.78156 0.97683 0.62552 0.0
C1858 C 0.75402 0.01934 0.60438 0.0
C1859 C 0.80829 0.00983 0.64934 0.0
C1860 C 0.81858 0.08217 0.63361 0.0
C1861 C 0.80807 0.08806 0.6472 0.0
C1862 C 0.81006 0.05821 0.62692 0.0
C1863 C 0.79087 0.03971 0.63427 0.0
C1864 C 0.78059 0.04552 0.64835 0.0
C1865 C 0.78916 0.06968 0.65452 0.0
C1866 C 0.82122 0.05274 0.61166 0.0
C1867 C 0.7604 0.02623 0.65677 0.0
H1868 H 0.74171 0.97365 0.59359 0.0
H1869 H 0.78897 0.96639 0.63036 0.0
H1870 H 0.74692 0.02564 0.61515 0.0
H1871 H 0.76794 0.03552 0.59912 0.0
H1872 H 0.74029 0.00904 0.59316 0.0
H1873 H 0.812 0.99591 0.65397 0.0
H1874 H 0.82434 0.02492 0.64524 0.0
H1875 H 0.80308 0.017 0.66098 0.0
H1876 H 0.83307 0.09635 0.6278 0.0
H1877 H 0.78112 0.07418 0.66514 0.0
H1878 H 0.80853 0.04371 0.59961 0.0
H1879 H 0.82705 0.04024 0.61579 0.0
H1880 H 0.83616 0.06918 0.60759 0.0
H1881 H 0.74554 0.01649 0.64638 0.0
H1882 H 0.75519 0.03367 0.66827 0.0
H1883 H 0.76467 0.01289 0.66178 0.0
C1884 C 0.46814 0.34347 0.72355 0.0
C1885 C 0.46125 0.35603 0.73527 0.0
C1886 C 0.45235 0.32037 0.71545 0.0
C1887 C 0.42915 0.30945 0.71932 0.0
C1888 C 0.42206 0.32195 0.73116 0.0
C1889 C 0.43815 0.34514 0.73888 0.0
C1890 C 0.46049 0.30762 0.70277 0.0
C1891 C 0.39748 0.31082 0.73567 0.0
C1892 C 0.38406 0.25898 0.686 0.0
C1893 C 0.38092 0.23864 0.69427 0.0
C1894 C 0.39974 0.28215 0.69401 0.0
C1895 C 0.41226 0.285 0.71083 0.0
C1896 C 0.4088 0.26451 0.71943 0.0
C1897 C 0.39329 0.24154 0.71096 0.0
C1898 C 0.40315 0.30357 0.68435 0.0
C1899 C 0.42148 0.26685 0.73755 0.0
H1900 H 0.48599 0.35155 0.72089 0.0
H1901 H 0.43256 0.35484 0.74767 0.0
H1902 H 0.45749 0.29067 0.70816 0.0
H1903 H 0.45054 0.30275 0.68927 0.0
H1904 H 0.47901 0.31878 0.70091 0.0
H1905 H 0.39488 0.3227 0.74549 0.0
H1906 H 0.386 0.30683 0.7231 0.0
H1907 H 0.39217 0.29353 0.74153 0.0
H1908 H 0.37462 0.2568 0.67305 0.0
H1909 H 0.3907 0.22584 0.71749 0.0
H1910 H 0.4213 0.31431 0.68136 0.0
H1911 H 0.39945 0.3154 0.69322 0.0
H1912 H 0.392 0.29826 0.67138 0.0
H1913 H 0.44024 0.27661 0.73642 0.0
H1914 H 0.41652 0.24912 0.74256 0.0
H1915 H 0.41799 0.27751 0.74782 0.0
C1916 C 0.63888 0.07377 0.71317 0.0
C1917 C 0.63945 0.08114 0.73145 0.0
C1918 C 0.65917 0.08191 0.70461 0.0
C1919 C 0.68048 0.09792 0.71457 0.0
C1920 C 0.68119 0.10514 0.73311 0.0
C1921 C 0.66065 0.0966 0.74135 0.0
C1922 C 0.65779 0.07363 0.68486 0.0
C1923 C 0.70361 0.1223 0.74414 0.0
C1924 C 0.7351 0.10476 0.69733 0.0
C1925 C 0.74315 0.12593 0.68869 0.0
C1926 C 0.71461 0.09531 0.70571 0.0
C1927 C 0.70202 0.10747 0.70551 0.0
C1928 C 0.7101 0.12888 0.69678 0.0
C1929 C 0.7306 0.13784 0.68841 0.0
C1930 C 0.70648 0.07241 0.71483 0.0
C1931 C 0.69719 0.14241 0.6964 0.0
H1932 H 0.62252 0.06163 0.70554 0.0
H1933 H 0.66112 0.10258 0.75543 0.0
H1934 H 0.66473 0.08929 0.67669 0.0
H1935 H 0.66846 0.06512 0.68327 0.0
H1936 H 0.63993 0.06058 0.67921 0.0
H1937 H 0.70124 0.12563 0.75853 0.0
H1938 H 0.71547 0.11509 0.74383 0.0
H1939 H 0.71201 0.13971 0.73809 0.0
H1940 H 0.74487 0.09557 0.69757 0.0
H1941 H 0.7369 0.15428 0.68178 0.0
H1942 H 0.68901 0.05871 0.70886 0.0
H1943 H 0.70539 0.07579 0.7295 0.0
H1944 H 0.71805 0.06492 0.71345 0.0
H1945 H 0.67956 0.13062 0.68978 0.0
H1946 H 0.70577 0.15875 0.68901 0.0
H1947 H 0.69559 0.14782 0.7105 0.0
C1948 C 0.8995 0.56533 0.73777 0.0
C1949 C 0.90012 0.54715 0.72691 0.0
C1950 C 0.89269 0.58053 0.73018 0.0
C1951 C 0.8859 0.5772 0.71133 0.0
C1952 C 0.88669 0.55911 0.70025 0.0
C1953 C 0.89403 0.54449 0.70812 0.0
C1954 C 0.89238 0.59989 0.74239 0.0
C1955 C 0.87931 0.55484 0.68011 0.0
C1956 C 0.84555 0.59899 0.69569 0.0
C1957 C 0.86039 0.6201 0.68803 0.0
C1958 C 0.85361 0.58475 0.70316 0.0
C1959 C 0.87717 0.59208 0.70332 0.0
C1960 C 0.8923 0.61353 0.6958 0.0
C1961 C 0.88368 0.62718 0.68808 0.0
C1962 C 0.83687 0.56179 0.71078 0.0
C1963 C 0.91762 0.62218 0.6961 0.0
H1964 H 0.9038 0.56736 0.75232 0.0
H1965 H 0.89489 0.53088 0.69952 0.0
H1966 H 0.90231 0.61757 0.73692 0.0
H1967 H 0.87452 0.59616 0.7428 0.0
H1968 H 0.89965 0.60119 0.75652 0.0
H1969 H 0.88112 0.54014 0.67336 0.0
H1970 H 0.86112 0.55017 0.6779 0.0
H1971 H 0.88966 0.57146 0.67344 0.0
H1972 H 0.82752 0.59339 0.69564 0.0
H1973 H 0.89527 0.64363 0.68236 0.0
H1974 H 0.84191 0.56257 0.72542 0.0
H1975 H 0.83724 0.54634 0.70379 0.0
H1976 H 0.81901 0.55838 0.70924 0.0
H1977 H 0.92508 0.62461 0.71032 0.0
H1978 H 0.92714 0.63944 0.68994 0.0
H1979 H 0.9203 0.60855 0.68861 0.0
C1980 C 0.47998 0.0126 0.13344 0.0
C1981 C 0.49262 0.00372 0.1425 0.0
C1982 C 0.48386 0.01926 0.11565 0.0
C1983 C 0.50107 0.01741 0.10685 0.0
C1984 C 0.51484 0.00992 0.1163 0.0
C1985 C 0.51031 0.00295 0.13391 0.0
C1986 C 0.46867 0.02692 0.10592 0.0
C1987 C 0.53354 0.00793 0.10744 0.0
C1988 C 0.49515 0.00262 0.05605 0.0
C1989 C 0.51047 0.02487 0.05013 0.0
C1990 C 0.49098 0.0003 0.07434 0.0
C1991 C 0.50311 0.02062 0.08718 0.0
C1992 C 0.51835 0.04328 0.08128 0.0
C1993 C 0.5217 0.04519 0.06271 0.0
C1994 C 0.47422 0.97588 0.07998 0.0
C1995 C 0.53181 0.06524 0.09463 0.0
H1996 H 0.46659 0.01376 0.14006 0.0
H1997 H 0.52 0.9958 0.14057 0.0
H1998 H 0.47912 0.04359 0.09933 0.0
H1999 H 0.45723 0.01277 0.09502 0.0
H2000 H 0.45785 0.03002 0.11525 0.0
H2001 H 0.54446 0.00466 0.11731 0.0
H2002 H 0.52574 0.99287 0.09654 0.0
H2003 H 0.54464 0.02457 0.10103 0.0
H2004 H 0.48674 0.98679 0.04643 0.0
H2005 H 0.53365 0.0624 0.05815 0.0
H2006 H 0.46186 0.97714 0.08861 0.0
H2007 H 0.48362 0.96904 0.08817 0.0
H2008 H 0.46443 0.9626 0.0681 0.0
H2009 H 0.52021 0.0675 0.10355 0.0
H2010 H 0.54143 0.08186 0.08772 0.0
H2011 H 0.54421 0.06294 0.10352 0.0
C2012 C 0.00243 0.48872 0.13745 0.0
C2013 C 0.02518 0.49592 0.14333 0.0
C2014 C 0.9956 0.48715 0.11896 0.0
C2015 C 0.01207 0.49346 0.10616 0.0
C2016 C 0.03492 0.49996 0.11197 0.0
C2017 C 0.04117 0.50093 0.13054 0.0
C2018 C 0.97095 0.47952 0.11322 0.0
C2019 C 0.05301 0.50705 0.09873 0.0
C2020 C 0.99155 0.4766 0.05595 0.0
C2021 C 0.99254 0.49765 0.05083 0.0
C2022 C 0.99793 0.47492 0.07393 0.0
C2023 C 0.00571 0.49492 0.08695 0.0
C2024 C 0.00692 0.51632 0.08173 0.0
C2025 C 4e-05 0.51731 0.06374 0.0
C2026 C 0.99609 0.45172 0.07904 0.0
C2027 C 0.01562 0.53821 0.09513 0.0
H2028 H 0.99007 0.48465 0.14738 0.0
H2029 H 0.05881 0.50667 0.13516 0.0
H2030 H 0.96998 0.49491 0.10819 0.0
H2031 H 0.96398 0.46506 0.10187 0.0
H2032 H 0.95988 0.473 0.12457 0.0
H2033 H 0.06956 0.51008 0.10524 0.0
H2034 H 0.04714 0.493 0.08719 0.0
H2035 H 0.05599 0.52382 0.093 0.0
H2036 H 0.98556 0.46135 0.0459 0.0
H2037 H 0.00099 0.53365 0.05966 0.0
H2038 H 0.98406 0.4444 0.08969 0.0
H2039 H 0.013 0.455 0.08483 0.0
H2040 H 0.98996 0.43796 0.06723 0.0
H2041 H 0.00423 0.534 0.10628 0.0
H2042 H 0.01647 0.55375 0.08868 0.0
H2043 H 0.03299 0.54349 0.10137 0.0
C2044 C 0.47413 0.47511 0.13316 0.0
C2045 C 0.48808 0.49656 0.14428 0.0
C2046 C 0.47751 0.47307 0.11474 0.0
C2047 C 0.49546 0.49283 0.10734 0.0
C2048 C 0.51001 0.51425 0.11858 0.0
C2049 C 0.50602 0.51592 0.13683 0.0
C2050 C 0.46149 0.45006 0.10307 0.0
C2051 C 0.5294 0.53571 0.11119 0.0
C2052 C 0.51761 0.48614 0.06256 0.0
C2053 C 0.50776 0.49565 0.05094 0.0
C2054 C 0.51319 0.48433 0.08092 0.0
C2055 C 0.49831 0.49189 0.0876 0.0
C2056 C 0.48759 0.50055 0.07568 0.0
C2057 C 0.49275 0.50268 0.05757 0.0
C2058 C 0.52512 0.47527 0.0933 0.0
C2059 C 0.4713 0.50839 0.08216 0.0
H2060 H 0.46042 0.45995 0.13883 0.0
H2061 H 0.51663 0.53274 0.14513 0.0
H2062 H 0.45163 0.4536 0.09241 0.0
H2063 H 0.47142 0.44316 0.09602 0.0
H2064 H 0.44919 0.43591 0.1111 0.0
H2065 H 0.54018 0.55035 0.12202 0.0
H2066 H 0.5405 0.53033 0.10421 0.0
H2067 H 0.52233 0.54288 0.10099 0.0
H2068 H 0.52927 0.48074 0.05744 0.0
H2069 H 0.48533 0.51033 0.04868 0.0
H2070 H 0.51248 0.46073 0.10084 0.0
H2071 H 0.53731 0.49005 0.10353 0.0
H2072 H 0.53475 0.4684 0.08573 0.0
H2073 H 0.4581 0.49436 0.08971 0.0
H2074 H 0.46251 0.51214 0.07075 0.0
H2075 H 0.4809 0.52492 0.09164 0.0
C2076 C 0.95284 0.47896 0.87737 0.0
C2077 C 0.96748 0.49082 0.86408 0.0
C2078 C 0.96132 0.48236 0.89565 0.0
C2079 C 0.98509 0.49762 0.90066 0.0
C2080 C -0.00014 0.51009 0.88734 0.0
C2081 C 0.99082 0.50667 0.86919 0.0
C2082 C 0.94495 0.46909 0.90951 0.0
C2083 C 0.02533 0.52624 0.89213 0.0
C2084 C 0.00518 0.51805 0.9507 0.0
C2085 C 0.01036 0.5006 0.95591 0.0
C2086 C 0.99688 0.51735 0.93274 0.0
C2087 C 0.99461 0.49931 0.9196 0.0
C2088 C 0.00082 0.48231 0.92467 0.0
C2089 C 0.00847 0.48307 0.94282 0.0
C2090 C 0.99023 0.53565 0.92791 0.0
C2091 C 0.99894 0.46301 0.91101 0.0
H2092 H 0.93473 0.46688 0.87341 0.0
H2093 H 0.00215 0.51571 0.85887 0.0
H2094 H 0.94813 0.45485 0.91414 0.0
H2095 H 0.94778 0.48146 0.92162 0.0
H2096 H 0.92673 0.46058 0.9039 0.0
H2097 H 0.0343 0.53544 0.88035 0.0
H2098 H 0.0286 0.54003 0.90332 0.0
H2099 H 0.03288 0.51551 0.89705 0.0
H2100 H 0.00716 0.53195 0.96077 0.0
H2101 H 0.01263 0.46966 0.94681 0.0
H2102 H 0.97296 0.5267 0.92034 0.0
H2103 H 0.00252 0.54807 0.9189 0.0
H2104 H 0.99016 0.5464 0.94014 0.0
H2105 H 0.98072 0.45082 0.90589 0.0
H2106 H 0.00581 0.45212 0.91691 0.0
H2107 H 0.00841 0.47119 0.89916 0.0
C2108 C 0.49551 0.49792 0.86787 0.0
C2109 C 0.51824 0.50894 0.86333 0.0
C2110 C 0.49048 0.50076 0.88563 0.0
C2111 C 0.50859 0.51552 0.8991 0.0
C2112 C 0.53138 0.52836 0.89429 0.0
C2113 C 0.53599 0.52479 0.87646 0.0
C2114 C 0.46597 0.48645 0.89025 0.0
C2115 C 0.55101 0.54487 0.90821 0.0
C2116 C 0.49092 0.52691 0.94488 0.0
C2117 C 0.49235 0.50961 0.9546 0.0
C2118 C 0.49695 0.52975 0.92691 0.0
C2119 C 0.50399 0.51452 0.91852 0.0
C2120 C 0.50547 0.49708 0.92841 0.0
C2121 C 0.49974 0.49495 0.94635 0.0
C2122 C 0.49572 0.5489 0.91689 0.0
C2123 C 0.5127 0.48031 0.91995 0.0
H2124 H 0.48163 0.48622 0.85768 0.0
H2125 H 0.5536 0.53344 0.87309 0.0
H2126 H 0.46428 0.47226 0.89895 0.0
H2127 H 0.46108 0.49808 0.89808 0.0
H2128 H 0.45368 0.47772 0.87793 0.0
H2129 H 0.56768 0.55402 0.9022 0.0
H2130 H 0.54767 0.55867 0.91457 0.0
H2131 H 0.55243 0.53457 0.91923 0.0
H2132 H 0.48535 0.53834 0.95139 0.0
H2133 H 0.50068 0.48143 0.95386 0.0
H2134 H 0.48255 0.54046 0.90511 0.0
H2135 H 0.51237 0.56056 0.91146 0.0
H2136 H 0.4914 0.56028 0.92574 0.0
H2137 H 0.50084 0.46969 0.90777 0.0
H2138 H 0.51285 0.4677 0.92953 0.0
H2139 H 0.53013 0.4908 0.91541 0.0
C2140 C 0.5359 0.00922 0.87343 0.0
C2141 C 0.51822 0.00744 0.86139 0.0
C2142 C 0.53182 0.00225 0.89113 0.0
C2143 C 0.50963 0.99364 0.89694 0.0
C2144 C 0.49146 0.99049 0.88451 0.0
C2145 C 0.49594 0.99719 0.86685 0.0
C2146 C 0.55155 0.0055 0.90394 0.0
C2147 C 0.46762 0.98168 0.89022 0.0
C2148 C 0.49169 0.96645 0.94173 0.0
C2149 C 0.49512 0.98647 0.95279 0.0
C2150 C 0.49732 0.96862 0.92363 0.0
C2151 C 0.50599 0.99119 0.9165 0.0
C2152 C 0.50978 0.01148 0.92779 0.0
C2153 C 0.50449 0.00888 0.94583 0.0
C2154 C 0.49372 0.9468 0.91209 0.0
C2155 C 0.51868 0.03582 0.9207 0.0
H2156 H 0.55318 0.01715 0.86936 0.0
H2157 H 0.48207 0.99516 0.85746 0.0
H2158 H 0.5572 0.02142 0.9138 0.0
H2159 H 0.54616 0.9897 0.91184 0.0
H2160 H 0.56646 0.00822 0.89659 0.0
H2161 H 0.45501 0.97828 0.87853 0.0
H2162 H 0.46162 0.96489 0.89696 0.0
H2163 H 0.46792 0.99531 0.90022 0.0
H2164 H 0.48466 0.94917 0.94721 0.0
H2165 H 0.50716 0.02441 0.95437 0.0
H2166 H 0.50956 0.95093 0.9056 0.0
H2167 H 0.47993 0.94169 0.90102 0.0
H2168 H 0.48893 0.93118 0.92012 0.0
H2169 H 0.5355 0.04172 0.9153 0.0
H2170 H 0.52078 0.04976 0.93135 0.0
H2171 H 0.50667 0.03467 0.90933 0.0
C2172 C 0.1426 0.3387 0.46755 0.0
C2173 C 0.15729 0.33339 0.47791 0.0
C2174 C 0.14643 0.34464 0.44961 0.0
C2175 C 0.16568 0.34581 0.44198 0.0
C2176 C 0.18129 0.34185 0.45266 0.0
C2177 C 0.17677 0.33542 0.47039 0.0
C2178 C 0.12923 0.34839 0.43851 0.0
C2179 C 0.20215 0.34313 0.44505 0.0
C2180 C 0.16365 0.33016 0.39172 0.0
C2181 C 0.17641 0.35283 0.38542 0.0
C2182 C 0.15908 0.32776 0.40993 0.0
C2183 C 0.16831 0.34855 0.42233 0.0
C2184 C 0.18123 0.37156 0.41607 0.0
C2185 C 0.18499 0.37345 0.39758 0.0
C2186 C 0.14488 0.30288 0.41595 0.0
C2187 C 0.19163 0.39407 0.42899 0.0
H2188 H 0.12777 0.33769 0.47332 0.0
H2189 H 0.18808 0.33099 0.47804 0.0
H2190 H 0.13806 0.36514 0.43167 0.0
H2191 H 0.11987 0.33332 0.42772 0.0
H2192 H 0.11652 0.34931 0.44694 0.0
H2193 H 0.21397 0.34244 0.45573 0.0
H2194 H 0.19668 0.32785 0.4346 0.0
H2195 H 0.21171 0.3599 0.43834 0.0
H2196 H 0.15758 0.31416 0.38248 0.0
H2197 H 0.195 0.39099 0.39273 0.0
H2198 H 0.13071 0.30185 0.42352 0.0
H2199 H 0.1557 0.29889 0.4253 0.0
H2200 H 0.13736 0.28878 0.40431 0.0
H2201 H 0.17827 0.39448 0.43684 0.0
H2202 H 0.20004 0.41062 0.42181 0.0
H2203 H 0.20459 0.39417 0.43893 0.0
C2204 C 0.70821 0.84013 0.45947 0.0
C2205 C 0.69158 0.83101 0.47185 0.0
C2206 C 0.70194 0.83965 0.441 0.0
C2207 C 0.67846 0.82939 0.43483 0.0
C2208 C 0.66156 0.81941 0.44724 0.0
C2209 C 0.66836 0.8206 0.46569 0.0
C2210 C 0.72056 0.85121 0.42837 0.0
C2211 C 0.63634 0.80796 0.4411 0.0
C2212 C 0.66261 0.85021 0.3923 0.0
C2213 C 0.65832 0.83165 0.37917 0.0
C2214 C 0.66934 0.84976 0.41046 0.0
C2215 C 0.67159 0.83014 0.41558 0.0
C2216 C 0.66717 0.81129 0.40235 0.0
C2217 C 0.6605 0.81224 0.38426 0.0
C2218 C 0.67425 0.87038 0.42413 0.0
C2219 C 0.66964 0.79024 0.40729 0.0
H2220 H 0.72619 0.84846 0.46436 0.0
H2221 H 0.65557 0.8135 0.47536 0.0
H2222 H 0.71587 0.84019 0.41517 0.0
H2223 H 0.72275 0.86892 0.42556 0.0
H2224 H 0.73727 0.85405 0.43434 0.0
H2225 H 0.62535 0.79973 0.45224 0.0
H2226 H 0.63267 0.82165 0.43595 0.0
H2227 H 0.63154 0.79389 0.42972 0.0
H2228 H 0.66102 0.86529 0.38832 0.0
H2229 H 0.65702 0.79782 0.37408 0.0
H2230 H 0.69211 0.87876 0.43051 0.0
H2231 H 0.66271 0.86368 0.43515 0.0
H2232 H 0.67196 0.88441 0.41788 0.0
H2233 H 0.68742 0.79667 0.41316 0.0
H2234 H 0.66565 0.7771 0.39537 0.0
H2235 H 0.65803 0.78091 0.41782 0.0
C2236 C 0.16778 0.8385 0.46711 0.0
C2237 C 0.14991 0.84302 0.47007 0.0
C2238 C 0.17385 0.83675 0.44951 0.0
C2239 C 0.16182 0.83972 0.43455 0.0
C2240 C 0.14344 0.84384 0.43743 0.0
C2241 C 0.1377 0.84541 0.45518 0.0
C2242 C 0.19342 0.83215 0.44695 0.0
C2243 C 0.13042 0.84768 0.42198 0.0
C2244 C 0.19242 0.859 0.39182 0.0
C2245 C 0.18228 0.83721 0.38089 0.0
C2246 C 0.18567 0.86015 0.40926 0.0
C2247 C 0.16878 0.83889 0.41597 0.0
C2248 C 0.15864 0.81679 0.40497 0.0
C2249 C 0.16553 0.81624 0.38749 0.0
C2250 C 0.19633 0.88415 0.42038 0.0
C2251 C 0.1405 0.7938 0.41163 0.0
H2252 H 0.1771 0.83644 0.47861 0.0
H2253 H 0.1241 0.84929 0.45746 0.0
H2254 H 0.18753 0.81592 0.43738 0.0
H2255 H 0.20734 0.84749 0.44088 0.0
H2256 H 0.20061 0.82961 0.45995 0.0
H2257 H 0.11292 0.84304 0.42533 0.0
H2258 H 0.13976 0.8669 0.41941 0.0
H2259 H 0.12893 0.83698 0.40922 0.0
H2260 H 0.20516 0.87527 0.38654 0.0
H2261 H 0.15775 0.79941 0.37894 0.0
H2262 H 0.20482 0.88349 0.43342 0.0
H2263 H 0.18277 0.88829 0.42371 0.0
H2264 H 0.20915 0.899 0.41312 0.0
H2265 H 0.14821 0.78884 0.42302 0.0
H2266 H 0.13268 0.77867 0.40076 0.0
H2267 H 0.12672 0.79633 0.41695 0.0
C2268 C 0.62046 0.82087 0.20404 0.0
C2269 C 0.63617 0.83248 0.19134 0.0
C2270 C 0.62791 0.82271 0.22243 0.0
C2271 C 0.65167 0.83605 0.22811 0.0
C2272 C 0.66755 0.84833 0.2154 0.0
C2273 C 0.65957 0.84655 0.19716 0.0
C2274 C 0.61041 0.80988 0.23567 0.0
C2275 C 0.69303 0.8625 0.22092 0.0
C2276 C 0.67062 0.85307 0.2786 0.0
C2277 C 0.67397 0.83422 0.28329 0.0
C2278 C 0.66322 0.8539 0.2607 0.0
C2279 C 0.65995 0.83589 0.2471 0.0
C2280 C 0.66419 0.81732 0.25167 0.0
C2281 C 0.67104 0.81665 0.26976 0.0
C2282 C 0.65874 0.8739 0.2564 0.0
C2283 C 0.66116 0.79795 0.23752 0.0
H2284 H 0.60233 0.81017 0.19953 0.0
H2285 H 0.67171 0.85539 0.18728 0.0
H2286 H 0.61244 0.79504 0.2406 0.0
H2287 H 0.61318 0.82236 0.24771 0.0
H2288 H 0.59255 0.80226 0.22945 0.0
H2289 H 0.703 0.87191 0.20959 0.0
H2290 H 0.69685 0.87597 0.23251 0.0
H2291 H 0.69897 0.85025 0.22553 0.0
H2292 H 0.67346 0.86701 0.28901 0.0
H2293 H 0.67378 0.80214 0.27336 0.0
H2294 H 0.64177 0.86655 0.24857 0.0
H2295 H 0.67188 0.8861 0.24781 0.0
H2296 H 0.65922 0.88459 0.26888 0.0
H2297 H 0.64296 0.78741 0.23182 0.0
H2298 H 0.6662 0.78545 0.24315 0.0
H2299 H 0.67159 0.80616 0.2261 0.0
C2300 C 0.16726 0.83382 0.19982 0.0
C2301 C 0.18472 0.82896 0.19602 0.0
C2302 C 0.16163 0.83492 0.21767 0.0
C2303 C 0.17364 0.83085 0.23203 0.0
C2304 C 0.19161 0.82639 0.22831 0.0
C2305 C 0.19696 0.82554 0.21032 0.0
C2306 C 0.14255 0.83999 0.22114 0.0
C2307 C 0.2046 0.82142 0.24308 0.0
C2308 C 0.17126 0.85207 0.28027 0.0
C2309 C 0.15435 0.83082 0.28645 0.0
C2310 C 0.17777 0.85234 0.26257 0.0
C2311 C 0.16704 0.83082 0.25085 0.0
C2312 C 0.14992 0.80929 0.25709 0.0
C2313 C 0.14363 0.80959 0.27482 0.0
C2314 C 0.19617 0.8756 0.25643 0.0
C2315 C 0.13853 0.78588 0.24514 0.0
H2316 H 0.15792 0.83667 0.18877 0.0
H2317 H 0.21024 0.82141 0.20738 0.0
H2318 H 0.12848 0.82445 0.22691 0.0
H2319 H 0.14891 0.85576 0.23129 0.0
H2320 H 0.13541 0.84353 0.20857 0.0
H2321 H 0.22172 0.82539 0.2392 0.0
H2322 H 0.20693 0.83201 0.25612 0.0
H2323 H 0.1947 0.80214 0.2454 0.0
H2324 H 0.17945 0.86848 0.28934 0.0
H2325 H 0.13074 0.7931 0.27973 0.0
H2326 H 0.18866 0.88129 0.2454 0.0
H2327 H 0.20977 0.87304 0.25079 0.0
H2328 H 0.20417 0.89025 0.26767 0.0
H2329 H 0.13016 0.78765 0.23246 0.0
H2330 H 0.12546 0.77076 0.25202 0.0
H2331 H 0.15165 0.78137 0.24116 0.0
C2332 C 0.16181 0.32624 0.20166 0.0
C2333 C 0.18413 0.33763 0.19622 0.0
C2334 C 0.15767 0.31962 0.21937 0.0
C2335 C 0.17624 0.32393 0.23185 0.0
C2336 C 0.19853 0.33355 0.22604 0.0
C2337 C 0.20226 0.34049 0.20831 0.0
C2338 C 0.13369 0.30974 0.22509 0.0
C2339 C 0.21868 0.33793 0.23887 0.0
C2340 C 0.17049 0.3393 0.28054 0.0
C2341 C 0.16186 0.31707 0.28771 0.0
C2342 C 0.17572 0.34182 0.26249 0.0
C2343 C 0.17277 0.3217 0.25144 0.0
C2344 C 0.16499 0.2994 0.25883 0.0
C2345 C 0.15928 0.29724 0.2769 0.0
C2346 C 0.18359 0.36584 0.2551 0.0
C2347 C 0.1624 0.27782 0.24759 0.0
H2348 H 0.14762 0.32334 0.19224 0.0
H2349 H 0.21958 0.34929 0.20427 0.0
H2350 H 0.12849 0.2932 0.23201 0.0
H2351 H 0.13331 0.32311 0.23494 0.0
H2352 H 0.12086 0.30555 0.21338 0.0
H2353 H 0.23371 0.34112 0.2315 0.0
H2354 H 0.22387 0.35395 0.2485 0.0
H2355 H 0.21397 0.32246 0.24703 0.0
H2356 H 0.17251 0.35467 0.28891 0.0
H2357 H 0.15285 0.28013 0.28256 0.0
H2358 H 0.1713 0.36388 0.24364 0.0
H2359 H 0.20052 0.37241 0.24974 0.0
H2360 H 0.18505 0.37966 0.26557 0.0
H2361 H 0.14833 0.27175 0.23659 0.0
H2362 H 0.15851 0.2626 0.25587 0.0
H2363 H 0.17833 0.28265 0.241 0.0
C2364 C 0.8231 0.66033 0.7985 0.0
C2365 C 0.80574 0.63654 0.79943 0.0
C2366 C 0.82947 0.66945 0.7817 0.0
C2367 C 0.81849 0.65425 0.76548 0.0
C2368 C 0.80036 0.63044 0.76633 0.0
C2369 C 0.7941 0.6219 0.78335 0.0
C2370 C 0.84845 0.69512 0.78131 0.0
C2371 C 0.78838 0.61359 0.74935 0.0
C2372 C 0.8256 0.68158 0.72045 0.0
C2373 C 0.84375 0.67932 0.71437 0.0
C2374 C 0.8172 0.6736 0.73716 0.0
C2375 C 0.82704 0.66281 0.74776 0.0
C2376 C 0.84537 0.66044 0.74156 0.0
C2377 C 0.85375 0.66909 0.72502 0.0
C2378 C 0.79786 0.67669 0.74346 0.0
C2379 C 0.85585 0.6484 0.75222 0.0
H2380 H 0.83189 0.67169 0.81098 0.0
H2381 H 0.78078 0.60344 0.7841 0.0
H2382 H 0.86361 0.69542 0.77595 0.0
H2383 H 0.84287 0.7046 0.77206 0.0
H2384 H 0.85377 0.70516 0.79501 0.0
H2385 H 0.77248 0.59712 0.75213 0.0
H2386 H 0.78391 0.6226 0.73887 0.0
H2387 H 0.80012 0.60818 0.74354 0.0
H2388 H 0.81796 0.68953 0.7121 0.0
H2389 H 0.86758 0.66706 0.7201 0.0
H2390 H 0.80378 0.6886 0.75633 0.0
H2391 H 0.78334 0.65914 0.74633 0.0
H2392 H 0.79148 0.68452 0.73325 0.0
H2393 H 0.86349 0.65851 0.76573 0.0
H2394 H 0.86938 0.64717 0.74513 0.0
H2395 H 0.84236 0.63 0.75457 0.0
C2396 C 0.37077 0.19724 0.80049 0.0
C2397 C 0.36406 0.17705 0.81031 0.0
C2398 C 0.36379 0.19479 0.78192 0.0
C2399 C 0.34882 0.17166 0.77304 0.0
C2400 C 0.34166 0.15121 0.7828 0.0
C2401 C 0.34973 0.15411 0.80118 0.0
C2402 C 0.37238 0.21702 0.77182 0.0
C2403 C 0.32527 0.12628 0.77388 0.0
C2404 C 0.31464 0.17081 0.7303 0.0
C2405 C 0.32638 0.16697 0.71669 0.0
C2406 C 0.32117 0.17134 0.74872 0.0
C2407 C 0.34048 0.16898 0.75359 0.0
C2408 C 0.35236 0.16507 0.73984 0.0
C2409 C 0.34483 0.16364 0.72154 0.0
C2410 C 0.30759 0.17472 0.76298 0.0
C2411 C 0.37358 0.16345 0.74443 0.0
H2412 H 0.38132 0.21513 0.80729 0.0
H2413 H 0.34477 0.13827 0.80832 0.0
H2414 H 0.37992 0.21492 0.75937 0.0
H2415 H 0.35787 0.21963 0.76743 0.0
H2416 H 0.38552 0.23345 0.78028 0.0
H2417 H 0.32063 0.11231 0.78354 0.0
H2418 H 0.30933 0.12539 0.76808 0.0
H2419 H 0.33302 0.122 0.76246 0.0
H2420 H 0.30028 0.1733 0.72651 0.0
H2421 H 0.35404 0.16101 0.71104 0.0
H2422 H 0.31833 0.19229 0.77106 0.0
H2423 H 0.30255 0.16059 0.77252 0.0
H2424 H 0.29186 0.17408 0.75691 0.0
H2425 H 0.38711 0.18059 0.75183 0.0
H2426 H 0.38047 0.15977 0.73213 0.0
H2427 H 0.36982 0.14907 0.75353 0.0
C2428 C 0.81154 0.15284 0.79661 0.0
C2429 C 0.81707 0.17573 0.80409 0.0
C2430 C 0.8161 0.14927 0.77878 0.0
C2431 C 0.82639 0.16906 0.76824 0.0
C2432 C 0.83178 0.19215 0.77565 0.0
C2433 C 0.82704 0.1952 0.79349 0.0
C2434 C 0.81004 0.12438 0.77125 0.0
C2435 C 0.84258 0.21366 0.76474 0.0
C2436 C 0.85818 0.16711 0.728 0.0
C2437 C 0.84209 0.16271 0.71343 0.0
C2438 C 0.8531 0.16867 0.746 0.0
C2439 C 0.83143 0.16572 0.74938 0.0
C2440 C 0.81497 0.16076 0.73466 0.0
C2441 C 0.82059 0.15944 0.71686 0.0
C2442 C 0.87109 0.17405 0.76138 0.0
C2443 C 0.79167 0.15749 0.73767 0.0
H2444 H 0.80403 0.13779 0.80481 0.0
H2445 H 0.83101 0.21285 0.79912 0.0
H2446 H 0.79807 0.11876 0.75875 0.0
H2447 H 0.8257 0.12443 0.76737 0.0
H2448 H 0.80195 0.11087 0.78116 0.0
H2449 H 0.84567 0.23039 0.77251 0.0
H2450 H 0.85918 0.21643 0.76051 0.0
H2451 H 0.83134 0.21045 0.75217 0.0
H2452 H 0.87486 0.16972 0.72533 0.0
H2453 H 0.8083 0.15644 0.70563 0.0
H2454 H 0.86398 0.16023 0.77117 0.0
H2455 H 0.87623 0.19161 0.76889 0.0
H2456 H 0.88664 0.17469 0.7565 0.0
H2457 H 0.7831 0.14364 0.74722 0.0
H2458 H 0.78031 0.15211 0.7248 0.0
H2459 H 0.79367 0.17453 0.74393 0.0
C2460 C 0.32922 0.17622 0.53505 0.0
C2461 C 0.30617 0.16833 0.52976 0.0
C2462 C 0.33697 0.17869 0.55343 0.0
C2463 C 0.32114 0.17259 0.56675 0.0
C2464 C 0.29795 0.1653 0.56151 0.0
C2465 C 0.29077 0.16346 0.54303 0.0
C2466 C 0.36195 0.18708 0.55853 0.0
C2467 C 0.2805 0.15831 0.57529 0.0
C2468 C 0.33648 0.15128 0.60921 0.0
C2469 C 0.34438 0.17142 0.62172 0.0
C2470 C 0.32829 0.15125 0.59139 0.0
C2471 C 0.32857 0.1721 0.58591 0.0
C2472 C 0.33662 0.19253 0.59854 0.0
C2473 C 0.34431 0.19187 0.6164 0.0
C2474 C 0.31931 0.12889 0.57845 0.0
C2475 C 0.3374 0.21515 0.59316 0.0
H2476 H 0.34113 0.18017 0.52475 0.0
H2477 H 0.2729 0.1572 0.53887 0.0
H2478 H 0.36913 0.202 0.56953 0.0
H2479 H 0.36361 0.17219 0.5638 0.0
H2480 H 0.37239 0.19325 0.54679 0.0
H2481 H 0.26358 0.15474 0.56919 0.0
H2482 H 0.27817 0.14188 0.58121 0.0
H2483 H 0.28661 0.17266 0.58663 0.0
H2484 H 0.3363 0.13537 0.61346 0.0
H2485 H 0.35064 0.20749 0.62613 0.0
H2486 H 0.33014 0.13276 0.56695 0.0
H2487 H 0.30163 0.1231 0.57266 0.0
H2488 H 0.31908 0.11378 0.58516 0.0
H2489 H 0.34832 0.22202 0.58177 0.0
H2490 H 0.34423 0.22948 0.60461 0.0
H2491 H 0.31996 0.21123 0.58826 0.0
C2492 C 0.86425 0.18959 0.53528 0.0
C2493 C 0.84606 0.17193 0.52327 0.0
C2494 C 0.86124 0.19317 0.5536 0.0
C2495 C 0.83973 0.1783 0.56015 0.0
C2496 C 0.82107 0.16124 0.54795 0.0
C2497 C 0.82437 0.15861 0.52963 0.0
C2498 C 0.88136 0.21207 0.5661 0.0
C2499 C 0.79795 0.14469 0.55443 0.0
C2500 C 0.83735 0.16148 0.60847 0.0
C2501 C 0.82668 0.17313 0.61634 0.0
C2502 C 0.84239 0.16368 0.59034 0.0
C2503 C 0.8372 0.17847 0.57998 0.0
C2504 C 0.8277 0.19147 0.58821 0.0
C2505 C 0.82216 0.18832 0.60628 0.0
C2506 C 0.85212 0.14914 0.58205 0.0
C2507 C 0.82285 0.20817 0.57779 0.0
H2508 H 0.88112 0.19998 0.53061 0.0
H2509 H 0.81 0.14548 0.52038 0.0
H2510 H 0.87592 0.22215 0.57523 0.0
H2511 H 0.88841 0.20334 0.57481 0.0
H2512 H 0.89533 0.22498 0.55841 0.0
H2513 H 0.78499 0.13304 0.54307 0.0
H2514 H 0.79967 0.13303 0.56414 0.0
H2515 H 0.79148 0.15523 0.56176 0.0
H2516 H 0.84091 0.14976 0.61627 0.0
H2517 H 0.81416 0.19755 0.61249 0.0
H2518 H 0.86834 0.16106 0.57618 0.0
H2519 H 0.83989 0.13627 0.5708 0.0
H2520 H 0.85557 0.13889 0.59212 0.0
H2521 H 0.8379 0.22009 0.5706 0.0
H2522 H 0.81857 0.21944 0.5868 0.0
H2523 H 0.80821 0.19757 0.56734 0.0
C2524 C 0.8607 0.70824 0.55204 0.0
C2525 C 0.85935 0.69461 0.53616 0.0
C2526 C 0.85476 0.69779 0.56845 0.0
C2527 C 0.84685 0.67294 0.56886 0.0
C2528 C 0.84577 0.65915 0.55289 0.0
C2529 C 0.85228 0.67025 0.53673 0.0
C2530 C 0.85613 0.71337 0.58503 0.0
C2531 C 0.83688 0.63254 0.55271 0.0
C2532 C 0.84664 0.65097 0.61544 0.0
C2533 C 0.82479 0.64539 0.62001 0.0
C2534 C 0.85399 0.65939 0.59857 0.0
C2535 C 0.83871 0.66133 0.58581 0.0
C2536 C 0.81605 0.65402 0.58993 0.0
C2537 C 0.8094 0.64626 0.60705 0.0
C2538 C 0.87827 0.66683 0.59474 0.0
C2539 C 0.79911 0.65539 0.57658 0.0
H2540 H 0.86631 0.72714 0.55162 0.0
H2541 H 0.85107 0.65969 0.52437 0.0
H2542 H 0.83966 0.71325 0.58532 0.0
H2543 H 0.85919 0.7069 0.59788 0.0
H2544 H 0.86995 0.73227 0.58454 0.0
H2545 H 0.83691 0.62435 0.53912 0.0
H2546 H 0.84751 0.62919 0.56275 0.0
H2547 H 0.8191 0.62337 0.55676 0.0
H2548 H 0.85833 0.64971 0.62535 0.0
H2549 H 0.79239 0.6417 0.61051 0.0
H2550 H 0.88609 0.68346 0.58765 0.0
H2551 H 0.87815 0.65243 0.58575 0.0
H2552 H 0.88934 0.66983 0.6074 0.0
H2553 H 0.80423 0.67448 0.57552 0.0
H2554 H 0.7814 0.6459 0.58079 0.0
H2555 H 0.79908 0.64753 0.56286 0.0
loop_
_geom_bond_atom_site_label_1
_geom_bond_atom_site_label_2
_geom_bond_distance
_geom_bond_site_symmetry_2
_ccdc_geom_bond_type
C0 C1 1.384 . S
C0 H13 0.947 . S
C0 C35 1.382 . S
C1 C0 1.384 . S
C1 C2 1.378 . S
C2 C1 1.378 . S
C2 C3 1.378 . S
C2 H14 0.952 . S
C3 C2 1.378 . S
C3 H15 0.950 . S
C3 C34 1.383 . S
H4 C23 0.947 . S
H5 C24 0.946 . S
H6 C26 0.953 . S
H7 C27 0.945 . S
H8 C29 0.952 . S
H9 C30 0.949 . S
H10 C32 0.950 . S
H11 C33 0.948 . S
H12 C35 0.951 . S
H13 C0 0.947 . S
H14 C2 0.952 . S
H15 C3 0.950 . S
N16 C19 1.382 . S
N16 C21 1.363 . S
N17 C19 1.371 . S
N17 C20 1.372 . S
N18 C20 1.361 . S
N18 C21 1.377 . S
C19 N16 1.382 . S
C19 N17 1.371 . S
C19 C22 1.480 . S
C20 N17 1.372 . S
C20 N18 1.361 . S
C20 C28 1.457 . S
C21 N16 1.363 . S
C21 N18 1.377 . S
C21 C34 1.479 . S
C22 C19 1.480 . S
C22 C23 1.383 . S
C22 C27 1.385 . S
C23 H4 0.947 . S
C23 C22 1.383 . S
C23 C24 1.388 . S
C24 H5 0.946 . S
C24 C23 1.388 . S
C24 C25 1.384 . S
C25 C24 1.384 . S
C25 C26 1.377 . S
C26 H6 0.953 . S
C26 C25 1.377 . S
C26 C27 1.369 . S
C27 H7 0.945 . S
C27 C22 1.385 . S
C27 C26 1.369 . S
C28 C20 1.457 . S
C28 C29 1.372 . S
C28 C33 1.364 . S
C29 H8 0.952 . S
C29 C28 1.372 . S
C29 C30 1.389 . S
C30 H9 0.949 . S
C30 C29 1.389 . S
C30 C31 1.387 . S
C31 C30 1.387 . S
C31 C32 1.372 . S
C32 H10 0.950 . S
C32 C31 1.372 . S
C32 C33 1.379 . S
C33 H11 0.948 . S
C33 C28 1.364 . S
C33 C32 1.379 . S
C34 C3 1.383 . S
C34 C21 1.479 . S
C34 C35 1.398 . S
C35 C0 1.382 . S
C35 H12 0.951 . S
C35 C34 1.398 . S
C36 C37 1.384 . S
C36 H49 0.947 . S
C36 C71 1.382 . S
C37 C36 1.384 . S
C37 C38 1.378 . S
C38 C37 1.378 . S
C38 C39 1.378 . S
C38 H50 0.952 . S
C39 C38 1.378 . S
C39 H51 0.950 . S
C39 C70 1.383 . S
H40 C59 0.947 . S
H41 C60 0.946 . S
H42 C62 0.953 . S
H43 C63 0.945 . S
H44 C65 0.952 . S
H45 C66 0.949 . S
H46 C68 0.950 . S
H47 C69 0.948 . S
H48 C71 0.951 . S
H49 C36 0.947 . S
H50 C38 0.952 . S
H51 C39 0.950 . S
N52 C55 1.382 . S
N52 C57 1.363 . S
N53 C55 1.371 . S
N53 C56 1.372 . S
N54 C56 1.361 . S
N54 C57 1.377 . S
C55 N52 1.382 . S
C55 N53 1.371 . S
C55 C58 1.480 . S
C56 N53 1.372 . S
C56 N54 1.361 . S
C56 C64 1.457 . S
C57 N52 1.363 . S
C57 N54 1.377 . S
C57 C70 1.479 . S
C58 C55 1.480 . S
C58 C59 1.383 . S
C58 C63 1.385 . S
C59 H40 0.947 . S
C59 C58 1.383 . S
C59 C60 1.388 . S
C60 H41 0.946 . S
C60 C59 1.388 . S
C60 C61 1.384 . S
C61 C60 1.384 . S
C61 C62 1.377 . S
C62 H42 0.953 . S
C62 C61 1.377 . S
C62 C63 1.369 . S
C63 H43 0.945 . S
C63 C58 1.385 . S
C63 C62 1.369 . S
C64 C56 1.457 . S
C64 C65 1.372 . S
C64 C69 1.364 . S
C65 H44 0.952 . S
C65 C64 1.372 . S
C65 C66 1.389 . S
C66 H45 0.949 . S
C66 C65 1.389 . S
C66 C67 1.387 . S
C67 C66 1.387 . S
C67 C68 1.372 . S
C68 H46 0.950 . S
C68 C67 1.372 . S
C68 C69 1.379 . S
C69 H47 0.948 . S
C69 C64 1.364 . S
C69 C68 1.379 . S
C70 C39 1.383 . S
C70 C57 1.479 . S
C70 C71 1.398 . S
C71 C36 1.382 . S
C71 H48 0.951 . S
C71 C70 1.398 . S
C72 C73 1.384 . S
C72 H85 0.947 . S
C72 C107 1.382 . S
C73 C72 1.384 . S
C73 C74 1.378 . S
C74 C73 1.378 . S
C74 C75 1.378 . S
C74 H86 0.952 . S
C75 C74 1.378 . S
C75 H87 0.950 . S
C75 C106 1.383 . S
H76 C95 0.947 . S
H77 C96 0.946 . S
H78 C98 0.953 . S
H79 C99 0.945 . S
H80 C101 0.952 . S
H81 C102 0.949 . S
H82 C104 0.950 . S
H83 C105 0.948 . S
H84 C107 0.951 . S
H85 C72 0.947 . S
H86 C74 0.952 . S
H87 C75 0.950 . S
N88 C91 1.382 . S
N88 C93 1.363 . S
N89 C91 1.371 . S
N89 C92 1.372 . S
N90 C92 1.361 . S
N90 C93 1.377 . S
C91 N88 1.382 . S
C91 N89 1.371 . S
C91 C94 1.480 . S
C92 N89 1.372 . S
C92 N90 1.361 . S
C92 C100 1.457 . S
C93 N88 1.363 . S
C93 N90 1.377 . S
C93 C106 1.479 . S
C94 C91 1.480 . S
C94 C95 1.383 . S
C94 C99 1.385 . S
C95 H76 0.947 . S
C95 C94 1.383 . S
C95 C96 1.388 . S
C96 H77 0.946 . S
C96 C95 1.388 . S
C96 C97 1.384 . S
C97 C96 1.384 . S
C97 C98 1.377 . S
C98 H78 0.953 . S
C98 C97 1.377 . S
C98 C99 1.369 . S
C99 H79 0.945 . S
C99 C94 1.385 . S
C99 C98 1.369 . S
C100 C92 1.457 . S
C100 C101 1.372 . S
C100 C105 1.364 . S
C101 H80 0.952 . S
C101 C100 1.372 . S
C101 C102 1.389 . S
C102 H81 0.949 . S
C102 C101 1.389 . S
C102 C103 1.387 . S
C103 C102 1.387 . S
C103 C104 1.372 . S
C104 H82 0.950 . S
C104 C103 1.372 . S
C104 C105 1.379 . S
C105 H83 0.948 . S
C105 C100 1.364 . S
C105 C104 1.379 . S
C106 C75 1.383 . S
C106 C93 1.479 . S
C106 C107 1.398 . S
C107 C72 1.382 . S
C107 H84 0.951 . S
C107 C106 1.398 . S
C108 C109 1.384 . S
C108 H121 0.947 . S
C108 C143 1.382 . S
C109 C108 1.384 . S
C109 C110 1.378 . S
C110 C109 1.378 . S
C110 C111 1.378 . S
C110 H122 0.952 . S
C111 C110 1.378 . S
C111 H123 0.950 . S
C111 C142 1.383 . S
H112 C131 0.947 . S
H113 C132 0.946 . S
H114 C134 0.953 . S
H115 C135 0.945 . S
H116 C137 0.952 . S
H117 C138 0.949 . S
H118 C140 0.950 . S
H119 C141 0.948 . S
H120 C143 0.951 . S
H121 C108 0.947 . S
H122 C110 0.952 . S
H123 C111 0.950 . S
N124 C127 1.382 . S
N124 C129 1.363 . S
N125 C127 1.371 . S
N125 C128 1.372 . S
N126 C128 1.361 . S
N126 C129 1.377 . S
C127 N124 1.382 . S
C127 N125 1.371 . S
C127 C130 1.480 . S
C128 N125 1.372 . S
C128 N126 1.361 . S
C128 C136 1.457 . S
C129 N124 1.363 . S
C129 N126 1.377 . S
C129 C142 1.479 . S
C130 C127 1.480 . S
C130 C131 1.383 . S
C130 C135 1.385 . S
C131 H112 0.947 . S
C131 C130 1.383 . S
C131 C132 1.388 . S
C132 H113 0.946 . S
C132 C131 1.388 . S
C132 C133 1.384 . S
C133 C132 1.384 . S
C133 C134 1.377 . S
C134 H114 0.953 . S
C134 C133 1.377 . S
C134 C135 1.369 . S
C135 H115 0.945 . S
C135 C130 1.385 . S
C135 C134 1.369 . S
C136 C128 1.457 . S
C136 C137 1.372 . S
C136 C141 1.364 . S
C137 H116 0.952 . S
C137 C136 1.372 . S
C137 C138 1.389 . S
C138 H117 0.949 . S
C138 C137 1.389 . S
C138 C139 1.387 . S
C139 C138 1.387 . S
C139 C140 1.372 . S
C140 H118 0.950 . S
C140 C139 1.372 . S
C140 C141 1.379 . S
C141 H119 0.948 . S
C141 C136 1.364 . S
C141 C140 1.379 . S
C142 C111 1.383 . S
C142 C129 1.479 . S
C142 C143 1.398 . S
C143 C108 1.382 . S
C143 H120 0.951 . S
C143 C142 1.398 . S
C144 C145 1.384 . S
C144 H157 0.947 . S
C144 C179 1.382 . S
C145 C144 1.384 . S
C145 C146 1.378 . S
C146 C145 1.378 . S
C146 C147 1.378 . S
C146 H158 0.952 . S
C147 C146 1.378 . S
C147 H159 0.950 . S
C147 C178 1.383 . S
H148 C167 0.947 . S
H149 C168 0.946 . S
H150 C170 0.953 . S
H151 C171 0.945 . S
H152 C173 0.952 . S
H153 C174 0.949 . S
H154 C176 0.950 . S
H155 C177 0.948 . S
H156 C179 0.951 . S
H157 C144 0.947 . S
H158 C146 0.952 . S
H159 C147 0.950 . S
N160 C163 1.382 . S
N160 C165 1.363 . S
N161 C163 1.371 . S
N161 C164 1.372 . S
N162 C164 1.361 . S
N162 C165 1.377 . S
C163 N160 1.382 . S
C163 N161 1.371 . S
C163 C166 1.480 . S
C164 N161 1.372 . S
C164 N162 1.361 . S
C164 C172 1.457 . S
C165 N160 1.363 . S
C165 N162 1.377 . S
C165 C178 1.479 . S
C166 C163 1.480 . S
C166 C167 1.383 . S
C166 C171 1.385 . S
C167 H148 0.947 . S
C167 C166 1.383 . S
C167 C168 1.388 . S
C168 H149 0.946 . S
C168 C167 1.388 . S
C168 C169 1.384 . S
C169 C168 1.384 . S
C169 C170 1.377 . S
C170 H150 0.953 . S
C170 C169 1.377 . S
C170 C171 1.369 . S
C171 H151 0.945 . S
C171 C166 1.385 . S
C171 C170 1.369 . S
C172 C164 1.457 . S
C172 C173 1.372 . S
C172 C177 1.364 . S
C173 H152 0.952 . S
C173 C172 1.372 . S
C173 C174 1.389 . S
C174 H153 0.949 . S
C174 C173 1.389 . S
C174 C175 1.387 . S
C175 C174 1.387 . S
C175 C176 1.372 . S
C176 H154 0.950 . S
C176 C175 1.372 . S
C176 C177 1.379 . S
C177 H155 0.948 . S
C177 C172 1.364 . S
C177 C176 1.379 . S
C178 C147 1.383 . S
C178 C165 1.479 . S
C178 C179 1.398 . S
C179 C144 1.382 . S
C179 H156 0.951 . S
C179 C178 1.398 . S
C180 C181 1.384 . S
C180 H193 0.947 . S
C180 C215 1.382 . S
C181 C180 1.384 . S
C181 C182 1.378 . S
C182 C181 1.378 . S
C182 C183 1.378 . S
C182 H194 0.952 . S
C183 C182 1.378 . S
C183 H195 0.950 . S
C183 C214 1.383 . S
H184 C203 0.947 . S
H185 C204 0.946 . S
H186 C206 0.953 . S
H187 C207 0.945 . S
H188 C209 0.952 . S
H189 C210 0.949 . S
H190 C212 0.950 . S
H191 C213 0.948 . S
H192 C215 0.951 . S
H193 C180 0.947 . S
H194 C182 0.952 . S
H195 C183 0.950 . S
N196 C199 1.382 . S
N196 C201 1.363 . S
N197 C199 1.371 . S
N197 C200 1.372 . S
N198 C200 1.361 . S
N198 C201 1.377 . S
C199 N196 1.382 . S
C199 N197 1.371 . S
C199 C202 1.480 . S
C200 N197 1.372 . S
C200 N198 1.361 . S
C200 C208 1.457 . S
C201 N196 1.363 . S
C201 N198 1.377 . S
C201 C214 1.479 . S
C202 C199 1.480 . S
C202 C203 1.383 . S
C202 C207 1.385 . S
C203 H184 0.947 . S
C203 C202 1.383 . S
C203 C204 1.388 . S
C204 H185 0.946 . S
C204 C203 1.388 . S
C204 C205 1.384 . S
C205 C204 1.384 . S
C205 C206 1.377 . S
C206 H186 0.953 . S
C206 C205 1.377 . S
C206 C207 1.369 . S
C207 H187 0.945 . S
C207 C202 1.385 . S
C207 C206 1.369 . S
C208 C200 1.457 . S
C208 C209 1.372 . S
C208 C213 1.364 . S
C209 H188 0.952 . S
C209 C208 1.372 . S
C209 C210 1.389 . S
C210 H189 0.949 . S
C210 C209 1.389 . S
C210 C211 1.387 . S
C211 C210 1.387 . S
C211 C212 1.372 . S
C212 H190 0.950 . S
C212 C211 1.372 . S
C212 C213 1.379 . S
C213 H191 0.948 . S
C213 C208 1.364 . S
C213 C212 1.379 . S
C214 C183 1.383 . S
C214 C201 1.479 . S
C214 C215 1.398 . S
C215 C180 1.382 . S
C215 H192 0.951 . S
C215 C214 1.398 . S
C216 C217 1.384 . S
C216 H229 0.947 . S
C216 C251 1.382 . S
C217 C216 1.384 . S
C217 C218 1.378 . S
C218 C217 1.378 . S
C218 C219 1.378 . S
C218 H230 0.952 . S
C219 C218 1.378 . S
C219 H231 0.950 . S
C219 C250 1.383 . S
H220 C239 0.947 . S
H221 C240 0.946 . S
H222 C242 0.953 . S
H223 C243 0.945 . S
H224 C245 0.952 . S
H225 C246 0.949 . S
H226 C248 0.950 . S
H227 C249 0.948 . S
H228 C251 0.951 . S
H229 C216 0.947 . S
H230 C218 0.952 . S
H231 C219 0.950 . S
N232 C235 1.382 . S
N232 C237 1.363 . S
N233 C235 1.371 . S
N233 C236 1.372 . S
N234 C236 1.361 . S
N234 C237 1.377 . S
C235 N232 1.382 . S
C235 N233 1.371 . S
C235 C238 1.480 . S
C236 N233 1.372 . S
C236 N234 1.361 . S
C236 C244 1.457 . S
C237 N232 1.363 . S
C237 N234 1.377 . S
C237 C250 1.479 . S
C238 C235 1.480 . S
C238 C239 1.383 . S
C238 C243 1.385 . S
C239 H220 0.947 . S
C239 C238 1.383 . S
C239 C240 1.388 . S
C240 H221 0.946 . S
C240 C239 1.388 . S
C240 C241 1.384 . S
C241 C240 1.384 . S
C241 C242 1.377 . S
C242 H222 0.953 . S
C242 C241 1.377 . S
C242 C243 1.369 . S
C243 H223 0.945 . S
C243 C238 1.385 . S
C243 C242 1.369 . S
C244 C236 1.457 . S
C244 C245 1.372 . S
C244 C249 1.364 . S
C245 H224 0.952 . S
C245 C244 1.372 . S
C245 C246 1.389 . S
C246 H225 0.949 . S
C246 C245 1.389 . S
C246 C247 1.387 . S
C247 C246 1.387 . S
C247 C248 1.372 . S
C248 H226 0.950 . S
C248 C247 1.372 . S
C248 C249 1.379 . S
C249 H227 0.948 . S
C249 C244 1.364 . S
C249 C248 1.379 . S
C250 C219 1.383 . S
C250 C237 1.479 . S
C250 C251 1.398 . S
C251 C216 1.382 . S
C251 H228 0.951 . S
C251 C250 1.398 . S
C252 C253 1.384 . S
C252 H265 0.947 . S
C252 C287 1.382 . S
C253 C252 1.384 . S
C253 C254 1.378 . S
C254 C253 1.378 . S
C254 C255 1.378 . S
C254 H266 0.952 . S
C255 C254 1.378 . S
C255 H267 0.950 . S
C255 C286 1.383 . S
H256 C275 0.947 . S
H257 C276 0.946 . S
H258 C278 0.953 . S
H259 C279 0.945 . S
H260 C281 0.952 . S
H261 C282 0.949 . S
H262 C284 0.950 . S
H263 C285 0.948 . S
H264 C287 0.951 . S
H265 C252 0.947 . S
H266 C254 0.952 . S
H267 C255 0.950 . S
N268 C271 1.382 . S
N268 C273 1.363 . S
N269 C271 1.371 . S
N269 C272 1.372 . S
N270 C272 1.361 . S
N270 C273 1.377 . S
C271 N268 1.382 . S
C271 N269 1.371 . S
C271 C274 1.480 . S
C272 N269 1.372 . S
C272 N270 1.361 . S
C272 C280 1.457 . S
C273 N268 1.363 . S
C273 N270 1.377 . S
C273 C286 1.479 . S
C274 C271 1.480 . S
C274 C275 1.383 . S
C274 C279 1.385 . S
C275 H256 0.947 . S
C275 C274 1.383 . S
C275 C276 1.388 . S
C276 H257 0.946 . S
C276 C275 1.388 . S
C276 C277 1.384 . S
C277 C276 1.384 . S
C277 C278 1.377 . S
C278 H258 0.953 . S
C278 C277 1.377 . S
C278 C279 1.369 . S
C279 H259 0.945 . S
C279 C274 1.385 . S
C279 C278 1.369 . S
C280 C272 1.457 . S
C280 C281 1.372 . S
C280 C285 1.364 . S
C281 H260 0.952 . S
C281 C280 1.372 . S
C281 C282 1.389 . S
C282 H261 0.949 . S
C282 C281 1.389 . S
C282 C283 1.387 . S
C283 C282 1.387 . S
C283 C284 1.372 . S
C284 H262 0.950 . S
C284 C283 1.372 . S
C284 C285 1.379 . S
C285 H263 0.948 . S
C285 C280 1.364 . S
C285 C284 1.379 . S
C286 C255 1.383 . S
C286 C273 1.479 . S
C286 C287 1.398 . S
C287 C252 1.382 . S
C287 H264 0.951 . S
C287 C286 1.398 . S
C288 C289 1.384 . S
C288 H301 0.947 . S
C288 C323 1.382 . S
C289 C288 1.384 . S
C289 C290 1.378 . S
C290 C289 1.378 . S
C290 C291 1.378 . S
C290 H302 0.952 . S
C291 C290 1.378 . S
C291 H303 0.950 . S
C291 C322 1.383 . S
H292 C311 0.947 . S
H293 C312 0.946 . S
H294 C314 0.953 . S
H295 C315 0.945 . S
H296 C317 0.952 . S
H297 C318 0.949 . S
H298 C320 0.950 . S
H299 C321 0.948 . S
H300 C323 0.951 . S
H301 C288 0.947 . S
H302 C290 0.952 . S
H303 C291 0.950 . S
N304 C307 1.382 . S
N304 C309 1.363 . S
N305 C307 1.371 . S
N305 C308 1.372 . S
N306 C308 1.361 . S
N306 C309 1.377 . S
C307 N304 1.382 . S
C307 N305 1.371 . S
C307 C310 1.480 . S
C308 N305 1.372 . S
C308 N306 1.361 . S
C308 C316 1.457 . S
C309 N304 1.363 . S
C309 N306 1.377 . S
C309 C322 1.479 . S
C310 C307 1.480 . S
C310 C311 1.383 . S
C310 C315 1.385 . S
C311 H292 0.947 . S
C311 C310 1.383 . S
C311 C312 1.388 . S
C312 H293 0.946 . S
C312 C311 1.388 . S
C312 C313 1.384 . S
C313 C312 1.384 . S
C313 C314 1.377 . S
C314 H294 0.953 . S
C314 C313 1.377 . S
C314 C315 1.369 . S
C315 H295 0.945 . S
C315 C310 1.385 . S
C315 C314 1.369 . S
C316 C308 1.457 . S
C316 C317 1.372 . S
C316 C321 1.364 . S
C317 H296 0.952 . S
C317 C316 1.372 . S
C317 C318 1.389 . S
C318 H297 0.949 . S
C318 C317 1.389 . S
C318 C319 1.387 . S
C319 C318 1.387 . S
C319 C320 1.372 . S
C320 H298 0.950 . S
C320 C319 1.372 . S
C320 C321 1.379 . S
C321 H299 0.948 . S
C321 C316 1.364 . S
C321 C320 1.379 . S
C322 C291 1.383 . S
C322 C309 1.479 . S
C322 C323 1.398 . S
C323 C288 1.382 . S
C323 H300 0.951 . S
C323 C322 1.398 . S
C324 C325 1.384 . S
C324 H337 0.947 . S
C324 C359 1.382 . S
C325 C324 1.384 . S
C325 C326 1.378 . S
C326 C325 1.378 . S
C326 C327 1.378 . S
C326 H338 0.952 . S
C327 C326 1.378 . S
C327 H339 0.950 . S
C327 C358 1.383 . S
H328 C347 0.947 . S
H329 C348 0.946 . S
H330 C350 0.953 . S
H331 C351 0.945 . S
H332 C353 0.952 . S
H333 C354 0.949 . S
H334 C356 0.950 . S
H335 C357 0.948 . S
H336 C359 0.951 . S
H337 C324 0.947 . S
H338 C326 0.952 . S
H339 C327 0.950 . S
N340 C343 1.382 . S
N340 C345 1.363 . S
N341 C343 1.371 . S
N341 C344 1.372 . S
N342 C344 1.361 . S
N342 C345 1.377 . S
C343 N340 1.382 . S
C343 N341 1.371 . S
C343 C346 1.480 . S
C344 N341 1.372 . S
C344 N342 1.361 . S
C344 C352 1.457 . S
C345 N340 1.363 . S
C345 N342 1.377 . S
C345 C358 1.479 . S
C346 C343 1.480 . S
C346 C347 1.383 . S
C346 C351 1.385 . S
C347 H328 0.947 . S
C347 C346 1.383 . S
C347 C348 1.388 . S
C348 H329 0.946 . S
C348 C347 1.388 . S
C348 C349 1.384 . S
C349 C348 1.384 . S
C349 C350 1.377 . S
C350 H330 0.953 . S
C350 C349 1.377 . S
C350 C351 1.369 . S
C351 H331 0.945 . S
C351 C346 1.385 . S
C351 C350 1.369 . S
C352 C344 1.457 . S
C352 C353 1.372 . S
C352 C357 1.364 . S
C353 H332 0.952 . S
C353 C352 1.372 . S
C353 C354 1.389 . S
C354 H333 0.949 . S
C354 C353 1.389 . S
C354 C355 1.387 . S
C355 C354 1.387 . S
C355 C356 1.372 . S
C356 H334 0.950 . S
C356 C355 1.372 . S
C356 C357 1.379 . S
C357 H335 0.948 . S
C357 C352 1.364 . S
C357 C356 1.379 . S
C358 C327 1.383 . S
C358 C345 1.479 . S
C358 C359 1.398 . S
C359 C324 1.382 . S
C359 H336 0.951 . S
C359 C358 1.398 . S
C360 C361 1.384 . S
C360 H373 0.947 . S
C360 C395 1.382 . S
C361 C360 1.384 . S
C361 C362 1.378 . S
C362 C361 1.378 . S
C362 C363 1.378 . S
C362 H374 0.952 . S
C363 C362 1.378 . S
C363 H375 0.950 . S
C363 C394 1.383 . S
H364 C383 0.947 . S
H365 C384 0.946 . S
H366 C386 0.953 . S
H367 C387 0.945 . S
H368 C389 0.952 . S
H369 C390 0.949 . S
H370 C392 0.950 . S
H371 C393 0.948 . S
H372 C395 0.951 . S
H373 C360 0.947 . S
H374 C362 0.952 . S
H375 C363 0.950 . S
N376 C379 1.382 . S
N376 C381 1.363 . S
N377 C379 1.371 . S
N377 C380 1.372 . S
N378 C380 1.361 . S
N378 C381 1.377 . S
C379 N376 1.382 . S
C379 N377 1.371 . S
C379 C382 1.480 . S
C380 N377 1.372 . S
C380 N378 1.361 . S
C380 C388 1.457 . S
C381 N376 1.363 . S
C381 N378 1.377 . S
C381 C394 1.479 . S
C382 C379 1.480 . S
C382 C383 1.383 . S
C382 C387 1.385 . S
C383 H364 0.947 . S
C383 C382 1.383 . S
C383 C384 1.388 . S
C384 H365 0.946 . S
C384 C383 1.388 . S
C384 C385 1.384 . S
C385 C384 1.384 . S
C385 C386 1.377 . S
C386 H366 0.953 . S
C386 C385 1.377 . S
C386 C387 1.369 . S
C387 H367 0.945 . S
C387 C382 1.385 . S
C387 C386 1.369 . S
C388 C380 1.457 . S
C388 C389 1.372 . S
C388 C393 1.364 . S
C389 H368 0.952 . S
C389 C388 1.372 . S
C389 C390 1.389 . S
C390 H369 0.949 . S
C390 C389 1.389 . S
C390 C391 1.387 . S
C391 C390 1.387 . S
C391 C392 1.372 . S
C392 H370 0.950 . S
C392 C391 1.372 . S
C392 C393 1.379 . S
C393 H371 0.948 . S
C393 C388 1.364 . S
C393 C392 1.379 . S
C394 C363 1.383 . S
C394 C381 1.479 . S
C394 C395 1.398 . S
C395 C360 1.382 . S
C395 H372 0.951 . S
C395 C394 1.398 . S
C396 C397 1.384 . S
C396 H409 0.947 . S
C396 C431 1.382 . S
C397 C396 1.384 . S
C397 C398 1.378 . S
C398 C397 1.378 . S
C398 C399 1.378 . S
C398 H410 0.952 . S
C399 C398 1.378 . S
C399 H411 0.950 . S
C399 C430 1.383 . S
H400 C419 0.947 . S
H401 C420 0.946 . S
H402 C422 0.953 . S
H403 C423 0.945 . S
H404 C425 0.952 . S
H405 C426 0.949 . S
H406 C428 0.950 . S
H407 C429 0.948 . S
H408 C431 0.951 . S
H409 C396 0.947 . S
H410 C398 0.952 . S
H411 C399 0.950 . S
N412 C415 1.382 . S
N412 C417 1.363 . S
N413 C415 1.371 . S
N413 C416 1.372 . S
N414 C416 1.361 . S
N414 C417 1.377 . S
C415 N412 1.382 . S
C415 N413 1.371 . S
C415 C418 1.480 . S
C416 N413 1.372 . S
C416 N414 1.361 . S
C416 C424 1.457 . S
C417 N412 1.363 . S
C417 N414 1.377 . S
C417 C430 1.479 . S
C418 C415 1.480 . S
C418 C419 1.383 . S
C418 C423 1.385 . S
C419 H400 0.947 . S
C419 C418 1.383 . S
C419 C420 1.388 . S
C420 H401 0.946 . S
C420 C419 1.388 . S
C420 C421 1.384 . S
C421 C420 1.384 . S
C421 C422 1.377 . S
C422 H402 0.953 . S
C422 C421 1.377 . S
C422 C423 1.369 . S
C423 H403 0.945 . S
C423 C418 1.385 . S
C423 C422 1.369 . S
C424 C416 1.457 . S
C424 C425 1.372 . S
C424 C429 1.364 . S
C425 H404 0.952 . S
C425 C424 1.372 . S
C425 C426 1.389 . S
C426 H405 0.949 . S
C426 C425 1.389 . S
C426 C427 1.387 . S
C427 C426 1.387 . S
C427 C428 1.372 . S
C428 H406 0.950 . S
C428 C427 1.372 . S
C428 C429 1.379 . S
C429 H407 0.948 . S
C429 C424 1.364 . S
C429 C428 1.379 . S
C430 C399 1.383 . S
C430 C417 1.479 . S
C430 C431 1.398 . S
C431 C396 1.382 . S
C431 H408 0.951 . S
C431 C430 1.398 . S
C432 C433 1.384 . S
C432 H445 0.947 . S
C432 C467 1.382 . S
C433 C432 1.384 . S
C433 C434 1.378 . S
C434 C433 1.378 . S
C434 C435 1.378 . S
C434 H446 0.952 . S
C435 C434 1.378 . S
C435 H447 0.950 . S
C435 C466 1.383 . S
H436 C455 0.947 . S
H437 C456 0.946 . S
H438 C458 0.953 . S
H439 C459 0.945 . S
H440 C461 0.952 . S
H441 C462 0.949 . S
H442 C464 0.950 . S
H443 C465 0.948 . S
H444 C467 0.951 . S
H445 C432 0.947 . S
H446 C434 0.952 . S
H447 C435 0.950 . S
N448 C451 1.382 . S
N448 C453 1.363 . S
N449 C451 1.371 . S
N449 C452 1.372 . S
N450 C452 1.361 . S
N450 C453 1.377 . S
C451 N448 1.382 . S
C451 N449 1.371 . S
C451 C454 1.480 . S
C452 N449 1.372 . S
C452 N450 1.361 . S
C452 C460 1.457 . S
C453 N448 1.363 . S
C453 N450 1.377 . S
C453 C466 1.479 . S
C454 C451 1.480 . S
C454 C455 1.383 . S
C454 C459 1.385 . S
C455 H436 0.947 . S
C455 C454 1.383 . S
C455 C456 1.388 . S
C456 H437 0.946 . S
C456 C455 1.388 . S
C456 C457 1.384 . S
C457 C456 1.384 . S
C457 C458 1.377 . S
C458 H438 0.953 . S
C458 C457 1.377 . S
C458 C459 1.369 . S
C459 H439 0.945 . S
C459 C454 1.385 . S
C459 C458 1.369 . S
C460 C452 1.457 . S
C460 C461 1.372 . S
C460 C465 1.364 . S
C461 H440 0.952 . S
C461 C460 1.372 . S
C461 C462 1.389 . S
C462 H441 0.949 . S
C462 C461 1.389 . S
C462 C463 1.387 . S
C463 C462 1.387 . S
C463 C464 1.372 . S
C464 H442 0.950 . S
C464 C463 1.372 . S
C464 C465 1.379 . S
C465 H443 0.948 . S
C465 C460 1.364 . S
C465 C464 1.379 . S
C466 C435 1.383 . S
C466 C453 1.479 . S
C466 C467 1.398 . S
C467 C432 1.382 . S
C467 H444 0.951 . S
C467 C466 1.398 . S
C468 C469 1.384 . S
C468 H481 0.947 . S
C468 C503 1.382 . S
C469 C468 1.384 . S
C469 C470 1.378 . S
C470 C469 1.378 . S
C470 C471 1.378 . S
C470 H482 0.952 . S
C471 C470 1.378 . S
C471 H483 0.950 . S
C471 C502 1.383 . S
H472 C491 0.947 . S
H473 C492 0.946 . S
H474 C494 0.953 . S
H475 C495 0.945 . S
H476 C497 0.952 . S
H477 C498 0.949 . S
H478 C500 0.950 . S
H479 C501 0.948 . S
H480 C503 0.951 . S
H481 C468 0.947 . S
H482 C470 0.952 . S
H483 C471 0.950 . S
N484 C487 1.382 . S
N484 C489 1.363 . S
N485 C487 1.371 . S
N485 C488 1.372 . S
N486 C488 1.361 . S
N486 C489 1.377 . S
C487 N484 1.382 . S
C487 N485 1.371 . S
C487 C490 1.480 . S
C488 N485 1.372 . S
C488 N486 1.361 . S
C488 C496 1.457 . S
C489 N484 1.363 . S
C489 N486 1.377 . S
C489 C502 1.479 . S
C490 C487 1.480 . S
C490 C491 1.383 . S
C490 C495 1.385 . S
C491 H472 0.947 . S
C491 C490 1.383 . S
C491 C492 1.388 . S
C492 H473 0.946 . S
C492 C491 1.388 . S
C492 C493 1.384 . S
C493 C492 1.384 . S
C493 C494 1.377 . S
C494 H474 0.953 . S
C494 C493 1.377 . S
C494 C495 1.369 . S
C495 H475 0.945 . S
C495 C490 1.385 . S
C495 C494 1.369 . S
C496 C488 1.457 . S
C496 C497 1.372 . S
C496 C501 1.364 . S
C497 H476 0.952 . S
C497 C496 1.372 . S
C497 C498 1.389 . S
C498 H477 0.949 . S
C498 C497 1.389 . S
C498 C499 1.387 . S
C499 C498 1.387 . S
C499 C500 1.372 . S
C500 H478 0.950 . S
C500 C499 1.372 . S
C500 C501 1.379 . S
C501 H479 0.948 . S
C501 C496 1.364 . S
C501 C500 1.379 . S
C502 C471 1.383 . S
C502 C489 1.479 . S
C502 C503 1.398 . S
C503 C468 1.382 . S
C503 H480 0.951 . S
C503 C502 1.398 . S
C504 C505 1.384 . S
C504 H517 0.947 . S
C504 C539 1.382 . S
C505 C504 1.384 . S
C505 C506 1.378 . S
C506 C505 1.378 . S
C506 C507 1.378 . S
C506 H518 0.952 . S
C507 C506 1.378 . S
C507 H519 0.950 . S
C507 C538 1.383 . S
H508 C527 0.947 . S
H509 C528 0.946 . S
H510 C530 0.953 . S
H511 C531 0.945 . S
H512 C533 0.952 . S
H513 C534 0.949 . S
H514 C536 0.950 . S
H515 C537 0.948 . S
H516 C539 0.951 . S
H517 C504 0.947 . S
H518 C506 0.952 . S
H519 C507 0.950 . S
N520 C523 1.382 . S
N520 C525 1.363 . S
N521 C523 1.371 . S
N521 C524 1.372 . S
N522 C524 1.361 . S
N522 C525 1.377 . S
C523 N520 1.382 . S
C523 N521 1.371 . S
C523 C526 1.480 . S
C524 N521 1.372 . S
C524 N522 1.361 . S
C524 C532 1.457 . S
C525 N520 1.363 . S
C525 N522 1.377 . S
C525 C538 1.479 . S
C526 C523 1.480 . S
C526 C527 1.383 . S
C526 C531 1.385 . S
C527 H508 0.947 . S
C527 C526 1.383 . S
C527 C528 1.388 . S
C528 H509 0.946 . S
C528 C527 1.388 . S
C528 C529 1.384 . S
C529 C528 1.384 . S
C529 C530 1.377 . S
C530 H510 0.953 . S
C530 C529 1.377 . S
C530 C531 1.369 . S
C531 H511 0.945 . S
C531 C526 1.385 . S
C531 C530 1.369 . S
C532 C524 1.457 . S
C532 C533 1.372 . S
C532 C537 1.364 . S
C533 H512 0.952 . S
C533 C532 1.372 . S
C533 C534 1.389 . S
C534 H513 0.949 . S
C534 C533 1.389 . S
C534 C535 1.387 . S
C535 C534 1.387 . S
C535 C536 1.372 . S
C536 H514 0.950 . S
C536 C535 1.372 . S
C536 C537 1.379 . S
C537 H515 0.948 . S
C537 C532 1.364 . S
C537 C536 1.379 . S
C538 C507 1.383 . S
C538 C525 1.479 . S
C538 C539 1.398 . S
C539 C504 1.382 . S
C539 H516 0.951 . S
C539 C538 1.398 . S
C540 C541 1.384 . S
C540 H553 0.947 . S
C540 C575 1.382 . S
C541 C540 1.384 . S
C541 C542 1.378 . S
C542 C541 1.378 . S
C542 C543 1.378 . S
C542 H554 0.952 . S
C543 C542 1.378 . S
C543 H555 0.950 . S
C543 C574 1.383 . S
H544 C563 0.947 . S
H545 C564 0.946 . S
H546 C566 0.953 . S
H547 C567 0.945 . S
H548 C569 0.952 . S
H549 C570 0.949 . S
H550 C572 0.950 . S
H551 C573 0.948 . S
H552 C575 0.951 . S
H553 C540 0.947 . S
H554 C542 0.952 . S
H555 C543 0.950 . S
N556 C559 1.382 . S
N556 C561 1.363 . S
N557 C559 1.371 . S
N557 C560 1.372 . S
N558 C560 1.361 . S
N558 C561 1.377 . S
C559 N556 1.382 . S
C559 N557 1.371 . S
C559 C562 1.480 . S
C560 N557 1.372 . S
C560 N558 1.361 . S
C560 C568 1.457 . S
C561 N556 1.363 . S
C561 N558 1.377 . S
C561 C574 1.479 . S
C562 C559 1.480 . S
C562 C563 1.383 . S
C562 C567 1.385 . S
C563 H544 0.947 . S
C563 C562 1.383 . S
C563 C564 1.388 . S
C564 H545 0.946 . S
C564 C563 1.388 . S
C564 C565 1.384 . S
C565 C564 1.384 . S
C565 C566 1.377 . S
C566 H546 0.953 . S
C566 C565 1.377 . S
C566 C567 1.369 . S
C567 H547 0.945 . S
C567 C562 1.385 . S
C567 C566 1.369 . S
C568 C560 1.457 . S
C568 C569 1.372 . S
C568 C573 1.364 . S
C569 H548 0.952 . S
C569 C568 1.372 . S
C569 C570 1.389 . S
C570 H549 0.949 . S
C570 C569 1.389 . S
C570 C571 1.387 . S
C571 C570 1.387 . S
C571 C572 1.372 . S
C572 H550 0.950 . S
C572 C571 1.372 . S
C572 C573 1.379 . S
C573 H551 0.948 . S
C573 C568 1.364 . S
C573 C572 1.379 . S
C574 C543 1.383 . S
C574 C561 1.479 . S
C574 C575 1.398 . S
C575 C540 1.382 . S
C575 H552 0.951 . S
C575 C574 1.398 . S
C576 C577 1.384 . S
C576 H589 0.947 . S
C576 C611 1.382 . S
C577 C576 1.384 . S
C577 C578 1.378 . S
C578 C577 1.378 . S
C578 C579 1.378 . S
C578 H590 0.952 . S
C579 C578 1.378 . S
C579 H591 0.950 . S
C579 C610 1.383 . S
H580 C599 0.947 . S
H581 C600 0.946 . S
H582 C602 0.953 . S
H583 C603 0.945 . S
H584 C605 0.952 . S
H585 C606 0.949 . S
H586 C608 0.950 . S
H587 C609 0.948 . S
H588 C611 0.951 . S
H589 C576 0.947 . S
H590 C578 0.952 . S
H591 C579 0.950 . S
N592 C595 1.382 . S
N592 C597 1.363 . S
N593 C595 1.371 . S
N593 C596 1.372 . S
N594 C596 1.361 . S
N594 C597 1.377 . S
C595 N592 1.382 . S
C595 N593 1.371 . S
C595 C598 1.480 . S
C596 N593 1.372 . S
C596 N594 1.361 . S
C596 C604 1.457 . S
C597 N592 1.363 . S
C597 N594 1.377 . S
C597 C610 1.479 . S
C598 C595 1.480 . S
C598 C599 1.383 . S
C598 C603 1.385 . S
C599 H580 0.947 . S
C599 C598 1.383 . S
C599 C600 1.388 . S
C600 H581 0.946 . S
C600 C599 1.388 . S
C600 C601 1.384 . S
C601 C600 1.384 . S
C601 C602 1.377 . S
C602 H582 0.953 . S
C602 C601 1.377 . S
C602 C603 1.369 . S
C603 H583 0.945 . S
C603 C598 1.385 . S
C603 C602 1.369 . S
C604 C596 1.457 . S
C604 C605 1.372 . S
C604 C609 1.364 . S
C605 H584 0.952 . S
C605 C604 1.372 . S
C605 C606 1.389 . S
C606 H585 0.949 . S
C606 C605 1.389 . S
C606 C607 1.387 . S
C607 C606 1.387 . S
C607 C608 1.372 . S
C608 H586 0.950 . S
C608 C607 1.372 . S
C608 C609 1.379 . S
C609 H587 0.948 . S
C609 C604 1.364 . S
C609 C608 1.379 . S
C610 C579 1.383 . S
C610 C597 1.479 . S
C610 C611 1.398 . S
C611 C576 1.382 . S
C611 H588 0.951 . S
C611 C610 1.398 . S
C612 C613 1.384 . S
C612 H625 0.947 . S
C612 C647 1.382 . S
C613 C612 1.384 . S
C613 C614 1.378 . S
C614 C613 1.378 . S
C614 C615 1.378 . S
C614 H626 0.952 . S
C615 C614 1.378 . S
C615 H627 0.950 . S
C615 C646 1.383 . S
H616 C635 0.947 . S
H617 C636 0.946 . S
H618 C638 0.953 . S
H619 C639 0.945 . S
H620 C641 0.952 . S
H621 C642 0.949 . S
H622 C644 0.950 . S
H623 C645 0.948 . S
H624 C647 0.951 . S
H625 C612 0.947 . S
H626 C614 0.952 . S
H627 C615 0.950 . S
N628 C631 1.382 . S
N628 C633 1.363 . S
N629 C631 1.371 . S
N629 C632 1.372 . S
N630 C632 1.361 . S
N630 C633 1.377 . S
C631 N628 1.382 . S
C631 N629 1.371 . S
C631 C634 1.480 . S
C632 N629 1.372 . S
C632 N630 1.361 . S
C632 C640 1.457 . S
C633 N628 1.363 . S
C633 N630 1.377 . S
C633 C646 1.479 . S
C634 C631 1.480 . S
C634 C635 1.383 . S
C634 C639 1.385 . S
C635 H616 0.947 . S
C635 C634 1.383 . S
C635 C636 1.388 . S
C636 H617 0.946 . S
C636 C635 1.388 . S
C636 C637 1.384 . S
C637 C636 1.384 . S
C637 C638 1.377 . S
C638 H618 0.953 . S
C638 C637 1.377 . S
C638 C639 1.369 . S
C639 H619 0.945 . S
C639 C634 1.385 . S
C639 C638 1.369 . S
C640 C632 1.457 . S
C640 C641 1.372 . S
C640 C645 1.364 . S
C641 H620 0.952 . S
C641 C640 1.372 . S
C641 C642 1.389 . S
C642 H621 0.949 . S
C642 C641 1.389 . S
C642 C643 1.387 . S
C643 C642 1.387 . S
C643 C644 1.372 . S
C644 H622 0.950 . S
C644 C643 1.372 . S
C644 C645 1.379 . S
C645 H623 0.948 . S
C645 C640 1.364 . S
C645 C644 1.379 . S
C646 C615 1.383 . S
C646 C633 1.479 . S
C646 C647 1.398 . S
C647 C612 1.382 . S
C647 H624 0.951 . S
C647 C646 1.398 . S
Tb648 O651 2.453 . S
Tb648 O652 2.596 1_545 S
Tb648 O653 2.374 1_545 S
Tb648 O661 2.343 1_554 S
Tb648 O663 2.353 . S
Tb648 O665 2.427 1_554 S
Tb648 O666 2.513 1_554 S
C649 O653 1.251 . S
C649 O655 1.249 1_554 S
Tb650 O652 2.343 1_556 S
Tb650 O655 2.359 . S
Tb650 O658 2.427 1_556 S
Tb650 O659 2.513 1_556 S
Tb650 O660 2.453 . S
Tb650 O661 2.596 1_565 S
Tb650 O662 2.374 1_565 S
O651 Tb648 2.453 . S
O651 C667 1.245 . S
O652 Tb648 2.596 1_565 S
O652 Tb650 2.343 1_554 S
O652 C667 1.259 1_565 S
O653 Tb648 2.374 1_565 S
O653 C649 1.251 . S
C654 O658 1.275 . S
C654 O659 1.246 . S
O655 C649 1.249 1_556 S
O655 Tb650 2.359 . S
C656 O660 1.272 . S
C656 O661 1.254 1_565 S
C657 O662 1.250 . S
C657 O663 1.263 1_556 S
O658 Tb650 2.427 1_554 S
O658 C654 1.275 . S
O659 Tb650 2.513 1_554 S
O659 C654 1.246 . S
O660 Tb650 2.453 . S
O660 C656 1.272 . S
O661 Tb648 2.343 1_556 S
O661 Tb650 2.596 1_545 S
O661 C656 1.254 1_545 S
O662 Tb650 2.374 1_545 S
O662 C657 1.250 . S
O663 Tb648 2.353 . S
O663 C657 1.263 1_554 S
C664 O665 1.275 . S
C664 O666 1.246 . S
O665 Tb648 2.427 1_556 S
O665 C664 1.275 . S
O666 Tb648 2.513 1_556 S
O666 C664 1.246 . S
C667 O651 1.245 . S
C667 O652 1.259 1_545 S
Tb668 O671 2.453 . S
Tb668 O672 2.596 1_655 S
Tb668 O673 2.374 1_655 S
Tb668 O681 2.343 1_554 S
Tb668 O683 2.356 . S
Tb668 O685 2.427 1_554 S
Tb668 O686 2.513 1_554 S
C669 O673 1.251 . S
C669 O675 1.263 . S
Tb670 O672 2.343 1_556 S
Tb670 O675 2.353 1_556 S
Tb670 O678 2.427 1_556 S
Tb670 O679 2.513 1_556 S
Tb670 O680 2.453 . S
Tb670 O681 2.596 1_455 S
Tb670 O682 2.374 1_455 S
O671 Tb668 2.453 . S
O671 C687 1.245 1_655 S
O672 Tb668 2.596 1_455 S
O672 Tb670 2.343 1_554 S
O672 C687 1.259 . S
O673 Tb668 2.374 1_455 S
O673 C669 1.251 . S
C674 O678 1.275 . S
C674 O679 1.246 . S
O675 C669 1.263 . S
O675 Tb670 2.353 1_554 S
C676 O680 1.241 . S
C676 O681 1.261 1_455 S
C677 O682 1.250 . S
C677 O683 1.255 1_556 S
O678 Tb670 2.427 1_554 S
O678 C674 1.275 . S
O679 Tb670 2.513 1_554 S
O679 C674 1.246 . S
O680 Tb670 2.453 . S
O680 C676 1.241 . S
O681 Tb668 2.343 1_556 S
O681 Tb670 2.596 1_655 S
O681 C676 1.261 1_655 S
O682 Tb670 2.374 1_655 S
O682 C677 1.250 . S
O683 Tb668 2.356 . S
O683 C677 1.255 1_554 S
C684 O685 1.275 . S
C684 O686 1.246 . S
O685 Tb668 2.427 1_556 S
O685 C684 1.275 . S
O686 Tb668 2.513 1_556 S
O686 C684 1.246 . S
C687 O671 1.245 1_455 S
C687 O672 1.259 . S
Tb688 O691 2.453 . S
Tb688 O692 2.596 . S
Tb688 O693 2.374 . S
Tb688 O701 2.343 1_556 S
Tb688 O703 2.353 1_556 S
Tb688 O705 2.427 1_556 S
Tb688 O706 2.513 1_556 S
C689 O693 1.251 . S
C689 O695 1.263 1_556 S
Tb690 O692 2.343 1_554 S
Tb690 O695 2.353 . S
Tb690 O698 2.427 1_554 S
Tb690 O699 2.513 1_554 S
Tb690 O700 2.453 . S
Tb690 O701 2.596 . S
Tb690 O702 2.374 . S
O691 Tb688 2.453 . S
O691 C707 1.245 . S
O692 Tb688 2.596 . S
O692 Tb690 2.343 1_556 S
O692 C707 1.259 . S
O693 Tb688 2.374 . S
O693 C689 1.251 . S
C694 O698 1.275 . S
C694 O699 1.246 . S
O695 C689 1.263 1_554 S
O695 Tb690 2.353 . S
C696 O700 1.245 . S
C696 O701 1.259 . S
C697 O702 1.250 . S
C697 O703 1.263 . S
O698 Tb690 2.427 1_556 S
O698 C694 1.275 . S
O699 Tb690 2.513 1_556 S
O699 C694 1.246 . S
O700 Tb690 2.453 . S
O700 C696 1.245 . S
O701 Tb688 2.343 1_554 S
O701 Tb690 2.596 . S
O701 C696 1.259 . S
O702 Tb690 2.374 . S
O702 C697 1.250 . S
O703 Tb688 2.353 1_554 S
O703 C697 1.263 . S
C704 O705 1.275 . S
C704 O706 1.246 . S
O705 Tb688 2.427 1_554 S
O705 C704 1.275 . S
O706 Tb688 2.513 1_554 S
O706 C704 1.246 . S
C707 O691 1.245 . S
C707 O692 1.259 . S
Tb708 O711 2.453 . S
Tb708 O712 2.596 . S
Tb708 O713 2.374 . S
Tb708 O721 2.343 . S
Tb708 O723 2.353 . S
Tb708 O725 2.427 . S
Tb708 O726 2.513 . S
C709 O713 1.251 . S
C709 O715 1.263 . S
Tb710 O712 2.343 . S
Tb710 O715 2.353 . S
Tb710 O718 2.427 . S
Tb710 O719 2.513 . S
Tb710 O720 2.453 . S
Tb710 O721 2.596 . S
Tb710 O722 2.374 . S
O711 Tb708 2.453 . S
O711 C727 1.245 . S
O712 Tb708 2.596 . S
O712 Tb710 2.343 . S
O712 C727 1.259 . S
O713 Tb708 2.374 . S
O713 C709 1.251 . S
C714 O718 1.275 . S
C714 O719 1.246 . S
O715 C709 1.263 . S
O715 Tb710 2.353 . S
C716 O720 1.245 . S
C716 O721 1.259 . S
C717 O722 1.250 . S
C717 O723 1.263 . S
O718 Tb710 2.427 . S
O718 C714 1.275 . S
O719 Tb710 2.513 . S
O719 C714 1.246 . S
O720 Tb710 2.453 . S
O720 C716 1.245 . S
O721 Tb708 2.343 . S
O721 Tb710 2.596 . S
O721 C716 1.259 . S
O722 Tb710 2.374 . S
O722 C717 1.250 . S
O723 Tb708 2.353 . S
O723 C717 1.263 . S
C724 O725 1.275 . S
C724 O726 1.246 . S
O725 Tb708 2.427 . S
O725 C724 1.275 . S
O726 Tb708 2.513 . S
O726 C724 1.246 . S
C727 O711 1.245 . S
C727 O712 1.259 . S
Tb728 O731 2.453 . S
Tb728 O732 2.596 . S
Tb728 O733 2.374 . S
Tb728 O741 2.343 . S
Tb728 O743 2.353 . S
Tb728 O745 2.427 . S
Tb728 O746 2.513 . S
C729 O733 1.251 . S
C729 O735 1.263 . S
Tb730 O732 2.343 . S
Tb730 O735 2.353 . S
Tb730 O738 2.427 . S
Tb730 O739 2.513 . S
Tb730 O740 2.453 . S
Tb730 O741 2.596 . S
Tb730 O742 2.374 . S
O731 Tb728 2.453 . S
O731 C747 1.245 . S
O732 Tb728 2.596 . S
O732 Tb730 2.343 . S
O732 C747 1.259 . S
O733 Tb728 2.374 . S
O733 C729 1.251 . S
C734 O738 1.275 . S
C734 O739 1.246 . S
O735 C729 1.263 . S
O735 Tb730 2.353 . S
C736 O740 1.245 . S
C736 O741 1.259 . S
C737 O742 1.250 . S
C737 O743 1.263 . S
O738 Tb730 2.427 . S
O738 C734 1.275 . S
O739 Tb730 2.513 . S
O739 C734 1.246 . S
O740 Tb730 2.453 . S
O740 C736 1.245 . S
O741 Tb728 2.343 . S
O741 Tb730 2.596 . S
O741 C736 1.259 . S
O742 Tb730 2.374 . S
O742 C737 1.250 . S
O743 Tb728 2.353 . S
O743 C737 1.263 . S
C744 O745 1.275 . S
C744 O746 1.246 . S
O745 Tb728 2.427 . S
O745 C744 1.275 . S
O746 Tb728 2.513 . S
O746 C744 1.246 . S
C747 O731 1.245 . S
C747 O732 1.259 . S
Tb748 O751 2.453 . S
Tb748 O752 2.596 . S
Tb748 O753 2.374 . S
Tb748 O761 2.343 . S
Tb748 O763 2.353 . S
Tb748 O765 2.427 . S
Tb748 O766 2.513 . S
C749 O753 1.251 . S
C749 O755 1.263 . S
Tb750 O752 2.343 . S
Tb750 O755 2.353 . S
Tb750 O758 2.427 . S
Tb750 O759 2.513 . S
Tb750 O760 2.453 . S
Tb750 O761 2.596 . S
Tb750 O762 2.374 . S
O751 Tb748 2.453 . S
O751 C767 1.245 . S
O752 Tb748 2.596 . S
O752 Tb750 2.343 . S
O752 C767 1.259 . S
O753 Tb748 2.374 . S
O753 C749 1.251 . S
C754 O758 1.275 . S
C754 O759 1.246 . S
O755 C749 1.263 . S
O755 Tb750 2.353 . S
C756 O760 1.245 . S
C756 O761 1.259 . S
C757 O762 1.250 . S
C757 O763 1.263 . S
O758 Tb750 2.427 . S
O758 C754 1.275 . S
O759 Tb750 2.513 . S
O759 C754 1.246 . S
O760 Tb750 2.453 . S
O760 C756 1.245 . S
O761 Tb748 2.343 . S
O761 Tb750 2.596 . S
O761 C756 1.259 . S
O762 Tb750 2.374 . S
O762 C757 1.250 . S
O763 Tb748 2.353 . S
O763 C757 1.263 . S
C764 O765 1.275 . S
C764 O766 1.246 . S
O765 Tb748 2.427 . S
O765 C764 1.275 . S
O766 Tb748 2.513 . S
O766 C764 1.246 . S
C767 O751 1.245 . S
C767 O752 1.259 . S
Tb768 O771 2.453 . S
Tb768 O772 2.596 . S
Tb768 O773 2.374 . S
Tb768 O781 2.343 . S
Tb768 O783 2.353 . S
Tb768 O785 2.427 . S
Tb768 O786 2.513 . S
C769 O773 1.251 . S
C769 O775 1.263 . S
Tb770 O772 2.343 . S
Tb770 O775 2.353 . S
Tb770 O778 2.427 . S
Tb770 O779 2.513 . S
Tb770 O780 2.453 . S
Tb770 O781 2.596 . S
Tb770 O782 2.374 . S
O771 Tb768 2.453 . S
O771 C787 1.245 . S
O772 Tb768 2.596 . S
O772 Tb770 2.343 . S
O772 C787 1.259 . S
O773 Tb768 2.374 . S
O773 C769 1.251 . S
C774 O778 1.275 . S
C774 O779 1.246 . S
O775 C769 1.263 . S
O775 Tb770 2.353 . S
C776 O780 1.245 . S
C776 O781 1.259 . S
C777 O782 1.250 . S
C777 O783 1.263 . S
O778 Tb770 2.427 . S
O778 C774 1.275 . S
O779 Tb770 2.513 . S
O779 C774 1.246 . S
O780 Tb770 2.453 . S
O780 C776 1.245 . S
O781 Tb768 2.343 . S
O781 Tb770 2.596 . S
O781 C776 1.259 . S
O782 Tb770 2.374 . S
O782 C777 1.250 . S
O783 Tb768 2.353 . S
O783 C777 1.263 . S
C784 O785 1.275 . S
C784 O786 1.246 . S
O785 Tb768 2.427 . S
O785 C784 1.275 . S
O786 Tb768 2.513 . S
O786 C784 1.246 . S
C787 O771 1.245 . S
C787 O772 1.259 . S
Tb788 O791 2.453 . S
Tb788 O792 2.596 . S
Tb788 O793 2.374 . S
Tb788 O801 2.343 . S
Tb788 O803 2.353 . S
Tb788 O805 2.427 . S
Tb788 O806 2.513 . S
C789 O793 1.251 . S
C789 O795 1.263 . S
Tb790 O792 2.343 . S
Tb790 O795 2.353 . S
Tb790 O798 2.427 . S
Tb790 O799 2.513 . S
Tb790 O800 2.453 . S
Tb790 O801 2.596 . S
Tb790 O802 2.374 . S
O791 Tb788 2.453 . S
O791 C807 1.245 . S
O792 Tb788 2.596 . S
O792 Tb790 2.343 . S
O792 C807 1.259 . S
O793 Tb788 2.374 . S
O793 C789 1.251 . S
C794 O798 1.275 . S
C794 O799 1.246 . S
O795 C789 1.263 . S
O795 Tb790 2.353 . S
C796 O800 1.245 . S
C796 O801 1.259 . S
C797 O802 1.250 . S
C797 O803 1.263 . S
O798 Tb790 2.427 . S
O798 C794 1.275 . S
O799 Tb790 2.513 . S
O799 C794 1.246 . S
O800 Tb790 2.453 . S
O800 C796 1.245 . S
O801 Tb788 2.343 . S
O801 Tb790 2.596 . S
O801 C796 1.259 . S
O802 Tb790 2.374 . S
O802 C797 1.250 . S
O803 Tb788 2.353 . S
O803 C797 1.263 . S
C804 O805 1.275 . S
C804 O806 1.246 . S
O805 Tb788 2.427 . S
O805 C804 1.275 . S
O806 Tb788 2.513 . S
O806 C804 1.246 . S
C807 O791 1.245 . S
C807 O792 1.259 . S
Tb808 O811 2.453 . S
Tb808 O812 2.596 . S
Tb808 O813 2.374 . S
Tb808 O821 2.343 . S
Tb808 O823 2.353 . S
Tb808 O825 2.427 . S
Tb808 O826 2.513 . S
C809 O813 1.251 . S
C809 O815 1.263 . S
Tb810 O812 2.343 . S
Tb810 O815 2.353 . S
Tb810 O818 2.427 . S
Tb810 O819 2.513 . S
Tb810 O820 2.453 . S
Tb810 O821 2.596 . S
Tb810 O822 2.374 . S
O811 Tb808 2.453 . S
O811 C827 1.245 . S
O812 Tb808 2.596 . S
O812 Tb810 2.343 . S
O812 C827 1.259 . S
O813 Tb808 2.374 . S
O813 C809 1.251 . S
C814 O818 1.275 . S
C814 O819 1.246 . S
O815 C809 1.263 . S
O815 Tb810 2.353 . S
C816 O820 1.245 . S
C816 O821 1.259 . S
C817 O822 1.250 . S
C817 O823 1.263 . S
O818 Tb810 2.427 . S
O818 C814 1.275 . S
O819 Tb810 2.513 . S
O819 C814 1.246 . S
O820 Tb810 2.453 . S
O820 C816 1.245 . S
O821 Tb808 2.343 . S
O821 Tb810 2.596 . S
O821 C816 1.259 . S
O822 Tb810 2.374 . S
O822 C817 1.250 . S
O823 Tb808 2.353 . S
O823 C817 1.263 . S
C824 O825 1.275 . S
C824 O826 1.246 . S
O825 Tb808 2.427 . S
O825 C824 1.275 . S
O826 Tb808 2.513 . S
O826 C824 1.246 . S
C827 O811 1.245 . S
C827 O812 1.259 . S
C828 C829 1.391 . S
C828 C830 1.394 . S
C828 H844 0.931 . S
C829 C828 1.391 . S
C829 C833 1.376 . S
C830 C828 1.394 . S
C830 C831 1.369 . S
C830 C834 1.531 . S
C831 C830 1.369 . S
C831 C832 1.410 . S
C831 C839 1.503 . S
C832 C831 1.410 . S
C832 C833 1.392 . S
C832 C835 1.511 . S
C833 C829 1.376 . S
C833 C832 1.392 . S
C833 H845 0.929 . S
C834 C830 1.531 . S
C834 H846 0.960 . S
C834 H847 0.962 . S
C834 H848 0.960 . S
C835 C832 1.511 . S
C835 H849 0.961 . S
C835 H850 0.961 . S
C835 H851 0.961 . S
C836 C837 1.370 . S
C836 C838 1.363 . S
C836 H852 0.931 . S
C837 C836 1.370 . S
C837 C841 1.408 . S
C838 C836 1.363 . S
C838 C839 1.370 . S
C838 C842 1.524 . S
C839 C831 1.503 . S
C839 C838 1.370 . S
C839 C840 1.403 . S
C840 C839 1.403 . S
C840 C841 1.404 . S
C840 C843 1.539 . S
C841 C837 1.408 . S
C841 C840 1.404 . S
C841 H853 0.930 . S
C842 C838 1.524 . S
C842 H854 0.956 . S
C842 H855 0.961 . S
C842 H856 0.961 . S
C843 C840 1.539 . S
C843 H857 0.958 . S
C843 H858 0.961 . S
C843 H859 0.960 . S
H844 C828 0.931 . S
H845 C833 0.929 . S
H846 C834 0.960 . S
H847 C834 0.962 . S
H848 C834 0.960 . S
H849 C835 0.961 . S
H850 C835 0.961 . S
H851 C835 0.961 . S
H852 C836 0.931 . S
H853 C841 0.930 . S
H854 C842 0.956 . S
H855 C842 0.961 . S
H856 C842 0.961 . S
H857 C843 0.958 . S
H858 C843 0.961 . S
H859 C843 0.960 . S
C860 C861 1.391 . S
C860 C862 1.394 . S
C860 H876 0.931 . S
C861 C860 1.391 . S
C861 C865 1.376 . S
C862 C860 1.394 . S
C862 C863 1.369 . S
C862 C866 1.531 . S
C863 C862 1.369 . S
C863 C864 1.410 . S
C863 C871 1.503 . S
C864 C863 1.410 . S
C864 C865 1.392 . S
C864 C867 1.511 . S
C865 C861 1.376 . S
C865 C864 1.392 . S
C865 H877 0.929 . S
C866 C862 1.531 . S
C866 H878 0.960 . S
C866 H879 0.962 . S
C866 H880 0.960 . S
C867 C864 1.511 . S
C867 H881 0.961 . S
C867 H882 0.961 . S
C867 H883 0.961 . S
C868 C869 1.370 . S
C868 C870 1.363 . S
C868 H884 0.931 . S
C869 C868 1.370 . S
C869 C873 1.408 . S
C870 C868 1.363 . S
C870 C871 1.370 . S
C870 C874 1.524 . S
C871 C863 1.503 . S
C871 C870 1.370 . S
C871 C872 1.403 . S
C872 C871 1.403 . S
C872 C873 1.404 . S
C872 C875 1.539 . S
C873 C869 1.408 . S
C873 C872 1.404 . S
C873 H885 0.930 . S
C874 C870 1.524 . S
C874 H886 0.956 . S
C874 H887 0.961 . S
C874 H888 0.961 . S
C875 C872 1.539 . S
C875 H889 0.958 . S
C875 H890 0.961 . S
C875 H891 0.960 . S
H876 C860 0.931 . S
H877 C865 0.929 . S
H878 C866 0.960 . S
H879 C866 0.962 . S
H880 C866 0.960 . S
H881 C867 0.961 . S
H882 C867 0.961 . S
H883 C867 0.961 . S
H884 C868 0.931 . S
H885 C873 0.930 . S
H886 C874 0.956 . S
H887 C874 0.961 . S
H888 C874 0.961 . S
H889 C875 0.958 . S
H890 C875 0.961 . S
H891 C875 0.960 . S
C892 C893 1.391 . S
C892 C894 1.394 . S
C892 H908 0.931 . S
C893 C892 1.391 . S
C893 C897 1.376 . S
C894 C892 1.394 . S
C894 C895 1.369 . S
C894 C898 1.531 . S
C895 C894 1.369 . S
C895 C896 1.410 . S
C895 C903 1.503 . S
C896 C895 1.410 . S
C896 C897 1.392 . S
C896 C899 1.511 . S
C897 C893 1.376 . S
C897 C896 1.392 . S
C897 H909 0.929 . S
C898 C894 1.531 . S
C898 H910 0.960 1_554 S
C898 H911 0.962 . S
C898 H912 0.960 1_554 S
C899 C896 1.511 . S
C899 H913 0.961 . S
C899 H914 0.961 . S
C899 H915 0.961 . S
C900 C901 1.370 . S
C900 C902 1.363 . S
C900 H916 0.931 . S
C901 C900 1.370 . S
C901 C905 1.408 . S
C902 C900 1.363 . S
C902 C903 1.370 . S
C902 C906 1.524 . S
C903 C895 1.503 . S
C903 C902 1.370 . S
C903 C904 1.403 . S
C904 C903 1.403 . S
C904 C905 1.404 . S
C904 C907 1.539 . S
C905 C901 1.408 . S
C905 C904 1.404 . S
C905 H917 0.930 . S
C906 C902 1.524 . S
C906 H918 0.956 . S
C906 H919 0.961 . S
C906 H920 0.961 . S
C907 C904 1.539 . S
C907 H921 0.970 . S
C907 H922 0.961 . S
C907 H923 0.960 . S
H908 C892 0.931 . S
H909 C897 0.929 . S
H910 C898 0.960 1_556 S
H911 C898 0.962 . S
H912 C898 0.960 1_556 S
H913 C899 0.961 . S
H914 C899 0.961 . S
H915 C899 0.961 . S
H916 C900 0.931 . S
H917 C905 0.930 . S
H918 C906 0.956 . S
H919 C906 0.961 . S
H920 C906 0.961 . S
H921 C907 0.970 . S
H922 C907 0.961 . S
H923 C907 0.960 . S
C924 C925 1.391 . S
C924 C926 1.394 . S
C924 H940 0.931 . S
C925 C924 1.391 . S
C925 C929 1.376 . S
C926 C924 1.394 . S
C926 C927 1.369 . S
C926 C930 1.531 . S
C927 C926 1.369 . S
C927 C928 1.410 . S
C927 C935 1.503 . S
C928 C927 1.410 . S
C928 C929 1.392 . S
C928 C931 1.511 . S
C929 C925 1.376 . S
C929 C928 1.392 . S
C929 H941 0.929 . S
C930 C926 1.531 . S
C930 H942 0.954 1_556 S
C930 H943 0.962 . S
C930 H944 0.960 1_556 S
C931 C928 1.511 . S
C931 H945 0.961 . S
C931 H946 0.961 . S
C931 H947 0.961 . S
C932 C933 1.370 . S
C932 C934 1.363 . S
C932 H948 0.931 . S
C933 C932 1.370 . S
C933 C937 1.408 . S
C934 C932 1.363 . S
C934 C935 1.370 . S
C934 C938 1.524 . S
C935 C927 1.503 . S
C935 C934 1.370 . S
C935 C936 1.403 . S
C936 C935 1.403 . S
C936 C937 1.404 . S
C936 C939 1.539 . S
C937 C933 1.408 . S
C937 C936 1.404 . S
C937 H949 0.930 . S
C938 C934 1.524 . S
C938 H950 0.956 . S
C938 H951 0.961 . S
C938 H952 0.961 . S
C939 C936 1.539 . S
C939 H953 0.958 . S
C939 H954 0.961 . S
C939 H955 0.960 . S
H940 C924 0.931 . S
H941 C929 0.929 . S
H942 C930 0.954 1_554 S
H943 C930 0.962 . S
H944 C930 0.960 1_554 S
H945 C931 0.961 . S
H946 C931 0.961 . S
H947 C931 0.961 . S
H948 C932 0.931 . S
H949 C937 0.930 . S
H950 C938 0.956 . S
H951 C938 0.961 . S
H952 C938 0.961 . S
H953 C939 0.958 . S
H954 C939 0.961 . S
H955 C939 0.960 . S
C956 C957 1.391 . S
C956 C958 1.394 . S
C956 H972 0.931 . S
C957 C956 1.391 . S
C957 C961 1.376 . S
C958 C956 1.394 . S
C958 C959 1.369 . S
C958 C962 1.531 . S
C959 C958 1.369 . S
C959 C960 1.410 . S
C959 C967 1.503 . S
C960 C959 1.410 . S
C960 C961 1.392 . S
C960 C963 1.511 . S
C961 C957 1.376 . S
C961 C960 1.392 . S
C961 H973 0.929 . S
C962 C958 1.531 . S
C962 H974 0.960 . S
C962 H975 0.962 . S
C962 H976 0.960 . S
C963 C960 1.511 . S
C963 H977 0.961 . S
C963 H978 0.961 . S
C963 H979 0.961 . S
C964 C965 1.370 . S
C964 C966 1.363 . S
C964 H980 0.931 . S
C965 C964 1.370 . S
C965 C969 1.408 . S
C966 C964 1.363 . S
C966 C967 1.370 . S
C966 C970 1.524 . S
C967 C959 1.503 . S
C967 C966 1.370 . S
C967 C968 1.403 . S
C968 C967 1.403 . S
C968 C969 1.404 . S
C968 C971 1.539 . S
C969 C965 1.408 . S
C969 C968 1.404 . S
C969 H981 0.930 . S
C970 C966 1.524 . S
C970 H982 0.956 . S
C970 H983 0.961 . S
C970 H984 0.961 . S
C971 C968 1.539 . S
C971 H985 0.958 . S
C971 H986 0.961 . S
C971 H987 0.960 . S
H972 C956 0.931 . S
H973 C961 0.929 . S
H974 C962 0.960 . S
H975 C962 0.962 . S
H976 C962 0.960 . S
H977 C963 0.961 . S
H978 C963 0.961 . S
H979 C963 0.961 . S
H980 C964 0.931 . S
H981 C969 0.930 . S
H982 C970 0.956 . S
H983 C970 0.961 . S
H984 C970 0.961 . S
H985 C971 0.958 . S
H986 C971 0.961 . S
H987 C971 0.960 . S
C988 C989 1.391 . S
C988 C990 1.394 . S
C988 H1004 0.931 . S
C989 C988 1.391 . S
C989 C993 1.376 . S
C990 C988 1.394 . S
C990 C991 1.369 . S
C990 C994 1.531 . S
C991 C990 1.369 . S
C991 C992 1.410 . S
C991 C999 1.503 . S
C992 C991 1.410 . S
C992 C993 1.392 . S
C992 C995 1.511 . S
C993 C989 1.376 . S
C993 C992 1.392 . S
C993 H1005 0.929 . S
C994 C990 1.531 . S
C994 H1006 0.960 . S
C994 H1007 0.962 . S
C994 H1008 0.960 . S
C995 C992 1.511 . S
C995 H1009 0.961 . S
C995 H1010 0.961 . S
C995 H1011 0.961 . S
C996 C997 1.370 . S
C996 C998 1.363 . S
C996 H1012 0.931 1_556 S
C997 C996 1.370 . S
C997 C1001 1.408 . S
C998 C996 1.363 . S
C998 C999 1.370 . S
C998 C1002 1.524 1_556 S
C999 C991 1.503 . S
C999 C998 1.370 . S
C999 C1000 1.403 . S
C1000 C999 1.403 . S
C1000 C1001 1.404 . S
C1000 C1003 1.539 . S
C1001 C997 1.408 . S
C1001 C1000 1.404 . S
C1001 H1013 0.930 . S
C1002 C998 1.524 1_554 S
C1002 H1014 0.956 . S
C1002 H1015 0.961 1_554 S
C1002 H1016 0.961 . S
C1003 C1000 1.539 . S
C1003 H1017 0.958 . S
C1003 H1018 0.961 . S
C1003 H1019 0.960 . S
H1004 C988 0.931 . S
H1005 C993 0.929 . S
H1006 C994 0.960 . S
H1007 C994 0.962 . S
H1008 C994 0.960 . S
H1009 C995 0.961 . S
H1010 C995 0.961 . S
H1011 C995 0.961 . S
H1012 C996 0.931 1_554 S
H1013 C1001 0.930 . S
H1014 C1002 0.956 . S
H1015 C1002 0.961 1_556 S
H1016 C1002 0.961 . S
H1017 C1003 0.958 . S
H1018 C1003 0.961 . S
H1019 C1003 0.960 . S
C1020 C1021 1.391 . S
C1020 C1022 1.394 . S
C1020 H1036 0.931 . S
C1021 C1020 1.391 . S
C1021 C1025 1.376 . S
C1022 C1020 1.394 . S
C1022 C1023 1.369 . S
C1022 C1026 1.531 . S
C1023 C1022 1.369 . S
C1023 C1024 1.410 . S
C1023 C1031 1.503 . S
C1024 C1023 1.410 . S
C1024 C1025 1.392 . S
C1024 C1027 1.511 . S
C1025 C1021 1.376 . S
C1025 C1024 1.392 . S
C1025 H1037 0.929 . S
C1026 C1022 1.531 . S
C1026 H1038 0.960 . S
C1026 H1039 0.962 . S
C1026 H1040 0.960 . S
C1027 C1024 1.511 . S
C1027 H1041 0.961 . S
C1027 H1042 0.961 . S
C1027 H1043 0.961 . S
C1028 C1029 1.370 . S
C1028 C1030 1.363 . S
C1028 H1044 0.931 . S
C1029 C1028 1.370 . S
C1029 C1033 1.408 . S
C1030 C1028 1.363 . S
C1030 C1031 1.370 . S
C1030 C1034 1.524 . S
C1031 C1023 1.503 . S
C1031 C1030 1.370 . S
C1031 C1032 1.403 . S
C1032 C1031 1.403 . S
C1032 C1033 1.404 . S
C1032 C1035 1.539 . S
C1033 C1029 1.408 . S
C1033 C1032 1.404 . S
C1033 H1045 0.930 . S
C1034 C1030 1.524 . S
C1034 H1046 0.956 . S
C1034 H1047 0.961 . S
C1034 H1048 0.961 . S
C1035 C1032 1.539 . S
C1035 H1049 0.958 . S
C1035 H1050 0.961 . S
C1035 H1051 0.960 . S
H1036 C1020 0.931 . S
H1037 C1025 0.929 . S
H1038 C1026 0.960 . S
H1039 C1026 0.962 . S
H1040 C1026 0.960 . S
H1041 C1027 0.961 . S
H1042 C1027 0.961 . S
H1043 C1027 0.961 . S
H1044 C1028 0.931 . S
H1045 C1033 0.930 . S
H1046 C1034 0.956 . S
H1047 C1034 0.961 . S
H1048 C1034 0.961 . S
H1049 C1035 0.958 . S
H1050 C1035 0.961 . S
H1051 C1035 0.960 . S
C1052 C1053 1.391 . S
C1052 C1054 1.394 . S
C1052 H1068 0.931 . S
C1053 C1052 1.391 . S
C1053 C1057 1.376 . S
C1054 C1052 1.394 . S
C1054 C1055 1.369 . S
C1054 C1058 1.531 . S
C1055 C1054 1.369 . S
C1055 C1056 1.410 . S
C1055 C1063 1.503 . S
C1056 C1055 1.410 . S
C1056 C1057 1.392 . S
C1056 C1059 1.511 . S
C1057 C1053 1.376 . S
C1057 C1056 1.392 . S
C1057 H1069 0.929 . S
C1058 C1054 1.531 . S
C1058 H1070 0.960 . S
C1058 H1071 0.962 . S
C1058 H1072 0.960 . S
C1059 C1056 1.511 . S
C1059 H1073 0.961 . S
C1059 H1074 0.961 . S
C1059 H1075 0.961 . S
C1060 C1061 1.370 . S
C1060 C1062 1.363 . S
C1060 H1076 0.931 . S
C1061 C1060 1.370 . S
C1061 C1065 1.408 . S
C1062 C1060 1.363 . S
C1062 C1063 1.370 . S
C1062 C1066 1.524 . S
C1063 C1055 1.503 . S
C1063 C1062 1.370 . S
C1063 C1064 1.403 . S
C1064 C1063 1.403 . S
C1064 C1065 1.404 . S
C1064 C1067 1.539 . S
C1065 C1061 1.408 . S
C1065 C1064 1.404 . S
C1065 H1077 0.930 . S
C1066 C1062 1.524 . S
C1066 H1078 0.956 . S
C1066 H1079 0.961 . S
C1066 H1080 0.961 . S
C1067 C1064 1.539 . S
C1067 H1081 0.958 . S
C1067 H1082 0.961 . S
C1067 H1083 0.960 . S
H1068 C1052 0.931 . S
H1069 C1057 0.929 . S
H1070 C1058 0.960 . S
H1071 C1058 0.962 . S
H1072 C1058 0.960 . S
H1073 C1059 0.961 . S
H1074 C1059 0.961 . S
H1075 C1059 0.961 . S
H1076 C1060 0.931 . S
H1077 C1065 0.930 . S
H1078 C1066 0.956 . S
H1079 C1066 0.961 . S
H1080 C1066 0.961 . S
H1081 C1067 0.958 . S
H1082 C1067 0.961 . S
H1083 C1067 0.960 . S
C1084 C1085 1.391 . S
C1084 C1086 1.394 . S
C1084 H1100 0.931 . S
C1085 C1084 1.391 . S
C1085 C1089 1.376 . S
C1086 C1084 1.394 . S
C1086 C1087 1.369 . S
C1086 C1090 1.531 . S
C1087 C1086 1.369 . S
C1087 C1088 1.410 . S
C1087 C1095 1.503 . S
C1088 C1087 1.410 . S
C1088 C1089 1.392 . S
C1088 C1091 1.511 . S
C1089 C1085 1.376 . S
C1089 C1088 1.392 . S
C1089 H1101 0.929 . S
C1090 C1086 1.531 . S
C1090 H1102 0.960 . S
C1090 H1103 0.962 1_556 S
C1090 H1104 0.948 1_556 S
C1091 C1088 1.511 . S
C1091 H1105 0.961 . S
C1091 H1106 0.961 . S
C1091 H1107 0.961 . S
C1092 C1093 1.370 . S
C1092 C1094 1.363 . S
C1092 H1108 0.931 . S
C1093 C1092 1.370 . S
C1093 C1097 1.408 . S
C1094 C1092 1.363 . S
C1094 C1095 1.370 . S
C1094 C1098 1.524 . S
C1095 C1087 1.503 . S
C1095 C1094 1.370 . S
C1095 C1096 1.403 . S
C1096 C1095 1.403 . S
C1096 C1097 1.404 . S
C1096 C1099 1.539 . S
C1097 C1093 1.408 . S
C1097 C1096 1.404 . S
C1097 H1109 0.930 . S
C1098 C1094 1.524 . S
C1098 H1110 0.956 . S
C1098 H1111 0.961 . S
C1098 H1112 0.961 . S
C1099 C1096 1.539 . S
C1099 H1113 0.958 . S
C1099 H1114 0.961 . S
C1099 H1115 0.960 . S
H1100 C1084 0.931 . S
H1101 C1089 0.929 . S
H1102 C1090 0.960 . S
H1103 C1090 0.962 1_554 S
H1104 C1090 0.948 1_554 S
H1105 C1091 0.961 . S
H1106 C1091 0.961 . S
H1107 C1091 0.961 . S
H1108 C1092 0.931 . S
H1109 C1097 0.930 . S
H1110 C1098 0.956 . S
H1111 C1098 0.961 . S
H1112 C1098 0.961 . S
H1113 C1099 0.958 . S
H1114 C1099 0.961 . S
H1115 C1099 0.960 . S
C1116 C1117 1.391 . S
C1116 C1118 1.394 . S
C1116 H1132 0.931 . S
C1117 C1116 1.391 . S
C1117 C1121 1.376 . S
C1118 C1116 1.394 . S
C1118 C1119 1.369 . S
C1118 C1122 1.531 . S
C1119 C1118 1.369 . S
C1119 C1120 1.410 . S
C1119 C1127 1.503 . S
C1120 C1119 1.410 . S
C1120 C1121 1.392 . S
C1120 C1123 1.511 . S
C1121 C1117 1.376 . S
C1121 C1120 1.392 . S
C1121 H1133 0.929 . S
C1122 C1118 1.531 . S
C1122 H1134 0.960 . S
C1122 H1135 0.962 . S
C1122 H1136 0.960 . S
C1123 C1120 1.511 . S
C1123 H1137 0.961 . S
C1123 H1138 0.961 . S
C1123 H1139 0.961 . S
C1124 C1125 1.370 . S
C1124 C1126 1.363 . S
C1124 H1140 0.931 . S
C1125 C1124 1.370 . S
C1125 C1129 1.408 . S
C1126 C1124 1.363 . S
C1126 C1127 1.370 . S
C1126 C1130 1.524 . S
C1127 C1119 1.503 . S
C1127 C1126 1.370 . S
C1127 C1128 1.403 . S
C1128 C1127 1.403 . S
C1128 C1129 1.404 . S
C1128 C1131 1.539 . S
C1129 C1125 1.408 . S
C1129 C1128 1.404 . S
C1129 H1141 0.928 . S
C1130 C1126 1.524 . S
C1130 H1142 0.956 . S
C1130 H1143 0.961 . S
C1130 H1144 0.961 . S
C1131 C1128 1.539 . S
C1131 H1145 0.958 1_554 S
C1131 H1146 0.969 . S
C1131 H1147 0.960 . S
H1132 C1116 0.931 . S
H1133 C1121 0.929 . S
H1134 C1122 0.960 . S
H1135 C1122 0.962 . S
H1136 C1122 0.960 . S
H1137 C1123 0.961 . S
H1138 C1123 0.961 . S
H1139 C1123 0.961 . S
H1140 C1124 0.931 . S
H1141 C1129 0.928 . S
H1142 C1130 0.956 . S
H1143 C1130 0.961 . S
H1144 C1130 0.961 . S
H1145 C1131 0.958 1_556 S
H1146 C1131 0.969 . S
H1147 C1131 0.960 . S
C1148 C1149 1.391 . S
C1148 C1150 1.394 . S
C1148 H1164 0.931 . S
C1149 C1148 1.391 . S
C1149 C1153 1.376 . S
C1150 C1148 1.394 . S
C1150 C1151 1.369 . S
C1150 C1154 1.531 . S
C1151 C1150 1.369 . S
C1151 C1152 1.410 . S
C1151 C1159 1.503 . S
C1152 C1151 1.410 . S
C1152 C1153 1.392 . S
C1152 C1155 1.511 . S
C1153 C1149 1.376 . S
C1153 C1152 1.392 . S
C1153 H1165 0.929 . S
C1154 C1150 1.531 . S
C1154 H1166 0.960 . S
C1154 H1167 0.962 . S
C1154 H1168 0.960 . S
C1155 C1152 1.511 . S
C1155 H1169 0.961 . S
C1155 H1170 0.961 . S
C1155 H1171 0.961 . S
C1156 C1157 1.370 . S
C1156 C1158 1.363 . S
C1156 H1172 0.931 . S
C1157 C1156 1.370 . S
C1157 C1161 1.408 . S
C1158 C1156 1.363 . S
C1158 C1159 1.370 . S
C1158 C1162 1.524 . S
C1159 C1151 1.503 . S
C1159 C1158 1.370 . S
C1159 C1160 1.403 . S
C1160 C1159 1.403 . S
C1160 C1161 1.404 . S
C1160 C1163 1.539 . S
C1161 C1157 1.408 . S
C1161 C1160 1.404 . S
C1161 H1173 0.930 . S
C1162 C1158 1.524 . S
C1162 H1174 0.956 . S
C1162 H1175 0.961 . S
C1162 H1176 0.961 . S
C1163 C1160 1.539 . S
C1163 H1177 0.958 . S
C1163 H1178 0.961 . S
C1163 H1179 0.960 . S
H1164 C1148 0.931 . S
H1165 C1153 0.929 . S
H1166 C1154 0.960 . S
H1167 C1154 0.962 . S
H1168 C1154 0.960 . S
H1169 C1155 0.961 . S
H1170 C1155 0.961 . S
H1171 C1155 0.961 . S
H1172 C1156 0.931 . S
H1173 C1161 0.930 . S
H1174 C1162 0.956 . S
H1175 C1162 0.961 . S
H1176 C1162 0.961 . S
H1177 C1163 0.958 . S
H1178 C1163 0.961 . S
H1179 C1163 0.960 . S
C1180 C1181 1.391 . S
C1180 C1182 1.394 . S
C1180 H1196 0.931 . S
C1181 C1180 1.391 . S
C1181 C1185 1.376 . S
C1182 C1180 1.394 . S
C1182 C1183 1.369 . S
C1182 C1186 1.531 . S
C1183 C1182 1.369 . S
C1183 C1184 1.410 . S
C1183 C1191 1.503 . S
C1184 C1183 1.410 . S
C1184 C1185 1.392 . S
C1184 C1187 1.511 . S
C1185 C1181 1.376 . S
C1185 C1184 1.392 . S
C1185 H1197 0.929 . S
C1186 C1182 1.531 . S
C1186 H1198 0.960 . S
C1186 H1199 0.962 . S
C1186 H1200 0.960 . S
C1187 C1184 1.511 . S
C1187 H1201 0.961 . S
C1187 H1202 0.961 . S
C1187 H1203 0.961 . S
C1188 C1189 1.370 . S
C1188 C1190 1.363 . S
C1188 H1204 0.931 . S
C1189 C1188 1.370 . S
C1189 C1193 1.408 . S
C1190 C1188 1.363 . S
C1190 C1191 1.370 . S
C1190 C1194 1.524 . S
C1191 C1183 1.503 . S
C1191 C1190 1.370 . S
C1191 C1192 1.403 . S
C1192 C1191 1.403 . S
C1192 C1193 1.404 . S
C1192 C1195 1.539 1_554 S
C1193 C1189 1.408 . S
C1193 C1192 1.404 . S
C1193 H1205 0.930 1_554 S
C1194 C1190 1.524 . S
C1194 H1206 0.956 . S
C1194 H1207 0.961 . S
C1194 H1208 0.961 . S
C1195 C1192 1.539 1_556 S
C1195 H1209 0.958 . S
C1195 H1210 0.961 . S
C1195 H1211 0.960 . S
H1196 C1180 0.931 . S
H1197 C1185 0.929 . S
H1198 C1186 0.960 . S
H1199 C1186 0.962 . S
H1200 C1186 0.960 . S
H1201 C1187 0.961 . S
H1202 C1187 0.961 . S
H1203 C1187 0.961 . S
H1204 C1188 0.931 . S
H1205 C1193 0.930 1_556 S
H1206 C1194 0.956 . S
H1207 C1194 0.961 . S
H1208 C1194 0.961 . S
H1209 C1195 0.958 . S
H1210 C1195 0.961 . S
H1211 C1195 0.960 . S
C1212 C1213 1.391 . S
C1212 C1214 1.394 1_655 S
C1212 H1228 0.931 . S
C1213 C1212 1.391 . S
C1213 C1217 1.376 . S
C1214 C1212 1.394 1_455 S
C1214 C1215 1.369 . S
C1214 C1218 1.531 . S
C1215 C1214 1.369 . S
C1215 C1216 1.410 . S
C1215 C1223 1.503 . S
C1216 C1215 1.410 . S
C1216 C1217 1.392 1_455 S
C1216 C1219 1.511 . S
C1217 C1213 1.376 . S
C1217 C1216 1.392 1_655 S
C1217 H1229 0.929 . S
C1218 C1214 1.531 . S
C1218 H1230 0.960 . S
C1218 H1231 0.962 . S
C1218 H1232 0.960 . S
C1219 C1216 1.511 . S
C1219 H1233 0.961 . S
C1219 H1234 0.961 . S
C1219 H1235 0.961 . S
C1220 C1221 1.370 . S
C1220 C1222 1.363 . S
C1220 H1236 0.931 . S
C1221 C1220 1.370 . S
C1221 C1225 1.408 . S
C1222 C1220 1.363 . S
C1222 C1223 1.370 . S
C1222 C1226 1.524 . S
C1223 C1215 1.503 . S
C1223 C1222 1.370 . S
C1223 C1224 1.403 . S
C1224 C1223 1.403 . S
C1224 C1225 1.404 . S
C1224 C1227 1.539 . S
C1225 C1221 1.408 . S
C1225 C1224 1.404 . S
C1225 H1237 0.930 . S
C1226 C1222 1.524 . S
C1226 H1238 0.956 . S
C1226 H1239 0.961 . S
C1226 H1240 0.961 . S
C1227 C1224 1.539 . S
C1227 H1241 0.958 . S
C1227 H1242 0.961 . S
C1227 H1243 0.960 . S
H1228 C1212 0.931 . S
H1229 C1217 0.929 . S
H1230 C1218 0.960 . S
H1231 C1218 0.962 . S
H1232 C1218 0.960 . S
H1233 C1219 0.961 . S
H1234 C1219 0.961 . S
H1235 C1219 0.961 . S
H1236 C1220 0.931 . S
H1237 C1225 0.930 . S
H1238 C1226 0.956 . S
H1239 C1226 0.961 . S
H1240 C1226 0.961 . S
H1241 C1227 0.958 . S
H1242 C1227 0.961 . S
H1243 C1227 0.960 . S
C1244 C1245 1.391 . S
C1244 C1246 1.394 . S
C1244 H1260 0.931 . S
C1245 C1244 1.391 . S
C1245 C1249 1.376 . S
C1246 C1244 1.394 . S
C1246 C1247 1.369 . S
C1246 C1250 1.531 . S
C1247 C1246 1.369 . S
C1247 C1248 1.410 . S
C1247 C1255 1.503 . S
C1248 C1247 1.410 . S
C1248 C1249 1.392 . S
C1248 C1251 1.511 . S
C1249 C1245 1.376 . S
C1249 C1248 1.392 . S
C1249 H1261 0.929 . S
C1250 C1246 1.531 . S
C1250 H1262 0.960 . S
C1250 H1263 0.962 . S
C1250 H1264 0.960 . S
C1251 C1248 1.511 . S
C1251 H1265 0.961 . S
C1251 H1266 0.961 . S
C1251 H1267 0.961 . S
C1252 C1253 1.370 . S
C1252 C1254 1.363 . S
C1252 H1268 0.931 . S
C1253 C1252 1.370 . S
C1253 C1257 1.408 . S
C1254 C1252 1.363 . S
C1254 C1255 1.370 . S
C1254 C1258 1.524 . S
C1255 C1247 1.503 . S
C1255 C1254 1.370 . S
C1255 C1256 1.403 . S
C1256 C1255 1.403 . S
C1256 C1257 1.404 . S
C1256 C1259 1.539 . S
C1257 C1253 1.408 . S
C1257 C1256 1.404 . S
C1257 H1269 0.930 . S
C1258 C1254 1.524 . S
C1258 H1270 0.956 . S
C1258 H1271 0.961 . S
C1258 H1272 0.961 . S
C1259 C1256 1.539 . S
C1259 H1273 0.958 . S
C1259 H1274 0.961 . S
C1259 H1275 0.960 . S
H1260 C1244 0.931 . S
H1261 C1249 0.929 . S
H1262 C1250 0.960 . S
H1263 C1250 0.962 . S
H1264 C1250 0.960 . S
H1265 C1251 0.961 . S
H1266 C1251 0.961 . S
H1267 C1251 0.961 . S
H1268 C1252 0.931 . S
H1269 C1257 0.930 . S
H1270 C1258 0.956 . S
H1271 C1258 0.961 . S
H1272 C1258 0.961 . S
H1273 C1259 0.958 . S
H1274 C1259 0.961 . S
H1275 C1259 0.960 . S
C1276 C1277 1.391 . S
C1276 C1278 1.394 1_545 S
C1276 H1292 0.931 . S
C1277 C1276 1.391 . S
C1277 C1281 1.376 . S
C1278 C1276 1.394 1_565 S
C1278 C1279 1.369 . S
C1278 C1282 1.531 . S
C1279 C1278 1.369 . S
C1279 C1280 1.410 . S
C1279 C1287 1.503 . S
C1280 C1279 1.410 . S
C1280 C1281 1.392 1_565 S
C1280 C1283 1.511 . S
C1281 C1277 1.376 . S
C1281 C1280 1.392 1_545 S
C1281 H1293 0.929 . S
C1282 C1278 1.531 . S
C1282 H1294 0.960 . S
C1282 H1295 0.962 . S
C1282 H1296 0.960 . S
C1283 C1280 1.511 . S
C1283 H1297 0.959 1_565 S
C1283 H1298 0.961 . S
C1283 H1299 0.961 . S
C1284 C1285 1.370 . S
C1284 C1286 1.363 . S
C1284 H1300 0.931 . S
C1285 C1284 1.370 . S
C1285 C1289 1.408 . S
C1286 C1284 1.363 . S
C1286 C1287 1.370 . S
C1286 C1290 1.524 . S
C1287 C1279 1.503 . S
C1287 C1286 1.370 . S
C1287 C1288 1.403 . S
C1288 C1287 1.403 . S
C1288 C1289 1.404 . S
C1288 C1291 1.539 . S
C1289 C1285 1.408 . S
C1289 C1288 1.404 . S
C1289 H1301 0.930 . S
C1290 C1286 1.524 . S
C1290 H1302 0.956 . S
C1290 H1303 0.961 . S
C1290 H1304 0.961 . S
C1291 C1288 1.539 . S
C1291 H1305 0.958 . S
C1291 H1306 0.961 . S
C1291 H1307 0.960 . S
H1292 C1276 0.931 . S
H1293 C1281 0.929 . S
H1294 C1282 0.960 . S
H1295 C1282 0.962 . S
H1296 C1282 0.960 . S
H1297 C1283 0.959 1_545 S
H1298 C1283 0.961 . S
H1299 C1283 0.961 . S
H1300 C1284 0.931 . S
H1301 C1289 0.930 . S
H1302 C1290 0.956 . S
H1303 C1290 0.961 . S
H1304 C1290 0.961 . S
H1305 C1291 0.958 . S
H1306 C1291 0.961 . S
H1307 C1291 0.960 . S
C1308 C1309 1.391 . S
C1308 C1310 1.394 . S
C1308 H1324 0.931 . S
C1309 C1308 1.391 . S
C1309 C1313 1.376 . S
C1310 C1308 1.394 . S
C1310 C1311 1.369 . S
C1310 C1314 1.531 . S
C1311 C1310 1.369 . S
C1311 C1312 1.410 . S
C1311 C1319 1.503 . S
C1312 C1311 1.410 . S
C1312 C1313 1.392 . S
C1312 C1315 1.511 . S
C1313 C1309 1.376 . S
C1313 C1312 1.392 . S
C1313 H1325 0.929 . S
C1314 C1310 1.531 . S
C1314 H1326 0.960 . S
C1314 H1327 0.962 . S
C1314 H1328 0.960 . S
C1315 C1312 1.511 . S
C1315 H1329 0.961 . S
C1315 H1330 0.961 . S
C1315 H1331 0.961 . S
C1316 C1317 1.370 . S
C1316 C1318 1.363 . S
C1316 H1332 0.931 . S
C1317 C1316 1.370 . S
C1317 C1321 1.408 . S
C1318 C1316 1.363 . S
C1318 C1319 1.370 . S
C1318 C1322 1.524 . S
C1319 C1311 1.503 . S
C1319 C1318 1.370 . S
C1319 C1320 1.403 . S
C1320 C1319 1.403 . S
C1320 C1321 1.404 . S
C1320 C1323 1.539 . S
C1321 C1317 1.408 . S
C1321 C1320 1.404 . S
C1321 H1333 0.930 . S
C1322 C1318 1.524 . S
C1322 H1334 0.956 . S
C1322 H1335 0.961 . S
C1322 H1336 0.961 . S
C1323 C1320 1.539 . S
C1323 H1337 0.958 . S
C1323 H1338 0.961 . S
C1323 H1339 0.960 . S
H1324 C1308 0.931 . S
H1325 C1313 0.929 . S
H1326 C1314 0.960 . S
H1327 C1314 0.962 . S
H1328 C1314 0.960 . S
H1329 C1315 0.961 . S
H1330 C1315 0.961 . S
H1331 C1315 0.961 . S
H1332 C1316 0.931 . S
H1333 C1321 0.930 . S
H1334 C1322 0.956 . S
H1335 C1322 0.961 . S
H1336 C1322 0.961 . S
H1337 C1323 0.958 . S
H1338 C1323 0.961 . S
H1339 C1323 0.960 . S
C1340 C1341 1.391 . S
C1340 C1342 1.394 . S
C1340 H1356 0.931 . S
C1341 C1340 1.391 . S
C1341 C1345 1.376 . S
C1342 C1340 1.394 . S
C1342 C1343 1.369 . S
C1342 C1346 1.531 . S
C1343 C1342 1.369 . S
C1343 C1344 1.410 . S
C1343 C1351 1.503 . S
C1344 C1343 1.410 . S
C1344 C1345 1.392 . S
C1344 C1347 1.511 . S
C1345 C1341 1.376 . S
C1345 C1344 1.392 . S
C1345 H1357 0.929 . S
C1346 C1342 1.531 . S
C1346 H1358 0.960 . S
C1346 H1359 0.962 . S
C1346 H1360 0.960 . S
C1347 C1344 1.511 . S
C1347 H1361 0.961 . S
C1347 H1362 0.961 . S
C1347 H1363 0.961 . S
C1348 C1349 1.370 . S
C1348 C1350 1.363 . S
C1348 H1364 0.931 . S
C1349 C1348 1.370 . S
C1349 C1353 1.408 . S
C1350 C1348 1.363 . S
C1350 C1351 1.370 . S
C1350 C1354 1.524 . S
C1351 C1343 1.503 . S
C1351 C1350 1.370 . S
C1351 C1352 1.403 . S
C1352 C1351 1.403 . S
C1352 C1353 1.404 . S
C1352 C1355 1.539 . S
C1353 C1349 1.408 . S
C1353 C1352 1.404 . S
C1353 H1365 0.930 . S
C1354 C1350 1.524 . S
C1354 H1366 0.956 . S
C1354 H1367 0.961 . S
C1354 H1368 0.961 . S
C1355 C1352 1.539 . S
C1355 H1369 0.958 . S
C1355 H1370 0.961 . S
C1355 H1371 0.960 . S
H1356 C1340 0.931 . S
H1357 C1345 0.929 . S
H1358 C1346 0.960 . S
H1359 C1346 0.962 . S
H1360 C1346 0.960 . S
H1361 C1347 0.961 . S
H1362 C1347 0.961 . S
H1363 C1347 0.961 . S
H1364 C1348 0.931 . S
H1365 C1353 0.930 . S
H1366 C1354 0.956 . S
H1367 C1354 0.961 . S
H1368 C1354 0.961 . S
H1369 C1355 0.958 . S
H1370 C1355 0.961 . S
H1371 C1355 0.960 . S
C1372 C1373 1.391 . S
C1372 C1374 1.394 . S
C1372 H1388 0.931 . S
C1373 C1372 1.391 . S
C1373 C1377 1.376 . S
C1374 C1372 1.394 . S
C1374 C1375 1.369 . S
C1374 C1378 1.531 . S
C1375 C1374 1.369 . S
C1375 C1376 1.410 . S
C1375 C1383 1.503 . S
C1376 C1375 1.410 . S
C1376 C1377 1.392 . S
C1376 C1379 1.511 . S
C1377 C1373 1.376 . S
C1377 C1376 1.392 . S
C1377 H1389 0.929 . S
C1378 C1374 1.531 . S
C1378 H1390 0.960 . S
C1378 H1391 0.962 . S
C1378 H1392 0.960 . S
C1379 C1376 1.511 . S
C1379 H1393 0.961 . S
C1379 H1394 0.961 . S
C1379 H1395 0.961 . S
C1380 C1381 1.370 . S
C1380 C1382 1.363 . S
C1380 H1396 0.931 . S
C1381 C1380 1.370 . S
C1381 C1385 1.408 . S
C1382 C1380 1.363 . S
C1382 C1383 1.370 . S
C1382 C1386 1.524 . S
C1383 C1375 1.503 . S
C1383 C1382 1.370 . S
C1383 C1384 1.403 . S
C1384 C1383 1.403 . S
C1384 C1385 1.404 . S
C1384 C1387 1.539 . S
C1385 C1381 1.408 . S
C1385 C1384 1.404 . S
C1385 H1397 0.930 . S
C1386 C1382 1.524 . S
C1386 H1398 0.956 . S
C1386 H1399 0.961 . S
C1386 H1400 0.961 . S
C1387 C1384 1.539 . S
C1387 H1401 0.958 . S
C1387 H1402 0.961 . S
C1387 H1403 0.960 . S
H1388 C1372 0.931 . S
H1389 C1377 0.929 . S
H1390 C1378 0.960 . S
H1391 C1378 0.962 . S
H1392 C1378 0.960 . S
H1393 C1379 0.961 . S
H1394 C1379 0.961 . S
H1395 C1379 0.961 . S
H1396 C1380 0.931 . S
H1397 C1385 0.930 . S
H1398 C1386 0.956 . S
H1399 C1386 0.961 . S
H1400 C1386 0.961 . S
H1401 C1387 0.958 . S
H1402 C1387 0.961 . S
H1403 C1387 0.960 . S
C1404 C1405 1.391 . S
C1404 C1406 1.394 . S
C1404 H1420 0.931 . S
C1405 C1404 1.391 . S
C1405 C1409 1.376 . S
C1406 C1404 1.394 . S
C1406 C1407 1.369 . S
C1406 C1410 1.531 . S
C1407 C1406 1.369 . S
C1407 C1408 1.410 . S
C1407 C1415 1.503 . S
C1408 C1407 1.410 . S
C1408 C1409 1.392 . S
C1408 C1411 1.511 . S
C1409 C1405 1.376 . S
C1409 C1408 1.392 . S
C1409 H1421 0.929 . S
C1410 C1406 1.531 . S
C1410 H1422 0.960 . S
C1410 H1423 0.962 . S
C1410 H1424 0.960 . S
C1411 C1408 1.511 . S
C1411 H1425 0.961 . S
C1411 H1426 0.961 . S
C1411 H1427 0.961 . S
C1412 C1413 1.370 . S
C1412 C1414 1.363 . S
C1412 H1428 0.931 . S
C1413 C1412 1.370 . S
C1413 C1417 1.408 . S
C1414 C1412 1.363 . S
C1414 C1415 1.370 . S
C1414 C1418 1.524 . S
C1415 C1407 1.503 . S
C1415 C1414 1.370 . S
C1415 C1416 1.403 . S
C1416 C1415 1.403 . S
C1416 C1417 1.404 . S
C1416 C1419 1.539 . S
C1417 C1413 1.408 . S
C1417 C1416 1.404 . S
C1417 H1429 0.930 . S
C1418 C1414 1.524 . S
C1418 H1430 0.956 . S
C1418 H1431 0.961 . S
C1418 H1432 0.961 . S
C1419 C1416 1.539 . S
C1419 H1433 0.958 . S
C1419 H1434 0.961 . S
C1419 H1435 0.960 . S
H1420 C1404 0.931 . S
H1421 C1409 0.929 . S
H1422 C1410 0.960 . S
H1423 C1410 0.962 . S
H1424 C1410 0.960 . S
H1425 C1411 0.961 . S
H1426 C1411 0.961 . S
H1427 C1411 0.961 . S
H1428 C1412 0.931 . S
H1429 C1417 0.930 . S
H1430 C1418 0.956 . S
H1431 C1418 0.961 . S
H1432 C1418 0.961 . S
H1433 C1419 0.958 . S
H1434 C1419 0.961 . S
H1435 C1419 0.960 . S
C1436 C1437 1.391 . S
C1436 C1438 1.394 . S
C1436 H1452 0.931 . S
C1437 C1436 1.391 . S
C1437 C1441 1.376 . S
C1438 C1436 1.394 . S
C1438 C1439 1.369 . S
C1438 C1442 1.531 . S
C1439 C1438 1.369 . S
C1439 C1440 1.410 . S
C1439 C1447 1.503 . S
C1440 C1439 1.410 . S
C1440 C1441 1.392 . S
C1440 C1443 1.511 . S
C1441 C1437 1.376 . S
C1441 C1440 1.392 . S
C1441 H1453 0.929 . S
C1442 C1438 1.531 . S
C1442 H1454 0.960 . S
C1442 H1455 0.962 . S
C1442 H1456 0.960 . S
C1443 C1440 1.511 . S
C1443 H1457 0.961 . S
C1443 H1458 0.961 . S
C1443 H1459 0.961 . S
C1444 C1445 1.370 . S
C1444 C1446 1.363 . S
C1444 H1460 0.931 . S
C1445 C1444 1.370 . S
C1445 C1449 1.408 . S
C1446 C1444 1.363 . S
C1446 C1447 1.370 . S
C1446 C1450 1.524 . S
C1447 C1439 1.503 . S
C1447 C1446 1.370 . S
C1447 C1448 1.403 . S
C1448 C1447 1.403 . S
C1448 C1449 1.404 . S
C1448 C1451 1.539 . S
C1449 C1445 1.408 . S
C1449 C1448 1.404 . S
C1449 H1461 0.930 . S
C1450 C1446 1.524 . S
C1450 H1462 0.956 . S
C1450 H1463 0.961 . S
C1450 H1464 0.961 . S
C1451 C1448 1.539 . S
C1451 H1465 0.958 . S
C1451 H1466 0.961 . S
C1451 H1467 0.960 . S
H1452 C1436 0.931 . S
H1453 C1441 0.929 . S
H1454 C1442 0.960 . S
H1455 C1442 0.962 . S
H1456 C1442 0.960 . S
H1457 C1443 0.961 . S
H1458 C1443 0.961 . S
H1459 C1443 0.961 . S
H1460 C1444 0.931 . S
H1461 C1449 0.930 . S
H1462 C1450 0.956 . S
H1463 C1450 0.961 . S
H1464 C1450 0.961 . S
H1465 C1451 0.958 . S
H1466 C1451 0.961 . S
H1467 C1451 0.960 . S
C1468 C1469 1.391 . S
C1468 C1470 1.394 . S
C1468 H1484 0.931 . S
C1469 C1468 1.391 . S
C1469 C1473 1.376 . S
C1470 C1468 1.394 . S
C1470 C1471 1.369 . S
C1470 C1474 1.531 . S
C1471 C1470 1.369 . S
C1471 C1472 1.410 . S
C1471 C1479 1.503 . S
C1472 C1471 1.410 . S
C1472 C1473 1.392 . S
C1472 C1475 1.511 . S
C1473 C1469 1.376 . S
C1473 C1472 1.392 . S
C1473 H1485 0.929 . S
C1474 C1470 1.531 . S
C1474 H1486 0.960 . S
C1474 H1487 0.962 . S
C1474 H1488 0.960 . S
C1475 C1472 1.511 . S
C1475 H1489 0.961 . S
C1475 H1490 0.961 . S
C1475 H1491 0.961 . S
C1476 C1477 1.370 . S
C1476 C1478 1.363 . S
C1476 H1492 0.931 . S
C1477 C1476 1.370 . S
C1477 C1481 1.408 . S
C1478 C1476 1.363 . S
C1478 C1479 1.370 . S
C1478 C1482 1.524 . S
C1479 C1471 1.503 . S
C1479 C1478 1.370 . S
C1479 C1480 1.403 . S
C1480 C1479 1.403 . S
C1480 C1481 1.404 . S
C1480 C1483 1.539 . S
C1481 C1477 1.408 . S
C1481 C1480 1.404 . S
C1481 H1493 0.930 . S
C1482 C1478 1.524 . S
C1482 H1494 0.956 . S
C1482 H1495 0.961 . S
C1482 H1496 0.961 . S
C1483 C1480 1.539 . S
C1483 H1497 0.958 . S
C1483 H1498 0.961 . S
C1483 H1499 0.960 . S
H1484 C1468 0.931 . S
H1485 C1473 0.929 . S
H1486 C1474 0.960 . S
H1487 C1474 0.962 . S
H1488 C1474 0.960 . S
H1489 C1475 0.961 . S
H1490 C1475 0.961 . S
H1491 C1475 0.961 . S
H1492 C1476 0.931 . S
H1493 C1481 0.930 . S
H1494 C1482 0.956 . S
H1495 C1482 0.961 . S
H1496 C1482 0.961 . S
H1497 C1483 0.958 . S
H1498 C1483 0.961 . S
H1499 C1483 0.960 . S
C1500 C1501 1.391 . S
C1500 C1502 1.394 1_545 S
C1500 H1516 0.931 . S
C1501 C1500 1.391 . S
C1501 C1505 1.376 . S
C1502 C1500 1.394 1_565 S
C1502 C1503 1.369 . S
C1502 C1506 1.531 . S
C1503 C1502 1.369 . S
C1503 C1504 1.410 . S
C1503 C1511 1.503 . S
C1504 C1503 1.410 . S
C1504 C1505 1.392 1_565 S
C1504 C1507 1.511 . S
C1505 C1501 1.376 . S
C1505 C1504 1.392 1_545 S
C1505 H1517 0.929 . S
C1506 C1502 1.531 . S
C1506 H1518 0.960 . S
C1506 H1519 0.962 . S
C1506 H1520 0.960 . S
C1507 C1504 1.511 . S
C1507 H1521 0.935 1_565 S
C1507 H1522 0.961 . S
C1507 H1523 0.961 . S
C1508 C1509 1.370 . S
C1508 C1510 1.363 . S
C1508 H1524 0.931 . S
C1509 C1508 1.370 . S
C1509 C1513 1.408 . S
C1510 C1508 1.363 . S
C1510 C1511 1.370 . S
C1510 C1514 1.524 . S
C1511 C1503 1.503 . S
C1511 C1510 1.370 . S
C1511 C1512 1.403 . S
C1512 C1511 1.403 . S
C1512 C1513 1.404 . S
C1512 C1515 1.539 . S
C1513 C1509 1.408 . S
C1513 C1512 1.404 . S
C1513 H1525 0.930 . S
C1514 C1510 1.524 . S
C1514 H1526 0.956 . S
C1514 H1527 0.961 . S
C1514 H1528 0.961 . S
C1515 C1512 1.539 . S
C1515 H1529 0.958 . S
C1515 H1530 0.961 . S
C1515 H1531 0.960 . S
H1516 C1500 0.931 . S
H1517 C1505 0.929 . S
H1518 C1506 0.960 . S
H1519 C1506 0.962 . S
H1520 C1506 0.960 . S
H1521 C1507 0.935 1_545 S
H1522 C1507 0.961 . S
H1523 C1507 0.961 . S
H1524 C1508 0.931 . S
H1525 C1513 0.930 . S
H1526 C1514 0.956 . S
H1527 C1514 0.961 . S
H1528 C1514 0.961 . S
H1529 C1515 0.958 . S
H1530 C1515 0.961 . S
H1531 C1515 0.960 . S
C1532 C1533 1.391 . S
C1532 C1534 1.394 1_655 S
C1532 H1548 0.931 . S
C1533 C1532 1.391 . S
C1533 C1537 1.376 . S
C1534 C1532 1.394 1_455 S
C1534 C1535 1.369 . S
C1534 C1538 1.531 . S
C1535 C1534 1.369 . S
C1535 C1536 1.410 . S
C1535 C1543 1.503 . S
C1536 C1535 1.410 . S
C1536 C1537 1.392 1_455 S
C1536 C1539 1.511 . S
C1537 C1533 1.376 . S
C1537 C1536 1.392 1_655 S
C1537 H1549 0.929 . S
C1538 C1534 1.531 . S
C1538 H1550 0.960 . S
C1538 H1551 0.962 . S
C1538 H1552 0.960 . S
C1539 C1536 1.511 . S
C1539 H1553 0.961 . S
C1539 H1554 0.961 . S
C1539 H1555 0.961 . S
C1540 C1541 1.370 . S
C1540 C1542 1.363 . S
C1540 H1556 0.931 . S
C1541 C1540 1.370 . S
C1541 C1545 1.408 . S
C1542 C1540 1.363 . S
C1542 C1543 1.370 . S
C1542 C1546 1.524 . S
C1543 C1535 1.503 . S
C1543 C1542 1.370 . S
C1543 C1544 1.403 . S
C1544 C1543 1.403 . S
C1544 C1545 1.404 . S
C1544 C1547 1.539 . S
C1545 C1541 1.408 . S
C1545 C1544 1.404 . S
C1545 H1557 0.930 . S
C1546 C1542 1.524 . S
C1546 H1558 0.956 . S
C1546 H1559 0.961 . S
C1546 H1560 0.961 . S
C1547 C1544 1.539 . S
C1547 H1561 0.958 . S
C1547 H1562 0.961 . S
C1547 H1563 0.960 . S
H1548 C1532 0.931 . S
H1549 C1537 0.929 . S
H1550 C1538 0.960 . S
H1551 C1538 0.962 . S
H1552 C1538 0.960 . S
H1553 C1539 0.961 . S
H1554 C1539 0.961 . S
H1555 C1539 0.961 . S
H1556 C1540 0.931 . S
H1557 C1545 0.930 . S
H1558 C1546 0.956 . S
H1559 C1546 0.961 . S
H1560 C1546 0.961 . S
H1561 C1547 0.958 . S
H1562 C1547 0.961 . S
H1563 C1547 0.960 . S
C1564 C1565 1.391 . S
C1564 C1566 1.394 . S
C1564 H1580 0.931 . S
C1565 C1564 1.391 . S
C1565 C1569 1.376 . S
C1566 C1564 1.394 . S
C1566 C1567 1.369 . S
C1566 C1570 1.531 . S
C1567 C1566 1.369 . S
C1567 C1568 1.410 . S
C1567 C1575 1.503 . S
C1568 C1567 1.410 . S
C1568 C1569 1.392 . S
C1568 C1571 1.511 . S
C1569 C1565 1.376 . S
C1569 C1568 1.392 . S
C1569 H1581 0.929 . S
C1570 C1566 1.531 . S
C1570 H1582 0.960 . S
C1570 H1583 0.962 . S
C1570 H1584 0.960 . S
C1571 C1568 1.511 . S
C1571 H1585 0.961 . S
C1571 H1586 0.961 . S
C1571 H1587 0.961 . S
C1572 C1573 1.370 . S
C1572 C1574 1.363 . S
C1572 H1588 0.931 . S
C1573 C1572 1.370 . S
C1573 C1577 1.408 . S
C1574 C1572 1.363 . S
C1574 C1575 1.370 . S
C1574 C1578 1.524 . S
C1575 C1567 1.503 . S
C1575 C1574 1.370 . S
C1575 C1576 1.403 . S
C1576 C1575 1.403 . S
C1576 C1577 1.404 . S
C1576 C1579 1.539 . S
C1577 C1573 1.408 . S
C1577 C1576 1.404 . S
C1577 H1589 0.930 . S
C1578 C1574 1.524 . S
C1578 H1590 0.956 . S
C1578 H1591 0.961 . S
C1578 H1592 0.961 . S
C1579 C1576 1.539 . S
C1579 H1593 0.958 . S
C1579 H1594 0.961 . S
C1579 H1595 0.960 . S
H1580 C1564 0.931 . S
H1581 C1569 0.929 . S
H1582 C1570 0.960 . S
H1583 C1570 0.962 . S
H1584 C1570 0.960 . S
H1585 C1571 0.961 . S
H1586 C1571 0.961 . S
H1587 C1571 0.961 . S
H1588 C1572 0.931 . S
H1589 C1577 0.930 . S
H1590 C1578 0.956 . S
H1591 C1578 0.961 . S
H1592 C1578 0.961 . S
H1593 C1579 0.958 . S
H1594 C1579 0.961 . S
H1595 C1579 0.960 . S
C1596 C1597 1.391 . S
C1596 C1598 1.394 . S
C1596 H1612 0.931 . S
C1597 C1596 1.391 . S
C1597 C1601 1.376 . S
C1598 C1596 1.394 . S
C1598 C1599 1.369 . S
C1598 C1602 1.531 . S
C1599 C1598 1.369 . S
C1599 C1600 1.410 . S
C1599 C1607 1.503 . S
C1600 C1599 1.410 . S
C1600 C1601 1.392 . S
C1600 C1603 1.511 . S
C1601 C1597 1.376 . S
C1601 C1600 1.392 . S
C1601 H1613 0.929 . S
C1602 C1598 1.531 . S
C1602 H1614 0.960 . S
C1602 H1615 0.962 . S
C1602 H1616 0.960 . S
C1603 C1600 1.511 . S
C1603 H1617 0.961 . S
C1603 H1618 0.961 . S
C1603 H1619 0.961 . S
C1604 C1605 1.370 . S
C1604 C1606 1.363 . S
C1604 H1620 0.931 . S
C1605 C1604 1.370 . S
C1605 C1609 1.408 . S
C1606 C1604 1.363 . S
C1606 C1607 1.370 . S
C1606 C1610 1.524 . S
C1607 C1599 1.503 . S
C1607 C1606 1.370 . S
C1607 C1608 1.403 . S
C1608 C1607 1.403 . S
C1608 C1609 1.404 . S
C1608 C1611 1.539 . S
C1609 C1605 1.408 . S
C1609 C1608 1.404 . S
C1609 H1621 0.930 . S
C1610 C1606 1.524 . S
C1610 H1622 0.956 . S
C1610 H1623 0.961 . S
C1610 H1624 0.961 . S
C1611 C1608 1.539 . S
C1611 H1625 0.958 . S
C1611 H1626 0.961 . S
C1611 H1627 0.960 . S
H1612 C1596 0.931 . S
H1613 C1601 0.929 . S
H1614 C1602 0.960 . S
H1615 C1602 0.962 . S
H1616 C1602 0.960 . S
H1617 C1603 0.961 . S
H1618 C1603 0.961 . S
H1619 C1603 0.961 . S
H1620 C1604 0.931 . S
H1621 C1609 0.930 . S
H1622 C1610 0.956 . S
H1623 C1610 0.961 . S
H1624 C1610 0.961 . S
H1625 C1611 0.958 . S
H1626 C1611 0.961 . S
H1627 C1611 0.960 . S
C1628 C1629 1.391 . S
C1628 C1630 1.394 . S
C1628 H1644 0.931 . S
C1629 C1628 1.391 . S
C1629 C1633 1.376 . S
C1630 C1628 1.394 . S
C1630 C1631 1.369 . S
C1630 C1634 1.531 . S
C1631 C1630 1.369 . S
C1631 C1632 1.410 . S
C1631 C1639 1.503 . S
C1632 C1631 1.410 . S
C1632 C1633 1.392 . S
C1632 C1635 1.511 . S
C1633 C1629 1.376 . S
C1633 C1632 1.392 . S
C1633 H1645 0.929 . S
C1634 C1630 1.531 . S
C1634 H1646 0.960 . S
C1634 H1647 0.962 . S
C1634 H1648 0.960 . S
C1635 C1632 1.511 . S
C1635 H1649 0.961 . S
C1635 H1650 0.961 . S
C1635 H1651 0.961 . S
C1636 C1637 1.370 . S
C1636 C1638 1.363 . S
C1636 H1652 0.931 . S
C1637 C1636 1.370 . S
C1637 C1641 1.408 . S
C1638 C1636 1.363 . S
C1638 C1639 1.370 . S
C1638 C1642 1.524 . S
C1639 C1631 1.503 . S
C1639 C1638 1.370 . S
C1639 C1640 1.403 . S
C1640 C1639 1.403 . S
C1640 C1641 1.404 . S
C1640 C1643 1.539 . S
C1641 C1637 1.408 . S
C1641 C1640 1.404 . S
C1641 H1653 0.930 . S
C1642 C1638 1.524 . S
C1642 H1654 0.956 . S
C1642 H1655 0.961 . S
C1642 H1656 0.961 . S
C1643 C1640 1.539 . S
C1643 H1657 0.958 . S
C1643 H1658 0.961 . S
C1643 H1659 0.960 . S
H1644 C1628 0.931 . S
H1645 C1633 0.929 . S
H1646 C1634 0.960 . S
H1647 C1634 0.962 . S
H1648 C1634 0.960 . S
H1649 C1635 0.961 . S
H1650 C1635 0.961 . S
H1651 C1635 0.961 . S
H1652 C1636 0.931 . S
H1653 C1641 0.930 . S
H1654 C1642 0.956 . S
H1655 C1642 0.961 . S
H1656 C1642 0.961 . S
H1657 C1643 0.958 . S
H1658 C1643 0.961 . S
H1659 C1643 0.960 . S
C1660 C1661 1.391 . S
C1660 C1662 1.394 . S
C1660 H1676 0.931 . S
C1661 C1660 1.391 . S
C1661 C1665 1.376 . S
C1662 C1660 1.394 . S
C1662 C1663 1.369 . S
C1662 C1666 1.531 . S
C1663 C1662 1.369 . S
C1663 C1664 1.410 . S
C1663 C1671 1.503 . S
C1664 C1663 1.410 . S
C1664 C1665 1.392 . S
C1664 C1667 1.511 . S
C1665 C1661 1.376 . S
C1665 C1664 1.392 . S
C1665 H1677 0.929 . S
C1666 C1662 1.531 . S
C1666 H1678 0.960 . S
C1666 H1679 0.962 . S
C1666 H1680 0.960 . S
C1667 C1664 1.511 . S
C1667 H1681 0.961 . S
C1667 H1682 0.961 . S
C1667 H1683 0.961 . S
C1668 C1669 1.370 . S
C1668 C1670 1.363 . S
C1668 H1684 0.931 . S
C1669 C1668 1.370 . S
C1669 C1673 1.408 . S
C1670 C1668 1.363 . S
C1670 C1671 1.370 . S
C1670 C1674 1.524 . S
C1671 C1663 1.503 . S
C1671 C1670 1.370 . S
C1671 C1672 1.403 . S
C1672 C1671 1.403 . S
C1672 C1673 1.404 . S
C1672 C1675 1.539 . S
C1673 C1669 1.408 . S
C1673 C1672 1.404 . S
C1673 H1685 0.930 . S
C1674 C1670 1.524 . S
C1674 H1686 0.956 . S
C1674 H1687 0.961 . S
C1674 H1688 0.961 . S
C1675 C1672 1.539 . S
C1675 H1689 0.958 . S
C1675 H1690 0.961 . S
C1675 H1691 0.960 . S
H1676 C1660 0.931 . S
H1677 C1665 0.929 . S
H1678 C1666 0.960 . S
H1679 C1666 0.962 . S
H1680 C1666 0.960 . S
H1681 C1667 0.961 . S
H1682 C1667 0.961 . S
H1683 C1667 0.961 . S
H1684 C1668 0.931 . S
H1685 C1673 0.930 . S
H1686 C1674 0.956 . S
H1687 C1674 0.961 . S
H1688 C1674 0.961 . S
H1689 C1675 0.958 . S
H1690 C1675 0.961 . S
H1691 C1675 0.960 . S
C1692 C1693 1.391 . S
C1692 C1694 1.394 1_565 S
C1692 H1708 0.931 . S
C1693 C1692 1.391 . S
C1693 C1697 1.376 . S
C1694 C1692 1.394 1_545 S
C1694 C1695 1.369 . S
C1694 C1698 1.531 . S
C1695 C1694 1.369 . S
C1695 C1696 1.410 . S
C1695 C1703 1.503 . S
C1696 C1695 1.410 . S
C1696 C1697 1.392 1_545 S
C1696 C1699 1.511 . S
C1697 C1693 1.376 . S
C1697 C1696 1.392 1_565 S
C1697 H1709 0.929 . S
C1698 C1694 1.531 . S
C1698 H1710 0.960 . S
C1698 H1711 0.962 . S
C1698 H1712 0.971 . S
C1699 C1696 1.511 . S
C1699 H1713 0.961 . S
C1699 H1714 0.961 . S
C1699 H1715 0.961 . S
C1700 C1701 1.370 . S
C1700 C1702 1.363 . S
C1700 H1716 0.931 . S
C1701 C1700 1.370 . S
C1701 C1705 1.408 . S
C1702 C1700 1.363 . S
C1702 C1703 1.370 . S
C1702 C1706 1.524 . S
C1703 C1695 1.503 . S
C1703 C1702 1.370 . S
C1703 C1704 1.403 . S
C1704 C1703 1.403 . S
C1704 C1705 1.404 . S
C1704 C1707 1.539 . S
C1705 C1701 1.408 . S
C1705 C1704 1.404 . S
C1705 H1717 0.930 . S
C1706 C1702 1.524 . S
C1706 H1718 0.956 . S
C1706 H1719 0.961 . S
C1706 H1720 0.961 . S
C1707 C1704 1.539 . S
C1707 H1721 0.958 . S
C1707 H1722 0.961 . S
C1707 H1723 0.960 . S
H1708 C1692 0.931 . S
H1709 C1697 0.929 . S
H1710 C1698 0.960 . S
H1711 C1698 0.962 . S
H1712 C1698 0.971 . S
H1713 C1699 0.961 . S
H1714 C1699 0.961 . S
H1715 C1699 0.961 . S
H1716 C1700 0.931 . S
H1717 C1705 0.930 . S
H1718 C1706 0.956 . S
H1719 C1706 0.961 . S
H1720 C1706 0.961 . S
H1721 C1707 0.958 . S
H1722 C1707 0.961 . S
H1723 C1707 0.960 . S
C1724 C1725 1.391 . S
C1724 C1726 1.394 1_455 S
C1724 H1740 0.931 . S
C1725 C1724 1.391 . S
C1725 C1729 1.376 . S
C1726 C1724 1.394 1_655 S
C1726 C1727 1.369 . S
C1726 C1730 1.531 . S
C1727 C1726 1.369 . S
C1727 C1728 1.410 . S
C1727 C1735 1.503 . S
C1728 C1727 1.410 . S
C1728 C1729 1.392 1_655 S
C1728 C1731 1.511 . S
C1729 C1725 1.376 . S
C1729 C1728 1.392 1_455 S
C1729 H1741 0.929 . S
C1730 C1726 1.531 . S
C1730 H1742 0.960 . S
C1730 H1743 0.962 . S
C1730 H1744 0.960 . S
C1731 C1728 1.511 . S
C1731 H1745 0.961 . S
C1731 H1746 0.961 . S
C1731 H1747 0.961 . S
C1732 C1733 1.370 . S
C1732 C1734 1.363 . S
C1732 H1748 0.931 . S
C1733 C1732 1.370 . S
C1733 C1737 1.408 . S
C1734 C1732 1.363 . S
C1734 C1735 1.370 . S
C1734 C1738 1.524 . S
C1735 C1727 1.503 . S
C1735 C1734 1.370 . S
C1735 C1736 1.403 . S
C1736 C1735 1.403 . S
C1736 C1737 1.404 . S
C1736 C1739 1.539 . S
C1737 C1733 1.408 . S
C1737 C1736 1.404 . S
C1737 H1749 0.930 . S
C1738 C1734 1.524 . S
C1738 H1750 0.956 . S
C1738 H1751 0.961 . S
C1738 H1752 0.961 . S
C1739 C1736 1.539 . S
C1739 H1753 0.958 . S
C1739 H1754 0.961 . S
C1739 H1755 0.960 . S
H1740 C1724 0.931 . S
H1741 C1729 0.929 . S
H1742 C1730 0.960 . S
H1743 C1730 0.962 . S
H1744 C1730 0.960 . S
H1745 C1731 0.961 . S
H1746 C1731 0.961 . S
H1747 C1731 0.961 . S
H1748 C1732 0.931 . S
H1749 C1737 0.930 . S
H1750 C1738 0.956 . S
H1751 C1738 0.961 . S
H1752 C1738 0.961 . S
H1753 C1739 0.958 . S
H1754 C1739 0.961 . S
H1755 C1739 0.960 . S
C1756 C1757 1.391 . S
C1756 C1758 1.394 . S
C1756 H1772 0.931 . S
C1757 C1756 1.391 . S
C1757 C1761 1.376 . S
C1758 C1756 1.394 . S
C1758 C1759 1.369 . S
C1758 C1762 1.531 . S
C1759 C1758 1.369 . S
C1759 C1760 1.410 . S
C1759 C1767 1.503 . S
C1760 C1759 1.410 . S
C1760 C1761 1.392 . S
C1760 C1763 1.511 . S
C1761 C1757 1.376 . S
C1761 C1760 1.392 . S
C1761 H1773 0.929 . S
C1762 C1758 1.531 . S
C1762 H1774 0.960 . S
C1762 H1775 0.962 . S
C1762 H1776 0.960 . S
C1763 C1760 1.511 . S
C1763 H1777 0.961 . S
C1763 H1778 0.961 . S
C1763 H1779 0.961 . S
C1764 C1765 1.370 . S
C1764 C1766 1.363 . S
C1764 H1780 0.931 . S
C1765 C1764 1.370 . S
C1765 C1769 1.408 . S
C1766 C1764 1.363 . S
C1766 C1767 1.370 . S
C1766 C1770 1.524 . S
C1767 C1759 1.503 . S
C1767 C1766 1.370 . S
C1767 C1768 1.403 . S
C1768 C1767 1.403 . S
C1768 C1769 1.404 . S
C1768 C1771 1.539 . S
C1769 C1765 1.408 . S
C1769 C1768 1.404 . S
C1769 H1781 0.930 . S
C1770 C1766 1.524 . S
C1770 H1782 0.956 . S
C1770 H1783 0.961 . S
C1770 H1784 0.961 . S
C1771 C1768 1.539 . S
C1771 H1785 0.958 . S
C1771 H1786 0.961 . S
C1771 H1787 0.960 . S
H1772 C1756 0.931 . S
H1773 C1761 0.929 . S
H1774 C1762 0.960 . S
H1775 C1762 0.962 . S
H1776 C1762 0.960 . S
H1777 C1763 0.961 . S
H1778 C1763 0.961 . S
H1779 C1763 0.961 . S
H1780 C1764 0.931 . S
H1781 C1769 0.930 . S
H1782 C1770 0.956 . S
H1783 C1770 0.961 . S
H1784 C1770 0.961 . S
H1785 C1771 0.958 . S
H1786 C1771 0.961 . S
H1787 C1771 0.960 . S
C1788 C1789 1.391 . S
C1788 C1790 1.394 1_455 S
C1788 H1804 0.931 . S
C1789 C1788 1.391 . S
C1789 C1793 1.376 . S
C1790 C1788 1.394 1_655 S
C1790 C1791 1.369 . S
C1790 C1794 1.531 . S
C1791 C1790 1.369 . S
C1791 C1792 1.410 1_655 S
C1791 C1799 1.503 . S
C1792 C1791 1.410 1_455 S
C1792 C1793 1.392 . S
C1792 C1795 1.511 1_455 S
C1793 C1789 1.376 . S
C1793 C1792 1.392 . S
C1793 H1805 0.929 . S
C1794 C1790 1.531 . S
C1794 H1806 0.960 . S
C1794 H1807 0.962 . S
C1794 H1808 0.960 . S
C1795 C1792 1.511 1_655 S
C1795 H1809 0.961 1_655 S
C1795 H1810 0.961 . S
C1795 H1811 0.960 1_655 S
C1796 C1797 1.370 . S
C1796 C1798 1.363 . S
C1796 H1812 0.931 . S
C1797 C1796 1.370 . S
C1797 C1801 1.408 . S
C1798 C1796 1.363 . S
C1798 C1799 1.370 . S
C1798 C1802 1.524 . S
C1799 C1791 1.503 . S
C1799 C1798 1.370 . S
C1799 C1800 1.403 . S
C1800 C1799 1.403 . S
C1800 C1801 1.404 . S
C1800 C1803 1.539 . S
C1801 C1797 1.408 . S
C1801 C1800 1.404 . S
C1801 H1813 0.930 . S
C1802 C1798 1.524 . S
C1802 H1814 0.956 . S
C1802 H1815 0.961 . S
C1802 H1816 0.961 . S
C1803 C1800 1.539 . S
C1803 H1817 0.958 . S
C1803 H1818 0.961 . S
C1803 H1819 0.960 . S
H1804 C1788 0.931 . S
H1805 C1793 0.929 . S
H1806 C1794 0.960 . S
H1807 C1794 0.962 . S
H1808 C1794 0.960 . S
H1809 C1795 0.961 1_455 S
H1810 C1795 0.961 . S
H1811 C1795 0.960 1_455 S
H1812 C1796 0.931 . S
H1813 C1801 0.930 . S
H1814 C1802 0.956 . S
H1815 C1802 0.961 . S
H1816 C1802 0.961 . S
H1817 C1803 0.958 . S
H1818 C1803 0.961 . S
H1819 C1803 0.960 . S
C1820 C1821 1.391 . S
C1820 C1822 1.394 . S
C1820 H1836 0.931 . S
C1821 C1820 1.391 . S
C1821 C1825 1.376 . S
C1822 C1820 1.394 . S
C1822 C1823 1.369 . S
C1822 C1826 1.531 . S
C1823 C1822 1.369 . S
C1823 C1824 1.410 . S
C1823 C1831 1.503 . S
C1824 C1823 1.410 . S
C1824 C1825 1.392 . S
C1824 C1827 1.511 . S
C1825 C1821 1.376 . S
C1825 C1824 1.392 . S
C1825 H1837 0.929 . S
C1826 C1822 1.531 . S
C1826 H1838 0.960 . S
C1826 H1839 0.962 . S
C1826 H1840 0.960 . S
C1827 C1824 1.511 . S
C1827 H1841 0.961 . S
C1827 H1842 0.961 . S
C1827 H1843 0.961 . S
C1828 C1829 1.370 . S
C1828 C1830 1.363 . S
C1828 H1844 0.931 . S
C1829 C1828 1.370 . S
C1829 C1833 1.408 . S
C1830 C1828 1.363 . S
C1830 C1831 1.370 . S
C1830 C1834 1.524 . S
C1831 C1823 1.503 . S
C1831 C1830 1.370 . S
C1831 C1832 1.403 . S
C1832 C1831 1.403 . S
C1832 C1833 1.404 . S
C1832 C1835 1.539 . S
C1833 C1829 1.408 . S
C1833 C1832 1.404 . S
C1833 H1845 0.930 . S
C1834 C1830 1.524 . S
C1834 H1846 0.956 . S
C1834 H1847 0.961 . S
C1834 H1848 0.961 . S
C1835 C1832 1.539 . S
C1835 H1849 0.958 . S
C1835 H1850 0.961 . S
C1835 H1851 0.960 . S
H1836 C1820 0.931 . S
H1837 C1825 0.929 . S
H1838 C1826 0.960 . S
H1839 C1826 0.962 . S
H1840 C1826 0.960 . S
H1841 C1827 0.961 . S
H1842 C1827 0.961 . S
H1843 C1827 0.961 . S
H1844 C1828 0.931 . S
H1845 C1833 0.930 . S
H1846 C1834 0.956 . S
H1847 C1834 0.961 . S
H1848 C1834 0.961 . S
H1849 C1835 0.958 . S
H1850 C1835 0.961 . S
H1851 C1835 0.960 . S
C1852 C1853 1.391 . S
C1852 C1854 1.394 1_565 S
C1852 H1868 0.931 . S
C1853 C1852 1.391 . S
C1853 C1857 1.376 . S
C1854 C1852 1.394 1_545 S
C1854 C1855 1.369 . S
C1854 C1858 1.531 . S
C1855 C1854 1.369 . S
C1855 C1856 1.410 . S
C1855 C1863 1.503 . S
C1856 C1855 1.410 . S
C1856 C1857 1.392 1_545 S
C1856 C1859 1.511 . S
C1857 C1853 1.376 . S
C1857 C1856 1.392 1_565 S
C1857 H1869 0.929 . S
C1858 C1854 1.531 . S
C1858 H1870 0.960 . S
C1858 H1871 0.962 . S
C1858 H1872 0.960 . S
C1859 C1856 1.511 . S
C1859 H1873 0.961 . S
C1859 H1874 0.961 . S
C1859 H1875 0.961 . S
C1860 C1861 1.370 . S
C1860 C1862 1.363 . S
C1860 H1876 0.931 . S
C1861 C1860 1.370 . S
C1861 C1865 1.408 . S
C1862 C1860 1.363 . S
C1862 C1863 1.370 . S
C1862 C1866 1.524 . S
C1863 C1855 1.503 . S
C1863 C1862 1.370 . S
C1863 C1864 1.403 . S
C1864 C1863 1.403 . S
C1864 C1865 1.404 . S
C1864 C1867 1.539 . S
C1865 C1861 1.408 . S
C1865 C1864 1.404 . S
C1865 H1877 0.930 . S
C1866 C1862 1.524 . S
C1866 H1878 0.956 . S
C1866 H1879 0.961 . S
C1866 H1880 0.961 . S
C1867 C1864 1.539 . S
C1867 H1881 0.958 . S
C1867 H1882 0.961 . S
C1867 H1883 0.960 . S
H1868 C1852 0.931 . S
H1869 C1857 0.929 . S
H1870 C1858 0.960 . S
H1871 C1858 0.962 . S
H1872 C1858 0.960 . S
H1873 C1859 0.961 . S
H1874 C1859 0.961 . S
H1875 C1859 0.961 . S
H1876 C1860 0.931 . S
H1877 C1865 0.930 . S
H1878 C1866 0.956 . S
H1879 C1866 0.961 . S
H1880 C1866 0.961 . S
H1881 C1867 0.958 . S
H1882 C1867 0.961 . S
H1883 C1867 0.960 . S
C1884 C1885 1.391 . S
C1884 C1886 1.394 . S
C1884 H1900 0.931 . S
C1885 C1884 1.391 . S
C1885 C1889 1.376 . S
C1886 C1884 1.394 . S
C1886 C1887 1.369 . S
C1886 C1890 1.531 . S
C1887 C1886 1.369 . S
C1887 C1888 1.410 . S
C1887 C1895 1.503 . S
C1888 C1887 1.410 . S
C1888 C1889 1.392 . S
C1888 C1891 1.511 . S
C1889 C1885 1.376 . S
C1889 C1888 1.392 . S
C1889 H1901 0.929 . S
C1890 C1886 1.531 . S
C1890 H1902 0.960 . S
C1890 H1903 0.962 . S
C1890 H1904 0.960 . S
C1891 C1888 1.511 . S
C1891 H1905 0.961 . S
C1891 H1906 0.961 . S
C1891 H1907 0.961 . S
C1892 C1893 1.370 . S
C1892 C1894 1.363 . S
C1892 H1908 0.931 . S
C1893 C1892 1.370 . S
C1893 C1897 1.408 . S
C1894 C1892 1.363 . S
C1894 C1895 1.370 . S
C1894 C1898 1.524 . S
C1895 C1887 1.503 . S
C1895 C1894 1.370 . S
C1895 C1896 1.403 . S
C1896 C1895 1.403 . S
C1896 C1897 1.404 . S
C1896 C1899 1.539 . S
C1897 C1893 1.408 . S
C1897 C1896 1.404 . S
C1897 H1909 0.930 . S
C1898 C1894 1.524 . S
C1898 H1910 0.956 . S
C1898 H1911 0.961 . S
C1898 H1912 0.961 . S
C1899 C1896 1.539 . S
C1899 H1913 0.958 . S
C1899 H1914 0.961 . S
C1899 H1915 0.960 . S
H1900 C1884 0.931 . S
H1901 C1889 0.929 . S
H1902 C1890 0.960 . S
H1903 C1890 0.962 . S
H1904 C1890 0.960 . S
H1905 C1891 0.961 . S
H1906 C1891 0.961 . S
H1907 C1891 0.961 . S
H1908 C1892 0.931 . S
H1909 C1897 0.930 . S
H1910 C1898 0.956 . S
H1911 C1898 0.961 . S
H1912 C1898 0.961 . S
H1913 C1899 0.958 . S
H1914 C1899 0.961 . S
H1915 C1899 0.960 . S
C1916 C1917 1.391 . S
C1916 C1918 1.394 . S
C1916 H1932 0.931 . S
C1917 C1916 1.391 . S
C1917 C1921 1.376 . S
C1918 C1916 1.394 . S
C1918 C1919 1.369 . S
C1918 C1922 1.531 . S
C1919 C1918 1.369 . S
C1919 C1920 1.410 . S
C1919 C1927 1.503 . S
C1920 C1919 1.410 . S
C1920 C1921 1.392 . S
C1920 C1923 1.511 . S
C1921 C1917 1.376 . S
C1921 C1920 1.392 . S
C1921 H1933 0.929 . S
C1922 C1918 1.531 . S
C1922 H1934 0.960 . S
C1922 H1935 0.962 . S
C1922 H1936 0.960 . S
C1923 C1920 1.511 . S
C1923 H1937 0.961 . S
C1923 H1938 0.961 . S
C1923 H1939 0.961 . S
C1924 C1925 1.370 . S
C1924 C1926 1.363 . S
C1924 H1940 0.931 . S
C1925 C1924 1.370 . S
C1925 C1929 1.408 . S
C1926 C1924 1.363 . S
C1926 C1927 1.370 . S
C1926 C1930 1.524 . S
C1927 C1919 1.503 . S
C1927 C1926 1.370 . S
C1927 C1928 1.403 . S
C1928 C1927 1.403 . S
C1928 C1929 1.404 . S
C1928 C1931 1.539 . S
C1929 C1925 1.408 . S
C1929 C1928 1.404 . S
C1929 H1941 0.930 . S
C1930 C1926 1.524 . S
C1930 H1942 0.956 . S
C1930 H1943 0.961 . S
C1930 H1944 0.961 . S
C1931 C1928 1.539 . S
C1931 H1945 0.958 . S
C1931 H1946 0.961 . S
C1931 H1947 0.960 . S
H1932 C1916 0.931 . S
H1933 C1921 0.929 . S
H1934 C1922 0.960 . S
H1935 C1922 0.962 . S
H1936 C1922 0.960 . S
H1937 C1923 0.961 . S
H1938 C1923 0.961 . S
H1939 C1923 0.961 . S
H1940 C1924 0.931 . S
H1941 C1929 0.930 . S
H1942 C1930 0.956 . S
H1943 C1930 0.961 . S
H1944 C1930 0.961 . S
H1945 C1931 0.958 . S
H1946 C1931 0.961 . S
H1947 C1931 0.960 . S
C1948 C1949 1.391 . S
C1948 C1950 1.394 . S
C1948 H1964 0.931 . S
C1949 C1948 1.391 . S
C1949 C1953 1.376 . S
C1950 C1948 1.394 . S
C1950 C1951 1.369 . S
C1950 C1954 1.531 . S
C1951 C1950 1.369 . S
C1951 C1952 1.410 . S
C1951 C1959 1.503 . S
C1952 C1951 1.410 . S
C1952 C1953 1.392 . S
C1952 C1955 1.511 . S
C1953 C1949 1.376 . S
C1953 C1952 1.392 . S
C1953 H1965 0.929 . S
C1954 C1950 1.531 . S
C1954 H1966 0.960 . S
C1954 H1967 0.962 . S
C1954 H1968 0.960 . S
C1955 C1952 1.511 . S
C1955 H1969 0.961 . S
C1955 H1970 0.961 . S
C1955 H1971 0.961 . S
C1956 C1957 1.370 . S
C1956 C1958 1.363 . S
C1956 H1972 0.931 . S
C1957 C1956 1.370 . S
C1957 C1961 1.408 . S
C1958 C1956 1.363 . S
C1958 C1959 1.370 . S
C1958 C1962 1.524 . S
C1959 C1951 1.503 . S
C1959 C1958 1.370 . S
C1959 C1960 1.403 . S
C1960 C1959 1.403 . S
C1960 C1961 1.404 . S
C1960 C1963 1.539 . S
C1961 C1957 1.408 . S
C1961 C1960 1.404 . S
C1961 H1973 0.930 . S
C1962 C1958 1.524 . S
C1962 H1974 0.956 . S
C1962 H1975 0.961 . S
C1962 H1976 0.961 . S
C1963 C1960 1.539 . S
C1963 H1977 0.958 . S
C1963 H1978 0.961 . S
C1963 H1979 0.960 . S
H1964 C1948 0.931 . S
H1965 C1953 0.929 . S
H1966 C1954 0.960 . S
H1967 C1954 0.962 . S
H1968 C1954 0.960 . S
H1969 C1955 0.961 . S
H1970 C1955 0.961 . S
H1971 C1955 0.961 . S
H1972 C1956 0.931 . S
H1973 C1961 0.930 . S
H1974 C1962 0.956 . S
H1975 C1962 0.961 . S
H1976 C1962 0.961 . S
H1977 C1963 0.958 . S
H1978 C1963 0.961 . S
H1979 C1963 0.960 . S
C1980 C1981 1.391 . S
C1980 C1982 1.394 . S
C1980 H1996 0.931 . S
C1981 C1980 1.391 . S
C1981 C1985 1.376 . S
C1982 C1980 1.394 . S
C1982 C1983 1.369 . S
C1982 C1986 1.531 1_565 S
C1983 C1982 1.369 . S
C1983 C1984 1.410 . S
C1983 C1991 1.503 . S
C1984 C1983 1.410 . S
C1984 C1985 1.392 . S
C1984 C1987 1.511 . S
C1985 C1981 1.376 . S
C1985 C1984 1.392 . S
C1985 H1997 0.929 . S
C1986 C1982 1.531 1_545 S
C1986 H1998 0.960 . S
C1986 H1999 0.962 . S
C1986 H2000 0.960 . S
C1987 C1984 1.511 . S
C1987 H2001 0.961 . S
C1987 H2002 0.961 . S
C1987 H2003 0.961 . S
C1988 C1989 1.370 . S
C1988 C1990 1.363 . S
C1988 H2004 0.931 . S
C1989 C1988 1.370 . S
C1989 C1993 1.408 1_565 S
C1990 C1988 1.363 . S
C1990 C1991 1.370 . S
C1990 C1994 1.524 . S
C1991 C1983 1.503 . S
C1991 C1990 1.370 . S
C1991 C1992 1.403 1_565 S
C1992 C1991 1.403 1_545 S
C1992 C1993 1.404 . S
C1992 C1995 1.539 . S
C1993 C1989 1.408 1_545 S
C1993 C1992 1.404 . S
C1993 H2005 0.930 . S
C1994 C1990 1.524 . S
C1994 H2006 0.956 . S
C1994 H2007 0.961 . S
C1994 H2008 0.961 . S
C1995 C1992 1.539 . S
C1995 H2009 0.958 . S
C1995 H2010 0.961 . S
C1995 H2011 0.960 . S
H1996 C1980 0.931 . S
H1997 C1985 0.929 . S
H1998 C1986 0.960 . S
H1999 C1986 0.962 . S
H2000 C1986 0.960 . S
H2001 C1987 0.961 . S
H2002 C1987 0.961 . S
H2003 C1987 0.961 . S
H2004 C1988 0.931 . S
H2005 C1993 0.930 . S
H2006 C1994 0.956 . S
H2007 C1994 0.961 . S
H2008 C1994 0.961 . S
H2009 C1995 0.958 . S
H2010 C1995 0.961 . S
H2011 C1995 0.960 . S
C2012 C2013 1.391 . S
C2012 C2014 1.394 . S
C2012 H2028 0.931 1_455 S
C2013 C2012 1.391 . S
C2013 C2017 1.376 . S
C2014 C2012 1.394 . S
C2014 C2015 1.369 . S
C2014 C2018 1.531 1_455 S
C2015 C2014 1.369 . S
C2015 C2016 1.410 . S
C2015 C2023 1.503 . S
C2016 C2015 1.410 . S
C2016 C2017 1.392 . S
C2016 C2019 1.511 . S
C2017 C2013 1.376 . S
C2017 C2016 1.392 . S
C2017 H2029 0.929 . S
C2018 C2014 1.531 1_655 S
C2018 H2030 0.960 . S
C2018 H2031 0.962 . S
C2018 H2032 0.960 . S
C2019 C2016 1.511 . S
C2019 H2033 0.961 . S
C2019 H2034 0.961 . S
C2019 H2035 0.961 . S
C2020 C2021 1.370 . S
C2020 C2022 1.363 . S
C2020 H2036 0.931 . S
C2021 C2020 1.370 . S
C2021 C2025 1.408 . S
C2022 C2020 1.363 . S
C2022 C2023 1.370 . S
C2022 C2026 1.524 . S
C2023 C2015 1.503 . S
C2023 C2022 1.370 . S
C2023 C2024 1.403 . S
C2024 C2023 1.403 . S
C2024 C2025 1.404 . S
C2024 C2027 1.539 . S
C2025 C2021 1.408 . S
C2025 C2024 1.404 . S
C2025 H2037 0.930 . S
C2026 C2022 1.524 . S
C2026 H2038 0.956 1_455 S
C2026 H2039 0.961 . S
C2026 H2040 0.961 . S
C2027 C2024 1.539 . S
C2027 H2041 0.958 . S
C2027 H2042 0.961 . S
C2027 H2043 0.960 . S
H2028 C2012 0.931 1_655 S
H2029 C2017 0.929 . S
H2030 C2018 0.960 . S
H2031 C2018 0.962 . S
H2032 C2018 0.960 . S
H2033 C2019 0.961 . S
H2034 C2019 0.961 . S
H2035 C2019 0.961 . S
H2036 C2020 0.931 . S
H2037 C2025 0.930 . S
H2038 C2026 0.956 1_655 S
H2039 C2026 0.961 . S
H2040 C2026 0.961 . S
H2041 C2027 0.958 . S
H2042 C2027 0.961 . S
H2043 C2027 0.960 . S
C2044 C2045 1.391 . S
C2044 C2046 1.394 . S
C2044 H2060 0.931 . S
C2045 C2044 1.391 . S
C2045 C2049 1.376 . S
C2046 C2044 1.394 . S
C2046 C2047 1.369 . S
C2046 C2050 1.531 . S
C2047 C2046 1.369 . S
C2047 C2048 1.410 . S
C2047 C2055 1.503 . S
C2048 C2047 1.410 . S
C2048 C2049 1.392 . S
C2048 C2051 1.511 . S
C2049 C2045 1.376 . S
C2049 C2048 1.392 . S
C2049 H2061 0.929 . S
C2050 C2046 1.531 . S
C2050 H2062 0.960 . S
C2050 H2063 0.962 . S
C2050 H2064 0.960 . S
C2051 C2048 1.511 . S
C2051 H2065 0.961 . S
C2051 H2066 0.961 . S
C2051 H2067 0.961 . S
C2052 C2053 1.370 . S
C2052 C2054 1.363 . S
C2052 H2068 0.931 . S
C2053 C2052 1.370 . S
C2053 C2057 1.408 . S
C2054 C2052 1.363 . S
C2054 C2055 1.370 . S
C2054 C2058 1.524 . S
C2055 C2047 1.503 . S
C2055 C2054 1.370 . S
C2055 C2056 1.403 . S
C2056 C2055 1.403 . S
C2056 C2057 1.404 . S
C2056 C2059 1.539 . S
C2057 C2053 1.408 . S
C2057 C2056 1.404 . S
C2057 H2069 0.930 . S
C2058 C2054 1.524 . S
C2058 H2070 0.956 . S
C2058 H2071 0.961 . S
C2058 H2072 0.961 . S
C2059 C2056 1.539 . S
C2059 H2073 0.958 . S
C2059 H2074 0.961 . S
C2059 H2075 0.960 . S
H2060 C2044 0.931 . S
H2061 C2049 0.929 . S
H2062 C2050 0.960 . S
H2063 C2050 0.962 . S
H2064 C2050 0.960 . S
H2065 C2051 0.961 . S
H2066 C2051 0.961 . S
H2067 C2051 0.961 . S
H2068 C2052 0.931 . S
H2069 C2057 0.930 . S
H2070 C2058 0.956 . S
H2071 C2058 0.961 . S
H2072 C2058 0.961 . S
H2073 C2059 0.958 . S
H2074 C2059 0.961 . S
H2075 C2059 0.960 . S
C2076 C2077 1.391 . S
C2076 C2078 1.394 . S
C2076 H2092 0.931 . S
C2077 C2076 1.391 . S
C2077 C2081 1.376 . S
C2078 C2076 1.394 . S
C2078 C2079 1.369 . S
C2078 C2082 1.531 . S
C2079 C2078 1.369 . S
C2079 C2080 1.410 1_655 S
C2079 C2087 1.503 . S
C2080 C2079 1.410 1_455 S
C2080 C2081 1.392 1_455 S
C2080 C2083 1.511 . S
C2081 C2077 1.376 . S
C2081 C2080 1.392 1_655 S
C2081 H2093 0.929 1_655 S
C2082 C2078 1.531 . S
C2082 H2094 0.960 . S
C2082 H2095 0.962 . S
C2082 H2096 0.960 . S
C2083 C2080 1.511 . S
C2083 H2097 0.961 . S
C2083 H2098 0.961 . S
C2083 H2099 0.961 . S
C2084 C2085 1.370 . S
C2084 C2086 1.363 . S
C2084 H2100 0.931 . S
C2085 C2084 1.370 . S
C2085 C2089 1.408 . S
C2086 C2084 1.363 . S
C2086 C2087 1.370 . S
C2086 C2090 1.524 . S
C2087 C2079 1.503 . S
C2087 C2086 1.370 . S
C2087 C2088 1.403 . S
C2088 C2087 1.403 . S
C2088 C2089 1.404 . S
C2088 C2091 1.539 1_655 S
C2089 C2085 1.408 . S
C2089 C2088 1.404 . S
C2089 H2101 0.930 1_655 S
C2090 C2086 1.524 . S
C2090 H2102 0.956 . S
C2090 H2103 0.961 . S
C2090 H2104 0.961 . S
C2091 C2088 1.539 1_455 S
C2091 H2105 0.958 1_455 S
C2091 H2106 0.961 . S
C2091 H2107 0.960 . S
H2092 C2076 0.931 . S
H2093 C2081 0.929 1_455 S
H2094 C2082 0.960 . S
H2095 C2082 0.962 . S
H2096 C2082 0.960 . S
H2097 C2083 0.961 . S
H2098 C2083 0.961 . S
H2099 C2083 0.961 . S
H2100 C2084 0.931 . S
H2101 C2089 0.930 1_455 S
H2102 C2090 0.956 . S
H2103 C2090 0.961 . S
H2104 C2090 0.961 . S
H2105 C2091 0.958 1_655 S
H2106 C2091 0.961 . S
H2107 C2091 0.960 . S
C2108 C2109 1.391 . S
C2108 C2110 1.394 . S
C2108 H2124 0.931 . S
C2109 C2108 1.391 . S
C2109 C2113 1.376 . S
C2110 C2108 1.394 . S
C2110 C2111 1.369 . S
C2110 C2114 1.531 . S
C2111 C2110 1.369 . S
C2111 C2112 1.410 . S
C2111 C2119 1.503 . S
C2112 C2111 1.410 . S
C2112 C2113 1.392 . S
C2112 C2115 1.511 . S
C2113 C2109 1.376 . S
C2113 C2112 1.392 . S
C2113 H2125 0.929 . S
C2114 C2110 1.531 . S
C2114 H2126 0.960 . S
C2114 H2127 0.962 . S
C2114 H2128 0.960 . S
C2115 C2112 1.511 . S
C2115 H2129 0.961 . S
C2115 H2130 0.961 . S
C2115 H2131 0.961 . S
C2116 C2117 1.370 . S
C2116 C2118 1.363 . S
C2116 H2132 0.931 . S
C2117 C2116 1.370 . S
C2117 C2121 1.408 . S
C2118 C2116 1.363 . S
C2118 C2119 1.370 . S
C2118 C2122 1.524 . S
C2119 C2111 1.503 . S
C2119 C2118 1.370 . S
C2119 C2120 1.403 . S
C2120 C2119 1.403 . S
C2120 C2121 1.404 . S
C2120 C2123 1.539 . S
C2121 C2117 1.408 . S
C2121 C2120 1.404 . S
C2121 H2133 0.930 . S
C2122 C2118 1.524 . S
C2122 H2134 0.956 . S
C2122 H2135 0.961 . S
C2122 H2136 0.961 . S
C2123 C2120 1.539 . S
C2123 H2137 0.958 . S
C2123 H2138 0.961 . S
C2123 H2139 0.960 . S
H2124 C2108 0.931 . S
H2125 C2113 0.929 . S
H2126 C2114 0.960 . S
H2127 C2114 0.962 . S
H2128 C2114 0.960 . S
H2129 C2115 0.961 . S
H2130 C2115 0.961 . S
H2131 C2115 0.961 . S
H2132 C2116 0.931 . S
H2133 C2121 0.930 . S
H2134 C2122 0.956 . S
H2135 C2122 0.961 . S
H2136 C2122 0.961 . S
H2137 C2123 0.958 . S
H2138 C2123 0.961 . S
H2139 C2123 0.960 . S
C2140 C2141 1.391 . S
C2140 C2142 1.394 . S
C2140 H2156 0.931 . S
C2141 C2140 1.391 . S
C2141 C2145 1.376 . S
C2142 C2140 1.394 . S
C2142 C2143 1.369 . S
C2142 C2146 1.531 . S
C2143 C2142 1.369 . S
C2143 C2144 1.410 . S
C2143 C2151 1.503 . S
C2144 C2143 1.410 . S
C2144 C2145 1.392 . S
C2144 C2147 1.510 1_545 S
C2145 C2141 1.376 . S
C2145 C2144 1.392 . S
C2145 H2157 0.929 . S
C2146 C2142 1.531 . S
C2146 H2158 0.960 . S
C2146 H2159 0.962 . S
C2146 H2160 0.960 . S
C2147 C2144 1.510 1_565 S
C2147 H2161 0.962 . S
C2147 H2162 0.963 . S
C2147 H2163 0.958 1_565 S
C2148 C2149 1.370 1_565 S
C2148 C2150 1.363 1_565 S
C2148 H2164 0.931 . S
C2149 C2148 1.370 1_545 S
C2149 C2153 1.408 . S
C2150 C2148 1.363 1_545 S
C2150 C2151 1.370 . S
C2150 C2154 1.524 1_545 S
C2151 C2143 1.503 . S
C2151 C2150 1.370 . S
C2151 C2152 1.403 . S
C2152 C2151 1.403 . S
C2152 C2153 1.404 . S
C2152 C2155 1.539 . S
C2153 C2149 1.408 . S
C2153 C2152 1.404 . S
C2153 H2165 0.930 . S
C2154 C2150 1.524 1_565 S
C2154 H2166 0.956 1_565 S
C2154 H2167 0.961 . S
C2154 H2168 0.961 . S
C2155 C2152 1.539 . S
C2155 H2169 0.958 . S
C2155 H2170 0.961 . S
C2155 H2171 0.960 . S
H2156 C2140 0.931 . S
H2157 C2145 0.929 . S
H2158 C2146 0.960 . S
H2159 C2146 0.962 . S
H2160 C2146 0.960 . S
H2161 C2147 0.962 . S
H2162 C2147 0.963 . S
H2163 C2147 0.958 1_545 S
H2164 C2148 0.931 . S
H2165 C2153 0.930 . S
H2166 C2154 0.956 1_545 S
H2167 C2154 0.961 . S
H2168 C2154 0.961 . S
H2169 C2155 0.958 . S
H2170 C2155 0.961 . S
H2171 C2155 0.960 . S
C2172 C2173 1.391 . S
C2172 C2174 1.394 . S
C2172 H2188 0.931 . S
C2173 C2172 1.391 . S
C2173 C2177 1.376 . S
C2174 C2172 1.394 . S
C2174 C2175 1.369 . S
C2174 C2178 1.531 . S
C2175 C2174 1.369 . S
C2175 C2176 1.410 . S
C2175 C2183 1.503 . S
C2176 C2175 1.410 . S
C2176 C2177 1.392 . S
C2176 C2179 1.511 . S
C2177 C2173 1.376 . S
C2177 C2176 1.392 . S
C2177 H2189 0.929 . S
C2178 C2174 1.531 . S
C2178 H2190 0.960 . S
C2178 H2191 0.962 . S
C2178 H2192 0.960 . S
C2179 C2176 1.511 . S
C2179 H2193 0.961 . S
C2179 H2194 0.961 . S
C2179 H2195 0.961 . S
C2180 C2181 1.370 . S
C2180 C2182 1.363 . S
C2180 H2196 0.931 . S
C2181 C2180 1.370 . S
C2181 C2185 1.408 . S
C2182 C2180 1.363 . S
C2182 C2183 1.370 . S
C2182 C2186 1.524 . S
C2183 C2175 1.503 . S
C2183 C2182 1.370 . S
C2183 C2184 1.403 . S
C2184 C2183 1.403 . S
C2184 C2185 1.404 . S
C2184 C2187 1.539 . S
C2185 C2181 1.408 . S
C2185 C2184 1.404 . S
C2185 H2197 0.930 . S
C2186 C2182 1.524 . S
C2186 H2198 0.956 . S
C2186 H2199 0.961 . S
C2186 H2200 0.961 . S
C2187 C2184 1.539 . S
C2187 H2201 0.958 . S
C2187 H2202 0.961 . S
C2187 H2203 0.960 . S
H2188 C2172 0.931 . S
H2189 C2177 0.929 . S
H2190 C2178 0.960 . S
H2191 C2178 0.962 . S
H2192 C2178 0.960 . S
H2193 C2179 0.961 . S
H2194 C2179 0.961 . S
H2195 C2179 0.961 . S
H2196 C2180 0.931 . S
H2197 C2185 0.930 . S
H2198 C2186 0.956 . S
H2199 C2186 0.961 . S
H2200 C2186 0.961 . S
H2201 C2187 0.958 . S
H2202 C2187 0.961 . S
H2203 C2187 0.960 . S
C2204 C2205 1.391 . S
C2204 C2206 1.394 . S
C2204 H2220 0.931 . S
C2205 C2204 1.391 . S
C2205 C2209 1.376 . S
C2206 C2204 1.394 . S
C2206 C2207 1.369 . S
C2206 C2210 1.531 . S
C2207 C2206 1.369 . S
C2207 C2208 1.410 . S
C2207 C2215 1.503 . S
C2208 C2207 1.410 . S
C2208 C2209 1.392 . S
C2208 C2211 1.511 . S
C2209 C2205 1.376 . S
C2209 C2208 1.392 . S
C2209 H2221 0.929 . S
C2210 C2206 1.531 . S
C2210 H2222 0.960 . S
C2210 H2223 0.962 . S
C2210 H2224 0.960 . S
C2211 C2208 1.511 . S
C2211 H2225 0.961 . S
C2211 H2226 0.961 . S
C2211 H2227 0.961 . S
C2212 C2213 1.370 . S
C2212 C2214 1.363 . S
C2212 H2228 0.931 . S
C2213 C2212 1.370 . S
C2213 C2217 1.408 . S
C2214 C2212 1.363 . S
C2214 C2215 1.370 . S
C2214 C2218 1.524 . S
C2215 C2207 1.503 . S
C2215 C2214 1.370 . S
C2215 C2216 1.403 . S
C2216 C2215 1.403 . S
C2216 C2217 1.404 . S
C2216 C2219 1.539 . S
C2217 C2213 1.408 . S
C2217 C2216 1.404 . S
C2217 H2229 0.930 . S
C2218 C2214 1.524 . S
C2218 H2230 0.956 . S
C2218 H2231 0.961 . S
C2218 H2232 0.961 . S
C2219 C2216 1.539 . S
C2219 H2233 0.958 . S
C2219 H2234 0.961 . S
C2219 H2235 0.960 . S
H2220 C2204 0.931 . S
H2221 C2209 0.929 . S
H2222 C2210 0.960 . S
H2223 C2210 0.962 . S
H2224 C2210 0.960 . S
H2225 C2211 0.961 . S
H2226 C2211 0.961 . S
H2227 C2211 0.961 . S
H2228 C2212 0.931 . S
H2229 C2217 0.930 . S
H2230 C2218 0.956 . S
H2231 C2218 0.961 . S
H2232 C2218 0.961 . S
H2233 C2219 0.958 . S
H2234 C2219 0.961 . S
H2235 C2219 0.960 . S
C2236 C2237 1.391 . S
C2236 C2238 1.394 . S
C2236 H2252 0.931 . S
C2237 C2236 1.391 . S
C2237 C2241 1.376 . S
C2238 C2236 1.394 . S
C2238 C2239 1.369 . S
C2238 C2242 1.531 . S
C2239 C2238 1.369 . S
C2239 C2240 1.410 . S
C2239 C2247 1.503 . S
C2240 C2239 1.410 . S
C2240 C2241 1.392 . S
C2240 C2243 1.511 . S
C2241 C2237 1.376 . S
C2241 C2240 1.392 . S
C2241 H2253 0.929 . S
C2242 C2238 1.531 . S
C2242 H2254 0.960 . S
C2242 H2255 0.962 . S
C2242 H2256 0.960 . S
C2243 C2240 1.511 . S
C2243 H2257 0.961 . S
C2243 H2258 0.961 . S
C2243 H2259 0.961 . S
C2244 C2245 1.370 . S
C2244 C2246 1.363 . S
C2244 H2260 0.931 . S
C2245 C2244 1.370 . S
C2245 C2249 1.408 . S
C2246 C2244 1.363 . S
C2246 C2247 1.370 . S
C2246 C2250 1.524 . S
C2247 C2239 1.503 . S
C2247 C2246 1.370 . S
C2247 C2248 1.403 . S
C2248 C2247 1.403 . S
C2248 C2249 1.404 . S
C2248 C2251 1.539 . S
C2249 C2245 1.408 . S
C2249 C2248 1.404 . S
C2249 H2261 0.930 . S
C2250 C2246 1.524 . S
C2250 H2262 0.956 . S
C2250 H2263 0.961 . S
C2250 H2264 0.961 . S
C2251 C2248 1.539 . S
C2251 H2265 0.958 . S
C2251 H2266 0.961 . S
C2251 H2267 0.960 . S
H2252 C2236 0.931 . S
H2253 C2241 0.929 . S
H2254 C2242 0.960 . S
H2255 C2242 0.962 . S
H2256 C2242 0.960 . S
H2257 C2243 0.961 . S
H2258 C2243 0.961 . S
H2259 C2243 0.961 . S
H2260 C2244 0.931 . S
H2261 C2249 0.930 . S
H2262 C2250 0.956 . S
H2263 C2250 0.961 . S
H2264 C2250 0.961 . S
H2265 C2251 0.958 . S
H2266 C2251 0.961 . S
H2267 C2251 0.960 . S
C2268 C2269 1.391 . S
C2268 C2270 1.394 . S
C2268 H2284 0.931 . S
C2269 C2268 1.391 . S
C2269 C2273 1.376 . S
C2270 C2268 1.394 . S
C2270 C2271 1.369 . S
C2270 C2274 1.531 . S
C2271 C2270 1.369 . S
C2271 C2272 1.410 . S
C2271 C2279 1.503 . S
C2272 C2271 1.410 . S
C2272 C2273 1.392 . S
C2272 C2275 1.511 . S
C2273 C2269 1.376 . S
C2273 C2272 1.392 . S
C2273 H2285 0.929 . S
C2274 C2270 1.531 . S
C2274 H2286 0.960 . S
C2274 H2287 0.962 . S
C2274 H2288 0.960 . S
C2275 C2272 1.511 . S
C2275 H2289 0.961 . S
C2275 H2290 0.961 . S
C2275 H2291 0.961 . S
C2276 C2277 1.370 . S
C2276 C2278 1.363 . S
C2276 H2292 0.931 . S
C2277 C2276 1.370 . S
C2277 C2281 1.408 . S
C2278 C2276 1.363 . S
C2278 C2279 1.370 . S
C2278 C2282 1.524 . S
C2279 C2271 1.503 . S
C2279 C2278 1.370 . S
C2279 C2280 1.403 . S
C2280 C2279 1.403 . S
C2280 C2281 1.404 . S
C2280 C2283 1.539 . S
C2281 C2277 1.408 . S
C2281 C2280 1.404 . S
C2281 H2293 0.930 . S
C2282 C2278 1.524 . S
C2282 H2294 0.956 . S
C2282 H2295 0.961 . S
C2282 H2296 0.961 . S
C2283 C2280 1.539 . S
C2283 H2297 0.958 . S
C2283 H2298 0.961 . S
C2283 H2299 0.960 . S
H2284 C2268 0.931 . S
H2285 C2273 0.929 . S
H2286 C2274 0.960 . S
H2287 C2274 0.962 . S
H2288 C2274 0.960 . S
H2289 C2275 0.961 . S
H2290 C2275 0.961 . S
H2291 C2275 0.961 . S
H2292 C2276 0.931 . S
H2293 C2281 0.930 . S
H2294 C2282 0.956 . S
H2295 C2282 0.961 . S
H2296 C2282 0.961 . S
H2297 C2283 0.958 . S
H2298 C2283 0.961 . S
H2299 C2283 0.960 . S
C2300 C2301 1.391 . S
C2300 C2302 1.394 . S
C2300 H2316 0.931 . S
C2301 C2300 1.391 . S
C2301 C2305 1.376 . S
C2302 C2300 1.394 . S
C2302 C2303 1.369 . S
C2302 C2306 1.531 . S
C2303 C2302 1.369 . S
C2303 C2304 1.410 . S
C2303 C2311 1.503 . S
C2304 C2303 1.410 . S
C2304 C2305 1.392 . S
C2304 C2307 1.511 . S
C2305 C2301 1.376 . S
C2305 C2304 1.392 . S
C2305 H2317 0.929 . S
C2306 C2302 1.531 . S
C2306 H2318 0.960 . S
C2306 H2319 0.962 . S
C2306 H2320 0.960 . S
C2307 C2304 1.511 . S
C2307 H2321 0.961 . S
C2307 H2322 0.961 . S
C2307 H2323 0.961 . S
C2308 C2309 1.370 . S
C2308 C2310 1.363 . S
C2308 H2324 0.931 . S
C2309 C2308 1.370 . S
C2309 C2313 1.408 . S
C2310 C2308 1.363 . S
C2310 C2311 1.370 . S
C2310 C2314 1.524 . S
C2311 C2303 1.503 . S
C2311 C2310 1.370 . S
C2311 C2312 1.403 . S
C2312 C2311 1.403 . S
C2312 C2313 1.404 . S
C2312 C2315 1.539 . S
C2313 C2309 1.408 . S
C2313 C2312 1.404 . S
C2313 H2325 0.930 . S
C2314 C2310 1.524 . S
C2314 H2326 0.956 . S
C2314 H2327 0.961 . S
C2314 H2328 0.961 . S
C2315 C2312 1.539 . S
C2315 H2329 0.958 . S
C2315 H2330 0.961 . S
C2315 H2331 0.960 . S
H2316 C2300 0.931 . S
H2317 C2305 0.929 . S
H2318 C2306 0.960 . S
H2319 C2306 0.962 . S
H2320 C2306 0.960 . S
H2321 C2307 0.961 . S
H2322 C2307 0.961 . S
H2323 C2307 0.961 . S
H2324 C2308 0.931 . S
H2325 C2313 0.930 . S
H2326 C2314 0.956 . S
H2327 C2314 0.961 . S
H2328 C2314 0.961 . S
H2329 C2315 0.958 . S
H2330 C2315 0.961 . S
H2331 C2315 0.960 . S
C2332 C2333 1.391 . S
C2332 C2334 1.394 . S
C2332 H2348 0.931 . S
C2333 C2332 1.391 . S
C2333 C2337 1.376 . S
C2334 C2332 1.394 . S
C2334 C2335 1.369 . S
C2334 C2338 1.531 . S
C2335 C2334 1.369 . S
C2335 C2336 1.410 . S
C2335 C2343 1.503 . S
C2336 C2335 1.410 . S
C2336 C2337 1.392 . S
C2336 C2339 1.511 . S
C2337 C2333 1.376 . S
C2337 C2336 1.392 . S
C2337 H2349 0.929 . S
C2338 C2334 1.531 . S
C2338 H2350 0.960 . S
C2338 H2351 0.962 . S
C2338 H2352 0.960 . S
C2339 C2336 1.511 . S
C2339 H2353 0.961 . S
C2339 H2354 0.961 . S
C2339 H2355 0.961 . S
C2340 C2341 1.370 . S
C2340 C2342 1.363 . S
C2340 H2356 0.931 . S
C2341 C2340 1.370 . S
C2341 C2345 1.408 . S
C2342 C2340 1.363 . S
C2342 C2343 1.370 . S
C2342 C2346 1.524 . S
C2343 C2335 1.503 . S
C2343 C2342 1.370 . S
C2343 C2344 1.403 . S
C2344 C2343 1.403 . S
C2344 C2345 1.404 . S
C2344 C2347 1.539 . S
C2345 C2341 1.408 . S
C2345 C2344 1.404 . S
C2345 H2357 0.930 . S
C2346 C2342 1.524 . S
C2346 H2358 0.956 . S
C2346 H2359 0.961 . S
C2346 H2360 0.961 . S
C2347 C2344 1.539 . S
C2347 H2361 0.958 . S
C2347 H2362 0.961 . S
C2347 H2363 0.960 . S
H2348 C2332 0.931 . S
H2349 C2337 0.929 . S
H2350 C2338 0.960 . S
H2351 C2338 0.962 . S
H2352 C2338 0.960 . S
H2353 C2339 0.961 . S
H2354 C2339 0.961 . S
H2355 C2339 0.961 . S
H2356 C2340 0.931 . S
H2357 C2345 0.930 . S
H2358 C2346 0.956 . S
H2359 C2346 0.961 . S
H2360 C2346 0.961 . S
H2361 C2347 0.958 . S
H2362 C2347 0.961 . S
H2363 C2347 0.960 . S
C2364 C2365 1.391 . S
C2364 C2366 1.394 . S
C2364 H2380 0.931 . S
C2365 C2364 1.391 . S
C2365 C2369 1.376 . S
C2366 C2364 1.394 . S
C2366 C2367 1.369 . S
C2366 C2370 1.531 . S
C2367 C2366 1.369 . S
C2367 C2368 1.410 . S
C2367 C2375 1.503 . S
C2368 C2367 1.410 . S
C2368 C2369 1.392 . S
C2368 C2371 1.511 . S
C2369 C2365 1.376 . S
C2369 C2368 1.392 . S
C2369 H2381 0.929 . S
C2370 C2366 1.531 . S
C2370 H2382 0.960 . S
C2370 H2383 0.962 . S
C2370 H2384 0.960 . S
C2371 C2368 1.511 . S
C2371 H2385 0.961 . S
C2371 H2386 0.961 . S
C2371 H2387 0.961 . S
C2372 C2373 1.370 . S
C2372 C2374 1.363 . S
C2372 H2388 0.931 . S
C2373 C2372 1.370 . S
C2373 C2377 1.408 . S
C2374 C2372 1.363 . S
C2374 C2375 1.370 . S
C2374 C2378 1.524 . S
C2375 C2367 1.503 . S
C2375 C2374 1.370 . S
C2375 C2376 1.403 . S
C2376 C2375 1.403 . S
C2376 C2377 1.404 . S
C2376 C2379 1.539 . S
C2377 C2373 1.408 . S
C2377 C2376 1.404 . S
C2377 H2389 0.930 . S
C2378 C2374 1.524 . S
C2378 H2390 0.956 . S
C2378 H2391 0.961 . S
C2378 H2392 0.961 . S
C2379 C2376 1.539 . S
C2379 H2393 0.958 . S
C2379 H2394 0.961 . S
C2379 H2395 0.960 . S
H2380 C2364 0.931 . S
H2381 C2369 0.929 . S
H2382 C2370 0.960 . S
H2383 C2370 0.962 . S
H2384 C2370 0.960 . S
H2385 C2371 0.961 . S
H2386 C2371 0.961 . S
H2387 C2371 0.961 . S
H2388 C2372 0.931 . S
H2389 C2377 0.930 . S
H2390 C2378 0.956 . S
H2391 C2378 0.961 . S
H2392 C2378 0.961 . S
H2393 C2379 0.958 . S
H2394 C2379 0.961 . S
H2395 C2379 0.960 . S
C2396 C2397 1.391 . S
C2396 C2398 1.394 . S
C2396 H2412 0.931 . S
C2397 C2396 1.391 . S
C2397 C2401 1.376 . S
C2398 C2396 1.394 . S
C2398 C2399 1.369 . S
C2398 C2402 1.531 . S
C2399 C2398 1.369 . S
C2399 C2400 1.410 . S
C2399 C2407 1.503 . S
C2400 C2399 1.410 . S
C2400 C2401 1.392 . S
C2400 C2403 1.511 . S
C2401 C2397 1.376 . S
C2401 C2400 1.392 . S
C2401 H2413 0.929 . S
C2402 C2398 1.531 . S
C2402 H2414 0.960 . S
C2402 H2415 0.962 . S
C2402 H2416 0.960 . S
C2403 C2400 1.511 . S
C2403 H2417 0.961 . S
C2403 H2418 0.961 . S
C2403 H2419 0.961 . S
C2404 C2405 1.370 . S
C2404 C2406 1.363 . S
C2404 H2420 0.931 . S
C2405 C2404 1.370 . S
C2405 C2409 1.408 . S
C2406 C2404 1.363 . S
C2406 C2407 1.370 . S
C2406 C2410 1.524 . S
C2407 C2399 1.503 . S
C2407 C2406 1.370 . S
C2407 C2408 1.403 . S
C2408 C2407 1.403 . S
C2408 C2409 1.404 . S
C2408 C2411 1.539 . S
C2409 C2405 1.408 . S
C2409 C2408 1.404 . S
C2409 H2421 0.930 . S
C2410 C2406 1.524 . S
C2410 H2422 0.956 . S
C2410 H2423 0.961 . S
C2410 H2424 0.961 . S
C2411 C2408 1.539 . S
C2411 H2425 0.958 . S
C2411 H2426 0.961 . S
C2411 H2427 0.960 . S
H2412 C2396 0.931 . S
H2413 C2401 0.929 . S
H2414 C2402 0.960 . S
H2415 C2402 0.962 . S
H2416 C2402 0.960 . S
H2417 C2403 0.961 . S
H2418 C2403 0.961 . S
H2419 C2403 0.961 . S
H2420 C2404 0.931 . S
H2421 C2409 0.930 . S
H2422 C2410 0.956 . S
H2423 C2410 0.961 . S
H2424 C2410 0.961 . S
H2425 C2411 0.958 . S
H2426 C2411 0.961 . S
H2427 C2411 0.960 . S
C2428 C2429 1.391 . S
C2428 C2430 1.394 . S
C2428 H2444 0.931 . S
C2429 C2428 1.391 . S
C2429 C2433 1.376 . S
C2430 C2428 1.394 . S
C2430 C2431 1.369 . S
C2430 C2434 1.531 . S
C2431 C2430 1.369 . S
C2431 C2432 1.410 . S
C2431 C2439 1.503 . S
C2432 C2431 1.410 . S
C2432 C2433 1.392 . S
C2432 C2435 1.511 . S
C2433 C2429 1.376 . S
C2433 C2432 1.392 . S
C2433 H2445 0.929 . S
C2434 C2430 1.531 . S
C2434 H2446 0.960 . S
C2434 H2447 0.962 . S
C2434 H2448 0.960 . S
C2435 C2432 1.511 . S
C2435 H2449 0.961 . S
C2435 H2450 0.961 . S
C2435 H2451 0.961 . S
C2436 C2437 1.370 . S
C2436 C2438 1.363 . S
C2436 H2452 0.931 . S
C2437 C2436 1.370 . S
C2437 C2441 1.408 . S
C2438 C2436 1.363 . S
C2438 C2439 1.370 . S
C2438 C2442 1.524 . S
C2439 C2431 1.503 . S
C2439 C2438 1.370 . S
C2439 C2440 1.403 . S
C2440 C2439 1.403 . S
C2440 C2441 1.404 . S
C2440 C2443 1.539 . S
C2441 C2437 1.408 . S
C2441 C2440 1.404 . S
C2441 H2453 0.930 . S
C2442 C2438 1.524 . S
C2442 H2454 0.956 . S
C2442 H2455 0.961 . S
C2442 H2456 0.961 . S
C2443 C2440 1.539 . S
C2443 H2457 0.958 . S
C2443 H2458 0.961 . S
C2443 H2459 0.960 . S
H2444 C2428 0.931 . S
H2445 C2433 0.929 . S
H2446 C2434 0.960 . S
H2447 C2434 0.962 . S
H2448 C2434 0.960 . S
H2449 C2435 0.961 . S
H2450 C2435 0.961 . S
H2451 C2435 0.961 . S
H2452 C2436 0.931 . S
H2453 C2441 0.930 . S
H2454 C2442 0.956 . S
H2455 C2442 0.961 . S
H2456 C2442 0.961 . S
H2457 C2443 0.958 . S
H2458 C2443 0.961 . S
H2459 C2443 0.960 . S
C2460 C2461 1.391 . S
C2460 C2462 1.394 . S
C2460 H2476 0.931 . S
C2461 C2460 1.391 . S
C2461 C2465 1.376 . S
C2462 C2460 1.394 . S
C2462 C2463 1.369 . S
C2462 C2466 1.531 . S
C2463 C2462 1.369 . S
C2463 C2464 1.410 . S
C2463 C2471 1.503 . S
C2464 C2463 1.410 . S
C2464 C2465 1.392 . S
C2464 C2467 1.511 . S
C2465 C2461 1.376 . S
C2465 C2464 1.392 . S
C2465 H2477 0.929 . S
C2466 C2462 1.531 . S
C2466 H2478 0.960 . S
C2466 H2479 0.962 . S
C2466 H2480 0.960 . S
C2467 C2464 1.511 . S
C2467 H2481 0.961 . S
C2467 H2482 0.961 . S
C2467 H2483 0.961 . S
C2468 C2469 1.370 . S
C2468 C2470 1.363 . S
C2468 H2484 0.931 . S
C2469 C2468 1.370 . S
C2469 C2473 1.408 . S
C2470 C2468 1.363 . S
C2470 C2471 1.370 . S
C2470 C2474 1.524 . S
C2471 C2463 1.503 . S
C2471 C2470 1.370 . S
C2471 C2472 1.403 . S
C2472 C2471 1.403 . S
C2472 C2473 1.404 . S
C2472 C2475 1.539 . S
C2473 C2469 1.408 . S
C2473 C2472 1.404 . S
C2473 H2485 0.930 . S
C2474 C2470 1.524 . S
C2474 H2486 0.956 . S
C2474 H2487 0.961 . S
C2474 H2488 0.961 . S
C2475 C2472 1.539 . S
C2475 H2489 0.958 . S
C2475 H2490 0.961 . S
C2475 H2491 0.960 . S
H2476 C2460 0.931 . S
H2477 C2465 0.929 . S
H2478 C2466 0.960 . S
H2479 C2466 0.962 . S
H2480 C2466 0.960 . S
H2481 C2467 0.961 . S
H2482 C2467 0.961 . S
H2483 C2467 0.961 . S
H2484 C2468 0.931 . S
H2485 C2473 0.930 . S
H2486 C2474 0.956 . S
H2487 C2474 0.961 . S
H2488 C2474 0.961 . S
H2489 C2475 0.958 . S
H2490 C2475 0.961 . S
H2491 C2475 0.960 . S
C2492 C2493 1.391 . S
C2492 C2494 1.394 . S
C2492 H2508 0.931 . S
C2493 C2492 1.391 . S
C2493 C2497 1.376 . S
C2494 C2492 1.394 . S
C2494 C2495 1.369 . S
C2494 C2498 1.531 . S
C2495 C2494 1.369 . S
C2495 C2496 1.410 . S
C2495 C2503 1.503 . S
C2496 C2495 1.410 . S
C2496 C2497 1.392 . S
C2496 C2499 1.511 . S
C2497 C2493 1.376 . S
C2497 C2496 1.392 . S
C2497 H2509 0.929 . S
C2498 C2494 1.531 . S
C2498 H2510 0.960 . S
C2498 H2511 0.962 . S
C2498 H2512 0.960 . S
C2499 C2496 1.511 . S
C2499 H2513 0.961 . S
C2499 H2514 0.961 . S
C2499 H2515 0.961 . S
C2500 C2501 1.370 . S
C2500 C2502 1.363 . S
C2500 H2516 0.931 . S
C2501 C2500 1.370 . S
C2501 C2505 1.408 . S
C2502 C2500 1.363 . S
C2502 C2503 1.370 . S
C2502 C2506 1.524 . S
C2503 C2495 1.503 . S
C2503 C2502 1.370 . S
C2503 C2504 1.403 . S
C2504 C2503 1.403 . S
C2504 C2505 1.404 . S
C2504 C2507 1.539 . S
C2505 C2501 1.408 . S
C2505 C2504 1.404 . S
C2505 H2517 0.930 . S
C2506 C2502 1.524 . S
C2506 H2518 0.956 . S
C2506 H2519 0.961 . S
C2506 H2520 0.961 . S
C2507 C2504 1.539 . S
C2507 H2521 0.958 . S
C2507 H2522 0.961 . S
C2507 H2523 0.960 . S
H2508 C2492 0.931 . S
H2509 C2497 0.929 . S
H2510 C2498 0.960 . S
H2511 C2498 0.962 . S
H2512 C2498 0.960 . S
H2513 C2499 0.961 . S
H2514 C2499 0.961 . S
H2515 C2499 0.961 . S
H2516 C2500 0.931 . S
H2517 C2505 0.930 . S
H2518 C2506 0.956 . S
H2519 C2506 0.961 . S
H2520 C2506 0.961 . S
H2521 C2507 0.958 . S
H2522 C2507 0.961 . S
H2523 C2507 0.960 . S
C2524 C2525 1.391 . S
C2524 C2526 1.394 . S
C2524 H2540 0.931 . S
C2525 C2524 1.391 . S
C2525 C2529 1.376 . S
C2526 C2524 1.394 . S
C2526 C2527 1.369 . S
C2526 C2530 1.531 . S
C2527 C2526 1.369 . S
C2527 C2528 1.410 . S
C2527 C2535 1.503 . S
C2528 C2527 1.410 . S
C2528 C2529 1.392 . S
C2528 C2531 1.511 . S
C2529 C2525 1.376 . S
C2529 C2528 1.392 . S
C2529 H2541 0.929 . S
C2530 C2526 1.531 . S
C2530 H2542 0.960 . S
C2530 H2543 0.962 . S
C2530 H2544 0.960 . S
C2531 C2528 1.511 . S
C2531 H2545 0.961 . S
C2531 H2546 0.961 . S
C2531 H2547 0.961 . S
C2532 C2533 1.370 . S
C2532 C2534 1.363 . S
C2532 H2548 0.931 . S
C2533 C2532 1.370 . S
C2533 C2537 1.408 . S
C2534 C2532 1.363 . S
C2534 C2535 1.370 . S
C2534 C2538 1.524 . S
C2535 C2527 1.503 . S
C2535 C2534 1.370 . S
C2535 C2536 1.403 . S
C2536 C2535 1.403 . S
C2536 C2537 1.404 . S
C2536 C2539 1.539 . S
C2537 C2533 1.408 . S
C2537 C2536 1.404 . S
C2537 H2549 0.930 . S
C2538 C2534 1.524 . S
C2538 H2550 0.956 . S
C2538 H2551 0.961 . S
C2538 H2552 0.961 . S
C2539 C2536 1.539 . S
C2539 H2553 0.958 . S
C2539 H2554 0.961 . S
C2539 H2555 0.960 . S
H2540 C2524 0.931 . S
H2541 C2529 0.929 . S
H2542 C2530 0.960 . S
H2543 C2530 0.962 . S
H2544 C2530 0.960 . S
H2545 C2531 0.961 . S
H2546 C2531 0.961 . S
H2547 C2531 0.961 . S
H2548 C2532 0.931 . S
H2549 C2537 0.930 . S
H2550 C2538 0.956 . S
H2551 C2538 0.961 . S
H2552 C2538 0.961 . S
H2553 C2539 0.958 . S
H2554 C2539 0.961 . S
H2555 C2539 0.960 . S
C829 C469 1.574 . S
C837 C654 1.552 . S
C861 C505 1.518 . S
C869 C674 1.493 . S
C893 C433 1.585 . S
C901 C697 1.555 . S
C925 C397 1.482 . S
C933 C677 1.457 . S
C965 C694 1.415 . S
C957 C325 1.436 . S
C989 C361 1.477 . S
C997 C657 1.475 . S
C1029 C664 1.554 . S
C1021 C421 1.565 . S
C1061 C684 1.482 . S
C1053 C349 1.525 . S
C1085 C385 1.560 . S
C1093 C689 1.571 . S
C1117 C493 1.479 . S
C1125 C669 1.463 . S
C1149 C529 1.441 . S
C1157 C704 1.418 . S
C1189 C649 1.466 . S
C1181 C457 1.491 . S
C1221 C714 1.556 . S
C1213 C37 1.566 . S
C1245 C73 1.526 . S
C1253 C734 1.485 . S
C1277 C1 1.579 . S
C1285 C757 1.557 . S
C1309 C613 1.466 . S
C1317 C737 1.471 . S
C1341 C541 1.439 . S
C1349 C754 1.433 . S
C1373 C577 1.478 . S
C1381 C717 1.474 . S
C1405 C637 1.580 . S
C1413 C724 1.537 . S
C1437 C565 1.525 . S
C1445 C744 1.482 . S
C1477 C749 1.558 . S
C1469 C601 1.584 . S
C1501 C61 1.462 . S
C1509 C729 1.465 . S
C1541 C764 1.429 . S
C1533 C97 1.444 . S
C1565 C25 1.488 . S
C1573 C709 1.463 . S
C1605 C774 1.551 . S
C1597 C253 1.575 . S
C1629 C289 1.518 . S
C1637 C794 1.496 . S
C1669 C817 1.570 . S
C1661 C217 1.563 . S
C1701 C797 1.458 . S
C1693 C181 1.482 . S
C1733 C814 1.431 . S
C1725 C109 1.446 . S
C1757 C145 1.491 . S
C1765 C777 1.463 . S
C1789 C205 1.580 . S
C1797 C784 1.536 . S
C1821 C133 1.517 . S
C1829 C804 1.493 . S
C1861 C809 1.558 . S
C1853 C169 1.584 . S
C1885 C277 1.459 . S
C1893 C789 1.470 . S
C1917 C313 1.440 . S
C1925 C824 1.425 . S
C1949 C241 1.487 . S
C1957 C769 1.463 . S
C1981 C571 1.271 . S
C1989 C667 1.231 1_565 S
C2021 C687 1.620 . S
C2013 C607 1.684 . S
C2045 C643 1.507 . S
C2053 C696 1.469 . S
C2077 C247 1.681 . S
C2085 C676 1.609 1_655 S
C2109 C283 1.501 . S
C2117 C707 1.471 . S
C2149 C656 1.228 1_545 S
C2141 C319 1.264 . S
C2173 C139 1.272 . S
C2181 C727 1.230 . S
C2205 C175 1.696 . S
C2213 C747 1.607 . S
C2237 C211 1.512 . S
C2245 C756 1.461 . S
C2269 C463 1.682 . S
C2277 C736 1.607 . S
C2309 C767 1.463 . S
C2301 C499 1.500 . S
C2333 C535 1.277 . S
C2341 C716 1.242 . S
C2365 C355 1.272 . S
C2373 C787 1.254 . S
C2397 C391 1.681 . S
C2405 C807 1.632 . S
C2437 C816 1.468 . S
C2429 C427 1.509 . S
C2461 C31 1.694 . S
C2469 C796 1.618 . S
C2493 C67 1.513 . S
C2501 C827 1.447 . S
C2525 C103 1.261 . S
C2533 C776 1.234 . S
