# Generated by pormake.
# Topology rtl, (3,6)-cn, num edge types: 1
# Building blocks:
#     Node 0, Type 0, BuildingBlock: KAKCAD_clean_linker_0, # of connection points: 3
#     Node 1, Type 0, BuildingBlock: KAKCAD_clean_linker_0, # of connection points: 3
#     Node 2, Type 0, BuildingBlock: KAKCAD_clean_linker_0, # of connection points: 3
#     Node 3, Type 0, BuildingBlock: KAKCAD_clean_linker_0, # of connection points: 3
#     Node 4, Type 1, BuildingBlock: KUMBUR_clean_sbu_1, # of connection points: 6
#     Node 5, Type 1, BuildingBlock: KUMBUR_clean_sbu_1, # of connection points: 6
#     Edge 6, Type (0, 1), None
#     Edge 7, Type (0, 1), None
#     Edge 8, Type (0, 1), None
#     Edge 9, Type (0, 1), None
#     Edge 10, Type (0, 1), None
#     Edge 11, Type (0, 1), None
#     Edge 12, Type (0, 1), None
#     Edge 13, Type (0, 1), None
#     Edge 14, Type (0, 1), None
#     Edge 15, Type (0, 1), None
#     Edge 16, Type (0, 1), None
#     Edge 17, Type (0, 1), None
# Relax obj value: 0.020
# Max RMSD: 0.144
# Mean RMSD: 0.087
data_MOF--net-rtl--node1-KUMBUR_clean_sbu_1--node2-KAKCAD_clean_linker_0--edge1-none
_symmetry_space_group_name_H-M    P1
_symmetry_Int_Tables_number       1
_symmetry_cell_setting            triclinic
loop_
_symmetry_equiv_pos_as_xyz
'x, y, z'
_cell_length_a     21.951869
_cell_length_b     22.947689
_cell_length_c     20.926775
_cell_angle_alpha  72.358262
_cell_angle_beta   98.35611
_cell_angle_gamma 92.169401
loop_
_atom_site_label
_atom_site_type_symbol
_atom_site_fract_x
_atom_site_fract_y
_atom_site_fract_z
_atom_type_partial_charge
C0 C 0.09018 0.8804 0.78757 0.0
C1 C 0.095 0.94319 0.75482 0.0
C2 C 0.12082 0.85449 0.85267 0.0
C3 C 0.15526 0.89129 0.88701 0.0
C4 C 0.15801 0.95454 0.85583 0.0
C5 C 0.12835 0.98035 0.78984 0.0
C6 C 0.18782 0.86296 0.95555 0.0
C7 C 0.2298 0.81552 0.96672 0.0
C8 C 0.25688 0.78351 0.03257 0.0
C9 C 0.24176 0.80081 0.08767 0.0
C10 C 0.20044 0.84962 0.07662 0.0
C11 C 0.17389 0.88038 0.01013 0.0
C12 C 0.18065 0.86681 0.13349 0.0
C13 C 0.16281 0.82195 0.19003 0.0
C14 C 0.17193 0.92881 0.12719 0.0
C15 C 0.14133 0.9455 0.17296 0.0
C16 C 0.11956 0.90062 0.2266 0.0
C17 C 0.30036 0.73221 0.0424 0.0
C18 C 0.29095 0.69429 1.00007 0.0
C19 C 0.35301 0.72245 0.09142 0.0
C20 C 0.39557 0.67665 0.09715 0.0
C21 C 0.38687 0.63999 0.05344 0.0
C22 C 0.33401 0.64948 1.00484 0.0
C23 C 0.13264 0.83879 0.23641 0.0
H24 H 0.06277 0.85118 0.76288 0.0
H25 H 0.11723 0.80571 0.87651 0.0
H26 H 0.18418 0.98361 0.88192 0.0
H27 H 0.13247 0.02903 0.7659 0.0
H28 H 0.24134 0.80393 0.92339 0.0
H29 H 0.13989 0.91615 1.00085 0.0
H30 H 0.26141 0.77611 0.13892 0.0
H31 H 0.16859 0.77383 0.19608 0.0
H32 H 0.1863 0.96448 0.08495 0.0
H33 H 0.13266 0.99353 0.16501 0.0
H34 H 0.25026 0.69928 0.96272 0.0
H35 H 0.36224 0.75112 0.12434 0.0
H36 H 0.11618 0.80336 0.27744 0.0
H37 H 0.32562 0.62241 0.97019 0.0
H38 H 0.43574 0.67072 0.13532 0.0
C39 C 0.58973 0.65994 0.89236 0.0
C40 C 0.59126 0.59591 0.92031 0.0
C41 C 0.62067 0.68845 0.8368 0.0
C42 C 0.653 0.65307 0.80843 0.0
C43 C 0.65673 0.58946 0.83866 0.0
C44 C 0.6261 0.56125 0.8937 0.0
C45 C 0.67506 0.67945 0.74197 0.0
C46 C 0.72067 0.72483 0.73123 0.0
C47 C 0.7449 0.74353 0.66917 0.0
C48 C 0.72216 0.7161 0.61859 0.0
C49 C 0.67649 0.67079 0.62856 0.0
C50 C 0.65237 0.65437 0.68996 0.0
C51 C 0.65679 0.63803 0.57695 0.0
C52 C 0.66059 0.66631 0.50788 0.0
C53 C 0.63661 0.57689 0.59665 0.0
C54 C 0.62176 0.54508 0.54924 0.0
C55 C 0.62917 0.57225 0.4809 0.0
C56 C 0.79506 0.79011 0.65649 0.0
C57 C 0.7973 0.841 0.68107 0.0
C58 C 0.83996 0.78529 0.61655 0.0
C59 C 0.88338 0.83118 0.59861 0.0
C60 C 0.88518 0.88248 0.62214 0.0
C61 C 0.84215 0.88633 0.66461 0.0
C62 C 0.64843 0.63364 0.46103 0.0
H63 H 0.56257 0.68758 0.91154 0.0
H64 H 0.61657 0.73749 0.81385 0.0
H65 H 0.6814 0.56117 0.81773 0.0
H66 H 0.62851 0.51194 0.91441 0.0
H67 H 0.73884 0.74334 0.77195 0.0
H68 H 0.61602 0.62094 0.69844 0.0
H69 H 0.74107 0.72957 0.57146 0.0
H70 H 0.67385 0.71368 0.48944 0.0
H71 H 0.63367 0.5523 0.64909 0.0
H72 H 0.60533 0.49872 0.56695 0.0
H73 H 0.76357 0.84667 0.7117 0.0
H74 H 0.84169 0.746 0.59846 0.0
H75 H 0.65597 0.65672 0.40954 0.0
H76 H 0.84233 0.92485 0.68433 0.0
H77 H 0.91557 0.8261 0.56606 0.0
C78 C 0.86623 0.07387 0.37549 0.0
C79 C 0.9307 0.07547 0.38779 0.0
C80 C 0.83505 0.09914 0.31024 0.0
C81 C 0.86778 0.12512 0.25557 0.0
C82 C 0.93234 0.12483 0.26717 0.0
C83 C 0.96356 0.10056 0.33285 0.0
C84 C 0.83386 0.15545 0.18767 0.0
C85 C 0.79027 0.20089 0.1809 0.0
C86 C 0.75465 0.22878 0.11827 0.0
C87 C 0.76287 0.2097 0.06227 0.0
C88 C 0.80735 0.1654 0.06754 0.0
C89 C 0.84352 0.13887 0.13041 0.0
C90 C 0.81514 0.14823 1.00623 0.0
C91 C 0.76328 0.13376 0.96616 0.0
C92 C 0.8727 0.1527 0.98332 0.0
C93 C 0.87747 0.14683 0.91941 0.0
C94 C 0.82477 0.13595 0.87748 0.0
C95 C 0.70955 0.27818 0.11103 0.0
C96 C 0.67684 0.2775 0.16446 0.0
C97 C 0.69915 0.32692 0.05052 0.0
C98 C 0.65654 0.37288 0.04318 0.0
C99 C 0.62457 0.3721 0.09668 0.0
C100 C 0.6353 0.32444 0.15757 0.0
C101 C 0.76806 0.12738 0.90281 0.0
H102 H 0.83982 0.05294 0.41626 0.0
H103 H 0.78517 0.0984 0.3024 0.0
H104 H 0.9585 0.14482 0.2258 0.0
H105 H 0.01341 0.10198 0.34068 0.0
H106 H 0.78527 0.21524 0.22469 0.0
H107 H 0.87741 0.10407 0.13527 0.0
H108 H 0.73479 0.22961 0.01387 0.0
H109 H 0.71847 0.12925 0.98305 0.0
H110 H 0.91334 0.16416 0.01312 0.0
H111 H 0.92183 0.15401 0.9015 0.0
H112 H 0.6826 0.24038 0.2114 0.0
H113 H 0.72443 0.33023 0.00886 0.0
H114 H 0.72682 0.11739 0.8728 0.0
H115 H 0.61067 0.32289 0.19932 0.0
H116 H 0.64941 0.40968 0.99601 0.0
C117 C 0.37188 0.41857 0.23176 0.0
C118 C 0.43561 0.41466 0.23147 0.0
C119 C 0.34554 0.38981 0.29026 0.0
C120 C 0.38273 0.35797 0.35016 0.0
C121 C 0.4463 0.35342 0.35007 0.0
C122 C 0.4724 0.38087 0.29108 0.0
C123 C 0.35669 0.33677 0.41453 0.0
C124 C 0.31198 0.29064 0.42542 0.0
C125 C 0.28594 0.27283 0.48631 0.0
C126 C 0.30482 0.30338 0.5351 0.0
C127 C 0.34987 0.34924 0.52484 0.0
C128 C 0.37563 0.36528 0.46441 0.0
C129 C 0.36942 0.38151 0.57632 0.0
C130 C 0.32601 0.39887 0.61052 0.0
C131 C 0.43159 0.39681 0.59019 0.0
C132 C 0.44971 0.42963 0.63607 0.0
C133 C 0.40618 0.44759 0.66959 0.0
C134 C 0.23915 0.22282 0.49951 0.0
C135 C 0.19665 0.21288 0.44645 0.0
C136 C 0.23573 0.18511 0.56607 0.0
C137 C 0.18983 0.14101 0.57951 0.0
C138 C 0.14737 0.13193 0.52665 0.0
C139 C 0.15174 0.16736 0.45987 0.0
C140 C 0.34423 0.43139 0.65677 0.0
H141 H 0.34256 0.4457 0.18758 0.0
H142 H 0.29658 0.395 0.28967 0.0
H143 H 0.4759 0.32954 0.39605 0.0
H144 H 0.52152 0.37636 0.29254 0.0
H145 H 0.29871 0.26816 0.38691 0.0
H146 H 0.40912 0.40176 0.4548 0.0
H147 H 0.28443 0.29167 0.58142 0.0
H148 H 0.27764 0.38874 0.6003 0.0
H149 H 0.46643 0.38328 0.56567 0.0
H150 H 0.49794 0.44064 0.64561 0.0
H151 H 0.19688 0.24116 0.39466 0.0
H152 H 0.26855 0.18941 0.60826 0.0
H153 H 0.3095 0.44525 0.68117 0.0
H154 H 0.11908 0.16127 0.41833 0.0
H155 H 0.18786 0.11349 0.63137 0.0
Tb156 Tb 0.06261 0.951 0.53962 0.0
C157 C 0.92678 0.18863 0.48513 0.0
N158 N 0.97749 0.16718 0.53092 0.0
C159 C 0.02792 0.26322 0.48914 0.0
C160 C 0.92571 0.24711 0.4372 0.0
C161 C 0.02609 0.20529 0.53642 0.0
C162 C 0.978 0.28376 0.43836 0.0
C163 C 0.81901 0.17532 0.44691 0.0
C164 C 0.87427 0.15352 0.48974 0.0
C165 C 0.81841 0.23216 0.39664 0.0
C166 C 0.87176 0.26796 0.39168 0.0
Tb167 Tb 0.97045 0.06954 0.60218 0.0
N168 N 0.87711 0.09833 0.53797 0.0
C169 C 0.76596 0.13974 0.45683 0.0
C170 C 0.82503 0.06465 0.55009 0.0
C171 C 0.76882 0.08456 0.50932 0.0
H172 H 0.0634 0.19173 0.57772 0.0
H173 H 0.72783 0.05733 0.5183 0.0
H174 H 0.01904 0.8129 0.6189 0.0
H175 H 0.29366 0.04247 0.52338 0.0
H176 H 0.82711 0.02226 0.59081 0.0
H177 H 0.72247 0.15492 0.42513 0.0
H178 H 0.18457 0.03231 0.48063 0.0
H179 H 0.06741 0.29237 0.49265 0.0
H180 H 0.77666 0.24941 0.36242 0.0
H181 H 0.87024 0.31246 0.35393 0.0
H182 H 0.0617 0.72374 0.71374 0.0
H183 H 0.97916 0.32897 0.40238 0.0
H184 H 0.34086 0.97025 0.63166 0.0
N185 N 0.09948 0.86629 0.62483 0.0
C186 C 0.15891 0.86757 0.65299 0.0
C187 C 0.0894 0.76415 0.69753 0.0
C188 C 0.18524 0.81841 0.70743 0.0
C189 C 0.0653 0.81453 0.64399 0.0
C190 C 0.1493 0.76654 0.73031 0.0
N191 N 0.16711 0.96051 0.56839 0.0
C192 C 0.20337 1.00252 0.52975 0.0
C193 C 0.25669 0.91942 0.64951 0.0
C194 C 0.19372 0.91726 0.62452 0.0
C195 C 0.2923 0.96678 0.61418 0.0
C196 C 0.26582 0.00763 0.55309 0.0
H197 H 0.16779 0.72766 0.77197 0.0
H198 H 0.26777 0.78531 0.77833 0.0
H199 H 0.33062 0.87392 0.72737 0.0
O200 O 0.11067 0.91868 0.47659 0.0
O201 O 0.05292 0.93248 0.6467 0.0
O202 O 0.05751 0.02811 0.65877 0.0
O203 O 0.01558 0.89746 0.48311 0.0
O204 O 0.08496 0.04938 0.50492 0.0
O205 O 0.06936 0.0836 0.59421 0.0
O206 O 0.93222 0.04225 0.69367 0.0
O207 O 0.93488 0.04465 0.5097 0.0
O208 O 0.02126 0.03334 0.46493 0.0
O209 O 0.96169 0.13435 0.65293 0.0
O210 O 0.93691 0.9748 0.63218 0.0
O211 O 0.96677 0.92675 0.55721 0.0
C212 C 0.06647 0.96905 0.68403 0.0
C213 C 0.04833 0.91475 0.37645 0.0
C214 C 0.07804 0.91825 0.26748 0.0
C215 C 0.0263 0.95527 0.2345 0.0
C216 C 0.99629 0.95088 0.34238 0.0
C217 C 0.98555 0.97108 0.27183 0.0
C218 C 0.08871 0.89783 0.33868 0.0
C219 C 0.09771 0.08678 0.54192 0.0
C220 C 0.06156 0.89585 0.45102 0.0
C221 C 0.24683 0.82209 0.73566 0.0
C222 C 0.28253 0.87264 0.70676 0.0
C223 C 0.96364 0.05034 0.45728 0.0
C224 C 0.88112 0.11978 0.71908 0.0
C225 C 0.82749 0.13849 0.80581 0.0
C226 C 0.78008 0.16809 0.75445 0.0
C227 C 0.83361 0.15009 0.66898 0.0
C228 C 0.87796 0.11408 0.78742 0.0
C229 C 0.78319 0.17362 0.68674 0.0
C230 C 0.93207 0.93091 0.60267 0.0
C231 C 0.9357 0.09662 0.70081 0.0
H232 H 0.01681 0.97108 0.1797 0.0
H233 H 0.96387 0.9636 0.37019 0.0
H234 H 0.94544 0.99899 0.24601 0.0
H235 H 0.12879 0.86973 0.36455 0.0
H236 H 0.74119 0.18855 0.76628 0.0
H237 H 0.83589 0.15667 0.61608 0.0
H238 H 0.91493 0.091 0.82604 0.0
H239 H 0.74684 0.19722 0.64773 0.0
Tb240 Tb 0.44798 0.4705 0.0107 0.0
C241 C 0.69546 0.57395 0.07519 0.0
N242 N 0.66859 0.52526 0.11609 0.0
C243 C 0.7616 0.46668 0.13574 0.0
C244 C 0.75523 0.56977 0.05971 0.0
C245 C 0.7027 0.47372 0.15057 0.0
C246 C 0.78744 0.51443 0.0888 0.0
C247 C 0.6932 0.6828 0.01661 0.0
C248 C 0.66513 0.62967 0.05398 0.0
C249 C 0.75106 0.67821 0.99727 0.0
C250 C 0.78198 0.62172 0.01867 0.0
Tb251 Tb 0.56976 0.54144 0.13121 0.0
N252 N 0.60887 0.63212 0.07264 0.0
C253 C 0.66282 0.73899 1.00132 0.0
C254 C 0.58073 0.68708 0.0618 0.0
C255 C 0.60681 0.74124 0.02501 0.0
H256 H 0.68485 0.43777 0.18982 0.0
H257 H 0.58371 0.78459 0.01485 0.0
H258 H 0.31046 0.51605 0.01897 0.0
H259 H 0.52992 0.24199 0.04203 0.0
H260 H 0.53744 0.68866 0.08009 0.0
H261 H 0.68286 0.78095 0.97273 0.0
H262 H 0.52547 0.354 0.99302 0.0
H263 H 0.78742 0.42484 0.16142 0.0
H264 H 0.77305 0.71832 0.96753 0.0
H265 H 0.82753 0.61922 1.00543 0.0
H266 H 0.21731 0.47102 0.06884 0.0
H267 H 0.83345 0.50924 0.07818 0.0
H268 H 0.45315 0.18863 0.11495 0.0
N269 N 0.36026 0.43228 0.05393 0.0
C270 C 0.35845 0.37111 0.08375 0.0
C271 C 0.25693 0.44246 0.07396 0.0
C272 C 0.30686 0.34325 0.11329 0.0
C273 C 0.3096 0.4679 0.0459 0.0
C274 C 0.25599 0.38 0.10899 0.0
N275 N 0.45249 0.36535 0.04542 0.0
C276 C 0.49379 0.33184 0.02776 0.0
C277 C 0.40579 0.27216 0.10693 0.0
C278 C 0.40706 0.3364 0.08048 0.0
C279 C 0.45228 0.23809 0.0954 0.0
C280 C 0.49567 0.26804 0.05429 0.0
H281 H 0.21526 0.36039 0.1308 0.0
H282 H 0.26821 0.25728 0.16768 0.0
H283 H 0.35509 0.19484 0.16218 0.0
O284 O 0.41235 0.43547 0.93065 0.0
O285 O 0.42848 0.46827 0.11178 0.0
O286 O 0.52376 0.45546 0.17623 0.0
O287 O 0.40253 0.53043 0.92095 0.0
O288 O 0.54561 0.44319 0.02976 0.0
O289 O 0.57941 0.4443 0.13877 0.0
O290 O 0.53935 0.56896 0.20876 0.0
O291 O 0.54589 0.58788 0.02166 0.0
O292 O 0.53417 0.50895 0.97638 0.0
O293 O 0.6353 0.55547 0.20856 0.0
O294 O 0.47751 0.58134 0.11019 0.0
O295 O 0.42442 0.56224 0.01298 0.0
C296 C 0.46385 0.44711 0.17022 0.0
C297 C 0.42007 0.50548 0.82342 0.0
C298 C 0.42521 0.48418 0.71671 0.0
C299 C 0.46626 0.53319 0.69937 0.0
C300 C 0.4608 0.55451 0.80477 0.0
C301 C 0.48358 0.56818 0.7431 0.0
C302 C 0.40222 0.47071 0.779 0.0
C303 C 0.58013 0.42104 0.08863 0.0
C304 C 0.39696 0.48926 0.88941 0.0
C305 C 0.307 0.27962 0.14376 0.0
C306 C 0.35654 0.2441 0.14074 0.0
C307 C 0.55427 0.56394 0.97416 0.0
C308 C 0.6018 0.53323 0.31434 0.0
C309 C 0.6196 0.53624 0.43134 0.0
C310 C 0.62911 0.47228 0.45288 0.0
C311 C 0.61101 0.46979 0.33686 0.0
C312 C 0.60426 0.56583 0.36137 0.0
C313 C 0.62385 0.43943 0.40599 0.0
C314 C 0.43224 0.59179 0.05905 0.0
C315 C 0.59434 0.56693 0.24197 0.0
H316 H 0.48418 0.54514 0.6515 0.0
H317 H 0.47506 0.58238 0.83767 0.0
H318 H 0.51451 0.60629 0.72907 0.0
H319 H 0.37121 0.43256 0.79351 0.0
H320 H 0.64249 0.44738 0.50568 0.0
H321 H 0.60971 0.44414 0.30094 0.0
H322 H 0.59528 0.61456 0.34262 0.0
H323 H 0.63162 0.39049 0.42324 0.0
loop_
_geom_bond_atom_site_label_1
_geom_bond_atom_site_label_2
_geom_bond_distance
_geom_bond_site_symmetry_2
_ccdc_geom_bond_type
C0 C1 1.386 . S
C0 C2 1.397 . S
C0 H24 0.931 . S
C1 C0 1.386 . S
C1 C5 1.397 1_565 S
C2 C0 1.397 . S
C2 C3 1.384 . S
C2 H25 0.930 . S
C3 C2 1.384 . S
C3 C4 1.377 . S
C3 C6 1.481 . S
C4 C3 1.377 . S
C4 C5 1.389 1_565 S
C4 H26 0.929 1_565 S
C5 C1 1.397 1_545 S
C5 C4 1.389 1_545 S
C5 H27 0.931 . S
C6 C3 1.481 . S
C6 C7 1.387 . S
C6 C11 1.390 . S
C7 C6 1.387 . S
C7 C8 1.401 1_556 S
C7 H28 0.930 . S
C8 C7 1.401 1_554 S
C8 C9 1.376 . S
C8 C17 1.511 . S
C9 C8 1.376 . S
C9 C10 1.392 . S
C9 H30 0.931 . S
C10 C9 1.392 . S
C10 C11 1.361 1_554 S
C10 C12 1.500 . S
C11 C6 1.390 . S
C11 C10 1.361 1_556 S
C11 H29 0.931 . S
C12 C10 1.500 . S
C12 C13 1.371 . S
C12 C14 1.365 . S
C13 C12 1.371 . S
C13 C23 1.386 . S
C13 H31 0.931 . S
C14 C12 1.365 . S
C14 C15 1.409 . S
C14 H32 0.929 . S
C15 C14 1.409 . S
C15 C16 1.380 . S
C15 H33 0.930 1_565 S
C16 C15 1.380 . S
C16 C23 1.357 . S
C17 C8 1.511 . S
C17 C18 1.341 1_554 S
C17 C19 1.371 . S
C18 C17 1.341 1_556 S
C18 C22 1.394 1_556 S
C18 H34 0.930 . S
C19 C17 1.371 . S
C19 C20 1.392 . S
C19 H35 0.931 . S
C20 C19 1.392 . S
C20 C21 1.331 . S
C20 H38 0.932 . S
C21 C20 1.331 . S
C21 C22 1.336 . S
C22 C18 1.394 1_554 S
C22 C21 1.336 . S
C22 H37 0.929 1_554 S
C23 C13 1.386 . S
C23 C16 1.357 . S
C23 H36 0.928 . S
H24 C0 0.931 . S
H25 C2 0.930 . S
H26 C4 0.929 1_545 S
H27 C5 0.931 . S
H28 C7 0.930 . S
H29 C11 0.931 . S
H30 C9 0.931 . S
H31 C13 0.931 . S
H32 C14 0.929 . S
H33 C15 0.930 1_545 S
H34 C18 0.930 . S
H35 C19 0.931 . S
H36 C23 0.928 . S
H37 C22 0.929 1_556 S
H38 C20 0.932 . S
C39 C40 1.386 . S
C39 C41 1.397 . S
C39 H63 0.931 . S
C40 C39 1.386 . S
C40 C44 1.397 . S
C41 C39 1.397 . S
C41 C42 1.384 . S
C41 H64 0.930 . S
C42 C41 1.384 . S
C42 C43 1.377 . S
C42 C45 1.481 . S
C43 C42 1.377 . S
C43 C44 1.389 . S
C43 H65 0.929 . S
C44 C40 1.397 . S
C44 C43 1.389 . S
C44 H66 0.931 . S
C45 C42 1.481 . S
C45 C46 1.387 . S
C45 C50 1.390 . S
C46 C45 1.387 . S
C46 C47 1.401 . S
C46 H67 0.930 . S
C47 C46 1.401 . S
C47 C48 1.376 . S
C47 C56 1.511 . S
C48 C47 1.376 . S
C48 C49 1.392 . S
C48 H69 0.931 . S
C49 C48 1.392 . S
C49 C50 1.361 . S
C49 C51 1.500 . S
C50 C45 1.390 . S
C50 C49 1.361 . S
C50 H68 0.931 . S
C51 C49 1.500 . S
C51 C52 1.371 . S
C51 C53 1.365 . S
C52 C51 1.371 . S
C52 C62 1.386 . S
C52 H70 0.931 . S
C53 C51 1.365 . S
C53 C54 1.409 . S
C53 H71 0.929 . S
C54 C53 1.409 . S
C54 C55 1.380 . S
C54 H72 0.930 . S
C55 C54 1.380 . S
C55 C62 1.357 . S
C56 C47 1.511 . S
C56 C57 1.341 . S
C56 C58 1.371 . S
C57 C56 1.341 . S
C57 C61 1.394 . S
C57 H73 0.930 . S
C58 C56 1.371 . S
C58 C59 1.392 . S
C58 H74 0.931 . S
C59 C58 1.392 . S
C59 C60 1.331 . S
C59 H77 0.932 . S
C60 C59 1.331 . S
C60 C61 1.336 . S
C61 C57 1.394 . S
C61 C60 1.336 . S
C61 H76 0.929 . S
C62 C52 1.386 . S
C62 C55 1.357 . S
C62 H75 0.928 . S
H63 C39 0.931 . S
H64 C41 0.930 . S
H65 C43 0.929 . S
H66 C44 0.931 . S
H67 C46 0.930 . S
H68 C50 0.931 . S
H69 C48 0.931 . S
H70 C52 0.931 . S
H71 C53 0.929 . S
H72 C54 0.930 . S
H73 C57 0.930 . S
H74 C58 0.931 . S
H75 C62 0.928 . S
H76 C61 0.929 . S
H77 C59 0.932 . S
C78 C79 1.386 . S
C78 C80 1.397 . S
C78 H102 0.931 . S
C79 C78 1.386 . S
C79 C83 1.397 . S
C80 C78 1.397 . S
C80 C81 1.384 . S
C80 H103 0.930 . S
C81 C80 1.384 . S
C81 C82 1.377 . S
C81 C84 1.481 . S
C82 C81 1.377 . S
C82 C83 1.389 . S
C82 H104 0.929 . S
C83 C79 1.397 . S
C83 C82 1.389 . S
C83 H105 0.931 . S
C84 C81 1.481 . S
C84 C85 1.387 . S
C84 C89 1.390 . S
C85 C84 1.387 . S
C85 C86 1.401 . S
C85 H106 0.930 . S
C86 C85 1.401 . S
C86 C87 1.376 . S
C86 C95 1.511 . S
C87 C86 1.376 . S
C87 C88 1.392 . S
C87 H108 0.931 . S
C88 C87 1.392 . S
C88 C89 1.361 . S
C88 C90 1.500 . S
C89 C84 1.390 . S
C89 C88 1.361 . S
C89 H107 0.931 . S
C90 C88 1.500 . S
C90 C91 1.371 1_554 S
C90 C92 1.365 . S
C91 C90 1.371 1_556 S
C91 C101 1.386 . S
C91 H109 0.931 . S
C92 C90 1.365 . S
C92 C93 1.409 1_554 S
C92 H110 0.929 . S
C93 C92 1.409 1_556 S
C93 C94 1.380 . S
C93 H111 0.930 . S
C94 C93 1.380 . S
C94 C101 1.357 . S
C95 C86 1.511 . S
C95 C96 1.341 . S
C95 C97 1.371 . S
C96 C95 1.341 . S
C96 C100 1.394 . S
C96 H112 0.930 . S
C97 C95 1.371 . S
C97 C98 1.392 . S
C97 H113 0.931 1_554 S
C98 C97 1.392 . S
C98 C99 1.331 . S
C98 H116 0.932 1_554 S
C99 C98 1.331 . S
C99 C100 1.336 . S
C100 C96 1.394 . S
C100 C99 1.336 . S
C100 H115 0.929 . S
C101 C91 1.386 . S
C101 C94 1.357 . S
C101 H114 0.928 . S
H102 C78 0.931 . S
H103 C80 0.930 . S
H104 C82 0.929 . S
H105 C83 0.931 . S
H106 C85 0.930 . S
H107 C89 0.931 . S
H108 C87 0.931 . S
H109 C91 0.931 . S
H110 C92 0.929 . S
H111 C93 0.930 . S
H112 C96 0.930 . S
H113 C97 0.931 1_556 S
H114 C101 0.928 . S
H115 C100 0.929 . S
H116 C98 0.932 1_556 S
C117 C118 1.386 . S
C117 C119 1.397 . S
C117 H141 0.931 . S
C118 C117 1.386 . S
C118 C122 1.397 . S
C119 C117 1.397 . S
C119 C120 1.384 . S
C119 H142 0.930 . S
C120 C119 1.384 . S
C120 C121 1.377 . S
C120 C123 1.481 . S
C121 C120 1.377 . S
C121 C122 1.389 . S
C121 H143 0.929 . S
C122 C118 1.397 . S
C122 C121 1.389 . S
C122 H144 0.931 . S
C123 C120 1.481 . S
C123 C124 1.387 . S
C123 C128 1.390 . S
C124 C123 1.387 . S
C124 C125 1.401 . S
C124 H145 0.930 . S
C125 C124 1.401 . S
C125 C126 1.376 . S
C125 C134 1.511 . S
C126 C125 1.376 . S
C126 C127 1.392 . S
C126 H147 0.931 . S
C127 C126 1.392 . S
C127 C128 1.361 . S
C127 C129 1.500 . S
C128 C123 1.390 . S
C128 C127 1.361 . S
C128 H146 0.931 . S
C129 C127 1.500 . S
C129 C130 1.371 . S
C129 C131 1.365 . S
C130 C129 1.371 . S
C130 C140 1.386 . S
C130 H148 0.931 . S
C131 C129 1.365 . S
C131 C132 1.409 . S
C131 H149 0.929 . S
C132 C131 1.409 . S
C132 C133 1.380 . S
C132 H150 0.930 . S
C133 C132 1.380 . S
C133 C140 1.357 . S
C134 C125 1.511 . S
C134 C135 1.341 . S
C134 C136 1.371 . S
C135 C134 1.341 . S
C135 C139 1.394 . S
C135 H151 0.930 . S
C136 C134 1.371 . S
C136 C137 1.392 . S
C136 H152 0.931 . S
C137 C136 1.392 . S
C137 C138 1.331 . S
C137 H155 0.932 . S
C138 C137 1.331 . S
C138 C139 1.336 . S
C139 C135 1.394 . S
C139 C138 1.336 . S
C139 H154 0.929 . S
C140 C130 1.386 . S
C140 C133 1.357 . S
C140 H153 0.928 . S
H141 C117 0.931 . S
H142 C119 0.930 . S
H143 C121 0.929 . S
H144 C122 0.931 . S
H145 C124 0.930 . S
H146 C128 0.931 . S
H147 C126 0.931 . S
H148 C130 0.931 . S
H149 C131 0.929 . S
H150 C132 0.930 . S
H151 C135 0.930 . S
H152 C136 0.931 . S
H153 C140 0.928 . S
H154 C139 0.929 . S
H155 C137 0.932 . S
Tb156 N185 2.617 . S
Tb156 N191 2.572 . S
Tb156 O200 2.465 . S
Tb156 O201 2.387 . S
Tb156 O203 2.428 . S
Tb156 O204 2.308 1_565 S
Tb156 O208 2.349 1_465 S
Tb156 O211 2.393 1_455 S
Tb156 C220 2.802 . S
C157 N158 1.379 . S
C157 C160 1.416 . S
C157 C164 1.424 . S
N158 C157 1.379 . S
N158 C161 1.334 . S
N158 Tb167 2.617 . S
C159 C161 1.390 . S
C159 C162 1.339 . S
C159 H179 0.930 1_655 S
C160 C157 1.416 . S
C160 C162 1.416 . S
C160 C166 1.448 . S
C161 N158 1.334 . S
C161 C159 1.390 . S
C161 H172 0.930 1_655 S
C162 C159 1.339 . S
C162 C160 1.416 . S
C162 H183 0.930 . S
C163 C164 1.413 . S
C163 C165 1.427 . S
C163 C169 1.416 . S
C164 C157 1.424 . S
C164 C163 1.413 . S
C164 N168 1.361 . S
C165 C163 1.427 . S
C165 C166 1.328 . S
C165 H180 0.929 . S
C166 C160 1.448 . S
C166 C165 1.328 . S
C166 H181 0.930 . S
Tb167 N158 2.617 . S
Tb167 N168 2.572 . S
Tb167 O202 2.349 1_655 S
Tb167 O205 2.393 1_655 S
Tb167 O206 2.465 . S
Tb167 O207 2.387 . S
Tb167 O209 2.428 . S
Tb167 O210 2.308 1_545 S
Tb167 C231 2.802 . S
N168 C164 1.361 . S
N168 Tb167 2.572 . S
N168 C170 1.340 . S
C169 C163 1.416 . S
C169 C171 1.332 . S
C169 H177 0.931 . S
C170 N168 1.340 . S
C170 C171 1.407 . S
C170 H176 0.930 . S
C171 C169 1.332 . S
C171 C170 1.407 . S
C171 H173 0.929 . S
H172 C161 0.930 1_455 S
H173 C171 0.929 . S
H174 C189 0.930 1_655 S
H175 C196 0.929 . S
H176 C170 0.930 . S
H177 C169 0.931 . S
H178 C192 0.930 . S
H179 C159 0.930 1_455 S
H180 C165 0.929 . S
H181 C166 0.930 . S
H182 C187 0.930 1_655 S
H183 C162 0.930 . S
H184 C195 0.931 . S
N185 Tb156 2.617 . S
N185 C186 1.379 . S
N185 C189 1.334 . S
C186 N185 1.379 . S
C186 C188 1.416 . S
C186 C194 1.424 . S
C187 H182 0.930 1_455 S
C187 C189 1.390 . S
C187 C190 1.339 . S
C188 C186 1.416 . S
C188 C190 1.416 . S
C188 C221 1.448 . S
C189 H174 0.930 1_455 S
C189 N185 1.334 . S
C189 C187 1.390 . S
C190 C187 1.339 . S
C190 C188 1.416 . S
C190 H197 0.930 . S
N191 Tb156 2.572 . S
N191 C192 1.340 . S
N191 C194 1.361 . S
C192 H178 0.930 . S
C192 N191 1.340 . S
C192 C196 1.407 . S
C193 C194 1.413 . S
C193 C195 1.416 . S
C193 C222 1.427 . S
C194 C186 1.424 . S
C194 N191 1.361 . S
C194 C193 1.413 . S
C195 H184 0.931 . S
C195 C193 1.416 . S
C195 C196 1.332 . S
C196 H175 0.929 . S
C196 C192 1.407 . S
C196 C195 1.332 . S
H197 C190 0.930 . S
H198 C221 0.930 . S
H199 C222 0.929 . S
O200 Tb156 2.465 . S
O200 C220 1.264 . S
O201 Tb156 2.387 . S
O201 C212 1.264 . S
O202 Tb167 2.349 1_455 S
O202 C212 1.243 1_545 S
O203 Tb156 2.428 . S
O203 C220 1.256 . S
O204 Tb156 2.308 1_545 S
O204 C219 1.266 . S
O205 Tb167 2.393 1_455 S
O205 C219 1.248 . S
O206 Tb167 2.465 . S
O206 C231 1.264 . S
O207 Tb167 2.387 . S
O207 C223 1.264 . S
O208 Tb156 2.349 1_645 S
O208 C223 1.243 . S
O209 Tb167 2.428 . S
O209 C231 1.256 . S
O210 Tb167 2.308 1_565 S
O210 C230 1.266 . S
O211 Tb156 2.393 1_655 S
O211 C230 1.248 . S
C212 O201 1.264 . S
C212 O202 1.243 1_565 S
C213 C216 1.399 . S
C213 C218 1.383 . S
C213 C220 1.496 . S
C214 C215 1.399 . S
C214 C218 1.389 . S
C215 C214 1.399 . S
C215 C217 1.380 . S
C215 H232 0.929 . S
C216 C213 1.399 . S
C216 C217 1.392 . S
C216 H233 0.929 . S
C217 C215 1.380 . S
C217 C216 1.392 . S
C217 H234 0.929 . S
C218 C213 1.383 . S
C218 C214 1.389 . S
C218 H235 0.931 . S
C219 O204 1.266 . S
C219 O205 1.248 . S
C220 Tb156 2.802 . S
C220 O200 1.264 . S
C220 O203 1.256 . S
C220 C213 1.496 . S
C221 C188 1.448 . S
C221 H198 0.930 . S
C221 C222 1.328 . S
C222 C193 1.427 . S
C222 H199 0.929 . S
C222 C221 1.328 . S
C223 O207 1.264 . S
C223 O208 1.243 . S
C224 C227 1.399 . S
C224 C228 1.383 . S
C224 C231 1.496 . S
C225 C226 1.399 . S
C225 C228 1.389 . S
C226 C225 1.399 . S
C226 C229 1.380 . S
C226 H236 0.929 . S
C227 C224 1.399 . S
C227 C229 1.392 . S
C227 H237 0.929 . S
C228 C224 1.383 . S
C228 C225 1.389 . S
C228 H238 0.931 . S
C229 C226 1.380 . S
C229 C227 1.392 . S
C229 H239 0.929 . S
C230 O210 1.266 . S
C230 O211 1.248 . S
C231 Tb167 2.802 . S
C231 O206 1.264 . S
C231 O209 1.256 . S
C231 C224 1.496 . S
H232 C215 0.929 . S
H233 C216 0.929 . S
H234 C217 0.929 . S
H235 C218 0.931 . S
H236 C226 0.929 . S
H237 C227 0.929 . S
H238 C228 0.931 . S
H239 C229 0.929 . S
Tb240 N269 2.613 1_556 S
Tb240 N275 2.570 1_556 S
Tb240 O284 2.477 . S
Tb240 O285 2.373 1_556 S
Tb240 O287 2.440 . S
Tb240 O288 2.305 1_556 S
Tb240 O292 2.356 . S
Tb240 O295 2.388 . S
Tb240 C304 2.816 . S
C241 N242 1.379 . S
C241 C244 1.416 . S
C241 C248 1.424 . S
N242 C241 1.379 . S
N242 C245 1.334 . S
N242 Tb251 2.617 . S
C243 C245 1.390 . S
C243 C246 1.339 . S
C243 H263 0.930 . S
C244 C241 1.416 . S
C244 C246 1.416 . S
C244 C250 1.448 . S
C245 N242 1.334 . S
C245 C243 1.390 . S
C245 H256 0.930 . S
C246 C243 1.339 . S
C246 C244 1.416 . S
C246 H267 0.930 . S
C247 C248 1.413 . S
C247 C249 1.427 . S
C247 C253 1.416 . S
C248 C241 1.424 . S
C248 C247 1.413 . S
C248 N252 1.361 . S
C249 C247 1.427 . S
C249 C250 1.328 . S
C249 H264 0.929 . S
C250 C244 1.448 . S
C250 C249 1.328 . S
C250 H265 0.930 . S
Tb251 N242 2.617 . S
Tb251 N252 2.572 . S
Tb251 O286 2.349 . S
Tb251 O289 2.393 . S
Tb251 O290 2.465 . S
Tb251 O291 2.387 . S
Tb251 O293 2.428 . S
Tb251 O294 2.308 . S
Tb251 C315 2.802 . S
N252 C248 1.361 . S
N252 Tb251 2.572 . S
N252 C254 1.340 . S
C253 C247 1.416 . S
C253 C255 1.332 . S
C253 H261 0.931 . S
C254 N252 1.340 . S
C254 C255 1.407 . S
C254 H260 0.930 . S
C255 C253 1.332 . S
C255 C254 1.407 . S
C255 H257 0.929 . S
H256 C245 0.930 . S
H257 C255 0.929 . S
H258 C273 0.930 . S
H259 C280 0.929 . S
H260 C254 0.930 . S
H261 C253 0.931 . S
H262 C276 0.930 . S
H263 C243 0.930 . S
H264 C249 0.929 . S
H265 C250 0.930 . S
H266 C271 0.930 . S
H267 C246 0.930 . S
H268 C279 0.931 . S
N269 Tb240 2.613 1_554 S
N269 C270 1.380 . S
N269 C273 1.335 1_554 S
C270 N269 1.380 . S
C270 C272 1.416 . S
C270 C278 1.424 . S
C271 H266 0.930 . S
C271 C273 1.390 . S
C271 C274 1.339 1_556 S
C272 C270 1.416 . S
C272 C274 1.416 . S
C272 C305 1.448 . S
C273 H258 0.930 . S
C273 N269 1.335 1_556 S
C273 C271 1.390 . S
C274 C271 1.339 1_554 S
C274 C272 1.416 . S
C274 H281 0.930 . S
N275 Tb240 2.570 1_554 S
N275 C276 1.340 . S
N275 C278 1.361 . S
C276 H262 0.930 . S
C276 N275 1.340 . S
C276 C280 1.407 . S
C277 C278 1.413 . S
C277 C279 1.416 . S
C277 C306 1.427 . S
C278 C270 1.424 . S
C278 N275 1.361 . S
C278 C277 1.413 . S
C279 H268 0.931 . S
C279 C277 1.416 . S
C279 C280 1.332 . S
C280 H259 0.929 . S
C280 C276 1.407 . S
C280 C279 1.332 . S
H281 C274 0.930 . S
H282 C305 0.930 . S
H283 C306 0.929 . S
O284 Tb240 2.477 . S
O284 C304 1.264 . S
O285 Tb240 2.373 1_554 S
O285 C296 1.264 . S
O286 Tb251 2.349 . S
O286 C296 1.243 . S
O287 Tb240 2.440 . S
O287 C304 1.256 . S
O288 Tb240 2.305 1_554 S
O288 C303 1.266 . S
O289 Tb251 2.393 . S
O289 C303 1.248 . S
O290 Tb251 2.465 . S
O290 C315 1.264 . S
O291 Tb251 2.387 . S
O291 C307 1.264 1_554 S
O292 Tb240 2.356 . S
O292 C307 1.243 . S
O293 Tb251 2.428 . S
O293 C315 1.256 . S
O294 Tb251 2.308 . S
O294 C314 1.266 . S
O295 Tb240 2.388 . S
O295 C314 1.248 1_556 S
C296 O285 1.264 . S
C296 O286 1.243 . S
C297 C300 1.399 . S
C297 C302 1.383 . S
C297 C304 1.496 . S
C298 C299 1.399 . S
C298 C302 1.389 . S
C299 C298 1.399 . S
C299 C301 1.380 . S
C299 H316 0.929 . S
C300 C297 1.399 . S
C300 C301 1.392 . S
C300 H317 0.929 . S
C301 C299 1.380 . S
C301 C300 1.392 . S
C301 H318 0.929 . S
C302 C297 1.383 . S
C302 C298 1.389 . S
C302 H319 0.931 . S
C303 O288 1.266 . S
C303 O289 1.248 . S
C304 Tb240 2.816 . S
C304 O284 1.264 . S
C304 O287 1.256 . S
C304 C297 1.496 . S
C305 C272 1.448 . S
C305 H282 0.930 . S
C305 C306 1.328 . S
C306 C277 1.427 . S
C306 H283 0.929 . S
C306 C305 1.328 . S
C307 O291 1.264 1_556 S
C307 O292 1.243 . S
C308 C311 1.399 . S
C308 C312 1.383 . S
C308 C315 1.496 . S
C309 C310 1.399 . S
C309 C312 1.389 . S
C310 C309 1.399 . S
C310 C313 1.380 . S
C310 H320 0.929 . S
C311 C308 1.399 . S
C311 C313 1.392 . S
C311 H321 0.929 . S
C312 C308 1.383 . S
C312 C309 1.389 . S
C312 H322 0.931 . S
C313 C310 1.380 . S
C313 C311 1.392 . S
C313 H323 0.929 . S
C314 O294 1.266 . S
C314 O295 1.248 1_554 S
C315 Tb251 2.802 . S
C315 O290 1.264 . S
C315 O293 1.256 . S
C315 C308 1.496 . S
H316 C299 0.929 . S
H317 C300 0.929 . S
H318 C301 0.929 . S
H319 C302 0.931 . S
H320 C310 0.929 . S
H321 C311 0.929 . S
H322 C312 0.931 . S
H323 C313 0.929 . S
C219 C138 2.102 . S
C21 C314 2.121 . S
C60 C230 2.125 . S
C99 C303 2.162 . S
C214 C16 1.585 . S
C307 C40 1.923 . S
C79 C223 2.193 . S
C133 C298 1.536 . S
C309 C55 1.527 . S
C225 C94 1.573 . S
C296 C118 1.910 . S
C1 C212 2.171 . S
