# Generated by pormake.
# Topology rtl, (3,6)-cn, num edge types: 1
# Building blocks:
#     Node 0, Type 0, BuildingBlock: BETDIP_clean_linker_0, # of connection points: 3
#     Node 1, Type 0, BuildingBlock: BETDIP_clean_linker_0, # of connection points: 3
#     Node 2, Type 0, BuildingBlock: BETDIP_clean_linker_0, # of connection points: 3
#     Node 3, Type 0, BuildingBlock: BETDIP_clean_linker_0, # of connection points: 3
#     Node 4, Type 1, BuildingBlock: KUMBOL_clean_sbu_1, # of connection points: 6
#     Node 5, Type 1, BuildingBlock: KUMBOL_clean_sbu_1, # of connection points: 6
#     Edge 6, Type (0, 1), BuildingBlock: XUDNAN_clean_linker_2, # of connection points: 2
#     Edge 7, Type (0, 1), BuildingBlock: XUDNAN_clean_linker_2, # of connection points: 2
#     Edge 8, Type (0, 1), BuildingBlock: XUDNAN_clean_linker_2, # of connection points: 2
#     Edge 9, Type (0, 1), BuildingBlock: XUDNAN_clean_linker_2, # of connection points: 2
#     Edge 10, Type (0, 1), BuildingBlock: XUDNAN_clean_linker_2, # of connection points: 2
#     Edge 11, Type (0, 1), BuildingBlock: XUDNAN_clean_linker_2, # of connection points: 2
#     Edge 12, Type (0, 1), BuildingBlock: XUDNAN_clean_linker_2, # of connection points: 2
#     Edge 13, Type (0, 1), BuildingBlock: XUDNAN_clean_linker_2, # of connection points: 2
#     Edge 14, Type (0, 1), BuildingBlock: XUDNAN_clean_linker_2, # of connection points: 2
#     Edge 15, Type (0, 1), BuildingBlock: XUDNAN_clean_linker_2, # of connection points: 2
#     Edge 16, Type (0, 1), BuildingBlock: XUDNAN_clean_linker_2, # of connection points: 2
#     Edge 17, Type (0, 1), BuildingBlock: XUDNAN_clean_linker_2, # of connection points: 2
# Relax obj value: 0.052
# Max RMSD: 0.220
# Mean RMSD: 0.161
data_MOF--net-rtl--node1-KUMBOL_clean_sbu_1--node2-BETDIP_clean_linker_0--edge1-XUDNAN_clean_linker_2
_symmetry_space_group_name_H-M    P1
_symmetry_Int_Tables_number       1
_symmetry_cell_setting            triclinic
loop_
_symmetry_equiv_pos_as_xyz
'x, y, z'
_cell_length_a     35.381616
_cell_length_b     35.696661
_cell_length_c     27.101607
_cell_angle_alpha  78.20226
_cell_angle_beta   100.0087
_cell_angle_gamma 91.129436
loop_
_atom_site_label
_atom_site_type_symbol
_atom_site_fract_x
_atom_site_fract_y
_atom_site_fract_z
_atom_type_partial_charge
H0 H 0.22428 0.81244 0.92218 0.0
H1 H 0.2214 0.79303 0.08317 0.0
H2 H 0.15524 0.88566 0.97926 0.0
H3 H 0.24194 0.73535 0.08382 0.0
C4 C 0.26028 0.7383 0.05509 0.0
C5 C 0.21363 0.82013 0.95401 0.0
C6 C 0.18737 0.85076 0.9451 0.0
C7 C 0.22572 0.79873 1.0035 0.0
C8 C 0.21198 0.8091 0.04484 0.0
C9 C 0.18642 0.84053 0.03707 0.0
C10 C 0.1741 0.86088 0.98659 0.0
N11 N 0.25257 0.76789 0.01046 0.0
H12 H 0.71038 0.73341 0.73532 0.0
H13 H 0.7443 0.71054 0.59975 0.0
H14 H 0.66829 0.63361 0.67823 0.0
H15 H 0.80978 0.73517 0.68292 0.0
C16 C 0.79221 0.76003 0.66256 0.0
C17 C 0.70953 0.71513 0.70778 0.0
C18 C 0.68763 0.68159 0.71252 0.0
C19 C 0.73109 0.72475 0.66817 0.0
C20 C 0.7292 0.70172 0.63164 0.0
C21 C 0.70578 0.66925 0.63399 0.0
C22 C 0.68593 0.65889 0.67544 0.0
N23 N 0.75195 0.75939 0.66236 0.0
H24 H 0.78967 0.21983 0.96914 0.0
H25 H 0.80986 0.21035 0.13247 0.0
H26 H 0.88103 0.14671 0.06568 0.0
H27 H 0.74282 0.21272 0.11429 0.0
C28 C 0.73944 0.23813 0.08383 0.0
C29 C 0.80567 0.20736 0.00656 0.0
C30 C 0.8371 0.18222 0.01132 0.0
C31 C 0.79466 0.21661 0.05014 0.0
C32 C 0.81651 0.20194 0.0987 0.0
C33 C 0.84757 0.17691 0.10403 0.0
C34 C 0.85727 0.16662 0.06067 0.0
N35 N 0.76219 0.2412 0.04471 0.0
H36 H 0.32918 0.30787 0.3736 0.0
H37 H 0.31065 0.31704 0.52349 0.0
H38 H 0.38935 0.39217 0.44916 0.0
H39 H 0.25264 0.29164 0.49735 0.0
C40 C 0.26009 0.27062 0.47663 0.0
C41 C 0.33497 0.3218 0.40604 0.0
C42 C 0.36114 0.35211 0.4058 0.0
C43 C 0.31571 0.30958 0.4476 0.0
C44 C 0.32407 0.32702 0.49033 0.0
C45 C 0.35044 0.35703 0.49098 0.0
C46 C 0.36829 0.36973 0.44827 0.0
N47 N 0.28954 0.27867 0.44623 0.0
C48 C 0.9263 0.10352 0.47726 0.0
C49 C 0.86624 0.06988 0.47365 0.0
C50 C 0.90538 0.07203 0.4947 0.0
C51 C 0.84969 0.0981 0.43163 0.0
C52 C 0.90916 0.13343 0.43779 0.0
C53 C 0.87116 0.12986 0.41369 0.0
N54 N 0.96297 0.10588 0.50114 0.0
C55 C 0.98307 0.13879 0.49114 0.0
C56 C 0.93038 0.16646 0.425 0.0
C57 C 0.96723 0.16946 0.45253 0.0
Gd58 Gd 0.03637 0.97704 0.49129 0.0
Gd59 Gd 0.98916 0.05184 0.56137 0.0
N60 N 0.92225 0.04566 0.53577 0.0
C61 C 0.84444 0.04073 0.49736 0.0
C62 C 0.90004 0.02021 0.56249 0.0
C63 C 0.86115 0.01656 0.54294 0.0
H64 H 0.91224 1.0023 0.59876 0.0
H65 H 0.84406 0.99527 0.56322 0.0
H66 H 0.1281 0.9582 0.54902 0.0
H67 H 0.01178 0.14076 0.51194 0.0
H68 H 0.16455 0.90871 0.6176 0.0
H69 H 0.81426 0.03806 0.48249 0.0
H70 H 0.81987 0.09652 0.41425 0.0
H71 H 0.96346 0.9309 0.43424 0.0
H72 H 0.91825 0.19012 0.3949 0.0
H73 H 0.98357 0.19516 0.44366 0.0
H74 H 0.07233 0.81041 0.65188 0.0
H75 H 0.85767 0.15214 0.38254 0.0
H76 H 0.95512 0.82058 0.53024 0.0
H77 H 0.93003 0.86926 0.45283 0.0
N78 N 1.00598 0.91733 0.50121 0.0
C79 C 0.02157 0.89007 0.5418 0.0
C80 C 0.9747 0.90952 0.46778 0.0
C81 C 0.96978 0.84751 0.52227 0.0
C82 C 0.95566 0.87481 0.47835 0.0
C83 C 1.00378 0.8545 0.55387 0.0
H84 H 1.00808 0.79921 0.6058 0.0
N85 N 0.07505 0.92939 0.55074 0.0
C86 C 0.05749 0.89638 0.56765 0.0
C87 C 0.11557 0.87256 0.62588 0.0
C88 C 0.07699 0.86723 0.60627 0.0
C89 C 0.1137 0.93289 0.56549 0.0
C90 C 0.13432 0.90503 0.60426 0.0
O91 O 0.99895 0.06608 0.47906 0.0
O92 O 0.98367 0.01146 0.44947 0.0
O93 O 0.05036 1.00323 0.41683 0.0
O94 O 0.06283 0.94357 0.44747 0.0
O95 O 0.97434 0.98879 0.57959 0.0
O96 O 0.97389 0.97666 0.50036 0.0
O97 O 0.06721 0.99048 0.56618 0.0
O98 O 0.01921 0.9983 0.61052 0.0
O99 O 0.9588 0.07749 0.60986 0.0
O100 O 0.02046 0.07943 0.62019 0.0
O101 O 0.07302 0.02948 0.49996 0.0
O102 O 0.04738 0.07213 0.5419 0.0
C103 C 0.98361 0.04885 0.44218 0.0
C104 C 0.96336 0.96781 0.54527 0.0
C105 C 0.04614 0.96177 0.35824 0.0
C106 C 0.05605 0.93559 0.28431 0.0
C107 C 0.99155 0.9515 0.29522 0.0
C108 C 1.00648 0.96362 0.34034 0.0
C109 C 0.01592 0.93718 0.26775 0.0
C110 C 0.07078 0.94846 0.32983 0.0
C111 C 0.06198 0.97131 0.40805 0.0
C112 C 0.05813 0.83291 0.6216 0.0
C113 C 0.02155 0.82652 0.59532 0.0
H114 H 0.1316 0.85093 0.65571 0.0
C115 C 0.05432 0.98775 0.60939 0.0
C116 C 0.07393 0.06154 0.51804 0.0
C117 C 0.99154 0.07505 0.69397 0.0
C118 C 0.96795 0.0834 0.77089 0.0
C119 C 0.01891 0.037 0.77699 0.0
C120 C 0.01748 0.04669 0.72415 0.0
C121 C 0.99445 0.05518 0.80029 0.0
C122 C 0.96664 0.09313 0.7175 0.0
C123 C 0.98996 0.08605 0.63806 0.0
H124 H 0.96084 0.95257 0.2819 0.0
H125 H 0.98707 0.97394 0.3616 0.0
H126 H 1.00295 0.9267 0.2341 0.0
H127 H 0.1014 0.94815 0.34366 0.0
H128 H 0.03907 0.01529 0.80004 0.0
H129 H 0.03669 0.03207 0.70699 0.0
H130 H 0.99589 0.04673 0.84132 0.0
H131 H 0.94664 0.11508 0.69432 0.0
C132 C 0.62486 0.5987 0.05528 0.0
C133 C 0.59581 0.66212 0.03464 0.0
C134 C 0.59508 0.62285 0.05704 0.0
C135 C 0.62585 0.6762 0.0086 0.0
C136 C 0.65584 0.61293 0.031 0.0
C137 C 0.65584 0.65168 0.00687 0.0
N138 N 0.62341 0.56107 0.07725 0.0
C139 C 0.65314 0.53657 0.07984 0.0
C140 C 0.68599 0.58777 0.03205 0.0
C141 C 0.68475 0.54948 0.05687 0.0
Gd142 Gd 0.48926 0.4962 0.01539 0.0
Gd143 Gd 0.56925 0.54139 0.11372 0.0
N144 N 0.56633 0.60828 0.08241 0.0
C145 C 0.56685 0.68625 0.04023 0.0
C146 C 0.54011 0.63237 0.09181 0.0
C147 C 0.53934 0.67142 0.06981 0.0
H148 H 0.52006 0.62197 0.11702 0.0
H149 H 0.51787 0.69016 0.07636 0.0
H150 H 0.51585 0.40446 0.039 0.0
H151 H 0.65198 0.50695 0.09893 0.0
H152 H 0.49458 0.3416 0.08237 0.0
H153 H 0.56634 0.71658 0.02356 0.0
H154 H 0.6266 0.70619 0.99062 0.0
H155 H 0.41124 0.55432 0.9917 0.0
H156 H 0.71056 0.5977 0.01438 0.0
H157 H 0.70808 0.52994 0.05823 0.0
H158 H 0.37979 0.37184 0.13986 0.0
H159 H 0.67912 0.66306 0.98735 0.0
H160 H 0.32995 0.50025 0.08222 0.0
H161 H 0.3502 0.55663 0.02346 0.0
N162 N 0.4278 0.49938 0.03729 0.0
C163 C 0.41559 0.46704 0.06569 0.0
C164 C 0.40359 0.53033 0.0193 0.0
C165 C 0.35726 0.49954 0.06949 0.0
C166 C 0.36859 0.53141 0.03638 0.0
C167 C 0.38021 0.4663 0.08309 0.0
H168 H 0.34137 0.43105 0.12583 0.0
N169 N 0.47051 0.43554 0.05522 0.0
C170 C 0.43716 0.4338 0.07389 0.0
C171 C 0.44534 0.36538 0.10286 0.0
C172 C 0.42405 0.3988 0.09922 0.0
C173 C 0.4904 0.40288 0.0563 0.0
C174 C 0.47835 0.36736 0.08062 0.0
O175 O 0.57655 0.54042 0.03229 0.0
O176 O 0.51617 0.55267 0.98667 0.0
O177 O 0.49961 0.47203 0.9509 0.0
O178 O 0.44562 0.49973 0.94764 0.0
O179 O 0.50699 0.55759 0.10778 0.0
O180 O 0.48043 0.55763 0.0238 0.0
O181 O 0.50738 0.46615 0.09837 0.0
O182 O 0.51779 0.51328 0.14484 0.0
O183 O 0.59267 0.57031 0.17547 0.0
O184 O 0.60624 0.51074 0.18201 0.0
O185 O 0.55056 0.47258 0.02655 0.0
O186 O 0.58071 0.48039 0.10783 0.0
C187 C 0.55329 0.5578 0.99132 0.0
C188 C 0.48034 0.56884 0.06721 0.0
C189 C 0.44385 0.44845 0.90521 0.0
C190 C 0.41857 0.41825 0.83303 0.0
C191 C 0.40225 0.39362 0.91718 0.0
C192 C 0.4239 0.422 0.9366 0.0
C193 C 0.3994 0.39177 0.86583 0.0
C194 C 0.44117 0.44646 0.85337 0.0
C195 C 0.46501 0.47973 0.92541 0.0
C196 C 0.38998 0.3983 0.1193 0.0
C197 C 0.36817 0.43205 0.11145 0.0
H198 H 0.43621 0.33788 0.12197 0.0
C199 C 0.50465 0.47944 0.13928 0.0
C200 C 0.57611 0.46229 0.06915 0.0
C201 C 0.59967 0.5312 0.25791 0.0
C202 C 0.6116 0.54255 0.3455 0.0
C203 C 0.56152 0.49905 0.31981 0.0
C204 C 0.57022 0.50604 0.27053 0.0
C205 C 0.582 0.51705 0.35706 0.0
C206 C 0.62026 0.54942 0.29548 0.0
C207 C 0.60833 0.53935 0.20541 0.0
H208 H 0.38683 0.37352 0.94178 0.0
H209 H 0.42413 0.42377 0.97578 0.0
H210 H 0.3811 0.37028 0.85156 0.0
H211 H 0.45624 0.46712 0.82895 0.0
H212 H 0.53885 0.47949 0.32923 0.0
H213 H 0.55396 0.49174 0.24235 0.0
H214 H 0.57495 0.51054 0.39518 0.0
H215 H 0.64255 0.56932 0.28544 0.0
H216 H 0.19638 0.25328 0.52045 0.0
H217 H 0.27176 0.20802 0.43571 0.0
H218 H 0.23335 0.14919 0.43924 0.0
H219 H 0.18026 0.16403 0.60399 0.0
H220 H 0.1305 0.17465 0.60294 0.0
H221 H 0.16412 0.213 0.59436 0.0
H222 H 0.1216 0.24434 0.50851 0.0
H223 H 0.08782 0.20613 0.5169 0.0
H224 H 0.10857 0.21675 0.4595 0.0
H225 H 0.18667 0.09513 0.45221 0.0
H226 H 0.13422 0.05097 0.47048 0.0
H227 H 0.08813 0.13164 0.54595 0.0
C228 C 0.20477 0.23093 0.50267 0.0
C229 C 0.23707 0.23523 0.47781 0.0
C230 C 0.24712 0.20545 0.45486 0.0
C231 C 0.2255 0.17187 0.45679 0.0
C232 C 0.19383 0.16851 0.48165 0.0
C233 C 0.18335 0.19732 0.50398 0.0
C234 C 0.14763 0.18684 0.52748 0.0
C235 C 0.15615 0.18449 0.58565 0.0
C236 C 0.11445 0.2152 0.50154 0.0
C237 C 0.13964 0.14761 0.51494 0.0
C238 C 0.16673 0.13755 0.48867 0.0
C239 C 0.16531 0.10276 0.47274 0.0
C240 C 0.13529 0.07778 0.48344 0.0
C241 C 0.10677 0.08757 0.50978 0.0
C242 C 0.10935 0.12302 0.52591 0.0
H243 H 0.30832 0.72576 0.98833 0.0
H244 H 0.28535 0.68816 0.14282 0.0
H245 H 0.33916 0.64163 0.16209 0.0
H246 H 0.33287 0.63119 0.97156 0.0
H247 H 0.3702 0.64789 0.93528 0.0
H248 H 0.33013 0.67896 0.93303 0.0
H249 H 0.37699 0.73026 0.96163 0.0
H250 H 0.41717 0.69934 0.96391 0.0
H251 H 0.41175 0.71751 0.01968 0.0
H252 H 0.39563 0.60065 0.16609 0.0
H253 H 0.45043 0.56455 0.1534 0.0
H254 H 0.43702 0.62556 0.99541 0.0
C255 C 0.31474 0.70776 0.02618 0.0
C256 C 0.29279 0.71066 0.06433 0.0
C257 C 0.30184 0.6864 0.11319 0.0
C258 C 0.33236 0.65992 0.1245 0.0
C259 C 0.35348 0.65772 0.08635 0.0
C260 C 0.34505 0.68068 0.03804 0.0
C261 C 0.37218 0.67164 1.00404 0.0
C262 C 0.35001 0.65652 0.95827 0.0
C263 C 0.39592 0.70679 0.98627 0.0
C264 C 0.39724 0.64036 0.04102 0.0
C265 C 0.38587 0.63303 0.08829 0.0
C266 C 0.4047 0.60598 0.12918 0.0
C267 C 0.4359 0.58569 0.12163 0.0
C268 C 0.44781 0.59202 0.07338 0.0
C269 C 0.42827 0.6199 0.03256 0.0
H270 H 0.86275 0.78734 0.69626 0.0
H271 H 0.76447 0.81041 0.57374 0.0
H272 H 0.79825 0.86518 0.52936 0.0
H273 H 0.88283 0.88835 0.69712 0.0
H274 H 0.9341 0.88061 0.71258 0.0
H275 H 0.90247 0.84286 0.73377 0.0
H276 H 0.93503 0.79786 0.6895 0.0
H277 H 0.96626 0.83562 0.66722 0.0
H278 H 0.93662 0.81188 0.62215 0.0
H279 H 0.84519 0.91409 0.49516 0.0
H280 H 0.89731 0.96011 0.48005 0.0
H281 H 0.96198 0.9105 0.62943 0.0
C282 C 0.84835 0.80417 0.66023 0.0
C283 C 0.81109 0.79472 0.6382 0.0
C284 C 0.79291 0.8174 0.5913 0.0
C285 C 0.81198 0.84837 0.56573 0.0
C286 C 0.84887 0.85683 0.58822 0.0
C287 C 0.8665 0.83597 0.63506 0.0
C288 C 0.90546 0.85227 0.6521 0.0
C289 C 0.90624 0.86689 0.70184 0.0
C290 C 0.93775 0.82264 0.65807 0.0
C291 C 0.90727 0.88512 0.60717 0.0
C292 C 0.87462 0.88681 0.57032 0.0
C293 C 0.87056 0.9134 0.52413 0.0
C294 C 0.90031 0.93928 0.51576 0.0
C295 C 0.93322 0.93907 0.55388 0.0
C296 C 0.93671 0.91162 0.60012 0.0
H297 H 0.71203 0.30378 0.01117 0.0
H298 H 0.70733 0.24162 0.1653 0.0
H299 H 0.66436 0.29139 0.17673 0.0
H300 H 0.71103 0.39876 0.03725 0.0
H301 H 0.68019 0.41948 0.97807 0.0
H302 H 0.71073 0.37899 0.98105 0.0
H303 H 0.65153 0.34149 0.94799 0.0
H304 H 0.62084 0.3819 0.94495 0.0
H305 H 0.61137 0.33563 0.98156 0.0
H306 H 0.62516 0.34816 0.17425 0.0
H307 H 0.58805 0.40855 0.15612 0.0
H308 H 0.61315 0.43418 1.00174 0.0
C309 C 0.70185 0.30076 0.04719 0.0
C310 C 0.71313 0.26889 0.08758 0.0
C311 C 0.69904 0.26578 0.13398 0.0
C312 C 0.67464 0.2939 0.14086 0.0
C313 C 0.66405 0.32493 0.10068 0.0
C314 C 0.67678 0.32856 0.05453 0.0
C315 C 0.66029 0.36492 0.01771 0.0
C316 C 0.69249 0.39214 1.00264 0.0
C317 C 0.63447 0.3554 0.97024 0.0
C318 C 0.63687 0.38118 0.05077 0.0
C319 C 0.63979 0.35754 0.09856 0.0
C320 C 0.62235 0.36678 0.13685 0.0
C321 C 0.60148 0.4012 0.12627 0.0
C322 C 0.5977 0.42586 0.0776 0.0
C323 C 0.61527 0.41554 0.03908 0.0
H324 H 0.11738 0.87558 0.03956 0.0
H325 H 0.2259 0.83411 0.13621 0.0
H326 H 0.20396 0.85228 0.20928 0.0
H327 H 0.11256 0.95977 0.09439 0.0
H328 H 0.061 0.95876 0.08805 0.0
H329 H 0.08432 0.94036 0.0437 0.0
H330 H 0.05069 0.87547 0.06578 0.0
H331 H 0.02749 0.89355 0.11047 0.0
H332 H 0.05628 0.85028 0.13152 0.0
H333 H 0.16889 0.87244 0.27343 0.0
H334 H 0.12622 0.89797 0.32145 0.0
H335 H 0.04529 0.93586 0.17999 0.0
C336 C 0.13701 0.87064 0.07568 0.0
C337 C 0.17334 0.85253 0.08151 0.0
C338 C 0.19742 0.84652 0.13033 0.0
C339 C 0.1854 0.8572 0.17228 0.0
C340 C 0.14952 0.87478 0.16496 0.0
C341 C 0.12596 0.88208 0.11769 0.0
C342 C 0.08946 0.90293 0.11957 0.0
C343 C 0.08669 0.94282 0.08434 0.0
C344 C 0.05388 0.87912 0.10604 0.0
C345 C 0.09597 0.90571 0.17551 0.0
C346 C 0.13059 0.88894 0.20111 0.0
C347 C 0.14204 0.88636 0.25353 0.0
C348 C 0.11756 0.90145 0.28047 0.0
C349 C 0.08214 0.91975 0.255 0.0
C350 C 0.07166 0.92188 0.20147 0.0
H351 H 0.69142 0.61423 0.78365 0.0
H352 H 0.63293 0.72455 0.73634 0.0
H353 H 0.59254 0.7054 0.8032 0.0
H354 H 0.61116 0.55735 0.81294 0.0
H355 H 0.6377 0.52637 0.86866 0.0
H356 H 0.66181 0.5489 0.81726 0.0
H357 H 0.71043 0.57774 0.88122 0.0
H358 H 0.68633 0.55637 0.9332 0.0
H359 H 0.69352 0.60739 0.91948 0.0
H360 H 0.5548 0.67166 0.87074 0.0
H361 H 0.52761 0.62888 0.93971 0.0
H362 H 0.61487 0.54308 0.94894 0.0
C363 C 0.6702 0.63435 0.78764 0.0
C364 C 0.66513 0.67085 0.75479 0.0
C365 C 0.63733 0.69656 0.76131 0.0
C366 C 0.6142 0.68585 0.79902 0.0
C367 C 0.61969 0.64953 0.83059 0.0
C368 C 0.64745 0.62441 0.82583 0.0
C369 C 0.64818 0.58744 0.86538 0.0
C370 C 0.63917 0.55299 0.8395 0.0
C371 C 0.68692 0.5819 0.90204 0.0
C372 C 0.616 0.59532 0.89248 0.0
C373 C 0.59961 0.63114 0.87145 0.0
C374 C 0.56775 0.64379 0.88787 0.0
C375 C 0.55233 0.61927 0.92674 0.0
C376 C 0.56924 0.58289 0.94952 0.0
C377 C 0.60166 0.57097 0.9324 0.0
H378 H 0.84684 0.10704 0.16888 0.0
H379 H 0.90249 0.217 0.15221 0.0
H380 H 0.94499 0.19513 0.23576 0.0
H381 H 0.84823 0.09452 0.30574 0.0
H382 H 0.8567 0.04357 0.31843 0.0
H383 H 0.83112 0.06757 0.25704 0.0
H384 H 0.88016 0.04002 0.21224 0.0
H385 H 0.906 0.0162 0.27359 0.0
H386 H 0.93061 0.04856 0.23003 0.0
H387 H 0.98195 0.16125 0.31938 0.0
H388 H 1.00856 0.11899 0.40159 0.0
H389 H 0.92752 0.03131 0.36685 0.0
C390 C 0.86803 0.12633 0.18312 0.0
C391 C 0.87175 0.16361 0.15458 0.0
C392 C 0.89946 0.18838 0.17394 0.0
C393 C 0.92367 0.17616 0.22111 0.0
C394 C 0.91952 0.13918 0.24844 0.0
C395 C 0.89221 0.11468 0.23053 0.0
C396 C 0.89317 0.07679 0.2684 0.0
C397 C 0.85504 0.07024 0.28858 0.0
C398 C 0.90307 0.04343 0.24463 0.0
C399 C 0.9255 0.08374 0.31004 0.0
C400 C 0.94033 0.11988 0.29755 0.0
C401 C 0.97038 0.13301 0.32974 0.0
C402 C 0.98519 0.10886 0.37642 0.0
C403 C 0.96968 0.0722 0.3908 0.0
C404 C 0.9399 0.05923 0.35673 0.0
H405 H 0.36837 0.31945 0.59116 0.0
H406 H 0.35661 0.4331 0.49473 0.0
H407 H 0.37603 0.46142 0.57122 0.0
H408 H 0.33167 0.3427 0.69655 0.0
H409 H 0.36492 0.31136 0.74448 0.0
H410 H 0.35052 0.30043 0.68201 0.0
H411 H 0.42191 0.29804 0.67193 0.0
H412 H 0.43651 0.30923 0.73427 0.0
H413 H 0.45175 0.33877 0.67913 0.0
H414 H 0.39492 0.4772 0.65912 0.0
H415 H 0.41051 0.47919 0.75096 0.0
H416 H 0.41274 0.35492 0.78892 0.0
C417 C 0.36955 0.35031 0.58619 0.0
C418 C 0.36082 0.37412 0.53705 0.0
C419 C 0.36336 0.41435 0.53204 0.0
C420 C 0.37433 0.43067 0.57523 0.0
C421 C 0.38297 0.40635 0.62312 0.0
C422 C 0.38075 0.36703 0.62878 0.0
C423 C 0.39144 0.34722 0.6844 0.0
C424 C 0.35762 0.32407 0.70294 0.0
C425 C 0.42755 0.32182 0.69291 0.0
C426 C 0.39947 0.38152 0.70926 0.0
C427 C 0.39456 0.41539 0.67335 0.0
C428 C 0.39919 0.45083 0.68755 0.0
C429 C 0.40839 0.45166 0.73987 0.0
C430 C 0.41295 0.41725 0.77747 0.0
C431 C 0.40908 0.38182 0.76144 0.0
H432 H 0.63817 0.64262 0.58778 0.0
H433 H 0.76008 0.64857 0.58265 0.0
H434 H 0.74951 0.61718 0.50814 0.0
H435 H 0.62297 0.54969 0.55322 0.0
H436 H 0.5763 0.56301 0.51534 0.0
H437 H 0.59388 0.58498 0.56894 0.0
H438 H 0.58342 0.65201 0.50939 0.0
H439 H 0.56605 0.63025 0.45556 0.0
H440 H 0.6057 0.66269 0.45323 0.0
H441 H 0.72504 0.586 0.43259 0.0
H442 H 0.68911 0.55628 0.36417 0.0
H443 H 0.58324 0.57174 0.41859 0.0
C444 C 0.6628 0.63673 0.57162 0.0
C445 C 0.70003 0.64796 0.59133 0.0
C446 C 0.73127 0.64048 0.56812 0.0
C447 C 0.72556 0.62255 0.52585 0.0
C448 C 0.68841 0.61228 0.50709 0.0
C449 C 0.6576 0.619 0.52939 0.0
C450 C 0.62045 0.60586 0.50141 0.0
C451 C 0.60235 0.57399 0.53684 0.0
C452 C 0.59225 0.63972 0.47854 0.0
C453 C 0.63513 0.59068 0.45986 0.0
C454 C 0.67439 0.59463 0.4637 0.0
C455 C 0.69428 0.58279 0.42927 0.0
C456 C 0.67355 0.56619 0.39024 0.0
C457 C 0.63328 0.56154 0.38581 0.0
C458 C 0.61403 0.57428 0.42116 0.0
H459 H 0.91064 0.17038 0.99651 0.0
H460 H 0.79155 0.17035 0.92222 0.0
H461 H 0.81225 0.14961 0.84931 0.0
H462 H 0.953 0.20112 0.88262 0.0
H463 H 0.99425 0.16973 0.90701 0.0
H464 H 0.9702 0.18822 0.95059 0.0
H465 H 0.96098 0.11908 0.99915 0.0
H466 H 0.98497 0.10038 0.95576 0.0
H467 H 0.93736 0.08473 0.96434 0.0
H468 H 0.84645 0.12526 0.78608 0.0
H469 H 0.89048 0.09784 0.74045 0.0
H470 H 0.98618 0.11105 0.85916 0.0
C471 C 0.8887 0.16597 0.96512 0.0
C472 C 0.84932 0.17203 0.9655 0.0
C473 C 0.82191 0.16653 0.9228 0.0
C474 C 0.8334 0.15451 0.88125 0.0
C475 C 0.8724 0.14803 0.88286 0.0
C476 C 0.89958 0.15355 0.92384 0.0
C477 C 0.93945 0.14261 0.91799 0.0
C478 C 0.96577 0.17751 0.91432 0.0
C479 C 0.95669 0.10975 0.96191 0.0
C480 C 0.93053 0.12955 0.86757 0.0
C481 C 0.89179 0.13328 0.84748 0.0
C482 C 0.87685 0.12243 0.80142 0.0
C483 C 0.90208 0.10704 0.77565 0.0
C484 C 0.94175 0.10223 0.79625 0.0
C485 C 0.95597 0.11406 0.8426 0.0
H486 H 0.37377 0.42544 0.35594 0.0
H487 H 0.39829 0.30622 0.3595 0.0
H488 H 0.43902 0.32608 0.29351 0.0
H489 H 0.36942 0.45807 0.21792 0.0
H490 H 0.39118 0.50332 0.22412 0.0
H491 H 0.36313 0.47972 0.27057 0.0
H492 H 0.42089 0.48223 0.3431 0.0
H493 H 0.44942 0.50523 0.29693 0.0
H494 H 0.46637 0.46139 0.34074 0.0
H495 H 0.48005 0.35885 0.23098 0.0
H496 H 0.51285 0.40218 0.16904 0.0
H497 H 0.46048 0.50021 0.20376 0.0
C498 C 0.38759 0.40353 0.34261 0.0
C499 C 0.38287 0.36421 0.3629 0.0
C500 C 0.40116 0.33643 0.34417 0.0
C501 C 0.42457 0.34746 0.30698 0.0
C502 C 0.42916 0.38641 0.2885 0.0
C503 C 0.41073 0.41405 0.30506 0.0
C504 C 0.42012 0.45397 0.27837 0.0
C505 C 0.3838 0.47501 0.24582 0.0
C506 C 0.4404 0.47706 0.3171 0.0
C507 C 0.44718 0.44446 0.24487 0.0
C508 C 0.45209 0.40531 0.25148 0.0
C509 C 0.47604 0.38952 0.22513 0.0
C510 C 0.49449 0.41432 0.18998 0.0
C511 C 0.48861 0.45442 0.18099 0.0
C512 C 0.46536 0.46967 0.20974 0.0
H513 H 0.1135 0.86423 0.89375 0.0
H514 H 0.2321 0.8871 0.87821 0.0
H515 H 0.21073 0.9261 0.79134 0.0
H516 H 0.08137 0.85555 0.76042 0.0
H517 H 0.03501 0.87701 0.75665 0.0
H518 H 0.05999 0.85071 0.81709 0.0
H519 H 0.05402 0.90979 0.85659 0.0
H520 H 0.03069 0.93751 0.7961 0.0
H521 H 0.07402 0.95456 0.82975 0.0
H522 H 0.1765 0.9637 0.70748 0.0
H523 H 0.13193 0.99416 0.62955 0.0
H524 H 0.0353 0.94547 0.69809 0.0
C525 C 0.13486 0.87749 0.87188 0.0
C526 C 0.17443 0.87295 0.89249 0.0
C527 C 0.20169 0.89025 0.86283 0.0
C528 C 0.18981 0.91248 0.81365 0.0
C529 C 0.15057 0.91663 0.79448 0.0
C530 C 0.1235 0.89918 0.82232 0.0
C531 C 0.08316 0.9075 0.79224 0.0
C532 C 0.06375 0.87049 0.78094 0.0
C533 C 0.05903 0.92861 0.82032 0.0
C534 C 0.09174 0.93316 0.74369 0.0
C535 C 0.13082 0.9379 0.74576 0.0
C536 C 0.14587 0.96001 0.70534 0.0
C537 C 0.12036 0.97715 0.66126 0.0
C538 C 0.0803 0.9719 0.65777 0.0
C539 C 0.06582 0.9501 0.69988 0.0
loop_
_geom_bond_atom_site_label_1
_geom_bond_atom_site_label_2
_geom_bond_distance
_geom_bond_site_symmetry_2
_ccdc_geom_bond_type
H0 C5 0.930 . S
H1 C8 0.930 . S
H2 C10 0.930 . S
H3 C4 1.016 . S
C4 H3 1.016 . S
C4 N11 1.286 . S
C5 H0 0.930 . S
C5 C6 1.397 . S
C5 C7 1.361 1_556 S
C6 C5 1.397 . S
C6 C10 1.390 1_556 S
C7 C5 1.361 1_554 S
C7 C8 1.393 . S
C7 N11 1.413 . S
C8 H1 0.930 . S
C8 C7 1.393 . S
C8 C9 1.399 . S
C9 C8 1.399 . S
C9 C10 1.381 . S
C10 H2 0.930 . S
C10 C6 1.390 1_554 S
C10 C9 1.381 . S
N11 C4 1.286 . S
N11 C7 1.413 . S
H12 C17 0.930 . S
H13 C20 0.930 . S
H14 C22 0.930 . S
H15 C16 1.016 . S
C16 H15 1.016 . S
C16 N23 1.286 . S
C17 H12 0.930 . S
C17 C18 1.397 . S
C17 C19 1.361 . S
C18 C17 1.397 . S
C18 C22 1.390 . S
C19 C17 1.361 . S
C19 C20 1.393 . S
C19 N23 1.413 . S
C20 H13 0.930 . S
C20 C19 1.393 . S
C20 C21 1.399 . S
C21 C20 1.399 . S
C21 C22 1.381 . S
C22 H14 0.930 . S
C22 C18 1.390 . S
C22 C21 1.381 . S
N23 C16 1.286 . S
N23 C19 1.413 . S
H24 C29 0.930 1_556 S
H25 C32 0.930 . S
H26 C34 0.930 . S
H27 C28 1.016 . S
C28 H27 1.016 . S
C28 N35 1.286 . S
C29 H24 0.930 1_554 S
C29 C30 1.397 . S
C29 C31 1.361 . S
C30 C29 1.397 . S
C30 C34 1.390 . S
C31 C29 1.361 . S
C31 C32 1.393 . S
C31 N35 1.413 . S
C32 H25 0.930 . S
C32 C31 1.393 . S
C32 C33 1.399 . S
C33 C32 1.399 . S
C33 C34 1.381 . S
C34 H26 0.930 . S
C34 C30 1.390 . S
C34 C33 1.381 . S
N35 C28 1.286 . S
N35 C31 1.413 . S
H36 C41 0.930 . S
H37 C44 0.930 . S
H38 C46 0.930 . S
H39 C40 1.016 . S
C40 H39 1.016 . S
C40 N47 1.286 . S
C41 H36 0.930 . S
C41 C42 1.397 . S
C41 C43 1.361 . S
C42 C41 1.397 . S
C42 C46 1.390 . S
C43 C41 1.361 . S
C43 C44 1.393 . S
C43 N47 1.413 . S
C44 H37 0.930 . S
C44 C43 1.393 . S
C44 C45 1.399 . S
C45 C44 1.399 . S
C45 C46 1.381 . S
C46 H38 0.930 . S
C46 C42 1.390 . S
C46 C45 1.381 . S
N47 C40 1.286 . S
N47 C43 1.413 . S
C48 C50 1.422 . S
C48 C52 1.415 . S
C48 N54 1.369 . S
C49 C50 1.421 . S
C49 C51 1.417 . S
C49 C61 1.422 . S
C50 C48 1.422 . S
C50 C49 1.421 . S
C50 N60 1.359 . S
C51 C49 1.417 . S
C51 C53 1.329 . S
C51 H70 0.930 . S
C52 C48 1.415 . S
C52 C53 1.437 . S
C52 C56 1.413 . S
C53 C51 1.329 . S
C53 C52 1.437 . S
C53 H75 0.929 . S
N54 C48 1.369 . S
N54 C55 1.338 1_655 S
N54 Gd59 2.622 . S
C55 N54 1.338 1_455 S
C55 C57 1.378 . S
C55 H67 0.929 . S
C56 C52 1.413 . S
C56 C57 1.348 1_655 S
C56 H72 0.931 . S
C57 C55 1.378 . S
C57 C56 1.348 1_455 S
C57 H73 0.930 . S
Gd58 N78 2.622 . S
Gd58 N85 2.570 . S
Gd58 O92 2.353 1_465 S
Gd58 O93 2.468 . S
Gd58 O94 2.427 . S
Gd58 O96 2.388 1_455 S
Gd58 O97 2.386 . S
Gd58 O101 2.307 1_565 S
Gd58 C111 2.805 . S
Gd59 N54 2.622 . S
Gd59 N60 2.570 . S
Gd59 O91 2.386 . S
Gd59 O95 2.307 1_545 S
Gd59 O98 2.353 1_655 S
Gd59 O99 2.468 . S
Gd59 O100 2.427 . S
Gd59 O102 2.388 1_655 S
Gd59 C123 2.805 . S
N60 C50 1.359 . S
N60 Gd59 2.570 . S
N60 C62 1.343 . S
C61 C49 1.422 . S
C61 C63 1.321 . S
C61 H69 0.931 . S
C62 N60 1.343 . S
C62 C63 1.390 . S
C62 H64 0.931 . S
C63 C61 1.321 . S
C63 C62 1.390 . S
C63 H65 0.930 . S
H64 C62 0.931 . S
H65 C63 0.930 . S
H66 C89 0.931 . S
H67 C55 0.929 . S
H68 C90 0.930 . S
H69 C61 0.931 . S
H70 C51 0.930 . S
H71 C80 0.929 1_655 S
H72 C56 0.931 . S
H73 C57 0.930 . S
H74 C112 0.930 . S
H75 C53 0.929 . S
H76 C81 0.931 . S
H77 C82 0.930 1_655 S
N78 Gd58 2.622 . S
N78 C79 1.369 . S
N78 C80 1.338 . S
C79 N78 1.369 . S
C79 C83 1.415 . S
C79 C86 1.422 . S
C80 H71 0.929 1_455 S
C80 N78 1.338 . S
C80 C82 1.378 . S
C81 H76 0.931 . S
C81 C82 1.348 . S
C81 C83 1.413 . S
C82 H77 0.930 1_455 S
C82 C80 1.378 . S
C82 C81 1.348 . S
C83 C79 1.415 . S
C83 C81 1.413 . S
C83 C113 1.437 . S
H84 C113 0.929 . S
N85 Gd58 2.570 . S
N85 C86 1.359 . S
N85 C89 1.343 . S
C86 C79 1.422 . S
C86 N85 1.359 . S
C86 C88 1.421 . S
C87 C88 1.422 . S
C87 C90 1.321 . S
C87 H114 0.931 . S
C88 C86 1.421 . S
C88 C87 1.422 . S
C88 C112 1.417 . S
C89 H66 0.931 . S
C89 N85 1.343 . S
C89 C90 1.390 . S
C90 H68 0.930 . S
C90 C87 1.321 . S
C90 C89 1.390 . S
O91 Gd59 2.386 . S
O91 C103 1.265 . S
O92 Gd58 2.353 1_645 S
O92 C103 1.242 . S
O93 Gd58 2.468 . S
O93 C111 1.263 . S
O94 Gd58 2.427 . S
O94 C111 1.252 . S
O95 Gd59 2.307 1_565 S
O95 C104 1.261 . S
O96 Gd58 2.388 1_655 S
O96 C104 1.252 . S
O97 Gd58 2.386 . S
O97 C115 1.265 . S
O98 Gd59 2.353 1_455 S
O98 C115 1.242 1_545 S
O99 Gd59 2.468 . S
O99 C123 1.263 . S
O100 Gd59 2.427 . S
O100 C123 1.252 . S
O101 Gd58 2.307 1_545 S
O101 C116 1.261 . S
O102 Gd59 2.388 1_455 S
O102 C116 1.252 . S
C103 O91 1.265 . S
C103 O92 1.242 . S
C104 O95 1.261 . S
C104 O96 1.252 . S
C105 C108 1.394 . S
C105 C110 1.370 . S
C105 C111 1.500 . S
C106 C109 1.383 . S
C106 C110 1.395 . S
C107 C108 1.396 . S
C107 C109 1.365 . S
C107 H124 0.929 . S
C108 C105 1.394 . S
C108 C107 1.396 . S
C108 H125 0.930 . S
C109 C106 1.383 . S
C109 C107 1.365 . S
C109 H126 0.931 . S
C110 C105 1.370 . S
C110 C106 1.395 . S
C110 H127 0.930 . S
C111 Gd58 2.805 . S
C111 O93 1.263 . S
C111 O94 1.252 . S
C111 C105 1.500 . S
C112 H74 0.930 . S
C112 C88 1.417 . S
C112 C113 1.329 . S
C113 C83 1.437 . S
C113 H84 0.929 . S
C113 C112 1.329 . S
H114 C87 0.931 . S
C115 O97 1.265 . S
C115 O98 1.242 1_565 S
C116 O101 1.261 . S
C116 O102 1.252 . S
C117 C120 1.394 . S
C117 C122 1.370 . S
C117 C123 1.500 . S
C118 C121 1.383 . S
C118 C122 1.395 . S
C119 C120 1.396 . S
C119 C121 1.365 . S
C119 H128 0.929 . S
C120 C117 1.394 . S
C120 C119 1.396 . S
C120 H129 0.930 . S
C121 C118 1.383 . S
C121 C119 1.365 . S
C121 H130 0.931 . S
C122 C117 1.370 . S
C122 C118 1.395 . S
C122 H131 0.930 . S
C123 Gd59 2.805 . S
C123 O99 1.263 . S
C123 O100 1.252 . S
C123 C117 1.500 . S
H124 C107 0.929 . S
H125 C108 0.930 . S
H126 C109 0.931 . S
H127 C110 0.930 . S
H128 C119 0.929 . S
H129 C120 0.930 . S
H130 C121 0.931 . S
H131 C122 0.930 . S
C132 C134 1.422 . S
C132 C136 1.415 . S
C132 N138 1.369 . S
C133 C134 1.421 . S
C133 C135 1.417 . S
C133 C145 1.422 . S
C134 C132 1.422 . S
C134 C133 1.421 . S
C134 N144 1.359 . S
C135 C133 1.417 . S
C135 C137 1.329 . S
C135 H154 0.930 . S
C136 C132 1.415 . S
C136 C137 1.437 . S
C136 C140 1.413 . S
C137 C135 1.329 . S
C137 C136 1.437 . S
C137 H159 0.929 . S
N138 C132 1.369 . S
N138 C139 1.338 . S
N138 Gd143 2.622 . S
C139 N138 1.338 . S
C139 C141 1.378 . S
C139 H151 0.929 . S
C140 C136 1.413 . S
C140 C141 1.348 . S
C140 H156 0.931 . S
C141 C139 1.378 . S
C141 C140 1.348 . S
C141 H157 0.930 . S
Gd142 N162 2.620 1_556 S
Gd142 N169 2.569 1_556 S
Gd142 O176 2.357 . S
Gd142 O177 2.474 . S
Gd142 O178 2.434 . S
Gd142 O180 2.385 1_556 S
Gd142 O181 2.378 1_556 S
Gd142 O185 2.305 1_556 S
Gd142 C195 2.812 . S
Gd143 N138 2.622 . S
Gd143 N144 2.570 . S
Gd143 O175 2.386 . S
Gd143 O179 2.307 . S
Gd143 O182 2.353 . S
Gd143 O183 2.468 . S
Gd143 O184 2.427 . S
Gd143 O186 2.388 . S
Gd143 C207 2.805 . S
N144 C134 1.359 . S
N144 Gd143 2.570 . S
N144 C146 1.343 . S
C145 C133 1.422 . S
C145 C147 1.321 . S
C145 H153 0.931 . S
C146 N144 1.343 . S
C146 C147 1.390 . S
C146 H148 0.931 . S
C147 C145 1.321 . S
C147 C146 1.390 . S
C147 H149 0.930 . S
H148 C146 0.931 . S
H149 C147 0.930 . S
H150 C173 0.931 . S
H151 C139 0.929 . S
H152 C174 0.930 . S
H153 C145 0.931 . S
H154 C135 0.930 . S
H155 C164 0.929 . S
H156 C140 0.931 . S
H157 C141 0.930 . S
H158 C196 0.930 . S
H159 C137 0.929 . S
H160 C165 0.931 . S
H161 C166 0.929 . S
N162 Gd142 2.620 1_554 S
N162 C163 1.369 . S
N162 C164 1.338 1_554 S
C163 N162 1.369 . S
C163 C167 1.415 . S
C163 C170 1.422 . S
C164 H155 0.929 . S
C164 N162 1.338 1_556 S
C164 C166 1.384 . S
C165 H160 0.931 . S
C165 C166 1.343 1_554 S
C165 C167 1.413 . S
C166 H161 0.929 . S
C166 C164 1.384 . S
C166 C165 1.343 1_556 S
C167 C163 1.415 . S
C167 C165 1.413 . S
C167 C197 1.437 . S
H168 C197 0.929 . S
N169 Gd142 2.569 1_554 S
N169 C170 1.359 . S
N169 C173 1.343 . S
C170 C163 1.422 . S
C170 N169 1.359 . S
C170 C172 1.421 . S
C171 C172 1.422 . S
C171 C174 1.321 . S
C171 H198 0.931 . S
C172 C170 1.421 . S
C172 C171 1.422 . S
C172 C196 1.417 . S
C173 H150 0.931 . S
C173 N169 1.343 . S
C173 C174 1.390 . S
C174 H152 0.930 . S
C174 C171 1.321 . S
C174 C173 1.390 . S
O175 Gd143 2.386 . S
O175 C187 1.265 1_554 S
O176 Gd142 2.357 . S
O176 C187 1.242 . S
O177 Gd142 2.474 . S
O177 C195 1.263 . S
O178 Gd142 2.434 . S
O178 C195 1.252 . S
O179 Gd143 2.307 . S
O179 C188 1.261 . S
O180 Gd142 2.385 1_554 S
O180 C188 1.252 . S
O181 Gd142 2.378 1_554 S
O181 C199 1.265 . S
O182 Gd143 2.353 . S
O182 C199 1.242 . S
O183 Gd143 2.468 . S
O183 C207 1.263 . S
O184 Gd143 2.427 . S
O184 C207 1.252 . S
O185 Gd142 2.305 1_554 S
O185 C200 1.261 . S
O186 Gd143 2.388 . S
O186 C200 1.252 . S
C187 O175 1.265 1_556 S
C187 O176 1.242 . S
C188 O179 1.261 . S
C188 O180 1.252 . S
C189 C192 1.394 . S
C189 C194 1.370 . S
C189 C195 1.500 . S
C190 C193 1.383 . S
C190 C194 1.395 . S
C191 C192 1.396 . S
C191 C193 1.365 . S
C191 H208 0.929 . S
C192 C189 1.394 . S
C192 C191 1.396 . S
C192 H209 0.930 . S
C193 C190 1.383 . S
C193 C191 1.365 . S
C193 H210 0.931 . S
C194 C189 1.370 . S
C194 C190 1.395 . S
C194 H211 0.930 . S
C195 Gd142 2.812 . S
C195 O177 1.263 . S
C195 O178 1.252 . S
C195 C189 1.500 . S
C196 H158 0.930 . S
C196 C172 1.417 . S
C196 C197 1.329 . S
C197 C167 1.437 . S
C197 H168 0.929 . S
C197 C196 1.329 . S
H198 C171 0.931 . S
C199 O181 1.265 . S
C199 O182 1.242 . S
C200 O185 1.261 . S
C200 O186 1.252 . S
C201 C204 1.394 . S
C201 C206 1.370 . S
C201 C207 1.500 . S
C202 C205 1.383 . S
C202 C206 1.395 . S
C203 C204 1.396 . S
C203 C205 1.365 . S
C203 H212 0.929 . S
C204 C201 1.394 . S
C204 C203 1.396 . S
C204 H213 0.930 . S
C205 C202 1.383 . S
C205 C203 1.365 . S
C205 H214 0.931 . S
C206 C201 1.370 . S
C206 C202 1.395 . S
C206 H215 0.930 . S
C207 Gd143 2.805 . S
C207 O183 1.263 . S
C207 O184 1.252 . S
C207 C201 1.500 . S
H208 C191 0.929 . S
H209 C192 0.930 . S
H210 C193 0.931 . S
H211 C194 0.930 . S
H212 C203 0.929 . S
H213 C204 0.930 . S
H214 C205 0.931 . S
H215 C206 0.930 . S
H216 C228 0.930 . S
H217 C230 0.930 . S
H218 C231 0.930 . S
H219 C235 0.959 . S
H220 C235 0.959 . S
H221 C235 0.961 . S
H222 C236 0.960 . S
H223 C236 0.961 . S
H224 C236 0.959 . S
H225 C239 0.929 . S
H226 C240 0.931 . S
H227 C242 0.930 . S
C228 H216 0.930 . S
C228 C229 1.399 . S
C228 C233 1.399 . S
C229 C228 1.399 . S
C229 C230 1.376 . S
C230 H217 0.930 . S
C230 C229 1.376 . S
C230 C231 1.388 . S
C231 H218 0.930 . S
C231 C230 1.388 . S
C231 C232 1.390 . S
C232 C231 1.390 . S
C232 C233 1.394 . S
C232 C238 1.465 . S
C233 C228 1.399 . S
C233 C232 1.394 . S
C233 C234 1.516 . S
C234 C233 1.516 . S
C234 C235 1.502 . S
C234 C236 1.561 . S
C234 C237 1.526 . S
C235 H219 0.959 . S
C235 H220 0.959 . S
C235 H221 0.961 . S
C235 C234 1.502 . S
C236 H222 0.960 . S
C236 H223 0.961 . S
C236 H224 0.959 . S
C236 C234 1.561 . S
C237 C234 1.526 . S
C237 C238 1.396 . S
C237 C242 1.390 . S
C238 C232 1.465 . S
C238 C237 1.396 . S
C238 C239 1.399 . S
C239 H225 0.929 . S
C239 C238 1.399 . S
C239 C240 1.385 . S
C240 H226 0.931 . S
C240 C239 1.385 . S
C240 C241 1.389 . S
C241 C240 1.389 . S
C241 C242 1.387 . S
C242 H227 0.930 . S
C242 C237 1.390 . S
C242 C241 1.387 . S
H243 C255 0.930 1_556 S
H244 C257 0.930 . S
H245 C258 0.930 . S
H246 C262 0.959 . S
H247 C262 0.959 . S
H248 C262 0.961 . S
H249 C263 0.960 . S
H250 C263 0.961 . S
H251 C263 0.959 . S
H252 C266 0.929 . S
H253 C267 0.931 . S
H254 C269 0.930 1_556 S
C255 H243 0.930 1_554 S
C255 C256 1.399 . S
C255 C260 1.399 . S
C256 C255 1.399 . S
C256 C257 1.376 . S
C257 H244 0.930 . S
C257 C256 1.376 . S
C257 C258 1.388 . S
C258 H245 0.930 . S
C258 C257 1.388 . S
C258 C259 1.390 . S
C259 C258 1.390 . S
C259 C260 1.394 . S
C259 C265 1.465 . S
C260 C255 1.399 . S
C260 C259 1.394 . S
C260 C261 1.516 1_554 S
C261 C260 1.516 1_556 S
C261 C262 1.502 . S
C261 C263 1.561 . S
C261 C264 1.526 1_556 S
C262 H246 0.959 . S
C262 H247 0.959 . S
C262 H248 0.961 . S
C262 C261 1.502 . S
C263 H249 0.960 . S
C263 H250 0.961 . S
C263 H251 0.959 . S
C263 C261 1.561 . S
C264 C261 1.526 1_554 S
C264 C265 1.396 . S
C264 C269 1.390 . S
C265 C259 1.465 . S
C265 C264 1.396 . S
C265 C266 1.399 . S
C266 H252 0.929 . S
C266 C265 1.399 . S
C266 C267 1.385 . S
C267 H253 0.931 . S
C267 C266 1.385 . S
C267 C268 1.389 . S
C268 C267 1.389 . S
C268 C269 1.387 . S
C269 H254 0.930 1_554 S
C269 C264 1.390 . S
C269 C268 1.387 . S
H270 C282 0.930 . S
H271 C284 0.930 . S
H272 C285 0.930 . S
H273 C289 0.959 . S
H274 C289 0.959 . S
H275 C289 0.961 . S
H276 C290 0.960 . S
H277 C290 0.961 . S
H278 C290 0.959 . S
H279 C293 0.929 . S
H280 C294 0.931 . S
H281 C296 0.930 . S
C282 H270 0.930 . S
C282 C283 1.399 . S
C282 C287 1.399 . S
C283 C282 1.399 . S
C283 C284 1.376 . S
C284 H271 0.930 . S
C284 C283 1.376 . S
C284 C285 1.388 . S
C285 H272 0.930 . S
C285 C284 1.388 . S
C285 C286 1.390 . S
C286 C285 1.390 . S
C286 C287 1.394 . S
C286 C292 1.465 . S
C287 C282 1.399 . S
C287 C286 1.394 . S
C287 C288 1.516 . S
C288 C287 1.516 . S
C288 C289 1.502 . S
C288 C290 1.561 . S
C288 C291 1.526 . S
C289 H273 0.959 . S
C289 H274 0.959 . S
C289 H275 0.961 . S
C289 C288 1.502 . S
C290 H276 0.960 . S
C290 H277 0.961 . S
C290 H278 0.959 . S
C290 C288 1.561 . S
C291 C288 1.526 . S
C291 C292 1.396 . S
C291 C296 1.390 . S
C292 C286 1.465 . S
C292 C291 1.396 . S
C292 C293 1.399 . S
C293 H279 0.929 . S
C293 C292 1.399 . S
C293 C294 1.385 . S
C294 H280 0.931 . S
C294 C293 1.385 . S
C294 C295 1.389 . S
C295 C294 1.389 . S
C295 C296 1.387 . S
C296 H281 0.930 . S
C296 C291 1.390 . S
C296 C295 1.387 . S
H297 C309 0.930 1_556 S
H298 C311 0.930 . S
H299 C312 0.930 . S
H300 C316 0.959 1_554 S
H301 C316 0.959 . S
H302 C316 0.961 . S
H303 C317 0.960 . S
H304 C317 0.961 . S
H305 C317 0.959 . S
H306 C320 0.929 . S
H307 C321 0.931 . S
H308 C323 0.930 1_556 S
C309 H297 0.930 1_554 S
C309 C310 1.399 . S
C309 C314 1.399 . S
C310 C309 1.399 . S
C310 C311 1.376 . S
C311 H298 0.930 . S
C311 C310 1.376 . S
C311 C312 1.388 . S
C312 H299 0.930 . S
C312 C311 1.388 . S
C312 C313 1.390 . S
C313 C312 1.390 . S
C313 C314 1.394 . S
C313 C319 1.465 . S
C314 C309 1.399 . S
C314 C313 1.394 . S
C314 C315 1.516 1_554 S
C315 C314 1.516 1_556 S
C315 C316 1.502 . S
C315 C317 1.561 . S
C315 C318 1.526 1_556 S
C316 H300 0.959 1_556 S
C316 H301 0.959 . S
C316 H302 0.961 . S
C316 C315 1.502 . S
C317 H303 0.960 . S
C317 H304 0.961 . S
C317 H305 0.959 . S
C317 C315 1.561 . S
C318 C315 1.526 1_554 S
C318 C319 1.396 . S
C318 C323 1.390 . S
C319 C313 1.465 . S
C319 C318 1.396 . S
C319 C320 1.399 . S
C320 H306 0.929 . S
C320 C319 1.399 . S
C320 C321 1.385 . S
C321 H307 0.931 . S
C321 C320 1.385 . S
C321 C322 1.389 . S
C322 C321 1.389 . S
C322 C323 1.387 . S
C323 H308 0.930 1_554 S
C323 C318 1.390 . S
C323 C322 1.387 . S
H324 C336 0.930 . S
H325 C338 0.930 . S
H326 C339 0.930 . S
H327 C343 0.959 . S
H328 C343 0.959 . S
H329 C343 0.961 . S
H330 C344 0.960 . S
H331 C344 0.961 . S
H332 C344 0.959 . S
H333 C347 0.929 . S
H334 C348 0.931 . S
H335 C350 0.930 . S
C336 H324 0.930 . S
C336 C337 1.399 . S
C336 C341 1.399 . S
C337 C336 1.399 . S
C337 C338 1.376 . S
C338 H325 0.930 . S
C338 C337 1.376 . S
C338 C339 1.388 . S
C339 H326 0.930 . S
C339 C338 1.388 . S
C339 C340 1.390 . S
C340 C339 1.390 . S
C340 C341 1.394 . S
C340 C346 1.465 . S
C341 C336 1.399 . S
C341 C340 1.394 . S
C341 C342 1.516 . S
C342 C341 1.516 . S
C342 C343 1.502 . S
C342 C344 1.561 . S
C342 C345 1.526 . S
C343 H327 0.959 . S
C343 H328 0.959 . S
C343 H329 0.961 . S
C343 C342 1.502 . S
C344 H330 0.960 . S
C344 H331 0.961 . S
C344 H332 0.959 . S
C344 C342 1.561 . S
C345 C342 1.526 . S
C345 C346 1.396 . S
C345 C350 1.390 . S
C346 C340 1.465 . S
C346 C345 1.396 . S
C346 C347 1.399 . S
C347 H333 0.929 . S
C347 C346 1.399 . S
C347 C348 1.385 . S
C348 H334 0.931 . S
C348 C347 1.385 . S
C348 C349 1.389 . S
C349 C348 1.389 . S
C349 C350 1.387 . S
C350 H335 0.930 . S
C350 C345 1.390 . S
C350 C349 1.387 . S
H351 C363 0.930 . S
H352 C365 0.930 . S
H353 C366 0.930 . S
H354 C370 0.959 . S
H355 C370 0.959 . S
H356 C370 0.961 . S
H357 C371 0.960 . S
H358 C371 0.961 . S
H359 C371 0.959 . S
H360 C374 0.929 . S
H361 C375 0.931 . S
H362 C377 0.930 . S
C363 H351 0.930 . S
C363 C364 1.399 . S
C363 C368 1.399 . S
C364 C363 1.399 . S
C364 C365 1.376 . S
C365 H352 0.930 . S
C365 C364 1.376 . S
C365 C366 1.388 . S
C366 H353 0.930 . S
C366 C365 1.388 . S
C366 C367 1.390 . S
C367 C366 1.390 . S
C367 C368 1.394 . S
C367 C373 1.465 . S
C368 C363 1.399 . S
C368 C367 1.394 . S
C368 C369 1.516 . S
C369 C368 1.516 . S
C369 C370 1.502 . S
C369 C371 1.561 . S
C369 C372 1.526 . S
C370 H354 0.959 . S
C370 H355 0.959 . S
C370 H356 0.961 . S
C370 C369 1.502 . S
C371 H357 0.960 . S
C371 H358 0.961 . S
C371 H359 0.959 . S
C371 C369 1.561 . S
C372 C369 1.526 . S
C372 C373 1.396 . S
C372 C377 1.390 . S
C373 C367 1.465 . S
C373 C372 1.396 . S
C373 C374 1.399 . S
C374 H360 0.929 . S
C374 C373 1.399 . S
C374 C375 1.385 . S
C375 H361 0.931 . S
C375 C374 1.385 . S
C375 C376 1.389 . S
C376 C375 1.389 . S
C376 C377 1.387 . S
C377 H362 0.930 . S
C377 C372 1.390 . S
C377 C376 1.387 . S
H378 C390 0.930 . S
H379 C392 0.930 . S
H380 C393 0.930 . S
H381 C397 0.959 . S
H382 C397 0.959 . S
H383 C397 0.961 . S
H384 C398 0.960 . S
H385 C398 0.961 1_565 S
H386 C398 0.959 . S
H387 C401 0.929 . S
H388 C402 0.931 . S
H389 C404 0.930 . S
C390 H378 0.930 . S
C390 C391 1.399 . S
C390 C395 1.399 . S
C391 C390 1.399 . S
C391 C392 1.376 . S
C392 H379 0.930 . S
C392 C391 1.376 . S
C392 C393 1.388 . S
C393 H380 0.930 . S
C393 C392 1.388 . S
C393 C394 1.390 . S
C394 C393 1.390 . S
C394 C395 1.394 . S
C394 C400 1.465 . S
C395 C390 1.399 . S
C395 C394 1.394 . S
C395 C396 1.516 . S
C396 C395 1.516 . S
C396 C397 1.502 . S
C396 C398 1.561 . S
C396 C399 1.526 . S
C397 H381 0.959 . S
C397 H382 0.959 . S
C397 H383 0.961 . S
C397 C396 1.502 . S
C398 H384 0.960 . S
C398 H385 0.961 1_545 S
C398 H386 0.959 . S
C398 C396 1.561 . S
C399 C396 1.526 . S
C399 C400 1.396 . S
C399 C404 1.390 . S
C400 C394 1.465 . S
C400 C399 1.396 . S
C400 C401 1.399 . S
C401 H387 0.929 . S
C401 C400 1.399 . S
C401 C402 1.385 . S
C402 H388 0.931 . S
C402 C401 1.385 . S
C402 C403 1.389 . S
C403 C402 1.389 . S
C403 C404 1.387 . S
C404 H389 0.930 . S
C404 C399 1.390 . S
C404 C403 1.387 . S
H405 C417 0.930 . S
H406 C419 0.930 . S
H407 C420 0.930 . S
H408 C424 0.959 . S
H409 C424 0.959 . S
H410 C424 0.961 . S
H411 C425 0.960 . S
H412 C425 0.961 . S
H413 C425 0.959 . S
H414 C428 0.929 . S
H415 C429 0.931 . S
H416 C431 0.930 . S
C417 H405 0.930 . S
C417 C418 1.399 . S
C417 C422 1.399 . S
C418 C417 1.399 . S
C418 C419 1.376 . S
C419 H406 0.930 . S
C419 C418 1.376 . S
C419 C420 1.388 . S
C420 H407 0.930 . S
C420 C419 1.388 . S
C420 C421 1.390 . S
C421 C420 1.390 . S
C421 C422 1.394 . S
C421 C427 1.465 . S
C422 C417 1.399 . S
C422 C421 1.394 . S
C422 C423 1.516 . S
C423 C422 1.516 . S
C423 C424 1.502 . S
C423 C425 1.561 . S
C423 C426 1.526 . S
C424 H408 0.959 . S
C424 H409 0.959 . S
C424 H410 0.961 . S
C424 C423 1.502 . S
C425 H411 0.960 . S
C425 H412 0.961 . S
C425 H413 0.959 . S
C425 C423 1.561 . S
C426 C423 1.526 . S
C426 C427 1.396 . S
C426 C431 1.390 . S
C427 C421 1.465 . S
C427 C426 1.396 . S
C427 C428 1.399 . S
C428 H414 0.929 . S
C428 C427 1.399 . S
C428 C429 1.385 . S
C429 H415 0.931 . S
C429 C428 1.385 . S
C429 C430 1.389 . S
C430 C429 1.389 . S
C430 C431 1.387 . S
C431 H416 0.930 . S
C431 C426 1.390 . S
C431 C430 1.387 . S
H432 C444 0.930 . S
H433 C446 0.930 . S
H434 C447 0.930 . S
H435 C451 0.959 . S
H436 C451 0.959 . S
H437 C451 0.961 . S
H438 C452 0.960 . S
H439 C452 0.961 . S
H440 C452 0.959 . S
H441 C455 0.929 . S
H442 C456 0.931 . S
H443 C458 0.930 . S
C444 H432 0.930 . S
C444 C445 1.399 . S
C444 C449 1.399 . S
C445 C444 1.399 . S
C445 C446 1.376 . S
C446 H433 0.930 . S
C446 C445 1.376 . S
C446 C447 1.388 . S
C447 H434 0.930 . S
C447 C446 1.388 . S
C447 C448 1.390 . S
C448 C447 1.390 . S
C448 C449 1.394 . S
C448 C454 1.465 . S
C449 C444 1.399 . S
C449 C448 1.394 . S
C449 C450 1.516 . S
C450 C449 1.516 . S
C450 C451 1.502 . S
C450 C452 1.561 . S
C450 C453 1.526 . S
C451 H435 0.959 . S
C451 H436 0.959 . S
C451 H437 0.961 . S
C451 C450 1.502 . S
C452 H438 0.960 . S
C452 H439 0.961 . S
C452 H440 0.959 . S
C452 C450 1.561 . S
C453 C450 1.526 . S
C453 C454 1.396 . S
C453 C458 1.390 . S
C454 C448 1.465 . S
C454 C453 1.396 . S
C454 C455 1.399 . S
C455 H441 0.929 . S
C455 C454 1.399 . S
C455 C456 1.385 . S
C456 H442 0.931 . S
C456 C455 1.385 . S
C456 C457 1.389 . S
C457 C456 1.389 . S
C457 C458 1.387 . S
C458 H443 0.930 . S
C458 C453 1.390 . S
C458 C457 1.387 . S
H459 C471 0.930 . S
H460 C473 0.930 . S
H461 C474 0.930 . S
H462 C478 0.959 . S
H463 C478 0.959 . S
H464 C478 0.961 . S
H465 C479 0.960 . S
H466 C479 0.961 . S
H467 C479 0.959 . S
H468 C482 0.929 . S
H469 C483 0.931 . S
H470 C485 0.930 . S
C471 H459 0.930 . S
C471 C472 1.399 . S
C471 C476 1.399 . S
C472 C471 1.399 . S
C472 C473 1.376 1_556 S
C473 H460 0.930 . S
C473 C472 1.376 1_554 S
C473 C474 1.388 1_554 S
C474 H461 0.930 . S
C474 C473 1.388 1_556 S
C474 C475 1.390 . S
C475 C474 1.390 . S
C475 C476 1.394 . S
C475 C481 1.465 . S
C476 C471 1.399 . S
C476 C475 1.394 . S
C476 C477 1.516 . S
C477 C476 1.516 . S
C477 C478 1.502 . S
C477 C479 1.561 . S
C477 C480 1.526 . S
C478 H462 0.959 . S
C478 H463 0.959 . S
C478 H464 0.961 . S
C478 C477 1.502 . S
C479 H465 0.960 . S
C479 H466 0.961 . S
C479 H467 0.959 . S
C479 C477 1.561 . S
C480 C477 1.526 . S
C480 C481 1.396 . S
C480 C485 1.390 . S
C481 C475 1.465 . S
C481 C480 1.396 . S
C481 C482 1.399 . S
C482 H468 0.929 . S
C482 C481 1.399 . S
C482 C483 1.385 . S
C483 H469 0.931 . S
C483 C482 1.385 . S
C483 C484 1.389 . S
C484 C483 1.389 . S
C484 C485 1.387 . S
C485 H470 0.930 . S
C485 C480 1.390 . S
C485 C484 1.387 . S
H486 C498 0.930 . S
H487 C500 0.930 . S
H488 C501 0.930 . S
H489 C505 0.959 . S
H490 C505 0.959 . S
H491 C505 0.961 . S
H492 C506 0.960 . S
H493 C506 0.961 . S
H494 C506 0.959 . S
H495 C509 0.929 . S
H496 C510 0.931 . S
H497 C512 0.930 . S
C498 H486 0.930 . S
C498 C499 1.399 . S
C498 C503 1.399 . S
C499 C498 1.399 . S
C499 C500 1.376 . S
C500 H487 0.930 . S
C500 C499 1.376 . S
C500 C501 1.388 . S
C501 H488 0.930 . S
C501 C500 1.388 . S
C501 C502 1.390 . S
C502 C501 1.390 . S
C502 C503 1.394 . S
C502 C508 1.465 . S
C503 C498 1.399 . S
C503 C502 1.394 . S
C503 C504 1.516 . S
C504 C503 1.516 . S
C504 C505 1.502 . S
C504 C506 1.561 . S
C504 C507 1.526 . S
C505 H489 0.959 . S
C505 H490 0.959 . S
C505 H491 0.961 . S
C505 C504 1.502 . S
C506 H492 0.960 . S
C506 H493 0.961 . S
C506 H494 0.959 . S
C506 C504 1.561 . S
C507 C504 1.526 . S
C507 C508 1.396 . S
C507 C512 1.390 . S
C508 C502 1.465 . S
C508 C507 1.396 . S
C508 C509 1.399 . S
C509 H495 0.929 . S
C509 C508 1.399 . S
C509 C510 1.385 . S
C510 H496 0.931 . S
C510 C509 1.385 . S
C510 C511 1.389 . S
C511 C510 1.389 . S
C511 C512 1.387 . S
C512 H497 0.930 . S
C512 C507 1.390 . S
C512 C511 1.387 . S
H513 C525 0.930 . S
H514 C527 0.930 . S
H515 C528 0.930 . S
H516 C532 0.959 . S
H517 C532 0.959 . S
H518 C532 0.961 . S
H519 C533 0.960 . S
H520 C533 0.961 . S
H521 C533 0.959 . S
H522 C536 0.929 1_545 S
H523 C537 0.931 1_545 S
H524 C539 0.930 . S
C525 H513 0.930 . S
C525 C526 1.399 . S
C525 C530 1.399 . S
C526 C525 1.399 . S
C526 C527 1.376 . S
C527 H514 0.930 . S
C527 C526 1.376 . S
C527 C528 1.388 . S
C528 H515 0.930 . S
C528 C527 1.388 . S
C528 C529 1.390 . S
C529 C528 1.390 . S
C529 C530 1.394 . S
C529 C535 1.465 . S
C530 C525 1.399 . S
C530 C529 1.394 . S
C530 C531 1.516 . S
C531 C530 1.516 . S
C531 C532 1.502 . S
C531 C533 1.561 . S
C531 C534 1.526 . S
C532 H516 0.959 . S
C532 H517 0.959 . S
C532 H518 0.961 . S
C532 C531 1.502 . S
C533 H519 0.960 . S
C533 H520 0.961 . S
C533 H521 0.959 . S
C533 C531 1.561 . S
C534 C531 1.526 . S
C534 C535 1.396 . S
C534 C539 1.390 . S
C535 C529 1.465 . S
C535 C534 1.396 . S
C535 C536 1.399 . S
C536 H522 0.929 1_565 S
C536 C535 1.399 . S
C536 C537 1.385 . S
C537 H523 0.931 1_565 S
C537 C536 1.385 . S
C537 C538 1.389 . S
C538 C537 1.389 . S
C538 C539 1.387 . S
C539 H524 0.930 . S
C539 C534 1.390 . S
C539 C538 1.387 . S
C241 C116 1.664 . S
C229 C40 1.660 . S
C256 C4 1.659 . S
C268 C188 1.656 . S
C283 C16 1.624 . S
C295 C104 1.638 . S
C310 C28 1.616 . S
C322 C200 1.606 . S
C349 C106 1.456 . S
C337 C9 1.622 . S
C376 C187 1.706 . S
C364 C18 1.693 . S
C391 C33 1.610 . S
C403 C103 1.643 . S
C418 C45 1.586 . S
C430 C190 1.397 . S
C457 C202 1.379 . S
C445 C21 1.572 . S
C484 C118 1.385 . S
C472 C30 1.545 1_556 S
C511 C199 1.636 . S
C499 C42 1.639 . S
C526 C6 1.573 . S
C538 C115 1.588 . S
