# Generated by pormake.
# Topology zzz, (3,6)-cn, num edge types: 1
# Building blocks:
#     Node 0, Type 0, BuildingBlock: KAKCAD_clean_linker_0, # of connection points: 3
#     Node 1, Type 0, BuildingBlock: KAKCAD_clean_linker_0, # of connection points: 3
#     Node 2, Type 0, BuildingBlock: KAKCAD_clean_linker_0, # of connection points: 3
#     Node 3, Type 0, BuildingBlock: KAKCAD_clean_linker_0, # of connection points: 3
#     Node 4, Type 0, BuildingBlock: KAKCAD_clean_linker_0, # of connection points: 3
#     Node 5, Type 0, BuildingBlock: KAKCAD_clean_linker_0, # of connection points: 3
#     Node 6, Type 0, BuildingBlock: KAKCAD_clean_linker_0, # of connection points: 3
#     Node 7, Type 0, BuildingBlock: KAKCAD_clean_linker_0, # of connection points: 3
#     Node 8, Type 1, BuildingBlock: PAMTUU_clean_sbu_0, # of connection points: 6
#     Node 9, Type 1, BuildingBlock: PAMTUU_clean_sbu_0, # of connection points: 6
#     Node 10, Type 1, BuildingBlock: PAMTUU_clean_sbu_0, # of connection points: 6
#     Node 11, Type 1, BuildingBlock: PAMTUU_clean_sbu_0, # of connection points: 6
#     Edge 12, Type (0, 1), BuildingBlock: AJUNOK_clean_linker_0, # of connection points: 2
#     Edge 13, Type (0, 1), BuildingBlock: AJUNOK_clean_linker_0, # of connection points: 2
#     Edge 14, Type (0, 1), BuildingBlock: AJUNOK_clean_linker_0, # of connection points: 2
#     Edge 15, Type (0, 1), BuildingBlock: AJUNOK_clean_linker_0, # of connection points: 2
#     Edge 16, Type (0, 1), BuildingBlock: AJUNOK_clean_linker_0, # of connection points: 2
#     Edge 17, Type (0, 1), BuildingBlock: AJUNOK_clean_linker_0, # of connection points: 2
#     Edge 18, Type (0, 1), BuildingBlock: AJUNOK_clean_linker_0, # of connection points: 2
#     Edge 19, Type (0, 1), BuildingBlock: AJUNOK_clean_linker_0, # of connection points: 2
#     Edge 20, Type (0, 1), BuildingBlock: AJUNOK_clean_linker_0, # of connection points: 2
#     Edge 21, Type (0, 1), BuildingBlock: AJUNOK_clean_linker_0, # of connection points: 2
#     Edge 22, Type (0, 1), BuildingBlock: AJUNOK_clean_linker_0, # of connection points: 2
#     Edge 23, Type (0, 1), BuildingBlock: AJUNOK_clean_linker_0, # of connection points: 2
#     Edge 24, Type (0, 1), BuildingBlock: AJUNOK_clean_linker_0, # of connection points: 2
#     Edge 25, Type (0, 1), BuildingBlock: AJUNOK_clean_linker_0, # of connection points: 2
#     Edge 26, Type (0, 1), BuildingBlock: AJUNOK_clean_linker_0, # of connection points: 2
#     Edge 27, Type (0, 1), BuildingBlock: AJUNOK_clean_linker_0, # of connection points: 2
#     Edge 28, Type (0, 1), BuildingBlock: AJUNOK_clean_linker_0, # of connection points: 2
#     Edge 29, Type (0, 1), BuildingBlock: AJUNOK_clean_linker_0, # of connection points: 2
#     Edge 30, Type (0, 1), BuildingBlock: AJUNOK_clean_linker_0, # of connection points: 2
#     Edge 31, Type (0, 1), BuildingBlock: AJUNOK_clean_linker_0, # of connection points: 2
#     Edge 32, Type (0, 1), BuildingBlock: AJUNOK_clean_linker_0, # of connection points: 2
#     Edge 33, Type (0, 1), BuildingBlock: AJUNOK_clean_linker_0, # of connection points: 2
#     Edge 34, Type (0, 1), BuildingBlock: AJUNOK_clean_linker_0, # of connection points: 2
#     Edge 35, Type (0, 1), BuildingBlock: AJUNOK_clean_linker_0, # of connection points: 2
# Relax obj value: 0.416
# Max RMSD: 0.286
# Mean RMSD: 0.219
data_MOF--net-zzz--node1-PAMTUU_clean_sbu_0--node2-KAKCAD_clean_linker_0--edge1-AJUNOK_clean_linker_0
_symmetry_space_group_name_H-M    P1
_symmetry_Int_Tables_number       1
_symmetry_cell_setting            triclinic
loop_
_symmetry_equiv_pos_as_xyz
'x, y, z'
_cell_length_a     44.906507
_cell_length_b     48.811401
_cell_length_c     16.493785
_cell_angle_alpha  100.65607
_cell_angle_beta   90.116656
_cell_angle_gamma 89.200375
loop_
_atom_site_label
_atom_site_type_symbol
_atom_site_fract_x
_atom_site_fract_y
_atom_site_fract_z
_atom_type_partial_charge
C0 C 0.83752 0.59717 0.34256 0.0
C1 C 0.84408 0.58447 0.26093 0.0
C2 C 0.80981 0.59299 0.37646 0.0
C3 C 0.78902 0.57539 0.32938 0.0
C4 C 0.79313 0.56871 0.24348 0.0
C5 C 0.82056 0.57332 0.20936 0.0
C6 C 0.77078 0.55636 0.36931 0.0
C7 C 0.74438 0.545 0.33281 0.0
C8 C 0.73268 0.52039 0.35188 0.0
C9 C 0.74774 0.50718 0.41077 0.0
C10 C 0.77348 0.51955 0.45193 0.0
C11 C 0.78413 0.54416 0.43119 0.0
C12 C 0.79296 0.50668 0.50923 0.0
C13 C 0.79735 0.52119 0.59051 0.0
C14 C 0.81419 0.48616 0.47644 0.0
C15 C 0.84004 0.48172 0.52126 0.0
C16 C 0.84555 0.49781 0.6001 0.0
C17 C 0.70674 0.50816 0.30112 0.0
C18 C 0.6776 0.51802 0.32165 0.0
C19 C 0.71177 0.49252 0.22161 0.0
C20 C 0.68865 0.48787 0.16312 0.0
C21 C 0.65978 0.49887 0.18215 0.0
C22 C 0.65435 0.51317 0.26328 0.0
C23 C 0.8231 0.51668 0.63547 0.0
H24 H 0.85506 0.6066 0.38314 0.0
H25 H 0.80666 0.59964 0.44231 0.0
H26 H 0.77739 0.55581 0.20436 0.0
H27 H 0.82464 0.5637 0.14567 0.0
H28 H 0.73395 0.55427 0.28479 0.0
H29 H 0.80504 0.55216 0.45812 0.0
H30 H 0.73985 0.48753 0.42337 0.0
H31 H 0.78197 0.53774 0.61682 0.0
H32 H 0.81205 0.47516 0.41338 0.0
H33 H 0.85644 0.46656 0.49241 0.0
H34 H 0.67316 0.53088 0.3814 0.0
H35 H 0.73408 0.4853 0.20304 0.0
H36 H 0.82642 0.52948 0.69575 0.0
H37 H 0.63249 0.52202 0.28024 0.0
H38 H 0.69363 0.47642 0.10183 0.0
C39 C 1.0008 0.81339 0.22372 0.0
C40 C 0.02733 0.80822 0.17822 0.0
C41 C 0.99073 0.79421 0.26978 0.0
C42 C 1.00698 0.76957 0.27096 0.0
C43 C 0.03226 0.76334 0.22073 0.0
C44 C 0.04251 0.78268 0.1749 0.0
C45 C 1.00048 0.75308 0.33471 0.0
C46 C 0.99529 0.72456 0.31461 0.0
C47 C 0.99019 0.70901 0.37676 0.0
C48 C 0.99105 0.72232 0.46072 0.0
C49 C 0.99662 0.75123 0.48071 0.0
C50 C 1.00096 0.76621 0.41726 0.0
C51 C 0.99851 0.76758 0.56569 0.0
C52 C 0.97281 0.78148 0.60126 0.0
C53 C 0.02648 0.77783 0.5942 0.0
C54 C 0.02874 0.80316 0.64978 0.0
C55 C 1.00302 0.8187 0.67867 0.0
C56 C 0.98495 0.67886 0.34927 0.0
C57 C 0.95814 0.67039 0.30878 0.0
C58 C 1.00932 0.66023 0.34009 0.0
C59 C 1.0077 0.63456 0.28578 0.0
C60 C 0.98176 0.62721 0.23923 0.0
C61 C 0.95649 0.64471 0.25466 0.0
C62 C 0.97503 0.80674 0.65741 0.0
H63 H 0.98898 0.83312 0.22857 0.0
H64 H 0.97122 0.79937 0.30849 0.0
H65 H 0.04521 0.7445 0.22156 0.0
H66 H 0.06305 0.77835 0.14028 0.0
H67 H 0.99519 0.71439 0.25026 0.0
H68 H 1.00543 0.78838 0.43255 0.0
H69 H 0.98758 0.71045 0.50918 0.0
H70 H 0.95099 0.77445 0.5789 0.0
H71 H 0.04664 0.76798 0.56596 0.0
H72 H 0.05065 0.8118 0.66331 0.0
H73 H 0.93923 0.68463 0.31371 0.0
H74 H 0.03043 0.66659 0.36899 0.0
H75 H 0.95477 0.81802 0.67907 0.0
H76 H 0.936 0.63933 0.22102 0.0
H77 H 0.02754 0.62152 0.27522 0.0
C78 C 0.76696 0.09498 0.19934 0.0
C79 C 0.7396 0.10746 0.22688 0.0
C80 C 0.78305 0.07985 0.24902 0.0
C81 C 0.77295 0.07847 0.32918 0.0
C82 C 0.74962 0.09668 0.36237 0.0
C83 C 0.73262 0.11053 0.31115 0.0
C84 C 0.78241 0.05474 0.36998 0.0
C85 C 0.80942 0.04058 0.34899 0.0
C86 C 0.81492 0.01397 0.36658 0.0
C87 C 0.79399 1.00247 0.41576 0.0
C88 C 0.76785 0.01804 0.4461 0.0
C89 C 0.7622 0.04337 0.41935 0.0
C90 C 0.74475 0.00916 0.5028 0.0
C91 C 0.73115 0.98288 0.48693 0.0
C92 C 0.73262 0.02936 0.56713 0.0
C93 C 0.70674 0.02442 0.60954 0.0
C94 C 0.6919 0.99877 0.59111 0.0
C95 C 0.84116 0.99874 0.32226 0.0
C96 C 0.83752 0.98554 0.23954 0.0
C97 C 0.87029 0.00582 0.34949 0.0
C98 C 0.89478 1.00084 0.29489 0.0
C99 C 0.89093 0.98906 0.2106 0.0
C100 C 0.86183 0.98095 0.18465 0.0
C101 C 0.70528 0.9777 0.5308 0.0
H102 H 0.77395 0.09382 0.13596 0.0
H103 H 0.80136 0.06707 0.22035 0.0
H104 H 0.74246 0.09811 0.42564 0.0
H105 H 0.71223 0.12093 0.33572 0.0
H106 H 0.82578 0.04935 0.31332 0.0
H107 H 0.7408 0.05346 0.43414 0.0
H108 H 0.79806 0.98202 0.43043 0.0
H109 H 0.73964 0.96673 0.43814 0.0
H110 H 0.74244 0.04982 0.5822 0.0
H111 H 0.6977 0.04142 0.65471 0.0
H112 H 0.81532 0.98104 0.21524 0.0
H113 H 0.87386 0.01701 0.41176 0.0
H114 H 0.69563 0.9572 0.51632 0.0
H115 H 0.85725 0.97279 0.12038 0.0
H116 H 0.91661 0.00735 0.3182 0.0
C117 C 0.55194 0.72837 0.45442 0.0
C118 C 0.57785 0.71243 0.46153 0.0
C119 C 0.55094 0.74706 0.3994 0.0
C120 C 0.57581 0.75015 0.35065 0.0
C121 C 0.60259 0.73648 0.36415 0.0
C122 C 0.60361 0.71776 0.41895 0.0
C123 C 0.57081 0.75742 0.26862 0.0
C124 C 0.57078 0.78481 0.25294 0.0
C125 C 0.56563 0.78945 0.17188 0.0
C126 C 0.55956 0.76668 0.1082 0.0
C127 C 0.55934 0.73956 0.1245 0.0
C128 C 0.5652 0.73519 0.20423 0.0
C129 C 0.55168 0.71517 0.06139 0.0
C130 C 0.52265 0.71234 0.02932 0.0
C131 C 0.57122 0.69208 0.04816 0.0
C132 C 0.56111 0.66601 1.01034 0.0
C133 C 0.53136 0.66263 0.98503 0.0
C134 C 0.56598 0.81779 0.15178 0.0
C135 C 0.54404 0.83762 0.18351 0.0
C136 C 0.58594 0.82381 0.09215 0.0
C137 C 0.58334 0.84879 0.06245 0.0
C138 C 0.56039 0.86798 0.09077 0.0
C139 C 0.54108 0.86241 0.15261 0.0
C140 C 0.51252 0.6861 0.99102 0.0
H141 H 0.5318 0.72486 0.48681 0.0
H142 H 0.52983 0.75679 0.38855 0.0
H143 H 0.62179 0.73788 0.32549 0.0
H144 H 0.62379 0.70556 0.42175 0.0
H145 H 0.57506 0.80218 0.30261 0.0
H146 H 0.56463 0.71415 0.217 0.0
H147 H 0.55489 0.77009 0.04627 0.0
H148 H 0.50717 0.72985 0.03989 0.0
H149 H 0.59365 0.69384 0.07271 0.0
H150 H 0.57605 0.64813 1.00515 0.0
H151 H 0.5282 0.83325 0.22875 0.0
H152 H 0.60287 0.80868 0.06638 0.0
H153 H 0.48951 0.68381 0.97137 0.0
H154 H 0.5231 0.87685 0.17502 0.0
H155 H 0.59823 0.85241 0.01404 0.0
C156 C 0.2316 0.4211 0.50449 0.0
C157 C 0.20441 0.41185 0.46834 0.0
C158 C 0.25686 0.41988 0.45496 0.0
C159 C 0.25469 0.40895 0.36997 0.0
C160 C 0.23027 0.39188 0.34259 0.0
C161 C 0.20471 0.39378 0.39159 0.0
C162 C 0.26965 0.42429 0.31171 0.0
C163 C 0.29787 0.43551 0.32953 0.0
C164 C 0.30786 0.45782 0.29448 0.0
C165 C 0.28953 0.46802 0.23532 0.0
C166 C 0.26187 0.45499 0.21072 0.0
C167 C 0.25248 0.4336 0.25071 0.0
C168 C 0.24057 0.46308 0.14763 0.0
C169 C 0.22915 0.49038 0.153 0.0
C170 C 0.22675 0.44172 0.09148 0.0
C171 C 0.20127 0.44686 0.04709 0.0
C172 C 0.18903 0.47391 0.05346 0.0
C173 C 0.33616 0.47085 0.33008 0.0
C174 C 0.33481 0.49418 0.39449 0.0
C175 C 0.36278 0.45495 0.32011 0.0
C176 C 0.38654 0.46104 0.37603 0.0
C177 C 0.38431 0.48303 0.44447 0.0
C178 C 0.35858 0.50025 0.45067 0.0
C179 C 0.20387 0.49574 0.10628 0.0
H180 H 0.23206 0.4343 0.56505 0.0
H181 H 0.27576 0.43214 0.48012 0.0
H182 H 0.2287 0.38167 0.2786 0.0
H183 H 0.18405 0.38559 0.36364 0.0
H184 H 0.31126 0.42837 0.37655 0.0
H185 H 0.2302 0.42567 0.2383 0.0
H186 H 0.29678 0.48546 0.20857 0.0
H187 H 0.23871 0.50735 0.19642 0.0
H188 H 0.23456 0.42034 0.08586 0.0
H189 H 0.19038 0.42903 1.01107 0.0
H190 H 0.31442 0.50642 0.40544 0.0
H191 H 0.36427 0.43637 0.27271 0.0
H192 H 0.19552 0.51695 0.11329 0.0
H193 H 0.35624 0.51781 0.50111 0.0
H194 H 0.40587 0.44729 0.36873 0.0
C195 C 0.94841 0.1993 0.43401 0.0
C196 C 0.96273 0.17394 0.43916 0.0
C197 C 0.96326 0.21934 0.39898 0.0
C198 C 0.99252 0.21409 0.36954 0.0
C199 C 1.00729 0.18948 0.38 0.0
C200 C 0.99253 0.1696 0.41442 0.0
C201 C 1.00678 0.23223 0.31922 0.0
C202 C 1.00969 0.26083 0.34717 0.0
C203 C 0.0245 0.27754 0.29911 0.0
C204 C 0.03658 0.26484 0.22149 0.0
C205 C 0.03307 0.23591 0.19307 0.0
C206 C 1.01813 0.22015 0.24225 0.0
C207 C 0.04409 0.2201 0.11318 0.0
C208 C 0.02375 0.21434 0.04762 0.0
C209 C 0.06817 0.20154 0.11531 0.0
C210 C 0.06957 0.17602 0.0601 0.0
C211 C 0.04715 0.1687 1.00053 0.0
C212 C 0.02726 0.30788 0.33383 0.0
C213 C 1.00255 0.32254 0.37325 0.0
C214 C 0.05492 0.32127 0.33917 0.0
C215 C 0.0581 0.34794 0.38809 0.0
C216 C 0.03374 0.36159 0.43314 0.0
C217 C 1.00576 0.34881 0.42255 0.0
C218 C 0.02528 0.18892 0.99177 0.0
H219 H 0.92553 0.20311 0.45407 0.0
H220 H 0.9515 0.23822 0.39129 0.0
H221 H 0.03002 0.18521 0.35887 0.0
H222 H 1.00423 0.15048 0.42019 0.0
H223 H 1.00115 0.26992 0.40778 0.0
H224 H 1.01529 0.19796 0.21999 0.0
H225 H 0.04815 0.27722 0.1837 0.0
H226 H 1.00457 0.22792 0.04557 0.0
H227 H 0.08366 0.20505 0.16654 0.0
H228 H 0.0865 0.16098 0.06998 0.0
H229 H 0.98082 0.31301 0.36947 0.0
H230 H 0.07438 0.31055 0.30935 0.0
H231 H 1.00788 0.18416 0.94595 0.0
H232 H 0.98641 0.35842 0.45592 0.0
H233 H 0.0798 0.35748 0.39235 0.0
C234 C 0.32577 0.07348 0.53122 0.0
C235 C 0.34911 0.08454 0.49125 0.0
C236 C 0.29786 0.06995 0.494 0.0
C237 C 0.29322 0.07757 0.41678 0.0
C238 C 0.31399 0.09525 0.38954 0.0
C239 C 0.34204 0.09869 0.42677 0.0
C240 C 0.27441 0.05918 0.35587 0.0
C241 C 0.24777 0.04849 0.38022 0.0
C242 C 0.23523 0.02419 0.33447 0.0
C243 C 0.24968 0.01083 0.26026 0.0
C244 C 0.27598 0.02243 0.23285 0.0
C245 C 0.28741 0.04669 0.28065 0.0
C246 C 0.29525 0.00903 0.16161 0.0
C247 C 0.31703 0.98913 0.1736 0.0
C248 C 0.29899 0.02268 0.09417 0.0
C249 C 0.32431 0.01763 0.04287 0.0
C250 C 0.347 0.99888 0.0576 0.0
C251 C 0.20921 0.01239 0.37326 0.0
C252 C 0.21274 0.00558 0.4521 0.0
C253 C 0.18007 0.0135 0.34227 0.0
C254 C 0.15516 0.00904 0.39046 0.0
C255 C 0.15871 0.00361 0.47131 0.0
C256 C 0.18804 1.00124 0.50006 0.0
C257 C 0.34245 0.98414 0.12251 0.0
H258 H 0.33022 0.06313 0.58279 0.0
H259 H 0.28211 0.05702 0.51866 0.0
H260 H 0.31044 0.10255 0.33207 0.0
H261 H 0.3594 0.10844 0.397 0.0
H262 H 0.23776 0.05809 0.43857 0.0
H263 H 0.30859 0.05416 0.26262 0.0
H264 H 0.24118 0.99144 0.22604 0.0
H265 H 0.3156 0.97902 0.22663 0.0
H266 H 0.2834 0.03897 0.08505 0.0
H267 H 0.32703 0.02996 0.99524 0.0
H268 H 0.23479 0.00504 0.47863 0.0
H269 H 0.17646 0.01916 0.28252 0.0
H270 H 0.35926 0.96952 0.13618 0.0
H271 H 0.19202 0.99728 0.56165 0.0
H272 H 0.13311 0.01034 0.36473 0.0
C273 C 0.44256 0.28548 0.27586 0.0
C274 C 0.46173 0.2869 0.20949 0.0
C275 C 0.44806 0.2662 0.3275 0.0
C276 C 0.47278 0.248 0.31373 0.0
C277 C 0.49034 0.24769 0.24328 0.0
C278 C 0.48482 0.26692 0.19149 0.0
C279 C 0.48598 0.23774 0.38474 0.0
C280 C 0.48045 0.21123 0.40334 0.0
C281 C 0.49364 0.20354 0.47393 0.0
C282 C 0.51135 0.22284 0.52638 0.0
C283 C 0.51667 0.24912 0.50761 0.0
C284 C 0.50429 0.25621 0.43656 0.0
C285 C 0.53218 0.27095 0.5651 0.0
C286 C 0.55801 0.2828 0.53951 0.0
C287 C 0.5173 0.28431 0.63634 0.0
C288 C 0.52629 0.3106 0.67652 0.0
C289 C 0.5505 0.3238 0.64644 0.0
C290 C 0.48971 0.17551 0.49449 0.0
C291 C 0.46162 0.16648 0.5153 0.0
C292 C 0.51496 0.15901 0.50286 0.0
C293 C 0.51245 0.13446 0.53414 0.0
C294 C 0.48467 0.12602 0.55898 0.0
C295 C 0.45913 0.14196 0.54785 0.0
C296 C 0.5674 0.30887 0.58074 0.0
H297 H 0.4249 0.30082 0.29235 0.0
H298 H 0.43479 0.26741 0.38289 0.0
H299 H 0.50999 0.23439 0.23267 0.0
H300 H 0.49987 0.26739 0.14054 0.0
H301 H 0.46643 0.19673 0.36315 0.0
H302 H 0.50803 0.27684 0.42301 0.0
H303 H 0.52075 0.2175 0.58214 0.0
H304 H 0.5697 0.27276 0.48432 0.0
H305 H 0.49708 0.27565 0.65626 0.0
H306 H 0.51272 0.32148 0.72689 0.0
H307 H 0.44187 0.17902 0.50996 0.0
H308 H 0.53685 0.16561 0.48749 0.0
H309 H 0.58673 0.31807 0.55789 0.0
H310 H 0.43741 0.13575 0.56584 0.0
H311 H 0.5325 0.12267 0.54232 0.0
Tb312 Tb 0.99663 0.99889 0.77891 0.0
Tb313 Tb 0.05129 0.98966 0.89784 0.0
C314 C 0.98466 0.98987 0.95873 0.0
C315 C 0.94563 0.0343 0.65804 0.0
C316 C 0.93453 0.08161 0.588 0.0
C317 C 0.9186 0.05701 0.56089 0.0
C318 C 0.92417 0.0334 0.59584 0.0
C319 C 0.96081 0.05909 0.68681 0.0
C320 C 0.95523 0.08256 0.65233 0.0
C321 C 0.95323 0.00937 0.69151 0.0
O322 O 1.00617 0.03946 0.85522 0.0
O323 O 0.05539 0.03253 0.88068 0.0
O324 O 0.07038 0.98358 0.77372 0.0
O325 O 0.03654 0.00869 0.71264 0.0
O326 O 0.07335 1.00053 1.01174 0.0
O327 O 0.09096 0.96846 0.91566 0.0
O328 O 0.03007 0.94905 0.8673 0.0
O329 O 1.00743 0.95461 0.74674 0.0
O330 O 0.97689 0.98245 0.88109 0.0
O331 O 1.01166 0.99915 0.97757 0.0
C332 C 0.03271 0.04939 0.87624 0.0
O333 O 0.97732 0.99611 0.66146 0.0
O334 O 0.95252 0.01278 0.77167 0.0
C335 C 0.06298 0.99662 0.71347 0.0
C336 C 0.09043 0.95828 0.04765 0.0
C337 C 0.07587 0.90896 0.10137 0.0
C338 C 0.1025 0.91044 0.05828 0.0
C339 C 0.10978 0.93505 0.03161 0.0
C340 C 0.06561 0.95762 0.09904 0.0
C341 C 0.05846 0.93313 0.12585 0.0
C342 C 0.09156 0.97918 0.99401 0.0
C343 C 1.01734 0.93849 0.79683 0.0
H344 H 0.90249 0.05586 0.51148 0.0
H345 H 0.91226 0.01437 0.57316 0.0
H346 H 0.97757 0.06008 0.73452 0.0
H347 H 0.96817 0.10109 0.6734 0.0
H348 H 0.11636 0.89201 0.03954 0.0
H349 H 0.12896 0.93507 0.99186 0.0
H350 H 0.05023 0.97516 0.11274 0.0
H351 H 0.03819 0.93252 0.16099 0.0
Tb352 Tb 0.50877 0.97254 0.74433 0.0
Tb353 Tb 0.52871 0.02024 0.89507 0.0
C354 C 0.5359 0.95625 0.90466 0.0
C355 C 0.46748 0.95722 0.5651 0.0
C356 C 0.43609 0.00284 0.52299 0.0
C357 C 0.42246 0.98567 0.57104 0.0
C358 C 0.43783 0.96284 0.59104 0.0
C359 C 0.47958 0.97237 0.50826 0.0
C360 C 0.46404 0.99516 0.48777 0.0
C361 C 0.48783 0.94373 0.61717 0.0
O362 O 0.46762 0.98959 0.80933 0.0
O363 O 0.48718 0.00473 0.9372 0.0
O364 O 0.49777 0.03931 0.81865 0.0
O365 O 0.51049 0.01133 0.69898 0.0
O366 O 0.54531 0.03473 0.01462 0.0
O367 O 0.53138 0.06334 0.93673 0.0
O368 O 0.56581 0.01595 0.80608 0.0
O369 O 0.55754 0.9713 0.73825 0.0
O370 O 0.51786 0.94936 0.84163 0.0
O371 O 0.54689 0.98149 0.92525 0.0
C372 C 0.46413 0.99666 0.88999 0.0
O373 O 0.51508 0.95271 0.62088 0.0
O374 O 0.47792 0.94239 0.69066 0.0
C375 C 0.49947 0.03488 0.73815 0.0
C376 C 0.57209 0.07618 0.02365 0.0
C377 C 0.62769 0.10071 0.06273 0.0
C378 C 0.60665 0.09976 0.12509 0.0
C379 C 0.57901 0.08756 0.1056 0.0
C380 C 0.5923 0.07865 0.9606 0.0
C381 C 0.61984 0.09108 0.98 0.0
C382 C 0.54448 0.06062 1.00517 0.0
C383 C 0.5749 0.99318 0.75544 0.0
H384 H 0.40041 0.99074 0.59647 0.0
H385 H 0.42756 0.95144 0.63381 0.0
H386 H 0.50226 0.96849 0.48638 0.0
H387 H 0.47467 0.00785 0.44913 0.0
H388 H 0.61229 0.10675 0.18942 0.0
H389 H 0.56357 0.08592 0.15483 0.0
H390 H 0.58728 0.07008 0.89675 0.0
H391 H 0.63563 0.09176 0.93087 0.0
Tb392 Tb 0.49799 0.48373 0.88072 0.0
Tb393 Tb 0.54464 0.50543 0.7516 0.0
C394 C 0.47789 0.49168 0.70173 0.0
C395 C 0.46159 0.43869 1.00726 0.0
C396 C 0.45983 0.38813 0.06749 0.0
C397 C 0.439 0.40969 0.09478 0.0
C398 C 0.43984 0.43472 0.06467 0.0
C399 C 0.48259 0.41739 0.98055 0.0
C400 C 0.48172 0.39237 1.01031 0.0
C401 C 0.46196 0.46467 0.97369 0.0
O402 O 0.51667 0.44647 0.80492 0.0
O403 O 0.5576 0.46201 0.74179 0.0
O404 O 0.56739 0.50902 0.87137 0.0
O405 O 0.54181 0.47821 0.93379 0.0
O406 O 0.58073 0.53148 0.74234 0.0
O407 O 0.55952 0.50943 0.63316 0.0
O408 O 0.51298 0.53856 0.79532 0.0
O409 O 0.50351 0.52839 0.9219 0.0
O410 O 0.47113 0.4958 0.78093 0.0
O411 O 0.50591 0.48942 0.67765 0.0
C412 C 0.54155 0.44204 0.76238 0.0
O413 O 0.48298 0.48216 1.00073 0.0
O414 O 0.45919 0.46148 0.8939 0.0
C415 C 0.56531 0.49365 0.92898 0.0
C416 C 0.57725 0.55482 0.63098 0.0
C417 C 0.57681 0.60768 0.58417 0.0
C418 C 0.60244 0.59048 0.57269 0.0
C419 C 0.60267 0.56434 0.59619 0.0
C420 C 0.55142 0.57165 0.64113 0.0
C421 C 0.55117 0.59782 0.61774 0.0
C422 C 0.57869 0.52851 0.6626 0.0
C423 C 0.50613 0.54662 0.87305 0.0
H424 H 0.42232 0.40738 0.14027 0.0
H425 H 0.4235 0.45096 0.08622 0.0
H426 H 0.49956 0.42007 0.93624 0.0
H427 H 0.49806 0.37621 0.98799 0.0
H428 H 0.6223 0.59719 0.54521 0.0
H429 H 0.62285 0.55169 0.58816 0.0
H430 H 0.53162 0.56472 0.66828 0.0
H431 H 0.53109 0.61056 0.62725 0.0
Tb432 Tb 0.02925 0.51794 0.78854 0.0
Tb433 Tb 1.00534 0.4722 0.88729 0.0
C434 C 0.99942 0.53641 0.95812 0.0
C435 C 0.08082 0.54178 0.6577 0.0
C436 C 0.12306 0.5029 0.57965 0.0
C437 C 0.0987 0.5106 0.53495 0.0
C438 C 0.07793 0.53025 0.57341 0.0
C439 C 0.1074 0.53695 0.69851 0.0
C440 C 0.12825 0.51749 0.65987 0.0
C441 C 0.05355 0.54983 0.7066 0.0
O442 O 0.06362 0.51188 0.87943 0.0
O443 O 0.05391 0.46661 0.88451 0.0
O444 O 1.0116 0.449 0.76286 0.0
O445 O 0.04586 0.47789 0.72024 0.0
O446 O 1.01101 0.4536 0.99166 0.0
O447 O 0.97404 0.44272 0.9096 0.0
O448 O 0.96488 0.49006 0.8402 0.0
O449 O 0.98619 0.5058 0.73244 0.0
O450 O 1.00041 0.54148 0.8829 0.0
O451 O 1.00755 0.51191 0.97265 0.0
C452 C 0.07216 0.48779 0.8971 0.0
O453 O 0.03047 0.53487 0.68061 0.0
O454 O 0.05627 0.55273 0.78649 0.0
C455 C 0.03148 0.4542 0.70968 0.0
C456 C 0.96327 0.45832 0.05087 0.0
C457 C 0.93164 0.50424 0.1398 0.0
C458 C 0.9181 0.48658 0.07362 0.0
C459 C 0.93363 0.46363 0.03004 0.0
C460 C 0.97514 0.47382 0.12426 0.0
C461 C 0.95942 0.49672 0.16833 0.0
C462 C 0.98378 0.44455 0.98507 0.0
C463 C 0.9625 0.49792 0.76814 0.0
H464 H 0.09427 0.49975 0.47277 0.0
H465 H 0.05781 0.53378 0.54017 0.0
H466 H 0.11068 0.54582 0.76307 0.0
H467 H 0.14739 0.51244 0.6947 0.0
H468 H 0.89607 0.49142 0.05284 0.0
H469 H 0.92349 0.45188 0.97497 0.0
H470 H 0.99776 0.47009 0.14286 0.0
H471 H 0.96984 0.50968 0.22087 0.0
C472 C 0.13315 0.98099 0.57899 0.0
C473 C 0.1325 1.00108 0.52739 0.0
C474 C 0.1105 0.97954 0.63714 0.0
C475 C 0.0857 0.99796 0.64688 0.0
H476 H 0.15154 0.96622 0.57496 0.0
H477 H 0.11264 0.96378 0.67527 0.0
S478 S 0.0728 0.05476 0.52827 0.0
N479 N 0.10456 0.04017 0.49127 0.0
N480 N 0.0619 0.037 0.59872 0.0
C481 C 0.08431 0.01781 0.59463 0.0
C482 C 0.10759 0.01945 0.53556 0.0
C483 C 0.49719 0.0763 0.56453 0.0
C484 C 0.48335 0.10157 0.60092 0.0
C485 C 0.50102 0.05449 0.60834 0.0
C486 C 0.49152 0.05715 0.69088 0.0
H487 H 0.50604 0.07372 0.50247 0.0
H488 H 0.51269 0.03583 0.57802 0.0
S489 S 0.45114 0.11813 0.81147 0.0
N490 N 0.45794 0.1273 0.72187 0.0
N491 N 0.46516 0.08631 0.80457 0.0
C492 C 0.47616 0.08177 0.72649 0.0
C493 C 0.47203 0.10394 0.6814 0.0
C494 C 0.43838 0.48483 0.49144 0.0
C495 C 0.40779 0.48658 0.51139 0.0
C496 C 0.46063 0.48673 0.55289 0.0
C497 C 0.45352 0.49026 0.63769 0.0
H498 H 0.44527 0.48201 0.4275 0.0
H499 H 0.48369 0.48524 0.5333 0.0
S500 S 0.37666 0.49473 0.72329 0.0
N501 N 0.37166 0.49115 0.62273 0.0
N502 N 0.41306 0.49489 0.73743 0.0
C503 C 0.42295 0.49197 0.65846 0.0
C504 C 0.40031 0.49012 0.59582 0.0
C505 C 1.01402 0.40833 0.50511 0.0
C506 C 0.03701 0.38795 0.49561 0.0
C507 C 1.01322 0.43044 0.57289 0.0
C508 C 0.0357 0.43352 0.63295 0.0
H509 H 0.99579 0.4066 0.46146 0.0
H510 H 0.99434 0.44477 0.57974 0.0
S511 S 0.10233 0.3882 0.63471 0.0
N512 N 0.08388 0.37371 0.55135 0.0
N513 N 0.08267 0.41607 0.67651 0.0
C514 C 0.05981 0.41467 0.62199 0.0
C515 C 0.06047 0.39177 0.55364 0.0
C516 C 0.93728 0.00926 0.1555 0.0
C517 C 0.91637 0.98751 0.14899 0.0
C518 C 0.9598 0.00947 0.09568 0.0
C519 C 0.96227 0.98821 0.02538 0.0
H520 H 0.93576 0.02685 0.20605 0.0
H521 H 0.97474 0.02699 0.10316 0.0
S522 S 0.91649 0.92445 0.98293 0.0
N523 N 0.90252 0.94233 0.06965 0.0
N524 N 0.94358 0.94356 0.95641 0.0
C525 C 0.94229 0.96593 0.01911 0.0
C526 C 0.91975 0.96538 0.08078 0.0
C527 C 0.52701 0.89374 1.0089 0.0
C528 C 0.55446 0.89191 0.04873 0.0
C529 C 0.52142 0.91461 0.96261 0.0
C530 C 0.54284 0.93483 0.95542 0.0
H531 H 0.50998 0.87843 1.01175 0.0
H532 H 0.5 0.91493 0.93237 0.0
S533 S 0.61796 0.93974 0.0505 0.0
N534 N 0.6032 0.91221 0.07926 0.0
N535 N 0.59241 0.95203 0.9939 0.0
C536 C 0.57015 0.93366 0.99665 0.0
C537 C 0.57606 0.91202 0.04266 0.0
C538 C 0.60723 0.48753 0.1292 0.0
C539 C 0.63606 0.49704 0.11638 0.0
C540 C 0.58478 0.48603 0.06823 0.0
C541 C 0.58987 0.49453 0.99206 0.0
H542 H 0.60202 0.48096 0.18672 0.0
H543 H 0.56309 0.47853 0.08162 0.0
S544 S 0.66132 0.5219 0.92854 0.0
N545 N 0.66817 0.51551 0.02169 0.0
N546 N 0.62638 0.51301 0.90837 0.0
C547 C 0.6186 0.50426 0.97889 0.0
C548 C 0.6415 0.50542 0.04045 0.0
C549 C 0.99407 0.5772 0.17837 0.0
C550 C 0.98254 0.60328 0.16831 0.0
C551 C 0.99845 0.5555 0.11041 0.0
C552 C 0.99188 0.55907 0.02925 0.0
H553 H 1.00031 0.57371 0.23916 0.0
H554 H 1.008 0.53605 0.12164 0.0
S555 S 0.95955 0.62298 0.97014 0.0
N556 N 0.9634 0.63112 0.07125 0.0
N557 N 0.97154 0.59042 0.94384 0.0
C558 C 0.97935 0.58477 0.01873 0.0
C559 C 0.97467 0.6068 0.08808 0.0
C560 C 0.93803 0.15557 0.55256 0.0
C561 C 0.9473 0.1515 0.47 0.0
C562 C 0.93101 0.13275 0.58909 0.0
C563 C 0.93294 0.10531 0.54388 0.0
H564 H 0.93851 0.17617 0.59069 0.0
H565 H 0.92604 0.1364 0.6545 0.0
S566 S 0.9517 0.08449 0.32198 0.0
N567 N 0.95437 0.11879 0.34118 0.0
N568 N 0.94152 0.0758 0.40988 0.0
C569 C 0.93944 0.10135 0.45922 0.0
C570 C 0.94661 0.12453 0.42225 0.0
C571 C 0.3908 0.06942 0.57399 0.0
C572 C 0.37915 0.07193 0.49642 0.0
C573 C 0.4113 0.04815 0.58168 0.0
C574 C 0.42097 0.02894 0.51202 0.0
H575 H 0.38186 0.08221 0.62956 0.0
H576 H 0.41807 0.04552 0.64293 0.0
S577 S 0.40132 0.02926 0.29443 0.0
N578 N 0.38202 0.05551 0.34769 0.0
N579 N 0.42082 0.01591 0.36299 0.0
C580 C 0.41229 0.03317 0.43374 0.0
C581 C 0.39136 0.05471 0.42569 0.0
C582 C 0.5519 0.3653 0.76114 0.0
C583 C 0.55503 0.35411 0.67656 0.0
C584 C 0.5494 0.39411 0.78916 0.0
C585 C 0.55055 0.41278 0.7339 0.0
H586 H 0.54989 0.35164 0.80562 0.0
H587 H 0.54542 0.40179 0.85421 0.0
S588 S 0.56025 0.39477 0.50753 0.0
N589 N 0.56022 0.36443 0.53815 0.0
N590 N 0.55677 0.41863 0.5922 0.0
C591 C 0.55574 0.40219 0.65023 0.0
C592 C 0.55773 0.37281 0.62118 0.0
C593 C 0.16566 0.43467 0.5676 0.0
C594 C 0.17884 0.43104 0.48935 0.0
C595 C 0.14688 0.45765 0.59525 0.0
C596 C 0.14135 0.478 0.54634 0.0
H597 H 0.17082 0.4203 0.60861 0.0
H598 H 0.13713 0.45991 0.65611 0.0
S599 S 0.17132 0.47821 0.33738 0.0
N600 N 0.18504 0.44944 0.36296 0.0
N601 N 0.15042 0.49292 0.41615 0.0
C602 C 0.15381 0.47418 0.46721 0.0
C603 C 0.17247 0.45064 0.43852 0.0
C604 C 0.07016 0.83944 0.16992 0.0
C605 C 0.04106 0.83122 0.14549 0.0
C606 C 0.08175 0.86433 0.15356 0.0
C607 C 0.06445 0.88183 0.11312 0.0
H608 H 0.08349 0.82728 0.20557 0.0
H609 H 0.10386 0.87048 0.17556 0.0
S610 S 0.98894 0.86756 0.0251 0.0
N611 N 0.99671 0.84078 0.07014 0.0
N612 N 1.01826 0.8879 0.04071 0.0
C613 C 0.036 0.8731 0.08436 0.0
C614 C 0.02437 0.84767 0.10017 0.0
C615 C 0.69404 0.13191 0.18551 0.0
C616 C 0.71537 0.11022 0.16715 0.0
C617 C 0.66625 0.13005 0.14605 0.0
C618 C 0.65907 0.10666 0.08609 0.0
H619 H 0.69799 0.14943 0.23492 0.0
H620 H 0.64959 0.14612 0.16627 0.0
S621 S 0.70795 0.04564 1.00861 0.0
N622 N 0.72795 0.06561 0.07934 0.0
N623 N 0.67621 0.0627 1.00457 0.0
C624 C 0.68113 0.08618 0.06151 0.0
C625 C 0.70922 0.08784 0.10208 0.0
C626 C 0.51088 0.62431 0.879 0.0
C627 C 0.51974 0.63421 0.96052 0.0
C628 C 0.50439 0.59606 0.85247 0.0
C629 C 0.50639 0.5769 0.90681 0.0
H630 H 0.51046 0.63813 0.83461 0.0
H631 H 0.499 0.58899 0.78802 0.0
S632 S 0.52517 0.59385 0.12958 0.0
N633 N 0.52754 0.62383 0.0974 0.0
N634 N 0.51527 0.57074 0.0481 0.0
C635 C 0.5132 0.58715 0.99005 0.0
C636 C 0.52 0.61582 0.0167 0.0
C637 C 0.88763 0.55634 0.2912 0.0
C638 C 0.87441 0.57309 0.23937 0.0
C639 C 0.90843 0.53539 0.26037 0.0
C640 C 0.91663 0.53064 0.17699 0.0
H641 H 0.87947 0.55718 0.35339 0.0
H642 H 0.91597 0.52129 0.29999 0.0
S643 S 0.8953 0.57372 0.02265 0.0
N644 N 0.876 0.58733 0.10594 0.0
N645 N 0.91521 0.54783 0.0478 0.0
C646 C 0.90678 0.54958 0.12771 0.0
C647 C 0.8857 0.57095 0.15912 0.0
C648 C 1.01566 0.12631 0.95645 0.0
C649 C 0.04377 0.13896 0.95826 0.0
C650 C 1.01218 0.0976 0.92749 0.0
C651 C 0.03672 0.08012 0.8999 0.0
H652 H 0.99623 0.13845 0.98086 0.0
H653 H 0.9902 0.08891 0.92969 0.0
S654 S 0.11444 0.1032 0.88096 0.0
N655 N 0.09607 0.13203 0.92134 0.0
N656 N 0.08971 0.07805 0.86873 0.0
C657 C 0.06475 0.09261 0.89796 0.0
C658 C 0.06824 0.12195 0.92671 0.0
C659 C 0.40355 0.99739 0.05497 0.0
C660 C 0.37641 0.99682 1.01143 0.0
C661 C 0.43139 0.99735 0.01532 0.0
C662 C 0.43379 0.99629 0.92944 0.0
H663 H 0.40337 0.99847 0.12103 0.0
H664 H 0.45129 0.99812 0.05285 0.0
S665 S 0.36979 0.99284 0.78476 0.0
N666 N 0.35404 0.99407 0.87583 0.0
N667 N 0.40607 0.99374 0.80155 0.0
C668 C 0.40688 0.99506 0.88451 0.0
C669 C 0.37841 0.99544 0.92523 0.0
C670 C 0.48675 0.32635 0.16023 0.0
C671 C 0.46053 0.31147 0.16753 0.0
C672 C 0.48627 0.35087 0.12734 0.0
C673 C 0.45955 0.36164 0.10037 0.0
H674 H 0.50777 0.31945 0.1824 0.0
H675 H 0.50695 0.36184 0.12482 0.0
S676 S 0.38512 0.32944 0.09962 0.0
N677 N 0.40733 0.30851 0.14091 0.0
N678 N 0.40641 0.35456 0.07865 0.0
C679 C 0.43324 0.34669 0.10569 0.0
C680 C 0.43373 0.32166 0.13932 0.0
C681 C 0.13846 0.49833 0.04696 0.0
C682 C 0.16009 0.4787 1.00922 0.0
C683 C 0.11046 0.50153 1.00983 0.0
C684 C 0.10236 0.48485 0.93409 0.0
H685 H 0.14278 0.51091 0.10695 0.0
H686 H 0.09467 0.51671 0.04193 0.0
S687 S 0.15111 0.43279 0.80366 0.0
N688 N 0.17177 0.44462 0.88515 0.0
N689 N 0.11878 0.4494 0.8199 0.0
C690 C 0.12372 0.46568 0.8947 0.0
C691 C 0.15254 0.46292 0.93097 0.0
C692 C 0.98766 0.86872 0.68672 0.0
C693 C 1.00526 0.84886 0.71768 0.0
C694 C 0.9915 0.89744 0.71371 0.0
C695 C 1.01301 0.90776 0.77339 0.0
H696 H 0.97146 0.86209 0.6386 0.0
H697 H 0.97762 0.91166 0.68653 0.0
S698 S 0.06421 0.86468 0.87695 0.0
N699 N 0.04439 0.84165 0.81396 0.0
N700 N 0.05175 0.89564 0.86452 0.0
C701 C 0.03025 0.88819 0.80687 0.0
C702 C 0.02641 0.85882 0.77894 0.0
C703 C 0.65704 0.00842 0.71617 0.0
C704 C 0.66239 0.99503 0.63351 0.0
C705 C 0.62906 0.00758 0.75497 0.0
C706 C 0.60498 0.9927 0.71425 0.0
H707 H 0.67461 0.01993 0.75175 0.0
H708 H 0.62634 0.01868 0.81782 0.0
S709 S 0.60584 0.95456 0.4974 0.0
N710 N 0.63977 0.96714 0.51189 0.0
N711 N 0.58824 0.96445 0.58597 0.0
C712 C 0.60999 0.97872 0.6325 0.0
C713 C 0.63829 0.98008 0.59214 0.0
C714 C 0.55335 0.66835 0.48179 0.0
C715 C 0.57669 0.68744 0.50157 0.0
C716 C 0.55325 0.64297 0.51019 0.0
C717 C 0.57657 0.63553 0.55928 0.0
H718 H 0.5355 0.67254 0.44131 0.0
H719 H 0.53525 0.62866 0.49125 0.0
S720 S 0.6412 0.67938 0.63646 0.0
N721 N 0.62252 0.69803 0.57891 0.0
N722 N 0.62238 0.65032 0.63223 0.0
C723 C 0.59951 0.65481 0.58201 0.0
C724 C 0.59957 0.68072 0.5532 0.0
C725 C 0.87779 0.49529 0.72644 0.0
C726 C 0.87548 0.49688 0.64196 0.0
C727 C 0.90573 0.49537 0.76663 0.0
C728 C 0.93275 0.49759 0.72471 0.0
H729 H 0.85778 0.4938 0.76183 0.0
H730 H 0.90608 0.49399 0.83142 0.0
S731 S 0.93911 0.50336 0.50339 0.0
N732 N 0.90296 0.50145 0.51862 0.0
N733 N 0.95489 0.50158 0.59275 0.0
C734 C 0.93065 0.49937 0.64023 0.0
C735 C 0.9023 0.49901 0.59938 0.0
loop_
_geom_bond_atom_site_label_1
_geom_bond_atom_site_label_2
_geom_bond_distance
_geom_bond_site_symmetry_2
_ccdc_geom_bond_type
C0 C1 1.386 . S
C0 C2 1.397 . S
C0 H24 0.931 . S
C1 C0 1.386 . S
C1 C5 1.397 . S
C2 C0 1.397 . S
C2 C3 1.384 . S
C2 H25 0.930 . S
C3 C2 1.384 . S
C3 C4 1.377 . S
C3 C6 1.481 . S
C4 C3 1.377 . S
C4 C5 1.389 . S
C4 H26 0.929 . S
C5 C1 1.397 . S
C5 C4 1.389 . S
C5 H27 0.931 . S
C6 C3 1.481 . S
C6 C7 1.387 . S
C6 C11 1.390 . S
C7 C6 1.387 . S
C7 C8 1.401 . S
C7 H28 0.930 . S
C8 C7 1.401 . S
C8 C9 1.376 . S
C8 C17 1.511 . S
C9 C8 1.376 . S
C9 C10 1.392 . S
C9 H30 0.931 . S
C10 C9 1.392 . S
C10 C11 1.361 . S
C10 C12 1.500 . S
C11 C6 1.390 . S
C11 C10 1.361 . S
C11 H29 0.931 . S
C12 C10 1.500 . S
C12 C13 1.371 . S
C12 C14 1.365 . S
C13 C12 1.371 . S
C13 C23 1.386 . S
C13 H31 0.931 . S
C14 C12 1.365 . S
C14 C15 1.409 . S
C14 H32 0.929 . S
C15 C14 1.409 . S
C15 C16 1.380 . S
C15 H33 0.930 . S
C16 C15 1.380 . S
C16 C23 1.357 . S
C17 C8 1.511 . S
C17 C18 1.341 . S
C17 C19 1.371 . S
C18 C17 1.341 . S
C18 C22 1.394 . S
C18 H34 0.930 . S
C19 C17 1.371 . S
C19 C20 1.392 . S
C19 H35 0.931 . S
C20 C19 1.392 . S
C20 C21 1.331 . S
C20 H38 0.932 . S
C21 C20 1.331 . S
C21 C22 1.336 . S
C22 C18 1.394 . S
C22 C21 1.336 . S
C22 H37 0.929 . S
C23 C13 1.386 . S
C23 C16 1.357 . S
C23 H36 0.928 . S
H24 C0 0.931 . S
H25 C2 0.930 . S
H26 C4 0.929 . S
H27 C5 0.931 . S
H28 C7 0.930 . S
H29 C11 0.931 . S
H30 C9 0.931 . S
H31 C13 0.931 . S
H32 C14 0.929 . S
H33 C15 0.930 . S
H34 C18 0.930 . S
H35 C19 0.931 . S
H36 C23 0.928 . S
H37 C22 0.929 . S
H38 C20 0.932 . S
C39 C40 1.395 . S
C39 C41 1.397 . S
C39 H63 0.931 . S
C40 C39 1.395 . S
C40 C44 1.389 1_655 S
C41 C39 1.397 . S
C41 C42 1.389 . S
C41 H64 0.930 . S
C42 C41 1.389 . S
C42 C43 1.372 1_655 S
C42 C45 1.480 . S
C43 C42 1.372 1_455 S
C43 C44 1.389 . S
C43 H65 0.929 . S
C44 C40 1.389 1_455 S
C44 C43 1.389 . S
C44 H66 0.931 . S
C45 C42 1.480 . S
C45 C46 1.389 . S
C45 C50 1.390 . S
C46 C45 1.389 . S
C46 C47 1.402 . S
C46 H67 0.930 . S
C47 C46 1.402 . S
C47 C48 1.377 . S
C47 C56 1.513 . S
C48 C47 1.377 . S
C48 C49 1.392 . S
C48 H69 0.931 . S
C49 C48 1.392 . S
C49 C50 1.361 . S
C49 C51 1.499 1_655 S
C50 C45 1.390 . S
C50 C49 1.361 . S
C50 H68 0.931 . S
C51 C49 1.499 1_455 S
C51 C52 1.361 1_455 S
C51 C53 1.376 . S
C52 C51 1.361 1_655 S
C52 C62 1.386 . S
C52 H70 0.931 . S
C53 C51 1.376 . S
C53 C54 1.409 . S
C53 H71 0.929 . S
C54 C53 1.409 . S
C54 C55 1.380 . S
C54 H72 0.930 . S
C55 C54 1.380 . S
C55 C62 1.357 1_455 S
C56 C47 1.513 . S
C56 C57 1.341 . S
C56 C58 1.371 1_655 S
C57 C56 1.341 . S
C57 C61 1.394 . S
C57 H73 0.930 . S
C58 C56 1.371 1_455 S
C58 C59 1.392 . S
C58 H74 0.931 . S
C59 C58 1.392 . S
C59 C60 1.322 1_455 S
C59 H77 0.932 . S
C60 C59 1.322 1_655 S
C60 C61 1.345 . S
C61 C57 1.394 . S
C61 C60 1.345 . S
C61 H76 0.929 . S
C62 C52 1.386 . S
C62 C55 1.357 1_655 S
C62 H75 0.928 . S
H63 C39 0.931 . S
H64 C41 0.930 . S
H65 C43 0.929 . S
H66 C44 0.931 . S
H67 C46 0.930 . S
H68 C50 0.931 . S
H69 C48 0.931 . S
H70 C52 0.931 . S
H71 C53 0.929 . S
H72 C54 0.930 . S
H73 C57 0.930 . S
H74 C58 0.931 . S
H75 C62 0.928 . S
H76 C61 0.929 . S
H77 C59 0.932 . S
C78 C79 1.394 . S
C78 C80 1.397 . S
C78 H102 0.931 . S
C79 C78 1.394 . S
C79 C83 1.391 1_565 S
C80 C78 1.397 . S
C80 C81 1.387 . S
C80 H103 0.930 . S
C81 C80 1.387 . S
C81 C82 1.373 1_565 S
C81 C84 1.477 . S
C82 C81 1.373 1_545 S
C82 C83 1.389 . S
C82 H104 0.929 . S
C83 C79 1.391 1_545 S
C83 C82 1.389 . S
C83 H105 0.931 . S
C84 C81 1.477 . S
C84 C85 1.387 . S
C84 C89 1.394 . S
C85 C84 1.387 . S
C85 C86 1.398 . S
C85 H106 0.930 . S
C86 C85 1.398 . S
C86 C87 1.383 . S
C86 C95 1.511 . S
C87 C86 1.383 . S
C87 C88 1.392 . S
C87 H108 0.931 . S
C88 C87 1.392 . S
C88 C89 1.362 . S
C88 C90 1.504 1_565 S
C89 C84 1.394 . S
C89 C88 1.362 . S
C89 H107 0.931 . S
C90 C88 1.504 1_545 S
C90 C91 1.358 1_545 S
C90 C92 1.374 . S
C91 C90 1.358 1_565 S
C91 C101 1.386 . S
C91 H109 0.931 . S
C92 C90 1.374 . S
C92 C93 1.409 . S
C92 H110 0.929 . S
C93 C92 1.409 . S
C93 C94 1.380 . S
C93 H111 0.930 . S
C94 C93 1.380 . S
C94 C101 1.357 1_545 S
C95 C86 1.511 . S
C95 C96 1.341 . S
C95 C97 1.371 1_565 S
C96 C95 1.341 . S
C96 C100 1.394 . S
C96 H112 0.930 . S
C97 C95 1.371 1_545 S
C97 C98 1.392 . S
C97 H113 0.931 . S
C98 C97 1.392 . S
C98 C99 1.328 1_545 S
C98 H116 0.932 . S
C99 C98 1.328 1_565 S
C99 C100 1.342 . S
C100 C96 1.394 . S
C100 C99 1.342 . S
C100 H115 0.929 . S
C101 C91 1.386 . S
C101 C94 1.357 1_565 S
C101 H114 0.928 . S
H102 C78 0.931 . S
H103 C80 0.930 . S
H104 C82 0.929 . S
H105 C83 0.931 . S
H106 C85 0.930 . S
H107 C89 0.931 . S
H108 C87 0.931 . S
H109 C91 0.931 . S
H110 C92 0.929 . S
H111 C93 0.930 . S
H112 C96 0.930 . S
H113 C97 0.931 . S
H114 C101 0.928 . S
H115 C100 0.929 . S
H116 C98 0.932 . S
C117 C118 1.386 . S
C117 C119 1.397 . S
C117 H141 0.931 . S
C118 C117 1.386 . S
C118 C122 1.397 . S
C119 C117 1.397 . S
C119 C120 1.384 . S
C119 H142 0.930 . S
C120 C119 1.384 . S
C120 C121 1.377 . S
C120 C123 1.481 . S
C121 C120 1.377 . S
C121 C122 1.389 . S
C121 H143 0.929 . S
C122 C118 1.397 . S
C122 C121 1.389 . S
C122 H144 0.931 . S
C123 C120 1.481 . S
C123 C124 1.387 . S
C123 C128 1.390 . S
C124 C123 1.387 . S
C124 C125 1.401 1_554 S
C124 H145 0.930 . S
C125 C124 1.401 1_556 S
C125 C126 1.376 . S
C125 C134 1.511 . S
C126 C125 1.376 . S
C126 C127 1.392 . S
C126 H147 0.931 . S
C127 C126 1.392 . S
C127 C128 1.361 1_556 S
C127 C129 1.500 . S
C128 C123 1.390 . S
C128 C127 1.361 1_554 S
C128 H146 0.931 . S
C129 C127 1.500 . S
C129 C130 1.371 . S
C129 C131 1.365 . S
C130 C129 1.371 . S
C130 C140 1.386 . S
C130 H148 0.931 . S
C131 C129 1.365 . S
C131 C132 1.409 . S
C131 H149 0.929 . S
C132 C131 1.409 . S
C132 C133 1.380 . S
C132 H150 0.930 . S
C133 C132 1.380 . S
C133 C140 1.357 . S
C134 C125 1.511 . S
C134 C135 1.341 1_556 S
C134 C136 1.371 . S
C135 C134 1.341 1_554 S
C135 C139 1.394 . S
C135 H151 0.930 . S
C136 C134 1.371 . S
C136 C137 1.392 . S
C136 H152 0.931 . S
C137 C136 1.392 . S
C137 C138 1.331 . S
C137 H155 0.932 . S
C138 C137 1.331 . S
C138 C139 1.336 1_556 S
C139 C135 1.394 . S
C139 C138 1.336 1_554 S
C139 H154 0.929 . S
C140 C130 1.386 . S
C140 C133 1.357 . S
C140 H153 0.928 . S
H141 C117 0.931 . S
H142 C119 0.930 . S
H143 C121 0.929 . S
H144 C122 0.931 . S
H145 C124 0.930 . S
H146 C128 0.931 . S
H147 C126 0.931 . S
H148 C130 0.931 . S
H149 C131 0.929 . S
H150 C132 0.930 . S
H151 C135 0.930 . S
H152 C136 0.931 . S
H153 C140 0.928 . S
H154 C139 0.929 . S
H155 C137 0.932 . S
C156 C157 1.386 . S
C156 C158 1.397 . S
C156 H180 0.931 . S
C157 C156 1.386 . S
C157 C161 1.397 . S
C158 C156 1.397 . S
C158 C159 1.384 . S
C158 H181 0.930 . S
C159 C158 1.384 . S
C159 C160 1.377 . S
C159 C162 1.481 . S
C160 C159 1.377 . S
C160 C161 1.389 . S
C160 H182 0.929 . S
C161 C157 1.397 . S
C161 C160 1.389 . S
C161 H183 0.931 . S
C162 C159 1.481 . S
C162 C163 1.387 . S
C162 C167 1.390 . S
C163 C162 1.387 . S
C163 C164 1.401 . S
C163 H184 0.930 . S
C164 C163 1.401 . S
C164 C165 1.376 . S
C164 C173 1.511 . S
C165 C164 1.376 . S
C165 C166 1.392 . S
C165 H186 0.931 . S
C166 C165 1.392 . S
C166 C167 1.361 . S
C166 C168 1.500 . S
C167 C162 1.390 . S
C167 C166 1.361 . S
C167 H185 0.931 . S
C168 C166 1.500 . S
C168 C169 1.371 1_554 S
C168 C170 1.365 1_554 S
C169 C168 1.371 1_556 S
C169 C179 1.386 . S
C169 H187 0.931 . S
C170 C168 1.365 1_556 S
C170 C171 1.409 . S
C170 H188 0.929 1_556 S
C171 C170 1.409 . S
C171 C172 1.380 . S
C171 H189 0.930 . S
C172 C171 1.380 . S
C172 C179 1.357 . S
C173 C164 1.511 . S
C173 C174 1.341 . S
C173 C175 1.371 . S
C174 C173 1.341 . S
C174 C178 1.394 . S
C174 H190 0.930 . S
C175 C173 1.371 . S
C175 C176 1.392 . S
C175 H191 0.931 . S
C176 C175 1.392 . S
C176 C177 1.331 . S
C176 H194 0.932 . S
C177 C176 1.331 . S
C177 C178 1.336 . S
C178 C174 1.394 . S
C178 C177 1.336 . S
C178 H193 0.929 . S
C179 C169 1.386 . S
C179 C172 1.357 . S
C179 H192 0.928 . S
H180 C156 0.931 . S
H181 C158 0.930 . S
H182 C160 0.929 . S
H183 C161 0.931 . S
H184 C163 0.930 . S
H185 C167 0.931 . S
H186 C165 0.931 . S
H187 C169 0.931 . S
H188 C170 0.929 1_554 S
H189 C171 0.930 . S
H190 C174 0.930 . S
H191 C175 0.931 . S
H192 C179 0.928 . S
H193 C178 0.929 . S
H194 C176 0.932 . S
C195 C196 1.389 . S
C195 C197 1.397 . S
C195 H219 0.931 . S
C196 C195 1.389 . S
C196 C200 1.394 1_655 S
C197 C195 1.397 . S
C197 C198 1.383 . S
C197 H220 0.930 . S
C198 C197 1.383 . S
C198 C199 1.378 1_655 S
C198 C201 1.481 . S
C199 C198 1.378 1_455 S
C199 C200 1.389 . S
C199 H221 0.929 . S
C200 C196 1.394 1_455 S
C200 C199 1.389 . S
C200 H222 0.931 . S
C201 C198 1.481 . S
C201 C202 1.388 . S
C201 C206 1.390 . S
C202 C201 1.388 . S
C202 C203 1.402 . S
C202 H223 0.930 . S
C203 C202 1.402 . S
C203 C204 1.376 . S
C203 C212 1.512 . S
C204 C203 1.376 . S
C204 C205 1.392 1_655 S
C204 H225 0.933 . S
C205 C204 1.392 1_455 S
C205 C206 1.361 1_455 S
C205 C207 1.499 . S
C206 C201 1.390 . S
C206 C205 1.361 1_655 S
C206 H224 0.931 . S
C207 C205 1.499 . S
C207 C208 1.357 1_455 S
C207 C209 1.380 . S
C208 C207 1.357 1_655 S
C208 C218 1.386 1_554 S
C208 H226 0.931 . S
C209 C207 1.380 . S
C209 C210 1.409 1_554 S
C209 H227 0.929 . S
C210 C209 1.409 1_556 S
C210 C211 1.384 . S
C210 H228 0.930 . S
C211 C210 1.384 . S
C211 C218 1.353 1_455 S
C212 C203 1.512 . S
C212 C213 1.341 . S
C212 C214 1.371 1_655 S
C213 C212 1.341 . S
C213 C217 1.394 . S
C213 H229 0.930 . S
C214 C212 1.371 1_455 S
C214 C215 1.392 . S
C214 H230 0.931 . S
C215 C214 1.392 . S
C215 C216 1.325 1_455 S
C215 H233 0.932 . S
C216 C215 1.325 1_655 S
C216 C217 1.343 . S
C217 C213 1.394 . S
C217 C216 1.343 . S
C217 H232 0.929 . S
C218 C208 1.386 1_556 S
C218 C211 1.353 1_655 S
C218 H231 0.928 . S
H219 C195 0.931 . S
H220 C197 0.930 . S
H221 C199 0.929 . S
H222 C200 0.931 . S
H223 C202 0.930 . S
H224 C206 0.931 . S
H225 C204 0.933 . S
H226 C208 0.931 . S
H227 C209 0.929 . S
H228 C210 0.930 . S
H229 C213 0.930 . S
H230 C214 0.931 . S
H231 C218 0.928 . S
H232 C217 0.929 . S
H233 C215 0.932 . S
C234 C235 1.389 . S
C234 C236 1.397 . S
C234 H258 0.931 . S
C235 C234 1.389 . S
C235 C239 1.394 1_565 S
C236 C234 1.397 . S
C236 C237 1.383 . S
C236 H259 0.930 . S
C237 C236 1.383 . S
C237 C238 1.378 1_565 S
C237 C240 1.484 . S
C238 C237 1.378 1_545 S
C238 C239 1.389 . S
C238 H260 0.929 . S
C239 C235 1.394 1_545 S
C239 C238 1.389 . S
C239 H261 0.931 . S
C240 C237 1.484 . S
C240 C241 1.389 . S
C240 C245 1.386 . S
C241 C240 1.389 . S
C241 C242 1.405 . S
C241 H262 0.930 . S
C242 C241 1.405 . S
C242 C243 1.379 . S
C242 C251 1.514 . S
C243 C242 1.379 . S
C243 C244 1.390 1_565 S
C243 H264 0.928 . S
C244 C243 1.390 1_545 S
C244 C245 1.361 1_545 S
C244 C246 1.492 . S
C245 C240 1.386 . S
C245 C244 1.361 1_565 S
C245 H263 0.930 . S
C246 C244 1.492 . S
C246 C247 1.361 1_544 S
C246 C248 1.382 . S
C247 C246 1.361 1_566 S
C247 C257 1.386 . S
C247 H265 0.931 . S
C248 C246 1.382 . S
C248 C249 1.409 1_554 S
C248 H266 0.929 . S
C249 C248 1.409 1_556 S
C249 C250 1.383 . S
C249 H267 0.930 . S
C250 C249 1.383 . S
C250 C257 1.353 1_545 S
C251 C242 1.514 . S
C251 C252 1.341 . S
C251 C253 1.371 1_565 S
C252 C251 1.341 . S
C252 C256 1.394 . S
C252 H268 0.930 . S
C253 C251 1.371 1_545 S
C253 C254 1.392 . S
C253 H269 0.931 . S
C254 C253 1.392 . S
C254 C255 1.321 1_545 S
C254 H272 0.932 . S
C255 C254 1.321 1_565 S
C255 C256 1.345 . S
C256 C252 1.394 . S
C256 C255 1.345 . S
C256 H271 0.929 . S
C257 C247 1.386 . S
C257 C250 1.353 1_565 S
C257 H270 0.928 . S
H258 C234 0.931 . S
H259 C236 0.930 . S
H260 C238 0.929 . S
H261 C239 0.931 . S
H262 C241 0.930 . S
H263 C245 0.930 . S
H264 C243 0.928 . S
H265 C247 0.931 . S
H266 C248 0.929 . S
H267 C249 0.930 . S
H268 C252 0.930 . S
H269 C253 0.931 . S
H270 C257 0.928 . S
H271 C256 0.929 . S
H272 C254 0.932 . S
C273 C274 1.386 . S
C273 C275 1.397 . S
C273 H297 0.931 . S
C274 C273 1.386 . S
C274 C278 1.397 . S
C275 C273 1.397 . S
C275 C276 1.384 . S
C275 H298 0.930 . S
C276 C275 1.384 . S
C276 C277 1.377 . S
C276 C279 1.481 . S
C277 C276 1.377 . S
C277 C278 1.389 . S
C277 H299 0.929 . S
C278 C274 1.397 . S
C278 C277 1.389 . S
C278 H300 0.931 . S
C279 C276 1.481 . S
C279 C280 1.387 . S
C279 C284 1.390 . S
C280 C279 1.387 . S
C280 C281 1.401 . S
C280 H301 0.930 . S
C281 C280 1.401 . S
C281 C282 1.376 . S
C281 C290 1.511 . S
C282 C281 1.376 . S
C282 C283 1.392 . S
C282 H303 0.931 . S
C283 C282 1.392 . S
C283 C284 1.361 . S
C283 C285 1.500 . S
C284 C279 1.390 . S
C284 C283 1.361 . S
C284 H302 0.931 . S
C285 C283 1.500 . S
C285 C286 1.371 . S
C285 C287 1.365 . S
C286 C285 1.371 . S
C286 C296 1.386 . S
C286 H304 0.931 . S
C287 C285 1.365 . S
C287 C288 1.409 . S
C287 H305 0.929 . S
C288 C287 1.409 . S
C288 C289 1.380 . S
C288 H306 0.930 . S
C289 C288 1.380 . S
C289 C296 1.357 . S
C290 C281 1.511 . S
C290 C291 1.341 . S
C290 C292 1.371 . S
C291 C290 1.341 . S
C291 C295 1.394 . S
C291 H307 0.930 . S
C292 C290 1.371 . S
C292 C293 1.392 . S
C292 H308 0.931 . S
C293 C292 1.392 . S
C293 C294 1.331 . S
C293 H311 0.932 . S
C294 C293 1.331 . S
C294 C295 1.336 . S
C295 C291 1.394 . S
C295 C294 1.336 . S
C295 H310 0.929 . S
C296 C286 1.386 . S
C296 C289 1.357 . S
C296 H309 0.928 . S
H297 C273 0.931 . S
H298 C275 0.930 . S
H299 C277 0.929 . S
H300 C278 0.931 . S
H301 C280 0.930 . S
H302 C284 0.931 . S
H303 C282 0.931 . S
H304 C286 0.931 . S
H305 C287 0.929 . S
H306 C288 0.930 . S
H307 C291 0.930 . S
H308 C292 0.931 . S
H309 C296 0.928 . S
H310 C295 0.929 . S
H311 C293 0.932 . S
Tb312 C321 2.764 . S
Tb312 O322 2.325 . S
Tb312 O325 2.303 1_655 S
Tb312 O329 2.322 1_545 S
Tb312 O330 2.349 . S
Tb312 O333 2.415 . S
Tb312 O334 2.399 . S
Tb313 O323 2.322 1_565 S
Tb313 O324 2.349 . S
Tb313 O326 2.415 . S
Tb313 O327 2.399 . S
Tb313 O328 2.325 . S
Tb313 O331 2.303 1_455 S
Tb313 C342 2.764 . S
C314 O330 1.261 . S
C314 O331 1.257 1_545 S
C315 C318 1.358 . S
C315 C319 1.332 . S
C315 C321 1.504 . S
C316 C317 1.373 . S
C316 C320 1.308 . S
C317 C316 1.373 . S
C317 C318 1.429 . S
C317 H344 0.932 . S
C318 C315 1.358 . S
C318 C317 1.429 . S
C318 H345 0.930 . S
C319 C315 1.332 . S
C319 C320 1.394 . S
C319 H346 0.932 1_655 S
C320 C316 1.308 . S
C320 C319 1.394 . S
C320 H347 0.929 . S
C321 Tb312 2.764 . S
C321 C315 1.504 . S
C321 O333 1.239 . S
C321 O334 1.263 . S
O322 Tb312 2.325 . S
O322 C332 1.236 1_655 S
O323 Tb313 2.322 1_545 S
O323 C332 1.257 . S
O324 Tb313 2.349 . S
O324 C335 1.261 . S
O325 Tb312 2.303 1_455 S
O325 C335 1.257 1_545 S
O326 Tb313 2.415 . S
O326 C342 1.239 . S
O327 Tb313 2.399 . S
O327 C342 1.263 . S
O328 Tb313 2.325 . S
O328 C343 1.236 1_455 S
O329 Tb312 2.322 1_565 S
O329 C343 1.257 . S
O330 Tb312 2.349 . S
O330 C314 1.261 . S
O331 Tb313 2.303 1_655 S
O331 C314 1.257 1_565 S
C332 O322 1.236 1_455 S
C332 O323 1.257 . S
O333 Tb312 2.415 . S
O333 C321 1.239 . S
O334 Tb312 2.399 . S
O334 C321 1.263 . S
C335 O324 1.261 . S
C335 O325 1.257 1_565 S
C336 C339 1.356 1_556 S
C336 C340 1.332 1_556 S
C336 C342 1.504 . S
C337 C338 1.373 . S
C337 C341 1.308 . S
C338 C337 1.373 . S
C338 C339 1.438 . S
C338 H348 0.932 . S
C339 C336 1.356 1_554 S
C339 C338 1.438 . S
C339 H349 0.924 1_554 S
C340 C336 1.332 1_554 S
C340 C341 1.394 . S
C340 H350 0.932 1_455 S
C341 C337 1.308 . S
C341 C340 1.394 . S
C341 H351 0.929 . S
C342 Tb313 2.764 . S
C342 O326 1.239 . S
C342 O327 1.263 . S
C342 C336 1.504 . S
C343 O328 1.236 1_655 S
C343 O329 1.257 . S
H344 C317 0.932 . S
H345 C318 0.930 . S
H346 C319 0.932 1_455 S
H347 C320 0.929 . S
H348 C338 0.932 . S
H349 C339 0.924 1_556 S
H350 C340 0.932 1_655 S
H351 C341 0.929 . S
Tb352 C361 2.764 . S
Tb352 O362 2.325 . S
Tb352 O365 2.303 1_565 S
Tb352 O369 2.322 . S
Tb352 O370 2.349 . S
Tb352 O373 2.415 1_565 S
Tb352 O374 2.399 . S
Tb353 O363 2.322 . S
Tb353 O364 2.349 . S
Tb353 O366 2.415 1_545 S
Tb353 O367 2.399 . S
Tb353 O368 2.325 . S
Tb353 O371 2.303 1_545 S
Tb353 C382 2.764 1_556 S
C354 O370 1.261 . S
C354 O371 1.257 . S
C355 C358 1.358 . S
C355 C359 1.306 1_565 S
C355 C361 1.504 . S
C356 C357 1.373 . S
C356 C360 1.308 . S
C357 C356 1.373 . S
C357 C358 1.429 . S
C357 H384 0.932 . S
C358 C355 1.358 . S
C358 C357 1.429 . S
C358 H385 0.930 . S
C359 C355 1.306 1_545 S
C359 C360 1.395 1_545 S
C359 H386 0.958 . S
C360 C356 1.308 . S
C360 C359 1.395 1_565 S
C360 H387 0.929 1_565 S
C361 Tb352 2.764 . S
C361 C355 1.504 . S
C361 O373 1.239 1_565 S
C361 O374 1.263 . S
O362 Tb352 2.325 . S
O362 C372 1.236 1_565 S
O363 Tb353 2.322 . S
O363 C372 1.257 . S
O364 Tb353 2.349 . S
O364 C375 1.261 . S
O365 Tb352 2.303 1_545 S
O365 C375 1.257 . S
O366 Tb353 2.415 1_565 S
O366 C382 1.239 1_566 S
O367 Tb353 2.399 . S
O367 C382 1.263 1_556 S
O368 Tb353 2.325 . S
O368 C383 1.236 1_545 S
O369 Tb352 2.322 . S
O369 C383 1.257 . S
O370 Tb352 2.349 . S
O370 C354 1.261 . S
O371 Tb353 2.303 1_565 S
O371 C354 1.257 . S
C372 O362 1.236 1_545 S
C372 O363 1.257 . S
O373 Tb352 2.415 1_545 S
O373 C361 1.239 1_545 S
O374 Tb352 2.399 . S
O374 C361 1.263 . S
C375 O364 1.261 . S
C375 O365 1.257 . S
C376 C379 1.358 . S
C376 C380 1.314 1_545 S
C376 C382 1.504 . S
C377 C378 1.373 . S
C377 C381 1.308 . S
C378 C377 1.373 . S
C378 C379 1.429 . S
C378 H388 0.932 . S
C379 C376 1.358 . S
C379 C378 1.429 . S
C379 H389 0.930 . S
C380 C376 1.314 1_565 S
C380 C381 1.395 1_565 S
C380 H390 0.950 . S
C381 C377 1.308 . S
C381 C380 1.395 1_545 S
C381 H391 0.929 1_545 S
C382 Tb353 2.764 1_554 S
C382 O366 1.239 1_544 S
C382 O367 1.263 1_554 S
C382 C376 1.504 . S
C383 O368 1.236 1_565 S
C383 O369 1.257 . S
H384 C357 0.932 . S
H385 C358 0.930 . S
H386 C359 0.958 . S
H387 C360 0.929 1_545 S
H388 C378 0.932 . S
H389 C379 0.930 . S
H390 C380 0.950 . S
H391 C381 0.929 1_565 S
Tb392 C401 2.764 1_556 S
Tb392 O402 2.325 . S
Tb392 O405 2.303 . S
Tb392 O409 2.322 . S
Tb392 O410 2.349 . S
Tb392 O413 2.415 1_556 S
Tb392 O414 2.399 . S
Tb393 O403 2.322 . S
Tb393 O404 2.349 . S
Tb393 O406 2.415 . S
Tb393 O407 2.399 . S
Tb393 O408 2.325 . S
Tb393 O411 2.303 . S
Tb393 C422 2.764 . S
C394 O410 1.261 . S
C394 O411 1.257 . S
C395 C398 1.358 . S
C395 C399 1.332 . S
C395 C401 1.504 . S
C396 C397 1.373 . S
C396 C400 1.308 . S
C397 C396 1.373 . S
C397 C398 1.429 . S
C397 H424 0.932 . S
C398 C395 1.358 . S
C398 C397 1.429 . S
C398 H425 0.930 . S
C399 C395 1.332 . S
C399 C400 1.394 . S
C399 H426 0.932 . S
C400 C396 1.308 . S
C400 C399 1.394 . S
C400 H427 0.929 . S
C401 Tb392 2.764 1_554 S
C401 C395 1.504 . S
C401 O413 1.239 . S
C401 O414 1.263 1_554 S
O402 Tb392 2.325 . S
O402 C412 1.236 . S
O403 Tb393 2.322 . S
O403 C412 1.257 . S
O404 Tb393 2.349 . S
O404 C415 1.261 . S
O405 Tb392 2.303 . S
O405 C415 1.257 . S
O406 Tb393 2.415 . S
O406 C422 1.239 . S
O407 Tb393 2.399 . S
O407 C422 1.263 . S
O408 Tb393 2.325 . S
O408 C423 1.236 . S
O409 Tb392 2.322 . S
O409 C423 1.257 . S
O410 Tb392 2.349 . S
O410 C394 1.261 . S
O411 Tb393 2.303 . S
O411 C394 1.257 . S
C412 O402 1.236 . S
C412 O403 1.257 . S
O413 Tb392 2.415 1_554 S
O413 C401 1.239 . S
O414 Tb392 2.399 . S
O414 C401 1.263 1_556 S
C415 O404 1.261 . S
C415 O405 1.257 . S
C416 C419 1.358 . S
C416 C420 1.332 . S
C416 C422 1.504 . S
C417 C418 1.373 . S
C417 C421 1.308 . S
C418 C417 1.373 . S
C418 C419 1.429 . S
C418 H428 0.932 . S
C419 C416 1.358 . S
C419 C418 1.429 . S
C419 H429 0.930 . S
C420 C416 1.332 . S
C420 C421 1.394 . S
C420 H430 0.932 . S
C421 C417 1.308 . S
C421 C420 1.394 . S
C421 H431 0.929 . S
C422 Tb393 2.764 . S
C422 O406 1.239 . S
C422 O407 1.263 . S
C422 C416 1.504 . S
C423 O408 1.236 . S
C423 O409 1.257 . S
H424 C397 0.932 . S
H425 C398 0.930 . S
H426 C399 0.932 . S
H427 C400 0.929 . S
H428 C418 0.932 . S
H429 C419 0.930 . S
H430 C420 0.932 . S
H431 C421 0.929 . S
Tb432 C441 2.764 . S
Tb432 O442 2.325 . S
Tb432 O445 2.303 . S
Tb432 O449 2.322 1_455 S
Tb432 O450 2.349 . S
Tb432 O453 2.415 . S
Tb432 O454 2.399 . S
Tb433 O443 2.322 1_655 S
Tb433 O444 2.349 . S
Tb433 O446 2.415 . S
Tb433 O447 2.399 . S
Tb433 O448 2.325 . S
Tb433 O451 2.303 . S
Tb433 C462 2.764 . S
C434 O450 1.261 . S
C434 O451 1.257 1_455 S
C435 C438 1.358 . S
C435 C439 1.332 . S
C435 C441 1.504 . S
C436 C437 1.373 . S
C436 C440 1.308 . S
C437 C436 1.373 . S
C437 C438 1.429 . S
C437 H464 0.932 . S
C438 C435 1.358 . S
C438 C437 1.429 . S
C438 H465 0.930 . S
C439 C435 1.332 . S
C439 C440 1.394 . S
C439 H466 0.932 . S
C440 C436 1.308 . S
C440 C439 1.394 . S
C440 H467 0.929 . S
C441 Tb432 2.764 . S
C441 C435 1.504 . S
C441 O453 1.239 . S
C441 O454 1.263 . S
O442 Tb432 2.325 . S
O442 C452 1.236 . S
O443 Tb433 2.322 1_455 S
O443 C452 1.257 . S
O444 Tb433 2.349 . S
O444 C455 1.261 . S
O445 Tb432 2.303 . S
O445 C455 1.257 1_455 S
O446 Tb433 2.415 . S
O446 C462 1.239 . S
O447 Tb433 2.399 . S
O447 C462 1.263 . S
O448 Tb433 2.325 . S
O448 C463 1.236 . S
O449 Tb432 2.322 1_655 S
O449 C463 1.257 . S
O450 Tb432 2.349 . S
O450 C434 1.261 . S
O451 Tb433 2.303 . S
O451 C434 1.257 1_655 S
C452 O442 1.236 . S
C452 O443 1.257 . S
O453 Tb432 2.415 . S
O453 C441 1.239 . S
O454 Tb432 2.399 . S
O454 C441 1.263 . S
C455 O444 1.261 . S
C455 O445 1.257 1_655 S
C456 C459 1.358 . S
C456 C460 1.332 . S
C456 C462 1.504 1_554 S
C457 C458 1.373 . S
C457 C461 1.308 . S
C458 C457 1.373 . S
C458 C459 1.429 . S
C458 H468 0.932 . S
C459 C456 1.358 . S
C459 C458 1.429 . S
C459 H469 0.930 1_554 S
C460 C456 1.332 . S
C460 C461 1.394 . S
C460 H470 0.932 . S
C461 C457 1.308 . S
C461 C460 1.394 . S
C461 H471 0.929 . S
C462 Tb433 2.764 . S
C462 O446 1.239 . S
C462 O447 1.263 . S
C462 C456 1.504 1_556 S
C463 O448 1.236 . S
C463 O449 1.257 . S
H464 C437 0.932 . S
H465 C438 0.930 . S
H466 C439 0.932 . S
H467 C440 0.929 . S
H468 C458 0.932 . S
H469 C459 0.930 1_556 S
H470 C460 0.932 . S
H471 C461 0.929 . S
C472 C473 1.369 1_565 S
C472 C474 1.419 . S
C472 H476 0.930 . S
C473 C472 1.369 1_545 S
C473 C482 1.429 . S
C474 C472 1.419 . S
C474 C475 1.363 1_565 S
C474 H477 0.929 . S
C475 C474 1.363 1_545 S
C475 C481 1.428 . S
H476 C472 0.930 . S
H477 C474 0.929 . S
S478 N479 1.613 . S
S478 N480 1.610 . S
N479 S478 1.613 . S
N479 C482 1.350 . S
N480 S478 1.610 . S
N480 C481 1.351 . S
C481 C475 1.428 . S
C481 N480 1.351 . S
C481 C482 1.434 . S
C482 C473 1.429 . S
C482 N479 1.350 . S
C482 C481 1.434 . S
C483 C484 1.369 . S
C483 C485 1.419 . S
C483 H487 0.930 . S
C484 C483 1.369 . S
C484 C493 1.429 . S
C485 C483 1.419 . S
C485 C486 1.363 . S
C485 H488 0.929 . S
C486 C485 1.363 . S
C486 C492 1.428 . S
H487 C483 0.930 . S
H488 C485 0.929 . S
S489 N490 1.613 . S
S489 N491 1.610 . S
N490 S489 1.613 . S
N490 C493 1.350 . S
N491 S489 1.610 . S
N491 C492 1.351 . S
C492 C486 1.428 . S
C492 N491 1.351 . S
C492 C493 1.434 . S
C493 C484 1.429 . S
C493 N490 1.350 . S
C493 C492 1.434 . S
C494 C495 1.369 . S
C494 C496 1.419 . S
C494 H498 0.930 . S
C495 C494 1.369 . S
C495 C504 1.429 . S
C496 C494 1.419 . S
C496 C497 1.363 . S
C496 H499 0.929 . S
C497 C496 1.363 . S
C497 C503 1.428 . S
H498 C494 0.930 . S
H499 C496 0.929 . S
S500 N501 1.613 . S
S500 N502 1.610 . S
N501 S500 1.613 . S
N501 C504 1.350 . S
N502 S500 1.610 . S
N502 C503 1.351 . S
C503 C497 1.428 . S
C503 N502 1.351 . S
C503 C504 1.434 . S
C504 C495 1.429 . S
C504 N501 1.350 . S
C504 C503 1.434 . S
C505 C506 1.343 1_655 S
C505 C507 1.419 . S
C505 H509 0.930 . S
C506 C505 1.343 1_455 S
C506 C515 1.457 . S
C507 C505 1.419 . S
C507 C508 1.363 1_655 S
C507 H510 0.929 . S
C508 C507 1.363 1_455 S
C508 C514 1.428 . S
H509 C505 0.930 . S
H510 C507 0.929 . S
S511 N512 1.613 . S
S511 N513 1.610 . S
N512 S511 1.613 . S
N512 C515 1.350 . S
N513 S511 1.610 . S
N513 C514 1.351 . S
C514 C508 1.428 . S
C514 N513 1.351 . S
C514 C515 1.434 . S
C515 C506 1.457 . S
C515 N512 1.350 . S
C515 C514 1.434 . S
C516 C517 1.369 1_545 S
C516 C518 1.419 . S
C516 H520 0.930 . S
C517 C516 1.369 1_565 S
C517 C526 1.429 . S
C518 C516 1.419 . S
C518 C519 1.363 1_545 S
C518 H521 0.929 . S
C519 C518 1.363 1_565 S
C519 C525 1.428 . S
H520 C516 0.930 . S
H521 C518 0.929 . S
S522 N523 1.613 . S
S522 N524 1.610 . S
N523 S522 1.613 . S
N523 C526 1.350 . S
N524 S522 1.610 . S
N524 C525 1.351 . S
C525 C519 1.428 . S
C525 N524 1.351 . S
C525 C526 1.434 . S
C526 C517 1.429 . S
C526 N523 1.350 . S
C526 C525 1.434 . S
C527 C528 1.369 . S
C527 C529 1.419 . S
C527 H531 0.930 . S
C528 C527 1.369 . S
C528 C537 1.429 . S
C529 C527 1.419 . S
C529 C530 1.363 . S
C529 H532 0.929 . S
C530 C529 1.363 . S
C530 C536 1.428 . S
H531 C527 0.930 . S
H532 C529 0.929 . S
S533 N534 1.613 . S
S533 N535 1.610 . S
N534 S533 1.613 . S
N534 C537 1.350 . S
N535 S533 1.610 . S
N535 C536 1.351 . S
C536 C530 1.428 . S
C536 N535 1.351 . S
C536 C537 1.434 . S
C537 C528 1.429 . S
C537 N534 1.350 . S
C537 C536 1.434 . S
C538 C539 1.369 . S
C538 C540 1.419 . S
C538 H542 0.930 . S
C539 C538 1.369 . S
C539 C548 1.429 . S
C540 C538 1.419 . S
C540 C541 1.363 . S
C540 H543 0.929 . S
C541 C540 1.363 . S
C541 C547 1.428 . S
H542 C538 0.930 . S
H543 C540 0.929 . S
S544 N545 1.613 . S
S544 N546 1.610 . S
N545 S544 1.613 . S
N545 C548 1.350 . S
N546 S544 1.610 . S
N546 C547 1.351 . S
C547 C541 1.428 . S
C547 N546 1.351 . S
C547 C548 1.434 . S
C548 C539 1.429 . S
C548 N545 1.350 . S
C548 C547 1.434 . S
C549 C550 1.377 . S
C549 C551 1.419 . S
C549 H553 0.930 . S
C550 C549 1.377 . S
C550 C559 1.422 1_655 S
C551 C549 1.419 . S
C551 C552 1.363 . S
C551 H554 0.929 . S
C552 C551 1.363 . S
C552 C558 1.428 1_655 S
H553 C549 0.930 . S
H554 C551 0.929 . S
S555 N556 1.613 . S
S555 N557 1.610 . S
N556 S555 1.613 . S
N556 C559 1.350 . S
N557 S555 1.610 . S
N557 C558 1.351 . S
C558 C552 1.428 1_455 S
C558 N557 1.351 . S
C558 C559 1.434 . S
C559 C550 1.422 1_455 S
C559 N556 1.350 . S
C559 C558 1.434 . S
C560 C561 1.369 . S
C560 C562 1.419 . S
C560 H564 0.930 . S
C561 C560 1.369 . S
C561 C570 1.429 . S
C562 C560 1.419 . S
C562 C563 1.363 . S
C562 H565 0.929 . S
C563 C562 1.363 . S
C563 C569 1.428 . S
H564 C560 0.930 . S
H565 C562 0.929 . S
S566 N567 1.613 . S
S566 N568 1.610 1_455 S
N567 S566 1.613 . S
N567 C570 1.350 1_455 S
N568 S566 1.610 1_655 S
N568 C569 1.351 . S
C569 C563 1.428 . S
C569 N568 1.351 . S
C569 C570 1.434 . S
C570 C561 1.429 . S
C570 N567 1.350 1_655 S
C570 C569 1.434 . S
C571 C572 1.369 . S
C571 C573 1.419 1_545 S
C571 H575 0.930 . S
C572 C571 1.369 . S
C572 C581 1.429 1_545 S
C573 C571 1.419 1_565 S
C573 C574 1.363 . S
C573 H576 0.929 . S
C574 C573 1.363 . S
C574 C580 1.428 . S
H575 C571 0.930 . S
H576 C573 0.929 . S
S577 N578 1.613 . S
S577 N579 1.610 . S
N578 S577 1.613 . S
N578 C581 1.350 . S
N579 S577 1.610 . S
N579 C580 1.351 . S
C580 C574 1.428 . S
C580 N579 1.351 . S
C580 C581 1.434 . S
C581 C572 1.429 1_565 S
C581 N578 1.350 . S
C581 C580 1.434 . S
C582 C583 1.369 . S
C582 C584 1.419 . S
C582 H586 0.930 . S
C583 C582 1.369 . S
C583 C592 1.429 . S
C584 C582 1.419 . S
C584 C585 1.363 . S
C584 H587 0.929 . S
C585 C584 1.363 . S
C585 C591 1.428 . S
H586 C582 0.930 . S
H587 C584 0.929 . S
S588 N589 1.613 . S
S588 N590 1.610 . S
N589 S588 1.613 . S
N589 C592 1.350 . S
N590 S588 1.610 . S
N590 C591 1.351 . S
C591 C585 1.428 . S
C591 N590 1.351 . S
C591 C592 1.434 . S
C592 C583 1.429 . S
C592 N589 1.350 . S
C592 C591 1.434 . S
C593 C594 1.369 . S
C593 C595 1.419 . S
C593 H597 0.930 . S
C594 C593 1.369 . S
C594 C603 1.429 . S
C595 C593 1.419 . S
C595 C596 1.363 . S
C595 H598 0.929 . S
C596 C595 1.363 . S
C596 C602 1.428 . S
H597 C593 0.930 . S
H598 C595 0.929 . S
S599 N600 1.613 . S
S599 N601 1.610 . S
N600 S599 1.613 . S
N600 C603 1.350 . S
N601 S599 1.610 . S
N601 C602 1.351 . S
C602 C596 1.428 . S
C602 N601 1.351 . S
C602 C603 1.434 . S
C603 C594 1.429 . S
C603 N600 1.350 . S
C603 C602 1.434 . S
C604 C605 1.369 . S
C604 C606 1.419 . S
C604 H608 0.930 . S
C605 C604 1.369 . S
C605 C614 1.429 . S
C606 C604 1.419 . S
C606 C607 1.363 . S
C606 H609 0.929 . S
C607 C606 1.363 . S
C607 C613 1.428 . S
H608 C604 0.930 . S
H609 C606 0.929 . S
S610 N611 1.613 . S
S610 N612 1.610 . S
N611 S610 1.613 . S
N611 C614 1.350 1_556 S
N612 S610 1.610 . S
N612 C613 1.351 1_556 S
C613 C607 1.428 . S
C613 N612 1.351 1_554 S
C613 C614 1.434 . S
C614 C605 1.429 . S
C614 N611 1.350 1_554 S
C614 C613 1.434 . S
C615 C616 1.369 1_545 S
C615 C617 1.419 . S
C615 H619 0.930 . S
C616 C615 1.369 1_565 S
C616 C625 1.429 . S
C617 C615 1.419 . S
C617 C618 1.363 . S
C617 H620 0.929 . S
C618 C617 1.363 . S
C618 C624 1.428 . S
H619 C615 0.930 . S
H620 C617 0.929 . S
S621 N622 1.613 . S
S621 N623 1.610 . S
N622 S621 1.613 . S
N622 C625 1.350 . S
N623 S621 1.610 . S
N623 C624 1.351 1_565 S
C624 C618 1.428 . S
C624 N623 1.351 1_545 S
C624 C625 1.434 1_545 S
C625 C616 1.429 . S
C625 N622 1.350 . S
C625 C624 1.434 1_565 S
C626 C627 1.369 . S
C626 C628 1.419 . S
C626 H630 0.930 . S
C627 C626 1.369 . S
C627 C636 1.429 . S
C628 C626 1.419 . S
C628 C629 1.363 . S
C628 H631 0.929 . S
C629 C628 1.363 . S
C629 C635 1.428 . S
H630 C626 0.930 . S
H631 C628 0.929 . S
S632 N633 1.613 . S
S632 N634 1.610 . S
N633 S632 1.613 . S
N633 C636 1.350 . S
N634 S632 1.610 . S
N634 C635 1.351 . S
C635 C629 1.428 . S
C635 N634 1.351 . S
C635 C636 1.434 . S
C636 C627 1.429 . S
C636 N633 1.350 . S
C636 C635 1.434 . S
C637 C638 1.369 . S
C637 C639 1.419 . S
C637 H641 0.930 . S
C638 C637 1.369 . S
C638 C647 1.429 . S
C639 C637 1.419 . S
C639 C640 1.363 . S
C639 H642 0.929 . S
C640 C639 1.363 . S
C640 C646 1.428 . S
H641 C637 0.930 . S
H642 C639 0.929 . S
S643 N644 1.613 . S
S643 N645 1.610 . S
N644 S643 1.613 . S
N644 C647 1.350 . S
N645 S643 1.610 . S
N645 C646 1.351 . S
C646 C640 1.428 . S
C646 N645 1.351 . S
C646 C647 1.434 . S
C647 C638 1.429 . S
C647 N644 1.350 . S
C647 C646 1.434 . S
C648 C649 1.367 1_655 S
C648 C650 1.418 1_655 S
C648 H652 0.934 . S
C649 C648 1.367 1_455 S
C649 C658 1.429 . S
C650 C648 1.418 1_455 S
C650 C651 1.363 . S
C650 H653 0.929 1_455 S
C651 C650 1.363 . S
C651 C657 1.428 . S
H652 C648 0.934 . S
H653 C650 0.929 1_655 S
S654 N655 1.613 . S
S654 N656 1.610 . S
N655 S654 1.613 . S
N655 C658 1.350 . S
N656 S654 1.610 . S
N656 C657 1.351 . S
C657 C651 1.428 . S
C657 N656 1.351 . S
C657 C658 1.434 . S
C658 C649 1.429 . S
C658 N655 1.350 . S
C658 C657 1.434 . S
C659 C660 1.369 1_565 S
C659 C661 1.419 . S
C659 H663 0.930 . S
C660 C659 1.369 1_545 S
C660 C669 1.429 . S
C661 C659 1.419 . S
C661 C662 1.363 1_565 S
C661 H664 0.929 . S
C662 C661 1.363 1_545 S
C662 C668 1.428 . S
H663 C659 0.930 . S
H664 C661 0.929 . S
S665 N666 1.613 . S
S665 N667 1.610 . S
N666 S665 1.613 . S
N666 C669 1.350 . S
N667 S665 1.610 . S
N667 C668 1.351 . S
C668 C662 1.428 . S
C668 N667 1.351 . S
C668 C669 1.434 . S
C669 C660 1.429 . S
C669 N666 1.350 . S
C669 C668 1.434 . S
C670 C671 1.369 . S
C670 C672 1.419 . S
C670 H674 0.930 . S
C671 C670 1.369 . S
C671 C680 1.429 . S
C672 C670 1.419 . S
C672 C673 1.363 . S
C672 H675 0.929 . S
C673 C672 1.363 . S
C673 C679 1.428 . S
H674 C670 0.930 . S
H675 C672 0.929 . S
S676 N677 1.613 . S
S676 N678 1.610 . S
N677 S676 1.613 . S
N677 C680 1.350 . S
N678 S676 1.610 . S
N678 C679 1.351 . S
C679 C673 1.428 . S
C679 N678 1.351 . S
C679 C680 1.434 . S
C680 C671 1.429 . S
C680 N677 1.350 . S
C680 C679 1.434 . S
C681 C682 1.369 . S
C681 C683 1.419 . S
C681 H685 0.930 . S
C682 C681 1.369 . S
C682 C691 1.429 . S
C683 C681 1.419 . S
C683 C684 1.363 . S
C683 H686 0.929 . S
C684 C683 1.363 . S
C684 C690 1.428 . S
H685 C681 0.930 . S
H686 C683 0.929 . S
S687 N688 1.613 . S
S687 N689 1.610 . S
N688 S687 1.613 . S
N688 C691 1.350 . S
N689 S687 1.610 . S
N689 C690 1.351 . S
C690 C684 1.428 . S
C690 N689 1.351 . S
C690 C691 1.434 . S
C691 C682 1.429 . S
C691 N688 1.350 . S
C691 C690 1.434 . S
C692 C693 1.369 . S
C692 C694 1.419 . S
C692 H696 0.930 . S
C693 C692 1.369 . S
C693 C702 1.429 1_655 S
C694 C692 1.419 . S
C694 C695 1.363 . S
C694 H697 0.929 . S
C695 C694 1.363 . S
C695 C701 1.428 1_655 S
H696 C692 0.930 . S
H697 C694 0.929 . S
S698 N699 1.613 . S
S698 N700 1.610 . S
N699 S698 1.613 . S
N699 C702 1.350 . S
N700 S698 1.610 . S
N700 C701 1.351 . S
C701 C695 1.428 1_455 S
C701 N700 1.351 . S
C701 C702 1.434 . S
C702 C693 1.429 1_455 S
C702 N699 1.350 . S
C702 C701 1.434 . S
C703 C704 1.369 1_545 S
C703 C705 1.419 . S
C703 H707 0.930 . S
C704 C703 1.369 1_565 S
C704 C713 1.429 . S
C705 C703 1.419 . S
C705 C706 1.363 1_545 S
C705 H708 0.929 . S
C706 C705 1.363 1_565 S
C706 C712 1.428 . S
H707 C703 0.930 . S
H708 C705 0.929 . S
S709 N710 1.613 . S
S709 N711 1.610 . S
N710 S709 1.613 . S
N710 C713 1.350 . S
N711 S709 1.610 . S
N711 C712 1.351 . S
C712 C706 1.428 . S
C712 N711 1.351 . S
C712 C713 1.434 . S
C713 C704 1.429 . S
C713 N710 1.350 . S
C713 C712 1.434 . S
C714 C715 1.369 . S
C714 C716 1.419 . S
C714 H718 0.930 . S
C715 C714 1.369 . S
C715 C724 1.429 . S
C716 C714 1.419 . S
C716 C717 1.363 . S
C716 H719 0.929 . S
C717 C716 1.363 . S
C717 C723 1.428 . S
H718 C714 0.930 . S
H719 C716 0.929 . S
S720 N721 1.613 . S
S720 N722 1.610 . S
N721 S720 1.613 . S
N721 C724 1.350 . S
N722 S720 1.610 . S
N722 C723 1.351 . S
C723 C717 1.428 . S
C723 N722 1.351 . S
C723 C724 1.434 . S
C724 C715 1.429 . S
C724 N721 1.350 . S
C724 C723 1.434 . S
C725 C726 1.369 . S
C725 C727 1.419 . S
C725 H729 0.930 . S
C726 C725 1.369 . S
C726 C735 1.429 . S
C727 C725 1.419 . S
C727 C728 1.363 . S
C727 H730 0.929 . S
C728 C727 1.363 . S
C728 C734 1.428 . S
H729 C725 0.930 . S
H730 C727 0.929 . S
S731 N732 1.613 . S
S731 N733 1.610 . S
N732 S731 1.613 . S
N732 C735 1.350 . S
N733 S731 1.610 . S
N733 C734 1.351 . S
C734 C728 1.428 . S
C734 N733 1.351 . S
C734 C735 1.434 . S
C735 C726 1.429 . S
C735 N732 1.350 . S
C735 C734 1.434 . S
C473 C255 2.618 1_545 S
C475 C335 2.906 1_545 S
C486 C375 1.744 . S
C484 C294 1.687 . S
C497 C394 2.966 . S
C495 C177 2.658 . S
C508 C455 2.204 1_455 S
C506 C216 1.965 1_455 S
C519 C314 2.908 1_564 S
C517 C99 2.611 . S
C528 C138 1.680 . S
C530 C354 1.748 . S
C539 C21 2.670 . S
C541 C415 2.966 1_554 S
C550 C60 1.958 . S
C552 C434 2.207 1_654 S
C563 C316 1.005 . S
C561 C196 1.060 . S
C574 C356 0.615 . S
C572 C235 0.558 1_545 S
C585 C412 1.654 . S
C583 C289 1.375 . S
C594 C157 0.752 . S
C596 C436 0.766 . S
C605 C40 1.070 1_455 S
C607 C337 1.012 . S
C618 C377 0.590 . S
C616 C79 0.578 . S
C629 C423 1.645 . S
C627 C133 1.393 . S
C638 C1 0.753 . S
C640 C457 0.772 . S
C649 C211 2.511 . S
C651 C332 2.924 . S
C660 C250 3.148 . S
C662 C372 3.586 . S
C673 C396 2.103 . S
C671 C274 2.063 . S
C684 C452 3.574 . S
C682 C172 3.134 . S
C693 C55 2.511 1_655 S
C695 C343 2.933 . S
C706 C383 3.589 . S
C704 C94 3.140 1_565 S
C717 C417 2.107 . S
C715 C118 2.061 . S
C726 C16 3.131 . S
C728 C463 3.579 . S
