# Generated by pormake.
# Topology rtl, (3,6)-cn, num edge types: 1
# Building blocks:
#     Node 0, Type 0, BuildingBlock: INOVEN_clean_linker_0, # of connection points: 3
#     Node 1, Type 0, BuildingBlock: INOVEN_clean_linker_0, # of connection points: 3
#     Node 2, Type 0, BuildingBlock: INOVEN_clean_linker_0, # of connection points: 3
#     Node 3, Type 0, BuildingBlock: INOVEN_clean_linker_0, # of connection points: 3
#     Node 4, Type 1, BuildingBlock: LEVNOQ01_clean_sbu_1, # of connection points: 6
#     Node 5, Type 1, BuildingBlock: LEVNOQ01_clean_sbu_1, # of connection points: 6
#     Edge 6, Type (0, 1), BuildingBlock: TEMPAE_clean_linker_10, # of connection points: 2
#     Edge 7, Type (0, 1), BuildingBlock: TEMPAE_clean_linker_10, # of connection points: 2
#     Edge 8, Type (0, 1), BuildingBlock: TEMPAE_clean_linker_10, # of connection points: 2
#     Edge 9, Type (0, 1), BuildingBlock: TEMPAE_clean_linker_10, # of connection points: 2
#     Edge 10, Type (0, 1), BuildingBlock: TEMPAE_clean_linker_10, # of connection points: 2
#     Edge 11, Type (0, 1), BuildingBlock: TEMPAE_clean_linker_10, # of connection points: 2
#     Edge 12, Type (0, 1), BuildingBlock: TEMPAE_clean_linker_10, # of connection points: 2
#     Edge 13, Type (0, 1), BuildingBlock: TEMPAE_clean_linker_10, # of connection points: 2
#     Edge 14, Type (0, 1), BuildingBlock: TEMPAE_clean_linker_10, # of connection points: 2
#     Edge 15, Type (0, 1), BuildingBlock: TEMPAE_clean_linker_10, # of connection points: 2
#     Edge 16, Type (0, 1), BuildingBlock: TEMPAE_clean_linker_10, # of connection points: 2
#     Edge 17, Type (0, 1), BuildingBlock: TEMPAE_clean_linker_10, # of connection points: 2
# Relax obj value: 0.015
# Max RMSD: 0.114
# Mean RMSD: 0.083
data_MOF--net-rtl--node1-LEVNOQ01_clean_sbu_1--node2-INOVEN_clean_linker_0--edge1-TEMPAE_clean_linker_10
_symmetry_space_group_name_H-M    P1
_symmetry_Int_Tables_number       1
_symmetry_cell_setting            triclinic
loop_
_symmetry_equiv_pos_as_xyz
'x, y, z'
_cell_length_a     35.889952
_cell_length_b     35.618891
_cell_length_c     22.424608
_cell_angle_alpha  91.618005
_cell_angle_beta   99.504417
_cell_angle_gamma 89.746105
loop_
_atom_site_label
_atom_site_type_symbol
_atom_site_fract_x
_atom_site_fract_y
_atom_site_fract_z
_atom_type_partial_charge
H0 H 0.17593 0.77083 0.98149 0.0
H1 H 0.11777 0.8618 0.05697 0.0
H2 H 0.18736 0.78658 0.17406 0.0
N3 N 0.21309 0.74728 0.08395 0.0
N4 N 0.23126 0.73803 0.13377 0.0
C5 C 0.16865 0.78646 0.02009 0.0
C6 C 0.14365 0.81708 0.01152 0.0
C7 C 0.1852 0.776 0.07833 0.0
C8 C 0.17543 0.79538 0.1291 0.0
C9 C 0.1502 0.8259 0.12181 0.0
C10 C 0.13526 0.8369 0.06286 0.0
H11 H 0.76207 0.67715 0.71762 0.0
H12 H 0.67888 0.60952 0.60237 0.0
H13 H 0.74303 0.69164 0.52561 0.0
N14 N 0.78149 0.71804 0.63311 0.0
N15 N 0.79324 0.73377 0.59083 0.0
C16 C 0.74723 0.66889 0.67316 0.0
C17 C 0.71945 0.6407 0.66665 0.0
C18 C 0.75581 0.68737 0.62292 0.0
C19 C 0.73703 0.67693 0.56457 0.0
C20 C 0.7092 0.6487 0.55674 0.0
C21 C 0.70076 0.63077 0.60809 0.0
H22 H 0.8154 0.24757 0.90753 0.0
H23 H 0.89195 0.17666 0.02184 0.0
H24 H 0.82959 0.2629 0.10086 0.0
N25 N 0.79157 0.28729 0.9994 0.0
N26 N 0.7734 0.29739 0.95007 0.0
C27 C 0.82899 0.23981 0.95227 0.0
C28 C 0.85514 0.21009 0.95855 0.0
C29 C 0.81962 0.25875 0.00377 0.0
C30 C 0.83698 0.24812 0.06155 0.0
C31 C 0.86325 0.21851 0.06887 0.0
C32 C 0.87205 0.19977 0.01691 0.0
H33 H 0.2421 0.37314 0.3682 0.0
H34 H 0.32772 0.43875 0.48193 0.0
H35 H 0.26065 0.36016 0.56058 0.0
N36 N 0.221 0.33426 0.45381 0.0
N37 N 0.20944 0.319 0.49668 0.0
C38 C 0.25713 0.38138 0.41255 0.0
C39 C 0.28601 0.40841 0.41848 0.0
C40 C 0.24782 0.36396 0.46323 0.0
C41 C 0.26713 0.37422 0.52133 0.0
C42 C 0.29607 0.40131 0.52856 0.0
C43 C 0.30508 0.41832 0.4768 0.0
O44 O 0.02635 0.07797 0.67809 0.0
Mg45 Mg 0.06441 0.05314 0.62712 0.0
O46 O 0.97811 0.05796 0.61114 0.0
Mg47 Mg 0.0075 0.02097 0.54308 0.0
O48 O 0.05602 0.06572 0.5375 0.0
O49 O 0.10257 0.08965 0.60799 0.0
O50 O 0.03955 0.9845 0.47669 0.0
O51 O 0.97621 0.05948 0.46488 0.0
Mg52 Mg 0.95838 0.97677 0.45673 0.0
O53 O 0.9574 0.97806 0.54787 0.0
O54 O -0.00022 0.94195 0.43043 0.0
O55 O 0.93947 0.02162 0.40242 0.0
O56 O 0.91473 0.94822 0.47744 0.0
C57 C 0.06924 0.97828 0.6559 0.0
C58 C 0.99107 0.07632 0.65993 0.0
C59 C 0.08523 0.08772 0.55287 0.0
C60 C 0.0328 0.95517 0.44247 0.0
C61 C 0.95232 0.05415 0.41642 0.0
C62 C 0.9282 0.9559 0.53336 0.0
O63 O 0.09225 0.00507 0.65911 0.0
O64 O 0.03733 0.98069 0.62116 0.0
O65 O 0.56669 0.49174 0.18026 0.0
Mg66 Mg 0.53198 0.4586 0.11522 0.0
O67 O 0.54626 0.54273 0.1317 0.0
Mg68 Mg 0.50456 0.52179 0.04333 0.0
O69 O 0.53939 0.46657 0.02787 0.0
O70 O 0.55824 0.41529 0.08118 0.0
O71 O 0.4628 0.50138 0.95476 0.0
O72 O 0.54899 0.54584 0.98605 0.0
Mg73 Mg 0.47816 0.58609 0.97282 0.0
O74 O 0.46971 0.57683 0.05905 0.0
O75 O 0.44412 0.55309 0.90662 0.0
O76 O 0.53044 0.60181 0.95486 0.0
O77 O 0.4516 0.62896 0.00766 0.0
C78 C 0.45514 0.46804 0.12898 0.0
C79 C 0.56662 0.52712 0.17655 0.0
C80 C 0.55661 0.43414 0.03251 0.0
C81 C 0.44324 0.51768 0.90981 0.0
C82 C 0.55465 0.57591 0.95919 0.0
C83 C 0.45262 0.60932 0.05539 0.0
O84 O 0.48022 0.44296 0.13557 0.0
O85 O 0.46004 0.49758 0.10024 0.0
C86 C 0.17504 0.269 0.43117 0.0
C87 C 0.18461 0.28763 0.48774 0.0
C88 C 0.15402 0.23544 0.42529 0.0
C89 C 0.14258 0.22028 0.47711 0.0
C90 C 0.15063 0.24018 0.53345 0.0
C91 C 0.17165 0.27351 0.53793 0.0
C92 C 0.14594 0.21528 0.36446 0.0
C93 C 0.13879 0.22527 0.58991 0.0
C94 C 0.0725 0.14255 0.48676 0.0
C95 C 0.09726 0.11425 0.5108 0.0
C96 C 0.08667 0.17654 0.46904 0.0
C97 C 0.12628 0.18179 0.47532 0.0
C98 C 0.15081 0.15123 0.49194 0.0
C99 C 0.13597 0.1179 0.51 0.0
C100 C 0.05953 0.20813 0.45035 0.0
C101 C 0.19315 0.15516 0.49797 0.0
H102 H 0.18504 0.27984 0.39201 0.0
H103 H 0.17912 0.2881 0.58132 0.0
H104 H 0.16576 0.19135 0.36375 0.0
H105 H 0.11685 0.2037 0.35592 0.0
H106 H 0.14951 0.23407 0.32709 0.0
H107 H 0.14458 0.24557 0.62885 0.0
H108 H 0.10818 0.21859 0.58157 0.0
H109 H 0.15428 0.19887 0.60251 0.0
H110 H 0.04255 0.1398 0.48793 0.0
H111 H 0.15504 0.09593 0.52877 0.0
H112 H 0.06811 0.22373 0.41269 0.0
H113 H 0.05974 0.22823 0.48913 0.0
H114 H 0.03023 0.19766 0.43623 0.0
H115 H 0.20086 0.16979 0.45873 0.0
H116 H 0.20759 0.12747 0.50158 0.0
H117 H 0.2039 0.17231 0.53929 0.0
C118 C 0.28368 0.70515 0.19339 0.0
C119 C 0.26091 0.71108 0.13749 0.0
C120 C 0.31663 0.68312 0.19747 0.0
C121 C 0.32701 0.66704 0.14412 0.0
C122 C 0.30242 0.67063 0.08818 0.0
C123 C 0.26971 0.69259 0.08551 0.0
C124 C 0.34136 0.67894 0.25819 0.0
C125 C 0.31193 0.65338 0.03021 0.0
C126 C 0.42543 0.6615 0.10868 0.0
C127 C 0.42949 0.62268 0.10028 0.0
C128 C 0.39388 0.67643 0.13018 0.0
C129 C 0.36574 0.65182 0.14372 0.0
C130 C 0.3725 0.61256 0.14369 0.0
C131 C 0.40444 0.5983 0.12161 0.0
C132 C 0.38847 0.71851 0.13069 0.0
C133 C 0.34429 0.58525 0.16051 0.0
H134 H 0.27656 0.71917 0.23354 0.0
H135 H 0.25191 0.69655 0.04219 0.0
H136 H 0.35261 0.64993 0.26324 0.0
H137 H 0.36583 0.69827 0.26188 0.0
H138 H 0.32579 0.6858 0.296 0.0
H139 H 0.28851 0.65631 0.9915 0.0
H140 H 0.33742 0.66721 0.01886 0.0
H141 H 0.31846 0.6231 0.03592 0.0
H142 H 0.44514 0.68036 0.0929 0.0
H143 H 0.40756 0.56821 0.11544 0.0
H144 H 0.37809 0.72832 0.17234 0.0
H145 H 0.36694 0.72618 0.09146 0.0
H146 H 0.41506 0.73368 0.1277 0.0
H147 H 0.32724 0.59799 0.19281 0.0
H148 H 0.35889 0.55998 0.18088 0.0
H149 H 0.32481 0.57599 0.11906 0.0
C150 C 0.82372 0.78577 0.6565 0.0
C151 C 0.81718 0.7658 0.60074 0.0
C152 C 0.84473 0.81936 0.66325 0.0
C153 C 0.85948 0.83305 0.61325 0.0
C154 C 0.85414 0.812 0.55782 0.0
C155 C 0.83283 0.77883 0.5523 0.0
C156 C 0.84978 0.84089 0.72295 0.0
C157 C 0.86979 0.82519 0.50346 0.0
C158 C 0.87322 0.93325 0.5743 0.0
C159 C 0.91253 0.9345 0.57848 0.0
C160 C 0.85543 0.90183 0.59327 0.0
C161 C 0.87761 0.87076 0.61582 0.0
C162 C 0.91752 0.8742 0.6278 0.0
C163 C 0.93461 0.90631 0.60909 0.0
C164 C 0.81283 0.89999 0.58138 0.0
C165 C 0.94239 0.84222 0.6529 0.0
H166 H 0.81151 0.77583 0.69422 0.0
H167 H 0.82766 0.76322 0.50953 0.0
H168 H 0.87953 0.85014 0.73643 0.0
H169 H 0.83197 0.86651 0.71833 0.0
H170 H 0.84163 0.82394 0.7596 0.0
H171 H 0.86533 0.80431 0.46521 0.0
H172 H 0.85591 0.85188 0.48782 0.0
H173 H 0.90052 0.83081 0.51582 0.0
H174 H 0.8562 0.95508 0.55035 0.0
H175 H 0.96506 0.9071 0.61179 0.0
H176 H 0.80202 0.88645 0.61906 0.0
H177 H 0.80342 0.8828 0.53959 0.0
H178 H 0.79998 0.92834 0.57515 0.0
H179 H 0.92897 0.82557 0.68464 0.0
H180 H 0.97013 0.85275 0.67667 0.0
H181 H 0.94757 0.82322 0.61504 0.0
C182 C 0.72139 0.33176 0.89204 0.0
C183 C 0.74408 0.32467 0.94758 0.0
C184 C 0.68919 0.35483 0.88888 0.0
C185 C 0.67952 0.37088 0.94278 0.0
C186 C 0.70398 0.36587 0.99847 0.0
C187 C 0.73589 0.34283 1.00024 0.0
C188 C 0.66452 0.36036 0.82848 0.0
C189 C 0.6952 0.38298 0.05701 0.0
C190 C 0.60525 0.44307 0.96651 0.0
C191 C 0.579 0.41981 0.98725 0.0
C192 C 0.63663 0.42743 0.94447 0.0
C193 C 0.64156 0.38788 0.94372 0.0
C194 C 0.61225 0.36455 0.95677 0.0
C195 C 0.58135 0.38086 0.97842 0.0
C196 C 0.66622 0.45352 0.92854 0.0
C197 C 0.6157 0.32227 0.95554 0.0
H198 H 0.72805 0.31799 0.85139 0.0
H199 H 0.75365 0.33798 0.04331 0.0
H200 H 0.63879 0.34276 0.8251 0.0
H201 H 0.65523 0.39005 0.82385 0.0
H202 H 0.67935 0.35234 0.79027 0.0
H203 H 0.71849 0.37883 0.09553 0.0
H204 H 0.68991 0.41354 0.05228 0.0
H205 H 0.66917 0.37004 0.068 0.0
H206 H 0.6035 0.47326 0.97322 0.0
H207 H 0.56079 0.3629 0.99397 0.0
H208 H 0.68281 0.44014 0.89615 0.0
H209 H 0.68595 0.46171 0.97033 0.0
H210 H 0.65295 0.47955 0.90869 0.0
H211 H 0.62585 0.31209 0.91389 0.0
H212 H 0.58838 0.30832 0.95796 0.0
H213 H 0.63667 0.31355 0.99481 0.0
C214 C 0.16498 0.8527 0.22875 0.0
C215 C 0.13903 0.84637 0.17521 0.0
C216 C 0.15411 0.87149 0.27923 0.0
C217 C 0.11663 0.88484 0.27573 0.0
C218 C 0.09058 0.87919 0.22154 0.0
C219 C 0.10191 0.85965 0.17247 0.0
C220 C 0.18248 0.87645 0.33657 0.0
C221 C 0.05035 0.89319 0.2156 0.0
C222 C 0.06358 0.89841 0.40667 0.0
C223 C 0.0621 0.93763 0.41201 0.0
C224 C 0.08447 0.88069 0.36641 0.0
C225 C 0.10337 0.90282 0.32926 0.0
C226 C 0.10422 0.94244 0.33771 0.0
C227 C 0.0838 0.95944 0.37968 0.0
C228 C 0.08363 0.83837 0.36013 0.0
C229 C 0.12363 0.96709 0.29859 0.0
H230 H 0.19386 0.84311 0.23127 0.0
H231 H 0.08131 0.85429 0.13207 0.0
H232 H 0.18499 0.90657 0.35059 0.0
H233 H 0.17263 0.86136 0.3737 0.0
H234 H 0.21089 0.86568 0.33132 0.0
H235 H 0.03448 0.88898 0.169 0.0
H236 H 0.03528 0.87817 0.24717 0.0
H237 H 0.05003 0.92356 0.22801 0.0
H238 H 0.04685 0.88159 0.432 0.0
H239 H 0.08233 0.98981 0.38347 0.0
H240 H 0.11217 0.82717 0.35713 0.0
H241 H 0.06463 0.82978 0.31781 0.0
H242 H 0.07325 0.82525 0.39866 0.0
H243 H 0.15178 0.95565 0.29367 0.0
H244 H 0.12712 0.99634 0.31719 0.0
H245 H 0.10646 0.96781 0.25267 0.0
C246 C 0.69501 0.5866 0.71937 0.0
C247 C 0.70743 0.62403 0.72089 0.0
C248 C 0.67689 0.57293 0.76534 0.0
C249 C 0.67162 0.59708 0.81449 0.0
C250 C 0.68785 0.6334 0.81965 0.0
C251 C 0.70509 0.64661 0.77253 0.0
C252 C 0.66006 0.53398 0.75797 0.0
C253 C 0.68356 0.65988 0.87186 0.0
C254 C 0.57718 0.59648 0.86734 0.0
C255 C 0.5853 0.57873 0.92296 0.0
C256 C 0.60477 0.60109 0.83103 0.0
C257 C 0.64199 0.58839 0.85129 0.0
C258 C 0.65044 0.56971 0.90699 0.0
C259 C 0.62166 0.56451 0.94197 0.0
C260 C 0.59407 0.62038 0.77137 0.0
C261 C 0.68996 0.55639 0.93037 0.0
H262 H 0.69776 0.56842 0.68078 0.0
H263 H 0.71435 0.67559 0.77463 0.0
H264 H 0.66341 0.5198 0.80193 0.0
H265 H 0.62934 0.5361 0.74065 0.0
H266 H 0.67312 0.51624 0.72546 0.0
H267 H 0.7041 0.68344 0.87612 0.0
H268 H 0.65463 0.67188 0.86455 0.0
H269 H 0.68745 0.64481 0.91508 0.0
H270 H 0.54884 0.60675 0.85181 0.0
H271 H 0.62784 0.55054 0.9848 0.0
H272 H 0.60223 0.60274 0.73405 0.0
H273 H 0.60945 0.64742 0.77273 0.0
H274 H 0.5633 0.62624 0.76057 0.0
H275 H 0.70061 0.53841 0.89566 0.0
H276 H 0.69141 0.54035 0.97246 0.0
H277 H 0.70918 0.58092 0.93982 0.0
C278 C 0.9176 0.19291 0.14196 0.0
C279 C 0.87997 0.20536 0.13023 0.0
C280 C 0.93184 0.1745 0.19554 0.0
C281 C 0.90807 0.1687 0.23892 0.0
C282 C 0.87127 0.18432 0.22997 0.0
C283 C 0.85755 0.2022 0.17559 0.0
C284 C 0.97135 0.1586 0.20339 0.0
C285 C 0.84534 0.17963 0.27579 0.0
C286 C 0.91944 0.07534 0.31646 0.0
C287 C 0.9405 0.08473 0.37343 0.0
C288 C 0.9088 0.10247 0.27304 0.0
C289 C 0.91883 0.14047 0.2867 0.0
C290 C 0.93939 0.15057 0.34452 0.0
C291 C 0.95043 0.12246 0.38707 0.0
C292 C 0.88722 0.09018 0.21192 0.0
C293 C 0.95028 0.19082 0.3612 0.0
H294 H 0.93558 0.19623 0.10809 0.0
H295 H 0.82847 0.21169 0.16731 0.0
H296 H 0.98677 0.16545 0.24943 0.0
H297 H 0.96986 0.12754 0.19819 0.0
H298 H 0.98778 0.16941 0.16965 0.0
H299 H 0.82056 0.19871 0.26761 0.0
H300 H 0.83489 0.15026 0.27331 0.0
H301 H 0.86076 0.18511 0.32232 0.0
H302 H 0.91167 0.04634 0.30498 0.0
H303 H 0.96675 0.13004 0.43082 0.0
H304 H 0.90329 0.09776 0.17575 0.0
H305 H 0.85965 0.10492 0.20314 0.0
H306 H 0.88185 0.05944 0.20842 0.0
H307 H 0.97513 0.19826 0.34039 0.0
H308 H 0.9578 0.19531 0.41095 0.0
H309 H 0.92701 0.21028 0.34388 0.0
C310 C 0.35701 0.41669 0.59757 0.0
C311 C 0.31774 0.41131 0.58967 0.0
C312 C 0.37744 0.42941 0.65329 0.0
C313 C 0.3583 0.4367 0.70279 0.0
C314 C 0.31904 0.42931 0.69617 0.0
C315 C 0.29922 0.41681 0.63969 0.0
C316 C 0.41923 0.43693 0.65818 0.0
C317 C 0.29757 0.43646 0.74784 0.0
C318 C 0.41889 0.45657 0.85745 0.0
C319 C 0.42002 0.49599 0.85925 0.0
C320 C 0.39816 0.43667 0.80756 0.0
C321 C 0.37835 0.45667 0.75831 0.0
C322 C 0.37887 0.49638 0.76057 0.0
C323 C 0.39948 0.51543 0.8108 0.0
C324 C 0.39799 0.39431 0.807 0.0
C325 C 0.35835 0.51894 0.70912 0.0
H326 H 0.3718 0.41156 0.55972 0.0
H327 H 0.26891 0.41279 0.63414 0.0
H328 H 0.42449 0.46761 0.66354 0.0
H329 H 0.43514 0.42355 0.69872 0.0
H330 H 0.43059 0.42642 0.61764 0.0
H331 H 0.26858 0.42454 0.73818 0.0
H332 H 0.31282 0.42425 0.78995 0.0
H333 H 0.29538 0.46717 0.75632 0.0
H334 H 0.43455 0.44127 0.89458 0.0
H335 H 0.39989 0.54586 0.81146 0.0
H336 H 0.41222 0.38323 0.76985 0.0
H337 H 0.36853 0.38368 0.79817 0.0
H338 H 0.41259 0.38298 0.85034 0.0
H339 H 0.37002 0.51231 0.66719 0.0
H340 H 0.36077 0.54969 0.71857 0.0
H341 H 0.32797 0.51133 0.70017 0.0
C342 C 0.64903 0.63171 0.48701 0.0
C343 C 0.68812 0.63827 0.49542 0.0
C344 C 0.62928 0.61825 0.43125 0.0
C345 C 0.64895 0.61134 0.38226 0.0
C346 C 0.68798 0.61995 0.38935 0.0
C347 C 0.70712 0.63324 0.44584 0.0
C348 C 0.5877 0.60952 0.42584 0.0
C349 C 0.71 0.61321 0.33823 0.0
C350 C 0.61043 0.53099 0.27547 0.0
C351 C 0.58939 0.54962 0.22658 0.0
C352 C 0.63041 0.55084 0.32541 0.0
C353 C 0.62979 0.59056 0.32688 0.0
C354 C 0.60955 0.60975 0.27709 0.0
C355 C 0.58945 0.58906 0.22754 0.0
C356 C 0.65142 0.52911 0.37748 0.0
C357 C 0.60852 0.65209 0.27677 0.0
H358 H 0.6339 0.63642 0.52457 0.0
H359 H 0.7373 0.6382 0.45183 0.0
H360 H 0.57162 0.62223 0.38482 0.0
H361 H 0.58338 0.57868 0.42105 0.0
H362 H 0.57577 0.6199 0.46591 0.0
H363 H 0.73858 0.62605 0.34809 0.0
H364 H 0.71321 0.58255 0.33043 0.0
H365 H 0.69459 0.62475 0.29568 0.0
H366 H 0.61083 0.50056 0.27545 0.0
H367 H 0.5734 0.60375 0.19005 0.0
H368 H 0.63929 0.5355 0.41906 0.0
H369 H 0.68153 0.5377 0.38674 0.0
H370 H 0.65003 0.49827 0.36853 0.0
H371 H 0.59362 0.66296 0.31327 0.0
H372 H 0.59395 0.6628 0.23295 0.0
H373 H 0.63765 0.66358 0.28604 0.0
C374 C 0.86905 0.15044 0.90431 0.0
C375 C 0.86538 0.18969 0.90468 0.0
C376 C 0.8839 0.13115 0.85811 0.0
C377 C 0.89527 0.15156 0.8109 0.0
C378 C 0.88904 0.19084 0.80864 0.0
C379 C 0.8742 0.20947 0.85563 0.0
C380 C 0.88991 0.08926 0.86228 0.0
C381 C 0.90057 0.21363 0.75895 0.0
C382 C 0.98139 0.11372 0.75182 0.0
C383 C 0.96567 0.09582 0.69686 0.0
C384 C 0.95873 0.1321 0.78862 0.0
C385 C 0.9191 0.13291 0.77024 0.0
C386 C 0.90284 0.11525 0.71462 0.0
C387 C 0.92634 0.09678 0.67854 0.0
C388 C 0.97733 0.15034 0.84771 0.0
C389 C 0.86069 0.11571 0.69352 0.0
H390 H 0.86144 0.13487 0.94137 0.0
H391 H 0.87144 0.23979 0.85557 0.0
H392 H 0.88006 0.075 0.81791 0.0
H393 H 0.92055 0.08335 0.87483 0.0
H394 H 0.87496 0.07689 0.89666 0.0
H395 H 0.88852 0.24243 0.75818 0.0
H396 H 0.93182 0.21593 0.76593 0.0
H397 H 0.89143 0.19959 0.71417 0.0
H398 H 0.0117 0.11322 0.76667 0.0
H399 H 0.91393 0.08312 0.63616 0.0
H400 H 0.96663 0.13741 0.88603 0.0
H401 H 0.97014 0.18065 0.84872 0.0
H402 H 0.00858 0.14754 0.85505 0.0
H403 H 0.84622 0.10131 0.7265 0.0
H404 H 0.85254 0.10171 0.64837 0.0
H405 H 0.85027 0.14509 0.69124 0.0
C406 C 0.30138 0.40001 0.31362 0.0
C407 C 0.29881 0.42369 0.36392 0.0
C408 C 0.31943 0.41185 0.26651 0.0
C409 C 0.33605 0.44798 0.27025 0.0
C410 C 0.33056 0.47322 0.31794 0.0
C411 C 0.31182 0.46084 0.36405 0.0
C412 C 0.32408 0.38419 0.216 0.0
C413 C 0.34766 0.51206 0.32355 0.0
C414 C 0.43136 0.44774 0.22003 0.0
C415 C 0.42384 0.46494 0.16387 0.0
C416 C 0.40321 0.4433 0.25538 0.0
C417 C 0.36605 0.4556 0.23361 0.0
C418 C 0.3581 0.47339 0.17708 0.0
C419 C 0.3874 0.47846 0.14309 0.0
C420 C 0.41332 0.42482 0.31585 0.0
C421 C 0.31861 0.48603 0.15195 0.0
H422 H 0.29163 0.37122 0.31275 0.0
H423 H 0.30896 0.47978 0.40171 0.0
H424 H 0.32087 0.3983 0.17198 0.0
H425 H 0.35289 0.37193 0.22482 0.0
H426 H 0.30329 0.36088 0.21239 0.0
H427 H 0.3353 0.53036 0.35615 0.0
H428 H 0.37853 0.50988 0.33963 0.0
H429 H 0.34365 0.52565 0.27907 0.0
H430 H 0.45969 0.43792 0.23686 0.0
H431 H 0.38163 0.49191 0.09978 0.0
H432 H 0.39761 0.39803 0.31531 0.0
H433 H 0.4051 0.4432 0.35229 0.0
H434 H 0.44401 0.41868 0.32739 0.0
H435 H 0.29959 0.4613 0.14359 0.0
H436 H 0.31743 0.50104 0.10892 0.0
H437 H 0.30748 0.50478 0.18522 0.0
C438 C 0.14965 0.82916 0.90307 0.0
C439 C 0.12773 0.83002 0.94955 0.0
C440 C 0.13696 0.84623 0.84762 0.0
C441 C 0.10201 0.86559 0.83891 0.0
C442 C 0.07854 0.86415 0.88369 0.0
C443 C 0.09144 0.84595 0.93797 0.0
C444 C 0.16239 0.8461 0.80031 0.0
C445 C 0.04126 0.88471 0.87678 0.0
C446 C 0.10109 0.95648 0.75542 0.0
C447 C 0.07764 0.94803 0.7002 0.0
C448 C 0.10885 0.92992 0.80047 0.0
C449 C 0.09374 0.89327 0.78978 0.0
C450 C 0.07066 0.88406 0.73359 0.0
C451 C 0.0622 0.91187 0.68973 0.0
C452 C 0.13284 0.94144 0.86008 0.0
C453 C 0.05507 0.84495 0.71988 0.0
H454 H 0.1777 0.81702 0.91095 0.0
H455 H 0.07359 0.84567 0.9725 0.0
H456 H 0.14572 0.84197 0.75432 0.0
H457 H 0.17695 0.8736 0.80181 0.0
H458 H 0.18422 0.82375 0.80795 0.0
H459 H 0.02416 0.87676 0.91149 0.0
H460 H 0.04661 0.91541 0.88133 0.0
H461 H 0.02449 0.87906 0.83132 0.0
H462 H 0.11271 0.98452 0.76432 0.0
H463 H 0.04407 0.90523 0.64714 0.0
H464 H 0.15881 0.92406 0.86796 0.0
H465 H 0.11708 0.93666 0.89782 0.0
H466 H 0.14132 0.97146 0.86176 0.0
H467 H 0.07794 0.82387 0.72986 0.0
H468 H 0.04142 0.84114 0.6719 0.0
H469 H 0.03388 0.8391 0.74924 0.0
loop_
_geom_bond_atom_site_label_1
_geom_bond_atom_site_label_2
_geom_bond_distance
_geom_bond_site_symmetry_2
_ccdc_geom_bond_type
H0 C5 0.929 1_556 S
H1 C10 0.931 . S
H2 C8 0.930 . S
N3 N4 1.234 . S
N3 C7 1.453 . S
N4 N3 1.234 . S
C5 H0 0.929 1_554 S
C5 C6 1.373 . S
C5 C7 1.368 . S
C6 C5 1.373 . S
C6 C10 1.397 . S
C7 N3 1.453 . S
C7 C5 1.368 . S
C7 C8 1.373 . S
C8 H2 0.930 . S
C8 C7 1.373 . S
C8 C9 1.371 . S
C9 C8 1.371 . S
C9 C10 1.383 . S
C10 H1 0.931 . S
C10 C6 1.397 . S
C10 C9 1.383 . S
H11 C16 0.929 . S
H12 C21 0.931 . S
H13 C19 0.930 . S
N14 N15 1.234 . S
N14 C18 1.453 . S
N15 N14 1.234 . S
C16 H11 0.929 . S
C16 C17 1.373 . S
C16 C18 1.368 . S
C17 C16 1.373 . S
C17 C21 1.397 . S
C18 N14 1.453 . S
C18 C16 1.368 . S
C18 C19 1.373 . S
C19 H13 0.930 . S
C19 C18 1.373 . S
C19 C20 1.371 . S
C20 C19 1.371 . S
C20 C21 1.383 . S
C21 H12 0.931 . S
C21 C17 1.397 . S
C21 C20 1.383 . S
H22 C27 0.929 . S
H23 C32 0.931 . S
H24 C30 0.930 . S
N25 N26 1.234 1_556 S
N25 C29 1.453 . S
N26 N25 1.234 1_554 S
C27 H22 0.929 . S
C27 C28 1.373 . S
C27 C29 1.368 . S
C28 C27 1.373 . S
C28 C32 1.397 1_556 S
C29 N25 1.453 . S
C29 C27 1.368 . S
C29 C30 1.373 1_556 S
C30 H24 0.930 . S
C30 C29 1.373 1_554 S
C30 C31 1.371 . S
C31 C30 1.371 . S
C31 C32 1.383 . S
C32 H23 0.931 . S
C32 C28 1.397 1_554 S
C32 C31 1.383 . S
H33 C38 0.929 . S
H34 C43 0.931 . S
H35 C41 0.930 . S
N36 N37 1.234 . S
N36 C40 1.453 . S
N37 N36 1.234 . S
C38 H33 0.929 . S
C38 C39 1.373 . S
C38 C40 1.368 . S
C39 C38 1.373 . S
C39 C43 1.397 . S
C40 N36 1.453 . S
C40 C38 1.368 . S
C40 C41 1.373 . S
C41 H35 0.930 . S
C41 C40 1.373 . S
C41 C42 1.371 . S
C42 C41 1.371 . S
C42 C43 1.383 . S
C43 H34 0.931 . S
C43 C39 1.397 . S
C43 C42 1.383 . S
O44 Mg45 1.990 . S
O44 C58 1.253 1_455 S
Mg45 O44 1.990 . S
Mg45 O48 2.180 . S
Mg45 O49 2.117 . S
Mg45 O63 2.030 . S
O46 Mg47 2.072 1_655 S
O46 C58 1.260 . S
Mg47 O46 2.072 1_455 S
Mg47 O48 2.099 . S
Mg47 O50 2.079 1_545 S
Mg47 O51 2.072 1_455 S
Mg47 O53 2.099 1_445 S
Mg47 O64 2.079 1_545 S
O48 Mg45 2.180 . S
O48 Mg47 2.099 . S
O48 C59 1.279 . S
O49 Mg45 2.117 . S
O49 C59 1.250 . S
O50 Mg47 2.079 1_565 S
O50 C60 1.264 . S
O51 Mg47 2.072 1_655 S
O51 C61 1.260 . S
Mg52 O53 2.180 . S
Mg52 O54 2.030 1_655 S
Mg52 O55 1.990 1_565 S
Mg52 O56 2.117 . S
O53 Mg47 2.099 1_665 S
O53 Mg52 2.180 . S
O53 C62 1.279 . S
O54 Mg52 2.030 1_455 S
O54 C60 1.248 . S
O55 Mg52 1.990 1_545 S
O55 C61 1.253 . S
O56 Mg52 2.117 . S
O56 C62 1.250 . S
C57 O63 1.248 1_565 S
C57 O64 1.264 . S
C58 O44 1.253 1_655 S
C58 O46 1.260 . S
C59 O48 1.279 . S
C59 O49 1.250 . S
C60 O50 1.264 . S
C60 O54 1.248 . S
C61 O51 1.260 . S
C61 O55 1.253 . S
C62 O53 1.279 . S
C62 O56 1.250 . S
O63 Mg45 2.030 . S
O63 C57 1.248 1_545 S
O64 Mg47 2.079 1_565 S
O64 C57 1.264 . S
O65 Mg66 1.990 . S
O65 C79 1.253 . S
Mg66 O65 1.990 . S
Mg66 O69 2.180 . S
Mg66 O70 2.117 . S
Mg66 O84 2.030 . S
O67 Mg68 2.072 . S
O67 C79 1.260 . S
Mg68 O67 2.072 . S
Mg68 O69 2.099 . S
Mg68 O71 2.079 1_554 S
Mg68 O72 2.072 1_554 S
Mg68 O74 2.099 . S
Mg68 O85 2.079 . S
O69 Mg66 2.180 . S
O69 Mg68 2.099 . S
O69 C80 1.279 . S
O70 Mg66 2.117 . S
O70 C80 1.250 . S
O71 Mg68 2.079 1_556 S
O71 C81 1.264 . S
O72 Mg68 2.072 1_556 S
O72 C82 1.260 . S
Mg73 O74 2.180 1_556 S
Mg73 O75 2.030 . S
Mg73 O76 1.990 . S
Mg73 O77 2.117 . S
O74 Mg68 2.099 . S
O74 Mg73 2.180 1_554 S
O74 C83 1.279 . S
O75 Mg73 2.030 . S
O75 C81 1.248 . S
O76 Mg73 1.990 . S
O76 C82 1.253 . S
O77 Mg73 2.117 . S
O77 C83 1.250 1_556 S
C78 O84 1.248 . S
C78 O85 1.264 . S
C79 O65 1.253 . S
C79 O67 1.260 . S
C80 O69 1.279 . S
C80 O70 1.250 . S
C81 O71 1.264 . S
C81 O75 1.248 . S
C82 O72 1.260 . S
C82 O76 1.253 . S
C83 O74 1.279 . S
C83 O77 1.250 1_554 S
O84 Mg66 2.030 . S
O84 C78 1.248 . S
O85 Mg68 2.079 . S
O85 C78 1.264 . S
C86 C87 1.391 . S
C86 C88 1.394 . S
C86 H102 0.931 . S
C87 C86 1.391 . S
C87 C91 1.376 . S
C88 C86 1.394 . S
C88 C89 1.369 . S
C88 C92 1.531 . S
C89 C88 1.369 . S
C89 C90 1.410 . S
C89 C97 1.503 . S
C90 C89 1.410 . S
C90 C91 1.392 . S
C90 C93 1.511 . S
C91 C87 1.376 . S
C91 C90 1.392 . S
C91 H103 0.929 . S
C92 C88 1.531 . S
C92 H104 0.960 . S
C92 H105 0.962 . S
C92 H106 0.960 . S
C93 C90 1.511 . S
C93 H107 0.961 . S
C93 H108 0.961 . S
C93 H109 0.961 . S
C94 C95 1.370 . S
C94 C96 1.363 . S
C94 H110 0.931 . S
C95 C94 1.370 . S
C95 C99 1.408 . S
C96 C94 1.363 . S
C96 C97 1.370 . S
C96 C100 1.524 . S
C97 C89 1.503 . S
C97 C96 1.370 . S
C97 C98 1.403 . S
C98 C97 1.403 . S
C98 C99 1.404 . S
C98 C101 1.539 . S
C99 C95 1.408 . S
C99 C98 1.404 . S
C99 H111 0.930 . S
C100 C96 1.524 . S
C100 H112 0.956 . S
C100 H113 0.961 . S
C100 H114 0.961 . S
C101 C98 1.539 . S
C101 H115 0.958 . S
C101 H116 0.961 . S
C101 H117 0.960 . S
H102 C86 0.931 . S
H103 C91 0.929 . S
H104 C92 0.960 . S
H105 C92 0.962 . S
H106 C92 0.960 . S
H107 C93 0.961 . S
H108 C93 0.961 . S
H109 C93 0.961 . S
H110 C94 0.931 . S
H111 C99 0.930 . S
H112 C100 0.956 . S
H113 C100 0.961 . S
H114 C100 0.961 . S
H115 C101 0.958 . S
H116 C101 0.961 . S
H117 C101 0.960 . S
C118 C119 1.391 . S
C118 C120 1.394 . S
C118 H134 0.931 . S
C119 C118 1.391 . S
C119 C123 1.376 . S
C120 C118 1.394 . S
C120 C121 1.369 . S
C120 C124 1.531 . S
C121 C120 1.369 . S
C121 C122 1.410 . S
C121 C129 1.503 . S
C122 C121 1.410 . S
C122 C123 1.392 . S
C122 C125 1.511 . S
C123 C119 1.376 . S
C123 C122 1.392 . S
C123 H135 0.929 . S
C124 C120 1.531 . S
C124 H136 0.960 . S
C124 H137 0.962 . S
C124 H138 0.960 . S
C125 C122 1.511 . S
C125 H139 0.961 1_554 S
C125 H140 0.961 . S
C125 H141 0.961 . S
C126 C127 1.370 . S
C126 C128 1.363 . S
C126 H142 0.931 . S
C127 C126 1.370 . S
C127 C131 1.408 . S
C128 C126 1.363 . S
C128 C129 1.370 . S
C128 C132 1.524 1_554 S
C129 C121 1.503 . S
C129 C128 1.370 . S
C129 C130 1.403 . S
C130 C129 1.403 . S
C130 C131 1.404 . S
C130 C133 1.539 . S
C131 C127 1.408 . S
C131 C130 1.404 . S
C131 H143 0.930 . S
C132 C128 1.524 1_556 S
C132 H144 0.956 1_556 S
C132 H145 0.961 . S
C132 H146 0.961 . S
C133 C130 1.539 . S
C133 H147 0.958 . S
C133 H148 0.961 . S
C133 H149 0.960 . S
H134 C118 0.931 . S
H135 C123 0.929 . S
H136 C124 0.960 . S
H137 C124 0.962 . S
H138 C124 0.960 . S
H139 C125 0.961 1_556 S
H140 C125 0.961 . S
H141 C125 0.961 . S
H142 C126 0.931 . S
H143 C131 0.930 . S
H144 C132 0.956 1_554 S
H145 C132 0.961 . S
H146 C132 0.961 . S
H147 C133 0.958 . S
H148 C133 0.961 . S
H149 C133 0.960 . S
C150 C151 1.391 . S
C150 C152 1.394 . S
C150 H166 0.931 . S
C151 C150 1.391 . S
C151 C155 1.376 . S
C152 C150 1.394 . S
C152 C153 1.369 . S
C152 C156 1.531 . S
C153 C152 1.369 . S
C153 C154 1.410 . S
C153 C161 1.503 . S
C154 C153 1.410 . S
C154 C155 1.392 . S
C154 C157 1.511 . S
C155 C151 1.376 . S
C155 C154 1.392 . S
C155 H167 0.929 . S
C156 C152 1.531 . S
C156 H168 0.960 . S
C156 H169 0.962 . S
C156 H170 0.960 . S
C157 C154 1.511 . S
C157 H171 0.961 . S
C157 H172 0.961 . S
C157 H173 0.961 . S
C158 C159 1.370 . S
C158 C160 1.363 . S
C158 H174 0.931 . S
C159 C158 1.370 . S
C159 C163 1.408 . S
C160 C158 1.363 . S
C160 C161 1.370 . S
C160 C164 1.524 . S
C161 C153 1.503 . S
C161 C160 1.370 . S
C161 C162 1.403 . S
C162 C161 1.403 . S
C162 C163 1.404 . S
C162 C165 1.539 . S
C163 C159 1.408 . S
C163 C162 1.404 . S
C163 H175 0.930 . S
C164 C160 1.524 . S
C164 H176 0.956 . S
C164 H177 0.961 . S
C164 H178 0.961 . S
C165 C162 1.539 . S
C165 H179 0.958 . S
C165 H180 0.961 . S
C165 H181 0.960 . S
H166 C150 0.931 . S
H167 C155 0.929 . S
H168 C156 0.960 . S
H169 C156 0.962 . S
H170 C156 0.960 . S
H171 C157 0.961 . S
H172 C157 0.961 . S
H173 C157 0.961 . S
H174 C158 0.931 . S
H175 C163 0.930 . S
H176 C164 0.956 . S
H177 C164 0.961 . S
H178 C164 0.961 . S
H179 C165 0.958 . S
H180 C165 0.961 . S
H181 C165 0.960 . S
C182 C183 1.391 . S
C182 C184 1.394 . S
C182 H198 0.931 1_554 S
C183 C182 1.391 . S
C183 C187 1.376 . S
C184 C182 1.394 . S
C184 C185 1.369 . S
C184 C188 1.531 . S
C185 C184 1.369 . S
C185 C186 1.410 . S
C185 C193 1.503 . S
C186 C185 1.410 . S
C186 C187 1.392 . S
C186 C189 1.511 . S
C187 C183 1.376 . S
C187 C186 1.392 . S
C187 H199 0.929 . S
C188 C184 1.531 . S
C188 H200 0.960 . S
C188 H201 0.962 1_554 S
C188 H202 0.960 . S
C189 C186 1.511 . S
C189 H203 0.961 . S
C189 H204 0.961 . S
C189 H205 0.961 . S
C190 C191 1.370 1_556 S
C190 C192 1.363 . S
C190 H206 0.931 . S
C191 C190 1.370 1_554 S
C191 C195 1.408 . S
C192 C190 1.363 . S
C192 C193 1.370 1_556 S
C192 C196 1.524 . S
C193 C185 1.503 . S
C193 C192 1.370 1_554 S
C193 C194 1.403 . S
C194 C193 1.403 . S
C194 C195 1.404 . S
C194 C197 1.539 . S
C195 C191 1.408 . S
C195 C194 1.404 . S
C195 H207 0.930 . S
C196 C192 1.524 . S
C196 H208 0.956 . S
C196 H209 0.961 . S
C196 H210 0.961 . S
C197 C194 1.539 . S
C197 H211 0.958 . S
C197 H212 0.961 . S
C197 H213 0.960 . S
H198 C182 0.931 1_556 S
H199 C187 0.929 . S
H200 C188 0.960 . S
H201 C188 0.962 1_556 S
H202 C188 0.960 . S
H203 C189 0.961 . S
H204 C189 0.961 . S
H205 C189 0.961 . S
H206 C190 0.931 . S
H207 C195 0.930 . S
H208 C196 0.956 . S
H209 C196 0.961 . S
H210 C196 0.961 . S
H211 C197 0.958 . S
H212 C197 0.961 . S
H213 C197 0.960 . S
C214 C215 1.391 . S
C214 C216 1.394 . S
C214 H230 0.931 . S
C215 C214 1.391 . S
C215 C219 1.376 . S
C216 C214 1.394 . S
C216 C217 1.369 . S
C216 C220 1.531 . S
C217 C216 1.369 . S
C217 C218 1.410 . S
C217 C225 1.503 . S
C218 C217 1.410 . S
C218 C219 1.392 . S
C218 C221 1.511 . S
C219 C215 1.376 . S
C219 C218 1.392 . S
C219 H231 0.929 . S
C220 C216 1.531 . S
C220 H232 0.960 . S
C220 H233 0.962 . S
C220 H234 0.960 . S
C221 C218 1.511 . S
C221 H235 0.961 . S
C221 H236 0.961 . S
C221 H237 0.961 . S
C222 C223 1.370 . S
C222 C224 1.363 . S
C222 H238 0.931 . S
C223 C222 1.370 . S
C223 C227 1.408 . S
C224 C222 1.363 . S
C224 C225 1.370 . S
C224 C228 1.524 . S
C225 C217 1.503 . S
C225 C224 1.370 . S
C225 C226 1.403 . S
C226 C225 1.403 . S
C226 C227 1.404 . S
C226 C229 1.539 . S
C227 C223 1.408 . S
C227 C226 1.404 . S
C227 H239 0.930 1_565 S
C228 C224 1.524 . S
C228 H240 0.956 . S
C228 H241 0.961 . S
C228 H242 0.961 . S
C229 C226 1.539 . S
C229 H243 0.958 1_565 S
C229 H244 0.961 1_565 S
C229 H245 0.960 . S
H230 C214 0.931 . S
H231 C219 0.929 . S
H232 C220 0.960 . S
H233 C220 0.962 . S
H234 C220 0.960 . S
H235 C221 0.961 . S
H236 C221 0.961 . S
H237 C221 0.961 . S
H238 C222 0.931 . S
H239 C227 0.930 1_545 S
H240 C228 0.956 . S
H241 C228 0.961 . S
H242 C228 0.961 . S
H243 C229 0.958 1_545 S
H244 C229 0.961 1_545 S
H245 C229 0.960 . S
C246 C247 1.391 . S
C246 C248 1.394 . S
C246 H262 0.931 . S
C247 C246 1.391 . S
C247 C251 1.376 . S
C248 C246 1.394 . S
C248 C249 1.369 . S
C248 C252 1.531 . S
C249 C248 1.369 . S
C249 C250 1.410 . S
C249 C257 1.503 . S
C250 C249 1.410 . S
C250 C251 1.392 . S
C250 C253 1.511 . S
C251 C247 1.376 . S
C251 C250 1.392 . S
C251 H263 0.929 . S
C252 C248 1.531 . S
C252 H264 0.960 . S
C252 H265 0.962 . S
C252 H266 0.960 . S
C253 C250 1.511 . S
C253 H267 0.961 . S
C253 H268 0.961 . S
C253 H269 0.961 . S
C254 C255 1.370 . S
C254 C256 1.363 . S
C254 H270 0.931 . S
C255 C254 1.370 . S
C255 C259 1.408 . S
C256 C254 1.363 . S
C256 C257 1.370 . S
C256 C260 1.524 . S
C257 C249 1.503 . S
C257 C256 1.370 . S
C257 C258 1.403 . S
C258 C257 1.403 . S
C258 C259 1.404 . S
C258 C261 1.539 . S
C259 C255 1.408 . S
C259 C258 1.404 . S
C259 H271 0.930 . S
C260 C256 1.524 . S
C260 H272 0.956 . S
C260 H273 0.961 . S
C260 H274 0.961 . S
C261 C258 1.539 . S
C261 H275 0.958 . S
C261 H276 0.961 . S
C261 H277 0.960 . S
H262 C246 0.931 . S
H263 C251 0.929 . S
H264 C252 0.960 . S
H265 C252 0.962 . S
H266 C252 0.960 . S
H267 C253 0.961 . S
H268 C253 0.961 . S
H269 C253 0.961 . S
H270 C254 0.931 . S
H271 C259 0.930 . S
H272 C260 0.956 . S
H273 C260 0.961 . S
H274 C260 0.961 . S
H275 C261 0.958 . S
H276 C261 0.961 . S
H277 C261 0.960 . S
C278 C279 1.391 . S
C278 C280 1.394 . S
C278 H294 0.931 . S
C279 C278 1.391 . S
C279 C283 1.376 . S
C280 C278 1.394 . S
C280 C281 1.369 . S
C280 C284 1.531 . S
C281 C280 1.369 . S
C281 C282 1.410 . S
C281 C289 1.503 . S
C282 C281 1.410 . S
C282 C283 1.392 . S
C282 C285 1.511 . S
C283 C279 1.376 . S
C283 C282 1.392 . S
C283 H295 0.929 . S
C284 C280 1.531 . S
C284 H296 0.960 . S
C284 H297 0.962 . S
C284 H298 0.960 . S
C285 C282 1.511 . S
C285 H299 0.961 . S
C285 H300 0.961 . S
C285 H301 0.961 . S
C286 C287 1.370 . S
C286 C288 1.363 . S
C286 H302 0.931 . S
C287 C286 1.370 . S
C287 C291 1.408 . S
C288 C286 1.363 . S
C288 C289 1.370 . S
C288 C292 1.524 . S
C289 C281 1.503 . S
C289 C288 1.370 . S
C289 C290 1.403 . S
C290 C289 1.403 . S
C290 C291 1.404 . S
C290 C293 1.539 . S
C291 C287 1.408 . S
C291 C290 1.404 . S
C291 H303 0.930 . S
C292 C288 1.524 . S
C292 H304 0.956 . S
C292 H305 0.961 . S
C292 H306 0.961 . S
C293 C290 1.539 . S
C293 H307 0.958 . S
C293 H308 0.961 . S
C293 H309 0.960 . S
H294 C278 0.931 . S
H295 C283 0.929 . S
H296 C284 0.960 . S
H297 C284 0.962 . S
H298 C284 0.960 . S
H299 C285 0.961 . S
H300 C285 0.961 . S
H301 C285 0.961 . S
H302 C286 0.931 . S
H303 C291 0.930 . S
H304 C292 0.956 . S
H305 C292 0.961 . S
H306 C292 0.961 . S
H307 C293 0.958 . S
H308 C293 0.961 . S
H309 C293 0.960 . S
C310 C311 1.391 . S
C310 C312 1.394 . S
C310 H326 0.931 . S
C311 C310 1.391 . S
C311 C315 1.376 . S
C312 C310 1.394 . S
C312 C313 1.369 . S
C312 C316 1.531 . S
C313 C312 1.369 . S
C313 C314 1.410 . S
C313 C321 1.503 . S
C314 C313 1.410 . S
C314 C315 1.392 . S
C314 C317 1.511 . S
C315 C311 1.376 . S
C315 C314 1.392 . S
C315 H327 0.929 . S
C316 C312 1.531 . S
C316 H328 0.960 . S
C316 H329 0.962 . S
C316 H330 0.960 . S
C317 C314 1.511 . S
C317 H331 0.961 . S
C317 H332 0.961 . S
C317 H333 0.961 . S
C318 C319 1.370 . S
C318 C320 1.363 . S
C318 H334 0.931 . S
C319 C318 1.370 . S
C319 C323 1.408 . S
C320 C318 1.363 . S
C320 C321 1.370 . S
C320 C324 1.524 . S
C321 C313 1.503 . S
C321 C320 1.370 . S
C321 C322 1.403 . S
C322 C321 1.403 . S
C322 C323 1.404 . S
C322 C325 1.539 . S
C323 C319 1.408 . S
C323 C322 1.404 . S
C323 H335 0.930 . S
C324 C320 1.524 . S
C324 H336 0.956 . S
C324 H337 0.961 . S
C324 H338 0.961 . S
C325 C322 1.539 . S
C325 H339 0.958 . S
C325 H340 0.961 . S
C325 H341 0.960 . S
H326 C310 0.931 . S
H327 C315 0.929 . S
H328 C316 0.960 . S
H329 C316 0.962 . S
H330 C316 0.960 . S
H331 C317 0.961 . S
H332 C317 0.961 . S
H333 C317 0.961 . S
H334 C318 0.931 . S
H335 C323 0.930 . S
H336 C324 0.956 . S
H337 C324 0.961 . S
H338 C324 0.961 . S
H339 C325 0.958 . S
H340 C325 0.961 . S
H341 C325 0.960 . S
C342 C343 1.391 . S
C342 C344 1.394 . S
C342 H358 0.931 . S
C343 C342 1.391 . S
C343 C347 1.376 . S
C344 C342 1.394 . S
C344 C345 1.369 . S
C344 C348 1.531 . S
C345 C344 1.369 . S
C345 C346 1.410 . S
C345 C353 1.503 . S
C346 C345 1.410 . S
C346 C347 1.392 . S
C346 C349 1.511 . S
C347 C343 1.376 . S
C347 C346 1.392 . S
C347 H359 0.929 . S
C348 C344 1.531 . S
C348 H360 0.960 . S
C348 H361 0.962 . S
C348 H362 0.960 . S
C349 C346 1.511 . S
C349 H363 0.961 . S
C349 H364 0.961 . S
C349 H365 0.961 . S
C350 C351 1.370 . S
C350 C352 1.363 . S
C350 H366 0.931 . S
C351 C350 1.370 . S
C351 C355 1.408 . S
C352 C350 1.363 . S
C352 C353 1.370 . S
C352 C356 1.524 . S
C353 C345 1.503 . S
C353 C352 1.370 . S
C353 C354 1.403 . S
C354 C353 1.403 . S
C354 C355 1.404 . S
C354 C357 1.539 . S
C355 C351 1.408 . S
C355 C354 1.404 . S
C355 H367 0.930 . S
C356 C352 1.524 . S
C356 H368 0.956 . S
C356 H369 0.961 . S
C356 H370 0.961 . S
C357 C354 1.539 . S
C357 H371 0.958 . S
C357 H372 0.961 . S
C357 H373 0.960 . S
H358 C342 0.931 . S
H359 C347 0.929 . S
H360 C348 0.960 . S
H361 C348 0.962 . S
H362 C348 0.960 . S
H363 C349 0.961 . S
H364 C349 0.961 . S
H365 C349 0.961 . S
H366 C350 0.931 . S
H367 C355 0.930 . S
H368 C356 0.956 . S
H369 C356 0.961 . S
H370 C356 0.961 . S
H371 C357 0.958 . S
H372 C357 0.961 . S
H373 C357 0.960 . S
C374 C375 1.391 . S
C374 C376 1.394 . S
C374 H390 0.931 . S
C375 C374 1.391 . S
C375 C379 1.376 . S
C376 C374 1.394 . S
C376 C377 1.369 . S
C376 C380 1.531 . S
C377 C376 1.369 . S
C377 C378 1.410 . S
C377 C385 1.503 . S
C378 C377 1.410 . S
C378 C379 1.392 . S
C378 C381 1.511 . S
C379 C375 1.376 . S
C379 C378 1.392 . S
C379 H391 0.929 . S
C380 C376 1.531 . S
C380 H392 0.960 . S
C380 H393 0.962 . S
C380 H394 0.960 . S
C381 C378 1.511 . S
C381 H395 0.961 . S
C381 H396 0.961 . S
C381 H397 0.961 . S
C382 C383 1.370 . S
C382 C384 1.363 . S
C382 H398 0.931 . S
C383 C382 1.370 . S
C383 C387 1.408 . S
C384 C382 1.363 . S
C384 C385 1.370 . S
C384 C388 1.524 . S
C385 C377 1.503 . S
C385 C384 1.370 . S
C385 C386 1.403 . S
C386 C385 1.403 . S
C386 C387 1.404 . S
C386 C389 1.539 . S
C387 C383 1.408 . S
C387 C386 1.404 . S
C387 H399 0.930 . S
C388 C384 1.524 . S
C388 H400 0.956 . S
C388 H401 0.961 . S
C388 H402 0.961 . S
C389 C386 1.539 . S
C389 H403 0.958 . S
C389 H404 0.961 . S
C389 H405 0.960 . S
H390 C374 0.931 . S
H391 C379 0.929 . S
H392 C380 0.960 . S
H393 C380 0.962 . S
H394 C380 0.960 . S
H395 C381 0.961 . S
H396 C381 0.961 . S
H397 C381 0.961 . S
H398 C382 0.931 . S
H399 C387 0.930 . S
H400 C388 0.956 . S
H401 C388 0.961 . S
H402 C388 0.961 . S
H403 C389 0.958 . S
H404 C389 0.961 . S
H405 C389 0.960 . S
C406 C407 1.391 . S
C406 C408 1.394 . S
C406 H422 0.931 . S
C407 C406 1.391 . S
C407 C411 1.376 . S
C408 C406 1.394 . S
C408 C409 1.369 . S
C408 C412 1.531 . S
C409 C408 1.369 . S
C409 C410 1.410 . S
C409 C417 1.503 . S
C410 C409 1.410 . S
C410 C411 1.392 . S
C410 C413 1.511 . S
C411 C407 1.376 . S
C411 C410 1.392 . S
C411 H423 0.929 . S
C412 C408 1.531 . S
C412 H424 0.960 . S
C412 H425 0.962 . S
C412 H426 0.960 . S
C413 C410 1.511 . S
C413 H427 0.961 . S
C413 H428 0.961 . S
C413 H429 0.961 . S
C414 C415 1.370 . S
C414 C416 1.363 . S
C414 H430 0.931 . S
C415 C414 1.370 . S
C415 C419 1.408 . S
C416 C414 1.363 . S
C416 C417 1.370 . S
C416 C420 1.524 . S
C417 C409 1.503 . S
C417 C416 1.370 . S
C417 C418 1.403 . S
C418 C417 1.403 . S
C418 C419 1.404 . S
C418 C421 1.539 . S
C419 C415 1.408 . S
C419 C418 1.404 . S
C419 H431 0.930 . S
C420 C416 1.524 . S
C420 H432 0.956 . S
C420 H433 0.961 . S
C420 H434 0.961 . S
C421 C418 1.539 . S
C421 H435 0.958 . S
C421 H436 0.961 . S
C421 H437 0.960 . S
H422 C406 0.931 . S
H423 C411 0.929 . S
H424 C412 0.960 . S
H425 C412 0.962 . S
H426 C412 0.960 . S
H427 C413 0.961 . S
H428 C413 0.961 . S
H429 C413 0.961 . S
H430 C414 0.931 . S
H431 C419 0.930 . S
H432 C420 0.956 . S
H433 C420 0.961 . S
H434 C420 0.961 . S
H435 C421 0.958 . S
H436 C421 0.961 . S
H437 C421 0.960 . S
C438 C439 1.391 . S
C438 C440 1.394 . S
C438 H454 0.931 . S
C439 C438 1.391 . S
C439 C443 1.376 . S
C440 C438 1.394 . S
C440 C441 1.369 . S
C440 C444 1.531 . S
C441 C440 1.369 . S
C441 C442 1.410 . S
C441 C449 1.503 . S
C442 C441 1.410 . S
C442 C443 1.392 . S
C442 C445 1.511 . S
C443 C439 1.376 . S
C443 C442 1.392 . S
C443 H455 0.929 . S
C444 C440 1.531 . S
C444 H456 0.960 . S
C444 H457 0.962 . S
C444 H458 0.960 . S
C445 C442 1.511 . S
C445 H459 0.961 . S
C445 H460 0.961 . S
C445 H461 0.961 . S
C446 C447 1.370 . S
C446 C448 1.363 . S
C446 H462 0.931 1_565 S
C447 C446 1.370 . S
C447 C451 1.408 . S
C448 C446 1.363 . S
C448 C449 1.370 . S
C448 C452 1.524 . S
C449 C441 1.503 . S
C449 C448 1.370 . S
C449 C450 1.403 . S
C450 C449 1.403 . S
C450 C451 1.404 . S
C450 C453 1.539 . S
C451 C447 1.408 . S
C451 C450 1.404 . S
C451 H463 0.930 . S
C452 C448 1.524 . S
C452 H464 0.956 . S
C452 H465 0.961 . S
C452 H466 0.961 1_565 S
C453 C450 1.539 . S
C453 H467 0.958 . S
C453 H468 0.961 . S
C453 H469 0.960 . S
H454 C438 0.931 . S
H455 C443 0.929 . S
H456 C444 0.960 . S
H457 C444 0.962 . S
H458 C444 0.960 . S
H459 C445 0.961 . S
H460 C445 0.961 . S
H461 C445 0.961 . S
H462 C446 0.931 1_545 S
H463 C451 0.930 . S
H464 C452 0.956 . S
H465 C452 0.961 . S
H466 C452 0.961 1_545 S
H467 C453 0.958 . S
H468 C453 0.961 . S
H469 C453 0.960 . S
C95 C59 1.251 . S
C87 N37 1.433 . S
C119 N4 1.473 . S
C127 C83 1.302 . S
C151 N15 1.593 . S
C159 C62 1.415 . S
C183 N26 1.568 . S
C191 C80 1.358 . S
C223 C60 1.497 . S
C215 C9 1.487 . S
C255 C82 1.555 . S
C247 C17 1.613 . S
C279 C31 1.590 . S
C287 C61 1.565 . S
C311 C42 1.493 . S
C319 C81 1.450 . S
C351 C79 1.466 . S
C343 C20 1.523 . S
C383 C58 1.478 . S
C375 C28 1.527 . S
C415 C78 1.420 . S
C407 C39 1.442 . S
C439 C6 1.433 1_556 S
C447 C57 1.405 . S
